# Generated by pormake.
# Topology ukm, (4)-cn, num edge types: 1
# Building blocks:
#     Node 0, Type 0, BuildingBlock: NAHDIM_clean_sbu_0, # of connection points: 4
#     Node 1, Type 0, BuildingBlock: NAHDIM_clean_sbu_0, # of connection points: 4
#     Node 2, Type 0, BuildingBlock: NAHDIM_clean_sbu_0, # of connection points: 4
#     Node 3, Type 0, BuildingBlock: NAHDIM_clean_sbu_0, # of connection points: 4
#     Node 4, Type 0, BuildingBlock: NAHDIM_clean_sbu_0, # of connection points: 4
#     Node 5, Type 0, BuildingBlock: NAHDIM_clean_sbu_0, # of connection points: 4
#     Node 6, Type 0, BuildingBlock: NAHDIM_clean_sbu_0, # of connection points: 4
#     Node 7, Type 0, BuildingBlock: NAHDIM_clean_sbu_0, # of connection points: 4
#     Node 8, Type 0, BuildingBlock: NAHDIM_clean_sbu_0, # of connection points: 4
#     Node 9, Type 0, BuildingBlock: NAHDIM_clean_sbu_0, # of connection points: 4
#     Node 10, Type 0, BuildingBlock: NAHDIM_clean_sbu_0, # of connection points: 4
#     Node 11, Type 0, BuildingBlock: NAHDIM_clean_sbu_0, # of connection points: 4
#     Node 12, Type 0, BuildingBlock: NAHDIM_clean_sbu_0, # of connection points: 4
#     Node 13, Type 0, BuildingBlock: NAHDIM_clean_sbu_0, # of connection points: 4
#     Node 14, Type 0, BuildingBlock: NAHDIM_clean_sbu_0, # of connection points: 4
#     Node 15, Type 0, BuildingBlock: NAHDIM_clean_sbu_0, # of connection points: 4
#     Node 16, Type 0, BuildingBlock: NAHDIM_clean_sbu_0, # of connection points: 4
#     Node 17, Type 0, BuildingBlock: NAHDIM_clean_sbu_0, # of connection points: 4
#     Node 18, Type 0, BuildingBlock: NAHDIM_clean_sbu_0, # of connection points: 4
#     Node 19, Type 0, BuildingBlock: NAHDIM_clean_sbu_0, # of connection points: 4
#     Node 20, Type 0, BuildingBlock: NAHDIM_clean_sbu_0, # of connection points: 4
#     Node 21, Type 0, BuildingBlock: NAHDIM_clean_sbu_0, # of connection points: 4
#     Node 22, Type 0, BuildingBlock: NAHDIM_clean_sbu_0, # of connection points: 4
#     Node 23, Type 0, BuildingBlock: NAHDIM_clean_sbu_0, # of connection points: 4
#     Node 24, Type 0, BuildingBlock: NAHDIM_clean_sbu_0, # of connection points: 4
#     Node 25, Type 0, BuildingBlock: NAHDIM_clean_sbu_0, # of connection points: 4
#     Node 26, Type 0, BuildingBlock: NAHDIM_clean_sbu_0, # of connection points: 4
#     Node 27, Type 0, BuildingBlock: NAHDIM_clean_sbu_0, # of connection points: 4
#     Node 28, Type 0, BuildingBlock: NAHDIM_clean_sbu_0, # of connection points: 4
#     Node 29, Type 0, BuildingBlock: NAHDIM_clean_sbu_0, # of connection points: 4
#     Node 30, Type 0, BuildingBlock: NAHDIM_clean_sbu_0, # of connection points: 4
#     Node 31, Type 0, BuildingBlock: NAHDIM_clean_sbu_0, # of connection points: 4
#     Edge 32, Type (0, 0), BuildingBlock: KIFKEQ_clean_linker_1, # of connection points: 2
#     Edge 33, Type (0, 0), BuildingBlock: KIFKEQ_clean_linker_1, # of connection points: 2
#     Edge 34, Type (0, 0), BuildingBlock: KIFKEQ_clean_linker_1, # of connection points: 2
#     Edge 35, Type (0, 0), BuildingBlock: KIFKEQ_clean_linker_1, # of connection points: 2
#     Edge 36, Type (0, 0), BuildingBlock: KIFKEQ_clean_linker_1, # of connection points: 2
#     Edge 37, Type (0, 0), BuildingBlock: KIFKEQ_clean_linker_1, # of connection points: 2
#     Edge 38, Type (0, 0), BuildingBlock: KIFKEQ_clean_linker_1, # of connection points: 2
#     Edge 39, Type (0, 0), BuildingBlock: KIFKEQ_clean_linker_1, # of connection points: 2
#     Edge 40, Type (0, 0), BuildingBlock: KIFKEQ_clean_linker_1, # of connection points: 2
#     Edge 41, Type (0, 0), BuildingBlock: KIFKEQ_clean_linker_1, # of connection points: 2
#     Edge 42, Type (0, 0), BuildingBlock: KIFKEQ_clean_linker_1, # of connection points: 2
#     Edge 43, Type (0, 0), BuildingBlock: KIFKEQ_clean_linker_1, # of connection points: 2
#     Edge 44, Type (0, 0), BuildingBlock: KIFKEQ_clean_linker_1, # of connection points: 2
#     Edge 45, Type (0, 0), BuildingBlock: KIFKEQ_clean_linker_1, # of connection points: 2
#     Edge 46, Type (0, 0), BuildingBlock: KIFKEQ_clean_linker_1, # of connection points: 2
#     Edge 47, Type (0, 0), BuildingBlock: KIFKEQ_clean_linker_1, # of connection points: 2
#     Edge 48, Type (0, 0), BuildingBlock: KIFKEQ_clean_linker_1, # of connection points: 2
#     Edge 49, Type (0, 0), BuildingBlock: KIFKEQ_clean_linker_1, # of connection points: 2
#     Edge 50, Type (0, 0), BuildingBlock: KIFKEQ_clean_linker_1, # of connection points: 2
#     Edge 51, Type (0, 0), BuildingBlock: KIFKEQ_clean_linker_1, # of connection points: 2
#     Edge 52, Type (0, 0), BuildingBlock: KIFKEQ_clean_linker_1, # of connection points: 2
#     Edge 53, Type (0, 0), BuildingBlock: KIFKEQ_clean_linker_1, # of connection points: 2
#     Edge 54, Type (0, 0), BuildingBlock: KIFKEQ_clean_linker_1, # of connection points: 2
#     Edge 55, Type (0, 0), BuildingBlock: KIFKEQ_clean_linker_1, # of connection points: 2
#     Edge 56, Type (0, 0), BuildingBlock: KIFKEQ_clean_linker_1, # of connection points: 2
#     Edge 57, Type (0, 0), BuildingBlock: KIFKEQ_clean_linker_1, # of connection points: 2
#     Edge 58, Type (0, 0), BuildingBlock: KIFKEQ_clean_linker_1, # of connection points: 2
#     Edge 59, Type (0, 0), BuildingBlock: KIFKEQ_clean_linker_1, # of connection points: 2
#     Edge 60, Type (0, 0), BuildingBlock: KIFKEQ_clean_linker_1, # of connection points: 2
#     Edge 61, Type (0, 0), BuildingBlock: KIFKEQ_clean_linker_1, # of connection points: 2
#     Edge 62, Type (0, 0), BuildingBlock: KIFKEQ_clean_linker_1, # of connection points: 2
#     Edge 63, Type (0, 0), BuildingBlock: KIFKEQ_clean_linker_1, # of connection points: 2
#     Edge 64, Type (0, 0), BuildingBlock: KIFKEQ_clean_linker_1, # of connection points: 2
#     Edge 65, Type (0, 0), BuildingBlock: KIFKEQ_clean_linker_1, # of connection points: 2
#     Edge 66, Type (0, 0), BuildingBlock: KIFKEQ_clean_linker_1, # of connection points: 2
#     Edge 67, Type (0, 0), BuildingBlock: KIFKEQ_clean_linker_1, # of connection points: 2
#     Edge 68, Type (0, 0), BuildingBlock: KIFKEQ_clean_linker_1, # of connection points: 2
#     Edge 69, Type (0, 0), BuildingBlock: KIFKEQ_clean_linker_1, # of connection points: 2
#     Edge 70, Type (0, 0), BuildingBlock: KIFKEQ_clean_linker_1, # of connection points: 2
#     Edge 71, Type (0, 0), BuildingBlock: KIFKEQ_clean_linker_1, # of connection points: 2
#     Edge 72, Type (0, 0), BuildingBlock: KIFKEQ_clean_linker_1, # of connection points: 2
#     Edge 73, Type (0, 0), BuildingBlock: KIFKEQ_clean_linker_1, # of connection points: 2
#     Edge 74, Type (0, 0), BuildingBlock: KIFKEQ_clean_linker_1, # of connection points: 2
#     Edge 75, Type (0, 0), BuildingBlock: KIFKEQ_clean_linker_1, # of connection points: 2
#     Edge 76, Type (0, 0), BuildingBlock: KIFKEQ_clean_linker_1, # of connection points: 2
#     Edge 77, Type (0, 0), BuildingBlock: KIFKEQ_clean_linker_1, # of connection points: 2
#     Edge 78, Type (0, 0), BuildingBlock: KIFKEQ_clean_linker_1, # of connection points: 2
#     Edge 79, Type (0, 0), BuildingBlock: KIFKEQ_clean_linker_1, # of connection points: 2
#     Edge 80, Type (0, 0), BuildingBlock: KIFKEQ_clean_linker_1, # of connection points: 2
#     Edge 81, Type (0, 0), BuildingBlock: KIFKEQ_clean_linker_1, # of connection points: 2
#     Edge 82, Type (0, 0), BuildingBlock: KIFKEQ_clean_linker_1, # of connection points: 2
#     Edge 83, Type (0, 0), BuildingBlock: KIFKEQ_clean_linker_1, # of connection points: 2
#     Edge 84, Type (0, 0), BuildingBlock: KIFKEQ_clean_linker_1, # of connection points: 2
#     Edge 85, Type (0, 0), BuildingBlock: KIFKEQ_clean_linker_1, # of connection points: 2
#     Edge 86, Type (0, 0), BuildingBlock: KIFKEQ_clean_linker_1, # of connection points: 2
#     Edge 87, Type (0, 0), BuildingBlock: KIFKEQ_clean_linker_1, # of connection points: 2
#     Edge 88, Type (0, 0), BuildingBlock: KIFKEQ_clean_linker_1, # of connection points: 2
#     Edge 89, Type (0, 0), BuildingBlock: KIFKEQ_clean_linker_1, # of connection points: 2
#     Edge 90, Type (0, 0), BuildingBlock: KIFKEQ_clean_linker_1, # of connection points: 2
#     Edge 91, Type (0, 0), BuildingBlock: KIFKEQ_clean_linker_1, # of connection points: 2
#     Edge 92, Type (0, 0), BuildingBlock: KIFKEQ_clean_linker_1, # of connection points: 2
#     Edge 93, Type (0, 0), BuildingBlock: KIFKEQ_clean_linker_1, # of connection points: 2
#     Edge 94, Type (0, 0), BuildingBlock: KIFKEQ_clean_linker_1, # of connection points: 2
#     Edge 95, Type (0, 0), BuildingBlock: KIFKEQ_clean_linker_1, # of connection points: 2
# Relax obj value: 0.264
# Max RMSD: 0.216
# Mean RMSD: 0.216
data_MOF--net-ukm--node1-NAHDIM_clean_sbu_0--edge1-KIFKEQ_clean_linker_1
_symmetry_space_group_name_H-M    P1
_symmetry_Int_Tables_number       1
_symmetry_cell_setting            triclinic
loop_
_symmetry_equiv_pos_as_xyz
'x, y, z'
_cell_length_a     26.46853
_cell_length_b     107.07356
_cell_length_c     39.220451
_cell_angle_alpha  89.867048
_cell_angle_beta   89.992725
_cell_angle_gamma 89.930932
loop_
_atom_site_label
_atom_site_type_symbol
_atom_site_fract_x
_atom_site_fract_y
_atom_site_fract_z
_atom_type_partial_charge
C0 C 0.10539 0.2927 0.23889 0.0
O1 O 0.14901 0.29464 0.22379 0.0
O2 O 0.19239 0.31349 0.2825 0.0
Zn3 Zn 0.1283 0.31706 0.25642 0.0
O4 O 0.14545 0.32069 0.20763 0.0
C5 C 0.11962 0.34203 0.27411 0.0
O6 O 0.1634 0.34156 0.25837 0.0
O7 O 0.08604 0.30146 0.25646 0.0
C8 C 0.11995 0.32762 0.1877 0.0
O9 O 0.07951 0.33336 0.19917 0.0
C10 C 0.23586 0.31606 0.27062 0.0
O11 O 0.23957 0.32126 0.24036 0.0
O12 O 0.09406 0.33205 0.27705 0.0
C13 C 0.21356 0.94413 0.26956 0.0
O14 O 0.17003 0.94555 0.28514 0.0
O15 O 0.11845 0.92405 0.29435 0.0
Zn16 Zn 0.17901 0.9189 0.26633 0.0
O17 O 0.15593 0.91653 0.21822 0.0
C18 C 0.18934 0.8927 0.27399 0.0
O19 O 0.15168 0.89331 0.25227 0.0
O20 O 0.22845 0.93317 0.26222 0.0
C21 C 0.18518 0.91183 0.196 0.0
O22 O 0.23004 0.90779 0.20525 0.0
C23 C 0.07526 0.91924 0.28922 0.0
O24 O 0.0706 0.91032 0.26652 0.0
O25 O 0.20924 0.9028 0.28445 0.0
C26 C 0.02957 0.96523 0.89609 0.0
O27 O 0.07246 0.96636 0.87956 0.0
O28 O 0.11874 0.94113 0.87104 0.0
Zn29 Zn 0.05278 0.9386 0.89605 0.0
O30 O 0.06941 0.93241 0.94283 0.0
C31 C 0.0267 0.91861 0.85011 0.0
O32 O 0.06499 0.92289 0.83228 0.0
O33 O 0.01294 0.95439 0.90305 0.0
C34 C 0.10502 0.92475 0.94875 0.0
O35 O 0.13359 0.92081 0.92357 0.0
C36 C 0.15536 0.94639 0.88628 0.0
O37 O 0.14813 0.95091 0.91703 0.0
O38 O 0.01201 0.92466 0.87607 0.0
C39 C 0.23534 0.26637 0.91758 0.0
O40 O 0.18744 0.26502 0.90973 0.0
O41 O 0.14686 0.2884 0.88107 0.0
Zn42 Zn 0.21753 0.29209 0.89793 0.0
O43 O 0.21146 0.30268 0.93975 0.0
C44 C 0.28871 0.30987 0.8737 0.0
O45 O 0.30719 0.30819 0.90447 0.0
O46 O 0.25666 0.27682 0.91222 0.0
C47 C 0.18087 0.31177 0.94241 0.0
O48 O 0.1505 0.31453 0.91699 0.0
C49 C 0.11056 0.28692 0.90197 0.0
O50 O 0.12022 0.28671 0.93483 0.0
O51 O 0.25319 0.3028 0.86362 0.0
C52 C 0.8549 0.71301 0.71429 0.0
O53 O 0.81362 0.71011 0.73117 0.0
O54 O 0.75803 0.69289 0.67594 0.0
Zn55 Zn 0.82983 0.68974 0.69084 0.0
O56 O 0.83344 0.6835 0.7391 0.0
C57 C 0.83962 0.66547 0.66996 0.0
O58 O 0.80506 0.66509 0.694 0.0
O59 O 0.87037 0.70559 0.69124 0.0
C60 C 0.87578 0.67909 0.7486 0.0
O61 O 0.91343 0.67881 0.72677 0.0
C62 C 0.71987 0.69053 0.69455 0.0
O63 O 0.72687 0.68641 0.72576 0.0
O64 O 0.85826 0.67599 0.66157 0.0
C65 C 0.82013 0.03626 0.72106 0.0
O66 O 0.85728 0.04111 0.73881 0.0
O67 O 0.89177 0.05622 0.64559 0.0
Zn68 Zn 0.83698 0.05832 0.68079 0.0
O69 O 0.86858 0.06541 0.72293 0.0
C70 C 0.77863 0.07532 0.63692 0.0
O71 O 0.80651 0.07105 0.61179 0.0
O72 O 0.8052 0.04181 0.6941 0.0
C73 C 0.8647 0.07662 0.7332 0.0
O74 O 0.84088 0.08488 0.71429 0.0
C75 C 0.93026 0.0498 0.65394 0.0
O76 O 0.93118 0.0444 0.68404 0.0
O77 O 0.78397 0.0707 0.66653 0.0
C78 C 0.89053 0.03948 0.02234 0.0
O79 O 0.84382 0.04308 0.01655 0.0
O80 O 0.82217 0.06141 0.07123 0.0
Zn81 Zn 0.88825 0.06356 0.0466 0.0
O82 O 0.87396 0.06984 -0.00044 0.0
C83 C 0.93164 0.07814 0.1015 0.0
O84 O 0.90087 0.07161 0.12084 0.0
O85 O 0.91989 0.0468 0.03837 0.0
C86 C 0.88988 0.07987 0.98601 0.0
O87 O 0.91627 0.0878 0.00428 0.0
C88 C 0.7862 0.06902 0.0657 0.0
O89 O 0.79402 0.07865 0.04559 0.0
O90 O 0.93391 0.07579 0.06985 0.0
C91 C 0.84695 0.6997 0.03068 0.0
O92 O 0.87654 0.69542 0.0065 0.0
O93 O 0.94764 0.67876 0.08299 0.0
Zn94 Zn 0.87931 0.67681 0.06083 0.0
O95 O 0.88781 0.6705 0.01307 0.0
C96 C 0.80566 0.65782 0.0676 0.0
O97 O 0.79193 0.66259 0.03812 0.0
O98 O 0.84171 0.69334 0.05796 0.0
C99 C 0.92796 0.6677 -0.00286 0.0
O100 O 0.97197 0.66865 0.01234 0.0
C101 C 0.97949 0.68686 0.073 0.0
O102 O 0.96704 0.69457 0.04828 0.0
O103 O 0.84017 0.66324 0.08457 0.0
C104 C 0.07761 0.7818 0.80468 0.0
O105 O 0.12603 0.78173 0.79727 0.0
O106 O 0.15622 0.80428 0.86069 0.0
Zn107 Zn 0.10235 0.80647 0.82493 0.0
O108 O 0.13752 0.80903 0.78011 0.0
C109 C 0.05246 0.82757 0.85989 0.0
O110 O 0.07263 0.82334 0.88827 0.0
O111 O 0.05872 0.79134 0.81907 0.0
C112 C 0.14071 0.81957 0.76527 0.0
O113 O 0.12164 0.82953 0.77995 0.0
C114 C 0.18862 0.81301 0.86237 0.0
O115 O 0.18228 0.82297 0.8432 0.0
O116 O 0.05923 0.82162 0.83234 0.0
C117 C 0.13122 0.43882 0.80398 0.0
O118 O 0.0818 0.43801 0.80216 0.0
O119 O 0.05301 0.41371 0.83226 0.0
Zn120 Zn 0.11755 0.41285 0.80474 0.0
O121 O 0.10185 0.41136 0.75493 0.0
C122 C 0.2049 0.39629 0.81439 0.0
O123 O 0.23254 0.40557 0.8029 0.0
O124 O 0.15684 0.42888 0.80808 0.0
C125 C 0.11009 0.40187 0.73637 0.0
O126 O 0.12783 0.39158 0.75023 0.0
C127 C 0.01074 0.41575 0.81784 0.0
O128 O 0.00927 0.41726 0.78461 0.0
O129 O 0.15763 0.39779 0.8184 0.0
C130 C 0.09026 0.46472 0.45566 0.0
O131 O 0.13499 0.46395 0.47003 0.0
O132 O 0.19093 0.44479 0.42332 0.0
Zn133 Zn 0.11834 0.44043 0.434 0.0
O134 O 0.11243 0.43196 0.47935 0.0
C135 C 0.06135 0.42009 0.40506 0.0
O136 O 0.04074 0.41977 0.43553 0.0
O137 O 0.07509 0.45579 0.43697 0.0
C138 C 0.13483 0.42198 0.48824 0.0
O139 O 0.16683 0.41661 0.46725 0.0
C140 C 0.22607 0.44531 0.4454 0.0
O141 O 0.21539 0.44332 0.47766 0.0
O142 O 0.09349 0.42854 0.39815 0.0
C143 C 0.14854 0.77315 0.4479 0.0
O144 O 0.10068 0.77557 0.44208 0.0
O145 O 0.08309 0.80203 0.43887 0.0
Zn146 Zn 0.15633 0.80003 0.45191 0.0
O147 O 0.16313 0.80448 0.50102 0.0
C148 C 0.20362 0.81132 0.39233 0.0
O149 O 0.1865 0.80146 0.37618 0.0
O150 O 0.17978 0.78215 0.44943 0.0
C151 C 0.17997 0.8146 0.51337 0.0
O152 O 0.19448 0.82362 0.49285 0.0
C153 C 0.048 0.80026 0.4605 0.0
O154 O 0.05973 0.79659 0.49149 0.0
O155 O 0.19733 0.81211 0.42433 0.0
C156 C 0.94391 0.20762 0.2249 0.0
O157 O 0.89566 0.20635 0.23185 0.0
O158 O 0.86827 0.1801 0.21335 0.0
Zn159 Zn 0.93992 0.18107 0.231 0.0
O160 O 0.93914 0.17821 0.28129 0.0
C161 C 0.97458 0.16453 0.17869 0.0
O162 O 0.9495 0.17235 0.15912 0.0
O163 O 0.97116 0.19789 0.22192 0.0
C164 C 0.92353 0.16784 0.29296 0.0
O165 O 0.90871 0.15914 0.27161 0.0
C166 C 0.82977 0.18209 0.23201 0.0
O167 O 0.83619 0.18548 0.26389 0.0
O168 O 0.97863 0.16691 0.21025 0.0
C169 C 0.8639 0.52302 0.16883 0.0
O170 O 0.90916 0.52549 0.18074 0.0
O171 O 0.94101 0.55027 0.14024 0.0
Zn172 Zn 0.86922 0.54893 0.15785 0.0
O173 O 0.86854 0.5525 0.20758 0.0
C174 C 0.83432 0.56746 0.10871 0.0
O175 O 0.86928 0.5627 0.08881 0.0
O176 O 0.83928 0.5317 0.1541 0.0
C177 C 0.87809 0.56319 0.21994 0.0
O178 O 0.89115 0.57237 0.19951 0.0
C179 C 0.97856 0.54975 0.16047 0.0
O180 O 0.97066 0.54759 0.19301 0.0
O181 O 0.82602 0.56246 0.13753 0.0
C182 C 0.8567 0.53563 0.51816 0.0
O183 O 0.81615 0.53752 0.49955 0.0
O184 O 0.75614 0.55585 0.55926 0.0
Zn185 Zn 0.8247 0.55912 0.53889 0.0
O186 O 0.81838 0.56343 0.48936 0.0
C187 C 0.83842 0.58446 0.55169 0.0
O188 O 0.80338 0.58454 0.52797 0.0
O189 O 0.86876 0.54374 0.54035 0.0
C190 C 0.858 0.56712 0.47414 0.0
O191 O 0.9001 0.56831 0.49159 0.0
C192 C 0.71785 0.55283 0.54153 0.0
O193 O 0.72277 0.55144 0.50844 0.0
O194 O 0.85532 0.57402 0.5623 0.0
C195 C 0.81084 0.20544 0.57823 0.0
O196 O 0.86025 0.20424 0.57773 0.0
O197 O 0.88209 0.18512 0.63562 0.0
Zn198 Zn 0.82307 0.18141 0.60492 0.0
O199 O 0.85206 0.17476 0.56127 0.0
C200 C 0.73619 0.16459 0.61624 0.0
O201 O 0.71156 0.17149 0.59406 0.0
O202 O 0.78442 0.19681 0.59156 0.0
C203 C 0.82242 0.17318 0.5362 0.0
O204 O 0.77427 0.17579 0.53985 0.0
C205 C 0.90679 0.1756 0.64565 0.0
O206 O 0.8907 0.16445 0.63695 0.0
O207 O 0.78046 0.16774 0.62538 0.0
C208 C 0.61746 0.28004 0.80586 0.0
O209 O 0.66265 0.28026 0.79199 0.0
O210 O 0.71745 0.30025 0.83524 0.0
Zn211 Zn 0.64791 0.3045 0.81683 0.0
O212 O 0.65236 0.3078 0.76664 0.0
C213 C 0.64277 0.33004 0.83041 0.0
O214 O 0.68368 0.32924 0.81157 0.0
O215 O 0.60152 0.28976 0.82101 0.0
C216 C 0.61746 0.31369 0.75121 0.0
O217 O 0.57841 0.3178 0.76858 0.0
C218 C 0.75668 0.30301 0.81805 0.0
O219 O 0.75144 0.30883 0.78875 0.0
O220 O 0.61963 0.32006 0.8384 0.0
C221 C 0.63669 0.95927 0.80103 0.0
O222 O 0.59197 0.9575 0.78738 0.0
O223 O 0.5486 0.93578 0.82318 0.0
Zn224 Zn 0.62169 0.93387 0.80905 0.0
O225 O 0.62646 0.931 0.75878 0.0
C226 C 0.64671 0.90856 0.82216 0.0
O227 O 0.62223 0.9074 0.7932 0.0
O228 O 0.65859 0.95011 0.81551 0.0
C229 C 0.66905 0.92882 0.7451 0.0
O230 O 0.70906 0.92741 0.76456 0.0
C231 C 0.51274 0.93628 0.80161 0.0
O232 O 0.52312 0.93539 0.76896 0.0
O233 O 0.65273 0.91941 0.83464 0.0
C234 C 0.6267 0.97018 0.43472 0.0
O235 O 0.66924 0.96968 0.4519 0.0
O236 O 0.71906 0.94507 0.3973 0.0
Zn237 Zn 0.6543 0.94497 0.42467 0.0
O238 O 0.66664 0.94312 0.47505 0.0
C239 C 0.64176 0.91962 0.41983 0.0
O240 O 0.68852 0.92106 0.43031 0.0
O241 O 0.61214 0.96054 0.41861 0.0
C242 C 0.70585 0.93974 0.49136 0.0
O243 O 0.74815 0.93746 0.47504 0.0
C244 C 0.75963 0.95083 0.40455 0.0
O245 O 0.76094 0.95821 0.43123 0.0
O246 O 0.61592 0.9293 0.41275 0.0
C247 C 0.65658 0.27738 0.44863 0.0
O248 O 0.60983 0.28064 0.45562 0.0
O249 O 0.59023 0.30255 0.40282 0.0
Zn250 Zn 0.65293 0.30233 0.43239 0.0
O251 O 0.63472 0.3054 0.48109 0.0
C252 C 0.69886 0.32164 0.39067 0.0
O253 O 0.67063 0.31688 0.36641 0.0
O254 O 0.68518 0.28532 0.43408 0.0
C255 C 0.62978 0.31592 0.49554 0.0
O256 O 0.63446 0.32622 0.47754 0.0
C257 C 0.54662 0.304 0.41587 0.0
O258 O 0.54232 0.30505 0.44909 0.0
O259 O 0.69999 0.31629 0.41959 0.0
C260 C 0.43292 0.71198 0.22125 0.0
O261 O 0.388 0.70751 0.22866 0.0
O262 O 0.36533 0.69134 0.16352 0.0
Zn263 Zn 0.43137 0.68922 0.18828 0.0
O264 O 0.41573 0.68096 0.23277 0.0
C265 C 0.47195 0.67424 0.13282 0.0
O266 O 0.43814 0.68012 0.11422 0.0
O267 O 0.46113 0.70583 0.20104 0.0
C268 C 0.45025 0.6756 0.2499 0.0
O269 O 0.49631 0.6751 0.23748 0.0
C270 C 0.33734 0.68176 0.16086 0.0
O271 O 0.35388 0.67102 0.17273 0.0
O272 O 0.47824 0.67751 0.16363 0.0
C273 C 0.33155 0.02098 0.14556 0.0
O274 O 0.37989 0.0234 0.14216 0.0
O275 O 0.3957 0.04956 0.12342 0.0
Zn276 Zn 0.32426 0.0477 0.14112 0.0
O277 O 0.32429 0.05348 0.18939 0.0
C278 C 0.2928 0.06672 0.09399 0.0
O279 O 0.33359 0.06329 0.07735 0.0
O280 O 0.29986 0.02987 0.14273 0.0
C281 C 0.33633 0.06463 0.19678 0.0
O282 O 0.3501 0.07232 0.17235 0.0
C283 C 0.43273 0.04867 0.14398 0.0
O284 O 0.424 0.04579 0.17602 0.0
O285 O 0.27748 0.05996 0.11854 0.0
C286 C 0.39495 0.04309 0.48117 0.0
O287 O 0.35582 0.0453 0.46145 0.0
O288 O 0.29252 0.06002 0.53545 0.0
Zn289 Zn 0.35671 0.06512 0.51163 0.0
O290 O 0.34025 0.07134 0.46479 0.0
C291 C 0.36932 0.0899 0.53362 0.0
O292 O 0.3313 0.09113 0.51233 0.0
O293 O 0.40348 0.05035 0.50617 0.0
C294 C 0.37445 0.07603 0.44605 0.0
O295 O 0.42032 0.0773 0.45837 0.0
C296 C 0.25237 0.0574 0.51917 0.0
O297 O 0.25294 0.05761 0.48569 0.0
O298 O 0.38859 0.07914 0.53806 0.0
C299 C 0.25067 0.69259 0.56068 0.0
O300 O 0.27568 0.6931 0.58957 0.0
O301 O 0.35737 0.67309 0.58298 0.0
Zn302 Zn 0.30084 0.66841 0.55088 0.0
O303 O 0.32968 0.66479 0.50453 0.0
C304 C 0.29285 0.64299 0.56244 0.0
O305 O 0.33944 0.64433 0.55149 0.0
O306 O 0.25328 0.68278 0.54264 0.0
C307 C 0.376 0.66355 0.49669 0.0
O308 O 0.41085 0.66448 0.52038 0.0
C309 C 0.38412 0.68273 0.57717 0.0
O310 O 0.37335 0.68978 0.55067 0.0
O311 O 0.26577 0.65269 0.56637 0.0
C312 C 0.57726 0.7851 0.34941 0.0
O313 O 0.62674 0.78603 0.34828 0.0
O314 O 0.65679 0.80775 0.38742 0.0
Zn315 Zn 0.5942 0.8102 0.35899 0.0
O316 O 0.61709 0.81222 0.3108 0.0
C317 C 0.5579 0.82994 0.40255 0.0
O318 O 0.57584 0.82272 0.42685 0.0
O319 O 0.55156 0.79472 0.35728 0.0
C320 C 0.62352 0.8224 0.29471 0.0
O321 O 0.61612 0.83309 0.31031 0.0
C322 C 0.68911 0.81652 0.38739 0.0
O323 O 0.67853 0.82693 0.37108 0.0
O324 O 0.55791 0.82594 0.37212 0.0
C325 C 0.68211 0.45 0.27451 0.0
O326 O 0.64161 0.44534 0.26006 0.0
O327 O 0.60312 0.43597 0.35517 0.0
Zn328 Zn 0.65858 0.43073 0.32274 0.0
O329 O 0.6271 0.42157 0.28352 0.0
C330 C 0.69494 0.41246 0.37143 0.0
O331 O 0.6573 0.41664 0.39005 0.0
O332 O 0.697 0.44549 0.30288 0.0
C333 C 0.5805 0.42116 0.27587 0.0
O334 O 0.54733 0.4269 0.2952 0.0
C335 C 0.57791 0.44597 0.35103 0.0
O336 O 0.59058 0.45366 0.32632 0.0
O337 O 0.70504 0.4179 0.34344 0.0
C338 C 0.57743 0.45426 0.98643 0.0
O339 O 0.61816 0.45007 0.00186 0.0
O340 O 0.65509 0.43082 0.94543 0.0
Zn341 Zn 0.58473 0.42986 0.96442 0.0
O342 O 0.58789 0.42347 0.01222 0.0
C343 C 0.55617 0.41592 0.90552 0.0
O344 O 0.58236 0.42464 0.88991 0.0
O345 O 0.55391 0.44701 0.96628 0.0
C346 C 0.54791 0.41961 0.02671 0.0
O347 O 0.50516 0.4197 0.00969 0.0
C348 C 0.68376 0.42136 0.94855 0.0
O349 O 0.6671 0.41152 0.96513 0.0
O350 O 0.5471 0.41712 0.93713 0.0
C351 C 0.65868 0.78058 0.99114 0.0
O352 O 0.6162 0.78249 0.00767 0.0
O353 O 0.56708 0.80339 0.95627 0.0
Zn354 Zn 0.63714 0.80546 0.97558 0.0
O355 O 0.63189 0.80968 0.02514 0.0
C356 C 0.6491 0.83043 0.95839 0.0
O357 O 0.6127 0.83067 0.98117 0.0
O358 O 0.67665 0.78938 0.97298 0.0
C359 C 0.66655 0.81534 0.04127 0.0
O360 O 0.70754 0.81887 0.02503 0.0
C361 C 0.52783 0.802 0.9746 0.0
O362 O 0.53256 0.80118 0.00786 0.0
O363 O 0.66893 0.81998 0.95073 0.0
C364 C 0.39431 0.20634 0.7527 0.0
O365 O 0.3597 0.20265 0.77453 0.0
O366 O 0.29388 0.18541 0.71956 0.0
Zn367 Zn 0.36849 0.18289 0.72742 0.0
O368 O 0.38068 0.17543 0.77364 0.0
C369 C 0.39253 0.15938 0.69911 0.0
O370 O 0.37484 0.156 0.72902 0.0
O371 O 0.40455 0.19939 0.72736 0.0
C372 C 0.42573 0.17414 0.78425 0.0
O373 O 0.46334 0.17776 0.76472 0.0
C374 C 0.26146 0.17893 0.73568 0.0
O375 O 0.27708 0.17077 0.75841 0.0
O376 O 0.39475 0.17095 0.69179 0.0
C377 C 0.28167 0.51792 0.70939 0.0
O378 O 0.32689 0.52174 0.71844 0.0
O379 O 0.3487 0.54062 0.65505 0.0
Zn380 Zn 0.28525 0.54194 0.6831 0.0
O381 O 0.30544 0.54832 0.72908 0.0
C382 C 0.23627 0.55582 0.62972 0.0
O383 O 0.25792 0.54741 0.61023 0.0
O384 O 0.25433 0.5251 0.69123 0.0
C385 C 0.29949 0.55941 0.73979 0.0
O386 O 0.27851 0.56782 0.71988 0.0
C387 C 0.37448 0.55058 0.65226 0.0
O388 O 0.35756 0.56084 0.66658 0.0
O389 O 0.2389 0.55456 0.66185 0.0
C390 C 0.43691 0.53923 0.04449 0.0
O391 O 0.3882 0.541 0.04012 0.0
O392 O 0.36447 0.56344 0.07999 0.0
Zn393 Zn 0.42588 0.56476 0.04996 0.0
O394 O 0.40019 0.5661 0.00218 0.0
C395 C 0.47208 0.58422 0.09062 0.0
O396 O 0.45312 0.57785 0.11627 0.0
O397 O 0.46462 0.54861 0.05123 0.0
C398 C 0.40613 0.57518 0.9817 0.0
O399 O 0.4314 0.58509 0.9915 0.0
C400 C 0.32735 0.57066 0.07401 0.0
O401 O 0.33232 0.57943 0.05077 0.0
O402 O 0.46699 0.58003 0.06058 0.0
C403 C 0.39712 0.20025 0.06492 0.0
O404 O 0.44529 0.1976 0.06119 0.0
O405 O 0.4548 0.17702 0.12653 0.0
Zn406 Zn 0.40117 0.17585 0.0903 0.0
O407 O 0.4354 0.17134 0.04634 0.0
C408 C 0.34418 0.15552 0.12394 0.0
O409 O 0.37272 0.15747 0.15081 0.0
O410 O 0.36889 0.19244 0.08022 0.0
C411 C 0.43261 0.16072 0.03211 0.0
O412 O 0.40903 0.15155 0.0477 0.0
C413 C 0.48651 0.16812 0.12837 0.0
O414 O 0.47984 0.15824 0.10907 0.0
O415 O 0.34872 0.1626 0.09813 0.0
H416 H 0.08502 0.41925 0.33741 0.0
H417 H 0.02368 0.39693 0.41941 0.0
H418 H 0.08873 0.40081 0.30127 0.0
H419 H 0.02928 0.3784 0.38382 0.0
H420 H 0.03058 0.34678 0.3078 0.0
H421 H 0.00492 0.36635 0.3349 0.0
H422 H 0.14454 0.38346 0.30191 0.0
H423 H 0.16915 0.36423 0.27424 0.0
C424 C 0.07174 0.41043 0.34756 0.0
C425 C 0.0548 0.4095 0.38139 0.0
C426 C 0.07414 0.39984 0.32694 0.0
C427 C 0.06038 0.38806 0.33987 0.0
C428 C 0.04 0.38731 0.37294 0.0
C429 C 0.03699 0.39795 0.39343 0.0
C430 C 0.05542 0.35479 0.30608 0.0
C431 C 0.10202 0.35393 0.28905 0.0
C432 C 0.04081 0.36598 0.32168 0.0
C433 C 0.07258 0.37651 0.32055 0.0
C434 C 0.11857 0.37566 0.30276 0.0
C435 C 0.13298 0.36455 0.28714 0.0
H436 H 0.26156 0.88761 0.3225 0.0
H437 H 0.15319 0.86991 0.25591 0.0
H438 H 0.28091 0.86732 0.34815 0.0
H439 H 0.17116 0.8499 0.28198 0.0
H440 H 0.21723 0.81372 0.32336 0.0
H441 H 0.22843 0.8331 0.29146 0.0
H442 H 0.23684 0.8536 0.3861 0.0
H443 H 0.22762 0.83427 0.41782 0.0
C444 C 0.24224 0.87939 0.31313 0.0
C445 C 0.20539 0.8804 0.28747 0.0
C446 C 0.25319 0.86778 0.32788 0.0
C447 C 0.22746 0.85696 0.31727 0.0
C448 C 0.19237 0.85795 0.2905 0.0
C449 C 0.18159 0.8695 0.27576 0.0
C450 C 0.2227 0.82233 0.33733 0.0
C451 C 0.2205 0.82248 0.3731 0.0
C452 C 0.22883 0.83345 0.31905 0.0
C453 C 0.23246 0.84496 0.33618 0.0
C454 C 0.23439 0.84494 0.37199 0.0
C455 C 0.2287 0.83382 0.39024 0.0
H456 H 0.96363 0.90514 0.89147 0.0
H457 H 0.0539 0.90227 0.79993 0.0
H458 H 0.95419 0.8825 0.89259 0.0
H459 H 0.04459 0.87968 0.80125 0.0
H460 H 0.04247 0.84456 0.91157 0.0
H461 H 0.01992 0.86655 0.90602 0.0
H462 H 0.98875 0.86116 0.79897 0.0
H463 H 0.01159 0.83921 0.80435 0.0
C464 C 0.98037 0.89973 0.87108 0.0
C465 C 0.01033 0.90549 0.84592 0.0
C466 C 0.97515 0.88675 0.87189 0.0
C467 C -0.00072 0.87931 0.84735 0.0
C468 C 0.02535 0.88516 0.82047 0.0
C469 C 0.03087 0.89813 0.81978 0.0
C470 C 0.02973 0.84799 0.88704 0.0
C471 C 0.0297 0.84018 0.85832 0.0
C472 C 0.0165 0.86058 0.88387 0.0
C473 C 0.00308 0.8656 0.85193 0.0
C474 C -0.00039 0.85759 0.82377 0.0
C475 C 0.01263 0.845 0.82694 0.0
H476 H 0.30501 0.3897 0.8207 0.0
H477 H 0.15404 0.37437 0.81792 0.0
H478 H 0.33951 0.36851 0.82779 0.0
H479 H 0.18824 0.35351 0.82453 0.0
H480 H 0.25306 0.3169 0.8112 0.0
H481 H 0.24325 0.33829 0.79094 0.0
H482 H 0.33147 0.35161 0.8759 0.0
H483 H 0.34175 0.3302 0.89624 0.0
C484 C 0.27932 0.38184 0.82144 0.0
C485 C 0.22683 0.3837 0.81898 0.0
C486 C 0.29905 0.36976 0.82539 0.0
C487 C 0.26656 0.35939 0.82612 0.0
C488 C 0.21426 0.3613 0.82331 0.0
C489 C 0.19463 0.37329 0.81996 0.0
C490 C 0.27181 0.32433 0.82499 0.0
C491 C 0.29693 0.32189 0.85587 0.0
C492 C 0.26607 0.33657 0.81341 0.0
C493 C 0.28552 0.34658 0.83238 0.0
C494 C 0.31593 0.34405 0.86089 0.0
C495 C 0.32166 0.33177 0.87255 0.0
H496 H 0.89054 0.58805 0.61125 0.0
H497 H 0.8235 0.60778 0.52628 0.0
H498 H 0.90642 0.60799 0.63965 0.0
H499 H 0.839 0.62757 0.55462 0.0
H500 H 0.82767 0.642 0.6943 0.0
H501 H 0.84271 0.62246 0.6647 0.0
H502 H 0.90178 0.64277 0.57817 0.0
H503 H 0.88646 0.66252 0.60804 0.0
C504 C 0.88007 0.59663 0.59839 0.0
C505 C 0.85495 0.59636 0.56687 0.0
C506 C 0.8891 0.60803 0.61463 0.0
C507 C 0.87363 0.61931 0.59943 0.0
C508 C 0.85175 0.61905 0.56685 0.0
C509 C 0.84236 0.60768 0.55079 0.0
C510 C 0.84452 0.64232 0.66913 0.0
C511 C 0.85515 0.65378 0.65321 0.0
C512 C 0.8537 0.6311 0.65234 0.0
C513 C 0.87333 0.63109 0.61911 0.0
C514 C 0.88636 0.64254 0.60374 0.0
C515 C 0.87768 0.65381 0.6208 0.0
H516 H 0.72531 0.08783 0.68582 0.0
H517 H 0.76711 0.08958 0.57934 0.0
H518 H 0.69527 0.10932 0.68297 0.0
H519 H 0.73706 0.11109 0.57667 0.0
H520 H 0.67505 0.14966 0.57781 0.0
H521 H 0.66635 0.12698 0.58318 0.0
H522 H 0.75208 0.12795 0.67683 0.0
H523 H 0.76107 0.15047 0.67134 0.0
C524 C 0.72694 0.09267 0.66156 0.0
C525 C 0.74968 0.08708 0.63295 0.0
C526 C 0.70971 0.10499 0.66001 0.0
C527 C 0.71446 0.11192 0.62977 0.0
C528 C 0.73268 0.10596 0.60031 0.0
C529 C 0.75022 0.09364 0.6019 0.0
C530 C 0.6905 0.14506 0.60013 0.0
C531 C 0.71919 0.15178 0.62402 0.0
C532 C 0.68579 0.13209 0.60305 0.0
C533 C 0.70889 0.1257 0.63023 0.0
C534 C 0.73351 0.13261 0.65572 0.0
C535 C 0.73888 0.14551 0.65253 0.0
H536 H 0.01465 0.145 0.21485 0.0
H537 H 0.96419 0.15553 0.11397 0.0
H538 H 0.02011 0.12326 0.19681 0.0
H539 H 0.96899 0.13383 0.09619 0.0
H540 H 0.92565 0.08776 0.1659 0.0
H541 H 0.95197 0.10844 0.18424 0.0
H542 H 0.01963 0.11507 0.08561 0.0
H543 H 0.99265 0.09443 0.067 0.0
C544 C 0.00574 0.14273 0.18863 0.0
C545 C 0.98815 0.15197 0.16597 0.0
C546 C 0.00865 0.13026 0.17838 0.0
C547 C 0.99432 0.1268 0.14525 0.0
C548 C 0.98062 0.13618 0.12185 0.0
C549 C 0.97758 0.14864 0.1321 0.0
C550 C 0.94708 0.09351 0.14835 0.0
C551 C 0.95622 0.08953 0.11481 0.0
C552 C 0.96248 0.10535 0.15894 0.0
C553 C 0.98737 0.11346 0.13621 0.0
C554 C -0.0002 0.10912 0.1035 0.0
C555 C 0.98446 0.09727 0.09292 0.0
H556 H 0.77933 0.58243 0.15126 0.0
H557 H 0.84067 0.58075 0.04922 0.0
H558 H 0.75729 0.60432 0.14245 0.0
H559 H 0.8184 0.60264 0.0405 0.0
H560 H 0.75513 0.64103 0.02786 0.0
H561 H 0.74763 0.61859 0.03751 0.0
H562 H 0.81611 0.62282 0.13671 0.0
H563 H 0.82387 0.64524 0.12714 0.0
C564 C 0.78708 0.58663 0.12667 0.0
C565 C 0.81236 0.57988 0.10104 0.0
C566 C 0.7746 0.59919 0.12173 0.0
C567 C 0.78649 0.6052 0.09093 0.0
C568 C 0.80845 0.59822 0.06445 0.0
C569 C 0.82145 0.5857 0.0695 0.0
C570 C 0.76745 0.63724 0.0521 0.0
C571 C 0.79077 0.6449 0.07657 0.0
C572 C 0.76335 0.62437 0.05749 0.0
C573 C 0.7818 0.61895 0.08765 0.0
C574 C 0.80133 0.62674 0.11326 0.0
C575 C 0.80596 0.63959 0.10772 0.0
H576 H 0.52406 0.39427 0.93567 0.0
H577 H 0.57743 0.40927 0.83982 0.0
H578 H 0.53737 0.37319 0.91464 0.0
H579 H 0.58923 0.38813 0.81838 0.0
H580 H 0.68634 0.35263 0.81899 0.0
H581 H 0.65358 0.37313 0.833 0.0
H582 H 0.51939 0.35625 0.87566 0.0
H583 H 0.553 0.33554 0.86221 0.0
C584 C 0.53713 0.39308 0.9097 0.0
C585 C 0.55079 0.40346 0.88967 0.0
C586 C 0.54463 0.38096 0.8976 0.0
C587 C 0.56556 0.37898 0.86514 0.0
C588 C 0.57439 0.38936 0.8439 0.0
C589 C 0.56722 0.40148 0.85607 0.0
C590 C 0.6498 0.35325 0.83132 0.0
C591 C 0.62242 0.34245 0.83966 0.0
C592 C 0.63068 0.36504 0.83899 0.0
C593 C 0.58353 0.36636 0.85508 0.0
C594 C 0.55592 0.35555 0.86336 0.0
C595 C 0.57519 0.3437 0.85571 0.0
H596 H 0.6255 0.85416 0.97677 0.0
H597 H 0.70396 0.83302 0.89938 0.0
H598 H 0.6378 0.87317 0.94397 0.0
H599 H 0.71681 0.85222 0.86646 0.0
H600 H 0.64344 0.88438 0.80071 0.0
H601 H 0.65688 0.86563 0.83467 0.0
H602 H 0.69864 0.88835 0.92104 0.0
H603 H 0.6845 0.9072 0.88713 0.0
C604 C 0.64613 0.8536 0.95296 0.0
C605 C 0.66319 0.84206 0.94044 0.0
C606 C 0.65361 0.86454 0.9343 0.0
C607 C 0.67811 0.8642 0.90255 0.0
C608 C 0.69738 0.85274 0.89073 0.0
C609 C 0.69021 0.84177 0.90961 0.0
C610 C 0.6562 0.8854 0.8268 0.0
C611 C 0.6621 0.89728 0.84139 0.0
C612 C 0.66436 0.87463 0.84618 0.0
C613 C 0.67845 0.87551 0.88061 0.0
C614 C 0.68718 0.88739 0.89467 0.0
C615 C 0.67921 0.89818 0.87522 0.0
H616 H 0.53181 0.848 0.35622 0.0
H617 H 0.56836 0.84254 0.46266 0.0
H618 H 0.54162 0.87047 0.36311 0.0
H619 H 0.57743 0.86505 0.46951 0.0
H620 H 0.68238 0.89849 0.44622 0.0
H621 H 0.64816 0.87753 0.44547 0.0
H622 H 0.5164 0.89082 0.39144 0.0
H623 H 0.55103 0.91211 0.39216 0.0
C624 C 0.54045 0.8516 0.38133 0.0
C625 C 0.55049 0.84345 0.40873 0.0
C626 C 0.54583 0.8645 0.38527 0.0
C627 C 0.56132 0.86947 0.41666 0.0
C628 C 0.56643 0.86142 0.44483 0.0
C629 C 0.56102 0.84854 0.44093 0.0
C630 C 0.64601 0.89702 0.43423 0.0
C631 C 0.61955 0.90696 0.41905 0.0
C632 C 0.62609 0.885 0.4342 0.0
C633 C 0.57929 0.88256 0.41879 0.0
C634 C 0.55252 0.89247 0.40359 0.0
C635 C 0.57232 0.90462 0.40397 0.0
H636 H 0.74346 0.33596 0.43992 0.0
H637 H 0.69988 0.3364 0.3337 0.0
H638 H 0.76002 0.35833 0.43734 0.0
H639 H 0.7161 0.35875 0.3313 0.0
H640 H 0.67985 0.39776 0.42752 0.0
H641 H 0.69796 0.37556 0.43263 0.0
H642 H 0.77615 0.37642 0.33601 0.0
H643 H 0.75777 0.39867 0.33069 0.0
C644 C 0.73855 0.34075 0.41579 0.0
C645 C 0.71951 0.33442 0.38712 0.0
C646 C 0.74786 0.35359 0.41441 0.0
C647 C 0.73876 0.36033 0.38427 0.0
C648 C 0.7238 0.35382 0.35487 0.0
C649 C 0.7142 0.34099 0.35629 0.0
C650 C 0.70205 0.39331 0.40777 0.0
C651 C 0.71651 0.39995 0.37843 0.0
C652 C 0.71269 0.38057 0.41079 0.0
C653 C 0.73789 0.3742 0.38446 0.0
C654 C 0.75601 0.38105 0.35644 0.0
C655 C 0.74566 0.39382 0.35352 0.0
H656 H 0.50744 0.60051 0.04232 0.0
H657 H 0.47946 0.59708 0.15051 0.0
H658 H 0.52469 0.62272 0.04947 0.0
H659 H 0.49574 0.61927 0.1575 0.0
H660 H 0.53705 0.65878 0.16703 0.0
H661 H 0.55364 0.63685 0.15481 0.0
H662 H 0.468 0.64003 0.06142 0.0
H663 H 0.45224 0.66197 0.07324 0.0
C664 C 0.50579 0.60444 0.06772 0.0
C665 C 0.49127 0.59706 0.0958 0.0
C666 C 0.51552 0.61718 0.07176 0.0
C667 C 0.51103 0.62281 0.10395 0.0
C668 C 0.5 0.61523 0.13237 0.0
C669 C 0.49028 0.6025 0.12833 0.0
C670 C 0.52289 0.65489 0.14342 0.0
C671 C 0.49245 0.66207 0.12142 0.0
C672 C 0.53219 0.6423 0.13654 0.0
C673 C 0.51133 0.63663 0.10751 0.0
C674 C 0.48483 0.6441 0.08398 0.0
C675 C 0.47556 0.6567 0.09083 0.0
H676 H 0.33162 0.13697 0.17139 0.0
H677 H 0.29203 0.14731 0.06816 0.0
H678 H 0.30013 0.11594 0.16113 0.0
H679 H 0.26056 0.12627 0.05805 0.0
H680 H 0.23274 0.07926 0.13938 0.0
H681 H 0.22759 0.10185 0.14612 0.0
H682 H 0.3122 0.10679 0.05294 0.0
H683 H 0.31751 0.08423 0.04612 0.0
C684 C 0.31502 0.13487 0.14683 0.0
C685 C 0.31523 0.14376 0.12045 0.0
C686 C 0.29667 0.12282 0.14099 0.0
C687 C 0.27838 0.11943 0.10863 0.0
C688 C 0.27498 0.12859 0.0831 0.0
C689 C 0.29296 0.14065 0.08899 0.0
C690 C 0.24883 0.08515 0.11969 0.0
C691 C 0.27644 0.07994 0.09249 0.0
C692 C 0.24611 0.09809 0.12374 0.0
C693 C 0.27022 0.10607 0.10041 0.0
C694 C 0.29312 0.10088 0.07134 0.0
C695 C 0.29632 0.08794 0.06746 0.0
H696 H 0.43871 0.09027 0.5855 0.0
H697 H 0.33767 0.11402 0.52792 0.0
H698 H 0.45807 0.10772 0.62333 0.0
H699 H 0.35625 0.1313 0.56591 0.0
H700 H 0.40035 0.13434 0.70952 0.0
H701 H 0.40692 0.11808 0.66674 0.0
H702 H 0.41865 0.14614 0.58778 0.0
H703 H 0.41118 0.16253 0.63081 0.0
C704 C 0.42114 0.09924 0.58065 0.0
C705 C 0.38608 0.10072 0.55404 0.0
C706 C 0.43213 0.10921 0.60235 0.0
C707 C 0.40841 0.12086 0.59776 0.0
C708 C 0.37559 0.1225 0.56996 0.0
C709 C 0.36454 0.11254 0.54836 0.0
C710 C 0.40506 0.13708 0.6831 0.0
C711 C 0.40442 0.14972 0.67348 0.0
C712 C 0.40933 0.12773 0.65857 0.0
C713 C 0.41295 0.13081 0.62383 0.0
C714 C 0.41527 0.14348 0.61435 0.0
C715 C 0.41119 0.15286 0.63898 0.0
H716 H 0.33606 0.62102 0.54447 0.0
H717 H 0.20405 0.63632 0.5941 0.0
H718 H 0.30637 0.60006 0.55615 0.0
H719 H 0.17387 0.61507 0.60577 0.0
H720 H 0.20252 0.5764 0.66419 0.0
H721 H 0.20401 0.59785 0.64367 0.0
H722 H 0.24005 0.58479 0.54244 0.0
H723 H 0.23963 0.5633 0.56304 0.0
C724 C 0.3004 0.61991 0.55768 0.0
C725 C 0.27264 0.63033 0.56865 0.0
C726 C 0.28302 0.60786 0.56399 0.0
C727 C 0.23751 0.6059 0.58159 0.0
C728 C 0.20908 0.61631 0.59211 0.0
C729 C 0.22635 0.62845 0.58548 0.0
C730 C 0.20936 0.57805 0.63733 0.0
C731 C 0.22235 0.56816 0.61543 0.0
C732 C 0.20994 0.59037 0.62554 0.0
C733 C 0.22334 0.59301 0.59164 0.0
C734 C 0.23073 0.58303 0.56892 0.0
C735 C 0.23024 0.57072 0.5807 0.0
H736 H 0.44997 0.30888 0.43583 0.0
H737 H 0.54053 0.30129 0.34653 0.0
H738 H 0.37558 0.31126 0.40011 0.0
H739 H 0.46552 0.30332 0.31075 0.0
H740 H 0.33307 0.32277 0.25604 0.0
H741 H 0.40818 0.31925 0.29064 0.0
H742 H 0.31779 0.29968 0.36534 0.0
H743 H 0.24246 0.30351 0.33122 0.0
C744 C 0.45394 0.30759 0.40858 0.0
C745 C 0.50122 0.30492 0.39402 0.0
C746 C 0.41114 0.30888 0.38809 0.0
C747 C 0.41451 0.30746 0.35255 0.0
C748 C 0.46174 0.30464 0.338 0.0
C749 C 0.50467 0.3034 0.35852 0.0
C750 C 0.32924 0.31769 0.27981 0.0
C751 C 0.28174 0.31349 0.29098 0.0
C752 C 0.37239 0.31559 0.29954 0.0
C753 C 0.36903 0.3092 0.33082 0.0
C754 C 0.3216 0.30481 0.34166 0.0
C755 C 0.27844 0.30696 0.32201 0.0
H756 H 0.98186 0.90865 0.2931 0.0
H757 H 0.06652 0.94106 0.32487 0.0
H758 H 0.90662 0.91703 0.32034 0.0
H759 H 0.99067 0.94974 0.35097 0.0
H760 H 0.85707 0.95485 0.42475 0.0
H761 H 0.93394 0.94745 0.39721 0.0
H762 H 0.84492 0.93275 0.31406 0.0
H763 H 0.7681 0.93968 0.34238 0.0
C764 C 0.98431 0.9176 0.30578 0.0
C765 C 0.03012 0.92418 0.30685 0.0
C766 C 0.94102 0.92248 0.32115 0.0
C767 C 0.94228 0.93414 0.33762 0.0
C768 C 0.98833 0.94068 0.33889 0.0
C769 C 0.03183 0.93572 0.32383 0.0
C770 C 0.85402 0.95016 0.40041 0.0
C771 C 0.80652 0.94778 0.38584 0.0
C772 C 0.89814 0.94593 0.38453 0.0
C773 C 0.89574 0.93936 0.35354 0.0
C774 C 0.84822 0.93748 0.33832 0.0
C775 C 0.80414 0.94156 0.3544 0.0
H776 H 0.42889 0.93994 0.76212 0.0
H777 H 0.4774 0.93705 0.86706 0.0
H778 H 0.34231 0.94342 0.78104 0.0
H779 H 0.3907 0.94019 0.88593 0.0
H780 H 0.24016 0.95775 0.91071 0.0
H781 H 0.32611 0.95598 0.88909 0.0
H782 H 0.27301 0.93242 0.8073 0.0
H783 H 0.18681 0.93446 0.82841 0.0
C784 C 0.42106 0.93998 0.78923 0.0
C785 C 0.46006 0.93822 0.81309 0.0
C786 C 0.37136 0.94193 0.80006 0.0
C787 C 0.35952 0.94211 0.835 0.0
C788 C 0.39859 0.94032 0.85884 0.0
C789 C 0.44828 0.93842 0.84801 0.0
C790 C 0.24674 0.95229 0.88792 0.0
C791 C 0.20668 0.94621 0.87136 0.0
C792 C 0.29609 0.9512 0.87567 0.0
C793 C 0.30658 0.94395 0.84666 0.0
C794 C 0.26624 0.93816 0.82952 0.0
C795 C 0.21682 0.9393 0.8417 0.0
H796 H 0.78184 0.28844 0.87313 0.0
H797 H 0.84714 0.30999 0.79097 0.0
H798 H 0.86645 0.28287 0.89284 0.0
H799 H 0.93129 0.30478 0.81117 0.0
H800 H 0.07685 0.28552 0.83618 0.0
H801 H 0.99049 0.28809 0.81581 0.0
H802 H 0.93863 0.29201 0.91975 0.0
H803 H 0.02464 0.28902 0.9401 0.0
C804 C 0.81422 0.29203 0.85938 0.0
C805 C 0.80774 0.29966 0.83049 0.0
C806 C 0.86273 0.28888 0.87073 0.0
C807 C 0.9058 0.29333 0.85353 0.0
C808 C 0.8991 0.30096 0.82466 0.0
C809 C 0.85073 0.30404 0.81322 0.0
C810 C 0.04691 0.28677 0.85469 0.0
C811 C 0.05768 0.28713 0.88974 0.0
C812 C 0.99741 0.28834 0.84301 0.0
C813 C 0.95758 0.29042 0.8661 0.0
C814 C 0.96819 0.29031 0.90124 0.0
C815 C 0.01763 0.28865 0.91292 0.0
H816 H 0.69307 0.69721 0.62976 0.0
H817 H 0.63005 0.68543 0.72626 0.0
H818 H 0.6095 0.69648 0.60415 0.0
H819 H 0.54601 0.68497 0.70073 0.0
H820 H 0.4228 0.66871 0.62942 0.0
H821 H 0.50177 0.67199 0.65995 0.0
H822 H 0.5268 0.70602 0.60303 0.0
H823 H 0.44835 0.7026 0.57191 0.0
C824 C 0.66127 0.69464 0.64566 0.0
C825 C 0.66833 0.69129 0.68001 0.0
C826 C 0.61322 0.6943 0.631 0.0
C827 C 0.57102 0.69062 0.65034 0.0
C828 C 0.57783 0.68767 0.685 0.0
C829 C 0.62597 0.688 0.69967 0.0
C830 C 0.44488 0.67696 0.62364 0.0
C831 C 0.42949 0.68533 0.59802 0.0
C832 C 0.49005 0.67888 0.64131 0.0
C833 C 0.52079 0.68923 0.63382 0.0
C834 C 0.50443 0.69784 0.60903 0.0
C835 C 0.45932 0.69591 0.59131 0.0
H836 H 0.01814 0.03711 0.66521 0.0
H837 H 0.94465 0.06147 0.59245 0.0
H838 H 0.09512 0.03768 0.63126 0.0
H839 H 0.02212 0.0622 0.55877 0.0
H840 H 0.15868 0.05288 0.49241 0.0
H841 H 0.07963 0.04974 0.52331 0.0
H842 H 0.15939 0.05334 0.61887 0.0
H843 H 0.23837 0.05628 0.58813 0.0
C844 C 0.01828 0.04253 0.64186 0.0
C845 C 0.97534 0.04931 0.63166 0.0
C846 C 0.06253 0.04291 0.62251 0.0
C847 C 0.06489 0.05007 0.59249 0.0
C848 C 0.0214 0.05651 0.58163 0.0
C849 C 0.97708 0.05614 0.60102 0.0
C850 C 0.1594 0.05291 0.52002 0.0
C851 C 0.20483 0.05485 0.5378 0.0
C852 C 0.11405 0.05118 0.53769 0.0
C853 C 0.11321 0.05131 0.57352 0.0
C854 C 0.15882 0.05303 0.59127 0.0
C855 C 0.20408 0.05478 0.57363 0.0
H856 H 0.51948 0.04692 0.18123 0.0
H857 H 0.46379 0.0566 0.08098 0.0
H858 H 0.605 0.05215 0.16337 0.0
H859 H 0.54965 0.06165 0.06298 0.0
H860 H 0.69988 0.0825 0.05507 0.0
H861 H 0.61464 0.07752 0.0743 0.0
H862 H 0.67128 0.04452 0.12513 0.0
H863 H 0.75665 0.04958 0.10638 0.0
C864 C 0.52551 0.05009 0.1553 0.0
C865 C 0.48483 0.05134 0.13251 0.0
C866 C 0.57458 0.05304 0.14505 0.0
C867 C 0.58407 0.05734 0.1118 0.0
C868 C 0.54344 0.05852 0.08891 0.0
C869 C 0.49432 0.05553 0.09915 0.0
C870 C 0.69424 0.07423 0.07055 0.0
C871 C 0.73506 0.06643 0.07916 0.0
C872 C 0.64532 0.07133 0.08133 0.0
C873 C 0.63619 0.06059 0.10104 0.0
C874 C 0.67716 0.05292 0.11021 0.0
C875 C 0.72605 0.0558 0.09937 0.0
H876 H 0.06027 0.70067 0.05134 0.0
H877 H 0.01654 0.67288 0.12576 0.0
H878 H 0.1472 0.69955 0.07162 0.0
H879 H 0.10313 0.672 0.14658 0.0
H880 H 0.27055 0.66287 0.14915 0.0
H881 H 0.18441 0.66449 0.12792 0.0
H882 H 0.2007 0.70454 0.11972 0.0
H883 H 0.28748 0.70288 0.14022 0.0
C884 C 0.06907 0.69442 0.07228 0.0
C885 C 0.0315 0.68683 0.08685 0.0
C886 C 0.1189 0.69381 0.08398 0.0
C887 C 0.13223 0.68563 0.11059 0.0
C888 C 0.09436 0.67823 0.12562 0.0
C889 C 0.04462 0.6788 0.11384 0.0
C890 C 0.25588 0.67202 0.14268 0.0
C891 C 0.28584 0.68275 0.14645 0.0
C892 C 0.20633 0.67296 0.13074 0.0
C893 C 0.18546 0.68466 0.1224 0.0
C894 C 0.21573 0.69537 0.12564 0.0
C895 C 0.26542 0.69443 0.1375 0.0
H896 H 0.50459 0.80757 0.90852 0.0
H897 H 0.43629 0.79765 0.00497 0.0
H898 H 0.421 0.81 0.88341 0.0
H899 H 0.3524 0.8001 0.9796 0.0
H900 H 0.21479 0.79375 0.90526 0.0
H901 H 0.2963 0.79047 0.93347 0.0
H902 H 0.35026 0.8254 0.89212 0.0
H903 H 0.26938 0.82871 0.86406 0.0
C904 C 0.47178 0.80581 0.92432 0.0
C905 C 0.47711 0.80248 0.95881 0.0
C906 C 0.42391 0.80728 0.90997 0.0
C907 C 0.38027 0.80536 0.92967 0.0
C908 C 0.38544 0.80162 0.96384 0.0
C909 C 0.43345 0.80026 0.97834 0.0
C910 C 0.24391 0.80078 0.90249 0.0
C911 C 0.23571 0.81146 0.88225 0.0
C912 C 0.29047 0.79891 0.91868 0.0
C913 C 0.32972 0.80761 0.9146 0.0
C914 C 0.32094 0.81843 0.89521 0.0
C915 C 0.27444 0.82036 0.87934 0.0
H916 H 0.75631 0.40327 0.95339 0.0
H917 H 0.72423 0.43882 0.90558 0.0
H918 H 0.83658 0.40221 0.9229 0.0
H919 H 0.80463 0.43777 0.87533 0.0
H920 H 0.91733 0.42283 0.79568 0.0
H921 H 0.83992 0.42458 0.8289 0.0
H922 H 0.92044 0.4129 0.9193 0.0
H923 H 0.99814 0.41106 0.886 0.0
C924 C 0.76654 0.4109 0.9366 0.0
C925 C 0.7338 0.4211 0.93179 0.0
C926 C 0.81262 0.41032 0.91928 0.0
C927 C 0.82673 0.41988 0.89663 0.0
C928 C 0.79444 0.43019 0.89231 0.0
C929 C 0.74853 0.43082 0.9098 0.0
C930 C 0.91863 0.42063 0.82263 0.0
C931 C 0.9639 0.41679 0.83819 0.0
C932 C 0.87432 0.42172 0.8417 0.0
C933 C 0.87419 0.41892 0.87671 0.0
C934 C 0.91937 0.41504 0.8923 0.0
C935 C 0.96386 0.41404 0.87326 0.0
H936 H 0.50778 0.46445 0.3419 0.0
H937 H 0.53952 0.43166 0.40275 0.0
H938 H 0.42418 0.46592 0.36775 0.0
H939 H 0.45574 0.43308 0.42826 0.0
H940 H 0.31184 0.44378 0.48422 0.0
H941 H 0.39931 0.44565 0.46502 0.0
H942 H 0.34728 0.45308 0.36258 0.0
H943 H 0.26007 0.45134 0.3817 0.0
C944 C 0.49724 0.45766 0.36111 0.0
C945 C 0.53018 0.44787 0.37004 0.0
C946 C 0.44921 0.45846 0.37576 0.0
C947 C 0.43318 0.44955 0.39979 0.0
C948 C 0.46708 0.44014 0.40999 0.0
C949 C 0.51503 0.4393 0.39524 0.0
C950 C 0.31906 0.44594 0.45767 0.0
C951 C 0.27897 0.44734 0.43445 0.0
C952 C 0.36917 0.44696 0.44667 0.0
C953 C 0.38021 0.44949 0.41229 0.0
C954 C 0.34006 0.45127 0.38932 0.0
C955 C 0.29004 0.45018 0.40025 0.0
H956 H 0.76908 0.83254 0.38551 0.0
H957 H 0.72448 0.79606 0.42209 0.0
H958 H 0.85516 0.82865 0.40477 0.0
H959 H 0.81097 0.79218 0.44118 0.0
H960 H 0.96349 0.79537 0.49838 0.0
H961 H 0.87561 0.79961 0.48315 0.0
H962 H 0.92419 0.81445 0.38608 0.0
H963 H 0.01189 0.81032 0.40126 0.0
C964 C 0.7775 0.82373 0.3979 0.0
C965 C 0.73998 0.81457 0.40208 0.0
C966 C 0.82692 0.82148 0.40872 0.0
C967 C 0.83987 0.81007 0.42415 0.0
C968 C 0.80201 0.80108 0.4295 0.0
C969 C 0.75255 0.8033 0.41847 0.0
C970 C 0.95541 0.79953 0.47378 0.0
C971 C 0.99467 0.80252 0.45104 0.0
C972 C 0.90509 0.80191 0.46504 0.0
C973 C 0.89309 0.80742 0.43353 0.0
C974 C 0.93235 0.81036 0.41076 0.0
C975 C 0.98256 0.80791 0.41937 0.0
H976 H 0.73947 0.18705 0.2632 0.0
H977 H 0.80363 0.17265 0.16984 0.0
H978 H 0.65463 0.18322 0.24104 0.0
H979 H 0.719 0.16894 0.14773 0.0
H980 H 0.56494 0.15165 0.13281 0.0
H981 H 0.64676 0.15491 0.15971 0.0
H982 H 0.59764 0.19111 0.19504 0.0
H983 H 0.51536 0.18784 0.16832 0.0
C984 C 0.73551 0.18311 0.23794 0.0
C985 C 0.77831 0.18015 0.21829 0.0
C986 C 0.68692 0.18096 0.22524 0.0
C987 C 0.68019 0.17571 0.19276 0.0
C988 C 0.723 0.17282 0.17308 0.0
C989 C 0.77149 0.17504 0.18565 0.0
C990 C 0.57128 0.16026 0.14663 0.0
C991 C 0.53372 0.16953 0.1482 0.0
C992 C 0.61832 0.16215 0.16184 0.0
C993 C 0.62882 0.17333 0.1791 0.0
C994 C 0.59057 0.18238 0.18199 0.0
C995 C 0.5435 0.18052 0.16662 0.0
H996 H 0.23931 0.58341 0.06345 0.0
H997 H 0.30216 0.55223 0.11939 0.0
H998 H 0.15551 0.57825 0.08494 0.0
H999 H 0.21813 0.54697 0.14046 0.0
H1000 H 0.008 0.55641 0.09602 0.0
H1001 H 0.09295 0.56167 0.07663 0.0
H1002 H 0.15088 0.55461 0.17784 0.0
H1003 H 0.06623 0.54916 0.19713 0.0
C1004 C 0.23533 0.5755 0.0805 0.0
C1005 C 0.27743 0.56821 0.08963 0.0
C1006 C 0.18721 0.57248 0.09257 0.0
C1007 C 0.18009 0.56213 0.11412 0.0
C1008 C 0.2224 0.55505 0.12406 0.0
C1009 C 0.27055 0.55806 0.11193 0.0
C1010 C 0.0389 0.5559 0.11409 0.0
C1011 C 0.03032 0.55236 0.14812 0.0
C1012 C 0.0875 0.55902 0.10305 0.0
C1013 C 0.1286 0.55863 0.12576 0.0
C1014 C 0.12011 0.55491 0.15965 0.0
C1015 C 0.07152 0.55182 0.17071 0.0
H1016 H 0.69193 0.5588 0.60686 0.0
H1017 H 0.63032 0.54414 0.51306 0.0
H1018 H 0.60847 0.5578 0.63297 0.0
H1019 H 0.54666 0.54317 0.53937 0.0
H1020 H 0.41713 0.53184 0.61433 0.0
H1021 H 0.50049 0.53181 0.58727 0.0
H1022 H 0.52662 0.56926 0.62378 0.0
H1023 H 0.44378 0.56934 0.65073 0.0
C1024 C 0.66066 0.5553 0.59186 0.0
C1025 C 0.66771 0.5516 0.55783 0.0
C1026 C 0.61283 0.55479 0.60678 0.0
C1027 C 0.57109 0.55048 0.58811 0.0
C1028 C 0.57827 0.54647 0.55437 0.0
C1029 C 0.62609 0.54709 0.5393 0.0
C1030 C 0.44065 0.54007 0.61647 0.0
C1031 C 0.42393 0.55058 0.63474 0.0
C1032 C 0.48822 0.54007 0.60089 0.0
C1033 C 0.52008 0.5505 0.60365 0.0
C1034 C 0.50312 0.56103 0.62164 0.0
C1035 C 0.45551 0.56109 0.63689 0.0
H1036 H 0.96552 0.15706 0.67204 0.0
H1037 H 0.95807 0.19717 0.66052 0.0
H1038 H 0.04895 0.1589 0.69734 0.0
H1039 H 0.04166 0.19903 0.68653 0.0
H1040 H 0.21683 0.19383 0.68747 0.0
H1041 H 0.12854 0.19385 0.66983 0.0
H1042 H 0.09464 0.16629 0.7471 0.0
H1043 H 0.18307 0.16608 0.76436 0.0
C1044 C 0.9814 0.1663 0.67532 0.0
C1045 C 0.95525 0.17696 0.66407 0.0
C1046 C 0.02918 0.16736 0.69006 0.0
C1047 C 0.05203 0.17911 0.69391 0.0
C1048 C 0.02529 0.18983 0.68356 0.0
C1049 C 0.9773 0.18877 0.66886 0.0
C1050 C 0.19047 0.18786 0.70092 0.0
C1051 C 0.20712 0.17985 0.72709 0.0
C1052 C 0.13976 0.18793 0.69095 0.0
C1053 C 0.10461 0.18001 0.70692 0.0
C1054 C 0.12094 0.17236 0.73394 0.0
C1055 C 0.17161 0.17228 0.74392 0.0
H1056 H 0.04416 0.21358 0.22089 0.0
H1057 H 0.89539 0.23012 0.22657 0.0
H1058 H 0.08192 0.23428 0.22355 0.0
H1059 H 0.93312 0.25085 0.22826 0.0
H1060 H 0.02057 0.2843 0.27187 0.0
H1061 H 0.981 0.2638 0.26675 0.0
H1062 H 0.09262 0.25321 0.19172 0.0
H1063 H 0.13285 0.27347 0.19754 0.0
C1064 C 0.01949 0.22164 0.22225 0.0
C1065 C 0.96679 0.2202 0.22364 0.0
C1066 C 0.04112 0.23352 0.22364 0.0
C1067 C 0.01054 0.24424 0.22625 0.0
C1068 C 0.95778 0.24279 0.22686 0.0
C1069 C 0.93616 0.23091 0.22563 0.0
C1070 C 0.03655 0.27759 0.25427 0.0
C1071 C 0.07999 0.28048 0.23528 0.0
C1072 C 0.01372 0.26587 0.25116 0.0
C1073 C 0.03373 0.25684 0.22887 0.0
C1074 C 0.07673 0.25985 0.20955 0.0
C1075 C 0.09964 0.27151 0.21278 0.0
H1076 H 0.19349 0.96865 0.28205 0.0
H1077 H 0.2888 0.94454 0.22148 0.0
H1078 H 0.2235 0.98668 0.25013 0.0
H1079 H 0.31818 0.96262 0.18906 0.0
H1080 H 0.39088 0.00083 0.16109 0.0
H1081 H 0.36631 0.98207 0.19222 0.0
H1082 H 0.21114 -0.00538 0.19241 0.0
H1083 H 0.23574 0.0135 0.16191 0.0
C1084 C 0.22127 0.96721 0.26216 0.0
C1085 C 0.23849 0.95515 0.25418 0.0
C1086 C 0.23806 0.97753 0.24361 0.0
C1087 C 0.27239 0.97605 0.21657 0.0
C1088 C 0.29169 0.96407 0.20973 0.0
C1089 C 0.27494 0.95372 0.22838 0.0
C1090 C 0.35138 -0.00048 0.16736 0.0
C1091 C 0.31533 0.00873 0.15927 0.0
C1092 C 0.33734 0.98875 0.1852 0.0
C1093 C 0.28695 0.98697 0.19532 0.0
C1094 C 0.25051 -0.00412 0.18571 0.0
C1095 C 0.26452 0.00664 0.16789 0.0
H1096 H 0.83613 0.02189 0.98832 0.0
H1097 H 0.98829 0.03109 0.01933 0.0
H1098 H 0.86804 0.00411 0.95632 0.0
H1099 H 0.02014 0.01312 0.98762 0.0
H1100 H 0.06334 0.98935 0.89553 0.0
H1101 H 0.02891 0.00702 0.92709 0.0
H1102 H 0.90794 0.98369 0.96461 0.0
H1103 H 0.94181 0.96607 0.93274 0.0
C1104 C 0.87636 0.02004 0.98865 0.0
C1105 C 0.90972 0.02793 0.00628 0.0
C1106 C 0.8946 0.00982 0.97035 0.0
C1107 C 0.94662 0.00728 0.9692 0.0
C1108 C 0.97991 0.01497 0.98757 0.0
C1109 C 0.96163 0.02518 0.00601 0.0
C1110 C 0.02903 0.98802 0.91015 0.0
C1111 C 0.0054 0.97629 0.91168 0.0
C1112 C 0.00964 -0.00188 0.92852 0.0
C1113 C 0.96609 -0.0033 0.94866 0.0
C1114 C 0.94145 0.98509 0.94922 0.0
C1115 C 0.96092 0.97499 0.93096 0.0
H1116 H 0.29854 0.20808 0.06478 0.0
H1117 H 0.4454 0.21656 0.02253 0.0
H1118 H 0.26086 0.22425 0.02899 0.0
H1119 H 0.40761 0.23241 0.9861 0.0
H1120 H 0.32835 0.26773 0.94768 0.0
H1121 H 0.36764 0.25246 0.98536 0.0
H1122 H 0.24188 0.22743 0.9695 0.0
H1123 H 0.20186 0.24286 0.9326 0.0
C1124 C 0.32283 0.21345 0.04806 0.0
C1125 C 0.37493 0.211 0.04645 0.0
C1126 C 0.30117 0.22263 0.02727 0.0
C1127 C 0.33111 0.22952 0.00433 0.0
C1128 C 0.38347 0.22735 0.00362 0.0
C1129 C 0.40514 0.21823 0.0245 0.0
C1130 C 0.30927 0.25893 0.95197 0.0
C1131 C 0.26188 0.25653 0.9372 0.0
C1132 C 0.33185 0.25015 0.97357 0.0
C1133 C 0.3077 0.23876 0.98075 0.0
C1134 C 0.261 0.23622 0.96514 0.0
C1135 C 0.2383 0.24502 0.94367 0.0
H1136 H 0.9428 0.72188 0.68608 0.0
H1137 H 0.83709 0.72833 0.76819 0.0
H1138 H 0.99615 0.7387 0.7077 0.0
H1139 H 0.89092 0.7447 0.79038 0.0
H1140 H 0.97449 0.78125 0.80398 0.0
H1141 H 0.92013 0.76523 0.78 0.0
H1142 H 0.05149 0.74309 0.75462 0.0
H1143 H 0.106 0.75937 0.77756 0.0
C1144 C 0.93087 0.72691 0.70863 0.0
C1145 C 0.88569 0.72378 0.72536 0.0
C1146 C 0.96165 0.73646 0.72123 0.0
C1147 C 0.948 0.74302 0.75092 0.0
C1148 C 0.90234 0.73999 0.76721 0.0
C1149 C 0.8715 0.73054 0.75451 0.0
C1150 C 0.99179 0.77293 0.79349 0.0
C1151 C 0.04457 0.77158 0.79272 0.0
C1152 C 0.96058 0.76372 0.77977 0.0
C1153 C 0.98138 0.75287 0.76526 0.0
C1154 C 0.0342 0.75143 0.76501 0.0
C1155 C 0.06546 0.7607 0.77848 0.0
H1156 H 0.73732 0.96438 0.80998 0.0
H1157 H 0.59666 0.98092 0.77672 0.0
H1158 H 0.78259 0.98303 0.79121 0.0
H1159 H 0.64159 -0.0004 0.75871 0.0
H1160 H 0.74251 0.02348 0.69103 0.0
H1161 H 0.69882 0.00511 0.71296 0.0
H1162 H 0.79526 0.00515 0.80185 0.0
H1163 H 0.83971 0.02331 0.7796 0.0
C1164 C 0.71597 0.97208 0.79929 0.0
C1165 C 0.66349 0.97114 0.7946 0.0
C1166 C 0.74188 0.98277 0.78852 0.0
C1167 C 0.71575 0.99273 0.77299 0.0
C1168 C 0.66299 0.99198 0.7698 0.0
C1169 C 0.63719 0.98131 0.78042 0.0
C1170 C 0.75452 0.01954 0.71517 0.0
C1171 C 0.79453 0.02487 0.73356 0.0
C1172 C 0.72924 0.00907 0.72789 0.0
C1173 C 0.74332 0.00372 0.75931 0.0
C1174 C 0.78376 0.00897 0.77746 0.0
C1175 C 0.8091 0.01942 0.76472 0.0
H1176 H 0.75362 0.77448 0.96864 0.0
H1177 H 0.62612 0.75974 0.02449 0.0
H1178 H 0.80008 0.75516 0.97925 0.0
H1179 H 0.6719 0.74036 0.0343 0.0
H1180 H 0.78659 0.71237 0.07591 0.0
H1181 H 0.7421 0.73207 0.06631 0.0
H1182 H 0.80076 0.7335 0.96354 0.0
H1183 H 0.84608 0.7141 0.97338 0.0
C1184 C 0.73534 0.76708 0.98288 0.0
C1185 C 0.68621 0.76865 -0.00429 0.0
C1186 C 0.76189 0.75599 0.9889 0.0
C1187 C 0.7398 0.74621 0.00777 0.0
C1188 C 0.69043 0.74777 0.02023 0.0
C1189 C 0.66401 0.75885 0.01433 0.0
C1190 C 0.79005 0.71692 0.05133 0.0
C1191 C 0.81989 0.71166 0.02546 0.0
C1192 C 0.76435 0.72818 0.04574 0.0
C1193 C 0.76782 0.73438 0.01411 0.0
C1194 C 0.79783 0.7291 0.98835 0.0
C1195 C 0.82359 0.71791 0.99397 0.0
H1196 H 0.32814 0.50181 0.75333 0.0
H1197 H 0.1898 0.5072 0.69659 0.0
H1198 H 0.29328 0.48301 0.77915 0.0
H1199 H 0.15541 0.48819 0.72179 0.0
H1200 H 0.08753 0.46176 0.79854 0.0
H1201 H 0.12534 0.48083 0.77647 0.0
H1202 H 0.26861 0.46183 0.76601 0.0
H1203 H 0.231 0.44279 0.78892 0.0
C1204 C 0.29046 0.49891 0.74607 0.0
C1205 C 0.26165 0.50602 0.72297 0.0
C1206 C 0.27056 0.4881 0.76083 0.0
C1207 C 0.22144 0.48414 0.75275 0.0
C1208 C 0.19303 0.49112 0.72908 0.0
C1209 C 0.21288 0.50195 0.71439 0.0
C1210 C 0.12727 0.46169 0.79197 0.0
C1211 C 0.1562 0.45074 0.7953 0.0
C1212 C 0.14882 0.47259 0.779 0.0
C1213 C 0.19975 0.4728 0.76892 0.0
C1214 C 0.2293 0.462 0.77366 0.0
C1215 C 0.20776 0.45108 0.7868 0.0
H1216 H 0.11509 0.48691 0.48535 0.0
H1217 H 0.98853 0.46618 0.44523 0.0
H1218 H 0.05847 0.5039 0.50117 0.0
H1219 H 0.93162 0.48286 0.46233 0.0
H1220 H 0.85108 0.52014 0.46358 0.0
H1221 H 0.9079 0.50333 0.4482 0.0
H1222 H 0.99394 0.50966 0.54027 0.0
H1223 H 0.93785 0.52698 0.55495 0.0
C1224 C 0.07513 0.48598 0.47999 0.0
C1225 C 0.0563 0.47525 0.46386 0.0
C1226 C 0.04257 0.49566 0.48936 0.0
C1227 C 0.99036 0.49477 0.48316 0.0
C1228 C 0.97167 0.484 0.467 0.0
C1229 C 0.00429 0.4744 0.45724 0.0
C1230 C 0.88193 0.51792 0.48071 0.0
C1231 C 0.88993 0.52489 0.51054 0.0
C1232 C 0.91447 0.50821 0.47194 0.0
C1233 C 0.95555 0.50508 0.49299 0.0
C1234 C 0.96316 0.51194 0.52316 0.0
C1235 C 0.93081 0.52179 0.53175 0.0
H1236 H 0.19374 0.69459 0.50276 0.0
H1237 H 0.25852 0.71654 0.5841 0.0
H1238 H 0.16863 0.71371 0.47333 0.0
H1239 H 0.23301 0.73563 0.55471 0.0
H1240 H 0.2402 0.76595 0.47345 0.0
H1241 H 0.26101 0.74623 0.50118 0.0
H1242 H 0.11191 0.73224 0.4783 0.0
H1243 H 0.09097 0.75196 0.45029 0.0
C1244 C 0.20192 0.70348 0.51463 0.0
C1245 C 0.22842 0.70404 0.5457 0.0
C1246 C 0.1875 0.71443 0.49775 0.0
C1247 C 0.19955 0.72615 0.51146 0.0
C1248 C 0.2241 0.72671 0.54321 0.0
C1249 C 0.23822 0.71577 0.56022 0.0
C1250 C 0.21204 0.75862 0.47385 0.0
C1251 C 0.1638 0.76057 0.4598 0.0
C1252 C 0.22381 0.74737 0.49009 0.0
C1253 C 0.18778 0.73778 0.49242 0.0
C1254 C 0.14041 0.73947 0.47692 0.0
C1255 C 0.12848 0.75077 0.46085 0.0
H1256 H 0.66363 0.45991 0.21166 0.0
H1257 H 0.76375 0.46315 0.29822 0.0
H1258 H 0.70913 0.47655 0.1827 0.0
H1259 H 0.80859 0.48008 0.26951 0.0
H1260 H 0.90695 0.50254 0.1985 0.0
H1261 H 0.86421 0.48435 0.22211 0.0
H1262 H 0.72117 0.49874 0.18614 0.0
H1263 H 0.7641 0.51679 0.16178 0.0
C1264 C 0.69524 0.46422 0.22462 0.0
C1265 C 0.71 0.46022 0.25733 0.0
C1266 C 0.72122 0.4738 0.20801 0.0
C1267 C 0.76252 0.47967 0.22373 0.0
C1268 C 0.77742 0.47563 0.25642 0.0
C1269 C 0.7515 0.46599 0.27302 0.0
C1270 C 0.86646 0.50174 0.19516 0.0
C1271 C 0.8389 0.51116 0.17841 0.0
C1272 C 0.8419 0.49135 0.209 0.0
C1273 C 0.78917 0.49016 0.20649 0.0
C1274 C 0.76188 0.49931 0.18837 0.0
C1275 C 0.78649 0.50968 0.1744 0.0
H1276 H 0.71341 0.20696 0.55564 0.0
H1277 H 0.85409 0.22733 0.5581 0.0
H1278 H 0.67589 0.22335 0.52068 0.0
H1279 H 0.81608 0.244 0.52448 0.0
H1280 H 0.75091 0.26722 0.43939 0.0
H1281 H 0.78721 0.24932 0.4693 0.0
H1282 H 0.64601 0.2439 0.52279 0.0
H1283 H 0.6094 0.2613 0.4919 0.0
C1284 C 0.73604 0.21505 0.54919 0.0
C1285 C 0.78662 0.21589 0.55972 0.0
C1286 C 0.71455 0.22447 0.52913 0.0
C1287 C 0.74294 0.23502 0.51954 0.0
C1288 C 0.79335 0.23591 0.53066 0.0
C1289 C 0.81501 0.22642 0.55031 0.0
C1290 C 0.72748 0.26206 0.45713 0.0
C1291 C 0.67735 0.26571 0.4633 0.0
C1292 C 0.7484 0.25187 0.47457 0.0
C1293 C 0.71978 0.24521 0.49884 0.0
C1294 C 0.66913 0.24866 0.50406 0.0
C1295 C 0.64812 0.25872 0.48637 0.0
H1296 H 0.51653 0.27797 0.82035 0.0
H1297 H 0.64308 0.25751 0.77878 0.0
H1298 H 0.46067 0.26058 0.80658 0.0
H1299 H 0.58767 0.24005 0.76587 0.0
H1300 H 0.46838 0.21679 0.71318 0.0
H1301 H 0.52098 0.23479 0.72673 0.0
H1302 H 0.44133 0.23933 0.82211 0.0
H1303 H 0.38791 0.22159 0.80816 0.0
C1304 C 0.53254 0.2697 0.80869 0.0
C1305 C 0.58419 0.26914 0.80055 0.0
C1306 C 0.50055 0.25973 0.80084 0.0
C1307 C 0.51961 0.24897 0.7848 0.0
C1308 C 0.57153 0.2483 0.77751 0.0
C1309 C 0.6034 0.25828 0.78521 0.0
C1310 C 0.46183 0.2217 0.73689 0.0
C1311 C 0.42405 0.21774 0.7596 0.0
C1312 C 0.49224 0.23196 0.74481 0.0
C1313 C 0.48568 0.23844 0.77567 0.0
C1314 C 0.44711 0.23463 0.798 0.0
C1315 C 0.4166 0.22442 0.79003 0.0
H1316 H 0.47295 0.03406 0.51997 0.0
H1317 H 0.39465 0.02831 0.42464 0.0
H1318 H 0.52911 0.01667 0.50682 0.0
H1319 H 0.45174 0.01122 0.41095 0.0
H1320 H 0.52738 0.97259 0.41618 0.0
H1321 H 0.4716 0.99028 0.42692 0.0
H1322 H 0.59675 0.0108 0.46998 0.0
H1323 H 0.65196 0.99297 0.46027 0.0
C1324 C 0.46791 0.02913 0.49613 0.0
C1325 C 0.42924 0.03254 0.47343 0.0
C1326 C 0.50035 0.01921 0.48844 0.0
C1327 C 0.49511 0.01254 0.45773 0.0
C1328 C 0.45646 0.01601 0.43502 0.0
C1329 C 0.42383 0.02586 0.44283 0.0
C1330 C 0.54304 0.98092 0.42763 0.0
C1331 C 0.594 0.98135 0.43756 0.0
C1332 C 0.5111 0.9911 0.43373 0.0
C1333 C 0.52953 0.00195 0.44964 0.0
C1334 C 0.58097 0.0025 0.45841 0.0
C1335 C 0.61275 0.99231 0.45256 0.0
H1336 H 0.62127 0.76271 0.33548 0.0
H1337 H 0.47819 0.78211 0.33073 0.0
H1338 H 0.58485 0.7452 0.30474 0.0
H1339 H 0.44196 0.76466 0.29918 0.0
H1340 H 0.38377 0.72576 0.26934 0.0
H1341 H 0.41684 0.74302 0.30274 0.0
H1342 H 0.55755 0.74096 0.24713 0.0
H1343 H 0.52489 0.72343 0.21425 0.0
C1344 C 0.58187 0.76319 0.32811 0.0
C1345 C 0.55268 0.77383 0.33541 0.0
C1346 C 0.56115 0.7532 0.31016 0.0
C1347 C 0.51076 0.75361 0.29895 0.0
C1348 C 0.48087 0.76402 0.30754 0.0
C1349 C 0.5016 0.77402 0.32567 0.0
C1350 C 0.42168 0.72902 0.26405 0.0
C1351 C 0.4518 0.72318 0.2392 0.0
C1352 C 0.44056 0.73896 0.28317 0.0
C1353 C 0.48997 0.74331 0.27784 0.0
C1354 C 0.51965 0.73767 0.25236 0.0
C1355 C 0.5008 0.7277 0.23328 0.0
H1356 H 0.49537 0.4662 0.95882 0.0
H1357 H 0.61633 0.47098 0.03163 0.0
H1358 H 0.4629 0.48686 0.97331 0.0
H1359 H 0.5832 0.49143 0.0467 0.0
H1360 H 0.53703 0.53277 0.04014 0.0
H1361 H 0.57206 0.5124 0.02509 0.0
H1362 H 0.42122 0.4971 0.02031 0.0
H1363 H 0.38631 0.51744 0.03447 0.0
C1364 C 0.515 0.47165 0.9779 0.0
C1365 C 0.55836 0.46694 0.99409 0.0
C1366 C 0.49623 0.48345 0.98639 0.0
C1367 C 0.52031 0.49078 0.01132 0.0
C1368 C 0.56406 0.48611 0.02713 0.0
C1369 C 0.58289 0.47434 0.01859 0.0
C1370 C 0.51144 0.52503 0.0361 0.0
C1371 C 0.45891 0.52673 0.03837 0.0
C1372 C 0.53148 0.51335 0.02753 0.0
C1373 C 0.49939 0.50314 0.02117 0.0
C1374 C 0.44695 0.50481 0.0243 0.0
C1375 C 0.42697 0.51647 0.03273 0.0
H1376 H 0.07776 0.34216 0.13744 0.0
H1377 H 0.19297 0.31427 0.15547 0.0
H1378 H 0.09677 0.34162 0.07645 0.0
H1379 H 0.21037 0.31334 0.09511 0.0
H1380 H 0.25468 0.31612 0.98868 0.0
H1381 H 0.2443 0.32328 0.04715 0.0
H1382 H 0.08386 0.32777 0.02986 0.0
H1383 H 0.09515 0.32129 0.97076 0.0
C1384 C 0.10728 0.33598 0.12843 0.0
C1385 C 0.13365 0.32821 0.15124 0.0
C1386 C 0.11802 0.33562 0.0935 0.0
C1387 C 0.15511 0.32744 0.08076 0.0
C1388 C 0.18233 0.31997 0.10389 0.0
C1389 C 0.17197 0.3204 0.13864 0.0
C1390 C 0.21744 0.31891 -0.00271 0.0
C1391 C 0.17559 0.31802 0.97554 0.0
C1392 C 0.21136 0.32293 0.03081 0.0
C1393 C 0.16304 0.32581 0.04352 0.0
C1394 C 0.12167 0.3257 0.02096 0.0
C1395 C 0.12801 0.32193 0.98712 0.0
H1396 H 0.19506 0.91758 0.97637 0.0
H1397 H 0.03735 0.92291 0.00039 0.0
H1398 H 0.21268 0.91308 0.03619 0.0
H1399 H 0.054 0.91768 0.05969 0.0
H1400 H 0.11067 0.92557 0.16658 0.0
H1401 H 0.09058 0.92728 0.10653 0.0
H1402 H 0.20478 0.89962 0.08332 0.0
H1403 H 0.22671 0.89845 0.1437 0.0
C1404 C 0.16405 0.91753 0.9944 0.0
C1405 C 0.11503 0.92075 0.984 0.0
C1406 C 0.174 0.91487 0.02866 0.0
C1407 C 0.13486 0.91515 0.05298 0.0
C1408 C 0.08535 0.91773 0.04195 0.0
C1409 C 0.07568 0.92065 0.00794 0.0
C1410 C 0.13122 0.91977 0.1487 0.0
C1411 C 0.17037 0.91191 0.15979 0.0
C1412 C 0.11946 0.92068 0.11418 0.0
C1413 C 0.14592 0.91356 0.0899 0.0
C1414 C 0.18418 0.9054 0.10119 0.0
C1415 C 0.19654 0.90466 0.13579 0.0
H1416 H 0.81063 0.68144 0.802 0.0
H1417 H 0.95795 0.66705 0.77507 0.0
H1418 H 0.82552 0.67584 0.86119 0.0
H1419 H 0.97232 0.66108 0.83435 0.0
H1420 H 0.00091 0.67133 0.94887 0.0
H1421 H 0.98864 0.67174 0.88726 0.0
H1422 H 0.83495 0.65899 0.90071 0.0
H1423 H 0.84679 0.65903 0.96225 0.0
C1424 C 0.84589 0.6769 0.80865 0.0
C1425 C 0.88328 0.67478 0.78396 0.0
C1426 C 0.85431 0.67358 0.84257 0.0
C1427 C 0.90014 0.66799 0.85251 0.0
C1428 C 0.9369 0.66551 0.82758 0.0
C1429 C 0.92859 0.6689 0.79363 0.0
C1430 C 0.96493 0.66835 0.93856 0.0
C1431 C 0.92454 0.66536 0.96025 0.0
C1432 C 0.95787 0.66855 0.90325 0.0
C1433 C 0.91046 0.66563 0.88913 0.0
C1434 C 0.87148 0.66162 0.91085 0.0
C1435 C 0.87835 0.66157 0.94606 0.0
H1436 H 0.84294 0.09778 0.76989 0.0
H1437 H 0.91762 0.06191 0.77707 0.0
H1438 H 0.85143 0.10036 0.83175 0.0
H1439 H 0.92559 0.06453 0.83838 0.0
H1440 H 0.84598 0.06384 0.94143 0.0
H1441 H 0.84633 0.06495 0.87967 0.0
H1442 H 0.92176 0.10062 0.88365 0.0
H1443 H 0.92213 0.09953 0.94626 0.0
C1444 C 0.86217 0.09061 0.78446 0.0
C1445 C 0.87873 0.07953 0.76873 0.0
C1446 C 0.86702 0.09211 0.81977 0.0
C1447 C 0.88828 0.08253 0.83962 0.0
C1448 C 0.90832 0.07194 0.82354 0.0
C1449 C 0.90376 0.07047 0.78845 0.0
C1450 C 0.86232 0.072 0.92938 0.0
C1451 C 0.88459 0.08154 0.94879 0.0
C1452 C 0.8627 0.07258 0.89398 0.0
C1453 C 0.88489 0.08275 0.87712 0.0
C1454 C 0.90475 0.09265 0.89627 0.0
C1455 C 0.9049 0.09202 0.93196 0.0
H1456 H 0.13044 0.83878 0.71979 0.0
H1457 H 0.19403 0.8018 0.73108 0.0
H1458 H 0.14899 0.83827 0.65889 0.0
H1459 H 0.21384 0.80145 0.67048 0.0
H1460 H 0.15602 0.7972 0.56116 0.0
H1461 H 0.15694 0.79938 0.62251 0.0
H1462 H 0.21167 0.83722 0.61235 0.0
H1463 H 0.2099 0.83512 0.55017 0.0
C1464 C 0.14947 0.83068 0.70942 0.0
C1465 C 0.15986 0.82023 0.73002 0.0
C1466 C 0.16034 0.83042 0.67457 0.0
C1467 C 0.18206 0.81973 0.65984 0.0
C1468 C 0.196 0.8097 0.68101 0.0
C1469 C 0.18479 0.80991 0.71572 0.0
C1470 C 0.16856 0.80599 0.57185 0.0
C1471 C 0.18271 0.81601 0.55075 0.0
C1472 C 0.16958 0.80719 0.60713 0.0
C1473 C 0.18485 0.81843 0.6223 0.0
C1474 C 0.19958 0.82845 0.60132 0.0
C1475 C 0.19866 0.82724 0.56579 0.0
H1476 H 0.13376 0.3845 0.68751 0.0
H1477 H 0.0766 0.42203 0.70063 0.0
H1478 H 0.13397 0.38754 0.62569 0.0
H1479 H 0.07826 0.42516 0.63953 0.0
H1480 H 0.05338 0.42624 0.52854 0.0
H1481 H 0.04027 0.41939 0.58699 0.0
H1482 H 0.18242 0.39949 0.5843 0.0
H1483 H 0.19454 0.40599 0.52507 0.0
C1484 C 0.12081 0.39334 0.67722 0.0
C1485 C 0.10538 0.40304 0.69897 0.0
C1486 C 0.12128 0.39511 0.64186 0.0
C1487 C 0.10625 0.4066 0.62765 0.0
C1488 C 0.08931 0.41612 0.64948 0.0
C1489 C 0.08871 0.41435 0.68464 0.0
C1490 C 0.08162 0.4203 0.54032 0.0
C1491 C 0.12538 0.4168 0.52249 0.0
C1492 C 0.07417 0.4164 0.57385 0.0
C1493 C 0.11068 0.40907 0.59052 0.0
C1494 C 0.15338 0.40506 0.57213 0.0
C1495 C 0.16052 0.40884 0.5383 0.0
H1496 H 0.87171 0.14938 0.32607 0.0
H1497 H 0.96064 0.18259 0.3436 0.0
H1498 H 0.85274 0.14818 0.38696 0.0
H1499 H 0.94149 0.18139 0.40424 0.0
H1500 H 0.92102 0.17228 0.5154 0.0
H1501 H 0.95211 0.16857 0.45759 0.0
H1502 H 0.79923 0.16224 0.4233 0.0
H1503 H 0.76816 0.16588 0.48083 0.0
C1504 C 0.88784 0.1563 0.34296 0.0
C1505 C 0.91717 0.16616 0.33005 0.0
C1506 C 0.87686 0.15562 0.37774 0.0
C1507 C 0.89547 0.16472 0.40022 0.0
C1508 C 0.92703 0.17418 0.38755 0.0
C1509 C 0.93763 0.17492 0.35278 0.0
C1510 C 0.89418 0.1699 0.49561 0.0
C1511 C 0.84211 0.16951 0.50251 0.0
C1512 C 0.91197 0.16782 0.46257 0.0
C1513 C 0.87804 0.16517 0.43601 0.0
C1514 C 0.82629 0.16414 0.44334 0.0
C1515 C 0.80848 0.16634 0.47624 0.0
H1516 H 0.93565 0.57522 0.43392 0.0
H1517 H 0.77991 0.56313 0.4302 0.0
H1518 H 0.93807 0.57584 0.37171 0.0
H1519 H 0.78244 0.56385 0.36813 0.0
H1520 H 0.83736 0.54724 0.26629 0.0
H1521 H 0.82977 0.55009 0.32745 0.0
H1522 H 0.90022 0.58633 0.31905 0.0
H1523 H 0.90806 0.58349 0.25727 0.0
C1524 C 0.90176 0.57287 0.41986 0.0
C1525 C 0.8578 0.56896 0.4369 0.0
C1526 C 0.9031 0.57331 0.38429 0.0
C1527 C 0.86059 0.56978 0.36524 0.0
C1528 C 0.81593 0.56646 0.3823 0.0
C1529 C 0.81449 0.56608 0.41781 0.0
C1530 C 0.85117 0.55585 0.27735 0.0
C1531 C 0.87341 0.56515 0.25698 0.0
C1532 C 0.8464 0.55751 0.31236 0.0
C1533 C 0.86403 0.56847 0.32785 0.0
C1534 C 0.88639 0.57779 0.30762 0.0
C1535 C 0.89075 0.57618 0.27237 0.0
H1536 H 0.62766 0.29619 0.53924 0.0
H1537 H 0.6174 0.33651 0.53639 0.0
H1538 H 0.62411 0.29664 0.60105 0.0
H1539 H 0.61367 0.33687 0.59887 0.0
H1540 H 0.55452 0.32755 0.71061 0.0
H1541 H 0.5555 0.32892 0.64827 0.0
H1542 H 0.68611 0.30475 0.6455 0.0
H1543 H 0.6854 0.30336 0.70744 0.0
C1544 C 0.62431 0.30517 0.55176 0.0
C1545 C 0.62325 0.31634 0.53289 0.0
C1546 C 0.62254 0.3054 0.58719 0.0
C1547 C 0.61928 0.31679 0.60461 0.0
C1548 C 0.61622 0.32797 0.58591 0.0
C1549 C 0.61846 0.32776 0.55025 0.0
C1550 C 0.58361 0.3226 0.69666 0.0
C1551 C 0.61962 0.31526 0.71387 0.0
C1552 C 0.58427 0.32344 0.66108 0.0
C1553 C 0.62058 0.31685 0.64224 0.0
C1554 C 0.65731 0.30979 0.6595 0.0
C1555 C 0.65698 0.30904 0.69495 0.0
H1556 H 0.7816 0.93972 0.53888 0.0
H1557 H 0.62094 0.93427 0.5269 0.0
H1558 H 0.77317 0.93646 0.60033 0.0
H1559 H 0.61275 0.93034 0.58752 0.0
H1560 H 0.60294 0.93885 0.69971 0.0
H1561 H 0.61356 0.94121 0.63869 0.0
H1562 H 0.75696 0.92188 0.64447 0.0
H1563 H 0.74727 0.92012 0.70622 0.0
C1564 C 0.74464 0.9377 0.54939 0.0
C1565 C 0.70186 0.93742 0.52829 0.0
C1566 C 0.73979 0.93573 0.58452 0.0
C1567 C 0.69216 0.93323 0.59903 0.0
C1568 C 0.64978 0.93258 0.57751 0.0
C1569 C 0.65449 0.93478 0.54266 0.0
C1570 C 0.63657 0.93501 0.68795 0.0
C1571 C 0.67423 0.92927 0.7077 0.0
C1572 C 0.64261 0.93631 0.65284 0.0
C1573 C 0.68605 0.93168 0.63648 0.0
C1574 C 0.7234 0.92573 0.65624 0.0
C1575 C 0.71769 0.92462 0.69157 0.0
H1576 H 0.31615 0.65562 0.44477 0.0
H1577 H 0.46745 0.66829 0.4671 0.0
H1578 H 0.3355 0.65575 0.38412 0.0
H1579 H 0.48636 0.66888 0.40626 0.0
H1580 H 0.51453 0.66361 0.29385 0.0
H1581 H 0.49827 0.65791 0.35318 0.0
H1582 H 0.34611 0.67226 0.344 0.0
H1583 H 0.36176 0.67755 0.28485 0.0
C1584 C 0.35368 0.65836 0.43668 0.0
C1585 C 0.3901 0.66212 0.46057 0.0
C1586 C 0.36471 0.65849 0.40194 0.0
C1587 C 0.41217 0.66253 0.3903 0.0
C1588 C 0.44953 0.66563 0.41435 0.0
C1589 C 0.43865 0.66535 0.44922 0.0
C1590 C 0.47742 0.66538 0.30445 0.0
C1591 C 0.43952 0.67109 0.28474 0.0
C1592 C 0.46821 0.66217 0.33846 0.0
C1593 C 0.42096 0.66465 0.35338 0.0
C1594 C 0.38268 0.67001 0.33323 0.0
C1595 C 0.39178 0.67314 0.2993 0.0
H1596 H 0.44179 0.08264 0.39628 0.0
H1597 H 0.28402 0.07421 0.41322 0.0
H1598 H 0.42745 0.08233 0.33484 0.0
H1599 H 0.26978 0.07406 0.3519 0.0
H1600 H 0.29536 0.05242 0.25087 0.0
H1601 H 0.30001 0.05813 0.31065 0.0
H1602 H 0.38202 0.09163 0.28411 0.0
H1603 H 0.37756 0.08587 0.22377 0.0
C1604 C 0.40386 0.08101 0.38694 0.0
C1605 C 0.36426 0.0782 0.40954 0.0
C1606 C 0.39562 0.0809 0.35177 0.0
C1607 C 0.34767 0.07799 0.33869 0.0
C1608 C 0.30731 0.07612 0.36136 0.0
C1609 C 0.3155 0.07623 0.39645 0.0
C1610 C 0.31404 0.06106 0.25767 0.0
C1611 C 0.33645 0.06865 0.23268 0.0
C1612 C 0.31627 0.06439 0.29191 0.0
C1613 C 0.34119 0.07535 0.30197 0.0
C1614 C 0.36272 0.08311 0.27698 0.0
C1615 C 0.36006 0.07983 0.24253 0.0
H1616 H 0.59404 0.80592 0.08311 0.0
H1617 H 0.72689 0.8294 0.08302 0.0
H1618 H 0.58689 0.80835 0.14454 0.0
H1619 H 0.71936 0.83183 0.14496 0.0
H1620 H 0.64257 0.84203 0.25142 0.0
H1621 H 0.65518 0.84105 0.18954 0.0
H1622 H 0.6431 0.80087 0.19347 0.0
H1623 H 0.63071 0.80176 0.25476 0.0
C1624 C 0.62159 0.81166 0.09616 0.0
C1625 C 0.66126 0.8174 0.07827 0.0
C1626 C 0.61757 0.813 0.13135 0.0
C1627 C 0.65284 0.82018 0.14937 0.0
C1628 C 0.69168 0.82626 0.13151 0.0
C1629 C 0.69607 0.82481 0.09619 0.0
C1630 C 0.64305 0.833 0.23906 0.0
C1631 C 0.63519 0.82199 0.25792 0.0
C1632 C 0.65043 0.83245 0.20376 0.0
C1633 C 0.6495 0.8209 0.18688 0.0
C1634 C 0.64322 0.80991 0.20589 0.0
C1635 C 0.63633 0.81043 0.24102 0.0
H1636 H 0.46811 0.41322 0.06768 0.0
H1637 H 0.63015 0.41823 0.06816 0.0
H1638 H 0.4696 0.40974 0.12928 0.0
H1639 H 0.63147 0.41505 0.12933 0.0
H1640 H 0.6326 0.40478 0.23634 0.0
H1641 H 0.61942 0.40071 0.17592 0.0
H1642 H 0.48418 0.42336 0.178 0.0
H1643 H 0.49654 0.42708 0.23868 0.0
C1644 C 0.50407 0.41344 0.08084 0.0
C1645 C 0.54896 0.41614 0.06314 0.0
C1646 C 0.50487 0.41148 0.1161 0.0
C1647 C 0.55059 0.41214 0.13422 0.0
C1648 C 0.59566 0.41427 0.11615 0.0
C1649 C 0.59486 0.41623 0.08105 0.0
C1650 C 0.59936 0.40862 0.22405 0.0
C1651 C 0.56611 0.41644 0.24198 0.0
C1652 C 0.59193 0.40633 0.18944 0.0
C1653 C 0.55145 0.41195 0.17201 0.0
C1654 C 0.51569 0.41886 0.19067 0.0
C1655 C 0.52285 0.42104 0.22545 0.0
H1656 H 0.35823 0.16304 0.82702 0.0
H1657 H 0.51477 0.17419 0.8196 0.0
H1658 H 0.37133 0.15698 0.88615 0.0
H1659 H 0.52793 0.16801 0.87899 0.0
H1660 H 0.40837 0.14195 0.98788 0.0
H1661 H 0.41612 0.14251 0.92585 0.0
H1662 H 0.49562 0.17763 0.93254 0.0
H1663 H 0.48835 0.17705 0.99433 0.0
C1664 C 0.39564 0.16403 0.83788 0.0
C1665 C 0.4353 0.16925 0.81883 0.0
C1666 C 0.40328 0.16043 0.87166 0.0
C1667 C 0.45068 0.16203 0.88716 0.0
C1668 C 0.49095 0.16674 0.86769 0.0
C1669 C 0.4834 0.17026 0.83373 0.0
C1670 C 0.4287 0.14962 0.97616 0.0
C1671 C 0.44695 0.15957 -0.0041 0.0
C1672 C 0.4329 0.14996 0.94067 0.0
C1673 C 0.45583 0.1602 0.92441 0.0
C1674 C 0.47795 0.16959 0.94435 0.0
C1675 C 0.47347 0.16929 0.97977 0.0
H1676 H 0.42043 0.59128 0.92795 0.0
H1677 H 0.34767 0.5566 0.95602 0.0
H1678 H 0.39362 0.58824 0.86877 0.0
H1679 H 0.32065 0.55372 0.89746 0.0
H1680 H 0.34285 0.54396 0.78651 0.0
H1681 H 0.36696 0.54877 0.84468 0.0
H1682 H 0.31621 0.58681 0.83106 0.0
H1683 H 0.29238 0.58205 0.77217 0.0
C1684 C 0.39833 0.5831 0.9216 0.0
C1685 C 0.38673 0.5741 0.94655 0.0
C1686 C 0.38286 0.5814 0.8878 0.0
C1687 C 0.35569 0.57066 0.87852 0.0
C1688 C 0.34246 0.56195 0.90377 0.0
C1689 C 0.35782 0.56364 0.93736 0.0
C1690 C 0.33683 0.55337 0.79576 0.0
C1691 C 0.31536 0.56261 0.77478 0.0
C1692 C 0.35043 0.5561 0.82919 0.0
C1693 C 0.34289 0.56812 0.84248 0.0
C1694 C 0.32252 0.57747 0.82137 0.0
C1695 C 0.30871 0.57473 0.78777 0.0
loop_
_geom_bond_atom_site_label_1
_geom_bond_atom_site_label_2
_geom_bond_distance
_geom_bond_site_symmetry_2
_ccdc_geom_bond_type
C0 O1 1.160 . S
C0 O7 1.185 . S
O1 C0 1.160 . S
O2 Zn3 1.899 . S
O2 C10 1.284 . S
Zn3 O2 1.899 . S
Zn3 O4 2.032 . S
Zn3 O7 2.086 . S
Zn3 O12 1.977 . S
O4 Zn3 2.032 . S
O4 C8 1.278 . S
C5 O6 1.203 . S
C5 O12 1.267 . S
O6 C5 1.203 . S
O7 C0 1.185 . S
O7 Zn3 2.086 . S
C8 O4 1.278 . S
C8 O9 1.211 . S
O9 C8 1.211 . S
C10 O2 1.284 . S
C10 O11 1.273 . S
O11 C10 1.273 . S
O12 Zn3 1.977 . S
O12 C5 1.267 . S
C13 O14 1.160 . S
C13 O20 1.185 . S
O14 C13 1.160 . S
O15 Zn16 1.899 . S
O15 C23 1.284 . S
Zn16 O15 1.899 . S
Zn16 O17 2.032 . S
Zn16 O20 2.086 . S
Zn16 O25 1.977 . S
O17 Zn16 2.032 . S
O17 C21 1.278 . S
C18 O19 1.203 . S
C18 O25 1.267 . S
O19 C18 1.203 . S
O20 C13 1.185 . S
O20 Zn16 2.086 . S
C21 O17 1.278 . S
C21 O22 1.211 . S
O22 C21 1.211 . S
C23 O15 1.284 . S
C23 O24 1.273 . S
O24 C23 1.273 . S
O25 Zn16 1.977 . S
O25 C18 1.267 . S
C26 O27 1.160 . S
C26 O33 1.185 . S
O27 C26 1.160 . S
O28 Zn29 1.899 . S
O28 C36 1.284 . S
Zn29 O28 1.899 . S
Zn29 O30 2.032 . S
Zn29 O33 2.086 . S
Zn29 O38 1.977 . S
O30 Zn29 2.032 . S
O30 C34 1.278 1_556 S
C31 O32 1.203 . S
C31 O38 1.267 . S
O32 C31 1.203 . S
O33 C26 1.185 . S
O33 Zn29 2.086 . S
C34 O30 1.278 1_554 S
C34 O35 1.211 . S
O35 C34 1.211 . S
C36 O28 1.284 . S
C36 O37 1.273 . S
O37 C36 1.273 . S
O38 Zn29 1.977 . S
O38 C31 1.267 . S
C39 O40 1.160 . S
C39 O46 1.185 . S
O40 C39 1.160 . S
O41 Zn42 1.899 . S
O41 C49 1.284 . S
Zn42 O41 1.899 . S
Zn42 O43 2.032 . S
Zn42 O46 2.086 . S
Zn42 O51 1.977 . S
O43 Zn42 2.032 . S
O43 C47 1.278 1_556 S
C44 O45 1.203 . S
C44 O51 1.267 . S
O45 C44 1.203 . S
O46 C39 1.185 . S
O46 Zn42 2.086 . S
C47 O43 1.278 1_554 S
C47 O48 1.211 . S
O48 C47 1.211 . S
C49 O41 1.284 . S
C49 O50 1.273 . S
O50 C49 1.273 . S
O51 Zn42 1.977 . S
O51 C44 1.267 . S
C52 O53 1.160 . S
C52 O59 1.185 . S
O53 C52 1.160 . S
O54 Zn55 1.899 . S
O54 C62 1.284 . S
Zn55 O54 1.899 . S
Zn55 O56 2.032 . S
Zn55 O59 2.086 . S
Zn55 O64 1.977 . S
O56 Zn55 2.032 . S
O56 C60 1.278 . S
C57 O58 1.203 . S
C57 O64 1.267 . S
O58 C57 1.203 . S
O59 C52 1.185 . S
O59 Zn55 2.086 . S
C60 O56 1.278 . S
C60 O61 1.211 . S
O61 C60 1.211 . S
C62 O54 1.284 . S
C62 O63 1.273 . S
O63 C62 1.273 . S
O64 Zn55 1.977 . S
O64 C57 1.267 . S
C65 O66 1.160 . S
C65 O72 1.185 . S
O66 C65 1.160 . S
O67 Zn68 1.899 . S
O67 C75 1.284 . S
Zn68 O67 1.899 . S
Zn68 O69 2.032 . S
Zn68 O72 2.086 . S
Zn68 O77 1.977 . S
O69 Zn68 2.032 . S
O69 C73 1.278 . S
C70 O71 1.203 . S
C70 O77 1.267 . S
O71 C70 1.203 . S
O72 C65 1.185 . S
O72 Zn68 2.086 . S
C73 O69 1.278 . S
C73 O74 1.211 . S
O74 C73 1.211 . S
C75 O67 1.284 . S
C75 O76 1.273 . S
O76 C75 1.273 . S
O77 Zn68 1.977 . S
O77 C70 1.267 . S
C78 O79 1.160 . S
C78 O85 1.185 . S
O79 C78 1.160 . S
O80 Zn81 1.899 . S
O80 C88 1.284 . S
Zn81 O80 1.899 . S
Zn81 O82 2.032 . S
Zn81 O85 2.086 . S
Zn81 O90 1.977 . S
O82 Zn81 2.032 . S
O82 C86 1.278 1_554 S
C83 O84 1.203 . S
C83 O90 1.267 . S
O84 C83 1.203 . S
O85 C78 1.185 . S
O85 Zn81 2.086 . S
C86 O82 1.278 1_556 S
C86 O87 1.211 . S
O87 C86 1.211 . S
C88 O80 1.284 . S
C88 O89 1.273 . S
O89 C88 1.273 . S
O90 Zn81 1.977 . S
O90 C83 1.267 . S
C91 O92 1.160 . S
C91 O98 1.185 . S
O92 C91 1.160 . S
O93 Zn94 1.899 . S
O93 C101 1.284 . S
Zn94 O93 1.899 . S
Zn94 O95 2.032 . S
Zn94 O98 2.086 . S
Zn94 O103 1.977 . S
O95 Zn94 2.032 . S
O95 C99 1.278 1_554 S
C96 O97 1.203 . S
C96 O103 1.267 . S
O97 C96 1.203 . S
O98 C91 1.185 . S
O98 Zn94 2.086 . S
C99 O95 1.278 1_556 S
C99 O100 1.211 . S
O100 C99 1.211 . S
C101 O93 1.284 . S
C101 O102 1.273 . S
O102 C101 1.273 . S
O103 Zn94 1.977 . S
O103 C96 1.267 . S
C104 O105 1.160 . S
C104 O111 1.185 . S
O105 C104 1.160 . S
O106 Zn107 1.899 . S
O106 C114 1.284 . S
Zn107 O106 1.899 . S
Zn107 O108 2.032 . S
Zn107 O111 2.086 . S
Zn107 O116 1.977 . S
O108 Zn107 2.032 . S
O108 C112 1.278 . S
C109 O110 1.203 . S
C109 O116 1.267 . S
O110 C109 1.203 . S
O111 C104 1.185 . S
O111 Zn107 2.086 . S
C112 O108 1.278 . S
C112 O113 1.211 . S
O113 C112 1.211 . S
C114 O106 1.284 . S
C114 O115 1.273 . S
O115 C114 1.273 . S
O116 Zn107 1.977 . S
O116 C109 1.267 . S
C117 O118 1.160 . S
C117 O124 1.185 . S
O118 C117 1.160 . S
O119 Zn120 1.899 . S
O119 C127 1.284 . S
Zn120 O119 1.899 . S
Zn120 O121 2.032 . S
Zn120 O124 2.086 . S
Zn120 O129 1.977 . S
O121 Zn120 2.032 . S
O121 C125 1.278 . S
C122 O123 1.203 . S
C122 O129 1.267 . S
O123 C122 1.203 . S
O124 C117 1.185 . S
O124 Zn120 2.086 . S
C125 O121 1.278 . S
C125 O126 1.211 . S
O126 C125 1.211 . S
C127 O119 1.284 . S
C127 O128 1.273 . S
O128 C127 1.273 . S
O129 Zn120 1.977 . S
O129 C122 1.267 . S
C130 O131 1.160 . S
C130 O137 1.185 . S
O131 C130 1.160 . S
O132 Zn133 1.899 . S
O132 C140 1.284 . S
Zn133 O132 1.899 . S
Zn133 O134 2.032 . S
Zn133 O137 2.086 . S
Zn133 O142 1.977 . S
O134 Zn133 2.032 . S
O134 C138 1.278 . S
C135 O136 1.203 . S
C135 O142 1.267 . S
O136 C135 1.203 . S
O137 C130 1.185 . S
O137 Zn133 2.086 . S
C138 O134 1.278 . S
C138 O139 1.211 . S
O139 C138 1.211 . S
C140 O132 1.284 . S
C140 O141 1.273 . S
O141 C140 1.273 . S
O142 Zn133 1.977 . S
O142 C135 1.267 . S
C143 O144 1.160 . S
C143 O150 1.185 . S
O144 C143 1.160 . S
O145 Zn146 1.899 . S
O145 C153 1.284 . S
Zn146 O145 1.899 . S
Zn146 O147 2.032 . S
Zn146 O150 2.086 . S
Zn146 O155 1.977 . S
O147 Zn146 2.032 . S
O147 C151 1.278 . S
C148 O149 1.203 . S
C148 O155 1.267 . S
O149 C148 1.203 . S
O150 C143 1.185 . S
O150 Zn146 2.086 . S
C151 O147 1.278 . S
C151 O152 1.211 . S
O152 C151 1.211 . S
C153 O145 1.284 . S
C153 O154 1.273 . S
O154 C153 1.273 . S
O155 Zn146 1.977 . S
O155 C148 1.267 . S
C156 O157 1.160 . S
C156 O163 1.185 . S
O157 C156 1.160 . S
O158 Zn159 1.899 . S
O158 C166 1.284 . S
Zn159 O158 1.899 . S
Zn159 O160 2.032 . S
Zn159 O163 2.086 . S
Zn159 O168 1.977 . S
O160 Zn159 2.032 . S
O160 C164 1.278 . S
C161 O162 1.203 . S
C161 O168 1.267 . S
O162 C161 1.203 . S
O163 C156 1.185 . S
O163 Zn159 2.086 . S
C164 O160 1.278 . S
C164 O165 1.211 . S
O165 C164 1.211 . S
C166 O158 1.284 . S
C166 O167 1.273 . S
O167 C166 1.273 . S
O168 Zn159 1.977 . S
O168 C161 1.267 . S
C169 O170 1.160 . S
C169 O176 1.185 . S
O170 C169 1.160 . S
O171 Zn172 1.899 . S
O171 C179 1.284 . S
Zn172 O171 1.899 . S
Zn172 O173 2.032 . S
Zn172 O176 2.086 . S
Zn172 O181 1.977 . S
O173 Zn172 2.032 . S
O173 C177 1.278 . S
C174 O175 1.203 . S
C174 O181 1.267 . S
O175 C174 1.203 . S
O176 C169 1.185 . S
O176 Zn172 2.086 . S
C177 O173 1.278 . S
C177 O178 1.211 . S
O178 C177 1.211 . S
C179 O171 1.284 . S
C179 O180 1.273 . S
O180 C179 1.273 . S
O181 Zn172 1.977 . S
O181 C174 1.267 . S
C182 O183 1.160 . S
C182 O189 1.185 . S
O183 C182 1.160 . S
O184 Zn185 1.899 . S
O184 C192 1.284 . S
Zn185 O184 1.899 . S
Zn185 O186 2.032 . S
Zn185 O189 2.086 . S
Zn185 O194 1.977 . S
O186 Zn185 2.032 . S
O186 C190 1.278 . S
C187 O188 1.203 . S
C187 O194 1.267 . S
O188 C187 1.203 . S
O189 C182 1.185 . S
O189 Zn185 2.086 . S
C190 O186 1.278 . S
C190 O191 1.211 . S
O191 C190 1.211 . S
C192 O184 1.284 . S
C192 O193 1.273 . S
O193 C192 1.273 . S
O194 Zn185 1.977 . S
O194 C187 1.267 . S
C195 O196 1.160 . S
C195 O202 1.185 . S
O196 C195 1.160 . S
O197 Zn198 1.899 . S
O197 C205 1.284 . S
Zn198 O197 1.899 . S
Zn198 O199 2.032 . S
Zn198 O202 2.086 . S
Zn198 O207 1.977 . S
O199 Zn198 2.032 . S
O199 C203 1.278 . S
C200 O201 1.203 . S
C200 O207 1.267 . S
O201 C200 1.203 . S
O202 C195 1.185 . S
O202 Zn198 2.086 . S
C203 O199 1.278 . S
C203 O204 1.211 . S
O204 C203 1.211 . S
C205 O197 1.284 . S
C205 O206 1.273 . S
O206 C205 1.273 . S
O207 Zn198 1.977 . S
O207 C200 1.267 . S
C208 O209 1.160 . S
C208 O215 1.185 . S
O209 C208 1.160 . S
O210 Zn211 1.899 . S
O210 C218 1.284 . S
Zn211 O210 1.899 . S
Zn211 O212 2.032 . S
Zn211 O215 2.086 . S
Zn211 O220 1.977 . S
O212 Zn211 2.032 . S
O212 C216 1.278 . S
C213 O214 1.203 . S
C213 O220 1.267 . S
O214 C213 1.203 . S
O215 C208 1.185 . S
O215 Zn211 2.086 . S
C216 O212 1.278 . S
C216 O217 1.211 . S
O217 C216 1.211 . S
C218 O210 1.284 . S
C218 O219 1.273 . S
O219 C218 1.273 . S
O220 Zn211 1.977 . S
O220 C213 1.267 . S
C221 O222 1.160 . S
C221 O228 1.185 . S
O222 C221 1.160 . S
O223 Zn224 1.899 . S
O223 C231 1.284 . S
Zn224 O223 1.899 . S
Zn224 O225 2.032 . S
Zn224 O228 2.086 . S
Zn224 O233 1.977 . S
O225 Zn224 2.032 . S
O225 C229 1.278 . S
C226 O227 1.203 . S
C226 O233 1.267 . S
O227 C226 1.203 . S
O228 C221 1.185 . S
O228 Zn224 2.086 . S
C229 O225 1.278 . S
C229 O230 1.211 . S
O230 C229 1.211 . S
C231 O223 1.284 . S
C231 O232 1.273 . S
O232 C231 1.273 . S
O233 Zn224 1.977 . S
O233 C226 1.267 . S
C234 O235 1.160 . S
C234 O241 1.185 . S
O235 C234 1.160 . S
O236 Zn237 1.899 . S
O236 C244 1.284 . S
Zn237 O236 1.899 . S
Zn237 O238 2.032 . S
Zn237 O241 2.086 . S
Zn237 O246 1.977 . S
O238 Zn237 2.032 . S
O238 C242 1.278 . S
C239 O240 1.203 . S
C239 O246 1.267 . S
O240 C239 1.203 . S
O241 C234 1.185 . S
O241 Zn237 2.086 . S
C242 O238 1.278 . S
C242 O243 1.211 . S
O243 C242 1.211 . S
C244 O236 1.284 . S
C244 O245 1.273 . S
O245 C244 1.273 . S
O246 Zn237 1.977 . S
O246 C239 1.267 . S
C247 O248 1.160 . S
C247 O254 1.185 . S
O248 C247 1.160 . S
O249 Zn250 1.899 . S
O249 C257 1.284 . S
Zn250 O249 1.899 . S
Zn250 O251 2.032 . S
Zn250 O254 2.086 . S
Zn250 O259 1.977 . S
O251 Zn250 2.032 . S
O251 C255 1.278 . S
C252 O253 1.203 . S
C252 O259 1.267 . S
O253 C252 1.203 . S
O254 C247 1.185 . S
O254 Zn250 2.086 . S
C255 O251 1.278 . S
C255 O256 1.211 . S
O256 C255 1.211 . S
C257 O249 1.284 . S
C257 O258 1.273 . S
O258 C257 1.273 . S
O259 Zn250 1.977 . S
O259 C252 1.267 . S
C260 O261 1.160 . S
C260 O267 1.185 . S
O261 C260 1.160 . S
O262 Zn263 1.899 . S
O262 C270 1.284 . S
Zn263 O262 1.899 . S
Zn263 O264 2.032 . S
Zn263 O267 2.086 . S
Zn263 O272 1.977 . S
O264 Zn263 2.032 . S
O264 C268 1.278 . S
C265 O266 1.203 . S
C265 O272 1.267 . S
O266 C265 1.203 . S
O267 C260 1.185 . S
O267 Zn263 2.086 . S
C268 O264 1.278 . S
C268 O269 1.211 . S
O269 C268 1.211 . S
C270 O262 1.284 . S
C270 O271 1.273 . S
O271 C270 1.273 . S
O272 Zn263 1.977 . S
O272 C265 1.267 . S
C273 O274 1.160 . S
C273 O280 1.185 . S
O274 C273 1.160 . S
O275 Zn276 1.899 . S
O275 C283 1.284 . S
Zn276 O275 1.899 . S
Zn276 O277 2.032 . S
Zn276 O280 2.086 . S
Zn276 O285 1.977 . S
O277 Zn276 2.032 . S
O277 C281 1.278 . S
C278 O279 1.203 . S
C278 O285 1.267 . S
O279 C278 1.203 . S
O280 C273 1.185 . S
O280 Zn276 2.086 . S
C281 O277 1.278 . S
C281 O282 1.211 . S
O282 C281 1.211 . S
C283 O275 1.284 . S
C283 O284 1.273 . S
O284 C283 1.273 . S
O285 Zn276 1.977 . S
O285 C278 1.267 . S
C286 O287 1.160 . S
C286 O293 1.185 . S
O287 C286 1.160 . S
O288 Zn289 1.899 . S
O288 C296 1.284 . S
Zn289 O288 1.899 . S
Zn289 O290 2.032 . S
Zn289 O293 2.086 . S
Zn289 O298 1.977 . S
O290 Zn289 2.032 . S
O290 C294 1.278 . S
C291 O292 1.203 . S
C291 O298 1.267 . S
O292 C291 1.203 . S
O293 C286 1.185 . S
O293 Zn289 2.086 . S
C294 O290 1.278 . S
C294 O295 1.211 . S
O295 C294 1.211 . S
C296 O288 1.284 . S
C296 O297 1.273 . S
O297 C296 1.273 . S
O298 Zn289 1.977 . S
O298 C291 1.267 . S
C299 O300 1.160 . S
C299 O306 1.185 . S
O300 C299 1.160 . S
O301 Zn302 1.899 . S
O301 C309 1.284 . S
Zn302 O301 1.899 . S
Zn302 O303 2.032 . S
Zn302 O306 2.086 . S
Zn302 O311 1.977 . S
O303 Zn302 2.032 . S
O303 C307 1.278 . S
C304 O305 1.203 . S
C304 O311 1.267 . S
O305 C304 1.203 . S
O306 C299 1.185 . S
O306 Zn302 2.086 . S
C307 O303 1.278 . S
C307 O308 1.211 . S
O308 C307 1.211 . S
C309 O301 1.284 . S
C309 O310 1.273 . S
O310 C309 1.273 . S
O311 Zn302 1.977 . S
O311 C304 1.267 . S
C312 O313 1.160 . S
C312 O319 1.185 . S
O313 C312 1.160 . S
O314 Zn315 1.899 . S
O314 C322 1.284 . S
Zn315 O314 1.899 . S
Zn315 O316 2.032 . S
Zn315 O319 2.086 . S
Zn315 O324 1.977 . S
O316 Zn315 2.032 . S
O316 C320 1.278 . S
C317 O318 1.203 . S
C317 O324 1.267 . S
O318 C317 1.203 . S
O319 C312 1.185 . S
O319 Zn315 2.086 . S
C320 O316 1.278 . S
C320 O321 1.211 . S
O321 C320 1.211 . S
C322 O314 1.284 . S
C322 O323 1.273 . S
O323 C322 1.273 . S
O324 Zn315 1.977 . S
O324 C317 1.267 . S
C325 O326 1.160 . S
C325 O332 1.185 . S
O326 C325 1.160 . S
O327 Zn328 1.899 . S
O327 C335 1.284 . S
Zn328 O327 1.899 . S
Zn328 O329 2.032 . S
Zn328 O332 2.086 . S
Zn328 O337 1.977 . S
O329 Zn328 2.032 . S
O329 C333 1.278 . S
C330 O331 1.203 . S
C330 O337 1.267 . S
O331 C330 1.203 . S
O332 C325 1.185 . S
O332 Zn328 2.086 . S
C333 O329 1.278 . S
C333 O334 1.211 . S
O334 C333 1.211 . S
C335 O327 1.284 . S
C335 O336 1.273 . S
O336 C335 1.273 . S
O337 Zn328 1.977 . S
O337 C330 1.267 . S
C338 O339 1.160 . S
C338 O345 1.185 . S
O339 C338 1.160 . S
O340 Zn341 1.899 . S
O340 C348 1.284 . S
Zn341 O340 1.899 . S
Zn341 O342 2.032 . S
Zn341 O345 2.086 . S
Zn341 O350 1.977 . S
O342 Zn341 2.032 . S
O342 C346 1.278 1_556 S
C343 O344 1.203 . S
C343 O350 1.267 . S
O344 C343 1.203 . S
O345 C338 1.185 . S
O345 Zn341 2.086 . S
C346 O342 1.278 1_554 S
C346 O347 1.211 . S
O347 C346 1.211 . S
C348 O340 1.284 . S
C348 O349 1.273 . S
O349 C348 1.273 . S
O350 Zn341 1.977 . S
O350 C343 1.267 . S
C351 O352 1.160 . S
C351 O358 1.185 . S
O352 C351 1.160 . S
O353 Zn354 1.899 . S
O353 C361 1.284 . S
Zn354 O353 1.899 . S
Zn354 O355 2.032 . S
Zn354 O358 2.086 . S
Zn354 O363 1.977 . S
O355 Zn354 2.032 . S
O355 C359 1.278 1_556 S
C356 O357 1.203 . S
C356 O363 1.267 . S
O357 C356 1.203 . S
O358 C351 1.185 . S
O358 Zn354 2.086 . S
C359 O355 1.278 1_554 S
C359 O360 1.211 . S
O360 C359 1.211 . S
C361 O353 1.284 . S
C361 O362 1.273 . S
O362 C361 1.273 . S
O363 Zn354 1.977 . S
O363 C356 1.267 . S
C364 O365 1.160 . S
C364 O371 1.185 . S
O365 C364 1.160 . S
O366 Zn367 1.899 . S
O366 C374 1.284 . S
Zn367 O366 1.899 . S
Zn367 O368 2.032 . S
Zn367 O371 2.086 . S
Zn367 O376 1.977 . S
O368 Zn367 2.032 . S
O368 C372 1.278 . S
C369 O370 1.203 . S
C369 O376 1.267 . S
O370 C369 1.203 . S
O371 C364 1.185 . S
O371 Zn367 2.086 . S
C372 O368 1.278 . S
C372 O373 1.211 . S
O373 C372 1.211 . S
C374 O366 1.284 . S
C374 O375 1.273 . S
O375 C374 1.273 . S
O376 Zn367 1.977 . S
O376 C369 1.267 . S
C377 O378 1.160 . S
C377 O384 1.185 . S
O378 C377 1.160 . S
O379 Zn380 1.899 . S
O379 C387 1.284 . S
Zn380 O379 1.899 . S
Zn380 O381 2.032 . S
Zn380 O384 2.086 . S
Zn380 O389 1.977 . S
O381 Zn380 2.032 . S
O381 C385 1.278 . S
C382 O383 1.203 . S
C382 O389 1.267 . S
O383 C382 1.203 . S
O384 C377 1.185 . S
O384 Zn380 2.086 . S
C385 O381 1.278 . S
C385 O386 1.211 . S
O386 C385 1.211 . S
C387 O379 1.284 . S
C387 O388 1.273 . S
O388 C387 1.273 . S
O389 Zn380 1.977 . S
O389 C382 1.267 . S
C390 O391 1.160 . S
C390 O397 1.185 . S
O391 C390 1.160 . S
O392 Zn393 1.899 . S
O392 C400 1.284 . S
Zn393 O392 1.899 . S
Zn393 O394 2.032 . S
Zn393 O397 2.086 . S
Zn393 O402 1.977 . S
O394 Zn393 2.032 . S
O394 C398 1.278 1_554 S
C395 O396 1.203 . S
C395 O402 1.267 . S
O396 C395 1.203 . S
O397 C390 1.185 . S
O397 Zn393 2.086 . S
C398 O394 1.278 1_556 S
C398 O399 1.211 . S
O399 C398 1.211 . S
C400 O392 1.284 . S
C400 O401 1.273 . S
O401 C400 1.273 . S
O402 Zn393 1.977 . S
O402 C395 1.267 . S
C403 O404 1.160 . S
C403 O410 1.185 . S
O404 C403 1.160 . S
O405 Zn406 1.899 . S
O405 C413 1.284 . S
Zn406 O405 1.899 . S
Zn406 O407 2.032 . S
Zn406 O410 2.086 . S
Zn406 O415 1.977 . S
O407 Zn406 2.032 . S
O407 C411 1.278 1_554 S
C408 O409 1.203 . S
C408 O415 1.267 . S
O409 C408 1.203 . S
O410 C403 1.185 . S
O410 Zn406 2.086 . S
C411 O407 1.278 1_556 S
C411 O412 1.211 . S
O412 C411 1.211 . S
C413 O405 1.284 . S
C413 O414 1.273 . S
O414 C413 1.273 . S
O415 Zn406 1.977 . S
O415 C408 1.267 . S
H416 C424 0.950 . S
H417 C429 0.950 . S
H418 C426 0.950 . S
H419 C428 0.950 . S
H420 C430 0.950 . S
H421 C432 0.950 . S
H422 C434 0.950 . S
H423 C435 0.950 . S
C424 H416 0.950 . S
C424 C425 1.386 . S
C424 C426 1.391 . S
C425 C424 1.386 . S
C425 C429 1.393 . S
C426 H418 0.950 . S
C426 C424 1.391 . S
C426 C427 1.400 . S
C427 C426 1.400 . S
C427 C428 1.398 . S
C427 C433 1.491 . S
C428 H419 0.950 . S
C428 C427 1.398 . S
C428 C429 1.391 . S
C429 H417 0.950 . S
C429 C425 1.393 . S
C429 C428 1.391 . S
C430 H420 0.950 . S
C430 C431 1.386 . S
C430 C432 1.391 . S
C431 C430 1.386 . S
C431 C435 1.393 . S
C432 H421 0.950 . S
C432 C430 1.391 . S
C432 C433 1.400 . S
C433 C427 1.491 . S
C433 C432 1.400 . S
C433 C434 1.398 . S
C434 H422 0.950 . S
C434 C433 1.398 . S
C434 C435 1.391 . S
C435 H423 0.950 . S
C435 C431 1.393 . S
C435 C434 1.391 . S
H436 C444 0.950 . S
H437 C449 0.950 . S
H438 C446 0.950 . S
H439 C448 0.950 . S
H440 C450 0.950 . S
H441 C452 0.950 . S
H442 C454 0.950 . S
H443 C455 0.950 . S
C444 H436 0.950 . S
C444 C445 1.386 . S
C444 C446 1.391 . S
C445 C444 1.386 . S
C445 C449 1.393 . S
C446 H438 0.950 . S
C446 C444 1.391 . S
C446 C447 1.400 . S
C447 C446 1.400 . S
C447 C448 1.398 . S
C447 C453 1.491 . S
C448 H439 0.950 . S
C448 C447 1.398 . S
C448 C449 1.391 . S
C449 H437 0.950 . S
C449 C445 1.393 . S
C449 C448 1.391 . S
C450 H440 0.950 . S
C450 C451 1.386 . S
C450 C452 1.391 . S
C451 C450 1.386 . S
C451 C455 1.393 . S
C452 H441 0.950 . S
C452 C450 1.391 . S
C452 C453 1.400 . S
C453 C447 1.491 . S
C453 C452 1.400 . S
C453 C454 1.398 . S
C454 H442 0.950 . S
C454 C453 1.398 . S
C454 C455 1.391 . S
C455 H443 0.950 . S
C455 C451 1.393 . S
C455 C454 1.391 . S
H456 C464 0.950 1_655 S
H457 C469 0.950 . S
H458 C466 0.950 1_655 S
H459 C468 0.950 . S
H460 C470 0.950 . S
H461 C472 0.950 . S
H462 C474 0.950 1_655 S
H463 C475 0.950 1_655 S
C464 H456 0.950 1_455 S
C464 C465 1.386 . S
C464 C466 1.391 . S
C465 C464 1.386 . S
C465 C469 1.393 . S
C466 H458 0.950 1_455 S
C466 C464 1.391 . S
C466 C467 1.400 . S
C467 C466 1.400 . S
C467 C468 1.398 . S
C467 C473 1.491 . S
C468 H459 0.950 . S
C468 C467 1.398 . S
C468 C469 1.391 . S
C469 H457 0.950 . S
C469 C465 1.393 . S
C469 C468 1.391 . S
C470 H460 0.950 . S
C470 C471 1.386 . S
C470 C472 1.391 . S
C471 C470 1.386 . S
C471 C475 1.393 . S
C472 H461 0.950 . S
C472 C470 1.391 . S
C472 C473 1.400 . S
C473 C467 1.491 . S
C473 C472 1.400 . S
C473 C474 1.398 . S
C474 H462 0.950 1_455 S
C474 C473 1.398 . S
C474 C475 1.391 . S
C475 H463 0.950 1_455 S
C475 C471 1.393 . S
C475 C474 1.391 . S
H476 C484 0.950 . S
H477 C489 0.950 . S
H478 C486 0.950 . S
H479 C488 0.950 . S
H480 C490 0.950 . S
H481 C492 0.950 . S
H482 C494 0.950 . S
H483 C495 0.950 . S
C484 H476 0.950 . S
C484 C485 1.386 . S
C484 C486 1.391 . S
C485 C484 1.386 . S
C485 C489 1.393 . S
C486 H478 0.950 . S
C486 C484 1.391 . S
C486 C487 1.400 . S
C487 C486 1.400 . S
C487 C488 1.398 . S
C487 C493 1.491 . S
C488 H479 0.950 . S
C488 C487 1.398 . S
C488 C489 1.391 . S
C489 H477 0.950 . S
C489 C485 1.393 . S
C489 C488 1.391 . S
C490 H480 0.950 . S
C490 C491 1.386 . S
C490 C492 1.391 . S
C491 C490 1.386 . S
C491 C495 1.393 . S
C492 H481 0.950 . S
C492 C490 1.391 . S
C492 C493 1.400 . S
C493 C487 1.491 . S
C493 C492 1.400 . S
C493 C494 1.398 . S
C494 H482 0.950 . S
C494 C493 1.398 . S
C494 C495 1.391 . S
C495 H483 0.950 . S
C495 C491 1.393 . S
C495 C494 1.391 . S
H496 C504 0.950 1_455 S
H497 C509 0.950 . S
H498 C506 0.950 1_455 S
H499 C508 0.950 . S
H500 C510 0.950 . S
H501 C512 0.950 . S
H502 C514 0.950 1_455 S
H503 C515 0.950 1_455 S
C504 H496 0.950 1_655 S
C504 C505 1.386 . S
C504 C506 1.391 . S
C505 C504 1.386 . S
C505 C509 1.393 . S
C506 H498 0.950 1_655 S
C506 C504 1.391 . S
C506 C507 1.400 . S
C507 C506 1.400 . S
C507 C508 1.398 . S
C507 C513 1.491 . S
C508 H499 0.950 . S
C508 C507 1.398 . S
C508 C509 1.391 . S
C509 H497 0.950 . S
C509 C505 1.393 . S
C509 C508 1.391 . S
C510 H500 0.950 . S
C510 C511 1.386 . S
C510 C512 1.391 . S
C511 C510 1.386 . S
C511 C515 1.393 . S
C512 H501 0.950 . S
C512 C510 1.391 . S
C512 C513 1.400 . S
C513 C507 1.491 . S
C513 C512 1.400 . S
C513 C514 1.398 . S
C514 H502 0.950 1_655 S
C514 C513 1.398 . S
C514 C515 1.391 . S
C515 H503 0.950 1_655 S
C515 C511 1.393 . S
C515 C514 1.391 . S
H516 C524 0.950 . S
H517 C529 0.950 . S
H518 C526 0.950 . S
H519 C528 0.950 . S
H520 C530 0.950 . S
H521 C532 0.950 . S
H522 C534 0.950 . S
H523 C535 0.950 . S
C524 H516 0.950 . S
C524 C525 1.386 . S
C524 C526 1.391 . S
C525 C524 1.386 . S
C525 C529 1.393 . S
C526 H518 0.950 . S
C526 C524 1.391 . S
C526 C527 1.400 . S
C527 C526 1.400 . S
C527 C528 1.398 . S
C527 C533 1.491 . S
C528 H519 0.950 . S
C528 C527 1.398 . S
C528 C529 1.391 . S
C529 H517 0.950 . S
C529 C525 1.393 . S
C529 C528 1.391 . S
C530 H520 0.950 . S
C530 C531 1.386 . S
C530 C532 1.391 . S
C531 C530 1.386 . S
C531 C535 1.393 . S
C532 H521 0.950 . S
C532 C530 1.391 . S
C532 C533 1.400 . S
C533 C527 1.491 . S
C533 C532 1.400 . S
C533 C534 1.398 . S
C534 H522 0.950 . S
C534 C533 1.398 . S
C534 C535 1.391 . S
C535 H523 0.950 . S
C535 C531 1.393 . S
C535 C534 1.391 . S
H536 C544 0.950 . S
H537 C549 0.950 . S
H538 C546 0.950 . S
H539 C548 0.950 . S
H540 C550 0.950 . S
H541 C552 0.950 . S
H542 C554 0.950 . S
H543 C555 0.950 . S
C544 H536 0.950 . S
C544 C545 1.386 . S
C544 C546 1.391 . S
C545 C544 1.386 . S
C545 C549 1.393 . S
C546 H538 0.950 . S
C546 C544 1.391 . S
C546 C547 1.400 . S
C547 C546 1.400 . S
C547 C548 1.398 . S
C547 C553 1.491 . S
C548 H539 0.950 . S
C548 C547 1.398 . S
C548 C549 1.391 . S
C549 H537 0.950 . S
C549 C545 1.393 . S
C549 C548 1.391 . S
C550 H540 0.950 . S
C550 C551 1.386 . S
C550 C552 1.391 . S
C551 C550 1.386 . S
C551 C555 1.393 . S
C552 H541 0.950 . S
C552 C550 1.391 . S
C552 C553 1.400 . S
C553 C547 1.491 . S
C553 C552 1.400 . S
C553 C554 1.398 . S
C554 H542 0.950 . S
C554 C553 1.398 . S
C554 C555 1.391 . S
C555 H543 0.950 . S
C555 C551 1.393 . S
C555 C554 1.391 . S
H556 C564 0.950 . S
H557 C569 0.950 . S
H558 C566 0.950 . S
H559 C568 0.950 . S
H560 C570 0.950 . S
H561 C572 0.950 . S
H562 C574 0.950 . S
H563 C575 0.950 . S
C564 H556 0.950 . S
C564 C565 1.386 . S
C564 C566 1.391 . S
C565 C564 1.386 . S
C565 C569 1.393 . S
C566 H558 0.950 . S
C566 C564 1.391 . S
C566 C567 1.400 . S
C567 C566 1.400 . S
C567 C568 1.398 . S
C567 C573 1.491 . S
C568 H559 0.950 . S
C568 C567 1.398 . S
C568 C569 1.391 . S
C569 H557 0.950 . S
C569 C565 1.393 . S
C569 C568 1.391 . S
C570 H560 0.950 . S
C570 C571 1.386 . S
C570 C572 1.391 . S
C571 C570 1.386 . S
C571 C575 1.393 . S
C572 H561 0.950 . S
C572 C570 1.391 . S
C572 C573 1.400 . S
C573 C567 1.491 . S
C573 C572 1.400 . S
C573 C574 1.398 . S
C574 H562 0.950 . S
C574 C573 1.398 . S
C574 C575 1.391 . S
C575 H563 0.950 . S
C575 C571 1.393 . S
C575 C574 1.391 . S
H576 C584 0.950 . S
H577 C589 0.950 . S
H578 C586 0.950 . S
H579 C588 0.950 . S
H580 C590 0.950 . S
H581 C592 0.950 . S
H582 C594 0.950 . S
H583 C595 0.950 . S
C584 H576 0.950 . S
C584 C585 1.386 . S
C584 C586 1.391 . S
C585 C584 1.386 . S
C585 C589 1.393 . S
C586 H578 0.950 . S
C586 C584 1.391 . S
C586 C587 1.400 . S
C587 C586 1.400 . S
C587 C588 1.398 . S
C587 C593 1.491 . S
C588 H579 0.950 . S
C588 C587 1.398 . S
C588 C589 1.391 . S
C589 H577 0.950 . S
C589 C585 1.393 . S
C589 C588 1.391 . S
C590 H580 0.950 . S
C590 C591 1.386 . S
C590 C592 1.391 . S
C591 C590 1.386 . S
C591 C595 1.393 . S
C592 H581 0.950 . S
C592 C590 1.391 . S
C592 C593 1.400 . S
C593 C587 1.491 . S
C593 C592 1.400 . S
C593 C594 1.398 . S
C594 H582 0.950 . S
C594 C593 1.398 . S
C594 C595 1.391 . S
C595 H583 0.950 . S
C595 C591 1.393 . S
C595 C594 1.391 . S
H596 C604 0.950 . S
H597 C609 0.950 . S
H598 C606 0.950 . S
H599 C608 0.950 . S
H600 C610 0.950 . S
H601 C612 0.950 . S
H602 C614 0.950 . S
H603 C615 0.950 . S
C604 H596 0.950 . S
C604 C605 1.386 . S
C604 C606 1.391 . S
C605 C604 1.386 . S
C605 C609 1.393 . S
C606 H598 0.950 . S
C606 C604 1.391 . S
C606 C607 1.400 . S
C607 C606 1.400 . S
C607 C608 1.398 . S
C607 C613 1.491 . S
C608 H599 0.950 . S
C608 C607 1.398 . S
C608 C609 1.391 . S
C609 H597 0.950 . S
C609 C605 1.393 . S
C609 C608 1.391 . S
C610 H600 0.950 . S
C610 C611 1.386 . S
C610 C612 1.391 . S
C611 C610 1.386 . S
C611 C615 1.393 . S
C612 H601 0.950 . S
C612 C610 1.391 . S
C612 C613 1.400 . S
C613 C607 1.491 . S
C613 C612 1.400 . S
C613 C614 1.398 . S
C614 H602 0.950 . S
C614 C613 1.398 . S
C614 C615 1.391 . S
C615 H603 0.950 . S
C615 C611 1.393 . S
C615 C614 1.391 . S
H616 C624 0.950 . S
H617 C629 0.950 . S
H618 C626 0.950 . S
H619 C628 0.950 . S
H620 C630 0.950 . S
H621 C632 0.950 . S
H622 C634 0.950 . S
H623 C635 0.950 . S
C624 H616 0.950 . S
C624 C625 1.386 . S
C624 C626 1.391 . S
C625 C624 1.386 . S
C625 C629 1.393 . S
C626 H618 0.950 . S
C626 C624 1.391 . S
C626 C627 1.400 . S
C627 C626 1.400 . S
C627 C628 1.398 . S
C627 C633 1.491 . S
C628 H619 0.950 . S
C628 C627 1.398 . S
C628 C629 1.391 . S
C629 H617 0.950 . S
C629 C625 1.393 . S
C629 C628 1.391 . S
C630 H620 0.950 . S
C630 C631 1.386 . S
C630 C632 1.391 . S
C631 C630 1.386 . S
C631 C635 1.393 . S
C632 H621 0.950 . S
C632 C630 1.391 . S
C632 C633 1.400 . S
C633 C627 1.491 . S
C633 C632 1.400 . S
C633 C634 1.398 . S
C634 H622 0.950 . S
C634 C633 1.398 . S
C634 C635 1.391 . S
C635 H623 0.950 . S
C635 C631 1.393 . S
C635 C634 1.391 . S
H636 C644 0.950 . S
H637 C649 0.950 . S
H638 C646 0.950 . S
H639 C648 0.950 . S
H640 C650 0.950 . S
H641 C652 0.950 . S
H642 C654 0.950 . S
H643 C655 0.950 . S
C644 H636 0.950 . S
C644 C645 1.386 . S
C644 C646 1.391 . S
C645 C644 1.386 . S
C645 C649 1.393 . S
C646 H638 0.950 . S
C646 C644 1.391 . S
C646 C647 1.400 . S
C647 C646 1.400 . S
C647 C648 1.398 . S
C647 C653 1.491 . S
C648 H639 0.950 . S
C648 C647 1.398 . S
C648 C649 1.391 . S
C649 H637 0.950 . S
C649 C645 1.393 . S
C649 C648 1.391 . S
C650 H640 0.950 . S
C650 C651 1.386 . S
C650 C652 1.391 . S
C651 C650 1.386 . S
C651 C655 1.393 . S
C652 H641 0.950 . S
C652 C650 1.391 . S
C652 C653 1.400 . S
C653 C647 1.491 . S
C653 C652 1.400 . S
C653 C654 1.398 . S
C654 H642 0.950 . S
C654 C653 1.398 . S
C654 C655 1.391 . S
C655 H643 0.950 . S
C655 C651 1.393 . S
C655 C654 1.391 . S
H656 C664 0.950 . S
H657 C669 0.950 . S
H658 C666 0.950 . S
H659 C668 0.950 . S
H660 C670 0.950 . S
H661 C672 0.950 . S
H662 C674 0.950 . S
H663 C675 0.950 . S
C664 H656 0.950 . S
C664 C665 1.386 . S
C664 C666 1.391 . S
C665 C664 1.386 . S
C665 C669 1.393 . S
C666 H658 0.950 . S
C666 C664 1.391 . S
C666 C667 1.400 . S
C667 C666 1.400 . S
C667 C668 1.398 . S
C667 C673 1.491 . S
C668 H659 0.950 . S
C668 C667 1.398 . S
C668 C669 1.391 . S
C669 H657 0.950 . S
C669 C665 1.393 . S
C669 C668 1.391 . S
C670 H660 0.950 . S
C670 C671 1.386 . S
C670 C672 1.391 . S
C671 C670 1.386 . S
C671 C675 1.393 . S
C672 H661 0.950 . S
C672 C670 1.391 . S
C672 C673 1.400 . S
C673 C667 1.491 . S
C673 C672 1.400 . S
C673 C674 1.398 . S
C674 H662 0.950 . S
C674 C673 1.398 . S
C674 C675 1.391 . S
C675 H663 0.950 . S
C675 C671 1.393 . S
C675 C674 1.391 . S
H676 C684 0.950 . S
H677 C689 0.950 . S
H678 C686 0.950 . S
H679 C688 0.950 . S
H680 C690 0.950 . S
H681 C692 0.950 . S
H682 C694 0.950 . S
H683 C695 0.950 . S
C684 H676 0.950 . S
C684 C685 1.386 . S
C684 C686 1.391 . S
C685 C684 1.386 . S
C685 C689 1.393 . S
C686 H678 0.950 . S
C686 C684 1.391 . S
C686 C687 1.400 . S
C687 C686 1.400 . S
C687 C688 1.398 . S
C687 C693 1.491 . S
C688 H679 0.950 . S
C688 C687 1.398 . S
C688 C689 1.391 . S
C689 H677 0.950 . S
C689 C685 1.393 . S
C689 C688 1.391 . S
C690 H680 0.950 . S
C690 C691 1.386 . S
C690 C692 1.391 . S
C691 C690 1.386 . S
C691 C695 1.393 . S
C692 H681 0.950 . S
C692 C690 1.391 . S
C692 C693 1.400 . S
C693 C687 1.491 . S
C693 C692 1.400 . S
C693 C694 1.398 . S
C694 H682 0.950 . S
C694 C693 1.398 . S
C694 C695 1.391 . S
C695 H683 0.950 . S
C695 C691 1.393 . S
C695 C694 1.391 . S
H696 C704 0.950 . S
H697 C709 0.950 . S
H698 C706 0.950 . S
H699 C708 0.950 . S
H700 C710 0.950 . S
H701 C712 0.950 . S
H702 C714 0.950 . S
H703 C715 0.950 . S
C704 H696 0.950 . S
C704 C705 1.386 . S
C704 C706 1.391 . S
C705 C704 1.386 . S
C705 C709 1.393 . S
C706 H698 0.950 . S
C706 C704 1.391 . S
C706 C707 1.400 . S
C707 C706 1.400 . S
C707 C708 1.398 . S
C707 C713 1.491 . S
C708 H699 0.950 . S
C708 C707 1.398 . S
C708 C709 1.391 . S
C709 H697 0.950 . S
C709 C705 1.393 . S
C709 C708 1.391 . S
C710 H700 0.950 . S
C710 C711 1.386 . S
C710 C712 1.391 . S
C711 C710 1.386 . S
C711 C715 1.393 . S
C712 H701 0.950 . S
C712 C710 1.391 . S
C712 C713 1.400 . S
C713 C707 1.491 . S
C713 C712 1.400 . S
C713 C714 1.398 . S
C714 H702 0.950 . S
C714 C713 1.398 . S
C714 C715 1.391 . S
C715 H703 0.950 . S
C715 C711 1.393 . S
C715 C714 1.391 . S
H716 C724 0.950 . S
H717 C729 0.950 . S
H718 C726 0.950 . S
H719 C728 0.950 . S
H720 C730 0.950 . S
H721 C732 0.950 . S
H722 C734 0.950 . S
H723 C735 0.950 . S
C724 H716 0.950 . S
C724 C725 1.386 . S
C724 C726 1.391 . S
C725 C724 1.386 . S
C725 C729 1.393 . S
C726 H718 0.950 . S
C726 C724 1.391 . S
C726 C727 1.400 . S
C727 C726 1.400 . S
C727 C728 1.398 . S
C727 C733 1.491 . S
C728 H719 0.950 . S
C728 C727 1.398 . S
C728 C729 1.391 . S
C729 H717 0.950 . S
C729 C725 1.393 . S
C729 C728 1.391 . S
C730 H720 0.950 . S
C730 C731 1.386 . S
C730 C732 1.391 . S
C731 C730 1.386 . S
C731 C735 1.393 . S
C732 H721 0.950 . S
C732 C730 1.391 . S
C732 C733 1.400 . S
C733 C727 1.491 . S
C733 C732 1.400 . S
C733 C734 1.398 . S
C734 H722 0.950 . S
C734 C733 1.398 . S
C734 C735 1.391 . S
C735 H723 0.950 . S
C735 C731 1.393 . S
C735 C734 1.391 . S
H736 C744 0.950 . S
H737 C749 0.950 . S
H738 C746 0.950 . S
H739 C748 0.950 . S
H740 C750 0.950 . S
H741 C752 0.950 . S
H742 C754 0.950 . S
H743 C755 0.950 . S
C744 H736 0.950 . S
C744 C745 1.386 . S
C744 C746 1.391 . S
C745 C744 1.386 . S
C745 C749 1.393 . S
C746 H738 0.950 . S
C746 C744 1.391 . S
C746 C747 1.400 . S
C747 C746 1.400 . S
C747 C748 1.398 . S
C747 C753 1.491 . S
C748 H739 0.950 . S
C748 C747 1.398 . S
C748 C749 1.391 . S
C749 H737 0.950 . S
C749 C745 1.393 . S
C749 C748 1.391 . S
C750 H740 0.950 . S
C750 C751 1.386 . S
C750 C752 1.391 . S
C751 C750 1.386 . S
C751 C755 1.393 . S
C752 H741 0.950 . S
C752 C750 1.391 . S
C752 C753 1.400 . S
C753 C747 1.491 . S
C753 C752 1.400 . S
C753 C754 1.398 . S
C754 H742 0.950 . S
C754 C753 1.398 . S
C754 C755 1.391 . S
C755 H743 0.950 . S
C755 C751 1.393 . S
C755 C754 1.391 . S
H756 C764 0.950 . S
H757 C769 0.950 1_455 S
H758 C766 0.950 . S
H759 C768 0.950 . S
H760 C770 0.950 . S
H761 C772 0.950 . S
H762 C774 0.950 . S
H763 C775 0.950 . S
C764 H756 0.950 . S
C764 C765 1.390 . S
C764 C766 1.391 . S
C765 C764 1.390 . S
C765 C769 1.394 . S
C766 H758 0.950 . S
C766 C764 1.391 . S
C766 C767 1.400 . S
C767 C766 1.400 . S
C767 C768 1.398 . S
C767 C773 1.491 . S
C768 H759 0.950 . S
C768 C767 1.398 . S
C768 C769 1.391 . S
C769 H757 0.950 1_655 S
C769 C765 1.394 . S
C769 C768 1.391 . S
C770 H760 0.950 . S
C770 C771 1.386 . S
C770 C772 1.391 . S
C771 C770 1.386 . S
C771 C775 1.393 . S
C772 H761 0.950 . S
C772 C770 1.391 . S
C772 C773 1.400 . S
C773 C767 1.491 . S
C773 C772 1.400 . S
C773 C774 1.398 . S
C774 H762 0.950 . S
C774 C773 1.398 . S
C774 C775 1.391 . S
C775 H763 0.950 . S
C775 C771 1.393 . S
C775 C774 1.391 . S
H776 C784 0.950 . S
H777 C789 0.950 . S
H778 C786 0.950 . S
H779 C788 0.950 . S
H780 C790 0.950 . S
H781 C792 0.950 . S
H782 C794 0.950 . S
H783 C795 0.950 . S
C784 H776 0.950 . S
C784 C785 1.386 . S
C784 C786 1.391 . S
C785 C784 1.386 . S
C785 C789 1.393 . S
C786 H778 0.950 . S
C786 C784 1.391 . S
C786 C787 1.400 . S
C787 C786 1.400 . S
C787 C788 1.398 . S
C787 C793 1.491 . S
C788 H779 0.950 . S
C788 C787 1.398 . S
C788 C789 1.391 . S
C789 H777 0.950 . S
C789 C785 1.393 . S
C789 C788 1.391 . S
C790 H780 0.950 . S
C790 C791 1.386 . S
C790 C792 1.391 . S
C791 C790 1.386 . S
C791 C795 1.393 . S
C792 H781 0.950 . S
C792 C790 1.391 . S
C792 C793 1.400 . S
C793 C787 1.491 . S
C793 C792 1.400 . S
C793 C794 1.398 . S
C794 H782 0.950 . S
C794 C793 1.398 . S
C794 C795 1.391 . S
C795 H783 0.950 . S
C795 C791 1.393 . S
C795 C794 1.391 . S
H796 C804 0.950 . S
H797 C809 0.950 . S
H798 C806 0.950 . S
H799 C808 0.950 . S
H800 C810 0.950 1_455 S
H801 C812 0.950 . S
H802 C814 0.950 . S
H803 C815 0.950 . S
C804 H796 0.950 . S
C804 C805 1.386 . S
C804 C806 1.391 . S
C805 C804 1.386 . S
C805 C809 1.393 . S
C806 H798 0.950 . S
C806 C804 1.391 . S
C806 C807 1.400 . S
C807 C806 1.400 . S
C807 C808 1.398 . S
C807 C813 1.491 . S
C808 H799 0.950 . S
C808 C807 1.398 . S
C808 C809 1.391 . S
C809 H797 0.950 . S
C809 C805 1.393 . S
C809 C808 1.391 . S
C810 H800 0.950 1_655 S
C810 C811 1.387 . S
C810 C812 1.391 . S
C811 C810 1.387 . S
C811 C815 1.397 . S
C812 H801 0.950 . S
C812 C810 1.391 . S
C812 C813 1.400 . S
C813 C807 1.491 . S
C813 C812 1.400 . S
C813 C814 1.398 . S
C814 H802 0.950 . S
C814 C813 1.398 . S
C814 C815 1.391 . S
C815 H803 0.950 . S
C815 C811 1.397 . S
C815 C814 1.391 . S
H816 C824 0.950 . S
H817 C829 0.950 . S
H818 C826 0.950 . S
H819 C828 0.950 . S
H820 C830 0.950 . S
H821 C832 0.950 . S
H822 C834 0.950 . S
H823 C835 0.950 . S
C824 H816 0.950 . S
C824 C825 1.386 . S
C824 C826 1.391 . S
C825 C824 1.386 . S
C825 C829 1.393 . S
C826 H818 0.950 . S
C826 C824 1.391 . S
C826 C827 1.400 . S
C827 C826 1.400 . S
C827 C828 1.398 . S
C827 C833 1.491 . S
C828 H819 0.950 . S
C828 C827 1.398 . S
C828 C829 1.391 . S
C829 H817 0.950 . S
C829 C825 1.393 . S
C829 C828 1.391 . S
C830 H820 0.950 . S
C830 C831 1.386 . S
C830 C832 1.391 . S
C831 C830 1.386 . S
C831 C835 1.393 . S
C832 H821 0.950 . S
C832 C830 1.391 . S
C832 C833 1.400 . S
C833 C827 1.491 . S
C833 C832 1.400 . S
C833 C834 1.398 . S
C834 H822 0.950 . S
C834 C833 1.398 . S
C834 C835 1.391 . S
C835 H823 0.950 . S
C835 C831 1.393 . S
C835 C834 1.391 . S
H836 C844 0.950 . S
H837 C849 0.950 1_655 S
H838 C846 0.950 . S
H839 C848 0.950 . S
H840 C850 0.950 . S
H841 C852 0.950 . S
H842 C854 0.950 . S
H843 C855 0.950 . S
C844 H836 0.950 . S
C844 C845 1.375 1_455 S
C844 C846 1.391 . S
C845 C844 1.375 1_655 S
C845 C849 1.386 1_655 S
C846 H838 0.950 . S
C846 C844 1.391 . S
C846 C847 1.400 . S
C847 C846 1.400 . S
C847 C848 1.398 . S
C847 C853 1.491 . S
C848 H839 0.950 . S
C848 C847 1.398 . S
C848 C849 1.391 . S
C849 H837 0.950 1_455 S
C849 C845 1.386 1_455 S
C849 C848 1.391 . S
C850 H840 0.950 . S
C850 C851 1.386 . S
C850 C852 1.391 . S
C851 C850 1.386 . S
C851 C855 1.393 . S
C852 H841 0.950 . S
C852 C850 1.391 . S
C852 C853 1.400 . S
C853 C847 1.491 . S
C853 C852 1.400 . S
C853 C854 1.398 . S
C854 H842 0.950 . S
C854 C853 1.398 . S
C854 C855 1.391 . S
C855 H843 0.950 . S
C855 C851 1.393 . S
C855 C854 1.391 . S
H856 C864 0.950 . S
H857 C869 0.950 . S
H858 C866 0.950 . S
H859 C868 0.950 . S
H860 C870 0.950 . S
H861 C872 0.950 . S
H862 C874 0.950 . S
H863 C875 0.950 . S
C864 H856 0.950 . S
C864 C865 1.386 . S
C864 C866 1.391 . S
C865 C864 1.386 . S
C865 C869 1.393 . S
C866 H858 0.950 . S
C866 C864 1.391 . S
C866 C867 1.400 . S
C867 C866 1.400 . S
C867 C868 1.398 . S
C867 C873 1.491 . S
C868 H859 0.950 . S
C868 C867 1.398 . S
C868 C869 1.391 . S
C869 H857 0.950 . S
C869 C865 1.393 . S
C869 C868 1.391 . S
C870 H860 0.950 . S
C870 C871 1.386 . S
C870 C872 1.391 . S
C871 C870 1.386 . S
C871 C875 1.393 . S
C872 H861 0.950 . S
C872 C870 1.391 . S
C872 C873 1.400 . S
C873 C867 1.491 . S
C873 C872 1.400 . S
C873 C874 1.398 . S
C874 H862 0.950 . S
C874 C873 1.398 . S
C874 C875 1.391 . S
C875 H863 0.950 . S
C875 C871 1.393 . S
C875 C874 1.391 . S
H876 C884 0.950 . S
H877 C889 0.950 1_655 S
H878 C886 0.950 . S
H879 C888 0.950 . S
H880 C890 0.950 . S
H881 C892 0.950 . S
H882 C894 0.950 . S
H883 C895 0.950 . S
C884 H876 0.950 . S
C884 C885 1.385 1_455 S
C884 C886 1.391 . S
C885 C884 1.385 1_655 S
C885 C889 1.393 1_655 S
C886 H878 0.950 . S
C886 C884 1.391 . S
C886 C887 1.400 . S
C887 C886 1.400 . S
C887 C888 1.398 . S
C887 C893 1.491 . S
C888 H879 0.950 . S
C888 C887 1.398 . S
C888 C889 1.391 . S
C889 H877 0.950 1_455 S
C889 C885 1.393 1_455 S
C889 C888 1.391 . S
C890 H880 0.950 . S
C890 C891 1.386 . S
C890 C892 1.391 . S
C891 C890 1.386 . S
C891 C895 1.393 . S
C892 H881 0.950 . S
C892 C890 1.391 . S
C892 C893 1.400 . S
C893 C887 1.491 . S
C893 C892 1.400 . S
C893 C894 1.398 . S
C894 H882 0.950 . S
C894 C893 1.398 . S
C894 C895 1.391 . S
C895 H883 0.950 . S
C895 C891 1.393 . S
C895 C894 1.391 . S
H896 C904 0.950 . S
H897 C909 0.950 . S
H898 C906 0.950 . S
H899 C908 0.950 . S
H900 C910 0.950 . S
H901 C912 0.950 . S
H902 C914 0.950 . S
H903 C915 0.950 . S
C904 H896 0.950 . S
C904 C905 1.386 . S
C904 C906 1.391 . S
C905 C904 1.386 . S
C905 C909 1.393 . S
C906 H898 0.950 . S
C906 C904 1.391 . S
C906 C907 1.400 . S
C907 C906 1.400 . S
C907 C908 1.398 . S
C907 C913 1.491 . S
C908 H899 0.950 . S
C908 C907 1.398 . S
C908 C909 1.391 . S
C909 H897 0.950 . S
C909 C905 1.393 . S
C909 C908 1.391 . S
C910 H900 0.950 . S
C910 C911 1.386 . S
C910 C912 1.391 . S
C911 C910 1.386 . S
C911 C915 1.393 . S
C912 H901 0.950 . S
C912 C910 1.391 . S
C912 C913 1.400 . S
C913 C907 1.491 . S
C913 C912 1.400 . S
C913 C914 1.398 . S
C914 H902 0.950 . S
C914 C913 1.398 . S
C914 C915 1.391 . S
C915 H903 0.950 . S
C915 C911 1.393 . S
C915 C914 1.391 . S
H916 C924 0.950 . S
H917 C929 0.950 . S
H918 C926 0.950 . S
H919 C928 0.950 . S
H920 C930 0.950 . S
H921 C932 0.950 . S
H922 C934 0.950 . S
H923 C935 0.950 1_455 S
C924 H916 0.950 . S
C924 C925 1.386 . S
C924 C926 1.391 . S
C925 C924 1.386 . S
C925 C929 1.393 . S
C926 H918 0.950 . S
C926 C924 1.391 . S
C926 C927 1.400 . S
C927 C926 1.400 . S
C927 C928 1.398 . S
C927 C933 1.491 . S
C928 H919 0.950 . S
C928 C927 1.398 . S
C928 C929 1.391 . S
C929 H917 0.950 . S
C929 C925 1.393 . S
C929 C928 1.391 . S
C930 H920 0.950 . S
C930 C931 1.375 1_655 S
C930 C932 1.391 . S
C931 C930 1.375 1_455 S
C931 C935 1.389 1_455 S
C932 H921 0.950 . S
C932 C930 1.391 . S
C932 C933 1.400 . S
C933 C927 1.491 . S
C933 C932 1.400 . S
C933 C934 1.398 . S
C934 H922 0.950 . S
C934 C933 1.398 . S
C934 C935 1.391 . S
C935 H923 0.950 1_655 S
C935 C931 1.389 1_655 S
C935 C934 1.391 . S
H936 C944 0.950 . S
H937 C949 0.950 . S
H938 C946 0.950 . S
H939 C948 0.950 . S
H940 C950 0.950 . S
H941 C952 0.950 . S
H942 C954 0.950 . S
H943 C955 0.950 . S
C944 H936 0.950 . S
C944 C945 1.386 . S
C944 C946 1.391 . S
C945 C944 1.386 . S
C945 C949 1.393 . S
C946 H938 0.950 . S
C946 C944 1.391 . S
C946 C947 1.400 . S
C947 C946 1.400 . S
C947 C948 1.398 . S
C947 C953 1.491 . S
C948 H939 0.950 . S
C948 C947 1.398 . S
C948 C949 1.391 . S
C949 H937 0.950 . S
C949 C945 1.393 . S
C949 C948 1.391 . S
C950 H940 0.950 . S
C950 C951 1.386 . S
C950 C952 1.391 . S
C951 C950 1.386 . S
C951 C955 1.393 . S
C952 H941 0.950 . S
C952 C950 1.391 . S
C952 C953 1.400 . S
C953 C947 1.491 . S
C953 C952 1.400 . S
C953 C954 1.398 . S
C954 H942 0.950 . S
C954 C953 1.398 . S
C954 C955 1.391 . S
C955 H943 0.950 . S
C955 C951 1.393 . S
C955 C954 1.391 . S
H956 C964 0.950 . S
H957 C969 0.950 . S
H958 C966 0.950 . S
H959 C968 0.950 . S
H960 C970 0.950 . S
H961 C972 0.950 . S
H962 C974 0.950 . S
H963 C975 0.950 1_455 S
C964 H956 0.950 . S
C964 C965 1.386 . S
C964 C966 1.391 . S
C965 C964 1.386 . S
C965 C969 1.393 . S
C966 H958 0.950 . S
C966 C964 1.391 . S
C966 C967 1.400 . S
C967 C966 1.400 . S
C967 C968 1.398 . S
C967 C973 1.491 . S
C968 H959 0.950 . S
C968 C967 1.398 . S
C968 C969 1.391 . S
C969 H957 0.950 . S
C969 C965 1.393 . S
C969 C968 1.391 . S
C970 H960 0.950 . S
C970 C971 1.377 1_655 S
C970 C972 1.391 . S
C971 C970 1.377 1_455 S
C971 C975 1.391 1_455 S
C972 H961 0.950 . S
C972 C970 1.391 . S
C972 C973 1.400 . S
C973 C967 1.491 . S
C973 C972 1.400 . S
C973 C974 1.398 . S
C974 H962 0.950 . S
C974 C973 1.398 . S
C974 C975 1.391 . S
C975 H963 0.950 1_655 S
C975 C971 1.391 1_655 S
C975 C974 1.391 . S
H976 C984 0.950 . S
H977 C989 0.950 . S
H978 C986 0.950 . S
H979 C988 0.950 . S
H980 C990 0.950 . S
H981 C992 0.950 . S
H982 C994 0.950 . S
H983 C995 0.950 . S
C984 H976 0.950 . S
C984 C985 1.386 . S
C984 C986 1.391 . S
C985 C984 1.386 . S
C985 C989 1.393 . S
C986 H978 0.950 . S
C986 C984 1.391 . S
C986 C987 1.400 . S
C987 C986 1.400 . S
C987 C988 1.398 . S
C987 C993 1.491 . S
C988 H979 0.950 . S
C988 C987 1.398 . S
C988 C989 1.391 . S
C989 H977 0.950 . S
C989 C985 1.393 . S
C989 C988 1.391 . S
C990 H980 0.950 . S
C990 C991 1.386 . S
C990 C992 1.391 . S
C991 C990 1.386 . S
C991 C995 1.393 . S
C992 H981 0.950 . S
C992 C990 1.391 . S
C992 C993 1.400 . S
C993 C987 1.491 . S
C993 C992 1.400 . S
C993 C994 1.398 . S
C994 H982 0.950 . S
C994 C993 1.398 . S
C994 C995 1.391 . S
C995 H983 0.950 . S
C995 C991 1.393 . S
C995 C994 1.391 . S
H996 C1004 0.950 . S
H997 C1009 0.950 . S
H998 C1006 0.950 . S
H999 C1008 0.950 . S
H1000 C1010 0.950 . S
H1001 C1012 0.950 . S
H1002 C1014 0.950 . S
H1003 C1015 0.950 . S
C1004 H996 0.950 . S
C1004 C1005 1.386 . S
C1004 C1006 1.391 . S
C1005 C1004 1.386 . S
C1005 C1009 1.393 . S
C1006 H998 0.950 . S
C1006 C1004 1.391 . S
C1006 C1007 1.400 . S
C1007 C1006 1.400 . S
C1007 C1008 1.398 . S
C1007 C1013 1.491 . S
C1008 H999 0.950 . S
C1008 C1007 1.398 . S
C1008 C1009 1.391 . S
C1009 H997 0.950 . S
C1009 C1005 1.393 . S
C1009 C1008 1.391 . S
C1010 H1000 0.950 . S
C1010 C1011 1.391 . S
C1010 C1012 1.391 . S
C1011 C1010 1.391 . S
C1011 C1015 1.398 . S
C1012 H1001 0.950 . S
C1012 C1010 1.391 . S
C1012 C1013 1.400 . S
C1013 C1007 1.491 . S
C1013 C1012 1.400 . S
C1013 C1014 1.398 . S
C1014 H1002 0.950 . S
C1014 C1013 1.398 . S
C1014 C1015 1.391 . S
C1015 H1003 0.950 . S
C1015 C1011 1.398 . S
C1015 C1014 1.391 . S
H1016 C1024 0.950 . S
H1017 C1029 0.950 . S
H1018 C1026 0.950 . S
H1019 C1028 0.950 . S
H1020 C1030 0.950 . S
H1021 C1032 0.950 . S
H1022 C1034 0.950 . S
H1023 C1035 0.950 . S
C1024 H1016 0.950 . S
C1024 C1025 1.386 . S
C1024 C1026 1.391 . S
C1025 C1024 1.386 . S
C1025 C1029 1.393 . S
C1026 H1018 0.950 . S
C1026 C1024 1.391 . S
C1026 C1027 1.400 . S
C1027 C1026 1.400 . S
C1027 C1028 1.398 . S
C1027 C1033 1.491 . S
C1028 H1019 0.950 . S
C1028 C1027 1.398 . S
C1028 C1029 1.391 . S
C1029 H1017 0.950 . S
C1029 C1025 1.393 . S
C1029 C1028 1.391 . S
C1030 H1020 0.950 . S
C1030 C1031 1.386 . S
C1030 C1032 1.391 . S
C1031 C1030 1.386 . S
C1031 C1035 1.393 . S
C1032 H1021 0.950 . S
C1032 C1030 1.391 . S
C1032 C1033 1.400 . S
C1033 C1027 1.491 . S
C1033 C1032 1.400 . S
C1033 C1034 1.398 . S
C1034 H1022 0.950 . S
C1034 C1033 1.398 . S
C1034 C1035 1.391 . S
C1035 H1023 0.950 . S
C1035 C1031 1.393 . S
C1035 C1034 1.391 . S
H1036 C1044 0.950 . S
H1037 C1049 0.950 . S
H1038 C1046 0.950 . S
H1039 C1048 0.950 . S
H1040 C1050 0.950 . S
H1041 C1052 0.950 . S
H1042 C1054 0.950 . S
H1043 C1055 0.950 . S
C1044 H1036 0.950 . S
C1044 C1045 1.391 . S
C1044 C1046 1.391 . S
C1045 C1044 1.391 . S
C1045 C1049 1.399 . S
C1046 H1038 0.950 . S
C1046 C1044 1.391 . S
C1046 C1047 1.400 . S
C1047 C1046 1.400 . S
C1047 C1048 1.398 . S
C1047 C1053 1.491 . S
C1048 H1039 0.950 . S
C1048 C1047 1.398 . S
C1048 C1049 1.391 . S
C1049 H1037 0.950 . S
C1049 C1045 1.399 . S
C1049 C1048 1.391 . S
C1050 H1040 0.950 . S
C1050 C1051 1.386 . S
C1050 C1052 1.391 . S
C1051 C1050 1.386 . S
C1051 C1055 1.393 . S
C1052 H1041 0.950 . S
C1052 C1050 1.391 . S
C1052 C1053 1.400 . S
C1053 C1047 1.491 . S
C1053 C1052 1.400 . S
C1053 C1054 1.398 . S
C1054 H1042 0.950 . S
C1054 C1053 1.398 . S
C1054 C1055 1.391 . S
C1055 H1043 0.950 . S
C1055 C1051 1.393 . S
C1055 C1054 1.391 . S
H1056 C1064 0.950 . S
H1057 C1069 0.950 . S
H1058 C1066 0.950 . S
H1059 C1068 0.950 . S
H1060 C1070 0.950 . S
H1061 C1072 0.950 . S
H1062 C1074 0.950 . S
H1063 C1075 0.950 . S
C1064 H1056 0.950 . S
C1064 C1065 1.386 1_455 S
C1064 C1066 1.391 . S
C1065 C1064 1.386 1_655 S
C1065 C1069 1.393 . S
C1066 H1058 0.950 . S
C1066 C1064 1.391 . S
C1066 C1067 1.400 1_455 S
C1067 C1066 1.400 1_655 S
C1067 C1068 1.398 . S
C1067 C1073 1.491 1_655 S
C1068 H1059 0.950 . S
C1068 C1067 1.398 . S
C1068 C1069 1.391 . S
C1069 H1057 0.950 . S
C1069 C1065 1.393 . S
C1069 C1068 1.391 . S
C1070 H1060 0.950 . S
C1070 C1071 1.386 1_655 S
C1070 C1072 1.391 . S
C1071 C1070 1.386 1_455 S
C1071 C1075 1.393 . S
C1072 H1061 0.950 . S
C1072 C1070 1.391 . S
C1072 C1073 1.400 1_655 S
C1073 C1067 1.491 1_455 S
C1073 C1072 1.400 1_455 S
C1073 C1074 1.398 . S
C1074 H1062 0.950 . S
C1074 C1073 1.398 . S
C1074 C1075 1.391 . S
C1075 H1063 0.950 . S
C1075 C1071 1.393 . S
C1075 C1074 1.391 . S
H1076 C1084 0.950 . S
H1077 C1089 0.950 . S
H1078 C1086 0.945 1_545 S
H1079 C1088 0.950 . S
H1080 C1090 0.950 . S
H1081 C1092 0.946 1_565 S
H1082 C1094 0.950 . S
H1083 C1095 0.950 . S
C1084 H1076 0.950 . S
C1084 C1085 1.386 . S
C1084 C1086 1.391 . S
C1085 C1084 1.386 . S
C1085 C1089 1.393 . S
C1086 H1078 0.945 1_565 S
C1086 C1084 1.391 . S
C1086 C1087 1.400 . S
C1087 C1086 1.400 . S
C1087 C1088 1.398 . S
C1087 C1093 1.491 1_565 S
C1088 H1079 0.950 . S
C1088 C1087 1.398 . S
C1088 C1089 1.391 . S
C1089 H1077 0.950 . S
C1089 C1085 1.393 . S
C1089 C1088 1.391 . S
C1090 H1080 0.950 . S
C1090 C1091 1.386 . S
C1090 C1092 1.391 . S
C1091 C1090 1.386 . S
C1091 C1095 1.393 . S
C1092 H1081 0.946 1_545 S
C1092 C1090 1.391 . S
C1092 C1093 1.400 . S
C1093 C1087 1.491 1_545 S
C1093 C1092 1.400 . S
C1093 C1094 1.398 . S
C1094 H1082 0.950 . S
C1094 C1093 1.398 . S
C1094 C1095 1.391 . S
C1095 H1083 0.950 . S
C1095 C1091 1.393 . S
C1095 C1094 1.391 . S
H1096 C1104 0.950 . S
H1097 C1109 0.950 . S
H1098 C1106 0.946 1_556 S
H1099 C1108 0.950 . S
H1100 C1110 0.950 . S
H1101 C1112 0.946 1_554 S
H1102 C1114 0.950 . S
H1103 C1115 0.950 . S
C1104 H1096 0.950 . S
C1104 C1105 1.386 . S
C1104 C1106 1.391 . S
C1105 C1104 1.386 . S
C1105 C1109 1.393 1_655 S
C1106 H1098 0.946 1_554 S
C1106 C1104 1.391 . S
C1106 C1107 1.400 . S
C1107 C1106 1.400 . S
C1107 C1108 1.398 1_655 S
C1107 C1113 1.491 1_644 S
C1108 H1099 0.950 . S
C1108 C1107 1.398 1_455 S
C1108 C1109 1.391 . S
C1109 H1097 0.950 . S
C1109 C1105 1.393 1_455 S
C1109 C1108 1.391 . S
C1110 H1100 0.950 . S
C1110 C1111 1.386 . S
C1110 C1112 1.391 . S
C1111 C1110 1.386 . S
C1111 C1115 1.393 1_455 S
C1112 H1101 0.946 1_556 S
C1112 C1110 1.391 . S
C1112 C1113 1.400 . S
C1113 C1107 1.491 1_466 S
C1113 C1112 1.400 . S
C1113 C1114 1.398 1_455 S
C1114 H1102 0.950 . S
C1114 C1113 1.398 1_655 S
C1114 C1115 1.391 . S
C1115 H1103 0.950 . S
C1115 C1111 1.393 1_655 S
C1115 C1114 1.391 . S
H1116 C1124 0.950 . S
H1117 C1129 0.950 . S
H1118 C1126 0.950 . S
H1119 C1128 0.950 . S
H1120 C1130 0.950 . S
H1121 C1132 0.950 . S
H1122 C1134 0.950 . S
H1123 C1135 0.950 . S
C1124 H1116 0.950 . S
C1124 C1125 1.386 . S
C1124 C1126 1.391 . S
C1125 C1124 1.386 . S
C1125 C1129 1.393 . S
C1126 H1118 0.950 . S
C1126 C1124 1.391 . S
C1126 C1127 1.400 . S
C1127 C1126 1.400 . S
C1127 C1128 1.398 1_554 S
C1127 C1133 1.491 1_554 S
C1128 H1119 0.950 . S
C1128 C1127 1.398 1_556 S
C1128 C1129 1.391 1_556 S
C1129 H1117 0.950 . S
C1129 C1125 1.393 . S
C1129 C1128 1.391 1_554 S
C1130 H1120 0.950 . S
C1130 C1131 1.386 . S
C1130 C1132 1.391 . S
C1131 C1130 1.386 . S
C1131 C1135 1.393 . S
C1132 H1121 0.950 . S
C1132 C1130 1.391 . S
C1132 C1133 1.400 . S
C1133 C1127 1.491 1_556 S
C1133 C1132 1.400 . S
C1133 C1134 1.398 1_556 S
C1134 H1122 0.950 . S
C1134 C1133 1.398 1_554 S
C1134 C1135 1.391 1_554 S
C1135 H1123 0.950 . S
C1135 C1131 1.393 . S
C1135 C1134 1.391 1_556 S
H1136 C1144 0.950 . S
H1137 C1149 0.950 . S
H1138 C1146 0.950 . S
H1139 C1148 0.949 1_455 S
H1140 C1150 0.950 . S
H1141 C1152 0.950 . S
H1142 C1154 0.949 1_655 S
H1143 C1155 0.950 . S
C1144 H1136 0.950 . S
C1144 C1145 1.386 . S
C1144 C1146 1.391 . S
C1145 C1144 1.386 . S
C1145 C1149 1.393 . S
C1146 H1138 0.950 . S
C1146 C1144 1.391 . S
C1146 C1147 1.400 . S
C1147 C1146 1.400 . S
C1147 C1148 1.398 . S
C1147 C1153 1.491 1_655 S
C1148 H1139 0.949 1_655 S
C1148 C1147 1.398 . S
C1148 C1149 1.391 . S
C1149 H1137 0.950 . S
C1149 C1145 1.393 . S
C1149 C1148 1.391 . S
C1150 H1140 0.950 . S
C1150 C1151 1.386 . S
C1150 C1152 1.391 . S
C1151 C1150 1.386 . S
C1151 C1155 1.393 . S
C1152 H1141 0.950 . S
C1152 C1150 1.391 . S
C1152 C1153 1.400 . S
C1153 C1147 1.491 1_455 S
C1153 C1152 1.400 . S
C1153 C1154 1.398 . S
C1154 H1142 0.949 1_455 S
C1154 C1153 1.398 . S
C1154 C1155 1.391 . S
C1155 H1143 0.950 . S
C1155 C1151 1.393 . S
C1155 C1154 1.391 . S
H1156 C1164 0.950 . S
H1157 C1169 0.950 . S
H1158 C1166 0.950 . S
H1159 C1168 0.950 1_545 S
H1160 C1170 0.950 . S
H1161 C1172 0.950 . S
H1162 C1174 0.950 1_565 S
H1163 C1175 0.950 . S
C1164 H1156 0.950 . S
C1164 C1165 1.386 . S
C1164 C1166 1.391 . S
C1165 C1164 1.386 . S
C1165 C1169 1.393 . S
C1166 H1158 0.950 . S
C1166 C1164 1.391 . S
C1166 C1167 1.400 . S
C1167 C1166 1.400 . S
C1167 C1168 1.398 . S
C1167 C1173 1.491 1_565 S
C1168 H1159 0.950 1_565 S
C1168 C1167 1.398 . S
C1168 C1169 1.391 . S
C1169 H1157 0.950 . S
C1169 C1165 1.393 . S
C1169 C1168 1.391 . S
C1170 H1160 0.950 . S
C1170 C1171 1.386 . S
C1170 C1172 1.391 . S
C1171 C1170 1.386 . S
C1171 C1175 1.393 . S
C1172 H1161 0.950 . S
C1172 C1170 1.391 . S
C1172 C1173 1.400 . S
C1173 C1167 1.491 1_545 S
C1173 C1172 1.400 . S
C1173 C1174 1.398 . S
C1174 H1162 0.950 1_545 S
C1174 C1173 1.398 . S
C1174 C1175 1.391 . S
C1175 H1163 0.950 . S
C1175 C1171 1.393 . S
C1175 C1174 1.391 . S
H1176 C1184 0.950 . S
H1177 C1189 0.950 . S
H1178 C1186 0.956 . S
H1179 C1188 0.950 . S
H1180 C1190 0.950 . S
H1181 C1192 0.956 . S
H1182 C1194 0.950 . S
H1183 C1195 0.950 . S
C1184 H1176 0.950 . S
C1184 C1185 1.386 . S
C1184 C1186 1.387 1_556 S
C1185 C1184 1.386 . S
C1185 C1189 1.393 . S
C1186 H1178 0.956 . S
C1186 C1184 1.387 1_554 S
C1186 C1187 1.398 1_554 S
C1187 C1186 1.398 1_556 S
C1187 C1188 1.398 . S
C1187 C1193 1.491 1_556 S
C1188 H1179 0.950 . S
C1188 C1187 1.398 . S
C1188 C1189 1.391 . S
C1189 H1177 0.950 . S
C1189 C1185 1.393 . S
C1189 C1188 1.391 . S
C1190 H1180 0.950 . S
C1190 C1191 1.386 . S
C1190 C1192 1.387 1_554 S
C1191 C1190 1.386 . S
C1191 C1195 1.393 . S
C1192 H1181 0.956 . S
C1192 C1190 1.387 1_556 S
C1192 C1193 1.398 1_556 S
C1193 C1187 1.491 1_554 S
C1193 C1192 1.398 1_554 S
C1193 C1194 1.398 . S
C1194 H1182 0.950 . S
C1194 C1193 1.398 . S
C1194 C1195 1.391 . S
C1195 H1183 0.950 . S
C1195 C1191 1.393 . S
C1195 C1194 1.391 . S
H1196 C1204 0.950 . S
H1197 C1209 0.950 . S
H1198 C1206 0.950 . S
H1199 C1208 0.950 . S
H1200 C1210 0.950 . S
H1201 C1212 0.950 . S
H1202 C1214 0.950 . S
H1203 C1215 0.950 . S
C1204 H1196 0.950 . S
C1204 C1205 1.386 . S
C1204 C1206 1.391 . S
C1205 C1204 1.386 . S
C1205 C1209 1.393 . S
C1206 H1198 0.950 . S
C1206 C1204 1.391 . S
C1206 C1207 1.400 . S
C1207 C1206 1.400 . S
C1207 C1208 1.398 . S
C1207 C1213 1.491 . S
C1208 H1199 0.950 . S
C1208 C1207 1.398 . S
C1208 C1209 1.391 . S
C1209 H1197 0.950 . S
C1209 C1205 1.393 . S
C1209 C1208 1.391 . S
C1210 H1200 0.950 . S
C1210 C1211 1.386 . S
C1210 C1212 1.391 . S
C1211 C1210 1.386 . S
C1211 C1215 1.393 . S
C1212 H1201 0.950 . S
C1212 C1210 1.391 . S
C1212 C1213 1.400 . S
C1213 C1207 1.491 . S
C1213 C1212 1.400 . S
C1213 C1214 1.398 . S
C1214 H1202 0.950 . S
C1214 C1213 1.398 . S
C1214 C1215 1.391 . S
C1215 H1203 0.950 . S
C1215 C1211 1.393 . S
C1215 C1214 1.391 . S
H1216 C1224 0.950 . S
H1217 C1229 0.950 . S
H1218 C1226 0.950 . S
H1219 C1228 0.950 . S
H1220 C1230 0.950 . S
H1221 C1232 0.950 . S
H1222 C1234 0.950 . S
H1223 C1235 0.950 . S
C1224 H1216 0.950 . S
C1224 C1225 1.386 . S
C1224 C1226 1.391 . S
C1225 C1224 1.386 . S
C1225 C1229 1.393 1_455 S
C1226 H1218 0.950 . S
C1226 C1224 1.391 . S
C1226 C1227 1.400 . S
C1227 C1226 1.400 . S
C1227 C1228 1.398 1_455 S
C1227 C1233 1.491 1_455 S
C1228 H1219 0.950 . S
C1228 C1227 1.398 1_655 S
C1228 C1229 1.391 . S
C1229 H1217 0.950 . S
C1229 C1225 1.393 1_655 S
C1229 C1228 1.391 . S
C1230 H1220 0.950 . S
C1230 C1231 1.386 . S
C1230 C1232 1.391 . S
C1231 C1230 1.386 . S
C1231 C1235 1.393 1_655 S
C1232 H1221 0.950 . S
C1232 C1230 1.391 . S
C1232 C1233 1.400 . S
C1233 C1227 1.491 1_655 S
C1233 C1232 1.400 . S
C1233 C1234 1.398 1_655 S
C1234 H1222 0.950 . S
C1234 C1233 1.398 1_455 S
C1234 C1235 1.391 . S
C1235 H1223 0.950 . S
C1235 C1231 1.393 1_455 S
C1235 C1234 1.391 . S
H1236 C1244 0.950 . S
H1237 C1249 0.950 . S
H1238 C1246 0.950 . S
H1239 C1248 0.950 . S
H1240 C1250 0.950 . S
H1241 C1252 0.950 . S
H1242 C1254 0.950 . S
H1243 C1255 0.950 . S
C1244 H1236 0.950 . S
C1244 C1245 1.386 . S
C1244 C1246 1.391 . S
C1245 C1244 1.386 . S
C1245 C1249 1.393 . S
C1246 H1238 0.950 . S
C1246 C1244 1.391 . S
C1246 C1247 1.400 . S
C1247 C1246 1.400 . S
C1247 C1248 1.398 . S
C1247 C1253 1.491 . S
C1248 H1239 0.950 . S
C1248 C1247 1.398 . S
C1248 C1249 1.391 . S
C1249 H1237 0.950 . S
C1249 C1245 1.393 . S
C1249 C1248 1.391 . S
C1250 H1240 0.950 . S
C1250 C1251 1.386 . S
C1250 C1252 1.391 . S
C1251 C1250 1.386 . S
C1251 C1255 1.393 . S
C1252 H1241 0.950 . S
C1252 C1250 1.391 . S
C1252 C1253 1.400 . S
C1253 C1247 1.491 . S
C1253 C1252 1.400 . S
C1253 C1254 1.398 . S
C1254 H1242 0.950 . S
C1254 C1253 1.398 . S
C1254 C1255 1.391 . S
C1255 H1243 0.950 . S
C1255 C1251 1.393 . S
C1255 C1254 1.391 . S
H1256 C1264 0.950 . S
H1257 C1269 0.950 . S
H1258 C1266 0.950 . S
H1259 C1268 0.950 . S
H1260 C1270 0.950 . S
H1261 C1272 0.950 . S
H1262 C1274 0.950 . S
H1263 C1275 0.950 . S
C1264 H1256 0.950 . S
C1264 C1265 1.386 . S
C1264 C1266 1.391 . S
C1265 C1264 1.386 . S
C1265 C1269 1.393 . S
C1266 H1258 0.950 . S
C1266 C1264 1.391 . S
C1266 C1267 1.400 . S
C1267 C1266 1.400 . S
C1267 C1268 1.398 . S
C1267 C1273 1.491 . S
C1268 H1259 0.950 . S
C1268 C1267 1.398 . S
C1268 C1269 1.391 . S
C1269 H1257 0.950 . S
C1269 C1265 1.393 . S
C1269 C1268 1.391 . S
C1270 H1260 0.950 . S
C1270 C1271 1.386 . S
C1270 C1272 1.391 . S
C1271 C1270 1.386 . S
C1271 C1275 1.393 . S
C1272 H1261 0.950 . S
C1272 C1270 1.391 . S
C1272 C1273 1.400 . S
C1273 C1267 1.491 . S
C1273 C1272 1.400 . S
C1273 C1274 1.398 . S
C1274 H1262 0.950 . S
C1274 C1273 1.398 . S
C1274 C1275 1.391 . S
C1275 H1263 0.950 . S
C1275 C1271 1.393 . S
C1275 C1274 1.391 . S
H1276 C1284 0.950 . S
H1277 C1289 0.950 . S
H1278 C1286 0.950 . S
H1279 C1288 0.950 . S
H1280 C1290 0.950 . S
H1281 C1292 0.950 . S
H1282 C1294 0.950 . S
H1283 C1295 0.950 . S
C1284 H1276 0.950 . S
C1284 C1285 1.386 . S
C1284 C1286 1.391 . S
C1285 C1284 1.386 . S
C1285 C1289 1.393 . S
C1286 H1278 0.950 . S
C1286 C1284 1.391 . S
C1286 C1287 1.400 . S
C1287 C1286 1.400 . S
C1287 C1288 1.398 . S
C1287 C1293 1.491 . S
C1288 H1279 0.950 . S
C1288 C1287 1.398 . S
C1288 C1289 1.391 . S
C1289 H1277 0.950 . S
C1289 C1285 1.393 . S
C1289 C1288 1.391 . S
C1290 H1280 0.950 . S
C1290 C1291 1.386 . S
C1290 C1292 1.391 . S
C1291 C1290 1.386 . S
C1291 C1295 1.393 . S
C1292 H1281 0.950 . S
C1292 C1290 1.391 . S
C1292 C1293 1.400 . S
C1293 C1287 1.491 . S
C1293 C1292 1.400 . S
C1293 C1294 1.398 . S
C1294 H1282 0.950 . S
C1294 C1293 1.398 . S
C1294 C1295 1.391 . S
C1295 H1283 0.950 . S
C1295 C1291 1.393 . S
C1295 C1294 1.391 . S
H1296 C1304 0.950 . S
H1297 C1309 0.950 . S
H1298 C1306 0.950 . S
H1299 C1308 0.950 . S
H1300 C1310 0.950 . S
H1301 C1312 0.950 . S
H1302 C1314 0.950 . S
H1303 C1315 0.950 . S
C1304 H1296 0.950 . S
C1304 C1305 1.386 . S
C1304 C1306 1.391 . S
C1305 C1304 1.386 . S
C1305 C1309 1.393 . S
C1306 H1298 0.950 . S
C1306 C1304 1.391 . S
C1306 C1307 1.400 . S
C1307 C1306 1.400 . S
C1307 C1308 1.398 . S
C1307 C1313 1.491 . S
C1308 H1299 0.950 . S
C1308 C1307 1.398 . S
C1308 C1309 1.391 . S
C1309 H1297 0.950 . S
C1309 C1305 1.393 . S
C1309 C1308 1.391 . S
C1310 H1300 0.950 . S
C1310 C1311 1.386 . S
C1310 C1312 1.391 . S
C1311 C1310 1.386 . S
C1311 C1315 1.393 . S
C1312 H1301 0.950 . S
C1312 C1310 1.391 . S
C1312 C1313 1.400 . S
C1313 C1307 1.491 . S
C1313 C1312 1.400 . S
C1313 C1314 1.398 . S
C1314 H1302 0.950 . S
C1314 C1313 1.398 . S
C1314 C1315 1.391 . S
C1315 H1303 0.950 . S
C1315 C1311 1.393 . S
C1315 C1314 1.391 . S
H1316 C1324 0.950 . S
H1317 C1329 0.950 . S
H1318 C1326 0.950 . S
H1319 C1328 0.937 1_565 S
H1320 C1330 0.950 . S
H1321 C1332 0.950 . S
H1322 C1334 0.937 1_545 S
H1323 C1335 0.950 . S
C1324 H1316 0.950 . S
C1324 C1325 1.386 . S
C1324 C1326 1.391 . S
C1325 C1324 1.386 . S
C1325 C1329 1.393 . S
C1326 H1318 0.950 . S
C1326 C1324 1.391 . S
C1326 C1327 1.400 . S
C1327 C1326 1.400 . S
C1327 C1328 1.398 . S
C1327 C1333 1.491 1_545 S
C1328 H1319 0.937 1_545 S
C1328 C1327 1.398 . S
C1328 C1329 1.391 . S
C1329 H1317 0.950 . S
C1329 C1325 1.393 . S
C1329 C1328 1.391 . S
C1330 H1320 0.950 . S
C1330 C1331 1.386 . S
C1330 C1332 1.391 . S
C1331 C1330 1.386 . S
C1331 C1335 1.393 . S
C1332 H1321 0.950 . S
C1332 C1330 1.391 . S
C1332 C1333 1.400 . S
C1333 C1327 1.491 1_565 S
C1333 C1332 1.400 . S
C1333 C1334 1.398 . S
C1334 H1322 0.937 1_565 S
C1334 C1333 1.398 . S
C1334 C1335 1.391 . S
C1335 H1323 0.950 . S
C1335 C1331 1.393 . S
C1335 C1334 1.391 . S
H1336 C1344 0.950 . S
H1337 C1349 0.950 . S
H1338 C1346 0.950 . S
H1339 C1348 0.950 . S
H1340 C1350 0.950 . S
H1341 C1352 0.950 . S
H1342 C1354 0.950 . S
H1343 C1355 0.950 . S
C1344 H1336 0.950 . S
C1344 C1345 1.386 . S
C1344 C1346 1.391 . S
C1345 C1344 1.386 . S
C1345 C1349 1.393 . S
C1346 H1338 0.950 . S
C1346 C1344 1.391 . S
C1346 C1347 1.400 . S
C1347 C1346 1.400 . S
C1347 C1348 1.398 . S
C1347 C1353 1.491 . S
C1348 H1339 0.950 . S
C1348 C1347 1.398 . S
C1348 C1349 1.391 . S
C1349 H1337 0.950 . S
C1349 C1345 1.393 . S
C1349 C1348 1.391 . S
C1350 H1340 0.950 . S
C1350 C1351 1.386 . S
C1350 C1352 1.391 . S
C1351 C1350 1.386 . S
C1351 C1355 1.393 . S
C1352 H1341 0.950 . S
C1352 C1350 1.391 . S
C1352 C1353 1.400 . S
C1353 C1347 1.491 . S
C1353 C1352 1.400 . S
C1353 C1354 1.398 . S
C1354 H1342 0.950 . S
C1354 C1353 1.398 . S
C1354 C1355 1.391 . S
C1355 H1343 0.950 . S
C1355 C1351 1.393 . S
C1355 C1354 1.391 . S
H1356 C1364 0.950 . S
H1357 C1369 0.950 . S
H1358 C1366 0.950 . S
H1359 C1368 0.950 . S
H1360 C1370 0.950 . S
H1361 C1372 0.950 . S
H1362 C1374 0.950 . S
H1363 C1375 0.950 . S
C1364 H1356 0.950 . S
C1364 C1365 1.386 . S
C1364 C1366 1.391 . S
C1365 C1364 1.386 . S
C1365 C1369 1.393 . S
C1366 H1358 0.950 . S
C1366 C1364 1.391 . S
C1366 C1367 1.400 . S
C1367 C1366 1.400 . S
C1367 C1368 1.398 . S
C1367 C1373 1.491 1_556 S
C1368 H1359 0.950 . S
C1368 C1367 1.398 . S
C1368 C1369 1.391 . S
C1369 H1357 0.950 . S
C1369 C1365 1.393 . S
C1369 C1368 1.391 . S
C1370 H1360 0.950 . S
C1370 C1371 1.386 . S
C1370 C1372 1.391 . S
C1371 C1370 1.386 . S
C1371 C1375 1.393 . S
C1372 H1361 0.950 . S
C1372 C1370 1.391 . S
C1372 C1373 1.400 . S
C1373 C1367 1.491 1_554 S
C1373 C1372 1.400 . S
C1373 C1374 1.398 . S
C1374 H1362 0.950 . S
C1374 C1373 1.398 . S
C1374 C1375 1.391 . S
C1375 H1363 0.950 . S
C1375 C1371 1.393 . S
C1375 C1374 1.391 . S
H1376 C1384 0.950 . S
H1377 C1389 0.950 . S
H1378 C1386 0.950 . S
H1379 C1388 0.950 . S
H1380 C1390 0.950 . S
H1381 C1392 0.950 . S
H1382 C1394 0.950 . S
H1383 C1395 0.950 . S
C1384 H1376 0.950 . S
C1384 C1385 1.386 . S
C1384 C1386 1.391 . S
C1385 C1384 1.386 . S
C1385 C1389 1.393 . S
C1386 H1378 0.950 . S
C1386 C1384 1.391 . S
C1386 C1387 1.400 . S
C1387 C1386 1.400 . S
C1387 C1388 1.398 . S
C1387 C1393 1.491 . S
C1388 H1379 0.950 . S
C1388 C1387 1.398 . S
C1388 C1389 1.391 . S
C1389 H1377 0.950 . S
C1389 C1385 1.393 . S
C1389 C1388 1.391 . S
C1390 H1380 0.950 . S
C1390 C1391 1.386 . S
C1390 C1392 1.391 . S
C1391 C1390 1.386 . S
C1391 C1395 1.393 . S
C1392 H1381 0.950 . S
C1392 C1390 1.391 . S
C1392 C1393 1.400 . S
C1393 C1387 1.491 . S
C1393 C1392 1.400 . S
C1393 C1394 1.398 . S
C1394 H1382 0.950 . S
C1394 C1393 1.398 . S
C1394 C1395 1.391 . S
C1395 H1383 0.950 . S
C1395 C1391 1.393 . S
C1395 C1394 1.391 . S
H1396 C1404 0.950 . S
H1397 C1409 0.950 . S
H1398 C1406 0.950 . S
H1399 C1408 0.950 . S
H1400 C1410 0.950 . S
H1401 C1412 0.950 . S
H1402 C1414 0.950 . S
H1403 C1415 0.950 . S
C1404 H1396 0.950 . S
C1404 C1405 1.386 . S
C1404 C1406 1.391 . S
C1405 C1404 1.386 . S
C1405 C1409 1.393 . S
C1406 H1398 0.950 . S
C1406 C1404 1.391 . S
C1406 C1407 1.400 . S
C1407 C1406 1.400 . S
C1407 C1408 1.398 . S
C1407 C1413 1.491 . S
C1408 H1399 0.950 . S
C1408 C1407 1.398 . S
C1408 C1409 1.391 . S
C1409 H1397 0.950 . S
C1409 C1405 1.393 . S
C1409 C1408 1.391 . S
C1410 H1400 0.950 . S
C1410 C1411 1.386 . S
C1410 C1412 1.391 . S
C1411 C1410 1.386 . S
C1411 C1415 1.393 . S
C1412 H1401 0.950 . S
C1412 C1410 1.391 . S
C1412 C1413 1.400 . S
C1413 C1407 1.491 . S
C1413 C1412 1.400 . S
C1413 C1414 1.398 . S
C1414 H1402 0.950 . S
C1414 C1413 1.398 . S
C1414 C1415 1.391 . S
C1415 H1403 0.950 . S
C1415 C1411 1.393 . S
C1415 C1414 1.391 . S
H1416 C1424 0.950 . S
H1417 C1429 0.950 . S
H1418 C1426 0.950 . S
H1419 C1428 0.950 . S
H1420 C1430 0.950 . S
H1421 C1432 0.950 . S
H1422 C1434 0.950 . S
H1423 C1435 0.950 . S
C1424 H1416 0.950 . S
C1424 C1425 1.386 . S
C1424 C1426 1.391 . S
C1425 C1424 1.386 . S
C1425 C1429 1.393 . S
C1426 H1418 0.950 . S
C1426 C1424 1.391 . S
C1426 C1427 1.400 . S
C1427 C1426 1.400 . S
C1427 C1428 1.398 . S
C1427 C1433 1.491 . S
C1428 H1419 0.950 . S
C1428 C1427 1.398 . S
C1428 C1429 1.391 . S
C1429 H1417 0.950 . S
C1429 C1425 1.393 . S
C1429 C1428 1.391 . S
C1430 H1420 0.950 . S
C1430 C1431 1.386 . S
C1430 C1432 1.391 . S
C1431 C1430 1.386 . S
C1431 C1435 1.393 . S
C1432 H1421 0.950 . S
C1432 C1430 1.391 . S
C1432 C1433 1.400 . S
C1433 C1427 1.491 . S
C1433 C1432 1.400 . S
C1433 C1434 1.398 . S
C1434 H1422 0.950 . S
C1434 C1433 1.398 . S
C1434 C1435 1.391 . S
C1435 H1423 0.950 . S
C1435 C1431 1.393 . S
C1435 C1434 1.391 . S
H1436 C1444 0.950 . S
H1437 C1449 0.950 . S
H1438 C1446 0.950 . S
H1439 C1448 0.950 . S
H1440 C1450 0.950 . S
H1441 C1452 0.950 . S
H1442 C1454 0.950 . S
H1443 C1455 0.950 . S
C1444 H1436 0.950 . S
C1444 C1445 1.386 . S
C1444 C1446 1.391 . S
C1445 C1444 1.386 . S
C1445 C1449 1.393 . S
C1446 H1438 0.950 . S
C1446 C1444 1.391 . S
C1446 C1447 1.400 . S
C1447 C1446 1.400 . S
C1447 C1448 1.398 . S
C1447 C1453 1.491 . S
C1448 H1439 0.950 . S
C1448 C1447 1.398 . S
C1448 C1449 1.391 . S
C1449 H1437 0.950 . S
C1449 C1445 1.393 . S
C1449 C1448 1.391 . S
C1450 H1440 0.950 . S
C1450 C1451 1.386 . S
C1450 C1452 1.391 . S
C1451 C1450 1.386 . S
C1451 C1455 1.393 . S
C1452 H1441 0.950 . S
C1452 C1450 1.391 . S
C1452 C1453 1.400 . S
C1453 C1447 1.491 . S
C1453 C1452 1.400 . S
C1453 C1454 1.398 . S
C1454 H1442 0.950 . S
C1454 C1453 1.398 . S
C1454 C1455 1.391 . S
C1455 H1443 0.950 . S
C1455 C1451 1.393 . S
C1455 C1454 1.391 . S
H1456 C1464 0.950 . S
H1457 C1469 0.950 . S
H1458 C1466 0.950 . S
H1459 C1468 0.950 . S
H1460 C1470 0.950 . S
H1461 C1472 0.950 . S
H1462 C1474 0.950 . S
H1463 C1475 0.950 . S
C1464 H1456 0.950 . S
C1464 C1465 1.386 . S
C1464 C1466 1.391 . S
C1465 C1464 1.386 . S
C1465 C1469 1.393 . S
C1466 H1458 0.950 . S
C1466 C1464 1.391 . S
C1466 C1467 1.400 . S
C1467 C1466 1.400 . S
C1467 C1468 1.398 . S
C1467 C1473 1.491 . S
C1468 H1459 0.950 . S
C1468 C1467 1.398 . S
C1468 C1469 1.391 . S
C1469 H1457 0.950 . S
C1469 C1465 1.393 . S
C1469 C1468 1.391 . S
C1470 H1460 0.950 . S
C1470 C1471 1.386 . S
C1470 C1472 1.391 . S
C1471 C1470 1.386 . S
C1471 C1475 1.393 . S
C1472 H1461 0.950 . S
C1472 C1470 1.391 . S
C1472 C1473 1.400 . S
C1473 C1467 1.491 . S
C1473 C1472 1.400 . S
C1473 C1474 1.398 . S
C1474 H1462 0.950 . S
C1474 C1473 1.398 . S
C1474 C1475 1.391 . S
C1475 H1463 0.950 . S
C1475 C1471 1.393 . S
C1475 C1474 1.391 . S
H1476 C1484 0.950 . S
H1477 C1489 0.950 . S
H1478 C1486 0.950 . S
H1479 C1488 0.950 . S
H1480 C1490 0.950 . S
H1481 C1492 0.950 . S
H1482 C1494 0.950 . S
H1483 C1495 0.950 . S
C1484 H1476 0.950 . S
C1484 C1485 1.386 . S
C1484 C1486 1.391 . S
C1485 C1484 1.386 . S
C1485 C1489 1.393 . S
C1486 H1478 0.950 . S
C1486 C1484 1.391 . S
C1486 C1487 1.400 . S
C1487 C1486 1.400 . S
C1487 C1488 1.398 . S
C1487 C1493 1.491 . S
C1488 H1479 0.950 . S
C1488 C1487 1.398 . S
C1488 C1489 1.391 . S
C1489 H1477 0.950 . S
C1489 C1485 1.393 . S
C1489 C1488 1.391 . S
C1490 H1480 0.950 . S
C1490 C1491 1.386 . S
C1490 C1492 1.391 . S
C1491 C1490 1.386 . S
C1491 C1495 1.393 . S
C1492 H1481 0.950 . S
C1492 C1490 1.391 . S
C1492 C1493 1.400 . S
C1493 C1487 1.491 . S
C1493 C1492 1.400 . S
C1493 C1494 1.398 . S
C1494 H1482 0.950 . S
C1494 C1493 1.398 . S
C1494 C1495 1.391 . S
C1495 H1483 0.950 . S
C1495 C1491 1.393 . S
C1495 C1494 1.391 . S
H1496 C1504 0.950 . S
H1497 C1509 0.950 . S
H1498 C1506 0.950 . S
H1499 C1508 0.950 . S
H1500 C1510 0.950 . S
H1501 C1512 0.950 . S
H1502 C1514 0.950 . S
H1503 C1515 0.950 . S
C1504 H1496 0.950 . S
C1504 C1505 1.386 . S
C1504 C1506 1.391 . S
C1505 C1504 1.386 . S
C1505 C1509 1.393 . S
C1506 H1498 0.950 . S
C1506 C1504 1.391 . S
C1506 C1507 1.400 . S
C1507 C1506 1.400 . S
C1507 C1508 1.398 . S
C1507 C1513 1.491 . S
C1508 H1499 0.950 . S
C1508 C1507 1.398 . S
C1508 C1509 1.391 . S
C1509 H1497 0.950 . S
C1509 C1505 1.393 . S
C1509 C1508 1.391 . S
C1510 H1500 0.950 . S
C1510 C1511 1.386 . S
C1510 C1512 1.391 . S
C1511 C1510 1.386 . S
C1511 C1515 1.393 . S
C1512 H1501 0.950 . S
C1512 C1510 1.391 . S
C1512 C1513 1.400 . S
C1513 C1507 1.491 . S
C1513 C1512 1.400 . S
C1513 C1514 1.398 . S
C1514 H1502 0.950 . S
C1514 C1513 1.398 . S
C1514 C1515 1.391 . S
C1515 H1503 0.950 . S
C1515 C1511 1.393 . S
C1515 C1514 1.391 . S
H1516 C1524 0.950 . S
H1517 C1529 0.950 . S
H1518 C1526 0.950 . S
H1519 C1528 0.950 . S
H1520 C1530 0.950 . S
H1521 C1532 0.950 . S
H1522 C1534 0.950 . S
H1523 C1535 0.950 . S
C1524 H1516 0.950 . S
C1524 C1525 1.386 . S
C1524 C1526 1.391 . S
C1525 C1524 1.386 . S
C1525 C1529 1.393 . S
C1526 H1518 0.950 . S
C1526 C1524 1.391 . S
C1526 C1527 1.400 . S
C1527 C1526 1.400 . S
C1527 C1528 1.398 . S
C1527 C1533 1.491 . S
C1528 H1519 0.950 . S
C1528 C1527 1.398 . S
C1528 C1529 1.391 . S
C1529 H1517 0.950 . S
C1529 C1525 1.393 . S
C1529 C1528 1.391 . S
C1530 H1520 0.950 . S
C1530 C1531 1.386 . S
C1530 C1532 1.391 . S
C1531 C1530 1.386 . S
C1531 C1535 1.393 . S
C1532 H1521 0.950 . S
C1532 C1530 1.391 . S
C1532 C1533 1.400 . S
C1533 C1527 1.491 . S
C1533 C1532 1.400 . S
C1533 C1534 1.398 . S
C1534 H1522 0.950 . S
C1534 C1533 1.398 . S
C1534 C1535 1.391 . S
C1535 H1523 0.950 . S
C1535 C1531 1.393 . S
C1535 C1534 1.391 . S
H1536 C1544 0.950 . S
H1537 C1549 0.950 . S
H1538 C1546 0.950 . S
H1539 C1548 0.950 . S
H1540 C1550 0.950 . S
H1541 C1552 0.950 . S
H1542 C1554 0.950 . S
H1543 C1555 0.950 . S
C1544 H1536 0.950 . S
C1544 C1545 1.386 . S
C1544 C1546 1.391 . S
C1545 C1544 1.386 . S
C1545 C1549 1.393 . S
C1546 H1538 0.950 . S
C1546 C1544 1.391 . S
C1546 C1547 1.400 . S
C1547 C1546 1.400 . S
C1547 C1548 1.398 . S
C1547 C1553 1.491 . S
C1548 H1539 0.950 . S
C1548 C1547 1.398 . S
C1548 C1549 1.391 . S
C1549 H1537 0.950 . S
C1549 C1545 1.393 . S
C1549 C1548 1.391 . S
C1550 H1540 0.950 . S
C1550 C1551 1.386 . S
C1550 C1552 1.391 . S
C1551 C1550 1.386 . S
C1551 C1555 1.393 . S
C1552 H1541 0.950 . S
C1552 C1550 1.391 . S
C1552 C1553 1.400 . S
C1553 C1547 1.491 . S
C1553 C1552 1.400 . S
C1553 C1554 1.398 . S
C1554 H1542 0.950 . S
C1554 C1553 1.398 . S
C1554 C1555 1.391 . S
C1555 H1543 0.950 . S
C1555 C1551 1.393 . S
C1555 C1554 1.391 . S
H1556 C1564 0.950 . S
H1557 C1569 0.950 . S
H1558 C1566 0.950 . S
H1559 C1568 0.950 . S
H1560 C1570 0.950 . S
H1561 C1572 0.950 . S
H1562 C1574 0.950 . S
H1563 C1575 0.950 . S
C1564 H1556 0.950 . S
C1564 C1565 1.386 . S
C1564 C1566 1.391 . S
C1565 C1564 1.386 . S
C1565 C1569 1.393 . S
C1566 H1558 0.950 . S
C1566 C1564 1.391 . S
C1566 C1567 1.400 . S
C1567 C1566 1.400 . S
C1567 C1568 1.398 . S
C1567 C1573 1.491 . S
C1568 H1559 0.950 . S
C1568 C1567 1.398 . S
C1568 C1569 1.391 . S
C1569 H1557 0.950 . S
C1569 C1565 1.393 . S
C1569 C1568 1.391 . S
C1570 H1560 0.950 . S
C1570 C1571 1.386 . S
C1570 C1572 1.391 . S
C1571 C1570 1.386 . S
C1571 C1575 1.393 . S
C1572 H1561 0.950 . S
C1572 C1570 1.391 . S
C1572 C1573 1.400 . S
C1573 C1567 1.491 . S
C1573 C1572 1.400 . S
C1573 C1574 1.398 . S
C1574 H1562 0.950 . S
C1574 C1573 1.398 . S
C1574 C1575 1.391 . S
C1575 H1563 0.950 . S
C1575 C1571 1.393 . S
C1575 C1574 1.391 . S
H1576 C1584 0.950 . S
H1577 C1589 0.950 . S
H1578 C1586 0.950 . S
H1579 C1588 0.950 . S
H1580 C1590 0.950 . S
H1581 C1592 0.950 . S
H1582 C1594 0.950 . S
H1583 C1595 0.950 . S
C1584 H1576 0.950 . S
C1584 C1585 1.386 . S
C1584 C1586 1.391 . S
C1585 C1584 1.386 . S
C1585 C1589 1.393 . S
C1586 H1578 0.950 . S
C1586 C1584 1.391 . S
C1586 C1587 1.400 . S
C1587 C1586 1.400 . S
C1587 C1588 1.398 . S
C1587 C1593 1.491 . S
C1588 H1579 0.950 . S
C1588 C1587 1.398 . S
C1588 C1589 1.391 . S
C1589 H1577 0.950 . S
C1589 C1585 1.393 . S
C1589 C1588 1.391 . S
C1590 H1580 0.950 . S
C1590 C1591 1.386 . S
C1590 C1592 1.391 . S
C1591 C1590 1.386 . S
C1591 C1595 1.393 . S
C1592 H1581 0.950 . S
C1592 C1590 1.391 . S
C1592 C1593 1.400 . S
C1593 C1587 1.491 . S
C1593 C1592 1.400 . S
C1593 C1594 1.398 . S
C1594 H1582 0.950 . S
C1594 C1593 1.398 . S
C1594 C1595 1.391 . S
C1595 H1583 0.950 . S
C1595 C1591 1.393 . S
C1595 C1594 1.391 . S
H1596 C1604 0.950 . S
H1597 C1609 0.950 . S
H1598 C1606 0.950 . S
H1599 C1608 0.950 . S
H1600 C1610 0.950 . S
H1601 C1612 0.950 . S
H1602 C1614 0.950 . S
H1603 C1615 0.950 . S
C1604 H1596 0.950 . S
C1604 C1605 1.386 . S
C1604 C1606 1.391 . S
C1605 C1604 1.386 . S
C1605 C1609 1.393 . S
C1606 H1598 0.950 . S
C1606 C1604 1.391 . S
C1606 C1607 1.400 . S
C1607 C1606 1.400 . S
C1607 C1608 1.398 . S
C1607 C1613 1.491 . S
C1608 H1599 0.950 . S
C1608 C1607 1.398 . S
C1608 C1609 1.391 . S
C1609 H1597 0.950 . S
C1609 C1605 1.393 . S
C1609 C1608 1.391 . S
C1610 H1600 0.950 . S
C1610 C1611 1.386 . S
C1610 C1612 1.391 . S
C1611 C1610 1.386 . S
C1611 C1615 1.393 . S
C1612 H1601 0.950 . S
C1612 C1610 1.391 . S
C1612 C1613 1.400 . S
C1613 C1607 1.491 . S
C1613 C1612 1.400 . S
C1613 C1614 1.398 . S
C1614 H1602 0.950 . S
C1614 C1613 1.398 . S
C1614 C1615 1.391 . S
C1615 H1603 0.950 . S
C1615 C1611 1.393 . S
C1615 C1614 1.391 . S
H1616 C1624 0.950 . S
H1617 C1629 0.950 . S
H1618 C1626 0.950 . S
H1619 C1628 0.950 . S
H1620 C1630 0.950 . S
H1621 C1632 0.950 . S
H1622 C1634 0.950 . S
H1623 C1635 0.950 . S
C1624 H1616 0.950 . S
C1624 C1625 1.386 . S
C1624 C1626 1.391 . S
C1625 C1624 1.386 . S
C1625 C1629 1.393 . S
C1626 H1618 0.950 . S
C1626 C1624 1.391 . S
C1626 C1627 1.400 . S
C1627 C1626 1.400 . S
C1627 C1628 1.398 . S
C1627 C1633 1.491 . S
C1628 H1619 0.950 . S
C1628 C1627 1.398 . S
C1628 C1629 1.391 . S
C1629 H1617 0.950 . S
C1629 C1625 1.393 . S
C1629 C1628 1.391 . S
C1630 H1620 0.950 . S
C1630 C1631 1.386 . S
C1630 C1632 1.391 . S
C1631 C1630 1.386 . S
C1631 C1635 1.393 . S
C1632 H1621 0.950 . S
C1632 C1630 1.391 . S
C1632 C1633 1.400 . S
C1633 C1627 1.491 . S
C1633 C1632 1.400 . S
C1633 C1634 1.398 . S
C1634 H1622 0.950 . S
C1634 C1633 1.398 . S
C1634 C1635 1.391 . S
C1635 H1623 0.950 . S
C1635 C1631 1.393 . S
C1635 C1634 1.391 . S
H1636 C1644 0.950 . S
H1637 C1649 0.950 . S
H1638 C1646 0.950 . S
H1639 C1648 0.950 . S
H1640 C1650 0.950 . S
H1641 C1652 0.950 . S
H1642 C1654 0.950 . S
H1643 C1655 0.950 . S
C1644 H1636 0.950 . S
C1644 C1645 1.386 . S
C1644 C1646 1.391 . S
C1645 C1644 1.386 . S
C1645 C1649 1.393 . S
C1646 H1638 0.950 . S
C1646 C1644 1.391 . S
C1646 C1647 1.400 . S
C1647 C1646 1.400 . S
C1647 C1648 1.398 . S
C1647 C1653 1.491 . S
C1648 H1639 0.950 . S
C1648 C1647 1.398 . S
C1648 C1649 1.391 . S
C1649 H1637 0.950 . S
C1649 C1645 1.393 . S
C1649 C1648 1.391 . S
C1650 H1640 0.950 . S
C1650 C1651 1.386 . S
C1650 C1652 1.391 . S
C1651 C1650 1.386 . S
C1651 C1655 1.393 . S
C1652 H1641 0.950 . S
C1652 C1650 1.391 . S
C1652 C1653 1.400 . S
C1653 C1647 1.491 . S
C1653 C1652 1.400 . S
C1653 C1654 1.398 . S
C1654 H1642 0.950 . S
C1654 C1653 1.398 . S
C1654 C1655 1.391 . S
C1655 H1643 0.950 . S
C1655 C1651 1.393 . S
C1655 C1654 1.391 . S
H1656 C1664 0.950 . S
H1657 C1669 0.950 . S
H1658 C1666 0.950 . S
H1659 C1668 0.950 . S
H1660 C1670 0.950 . S
H1661 C1672 0.950 . S
H1662 C1674 0.950 . S
H1663 C1675 0.950 . S
C1664 H1656 0.950 . S
C1664 C1665 1.386 . S
C1664 C1666 1.391 . S
C1665 C1664 1.386 . S
C1665 C1669 1.393 . S
C1666 H1658 0.950 . S
C1666 C1664 1.391 . S
C1666 C1667 1.400 . S
C1667 C1666 1.400 . S
C1667 C1668 1.398 . S
C1667 C1673 1.491 . S
C1668 H1659 0.950 . S
C1668 C1667 1.398 . S
C1668 C1669 1.391 . S
C1669 H1657 0.950 . S
C1669 C1665 1.393 . S
C1669 C1668 1.391 . S
C1670 H1660 0.950 . S
C1670 C1671 1.386 . S
C1670 C1672 1.391 . S
C1671 C1670 1.386 . S
C1671 C1675 1.393 . S
C1672 H1661 0.950 . S
C1672 C1670 1.391 . S
C1672 C1673 1.400 . S
C1673 C1667 1.491 . S
C1673 C1672 1.400 . S
C1673 C1674 1.398 . S
C1674 H1662 0.950 . S
C1674 C1673 1.398 . S
C1674 C1675 1.391 . S
C1675 H1663 0.950 . S
C1675 C1671 1.393 . S
C1675 C1674 1.391 . S
H1676 C1684 0.950 . S
H1677 C1689 0.950 . S
H1678 C1686 0.950 . S
H1679 C1688 0.950 . S
H1680 C1690 0.950 . S
H1681 C1692 0.950 . S
H1682 C1694 0.950 . S
H1683 C1695 0.950 . S
C1684 H1676 0.950 . S
C1684 C1685 1.386 . S
C1684 C1686 1.391 . S
C1685 C1684 1.386 . S
C1685 C1689 1.393 . S
C1686 H1678 0.950 . S
C1686 C1684 1.391 . S
C1686 C1687 1.400 . S
C1687 C1686 1.400 . S
C1687 C1688 1.398 . S
C1687 C1693 1.491 . S
C1688 H1679 0.950 . S
C1688 C1687 1.398 . S
C1688 C1689 1.391 . S
C1689 H1677 0.950 . S
C1689 C1685 1.393 . S
C1689 C1688 1.391 . S
C1690 H1680 0.950 . S
C1690 C1691 1.386 . S
C1690 C1692 1.391 . S
C1691 C1690 1.386 . S
C1691 C1695 1.393 . S
C1692 H1681 0.950 . S
C1692 C1690 1.391 . S
C1692 C1693 1.400 . S
C1693 C1687 1.491 . S
C1693 C1692 1.400 . S
C1693 C1694 1.398 . S
C1694 H1682 0.950 . S
C1694 C1693 1.398 . S
C1694 C1695 1.391 . S
C1695 H1683 0.950 . S
C1695 C1691 1.393 . S
C1695 C1694 1.391 . S
C425 C135 1.000 . S
C431 C5 1.042 . S
C445 C18 1.014 . S
C451 C148 1.038 . S
C465 C31 1.023 . S
C471 C109 1.030 . S
C485 C122 1.001 . S
C491 C44 1.041 . S
C505 C187 1.017 . S
C511 C57 1.021 . S
C525 C70 1.002 . S
C531 C200 1.038 . S
C545 C161 0.999 . S
C551 C83 1.043 . S
C565 C174 1.013 . S
C571 C96 1.025 . S
C585 C343 1.042 . S
C591 C213 1.009 . S
C605 C356 1.046 . S
C611 C226 1.001 . S
C625 C317 1.041 . S
C631 C239 1.010 . S
C645 C252 1.011 . S
C651 C330 1.040 . S
C665 C395 1.005 . S
C671 C265 1.034 . S
C685 C408 1.032 . S
C691 C278 1.021 . S
C705 C291 1.005 . S
C711 C369 1.034 . S
C725 C304 1.026 . S
C731 C382 1.027 . S
C745 C257 1.537 . S
C751 C10 1.545 . S
C765 C23 1.527 1_655 S
C771 C244 1.538 . S
C785 C231 1.531 . S
C791 C36 1.536 . S
C805 C218 1.538 . S
C811 C49 1.527 1_655 S
C825 C62 1.532 . S
C831 C309 1.533 . S
C845 C75 1.563 . S
C851 C296 1.545 . S
C865 C283 1.542 . S
C871 C88 1.534 . S
C885 C101 1.544 . S
C891 C270 1.535 . S
C905 C361 1.545 . S
C911 C114 1.537 . S
C925 C348 1.542 . S
C931 C127 1.560 . S
C945 C335 1.545 . S
C951 C140 1.547 . S
C965 C322 1.540 . S
C971 C153 1.556 . S
C985 C166 1.547 . S
C991 C413 1.540 . S
C1005 C400 1.533 . S
C1011 C179 1.522 1_455 S
C1025 C192 1.531 . S
C1031 C387 1.536 . S
C1045 C205 1.522 1_455 S
C1051 C374 1.532 . S
C1065 C156 1.303 . S
C1071 C0 1.303 . S
C1085 C13 1.320 . S
C1091 C273 1.320 . S
C1105 C78 1.302 . S
C1111 C26 1.302 . S
C1125 C403 1.291 . S
C1131 C39 1.291 . S
C1145 C52 1.322 . S
C1151 C104 1.322 . S
C1165 C221 1.286 . S
C1171 C65 1.286 . S
C1185 C351 1.283 . S
C1191 C91 1.283 . S
C1205 C377 1.287 . S
C1211 C117 1.287 . S
C1225 C130 1.319 . S
C1231 C182 1.319 . S
C1245 C299 1.323 . S
C1251 C143 1.323 . S
C1265 C325 1.301 . S
C1271 C169 1.301 . S
C1285 C195 1.322 . S
C1291 C247 1.322 . S
C1305 C208 1.287 . S
C1311 C364 1.287 . S
C1325 C286 1.317 . S
C1331 C234 1.317 . S
C1345 C312 1.302 . S
C1351 C260 1.302 . S
C1365 C338 1.290 . S
C1371 C390 1.290 . S
C1385 C8 0.753 . S
C1391 C47 0.761 . S
C1405 C34 0.763 . S
C1411 C21 0.751 . S
C1425 C60 0.751 . S
C1431 C99 0.763 . S
C1445 C73 0.764 . S
C1451 C86 0.745 . S
C1465 C112 0.766 . S
C1471 C151 0.746 . S
C1485 C125 0.759 . S
C1491 C138 0.755 . S
C1505 C164 0.745 . S
C1511 C203 0.764 . S
C1525 C190 0.761 . S
C1531 C177 0.746 . S
C1545 C255 0.748 . S
C1551 C216 0.757 . S
C1565 C242 0.762 . S
C1571 C229 0.752 . S
C1585 C307 0.750 . S
C1591 C268 0.764 . S
C1605 C294 0.765 . S
C1611 C281 0.745 . S
C1625 C359 0.747 . S
C1631 C320 0.759 . S
C1645 C346 0.755 . S
C1651 C333 0.760 . S
C1665 C372 0.766 . S
C1671 C411 0.745 . S
C1685 C398 0.765 . S
C1691 C385 0.745 . S
