# Generated by pormake.
# Topology rkf, (6)-cn, num edge types: 1
# Building blocks:
#     Node 0, Type 0, BuildingBlock: MIFKUJ_clean_sbu_0, # of connection points: 6
#     Node 1, Type 0, BuildingBlock: MIFKUJ_clean_sbu_0, # of connection points: 6
#     Node 2, Type 0, BuildingBlock: MIFKUJ_clean_sbu_0, # of connection points: 6
#     Node 3, Type 0, BuildingBlock: MIFKUJ_clean_sbu_0, # of connection points: 6
#     Node 4, Type 0, BuildingBlock: MIFKUJ_clean_sbu_0, # of connection points: 6
#     Node 5, Type 0, BuildingBlock: MIFKUJ_clean_sbu_0, # of connection points: 6
#     Edge 6, Type (0, 0), BuildingBlock: FUNLAD_clean_linker_0, # of connection points: 2
#     Edge 7, Type (0, 0), BuildingBlock: FUNLAD_clean_linker_0, # of connection points: 2
#     Edge 8, Type (0, 0), BuildingBlock: FUNLAD_clean_linker_0, # of connection points: 2
#     Edge 9, Type (0, 0), BuildingBlock: FUNLAD_clean_linker_0, # of connection points: 2
#     Edge 10, Type (0, 0), BuildingBlock: FUNLAD_clean_linker_0, # of connection points: 2
#     Edge 11, Type (0, 0), BuildingBlock: FUNLAD_clean_linker_0, # of connection points: 2
#     Edge 12, Type (0, 0), BuildingBlock: FUNLAD_clean_linker_0, # of connection points: 2
#     Edge 13, Type (0, 0), BuildingBlock: FUNLAD_clean_linker_0, # of connection points: 2
#     Edge 14, Type (0, 0), BuildingBlock: FUNLAD_clean_linker_0, # of connection points: 2
#     Edge 15, Type (0, 0), BuildingBlock: FUNLAD_clean_linker_0, # of connection points: 2
#     Edge 16, Type (0, 0), BuildingBlock: FUNLAD_clean_linker_0, # of connection points: 2
#     Edge 17, Type (0, 0), BuildingBlock: FUNLAD_clean_linker_0, # of connection points: 2
#     Edge 18, Type (0, 0), BuildingBlock: FUNLAD_clean_linker_0, # of connection points: 2
#     Edge 19, Type (0, 0), BuildingBlock: FUNLAD_clean_linker_0, # of connection points: 2
#     Edge 20, Type (0, 0), BuildingBlock: FUNLAD_clean_linker_0, # of connection points: 2
#     Edge 21, Type (0, 0), BuildingBlock: FUNLAD_clean_linker_0, # of connection points: 2
#     Edge 22, Type (0, 0), BuildingBlock: FUNLAD_clean_linker_0, # of connection points: 2
#     Edge 23, Type (0, 0), BuildingBlock: FUNLAD_clean_linker_0, # of connection points: 2
# Relax obj value: 0.350
# Max RMSD: 0.299
# Mean RMSD: 0.299
data_MOF--net-rkf--node1-MIFKUJ_clean_sbu_0--edge1-FUNLAD_clean_linker_0
_symmetry_space_group_name_H-M    P1
_symmetry_Int_Tables_number       1
_symmetry_cell_setting            triclinic
loop_
_symmetry_equiv_pos_as_xyz
'x, y, z'
_cell_length_a     26.496283
_cell_length_b     26.530777
_cell_length_c     52.675791
_cell_angle_alpha  90.198285
_cell_angle_beta   90.046542
_cell_angle_gamma 119.66197
loop_
_atom_site_label
_atom_site_type_symbol
_atom_site_fract_x
_atom_site_fract_y
_atom_site_fract_z
_atom_type_partial_charge
Zn0 Zn 0.21913 -0.00254 0.97553 0.0
Zn1 Zn 0.27739 0.01326 0.0446 0.0
C2 C 0.12348 0.87982 0.97524 0.0
O3 O 0.07951 0.83317 0.98485 0.0
C4 C 0.32777 0.07186 0.08916 0.0
O5 O 0.27658 0.06835 0.08853 0.0
O6 O 0.19269 0.01641 0.94265 0.0
O7 O 0.23266 0.065 0.99814 0.0
O8 O 0.25632 0.07462 0.03912 0.0
C9 C 0.2295 0.04827 0.92609 0.0
O10 O 0.28465 0.06501 0.92969 0.0
O11 O 0.15668 0.92147 0.98981 0.0
C12 C 0.22373 0.90595 0.07111 0.0
O13 O 0.27799 0.91739 0.071 0.0
O14 O 0.21077 0.93949 0.05902 0.0
O15 O 0.30631 0.00741 0.01061 0.0
O16 O 0.29331 -0.00376 0.96968 0.0
O17 O 0.34127 0.04801 0.07143 0.0
C18 C 0.24427 0.09296 0.01903 0.0
C19 C 0.32492 0.00372 0.98894 0.0
Zn20 Zn 0.24274 0.17148 0.38738 0.0
Zn21 Zn 0.29462 0.23888 0.32011 0.0
C22 C 0.16836 0.22367 0.39586 0.0
O23 O 0.12968 0.238 0.38867 0.0
C24 C 0.39252 0.2407 0.29416 0.0
O25 O 0.38348 0.19962 0.3104 0.0
O26 O 0.23169 0.13643 0.42236 0.0
O27 O 0.22883 0.109 0.36171 0.0
O28 O 0.26466 0.15464 0.325 0.0
C29 C 0.18419 0.10009 0.43269 0.0
O30 O 0.13509 0.08264 0.42041 0.0
O31 O 0.18947 0.2039 0.37955 0.0
C32 C 0.23966 0.27204 0.28061 0.0
O33 O 0.29376 0.30793 0.27425 0.0
O34 O 0.22967 0.24174 0.3006 0.0
O35 O 0.30838 0.27475 0.35447 0.0
O36 O 0.32571 0.23184 0.38579 0.0
O37 O 0.36389 0.26732 0.29652 0.0
C38 C 0.24241 0.10908 0.33847 0.0
C39 C 0.34452 0.27105 0.36907 0.0
Zn40 Zn 0.00372 0.15227 0.63528 0.0
Zn41 Zn 0.01064 0.23072 0.70579 0.0
C42 C 0.1219 0.19891 0.61702 0.0
O43 O 0.12888 0.24846 0.62566 0.0
C44 C 0.95536 0.29583 0.73308 0.0
O45 O 0.94631 0.34011 0.73116 0.0
O46 O 0.93779 0.09451 0.61323 0.0
O47 O -0.00895 0.13634 0.67317 0.0
O48 O 0.94132 0.14909 0.70307 0.0
C49 C 0.93912 0.10798 0.59001 0.0
O50 O 0.97952 0.15954 0.58254 0.0
O51 O 0.07489 0.15253 0.62184 0.0
C52 C 0.08972 0.25995 0.75017 0.0
O53 O 0.07683 0.30072 0.75536 0.0
O54 O 0.06851 0.22872 0.73041 0.0
O55 O 0.04294 0.2442 0.66991 0.0
O56 O 0.01303 0.2325 0.6307 0.0
O57 O 0.98315 0.28779 0.71524 0.0
C58 C 0.9434 0.11798 0.68509 0.0
C59 C 0.02789 0.26305 0.65086 0.0
Zn60 Zn 0.83189 0.06553 0.05841 0.0
Zn61 Zn 0.8272 0.01148 0.99017 0.0
C62 C 0.76067 0.94712 0.07374 0.0
O63 O 0.71812 0.95634 0.06716 0.0
C64 C 0.85831 0.06021 0.94273 0.0
O65 O 0.88855 0.03359 0.94579 0.0
O66 O 0.87239 0.11314 0.0899 0.0
O67 O 0.88756 0.10223 0.02889 0.0
O68 O 0.91061 0.05096 0.00346 0.0
C69 C 0.91642 0.10738 0.09476 0.0
O70 O 0.92723 0.07414 0.07981 0.0
O71 O 0.81235 0.98411 0.06752 0.0
C72 C 0.76204 0.9099 0.96004 0.0
O73 O 0.73355 0.93761 0.95525 0.0
O74 O 0.80258 0.93099 0.97652 0.0
O75 O 0.78272 0.01468 0.01996 0.0
O76 O 0.76078 0.06559 0.0454 0.0
O77 O 0.82563 0.05874 0.96071 0.0
C78 C 0.92478 0.08941 0.02078 0.0
C79 C 0.75492 0.04157 0.02381 0.0
Zn80 Zn 0.83159 0.71012 0.28999 0.0
Zn81 Zn 0.82823 0.7358 0.3669 0.0
C82 C 0.7814 0.78535 0.28 0.0
O83 O 0.7349 0.74647 0.29192 0.0
C84 C 0.87194 0.67392 0.39536 0.0
O85 O 0.9187 0.70567 0.38187 0.0
O86 O 0.86492 0.68415 0.26106 0.0
O87 O 0.87701 0.72725 0.32251 0.0
O88 O 0.91089 0.78916 0.35345 0.0
C89 C 0.90478 0.72672 0.24906 0.0
O90 O 0.91866 0.77939 0.256 0.0
O91 O 0.82554 0.77869 0.27843 0.0
C92 C 0.78472 0.77004 0.41064 0.0
O93 O 0.76393 0.71553 0.41709 0.0
O94 O 0.80955 0.78707 0.3892 0.0
O95 O 0.77796 0.70536 0.33505 0.0
O96 O 0.75421 0.64777 0.30207 0.0
O97 O 0.82515 0.67295 0.38929 0.0
C98 C 0.91698 0.77472 0.33115 0.0
C99 C 0.75012 0.65428 0.32584 0.0
Zn100 Zn 0.97093 0.73407 0.73991 0.0
Zn101 Zn -0.00573 0.753 0.66337 0.0
C102 C 0.08651 0.78493 0.75853 0.0
O103 O 0.07545 0.73122 0.75556 0.0
C104 C 0.9292 0.70151 0.62035 0.0
O105 O 0.92159 0.74617 0.62439 0.0
O106 O 0.92545 0.71248 0.77248 0.0
O107 O 0.92454 0.75777 0.71631 0.0
O108 O 0.93109 0.769 0.6742 0.0
C109 C 0.91945 0.75442 0.78054 0.0
O110 O 0.94381 0.80326 0.76777 0.0
O111 O 0.05027 0.79883 0.74985 0.0
C112 C 0.08895 0.8242 0.62994 0.0
O113 O 0.08613 0.77434 0.62486 0.0
O114 O 0.05761 0.82649 0.64768 0.0
O115 O 0.014 0.72937 0.69548 0.0
O116 O 0.97413 0.66599 0.72533 0.0
O117 O 0.96073 0.69228 0.63571 0.0
C118 C 0.90814 0.7694 0.6954 0.0
C119 C -0.00761 0.67728 0.70273 0.0
C120 C 0.00474 0.1914 0.02278 0.0
C121 C 0.98593 0.13193 0.02544 0.0
C122 C 0.06045 0.23311 0.03047 0.0
C123 C 0.09732 0.21578 0.04159 0.0
C124 C 0.0787 0.15634 0.04413 0.0
C125 C 0.0235 0.11459 0.03582 0.0
C126 C 0.15748 0.25857 0.04851 0.0
C127 C 0.19599 0.27752 0.02945 0.0
C128 C 0.22565 0.24373 0.02446 0.0
C129 C 0.21391 0.21319 1.00143 0.0
C130 C 0.22227 0.16546 0.99925 0.0
C131 C 0.24288 0.14783 0.02006 0.0
H132 H 0.26288 0.25389 0.06206 0.0
C133 C 0.26073 0.18242 0.04212 0.0
C134 C 0.25251 0.23027 0.04425 0.0
H135 H 0.27853 0.17105 0.05821 0.0
H136 H 0.976 0.20556 0.01495 0.0
H137 H 0.07456 0.2787 0.02798 0.0
H138 H 0.10728 0.14234 0.05227 0.0
H139 H 0.00938 0.06902 0.03841 0.0
H140 H 0.17091 0.24838 0.06638 0.0
H141 H 0.18354 0.29203 0.01247 0.0
H142 H 0.1932 0.22278 0.98589 0.0
H143 H 0.20942 0.14053 0.98177 0.0
C144 C 0.00834 0.80916 0.30759 0.0
C145 C 0.96094 0.81624 0.31401 0.0
C146 C 0.04616 0.84257 0.28838 0.0
C147 C 0.03569 0.88191 0.27488 0.0
C148 C 0.98848 0.88944 0.28145 0.0
C149 C 0.9519 0.85753 0.30138 0.0
C150 C 0.07474 0.91579 0.25414 0.0
C151 C 0.13042 0.95712 0.25763 0.0
C152 C 0.15866 0.98282 0.28246 0.0
C153 C 0.21957 0.01158 0.28388 0.0
C154 C 0.24858 0.04791 0.30445 0.0
C155 C 0.2169 0.0547 0.32421 0.0
H156 H 0.08153 0.97052 0.30274 0.0
C157 C 0.15645 0.02104 0.32431 0.0
C158 C 0.12759 0.98731 0.30326 0.0
H159 H 0.13116 0.02726 0.33889 0.0
H160 H 0.0153 0.77689 0.31704 0.0
H161 H 0.08257 0.83655 0.28353 0.0
H162 H 0.98037 0.92018 0.2713 0.0
H163 H 0.91514 0.86306 0.30612 0.0
H164 H 0.05832 0.90415 0.23487 0.0
H165 H 0.15655 0.97485 0.24066 0.0
H166 H 0.24485 0.00967 0.26812 0.0
H167 H 0.29544 0.07462 0.30382 0.0
C168 C 0.82785 0.77548 0.67333 0.0
C169 C 0.86025 0.78276 0.69553 0.0
C170 C 0.78694 0.79404 0.67246 0.0
C171 C 0.77882 0.82184 0.69361 0.0
C172 C 0.80735 0.82409 0.71646 0.0
C173 C 0.8476 0.80464 0.71744 0.0
C174 C 0.75054 0.85814 0.6914 0.0
C175 C 0.75583 0.88719 0.66978 0.0
C176 C 0.79762 0.95001 0.66997 0.0
C177 C 0.84971 0.96935 0.65661 0.0
C178 C 0.8966 0.02453 0.66108 0.0
C179 C 0.89162 0.06237 0.67824 0.0
H180 H 0.75184 0.97385 0.69719 0.0
C181 C 0.83811 0.04426 0.69045 0.0
C182 C 0.79154 0.9882 0.68652 0.0
H183 H 0.83302 0.07239 0.7039 0.0
H184 H 0.83519 0.75681 0.65637 0.0
H185 H 0.76408 0.78904 0.65479 0.0
H186 H 0.80168 0.84471 0.73316 0.0
H187 H 0.87111 0.80988 0.73494 0.0
H188 H 0.74885 0.87882 0.70901 0.0
H189 H 0.75367 0.86606 0.65182 0.0
H190 H 0.85572 0.94011 0.64418 0.0
H191 H 0.93761 0.03632 0.65202 0.0
C192 C 0.25203 0.10611 0.88602 0.0
C193 C 0.21157 0.07183 0.90461 0.0
C194 C 0.23683 0.1331 0.86711 0.0
C195 C 0.18069 0.1263 0.86636 0.0
C196 C 0.14007 0.09126 0.88469 0.0
C197 C 0.15511 0.06393 0.90348 0.0
C198 C 0.16362 0.1569 0.84755 0.0
C199 C 0.18858 0.17417 0.82458 0.0
C200 C 0.16779 0.20109 0.8056 0.0
C201 C 0.16843 0.18835 0.77977 0.0
C202 C 0.14474 0.20907 0.76163 0.0
C203 C 0.12115 0.24414 0.7689 0.0
H204 H 0.14704 0.25033 0.83249 0.0
C205 C 0.1237 0.25982 0.79457 0.0
C206 C 0.14654 0.23827 0.81279 0.0
H207 H 0.10605 0.28692 0.80076 0.0
H208 H 0.29596 0.11326 0.88641 0.0
H209 H 0.2698 0.16071 0.85369 0.0
H210 H 0.09657 0.08536 0.88461 0.0
H211 H 0.12291 0.03794 0.91753 0.0
H212 H 0.12672 0.16242 0.8523 0.0
H213 H 0.22154 0.16376 0.81855 0.0
H214 H 0.18526 0.16044 0.77372 0.0
H215 H 0.14384 0.19664 0.74195 0.0
C216 C 0.20383 0.29224 0.23993 0.0
C217 C 0.19186 0.2605 0.26259 0.0
C218 C 0.161 0.27676 0.22128 0.0
C219 C 0.1051 0.22882 0.22474 0.0
C220 C 0.09212 0.19921 0.24797 0.0
C221 C 0.13506 0.21465 0.26667 0.0
C222 C 0.0604 0.20773 0.20417 0.0
C223 C 0.07489 0.21244 0.1794 0.0
C224 C 0.03242 0.18643 0.15818 0.0
C225 C 0.05089 0.1715 0.13587 0.0
C226 C 0.01311 0.14656 0.11538 0.0
C227 C 0.95602 0.1369 0.1164 0.0
H228 H 0.96002 0.18946 0.17598 0.0
C229 C 0.93755 0.15313 0.13841 0.0
C230 C 0.97534 0.17736 0.15926 0.0
H231 H 0.8937 0.14601 0.13972 0.0
H232 H 0.24684 0.32825 0.23625 0.0
H233 H 0.17211 0.30207 0.20403 0.0
H234 H 0.04927 0.16254 0.25129 0.0
H235 H 0.12422 0.18935 0.28392 0.0
H236 H 0.015 0.18314 0.2096 0.0
H237 H 0.12049 0.23208 0.17435 0.0
H238 H 0.09463 0.17833 0.13439 0.0
H239 H 0.02884 0.13483 0.09865 0.0
C240 C 0.90028 0.08108 0.5458 0.0
C241 C 0.9012 0.0643 0.57098 0.0
C242 C 0.8704 0.03958 0.52695 0.0
C243 C 0.84135 0.98001 0.53278 0.0
C244 C 0.83954 0.9635 0.55825 0.0
C245 C 0.86917 0.00513 0.57717 0.0
C246 C 0.81427 0.93396 0.51286 0.0
C247 C 0.83089 0.94269 0.48827 0.0
C248 C 0.81092 0.89645 0.46836 0.0
C249 C 0.82735 0.91344 0.44307 0.0
C250 C 0.81621 0.87232 0.42404 0.0
C251 C 0.78836 0.81292 0.42981 0.0
H252 H 0.76729 0.8211 0.49301 0.0
C253 C 0.76931 0.79554 0.45483 0.0
C254 C 0.78052 0.8367 0.47391 0.0
H255 H 0.74775 0.75011 0.45998 0.0
H256 H 0.92368 0.12641 0.54048 0.0
H257 H 0.87083 0.05468 0.50788 0.0
H258 H 0.81689 0.91806 0.56342 0.0
H259 H 0.86875 0.99074 0.59643 0.0
H260 H 0.78252 0.89099 0.51924 0.0
H261 H 0.8635 0.98575 0.48231 0.0
H262 H 0.85067 0.95899 0.4381 0.0
H263 H 0.8314 0.88734 0.40498 0.0
C264 C 0.79639 0.84374 0.94286 0.0
C265 C 0.75606 0.86356 0.94243 0.0
C266 C 0.79892 0.81036 0.92279 0.0
C267 C 0.76079 0.79583 0.90193 0.0
C268 C 0.71741 0.81156 0.90265 0.0
C269 C 0.71493 0.84489 0.92268 0.0
C270 C 0.77065 0.77354 0.87756 0.0
C271 C 0.80703 0.75214 0.87466 0.0
C272 C 0.82962 0.74816 0.84937 0.0
C273 C 0.84744 0.70705 0.84498 0.0
C274 C 0.87489 0.70733 0.82219 0.0
C275 C 0.88618 0.74974 0.80374 0.0
H276 H 0.82821 0.82298 0.83344 0.0
C277 C 0.86752 0.79018 0.80801 0.0
C278 C 0.83956 0.78941 0.83049 0.0
H279 H 0.87545 0.82333 0.79413 0.0
H280 H 0.82859 0.85719 0.95784 0.0
H281 H 0.83345 0.79983 0.92301 0.0
H282 H 0.68739 0.80098 0.88692 0.0
H283 H 0.68289 0.85891 0.92183 0.0
H284 H 0.7505 0.77966 0.86074 0.0
H285 H 0.82355 0.74033 0.8911 0.0
H286 H 0.84097 0.67532 0.85936 0.0
H287 H 0.88901 0.67575 0.8194 0.0
C288 C -0.00545 0.75641 0.22462 0.0
C289 C 0.9345 0.71953 0.22692 0.0
C290 C 0.02258 0.7608 0.2017 0.0
C291 C -0.00905 0.72866 0.18034 0.0
C292 C 0.9311 0.68968 0.18297 0.0
C293 C 0.90311 0.6846 0.20622 0.0
C294 C 0.01816 0.74144 0.15473 0.0
C295 C 0.07545 0.76172 0.15137 0.0
C296 C 0.10758 0.78969 0.12767 0.0
C297 C 0.16285 0.79586 0.12413 0.0
C298 C 0.19913 0.83082 0.10473 0.0
C299 C 0.18131 0.86118 0.08856 0.0
H300 H 0.04651 0.81473 0.11294 0.0
C301 C 0.12479 0.85266 0.09122 0.0
C302 C 0.08827 0.81732 0.11057 0.0
H303 H 0.10969 0.87544 0.07912 0.0
H304 H 0.01952 0.78408 0.24027 0.0
H305 H 0.0683 0.79247 0.20041 0.0
H306 H 0.9056 0.66488 0.16677 0.0
H307 H 0.85651 0.6566 0.20747 0.0
H308 H -0.00921 0.737 0.13856 0.0
H309 H 0.10112 0.76062 0.16725 0.0
H310 H 0.17903 0.77542 0.13706 0.0
H311 H 0.24228 0.83615 0.10324 0.0
C312 C 0.14467 0.86736 0.58987 0.0
C313 C 0.11636 0.87248 0.61149 0.0
C314 C 0.15929 0.90649 0.56977 0.0
C315 C 0.14584 0.95155 0.57093 0.0
C316 C 0.12128 0.95896 0.59323 0.0
C317 C 0.10712 0.92019 0.61339 0.0
C318 C 0.14968 0.98644 0.54827 0.0
C319 C 0.18769 -0.00194 0.52923 0.0
C320 C 0.1863 0.02738 0.50544 0.0
C321 C 0.23784 0.05972 0.49176 0.0
C322 C 0.23732 0.08462 0.46848 0.0
C323 C 0.18491 0.07661 0.45808 0.0
H324 H 0.09311 -0.00544 0.505 0.0
C325 C 0.13332 0.04464 0.47185 0.0
C326 C 0.13397 0.02037 0.49531 0.0
H327 H 0.09229 0.03783 0.46439 0.0
H328 H 0.15255 0.8312 0.5878 0.0
H329 H 0.17748 0.89889 0.55276 0.0
H330 H 0.11069 -0.00656 0.59463 0.0
H331 H 0.08571 0.92572 0.6298 0.0
H332 H 0.11916 0.00247 0.54722 0.0
H333 H 0.22152 0.98649 0.53118 0.0
H334 H 0.27863 0.06544 0.49902 0.0
H335 H 0.27787 0.10897 0.45835 0.0
C336 C 0.40904 0.01931 0.96186 0.0
C337 C 0.38661 0.02125 0.9858 0.0
C338 C 0.4688 0.04227 0.95861 0.0
C339 C 0.50684 0.06778 0.97926 0.0
C340 C 0.48427 0.06975 0.00306 0.0
C341 C 0.42482 0.04624 0.00639 0.0
C342 C 0.56992 0.08989 0.97751 0.0
C343 C 0.59261 0.06386 0.96325 0.0
C344 C 0.64632 0.06489 0.97178 0.0
C345 C 0.64665 0.01218 0.97215 0.0
C346 C 0.68525 0.00565 0.98797 0.0
C347 C 0.72419 0.05196 0.00325 0.0
H348 H 0.69272 0.15511 0.98387 0.0
C349 C 0.72865 0.10654 1.0006 0.0
C350 C 0.69057 0.1133 0.98457 0.0
H351 H 0.75948 0.14312 0.0119 0.0
H352 H 0.38056 0.00092 0.94559 0.0
H353 H 0.48509 0.04072 0.93995 0.0
H354 H 0.51271 0.08884 0.01931 0.0
H355 H 0.40907 0.04904 0.02503 0.0
H356 H 0.59612 0.11984 0.99245 0.0
H357 H 0.56508 0.03028 0.94979 0.0
H358 H 0.61321 0.97437 0.96233 0.0
H359 H 0.68098 0.96313 0.99004 0.0
C360 C 0.4456 0.29293 0.37864 0.0
C361 C 0.40712 0.30228 0.36354 0.0
C362 C 0.5052 0.32405 0.37423 0.0
C363 C 0.52698 0.36421 0.35442 0.0
C364 C 0.48864 0.37182 0.33864 0.0
C365 C 0.42919 0.34189 0.34346 0.0
C366 C 0.58951 0.40369 0.35147 0.0
C367 C 0.62132 0.43709 0.37104 0.0
C368 C 0.66992 0.49544 0.36563 0.0
C369 C 0.66825 0.54349 0.37595 0.0
C370 C 0.69841 0.5975 0.36414 0.0
C371 C 0.73034 0.60334 0.34209 0.0
H372 H 0.71147 0.46734 0.33802 0.0
C373 C 0.73826 0.55724 0.33401 0.0
C374 C 0.70861 0.50365 0.34587 0.0
H375 H 0.76442 0.56152 0.31748 0.0
H376 H 0.4299 0.26251 0.39425 0.0
H377 H 0.53431 0.31766 0.38655 0.0
H378 H 0.505 0.4032 0.32339 0.0
H379 H 0.40075 0.35047 0.33171 0.0
H380 H 0.60507 0.41599 0.33214 0.0
H381 H 0.60264 0.42877 0.38998 0.0
H382 H 0.63887 0.53794 0.39134 0.0
H383 H 0.69275 0.63301 0.37088 0.0
C384 C 0.04732 0.35437 0.67244 0.0
C385 C 0.01867 0.31321 0.65322 0.0
C386 C 0.03552 0.39948 0.67619 0.0
C387 C -0.00325 0.40566 0.66016 0.0
C388 C 0.97049 0.36662 0.63993 0.0
C389 C 0.98128 0.32048 0.63653 0.0
C390 C 0.98189 0.45091 0.66627 0.0
C391 C 0.97608 0.4845 0.64881 0.0
C392 C 0.97057 0.5344 0.65759 0.0
C393 C 0.01305 0.59079 0.6509 0.0
C394 C 0.01829 0.63834 0.66469 0.0
C395 C 0.98048 0.62975 0.68496 0.0
H396 H 0.89604 0.48318 0.68147 0.0
C397 C 0.93461 0.57373 0.68991 0.0
C398 C 0.92957 0.52643 0.67627 0.0
H399 H 0.90433 0.56609 0.70519 0.0
H400 H 0.07758 0.35068 0.6851 0.0
H401 H 0.05642 0.42941 0.69182 0.0
H402 H 0.94005 0.37041 0.62744 0.0
H403 H 0.95919 0.2897 0.62132 0.0
H404 H 0.98104 0.46057 0.68632 0.0
H405 H 0.98342 0.48022 0.62882 0.0
H406 H 0.04507 0.59768 0.63655 0.0
H407 H 0.05399 0.68123 0.66057 0.0
C408 C 0.36507 0.15102 0.12102 0.0
C409 C 0.3676 0.10386 0.11029 0.0
C410 C 0.3945 0.17658 0.1435 0.0
C411 C 0.42704 0.15528 0.156 0.0
C412 C 0.43187 0.10978 0.14459 0.0
C413 C 0.40297 0.08469 0.12168 0.0
C414 C 0.44737 0.17321 0.18259 0.0
C415 C 0.45888 0.22511 0.19223 0.0
C416 C 0.45581 0.23626 0.21981 0.0
C417 C 0.44438 0.28091 0.22663 0.0
C418 C 0.42818 0.2854 0.25142 0.0
C419 C 0.42349 0.24552 0.27004 0.0
H420 H 0.46767 0.16658 0.23495 0.0
C421 C 0.4409 0.20474 0.26391 0.0
C422 C 0.45692 0.2001 0.23905 0.0
H423 H 0.43875 0.17394 0.27791 0.0
H424 H 0.33821 0.16675 0.11254 0.0
H425 H 0.38805 0.21029 0.15183 0.0
H426 H 0.45606 0.09207 0.15394 0.0
H427 H 0.40531 0.04813 0.11382 0.0
H428 H 0.4457 0.1398 0.19493 0.0
H429 H 0.4623 0.25833 0.17921 0.0
H430 H 0.444 0.31004 0.21236 0.0
H431 H 0.4159 0.31791 0.25554 0.0
C432 C 0.13935 0.20007 0.4409 0.0
C433 C 0.18346 0.22647 0.42282 0.0
C434 C 0.15332 0.20113 0.4665 0.0
C435 C 0.21171 0.22989 0.4745 0.0
C436 C 0.25575 0.25805 0.45646 0.0
C437 C 0.24174 0.25571 0.4307 0.0
C438 C 0.22632 0.23446 0.50184 0.0
C439 C 0.19624 0.1897 0.51763 0.0
C440 C 0.19452 0.19508 0.54566 0.0
C441 C 0.21228 0.24867 0.55783 0.0
C442 C 0.19411 0.25029 0.58259 0.0
C443 C 0.15748 0.19851 0.59545 0.0
H444 H 0.1504 0.10225 0.55094 0.0
C445 C 0.14596 0.14552 0.58445 0.0
C446 C 0.16421 0.14395 0.55977 0.0
H447 H 0.1186 0.10484 0.594 0.0
H448 H 0.09411 0.17773 0.43518 0.0
H449 H 0.11832 0.18054 0.48009 0.0
H450 H 0.3009 0.28146 0.46227 0.0
H451 H 0.27625 0.27738 0.41699 0.0
H452 H 0.26018 0.27596 0.50897 0.0
H453 H 0.16646 0.14756 0.5094 0.0
H454 H 0.23567 0.28926 0.54778 0.0
H455 H 0.20431 0.29192 0.59062 0.0
C456 C 0.90589 0.27115 0.77535 0.0
C457 C 0.93437 0.25842 0.75593 0.0
C458 C 0.88884 0.23865 0.79769 0.0
C459 C 0.9002 0.19263 0.80122 0.0
C460 C 0.92667 0.17866 0.78142 0.0
C461 C 0.94337 0.21102 0.75909 0.0
C462 C 0.88732 0.15909 0.82524 0.0
C463 C 0.87301 0.17445 0.84739 0.0
C464 C 0.86828 0.1437 0.87156 0.0
C465 C 0.83183 0.14367 0.89093 0.0
C466 C 0.8282 0.11652 0.91415 0.0
C467 C 0.8616 0.08953 0.91848 0.0
H468 H 0.93251 0.11833 0.8621 0.0
C469 C 0.8986 0.09033 0.89921 0.0
C470 C 0.90212 0.11724 0.8761 0.0
H471 H 0.92538 0.07045 0.90198 0.0
H472 H 0.89732 0.30688 0.77351 0.0
H473 H 0.86723 0.25035 0.81199 0.0
H474 H 0.93574 0.14327 0.78342 0.0
H475 H 0.96442 0.19943 0.74467 0.0
H476 H 0.8924 0.12091 0.8248 0.0
H477 H 0.86537 0.21092 0.84834 0.0
H478 H 0.8059 0.16445 0.88804 0.0
H479 H 0.79935 0.11672 0.92867 0.0
C480 C 0.80052 0.91569 0.10931 0.0
C481 C 0.75204 0.9092 0.09566 0.0
C482 C 0.79419 0.89587 0.13418 0.0
C483 C 0.73922 0.86862 0.14566 0.0
C484 C 0.69 0.85542 0.13104 0.0
C485 C 0.69634 0.8759 0.10619 0.0
C486 C 0.73303 0.85574 0.17305 0.0
C487 C 0.77129 0.8933 0.19004 0.0
C488 C 0.77183 0.87744 0.21681 0.0
C489 C 0.82563 0.8958 0.22857 0.0
C490 C 0.82861 0.87001 0.2511 0.0
C491 C 0.77765 0.8261 0.26226 0.0
H492 H 0.67838 0.82645 0.22153 0.0
C493 C 0.7235 0.814 0.25243 0.0
C494 C 0.72058 0.83935 0.22971 0.0
H495 H 0.68348 0.78108 0.2609 0.0
H496 H 0.84396 0.94013 0.10161 0.0
H497 H 0.83261 0.90409 0.14476 0.0
H498 H 0.64707 0.83291 0.13939 0.0
H499 H 0.65802 0.86933 0.09599 0.0
H500 H 0.69661 0.8148 0.17915 0.0
H501 H 0.80736 0.93412 0.18352 0.0
H502 H 0.86566 0.92617 0.21921 0.0
H503 H 0.87093 0.88095 0.25859 0.0
C504 C 0.84765 0.61243 0.4344 0.0
C505 C 0.87948 0.66627 0.42234 0.0
C506 C 0.8496 0.60891 0.46093 0.0
C507 C 0.88188 0.65961 0.47548 0.0
C508 C 0.91376 0.713 0.4632 0.0
C509 C 0.91318 0.71621 0.43689 0.0
C510 C 0.87941 0.66017 0.50345 0.0
C511 C 0.87645 0.61802 0.51855 0.0
C512 C 0.88036 0.62679 0.54641 0.0
C513 C 0.9198 0.61757 0.5607 0.0
C514 C 0.93324 0.63828 0.58572 0.0
C515 C 0.90713 0.6682 0.59658 0.0
H516 H 0.81836 0.65759 0.54782 0.0
C517 C 0.86364 0.67219 0.58301 0.0
C518 C 0.85016 0.65143 0.55823 0.0
H519 H 0.84192 0.69398 0.59109 0.0
H520 H 0.8204 0.57368 0.42341 0.0
H521 H 0.82373 0.56735 0.47005 0.0
H522 H 0.9383 0.75269 0.47404 0.0
H523 H 0.93669 0.75839 0.42797 0.0
H524 H 0.88468 0.6998 0.51212 0.0
H525 H 0.87768 0.5809 0.51049 0.0
H526 H 0.9432 0.59821 0.55197 0.0
H527 H 0.96668 0.63431 0.59587 0.0
C528 C 0.13073 0.87358 0.78614 0.0
C529 C 0.12834 0.82168 0.77838 0.0
C530 C 0.15504 0.89852 0.80961 0.0
C531 C 0.17705 0.87173 0.82573 0.0
C532 C 0.18193 0.82473 0.81642 0.0
C533 C 0.15768 0.79978 0.79294 0.0
C534 C 0.18721 0.88601 0.85321 0.0
C535 C 0.15277 0.90045 0.86657 0.0
C536 C 0.14811 0.89772 0.89469 0.0
C537 C 0.09587 0.88844 0.90568 0.0
C538 C 0.0875 0.88162 0.93188 0.0
C539 C 0.13179 0.88535 0.94763 0.0
H540 H 0.23393 0.90992 0.90299 0.0
C541 C 0.18439 0.89542 0.93689 0.0
C542 C 0.19267 0.90171 0.91062 0.0
H543 H 0.21877 0.89775 0.94881 0.0
H544 H 0.1098 0.89243 0.77508 0.0
H545 H 0.15314 0.93653 0.81577 0.0
H546 H 0.19984 0.80403 0.82824 0.0
H547 H 0.15768 0.76048 0.78729 0.0
H548 H 0.21587 0.87431 0.8631 0.0
H549 H 0.12062 0.90692 0.85651 0.0
H550 H 0.06087 0.8853 0.8939 0.0
H551 H 0.04671 0.87417 0.93987 0.0
loop_
_geom_bond_atom_site_label_1
_geom_bond_atom_site_label_2
_geom_bond_distance
_geom_bond_site_symmetry_2
_ccdc_geom_bond_type
Zn0 O6 1.969 . S
Zn0 O7 1.965 . S
Zn0 O11 2.024 1_545 S
Zn0 O16 1.969 . S
Zn1 O8 1.969 . S
Zn1 O14 1.969 1_545 S
Zn1 O15 1.965 . S
Zn1 O17 2.024 . S
C2 O3 1.229 . S
C2 O11 1.058 . S
O3 C2 1.229 . S
C4 O5 1.229 . S
C4 O17 1.058 . S
O5 C4 1.229 . S
O6 Zn0 1.969 . S
O6 C9 1.267 . S
O7 Zn0 1.965 . S
O7 C18 1.260 1_556 S
O8 Zn1 1.969 . S
O8 C18 1.258 . S
C9 O6 1.267 . S
C9 O10 1.228 . S
O10 C9 1.228 . S
O11 Zn0 2.024 1_565 S
O11 C2 1.058 . S
C12 O13 1.228 . S
C12 O14 1.267 . S
O13 C12 1.228 . S
O14 Zn1 1.969 1_565 S
O14 C12 1.267 . S
O15 Zn1 1.965 . S
O15 C19 1.260 . S
O16 Zn0 1.969 . S
O16 C19 1.258 1_556 S
O17 Zn1 2.024 . S
O17 C4 1.058 . S
C18 O7 1.260 1_554 S
C18 O8 1.258 . S
C19 O15 1.260 . S
C19 O16 1.258 1_554 S
Zn20 O26 1.969 . S
Zn20 O27 1.965 . S
Zn20 O31 2.024 . S
Zn20 O36 1.969 . S
Zn21 O28 1.969 . S
Zn21 O34 1.969 . S
Zn21 O35 1.965 . S
Zn21 O37 2.024 . S
C22 O23 1.229 . S
C22 O31 1.058 . S
O23 C22 1.229 . S
C24 O25 1.229 . S
C24 O37 1.058 . S
O25 C24 1.229 . S
O26 Zn20 1.969 . S
O26 C29 1.267 . S
O27 Zn20 1.965 . S
O27 C38 1.260 . S
O28 Zn21 1.969 . S
O28 C38 1.258 . S
C29 O26 1.267 . S
C29 O30 1.228 . S
O30 C29 1.228 . S
O31 Zn20 2.024 . S
O31 C22 1.058 . S
C32 O33 1.228 . S
C32 O34 1.267 . S
O33 C32 1.228 . S
O34 Zn21 1.969 . S
O34 C32 1.267 . S
O35 Zn21 1.965 . S
O35 C39 1.260 . S
O36 Zn20 1.969 . S
O36 C39 1.258 . S
O37 Zn21 2.024 . S
O37 C24 1.058 . S
C38 O27 1.260 . S
C38 O28 1.258 . S
C39 O35 1.260 . S
C39 O36 1.258 . S
Zn40 O46 1.969 . S
Zn40 O47 1.965 . S
Zn40 O51 2.024 1_655 S
Zn40 O56 1.969 1_655 S
Zn41 O48 1.969 . S
Zn41 O54 1.969 . S
Zn41 O55 1.965 . S
Zn41 O57 2.024 1_455 S
C42 O43 1.229 . S
C42 O51 1.058 . S
O43 C42 1.229 . S
C44 O45 1.229 . S
C44 O57 1.058 . S
O45 C44 1.229 . S
O46 Zn40 1.969 . S
O46 C49 1.267 . S
O47 Zn40 1.965 . S
O47 C58 1.260 . S
O48 Zn41 1.969 . S
O48 C58 1.258 1_455 S
C49 O46 1.267 . S
C49 O50 1.228 . S
O50 C49 1.228 . S
O51 Zn40 2.024 1_455 S
O51 C42 1.058 . S
C52 O53 1.228 . S
C52 O54 1.267 . S
O53 C52 1.228 . S
O54 Zn41 1.969 . S
O54 C52 1.267 . S
O55 Zn41 1.965 . S
O55 C59 1.260 . S
O56 Zn40 1.969 1_455 S
O56 C59 1.258 . S
O57 Zn41 2.024 1_655 S
O57 C44 1.058 . S
C58 O47 1.260 . S
C58 O48 1.258 1_655 S
C59 O55 1.260 . S
C59 O56 1.258 . S
Zn60 O66 1.969 . S
Zn60 O67 1.965 . S
Zn60 O71 2.024 1_545 S
Zn60 O76 1.969 . S
Zn61 O68 1.969 . S
Zn61 O74 1.969 1_545 S
Zn61 O75 1.965 . S
Zn61 O77 2.024 . S
C62 O63 1.229 . S
C62 O71 1.058 . S
O63 C62 1.229 . S
C64 O65 1.229 . S
C64 O77 1.058 . S
O65 C64 1.229 . S
O66 Zn60 1.969 . S
O66 C69 1.267 . S
O67 Zn60 1.965 . S
O67 C78 1.260 . S
O68 Zn61 1.969 . S
O68 C78 1.258 1_556 S
C69 O66 1.267 . S
C69 O70 1.228 . S
O70 C69 1.228 . S
O71 Zn60 2.024 1_565 S
O71 C62 1.058 . S
C72 O73 1.228 . S
C72 O74 1.267 . S
O73 C72 1.228 . S
O74 Zn61 1.969 1_565 S
O74 C72 1.267 . S
O75 Zn61 1.965 . S
O75 C79 1.260 1_556 S
O76 Zn60 1.969 . S
O76 C79 1.258 . S
O77 Zn61 2.024 . S
O77 C64 1.058 . S
C78 O67 1.260 . S
C78 O68 1.258 1_554 S
C79 O75 1.260 1_554 S
C79 O76 1.258 . S
Zn80 O86 1.969 . S
Zn80 O87 1.965 . S
Zn80 O91 2.024 . S
Zn80 O96 1.969 . S
Zn81 O88 1.969 . S
Zn81 O94 1.969 . S
Zn81 O95 1.965 . S
Zn81 O97 2.024 . S
C82 O83 1.229 . S
C82 O91 1.058 . S
O83 C82 1.229 . S
C84 O85 1.229 . S
C84 O97 1.058 . S
O85 C84 1.229 . S
O86 Zn80 1.969 . S
O86 C89 1.267 . S
O87 Zn80 1.965 . S
O87 C98 1.260 . S
O88 Zn81 1.969 . S
O88 C98 1.258 . S
C89 O86 1.267 . S
C89 O90 1.228 . S
O90 C89 1.228 . S
O91 Zn80 2.024 . S
O91 C82 1.058 . S
C92 O93 1.228 . S
C92 O94 1.267 . S
O93 C92 1.228 . S
O94 Zn81 1.969 . S
O94 C92 1.267 . S
O95 Zn81 1.965 . S
O95 C99 1.260 . S
O96 Zn80 1.969 . S
O96 C99 1.258 . S
O97 Zn81 2.024 . S
O97 C84 1.058 . S
C98 O87 1.260 . S
C98 O88 1.258 . S
C99 O95 1.260 . S
C99 O96 1.258 . S
Zn100 O106 1.969 . S
Zn100 O107 1.965 . S
Zn100 O111 2.024 1_655 S
Zn100 O116 1.969 1_655 S
Zn101 O108 1.969 . S
Zn101 O114 1.969 . S
Zn101 O115 1.965 . S
Zn101 O117 2.024 1_455 S
C102 O103 1.229 . S
C102 O111 1.058 . S
O103 C102 1.229 . S
C104 O105 1.229 . S
C104 O117 1.058 . S
O105 C104 1.229 . S
O106 Zn100 1.969 . S
O106 C109 1.267 . S
O107 Zn100 1.965 . S
O107 C118 1.260 . S
O108 Zn101 1.969 . S
O108 C118 1.258 1_455 S
C109 O106 1.267 . S
C109 O110 1.228 . S
O110 C109 1.228 . S
O111 Zn100 2.024 1_455 S
O111 C102 1.058 . S
C112 O113 1.228 . S
C112 O114 1.267 . S
O113 C112 1.228 . S
O114 Zn101 1.969 . S
O114 C112 1.267 . S
O115 Zn101 1.965 . S
O115 C119 1.260 . S
O116 Zn100 1.969 1_455 S
O116 C119 1.258 . S
O117 Zn101 2.024 1_655 S
O117 C104 1.058 . S
C118 O107 1.260 . S
C118 O108 1.258 1_655 S
C119 O115 1.260 . S
C119 O116 1.258 . S
C120 C121 1.386 1_556 S
C120 C122 1.385 . S
C120 H136 0.951 . S
C121 C120 1.386 1_554 S
C121 C125 1.383 . S
C122 C120 1.385 . S
C122 C123 1.380 1_556 S
C122 H137 0.970 1_655 S
C123 C122 1.380 1_554 S
C123 C124 1.375 . S
C123 C126 1.481 1_655 S
C124 C123 1.375 . S
C124 C125 1.367 . S
C124 H138 0.951 . S
C125 C121 1.383 . S
C125 C124 1.367 . S
C125 H139 0.950 . S
C126 C123 1.481 1_455 S
C126 C127 1.297 . S
C126 H140 0.950 . S
C127 C126 1.297 . S
C127 C128 1.479 . S
C127 H141 0.950 1_554 S
C128 C127 1.479 . S
C128 C129 1.375 1_554 S
C128 C134 1.404 . S
C129 C128 1.375 1_556 S
C129 C130 1.369 . S
C129 H142 0.950 . S
C130 C129 1.369 . S
C130 C131 1.392 1_556 S
C130 H143 0.951 . S
C131 C130 1.392 1_554 S
C131 C133 1.384 . S
H132 C134 0.949 . S
C133 C131 1.384 . S
C133 C134 1.385 . S
C133 H135 0.950 . S
C134 C128 1.404 . S
C134 H132 0.949 . S
C134 C133 1.385 . S
H135 C133 0.950 . S
H136 C120 0.951 . S
H137 C122 0.970 1_455 S
H138 C124 0.951 . S
H139 C125 0.950 . S
H140 C126 0.950 . S
H141 C127 0.950 1_556 S
H142 C129 0.950 . S
H143 C130 0.951 . S
C144 C145 1.386 . S
C144 C146 1.383 . S
C144 H160 0.951 . S
C145 C144 1.386 . S
C145 C149 1.383 . S
C146 C144 1.383 . S
C146 C147 1.402 . S
C146 H161 0.951 1_655 S
C147 C146 1.402 . S
C147 C148 1.375 . S
C147 C150 1.481 1_655 S
C148 C147 1.375 . S
C148 C149 1.367 . S
C148 H162 0.951 . S
C149 C145 1.383 . S
C149 C148 1.367 . S
C149 H163 0.950 . S
C150 C147 1.481 1_455 S
C150 C151 1.297 . S
C150 H164 0.950 . S
C151 C150 1.297 . S
C151 C152 1.479 1_565 S
C151 H165 0.950 . S
C152 C151 1.479 1_545 S
C152 C153 1.375 . S
C152 C158 1.404 . S
C153 C152 1.375 . S
C153 C154 1.369 . S
C153 H166 0.950 . S
C154 C153 1.369 . S
C154 C155 1.392 . S
C154 H167 0.951 . S
C155 C154 1.392 . S
C155 C157 1.384 . S
H156 C158 0.949 . S
C157 C155 1.384 . S
C157 C158 1.385 . S
C157 H159 0.950 . S
C158 C152 1.404 . S
C158 H156 0.949 . S
C158 C157 1.385 . S
H159 C157 0.950 . S
H160 C144 0.951 . S
H161 C146 0.951 1_455 S
H162 C148 0.951 . S
H163 C149 0.950 . S
H164 C150 0.950 . S
H165 C151 0.950 . S
H166 C153 0.950 . S
H167 C154 0.951 . S
C168 C169 1.386 . S
C168 C170 1.383 . S
C168 H184 0.951 . S
C169 C168 1.386 . S
C169 C173 1.383 1_655 S
C170 C168 1.383 . S
C170 C171 1.402 . S
C170 H185 0.951 . S
C171 C170 1.402 . S
C171 C172 1.370 1_655 S
C171 C174 1.481 . S
C172 C171 1.370 1_455 S
C172 C173 1.373 . S
C172 H186 0.950 . S
C173 C169 1.383 1_455 S
C173 C172 1.373 . S
C173 H187 0.950 . S
C174 C171 1.481 . S
C174 C175 1.297 . S
C174 H188 0.950 . S
C175 C174 1.297 . S
C175 C176 1.479 1_565 S
C175 H189 0.950 . S
C176 C175 1.479 1_545 S
C176 C177 1.375 . S
C176 C182 1.404 . S
C177 C176 1.375 . S
C177 C178 1.369 . S
C177 H190 0.950 . S
C178 C177 1.369 . S
C178 C179 1.392 . S
C178 H191 0.951 . S
C179 C178 1.392 . S
C179 C181 1.384 . S
H180 C182 0.949 . S
C181 C179 1.384 . S
C181 C182 1.385 . S
C181 H183 0.950 . S
C182 C176 1.404 . S
C182 H180 0.949 . S
C182 C181 1.385 . S
H183 C181 0.950 . S
H184 C168 0.951 . S
H185 C170 0.951 . S
H186 C172 0.950 . S
H187 C173 0.950 . S
H188 C174 0.950 . S
H189 C175 0.950 . S
H190 C177 0.950 . S
H191 C178 0.951 . S
C192 C193 1.386 . S
C192 C194 1.383 . S
C192 H208 0.951 . S
C193 C192 1.386 . S
C193 C197 1.383 . S
C194 C192 1.383 . S
C194 C195 1.402 . S
C194 H209 0.951 . S
C195 C194 1.402 . S
C195 C196 1.375 . S
C195 C198 1.481 . S
C196 C195 1.375 . S
C196 C197 1.367 . S
C196 H210 0.951 . S
C197 C193 1.383 . S
C197 C196 1.367 . S
C197 H211 0.950 . S
C198 C195 1.481 . S
C198 C199 1.297 . S
C198 H212 0.950 . S
C199 C198 1.297 . S
C199 C200 1.479 . S
C199 H213 0.950 . S
C200 C199 1.479 . S
C200 C201 1.375 . S
C200 C206 1.404 . S
C201 C200 1.375 . S
C201 C202 1.369 . S
C201 H214 0.950 . S
C202 C201 1.369 . S
C202 C203 1.392 . S
C202 H215 0.951 . S
C203 C202 1.392 . S
C203 C205 1.384 . S
H204 C206 0.949 . S
C205 C203 1.384 . S
C205 C206 1.385 . S
C205 H207 0.950 . S
C206 C200 1.404 . S
C206 H204 0.949 . S
C206 C205 1.385 . S
H207 C205 0.950 . S
H208 C192 0.951 . S
H209 C194 0.951 . S
H210 C196 0.951 . S
H211 C197 0.950 . S
H212 C198 0.950 . S
H213 C199 0.950 . S
H214 C201 0.950 . S
H215 C202 0.951 . S
C216 C217 1.386 . S
C216 C218 1.383 . S
C216 H232 0.951 . S
C217 C216 1.386 . S
C217 C221 1.383 . S
C218 C216 1.383 . S
C218 C219 1.402 . S
C218 H233 0.951 . S
C219 C218 1.402 . S
C219 C220 1.375 . S
C219 C222 1.481 . S
C220 C219 1.375 . S
C220 C221 1.367 . S
C220 H234 0.951 . S
C221 C217 1.383 . S
C221 C220 1.367 . S
C221 H235 0.950 . S
C222 C219 1.481 . S
C222 C223 1.297 . S
C222 H236 0.950 . S
C223 C222 1.297 . S
C223 C224 1.479 . S
C223 H237 0.950 . S
C224 C223 1.479 . S
C224 C225 1.375 . S
C224 C230 1.404 1_455 S
C225 C224 1.375 . S
C225 C226 1.369 . S
C225 H238 0.950 . S
C226 C225 1.369 . S
C226 C227 1.392 1_455 S
C226 H239 0.951 . S
C227 C226 1.392 1_655 S
C227 C229 1.384 . S
H228 C230 0.949 . S
C229 C227 1.384 . S
C229 C230 1.385 . S
C229 H231 0.950 . S
C230 C224 1.404 1_655 S
C230 H228 0.949 . S
C230 C229 1.385 . S
H231 C229 0.950 . S
H232 C216 0.951 . S
H233 C218 0.951 . S
H234 C220 0.951 . S
H235 C221 0.950 . S
H236 C222 0.950 . S
H237 C223 0.950 . S
H238 C225 0.950 . S
H239 C226 0.951 . S
C240 C241 1.386 . S
C240 C242 1.383 . S
C240 H256 0.951 . S
C241 C240 1.386 . S
C241 C245 1.383 . S
C242 C240 1.383 . S
C242 C243 1.402 1_545 S
C242 H257 0.951 . S
C243 C242 1.402 1_565 S
C243 C244 1.375 . S
C243 C246 1.481 . S
C244 C243 1.375 . S
C244 C245 1.367 1_565 S
C244 H258 0.951 . S
C245 C241 1.383 . S
C245 C244 1.367 1_545 S
C245 H259 0.950 . S
C246 C243 1.481 . S
C246 C247 1.297 . S
C246 H260 0.950 . S
C247 C246 1.297 . S
C247 C248 1.479 . S
C247 H261 0.950 . S
C248 C247 1.479 . S
C248 C249 1.375 . S
C248 C254 1.404 . S
C249 C248 1.375 . S
C249 C250 1.369 . S
C249 H262 0.950 . S
C250 C249 1.369 . S
C250 C251 1.392 . S
C250 H263 0.951 . S
C251 C250 1.392 . S
C251 C253 1.384 . S
H252 C254 0.949 . S
C253 C251 1.384 . S
C253 C254 1.385 . S
C253 H255 0.950 . S
C254 C248 1.404 . S
C254 H252 0.949 . S
C254 C253 1.385 . S
H255 C253 0.950 . S
H256 C240 0.951 . S
H257 C242 0.951 . S
H258 C244 0.951 . S
H259 C245 0.950 . S
H260 C246 0.950 . S
H261 C247 0.950 . S
H262 C249 0.950 . S
H263 C250 0.951 . S
C264 C265 1.386 . S
C264 C266 1.383 . S
C264 H280 0.951 . S
C265 C264 1.386 . S
C265 C269 1.383 . S
C266 C264 1.383 . S
C266 C267 1.402 . S
C266 H281 0.951 . S
C267 C266 1.402 . S
C267 C268 1.375 . S
C267 C270 1.481 . S
C268 C267 1.375 . S
C268 C269 1.367 . S
C268 H282 0.951 . S
C269 C265 1.383 . S
C269 C268 1.367 . S
C269 H283 0.950 . S
C270 C267 1.481 . S
C270 C271 1.297 . S
C270 H284 0.950 . S
C271 C270 1.297 . S
C271 C272 1.479 . S
C271 H285 0.950 . S
C272 C271 1.479 . S
C272 C273 1.375 . S
C272 C278 1.404 . S
C273 C272 1.375 . S
C273 C274 1.369 . S
C273 H286 0.950 . S
C274 C273 1.369 . S
C274 C275 1.392 . S
C274 H287 0.951 . S
C275 C274 1.392 . S
C275 C277 1.384 . S
H276 C278 0.949 . S
C277 C275 1.384 . S
C277 C278 1.385 . S
C277 H279 0.950 . S
C278 C272 1.404 . S
C278 H276 0.949 . S
C278 C277 1.385 . S
H279 C277 0.950 . S
H280 C264 0.951 . S
H281 C266 0.951 . S
H282 C268 0.951 . S
H283 C269 0.950 . S
H284 C270 0.950 . S
H285 C271 0.950 . S
H286 C273 0.950 . S
H287 C274 0.951 . S
C288 C289 1.386 1_455 S
C288 C290 1.383 . S
C288 H304 0.951 . S
C289 C288 1.386 1_655 S
C289 C293 1.383 . S
C290 C288 1.383 . S
C290 C291 1.402 . S
C290 H305 0.951 . S
C291 C290 1.402 . S
C291 C292 1.375 1_455 S
C291 C294 1.481 . S
C292 C291 1.375 1_655 S
C292 C293 1.367 . S
C292 H306 0.951 . S
C293 C289 1.383 . S
C293 C292 1.367 . S
C293 H307 0.950 . S
C294 C291 1.481 . S
C294 C295 1.297 . S
C294 H308 0.950 . S
C295 C294 1.297 . S
C295 C296 1.479 . S
C295 H309 0.950 . S
C296 C295 1.479 . S
C296 C297 1.375 . S
C296 C302 1.404 . S
C297 C296 1.375 . S
C297 C298 1.369 . S
C297 H310 0.950 . S
C298 C297 1.369 . S
C298 C299 1.392 . S
C298 H311 0.951 . S
C299 C298 1.392 . S
C299 C301 1.384 . S
H300 C302 0.949 . S
C301 C299 1.384 . S
C301 C302 1.385 . S
C301 H303 0.950 . S
C302 C296 1.404 . S
C302 H300 0.949 . S
C302 C301 1.385 . S
H303 C301 0.950 . S
H304 C288 0.951 . S
H305 C290 0.951 . S
H306 C292 0.951 . S
H307 C293 0.950 . S
H308 C294 0.950 . S
H309 C295 0.950 . S
H310 C297 0.950 . S
H311 C298 0.951 . S
C312 C313 1.386 . S
C312 C314 1.383 . S
C312 H328 0.951 . S
C313 C312 1.386 . S
C313 C317 1.383 . S
C314 C312 1.383 . S
C314 C315 1.402 . S
C314 H329 0.951 . S
C315 C314 1.402 . S
C315 C316 1.375 . S
C315 C318 1.481 . S
C316 C315 1.375 . S
C316 C317 1.367 . S
C316 H330 0.951 . S
C317 C313 1.383 . S
C317 C316 1.367 . S
C317 H331 0.950 . S
C318 C315 1.481 . S
C318 C319 1.297 . S
C318 H332 0.950 . S
C319 C318 1.297 . S
C319 C320 1.479 . S
C319 H333 0.950 . S
C320 C319 1.479 . S
C320 C321 1.375 1_565 S
C320 C326 1.404 1_565 S
C321 C320 1.375 1_545 S
C321 C322 1.369 . S
C321 H334 0.950 1_545 S
C322 C321 1.369 . S
C322 C323 1.392 . S
C322 H335 0.951 . S
C323 C322 1.392 . S
C323 C325 1.384 . S
H324 C326 0.949 . S
C325 C323 1.384 . S
C325 C326 1.385 . S
C325 H327 0.950 . S
C326 C320 1.404 1_545 S
C326 H324 0.949 . S
C326 C325 1.385 . S
H327 C325 0.950 . S
H328 C312 0.951 . S
H329 C314 0.951 . S
H330 C316 0.951 . S
H331 C317 0.950 . S
H332 C318 0.950 . S
H333 C319 0.950 . S
H334 C321 0.950 1_565 S
H335 C322 0.951 . S
C336 C337 1.386 1_556 S
C336 C338 1.383 . S
C336 H352 0.951 1_545 S
C337 C336 1.386 1_554 S
C337 C341 1.383 . S
C338 C336 1.383 . S
C338 C339 1.402 1_556 S
C338 H353 0.951 . S
C339 C338 1.402 1_554 S
C339 C340 1.375 . S
C339 C342 1.481 . S
C340 C339 1.375 . S
C340 C341 1.367 . S
C340 H354 0.951 . S
C341 C337 1.383 . S
C341 C340 1.367 . S
C341 H355 0.950 . S
C342 C339 1.481 . S
C342 C343 1.286 1_554 S
C342 H356 0.950 . S
C343 C342 1.286 1_556 S
C343 C344 1.478 1_556 S
C343 H357 0.964 . S
C344 C343 1.478 1_554 S
C344 C345 1.375 1_554 S
C344 C350 1.404 . S
C345 C344 1.375 1_556 S
C345 C346 1.369 . S
C345 H358 0.950 . S
C346 C345 1.369 . S
C346 C347 1.392 1_556 S
C346 H359 0.951 1_545 S
C347 C346 1.392 1_554 S
C347 C349 1.384 . S
H348 C350 0.949 . S
C349 C347 1.384 . S
C349 C350 1.385 . S
C349 H351 0.950 . S
C350 C344 1.404 . S
C350 H348 0.949 . S
C350 C349 1.385 . S
H351 C349 0.950 . S
H352 C336 0.951 1_565 S
H353 C338 0.951 . S
H354 C340 0.951 . S
H355 C341 0.950 . S
H356 C342 0.950 . S
H357 C343 0.964 . S
H358 C345 0.950 . S
H359 C346 0.951 1_565 S
C360 C361 1.386 . S
C360 C362 1.383 . S
C360 H376 0.951 . S
C361 C360 1.386 . S
C361 C365 1.383 . S
C362 C360 1.383 . S
C362 C363 1.402 . S
C362 H377 0.951 . S
C363 C362 1.402 . S
C363 C364 1.375 . S
C363 C366 1.481 . S
C364 C363 1.375 . S
C364 C365 1.367 . S
C364 H378 0.951 . S
C365 C361 1.383 . S
C365 C364 1.367 . S
C365 H379 0.950 . S
C366 C363 1.481 . S
C366 C367 1.297 . S
C366 H380 0.950 . S
C367 C366 1.297 . S
C367 C368 1.479 . S
C367 H381 0.950 . S
C368 C367 1.479 . S
C368 C369 1.375 . S
C368 C374 1.404 . S
C369 C368 1.375 . S
C369 C370 1.369 . S
C369 H382 0.950 . S
C370 C369 1.369 . S
C370 C371 1.392 . S
C370 H383 0.951 . S
C371 C370 1.392 . S
C371 C373 1.384 . S
H372 C374 0.949 . S
C373 C371 1.384 . S
C373 C374 1.385 . S
C373 H375 0.950 . S
C374 C368 1.404 . S
C374 H372 0.949 . S
C374 C373 1.385 . S
H375 C373 0.950 . S
H376 C360 0.951 . S
H377 C362 0.951 . S
H378 C364 0.951 . S
H379 C365 0.950 . S
H380 C366 0.950 . S
H381 C367 0.950 . S
H382 C369 0.950 . S
H383 C370 0.951 . S
C384 C385 1.386 . S
C384 C386 1.383 . S
C384 H400 0.951 . S
C385 C384 1.386 . S
C385 C389 1.383 1_455 S
C386 C384 1.383 . S
C386 C387 1.402 . S
C386 H401 0.951 . S
C387 C386 1.402 . S
C387 C388 1.375 1_455 S
C387 C390 1.482 1_455 S
C388 C387 1.375 1_655 S
C388 C389 1.367 . S
C388 H402 0.951 . S
C389 C385 1.383 1_655 S
C389 C388 1.367 . S
C389 H403 0.950 . S
C390 C387 1.482 1_655 S
C390 C391 1.297 1_655 S
C390 H404 0.949 . S
C391 C390 1.297 1_455 S
C391 C392 1.479 . S
C391 H405 0.950 . S
C392 C391 1.479 . S
C392 C393 1.375 . S
C392 C398 1.404 1_455 S
C393 C392 1.375 . S
C393 C394 1.369 . S
C393 H406 0.950 . S
C394 C393 1.369 . S
C394 C395 1.392 . S
C394 H407 0.951 . S
C395 C394 1.392 . S
C395 C397 1.384 1_455 S
H396 C398 0.949 . S
C397 C395 1.384 1_655 S
C397 C398 1.385 . S
C397 H399 0.950 . S
C398 C392 1.404 1_655 S
C398 H396 0.949 . S
C398 C397 1.385 . S
H399 C397 0.950 . S
H400 C384 0.951 . S
H401 C386 0.951 . S
H402 C388 0.951 . S
H403 C389 0.950 . S
H404 C390 0.949 . S
H405 C391 0.950 . S
H406 C393 0.950 . S
H407 C394 0.951 . S
C408 C409 1.386 . S
C408 C410 1.383 . S
C408 H424 0.951 . S
C409 C408 1.386 . S
C409 C413 1.383 . S
C410 C408 1.383 . S
C410 C411 1.402 . S
C410 H425 0.951 . S
C411 C410 1.402 . S
C411 C412 1.375 . S
C411 C414 1.481 . S
C412 C411 1.375 . S
C412 C413 1.367 . S
C412 H426 0.951 . S
C413 C409 1.383 . S
C413 C412 1.367 . S
C413 H427 0.950 . S
C414 C411 1.481 . S
C414 C415 1.297 . S
C414 H428 0.950 . S
C415 C414 1.297 . S
C415 C416 1.479 . S
C415 H429 0.950 . S
C416 C415 1.479 . S
C416 C417 1.375 . S
C416 C422 1.404 . S
C417 C416 1.375 . S
C417 C418 1.369 . S
C417 H430 0.950 . S
C418 C417 1.369 . S
C418 C419 1.392 . S
C418 H431 0.951 . S
C419 C418 1.392 . S
C419 C421 1.384 . S
H420 C422 0.949 . S
C421 C419 1.384 . S
C421 C422 1.385 . S
C421 H423 0.950 . S
C422 C416 1.404 . S
C422 H420 0.949 . S
C422 C421 1.385 . S
H423 C421 0.950 . S
H424 C408 0.951 . S
H425 C410 0.951 . S
H426 C412 0.951 . S
H427 C413 0.950 . S
H428 C414 0.950 . S
H429 C415 0.950 . S
H430 C417 0.950 . S
H431 C418 0.951 . S
C432 C433 1.386 . S
C432 C434 1.383 . S
C432 H448 0.951 . S
C433 C432 1.386 . S
C433 C437 1.383 . S
C434 C432 1.383 . S
C434 C435 1.402 . S
C434 H449 0.951 . S
C435 C434 1.402 . S
C435 C436 1.375 . S
C435 C438 1.481 . S
C436 C435 1.375 . S
C436 C437 1.367 . S
C436 H450 0.951 . S
C437 C433 1.383 . S
C437 C436 1.367 . S
C437 H451 0.950 . S
C438 C435 1.481 . S
C438 C439 1.297 . S
C438 H452 0.950 . S
C439 C438 1.297 . S
C439 C440 1.479 . S
C439 H453 0.950 . S
C440 C439 1.479 . S
C440 C441 1.375 . S
C440 C446 1.404 . S
C441 C440 1.375 . S
C441 C442 1.369 . S
C441 H454 0.950 . S
C442 C441 1.369 . S
C442 C443 1.392 . S
C442 H455 0.951 . S
C443 C442 1.392 . S
C443 C445 1.384 . S
H444 C446 0.949 . S
C445 C443 1.384 . S
C445 C446 1.385 . S
C445 H447 0.950 . S
C446 C440 1.404 . S
C446 H444 0.949 . S
C446 C445 1.385 . S
H447 C445 0.950 . S
H448 C432 0.951 . S
H449 C434 0.951 . S
H450 C436 0.951 . S
H451 C437 0.950 . S
H452 C438 0.950 . S
H453 C439 0.950 . S
H454 C441 0.950 . S
H455 C442 0.951 . S
C456 C457 1.386 . S
C456 C458 1.383 . S
C456 H472 0.951 . S
C457 C456 1.386 . S
C457 C461 1.383 . S
C458 C456 1.383 . S
C458 C459 1.402 . S
C458 H473 0.951 . S
C459 C458 1.402 . S
C459 C460 1.375 . S
C459 C462 1.481 . S
C460 C459 1.375 . S
C460 C461 1.367 . S
C460 H474 0.951 . S
C461 C457 1.383 . S
C461 C460 1.367 . S
C461 H475 0.950 . S
C462 C459 1.481 . S
C462 C463 1.297 . S
C462 H476 0.950 . S
C463 C462 1.297 . S
C463 C464 1.479 . S
C463 H477 0.950 . S
C464 C463 1.479 . S
C464 C465 1.375 . S
C464 C470 1.404 . S
C465 C464 1.375 . S
C465 C466 1.369 . S
C465 H478 0.950 . S
C466 C465 1.369 . S
C466 C467 1.392 . S
C466 H479 0.951 . S
C467 C466 1.392 . S
C467 C469 1.384 . S
H468 C470 0.949 . S
C469 C467 1.384 . S
C469 C470 1.385 . S
C469 H471 0.950 . S
C470 C464 1.404 . S
C470 H468 0.949 . S
C470 C469 1.385 . S
H471 C469 0.950 . S
H472 C456 0.951 . S
H473 C458 0.951 . S
H474 C460 0.951 . S
H475 C461 0.950 . S
H476 C462 0.950 . S
H477 C463 0.950 . S
H478 C465 0.950 . S
H479 C466 0.951 . S
C480 C481 1.386 . S
C480 C482 1.383 . S
C480 H496 0.951 . S
C481 C480 1.386 . S
C481 C485 1.383 . S
C482 C480 1.383 . S
C482 C483 1.402 . S
C482 H497 0.951 . S
C483 C482 1.402 . S
C483 C484 1.375 . S
C483 C486 1.481 . S
C484 C483 1.375 . S
C484 C485 1.367 . S
C484 H498 0.951 . S
C485 C481 1.383 . S
C485 C484 1.367 . S
C485 H499 0.950 . S
C486 C483 1.481 . S
C486 C487 1.297 . S
C486 H500 0.950 . S
C487 C486 1.297 . S
C487 C488 1.479 . S
C487 H501 0.950 . S
C488 C487 1.479 . S
C488 C489 1.375 . S
C488 C494 1.404 . S
C489 C488 1.375 . S
C489 C490 1.369 . S
C489 H502 0.950 . S
C490 C489 1.369 . S
C490 C491 1.392 . S
C490 H503 0.951 . S
C491 C490 1.392 . S
C491 C493 1.384 . S
H492 C494 0.949 . S
C493 C491 1.384 . S
C493 C494 1.385 . S
C493 H495 0.950 . S
C494 C488 1.404 . S
C494 H492 0.949 . S
C494 C493 1.385 . S
H495 C493 0.950 . S
H496 C480 0.951 . S
H497 C482 0.951 . S
H498 C484 0.951 . S
H499 C485 0.950 . S
H500 C486 0.950 . S
H501 C487 0.950 . S
H502 C489 0.950 . S
H503 C490 0.951 . S
C504 C505 1.386 . S
C504 C506 1.383 . S
C504 H520 0.951 . S
C505 C504 1.386 . S
C505 C509 1.383 . S
C506 C504 1.383 . S
C506 C507 1.402 . S
C506 H521 0.951 . S
C507 C506 1.402 . S
C507 C508 1.375 . S
C507 C510 1.481 . S
C508 C507 1.375 . S
C508 C509 1.367 . S
C508 H522 0.951 . S
C509 C505 1.383 . S
C509 C508 1.367 . S
C509 H523 0.950 . S
C510 C507 1.481 . S
C510 C511 1.297 . S
C510 H524 0.950 . S
C511 C510 1.297 . S
C511 C512 1.479 . S
C511 H525 0.950 . S
C512 C511 1.479 . S
C512 C513 1.375 . S
C512 C518 1.404 . S
C513 C512 1.375 . S
C513 C514 1.369 . S
C513 H526 0.950 . S
C514 C513 1.369 . S
C514 C515 1.392 . S
C514 H527 0.951 . S
C515 C514 1.392 . S
C515 C517 1.384 . S
H516 C518 0.949 . S
C517 C515 1.384 . S
C517 C518 1.385 . S
C517 H519 0.950 . S
C518 C512 1.404 . S
C518 H516 0.949 . S
C518 C517 1.385 . S
H519 C517 0.950 . S
H520 C504 0.951 . S
H521 C506 0.951 . S
H522 C508 0.951 . S
H523 C509 0.950 . S
H524 C510 0.950 . S
H525 C511 0.950 . S
H526 C513 0.950 . S
H527 C514 0.951 . S
C528 C529 1.386 . S
C528 C530 1.383 . S
C528 H544 0.951 . S
C529 C528 1.386 . S
C529 C533 1.383 . S
C530 C528 1.383 . S
C530 C531 1.402 . S
C530 H545 0.951 . S
C531 C530 1.402 . S
C531 C532 1.375 . S
C531 C534 1.481 . S
C532 C531 1.375 . S
C532 C533 1.367 . S
C532 H546 0.951 . S
C533 C529 1.383 . S
C533 C532 1.367 . S
C533 H547 0.950 . S
C534 C531 1.481 . S
C534 C535 1.297 . S
C534 H548 0.950 . S
C535 C534 1.297 . S
C535 C536 1.479 . S
C535 H549 0.950 . S
C536 C535 1.479 . S
C536 C537 1.375 . S
C536 C542 1.404 . S
C537 C536 1.375 . S
C537 C538 1.369 . S
C537 H550 0.950 . S
C538 C537 1.369 . S
C538 C539 1.392 . S
C538 H551 0.951 . S
C539 C538 1.392 . S
C539 C541 1.384 . S
H540 C542 0.949 . S
C541 C539 1.384 . S
C541 C542 1.385 . S
C541 H543 0.950 . S
C542 C536 1.404 . S
C542 H540 0.949 . S
C542 C541 1.385 . S
H543 C541 0.950 . S
H544 C528 0.951 . S
H545 C530 0.951 . S
H546 C532 0.951 . S
H547 C533 0.950 . S
H548 C534 0.950 . S
H549 C535 0.950 . S
H550 C537 0.950 . S
H551 C538 0.951 . S
C121 C78 1.200 . S
C131 C18 1.175 . S
C145 C98 1.204 . S
C155 C38 1.164 . S
C169 C118 1.195 . S
C179 C58 1.185 . S
C193 C9 1.575 . S
C203 C52 1.673 . S
C217 C32 1.677 . S
C227 C69 1.537 . S
C241 C49 1.620 . S
C251 C92 1.643 . S
C265 C72 1.690 . S
C275 C109 1.661 . S
C289 C89 1.628 . S
C299 C12 1.740 . S
C313 C112 1.666 . S
C323 C29 1.595 . S
C337 C19 0.892 . S
C347 C79 0.910 . S
C361 C39 0.900 . S
C371 C99 0.885 . S
C385 C59 0.843 . S
C395 C119 0.894 . S
C409 C4 0.818 . S
C419 C24 0.822 . S
C433 C22 0.966 . S
C443 C42 0.966 . S
C457 C44 0.859 . S
C467 C64 0.754 . S
C481 C62 0.966 . S
C491 C82 1.012 . S
C505 C84 0.870 . S
C515 C104 0.757 . S
C529 C102 0.989 . S
C539 C2 1.084 . S
