# Generated by pormake.
# Topology ato, (4)-cn, num edge types: 1
# Building blocks:
#     Node 0, Type 0, BuildingBlock: GALJAG_clean_sbu_0, # of connection points: 4
#     Node 1, Type 0, BuildingBlock: GALJAG_clean_sbu_0, # of connection points: 4
#     Node 2, Type 0, BuildingBlock: GALJAG_clean_sbu_0, # of connection points: 4
#     Node 3, Type 0, BuildingBlock: GALJAG_clean_sbu_0, # of connection points: 4
#     Node 4, Type 0, BuildingBlock: GALJAG_clean_sbu_0, # of connection points: 4
#     Node 5, Type 0, BuildingBlock: GALJAG_clean_sbu_0, # of connection points: 4
#     Node 6, Type 0, BuildingBlock: GALJAG_clean_sbu_0, # of connection points: 4
#     Node 7, Type 0, BuildingBlock: GALJAG_clean_sbu_0, # of connection points: 4
#     Node 8, Type 0, BuildingBlock: GALJAG_clean_sbu_0, # of connection points: 4
#     Node 9, Type 0, BuildingBlock: GALJAG_clean_sbu_0, # of connection points: 4
#     Node 10, Type 0, BuildingBlock: GALJAG_clean_sbu_0, # of connection points: 4
#     Node 11, Type 0, BuildingBlock: GALJAG_clean_sbu_0, # of connection points: 4
#     Node 12, Type 0, BuildingBlock: GALJAG_clean_sbu_0, # of connection points: 4
#     Node 13, Type 0, BuildingBlock: GALJAG_clean_sbu_0, # of connection points: 4
#     Node 14, Type 0, BuildingBlock: GALJAG_clean_sbu_0, # of connection points: 4
#     Node 15, Type 0, BuildingBlock: GALJAG_clean_sbu_0, # of connection points: 4
#     Node 16, Type 0, BuildingBlock: GALJAG_clean_sbu_0, # of connection points: 4
#     Node 17, Type 0, BuildingBlock: GALJAG_clean_sbu_0, # of connection points: 4
#     Node 18, Type 0, BuildingBlock: GALJAG_clean_sbu_0, # of connection points: 4
#     Node 19, Type 0, BuildingBlock: GALJAG_clean_sbu_0, # of connection points: 4
#     Node 20, Type 0, BuildingBlock: GALJAG_clean_sbu_0, # of connection points: 4
#     Node 21, Type 0, BuildingBlock: GALJAG_clean_sbu_0, # of connection points: 4
#     Node 22, Type 0, BuildingBlock: GALJAG_clean_sbu_0, # of connection points: 4
#     Node 23, Type 0, BuildingBlock: GALJAG_clean_sbu_0, # of connection points: 4
#     Node 24, Type 0, BuildingBlock: GALJAG_clean_sbu_0, # of connection points: 4
#     Node 25, Type 0, BuildingBlock: GALJAG_clean_sbu_0, # of connection points: 4
#     Node 26, Type 0, BuildingBlock: GALJAG_clean_sbu_0, # of connection points: 4
#     Node 27, Type 0, BuildingBlock: GALJAG_clean_sbu_0, # of connection points: 4
#     Node 28, Type 0, BuildingBlock: GALJAG_clean_sbu_0, # of connection points: 4
#     Node 29, Type 0, BuildingBlock: GALJAG_clean_sbu_0, # of connection points: 4
#     Node 30, Type 0, BuildingBlock: GALJAG_clean_sbu_0, # of connection points: 4
#     Node 31, Type 0, BuildingBlock: GALJAG_clean_sbu_0, # of connection points: 4
#     Node 32, Type 0, BuildingBlock: GALJAG_clean_sbu_0, # of connection points: 4
#     Node 33, Type 0, BuildingBlock: GALJAG_clean_sbu_0, # of connection points: 4
#     Node 34, Type 0, BuildingBlock: GALJAG_clean_sbu_0, # of connection points: 4
#     Node 35, Type 0, BuildingBlock: GALJAG_clean_sbu_0, # of connection points: 4
#     Edge 36, Type (0, 0), BuildingBlock: TEMPAE_clean_linker_10, # of connection points: 2
#     Edge 37, Type (0, 0), BuildingBlock: TEMPAE_clean_linker_10, # of connection points: 2
#     Edge 38, Type (0, 0), BuildingBlock: TEMPAE_clean_linker_10, # of connection points: 2
#     Edge 39, Type (0, 0), BuildingBlock: TEMPAE_clean_linker_10, # of connection points: 2
#     Edge 40, Type (0, 0), BuildingBlock: TEMPAE_clean_linker_10, # of connection points: 2
#     Edge 41, Type (0, 0), BuildingBlock: TEMPAE_clean_linker_10, # of connection points: 2
#     Edge 42, Type (0, 0), BuildingBlock: TEMPAE_clean_linker_10, # of connection points: 2
#     Edge 43, Type (0, 0), BuildingBlock: TEMPAE_clean_linker_10, # of connection points: 2
#     Edge 44, Type (0, 0), BuildingBlock: TEMPAE_clean_linker_10, # of connection points: 2
#     Edge 45, Type (0, 0), BuildingBlock: TEMPAE_clean_linker_10, # of connection points: 2
#     Edge 46, Type (0, 0), BuildingBlock: TEMPAE_clean_linker_10, # of connection points: 2
#     Edge 47, Type (0, 0), BuildingBlock: TEMPAE_clean_linker_10, # of connection points: 2
#     Edge 48, Type (0, 0), BuildingBlock: TEMPAE_clean_linker_10, # of connection points: 2
#     Edge 49, Type (0, 0), BuildingBlock: TEMPAE_clean_linker_10, # of connection points: 2
#     Edge 50, Type (0, 0), BuildingBlock: TEMPAE_clean_linker_10, # of connection points: 2
#     Edge 51, Type (0, 0), BuildingBlock: TEMPAE_clean_linker_10, # of connection points: 2
#     Edge 52, Type (0, 0), BuildingBlock: TEMPAE_clean_linker_10, # of connection points: 2
#     Edge 53, Type (0, 0), BuildingBlock: TEMPAE_clean_linker_10, # of connection points: 2
#     Edge 54, Type (0, 0), BuildingBlock: TEMPAE_clean_linker_10, # of connection points: 2
#     Edge 55, Type (0, 0), BuildingBlock: TEMPAE_clean_linker_10, # of connection points: 2
#     Edge 56, Type (0, 0), BuildingBlock: TEMPAE_clean_linker_10, # of connection points: 2
#     Edge 57, Type (0, 0), BuildingBlock: TEMPAE_clean_linker_10, # of connection points: 2
#     Edge 58, Type (0, 0), BuildingBlock: TEMPAE_clean_linker_10, # of connection points: 2
#     Edge 59, Type (0, 0), BuildingBlock: TEMPAE_clean_linker_10, # of connection points: 2
#     Edge 60, Type (0, 0), BuildingBlock: TEMPAE_clean_linker_10, # of connection points: 2
#     Edge 61, Type (0, 0), BuildingBlock: TEMPAE_clean_linker_10, # of connection points: 2
#     Edge 62, Type (0, 0), BuildingBlock: TEMPAE_clean_linker_10, # of connection points: 2
#     Edge 63, Type (0, 0), BuildingBlock: TEMPAE_clean_linker_10, # of connection points: 2
#     Edge 64, Type (0, 0), BuildingBlock: TEMPAE_clean_linker_10, # of connection points: 2
#     Edge 65, Type (0, 0), BuildingBlock: TEMPAE_clean_linker_10, # of connection points: 2
#     Edge 66, Type (0, 0), BuildingBlock: TEMPAE_clean_linker_10, # of connection points: 2
#     Edge 67, Type (0, 0), BuildingBlock: TEMPAE_clean_linker_10, # of connection points: 2
#     Edge 68, Type (0, 0), BuildingBlock: TEMPAE_clean_linker_10, # of connection points: 2
#     Edge 69, Type (0, 0), BuildingBlock: TEMPAE_clean_linker_10, # of connection points: 2
#     Edge 70, Type (0, 0), BuildingBlock: TEMPAE_clean_linker_10, # of connection points: 2
#     Edge 71, Type (0, 0), BuildingBlock: TEMPAE_clean_linker_10, # of connection points: 2
#     Edge 72, Type (0, 0), BuildingBlock: TEMPAE_clean_linker_10, # of connection points: 2
#     Edge 73, Type (0, 0), BuildingBlock: TEMPAE_clean_linker_10, # of connection points: 2
#     Edge 74, Type (0, 0), BuildingBlock: TEMPAE_clean_linker_10, # of connection points: 2
#     Edge 75, Type (0, 0), BuildingBlock: TEMPAE_clean_linker_10, # of connection points: 2
#     Edge 76, Type (0, 0), BuildingBlock: TEMPAE_clean_linker_10, # of connection points: 2
#     Edge 77, Type (0, 0), BuildingBlock: TEMPAE_clean_linker_10, # of connection points: 2
#     Edge 78, Type (0, 0), BuildingBlock: TEMPAE_clean_linker_10, # of connection points: 2
#     Edge 79, Type (0, 0), BuildingBlock: TEMPAE_clean_linker_10, # of connection points: 2
#     Edge 80, Type (0, 0), BuildingBlock: TEMPAE_clean_linker_10, # of connection points: 2
#     Edge 81, Type (0, 0), BuildingBlock: TEMPAE_clean_linker_10, # of connection points: 2
#     Edge 82, Type (0, 0), BuildingBlock: TEMPAE_clean_linker_10, # of connection points: 2
#     Edge 83, Type (0, 0), BuildingBlock: TEMPAE_clean_linker_10, # of connection points: 2
#     Edge 84, Type (0, 0), BuildingBlock: TEMPAE_clean_linker_10, # of connection points: 2
#     Edge 85, Type (0, 0), BuildingBlock: TEMPAE_clean_linker_10, # of connection points: 2
#     Edge 86, Type (0, 0), BuildingBlock: TEMPAE_clean_linker_10, # of connection points: 2
#     Edge 87, Type (0, 0), BuildingBlock: TEMPAE_clean_linker_10, # of connection points: 2
#     Edge 88, Type (0, 0), BuildingBlock: TEMPAE_clean_linker_10, # of connection points: 2
#     Edge 89, Type (0, 0), BuildingBlock: TEMPAE_clean_linker_10, # of connection points: 2
#     Edge 90, Type (0, 0), BuildingBlock: TEMPAE_clean_linker_10, # of connection points: 2
#     Edge 91, Type (0, 0), BuildingBlock: TEMPAE_clean_linker_10, # of connection points: 2
#     Edge 92, Type (0, 0), BuildingBlock: TEMPAE_clean_linker_10, # of connection points: 2
#     Edge 93, Type (0, 0), BuildingBlock: TEMPAE_clean_linker_10, # of connection points: 2
#     Edge 94, Type (0, 0), BuildingBlock: TEMPAE_clean_linker_10, # of connection points: 2
#     Edge 95, Type (0, 0), BuildingBlock: TEMPAE_clean_linker_10, # of connection points: 2
#     Edge 96, Type (0, 0), BuildingBlock: TEMPAE_clean_linker_10, # of connection points: 2
#     Edge 97, Type (0, 0), BuildingBlock: TEMPAE_clean_linker_10, # of connection points: 2
#     Edge 98, Type (0, 0), BuildingBlock: TEMPAE_clean_linker_10, # of connection points: 2
#     Edge 99, Type (0, 0), BuildingBlock: TEMPAE_clean_linker_10, # of connection points: 2
#     Edge 100, Type (0, 0), BuildingBlock: TEMPAE_clean_linker_10, # of connection points: 2
#     Edge 101, Type (0, 0), BuildingBlock: TEMPAE_clean_linker_10, # of connection points: 2
#     Edge 102, Type (0, 0), BuildingBlock: TEMPAE_clean_linker_10, # of connection points: 2
#     Edge 103, Type (0, 0), BuildingBlock: TEMPAE_clean_linker_10, # of connection points: 2
#     Edge 104, Type (0, 0), BuildingBlock: TEMPAE_clean_linker_10, # of connection points: 2
#     Edge 105, Type (0, 0), BuildingBlock: TEMPAE_clean_linker_10, # of connection points: 2
#     Edge 106, Type (0, 0), BuildingBlock: TEMPAE_clean_linker_10, # of connection points: 2
#     Edge 107, Type (0, 0), BuildingBlock: TEMPAE_clean_linker_10, # of connection points: 2
# Relax obj value: 0.074
# Max RMSD: 0.099
# Mean RMSD: 0.099
data_MOF--net-ato--node1-GALJAG_clean_sbu_0--edge1-TEMPAE_clean_linker_10
_symmetry_space_group_name_H-M    P1
_symmetry_Int_Tables_number       1
_symmetry_cell_setting            triclinic
loop_
_symmetry_equiv_pos_as_xyz
'x, y, z'
_cell_length_a     109.45179
_cell_length_b     109.44537
_cell_length_c     21.599917
_cell_angle_alpha  89.980339
_cell_angle_beta   90.01525
_cell_angle_gamma 120.01027
loop_
_atom_site_label
_atom_site_type_symbol
_atom_site_fract_x
_atom_site_fract_y
_atom_site_fract_z
_atom_type_partial_charge
In0 In 0.2539 0.05796 0.26923 0.0
O1 O 0.25662 0.04808 0.35787 0.0
O2 O 0.23629 0.04499 0.33734 0.0
C3 C 0.28083 0.06999 0.22951 0.0
C4 C 0.24149 0.03734 0.18471 0.0
C5 C 0.24949 0.08005 0.28038 0.0
O6 O 0.27767 0.06849 0.28635 0.0
O7 O 0.27045 0.0654 0.19312 0.0
O8 O 0.24058 0.06858 0.25558 0.0
O9 O 0.26041 0.08026 0.30021 0.0
C10 C 0.24375 0.04225 0.37278 0.0
O11 O 0.24155 0.04888 0.17963 0.0
O12 O 0.2478 0.03638 0.23174 0.0
In13 In 0.94353 0.19694 0.23504 0.0
O14 O 0.96125 0.21592 0.28433 0.0
O15 O 0.95385 0.19572 0.32492 0.0
C16 C 0.92843 0.20993 0.21336 0.0
C17 C 0.96174 0.19984 0.14419 0.0
C18 C 0.92231 0.17025 0.25237 0.0
O19 O 0.93567 0.21213 0.26183 0.0
O20 O 0.92872 0.20115 0.17661 0.0
O21 O 0.92839 0.17474 0.201 0.0
O22 O 0.92712 0.17913 0.29586 0.0
C23 C 0.96244 0.20883 0.32756 0.0
O24 O 0.9587 0.19114 0.18785 0.0
O25 O 0.95544 0.20682 0.14605 0.0
In26 In 0.80385 0.74747 0.25003 0.0
O27 O 0.80741 0.76838 0.21036 0.0
O28 O 0.79937 0.75072 0.1502 0.0
C29 C 0.83015 0.7521 0.27278 0.0
C30 C 0.7917 0.75341 0.34531 0.0
C31 C 0.78846 0.71996 0.21872 0.0
O32 O 0.82794 0.7608 0.24379 0.0
O33 O 0.81916 0.74128 0.2914 0.0
O34 O 0.7862 0.72484 0.26763 0.0
O35 O 0.79846 0.72895 0.18587 0.0
C36 C 0.80296 0.76352 0.15701 0.0
O37 O 0.78561 0.74866 0.29415 0.0
O38 O 0.80385 0.75483 0.34923 0.0
In39 In 0.05685 0.25334 0.74643 0.0
O40 O 0.04943 0.24928 0.84669 0.0
O41 O 0.03946 0.23216 0.78405 0.0
C42 C 0.07855 0.24911 0.7191 0.0
C43 C 0.03908 0.24829 0.65055 0.0
C44 C 0.06906 0.28048 0.78386 0.0
O45 O 0.06753 0.2399 0.74597 0.0
O46 O 0.07843 0.2602 0.70474 0.0
O47 O 0.06105 0.27596 0.73716 0.0
O48 O 0.07086 0.27133 0.8113 0.0
C49 C 0.04009 0.23659 0.83846 0.0
O50 O 0.03754 0.25254 0.70264 0.0
O51 O 0.04989 0.24701 0.64604 0.0
In52 In 0.74735 0.80486 0.75949 0.0
O53 O 0.74615 0.78594 0.71006 0.0
O54 O 0.75916 0.80622 0.67038 0.0
C55 C 0.71913 0.79183 0.7774 0.0
C56 C 0.76225 0.80147 0.85079 0.0
C57 C 0.75316 0.83172 0.74388 0.0
O58 O 0.7245 0.79013 0.7288 0.0
O59 O 0.72796 0.80015 0.81623 0.0
O60 O 0.75409 0.82687 0.79549 0.0
O61 O 0.74957 0.82312 0.69946 0.0
C62 C 0.75458 0.7931 0.66738 0.0
O63 O 0.76812 0.81018 0.80733 0.0
O64 O 0.74897 0.79476 0.84865 0.0
In65 In 0.19599 0.94256 0.76765 0.0
O66 O 0.20561 0.95198 0.67337 0.0
O67 O 0.19608 0.96155 0.72529 0.0
C68 C 0.2098 0.92814 0.78614 0.0
C69 C 0.20431 0.96082 0.86284 0.0
C70 C 0.16898 0.92182 0.75091 0.0
O71 O 0.21261 0.9365 0.74118 0.0
O72 O 0.20005 0.92703 0.82082 0.0
O73 O 0.17443 0.92604 0.8035 0.0
O74 O 0.17703 0.92826 0.70609 0.0
C75 C 0.2028 0.96186 0.67735 0.0
O76 O 0.19149 0.95326 0.84797 0.0
O77 O 0.21282 0.95892 0.83052 0.0
In78 In 0.74854 0.94471 0.75213 0.0
O79 O 0.76964 0.96146 0.79306 0.0
O80 O 0.75147 0.95357 0.84985 0.0
C81 C 0.75312 0.92317 0.72674 0.0
C82 C 0.75399 0.96257 0.65616 0.0
C83 C 0.7211 0.93116 0.78521 0.0
O84 O 0.76136 0.93349 0.76022 0.0
O85 O 0.74285 0.92394 0.70483 0.0
O86 O 0.72581 0.93987 0.74097 0.0
O87 O 0.73023 0.92933 0.81271 0.0
C88 C 0.76451 0.96203 0.84446 0.0
O89 O 0.74799 0.96305 0.70511 0.0
O90 O 0.75693 0.95279 0.65471 0.0
In91 In 0.05737 0.80314 0.72223 0.0
O92 O 0.04865 0.79034 0.63301 0.0
O93 O 0.04553 0.80775 0.64867 0.0
C94 C 0.06877 0.78682 0.75023 0.0
C95 C 0.03808 0.79756 0.81213 0.0
C96 C 0.07831 0.83011 0.7107 0.0
O97 O 0.05598 0.78163 0.73523 0.0
O98 O 0.07571 0.8001 0.75051 0.0
O99 O 0.0685 0.82641 0.7498 0.0
O100 O 0.07736 0.82028 0.67681 0.0
C101 C 0.04308 0.79741 0.61473 0.0
O102 O 0.03523 0.79609 0.75536 0.0
O103 O 0.05091 0.80211 0.82455 0.0
In104 In 0.19656 0.25513 0.75154 0.0
O105 O 0.19586 0.24602 0.65555 0.0
O106 O 0.21471 0.25366 0.70817 0.0
C107 C 0.21009 0.28337 0.77174 0.0
C108 C 0.19899 0.24015 0.84511 0.0
C109 C 0.16954 0.2484 0.73285 0.0
O110 O 0.21396 0.27786 0.73056 0.0
O111 O 0.19938 0.2747 0.80173 0.0
O112 O 0.17383 0.246 0.78307 0.0
O113 O 0.17882 0.25394 0.69117 0.0
C114 C 0.2082 0.24788 0.65886 0.0
O115 O 0.19202 0.23438 0.79674 0.0
O116 O 0.20443 0.25337 0.84668 0.0
In117 In 0.94248 0.74663 0.22382 0.0
O118 O 0.95438 0.76358 0.15112 0.0
O119 O 0.95617 0.74512 0.14845 0.0
C120 C 0.92189 0.75304 0.24298 0.0
C121 C 0.96246 0.75826 0.31211 0.0
C122 C 0.92825 0.71838 0.20695 0.0
O123 O 0.92629 0.75232 0.18999 0.0
O124 O 0.92812 0.75086 0.28708 0.0
O125 O 0.93805 0.72431 0.24619 0.0
O126 O 0.92565 0.72668 0.17676 0.0
C127 C 0.95987 0.7571 0.12572 0.0
O128 O 0.95176 0.74613 0.31844 0.0
O129 O 0.96263 0.7646 0.26316 0.0
In130 In 0.25311 0.19719 0.24339 0.0
O131 O 0.25401 0.2159 0.29359 0.0
O132 O 0.24166 0.19558 0.33393 0.0
C133 C 0.28131 0.21007 0.2247 0.0
C134 C 0.23848 0.20089 0.15183 0.0
C135 C 0.24685 0.1702 0.25864 0.0
O136 O 0.27601 0.21255 0.27152 0.0
O137 O 0.27243 0.20108 0.18799 0.0
O138 O 0.24495 0.17484 0.20827 0.0
O139 O 0.25163 0.1791 0.30205 0.0
C140 C 0.2459 0.20863 0.33697 0.0
O141 O 0.23249 0.19276 0.19699 0.0
O142 O 0.25175 0.20689 0.15242 0.0
In143 In 0.80425 0.05783 0.24035 0.0
O144 O 0.80916 0.04159 0.19825 0.0
O145 O 0.79907 0.04967 0.14129 0.0
C146 C 0.83027 0.07937 0.26752 0.0
C147 C 0.79171 0.03947 0.33461 0.0
C148 C 0.78978 0.07084 0.20796 0.0
O149 O 0.82834 0.06887 0.23586 0.0
O150 O 0.81913 0.07882 0.28668 0.0
O151 O 0.78591 0.06201 0.25167 0.0
O152 O 0.8009 0.07307 0.18067 0.0
C153 C 0.80377 0.0413 0.14633 0.0
O154 O 0.80395 0.05004 0.33908 0.0
O155 O 0.78572 0.03843 0.28348 0.0
In156 In 0.91957 0.38977 0.56267 0.0
O157 O 0.90471 0.37861 0.48173 0.0
O158 O 0.91968 0.37241 0.50588 0.0
C159 C 0.91345 0.41061 0.57842 0.0
C160 C 0.90705 0.37121 0.65542 0.0
C161 C 0.94763 0.40448 0.54046 0.0
O162 O 0.91332 0.40539 0.5263 0.0
O163 O 0.91636 0.40512 0.62325 0.0
O164 O 0.94253 0.39678 0.58774 0.0
O165 O 0.93862 0.40478 0.50519 0.0
C166 C 0.90961 0.37053 0.47121 0.0
O167 O 0.92009 0.38019 0.65586 0.0
O168 O 0.90033 0.37206 0.60971 0.0
In169 In 0.60862 0.52912 0.59781 0.0
O170 O 0.62812 0.52936 0.5602 0.0
O171 O 0.61612 0.53386 0.49692 0.0
C172 C 0.58736 0.50208 0.60193 0.0
C173 C 0.62537 0.53797 0.6988 0.0
C174 C 0.59655 0.54524 0.58254 0.0
O175 O 0.5928 0.50839 0.55182 0.0
O176 O 0.59278 0.50933 0.65005 0.0
O177 O 0.58996 0.53288 0.60424 0.0
O178 O 0.60938 0.54965 0.57046 0.0
C179 C 0.62692 0.53278 0.50594 0.0
O180 O 0.61979 0.54474 0.6771 0.0
O181 O 0.62189 0.5265 0.67154 0.0
In182 In 0.47022 0.07887 0.58467 0.0
O183 O 0.45927 0.07727 0.67704 0.0
O184 O 0.47278 0.09765 0.63963 0.0
C185 C 0.45655 0.05163 0.54829 0.0
C186 C 0.46147 0.08971 0.49484 0.0
C187 C 0.4967 0.08419 0.60725 0.0
O188 O 0.45358 0.05569 0.59788 0.0
O189 O 0.46644 0.0613 0.51736 0.0
O190 O 0.49405 0.09132 0.56927 0.0
O191 O 0.48604 0.07457 0.6346 0.0
C192 C 0.46429 0.09042 0.6819 0.0
O193 O 0.47401 0.09207 0.4972 0.0
O194 O 0.45342 0.08163 0.53651 0.0
In195 In 0.72359 0.58772 0.10333 0.0
O196 O 0.71101 0.56919 0.16815 0.0
O197 O 0.71114 0.58835 0.18658 0.0
C198 C 0.74418 0.58118 0.08715 0.0
C199 C 0.70413 0.5774 0.01215 0.0
C200 C 0.73696 0.616 0.12064 0.0
O201 O 0.74014 0.58282 0.13946 0.0
O202 O 0.73758 0.58248 0.0421 0.0
O203 O 0.7263 0.60966 0.08599 0.0
O204 O 0.74081 0.60811 0.1459 0.0
C205 C 0.70662 0.57565 0.20159 0.0
O206 O 0.71609 0.58826 0.00426 0.0
O207 O 0.70234 0.5717 0.0645 0.0
In208 In 0.4107 0.13468 0.08191 0.0
O209 O 0.40958 0.12474 0.98708 0.0
O210 O 0.42969 0.13746 0.02849 0.0
C211 C 0.38227 0.11898 0.09299 0.0
C212 C 0.42237 0.12723 0.17336 0.0
C213 C 0.41684 0.16181 0.08458 0.0
O214 O 0.38814 0.12938 0.05676 0.0
O215 O 0.39066 0.11637 0.12202 0.0
O216 O 0.41184 0.1537 0.13076 0.0
O217 O 0.41902 0.1563 0.03762 0.0
C218 C 0.42274 0.12957 0.98409 0.0
O219 O 0.42362 0.13936 0.17147 0.0
O220 O 0.41511 0.11906 0.13028 0.0
In221 In 0.86259 0.27422 0.0597 0.0
O222 O 0.85937 0.28287 0.15091 0.0
O223 O 0.87908 0.29446 0.10463 0.0
C224 C 0.83621 0.2526 0.04035 0.0
C225 C 0.86741 0.29093 0.96035 0.0
C226 C 0.87692 0.26124 0.09451 0.0
O227 O 0.83871 0.26306 0.07374 0.0
O228 O 0.84695 0.25323 0.01563 0.0
O229 O 0.87989 0.26859 0.04581 0.0
O230 O 0.86675 0.26046 0.12528 0.0
C231 C 0.87153 0.2937 0.15011 0.0
O232 O 0.87277 0.28309 0.96554 0.0
O233 O 0.85917 0.28978 0.00362 0.0
In234 In 0.41273 0.27545 0.09213 0.0
O235 O 0.41254 0.29388 0.04439 0.0
O236 O 0.42194 0.28382 0.99586 0.0
C237 C 0.38503 0.2616 0.12127 0.0
C238 C 0.4282 0.29323 0.18381 0.0
C239 C 0.41796 0.25408 0.07352 0.0
O240 O 0.38982 0.26946 0.07428 0.0
O241 O 0.39419 0.26071 0.15329 0.0
O242 O 0.42492 0.26395 0.11125 0.0
O243 O 0.40867 0.25522 0.04372 0.0
C244 C 0.41896 0.29358 0.99652 0.0
O245 O 0.43366 0.29209 0.13436 0.0
O246 O 0.41503 0.28517 0.18747 0.0
In247 In 0.72244 0.13524 0.08372 0.0
O248 O 0.70827 0.11759 0.01722 0.0
O249 O 0.7089 0.13726 0.00916 0.0
C250 C 0.73733 0.12209 0.1042 0.0
C251 C 0.70329 0.1301 0.17345 0.0
C252 C 0.74406 0.16183 0.06761 0.0
O253 O 0.73113 0.12103 0.05345 0.0
O254 O 0.73604 0.12979 0.1441 0.0
O255 O 0.73857 0.15699 0.11966 0.0
O256 O 0.73851 0.15334 0.02314 0.0
C257 C 0.70365 0.12471 0.99038 0.0
O258 O 0.70708 0.14003 0.13519 0.0
O259 O 0.70945 0.12305 0.16766 0.0
In260 In 0.86223 0.5866 0.08243 0.0
O261 O 0.85946 0.5749 0.1738 0.0
O262 O 0.87948 0.58437 0.12932 0.0
C263 C 0.83568 0.58145 0.06335 0.0
C264 C 0.86691 0.57383 0.98615 0.0
C265 C 0.87653 0.61427 0.11121 0.0
O266 O 0.83844 0.57424 0.10039 0.0
O267 O 0.84623 0.59104 0.03534 0.0
O268 O 0.87891 0.60944 0.06243 0.0
O269 O 0.86692 0.60515 0.14523 0.0
C270 C 0.87198 0.57716 0.17421 0.0
O271 O 0.87199 0.58703 0.98833 0.0
O272 O 0.859 0.56713 0.03094 0.0
In273 In 0.60804 0.07678 0.57398 0.0
O274 O 0.614 0.07748 0.67681 0.0
O275 O 0.63026 0.08895 0.61139 0.0
C276 C 0.59594 0.0484 0.5621 0.0
C277 C 0.62313 0.09057 0.47326 0.0
C278 C 0.58786 0.08393 0.58647 0.0
O279 O 0.60901 0.05631 0.56991 0.0
O280 O 0.58902 0.05475 0.56152 0.0
O281 O 0.59092 0.08053 0.5355 0.0
O282 O 0.59527 0.08411 0.63167 0.0
C283 C 0.62705 0.08547 0.66708 0.0
O284 O 0.62197 0.09686 0.51987 0.0
O285 O 0.6162 0.07727 0.47643 0.0
In286 In 0.92026 0.52933 0.58758 0.0
O287 O 0.90861 0.52652 0.49607 0.0
O288 O 0.91814 0.5466 0.53992 0.0
C289 C 0.915 0.50273 0.60548 0.0
C290 C 0.90745 0.53379 0.68437 0.0
C291 C 0.94797 0.54352 0.55964 0.0
O292 O 0.9077 0.50559 0.56942 0.0
O293 O 0.92472 0.51322 0.63332 0.0
O294 O 0.94303 0.54633 0.6069 0.0
O295 O 0.93894 0.53358 0.52666 0.0
C296 C 0.91091 0.53904 0.49521 0.0
O297 O 0.92064 0.5388 0.68247 0.0
O298 O 0.90079 0.52608 0.63903 0.0
In299 In 0.46913 0.38914 0.58083 0.0
O300 O 0.45062 0.36994 0.62533 0.0
O301 O 0.46931 0.38112 0.6786 0.0
C302 C 0.45481 0.40238 0.54938 0.0
C303 C 0.46799 0.37226 0.48721 0.0
C304 C 0.49539 0.41067 0.60454 0.0
O305 O 0.45143 0.39419 0.59539 0.0
O306 O 0.46538 0.40386 0.51954 0.0
O307 O 0.49313 0.40033 0.57091 0.0
O308 O 0.48446 0.40994 0.62754 0.0
C309 C 0.45692 0.37073 0.6753 0.0
O310 O 0.47371 0.37271 0.53845 0.0
O311 O 0.46323 0.3806 0.48275 0.0
In312 In 0.58799 0.72475 0.91296 0.0
O313 O 0.57561 0.71611 0.82292 0.0
O314 O 0.58656 0.70626 0.86006 0.0
C315 C 0.5827 0.7459 0.93563 0.0
C316 C 0.57562 0.70658 0.00761 0.0
C317 C 0.61553 0.73867 0.88202 0.0
O318 O 0.57552 0.73613 0.89767 0.0
O319 O 0.59222 0.74476 0.96327 0.0
O320 O 0.61088 0.73043 0.92795 0.0
O321 O 0.6063 0.73987 0.85198 0.0
C322 C 0.57864 0.70642 0.81803 0.0
O323 O 0.58866 0.71546 0.00712 0.0
O324 O 0.56884 0.70738 0.96214 0.0
In325 In 0.27608 0.86242 0.90854 0.0
O326 O 0.28501 0.8713 0.00406 0.0
O327 O 0.29299 0.85966 0.95707 0.0
C328 C 0.26186 0.87622 0.88496 0.0
C329 C 0.29558 0.87251 0.81798 0.0
C330 C 0.25503 0.83549 0.92227 0.0
O331 O 0.27019 0.87932 0.93024 0.0
O332 O 0.26064 0.86613 0.85236 0.0
O333 O 0.26203 0.84006 0.87288 0.0
O334 O 0.25887 0.84443 0.96547 0.0
C335 C 0.29366 0.86683 0.00403 0.0
O336 O 0.28658 0.85955 0.82268 0.0
O337 O 0.29456 0.8803 0.85823 0.0
In338 In 0.13484 0.41135 0.92648 0.0
O339 O 0.12582 0.41158 0.02144 0.0
O340 O 0.13799 0.43117 0.97463 0.0
C341 C 0.12078 0.38322 0.9046 0.0
C342 C 0.12529 0.42133 0.83601 0.0
C343 C 0.16174 0.41709 0.93931 0.0
O344 O 0.11803 0.38856 0.95054 0.0
O345 O 0.1306 0.39202 0.87064 0.0
O346 O 0.1567 0.41817 0.88848 0.0
O347 O 0.15329 0.41335 0.98438 0.0
C348 C 0.13064 0.42477 0.02136 0.0
O349 O 0.13817 0.42507 0.84149 0.0
O350 O 0.11726 0.41243 0.87542 0.0
In351 In 0.39148 0.92084 0.40418 0.0
O352 O 0.38121 0.90755 0.49034 0.0
O353 O 0.37337 0.92059 0.45674 0.0
C354 C 0.41211 0.91439 0.391 0.0
C355 C 0.3736 0.90744 0.30985 0.0
C356 C 0.40614 0.949 0.42523 0.0
O357 O 0.40549 0.91265 0.44097 0.0
O358 O 0.40815 0.91915 0.34686 0.0
O359 O 0.39729 0.94364 0.38182 0.0
O360 O 0.40763 0.9402 0.45716 0.0
C361 C 0.37238 0.91168 0.49643 0.0
O362 O 0.38243 0.92051 0.30847 0.0
O363 O 0.37422 0.90113 0.35758 0.0
In364 In 0.07978 0.47166 0.42195 0.0
O365 O 0.09358 0.47458 0.50634 0.0
O366 O 0.07935 0.45369 0.47607 0.0
C367 C 0.08616 0.49879 0.41007 0.0
C368 C 0.09284 0.4668 0.32757 0.0
C369 C 0.05155 0.458 0.44053 0.0
O370 O 0.08644 0.49339 0.46124 0.0
O371 O 0.08298 0.4906 0.36423 0.0
O372 O 0.05713 0.45471 0.39735 0.0
O373 O 0.06015 0.4682 0.47333 0.0
C374 C 0.08877 0.46152 0.51407 0.0
O375 O 0.07991 0.46313 0.32575 0.0
O376 O 0.09925 0.47342 0.37579 0.0
In377 In 0.53177 0.60936 0.41021 0.0
O378 O 0.52857 0.61886 0.49855 0.0
O379 O 0.5482 0.6302 0.45104 0.0
C380 C 0.50529 0.58733 0.39684 0.0
C381 C 0.53678 0.62582 0.30969 0.0
C382 C 0.54652 0.59695 0.44729 0.0
O383 O 0.50797 0.59813 0.42798 0.0
O384 O 0.51589 0.58773 0.37192 0.0
O385 O 0.54595 0.59995 0.39125 0.0
O386 O 0.53965 0.60018 0.48422 0.0
C387 C 0.54064 0.6298 0.49601 0.0
O388 O 0.54342 0.61934 0.31973 0.0
O389 O 0.52723 0.6234 0.34845 0.0
In390 In 0.07916 0.61058 0.4232 0.0
O391 O 0.07948 0.6297 0.37991 0.0
O392 O 0.08822 0.61957 0.32735 0.0
C393 C 0.05143 0.59625 0.45089 0.0
C394 C 0.0939 0.62732 0.51904 0.0
C395 C 0.08443 0.58941 0.3993 0.0
O396 O 0.05623 0.6042 0.40411 0.0
O397 O 0.06063 0.59553 0.4835 0.0
O398 O 0.09223 0.59967 0.43395 0.0
O399 O 0.07422 0.59002 0.37562 0.0
C400 C 0.08561 0.62955 0.33086 0.0
O401 O 0.09984 0.6258 0.47204 0.0
O402 O 0.08062 0.62006 0.51838 0.0
In403 In 0.3908 0.47035 0.4284 0.0
O404 O 0.38151 0.46127 0.33345 0.0
O405 O 0.37312 0.47223 0.38296 0.0
C406 C 0.40461 0.45594 0.44702 0.0
C407 C 0.37173 0.46137 0.52065 0.0
C408 C 0.41223 0.49718 0.41578 0.0
O409 O 0.39651 0.45353 0.40139 0.0
O410 O 0.40575 0.46558 0.4825 0.0
O411 O 0.4068 0.4918 0.46729 0.0
O412 O 0.40664 0.48914 0.36994 0.0
C413 C 0.37244 0.46519 0.33553 0.0
O414 O 0.37992 0.47431 0.50968 0.0
O415 O 0.3734 0.45305 0.486 0.0
In416 In 0.52999 0.91859 0.41166 0.0
O417 O 0.54877 0.91873 0.36617 0.0
O418 O 0.53013 0.91139 0.31244 0.0
C419 C 0.5469 0.9456 0.44736 0.0
C420 C 0.52953 0.90113 0.50124 0.0
C421 C 0.50406 0.91515 0.3896 0.0
O422 O 0.54576 0.94176 0.39153 0.0
O423 O 0.53963 0.9358 0.48502 0.0
O424 O 0.5058 0.9051 0.40638 0.0
O425 O 0.51531 0.92673 0.38307 0.0
C426 C 0.54262 0.91366 0.31539 0.0
O427 O 0.52963 0.91247 0.51293 0.0
O428 O 0.52914 0.89836 0.44441 0.0
In429 In 0.27538 0.41306 0.93213 0.0
O430 O 0.28467 0.41162 0.0249 0.0
O431 O 0.29043 0.43196 0.98996 0.0
C432 C 0.26258 0.38589 0.89547 0.0
C433 C 0.29511 0.42391 0.84284 0.0
C434 C 0.25342 0.41726 0.95205 0.0
O435 O 0.26905 0.38994 0.94647 0.0
O436 O 0.2626 0.39554 0.86335 0.0
O437 O 0.26389 0.42553 0.91936 0.0
O438 O 0.25421 0.40714 0.9756 0.0
C439 C 0.29203 0.42484 0.03173 0.0
O440 O 0.28426 0.42521 0.84163 0.0
O441 O 0.29579 0.41705 0.88825 0.0
In442 In 0.58893 0.8645 0.90003 0.0
O443 O 0.56803 0.85787 0.8502 0.0
O444 O 0.58667 0.8753 0.81461 0.0
C445 C 0.58351 0.83773 0.91375 0.0
C446 C 0.58146 0.87603 0.99222 0.0
C447 C 0.61722 0.87776 0.88378 0.0
O448 O 0.58408 0.84319 0.86166 0.0
O449 O 0.58546 0.8457 0.95939 0.0
O450 O 0.61169 0.87837 0.93408 0.0
O451 O 0.60852 0.87044 0.84237 0.0
C452 C 0.5735 0.86747 0.80992 0.0
O453 O 0.58986 0.88329 0.94962 0.0
O454 O 0.57706 0.86295 0.98908 0.0
In455 In 0.13488 0.7237 0.91228 0.0
O456 O 0.1162 0.70564 0.96124 0.0
O457 O 0.13536 0.71674 0.01169 0.0
C458 C 0.11788 0.7338 0.878 0.0
C459 C 0.13459 0.70595 0.82464 0.0
C460 C 0.16123 0.74608 0.92846 0.0
O461 O 0.11998 0.73209 0.93406 0.0
O462 O 0.12427 0.73031 0.83952 0.0
O463 O 0.15905 0.73397 0.91482 0.0
O464 O 0.15021 0.74683 0.93476 0.0
C465 C 0.12274 0.70673 0.01087 0.0
O466 O 0.13423 0.717 0.81165 0.0
O467 O 0.13555 0.70411 0.8816 0.0
C468 C 0.2133 0.97259 0.57477 0.0
C469 C 0.208 0.97357 0.6324 0.0
C470 C 0.21892 0.98401 0.53332 0.0
C471 C 0.2195 0.99678 0.5506 0.0
C472 C 0.21415 0.99781 0.60875 0.0
C473 C 0.20833 0.98614 0.6487 0.0
C474 C 0.22429 0.98243 0.47115 0.0
C475 C 0.21478 0.01131 0.62923 0.0
C476 C 0.24615 0.02986 0.46527 0.0
C477 C 0.23753 0.03158 0.4224 0.0
C478 C 0.24038 0.01877 0.50845 0.0
C479 C 0.22568 0.00905 0.50771 0.0
C480 C 0.21691 0.0109 0.46517 0.0
C481 C 0.22292 0.02223 0.42344 0.0
C482 C 0.25002 0.01731 0.55405 0.0
C483 C 0.20123 0.00065 0.46235 0.0
H484 H 0.21305 0.96288 0.56207 0.0
H485 H 0.20436 0.987 0.69352 0.0
H486 H 0.21883 0.98473 0.4335 0.0
H487 H 0.23572 0.99017 0.46695 0.0
H488 H 0.22267 0.97167 0.46402 0.0
H489 H 0.21026 0.01041 0.67618 0.0
H490 H 0.2259 0.02005 0.62947 0.0
H491 H 0.20893 0.01424 0.5961 0.0
H492 H 0.25745 0.03707 0.46456 0.0
H493 H 0.21622 0.02344 0.38998 0.0
H494 H 0.25003 0.00732 0.54531 0.0
H495 H 0.24614 0.01678 0.60197 0.0
H496 H 0.26105 0.02621 0.551 0.0
H497 H 0.19932 0.98995 0.45086 0.0
H498 H 0.19584 0.00373 0.42724 0.0
H499 H 0.19633 -6e-05 0.50814 0.0
C500 C 0.01607 0.2446 0.61066 0.0
C501 C 0.02846 0.24409 0.60072 0.0
C502 C 0.0053 0.23948 0.56609 0.0
C503 C 0.00699 0.23374 0.51022 0.0
C504 C 0.01966 0.23357 0.49916 0.0
C505 C 0.03025 0.23873 0.54463 0.0
C506 C 0.99195 0.23986 0.57954 0.0
C507 C 0.02188 0.2276 0.43997 0.0
C508 C 0.97424 0.20704 0.42341 0.0
C509 C 0.97346 0.21531 0.37574 0.0
C510 C 0.98504 0.21294 0.46783 0.0
C511 C 0.99532 0.22745 0.46427 0.0
C512 C 0.99449 0.23589 0.4166 0.0
C513 C 0.98355 0.22971 0.37295 0.0
C514 C 0.98552 0.20363 0.51822 0.0
C515 C 0.00527 0.25138 0.41126 0.0
H516 H 0.01462 0.24872 0.65397 0.0
H517 H 0.03981 0.23831 0.53673 0.0
H518 H 0.9898 0.24538 0.5417 0.0
H519 H 0.98286 0.22894 0.58166 0.0
H520 H 0.99255 0.24524 0.62398 0.0
H521 H 0.03258 0.22885 0.43725 0.0
H522 H 0.01396 0.2162 0.43661 0.0
H523 H 0.02033 0.23288 0.39935 0.0
H524 H 0.96647 0.1959 0.42577 0.0
H525 H 0.98301 0.23615 0.33609 0.0
H526 H 0.98527 0.20795 0.56434 0.0
H527 H 0.99554 0.20343 0.51521 0.0
H528 H 0.97658 0.19262 0.51519 0.0
H529 H 0.00556 0.25693 0.45468 0.0
H530 H 0.003 0.25652 0.37205 0.0
H531 H 0.01593 0.25275 0.4046 0.0
C532 C 0.79265 0.7633 0.45071 0.0
C533 C 0.78545 0.75788 0.39479 0.0
C534 C 0.78727 0.76852 0.49609 0.0
C535 C 0.77444 0.76837 0.48503 0.0
C536 C 0.76698 0.76263 0.4292 0.0
C537 C 0.77256 0.75742 0.3848 0.0
C538 C 0.79547 0.77447 0.5553 0.0
C539 C 0.75328 0.76231 0.4157 0.0
C540 C 0.75491 0.77228 0.62201 0.0
C541 C 0.75922 0.78668 0.61937 0.0
C542 C 0.75974 0.76615 0.57846 0.0
C543 C 0.76905 0.77463 0.53103 0.0
C544 C 0.77328 0.78914 0.52764 0.0
C545 C 0.76834 0.795 0.57199 0.0
C546 C 0.75502 0.75065 0.58362 0.0
C547 C 0.78312 0.7985 0.47746 0.0
H548 H 0.8026 0.76366 0.45865 0.0
H549 H 0.76696 0.75325 0.34159 0.0
H550 H 0.79891 0.78586 0.55882 0.0
H551 H 0.78864 0.76915 0.59588 0.0
H552 H 0.80493 0.77325 0.55793 0.0
H553 H 0.74853 0.75702 0.37106 0.0
H554 H 0.74557 0.75672 0.45333 0.0
H555 H 0.75513 0.77324 0.41399 0.0
H556 H 0.74788 0.7658 0.65866 0.0
H557 H 0.7717 0.80614 0.56975 0.0
H558 H 0.76432 0.74929 0.59013 0.0
H559 H 0.74974 0.74513 0.54018 0.0
H560 H 0.74763 0.74549 0.62284 0.0
H561 H 0.79333 0.79867 0.48052 0.0
H562 H 0.7852 0.80951 0.48066 0.0
H563 H 0.77856 0.79422 0.43124 0.0
C564 C 0.76615 0.97321 0.55611 0.0
C565 C 0.75814 0.97325 0.60666 0.0
C566 C 0.77109 0.98395 0.51142 0.0
C567 C 0.76792 0.99495 0.51743 0.0
C568 C 0.75954 0.99484 0.56753 0.0
C569 C 0.75476 0.984 0.61162 0.0
C570 C 0.77999 0.9837 0.45853 0.0
C571 C 0.75586 0.00635 0.57528 0.0
C572 C 0.79266 0.02966 0.43788 0.0
C573 C 0.78523 0.0286 0.38341 0.0
C574 C 0.78704 0.01887 0.48239 0.0
C575 C 0.77367 0.00676 0.47209 0.0
C576 C 0.76599 0.00578 0.41783 0.0
C577 C 0.77187 0.01673 0.37411 0.0
C578 C 0.79552 0.0203 0.53983 0.0
C579 C 0.7517 0.99306 0.40534 0.0
H580 H 0.7688 0.96494 0.55213 0.0
H581 H 0.74856 0.98407 0.65061 0.0
H582 H 0.77523 0.98402 0.41364 0.0
H583 H 0.79065 0.9932 0.46062 0.0
H584 H 0.78113 0.97418 0.45944 0.0
H585 H 0.74876 0.00441 0.61538 0.0
H586 H 0.76564 0.01665 0.58203 0.0
H587 H 0.75065 0.00724 0.53283 0.0
H588 H 0.80299 0.03881 0.44525 0.0
H589 H 0.76608 0.01585 0.33205 0.0
H590 H 0.79808 0.01169 0.54124 0.0
H591 H 0.78923 0.01925 0.58182 0.0
H592 H 0.80553 0.03057 0.5418 0.0
H593 H 0.75271 0.98349 0.40143 0.0
H594 H 0.74685 0.99418 0.36208 0.0
H595 H 0.74445 0.99131 0.44451 0.0
C596 C 0.02403 0.79874 0.55779 0.0
C597 C 0.03269 0.79274 0.56388 0.0
C598 C 0.01274 0.79322 0.51598 0.0
C599 C 0.0102 0.78159 0.47846 0.0
C600 C 0.01925 0.77585 0.48252 0.0
C601 C 0.03034 0.78142 0.52569 0.0
C602 C 0.00324 0.79954 0.51349 0.0
C603 C 0.01703 0.76363 0.44223 0.0
C604 C 0.97315 0.75864 0.41503 0.0
C605 C 0.97447 0.76427 0.35558 0.0
C606 C 0.98472 0.76418 0.45564 0.0
C607 C 0.99794 0.77538 0.43561 0.0
C608 C 0.99935 0.78095 0.3753 0.0
C609 C 0.98755 0.77543 0.33625 0.0
C610 C 0.98278 0.75815 0.52013 0.0
C611 C 0.01331 0.79273 0.35193 0.0
H612 H 0.02573 0.80743 0.58753 0.0
H613 H 0.037 0.77675 0.53036 0.0
H614 H 0.00288 0.80308 0.46575 0.0
H615 H 0.99231 0.79142 0.52614 0.0
H616 H 0.00676 0.80867 0.54532 0.0
H617 H 0.02549 0.76094 0.44846 0.0
H618 H 0.00675 0.75419 0.45344 0.0
H619 H 0.01667 0.76617 0.39276 0.0
H620 H 0.96304 0.75 0.42998 0.0
H621 H 0.98865 0.7797 0.28997 0.0
H622 H 0.98542 0.76658 0.55485 0.0
H623 H 0.99008 0.75403 0.52778 0.0
H624 H 0.97181 0.74949 0.52856 0.0
H625 H 0.01679 0.8023 0.38071 0.0
H626 H 0.01275 0.79548 0.30289 0.0
H627 H 0.02151 0.78963 0.35596 0.0
C628 C 0.2452 0.22917 0.38343 0.0
C629 C 0.24118 0.21483 0.38567 0.0
C630 C 0.24022 0.23506 0.42743 0.0
C631 C 0.23106 0.22642 0.47491 0.0
C632 C 0.22714 0.21199 0.47797 0.0
C633 C 0.23223 0.20636 0.43319 0.0
C634 C 0.24461 0.25049 0.42261 0.0
C635 C 0.21746 0.20246 0.52818 0.0
C636 C 0.22729 0.24365 0.62062 0.0
C637 C 0.21433 0.24302 0.61044 0.0
C638 C 0.23291 0.23838 0.5767 0.0
C639 C 0.22544 0.23243 0.52109 0.0
C640 C 0.21248 0.23201 0.51004 0.0
C641 C 0.20705 0.23727 0.555 0.0
C642 C 0.24673 0.23895 0.59025 0.0
C643 C 0.20427 0.22584 0.45104 0.0
H644 H 0.2521 0.23576 0.3467 0.0
H645 H 0.2291 0.19527 0.43512 0.0
H646 H 0.23515 0.2516 0.41624 0.0
H647 H 0.24981 0.25603 0.46613 0.0
H648 H 0.25196 0.25581 0.38344 0.0
H649 H 0.21569 0.19157 0.52489 0.0
H650 H 0.22196 0.20681 0.57439 0.0
H651 H 0.2071 0.20197 0.52519 0.0
H652 H 0.23295 0.24805 0.6635 0.0
H653 H 0.19704 0.23678 0.54692 0.0
H654 H 0.25445 0.24476 0.55294 0.0
H655 H 0.24511 0.2281 0.59132 0.0
H656 H 0.25135 0.24416 0.63518 0.0
H657 H 0.21097 0.23133 0.41033 0.0
H658 H 0.19458 0.22669 0.44875 0.0
H659 H 0.20119 0.21455 0.4474 0.0
C660 C 0.88695 0.34814 0.68991 0.0
C661 C 0.90036 0.35975 0.70153 0.0
C662 C 0.88089 0.33656 0.73032 0.0
C663 C 0.88834 0.3367 0.78409 0.0
C664 C 0.90174 0.34856 0.79689 0.0
C665 C 0.90764 0.35991 0.75514 0.0
C666 C 0.86665 0.32405 0.71477 0.0
C667 C 0.90989 0.34918 0.85434 0.0
C668 C 0.86813 0.31243 0.91765 0.0
C669 C 0.87166 0.30181 0.91172 0.0
C670 C 0.87337 0.32378 0.87604 0.0
C671 C 0.88218 0.3244 0.8268 0.0
C672 C 0.88538 0.31344 0.81927 0.0
C673 C 0.88016 0.30231 0.86217 0.0
C674 C 0.86984 0.33533 0.88597 0.0
C675 C 0.89455 0.31364 0.76666 0.0
H676 H 0.88132 0.34792 0.64824 0.0
H677 H 0.91801 0.36887 0.76425 0.0
H678 H 0.8676 0.31447 0.70943 0.0
H679 H 0.85911 0.32197 0.75309 0.0
H680 H 0.86218 0.32566 0.67142 0.0
H681 H 0.91993 0.35937 0.85866 0.0
H682 H 0.9034 0.34765 0.89617 0.0
H683 H 0.91236 0.34051 0.8535 0.0
H684 H 0.86163 0.31214 0.95613 0.0
H685 H 0.88291 0.29412 0.85745 0.0
H686 H 0.86494 0.33677 0.84368 0.0
H687 H 0.87966 0.34547 0.89492 0.0
H688 H 0.86252 0.33306 0.92552 0.0
H689 H 0.89024 0.31471 0.72178 0.0
H690 H 0.89539 0.30394 0.76531 0.0
H691 H 0.90531 0.3229 0.77138 0.0
C692 C 0.63936 0.55594 0.77983 0.0
C693 C 0.63632 0.54364 0.74748 0.0
C694 C 0.65044 0.5619 0.823 0.0
C695 C 0.65875 0.55548 0.8332 0.0
C696 C 0.65568 0.54304 0.80071 0.0
C697 C 0.64443 0.53722 0.7586 0.0
C698 C 0.65327 0.57504 0.85762 0.0
C699 C 0.66437 0.53595 0.80994 0.0
C700 C 0.69526 0.57696 0.90463 0.0
C701 C 0.6927 0.57198 0.96568 0.0
C702 C 0.68428 0.57175 0.86088 0.0
C703 C 0.67043 0.56151 0.87911 0.0
C704 C 0.66779 0.55662 0.94096 0.0
C705 C 0.67896 0.56184 0.98332 0.0
C706 C 0.68751 0.57705 0.79504 0.0
C707 C 0.65315 0.54582 0.96238 0.0
H708 H 0.63313 0.56096 0.77119 0.0
H709 H 0.64221 0.52777 0.73328 0.0
H710 H 0.6525 0.57303 0.90822 0.0
H711 H 0.66416 0.58368 0.848 0.0
H712 H 0.64577 0.57865 0.84475 0.0
H713 H 0.6608 0.52653 0.77994 0.0
H714 H 0.67562 0.54351 0.79972 0.0
H715 H 0.66374 0.53265 0.85893 0.0
H716 H 0.70587 0.58481 0.89091 0.0
H717 H 0.67689 0.55803 0.03065 0.0
H718 H 0.68091 0.58167 0.7815 0.0
H719 H 0.68487 0.56812 0.76316 0.0
H720 H 0.69879 0.58515 0.78851 0.0
H721 H 0.64565 0.5496 0.95246 0.0
H722 H 0.65277 0.54357 0.01271 0.0
H723 H 0.64943 0.53582 0.93658 0.0
C724 C 0.4511 0.08885 0.77881 0.0
C725 C 0.45939 0.09681 0.72875 0.0
C726 C 0.44541 0.09453 0.82044 0.0
C727 C 0.44789 0.1084 0.81094 0.0
C728 C 0.45638 0.11653 0.76081 0.0
C729 C 0.46213 0.11068 0.72063 0.0
C730 C 0.43663 0.08566 0.87418 0.0
C731 C 0.45912 0.13129 0.74876 0.0
C732 C 0.42191 0.1175 0.88452 0.0
C733 C 0.42944 0.12512 0.93676 0.0
C734 C 0.42791 0.11223 0.84234 0.0
C735 C 0.44162 0.11443 0.85353 0.0
C736 C 0.44932 0.12227 0.90583 0.0
C737 C 0.44318 0.12764 0.94649 0.0
C738 C 0.41951 0.10414 0.78631 0.0
C739 C 0.46389 0.12468 0.91976 0.0
H740 H 0.44895 0.07812 0.78514 0.0
H741 H 0.46844 0.11684 0.68162 0.0
H742 H 0.44107 0.09134 0.91839 0.0
H743 H 0.42573 0.08382 0.87029 0.0
H744 H 0.43614 0.07528 0.87634 0.0
H745 H 0.46598 0.13621 0.70774 0.0
H746 H 0.44897 0.13105 0.74118 0.0
H747 H 0.46423 0.13808 0.78967 0.0
H748 H 0.41129 0.11554 0.87692 0.0
H749 H 0.44901 0.13343 0.98714 0.0
H750 H 0.41738 0.09312 0.78848 0.0
H751 H 0.42567 0.10894 0.74351 0.0
H752 H 0.40927 0.10393 0.78278 0.0
H753 H 0.46342 0.11439 0.92609 0.0
H754 H 0.46852 0.13113 0.96212 0.0
H755 H 0.47107 0.13008 0.88027 0.0
C756 C 0.43712 0.34804 0.71557 0.0
C757 C 0.4506 0.3598 0.72399 0.0
C758 C 0.43135 0.33707 0.75918 0.0
C759 C 0.43924 0.33789 0.81251 0.0
C760 C 0.45274 0.34988 0.82187 0.0
C761 C 0.45827 0.36069 0.77744 0.0
C762 C 0.4169 0.32448 0.74764 0.0
C763 C 0.46145 0.35116 0.87833 0.0
C764 C 0.42039 0.31537 0.95277 0.0
C765 C 0.4234 0.30438 0.94732 0.0
C766 C 0.42533 0.32626 0.90882 0.0
C767 C 0.43346 0.32614 0.85817 0.0
C768 C 0.4363 0.31491 0.85173 0.0
C769 C 0.43124 0.30416 0.89645 0.0
C770 C 0.42206 0.33803 0.91721 0.0
C771 C 0.44489 0.31439 0.79817 0.0
H772 H 0.43115 0.34728 0.67427 0.0
H773 H 0.4687 0.36976 0.78413 0.0
H774 H 0.41769 0.31478 0.74379 0.0
H775 H 0.40983 0.32295 0.78726 0.0
H776 H 0.41198 0.32562 0.70469 0.0
H777 H 0.47159 0.36131 0.87949 0.0
H778 H 0.45543 0.35031 0.92101 0.0
H779 H 0.46375 0.34238 0.87917 0.0
H780 H 0.41434 0.3156 0.99204 0.0
H781 H 0.4336 0.29569 0.89206 0.0
H782 H 0.41669 0.33897 0.87542 0.0
H783 H 0.43201 0.34822 0.9229 0.0
H784 H 0.41524 0.33635 0.95813 0.0
H785 H 0.44002 0.31476 0.75367 0.0
H786 H 0.44582 0.30474 0.7989 0.0
H787 H 0.45565 0.32376 0.79952 0.0
C788 C 0.68776 0.1051 0.9194 0.0
C789 C 0.69238 0.11863 0.94325 0.0
C790 C 0.67678 0.09909 0.87587 0.0
C791 C 0.67019 0.10675 0.85634 0.0
C792 C 0.67473 0.12036 0.88075 0.0
C793 C 0.68582 0.12617 0.92367 0.0
C794 C 0.67233 0.08462 0.85027 0.0
C795 C 0.66791 0.12882 0.86127 0.0
C796 C 0.65219 0.09867 0.69989 0.0
C797 C 0.6379 0.09051 0.71612 0.0
C798 C 0.66278 0.10384 0.74506 0.0
C799 C 0.65901 0.10084 0.80815 0.0
C800 C 0.64461 0.09252 0.82495 0.0
C801 C 0.6342 0.08741 0.7786 0.0
C802 C 0.67801 0.11263 0.72523 0.0
C803 C 0.64023 0.08918 0.89188 0.0
H804 H 0.69279 0.09923 0.93455 0.0
H805 H 0.68928 0.13658 0.9424 0.0
H806 H 0.66091 0.07743 0.85858 0.0
H807 H 0.67399 0.08527 0.79943 0.0
H808 H 0.6783 0.07992 0.87132 0.0
H809 H 0.67231 0.139 0.88645 0.0
H810 H 0.66946 0.13104 0.81089 0.0
H811 H 0.65637 0.12265 0.8697 0.0
H812 H 0.65513 0.10108 0.65162 0.0
H813 H 0.62317 0.08111 0.79129 0.0
H814 H 0.6842 0.10784 0.74268 0.0
H815 H 0.68269 0.12335 0.74558 0.0
H816 H 0.67918 0.11367 0.67411 0.0
H817 H 0.64546 0.08378 0.91333 0.0
H818 H 0.62863 0.08235 0.89716 0.0
H819 H 0.64367 0.0991 0.918 0.0
C820 C 0.88659 0.53497 0.72251 0.0
C821 C 0.90048 0.5379 0.73183 0.0
C822 C 0.88028 0.54017 0.76318 0.0
C823 C 0.888 0.54831 0.81486 0.0
C824 C 0.90184 0.55085 0.82582 0.0
C825 C 0.90797 0.54569 0.78383 0.0
C826 C 0.86556 0.53736 0.74966 0.0
C827 C 0.91029 0.55929 0.8811 0.0
C828 C 0.87893 0.57439 0.88706 0.0
C829 C 0.87114 0.5669 0.93905 0.0
C830 C 0.88418 0.56831 0.84531 0.0
C831 C 0.88175 0.55452 0.85653 0.0
C832 C 0.87364 0.54681 0.90831 0.0
C833 C 0.86834 0.55306 0.94871 0.0
C834 C 0.89258 0.57676 0.78991 0.0
C835 C 0.87096 0.53214 0.92213 0.0
H836 H 0.88078 0.52901 0.68213 0.0
H837 H 0.9187 0.54796 0.79118 0.0
H838 H 0.85861 0.53233 0.79021 0.0
H839 H 0.86583 0.54748 0.74105 0.0
H840 H 0.86081 0.53042 0.7087 0.0
H841 H 0.92057 0.55962 0.88492 0.0
H842 H 0.91233 0.57026 0.87755 0.0
H843 H 0.90422 0.55471 0.92433 0.0
H844 H 0.8811 0.58509 0.87947 0.0
H845 H 0.86239 0.54726 0.98913 0.0
H846 H 0.88799 0.57066 0.74677 0.0
H847 H 0.90357 0.57884 0.79337 0.0
H848 H 0.89286 0.58702 0.78601 0.0
H849 H 0.86594 0.52513 0.88176 0.0
H850 H 0.86408 0.5274 0.96325 0.0
H851 H 0.88114 0.5325 0.93062 0.0
C852 C 0.53667 0.64682 0.26608 0.0
C853 C 0.54101 0.63678 0.26152 0.0
C854 C 0.54184 0.65831 0.22528 0.0
C855 C 0.55137 0.65961 0.17801 0.0
C856 C 0.5554 0.64922 0.17177 0.0
C857 C 0.55028 0.63799 0.21411 0.0
C858 C 0.53748 0.66928 0.23401 0.0
C859 C 0.56529 0.6501 0.12104 0.0
C860 C 0.55594 0.68316 0.04075 0.0
C861 C 0.56901 0.69513 0.05373 0.0
C862 C 0.55006 0.67152 0.08081 0.0
C863 C 0.55731 0.67199 0.13577 0.0
C864 C 0.57032 0.68422 0.15008 0.0
C865 C 0.5761 0.69561 0.10848 0.0
C866 C 0.53629 0.65859 0.06348 0.0
C867 C 0.5782 0.68521 0.20897 0.0
H868 H 0.5296 0.646 0.30307 0.0
H869 H 0.55365 0.63024 0.21051 0.0
H870 H 0.54691 0.67967 0.24404 0.0
H871 H 0.53267 0.67048 0.19087 0.0
H872 H 0.5298 0.66658 0.27244 0.0
H873 H 0.56675 0.64076 0.1204 0.0
H874 H 0.5612 0.651 0.07528 0.0
H875 H 0.57575 0.65971 0.12736 0.0
H876 H 0.55048 0.6827 0.99814 0.0
H877 H 0.5862 0.70485 0.11859 0.0
H878 H 0.52837 0.65605 0.10055 0.0
H879 H 0.53788 0.64938 0.05886 0.0
H880 H 0.53193 0.65997 0.01928 0.0
H881 H 0.57125 0.68318 0.24964 0.0
H882 H 0.58783 0.69571 0.21464 0.0
H883 H 0.58135 0.67702 0.20898 0.0
C884 C 0.3515 0.88645 0.27223 0.0
C885 C 0.36251 0.9003 0.2624 0.0
C886 C 0.34011 0.87999 0.23094 0.0
C887 C 0.33979 0.88754 0.17833 0.0
C888 C 0.35112 0.90135 0.16705 0.0
C889 C 0.36233 0.9076 0.20942 0.0
C890 C 0.32819 0.86528 0.24467 0.0
C891 C 0.35123 0.90967 0.11104 0.0
C892 C 0.3157 0.86803 0.04303 0.0
C893 C 0.30468 0.87088 0.05188 0.0
C894 C 0.32709 0.87316 0.08446 0.0
C895 C 0.32738 0.88122 0.13621 0.0
C896 C 0.31602 0.88369 0.1466 0.0
C897 C 0.30482 0.87854 0.10411 0.0
C898 C 0.33904 0.87035 0.07171 0.0
C899 C 0.31587 0.8921 0.20172 0.0
H900 H 0.35157 0.88078 0.31325 0.0
H901 H 0.37083 0.9183 0.2016 0.0
H902 H 0.31832 0.86555 0.2529 0.0
H903 H 0.3263 0.85828 0.20435 0.0
H904 H 0.33036 0.8606 0.28593 0.0
H905 H 0.36117 0.91997 0.10723 0.0
H906 H 0.34987 0.90352 0.06821 0.0
H907 H 0.34225 0.91166 0.11361 0.0
H908 H 0.31567 0.86215 0.00259 0.0
H909 H 0.29631 0.88076 0.11118 0.0
H910 H 0.34097 0.86546 0.11273 0.0
H911 H 0.34888 0.88048 0.06278 0.0
H912 H 0.33688 0.86332 0.03117 0.0
H913 H 0.31728 0.88752 0.24512 0.0
H914 H 0.3059 0.89241 0.20501 0.0
H915 H 0.3248 0.90309 0.19841 0.0
C916 C 0.11319 0.4645 0.29032 0.0
C917 C 0.09965 0.46248 0.28003 0.0
C918 C 0.11922 0.45911 0.24897 0.0
C919 C 0.11155 0.45165 0.19584 0.0
C920 C 0.09808 0.45002 0.18409 0.0
C921 C 0.09226 0.4554 0.22652 0.0
C922 C 0.13358 0.46101 0.26318 0.0
C923 C 0.08966 0.44226 0.12753 0.0
C924 C 0.13049 0.44613 0.06087 0.0
C925 C 0.12688 0.432 0.06912 0.0
C926 C 0.12579 0.45276 0.10238 0.0
C927 C 0.11738 0.4451 0.15358 0.0
C928 C 0.1141 0.43097 0.16329 0.0
C929 C 0.11885 0.42457 0.12076 0.0
C930 C 0.12946 0.46781 0.09035 0.0
C931 C 0.10527 0.42251 0.21777 0.0
H932 H 0.11893 0.46992 0.33176 0.0
H933 H 0.0818 0.45384 0.21834 0.0
H934 H 0.13265 0.45056 0.27098 0.0
H935 H 0.14077 0.46595 0.22326 0.0
H936 H 0.13844 0.46765 0.30485 0.0
H937 H 0.0797 0.44256 0.12344 0.0
H938 H 0.09602 0.44692 0.08506 0.0
H939 H 0.08702 0.43107 0.12957 0.0
H940 H 0.13667 0.45191 0.02089 0.0
H941 H 0.11604 0.41365 0.12736 0.0
H942 H 0.13456 0.47442 0.13174 0.0
H943 H 0.11968 0.46819 0.08136 0.0
H944 H 0.13664 0.47251 0.05009 0.0
H945 H 0.10998 0.42824 0.26158 0.0
H946 H 0.10429 0.41192 0.2205 0.0
H947 H 0.09454 0.42113 0.21414 0.0
C948 C 0.08755 0.65193 0.29203 0.0
C949 C 0.09006 0.64068 0.28326 0.0
C950 C 0.09239 0.66302 0.24917 0.0
C951 C 0.09991 0.66283 0.19625 0.0
C952 C 0.10229 0.65138 0.18666 0.0
C953 C 0.09734 0.64044 0.23036 0.0
C954 C 0.08964 0.67504 0.26092 0.0
C955 C 0.11023 0.6508 0.1306 0.0
C956 C 0.1027 0.68484 0.05555 0.0
C957 C 0.11648 0.69626 0.06129 0.0
C958 C 0.09705 0.67403 0.09984 0.0
C959 C 0.10541 0.67465 0.15109 0.0
C960 C 0.11918 0.68637 0.15815 0.0
C961 C 0.12456 0.69704 0.11309 0.0
C962 C 0.08231 0.66173 0.09087 0.0
C963 C 0.12836 0.68743 0.2124 0.0
H964 H 0.08194 0.65218 0.33294 0.0
H965 H 0.09932 0.63177 0.22344 0.0
H966 H 0.0998 0.68508 0.26522 0.0
H967 H 0.08388 0.67621 0.2212 0.0
H968 H 0.08338 0.67345 0.3037 0.0
H969 H 0.11097 0.64104 0.1294 0.0
H970 H 0.10493 0.6513 0.08767 0.0
H971 H 0.12106 0.66006 0.13038 0.0
H972 H 0.0964 0.68418 0.01557 0.0
H973 H 0.13522 0.70584 0.1177 0.0
H974 H 0.07582 0.66028 0.13265 0.0
H975 H 0.08272 0.65188 0.08446 0.0
H976 H 0.07696 0.66316 0.05011 0.0
H977 H 0.12278 0.68651 0.25654 0.0
H978 H 0.13857 0.69753 0.21263 0.0
H979 H 0.13057 0.67858 0.21089 0.0
C980 C 0.36135 0.45417 0.23427 0.0
C981 C 0.36103 0.46073 0.28941 0.0
C982 C 0.34998 0.44885 0.19265 0.0
C983 C 0.33794 0.44993 0.20712 0.0
C984 C 0.33765 0.45675 0.2623 0.0
C985 C 0.34925 0.46216 0.30257 0.0
C986 C 0.35076 0.44186 0.13368 0.0
C987 C 0.32494 0.45797 0.27962 0.0
C988 C 0.31315 0.44582 0.0757 0.0
C989 C 0.30289 0.4315 0.08037 0.0
C990 C 0.32453 0.45201 0.11713 0.0
C991 C 0.32555 0.44373 0.16491 0.0
C992 C 0.31493 0.42939 0.17129 0.0
C993 C 0.30377 0.42341 0.12858 0.0
C994 C 0.3357 0.46729 0.10844 0.0
C995 C 0.31554 0.42029 0.22237 0.0
H996 H 0.37044 0.45306 0.22395 0.0
H997 H 0.34891 0.46714 0.3454 0.0
H998 H 0.34237 0.4306 0.13361 0.0
H999 H 0.34891 0.44693 0.09306 0.0
H1000 H 0.36113 0.44244 0.12796 0.0
H1001 H 0.32651 0.46384 0.32361 0.0
H1002 H 0.32254 0.46343 0.24235 0.0
H1003 H 0.31557 0.44729 0.2847 0.0
H1004 H 0.31256 0.45211 0.03826 0.0
H1005 H 0.29586 0.41233 0.13235 0.0
H1006 H 0.34598 0.46803 0.09801 0.0
H1007 H 0.33707 0.4733 0.15171 0.0
H1008 H 0.3331 0.47241 0.07025 0.0
H1009 H 0.32499 0.41916 0.21625 0.0
H1010 H 0.30604 0.40959 0.22316 0.0
H1011 H 0.31655 0.42537 0.26798 0.0
C1012 C 0.56235 0.91074 0.27493 0.0
C1013 C 0.54918 0.90969 0.26544 0.0
C1014 C 0.56822 0.90589 0.23026 0.0
C1015 C 0.56077 0.89993 0.17463 0.0
C1016 C 0.54767 0.89923 0.16397 0.0
C1017 C 0.542 0.90409 0.20966 0.0
C1018 C 0.5822 0.90678 0.24336 0.0
C1019 C 0.53947 0.89305 0.10495 0.0
C1020 C 0.58056 0.89658 0.03731 0.0
C1021 C 0.57665 0.88228 0.04027 0.0
C1022 C 0.57551 0.9025 0.08087 0.0
C1023 C 0.56641 0.89392 0.12865 0.0
C1024 C 0.56261 0.87952 0.1324 0.0
C1025 C 0.56775 0.87386 0.08801 0.0
C1026 C 0.57975 0.91787 0.0753 0.0
C1027 C 0.55302 0.87007 0.18302 0.0
H1028 H 0.56794 0.91505 0.31804 0.0
H1029 H 0.53183 0.90327 0.20209 0.0
H1030 H 0.58074 0.896 0.24552 0.0
H1031 H 0.58976 0.91245 0.20534 0.0
H1032 H 0.58693 0.91226 0.28769 0.0
H1033 H 0.52982 0.89396 0.10241 0.0
H1034 H 0.5462 0.89845 0.06418 0.0
H1035 H 0.53633 0.88173 0.10169 0.0
H1036 H 0.58741 0.90312 0.00035 0.0
H1037 H 0.56471 0.86281 0.09051 0.0
H1038 H 0.58497 0.92355 0.11856 0.0
H1039 H 0.57023 0.91887 0.06889 0.0
H1040 H 0.58704 0.92314 0.03588 0.0
H1041 H 0.55757 0.87453 0.22903 0.0
H1042 H 0.5513 0.85919 0.18013 0.0
H1043 H 0.54263 0.86951 0.18014 0.0
C1044 C 0.19935 0.97263 0.95029 0.0
C1045 C 0.20912 0.97164 0.91173 0.0
C1046 C 0.20385 0.98319 0.99566 0.0
C1047 C 0.21842 0.99302 0.00193 0.0
C1048 C 0.22831 0.99208 0.96295 0.0
C1049 C 0.22353 0.98134 0.91851 0.0
C1050 C 0.19304 0.9838 0.03698 0.0
C1051 C 0.24393 0.00244 0.96802 0.0
C1052 C 0.23055 0.02819 0.08115 0.0
C1053 C 0.23487 0.02587 0.13889 0.0
C1054 C 0.22492 0.01748 0.0363 0.0
C1055 C 0.22345 0.00415 0.05007 0.0
C1056 C 0.22741 0.00166 0.10898 0.0
C1057 C 0.23316 0.01258 0.15258 0.0
C1058 C 0.22091 0.02053 0.97368 0.0
C1059 C 0.22585 0.98753 0.12554 0.0
H1060 H 0.18819 0.96514 0.94508 0.0
H1061 H 0.23111 0.98066 0.88849 0.0
H1062 H 0.19532 0.98275 0.08614 0.0
H1063 H 0.19365 0.99418 0.03205 0.0
H1064 H 0.18212 0.97535 0.02613 0.0
H1065 H 0.25019 0.00043 0.93322 0.0
H1066 H 0.24596 0.01336 0.96165 0.0
H1067 H 0.24776 0.00186 0.01488 0.0
H1068 H 0.23188 0.03846 0.07049 0.0
H1069 H 0.23639 0.01073 0.19742 0.0
H1070 H 0.2098 0.01265 0.96276 0.0
H1071 H 0.2276 0.01965 0.93736 0.0
H1072 H 0.22218 0.03125 0.97122 0.0
H1073 H 0.21484 0.97898 0.11744 0.0
H1074 H 0.22866 0.98707 0.17459 0.0
H1075 H 0.23277 0.98539 0.09537 0.0
C1076 C 0.97478 0.21182 0.04819 0.0
C1077 C 0.97249 0.20243 0.09682 0.0
C1078 C 0.9858 0.21553 0.00597 0.0
C1079 C 0.99476 0.20976 0.01266 0.0
C1080 C 0.99217 0.19984 0.0602 0.0
C1081 C 0.98102 0.19628 0.10183 0.0
C1082 C 0.98815 0.22608 0.9556 0.0
C1083 C 0.00149 0.19345 0.06857 0.0
C1084 C 0.01756 0.21545 0.87157 0.0
C1085 C 0.02963 0.22827 0.88659 0.0
C1086 C 0.00639 0.20872 0.91386 0.0
C1087 C 0.00739 0.21499 0.97235 0.0
C1088 C 0.01999 0.22739 0.98927 0.0
C1089 C 0.03096 0.2339 0.94608 0.0
C1090 C 0.99316 0.19547 0.89431 0.0
C1091 C 0.02153 0.23434 0.05142 0.0
H1092 H 0.96816 0.21653 0.04391 0.0
H1093 H 0.97926 0.189 0.13938 0.0
H1094 H 0.99843 0.23586 0.96297 0.0
H1095 H 0.9886 0.22177 0.9097 0.0
H1096 H 0.97972 0.22891 0.95449 0.0
H1097 H 0.99719 0.18483 0.10346 0.0
H1098 H 0.0028 0.18921 0.02397 0.0
H1099 H 0.01213 0.20173 0.08384 0.0
H1100 H 0.01651 0.21103 0.82566 0.0
H1101 H 0.04033 0.24375 0.95806 0.0
H1102 H 0.98467 0.19797 0.8852 0.0
H1103 H 0.9894 0.18746 0.93175 0.0
H1104 H 0.99481 0.19081 0.85166 0.0
H1105 H 0.01443 0.23885 0.05347 0.0
H1106 H 0.0325 0.24295 0.06006 0.0
H1107 H 0.01836 0.22647 0.08923 0.0
C1108 C 0.78475 0.80396 0.8921 0.0
C1109 C 0.77018 0.79852 0.89807 0.0
C1110 C 0.79205 0.8 0.93354 0.0
C1111 C 0.78456 0.79044 0.982 0.0
C1112 C 0.76996 0.78539 0.98961 0.0
C1113 C 0.76294 0.78946 0.94744 0.0
C1114 C 0.80762 0.80559 0.92405 0.0
C1115 C 0.76161 0.77526 0.04104 0.0
C1116 C 0.79558 0.76559 0.05023 0.0
C1117 C 0.80055 0.77161 0.10863 0.0
C1118 C 0.79114 0.7721 0.00693 0.0
C1119 C 0.79163 0.7849 0.02264 0.0
C1120 C 0.79745 0.79146 0.08007 0.0
C1121 C 0.80188 0.78474 0.12245 0.0
C1122 C 0.78512 0.76483 0.94589 0.0
C1123 C 0.79818 0.80512 0.09837 0.0
H1124 H 0.79038 0.81097 0.8539 0.0
H1125 H 0.75168 0.78529 0.95242 0.0
H1126 H 0.81346 0.80996 0.96795 0.0
H1127 H 0.80936 0.79683 0.90994 0.0
H1128 H 0.81215 0.81392 0.88792 0.0
H1129 H 0.75053 0.77301 0.04276 0.0
H1130 H 0.7615 0.76515 0.03439 0.0
H1131 H 0.76666 0.77963 0.08643 0.0
H1132 H 0.79463 0.75549 0.03919 0.0
H1133 H 0.80575 0.78945 0.16752 0.0
H1134 H 0.78991 0.77238 0.90699 0.0
H1135 H 0.7736 0.76084 0.94492 0.0
H1136 H 0.78688 0.75579 0.93809 0.0
H1137 H 0.80267 0.81293 0.06023 0.0
H1138 H 0.80464 0.80978 0.14068 0.0
H1139 H 0.78737 0.80317 0.10743 0.0
C1140 C 0.78668 0.9833 0.88034 0.0
C1141 C 0.77269 0.97278 0.89186 0.0
C1142 C 0.79385 0.99467 0.92132 0.0
C1143 C 0.78682 0.99551 0.97477 0.0
C1144 C 0.77298 0.98451 0.9882 0.0
C1145 C 0.76609 0.97327 0.94658 0.0
C1146 C 0.80865 0.00614 0.9058 0.0
C1147 C 0.76514 0.98497 0.0449 0.0
C1148 C 0.80507 0.02035 0.1092 0.0
C1149 C 0.80157 0.03085 0.09802 0.0
C1150 C 0.80104 0.00911 0.06761 0.0
C1151 C 0.7933 0.00839 0.0139 0.0
C1152 C 0.79048 0.01942 0.00065 0.0
C1153 C 0.79467 0.03053 0.04289 0.0
C1154 C 0.80435 0.99762 0.08295 0.0
C1155 C 0.78231 0.01908 0.94366 0.0
H1156 H 0.79184 0.98294 0.83812 0.0
H1157 H 0.7553 0.96512 0.95585 0.0
H1158 H 0.80853 0.01585 0.89215 0.0
H1159 H 0.81562 0.00878 0.94688 0.0
H1160 H 0.81326 0.00305 0.8672 0.0
H1161 H 0.75486 0.9751 0.05101 0.0
H1162 H 0.7716 0.98674 0.08705 0.0
H1163 H 0.76314 0.99394 0.04101 0.0
H1164 H 0.81046 0.02058 0.15169 0.0
H1165 H 0.792 0.03866 0.03387 0.0
H1166 H 0.80865 0.99498 0.04183 0.0
H1167 H 0.7945 0.98791 0.09657 0.0
H1168 H 0.81204 0.00067 0.12155 0.0
H1169 H 0.787 0.01723 0.90169 0.0
H1170 H 0.78207 0.02903 0.9374 0.0
H1171 H 0.77129 0.01022 0.94737 0.0
C1172 C 0.03001 0.79359 0.9225 0.0
C1173 C 0.02696 0.79338 0.8594 0.0
C1174 C 0.01917 0.78846 0.96682 0.0
C1175 C 0.00502 0.78301 0.94726 0.0
C1176 C 0.00197 0.78321 0.88379 0.0
C1177 C 0.01298 0.78841 0.84066 0.0
C1178 C 0.02279 0.78847 0.03427 0.0
C1179 C 0.98702 0.7775 0.86117 0.0
C1180 C 0.97587 0.75555 0.04812 0.0
C1181 C 0.97083 0.76356 0.07755 0.0
C1182 C 0.987 0.76177 0.00553 0.0
C1183 C 0.99329 0.77637 0.99256 0.0
C1184 C 0.98817 0.78449 0.0218 0.0
C1185 C 0.97693 0.77796 0.0638 0.0
C1186 C 0.99208 0.75274 0.97462 0.0
C1187 C 0.99467 0.8001 0.00924 0.0
H1188 H 0.0408 0.79744 0.93711 0.0
H1189 H 0.01057 0.78829 0.7919 0.0
H1190 H 0.01825 0.7937 0.06247 0.0
H1191 H 0.01809 0.77745 0.05112 0.0
H1192 H 0.03436 0.79394 0.04228 0.0
H1193 H 0.98653 0.77911 0.81064 0.0
H1194 H 0.98073 0.76603 0.8711 0.0
H1195 H 0.98195 0.78266 0.88606 0.0
H1196 H 0.97119 0.74442 0.05872 0.0
H1197 H 0.97312 0.78421 0.08689 0.0
H1198 H 0.00338 0.75687 0.98543 0.0
H1199 H 0.99116 0.75317 0.92361 0.0
H1200 H 0.986 0.74154 0.98959 0.0
H1201 H 0.00604 0.80562 0.0213 0.0
H1202 H 0.98948 0.80492 0.036 0.0
H1203 H 0.9939 0.80191 0.95921 0.0
C1204 C 0.21654 0.20006 0.11333 0.0
C1205 C 0.23074 0.20402 0.10439 0.0
C1206 C 0.20958 0.20438 0.07172 0.0
C1207 C 0.21699 0.21273 0.01992 0.0
C1208 C 0.23112 0.21617 0.00923 0.0
C1209 C 0.23785 0.21184 0.05181 0.0
C1210 C 0.19453 0.20056 0.08471 0.0
C1211 C 0.23934 0.22493 0.95409 0.0
C1212 C 0.19882 0.21848 0.88269 0.0
C1213 C 0.20174 0.23232 0.89349 0.0
C1214 C 0.20317 0.21165 0.9249 0.0
C1215 C 0.21047 0.21883 0.97921 0.0
C1216 C 0.21271 0.23248 0.99193 0.0
C1217 C 0.20837 0.2391 0.94871 0.0
C1218 C 0.20064 0.19711 0.90972 0.0
C1219 C 0.2203 0.24041 0.04975 0.0
H1220 H 0.21102 0.19402 0.15404 0.0
H1221 H 0.2488 0.21484 0.04455 0.0
H1222 H 0.19418 0.21024 0.0968 0.0
H1223 H 0.1879 0.19598 0.04286 0.0
H1224 H 0.18984 0.19292 0.12346 0.0
H1225 H 0.24985 0.22576 0.94994 0.0
H1226 H 0.23335 0.22028 0.91077 0.0
H1227 H 0.24091 0.23572 0.95832 0.0
H1228 H 0.19369 0.21321 0.83997 0.0
H1229 H 0.21055 0.24976 0.95741 0.0
H1230 H 0.19605 0.18997 0.95012 0.0
H1231 H 0.21085 0.19774 0.89885 0.0
H1232 H 0.19347 0.19237 0.86944 0.0
H1233 H 0.21555 0.23372 0.09129 0.0
H1234 H 0.22 0.25034 0.05557 0.0
H1235 H 0.2315 0.24308 0.04762 0.0
C1236 C 0.89373 0.35861 0.38116 0.0
C1237 C 0.90367 0.35931 0.424 0.0
C1238 C 0.88794 0.34786 0.33658 0.0
C1239 C 0.89209 0.33751 0.33556 0.0
C1240 C 0.902 0.33808 0.37922 0.0
C1241 C 0.90774 0.34904 0.4227 0.0
C1242 C 0.87752 0.34766 0.29017 0.0
C1243 C 0.90658 0.32715 0.37986 0.0
C1244 C 0.86906 0.30276 0.25286 0.0
C1245 C 0.87654 0.30485 0.19756 0.0
C1246 C 0.87395 0.31335 0.29825 0.0
C1247 C 0.88647 0.32634 0.28745 0.0
C1248 C 0.89392 0.32856 0.23123 0.0
C1249 C 0.88891 0.31775 0.18713 0.0
C1250 C 0.86584 0.31058 0.35806 0.0
C1251 C 0.90724 0.34233 0.2178 0.0
H1252 H 0.89056 0.36655 0.38214 0.0
H1253 H 0.91535 0.34948 0.45611 0.0
H1254 H 0.88172 0.34859 0.24258 0.0
H1255 H 0.86747 0.33746 0.29277 0.0
H1256 H 0.87525 0.35636 0.29783 0.0
H1257 H 0.91397 0.32881 0.41842 0.0
H1258 H 0.89723 0.31643 0.38426 0.0
H1259 H 0.91184 0.32747 0.33551 0.0
H1260 H 0.8595 0.29279 0.26098 0.0
H1261 H 0.89467 0.31944 0.14418 0.0
H1262 H 0.86273 0.3187 0.3652 0.0
H1263 H 0.87265 0.31134 0.39763 0.0
H1264 H 0.85618 0.29999 0.35885 0.0
H1265 H 0.90517 0.35125 0.22184 0.0
H1266 H 0.91147 0.34255 0.17081 0.0
H1267 H 0.91547 0.34412 0.25235 0.0
C1268 C 0.6925 0.57636 0.29051 0.0
C1269 C 0.69577 0.56848 0.24967 0.0
C1270 C 0.68132 0.56966 0.3326 0.0
C1271 C 0.67311 0.55474 0.33305 0.0
C1272 C 0.67654 0.54672 0.29268 0.0
C1273 C 0.68792 0.5537 0.25171 0.0
C1274 C 0.67811 0.57855 0.37575 0.0
C1275 C 0.66793 0.53081 0.29146 0.0
C1276 C 0.65112 0.53822 0.47671 0.0
C1277 C 0.6381 0.53673 0.4592 0.0
C1278 C 0.66252 0.5437 0.43547 0.0
C1279 C 0.66079 0.54761 0.3751 0.0
C1280 C 0.64747 0.54548 0.35618 0.0
C1281 C 0.63628 0.54014 0.3987 0.0
C1282 C 0.67659 0.54592 0.45744 0.0
C1283 C 0.64518 0.54932 0.29176 0.0
H1284 H 0.69857 0.58778 0.28904 0.0
H1285 H 0.69037 0.54758 0.2198 0.0
H1286 H 0.66747 0.57693 0.36556 0.0
H1287 H 0.67802 0.57526 0.42443 0.0
H1288 H 0.68591 0.58998 0.37153 0.0
H1289 H 0.67228 0.52612 0.25874 0.0
H1290 H 0.66749 0.52647 0.33835 0.0
H1291 H 0.65693 0.52743 0.27761 0.0
H1292 H 0.65258 0.53561 0.52354 0.0
H1293 H 0.62621 0.53895 0.385 0.0
H1294 H 0.68439 0.55738 0.45859 0.0
H1295 H 0.68067 0.54097 0.42484 0.0
H1296 H 0.67595 0.54149 0.5044 0.0
H1297 H 0.65153 0.56092 0.28539 0.0
H1298 H 0.63393 0.54592 0.28275 0.0
H1299 H 0.64878 0.54441 0.25667 0.0
C1300 C 0.43626 0.13156 0.27117 0.0
C1301 C 0.429 0.12279 0.22103 0.0
C1302 C 0.4424 0.12714 0.31667 0.0
C1303 C 0.44125 0.11371 0.31141 0.0
C1304 C 0.43413 0.10494 0.2603 0.0
C1305 C 0.42806 0.10958 0.21586 0.0
C1306 C 0.44988 0.13672 0.3708 0.0
C1307 C 0.43271 0.09056 0.253 0.0
C1308 C 0.46545 0.10447 0.40038 0.0
C1309 C 0.45657 0.0962 0.4485 0.0
C1310 C 0.46075 0.11059 0.35615 0.0
C1311 C 0.44689 0.10841 0.36057 0.0
C1312 C 0.43801 0.10032 0.40984 0.0
C1313 C 0.44294 0.09428 0.4531 0.0
C1314 C 0.47047 0.1191 0.30394 0.0
C1315 C 0.42317 0.09779 0.41616 0.0
H1316 H 0.43703 0.14179 0.27516 0.0
H1317 H 0.42253 0.10279 0.17695 0.0
H1318 H 0.44437 0.13157 0.41448 0.0
H1319 H 0.4608 0.1386 0.37442 0.0
H1320 H 0.45033 0.14706 0.36679 0.0
H1321 H 0.42733 0.08529 0.2092 0.0
H1322 H 0.44328 0.09148 0.25382 0.0
H1323 H 0.4266 0.08369 0.29232 0.0
H1324 H 0.47602 0.10603 0.3969 0.0
H1325 H 0.43608 0.08799 0.49055 0.0
H1326 H 0.47142 0.12967 0.30175 0.0
H1327 H 0.46597 0.11377 0.25915 0.0
H1328 H 0.48118 0.12046 0.30908 0.0
H1329 H 0.42329 0.10799 0.41623 0.0
H1330 H 0.41792 0.09195 0.45918 0.0
H1331 H 0.41674 0.09163 0.37592 0.0
C1332 C 0.42948 0.30472 0.28487 0.0
C1333 C 0.43626 0.30402 0.23115 0.0
C1334 C 0.4364 0.31589 0.32679 0.0
C1335 C 0.45044 0.32661 0.31458 0.0
C1336 C 0.45759 0.32559 0.26199 0.0
C1337 C 0.4504 0.31427 0.22078 0.0
C1338 C 0.42844 0.31655 0.38261 0.0
C1339 C 0.47258 0.33679 0.2477 0.0
C1340 C 0.459 0.36177 0.38332 0.0
C1341 C 0.4656 0.36177 0.43889 0.0
C1342 C 0.45471 0.35072 0.34072 0.0
C1343 C 0.45706 0.3394 0.35418 0.0
C1344 C 0.46447 0.33976 0.40849 0.0
C1345 C 0.46867 0.35098 0.45032 0.0
C1346 C 0.44692 0.35077 0.28303 0.0
C1347 C 0.46724 0.32792 0.42416 0.0
H1348 H 0.41857 0.29677 0.29325 0.0
H1349 H 0.45569 0.31375 0.17931 0.0
H1350 H 0.43464 0.31805 0.42541 0.0
H1351 H 0.42681 0.32574 0.37833 0.0
H1352 H 0.41797 0.30687 0.38783 0.0
H1353 H 0.47717 0.33362 0.20932 0.0
H1354 H 0.47285 0.34671 0.23432 0.0
H1355 H 0.47935 0.33912 0.28928 0.0
H1356 H 0.45669 0.37014 0.37411 0.0
H1357 H 0.47381 0.35096 0.4932 0.0
H1358 H 0.43577 0.34216 0.28588 0.0
H1359 H 0.45162 0.34876 0.24149 0.0
H1360 H 0.44709 0.36092 0.27664 0.0
H1361 H 0.45716 0.31836 0.43674 0.0
H1362 H 0.4747 0.33066 0.46355 0.0
H1363 H 0.4716 0.32519 0.3835 0.0
C1364 C 0.68168 0.13033 0.20801 0.0
C1365 C 0.69179 0.12627 0.21825 0.0
C1366 C 0.66988 0.12553 0.2469 0.0
C1367 C 0.6684 0.11674 0.29778 0.0
C1368 C 0.67889 0.11307 0.30956 0.0
C1369 C 0.69039 0.11775 0.26916 0.0
C1370 C 0.65878 0.12944 0.23233 0.0
C1371 C 0.67784 0.10396 0.36416 0.0
C1372 C 0.64444 0.11192 0.43328 0.0
C1373 C 0.6334 0.0981 0.42348 0.0
C1374 C 0.65568 0.1184 0.39134 0.0
C1375 C 0.6557 0.11094 0.33788 0.0
C1376 C 0.6441 0.09734 0.32572 0.0
C1377 C 0.63314 0.09101 0.36909 0.0
C1378 C 0.66795 0.13282 0.40634 0.0
C1379 C 0.64361 0.0892 0.26847 0.0
H1380 H 0.6827 0.13682 0.16825 0.0
H1381 H 0.69825 0.11466 0.27718 0.0
H1382 H 0.64867 0.11977 0.22112 0.0
H1383 H 0.65685 0.13435 0.27327 0.0
H1384 H 0.66181 0.13686 0.19263 0.0
H1385 H 0.68732 0.10281 0.36896 0.0
H1386 H 0.67645 0.10855 0.40759 0.0
H1387 H 0.66845 0.0933 0.35887 0.0
H1388 H 0.6447 0.1174 0.4755 0.0
H1389 H 0.62456 0.08035 0.3613 0.0
H1390 H 0.67068 0.13995 0.36583 0.0
H1391 H 0.67737 0.13191 0.41737 0.0
H1392 H 0.66571 0.13775 0.44645 0.0
H1393 H 0.646 0.09591 0.22666 0.0
H1394 H 0.63316 0.07954 0.26225 0.0
H1395 H 0.65176 0.08602 0.27181 0.0
C1396 C 0.90709 0.55801 0.4527 0.0
C1397 C 0.90513 0.54438 0.44739 0.0
C1398 C 0.90138 0.56321 0.40895 0.0
C1399 C 0.89359 0.55459 0.35849 0.0
C1400 C 0.8916 0.54082 0.35273 0.0
C1401 C 0.89738 0.53585 0.39744 0.0
C1402 C 0.9037 0.57794 0.41667 0.0
C1403 C 0.88342 0.53137 0.29924 0.0
C1404 C 0.86907 0.56396 0.27279 0.0
C1405 C 0.87741 0.57144 0.22191 0.0
C1406 C 0.87417 0.55832 0.31758 0.0
C1407 C 0.88786 0.56016 0.31091 0.0
C1408 C 0.89628 0.56765 0.25945 0.0
C1409 C 0.89096 0.57324 0.21567 0.0
C1410 C 0.86495 0.55047 0.37216 0.0
C1411 C 0.91092 0.5698 0.25069 0.0
H1412 H 0.91302 0.56463 0.4914 0.0
H1413 H 0.89582 0.5253 0.39328 0.0
H1414 H 0.90952 0.58452 0.37615 0.0
H1415 H 0.8934 0.5776 0.41867 0.0
H1416 H 0.90976 0.58318 0.45927 0.0
H1417 H 0.8827 0.52089 0.30186 0.0
H1418 H 0.87258 0.52977 0.29836 0.0
H1419 H 0.88854 0.53646 0.25486 0.0
H1420 H 0.85858 0.56254 0.27768 0.0
H1421 H 0.89743 0.57896 0.17623 0.0
H1422 H 0.87027 0.55579 0.41587 0.0
H1423 H 0.86327 0.5396 0.37389 0.0
H1424 H 0.8545 0.54982 0.37018 0.0
H1425 H 0.91771 0.57578 0.29041 0.0
H1426 H 0.91598 0.57562 0.20738 0.0
H1427 H 0.91047 0.55945 0.24941 0.0
C1428 C 0.55866 0.65367 0.53289 0.0
C1429 C 0.54565 0.64133 0.54168 0.0
C1430 C 0.56376 0.66469 0.57606 0.0
C1431 C 0.55568 0.66327 0.62945 0.0
C1432 C 0.54242 0.65092 0.63817 0.0
C1433 C 0.53754 0.64008 0.59399 0.0
C1434 C 0.57792 0.67772 0.56509 0.0
C1435 C 0.53355 0.64904 0.69478 0.0
C1436 C 0.57563 0.68439 0.77036 0.0
C1437 C 0.57293 0.69563 0.76884 0.0
C1438 C 0.56997 0.67374 0.7255 0.0
C1439 C 0.56147 0.6744 0.67773 0.0
C1440 C 0.55875 0.68575 0.67567 0.0
C1441 C 0.5645 0.69624 0.7215 0.0
C1442 C 0.57307 0.66177 0.72931 0.0
C1443 C 0.54981 0.68681 0.62508 0.0
H1444 H 0.56493 0.65471 0.49228 0.0
H1445 H 0.52745 0.63057 0.60082 0.0
H1446 H 0.57688 0.68729 0.56702 0.0
H1447 H 0.5854 0.67873 0.60216 0.0
H1448 H 0.58255 0.67747 0.51966 0.0
H1449 H 0.52323 0.63908 0.69331 0.0
H1450 H 0.53931 0.64897 0.73695 0.0
H1451 H 0.53161 0.65803 0.6992 0.0
H1452 H 0.5821 0.68384 0.80705 0.0
H1453 H 0.56237 0.70491 0.72027 0.0
H1454 H 0.5786 0.66149 0.68675 0.0
H1455 H 0.56306 0.65154 0.73228 0.0
H1456 H 0.57971 0.66273 0.76998 0.0
H1457 H 0.55457 0.68724 0.57922 0.0
H1458 H 0.54867 0.6963 0.63019 0.0
H1459 H 0.53915 0.67729 0.62539 0.0
C1460 C 0.31836 0.89179 0.77699 0.0
C1461 C 0.30675 0.87816 0.77056 0.0
C1462 C 0.32927 0.89728 0.73322 0.0
C1463 C 0.3284 0.889 0.68131 0.0
C1464 C 0.31665 0.87525 0.67431 0.0
C1465 C 0.30599 0.86994 0.71943 0.0
C1466 C 0.34175 0.9119 0.74268 0.0
C1467 C 0.31528 0.86622 0.61899 0.0
C1468 C 0.3499 0.90846 0.5401 0.0
C1469 C 0.36133 0.9061 0.54444 0.0
C1470 C 0.33903 0.90282 0.58403 0.0
C1471 C 0.33974 0.89482 0.63394 0.0
C1472 C 0.35134 0.89253 0.63894 0.0
C1473 C 0.36196 0.89811 0.59375 0.0
C1474 C 0.32673 0.90533 0.57679 0.0
C1475 C 0.35254 0.88424 0.69213 0.0
H1476 H 0.31902 0.89813 0.81677 0.0
H1477 H 0.297 0.8594 0.71435 0.0
H1478 H 0.35165 0.91145 0.74361 0.0
H1479 H 0.34257 0.91881 0.70345 0.0
H1480 H 0.34097 0.91681 0.78638 0.0
H1481 H 0.30541 0.85582 0.62019 0.0
H1482 H 0.31542 0.87176 0.5757 0.0
H1483 H 0.32439 0.86444 0.61706 0.0
H1484 H 0.34934 0.91456 0.50175 0.0
H1485 H 0.37081 0.8963 0.59722 0.0
H1486 H 0.32602 0.91107 0.61772 0.0
H1487 H 0.31672 0.89509 0.57433 0.0
H1488 H 0.32764 0.91154 0.53458 0.0
H1489 H 0.35245 0.88922 0.73674 0.0
H1490 H 0.36233 0.88357 0.68967 0.0
H1491 H 0.34333 0.87338 0.69236 0.0
C1492 C 0.12838 0.43446 0.73743 0.0
C1493 C 0.12003 0.42727 0.7887 0.0
C1494 C 0.12346 0.4402 0.69238 0.0
C1495 C 0.11001 0.43893 0.69965 0.0
C1496 C 0.10162 0.43181 0.75177 0.0
C1497 C 0.10668 0.42594 0.79541 0.0
C1498 C 0.13258 0.4475 0.63675 0.0
C1499 C 0.08733 0.43045 0.76155 0.0
C1500 C 0.10242 0.46434 0.61089 0.0
C1501 C 0.09409 0.4558 0.56212 0.0
C1502 C 0.10761 0.45896 0.65638 0.0
C1503 C 0.10459 0.4448 0.65212 0.0
C1504 C 0.09627 0.43618 0.60265 0.0
C1505 C 0.09101 0.44176 0.55851 0.0
C1506 C 0.11625 0.46837 0.70913 0.0
C1507 C 0.093 0.4211 0.59609 0.0
H1508 H 0.13869 0.43546 0.73215 0.0
H1509 H 0.10026 0.42047 0.83535 0.0
H1510 H 0.12686 0.44219 0.59368 0.0
H1511 H 0.1349 0.45858 0.63448 0.0
H1512 H 0.14273 0.4475 0.63783 0.0
H1513 H 0.08233 0.42498 0.80559 0.0
H1514 H 0.08834 0.44105 0.76201 0.0
H1515 H 0.08019 0.42447 0.72271 0.0
H1516 H 0.10477 0.47519 0.6138 0.0
H1517 H 0.08465 0.43516 0.52056 0.0
H1518 H 0.12689 0.46947 0.70929 0.0
H1519 H 0.11119 0.46353 0.75396 0.0
H1520 H 0.11746 0.47906 0.70619 0.0
H1521 H 0.10296 0.42077 0.59371 0.0
H1522 H 0.08665 0.41592 0.55409 0.0
H1523 H 0.08711 0.41489 0.63727 0.0
C1524 C 0.12904 0.69672 0.71668 0.0
C1525 C 0.13227 0.69516 0.7779 0.0
C1526 C 0.12451 0.68559 0.67425 0.0
C1527 C 0.12327 0.67265 0.69355 0.0
C1528 C 0.12744 0.67135 0.75408 0.0
C1529 C 0.13186 0.68263 0.79568 0.0
C1530 C 0.12018 0.68739 0.61003 0.0
C1531 C 0.12643 0.65778 0.77609 0.0
C1532 C 0.0942 0.64039 0.61375 0.0
C1533 C 0.10168 0.63781 0.5679 0.0
C1534 C 0.10119 0.65146 0.65607 0.0
C1535 C 0.11605 0.66006 0.65285 0.0
C1536 C 0.12374 0.6571 0.60856 0.0
C1537 C 0.11644 0.64602 0.56626 0.0
C1538 C 0.09259 0.65429 0.70257 0.0
C1539 C 0.1396 0.66593 0.60442 0.0
H1540 H 0.1294 0.7064 0.70265 0.0
H1541 H 0.13443 0.68141 0.84291 0.0
H1542 H 0.12518 0.68397 0.57459 0.0
H1543 H 0.10858 0.68062 0.60493 0.0
H1544 H 0.12307 0.69849 0.60038 0.0
H1545 H 0.13192 0.65913 0.82097 0.0
H1546 H 0.11517 0.64963 0.78205 0.0
H1547 H 0.13099 0.65375 0.74129 0.0
H1548 H 0.08279 0.63407 0.61525 0.0
H1549 H 0.12226 0.64403 0.53097 0.0
H1550 H 0.09375 0.66481 0.69358 0.0
H1551 H 0.0965 0.65449 0.75014 0.0
H1552 H 0.08119 0.64624 0.7007 0.0
H1553 H 0.14263 0.6767 0.5883 0.0
H1554 H 0.14411 0.66135 0.57193 0.0
H1555 H 0.14443 0.667 0.65073 0.0
C1556 C 0.30425 0.43533 0.73991 0.0
C1557 C 0.30632 0.43005 0.79559 0.0
C1558 C 0.31483 0.44087 0.6944 0.0
C1559 C 0.32778 0.44126 0.70547 0.0
C1560 C 0.32999 0.43617 0.76215 0.0
C1561 C 0.31919 0.43054 0.80636 0.0
C1562 C 0.31208 0.44606 0.63415 0.0
C1563 C 0.34371 0.43656 0.77589 0.0
C1564 C 0.35023 0.442 0.57049 0.0
C1565 C 0.36059 0.45631 0.56823 0.0
C1566 C 0.33933 0.43702 0.61423 0.0
C1567 C 0.3389 0.44656 0.65716 0.0
C1568 C 0.34935 0.46102 0.65519 0.0
C1569 C 0.36005 0.46575 0.61041 0.0
C1570 C 0.32831 0.42154 0.61462 0.0
C1571 C 0.3493 0.47146 0.70078 0.0
H1572 H 0.2943 0.43494 0.7315 0.0
H1573 H 0.32086 0.42656 0.8496 0.0
H1574 H 0.32029 0.45722 0.6262 0.0
H1575 H 0.31269 0.43981 0.59509 0.0
H1576 H 0.30156 0.44528 0.63328 0.0
H1577 H 0.34394 0.43272 0.82326 0.0
H1578 H 0.34538 0.42992 0.74201 0.0
H1579 H 0.35268 0.44749 0.77104 0.0
H1580 H 0.35056 0.43469 0.53762 0.0
H1581 H 0.36804 0.47683 0.6087 0.0
H1582 H 0.31762 0.42025 0.61003 0.0
H1583 H 0.32861 0.41673 0.65941 0.0
H1584 H 0.32987 0.41562 0.57662 0.0
H1585 H 0.33916 0.47142 0.69792 0.0
H1586 H 0.35807 0.48237 0.69246 0.0
H1587 H 0.35022 0.46832 0.74864 0.0
C1588 C 0.55038 0.86213 0.76338 0.0
C1589 C 0.56517 0.86999 0.76311 0.0
C1590 C 0.54245 0.86524 0.72168 0.0
C1591 C 0.54953 0.87645 0.67899 0.0
C1592 C 0.56446 0.88414 0.67757 0.0
C1593 C 0.57209 0.88082 0.71964 0.0
C1594 C 0.52655 0.85679 0.7243 0.0
C1595 C 0.57241 0.89615 0.63257 0.0
C1596 C 0.53348 0.88145 0.53284 0.0
C1597 C 0.5318 0.8929 0.54945 0.0
C1598 C 0.5383 0.87523 0.576 0.0
C1599 C 0.54151 0.88065 0.63701 0.0
C1600 C 0.53879 0.89149 0.65519 0.0
C1601 C 0.53395 0.89749 0.61111 0.0
C1602 C 0.54096 0.86361 0.555 0.0
C1603 C 0.54199 0.89748 0.71995 0.0
H1604 H 0.545 0.85375 0.79699 0.0
H1605 H 0.58352 0.88689 0.71913 0.0
H1606 H 0.52237 0.86371 0.73895 0.0
H1607 H 0.52217 0.85266 0.6777 0.0
H1608 H 0.52269 0.8478 0.75711 0.0
H1609 H 0.58402 0.90077 0.6362 0.0
H1610 H 0.56915 0.89242 0.5844 0.0
H1611 H 0.56984 0.9046 0.64137 0.0
H1612 H 0.53175 0.8778 0.48528 0.0
H1613 H 0.53257 0.90628 0.62427 0.0
H1614 H 0.53691 0.85496 0.58959 0.0
H1615 H 0.55249 0.86785 0.55058 0.0
H1616 H 0.53595 0.85916 0.50954 0.0
H1617 H 0.53766 0.88889 0.7548 0.0
H1618 H 0.5376 0.90454 0.72888 0.0
H1619 H 0.55359 0.90364 0.72671 0.0
C1620 C 0.35866 0.1173 0.09287 0.0
C1621 C 0.36694 0.1111 0.10472 0.0
C1622 C 0.34442 0.11054 0.11074 0.0
C1623 C 0.33829 0.09715 0.13981 0.0
C1624 C 0.34648 0.09059 0.14932 0.0
C1625 C 0.36076 0.09773 0.13232 0.0
C1626 C 0.33608 0.11796 0.10074 0.0
C1627 C 0.34025 0.07619 0.1788 0.0
C1628 C 0.30673 0.08552 0.2461 0.0
C1629 C 0.29551 0.07682 0.20691 0.0
C1630 C 0.3207 0.09239 0.22448 0.0
C1631 C 0.3235 0.09023 0.16264 0.0
C1632 C 0.31221 0.08131 0.12311 0.0
C1633 C 0.29832 0.07483 0.14556 0.0
C1634 C 0.33244 0.10203 0.26771 0.0
C1635 C 0.3148 0.0785 0.05736 0.0
H1636 H 0.36347 0.12769 0.07196 0.0
H1637 H 0.36715 0.09289 0.14124 0.0
H1638 H 0.32634 0.11112 0.07413 0.0
H1639 H 0.33279 0.12011 0.14614 0.0
H1640 H 0.34225 0.12811 0.07561 0.0
H1641 H 0.34773 0.07211 0.17861 0.0
H1642 H 0.33728 0.07668 0.22743 0.0
H1643 H 0.3305 0.06855 0.15405 0.0
H1644 H 0.30457 0.08716 0.29342 0.0
H1645 H 0.28966 0.06804 0.11523 0.0
H1646 H 0.33855 0.11271 0.24703 0.0
H1647 H 0.33985 0.098 0.27454 0.0
H1648 H 0.32844 0.10297 0.31369 0.0
H1649 H 0.32026 0.08854 0.03106 0.0
H1650 H 0.30487 0.07116 0.03283 0.0
H1651 H 0.32183 0.0739 0.05718 0.0
C1652 C 0.89735 0.25713 0.08552 0.0
C1653 C 0.8846 0.25399 0.11401 0.0
C1654 C 0.90469 0.25024 0.10362 0.0
C1655 C 0.89902 0.23983 0.15061 0.0
C1656 C 0.88615 0.23664 0.17956 0.0
C1657 C 0.87915 0.24384 0.1612 0.0
C1658 C 0.91847 0.25405 0.07224 0.0
C1659 C 0.87967 0.22546 0.22919 0.0
C1660 C 0.91064 0.21247 0.15117 0.0
C1661 C 0.92056 0.21731 0.19931 0.0
C1662 C 0.9034 0.21959 0.13551 0.0
C1663 C 0.90633 0.23197 0.16817 0.0
C1664 C 0.91629 0.23687 0.21706 0.0
C1665 C 0.92322 0.2294 0.2324 0.0
C1666 C 0.89268 0.2139 0.08379 0.0
C1667 C 0.91979 0.25013 0.25241 0.0
H1668 H 0.90163 0.26503 0.04926 0.0
H1669 H 0.86928 0.24135 0.18323 0.0
H1670 H 0.92694 0.25724 0.10733 0.0
H1671 H 0.91751 0.24472 0.0476 0.0
H1672 H 0.92174 0.26279 0.0384 0.0
H1673 H 0.86969 0.22436 0.24759 0.0
H1674 H 0.87745 0.21513 0.21025 0.0
H1675 H 0.88718 0.22805 0.26813 0.0
H1676 H 0.90852 0.20308 0.12566 0.0
H1677 H 0.93093 0.2332 0.26945 0.0
H1678 H 0.896 0.22177 0.04592 0.0
H1679 H 0.88232 0.212 0.10086 0.0
H1680 H 0.89131 0.20388 0.06439 0.0
H1681 H 0.92394 0.25923 0.22016 0.0
H1682 H 0.92775 0.2525 0.28929 0.0
H1683 H 0.91012 0.24909 0.27395 0.0
C1684 C 0.75625 0.63767 0.17003 0.0
C1685 C 0.74424 0.63136 0.13219 0.0
C1686 C 0.7632 0.65217 0.18275 0.0
C1687 C 0.75799 0.66057 0.15714 0.0
C1688 C 0.74589 0.65429 0.11866 0.0
C1689 C 0.73916 0.63974 0.10655 0.0
C1690 C 0.77611 0.65848 0.22381 0.0
C1691 C 0.74003 0.66293 0.09062 0.0
C1692 C 0.76901 0.69531 0.23876 0.0
C1693 C 0.78025 0.70487 0.20162 0.0
C1694 C 0.76144 0.68089 0.22398 0.0
C1695 C 0.76525 0.67594 0.17094 0.0
C1696 C 0.77643 0.6856 0.13272 0.0
C1697 C 0.78379 0.69996 0.14848 0.0
C1698 C 0.74954 0.67091 0.26575 0.0
C1699 C 0.78083 0.68072 0.0759 0.0
H1700 H 0.76024 0.63125 0.18994 0.0
H1701 H 0.72986 0.6349 0.07733 0.0
H1702 H 0.78527 0.66694 0.19858 0.0
H1703 H 0.77429 0.66339 0.2651 0.0
H1704 H 0.77887 0.65051 0.23962 0.0
H1705 H 0.73058 0.65646 0.06147 0.0
H1706 H 0.73711 0.66798 0.12784 0.0
H1707 H 0.74819 0.67152 0.06175 0.0
H1708 H 0.76621 0.69906 0.27977 0.0
H1709 H 0.79246 0.70732 0.11954 0.0
H1710 H 0.75213 0.66323 0.28681 0.0
H1711 H 0.73973 0.66478 0.23846 0.0
H1712 H 0.74747 0.67652 0.30351 0.0
H1713 H 0.78462 0.67341 0.08966 0.0
H1714 H 0.78935 0.68964 0.04963 0.0
H1715 H 0.77166 0.67479 0.04473 0.0
C1716 C 0.08596 0.30001 0.85243 0.0
C1717 C 0.07598 0.29534 0.80451 0.0
C1718 C 0.09298 0.31417 0.87141 0.0
C1719 C 0.08987 0.32386 0.84207 0.0
C1720 C 0.07959 0.31914 0.7945 0.0
C1721 C 0.07281 0.30493 0.77608 0.0
C1722 C 0.10396 0.31882 0.92194 0.0
C1723 C 0.07592 0.32915 0.76243 0.0
C1724 C 0.10064 0.35874 0.92242 0.0
C1725 C 0.113 0.36797 0.89026 0.0
C1726 C 0.09296 0.34434 0.9072 0.0
C1727 C 0.09785 0.33906 0.85915 0.0
C1728 C 0.11042 0.34832 0.82715 0.0
C1729 C 0.1178 0.36266 0.84289 0.0
C1730 C 0.07954 0.33479 0.94204 0.0
C1731 C 0.11606 0.34307 0.7761 0.0
H1732 H 0.08846 0.29264 0.87457 0.0
H1733 H 0.06506 0.30135 0.73921 0.0
H1734 H 0.11442 0.32675 0.90335 0.0
H1735 H 0.10137 0.32396 0.95997 0.0
H1736 H 0.1048 0.30988 0.94149 0.0
H1737 H 0.0672 0.32367 0.72854 0.0
H1738 H 0.0728 0.33456 0.79704 0.0
H1739 H 0.08532 0.33741 0.73767 0.0
H1740 H 0.09687 0.36282 0.95892 0.0
H1741 H 0.12737 0.36975 0.81799 0.0
H1742 H 0.08038 0.32612 0.96446 0.0
H1743 H 0.07053 0.32987 0.90932 0.0
H1744 H 0.07718 0.34053 0.97816 0.0
H1745 H 0.11787 0.3346 0.79397 0.0
H1746 H 0.12611 0.3516 0.75648 0.0
H1747 H 0.1082 0.33845 0.73822 0.0
C1748 C 0.6984 0.78853 0.83871 0.0
C1749 C 0.70379 0.78436 0.7893 0.0
C1750 C 0.68394 0.78124 0.8524 0.0
C1751 C 0.67468 0.76937 0.81634 0.0
C1752 C 0.68005 0.76518 0.76607 0.0
C1753 C 0.69455 0.7728 0.75284 0.0
C1754 C 0.67858 0.78617 0.90577 0.0
C1755 C 0.67052 0.75248 0.72704 0.0
C1756 C 0.64009 0.74289 0.89193 0.0
C1757 C 0.63061 0.74636 0.86467 0.0
C1758 C 0.65443 0.75013 0.87578 0.0
C1759 C 0.65942 0.76125 0.83202 0.0
C1760 C 0.64988 0.7648 0.80439 0.0
C1761 C 0.63556 0.75724 0.82075 0.0
C1762 C 0.66427 0.74594 0.9057 0.0
C1763 C 0.65483 0.77671 0.75819 0.0
H1764 H 0.70551 0.79751 0.86683 0.0
H1765 H 0.6987 0.76952 0.71477 0.0
H1766 H 0.67019 0.78827 0.88953 0.0
H1767 H 0.67383 0.77778 0.94146 0.0
H1768 H 0.68708 0.7959 0.92774 0.0
H1769 H 0.67633 0.7507 0.68923 0.0
H1770 H 0.66539 0.74291 0.75657 0.0
H1771 H 0.66199 0.75383 0.70629 0.0
H1772 H 0.63628 0.73443 0.92567 0.0
H1773 H 0.62826 0.75999 0.7997 0.0
H1774 H 0.67248 0.75492 0.93266 0.0
H1775 H 0.66976 0.74327 0.86959 0.0
H1776 H 0.65863 0.73674 0.93717 0.0
H1777 H 0.66283 0.78674 0.77997 0.0
H1778 H 0.64605 0.77807 0.7406 0.0
H1779 H 0.65999 0.77473 0.7183 0.0
C1780 C 0.22943 0.92327 0.76423 0.0
C1781 C 0.21744 0.92045 0.79864 0.0
C1782 C 0.23696 0.91628 0.7774 0.0
C1783 C 0.23229 0.90618 0.82573 0.0
C1784 C 0.22012 0.90321 0.86016 0.0
C1785 C 0.21288 0.91043 0.84634 0.0
C1786 C 0.24995 0.91976 0.73993 0.0
C1787 C 0.21474 0.89243 0.91165 0.0
C1788 C 0.24368 0.87862 0.82511 0.0
C1789 C 0.25431 0.88389 0.87023 0.0
C1790 C 0.23646 0.88579 0.81003 0.0
C1791 C 0.24008 0.89863 0.8403 0.0
C1792 C 0.2509 0.90407 0.88556 0.0
C1793 C 0.25783 0.89658 0.90029 0.0
C1794 C 0.22486 0.87956 0.7621 0.0
C1795 C 0.25513 0.9178 0.91844 0.0
H1796 H 0.23302 0.93104 0.72745 0.0
H1797 H 0.2036 0.90819 0.87303 0.0
H1798 H 0.25923 0.92361 0.77097 0.0
H1799 H 0.24859 0.91012 0.7167 0.0
H1800 H 0.25222 0.92793 0.70416 0.0
H1801 H 0.20501 0.89123 0.93348 0.0
H1802 H 0.21245 0.88201 0.89344 0.0
H1803 H 0.22295 0.89553 0.9479 0.0
H1804 H 0.2409 0.86879 0.80183 0.0
H1805 H 0.26611 0.90073 0.93494 0.0
H1806 H 0.22729 0.88716 0.72366 0.0
H1807 H 0.21476 0.87753 0.78302 0.0
H1808 H 0.22339 0.86952 0.74258 0.0
H1809 H 0.2583 0.92641 0.88413 0.0
H1810 H 0.26401 0.92078 0.95119 0.0
H1811 H 0.24601 0.91695 0.94455 0.0
C1812 C 0.69683 0.92784 0.77963 0.0
C1813 C 0.70605 0.92357 0.80298 0.0
C1814 C 0.68247 0.92058 0.79545 0.0
C1815 C 0.67719 0.90864 0.83473 0.0
C1816 C 0.68648 0.90432 0.85865 0.0
C1817 C 0.70083 0.91191 0.84284 0.0
C1818 C 0.67292 0.92562 0.7697 0.0
C1819 C 0.6812 0.89152 0.8999 0.0
C1820 C 0.64179 0.89594 0.91365 0.0
C1821 C 0.63261 0.88529 0.87313 0.0
C1822 C 0.65637 0.90362 0.90191 0.0
C1823 C 0.66185 0.90039 0.84897 0.0
C1824 C 0.65264 0.88941 0.80873 0.0
C1825 C 0.63811 0.88207 0.82105 0.0
C1826 C 0.66585 0.91536 0.94544 0.0
C1827 C 0.6581 0.88551 0.75233 0.0
H1828 H 0.70085 0.9369 0.74908 0.0
H1829 H 0.70793 0.90855 0.86083 0.0
H1830 H 0.66476 0.91735 0.73961 0.0
H1831 H 0.66734 0.92755 0.80798 0.0
H1832 H 0.6788 0.93547 0.74222 0.0
H1833 H 0.68983 0.88971 0.91554 0.0
H1834 H 0.67589 0.89274 0.94125 0.0
H1835 H 0.67325 0.882 0.8747 0.0
H1836 H 0.63756 0.89848 0.95382 0.0
H1837 H 0.63104 0.87379 0.78978 0.0
H1838 H 0.67121 0.92553 0.91994 0.0
H1839 H 0.6742 0.91345 0.96391 0.0
H1840 H 0.65996 0.91643 0.98497 0.0
H1841 H 0.6631 0.8946 0.72008 0.0
H1842 H 0.64961 0.87633 0.72716 0.0
H1843 H 0.66633 0.88294 0.76608 0.0
C1844 C 0.0669 0.76347 0.77238 0.0
C1845 C 0.07517 0.77818 0.76731 0.0
C1846 C 0.07293 0.75529 0.79014 0.0
C1847 C 0.08758 0.762 0.80277 0.0
C1848 C 0.09598 0.77684 0.79719 0.0
C1849 C 0.08967 0.78474 0.77967 0.0
C1850 C 0.06364 0.73949 0.79577 0.0
C1851 C 0.11165 0.7844 0.80994 0.0
C1852 C 0.10303 0.74458 0.90326 0.0
C1853 C 0.10918 0.74001 0.85881 0.0
C1854 C 0.09555 0.75136 0.88558 0.0
C1855 C 0.09423 0.75361 0.82196 0.0
C1856 C 0.10005 0.74862 0.77683 0.0
C1857 C 0.10747 0.74188 0.79582 0.0
C1858 C 0.08947 0.75651 0.93505 0.0
C1859 C 0.09885 0.7508 0.70856 0.0
H1860 H 0.05567 0.75835 0.76299 0.0
H1861 H 0.09613 0.79611 0.77573 0.0
H1862 H 0.06754 0.73411 0.76471 0.0
H1863 H 0.06409 0.73612 0.84376 0.0
H1864 H 0.05247 0.73589 0.78398 0.0
H1865 H 0.11671 0.79598 0.80298 0.0
H1866 H 0.1136 0.78238 0.85828 0.0
H1867 H 0.11686 0.78028 0.77903 0.0
H1868 H 0.10429 0.74312 0.95201 0.0
H1869 H 0.11217 0.73832 0.76123 0.0
H1870 H 0.07812 0.75254 0.92598 0.0
H1871 H 0.0949 0.76821 0.9341 0.0
H1872 H 0.0906 0.75311 0.98214 0.0
H1873 H 0.08765 0.74673 0.69575 0.0
H1874 H 0.10315 0.74548 0.67931 0.0
H1875 H 0.10467 0.76225 0.69781 0.0
C1876 C 0.21191 0.30423 0.82676 0.0
C1877 C 0.21778 0.29862 0.7859 0.0
C1878 C 0.21927 0.31855 0.84305 0.0
C1879 C 0.23291 0.32743 0.81842 0.0
C1880 C 0.23885 0.32185 0.77671 0.0
C1881 C 0.23116 0.3075 0.76065 0.0
C1882 C 0.21251 0.32416 0.88705 0.0
C1883 C 0.2534 0.33098 0.74988 0.0
C1884 C 0.24694 0.36694 0.82156 0.0
C1885 C 0.25533 0.37101 0.87503 0.0
C1886 C 0.23969 0.35281 0.80222 0.0
C1887 C 0.24097 0.34253 0.83693 0.0
C1888 C 0.24961 0.34662 0.89042 0.0
C1889 C 0.25665 0.36082 0.90902 0.0
C1890 C 0.23048 0.34884 0.74525 0.0
C1891 C 0.25132 0.33598 0.92834 0.0
H1892 H 0.20154 0.29741 0.84624 0.0
H1893 H 0.23575 0.30317 0.72924 0.0
H1894 H 0.21902 0.32827 0.92951 0.0
H1895 H 0.21199 0.33307 0.86534 0.0
H1896 H 0.20168 0.31595 0.90068 0.0
H1897 H 0.25644 0.32505 0.71759 0.0
H1898 H 0.25389 0.34004 0.7247 0.0
H1899 H 0.26129 0.33536 0.78777 0.0
H1900 H 0.24587 0.37478 0.79514 0.0
H1901 H 0.26317 0.36393 0.95024 0.0
H1902 H 0.21938 0.34124 0.75787 0.0
H1903 H 0.23384 0.34352 0.71114 0.0
H1904 H 0.23085 0.35814 0.72269 0.0
H1905 H 0.24096 0.32798 0.94754 0.0
H1906 H 0.25885 0.34095 0.96728 0.0
H1907 H 0.25511 0.3303 0.89853 0.0
C1908 C 0.90902 0.697 0.15536 0.0
C1909 C 0.9206 0.703 0.1958 0.0
C1910 C 0.90181 0.68248 0.14287 0.0
C1911 C 0.90635 0.67377 0.17115 0.0
C1912 C 0.91799 0.67974 0.21231 0.0
C1913 C 0.92495 0.6943 0.22434 0.0
C1914 C 0.88938 0.67648 0.09911 0.0
C1915 C 0.92317 0.67078 0.24305 0.0
C1916 C 0.88023 0.63442 0.17833 0.0
C1917 C 0.88434 0.62943 0.12723 0.0
C1918 C 0.88738 0.64882 0.19353 0.0
C1919 C 0.89898 0.65842 0.15699 0.0
C1920 C 0.90329 0.6534 0.10583 0.0
C1921 C 0.89588 0.63896 0.0914 0.0
C1922 C 0.8824 0.65379 0.24813 0.0
C1923 C 0.91568 0.6633 0.06604 0.0
H1924 H 0.90559 0.70367 0.1333 0.0
H1925 H 0.93391 0.6989 0.25553 0.0
H1926 H 0.89153 0.67159 0.05869 0.0
H1927 H 0.87987 0.66807 0.12261 0.0
H1928 H 0.88701 0.68464 0.08202 0.0
H1929 H 0.93228 0.67703 0.27426 0.0
H1930 H 0.91453 0.66225 0.27036 0.0
H1931 H 0.92638 0.66566 0.20731 0.0
H1932 H 0.8713 0.62709 0.20615 0.0
H1933 H 0.89913 0.63514 0.052 0.0
H1934 H 0.87913 0.66138 0.23231 0.0
H1935 H 0.89116 0.65943 0.28162 0.0
H1936 H 0.87338 0.64494 0.27251 0.0
H1937 H 0.91351 0.67118 0.04389 0.0
H1938 H 0.91797 0.65766 0.0292 0.0
H1939 H 0.92524 0.66922 0.09513 0.0
C1940 C 0.3605 0.25726 0.10771 0.0
C1941 C 0.3699 0.25406 0.13781 0.0
C1942 C 0.34613 0.25024 0.12333 0.0
C1943 C 0.34103 0.23963 0.16954 0.0
C1944 C 0.35047 0.23633 0.19993 0.0
C1945 C 0.36483 0.24366 0.18397 0.0
C1946 C 0.3364 0.25415 0.09038 0.0
C1947 C 0.34539 0.22496 0.24882 0.0
C1948 C 0.30595 0.22934 0.24655 0.0
C1949 C 0.29664 0.21735 0.21249 0.0
C1950 C 0.32045 0.2367 0.23318 0.0
C1951 C 0.32575 0.23182 0.18522 0.0
C1952 C 0.31642 0.21955 0.15154 0.0
C1953 C 0.30196 0.21252 0.16531 0.0
C1954 C 0.33006 0.24983 0.26964 0.0
C1955 C 0.32169 0.2139 0.10067 0.0
H1956 H 0.3644 0.26534 0.0722 0.0
H1957 H 0.37206 0.24113 0.20723 0.0
H1958 H 0.32812 0.24487 0.06511 0.0
H1959 H 0.33097 0.25736 0.12458 0.0
H1960 H 0.3421 0.26291 0.05684 0.0
H1961 H 0.3541 0.22369 0.26811 0.0
H1962 H 0.34031 0.22748 0.28728 0.0
H1963 H 0.33731 0.21473 0.22889 0.0
H1964 H 0.30186 0.23314 0.2829 0.0
H1965 H 0.2948 0.20322 0.13904 0.0
H1966 H 0.33529 0.25902 0.23794 0.0
H1967 H 0.3385 0.24864 0.2923 0.0
H1968 H 0.3243 0.25217 0.30576 0.0
H1969 H 0.32654 0.22185 0.06324 0.0
H1970 H 0.31313 0.20397 0.08034 0.0
H1971 H 0.33 0.21188 0.11891 0.0
C1972 C 0.75395 0.11825 0.16917 0.0
C1973 C 0.74527 0.11471 0.11679 0.0
C1974 C 0.76135 0.11118 0.18275 0.0
C1975 C 0.75987 0.10017 0.14347 0.0
C1976 C 0.75113 0.09656 0.0904 0.0
C1977 C 0.74401 0.10396 0.07742 0.0
C1978 C 0.77073 0.11547 0.23928 0.0
C1979 C 0.74917 0.08477 0.04784 0.0
C1980 C 0.78814 0.08974 0.1503 0.0
C1981 C 0.78199 0.07812 0.19041 0.0
C1982 C 0.78103 0.09699 0.13435 0.0
C1983 C 0.76737 0.09235 0.15843 0.0
C1984 C 0.76102 0.08047 0.19814 0.0
C1985 C 0.76846 0.07355 0.21404 0.0
C1986 C 0.78822 0.10973 0.09258 0.0
C1987 C 0.7464 0.07511 0.22411 0.0
H1988 H 0.75501 0.1266 0.19958 0.0
H1989 H 0.73726 0.10116 0.03701 0.0
H1990 H 0.7669 0.10645 0.27183 0.0
H1991 H 0.78163 0.1184 0.22572 0.0
H1992 H 0.77106 0.12453 0.26402 0.0
H1993 H 0.74202 0.08329 0.00846 0.0
H1994 H 0.75951 0.08698 0.02912 0.0
H1995 H 0.74473 0.07474 0.07416 0.0
H1996 H 0.79862 0.09333 0.13209 0.0
H1997 H 0.76365 0.06452 0.24482 0.0
H1998 H 0.78944 0.11918 0.11719 0.0
H1999 H 0.78164 0.10819 0.05105 0.0
H2000 H 0.7988 0.11188 0.07724 0.0
H2001 H 0.74627 0.08336 0.25349 0.0
H2002 H 0.74275 0.06541 0.25234 0.0
H2003 H 0.73878 0.0728 0.18588 0.0
C2004 C 0.03055 0.45563 0.49649 0.0
C2005 C 0.03624 0.45026 0.45344 0.0
C2006 C 0.01612 0.44827 0.51091 0.0
C2007 C 0.00721 0.43513 0.48211 0.0
C2008 C 0.0129 0.42965 0.43854 0.0
C2009 C 0.02735 0.43734 0.42442 0.0
C2010 C 0.01042 0.45454 0.55698 0.0
C2011 C 0.00373 0.41563 0.40725 0.0
C2012 C 0.97246 0.41029 0.5615 0.0
C2013 C 0.96289 0.41238 0.52639 0.0
C2014 C 0.98692 0.41754 0.5473 0.0
C2015 C 0.99191 0.4272 0.49723 0.0
C2016 C 0.98229 0.42942 0.46196 0.0
C2017 C 0.96789 0.42193 0.4768 0.0
C2018 C 0.99686 0.41484 0.58568 0.0
C2019 C 0.98722 0.43974 0.40867 0.0
H2020 H 0.03738 0.46564 0.51893 0.0
H2021 H 0.03174 0.43312 0.39135 0.0
H2022 H 0.00198 0.45588 0.53518 0.0
H2023 H 0.00562 0.44729 0.59684 0.0
H2024 H 0.01873 0.46495 0.57466 0.0
H2025 H 0.00981 0.41278 0.37492 0.0
H2026 H 0.99866 0.40719 0.4426 0.0
H2027 H 0.99516 0.41591 0.38101 0.0
H2028 H 0.96863 0.40288 0.59972 0.0
H2029 H 0.96054 0.42361 0.44958 0.0
H2030 H 0.00491 0.42479 0.60781 0.0
H2031 H 0.00256 0.41113 0.55549 0.0
H2032 H 0.99128 0.40684 0.62243 0.0
H2033 H 0.99506 0.45043 0.42531 0.0
H2034 H 0.97839 0.4403 0.38608 0.0
H2035 H 0.99255 0.43666 0.3734 0.0
C2036 C 0.57478 0.54679 0.56682 0.0
C2037 C 0.58955 0.55345 0.56803 0.0
C2038 C 0.56793 0.55411 0.54813 0.0
C2039 C 0.57605 0.56851 0.53125 0.0
C2040 C 0.59096 0.57541 0.53411 0.0
C2041 C 0.59754 0.56775 0.55197 0.0
C2042 C 0.55201 0.54634 0.54498 0.0
C2043 C 0.59996 0.59081 0.51752 0.0
C2044 C 0.55908 0.58361 0.42565 0.0
C2045 C 0.55444 0.59005 0.46833 0.0
C2046 C 0.56618 0.5766 0.4455 0.0
C2047 C 0.5689 0.57625 0.50941 0.0
C2048 C 0.56449 0.583 0.55254 0.0
C2049 C 0.55721 0.58972 0.53151 0.0
C2050 C 0.57054 0.56935 0.3982 0.0
C2051 C 0.5674 0.58305 0.62091 0.0
H2052 H 0.56856 0.53571 0.57883 0.0
H2053 H 0.60896 0.57295 0.55299 0.0
H2054 H 0.5478 0.55169 0.57444 0.0
H2055 H 0.54858 0.5465 0.49679 0.0
H2056 H 0.54725 0.53519 0.56026 0.0
H2057 H 0.61137 0.59478 0.5251 0.0
H2058 H 0.59833 0.59243 0.46819 0.0
H2059 H 0.59677 0.59725 0.54557 0.0
H2060 H 0.55692 0.58381 0.3768 0.0
H2061 H 0.55371 0.59477 0.56463 0.0
H2062 H 0.56537 0.5579 0.40871 0.0
H2063 H 0.5821 0.57362 0.40041 0.0
H2064 H 0.5677 0.57067 0.35026 0.0
H2065 H 0.56197 0.57208 0.63887 0.0
H2066 H 0.56381 0.58929 0.64805 0.0
H2067 H 0.57887 0.58749 0.62882 0.0
C2068 C 0.45393 0.03253 0.47669 0.0
C2069 C 0.44906 0.03673 0.52793 0.0
C2070 C 0.44706 0.01839 0.45734 0.0
C2071 C 0.43496 0.00825 0.48967 0.0
C2072 C 0.42988 0.01248 0.54093 0.0
C2073 C 0.43704 0.02666 0.55964 0.0
C2074 C 0.45288 0.01427 0.40286 0.0
C2075 C 0.41694 0.00199 0.57628 0.0
C2076 C 0.41002 0.97339 0.41107 0.0
C2077 C 0.41385 0.96426 0.43932 0.0
C2078 C 0.41685 0.98778 0.42674 0.0
C2079 C 0.42785 0.99314 0.47115 0.0
C2080 C 0.43193 0.984 0.49883 0.0
C2081 C 0.42482 0.96966 0.48283 0.0
C2082 C 0.41214 0.99718 0.39663 0.0
C2083 C 0.44371 0.98934 0.54584 0.0
H2084 H 0.46323 0.04028 0.45205 0.0
H2085 H 0.4332 0.02987 0.59911 0.0
H2086 H 0.45593 0.00646 0.41775 0.0
H2087 H 0.44465 0.00916 0.36667 0.0
H2088 H 0.46224 0.02347 0.38204 0.0
H2089 H 0.41406 0.00706 0.61364 0.0
H2090 H 0.40785 0.99652 0.54427 0.0
H2091 H 0.4188 0.99381 0.5973 0.0
H2092 H 0.40151 0.96925 0.37757 0.0
H2093 H 0.42786 0.96265 0.50462 0.0
H2094 H 0.42118 0.00615 0.37301 0.0
H2095 H 0.4083 0.00171 0.43252 0.0
H2096 H 0.40358 0.99143 0.36227 0.0
H2097 H 0.45352 0.99814 0.52587 0.0
H2098 H 0.44591 0.98096 0.56146 0.0
H2099 H 0.44094 0.99355 0.58686 0.0
C2100 C 0.59735 0.02636 0.5515 0.0
C2101 C 0.58929 0.03307 0.5508 0.0
C2102 C 0.59122 0.01195 0.53721 0.0
C2103 C 0.57672 0.00414 0.52157 0.0
C2104 C 0.5685 0.01082 0.52185 0.0
C2105 C 0.57487 0.02519 0.53662 0.0
C2106 C 0.60028 0.00515 0.53782 0.0
C2107 C 0.55301 0.00286 0.50531 0.0
C2108 C 0.5625 0.97115 0.42273 0.0
C2109 C 0.55547 0.96049 0.46686 0.0
C2110 C 0.56983 0.98541 0.44018 0.0
C2111 C 0.57014 0.98906 0.50329 0.0
C2112 C 0.56345 0.97831 0.54829 0.0
C2113 C 0.55617 0.96414 0.52951 0.0
C2114 C 0.57684 0.99658 0.39085 0.0
C2115 C 0.5636 0.9818 0.61603 0.0
H2116 H 0.6085 0.03241 0.5625 0.0
H2117 H 0.56859 0.03033 0.53597 0.0
H2118 H 0.59558 0.9958 0.56878 0.0
H2119 H 0.60073 0.00137 0.49068 0.0
H2120 H 0.61123 0.01253 0.55353 0.0
H2121 H 0.54804 0.00954 0.50907 0.0
H2122 H 0.55166 0.99884 0.4572 0.0
H2123 H 0.54728 0.99359 0.53617 0.0
H2124 H 0.56202 0.96837 0.37426 0.0
H2125 H 0.55079 0.95593 0.56386 0.0
H2126 H 0.58808 0.00378 0.40275 0.0
H2127 H 0.57165 0.00306 0.38834 0.0
H2128 H 0.5763 0.99197 0.34441 0.0
H2129 H 0.57459 0.98887 0.63185 0.0
H2130 H 0.55875 0.97221 0.64562 0.0
H2131 H 0.55773 0.98752 0.62294 0.0
C2132 C 0.97243 0.56371 0.57528 0.0
C2133 C 0.96314 0.55124 0.54398 0.0
C2134 C 0.98684 0.5712 0.56028 0.0
C2135 C 0.99208 0.56599 0.51347 0.0
C2136 C 0.98276 0.55334 0.48209 0.0
C2137 C 0.96838 0.54617 0.49746 0.0
C2138 C 0.99644 0.58473 0.59429 0.0
C2139 C 0.98799 0.54736 0.43245 0.0
C2140 C 0.02674 0.59122 0.4347 0.0
C2141 C 0.03626 0.58848 0.46659 0.0
C2142 C 0.01233 0.58404 0.44975 0.0
C2143 C 0.00733 0.57376 0.49732 0.0
C2144 C 0.0169 0.57087 0.52934 0.0
C2145 C 0.03127 0.57833 0.51381 0.0
C2146 C 0.00247 0.58749 0.41496 0.0
C2147 C 0.01193 0.55986 0.57985 0.0
H2148 H 0.96841 0.56769 0.61113 0.0
H2149 H 0.96123 0.5365 0.47332 0.0
H2150 H 0.00489 0.5838 0.61839 0.0
H2151 H 0.00166 0.59357 0.56082 0.0
H2152 H 0.99068 0.58744 0.62894 0.0
H2153 H 0.9794 0.53731 0.41308 0.0
H2154 H 0.99285 0.55507 0.39416 0.0
H2155 H 0.99627 0.54542 0.45165 0.0
H2156 H 0.03057 0.5991 0.39829 0.0
H2157 H 0.03859 0.57614 0.53845 0.0
H2158 H 0.99707 0.59102 0.44785 0.0
H2159 H 0.99418 0.57792 0.39137 0.0
H2160 H 0.00806 0.59589 0.37976 0.0
H2161 H 0.00692 0.56267 0.61764 0.0
H2162 H 0.02069 0.55876 0.59973 0.0
H2163 H 0.00382 0.54948 0.56131 0.0
C2164 C 0.422 0.45227 0.50682 0.0
C2165 C 0.41199 0.44797 0.45915 0.0
C2166 C 0.42893 0.44473 0.5202 0.0
C2167 C 0.42567 0.43251 0.48541 0.0
C2168 C 0.4156 0.42813 0.43708 0.0
C2169 C 0.40891 0.43597 0.4243 0.0
C2170 C 0.43971 0.44982 0.57168 0.0
C2171 C 0.4118 0.4151 0.39929 0.0
C2172 C 0.45261 0.4203 0.48628 0.0
C2173 C 0.44713 0.40978 0.53193 0.0
C2174 C 0.44564 0.42767 0.47016 0.0
C2175 C 0.43283 0.42434 0.49996 0.0
C2176 C 0.42712 0.41354 0.5453 0.0
C2177 C 0.43439 0.40644 0.56101 0.0
C2178 C 0.45214 0.43921 0.42206 0.0
C2179 C 0.41341 0.40961 0.57768 0.0
H2180 H 0.42445 0.46157 0.53379 0.0
H2181 H 0.40115 0.43259 0.38753 0.0
H2182 H 0.43638 0.44157 0.60789 0.0
H2183 H 0.45002 0.45179 0.55347 0.0
H2184 H 0.44121 0.45966 0.59357 0.0
H2185 H 0.40375 0.41312 0.36332 0.0
H2186 H 0.42135 0.41618 0.37629 0.0
H2187 H 0.40764 0.40575 0.43009 0.0
H2188 H 0.46247 0.42293 0.46372 0.0
H2189 H 0.43009 0.39827 0.5961 0.0
H2190 H 0.4546 0.44945 0.44305 0.0
H2191 H 0.44454 0.43705 0.3839 0.0
H2192 H 0.46199 0.44028 0.40218 0.0
H2193 H 0.41452 0.41877 0.6044 0.0
H2194 H 0.41008 0.40056 0.60984 0.0
H2195 H 0.40492 0.40683 0.54309 0.0
C2196 C 0.25966 0.106 0.28908 0.0
C2197 C 0.24776 0.09257 0.28282 0.0
C2198 C 0.25846 0.11815 0.28731 0.0
C2199 C 0.24496 0.1168 0.28079 0.0
C2200 C 0.23283 0.10322 0.27668 0.0
C2201 C 0.2344 0.09124 0.27684 0.0
C2202 C 0.27168 0.13245 0.29042 0.0
C2203 C 0.21825 0.10137 0.27133 0.0
C2204 C 0.24387 0.14991 0.32301 0.0
C2205 C 0.2448 0.15587 0.26456 0.0
C2206 C 0.24313 0.13678 0.32895 0.0
C2207 C 0.24375 0.12969 0.27522 0.0
C2208 C 0.24432 0.13552 0.21603 0.0
C2209 C 0.24467 0.14846 0.21142 0.0
C2210 C 0.24214 0.1307 0.39273 0.0
C2211 C 0.2453 0.12845 0.15769 0.0
H2212 H 0.27002 0.10705 0.29334 0.0
H2213 H 0.22517 0.08083 0.27241 0.0
H2214 H 0.2727 0.13848 0.24755 0.0
H2215 H 0.27105 0.1386 0.32983 0.0
H2216 H 0.28136 0.13166 0.29582 0.0
H2217 H 0.20985 0.09011 0.27361 0.0
H2218 H 0.21649 0.10722 0.30896 0.0
H2219 H 0.21724 0.10584 0.22681 0.0
H2220 H 0.24387 0.15558 0.36414 0.0
H2221 H 0.24546 0.15309 0.16615 0.0
H2222 H 0.25214 0.13093 0.40397 0.0
H2223 H 0.23357 0.11951 0.3942 0.0
H2224 H 0.24012 0.13667 0.42902 0.0
H2225 H 0.25527 0.12811 0.15799 0.0
H2226 H 0.24506 0.13404 0.11518 0.0
H2227 H 0.23649 0.11739 0.15556 0.0
C2228 C 0.84548 0.105 0.28926 0.0
C2229 C 0.84433 0.09193 0.27628 0.0
C2230 C 0.85867 0.1174 0.29011 0.0
C2231 C 0.87103 0.11663 0.27931 0.0
C2232 C 0.86998 0.10333 0.26974 0.0
C2233 C 0.8566 0.09114 0.26741 0.0
C2234 C 0.8593 0.13139 0.29915 0.0
C2235 C 0.88294 0.10205 0.2598 0.0
C2236 C 0.90181 0.14896 0.20734 0.0
C2237 C 0.90985 0.15606 0.25948 0.0
C2238 C 0.88926 0.13602 0.2132 0.0
C2239 C 0.88484 0.12984 0.27251 0.0
C2240 C 0.89323 0.13668 0.32509 0.0
C2241 C 0.90556 0.14985 0.31806 0.0
C2242 C 0.88046 0.12923 0.15613 0.0
C2243 C 0.88905 0.13021 0.38877 0.0
H2244 H 0.836 0.10565 0.29583 0.0
H2245 H 0.85573 0.08101 0.25781 0.0
H2246 H 0.86668 0.13741 0.33718 0.0
H2247 H 0.86337 0.13781 0.2564 0.0
H2248 H 0.8488 0.13011 0.30997 0.0
H2249 H 0.88047 0.09089 0.26087 0.0
H2250 H 0.88771 0.10664 0.21426 0.0
H2251 H 0.89097 0.10806 0.29578 0.0
H2252 H 0.90507 0.15378 0.16203 0.0
H2253 H 0.91182 0.1553 0.35838 0.0
H2254 H 0.86994 0.1283 0.16144 0.0
H2255 H 0.87872 0.11841 0.15028 0.0
H2256 H 0.88547 0.13535 0.11337 0.0
H2257 H 0.87921 0.12992 0.40358 0.0
H2258 H 0.89737 0.13621 0.42382 0.0
H2259 H 0.88686 0.11916 0.38788 0.0
C2260 C 0.90626 0.75797 0.31059 0.0
C2261 C 0.90965 0.75508 0.25187 0.0
C2262 C 0.89403 0.7589 0.31965 0.0
C2263 C 0.88488 0.75655 0.26905 0.0
C2264 C 0.88843 0.75391 0.20948 0.0
C2265 C 0.90085 0.75336 0.20153 0.0
C2266 C 0.89073 0.76206 0.38351 0.0
C2267 C 0.87886 0.75113 0.15448 0.0
C2268 C 0.84574 0.74207 0.29409 0.0
C2269 C 0.84435 0.75378 0.27941 0.0
C2270 C 0.85898 0.74297 0.29315 0.0
C2271 C 0.87114 0.75599 0.27842 0.0
C2272 C 0.86988 0.76805 0.26706 0.0
C2273 C 0.85645 0.76677 0.26697 0.0
C2274 C 0.85983 0.7298 0.30455 0.0
C2275 C 0.88264 0.78218 0.25261 0.0
H2276 H 0.91309 0.75938 0.34954 0.0
H2277 H 0.9034 0.75106 0.15608 0.0
H2278 H 0.88841 0.77083 0.38141 0.0
H2279 H 0.88118 0.75269 0.40186 0.0
H2280 H 0.89956 0.76495 0.41647 0.0
H2281 H 0.88332 0.74955 0.11103 0.0
H2282 H 0.86848 0.74156 0.16315 0.0
H2283 H 0.87692 0.76007 0.14766 0.0
H2284 H 0.8364 0.732 0.3036 0.0
H2285 H 0.85541 0.77587 0.25606 0.0
H2286 H 0.86777 0.73174 0.34084 0.0
H2287 H 0.8633 0.72686 0.26159 0.0
H2288 H 0.84954 0.72073 0.31904 0.0
H2289 H 0.89115 0.7847 0.28679 0.0
H2290 H 0.88013 0.79084 0.25268 0.0
H2291 H 0.88682 0.7818 0.20631 0.0
C2292 C 0.1044 0.25973 0.70338 0.0
C2293 C 0.09113 0.24764 0.71051 0.0
C2294 C 0.11672 0.25881 0.70246 0.0
C2295 C 0.11569 0.24542 0.70711 0.0
C2296 C 0.10225 0.2331 0.7109 0.0
C2297 C 0.0901 0.23437 0.71351 0.0
C2298 C 0.13085 0.27224 0.69972 0.0
C2299 C 0.10072 0.21862 0.7141 0.0
C2300 C 0.14946 0.24541 0.66672 0.0
C2301 C 0.15514 0.24612 0.72563 0.0
C2302 C 0.13622 0.24439 0.65987 0.0
C2303 C 0.12876 0.24454 0.71317 0.0
C2304 C 0.13434 0.24492 0.77276 0.0
C2305 C 0.14738 0.2455 0.77824 0.0
C2306 C 0.1304 0.24356 0.59568 0.0
C2307 C 0.12687 0.24541 0.83074 0.0
H2308 H 0.10522 0.27001 0.70136 0.0
H2309 H 0.07983 0.22499 0.7186 0.0
H2310 H 0.13682 0.27338 0.74294 0.0
H2311 H 0.13721 0.2718 0.66071 0.0
H2312 H 0.1298 0.28176 0.69408 0.0
H2313 H 0.08957 0.21008 0.70913 0.0
H2314 H 0.1071 0.2174 0.67725 0.0
H2315 H 0.10476 0.21728 0.7592 0.0
H2316 H 0.15543 0.24578 0.626 0.0
H2317 H 0.15179 0.24612 0.82385 0.0
H2318 H 0.13047 0.25351 0.58495 0.0
H2319 H 0.11928 0.23486 0.59307 0.0
H2320 H 0.13664 0.24185 0.5597 0.0
H2321 H 0.12611 0.25515 0.83072 0.0
H2322 H 0.13243 0.24527 0.87356 0.0
H2323 H 0.11596 0.23631 0.83198 0.0
C2324 C 0.75776 0.85256 0.67916 0.0
C2325 C 0.75509 0.846 0.73722 0.0
C2326 C 0.7588 0.86582 0.67227 0.0
C2327 C 0.75668 0.87239 0.72437 0.0
C2328 C 0.75414 0.86585 0.7832 0.0
C2329 C 0.75357 0.85282 0.78902 0.0
C2330 C 0.76191 0.87266 0.60919 0.0
C2331 C 0.75151 0.87235 0.83966 0.0
C2332 C 0.76743 0.91116 0.73112 0.0
C2333 C 0.75457 0.91056 0.7189 0.0
C2334 C 0.76849 0.89889 0.72957 0.0
C2335 C 0.7563 0.88572 0.71732 0.0
C2336 C 0.74339 0.88514 0.70324 0.0
C2337 C 0.74273 0.89761 0.70341 0.0
C2338 C 0.78253 0.89997 0.74308 0.0
C2339 C 0.73007 0.87127 0.69126 0.0
H2340 H 0.75902 0.84732 0.63912 0.0
H2341 H 0.75141 0.84772 0.83391 0.0
H2342 H 0.75261 0.87315 0.59215 0.0
H2343 H 0.77083 0.88367 0.61214 0.0
H2344 H 0.76458 0.86682 0.57477 0.0
H2345 H 0.74983 0.86597 0.88213 0.0
H2346 H 0.76056 0.88311 0.84759 0.0
H2347 H 0.74204 0.8734 0.83205 0.0
H2348 H 0.77662 0.9212 0.7427 0.0
H2349 H 0.73275 0.89711 0.69427 0.0
H2350 H 0.78494 0.89413 0.70767 0.0
H2351 H 0.78208 0.89507 0.78859 0.0
H2352 H 0.79129 0.91109 0.74415 0.0
H2353 H 0.73181 0.86542 0.65365 0.0
H2354 H 0.72105 0.87271 0.67828 0.0
H2355 H 0.72717 0.86461 0.73346 0.0
C2356 C 0.14722 0.90748 0.68769 0.0
C2357 C 0.15472 0.90953 0.7429 0.0
C2358 C 0.13396 0.89535 0.67896 0.0
C2359 C 0.12838 0.88489 0.72576 0.0
C2360 C 0.13589 0.88702 0.78183 0.0
C2361 C 0.14887 0.89942 0.79004 0.0
C2362 C 0.12605 0.89363 0.61938 0.0
C2363 C 0.13049 0.87597 0.83225 0.0
C2364 C 0.09001 0.85587 0.73481 0.0
C2365 C 0.09064 0.84449 0.70855 0.0
C2366 C 0.10208 0.86934 0.73757 0.0
C2367 C 0.11511 0.87131 0.71523 0.0
C2368 C 0.11568 0.85991 0.68726 0.0
C2369 C 0.10338 0.84668 0.68352 0.0
C2370 C 0.10098 0.88134 0.7661 0.0
C2371 C 0.12942 0.86147 0.6642 0.0
H2372 H 0.15171 0.91535 0.65137 0.0
H2373 H 0.15472 0.90095 0.83261 0.0
H2374 H 0.12544 0.88474 0.5923 0.0
H2375 H 0.11506 0.89103 0.62949 0.0
H2376 H 0.13118 0.9033 0.59032 0.0
H2377 H 0.13757 0.87933 0.87326 0.0
H2378 H 0.11985 0.8736 0.84744 0.0
H2379 H 0.12948 0.86602 0.81407 0.0
H2380 H 0.08013 0.85421 0.75379 0.0
H2381 H 0.10391 0.83787 0.66347 0.0
H2382 H 0.10607 0.89078 0.73572 0.0
H2383 H 0.10664 0.88431 0.81105 0.0
H2384 H 0.08985 0.87852 0.77425 0.0
H2385 H 0.13449 0.87033 0.63083 0.0
H2386 H 0.12796 0.85174 0.64135 0.0
H2387 H 0.13681 0.864 0.70364 0.0
C2388 C 0.90791 0.42621 0.64284 0.0
C2389 C 0.91155 0.42296 0.58546 0.0
C2390 C 0.90699 0.43847 0.65046 0.0
C2391 C 0.91022 0.44786 0.59997 0.0
C2392 C 0.91371 0.44449 0.54174 0.0
C2393 C 0.91413 0.43197 0.535 0.0
C2394 C 0.90283 0.44152 0.7127 0.0
C2395 C 0.91755 0.45438 0.48714 0.0
C2396 C 0.90044 0.47658 0.59287 0.0
C2397 C 0.91316 0.48846 0.61051 0.0
C2398 C 0.89906 0.46311 0.59257 0.0
C2399 C 0.9108 0.46162 0.60842 0.0
C2400 C 0.92355 0.47357 0.62773 0.0
C2401 C 0.9245 0.48683 0.62935 0.0
C2402 C 0.88517 0.45055 0.57349 0.0
C2403 C 0.93642 0.4725 0.64364 0.0
H2404 H 0.90583 0.41918 0.6818 0.0
H2405 H 0.91704 0.42952 0.49068 0.0
H2406 H 0.91193 0.45093 0.73361 0.0
H2407 H 0.89419 0.44396 0.70719 0.0
H2408 H 0.89931 0.43252 0.74528 0.0
H2409 H 0.91985 0.4501 0.44486 0.0
H2410 H 0.90884 0.45646 0.47668 0.0
H2411 H 0.92699 0.46466 0.49856 0.0
H2412 H 0.89163 0.47783 0.57873 0.0
H2413 H 0.93437 0.49603 0.64269 0.0
H2414 H 0.88193 0.44182 0.60729 0.0
H2415 H 0.88636 0.4466 0.5279 0.0
H2416 H 0.87664 0.4532 0.56983 0.0
H2417 H 0.93384 0.46441 0.68001 0.0
H2418 H 0.94534 0.48268 0.66014 0.0
H2419 H 0.93993 0.4691 0.60216 0.0
C2420 C 0.52165 0.42272 0.59509 0.0
C2421 C 0.50953 0.42321 0.61182 0.0
C2422 C 0.53503 0.43493 0.59679 0.0
C2423 C 0.53621 0.44795 0.61424 0.0
C2424 C 0.52402 0.44842 0.63253 0.0
C2425 C 0.51085 0.436 0.63173 0.0
C2426 C 0.54782 0.43397 0.57838 0.0
C2427 C 0.52481 0.46213 0.65047 0.0
C2428 C 0.57113 0.47996 0.6592 0.0
C2429 C 0.57497 0.48772 0.60395 0.0
C2430 C 0.55882 0.46669 0.66262 0.0
C2431 C 0.55001 0.46126 0.60994 0.0
C2432 C 0.554 0.46896 0.55373 0.0
C2433 C 0.56652 0.48203 0.55125 0.0
C2434 C 0.55508 0.45864 0.72291 0.0
C2435 C 0.54476 0.46365 0.49684 0.0
H2436 H 0.52066 0.41282 0.57996 0.0
H2437 H 0.50149 0.43643 0.6444 0.0
H2438 H 0.55224 0.43981 0.53452 0.0
H2439 H 0.55617 0.43897 0.61418 0.0
H2440 H 0.5453 0.42289 0.57174 0.0
H2441 H 0.51442 0.46061 0.66533 0.0
H2442 H 0.53247 0.46725 0.68872 0.0
H2443 H 0.52862 0.4695 0.61053 0.0
H2444 H 0.57771 0.4843 0.69992 0.0
H2445 H 0.56943 0.48804 0.50854 0.0
H2446 H 0.55282 0.44768 0.71492 0.0
H2447 H 0.54538 0.45795 0.74238 0.0
H2448 H 0.56365 0.46371 0.75776 0.0
H2449 H 0.54275 0.45298 0.48434 0.0
H2450 H 0.54956 0.47074 0.45634 0.0
H2451 H 0.53439 0.46275 0.50666 0.0
C2452 C 0.57346 0.0916 0.64803 0.0
C2453 C 0.57574 0.08625 0.59301 0.0
C2454 C 0.56136 0.09284 0.65556 0.0
C2455 C 0.55123 0.08832 0.60741 0.0
C2456 C 0.55365 0.08316 0.55139 0.0
C2457 C 0.56594 0.08232 0.54469 0.0
C2458 C 0.55926 0.09868 0.71537 0.0
C2459 C 0.54303 0.07805 0.49922 0.0
C2460 C 0.51264 0.07527 0.64026 0.0
C2461 C 0.51097 0.08613 0.61489 0.0
C2462 C 0.52585 0.07611 0.64054 0.0
C2463 C 0.53772 0.08825 0.61603 0.0
C2464 C 0.53625 0.09963 0.59391 0.0
C2465 C 0.52283 0.09836 0.5929 0.0
C2466 C 0.52692 0.06366 0.66362 0.0
C2467 C 0.54871 0.11287 0.56879 0.0
H2468 H 0.58105 0.09471 0.68538 0.0
H2469 H 0.56763 0.07813 0.50212 0.0
H2470 H 0.5569 0.10724 0.70566 0.0
H2471 H 0.55009 0.09028 0.74071 0.0
H2472 H 0.56868 0.10288 0.74591 0.0
H2473 H 0.54662 0.07453 0.45834 0.0
H2474 H 0.53285 0.0691 0.51545 0.0
H2475 H 0.54098 0.08657 0.48443 0.0
H2476 H 0.50347 0.06579 0.6572 0.0
H2477 H 0.52159 0.10683 0.57375 0.0
H2478 H 0.53557 0.06713 0.69796 0.0
H2479 H 0.5295 0.0588 0.62436 0.0
H2480 H 0.51696 0.05546 0.68528 0.0
H2481 H 0.55781 0.11674 0.60093 0.0
H2482 H 0.54621 0.12142 0.56128 0.0
H2483 H 0.55204 0.11052 0.52395 0.0
C2484 C 0.75914 0.57454 0.0236 0.0
C2485 C 0.75644 0.57912 0.07987 0.0
C2486 C 0.77129 0.57339 0.016 0.0
C2487 C 0.78108 0.57729 0.0653 0.0
C2488 C 0.77827 0.58174 0.1224 0.0
C2489 C 0.76591 0.58243 0.12919 0.0
C2490 C 0.77377 0.56826 0.95502 0.0
C2491 C 0.78857 0.58626 0.17574 0.0
C2492 C 0.80952 0.56721 0.07716 0.0
C2493 C 0.82143 0.57963 0.05708 0.0
C2494 C 0.79609 0.56594 0.07643 0.0
C2495 C 0.79468 0.57751 0.05679 0.0
C2496 C 0.80663 0.58991 0.03464 0.0
C2497 C 0.81984 0.59074 0.03435 0.0
C2498 C 0.78354 0.55241 0.09882 0.0
C2499 C 0.80563 0.6026 0.01455 0.0
H2500 H 0.75179 0.57191 0.98551 0.0
H2501 H 0.7639 0.58605 0.17269 0.0
H2502 H 0.78311 0.57694 0.93167 0.0
H2503 H 0.77606 0.55959 0.9629 0.0
H2504 H 0.76456 0.56443 0.92346 0.0
H2505 H 0.78472 0.58931 0.21725 0.0
H2506 H 0.79053 0.57759 0.18877 0.0
H2507 H 0.79883 0.59538 0.16155 0.0
H2508 H 0.81072 0.55855 0.09426 0.0
H2509 H 0.82904 0.60038 0.01897 0.0
H2510 H 0.77462 0.54885 0.06583 0.0
H2511 H 0.77993 0.55426 0.14403 0.0
H2512 H 0.78606 0.54383 0.10467 0.0
H2513 H 0.79725 0.59954 0.97918 0.0
H2514 H 0.81573 0.61111 0.99517 0.0
H2515 H 0.8027 0.6069 0.05481 0.0
C2516 C 0.41323 0.18066 0.13069 0.0
C2517 C 0.41904 0.17627 0.08392 0.0
C2518 C 0.41408 0.19387 0.12772 0.0
C2519 C 0.42109 0.20297 0.07722 0.0
C2520 C 0.42745 0.19881 0.03109 0.0
C2521 C 0.42625 0.18544 0.03473 0.0
C2522 C 0.40704 0.19788 0.17753 0.0
C2523 C 0.43522 0.20832 0.97713 0.0
C2524 C 0.40949 0.22944 0.03799 0.0
C2525 C 0.41965 0.24153 0.06895 0.0
C2526 C 0.41003 0.2169 0.03913 0.0
C2527 C 0.42111 0.21652 0.0713 0.0
C2528 C 0.43174 0.22888 0.10038 0.0
C2529 C 0.43083 0.24123 0.09924 0.0
C2530 C 0.39843 0.20391 0.00797 0.0
C2531 C 0.44384 0.22895 0.13424 0.0
H2532 H 0.40761 0.17359 0.16869 0.0
H2533 H 0.43081 0.1821 0.99861 0.0
H2534 H 0.41476 0.20811 0.19866 0.0
H2535 H 0.39852 0.19924 0.15681 0.0
H2536 H 0.40241 0.18981 0.21472 0.0
H2537 H 0.44049 0.20398 0.94785 0.0
H2538 H 0.42771 0.20978 0.94785 0.0
H2539 H 0.44328 0.2189 0.99402 0.0
H2540 H 0.4008 0.22961 0.01467 0.0
H2541 H 0.43874 0.25058 0.12305 0.0
H2542 H 0.39251 0.19562 0.04315 0.0
H2543 H 0.40299 0.19956 0.97469 0.0
H2544 H 0.39087 0.20611 0.98284 0.0
H2545 H 0.43979 0.22197 0.17538 0.0
H2546 H 0.45186 0.23969 0.14985 0.0
H2547 H 0.44906 0.22473 0.10399 0.0
C2548 C 0.76023 0.18252 0.0021 0.0
C2549 C 0.75659 0.17596 0.06022 0.0
C2550 C 0.77255 0.19566 0.99438 0.0
C2551 C 0.78159 0.20213 0.04566 0.0
C2552 C 0.77784 0.19559 0.10457 0.0
C2553 C 0.76528 0.18267 0.11127 0.0
C2554 C 0.77602 0.2025 0.93127 0.0
C2555 C 0.78733 0.20199 0.16013 0.0
C2556 C 0.82066 0.22697 0.01961 0.0
C2557 C 0.82204 0.24002 0.03523 0.0
C2558 C 0.80748 0.21458 0.02135 0.0
C2559 C 0.79534 0.21534 0.03753 0.0
C2560 C 0.79658 0.22861 0.05023 0.0
C2561 C 0.80997 0.24079 0.04982 0.0
C2562 C 0.80666 0.20061 0.00884 0.0
C2563 C 0.78382 0.22987 0.06599 0.0
H2564 H 0.75345 0.17738 0.96266 0.0
H2565 H 0.76252 0.17757 0.15619 0.0
H2566 H 0.77824 0.21355 0.93465 0.0
H2567 H 0.78567 0.20288 0.91299 0.0
H2568 H 0.76731 0.19673 0.89757 0.0
H2569 H 0.7828 0.19563 0.20281 0.0
H2570 H 0.79772 0.20286 0.15108 0.0
H2571 H 0.78926 0.2128 0.16857 0.0
H2572 H 0.83 0.22634 0.00868 0.0
H2573 H 0.81102 0.25091 0.06152 0.0
H2574 H 0.79883 0.1948 0.97191 0.0
H2575 H 0.80304 0.19398 0.05118 0.0
H2576 H 0.81699 0.20189 0.99463 0.0
H2577 H 0.77534 0.22416 0.03135 0.0
H2578 H 0.78634 0.24104 0.06782 0.0
H2579 H 0.77959 0.22495 0.1117 0.0
C2580 C 0.59243 0.77111 0.96429 0.0
C2581 C 0.58111 0.75845 0.94229 0.0
C2582 C 0.59188 0.78363 0.96351 0.0
C2583 C 0.57957 0.7834 0.94168 0.0
C2584 C 0.56779 0.77047 0.92276 0.0
C2585 C 0.56878 0.75816 0.92242 0.0
C2586 C 0.60478 0.79724 0.98283 0.0
C2587 C 0.55435 0.76974 0.90084 0.0
C2588 C 0.57713 0.81616 0.9766 0.0
C2589 C 0.58155 0.82345 0.92028 0.0
C2590 C 0.57588 0.80281 0.98365 0.0
C2591 C 0.57953 0.79688 0.93374 0.0
C2592 C 0.58388 0.80417 0.87662 0.0
C2593 C 0.58465 0.81729 0.87036 0.0
C2594 C 0.57084 0.79517 0.04465 0.0
C2595 C 0.58817 0.79835 0.82269 0.0
H2596 H 0.60201 0.77137 0.97936 0.0
H2597 H 0.55998 0.74835 0.90576 0.0
H2598 H 0.60901 0.80443 0.94239 0.0
H2599 H 0.60196 0.80268 0.01859 0.0
H2600 H 0.61325 0.79551 0.00146 0.0
H2601 H 0.54563 0.75869 0.89504 0.0
H2602 H 0.55095 0.77519 0.93411 0.0
H2603 H 0.55621 0.77524 0.85572 0.0
H2604 H 0.57464 0.82089 0.01511 0.0
H2605 H 0.58815 0.82295 0.82687 0.0
H2606 H 0.57949 0.79429 0.0671 0.0
H2607 H 0.562 0.78428 0.0369 0.0
H2608 H 0.56728 0.80066 0.07694 0.0
H2609 H 0.59724 0.79706 0.8362 0.0
H2610 H 0.5912 0.80531 0.78133 0.0
H2611 H 0.57938 0.78778 0.80973 0.0
C2612 C 0.17719 0.77212 0.9319 0.0
C2613 C 0.17549 0.75856 0.93355 0.0
C2614 C 0.19065 0.78415 0.93277 0.0
C2615 C 0.20271 0.78258 0.93663 0.0
C2616 C 0.20105 0.76891 0.94025 0.0
C2617 C 0.18744 0.75703 0.93799 0.0
C2618 C 0.19197 0.79853 0.92781 0.0
C2619 C 0.21365 0.76684 0.94567 0.0
C2620 C 0.23644 0.81329 0.87346 0.0
C2621 C 0.24255 0.82122 0.92713 0.0
C2622 C 0.22367 0.80044 0.87617 0.0
C2623 C 0.21701 0.79529 0.93412 0.0
C2624 C 0.22352 0.80291 0.98884 0.0
C2625 C 0.23616 0.81587 0.98463 0.0
C2626 C 0.21698 0.79275 0.81666 0.0
C2627 C 0.21688 0.79761 0.05157 0.0
H2628 H 0.16797 0.77334 0.92821 0.0
H2629 H 0.18614 0.74654 0.93962 0.0
H2630 H 0.19791 0.80514 0.96802 0.0
H2631 H 0.198 0.80397 0.88552 0.0
H2632 H 0.18154 0.79793 0.9258 0.0
H2633 H 0.21052 0.75558 0.9523 0.0
H2634 H 0.22019 0.77078 0.90324 0.0
H2635 H 0.22037 0.77304 0.9852 0.0
H2636 H 0.24132 0.8174 0.82888 0.0
H2637 H 0.24092 0.82194 0.02627 0.0
H2638 H 0.20688 0.79261 0.80907 0.0
H2639 H 0.21448 0.78162 0.81965 0.0
H2640 H 0.22389 0.79774 0.77586 0.0
H2641 H 0.20701 0.79807 0.05503 0.0
H2642 H 0.224 0.80393 0.08994 0.0
H2643 H 0.21401 0.78642 0.05772 0.0
C2644 C 0.18276 0.42146 0.002 0.0
C2645 C 0.17606 0.41906 0.94438 0.0
C2646 C 0.19606 0.42253 0.00734 0.0
C2647 C 0.20254 0.42074 0.95407 0.0
C2648 C 0.19587 0.41851 0.89567 0.0
C2649 C 0.1828 0.4179 0.89145 0.0
C2650 C 0.20303 0.4253 0.07007 0.0
C2651 C 0.20227 0.41622 0.83799 0.0
C2652 C 0.24133 0.43149 0.94675 0.0
C2653 C 0.24071 0.41859 0.95809 0.0
C2654 C 0.22904 0.43253 0.9483 0.0
C2655 C 0.21584 0.42028 0.95954 0.0
C2656 C 0.21524 0.40728 0.97206 0.0
C2657 C 0.22772 0.40665 0.97203 0.0
C2658 C 0.23014 0.44664 0.9365 0.0
C2659 C 0.20135 0.3939 0.98277 0.0
H2660 H 0.17759 0.42246 0.04292 0.0
H2661 H 0.17759 0.41596 0.84688 0.0
H2662 H 0.20351 0.41588 0.08554 0.0
H2663 H 0.21404 0.4342 0.06725 0.0
H2664 H 0.19727 0.4278 0.10561 0.0
H2665 H 0.19586 0.41489 0.79598 0.0
H2666 H 0.21305 0.42527 0.83053 0.0
H2667 H 0.20325 0.40667 0.84366 0.0
H2668 H 0.2514 0.44075 0.93636 0.0
H2669 H 0.22721 0.39664 0.98042 0.0
H2670 H 0.22447 0.44895 0.9731 0.0
H2671 H 0.22506 0.44637 0.8917 0.0
H2672 H 0.24128 0.45537 0.93501 0.0
H2673 H 0.19557 0.39536 0.02159 0.0
H2674 H 0.20274 0.38474 0.99343 0.0
H2675 H 0.19463 0.39139 0.9409 0.0
C2676 C 0.43064 0.91079 0.44029 0.0
C2677 C 0.4243 0.91213 0.38631 0.0
C2678 C 0.4431 0.91015 0.43749 0.0
C2679 C 0.44921 0.91059 0.37919 0.0
C2680 C 0.44246 0.91122 0.32432 0.0
C2681 C 0.43014 0.91213 0.32856 0.0
C2682 C 0.45009 0.90971 0.49712 0.0
C2683 C 0.44851 0.91139 0.26131 0.0
C2684 C 0.48885 0.92596 0.37915 0.0
C2685 C 0.49003 0.9138 0.382 0.0
C2686 C 0.47562 0.92503 0.37689 0.0
C2687 C 0.46326 0.91159 0.37629 0.0
C2688 C 0.46438 0.89925 0.37669 0.0
C2689 C 0.47778 0.9005 0.38021 0.0
C2690 C 0.47488 0.93845 0.37749 0.0
C2691 C 0.45143 0.88475 0.3748 0.0
H2692 H 0.42617 0.91081 0.48505 0.0
H2693 H 0.4252 0.91307 0.28671 0.0
H2694 H 0.45208 0.90072 0.49665 0.0
H2695 H 0.46047 0.91951 0.50171 0.0
H2696 H 0.44361 0.90871 0.53845 0.0
H2697 H 0.44119 0.9103 0.2233 0.0
H2698 H 0.45855 0.92147 0.25485 0.0
H2699 H 0.45095 0.90273 0.25751 0.0
H2700 H 0.4983 0.93627 0.38069 0.0
H2701 H 0.47867 0.89107 0.38203 0.0
H2702 H 0.46932 0.93879 0.41985 0.0
H2703 H 0.46874 0.9387 0.33715 0.0
H2704 H 0.48549 0.94806 0.37634 0.0
H2705 H 0.44528 0.88285 0.41805 0.0
H2706 H 0.45414 0.87628 0.3697 0.0
H2707 H 0.4445 0.88401 0.33578 0.0
C2708 C 0.07482 0.56406 0.37375 0.0
C2709 C 0.08629 0.57705 0.39165 0.0
C2710 C 0.07584 0.55179 0.37313 0.0
C2711 C 0.08878 0.55262 0.38925 0.0
C2712 C 0.10063 0.56586 0.40416 0.0
C2713 C 0.09919 0.57791 0.40606 0.0
C2714 C 0.06287 0.53784 0.35824 0.0
C2715 C 0.1147 0.56722 0.41991 0.0
C2716 C 0.08608 0.51944 0.45755 0.0
C2717 C 0.08817 0.51313 0.40531 0.0
C2718 C 0.08651 0.53243 0.45309 0.0
C2719 C 0.08949 0.53945 0.39528 0.0
C2720 C 0.09228 0.53343 0.34294 0.0
C2721 C 0.09137 0.52021 0.34837 0.0
C2722 C 0.08317 0.53833 0.50971 0.0
C2723 C 0.0959 0.54081 0.281 0.0
H2724 H 0.06481 0.56335 0.36289 0.0
H2725 H 0.10811 0.58797 0.41951 0.0
H2726 H 0.06515 0.53245 0.32027 0.0
H2727 H 0.05978 0.53083 0.39939 0.0
H2728 H 0.05378 0.53908 0.34438 0.0
H2729 H 0.12323 0.57842 0.42323 0.0
H2730 H 0.11394 0.562 0.46492 0.0
H2731 H 0.11767 0.56184 0.38445 0.0
H2732 H 0.08352 0.51394 0.50156 0.0
H2733 H 0.09308 0.51537 0.308 0.0
H2734 H 0.07359 0.53911 0.50107 0.0
H2735 H 0.09194 0.54913 0.51958 0.0
H2736 H 0.08133 0.53169 0.55144 0.0
H2737 H 0.0866 0.5411 0.26236 0.0
H2738 H 0.0992 0.53546 0.24669 0.0
H2739 H 0.10453 0.5519 0.2863 0.0
C2740 C 0.47908 0.57582 0.40749 0.0
C2741 C 0.49103 0.57483 0.39287 0.0
C2742 C 0.46557 0.56379 0.40718 0.0
C2743 C 0.46408 0.55045 0.39354 0.0
C2744 C 0.47611 0.54946 0.37773 0.0
C2745 C 0.48942 0.5617 0.37686 0.0
C2746 C 0.45294 0.5653 0.42274 0.0
C2747 C 0.475 0.5354 0.36415 0.0
C2748 C 0.4333 0.51763 0.4626 0.0
C2749 C 0.42482 0.51134 0.41049 0.0
C2750 C 0.44599 0.53048 0.45783 0.0
C2751 C 0.45012 0.53738 0.3998 0.0
C2752 C 0.4413 0.53138 0.3475 0.0
C2753 C 0.42881 0.5183 0.3533 0.0
C2754 C 0.45524 0.53639 0.51443 0.0
C2755 C 0.44519 0.53861 0.28525 0.0
H2756 H 0.48031 0.58599 0.41944 0.0
H2757 H 0.49866 0.5609 0.36579 0.0
H2758 H 0.44464 0.56005 0.38695 0.0
H2759 H 0.44836 0.56002 0.46749 0.0
H2760 H 0.45572 0.57653 0.42634 0.0
H2761 H 0.48531 0.5365 0.35095 0.0
H2762 H 0.47097 0.52852 0.40564 0.0
H2763 H 0.46737 0.52997 0.3261 0.0
H2764 H 0.43028 0.51223 0.50683 0.0
H2765 H 0.42221 0.51349 0.31303 0.0
H2766 H 0.45745 0.54727 0.52373 0.0
H2767 H 0.46553 0.53698 0.50611 0.0
H2768 H 0.45036 0.52986 0.55637 0.0
H2769 H 0.44769 0.54973 0.28987 0.0
H2770 H 0.43659 0.53322 0.25071 0.0
H2771 H 0.45478 0.53882 0.26731 0.0
loop_
_geom_bond_atom_site_label_1
_geom_bond_atom_site_label_2
_geom_bond_distance
_geom_bond_site_symmetry_2
_ccdc_geom_bond_type
In0 O1 2.294 . S
In0 O2 2.326 . S
In0 O6 2.266 . S
In0 O7 2.326 . S
In0 O8 2.266 . S
In0 O9 2.326 . S
In0 O11 2.294 . S
In0 O12 2.326 . S
O1 In0 2.294 . S
O1 C10 1.240 . S
O2 In0 2.326 . S
O2 C10 1.252 . S
C3 O6 1.252 . S
C3 O7 1.260 . S
C4 O11 1.240 . S
C4 O12 1.252 . S
C5 O8 1.252 . S
C5 O9 1.260 . S
O6 In0 2.266 . S
O6 C3 1.252 . S
O7 In0 2.326 . S
O7 C3 1.260 . S
O8 In0 2.266 . S
O8 C5 1.252 . S
O9 In0 2.326 . S
O9 C5 1.260 . S
C10 O1 1.240 . S
C10 O2 1.252 . S
O11 In0 2.294 . S
O11 C4 1.240 . S
O12 In0 2.326 . S
O12 C4 1.252 . S
In13 O14 2.294 . S
In13 O15 2.326 . S
In13 O19 2.266 . S
In13 O20 2.326 . S
In13 O21 2.266 . S
In13 O22 2.326 . S
In13 O24 2.294 . S
In13 O25 2.326 . S
O14 In13 2.294 . S
O14 C23 1.240 . S
O15 In13 2.326 . S
O15 C23 1.252 . S
C16 O19 1.252 . S
C16 O20 1.260 . S
C17 O24 1.240 . S
C17 O25 1.252 . S
C18 O21 1.252 . S
C18 O22 1.260 . S
O19 In13 2.266 . S
O19 C16 1.252 . S
O20 In13 2.326 . S
O20 C16 1.260 . S
O21 In13 2.266 . S
O21 C18 1.252 . S
O22 In13 2.326 . S
O22 C18 1.260 . S
C23 O14 1.240 . S
C23 O15 1.252 . S
O24 In13 2.294 . S
O24 C17 1.240 . S
O25 In13 2.326 . S
O25 C17 1.252 . S
In26 O27 2.294 . S
In26 O28 2.326 . S
In26 O32 2.266 . S
In26 O33 2.326 . S
In26 O34 2.266 . S
In26 O35 2.326 . S
In26 O37 2.294 . S
In26 O38 2.326 . S
O27 In26 2.294 . S
O27 C36 1.240 . S
O28 In26 2.326 . S
O28 C36 1.252 . S
C29 O32 1.252 . S
C29 O33 1.260 . S
C30 O37 1.240 . S
C30 O38 1.252 . S
C31 O34 1.252 . S
C31 O35 1.260 . S
O32 In26 2.266 . S
O32 C29 1.252 . S
O33 In26 2.326 . S
O33 C29 1.260 . S
O34 In26 2.266 . S
O34 C31 1.252 . S
O35 In26 2.326 . S
O35 C31 1.260 . S
C36 O27 1.240 . S
C36 O28 1.252 . S
O37 In26 2.294 . S
O37 C30 1.240 . S
O38 In26 2.326 . S
O38 C30 1.252 . S
In39 O40 2.294 . S
In39 O41 2.326 . S
In39 O45 2.266 . S
In39 O46 2.326 . S
In39 O47 2.266 . S
In39 O48 2.326 . S
In39 O50 2.294 . S
In39 O51 2.326 . S
O40 In39 2.294 . S
O40 C49 1.240 . S
O41 In39 2.326 . S
O41 C49 1.252 . S
C42 O45 1.252 . S
C42 O46 1.260 . S
C43 O50 1.240 . S
C43 O51 1.252 . S
C44 O47 1.252 . S
C44 O48 1.260 . S
O45 In39 2.266 . S
O45 C42 1.252 . S
O46 In39 2.326 . S
O46 C42 1.260 . S
O47 In39 2.266 . S
O47 C44 1.252 . S
O48 In39 2.326 . S
O48 C44 1.260 . S
C49 O40 1.240 . S
C49 O41 1.252 . S
O50 In39 2.294 . S
O50 C43 1.240 . S
O51 In39 2.326 . S
O51 C43 1.252 . S
In52 O53 2.294 . S
In52 O54 2.326 . S
In52 O58 2.266 . S
In52 O59 2.326 . S
In52 O60 2.266 . S
In52 O61 2.326 . S
In52 O63 2.294 . S
In52 O64 2.326 . S
O53 In52 2.294 . S
O53 C62 1.240 . S
O54 In52 2.326 . S
O54 C62 1.252 . S
C55 O58 1.252 . S
C55 O59 1.260 . S
C56 O63 1.240 . S
C56 O64 1.252 . S
C57 O60 1.252 . S
C57 O61 1.260 . S
O58 In52 2.266 . S
O58 C55 1.252 . S
O59 In52 2.326 . S
O59 C55 1.260 . S
O60 In52 2.266 . S
O60 C57 1.252 . S
O61 In52 2.326 . S
O61 C57 1.260 . S
C62 O53 1.240 . S
C62 O54 1.252 . S
O63 In52 2.294 . S
O63 C56 1.240 . S
O64 In52 2.326 . S
O64 C56 1.252 . S
In65 O66 2.294 . S
In65 O67 2.326 . S
In65 O71 2.266 . S
In65 O72 2.326 . S
In65 O73 2.266 . S
In65 O74 2.326 . S
In65 O76 2.294 . S
In65 O77 2.326 . S
O66 In65 2.294 . S
O66 C75 1.240 . S
O67 In65 2.326 . S
O67 C75 1.252 . S
C68 O71 1.252 . S
C68 O72 1.260 . S
C69 O76 1.240 . S
C69 O77 1.252 . S
C70 O73 1.252 . S
C70 O74 1.260 . S
O71 In65 2.266 . S
O71 C68 1.252 . S
O72 In65 2.326 . S
O72 C68 1.260 . S
O73 In65 2.266 . S
O73 C70 1.252 . S
O74 In65 2.326 . S
O74 C70 1.260 . S
C75 O66 1.240 . S
C75 O67 1.252 . S
O76 In65 2.294 . S
O76 C69 1.240 . S
O77 In65 2.326 . S
O77 C69 1.252 . S
In78 O79 2.294 . S
In78 O80 2.326 . S
In78 O84 2.266 . S
In78 O85 2.326 . S
In78 O86 2.266 . S
In78 O87 2.326 . S
In78 O89 2.294 . S
In78 O90 2.326 . S
O79 In78 2.294 . S
O79 C88 1.240 . S
O80 In78 2.326 . S
O80 C88 1.252 . S
C81 O84 1.252 . S
C81 O85 1.260 . S
C82 O89 1.240 . S
C82 O90 1.252 . S
C83 O86 1.252 . S
C83 O87 1.260 . S
O84 In78 2.266 . S
O84 C81 1.252 . S
O85 In78 2.326 . S
O85 C81 1.260 . S
O86 In78 2.266 . S
O86 C83 1.252 . S
O87 In78 2.326 . S
O87 C83 1.260 . S
C88 O79 1.240 . S
C88 O80 1.252 . S
O89 In78 2.294 . S
O89 C82 1.240 . S
O90 In78 2.326 . S
O90 C82 1.252 . S
In91 O92 2.294 . S
In91 O93 2.326 . S
In91 O97 2.266 . S
In91 O98 2.326 . S
In91 O99 2.266 . S
In91 O100 2.326 . S
In91 O102 2.294 . S
In91 O103 2.326 . S
O92 In91 2.294 . S
O92 C101 1.240 . S
O93 In91 2.326 . S
O93 C101 1.252 . S
C94 O97 1.252 . S
C94 O98 1.260 . S
C95 O102 1.240 . S
C95 O103 1.252 . S
C96 O99 1.252 . S
C96 O100 1.260 . S
O97 In91 2.266 . S
O97 C94 1.252 . S
O98 In91 2.326 . S
O98 C94 1.260 . S
O99 In91 2.266 . S
O99 C96 1.252 . S
O100 In91 2.326 . S
O100 C96 1.260 . S
C101 O92 1.240 . S
C101 O93 1.252 . S
O102 In91 2.294 . S
O102 C95 1.240 . S
O103 In91 2.326 . S
O103 C95 1.252 . S
In104 O105 2.294 . S
In104 O106 2.326 . S
In104 O110 2.266 . S
In104 O111 2.326 . S
In104 O112 2.266 . S
In104 O113 2.326 . S
In104 O115 2.294 . S
In104 O116 2.326 . S
O105 In104 2.294 . S
O105 C114 1.240 . S
O106 In104 2.326 . S
O106 C114 1.252 . S
C107 O110 1.252 . S
C107 O111 1.260 . S
C108 O115 1.240 . S
C108 O116 1.252 . S
C109 O112 1.252 . S
C109 O113 1.260 . S
O110 In104 2.266 . S
O110 C107 1.252 . S
O111 In104 2.326 . S
O111 C107 1.260 . S
O112 In104 2.266 . S
O112 C109 1.252 . S
O113 In104 2.326 . S
O113 C109 1.260 . S
C114 O105 1.240 . S
C114 O106 1.252 . S
O115 In104 2.294 . S
O115 C108 1.240 . S
O116 In104 2.326 . S
O116 C108 1.252 . S
In117 O118 2.294 . S
In117 O119 2.326 . S
In117 O123 2.266 . S
In117 O124 2.326 . S
In117 O125 2.266 . S
In117 O126 2.326 . S
In117 O128 2.294 . S
In117 O129 2.326 . S
O118 In117 2.294 . S
O118 C127 1.240 . S
O119 In117 2.326 . S
O119 C127 1.252 . S
C120 O123 1.252 . S
C120 O124 1.260 . S
C121 O128 1.240 . S
C121 O129 1.252 . S
C122 O125 1.252 . S
C122 O126 1.260 . S
O123 In117 2.266 . S
O123 C120 1.252 . S
O124 In117 2.326 . S
O124 C120 1.260 . S
O125 In117 2.266 . S
O125 C122 1.252 . S
O126 In117 2.326 . S
O126 C122 1.260 . S
C127 O118 1.240 . S
C127 O119 1.252 . S
O128 In117 2.294 . S
O128 C121 1.240 . S
O129 In117 2.326 . S
O129 C121 1.252 . S
In130 O131 2.294 . S
In130 O132 2.326 . S
In130 O136 2.266 . S
In130 O137 2.326 . S
In130 O138 2.266 . S
In130 O139 2.326 . S
In130 O141 2.294 . S
In130 O142 2.326 . S
O131 In130 2.294 . S
O131 C140 1.240 . S
O132 In130 2.326 . S
O132 C140 1.252 . S
C133 O136 1.252 . S
C133 O137 1.260 . S
C134 O141 1.240 . S
C134 O142 1.252 . S
C135 O138 1.252 . S
C135 O139 1.260 . S
O136 In130 2.266 . S
O136 C133 1.252 . S
O137 In130 2.326 . S
O137 C133 1.260 . S
O138 In130 2.266 . S
O138 C135 1.252 . S
O139 In130 2.326 . S
O139 C135 1.260 . S
C140 O131 1.240 . S
C140 O132 1.252 . S
O141 In130 2.294 . S
O141 C134 1.240 . S
O142 In130 2.326 . S
O142 C134 1.252 . S
In143 O144 2.294 . S
In143 O145 2.326 . S
In143 O149 2.266 . S
In143 O150 2.326 . S
In143 O151 2.266 . S
In143 O152 2.326 . S
In143 O154 2.294 . S
In143 O155 2.326 . S
O144 In143 2.294 . S
O144 C153 1.240 . S
O145 In143 2.326 . S
O145 C153 1.252 . S
C146 O149 1.252 . S
C146 O150 1.260 . S
C147 O154 1.240 . S
C147 O155 1.252 . S
C148 O151 1.252 . S
C148 O152 1.260 . S
O149 In143 2.266 . S
O149 C146 1.252 . S
O150 In143 2.326 . S
O150 C146 1.260 . S
O151 In143 2.266 . S
O151 C148 1.252 . S
O152 In143 2.326 . S
O152 C148 1.260 . S
C153 O144 1.240 . S
C153 O145 1.252 . S
O154 In143 2.294 . S
O154 C147 1.240 . S
O155 In143 2.326 . S
O155 C147 1.252 . S
In156 O157 2.294 . S
In156 O158 2.326 . S
In156 O162 2.266 . S
In156 O163 2.326 . S
In156 O164 2.266 . S
In156 O165 2.326 . S
In156 O167 2.294 . S
In156 O168 2.326 . S
O157 In156 2.294 . S
O157 C166 1.240 . S
O158 In156 2.326 . S
O158 C166 1.252 . S
C159 O162 1.252 . S
C159 O163 1.260 . S
C160 O167 1.240 . S
C160 O168 1.252 . S
C161 O164 1.252 . S
C161 O165 1.260 . S
O162 In156 2.266 . S
O162 C159 1.252 . S
O163 In156 2.326 . S
O163 C159 1.260 . S
O164 In156 2.266 . S
O164 C161 1.252 . S
O165 In156 2.326 . S
O165 C161 1.260 . S
C166 O157 1.240 . S
C166 O158 1.252 . S
O167 In156 2.294 . S
O167 C160 1.240 . S
O168 In156 2.326 . S
O168 C160 1.252 . S
In169 O170 2.294 . S
In169 O171 2.326 . S
In169 O175 2.266 . S
In169 O176 2.326 . S
In169 O177 2.266 . S
In169 O178 2.326 . S
In169 O180 2.294 . S
In169 O181 2.326 . S
O170 In169 2.294 . S
O170 C179 1.240 . S
O171 In169 2.326 . S
O171 C179 1.252 . S
C172 O175 1.252 . S
C172 O176 1.260 . S
C173 O180 1.240 . S
C173 O181 1.252 . S
C174 O177 1.252 . S
C174 O178 1.260 . S
O175 In169 2.266 . S
O175 C172 1.252 . S
O176 In169 2.326 . S
O176 C172 1.260 . S
O177 In169 2.266 . S
O177 C174 1.252 . S
O178 In169 2.326 . S
O178 C174 1.260 . S
C179 O170 1.240 . S
C179 O171 1.252 . S
O180 In169 2.294 . S
O180 C173 1.240 . S
O181 In169 2.326 . S
O181 C173 1.252 . S
In182 O183 2.294 . S
In182 O184 2.326 . S
In182 O188 2.266 . S
In182 O189 2.326 . S
In182 O190 2.266 . S
In182 O191 2.326 . S
In182 O193 2.294 . S
In182 O194 2.326 . S
O183 In182 2.294 . S
O183 C192 1.240 . S
O184 In182 2.326 . S
O184 C192 1.252 . S
C185 O188 1.252 . S
C185 O189 1.260 . S
C186 O193 1.240 . S
C186 O194 1.252 . S
C187 O190 1.252 . S
C187 O191 1.260 . S
O188 In182 2.266 . S
O188 C185 1.252 . S
O189 In182 2.326 . S
O189 C185 1.260 . S
O190 In182 2.266 . S
O190 C187 1.252 . S
O191 In182 2.326 . S
O191 C187 1.260 . S
C192 O183 1.240 . S
C192 O184 1.252 . S
O193 In182 2.294 . S
O193 C186 1.240 . S
O194 In182 2.326 . S
O194 C186 1.252 . S
In195 O196 2.294 . S
In195 O197 2.326 . S
In195 O201 2.266 . S
In195 O202 2.326 . S
In195 O203 2.266 . S
In195 O204 2.326 . S
In195 O206 2.305 . S
In195 O207 2.326 . S
O196 In195 2.294 . S
O196 C205 1.240 . S
O197 In195 2.326 . S
O197 C205 1.252 . S
C198 O201 1.252 . S
C198 O202 1.260 . S
C199 O206 1.239 1_556 S
C199 O207 1.252 1_556 S
C200 O203 1.252 . S
C200 O204 1.260 . S
O201 In195 2.266 . S
O201 C198 1.252 . S
O202 In195 2.326 . S
O202 C198 1.260 . S
O203 In195 2.266 . S
O203 C200 1.252 . S
O204 In195 2.326 . S
O204 C200 1.260 . S
C205 O196 1.240 . S
C205 O197 1.252 . S
O206 In195 2.305 . S
O206 C199 1.239 1_554 S
O207 In195 2.326 . S
O207 C199 1.252 1_554 S
In208 O209 2.305 . S
In208 O210 2.326 . S
In208 O214 2.266 . S
In208 O215 2.326 . S
In208 O216 2.266 . S
In208 O217 2.326 . S
In208 O219 2.294 . S
In208 O220 2.326 . S
O209 In208 2.305 . S
O209 C218 1.239 1_554 S
O210 In208 2.326 . S
O210 C218 1.252 1_554 S
C211 O214 1.252 . S
C211 O215 1.260 . S
C212 O219 1.240 . S
C212 O220 1.252 . S
C213 O216 1.252 . S
C213 O217 1.260 . S
O214 In208 2.266 . S
O214 C211 1.252 . S
O215 In208 2.326 . S
O215 C211 1.260 . S
O216 In208 2.266 . S
O216 C213 1.252 . S
O217 In208 2.326 . S
O217 C213 1.260 . S
C218 O209 1.239 1_556 S
C218 O210 1.252 1_556 S
O219 In208 2.294 . S
O219 C212 1.240 . S
O220 In208 2.326 . S
O220 C212 1.252 . S
In221 O222 2.294 . S
In221 O223 2.326 . S
In221 O227 2.266 . S
In221 O228 2.326 . S
In221 O229 2.266 . S
In221 O230 2.326 . S
In221 O232 2.306 . S
In221 O233 2.326 . S
O222 In221 2.294 . S
O222 C231 1.240 . S
O223 In221 2.326 . S
O223 C231 1.252 . S
C224 O227 1.252 . S
C224 O228 1.260 . S
C225 O232 1.239 1_556 S
C225 O233 1.252 1_556 S
C226 O229 1.252 . S
C226 O230 1.260 . S
O227 In221 2.266 . S
O227 C224 1.252 . S
O228 In221 2.326 . S
O228 C224 1.260 . S
O229 In221 2.266 . S
O229 C226 1.252 . S
O230 In221 2.326 . S
O230 C226 1.260 . S
C231 O222 1.240 . S
C231 O223 1.252 . S
O232 In221 2.306 . S
O232 C225 1.239 1_554 S
O233 In221 2.326 . S
O233 C225 1.252 1_554 S
In234 O235 2.305 . S
In234 O236 2.326 . S
In234 O240 2.266 . S
In234 O241 2.326 . S
In234 O242 2.266 . S
In234 O243 2.326 . S
In234 O245 2.294 . S
In234 O246 2.326 . S
O235 In234 2.305 . S
O235 C244 1.239 1_554 S
O236 In234 2.326 . S
O236 C244 1.252 1_554 S
C237 O240 1.252 . S
C237 O241 1.260 . S
C238 O245 1.240 . S
C238 O246 1.252 . S
C239 O242 1.252 . S
C239 O243 1.260 . S
O240 In234 2.266 . S
O240 C237 1.252 . S
O241 In234 2.326 . S
O241 C237 1.260 . S
O242 In234 2.266 . S
O242 C239 1.252 . S
O243 In234 2.326 . S
O243 C239 1.260 . S
C244 O235 1.239 1_556 S
C244 O236 1.252 1_556 S
O245 In234 2.294 . S
O245 C238 1.240 . S
O246 In234 2.326 . S
O246 C238 1.252 . S
In247 O248 2.306 . S
In247 O249 2.326 . S
In247 O253 2.266 . S
In247 O254 2.326 . S
In247 O255 2.266 . S
In247 O256 2.326 . S
In247 O258 2.294 . S
In247 O259 2.326 . S
O248 In247 2.306 . S
O248 C257 1.239 1_554 S
O249 In247 2.326 . S
O249 C257 1.252 1_554 S
C250 O253 1.252 . S
C250 O254 1.260 . S
C251 O258 1.240 . S
C251 O259 1.252 . S
C252 O255 1.252 . S
C252 O256 1.260 . S
O253 In247 2.266 . S
O253 C250 1.252 . S
O254 In247 2.326 . S
O254 C250 1.260 . S
O255 In247 2.266 . S
O255 C252 1.252 . S
O256 In247 2.326 . S
O256 C252 1.260 . S
C257 O248 1.239 1_556 S
C257 O249 1.252 1_556 S
O258 In247 2.294 . S
O258 C251 1.240 . S
O259 In247 2.326 . S
O259 C251 1.252 . S
In260 O261 2.294 . S
In260 O262 2.326 . S
In260 O266 2.266 . S
In260 O267 2.326 . S
In260 O268 2.266 . S
In260 O269 2.326 . S
In260 O271 2.305 . S
In260 O272 2.326 . S
O261 In260 2.294 . S
O261 C270 1.240 . S
O262 In260 2.326 . S
O262 C270 1.252 . S
C263 O266 1.252 . S
C263 O267 1.260 . S
C264 O271 1.239 1_556 S
C264 O272 1.252 1_556 S
C265 O268 1.252 . S
C265 O269 1.260 . S
O266 In260 2.266 . S
O266 C263 1.252 . S
O267 In260 2.326 . S
O267 C263 1.260 . S
O268 In260 2.266 . S
O268 C265 1.252 . S
O269 In260 2.326 . S
O269 C265 1.260 . S
C270 O261 1.240 . S
C270 O262 1.252 . S
O271 In260 2.305 . S
O271 C264 1.239 1_554 S
O272 In260 2.326 . S
O272 C264 1.252 1_554 S
In273 O274 2.294 . S
In273 O275 2.326 . S
In273 O279 2.266 . S
In273 O280 2.326 . S
In273 O281 2.266 . S
In273 O282 2.326 . S
In273 O284 2.294 . S
In273 O285 2.326 . S
O274 In273 2.294 . S
O274 C283 1.240 . S
O275 In273 2.326 . S
O275 C283 1.252 . S
C276 O279 1.252 . S
C276 O280 1.260 . S
C277 O284 1.240 . S
C277 O285 1.252 . S
C278 O281 1.252 . S
C278 O282 1.260 . S
O279 In273 2.266 . S
O279 C276 1.252 . S
O280 In273 2.326 . S
O280 C276 1.260 . S
O281 In273 2.266 . S
O281 C278 1.252 . S
O282 In273 2.326 . S
O282 C278 1.260 . S
C283 O274 1.240 . S
C283 O275 1.252 . S
O284 In273 2.294 . S
O284 C277 1.240 . S
O285 In273 2.326 . S
O285 C277 1.252 . S
In286 O287 2.294 . S
In286 O288 2.326 . S
In286 O292 2.266 . S
In286 O293 2.326 . S
In286 O294 2.266 . S
In286 O295 2.326 . S
In286 O297 2.294 . S
In286 O298 2.326 . S
O287 In286 2.294 . S
O287 C296 1.240 . S
O288 In286 2.326 . S
O288 C296 1.252 . S
C289 O292 1.252 . S
C289 O293 1.260 . S
C290 O297 1.240 . S
C290 O298 1.252 . S
C291 O294 1.252 . S
C291 O295 1.260 . S
O292 In286 2.266 . S
O292 C289 1.252 . S
O293 In286 2.326 . S
O293 C289 1.260 . S
O294 In286 2.266 . S
O294 C291 1.252 . S
O295 In286 2.326 . S
O295 C291 1.260 . S
C296 O287 1.240 . S
C296 O288 1.252 . S
O297 In286 2.294 . S
O297 C290 1.240 . S
O298 In286 2.326 . S
O298 C290 1.252 . S
In299 O300 2.294 . S
In299 O301 2.326 . S
In299 O305 2.266 . S
In299 O306 2.326 . S
In299 O307 2.266 . S
In299 O308 2.326 . S
In299 O310 2.294 . S
In299 O311 2.326 . S
O300 In299 2.294 . S
O300 C309 1.240 . S
O301 In299 2.326 . S
O301 C309 1.252 . S
C302 O305 1.252 . S
C302 O306 1.260 . S
C303 O310 1.240 . S
C303 O311 1.252 . S
C304 O307 1.252 . S
C304 O308 1.260 . S
O305 In299 2.266 . S
O305 C302 1.252 . S
O306 In299 2.326 . S
O306 C302 1.260 . S
O307 In299 2.266 . S
O307 C304 1.252 . S
O308 In299 2.326 . S
O308 C304 1.260 . S
C309 O300 1.240 . S
C309 O301 1.252 . S
O310 In299 2.294 . S
O310 C303 1.240 . S
O311 In299 2.326 . S
O311 C303 1.252 . S
In312 O313 2.294 . S
In312 O314 2.326 . S
In312 O318 2.266 . S
In312 O319 2.326 . S
In312 O320 2.266 . S
In312 O321 2.326 . S
In312 O323 2.305 . S
In312 O324 2.326 . S
O313 In312 2.294 . S
O313 C322 1.240 . S
O314 In312 2.326 . S
O314 C322 1.252 . S
C315 O318 1.252 . S
C315 O319 1.260 . S
C316 O323 1.239 1_554 S
C316 O324 1.252 1_554 S
C317 O320 1.252 . S
C317 O321 1.260 . S
O318 In312 2.266 . S
O318 C315 1.252 . S
O319 In312 2.326 . S
O319 C315 1.260 . S
O320 In312 2.266 . S
O320 C317 1.252 . S
O321 In312 2.326 . S
O321 C317 1.260 . S
C322 O313 1.240 . S
C322 O314 1.252 . S
O323 In312 2.305 . S
O323 C316 1.239 1_556 S
O324 In312 2.326 . S
O324 C316 1.252 1_556 S
In325 O326 2.306 . S
In325 O327 2.326 . S
In325 O331 2.266 . S
In325 O332 2.326 . S
In325 O333 2.266 . S
In325 O334 2.326 . S
In325 O336 2.294 . S
In325 O337 2.326 . S
O326 In325 2.306 . S
O326 C335 1.239 1_556 S
O327 In325 2.326 . S
O327 C335 1.252 1_556 S
C328 O331 1.252 . S
C328 O332 1.260 . S
C329 O336 1.240 . S
C329 O337 1.252 . S
C330 O333 1.252 . S
C330 O334 1.260 . S
O331 In325 2.266 . S
O331 C328 1.252 . S
O332 In325 2.326 . S
O332 C328 1.260 . S
O333 In325 2.266 . S
O333 C330 1.252 . S
O334 In325 2.326 . S
O334 C330 1.260 . S
C335 O326 1.239 1_554 S
C335 O327 1.252 1_554 S
O336 In325 2.294 . S
O336 C329 1.240 . S
O337 In325 2.326 . S
O337 C329 1.252 . S
In338 O339 2.305 . S
In338 O340 2.326 . S
In338 O344 2.266 . S
In338 O345 2.326 . S
In338 O346 2.266 . S
In338 O347 2.326 . S
In338 O349 2.294 . S
In338 O350 2.326 . S
O339 In338 2.305 . S
O339 C348 1.239 1_556 S
O340 In338 2.326 . S
O340 C348 1.252 1_556 S
C341 O344 1.252 . S
C341 O345 1.260 . S
C342 O349 1.240 . S
C342 O350 1.252 . S
C343 O346 1.252 . S
C343 O347 1.260 . S
O344 In338 2.266 . S
O344 C341 1.252 . S
O345 In338 2.326 . S
O345 C341 1.260 . S
O346 In338 2.266 . S
O346 C343 1.252 . S
O347 In338 2.326 . S
O347 C343 1.260 . S
C348 O339 1.239 1_554 S
C348 O340 1.252 1_554 S
O349 In338 2.294 . S
O349 C342 1.240 . S
O350 In338 2.326 . S
O350 C342 1.252 . S
In351 O352 2.294 . S
In351 O353 2.326 . S
In351 O357 2.266 . S
In351 O358 2.326 . S
In351 O359 2.266 . S
In351 O360 2.326 . S
In351 O362 2.294 . S
In351 O363 2.326 . S
O352 In351 2.294 . S
O352 C361 1.240 . S
O353 In351 2.326 . S
O353 C361 1.252 . S
C354 O357 1.252 . S
C354 O358 1.260 . S
C355 O362 1.240 . S
C355 O363 1.252 . S
C356 O359 1.252 . S
C356 O360 1.260 . S
O357 In351 2.266 . S
O357 C354 1.252 . S
O358 In351 2.326 . S
O358 C354 1.260 . S
O359 In351 2.266 . S
O359 C356 1.252 . S
O360 In351 2.326 . S
O360 C356 1.260 . S
C361 O352 1.240 . S
C361 O353 1.252 . S
O362 In351 2.294 . S
O362 C355 1.240 . S
O363 In351 2.326 . S
O363 C355 1.252 . S
In364 O365 2.294 . S
In364 O366 2.326 . S
In364 O370 2.266 . S
In364 O371 2.326 . S
In364 O372 2.266 . S
In364 O373 2.326 . S
In364 O375 2.294 . S
In364 O376 2.326 . S
O365 In364 2.294 . S
O365 C374 1.240 . S
O366 In364 2.326 . S
O366 C374 1.252 . S
C367 O370 1.252 . S
C367 O371 1.260 . S
C368 O375 1.240 . S
C368 O376 1.252 . S
C369 O372 1.252 . S
C369 O373 1.260 . S
O370 In364 2.266 . S
O370 C367 1.252 . S
O371 In364 2.326 . S
O371 C367 1.260 . S
O372 In364 2.266 . S
O372 C369 1.252 . S
O373 In364 2.326 . S
O373 C369 1.260 . S
C374 O365 1.240 . S
C374 O366 1.252 . S
O375 In364 2.294 . S
O375 C368 1.240 . S
O376 In364 2.326 . S
O376 C368 1.252 . S
In377 O378 2.294 . S
In377 O379 2.326 . S
In377 O383 2.266 . S
In377 O384 2.326 . S
In377 O385 2.266 . S
In377 O386 2.326 . S
In377 O388 2.294 . S
In377 O389 2.326 . S
O378 In377 2.294 . S
O378 C387 1.240 . S
O379 In377 2.326 . S
O379 C387 1.252 . S
C380 O383 1.252 . S
C380 O384 1.260 . S
C381 O388 1.240 . S
C381 O389 1.252 . S
C382 O385 1.252 . S
C382 O386 1.260 . S
O383 In377 2.266 . S
O383 C380 1.252 . S
O384 In377 2.326 . S
O384 C380 1.260 . S
O385 In377 2.266 . S
O385 C382 1.252 . S
O386 In377 2.326 . S
O386 C382 1.260 . S
C387 O378 1.240 . S
C387 O379 1.252 . S
O388 In377 2.294 . S
O388 C381 1.240 . S
O389 In377 2.326 . S
O389 C381 1.252 . S
In390 O391 2.294 . S
In390 O392 2.326 . S
In390 O396 2.266 . S
In390 O397 2.326 . S
In390 O398 2.266 . S
In390 O399 2.326 . S
In390 O401 2.294 . S
In390 O402 2.326 . S
O391 In390 2.294 . S
O391 C400 1.240 . S
O392 In390 2.326 . S
O392 C400 1.252 . S
C393 O396 1.252 . S
C393 O397 1.260 . S
C394 O401 1.240 . S
C394 O402 1.252 . S
C395 O398 1.252 . S
C395 O399 1.260 . S
O396 In390 2.266 . S
O396 C393 1.252 . S
O397 In390 2.326 . S
O397 C393 1.260 . S
O398 In390 2.266 . S
O398 C395 1.252 . S
O399 In390 2.326 . S
O399 C395 1.260 . S
C400 O391 1.240 . S
C400 O392 1.252 . S
O401 In390 2.294 . S
O401 C394 1.240 . S
O402 In390 2.326 . S
O402 C394 1.252 . S
In403 O404 2.294 . S
In403 O405 2.326 . S
In403 O409 2.266 . S
In403 O410 2.326 . S
In403 O411 2.266 . S
In403 O412 2.326 . S
In403 O414 2.294 . S
In403 O415 2.326 . S
O404 In403 2.294 . S
O404 C413 1.240 . S
O405 In403 2.326 . S
O405 C413 1.252 . S
C406 O409 1.252 . S
C406 O410 1.260 . S
C407 O414 1.240 . S
C407 O415 1.252 . S
C408 O411 1.252 . S
C408 O412 1.260 . S
O409 In403 2.266 . S
O409 C406 1.252 . S
O410 In403 2.326 . S
O410 C406 1.260 . S
O411 In403 2.266 . S
O411 C408 1.252 . S
O412 In403 2.326 . S
O412 C408 1.260 . S
C413 O404 1.240 . S
C413 O405 1.252 . S
O414 In403 2.294 . S
O414 C407 1.240 . S
O415 In403 2.326 . S
O415 C407 1.252 . S
In416 O417 2.294 . S
In416 O418 2.326 . S
In416 O422 2.266 . S
In416 O423 2.326 . S
In416 O424 2.266 . S
In416 O425 2.326 . S
In416 O427 2.294 . S
In416 O428 2.326 . S
O417 In416 2.294 . S
O417 C426 1.240 . S
O418 In416 2.326 . S
O418 C426 1.252 . S
C419 O422 1.252 . S
C419 O423 1.260 . S
C420 O427 1.240 . S
C420 O428 1.252 . S
C421 O424 1.252 . S
C421 O425 1.260 . S
O422 In416 2.266 . S
O422 C419 1.252 . S
O423 In416 2.326 . S
O423 C419 1.260 . S
O424 In416 2.266 . S
O424 C421 1.252 . S
O425 In416 2.326 . S
O425 C421 1.260 . S
C426 O417 1.240 . S
C426 O418 1.252 . S
O427 In416 2.294 . S
O427 C420 1.240 . S
O428 In416 2.326 . S
O428 C420 1.252 . S
In429 O430 2.305 . S
In429 O431 2.326 . S
In429 O435 2.266 . S
In429 O436 2.326 . S
In429 O437 2.266 . S
In429 O438 2.326 . S
In429 O440 2.294 . S
In429 O441 2.326 . S
O430 In429 2.305 . S
O430 C439 1.239 1_556 S
O431 In429 2.326 . S
O431 C439 1.252 1_556 S
C432 O435 1.252 . S
C432 O436 1.260 . S
C433 O440 1.240 . S
C433 O441 1.252 . S
C434 O437 1.252 . S
C434 O438 1.260 . S
O435 In429 2.266 . S
O435 C432 1.252 . S
O436 In429 2.326 . S
O436 C432 1.260 . S
O437 In429 2.266 . S
O437 C434 1.252 . S
O438 In429 2.326 . S
O438 C434 1.260 . S
C439 O430 1.239 1_554 S
C439 O431 1.252 1_554 S
O440 In429 2.294 . S
O440 C433 1.240 . S
O441 In429 2.326 . S
O441 C433 1.252 . S
In442 O443 2.294 . S
In442 O444 2.326 . S
In442 O448 2.266 . S
In442 O449 2.326 . S
In442 O450 2.266 . S
In442 O451 2.326 . S
In442 O453 2.305 . S
In442 O454 2.326 . S
O443 In442 2.294 . S
O443 C452 1.240 . S
O444 In442 2.326 . S
O444 C452 1.252 . S
C445 O448 1.252 . S
C445 O449 1.260 . S
C446 O453 1.239 1_554 S
C446 O454 1.252 1_554 S
C447 O450 1.252 . S
C447 O451 1.260 . S
O448 In442 2.266 . S
O448 C445 1.252 . S
O449 In442 2.326 . S
O449 C445 1.260 . S
O450 In442 2.266 . S
O450 C447 1.252 . S
O451 In442 2.326 . S
O451 C447 1.260 . S
C452 O443 1.240 . S
C452 O444 1.252 . S
O453 In442 2.305 . S
O453 C446 1.239 1_556 S
O454 In442 2.326 . S
O454 C446 1.252 1_556 S
In455 O456 2.306 . S
In455 O457 2.326 . S
In455 O461 2.266 . S
In455 O462 2.326 . S
In455 O463 2.266 . S
In455 O464 2.326 . S
In455 O466 2.294 . S
In455 O467 2.326 . S
O456 In455 2.306 . S
O456 C465 1.239 1_556 S
O457 In455 2.326 . S
O457 C465 1.252 1_556 S
C458 O461 1.252 . S
C458 O462 1.260 . S
C459 O466 1.240 . S
C459 O467 1.252 . S
C460 O463 1.252 . S
C460 O464 1.260 . S
O461 In455 2.266 . S
O461 C458 1.252 . S
O462 In455 2.326 . S
O462 C458 1.260 . S
O463 In455 2.266 . S
O463 C460 1.252 . S
O464 In455 2.326 . S
O464 C460 1.260 . S
C465 O456 1.239 1_554 S
C465 O457 1.252 1_554 S
O466 In455 2.294 . S
O466 C459 1.240 . S
O467 In455 2.326 . S
O467 C459 1.252 . S
C468 C469 1.391 . S
C468 C470 1.394 . S
C468 H484 0.931 . S
C469 C468 1.391 . S
C469 C473 1.376 . S
C470 C468 1.394 . S
C470 C471 1.369 . S
C470 C474 1.531 . S
C471 C470 1.369 . S
C471 C472 1.410 . S
C471 C479 1.503 1_565 S
C472 C471 1.410 . S
C472 C473 1.392 . S
C472 C475 1.511 1_565 S
C473 C469 1.376 . S
C473 C472 1.392 . S
C473 H485 0.929 . S
C474 C470 1.531 . S
C474 H486 0.960 . S
C474 H487 0.962 . S
C474 H488 0.960 . S
C475 C472 1.511 1_545 S
C475 H489 0.961 . S
C475 H490 0.961 . S
C475 H491 0.961 . S
C476 C477 1.370 . S
C476 C478 1.363 . S
C476 H492 0.931 . S
C477 C476 1.370 . S
C477 C481 1.408 . S
C478 C476 1.363 . S
C478 C479 1.370 . S
C478 C482 1.524 . S
C479 C471 1.503 1_545 S
C479 C478 1.370 . S
C479 C480 1.403 . S
C480 C479 1.403 . S
C480 C481 1.404 . S
C480 C483 1.539 . S
C481 C477 1.408 . S
C481 C480 1.404 . S
C481 H493 0.930 . S
C482 C478 1.524 . S
C482 H494 0.956 . S
C482 H495 0.961 . S
C482 H496 0.961 . S
C483 C480 1.539 . S
C483 H497 0.951 1_545 S
C483 H498 0.972 . S
C483 H499 0.957 1_545 S
H484 C468 0.931 . S
H485 C473 0.929 . S
H486 C474 0.960 . S
H487 C474 0.962 . S
H488 C474 0.960 . S
H489 C475 0.961 . S
H490 C475 0.961 . S
H491 C475 0.961 . S
H492 C476 0.931 . S
H493 C481 0.930 . S
H494 C482 0.956 . S
H495 C482 0.961 . S
H496 C482 0.961 . S
H497 C483 0.951 1_565 S
H498 C483 0.972 . S
H499 C483 0.957 1_565 S
C500 C501 1.391 . S
C500 C502 1.394 . S
C500 H516 0.931 . S
C501 C500 1.391 . S
C501 C505 1.376 . S
C502 C500 1.394 . S
C502 C503 1.369 . S
C502 C506 1.531 1_455 S
C503 C502 1.369 . S
C503 C504 1.410 . S
C503 C511 1.503 1_455 S
C504 C503 1.410 . S
C504 C505 1.392 . S
C504 C507 1.511 . S
C505 C501 1.376 . S
C505 C504 1.392 . S
C505 H517 0.929 . S
C506 C502 1.531 1_655 S
C506 H518 0.960 . S
C506 H519 0.962 . S
C506 H520 0.960 . S
C507 C504 1.511 . S
C507 H521 0.961 . S
C507 H522 0.961 . S
C507 H523 0.961 . S
C508 C509 1.370 . S
C508 C510 1.363 . S
C508 H524 0.931 . S
C509 C508 1.370 . S
C509 C513 1.408 . S
C510 C508 1.363 . S
C510 C511 1.370 . S
C510 C514 1.524 . S
C511 C503 1.503 1_655 S
C511 C510 1.370 . S
C511 C512 1.403 . S
C512 C511 1.403 . S
C512 C513 1.404 . S
C512 C515 1.539 1_655 S
C513 C509 1.408 . S
C513 C512 1.404 . S
C513 H525 0.930 . S
C514 C510 1.524 . S
C514 H526 0.956 . S
C514 H527 0.961 . S
C514 H528 0.961 . S
C515 C512 1.539 1_455 S
C515 H529 0.958 . S
C515 H530 0.961 . S
C515 H531 0.960 . S
H516 C500 0.931 . S
H517 C505 0.929 . S
H518 C506 0.960 . S
H519 C506 0.962 . S
H520 C506 0.960 . S
H521 C507 0.961 . S
H522 C507 0.961 . S
H523 C507 0.961 . S
H524 C508 0.931 . S
H525 C513 0.930 . S
H526 C514 0.956 . S
H527 C514 0.961 . S
H528 C514 0.961 . S
H529 C515 0.958 . S
H530 C515 0.961 . S
H531 C515 0.960 . S
C532 C533 1.391 . S
C532 C534 1.394 . S
C532 H548 0.931 . S
C533 C532 1.391 . S
C533 C537 1.376 . S
C534 C532 1.394 . S
C534 C535 1.369 . S
C534 C538 1.531 . S
C535 C534 1.369 . S
C535 C536 1.410 . S
C535 C543 1.503 . S
C536 C535 1.410 . S
C536 C537 1.392 . S
C536 C539 1.511 . S
C537 C533 1.376 . S
C537 C536 1.392 . S
C537 H549 0.929 . S
C538 C534 1.531 . S
C538 H550 0.960 . S
C538 H551 0.962 . S
C538 H552 0.960 . S
C539 C536 1.511 . S
C539 H553 0.961 . S
C539 H554 0.961 . S
C539 H555 0.961 . S
C540 C541 1.370 . S
C540 C542 1.363 . S
C540 H556 0.931 . S
C541 C540 1.370 . S
C541 C545 1.408 . S
C542 C540 1.363 . S
C542 C543 1.370 . S
C542 C546 1.524 . S
C543 C535 1.503 . S
C543 C542 1.370 . S
C543 C544 1.403 . S
C544 C543 1.403 . S
C544 C545 1.404 . S
C544 C547 1.539 . S
C545 C541 1.408 . S
C545 C544 1.404 . S
C545 H557 0.930 . S
C546 C542 1.524 . S
C546 H558 0.956 . S
C546 H559 0.961 . S
C546 H560 0.961 . S
C547 C544 1.539 . S
C547 H561 0.958 . S
C547 H562 0.961 . S
C547 H563 0.960 . S
H548 C532 0.931 . S
H549 C537 0.929 . S
H550 C538 0.960 . S
H551 C538 0.962 . S
H552 C538 0.960 . S
H553 C539 0.961 . S
H554 C539 0.961 . S
H555 C539 0.961 . S
H556 C540 0.931 . S
H557 C545 0.930 . S
H558 C546 0.956 . S
H559 C546 0.961 . S
H560 C546 0.961 . S
H561 C547 0.958 . S
H562 C547 0.961 . S
H563 C547 0.960 . S
C564 C565 1.391 . S
C564 C566 1.394 . S
C564 H580 0.931 . S
C565 C564 1.391 . S
C565 C569 1.376 . S
C566 C564 1.394 . S
C566 C567 1.369 . S
C566 C570 1.531 . S
C567 C566 1.369 . S
C567 C568 1.410 . S
C567 C575 1.503 1_565 S
C568 C567 1.410 . S
C568 C569 1.392 . S
C568 C571 1.511 . S
C569 C565 1.376 . S
C569 C568 1.392 . S
C569 H581 0.929 . S
C570 C566 1.531 . S
C570 H582 0.960 . S
C570 H583 0.962 1_565 S
C570 H584 0.960 . S
C571 C568 1.511 . S
C571 H585 0.961 . S
C571 H586 0.980 . S
C571 H587 0.961 . S
C572 C573 1.370 . S
C572 C574 1.363 . S
C572 H588 0.931 . S
C573 C572 1.370 . S
C573 C577 1.408 . S
C574 C572 1.363 . S
C574 C575 1.370 . S
C574 C578 1.524 . S
C575 C567 1.503 1_545 S
C575 C574 1.370 . S
C575 C576 1.403 . S
C576 C575 1.403 . S
C576 C577 1.404 . S
C576 C579 1.539 1_545 S
C577 C573 1.408 . S
C577 C576 1.404 . S
C577 H589 0.930 . S
C578 C574 1.524 . S
C578 H590 0.956 . S
C578 H591 0.961 . S
C578 H592 0.961 . S
C579 C576 1.539 1_565 S
C579 H593 0.958 . S
C579 H594 0.961 . S
C579 H595 0.960 . S
H580 C564 0.931 . S
H581 C569 0.929 . S
H582 C570 0.960 . S
H583 C570 0.962 1_545 S
H584 C570 0.960 . S
H585 C571 0.961 . S
H586 C571 0.980 . S
H587 C571 0.961 . S
H588 C572 0.931 . S
H589 C577 0.930 . S
H590 C578 0.956 . S
H591 C578 0.961 . S
H592 C578 0.961 . S
H593 C579 0.958 . S
H594 C579 0.961 . S
H595 C579 0.960 . S
C596 C597 1.391 . S
C596 C598 1.394 . S
C596 H612 0.931 . S
C597 C596 1.391 . S
C597 C601 1.376 . S
C598 C596 1.394 . S
C598 C599 1.369 . S
C598 C602 1.531 1_455 S
C599 C598 1.369 . S
C599 C600 1.410 . S
C599 C607 1.503 1_455 S
C600 C599 1.410 . S
C600 C601 1.392 . S
C600 C603 1.511 . S
C601 C597 1.376 . S
C601 C600 1.392 . S
C601 H613 0.929 . S
C602 C598 1.531 1_655 S
C602 H614 0.960 . S
C602 H615 0.962 . S
C602 H616 0.960 1_655 S
C603 C600 1.511 . S
C603 H617 0.961 . S
C603 H618 0.961 . S
C603 H619 0.961 . S
C604 C605 1.370 . S
C604 C606 1.363 . S
C604 H620 0.931 . S
C605 C604 1.370 . S
C605 C609 1.408 . S
C606 C604 1.363 . S
C606 C607 1.370 . S
C606 C610 1.524 . S
C607 C599 1.503 1_655 S
C607 C606 1.370 . S
C607 C608 1.403 . S
C608 C607 1.403 . S
C608 C609 1.404 . S
C608 C611 1.539 1_655 S
C609 C605 1.408 . S
C609 C608 1.404 . S
C609 H621 0.930 . S
C610 C606 1.524 . S
C610 H622 0.956 . S
C610 H623 0.961 . S
C610 H624 0.961 . S
C611 C608 1.539 1_455 S
C611 H625 0.958 . S
C611 H626 0.961 . S
C611 H627 0.960 . S
H612 C596 0.931 . S
H613 C601 0.929 . S
H614 C602 0.960 . S
H615 C602 0.962 . S
H616 C602 0.960 1_455 S
H617 C603 0.961 . S
H618 C603 0.961 . S
H619 C603 0.961 . S
H620 C604 0.931 . S
H621 C609 0.930 . S
H622 C610 0.956 . S
H623 C610 0.961 . S
H624 C610 0.961 . S
H625 C611 0.958 . S
H626 C611 0.961 . S
H627 C611 0.960 . S
C628 C629 1.391 . S
C628 C630 1.394 . S
C628 H644 0.931 . S
C629 C628 1.391 . S
C629 C633 1.376 . S
C630 C628 1.394 . S
C630 C631 1.369 . S
C630 C634 1.531 . S
C631 C630 1.369 . S
C631 C632 1.410 . S
C631 C639 1.503 . S
C632 C631 1.410 . S
C632 C633 1.392 . S
C632 C635 1.511 . S
C633 C629 1.376 . S
C633 C632 1.392 . S
C633 H645 0.929 . S
C634 C630 1.531 . S
C634 H646 0.960 . S
C634 H647 0.962 . S
C634 H648 0.960 . S
C635 C632 1.511 . S
C635 H649 0.961 . S
C635 H650 0.961 . S
C635 H651 0.961 . S
C636 C637 1.370 . S
C636 C638 1.363 . S
C636 H652 0.931 . S
C637 C636 1.370 . S
C637 C641 1.408 . S
C638 C636 1.363 . S
C638 C639 1.370 . S
C638 C642 1.524 . S
C639 C631 1.503 . S
C639 C638 1.370 . S
C639 C640 1.403 . S
C640 C639 1.403 . S
C640 C641 1.404 . S
C640 C643 1.539 . S
C641 C637 1.408 . S
C641 C640 1.404 . S
C641 H653 0.930 . S
C642 C638 1.524 . S
C642 H654 0.956 . S
C642 H655 0.961 . S
C642 H656 0.961 . S
C643 C640 1.539 . S
C643 H657 0.958 . S
C643 H658 0.961 . S
C643 H659 0.960 . S
H644 C628 0.931 . S
H645 C633 0.929 . S
H646 C634 0.960 . S
H647 C634 0.962 . S
H648 C634 0.960 . S
H649 C635 0.961 . S
H650 C635 0.961 . S
H651 C635 0.961 . S
H652 C636 0.931 . S
H653 C641 0.930 . S
H654 C642 0.956 . S
H655 C642 0.961 . S
H656 C642 0.961 . S
H657 C643 0.958 . S
H658 C643 0.961 . S
H659 C643 0.960 . S
C660 C661 1.391 . S
C660 C662 1.394 . S
C660 H676 0.931 . S
C661 C660 1.391 . S
C661 C665 1.376 . S
C662 C660 1.394 . S
C662 C663 1.369 . S
C662 C666 1.531 . S
C663 C662 1.369 . S
C663 C664 1.410 . S
C663 C671 1.503 . S
C664 C663 1.410 . S
C664 C665 1.392 . S
C664 C667 1.511 . S
C665 C661 1.376 . S
C665 C664 1.392 . S
C665 H677 0.929 . S
C666 C662 1.531 . S
C666 H678 0.960 . S
C666 H679 0.962 . S
C666 H680 0.960 . S
C667 C664 1.511 . S
C667 H681 0.961 . S
C667 H682 0.961 . S
C667 H683 0.961 . S
C668 C669 1.370 . S
C668 C670 1.363 . S
C668 H684 0.931 . S
C669 C668 1.370 . S
C669 C673 1.408 . S
C670 C668 1.363 . S
C670 C671 1.370 . S
C670 C674 1.524 . S
C671 C663 1.503 . S
C671 C670 1.370 . S
C671 C672 1.403 . S
C672 C671 1.403 . S
C672 C673 1.404 . S
C672 C675 1.539 . S
C673 C669 1.408 . S
C673 C672 1.404 . S
C673 H685 0.930 . S
C674 C670 1.524 . S
C674 H686 0.956 . S
C674 H687 0.961 . S
C674 H688 0.961 . S
C675 C672 1.539 . S
C675 H689 0.958 . S
C675 H690 0.961 . S
C675 H691 0.960 . S
H676 C660 0.931 . S
H677 C665 0.929 . S
H678 C666 0.960 . S
H679 C666 0.962 . S
H680 C666 0.960 . S
H681 C667 0.961 . S
H682 C667 0.961 . S
H683 C667 0.961 . S
H684 C668 0.931 . S
H685 C673 0.930 . S
H686 C674 0.956 . S
H687 C674 0.961 . S
H688 C674 0.961 . S
H689 C675 0.958 . S
H690 C675 0.961 . S
H691 C675 0.960 . S
C692 C693 1.391 . S
C692 C694 1.394 . S
C692 H708 0.931 . S
C693 C692 1.391 . S
C693 C697 1.376 . S
C694 C692 1.394 . S
C694 C695 1.369 . S
C694 C698 1.531 . S
C695 C694 1.369 . S
C695 C696 1.410 . S
C695 C703 1.503 . S
C696 C695 1.410 . S
C696 C697 1.392 . S
C696 C699 1.511 . S
C697 C693 1.376 . S
C697 C696 1.392 . S
C697 H709 0.929 . S
C698 C694 1.531 . S
C698 H710 0.960 . S
C698 H711 0.962 . S
C698 H712 0.960 . S
C699 C696 1.511 . S
C699 H713 0.961 . S
C699 H714 0.961 . S
C699 H715 0.961 . S
C700 C701 1.370 . S
C700 C702 1.363 . S
C700 H716 0.931 . S
C701 C700 1.370 . S
C701 C705 1.408 . S
C702 C700 1.363 . S
C702 C703 1.370 . S
C702 C706 1.524 . S
C703 C695 1.503 . S
C703 C702 1.370 . S
C703 C704 1.403 . S
C704 C703 1.403 . S
C704 C705 1.404 . S
C704 C707 1.539 . S
C705 C701 1.408 . S
C705 C704 1.404 . S
C705 H717 0.930 1_556 S
C706 C702 1.524 . S
C706 H718 0.956 . S
C706 H719 0.961 . S
C706 H720 0.961 . S
C707 C704 1.539 . S
C707 H721 0.958 . S
C707 H722 0.961 . S
C707 H723 0.960 . S
H708 C692 0.931 . S
H709 C697 0.929 . S
H710 C698 0.960 . S
H711 C698 0.962 . S
H712 C698 0.960 . S
H713 C699 0.961 . S
H714 C699 0.961 . S
H715 C699 0.961 . S
H716 C700 0.931 . S
H717 C705 0.930 1_554 S
H718 C706 0.956 . S
H719 C706 0.961 . S
H720 C706 0.961 . S
H721 C707 0.958 . S
H722 C707 0.961 . S
H723 C707 0.960 . S
C724 C725 1.391 . S
C724 C726 1.394 . S
C724 H740 0.931 . S
C725 C724 1.391 . S
C725 C729 1.376 . S
C726 C724 1.394 . S
C726 C727 1.369 . S
C726 C730 1.531 . S
C727 C726 1.369 . S
C727 C728 1.410 . S
C727 C735 1.503 . S
C728 C727 1.410 . S
C728 C729 1.392 . S
C728 C731 1.511 . S
C729 C725 1.376 . S
C729 C728 1.392 . S
C729 H741 0.929 . S
C730 C726 1.531 . S
C730 H742 0.960 . S
C730 H743 0.962 . S
C730 H744 0.960 . S
C731 C728 1.511 . S
C731 H745 0.961 . S
C731 H746 0.961 . S
C731 H747 0.961 . S
C732 C733 1.370 . S
C732 C734 1.363 . S
C732 H748 0.931 . S
C733 C732 1.370 . S
C733 C737 1.408 . S
C734 C732 1.363 . S
C734 C735 1.370 . S
C734 C738 1.524 . S
C735 C727 1.503 . S
C735 C734 1.370 . S
C735 C736 1.403 . S
C736 C735 1.403 . S
C736 C737 1.404 . S
C736 C739 1.539 . S
C737 C733 1.408 . S
C737 C736 1.404 . S
C737 H749 0.918 1_556 S
C738 C734 1.524 . S
C738 H750 0.956 . S
C738 H751 0.961 . S
C738 H752 0.961 . S
C739 C736 1.539 . S
C739 H753 0.958 . S
C739 H754 0.961 . S
C739 H755 0.960 . S
H740 C724 0.931 . S
H741 C729 0.929 . S
H742 C730 0.960 . S
H743 C730 0.962 . S
H744 C730 0.960 . S
H745 C731 0.961 . S
H746 C731 0.961 . S
H747 C731 0.961 . S
H748 C732 0.931 . S
H749 C737 0.918 1_554 S
H750 C738 0.956 . S
H751 C738 0.961 . S
H752 C738 0.961 . S
H753 C739 0.958 . S
H754 C739 0.961 . S
H755 C739 0.960 . S
C756 C757 1.391 . S
C756 C758 1.394 . S
C756 H772 0.931 . S
C757 C756 1.391 . S
C757 C761 1.376 . S
C758 C756 1.394 . S
C758 C759 1.369 . S
C758 C762 1.531 . S
C759 C758 1.369 . S
C759 C760 1.410 . S
C759 C767 1.503 . S
C760 C759 1.410 . S
C760 C761 1.392 . S
C760 C763 1.511 . S
C761 C757 1.376 . S
C761 C760 1.392 . S
C761 H773 0.929 . S
C762 C758 1.531 . S
C762 H774 0.960 . S
C762 H775 0.962 . S
C762 H776 0.960 . S
C763 C760 1.511 . S
C763 H777 0.961 . S
C763 H778 0.961 . S
C763 H779 0.961 . S
C764 C765 1.370 . S
C764 C766 1.363 . S
C764 H780 0.931 . S
C765 C764 1.370 . S
C765 C769 1.408 . S
C766 C764 1.363 . S
C766 C767 1.370 . S
C766 C770 1.524 . S
C767 C759 1.503 . S
C767 C766 1.370 . S
C767 C768 1.403 . S
C768 C767 1.403 . S
C768 C769 1.404 . S
C768 C771 1.539 . S
C769 C765 1.408 . S
C769 C768 1.404 . S
C769 H781 0.930 . S
C770 C766 1.524 . S
C770 H782 0.956 . S
C770 H783 0.961 . S
C770 H784 0.961 . S
C771 C768 1.539 . S
C771 H785 0.958 . S
C771 H786 0.961 . S
C771 H787 0.960 . S
H772 C756 0.931 . S
H773 C761 0.929 . S
H774 C762 0.960 . S
H775 C762 0.962 . S
H776 C762 0.960 . S
H777 C763 0.961 . S
H778 C763 0.961 . S
H779 C763 0.961 . S
H780 C764 0.931 . S
H781 C769 0.930 . S
H782 C770 0.956 . S
H783 C770 0.961 . S
H784 C770 0.961 . S
H785 C771 0.958 . S
H786 C771 0.961 . S
H787 C771 0.960 . S
C788 C789 1.391 . S
C788 C790 1.394 . S
C788 H804 0.931 . S
C789 C788 1.391 . S
C789 C793 1.376 . S
C790 C788 1.394 . S
C790 C791 1.369 . S
C790 C794 1.531 . S
C791 C790 1.369 . S
C791 C792 1.410 . S
C791 C799 1.503 . S
C792 C791 1.410 . S
C792 C793 1.392 . S
C792 C795 1.511 . S
C793 C789 1.376 . S
C793 C792 1.392 . S
C793 H805 0.929 . S
C794 C790 1.531 . S
C794 H806 0.960 . S
C794 H807 0.962 . S
C794 H808 0.960 . S
C795 C792 1.511 . S
C795 H809 0.961 . S
C795 H810 0.961 . S
C795 H811 0.961 . S
C796 C797 1.370 . S
C796 C798 1.363 . S
C796 H812 0.931 . S
C797 C796 1.370 . S
C797 C801 1.408 . S
C798 C796 1.363 . S
C798 C799 1.370 . S
C798 C802 1.524 . S
C799 C791 1.503 . S
C799 C798 1.370 . S
C799 C800 1.403 . S
C800 C799 1.403 . S
C800 C801 1.404 . S
C800 C803 1.539 . S
C801 C797 1.408 . S
C801 C800 1.404 . S
C801 H813 0.930 . S
C802 C798 1.524 . S
C802 H814 0.956 . S
C802 H815 0.961 . S
C802 H816 0.961 . S
C803 C800 1.539 . S
C803 H817 0.958 . S
C803 H818 0.961 . S
C803 H819 0.960 . S
H804 C788 0.931 . S
H805 C793 0.929 . S
H806 C794 0.960 . S
H807 C794 0.962 . S
H808 C794 0.960 . S
H809 C795 0.961 . S
H810 C795 0.961 . S
H811 C795 0.961 . S
H812 C796 0.931 . S
H813 C801 0.930 . S
H814 C802 0.956 . S
H815 C802 0.961 . S
H816 C802 0.961 . S
H817 C803 0.958 . S
H818 C803 0.961 . S
H819 C803 0.960 . S
C820 C821 1.391 . S
C820 C822 1.394 . S
C820 H836 0.931 . S
C821 C820 1.391 . S
C821 C825 1.376 . S
C822 C820 1.394 . S
C822 C823 1.369 . S
C822 C826 1.531 . S
C823 C822 1.369 . S
C823 C824 1.410 . S
C823 C831 1.503 . S
C824 C823 1.410 . S
C824 C825 1.392 . S
C824 C827 1.511 . S
C825 C821 1.376 . S
C825 C824 1.392 . S
C825 H837 0.929 . S
C826 C822 1.531 . S
C826 H838 0.960 . S
C826 H839 0.962 . S
C826 H840 0.960 . S
C827 C824 1.511 . S
C827 H841 0.961 . S
C827 H842 0.961 . S
C827 H843 0.961 . S
C828 C829 1.370 . S
C828 C830 1.363 . S
C828 H844 0.931 . S
C829 C828 1.370 . S
C829 C833 1.408 . S
C830 C828 1.363 . S
C830 C831 1.370 . S
C830 C834 1.524 . S
C831 C823 1.503 . S
C831 C830 1.370 . S
C831 C832 1.403 . S
C832 C831 1.403 . S
C832 C833 1.404 . S
C832 C835 1.539 . S
C833 C829 1.408 . S
C833 C832 1.404 . S
C833 H845 0.930 1_556 S
C834 C830 1.524 . S
C834 H846 0.956 . S
C834 H847 0.961 . S
C834 H848 0.961 . S
C835 C832 1.539 . S
C835 H849 0.958 . S
C835 H850 0.961 . S
C835 H851 0.960 . S
H836 C820 0.931 . S
H837 C825 0.929 . S
H838 C826 0.960 . S
H839 C826 0.962 . S
H840 C826 0.960 . S
H841 C827 0.961 . S
H842 C827 0.961 . S
H843 C827 0.961 . S
H844 C828 0.931 . S
H845 C833 0.930 1_554 S
H846 C834 0.956 . S
H847 C834 0.961 . S
H848 C834 0.961 . S
H849 C835 0.958 . S
H850 C835 0.961 . S
H851 C835 0.960 . S
C852 C853 1.391 . S
C852 C854 1.394 . S
C852 H868 0.931 . S
C853 C852 1.391 . S
C853 C857 1.376 . S
C854 C852 1.394 . S
C854 C855 1.369 . S
C854 C858 1.531 . S
C855 C854 1.369 . S
C855 C856 1.410 . S
C855 C863 1.503 . S
C856 C855 1.410 . S
C856 C857 1.392 . S
C856 C859 1.511 . S
C857 C853 1.376 . S
C857 C856 1.392 . S
C857 H869 0.929 . S
C858 C854 1.531 . S
C858 H870 0.960 . S
C858 H871 0.962 . S
C858 H872 0.960 . S
C859 C856 1.511 . S
C859 H873 0.961 . S
C859 H874 0.961 . S
C859 H875 0.961 . S
C860 C861 1.370 . S
C860 C862 1.363 . S
C860 H876 0.931 . S
C861 C860 1.370 . S
C861 C865 1.408 . S
C862 C860 1.363 . S
C862 C863 1.370 . S
C862 C866 1.524 . S
C863 C855 1.503 . S
C863 C862 1.370 . S
C863 C864 1.403 . S
C864 C863 1.403 . S
C864 C865 1.404 . S
C864 C867 1.539 . S
C865 C861 1.408 . S
C865 C864 1.404 . S
C865 H877 0.930 . S
C866 C862 1.524 . S
C866 H878 0.956 . S
C866 H879 0.961 . S
C866 H880 0.961 . S
C867 C864 1.539 . S
C867 H881 0.958 . S
C867 H882 0.961 . S
C867 H883 0.960 . S
H868 C852 0.931 . S
H869 C857 0.929 . S
H870 C858 0.960 . S
H871 C858 0.962 . S
H872 C858 0.960 . S
H873 C859 0.961 . S
H874 C859 0.961 . S
H875 C859 0.961 . S
H876 C860 0.931 . S
H877 C865 0.930 . S
H878 C866 0.956 . S
H879 C866 0.961 . S
H880 C866 0.961 . S
H881 C867 0.958 . S
H882 C867 0.961 . S
H883 C867 0.960 . S
C884 C885 1.391 . S
C884 C886 1.394 . S
C884 H900 0.931 . S
C885 C884 1.391 . S
C885 C889 1.376 . S
C886 C884 1.394 . S
C886 C887 1.369 . S
C886 C890 1.531 . S
C887 C886 1.369 . S
C887 C888 1.410 . S
C887 C895 1.503 . S
C888 C887 1.410 . S
C888 C889 1.392 . S
C888 C891 1.511 . S
C889 C885 1.376 . S
C889 C888 1.392 . S
C889 H901 0.929 . S
C890 C886 1.531 . S
C890 H902 0.960 . S
C890 H903 0.962 . S
C890 H904 0.960 . S
C891 C888 1.511 . S
C891 H905 0.961 . S
C891 H906 0.961 . S
C891 H907 0.961 . S
C892 C893 1.370 . S
C892 C894 1.363 . S
C892 H908 0.931 . S
C893 C892 1.370 . S
C893 C897 1.408 . S
C894 C892 1.363 . S
C894 C895 1.370 . S
C894 C898 1.524 . S
C895 C887 1.503 . S
C895 C894 1.370 . S
C895 C896 1.403 . S
C896 C895 1.403 . S
C896 C897 1.404 . S
C896 C899 1.539 . S
C897 C893 1.408 . S
C897 C896 1.404 . S
C897 H909 0.930 . S
C898 C894 1.524 . S
C898 H910 0.956 . S
C898 H911 0.961 . S
C898 H912 0.961 . S
C899 C896 1.539 . S
C899 H913 0.958 . S
C899 H914 0.961 . S
C899 H915 0.960 . S
H900 C884 0.931 . S
H901 C889 0.929 . S
H902 C890 0.960 . S
H903 C890 0.962 . S
H904 C890 0.960 . S
H905 C891 0.961 . S
H906 C891 0.961 . S
H907 C891 0.961 . S
H908 C892 0.931 . S
H909 C897 0.930 . S
H910 C898 0.956 . S
H911 C898 0.961 . S
H912 C898 0.961 . S
H913 C899 0.958 . S
H914 C899 0.961 . S
H915 C899 0.960 . S
C916 C917 1.391 . S
C916 C918 1.394 . S
C916 H932 0.931 . S
C917 C916 1.391 . S
C917 C921 1.376 . S
C918 C916 1.394 . S
C918 C919 1.369 . S
C918 C922 1.531 . S
C919 C918 1.369 . S
C919 C920 1.410 . S
C919 C927 1.503 . S
C920 C919 1.410 . S
C920 C921 1.392 . S
C920 C923 1.511 . S
C921 C917 1.376 . S
C921 C920 1.392 . S
C921 H933 0.929 . S
C922 C918 1.531 . S
C922 H934 0.960 . S
C922 H935 0.962 . S
C922 H936 0.960 . S
C923 C920 1.511 . S
C923 H937 0.961 . S
C923 H938 0.961 . S
C923 H939 0.961 . S
C924 C925 1.370 . S
C924 C926 1.363 . S
C924 H940 0.931 . S
C925 C924 1.370 . S
C925 C929 1.408 . S
C926 C924 1.363 . S
C926 C927 1.370 . S
C926 C930 1.524 . S
C927 C919 1.503 . S
C927 C926 1.370 . S
C927 C928 1.403 . S
C928 C927 1.403 . S
C928 C929 1.404 . S
C928 C931 1.539 . S
C929 C925 1.408 . S
C929 C928 1.404 . S
C929 H941 0.930 . S
C930 C926 1.524 . S
C930 H942 0.956 . S
C930 H943 0.961 . S
C930 H944 0.961 . S
C931 C928 1.539 . S
C931 H945 0.958 . S
C931 H946 0.961 . S
C931 H947 0.960 . S
H932 C916 0.931 . S
H933 C921 0.929 . S
H934 C922 0.960 . S
H935 C922 0.962 . S
H936 C922 0.960 . S
H937 C923 0.961 . S
H938 C923 0.961 . S
H939 C923 0.961 . S
H940 C924 0.931 . S
H941 C929 0.930 . S
H942 C930 0.956 . S
H943 C930 0.961 . S
H944 C930 0.961 . S
H945 C931 0.958 . S
H946 C931 0.961 . S
H947 C931 0.960 . S
C948 C949 1.391 . S
C948 C950 1.394 . S
C948 H964 0.931 . S
C949 C948 1.391 . S
C949 C953 1.376 . S
C950 C948 1.394 . S
C950 C951 1.369 . S
C950 C954 1.531 . S
C951 C950 1.369 . S
C951 C952 1.410 . S
C951 C959 1.503 . S
C952 C951 1.410 . S
C952 C953 1.392 . S
C952 C955 1.511 . S
C953 C949 1.376 . S
C953 C952 1.392 . S
C953 H965 0.929 . S
C954 C950 1.531 . S
C954 H966 0.960 . S
C954 H967 0.962 . S
C954 H968 0.960 . S
C955 C952 1.511 . S
C955 H969 0.961 . S
C955 H970 0.961 . S
C955 H971 0.961 . S
C956 C957 1.370 . S
C956 C958 1.363 . S
C956 H972 0.931 . S
C957 C956 1.370 . S
C957 C961 1.408 . S
C958 C956 1.363 . S
C958 C959 1.370 . S
C958 C962 1.524 . S
C959 C951 1.503 . S
C959 C958 1.370 . S
C959 C960 1.403 . S
C960 C959 1.403 . S
C960 C961 1.404 . S
C960 C963 1.539 . S
C961 C957 1.408 . S
C961 C960 1.404 . S
C961 H973 0.930 . S
C962 C958 1.524 . S
C962 H974 0.956 . S
C962 H975 0.961 . S
C962 H976 0.961 . S
C963 C960 1.539 . S
C963 H977 0.958 . S
C963 H978 0.961 . S
C963 H979 0.960 . S
H964 C948 0.931 . S
H965 C953 0.929 . S
H966 C954 0.960 . S
H967 C954 0.962 . S
H968 C954 0.960 . S
H969 C955 0.961 . S
H970 C955 0.961 . S
H971 C955 0.961 . S
H972 C956 0.931 . S
H973 C961 0.930 . S
H974 C962 0.956 . S
H975 C962 0.961 . S
H976 C962 0.961 . S
H977 C963 0.958 . S
H978 C963 0.961 . S
H979 C963 0.960 . S
C980 C981 1.391 . S
C980 C982 1.394 . S
C980 H996 0.931 . S
C981 C980 1.391 . S
C981 C985 1.376 . S
C982 C980 1.394 . S
C982 C983 1.369 . S
C982 C986 1.531 . S
C983 C982 1.369 . S
C983 C984 1.410 . S
C983 C991 1.503 . S
C984 C983 1.410 . S
C984 C985 1.392 . S
C984 C987 1.511 . S
C985 C981 1.376 . S
C985 C984 1.392 . S
C985 H997 0.929 . S
C986 C982 1.531 . S
C986 H998 0.960 . S
C986 H999 0.962 . S
C986 H1000 0.960 . S
C987 C984 1.511 . S
C987 H1001 0.961 . S
C987 H1002 0.961 . S
C987 H1003 0.961 . S
C988 C989 1.370 . S
C988 C990 1.363 . S
C988 H1004 0.931 . S
C989 C988 1.370 . S
C989 C993 1.408 . S
C990 C988 1.363 . S
C990 C991 1.370 . S
C990 C994 1.524 . S
C991 C983 1.503 . S
C991 C990 1.370 . S
C991 C992 1.403 . S
C992 C991 1.403 . S
C992 C993 1.404 . S
C992 C995 1.539 . S
C993 C989 1.408 . S
C993 C992 1.404 . S
C993 H1005 0.930 . S
C994 C990 1.524 . S
C994 H1006 0.956 . S
C994 H1007 0.961 . S
C994 H1008 0.961 . S
C995 C992 1.539 . S
C995 H1009 0.958 . S
C995 H1010 0.961 . S
C995 H1011 0.960 . S
H996 C980 0.931 . S
H997 C985 0.929 . S
H998 C986 0.960 . S
H999 C986 0.962 . S
H1000 C986 0.960 . S
H1001 C987 0.961 . S
H1002 C987 0.961 . S
H1003 C987 0.961 . S
H1004 C988 0.931 . S
H1005 C993 0.930 . S
H1006 C994 0.956 . S
H1007 C994 0.961 . S
H1008 C994 0.961 . S
H1009 C995 0.958 . S
H1010 C995 0.961 . S
H1011 C995 0.960 . S
C1012 C1013 1.391 . S
C1012 C1014 1.394 . S
C1012 H1028 0.931 . S
C1013 C1012 1.391 . S
C1013 C1017 1.376 . S
C1014 C1012 1.394 . S
C1014 C1015 1.369 . S
C1014 C1018 1.531 . S
C1015 C1014 1.369 . S
C1015 C1016 1.410 . S
C1015 C1023 1.503 . S
C1016 C1015 1.410 . S
C1016 C1017 1.392 . S
C1016 C1019 1.511 . S
C1017 C1013 1.376 . S
C1017 C1016 1.392 . S
C1017 H1029 0.929 . S
C1018 C1014 1.531 . S
C1018 H1030 0.960 . S
C1018 H1031 0.962 . S
C1018 H1032 0.960 . S
C1019 C1016 1.511 . S
C1019 H1033 0.961 . S
C1019 H1034 0.961 . S
C1019 H1035 0.961 . S
C1020 C1021 1.370 . S
C1020 C1022 1.363 . S
C1020 H1036 0.931 . S
C1021 C1020 1.370 . S
C1021 C1025 1.408 . S
C1022 C1020 1.363 . S
C1022 C1023 1.370 . S
C1022 C1026 1.524 . S
C1023 C1015 1.503 . S
C1023 C1022 1.370 . S
C1023 C1024 1.403 . S
C1024 C1023 1.403 . S
C1024 C1025 1.404 . S
C1024 C1027 1.539 . S
C1025 C1021 1.408 . S
C1025 C1024 1.404 . S
C1025 H1037 0.930 . S
C1026 C1022 1.524 . S
C1026 H1038 0.956 . S
C1026 H1039 0.961 . S
C1026 H1040 0.961 . S
C1027 C1024 1.539 . S
C1027 H1041 0.958 . S
C1027 H1042 0.961 . S
C1027 H1043 0.960 . S
H1028 C1012 0.931 . S
H1029 C1017 0.929 . S
H1030 C1018 0.960 . S
H1031 C1018 0.962 . S
H1032 C1018 0.960 . S
H1033 C1019 0.961 . S
H1034 C1019 0.961 . S
H1035 C1019 0.961 . S
H1036 C1020 0.931 . S
H1037 C1025 0.930 . S
H1038 C1026 0.956 . S
H1039 C1026 0.961 . S
H1040 C1026 0.961 . S
H1041 C1027 0.958 . S
H1042 C1027 0.961 . S
H1043 C1027 0.960 . S
C1044 C1045 1.391 . S
C1044 C1046 1.394 . S
C1044 H1060 0.931 . S
C1045 C1044 1.391 . S
C1045 C1049 1.376 . S
C1046 C1044 1.394 . S
C1046 C1047 1.369 . S
C1046 C1050 1.531 1_556 S
C1047 C1046 1.369 . S
C1047 C1048 1.410 . S
C1047 C1055 1.503 1_566 S
C1048 C1047 1.410 . S
C1048 C1049 1.392 . S
C1048 C1051 1.515 . S
C1049 C1045 1.376 . S
C1049 C1048 1.392 . S
C1049 H1061 0.929 . S
C1050 C1046 1.531 1_554 S
C1050 H1062 0.960 . S
C1050 H1063 0.962 1_554 S
C1050 H1064 0.960 . S
C1051 C1048 1.515 . S
C1051 H1065 0.985 1_565 S
C1051 H1066 0.910 1_565 S
C1051 H1067 1.003 . S
C1052 C1053 1.370 . S
C1052 C1054 1.363 . S
C1052 H1068 0.931 . S
C1053 C1052 1.370 . S
C1053 C1057 1.408 . S
C1054 C1052 1.363 . S
C1054 C1055 1.370 . S
C1054 C1058 1.524 1_554 S
C1055 C1047 1.503 1_544 S
C1055 C1054 1.370 . S
C1055 C1056 1.426 . S
C1056 C1055 1.426 . S
C1056 C1057 1.447 . S
C1056 C1059 1.474 1_545 S
C1057 C1053 1.408 . S
C1057 C1056 1.447 . S
C1057 H1069 0.930 . S
C1058 C1054 1.524 1_556 S
C1058 H1070 0.956 . S
C1058 H1071 0.961 . S
C1058 H1072 0.961 . S
C1059 C1056 1.474 1_565 S
C1059 H1073 0.958 . S
C1059 H1074 0.961 . S
C1059 H1075 0.960 . S
H1060 C1044 0.931 . S
H1061 C1049 0.929 . S
H1062 C1050 0.960 . S
H1063 C1050 0.962 1_556 S
H1064 C1050 0.960 . S
H1065 C1051 0.985 1_545 S
H1066 C1051 0.910 1_545 S
H1067 C1051 1.003 . S
H1068 C1052 0.931 . S
H1069 C1057 0.930 . S
H1070 C1058 0.956 . S
H1071 C1058 0.961 . S
H1072 C1058 0.961 . S
H1073 C1059 0.958 . S
H1074 C1059 0.961 . S
H1075 C1059 0.960 . S
C1076 C1077 1.391 . S
C1076 C1078 1.394 . S
C1076 H1092 0.931 . S
C1077 C1076 1.391 . S
C1077 C1081 1.376 . S
C1078 C1076 1.394 . S
C1078 C1079 1.369 . S
C1078 C1082 1.531 . S
C1079 C1078 1.369 . S
C1079 C1080 1.410 . S
C1079 C1087 1.503 1_654 S
C1080 C1079 1.410 . S
C1080 C1081 1.392 . S
C1080 C1083 1.511 1_655 S
C1081 C1077 1.376 . S
C1081 C1080 1.392 . S
C1081 H1093 0.929 . S
C1082 C1078 1.531 . S
C1082 H1094 0.960 1_655 S
C1082 H1095 0.962 1_554 S
C1082 H1096 0.960 . S
C1083 C1080 1.511 1_455 S
C1083 H1097 0.961 1_455 S
C1083 H1098 0.961 . S
C1083 H1099 0.961 . S
C1084 C1085 1.370 . S
C1084 C1086 1.363 . S
C1084 H1100 0.931 . S
C1085 C1084 1.370 . S
C1085 C1089 1.408 . S
C1086 C1084 1.363 . S
C1086 C1087 1.370 . S
C1086 C1090 1.524 1_455 S
C1087 C1079 1.503 1_456 S
C1087 C1086 1.370 . S
C1087 C1088 1.403 . S
C1088 C1087 1.403 . S
C1088 C1089 1.404 . S
C1088 C1091 1.539 1_556 S
C1089 C1085 1.408 . S
C1089 C1088 1.404 . S
C1089 H1101 0.930 . S
C1090 C1086 1.524 1_655 S
C1090 H1102 0.956 . S
C1090 H1103 0.961 . S
C1090 H1104 0.961 . S
C1091 C1088 1.539 1_554 S
C1091 H1105 0.958 . S
C1091 H1106 0.961 . S
C1091 H1107 0.960 . S
H1092 C1076 0.931 . S
H1093 C1081 0.929 . S
H1094 C1082 0.960 1_455 S
H1095 C1082 0.962 1_556 S
H1096 C1082 0.960 . S
H1097 C1083 0.961 1_655 S
H1098 C1083 0.961 . S
H1099 C1083 0.961 . S
H1100 C1084 0.931 . S
H1101 C1089 0.930 . S
H1102 C1090 0.956 . S
H1103 C1090 0.961 . S
H1104 C1090 0.961 . S
H1105 C1091 0.958 . S
H1106 C1091 0.961 . S
H1107 C1091 0.960 . S
C1108 C1109 1.391 . S
C1108 C1110 1.394 . S
C1108 H1124 0.931 . S
C1109 C1108 1.391 . S
C1109 C1113 1.376 . S
C1110 C1108 1.394 . S
C1110 C1111 1.369 . S
C1110 C1114 1.531 . S
C1111 C1110 1.369 . S
C1111 C1112 1.410 . S
C1111 C1119 1.503 1_556 S
C1112 C1111 1.410 . S
C1112 C1113 1.392 . S
C1112 C1115 1.511 1_556 S
C1113 C1109 1.376 . S
C1113 C1112 1.392 . S
C1113 H1125 0.929 . S
C1114 C1110 1.531 . S
C1114 H1126 0.960 . S
C1114 H1127 0.962 . S
C1114 H1128 0.960 . S
C1115 C1112 1.511 1_554 S
C1115 H1129 0.961 . S
C1115 H1130 0.961 . S
C1115 H1131 0.961 . S
C1116 C1117 1.370 . S
C1116 C1118 1.363 . S
C1116 H1132 0.931 . S
C1117 C1116 1.370 . S
C1117 C1121 1.408 . S
C1118 C1116 1.363 . S
C1118 C1119 1.370 . S
C1118 C1122 1.524 1_554 S
C1119 C1111 1.503 1_554 S
C1119 C1118 1.370 . S
C1119 C1120 1.403 . S
C1120 C1119 1.403 . S
C1120 C1121 1.404 . S
C1120 C1123 1.539 . S
C1121 C1117 1.408 . S
C1121 C1120 1.404 . S
C1121 H1133 0.930 . S
C1122 C1118 1.524 1_556 S
C1122 H1134 0.956 . S
C1122 H1135 0.961 . S
C1122 H1136 0.961 1_556 S
C1123 C1120 1.539 . S
C1123 H1137 0.958 . S
C1123 H1138 0.961 . S
C1123 H1139 0.960 . S
H1124 C1108 0.931 . S
H1125 C1113 0.929 . S
H1126 C1114 0.960 . S
H1127 C1114 0.962 . S
H1128 C1114 0.960 . S
H1129 C1115 0.961 . S
H1130 C1115 0.961 . S
H1131 C1115 0.961 . S
H1132 C1116 0.931 . S
H1133 C1121 0.930 . S
H1134 C1122 0.956 . S
H1135 C1122 0.961 . S
H1136 C1122 0.961 1_554 S
H1137 C1123 0.958 . S
H1138 C1123 0.961 . S
H1139 C1123 0.960 . S
C1140 C1141 1.391 . S
C1140 C1142 1.394 . S
C1140 H1156 0.931 . S
C1141 C1140 1.391 . S
C1141 C1145 1.376 . S
C1142 C1140 1.394 . S
C1142 C1143 1.369 . S
C1142 C1146 1.531 1_565 S
C1143 C1142 1.369 . S
C1143 C1144 1.410 . S
C1143 C1151 1.503 1_566 S
C1144 C1143 1.410 . S
C1144 C1145 1.392 . S
C1144 C1147 1.511 1_556 S
C1145 C1141 1.376 . S
C1145 C1144 1.392 . S
C1145 H1157 0.929 . S
C1146 C1142 1.531 1_545 S
C1146 H1158 0.960 . S
C1146 H1159 0.962 . S
C1146 H1160 0.960 . S
C1147 C1144 1.511 1_554 S
C1147 H1161 0.961 . S
C1147 H1162 0.961 . S
C1147 H1163 0.961 . S
C1148 C1149 1.370 . S
C1148 C1150 1.363 . S
C1148 H1164 0.931 . S
C1149 C1148 1.370 . S
C1149 C1153 1.408 . S
C1150 C1148 1.363 . S
C1150 C1151 1.370 . S
C1150 C1154 1.524 1_545 S
C1151 C1143 1.503 1_544 S
C1151 C1150 1.370 . S
C1151 C1152 1.403 . S
C1152 C1151 1.403 . S
C1152 C1153 1.404 . S
C1152 C1155 1.539 1_554 S
C1153 C1149 1.408 . S
C1153 C1152 1.404 . S
C1153 H1165 0.930 . S
C1154 C1150 1.524 1_565 S
C1154 H1166 0.956 . S
C1154 H1167 0.961 . S
C1154 H1168 0.961 . S
C1155 C1152 1.539 1_556 S
C1155 H1169 0.958 . S
C1155 H1170 0.961 . S
C1155 H1171 0.960 . S
H1156 C1140 0.931 . S
H1157 C1145 0.929 . S
H1158 C1146 0.960 . S
H1159 C1146 0.962 . S
H1160 C1146 0.960 . S
H1161 C1147 0.961 . S
H1162 C1147 0.961 . S
H1163 C1147 0.961 . S
H1164 C1148 0.931 . S
H1165 C1153 0.930 . S
H1166 C1154 0.956 . S
H1167 C1154 0.961 . S
H1168 C1154 0.961 . S
H1169 C1155 0.958 . S
H1170 C1155 0.961 . S
H1171 C1155 0.960 . S
C1172 C1173 1.391 . S
C1172 C1174 1.394 . S
C1172 H1188 0.931 . S
C1173 C1172 1.391 . S
C1173 C1177 1.376 . S
C1174 C1172 1.394 . S
C1174 C1175 1.369 . S
C1174 C1178 1.531 1_556 S
C1175 C1174 1.369 . S
C1175 C1176 1.410 . S
C1175 C1183 1.503 1_456 S
C1176 C1175 1.410 . S
C1176 C1177 1.392 . S
C1176 C1179 1.511 1_455 S
C1177 C1173 1.376 . S
C1177 C1176 1.392 . S
C1177 H1189 0.929 . S
C1178 C1174 1.531 1_554 S
C1178 H1190 0.960 . S
C1178 H1191 0.962 . S
C1178 H1192 0.960 . S
C1179 C1176 1.511 1_655 S
C1179 H1193 0.961 . S
C1179 H1194 0.961 . S
C1179 H1195 0.961 . S
C1180 C1181 1.370 . S
C1180 C1182 1.363 . S
C1180 H1196 0.931 . S
C1181 C1180 1.370 . S
C1181 C1185 1.408 . S
C1182 C1180 1.363 . S
C1182 C1183 1.370 . S
C1182 C1186 1.524 1_554 S
C1183 C1175 1.503 1_654 S
C1183 C1182 1.370 . S
C1183 C1184 1.403 . S
C1184 C1183 1.403 . S
C1184 C1185 1.404 . S
C1184 C1187 1.539 1_655 S
C1185 C1181 1.408 . S
C1185 C1184 1.404 . S
C1185 H1197 0.930 . S
C1186 C1182 1.524 1_556 S
C1186 H1198 0.956 . S
C1186 H1199 0.961 . S
C1186 H1200 0.961 . S
C1187 C1184 1.539 1_455 S
C1187 H1201 0.958 . S
C1187 H1202 0.961 . S
C1187 H1203 0.960 . S
H1188 C1172 0.931 . S
H1189 C1177 0.929 . S
H1190 C1178 0.960 . S
H1191 C1178 0.962 . S
H1192 C1178 0.960 . S
H1193 C1179 0.961 . S
H1194 C1179 0.961 . S
H1195 C1179 0.961 . S
H1196 C1180 0.931 . S
H1197 C1185 0.930 . S
H1198 C1186 0.956 . S
H1199 C1186 0.961 . S
H1200 C1186 0.961 . S
H1201 C1187 0.958 . S
H1202 C1187 0.961 . S
H1203 C1187 0.960 . S
C1204 C1205 1.391 . S
C1204 C1206 1.394 . S
C1204 H1220 0.931 . S
C1205 C1204 1.391 . S
C1205 C1209 1.376 . S
C1206 C1204 1.394 . S
C1206 C1207 1.369 . S
C1206 C1210 1.531 . S
C1207 C1206 1.369 . S
C1207 C1208 1.410 . S
C1207 C1215 1.503 1_554 S
C1208 C1207 1.410 . S
C1208 C1209 1.392 . S
C1208 C1211 1.511 1_554 S
C1209 C1205 1.376 . S
C1209 C1208 1.392 . S
C1209 H1221 0.929 . S
C1210 C1206 1.531 . S
C1210 H1222 0.960 . S
C1210 H1223 0.962 . S
C1210 H1224 0.960 . S
C1211 C1208 1.511 1_556 S
C1211 H1225 0.961 . S
C1211 H1226 0.961 . S
C1211 H1227 0.961 . S
C1212 C1213 1.370 . S
C1212 C1214 1.363 . S
C1212 H1228 0.931 . S
C1213 C1212 1.370 . S
C1213 C1217 1.408 . S
C1214 C1212 1.363 . S
C1214 C1215 1.370 . S
C1214 C1218 1.524 . S
C1215 C1207 1.503 1_556 S
C1215 C1214 1.370 . S
C1215 C1216 1.403 . S
C1216 C1215 1.403 . S
C1216 C1217 1.404 . S
C1216 C1219 1.539 1_556 S
C1217 C1213 1.408 . S
C1217 C1216 1.404 . S
C1217 H1229 0.930 . S
C1218 C1214 1.524 . S
C1218 H1230 0.956 . S
C1218 H1231 0.961 . S
C1218 H1232 0.961 . S
C1219 C1216 1.539 1_554 S
C1219 H1233 0.958 . S
C1219 H1234 0.961 1_554 S
C1219 H1235 0.960 . S
H1220 C1204 0.931 . S
H1221 C1209 0.929 . S
H1222 C1210 0.960 . S
H1223 C1210 0.962 . S
H1224 C1210 0.960 . S
H1225 C1211 0.961 . S
H1226 C1211 0.961 . S
H1227 C1211 0.961 . S
H1228 C1212 0.931 . S
H1229 C1217 0.930 . S
H1230 C1218 0.956 . S
H1231 C1218 0.961 . S
H1232 C1218 0.961 . S
H1233 C1219 0.958 . S
H1234 C1219 0.961 1_556 S
H1235 C1219 0.960 . S
C1236 C1237 1.391 . S
C1236 C1238 1.394 . S
C1236 H1252 0.931 . S
C1237 C1236 1.391 . S
C1237 C1241 1.376 . S
C1238 C1236 1.394 . S
C1238 C1239 1.369 . S
C1238 C1242 1.531 . S
C1239 C1238 1.369 . S
C1239 C1240 1.410 . S
C1239 C1247 1.503 . S
C1240 C1239 1.410 . S
C1240 C1241 1.392 . S
C1240 C1243 1.511 . S
C1241 C1237 1.376 . S
C1241 C1240 1.392 . S
C1241 H1253 0.929 . S
C1242 C1238 1.531 . S
C1242 H1254 0.960 . S
C1242 H1255 0.962 . S
C1242 H1256 0.960 . S
C1243 C1240 1.511 . S
C1243 H1257 0.961 . S
C1243 H1258 0.961 . S
C1243 H1259 0.961 . S
C1244 C1245 1.370 . S
C1244 C1246 1.363 . S
C1244 H1260 0.931 . S
C1245 C1244 1.370 . S
C1245 C1249 1.408 . S
C1246 C1244 1.363 . S
C1246 C1247 1.370 . S
C1246 C1250 1.524 . S
C1247 C1239 1.503 . S
C1247 C1246 1.370 . S
C1247 C1248 1.403 . S
C1248 C1247 1.403 . S
C1248 C1249 1.404 . S
C1248 C1251 1.539 . S
C1249 C1245 1.408 . S
C1249 C1248 1.404 . S
C1249 H1261 0.930 . S
C1250 C1246 1.524 . S
C1250 H1262 0.956 . S
C1250 H1263 0.961 . S
C1250 H1264 0.961 . S
C1251 C1248 1.539 . S
C1251 H1265 0.958 . S
C1251 H1266 0.961 . S
C1251 H1267 0.960 . S
H1252 C1236 0.931 . S
H1253 C1241 0.929 . S
H1254 C1242 0.960 . S
H1255 C1242 0.962 . S
H1256 C1242 0.960 . S
H1257 C1243 0.961 . S
H1258 C1243 0.961 . S
H1259 C1243 0.961 . S
H1260 C1244 0.931 . S
H1261 C1249 0.930 . S
H1262 C1250 0.956 . S
H1263 C1250 0.961 . S
H1264 C1250 0.961 . S
H1265 C1251 0.958 . S
H1266 C1251 0.961 . S
H1267 C1251 0.960 . S
C1268 C1269 1.391 . S
C1268 C1270 1.394 . S
C1268 H1284 0.931 . S
C1269 C1268 1.391 . S
C1269 C1273 1.376 . S
C1270 C1268 1.394 . S
C1270 C1271 1.369 . S
C1270 C1274 1.531 . S
C1271 C1270 1.369 . S
C1271 C1272 1.410 . S
C1271 C1279 1.503 . S
C1272 C1271 1.410 . S
C1272 C1273 1.392 . S
C1272 C1275 1.511 . S
C1273 C1269 1.376 . S
C1273 C1272 1.392 . S
C1273 H1285 0.929 . S
C1274 C1270 1.531 . S
C1274 H1286 0.960 . S
C1274 H1287 0.962 . S
C1274 H1288 0.960 . S
C1275 C1272 1.511 . S
C1275 H1289 0.961 . S
C1275 H1290 0.961 . S
C1275 H1291 0.961 . S
C1276 C1277 1.370 . S
C1276 C1278 1.363 . S
C1276 H1292 0.931 . S
C1277 C1276 1.370 . S
C1277 C1281 1.408 . S
C1278 C1276 1.363 . S
C1278 C1279 1.370 . S
C1278 C1282 1.524 . S
C1279 C1271 1.503 . S
C1279 C1278 1.370 . S
C1279 C1280 1.403 . S
C1280 C1279 1.403 . S
C1280 C1281 1.404 . S
C1280 C1283 1.539 . S
C1281 C1277 1.408 . S
C1281 C1280 1.404 . S
C1281 H1293 0.930 . S
C1282 C1278 1.524 . S
C1282 H1294 0.956 . S
C1282 H1295 0.961 . S
C1282 H1296 0.961 . S
C1283 C1280 1.539 . S
C1283 H1297 0.958 . S
C1283 H1298 0.961 . S
C1283 H1299 0.960 . S
H1284 C1268 0.931 . S
H1285 C1273 0.929 . S
H1286 C1274 0.960 . S
H1287 C1274 0.962 . S
H1288 C1274 0.960 . S
H1289 C1275 0.961 . S
H1290 C1275 0.961 . S
H1291 C1275 0.961 . S
H1292 C1276 0.931 . S
H1293 C1281 0.930 . S
H1294 C1282 0.956 . S
H1295 C1282 0.961 . S
H1296 C1282 0.961 . S
H1297 C1283 0.958 . S
H1298 C1283 0.961 . S
H1299 C1283 0.960 . S
C1300 C1301 1.391 . S
C1300 C1302 1.394 . S
C1300 H1316 0.931 . S
C1301 C1300 1.391 . S
C1301 C1305 1.376 . S
C1302 C1300 1.394 . S
C1302 C1303 1.369 . S
C1302 C1306 1.531 . S
C1303 C1302 1.369 . S
C1303 C1304 1.410 . S
C1303 C1311 1.503 . S
C1304 C1303 1.410 . S
C1304 C1305 1.392 . S
C1304 C1307 1.511 . S
C1305 C1301 1.376 . S
C1305 C1304 1.392 . S
C1305 H1317 0.929 . S
C1306 C1302 1.531 . S
C1306 H1318 0.960 . S
C1306 H1319 0.962 . S
C1306 H1320 0.960 . S
C1307 C1304 1.511 . S
C1307 H1321 0.961 . S
C1307 H1322 0.961 . S
C1307 H1323 0.961 . S
C1308 C1309 1.370 . S
C1308 C1310 1.363 . S
C1308 H1324 0.931 . S
C1309 C1308 1.370 . S
C1309 C1313 1.408 . S
C1310 C1308 1.363 . S
C1310 C1311 1.370 . S
C1310 C1314 1.524 . S
C1311 C1303 1.503 . S
C1311 C1310 1.370 . S
C1311 C1312 1.403 . S
C1312 C1311 1.403 . S
C1312 C1313 1.404 . S
C1312 C1315 1.539 . S
C1313 C1309 1.408 . S
C1313 C1312 1.404 . S
C1313 H1325 0.930 . S
C1314 C1310 1.524 . S
C1314 H1326 0.956 . S
C1314 H1327 0.961 . S
C1314 H1328 0.961 . S
C1315 C1312 1.539 . S
C1315 H1329 0.958 . S
C1315 H1330 0.961 . S
C1315 H1331 0.960 . S
H1316 C1300 0.931 . S
H1317 C1305 0.929 . S
H1318 C1306 0.960 . S
H1319 C1306 0.962 . S
H1320 C1306 0.960 . S
H1321 C1307 0.961 . S
H1322 C1307 0.961 . S
H1323 C1307 0.961 . S
H1324 C1308 0.931 . S
H1325 C1313 0.930 . S
H1326 C1314 0.956 . S
H1327 C1314 0.961 . S
H1328 C1314 0.961 . S
H1329 C1315 0.958 . S
H1330 C1315 0.961 . S
H1331 C1315 0.960 . S
C1332 C1333 1.391 . S
C1332 C1334 1.394 . S
C1332 H1348 0.931 . S
C1333 C1332 1.391 . S
C1333 C1337 1.376 . S
C1334 C1332 1.394 . S
C1334 C1335 1.369 . S
C1334 C1338 1.531 . S
C1335 C1334 1.369 . S
C1335 C1336 1.410 . S
C1335 C1343 1.503 . S
C1336 C1335 1.410 . S
C1336 C1337 1.392 . S
C1336 C1339 1.511 . S
C1337 C1333 1.376 . S
C1337 C1336 1.392 . S
C1337 H1349 0.929 . S
C1338 C1334 1.531 . S
C1338 H1350 0.960 . S
C1338 H1351 0.962 . S
C1338 H1352 0.960 . S
C1339 C1336 1.511 . S
C1339 H1353 0.961 . S
C1339 H1354 0.961 . S
C1339 H1355 0.961 . S
C1340 C1341 1.370 . S
C1340 C1342 1.363 . S
C1340 H1356 0.931 . S
C1341 C1340 1.370 . S
C1341 C1345 1.408 . S
C1342 C1340 1.363 . S
C1342 C1343 1.370 . S
C1342 C1346 1.524 . S
C1343 C1335 1.503 . S
C1343 C1342 1.370 . S
C1343 C1344 1.403 . S
C1344 C1343 1.403 . S
C1344 C1345 1.404 . S
C1344 C1347 1.539 . S
C1345 C1341 1.408 . S
C1345 C1344 1.404 . S
C1345 H1357 0.930 . S
C1346 C1342 1.524 . S
C1346 H1358 0.956 . S
C1346 H1359 0.961 . S
C1346 H1360 0.961 . S
C1347 C1344 1.539 . S
C1347 H1361 0.958 . S
C1347 H1362 0.961 . S
C1347 H1363 0.960 . S
H1348 C1332 0.931 . S
H1349 C1337 0.929 . S
H1350 C1338 0.960 . S
H1351 C1338 0.962 . S
H1352 C1338 0.960 . S
H1353 C1339 0.961 . S
H1354 C1339 0.961 . S
H1355 C1339 0.961 . S
H1356 C1340 0.931 . S
H1357 C1345 0.930 . S
H1358 C1346 0.956 . S
H1359 C1346 0.961 . S
H1360 C1346 0.961 . S
H1361 C1347 0.958 . S
H1362 C1347 0.961 . S
H1363 C1347 0.960 . S
C1364 C1365 1.391 . S
C1364 C1366 1.394 . S
C1364 H1380 0.931 . S
C1365 C1364 1.391 . S
C1365 C1369 1.376 . S
C1366 C1364 1.394 . S
C1366 C1367 1.369 . S
C1366 C1370 1.531 . S
C1367 C1366 1.369 . S
C1367 C1368 1.410 . S
C1367 C1375 1.503 . S
C1368 C1367 1.410 . S
C1368 C1369 1.392 . S
C1368 C1371 1.511 . S
C1369 C1365 1.376 . S
C1369 C1368 1.392 . S
C1369 H1381 0.929 . S
C1370 C1366 1.531 . S
C1370 H1382 0.960 . S
C1370 H1383 0.962 . S
C1370 H1384 0.960 . S
C1371 C1368 1.511 . S
C1371 H1385 0.961 . S
C1371 H1386 0.961 . S
C1371 H1387 0.961 . S
C1372 C1373 1.370 . S
C1372 C1374 1.363 . S
C1372 H1388 0.931 . S
C1373 C1372 1.370 . S
C1373 C1377 1.408 . S
C1374 C1372 1.363 . S
C1374 C1375 1.370 . S
C1374 C1378 1.524 . S
C1375 C1367 1.503 . S
C1375 C1374 1.370 . S
C1375 C1376 1.403 . S
C1376 C1375 1.403 . S
C1376 C1377 1.404 . S
C1376 C1379 1.539 . S
C1377 C1373 1.408 . S
C1377 C1376 1.404 . S
C1377 H1389 0.930 . S
C1378 C1374 1.524 . S
C1378 H1390 0.956 . S
C1378 H1391 0.961 . S
C1378 H1392 0.961 . S
C1379 C1376 1.539 . S
C1379 H1393 0.958 . S
C1379 H1394 0.961 . S
C1379 H1395 0.960 . S
H1380 C1364 0.931 . S
H1381 C1369 0.929 . S
H1382 C1370 0.960 . S
H1383 C1370 0.962 . S
H1384 C1370 0.960 . S
H1385 C1371 0.961 . S
H1386 C1371 0.961 . S
H1387 C1371 0.961 . S
H1388 C1372 0.931 . S
H1389 C1377 0.930 . S
H1390 C1378 0.956 . S
H1391 C1378 0.961 . S
H1392 C1378 0.961 . S
H1393 C1379 0.958 . S
H1394 C1379 0.961 . S
H1395 C1379 0.960 . S
C1396 C1397 1.391 . S
C1396 C1398 1.394 . S
C1396 H1412 0.931 . S
C1397 C1396 1.391 . S
C1397 C1401 1.376 . S
C1398 C1396 1.394 . S
C1398 C1399 1.369 . S
C1398 C1402 1.531 . S
C1399 C1398 1.369 . S
C1399 C1400 1.410 . S
C1399 C1407 1.503 . S
C1400 C1399 1.410 . S
C1400 C1401 1.392 . S
C1400 C1403 1.511 . S
C1401 C1397 1.376 . S
C1401 C1400 1.392 . S
C1401 H1413 0.929 . S
C1402 C1398 1.531 . S
C1402 H1414 0.960 . S
C1402 H1415 0.962 . S
C1402 H1416 0.960 . S
C1403 C1400 1.511 . S
C1403 H1417 0.961 . S
C1403 H1418 0.961 . S
C1403 H1419 0.961 . S
C1404 C1405 1.370 . S
C1404 C1406 1.363 . S
C1404 H1420 0.931 . S
C1405 C1404 1.370 . S
C1405 C1409 1.408 . S
C1406 C1404 1.363 . S
C1406 C1407 1.370 . S
C1406 C1410 1.524 . S
C1407 C1399 1.503 . S
C1407 C1406 1.370 . S
C1407 C1408 1.403 . S
C1408 C1407 1.403 . S
C1408 C1409 1.404 . S
C1408 C1411 1.539 . S
C1409 C1405 1.408 . S
C1409 C1408 1.404 . S
C1409 H1421 0.930 . S
C1410 C1406 1.524 . S
C1410 H1422 0.956 . S
C1410 H1423 0.961 . S
C1410 H1424 0.961 . S
C1411 C1408 1.539 . S
C1411 H1425 0.958 . S
C1411 H1426 0.961 . S
C1411 H1427 0.960 . S
H1412 C1396 0.931 . S
H1413 C1401 0.929 . S
H1414 C1402 0.960 . S
H1415 C1402 0.962 . S
H1416 C1402 0.960 . S
H1417 C1403 0.961 . S
H1418 C1403 0.961 . S
H1419 C1403 0.961 . S
H1420 C1404 0.931 . S
H1421 C1409 0.930 . S
H1422 C1410 0.956 . S
H1423 C1410 0.961 . S
H1424 C1410 0.961 . S
H1425 C1411 0.958 . S
H1426 C1411 0.961 . S
H1427 C1411 0.960 . S
C1428 C1429 1.391 . S
C1428 C1430 1.394 . S
C1428 H1444 0.931 . S
C1429 C1428 1.391 . S
C1429 C1433 1.376 . S
C1430 C1428 1.394 . S
C1430 C1431 1.369 . S
C1430 C1434 1.531 . S
C1431 C1430 1.369 . S
C1431 C1432 1.410 . S
C1431 C1439 1.503 . S
C1432 C1431 1.410 . S
C1432 C1433 1.392 . S
C1432 C1435 1.511 . S
C1433 C1429 1.376 . S
C1433 C1432 1.392 . S
C1433 H1445 0.929 . S
C1434 C1430 1.531 . S
C1434 H1446 0.960 . S
C1434 H1447 0.962 . S
C1434 H1448 0.960 . S
C1435 C1432 1.511 . S
C1435 H1449 0.961 . S
C1435 H1450 0.961 . S
C1435 H1451 0.961 . S
C1436 C1437 1.370 . S
C1436 C1438 1.363 . S
C1436 H1452 0.931 . S
C1437 C1436 1.370 . S
C1437 C1441 1.408 . S
C1438 C1436 1.363 . S
C1438 C1439 1.370 . S
C1438 C1442 1.524 . S
C1439 C1431 1.503 . S
C1439 C1438 1.370 . S
C1439 C1440 1.403 . S
C1440 C1439 1.403 . S
C1440 C1441 1.404 . S
C1440 C1443 1.539 . S
C1441 C1437 1.408 . S
C1441 C1440 1.404 . S
C1441 H1453 0.930 . S
C1442 C1438 1.524 . S
C1442 H1454 0.956 . S
C1442 H1455 0.961 . S
C1442 H1456 0.961 . S
C1443 C1440 1.539 . S
C1443 H1457 0.958 . S
C1443 H1458 0.961 . S
C1443 H1459 0.960 . S
H1444 C1428 0.931 . S
H1445 C1433 0.929 . S
H1446 C1434 0.960 . S
H1447 C1434 0.962 . S
H1448 C1434 0.960 . S
H1449 C1435 0.961 . S
H1450 C1435 0.961 . S
H1451 C1435 0.961 . S
H1452 C1436 0.931 . S
H1453 C1441 0.930 . S
H1454 C1442 0.956 . S
H1455 C1442 0.961 . S
H1456 C1442 0.961 . S
H1457 C1443 0.958 . S
H1458 C1443 0.961 . S
H1459 C1443 0.960 . S
C1460 C1461 1.391 . S
C1460 C1462 1.394 . S
C1460 H1476 0.931 . S
C1461 C1460 1.391 . S
C1461 C1465 1.376 . S
C1462 C1460 1.394 . S
C1462 C1463 1.369 . S
C1462 C1466 1.531 . S
C1463 C1462 1.369 . S
C1463 C1464 1.410 . S
C1463 C1471 1.503 . S
C1464 C1463 1.410 . S
C1464 C1465 1.392 . S
C1464 C1467 1.511 . S
C1465 C1461 1.376 . S
C1465 C1464 1.392 . S
C1465 H1477 0.929 . S
C1466 C1462 1.531 . S
C1466 H1478 0.960 . S
C1466 H1479 0.962 . S
C1466 H1480 0.960 . S
C1467 C1464 1.511 . S
C1467 H1481 0.961 . S
C1467 H1482 0.961 . S
C1467 H1483 0.961 . S
C1468 C1469 1.370 . S
C1468 C1470 1.363 . S
C1468 H1484 0.931 . S
C1469 C1468 1.370 . S
C1469 C1473 1.408 . S
C1470 C1468 1.363 . S
C1470 C1471 1.370 . S
C1470 C1474 1.524 . S
C1471 C1463 1.503 . S
C1471 C1470 1.370 . S
C1471 C1472 1.403 . S
C1472 C1471 1.403 . S
C1472 C1473 1.404 . S
C1472 C1475 1.539 . S
C1473 C1469 1.408 . S
C1473 C1472 1.404 . S
C1473 H1485 0.930 . S
C1474 C1470 1.524 . S
C1474 H1486 0.956 . S
C1474 H1487 0.961 . S
C1474 H1488 0.961 . S
C1475 C1472 1.539 . S
C1475 H1489 0.958 . S
C1475 H1490 0.961 . S
C1475 H1491 0.960 . S
H1476 C1460 0.931 . S
H1477 C1465 0.929 . S
H1478 C1466 0.960 . S
H1479 C1466 0.962 . S
H1480 C1466 0.960 . S
H1481 C1467 0.961 . S
H1482 C1467 0.961 . S
H1483 C1467 0.961 . S
H1484 C1468 0.931 . S
H1485 C1473 0.930 . S
H1486 C1474 0.956 . S
H1487 C1474 0.961 . S
H1488 C1474 0.961 . S
H1489 C1475 0.958 . S
H1490 C1475 0.961 . S
H1491 C1475 0.960 . S
C1492 C1493 1.391 . S
C1492 C1494 1.394 . S
C1492 H1508 0.931 . S
C1493 C1492 1.391 . S
C1493 C1497 1.376 . S
C1494 C1492 1.394 . S
C1494 C1495 1.369 . S
C1494 C1498 1.531 . S
C1495 C1494 1.369 . S
C1495 C1496 1.410 . S
C1495 C1503 1.503 . S
C1496 C1495 1.410 . S
C1496 C1497 1.392 . S
C1496 C1499 1.511 . S
C1497 C1493 1.376 . S
C1497 C1496 1.392 . S
C1497 H1509 0.929 . S
C1498 C1494 1.531 . S
C1498 H1510 0.960 . S
C1498 H1511 0.962 . S
C1498 H1512 0.960 . S
C1499 C1496 1.511 . S
C1499 H1513 0.961 . S
C1499 H1514 0.961 . S
C1499 H1515 0.961 . S
C1500 C1501 1.370 . S
C1500 C1502 1.363 . S
C1500 H1516 0.931 . S
C1501 C1500 1.370 . S
C1501 C1505 1.408 . S
C1502 C1500 1.363 . S
C1502 C1503 1.370 . S
C1502 C1506 1.524 . S
C1503 C1495 1.503 . S
C1503 C1502 1.370 . S
C1503 C1504 1.403 . S
C1504 C1503 1.403 . S
C1504 C1505 1.404 . S
C1504 C1507 1.539 . S
C1505 C1501 1.408 . S
C1505 C1504 1.404 . S
C1505 H1517 0.930 . S
C1506 C1502 1.524 . S
C1506 H1518 0.956 . S
C1506 H1519 0.961 . S
C1506 H1520 0.961 . S
C1507 C1504 1.539 . S
C1507 H1521 0.958 . S
C1507 H1522 0.961 . S
C1507 H1523 0.960 . S
H1508 C1492 0.931 . S
H1509 C1497 0.929 . S
H1510 C1498 0.960 . S
H1511 C1498 0.962 . S
H1512 C1498 0.960 . S
H1513 C1499 0.961 . S
H1514 C1499 0.961 . S
H1515 C1499 0.961 . S
H1516 C1500 0.931 . S
H1517 C1505 0.930 . S
H1518 C1506 0.956 . S
H1519 C1506 0.961 . S
H1520 C1506 0.961 . S
H1521 C1507 0.958 . S
H1522 C1507 0.961 . S
H1523 C1507 0.960 . S
C1524 C1525 1.391 . S
C1524 C1526 1.394 . S
C1524 H1540 0.931 . S
C1525 C1524 1.391 . S
C1525 C1529 1.376 . S
C1526 C1524 1.394 . S
C1526 C1527 1.369 . S
C1526 C1530 1.531 . S
C1527 C1526 1.369 . S
C1527 C1528 1.410 . S
C1527 C1535 1.503 . S
C1528 C1527 1.410 . S
C1528 C1529 1.392 . S
C1528 C1531 1.511 . S
C1529 C1525 1.376 . S
C1529 C1528 1.392 . S
C1529 H1541 0.929 . S
C1530 C1526 1.531 . S
C1530 H1542 0.960 . S
C1530 H1543 0.962 . S
C1530 H1544 0.960 . S
C1531 C1528 1.511 . S
C1531 H1545 0.961 . S
C1531 H1546 0.961 . S
C1531 H1547 0.961 . S
C1532 C1533 1.370 . S
C1532 C1534 1.363 . S
C1532 H1548 0.931 . S
C1533 C1532 1.370 . S
C1533 C1537 1.408 . S
C1534 C1532 1.363 . S
C1534 C1535 1.370 . S
C1534 C1538 1.524 . S
C1535 C1527 1.503 . S
C1535 C1534 1.370 . S
C1535 C1536 1.403 . S
C1536 C1535 1.403 . S
C1536 C1537 1.404 . S
C1536 C1539 1.539 . S
C1537 C1533 1.408 . S
C1537 C1536 1.404 . S
C1537 H1549 0.930 . S
C1538 C1534 1.524 . S
C1538 H1550 0.956 . S
C1538 H1551 0.961 . S
C1538 H1552 0.961 . S
C1539 C1536 1.539 . S
C1539 H1553 0.958 . S
C1539 H1554 0.961 . S
C1539 H1555 0.960 . S
H1540 C1524 0.931 . S
H1541 C1529 0.929 . S
H1542 C1530 0.960 . S
H1543 C1530 0.962 . S
H1544 C1530 0.960 . S
H1545 C1531 0.961 . S
H1546 C1531 0.961 . S
H1547 C1531 0.961 . S
H1548 C1532 0.931 . S
H1549 C1537 0.930 . S
H1550 C1538 0.956 . S
H1551 C1538 0.961 . S
H1552 C1538 0.961 . S
H1553 C1539 0.958 . S
H1554 C1539 0.961 . S
H1555 C1539 0.960 . S
C1556 C1557 1.391 . S
C1556 C1558 1.394 . S
C1556 H1572 0.931 . S
C1557 C1556 1.391 . S
C1557 C1561 1.376 . S
C1558 C1556 1.394 . S
C1558 C1559 1.369 . S
C1558 C1562 1.531 . S
C1559 C1558 1.369 . S
C1559 C1560 1.410 . S
C1559 C1567 1.503 . S
C1560 C1559 1.410 . S
C1560 C1561 1.392 . S
C1560 C1563 1.511 . S
C1561 C1557 1.376 . S
C1561 C1560 1.392 . S
C1561 H1573 0.929 . S
C1562 C1558 1.531 . S
C1562 H1574 0.960 . S
C1562 H1575 0.962 . S
C1562 H1576 0.960 . S
C1563 C1560 1.511 . S
C1563 H1577 0.961 . S
C1563 H1578 0.961 . S
C1563 H1579 0.961 . S
C1564 C1565 1.370 . S
C1564 C1566 1.363 . S
C1564 H1580 0.931 . S
C1565 C1564 1.370 . S
C1565 C1569 1.408 . S
C1566 C1564 1.363 . S
C1566 C1567 1.370 . S
C1566 C1570 1.524 . S
C1567 C1559 1.503 . S
C1567 C1566 1.370 . S
C1567 C1568 1.403 . S
C1568 C1567 1.403 . S
C1568 C1569 1.404 . S
C1568 C1571 1.539 . S
C1569 C1565 1.408 . S
C1569 C1568 1.404 . S
C1569 H1581 0.930 . S
C1570 C1566 1.524 . S
C1570 H1582 0.956 . S
C1570 H1583 0.961 . S
C1570 H1584 0.961 . S
C1571 C1568 1.539 . S
C1571 H1585 0.958 . S
C1571 H1586 0.961 . S
C1571 H1587 0.960 . S
H1572 C1556 0.931 . S
H1573 C1561 0.929 . S
H1574 C1562 0.960 . S
H1575 C1562 0.962 . S
H1576 C1562 0.960 . S
H1577 C1563 0.961 . S
H1578 C1563 0.961 . S
H1579 C1563 0.961 . S
H1580 C1564 0.931 . S
H1581 C1569 0.930 . S
H1582 C1570 0.956 . S
H1583 C1570 0.961 . S
H1584 C1570 0.961 . S
H1585 C1571 0.958 . S
H1586 C1571 0.961 . S
H1587 C1571 0.960 . S
C1588 C1589 1.391 . S
C1588 C1590 1.394 . S
C1588 H1604 0.931 . S
C1589 C1588 1.391 . S
C1589 C1593 1.376 . S
C1590 C1588 1.394 . S
C1590 C1591 1.369 . S
C1590 C1594 1.531 . S
C1591 C1590 1.369 . S
C1591 C1592 1.410 . S
C1591 C1599 1.503 . S
C1592 C1591 1.410 . S
C1592 C1593 1.392 . S
C1592 C1595 1.511 . S
C1593 C1589 1.376 . S
C1593 C1592 1.392 . S
C1593 H1605 0.929 . S
C1594 C1590 1.531 . S
C1594 H1606 0.960 . S
C1594 H1607 0.962 . S
C1594 H1608 0.960 . S
C1595 C1592 1.511 . S
C1595 H1609 0.961 . S
C1595 H1610 0.961 . S
C1595 H1611 0.961 . S
C1596 C1597 1.370 . S
C1596 C1598 1.363 . S
C1596 H1612 0.931 . S
C1597 C1596 1.370 . S
C1597 C1601 1.408 . S
C1598 C1596 1.363 . S
C1598 C1599 1.370 . S
C1598 C1602 1.524 . S
C1599 C1591 1.503 . S
C1599 C1598 1.370 . S
C1599 C1600 1.403 . S
C1600 C1599 1.403 . S
C1600 C1601 1.404 . S
C1600 C1603 1.539 . S
C1601 C1597 1.408 . S
C1601 C1600 1.404 . S
C1601 H1613 0.930 . S
C1602 C1598 1.524 . S
C1602 H1614 0.956 . S
C1602 H1615 0.961 . S
C1602 H1616 0.961 . S
C1603 C1600 1.539 . S
C1603 H1617 0.958 . S
C1603 H1618 0.961 . S
C1603 H1619 0.960 . S
H1604 C1588 0.931 . S
H1605 C1593 0.929 . S
H1606 C1594 0.960 . S
H1607 C1594 0.962 . S
H1608 C1594 0.960 . S
H1609 C1595 0.961 . S
H1610 C1595 0.961 . S
H1611 C1595 0.961 . S
H1612 C1596 0.931 . S
H1613 C1601 0.930 . S
H1614 C1602 0.956 . S
H1615 C1602 0.961 . S
H1616 C1602 0.961 . S
H1617 C1603 0.958 . S
H1618 C1603 0.961 . S
H1619 C1603 0.960 . S
C1620 C1621 1.391 . S
C1620 C1622 1.394 . S
C1620 H1636 0.931 . S
C1621 C1620 1.391 . S
C1621 C1625 1.376 . S
C1622 C1620 1.394 . S
C1622 C1623 1.369 . S
C1622 C1626 1.531 . S
C1623 C1622 1.369 . S
C1623 C1624 1.410 . S
C1623 C1631 1.503 . S
C1624 C1623 1.410 . S
C1624 C1625 1.392 . S
C1624 C1627 1.511 . S
C1625 C1621 1.376 . S
C1625 C1624 1.392 . S
C1625 H1637 0.929 . S
C1626 C1622 1.531 . S
C1626 H1638 0.960 . S
C1626 H1639 0.962 . S
C1626 H1640 0.960 . S
C1627 C1624 1.511 . S
C1627 H1641 0.961 . S
C1627 H1642 0.961 . S
C1627 H1643 0.961 . S
C1628 C1629 1.370 . S
C1628 C1630 1.363 . S
C1628 H1644 0.931 . S
C1629 C1628 1.370 . S
C1629 C1633 1.408 . S
C1630 C1628 1.363 . S
C1630 C1631 1.370 . S
C1630 C1634 1.524 . S
C1631 C1623 1.503 . S
C1631 C1630 1.370 . S
C1631 C1632 1.403 . S
C1632 C1631 1.403 . S
C1632 C1633 1.404 . S
C1632 C1635 1.539 . S
C1633 C1629 1.408 . S
C1633 C1632 1.404 . S
C1633 H1645 0.930 . S
C1634 C1630 1.524 . S
C1634 H1646 0.956 . S
C1634 H1647 0.961 . S
C1634 H1648 0.961 . S
C1635 C1632 1.539 . S
C1635 H1649 0.958 . S
C1635 H1650 0.961 . S
C1635 H1651 0.960 . S
H1636 C1620 0.931 . S
H1637 C1625 0.929 . S
H1638 C1626 0.960 . S
H1639 C1626 0.962 . S
H1640 C1626 0.960 . S
H1641 C1627 0.961 . S
H1642 C1627 0.961 . S
H1643 C1627 0.961 . S
H1644 C1628 0.931 . S
H1645 C1633 0.930 . S
H1646 C1634 0.956 . S
H1647 C1634 0.961 . S
H1648 C1634 0.961 . S
H1649 C1635 0.958 . S
H1650 C1635 0.961 . S
H1651 C1635 0.960 . S
C1652 C1653 1.391 . S
C1652 C1654 1.394 . S
C1652 H1668 0.931 . S
C1653 C1652 1.391 . S
C1653 C1657 1.376 . S
C1654 C1652 1.394 . S
C1654 C1655 1.369 . S
C1654 C1658 1.531 . S
C1655 C1654 1.369 . S
C1655 C1656 1.410 . S
C1655 C1663 1.503 . S
C1656 C1655 1.410 . S
C1656 C1657 1.392 . S
C1656 C1659 1.511 . S
C1657 C1653 1.376 . S
C1657 C1656 1.392 . S
C1657 H1669 0.929 . S
C1658 C1654 1.531 . S
C1658 H1670 0.960 . S
C1658 H1671 0.962 . S
C1658 H1672 0.960 . S
C1659 C1656 1.511 . S
C1659 H1673 0.961 . S
C1659 H1674 0.961 . S
C1659 H1675 0.961 . S
C1660 C1661 1.370 . S
C1660 C1662 1.363 . S
C1660 H1676 0.931 . S
C1661 C1660 1.370 . S
C1661 C1665 1.408 . S
C1662 C1660 1.363 . S
C1662 C1663 1.370 . S
C1662 C1666 1.524 . S
C1663 C1655 1.503 . S
C1663 C1662 1.370 . S
C1663 C1664 1.403 . S
C1664 C1663 1.403 . S
C1664 C1665 1.404 . S
C1664 C1667 1.539 . S
C1665 C1661 1.408 . S
C1665 C1664 1.404 . S
C1665 H1677 0.930 . S
C1666 C1662 1.524 . S
C1666 H1678 0.956 . S
C1666 H1679 0.961 . S
C1666 H1680 0.961 . S
C1667 C1664 1.539 . S
C1667 H1681 0.958 . S
C1667 H1682 0.961 . S
C1667 H1683 0.960 . S
H1668 C1652 0.931 . S
H1669 C1657 0.929 . S
H1670 C1658 0.960 . S
H1671 C1658 0.962 . S
H1672 C1658 0.960 . S
H1673 C1659 0.961 . S
H1674 C1659 0.961 . S
H1675 C1659 0.961 . S
H1676 C1660 0.931 . S
H1677 C1665 0.930 . S
H1678 C1666 0.956 . S
H1679 C1666 0.961 . S
H1680 C1666 0.961 . S
H1681 C1667 0.958 . S
H1682 C1667 0.961 . S
H1683 C1667 0.960 . S
C1684 C1685 1.391 . S
C1684 C1686 1.394 . S
C1684 H1700 0.931 . S
C1685 C1684 1.391 . S
C1685 C1689 1.376 . S
C1686 C1684 1.394 . S
C1686 C1687 1.369 . S
C1686 C1690 1.531 . S
C1687 C1686 1.369 . S
C1687 C1688 1.410 . S
C1687 C1695 1.503 . S
C1688 C1687 1.410 . S
C1688 C1689 1.392 . S
C1688 C1691 1.511 . S
C1689 C1685 1.376 . S
C1689 C1688 1.392 . S
C1689 H1701 0.929 . S
C1690 C1686 1.531 . S
C1690 H1702 0.960 . S
C1690 H1703 0.962 . S
C1690 H1704 0.960 . S
C1691 C1688 1.511 . S
C1691 H1705 0.961 . S
C1691 H1706 0.961 . S
C1691 H1707 0.961 . S
C1692 C1693 1.370 . S
C1692 C1694 1.363 . S
C1692 H1708 0.931 . S
C1693 C1692 1.370 . S
C1693 C1697 1.408 . S
C1694 C1692 1.363 . S
C1694 C1695 1.370 . S
C1694 C1698 1.524 . S
C1695 C1687 1.503 . S
C1695 C1694 1.370 . S
C1695 C1696 1.403 . S
C1696 C1695 1.403 . S
C1696 C1697 1.404 . S
C1696 C1699 1.539 . S
C1697 C1693 1.408 . S
C1697 C1696 1.404 . S
C1697 H1709 0.930 . S
C1698 C1694 1.524 . S
C1698 H1710 0.956 . S
C1698 H1711 0.961 . S
C1698 H1712 0.961 . S
C1699 C1696 1.539 . S
C1699 H1713 0.958 . S
C1699 H1714 0.961 . S
C1699 H1715 0.960 . S
H1700 C1684 0.931 . S
H1701 C1689 0.929 . S
H1702 C1690 0.960 . S
H1703 C1690 0.962 . S
H1704 C1690 0.960 . S
H1705 C1691 0.961 . S
H1706 C1691 0.961 . S
H1707 C1691 0.961 . S
H1708 C1692 0.931 . S
H1709 C1697 0.930 . S
H1710 C1698 0.956 . S
H1711 C1698 0.961 . S
H1712 C1698 0.961 . S
H1713 C1699 0.958 . S
H1714 C1699 0.961 . S
H1715 C1699 0.960 . S
C1716 C1717 1.391 . S
C1716 C1718 1.394 . S
C1716 H1732 0.931 . S
C1717 C1716 1.391 . S
C1717 C1721 1.376 . S
C1718 C1716 1.394 . S
C1718 C1719 1.369 . S
C1718 C1722 1.531 . S
C1719 C1718 1.369 . S
C1719 C1720 1.410 . S
C1719 C1727 1.503 . S
C1720 C1719 1.410 . S
C1720 C1721 1.392 . S
C1720 C1723 1.511 . S
C1721 C1717 1.376 . S
C1721 C1720 1.392 . S
C1721 H1733 0.929 . S
C1722 C1718 1.531 . S
C1722 H1734 0.960 . S
C1722 H1735 0.962 . S
C1722 H1736 0.960 . S
C1723 C1720 1.511 . S
C1723 H1737 0.961 . S
C1723 H1738 0.961 . S
C1723 H1739 0.961 . S
C1724 C1725 1.370 . S
C1724 C1726 1.363 . S
C1724 H1740 0.931 . S
C1725 C1724 1.370 . S
C1725 C1729 1.408 . S
C1726 C1724 1.363 . S
C1726 C1727 1.370 . S
C1726 C1730 1.524 . S
C1727 C1719 1.503 . S
C1727 C1726 1.370 . S
C1727 C1728 1.403 . S
C1728 C1727 1.403 . S
C1728 C1729 1.404 . S
C1728 C1731 1.539 . S
C1729 C1725 1.408 . S
C1729 C1728 1.404 . S
C1729 H1741 0.930 . S
C1730 C1726 1.524 . S
C1730 H1742 0.956 . S
C1730 H1743 0.961 . S
C1730 H1744 0.961 . S
C1731 C1728 1.539 . S
C1731 H1745 0.958 . S
C1731 H1746 0.961 . S
C1731 H1747 0.960 . S
H1732 C1716 0.931 . S
H1733 C1721 0.929 . S
H1734 C1722 0.960 . S
H1735 C1722 0.962 . S
H1736 C1722 0.960 . S
H1737 C1723 0.961 . S
H1738 C1723 0.961 . S
H1739 C1723 0.961 . S
H1740 C1724 0.931 . S
H1741 C1729 0.930 . S
H1742 C1730 0.956 . S
H1743 C1730 0.961 . S
H1744 C1730 0.961 . S
H1745 C1731 0.958 . S
H1746 C1731 0.961 . S
H1747 C1731 0.960 . S
C1748 C1749 1.391 . S
C1748 C1750 1.394 . S
C1748 H1764 0.931 . S
C1749 C1748 1.391 . S
C1749 C1753 1.376 . S
C1750 C1748 1.394 . S
C1750 C1751 1.369 . S
C1750 C1754 1.531 . S
C1751 C1750 1.369 . S
C1751 C1752 1.410 . S
C1751 C1759 1.503 . S
C1752 C1751 1.410 . S
C1752 C1753 1.392 . S
C1752 C1755 1.511 . S
C1753 C1749 1.376 . S
C1753 C1752 1.392 . S
C1753 H1765 0.929 . S
C1754 C1750 1.531 . S
C1754 H1766 0.960 . S
C1754 H1767 0.962 . S
C1754 H1768 0.960 . S
C1755 C1752 1.511 . S
C1755 H1769 0.961 . S
C1755 H1770 0.961 . S
C1755 H1771 0.961 . S
C1756 C1757 1.370 . S
C1756 C1758 1.363 . S
C1756 H1772 0.931 . S
C1757 C1756 1.370 . S
C1757 C1761 1.408 . S
C1758 C1756 1.363 . S
C1758 C1759 1.370 . S
C1758 C1762 1.524 . S
C1759 C1751 1.503 . S
C1759 C1758 1.370 . S
C1759 C1760 1.403 . S
C1760 C1759 1.403 . S
C1760 C1761 1.404 . S
C1760 C1763 1.539 . S
C1761 C1757 1.408 . S
C1761 C1760 1.404 . S
C1761 H1773 0.930 . S
C1762 C1758 1.524 . S
C1762 H1774 0.956 . S
C1762 H1775 0.961 . S
C1762 H1776 0.961 . S
C1763 C1760 1.539 . S
C1763 H1777 0.958 . S
C1763 H1778 0.961 . S
C1763 H1779 0.960 . S
H1764 C1748 0.931 . S
H1765 C1753 0.929 . S
H1766 C1754 0.960 . S
H1767 C1754 0.962 . S
H1768 C1754 0.960 . S
H1769 C1755 0.961 . S
H1770 C1755 0.961 . S
H1771 C1755 0.961 . S
H1772 C1756 0.931 . S
H1773 C1761 0.930 . S
H1774 C1762 0.956 . S
H1775 C1762 0.961 . S
H1776 C1762 0.961 . S
H1777 C1763 0.958 . S
H1778 C1763 0.961 . S
H1779 C1763 0.960 . S
C1780 C1781 1.391 . S
C1780 C1782 1.394 . S
C1780 H1796 0.931 . S
C1781 C1780 1.391 . S
C1781 C1785 1.376 . S
C1782 C1780 1.394 . S
C1782 C1783 1.369 . S
C1782 C1786 1.531 . S
C1783 C1782 1.369 . S
C1783 C1784 1.410 . S
C1783 C1791 1.503 . S
C1784 C1783 1.410 . S
C1784 C1785 1.392 . S
C1784 C1787 1.511 . S
C1785 C1781 1.376 . S
C1785 C1784 1.392 . S
C1785 H1797 0.929 . S
C1786 C1782 1.531 . S
C1786 H1798 0.960 . S
C1786 H1799 0.962 . S
C1786 H1800 0.960 . S
C1787 C1784 1.511 . S
C1787 H1801 0.961 . S
C1787 H1802 0.961 . S
C1787 H1803 0.961 . S
C1788 C1789 1.370 . S
C1788 C1790 1.363 . S
C1788 H1804 0.931 . S
C1789 C1788 1.370 . S
C1789 C1793 1.408 . S
C1790 C1788 1.363 . S
C1790 C1791 1.370 . S
C1790 C1794 1.524 . S
C1791 C1783 1.503 . S
C1791 C1790 1.370 . S
C1791 C1792 1.403 . S
C1792 C1791 1.403 . S
C1792 C1793 1.404 . S
C1792 C1795 1.539 . S
C1793 C1789 1.408 . S
C1793 C1792 1.404 . S
C1793 H1805 0.930 . S
C1794 C1790 1.524 . S
C1794 H1806 0.956 . S
C1794 H1807 0.961 . S
C1794 H1808 0.961 . S
C1795 C1792 1.539 . S
C1795 H1809 0.958 . S
C1795 H1810 0.961 . S
C1795 H1811 0.960 . S
H1796 C1780 0.931 . S
H1797 C1785 0.929 . S
H1798 C1786 0.960 . S
H1799 C1786 0.962 . S
H1800 C1786 0.960 . S
H1801 C1787 0.961 . S
H1802 C1787 0.961 . S
H1803 C1787 0.961 . S
H1804 C1788 0.931 . S
H1805 C1793 0.930 . S
H1806 C1794 0.956 . S
H1807 C1794 0.961 . S
H1808 C1794 0.961 . S
H1809 C1795 0.958 . S
H1810 C1795 0.961 . S
H1811 C1795 0.960 . S
C1812 C1813 1.391 . S
C1812 C1814 1.394 . S
C1812 H1828 0.931 . S
C1813 C1812 1.391 . S
C1813 C1817 1.376 . S
C1814 C1812 1.394 . S
C1814 C1815 1.369 . S
C1814 C1818 1.531 . S
C1815 C1814 1.369 . S
C1815 C1816 1.410 . S
C1815 C1823 1.503 . S
C1816 C1815 1.410 . S
C1816 C1817 1.392 . S
C1816 C1819 1.511 . S
C1817 C1813 1.376 . S
C1817 C1816 1.392 . S
C1817 H1829 0.929 . S
C1818 C1814 1.531 . S
C1818 H1830 0.960 . S
C1818 H1831 0.962 . S
C1818 H1832 0.960 . S
C1819 C1816 1.511 . S
C1819 H1833 0.961 . S
C1819 H1834 0.961 . S
C1819 H1835 0.961 . S
C1820 C1821 1.370 . S
C1820 C1822 1.363 . S
C1820 H1836 0.931 . S
C1821 C1820 1.370 . S
C1821 C1825 1.408 . S
C1822 C1820 1.363 . S
C1822 C1823 1.370 . S
C1822 C1826 1.524 . S
C1823 C1815 1.503 . S
C1823 C1822 1.370 . S
C1823 C1824 1.403 . S
C1824 C1823 1.403 . S
C1824 C1825 1.404 . S
C1824 C1827 1.539 . S
C1825 C1821 1.408 . S
C1825 C1824 1.404 . S
C1825 H1837 0.930 . S
C1826 C1822 1.524 . S
C1826 H1838 0.956 . S
C1826 H1839 0.961 . S
C1826 H1840 0.961 . S
C1827 C1824 1.539 . S
C1827 H1841 0.958 . S
C1827 H1842 0.961 . S
C1827 H1843 0.960 . S
H1828 C1812 0.931 . S
H1829 C1817 0.929 . S
H1830 C1818 0.960 . S
H1831 C1818 0.962 . S
H1832 C1818 0.960 . S
H1833 C1819 0.961 . S
H1834 C1819 0.961 . S
H1835 C1819 0.961 . S
H1836 C1820 0.931 . S
H1837 C1825 0.930 . S
H1838 C1826 0.956 . S
H1839 C1826 0.961 . S
H1840 C1826 0.961 . S
H1841 C1827 0.958 . S
H1842 C1827 0.961 . S
H1843 C1827 0.960 . S
C1844 C1845 1.391 . S
C1844 C1846 1.394 . S
C1844 H1860 0.931 . S
C1845 C1844 1.391 . S
C1845 C1849 1.376 . S
C1846 C1844 1.394 . S
C1846 C1847 1.369 . S
C1846 C1850 1.531 . S
C1847 C1846 1.369 . S
C1847 C1848 1.410 . S
C1847 C1855 1.503 . S
C1848 C1847 1.410 . S
C1848 C1849 1.392 . S
C1848 C1851 1.511 . S
C1849 C1845 1.376 . S
C1849 C1848 1.392 . S
C1849 H1861 0.929 . S
C1850 C1846 1.531 . S
C1850 H1862 0.960 . S
C1850 H1863 0.962 . S
C1850 H1864 0.960 . S
C1851 C1848 1.511 . S
C1851 H1865 0.961 . S
C1851 H1866 0.961 . S
C1851 H1867 0.961 . S
C1852 C1853 1.370 . S
C1852 C1854 1.363 . S
C1852 H1868 0.931 . S
C1853 C1852 1.370 . S
C1853 C1857 1.408 . S
C1854 C1852 1.363 . S
C1854 C1855 1.370 . S
C1854 C1858 1.524 . S
C1855 C1847 1.503 . S
C1855 C1854 1.370 . S
C1855 C1856 1.403 . S
C1856 C1855 1.403 . S
C1856 C1857 1.404 . S
C1856 C1859 1.539 . S
C1857 C1853 1.408 . S
C1857 C1856 1.404 . S
C1857 H1869 0.930 . S
C1858 C1854 1.524 . S
C1858 H1870 0.956 . S
C1858 H1871 0.961 . S
C1858 H1872 0.961 . S
C1859 C1856 1.539 . S
C1859 H1873 0.958 . S
C1859 H1874 0.961 . S
C1859 H1875 0.960 . S
H1860 C1844 0.931 . S
H1861 C1849 0.929 . S
H1862 C1850 0.960 . S
H1863 C1850 0.962 . S
H1864 C1850 0.960 . S
H1865 C1851 0.961 . S
H1866 C1851 0.961 . S
H1867 C1851 0.961 . S
H1868 C1852 0.931 . S
H1869 C1857 0.930 . S
H1870 C1858 0.956 . S
H1871 C1858 0.961 . S
H1872 C1858 0.961 . S
H1873 C1859 0.958 . S
H1874 C1859 0.961 . S
H1875 C1859 0.960 . S
C1876 C1877 1.391 . S
C1876 C1878 1.394 . S
C1876 H1892 0.931 . S
C1877 C1876 1.391 . S
C1877 C1881 1.376 . S
C1878 C1876 1.394 . S
C1878 C1879 1.369 . S
C1878 C1882 1.531 . S
C1879 C1878 1.369 . S
C1879 C1880 1.410 . S
C1879 C1887 1.503 . S
C1880 C1879 1.410 . S
C1880 C1881 1.392 . S
C1880 C1883 1.511 . S
C1881 C1877 1.376 . S
C1881 C1880 1.392 . S
C1881 H1893 0.929 . S
C1882 C1878 1.531 . S
C1882 H1894 0.960 . S
C1882 H1895 0.962 . S
C1882 H1896 0.960 . S
C1883 C1880 1.511 . S
C1883 H1897 0.961 . S
C1883 H1898 0.961 . S
C1883 H1899 0.961 . S
C1884 C1885 1.370 . S
C1884 C1886 1.363 . S
C1884 H1900 0.931 . S
C1885 C1884 1.370 . S
C1885 C1889 1.408 . S
C1886 C1884 1.363 . S
C1886 C1887 1.370 . S
C1886 C1890 1.524 . S
C1887 C1879 1.503 . S
C1887 C1886 1.370 . S
C1887 C1888 1.403 . S
C1888 C1887 1.403 . S
C1888 C1889 1.404 . S
C1888 C1891 1.539 . S
C1889 C1885 1.408 . S
C1889 C1888 1.404 . S
C1889 H1901 0.930 . S
C1890 C1886 1.524 . S
C1890 H1902 0.956 . S
C1890 H1903 0.961 . S
C1890 H1904 0.961 . S
C1891 C1888 1.539 . S
C1891 H1905 0.958 . S
C1891 H1906 0.961 . S
C1891 H1907 0.960 . S
H1892 C1876 0.931 . S
H1893 C1881 0.929 . S
H1894 C1882 0.960 . S
H1895 C1882 0.962 . S
H1896 C1882 0.960 . S
H1897 C1883 0.961 . S
H1898 C1883 0.961 . S
H1899 C1883 0.961 . S
H1900 C1884 0.931 . S
H1901 C1889 0.930 . S
H1902 C1890 0.956 . S
H1903 C1890 0.961 . S
H1904 C1890 0.961 . S
H1905 C1891 0.958 . S
H1906 C1891 0.961 . S
H1907 C1891 0.960 . S
C1908 C1909 1.391 . S
C1908 C1910 1.394 . S
C1908 H1924 0.931 . S
C1909 C1908 1.391 . S
C1909 C1913 1.376 . S
C1910 C1908 1.394 . S
C1910 C1911 1.369 . S
C1910 C1914 1.531 . S
C1911 C1910 1.369 . S
C1911 C1912 1.410 . S
C1911 C1919 1.503 . S
C1912 C1911 1.410 . S
C1912 C1913 1.392 . S
C1912 C1915 1.511 . S
C1913 C1909 1.376 . S
C1913 C1912 1.392 . S
C1913 H1925 0.929 . S
C1914 C1910 1.531 . S
C1914 H1926 0.960 . S
C1914 H1927 0.962 . S
C1914 H1928 0.960 . S
C1915 C1912 1.511 . S
C1915 H1929 0.961 . S
C1915 H1930 0.961 . S
C1915 H1931 0.961 . S
C1916 C1917 1.370 . S
C1916 C1918 1.363 . S
C1916 H1932 0.931 . S
C1917 C1916 1.370 . S
C1917 C1921 1.408 . S
C1918 C1916 1.363 . S
C1918 C1919 1.370 . S
C1918 C1922 1.524 . S
C1919 C1911 1.503 . S
C1919 C1918 1.370 . S
C1919 C1920 1.403 . S
C1920 C1919 1.403 . S
C1920 C1921 1.404 . S
C1920 C1923 1.539 . S
C1921 C1917 1.408 . S
C1921 C1920 1.404 . S
C1921 H1933 0.930 . S
C1922 C1918 1.524 . S
C1922 H1934 0.956 . S
C1922 H1935 0.961 . S
C1922 H1936 0.961 . S
C1923 C1920 1.539 . S
C1923 H1937 0.958 . S
C1923 H1938 0.961 . S
C1923 H1939 0.960 . S
H1924 C1908 0.931 . S
H1925 C1913 0.929 . S
H1926 C1914 0.960 . S
H1927 C1914 0.962 . S
H1928 C1914 0.960 . S
H1929 C1915 0.961 . S
H1930 C1915 0.961 . S
H1931 C1915 0.961 . S
H1932 C1916 0.931 . S
H1933 C1921 0.930 . S
H1934 C1922 0.956 . S
H1935 C1922 0.961 . S
H1936 C1922 0.961 . S
H1937 C1923 0.958 . S
H1938 C1923 0.961 . S
H1939 C1923 0.960 . S
C1940 C1941 1.391 . S
C1940 C1942 1.394 . S
C1940 H1956 0.931 . S
C1941 C1940 1.391 . S
C1941 C1945 1.376 . S
C1942 C1940 1.394 . S
C1942 C1943 1.369 . S
C1942 C1946 1.531 . S
C1943 C1942 1.369 . S
C1943 C1944 1.410 . S
C1943 C1951 1.503 . S
C1944 C1943 1.410 . S
C1944 C1945 1.392 . S
C1944 C1947 1.511 . S
C1945 C1941 1.376 . S
C1945 C1944 1.392 . S
C1945 H1957 0.929 . S
C1946 C1942 1.531 . S
C1946 H1958 0.960 . S
C1946 H1959 0.962 . S
C1946 H1960 0.960 . S
C1947 C1944 1.511 . S
C1947 H1961 0.961 . S
C1947 H1962 0.961 . S
C1947 H1963 0.961 . S
C1948 C1949 1.370 . S
C1948 C1950 1.363 . S
C1948 H1964 0.931 . S
C1949 C1948 1.370 . S
C1949 C1953 1.408 . S
C1950 C1948 1.363 . S
C1950 C1951 1.370 . S
C1950 C1954 1.524 . S
C1951 C1943 1.503 . S
C1951 C1950 1.370 . S
C1951 C1952 1.403 . S
C1952 C1951 1.403 . S
C1952 C1953 1.404 . S
C1952 C1955 1.539 . S
C1953 C1949 1.408 . S
C1953 C1952 1.404 . S
C1953 H1965 0.930 . S
C1954 C1950 1.524 . S
C1954 H1966 0.956 . S
C1954 H1967 0.961 . S
C1954 H1968 0.961 . S
C1955 C1952 1.539 . S
C1955 H1969 0.958 . S
C1955 H1970 0.961 . S
C1955 H1971 0.960 . S
H1956 C1940 0.931 . S
H1957 C1945 0.929 . S
H1958 C1946 0.960 . S
H1959 C1946 0.962 . S
H1960 C1946 0.960 . S
H1961 C1947 0.961 . S
H1962 C1947 0.961 . S
H1963 C1947 0.961 . S
H1964 C1948 0.931 . S
H1965 C1953 0.930 . S
H1966 C1954 0.956 . S
H1967 C1954 0.961 . S
H1968 C1954 0.961 . S
H1969 C1955 0.958 . S
H1970 C1955 0.961 . S
H1971 C1955 0.960 . S
C1972 C1973 1.391 . S
C1972 C1974 1.394 . S
C1972 H1988 0.931 . S
C1973 C1972 1.391 . S
C1973 C1977 1.376 . S
C1974 C1972 1.394 . S
C1974 C1975 1.369 . S
C1974 C1978 1.531 . S
C1975 C1974 1.369 . S
C1975 C1976 1.410 . S
C1975 C1983 1.503 . S
C1976 C1975 1.410 . S
C1976 C1977 1.392 . S
C1976 C1979 1.511 . S
C1977 C1973 1.376 . S
C1977 C1976 1.392 . S
C1977 H1989 0.929 . S
C1978 C1974 1.531 . S
C1978 H1990 0.960 . S
C1978 H1991 0.962 . S
C1978 H1992 0.960 . S
C1979 C1976 1.511 . S
C1979 H1993 0.961 . S
C1979 H1994 0.961 . S
C1979 H1995 0.961 . S
C1980 C1981 1.370 . S
C1980 C1982 1.363 . S
C1980 H1996 0.931 . S
C1981 C1980 1.370 . S
C1981 C1985 1.408 . S
C1982 C1980 1.363 . S
C1982 C1983 1.370 . S
C1982 C1986 1.524 . S
C1983 C1975 1.503 . S
C1983 C1982 1.370 . S
C1983 C1984 1.403 . S
C1984 C1983 1.403 . S
C1984 C1985 1.404 . S
C1984 C1987 1.539 . S
C1985 C1981 1.408 . S
C1985 C1984 1.404 . S
C1985 H1997 0.930 . S
C1986 C1982 1.524 . S
C1986 H1998 0.956 . S
C1986 H1999 0.961 . S
C1986 H2000 0.961 . S
C1987 C1984 1.539 . S
C1987 H2001 0.958 . S
C1987 H2002 0.961 . S
C1987 H2003 0.960 . S
H1988 C1972 0.931 . S
H1989 C1977 0.929 . S
H1990 C1978 0.960 . S
H1991 C1978 0.962 . S
H1992 C1978 0.960 . S
H1993 C1979 0.961 . S
H1994 C1979 0.961 . S
H1995 C1979 0.961 . S
H1996 C1980 0.931 . S
H1997 C1985 0.930 . S
H1998 C1986 0.956 . S
H1999 C1986 0.961 . S
H2000 C1986 0.961 . S
H2001 C1987 0.958 . S
H2002 C1987 0.961 . S
H2003 C1987 0.960 . S
C2004 C2005 1.391 . S
C2004 C2006 1.394 . S
C2004 H2020 0.931 . S
C2005 C2004 1.391 . S
C2005 C2009 1.376 . S
C2006 C2004 1.394 . S
C2006 C2007 1.369 . S
C2006 C2010 1.531 . S
C2007 C2006 1.369 . S
C2007 C2008 1.410 . S
C2007 C2015 1.503 1_455 S
C2008 C2007 1.410 . S
C2008 C2009 1.392 . S
C2008 C2011 1.511 . S
C2009 C2005 1.376 . S
C2009 C2008 1.392 . S
C2009 H2021 0.929 . S
C2010 C2006 1.531 . S
C2010 H2022 0.960 1_455 S
C2010 H2023 0.962 . S
C2010 H2024 0.960 . S
C2011 C2008 1.511 . S
C2011 H2025 0.961 . S
C2011 H2026 0.961 1_455 S
C2011 H2027 0.961 . S
C2012 C2013 1.370 . S
C2012 C2014 1.363 . S
C2012 H2028 0.931 . S
C2013 C2012 1.370 . S
C2013 C2017 1.408 . S
C2014 C2012 1.363 . S
C2014 C2015 1.370 . S
C2014 C2018 1.584 . S
C2015 C2007 1.503 1_655 S
C2015 C2014 1.370 . S
C2015 C2016 1.403 . S
C2016 C2015 1.403 . S
C2016 C2017 1.404 . S
C2016 C2019 1.539 . S
C2017 C2013 1.408 . S
C2017 C2016 1.404 . S
C2017 H2029 0.930 . S
C2018 C2014 1.584 . S
C2018 H2030 0.956 1_655 S
C2018 H2031 0.882 1_655 S
C2018 H2032 0.989 . S
C2019 C2016 1.539 . S
C2019 H2033 0.958 . S
C2019 H2034 0.961 . S
C2019 H2035 0.960 . S
H2020 C2004 0.931 . S
H2021 C2009 0.929 . S
H2022 C2010 0.960 1_655 S
H2023 C2010 0.962 . S
H2024 C2010 0.960 . S
H2025 C2011 0.961 . S
H2026 C2011 0.961 1_655 S
H2027 C2011 0.961 . S
H2028 C2012 0.931 . S
H2029 C2017 0.930 . S
H2030 C2018 0.956 1_455 S
H2031 C2018 0.882 1_455 S
H2032 C2018 0.989 . S
H2033 C2019 0.958 . S
H2034 C2019 0.961 . S
H2035 C2019 0.960 . S
C2036 C2037 1.391 . S
C2036 C2038 1.394 . S
C2036 H2052 0.931 . S
C2037 C2036 1.391 . S
C2037 C2041 1.376 . S
C2038 C2036 1.394 . S
C2038 C2039 1.369 . S
C2038 C2042 1.531 . S
C2039 C2038 1.369 . S
C2039 C2040 1.410 . S
C2039 C2047 1.503 . S
C2040 C2039 1.410 . S
C2040 C2041 1.392 . S
C2040 C2043 1.511 . S
C2041 C2037 1.376 . S
C2041 C2040 1.392 . S
C2041 H2053 0.929 . S
C2042 C2038 1.531 . S
C2042 H2054 0.960 . S
C2042 H2055 0.962 . S
C2042 H2056 0.960 . S
C2043 C2040 1.511 . S
C2043 H2057 0.961 . S
C2043 H2058 0.961 . S
C2043 H2059 0.961 . S
C2044 C2045 1.370 . S
C2044 C2046 1.363 . S
C2044 H2060 0.931 . S
C2045 C2044 1.370 . S
C2045 C2049 1.408 . S
C2046 C2044 1.363 . S
C2046 C2047 1.370 . S
C2046 C2050 1.524 . S
C2047 C2039 1.503 . S
C2047 C2046 1.370 . S
C2047 C2048 1.403 . S
C2048 C2047 1.403 . S
C2048 C2049 1.404 . S
C2048 C2051 1.539 . S
C2049 C2045 1.408 . S
C2049 C2048 1.404 . S
C2049 H2061 0.930 . S
C2050 C2046 1.524 . S
C2050 H2062 0.956 . S
C2050 H2063 0.961 . S
C2050 H2064 0.961 . S
C2051 C2048 1.539 . S
C2051 H2065 0.958 . S
C2051 H2066 0.961 . S
C2051 H2067 0.960 . S
H2052 C2036 0.931 . S
H2053 C2041 0.929 . S
H2054 C2042 0.960 . S
H2055 C2042 0.962 . S
H2056 C2042 0.960 . S
H2057 C2043 0.961 . S
H2058 C2043 0.961 . S
H2059 C2043 0.961 . S
H2060 C2044 0.931 . S
H2061 C2049 0.930 . S
H2062 C2050 0.956 . S
H2063 C2050 0.961 . S
H2064 C2050 0.961 . S
H2065 C2051 0.958 . S
H2066 C2051 0.961 . S
H2067 C2051 0.960 . S
C2068 C2069 1.391 . S
C2068 C2070 1.394 . S
C2068 H2084 0.931 . S
C2069 C2068 1.391 . S
C2069 C2073 1.376 . S
C2070 C2068 1.394 . S
C2070 C2071 1.369 . S
C2070 C2074 1.531 . S
C2071 C2070 1.369 . S
C2071 C2072 1.410 . S
C2071 C2079 1.503 1_545 S
C2072 C2071 1.410 . S
C2072 C2073 1.392 . S
C2072 C2075 1.511 . S
C2073 C2069 1.376 . S
C2073 C2072 1.392 . S
C2073 H2085 0.929 . S
C2074 C2070 1.531 . S
C2074 H2086 0.960 . S
C2074 H2087 0.962 . S
C2074 H2088 0.960 . S
C2075 C2072 1.511 . S
C2075 H2089 0.961 . S
C2075 H2090 0.961 1_545 S
C2075 H2091 0.961 . S
C2076 C2077 1.370 . S
C2076 C2078 1.363 . S
C2076 H2092 0.931 . S
C2077 C2076 1.370 . S
C2077 C2081 1.408 . S
C2078 C2076 1.363 . S
C2078 C2079 1.370 . S
C2078 C2082 1.524 . S
C2079 C2071 1.503 1_565 S
C2079 C2078 1.370 . S
C2079 C2080 1.403 . S
C2080 C2079 1.403 . S
C2080 C2081 1.404 . S
C2080 C2083 1.539 . S
C2081 C2077 1.408 . S
C2081 C2080 1.404 . S
C2081 H2093 0.930 . S
C2082 C2078 1.524 . S
C2082 H2094 0.956 1_565 S
C2082 H2095 0.978 . S
C2082 H2096 0.961 . S
C2083 C2080 1.539 . S
C2083 H2097 0.958 . S
C2083 H2098 0.961 . S
C2083 H2099 0.960 . S
H2084 C2068 0.931 . S
H2085 C2073 0.929 . S
H2086 C2074 0.960 . S
H2087 C2074 0.962 . S
H2088 C2074 0.960 . S
H2089 C2075 0.961 . S
H2090 C2075 0.961 1_565 S
H2091 C2075 0.961 . S
H2092 C2076 0.931 . S
H2093 C2081 0.930 . S
H2094 C2082 0.956 1_545 S
H2095 C2082 0.978 . S
H2096 C2082 0.961 . S
H2097 C2083 0.958 . S
H2098 C2083 0.961 . S
H2099 C2083 0.960 . S
C2100 C2101 1.391 . S
C2100 C2102 1.394 . S
C2100 H2116 0.931 . S
C2101 C2100 1.391 . S
C2101 C2105 1.376 . S
C2102 C2100 1.394 . S
C2102 C2103 1.369 . S
C2102 C2106 1.531 . S
C2103 C2102 1.369 . S
C2103 C2104 1.410 . S
C2103 C2111 1.503 1_545 S
C2104 C2103 1.410 . S
C2104 C2105 1.392 . S
C2104 C2107 1.511 . S
C2105 C2101 1.376 . S
C2105 C2104 1.392 . S
C2105 H2117 0.929 . S
C2106 C2102 1.531 . S
C2106 H2118 0.960 1_545 S
C2106 H2119 0.962 . S
C2106 H2120 0.960 . S
C2107 C2104 1.511 . S
C2107 H2121 0.961 . S
C2107 H2122 0.959 1_545 S
C2107 H2123 0.961 . S
C2108 C2109 1.370 . S
C2108 C2110 1.363 . S
C2108 H2124 0.931 . S
C2109 C2108 1.370 . S
C2109 C2113 1.408 . S
C2110 C2108 1.363 . S
C2110 C2111 1.370 . S
C2110 C2114 1.576 . S
C2111 C2103 1.503 1_565 S
C2111 C2110 1.370 . S
C2111 C2112 1.403 . S
C2112 C2111 1.403 . S
C2112 C2113 1.404 . S
C2112 C2115 1.539 . S
C2113 C2109 1.408 . S
C2113 C2112 1.404 . S
C2113 H2125 0.930 . S
C2114 C2110 1.576 . S
C2114 H2126 0.963 1_565 S
C2114 H2127 0.868 1_565 S
C2114 H2128 1.006 . S
C2115 C2112 1.539 . S
C2115 H2129 0.958 . S
C2115 H2130 0.961 . S
C2115 H2131 0.960 . S
H2116 C2100 0.931 . S
H2117 C2105 0.929 . S
H2118 C2106 0.960 1_565 S
H2119 C2106 0.962 . S
H2120 C2106 0.960 . S
H2121 C2107 0.961 . S
H2122 C2107 0.959 1_565 S
H2123 C2107 0.961 . S
H2124 C2108 0.931 . S
H2125 C2113 0.930 . S
H2126 C2114 0.963 1_545 S
H2127 C2114 0.868 1_545 S
H2128 C2114 1.006 . S
H2129 C2115 0.958 . S
H2130 C2115 0.961 . S
H2131 C2115 0.960 . S
C2132 C2133 1.391 . S
C2132 C2134 1.394 . S
C2132 H2148 0.931 . S
C2133 C2132 1.391 . S
C2133 C2137 1.376 . S
C2134 C2132 1.394 . S
C2134 C2135 1.369 . S
C2134 C2138 1.531 . S
C2135 C2134 1.369 . S
C2135 C2136 1.410 . S
C2135 C2143 1.503 1_655 S
C2136 C2135 1.410 . S
C2136 C2137 1.392 . S
C2136 C2139 1.511 . S
C2137 C2133 1.376 . S
C2137 C2136 1.392 . S
C2137 H2149 0.929 . S
C2138 C2134 1.531 . S
C2138 H2150 0.960 1_655 S
C2138 H2151 0.962 . S
C2138 H2152 0.960 . S
C2139 C2136 1.511 . S
C2139 H2153 0.961 . S
C2139 H2154 0.966 . S
C2139 H2155 0.961 . S
C2140 C2141 1.370 . S
C2140 C2142 1.363 . S
C2140 H2156 0.931 . S
C2141 C2140 1.370 . S
C2141 C2145 1.408 . S
C2142 C2140 1.363 . S
C2142 C2143 1.370 . S
C2142 C2146 1.524 . S
C2143 C2135 1.503 1_455 S
C2143 C2142 1.370 . S
C2143 C2144 1.403 . S
C2144 C2143 1.403 . S
C2144 C2145 1.404 . S
C2144 C2147 1.539 . S
C2145 C2141 1.408 . S
C2145 C2144 1.404 . S
C2145 H2157 0.930 . S
C2146 C2142 1.524 . S
C2146 H2158 0.956 1_455 S
C2146 H2159 0.961 1_455 S
C2146 H2160 0.961 . S
C2147 C2144 1.539 . S
C2147 H2161 0.958 . S
C2147 H2162 0.961 . S
C2147 H2163 0.960 . S
H2148 C2132 0.931 . S
H2149 C2137 0.929 . S
H2150 C2138 0.960 1_455 S
H2151 C2138 0.962 . S
H2152 C2138 0.960 . S
H2153 C2139 0.961 . S
H2154 C2139 0.966 . S
H2155 C2139 0.961 . S
H2156 C2140 0.931 . S
H2157 C2145 0.930 . S
H2158 C2146 0.956 1_655 S
H2159 C2146 0.961 1_655 S
H2160 C2146 0.961 . S
H2161 C2147 0.958 . S
H2162 C2147 0.961 . S
H2163 C2147 0.960 . S
C2164 C2165 1.391 . S
C2164 C2166 1.394 . S
C2164 H2180 0.931 . S
C2165 C2164 1.391 . S
C2165 C2169 1.376 . S
C2166 C2164 1.394 . S
C2166 C2167 1.369 . S
C2166 C2170 1.531 . S
C2167 C2166 1.369 . S
C2167 C2168 1.410 . S
C2167 C2175 1.503 . S
C2168 C2167 1.410 . S
C2168 C2169 1.392 . S
C2168 C2171 1.511 . S
C2169 C2165 1.376 . S
C2169 C2168 1.392 . S
C2169 H2181 0.929 . S
C2170 C2166 1.531 . S
C2170 H2182 0.960 . S
C2170 H2183 0.962 . S
C2170 H2184 0.960 . S
C2171 C2168 1.511 . S
C2171 H2185 0.961 . S
C2171 H2186 0.961 . S
C2171 H2187 0.961 . S
C2172 C2173 1.370 . S
C2172 C2174 1.363 . S
C2172 H2188 0.931 . S
C2173 C2172 1.370 . S
C2173 C2177 1.408 . S
C2174 C2172 1.363 . S
C2174 C2175 1.370 . S
C2174 C2178 1.524 . S
C2175 C2167 1.503 . S
C2175 C2174 1.370 . S
C2175 C2176 1.403 . S
C2176 C2175 1.403 . S
C2176 C2177 1.404 . S
C2176 C2179 1.539 . S
C2177 C2173 1.408 . S
C2177 C2176 1.404 . S
C2177 H2189 0.930 . S
C2178 C2174 1.524 . S
C2178 H2190 0.956 . S
C2178 H2191 0.961 . S
C2178 H2192 0.961 . S
C2179 C2176 1.539 . S
C2179 H2193 0.958 . S
C2179 H2194 0.961 . S
C2179 H2195 0.960 . S
H2180 C2164 0.931 . S
H2181 C2169 0.929 . S
H2182 C2170 0.960 . S
H2183 C2170 0.962 . S
H2184 C2170 0.960 . S
H2185 C2171 0.961 . S
H2186 C2171 0.961 . S
H2187 C2171 0.961 . S
H2188 C2172 0.931 . S
H2189 C2177 0.930 . S
H2190 C2178 0.956 . S
H2191 C2178 0.961 . S
H2192 C2178 0.961 . S
H2193 C2179 0.958 . S
H2194 C2179 0.961 . S
H2195 C2179 0.960 . S
C2196 C2197 1.391 . S
C2196 C2198 1.394 . S
C2196 H2212 0.931 . S
C2197 C2196 1.391 . S
C2197 C2201 1.376 . S
C2198 C2196 1.394 . S
C2198 C2199 1.369 . S
C2198 C2202 1.531 . S
C2199 C2198 1.369 . S
C2199 C2200 1.410 . S
C2199 C2207 1.503 . S
C2200 C2199 1.410 . S
C2200 C2201 1.392 . S
C2200 C2203 1.511 . S
C2201 C2197 1.376 . S
C2201 C2200 1.392 . S
C2201 H2213 0.929 . S
C2202 C2198 1.531 . S
C2202 H2214 0.960 . S
C2202 H2215 0.962 . S
C2202 H2216 0.960 . S
C2203 C2200 1.511 . S
C2203 H2217 0.961 . S
C2203 H2218 0.961 . S
C2203 H2219 0.961 . S
C2204 C2205 1.370 . S
C2204 C2206 1.363 . S
C2204 H2220 0.931 . S
C2205 C2204 1.370 . S
C2205 C2209 1.408 . S
C2206 C2204 1.363 . S
C2206 C2207 1.370 . S
C2206 C2210 1.524 . S
C2207 C2199 1.503 . S
C2207 C2206 1.370 . S
C2207 C2208 1.403 . S
C2208 C2207 1.403 . S
C2208 C2209 1.404 . S
C2208 C2211 1.539 . S
C2209 C2205 1.408 . S
C2209 C2208 1.404 . S
C2209 H2221 0.930 . S
C2210 C2206 1.524 . S
C2210 H2222 0.956 . S
C2210 H2223 0.961 . S
C2210 H2224 0.961 . S
C2211 C2208 1.539 . S
C2211 H2225 0.958 . S
C2211 H2226 0.961 . S
C2211 H2227 0.960 . S
H2212 C2196 0.931 . S
H2213 C2201 0.929 . S
H2214 C2202 0.960 . S
H2215 C2202 0.962 . S
H2216 C2202 0.960 . S
H2217 C2203 0.961 . S
H2218 C2203 0.961 . S
H2219 C2203 0.961 . S
H2220 C2204 0.931 . S
H2221 C2209 0.930 . S
H2222 C2210 0.956 . S
H2223 C2210 0.961 . S
H2224 C2210 0.961 . S
H2225 C2211 0.958 . S
H2226 C2211 0.961 . S
H2227 C2211 0.960 . S
C2228 C2229 1.391 . S
C2228 C2230 1.394 . S
C2228 H2244 0.931 . S
C2229 C2228 1.391 . S
C2229 C2233 1.376 . S
C2230 C2228 1.394 . S
C2230 C2231 1.369 . S
C2230 C2234 1.531 . S
C2231 C2230 1.369 . S
C2231 C2232 1.410 . S
C2231 C2239 1.503 . S
C2232 C2231 1.410 . S
C2232 C2233 1.392 . S
C2232 C2235 1.511 . S
C2233 C2229 1.376 . S
C2233 C2232 1.392 . S
C2233 H2245 0.929 . S
C2234 C2230 1.531 . S
C2234 H2246 0.960 . S
C2234 H2247 0.962 . S
C2234 H2248 0.960 . S
C2235 C2232 1.511 . S
C2235 H2249 0.961 . S
C2235 H2250 0.961 . S
C2235 H2251 0.961 . S
C2236 C2237 1.370 . S
C2236 C2238 1.363 . S
C2236 H2252 0.931 . S
C2237 C2236 1.370 . S
C2237 C2241 1.408 . S
C2238 C2236 1.363 . S
C2238 C2239 1.370 . S
C2238 C2242 1.524 . S
C2239 C2231 1.503 . S
C2239 C2238 1.370 . S
C2239 C2240 1.403 . S
C2240 C2239 1.403 . S
C2240 C2241 1.404 . S
C2240 C2243 1.539 . S
C2241 C2237 1.408 . S
C2241 C2240 1.404 . S
C2241 H2253 0.930 . S
C2242 C2238 1.524 . S
C2242 H2254 0.956 . S
C2242 H2255 0.961 . S
C2242 H2256 0.961 . S
C2243 C2240 1.539 . S
C2243 H2257 0.958 . S
C2243 H2258 0.961 . S
C2243 H2259 0.960 . S
H2244 C2228 0.931 . S
H2245 C2233 0.929 . S
H2246 C2234 0.960 . S
H2247 C2234 0.962 . S
H2248 C2234 0.960 . S
H2249 C2235 0.961 . S
H2250 C2235 0.961 . S
H2251 C2235 0.961 . S
H2252 C2236 0.931 . S
H2253 C2241 0.930 . S
H2254 C2242 0.956 . S
H2255 C2242 0.961 . S
H2256 C2242 0.961 . S
H2257 C2243 0.958 . S
H2258 C2243 0.961 . S
H2259 C2243 0.960 . S
C2260 C2261 1.391 . S
C2260 C2262 1.394 . S
C2260 H2276 0.931 . S
C2261 C2260 1.391 . S
C2261 C2265 1.376 . S
C2262 C2260 1.394 . S
C2262 C2263 1.369 . S
C2262 C2266 1.531 . S
C2263 C2262 1.369 . S
C2263 C2264 1.410 . S
C2263 C2271 1.503 . S
C2264 C2263 1.410 . S
C2264 C2265 1.392 . S
C2264 C2267 1.511 . S
C2265 C2261 1.376 . S
C2265 C2264 1.392 . S
C2265 H2277 0.929 . S
C2266 C2262 1.531 . S
C2266 H2278 0.960 . S
C2266 H2279 0.962 . S
C2266 H2280 0.960 . S
C2267 C2264 1.511 . S
C2267 H2281 0.961 . S
C2267 H2282 0.961 . S
C2267 H2283 0.961 . S
C2268 C2269 1.370 . S
C2268 C2270 1.363 . S
C2268 H2284 0.931 . S
C2269 C2268 1.370 . S
C2269 C2273 1.408 . S
C2270 C2268 1.363 . S
C2270 C2271 1.370 . S
C2270 C2274 1.524 . S
C2271 C2263 1.503 . S
C2271 C2270 1.370 . S
C2271 C2272 1.403 . S
C2272 C2271 1.403 . S
C2272 C2273 1.404 . S
C2272 C2275 1.539 . S
C2273 C2269 1.408 . S
C2273 C2272 1.404 . S
C2273 H2285 0.930 . S
C2274 C2270 1.524 . S
C2274 H2286 0.956 . S
C2274 H2287 0.961 . S
C2274 H2288 0.961 . S
C2275 C2272 1.539 . S
C2275 H2289 0.958 . S
C2275 H2290 0.961 . S
C2275 H2291 0.960 . S
H2276 C2260 0.931 . S
H2277 C2265 0.929 . S
H2278 C2266 0.960 . S
H2279 C2266 0.962 . S
H2280 C2266 0.960 . S
H2281 C2267 0.961 . S
H2282 C2267 0.961 . S
H2283 C2267 0.961 . S
H2284 C2268 0.931 . S
H2285 C2273 0.930 . S
H2286 C2274 0.956 . S
H2287 C2274 0.961 . S
H2288 C2274 0.961 . S
H2289 C2275 0.958 . S
H2290 C2275 0.961 . S
H2291 C2275 0.960 . S
C2292 C2293 1.391 . S
C2292 C2294 1.394 . S
C2292 H2308 0.931 . S
C2293 C2292 1.391 . S
C2293 C2297 1.376 . S
C2294 C2292 1.394 . S
C2294 C2295 1.369 . S
C2294 C2298 1.531 . S
C2295 C2294 1.369 . S
C2295 C2296 1.410 . S
C2295 C2303 1.503 . S
C2296 C2295 1.410 . S
C2296 C2297 1.392 . S
C2296 C2299 1.511 . S
C2297 C2293 1.376 . S
C2297 C2296 1.392 . S
C2297 H2309 0.929 . S
C2298 C2294 1.531 . S
C2298 H2310 0.960 . S
C2298 H2311 0.962 . S
C2298 H2312 0.960 . S
C2299 C2296 1.511 . S
C2299 H2313 0.961 . S
C2299 H2314 0.961 . S
C2299 H2315 0.961 . S
C2300 C2301 1.370 . S
C2300 C2302 1.363 . S
C2300 H2316 0.931 . S
C2301 C2300 1.370 . S
C2301 C2305 1.408 . S
C2302 C2300 1.363 . S
C2302 C2303 1.370 . S
C2302 C2306 1.524 . S
C2303 C2295 1.503 . S
C2303 C2302 1.370 . S
C2303 C2304 1.403 . S
C2304 C2303 1.403 . S
C2304 C2305 1.404 . S
C2304 C2307 1.539 . S
C2305 C2301 1.408 . S
C2305 C2304 1.404 . S
C2305 H2317 0.930 . S
C2306 C2302 1.524 . S
C2306 H2318 0.956 . S
C2306 H2319 0.961 . S
C2306 H2320 0.961 . S
C2307 C2304 1.539 . S
C2307 H2321 0.958 . S
C2307 H2322 0.961 . S
C2307 H2323 0.960 . S
H2308 C2292 0.931 . S
H2309 C2297 0.929 . S
H2310 C2298 0.960 . S
H2311 C2298 0.962 . S
H2312 C2298 0.960 . S
H2313 C2299 0.961 . S
H2314 C2299 0.961 . S
H2315 C2299 0.961 . S
H2316 C2300 0.931 . S
H2317 C2305 0.930 . S
H2318 C2306 0.956 . S
H2319 C2306 0.961 . S
H2320 C2306 0.961 . S
H2321 C2307 0.958 . S
H2322 C2307 0.961 . S
H2323 C2307 0.960 . S
C2324 C2325 1.391 . S
C2324 C2326 1.394 . S
C2324 H2340 0.931 . S
C2325 C2324 1.391 . S
C2325 C2329 1.376 . S
C2326 C2324 1.394 . S
C2326 C2327 1.369 . S
C2326 C2330 1.531 . S
C2327 C2326 1.369 . S
C2327 C2328 1.410 . S
C2327 C2335 1.503 . S
C2328 C2327 1.410 . S
C2328 C2329 1.392 . S
C2328 C2331 1.511 . S
C2329 C2325 1.376 . S
C2329 C2328 1.392 . S
C2329 H2341 0.929 . S
C2330 C2326 1.531 . S
C2330 H2342 0.960 . S
C2330 H2343 0.962 . S
C2330 H2344 0.960 . S
C2331 C2328 1.511 . S
C2331 H2345 0.961 . S
C2331 H2346 0.961 . S
C2331 H2347 0.961 . S
C2332 C2333 1.370 . S
C2332 C2334 1.363 . S
C2332 H2348 0.931 . S
C2333 C2332 1.370 . S
C2333 C2337 1.408 . S
C2334 C2332 1.363 . S
C2334 C2335 1.370 . S
C2334 C2338 1.524 . S
C2335 C2327 1.503 . S
C2335 C2334 1.370 . S
C2335 C2336 1.403 . S
C2336 C2335 1.403 . S
C2336 C2337 1.404 . S
C2336 C2339 1.539 . S
C2337 C2333 1.408 . S
C2337 C2336 1.404 . S
C2337 H2349 0.930 . S
C2338 C2334 1.524 . S
C2338 H2350 0.956 . S
C2338 H2351 0.961 . S
C2338 H2352 0.961 . S
C2339 C2336 1.539 . S
C2339 H2353 0.958 . S
C2339 H2354 0.961 . S
C2339 H2355 0.960 . S
H2340 C2324 0.931 . S
H2341 C2329 0.929 . S
H2342 C2330 0.960 . S
H2343 C2330 0.962 . S
H2344 C2330 0.960 . S
H2345 C2331 0.961 . S
H2346 C2331 0.961 . S
H2347 C2331 0.961 . S
H2348 C2332 0.931 . S
H2349 C2337 0.930 . S
H2350 C2338 0.956 . S
H2351 C2338 0.961 . S
H2352 C2338 0.961 . S
H2353 C2339 0.958 . S
H2354 C2339 0.961 . S
H2355 C2339 0.960 . S
C2356 C2357 1.391 . S
C2356 C2358 1.394 . S
C2356 H2372 0.931 . S
C2357 C2356 1.391 . S
C2357 C2361 1.376 . S
C2358 C2356 1.394 . S
C2358 C2359 1.369 . S
C2358 C2362 1.531 . S
C2359 C2358 1.369 . S
C2359 C2360 1.410 . S
C2359 C2367 1.503 . S
C2360 C2359 1.410 . S
C2360 C2361 1.392 . S
C2360 C2363 1.511 . S
C2361 C2357 1.376 . S
C2361 C2360 1.392 . S
C2361 H2373 0.929 . S
C2362 C2358 1.531 . S
C2362 H2374 0.960 . S
C2362 H2375 0.962 . S
C2362 H2376 0.960 . S
C2363 C2360 1.511 . S
C2363 H2377 0.961 . S
C2363 H2378 0.961 . S
C2363 H2379 0.961 . S
C2364 C2365 1.370 . S
C2364 C2366 1.363 . S
C2364 H2380 0.931 . S
C2365 C2364 1.370 . S
C2365 C2369 1.408 . S
C2366 C2364 1.363 . S
C2366 C2367 1.370 . S
C2366 C2370 1.524 . S
C2367 C2359 1.503 . S
C2367 C2366 1.370 . S
C2367 C2368 1.403 . S
C2368 C2367 1.403 . S
C2368 C2369 1.404 . S
C2368 C2371 1.539 . S
C2369 C2365 1.408 . S
C2369 C2368 1.404 . S
C2369 H2381 0.930 . S
C2370 C2366 1.524 . S
C2370 H2382 0.956 . S
C2370 H2383 0.961 . S
C2370 H2384 0.961 . S
C2371 C2368 1.539 . S
C2371 H2385 0.958 . S
C2371 H2386 0.961 . S
C2371 H2387 0.960 . S
H2372 C2356 0.931 . S
H2373 C2361 0.929 . S
H2374 C2362 0.960 . S
H2375 C2362 0.962 . S
H2376 C2362 0.960 . S
H2377 C2363 0.961 . S
H2378 C2363 0.961 . S
H2379 C2363 0.961 . S
H2380 C2364 0.931 . S
H2381 C2369 0.930 . S
H2382 C2370 0.956 . S
H2383 C2370 0.961 . S
H2384 C2370 0.961 . S
H2385 C2371 0.958 . S
H2386 C2371 0.961 . S
H2387 C2371 0.960 . S
C2388 C2389 1.391 . S
C2388 C2390 1.394 . S
C2388 H2404 0.931 . S
C2389 C2388 1.391 . S
C2389 C2393 1.376 . S
C2390 C2388 1.394 . S
C2390 C2391 1.369 . S
C2390 C2394 1.531 . S
C2391 C2390 1.369 . S
C2391 C2392 1.410 . S
C2391 C2399 1.503 . S
C2392 C2391 1.410 . S
C2392 C2393 1.392 . S
C2392 C2395 1.511 . S
C2393 C2389 1.376 . S
C2393 C2392 1.392 . S
C2393 H2405 0.929 . S
C2394 C2390 1.531 . S
C2394 H2406 0.960 . S
C2394 H2407 0.962 . S
C2394 H2408 0.960 . S
C2395 C2392 1.511 . S
C2395 H2409 0.961 . S
C2395 H2410 0.961 . S
C2395 H2411 0.961 . S
C2396 C2397 1.370 . S
C2396 C2398 1.363 . S
C2396 H2412 0.931 . S
C2397 C2396 1.370 . S
C2397 C2401 1.408 . S
C2398 C2396 1.363 . S
C2398 C2399 1.370 . S
C2398 C2402 1.524 . S
C2399 C2391 1.503 . S
C2399 C2398 1.370 . S
C2399 C2400 1.403 . S
C2400 C2399 1.403 . S
C2400 C2401 1.404 . S
C2400 C2403 1.539 . S
C2401 C2397 1.408 . S
C2401 C2400 1.404 . S
C2401 H2413 0.930 . S
C2402 C2398 1.524 . S
C2402 H2414 0.956 . S
C2402 H2415 0.961 . S
C2402 H2416 0.961 . S
C2403 C2400 1.539 . S
C2403 H2417 0.958 . S
C2403 H2418 0.961 . S
C2403 H2419 0.960 . S
H2404 C2388 0.931 . S
H2405 C2393 0.929 . S
H2406 C2394 0.960 . S
H2407 C2394 0.962 . S
H2408 C2394 0.960 . S
H2409 C2395 0.961 . S
H2410 C2395 0.961 . S
H2411 C2395 0.961 . S
H2412 C2396 0.931 . S
H2413 C2401 0.930 . S
H2414 C2402 0.956 . S
H2415 C2402 0.961 . S
H2416 C2402 0.961 . S
H2417 C2403 0.958 . S
H2418 C2403 0.961 . S
H2419 C2403 0.960 . S
C2420 C2421 1.391 . S
C2420 C2422 1.394 . S
C2420 H2436 0.931 . S
C2421 C2420 1.391 . S
C2421 C2425 1.376 . S
C2422 C2420 1.394 . S
C2422 C2423 1.369 . S
C2422 C2426 1.531 . S
C2423 C2422 1.369 . S
C2423 C2424 1.410 . S
C2423 C2431 1.503 . S
C2424 C2423 1.410 . S
C2424 C2425 1.392 . S
C2424 C2427 1.511 . S
C2425 C2421 1.376 . S
C2425 C2424 1.392 . S
C2425 H2437 0.929 . S
C2426 C2422 1.531 . S
C2426 H2438 0.960 . S
C2426 H2439 0.962 . S
C2426 H2440 0.960 . S
C2427 C2424 1.511 . S
C2427 H2441 0.961 . S
C2427 H2442 0.961 . S
C2427 H2443 0.961 . S
C2428 C2429 1.370 . S
C2428 C2430 1.363 . S
C2428 H2444 0.931 . S
C2429 C2428 1.370 . S
C2429 C2433 1.408 . S
C2430 C2428 1.363 . S
C2430 C2431 1.370 . S
C2430 C2434 1.524 . S
C2431 C2423 1.503 . S
C2431 C2430 1.370 . S
C2431 C2432 1.403 . S
C2432 C2431 1.403 . S
C2432 C2433 1.404 . S
C2432 C2435 1.539 . S
C2433 C2429 1.408 . S
C2433 C2432 1.404 . S
C2433 H2445 0.930 . S
C2434 C2430 1.524 . S
C2434 H2446 0.956 . S
C2434 H2447 0.961 . S
C2434 H2448 0.961 . S
C2435 C2432 1.539 . S
C2435 H2449 0.958 . S
C2435 H2450 0.961 . S
C2435 H2451 0.960 . S
H2436 C2420 0.931 . S
H2437 C2425 0.929 . S
H2438 C2426 0.960 . S
H2439 C2426 0.962 . S
H2440 C2426 0.960 . S
H2441 C2427 0.961 . S
H2442 C2427 0.961 . S
H2443 C2427 0.961 . S
H2444 C2428 0.931 . S
H2445 C2433 0.930 . S
H2446 C2434 0.956 . S
H2447 C2434 0.961 . S
H2448 C2434 0.961 . S
H2449 C2435 0.958 . S
H2450 C2435 0.961 . S
H2451 C2435 0.960 . S
C2452 C2453 1.391 . S
C2452 C2454 1.394 . S
C2452 H2468 0.931 . S
C2453 C2452 1.391 . S
C2453 C2457 1.376 . S
C2454 C2452 1.394 . S
C2454 C2455 1.369 . S
C2454 C2458 1.531 . S
C2455 C2454 1.369 . S
C2455 C2456 1.410 . S
C2455 C2463 1.503 . S
C2456 C2455 1.410 . S
C2456 C2457 1.392 . S
C2456 C2459 1.511 . S
C2457 C2453 1.376 . S
C2457 C2456 1.392 . S
C2457 H2469 0.929 . S
C2458 C2454 1.531 . S
C2458 H2470 0.960 . S
C2458 H2471 0.962 . S
C2458 H2472 0.960 . S
C2459 C2456 1.511 . S
C2459 H2473 0.961 . S
C2459 H2474 0.961 . S
C2459 H2475 0.961 . S
C2460 C2461 1.370 . S
C2460 C2462 1.363 . S
C2460 H2476 0.931 . S
C2461 C2460 1.370 . S
C2461 C2465 1.408 . S
C2462 C2460 1.363 . S
C2462 C2463 1.370 . S
C2462 C2466 1.524 . S
C2463 C2455 1.503 . S
C2463 C2462 1.370 . S
C2463 C2464 1.403 . S
C2464 C2463 1.403 . S
C2464 C2465 1.404 . S
C2464 C2467 1.539 . S
C2465 C2461 1.408 . S
C2465 C2464 1.404 . S
C2465 H2477 0.930 . S
C2466 C2462 1.524 . S
C2466 H2478 0.956 . S
C2466 H2479 0.961 . S
C2466 H2480 0.961 . S
C2467 C2464 1.539 . S
C2467 H2481 0.958 . S
C2467 H2482 0.961 . S
C2467 H2483 0.960 . S
H2468 C2452 0.931 . S
H2469 C2457 0.929 . S
H2470 C2458 0.960 . S
H2471 C2458 0.962 . S
H2472 C2458 0.960 . S
H2473 C2459 0.961 . S
H2474 C2459 0.961 . S
H2475 C2459 0.961 . S
H2476 C2460 0.931 . S
H2477 C2465 0.930 . S
H2478 C2466 0.956 . S
H2479 C2466 0.961 . S
H2480 C2466 0.961 . S
H2481 C2467 0.958 . S
H2482 C2467 0.961 . S
H2483 C2467 0.960 . S
C2484 C2485 1.391 . S
C2484 C2486 1.394 . S
C2484 H2500 0.931 1_554 S
C2485 C2484 1.391 . S
C2485 C2489 1.376 . S
C2486 C2484 1.394 . S
C2486 C2487 1.369 . S
C2486 C2490 1.531 1_554 S
C2487 C2486 1.369 . S
C2487 C2488 1.410 . S
C2487 C2495 1.503 . S
C2488 C2487 1.410 . S
C2488 C2489 1.392 . S
C2488 C2491 1.511 . S
C2489 C2485 1.376 . S
C2489 C2488 1.392 . S
C2489 H2501 0.929 . S
C2490 C2486 1.531 1_556 S
C2490 H2502 0.960 . S
C2490 H2503 0.962 . S
C2490 H2504 0.960 . S
C2491 C2488 1.511 . S
C2491 H2505 0.961 . S
C2491 H2506 0.961 . S
C2491 H2507 0.961 . S
C2492 C2493 1.370 . S
C2492 C2494 1.363 . S
C2492 H2508 0.931 . S
C2493 C2492 1.370 . S
C2493 C2497 1.408 . S
C2494 C2492 1.363 . S
C2494 C2495 1.370 . S
C2494 C2498 1.524 . S
C2495 C2487 1.503 . S
C2495 C2494 1.370 . S
C2495 C2496 1.403 . S
C2496 C2495 1.403 . S
C2496 C2497 1.404 . S
C2496 C2499 1.539 . S
C2497 C2493 1.408 . S
C2497 C2496 1.404 . S
C2497 H2509 0.930 . S
C2498 C2494 1.524 . S
C2498 H2510 0.956 . S
C2498 H2511 0.961 . S
C2498 H2512 0.961 . S
C2499 C2496 1.539 . S
C2499 H2513 0.958 . S
C2499 H2514 0.961 . S
C2499 H2515 0.960 . S
H2500 C2484 0.931 1_556 S
H2501 C2489 0.929 . S
H2502 C2490 0.960 . S
H2503 C2490 0.962 . S
H2504 C2490 0.960 . S
H2505 C2491 0.961 . S
H2506 C2491 0.961 . S
H2507 C2491 0.961 . S
H2508 C2492 0.931 . S
H2509 C2497 0.930 . S
H2510 C2498 0.956 . S
H2511 C2498 0.961 . S
H2512 C2498 0.961 . S
H2513 C2499 0.958 . S
H2514 C2499 0.961 . S
H2515 C2499 0.960 . S
C2516 C2517 1.391 . S
C2516 C2518 1.394 . S
C2516 H2532 0.931 . S
C2517 C2516 1.391 . S
C2517 C2521 1.376 . S
C2518 C2516 1.394 . S
C2518 C2519 1.369 . S
C2518 C2522 1.531 . S
C2519 C2518 1.369 . S
C2519 C2520 1.410 . S
C2519 C2527 1.503 . S
C2520 C2519 1.410 . S
C2520 C2521 1.392 . S
C2520 C2523 1.511 . S
C2521 C2517 1.376 . S
C2521 C2520 1.392 . S
C2521 H2533 0.929 . S
C2522 C2518 1.531 . S
C2522 H2534 0.960 . S
C2522 H2535 0.962 . S
C2522 H2536 0.960 . S
C2523 C2520 1.511 . S
C2523 H2537 0.961 1_554 S
C2523 H2538 0.961 . S
C2523 H2539 0.961 . S
C2524 C2525 1.370 . S
C2524 C2526 1.363 . S
C2524 H2540 0.931 1_554 S
C2525 C2524 1.370 . S
C2525 C2529 1.408 . S
C2526 C2524 1.363 . S
C2526 C2527 1.370 . S
C2526 C2530 1.524 1_554 S
C2527 C2519 1.503 . S
C2527 C2526 1.370 . S
C2527 C2528 1.403 . S
C2528 C2527 1.403 . S
C2528 C2529 1.404 . S
C2528 C2531 1.539 . S
C2529 C2525 1.408 . S
C2529 C2528 1.404 . S
C2529 H2541 0.930 . S
C2530 C2526 1.524 1_556 S
C2530 H2542 0.956 . S
C2530 H2543 0.961 . S
C2530 H2544 0.961 . S
C2531 C2528 1.539 . S
C2531 H2545 0.958 . S
C2531 H2546 0.961 . S
C2531 H2547 0.960 . S
H2532 C2516 0.931 . S
H2533 C2521 0.929 . S
H2534 C2522 0.960 . S
H2535 C2522 0.962 . S
H2536 C2522 0.960 . S
H2537 C2523 0.961 1_556 S
H2538 C2523 0.961 . S
H2539 C2523 0.961 . S
H2540 C2524 0.931 1_556 S
H2541 C2529 0.930 . S
H2542 C2530 0.956 . S
H2543 C2530 0.961 . S
H2544 C2530 0.961 . S
H2545 C2531 0.958 . S
H2546 C2531 0.961 . S
H2547 C2531 0.960 . S
C2548 C2549 1.391 . S
C2548 C2550 1.394 . S
C2548 H2564 0.931 1_554 S
C2549 C2548 1.391 . S
C2549 C2553 1.376 . S
C2550 C2548 1.394 . S
C2550 C2551 1.369 . S
C2550 C2554 1.531 1_554 S
C2551 C2550 1.369 . S
C2551 C2552 1.410 . S
C2551 C2559 1.503 . S
C2552 C2551 1.410 . S
C2552 C2553 1.392 . S
C2552 C2555 1.511 . S
C2553 C2549 1.376 . S
C2553 C2552 1.392 . S
C2553 H2565 0.929 . S
C2554 C2550 1.531 1_556 S
C2554 H2566 0.960 . S
C2554 H2567 0.962 . S
C2554 H2568 0.960 . S
C2555 C2552 1.511 . S
C2555 H2569 0.961 . S
C2555 H2570 0.961 . S
C2555 H2571 0.961 . S
C2556 C2557 1.370 . S
C2556 C2558 1.363 . S
C2556 H2572 0.931 . S
C2557 C2556 1.370 . S
C2557 C2561 1.408 . S
C2558 C2556 1.363 . S
C2558 C2559 1.370 . S
C2558 C2562 1.524 . S
C2559 C2551 1.503 . S
C2559 C2558 1.370 . S
C2559 C2560 1.403 . S
C2560 C2559 1.403 . S
C2560 C2561 1.404 . S
C2560 C2563 1.539 1_554 S
C2561 C2557 1.408 . S
C2561 C2560 1.404 . S
C2561 H2573 0.930 . S
C2562 C2558 1.524 . S
C2562 H2574 0.956 . S
C2562 H2575 0.961 . S
C2562 H2576 0.961 . S
C2563 C2560 1.539 1_556 S
C2563 H2577 0.958 . S
C2563 H2578 0.961 1_556 S
C2563 H2579 0.960 1_556 S
H2564 C2548 0.931 1_556 S
H2565 C2553 0.929 . S
H2566 C2554 0.960 . S
H2567 C2554 0.962 . S
H2568 C2554 0.960 . S
H2569 C2555 0.961 . S
H2570 C2555 0.961 . S
H2571 C2555 0.961 . S
H2572 C2556 0.931 . S
H2573 C2561 0.930 . S
H2574 C2562 0.956 . S
H2575 C2562 0.961 . S
H2576 C2562 0.961 . S
H2577 C2563 0.958 . S
H2578 C2563 0.961 1_554 S
H2579 C2563 0.960 1_554 S
C2580 C2581 1.391 . S
C2580 C2582 1.394 . S
C2580 H2596 0.931 . S
C2581 C2580 1.391 . S
C2581 C2585 1.376 . S
C2582 C2580 1.394 . S
C2582 C2583 1.369 . S
C2582 C2586 1.531 . S
C2583 C2582 1.369 . S
C2583 C2584 1.410 . S
C2583 C2591 1.503 . S
C2584 C2583 1.410 . S
C2584 C2585 1.392 . S
C2584 C2587 1.511 . S
C2585 C2581 1.376 . S
C2585 C2584 1.392 . S
C2585 H2597 0.929 . S
C2586 C2582 1.531 . S
C2586 H2598 0.960 . S
C2586 H2599 0.962 1_556 S
C2586 H2600 0.960 . S
C2587 C2584 1.511 . S
C2587 H2601 0.961 . S
C2587 H2602 0.961 . S
C2587 H2603 0.961 . S
C2588 C2589 1.370 . S
C2588 C2590 1.363 . S
C2588 H2604 0.931 1_556 S
C2589 C2588 1.370 . S
C2589 C2593 1.408 . S
C2590 C2588 1.363 . S
C2590 C2591 1.370 . S
C2590 C2594 1.524 1_556 S
C2591 C2583 1.503 . S
C2591 C2590 1.370 . S
C2591 C2592 1.403 . S
C2592 C2591 1.403 . S
C2592 C2593 1.404 . S
C2592 C2595 1.539 . S
C2593 C2589 1.408 . S
C2593 C2592 1.404 . S
C2593 H2605 0.930 . S
C2594 C2590 1.524 1_554 S
C2594 H2606 0.956 . S
C2594 H2607 0.961 . S
C2594 H2608 0.961 . S
C2595 C2592 1.539 . S
C2595 H2609 0.958 . S
C2595 H2610 0.961 . S
C2595 H2611 0.960 . S
H2596 C2580 0.931 . S
H2597 C2585 0.929 . S
H2598 C2586 0.960 . S
H2599 C2586 0.962 1_554 S
H2600 C2586 0.960 . S
H2601 C2587 0.961 . S
H2602 C2587 0.961 . S
H2603 C2587 0.961 . S
H2604 C2588 0.931 1_554 S
H2605 C2593 0.930 . S
H2606 C2594 0.956 . S
H2607 C2594 0.961 . S
H2608 C2594 0.961 . S
H2609 C2595 0.958 . S
H2610 C2595 0.961 . S
H2611 C2595 0.960 . S
C2612 C2613 1.391 . S
C2612 C2614 1.394 . S
C2612 H2628 0.931 . S
C2613 C2612 1.391 . S
C2613 C2617 1.376 . S
C2614 C2612 1.394 . S
C2614 C2615 1.369 . S
C2614 C2618 1.531 . S
C2615 C2614 1.369 . S
C2615 C2616 1.410 . S
C2615 C2623 1.503 . S
C2616 C2615 1.410 . S
C2616 C2617 1.392 . S
C2616 C2619 1.511 . S
C2617 C2613 1.376 . S
C2617 C2616 1.392 . S
C2617 H2629 0.929 . S
C2618 C2614 1.531 . S
C2618 H2630 0.960 . S
C2618 H2631 0.962 . S
C2618 H2632 0.960 . S
C2619 C2616 1.511 . S
C2619 H2633 0.961 . S
C2619 H2634 0.961 . S
C2619 H2635 0.961 1_556 S
C2620 C2621 1.370 . S
C2620 C2622 1.363 . S
C2620 H2636 0.931 . S
C2621 C2620 1.370 . S
C2621 C2625 1.419 . S
C2622 C2620 1.363 . S
C2622 C2623 1.370 . S
C2622 C2626 1.524 . S
C2623 C2615 1.503 . S
C2623 C2622 1.370 . S
C2623 C2624 1.403 1_556 S
C2624 C2623 1.403 1_554 S
C2624 C2625 1.403 1_554 S
C2624 C2627 1.539 . S
C2625 C2621 1.419 . S
C2625 C2624 1.403 1_556 S
C2625 H2637 0.920 1_556 S
C2626 C2622 1.524 . S
C2626 H2638 0.956 . S
C2626 H2639 0.961 . S
C2626 H2640 0.961 . S
C2627 C2624 1.539 . S
C2627 H2641 0.958 . S
C2627 H2642 0.961 . S
C2627 H2643 0.960 . S
H2628 C2612 0.931 . S
H2629 C2617 0.929 . S
H2630 C2618 0.960 . S
H2631 C2618 0.962 . S
H2632 C2618 0.960 . S
H2633 C2619 0.961 . S
H2634 C2619 0.961 . S
H2635 C2619 0.961 1_554 S
H2636 C2620 0.931 . S
H2637 C2625 0.920 1_554 S
H2638 C2626 0.956 . S
H2639 C2626 0.961 . S
H2640 C2626 0.961 . S
H2641 C2627 0.958 . S
H2642 C2627 0.961 . S
H2643 C2627 0.960 . S
C2644 C2645 1.391 . S
C2644 C2646 1.394 . S
C2644 H2660 0.931 1_556 S
C2645 C2644 1.391 . S
C2645 C2649 1.376 . S
C2646 C2644 1.394 . S
C2646 C2647 1.369 . S
C2646 C2650 1.531 1_556 S
C2647 C2646 1.369 . S
C2647 C2648 1.410 . S
C2647 C2655 1.503 . S
C2648 C2647 1.410 . S
C2648 C2649 1.392 . S
C2648 C2651 1.511 . S
C2649 C2645 1.376 . S
C2649 C2648 1.392 . S
C2649 H2661 0.929 . S
C2650 C2646 1.531 1_554 S
C2650 H2662 0.960 . S
C2650 H2663 0.962 . S
C2650 H2664 0.960 . S
C2651 C2648 1.511 . S
C2651 H2665 0.961 . S
C2651 H2666 0.961 . S
C2651 H2667 0.961 . S
C2652 C2653 1.370 . S
C2652 C2654 1.363 . S
C2652 H2668 0.931 . S
C2653 C2652 1.370 . S
C2653 C2657 1.408 . S
C2654 C2652 1.363 . S
C2654 C2655 1.370 . S
C2654 C2658 1.524 . S
C2655 C2647 1.503 . S
C2655 C2654 1.370 . S
C2655 C2656 1.403 . S
C2656 C2655 1.403 . S
C2656 C2657 1.404 . S
C2656 C2659 1.539 . S
C2657 C2653 1.408 . S
C2657 C2656 1.404 . S
C2657 H2669 0.930 . S
C2658 C2654 1.524 . S
C2658 H2670 0.956 1_556 S
C2658 H2671 0.961 . S
C2658 H2672 0.961 . S
C2659 C2656 1.539 . S
C2659 H2673 0.958 . S
C2659 H2674 0.961 . S
C2659 H2675 0.960 . S
H2660 C2644 0.931 1_554 S
H2661 C2649 0.929 . S
H2662 C2650 0.960 . S
H2663 C2650 0.962 . S
H2664 C2650 0.960 . S
H2665 C2651 0.961 . S
H2666 C2651 0.961 . S
H2667 C2651 0.961 . S
H2668 C2652 0.931 . S
H2669 C2657 0.930 . S
H2670 C2658 0.956 1_554 S
H2671 C2658 0.961 . S
H2672 C2658 0.961 . S
H2673 C2659 0.958 . S
H2674 C2659 0.961 . S
H2675 C2659 0.960 . S
C2676 C2677 1.391 . S
C2676 C2678 1.394 . S
C2676 H2692 0.931 . S
C2677 C2676 1.391 . S
C2677 C2681 1.376 . S
C2678 C2676 1.394 . S
C2678 C2679 1.369 . S
C2678 C2682 1.531 . S
C2679 C2678 1.369 . S
C2679 C2680 1.410 . S
C2679 C2687 1.503 . S
C2680 C2679 1.410 . S
C2680 C2681 1.392 . S
C2680 C2683 1.511 . S
C2681 C2677 1.376 . S
C2681 C2680 1.392 . S
C2681 H2693 0.929 . S
C2682 C2678 1.531 . S
C2682 H2694 0.960 . S
C2682 H2695 0.962 . S
C2682 H2696 0.960 . S
C2683 C2680 1.511 . S
C2683 H2697 0.961 . S
C2683 H2698 0.961 . S
C2683 H2699 0.961 . S
C2684 C2685 1.370 . S
C2684 C2686 1.363 . S
C2684 H2700 0.931 . S
C2685 C2684 1.370 . S
C2685 C2689 1.408 . S
C2686 C2684 1.363 . S
C2686 C2687 1.370 . S
C2686 C2690 1.524 . S
C2687 C2679 1.503 . S
C2687 C2686 1.370 . S
C2687 C2688 1.403 . S
C2688 C2687 1.403 . S
C2688 C2689 1.404 . S
C2688 C2691 1.539 . S
C2689 C2685 1.408 . S
C2689 C2688 1.404 . S
C2689 H2701 0.930 . S
C2690 C2686 1.524 . S
C2690 H2702 0.956 . S
C2690 H2703 0.961 . S
C2690 H2704 0.961 . S
C2691 C2688 1.539 . S
C2691 H2705 0.958 . S
C2691 H2706 0.961 . S
C2691 H2707 0.960 . S
H2692 C2676 0.931 . S
H2693 C2681 0.929 . S
H2694 C2682 0.960 . S
H2695 C2682 0.962 . S
H2696 C2682 0.960 . S
H2697 C2683 0.961 . S
H2698 C2683 0.961 . S
H2699 C2683 0.961 . S
H2700 C2684 0.931 . S
H2701 C2689 0.930 . S
H2702 C2690 0.956 . S
H2703 C2690 0.961 . S
H2704 C2690 0.961 . S
H2705 C2691 0.958 . S
H2706 C2691 0.961 . S
H2707 C2691 0.960 . S
C2708 C2709 1.391 . S
C2708 C2710 1.394 . S
C2708 H2724 0.931 . S
C2709 C2708 1.391 . S
C2709 C2713 1.376 . S
C2710 C2708 1.394 . S
C2710 C2711 1.369 . S
C2710 C2714 1.531 . S
C2711 C2710 1.369 . S
C2711 C2712 1.410 . S
C2711 C2719 1.503 . S
C2712 C2711 1.410 . S
C2712 C2713 1.392 . S
C2712 C2715 1.511 . S
C2713 C2709 1.376 . S
C2713 C2712 1.392 . S
C2713 H2725 0.929 . S
C2714 C2710 1.531 . S
C2714 H2726 0.960 . S
C2714 H2727 0.962 . S
C2714 H2728 0.960 . S
C2715 C2712 1.511 . S
C2715 H2729 0.961 . S
C2715 H2730 0.961 . S
C2715 H2731 0.961 . S
C2716 C2717 1.370 . S
C2716 C2718 1.363 . S
C2716 H2732 0.931 . S
C2717 C2716 1.370 . S
C2717 C2721 1.408 . S
C2718 C2716 1.363 . S
C2718 C2719 1.370 . S
C2718 C2722 1.524 . S
C2719 C2711 1.503 . S
C2719 C2718 1.370 . S
C2719 C2720 1.403 . S
C2720 C2719 1.403 . S
C2720 C2721 1.404 . S
C2720 C2723 1.539 . S
C2721 C2717 1.408 . S
C2721 C2720 1.404 . S
C2721 H2733 0.930 . S
C2722 C2718 1.524 . S
C2722 H2734 0.956 . S
C2722 H2735 0.961 . S
C2722 H2736 0.961 . S
C2723 C2720 1.539 . S
C2723 H2737 0.958 . S
C2723 H2738 0.961 . S
C2723 H2739 0.960 . S
H2724 C2708 0.931 . S
H2725 C2713 0.929 . S
H2726 C2714 0.960 . S
H2727 C2714 0.962 . S
H2728 C2714 0.960 . S
H2729 C2715 0.961 . S
H2730 C2715 0.961 . S
H2731 C2715 0.961 . S
H2732 C2716 0.931 . S
H2733 C2721 0.930 . S
H2734 C2722 0.956 . S
H2735 C2722 0.961 . S
H2736 C2722 0.961 . S
H2737 C2723 0.958 . S
H2738 C2723 0.961 . S
H2739 C2723 0.960 . S
C2740 C2741 1.391 . S
C2740 C2742 1.394 . S
C2740 H2756 0.931 . S
C2741 C2740 1.391 . S
C2741 C2745 1.376 . S
C2742 C2740 1.394 . S
C2742 C2743 1.369 . S
C2742 C2746 1.531 . S
C2743 C2742 1.369 . S
C2743 C2744 1.410 . S
C2743 C2751 1.503 . S
C2744 C2743 1.410 . S
C2744 C2745 1.392 . S
C2744 C2747 1.511 . S
C2745 C2741 1.376 . S
C2745 C2744 1.392 . S
C2745 H2757 0.929 . S
C2746 C2742 1.531 . S
C2746 H2758 0.960 . S
C2746 H2759 0.962 . S
C2746 H2760 0.960 . S
C2747 C2744 1.511 . S
C2747 H2761 0.961 . S
C2747 H2762 0.961 . S
C2747 H2763 0.961 . S
C2748 C2749 1.370 . S
C2748 C2750 1.363 . S
C2748 H2764 0.931 . S
C2749 C2748 1.370 . S
C2749 C2753 1.408 . S
C2750 C2748 1.363 . S
C2750 C2751 1.370 . S
C2750 C2754 1.524 . S
C2751 C2743 1.503 . S
C2751 C2750 1.370 . S
C2751 C2752 1.403 . S
C2752 C2751 1.403 . S
C2752 C2753 1.404 . S
C2752 C2755 1.539 . S
C2753 C2749 1.408 . S
C2753 C2752 1.404 . S
C2753 H2765 0.930 . S
C2754 C2750 1.524 . S
C2754 H2766 0.956 . S
C2754 H2767 0.961 . S
C2754 H2768 0.961 . S
C2755 C2752 1.539 . S
C2755 H2769 0.958 . S
C2755 H2770 0.961 . S
C2755 H2771 0.960 . S
H2756 C2740 0.931 . S
H2757 C2745 0.929 . S
H2758 C2746 0.960 . S
H2759 C2746 0.962 . S
H2760 C2746 0.960 . S
H2761 C2747 0.961 . S
H2762 C2747 0.961 . S
H2763 C2747 0.961 . S
H2764 C2748 0.931 . S
H2765 C2753 0.930 . S
H2766 C2754 0.956 . S
H2767 C2754 0.961 . S
H2768 C2754 0.961 . S
H2769 C2755 0.958 . S
H2770 C2755 0.961 . S
H2771 C2755 0.960 . S
C469 C75 1.652 . S
C477 C10 1.646 . S
C501 C43 1.637 . S
C509 C23 1.637 . S
C533 C30 1.645 . S
C541 C62 1.648 . S
C565 C82 1.649 . S
C573 C147 1.638 . S
C597 C101 1.652 . S
C605 C121 1.641 . S
C629 C140 1.633 . S
C637 C114 1.648 . S
C661 C160 1.624 . S
C669 C225 1.641 . S
C693 C173 1.649 . S
C701 C199 1.640 . S
C725 C192 1.652 . S
C733 C218 1.643 . S
C757 C309 1.637 . S
C765 C244 1.648 . S
C789 C257 1.625 . S
C797 C283 1.645 . S
C821 C290 1.643 . S
C829 C264 1.637 . S
C853 C381 1.624 . S
C861 C316 1.640 . S
C885 C355 1.626 . S
C893 C335 1.644 . S
C917 C368 1.625 . S
C925 C348 1.638 . S
C949 C400 1.639 . S
C957 C465 1.648 . S
C981 C413 1.624 . S
C989 C439 1.644 . S
C1013 C426 1.642 . S
C1021 C446 1.648 . S
C1045 C69 1.493 . S
C1053 C4 1.502 . S
C1077 C17 1.500 . S
C1085 C49 1.499 . S
C1109 C56 1.496 . S
C1117 C36 1.502 . S
C1141 C88 1.499 . S
C1149 C153 1.499 . S
C1173 C95 1.495 . S
C1181 C127 1.502 . S
C1205 C134 1.498 . S
C1213 C108 1.500 . S
C1237 C166 1.493 . S
C1245 C231 1.502 . S
C1269 C205 1.498 . S
C1277 C179 1.499 . S
C1301 C212 1.493 . S
C1309 C186 1.502 . S
C1333 C238 1.495 . S
C1341 C303 1.502 . S
C1365 C251 1.498 . S
C1373 C277 1.500 . S
C1397 C296 1.493 . S
C1405 C270 1.502 . S
C1429 C387 1.501 . S
C1437 C322 1.499 . S
C1461 C329 1.499 . S
C1469 C361 1.501 . S
C1493 C342 1.496 . S
C1501 C374 1.500 . S
C1525 C459 1.500 . S
C1533 C394 1.500 . S
C1557 C433 1.498 . S
C1565 C407 1.501 . S
C1589 C452 1.500 . S
C1597 C420 1.499 . S
C1621 C211 1.731 . S
C1629 C3 1.738 . S
C1653 C226 1.730 . S
C1661 C16 1.737 . S
C1685 C200 1.737 . S
C1693 C31 1.740 . S
C1717 C44 1.738 . S
C1725 C341 1.741 . S
C1749 C55 1.735 . S
C1757 C317 1.740 . S
C1781 C68 1.730 . S
C1789 C328 1.737 . S
C1813 C83 1.734 . S
C1821 C447 1.740 . S
C1845 C94 1.731 . S
C1853 C458 1.739 . S
C1877 C107 1.734 . S
C1885 C432 1.737 . S
C1909 C122 1.731 . S
C1917 C265 1.737 . S
C1941 C237 1.737 . S
C1949 C133 1.741 . S
C1973 C250 1.731 . S
C1981 C148 1.737 . S
C2005 C369 1.733 . S
C2013 C161 1.739 . S
C2037 C174 1.730 . S
C2045 C382 1.738 . S
C2069 C185 1.739 . S
C2077 C356 1.741 . S
C2101 C276 1.734 . S
C2109 C419 1.740 . S
C2133 C291 1.734 . S
C2141 C393 1.740 . S
C2165 C406 1.730 . S
C2173 C302 1.737 . S
C2197 C5 1.318 . S
C2205 C135 1.325 . S
C2229 C146 1.334 . S
C2237 C18 1.331 . S
C2261 C120 1.328 . S
C2269 C29 1.328 . S
C2293 C42 1.313 . S
C2301 C109 1.322 . S
C2325 C57 1.323 . S
C2333 C81 1.326 . S
C2357 C70 1.326 . S
C2365 C96 1.327 . S
C2389 C159 1.327 . S
C2397 C289 1.327 . S
C2421 C304 1.312 . S
C2429 C172 1.322 . S
C2453 C278 1.327 . S
C2461 C187 1.327 . S
C2485 C198 1.318 . S
C2493 C263 1.324 . S
C2517 C213 1.318 . S
C2525 C239 1.325 . S
C2549 C252 1.332 . S
C2557 C224 1.330 . S
C2581 C315 1.312 . S
C2589 C445 1.322 . S
C2613 C460 1.331 . S
C2621 C330 1.330 . S
C2645 C343 1.314 . S
C2653 C434 1.322 . S
C2677 C354 1.330 . S
C2685 C421 1.330 . S
C2709 C395 1.334 . S
C2717 C367 1.331 . S
C2741 C380 1.330 . S
C2749 C408 1.329 . S
