# Generated by pormake.
# Topology wmi, (6)-cn, num edge types: 1
# Building blocks:
#     Node 0, Type 0, BuildingBlock: MIDCAF_clean_sbu_0, # of connection points: 6
#     Node 1, Type 0, BuildingBlock: MIDCAF_clean_sbu_0, # of connection points: 6
#     Node 2, Type 0, BuildingBlock: MIDCAF_clean_sbu_0, # of connection points: 6
#     Node 3, Type 0, BuildingBlock: MIDCAF_clean_sbu_0, # of connection points: 6
#     Node 4, Type 0, BuildingBlock: MIDCAF_clean_sbu_0, # of connection points: 6
#     Node 5, Type 0, BuildingBlock: MIDCAF_clean_sbu_0, # of connection points: 6
#     Node 6, Type 0, BuildingBlock: MIDCAF_clean_sbu_0, # of connection points: 6
#     Node 7, Type 0, BuildingBlock: MIDCAF_clean_sbu_0, # of connection points: 6
#     Node 8, Type 0, BuildingBlock: MIDCAF_clean_sbu_0, # of connection points: 6
#     Node 9, Type 0, BuildingBlock: MIDCAF_clean_sbu_0, # of connection points: 6
#     Node 10, Type 0, BuildingBlock: MIDCAF_clean_sbu_0, # of connection points: 6
#     Node 11, Type 0, BuildingBlock: MIDCAF_clean_sbu_0, # of connection points: 6
#     Node 12, Type 0, BuildingBlock: MIDCAF_clean_sbu_0, # of connection points: 6
#     Node 13, Type 0, BuildingBlock: MIDCAF_clean_sbu_0, # of connection points: 6
#     Node 14, Type 0, BuildingBlock: MIDCAF_clean_sbu_0, # of connection points: 6
#     Node 15, Type 0, BuildingBlock: MIDCAF_clean_sbu_0, # of connection points: 6
#     Node 16, Type 0, BuildingBlock: MIDCAF_clean_sbu_0, # of connection points: 6
#     Node 17, Type 0, BuildingBlock: MIDCAF_clean_sbu_0, # of connection points: 6
#     Edge 18, Type (0, 0), BuildingBlock: XIVTED_clean_linker_0, # of connection points: 2
#     Edge 19, Type (0, 0), BuildingBlock: XIVTED_clean_linker_0, # of connection points: 2
#     Edge 20, Type (0, 0), BuildingBlock: XIVTED_clean_linker_0, # of connection points: 2
#     Edge 21, Type (0, 0), BuildingBlock: XIVTED_clean_linker_0, # of connection points: 2
#     Edge 22, Type (0, 0), BuildingBlock: XIVTED_clean_linker_0, # of connection points: 2
#     Edge 23, Type (0, 0), BuildingBlock: XIVTED_clean_linker_0, # of connection points: 2
#     Edge 24, Type (0, 0), BuildingBlock: XIVTED_clean_linker_0, # of connection points: 2
#     Edge 25, Type (0, 0), BuildingBlock: XIVTED_clean_linker_0, # of connection points: 2
#     Edge 26, Type (0, 0), BuildingBlock: XIVTED_clean_linker_0, # of connection points: 2
#     Edge 27, Type (0, 0), BuildingBlock: XIVTED_clean_linker_0, # of connection points: 2
#     Edge 28, Type (0, 0), BuildingBlock: XIVTED_clean_linker_0, # of connection points: 2
#     Edge 29, Type (0, 0), BuildingBlock: XIVTED_clean_linker_0, # of connection points: 2
#     Edge 30, Type (0, 0), BuildingBlock: XIVTED_clean_linker_0, # of connection points: 2
#     Edge 31, Type (0, 0), BuildingBlock: XIVTED_clean_linker_0, # of connection points: 2
#     Edge 32, Type (0, 0), BuildingBlock: XIVTED_clean_linker_0, # of connection points: 2
#     Edge 33, Type (0, 0), BuildingBlock: XIVTED_clean_linker_0, # of connection points: 2
#     Edge 34, Type (0, 0), BuildingBlock: XIVTED_clean_linker_0, # of connection points: 2
#     Edge 35, Type (0, 0), BuildingBlock: XIVTED_clean_linker_0, # of connection points: 2
#     Edge 36, Type (0, 0), BuildingBlock: XIVTED_clean_linker_0, # of connection points: 2
#     Edge 37, Type (0, 0), BuildingBlock: XIVTED_clean_linker_0, # of connection points: 2
#     Edge 38, Type (0, 0), BuildingBlock: XIVTED_clean_linker_0, # of connection points: 2
#     Edge 39, Type (0, 0), BuildingBlock: XIVTED_clean_linker_0, # of connection points: 2
#     Edge 40, Type (0, 0), BuildingBlock: XIVTED_clean_linker_0, # of connection points: 2
#     Edge 41, Type (0, 0), BuildingBlock: XIVTED_clean_linker_0, # of connection points: 2
#     Edge 42, Type (0, 0), BuildingBlock: XIVTED_clean_linker_0, # of connection points: 2
#     Edge 43, Type (0, 0), BuildingBlock: XIVTED_clean_linker_0, # of connection points: 2
#     Edge 44, Type (0, 0), BuildingBlock: XIVTED_clean_linker_0, # of connection points: 2
#     Edge 45, Type (0, 0), BuildingBlock: XIVTED_clean_linker_0, # of connection points: 2
#     Edge 46, Type (0, 0), BuildingBlock: XIVTED_clean_linker_0, # of connection points: 2
#     Edge 47, Type (0, 0), BuildingBlock: XIVTED_clean_linker_0, # of connection points: 2
#     Edge 48, Type (0, 0), BuildingBlock: XIVTED_clean_linker_0, # of connection points: 2
#     Edge 49, Type (0, 0), BuildingBlock: XIVTED_clean_linker_0, # of connection points: 2
#     Edge 50, Type (0, 0), BuildingBlock: XIVTED_clean_linker_0, # of connection points: 2
#     Edge 51, Type (0, 0), BuildingBlock: XIVTED_clean_linker_0, # of connection points: 2
#     Edge 52, Type (0, 0), BuildingBlock: XIVTED_clean_linker_0, # of connection points: 2
#     Edge 53, Type (0, 0), BuildingBlock: XIVTED_clean_linker_0, # of connection points: 2
#     Edge 54, Type (0, 0), BuildingBlock: XIVTED_clean_linker_0, # of connection points: 2
#     Edge 55, Type (0, 0), BuildingBlock: XIVTED_clean_linker_0, # of connection points: 2
#     Edge 56, Type (0, 0), BuildingBlock: XIVTED_clean_linker_0, # of connection points: 2
#     Edge 57, Type (0, 0), BuildingBlock: XIVTED_clean_linker_0, # of connection points: 2
#     Edge 58, Type (0, 0), BuildingBlock: XIVTED_clean_linker_0, # of connection points: 2
#     Edge 59, Type (0, 0), BuildingBlock: XIVTED_clean_linker_0, # of connection points: 2
#     Edge 60, Type (0, 0), BuildingBlock: XIVTED_clean_linker_0, # of connection points: 2
#     Edge 61, Type (0, 0), BuildingBlock: XIVTED_clean_linker_0, # of connection points: 2
#     Edge 62, Type (0, 0), BuildingBlock: XIVTED_clean_linker_0, # of connection points: 2
#     Edge 63, Type (0, 0), BuildingBlock: XIVTED_clean_linker_0, # of connection points: 2
#     Edge 64, Type (0, 0), BuildingBlock: XIVTED_clean_linker_0, # of connection points: 2
#     Edge 65, Type (0, 0), BuildingBlock: XIVTED_clean_linker_0, # of connection points: 2
#     Edge 66, Type (0, 0), BuildingBlock: XIVTED_clean_linker_0, # of connection points: 2
#     Edge 67, Type (0, 0), BuildingBlock: XIVTED_clean_linker_0, # of connection points: 2
#     Edge 68, Type (0, 0), BuildingBlock: XIVTED_clean_linker_0, # of connection points: 2
#     Edge 69, Type (0, 0), BuildingBlock: XIVTED_clean_linker_0, # of connection points: 2
#     Edge 70, Type (0, 0), BuildingBlock: XIVTED_clean_linker_0, # of connection points: 2
#     Edge 71, Type (0, 0), BuildingBlock: XIVTED_clean_linker_0, # of connection points: 2
# Relax obj value: 0.342
# Max RMSD: 0.250
# Mean RMSD: 0.250
data_MOF--net-wmi--node1-MIDCAF_clean_sbu_0--edge1-XIVTED_clean_linker_0
_symmetry_space_group_name_H-M    P1
_symmetry_Int_Tables_number       1
_symmetry_cell_setting            triclinic
loop_
_symmetry_equiv_pos_as_xyz
'x, y, z'
_cell_length_a     28.428616
_cell_length_b     28.318655
_cell_length_c     91.085177
_cell_angle_alpha  90.189813
_cell_angle_beta   89.8865
_cell_angle_gamma 120.40079
loop_
_atom_site_label
_atom_site_type_symbol
_atom_site_fract_x
_atom_site_fract_y
_atom_site_fract_z
_atom_type_partial_charge
Zn0 Zn 0.47827 0.08648 0.09852 0.0
Zn1 Zn 0.33313 0.88994 0.0632 0.0
Zn2 Zn 0.41236 0.00432 0.08307 0.0
C3 C 0.43757 0.966 0.0502 0.0
C4 C 0.37818 0.88064 0.09255 0.0
O5 O 0.41872 0.97517 0.1054 0.0
O6 O 0.47131 0.05127 0.11764 0.0
C7 C 0.39351 0.10421 0.0901 0.0
O8 O 0.44541 -0.00043 0.06092 0.0
O9 O 0.39711 0.91742 0.04997 0.0
O10 O 0.34687 0.85759 0.08165 0.0
O11 O 0.40229 0.93288 0.09453 0.0
O12 O 0.43942 0.12782 0.09637 0.0
O13 O 0.37401 0.05559 0.08488 0.0
O14 O 0.48674 0.04696 0.06951 0.0
O15 O 0.54238 0.10717 0.08587 0.0
C16 C 0.53451 0.08549 0.07331 0.0
O17 O 0.33414 -0.00031 0.08221 0.0
O18 O 0.32195 0.95476 0.06247 0.0
C19 C 0.44046 -6e-05 0.11758 0.0
C20 C 0.30075 0.96173 0.07373 0.0
Zn21 Zn 0.93381 0.41191 0.0997 0.0
Zn22 Zn 0.09075 0.48256 0.06918 0.0
Zn23 Zn 0.01148 0.44353 0.08294 0.0
C24 C 0.00797 0.43452 0.04966 0.0
C25 C 0.10031 0.56996 0.08235 0.0
O26 O 0.03566 0.42125 0.10368 0.0
O27 O 0.97736 0.42896 0.11805 0.0
C28 C 0.90116 0.33407 0.07776 0.0
O29 O 0.98458 0.40647 0.06124 0.0
O30 O 0.0535 0.47818 0.05061 0.0
O31 O 0.13452 0.55546 0.07931 0.0
O32 O 0.04902 0.53389 0.08213 0.0
O33 O 0.89422 0.33561 0.09143 0.0
O34 O 0.9413 0.37539 0.07142 0.0
O35 O -0.00476 0.51091 0.08461 0.0
O36 O 0.91081 0.46434 0.09296 0.0
C37 C 0.94922 0.50737 0.08737 0.0
O38 O 0.06847 0.42009 0.09278 0.0
O39 O 0.10847 0.42417 0.07182 0.0
C40 C 0.0196 0.42538 0.11661 0.0
C41 C 0.09863 0.40804 0.08492 0.0
Zn42 Zn 0.60341 0.53344 0.09724 0.0
Zn43 Zn 0.50282 0.64788 0.05692 0.0
Zn44 Zn 0.57814 0.58816 0.08376 0.0
C45 C 0.59971 0.62984 0.05466 0.0
C46 C 0.44573 0.53528 0.06999 0.0
O47 O 0.5941 0.62338 0.10631 0.0
O48 O 0.5845 0.5493 0.11697 0.0
C49 C 0.69205 0.59969 0.07966 0.0
O50 O 0.62411 0.61287 0.063 0.0
O51 O 0.57149 0.64616 0.06139 0.0
O52 O 0.44217 0.56934 0.06146 0.0
O53 O 0.49058 0.54563 0.07649 0.0
O54 O 0.68166 0.5747 0.09174 0.0
O55 O 0.65443 0.60343 0.0729 0.0
O56 O 0.50884 0.50567 0.08262 0.0
O57 O 0.5526 0.46208 0.08753 0.0
C58 C 0.51004 0.46116 0.08318 0.0
O59 O 0.58044 0.65388 0.09647 0.0
O60 O 0.5523 0.65843 0.07485 0.0
C61 C 0.58909 0.59594 0.11806 0.0
C62 C 0.56052 0.67517 0.08807 0.0
Zn63 Zn 0.06893 0.50077 0.89485 0.0
Zn64 Zn 0.863 0.37116 0.92389 0.0
Zn65 Zn -0.00348 0.4499 0.91114 0.0
C66 C 0.96081 0.44949 0.94382 0.0
C67 C 0.89915 0.47082 0.90501 0.0
O68 O 0.95999 0.44739 0.88985 0.0
O69 O 0.02771 0.44801 0.87812 0.0
C70 C 0.0969 0.43835 0.911 0.0
O71 O -0.00542 0.47555 0.93339 0.0
O72 O 0.91437 0.40674 0.94156 0.0
O73 O 0.86772 0.43885 0.91487 0.0
O74 O 0.93788 0.46528 0.89942 0.0
O75 O 0.12015 0.48762 0.9069 0.0
O76 O 0.04481 0.40881 0.91018 0.0
O77 O 0.03982 0.52561 0.92329 0.0
O78 O 0.05648 0.56239 0.90127 0.0
C79 C 0.05348 0.56729 0.91504 0.0
O80 O 0.98856 0.36974 0.91077 0.0
O81 O 0.9289 0.36315 0.92595 0.0
C82 C 0.9784 0.43561 0.87839 0.0
C83 C 0.94217 0.33926 0.91659 0.0
Zn84 Zn 0.59738 0.50359 0.92555 0.0
Zn85 Zn 0.51031 0.57302 0.89892 0.0
Zn86 Zn 0.56026 0.54827 0.91371 0.0
C87 C 0.44219 0.49381 0.91847 0.0
C88 C 0.58435 0.66232 0.91549 0.0
O89 O 0.64605 0.61206 0.91349 0.0
O90 O 0.66215 0.54372 0.9125 0.0
C91 C 0.51387 0.42773 0.90809 0.0
O92 O 0.48557 0.52047 0.92628 0.0
O93 O 0.44505 0.50139 0.90474 0.0
O94 O 0.53453 0.6383 0.91198 0.0
O95 O 0.61133 0.6376 0.91358 0.0
O96 O 0.53289 0.43065 0.92076 0.0
O97 O 0.53119 0.47209 0.90063 0.0
O98 O 0.52803 0.53256 0.93688 0.0
O99 O 0.5998 0.53166 0.94553 0.0
C100 C 0.55795 0.53525 0.94787 0.0
O101 O 0.55787 0.51444 0.89098 0.0
O102 O 0.55241 0.58129 0.88052 0.0
C103 C 0.67838 0.59393 0.91067 0.0
C104 C 0.56441 0.54417 0.87955 0.0
Zn105 Zn 0.43138 0.92513 0.8986 0.0
Zn106 Zn 0.50383 0.09339 0.9196 0.0
Zn107 Zn 0.45998 0.00758 0.9111 0.0
C108 C 0.48544 0.03638 0.94405 0.0
C109 C 0.57727 0.09336 0.902 0.0
O110 O 0.48789 0.02707 0.88779 0.0
O111 O 0.42815 0.94755 0.87812 0.0
C112 C 0.34249 0.91766 0.91384 0.0
O113 O 0.48818 0.00591 0.93391 0.0
O114 O 0.48068 0.07661 0.94028 0.0
O115 O 0.57902 0.11293 0.91456 0.0
O116 O 0.53098 0.0572 0.89658 0.0
O117 O 0.3631 0.8886 0.91055 0.0
O118 O 0.3708 0.96986 0.9122 0.0
O119 O 0.49204 0.96611 0.92499 0.0
O120 O 0.49712 0.92353 0.90529 0.0
C121 C 0.51116 0.93907 0.91837 0.0
O122 O 0.3958 0.03003 0.91101 0.0
O123 O 0.46295 0.11259 0.90571 0.0
C124 C 0.46251 -0.00228 0.87644 0.0
C125 C 0.41255 0.07811 0.90571 0.0
Zn126 Zn 0.15597 0.4152 0.42884 0.0
Zn127 Zn 0.06184 0.24038 0.41203 0.0
Zn128 Zn 0.10794 0.33318 0.41456 0.0
C129 C 0.11492 0.29237 0.38514 0.0
C130 C 0.16656 0.26949 0.41719 0.0
O131 O 0.08942 0.30262 0.43717 0.0
O132 O 0.13587 0.38056 0.44891 0.0
C133 C 0.08058 0.4241 0.40983 0.0
O134 O 0.14853 0.32394 0.3951 0.0
O135 O 0.06952 0.25274 0.38938 0.0
O136 O 0.1215 0.23581 0.42306 0.0
O137 O 0.16912 0.30833 0.40927 0.0
O138 O 0.11348 0.44741 0.42033 0.0
O139 O 0.07072 0.37716 0.40524 0.0
O140 O 0.19184 0.36848 0.40532 0.0
O141 O 0.22997 0.44115 0.41989 0.0
C142 C 0.23401 0.41391 0.40943 0.0
O143 O 0.02672 0.30767 0.40556 0.0
O144 O -0.0013 0.24131 0.42159 0.0
C145 C 0.10419 0.3292 0.44926 0.0
C146 C 0.9877 0.26945 0.41303 0.0
Zn147 Zn 0.77747 0.84383 0.42214 0.0
Zn148 Zn 0.60678 0.75838 0.44197 0.0
Zn149 Zn 0.68296 0.79475 0.42485 0.0
C150 C 0.60376 0.83856 0.42307 0.0
C151 C 0.59196 0.67326 0.422 0.0
O152 O 0.70561 0.73325 0.41967 0.0
O153 O 0.77594 0.78303 0.43402 0.0
C154 C 0.74326 0.91774 0.42109 0.0
O155 O 0.64016 0.83434 0.41568 0.0
O156 O 0.58726 0.81417 0.43526 0.0
O157 O 0.56908 0.68414 0.43232 0.0
O158 O 0.63945 0.70972 0.41757 0.0
O159 O 0.77729 0.91308 0.42903 0.0
O160 O 0.70482 0.87458 0.41481 0.0
O161 O 0.69518 0.83126 0.40295 0.0
O162 O 0.77085 0.82933 0.39993 0.0
C163 C 0.72998 0.82893 0.3943 0.0
O164 O 0.72118 0.82018 0.44633 0.0
O165 O 0.65036 0.76983 0.46032 0.0
C166 C 0.74479 0.73767 0.42775 0.0
C167 C 0.70113 0.80182 0.45898 0.0
Zn168 Zn 0.17465 0.94432 0.40702 0.0
Zn169 Zn 0.22551 0.83956 0.43278 0.0
Zn170 Zn 0.21125 0.89701 0.41791 0.0
C171 C 0.15471 0.77605 0.41095 0.0
C172 C 0.32351 0.91638 0.41937 0.0
O173 O 0.27612 0.98324 0.41741 0.0
O174 O 0.21061 -0.00067 0.42319 0.0
C175 C 0.09257 0.85196 0.42047 0.0
O176 O 0.18217 0.82247 0.40441 0.0
O177 O 0.15827 0.77398 0.42475 0.0
O178 O 0.29702 0.8659 0.42239 0.0
O179 O 0.29956 0.94437 0.41998 0.0
O180 O 0.10088 0.87702 0.40847 0.0
O181 O 0.13291 0.86673 0.4293 0.0
O182 O 0.19447 0.8682 0.39525 0.0
O183 O 0.21736 0.95187 0.38885 0.0
C184 C 0.21129 0.90581 0.38546 0.0
O185 O 0.17421 0.89824 0.43949 0.0
O186 O 0.22595 0.87548 0.4519 0.0
C187 C 0.26106 0.01603 0.42239 0.0
C188 C 0.19658 0.89719 0.45172 0.0
Zn189 Zn 0.57769 0.71987 0.2651 0.0
Zn190 Zn 0.73594 0.79968 0.24027 0.0
Zn191 Zn 0.65815 0.75962 0.25346 0.0
C192 C 0.73712 0.88501 0.25337 0.0
C193 C 0.74316 0.73144 0.25981 0.0
O194 O 0.60024 0.68193 0.24188 0.0
O195 O 0.56061 0.6432 0.26264 0.0
C196 C 0.58169 0.80072 0.24825 0.0
O197 O 0.68646 0.84836 0.25186 0.0
O198 O 0.77279 0.87168 0.25123 0.0
O199 O 0.74867 0.73879 0.24611 0.0
O200 O 0.71499 0.74809 0.26682 0.0
O201 O 0.54655 0.75154 0.251 0.0
O202 O 0.63181 0.81882 0.25159 0.0
O203 O 0.67526 0.74743 0.27661 0.0
O204 O 0.60486 0.75263 0.28458 0.0
C205 C 0.64851 0.75286 0.2873 0.0
O206 O 0.63999 0.71766 0.23181 0.0
O207 O 0.70063 0.79345 0.22086 0.0
C208 C 0.56884 0.63836 0.24927 0.0
C209 C 0.65986 0.74563 0.21994 0.0
Zn210 Zn 0.3416 0.88818 0.27104 0.0
Zn211 Zn 0.19651 0.96541 0.23247 0.0
Zn212 Zn 0.21898 0.88946 0.24606 0.0
C213 C 0.10101 0.85893 0.23969 0.0
C214 C 0.25686 0.00689 0.26349 0.0
O215 O 0.28862 0.89915 0.23447 0.0
O216 O 0.32825 0.93369 0.2554 0.0
C217 C 0.2305 0.79464 0.26722 0.0
O218 O 0.13469 0.84243 0.24181 0.0
O219 O 0.11756 0.90802 0.23585 0.0
O220 O 0.23745 0.97261 0.25301 0.0
O221 O 0.23769 0.97167 0.25316 0.0
O222 O 0.27614 0.80802 0.27327 0.0
O223 O 0.22643 0.82998 0.25938 0.0
O224 O 0.22538 0.88735 0.26979 0.0
O225 O 0.31304 0.9422 0.27215 0.0
C226 C 0.2661 0.9166 0.2781 0.0
O227 O 0.25446 0.90028 0.22369 0.0
O228 O 0.23304 0.95864 0.21373 0.0
C229 C 0.33206 0.9217 0.24225 0.0
C230 C 0.25378 0.92819 0.21257 0.0
Zn231 Zn 0.05168 0.26638 0.2344 0.0
Zn232 Zn 0.14212 0.44104 0.25188 0.0
Zn233 Zn 0.08638 0.34589 0.24905 0.0
C234 C 0.14608 0.38444 0.27754 0.0
C235 C 0.20719 0.40119 0.2433 0.0
O236 O 0.09975 0.37507 0.22649 0.0
O237 O 0.08232 0.29971 0.21505 0.0
C238 C 0.96475 0.2591 0.25068 0.0
O239 O 0.13925 0.35115 0.26699 0.0
O240 O 0.14473 0.42752 0.27456 0.0
O241 O 0.19894 0.43891 0.23909 0.0
O242 O 0.17139 0.36303 0.25158 0.0
O243 O 0.97388 0.24241 0.23872 0.0
O244 O 0.00443 0.29816 0.25765 0.0
O245 O 0.13191 0.30633 0.25714 0.0
O246 O 0.08589 0.22898 0.24467 0.0
C247 C 0.1219 0.25753 0.25406 0.0
O248 O 0.04308 0.3802 0.26057 0.0
O249 O 0.07598 0.43994 0.24304 0.0
C250 C 0.09868 0.35024 0.21465 0.0
C251 C 0.04313 0.41948 0.25364 0.0
Zn252 Zn 0.63506 0.54226 0.72538 0.0
Zn253 Zn 0.81148 0.73265 0.76876 0.0
Zn254 Zn 0.75026 0.67295 0.75046 0.0
C255 C 0.87992 0.73775 0.74661 0.0
C256 C 0.74881 0.77804 0.75727 0.0
O257 O 0.67686 0.67817 0.74659 0.0
O258 O 0.66031 0.62474 0.72797 0.0
C259 C 0.71706 0.55041 0.74947 0.0
O260 O 0.83335 0.71312 0.74004 0.0
O261 O 0.88191 0.74644 0.76025 0.0
O262 O 0.78976 0.78893 0.76512 0.0
O263 O 0.72145 0.73101 0.75106 0.0
O264 O 0.68961 0.52826 0.73773 0.0
O265 O 0.71165 0.58687 0.75656 0.0
O266 O 0.7933 0.67629 0.7301 0.0
O267 O 0.71082 0.61093 0.72743 0.0
C268 C 0.75791 0.6386 0.72189 0.0
O269 O 0.73099 0.62113 0.77069 0.0
O270 O 0.78273 0.6861 0.78635 0.0
C271 C 0.64141 0.63868 0.73866 0.0
C272 C 0.74693 0.6368 0.78396 0.0
Zn273 Zn 0.27706 0.07987 0.76747 0.0
Zn274 Zn 0.42924 0.1702 0.73674 0.0
Zn275 Zn 0.34694 0.12517 0.7499 0.0
C276 C 0.34866 0.11707 0.71626 0.0
C277 C 0.42136 0.25224 0.7507 0.0
O278 O 0.37429 0.10354 0.77095 0.0
O279 O 0.31315 0.09702 0.78701 0.0
C280 C 0.24967 0.00735 0.74464 0.0
O281 O 0.32474 0.08845 0.72774 0.0
O282 O 0.39336 0.16145 0.71754 0.0
O283 O 0.45831 0.24161 0.74752 0.0
O284 O 0.371 0.21355 0.75007 0.0
O285 O 0.24919 0.00547 0.75851 0.0
O286 O 0.28153 0.05306 0.73818 0.0
O287 O 0.31435 0.18095 0.75171 0.0
O288 O 0.23725 0.11683 0.76129 0.0
C289 C 0.26376 0.16235 0.75486 0.0
O290 O 0.41115 0.11276 0.7602 0.0
O291 O 0.46148 0.1233 0.74072 0.0
C292 C 0.35783 0.09941 0.78438 0.0
C293 C 0.44915 0.10806 0.75384 0.0
Zn294 Zn 0.82821 0.26815 0.73969 0.0
Zn295 Zn 0.96737 0.27789 0.76284 0.0
Zn296 Zn 0.8996 0.26899 0.749 0.0
C297 C 0.89345 0.16805 0.75068 0.0
C298 C 0.00831 0.28254 0.73696 0.0
O299 O 0.93286 0.35494 0.74739 0.0
O300 O 0.84936 0.33337 0.75286 0.0
C301 C 0.78465 0.18438 0.75885 0.0
O302 O 0.89877 0.19867 0.73959 0.0
O303 O 0.91581 0.19163 0.76272 0.0
O304 O 0.02637 0.31533 0.74767 0.0
O305 O 0.95634 0.25163 0.73576 0.0
O306 O 0.77382 0.19179 0.74594 0.0
O307 O 0.8317 0.21824 0.76418 0.0
O308 O 0.89305 0.23128 0.72707 0.0
O309 O 0.85652 0.27908 0.71932 0.0
C310 C 0.87835 0.25084 0.71639 0.0
O311 O 0.87482 0.2568 0.77264 0.0
O312 O 0.95766 0.32182 0.77829 0.0
C313 C 0.89968 0.36871 0.75239 0.0
C314 C 0.90791 0.29367 0.78169 0.0
Zn315 Zn 0.40275 0.17414 0.56127 0.0
Zn316 Zn 0.24077 0.07617 0.58556 0.0
Zn317 Zn 0.32424 0.11959 0.57555 0.0
C318 C 0.30879 0.10507 0.60817 0.0
C319 C 0.25347 0.16777 0.57227 0.0
O320 O 0.29292 0.12558 0.5536 0.0
O321 O 0.36582 0.13523 0.54249 0.0
C322 C 0.4119 0.09248 0.57614 0.0
O323 O 0.33268 0.14454 0.59892 0.0
O324 O 0.26897 0.06019 0.60387 0.0
O325 O 0.23815 0.1457 0.5847 0.0
O326 O 0.27802 0.151 0.56366 0.0
O327 O 0.43998 0.143 0.57326 0.0
O328 O 0.36001 0.06735 0.57442 0.0
O329 O 0.36904 0.19076 0.58977 0.0
O330 O 0.39898 0.23845 0.56933 0.0
C331 C 0.39023 0.23685 0.58301 0.0
O332 O 0.29847 0.03253 0.57447 0.0
O333 O 0.22019 0.02468 0.56849 0.0
C334 C 0.31606 0.1212 0.54189 0.0
C335 C 0.25106 0.00461 0.56856 0.0
Zn336 Zn 0.83508 0.23777 0.56309 0.0
Zn337 Zn 0.9194 0.15642 0.58601 0.0
Zn338 Zn 0.88078 0.20559 0.57621 0.0
C339 C 0.8706 0.17543 0.60922 0.0
C340 C 0.84118 0.08768 0.56619 0.0
O341 O 0.88459 0.1821 0.55295 0.0
O342 O 0.88568 0.25651 0.54586 0.0
C343 C 0.90369 0.31838 0.58183 0.0
O344 O 0.84401 0.17939 0.59832 0.0
O345 O 0.91269 0.17228 0.60684 0.0
O346 O 0.86156 0.08502 0.57822 0.0
O347 O 0.85353 0.1349 0.56099 0.0
O348 O 0.85366 0.29472 0.57861 0.0
O349 O 0.93114 0.29529 0.57833 0.0
O350 O 0.80212 0.17352 0.58765 0.0
O351 O 0.76755 0.16462 0.56557 0.0
C352 C 0.76058 0.15147 0.579 0.0
O353 O 0.96605 0.27107 0.577 0.0
O354 O 0.98601 0.20564 0.5745 0.0
C355 C 0.89757 0.21995 0.54328 0.0
C356 C 8e-05 0.25562 0.57356 0.0
Zn357 Zn 0.8164 0.74749 0.60005 0.0
Zn358 Zn 0.75644 0.60369 0.56532 0.0
Zn359 Zn 0.78433 0.67451 0.5827 0.0
C360 C 0.83014 0.59831 0.58385 0.0
C361 C 0.66593 0.58686 0.58173 0.0
O362 O 0.72001 0.69616 0.58257 0.0
O363 O 0.77869 0.78045 0.58964 0.0
C364 C 0.90018 0.75777 0.58118 0.0
O365 O 0.8095 0.61942 0.5924 0.0
O366 O 0.81948 0.59419 0.5703 0.0
O367 O 0.68519 0.55985 0.5758 0.0
O368 O 0.69591 0.6391 0.58296 0.0
O369 O 0.89206 0.76391 0.59452 0.0
O370 O 0.85921 0.73425 0.57243 0.0
O371 O 0.80207 0.64793 0.60397 0.0
O372 O 0.78191 0.70022 0.6174 0.0
C373 C 0.79015 0.66052 0.61649 0.0
O374 O 0.82292 0.71404 0.56122 0.0
O375 O 0.76214 0.64623 0.54754 0.0
C376 C 0.73357 0.74681 0.58383 0.0
C377 C 0.80036 0.69534 0.5486 0.0
H378 H 0.32746 0.76946 0.09674 0.0
H379 H 0.59369 0.78076 0.08193 0.0
H380 H 0.47781 0.92023 0.10533 0.0
H381 H 0.47488 0.64225 0.10682 0.0
H382 H 0.54919 0.832 0.08948 0.0
H383 H 0.37537 0.71887 0.10074 0.0
C384 C 0.36993 0.79174 0.10002 0.0
C385 C 0.39882 0.84923 0.10046 0.0
C386 C 0.53354 0.79078 0.09354 0.0
C387 C 0.45385 0.79197 0.10447 0.0
C388 C 0.55867 0.76164 0.08918 0.0
C389 C 0.53778 0.70772 0.09386 0.0
C390 C 0.48612 0.76494 0.10217 0.0
C391 C 0.49206 0.68409 0.10311 0.0
C392 C 0.39724 0.76288 0.10223 0.0
C393 C 0.45386 0.87601 0.10477 0.0
N394 N 0.46678 0.71249 0.10673 0.0
N395 N 0.48009 0.84732 0.10609 0.0
H396 H 0.29794 0.91581 0.10055 0.0
H397 H 0.04876 0.6262 0.07553 0.0
H398 H 0.20395 0.89174 0.06128 0.0
H399 H 0.19509 0.64597 0.0955 0.0
H400 H 0.08553 0.72506 0.07789 0.0
H401 H 0.23898 0.81827 0.10639 0.0
C402 C 0.26359 0.89054 0.09348 0.0
C403 C 0.25617 0.91131 0.08027 0.0
C404 C 0.10895 0.70743 0.08204 0.0
C405 C 0.18861 0.80085 0.08697 0.0
C406 C 0.08794 0.65112 0.08076 0.0
C407 C 0.11907 0.6281 0.08527 0.0
C408 C 0.16104 0.74064 0.08807 0.0
C409 C 0.17012 0.66237 0.09174 0.0
C410 C 0.2303 0.83494 0.09676 0.0
C411 C 0.21113 0.87695 0.0715 0.0
N412 N 0.18971 0.7171 0.09289 0.0
N413 N 0.17932 0.82317 0.07491 0.0
H414 H 0.16595 0.44751 0.10856 0.0
H415 H 0.36045 0.45989 0.05349 0.0
H416 H 0.11169 0.32613 0.07428 0.0
H417 H 0.41517 0.50533 0.09812 0.0
H418 H 0.26877 0.39603 0.06259 0.0
H419 H 0.25398 0.45217 0.10867 0.0
C420 C 0.17133 0.4192 0.10173 0.0
C421 C 0.13232 0.38742 0.09114 0.0
C422 C 0.30114 0.41855 0.07046 0.0
C423 C 0.23336 0.39466 0.09059 0.0
C424 C 0.35325 0.45514 0.06522 0.0
C425 C 0.39473 0.4879 0.07508 0.0
C426 C 0.29022 0.41682 0.0856 0.0
C427 C 0.3838 0.48064 0.09019 0.0
C428 C 0.22201 0.42241 0.10161 0.0
C429 C 0.14153 0.35204 0.08239 0.0
N430 N 0.3321 0.44699 0.09501 0.0
N431 N 0.19201 0.3582 0.08185 0.0
H432 H 0.92748 0.55604 0.92312 0.0
H433 H 0.7159 0.60456 0.88306 0.0
H434 H 0.8619 0.49538 0.88009 0.0
H435 H 0.76842 0.65258 0.92756 0.0
H436 H 0.79904 0.60339 0.87791 0.0
H437 H 0.89961 0.6245 0.92109 0.0
C438 C 0.90845 0.55835 0.91305 0.0
C439 C 0.89586 0.51978 0.90184 0.0
C440 C 0.7939 0.61673 0.88865 0.0
C441 C 0.86267 0.59678 0.89957 0.0
C442 C 0.74679 0.61888 0.89147 0.0
C443 C 0.73494 0.62829 0.90576 0.0
C444 C 0.82864 0.62288 0.90034 0.0
C445 C 0.77586 0.64473 0.91639 0.0
C446 C 0.89258 0.59739 0.91189 0.0
C447 C 0.87166 0.52428 0.889 0.0
N448 N 0.82005 0.63946 0.91365 0.0
N449 N 0.85464 0.56134 0.88833 0.0
H450 H 0.34851 0.1 0.92329 0.0
H451 H 0.50466 0.37613 0.88152 0.0
H452 H 0.40361 0.11219 0.87872 0.0
H453 H 0.42611 0.35536 0.92343 0.0
H454 H 0.44674 0.27704 0.8771 0.0
H455 H 0.34962 0.18613 0.92028 0.0
C456 C 0.3575 0.119 0.91255 0.0
C457 C 0.3772 0.09962 0.90135 0.0
C458 C 0.44101 0.2944 0.88708 0.0
C459 C 0.38213 0.20008 0.89804 0.0
C460 C 0.47396 0.35099 0.88953 0.0
C461 C 0.47069 0.37341 0.90295 0.0
C462 C 0.40509 0.26055 0.89817 0.0
C463 C 0.43049 0.33921 0.91304 0.0
C464 C 0.35953 0.16915 0.91091 0.0
C465 C 0.38891 0.12636 0.88771 0.0
N466 N 0.40004 0.28452 0.91058 0.0
N467 N 0.39358 0.17645 0.88661 0.0
H468 H 0.64363 0.05172 0.90369 0.0
H469 H 0.88485 0.35395 0.89526 0.0
H470 H 0.62981 0.18303 0.88478 0.0
H471 H 0.89735 0.22855 0.91834 0.0
H472 H 0.80074 0.28461 0.88389 0.0
H473 H 0.74278 0.10628 0.90116 0.0
C474 C 0.66147 0.09086 0.89821 0.0
C475 C 0.62892 0.11284 0.89428 0.0
C476 C 0.82242 0.27179 0.8911 0.0
C477 C 0.74199 0.17677 0.89211 0.0
C478 C 0.87101 0.31155 0.89745 0.0
C479 C 0.89853 0.29687 0.90749 0.0
C480 C 0.80008 0.21686 0.89525 0.0
C481 C 0.87735 0.24131 0.91052 0.0
C482 C 0.71811 0.12247 0.89701 0.0
C483 C 0.65377 0.16457 0.88777 0.0
N484 N 0.82875 0.20322 0.90461 0.0
N485 N 0.70903 0.19536 0.88717 0.0
H486 H 0.31091 0.08621 0.3999 0.0
H487 H 0.20394 0.25153 0.44252 0.0
H488 H 0.28605 0.08014 0.44661 0.0
H489 H 0.23275 0.26516 0.39588 0.0
H490 H 0.26332 0.2132 0.44512 0.0
H491 H 0.31507 0.17457 0.39918 0.0
C492 C 0.30993 0.10521 0.41016 0.0
C493 C 0.29733 0.07559 0.42332 0.0
C494 C 0.25791 0.22559 0.43432 0.0
C495 C 0.29956 0.17529 0.42253 0.0
C496 C 0.22402 0.24756 0.43285 0.0
C497 C 0.213 0.26061 0.41895 0.0
C498 C 0.27941 0.21464 0.42171 0.0
C499 C 0.24012 0.25515 0.40678 0.0
C500 C 0.31114 0.15524 0.40971 0.0
C501 C 0.29543 0.10157 0.43623 0.0
N502 N 0.27098 0.2311 0.40837 0.0
N503 N 0.29474 0.14912 0.43546 0.0
H504 H 0.90504 0.25576 0.43065 0.0
H505 H 0.74642 0.96168 0.39417 0.0
H506 H 0.93937 0.21991 0.38735 0.0
H507 H 0.76407 -0.00103 0.44042 0.0
H508 H 0.78526 0.05977 0.38883 0.0
H509 H 0.81902 0.16873 0.43062 0.0
C510 C 0.89279 0.23117 0.42073 0.0
C511 C 0.9298 0.2445 0.40911 0.0
C512 C 0.77893 0.04616 0.40014 0.0
C513 C 0.83289 0.14368 0.40927 0.0
C514 C 0.75669 0.99035 0.40318 0.0
C515 C 0.75288 0.97279 0.41775 0.0
C516 C 0.79634 0.08406 0.41178 0.0
C517 C 0.76707 0.01124 0.42905 0.0
C518 C 0.84417 0.18083 0.42084 0.0
C519 C 0.91208 0.21086 0.39659 0.0
N520 N 0.7886 0.06509 0.42583 0.0
N521 N 0.86579 0.16081 0.3972 0.0
H522 H 0.02735 0.77826 0.40035 0.0
H523 H 0.77128 0.6927 0.45031 0.0
H524 H 0.0333 0.81731 0.44634 0.0
H525 H 0.77366 0.70337 0.4032 0.0
H526 H 0.85827 0.6955 0.44969 0.0
H527 H 0.93015 0.71243 0.40259 0.0
C528 C 0.00816 0.77225 0.41102 0.0
C529 C 0.03778 0.80443 0.4231 0.0
C530 C 0.8387 0.69482 0.43944 0.0
C531 C 0.92639 0.72925 0.42568 0.0
C532 C 0.7884 0.69229 0.43975 0.0
C533 C 0.76642 0.70028 0.42682 0.0
C534 C 0.86622 0.70414 0.42604 0.0
C535 C 0.78982 0.69834 0.41346 0.0
C536 C 0.95276 0.73442 0.41228 0.0
C537 C 0.01155 0.7939 0.43672 0.0
N538 N 0.8397 0.70262 0.41341 0.0
N539 N 0.95678 0.75803 0.43758 0.0
H540 H 0.43338 0.98477 0.25328 0.0
H541 H 0.51602 0.77732 0.22471 0.0
H542 H 0.34408 0.86181 0.22029 0.0
H543 H 0.60681 0.90298 0.25685 0.0
H544 H 0.47001 0.82629 0.2171 0.0
H545 H 0.51242 0.97495 0.24886 0.0
C546 C 0.43072 0.95603 0.24497 0.0
C547 C 0.38168 0.92231 0.23755 0.0
C548 C 0.50095 0.84404 0.22556 0.0
C549 C 0.47158 0.91044 0.23256 0.0
C550 C 0.527 0.81603 0.22991 0.0
C551 C 0.56421 0.83602 0.24154 0.0
C552 C 0.51107 0.89125 0.23328 0.0
C553 C 0.57807 0.88646 0.24784 0.0
C554 C 0.47597 0.9507 0.24239 0.0
C555 C 0.38079 0.88731 0.22654 0.0
N556 N 0.55042 0.91186 0.24386 0.0
N557 N 0.42479 0.88121 0.22463 0.0
H558 H 0.1358 0.74429 0.25108 0.0
H559 H 0.06027 0.45272 0.28224 0.0
H560 H 0.2181 0.71579 0.28671 0.0
H561 H 0.00157 0.47758 0.24111 0.0
H562 H 0.09101 0.54753 0.28899 0.0
H563 H 0.06452 0.64746 0.2518 0.0
C564 C 0.13853 0.71791 0.2592 0.0
C565 C 0.18371 0.73795 0.26863 0.0
C566 C 0.06961 0.53174 0.2787 0.0
C567 C 0.1019 0.62721 0.26962 0.0
C568 C 0.05093 0.47708 0.27497 0.0
C569 C 0.02956 0.45768 0.26093 0.0
C570 C 0.06644 0.56673 0.26833 0.0
C571 C 0.01864 0.49132 0.25196 0.0
C572 C 0.09772 0.66264 0.25962 0.0
C573 C 0.18468 0.70192 0.27902 0.0
N574 N 0.03882 0.54479 0.25559 0.0
N575 N 0.14481 0.6483 0.27912 0.0
H576 H 0.53668 0.53809 0.26051 0.0
H577 H 0.26149 0.43464 0.21763 0.0
H578 H 0.5142 0.61792 0.22325 0.0
H579 H 0.27408 0.38266 0.26113 0.0
H580 H 0.35947 0.47365 0.2143 0.0
H581 H 0.44928 0.45591 0.25515 0.0
C582 C 0.5145 0.53734 0.25076 0.0
C583 C 0.53226 0.58496 0.24238 0.0
C584 C 0.34073 0.4524 0.22443 0.0
C585 C 0.4319 0.49177 0.23642 0.0
C586 C 0.28484 0.42999 0.22632 0.0
C587 C 0.26025 0.40668 0.2398 0.0
C588 C 0.37237 0.45232 0.2362 0.0
C589 C 0.29183 0.4009 0.25063 0.0
C590 C 0.46441 0.49059 0.2478 0.0
C591 C 0.50214 0.58202 0.22992 0.0
N592 N 0.34678 0.42502 0.24875 0.0
N593 N 0.45264 0.5366 0.22752 0.0
H594 H 0.76286 0.5475 0.77562 0.0
H595 H 0.94848 0.45719 0.73435 0.0
H596 H 0.78469 0.54785 0.72874 0.0
H597 H 0.87924 0.40531 0.77744 0.0
H598 H 0.92761 0.53121 0.73559 0.0
H599 H 0.84125 0.53495 0.77905 0.0
C600 C 0.78483 0.5461 0.76608 0.0
C601 C 0.76658 0.54729 0.75189 0.0
C602 C 0.91976 0.50538 0.7451 0.0
C603 C 0.85596 0.53313 0.75569 0.0
C604 C 0.93233 0.46364 0.74446 0.0
C605 C 0.91535 0.42528 0.75582 0.0
C606 C 0.89028 0.50807 0.75718 0.0
C607 C 0.89365 0.43461 0.76858 0.0
C608 C 0.82961 0.53912 0.76803 0.0
C609 C 0.79647 0.54529 0.73987 0.0
N610 N 0.88056 0.47437 0.7688 0.0
N611 N 0.83924 0.5375 0.74204 0.0
H612 H 0.54383 0.57602 0.72551 0.0
H613 H 0.50626 0.3234 0.7677 0.0
H614 H 0.62712 0.595 0.76642 0.0
H615 H 0.37745 0.31314 0.74064 0.0
H616 H 0.54705 0.42289 0.76889 0.0
H617 H 0.47651 0.4821 0.73228 0.0
C618 C 0.54671 0.561 0.7362 0.0
C619 C 0.59155 0.59311 0.74534 0.0
C620 C 0.50899 0.39886 0.76304 0.0
C621 C 0.51608 0.48458 0.75287 0.0
C622 C 0.4857 0.34204 0.76234 0.0
C623 C 0.43814 0.30988 0.75411 0.0
C624 C 0.48549 0.4241 0.75508 0.0
C625 C 0.41352 0.33617 0.74726 0.0
C626 C 0.50855 0.50712 0.74 0.0
C627 C 0.59368 0.57136 0.75898 0.0
N628 N 0.43811 0.39186 0.74761 0.0
N629 N 0.55754 0.51785 0.76214 0.0
H630 H 0.4729 0.02976 0.74626 0.0
H631 H 0.74933 0.20461 0.78461 0.0
H632 H 0.50419 0.15104 0.77939 0.0
H633 H 0.71359 0.07762 0.75295 0.0
H634 H 0.65232 0.16003 0.79066 0.0
H635 H 0.54868 0.02141 0.75571 0.0
C636 C 0.49492 0.05344 0.75583 0.0
C637 C 0.48306 0.09157 0.76198 0.0
C638 C 0.66578 0.1405 0.78282 0.0
C639 C 0.5713 0.0843 0.77247 0.0
C640 C 0.72139 0.16561 0.77953 0.0
C641 C 0.73875 0.14548 0.76795 0.0
C642 C 0.62807 0.09571 0.77429 0.0
C643 C 0.70119 0.09496 0.76171 0.0
C644 C 0.53824 0.04878 0.76124 0.0
C645 C 0.51249 0.12134 0.77434 0.0
N646 N 0.64724 0.07266 0.7646 0.0
N647 N 0.55628 0.11817 0.77895 0.0
H648 H 0.04034 0.26589 0.54626 0.0
H649 H 0.26705 0.25053 0.58972 0.0
H650 H 0.08746 0.32166 0.59065 0.0
H651 H 0.21314 0.18362 0.54639 0.0
H652 H 0.22734 0.30842 0.58642 0.0
H653 H 0.12762 0.27131 0.54227 0.0
C654 C 0.07067 0.28306 0.55487 0.0
C655 C 0.05642 0.29277 0.56886 0.0
C656 C 0.22512 0.28216 0.57745 0.0
C657 C 0.15527 0.29605 0.56468 0.0
C658 C 0.24779 0.24906 0.57934 0.0
C659 C 0.24238 0.21168 0.56839 0.0
C660 C 0.19502 0.27651 0.56471 0.0
C661 C 0.21775 0.21172 0.55511 0.0
C662 C 0.12018 0.28484 0.5527 0.0
C663 C 0.09675 0.31352 0.57973 0.0
N664 N 0.19357 0.24259 0.55378 0.0
N665 N 0.14369 0.31266 0.57758 0.0
H666 H 0.72585 0.75658 0.55453 0.0
H667 H 0.73771 0.03369 0.57526 0.0
H668 H 0.68211 0.79606 0.59608 0.0
H669 H 0.84862 0.02155 0.54547 0.0
H670 H 0.67905 0.93435 0.5747 0.0
H671 H 0.73144 0.83892 0.54387 0.0
C672 C 0.71429 0.78085 0.56116 0.0
C673 C 0.70458 0.77034 0.57624 0.0
C674 C 0.71477 0.95343 0.5677 0.0
C675 C 0.71032 0.86374 0.56421 0.0
C676 C 0.74774 0.0103 0.56779 0.0
C677 C 0.79737 0.03585 0.56015 0.0
C678 C 0.73208 0.9218 0.56008 0.0
C679 C 0.81018 0.00334 0.55131 0.0
C680 C 0.71805 0.82807 0.55513 0.0
C681 C 0.68989 0.80289 0.58441 0.0
N682 N 0.77828 0.94773 0.55175 0.0
N683 N 0.69429 0.8488 0.57838 0.0
H684 H 0.23761 0.92318 0.58689 0.0
H685 H 0.94295 0.77913 0.55316 0.0
H686 H 0.19791 0.95318 0.54367 0.0
H687 H 0.98353 0.77048 0.59832 0.0
H688 H 0.03895 0.81498 0.54651 0.0
H689 H 0.15062 0.83689 0.58753 0.0
C690 C 0.21241 0.90994 0.57712 0.0
C691 C 0.22451 0.94583 0.5653 0.0
C692 C 0.02652 0.80424 0.55783 0.0
C693 C 0.12427 0.84894 0.56617 0.0
C694 C 0.9719 0.78422 0.56162 0.0
C695 C 0.95592 0.77401 0.57637 0.0
C696 C 0.06496 0.81368 0.56889 0.0
C697 C -0.00536 0.77992 0.58688 0.0
C698 C 0.16209 0.86114 0.57759 0.0
C699 C 0.19015 0.92682 0.55299 0.0
N700 N 0.04741 0.80007 0.58297 0.0
N701 N 0.14065 0.88059 0.55392 0.0
H702 H 0.48303 0.06798 0.03796 0.0
H703 H 0.49627 0.95525 0.95797 0.0
H704 H 0.45985 0.90705 0.03056 0.0
H705 H 0.48382 0.09859 0.96657 0.0
H706 H 0.50097 0.94398 0.98465 0.0
H707 H 0.50582 0.08885 0.01197 0.0
C708 C 0.48472 0.03777 0.031 0.0
C709 C 0.46903 0.98555 0.03639 0.0
C710 C 0.49761 0.97806 0.98061 0.0
C711 C 0.49354 0.00846 0.00657 0.0
C712 C 0.49474 0.98434 0.96541 0.0
C713 C 0.48938 0.02769 0.95997 0.0
C714 C 0.49548 0.01565 0.99037 0.0
C715 C 0.48783 0.06439 0.97015 0.0
C716 C 0.4969 0.04934 0.0161 0.0
C717 C 0.47122 0.94768 0.02679 0.0
N718 N 0.49071 0.05744 0.98477 0.0
N719 N 0.48232 0.95953 0.0123 0.0
H720 H 0.03631 0.4335 0.95717 0.0
H721 H 0.93352 0.45466 0.0374 0.0
H722 H 0.91819 0.4832 0.96508 0.0
H723 H 0.03536 0.38568 0.0287 0.0
H724 H 0.92477 0.46321 0.01093 0.0
H725 H 0.04011 0.42008 0.98362 0.0
C726 C 0.01306 0.4439 0.9646 0.0
C727 C 0.97793 0.46077 0.95914 0.0
C728 C 0.94788 0.44485 0.01477 0.0
C729 C 0.9799 0.44319 0.98914 0.0
C730 C 0.95182 0.43892 0.02984 0.0
C731 C 0.98417 0.4184 0.03507 0.0
C732 C 0.97727 0.43086 0.005 0.0
C733 C 0.00914 0.40065 0.02497 0.0
C734 C 0.01419 0.43505 0.97962 0.0
C735 C 0.94661 0.4713 0.96903 0.0
N736 N 0.00574 0.4079 0.01037 0.0
N737 N 0.94816 0.46217 0.98358 0.0
H738 H 0.5351 0.61096 0.96014 0.0
H739 H 0.62174 0.55975 0.03944 0.0
H740 H 0.55852 0.47623 0.97086 0.0
H741 H 0.55897 0.66881 0.03357 0.0
H742 H 0.60189 0.53261 0.01372 0.0
H743 H 0.54257 0.63456 0.98651 0.0
C744 C 0.53988 0.58529 0.96807 0.0
C745 C 0.54588 0.54139 0.96335 0.0
C746 C 0.59236 0.56251 0.01801 0.0
C747 C 0.55634 0.569 0.9933 0.0
C748 C 0.60418 0.57838 0.03271 0.0
C749 C 0.59196 0.61658 0.03871 0.0
C750 C 0.56868 0.58538 0.00907 0.0
C751 C 0.56881 0.63899 0.02941 0.0
C752 C 0.54489 0.59914 0.98308 0.0
C753 C 0.55354 0.51033 0.97404 0.0
N754 N 0.55811 0.62327 0.01505 0.0
N755 N 0.55908 0.52499 0.98841 0.0
H756 H 0.20534 0.37691 0.37147 0.0
H757 H 0.07444 0.28901 0.29067 0.0
H758 H 0.04906 0.23412 0.36217 0.0
H759 H 0.21806 0.44466 0.29965 0.0
H760 H 0.06962 0.26498 0.31665 0.0
H761 H 0.21667 0.39856 0.3451 0.0
C762 C 0.17374 0.34975 0.36391 0.0
C763 C 0.12625 0.30346 0.36912 0.0
C764 C 0.10276 0.30411 0.31297 0.0
C765 C 0.13868 0.3284 0.3389 0.0
C766 C 0.10568 0.31767 0.29811 0.0
C767 C 0.14705 0.36864 0.29301 0.0
C768 C 0.14212 0.34138 0.32286 0.0
C769 C 0.18561 0.4049 0.30317 0.0
C770 C 0.18008 0.36233 0.34885 0.0
C771 C 0.08654 0.27007 0.35874 0.0
N772 N 0.18244 0.39048 0.3176 0.0
N773 N 0.09357 0.28327 0.34424 0.0
H774 H 0.8065 0.85145 0.37294 0.0
H775 H 0.58152 0.70744 0.31037 0.0
H776 H 0.63486 0.79135 0.37907 0.0
H777 H 0.75182 0.80958 0.29962 0.0
H778 H 0.60332 0.72723 0.33626 0.0
H779 H 0.79 0.83009 0.34666 0.0
C780 C 0.76544 0.83434 0.36873 0.0
C781 C 0.72195 0.82341 0.3782 0.0
C782 C 0.63614 0.74528 0.32831 0.0
C783 C 0.70277 0.79758 0.34827 0.0
C784 C 0.6238 0.73366 0.31352 0.0
C785 C 0.66492 0.75727 0.30284 0.0
C786 C 0.69015 0.78112 0.3326 0.0
C787 C 0.71902 0.79039 0.30754 0.0
C788 C 0.75612 0.82201 0.35375 0.0
C789 C 0.66964 0.80102 0.37217 0.0
N790 N 0.73014 0.80184 0.32214 0.0
N791 N 0.66148 0.78839 0.35763 0.0
H792 H 0.34323 0.97483 0.29862 0.0
H793 H 0.15894 0.81384 0.36799 0.0
H794 H 0.17895 0.83849 0.29396 0.0
H795 H 0.29318 0.98043 0.36882 0.0
H796 H 0.17521 0.80955 0.3415 0.0
H797 H 0.33456 0.96426 0.32518 0.0
C798 C 0.30548 0.9423 0.30319 0.0
C799 C 0.26163 0.90777 0.29409 0.0
C800 C 0.20137 0.84666 0.34759 0.0
C801 C 0.25141 0.89544 0.32451 0.0
C802 C 0.19238 0.84894 0.36265 0.0
C803 C 0.22449 0.89773 0.37043 0.0
C804 C 0.24334 0.89313 0.34056 0.0
C805 C 0.26717 0.94228 0.36311 0.0
C806 C 0.30052 0.93634 0.31835 0.0
C807 C 0.21359 0.86633 0.30062 0.0
N808 N 0.27524 0.93897 0.34859 0.0
N809 N 0.20961 0.8614 0.31549 0.0
H810 H 0.68946 0.55581 0.70358 0.0
H811 H 0.87876 0.68807 0.63323 0.0
H812 H 0.85173 0.69688 0.70556 0.0
H813 H 0.7047 0.58085 0.63159 0.0
H814 H 0.87672 0.67178 0.65975 0.0
H815 H 0.70223 0.54613 0.67754 0.0
C816 C 0.72815 0.5844 0.6986 0.0
C817 C 0.76929 0.62783 0.70675 0.0
C818 C 0.83921 0.65043 0.65352 0.0
C819 C 0.78412 0.61679 0.67679 0.0
C820 C 0.8405 0.65903 0.63838 0.0
C821 C 0.79194 0.63492 0.63027 0.0
C822 C 0.78888 0.61767 0.66053 0.0
C823 C 0.74308 0.59925 0.63746 0.0
C824 C 0.73536 0.57877 0.68369 0.0
C825 C 0.81877 0.66311 0.69967 0.0
N826 N 0.74268 0.59212 0.65222 0.0
N827 N 0.82459 0.65723 0.68504 0.0
H828 H 0.32363 0.03418 0.62444 0.0
H829 H 0.30371 0.16425 0.70052 0.0
H830 H 0.32201 0.18518 0.62753 0.0
H831 H 0.34946 0.04094 0.69804 0.0
H832 H 0.29684 0.16303 0.67371 0.0
H833 H 0.32626 0.03061 0.65125 0.0
C834 C 0.32498 0.0672 0.63082 0.0
C835 C 0.32315 0.11034 0.62384 0.0
C836 C 0.30742 0.13547 0.67901 0.0
C837 C 0.32376 0.10533 0.65449 0.0
C838 C 0.31021 0.13536 0.69429 0.0
C839 C 0.32585 0.10169 0.70143 0.0
C840 C 0.32095 0.10202 0.67078 0.0
C841 C 0.3358 0.06636 0.69292 0.0
C842 C 0.32595 0.06487 0.6461 0.0
C843 C 0.32427 0.15175 0.63254 0.0
N844 N 0.33357 0.06769 0.678 0.0
N845 N 0.32382 0.14788 0.64745 0.0
H846 H 0.85938 0.1055 0.63091 0.0
H847 H 0.89182 0.31734 0.69364 0.0
H848 H 0.85499 0.25292 0.62273 0.0
H849 H 0.8729 0.15968 0.70334 0.0
H850 H 0.88181 0.29505 0.66761 0.0
H851 H 0.86199 0.12253 0.65734 0.0
C852 C 0.85737 0.14069 0.63475 0.0
C853 C 0.85619 0.17748 0.62468 0.0
C854 C 0.87997 0.26523 0.67536 0.0
C855 C 0.8618 0.19867 0.65488 0.0
C856 C 0.88617 0.27808 0.69025 0.0
C857 C 0.883 0.24017 0.7007 0.0
C858 C 0.8704 0.21387 0.67073 0.0
C859 C 0.876 0.1902 0.69565 0.0
C860 C 0.85952 0.15073 0.64982 0.0
C861 C 0.85474 0.223 0.63016 0.0
N862 N 0.86956 0.17831 0.68099 0.0
N863 N 0.85834 0.23272 0.6449 0.0
H864 H 0.32306 0.01961 0.19753 0.0
H865 H 0.34725 0.90155 0.1241 0.0
H866 H 0.25477 0.84465 0.19718 0.0
H867 H 0.48914 0.03691 0.14414 0.0
H868 H 0.30415 0.87563 0.14851 0.0
H869 H 0.37455 0.02651 0.1753 0.0
C870 C 0.31872 0.98259 0.1927 0.0
C871 C 0.28448 0.93149 0.19911 0.0
C872 C 0.34535 0.90999 0.14752 0.0
C873 C 0.34263 0.93902 0.17356 0.0
C874 C 0.37017 0.92463 0.13363 0.0
C875 C 0.4216 0.97216 0.132 0.0
C876 C 0.37193 0.94369 0.15968 0.0
C877 C 0.44909 0.0006 0.14479 0.0
C878 C 0.34838 0.98659 0.18011 0.0
C879 C 0.28081 0.88478 0.1925 0.0
N880 N 0.42337 0.98691 0.15798 0.0
N881 N 0.30888 0.88946 0.17987 0.0
H882 H 0.07613 0.37206 0.12187 0.0
H883 H 0.10199 0.44588 0.2073 0.0
H884 H 0.03088 0.48206 0.14158 0.0
H885 H 0.12067 0.31549 0.18902 0.0
H886 H 0.10044 0.47714 0.18235 0.0
H887 H 0.11576 0.36767 0.14541 0.0
C888 C 0.07565 0.39615 0.13106 0.0
C889 C 0.04982 0.42696 0.12989 0.0
C890 C 0.10581 0.44222 0.18383 0.0
C891 C 0.09428 0.42194 0.15674 0.0
C892 C 0.107 0.42461 0.19806 0.0
C893 C 0.11013 0.37731 0.2002 0.0
C894 C 0.10778 0.41224 0.17172 0.0
C895 C 0.11691 0.35147 0.18784 0.0
C896 C 0.09794 0.39348 0.1445 0.0
C897 C 0.04965 0.45703 0.14214 0.0
N898 N 0.11465 0.36874 0.17413 0.0
N899 N 0.07106 0.4534 0.15508 0.0
H900 H 0.67079 0.80233 0.19487 0.0
H901 H 0.55785 0.53854 0.14357 0.0
H902 H 0.60198 0.63773 0.2113 0.0
H903 H 0.62072 0.70177 0.12656 0.0
H904 H 0.56599 0.57368 0.16836 0.0
H905 H 0.64542 0.76604 0.16999 0.0
C906 C 0.64967 0.75838 0.19326 0.0
C907 C 0.63839 0.7229 0.2052 0.0
C908 C 0.57769 0.60191 0.15925 0.0
C909 C 0.60956 0.6811 0.17665 0.0
C910 C 0.57316 0.58191 0.14503 0.0
C911 C 0.58929 0.61741 0.13293 0.0
C912 C 0.59894 0.65809 0.16152 0.0
C913 C 0.6081 0.673 0.13556 0.0
C914 C 0.63517 0.73773 0.17903 0.0
C915 C 0.61079 0.66645 0.20246 0.0
N916 N 0.61297 0.69176 0.1496 0.0
N917 N 0.59777 0.64732 0.18845 0.0
H918 H 0.92606 0.46887 0.85969 0.0
H919 H 0.84296 0.22198 0.80327 0.0
H920 H 0.95002 0.33367 0.86931 0.0
H921 H 0.93806 0.39322 0.79235 0.0
H922 H 0.83692 0.24813 0.82888 0.0
H923 H 0.88267 0.42431 0.83628 0.0
C924 C 0.92064 0.42909 0.85703 0.0
C925 C 0.94245 0.40518 0.86609 0.0
C926 C 0.85697 0.27961 0.82063 0.0
C927 C 0.89217 0.35386 0.83987 0.0
C928 C 0.86025 0.2648 0.8061 0.0
C929 C 0.8905 0.30567 0.79574 0.0
C930 C 0.88262 0.33537 0.82447 0.0
C931 C 0.91336 0.3606 0.79994 0.0
C932 C 0.89583 0.40369 0.84379 0.0
C933 C 0.93447 0.35359 0.86234 0.0
N934 N 0.90904 0.37386 0.81397 0.0
N935 N 0.91042 0.32974 0.84939 0.0
H936 H 0.65815 0.62747 0.86975 0.0
H937 H 0.64097 0.54987 0.78788 0.0
H938 H 0.53599 0.46224 0.85852 0.0
H939 H 0.79491 0.64459 0.81018 0.0
H940 H 0.59661 0.51434 0.81191 0.0
H941 H 0.70449 0.6353 0.84663 0.0
C942 C 0.64183 0.59224 0.8625 0.0
C943 C 0.59433 0.54357 0.86628 0.0
C944 C 0.64033 0.54168 0.81142 0.0
C945 C 0.64546 0.55334 0.83916 0.0
C946 C 0.66571 0.56184 0.79772 0.0
C947 C 0.72161 0.60123 0.79703 0.0
C948 C 0.67121 0.56159 0.82439 0.0
C949 C 0.75157 0.61519 0.81016 0.0
C950 C 0.66811 0.59682 0.84924 0.0
C951 C 0.57348 0.49996 0.85616 0.0
N952 N 0.72594 0.59645 0.82324 0.0
N953 N 0.59871 0.50614 0.84287 0.0
H954 H 0.38156 0.15331 0.81048 0.0
H955 H 0.44986 0.94866 0.84983 0.0
H956 H 0.40254 0.03399 0.78644 0.0
H957 H 0.48564 0.10158 0.86978 0.0
H958 H 0.43812 0.98178 0.82617 0.0
H959 H 0.42342 0.13779 0.83203 0.0
C960 C 0.39588 0.12446 0.80971 0.0
C961 C 0.38914 0.09518 0.79669 0.0
C962 C 0.44962 0.00862 0.83564 0.0
C963 C 0.43596 0.07632 0.82132 0.0
C964 C 0.45643 0.98976 0.84915 0.0
C965 C 0.46841 0.02234 0.86178 0.0
C966 C 0.45342 0.05993 0.83481 0.0
C967 C 0.47648 0.07523 0.86029 0.0
C968 C 0.41992 0.11575 0.82197 0.0
C969 C 0.40784 0.05794 0.79623 0.0
N970 N 0.46767 0.09198 0.8471 0.0
N971 N 0.42976 0.04899 0.80845 0.0
H972 H 0.89204 0.14165 0.52353 0.0
H973 H 0.14101 0.3714 0.47649 0.0
H974 H 0.98046 0.31451 0.5332 0.0
H975 H 0.01289 0.22769 0.45503 0.0
H976 H 0.09451 0.33755 0.49985 0.0
H977 H 0.94632 0.1606 0.50064 0.0
C978 C 0.92321 0.18325 0.52095 0.0
C979 C 0.93154 0.22666 0.53018 0.0
C980 C 0.07674 0.31298 0.49008 0.0
C981 C -0.0061 0.24829 0.50446 0.0
C982 C 0.10342 0.33221 0.47669 0.0
C983 C 0.08063 0.30279 0.46367 0.0
C984 C 0.02654 0.26373 0.49064 0.0
C985 C 0.03193 0.25186 0.46477 0.0
C986 C 0.95385 0.19405 0.50791 0.0
C987 C 0.97217 0.27987 0.52631 0.0
N988 N 0.00607 0.23415 0.47801 0.0
N989 N 0.00177 0.28903 0.51387 0.0
H990 H 0.75164 0.87708 0.48146 0.0
H991 H 0.81679 0.66659 0.52171 0.0
H992 H 0.72599 0.72478 0.46386 0.0
H993 H 0.81679 0.79939 0.54489 0.0
H994 H 0.81107 0.70583 0.49854 0.0
H995 H 0.79739 0.8648 0.503 0.0
C996 C 0.75717 0.84199 0.48196 0.0
C997 C 0.73643 0.8023 0.47082 0.0
C998 C 0.8131 0.72712 0.50864 0.0
C999 C 0.7877 0.78779 0.49516 0.0
C1000 C 0.81697 0.70495 0.52187 0.0
C1001 C 0.81604 0.72918 0.53521 0.0
C1002 C 0.80678 0.77322 0.5087 0.0
C1003 C 0.81661 0.77902 0.53481 0.0
C1004 C 0.783 0.83488 0.49421 0.0
C1005 C 0.74321 0.75695 0.47203 0.0
N1006 N 0.81039 0.79877 0.52174 0.0
N1007 N 0.76799 0.75082 0.48396 0.0
H1008 H 0.19246 0.99208 0.45488 0.0
H1009 H 0.29858 0.02117 0.53681 0.0
H1010 H 0.19444 0.86364 0.47962 0.0
H1011 H 0.26353 0.14047 0.51886 0.0
H1012 H 0.25512 0.96223 0.51577 0.0
H1013 H 0.21102 0.04576 0.47773 0.0
C1014 C 0.19496 0.97443 0.46517 0.0
C1015 C 0.19218 0.92343 0.46536 0.0
C1016 C 0.25601 0.00087 0.51636 0.0
C1017 C 0.21422 0.98465 0.49137 0.0
C1018 C 0.28078 0.03449 0.52844 0.0
C1019 C 0.28355 0.08503 0.52969 0.0
C1020 C 0.23516 0.01843 0.50501 0.0
C1021 C 0.26107 0.10108 0.51839 0.0
C1022 C 0.206 0.00526 0.47818 0.0
C1023 C 0.19661 0.90287 0.47893 0.0
N1024 N 0.23825 0.06806 0.50637 0.0
N1025 N 0.2079 0.93365 0.49128 0.0
H1026 H 0.41982 0.40544 0.10008 0.0
H1027 H 0.37266 0.13113 0.06336 0.0
H1028 H 0.49413 0.39473 0.05995 0.0
H1029 H 0.36384 0.15696 0.10965 0.0
H1030 H 0.37384 0.21681 0.05835 0.0
H1031 H 0.3576 0.306 0.09931 0.0
C1032 C 0.42112 0.38239 0.09073 0.0
C1033 C 0.46174 0.4078 0.08004 0.0
C1034 C 0.36912 0.20241 0.06955 0.0
C1035 C 0.39227 0.29464 0.07928 0.0
C1036 C 0.36779 0.15325 0.0724 0.0
C1037 C 0.36857 0.13752 0.08693 0.0
C1038 C 0.3708 0.23536 0.08135 0.0
C1039 C 0.36346 0.16806 0.0983 0.0
C1040 C 0.38603 0.32571 0.09036 0.0
C1041 C 0.46306 0.37625 0.06836 0.0
N1042 N 0.36582 0.21615 0.09529 0.0
N1043 N 0.42941 0.32104 0.0684 0.0
H1044 H 0.57912 0.17298 0.05503 0.0
H1045 H 0.85631 0.22596 0.08361 0.0
H1046 H 0.60215 0.04465 0.07211 0.0
H1047 H 0.84522 0.33772 0.05383 0.0
H1048 H 0.76728 0.15311 0.07526 0.0
H1049 H 0.67683 0.22713 0.04964 0.0
C1050 C 0.6044 0.15504 0.0569 0.0
C1051 C 0.58274 0.10424 0.06391 0.0
C1052 C 0.78473 0.19301 0.07018 0.0
C1053 C 0.69486 0.16691 0.05856 0.0
C1054 C 0.83576 0.23454 0.07492 0.0
C1055 C 0.8579 0.28776 0.06941 0.0
C1056 C 0.75463 0.20526 0.06025 0.0
C1057 C 0.8295 0.29703 0.05828 0.0
C1058 C 0.66037 0.18622 0.054 0.0
C1059 C 0.61736 0.08345 0.06654 0.0
N1060 N 0.77854 0.25655 0.05435 0.0
N1061 N 0.67194 0.11541 0.06423 0.0
H1062 H 0.7218 0.56772 0.05477 0.0
H1063 H 0.9513 0.58982 0.10325 0.0
H1064 H 0.78614 0.67667 0.09187 0.0
H1065 H 0.91947 0.51792 0.06007 0.0
H1066 H 0.90856 0.64259 0.09607 0.0
H1067 H 0.80904 0.57068 0.05231 0.0
C1068 C 0.75537 0.59456 0.0619 0.0
C1069 C 0.74699 0.62131 0.07367 0.0
C1070 C 0.9122 0.61657 0.08797 0.0
C1071 C 0.84548 0.62312 0.07142 0.0
C1072 C 0.93662 0.58658 0.09211 0.0
C1073 C 0.93803 0.54951 0.08224 0.0
C1074 C 0.88728 0.60749 0.07407 0.0
C1075 C 0.91852 0.54616 0.06795 0.0
C1076 C 0.80504 0.59585 0.06063 0.0
C1077 C 0.79123 0.655 0.08275 0.0
N1078 N 0.8926 0.57374 0.06438 0.0
N1079 N 0.83818 0.65379 0.08171 0.0
H1080 H 0.36359 0.39506 0.9087 0.0
H1081 H 0.14733 0.46915 0.93717 0.0
H1082 H 0.39574 0.51755 0.94154 0.0
H1083 H 0.12528 0.36656 0.89979 0.0
H1084 H 0.22519 0.46087 0.94494 0.0
H1085 H 0.26588 0.35797 0.91191 0.0
C1086 C 0.34983 0.41267 0.91705 0.0
C1087 C 0.38749 0.45974 0.92476 0.0
C1088 C 0.20246 0.43877 0.93528 0.0
C1089 C 0.27595 0.41903 0.92805 0.0
C1090 C 0.15789 0.44323 0.9309 0.0
C1091 C 0.13033 0.41855 0.91784 0.0
C1092 C 0.22018 0.41038 0.92632 0.0
C1093 C 0.14556 0.38591 0.90997 0.0
C1094 C 0.29405 0.39184 0.91877 0.0
C1095 C 0.36785 0.48124 0.93539 0.0
N1096 N 0.19028 0.38363 0.91418 0.0
N1097 N 0.31325 0.46161 0.93645 0.0
H1098 H 0.49364 0.87742 0.94317 0.0
H1099 H 0.65875 0.7614 0.90379 0.0
H1100 H 0.60814 0.95879 0.90811 0.0
H1101 H 0.55645 0.6863 0.94149 0.0
H1102 H 0.66263 0.84758 0.91001 0.0
H1103 H 0.53606 0.82188 0.94771 0.0
C1104 C 0.52955 0.88566 0.93696 0.0
C1105 C 0.54772 0.92296 0.92532 0.0
C1106 C 0.64089 0.81288 0.91727 0.0
C1107 C 0.595 0.85826 0.92995 0.0
C1108 C 0.63945 0.76391 0.9138 0.0
C1109 C 0.60739 0.71696 0.92218 0.0
C1110 C 0.60899 0.8142 0.92897 0.0
C1111 C 0.58181 0.72189 0.93481 0.0
C1112 C 0.5534 0.85343 0.9394 0.0
C1113 C 0.59335 0.93087 0.91729 0.0
N1114 N 0.58202 0.76914 0.93764 0.0
N1115 N 0.61467 0.8981 0.91954 0.0
H1116 H 0.30979 0.87258 0.94062 0.0
H1117 H 0.03791 0.6457 0.90306 0.0
H1118 H 0.24876 0.89088 0.89913 0.0
H1119 H 0.11655 0.61663 0.93943 0.0
H1120 H 0.09542 0.74421 0.907 0.0
H1121 H 0.2215 0.79079 0.94558 0.0
C1122 C 0.27671 0.86095 0.9329 0.0
C1123 C 0.2863 0.88863 0.9195 0.0
C1124 C 0.09921 0.71644 0.9144 0.0
C1125 C 0.18601 0.79371 0.92477 0.0
C1126 C 0.06618 0.66016 0.91221 0.0
C1127 C 0.07325 0.62309 0.92079 0.0
C1128 C 0.14013 0.73593 0.92515 0.0
C1129 C 0.11001 0.64386 0.93254 0.0
C1130 C 0.22657 0.81375 0.93563 0.0
C1131 C 0.2427 0.87107 0.90967 0.0
N1132 N 0.14309 0.69904 0.93417 0.0
N1133 N 0.19476 0.82401 0.91236 0.0
H1134 H 0.05209 0.69618 0.41723 0.0
H1135 H 0.11745 0.47789 0.38407 0.0
H1136 H 0.18549 0.73589 0.3877 0.0
H1137 H 0.00589 0.44966 0.41948 0.0
H1138 H 0.11907 0.56322 0.37824 0.0
H1139 H 0.01181 0.59972 0.41073 0.0
C1140 C 0.07184 0.68464 0.40894 0.0
C1141 C 0.12231 0.72377 0.40307 0.0
C1142 C 0.09246 0.53728 0.3869 0.0
C1143 C 0.07778 0.61305 0.39606 0.0
C1144 C 0.09083 0.48811 0.39007 0.0
C1145 C 0.06112 0.45664 0.4022 0.0
C1146 C 0.06425 0.5549 0.39598 0.0
C1147 C 0.02882 0.47255 0.40995 0.0
C1148 C 0.04909 0.62947 0.40532 0.0
C1149 C 0.14646 0.7068 0.39245 0.0
N1150 N 0.03196 0.52101 0.40688 0.0
N1151 N 0.1247 0.65237 0.38956 0.0
H1152 H 0.55667 0.65948 0.39379 0.0
H1153 H 0.30049 0.37677 0.41809 0.0
H1154 H 0.54702 0.57028 0.43295 0.0
H1155 H 0.29335 0.49403 0.38964 0.0
H1156 H 0.40017 0.42761 0.41601 0.0
H1157 H 0.47187 0.57987 0.38499 0.0
C1158 C 0.53828 0.62206 0.40016 0.0
C1159 C 0.55863 0.62122 0.41411 0.0
C1160 C 0.37675 0.44113 0.40978 0.0
C1161 C 0.4614 0.53085 0.40432 0.0
C1162 C 0.31987 0.41175 0.41082 0.0
C1163 C 0.289 0.4312 0.40392 0.0
C1164 C 0.40272 0.4905 0.40189 0.0
C1165 C 0.31599 0.47769 0.39503 0.0
C1166 C 0.48951 0.57694 0.39523 0.0
C1167 C 0.53255 0.57234 0.42212 0.0
N1168 N 0.37145 0.50633 0.39443 0.0
N1169 N 0.4848 0.52938 0.41723 0.0
H1170 H 0.56526 0.84755 0.39611 0.0
H1171 H 0.41365 0.98398 0.43554 0.0
H1172 H 0.59613 0.91229 0.44015 0.0
H1173 H 0.36231 0.89592 0.39461 0.0
H1174 H 0.50132 0.98752 0.43319 0.0
H1175 H 0.51163 0.89239 0.39155 0.0
C1176 C 0.5621 0.87257 0.40464 0.0
C1177 C 0.58402 0.87551 0.41859 0.0
C1178 C 0.47167 0.96905 0.42444 0.0
C1179 C 0.52307 0.92644 0.41357 0.0
C1180 C 0.42198 0.96783 0.4257 0.0
C1181 C 0.38106 0.93975 0.41523 0.0
C1182 C 0.4798 0.9412 0.41275 0.0
C1183 C 0.39318 0.91814 0.40287 0.0
C1184 C 0.53136 0.89792 0.40208 0.0
C1185 C 0.57886 0.90829 0.42931 0.0
N1186 N 0.44101 0.91826 0.40211 0.0
N1187 N 0.54836 0.93181 0.42666 0.0
H1188 H 0.81158 0.78817 0.28216 0.0
H1189 H 0.03896 0.74674 0.24374 0.0
H1190 H 0.76703 0.65245 0.25281 0.0
H1191 H 0.03707 0.89719 0.24967 0.0
H1192 H 0.94889 0.69694 0.25593 0.0
H1193 H 0.90578 0.80816 0.28164 0.0
C1194 C 0.82083 0.76033 0.27639 0.0
C1195 C 0.78232 0.72 0.26706 0.0
C1196 C 0.96895 0.74093 0.25463 0.0
C1197 C 0.88938 0.74336 0.26609 0.0
C1198 C 0.0196 0.76913 0.2475 0.0
C1199 C 0.04484 0.82597 0.24535 0.0
C1200 C 0.94508 0.77038 0.26009 0.0
C1201 C 0.0187 0.85327 0.25073 0.0
C1202 C 0.87482 0.77233 0.27588 0.0
C1203 C 0.7964 0.68498 0.25982 0.0
N1204 N 0.97056 0.8253 0.25788 0.0
N1205 N 0.84954 0.69875 0.25898 0.0
H1206 H 0.25576 0.06559 0.28662 0.0
H1207 H 0.19913 0.26187 0.23643 0.0
H1208 H 0.25327 0.06327 0.23927 0.0
H1209 H 0.13151 0.21329 0.27984 0.0
H1210 H 0.2493 0.21355 0.23982 0.0
H1211 H 0.23858 0.1425 0.28628 0.0
C1212 C 0.25244 0.08192 0.27618 0.0
C1213 C 0.25448 0.05748 0.26299 0.0
C1214 C 0.22447 0.21443 0.24874 0.0
C1215 C 0.23612 0.14521 0.2625 0.0
C1216 C 0.19618 0.2421 0.24684 0.0
C1217 C 0.16118 0.24078 0.25785 0.0
C1218 C 0.21729 0.18503 0.26171 0.0
C1219 C 0.15824 0.21482 0.27114 0.0
C1220 C 0.24258 0.12549 0.276 0.0
C1221 C 0.2505 0.0801 0.24971 0.0
N1222 N 0.18549 0.18707 0.27266 0.0
N1223 N 0.24118 0.12257 0.24981 0.0
H1224 H 0.69572 0.94835 0.2438 0.0
H1225 H 0.94854 0.21463 0.27786 0.0
H1226 H 0.81894 0.95124 0.27187 0.0
H1227 H 0.86324 0.2147 0.23884 0.0
H1228 H 0.87566 0.12096 0.28292 0.0
H1229 H 0.73384 0.04672 0.24849 0.0
C1230 C 0.72972 0.96939 0.25129 0.0
C1231 C 0.75439 0.94198 0.25744 0.0
C1232 C 0.87176 0.14226 0.27357 0.0
C1233 C 0.79811 0.05382 0.26282 0.0
C1234 C 0.91288 0.19618 0.27083 0.0
C1235 C 0.91225 0.22188 0.25777 0.0
C1236 C 0.82987 0.11452 0.26321 0.0
C1237 C 0.86537 0.19582 0.24895 0.0
C1238 C 0.7516 0.02542 0.2539 0.0
C1239 C 0.79917 0.97119 0.2668 0.0
N1240 N 0.82667 0.14289 0.25159 0.0
N1241 N 0.81983 0.02557 0.26912 0.0
H1242 H 0.75576 0.82513 0.73076 0.0
H1243 H 0.83744 0.10157 0.77319 0.0
H1244 H 0.72746 0.83707 0.77671 0.0
H1245 H 0.86823 0.09786 0.72695 0.0
H1246 H 0.78154 0.00246 0.77318 0.0
H1247 H 0.77895 0.92068 0.72749 0.0
C1248 C 0.75178 0.84708 0.73999 0.0
C1249 C 0.73948 0.82342 0.75402 0.0
C1250 C 0.8003 0.02293 0.76298 0.0
C1251 C 0.76765 0.9327 0.75052 0.0
C1252 C 0.83275 0.07966 0.76302 0.0
C1253 C 0.85875 0.1078 0.75014 0.0
C1254 C 0.7944 0.99345 0.75002 0.0
C1255 C 0.84956 0.07747 0.73717 0.0
C1256 C 0.76587 0.90184 0.73818 0.0
C1257 C 0.73644 0.85387 0.76572 0.0
N1258 N 0.81884 0.02166 0.73747 0.0
N1259 N 0.75119 0.90709 0.76375 0.0
H1260 H 0.2186 0.90073 0.74878 0.0
H1261 H 0.91753 0.81082 0.72384 0.0
H1262 H 0.17888 0.00487 0.72387 0.0
H1263 H 0.96233 0.71907 0.75237 0.0
H1264 H 0.01425 0.87003 0.71726 0.0
H1265 H 0.12875 0.82268 0.74322 0.0
C1266 C 0.19152 0.90669 0.74166 0.0
C1267 C 0.20605 0.95929 0.73682 0.0
C1268 C 0.00272 0.83586 0.72459 0.0
C1269 C 0.10171 0.87049 0.73099 0.0
C1270 C 0.94748 0.80174 0.72822 0.0
C1271 C 0.93222 0.76021 0.73867 0.0
C1272 C 0.04255 0.82803 0.73148 0.0
C1273 C 0.97258 0.75077 0.74428 0.0
C1274 C 0.13989 0.8622 0.73861 0.0
C1275 C 0.16927 0.96486 0.72775 0.0
N1276 N 0.02581 0.78477 0.74077 0.0
N1277 N 0.11817 0.92126 0.72544 0.0
H1278 H 0.29267 0.2438 0.734 0.0
H1279 H 0.98769 0.18073 0.72923 0.0
H1280 H 0.1617 0.13622 0.76295 0.0
H1281 H 0.11643 0.34978 0.73087 0.0
H1282 H 0.05646 0.15317 0.73014 0.0
H1283 H 0.2328 0.27531 0.72372 0.0
C1284 C 0.25214 0.22786 0.73843 0.0
C1285 C 0.23284 0.18835 0.74963 0.0
C1286 C 0.06959 0.19635 0.72971 0.0
C1287 C 0.16341 0.22037 0.73712 0.0
C1288 C 0.03042 0.21214 0.72899 0.0
C1289 C 0.0464 0.2676 0.73028 0.0
C1290 C 0.12484 0.23631 0.73146 0.0
C1291 C 0.10255 0.30652 0.73005 0.0
C1292 C 0.21776 0.24487 0.73234 0.0
C1293 C 0.17877 0.16695 0.75442 0.0
N1294 N 0.13995 0.29016 0.73103 0.0
N1295 N 0.14599 0.18278 0.74806 0.0
H1296 H 0.43252 0.01954 0.56208 0.0
H1297 H 0.71209 0.15671 0.60475 0.0
H1298 H 0.46259 0.11086 0.60226 0.0
H1299 H 0.67937 0.06722 0.56408 0.0
H1300 H 0.61329 0.11627 0.60837 0.0
H1301 H 0.51221 0.01044 0.56711 0.0
C1302 C 0.45439 0.0353 0.57232 0.0
C1303 C 0.44127 0.06598 0.58177 0.0
C1304 C 0.62773 0.10416 0.59888 0.0
C1305 C 0.53395 0.05844 0.58728 0.0
C1306 C 0.68412 0.12696 0.5969 0.0
C1307 C 0.7038 0.11579 0.58402 0.0
C1308 C 0.59128 0.07023 0.58788 0.0
C1309 C 0.66585 0.07736 0.5741 0.0
C1310 C 0.50043 0.03089 0.57512 0.0
C1311 C 0.47165 0.08684 0.59472 0.0
N1312 N 0.61164 0.05676 0.57611 0.0
N1313 N 0.51734 0.08386 0.59694 0.0
H1314 H 0.98038 0.41596 0.57005 0.0
H1315 H 0.82163 0.5427 0.60945 0.0
H1316 H 0.87603 0.34476 0.60761 0.0
H1317 H 0.91711 0.60484 0.56996 0.0
H1318 H 0.86517 0.48791 0.61397 0.0
H1319 H 0.984 0.50273 0.5752 0.0
C1320 C 0.96063 0.41951 0.57983 0.0
C1321 C 0.92767 0.37333 0.58838 0.0
C1322 C 0.8776 0.51464 0.60451 0.0
C1323 C 0.9292 0.47119 0.59398 0.0
C1324 C 0.8529 0.54603 0.602 0.0
C1325 C 0.86493 0.57708 0.58915 0.0
C1326 C 0.9144 0.51467 0.59409 0.0
C1327 C 0.90583 0.58025 0.57983 0.0
C1328 C 0.96186 0.46877 0.58266 0.0
C1329 C 0.90181 0.37965 0.60075 0.0
N1330 N 0.92836 0.54874 0.58234 0.0
N1331 N 0.90195 0.42719 0.60298 0.0
H1332 H 0.36434 0.31257 0.5754 0.0
H1333 H 0.64413 0.5405 0.60845 0.0
H1334 H 0.45964 0.28168 0.60642 0.0
H1335 H 0.56686 0.55707 0.56982 0.0
H1336 H 0.5591 0.45701 0.61492 0.0
H1337 H 0.4181 0.41007 0.58097 0.0
C1338 C 0.39513 0.32622 0.58389 0.0
C1339 C 0.40767 0.28926 0.59047 0.0
C1340 C 0.55996 0.48005 0.60536 0.0
C1341 C 0.47141 0.40115 0.59632 0.0
C1342 C 0.60822 0.52809 0.60177 0.0
C1343 C 0.61211 0.55561 0.58865 0.0
C1344 C 0.5156 0.45942 0.59565 0.0
C1345 C 0.56517 0.53721 0.58011 0.0
C1346 C 0.42628 0.38199 0.58694 0.0
C1347 C 0.44863 0.30901 0.60118 0.0
N1348 N 0.51905 0.48962 0.58361 0.0
N1349 N 0.48015 0.36399 0.6035 0.0
loop_
_geom_bond_atom_site_label_1
_geom_bond_atom_site_label_2
_geom_bond_distance
_geom_bond_site_symmetry_2
_ccdc_geom_bond_type
Zn0 O6 1.920 . S
Zn0 O12 1.898 . S
Zn0 O15 1.905 . S
Zn1 O9 1.905 . S
Zn1 O10 1.898 . S
Zn1 O18 1.920 . S
Zn2 O5 2.080 . S
Zn2 O8 2.114 . S
Zn2 O11 2.120 1_545 S
Zn2 O13 2.120 . S
Zn2 O14 2.114 . S
Zn2 O17 2.080 1_545 S
C3 O8 1.166 1_565 S
C3 O9 1.182 . S
C4 O10 1.167 . S
C4 O11 1.299 . S
O5 Zn2 2.080 . S
O5 C19 1.305 . S
O6 Zn0 1.920 . S
O6 C19 1.234 . S
C7 O12 1.167 . S
C7 O13 1.299 . S
O8 Zn2 2.114 . S
O8 C3 1.166 1_545 S
O9 Zn1 1.905 . S
O9 C3 1.182 . S
O10 Zn1 1.898 . S
O10 C4 1.167 . S
O11 Zn2 2.120 1_565 S
O11 C4 1.299 . S
O12 Zn0 1.898 . S
O12 C7 1.167 . S
O13 Zn2 2.120 . S
O13 C7 1.299 . S
O14 Zn2 2.114 . S
O14 C16 1.166 . S
O15 Zn0 1.905 . S
O15 C16 1.182 . S
C16 O14 1.166 . S
C16 O15 1.182 . S
O17 Zn2 2.080 1_565 S
O17 C20 1.305 . S
O18 Zn1 1.920 . S
O18 C20 1.234 . S
C19 O5 1.305 . S
C19 O6 1.234 . S
C20 O17 1.305 . S
C20 O18 1.234 . S
Zn21 O27 1.920 . S
Zn21 O33 1.898 . S
Zn21 O36 1.905 . S
Zn22 O30 1.905 . S
Zn22 O31 1.898 . S
Zn22 O39 1.920 . S
Zn23 O26 2.080 . S
Zn23 O29 2.114 . S
Zn23 O32 2.120 . S
Zn23 O34 2.120 1_455 S
Zn23 O35 2.114 1_455 S
Zn23 O38 2.080 . S
C24 O29 1.166 . S
C24 O30 1.182 . S
C25 O31 1.167 . S
C25 O32 1.299 . S
O26 Zn23 2.080 . S
O26 C40 1.305 1_455 S
O27 Zn21 1.920 . S
O27 C40 1.234 . S
C28 O33 1.167 . S
C28 O34 1.299 . S
O29 Zn23 2.114 . S
O29 C24 1.166 . S
O30 Zn22 1.905 . S
O30 C24 1.182 . S
O31 Zn22 1.898 . S
O31 C25 1.167 . S
O32 Zn23 2.120 . S
O32 C25 1.299 . S
O33 Zn21 1.898 . S
O33 C28 1.167 . S
O34 Zn23 2.120 1_655 S
O34 C28 1.299 . S
O35 Zn23 2.114 1_655 S
O35 C37 1.166 . S
O36 Zn21 1.905 . S
O36 C37 1.182 . S
C37 O35 1.166 . S
C37 O36 1.182 . S
O38 Zn23 2.080 . S
O38 C41 1.305 . S
O39 Zn22 1.920 . S
O39 C41 1.234 . S
C40 O26 1.305 1_655 S
C40 O27 1.234 . S
C41 O38 1.305 . S
C41 O39 1.234 . S
Zn42 O48 1.920 . S
Zn42 O54 1.898 . S
Zn42 O57 1.905 . S
Zn43 O51 1.905 . S
Zn43 O52 1.898 . S
Zn43 O60 1.920 . S
Zn44 O47 2.080 . S
Zn44 O50 2.114 . S
Zn44 O53 2.120 . S
Zn44 O55 2.120 . S
Zn44 O56 2.114 . S
Zn44 O59 2.080 . S
C45 O50 1.166 . S
C45 O51 1.182 . S
C46 O52 1.167 . S
C46 O53 1.299 . S
O47 Zn44 2.080 . S
O47 C61 1.305 . S
O48 Zn42 1.920 . S
O48 C61 1.234 . S
C49 O54 1.167 . S
C49 O55 1.299 . S
O50 Zn44 2.114 . S
O50 C45 1.166 . S
O51 Zn43 1.905 . S
O51 C45 1.182 . S
O52 Zn43 1.898 . S
O52 C46 1.167 . S
O53 Zn44 2.120 . S
O53 C46 1.299 . S
O54 Zn42 1.898 . S
O54 C49 1.167 . S
O55 Zn44 2.120 . S
O55 C49 1.299 . S
O56 Zn44 2.114 . S
O56 C58 1.166 . S
O57 Zn42 1.905 . S
O57 C58 1.182 . S
C58 O56 1.166 . S
C58 O57 1.182 . S
O59 Zn44 2.080 . S
O59 C62 1.305 . S
O60 Zn43 1.920 . S
O60 C62 1.234 . S
C61 O47 1.305 . S
C61 O48 1.234 . S
C62 O59 1.305 . S
C62 O60 1.234 . S
Zn63 O69 1.920 . S
Zn63 O75 1.898 . S
Zn63 O78 1.905 . S
Zn64 O72 1.905 . S
Zn64 O73 1.898 . S
Zn64 O81 1.920 . S
Zn65 O68 2.080 . S
Zn65 O71 2.114 . S
Zn65 O74 2.120 1_455 S
Zn65 O76 2.120 . S
Zn65 O77 2.114 . S
Zn65 O80 2.080 1_455 S
C66 O71 1.166 1_655 S
C66 O72 1.182 . S
C67 O73 1.167 . S
C67 O74 1.299 . S
O68 Zn65 2.080 . S
O68 C82 1.305 . S
O69 Zn63 1.920 . S
O69 C82 1.234 . S
C70 O75 1.167 . S
C70 O76 1.299 . S
O71 Zn65 2.114 . S
O71 C66 1.166 1_455 S
O72 Zn64 1.905 . S
O72 C66 1.182 . S
O73 Zn64 1.898 . S
O73 C67 1.167 . S
O74 Zn65 2.120 1_655 S
O74 C67 1.299 . S
O75 Zn63 1.898 . S
O75 C70 1.167 . S
O76 Zn65 2.120 . S
O76 C70 1.299 . S
O77 Zn65 2.114 . S
O77 C79 1.166 . S
O78 Zn63 1.905 . S
O78 C79 1.182 . S
C79 O77 1.166 . S
C79 O78 1.182 . S
O80 Zn65 2.080 1_655 S
O80 C83 1.305 . S
O81 Zn64 1.920 . S
O81 C83 1.234 . S
C82 O68 1.305 . S
C82 O69 1.234 . S
C83 O80 1.305 . S
C83 O81 1.234 . S
Zn84 O90 1.920 . S
Zn84 O96 1.898 . S
Zn84 O99 1.905 . S
Zn85 O93 1.905 . S
Zn85 O94 1.898 . S
Zn85 O102 1.920 . S
Zn86 O89 2.080 . S
Zn86 O92 2.114 . S
Zn86 O95 2.120 . S
Zn86 O97 2.120 . S
Zn86 O98 2.114 . S
Zn86 O101 2.080 . S
C87 O92 1.166 . S
C87 O93 1.182 . S
C88 O94 1.167 . S
C88 O95 1.299 . S
O89 Zn86 2.080 . S
O89 C103 1.305 . S
O90 Zn84 1.920 . S
O90 C103 1.234 . S
C91 O96 1.167 . S
C91 O97 1.299 . S
O92 Zn86 2.114 . S
O92 C87 1.166 . S
O93 Zn85 1.905 . S
O93 C87 1.182 . S
O94 Zn85 1.898 . S
O94 C88 1.167 . S
O95 Zn86 2.120 . S
O95 C88 1.299 . S
O96 Zn84 1.898 . S
O96 C91 1.167 . S
O97 Zn86 2.120 . S
O97 C91 1.299 . S
O98 Zn86 2.114 . S
O98 C100 1.166 . S
O99 Zn84 1.905 . S
O99 C100 1.182 . S
C100 O98 1.166 . S
C100 O99 1.182 . S
O101 Zn86 2.080 . S
O101 C104 1.305 . S
O102 Zn85 1.920 . S
O102 C104 1.234 . S
C103 O89 1.305 . S
C103 O90 1.234 . S
C104 O101 1.305 . S
C104 O102 1.234 . S
Zn105 O111 1.920 . S
Zn105 O117 1.898 . S
Zn105 O120 1.905 . S
Zn106 O114 1.905 . S
Zn106 O115 1.898 . S
Zn106 O123 1.920 . S
Zn107 O110 2.080 . S
Zn107 O113 2.114 . S
Zn107 O116 2.120 . S
Zn107 O118 2.120 1_545 S
Zn107 O119 2.114 1_545 S
Zn107 O122 2.080 . S
C108 O113 1.166 . S
C108 O114 1.182 . S
C109 O115 1.167 . S
C109 O116 1.299 . S
O110 Zn107 2.080 . S
O110 C124 1.305 1_545 S
O111 Zn105 1.920 . S
O111 C124 1.234 . S
C112 O117 1.167 . S
C112 O118 1.299 . S
O113 Zn107 2.114 . S
O113 C108 1.166 . S
O114 Zn106 1.905 . S
O114 C108 1.182 . S
O115 Zn106 1.898 . S
O115 C109 1.167 . S
O116 Zn107 2.120 . S
O116 C109 1.299 . S
O117 Zn105 1.898 . S
O117 C112 1.167 . S
O118 Zn107 2.120 1_565 S
O118 C112 1.299 . S
O119 Zn107 2.114 1_565 S
O119 C121 1.166 . S
O120 Zn105 1.905 . S
O120 C121 1.182 . S
C121 O119 1.166 . S
C121 O120 1.182 . S
O122 Zn107 2.080 . S
O122 C125 1.305 . S
O123 Zn106 1.920 . S
O123 C125 1.234 . S
C124 O110 1.305 1_565 S
C124 O111 1.234 . S
C125 O122 1.305 . S
C125 O123 1.234 . S
Zn126 O132 1.920 . S
Zn126 O138 1.898 . S
Zn126 O141 1.905 . S
Zn127 O135 1.905 . S
Zn127 O136 1.898 . S
Zn127 O144 1.920 1_455 S
Zn128 O131 2.080 . S
Zn128 O134 2.114 . S
Zn128 O137 2.120 . S
Zn128 O139 2.120 . S
Zn128 O140 2.114 . S
Zn128 O143 2.080 . S
C129 O134 1.166 . S
C129 O135 1.182 . S
C130 O136 1.167 . S
C130 O137 1.299 . S
O131 Zn128 2.080 . S
O131 C145 1.305 . S
O132 Zn126 1.920 . S
O132 C145 1.234 . S
C133 O138 1.167 . S
C133 O139 1.299 . S
O134 Zn128 2.114 . S
O134 C129 1.166 . S
O135 Zn127 1.905 . S
O135 C129 1.182 . S
O136 Zn127 1.898 . S
O136 C130 1.167 . S
O137 Zn128 2.120 . S
O137 C130 1.299 . S
O138 Zn126 1.898 . S
O138 C133 1.167 . S
O139 Zn128 2.120 . S
O139 C133 1.299 . S
O140 Zn128 2.114 . S
O140 C142 1.166 . S
O141 Zn126 1.905 . S
O141 C142 1.182 . S
C142 O140 1.166 . S
C142 O141 1.182 . S
O143 Zn128 2.080 . S
O143 C146 1.305 1_455 S
O144 Zn127 1.920 1_655 S
O144 C146 1.234 . S
C145 O131 1.305 . S
C145 O132 1.234 . S
C146 O143 1.305 1_655 S
C146 O144 1.234 . S
Zn147 O153 1.920 . S
Zn147 O159 1.898 . S
Zn147 O162 1.905 . S
Zn148 O156 1.905 . S
Zn148 O157 1.898 . S
Zn148 O165 1.920 . S
Zn149 O152 2.080 . S
Zn149 O155 2.114 . S
Zn149 O158 2.120 . S
Zn149 O160 2.120 . S
Zn149 O161 2.114 . S
Zn149 O164 2.080 . S
C150 O155 1.166 . S
C150 O156 1.182 . S
C151 O157 1.167 . S
C151 O158 1.299 . S
O152 Zn149 2.080 . S
O152 C166 1.305 . S
O153 Zn147 1.920 . S
O153 C166 1.234 . S
C154 O159 1.167 . S
C154 O160 1.299 . S
O155 Zn149 2.114 . S
O155 C150 1.166 . S
O156 Zn148 1.905 . S
O156 C150 1.182 . S
O157 Zn148 1.898 . S
O157 C151 1.167 . S
O158 Zn149 2.120 . S
O158 C151 1.299 . S
O159 Zn147 1.898 . S
O159 C154 1.167 . S
O160 Zn149 2.120 . S
O160 C154 1.299 . S
O161 Zn149 2.114 . S
O161 C163 1.166 . S
O162 Zn147 1.905 . S
O162 C163 1.182 . S
C163 O161 1.166 . S
C163 O162 1.182 . S
O164 Zn149 2.080 . S
O164 C167 1.305 . S
O165 Zn148 1.920 . S
O165 C167 1.234 . S
C166 O152 1.305 . S
C166 O153 1.234 . S
C167 O164 1.305 . S
C167 O165 1.234 . S
Zn168 O174 1.920 1_565 S
Zn168 O180 1.898 . S
Zn168 O183 1.905 . S
Zn169 O177 1.905 . S
Zn169 O178 1.898 . S
Zn169 O186 1.920 . S
Zn170 O173 2.080 . S
Zn170 O176 2.114 . S
Zn170 O179 2.120 . S
Zn170 O181 2.120 . S
Zn170 O182 2.114 . S
Zn170 O185 2.080 . S
C171 O176 1.166 . S
C171 O177 1.182 . S
C172 O178 1.167 . S
C172 O179 1.299 . S
O173 Zn170 2.080 . S
O173 C187 1.305 1_565 S
O174 Zn168 1.920 1_545 S
O174 C187 1.234 . S
C175 O180 1.167 . S
C175 O181 1.299 . S
O176 Zn170 2.114 . S
O176 C171 1.166 . S
O177 Zn169 1.905 . S
O177 C171 1.182 . S
O178 Zn169 1.898 . S
O178 C172 1.167 . S
O179 Zn170 2.120 . S
O179 C172 1.299 . S
O180 Zn168 1.898 . S
O180 C175 1.167 . S
O181 Zn170 2.120 . S
O181 C175 1.299 . S
O182 Zn170 2.114 . S
O182 C184 1.166 . S
O183 Zn168 1.905 . S
O183 C184 1.182 . S
C184 O182 1.166 . S
C184 O183 1.182 . S
O185 Zn170 2.080 . S
O185 C188 1.305 . S
O186 Zn169 1.920 . S
O186 C188 1.234 . S
C187 O173 1.305 1_545 S
C187 O174 1.234 . S
C188 O185 1.305 . S
C188 O186 1.234 . S
Zn189 O195 1.920 . S
Zn189 O201 1.898 . S
Zn189 O204 1.905 . S
Zn190 O198 1.905 . S
Zn190 O199 1.898 . S
Zn190 O207 1.920 . S
Zn191 O194 2.080 . S
Zn191 O197 2.114 . S
Zn191 O200 2.120 . S
Zn191 O202 2.120 . S
Zn191 O203 2.114 . S
Zn191 O206 2.080 . S
C192 O197 1.166 . S
C192 O198 1.182 . S
C193 O199 1.167 . S
C193 O200 1.299 . S
O194 Zn191 2.080 . S
O194 C208 1.305 . S
O195 Zn189 1.920 . S
O195 C208 1.234 . S
C196 O201 1.167 . S
C196 O202 1.299 . S
O197 Zn191 2.114 . S
O197 C192 1.166 . S
O198 Zn190 1.905 . S
O198 C192 1.182 . S
O199 Zn190 1.898 . S
O199 C193 1.167 . S
O200 Zn191 2.120 . S
O200 C193 1.299 . S
O201 Zn189 1.898 . S
O201 C196 1.167 . S
O202 Zn191 2.120 . S
O202 C196 1.299 . S
O203 Zn191 2.114 . S
O203 C205 1.166 . S
O204 Zn189 1.905 . S
O204 C205 1.182 . S
C205 O203 1.166 . S
C205 O204 1.182 . S
O206 Zn191 2.080 . S
O206 C209 1.305 . S
O207 Zn190 1.920 . S
O207 C209 1.234 . S
C208 O194 1.305 . S
C208 O195 1.234 . S
C209 O206 1.305 . S
C209 O207 1.234 . S
Zn210 O216 1.920 . S
Zn210 O222 1.898 . S
Zn210 O225 1.905 . S
Zn211 O219 1.905 . S
Zn211 O220 1.898 1_565 S
Zn211 O228 1.920 . S
Zn212 O215 2.080 . S
Zn212 O218 2.114 . S
Zn212 O221 2.120 . S
Zn212 O223 2.120 . S
Zn212 O224 2.114 . S
Zn212 O227 2.080 . S
C213 O218 1.166 . S
C213 O219 1.182 . S
C214 O220 1.167 . S
C214 O221 1.299 1_545 S
O215 Zn212 2.080 . S
O215 C229 1.305 . S
O216 Zn210 1.920 . S
O216 C229 1.234 . S
C217 O222 1.167 . S
C217 O223 1.299 . S
O218 Zn212 2.114 . S
O218 C213 1.166 . S
O219 Zn211 1.905 . S
O219 C213 1.182 . S
O220 Zn211 1.898 1_545 S
O220 C214 1.167 . S
O221 Zn212 2.120 . S
O221 C214 1.299 1_565 S
O222 Zn210 1.898 . S
O222 C217 1.167 . S
O223 Zn212 2.120 . S
O223 C217 1.299 . S
O224 Zn212 2.114 . S
O224 C226 1.166 . S
O225 Zn210 1.905 . S
O225 C226 1.182 . S
C226 O224 1.166 . S
C226 O225 1.182 . S
O227 Zn212 2.080 . S
O227 C230 1.305 . S
O228 Zn211 1.920 . S
O228 C230 1.234 . S
C229 O215 1.305 . S
C229 O216 1.234 . S
C230 O227 1.305 . S
C230 O228 1.234 . S
Zn231 O237 1.920 . S
Zn231 O243 1.898 1_455 S
Zn231 O246 1.905 . S
Zn232 O240 1.905 . S
Zn232 O241 1.898 . S
Zn232 O249 1.920 . S
Zn233 O236 2.080 . S
Zn233 O239 2.114 . S
Zn233 O242 2.120 . S
Zn233 O244 2.120 . S
Zn233 O245 2.114 . S
Zn233 O248 2.080 . S
C234 O239 1.166 . S
C234 O240 1.182 . S
C235 O241 1.167 . S
C235 O242 1.299 . S
O236 Zn233 2.080 . S
O236 C250 1.305 . S
O237 Zn231 1.920 . S
O237 C250 1.234 . S
C238 O243 1.167 . S
C238 O244 1.299 1_655 S
O239 Zn233 2.114 . S
O239 C234 1.166 . S
O240 Zn232 1.905 . S
O240 C234 1.182 . S
O241 Zn232 1.898 . S
O241 C235 1.167 . S
O242 Zn233 2.120 . S
O242 C235 1.299 . S
O243 Zn231 1.898 1_655 S
O243 C238 1.167 . S
O244 Zn233 2.120 . S
O244 C238 1.299 1_455 S
O245 Zn233 2.114 . S
O245 C247 1.166 . S
O246 Zn231 1.905 . S
O246 C247 1.182 . S
C247 O245 1.166 . S
C247 O246 1.182 . S
O248 Zn233 2.080 . S
O248 C251 1.305 . S
O249 Zn232 1.920 . S
O249 C251 1.234 . S
C250 O236 1.305 . S
C250 O237 1.234 . S
C251 O248 1.305 . S
C251 O249 1.234 . S
Zn252 O258 1.920 . S
Zn252 O264 1.898 . S
Zn252 O267 1.905 . S
Zn253 O261 1.905 . S
Zn253 O262 1.898 . S
Zn253 O270 1.920 . S
Zn254 O257 2.080 . S
Zn254 O260 2.114 . S
Zn254 O263 2.120 . S
Zn254 O265 2.120 . S
Zn254 O266 2.114 . S
Zn254 O269 2.080 . S
C255 O260 1.166 . S
C255 O261 1.182 . S
C256 O262 1.167 . S
C256 O263 1.299 . S
O257 Zn254 2.080 . S
O257 C271 1.305 . S
O258 Zn252 1.920 . S
O258 C271 1.234 . S
C259 O264 1.167 . S
C259 O265 1.299 . S
O260 Zn254 2.114 . S
O260 C255 1.166 . S
O261 Zn253 1.905 . S
O261 C255 1.182 . S
O262 Zn253 1.898 . S
O262 C256 1.167 . S
O263 Zn254 2.120 . S
O263 C256 1.299 . S
O264 Zn252 1.898 . S
O264 C259 1.167 . S
O265 Zn254 2.120 . S
O265 C259 1.299 . S
O266 Zn254 2.114 . S
O266 C268 1.166 . S
O267 Zn252 1.905 . S
O267 C268 1.182 . S
C268 O266 1.166 . S
C268 O267 1.182 . S
O269 Zn254 2.080 . S
O269 C272 1.305 . S
O270 Zn253 1.920 . S
O270 C272 1.234 . S
C271 O257 1.305 . S
C271 O258 1.234 . S
C272 O269 1.305 . S
C272 O270 1.234 . S
Zn273 O279 1.920 . S
Zn273 O285 1.898 1_545 S
Zn273 O288 1.905 . S
Zn274 O282 1.905 . S
Zn274 O283 1.898 . S
Zn274 O291 1.920 . S
Zn275 O278 2.080 . S
Zn275 O281 2.114 . S
Zn275 O284 2.120 . S
Zn275 O286 2.120 . S
Zn275 O287 2.114 . S
Zn275 O290 2.080 . S
C276 O281 1.166 . S
C276 O282 1.182 . S
C277 O283 1.167 . S
C277 O284 1.299 . S
O278 Zn275 2.080 . S
O278 C292 1.305 . S
O279 Zn273 1.920 . S
O279 C292 1.234 . S
C280 O285 1.167 . S
C280 O286 1.299 1_565 S
O281 Zn275 2.114 . S
O281 C276 1.166 . S
O282 Zn274 1.905 . S
O282 C276 1.182 . S
O283 Zn274 1.898 . S
O283 C277 1.167 . S
O284 Zn275 2.120 . S
O284 C277 1.299 . S
O285 Zn273 1.898 1_565 S
O285 C280 1.167 . S
O286 Zn275 2.120 . S
O286 C280 1.299 1_545 S
O287 Zn275 2.114 . S
O287 C289 1.166 . S
O288 Zn273 1.905 . S
O288 C289 1.182 . S
C289 O287 1.166 . S
C289 O288 1.182 . S
O290 Zn275 2.080 . S
O290 C293 1.305 . S
O291 Zn274 1.920 . S
O291 C293 1.234 . S
C292 O278 1.305 . S
C292 O279 1.234 . S
C293 O290 1.305 . S
C293 O291 1.234 . S
Zn294 O300 1.920 . S
Zn294 O306 1.898 . S
Zn294 O309 1.905 . S
Zn295 O303 1.905 . S
Zn295 O304 1.898 1_655 S
Zn295 O312 1.920 . S
Zn296 O299 2.080 . S
Zn296 O302 2.114 . S
Zn296 O305 2.120 . S
Zn296 O307 2.120 . S
Zn296 O308 2.114 . S
Zn296 O311 2.080 . S
C297 O302 1.166 . S
C297 O303 1.182 . S
C298 O304 1.167 . S
C298 O305 1.299 1_455 S
O299 Zn296 2.080 . S
O299 C313 1.305 . S
O300 Zn294 1.920 . S
O300 C313 1.234 . S
C301 O306 1.167 . S
C301 O307 1.299 . S
O302 Zn296 2.114 . S
O302 C297 1.166 . S
O303 Zn295 1.905 . S
O303 C297 1.182 . S
O304 Zn295 1.898 1_455 S
O304 C298 1.167 . S
O305 Zn296 2.120 . S
O305 C298 1.299 1_655 S
O306 Zn294 1.898 . S
O306 C301 1.167 . S
O307 Zn296 2.120 . S
O307 C301 1.299 . S
O308 Zn296 2.114 . S
O308 C310 1.166 . S
O309 Zn294 1.905 . S
O309 C310 1.182 . S
C310 O308 1.166 . S
C310 O309 1.182 . S
O311 Zn296 2.080 . S
O311 C314 1.305 . S
O312 Zn295 1.920 . S
O312 C314 1.234 . S
C313 O299 1.305 . S
C313 O300 1.234 . S
C314 O311 1.305 . S
C314 O312 1.234 . S
Zn315 O321 1.920 . S
Zn315 O327 1.898 . S
Zn315 O330 1.905 . S
Zn316 O324 1.905 . S
Zn316 O325 1.898 . S
Zn316 O333 1.920 1_545 S
Zn317 O320 2.080 . S
Zn317 O323 2.114 . S
Zn317 O326 2.120 . S
Zn317 O328 2.120 . S
Zn317 O329 2.114 . S
Zn317 O332 2.080 . S
C318 O323 1.166 . S
C318 O324 1.182 . S
C319 O325 1.167 . S
C319 O326 1.299 . S
O320 Zn317 2.080 . S
O320 C334 1.305 . S
O321 Zn315 1.920 . S
O321 C334 1.234 . S
C322 O327 1.167 . S
C322 O328 1.299 . S
O323 Zn317 2.114 . S
O323 C318 1.166 . S
O324 Zn316 1.905 . S
O324 C318 1.182 . S
O325 Zn316 1.898 . S
O325 C319 1.167 . S
O326 Zn317 2.120 . S
O326 C319 1.299 . S
O327 Zn315 1.898 . S
O327 C322 1.167 . S
O328 Zn317 2.120 . S
O328 C322 1.299 . S
O329 Zn317 2.114 . S
O329 C331 1.166 . S
O330 Zn315 1.905 . S
O330 C331 1.182 . S
C331 O329 1.166 . S
C331 O330 1.182 . S
O332 Zn317 2.080 . S
O332 C335 1.305 1_545 S
O333 Zn316 1.920 1_565 S
O333 C335 1.234 . S
C334 O320 1.305 . S
C334 O321 1.234 . S
C335 O332 1.305 1_565 S
C335 O333 1.234 . S
Zn336 O342 1.920 . S
Zn336 O348 1.898 . S
Zn336 O351 1.905 . S
Zn337 O345 1.905 . S
Zn337 O346 1.898 . S
Zn337 O354 1.920 1_655 S
Zn338 O341 2.080 . S
Zn338 O344 2.114 . S
Zn338 O347 2.120 . S
Zn338 O349 2.120 . S
Zn338 O350 2.114 . S
Zn338 O353 2.080 . S
C339 O344 1.166 . S
C339 O345 1.182 . S
C340 O346 1.167 . S
C340 O347 1.299 . S
O341 Zn338 2.080 . S
O341 C355 1.305 . S
O342 Zn336 1.920 . S
O342 C355 1.234 . S
C343 O348 1.167 . S
C343 O349 1.299 . S
O344 Zn338 2.114 . S
O344 C339 1.166 . S
O345 Zn337 1.905 . S
O345 C339 1.182 . S
O346 Zn337 1.898 . S
O346 C340 1.167 . S
O347 Zn338 2.120 . S
O347 C340 1.299 . S
O348 Zn336 1.898 . S
O348 C343 1.167 . S
O349 Zn338 2.120 . S
O349 C343 1.299 . S
O350 Zn338 2.114 . S
O350 C352 1.166 . S
O351 Zn336 1.905 . S
O351 C352 1.182 . S
C352 O350 1.166 . S
C352 O351 1.182 . S
O353 Zn338 2.080 . S
O353 C356 1.305 1_655 S
O354 Zn337 1.920 1_455 S
O354 C356 1.234 . S
C355 O341 1.305 . S
C355 O342 1.234 . S
C356 O353 1.305 1_455 S
C356 O354 1.234 . S
Zn357 O363 1.920 . S
Zn357 O369 1.898 . S
Zn357 O372 1.905 . S
Zn358 O366 1.905 . S
Zn358 O367 1.898 . S
Zn358 O375 1.920 . S
Zn359 O362 2.080 . S
Zn359 O365 2.114 . S
Zn359 O368 2.120 . S
Zn359 O370 2.120 . S
Zn359 O371 2.114 . S
Zn359 O374 2.080 . S
C360 O365 1.166 . S
C360 O366 1.182 . S
C361 O367 1.167 . S
C361 O368 1.299 . S
O362 Zn359 2.080 . S
O362 C376 1.305 . S
O363 Zn357 1.920 . S
O363 C376 1.234 . S
C364 O369 1.167 . S
C364 O370 1.299 . S
O365 Zn359 2.114 . S
O365 C360 1.166 . S
O366 Zn358 1.905 . S
O366 C360 1.182 . S
O367 Zn358 1.898 . S
O367 C361 1.167 . S
O368 Zn359 2.120 . S
O368 C361 1.299 . S
O369 Zn357 1.898 . S
O369 C364 1.167 . S
O370 Zn359 2.120 . S
O370 C364 1.299 . S
O371 Zn359 2.114 . S
O371 C373 1.166 . S
O372 Zn357 1.905 . S
O372 C373 1.182 . S
C373 O371 1.166 . S
C373 O372 1.182 . S
O374 Zn359 2.080 . S
O374 C377 1.305 . S
O375 Zn358 1.920 . S
O375 C377 1.234 . S
C376 O362 1.305 . S
C376 O363 1.234 . S
C377 O374 1.305 . S
C377 O375 1.234 . S
H378 C384 0.930 . S
H379 C388 0.930 . S
H380 C393 0.929 . S
H381 C391 0.929 . S
H382 C386 0.929 . S
H383 C392 0.929 . S
C384 H378 0.930 . S
C384 C385 1.367 . S
C384 C392 1.378 . S
C385 C384 1.367 . S
C385 C393 1.433 . S
C386 H382 0.929 . S
C386 C388 1.378 . S
C386 C390 1.350 . S
C387 C390 1.463 . S
C387 C392 1.350 . S
C387 N395 1.427 . S
C388 H379 0.930 . S
C388 C386 1.378 . S
C388 C389 1.367 . S
C389 C388 1.367 . S
C389 C391 1.433 . S
C390 C386 1.350 . S
C390 C387 1.463 . S
C390 N394 1.427 . S
C391 H381 0.929 . S
C391 C389 1.433 . S
C391 N394 1.384 . S
C392 H383 0.929 . S
C392 C384 1.378 . S
C392 C387 1.350 . S
C393 H380 0.929 . S
C393 C385 1.433 . S
C393 N395 1.384 . S
N394 C390 1.427 . S
N394 C391 1.384 . S
N395 C387 1.427 . S
N395 C393 1.384 . S
H396 C402 0.930 . S
H397 C406 0.930 . S
H398 C411 0.929 . S
H399 C409 0.929 . S
H400 C404 0.929 . S
H401 C410 0.929 . S
C402 H396 0.930 . S
C402 C403 1.367 . S
C402 C410 1.378 . S
C403 C402 1.367 . S
C403 C411 1.433 . S
C404 H400 0.929 . S
C404 C406 1.378 . S
C404 C408 1.350 . S
C405 C408 1.463 . S
C405 C410 1.350 . S
C405 N413 1.427 . S
C406 H397 0.930 . S
C406 C404 1.378 . S
C406 C407 1.367 . S
C407 C406 1.367 . S
C407 C409 1.433 . S
C408 C404 1.350 . S
C408 C405 1.463 . S
C408 N412 1.427 . S
C409 H399 0.929 . S
C409 C407 1.433 . S
C409 N412 1.384 . S
C410 H401 0.929 . S
C410 C402 1.378 . S
C410 C405 1.350 . S
C411 H398 0.929 . S
C411 C403 1.433 . S
C411 N413 1.384 . S
N412 C408 1.427 . S
N412 C409 1.384 . S
N413 C405 1.427 . S
N413 C411 1.384 . S
H414 C420 0.930 . S
H415 C424 0.930 . S
H416 C429 0.929 . S
H417 C427 0.929 . S
H418 C422 0.929 . S
H419 C428 0.929 . S
C420 H414 0.930 . S
C420 C421 1.367 . S
C420 C428 1.378 . S
C421 C420 1.367 . S
C421 C429 1.433 . S
C422 H418 0.929 . S
C422 C424 1.378 . S
C422 C426 1.350 . S
C423 C426 1.463 . S
C423 C428 1.350 . S
C423 N431 1.427 . S
C424 H415 0.930 . S
C424 C422 1.378 . S
C424 C425 1.367 . S
C425 C424 1.367 . S
C425 C427 1.433 . S
C426 C422 1.350 . S
C426 C423 1.463 . S
C426 N430 1.427 . S
C427 H417 0.929 . S
C427 C425 1.433 . S
C427 N430 1.384 . S
C428 H419 0.929 . S
C428 C420 1.378 . S
C428 C423 1.350 . S
C429 H416 0.929 . S
C429 C421 1.433 . S
C429 N431 1.384 . S
N430 C426 1.427 . S
N430 C427 1.384 . S
N431 C423 1.427 . S
N431 C429 1.384 . S
H432 C438 0.930 . S
H433 C442 0.930 . S
H434 C447 0.929 . S
H435 C445 0.929 . S
H436 C440 0.929 . S
H437 C446 0.929 . S
C438 H432 0.930 . S
C438 C439 1.367 . S
C438 C446 1.378 . S
C439 C438 1.367 . S
C439 C447 1.433 . S
C440 H436 0.929 . S
C440 C442 1.378 . S
C440 C444 1.350 . S
C441 C444 1.463 . S
C441 C446 1.350 . S
C441 N449 1.427 . S
C442 H433 0.930 . S
C442 C440 1.378 . S
C442 C443 1.367 . S
C443 C442 1.367 . S
C443 C445 1.433 . S
C444 C440 1.350 . S
C444 C441 1.463 . S
C444 N448 1.427 . S
C445 H435 0.929 . S
C445 C443 1.433 . S
C445 N448 1.384 . S
C446 H437 0.929 . S
C446 C438 1.378 . S
C446 C441 1.350 . S
C447 H434 0.929 . S
C447 C439 1.433 . S
C447 N449 1.384 . S
N448 C444 1.427 . S
N448 C445 1.384 . S
N449 C441 1.427 . S
N449 C447 1.384 . S
H450 C456 0.930 . S
H451 C460 0.930 . S
H452 C465 0.929 . S
H453 C463 0.929 . S
H454 C458 0.929 . S
H455 C464 0.929 . S
C456 H450 0.930 . S
C456 C457 1.367 . S
C456 C464 1.378 . S
C457 C456 1.367 . S
C457 C465 1.433 . S
C458 H454 0.929 . S
C458 C460 1.378 . S
C458 C462 1.350 . S
C459 C462 1.463 . S
C459 C464 1.350 . S
C459 N467 1.427 . S
C460 H451 0.930 . S
C460 C458 1.378 . S
C460 C461 1.367 . S
C461 C460 1.367 . S
C461 C463 1.433 . S
C462 C458 1.350 . S
C462 C459 1.463 . S
C462 N466 1.427 . S
C463 H453 0.929 . S
C463 C461 1.433 . S
C463 N466 1.384 . S
C464 H455 0.929 . S
C464 C456 1.378 . S
C464 C459 1.350 . S
C465 H452 0.929 . S
C465 C457 1.433 . S
C465 N467 1.384 . S
N466 C462 1.427 . S
N466 C463 1.384 . S
N467 C459 1.427 . S
N467 C465 1.384 . S
H468 C474 0.930 . S
H469 C478 0.930 . S
H470 C483 0.929 . S
H471 C481 0.929 . S
H472 C476 0.929 . S
H473 C482 0.929 . S
C474 H468 0.930 . S
C474 C475 1.367 . S
C474 C482 1.378 . S
C475 C474 1.367 . S
C475 C483 1.433 . S
C476 H472 0.929 . S
C476 C478 1.378 . S
C476 C480 1.350 . S
C477 C480 1.463 . S
C477 C482 1.350 . S
C477 N485 1.427 . S
C478 H469 0.930 . S
C478 C476 1.378 . S
C478 C479 1.367 . S
C479 C478 1.367 . S
C479 C481 1.433 . S
C480 C476 1.350 . S
C480 C477 1.463 . S
C480 N484 1.427 . S
C481 H471 0.929 . S
C481 C479 1.433 . S
C481 N484 1.384 . S
C482 H473 0.929 . S
C482 C474 1.378 . S
C482 C477 1.350 . S
C483 H470 0.929 . S
C483 C475 1.433 . S
C483 N485 1.384 . S
N484 C480 1.427 . S
N484 C481 1.384 . S
N485 C477 1.427 . S
N485 C483 1.384 . S
H486 C492 0.930 . S
H487 C496 0.930 . S
H488 C501 0.929 . S
H489 C499 0.929 . S
H490 C494 0.929 . S
H491 C500 0.929 . S
C492 H486 0.930 . S
C492 C493 1.367 . S
C492 C500 1.378 . S
C493 C492 1.367 . S
C493 C501 1.433 . S
C494 H490 0.929 . S
C494 C496 1.378 . S
C494 C498 1.350 . S
C495 C498 1.463 . S
C495 C500 1.350 . S
C495 N503 1.427 . S
C496 H487 0.930 . S
C496 C494 1.378 . S
C496 C497 1.367 . S
C497 C496 1.367 . S
C497 C499 1.433 . S
C498 C494 1.350 . S
C498 C495 1.463 . S
C498 N502 1.427 . S
C499 H489 0.929 . S
C499 C497 1.433 . S
C499 N502 1.384 . S
C500 H491 0.929 . S
C500 C492 1.378 . S
C500 C495 1.350 . S
C501 H488 0.929 . S
C501 C493 1.433 . S
C501 N503 1.384 . S
N502 C498 1.427 . S
N502 C499 1.384 . S
N503 C495 1.427 . S
N503 C501 1.384 . S
H504 C510 0.930 . S
H505 C514 0.930 . S
H506 C519 0.929 . S
H507 C517 0.929 . S
H508 C512 0.929 . S
H509 C518 0.929 . S
C510 H504 0.930 . S
C510 C511 1.367 . S
C510 C518 1.378 . S
C511 C510 1.367 . S
C511 C519 1.433 . S
C512 H508 0.929 . S
C512 C514 1.378 1_545 S
C512 C516 1.350 . S
C513 C516 1.463 . S
C513 C518 1.350 . S
C513 N521 1.427 . S
C514 H505 0.930 . S
C514 C512 1.378 1_565 S
C514 C515 1.367 . S
C515 C514 1.367 . S
C515 C517 1.433 . S
C516 C512 1.350 . S
C516 C513 1.463 . S
C516 N520 1.427 . S
C517 H507 0.929 . S
C517 C515 1.433 . S
C517 N520 1.384 1_565 S
C518 H509 0.929 . S
C518 C510 1.378 . S
C518 C513 1.350 . S
C519 H506 0.929 . S
C519 C511 1.433 . S
C519 N521 1.384 . S
N520 C516 1.427 . S
N520 C517 1.384 1_545 S
N521 C513 1.427 . S
N521 C519 1.384 . S
H522 C528 0.930 . S
H523 C532 0.930 . S
H524 C537 0.929 . S
H525 C535 0.929 . S
H526 C530 0.929 . S
H527 C536 0.929 1_655 S
C528 H522 0.930 . S
C528 C529 1.367 . S
C528 C536 1.378 . S
C529 C528 1.367 . S
C529 C537 1.433 . S
C530 H526 0.929 . S
C530 C532 1.378 . S
C530 C534 1.350 . S
C531 C534 1.463 . S
C531 C536 1.350 1_655 S
C531 N539 1.427 1_655 S
C532 H523 0.930 . S
C532 C530 1.378 . S
C532 C533 1.367 . S
C533 C532 1.367 . S
C533 C535 1.433 . S
C534 C530 1.350 . S
C534 C531 1.463 . S
C534 N538 1.427 . S
C535 H525 0.929 . S
C535 C533 1.433 . S
C535 N538 1.384 . S
C536 H527 0.929 1_455 S
C536 C528 1.378 . S
C536 C531 1.350 1_455 S
C537 H524 0.929 . S
C537 C529 1.433 . S
C537 N539 1.384 . S
N538 C534 1.427 . S
N538 C535 1.384 . S
N539 C531 1.427 1_455 S
N539 C537 1.384 . S
H540 C546 0.930 1_545 S
H541 C550 0.930 . S
H542 C555 0.929 . S
H543 C553 0.929 . S
H544 C548 0.929 . S
H545 C554 0.929 . S
C546 H540 0.930 1_565 S
C546 C547 1.367 . S
C546 C554 1.378 . S
C547 C546 1.367 . S
C547 C555 1.433 . S
C548 H544 0.929 . S
C548 C550 1.378 . S
C548 C552 1.350 . S
C549 C552 1.463 . S
C549 C554 1.350 . S
C549 N557 1.427 . S
C550 H541 0.930 . S
C550 C548 1.378 . S
C550 C551 1.367 . S
C551 C550 1.367 . S
C551 C553 1.433 . S
C552 C548 1.350 . S
C552 C549 1.463 . S
C552 N556 1.427 . S
C553 H543 0.929 . S
C553 C551 1.433 . S
C553 N556 1.384 . S
C554 H545 0.929 . S
C554 C546 1.378 . S
C554 C549 1.350 . S
C555 H542 0.929 . S
C555 C547 1.433 . S
C555 N557 1.384 . S
N556 C552 1.427 . S
N556 C553 1.384 . S
N557 C549 1.427 . S
N557 C555 1.384 . S
H558 C564 0.930 . S
H559 C568 0.930 . S
H560 C573 0.929 . S
H561 C571 0.929 . S
H562 C566 0.929 . S
H563 C572 0.929 . S
C564 H558 0.930 . S
C564 C565 1.367 . S
C564 C572 1.378 . S
C565 C564 1.367 . S
C565 C573 1.433 . S
C566 H562 0.929 . S
C566 C568 1.378 . S
C566 C570 1.350 . S
C567 C570 1.463 . S
C567 C572 1.350 . S
C567 N575 1.427 . S
C568 H559 0.930 . S
C568 C566 1.378 . S
C568 C569 1.367 . S
C569 C568 1.367 . S
C569 C571 1.433 . S
C570 C566 1.350 . S
C570 C567 1.463 . S
C570 N574 1.427 . S
C571 H561 0.929 . S
C571 C569 1.433 . S
C571 N574 1.384 . S
C572 H563 0.929 . S
C572 C564 1.378 . S
C572 C567 1.350 . S
C573 H560 0.929 . S
C573 C565 1.433 . S
C573 N575 1.384 . S
N574 C570 1.427 . S
N574 C571 1.384 . S
N575 C567 1.427 . S
N575 C573 1.384 . S
H576 C582 0.930 . S
H577 C586 0.930 . S
H578 C591 0.929 . S
H579 C589 0.929 . S
H580 C584 0.929 . S
H581 C590 0.929 . S
C582 H576 0.930 . S
C582 C583 1.367 . S
C582 C590 1.378 . S
C583 C582 1.367 . S
C583 C591 1.433 . S
C584 H580 0.929 . S
C584 C586 1.378 . S
C584 C588 1.350 . S
C585 C588 1.463 . S
C585 C590 1.350 . S
C585 N593 1.427 . S
C586 H577 0.930 . S
C586 C584 1.378 . S
C586 C587 1.367 . S
C587 C586 1.367 . S
C587 C589 1.433 . S
C588 C584 1.350 . S
C588 C585 1.463 . S
C588 N592 1.427 . S
C589 H579 0.929 . S
C589 C587 1.433 . S
C589 N592 1.384 . S
C590 H581 0.929 . S
C590 C582 1.378 . S
C590 C585 1.350 . S
C591 H578 0.929 . S
C591 C583 1.433 . S
C591 N593 1.384 . S
N592 C588 1.427 . S
N592 C589 1.384 . S
N593 C585 1.427 . S
N593 C591 1.384 . S
H594 C600 0.930 . S
H595 C604 0.930 . S
H596 C609 0.929 . S
H597 C607 0.929 . S
H598 C602 0.929 . S
H599 C608 0.929 . S
C600 H594 0.930 . S
C600 C601 1.367 . S
C600 C608 1.378 . S
C601 C600 1.367 . S
C601 C609 1.433 . S
C602 H598 0.929 . S
C602 C604 1.378 . S
C602 C606 1.350 . S
C603 C606 1.463 . S
C603 C608 1.350 . S
C603 N611 1.427 . S
C604 H595 0.930 . S
C604 C602 1.378 . S
C604 C605 1.367 . S
C605 C604 1.367 . S
C605 C607 1.433 . S
C606 C602 1.350 . S
C606 C603 1.463 . S
C606 N610 1.427 . S
C607 H597 0.929 . S
C607 C605 1.433 . S
C607 N610 1.384 . S
C608 H599 0.929 . S
C608 C600 1.378 . S
C608 C603 1.350 . S
C609 H596 0.929 . S
C609 C601 1.433 . S
C609 N611 1.384 . S
N610 C606 1.427 . S
N610 C607 1.384 . S
N611 C603 1.427 . S
N611 C609 1.384 . S
H612 C618 0.930 . S
H613 C622 0.930 . S
H614 C627 0.929 . S
H615 C625 0.929 . S
H616 C620 0.929 . S
H617 C626 0.929 . S
C618 H612 0.930 . S
C618 C619 1.367 . S
C618 C626 1.378 . S
C619 C618 1.367 . S
C619 C627 1.433 . S
C620 H616 0.929 . S
C620 C622 1.378 . S
C620 C624 1.350 . S
C621 C624 1.463 . S
C621 C626 1.350 . S
C621 N629 1.427 . S
C622 H613 0.930 . S
C622 C620 1.378 . S
C622 C623 1.367 . S
C623 C622 1.367 . S
C623 C625 1.433 . S
C624 C620 1.350 . S
C624 C621 1.463 . S
C624 N628 1.427 . S
C625 H615 0.929 . S
C625 C623 1.433 . S
C625 N628 1.384 . S
C626 H617 0.929 . S
C626 C618 1.378 . S
C626 C621 1.350 . S
C627 H614 0.929 . S
C627 C619 1.433 . S
C627 N629 1.384 . S
N628 C624 1.427 . S
N628 C625 1.384 . S
N629 C621 1.427 . S
N629 C627 1.384 . S
H630 C636 0.930 . S
H631 C640 0.930 . S
H632 C645 0.929 . S
H633 C643 0.929 . S
H634 C638 0.929 . S
H635 C644 0.929 . S
C636 H630 0.930 . S
C636 C637 1.367 . S
C636 C644 1.378 . S
C637 C636 1.367 . S
C637 C645 1.433 . S
C638 H634 0.929 . S
C638 C640 1.378 . S
C638 C642 1.350 . S
C639 C642 1.463 . S
C639 C644 1.350 . S
C639 N647 1.427 . S
C640 H631 0.930 . S
C640 C638 1.378 . S
C640 C641 1.367 . S
C641 C640 1.367 . S
C641 C643 1.433 . S
C642 C638 1.350 . S
C642 C639 1.463 . S
C642 N646 1.427 . S
C643 H633 0.929 . S
C643 C641 1.433 . S
C643 N646 1.384 . S
C644 H635 0.929 . S
C644 C636 1.378 . S
C644 C639 1.350 . S
C645 H632 0.929 . S
C645 C637 1.433 . S
C645 N647 1.384 . S
N646 C642 1.427 . S
N646 C643 1.384 . S
N647 C639 1.427 . S
N647 C645 1.384 . S
H648 C654 0.930 . S
H649 C658 0.930 . S
H650 C663 0.929 . S
H651 C661 0.929 . S
H652 C656 0.929 . S
H653 C662 0.929 . S
C654 H648 0.930 . S
C654 C655 1.367 . S
C654 C662 1.378 . S
C655 C654 1.367 . S
C655 C663 1.433 . S
C656 H652 0.929 . S
C656 C658 1.378 . S
C656 C660 1.350 . S
C657 C660 1.463 . S
C657 C662 1.350 . S
C657 N665 1.427 . S
C658 H649 0.930 . S
C658 C656 1.378 . S
C658 C659 1.367 . S
C659 C658 1.367 . S
C659 C661 1.433 . S
C660 C656 1.350 . S
C660 C657 1.463 . S
C660 N664 1.427 . S
C661 H651 0.929 . S
C661 C659 1.433 . S
C661 N664 1.384 . S
C662 H653 0.929 . S
C662 C654 1.378 . S
C662 C657 1.350 . S
C663 H650 0.929 . S
C663 C655 1.433 . S
C663 N665 1.384 . S
N664 C660 1.427 . S
N664 C661 1.384 . S
N665 C657 1.427 . S
N665 C663 1.384 . S
H666 C672 0.930 . S
H667 C676 0.930 . S
H668 C681 0.929 . S
H669 C679 0.929 . S
H670 C674 0.929 . S
H671 C680 0.929 . S
C672 H666 0.930 . S
C672 C673 1.367 . S
C672 C680 1.378 . S
C673 C672 1.367 . S
C673 C681 1.433 . S
C674 H670 0.929 . S
C674 C676 1.378 1_565 S
C674 C678 1.350 . S
C675 C678 1.463 . S
C675 C680 1.350 . S
C675 N683 1.427 . S
C676 H667 0.930 . S
C676 C674 1.378 1_545 S
C676 C677 1.367 . S
C677 C676 1.367 . S
C677 C679 1.433 . S
C678 C674 1.350 . S
C678 C675 1.463 . S
C678 N682 1.427 1_565 S
C679 H669 0.929 . S
C679 C677 1.433 . S
C679 N682 1.384 . S
C680 H671 0.929 . S
C680 C672 1.378 . S
C680 C675 1.350 . S
C681 H668 0.929 . S
C681 C673 1.433 . S
C681 N683 1.384 . S
N682 C678 1.427 1_545 S
N682 C679 1.384 . S
N683 C675 1.427 . S
N683 C681 1.384 . S
H684 C690 0.930 . S
H685 C694 0.930 . S
H686 C699 0.929 . S
H687 C697 0.929 . S
H688 C692 0.929 . S
H689 C698 0.929 . S
C690 H684 0.930 . S
C690 C691 1.367 . S
C690 C698 1.378 . S
C691 C690 1.367 . S
C691 C699 1.433 . S
C692 H688 0.929 . S
C692 C694 1.378 1_455 S
C692 C696 1.350 . S
C693 C696 1.463 . S
C693 C698 1.350 . S
C693 N701 1.427 . S
C694 H685 0.930 . S
C694 C692 1.378 1_655 S
C694 C695 1.367 . S
C695 C694 1.367 . S
C695 C697 1.433 . S
C696 C692 1.350 . S
C696 C693 1.463 . S
C696 N700 1.427 . S
C697 H687 0.929 . S
C697 C695 1.433 . S
C697 N700 1.384 1_655 S
C698 H689 0.929 . S
C698 C690 1.378 . S
C698 C693 1.350 . S
C699 H686 0.929 . S
C699 C691 1.433 . S
C699 N701 1.384 . S
N700 C696 1.427 . S
N700 C697 1.384 1_455 S
N701 C693 1.427 . S
N701 C699 1.384 . S
H702 C708 0.930 1_565 S
H703 C712 0.930 . S
H704 C717 0.929 . S
H705 C715 0.929 . S
H706 C710 0.929 . S
H707 C716 0.929 . S
C708 H702 0.930 1_545 S
C708 C709 1.367 . S
C708 C716 1.378 1_545 S
C709 C708 1.367 . S
C709 C717 1.433 . S
C710 H706 0.929 . S
C710 C712 1.378 . S
C710 C714 1.350 . S
C711 C714 1.463 1_554 S
C711 C716 1.350 1_545 S
C711 N719 1.427 . S
C712 H703 0.930 . S
C712 C710 1.378 . S
C712 C713 1.367 . S
C713 C712 1.367 . S
C713 C715 1.433 1_545 S
C714 C710 1.350 . S
C714 C711 1.463 1_556 S
C714 N718 1.427 1_545 S
C715 H705 0.929 . S
C715 C713 1.433 1_565 S
C715 N718 1.384 . S
C716 H707 0.929 . S
C716 C708 1.378 1_565 S
C716 C711 1.350 1_565 S
C717 H704 0.929 . S
C717 C709 1.433 . S
C717 N719 1.384 . S
N718 C714 1.427 1_565 S
N718 C715 1.384 . S
N719 C711 1.427 . S
N719 C717 1.384 . S
H720 C726 0.930 . S
H721 C730 0.930 . S
H722 C735 0.929 . S
H723 C733 0.925 . S
H724 C728 0.929 . S
H725 C734 0.929 . S
C726 H720 0.930 . S
C726 C727 1.367 . S
C726 C734 1.378 . S
C727 C726 1.367 . S
C727 C735 1.433 . S
C728 H724 0.929 . S
C728 C730 1.378 . S
C728 C732 1.350 . S
C729 C732 1.463 1_556 S
C729 C734 1.350 . S
C729 N737 1.427 . S
C730 H721 0.930 . S
C730 C728 1.378 . S
C730 C731 1.367 . S
C731 C730 1.367 . S
C731 C733 1.438 1_455 S
C732 C728 1.350 . S
C732 C729 1.463 1_554 S
C732 N736 1.427 . S
C733 H723 0.925 . S
C733 C731 1.438 1_655 S
C733 N736 1.383 1_655 S
C734 H725 0.929 . S
C734 C726 1.378 . S
C734 C729 1.350 . S
C735 H722 0.929 . S
C735 C727 1.433 . S
C735 N737 1.384 . S
N736 C732 1.427 . S
N736 C733 1.383 1_455 S
N737 C729 1.427 . S
N737 C735 1.384 . S
H738 C744 0.930 . S
H739 C748 0.930 . S
H740 C753 0.929 . S
H741 C751 0.929 . S
H742 C746 0.929 . S
H743 C752 0.929 . S
C744 H738 0.930 . S
C744 C745 1.367 . S
C744 C752 1.378 . S
C745 C744 1.367 . S
C745 C753 1.433 . S
C746 H742 0.929 . S
C746 C748 1.378 . S
C746 C750 1.350 . S
C747 C750 1.463 1_556 S
C747 C752 1.350 . S
C747 N755 1.427 . S
C748 H739 0.930 . S
C748 C746 1.378 . S
C748 C749 1.367 . S
C749 C748 1.367 . S
C749 C751 1.433 . S
C750 C746 1.350 . S
C750 C747 1.463 1_554 S
C750 N754 1.427 . S
C751 H741 0.929 . S
C751 C749 1.433 . S
C751 N754 1.384 . S
C752 H743 0.929 . S
C752 C744 1.378 . S
C752 C747 1.350 . S
C753 H740 0.929 . S
C753 C745 1.433 . S
C753 N755 1.384 . S
N754 C750 1.427 . S
N754 C751 1.384 . S
N755 C747 1.427 . S
N755 C753 1.384 . S
H756 C762 0.930 . S
H757 C766 0.930 . S
H758 C771 0.929 . S
H759 C769 0.929 . S
H760 C764 0.929 . S
H761 C770 0.929 . S
C762 H756 0.930 . S
C762 C763 1.367 . S
C762 C770 1.378 . S
C763 C762 1.367 . S
C763 C771 1.433 . S
C764 H760 0.929 . S
C764 C766 1.378 . S
C764 C768 1.350 . S
C765 C768 1.463 . S
C765 C770 1.350 . S
C765 N773 1.427 . S
C766 H757 0.930 . S
C766 C764 1.378 . S
C766 C767 1.367 . S
C767 C766 1.367 . S
C767 C769 1.433 . S
C768 C764 1.350 . S
C768 C765 1.463 . S
C768 N772 1.427 . S
C769 H759 0.929 . S
C769 C767 1.433 . S
C769 N772 1.384 . S
C770 H761 0.929 . S
C770 C762 1.378 . S
C770 C765 1.350 . S
C771 H758 0.929 . S
C771 C763 1.433 . S
C771 N773 1.384 . S
N772 C768 1.427 . S
N772 C769 1.384 . S
N773 C765 1.427 . S
N773 C771 1.384 . S
H774 C780 0.930 . S
H775 C784 0.930 . S
H776 C789 0.929 . S
H777 C787 0.929 . S
H778 C782 0.929 . S
H779 C788 0.929 . S
C780 H774 0.930 . S
C780 C781 1.367 . S
C780 C788 1.378 . S
C781 C780 1.367 . S
C781 C789 1.433 . S
C782 H778 0.929 . S
C782 C784 1.378 . S
C782 C786 1.350 . S
C783 C786 1.463 . S
C783 C788 1.350 . S
C783 N791 1.427 . S
C784 H775 0.930 . S
C784 C782 1.378 . S
C784 C785 1.367 . S
C785 C784 1.367 . S
C785 C787 1.433 . S
C786 C782 1.350 . S
C786 C783 1.463 . S
C786 N790 1.427 . S
C787 H777 0.929 . S
C787 C785 1.433 . S
C787 N790 1.384 . S
C788 H779 0.929 . S
C788 C780 1.378 . S
C788 C783 1.350 . S
C789 H776 0.929 . S
C789 C781 1.433 . S
C789 N791 1.384 . S
N790 C786 1.427 . S
N790 C787 1.384 . S
N791 C783 1.427 . S
N791 C789 1.384 . S
H792 C798 0.930 1_545 S
H793 C802 0.930 . S
H794 C807 0.929 . S
H795 C805 0.929 . S
H796 C800 0.929 . S
H797 C806 0.927 1_545 S
C798 H792 0.930 1_565 S
C798 C799 1.367 . S
C798 C806 1.378 . S
C799 C798 1.367 . S
C799 C807 1.433 . S
C800 H796 0.929 . S
C800 C802 1.378 . S
C800 C804 1.350 . S
C801 C804 1.463 . S
C801 C806 1.350 . S
C801 N809 1.427 . S
C802 H793 0.930 . S
C802 C800 1.378 . S
C802 C803 1.367 . S
C803 C802 1.367 . S
C803 C805 1.433 . S
C804 C800 1.350 . S
C804 C801 1.463 . S
C804 N808 1.427 . S
C805 H795 0.929 . S
C805 C803 1.433 . S
C805 N808 1.384 . S
C806 H797 0.927 1_565 S
C806 C798 1.378 . S
C806 C801 1.350 . S
C807 H794 0.929 . S
C807 C799 1.433 . S
C807 N809 1.384 . S
N808 C804 1.427 . S
N808 C805 1.384 . S
N809 C801 1.427 . S
N809 C807 1.384 . S
H810 C816 0.930 . S
H811 C820 0.930 . S
H812 C825 0.929 . S
H813 C823 0.929 . S
H814 C818 0.929 . S
H815 C824 0.929 . S
C816 H810 0.930 . S
C816 C817 1.367 . S
C816 C824 1.378 . S
C817 C816 1.367 . S
C817 C825 1.433 . S
C818 H814 0.929 . S
C818 C820 1.378 . S
C818 C822 1.350 . S
C819 C822 1.463 . S
C819 C824 1.350 . S
C819 N827 1.427 . S
C820 H811 0.930 . S
C820 C818 1.378 . S
C820 C821 1.367 . S
C821 C820 1.367 . S
C821 C823 1.433 . S
C822 C818 1.350 . S
C822 C819 1.463 . S
C822 N826 1.427 . S
C823 H813 0.929 . S
C823 C821 1.433 . S
C823 N826 1.384 . S
C824 H815 0.929 . S
C824 C816 1.378 . S
C824 C819 1.350 . S
C825 H812 0.929 . S
C825 C817 1.433 . S
C825 N827 1.384 . S
N826 C822 1.427 . S
N826 C823 1.384 . S
N827 C819 1.427 . S
N827 C825 1.384 . S
H828 C834 0.930 . S
H829 C838 0.930 . S
H830 C843 0.929 . S
H831 C841 0.929 . S
H832 C836 0.929 . S
H833 C842 0.929 . S
C834 H828 0.930 . S
C834 C835 1.367 . S
C834 C842 1.378 . S
C835 C834 1.367 . S
C835 C843 1.433 . S
C836 H832 0.929 . S
C836 C838 1.378 . S
C836 C840 1.350 . S
C837 C840 1.463 . S
C837 C842 1.350 . S
C837 N845 1.427 . S
C838 H829 0.930 . S
C838 C836 1.378 . S
C838 C839 1.367 . S
C839 C838 1.367 . S
C839 C841 1.433 . S
C840 C836 1.350 . S
C840 C837 1.463 . S
C840 N844 1.427 . S
C841 H831 0.929 . S
C841 C839 1.433 . S
C841 N844 1.384 . S
C842 H833 0.929 . S
C842 C834 1.378 . S
C842 C837 1.350 . S
C843 H830 0.929 . S
C843 C835 1.433 . S
C843 N845 1.384 . S
N844 C840 1.427 . S
N844 C841 1.384 . S
N845 C837 1.427 . S
N845 C843 1.384 . S
H846 C852 0.930 . S
H847 C856 0.930 . S
H848 C861 0.929 . S
H849 C859 0.929 . S
H850 C854 0.929 . S
H851 C860 0.929 . S
C852 H846 0.930 . S
C852 C853 1.367 . S
C852 C860 1.378 . S
C853 C852 1.367 . S
C853 C861 1.433 . S
C854 H850 0.929 . S
C854 C856 1.378 . S
C854 C858 1.350 . S
C855 C858 1.463 . S
C855 C860 1.350 . S
C855 N863 1.427 . S
C856 H847 0.930 . S
C856 C854 1.378 . S
C856 C857 1.367 . S
C857 C856 1.367 . S
C857 C859 1.433 . S
C858 C854 1.350 . S
C858 C855 1.463 . S
C858 N862 1.427 . S
C859 H849 0.929 . S
C859 C857 1.433 . S
C859 N862 1.384 . S
C860 H851 0.929 . S
C860 C852 1.378 . S
C860 C855 1.350 . S
C861 H848 0.929 . S
C861 C853 1.433 . S
C861 N863 1.384 . S
N862 C858 1.427 . S
N862 C859 1.384 . S
N863 C855 1.427 . S
N863 C861 1.384 . S
H864 C870 0.926 1_545 S
H865 C874 0.930 . S
H866 C879 0.929 . S
H867 C877 0.929 . S
H868 C872 0.929 . S
H869 C878 0.929 . S
C870 H864 0.926 1_565 S
C870 C871 1.371 . S
C870 C878 1.378 1_565 S
C871 C870 1.371 . S
C871 C879 1.433 . S
C872 H868 0.929 . S
C872 C874 1.378 . S
C872 C876 1.350 . S
C873 C876 1.463 . S
C873 C878 1.350 1_565 S
C873 N881 1.427 . S
C874 H865 0.930 . S
C874 C872 1.378 . S
C874 C875 1.367 . S
C875 C874 1.367 . S
C875 C877 1.433 1_565 S
C876 C872 1.350 . S
C876 C873 1.463 . S
C876 N880 1.427 1_565 S
C877 H867 0.929 . S
C877 C875 1.433 1_545 S
C877 N880 1.384 . S
C878 H869 0.929 . S
C878 C870 1.378 1_545 S
C878 C873 1.350 1_545 S
C879 H866 0.929 . S
C879 C871 1.433 . S
C879 N881 1.384 . S
N880 C876 1.427 1_545 S
N880 C877 1.384 . S
N881 C873 1.427 . S
N881 C879 1.384 . S
H882 C888 0.930 1_655 S
H883 C892 0.930 . S
H884 C897 0.929 . S
H885 C895 0.929 . S
H886 C890 0.929 . S
H887 C896 0.929 . S
C888 H882 0.930 1_455 S
C888 C889 1.367 . S
C888 C896 1.378 . S
C889 C888 1.367 . S
C889 C897 1.433 . S
C890 H886 0.929 . S
C890 C892 1.378 . S
C890 C894 1.350 . S
C891 C894 1.463 . S
C891 C896 1.350 . S
C891 N899 1.427 . S
C892 H883 0.930 . S
C892 C890 1.378 . S
C892 C893 1.367 . S
C893 C892 1.367 . S
C893 C895 1.433 . S
C894 C890 1.350 . S
C894 C891 1.463 . S
C894 N898 1.427 . S
C895 H885 0.929 . S
C895 C893 1.433 . S
C895 N898 1.384 . S
C896 H887 0.929 . S
C896 C888 1.378 . S
C896 C891 1.350 . S
C897 H884 0.929 . S
C897 C889 1.433 . S
C897 N899 1.384 . S
N898 C894 1.427 . S
N898 C895 1.384 . S
N899 C891 1.427 . S
N899 C897 1.384 . S
H900 C906 0.930 . S
H901 C910 0.930 . S
H902 C915 0.929 . S
H903 C913 0.929 . S
H904 C908 0.929 . S
H905 C914 0.929 . S
C906 H900 0.930 . S
C906 C907 1.367 . S
C906 C914 1.378 . S
C907 C906 1.367 . S
C907 C915 1.433 . S
C908 H904 0.929 . S
C908 C910 1.378 . S
C908 C912 1.350 . S
C909 C912 1.463 . S
C909 C914 1.350 . S
C909 N917 1.427 . S
C910 H901 0.930 . S
C910 C908 1.378 . S
C910 C911 1.367 . S
C911 C910 1.367 . S
C911 C913 1.433 . S
C912 C908 1.350 . S
C912 C909 1.463 . S
C912 N916 1.427 . S
C913 H903 0.929 . S
C913 C911 1.433 . S
C913 N916 1.384 . S
C914 H905 0.929 . S
C914 C906 1.378 . S
C914 C909 1.350 . S
C915 H902 0.929 . S
C915 C907 1.433 . S
C915 N917 1.384 . S
N916 C912 1.427 . S
N916 C913 1.384 . S
N917 C909 1.427 . S
N917 C915 1.384 . S
H918 C924 0.930 . S
H919 C928 0.930 . S
H920 C933 0.929 . S
H921 C931 0.929 . S
H922 C926 0.929 . S
H923 C932 0.929 . S
C924 H918 0.930 . S
C924 C925 1.367 1_455 S
C924 C932 1.378 . S
C925 C924 1.367 1_655 S
C925 C933 1.433 . S
C926 H922 0.929 . S
C926 C928 1.378 . S
C926 C930 1.350 . S
C927 C930 1.463 . S
C927 C932 1.350 1_655 S
C927 N935 1.427 . S
C928 H919 0.930 . S
C928 C926 1.378 . S
C928 C929 1.367 . S
C929 C928 1.367 . S
C929 C931 1.433 . S
C930 C926 1.350 . S
C930 C927 1.463 . S
C930 N934 1.427 . S
C931 H921 0.929 . S
C931 C929 1.433 . S
C931 N934 1.384 . S
C932 H923 0.929 . S
C932 C924 1.378 . S
C932 C927 1.350 1_455 S
C933 H920 0.929 . S
C933 C925 1.433 . S
C933 N935 1.384 . S
N934 C930 1.427 . S
N934 C931 1.384 . S
N935 C927 1.427 . S
N935 C933 1.384 . S
H936 C942 0.930 . S
H937 C946 0.930 . S
H938 C951 0.929 . S
H939 C949 0.929 . S
H940 C944 0.929 . S
H941 C950 0.929 . S
C942 H936 0.930 . S
C942 C943 1.367 . S
C942 C950 1.378 . S
C943 C942 1.367 . S
C943 C951 1.433 . S
C944 H940 0.929 . S
C944 C946 1.378 . S
C944 C948 1.350 . S
C945 C948 1.463 . S
C945 C950 1.350 . S
C945 N953 1.427 . S
C946 H937 0.930 . S
C946 C944 1.378 . S
C946 C947 1.367 . S
C947 C946 1.367 . S
C947 C949 1.433 . S
C948 C944 1.350 . S
C948 C945 1.463 . S
C948 N952 1.427 . S
C949 H939 0.929 . S
C949 C947 1.433 . S
C949 N952 1.384 . S
C950 H941 0.929 . S
C950 C942 1.378 . S
C950 C945 1.350 . S
C951 H938 0.929 . S
C951 C943 1.433 . S
C951 N953 1.384 . S
N952 C948 1.427 . S
N952 C949 1.384 . S
N953 C945 1.427 . S
N953 C951 1.384 . S
H954 C960 0.930 . S
H955 C964 0.930 . S
H956 C969 0.929 1_565 S
H957 C967 0.929 . S
H958 C962 0.929 . S
H959 C968 0.929 . S
C960 H954 0.930 . S
C960 C961 1.367 . S
C960 C968 1.378 . S
C961 C960 1.367 . S
C961 C969 1.433 . S
C962 H958 0.929 . S
C962 C964 1.378 . S
C962 C966 1.350 1_565 S
C963 C966 1.463 . S
C963 C968 1.350 . S
C963 N971 1.427 . S
C964 H955 0.930 . S
C964 C962 1.378 . S
C964 C965 1.367 1_565 S
C965 C964 1.367 1_545 S
C965 C967 1.433 . S
C966 C962 1.350 1_545 S
C966 C963 1.463 . S
C966 N970 1.427 . S
C967 H957 0.929 . S
C967 C965 1.433 . S
C967 N970 1.384 . S
C968 H959 0.929 . S
C968 C960 1.378 . S
C968 C963 1.350 . S
C969 H956 0.929 1_545 S
C969 C961 1.433 . S
C969 N971 1.384 . S
N970 C966 1.427 . S
N970 C967 1.384 . S
N971 C963 1.427 . S
N971 C969 1.384 . S
H972 C978 0.930 . S
H973 C982 0.930 . S
H974 C987 0.929 . S
H975 C985 0.929 1_655 S
H976 C980 0.929 . S
H977 C986 0.929 . S
C978 H972 0.930 . S
C978 C979 1.367 . S
C978 C986 1.378 . S
C979 C978 1.367 . S
C979 C987 1.433 1_655 S
C980 H976 0.929 . S
C980 C982 1.378 . S
C980 C984 1.350 . S
C981 C984 1.463 1_655 S
C981 C986 1.350 . S
C981 N989 1.427 1_655 S
C982 H973 0.930 . S
C982 C980 1.378 . S
C982 C983 1.367 . S
C983 C982 1.367 . S
C983 C985 1.433 . S
C984 C980 1.350 . S
C984 C981 1.463 1_455 S
C984 N988 1.427 1_455 S
C985 H975 0.929 1_455 S
C985 C983 1.433 . S
C985 N988 1.384 1_455 S
C986 H977 0.929 . S
C986 C978 1.378 . S
C986 C981 1.350 . S
C987 H974 0.929 . S
C987 C979 1.433 1_455 S
C987 N989 1.384 . S
N988 C984 1.427 1_655 S
N988 C985 1.384 1_655 S
N989 C981 1.427 1_455 S
N989 C987 1.384 . S
H990 C996 0.930 . S
H991 C1000 0.930 . S
H992 C1005 0.929 . S
H993 C1003 0.929 . S
H994 C998 0.929 . S
H995 C1004 0.929 . S
C996 H990 0.930 . S
C996 C997 1.367 . S
C996 C1004 1.378 . S
C997 C996 1.367 . S
C997 C1005 1.433 . S
C998 H994 0.929 . S
C998 C1000 1.378 . S
C998 C1002 1.350 . S
C999 C1002 1.463 . S
C999 C1004 1.350 . S
C999 N1007 1.427 . S
C1000 H991 0.930 . S
C1000 C998 1.378 . S
C1000 C1001 1.367 . S
C1001 C1000 1.367 . S
C1001 C1003 1.433 . S
C1002 C998 1.350 . S
C1002 C999 1.463 . S
C1002 N1006 1.427 . S
C1003 H993 0.929 . S
C1003 C1001 1.433 . S
C1003 N1006 1.384 . S
C1004 H995 0.929 . S
C1004 C996 1.378 . S
C1004 C999 1.350 . S
C1005 H992 0.929 . S
C1005 C997 1.433 . S
C1005 N1007 1.384 . S
N1006 C1002 1.427 . S
N1006 C1003 1.384 . S
N1007 C999 1.427 . S
N1007 C1005 1.384 . S
H1008 C1014 0.930 . S
H1009 C1018 0.930 . S
H1010 C1023 0.929 . S
H1011 C1021 0.929 . S
H1012 C1016 0.929 . S
H1013 C1022 0.929 . S
C1014 H1008 0.930 . S
C1014 C1015 1.367 1_545 S
C1014 C1022 1.378 . S
C1015 C1014 1.367 1_565 S
C1015 C1023 1.433 . S
C1016 H1012 0.929 . S
C1016 C1018 1.378 . S
C1016 C1020 1.350 1_565 S
C1017 C1020 1.468 . S
C1017 C1022 1.361 . S
C1017 N1025 1.411 1_545 S
C1018 H1009 0.930 . S
C1018 C1016 1.378 . S
C1018 C1019 1.367 1_565 S
C1019 C1018 1.367 1_545 S
C1019 C1021 1.433 . S
C1020 C1016 1.350 1_545 S
C1020 C1017 1.468 . S
C1020 N1024 1.427 . S
C1021 H1011 0.929 . S
C1021 C1019 1.433 . S
C1021 N1024 1.384 . S
C1022 H1013 0.929 . S
C1022 C1014 1.378 . S
C1022 C1017 1.361 . S
C1023 H1010 0.929 . S
C1023 C1015 1.433 . S
C1023 N1025 1.384 . S
N1024 C1020 1.427 . S
N1024 C1021 1.384 . S
N1025 C1017 1.411 1_565 S
N1025 C1023 1.384 . S
H1026 C1032 0.930 . S
H1027 C1036 0.930 . S
H1028 C1041 0.929 . S
H1029 C1039 0.929 . S
H1030 C1034 0.929 . S
H1031 C1040 0.929 . S
C1032 H1026 0.930 . S
C1032 C1033 1.367 . S
C1032 C1040 1.378 . S
C1033 C1032 1.367 . S
C1033 C1041 1.433 . S
C1034 H1030 0.929 . S
C1034 C1036 1.378 . S
C1034 C1038 1.350 . S
C1035 C1038 1.463 . S
C1035 C1040 1.350 . S
C1035 N1043 1.427 . S
C1036 H1027 0.930 . S
C1036 C1034 1.378 . S
C1036 C1037 1.367 . S
C1037 C1036 1.367 . S
C1037 C1039 1.433 . S
C1038 C1034 1.350 . S
C1038 C1035 1.463 . S
C1038 N1042 1.427 . S
C1039 H1029 0.929 . S
C1039 C1037 1.433 . S
C1039 N1042 1.384 . S
C1040 H1031 0.929 . S
C1040 C1032 1.378 . S
C1040 C1035 1.350 . S
C1041 H1028 0.929 . S
C1041 C1033 1.433 . S
C1041 N1043 1.384 . S
N1042 C1038 1.427 . S
N1042 C1039 1.384 . S
N1043 C1035 1.427 . S
N1043 C1041 1.384 . S
H1044 C1050 0.930 . S
H1045 C1054 0.930 . S
H1046 C1059 0.929 . S
H1047 C1057 0.929 . S
H1048 C1052 0.929 . S
H1049 C1058 0.929 . S
C1050 H1044 0.930 . S
C1050 C1051 1.367 . S
C1050 C1058 1.378 . S
C1051 C1050 1.367 . S
C1051 C1059 1.433 . S
C1052 H1048 0.929 . S
C1052 C1054 1.378 . S
C1052 C1056 1.350 . S
C1053 C1056 1.463 . S
C1053 C1058 1.350 . S
C1053 N1061 1.427 . S
C1054 H1045 0.930 . S
C1054 C1052 1.378 . S
C1054 C1055 1.367 . S
C1055 C1054 1.367 . S
C1055 C1057 1.433 . S
C1056 C1052 1.350 . S
C1056 C1053 1.463 . S
C1056 N1060 1.427 . S
C1057 H1047 0.929 . S
C1057 C1055 1.433 . S
C1057 N1060 1.384 . S
C1058 H1049 0.929 . S
C1058 C1050 1.378 . S
C1058 C1053 1.350 . S
C1059 H1046 0.929 . S
C1059 C1051 1.433 . S
C1059 N1061 1.384 . S
N1060 C1056 1.427 . S
N1060 C1057 1.384 . S
N1061 C1053 1.427 . S
N1061 C1059 1.384 . S
H1062 C1068 0.930 . S
H1063 C1072 0.930 . S
H1064 C1077 0.929 . S
H1065 C1075 0.929 . S
H1066 C1070 0.929 . S
H1067 C1076 0.929 . S
C1068 H1062 0.930 . S
C1068 C1069 1.367 . S
C1068 C1076 1.378 . S
C1069 C1068 1.367 . S
C1069 C1077 1.433 . S
C1070 H1066 0.929 . S
C1070 C1072 1.378 . S
C1070 C1074 1.350 . S
C1071 C1074 1.463 . S
C1071 C1076 1.350 . S
C1071 N1079 1.427 . S
C1072 H1063 0.930 . S
C1072 C1070 1.378 . S
C1072 C1073 1.367 . S
C1073 C1072 1.367 . S
C1073 C1075 1.433 . S
C1074 C1070 1.350 . S
C1074 C1071 1.463 . S
C1074 N1078 1.427 . S
C1075 H1065 0.929 . S
C1075 C1073 1.433 . S
C1075 N1078 1.384 . S
C1076 H1067 0.929 . S
C1076 C1068 1.378 . S
C1076 C1071 1.350 . S
C1077 H1064 0.929 . S
C1077 C1069 1.433 . S
C1077 N1079 1.384 . S
N1078 C1074 1.427 . S
N1078 C1075 1.384 . S
N1079 C1071 1.427 . S
N1079 C1077 1.384 . S
H1080 C1086 0.930 . S
H1081 C1090 0.930 . S
H1082 C1095 0.929 . S
H1083 C1093 0.929 . S
H1084 C1088 0.929 . S
H1085 C1094 0.929 . S
C1086 H1080 0.930 . S
C1086 C1087 1.367 . S
C1086 C1094 1.378 . S
C1087 C1086 1.367 . S
C1087 C1095 1.433 . S
C1088 H1084 0.929 . S
C1088 C1090 1.378 . S
C1088 C1092 1.350 . S
C1089 C1092 1.463 . S
C1089 C1094 1.350 . S
C1089 N1097 1.427 . S
C1090 H1081 0.930 . S
C1090 C1088 1.378 . S
C1090 C1091 1.367 . S
C1091 C1090 1.367 . S
C1091 C1093 1.433 . S
C1092 C1088 1.350 . S
C1092 C1089 1.463 . S
C1092 N1096 1.427 . S
C1093 H1083 0.929 . S
C1093 C1091 1.433 . S
C1093 N1096 1.384 . S
C1094 H1085 0.929 . S
C1094 C1086 1.378 . S
C1094 C1089 1.350 . S
C1095 H1082 0.929 . S
C1095 C1087 1.433 . S
C1095 N1097 1.384 . S
N1096 C1092 1.427 . S
N1096 C1093 1.384 . S
N1097 C1089 1.427 . S
N1097 C1095 1.384 . S
H1098 C1104 0.930 . S
H1099 C1108 0.930 . S
H1100 C1113 0.929 . S
H1101 C1111 0.929 . S
H1102 C1106 0.929 . S
H1103 C1112 0.929 . S
C1104 H1098 0.930 . S
C1104 C1105 1.367 . S
C1104 C1112 1.378 . S
C1105 C1104 1.367 . S
C1105 C1113 1.433 . S
C1106 H1102 0.929 . S
C1106 C1108 1.378 . S
C1106 C1110 1.350 . S
C1107 C1110 1.463 . S
C1107 C1112 1.350 . S
C1107 N1115 1.427 . S
C1108 H1099 0.930 . S
C1108 C1106 1.378 . S
C1108 C1109 1.367 . S
C1109 C1108 1.367 . S
C1109 C1111 1.433 . S
C1110 C1106 1.350 . S
C1110 C1107 1.463 . S
C1110 N1114 1.427 . S
C1111 H1101 0.929 . S
C1111 C1109 1.433 . S
C1111 N1114 1.384 . S
C1112 H1103 0.929 . S
C1112 C1104 1.378 . S
C1112 C1107 1.350 . S
C1113 H1100 0.929 . S
C1113 C1105 1.433 . S
C1113 N1115 1.384 . S
N1114 C1110 1.427 . S
N1114 C1111 1.384 . S
N1115 C1107 1.427 . S
N1115 C1113 1.384 . S
H1116 C1122 0.930 . S
H1117 C1126 0.930 . S
H1118 C1131 0.929 . S
H1119 C1129 0.929 . S
H1120 C1124 0.929 . S
H1121 C1130 0.929 . S
C1122 H1116 0.930 . S
C1122 C1123 1.367 . S
C1122 C1130 1.378 . S
C1123 C1122 1.367 . S
C1123 C1131 1.433 . S
C1124 H1120 0.929 . S
C1124 C1126 1.378 . S
C1124 C1128 1.350 . S
C1125 C1128 1.463 . S
C1125 C1130 1.350 . S
C1125 N1133 1.427 . S
C1126 H1117 0.930 . S
C1126 C1124 1.378 . S
C1126 C1127 1.367 . S
C1127 C1126 1.367 . S
C1127 C1129 1.433 . S
C1128 C1124 1.350 . S
C1128 C1125 1.463 . S
C1128 N1132 1.427 . S
C1129 H1119 0.929 . S
C1129 C1127 1.433 . S
C1129 N1132 1.384 . S
C1130 H1121 0.929 . S
C1130 C1122 1.378 . S
C1130 C1125 1.350 . S
C1131 H1118 0.929 . S
C1131 C1123 1.433 . S
C1131 N1133 1.384 . S
N1132 C1128 1.427 . S
N1132 C1129 1.384 . S
N1133 C1125 1.427 . S
N1133 C1131 1.384 . S
H1134 C1140 0.930 . S
H1135 C1144 0.930 . S
H1136 C1149 0.929 . S
H1137 C1147 0.929 . S
H1138 C1142 0.929 . S
H1139 C1148 0.929 . S
C1140 H1134 0.930 . S
C1140 C1141 1.367 . S
C1140 C1148 1.378 . S
C1141 C1140 1.367 . S
C1141 C1149 1.433 . S
C1142 H1138 0.929 . S
C1142 C1144 1.378 . S
C1142 C1146 1.350 . S
C1143 C1146 1.463 . S
C1143 C1148 1.350 . S
C1143 N1151 1.427 . S
C1144 H1135 0.930 . S
C1144 C1142 1.378 . S
C1144 C1145 1.367 . S
C1145 C1144 1.367 . S
C1145 C1147 1.433 . S
C1146 C1142 1.350 . S
C1146 C1143 1.463 . S
C1146 N1150 1.427 . S
C1147 H1137 0.929 . S
C1147 C1145 1.433 . S
C1147 N1150 1.384 . S
C1148 H1139 0.929 . S
C1148 C1140 1.378 . S
C1148 C1143 1.350 . S
C1149 H1136 0.929 . S
C1149 C1141 1.433 . S
C1149 N1151 1.384 . S
N1150 C1146 1.427 . S
N1150 C1147 1.384 . S
N1151 C1143 1.427 . S
N1151 C1149 1.384 . S
H1152 C1158 0.930 . S
H1153 C1162 0.930 . S
H1154 C1167 0.929 . S
H1155 C1165 0.929 . S
H1156 C1160 0.929 . S
H1157 C1166 0.929 . S
C1158 H1152 0.930 . S
C1158 C1159 1.367 . S
C1158 C1166 1.378 . S
C1159 C1158 1.367 . S
C1159 C1167 1.433 . S
C1160 H1156 0.929 . S
C1160 C1162 1.378 . S
C1160 C1164 1.350 . S
C1161 C1164 1.463 . S
C1161 C1166 1.350 . S
C1161 N1169 1.427 . S
C1162 H1153 0.930 . S
C1162 C1160 1.378 . S
C1162 C1163 1.367 . S
C1163 C1162 1.367 . S
C1163 C1165 1.433 . S
C1164 C1160 1.350 . S
C1164 C1161 1.463 . S
C1164 N1168 1.427 . S
C1165 H1155 0.929 . S
C1165 C1163 1.433 . S
C1165 N1168 1.384 . S
C1166 H1157 0.929 . S
C1166 C1158 1.378 . S
C1166 C1161 1.350 . S
C1167 H1154 0.929 . S
C1167 C1159 1.433 . S
C1167 N1169 1.384 . S
N1168 C1164 1.427 . S
N1168 C1165 1.384 . S
N1169 C1161 1.427 . S
N1169 C1167 1.384 . S
H1170 C1176 0.930 . S
H1171 C1180 0.930 . S
H1172 C1185 0.929 . S
H1173 C1183 0.929 . S
H1174 C1178 0.929 . S
H1175 C1184 0.929 . S
C1176 H1170 0.930 . S
C1176 C1177 1.367 . S
C1176 C1184 1.378 . S
C1177 C1176 1.367 . S
C1177 C1185 1.433 . S
C1178 H1174 0.929 . S
C1178 C1180 1.378 . S
C1178 C1182 1.350 . S
C1179 C1182 1.463 . S
C1179 C1184 1.350 . S
C1179 N1187 1.427 . S
C1180 H1171 0.930 . S
C1180 C1178 1.378 . S
C1180 C1181 1.367 . S
C1181 C1180 1.367 . S
C1181 C1183 1.433 . S
C1182 C1178 1.350 . S
C1182 C1179 1.463 . S
C1182 N1186 1.427 . S
C1183 H1173 0.929 . S
C1183 C1181 1.433 . S
C1183 N1186 1.384 . S
C1184 H1175 0.929 . S
C1184 C1176 1.378 . S
C1184 C1179 1.350 . S
C1185 H1172 0.929 . S
C1185 C1177 1.433 . S
C1185 N1187 1.384 . S
N1186 C1182 1.427 . S
N1186 C1183 1.384 . S
N1187 C1179 1.427 . S
N1187 C1185 1.384 . S
H1188 C1194 0.930 . S
H1189 C1198 0.930 . S
H1190 C1203 0.929 . S
H1191 C1201 0.929 . S
H1192 C1196 0.929 . S
H1193 C1202 0.929 . S
C1194 H1188 0.930 . S
C1194 C1195 1.367 . S
C1194 C1202 1.378 . S
C1195 C1194 1.367 . S
C1195 C1203 1.433 . S
C1196 H1192 0.929 . S
C1196 C1198 1.378 1_655 S
C1196 C1200 1.350 . S
C1197 C1200 1.463 . S
C1197 C1202 1.350 . S
C1197 N1205 1.427 . S
C1198 H1189 0.930 . S
C1198 C1196 1.378 1_455 S
C1198 C1199 1.367 . S
C1199 C1198 1.367 . S
C1199 C1201 1.433 . S
C1200 C1196 1.350 . S
C1200 C1197 1.463 . S
C1200 N1204 1.427 1_655 S
C1201 H1191 0.929 . S
C1201 C1199 1.433 . S
C1201 N1204 1.384 . S
C1202 H1193 0.929 . S
C1202 C1194 1.378 . S
C1202 C1197 1.350 . S
C1203 H1190 0.929 . S
C1203 C1195 1.433 . S
C1203 N1205 1.384 . S
N1204 C1200 1.427 1_455 S
N1204 C1201 1.384 . S
N1205 C1197 1.427 . S
N1205 C1203 1.384 . S
H1206 C1212 0.930 . S
H1207 C1216 0.930 . S
H1208 C1221 0.929 . S
H1209 C1219 0.929 . S
H1210 C1214 0.929 . S
H1211 C1220 0.929 . S
C1212 H1206 0.930 . S
C1212 C1213 1.367 . S
C1212 C1220 1.378 . S
C1213 C1212 1.367 . S
C1213 C1221 1.433 . S
C1214 H1210 0.929 . S
C1214 C1216 1.378 . S
C1214 C1218 1.350 . S
C1215 C1218 1.463 . S
C1215 C1220 1.350 . S
C1215 N1223 1.427 . S
C1216 H1207 0.930 . S
C1216 C1214 1.378 . S
C1216 C1217 1.367 . S
C1217 C1216 1.367 . S
C1217 C1219 1.433 . S
C1218 C1214 1.350 . S
C1218 C1215 1.463 . S
C1218 N1222 1.427 . S
C1219 H1209 0.929 . S
C1219 C1217 1.433 . S
C1219 N1222 1.384 . S
C1220 H1211 0.929 . S
C1220 C1212 1.378 . S
C1220 C1215 1.350 . S
C1221 H1208 0.929 . S
C1221 C1213 1.433 . S
C1221 N1223 1.384 . S
N1222 C1218 1.427 . S
N1222 C1219 1.384 . S
N1223 C1215 1.427 . S
N1223 C1221 1.384 . S
H1224 C1230 0.930 . S
H1225 C1234 0.930 1_455 S
H1226 C1239 0.929 . S
H1227 C1237 0.929 . S
H1228 C1232 0.929 . S
H1229 C1238 0.929 . S
C1230 H1224 0.930 . S
C1230 C1231 1.367 . S
C1230 C1238 1.378 1_565 S
C1231 C1230 1.367 . S
C1231 C1239 1.433 . S
C1232 H1228 0.929 . S
C1232 C1234 1.378 . S
C1232 C1236 1.350 . S
C1233 C1236 1.463 . S
C1233 C1238 1.350 . S
C1233 N1241 1.427 . S
C1234 H1225 0.930 1_655 S
C1234 C1232 1.378 . S
C1234 C1235 1.367 . S
C1235 C1234 1.367 . S
C1235 C1237 1.433 . S
C1236 C1232 1.350 . S
C1236 C1233 1.463 . S
C1236 N1240 1.427 . S
C1237 H1227 0.929 . S
C1237 C1235 1.433 . S
C1237 N1240 1.384 . S
C1238 H1229 0.929 . S
C1238 C1230 1.378 1_545 S
C1238 C1233 1.350 . S
C1239 H1226 0.929 . S
C1239 C1231 1.433 . S
C1239 N1241 1.384 1_565 S
N1240 C1236 1.427 . S
N1240 C1237 1.384 . S
N1241 C1233 1.427 . S
N1241 C1239 1.384 1_545 S
H1242 C1248 0.930 . S
H1243 C1252 0.930 . S
H1244 C1257 0.929 . S
H1245 C1255 0.929 . S
H1246 C1250 0.929 . S
H1247 C1256 0.929 . S
C1248 H1242 0.930 . S
C1248 C1249 1.367 . S
C1248 C1256 1.378 . S
C1249 C1248 1.367 . S
C1249 C1257 1.433 . S
C1250 H1246 0.929 . S
C1250 C1252 1.378 1_565 S
C1250 C1254 1.350 . S
C1251 C1254 1.463 . S
C1251 C1256 1.350 . S
C1251 N1259 1.427 . S
C1252 H1243 0.930 . S
C1252 C1250 1.378 1_545 S
C1252 C1253 1.367 . S
C1253 C1252 1.367 . S
C1253 C1255 1.433 . S
C1254 C1250 1.350 . S
C1254 C1251 1.463 . S
C1254 N1258 1.427 1_565 S
C1255 H1245 0.929 . S
C1255 C1253 1.433 . S
C1255 N1258 1.384 . S
C1256 H1247 0.929 . S
C1256 C1248 1.378 . S
C1256 C1251 1.350 . S
C1257 H1244 0.929 . S
C1257 C1249 1.433 . S
C1257 N1259 1.384 . S
N1258 C1254 1.427 1_545 S
N1258 C1255 1.384 . S
N1259 C1251 1.427 . S
N1259 C1257 1.384 . S
H1260 C1266 0.930 . S
H1261 C1270 0.930 . S
H1262 C1275 0.929 1_545 S
H1263 C1273 0.929 . S
H1264 C1268 0.929 . S
H1265 C1274 0.929 . S
C1266 H1260 0.930 . S
C1266 C1267 1.367 . S
C1266 C1274 1.378 . S
C1267 C1266 1.367 . S
C1267 C1275 1.433 . S
C1268 H1264 0.929 . S
C1268 C1270 1.378 1_455 S
C1268 C1272 1.350 . S
C1269 C1272 1.463 . S
C1269 C1274 1.350 . S
C1269 N1277 1.427 . S
C1270 H1261 0.930 . S
C1270 C1268 1.378 1_655 S
C1270 C1271 1.367 . S
C1271 C1270 1.367 . S
C1271 C1273 1.433 . S
C1272 C1268 1.350 . S
C1272 C1269 1.463 . S
C1272 N1276 1.427 . S
C1273 H1263 0.929 . S
C1273 C1271 1.433 . S
C1273 N1276 1.384 1_655 S
C1274 H1265 0.929 . S
C1274 C1266 1.378 . S
C1274 C1269 1.350 . S
C1275 H1262 0.929 1_565 S
C1275 C1267 1.433 . S
C1275 N1277 1.384 . S
N1276 C1272 1.427 . S
N1276 C1273 1.384 1_455 S
N1277 C1269 1.427 . S
N1277 C1275 1.384 . S
H1278 C1284 0.930 . S
H1279 C1288 0.930 . S
H1280 C1293 0.929 . S
H1281 C1291 0.929 . S
H1282 C1286 0.929 . S
H1283 C1292 0.929 . S
C1284 H1278 0.930 . S
C1284 C1285 1.367 . S
C1284 C1292 1.378 . S
C1285 C1284 1.367 . S
C1285 C1293 1.433 . S
C1286 H1282 0.929 . S
C1286 C1288 1.378 . S
C1286 C1290 1.350 . S
C1287 C1290 1.463 . S
C1287 C1292 1.350 . S
C1287 N1295 1.427 . S
C1288 H1279 0.930 . S
C1288 C1286 1.378 . S
C1288 C1289 1.367 . S
C1289 C1288 1.367 . S
C1289 C1291 1.433 . S
C1290 C1286 1.350 . S
C1290 C1287 1.463 . S
C1290 N1294 1.427 . S
C1291 H1281 0.929 . S
C1291 C1289 1.433 . S
C1291 N1294 1.384 . S
C1292 H1283 0.929 . S
C1292 C1284 1.378 . S
C1292 C1287 1.350 . S
C1293 H1280 0.929 . S
C1293 C1285 1.433 . S
C1293 N1295 1.384 . S
N1294 C1290 1.427 . S
N1294 C1291 1.384 . S
N1295 C1287 1.427 . S
N1295 C1293 1.384 . S
H1296 C1302 0.930 . S
H1297 C1306 0.930 . S
H1298 C1311 0.929 . S
H1299 C1309 0.929 . S
H1300 C1304 0.929 . S
H1301 C1310 0.929 . S
C1302 H1296 0.930 . S
C1302 C1303 1.367 . S
C1302 C1310 1.378 . S
C1303 C1302 1.367 . S
C1303 C1311 1.433 . S
C1304 H1300 0.929 . S
C1304 C1306 1.378 . S
C1304 C1308 1.350 . S
C1305 C1308 1.463 . S
C1305 C1310 1.350 . S
C1305 N1313 1.427 . S
C1306 H1297 0.930 . S
C1306 C1304 1.378 . S
C1306 C1307 1.367 . S
C1307 C1306 1.367 . S
C1307 C1309 1.433 . S
C1308 C1304 1.350 . S
C1308 C1305 1.463 . S
C1308 N1312 1.427 . S
C1309 H1299 0.929 . S
C1309 C1307 1.433 . S
C1309 N1312 1.384 . S
C1310 H1301 0.929 . S
C1310 C1302 1.378 . S
C1310 C1305 1.350 . S
C1311 H1298 0.929 . S
C1311 C1303 1.433 . S
C1311 N1313 1.384 . S
N1312 C1308 1.427 . S
N1312 C1309 1.384 . S
N1313 C1305 1.427 . S
N1313 C1311 1.384 . S
H1314 C1320 0.930 . S
H1315 C1324 0.930 . S
H1316 C1329 0.929 . S
H1317 C1327 0.929 . S
H1318 C1322 0.929 . S
H1319 C1328 0.929 . S
C1320 H1314 0.930 . S
C1320 C1321 1.367 . S
C1320 C1328 1.378 . S
C1321 C1320 1.367 . S
C1321 C1329 1.433 . S
C1322 H1318 0.929 . S
C1322 C1324 1.378 . S
C1322 C1326 1.350 . S
C1323 C1326 1.463 . S
C1323 C1328 1.350 . S
C1323 N1331 1.427 . S
C1324 H1315 0.930 . S
C1324 C1322 1.378 . S
C1324 C1325 1.367 . S
C1325 C1324 1.367 . S
C1325 C1327 1.433 . S
C1326 C1322 1.350 . S
C1326 C1323 1.463 . S
C1326 N1330 1.427 . S
C1327 H1317 0.929 . S
C1327 C1325 1.433 . S
C1327 N1330 1.384 . S
C1328 H1319 0.929 . S
C1328 C1320 1.378 . S
C1328 C1323 1.350 . S
C1329 H1316 0.929 . S
C1329 C1321 1.433 . S
C1329 N1331 1.384 . S
N1330 C1326 1.427 . S
N1330 C1327 1.384 . S
N1331 C1323 1.427 . S
N1331 C1329 1.384 . S
H1332 C1338 0.930 . S
H1333 C1342 0.930 . S
H1334 C1347 0.929 . S
H1335 C1345 0.929 . S
H1336 C1340 0.929 . S
H1337 C1346 0.929 . S
C1338 H1332 0.930 . S
C1338 C1339 1.367 . S
C1338 C1346 1.378 . S
C1339 C1338 1.367 . S
C1339 C1347 1.433 . S
C1340 H1336 0.929 . S
C1340 C1342 1.378 . S
C1340 C1344 1.350 . S
C1341 C1344 1.463 . S
C1341 C1346 1.350 . S
C1341 N1349 1.427 . S
C1342 H1333 0.930 . S
C1342 C1340 1.378 . S
C1342 C1343 1.367 . S
C1343 C1342 1.367 . S
C1343 C1345 1.433 . S
C1344 C1340 1.350 . S
C1344 C1341 1.463 . S
C1344 N1348 1.427 . S
C1345 H1335 0.929 . S
C1345 C1343 1.433 . S
C1345 N1348 1.384 . S
C1346 H1337 0.929 . S
C1346 C1338 1.378 . S
C1346 C1341 1.350 . S
C1347 H1334 0.929 . S
C1347 C1339 1.433 . S
C1347 N1349 1.384 . S
N1348 C1344 1.427 . S
N1348 C1345 1.384 . S
N1349 C1341 1.427 . S
N1349 C1347 1.384 . S
C385 C4 0.941 . S
C389 C62 0.900 . S
C403 C20 0.862 . S
C407 C25 0.973 . S
C421 C41 0.881 . S
C425 C46 0.963 . S
C439 C67 0.958 . S
C443 C103 0.887 . S
C457 C125 0.859 . S
C461 C91 0.971 . S
C475 C109 0.973 . S
C479 C83 0.860 . S
C493 C187 0.860 . S
C497 C130 0.970 . S
C511 C146 0.900 . S
C515 C154 0.947 . S
C529 C175 0.943 . S
C533 C166 0.903 . S
C547 C229 0.899 . S
C551 C196 0.941 . S
C565 C217 0.958 . S
C569 C251 0.873 . S
C583 C208 0.861 . S
C587 C235 0.968 . S
C601 C259 0.968 . S
C605 C313 0.861 . S
C619 C271 0.903 . S
C623 C277 0.940 . S
C637 C293 0.861 . S
C641 C301 0.969 . S
C655 C356 0.879 . S
C659 C319 0.964 . S
C673 C376 0.868 . S
C677 C340 0.970 . S
C691 C335 0.863 . S
C695 C364 0.966 . S
C709 C3 1.329 1_545 S
C713 C108 1.322 . S
C727 C66 1.331 1_455 S
C731 C24 1.323 . S
C745 C100 1.341 . S
C749 C45 1.340 . S
C763 C129 1.334 . S
C767 C234 1.340 . S
C781 C163 1.316 . S
C785 C205 1.322 . S
C799 C226 1.341 . S
C803 C184 1.337 . S
C817 C268 1.320 . S
C821 C373 1.315 . S
C835 C318 1.335 . S
C839 C276 1.328 . S
C853 C339 1.315 . S
C857 C310 1.317 . S
C871 C230 1.368 . S
C875 C19 1.382 1_565 S
C889 C40 1.368 1_455 S
C893 C250 1.381 . S
C907 C209 1.364 . S
C911 C61 1.364 . S
C925 C82 1.365 1_655 S
C929 C314 1.365 . S
C943 C104 1.377 . S
C947 C272 1.378 . S
C961 C292 1.374 . S
C965 C124 1.361 1_545 S
C979 C355 1.372 . S
C983 C145 1.361 . S
C997 C167 1.369 . S
C1001 C377 1.361 . S
C1015 C188 1.377 . S
C1019 C334 1.379 . S
C1033 C58 1.170 . S
C1037 C7 0.961 . S
C1051 C16 1.145 . S
C1055 C28 0.988 . S
C1069 C49 0.980 . S
C1073 C37 1.164 . S
C1087 C87 1.168 . S
C1091 C70 0.973 . S
C1105 C121 1.146 . S
C1109 C88 0.984 . S
C1123 C112 0.996 . S
C1127 C79 1.151 . S
C1141 C171 1.166 . S
C1145 C133 0.976 . S
C1159 C151 0.993 . S
C1163 C142 1.155 . S
C1177 C150 1.163 . S
C1181 C172 0.955 . S
C1195 C193 0.961 . S
C1199 C213 1.170 . S
C1213 C214 0.996 . S
C1217 C247 1.148 . S
C1231 C192 1.169 . S
C1235 C238 0.967 . S
C1249 C256 0.983 . S
C1253 C297 1.163 . S
C1267 C280 0.983 . S
C1271 C255 1.146 . S
C1285 C289 1.170 . S
C1289 C298 0.960 . S
C1303 C322 0.953 . S
C1307 C352 1.165 . S
C1321 C343 0.956 . S
C1325 C360 1.162 . S
C1339 C331 1.168 . S
C1343 C361 0.954 . S
