# Generated by pormake.
# Topology whj, (6)-cn, num edge types: 1
# Building blocks:
#     Node 0, Type 0, BuildingBlock: IZENUY_clean_sbu_0, # of connection points: 6
#     Node 1, Type 0, BuildingBlock: IZENUY_clean_sbu_0, # of connection points: 6
#     Node 2, Type 0, BuildingBlock: IZENUY_clean_sbu_0, # of connection points: 6
#     Node 3, Type 0, BuildingBlock: IZENUY_clean_sbu_0, # of connection points: 6
#     Node 4, Type 0, BuildingBlock: IZENUY_clean_sbu_0, # of connection points: 6
#     Node 5, Type 0, BuildingBlock: IZENUY_clean_sbu_0, # of connection points: 6
#     Node 6, Type 0, BuildingBlock: IZENUY_clean_sbu_0, # of connection points: 6
#     Node 7, Type 0, BuildingBlock: IZENUY_clean_sbu_0, # of connection points: 6
#     Node 8, Type 0, BuildingBlock: IZENUY_clean_sbu_0, # of connection points: 6
#     Node 9, Type 0, BuildingBlock: IZENUY_clean_sbu_0, # of connection points: 6
#     Node 10, Type 0, BuildingBlock: IZENUY_clean_sbu_0, # of connection points: 6
#     Node 11, Type 0, BuildingBlock: IZENUY_clean_sbu_0, # of connection points: 6
#     Node 12, Type 0, BuildingBlock: IZENUY_clean_sbu_0, # of connection points: 6
#     Node 13, Type 0, BuildingBlock: IZENUY_clean_sbu_0, # of connection points: 6
#     Node 14, Type 0, BuildingBlock: IZENUY_clean_sbu_0, # of connection points: 6
#     Node 15, Type 0, BuildingBlock: IZENUY_clean_sbu_0, # of connection points: 6
#     Edge 16, Type (0, 0), None
#     Edge 17, Type (0, 0), None
#     Edge 18, Type (0, 0), None
#     Edge 19, Type (0, 0), None
#     Edge 20, Type (0, 0), None
#     Edge 21, Type (0, 0), None
#     Edge 22, Type (0, 0), None
#     Edge 23, Type (0, 0), None
#     Edge 24, Type (0, 0), None
#     Edge 25, Type (0, 0), None
#     Edge 26, Type (0, 0), None
#     Edge 27, Type (0, 0), None
#     Edge 28, Type (0, 0), None
#     Edge 29, Type (0, 0), None
#     Edge 30, Type (0, 0), None
#     Edge 31, Type (0, 0), None
#     Edge 32, Type (0, 0), None
#     Edge 33, Type (0, 0), None
#     Edge 34, Type (0, 0), None
#     Edge 35, Type (0, 0), None
#     Edge 36, Type (0, 0), None
#     Edge 37, Type (0, 0), None
#     Edge 38, Type (0, 0), None
#     Edge 39, Type (0, 0), None
#     Edge 40, Type (0, 0), None
#     Edge 41, Type (0, 0), None
#     Edge 42, Type (0, 0), None
#     Edge 43, Type (0, 0), None
#     Edge 44, Type (0, 0), None
#     Edge 45, Type (0, 0), None
#     Edge 46, Type (0, 0), None
#     Edge 47, Type (0, 0), None
#     Edge 48, Type (0, 0), None
#     Edge 49, Type (0, 0), None
#     Edge 50, Type (0, 0), None
#     Edge 51, Type (0, 0), None
#     Edge 52, Type (0, 0), None
#     Edge 53, Type (0, 0), None
#     Edge 54, Type (0, 0), None
#     Edge 55, Type (0, 0), None
#     Edge 56, Type (0, 0), None
#     Edge 57, Type (0, 0), None
#     Edge 58, Type (0, 0), None
#     Edge 59, Type (0, 0), None
#     Edge 60, Type (0, 0), None
#     Edge 61, Type (0, 0), None
#     Edge 62, Type (0, 0), None
#     Edge 63, Type (0, 0), None
# Relax obj value: 0.268
# Max RMSD: 0.262
# Mean RMSD: 0.261
data_MOF--net-whj--node1-IZENUY_clean_sbu_0--edge1-none
_symmetry_space_group_name_H-M    P1
_symmetry_Int_Tables_number       1
_symmetry_cell_setting            triclinic
loop_
_symmetry_equiv_pos_as_xyz
'x, y, z'
_cell_length_a     16.630746
_cell_length_b     16.631266
_cell_length_c     22.082044
_cell_angle_alpha  90.000089
_cell_angle_beta   90.000024
_cell_angle_gamma 89.999974
loop_
_atom_site_label
_atom_site_type_symbol
_atom_site_fract_x
_atom_site_fract_y
_atom_site_fract_z
_atom_type_partial_charge
Fe0 Fe 0.73805 1.01448 0.08262 0.0
Fe1 Fe 0.62316 0.12396 0.15196 0.0
O2 O 0.72096 0.10274 0.12462 0.0
Fe3 Fe 0.8003 0.17256 0.13756 0.0
O4 O 0.8513 0.15148 0.06503 0.0
O5 O 0.76926 0.07263 1.015 0.0
O6 O 0.64024 1.01068 0.05069 0.0
C7 C 0.58715 0.06324 0.0459 0.0
C8 C 0.87775 1.02559 0.154 0.0
O9 O 0.58225 0.12314 0.07918 0.0
C10 C 0.70488 0.17956 0.24662 0.0
O11 O 0.70399 0.95287 0.14685 0.0
O12 O 0.59215 1.01811 0.16491 0.0
O13 O 0.86237 0.09483 0.17722 0.0
O14 O 0.84008 1.00175 0.10794 0.0
C15 C 0.67156 0.2638 0.0971 0.0
O16 O 0.66126 0.12466 0.2262 0.0
O17 O 0.75961 0.21036 0.21312 0.0
C18 C 0.63115 0.95274 0.16528 0.0
O19 O 0.63325 0.23323 0.14093 0.0
O20 O 0.74552 0.24823 0.09349 0.0
C21 C 0.81987 0.12965 1.01515 0.0
Fe22 Fe 0.4373 0.80028 0.13756 0.0
Fe23 Fe 0.59539 0.73803 0.08263 0.0
O24 O 0.50712 0.72094 0.12463 0.0
Fe25 Fe 0.48589 0.62314 0.15196 0.0
O26 O 0.37662 0.63324 0.14094 0.0
O27 O 0.36162 0.7455 0.0935 0.0
O28 O 0.45838 0.85128 0.06504 0.0
C29 C 0.48021 0.81984 1.01515 0.0
C30 C 0.43029 0.70486 0.24663 0.0
O31 O 0.53723 0.76923 1.015 0.0
C32 C 0.65711 0.63112 0.16528 0.0
O33 O 0.51502 0.86235 0.17722 0.0
O34 O 0.60812 0.84004 0.10795 0.0
O35 O 0.48519 0.66124 0.2262 0.0
O36 O 0.3995 0.75959 0.21312 0.0
C37 C 0.54661 0.58713 0.0459 0.0
O38 O 0.65699 0.70395 0.14685 0.0
O39 O 0.59174 0.59212 0.16491 0.0
C40 C 0.58428 0.8777 0.154 0.0
O41 O 0.59917 0.64022 0.05069 0.0
O42 O 0.48671 0.58224 0.07917 0.0
C43 C 0.34605 0.67155 0.0971 0.0
Fe44 Fe 0.80958 0.43727 0.13756 0.0
Fe45 Fe 0.87182 0.59536 0.08262 0.0
O46 O 0.88891 0.5071 0.12462 0.0
Fe47 Fe 0.98672 0.48588 0.15196 0.0
O48 O 0.97663 0.37661 0.14093 0.0
O49 O 0.86436 0.3616 0.09349 0.0
O50 O 0.75858 0.45835 0.06503 0.0
C51 C 0.79002 0.48018 1.01514 0.0
C52 C 0.905 0.43027 0.24662 0.0
O53 O 0.84062 0.5372 1.015 0.0
C54 C 0.97872 0.6571 0.16528 0.0
O55 O 0.7475 0.51499 0.17722 0.0
O56 O 0.7698 0.60808 0.10794 0.0
O57 O 0.94862 0.48517 0.22619 0.0
O58 O 0.85027 0.39947 0.21312 0.0
C59 C 1.02272 0.54659 0.0459 0.0
O60 O 0.90589 0.65696 0.14685 0.0
O61 O 1.01773 0.59173 0.16491 0.0
C62 C 0.73215 0.58424 0.154 0.0
O63 O 0.96963 0.59915 0.05069 0.0
O64 O 1.02762 0.4867 0.07918 0.0
C65 C 0.93832 0.34603 0.0971 0.0
Fe66 Fe 1.01447 0.87181 0.08262 0.0
Fe67 Fe 0.12397 0.98671 0.15196 0.0
O68 O 0.10274 0.8889 0.12463 0.0
Fe69 Fe 0.17256 0.80957 0.13756 0.0
O70 O 0.15148 0.75856 0.06504 0.0
O71 O 0.07264 0.84062 1.015 0.0
O72 O 1.01069 0.96962 0.0507 0.0
C73 C 0.06325 1.02271 0.0459 0.0
C74 C 1.02559 0.73214 0.154 0.0
O75 O 0.12315 1.02761 0.07918 0.0
C76 C 0.17958 0.90498 0.24663 0.0
O77 O 0.95285 0.90587 0.14684 0.0
O78 O 1.01812 1.01773 0.16492 0.0
O79 O 0.09484 0.74749 0.17723 0.0
O80 O 1.00175 0.76979 0.10794 0.0
C81 C 0.26381 0.9383 0.0971 0.0
O82 O 0.12468 0.94861 0.2262 0.0
O83 O 0.21037 0.85025 0.21312 0.0
C84 C 0.95277 0.97869 0.16531 0.0
O85 O 0.23324 0.97661 0.14094 0.0
O86 O 0.24823 0.86434 0.09349 0.0
C87 C 0.12965 0.79 1.01515 0.0
Fe88 Fe 0.23806 0.09536 0.47241 0.0
Fe89 Fe 0.12317 0.98588 0.40306 0.0
O90 O 0.22097 1.0071 0.4304 0.0
Fe91 Fe 0.3003 0.93728 0.41746 0.0
O92 O 0.35131 0.95835 0.48999 0.0
O93 O 0.26926 1.03719 0.54003 0.0
O94 O 0.14025 0.09915 0.50433 0.0
C95 C 0.08716 1.04659 0.50912 0.0
C96 C 0.37775 0.08426 0.40103 0.0
O97 O 0.08226 0.98669 0.47584 0.0
C98 C 0.20489 0.93028 0.3084 0.0
O99 O 0.204 0.15696 0.40818 0.0
O100 O 0.09216 0.09173 0.39011 0.0
O101 O 0.36238 1.01501 0.3778 0.0
O102 O 0.34009 0.10808 0.44709 0.0
C103 C 0.17157 0.84603 0.45792 0.0
O104 O 0.16127 0.98518 0.32883 0.0
O105 O 0.25962 0.89949 0.3419 0.0
C106 C 0.13116 0.1571 0.38975 0.0
O107 O 0.13326 0.87661 0.41408 0.0
O108 O 0.24553 0.86161 0.46152 0.0
C109 C 0.31987 0.98018 0.53988 0.0
Fe110 Fe 0.51447 0.23804 0.4724 0.0
Fe111 Fe 0.62397 0.12314 0.40306 0.0
O112 O 0.60273 0.22095 0.43039 0.0
Fe113 Fe 0.67255 0.30028 0.41745 0.0
O114 O 0.65148 0.35129 0.48998 0.0
O115 O 0.57265 0.26923 0.54002 0.0
O116 O 0.51069 0.14022 0.50433 0.0
C117 C 0.56326 0.08714 0.50912 0.0
C118 C 0.52557 0.37773 0.40103 0.0
O119 O 0.62315 0.08224 0.47584 0.0
C120 C 0.67957 0.20487 0.30839 0.0
O121 O 0.45284 0.20398 0.40819 0.0
O122 O 0.51812 0.09212 0.3901 0.0
O123 O 0.59482 0.36235 0.3778 0.0
O124 O 0.50175 0.34007 0.44709 0.0
C125 C 0.76381 0.17156 0.45791 0.0
O126 O 0.62467 0.16125 0.32882 0.0
O127 O 0.71035 0.25961 0.34189 0.0
C128 C 0.45277 0.13116 0.38972 0.0
O129 O 0.73323 0.13325 0.41408 0.0
O130 O 0.74823 0.24551 0.46152 0.0
C131 C 0.62966 0.31985 0.53987 0.0
Fe132 Fe 0.48671 0.62395 0.40306 0.0
Fe133 Fe 0.30957 0.67254 0.41746 0.0
O134 O 0.38891 0.60272 0.43039 0.0
Fe135 Fe 0.37181 0.51447 0.47241 0.0
O136 O 0.46963 0.51067 0.50433 0.0
O137 O 0.52762 0.62313 0.47584 0.0
O138 O 0.47662 0.73321 0.41408 0.0
C139 C 0.43831 0.76379 0.45792 0.0
C140 C 0.47868 0.45275 0.38972 0.0
O141 O 0.36435 0.74822 0.46153 0.0
C142 C 0.23212 0.52557 0.40103 0.0
O143 O 0.44861 0.62465 0.32882 0.0
O144 O 0.35025 0.71034 0.3419 0.0
O145 O 0.40586 0.45283 0.40819 0.0
O146 O 0.51772 0.5181 0.3901 0.0
C147 C 0.29001 0.62965 0.53988 0.0
O148 O 0.2475 0.59481 0.3778 0.0
O149 O 0.26978 0.50175 0.44709 0.0
C150 C 0.40499 0.67955 0.30839 0.0
O151 O 0.25857 0.65147 0.48999 0.0
O152 O 0.34063 0.57265 0.54003 0.0
C153 C 0.52272 0.56324 0.50912 0.0
Fe154 Fe 0.9859 0.4867 0.40306 0.0
Fe155 Fe 0.93731 0.30956 0.41745 0.0
O156 O 1.00713 0.38889 0.43039 0.0
Fe157 Fe 0.0954 0.37181 0.4724 0.0
O158 O 0.09918 0.46962 0.50433 0.0
O159 O 0.98672 0.5276 0.47584 0.0
O160 O 0.87663 0.4766 0.41408 0.0
C161 C 0.84606 0.43829 0.45791 0.0
C162 C 0.1571 0.47868 0.38972 0.0
O163 O 0.86163 0.36433 0.46152 0.0
C164 C 0.08429 0.23213 0.40103 0.0
O165 O 0.9852 0.4486 0.32882 0.0
O166 O 0.89951 0.35024 0.34189 0.0
O167 O 0.15703 0.40586 0.40819 0.0
O168 O 0.09175 0.51771 0.3901 0.0
C169 C 0.9802 0.29 0.53987 0.0
O170 O 1.01504 0.24749 0.3778 0.0
O171 O 0.10812 0.26978 0.44709 0.0
C172 C 0.9303 0.40497 0.30839 0.0
O173 O 0.95839 0.25856 0.48998 0.0
O174 O 1.03722 0.34061 0.54002 0.0
C175 C 1.04661 0.5227 0.50912 0.0
Fe176 Fe 0.30958 0.93729 0.91745 0.0
Fe177 Fe 0.48673 0.9859 0.90309 0.0
O178 O 0.38891 1.00711 0.93039 0.0
Fe179 Fe 0.37179 0.09538 0.97238 0.0
O180 O 0.3406 1.03723 0.04001 0.0
O181 O 0.25857 0.95836 0.98998 0.0
O182 O 0.36437 0.86162 0.96152 0.0
C183 C 0.43832 0.84604 0.95791 0.0
C184 C 0.23214 0.08427 0.90098 0.0
O185 O 0.47667 0.87663 0.9141 0.0
C186 C 0.47869 0.15712 0.88973 0.0
O187 O 0.35029 0.89951 0.84189 0.0
O188 O 0.44868 0.98518 0.82884 0.0
O189 O 0.26976 0.10807 0.94707 0.0
O190 O 0.2475 1.01501 0.87778 0.0
C191 C 0.52261 1.04658 1.0092 0.0
O192 O 0.51773 0.09176 0.89015 0.0
O193 O 0.40585 0.15696 0.90814 0.0
C194 C 0.40506 0.93028 0.80841 0.0
O195 O 0.52758 0.98672 0.97589 0.0
O196 O 0.4696 0.09921 1.00432 0.0
C197 C 0.28999 0.98021 0.03986 0.0
Fe198 Fe 0.62396 0.48672 0.90309 0.0
Fe199 Fe 0.51447 0.37179 0.97238 0.0
O200 O 0.60274 0.38889 0.93039 0.0
Fe201 Fe 0.67256 0.30957 0.91745 0.0
O202 O 0.74823 0.36435 0.96152 0.0
O203 O 0.73323 0.47665 0.91409 0.0
O204 O 0.62314 0.52756 0.97589 0.0
C205 C 0.56327 0.5226 1.0092 0.0
C206 C 0.67957 0.40505 0.8084 0.0
O207 O 0.51065 0.46959 1.00432 0.0
C208 C 0.52557 0.23216 0.90098 0.0
O209 O 0.51809 0.51772 0.89015 0.0
O210 O 0.45289 0.40585 0.90814 0.0
O211 O 0.71034 0.35027 0.84188 0.0
O212 O 0.62468 0.44867 0.82884 0.0
C213 C 0.62964 0.28998 0.03986 0.0
O214 O 0.50177 0.26977 0.94706 0.0
O215 O 0.59484 0.24749 0.87778 0.0
C216 C 0.45274 0.47869 0.88973 0.0
O217 O 0.57262 0.34058 0.04001 0.0
O218 O 0.65149 0.25856 0.98997 0.0
C219 C 0.76382 0.4383 0.9579 0.0
Fe220 Fe 0.30028 0.67255 0.91745 0.0
Fe221 Fe 0.12313 0.62394 0.90309 0.0
O222 O 0.22096 0.60273 0.9304 0.0
Fe223 Fe 0.23807 0.51446 0.97238 0.0
O224 O 0.26927 0.57261 0.04002 0.0
O225 O 0.3513 0.65148 0.98998 0.0
O226 O 0.2455 0.74822 0.96153 0.0
C227 C 0.17154 0.7638 0.95791 0.0
C228 C 0.3777 0.52557 0.90098 0.0
O229 O 0.13319 0.73321 0.9141 0.0
C230 C 0.13118 0.45272 0.88973 0.0
O231 O 0.25958 0.71033 0.84189 0.0
O232 O 0.16118 0.62466 0.82884 0.0
O233 O 0.3401 0.50177 0.94707 0.0
O234 O 0.36237 0.59484 0.87778 0.0
C235 C 0.08726 0.56326 1.0092 0.0
O236 O 0.09214 0.51807 0.89015 0.0
O237 O 0.20402 0.45288 0.90814 0.0
C238 C 0.20481 0.67956 0.80841 0.0
O239 O 0.08229 0.62312 0.97589 0.0
O240 O 0.14027 0.51063 1.00432 0.0
C241 C 0.31987 0.62963 0.03987 0.0
Fe242 Fe 0.09542 0.23805 0.97238 0.0
Fe243 Fe 0.93732 0.30026 0.91745 0.0
O244 O 1.00715 0.22094 0.93039 0.0
Fe245 Fe 0.98593 0.12311 0.90308 0.0
O246 O 0.98675 0.08227 0.97588 0.0
O247 O 0.09924 0.14024 1.00431 0.0
O248 O 1.03726 0.26924 0.04001 0.0
C249 C 0.98024 0.31985 0.03986 0.0
C250 C 0.15712 0.13118 0.8897 0.0
O251 O 0.9584 0.35128 0.98997 0.0
C252 C 0.9303 0.20479 0.8084 0.0
O253 O 0.10811 0.34007 0.94706 0.0
O254 O 1.01504 0.36235 0.87778 0.0
O255 O 0.09179 0.09211 0.89014 0.0
O256 O 0.15702 0.204 0.90815 0.0
C257 C 0.84607 0.17153 0.9579 0.0
O258 O 0.89954 0.25956 0.84189 0.0
O259 O 0.9852 0.16116 0.82883 0.0
C260 C 0.08431 0.37768 0.90098 0.0
O261 O 0.86165 0.24548 0.96152 0.0
O262 O 0.87666 0.13318 0.91409 0.0
C263 C 1.04661 0.08724 1.00919 0.0
Fe264 Fe 0.98673 0.12393 0.65192 0.0
Fe265 Fe 0.87178 1.01446 0.58262 0.0
O266 O 0.8889 0.10272 0.62461 0.0
Fe267 Fe 0.80958 0.17254 0.63756 0.0
O268 O 0.86436 0.24822 0.59349 0.0
O269 O 0.97666 0.2332 0.64092 0.0
O270 O 1.02758 0.12312 0.57913 0.0
C271 C 1.02261 0.06326 0.54582 0.0
C272 C 0.90506 0.17955 0.74661 0.0
O273 O 0.96959 1.01064 0.55069 0.0
C274 C 0.73214 1.02556 0.65402 0.0
O275 O 1.01772 1.01807 0.66486 0.0
O276 O 0.90583 0.95288 0.64686 0.0
O277 O 0.85028 0.21032 0.71313 0.0
O278 O 0.94867 0.12465 0.72617 0.0
C279 C 0.78999 0.12964 0.51515 0.0
O280 O 0.76975 1.00177 0.60793 0.0
O281 O 0.7475 0.09482 0.67723 0.0
C282 C 0.97868 0.95272 0.66528 0.0
O283 O 0.8406 0.07262 0.51499 0.0
O284 O 0.75856 0.15148 0.56504 0.0
C285 C 0.93832 0.2638 0.59711 0.0
Fe286 Fe 0.59542 0.87177 0.58262 0.0
Fe287 Fe 0.43733 0.80956 0.63757 0.0
O288 O 0.50715 0.88889 0.62462 0.0
Fe289 Fe 0.48593 0.98671 0.65193 0.0
O290 O 0.48675 1.02756 0.57913 0.0
O291 O 0.59923 0.96958 0.55069 0.0
O292 O 0.53725 0.84059 0.515 0.0
C293 C 0.48024 0.78997 0.51515 0.0
C294 C 0.65712 0.97865 0.6653 0.0
O295 O 0.4584 0.75855 0.56504 0.0
C296 C 0.43031 0.90504 0.74661 0.0
O297 O 0.60811 0.76974 0.60794 0.0
O298 O 0.51506 0.74749 0.67723 0.0
O299 O 0.59179 1.01772 0.66487 0.0
O300 O 0.65703 0.90582 0.64685 0.0
C301 C 0.34607 0.93829 0.59712 0.0
O302 O 0.39955 0.85026 0.71313 0.0
O303 O 0.48521 0.94866 0.72618 0.0
C304 C 0.58432 0.73213 0.65403 0.0
O305 O 0.36166 0.86434 0.5935 0.0
O306 O 0.37666 0.97664 0.64093 0.0
C307 C 0.5466 1.0226 0.54582 0.0
Fe308 Fe 0.62314 0.48592 0.65193 0.0
Fe309 Fe 0.73809 0.59539 0.58262 0.0
O310 O 0.72097 0.50713 0.62462 0.0
Fe311 Fe 0.80029 0.43731 0.63756 0.0
O312 O 0.74551 0.36164 0.59349 0.0
O313 O 0.6332 0.37665 0.64092 0.0
O314 O 0.58229 0.48673 0.57913 0.0
C315 C 0.58726 0.54659 0.54582 0.0
C316 C 0.70481 0.43029 0.74661 0.0
O317 O 0.64027 0.59921 0.55069 0.0
C318 C 0.87773 0.58429 0.65402 0.0
O319 O 0.59215 0.59178 0.66487 0.0
O320 O 0.70405 0.657 0.64685 0.0
O321 O 0.75959 0.39953 0.71313 0.0
O322 O 0.66119 0.48519 0.72618 0.0
C323 C 0.81988 0.48021 0.51515 0.0
O324 O 0.84012 0.60807 0.60793 0.0
O325 O 0.86237 0.51503 0.67723 0.0
C326 C 0.63122 0.6571 0.6653 0.0
O327 O 0.76926 0.53722 0.51499 0.0
O328 O 0.85131 0.45837 0.56504 0.0
C329 C 0.67155 0.34605 0.59711 0.0
Fe330 Fe 1.01446 0.73806 0.58262 0.0
Fe331 Fe 0.17255 0.80027 0.63757 0.0
O332 O 0.10272 0.72094 0.62462 0.0
Fe333 Fe 0.12394 0.62312 0.65193 0.0
O334 O 0.12313 0.58227 0.57913 0.0
O335 O 1.01064 0.64025 0.5507 0.0
O336 O 0.07263 0.76924 0.515 0.0
C337 C 0.12964 0.81986 0.51515 0.0
C338 C 0.95275 0.63119 0.6653 0.0
O339 O 0.15148 0.85128 0.56504 0.0
C340 C 0.17957 0.7048 0.74661 0.0
O341 O 1.00177 0.84008 0.60793 0.0
O342 O 0.09483 0.86235 0.67723 0.0
O343 O 1.01808 0.59212 0.66487 0.0
O344 O 0.95285 0.70401 0.64685 0.0
C345 C 0.26381 0.67154 0.59712 0.0
O346 O 0.21033 0.75957 0.71313 0.0
O347 O 0.12467 0.66117 0.72618 0.0
C348 C 1.02556 0.87768 0.65403 0.0
O349 O 0.24822 0.74549 0.5935 0.0
O350 O 0.23321 0.63319 0.64092 0.0
C351 C 0.06327 0.58724 0.54582 0.0
loop_
_geom_bond_atom_site_label_1
_geom_bond_atom_site_label_2
_geom_bond_distance
_geom_bond_site_symmetry_2
_ccdc_geom_bond_type
Fe0 O2 1.918 1_565 S
Fe0 O5 2.004 1_565 S
Fe0 O6 2.002 1_554 S
Fe0 O11 1.976 . S
Fe0 O14 1.996 . S
Fe1 O2 1.918 . S
Fe1 O9 1.997 . S
Fe1 O12 1.996 1_545 S
Fe1 O16 1.976 . S
Fe1 O19 2.002 . S
O2 Fe0 1.918 1_545 S
O2 Fe1 1.918 . S
O2 Fe3 1.918 . S
Fe3 O2 1.918 . S
Fe3 O4 2.002 . S
Fe3 O13 1.976 . S
Fe3 O17 1.996 . S
Fe3 O20 1.997 . S
O4 Fe3 2.002 . S
O4 C21 1.295 . S
O5 Fe0 2.004 1_545 S
O5 C21 1.236 . S
O6 Fe0 2.002 1_556 S
O6 C7 1.295 . S
C7 O6 1.295 . S
C7 O9 1.235 1_566 S
C8 O13 1.287 1_565 S
C8 O14 1.255 . S
O9 Fe1 1.997 . S
O9 C7 1.235 1_544 S
C10 O16 1.287 . S
C10 O17 1.255 . S
O11 Fe0 1.976 . S
O11 C18 1.287 . S
O12 Fe1 1.996 1_565 S
O12 C18 1.255 . S
O13 Fe3 1.976 . S
O13 C8 1.287 1_545 S
O14 Fe0 1.996 . S
O14 C8 1.255 . S
C15 O19 1.295 . S
C15 O20 1.235 . S
O16 Fe1 1.976 . S
O16 C10 1.287 . S
O17 Fe3 1.996 . S
O17 C10 1.255 . S
C18 O11 1.287 . S
C18 O12 1.255 . S
O19 Fe1 2.002 . S
O19 C15 1.295 . S
O20 Fe3 1.997 . S
O20 C15 1.235 . S
C21 O4 1.295 . S
C21 O5 1.236 . S
Fe22 O24 1.918 . S
Fe22 O27 1.997 . S
Fe22 O28 2.002 . S
Fe22 O33 1.976 . S
Fe22 O36 1.996 . S
Fe23 O24 1.918 . S
Fe23 O31 2.004 . S
Fe23 O34 1.996 . S
Fe23 O38 1.976 . S
Fe23 O41 2.002 1_554 S
O24 Fe22 1.918 . S
O24 Fe23 1.918 . S
O24 Fe25 1.918 . S
Fe25 O24 1.918 . S
Fe25 O26 2.002 . S
Fe25 O35 1.976 . S
Fe25 O39 1.996 . S
Fe25 O42 1.997 . S
O26 Fe25 2.002 . S
O26 C43 1.295 . S
O27 Fe22 1.997 . S
O27 C43 1.235 . S
O28 Fe22 2.002 . S
O28 C29 1.295 . S
C29 O28 1.295 . S
C29 O31 1.236 . S
C30 O35 1.287 . S
C30 O36 1.255 . S
O31 Fe23 2.004 . S
O31 C29 1.236 . S
C32 O38 1.287 . S
C32 O39 1.255 . S
O33 Fe22 1.976 . S
O33 C40 1.287 . S
O34 Fe23 1.996 . S
O34 C40 1.255 . S
O35 Fe25 1.976 . S
O35 C30 1.287 . S
O36 Fe22 1.996 . S
O36 C30 1.255 . S
C37 O41 1.295 . S
C37 O42 1.235 1_556 S
O38 Fe23 1.976 . S
O38 C32 1.287 . S
O39 Fe25 1.996 . S
O39 C32 1.255 . S
C40 O33 1.287 . S
C40 O34 1.255 . S
O41 Fe23 2.002 1_556 S
O41 C37 1.295 . S
O42 Fe25 1.997 . S
O42 C37 1.235 1_554 S
C43 O26 1.295 . S
C43 O27 1.235 . S
Fe44 O46 1.918 . S
Fe44 O49 1.997 . S
Fe44 O50 2.002 . S
Fe44 O55 1.976 . S
Fe44 O58 1.996 . S
Fe45 O46 1.918 . S
Fe45 O53 2.004 . S
Fe45 O56 1.996 . S
Fe45 O60 1.976 . S
Fe45 O63 2.002 1_554 S
O46 Fe44 1.918 . S
O46 Fe45 1.918 . S
O46 Fe47 1.918 . S
Fe47 O46 1.918 . S
Fe47 O48 2.002 . S
Fe47 O57 1.976 . S
Fe47 O61 1.996 . S
Fe47 O64 1.997 . S
O48 Fe47 2.002 . S
O48 C65 1.295 . S
O49 Fe44 1.997 . S
O49 C65 1.235 . S
O50 Fe44 2.002 . S
O50 C51 1.295 . S
C51 O50 1.295 . S
C51 O53 1.236 . S
C52 O57 1.287 . S
C52 O58 1.255 . S
O53 Fe45 2.004 . S
O53 C51 1.236 . S
C54 O60 1.287 . S
C54 O61 1.255 . S
O55 Fe44 1.976 . S
O55 C62 1.287 . S
O56 Fe45 1.996 . S
O56 C62 1.255 . S
O57 Fe47 1.976 . S
O57 C52 1.287 . S
O58 Fe44 1.996 . S
O58 C52 1.255 . S
C59 O63 1.295 . S
C59 O64 1.235 1_556 S
O60 Fe45 1.976 . S
O60 C54 1.287 . S
O61 Fe47 1.996 . S
O61 C54 1.255 . S
C62 O55 1.287 . S
C62 O56 1.255 . S
O63 Fe45 2.002 1_556 S
O63 C59 1.295 . S
O64 Fe47 1.997 . S
O64 C59 1.235 1_554 S
C65 O48 1.295 . S
C65 O49 1.235 . S
Fe66 O68 1.918 1_655 S
Fe66 O71 2.004 1_655 S
Fe66 O72 2.002 1_554 S
Fe66 O77 1.976 . S
Fe66 O80 1.996 . S
Fe67 O68 1.918 . S
Fe67 O75 1.997 . S
Fe67 O78 1.996 1_455 S
Fe67 O82 1.976 . S
Fe67 O85 2.002 . S
O68 Fe66 1.918 1_455 S
O68 Fe67 1.918 . S
O68 Fe69 1.918 . S
Fe69 O68 1.918 . S
Fe69 O70 2.002 . S
Fe69 O79 1.976 . S
Fe69 O83 1.996 . S
Fe69 O86 1.997 . S
O70 Fe69 2.002 . S
O70 C87 1.295 . S
O71 Fe66 2.004 1_455 S
O71 C87 1.236 . S
O72 Fe66 2.002 1_556 S
O72 C73 1.295 . S
C73 O72 1.295 . S
C73 O75 1.235 1_656 S
C74 O79 1.287 1_655 S
C74 O80 1.255 . S
O75 Fe67 1.997 . S
O75 C73 1.235 1_454 S
C76 O82 1.287 . S
C76 O83 1.255 . S
O77 Fe66 1.976 . S
O77 C84 1.287 . S
O78 Fe67 1.996 1_655 S
O78 C84 1.255 . S
O79 Fe69 1.976 . S
O79 C74 1.287 1_455 S
O80 Fe66 1.996 . S
O80 C74 1.255 . S
C81 O85 1.295 . S
C81 O86 1.235 . S
O82 Fe67 1.976 . S
O82 C76 1.287 . S
O83 Fe69 1.996 . S
O83 C76 1.255 . S
C84 O77 1.287 . S
C84 O78 1.255 . S
O85 Fe67 2.002 . S
O85 C81 1.295 . S
O86 Fe69 1.997 . S
O86 C81 1.235 . S
C87 O70 1.295 . S
C87 O71 1.236 . S
Fe88 O90 1.918 1_545 S
Fe88 O93 1.997 1_545 S
Fe88 O94 2.002 . S
Fe88 O99 1.976 . S
Fe88 O102 1.996 . S
Fe89 O90 1.918 . S
Fe89 O97 1.997 . S
Fe89 O100 1.996 1_565 S
Fe89 O104 1.976 . S
Fe89 O107 2.002 . S
O90 Fe88 1.918 1_565 S
O90 Fe89 1.918 . S
O90 Fe91 1.918 . S
Fe91 O90 1.918 . S
Fe91 O92 2.002 . S
Fe91 O101 1.976 . S
Fe91 O105 1.996 . S
Fe91 O108 1.997 . S
O92 Fe91 2.002 . S
O92 C109 1.295 . S
O93 Fe88 1.997 1_565 S
O93 C109 1.235 . S
O94 Fe88 2.002 . S
O94 C95 1.295 . S
C95 O94 1.295 . S
C95 O97 1.235 1_545 S
C96 O101 1.287 1_545 S
C96 O102 1.255 . S
O97 Fe89 1.997 . S
O97 C95 1.235 1_565 S
C98 O104 1.287 . S
C98 O105 1.255 . S
O99 Fe88 1.976 . S
O99 C106 1.287 . S
O100 Fe89 1.996 1_545 S
O100 C106 1.255 . S
O101 Fe91 1.976 . S
O101 C96 1.287 1_565 S
O102 Fe88 1.996 . S
O102 C96 1.255 . S
C103 O107 1.295 . S
C103 O108 1.235 . S
O104 Fe89 1.976 . S
O104 C98 1.287 . S
O105 Fe91 1.996 . S
O105 C98 1.255 . S
C106 O99 1.287 . S
C106 O100 1.255 . S
O107 Fe89 2.002 . S
O107 C103 1.295 . S
O108 Fe91 1.997 . S
O108 C103 1.235 . S
C109 O92 1.295 . S
C109 O93 1.235 . S
Fe110 O112 1.918 . S
Fe110 O115 1.997 . S
Fe110 O116 2.002 . S
Fe110 O121 1.976 . S
Fe110 O124 1.996 . S
Fe111 O112 1.918 . S
Fe111 O119 1.997 . S
Fe111 O122 1.996 . S
Fe111 O126 1.976 . S
Fe111 O129 2.002 . S
O112 Fe110 1.918 . S
O112 Fe111 1.918 . S
O112 Fe113 1.918 . S
Fe113 O112 1.918 . S
Fe113 O114 2.002 . S
Fe113 O123 1.976 . S
Fe113 O127 1.996 . S
Fe113 O130 1.997 . S
O114 Fe113 2.002 . S
O114 C131 1.295 . S
O115 Fe110 1.997 . S
O115 C131 1.235 . S
O116 Fe110 2.002 . S
O116 C117 1.295 . S
C117 O116 1.295 . S
C117 O119 1.235 . S
C118 O123 1.287 . S
C118 O124 1.255 . S
O119 Fe111 1.997 . S
O119 C117 1.235 . S
C120 O126 1.287 . S
C120 O127 1.255 . S
O121 Fe110 1.976 . S
O121 C128 1.287 . S
O122 Fe111 1.996 . S
O122 C128 1.255 . S
O123 Fe113 1.976 . S
O123 C118 1.287 . S
O124 Fe110 1.996 . S
O124 C118 1.255 . S
C125 O129 1.295 . S
C125 O130 1.235 . S
O126 Fe111 1.976 . S
O126 C120 1.287 . S
O127 Fe113 1.996 . S
O127 C120 1.255 . S
C128 O121 1.287 . S
C128 O122 1.255 . S
O129 Fe111 2.002 . S
O129 C125 1.295 . S
O130 Fe113 1.997 . S
O130 C125 1.235 . S
C131 O114 1.295 . S
C131 O115 1.235 . S
Fe132 O134 1.918 . S
Fe132 O137 1.997 . S
Fe132 O138 2.002 . S
Fe132 O143 1.976 . S
Fe132 O146 1.996 . S
Fe133 O134 1.918 . S
Fe133 O141 1.997 . S
Fe133 O144 1.996 . S
Fe133 O148 1.976 . S
Fe133 O151 2.002 . S
O134 Fe132 1.918 . S
O134 Fe133 1.918 . S
O134 Fe135 1.918 . S
Fe135 O134 1.918 . S
Fe135 O136 2.002 . S
Fe135 O145 1.976 . S
Fe135 O149 1.996 . S
Fe135 O152 1.997 . S
O136 Fe135 2.002 . S
O136 C153 1.295 . S
O137 Fe132 1.997 . S
O137 C153 1.235 . S
O138 Fe132 2.002 . S
O138 C139 1.295 . S
C139 O138 1.295 . S
C139 O141 1.235 . S
C140 O145 1.287 . S
C140 O146 1.255 . S
O141 Fe133 1.997 . S
O141 C139 1.235 . S
C142 O148 1.287 . S
C142 O149 1.255 . S
O143 Fe132 1.976 . S
O143 C150 1.287 . S
O144 Fe133 1.996 . S
O144 C150 1.255 . S
O145 Fe135 1.976 . S
O145 C140 1.287 . S
O146 Fe132 1.996 . S
O146 C140 1.255 . S
C147 O151 1.295 . S
C147 O152 1.235 . S
O148 Fe133 1.976 . S
O148 C142 1.287 . S
O149 Fe135 1.996 . S
O149 C142 1.255 . S
C150 O143 1.287 . S
C150 O144 1.255 . S
O151 Fe133 2.002 . S
O151 C147 1.295 . S
O152 Fe135 1.997 . S
O152 C147 1.235 . S
C153 O136 1.295 . S
C153 O137 1.235 . S
Fe154 O156 1.918 . S
Fe154 O159 1.997 . S
Fe154 O160 2.002 . S
Fe154 O165 1.976 . S
Fe154 O168 1.996 1_655 S
Fe155 O156 1.918 . S
Fe155 O163 1.997 . S
Fe155 O166 1.996 . S
Fe155 O170 1.976 . S
Fe155 O173 2.002 . S
O156 Fe154 1.918 . S
O156 Fe155 1.918 . S
O156 Fe157 1.918 1_655 S
Fe157 O156 1.918 1_455 S
Fe157 O158 2.002 . S
Fe157 O167 1.976 . S
Fe157 O171 1.996 . S
Fe157 O174 1.997 1_455 S
O158 Fe157 2.002 . S
O158 C175 1.295 . S
O159 Fe154 1.997 . S
O159 C175 1.235 1_655 S
O160 Fe154 2.002 . S
O160 C161 1.295 . S
C161 O160 1.295 . S
C161 O163 1.235 . S
C162 O167 1.287 . S
C162 O168 1.255 . S
O163 Fe155 1.997 . S
O163 C161 1.235 . S
C164 O170 1.287 1_455 S
C164 O171 1.255 . S
O165 Fe154 1.976 . S
O165 C172 1.287 . S
O166 Fe155 1.996 . S
O166 C172 1.255 . S
O167 Fe157 1.976 . S
O167 C162 1.287 . S
O168 Fe154 1.996 1_455 S
O168 C162 1.255 . S
C169 O173 1.295 . S
C169 O174 1.235 . S
O170 Fe155 1.976 . S
O170 C164 1.287 1_655 S
O171 Fe157 1.996 . S
O171 C164 1.255 . S
C172 O165 1.287 . S
C172 O166 1.255 . S
O173 Fe155 2.002 . S
O173 C169 1.295 . S
O174 Fe157 1.997 1_655 S
O174 C169 1.235 . S
C175 O158 1.295 . S
C175 O159 1.235 1_455 S
Fe176 O178 1.918 . S
Fe176 O181 1.997 . S
Fe176 O182 2.002 . S
Fe176 O187 1.976 . S
Fe176 O190 1.996 . S
Fe177 O178 1.918 . S
Fe177 O185 1.997 . S
Fe177 O188 1.996 . S
Fe177 O192 1.976 1_565 S
Fe177 O195 2.002 . S
O178 Fe176 1.918 . S
O178 Fe177 1.918 . S
O178 Fe179 1.918 1_565 S
Fe179 O178 1.918 1_545 S
Fe179 O180 2.002 1_546 S
Fe179 O189 1.976 . S
Fe179 O193 1.996 . S
Fe179 O196 1.997 1_556 S
O180 Fe179 2.002 1_564 S
O180 C197 1.294 1_554 S
O181 Fe176 1.997 . S
O181 C197 1.242 . S
O182 Fe176 2.002 . S
O182 C183 1.295 . S
C183 O182 1.295 . S
C183 O185 1.235 . S
C184 O189 1.287 . S
C184 O190 1.255 1_545 S
O185 Fe177 1.997 . S
O185 C183 1.235 . S
C186 O192 1.287 . S
C186 O193 1.255 . S
O187 Fe176 1.976 . S
O187 C194 1.287 . S
O188 Fe177 1.996 . S
O188 C194 1.255 . S
O189 Fe179 1.976 . S
O189 C184 1.287 . S
O190 Fe176 1.996 . S
O190 C184 1.255 1_565 S
C191 O195 1.295 1_544 S
C191 O196 1.235 . S
O192 Fe177 1.976 1_545 S
O192 C186 1.287 . S
O193 Fe179 1.996 . S
O193 C186 1.255 . S
C194 O187 1.287 . S
C194 O188 1.255 . S
O195 Fe177 2.002 . S
O195 C191 1.295 1_566 S
O196 Fe179 1.997 1_554 S
O196 C191 1.235 . S
C197 O180 1.294 1_556 S
C197 O181 1.242 . S
Fe198 O200 1.918 . S
Fe198 O203 1.997 . S
Fe198 O204 2.002 . S
Fe198 O209 1.976 . S
Fe198 O212 1.996 . S
Fe199 O200 1.918 . S
Fe199 O207 1.997 1_556 S
Fe199 O210 1.996 . S
Fe199 O214 1.976 . S
Fe199 O217 2.002 1_556 S
O200 Fe198 1.918 . S
O200 Fe199 1.918 . S
O200 Fe201 1.918 . S
Fe201 O200 1.918 . S
Fe201 O202 2.002 . S
Fe201 O211 1.976 . S
Fe201 O215 1.996 . S
Fe201 O218 1.997 . S
O202 Fe201 2.002 . S
O202 C219 1.295 . S
O203 Fe198 1.997 . S
O203 C219 1.235 . S
O204 Fe198 2.002 . S
O204 C205 1.295 1_556 S
C205 O204 1.295 1_554 S
C205 O207 1.235 . S
C206 O211 1.287 . S
C206 O212 1.255 . S
O207 Fe199 1.997 1_554 S
O207 C205 1.235 . S
C208 O214 1.287 . S
C208 O215 1.255 . S
O209 Fe198 1.976 . S
O209 C216 1.287 . S
O210 Fe199 1.996 . S
O210 C216 1.255 . S
O211 Fe201 1.976 . S
O211 C206 1.287 . S
O212 Fe198 1.996 . S
O212 C206 1.255 . S
C213 O217 1.294 1_556 S
C213 O218 1.242 . S
O214 Fe199 1.976 . S
O214 C208 1.287 . S
O215 Fe201 1.996 . S
O215 C208 1.255 . S
C216 O209 1.287 . S
C216 O210 1.255 . S
O217 Fe199 2.002 1_554 S
O217 C213 1.294 1_554 S
O218 Fe201 1.997 . S
O218 C213 1.242 . S
C219 O202 1.295 . S
C219 O203 1.235 . S
Fe220 O222 1.918 . S
Fe220 O225 1.997 . S
Fe220 O226 2.002 . S
Fe220 O231 1.976 . S
Fe220 O234 1.996 . S
Fe221 O222 1.918 . S
Fe221 O229 1.997 . S
Fe221 O232 1.996 . S
Fe221 O236 1.976 . S
Fe221 O239 2.002 . S
O222 Fe220 1.918 . S
O222 Fe221 1.918 . S
O222 Fe223 1.918 . S
Fe223 O222 1.918 . S
Fe223 O224 2.002 1_556 S
Fe223 O233 1.976 . S
Fe223 O237 1.996 . S
Fe223 O240 1.997 1_556 S
O224 Fe223 2.002 1_554 S
O224 C241 1.294 1_554 S
O225 Fe220 1.997 . S
O225 C241 1.242 . S
O226 Fe220 2.002 . S
O226 C227 1.295 . S
C227 O226 1.295 . S
C227 O229 1.235 . S
C228 O233 1.287 . S
C228 O234 1.255 . S
O229 Fe221 1.997 . S
O229 C227 1.235 . S
C230 O236 1.287 . S
C230 O237 1.255 . S
O231 Fe220 1.976 . S
O231 C238 1.287 . S
O232 Fe221 1.996 . S
O232 C238 1.255 . S
O233 Fe223 1.976 . S
O233 C228 1.287 . S
O234 Fe220 1.996 . S
O234 C228 1.255 . S
C235 O239 1.295 1_554 S
C235 O240 1.235 . S
O236 Fe221 1.976 . S
O236 C230 1.287 . S
O237 Fe223 1.996 . S
O237 C230 1.255 . S
C238 O231 1.287 . S
C238 O232 1.255 . S
O239 Fe221 2.002 . S
O239 C235 1.295 1_556 S
O240 Fe223 1.997 1_554 S
O240 C235 1.235 . S
C241 O224 1.294 1_556 S
C241 O225 1.242 . S
Fe242 O244 1.918 1_455 S
Fe242 O247 1.997 1_556 S
Fe242 O248 2.002 1_456 S
Fe242 O253 1.976 . S
Fe242 O256 1.996 . S
Fe243 O244 1.918 . S
Fe243 O251 1.997 . S
Fe243 O254 1.996 . S
Fe243 O258 1.976 . S
Fe243 O261 2.002 . S
O244 Fe242 1.918 1_655 S
O244 Fe243 1.918 . S
O244 Fe245 1.918 . S
Fe245 O244 1.918 . S
Fe245 O246 2.002 . S
Fe245 O255 1.976 1_655 S
Fe245 O259 1.996 . S
Fe245 O262 1.997 . S
O246 Fe245 2.002 . S
O246 C263 1.295 1_656 S
O247 Fe242 1.997 1_554 S
O247 C263 1.235 . S
O248 Fe242 2.002 1_654 S
O248 C249 1.294 1_554 S
C249 O248 1.294 1_556 S
C249 O251 1.242 . S
C250 O255 1.287 . S
C250 O256 1.255 . S
O251 Fe243 1.997 . S
O251 C249 1.242 . S
C252 O258 1.287 . S
C252 O259 1.255 . S
O253 Fe242 1.976 . S
O253 C260 1.287 . S
O254 Fe243 1.996 . S
O254 C260 1.255 1_655 S
O255 Fe245 1.976 1_455 S
O255 C250 1.287 . S
O256 Fe242 1.996 . S
O256 C250 1.255 . S
C257 O261 1.295 . S
C257 O262 1.235 . S
O258 Fe243 1.976 . S
O258 C252 1.287 . S
O259 Fe245 1.996 . S
O259 C252 1.255 . S
C260 O253 1.287 . S
C260 O254 1.255 1_455 S
O261 Fe243 2.002 . S
O261 C257 1.295 . S
O262 Fe245 1.997 . S
O262 C257 1.235 . S
C263 O246 1.295 1_454 S
C263 O247 1.235 . S
Fe264 O266 1.918 . S
Fe264 O269 1.997 . S
Fe264 O270 2.002 . S
Fe264 O275 1.976 1_545 S
Fe264 O278 1.996 . S
Fe265 O266 1.918 1_565 S
Fe265 O273 1.997 . S
Fe265 O276 1.996 . S
Fe265 O280 1.976 . S
Fe265 O283 2.002 1_565 S
O266 Fe264 1.918 . S
O266 Fe265 1.918 1_545 S
O266 Fe267 1.918 . S
Fe267 O266 1.918 . S
Fe267 O268 2.002 . S
Fe267 O277 1.976 . S
Fe267 O281 1.996 . S
Fe267 O284 1.997 . S
O268 Fe267 2.002 . S
O268 C285 1.295 . S
O269 Fe264 1.997 . S
O269 C285 1.235 . S
O270 Fe264 2.002 . S
O270 C271 1.295 1_545 S
C271 O270 1.295 1_565 S
C271 O273 1.235 . S
C272 O277 1.287 . S
C272 O278 1.255 . S
O273 Fe265 1.997 . S
O273 C271 1.235 . S
C274 O280 1.287 . S
C274 O281 1.255 1_565 S
O275 Fe264 1.976 1_565 S
O275 C282 1.287 . S
O276 Fe265 1.996 . S
O276 C282 1.255 . S
O277 Fe267 1.976 . S
O277 C272 1.287 . S
O278 Fe264 1.996 . S
O278 C272 1.255 . S
C279 O283 1.295 . S
C279 O284 1.235 . S
O280 Fe265 1.976 . S
O280 C274 1.287 . S
O281 Fe267 1.996 . S
O281 C274 1.255 1_545 S
C282 O275 1.287 . S
C282 O276 1.255 . S
O283 Fe265 2.002 1_545 S
O283 C279 1.295 . S
O284 Fe267 1.997 . S
O284 C279 1.235 . S
C285 O268 1.295 . S
C285 O269 1.235 . S
Fe286 O288 1.918 . S
Fe286 O291 1.997 . S
Fe286 O292 2.002 . S
Fe286 O297 1.976 . S
Fe286 O300 1.996 . S
Fe287 O288 1.918 . S
Fe287 O295 1.997 . S
Fe287 O298 1.996 . S
Fe287 O302 1.976 . S
Fe287 O305 2.002 . S
O288 Fe286 1.918 . S
O288 Fe287 1.918 . S
O288 Fe289 1.918 . S
Fe289 O288 1.918 . S
Fe289 O290 2.002 . S
Fe289 O299 1.976 . S
Fe289 O303 1.996 . S
Fe289 O306 1.997 . S
O290 Fe289 2.002 . S
O290 C307 1.295 . S
O291 Fe286 1.997 . S
O291 C307 1.235 . S
O292 Fe286 2.002 . S
O292 C293 1.295 . S
C293 O292 1.295 . S
C293 O295 1.235 . S
C294 O299 1.287 . S
C294 O300 1.255 . S
O295 Fe287 1.997 . S
O295 C293 1.235 . S
C296 O302 1.287 . S
C296 O303 1.255 . S
O297 Fe286 1.976 . S
O297 C304 1.287 . S
O298 Fe287 1.996 . S
O298 C304 1.255 . S
O299 Fe289 1.976 . S
O299 C294 1.287 . S
O300 Fe286 1.996 . S
O300 C294 1.255 . S
C301 O305 1.295 . S
C301 O306 1.235 . S
O302 Fe287 1.976 . S
O302 C296 1.287 . S
O303 Fe289 1.996 . S
O303 C296 1.255 . S
C304 O297 1.287 . S
C304 O298 1.255 . S
O305 Fe287 2.002 . S
O305 C301 1.295 . S
O306 Fe289 1.997 . S
O306 C301 1.235 . S
C307 O290 1.295 . S
C307 O291 1.235 . S
Fe308 O310 1.918 . S
Fe308 O313 1.997 . S
Fe308 O314 2.002 . S
Fe308 O319 1.976 . S
Fe308 O322 1.996 . S
Fe309 O310 1.918 . S
Fe309 O317 1.997 . S
Fe309 O320 1.996 . S
Fe309 O324 1.976 . S
Fe309 O327 2.002 . S
O310 Fe308 1.918 . S
O310 Fe309 1.918 . S
O310 Fe311 1.918 . S
Fe311 O310 1.918 . S
Fe311 O312 2.002 . S
Fe311 O321 1.976 . S
Fe311 O325 1.996 . S
Fe311 O328 1.997 . S
O312 Fe311 2.002 . S
O312 C329 1.295 . S
O313 Fe308 1.997 . S
O313 C329 1.235 . S
O314 Fe308 2.002 . S
O314 C315 1.295 . S
C315 O314 1.295 . S
C315 O317 1.235 . S
C316 O321 1.287 . S
C316 O322 1.255 . S
O317 Fe309 1.997 . S
O317 C315 1.235 . S
C318 O324 1.287 . S
C318 O325 1.255 . S
O319 Fe308 1.976 . S
O319 C326 1.287 . S
O320 Fe309 1.996 . S
O320 C326 1.255 . S
O321 Fe311 1.976 . S
O321 C316 1.287 . S
O322 Fe308 1.996 . S
O322 C316 1.255 . S
C323 O327 1.295 . S
C323 O328 1.235 . S
O324 Fe309 1.976 . S
O324 C318 1.287 . S
O325 Fe311 1.996 . S
O325 C318 1.255 . S
C326 O319 1.287 . S
C326 O320 1.255 . S
O327 Fe309 2.002 . S
O327 C323 1.295 . S
O328 Fe311 1.997 . S
O328 C323 1.235 . S
C329 O312 1.295 . S
C329 O313 1.235 . S
Fe330 O332 1.918 1_655 S
Fe330 O335 1.997 . S
Fe330 O336 2.002 1_655 S
Fe330 O341 1.976 . S
Fe330 O344 1.996 . S
Fe331 O332 1.918 . S
Fe331 O339 1.997 . S
Fe331 O342 1.996 . S
Fe331 O346 1.976 . S
Fe331 O349 2.002 . S
O332 Fe330 1.918 1_455 S
O332 Fe331 1.918 . S
O332 Fe333 1.918 . S
Fe333 O332 1.918 . S
Fe333 O334 2.002 . S
Fe333 O343 1.976 1_455 S
Fe333 O347 1.996 . S
Fe333 O350 1.997 . S
O334 Fe333 2.002 . S
O334 C351 1.295 1_455 S
O335 Fe330 1.997 . S
O335 C351 1.235 . S
O336 Fe330 2.002 1_455 S
O336 C337 1.295 . S
C337 O336 1.295 . S
C337 O339 1.235 . S
C338 O343 1.287 . S
C338 O344 1.255 . S
O339 Fe331 1.997 . S
O339 C337 1.235 . S
C340 O346 1.287 . S
C340 O347 1.255 . S
O341 Fe330 1.976 . S
O341 C348 1.287 . S
O342 Fe331 1.996 . S
O342 C348 1.255 1_455 S
O343 Fe333 1.976 1_655 S
O343 C338 1.287 . S
O344 Fe330 1.996 . S
O344 C338 1.255 . S
C345 O349 1.295 . S
C345 O350 1.235 . S
O346 Fe331 1.976 . S
O346 C340 1.287 . S
O347 Fe333 1.996 . S
O347 C340 1.255 . S
C348 O341 1.287 . S
C348 O342 1.255 1_655 S
O349 Fe331 2.002 . S
O349 C345 1.295 . S
O350 Fe333 1.997 . S
O350 C345 1.235 . S
C351 O334 1.295 1_655 S
C351 O335 1.235 . S
C10 C120 1.394 . S
C30 C150 1.394 . S
C172 C52 1.394 . S
C98 C76 1.394 . S
C194 C296 1.374 . S
C206 C316 1.374 . S
C238 C340 1.374 . S
C252 C272 1.374 . S
C7 C191 1.485 1_566 S
C37 C205 1.485 1_556 S
C235 C59 1.485 1_454 S
C263 C73 1.485 1_444 S
C95 C271 1.485 1_445 S
C117 C307 1.485 1_545 S
C315 C153 1.485 . S
C351 C175 1.485 1_655 S
C18 C40 1.657 . S
C32 C62 1.656 . S
C74 C54 1.657 . S
C84 C8 1.657 . S
C106 C164 1.657 . S
C128 C96 1.657 . S
C140 C118 1.656 . S
C162 C142 1.657 . S
C186 C208 1.650 . S
C228 C216 1.650 . S
C260 C230 1.650 . S
C184 C250 1.650 . S
C282 C348 1.650 . S
C294 C274 1.650 . S
C304 C326 1.650 . S
C338 C318 1.650 . S
C15 C213 2.163 1_554 S
C241 C43 2.163 1_556 S
C65 C249 2.163 1_554 S
C197 C81 2.163 1_556 S
C103 C337 2.171 . S
C279 C125 2.171 . S
C293 C139 2.171 . S
C161 C323 2.171 . S
C29 C183 2.196 1_554 S
C219 C51 2.196 1_556 S
C87 C227 2.196 1_554 S
C21 C257 2.196 1_554 S
C169 C285 2.196 . S
C301 C109 2.196 . S
C329 C131 2.196 . S
C345 C147 2.196 . S
