# Generated by pormake.
# Topology snp, (6)-cn, num edge types: 1
# Building blocks:
#     Node 0, Type 0, BuildingBlock: KUMBOL_clean_sbu_1, # of connection points: 6
#     Node 1, Type 0, BuildingBlock: KUMBOL_clean_sbu_1, # of connection points: 6
#     Node 2, Type 0, BuildingBlock: KUMBOL_clean_sbu_1, # of connection points: 6
#     Node 3, Type 0, BuildingBlock: KUMBOL_clean_sbu_1, # of connection points: 6
#     Edge 4, Type (0, 0), BuildingBlock: ZUJKAS_clean_linker_0, # of connection points: 2
#     Edge 5, Type (0, 0), BuildingBlock: ZUJKAS_clean_linker_0, # of connection points: 2
#     Edge 6, Type (0, 0), BuildingBlock: ZUJKAS_clean_linker_0, # of connection points: 2
#     Edge 7, Type (0, 0), BuildingBlock: ZUJKAS_clean_linker_0, # of connection points: 2
#     Edge 8, Type (0, 0), BuildingBlock: ZUJKAS_clean_linker_0, # of connection points: 2
#     Edge 9, Type (0, 0), BuildingBlock: ZUJKAS_clean_linker_0, # of connection points: 2
#     Edge 10, Type (0, 0), BuildingBlock: ZUJKAS_clean_linker_0, # of connection points: 2
#     Edge 11, Type (0, 0), BuildingBlock: ZUJKAS_clean_linker_0, # of connection points: 2
#     Edge 12, Type (0, 0), BuildingBlock: ZUJKAS_clean_linker_0, # of connection points: 2
#     Edge 13, Type (0, 0), BuildingBlock: ZUJKAS_clean_linker_0, # of connection points: 2
#     Edge 14, Type (0, 0), BuildingBlock: ZUJKAS_clean_linker_0, # of connection points: 2
#     Edge 15, Type (0, 0), BuildingBlock: ZUJKAS_clean_linker_0, # of connection points: 2
# Relax obj value: 0.194
# Max RMSD: 0.233
# Mean RMSD: 0.233
data_MOF--net-snp--node1-KUMBOL_clean_sbu_1--edge1-ZUJKAS_clean_linker_0
_symmetry_space_group_name_H-M    P1
_symmetry_Int_Tables_number       1
_symmetry_cell_setting            triclinic
loop_
_symmetry_equiv_pos_as_xyz
'x, y, z'
_cell_length_a     32.339725
_cell_length_b     32.310458
_cell_length_c     42.259682
_cell_angle_alpha  109.28031
_cell_angle_beta   70.773871
_cell_angle_gamma 155.15309
loop_
_atom_site_label
_atom_site_type_symbol
_atom_site_fract_x
_atom_site_fract_y
_atom_site_fract_z
_atom_type_partial_charge
C0 C 0.35909 0.13539 0.08229 0.0
C1 C 0.36509 0.06136 0.05808 0.0
C2 C 0.4047 0.13672 0.07843 0.0
C3 C 0.28355 0.98891 0.03983 0.0
C4 C 0.2724 0.05795 0.06597 0.0
C5 C 0.2374 0.9873 0.04372 0.0
N6 N 0.39397 0.20418 0.10426 0.0
C7 C 0.33549 0.18833 0.11538 0.0
C8 C 0.22029 0.05051 0.0739 0.0
C9 C 0.2505 0.11438 0.09943 0.0
Gd10 Gd 0.82121 0.62956 0.08074 0.0
Gd11 Gd 0.54599 0.33295 0.12576 0.0
N12 N 0.48573 0.20965 0.09551 0.0
C13 C 0.40791 0.06037 0.05704 0.0
C14 C 0.52471 0.20642 0.09585 0.0
C15 C 0.48706 0.13231 0.07644 0.0
H16 H 0.58394 0.26031 0.11146 0.0
H17 H 0.51904 0.13068 0.07644 0.0
H18 H 0.78332 0.70362 0.10436 0.0
H19 H 0.35353 0.23192 0.13686 0.0
H20 H 0.85607 0.83706 0.14114 0.0
H21 H 0.37928 0.00342 0.04188 0.0
H22 H 0.25338 0.93162 0.02357 0.0
H23 H -0.00066 0.7107 0.06621 0.0
H24 H 0.15319 0.99185 0.06208 0.0
H25 H 0.20668 0.10472 0.10755 0.0
H26 H 0.13351 0.03632 0.18217 0.0
H27 H 0.17187 0.92831 0.03064 0.0
H28 H 0.22061 0.96298 0.13478 0.0
H29 H 0.15182 0.83868 0.09093 0.0
N30 N 0.97359 0.75328 0.09891 0.0
C31 C 0.01324 0.82446 0.12174 0.0
C32 C 0.02486 0.76069 0.08667 0.0
C33 C 0.15134 0.9046 0.12496 0.0
C34 C 0.11266 0.83447 0.1002 0.0
C35 C 0.10309 0.9018 0.13542 0.0
H36 H 0.21278 0.03562 0.16884 0.0
N37 N 0.88371 0.75185 0.11538 0.0
C38 C 0.96794 0.82455 0.12977 0.0
C39 C 0.96982 0.90521 0.1556 0.0
C40 C 0.01214 0.90229 0.15091 0.0
C41 C 0.84627 0.7582 0.11785 0.0
C42 C 0.88746 0.83372 0.13853 0.0
O43 O 0.58794 0.33727 0.0697 0.0
O44 O 0.72866 0.49287 0.04631 0.0
O45 O 0.78308 0.63464 0.05007 0.0
O46 O 0.91932 0.72021 0.03842 0.0
O47 O 0.7126 0.47211 0.12371 0.0
O48 O 0.82739 0.56368 0.07947 0.0
O49 O 0.76265 0.61648 0.13444 0.0
O50 O 0.68234 0.49031 0.15014 0.0
O51 O 0.51994 0.27346 0.16145 0.0
O52 O 0.45802 0.28379 0.17167 0.0
O53 O 0.66305 0.48398 0.09151 0.0
O54 O 0.52408 0.37905 0.12022 0.0
C55 C 0.65067 0.39626 0.0445 0.0
C56 C 0.76879 0.49518 0.0993 0.0
C57 C 0.85582 0.68215 0.99349 0.0
C58 C 0.81136 0.66899 0.94824 0.0
C59 C 0.91797 0.70108 0.9356 0.0
C60 C 0.91164 0.6987 0.96942 0.0
C61 C 0.86863 0.68666 0.9251 0.0
C62 C 0.8054 0.66726 0.98266 0.0
C63 C 0.86239 0.69504 0.02991 0.0
C64 C 0.09889 0.97643 0.1657 0.0
C65 C 0.14405 0.976 0.15808 0.0
H66 H 0.00204 0.96408 0.17146 0.0
C67 C 0.7044 0.5519 0.15631 0.0
C68 C 0.59456 0.45185 0.10154 0.0
C69 C 0.41921 0.21573 0.21425 0.0
C70 C 0.38621 0.15249 0.25739 0.0
C71 C 0.31312 0.15726 0.26421 0.0
C72 C 0.35895 0.19733 0.23333 0.0
C73 C 0.32649 0.13475 0.27622 0.0
C74 C 0.43329 0.19366 0.22648 0.0
C75 C 0.46693 0.25832 0.1819 0.0
H76 H 0.96339 0.71655 0.91751 0.0
H77 H 0.9532 0.71295 0.97677 0.0
H78 H 0.8775 0.69218 0.89883 0.0
H79 H 0.76564 0.65884 1.00098 0.0
H80 H 0.26716 0.14362 0.27884 0.0
H81 H 0.34714 0.21393 0.22445 0.0
H82 H 0.29062 0.10387 0.30037 0.0
H83 H 0.47972 0.20766 0.21212 0.0
C84 C 0.13069 0.35336 0.60207 0.0
C85 C 0.06831 0.37024 0.63451 0.0
C86 C 0.13675 0.40432 0.61021 0.0
C87 C -0.005 0.28584 0.65089 0.0
C88 C 0.05531 0.2671 0.61812 0.0
C89 C 0.98846 0.23441 0.6427 0.0
N90 N 0.19675 0.38666 0.57822 0.0
C91 C 0.18524 0.33168 0.56745 0.0
C92 C 0.04786 0.2148 0.6086 0.0
C93 C 0.11232 0.24662 0.58295 0.0
Gd94 Gd 0.61335 0.81287 0.59632 0.0
Gd95 Gd 0.31608 0.53247 0.55508 0.0
N96 N 0.20957 0.48726 0.59449 0.0
C97 C 0.07487 0.42152 0.64141 0.0
C98 C 0.21215 0.53337 0.59958 0.0
C99 C 0.14641 0.50277 0.62358 0.0
H100 H 0.26263 0.59143 0.58442 0.0
H101 H 0.15003 0.54095 0.62799 0.0
H102 H 0.68151 0.76876 0.56937 0.0
H103 H 0.2298 0.3506 0.54628 0.0
H104 H 0.81148 0.83867 0.5308 0.0
H105 H 0.02367 0.39764 0.65989 0.0
H106 H 0.94201 0.25884 0.66962 0.0
H107 H 0.69661 0.99206 0.61751 0.0
H108 H 0.99074 0.14806 0.62015 0.0
H109 H 0.10409 0.20403 0.57455 0.0
H110 H 0.02841 0.13618 0.50037 0.0
H111 H 0.93033 0.16839 0.65518 0.0
H112 H 0.96285 0.23046 0.55573 0.0
H113 H 0.83341 0.155 0.59837 0.0
N114 N 0.74795 0.9755 0.58566 0.0
C115 C 0.82104 0.01809 0.56346 0.0
C116 C 0.7528 0.02442 0.5989 0.0
C117 C 0.90317 0.15913 0.56402 0.0
C118 C 0.83018 0.1167 0.58813 0.0
C119 C 0.89981 0.11028 0.55163 0.0
H120 H 0.03241 0.22037 0.51815 0.0
N121 N 0.74187 0.88214 0.56522 0.0
C122 C 0.81824 0.97022 0.5531 0.0
C123 C 0.89022 0.96393 0.5223 0.0
C124 C 0.89386 0.01291 0.53082 0.0
C125 C 0.74007 0.83625 0.55833 0.0
C126 C 0.8139 0.87609 0.53664 0.0
O127 O 0.33395 0.56778 0.61056 0.0
O128 O 0.48385 0.73636 0.62828 0.0
O129 O 0.61305 0.76743 0.62596 0.0
O130 O 0.66119 0.87754 0.64688 0.0
O131 O 0.4458 0.69466 0.55262 0.0
O132 O 0.54641 0.81615 0.59557 0.0
O133 O 0.61181 0.78076 0.53736 0.0
O134 O 0.45061 0.63448 0.51797 0.0
O135 O 0.25171 0.5088 0.52498 0.0
O136 O 0.21421 0.40733 0.51895 0.0
O137 O 0.48241 0.6611 0.57653 0.0
O138 O 0.37724 0.52121 0.54938 0.0
C139 C 0.39409 0.6417 0.6339 0.0
C140 C 0.47706 0.75742 0.57619 0.0
C141 C 0.7033 0.86785 0.67684 0.0
C142 C 0.71882 0.86621 0.7302 0.0
C143 C 0.86173 0.01712 0.70104 0.0
C144 C 0.80442 0.9682 0.6758 0.0
C145 C 0.81965 0.96725 0.72791 0.0
C146 C 0.66057 0.81612 0.70405 0.0
C147 C 0.64143 0.82312 0.65272 0.0
C148 C 0.97027 0.10272 0.51788 0.0
C149 C 0.97288 0.15098 0.52814 0.0
H150 H 0.94645 0.99388 0.50507 0.0
C151 C 0.54785 0.71586 0.51315 0.0
C152 C 0.45641 0.5972 0.5652 0.0
C153 C 0.2287 0.43988 0.4703 0.0
C154 C 0.22188 0.4511 0.41895 0.0
C155 C 0.28809 0.44052 0.41678 0.0
C156 C 0.27071 0.43657 0.45151 0.0
C157 C 0.26431 0.44822 0.40053 0.0
C158 C 0.20387 0.44659 0.45387 0.0
C159 C 0.20944 0.43502 0.50683 0.0
H160 H 0.93944 0.09496 0.70002 0.0
H161 H 0.83866 0.00978 0.65588 0.0
H162 H 0.86698 0.00814 0.74694 0.0
H163 H 0.58224 0.73895 0.70555 0.0
H164 H 0.31885 0.43631 0.40238 0.0
H165 H 0.28948 0.43013 0.46352 0.0
H166 H 0.27614 0.44869 0.37339 0.0
H167 H 0.17014 0.44767 0.46816 0.0
C168 C 0.46412 0.65086 0.05726 0.0
C169 C 0.4669 0.57427 0.02957 0.0
C170 C 0.51046 0.65214 0.04996 0.0
C171 C 0.37786 0.49681 0.01556 0.0
C172 C 0.37397 0.5723 0.04347 0.0
C173 C 0.33182 0.49612 0.02236 0.0
N174 N 0.50521 0.72426 0.0786 0.0
C175 C 0.45609 0.71932 0.08874 0.0
C176 C 0.32771 0.57153 0.05177 0.0
C177 C 0.3686 0.64494 0.07469 0.0
Gd178 Gd 0.91683 0.13053 0.04864 0.0
Gd179 Gd 0.66105 0.85307 0.09559 0.0
N180 N 0.59764 0.72895 0.06318 0.0
C181 C 0.51351 0.57594 0.02429 0.0
C182 C 0.64125 0.72902 0.05943 0.0
C183 C 0.60044 0.65306 0.03964 0.0
H184 H 0.70781 0.78807 0.07154 0.0
H185 H 0.63594 0.65399 0.03624 0.0
H186 H 0.87311 0.19774 0.06371 0.0
H187 H 0.48305 0.77186 0.10778 0.0
H188 H 0.94116 0.33074 0.09653 0.0
H189 H 0.48217 0.51732 0.0089 0.0
H190 H 0.34336 0.43646 0.99978 0.0
H191 H 0.08997 0.21052 0.04843 0.0
H192 H 0.25869 0.51277 0.04157 0.0
H193 H 0.33134 0.64284 0.0822 0.0
H194 H 0.21924 0.5434 0.14484 0.0
H195 H 0.26234 0.43508 0.01184 0.0
H196 H 0.30578 0.46999 0.11521 0.0
H197 H 0.23902 0.34196 0.07672 0.0
N198 N 0.06412 0.25545 0.07291 0.0
C199 C 0.10528 0.33079 0.09145 0.0
C200 C 0.11402 0.26177 0.06637 0.0
C201 C 0.23844 0.41067 0.10339 0.0
C202 C 0.20052 0.33807 0.08187 0.0
C203 C 0.1919 0.40875 0.10798 0.0
H204 H 0.29669 0.54335 0.14091 0.0
N205 N 0.97757 0.25476 0.07786 0.0
C206 C 0.06216 0.33156 0.09336 0.0
C207 C 0.05933 0.4083 0.11334 0.0
C208 C 0.10415 0.40948 0.1121 0.0
C209 C 0.93571 0.25513 0.07806 0.0
C210 C 0.97531 0.33129 0.09601 0.0
O211 O 0.70009 0.8542 0.03828 0.0
O212 O 0.77458 0.97726 0.02353 0.0
O213 O 0.94878 0.19655 0.01481 0.0
O214 O 0.01354 0.18901 1.00366 0.0
O215 O 0.82152 0.99339 0.08647 0.0
O216 O 0.92459 0.06574 0.0423 0.0
O217 O 0.89563 0.13665 0.10647 0.0
O218 O 0.73686 0.98099 0.12914 0.0
O219 O 0.70496 0.8554 0.12863 0.0
O220 O 0.56805 0.76979 0.13945 0.0
O221 O 0.75559 0.00522 0.05215 0.0
O222 O 0.65477 0.91979 0.09935 0.0
C223 C 0.74261 0.90777 0.0149 0.0
C224 C 0.86871 0.00387 0.06418 0.0
C225 C 0.05675 0.26613 0.96408 0.0
C226 C 0.06875 0.30846 0.91948 0.0
C227 C 0.19032 0.3644 0.92038 0.0
C228 C 0.14152 0.31701 0.94962 0.0
C229 C 0.154 0.36001 0.90525 0.0
C230 C 0.0206 0.26229 0.949 0.0
C231 C 0.00593 0.21691 0.99476 0.0
C232 C 0.18725 0.48412 0.12985 0.0
C233 C 0.23099 0.48375 0.1278 0.0
H234 H 0.08915 0.46658 0.12751 0.0
C235 C 0.82706 0.07914 0.13168 0.0
C236 C 0.70296 0.98184 0.07917 0.0
C237 C 0.59848 0.76096 0.18049 0.0
C238 C 0.63063 0.76558 0.22919 0.0
C239 C 0.46966 0.64974 0.22504 0.0
C240 C 0.50167 0.68464 0.19489 0.0
C241 C 0.53291 0.68961 0.24196 0.0
C242 C 0.66352 0.80089 0.19767 0.0
C243 C 0.6268 0.79847 0.14921 0.0
H244 H 0.25605 0.4042 0.90937 0.0
H245 H 0.17024 0.32051 0.96098 0.0
H246 H 0.19217 0.39666 0.88241 0.0
H247 H 0.95484 0.2227 0.95984 0.0
H248 H 0.39481 0.59127 0.23555 0.0
H249 H 0.44953 0.6516 0.18297 0.0
H250 H 0.50431 0.6596 0.26534 0.0
H251 H 0.73864 0.85993 0.18733 0.0
C252 C 0.638 0.45388 0.6231 0.0
C253 C 0.58185 0.47882 0.65014 0.0
C254 C 0.64759 0.50707 0.62746 0.0
C255 C 0.50636 0.39664 0.66855 0.0
C256 C 0.55964 0.36892 0.64063 0.0
C257 C 0.495 0.34164 0.66369 0.0
N258 N 0.70238 0.48258 0.60085 0.0
C259 C 0.68492 0.42283 0.59224 0.0
C260 C 0.54719 0.31258 0.63375 0.0
C261 C 0.60929 0.33902 0.60929 0.0
Gd262 Gd 0.11581 0.8942 0.62554 0.0
Gd263 Gd 0.83223 0.63155 0.57707 0.0
N264 N 0.72283 0.58804 0.61001 0.0
C265 C 0.59424 0.53438 0.65373 0.0
C266 C 0.73141 0.63856 0.61162 0.0
C267 C 0.66799 0.61329 0.63387 0.0
H268 H 0.789 0.69997 0.59644 0.0
H269 H 0.67668 0.65527 0.63597 0.0
H270 H 0.21868 0.88653 0.59768 0.0
H271 H 0.72689 0.43701 0.57173 0.0
H272 H 0.36654 0.98257 0.56257 0.0
H273 H 0.54704 0.51668 0.67166 0.0
H274 H 0.45511 0.37378 0.68614 0.0
H275 H 0.17962 0.06109 0.65372 0.0
H276 H 0.48761 0.24609 0.64588 0.0
H277 H 0.59693 0.29297 0.6028 0.0
H278 H 0.53539 0.24925 0.53197 0.0
H279 H 0.43443 0.27691 0.67742 0.0
H280 H 0.4261 0.29819 0.58934 0.0
H281 H 0.29854 0.21547 0.63541 0.0
N282 N 0.23379 0.05088 0.61625 0.0
C283 C 0.31059 0.10134 0.5936 0.0
C284 C 0.23324 0.09461 0.63291 0.0
C285 C 0.37317 0.22937 0.59682 0.0
C286 C 0.30094 0.18268 0.62277 0.0
C287 C 0.38105 0.19086 0.58274 0.0
H288 H 0.51355 0.3096 0.55055 0.0
N289 N 0.25646 0.98293 0.59467 0.0
C290 C 0.32352 0.06772 0.58315 0.0
C291 C 0.42213 0.09149 0.55444 0.0
C292 C 0.40662 0.12257 0.56179 0.0
C293 C 0.27213 0.95336 0.58819 0.0
C294 C 0.35532 0.0073 0.56814 0.0
O295 O 0.84358 0.68458 0.63344 0.0
O296 O 0.95859 0.74693 0.6452 0.0
O297 O 0.16188 0.89599 0.65441 0.0
O298 O 0.13466 0.94157 0.67821 0.0
O299 O 0.97313 0.79585 0.57921 0.0
O300 O 0.05147 0.90002 0.62558 0.0
O301 O 0.12733 0.86735 0.5691 0.0
O302 O 0.97828 0.74056 0.54538 0.0
O303 O 0.80666 0.64409 0.54221 0.0
O304 O 0.74656 0.52433 0.53405 0.0
O305 O 0.98075 0.73747 0.60625 0.0
O306 O 0.88078 0.60612 0.57312 0.0
C307 C 0.89725 0.725 0.65571 0.0
C308 C 0.99266 0.84947 0.60299 0.0
C309 C 0.25296 0.01614 0.69993 0.0
C310 C 0.33059 0.07836 0.74705 0.0
C311 C 0.41535 0.19277 0.71251 0.0
C312 C 0.33487 0.11307 0.69272 0.0
C313 C 0.41307 0.17553 0.73978 0.0
C314 C 0.25128 -0.0013 0.72683 0.0
C315 C 0.16511 0.93276 0.68166 0.0
C316 C 0.47229 0.20733 0.54895 0.0
C317 C 0.45962 0.24149 0.55944 0.0
H318 H 0.48557 0.13218 0.53842 0.0
C319 C 0.07331 0.81506 0.54333 0.0
C320 C 0.95418 0.6734 0.59122 0.0
C321 C 0.71654 0.53097 0.49173 0.0
C322 C 0.71857 0.5571 0.44216 0.0
C323 C 0.60803 0.39941 0.44744 0.0
C324 C 0.64375 0.43473 0.47812 0.0
C325 C 0.64464 0.45951 0.42964 0.0
C326 C 0.75354 0.59208 0.47375 0.0
C327 C 0.75946 0.56878 0.52276 0.0
H328 H 0.47866 0.26789 0.70731 0.0
H329 H 0.3347 0.12604 0.67227 0.0
H330 H 0.47473 0.23768 0.75551 0.0
H331 H 0.18668 0.92361 0.73298 0.0
H332 H 0.55177 0.32493 0.43734 0.0
H333 H 0.61488 0.38669 0.49105 0.0
H334 H 0.61352 0.42844 0.40616 0.0
H335 H 0.81143 0.66727 0.48372 0.0
H336 H 0.90892 0.04192 0.12543 0.0
H337 H 0.03387 0.10873 0.13421 0.0
H338 H 0.01174 -0.00207 0.03379 0.0
H339 H 0.89231 0.93975 0.02352 0.0
H340 H 0.12534 0.12291 0.12965 0.0
H341 H 0.2449 0.27132 0.01405 0.0
H342 H 0.11988 0.16716 0.03129 0.0
H343 H 0.16405 0.15254 0.00867 0.0
C344 C 0.92697 0.02742 0.10564 0.0
C345 C 0.89658 0.99154 0.07321 0.0
C346 C -0.00152 0.06531 0.11077 0.0
C347 C 0.03782 0.06556 0.0835 0.0
C348 C 0.98658 0.00422 0.05424 0.0
H349 H 0.58131 0.44709 0.04147 0.0
H350 H 0.45647 0.38362 0.037 0.0
C351 C 0.91845 0.97079 0.04838 0.0
C352 C 0.14403 0.15211 0.08268 0.0
H353 H 0.36575 0.36842 0.04523 0.0
C354 C 0.17839 0.17608 0.11088 0.0
C355 C 0.21285 0.22252 0.0585 0.0
C356 C 0.18396 0.20273 0.02655 0.0
C357 C 0.27909 0.26766 0.11571 0.0
C358 C 0.34799 0.33816 0.09146 0.0
C359 C 0.31309 0.3149 0.06381 0.0
C360 C 0.45424 0.42333 0.08939 0.0
C361 C 0.30866 0.28578 0.14674 0.0
C362 C 0.50753 0.48312 0.11817 0.0
C363 C 0.57605 0.51496 0.12116 0.0
C364 C 0.59522 0.49319 0.09431 0.0
C365 C 0.56551 0.46256 0.06261 0.0
C366 C 0.49297 0.42539 0.0602 0.0
H367 H 0.24683 0.21702 0.15936 0.0
H368 H 0.37033 0.31753 0.14054 0.0
H369 H 0.33252 0.33845 0.16505 0.0
H370 H 0.48398 0.4893 0.14017 0.0
H371 H 0.60119 0.54161 0.1457 0.0
H372 H 0.91992 0.86589 0.6394 0.0
H373 H 0.99105 -0.00249 0.63434 0.0
H374 H 0.15283 0.06783 0.54169 0.0
H375 H 0.082 0.93722 0.54675 0.0
H376 H 0.18271 0.17001 0.64098 0.0
H377 H 0.12961 0.15962 0.52557 0.0
H378 H 0.04386 0.04896 0.54119 0.0
H379 H 0.15254 0.12279 0.51468 0.0
C380 C 0.96873 0.90804 0.61766 0.0
C381 C -0.00014 0.89573 0.59429 0.0
C382 C 0.00754 0.98158 0.61441 0.0
C383 C 0.07812 0.04303 0.58795 0.0
C384 C 0.09732 0.02039 0.56205 0.0
H385 H 0.53763 0.5904 0.53134 0.0
H386 H 0.48248 0.47722 0.54676 0.0
C387 C 0.0576 0.94627 0.56511 0.0
C388 C 0.15189 0.14397 0.59201 0.0
H389 H 0.29341 0.32186 0.54645 0.0
C390 C 0.20669 0.20344 0.62045 0.0
C391 C 0.18241 0.1868 0.56537 0.0
C392 C 0.12305 0.12561 0.5352 0.0
C393 C 0.29581 0.30613 0.62182 0.0
C394 C 0.32927 0.34958 0.5943 0.0
C395 C 0.2709 0.28917 0.56679 0.0
C396 C 0.41485 0.45528 0.59532 0.0
C397 C 0.35309 0.36643 0.65251 0.0
C398 C 0.40955 0.49211 0.61992 0.0
C399 C 0.44528 0.56009 0.61173 0.0
C400 C 0.48444 0.58945 0.57893 0.0
C401 C 0.50779 0.56837 0.55685 0.0
C402 C 0.4761 0.5037 0.56569 0.0
H403 H 0.34817 0.33388 0.6621 0.0
H404 H 0.43188 0.44411 0.64742 0.0
H405 H 0.32029 0.36578 0.67278 0.0
H406 H 0.36262 0.45611 0.64291 0.0
H407 H 0.42523 0.57449 0.62884 0.0
H408 H 0.65421 0.9732 0.03261 0.0
H409 H 0.65929 0.05512 0.03677 0.0
H410 H 0.73294 0.15655 0.13983 0.0
H411 H 0.72211 0.06932 0.13615 0.0
H412 H 0.61275 0.10825 0.13259 0.0
H413 H 0.90994 0.34283 0.03002 0.0
H414 H 0.79799 0.21411 0.01617 0.0
H415 H 0.86419 0.2595 0.04637 0.0
C416 C 0.66924 0.01116 0.05635 0.0
C417 C 0.68791 0.01518 0.08401 0.0
C418 C 0.67372 0.05935 0.05859 0.0
C419 C 0.70028 0.11552 0.08821 0.0
C420 C 0.71326 0.11467 0.11656 0.0
H421 H 0.7904 0.48154 0.14955 0.0
H422 H 0.78116 0.39653 0.14706 0.0
C423 C 0.70638 0.06425 0.11456 0.0
C424 C 0.71577 0.17595 0.08939 0.0
H425 H 0.84232 0.354 0.05004 0.0
C426 C 0.66333 0.16234 0.11463 0.0
C427 C 0.78123 0.24629 0.0658 0.0
C428 C 0.84218 0.26728 0.0383 0.0
C429 C 0.67233 0.21473 0.11652 0.0
C430 C 0.73886 0.28619 0.0932 0.0
C431 C 0.79148 0.29984 0.06801 0.0
C432 C 0.75459 0.34691 0.09419 0.0
C433 C 0.60739 0.18968 0.14293 0.0
C434 C 0.7518 0.35577 0.06478 0.0
C435 C 0.76217 0.40892 0.0659 0.0
C436 C 0.77291 0.45207 0.09662 0.0
C437 C 0.78034 0.44732 0.12566 0.0
C438 C 0.77341 0.39721 0.12432 0.0
H439 H 0.53932 0.11316 0.15029 0.0
H440 H 0.64802 0.24042 0.16583 0.0
H441 H 0.58537 0.1968 0.13408 0.0
H442 H 0.7385 0.31895 0.04105 0.0
H443 H 0.75653 0.41173 0.04311 0.0
H444 H 0.45665 0.81198 0.63154 0.0
H445 H 0.37241 0.80456 0.63615 0.0
H446 H 0.34462 0.73291 0.52907 0.0
H447 H 0.42513 0.73644 0.52461 0.0
H448 H 0.40039 0.8947 0.61097 0.0
H449 H 0.16393 0.57606 0.53314 0.0
H450 H 0.06121 0.50088 0.5638 0.0
H451 H 0.16489 0.56691 0.57254 0.0
C452 C 0.43413 0.79653 0.60895 0.0
C453 C 0.44574 0.77323 0.57781 0.0
C454 C 0.38552 0.79168 0.61162 0.0
C455 C 0.34918 0.76481 0.58312 0.0
C456 C 0.36875 0.75018 0.55157 0.0
H457 H 0.02585 0.67047 0.53681 0.0
H458 H 0.12501 0.69704 0.53715 0.0
C459 C 0.41574 0.75334 0.54896 0.0
C460 C 0.28858 0.7494 0.58644 0.0
H461 H 0.06879 0.58309 0.56723 0.0
C462 C 0.32749 0.82621 0.60166 0.0
C463 C 0.19283 0.65952 0.57473 0.0
C464 C 0.14288 0.57087 0.5605 0.0
C465 C 0.27507 0.81725 0.60443 0.0
C466 C 0.18113 0.72889 0.59127 0.0
C467 C 0.14136 0.65129 0.57679 0.0
C468 C 0.12269 0.71466 0.59142 0.0
C469 C 0.32421 0.9048 0.62062 0.0
C470 C 0.08617 0.71285 0.62179 0.0
C471 C 0.03076 0.69885 0.62153 0.0
C472 C 0.00955 0.68461 0.59097 0.0
C473 C 0.04215 0.68203 0.56062 0.0
C474 C 0.09891 0.69757 0.56085 0.0
H475 H 0.33742 0.91997 0.64694 0.0
H476 H 0.39762 0.97146 0.60727 0.0
H477 H 0.28141 0.89503 0.6209 0.0
H478 H 0.10142 0.72327 0.64563 0.0
H479 H 0.00411 0.69879 0.6452 0.0
H480 H 0.46343 0.57135 0.46968 0.0
H481 H 0.48875 0.56606 0.40892 0.0
H482 H 0.72402 0.87 0.41192 0.0
H483 H 0.69634 0.87481 0.47404 0.0
H484 H 0.51527 0.62531 0.34167 0.0
H485 H 0.8408 0.85197 0.40538 0.0
H486 H 0.72454 0.76946 0.42472 0.0
H487 H 0.8101 0.87724 0.40726 0.0
C488 C 0.52021 0.63723 0.45751 0.0
C489 C 0.57948 0.72424 0.47685 0.0
C490 C 0.53255 0.63308 0.42252 0.0
C491 C 0.60593 0.7163 0.40539 0.0
C492 C 0.66452 0.80355 0.42442 0.0
H493 H 0.83834 0.71384 0.19837 0.0
H494 H 0.811 0.74315 0.25345 0.0
C495 C 0.65139 0.80755 0.45994 0.0
C496 C 0.63994 0.71795 0.37105 0.0
H497 H 0.76034 0.6898 0.30523 0.0
C498 C 0.56957 0.64862 0.33793 0.0
C499 C 0.7226 0.75253 0.37036 0.0
C500 C 0.77833 0.81563 0.4031 0.0
C501 C 0.56892 0.60464 0.30053 0.0
C502 C 0.63952 0.6211 0.28861 0.0
C503 C 0.71988 0.68463 0.31452 0.0
C504 C 0.65046 0.59908 0.25393 0.0
C505 C 0.50066 0.54849 0.27597 0.0
C506 C 0.57018 0.5079 0.23535 0.0
C507 C 0.58687 0.49102 0.20343 0.0
C508 C 0.6837 0.56495 0.19003 0.0
C509 C 0.76316 0.65553 0.2084 0.0
C510 C 0.74675 0.67174 0.24006 0.0
H511 H 0.43391 0.46833 0.27663 0.0
H512 H 0.47756 0.56245 0.28249 0.0
H513 H 0.53681 0.56957 0.25011 0.0
H514 H 0.49523 0.4495 0.24557 0.0
H515 H 0.52452 0.42138 0.18906 0.0
H516 H 0.43666 0.74744 0.69085 0.0
H517 H 0.35269 0.68691 0.74748 0.0
H518 H 0.16922 0.40831 0.70959 0.0
H519 H 0.25403 0.46838 0.6543 0.0
H520 H 0.09358 0.44708 0.76065 0.0
H521 H 0.35629 0.57524 0.79273 0.0
H522 H 0.39482 0.64103 0.76544 0.0
H523 H 0.31787 0.5247 0.75055 0.0
C524 C 0.37863 0.67362 0.69485 0.0
C525 C 0.35043 0.61191 0.66826 0.0
C526 C 0.33019 0.63891 0.72682 0.0
C527 C 0.25378 0.54274 0.732 0.0
C528 C 0.22661 0.48189 0.70559 0.0
H529 H 0.95085 0.1801 0.86812 0.0
H530 H 0.96 0.22316 0.82473 0.0
C531 C 0.27518 0.5165 0.67409 0.0
C532 C 0.20737 0.50687 0.76548 0.0
H533 H 0.21059 0.4659 0.82813 0.0
C534 C 0.11991 0.45292 0.77604 0.0
C535 C 0.24149 0.513 0.78447 0.0
C536 C 0.33291 0.56675 0.77295 0.0
C537 C 0.06414 0.40279 0.80541 0.0
C538 C 0.0977 0.40786 0.82399 0.0
C539 C 0.18623 0.46361 0.81369 0.0
C540 C 0.04193 0.35296 0.85359 0.0
C541 C 0.96878 0.34245 0.81603 0.0
C542 C 0.0769 0.40674 0.88503 0.0
C543 C 0.07233 0.38262 0.90966 0.0
C544 C 0.0321 0.3044 0.90275 0.0
C545 C 0.98194 0.24063 0.87368 0.0
C546 C 0.98642 0.26471 0.84907 0.0
H547 H 0.95461 0.3491 0.79949 0.0
H548 H 0.90663 0.26352 0.81548 0.0
H549 H 0.97058 0.36656 0.84233 0.0
H550 H 0.12075 0.47557 0.88862 0.0
H551 H 0.11158 0.43251 0.93204 0.0
H552 H 0.76827 0.68939 0.46526 0.0
H553 H 0.7924 0.7604 0.43266 0.0
H554 H 0.77219 0.63364 0.34091 0.0
H555 H 0.75039 0.56407 0.37337 0.0
H556 H 0.93196 0.87987 0.35012 0.0
H557 H 0.49072 0.46551 0.38299 0.0
H558 H 0.58525 0.54517 0.40923 0.0
H559 H 0.5714 0.49075 0.36951 0.0
C560 C 0.77333 0.68008 0.4381 0.0
C561 C 0.7552 0.61892 0.42222 0.0
C562 C 0.78842 0.72209 0.41921 0.0
C563 C 0.78692 0.70508 0.38395 0.0
C564 C 0.7767 0.65064 0.3679 0.0
H565 H 0.73253 0.7778 0.21144 0.0
H566 H 0.78112 0.78479 0.24999 0.0
C567 C 0.76183 0.6088 0.38672 0.0
C568 C 0.76328 0.71434 0.36581 0.0
H569 H 0.51281 0.5313 0.34765 0.0
C570 C 0.85798 0.823 0.34767 0.0
C571 C 0.63971 0.61096 0.36598 0.0
C572 C 0.56714 0.52276 0.38294 0.0
C573 C 0.84858 0.85149 0.32641 0.0
C574 C 0.73433 0.76663 0.31969 0.0
C575 C 0.5935 0.60261 0.34707 0.0
C576 C 0.73821 0.79874 0.29589 0.0
C577 C 0.94084 0.94965 0.31217 0.0
C578 C 0.71555 0.82357 0.3077 0.0
C579 C 0.69086 0.82325 0.28543 0.0
C580 C 0.69116 0.80164 0.25034 0.0
C581 C 0.72924 0.79292 0.23812 0.0
C582 C 0.75466 0.7941 0.26055 0.0
H583 H 0.00685 -0.0007 0.32198 0.0
H584 H 0.94552 0.93894 0.28438 0.0
H585 H 0.9384 0.98359 0.31843 0.0
H586 H 0.70872 0.83516 0.33443 0.0
H587 H 0.66424 0.83279 0.296 0.0
H588 H 0.33333 -0.00119 0.75091 0.0
H589 H 0.35045 0.99536 0.80203 0.0
H590 H 0.33268 0.11684 0.86129 0.0
H591 H 0.31535 0.1198 0.8105 0.0
H592 H 0.51417 0.17447 0.83555 0.0
H593 H 0.18135 0.9255 0.92336 0.0
H594 H 0.17899 0.91274 0.87864 0.0
H595 H 0.21938 0.00134 0.90566 0.0
C596 C 0.33012 0.02169 0.77512 0.0
C597 C 0.32448 0.06071 0.77735 0.0
C598 C 0.33916 0.01913 0.80411 0.0
C599 C 0.34115 0.0543 0.83531 0.0
C600 C 0.32862 0.08692 0.83756 0.0
H601 H 0.6871 0.45309 0.98927 0.0
H602 H 0.60882 0.35364 0.93667 0.0
C603 C 0.3203 0.09008 0.80866 0.0
C604 C 0.37753 0.07778 0.86402 0.0
H605 H 0.33921 0.0723 0.94905 0.0
C606 C 0.47461 0.14929 0.86021 0.0
C607 C 0.3258 0.04528 0.89604 0.0
C608 C 0.22024 0.96625 0.90109 0.0
C609 C 0.52462 0.19581 0.88815 0.0
C610 C 0.47575 0.16941 0.92037 0.0
C611 C 0.37597 0.09187 0.92407 0.0
C612 C 0.53144 0.23241 0.9503 0.0
C613 C 0.63151 0.27793 0.8833 0.0
C614 C 0.51527 0.19746 0.9747 0.0
C615 C 0.56175 0.25529 1.0046 0.0
C616 C 0.622 0.34669 0.01061 0.0
C617 C 0.64181 0.38332 0.98525 0.0
C618 C 0.59657 0.32634 0.95531 0.0
H619 H 0.65025 0.27173 0.85754 0.0
H620 H 0.67911 0.35007 0.88704 0.0
H621 H 0.6489 0.27775 0.90189 0.0
H622 H 0.46534 0.12503 0.97091 0.0
H623 H 0.54854 0.22764 0.02338 0.0
H624 H 0.79334 0.97487 0.95634 0.0
H625 H 0.80662 0.93675 0.89742 0.0
H626 H 0.73841 0.76875 0.93505 0.0
H627 H 0.71856 0.79839 0.99026 0.0
H628 H 0.96066 0.99178 0.87375 0.0
H629 H 0.54831 0.52802 0.79641 0.0
H630 H 0.51014 0.54411 0.82668 0.0
H631 H 0.5314 0.51593 0.83906 0.0
C632 C 0.77837 0.92688 0.95136 0.0
C633 C 0.75152 0.88703 0.97846 0.0
C634 C 0.78602 0.90493 0.91739 0.0
C635 C 0.76785 0.84313 0.90935 0.0
C636 C 0.74791 0.81064 0.93742 0.0
H637 H 0.8837 0.69334 0.71374 0.0
H638 H 0.88021 0.74144 0.77166 0.0
C639 C 0.73663 0.82871 0.97057 0.0
C640 C 0.78169 0.82287 0.87218 0.0
H641 H 0.70578 0.64845 0.77179 0.0
C642 C 0.90474 0.92375 0.85772 0.0
C643 C 0.6698 0.67052 0.82648 0.0
C644 C 0.55899 0.55939 0.82237 0.0
C645 C 0.94094 0.91762 0.81965 0.0
C646 C 0.86583 0.81719 0.79011 0.0
C647 C 0.74135 0.70323 0.7926 0.0
C648 C 0.90648 0.823 0.75735 0.0
C649 C 0.04982 0.00873 0.81155 0.0
C650 C 0.92153 0.85159 0.72974 0.0
C651 C 0.91782 0.81926 0.69682 0.0
C652 C 0.90166 0.75989 0.69052 0.0
C653 C 0.8947 0.73787 0.71788 0.0
C654 C 0.89526 0.76754 0.75097 0.0
H655 H 0.09221 0.07018 0.83119 0.0
H656 H 0.06882 0.99172 0.80944 0.0
H657 H 0.07094 0.03167 0.78682 0.0
H658 H 0.92938 0.89318 0.73336 0.0
H659 H 0.92674 0.84001 0.67634 0.0
H660 H 0.24851 0.97043 0.26361 0.0
H661 H 0.2411 0.92962 0.3072 0.0
H662 H 0.54257 0.2387 0.32706 0.0
H663 H 0.54848 0.27984 0.28398 0.0
H664 H 0.32793 0.95349 0.33393 0.0
H665 H 0.38656 0.18232 0.40727 0.0
H666 H 0.37176 0.15065 0.36283 0.0
H667 H 0.4869 0.24567 0.37807 0.0
C668 C 0.31454 0.02894 0.27621 0.0
C669 C 0.39825 0.12795 0.27124 0.0
C670 C 0.31047 0.00577 0.30107 0.0
C671 C 0.3902 0.08164 0.32106 0.0
C672 C 0.47959 0.17956 0.31233 0.0
H673 H 0.25019 0.93096 0.52126 0.0
H674 H 0.34435 0.00559 0.46733 0.0
C675 C 0.4833 0.20292 0.2876 0.0
C676 C 0.37039 0.05937 0.35456 0.0
H677 H 0.32933 0.08513 0.43706 0.0
C678 C 0.33093 0.98427 0.35666 0.0
C679 C 0.37151 0.09771 0.384 0.0
C680 C 0.40558 0.17287 0.38312 0.0
C681 C 0.28863 0.9435 0.38721 0.0
C682 C 0.28794 0.98035 0.41615 0.0
C683 C 0.33183 0.05869 0.41457 0.0
C684 C 0.2299 0.92985 0.44723 0.0
C685 C 0.23881 0.85696 0.38816 0.0
C686 C 0.13502 0.86271 0.45322 0.0
C687 C 0.08244 0.82189 0.48402 0.0
C688 C 0.12421 0.84793 0.5094 0.0
C689 C 0.21772 0.912 0.50264 0.0
C690 C 0.27084 0.95354 0.47178 0.0
H691 H 0.25033 0.84023 0.36383 0.0
H692 H 0.26731 0.87226 0.40833 0.0
H693 H 0.1583 0.79057 0.39424 0.0
H694 H 0.10291 0.8443 0.43441 0.0
H695 H 0.01075 0.77316 0.4883 0.0
H696 H 0.74154 0.92902 0.79738 0.0
H697 H 0.72653 0.88412 0.84299 0.0
H698 H 0.59855 0.65271 0.7768 0.0
H699 H 0.61449 0.69809 0.73097 0.0
H700 H 0.55071 0.65372 0.87502 0.0
H701 H 0.92844 0.94887 0.78393 0.0
H702 H 0.8527 0.92661 0.79799 0.0
H703 H 0.81148 0.84131 0.76722 0.0
C704 C 0.70618 0.86564 0.79285 0.0
C705 C 0.68006 0.81792 0.76007 0.0
C706 C 0.69619 0.83896 0.81937 0.0
C707 C 0.65985 0.76364 0.81404 0.0
C708 C 0.62437 0.70933 0.78227 0.0
H709 H 0.6255 0.51026 0.92808 0.0
H710 H 0.57957 0.51719 0.89641 0.0
C711 C 0.63432 0.73598 0.7557 0.0
C712 C 0.69034 0.76455 0.83521 0.0
H713 H 0.84967 0.78692 0.84262 0.0
C714 C 0.61365 0.6884 0.86691 0.0
C715 C 0.79003 0.82052 0.81858 0.0
C716 C 0.85031 0.8883 0.79066 0.0
C717 C 0.61865 0.65254 0.88545 0.0
C718 C 0.70519 0.68902 0.87652 0.0
C719 C 0.79764 0.76714 0.84648 0.0
C720 C 0.7217 0.67679 0.89851 0.0
C721 C 0.53723 0.58136 0.91198 0.0
C722 C 0.8162 0.76348 0.91057 0.0
C723 C 0.84079 0.75975 0.92945 0.0
C724 C 0.77316 0.66901 0.93597 0.0
C725 C 0.67801 0.58138 0.92427 0.0
C726 C 0.65197 0.5852 0.90594 0.0
H727 H 0.51948 0.60008 0.92684 0.0
H728 H 0.47002 0.50598 0.89957 0.0
H729 H 0.55669 0.58111 0.92901 0.0
H730 H 0.87209 0.83558 0.90542 0.0
H731 H 0.91501 0.82827 0.93751 0.0
H732 H 0.74263 0.99256 0.18886 0.0
H733 H 0.80332 0.07345 0.24454 0.0
H734 H 0.03771 0.35345 0.2088 0.0
H735 H 0.97267 0.27085 0.15345 0.0
H736 H 0.98704 0.21317 0.25178 0.0
H737 H 0.95381 0.36491 0.30196 0.0
H738 H 0.88591 0.27051 0.26746 0.0
H739 H 0.01403 0.3974 0.26043 0.0
C740 C 0.80511 0.07078 0.19293 0.0
C741 C 0.85467 0.12622 0.16631 0.0
C742 C 0.83978 0.11688 0.22483 0.0
C743 C 0.9246 0.21917 0.23075 0.0
C744 C 0.97123 0.27409 0.20485 0.0
H745 H 0.32704 0.57116 0.37144 0.0
H746 H 0.25633 0.53132 0.3288 0.0
C747 C 0.93559 0.22742 0.17295 0.0
C748 C 0.97182 0.26907 0.2623 0.0
H749 H 0.04825 0.41619 0.3323 0.0
C750 C -0.00025 0.25696 0.26947 0.0
C751 C 0.98891 0.32676 0.28502 0.0
C752 C 0.95842 0.34023 0.27856 0.0
C753 C 0.04382 0.30039 0.29895 0.0
C754 C 0.06159 0.3586 0.32158 0.0
C755 C 0.03436 0.37154 0.31459 0.0
C756 C 0.10814 0.40484 0.35258 0.0
C757 C 0.07105 0.28368 0.30582 0.0
C758 C 0.0486 0.35023 0.38088 0.0
C759 C 0.08861 0.37234 0.40509 0.0
C760 C 0.1881 0.44886 0.40083 0.0
C761 C 0.24986 0.51112 0.37482 0.0
C762 C 0.20992 0.48917 0.35073 0.0
H763 H 0.04541 0.23044 0.28669 0.0
H764 H 0.15243 0.35483 0.30594 0.0
H765 H 0.03842 0.25518 0.33094 0.0
H766 H 0.96961 0.2843 0.38231 0.0
H767 H 0.03968 0.32333 0.42499 0.0
loop_
_geom_bond_atom_site_label_1
_geom_bond_atom_site_label_2
_geom_bond_distance
_geom_bond_site_symmetry_2
_ccdc_geom_bond_type
C0 C2 1.422 . S
C0 C4 1.415 . S
C0 N6 1.369 . S
C1 C2 1.421 . S
C1 C3 1.417 1_545 S
C1 C13 1.422 . S
C2 C0 1.422 . S
C2 C1 1.421 . S
C2 N12 1.359 . S
C3 C1 1.417 1_565 S
C3 C5 1.329 . S
C3 H22 0.930 . S
C4 C0 1.415 . S
C4 C5 1.437 1_545 S
C4 C8 1.413 1_545 S
C5 C3 1.329 . S
C5 C4 1.437 1_565 S
C5 H27 0.929 . S
N6 C0 1.369 . S
N6 C7 1.338 . S
N6 Gd11 2.622 . S
C7 N6 1.338 . S
C7 C9 1.378 . S
C7 H19 0.929 . S
C8 C4 1.413 1_565 S
C8 C9 1.348 1_565 S
C8 H24 0.931 . S
C9 C7 1.378 . S
C9 C8 1.348 1_545 S
C9 H25 0.930 . S
Gd10 N30 2.622 . S
Gd10 N37 2.570 . S
Gd10 O44 2.353 . S
Gd10 O45 2.468 . S
Gd10 O46 2.427 . S
Gd10 O48 2.388 . S
Gd10 O49 2.386 . S
Gd10 O53 2.307 . S
Gd10 C63 2.805 . S
Gd11 N6 2.622 . S
Gd11 N12 2.570 . S
Gd11 O43 2.386 . S
Gd11 O47 2.307 . S
Gd11 O50 2.353 . S
Gd11 O51 2.468 . S
Gd11 O52 2.427 . S
Gd11 O54 2.388 . S
Gd11 C75 2.805 . S
N12 C2 1.359 . S
N12 Gd11 2.570 . S
N12 C14 1.343 . S
C13 C1 1.422 . S
C13 C15 1.321 . S
C13 H21 0.931 1_545 S
C14 N12 1.343 . S
C14 C15 1.390 . S
C14 H16 0.931 . S
C15 C13 1.321 . S
C15 C14 1.390 . S
C15 H17 0.930 . S
H16 C14 0.931 . S
H17 C15 0.930 . S
H18 C41 0.931 . S
H19 C7 0.929 . S
H20 C42 0.930 . S
H21 C13 0.931 1_565 S
H22 C3 0.930 . S
H23 C32 0.929 . S
H24 C8 0.931 . S
H25 C9 0.930 . S
H26 C64 0.930 . S
H27 C5 0.929 . S
H28 C33 0.931 1_545 S
H29 C34 0.930 . S
N30 Gd10 2.622 . S
N30 C31 1.369 1_655 S
N30 C32 1.338 1_655 S
C31 N30 1.369 1_455 S
C31 C35 1.415 . S
C31 C38 1.422 1_455 S
C32 H23 0.929 . S
C32 N30 1.338 1_455 S
C32 C34 1.378 . S
C33 H28 0.931 1_565 S
C33 C34 1.348 . S
C33 C35 1.413 . S
C34 H29 0.930 . S
C34 C32 1.378 . S
C34 C33 1.348 . S
C35 C31 1.415 . S
C35 C33 1.413 . S
C35 C65 1.437 1_565 S
H36 C65 0.929 . S
N37 Gd10 2.570 . S
N37 C38 1.359 . S
N37 C41 1.343 . S
C38 C31 1.422 1_655 S
C38 N37 1.359 . S
C38 C40 1.421 1_655 S
C39 C40 1.422 1_655 S
C39 C42 1.321 . S
C39 H66 0.931 . S
C40 C38 1.421 1_455 S
C40 C39 1.422 1_455 S
C40 C64 1.417 1_565 S
C41 H18 0.931 . S
C41 N37 1.343 . S
C41 C42 1.390 . S
C42 H20 0.930 . S
C42 C39 1.321 . S
C42 C41 1.390 . S
O43 Gd11 2.386 . S
O43 C55 1.265 . S
O44 Gd10 2.353 . S
O44 C55 1.242 . S
O45 Gd10 2.468 . S
O45 C63 1.263 . S
O46 Gd10 2.427 . S
O46 C63 1.252 . S
O47 Gd11 2.307 . S
O47 C56 1.261 . S
O48 Gd10 2.388 . S
O48 C56 1.252 . S
O49 Gd10 2.386 . S
O49 C67 1.265 . S
O50 Gd11 2.353 . S
O50 C67 1.242 . S
O51 Gd11 2.468 . S
O51 C75 1.263 . S
O52 Gd11 2.427 . S
O52 C75 1.252 . S
O53 Gd10 2.307 . S
O53 C68 1.261 . S
O54 Gd11 2.388 . S
O54 C68 1.252 . S
C55 O43 1.265 . S
C55 O44 1.242 . S
C56 O47 1.261 . S
C56 O48 1.252 . S
C57 C60 1.394 . S
C57 C62 1.370 . S
C57 C63 1.500 1_556 S
C58 C61 1.383 . S
C58 C62 1.395 . S
C59 C60 1.396 1_455 S
C59 C61 1.365 1_455 S
C59 H76 0.929 . S
C60 C57 1.394 . S
C60 C59 1.396 1_655 S
C60 H77 0.930 1_655 S
C61 C58 1.383 . S
C61 C59 1.365 1_655 S
C61 H78 0.931 1_655 S
C62 C57 1.370 . S
C62 C58 1.395 . S
C62 H79 0.930 . S
C63 Gd10 2.805 . S
C63 O45 1.263 . S
C63 O46 1.252 . S
C63 C57 1.500 1_554 S
C64 H26 0.930 . S
C64 C40 1.417 1_545 S
C64 C65 1.329 . S
C65 C35 1.437 1_545 S
C65 H36 0.929 . S
C65 C64 1.329 . S
H66 C39 0.931 . S
C67 O49 1.265 . S
C67 O50 1.242 . S
C68 O53 1.261 . S
C68 O54 1.252 . S
C69 C72 1.394 . S
C69 C74 1.370 . S
C69 C75 1.500 . S
C70 C73 1.383 . S
C70 C74 1.395 . S
C71 C72 1.396 . S
C71 C73 1.365 . S
C71 H80 0.929 . S
C72 C69 1.394 . S
C72 C71 1.396 . S
C72 H81 0.930 . S
C73 C70 1.383 . S
C73 C71 1.365 . S
C73 H82 0.931 . S
C74 C69 1.370 . S
C74 C70 1.395 . S
C74 H83 0.930 . S
C75 Gd11 2.805 . S
C75 O51 1.263 . S
C75 O52 1.252 . S
C75 C69 1.500 . S
H76 C59 0.929 . S
H77 C60 0.930 1_455 S
H78 C61 0.931 1_455 S
H79 C62 0.930 . S
H80 C71 0.929 . S
H81 C72 0.930 . S
H82 C73 0.931 . S
H83 C74 0.930 . S
C84 C86 1.422 . S
C84 C88 1.415 . S
C84 N90 1.369 . S
C85 C86 1.421 . S
C85 C87 1.417 1_455 S
C85 C97 1.422 . S
C86 C84 1.422 . S
C86 C85 1.421 . S
C86 N96 1.359 . S
C87 C85 1.417 1_655 S
C87 C89 1.329 . S
C87 H106 0.930 . S
C88 C84 1.415 . S
C88 C89 1.437 1_455 S
C88 C92 1.413 1_455 S
C89 C87 1.329 . S
C89 C88 1.437 1_655 S
C89 H111 0.929 . S
N90 C84 1.369 . S
N90 C91 1.338 . S
N90 Gd95 2.622 . S
C91 N90 1.338 . S
C91 C93 1.378 . S
C91 H103 0.929 . S
C92 C88 1.413 1_655 S
C92 C93 1.348 1_655 S
C92 H108 0.931 . S
C93 C91 1.378 . S
C93 C92 1.348 1_455 S
C93 H109 0.930 . S
Gd94 N114 2.622 . S
Gd94 N121 2.570 . S
Gd94 O128 2.353 . S
Gd94 O129 2.468 . S
Gd94 O130 2.427 . S
Gd94 O132 2.388 . S
Gd94 O133 2.386 . S
Gd94 O137 2.307 . S
Gd94 C147 2.805 . S
Gd95 N90 2.622 . S
Gd95 N96 2.570 . S
Gd95 O127 2.386 . S
Gd95 O131 2.307 . S
Gd95 O134 2.353 . S
Gd95 O135 2.468 . S
Gd95 O136 2.427 . S
Gd95 O138 2.388 . S
Gd95 C159 2.805 . S
N96 C86 1.359 . S
N96 Gd95 2.570 . S
N96 C98 1.343 . S
C97 C85 1.422 . S
C97 C99 1.321 . S
C97 H105 0.931 1_455 S
C98 N96 1.343 . S
C98 C99 1.390 . S
C98 H100 0.931 . S
C99 C97 1.321 . S
C99 C98 1.390 . S
C99 H101 0.930 . S
H100 C98 0.931 . S
H101 C99 0.930 . S
H102 C125 0.931 . S
H103 C91 0.929 . S
H104 C126 0.930 . S
H105 C97 0.931 1_655 S
H106 C87 0.930 . S
H107 C116 0.929 . S
H108 C92 0.931 . S
H109 C93 0.930 . S
H110 C148 0.930 . S
H111 C89 0.929 . S
H112 C117 0.931 1_455 S
H113 C118 0.930 . S
N114 Gd94 2.622 . S
N114 C115 1.369 1_565 S
N114 C116 1.338 1_565 S
C115 N114 1.369 1_545 S
C115 C119 1.415 . S
C115 C122 1.422 1_545 S
C116 H107 0.929 . S
C116 N114 1.338 1_545 S
C116 C118 1.378 . S
C117 H112 0.931 1_655 S
C117 C118 1.348 . S
C117 C119 1.413 . S
C118 H113 0.930 . S
C118 C116 1.378 . S
C118 C117 1.348 . S
C119 C115 1.415 . S
C119 C117 1.413 . S
C119 C149 1.437 1_655 S
H120 C149 0.929 . S
N121 Gd94 2.570 . S
N121 C122 1.359 . S
N121 C125 1.343 . S
C122 C115 1.422 1_565 S
C122 N121 1.359 . S
C122 C124 1.421 1_565 S
C123 C124 1.422 1_565 S
C123 C126 1.321 . S
C123 H150 0.931 . S
C124 C122 1.421 1_545 S
C124 C123 1.422 1_545 S
C124 C148 1.417 1_655 S
C125 H102 0.931 . S
C125 N121 1.343 . S
C125 C126 1.390 . S
C126 H104 0.930 . S
C126 C123 1.321 . S
C126 C125 1.390 . S
O127 Gd95 2.386 . S
O127 C139 1.265 . S
O128 Gd94 2.353 . S
O128 C139 1.242 . S
O129 Gd94 2.468 . S
O129 C147 1.263 . S
O130 Gd94 2.427 . S
O130 C147 1.252 . S
O131 Gd95 2.307 . S
O131 C140 1.261 . S
O132 Gd94 2.388 . S
O132 C140 1.252 . S
O133 Gd94 2.386 . S
O133 C151 1.265 . S
O134 Gd95 2.353 . S
O134 C151 1.242 . S
O135 Gd95 2.468 . S
O135 C159 1.263 . S
O136 Gd95 2.427 . S
O136 C159 1.252 . S
O137 Gd94 2.307 . S
O137 C152 1.261 . S
O138 Gd95 2.388 . S
O138 C152 1.252 . S
C139 O127 1.265 . S
C139 O128 1.242 . S
C140 O131 1.261 . S
C140 O132 1.252 . S
C141 C144 1.394 . S
C141 C146 1.370 . S
C141 C147 1.500 . S
C142 C145 1.383 . S
C142 C146 1.395 . S
C143 C144 1.396 1_545 S
C143 C145 1.365 1_545 S
C143 H160 0.929 . S
C144 C141 1.394 . S
C144 C143 1.396 1_565 S
C144 H161 0.930 1_565 S
C145 C142 1.383 . S
C145 C143 1.365 1_565 S
C145 H162 0.929 . S
C146 C141 1.370 . S
C146 C142 1.395 . S
C146 H163 0.930 . S
C147 Gd94 2.805 . S
C147 O129 1.263 . S
C147 O130 1.252 . S
C147 C141 1.500 . S
C148 H110 0.930 . S
C148 C124 1.417 1_455 S
C148 C149 1.329 . S
C149 C119 1.437 1_455 S
C149 H120 0.929 . S
C149 C148 1.329 . S
H150 C123 0.931 . S
C151 O133 1.265 . S
C151 O134 1.242 . S
C152 O137 1.261 . S
C152 O138 1.252 . S
C153 C156 1.394 . S
C153 C158 1.370 . S
C153 C159 1.500 . S
C154 C157 1.383 . S
C154 C158 1.395 . S
C155 C156 1.396 . S
C155 C157 1.365 . S
C155 H164 0.929 . S
C156 C153 1.394 . S
C156 C155 1.396 . S
C156 H165 0.930 . S
C157 C154 1.383 . S
C157 C155 1.365 . S
C157 H166 0.931 . S
C158 C153 1.370 . S
C158 C154 1.395 . S
C158 H167 0.930 . S
C159 Gd95 2.805 . S
C159 O135 1.263 . S
C159 O136 1.252 . S
C159 C153 1.500 . S
H160 C143 0.929 . S
H161 C144 0.930 1_545 S
H162 C145 0.929 . S
H163 C146 0.930 . S
H164 C155 0.929 . S
H165 C156 0.930 . S
H166 C157 0.931 . S
H167 C158 0.930 . S
C168 C170 1.422 . S
C168 C172 1.415 . S
C168 N174 1.369 . S
C169 C170 1.421 . S
C169 C171 1.417 . S
C169 C181 1.422 . S
C170 C168 1.422 . S
C170 C169 1.421 . S
C170 N180 1.359 . S
C171 C169 1.417 . S
C171 C173 1.329 . S
C171 H190 0.930 . S
C172 C168 1.415 . S
C172 C173 1.437 . S
C172 C176 1.413 . S
C173 C171 1.329 . S
C173 C172 1.437 . S
C173 H195 0.929 . S
N174 C168 1.369 . S
N174 C175 1.338 . S
N174 Gd179 2.622 . S
C175 N174 1.338 . S
C175 C177 1.378 . S
C175 H187 0.929 . S
C176 C172 1.413 . S
C176 C177 1.348 . S
C176 H192 0.931 . S
C177 C175 1.378 . S
C177 C176 1.348 . S
C177 H193 0.930 . S
Gd178 N198 2.622 1_655 S
Gd178 N205 2.570 1_655 S
Gd178 O212 2.353 1_545 S
Gd178 O213 2.468 . S
Gd178 O214 2.427 1_654 S
Gd178 O216 2.388 . S
Gd178 O217 2.386 . S
Gd178 O221 2.307 . S
Gd178 C231 2.805 1_554 S
Gd179 N174 2.622 . S
Gd179 N180 2.570 . S
Gd179 O211 2.386 . S
Gd179 O215 2.307 . S
Gd179 O218 2.353 1_565 S
Gd179 O219 2.468 . S
Gd179 O220 2.427 . S
Gd179 O222 2.388 . S
Gd179 C243 2.805 . S
N180 C170 1.359 . S
N180 Gd179 2.570 . S
N180 C182 1.343 . S
C181 C169 1.422 . S
C181 C183 1.321 . S
C181 H189 0.931 . S
C182 N180 1.343 . S
C182 C183 1.390 . S
C182 H184 0.931 . S
C183 C181 1.321 . S
C183 C182 1.390 . S
C183 H185 0.930 . S
H184 C182 0.931 . S
H185 C183 0.930 . S
H186 C209 0.931 . S
H187 C175 0.929 . S
H188 C210 0.930 . S
H189 C181 0.931 . S
H190 C171 0.930 . S
H191 C200 0.929 . S
H192 C176 0.931 . S
H193 C177 0.930 . S
H194 C232 0.930 . S
H195 C173 0.929 . S
H196 C201 0.931 . S
H197 C202 0.930 . S
N198 Gd178 2.622 1_455 S
N198 C199 1.369 . S
N198 C200 1.338 . S
C199 N198 1.369 . S
C199 C203 1.415 . S
C199 C206 1.422 . S
C200 H191 0.929 . S
C200 N198 1.338 . S
C200 C202 1.378 . S
C201 H196 0.931 . S
C201 C202 1.348 . S
C201 C203 1.413 . S
C202 H197 0.930 . S
C202 C200 1.378 . S
C202 C201 1.348 . S
C203 C199 1.415 . S
C203 C201 1.413 . S
C203 C233 1.437 . S
H204 C233 0.929 . S
N205 Gd178 2.570 1_455 S
N205 C206 1.359 . S
N205 C209 1.343 1_455 S
C206 C199 1.422 . S
C206 N205 1.359 . S
C206 C208 1.421 . S
C207 C208 1.422 . S
C207 C210 1.321 1_455 S
C207 H234 0.931 . S
C208 C206 1.421 . S
C208 C207 1.422 . S
C208 C232 1.417 . S
C209 H186 0.931 . S
C209 N205 1.343 1_655 S
C209 C210 1.390 . S
C210 H188 0.930 . S
C210 C207 1.321 1_655 S
C210 C209 1.390 . S
O211 Gd179 2.386 . S
O211 C223 1.265 . S
O212 Gd178 2.353 1_565 S
O212 C223 1.242 . S
O213 Gd178 2.468 . S
O213 C231 1.263 1_554 S
O214 Gd178 2.427 1_456 S
O214 C231 1.252 1_455 S
O215 Gd179 2.307 . S
O215 C224 1.261 1_565 S
O216 Gd178 2.388 . S
O216 C224 1.252 . S
O217 Gd178 2.386 . S
O217 C235 1.265 . S
O218 Gd179 2.353 1_545 S
O218 C235 1.242 . S
O219 Gd179 2.468 . S
O219 C243 1.263 . S
O220 Gd179 2.427 . S
O220 C243 1.252 . S
O221 Gd178 2.307 . S
O221 C236 1.261 1_545 S
O222 Gd179 2.388 . S
O222 C236 1.252 . S
C223 O211 1.265 . S
C223 O212 1.242 . S
C224 O215 1.261 1_545 S
C224 O216 1.252 . S
C225 C228 1.394 . S
C225 C230 1.370 1_455 S
C225 C231 1.500 1_455 S
C226 C229 1.383 . S
C226 C230 1.395 1_455 S
C227 C228 1.396 . S
C227 C229 1.365 . S
C227 H244 0.929 . S
C228 C225 1.394 . S
C228 C227 1.396 . S
C228 H245 0.930 . S
C229 C226 1.383 . S
C229 C227 1.365 . S
C229 H246 0.931 . S
C230 C225 1.370 1_655 S
C230 C226 1.395 1_655 S
C230 H247 0.930 . S
C231 Gd178 2.805 1_556 S
C231 O213 1.263 1_556 S
C231 O214 1.252 1_655 S
C231 C225 1.500 1_655 S
C232 H194 0.930 . S
C232 C208 1.417 . S
C232 C233 1.329 . S
C233 C203 1.437 . S
C233 H204 0.929 . S
C233 C232 1.329 . S
H234 C207 0.931 . S
C235 O217 1.265 . S
C235 O218 1.242 . S
C236 O221 1.261 1_565 S
C236 O222 1.252 . S
C237 C240 1.394 . S
C237 C242 1.370 . S
C237 C243 1.500 . S
C238 C241 1.383 . S
C238 C242 1.395 . S
C239 C240 1.396 . S
C239 C241 1.365 . S
C239 H248 0.929 . S
C240 C237 1.394 . S
C240 C239 1.396 . S
C240 H249 0.930 . S
C241 C238 1.383 . S
C241 C239 1.365 . S
C241 H250 0.931 . S
C242 C237 1.370 . S
C242 C238 1.395 . S
C242 H251 0.930 . S
C243 Gd179 2.805 . S
C243 O219 1.263 . S
C243 O220 1.252 . S
C243 C237 1.500 . S
H244 C227 0.929 . S
H245 C228 0.930 . S
H246 C229 0.931 . S
H247 C230 0.930 . S
H248 C239 0.929 . S
H249 C240 0.930 . S
H250 C241 0.931 . S
H251 C242 0.930 . S
C252 C254 1.422 . S
C252 C256 1.415 . S
C252 N258 1.369 . S
C253 C254 1.421 . S
C253 C255 1.417 . S
C253 C265 1.422 . S
C254 C252 1.422 . S
C254 C253 1.421 . S
C254 N264 1.359 . S
C255 C253 1.417 . S
C255 C257 1.329 . S
C255 H274 0.930 . S
C256 C252 1.415 . S
C256 C257 1.437 . S
C256 C260 1.413 . S
C257 C255 1.329 . S
C257 C256 1.437 . S
C257 H279 0.929 . S
N258 C252 1.369 . S
N258 C259 1.338 . S
N258 Gd263 2.622 . S
C259 N258 1.338 . S
C259 C261 1.378 . S
C259 H271 0.929 . S
C260 C256 1.413 . S
C260 C261 1.348 . S
C260 H276 0.931 . S
C261 C259 1.378 . S
C261 C260 1.348 . S
C261 H277 0.930 . S
Gd262 N282 2.622 1_565 S
Gd262 N289 2.570 1_565 S
Gd262 O296 2.353 1_455 S
Gd262 O297 2.468 . S
Gd262 O298 2.427 1_565 S
Gd262 O300 2.388 . S
Gd262 O301 2.386 . S
Gd262 O305 2.307 . S
Gd262 C315 2.805 . S
Gd263 N258 2.622 . S
Gd263 N264 2.570 . S
Gd263 O295 2.386 . S
Gd263 O299 2.307 . S
Gd263 O302 2.353 1_655 S
Gd263 O303 2.468 . S
Gd263 O304 2.427 . S
Gd263 O306 2.388 . S
Gd263 C327 2.805 . S
N264 C254 1.359 . S
N264 Gd263 2.570 . S
N264 C266 1.343 . S
C265 C253 1.422 . S
C265 C267 1.321 . S
C265 H273 0.931 . S
C266 N264 1.343 . S
C266 C267 1.390 . S
C266 H268 0.931 . S
C267 C265 1.321 . S
C267 C266 1.390 . S
C267 H269 0.930 . S
H268 C266 0.931 . S
H269 C267 0.930 . S
H270 C293 0.931 . S
H271 C259 0.929 . S
H272 C294 0.930 . S
H273 C265 0.931 . S
H274 C255 0.930 . S
H275 C284 0.929 . S
H276 C260 0.931 . S
H277 C261 0.930 . S
H278 C316 0.930 . S
H279 C257 0.929 . S
H280 C285 0.931 . S
H281 C286 0.930 . S
N282 Gd262 2.622 1_545 S
N282 C283 1.369 . S
N282 C284 1.338 . S
C283 N282 1.369 . S
C283 C287 1.415 . S
C283 C290 1.422 . S
C284 H275 0.929 . S
C284 N282 1.338 . S
C284 C286 1.378 . S
C285 H280 0.931 . S
C285 C286 1.348 . S
C285 C287 1.413 . S
C286 H281 0.930 . S
C286 C284 1.378 . S
C286 C285 1.348 . S
C287 C283 1.415 . S
C287 C285 1.413 . S
C287 C317 1.437 . S
H288 C317 0.929 . S
N289 Gd262 2.570 1_545 S
N289 C290 1.359 . S
N289 C293 1.343 1_545 S
C290 C283 1.422 . S
C290 N289 1.359 . S
C290 C292 1.421 . S
C291 C292 1.422 . S
C291 C294 1.321 1_545 S
C291 H318 0.931 . S
C292 C290 1.421 . S
C292 C291 1.422 . S
C292 C316 1.417 . S
C293 H270 0.931 . S
C293 N289 1.343 1_565 S
C293 C294 1.390 . S
C294 H272 0.930 . S
C294 C291 1.321 1_565 S
C294 C293 1.390 . S
O295 Gd263 2.386 . S
O295 C307 1.265 . S
O296 Gd262 2.353 1_655 S
O296 C307 1.242 . S
O297 Gd262 2.468 . S
O297 C315 1.263 . S
O298 Gd262 2.427 1_545 S
O298 C315 1.252 1_545 S
O299 Gd263 2.307 . S
O299 C308 1.261 1_655 S
O300 Gd262 2.388 . S
O300 C308 1.252 . S
O301 Gd262 2.386 . S
O301 C319 1.265 . S
O302 Gd263 2.353 1_455 S
O302 C319 1.242 . S
O303 Gd263 2.468 . S
O303 C327 1.263 . S
O304 Gd263 2.427 . S
O304 C327 1.252 . S
O305 Gd262 2.307 . S
O305 C320 1.261 1_455 S
O306 Gd263 2.388 . S
O306 C320 1.252 . S
C307 O295 1.265 . S
C307 O296 1.242 . S
C308 O299 1.261 1_455 S
C308 O300 1.252 . S
C309 C312 1.394 . S
C309 C314 1.370 1_545 S
C309 C315 1.500 1_545 S
C310 C313 1.383 . S
C310 C314 1.395 1_545 S
C311 C312 1.396 . S
C311 C313 1.365 . S
C311 H328 0.929 . S
C312 C309 1.394 . S
C312 C311 1.396 . S
C312 H329 0.930 . S
C313 C310 1.383 . S
C313 C311 1.365 . S
C313 H330 0.931 . S
C314 C309 1.370 1_565 S
C314 C310 1.395 1_565 S
C314 H331 0.930 . S
C315 Gd262 2.805 . S
C315 O297 1.263 . S
C315 O298 1.252 1_565 S
C315 C309 1.500 1_565 S
C316 H278 0.930 . S
C316 C292 1.417 . S
C316 C317 1.329 . S
C317 C287 1.437 . S
C317 H288 0.929 . S
C317 C316 1.329 . S
H318 C291 0.931 . S
C319 O301 1.265 . S
C319 O302 1.242 . S
C320 O305 1.261 1_655 S
C320 O306 1.252 . S
C321 C324 1.394 . S
C321 C326 1.370 . S
C321 C327 1.500 . S
C322 C325 1.383 . S
C322 C326 1.395 . S
C323 C324 1.396 . S
C323 C325 1.365 . S
C323 H332 0.929 . S
C324 C321 1.394 . S
C324 C323 1.396 . S
C324 H333 0.930 . S
C325 C322 1.383 . S
C325 C323 1.365 . S
C325 H334 0.931 . S
C326 C321 1.370 . S
C326 C322 1.395 . S
C326 H335 0.930 . S
C327 Gd263 2.805 . S
C327 O303 1.263 . S
C327 O304 1.252 . S
C327 C321 1.500 . S
H328 C311 0.929 . S
H329 C312 0.930 . S
H330 C313 0.931 . S
H331 C314 0.930 . S
H332 C323 0.929 . S
H333 C324 0.930 . S
H334 C325 0.931 . S
H335 C326 0.930 . S
H336 C344 0.929 . S
H337 C346 0.930 . S
H338 C348 0.945 . S
H339 C351 0.929 . S
H340 C354 0.930 . S
H341 C356 0.960 . S
H342 C356 0.960 . S
H343 C356 0.960 . S
C344 H336 0.929 . S
C344 C345 1.377 1_545 S
C344 C346 1.384 1_655 S
C345 C344 1.377 1_565 S
C345 C351 1.390 . S
C346 H337 0.930 . S
C346 C344 1.384 1_455 S
C346 C347 1.372 . S
C347 C346 1.372 . S
C347 C348 1.400 1_455 S
C347 C352 1.490 . S
C348 H338 0.945 . S
C348 C347 1.400 1_655 S
C348 C351 1.386 1_545 S
H349 C365 0.930 . S
H350 C366 0.931 . S
C351 H339 0.929 . S
C351 C345 1.390 . S
C351 C348 1.386 1_565 S
C352 C347 1.490 . S
C352 C354 1.395 . S
C352 C355 1.403 . S
H353 C359 0.930 . S
C354 H340 0.930 . S
C354 C352 1.395 . S
C354 C357 1.403 . S
C355 C352 1.403 . S
C355 C356 1.524 . S
C355 C359 1.400 . S
C356 H341 0.960 . S
C356 H342 0.960 . S
C356 H343 0.960 . S
C356 C355 1.524 . S
C357 C354 1.403 . S
C357 C358 1.392 . S
C357 C361 1.495 . S
C358 C357 1.392 . S
C358 C359 1.385 . S
C358 C360 1.478 . S
C359 H353 0.930 . S
C359 C355 1.400 . S
C359 C358 1.385 . S
C360 C358 1.478 . S
C360 C362 1.381 . S
C360 C366 1.383 . S
C361 C357 1.495 . S
C361 H367 0.959 . S
C361 H368 0.961 . S
C361 H369 0.960 . S
C362 C360 1.381 . S
C362 C363 1.394 . S
C362 H370 0.930 . S
C363 C362 1.394 . S
C363 C364 1.383 . S
C363 H371 0.929 . S
C364 C363 1.383 . S
C364 C365 1.377 . S
C365 H349 0.930 . S
C365 C364 1.377 . S
C365 C366 1.379 . S
C366 H350 0.931 . S
C366 C360 1.383 . S
C366 C365 1.379 . S
H367 C361 0.959 . S
H368 C361 0.961 . S
H369 C361 0.960 . S
H370 C362 0.930 . S
H371 C363 0.929 . S
H372 C380 0.929 . S
H373 C382 0.930 1_655 S
H374 C384 0.930 . S
H375 C387 0.929 . S
H376 C390 0.930 . S
H377 C392 0.960 . S
H378 C392 0.960 . S
H379 C392 0.960 . S
C380 H372 0.929 . S
C380 C381 1.377 . S
C380 C382 1.384 1_655 S
C381 C380 1.377 . S
C381 C387 1.390 1_655 S
C382 H373 0.930 1_455 S
C382 C380 1.384 1_455 S
C382 C383 1.372 1_565 S
C383 C382 1.372 1_545 S
C383 C384 1.400 . S
C383 C388 1.490 . S
C384 H374 0.930 . S
C384 C383 1.400 . S
C384 C387 1.386 1_545 S
H385 C401 0.930 . S
H386 C402 0.931 . S
C387 H375 0.929 . S
C387 C381 1.390 1_455 S
C387 C384 1.386 1_565 S
C388 C383 1.490 . S
C388 C390 1.395 . S
C388 C391 1.403 . S
H389 C395 0.930 . S
C390 H376 0.930 . S
C390 C388 1.395 . S
C390 C393 1.403 . S
C391 C388 1.403 . S
C391 C392 1.524 . S
C391 C395 1.400 . S
C392 H377 0.960 . S
C392 H378 0.960 . S
C392 H379 0.960 . S
C392 C391 1.524 . S
C393 C390 1.403 . S
C393 C394 1.392 . S
C393 C397 1.495 . S
C394 C393 1.392 . S
C394 C395 1.385 . S
C394 C396 1.478 . S
C395 H389 0.930 . S
C395 C391 1.400 . S
C395 C394 1.385 . S
C396 C394 1.478 . S
C396 C398 1.381 . S
C396 C402 1.383 . S
C397 C393 1.495 . S
C397 H403 0.959 . S
C397 H404 0.961 . S
C397 H405 0.960 . S
C398 C396 1.381 . S
C398 C399 1.394 . S
C398 H406 0.930 . S
C399 C398 1.394 . S
C399 C400 1.383 . S
C399 H407 0.929 . S
C400 C399 1.383 . S
C400 C401 1.377 . S
C401 H385 0.930 . S
C401 C400 1.377 . S
C401 C402 1.379 . S
C402 H386 0.931 . S
C402 C396 1.383 . S
C402 C401 1.379 . S
H403 C397 0.959 . S
H404 C397 0.961 . S
H405 C397 0.960 . S
H406 C398 0.930 . S
H407 C399 0.929 . S
H408 C416 0.929 . S
H409 C418 0.930 1_565 S
H410 C420 0.930 . S
H411 C423 0.929 . S
H412 C426 0.930 . S
H413 C428 0.960 . S
H414 C428 0.960 . S
H415 C428 0.960 . S
C416 H408 0.929 . S
C416 C417 1.377 1_565 S
C416 C418 1.384 1_565 S
C417 C416 1.377 1_545 S
C417 C423 1.390 . S
C418 H409 0.930 1_545 S
C418 C416 1.384 1_545 S
C418 C419 1.372 . S
C419 C418 1.372 . S
C419 C420 1.400 . S
C419 C424 1.490 . S
C420 H410 0.930 . S
C420 C419 1.400 . S
C420 C423 1.386 . S
H421 C437 0.930 . S
H422 C438 0.931 . S
C423 H411 0.929 . S
C423 C417 1.390 . S
C423 C420 1.386 . S
C424 C419 1.490 . S
C424 C426 1.395 . S
C424 C427 1.403 . S
H425 C431 0.930 . S
C426 H412 0.930 . S
C426 C424 1.395 . S
C426 C429 1.403 . S
C427 C424 1.403 . S
C427 C428 1.524 . S
C427 C431 1.400 . S
C428 H413 0.960 . S
C428 H414 0.960 . S
C428 H415 0.960 . S
C428 C427 1.524 . S
C429 C426 1.403 . S
C429 C430 1.392 . S
C429 C433 1.495 . S
C430 C429 1.392 . S
C430 C431 1.385 . S
C430 C432 1.478 . S
C431 H425 0.930 . S
C431 C427 1.400 . S
C431 C430 1.385 . S
C432 C430 1.478 . S
C432 C434 1.381 . S
C432 C438 1.383 . S
C433 C429 1.495 . S
C433 H439 0.959 . S
C433 H440 0.961 . S
C433 H441 0.960 . S
C434 C432 1.381 . S
C434 C435 1.394 . S
C434 H442 0.930 . S
C435 C434 1.394 . S
C435 C436 1.383 . S
C435 H443 0.929 . S
C436 C435 1.383 . S
C436 C437 1.377 . S
C437 H421 0.930 . S
C437 C436 1.377 . S
C437 C438 1.379 . S
C438 H422 0.931 . S
C438 C432 1.383 . S
C438 C437 1.379 . S
H439 C433 0.959 . S
H440 C433 0.961 . S
H441 C433 0.960 . S
H442 C434 0.930 . S
H443 C435 0.929 . S
H444 C452 0.929 . S
H445 C454 0.930 . S
H446 C456 0.930 . S
H447 C459 0.929 . S
H448 C462 0.930 . S
H449 C464 0.960 . S
H450 C464 0.960 . S
H451 C464 0.960 . S
C452 H444 0.929 . S
C452 C453 1.377 . S
C452 C454 1.384 . S
C453 C452 1.377 . S
C453 C459 1.390 . S
C454 H445 0.930 . S
C454 C452 1.384 . S
C454 C455 1.372 . S
C455 C454 1.372 . S
C455 C456 1.400 . S
C455 C460 1.490 . S
C456 H446 0.930 . S
C456 C455 1.400 . S
C456 C459 1.386 . S
H457 C473 0.930 . S
H458 C474 0.931 . S
C459 H447 0.929 . S
C459 C453 1.390 . S
C459 C456 1.386 . S
C460 C455 1.490 . S
C460 C462 1.395 . S
C460 C463 1.403 . S
H461 C467 0.930 . S
C462 H448 0.930 . S
C462 C460 1.395 . S
C462 C465 1.403 . S
C463 C460 1.403 . S
C463 C464 1.524 . S
C463 C467 1.400 . S
C464 H449 0.960 . S
C464 H450 0.960 . S
C464 H451 0.960 . S
C464 C463 1.524 . S
C465 C462 1.403 . S
C465 C466 1.392 . S
C465 C469 1.495 . S
C466 C465 1.392 . S
C466 C467 1.385 . S
C466 C468 1.478 . S
C467 H461 0.930 . S
C467 C463 1.400 . S
C467 C466 1.385 . S
C468 C466 1.478 . S
C468 C470 1.381 . S
C468 C474 1.383 . S
C469 C465 1.495 . S
C469 H475 0.959 . S
C469 H476 0.961 . S
C469 H477 0.960 . S
C470 C468 1.381 . S
C470 C471 1.394 . S
C470 H478 0.930 . S
C471 C470 1.394 . S
C471 C472 1.383 . S
C471 H479 0.929 . S
C472 C471 1.383 . S
C472 C473 1.377 . S
C473 H457 0.930 . S
C473 C472 1.377 . S
C473 C474 1.379 . S
C474 H458 0.931 . S
C474 C468 1.383 . S
C474 C473 1.379 . S
H475 C469 0.959 . S
H476 C469 0.961 . S
H477 C469 0.960 . S
H478 C470 0.930 . S
H479 C471 0.929 . S
H480 C488 0.929 . S
H481 C490 0.930 . S
H482 C492 0.930 . S
H483 C495 0.929 . S
H484 C498 0.930 . S
H485 C500 0.960 . S
H486 C500 0.960 . S
H487 C500 0.960 . S
C488 H480 0.929 . S
C488 C489 1.377 . S
C488 C490 1.384 . S
C489 C488 1.377 . S
C489 C495 1.390 . S
C490 H481 0.930 . S
C490 C488 1.384 . S
C490 C491 1.372 . S
C491 C490 1.372 . S
C491 C492 1.400 . S
C491 C496 1.490 . S
C492 H482 0.930 . S
C492 C491 1.400 . S
C492 C495 1.386 . S
H493 C509 0.930 . S
H494 C510 0.931 . S
C495 H483 0.929 . S
C495 C489 1.390 . S
C495 C492 1.386 . S
C496 C491 1.490 . S
C496 C498 1.395 . S
C496 C499 1.403 . S
H497 C503 0.930 . S
C498 H484 0.930 . S
C498 C496 1.395 . S
C498 C501 1.403 . S
C499 C496 1.403 . S
C499 C500 1.524 . S
C499 C503 1.400 . S
C500 H485 0.960 . S
C500 H486 0.960 . S
C500 H487 0.960 . S
C500 C499 1.524 . S
C501 C498 1.403 . S
C501 C502 1.392 . S
C501 C505 1.495 . S
C502 C501 1.392 . S
C502 C503 1.385 . S
C502 C504 1.478 . S
C503 H497 0.930 . S
C503 C499 1.400 . S
C503 C502 1.385 . S
C504 C502 1.478 . S
C504 C506 1.381 . S
C504 C510 1.383 . S
C505 C501 1.495 . S
C505 H511 0.959 . S
C505 H512 0.961 . S
C505 H513 0.960 . S
C506 C504 1.381 . S
C506 C507 1.394 . S
C506 H514 0.930 . S
C507 C506 1.394 . S
C507 C508 1.383 . S
C507 H515 0.929 . S
C508 C507 1.383 . S
C508 C509 1.377 . S
C509 H493 0.930 . S
C509 C508 1.377 . S
C509 C510 1.379 . S
C510 H494 0.931 . S
C510 C504 1.383 . S
C510 C509 1.379 . S
H511 C505 0.959 . S
H512 C505 0.961 . S
H513 C505 0.960 . S
H514 C506 0.930 . S
H515 C507 0.929 . S
H516 C524 0.929 . S
H517 C526 0.930 . S
H518 C528 0.930 . S
H519 C531 0.929 . S
H520 C534 0.930 . S
H521 C536 0.960 . S
H522 C536 0.960 . S
H523 C536 0.960 . S
C524 H516 0.929 . S
C524 C525 1.377 . S
C524 C526 1.384 . S
C525 C524 1.377 . S
C525 C531 1.390 . S
C526 H517 0.930 . S
C526 C524 1.384 . S
C526 C527 1.372 . S
C527 C526 1.372 . S
C527 C528 1.400 . S
C527 C532 1.490 . S
C528 H518 0.930 . S
C528 C527 1.400 . S
C528 C531 1.386 . S
H529 C545 0.930 . S
H530 C546 0.931 . S
C531 H519 0.929 . S
C531 C525 1.390 . S
C531 C528 1.386 . S
C532 C527 1.490 . S
C532 C534 1.395 . S
C532 C535 1.403 . S
H533 C539 0.930 . S
C534 H520 0.930 . S
C534 C532 1.395 . S
C534 C537 1.403 . S
C535 C532 1.403 . S
C535 C536 1.524 . S
C535 C539 1.400 . S
C536 H521 0.960 . S
C536 H522 0.960 . S
C536 H523 0.960 . S
C536 C535 1.524 . S
C537 C534 1.403 . S
C537 C538 1.392 . S
C537 C541 1.495 1_455 S
C538 C537 1.392 . S
C538 C539 1.385 . S
C538 C540 1.478 . S
C539 H533 0.930 . S
C539 C535 1.400 . S
C539 C538 1.385 . S
C540 C538 1.478 . S
C540 C542 1.381 . S
C540 C546 1.383 . S
C541 C537 1.495 1_655 S
C541 H547 0.959 . S
C541 H548 0.961 . S
C541 H549 0.960 1_655 S
C542 C540 1.381 . S
C542 C543 1.394 . S
C542 H550 0.930 . S
C543 C542 1.394 . S
C543 C544 1.376 . S
C543 H551 0.929 . S
C544 C543 1.376 . S
C544 C545 1.382 1_455 S
C545 H529 0.930 . S
C545 C544 1.382 1_655 S
C545 C546 1.379 1_655 S
C546 H530 0.931 . S
C546 C540 1.383 . S
C546 C545 1.379 1_455 S
H547 C541 0.959 . S
H548 C541 0.961 . S
H549 C541 0.960 1_455 S
H550 C542 0.930 . S
H551 C543 0.929 . S
H552 C560 0.929 . S
H553 C562 0.930 . S
H554 C564 0.930 . S
H555 C567 0.929 . S
H556 C570 0.930 . S
H557 C572 0.960 . S
H558 C572 0.960 . S
H559 C572 0.960 . S
C560 H552 0.929 . S
C560 C561 1.377 . S
C560 C562 1.384 . S
C561 C560 1.377 . S
C561 C567 1.390 . S
C562 H553 0.930 . S
C562 C560 1.384 . S
C562 C563 1.372 . S
C563 C562 1.372 . S
C563 C564 1.400 . S
C563 C568 1.490 . S
C564 H554 0.930 . S
C564 C563 1.400 . S
C564 C567 1.386 . S
H565 C581 0.930 . S
H566 C582 0.931 . S
C567 H555 0.929 . S
C567 C561 1.390 . S
C567 C564 1.386 . S
C568 C563 1.490 . S
C568 C570 1.395 . S
C568 C571 1.403 . S
H569 C575 0.930 . S
C570 H556 0.930 . S
C570 C568 1.395 . S
C570 C573 1.403 . S
C571 C568 1.403 . S
C571 C572 1.524 . S
C571 C575 1.400 . S
C572 H557 0.960 . S
C572 H558 0.960 . S
C572 H559 0.960 . S
C572 C571 1.524 . S
C573 C570 1.403 . S
C573 C574 1.392 . S
C573 C577 1.495 . S
C574 C573 1.392 . S
C574 C575 1.385 . S
C574 C576 1.478 . S
C575 H569 0.930 . S
C575 C571 1.400 . S
C575 C574 1.385 . S
C576 C574 1.478 . S
C576 C578 1.381 . S
C576 C582 1.383 . S
C577 C573 1.495 . S
C577 H583 0.959 . S
C577 H584 0.961 . S
C577 H585 0.960 . S
C578 C576 1.381 . S
C578 C579 1.394 . S
C578 H586 0.930 . S
C579 C578 1.394 . S
C579 C580 1.383 . S
C579 H587 0.929 . S
C580 C579 1.383 . S
C580 C581 1.377 . S
C581 H565 0.930 . S
C581 C580 1.377 . S
C581 C582 1.379 . S
C582 H566 0.931 . S
C582 C576 1.383 . S
C582 C581 1.379 . S
H583 C577 0.959 . S
H584 C577 0.961 . S
H585 C577 0.960 . S
H586 C578 0.930 . S
H587 C579 0.929 . S
H588 C596 0.929 . S
H589 C598 0.930 . S
H590 C600 0.930 . S
H591 C603 0.929 . S
H592 C606 0.930 . S
H593 C608 0.960 . S
H594 C608 0.960 1_565 S
H595 C608 0.960 . S
C596 H588 0.929 . S
C596 C597 1.377 1_565 S
C596 C598 1.384 1_565 S
C597 C596 1.377 1_545 S
C597 C603 1.390 . S
C598 H589 0.930 . S
C598 C596 1.384 1_545 S
C598 C599 1.372 . S
C599 C598 1.372 . S
C599 C600 1.400 . S
C599 C604 1.490 . S
C600 H590 0.930 . S
C600 C599 1.400 . S
C600 C603 1.386 . S
H601 C617 0.930 1_554 S
H602 C618 0.931 . S
C603 H591 0.929 . S
C603 C597 1.390 . S
C603 C600 1.386 . S
C604 C599 1.490 . S
C604 C606 1.395 . S
C604 C607 1.403 . S
H605 C611 0.930 . S
C606 H592 0.930 . S
C606 C604 1.395 . S
C606 C609 1.403 . S
C607 C604 1.403 . S
C607 C608 1.524 . S
C607 C611 1.400 . S
C608 H593 0.960 . S
C608 H594 0.960 1_545 S
C608 H595 0.960 . S
C608 C607 1.524 . S
C609 C606 1.403 . S
C609 C610 1.392 . S
C609 C613 1.495 . S
C610 C609 1.392 . S
C610 C611 1.385 . S
C610 C612 1.478 . S
C611 H605 0.930 . S
C611 C607 1.400 . S
C611 C610 1.385 . S
C612 C610 1.478 . S
C612 C614 1.381 . S
C612 C618 1.383 . S
C613 C609 1.495 . S
C613 H619 0.959 . S
C613 H620 0.961 . S
C613 H621 0.960 . S
C614 C612 1.381 . S
C614 C615 1.394 . S
C614 H622 0.930 . S
C615 C614 1.394 . S
C615 C616 1.383 1_556 S
C615 H623 0.936 . S
C616 C615 1.383 1_554 S
C616 C617 1.377 1_554 S
C617 H601 0.930 1_556 S
C617 C616 1.377 1_556 S
C617 C618 1.379 . S
C618 H602 0.931 . S
C618 C612 1.383 . S
C618 C617 1.379 . S
H619 C613 0.959 . S
H620 C613 0.961 . S
H621 C613 0.960 . S
H622 C614 0.930 . S
H623 C615 0.936 . S
H624 C632 0.929 1_545 S
H625 C634 0.930 . S
H626 C636 0.930 . S
H627 C639 0.929 . S
H628 C642 0.930 . S
H629 C644 0.960 . S
H630 C644 0.960 . S
H631 C644 0.960 . S
C632 H624 0.929 1_565 S
C632 C633 1.377 . S
C632 C634 1.384 . S
C633 C632 1.377 . S
C633 C639 1.390 . S
C634 H625 0.930 . S
C634 C632 1.384 . S
C634 C635 1.372 . S
C635 C634 1.372 . S
C635 C636 1.400 . S
C635 C640 1.490 . S
C636 H626 0.930 . S
C636 C635 1.400 . S
C636 C639 1.386 . S
H637 C653 0.930 . S
H638 C654 0.931 . S
C639 H627 0.929 . S
C639 C633 1.390 . S
C639 C636 1.386 . S
C640 C635 1.490 . S
C640 C642 1.395 . S
C640 C643 1.403 . S
H641 C647 0.930 . S
C642 H628 0.930 . S
C642 C640 1.395 . S
C642 C645 1.403 . S
C643 C640 1.403 . S
C643 C644 1.524 . S
C643 C647 1.400 . S
C644 H629 0.960 . S
C644 H630 0.960 . S
C644 H631 0.960 . S
C644 C643 1.524 . S
C645 C642 1.403 . S
C645 C646 1.392 . S
C645 C649 1.495 1_655 S
C646 C645 1.392 . S
C646 C647 1.385 . S
C646 C648 1.478 . S
C647 H641 0.930 . S
C647 C643 1.400 . S
C647 C646 1.385 . S
C648 C646 1.478 . S
C648 C650 1.381 . S
C648 C654 1.383 . S
C649 C645 1.495 1_455 S
C649 H655 0.959 . S
C649 H656 0.961 1_455 S
C649 H657 0.960 . S
C650 C648 1.381 . S
C650 C651 1.394 . S
C650 H658 0.930 . S
C651 C650 1.394 . S
C651 C652 1.383 . S
C651 H659 0.929 . S
C652 C651 1.383 . S
C652 C653 1.377 . S
C653 H637 0.930 . S
C653 C652 1.377 . S
C653 C654 1.379 . S
C654 H638 0.931 . S
C654 C648 1.383 . S
C654 C653 1.379 . S
H655 C649 0.959 . S
H656 C649 0.961 1_655 S
H657 C649 0.960 . S
H658 C650 0.930 . S
H659 C651 0.929 . S
H660 C668 0.929 . S
H661 C670 0.930 1_565 S
H662 C672 0.930 . S
H663 C675 0.929 . S
H664 C678 0.930 . S
H665 C680 0.960 . S
H666 C680 0.960 . S
H667 C680 0.960 . S
C668 H660 0.929 . S
C668 C669 1.377 . S
C668 C670 1.384 . S
C669 C668 1.377 . S
C669 C675 1.390 . S
C670 H661 0.930 1_545 S
C670 C668 1.384 . S
C670 C671 1.372 . S
C671 C670 1.372 . S
C671 C672 1.400 . S
C671 C676 1.490 . S
C672 H662 0.930 . S
C672 C671 1.400 . S
C672 C675 1.386 . S
H673 C689 0.930 1_545 S
H674 C690 0.931 1_545 S
C675 H663 0.929 . S
C675 C669 1.390 . S
C675 C672 1.386 . S
C676 C671 1.490 . S
C676 C678 1.395 1_545 S
C676 C679 1.403 . S
H677 C683 0.930 . S
C678 H664 0.930 . S
C678 C676 1.395 1_565 S
C678 C681 1.403 . S
C679 C676 1.403 . S
C679 C680 1.524 . S
C679 C683 1.400 . S
C680 H665 0.960 . S
C680 H666 0.960 . S
C680 H667 0.960 . S
C680 C679 1.524 . S
C681 C678 1.403 . S
C681 C682 1.392 . S
C681 C685 1.495 . S
C682 C681 1.392 . S
C682 C683 1.385 1_565 S
C682 C684 1.478 . S
C683 H677 0.930 . S
C683 C679 1.400 . S
C683 C682 1.385 1_545 S
C684 C682 1.478 . S
C684 C686 1.381 . S
C684 C690 1.383 . S
C685 C681 1.495 . S
C685 H691 0.959 . S
C685 H692 0.961 . S
C685 H693 0.960 . S
C686 C684 1.381 . S
C686 C687 1.394 . S
C686 H694 0.930 . S
C687 C686 1.394 . S
C687 C688 1.383 . S
C687 H695 0.929 1_455 S
C688 C687 1.383 . S
C688 C689 1.377 . S
C689 H673 0.930 1_565 S
C689 C688 1.377 . S
C689 C690 1.379 . S
C690 H674 0.931 1_565 S
C690 C684 1.383 . S
C690 C689 1.379 . S
H691 C685 0.959 . S
H692 C685 0.961 . S
H693 C685 0.960 . S
H694 C686 0.930 . S
H695 C687 0.929 1_655 S
H696 C704 0.929 . S
H697 C706 0.930 . S
H698 C708 0.930 . S
H699 C711 0.929 . S
H700 C714 0.930 . S
H701 C716 0.960 . S
H702 C716 0.960 . S
H703 C716 0.960 . S
C704 H696 0.929 . S
C704 C705 1.377 . S
C704 C706 1.384 . S
C705 C704 1.377 . S
C705 C711 1.390 . S
C706 H697 0.930 . S
C706 C704 1.384 . S
C706 C707 1.372 . S
C707 C706 1.372 . S
C707 C708 1.400 . S
C707 C712 1.490 . S
C708 H698 0.930 . S
C708 C707 1.400 . S
C708 C711 1.386 . S
H709 C725 0.930 . S
H710 C726 0.931 . S
C711 H699 0.929 . S
C711 C705 1.390 . S
C711 C708 1.386 . S
C712 C707 1.490 . S
C712 C714 1.395 . S
C712 C715 1.403 . S
H713 C719 0.930 . S
C714 H700 0.930 . S
C714 C712 1.395 . S
C714 C717 1.403 . S
C715 C712 1.403 . S
C715 C716 1.524 . S
C715 C719 1.400 . S
C716 H701 0.960 . S
C716 H702 0.960 . S
C716 H703 0.960 . S
C716 C715 1.524 . S
C717 C714 1.403 . S
C717 C718 1.392 . S
C717 C721 1.495 . S
C718 C717 1.392 . S
C718 C719 1.385 . S
C718 C720 1.478 . S
C719 H713 0.930 . S
C719 C715 1.400 . S
C719 C718 1.385 . S
C720 C718 1.478 . S
C720 C722 1.381 . S
C720 C726 1.383 . S
C721 C717 1.495 . S
C721 H727 0.959 . S
C721 H728 0.961 . S
C721 H729 0.960 . S
C722 C720 1.381 . S
C722 C723 1.394 . S
C722 H730 0.930 . S
C723 C722 1.394 . S
C723 C724 1.383 . S
C723 H731 0.929 . S
C724 C723 1.383 . S
C724 C725 1.377 . S
C725 H709 0.930 . S
C725 C724 1.377 . S
C725 C726 1.379 . S
C726 H710 0.931 . S
C726 C720 1.383 . S
C726 C725 1.379 . S
H727 C721 0.959 . S
H728 C721 0.961 . S
H729 C721 0.960 . S
H730 C722 0.930 . S
H731 C723 0.929 . S
H732 C740 0.929 . S
H733 C742 0.930 . S
H734 C744 0.930 . S
H735 C747 0.929 1_455 S
H736 C750 0.932 1_655 S
H737 C752 0.960 1_455 S
H738 C752 0.960 . S
H739 C752 0.960 1_455 S
C740 H732 0.929 . S
C740 C741 1.377 . S
C740 C742 1.384 . S
C741 C740 1.377 . S
C741 C747 1.390 . S
C742 H733 0.930 . S
C742 C740 1.384 . S
C742 C743 1.372 . S
C743 C742 1.372 . S
C743 C744 1.400 1_655 S
C743 C748 1.490 . S
C744 H734 0.930 . S
C744 C743 1.400 1_455 S
C744 C747 1.386 1_455 S
H745 C761 0.930 . S
H746 C762 0.931 . S
C747 H735 0.929 1_655 S
C747 C741 1.390 . S
C747 C744 1.386 1_655 S
C748 C743 1.490 . S
C748 C750 1.395 1_655 S
C748 C751 1.403 1_655 S
H749 C755 0.930 . S
C750 H736 0.932 1_455 S
C750 C748 1.395 1_455 S
C750 C753 1.403 . S
C751 C748 1.403 1_455 S
C751 C752 1.524 1_455 S
C751 C755 1.400 . S
C752 H737 0.960 1_655 S
C752 H738 0.960 . S
C752 H739 0.960 1_655 S
C752 C751 1.524 1_655 S
C753 C750 1.403 . S
C753 C754 1.392 . S
C753 C757 1.495 . S
C754 C753 1.392 . S
C754 C755 1.385 . S
C754 C756 1.478 . S
C755 H749 0.930 . S
C755 C751 1.400 . S
C755 C754 1.385 . S
C756 C754 1.478 . S
C756 C758 1.381 . S
C756 C762 1.383 . S
C757 C753 1.495 . S
C757 H763 0.959 . S
C757 H764 0.961 . S
C757 H765 0.960 . S
C758 C756 1.381 . S
C758 C759 1.394 . S
C758 H766 0.930 1_455 S
C759 C758 1.394 . S
C759 C760 1.383 . S
C759 H767 0.929 . S
C760 C759 1.383 . S
C760 C761 1.377 . S
C761 H745 0.930 . S
C761 C760 1.377 . S
C761 C762 1.379 . S
C762 H746 0.931 . S
C762 C756 1.383 . S
C762 C761 1.379 . S
H763 C757 0.959 . S
H764 C757 0.961 . S
H765 C757 0.960 . S
H766 C758 0.930 1_655 S
H767 C759 0.929 . S
C345 C224 0.415 1_565 S
C364 C68 0.403 . S
C381 C308 0.456 1_655 S
C400 C152 0.482 . S
C417 C236 1.549 1_545 S
C436 C56 1.541 . S
C453 C140 1.541 . S
C472 C320 1.519 1_455 S
C489 C151 1.939 . S
C508 C67 1.927 . S
C525 C139 1.112 . S
C544 C226 1.030 . S
C561 C322 1.848 . S
C580 C238 1.861 . S
C597 C310 0.964 . S
C616 C55 1.126 . S
C633 C223 1.942 1_556 S
C652 C307 1.931 . S
C669 C70 0.937 . S
C688 C319 1.132 . S
C705 C142 1.841 . S
C724 C58 1.860 . S
C741 C235 1.113 . S
C760 C154 0.882 . S
