# Generated by pormake.
# Topology wgi, (5)-cn, num edge types: 1
# Building blocks:
#     Node 0, Type 0, BuildingBlock: XOMCOT_clean_sbu_1, # of connection points: 5
#     Node 1, Type 0, BuildingBlock: XOMCOT_clean_sbu_1, # of connection points: 5
#     Node 2, Type 0, BuildingBlock: XOMCOT_clean_sbu_1, # of connection points: 5
#     Node 3, Type 0, BuildingBlock: XOMCOT_clean_sbu_1, # of connection points: 5
#     Node 4, Type 0, BuildingBlock: XOMCOT_clean_sbu_1, # of connection points: 5
#     Node 5, Type 0, BuildingBlock: XOMCOT_clean_sbu_1, # of connection points: 5
#     Node 6, Type 0, BuildingBlock: XOMCOT_clean_sbu_1, # of connection points: 5
#     Node 7, Type 0, BuildingBlock: XOMCOT_clean_sbu_1, # of connection points: 5
#     Node 8, Type 0, BuildingBlock: XOMCOT_clean_sbu_1, # of connection points: 5
#     Node 9, Type 0, BuildingBlock: XOMCOT_clean_sbu_1, # of connection points: 5
#     Node 10, Type 0, BuildingBlock: XOMCOT_clean_sbu_1, # of connection points: 5
#     Node 11, Type 0, BuildingBlock: XOMCOT_clean_sbu_1, # of connection points: 5
#     Node 12, Type 0, BuildingBlock: XOMCOT_clean_sbu_1, # of connection points: 5
#     Node 13, Type 0, BuildingBlock: XOMCOT_clean_sbu_1, # of connection points: 5
#     Node 14, Type 0, BuildingBlock: XOMCOT_clean_sbu_1, # of connection points: 5
#     Node 15, Type 0, BuildingBlock: XOMCOT_clean_sbu_1, # of connection points: 5
#     Node 16, Type 0, BuildingBlock: XOMCOT_clean_sbu_1, # of connection points: 5
#     Node 17, Type 0, BuildingBlock: XOMCOT_clean_sbu_1, # of connection points: 5
#     Node 18, Type 0, BuildingBlock: XOMCOT_clean_sbu_1, # of connection points: 5
#     Node 19, Type 0, BuildingBlock: XOMCOT_clean_sbu_1, # of connection points: 5
#     Node 20, Type 0, BuildingBlock: XOMCOT_clean_sbu_1, # of connection points: 5
#     Node 21, Type 0, BuildingBlock: XOMCOT_clean_sbu_1, # of connection points: 5
#     Node 22, Type 0, BuildingBlock: XOMCOT_clean_sbu_1, # of connection points: 5
#     Node 23, Type 0, BuildingBlock: XOMCOT_clean_sbu_1, # of connection points: 5
#     Node 24, Type 0, BuildingBlock: XOMCOT_clean_sbu_1, # of connection points: 5
#     Node 25, Type 0, BuildingBlock: XOMCOT_clean_sbu_1, # of connection points: 5
#     Node 26, Type 0, BuildingBlock: XOMCOT_clean_sbu_1, # of connection points: 5
#     Node 27, Type 0, BuildingBlock: XOMCOT_clean_sbu_1, # of connection points: 5
#     Node 28, Type 0, BuildingBlock: XOMCOT_clean_sbu_1, # of connection points: 5
#     Node 29, Type 0, BuildingBlock: XOMCOT_clean_sbu_1, # of connection points: 5
#     Node 30, Type 0, BuildingBlock: XOMCOT_clean_sbu_1, # of connection points: 5
#     Node 31, Type 0, BuildingBlock: XOMCOT_clean_sbu_1, # of connection points: 5
#     Edge 32, Type (0, 0), BuildingBlock: CIFDUS_clean_linker_0, # of connection points: 2
#     Edge 33, Type (0, 0), BuildingBlock: CIFDUS_clean_linker_0, # of connection points: 2
#     Edge 34, Type (0, 0), BuildingBlock: CIFDUS_clean_linker_0, # of connection points: 2
#     Edge 35, Type (0, 0), BuildingBlock: CIFDUS_clean_linker_0, # of connection points: 2
#     Edge 36, Type (0, 0), BuildingBlock: CIFDUS_clean_linker_0, # of connection points: 2
#     Edge 37, Type (0, 0), BuildingBlock: CIFDUS_clean_linker_0, # of connection points: 2
#     Edge 38, Type (0, 0), BuildingBlock: CIFDUS_clean_linker_0, # of connection points: 2
#     Edge 39, Type (0, 0), BuildingBlock: CIFDUS_clean_linker_0, # of connection points: 2
#     Edge 40, Type (0, 0), BuildingBlock: CIFDUS_clean_linker_0, # of connection points: 2
#     Edge 41, Type (0, 0), BuildingBlock: CIFDUS_clean_linker_0, # of connection points: 2
#     Edge 42, Type (0, 0), BuildingBlock: CIFDUS_clean_linker_0, # of connection points: 2
#     Edge 43, Type (0, 0), BuildingBlock: CIFDUS_clean_linker_0, # of connection points: 2
#     Edge 44, Type (0, 0), BuildingBlock: CIFDUS_clean_linker_0, # of connection points: 2
#     Edge 45, Type (0, 0), BuildingBlock: CIFDUS_clean_linker_0, # of connection points: 2
#     Edge 46, Type (0, 0), BuildingBlock: CIFDUS_clean_linker_0, # of connection points: 2
#     Edge 47, Type (0, 0), BuildingBlock: CIFDUS_clean_linker_0, # of connection points: 2
#     Edge 48, Type (0, 0), BuildingBlock: CIFDUS_clean_linker_0, # of connection points: 2
#     Edge 49, Type (0, 0), BuildingBlock: CIFDUS_clean_linker_0, # of connection points: 2
#     Edge 50, Type (0, 0), BuildingBlock: CIFDUS_clean_linker_0, # of connection points: 2
#     Edge 51, Type (0, 0), BuildingBlock: CIFDUS_clean_linker_0, # of connection points: 2
#     Edge 52, Type (0, 0), BuildingBlock: CIFDUS_clean_linker_0, # of connection points: 2
#     Edge 53, Type (0, 0), BuildingBlock: CIFDUS_clean_linker_0, # of connection points: 2
#     Edge 54, Type (0, 0), BuildingBlock: CIFDUS_clean_linker_0, # of connection points: 2
#     Edge 55, Type (0, 0), BuildingBlock: CIFDUS_clean_linker_0, # of connection points: 2
#     Edge 56, Type (0, 0), BuildingBlock: CIFDUS_clean_linker_0, # of connection points: 2
#     Edge 57, Type (0, 0), BuildingBlock: CIFDUS_clean_linker_0, # of connection points: 2
#     Edge 58, Type (0, 0), BuildingBlock: CIFDUS_clean_linker_0, # of connection points: 2
#     Edge 59, Type (0, 0), BuildingBlock: CIFDUS_clean_linker_0, # of connection points: 2
#     Edge 60, Type (0, 0), BuildingBlock: CIFDUS_clean_linker_0, # of connection points: 2
#     Edge 61, Type (0, 0), BuildingBlock: CIFDUS_clean_linker_0, # of connection points: 2
#     Edge 62, Type (0, 0), BuildingBlock: CIFDUS_clean_linker_0, # of connection points: 2
#     Edge 63, Type (0, 0), BuildingBlock: CIFDUS_clean_linker_0, # of connection points: 2
#     Edge 64, Type (0, 0), BuildingBlock: CIFDUS_clean_linker_0, # of connection points: 2
#     Edge 65, Type (0, 0), BuildingBlock: CIFDUS_clean_linker_0, # of connection points: 2
#     Edge 66, Type (0, 0), BuildingBlock: CIFDUS_clean_linker_0, # of connection points: 2
#     Edge 67, Type (0, 0), BuildingBlock: CIFDUS_clean_linker_0, # of connection points: 2
#     Edge 68, Type (0, 0), BuildingBlock: CIFDUS_clean_linker_0, # of connection points: 2
#     Edge 69, Type (0, 0), BuildingBlock: CIFDUS_clean_linker_0, # of connection points: 2
#     Edge 70, Type (0, 0), BuildingBlock: CIFDUS_clean_linker_0, # of connection points: 2
#     Edge 71, Type (0, 0), BuildingBlock: CIFDUS_clean_linker_0, # of connection points: 2
#     Edge 72, Type (0, 0), BuildingBlock: CIFDUS_clean_linker_0, # of connection points: 2
#     Edge 73, Type (0, 0), BuildingBlock: CIFDUS_clean_linker_0, # of connection points: 2
#     Edge 74, Type (0, 0), BuildingBlock: CIFDUS_clean_linker_0, # of connection points: 2
#     Edge 75, Type (0, 0), BuildingBlock: CIFDUS_clean_linker_0, # of connection points: 2
#     Edge 76, Type (0, 0), BuildingBlock: CIFDUS_clean_linker_0, # of connection points: 2
#     Edge 77, Type (0, 0), BuildingBlock: CIFDUS_clean_linker_0, # of connection points: 2
#     Edge 78, Type (0, 0), BuildingBlock: CIFDUS_clean_linker_0, # of connection points: 2
#     Edge 79, Type (0, 0), BuildingBlock: CIFDUS_clean_linker_0, # of connection points: 2
#     Edge 80, Type (0, 0), BuildingBlock: CIFDUS_clean_linker_0, # of connection points: 2
#     Edge 81, Type (0, 0), BuildingBlock: CIFDUS_clean_linker_0, # of connection points: 2
#     Edge 82, Type (0, 0), BuildingBlock: CIFDUS_clean_linker_0, # of connection points: 2
#     Edge 83, Type (0, 0), BuildingBlock: CIFDUS_clean_linker_0, # of connection points: 2
#     Edge 84, Type (0, 0), BuildingBlock: CIFDUS_clean_linker_0, # of connection points: 2
#     Edge 85, Type (0, 0), BuildingBlock: CIFDUS_clean_linker_0, # of connection points: 2
#     Edge 86, Type (0, 0), BuildingBlock: CIFDUS_clean_linker_0, # of connection points: 2
#     Edge 87, Type (0, 0), BuildingBlock: CIFDUS_clean_linker_0, # of connection points: 2
#     Edge 88, Type (0, 0), BuildingBlock: CIFDUS_clean_linker_0, # of connection points: 2
#     Edge 89, Type (0, 0), BuildingBlock: CIFDUS_clean_linker_0, # of connection points: 2
#     Edge 90, Type (0, 0), BuildingBlock: CIFDUS_clean_linker_0, # of connection points: 2
#     Edge 91, Type (0, 0), BuildingBlock: CIFDUS_clean_linker_0, # of connection points: 2
#     Edge 92, Type (0, 0), BuildingBlock: CIFDUS_clean_linker_0, # of connection points: 2
#     Edge 93, Type (0, 0), BuildingBlock: CIFDUS_clean_linker_0, # of connection points: 2
#     Edge 94, Type (0, 0), BuildingBlock: CIFDUS_clean_linker_0, # of connection points: 2
#     Edge 95, Type (0, 0), BuildingBlock: CIFDUS_clean_linker_0, # of connection points: 2
#     Edge 96, Type (0, 0), BuildingBlock: CIFDUS_clean_linker_0, # of connection points: 2
#     Edge 97, Type (0, 0), BuildingBlock: CIFDUS_clean_linker_0, # of connection points: 2
#     Edge 98, Type (0, 0), BuildingBlock: CIFDUS_clean_linker_0, # of connection points: 2
#     Edge 99, Type (0, 0), BuildingBlock: CIFDUS_clean_linker_0, # of connection points: 2
#     Edge 100, Type (0, 0), BuildingBlock: CIFDUS_clean_linker_0, # of connection points: 2
#     Edge 101, Type (0, 0), BuildingBlock: CIFDUS_clean_linker_0, # of connection points: 2
#     Edge 102, Type (0, 0), BuildingBlock: CIFDUS_clean_linker_0, # of connection points: 2
#     Edge 103, Type (0, 0), BuildingBlock: CIFDUS_clean_linker_0, # of connection points: 2
#     Edge 104, Type (0, 0), BuildingBlock: CIFDUS_clean_linker_0, # of connection points: 2
#     Edge 105, Type (0, 0), BuildingBlock: CIFDUS_clean_linker_0, # of connection points: 2
#     Edge 106, Type (0, 0), BuildingBlock: CIFDUS_clean_linker_0, # of connection points: 2
#     Edge 107, Type (0, 0), BuildingBlock: CIFDUS_clean_linker_0, # of connection points: 2
#     Edge 108, Type (0, 0), BuildingBlock: CIFDUS_clean_linker_0, # of connection points: 2
#     Edge 109, Type (0, 0), BuildingBlock: CIFDUS_clean_linker_0, # of connection points: 2
#     Edge 110, Type (0, 0), BuildingBlock: CIFDUS_clean_linker_0, # of connection points: 2
#     Edge 111, Type (0, 0), BuildingBlock: CIFDUS_clean_linker_0, # of connection points: 2
# Relax obj value: 0.184
# Max RMSD: 0.143
# Mean RMSD: 0.143
data_MOF--net-wgi--node1-XOMCOT_clean_sbu_1--edge1-CIFDUS_clean_linker_0
_symmetry_space_group_name_H-M    P1
_symmetry_Int_Tables_number       1
_symmetry_cell_setting            triclinic
loop_
_symmetry_equiv_pos_as_xyz
'x, y, z'
_cell_length_a     67.809897
_cell_length_b     67.695328
_cell_length_c     23.497114
_cell_angle_alpha  89.885051
_cell_angle_beta   89.809902
_cell_angle_gamma 90.131914
loop_
_atom_site_label
_atom_site_type_symbol
_atom_site_fract_x
_atom_site_fract_y
_atom_site_fract_z
_atom_type_partial_charge
C0 C 0.10801 0.18184 0.45269 0.0
C1 C 0.0886 0.17645 0.46051 0.0
N2 N 0.08503 0.1603 0.42877 0.0
N3 N 0.11657 0.16914 0.41613 0.0
C4 C 0.10222 0.15617 0.40225 0.0
H5 H 0.11563 0.1938 0.4738 0.0
Co6 Co 0.14344 0.16804 0.40126 0.0
C7 C 0.14341 0.15742 0.27805 0.0
O8 O 0.15503 0.17249 0.2666 0.0
N9 N 0.17095 0.16643 0.39054 0.0
C10 C 0.20137 0.15495 0.37572 0.0
C11 C 0.18226 0.15522 0.35578 0.0
C12 C 0.18352 0.17232 0.43168 0.0
N13 N 0.20197 0.16555 0.42397 0.0
O14 O 0.14425 0.14375 0.44236 0.0
H15 H 0.17689 0.14597 0.32186 0.0
H16 H 0.17893 0.18033 0.46918 0.0
O17 O 0.13829 0.15389 0.32963 0.0
C18 C 0.14649 0.14698 0.49535 0.0
O19 O 0.14894 0.16529 0.51235 0.0
N20 N 0.14199 0.19304 0.36495 0.0
C21 C 0.13389 0.23232 0.33602 0.0
C22 C 0.12284 0.2168 0.31267 0.0
C23 C 0.12702 0.19731 0.32799 0.0
C24 C 0.15326 0.20797 0.38643 0.0
C25 C 0.1497 0.22761 0.37176 0.0
H26 H 0.1173 0.18576 0.31313 0.0
H27 H 0.16422 0.20506 0.41824 0.0
H28 H 0.10457 0.14334 0.37566 0.0
H29 H 0.078 0.1837 0.48792 0.0
H30 H 0.21333 0.14603 0.35932 0.0
H31 H 0.1102 0.21969 0.2859 0.0
H32 H 0.15871 0.23907 0.39063 0.0
C33 C 0.06303 0.85562 0.71607 0.0
C34 C 0.06468 0.83556 0.72235 0.0
N35 N 0.08241 0.83003 0.70196 0.0
N36 N 0.07952 0.86272 0.69117 0.0
C37 C 0.0912 0.84681 0.68353 0.0
H38 H 0.05071 0.86456 0.72974 0.0
Co39 Co 0.08376 0.88938 0.67834 0.0
C40 C 0.10389 0.89089 0.56423 0.0
O41 O 0.09332 0.90644 0.55158 0.0
N42 N 0.0876 0.91727 0.66841 0.0
C43 C 0.08152 0.94922 0.65161 0.0
C44 C 0.07753 0.93016 0.6352 0.0
C45 C 0.09774 0.92923 0.70423 0.0
N46 N 0.09399 0.94855 0.69582 0.0
O47 O 0.10462 0.88841 0.73431 0.0
H48 H 0.06681 0.92619 0.60328 0.0
H49 H 0.10688 0.9241 0.73862 0.0
O50 O 0.10219 0.88304 0.61392 0.0
C51 C 0.09638 0.89062 0.78302 0.0
O52 O 0.07733 0.8942 0.78416 0.0
N53 N 0.06166 0.88932 0.63041 0.0
C54 C 0.02387 0.87928 0.59329 0.0
C55 C 0.04067 0.87206 0.56511 0.0
C56 C 0.05944 0.8769 0.58509 0.0
C57 C 0.04554 0.89757 0.65569 0.0
C58 C 0.02654 0.89289 0.6376 0.0
H59 H 0.07185 0.86897 0.5678 0.0
H60 H 0.0474 0.90642 0.6936 0.0
H61 H 0.10584 0.84753 0.66515 0.0
H62 H 0.05388 0.82587 0.74188 0.0
H63 H 0.07434 0.96239 0.63578 0.0
H64 H 0.03935 0.86156 0.53062 0.0
H65 H 0.01413 0.89852 0.66164 0.0
C66 C 0.3878 0.82246 0.96255 0.0
C67 C 0.40743 0.82634 0.97186 0.0
N68 N 0.41212 0.84341 0.94536 0.0
N69 N 0.3802 0.83687 0.92972 0.0
C70 C 0.39528 0.84954 0.92035 0.0
H71 H 0.37946 0.81011 0.97933 0.0
Co72 Co 0.35382 0.83892 0.91035 0.0
C73 C 0.35637 0.85052 0.78761 0.0
O74 O 0.344 0.83621 0.77493 0.0
N75 N 0.32663 0.84136 0.89492 0.0
C76 C 0.29693 0.85319 0.87285 0.0
C77 C 0.31674 0.85371 0.85984 0.0
C78 C 0.31249 0.83424 0.93023 0.0
N79 N 0.29434 0.84105 0.91758 0.0
O80 O 0.3528 0.86296 0.9527 0.0
H81 H 0.32341 0.86394 0.83022 0.0
H82 H 0.31558 0.82519 0.96706 0.0
O83 O 0.36105 0.85349 0.83981 0.0
C84 C 0.349 0.85996 1.00521 0.0
O85 O 0.34406 0.84203 1.02135 0.0
N86 N 0.35558 0.81412 0.87282 0.0
C87 C 0.36534 0.77509 0.84502 0.0
C88 C 0.37605 0.791 0.82223 0.0
C89 C 0.37107 0.81031 0.83701 0.0
C90 C 0.34454 0.79881 0.89358 0.0
C91 C 0.34898 0.77926 0.8796 0.0
H92 H 0.38083 0.82205 0.82346 0.0
H93 H 0.33322 0.80138 0.92476 0.0
H94 H 0.39388 0.86306 0.89605 0.0
H95 H 0.41734 0.81754 0.99746 0.0
H96 H 0.2856 0.86236 0.85414 0.0
H97 H 0.38914 0.78859 0.79667 0.0
H98 H 0.34025 0.76747 0.89819 0.0
C99 C 0.43895 0.14733 0.20634 0.0
C100 C 0.43708 0.16725 0.21464 0.0
N101 N 0.41934 0.17292 0.19485 0.0
N102 N 0.42259 0.14037 0.18078 0.0
C103 C 0.41076 0.15628 0.17475 0.0
H104 H 0.45128 0.13834 0.21946 0.0
Co105 Co 0.41862 0.11366 0.16688 0.0
C106 C 0.38597 0.1216 0.07852 0.0
O107 O 0.37107 0.11971 0.11399 0.0
N108 N 0.41493 0.08657 0.15562 0.0
C109 C 0.40444 0.05644 0.13257 0.0
C110 C 0.40465 0.07611 0.11675 0.0
C111 C 0.42099 0.07297 0.19373 0.0
N112 N 0.4148 0.0546 0.18106 0.0
O113 O 0.39598 0.11407 0.21765 0.0
H114 H 0.39725 0.08228 0.08019 0.0
H115 H 0.42916 0.07656 0.23174 0.0
O116 O 0.40356 0.11962 0.09699 0.0
C117 C 0.40332 0.11157 0.26736 0.0
O118 O 0.42256 0.10984 0.27148 0.0
N119 N 0.44201 0.1133 0.12397 0.0
C120 C 0.48045 0.12355 0.09311 0.0
C121 C 0.46428 0.13082 0.06241 0.0
C122 C 0.44517 0.12587 0.07929 0.0
C123 C 0.45756 0.10438 0.15014 0.0
C124 C 0.47693 0.1093 0.1354 0.0
H125 H 0.43319 0.13407 0.06083 0.0
H126 H 0.45508 0.09525 0.18717 0.0
H127 H 0.39611 0.15561 0.15669 0.0
H128 H 0.44771 0.17672 0.23546 0.0
H129 H 0.39706 0.0445 0.1106 0.0
H130 H 0.46628 0.14167 0.02893 0.0
H131 H 0.48886 0.10346 0.16087 0.0
C132 C 0.11248 0.81595 0.10354 0.0
C133 C 0.09309 0.82068 0.09342 0.0
N134 N 0.08956 0.83872 0.11541 0.0
N135 N 0.12103 0.83081 0.13254 0.0
C136 C 0.10677 0.84453 0.13877 0.0
H137 H 0.12005 0.80279 0.08936 0.0
Co138 Co 0.14757 0.83313 0.14988 0.0
C139 C 0.14572 0.84447 0.27311 0.0
O140 O 0.15823 0.83015 0.28407 0.0
N141 N 0.17493 0.83611 0.16406 0.0
C142 C 0.20411 0.84949 0.1854 0.0
C143 C 0.18431 0.84917 0.1982 0.0
C144 C 0.18943 0.82937 0.12939 0.0
N145 N 0.20724 0.83716 0.14163 0.0
O146 O 0.14825 0.85677 0.10417 0.0
H147 H 0.17723 0.85943 0.22673 0.0
H148 H 0.18685 0.82 0.093 0.0
O149 O 0.14066 0.84787 0.22123 0.0
C150 C 0.15212 0.85134 0.05322 0.0
O151 O 0.15621 0.83265 0.04424 0.0
N152 N 0.14634 0.80836 0.18806 0.0
C153 C 0.13693 0.76885 0.21196 0.0
C154 C 0.12661 0.78431 0.23822 0.0
C155 C 0.13131 0.80391 0.22505 0.0
C156 C 0.15712 0.79346 0.16447 0.0
C157 C 0.15283 0.77368 0.1763 0.0
H158 H 0.12168 0.81537 0.24074 0.0
H159 H 0.16783 0.79659 0.13189 0.0
H160 H 0.10912 0.85868 0.15907 0.0
H161 H 0.08261 0.81183 0.0699 0.0
H162 H 0.21499 0.85942 0.20322 0.0
H163 H 0.1142 0.78133 0.26607 0.0
H164 H 0.16089 0.76231 0.15378 0.0
C165 C 0.4288 0.8625 0.32766 0.0
C166 C 0.42326 0.84316 0.31946 0.0
N167 N 0.40706 0.83963 0.35122 0.0
N168 N 0.41614 0.87105 0.36438 0.0
C169 C 0.40305 0.85675 0.37807 0.0
H170 H 0.44091 0.87007 0.30687 0.0
Co171 Co 0.41575 0.8978 0.38062 0.0
C172 C 0.40226 0.89797 0.50344 0.0
O173 O 0.41628 0.91035 0.51745 0.0
N174 N 0.41551 0.92572 0.3941 0.0
C175 C 0.42522 0.95641 0.41546 0.0
C176 C 0.42694 0.93675 0.42909 0.0
C177 C 0.40694 0.93939 0.35992 0.0
N178 N 0.41277 0.95802 0.37136 0.0
O179 O 0.39177 0.89944 0.33784 0.0
H180 H 0.43742 0.93102 0.45939 0.0
H181 H 0.39784 0.93587 0.32387 0.0
O182 O 0.40058 0.89239 0.45155 0.0
C183 C 0.39567 0.90067 0.28473 0.0
O184 O 0.41411 0.90338 0.26912 0.0
N185 N 0.4402 0.89504 0.41678 0.0
C186 C 0.47908 0.88577 0.44515 0.0
C187 C 0.46318 0.87669 0.47349 0.0
C188 C 0.44384 0.88136 0.45821 0.0
C189 C 0.45544 0.90406 0.389 0.0
C190 C 0.47494 0.9 0.40337 0.0
H191 H 0.43191 0.87292 0.47683 0.0
H192 H 0.45241 0.91397 0.35394 0.0
H193 H 0.39028 0.85906 0.40494 0.0
H194 H 0.43047 0.83255 0.29203 0.0
H195 H 0.43349 0.96842 0.43426 0.0
H196 H 0.46562 0.86516 0.50467 0.0
H197 H 0.48666 0.90748 0.38044 0.0
C198 C 0.39233 0.18615 0.61513 0.0
C199 C 0.41198 0.18219 0.60747 0.0
N200 N 0.41562 0.16377 0.62672 0.0
N201 N 0.38356 0.17044 0.6398 0.0
C202 C 0.39805 0.15696 0.64612 0.0
H203 H 0.38469 0.19929 0.60112 0.0
Co204 Co 0.35646 0.16756 0.64725 0.0
C205 C 0.35027 0.15571 0.76743 0.0
O206 O 0.33656 0.16942 0.76726 0.0
N207 N 0.3287 0.16419 0.65002 0.0
C208 C 0.29943 0.14899 0.65262 0.0
C209 C 0.31822 0.14935 0.67447 0.0
C210 C 0.31605 0.17186 0.61138 0.0
N211 N 0.29822 0.16304 0.61239 0.0
O212 O 0.35782 0.1446 0.59823 0.0
H213 H 0.32423 0.13807 0.70189 0.0
H214 H 0.32031 0.18242 0.57908 0.0
O215 O 0.35988 0.15219 0.72102 0.0
C216 C 0.35598 0.15199 0.54822 0.0
O217 O 0.35402 0.17124 0.54371 0.0
N218 N 0.3557 0.19186 0.68798 0.0
C219 C 0.36452 0.2309 0.71746 0.0
C220 C 0.3735 0.2151 0.74593 0.0
C221 C 0.36899 0.1957 0.73037 0.0
C222 C 0.34598 0.20714 0.66258 0.0
C223 C 0.34993 0.22671 0.67726 0.0
H224 H 0.37774 0.18394 0.74837 0.0
H225 H 0.3367 0.20459 0.62647 0.0
H226 H 0.39554 0.14223 0.66254 0.0
H227 H 0.42251 0.19179 0.5864 0.0
H228 H 0.28824 0.13794 0.66136 0.0
H229 H 0.38496 0.21772 0.77705 0.0
H230 H 0.34301 0.23845 0.65322 0.0
C231 C 0.06896 0.14123 0.82716 0.0
C232 C 0.07312 0.16053 0.81354 0.0
N233 N 0.09066 0.16527 0.83656 0.0
N234 N 0.08372 0.13387 0.85901 0.0
C235 C 0.09677 0.14886 0.86413 0.0
H236 H 0.05637 0.13283 0.81267 0.0
Co237 Co 0.08604 0.10731 0.87691 0.0
C238 C 0.10375 0.10641 0.99342 0.0
O239 O 0.09329 0.09075 1.0066 0.0
N240 N 0.08807 0.07956 0.89161 0.0
C241 C 0.07954 0.04818 0.9089 0.0
C242 C 0.07609 0.06761 0.9227 0.0
C243 C 0.09886 0.06671 0.86025 0.0
N244 N 0.09365 0.04772 0.86866 0.0
O245 O 0.10897 0.1067 0.82984 0.0
H246 H 0.06454 0.07255 0.95105 0.0
H247 H 0.10958 0.07098 0.82861 0.0
O248 O 0.10236 0.11396 0.94358 0.0
C249 C 0.10456 0.10429 0.7776 0.0
O250 O 0.08618 0.10013 0.76455 0.0
N251 N 0.06248 0.10912 0.91834 0.0
C252 C 0.02454 0.12121 0.94796 0.0
C253 C 0.04094 0.12758 0.9793 0.0
C254 C 0.05983 0.1217 0.9631 0.0
C255 C 0.04662 0.10167 0.88997 0.0
C256 C 0.02749 0.10741 0.9043 0.0
H257 H 0.0722 0.12888 0.98312 0.0
H258 H 0.04897 0.09255 0.8528 0.0
H259 H 0.11095 0.14744 0.88469 0.0
H260 H 0.0641 0.17021 0.78782 0.0
H261 H 0.071 0.03558 0.92328 0.0
H262 H 0.03934 0.13818 1.01346 0.0
H263 H 0.01537 0.10238 0.87815 0.0
C264 C 0.88734 0.82324 0.57904 0.0
C265 C 0.90686 0.827 0.56715 0.0
N266 N 0.91198 0.84407 0.59271 0.0
N267 N 0.88027 0.83773 0.61251 0.0
C268 C 0.89553 0.85027 0.61987 0.0
H269 H 0.87867 0.81104 0.56303 0.0
Co270 Co 0.85409 0.8407 0.63312 0.0
C271 C 0.85709 0.85137 0.75601 0.0
O272 O 0.84393 0.83768 0.76803 0.0
N273 N 0.82716 0.84411 0.65001 0.0
C274 C 0.79794 0.85687 0.67336 0.0
C275 C 0.81782 0.85688 0.68513 0.0
C276 C 0.81268 0.83731 0.61582 0.0
N277 N 0.79482 0.84464 0.62931 0.0
O278 O 0.85388 0.86506 0.59178 0.0
H279 H 0.82495 0.86701 0.71394 0.0
H280 H 0.81535 0.82822 0.57888 0.0
O281 O 0.86207 0.85445 0.70396 0.0
C282 C 0.84988 0.8623 0.53938 0.0
O283 O 0.84434 0.84455 0.5234 0.0
N284 N 0.85494 0.8156 0.66928 0.0
C285 C 0.86301 0.7761 0.69547 0.0
C286 C 0.87395 0.79141 0.7202 0.0
C287 C 0.86994 0.81097 0.70576 0.0
C288 C 0.84368 0.80085 0.64669 0.0
C289 C 0.84728 0.78105 0.65979 0.0
H290 H 0.88003 0.82222 0.7204 0.0
H291 H 0.83303 0.80401 0.61426 0.0
H292 H 0.89444 0.86386 0.6438 0.0
H293 H 0.9163 0.8182 0.54007 0.0
H294 H 0.78695 0.86641 0.69233 0.0
H295 H 0.88632 0.78826 0.74781 0.0
H296 H 0.83882 0.76971 0.63837 0.0
C297 C 0.93395 0.13863 0.34349 0.0
C298 C 0.93308 0.15872 0.33691 0.0
N299 N 0.91679 0.1653 0.36367 0.0
N300 N 0.91847 0.13251 0.37506 0.0
C301 C 0.90805 0.14907 0.38623 0.0
H302 H 0.945 0.12895 0.32555 0.0
Co303 Co 0.91393 0.1059 0.38853 0.0
C304 C 0.90303 0.10253 0.51003 0.0
O305 O 0.9164 0.08851 0.51182 0.0
N306 N 0.90907 0.07846 0.39734 0.0
C307 C 0.89363 0.04972 0.41219 0.0
C308 C 0.89388 0.06953 0.42486 0.0
C309 C 0.91688 0.06383 0.3652 0.0
N310 N 0.90807 0.04623 0.37435 0.0
O311 O 0.89009 0.10793 0.34491 0.0
H312 H 0.88266 0.07703 0.44927 0.0
H313 H 0.92775 0.06619 0.3322 0.0
O314 O 0.89983 0.11161 0.46267 0.0
C315 C 0.8935 0.1039 0.29266 0.0
O316 O 0.91113 0.09747 0.27878 0.0
N317 N 0.9388 0.10473 0.42628 0.0
C318 C 0.97827 0.11248 0.45428 0.0
C319 C 0.96285 0.12242 0.48182 0.0
C320 C 0.94333 0.1185 0.4669 0.0
C321 C 0.95364 0.09437 0.40084 0.0
C322 C 0.97337 0.09772 0.41492 0.0
H323 H 0.93205 0.12802 0.48415 0.0
H324 H 0.95063 0.08487 0.36543 0.0
H325 H 0.89431 0.14918 0.40979 0.0
H326 H 0.94332 0.16772 0.3127 0.0
H327 H 0.88269 0.03905 0.42603 0.0
H328 H 0.96579 0.13436 0.5112 0.0
H329 H 0.98473 0.08964 0.39242 0.0
C330 C 0.61397 0.18611 0.09379 0.0
C331 C 0.59466 0.18137 0.0832 0.0
N332 N 0.59075 0.16365 0.10707 0.0
N333 N 0.62225 0.17155 0.12455 0.0
C334 C 0.60783 0.15797 0.13176 0.0
H335 H 0.62171 0.19905 0.07843 0.0
Co336 Co 0.64887 0.17087 0.14138 0.0
C337 C 0.65016 0.15351 0.25956 0.0
O338 O 0.66392 0.1663 0.27266 0.0
N339 N 0.67681 0.17061 0.15533 0.0
C340 C 0.70741 0.18008 0.1784 0.0
C341 C 0.68768 0.18241 0.18983 0.0
C342 C 0.69067 0.1614 0.12311 0.0
N343 N 0.70922 0.16705 0.13581 0.0
O344 O 0.65109 0.14892 0.0894 0.0
H345 H 0.68182 0.19305 0.21958 0.0
H346 H 0.68748 0.15137 0.08876 0.0
O347 O 0.6434 0.15314 0.20846 0.0
C348 C 0.65366 0.15635 0.03974 0.0
O349 O 0.65678 0.17548 0.03585 0.0
N350 N 0.64546 0.19382 0.18492 0.0
C351 C 0.63199 0.23116 0.21672 0.0
C352 C 0.62542 0.21414 0.24538 0.0
C353 C 0.63202 0.19556 0.22807 0.0
C354 C 0.65271 0.21025 0.15847 0.0
C355 C 0.64634 0.22905 0.17403 0.0
H356 H 0.62486 0.18269 0.24583 0.0
H357 H 0.66236 0.20864 0.12201 0.0
H358 H 0.60995 0.14408 0.15372 0.0
H359 H 0.58454 0.19004 0.05796 0.0
H360 H 0.71939 0.18851 0.19679 0.0
H361 H 0.6143 0.21503 0.27846 0.0
H362 H 0.65148 0.24163 0.14956 0.0
C363 C 0.57343 0.85868 0.82478 0.0
C364 C 0.57822 0.83917 0.81697 0.0
N365 N 0.59503 0.8354 0.8455 0.0
N366 N 0.58703 0.86716 0.85849 0.0
C367 C 0.60011 0.8527 0.87011 0.0
H368 H 0.56104 0.86636 0.80618 0.0
Co369 Co 0.58758 0.89379 0.87595 0.0
C370 C 0.59917 0.89348 0.99826 0.0
O371 O 0.5846 0.90563 1.00978 0.0
N372 N 0.58847 0.92117 0.88957 0.0
C373 C 0.60052 0.95138 0.90479 0.0
C374 C 0.60107 0.93192 0.92166 0.0
C375 C 0.58098 0.93446 0.85248 0.0
N376 N 0.58808 0.95285 0.86063 0.0
O377 O 0.61166 0.89606 0.83409 0.0
H378 H 0.61186 0.92594 0.95057 0.0
H379 H 0.57203 0.93044 0.81635 0.0
O380 O 0.60219 0.88804 0.94673 0.0
C381 C 0.60848 0.89969 0.78168 0.0
O382 O 0.5902 0.90248 0.76521 0.0
N383 N 0.56281 0.89086 0.91288 0.0
C384 C 0.52439 0.87844 0.93937 0.0
C385 C 0.54073 0.87022 0.96709 0.0
C386 C 0.55974 0.87622 0.95221 0.0
C387 C 0.54704 0.89976 0.88774 0.0
C388 C 0.52774 0.89388 0.90056 0.0
H389 H 0.57193 0.86783 0.96896 0.0
H390 H 0.54924 0.91014 0.85359 0.0
H391 H 0.61317 0.8549 0.89563 0.0
H392 H 0.57021 0.82875 0.79086 0.0
H393 H 0.61022 0.96302 0.91943 0.0
H394 H 0.53897 0.85833 0.9976 0.0
H395 H 0.5157 0.90035 0.87683 0.0
C396 C 0.89128 0.18396 0.95522 0.0
C397 C 0.91069 0.17946 0.96531 0.0
N398 N 0.91464 0.16181 0.94138 0.0
N399 N 0.88305 0.16932 0.92463 0.0
C400 C 0.89757 0.15599 0.917 0.0
H401 H 0.88343 0.19673 0.97099 0.0
Co402 Co 0.85648 0.1672 0.90814 0.0
C403 C 0.86167 0.13666 0.81421 0.0
O404 O 0.85554 0.12175 0.84549 0.0
N405 N 0.82953 0.16511 0.89368 0.0
C406 C 0.79967 0.15999 0.85789 0.0
C407 C 0.81953 0.16134 0.84539 0.0
C408 C 0.81552 0.1664 0.93433 0.0
N409 N 0.79718 0.16306 0.91419 0.0
O410 O 0.85579 0.14298 0.95139 0.0
H411 H 0.82615 0.15945 0.80385 0.0
H412 H 0.81875 0.16993 0.97804 0.0
O413 O 0.86255 0.15392 0.83587 0.0
C414 C 0.85436 0.14727 1.00425 0.0
O415 O 0.85233 0.16594 1.01827 0.0
N416 N 0.85759 0.19177 0.87155 0.0
C417 C 0.86945 0.23043 0.8487 0.0
C418 C 0.87631 0.21471 0.81531 0.0
C419 C 0.87052 0.19546 0.82814 0.0
C420 C 0.84914 0.20699 0.9006 0.0
C421 C 0.8549 0.22653 0.8899 0.0
H422 H 0.87825 0.18362 0.80729 0.0
H423 H 0.83947 0.20386 0.93618 0.0
H424 H 0.89547 0.14209 0.89519 0.0
H425 H 0.92082 0.18818 0.99038 0.0
H426 H 0.7881 0.15661 0.82784 0.0
H427 H 0.88735 0.21706 0.78257 0.0
H428 H 0.84932 0.23817 0.91705 0.0
C429 C 0.5681 0.145 0.71489 0.0
C430 C 0.5698 0.16496 0.72315 0.0
N431 N 0.58711 0.17096 0.70074 0.0
N432 N 0.58411 0.13845 0.68659 0.0
C433 C 0.59562 0.15456 0.67908 0.0
H434 H 0.55607 0.13572 0.72926 0.0
Co435 Co 0.58791 0.11196 0.67075 0.0
C436 C 0.60271 0.1122 0.55077 0.0
O437 O 0.58936 0.09866 0.53953 0.0
N438 N 0.59169 0.08469 0.65932 0.0
C439 C 0.60596 0.05525 0.64848 0.0
C440 C 0.60603 0.07473 0.63136 0.0
C441 C 0.58371 0.071 0.6945 0.0
N442 N 0.59202 0.05307 0.68876 0.0
O443 O 0.61041 0.11214 0.721 0.0
H444 H 0.6173 0.08138 0.60494 0.0
H445 H 0.57324 0.07442 0.72776 0.0
O446 O 0.60439 0.11866 0.60209 0.0
C447 C 0.6041 0.10865 0.77143 0.0
O448 O 0.58517 0.10522 0.77843 0.0
N449 N 0.5643 0.11236 0.62734 0.0
C450 C 0.52586 0.12424 0.60142 0.0
C451 C 0.54209 0.13267 0.57326 0.0
C452 C 0.56115 0.12687 0.58772 0.0
C453 C 0.54856 0.10266 0.65074 0.0
C454 C 0.52924 0.1083 0.63823 0.0
H455 H 0.57319 0.13581 0.57203 0.0
H456 H 0.55067 0.09228 0.68476 0.0
H457 H 0.60991 0.15426 0.65845 0.0
H458 H 0.55933 0.17427 0.74527 0.0
H459 H 0.61666 0.04412 0.6367 0.0
H460 H 0.54022 0.14492 0.54408 0.0
H461 H 0.51724 0.10155 0.66186 0.0
C462 C 0.6144 0.82824 0.47354 0.0
C463 C 0.59465 0.83219 0.48086 0.0
N464 N 0.58946 0.84619 0.44296 0.0
N465 N 0.62155 0.83967 0.43122 0.0
C466 C 0.60605 0.85051 0.41357 0.0
H467 H 0.62309 0.81785 0.49781 0.0
Co468 Co 0.64779 0.84063 0.40947 0.0
C469 C 0.64565 0.85116 0.28626 0.0
O470 O 0.6581 0.83683 0.27476 0.0
N471 N 0.67482 0.84199 0.39092 0.0
C472 C 0.70424 0.8545 0.36766 0.0
C473 C 0.68432 0.85528 0.35745 0.0
C474 C 0.68937 0.83398 0.42268 0.0
N475 N 0.70733 0.84126 0.40928 0.0
O476 O 0.65008 0.86513 0.44873 0.0
H477 H 0.6773 0.86647 0.33182 0.0
H478 H 0.68676 0.82449 0.45892 0.0
O479 O 0.64064 0.85445 0.33807 0.0
C480 C 0.65527 0.86258 0.50032 0.0
O481 O 0.66074 0.84481 0.51622 0.0
N482 N 0.64471 0.81544 0.37576 0.0
C483 C 0.63166 0.77673 0.35679 0.0
C484 C 0.62361 0.79262 0.3265 0.0
C485 C 0.62988 0.81182 0.33779 0.0
C486 C 0.65345 0.80002 0.40335 0.0
C487 C 0.64728 0.78056 0.39418 0.0
H488 H 0.62142 0.82374 0.31973 0.0
H489 H 0.66378 0.80277 0.43705 0.0
H490 H 0.60698 0.86173 0.38084 0.0
H491 H 0.58485 0.8252 0.5113 0.0
H492 H 0.71528 0.86445 0.35044 0.0
H493 H 0.61153 0.79045 0.29712 0.0
H494 H 0.65359 0.76888 0.41981 0.0
C495 C 0.93465 0.86555 0.2211 0.0
C496 C 0.93281 0.84569 0.23143 0.0
N497 N 0.91667 0.83913 0.20408 0.0
N498 N 0.91994 0.87143 0.18658 0.0
C499 C 0.909 0.85505 0.17746 0.0
H500 H 0.94603 0.87518 0.23751 0.0
Co501 Co 0.91729 0.89739 0.16316 0.0
C502 C 0.90491 0.89417 0.04206 0.0
O503 O 0.91879 0.90702 0.02909 0.0
N504 N 0.91453 0.92424 0.14377 0.0
C505 C 0.90124 0.95327 0.12062 0.0
C506 C 0.90076 0.93324 0.11124 0.0
C507 C 0.92244 0.93916 0.17449 0.0
N508 N 0.91476 0.95691 0.16089 0.0
O509 O 0.89344 0.89892 0.20643 0.0
H510 H 0.88954 0.92581 0.08679 0.0
H511 H 0.93228 0.93691 0.21 0.0
O512 O 0.90238 0.88905 0.09428 0.0
C513 C 0.89629 0.90391 0.25808 0.0
O514 O 0.91411 0.90945 0.27315 0.0
N515 N 0.94191 0.89506 0.12482 0.0
C516 C 0.98019 0.88133 0.10382 0.0
C517 C 0.96397 0.87305 0.07583 0.0
C518 C 0.94502 0.87966 0.08818 0.0
C519 C 0.9577 0.90445 0.14861 0.0
C520 C 0.97699 0.89786 0.13859 0.0
H521 H 0.93293 0.87077 0.073 0.0
H522 H 0.95544 0.91556 0.18066 0.0
H523 H 0.89588 0.85473 0.15138 0.0
H524 H 0.94246 0.83677 0.25755 0.0
H525 H 0.89099 0.96402 0.10379 0.0
H526 H 0.96568 0.86037 0.04821 0.0
H527 H 0.989 0.90452 0.16199 0.0
C528 C 0.61287 0.67907 0.96305 0.0
C529 C 0.59283 0.67789 0.96943 0.0
N530 N 0.58629 0.66228 0.93947 0.0
N531 N 0.61906 0.66447 0.92852 0.0
C532 C 0.60255 0.65422 0.91525 0.0
H533 H 0.62246 0.68967 0.9834 0.0
Co534 Co 0.64577 0.66108 0.91497 0.0
C535 C 0.65055 0.64921 0.79517 0.0
O536 O 0.66447 0.66274 0.79316 0.0
N537 N 0.67325 0.65746 0.90591 0.0
C538 C 0.70206 0.64205 0.89476 0.0
C539 C 0.68221 0.64133 0.88379 0.0
C540 C 0.68797 0.66711 0.93304 0.0
N541 N 0.70559 0.65822 0.9261 0.0
O542 O 0.64477 0.63722 0.95886 0.0
H543 H 0.67464 0.62895 0.86464 0.0
H544 H 0.68575 0.67931 0.96175 0.0
O545 O 0.64079 0.64651 0.84172 0.0
C546 C 0.64979 0.64046 1.01035 0.0
O547 O 0.65656 0.65807 1.02343 0.0
N548 N 0.64584 0.6859 0.87696 0.0
C549 C 0.63441 0.72459 0.85041 0.0
C550 C 0.62795 0.70859 0.81757 0.0
C551 C 0.6333 0.68942 0.83253 0.0
C552 C 0.65325 0.70144 0.90711 0.0
C553 C 0.64789 0.72089 0.89426 0.0
H554 H 0.62554 0.67753 0.81189 0.0
H555 H 0.66122 0.69883 0.94588 0.0
H556 H 0.60247 0.64111 0.88898 0.0
H557 H 0.58383 0.68743 0.99571 0.0
H558 H 0.71275 0.63067 0.88515 0.0
H559 H 0.61751 0.71068 0.78331 0.0
H560 H 0.65278 0.73267 0.922 0.0
C561 C 0.57039 0.36539 0.22346 0.0
C562 C 0.57463 0.34601 0.2362 0.0
N563 N 0.5921 0.34143 0.21209 0.0
N564 N 0.58498 0.37286 0.19084 0.0
C565 C 0.59804 0.35801 0.18487 0.0
H566 H 0.55779 0.37371 0.23835 0.0
Co567 Co 0.58781 0.39905 0.16937 0.0
C568 C 0.59908 0.39568 0.04715 0.0
O569 O 0.58526 0.40856 0.03467 0.0
N570 N 0.59126 0.42598 0.15172 0.0
C571 C 0.60601 0.45454 0.13057 0.0
C572 C 0.60504 0.43472 0.11831 0.0
C573 C 0.5847 0.4408 0.18531 0.0
N574 N 0.59332 0.45832 0.17328 0.0
O575 O 0.61183 0.39976 0.21131 0.0
H576 H 0.61537 0.42711 0.09114 0.0
H577 H 0.57496 0.43848 0.22117 0.0
O578 O 0.60202 0.3909 0.09932 0.0
C579 C 0.60885 0.404 0.26346 0.0
O580 O 0.59106 0.4095 0.27894 0.0
N581 N 0.56298 0.39768 0.13219 0.0
C582 C 0.52375 0.38861 0.10557 0.0
C583 C 0.5393 0.37738 0.08332 0.0
C584 C 0.55872 0.38201 0.09754 0.0
C585 C 0.54805 0.40924 0.15222 0.0
C586 C 0.52839 0.40515 0.13881 0.0
H587 H 0.57014 0.37185 0.08464 0.0
H588 H 0.55096 0.42074 0.1825 0.0
H589 H 0.61183 0.3595 0.16199 0.0
H590 H 0.56587 0.33632 0.26291 0.0
H591 H 0.61661 0.46491 0.11316 0.0
H592 H 0.53649 0.36414 0.0588 0.0
H593 H 0.51689 0.41427 0.15696 0.0
C594 C 0.89346 0.31907 0.45844 0.0
C595 C 0.91296 0.32364 0.46734 0.0
N596 N 0.91666 0.34145 0.44378 0.0
N597 N 0.88498 0.3338 0.42872 0.0
C598 C 0.89942 0.34728 0.42068 0.0
H599 H 0.88577 0.30613 0.47412 0.0
Co600 Co 0.85837 0.3361 0.4126 0.0
C601 C 0.85956 0.34857 0.28913 0.0
O602 O 0.84714 0.33458 0.27494 0.0
N603 N 0.83078 0.33852 0.39844 0.0
C604 C 0.79959 0.33117 0.37652 0.0
C605 C 0.81904 0.32773 0.36367 0.0
C606 C 0.8178 0.34862 0.43125 0.0
N607 N 0.79889 0.34424 0.41936 0.0
O608 O 0.85856 0.36043 0.45438 0.0
H609 H 0.824 0.31648 0.33448 0.0
H610 H 0.82185 0.35767 0.46704 0.0
O611 O 0.86487 0.35041 0.34119 0.0
C612 C 0.85702 0.35664 0.5075 0.0
O613 O 0.85303 0.33839 0.52304 0.0
N614 N 0.85911 0.3111 0.37825 0.0
C615 C 0.86612 0.27109 0.35846 0.0
C616 C 0.87611 0.28567 0.32687 0.0
C617 C 0.87253 0.30565 0.3378 0.0
C618 C 0.84898 0.29711 0.40837 0.0
C619 C 0.85197 0.27704 0.39841 0.0
H620 H 0.88171 0.3166 0.31716 0.0
H621 H 0.83936 0.30156 0.44283 0.0
H622 H 0.89718 0.3613 0.39947 0.0
H623 H 0.92339 0.31488 0.49128 0.0
H624 H 0.787 0.32348 0.35888 0.0
H625 H 0.88734 0.28167 0.29614 0.0
H626 H 0.84434 0.26632 0.42479 0.0
C627 C 0.93513 0.64573 0.71265 0.0
C628 C 0.93385 0.6658 0.71956 0.0
N629 N 0.91672 0.67191 0.69678 0.0
N630 N 0.91901 0.63924 0.68494 0.0
C631 C 0.9079 0.65549 0.67632 0.0
H632 H 0.947 0.63637 0.72718 0.0
Co633 Co 0.91459 0.61287 0.66878 0.0
C634 C 0.89848 0.61322 0.55133 0.0
O635 O 0.91082 0.5988 0.53997 0.0
N636 N 0.90999 0.58575 0.65652 0.0
C637 C 0.89351 0.5573 0.64958 0.0
C638 C 0.89379 0.57696 0.63455 0.0
C639 C 0.91885 0.57116 0.6863 0.0
N640 N 0.90926 0.55373 0.6827 0.0
O641 O 0.89279 0.61302 0.72167 0.0
H642 H 0.88181 0.58457 0.61383 0.0
H643 H 0.93062 0.57376 0.71615 0.0
O644 O 0.89761 0.62013 0.60232 0.0
C645 C 0.89996 0.60875 0.77045 0.0
O646 O 0.91888 0.60473 0.77336 0.0
N647 N 0.93767 0.61328 0.62264 0.0
C648 C 0.9758 0.62476 0.59023 0.0
C649 C 0.95922 0.63305 0.56402 0.0
C650 C 0.94036 0.62752 0.58184 0.0
C651 C 0.95368 0.6039 0.64495 0.0
C652 C 0.97283 0.6093 0.62914 0.0
H653 H 0.92824 0.63649 0.56743 0.0
H654 H 0.952 0.59404 0.68049 0.0
H655 H 0.89372 0.6553 0.65531 0.0
H656 H 0.94453 0.67512 0.74073 0.0
H657 H 0.88186 0.54688 0.64012 0.0
H658 H 0.96074 0.64498 0.53356 0.0
H659 H 0.9851 0.60277 0.65174 0.0
C660 C 0.61682 0.3166 0.59511 0.0
C661 C 0.59689 0.31772 0.58577 0.0
N662 N 0.59021 0.33461 0.60906 0.0
N663 N 0.62263 0.33256 0.62486 0.0
C664 C 0.60616 0.34341 0.63234 0.0
H665 H 0.62658 0.30509 0.58025 0.0
Co666 Co 0.64866 0.33794 0.64189 0.0
C667 C 0.64685 0.35158 0.762 0.0
O668 O 0.66138 0.33948 0.77419 0.0
N669 N 0.67535 0.34353 0.65452 0.0
C670 C 0.70396 0.35941 0.6654 0.0
C671 C 0.68444 0.3585 0.68215 0.0
C672 C 0.68945 0.33621 0.62001 0.0
N673 N 0.70698 0.34526 0.62624 0.0
O674 O 0.64694 0.36131 0.59665 0.0
H675 H 0.67715 0.36928 0.70866 0.0
H676 H 0.68643 0.32599 0.58589 0.0
O677 O 0.6406 0.35273 0.71063 0.0
C678 C 0.65082 0.35816 0.54433 0.0
O679 O 0.65656 0.3404 0.52924 0.0
N680 N 0.6498 0.31365 0.68277 0.0
C681 C 0.64266 0.27423 0.7125 0.0
C682 C 0.63202 0.28953 0.73829 0.0
C683 C 0.6356 0.30907 0.72226 0.0
C684 C 0.66106 0.29891 0.66009 0.0
C685 C 0.65794 0.27917 0.67495 0.0
H686 H 0.62545 0.32016 0.73731 0.0
H687 H 0.67105 0.30185 0.62565 0.0
H688 H 0.60593 0.35753 0.65382 0.0
H689 H 0.58812 0.30721 0.5621 0.0
H690 H 0.7147 0.37033 0.6785 0.0
H691 H 0.61997 0.28633 0.76729 0.0
H692 H 0.66615 0.26781 0.65282 0.0
C693 C 0.93397 0.36332 0.83819 0.0
C694 C 0.92906 0.34385 0.82982 0.0
N695 N 0.91153 0.34035 0.8553 0.0
N696 N 0.91974 0.37203 0.8693 0.0
C697 C 0.90619 0.35774 0.87878 0.0
H698 H 0.94682 0.37083 0.8213 0.0
Co699 Co 0.91854 0.39875 0.88557 0.0
C700 C 0.90451 0.39876 1.0076 0.0
O701 O 0.91767 0.41209 1.02156 0.0
N702 N 0.91742 0.42657 0.89968 0.0
C703 C 0.92662 0.45747 0.92034 0.0
C704 C 0.9292 0.43784 0.93307 0.0
C705 C 0.90758 0.44005 0.86784 0.0
N706 N 0.9131 0.45878 0.87896 0.0
O707 O 0.8947 0.39971 0.8421 0.0
H708 H 0.94025 0.43234 0.96201 0.0
H709 H 0.89772 0.4364 0.83352 0.0
O710 O 0.90345 0.39279 0.95595 0.0
C711 C 0.89895 0.40138 0.7893 0.0
O712 O 0.91736 0.40513 0.77514 0.0
N713 N 0.943 0.39671 0.92193 0.0
C714 C 0.98211 0.38786 0.94769 0.0
C715 C 0.96658 0.37914 0.9785 0.0
C716 C 0.94707 0.38357 0.96448 0.0
C717 C 0.95792 0.40552 0.89221 0.0
C718 C 0.97757 0.40159 0.90503 0.0
H719 H 0.93538 0.37529 0.98481 0.0
H720 H 0.9545 0.41489 0.85623 0.0
H721 H 0.89252 0.36017 0.90153 0.0
H722 H 0.93743 0.33331 0.80509 0.0
H723 H 0.93495 0.46973 0.93759 0.0
H724 H 0.96946 0.36826 1.01127 0.0
H725 H 0.98905 0.40822 0.87909 0.0
C726 C 0.88657 0.689 0.08221 0.0
C727 C 0.90579 0.6853 0.06681 0.0
N728 N 0.91117 0.66788 0.08983 0.0
N729 N 0.87993 0.67407 0.11514 0.0
C730 C 0.89521 0.6614 0.11904 0.0
H731 H 0.87775 0.70144 0.06874 0.0
Co732 Co 0.85389 0.67061 0.1372 0.0
C733 C 0.85722 0.65867 0.25891 0.0
O734 O 0.84406 0.67234 0.27038 0.0
N735 N 0.827 0.66666 0.15589 0.0
C736 C 0.79852 0.65221 0.17993 0.0
C737 C 0.81854 0.65258 0.18902 0.0
C738 C 0.81176 0.67387 0.12522 0.0
N739 N 0.79437 0.66552 0.13935 0.0
O740 O 0.85309 0.64722 0.09081 0.0
H741 H 0.82638 0.64177 0.21397 0.0
H742 H 0.81348 0.68381 0.08951 0.0
O743 O 0.86241 0.65571 0.20683 0.0
C744 C 0.84798 0.65279 0.04093 0.0
O745 O 0.84317 0.67141 0.03357 0.0
N746 N 0.85507 0.6951 0.17618 0.0
C747 C 0.86336 0.73448 0.20363 0.0
C748 C 0.87441 0.71902 0.22721 0.0
C749 C 0.87032 0.69952 0.21202 0.0
C750 C 0.84371 0.70996 0.15478 0.0
C751 C 0.84742 0.72966 0.16846 0.0
H752 H 0.88048 0.68819 0.22553 0.0
H753 H 0.83296 0.70696 0.12251 0.0
H754 H 0.89429 0.64722 0.14028 0.0
H755 H 0.91499 0.69458 0.04014 0.0
H756 H 0.78816 0.64159 0.19738 0.0
H757 H 0.88691 0.72201 0.25446 0.0
H758 H 0.83887 0.74108 0.14771 0.0
C759 C 0.5717 0.64197 0.34716 0.0
C760 C 0.57616 0.66154 0.33876 0.0
N761 N 0.59351 0.66542 0.3643 0.0
N762 N 0.58605 0.63355 0.37834 0.0
C763 C 0.59926 0.64813 0.38781 0.0
H764 H 0.559 0.63422 0.33056 0.0
Co765 Co 0.58695 0.60685 0.39551 0.0
C766 C 0.61703 0.60996 0.49004 0.0
O767 O 0.63148 0.60231 0.46003 0.0
N768 N 0.58767 0.57983 0.4107 0.0
C769 C 0.58973 0.5497 0.44796 0.0
C770 C 0.5897 0.56967 0.45978 0.0
C771 C 0.58611 0.56583 0.37024 0.0
N772 N 0.58757 0.54735 0.39133 0.0
O773 O 0.61118 0.60511 0.35322 0.0
H774 H 0.59111 0.57625 0.50145 0.0
H775 H 0.58357 0.56915 0.32598 0.0
O776 O 0.60013 0.61233 0.46746 0.0
C777 C 0.60691 0.60367 0.30045 0.0
O778 O 0.58821 0.60259 0.28622 0.0
N779 N 0.56249 0.60896 0.43156 0.0
C780 C 0.52431 0.62197 0.45246 0.0
C781 C 0.54008 0.62893 0.48525 0.0
C782 C 0.55913 0.62247 0.47356 0.0
C783 C 0.54715 0.60051 0.40324 0.0
C784 C 0.52783 0.60681 0.4131 0.0
H785 H 0.57118 0.63009 0.4938 0.0
H786 H 0.55006 0.59038 0.36871 0.0
H787 H 0.61286 0.64604 0.41095 0.0
H788 H 0.56756 0.67194 0.31421 0.0
H789 H 0.59154 0.53791 0.47865 0.0
H790 H 0.53796 0.64052 0.51638 0.0
H791 H 0.51612 0.60117 0.38641 0.0
C792 C 0.39285 0.32181 0.11697 0.0
C793 C 0.41265 0.3259 0.11147 0.0
N794 N 0.41646 0.34282 0.13948 0.0
N795 N 0.38431 0.33606 0.14846 0.0
C796 C 0.39905 0.34864 0.16172 0.0
H797 H 0.38497 0.30979 0.09692 0.0
Co798 Co 0.35739 0.33983 0.15574 0.0
C799 C 0.35172 0.34997 0.27693 0.0
O800 O 0.3372 0.33707 0.27696 0.0
N801 N 0.3299 0.34439 0.15891 0.0
C802 C 0.30147 0.36091 0.16384 0.0
C803 C 0.32025 0.35934 0.18518 0.0
C804 C 0.31681 0.33788 0.11979 0.0
N805 N 0.29948 0.34753 0.12219 0.0
O806 O 0.36022 0.36384 0.11312 0.0
H807 H 0.32689 0.36992 0.21364 0.0
H808 H 0.32043 0.32763 0.08625 0.0
O809 O 0.36137 0.3533 0.23069 0.0
C810 C 0.35805 0.35911 0.06086 0.0
O811 O 0.35355 0.3407 0.04891 0.0
N812 N 0.35533 0.31475 0.19167 0.0
C813 C 0.36211 0.27489 0.21565 0.0
C814 C 0.37147 0.2897 0.24726 0.0
C815 C 0.36802 0.30953 0.23434 0.0
C816 C 0.34534 0.30041 0.1628 0.0
C817 C 0.34823 0.28043 0.17479 0.0
H818 H 0.37712 0.32052 0.25481 0.0
H819 H 0.33672 0.30406 0.12613 0.0
H820 H 0.39681 0.3625 0.18369 0.0
H821 H 0.4233 0.31743 0.08736 0.0
H822 H 0.29086 0.3723 0.17411 0.0
H823 H 0.38249 0.28599 0.27878 0.0
H824 H 0.34114 0.26945 0.14828 0.0
C825 C 0.4326 0.64444 0.8439 0.0
C826 C 0.42854 0.6643 0.84028 0.0
N827 N 0.41187 0.66784 0.86982 0.0
N828 N 0.41858 0.63557 0.87575 0.0
C829 C 0.40616 0.65019 0.8911 0.0
H830 H 0.44442 0.63677 0.82228 0.0
Co831 Co 0.41486 0.60858 0.88137 0.0
C832 C 0.40504 0.60145 1.0026 0.0
O833 O 0.41784 0.58691 0.99996 0.0
N834 N 0.41029 0.58094 0.88338 0.0
C835 C 0.39278 0.553 0.88604 0.0
C836 C 0.39434 0.57192 0.90655 0.0
C837 C 0.41762 0.56725 0.84708 0.0
N838 N 0.40736 0.55014 0.84805 0.0
O839 O 0.39057 0.61152 0.8405 0.0
H840 H 0.38329 0.57913 0.93237 0.0
H841 H 0.42901 0.57027 0.81628 0.0
O842 O 0.4018 0.61188 0.9578 0.0
C843 C 0.39467 0.60865 0.788 0.0
O844 O 0.41279 0.60357 0.77463 0.0
N845 N 0.44021 0.60641 0.9148 0.0
C846 C 0.48037 0.61174 0.93783 0.0
C847 C 0.46595 0.62032 0.97279 0.0
C848 C 0.44595 0.61764 0.96026 0.0
C849 C 0.45419 0.59792 0.88091 0.0
C850 C 0.47424 0.59992 0.89248 0.0
H851 H 0.43526 0.62608 0.98413 0.0
H852 H 0.45014 0.59146 0.84099 0.0
H853 H 0.39248 0.64772 0.91391 0.0
H854 H 0.43686 0.6752 0.81635 0.0
H855 H 0.38077 0.54284 0.89454 0.0
H856 H 0.4701 0.62999 1.00743 0.0
H857 H 0.48488 0.59381 0.86287 0.0
C858 C 0.1112 0.68385 0.5945 0.0
C859 C 0.09159 0.68036 0.58384 0.0
N860 N 0.08692 0.66227 0.60409 0.0
N861 N 0.11881 0.66817 0.62201 0.0
C862 C 0.10374 0.65523 0.62707 0.0
H863 H 0.11961 0.69665 0.58112 0.0
Co864 Co 0.14531 0.66411 0.6365 0.0
C865 C 0.14437 0.65057 0.75741 0.0
O866 O 0.15858 0.6631 0.76952 0.0
N867 N 0.17234 0.65966 0.64639 0.0
C868 C 0.20093 0.64362 0.65253 0.0
C869 C 0.18213 0.64529 0.67457 0.0
C870 C 0.18539 0.66606 0.60689 0.0
N871 N 0.20279 0.65654 0.60923 0.0
O872 O 0.14405 0.64079 0.59125 0.0
H873 H 0.17556 0.63502 0.70434 0.0
H874 H 0.18156 0.67625 0.57335 0.0
O875 O 0.13838 0.64902 0.7059 0.0
C876 C 0.1467 0.64472 0.53871 0.0
O877 O 0.15081 0.66303 0.52416 0.0
N878 N 0.14605 0.68829 0.67728 0.0
C879 C 0.13876 0.72742 0.70827 0.0
C880 C 0.12814 0.71191 0.73344 0.0
C881 C 0.1318 0.69251 0.71681 0.0
C882 C 0.1574 0.70318 0.65545 0.0
C883 C 0.15416 0.72282 0.67085 0.0
H884 H 0.12176 0.68119 0.73158 0.0
H885 H 0.16772 0.70038 0.62171 0.0
H886 H 0.1053 0.64069 0.64569 0.0
H887 H 0.08179 0.69004 0.56063 0.0
H888 H 0.2116 0.63241 0.66369 0.0
H889 H 0.11605 0.71484 0.76246 0.0
H890 H 0.16242 0.73438 0.64945 0.0
C891 C 0.07513 0.36724 0.33366 0.0
C892 C 0.07931 0.34765 0.32409 0.0
N893 N 0.09483 0.34263 0.3567 0.0
N894 N 0.08789 0.37445 0.37225 0.0
C895 C 0.09978 0.35916 0.38537 0.0
H896 H 0.0637 0.37581 0.31328 0.0
Co897 Co 0.08916 0.40068 0.39374 0.0
C898 C 0.10091 0.39817 0.516 0.0
O899 O 0.08685 0.41079 0.52854 0.0
N900 N 0.09073 0.42779 0.41149 0.0
C901 C 0.10319 0.45739 0.43269 0.0
C902 C 0.10403 0.43747 0.44403 0.0
C903 C 0.08264 0.4422 0.37918 0.0
N904 N 0.08987 0.46028 0.39131 0.0
O905 O 0.11308 0.40294 0.35128 0.0
H906 H 0.1152 0.43058 0.46989 0.0
H907 H 0.07294 0.43937 0.34372 0.0
O908 O 0.10383 0.39334 0.46383 0.0
C909 C 0.10966 0.40734 0.29945 0.0
O910 O 0.09164 0.41253 0.28557 0.0
N911 N 0.06448 0.39754 0.43072 0.0
C912 C 0.02634 0.38345 0.45239 0.0
C913 C 0.04262 0.37551 0.48089 0.0
C914 C 0.06151 0.3823 0.46822 0.0
C915 C 0.04865 0.40637 0.40564 0.0
C916 C 0.02945 0.39964 0.41609 0.0
H917 H 0.07371 0.37379 0.48431 0.0
H918 H 0.05084 0.41721 0.37266 0.0
H919 H 0.11219 0.36028 0.414 0.0
H920 H 0.07148 0.33786 0.29563 0.0
H921 H 0.11304 0.46858 0.44926 0.0
H922 H 0.04098 0.36305 0.50951 0.0
H923 H 0.01741 0.40596 0.39204 0.0
C924 C 0.39298 0.68835 0.43131 0.0
C925 C 0.41252 0.68416 0.44081 0.0
N926 N 0.4161 0.66559 0.42276 0.0
N927 N 0.38435 0.67259 0.40685 0.0
C928 C 0.39875 0.659 0.40207 0.0
H929 H 0.38529 0.70161 0.44415 0.0
Co930 Co 0.35758 0.66865 0.39686 0.0
C931 C 0.36391 0.63742 0.30623 0.0
O932 O 0.36115 0.62258 0.34147 0.0
N933 N 0.33061 0.66453 0.3893 0.0
C934 C 0.29996 0.65667 0.3645 0.0
C935 C 0.31901 0.65967 0.3449 0.0
C936 C 0.3184 0.6647 0.43459 0.0
N937 N 0.29981 0.65964 0.42122 0.0
O938 O 0.35949 0.64501 0.44244 0.0
H939 H 0.32408 0.65795 0.30151 0.0
H940 H 0.32304 0.66849 0.47706 0.0
O941 O 0.36269 0.6551 0.32463 0.0
C942 C 0.35931 0.65013 0.49482 0.0
O943 O 0.3579 0.66903 0.50691 0.0
N944 N 0.35588 0.69271 0.35796 0.0
C945 C 0.36107 0.73224 0.32756 0.0
C946 C 0.37111 0.71719 0.29837 0.0
C947 C 0.36831 0.6975 0.31421 0.0
C948 C 0.34494 0.70693 0.38407 0.0
C949 C 0.3471 0.72677 0.369 0.0
H950 H 0.37768 0.68643 0.29524 0.0
H951 H 0.33559 0.70309 0.41978 0.0
H952 H 0.39626 0.64425 0.38606 0.0
H953 H 0.42293 0.69367 0.46233 0.0
H954 H 0.28743 0.65204 0.33941 0.0
H955 H 0.3823 0.72061 0.26685 0.0
H956 H 0.33875 0.73779 0.39204 0.0
C957 C 0.06156 0.63947 0.21863 0.0
C958 C 0.06356 0.65931 0.22932 0.0
N959 N 0.08029 0.66569 0.20419 0.0
N960 N 0.07676 0.63341 0.18599 0.0
C961 C 0.08811 0.64966 0.17846 0.0
H962 H 0.04985 0.62996 0.23398 0.0
Co963 Co 0.08063 0.60727 0.16453 0.0
C964 C 0.0912 0.61159 0.04182 0.0
O965 O 0.07712 0.599 0.029 0.0
N966 N 0.08492 0.58038 0.14729 0.0
C967 C 0.09816 0.55148 0.12247 0.0
C968 C 0.09708 0.57132 0.10976 0.0
C969 C 0.07955 0.56575 0.1835 0.0
N970 N 0.08722 0.54808 0.16928 0.0
O971 O 0.10482 0.60754 0.20551 0.0
H972 H 0.10613 0.57864 0.0783 0.0
H973 H 0.07095 0.56818 0.22163 0.0
O974 O 0.09435 0.61595 0.09413 0.0
C975 C 0.10202 0.60335 0.25783 0.0
O976 O 0.08417 0.59828 0.27428 0.0
N977 N 0.05555 0.60744 0.12836 0.0
C978 C 0.01547 0.61497 0.10956 0.0
C979 C 0.03007 0.62724 0.08584 0.0
C980 C 0.04997 0.62323 0.09569 0.0
C981 C 0.04156 0.59467 0.14845 0.0
C982 C 0.02154 0.59793 0.1386 0.0
H983 H 0.06075 0.63401 0.08188 0.0
H984 H 0.04547 0.58282 0.17662 0.0
H985 H 0.10183 0.64972 0.15475 0.0
H986 H 0.0537 0.66827 0.25471 0.0
H987 H 0.10754 0.54074 0.10174 0.0
H988 H 0.02624 0.64078 0.06394 0.0
H989 H 0.01089 0.58781 0.15697 0.0
C990 C 0.112 0.31509 0.97333 0.0
C991 C 0.09202 0.31634 0.98225 0.0
N992 N 0.08544 0.33289 0.9567 0.0
N993 N 0.11795 0.33061 0.94157 0.0
C994 C 0.10149 0.34133 0.93251 0.0
H995 H 0.12171 0.30378 0.98967 0.0
Co996 Co 0.14406 0.33593 0.92361 0.0
C997 C 0.14117 0.34695 0.80084 0.0
O998 O 0.15454 0.33358 0.78853 0.0
N999 N 0.17076 0.34159 0.91011 0.0
C1000 C 0.19963 0.35633 0.89252 0.0
C1001 C 0.18047 0.35389 0.87409 0.0
C1002 C 0.18419 0.33735 0.95053 0.0
N1003 N 0.20173 0.34604 0.94103 0.0
O1004 O 0.14209 0.36002 0.96572 0.0
H1005 H 0.17385 0.36224 0.84003 0.0
H1006 H 0.18082 0.32896 0.98854 0.0
O1007 O 0.13597 0.34956 0.85283 0.0
C1008 C 0.14508 0.35714 1.01866 0.0
O1009 O 0.1492 0.33916 0.03598 0.0
N1010 N 0.14572 0.31105 0.88653 0.0
C1011 C 0.14077 0.27068 0.86492 0.0
C1012 C 0.1281 0.28469 0.84049 0.0
C1013 C 0.13082 0.30476 0.85177 0.0
C1014 C 0.15891 0.2977 0.90741 0.0
C1015 C 0.15693 0.27756 0.89626 0.0
H1016 H 0.11972 0.315 0.83717 0.0
H1017 H 0.17011 0.30216 0.93698 0.0
H1018 H 0.10135 0.35512 0.90916 0.0
H1019 H 0.08314 0.30617 1.00708 0.0
H1020 H 0.21053 0.3663 0.87469 0.0
H1021 H 0.11517 0.2802 0.81684 0.0
H1022 H 0.1673 0.26738 0.9153 0.0
C1023 C 0.44456 0.35725 0.70934 0.0
C1024 C 0.44265 0.33731 0.71855 0.0
N1025 N 0.42471 0.33159 0.70025 0.0
N1026 N 0.42802 0.36409 0.68462 0.0
C1027 C 0.41611 0.34815 0.6799 0.0
H1028 H 0.457 0.36633 0.72144 0.0
Co1029 Co 0.42272 0.39056 0.67041 0.0
C1030 C 0.39206 0.38581 0.5797 0.0
O1031 O 0.37824 0.39362 0.6118 0.0
N1032 N 0.41753 0.41722 0.65819 0.0
C1033 C 0.41251 0.44749 0.62423 0.0
C1034 C 0.41605 0.428 0.61 0.0
C1035 C 0.41511 0.43035 0.70059 0.0
N1036 N 0.41179 0.44878 0.68142 0.0
O1037 O 0.3991 0.38815 0.71539 0.0
H1038 H 0.4176 0.42214 0.56743 0.0
H1039 H 0.41632 0.42665 0.74511 0.0
O1040 O 0.40943 0.3837 0.59944 0.0
C1041 C 0.40376 0.38951 0.76788 0.0
O1042 O 0.42242 0.3922 0.78082 0.0
N1043 N 0.44669 0.39289 0.63171 0.0
C1044 C 0.48628 0.38834 0.60373 0.0
C1045 C 0.47162 0.37839 0.57291 0.0
C1046 C 0.45187 0.38071 0.58795 0.0
C1047 C 0.46054 0.40407 0.65861 0.0
C1048 C 0.4805 0.40209 0.64508 0.0
H1049 H 0.44111 0.37114 0.56844 0.0
H1050 H 0.45629 0.41318 0.69434 0.0
H1051 H 0.40132 0.3488 0.66289 0.0
H1052 H 0.45337 0.32789 0.73915 0.0
H1053 H 0.41049 0.45966 0.59491 0.0
H1054 H 0.47549 0.36771 0.54048 0.0
H1055 H 0.49134 0.40989 0.67031 0.0
H1056 H 0.10311 0.09813 0.10664 0.0
H1057 H 0.12762 0.13911 0.98426 0.0
H1058 H 0.14264 0.15804 0.06149 0.0
H1059 H 0.14766 0.16367 0.16396 0.0
H1060 H 0.12193 0.12327 0.28591 0.0
H1061 H 0.10852 0.10342 0.20844 0.0
C1062 C 0.11188 0.1111 0.09659 0.0
C1063 C 0.11424 0.11713 0.03949 0.0
C1064 C 0.12016 0.12209 0.14122 0.0
C1065 C 0.12556 0.13408 0.02767 0.0
C1066 C 0.13412 0.14495 0.07187 0.0
C1067 C 0.13922 0.15046 0.17369 0.0
C1068 C 0.13584 0.14499 0.23087 0.0
C1069 C 0.13134 0.13921 0.12885 0.0
C1070 C 0.12477 0.12787 0.24246 0.0
C1071 C 0.11709 0.11649 0.19812 0.0
H1072 H 0.10303 0.9001 0.45141 0.0
H1073 H 0.12837 0.85843 0.56957 0.0
H1074 H 0.14392 0.8409 0.49005 0.0
H1075 H 0.14945 0.83686 0.3868 0.0
H1076 H 0.12274 0.87779 0.26903 0.0
H1077 H 0.10853 0.89612 0.34885 0.0
C1078 C 0.11208 0.88727 0.46017 0.0
C1079 C 0.11457 0.88071 0.5169 0.0
C1080 C 0.12063 0.87706 0.41415 0.0
C1081 C 0.12623 0.86392 0.52671 0.0
C1082 C 0.13508 0.85385 0.48111 0.0
C1083 C 0.1406 0.84985 0.3784 0.0
C1084 C 0.13727 0.85594 0.32159 0.0
C1085 C 0.13225 0.8602 0.42462 0.0
C1086 C 0.1256 0.87273 0.31198 0.0
C1087 C 0.11747 0.88323 0.35772 0.0
H1088 H 0.35039 0.84673 0.67334 0.0
H1089 H 0.3831 0.88078 0.79643 0.0
H1090 H 0.39929 0.89899 0.71941 0.0
H1091 H 0.40511 0.90441 0.61747 0.0
H1092 H 0.37294 0.87001 0.49401 0.0
H1093 H 0.35552 0.85287 0.57098 0.0
C1094 C 0.36098 0.85821 0.68349 0.0
C1095 C 0.36551 0.86232 0.74089 0.0
C1096 C 0.37037 0.86855 0.63888 0.0
C1097 C 0.3793 0.87726 0.75288 0.0
C1098 C 0.38859 0.88768 0.70877 0.0
C1099 C 0.39419 0.89326 0.60713 0.0
C1100 C 0.39044 0.8885 0.54968 0.0
C1101 C 0.38437 0.88333 0.65164 0.0
C1102 C 0.37621 0.87399 0.53757 0.0
C1103 C 0.36625 0.86414 0.58168 0.0
H1104 H 0.38556 0.14229 0.81298 0.0
H1105 H 0.32327 0.147 0.84793 0.0
H1106 H 0.32852 0.13659 0.94586 0.0
H1107 H 0.35086 0.12864 1.02456 0.0
H1108 H 0.41309 0.12275 0.99083 0.0
H1109 H 0.40785 0.13119 0.89113 0.0
C1110 C 0.37312 0.14057 0.84171 0.0
C1111 C 0.35403 0.14548 0.82275 0.0
C1112 C 0.37626 0.13478 0.89913 0.0
C1113 C 0.33814 0.14341 0.86112 0.0
C1114 C 0.34112 0.13753 0.91747 0.0
C1115 C 0.36332 0.12911 0.99552 0.0
C1116 C 0.38246 0.12561 1.01641 0.0
C1117 C 0.36015 0.13364 0.93749 0.0
C1118 C 0.39827 0.12603 0.9772 0.0
C1119 C 0.39525 0.13067 0.91959 0.0
H1120 H 0.85163 0.84605 0.87005 0.0
H1121 H 0.88487 0.88074 0.74855 0.0
H1122 H 0.90201 0.89732 0.8264 0.0
H1123 H 0.90821 0.90135 0.9285 0.0
H1124 H 0.87556 0.86626 0.05028 0.0
H1125 H 0.85749 0.85049 0.97256 0.0
C1126 C 0.86255 0.85732 0.86044 0.0
C1127 C 0.86692 0.86212 0.80326 0.0
C1128 C 0.87249 0.86668 0.90547 0.0
C1129 C 0.88117 0.87673 0.79194 0.0
C1130 C 0.891 0.88621 0.83651 0.0
C1131 C 0.89709 0.89031 0.93828 0.0
C1132 C 0.89328 0.88502 0.9954 0.0
C1133 C 0.88688 0.88121 0.89338 0.0
C1134 C 0.87881 0.87065 1.0069 0.0
C1135 C 0.86848 0.86161 0.9624 0.0
H1136 H 0.86743 0.10178 0.75805 0.0
H1137 H 0.86819 0.16482 0.73171 0.0
H1138 H 0.87938 0.16019 0.63394 0.0
H1139 H 0.89102 0.13806 0.55622 0.0
H1140 H 0.89013 0.07511 0.58425 0.0
H1141 H 0.8766 0.07985 0.67937 0.0
C1142 C 0.86993 0.11454 0.73095 0.0
C1143 C 0.8674 0.13365 0.75326 0.0
C1144 C 0.87626 0.11176 0.67424 0.0
C1145 C 0.87057 0.14993 0.7168 0.0
C1146 C 0.87681 0.14729 0.66036 0.0
C1147 C 0.88744 0.12543 0.5828 0.0
C1148 C 0.89158 0.10625 0.56302 0.0
C1149 C 0.88 0.12827 0.63863 0.0
C1150 C 0.88714 0.09003 0.59842 0.0
C1151 C 0.87946 0.09272 0.65306 0.0
H1152 H 0.65722 0.15721 0.3731 0.0
H1153 H 0.62066 0.12541 0.25413 0.0
H1154 H 0.60341 0.10941 0.33377 0.0
H1155 H 0.59797 0.10539 0.43707 0.0
H1156 H 0.63364 0.13846 0.55542 0.0
H1157 H 0.65198 0.15306 0.47581 0.0
C1158 C 0.64559 0.14666 0.36421 0.0
C1159 C 0.64036 0.1425 0.30719 0.0
C1160 C 0.6355 0.13783 0.41022 0.0
C1161 C 0.6251 0.12888 0.29721 0.0
C1162 C 0.61519 0.11976 0.34287 0.0
C1163 C 0.60983 0.11571 0.4457 0.0
C1164 C 0.61442 0.12073 0.50261 0.0
C1165 C 0.62015 0.12426 0.39955 0.0
C1166 C 0.62976 0.13426 0.51242 0.0
C1167 C 0.64026 0.14263 0.46679 0.0
H1168 H 0.65221 0.84652 0.17272 0.0
H1169 H 0.61801 0.88058 0.29266 0.0
H1170 H 0.60125 0.89716 0.2141 0.0
H1171 H 0.59538 0.90106 0.11157 0.0
H1172 H 0.62932 0.86669 0.99172 0.0
H1173 H 0.64716 0.85126 0.07018 0.0
C1174 C 0.64118 0.85765 0.18184 0.0
C1175 C 0.63634 0.8622 0.23873 0.0
C1176 C 0.63151 0.86706 0.13643 0.0
C1177 C 0.62201 0.87671 0.24946 0.0
C1178 C 0.6124 0.8862 0.20449 0.0
C1179 C 0.60676 0.89028 0.10244 0.0
C1180 C 0.61092 0.88502 0.04563 0.0
C1181 C 0.61689 0.88135 0.14783 0.0
C1182 C 0.62575 0.87103 0.03488 0.0
C1183 C 0.63596 0.86216 0.07979 0.0
H1184 H 0.65172 0.61372 0.54803 0.0
H1185 H 0.58871 0.61764 0.57047 0.0
H1186 H 0.59313 0.62821 0.66867 0.0
H1187 H 0.61513 0.63859 0.7475 0.0
H1188 H 0.67806 0.63507 0.72349 0.0
H1189 H 0.67346 0.62173 0.62811 0.0
C1190 C 0.63894 0.61677 0.57443 0.0
C1191 C 0.61993 0.61532 0.55102 0.0
C1192 C 0.64158 0.62281 0.6313 0.0
C1193 C 0.60356 0.61919 0.5864 0.0
C1194 C 0.60606 0.62507 0.64303 0.0
C1195 C 0.62776 0.63443 0.72177 0.0
C1196 C 0.6469 0.63774 0.74258 0.0
C1197 C 0.62502 0.62724 0.66587 0.0
C1198 C 0.66316 0.63265 0.70837 0.0
C1199 C 0.66056 0.62511 0.65365 0.0
H1200 H 0.6535 0.34835 0.87595 0.0
H1201 H 0.61723 0.3789 0.75355 0.0
H1202 H 0.59973 0.39553 0.83089 0.0
H1203 H 0.59418 0.40079 0.9331 0.0
H1204 H 0.62984 0.3696 0.05565 0.0
H1205 H 0.64813 0.35384 0.97825 0.0
C1206 C 0.64184 0.35873 0.86602 0.0
C1207 C 0.63675 0.36237 0.80878 0.0
C1208 C 0.63169 0.36808 0.91077 0.0
C1209 C 0.62151 0.3758 0.79703 0.0
C1210 C 0.61147 0.38531 0.84131 0.0
C1211 C 0.60601 0.39061 0.94306 0.0
C1212 C 0.61062 0.38644 1.00034 0.0
C1213 C 0.61635 0.38147 0.89832 0.0
C1214 C 0.62595 0.37312 1.01212 0.0
C1215 C 0.63642 0.36409 0.96782 0.0
H1216 H 0.9078 0.40421 0.12212 0.0
H1217 H 0.87562 0.37054 0.99701 0.0
H1218 H 0.85848 0.3527 0.07311 0.0
H1219 H 0.85351 0.34581 0.17483 0.0
H1220 H 0.88635 0.37882 0.29997 0.0
H1221 H 0.90232 0.3978 0.22397 0.0
C1222 C 0.89694 0.39308 0.11128 0.0
C1223 C 0.89306 0.38876 0.0536 0.0
C1224 C 0.88731 0.38269 0.15531 0.0
C1225 C 0.87896 0.3742 0.04079 0.0
C1226 C 0.86915 0.36396 0.08437 0.0
C1227 C 0.86409 0.35721 0.18572 0.0
C1228 C 0.86871 0.36082 0.24334 0.0
C1229 C 0.87335 0.36795 0.14175 0.0
C1230 C 0.88249 0.37568 0.25622 0.0
C1231 C 0.89164 0.38654 0.2127 0.0
H1232 H 0.85101 0.66441 0.37226 0.0
H1233 H 0.88364 0.6279 0.25475 0.0
H1234 H 0.89847 0.61021 0.33491 0.0
H1235 H 0.90268 0.60561 0.43806 0.0
H1236 H 0.8709 0.64291 0.55545 0.0
H1237 H 0.85512 0.65973 0.47532 0.0
C1238 C 0.86131 0.65253 0.36391 0.0
C1239 C 0.86613 0.64749 0.30717 0.0
C1240 C 0.86991 0.64256 0.41024 0.0
C1241 C 0.8796 0.6321 0.29768 0.0
C1242 C 0.8881 0.62198 0.3436 0.0
C1243 C 0.89219 0.61733 0.44639 0.0
C1244 C 0.88794 0.62289 0.50311 0.0
C1245 C 0.88341 0.62713 0.40003 0.0
C1246 C 0.87442 0.63824 0.51255 0.0
C1247 C 0.86543 0.6479 0.46665 0.0
H1248 H 0.35616 0.38198 0.5284 0.0
H1249 H 0.41854 0.37751 0.49462 0.0
H1250 H 0.41186 0.3679 0.39657 0.0
H1251 H 0.38809 0.35913 0.32052 0.0
H1252 H 0.32582 0.36232 0.35653 0.0
H1253 H 0.33261 0.37435 0.45233 0.0
C1254 C 0.36831 0.37898 0.4996 0.0
C1255 C 0.38783 0.38027 0.5195 0.0
C1256 C 0.36436 0.37333 0.44304 0.0
C1257 C 0.40335 0.37633 0.48119 0.0
C1258 C 0.39955 0.37094 0.42472 0.0
C1259 C 0.37607 0.36284 0.3491 0.0
C1260 C 0.35648 0.35996 0.33133 0.0
C1261 C 0.3801 0.36921 0.40516 0.0
C1262 C 0.34103 0.36444 0.36919 0.0
C1263 C 0.34489 0.37125 0.42412 0.0
H1264 H 0.39028 0.63644 0.04567 0.0
H1265 H 0.39773 0.57466 0.08536 0.0
H1266 H 0.38499 0.58002 0.18098 0.0
H1267 H 0.37352 0.60235 0.25596 0.0
H1268 H 0.36654 0.66436 0.21888 0.0
H1269 H 0.37723 0.65884 0.12079 0.0
C1270 C 0.38883 0.62414 0.07504 0.0
C1271 C 0.39503 0.60517 0.05812 0.0
C1272 C 0.38176 0.62739 0.13108 0.0
C1273 C 0.39322 0.58945 0.09711 0.0
C1274 C 0.38593 0.59248 0.15205 0.0
C1275 C 0.37418 0.61467 0.22644 0.0
C1276 C 0.36937 0.63378 0.24543 0.0
C1277 C 0.38046 0.61142 0.16993 0.0
C1278 C 0.37037 0.6495 0.20608 0.0
C1279 C 0.37644 0.64635 0.14966 0.0
H1280 H 0.08817 0.60473 0.92802 0.0
H1281 H 0.12204 0.63774 0.05082 0.0
H1282 H 0.142 0.65191 0.97394 0.0
H1283 H 0.14934 0.65551 0.87173 0.0
H1284 H 0.11493 0.62297 0.74912 0.0
H1285 H 0.0958 0.60794 0.82621 0.0
C1286 C 0.09994 0.615 0.93817 0.0
C1287 C 0.10354 0.62015 0.99537 0.0
C1288 C 0.11131 0.62315 0.89372 0.0
C1289 C 0.11889 0.63349 1.00736 0.0
C1290 C 0.13033 0.6416 0.96335 0.0
C1291 C 0.13777 0.645 0.86174 0.0
C1292 C 0.13366 0.64037 0.80445 0.0
C1293 C 0.12663 0.63659 0.90635 0.0
C1294 C 0.11849 0.62681 0.79263 0.0
C1295 C 0.10749 0.61824 0.83676 0.0
H1296 H 0.14911 0.34464 0.6872 0.0
H1297 H 0.11327 0.37607 0.80913 0.0
H1298 H 0.09841 0.39517 0.73203 0.0
H1299 H 0.095 0.4024 0.63006 0.0
H1300 H 0.13037 0.37056 0.50788 0.0
H1301 H 0.14608 0.35226 0.5852 0.0
C1302 C 0.13809 0.3557 0.6971 0.0
C1303 C 0.13234 0.35886 0.75414 0.0
C1304 C 0.12953 0.36658 0.65247 0.0
C1305 C 0.11801 0.37328 0.76582 0.0
C1306 C 0.10949 0.38422 0.72168 0.0
C1307 C 0.10624 0.39156 0.62016 0.0
C1308 C 0.11147 0.38791 0.56296 0.0
C1309 C 0.11507 0.38094 0.66484 0.0
C1310 C 0.12603 0.37373 0.55131 0.0
C1311 C 0.135 0.36321 0.59558 0.0
H1312 H 0.16007 0.14591 0.60271 0.0
H1313 H 0.12253 0.11464 0.48545 0.0
H1314 H 0.10813 0.09584 0.56445 0.0
H1315 H 0.10214 0.09301 0.66743 0.0
H1316 H 0.13875 0.12549 0.78462 0.0
H1317 H 0.15785 0.13892 0.70503 0.0
C1318 C 0.1491 0.13459 0.59439 0.0
C1319 C 0.14212 0.13182 0.53867 0.0
C1320 C 0.14055 0.12431 0.64006 0.0
C1321 C 0.12812 0.11699 0.52805 0.0
C1322 C 0.11975 0.10641 0.57328 0.0
C1323 C 0.11456 0.10271 0.67557 0.0
C1324 C 0.11882 0.10857 0.73164 0.0
C1325 C 0.12519 0.11066 0.62959 0.0
C1326 C 0.13514 0.12085 0.74179 0.0
C1327 C 0.14598 0.12863 0.69628 0.0
H1328 H 0.13377 0.87653 0.8033 0.0
H1329 H 0.08287 0.9014 0.88716 0.0
H1330 H 0.09728 0.89468 0.97971 0.0
H1331 H 0.12215 0.87749 0.03739 0.0
H1332 H 0.17254 0.85157 0.95436 0.0
H1333 H 0.16094 0.86336 0.86205 0.0
C1334 C 0.12604 0.88082 0.8418 0.0
C1335 C 0.10711 0.88912 0.83798 0.0
C1336 C 0.13436 0.87672 0.89556 0.0
C1337 C 0.09733 0.89466 0.88852 0.0
C1338 C 0.10558 0.89088 0.94178 0.0
C1339 C 0.13095 0.87513 0.99936 0.0
C1340 C 0.14819 0.86376 1.00267 0.0
C1341 C 0.12381 0.88135 0.94596 0.0
C1342 C 0.15922 0.86038 0.95281 0.0
C1343 C 0.1525 0.86695 0.89988 0.0
H1344 H 0.33733 0.86038 0.11547 0.0
H1345 H 0.37412 0.89146 0.99457 0.0
H1346 H 0.38995 0.90939 0.07225 0.0
H1347 H 0.39702 0.91194 0.17444 0.0
H1348 H 0.36118 0.87992 0.29555 0.0
H1349 H 0.34105 0.86686 0.21788 0.0
C1350 C 0.34849 0.87143 0.10604 0.0
C1351 C 0.35473 0.8744 0.0494 0.0
C1352 C 0.35784 0.88132 0.15102 0.0
C1353 C 0.36903 0.8889 0.03772 0.0
C1354 C 0.37822 0.89902 0.08221 0.0
C1355 C 0.38453 0.90243 0.18391 0.0
C1356 C 0.38074 0.89666 0.24052 0.0
C1357 C 0.37332 0.8947 0.13903 0.0
C1358 C 0.36438 0.88457 0.25234 0.0
C1359 C 0.35298 0.87698 0.20788 0.0
H1360 H 0.36888 0.13141 0.29168 0.0
H1361 H 0.41248 0.09285 0.36511 0.0
H1362 H 0.39961 0.09923 0.46012 0.0
H1363 H 0.37964 0.1202 0.52395 0.0
H1364 H 0.33644 0.15921 0.4508 0.0
H1365 H 0.34504 0.14801 0.35541 0.0
C1366 C 0.37511 0.12394 0.32831 0.0
C1367 C 0.39179 0.11192 0.32124 0.0
C1368 C 0.36783 0.12797 0.38355 0.0
C1369 C 0.39978 0.10243 0.36936 0.0
C1370 C 0.39246 0.10609 0.42395 0.0
C1371 C 0.37165 0.12567 0.48727 0.0
C1372 C 0.35755 0.14061 0.49451 0.0
C1373 C 0.37702 0.11949 0.43193 0.0
C1374 C 0.34748 0.14777 0.44635 0.0
C1375 C 0.35246 0.14146 0.39158 0.0
H1376 H 0.89751 0.91505 0.36886 0.0
H1377 H 0.86221 0.88235 0.24877 0.0
H1378 H 0.84234 0.869 0.32685 0.0
H1379 H 0.83852 0.8626 0.42917 0.0
H1380 H 0.87497 0.8939 0.54938 0.0
H1381 H 0.89062 0.9121 0.4713 0.0
C1382 C 0.88522 0.9053 0.35962 0.0
C1383 C 0.88156 0.89946 0.30306 0.0
C1384 C 0.87417 0.8973 0.40483 0.0
C1385 C 0.86542 0.88703 0.29182 0.0
C1386 C 0.85413 0.87928 0.33654 0.0
C1387 C 0.8496 0.87372 0.4384 0.0
C1388 C 0.85575 0.87671 0.49495 0.0
C1389 C 0.85889 0.8837 0.39323 0.0
C1390 C 0.86995 0.89131 0.50631 0.0
C1391 C 0.87903 0.90159 0.46158 0.0
H1392 H 0.89448 0.09173 0.18279 0.0
H1393 H 0.86223 0.12947 0.29776 0.0
H1394 H 0.84484 0.14421 0.21711 0.0
H1395 H 0.84259 0.14974 0.11387 0.0
H1396 H 0.87581 0.113 0.99864 0.0
H1397 H 0.88881 0.09422 0.0795 0.0
C1398 C 0.88337 0.10293 0.19035 0.0
C1399 C 0.87984 0.10968 0.24628 0.0
C1400 C 0.87374 0.1116 0.14365 0.0
C1401 C 0.86524 0.12401 0.25532 0.0
C1402 C 0.8554 0.13254 0.20911 0.0
C1403 C 0.85236 0.13734 0.10636 0.0
C1404 C 0.8584 0.13287 0.05034 0.0
C1405 C 0.86009 0.12696 0.15307 0.0
C1406 C 0.87088 0.11667 0.04122 0.0
C1407 C 0.87846 0.10607 0.08754 0.0
H1408 H 0.63666 0.13209 0.78735 0.0
H1409 H 0.59845 0.09045 0.87264 0.0
H1410 H 0.6126 0.09934 0.96433 0.0
H1411 H 0.63204 0.12271 1.02188 0.0
H1412 H 0.66955 0.16504 0.93682 0.0
H1413 H 0.65985 0.15199 0.84442 0.0
C1414 C 0.63191 0.12455 0.82581 0.0
C1415 C 0.61639 0.1108 0.82317 0.0
C1416 C 0.63982 0.13007 0.87897 0.0
C1417 C 0.61025 0.10127 0.87355 0.0
C1418 C 0.61829 0.10638 0.92618 0.0
C1419 C 0.63854 0.12863 0.98319 0.0
C1420 C 0.65133 0.14495 0.98631 0.0
C1421 C 0.63253 0.12133 0.92975 0.0
C1422 C 0.65949 0.15259 0.93563 0.0
C1423 C 0.6539 0.14518 0.8826 0.0
H1424 H 0.60784 0.9131 0.67339 0.0
H1425 H 0.64336 0.87966 0.79107 0.0
H1426 H 0.66399 0.86811 0.71234 0.0
H1427 H 0.66774 0.86272 0.60955 0.0
H1428 H 0.63077 0.89455 0.49183 0.0
H1429 H 0.61519 0.91192 0.5711 0.0
C1430 C 0.62037 0.90362 0.68194 0.0
C1431 C 0.62386 0.89692 0.73776 0.0
C1432 C 0.63177 0.89663 0.63636 0.0
C1433 C 0.64032 0.88495 0.74846 0.0
C1434 C 0.65202 0.87823 0.70337 0.0
C1435 C 0.65661 0.87382 0.60113 0.0
C1436 C 0.65014 0.87707 0.54498 0.0
C1437 C 0.64727 0.88324 0.64701 0.0
C1438 C 0.63595 0.89171 0.53462 0.0
C1439 C 0.6269 0.90151 0.58002 0.0
H1440 H 0.66292 0.64146 0.11917 0.0
H1441 H 0.6243 0.60902 1.00731 0.0
H1442 H 0.60982 0.59194 0.08925 0.0
H1443 H 0.6044 0.59056 0.19258 0.0
H1444 H 0.64179 0.62418 0.30474 0.0
H1445 H 0.66079 0.63622 0.22275 0.0
C1446 C 0.65161 0.63035 0.11258 0.0
C1447 C 0.64446 0.62675 0.05723 0.0
C1448 C 0.64304 0.62096 0.16001 0.0
C1449 C 0.63002 0.61212 0.04935 0.0
C1450 C 0.62164 0.60246 0.09628 0.0
C1451 C 0.61702 0.60017 0.19916 0.0
C1452 C 0.62157 0.60669 0.2545 0.0
C1453 C 0.62746 0.6074 0.15181 0.0
C1454 C 0.63805 0.61892 0.26261 0.0
C1455 C 0.64877 0.62596 0.21566 0.0
H1456 H 0.66188 0.3573 0.43358 0.0
H1457 H 0.62799 0.39132 0.55424 0.0
H1458 H 0.6143 0.41098 0.47646 0.0
H1459 H 0.60828 0.41497 0.3741 0.0
H1460 H 0.64095 0.37977 0.25347 0.0
H1461 H 0.65911 0.36434 0.3314 0.0
C1462 C 0.65175 0.36924 0.44299 0.0
C1463 C 0.64572 0.37264 0.49954 0.0
C1464 C 0.64365 0.38017 0.39802 0.0
C1465 C 0.63283 0.38835 0.51111 0.0
C1466 C 0.62491 0.39951 0.4666 0.0
C1467 C 0.61968 0.40422 0.36477 0.0
C1468 C 0.62309 0.39833 0.30813 0.0
C1469 C 0.62966 0.39504 0.40984 0.0
C1470 C 0.63804 0.38457 0.29664 0.0
C1471 C 0.6483 0.37561 0.34126 0.0
H1472 H 0.90079 0.41201 0.6784 0.0
H1473 H 0.86585 0.37841 0.79819 0.0
H1474 H 0.84749 0.36355 0.71961 0.0
H1475 H 0.84509 0.3564 0.61729 0.0
H1476 H 0.88078 0.38917 0.49751 0.0
H1477 H 0.89496 0.40834 0.57565 0.0
C1478 C 0.88886 0.40175 0.68734 0.0
C1479 C 0.88481 0.39613 0.74397 0.0
C1480 C 0.87867 0.393 0.64193 0.0
C1481 C 0.8692 0.38301 0.75503 0.0
C1482 C 0.85883 0.37438 0.71006 0.0
C1483 C 0.85567 0.36804 0.60821 0.0
C1484 C 0.86206 0.37124 0.55183 0.0
C1485 C 0.86398 0.3787 0.65339 0.0
C1486 C 0.87559 0.38648 0.5405 0.0
C1487 C 0.88382 0.39731 0.58524 0.0
H1488 H 0.86446 0.62716 0.78989 0.0
H1489 H 0.91053 0.59431 0.87351 0.0
H1490 H 0.89664 0.60235 0.96612 0.0
H1491 H 0.87444 0.62293 1.02401 0.0
H1492 H 0.82862 0.65616 0.94096 0.0
H1493 H 0.83899 0.64346 0.84855 0.0
C1494 C 0.87114 0.62137 0.82831 0.0
C1495 C 0.88871 0.61047 0.82457 0.0
C1496 C 0.86319 0.62625 0.88205 0.0
C1497 C 0.89716 0.60304 0.87496 0.0
C1498 C 0.88924 0.60762 0.92821 0.0
C1499 C 0.86633 0.62683 0.98592 0.0
C1500 C 0.85092 0.64059 0.98933 0.0
C1501 C 0.87268 0.61983 0.93245 0.0
C1502 C 0.84067 0.64568 0.9394 0.0
C1503 C 0.84665 0.63852 0.88638 0.0
H1504 H 0.3453 0.35714 0.95259 0.0
H1505 H 0.38476 0.38955 0.06185 0.0
H1506 H 0.40082 0.40419 0.97823 0.0
H1507 H 0.40698 0.4033 0.87508 0.0
H1508 H 0.36847 0.3697 0.76594 0.0
H1509 H 0.34847 0.36009 0.84862 0.0
C1510 C 0.35713 0.36779 0.95809 0.0
C1511 C 0.36402 0.37211 1.01322 0.0
C1512 C 0.3666 0.37564 0.90989 0.0
C1513 C 0.37916 0.38606 1.01992 0.0
C1514 C 0.38848 0.39424 0.97208 0.0
C1515 C 0.39401 0.39413 0.86927 0.0
C1516 C 0.38936 0.38691 0.81469 0.0
C1517 C 0.38286 0.38844 0.917 0.0
C1518 C 0.37235 0.37537 0.80752 0.0
C1519 C 0.36101 0.36979 0.85483 0.0
H1520 H 0.39575 0.59494 0.68028 0.0
H1521 H 0.36382 0.63476 0.78993 0.0
H1522 H 0.34756 0.64927 0.70684 0.0
H1523 H 0.34669 0.65407 0.60305 0.0
H1524 H 0.37972 0.61522 0.49329 0.0
H1525 H 0.39115 0.59663 0.57653 0.0
C1526 C 0.3849 0.60652 0.6861 0.0
C1527 C 0.38115 0.61397 0.74111 0.0
C1528 C 0.37603 0.61507 0.63809 0.0
C1529 C 0.36691 0.62876 0.74814 0.0
C1530 C 0.35778 0.63718 0.70055 0.0
C1531 C 0.3561 0.64128 0.5973 0.0
C1532 C 0.36259 0.63613 0.54223 0.0
C1533 C 0.36286 0.63098 0.64532 0.0
C1534 C 0.37451 0.61941 0.53519 0.0
C1535 C 0.38116 0.60891 0.58283 0.0
H1536 H 0.15767 0.64641 0.42828 0.0
H1537 H 0.12393 0.61143 0.54768 0.0
H1538 H 0.1094 0.59287 0.46899 0.0
H1539 H 0.1023 0.5906 0.36683 0.0
H1540 H 0.13471 0.62691 0.24762 0.0
H1541 H 0.15406 0.64072 0.32569 0.0
C1542 C 0.14742 0.63445 0.43711 0.0
C1543 C 0.14161 0.63048 0.49357 0.0
C1544 C 0.13878 0.62424 0.39168 0.0
C1545 C 0.1286 0.61477 0.50458 0.0
C1546 C 0.12017 0.60428 0.45956 0.0
C1547 C 0.11388 0.60125 0.35781 0.0
C1548 C 0.11686 0.60799 0.3017 0.0
C1549 C 0.12454 0.60948 0.403 0.0
C1550 C 0.1321 0.62153 0.29044 0.0
C1551 C 0.14305 0.62954 0.33514 0.0
H1552 H 0.10756 0.4175 0.18813 0.0
H1553 H 0.14201 0.38333 0.30686 0.0
H1554 H 0.15843 0.36666 0.22774 0.0
H1555 H 0.15871 0.35791 0.12642 0.0
H1556 H 0.123 0.39078 1.00792 0.0
H1557 H 0.11149 0.41204 0.08534 0.0
C1558 C 0.119 0.40673 0.19671 0.0
C1559 C 0.12333 0.40143 0.25334 0.0
C1560 C 0.12791 0.39678 0.15105 0.0
C1561 C 0.13836 0.38766 0.26377 0.0
C1562 C 0.14762 0.37798 0.21849 0.0
C1563 C 0.14866 0.36996 0.11737 0.0
C1564 C 0.14142 0.37258 0.06177 0.0
C1565 C 0.14184 0.3818 0.16219 0.0
C1566 C 0.12872 0.38843 0.05039 0.0
C1567 C 0.12205 0.4005 0.09472 0.0
H1568 H 0.25938 0.16101 0.63245 0.0
H1569 H 0.30243 0.16934 0.49929 0.0
H1570 H 0.27621 0.17103 0.42828 0.0
H1571 H 0.24083 0.16922 0.40372 0.0
H1572 H 0.19789 0.16167 0.53764 0.0
H1573 H 0.22408 0.16061 0.60855 0.0
C1574 C 0.26293 0.16325 0.58787 0.0
C1575 C 0.28273 0.16511 0.57112 0.0
C1576 C 0.24777 0.16432 0.5474 0.0
C1577 C 0.28725 0.16815 0.51331 0.0
C1578 C 0.27228 0.16898 0.47264 0.0
C1579 C 0.23732 0.1674 0.44847 0.0
C1580 C 0.21752 0.16563 0.46549 0.0
C1581 C 0.25248 0.16696 0.48914 0.0
C1582 C 0.21302 0.16337 0.52361 0.0
C1583 C 0.22799 0.16263 0.56415 0.0
H1584 H 0.10012 0.98669 0.66993 0.0
H1585 H 0.09561 0.94599 0.8107 0.0
H1586 H 0.09688 0.97335 0.87794 0.0
H1587 H 0.09587 0.00921 0.89639 0.0
H1588 H 0.10003 0.04977 0.75507 0.0
H1589 H 0.1025 0.02231 0.68885 0.0
C1590 C 0.09967 0.98387 0.71536 0.0
C1591 C 0.0977 0.9644 0.73518 0.0
C1592 C 0.10023 0.9997 0.75383 0.0
C1593 C 0.09734 0.96084 0.79422 0.0
C1594 C 0.09788 0.9765 0.83277 0.0
C1595 C 0.09756 0.01195 0.85116 0.0
C1596 C 0.09773 0.03148 0.83088 0.0
C1597 C 0.09881 0.99603 0.81302 0.0
C1598 C 0.1001 0.03491 0.77211 0.0
C1599 C 0.10134 0.01919 0.734 0.0
H1600 H 0.20995 0.8358 0.02734 0.0
H1601 H 0.24446 0.83633 0.18093 0.0
H1602 H 0.27493 0.83651 0.12459 0.0
H1603 H 0.2916 0.83811 0.03167 0.0
H1604 H 0.25711 0.83913 0.878 0.0
H1605 H 0.22669 0.83674 0.93416 0.0
C1606 C 0.22415 0.83559 0.04836 0.0
C1607 C 0.22503 0.83587 0.10818 0.0
C1608 C 0.24154 0.83613 1.01565 0.0
C1609 C 0.24351 0.83613 0.13494 0.0
C1610 C 0.26088 0.83623 0.10276 0.0
C1611 C 0.27744 0.83747 1.01047 0.0
C1612 C 0.27658 0.83865 0.95073 0.0
C1613 C 0.26007 0.83643 0.0431 0.0
C1614 C 0.25809 0.83831 0.92392 0.0
C1615 C 0.24074 0.8369 0.956 0.0
H1616 H 0.43841 0.98775 0.3521 0.0
H1617 H 0.38041 0.96648 0.30872 0.0
H1618 H 0.37614 0.9942 0.24286 0.0
H1619 H 0.38896 0.02475 0.19806 0.0
H1620 H 0.44691 0.04575 0.24294 0.0
H1621 H 0.45112 0.01794 0.308 0.0
C1622 C 0.4247 0.98932 0.32902 0.0
C1623 C 0.4097 0.97511 0.33569 0.0
C1624 C 0.4224 0.0052 0.29116 0.0
C1625 C 0.39221 0.97717 0.30421 0.0
C1626 C 0.38977 0.99301 0.26656 0.0
C1627 C 0.40257 0.02305 0.22159 0.0
C1628 C 0.41761 0.03728 0.21575 0.0
C1629 C 0.40482 0.00708 0.25944 0.0
C1630 C 0.43507 0.03508 0.24713 0.0
C1631 C 0.43749 0.01919 0.2843 0.0
H1632 H 0.71017 0.84035 0.52329 0.0
H1633 H 0.74431 0.83906 0.36845 0.0
H1634 H 0.77492 0.83901 0.42367 0.0
H1635 H 0.79174 0.84113 0.51568 0.0
H1636 H 0.75767 0.84396 0.6706 0.0
H1637 H 0.72708 0.84168 0.61575 0.0
C1638 C 0.72432 0.83965 0.50182 0.0
C1639 C 0.7251 0.83946 0.442 0.0
C1640 C 0.74176 0.84011 0.53382 0.0
C1641 C 0.74349 0.83914 0.41448 0.0
C1642 C 0.76091 0.83914 0.446 0.0
C1643 C 0.77764 0.8409 0.53749 0.0
C1644 C 0.77692 0.84255 0.59714 0.0
C1645 C 0.76021 0.83987 0.50565 0.0
C1646 C 0.75852 0.84278 0.62472 0.0
C1647 C 0.74108 0.84142 0.59341 0.0
H1648 H 0.91409 0.96067 0.27443 0.0
H1649 H 0.91833 0.99355 0.11788 0.0
H1650 H 0.91815 0.02471 0.17109 0.0
H1651 H 0.91469 0.04245 0.26205 0.0
H1652 H 0.90782 0.00948 0.41781 0.0
H1653 H 0.91114 0.97838 0.36544 0.0
C1654 C 0.91537 0.97468 0.25227 0.0
C1655 C 0.91649 0.97496 0.19255 0.0
C1656 C 0.91459 0.99242 0.28304 0.0
C1657 C 0.91757 0.99313 0.16391 0.0
C1658 C 0.91742 0.01087 0.19428 0.0
C1659 C 0.91425 0.02844 0.28445 0.0
C1660 C 0.91116 0.02815 0.34364 0.0
C1661 C 0.91565 0.01069 0.25382 0.0
C1662 C 0.91014 0.00994 0.37221 0.0
C1663 C 0.91207 0.99223 0.34233 0.0
H1664 H 0.79323 0.15858 0.02841 0.0
H1665 H 0.7597 0.1662 0.8739 0.0
H1666 H 0.72919 0.16617 0.92899 0.0
H1667 H 0.71207 0.16605 1.0217 0.0
H1668 H 0.74582 0.16105 0.17599 0.0
H1669 H 0.77631 0.15827 0.12031 0.0
C1670 C 0.77936 0.16048 1.00644 0.0
C1671 C 0.779 0.16259 0.9467 0.0
C1672 C 0.76186 0.16094 0.03852 0.0
C1673 C 0.76061 0.16444 0.91956 0.0
C1674 C 0.74309 0.16452 0.95114 0.0
C1675 C 0.72609 0.16401 0.04295 0.0
C1676 C 0.72678 0.16358 0.10279 0.0
C1677 C 0.74355 0.16298 1.01067 0.0
C1678 C 0.74504 0.16139 0.12998 0.0
C1679 C 0.76241 0.15984 0.09817 0.0
H1680 H 0.59104 0.01466 0.66121 0.0
H1681 H 0.58852 0.05484 0.80293 0.0
H1682 H 0.58634 0.02711 0.86937 0.0
H1683 H 0.58635 0.99124 0.8874 0.0
H1684 H 0.58806 0.95098 0.74573 0.0
H1685 H 0.58915 0.97872 0.67906 0.0
C1686 C 0.58993 0.01722 0.70664 0.0
C1687 C 0.58987 0.03666 0.72723 0.0
C1688 C 0.58849 1.00118 0.74454 0.0
C1689 C 0.58832 0.03996 0.78613 0.0
C1690 C 0.58719 0.02412 0.82412 0.0
C1691 C 0.58682 0.98865 0.84189 0.0
C1692 C 0.58703 0.96918 0.82149 0.0
C1693 C 0.58739 0.00467 0.80385 0.0
C1694 C 0.58756 0.96587 0.76243 0.0
C1695 C 0.58836 0.98171 0.72431 0.0
H1696 H 0.70898 0.66444 0.03815 0.0
H1697 H 0.74209 0.65989 0.88218 0.0
H1698 H 0.77308 0.66353 0.93479 0.0
H1699 H 0.7906 0.66574 1.02592 0.0
H1700 H 0.75768 0.66732 0.18282 0.0
H1701 H 0.72659 0.66714 0.12956 0.0
C1702 C 0.72302 0.66464 1.01589 0.0
C1703 C 0.72345 0.66218 0.95656 0.0
C1704 C 0.74067 0.66604 0.04668 0.0
C1705 C 0.74161 0.66189 0.92788 0.0
C1706 C 0.75922 0.66392 0.95792 0.0
C1707 C 0.77659 0.66642 0.04823 0.0
C1708 C 0.77627 0.66678 0.108 0.0
C1709 C 0.75893 0.66571 1.01739 0.0
C1710 C 0.75812 0.66709 0.13676 0.0
C1711 C 0.74043 0.66698 0.10636 0.0
H1712 H 0.5961 0.54299 0.27963 0.0
H1713 H 0.57889 0.51044 0.43007 0.0
H1714 H 0.57887 0.4798 0.37538 0.0
H1715 H 0.58412 0.46228 0.28507 0.0
H1716 H 0.59997 0.49529 0.1343 0.0
H1717 H 0.59987 0.52587 0.1891 0.0
C1718 C 0.592 0.52932 0.30057 0.0
C1719 C 0.5874 0.52918 0.35911 0.0
C1720 C 0.59177 0.51182 0.26875 0.0
C1721 C 0.58268 0.51107 0.38535 0.0
C1722 C 0.58255 0.49352 0.35396 0.0
C1723 C 0.58721 0.47616 0.26384 0.0
C1724 C 0.59203 0.47643 0.20542 0.0
C1725 C 0.58707 0.49373 0.29562 0.0
C1726 C 0.59642 0.4946 0.17921 0.0
C1727 C 0.59631 0.51211 0.2105 0.0
H1728 H 0.73396 0.37238 0.59185 0.0
H1729 H 0.71821 0.31074 0.5803 0.0
H1730 H 0.7447 0.30527 0.51193 0.0
H1731 H 0.77213 0.31792 0.45486 0.0
H1732 H 0.7894 0.37894 0.46842 0.0
H1733 H 0.76255 0.38486 0.53674 0.0
C1734 C 0.73654 0.35772 0.575 0.0
C1735 C 0.72402 0.34202 0.59078 0.0
C1736 C 0.75189 0.35465 0.53564 0.0
C1737 C 0.72745 0.32312 0.56814 0.0
C1738 C 0.74259 0.31997 0.52909 0.0
C1739 C 0.76977 0.33257 0.4721 0.0
C1740 C 0.78236 0.34809 0.45604 0.0
C1741 C 0.75473 0.33566 0.51204 0.0
C1742 C 0.77966 0.36688 0.48 0.0
C1743 C 0.76441 0.3702 0.51909 0.0
H1744 H 0.9391 0.48598 0.84308 0.0
H1745 H 0.87793 0.46909 0.83497 0.0
H1746 H 0.87115 0.49703 0.77134 0.0
H1747 H 0.88279 0.52635 0.71905 0.0
H1748 H 0.94451 0.54202 0.72383 0.0
H1749 H 0.95094 0.51449 0.78811 0.0
C1750 C 0.92425 0.48862 0.82796 0.0
C1751 C 0.90894 0.47576 0.84422 0.0
C1752 C 0.92063 0.50438 0.79064 0.0
C1753 C 0.88986 0.47893 0.82311 0.0
C1754 C 0.88604 0.49484 0.78674 0.0
C1755 C 0.8977 0.52361 0.73335 0.0
C1756 C 0.91312 0.5364 0.71675 0.0
C1757 C 0.90134 0.50762 0.77005 0.0
C1758 C 0.93231 0.53265 0.73654 0.0
C1759 C 0.93602 0.51687 0.77322 0.0
H1760 H 0.24035 0.34344 0.9172 0.0
H1761 H 0.19871 0.35122 0.05411 0.0
H1762 H 0.22557 0.35248 0.12305 0.0
H1763 H 0.26098 0.35106 0.14452 0.0
H1764 H 0.30274 0.34217 1.00848 0.0
H1765 H 0.27594 0.34147 0.93911 0.0
C1766 C 0.23731 0.34548 0.96213 0.0
C1767 C 0.21771 0.34716 0.98079 0.0
C1768 C 0.25282 0.34585 1.00162 0.0
C1769 C 0.21374 0.34966 0.03907 0.0
C1770 C 0.22906 0.35044 0.0784 0.0
C1771 C 0.26412 0.34899 0.09965 0.0
C1772 C 0.28369 0.34655 0.08162 0.0
C1773 C 0.24865 0.34847 0.06021 0.0
C1774 C 0.28771 0.34374 1.02345 0.0
C1775 C 0.27242 0.34349 0.98374 0.0
H1776 H 0.39599 0.51272 0.8682 0.0
H1777 H 0.42324 0.55011 0.74132 0.0
H1778 H 0.42658 0.52201 0.67749 0.0
H1779 H 0.4221 0.48648 0.65782 0.0
H1780 H 0.3939 0.44958 0.78403 0.0
H1781 H 0.39032 0.4778 0.84733 0.0
C1782 C 0.40251 0.51478 0.82643 0.0
C1783 C 0.40948 0.53352 0.81011 0.0
C1784 C 0.40417 0.4986 0.78952 0.0
C1785 C 0.41811 0.53583 0.75588 0.0
C1786 C 0.41987 0.51977 0.71893 0.0
C1787 C 0.41497 0.48471 0.69887 0.0
C1788 C 0.40846 0.46592 0.71633 0.0
C1789 C 0.41298 0.50105 0.73532 0.0
C1790 C 0.39938 0.46381 0.76994 0.0
C1791 C 0.39725 0.47995 0.80614 0.0
H1792 H 0.26107 0.66556 0.40195 0.0
H1793 H 0.30259 0.64755 0.53053 0.0
H1794 H 0.27612 0.64499 0.60045 0.0
H1795 H 0.2412 0.64872 0.62618 0.0
H1796 H 0.19948 0.66592 0.49713 0.0
H1797 H 0.22584 0.668 0.42689 0.0
C1798 C 0.26424 0.66089 0.4451 0.0
C1799 C 0.2838 0.65701 0.46104 0.0
C1800 C 0.24891 0.65946 0.48537 0.0
C1801 C 0.28773 0.65106 0.51733 0.0
C1802 C 0.27258 0.64948 0.55738 0.0
C1803 C 0.23789 0.6528 0.58262 0.0
C1804 C 0.21842 0.65744 0.56748 0.0
C1805 C 0.25313 0.65383 0.54207 0.0
C1806 C 0.21437 0.66278 0.5107 0.0
C1807 C 0.22944 0.66379 0.47015 0.0
H1808 H 0.08619 0.54495 0.28352 0.0
H1809 H 0.08684 0.5108 0.12893 0.0
H1810 H 0.0865 0.48014 0.18454 0.0
H1811 H 0.08721 0.46317 0.27733 0.0
H1812 H 0.08806 0.49739 0.43167 0.0
H1813 H 0.08643 0.52802 0.37611 0.0
C1814 C 0.08595 0.5308 0.26203 0.0
C1815 C 0.08638 0.5301 0.20217 0.0
C1816 C 0.08604 0.51331 0.29429 0.0
C1817 C 0.08658 0.51166 0.17493 0.0
C1818 C 0.08633 0.49417 0.2067 0.0
C1819 C 0.08668 0.47734 0.29871 0.0
C1820 C 0.08752 0.4781 0.3585 0.0
C1821 C 0.08618 0.49482 0.26641 0.0
C1822 C 0.08738 0.49654 0.3857 0.0
C1823 C 0.08646 0.51399 0.35397 0.0
H1824 H 0.13329 0.26127 0.41595 0.0
H1825 H 0.11982 0.25022 0.23938 0.0
H1826 H 0.10674 0.28369 0.22997 0.0
H1827 H 0.09822 0.31573 0.27295 0.0
H1828 H 0.11223 0.32662 0.44902 0.0
H1829 H 0.12658 0.29369 0.45714 0.0
C1830 C 0.12792 0.26626 0.37497 0.0
C1831 C 0.12759 0.25319 0.3284 0.0
C1832 C 0.1205 0.28549 0.36983 0.0
C1833 C 0.12008 0.25987 0.27608 0.0
C1834 C 0.11265 0.27902 0.27062 0.0
C1835 C 0.10437 0.31084 0.31309 0.0
C1836 C 0.10405 0.32354 0.36043 0.0
C1837 C 0.11256 0.29187 0.31743 0.0
C1838 C 0.11242 0.31718 0.4119 0.0
C1839 C 0.12052 0.29832 0.41663 0.0
H1840 H 0.94724 0.82692 0.5755 0.0
H1841 H 0.91944 0.88334 0.60353 0.0
H1842 H 0.95163 0.89959 0.60181 0.0
H1843 H 0.98783 0.89757 0.59537 0.0
H1844 H 0.01524 0.84068 0.57037 0.0
H1845 H 0.98302 0.82506 0.56517 0.0
C1846 C 0.94815 0.8428 0.58044 0.0
C1847 C 0.93091 0.85382 0.59002 0.0
C1848 C 0.96668 0.85205 0.57922 0.0
C1849 C 0.93247 0.8744 0.59717 0.0
C1850 C 0.95088 0.88374 0.59572 0.0
C1851 C 0.98677 0.88177 0.58861 0.0
C1852 C 0.00406 0.87043 0.58301 0.0
C1853 C 0.96811 0.87268 0.58737 0.0
C1854 C 0.00231 0.84996 0.57358 0.0
C1855 C 0.98384 0.84091 0.57137 0.0
H1856 H 0.40797 0.69473 0.78643 0.0
H1857 H 0.39171 0.68193 0.96003 0.0
H1858 H 0.37464 0.71372 0.9668 0.0
H1859 H 0.36616 0.74582 0.92491 0.0
H1860 H 0.38146 0.75811 0.74981 0.0
H1861 H 0.39726 0.72585 0.74216 0.0
C1862 C 0.40074 0.69898 0.82575 0.0
C1863 C 0.40129 0.6862 0.87297 0.0
C1864 C 0.39084 0.71714 0.82902 0.0
C1865 C 0.39146 0.69159 0.92325 0.0
C1866 C 0.38177 0.70975 0.9271 0.0
C1867 C 0.37252 0.74132 0.8846 0.0
C1868 C 0.37267 0.7545 0.83808 0.0
C1869 C 0.38152 0.72271 0.88039 0.0
C1870 C 0.38136 0.74843 0.78657 0.0
C1871 C 0.39037 0.72996 0.7821 0.0
H1872 H 0.51725 0.1067 0.10029 0.0
H1873 H 0.48784 0.16276 0.078 0.0
H1874 H 0.5193 0.17979 0.07937 0.0
H1875 H 0.55477 0.17932 0.09248 0.0
H1876 H 0.58499 0.12391 0.11601 0.0
H1877 H 0.55355 0.10624 0.11088 0.0
C1878 C 0.51774 0.12263 0.0955 0.0
C1879 C 0.50009 0.1333 0.08825 0.0
C1880 C 0.53599 0.13255 0.0977 0.0
C1881 C 0.50109 0.15398 0.08197 0.0
C1882 C 0.51911 0.16384 0.08356 0.0
C1883 C 0.55461 0.16336 0.09567 0.0
C1884 C 0.5723 0.15303 0.10452 0.0
C1885 C 0.53659 0.15332 0.09202 0.0
C1886 C 0.57162 0.13233 0.10991 0.0
C1887 C 0.55364 0.12218 0.1065 0.0
H1888 H 0.09886 0.75632 0.21006 0.0
H1889 H 0.15854 0.7346 0.21961 0.0
H1890 H 0.14634 0.70057 0.21622 0.0
H1891 H 0.11851 0.67691 0.20936 0.0
H1892 H 0.05907 0.69919 0.20214 0.0
H1893 H 0.07136 0.73305 0.20657 0.0
C1894 C 0.10923 0.74419 0.21266 0.0
C1895 C 0.1296 0.74809 0.21546 0.0
C1896 C 0.10214 0.72471 0.21073 0.0
C1897 C 0.14279 0.73207 0.21716 0.0
C1898 C 0.13582 0.71259 0.21524 0.0
C1899 C 0.10832 0.68922 0.20837 0.0
C1900 C 0.08791 0.68557 0.20533 0.0
C1901 C 0.11552 0.70873 0.21149 0.0
C1902 C 0.07482 0.70163 0.20494 0.0
C1903 C 0.08184 0.72099 0.20735 0.0
H1904 H 0.50822 0.88081 0.36656 0.0
H1905 H 0.49631 0.87548 0.54658 0.0
H1906 H 0.52953 0.86263 0.56181 0.0
H1907 H 0.56185 0.85248 0.52357 0.0
H1908 H 0.57376 0.85885 0.34408 0.0
H1909 H 0.54077 0.87228 0.3293 0.0
C1910 C 0.51294 0.87725 0.40938 0.0
C1911 C 0.4997 0.87918 0.45535 0.0
C1912 C 0.53209 0.87006 0.41792 0.0
C1913 C 0.50606 0.87395 0.51028 0.0
C1914 C 0.5251 0.86668 0.51908 0.0
C1915 C 0.55716 0.85675 0.48125 0.0
C1916 C 0.57018 0.8546 0.43494 0.0
C1917 C 0.53818 0.86451 0.47312 0.0
C1918 C 0.56406 0.86051 0.38045 0.0
C1919 C 0.54518 0.86809 0.37195 0.0
H1920 H 0.40286 0.24173 0.71496 0.0
H1921 H 0.34416 0.26572 0.72715 0.0
H1922 H 0.35764 0.29933 0.72277 0.0
H1923 H 0.38621 0.32178 0.71247 0.0
H1924 H 0.44464 0.29717 0.69762 0.0
H1925 H 0.43118 0.26391 0.70668 0.0
C1926 C 0.39303 0.25431 0.71796 0.0
C1927 C 0.37256 0.25125 0.72204 0.0
C1928 C 0.40084 0.27347 0.71441 0.0
C1929 C 0.35998 0.26772 0.72418 0.0
C1930 C 0.36768 0.28691 0.72149 0.0
C1931 C 0.39596 0.30913 0.71076 0.0
C1932 C 0.41643 0.312 0.70436 0.0
C1933 C 0.38808 0.28996 0.71579 0.0
C1934 C 0.42888 0.29543 0.70315 0.0
C1935 C 0.42119 0.27638 0.70815 0.0
H1936 H 0.95078 0.17736 0.95641 0.0
H1937 H 0.92009 0.12212 0.93199 0.0
H1938 H 0.95138 0.10439 0.93477 0.0
H1939 H 0.98766 0.10469 0.94256 0.0
H1940 H 0.0178 0.16035 0.96618 0.0
H1941 H 0.98644 0.17759 0.96781 0.0
C1942 C 0.95083 0.16142 0.95248 0.0
C1943 C 0.93304 0.15118 0.94376 0.0
C1944 C 0.96881 0.15131 0.95472 0.0
C1945 C 0.93354 0.1305 0.93775 0.0
C1946 C 0.95144 0.1203 0.93982 0.0
C1947 C 0.98735 0.12058 0.94826 0.0
C1948 C 0.00513 0.13112 0.95471 0.0
C1949 C 0.96919 0.13057 0.94794 0.0
C1950 C 0.00441 0.15172 0.96245 0.0
C1951 C 0.98646 0.16168 0.96267 0.0
H1952 H 0.8789 0.68399 0.70447 0.0
H1953 H 0.93872 0.7048 0.68569 0.0
H1954 H 0.92732 0.73893 0.68601 0.0
H1955 H 0.90051 0.76276 0.68979 0.0
H1956 H 0.84046 0.74265 0.70953 0.0
H1957 H 0.85174 0.70828 0.71004 0.0
C1958 C 0.88936 0.69603 0.70002 0.0
C1959 C 0.90962 0.69191 0.69516 0.0
C1960 C 0.88268 0.71568 0.70056 0.0
C1961 C 0.92309 0.70762 0.69015 0.0
C1962 C 0.91658 0.72712 0.69016 0.0
C1963 C 0.88988 0.75091 0.69539 0.0
C1964 C 0.86969 0.75528 0.70026 0.0
C1965 C 0.89644 0.73131 0.69554 0.0
C1966 C 0.85609 0.73967 0.70567 0.0
C1967 C 0.86253 0.72004 0.70597 0.0
H1968 H 0.00661 0.11569 0.37202 0.0
H1969 H 0.99667 0.12528 0.5515 0.0
H1970 H 0.02906 0.14084 0.5595 0.0
H1971 H 0.05954 0.15326 0.51438 0.0
H1972 H 0.0699 0.14248 0.33616 0.0
H1973 H 0.03816 0.12538 0.32903 0.0
C1974 C 0.01165 0.12069 0.41331 0.0
C1975 C 0.99905 0.11936 0.46103 0.0
C1976 C 0.03034 0.12952 0.41772 0.0
C1977 C 0.00586 0.12635 0.51383 0.0
C1978 C 0.02442 0.13522 0.5185 0.0
C1979 C 0.05479 0.14716 0.47406 0.0
C1980 C 0.06687 0.14931 0.42566 0.0
C1981 C 0.03661 0.13723 0.4705 0.0
C1982 C 0.06082 0.14097 0.3739 0.0
C1983 C 0.04267 0.13127 0.36984 0.0
H1984 H 0.64859 0.26806 0.21591 0.0
H1985 H 0.59274 0.23789 0.23493 0.0
H1986 H 0.57567 0.26942 0.23812 0.0
H1987 H 0.57616 0.30539 0.22797 0.0
H1988 H 0.63166 0.33577 0.20608 0.0
H1989 H 0.64917 0.30433 0.20969 0.0
C1990 C 0.63269 0.26837 0.22089 0.0
C1991 C 0.62206 0.25053 0.22535 0.0
C1992 C 0.62281 0.2866 0.2211 0.0
C1993 C 0.60145 0.25129 0.23253 0.0
C1994 C 0.59159 0.26935 0.23364 0.0
C1995 C 0.5921 0.30518 0.22474 0.0
C1996 C 0.60252 0.32293 0.21626 0.0
C1997 C 0.60207 0.28706 0.22698 0.0
C1998 C 0.6232 0.32233 0.21147 0.0
C1999 C 0.63325 0.30435 0.21399 0.0
H2000 H 0.44747 0.82583 0.95224 0.0
H2001 H 0.41956 0.88274 0.93704 0.0
H2002 H 0.45189 0.89889 0.93602 0.0
H2003 H 0.48822 0.8967 0.93924 0.0
H2004 H 0.51556 0.83923 0.95084 0.0
H2005 H 0.48336 0.82361 0.95565 0.0
C2006 C 0.44843 0.84178 0.94933 0.0
C2007 C 0.43111 0.85303 0.94476 0.0
C2008 C 0.46701 0.85093 0.9488 0.0
C2009 C 0.43266 0.87369 0.93991 0.0
C2010 C 0.45115 0.88295 0.93971 0.0
C2011 C 0.48715 0.88076 0.94269 0.0
C2012 C 0.50445 0.86928 0.9454 0.0
C2013 C 0.46845 0.87169 0.94395 0.0
C2014 C 0.50265 0.84861 0.95026 0.0
C2015 C 0.48418 0.83957 0.9523 0.0
H2016 H 0.92667 0.30389 0.84623 0.0
H2017 H 0.87182 0.33538 0.86464 0.0
H2018 H 0.85364 0.30413 0.86359 0.0
H2019 H 0.85343 0.26761 0.85644 0.0
H2020 H 0.90887 0.23689 0.83845 0.0
H2021 H 0.92655 0.26808 0.83849 0.0
C2022 C 0.91073 0.30399 0.84935 0.0
C2023 C 0.90068 0.32199 0.85537 0.0
C2024 C 0.9004 0.28605 0.84814 0.0
C2025 C 0.88 0.32174 0.86065 0.0
C2026 C 0.86956 0.30387 0.85963 0.0
C2027 C 0.86937 0.26778 0.85246 0.0
C2028 C 0.8797 0.24988 0.8464 0.0
C2029 C 0.87962 0.2859 0.85333 0.0
C2030 C 0.9004 0.25039 0.84146 0.0
C2031 C 0.91061 0.26825 0.84212 0.0
H2032 H 0.48891 0.10738 0.60254 0.0
H2033 H 0.51881 0.16383 0.60135 0.0
H2034 H 0.48745 0.18078 0.60894 0.0
H2035 H 0.45184 0.17986 0.62071 0.0
H2036 H 0.4212 0.12394 0.62243 0.0
H2037 H 0.45257 0.10657 0.61226 0.0
C2038 C 0.48855 0.12338 0.60373 0.0
C2039 C 0.5063 0.13422 0.60051 0.0
C2040 C 0.47036 0.13319 0.60938 0.0
C2041 C 0.50547 0.155 0.60203 0.0
C2042 C 0.48751 0.16478 0.60722 0.0
C2043 C 0.45191 0.16388 0.61818 0.0
C2044 C 0.43409 0.1533 0.62231 0.0
C2045 C 0.46991 0.15404 0.61144 0.0
C2046 C 0.43465 0.13253 0.62019 0.0
C2047 C 0.4526 0.12257 0.61383 0.0
H2048 H 0.64896 0.74007 0.36059 0.0
H2049 H 0.59226 0.76894 0.35243 0.0
H2050 H 0.57572 0.73714 0.35368 0.0
H2051 H 0.57699 0.70129 0.35961 0.0
H2052 H 0.63307 0.67167 0.36986 0.0
H2053 H 0.65015 0.7036 0.36734 0.0
C2054 C 0.633 0.7394 0.35916 0.0
C2055 C 0.62197 0.75698 0.35538 0.0
C2056 C 0.62341 0.72093 0.36109 0.0
C2057 C 0.60125 0.75575 0.35356 0.0
C2058 C 0.59169 0.73753 0.35499 0.0
C2059 C 0.59295 0.70177 0.36072 0.0
C2060 C 0.60371 0.68412 0.36462 0.0
C2061 C 0.6026 0.72007 0.35885 0.0
C2062 C 0.62441 0.68506 0.36739 0.0
C2063 C 0.63418 0.7033 0.36553 0.0
H2064 H 0.05303 0.82356 0.11349 0.0
H2065 H 0.08514 0.87856 0.11094 0.0
H2066 H 0.05411 0.89691 0.10602 0.0
H2067 H 0.01761 0.89718 0.10221 0.0
H2068 H 0.98619 0.84159 0.10747 0.0
H2069 H 0.01712 0.82373 0.1099 0.0
C2070 C 0.05326 0.83955 0.11131 0.0
C2071 C 0.07136 0.84964 0.11262 0.0
C2072 C 0.03544 0.84995 0.10839 0.0
C2073 C 0.07139 0.87042 0.11077 0.0
C2074 C 0.05365 0.88092 0.10757 0.0
C2075 C 0.01755 0.88117 0.10389 0.0
C2076 C 0.99949 0.87083 0.10348 0.0
C2077 C 0.03554 0.87083 0.10646 0.0
C2078 C 0.99976 0.85004 0.10585 0.0
C2079 C 0.01749 0.83973 0.10794 0.0
H2080 H 0.57928 0.79921 0.83353 0.0
H2081 H 0.63424 0.82961 0.86308 0.0
H2082 H 0.6516 0.79799 0.86607 0.0
H2083 H 0.65108 0.76149 0.85962 0.0
H2084 H 0.5955 0.73182 0.83122 0.0
H2085 H 0.5787 0.76337 0.82646 0.0
C2086 C 0.59509 0.799 0.83993 0.0
C2087 C 0.60539 0.81681 0.84787 0.0
C2088 C 0.60496 0.78084 0.84113 0.0
C2089 C 0.62586 0.81614 0.85745 0.0
C2090 C 0.63583 0.79805 0.85877 0.0
C2091 C 0.6353 0.76195 0.85233 0.0
C2092 C 0.62471 0.74422 0.84481 0.0
C2093 C 0.62552 0.78028 0.85064 0.0
C2094 C 0.60423 0.74515 0.83545 0.0
C2095 C 0.5945 0.76322 0.8334 0.0
H2096 H 0.4427 0.34621 0.05408 0.0
H2097 H 0.43125 0.36359 0.2273 0.0
H2098 H 0.46311 0.38068 0.23096 0.0
H2099 H 0.49496 0.38871 0.18674 0.0
H2100 H 0.50602 0.37218 1.01215 0.0
H2101 H 0.47356 0.35657 1.00723 0.0
C2102 C 0.44726 0.35369 0.09261 0.0
C2103 C 0.43485 0.35345 0.14066 0.0
C2104 C 0.46548 0.36358 0.09412 0.0
C2105 C 0.44063 0.3636 0.18991 0.0
C2106 C 0.45883 0.37331 0.19199 0.0
C2107 C 0.49014 0.38213 0.1471 0.0
C2108 C 0.50303 0.38157 0.09995 0.0
C2109 C 0.47145 0.37321 0.14452 0.0
C2110 C 0.49656 0.37261 0.04935 0.0
C2111 C 0.47798 0.36369 0.04646 0.0
H2112 H 0.90328 0.25675 0.35853 0.0
H2113 H 0.84244 0.23823 0.3543 0.0
H2114 H 0.85266 0.20354 0.35775 0.0
H2115 H 0.87916 0.17844 0.36232 0.0
H2116 H 0.93979 0.19766 0.36747 0.0
H2117 H 0.92942 0.23207 0.36309 0.0
C2118 C 0.89226 0.24513 0.35733 0.0
C2119 C 0.87215 0.25004 0.3555 0.0
C2120 C 0.89822 0.22533 0.35998 0.0
C2121 C 0.85802 0.2348 0.35558 0.0
C2122 C 0.86386 0.21498 0.35767 0.0
C2123 C 0.89003 0.19021 0.36312 0.0
C2124 C 0.91022 0.18552 0.36505 0.0
C2125 C 0.88394 0.21006 0.3603 0.0
C2126 C 0.92419 0.20089 0.36533 0.0
C2127 C 0.91827 0.22057 0.36291 0.0
H2128 H 0.01229 0.60728 0.588 0.0
H2129 H 0.98368 0.66424 0.5832 0.0
H2130 H 0.0155 0.68067 0.58491 0.0
H2131 H 0.05126 0.67919 0.59453 0.0
H2132 H 0.08035 0.62264 0.60172 0.0
H2133 H 0.04855 0.60584 0.59443 0.0
C2134 C 0.01301 0.62328 0.58712 0.0
C2135 C 0.99549 0.6344 0.58488 0.0
C2136 C 0.03146 0.63278 0.58973 0.0
C2137 C 0.99681 0.65516 0.5834 0.0
C2138 C 0.01505 0.66466 0.58519 0.0
C2139 C 0.05072 0.6632 0.59378 0.0
C2140 C 0.06821 0.65226 0.59902 0.0
C2141 C 0.03243 0.65364 0.58919 0.0
C2142 C 0.06713 0.63149 0.59884 0.0
C2143 C 0.04894 0.62185 0.59417 0.0
H2144 H 0.62513 0.18231 0.71154 0.0
H2145 H 0.56589 0.20427 0.69185 0.0
H2146 H 0.57788 0.23818 0.69738 0.0
H2147 H 0.60503 0.26153 0.70573 0.0
H2148 H 0.66458 0.24039 0.7251 0.0
H2149 H 0.65269 0.20616 0.72155 0.0
C2150 C 0.61494 0.19456 0.70799 0.0
C2151 C 0.59466 0.19083 0.70139 0.0
C2152 C 0.62196 0.2141 0.71151 0.0
C2153 C 0.58153 0.2068 0.69757 0.0
C2154 C 0.58837 0.22617 0.70062 0.0
C2155 C 0.6154 0.24946 0.71048 0.0
C2156 C 0.63562 0.25349 0.71649 0.0
C2157 C 0.60851 0.22998 0.70781 0.0
C2158 C 0.64891 0.23765 0.72066 0.0
C2159 C 0.64213 0.21811 0.71848 0.0
H2160 H 0.9947 0.35008 0.95789 0.0
H2161 H 0.01582 0.4102 0.95131 0.0
H2162 H 0.04993 0.39846 0.95317 0.0
H2163 H 0.07371 0.37095 0.95434 0.0
H2164 H 0.05219 0.31097 0.96005 0.0
H2165 H 0.01826 0.32282 0.9617 0.0
C2166 C 0.00675 0.36065 0.95803 0.0
C2167 C 0.00273 0.38098 0.9548 0.0
C2168 C 0.02625 0.3538 0.95859 0.0
C2169 C 0.01854 0.39445 0.9536 0.0
C2170 C 0.03803 0.38776 0.95462 0.0
C2171 C 0.06158 0.36051 0.95551 0.0
C2172 C 0.06547 0.34011 0.95696 0.0
C2173 C 0.04206 0.36744 0.9564 0.0
C2174 C 0.0496 0.32674 0.95947 0.0
C2175 C 0.03019 0.3335 0.96022 0.0
H2176 H 0.8789 0.82683 0.20907 0.0
H2177 H 0.93894 0.8065 0.1975 0.0
H2178 H 0.92771 0.77221 0.19867 0.0
H2179 H 0.90096 0.74816 0.20083 0.0
H2180 H 0.84068 0.76784 0.21606 0.0
H2181 H 0.85181 0.80226 0.21519 0.0
C2182 C 0.88942 0.81482 0.20645 0.0
C2183 C 0.90969 0.81908 0.20307 0.0
C2184 C 0.88284 0.7951 0.208 0.0
C2185 C 0.92328 0.8035 0.20051 0.0
C2186 C 0.91687 0.78393 0.20111 0.0
C2187 C 0.89022 0.7599 0.2053 0.0
C2188 C 0.87001 0.75535 0.2089 0.0
C2189 C 0.89671 0.77957 0.20501 0.0
C2190 C 0.85633 0.7709 0.21294 0.0
C2191 C 0.86268 0.79059 0.21247 0.0
H2192 H 0.4527 0.6805 0.43333 0.0
H2193 H 0.42025 0.62561 0.42744 0.0
H2194 H 0.45082 0.60713 0.43778 0.0
H2195 H 0.48702 0.60653 0.44787 0.0
H2196 H 0.51896 0.66173 0.45475 0.0
H2197 H 0.48829 0.68001 0.44687 0.0
C2198 C 0.45222 0.66452 0.43497 0.0
C2199 C 0.43414 0.65457 0.42918 0.0
C2200 C 0.4698 0.65396 0.44186 0.0
C2201 C 0.43394 0.63376 0.4306 0.0
C2202 C 0.45143 0.62313 0.43706 0.0
C2203 C 0.48721 0.62255 0.44789 0.0
C2204 C 0.50525 0.6327 0.45256 0.0
C2205 C 0.46947 0.63308 0.44252 0.0
C2206 C 0.50527 0.65349 0.45262 0.0
C2207 C 0.48774 0.664 0.44744 0.0
H2208 H 0.38096 0.18345 0.20468 0.0
H2209 H 0.44001 0.20689 0.19042 0.0
H2210 H 0.42746 0.24035 0.19998 0.0
H2211 H 0.3999 0.26306 0.21062 0.0
H2212 H 0.34049 0.24057 0.22137 0.0
H2213 H 0.35293 0.20662 0.21477 0.0
C2214 C 0.39102 0.1959 0.20313 0.0
C2215 C 0.41143 0.19263 0.19724 0.0
C2216 C 0.38366 0.21524 0.20843 0.0
C2217 C 0.4243 0.20894 0.19585 0.0
C2218 C 0.41713 0.22811 0.20114 0.0
C2219 C 0.38969 0.25071 0.21268 0.0
C2220 C 0.36936 0.25425 0.21748 0.0
C2221 C 0.39689 0.23142 0.20773 0.0
C2222 C 0.35624 0.23815 0.21818 0.0
C2223 C 0.36334 0.21878 0.21419 0.0
H2224 H 0.49493 0.64873 0.94596 0.0
H2225 H 0.51294 0.58782 0.93638 0.0
H2226 H 0.54767 0.59802 0.93387 0.0
H2227 H 0.57295 0.6246 0.93357 0.0
H2228 H 0.5541 0.68535 0.94042 0.0
H2229 H 0.51973 0.67492 0.94468 0.0
C2230 C 0.50647 0.63767 0.9444 0.0
C2231 C 0.50142 0.61756 0.94226 0.0
C2232 C 0.52627 0.64366 0.9418 0.0
C2233 C 0.51651 0.60341 0.9385 0.0
C2234 C 0.53634 0.60924 0.9368 0.0
C2235 C 0.56127 0.63549 0.93532 0.0
C2236 C 0.56608 0.65572 0.93699 0.0
C2237 C 0.54141 0.62936 0.93792 0.0
C2238 C 0.5508 0.6697 0.93986 0.0
C2239 C 0.53114 0.66376 0.94225 0.0
H2240 H 0.12047 0.81904 0.71354 0.0
H2241 H 0.06153 0.79651 0.68958 0.0
H2242 H 0.07381 0.76275 0.69286 0.0
H2243 H 0.10112 0.7397 0.70052 0.0
H2244 H 0.1604 0.7614 0.72342 0.0
H2245 H 0.14822 0.7955 0.72214 0.0
C2246 C 0.1104 0.80672 0.70857 0.0
C2247 C 0.09011 0.81025 0.70153 0.0
C2248 C 0.11759 0.78726 0.71059 0.0
C2249 C 0.07716 0.79416 0.6958 0.0
C2250 C 0.08417 0.77486 0.6975 0.0
C2251 C 0.11136 0.75185 0.70648 0.0
C2252 C 0.13159 0.74804 0.71294 0.0
C2253 C 0.10431 0.77125 0.7051 0.0
C2254 C 0.14474 0.76399 0.71865 0.0
C2255 C 0.13779 0.78345 0.7178 0.0
H2256 H 0.95299 0.32603 0.44748 0.0
H2257 H 0.92154 0.38128 0.44407 0.0
H2258 H 0.95275 0.39943 0.44784 0.0
H2259 H 0.98916 0.39946 0.45259 0.0
H2260 H 0.02002 0.34368 0.45339 0.0
H2261 H 0.98888 0.32598 0.45211 0.0
C2262 C 0.95294 0.34203 0.44812 0.0
C2263 C 0.93498 0.35225 0.44549 0.0
C2264 C 0.97087 0.35232 0.45052 0.0
C2265 C 0.93518 0.37303 0.44529 0.0
C2266 C 0.95302 0.38342 0.44787 0.0
C2267 C 0.98906 0.38344 0.45245 0.0
C2268 C 0.007 0.37301 0.45411 0.0
C2269 C 0.97099 0.37321 0.45045 0.0
C2270 C 0.00653 0.35221 0.45392 0.0
C2271 C 0.98869 0.34199 0.45248 0.0
H2272 H 0.39939 0.81465 0.26543 0.0
H2273 H 0.39004 0.82402 0.44477 0.0
H2274 H 0.37343 0.79197 0.45256 0.0
H2275 H 0.36416 0.76039 0.4098 0.0
H2276 H 0.37216 0.75142 0.22922 0.0
H2277 H 0.38691 0.78423 0.22052 0.0
C2278 C 0.39367 0.80962 0.30609 0.0
C2279 C 0.39612 0.82146 0.35465 0.0
C2280 C 0.38403 0.79129 0.31003 0.0
C2281 C 0.38829 0.81509 0.40693 0.0
C2282 C 0.37888 0.79677 0.41136 0.0
C2283 C 0.36859 0.76572 0.36813 0.0
C2284 C 0.36713 0.75327 0.3203 0.0
C2285 C 0.37693 0.78464 0.36333 0.0
C2286 C 0.37338 0.76048 0.26698 0.0
C2287 C 0.38178 0.77928 0.26191 0.0
H2288 H 0.99467 0.63447 0.02682 0.0
H2289 H 0.98883 0.61032 0.19642 0.0
H2290 H 0.95556 0.6233 0.20337 0.0
H2291 H 0.92895 0.6438 0.16486 0.0
H2292 H 0.93527 0.66958 0.99789 0.0
H2293 H 0.96759 0.65417 0.98711 0.0
C2294 C 0.98616 0.63203 0.06533 0.0
C2295 C 0.9944 0.62129 0.11078 0.0
C2296 C 0.96714 0.64012 0.07001 0.0
C2297 C 0.9829 0.6181 0.16004 0.0
C2298 C 0.96387 0.62575 0.16448 0.0
C2299 C 0.93731 0.64583 0.12588 0.0
C2300 C 0.92978 0.65795 0.08251 0.0
C2301 C 0.95596 0.63706 0.12017 0.0
C2302 C 0.94088 0.66061 0.03238 0.0
C2303 C 0.95932 0.65171 1.02604 0.0
H2304 H 0.12388 0.24938 0.77885 0.0
H2305 H 0.14542 0.2437 0.95093 0.0
H2306 H 0.13349 0.20986 0.95514 0.0
H2307 H 0.11399 0.18281 0.91377 0.0
H2308 H 0.09046 0.18925 0.74463 0.0
H2309 H 0.10566 0.22186 0.73603 0.0
C2310 C 0.126 0.24077 0.81729 0.0
C2311 C 0.13559 0.24925 0.86435 0.0
C2312 C 0.11843 0.22146 0.82038 0.0
C2313 C 0.13846 0.23761 0.91344 0.0
C2314 C 0.13141 0.21825 0.91628 0.0
C2315 C 0.11246 0.19128 0.87483 0.0
C2316 C 0.10096 0.18376 0.8302 0.0
C2317 C 0.12099 0.21016 0.87052 0.0
C2318 C 0.09894 0.19491 0.78001 0.0
C2319 C 0.1077 0.21351 0.77495 0.0
H2320 H 0.49955 0.35089 0.60074 0.0
H2321 H 0.51976 0.41134 0.60086 0.0
H2322 H 0.55409 0.40001 0.60324 0.0
H2323 H 0.57822 0.37267 0.60666 0.0
H2324 H 0.55719 0.31247 0.60799 0.0
H2325 H 0.52324 0.32397 0.60282 0.0
C2326 C 0.51145 0.36163 0.60002 0.0
C2327 C 0.50714 0.38192 0.59978 0.0
C2328 C 0.53098 0.35503 0.602 0.0
C2329 C 0.52273 0.39563 0.60081 0.0
C2330 C 0.54232 0.38915 0.60227 0.0
C2331 C 0.56618 0.36212 0.60628 0.0
C2332 C 0.57023 0.34173 0.6076 0.0
C2333 C 0.54661 0.36886 0.6034 0.0
C2334 C 0.55449 0.32821 0.60628 0.0
C2335 C 0.53507 0.33477 0.60353 0.0
loop_
_geom_bond_atom_site_label_1
_geom_bond_atom_site_label_2
_geom_bond_distance
_geom_bond_site_symmetry_2
_ccdc_geom_bond_type
C0 C1 1.351 . S
C0 N3 1.368 . S
C0 H5 0.931 . S
C1 C0 1.351 . S
C1 N2 1.373 . S
C1 H29 0.930 . S
N2 C1 1.373 . S
N2 C4 1.340 . S
N3 C0 1.368 . S
N3 C4 1.321 . S
N3 Co6 2.135 . S
C4 N2 1.340 . S
C4 N3 1.321 . S
C4 H28 0.930 . S
H5 C0 0.931 . S
Co6 N3 2.135 . S
Co6 N9 2.121 . S
Co6 O14 2.055 . S
Co6 O17 2.039 . S
Co6 N20 2.140 . S
C7 O8 1.227 . S
C7 O17 1.265 . S
O8 C7 1.227 . S
N9 Co6 2.121 . S
N9 C11 1.375 . S
N9 C12 1.313 . S
C10 C11 1.338 . S
C10 N13 1.377 . S
C10 H30 0.930 . S
C11 N9 1.375 . S
C11 C10 1.338 . S
C11 H15 0.931 . S
C12 N9 1.313 . S
C12 N13 1.344 . S
C12 H16 0.930 . S
N13 C10 1.377 . S
N13 C12 1.344 . S
O14 Co6 2.055 . S
O14 C18 1.253 . S
H15 C11 0.931 . S
H16 C12 0.930 . S
O17 Co6 2.039 . S
O17 C7 1.265 . S
C18 O14 1.253 . S
C18 O19 1.227 . S
O19 C18 1.227 . S
N20 Co6 2.140 . S
N20 C23 1.346 . S
N20 C24 1.345 . S
C21 C22 1.387 . S
C21 C25 1.391 . S
C22 C21 1.387 . S
C22 C23 1.369 . S
C22 H31 0.929 . S
C23 N20 1.346 . S
C23 C22 1.369 . S
C23 H26 0.928 . S
C24 N20 1.345 . S
C24 C25 1.371 . S
C24 H27 0.931 . S
C25 C21 1.391 . S
C25 C24 1.371 . S
C25 H32 0.930 . S
H26 C23 0.928 . S
H27 C24 0.931 . S
H28 C4 0.930 . S
H29 C1 0.930 . S
H30 C10 0.930 . S
H31 C22 0.929 . S
H32 C25 0.930 . S
C33 C34 1.351 . S
C33 N36 1.368 . S
C33 H38 0.931 . S
C34 C33 1.351 . S
C34 N35 1.373 . S
C34 H62 0.930 . S
N35 C34 1.373 . S
N35 C37 1.340 . S
N36 C33 1.368 . S
N36 C37 1.321 . S
N36 Co39 2.135 . S
C37 N35 1.340 . S
C37 N36 1.321 . S
C37 H61 0.930 . S
H38 C33 0.931 . S
Co39 N36 2.135 . S
Co39 N42 2.121 . S
Co39 O47 2.055 . S
Co39 O50 2.039 . S
Co39 N53 2.140 . S
C40 O41 1.227 . S
C40 O50 1.265 . S
O41 C40 1.227 . S
N42 Co39 2.121 . S
N42 C44 1.375 . S
N42 C45 1.313 . S
C43 C44 1.338 . S
C43 N46 1.377 . S
C43 H63 0.930 . S
C44 N42 1.375 . S
C44 C43 1.338 . S
C44 H48 0.931 . S
C45 N42 1.313 . S
C45 N46 1.344 . S
C45 H49 0.930 . S
N46 C43 1.377 . S
N46 C45 1.344 . S
O47 Co39 2.055 . S
O47 C51 1.253 . S
H48 C44 0.931 . S
H49 C45 0.930 . S
O50 Co39 2.039 . S
O50 C40 1.265 . S
C51 O47 1.253 . S
C51 O52 1.227 . S
O52 C51 1.227 . S
N53 Co39 2.140 . S
N53 C56 1.346 . S
N53 C57 1.345 . S
C54 C55 1.387 . S
C54 C58 1.391 . S
C55 C54 1.387 . S
C55 C56 1.369 . S
C55 H64 0.929 . S
C56 N53 1.346 . S
C56 C55 1.369 . S
C56 H59 0.928 . S
C57 N53 1.345 . S
C57 C58 1.371 . S
C57 H60 0.931 . S
C58 C54 1.391 . S
C58 C57 1.371 . S
C58 H65 0.930 . S
H59 C56 0.928 . S
H60 C57 0.931 . S
H61 C37 0.930 . S
H62 C34 0.930 . S
H63 C43 0.930 . S
H64 C55 0.929 . S
H65 C58 0.930 . S
C66 C67 1.351 . S
C66 N69 1.368 . S
C66 H71 0.931 . S
C67 C66 1.351 . S
C67 N68 1.373 . S
C67 H95 0.930 . S
N68 C67 1.373 . S
N68 C70 1.340 . S
N69 C66 1.368 . S
N69 C70 1.321 . S
N69 Co72 2.135 . S
C70 N68 1.340 . S
C70 N69 1.321 . S
C70 H94 0.930 . S
H71 C66 0.931 . S
Co72 N69 2.135 . S
Co72 N75 2.121 . S
Co72 O80 2.055 . S
Co72 O83 2.039 . S
Co72 N86 2.140 . S
C73 O74 1.227 . S
C73 O83 1.265 . S
O74 C73 1.227 . S
N75 Co72 2.121 . S
N75 C77 1.375 . S
N75 C78 1.313 . S
C76 C77 1.338 . S
C76 N79 1.377 . S
C76 H96 0.930 . S
C77 N75 1.375 . S
C77 C76 1.338 . S
C77 H81 0.931 . S
C78 N75 1.313 . S
C78 N79 1.344 . S
C78 H82 0.930 . S
N79 C76 1.377 . S
N79 C78 1.344 . S
O80 Co72 2.055 . S
O80 C84 1.253 . S
H81 C77 0.931 . S
H82 C78 0.930 . S
O83 Co72 2.039 . S
O83 C73 1.265 . S
C84 O80 1.253 . S
C84 O85 1.227 . S
O85 C84 1.227 . S
N86 Co72 2.140 . S
N86 C89 1.346 . S
N86 C90 1.345 . S
C87 C88 1.387 . S
C87 C91 1.391 . S
C88 C87 1.387 . S
C88 C89 1.369 . S
C88 H97 0.929 . S
C89 N86 1.346 . S
C89 C88 1.369 . S
C89 H92 0.928 . S
C90 N86 1.345 . S
C90 C91 1.371 . S
C90 H93 0.931 . S
C91 C87 1.391 . S
C91 C90 1.371 . S
C91 H98 0.930 . S
H92 C89 0.928 . S
H93 C90 0.931 . S
H94 C70 0.930 . S
H95 C67 0.930 . S
H96 C76 0.930 . S
H97 C88 0.929 . S
H98 C91 0.930 . S
C99 C100 1.351 . S
C99 N102 1.368 . S
C99 H104 0.931 . S
C100 C99 1.351 . S
C100 N101 1.373 . S
C100 H128 0.930 . S
N101 C100 1.373 . S
N101 C103 1.340 . S
N102 C99 1.368 . S
N102 C103 1.321 . S
N102 Co105 2.135 . S
C103 N101 1.340 . S
C103 N102 1.321 . S
C103 H127 0.930 . S
H104 C99 0.931 . S
Co105 N102 2.135 . S
Co105 N108 2.121 . S
Co105 O113 2.055 . S
Co105 O116 2.039 . S
Co105 N119 2.140 . S
C106 O107 1.227 . S
C106 O116 1.265 . S
O107 C106 1.227 . S
N108 Co105 2.121 . S
N108 C110 1.375 . S
N108 C111 1.313 . S
C109 C110 1.338 . S
C109 N112 1.377 . S
C109 H129 0.930 . S
C110 N108 1.375 . S
C110 C109 1.338 . S
C110 H114 0.931 . S
C111 N108 1.313 . S
C111 N112 1.344 . S
C111 H115 0.930 . S
N112 C109 1.377 . S
N112 C111 1.344 . S
O113 Co105 2.055 . S
O113 C117 1.253 . S
H114 C110 0.931 . S
H115 C111 0.930 . S
O116 Co105 2.039 . S
O116 C106 1.265 . S
C117 O113 1.253 . S
C117 O118 1.227 . S
O118 C117 1.227 . S
N119 Co105 2.140 . S
N119 C122 1.346 . S
N119 C123 1.345 . S
C120 C121 1.387 . S
C120 C124 1.391 . S
C121 C120 1.387 . S
C121 C122 1.369 . S
C121 H130 0.929 . S
C122 N119 1.346 . S
C122 C121 1.369 . S
C122 H125 0.928 . S
C123 N119 1.345 . S
C123 C124 1.371 . S
C123 H126 0.931 . S
C124 C120 1.391 . S
C124 C123 1.371 . S
C124 H131 0.930 . S
H125 C122 0.928 . S
H126 C123 0.931 . S
H127 C103 0.930 . S
H128 C100 0.930 . S
H129 C109 0.930 . S
H130 C121 0.929 . S
H131 C124 0.930 . S
C132 C133 1.351 . S
C132 N135 1.368 . S
C132 H137 0.931 . S
C133 C132 1.351 . S
C133 N134 1.373 . S
C133 H161 0.930 . S
N134 C133 1.373 . S
N134 C136 1.340 . S
N135 C132 1.368 . S
N135 C136 1.321 . S
N135 Co138 2.135 . S
C136 N134 1.340 . S
C136 N135 1.321 . S
C136 H160 0.930 . S
H137 C132 0.931 . S
Co138 N135 2.135 . S
Co138 N141 2.121 . S
Co138 O146 2.055 . S
Co138 O149 2.039 . S
Co138 N152 2.140 . S
C139 O140 1.227 . S
C139 O149 1.265 . S
O140 C139 1.227 . S
N141 Co138 2.121 . S
N141 C143 1.375 . S
N141 C144 1.313 . S
C142 C143 1.338 . S
C142 N145 1.377 . S
C142 H162 0.930 . S
C143 N141 1.375 . S
C143 C142 1.338 . S
C143 H147 0.931 . S
C144 N141 1.313 . S
C144 N145 1.344 . S
C144 H148 0.930 . S
N145 C142 1.377 . S
N145 C144 1.344 . S
O146 Co138 2.055 . S
O146 C150 1.253 . S
H147 C143 0.931 . S
H148 C144 0.930 . S
O149 Co138 2.039 . S
O149 C139 1.265 . S
C150 O146 1.253 . S
C150 O151 1.227 . S
O151 C150 1.227 . S
N152 Co138 2.140 . S
N152 C155 1.346 . S
N152 C156 1.345 . S
C153 C154 1.387 . S
C153 C157 1.391 . S
C154 C153 1.387 . S
C154 C155 1.369 . S
C154 H163 0.929 . S
C155 N152 1.346 . S
C155 C154 1.369 . S
C155 H158 0.928 . S
C156 N152 1.345 . S
C156 C157 1.371 . S
C156 H159 0.931 . S
C157 C153 1.391 . S
C157 C156 1.371 . S
C157 H164 0.930 . S
H158 C155 0.928 . S
H159 C156 0.931 . S
H160 C136 0.930 . S
H161 C133 0.930 . S
H162 C142 0.930 . S
H163 C154 0.929 . S
H164 C157 0.930 . S
C165 C166 1.351 . S
C165 N168 1.368 . S
C165 H170 0.931 . S
C166 C165 1.351 . S
C166 N167 1.373 . S
C166 H194 0.930 . S
N167 C166 1.373 . S
N167 C169 1.340 . S
N168 C165 1.368 . S
N168 C169 1.321 . S
N168 Co171 2.135 . S
C169 N167 1.340 . S
C169 N168 1.321 . S
C169 H193 0.930 . S
H170 C165 0.931 . S
Co171 N168 2.135 . S
Co171 N174 2.121 . S
Co171 O179 2.055 . S
Co171 O182 2.039 . S
Co171 N185 2.140 . S
C172 O173 1.227 . S
C172 O182 1.265 . S
O173 C172 1.227 . S
N174 Co171 2.121 . S
N174 C176 1.375 . S
N174 C177 1.313 . S
C175 C176 1.338 . S
C175 N178 1.377 . S
C175 H195 0.930 . S
C176 N174 1.375 . S
C176 C175 1.338 . S
C176 H180 0.931 . S
C177 N174 1.313 . S
C177 N178 1.344 . S
C177 H181 0.930 . S
N178 C175 1.377 . S
N178 C177 1.344 . S
O179 Co171 2.055 . S
O179 C183 1.253 . S
H180 C176 0.931 . S
H181 C177 0.930 . S
O182 Co171 2.039 . S
O182 C172 1.265 . S
C183 O179 1.253 . S
C183 O184 1.227 . S
O184 C183 1.227 . S
N185 Co171 2.140 . S
N185 C188 1.346 . S
N185 C189 1.345 . S
C186 C187 1.387 . S
C186 C190 1.391 . S
C187 C186 1.387 . S
C187 C188 1.369 . S
C187 H196 0.929 . S
C188 N185 1.346 . S
C188 C187 1.369 . S
C188 H191 0.928 . S
C189 N185 1.345 . S
C189 C190 1.371 . S
C189 H192 0.931 . S
C190 C186 1.391 . S
C190 C189 1.371 . S
C190 H197 0.930 . S
H191 C188 0.928 . S
H192 C189 0.931 . S
H193 C169 0.930 . S
H194 C166 0.930 . S
H195 C175 0.930 . S
H196 C187 0.929 . S
H197 C190 0.930 . S
C198 C199 1.351 . S
C198 N201 1.368 . S
C198 H203 0.931 . S
C199 C198 1.351 . S
C199 N200 1.373 . S
C199 H227 0.930 . S
N200 C199 1.373 . S
N200 C202 1.340 . S
N201 C198 1.368 . S
N201 C202 1.321 . S
N201 Co204 2.135 . S
C202 N200 1.340 . S
C202 N201 1.321 . S
C202 H226 0.930 . S
H203 C198 0.931 . S
Co204 N201 2.135 . S
Co204 N207 2.121 . S
Co204 O212 2.055 . S
Co204 O215 2.039 . S
Co204 N218 2.140 . S
C205 O206 1.227 . S
C205 O215 1.265 . S
O206 C205 1.227 . S
N207 Co204 2.121 . S
N207 C209 1.375 . S
N207 C210 1.313 . S
C208 C209 1.338 . S
C208 N211 1.377 . S
C208 H228 0.930 . S
C209 N207 1.375 . S
C209 C208 1.338 . S
C209 H213 0.931 . S
C210 N207 1.313 . S
C210 N211 1.344 . S
C210 H214 0.930 . S
N211 C208 1.377 . S
N211 C210 1.344 . S
O212 Co204 2.055 . S
O212 C216 1.253 . S
H213 C209 0.931 . S
H214 C210 0.930 . S
O215 Co204 2.039 . S
O215 C205 1.265 . S
C216 O212 1.253 . S
C216 O217 1.227 . S
O217 C216 1.227 . S
N218 Co204 2.140 . S
N218 C221 1.346 . S
N218 C222 1.345 . S
C219 C220 1.387 . S
C219 C223 1.391 . S
C220 C219 1.387 . S
C220 C221 1.369 . S
C220 H229 0.929 . S
C221 N218 1.346 . S
C221 C220 1.369 . S
C221 H224 0.928 . S
C222 N218 1.345 . S
C222 C223 1.371 . S
C222 H225 0.931 . S
C223 C219 1.391 . S
C223 C222 1.371 . S
C223 H230 0.930 . S
H224 C221 0.928 . S
H225 C222 0.931 . S
H226 C202 0.930 . S
H227 C199 0.930 . S
H228 C208 0.930 . S
H229 C220 0.929 . S
H230 C223 0.930 . S
C231 C232 1.351 . S
C231 N234 1.368 . S
C231 H236 0.931 . S
C232 C231 1.351 . S
C232 N233 1.373 . S
C232 H260 0.930 . S
N233 C232 1.373 . S
N233 C235 1.340 . S
N234 C231 1.368 . S
N234 C235 1.321 . S
N234 Co237 2.135 . S
C235 N233 1.340 . S
C235 N234 1.321 . S
C235 H259 0.930 . S
H236 C231 0.931 . S
Co237 N234 2.135 . S
Co237 N240 2.121 . S
Co237 O245 2.055 . S
Co237 O248 2.039 . S
Co237 N251 2.140 . S
C238 O239 1.227 . S
C238 O248 1.265 . S
O239 C238 1.227 . S
N240 Co237 2.121 . S
N240 C242 1.375 . S
N240 C243 1.313 . S
C241 C242 1.338 . S
C241 N244 1.377 . S
C241 H261 0.930 . S
C242 N240 1.375 . S
C242 C241 1.338 . S
C242 H246 0.931 . S
C243 N240 1.313 . S
C243 N244 1.344 . S
C243 H247 0.930 . S
N244 C241 1.377 . S
N244 C243 1.344 . S
O245 Co237 2.055 . S
O245 C249 1.253 . S
H246 C242 0.931 . S
H247 C243 0.930 . S
O248 Co237 2.039 . S
O248 C238 1.265 . S
C249 O245 1.253 . S
C249 O250 1.227 . S
O250 C249 1.227 . S
N251 Co237 2.140 . S
N251 C254 1.346 . S
N251 C255 1.345 . S
C252 C253 1.387 . S
C252 C256 1.391 . S
C253 C252 1.387 . S
C253 C254 1.369 . S
C253 H262 0.929 . S
C254 N251 1.346 . S
C254 C253 1.369 . S
C254 H257 0.928 . S
C255 N251 1.345 . S
C255 C256 1.371 . S
C255 H258 0.931 . S
C256 C252 1.391 . S
C256 C255 1.371 . S
C256 H263 0.930 . S
H257 C254 0.928 . S
H258 C255 0.931 . S
H259 C235 0.930 . S
H260 C232 0.930 . S
H261 C241 0.930 . S
H262 C253 0.929 . S
H263 C256 0.930 . S
C264 C265 1.351 . S
C264 N267 1.368 . S
C264 H269 0.931 . S
C265 C264 1.351 . S
C265 N266 1.373 . S
C265 H293 0.930 . S
N266 C265 1.373 . S
N266 C268 1.340 . S
N267 C264 1.368 . S
N267 C268 1.321 . S
N267 Co270 2.135 . S
C268 N266 1.340 . S
C268 N267 1.321 . S
C268 H292 0.930 . S
H269 C264 0.931 . S
Co270 N267 2.135 . S
Co270 N273 2.121 . S
Co270 O278 2.055 . S
Co270 O281 2.039 . S
Co270 N284 2.140 . S
C271 O272 1.227 . S
C271 O281 1.265 . S
O272 C271 1.227 . S
N273 Co270 2.121 . S
N273 C275 1.375 . S
N273 C276 1.313 . S
C274 C275 1.338 . S
C274 N277 1.377 . S
C274 H294 0.930 . S
C275 N273 1.375 . S
C275 C274 1.338 . S
C275 H279 0.931 . S
C276 N273 1.313 . S
C276 N277 1.344 . S
C276 H280 0.930 . S
N277 C274 1.377 . S
N277 C276 1.344 . S
O278 Co270 2.055 . S
O278 C282 1.253 . S
H279 C275 0.931 . S
H280 C276 0.930 . S
O281 Co270 2.039 . S
O281 C271 1.265 . S
C282 O278 1.253 . S
C282 O283 1.227 . S
O283 C282 1.227 . S
N284 Co270 2.140 . S
N284 C287 1.346 . S
N284 C288 1.345 . S
C285 C286 1.387 . S
C285 C289 1.391 . S
C286 C285 1.387 . S
C286 C287 1.369 . S
C286 H295 0.929 . S
C287 N284 1.346 . S
C287 C286 1.369 . S
C287 H290 0.928 . S
C288 N284 1.345 . S
C288 C289 1.371 . S
C288 H291 0.931 . S
C289 C285 1.391 . S
C289 C288 1.371 . S
C289 H296 0.930 . S
H290 C287 0.928 . S
H291 C288 0.931 . S
H292 C268 0.930 . S
H293 C265 0.930 . S
H294 C274 0.930 . S
H295 C286 0.929 . S
H296 C289 0.930 . S
C297 C298 1.351 . S
C297 N300 1.368 . S
C297 H302 0.931 . S
C298 C297 1.351 . S
C298 N299 1.373 . S
C298 H326 0.930 . S
N299 C298 1.373 . S
N299 C301 1.340 . S
N300 C297 1.368 . S
N300 C301 1.321 . S
N300 Co303 2.135 . S
C301 N299 1.340 . S
C301 N300 1.321 . S
C301 H325 0.930 . S
H302 C297 0.931 . S
Co303 N300 2.135 . S
Co303 N306 2.121 . S
Co303 O311 2.055 . S
Co303 O314 2.039 . S
Co303 N317 2.140 . S
C304 O305 1.227 . S
C304 O314 1.265 . S
O305 C304 1.227 . S
N306 Co303 2.121 . S
N306 C308 1.375 . S
N306 C309 1.313 . S
C307 C308 1.338 . S
C307 N310 1.377 . S
C307 H327 0.930 . S
C308 N306 1.375 . S
C308 C307 1.338 . S
C308 H312 0.931 . S
C309 N306 1.313 . S
C309 N310 1.344 . S
C309 H313 0.930 . S
N310 C307 1.377 . S
N310 C309 1.344 . S
O311 Co303 2.055 . S
O311 C315 1.253 . S
H312 C308 0.931 . S
H313 C309 0.930 . S
O314 Co303 2.039 . S
O314 C304 1.265 . S
C315 O311 1.253 . S
C315 O316 1.227 . S
O316 C315 1.227 . S
N317 Co303 2.140 . S
N317 C320 1.346 . S
N317 C321 1.345 . S
C318 C319 1.387 . S
C318 C322 1.391 . S
C319 C318 1.387 . S
C319 C320 1.369 . S
C319 H328 0.929 . S
C320 N317 1.346 . S
C320 C319 1.369 . S
C320 H323 0.928 . S
C321 N317 1.345 . S
C321 C322 1.371 . S
C321 H324 0.931 . S
C322 C318 1.391 . S
C322 C321 1.371 . S
C322 H329 0.930 . S
H323 C320 0.928 . S
H324 C321 0.931 . S
H325 C301 0.930 . S
H326 C298 0.930 . S
H327 C307 0.930 . S
H328 C319 0.929 . S
H329 C322 0.930 . S
C330 C331 1.351 . S
C330 N333 1.368 . S
C330 H335 0.931 . S
C331 C330 1.351 . S
C331 N332 1.373 . S
C331 H359 0.930 . S
N332 C331 1.373 . S
N332 C334 1.340 . S
N333 C330 1.368 . S
N333 C334 1.321 . S
N333 Co336 2.135 . S
C334 N332 1.340 . S
C334 N333 1.321 . S
C334 H358 0.930 . S
H335 C330 0.931 . S
Co336 N333 2.135 . S
Co336 N339 2.121 . S
Co336 O344 2.055 . S
Co336 O347 2.039 . S
Co336 N350 2.140 . S
C337 O338 1.227 . S
C337 O347 1.265 . S
O338 C337 1.227 . S
N339 Co336 2.121 . S
N339 C341 1.375 . S
N339 C342 1.313 . S
C340 C341 1.338 . S
C340 N343 1.377 . S
C340 H360 0.930 . S
C341 N339 1.375 . S
C341 C340 1.338 . S
C341 H345 0.931 . S
C342 N339 1.313 . S
C342 N343 1.344 . S
C342 H346 0.930 . S
N343 C340 1.377 . S
N343 C342 1.344 . S
O344 Co336 2.055 . S
O344 C348 1.253 . S
H345 C341 0.931 . S
H346 C342 0.930 . S
O347 Co336 2.039 . S
O347 C337 1.265 . S
C348 O344 1.253 . S
C348 O349 1.227 . S
O349 C348 1.227 . S
N350 Co336 2.140 . S
N350 C353 1.346 . S
N350 C354 1.345 . S
C351 C352 1.387 . S
C351 C355 1.391 . S
C352 C351 1.387 . S
C352 C353 1.369 . S
C352 H361 0.929 . S
C353 N350 1.346 . S
C353 C352 1.369 . S
C353 H356 0.928 . S
C354 N350 1.345 . S
C354 C355 1.371 . S
C354 H357 0.931 . S
C355 C351 1.391 . S
C355 C354 1.371 . S
C355 H362 0.930 . S
H356 C353 0.928 . S
H357 C354 0.931 . S
H358 C334 0.930 . S
H359 C331 0.930 . S
H360 C340 0.930 . S
H361 C352 0.929 . S
H362 C355 0.930 . S
C363 C364 1.351 . S
C363 N366 1.368 . S
C363 H368 0.931 . S
C364 C363 1.351 . S
C364 N365 1.373 . S
C364 H392 0.930 . S
N365 C364 1.373 . S
N365 C367 1.340 . S
N366 C363 1.368 . S
N366 C367 1.321 . S
N366 Co369 2.135 . S
C367 N365 1.340 . S
C367 N366 1.321 . S
C367 H391 0.930 . S
H368 C363 0.931 . S
Co369 N366 2.135 . S
Co369 N372 2.121 . S
Co369 O377 2.055 . S
Co369 O380 2.039 . S
Co369 N383 2.140 . S
C370 O371 1.227 . S
C370 O380 1.265 . S
O371 C370 1.227 . S
N372 Co369 2.121 . S
N372 C374 1.375 . S
N372 C375 1.313 . S
C373 C374 1.338 . S
C373 N376 1.377 . S
C373 H393 0.930 . S
C374 N372 1.375 . S
C374 C373 1.338 . S
C374 H378 0.931 . S
C375 N372 1.313 . S
C375 N376 1.344 . S
C375 H379 0.930 . S
N376 C373 1.377 . S
N376 C375 1.344 . S
O377 Co369 2.055 . S
O377 C381 1.253 . S
H378 C374 0.931 . S
H379 C375 0.930 . S
O380 Co369 2.039 . S
O380 C370 1.265 . S
C381 O377 1.253 . S
C381 O382 1.227 . S
O382 C381 1.227 . S
N383 Co369 2.140 . S
N383 C386 1.346 . S
N383 C387 1.345 . S
C384 C385 1.387 . S
C384 C388 1.391 . S
C385 C384 1.387 . S
C385 C386 1.369 . S
C385 H394 0.929 . S
C386 N383 1.346 . S
C386 C385 1.369 . S
C386 H389 0.928 . S
C387 N383 1.345 . S
C387 C388 1.371 . S
C387 H390 0.931 . S
C388 C384 1.391 . S
C388 C387 1.371 . S
C388 H395 0.930 . S
H389 C386 0.928 . S
H390 C387 0.931 . S
H391 C367 0.930 . S
H392 C364 0.930 . S
H393 C373 0.930 . S
H394 C385 0.929 . S
H395 C388 0.930 . S
C396 C397 1.351 . S
C396 N399 1.368 . S
C396 H401 0.931 . S
C397 C396 1.351 . S
C397 N398 1.373 . S
C397 H425 0.930 . S
N398 C397 1.373 . S
N398 C400 1.340 . S
N399 C396 1.368 . S
N399 C400 1.321 . S
N399 Co402 2.135 . S
C400 N398 1.340 . S
C400 N399 1.321 . S
C400 H424 0.930 . S
H401 C396 0.931 . S
Co402 N399 2.135 . S
Co402 N405 2.121 . S
Co402 O410 2.055 . S
Co402 O413 2.039 . S
Co402 N416 2.140 . S
C403 O404 1.227 . S
C403 O413 1.265 . S
O404 C403 1.227 . S
N405 Co402 2.121 . S
N405 C407 1.375 . S
N405 C408 1.313 . S
C406 C407 1.338 . S
C406 N409 1.377 . S
C406 H426 0.930 . S
C407 N405 1.375 . S
C407 C406 1.338 . S
C407 H411 0.931 . S
C408 N405 1.313 . S
C408 N409 1.344 . S
C408 H412 0.930 . S
N409 C406 1.377 . S
N409 C408 1.344 . S
O410 Co402 2.055 . S
O410 C414 1.253 . S
H411 C407 0.931 . S
H412 C408 0.930 . S
O413 Co402 2.039 . S
O413 C403 1.265 . S
C414 O410 1.253 . S
C414 O415 1.227 . S
O415 C414 1.227 . S
N416 Co402 2.140 . S
N416 C419 1.346 . S
N416 C420 1.345 . S
C417 C418 1.387 . S
C417 C421 1.391 . S
C418 C417 1.387 . S
C418 C419 1.369 . S
C418 H427 0.929 . S
C419 N416 1.346 . S
C419 C418 1.369 . S
C419 H422 0.928 . S
C420 N416 1.345 . S
C420 C421 1.371 . S
C420 H423 0.931 . S
C421 C417 1.391 . S
C421 C420 1.371 . S
C421 H428 0.930 . S
H422 C419 0.928 . S
H423 C420 0.931 . S
H424 C400 0.930 . S
H425 C397 0.930 . S
H426 C406 0.930 . S
H427 C418 0.929 . S
H428 C421 0.930 . S
C429 C430 1.351 . S
C429 N432 1.368 . S
C429 H434 0.931 . S
C430 C429 1.351 . S
C430 N431 1.373 . S
C430 H458 0.930 . S
N431 C430 1.373 . S
N431 C433 1.340 . S
N432 C429 1.368 . S
N432 C433 1.321 . S
N432 Co435 2.135 . S
C433 N431 1.340 . S
C433 N432 1.321 . S
C433 H457 0.930 . S
H434 C429 0.931 . S
Co435 N432 2.135 . S
Co435 N438 2.121 . S
Co435 O443 2.055 . S
Co435 O446 2.039 . S
Co435 N449 2.140 . S
C436 O437 1.227 . S
C436 O446 1.265 . S
O437 C436 1.227 . S
N438 Co435 2.121 . S
N438 C440 1.375 . S
N438 C441 1.313 . S
C439 C440 1.338 . S
C439 N442 1.377 . S
C439 H459 0.930 . S
C440 N438 1.375 . S
C440 C439 1.338 . S
C440 H444 0.931 . S
C441 N438 1.313 . S
C441 N442 1.344 . S
C441 H445 0.930 . S
N442 C439 1.377 . S
N442 C441 1.344 . S
O443 Co435 2.055 . S
O443 C447 1.253 . S
H444 C440 0.931 . S
H445 C441 0.930 . S
O446 Co435 2.039 . S
O446 C436 1.265 . S
C447 O443 1.253 . S
C447 O448 1.227 . S
O448 C447 1.227 . S
N449 Co435 2.140 . S
N449 C452 1.346 . S
N449 C453 1.345 . S
C450 C451 1.387 . S
C450 C454 1.391 . S
C451 C450 1.387 . S
C451 C452 1.369 . S
C451 H460 0.929 . S
C452 N449 1.346 . S
C452 C451 1.369 . S
C452 H455 0.928 . S
C453 N449 1.345 . S
C453 C454 1.371 . S
C453 H456 0.931 . S
C454 C450 1.391 . S
C454 C453 1.371 . S
C454 H461 0.930 . S
H455 C452 0.928 . S
H456 C453 0.931 . S
H457 C433 0.930 . S
H458 C430 0.930 . S
H459 C439 0.930 . S
H460 C451 0.929 . S
H461 C454 0.930 . S
C462 C463 1.351 . S
C462 N465 1.368 . S
C462 H467 0.931 . S
C463 C462 1.351 . S
C463 N464 1.373 . S
C463 H491 0.930 . S
N464 C463 1.373 . S
N464 C466 1.340 . S
N465 C462 1.368 . S
N465 C466 1.321 . S
N465 Co468 2.135 . S
C466 N464 1.340 . S
C466 N465 1.321 . S
C466 H490 0.930 . S
H467 C462 0.931 . S
Co468 N465 2.135 . S
Co468 N471 2.121 . S
Co468 O476 2.055 . S
Co468 O479 2.039 . S
Co468 N482 2.140 . S
C469 O470 1.227 . S
C469 O479 1.265 . S
O470 C469 1.227 . S
N471 Co468 2.121 . S
N471 C473 1.375 . S
N471 C474 1.313 . S
C472 C473 1.338 . S
C472 N475 1.377 . S
C472 H492 0.930 . S
C473 N471 1.375 . S
C473 C472 1.338 . S
C473 H477 0.931 . S
C474 N471 1.313 . S
C474 N475 1.344 . S
C474 H478 0.930 . S
N475 C472 1.377 . S
N475 C474 1.344 . S
O476 Co468 2.055 . S
O476 C480 1.253 . S
H477 C473 0.931 . S
H478 C474 0.930 . S
O479 Co468 2.039 . S
O479 C469 1.265 . S
C480 O476 1.253 . S
C480 O481 1.227 . S
O481 C480 1.227 . S
N482 Co468 2.140 . S
N482 C485 1.346 . S
N482 C486 1.345 . S
C483 C484 1.387 . S
C483 C487 1.391 . S
C484 C483 1.387 . S
C484 C485 1.369 . S
C484 H493 0.929 . S
C485 N482 1.346 . S
C485 C484 1.369 . S
C485 H488 0.928 . S
C486 N482 1.345 . S
C486 C487 1.371 . S
C486 H489 0.931 . S
C487 C483 1.391 . S
C487 C486 1.371 . S
C487 H494 0.930 . S
H488 C485 0.928 . S
H489 C486 0.931 . S
H490 C466 0.930 . S
H491 C463 0.930 . S
H492 C472 0.930 . S
H493 C484 0.929 . S
H494 C487 0.930 . S
C495 C496 1.351 . S
C495 N498 1.368 . S
C495 H500 0.931 . S
C496 C495 1.351 . S
C496 N497 1.373 . S
C496 H524 0.930 . S
N497 C496 1.373 . S
N497 C499 1.340 . S
N498 C495 1.368 . S
N498 C499 1.321 . S
N498 Co501 2.135 . S
C499 N497 1.340 . S
C499 N498 1.321 . S
C499 H523 0.930 . S
H500 C495 0.931 . S
Co501 N498 2.135 . S
Co501 N504 2.121 . S
Co501 O509 2.055 . S
Co501 O512 2.039 . S
Co501 N515 2.140 . S
C502 O503 1.227 . S
C502 O512 1.265 . S
O503 C502 1.227 . S
N504 Co501 2.121 . S
N504 C506 1.375 . S
N504 C507 1.313 . S
C505 C506 1.338 . S
C505 N508 1.377 . S
C505 H525 0.930 . S
C506 N504 1.375 . S
C506 C505 1.338 . S
C506 H510 0.931 . S
C507 N504 1.313 . S
C507 N508 1.344 . S
C507 H511 0.930 . S
N508 C505 1.377 . S
N508 C507 1.344 . S
O509 Co501 2.055 . S
O509 C513 1.253 . S
H510 C506 0.931 . S
H511 C507 0.930 . S
O512 Co501 2.039 . S
O512 C502 1.265 . S
C513 O509 1.253 . S
C513 O514 1.227 . S
O514 C513 1.227 . S
N515 Co501 2.140 . S
N515 C518 1.346 . S
N515 C519 1.345 . S
C516 C517 1.387 . S
C516 C520 1.391 . S
C517 C516 1.387 . S
C517 C518 1.369 . S
C517 H526 0.929 . S
C518 N515 1.346 . S
C518 C517 1.369 . S
C518 H521 0.928 . S
C519 N515 1.345 . S
C519 C520 1.371 . S
C519 H522 0.931 . S
C520 C516 1.391 . S
C520 C519 1.371 . S
C520 H527 0.930 . S
H521 C518 0.928 . S
H522 C519 0.931 . S
H523 C499 0.930 . S
H524 C496 0.930 . S
H525 C505 0.930 . S
H526 C517 0.929 . S
H527 C520 0.930 . S
C528 C529 1.351 . S
C528 N531 1.368 . S
C528 H533 0.931 . S
C529 C528 1.351 . S
C529 N530 1.373 . S
C529 H557 0.930 . S
N530 C529 1.373 . S
N530 C532 1.340 . S
N531 C528 1.368 . S
N531 C532 1.321 . S
N531 Co534 2.135 . S
C532 N530 1.340 . S
C532 N531 1.321 . S
C532 H556 0.930 . S
H533 C528 0.931 . S
Co534 N531 2.135 . S
Co534 N537 2.121 . S
Co534 O542 2.055 . S
Co534 O545 2.039 . S
Co534 N548 2.140 . S
C535 O536 1.227 . S
C535 O545 1.265 . S
O536 C535 1.227 . S
N537 Co534 2.121 . S
N537 C539 1.375 . S
N537 C540 1.313 . S
C538 C539 1.338 . S
C538 N541 1.377 . S
C538 H558 0.930 . S
C539 N537 1.375 . S
C539 C538 1.338 . S
C539 H543 0.931 . S
C540 N537 1.313 . S
C540 N541 1.344 . S
C540 H544 0.930 . S
N541 C538 1.377 . S
N541 C540 1.344 . S
O542 Co534 2.055 . S
O542 C546 1.253 . S
H543 C539 0.931 . S
H544 C540 0.930 . S
O545 Co534 2.039 . S
O545 C535 1.265 . S
C546 O542 1.253 . S
C546 O547 1.227 . S
O547 C546 1.227 . S
N548 Co534 2.140 . S
N548 C551 1.346 . S
N548 C552 1.345 . S
C549 C550 1.387 . S
C549 C553 1.391 . S
C550 C549 1.387 . S
C550 C551 1.369 . S
C550 H559 0.929 . S
C551 N548 1.346 . S
C551 C550 1.369 . S
C551 H554 0.928 . S
C552 N548 1.345 . S
C552 C553 1.371 . S
C552 H555 0.931 . S
C553 C549 1.391 . S
C553 C552 1.371 . S
C553 H560 0.930 . S
H554 C551 0.928 . S
H555 C552 0.931 . S
H556 C532 0.930 . S
H557 C529 0.930 . S
H558 C538 0.930 . S
H559 C550 0.929 . S
H560 C553 0.930 . S
C561 C562 1.351 . S
C561 N564 1.368 . S
C561 H566 0.931 . S
C562 C561 1.351 . S
C562 N563 1.373 . S
C562 H590 0.930 . S
N563 C562 1.373 . S
N563 C565 1.340 . S
N564 C561 1.368 . S
N564 C565 1.321 . S
N564 Co567 2.135 . S
C565 N563 1.340 . S
C565 N564 1.321 . S
C565 H589 0.930 . S
H566 C561 0.931 . S
Co567 N564 2.135 . S
Co567 N570 2.121 . S
Co567 O575 2.055 . S
Co567 O578 2.039 . S
Co567 N581 2.140 . S
C568 O569 1.227 . S
C568 O578 1.265 . S
O569 C568 1.227 . S
N570 Co567 2.121 . S
N570 C572 1.375 . S
N570 C573 1.313 . S
C571 C572 1.338 . S
C571 N574 1.377 . S
C571 H591 0.930 . S
C572 N570 1.375 . S
C572 C571 1.338 . S
C572 H576 0.931 . S
C573 N570 1.313 . S
C573 N574 1.344 . S
C573 H577 0.930 . S
N574 C571 1.377 . S
N574 C573 1.344 . S
O575 Co567 2.055 . S
O575 C579 1.253 . S
H576 C572 0.931 . S
H577 C573 0.930 . S
O578 Co567 2.039 . S
O578 C568 1.265 . S
C579 O575 1.253 . S
C579 O580 1.227 . S
O580 C579 1.227 . S
N581 Co567 2.140 . S
N581 C584 1.346 . S
N581 C585 1.345 . S
C582 C583 1.387 . S
C582 C586 1.391 . S
C583 C582 1.387 . S
C583 C584 1.369 . S
C583 H592 0.929 . S
C584 N581 1.346 . S
C584 C583 1.369 . S
C584 H587 0.928 . S
C585 N581 1.345 . S
C585 C586 1.371 . S
C585 H588 0.931 . S
C586 C582 1.391 . S
C586 C585 1.371 . S
C586 H593 0.930 . S
H587 C584 0.928 . S
H588 C585 0.931 . S
H589 C565 0.930 . S
H590 C562 0.930 . S
H591 C571 0.930 . S
H592 C583 0.929 . S
H593 C586 0.930 . S
C594 C595 1.351 . S
C594 N597 1.368 . S
C594 H599 0.931 . S
C595 C594 1.351 . S
C595 N596 1.373 . S
C595 H623 0.930 . S
N596 C595 1.373 . S
N596 C598 1.340 . S
N597 C594 1.368 . S
N597 C598 1.321 . S
N597 Co600 2.135 . S
C598 N596 1.340 . S
C598 N597 1.321 . S
C598 H622 0.930 . S
H599 C594 0.931 . S
Co600 N597 2.135 . S
Co600 N603 2.121 . S
Co600 O608 2.055 . S
Co600 O611 2.039 . S
Co600 N614 2.140 . S
C601 O602 1.227 . S
C601 O611 1.265 . S
O602 C601 1.227 . S
N603 Co600 2.121 . S
N603 C605 1.375 . S
N603 C606 1.313 . S
C604 C605 1.338 . S
C604 N607 1.377 . S
C604 H624 0.930 . S
C605 N603 1.375 . S
C605 C604 1.338 . S
C605 H609 0.931 . S
C606 N603 1.313 . S
C606 N607 1.344 . S
C606 H610 0.930 . S
N607 C604 1.377 . S
N607 C606 1.344 . S
O608 Co600 2.055 . S
O608 C612 1.253 . S
H609 C605 0.931 . S
H610 C606 0.930 . S
O611 Co600 2.039 . S
O611 C601 1.265 . S
C612 O608 1.253 . S
C612 O613 1.227 . S
O613 C612 1.227 . S
N614 Co600 2.140 . S
N614 C617 1.346 . S
N614 C618 1.345 . S
C615 C616 1.387 . S
C615 C619 1.391 . S
C616 C615 1.387 . S
C616 C617 1.369 . S
C616 H625 0.929 . S
C617 N614 1.346 . S
C617 C616 1.369 . S
C617 H620 0.928 . S
C618 N614 1.345 . S
C618 C619 1.371 . S
C618 H621 0.931 . S
C619 C615 1.391 . S
C619 C618 1.371 . S
C619 H626 0.930 . S
H620 C617 0.928 . S
H621 C618 0.931 . S
H622 C598 0.930 . S
H623 C595 0.930 . S
H624 C604 0.930 . S
H625 C616 0.929 . S
H626 C619 0.930 . S
C627 C628 1.351 . S
C627 N630 1.368 . S
C627 H632 0.931 . S
C628 C627 1.351 . S
C628 N629 1.373 . S
C628 H656 0.930 . S
N629 C628 1.373 . S
N629 C631 1.340 . S
N630 C627 1.368 . S
N630 C631 1.321 . S
N630 Co633 2.135 . S
C631 N629 1.340 . S
C631 N630 1.321 . S
C631 H655 0.930 . S
H632 C627 0.931 . S
Co633 N630 2.135 . S
Co633 N636 2.121 . S
Co633 O641 2.055 . S
Co633 O644 2.039 . S
Co633 N647 2.140 . S
C634 O635 1.227 . S
C634 O644 1.265 . S
O635 C634 1.227 . S
N636 Co633 2.121 . S
N636 C638 1.375 . S
N636 C639 1.313 . S
C637 C638 1.338 . S
C637 N640 1.377 . S
C637 H657 0.930 . S
C638 N636 1.375 . S
C638 C637 1.338 . S
C638 H642 0.931 . S
C639 N636 1.313 . S
C639 N640 1.344 . S
C639 H643 0.930 . S
N640 C637 1.377 . S
N640 C639 1.344 . S
O641 Co633 2.055 . S
O641 C645 1.253 . S
H642 C638 0.931 . S
H643 C639 0.930 . S
O644 Co633 2.039 . S
O644 C634 1.265 . S
C645 O641 1.253 . S
C645 O646 1.227 . S
O646 C645 1.227 . S
N647 Co633 2.140 . S
N647 C650 1.346 . S
N647 C651 1.345 . S
C648 C649 1.387 . S
C648 C652 1.391 . S
C649 C648 1.387 . S
C649 C650 1.369 . S
C649 H658 0.929 . S
C650 N647 1.346 . S
C650 C649 1.369 . S
C650 H653 0.928 . S
C651 N647 1.345 . S
C651 C652 1.371 . S
C651 H654 0.931 . S
C652 C648 1.391 . S
C652 C651 1.371 . S
C652 H659 0.930 . S
H653 C650 0.928 . S
H654 C651 0.931 . S
H655 C631 0.930 . S
H656 C628 0.930 . S
H657 C637 0.930 . S
H658 C649 0.929 . S
H659 C652 0.930 . S
C660 C661 1.351 . S
C660 N663 1.368 . S
C660 H665 0.931 . S
C661 C660 1.351 . S
C661 N662 1.373 . S
C661 H689 0.930 . S
N662 C661 1.373 . S
N662 C664 1.340 . S
N663 C660 1.368 . S
N663 C664 1.321 . S
N663 Co666 2.135 . S
C664 N662 1.340 . S
C664 N663 1.321 . S
C664 H688 0.930 . S
H665 C660 0.931 . S
Co666 N663 2.135 . S
Co666 N669 2.121 . S
Co666 O674 2.055 . S
Co666 O677 2.039 . S
Co666 N680 2.140 . S
C667 O668 1.227 . S
C667 O677 1.265 . S
O668 C667 1.227 . S
N669 Co666 2.121 . S
N669 C671 1.375 . S
N669 C672 1.313 . S
C670 C671 1.338 . S
C670 N673 1.377 . S
C670 H690 0.930 . S
C671 N669 1.375 . S
C671 C670 1.338 . S
C671 H675 0.931 . S
C672 N669 1.313 . S
C672 N673 1.344 . S
C672 H676 0.930 . S
N673 C670 1.377 . S
N673 C672 1.344 . S
O674 Co666 2.055 . S
O674 C678 1.253 . S
H675 C671 0.931 . S
H676 C672 0.930 . S
O677 Co666 2.039 . S
O677 C667 1.265 . S
C678 O674 1.253 . S
C678 O679 1.227 . S
O679 C678 1.227 . S
N680 Co666 2.140 . S
N680 C683 1.346 . S
N680 C684 1.345 . S
C681 C682 1.387 . S
C681 C685 1.391 . S
C682 C681 1.387 . S
C682 C683 1.369 . S
C682 H691 0.929 . S
C683 N680 1.346 . S
C683 C682 1.369 . S
C683 H686 0.928 . S
C684 N680 1.345 . S
C684 C685 1.371 . S
C684 H687 0.931 . S
C685 C681 1.391 . S
C685 C684 1.371 . S
C685 H692 0.930 . S
H686 C683 0.928 . S
H687 C684 0.931 . S
H688 C664 0.930 . S
H689 C661 0.930 . S
H690 C670 0.930 . S
H691 C682 0.929 . S
H692 C685 0.930 . S
C693 C694 1.351 . S
C693 N696 1.368 . S
C693 H698 0.931 . S
C694 C693 1.351 . S
C694 N695 1.373 . S
C694 H722 0.930 . S
N695 C694 1.373 . S
N695 C697 1.340 . S
N696 C693 1.368 . S
N696 C697 1.321 . S
N696 Co699 2.135 . S
C697 N695 1.340 . S
C697 N696 1.321 . S
C697 H721 0.930 . S
H698 C693 0.931 . S
Co699 N696 2.135 . S
Co699 N702 2.121 . S
Co699 O707 2.055 . S
Co699 O710 2.039 . S
Co699 N713 2.140 . S
C700 O701 1.227 . S
C700 O710 1.265 . S
O701 C700 1.227 . S
N702 Co699 2.121 . S
N702 C704 1.375 . S
N702 C705 1.313 . S
C703 C704 1.338 . S
C703 N706 1.377 . S
C703 H723 0.930 . S
C704 N702 1.375 . S
C704 C703 1.338 . S
C704 H708 0.931 . S
C705 N702 1.313 . S
C705 N706 1.344 . S
C705 H709 0.930 . S
N706 C703 1.377 . S
N706 C705 1.344 . S
O707 Co699 2.055 . S
O707 C711 1.253 . S
H708 C704 0.931 . S
H709 C705 0.930 . S
O710 Co699 2.039 . S
O710 C700 1.265 . S
C711 O707 1.253 . S
C711 O712 1.227 . S
O712 C711 1.227 . S
N713 Co699 2.140 . S
N713 C716 1.346 . S
N713 C717 1.345 . S
C714 C715 1.387 . S
C714 C718 1.391 . S
C715 C714 1.387 . S
C715 C716 1.369 . S
C715 H724 0.929 . S
C716 N713 1.346 . S
C716 C715 1.369 . S
C716 H719 0.928 . S
C717 N713 1.345 . S
C717 C718 1.371 . S
C717 H720 0.931 . S
C718 C714 1.391 . S
C718 C717 1.371 . S
C718 H725 0.930 . S
H719 C716 0.928 . S
H720 C717 0.931 . S
H721 C697 0.930 . S
H722 C694 0.930 . S
H723 C703 0.930 . S
H724 C715 0.929 . S
H725 C718 0.930 . S
C726 C727 1.351 . S
C726 N729 1.368 . S
C726 H731 0.931 . S
C727 C726 1.351 . S
C727 N728 1.373 . S
C727 H755 0.930 . S
N728 C727 1.373 . S
N728 C730 1.340 . S
N729 C726 1.368 . S
N729 C730 1.321 . S
N729 Co732 2.135 . S
C730 N728 1.340 . S
C730 N729 1.321 . S
C730 H754 0.930 . S
H731 C726 0.931 . S
Co732 N729 2.135 . S
Co732 N735 2.121 . S
Co732 O740 2.055 . S
Co732 O743 2.039 . S
Co732 N746 2.140 . S
C733 O734 1.227 . S
C733 O743 1.265 . S
O734 C733 1.227 . S
N735 Co732 2.121 . S
N735 C737 1.375 . S
N735 C738 1.313 . S
C736 C737 1.338 . S
C736 N739 1.377 . S
C736 H756 0.930 . S
C737 N735 1.375 . S
C737 C736 1.338 . S
C737 H741 0.931 . S
C738 N735 1.313 . S
C738 N739 1.344 . S
C738 H742 0.930 . S
N739 C736 1.377 . S
N739 C738 1.344 . S
O740 Co732 2.055 . S
O740 C744 1.253 . S
H741 C737 0.931 . S
H742 C738 0.930 . S
O743 Co732 2.039 . S
O743 C733 1.265 . S
C744 O740 1.253 . S
C744 O745 1.227 . S
O745 C744 1.227 . S
N746 Co732 2.140 . S
N746 C749 1.346 . S
N746 C750 1.345 . S
C747 C748 1.387 . S
C747 C751 1.391 . S
C748 C747 1.387 . S
C748 C749 1.369 . S
C748 H757 0.929 . S
C749 N746 1.346 . S
C749 C748 1.369 . S
C749 H752 0.928 . S
C750 N746 1.345 . S
C750 C751 1.371 . S
C750 H753 0.931 . S
C751 C747 1.391 . S
C751 C750 1.371 . S
C751 H758 0.930 . S
H752 C749 0.928 . S
H753 C750 0.931 . S
H754 C730 0.930 . S
H755 C727 0.930 . S
H756 C736 0.930 . S
H757 C748 0.929 . S
H758 C751 0.930 . S
C759 C760 1.351 . S
C759 N762 1.368 . S
C759 H764 0.931 . S
C760 C759 1.351 . S
C760 N761 1.373 . S
C760 H788 0.930 . S
N761 C760 1.373 . S
N761 C763 1.340 . S
N762 C759 1.368 . S
N762 C763 1.321 . S
N762 Co765 2.135 . S
C763 N761 1.340 . S
C763 N762 1.321 . S
C763 H787 0.930 . S
H764 C759 0.931 . S
Co765 N762 2.135 . S
Co765 N768 2.121 . S
Co765 O773 2.055 . S
Co765 O776 2.039 . S
Co765 N779 2.140 . S
C766 O767 1.227 . S
C766 O776 1.265 . S
O767 C766 1.227 . S
N768 Co765 2.121 . S
N768 C770 1.375 . S
N768 C771 1.313 . S
C769 C770 1.338 . S
C769 N772 1.377 . S
C769 H789 0.930 . S
C770 N768 1.375 . S
C770 C769 1.338 . S
C770 H774 0.931 . S
C771 N768 1.313 . S
C771 N772 1.344 . S
C771 H775 0.930 . S
N772 C769 1.377 . S
N772 C771 1.344 . S
O773 Co765 2.055 . S
O773 C777 1.253 . S
H774 C770 0.931 . S
H775 C771 0.930 . S
O776 Co765 2.039 . S
O776 C766 1.265 . S
C777 O773 1.253 . S
C777 O778 1.227 . S
O778 C777 1.227 . S
N779 Co765 2.140 . S
N779 C782 1.346 . S
N779 C783 1.345 . S
C780 C781 1.387 . S
C780 C784 1.391 . S
C781 C780 1.387 . S
C781 C782 1.369 . S
C781 H790 0.929 . S
C782 N779 1.346 . S
C782 C781 1.369 . S
C782 H785 0.928 . S
C783 N779 1.345 . S
C783 C784 1.371 . S
C783 H786 0.931 . S
C784 C780 1.391 . S
C784 C783 1.371 . S
C784 H791 0.930 . S
H785 C782 0.928 . S
H786 C783 0.931 . S
H787 C763 0.930 . S
H788 C760 0.930 . S
H789 C769 0.930 . S
H790 C781 0.929 . S
H791 C784 0.930 . S
C792 C793 1.351 . S
C792 N795 1.368 . S
C792 H797 0.931 . S
C793 C792 1.351 . S
C793 N794 1.373 . S
C793 H821 0.930 . S
N794 C793 1.373 . S
N794 C796 1.340 . S
N795 C792 1.368 . S
N795 C796 1.321 . S
N795 Co798 2.135 . S
C796 N794 1.340 . S
C796 N795 1.321 . S
C796 H820 0.930 . S
H797 C792 0.931 . S
Co798 N795 2.135 . S
Co798 N801 2.121 . S
Co798 O806 2.055 . S
Co798 O809 2.039 . S
Co798 N812 2.140 . S
C799 O800 1.227 . S
C799 O809 1.265 . S
O800 C799 1.227 . S
N801 Co798 2.121 . S
N801 C803 1.375 . S
N801 C804 1.313 . S
C802 C803 1.338 . S
C802 N805 1.377 . S
C802 H822 0.930 . S
C803 N801 1.375 . S
C803 C802 1.338 . S
C803 H807 0.931 . S
C804 N801 1.313 . S
C804 N805 1.344 . S
C804 H808 0.930 . S
N805 C802 1.377 . S
N805 C804 1.344 . S
O806 Co798 2.055 . S
O806 C810 1.253 . S
H807 C803 0.931 . S
H808 C804 0.930 . S
O809 Co798 2.039 . S
O809 C799 1.265 . S
C810 O806 1.253 . S
C810 O811 1.227 . S
O811 C810 1.227 . S
N812 Co798 2.140 . S
N812 C815 1.346 . S
N812 C816 1.345 . S
C813 C814 1.387 . S
C813 C817 1.391 . S
C814 C813 1.387 . S
C814 C815 1.369 . S
C814 H823 0.929 . S
C815 N812 1.346 . S
C815 C814 1.369 . S
C815 H818 0.928 . S
C816 N812 1.345 . S
C816 C817 1.371 . S
C816 H819 0.931 . S
C817 C813 1.391 . S
C817 C816 1.371 . S
C817 H824 0.930 . S
H818 C815 0.928 . S
H819 C816 0.931 . S
H820 C796 0.930 . S
H821 C793 0.930 . S
H822 C802 0.930 . S
H823 C814 0.929 . S
H824 C817 0.930 . S
C825 C826 1.351 . S
C825 N828 1.368 . S
C825 H830 0.931 . S
C826 C825 1.351 . S
C826 N827 1.373 . S
C826 H854 0.930 . S
N827 C826 1.373 . S
N827 C829 1.340 . S
N828 C825 1.368 . S
N828 C829 1.321 . S
N828 Co831 2.135 . S
C829 N827 1.340 . S
C829 N828 1.321 . S
C829 H853 0.930 . S
H830 C825 0.931 . S
Co831 N828 2.135 . S
Co831 N834 2.121 . S
Co831 O839 2.055 . S
Co831 O842 2.039 . S
Co831 N845 2.140 . S
C832 O833 1.227 . S
C832 O842 1.265 . S
O833 C832 1.227 . S
N834 Co831 2.121 . S
N834 C836 1.375 . S
N834 C837 1.313 . S
C835 C836 1.338 . S
C835 N838 1.377 . S
C835 H855 0.930 . S
C836 N834 1.375 . S
C836 C835 1.338 . S
C836 H840 0.931 . S
C837 N834 1.313 . S
C837 N838 1.344 . S
C837 H841 0.930 . S
N838 C835 1.377 . S
N838 C837 1.344 . S
O839 Co831 2.055 . S
O839 C843 1.253 . S
H840 C836 0.931 . S
H841 C837 0.930 . S
O842 Co831 2.039 . S
O842 C832 1.265 . S
C843 O839 1.253 . S
C843 O844 1.227 . S
O844 C843 1.227 . S
N845 Co831 2.140 . S
N845 C848 1.346 . S
N845 C849 1.345 . S
C846 C847 1.387 . S
C846 C850 1.391 . S
C847 C846 1.387 . S
C847 C848 1.369 . S
C847 H856 0.929 . S
C848 N845 1.346 . S
C848 C847 1.369 . S
C848 H851 0.928 . S
C849 N845 1.345 . S
C849 C850 1.371 . S
C849 H852 0.931 . S
C850 C846 1.391 . S
C850 C849 1.371 . S
C850 H857 0.930 . S
H851 C848 0.928 . S
H852 C849 0.931 . S
H853 C829 0.930 . S
H854 C826 0.930 . S
H855 C835 0.930 . S
H856 C847 0.929 . S
H857 C850 0.930 . S
C858 C859 1.351 . S
C858 N861 1.368 . S
C858 H863 0.931 . S
C859 C858 1.351 . S
C859 N860 1.373 . S
C859 H887 0.930 . S
N860 C859 1.373 . S
N860 C862 1.340 . S
N861 C858 1.368 . S
N861 C862 1.321 . S
N861 Co864 2.135 . S
C862 N860 1.340 . S
C862 N861 1.321 . S
C862 H886 0.930 . S
H863 C858 0.931 . S
Co864 N861 2.135 . S
Co864 N867 2.121 . S
Co864 O872 2.055 . S
Co864 O875 2.039 . S
Co864 N878 2.140 . S
C865 O866 1.227 . S
C865 O875 1.265 . S
O866 C865 1.227 . S
N867 Co864 2.121 . S
N867 C869 1.375 . S
N867 C870 1.313 . S
C868 C869 1.338 . S
C868 N871 1.377 . S
C868 H888 0.930 . S
C869 N867 1.375 . S
C869 C868 1.338 . S
C869 H873 0.931 . S
C870 N867 1.313 . S
C870 N871 1.344 . S
C870 H874 0.930 . S
N871 C868 1.377 . S
N871 C870 1.344 . S
O872 Co864 2.055 . S
O872 C876 1.253 . S
H873 C869 0.931 . S
H874 C870 0.930 . S
O875 Co864 2.039 . S
O875 C865 1.265 . S
C876 O872 1.253 . S
C876 O877 1.227 . S
O877 C876 1.227 . S
N878 Co864 2.140 . S
N878 C881 1.346 . S
N878 C882 1.345 . S
C879 C880 1.387 . S
C879 C883 1.391 . S
C880 C879 1.387 . S
C880 C881 1.369 . S
C880 H889 0.929 . S
C881 N878 1.346 . S
C881 C880 1.369 . S
C881 H884 0.928 . S
C882 N878 1.345 . S
C882 C883 1.371 . S
C882 H885 0.931 . S
C883 C879 1.391 . S
C883 C882 1.371 . S
C883 H890 0.930 . S
H884 C881 0.928 . S
H885 C882 0.931 . S
H886 C862 0.930 . S
H887 C859 0.930 . S
H888 C868 0.930 . S
H889 C880 0.929 . S
H890 C883 0.930 . S
C891 C892 1.351 . S
C891 N894 1.368 . S
C891 H896 0.931 . S
C892 C891 1.351 . S
C892 N893 1.373 . S
C892 H920 0.930 . S
N893 C892 1.373 . S
N893 C895 1.340 . S
N894 C891 1.368 . S
N894 C895 1.321 . S
N894 Co897 2.135 . S
C895 N893 1.340 . S
C895 N894 1.321 . S
C895 H919 0.930 . S
H896 C891 0.931 . S
Co897 N894 2.135 . S
Co897 N900 2.121 . S
Co897 O905 2.055 . S
Co897 O908 2.039 . S
Co897 N911 2.140 . S
C898 O899 1.227 . S
C898 O908 1.265 . S
O899 C898 1.227 . S
N900 Co897 2.121 . S
N900 C902 1.375 . S
N900 C903 1.313 . S
C901 C902 1.338 . S
C901 N904 1.377 . S
C901 H921 0.930 . S
C902 N900 1.375 . S
C902 C901 1.338 . S
C902 H906 0.931 . S
C903 N900 1.313 . S
C903 N904 1.344 . S
C903 H907 0.930 . S
N904 C901 1.377 . S
N904 C903 1.344 . S
O905 Co897 2.055 . S
O905 C909 1.253 . S
H906 C902 0.931 . S
H907 C903 0.930 . S
O908 Co897 2.039 . S
O908 C898 1.265 . S
C909 O905 1.253 . S
C909 O910 1.227 . S
O910 C909 1.227 . S
N911 Co897 2.140 . S
N911 C914 1.346 . S
N911 C915 1.345 . S
C912 C913 1.387 . S
C912 C916 1.391 . S
C913 C912 1.387 . S
C913 C914 1.369 . S
C913 H922 0.929 . S
C914 N911 1.346 . S
C914 C913 1.369 . S
C914 H917 0.928 . S
C915 N911 1.345 . S
C915 C916 1.371 . S
C915 H918 0.931 . S
C916 C912 1.391 . S
C916 C915 1.371 . S
C916 H923 0.930 . S
H917 C914 0.928 . S
H918 C915 0.931 . S
H919 C895 0.930 . S
H920 C892 0.930 . S
H921 C901 0.930 . S
H922 C913 0.929 . S
H923 C916 0.930 . S
C924 C925 1.351 . S
C924 N927 1.368 . S
C924 H929 0.931 . S
C925 C924 1.351 . S
C925 N926 1.373 . S
C925 H953 0.930 . S
N926 C925 1.373 . S
N926 C928 1.340 . S
N927 C924 1.368 . S
N927 C928 1.321 . S
N927 Co930 2.135 . S
C928 N926 1.340 . S
C928 N927 1.321 . S
C928 H952 0.930 . S
H929 C924 0.931 . S
Co930 N927 2.135 . S
Co930 N933 2.121 . S
Co930 O938 2.055 . S
Co930 O941 2.039 . S
Co930 N944 2.140 . S
C931 O932 1.227 . S
C931 O941 1.265 . S
O932 C931 1.227 . S
N933 Co930 2.121 . S
N933 C935 1.375 . S
N933 C936 1.313 . S
C934 C935 1.338 . S
C934 N937 1.377 . S
C934 H954 0.930 . S
C935 N933 1.375 . S
C935 C934 1.338 . S
C935 H939 0.931 . S
C936 N933 1.313 . S
C936 N937 1.344 . S
C936 H940 0.930 . S
N937 C934 1.377 . S
N937 C936 1.344 . S
O938 Co930 2.055 . S
O938 C942 1.253 . S
H939 C935 0.931 . S
H940 C936 0.930 . S
O941 Co930 2.039 . S
O941 C931 1.265 . S
C942 O938 1.253 . S
C942 O943 1.227 . S
O943 C942 1.227 . S
N944 Co930 2.140 . S
N944 C947 1.346 . S
N944 C948 1.345 . S
C945 C946 1.387 . S
C945 C949 1.391 . S
C946 C945 1.387 . S
C946 C947 1.369 . S
C946 H955 0.929 . S
C947 N944 1.346 . S
C947 C946 1.369 . S
C947 H950 0.928 . S
C948 N944 1.345 . S
C948 C949 1.371 . S
C948 H951 0.931 . S
C949 C945 1.391 . S
C949 C948 1.371 . S
C949 H956 0.930 . S
H950 C947 0.928 . S
H951 C948 0.931 . S
H952 C928 0.930 . S
H953 C925 0.930 . S
H954 C934 0.930 . S
H955 C946 0.929 . S
H956 C949 0.930 . S
C957 C958 1.351 . S
C957 N960 1.368 . S
C957 H962 0.931 . S
C958 C957 1.351 . S
C958 N959 1.373 . S
C958 H986 0.930 . S
N959 C958 1.373 . S
N959 C961 1.340 . S
N960 C957 1.368 . S
N960 C961 1.321 . S
N960 Co963 2.135 . S
C961 N959 1.340 . S
C961 N960 1.321 . S
C961 H985 0.930 . S
H962 C957 0.931 . S
Co963 N960 2.135 . S
Co963 N966 2.121 . S
Co963 O971 2.055 . S
Co963 O974 2.039 . S
Co963 N977 2.140 . S
C964 O965 1.227 . S
C964 O974 1.265 . S
O965 C964 1.227 . S
N966 Co963 2.121 . S
N966 C968 1.375 . S
N966 C969 1.313 . S
C967 C968 1.338 . S
C967 N970 1.377 . S
C967 H987 0.930 . S
C968 N966 1.375 . S
C968 C967 1.338 . S
C968 H972 0.931 . S
C969 N966 1.313 . S
C969 N970 1.344 . S
C969 H973 0.930 . S
N970 C967 1.377 . S
N970 C969 1.344 . S
O971 Co963 2.055 . S
O971 C975 1.253 . S
H972 C968 0.931 . S
H973 C969 0.930 . S
O974 Co963 2.039 . S
O974 C964 1.265 . S
C975 O971 1.253 . S
C975 O976 1.227 . S
O976 C975 1.227 . S
N977 Co963 2.140 . S
N977 C980 1.346 . S
N977 C981 1.345 . S
C978 C979 1.387 . S
C978 C982 1.391 . S
C979 C978 1.387 . S
C979 C980 1.369 . S
C979 H988 0.929 . S
C980 N977 1.346 . S
C980 C979 1.369 . S
C980 H983 0.928 . S
C981 N977 1.345 . S
C981 C982 1.371 . S
C981 H984 0.931 . S
C982 C978 1.391 . S
C982 C981 1.371 . S
C982 H989 0.930 . S
H983 C980 0.928 . S
H984 C981 0.931 . S
H985 C961 0.930 . S
H986 C958 0.930 . S
H987 C967 0.930 . S
H988 C979 0.929 . S
H989 C982 0.930 . S
C990 C991 1.351 . S
C990 N993 1.368 . S
C990 H995 0.931 . S
C991 C990 1.351 . S
C991 N992 1.373 . S
C991 H1019 0.930 . S
N992 C991 1.373 . S
N992 C994 1.340 . S
N993 C990 1.368 . S
N993 C994 1.321 . S
N993 Co996 2.135 . S
C994 N992 1.340 . S
C994 N993 1.321 . S
C994 H1018 0.930 . S
H995 C990 0.931 . S
Co996 N993 2.135 . S
Co996 N999 2.121 . S
Co996 O1004 2.055 . S
Co996 O1007 2.039 . S
Co996 N1010 2.140 . S
C997 O998 1.227 . S
C997 O1007 1.265 . S
O998 C997 1.227 . S
N999 Co996 2.121 . S
N999 C1001 1.375 . S
N999 C1002 1.313 . S
C1000 C1001 1.338 . S
C1000 N1003 1.377 . S
C1000 H1020 0.930 . S
C1001 N999 1.375 . S
C1001 C1000 1.338 . S
C1001 H1005 0.931 . S
C1002 N999 1.313 . S
C1002 N1003 1.344 . S
C1002 H1006 0.930 . S
N1003 C1000 1.377 . S
N1003 C1002 1.344 . S
O1004 Co996 2.055 . S
O1004 C1008 1.253 . S
H1005 C1001 0.931 . S
H1006 C1002 0.930 . S
O1007 Co996 2.039 . S
O1007 C997 1.265 . S
C1008 O1004 1.253 . S
C1008 O1009 1.227 . S
O1009 C1008 1.227 . S
N1010 Co996 2.140 . S
N1010 C1013 1.346 . S
N1010 C1014 1.345 . S
C1011 C1012 1.387 . S
C1011 C1015 1.391 . S
C1012 C1011 1.387 . S
C1012 C1013 1.369 . S
C1012 H1021 0.929 . S
C1013 N1010 1.346 . S
C1013 C1012 1.369 . S
C1013 H1016 0.928 . S
C1014 N1010 1.345 . S
C1014 C1015 1.371 . S
C1014 H1017 0.931 . S
C1015 C1011 1.391 . S
C1015 C1014 1.371 . S
C1015 H1022 0.930 . S
H1016 C1013 0.928 . S
H1017 C1014 0.931 . S
H1018 C994 0.930 . S
H1019 C991 0.930 . S
H1020 C1000 0.930 . S
H1021 C1012 0.929 . S
H1022 C1015 0.930 . S
C1023 C1024 1.351 . S
C1023 N1026 1.368 . S
C1023 H1028 0.931 . S
C1024 C1023 1.351 . S
C1024 N1025 1.373 . S
C1024 H1052 0.930 . S
N1025 C1024 1.373 . S
N1025 C1027 1.340 . S
N1026 C1023 1.368 . S
N1026 C1027 1.321 . S
N1026 Co1029 2.135 . S
C1027 N1025 1.340 . S
C1027 N1026 1.321 . S
C1027 H1051 0.930 . S
H1028 C1023 0.931 . S
Co1029 N1026 2.135 . S
Co1029 N1032 2.121 . S
Co1029 O1037 2.055 . S
Co1029 O1040 2.039 . S
Co1029 N1043 2.140 . S
C1030 O1031 1.227 . S
C1030 O1040 1.265 . S
O1031 C1030 1.227 . S
N1032 Co1029 2.121 . S
N1032 C1034 1.375 . S
N1032 C1035 1.313 . S
C1033 C1034 1.338 . S
C1033 N1036 1.377 . S
C1033 H1053 0.930 . S
C1034 N1032 1.375 . S
C1034 C1033 1.338 . S
C1034 H1038 0.931 . S
C1035 N1032 1.313 . S
C1035 N1036 1.344 . S
C1035 H1039 0.930 . S
N1036 C1033 1.377 . S
N1036 C1035 1.344 . S
O1037 Co1029 2.055 . S
O1037 C1041 1.253 . S
H1038 C1034 0.931 . S
H1039 C1035 0.930 . S
O1040 Co1029 2.039 . S
O1040 C1030 1.265 . S
C1041 O1037 1.253 . S
C1041 O1042 1.227 . S
O1042 C1041 1.227 . S
N1043 Co1029 2.140 . S
N1043 C1046 1.346 . S
N1043 C1047 1.345 . S
C1044 C1045 1.387 . S
C1044 C1048 1.391 . S
C1045 C1044 1.387 . S
C1045 C1046 1.369 . S
C1045 H1054 0.929 . S
C1046 N1043 1.346 . S
C1046 C1045 1.369 . S
C1046 H1049 0.928 . S
C1047 N1043 1.345 . S
C1047 C1048 1.371 . S
C1047 H1050 0.931 . S
C1048 C1044 1.391 . S
C1048 C1047 1.371 . S
C1048 H1055 0.930 . S
H1049 C1046 0.928 . S
H1050 C1047 0.931 . S
H1051 C1027 0.930 . S
H1052 C1024 0.930 . S
H1053 C1033 0.930 . S
H1054 C1045 0.929 . S
H1055 C1048 0.930 . S
H1056 C1062 0.930 . S
H1057 C1065 0.930 . S
H1058 C1066 0.930 . S
H1059 C1067 0.930 . S
H1060 C1070 0.930 . S
H1061 C1071 0.930 . S
C1062 H1056 0.930 . S
C1062 C1063 1.355 . S
C1062 C1064 1.415 . S
C1063 C1062 1.355 . S
C1063 C1065 1.419 . S
C1064 C1062 1.415 . S
C1064 C1069 1.425 . S
C1064 C1071 1.409 . S
C1065 H1057 0.930 . S
C1065 C1063 1.419 . S
C1065 C1066 1.362 . S
C1066 H1058 0.930 . S
C1066 C1065 1.362 . S
C1066 C1069 1.409 . S
C1067 H1059 0.930 . S
C1067 C1068 1.355 . S
C1067 C1069 1.415 . S
C1068 C1067 1.355 . S
C1068 C1070 1.419 . S
C1069 C1064 1.425 . S
C1069 C1066 1.409 . S
C1069 C1067 1.415 . S
C1070 H1060 0.930 . S
C1070 C1068 1.419 . S
C1070 C1071 1.362 . S
C1071 H1061 0.930 . S
C1071 C1064 1.409 . S
C1071 C1070 1.362 . S
H1072 C1078 0.930 . S
H1073 C1081 0.930 . S
H1074 C1082 0.930 . S
H1075 C1083 0.930 . S
H1076 C1086 0.930 . S
H1077 C1087 0.930 . S
C1078 H1072 0.930 . S
C1078 C1079 1.355 . S
C1078 C1080 1.415 . S
C1079 C1078 1.355 . S
C1079 C1081 1.419 . S
C1080 C1078 1.415 . S
C1080 C1085 1.425 . S
C1080 C1087 1.409 . S
C1081 H1073 0.930 . S
C1081 C1079 1.419 . S
C1081 C1082 1.362 . S
C1082 H1074 0.930 . S
C1082 C1081 1.362 . S
C1082 C1085 1.409 . S
C1083 H1075 0.930 . S
C1083 C1084 1.355 . S
C1083 C1085 1.415 . S
C1084 C1083 1.355 . S
C1084 C1086 1.419 . S
C1085 C1080 1.425 . S
C1085 C1082 1.409 . S
C1085 C1083 1.415 . S
C1086 H1076 0.930 . S
C1086 C1084 1.419 . S
C1086 C1087 1.362 . S
C1087 H1077 0.930 . S
C1087 C1080 1.409 . S
C1087 C1086 1.362 . S
H1088 C1094 0.930 . S
H1089 C1097 0.930 . S
H1090 C1098 0.930 . S
H1091 C1099 0.930 . S
H1092 C1102 0.930 . S
H1093 C1103 0.930 . S
C1094 H1088 0.930 . S
C1094 C1095 1.355 . S
C1094 C1096 1.415 . S
C1095 C1094 1.355 . S
C1095 C1097 1.419 . S
C1096 C1094 1.415 . S
C1096 C1101 1.425 . S
C1096 C1103 1.409 . S
C1097 H1089 0.930 . S
C1097 C1095 1.419 . S
C1097 C1098 1.362 . S
C1098 H1090 0.930 . S
C1098 C1097 1.362 . S
C1098 C1101 1.409 . S
C1099 H1091 0.930 . S
C1099 C1100 1.355 . S
C1099 C1101 1.415 . S
C1100 C1099 1.355 . S
C1100 C1102 1.419 . S
C1101 C1096 1.425 . S
C1101 C1098 1.409 . S
C1101 C1099 1.415 . S
C1102 H1092 0.930 . S
C1102 C1100 1.419 . S
C1102 C1103 1.362 . S
C1103 H1093 0.930 . S
C1103 C1096 1.409 . S
C1103 C1102 1.362 . S
H1104 C1110 0.930 . S
H1105 C1113 0.930 . S
H1106 C1114 0.930 . S
H1107 C1115 0.930 . S
H1108 C1118 0.930 . S
H1109 C1119 0.930 . S
C1110 H1104 0.930 . S
C1110 C1111 1.355 . S
C1110 C1112 1.415 . S
C1111 C1110 1.355 . S
C1111 C1113 1.419 . S
C1112 C1110 1.415 . S
C1112 C1117 1.425 . S
C1112 C1119 1.409 . S
C1113 H1105 0.930 . S
C1113 C1111 1.419 . S
C1113 C1114 1.362 . S
C1114 H1106 0.930 . S
C1114 C1113 1.362 . S
C1114 C1117 1.409 . S
C1115 H1107 0.930 . S
C1115 C1116 1.355 . S
C1115 C1117 1.415 . S
C1116 C1115 1.355 . S
C1116 C1118 1.419 . S
C1117 C1112 1.425 . S
C1117 C1114 1.409 . S
C1117 C1115 1.415 . S
C1118 H1108 0.930 . S
C1118 C1116 1.419 . S
C1118 C1119 1.362 . S
C1119 H1109 0.930 . S
C1119 C1112 1.409 . S
C1119 C1118 1.362 . S
H1120 C1126 0.930 . S
H1121 C1129 0.930 . S
H1122 C1130 0.930 . S
H1123 C1131 0.930 . S
H1124 C1134 0.930 . S
H1125 C1135 0.930 . S
C1126 H1120 0.930 . S
C1126 C1127 1.355 . S
C1126 C1128 1.415 . S
C1127 C1126 1.355 . S
C1127 C1129 1.419 . S
C1128 C1126 1.415 . S
C1128 C1133 1.425 . S
C1128 C1135 1.409 . S
C1129 H1121 0.930 . S
C1129 C1127 1.419 . S
C1129 C1130 1.362 . S
C1130 H1122 0.930 . S
C1130 C1129 1.362 . S
C1130 C1133 1.409 . S
C1131 H1123 0.930 . S
C1131 C1132 1.355 . S
C1131 C1133 1.415 . S
C1132 C1131 1.355 . S
C1132 C1134 1.419 . S
C1133 C1128 1.425 . S
C1133 C1130 1.409 . S
C1133 C1131 1.415 . S
C1134 H1124 0.930 . S
C1134 C1132 1.419 . S
C1134 C1135 1.362 . S
C1135 H1125 0.930 . S
C1135 C1128 1.409 . S
C1135 C1134 1.362 . S
H1136 C1142 0.930 . S
H1137 C1145 0.930 . S
H1138 C1146 0.930 . S
H1139 C1147 0.930 . S
H1140 C1150 0.930 . S
H1141 C1151 0.930 . S
C1142 H1136 0.930 . S
C1142 C1143 1.355 . S
C1142 C1144 1.415 . S
C1143 C1142 1.355 . S
C1143 C1145 1.419 . S
C1144 C1142 1.415 . S
C1144 C1149 1.425 . S
C1144 C1151 1.409 . S
C1145 H1137 0.930 . S
C1145 C1143 1.419 . S
C1145 C1146 1.362 . S
C1146 H1138 0.930 . S
C1146 C1145 1.362 . S
C1146 C1149 1.409 . S
C1147 H1139 0.930 . S
C1147 C1148 1.355 . S
C1147 C1149 1.415 . S
C1148 C1147 1.355 . S
C1148 C1150 1.419 . S
C1149 C1144 1.425 . S
C1149 C1146 1.409 . S
C1149 C1147 1.415 . S
C1150 H1140 0.930 . S
C1150 C1148 1.419 . S
C1150 C1151 1.362 . S
C1151 H1141 0.930 . S
C1151 C1144 1.409 . S
C1151 C1150 1.362 . S
H1152 C1158 0.930 . S
H1153 C1161 0.930 . S
H1154 C1162 0.930 . S
H1155 C1163 0.930 . S
H1156 C1166 0.930 . S
H1157 C1167 0.930 . S
C1158 H1152 0.930 . S
C1158 C1159 1.355 . S
C1158 C1160 1.415 . S
C1159 C1158 1.355 . S
C1159 C1161 1.419 . S
C1160 C1158 1.415 . S
C1160 C1165 1.425 . S
C1160 C1167 1.409 . S
C1161 H1153 0.930 . S
C1161 C1159 1.419 . S
C1161 C1162 1.362 . S
C1162 H1154 0.930 . S
C1162 C1161 1.362 . S
C1162 C1165 1.409 . S
C1163 H1155 0.930 . S
C1163 C1164 1.355 . S
C1163 C1165 1.415 . S
C1164 C1163 1.355 . S
C1164 C1166 1.419 . S
C1165 C1160 1.425 . S
C1165 C1162 1.409 . S
C1165 C1163 1.415 . S
C1166 H1156 0.930 . S
C1166 C1164 1.419 . S
C1166 C1167 1.362 . S
C1167 H1157 0.930 . S
C1167 C1160 1.409 . S
C1167 C1166 1.362 . S
H1168 C1174 0.930 . S
H1169 C1177 0.930 . S
H1170 C1178 0.930 . S
H1171 C1179 0.930 . S
H1172 C1182 0.930 . S
H1173 C1183 0.930 . S
C1174 H1168 0.930 . S
C1174 C1175 1.355 . S
C1174 C1176 1.415 . S
C1175 C1174 1.355 . S
C1175 C1177 1.419 . S
C1176 C1174 1.415 . S
C1176 C1181 1.425 . S
C1176 C1183 1.409 . S
C1177 H1169 0.930 . S
C1177 C1175 1.419 . S
C1177 C1178 1.362 . S
C1178 H1170 0.930 . S
C1178 C1177 1.362 . S
C1178 C1181 1.409 . S
C1179 H1171 0.930 . S
C1179 C1180 1.355 . S
C1179 C1181 1.415 . S
C1180 C1179 1.355 . S
C1180 C1182 1.419 . S
C1181 C1176 1.425 . S
C1181 C1178 1.409 . S
C1181 C1179 1.415 . S
C1182 H1172 0.930 . S
C1182 C1180 1.419 . S
C1182 C1183 1.362 . S
C1183 H1173 0.930 . S
C1183 C1176 1.409 . S
C1183 C1182 1.362 . S
H1184 C1190 0.930 . S
H1185 C1193 0.930 . S
H1186 C1194 0.930 . S
H1187 C1195 0.930 . S
H1188 C1198 0.930 . S
H1189 C1199 0.930 . S
C1190 H1184 0.930 . S
C1190 C1191 1.355 . S
C1190 C1192 1.415 . S
C1191 C1190 1.355 . S
C1191 C1193 1.419 . S
C1192 C1190 1.415 . S
C1192 C1197 1.425 . S
C1192 C1199 1.409 . S
C1193 H1185 0.930 . S
C1193 C1191 1.419 . S
C1193 C1194 1.362 . S
C1194 H1186 0.930 . S
C1194 C1193 1.362 . S
C1194 C1197 1.409 . S
C1195 H1187 0.930 . S
C1195 C1196 1.355 . S
C1195 C1197 1.415 . S
C1196 C1195 1.355 . S
C1196 C1198 1.419 . S
C1197 C1192 1.425 . S
C1197 C1194 1.409 . S
C1197 C1195 1.415 . S
C1198 H1188 0.930 . S
C1198 C1196 1.419 . S
C1198 C1199 1.362 . S
C1199 H1189 0.930 . S
C1199 C1192 1.409 . S
C1199 C1198 1.362 . S
H1200 C1206 0.930 . S
H1201 C1209 0.930 . S
H1202 C1210 0.930 . S
H1203 C1211 0.930 . S
H1204 C1214 0.930 . S
H1205 C1215 0.930 . S
C1206 H1200 0.930 . S
C1206 C1207 1.355 . S
C1206 C1208 1.415 . S
C1207 C1206 1.355 . S
C1207 C1209 1.419 . S
C1208 C1206 1.415 . S
C1208 C1213 1.425 . S
C1208 C1215 1.409 . S
C1209 H1201 0.930 . S
C1209 C1207 1.419 . S
C1209 C1210 1.362 . S
C1210 H1202 0.930 . S
C1210 C1209 1.362 . S
C1210 C1213 1.409 . S
C1211 H1203 0.930 . S
C1211 C1212 1.355 . S
C1211 C1213 1.415 . S
C1212 C1211 1.355 . S
C1212 C1214 1.419 . S
C1213 C1208 1.425 . S
C1213 C1210 1.409 . S
C1213 C1211 1.415 . S
C1214 H1204 0.930 . S
C1214 C1212 1.419 . S
C1214 C1215 1.362 . S
C1215 H1205 0.930 . S
C1215 C1208 1.409 . S
C1215 C1214 1.362 . S
H1216 C1222 0.930 . S
H1217 C1225 0.930 . S
H1218 C1226 0.930 . S
H1219 C1227 0.930 . S
H1220 C1230 0.930 . S
H1221 C1231 0.930 . S
C1222 H1216 0.930 . S
C1222 C1223 1.355 . S
C1222 C1224 1.415 . S
C1223 C1222 1.355 . S
C1223 C1225 1.419 . S
C1224 C1222 1.415 . S
C1224 C1229 1.425 . S
C1224 C1231 1.409 . S
C1225 H1217 0.930 . S
C1225 C1223 1.419 . S
C1225 C1226 1.362 . S
C1226 H1218 0.930 . S
C1226 C1225 1.362 . S
C1226 C1229 1.409 . S
C1227 H1219 0.930 . S
C1227 C1228 1.355 . S
C1227 C1229 1.415 . S
C1228 C1227 1.355 . S
C1228 C1230 1.419 . S
C1229 C1224 1.425 . S
C1229 C1226 1.409 . S
C1229 C1227 1.415 . S
C1230 H1220 0.930 . S
C1230 C1228 1.419 . S
C1230 C1231 1.362 . S
C1231 H1221 0.930 . S
C1231 C1224 1.409 . S
C1231 C1230 1.362 . S
H1232 C1238 0.930 . S
H1233 C1241 0.930 . S
H1234 C1242 0.930 . S
H1235 C1243 0.930 . S
H1236 C1246 0.930 . S
H1237 C1247 0.930 . S
C1238 H1232 0.930 . S
C1238 C1239 1.355 . S
C1238 C1240 1.415 . S
C1239 C1238 1.355 . S
C1239 C1241 1.419 . S
C1240 C1238 1.415 . S
C1240 C1245 1.425 . S
C1240 C1247 1.409 . S
C1241 H1233 0.930 . S
C1241 C1239 1.419 . S
C1241 C1242 1.362 . S
C1242 H1234 0.930 . S
C1242 C1241 1.362 . S
C1242 C1245 1.409 . S
C1243 H1235 0.930 . S
C1243 C1244 1.355 . S
C1243 C1245 1.415 . S
C1244 C1243 1.355 . S
C1244 C1246 1.419 . S
C1245 C1240 1.425 . S
C1245 C1242 1.409 . S
C1245 C1243 1.415 . S
C1246 H1236 0.930 . S
C1246 C1244 1.419 . S
C1246 C1247 1.362 . S
C1247 H1237 0.930 . S
C1247 C1240 1.409 . S
C1247 C1246 1.362 . S
H1248 C1254 0.930 . S
H1249 C1257 0.930 . S
H1250 C1258 0.930 . S
H1251 C1259 0.930 . S
H1252 C1262 0.930 . S
H1253 C1263 0.930 . S
C1254 H1248 0.930 . S
C1254 C1255 1.355 . S
C1254 C1256 1.415 . S
C1255 C1254 1.355 . S
C1255 C1257 1.419 . S
C1256 C1254 1.415 . S
C1256 C1261 1.425 . S
C1256 C1263 1.409 . S
C1257 H1249 0.930 . S
C1257 C1255 1.419 . S
C1257 C1258 1.362 . S
C1258 H1250 0.930 . S
C1258 C1257 1.362 . S
C1258 C1261 1.409 . S
C1259 H1251 0.930 . S
C1259 C1260 1.355 . S
C1259 C1261 1.415 . S
C1260 C1259 1.355 . S
C1260 C1262 1.419 . S
C1261 C1256 1.425 . S
C1261 C1258 1.409 . S
C1261 C1259 1.415 . S
C1262 H1252 0.930 . S
C1262 C1260 1.419 . S
C1262 C1263 1.362 . S
C1263 H1253 0.930 . S
C1263 C1256 1.409 . S
C1263 C1262 1.362 . S
H1264 C1270 0.930 . S
H1265 C1273 0.930 . S
H1266 C1274 0.930 . S
H1267 C1275 0.930 . S
H1268 C1278 0.930 . S
H1269 C1279 0.930 . S
C1270 H1264 0.930 . S
C1270 C1271 1.355 . S
C1270 C1272 1.415 . S
C1271 C1270 1.355 . S
C1271 C1273 1.419 . S
C1272 C1270 1.415 . S
C1272 C1277 1.425 . S
C1272 C1279 1.409 . S
C1273 H1265 0.930 . S
C1273 C1271 1.419 . S
C1273 C1274 1.362 . S
C1274 H1266 0.930 . S
C1274 C1273 1.362 . S
C1274 C1277 1.409 . S
C1275 H1267 0.930 . S
C1275 C1276 1.355 . S
C1275 C1277 1.415 . S
C1276 C1275 1.355 . S
C1276 C1278 1.419 . S
C1277 C1272 1.425 . S
C1277 C1274 1.409 . S
C1277 C1275 1.415 . S
C1278 H1268 0.930 . S
C1278 C1276 1.419 . S
C1278 C1279 1.362 . S
C1279 H1269 0.930 . S
C1279 C1272 1.409 . S
C1279 C1278 1.362 . S
H1280 C1286 0.930 . S
H1281 C1289 0.930 . S
H1282 C1290 0.930 . S
H1283 C1291 0.930 . S
H1284 C1294 0.930 . S
H1285 C1295 0.930 . S
C1286 H1280 0.930 . S
C1286 C1287 1.355 . S
C1286 C1288 1.415 . S
C1287 C1286 1.355 . S
C1287 C1289 1.419 . S
C1288 C1286 1.415 . S
C1288 C1293 1.425 . S
C1288 C1295 1.409 . S
C1289 H1281 0.930 . S
C1289 C1287 1.419 . S
C1289 C1290 1.362 . S
C1290 H1282 0.930 . S
C1290 C1289 1.362 . S
C1290 C1293 1.409 . S
C1291 H1283 0.930 . S
C1291 C1292 1.355 . S
C1291 C1293 1.415 . S
C1292 C1291 1.355 . S
C1292 C1294 1.419 . S
C1293 C1288 1.425 . S
C1293 C1290 1.409 . S
C1293 C1291 1.415 . S
C1294 H1284 0.930 . S
C1294 C1292 1.419 . S
C1294 C1295 1.362 . S
C1295 H1285 0.930 . S
C1295 C1288 1.409 . S
C1295 C1294 1.362 . S
H1296 C1302 0.930 . S
H1297 C1305 0.930 . S
H1298 C1306 0.930 . S
H1299 C1307 0.930 . S
H1300 C1310 0.930 . S
H1301 C1311 0.930 . S
C1302 H1296 0.930 . S
C1302 C1303 1.355 . S
C1302 C1304 1.415 . S
C1303 C1302 1.355 . S
C1303 C1305 1.419 . S
C1304 C1302 1.415 . S
C1304 C1309 1.425 . S
C1304 C1311 1.409 . S
C1305 H1297 0.930 . S
C1305 C1303 1.419 . S
C1305 C1306 1.362 . S
C1306 H1298 0.930 . S
C1306 C1305 1.362 . S
C1306 C1309 1.409 . S
C1307 H1299 0.930 . S
C1307 C1308 1.355 . S
C1307 C1309 1.415 . S
C1308 C1307 1.355 . S
C1308 C1310 1.419 . S
C1309 C1304 1.425 . S
C1309 C1306 1.409 . S
C1309 C1307 1.415 . S
C1310 H1300 0.930 . S
C1310 C1308 1.419 . S
C1310 C1311 1.362 . S
C1311 H1301 0.930 . S
C1311 C1304 1.409 . S
C1311 C1310 1.362 . S
H1312 C1318 0.930 . S
H1313 C1321 0.930 . S
H1314 C1322 0.930 . S
H1315 C1323 0.930 . S
H1316 C1326 0.930 . S
H1317 C1327 0.930 . S
C1318 H1312 0.930 . S
C1318 C1319 1.355 . S
C1318 C1320 1.415 . S
C1319 C1318 1.355 . S
C1319 C1321 1.419 . S
C1320 C1318 1.415 . S
C1320 C1325 1.425 . S
C1320 C1327 1.409 . S
C1321 H1313 0.930 . S
C1321 C1319 1.419 . S
C1321 C1322 1.362 . S
C1322 H1314 0.930 . S
C1322 C1321 1.362 . S
C1322 C1325 1.409 . S
C1323 H1315 0.930 . S
C1323 C1324 1.355 . S
C1323 C1325 1.415 . S
C1324 C1323 1.355 . S
C1324 C1326 1.419 . S
C1325 C1320 1.425 . S
C1325 C1322 1.409 . S
C1325 C1323 1.415 . S
C1326 H1316 0.930 . S
C1326 C1324 1.419 . S
C1326 C1327 1.362 . S
C1327 H1317 0.930 . S
C1327 C1320 1.409 . S
C1327 C1326 1.362 . S
H1328 C1334 0.930 . S
H1329 C1337 0.930 . S
H1330 C1338 0.930 . S
H1331 C1339 0.930 . S
H1332 C1342 0.930 . S
H1333 C1343 0.930 . S
C1334 H1328 0.930 . S
C1334 C1335 1.355 . S
C1334 C1336 1.415 . S
C1335 C1334 1.355 . S
C1335 C1337 1.419 . S
C1336 C1334 1.415 . S
C1336 C1341 1.425 . S
C1336 C1343 1.409 . S
C1337 H1329 0.930 . S
C1337 C1335 1.419 . S
C1337 C1338 1.362 . S
C1338 H1330 0.930 . S
C1338 C1337 1.362 . S
C1338 C1341 1.409 . S
C1339 H1331 0.930 . S
C1339 C1340 1.355 . S
C1339 C1341 1.415 . S
C1340 C1339 1.355 . S
C1340 C1342 1.419 . S
C1341 C1336 1.425 . S
C1341 C1338 1.409 . S
C1341 C1339 1.415 . S
C1342 H1332 0.930 . S
C1342 C1340 1.419 . S
C1342 C1343 1.362 . S
C1343 H1333 0.930 . S
C1343 C1336 1.409 . S
C1343 C1342 1.362 . S
H1344 C1350 0.930 . S
H1345 C1353 0.930 . S
H1346 C1354 0.930 . S
H1347 C1355 0.930 . S
H1348 C1358 0.930 . S
H1349 C1359 0.930 . S
C1350 H1344 0.930 . S
C1350 C1351 1.355 . S
C1350 C1352 1.415 . S
C1351 C1350 1.355 . S
C1351 C1353 1.419 . S
C1352 C1350 1.415 . S
C1352 C1357 1.425 . S
C1352 C1359 1.409 . S
C1353 H1345 0.930 . S
C1353 C1351 1.419 . S
C1353 C1354 1.362 . S
C1354 H1346 0.930 . S
C1354 C1353 1.362 . S
C1354 C1357 1.409 . S
C1355 H1347 0.930 . S
C1355 C1356 1.355 . S
C1355 C1357 1.415 . S
C1356 C1355 1.355 . S
C1356 C1358 1.419 . S
C1357 C1352 1.425 . S
C1357 C1354 1.409 . S
C1357 C1355 1.415 . S
C1358 H1348 0.930 . S
C1358 C1356 1.419 . S
C1358 C1359 1.362 . S
C1359 H1349 0.930 . S
C1359 C1352 1.409 . S
C1359 C1358 1.362 . S
H1360 C1366 0.930 . S
H1361 C1369 0.930 . S
H1362 C1370 0.930 . S
H1363 C1371 0.930 . S
H1364 C1374 0.930 . S
H1365 C1375 0.930 . S
C1366 H1360 0.930 . S
C1366 C1367 1.355 . S
C1366 C1368 1.415 . S
C1367 C1366 1.355 . S
C1367 C1369 1.419 . S
C1368 C1366 1.415 . S
C1368 C1373 1.425 . S
C1368 C1375 1.409 . S
C1369 H1361 0.930 . S
C1369 C1367 1.419 . S
C1369 C1370 1.362 . S
C1370 H1362 0.930 . S
C1370 C1369 1.362 . S
C1370 C1373 1.409 . S
C1371 H1363 0.930 . S
C1371 C1372 1.355 . S
C1371 C1373 1.415 . S
C1372 C1371 1.355 . S
C1372 C1374 1.419 . S
C1373 C1368 1.425 . S
C1373 C1370 1.409 . S
C1373 C1371 1.415 . S
C1374 H1364 0.930 . S
C1374 C1372 1.419 . S
C1374 C1375 1.362 . S
C1375 H1365 0.930 . S
C1375 C1368 1.409 . S
C1375 C1374 1.362 . S
H1376 C1382 0.930 . S
H1377 C1385 0.930 . S
H1378 C1386 0.930 . S
H1379 C1387 0.930 . S
H1380 C1390 0.930 . S
H1381 C1391 0.930 . S
C1382 H1376 0.930 . S
C1382 C1383 1.355 . S
C1382 C1384 1.415 . S
C1383 C1382 1.355 . S
C1383 C1385 1.419 . S
C1384 C1382 1.415 . S
C1384 C1389 1.425 . S
C1384 C1391 1.409 . S
C1385 H1377 0.930 . S
C1385 C1383 1.419 . S
C1385 C1386 1.362 . S
C1386 H1378 0.930 . S
C1386 C1385 1.362 . S
C1386 C1389 1.409 . S
C1387 H1379 0.930 . S
C1387 C1388 1.355 . S
C1387 C1389 1.415 . S
C1388 C1387 1.355 . S
C1388 C1390 1.419 . S
C1389 C1384 1.425 . S
C1389 C1386 1.409 . S
C1389 C1387 1.415 . S
C1390 H1380 0.930 . S
C1390 C1388 1.419 . S
C1390 C1391 1.362 . S
C1391 H1381 0.930 . S
C1391 C1384 1.409 . S
C1391 C1390 1.362 . S
H1392 C1398 0.930 . S
H1393 C1401 0.930 . S
H1394 C1402 0.930 . S
H1395 C1403 0.930 . S
H1396 C1406 0.930 . S
H1397 C1407 0.930 . S
C1398 H1392 0.930 . S
C1398 C1399 1.355 . S
C1398 C1400 1.415 . S
C1399 C1398 1.355 . S
C1399 C1401 1.419 . S
C1400 C1398 1.415 . S
C1400 C1405 1.425 . S
C1400 C1407 1.409 . S
C1401 H1393 0.930 . S
C1401 C1399 1.419 . S
C1401 C1402 1.362 . S
C1402 H1394 0.930 . S
C1402 C1401 1.362 . S
C1402 C1405 1.409 . S
C1403 H1395 0.930 . S
C1403 C1404 1.355 . S
C1403 C1405 1.415 . S
C1404 C1403 1.355 . S
C1404 C1406 1.419 . S
C1405 C1400 1.425 . S
C1405 C1402 1.409 . S
C1405 C1403 1.415 . S
C1406 H1396 0.930 . S
C1406 C1404 1.419 . S
C1406 C1407 1.362 . S
C1407 H1397 0.930 . S
C1407 C1400 1.409 . S
C1407 C1406 1.362 . S
H1408 C1414 0.930 . S
H1409 C1417 0.930 . S
H1410 C1418 0.930 . S
H1411 C1419 0.930 . S
H1412 C1422 0.930 . S
H1413 C1423 0.930 . S
C1414 H1408 0.930 . S
C1414 C1415 1.355 . S
C1414 C1416 1.415 . S
C1415 C1414 1.355 . S
C1415 C1417 1.419 . S
C1416 C1414 1.415 . S
C1416 C1421 1.425 . S
C1416 C1423 1.409 . S
C1417 H1409 0.930 . S
C1417 C1415 1.419 . S
C1417 C1418 1.362 . S
C1418 H1410 0.930 . S
C1418 C1417 1.362 . S
C1418 C1421 1.409 . S
C1419 H1411 0.930 . S
C1419 C1420 1.355 . S
C1419 C1421 1.415 . S
C1420 C1419 1.355 . S
C1420 C1422 1.419 . S
C1421 C1416 1.425 . S
C1421 C1418 1.409 . S
C1421 C1419 1.415 . S
C1422 H1412 0.930 . S
C1422 C1420 1.419 . S
C1422 C1423 1.362 . S
C1423 H1413 0.930 . S
C1423 C1416 1.409 . S
C1423 C1422 1.362 . S
H1424 C1430 0.930 . S
H1425 C1433 0.930 . S
H1426 C1434 0.930 . S
H1427 C1435 0.930 . S
H1428 C1438 0.930 . S
H1429 C1439 0.930 . S
C1430 H1424 0.930 . S
C1430 C1431 1.355 . S
C1430 C1432 1.415 . S
C1431 C1430 1.355 . S
C1431 C1433 1.419 . S
C1432 C1430 1.415 . S
C1432 C1437 1.425 . S
C1432 C1439 1.409 . S
C1433 H1425 0.930 . S
C1433 C1431 1.419 . S
C1433 C1434 1.362 . S
C1434 H1426 0.930 . S
C1434 C1433 1.362 . S
C1434 C1437 1.409 . S
C1435 H1427 0.930 . S
C1435 C1436 1.355 . S
C1435 C1437 1.415 . S
C1436 C1435 1.355 . S
C1436 C1438 1.419 . S
C1437 C1432 1.425 . S
C1437 C1434 1.409 . S
C1437 C1435 1.415 . S
C1438 H1428 0.930 . S
C1438 C1436 1.419 . S
C1438 C1439 1.362 . S
C1439 H1429 0.930 . S
C1439 C1432 1.409 . S
C1439 C1438 1.362 . S
H1440 C1446 0.930 . S
H1441 C1449 0.930 . S
H1442 C1450 0.930 . S
H1443 C1451 0.930 . S
H1444 C1454 0.930 . S
H1445 C1455 0.930 . S
C1446 H1440 0.930 . S
C1446 C1447 1.355 . S
C1446 C1448 1.415 . S
C1447 C1446 1.355 . S
C1447 C1449 1.419 . S
C1448 C1446 1.415 . S
C1448 C1453 1.425 . S
C1448 C1455 1.409 . S
C1449 H1441 0.930 . S
C1449 C1447 1.419 . S
C1449 C1450 1.362 . S
C1450 H1442 0.930 . S
C1450 C1449 1.362 . S
C1450 C1453 1.409 . S
C1451 H1443 0.930 . S
C1451 C1452 1.355 . S
C1451 C1453 1.415 . S
C1452 C1451 1.355 . S
C1452 C1454 1.419 . S
C1453 C1448 1.425 . S
C1453 C1450 1.409 . S
C1453 C1451 1.415 . S
C1454 H1444 0.930 . S
C1454 C1452 1.419 . S
C1454 C1455 1.362 . S
C1455 H1445 0.930 . S
C1455 C1448 1.409 . S
C1455 C1454 1.362 . S
H1456 C1462 0.930 . S
H1457 C1465 0.930 . S
H1458 C1466 0.930 . S
H1459 C1467 0.930 . S
H1460 C1470 0.930 . S
H1461 C1471 0.930 . S
C1462 H1456 0.930 . S
C1462 C1463 1.355 . S
C1462 C1464 1.415 . S
C1463 C1462 1.355 . S
C1463 C1465 1.419 . S
C1464 C1462 1.415 . S
C1464 C1469 1.425 . S
C1464 C1471 1.409 . S
C1465 H1457 0.930 . S
C1465 C1463 1.419 . S
C1465 C1466 1.362 . S
C1466 H1458 0.930 . S
C1466 C1465 1.362 . S
C1466 C1469 1.409 . S
C1467 H1459 0.930 . S
C1467 C1468 1.355 . S
C1467 C1469 1.415 . S
C1468 C1467 1.355 . S
C1468 C1470 1.419 . S
C1469 C1464 1.425 . S
C1469 C1466 1.409 . S
C1469 C1467 1.415 . S
C1470 H1460 0.930 . S
C1470 C1468 1.419 . S
C1470 C1471 1.362 . S
C1471 H1461 0.930 . S
C1471 C1464 1.409 . S
C1471 C1470 1.362 . S
H1472 C1478 0.930 . S
H1473 C1481 0.930 . S
H1474 C1482 0.930 . S
H1475 C1483 0.930 . S
H1476 C1486 0.930 . S
H1477 C1487 0.930 . S
C1478 H1472 0.930 . S
C1478 C1479 1.355 . S
C1478 C1480 1.415 . S
C1479 C1478 1.355 . S
C1479 C1481 1.419 . S
C1480 C1478 1.415 . S
C1480 C1485 1.425 . S
C1480 C1487 1.409 . S
C1481 H1473 0.930 . S
C1481 C1479 1.419 . S
C1481 C1482 1.362 . S
C1482 H1474 0.930 . S
C1482 C1481 1.362 . S
C1482 C1485 1.409 . S
C1483 H1475 0.930 . S
C1483 C1484 1.355 . S
C1483 C1485 1.415 . S
C1484 C1483 1.355 . S
C1484 C1486 1.419 . S
C1485 C1480 1.425 . S
C1485 C1482 1.409 . S
C1485 C1483 1.415 . S
C1486 H1476 0.930 . S
C1486 C1484 1.419 . S
C1486 C1487 1.362 . S
C1487 H1477 0.930 . S
C1487 C1480 1.409 . S
C1487 C1486 1.362 . S
H1488 C1494 0.930 . S
H1489 C1497 0.930 . S
H1490 C1498 0.930 . S
H1491 C1499 0.930 . S
H1492 C1502 0.930 . S
H1493 C1503 0.930 . S
C1494 H1488 0.930 . S
C1494 C1495 1.355 . S
C1494 C1496 1.415 . S
C1495 C1494 1.355 . S
C1495 C1497 1.419 . S
C1496 C1494 1.415 . S
C1496 C1501 1.425 . S
C1496 C1503 1.409 . S
C1497 H1489 0.930 . S
C1497 C1495 1.419 . S
C1497 C1498 1.362 . S
C1498 H1490 0.930 . S
C1498 C1497 1.362 . S
C1498 C1501 1.409 . S
C1499 H1491 0.930 . S
C1499 C1500 1.355 . S
C1499 C1501 1.415 . S
C1500 C1499 1.355 . S
C1500 C1502 1.419 . S
C1501 C1496 1.425 . S
C1501 C1498 1.409 . S
C1501 C1499 1.415 . S
C1502 H1492 0.930 . S
C1502 C1500 1.419 . S
C1502 C1503 1.362 . S
C1503 H1493 0.930 . S
C1503 C1496 1.409 . S
C1503 C1502 1.362 . S
H1504 C1510 0.930 . S
H1505 C1513 0.930 . S
H1506 C1514 0.930 . S
H1507 C1515 0.930 . S
H1508 C1518 0.930 . S
H1509 C1519 0.930 . S
C1510 H1504 0.930 . S
C1510 C1511 1.355 . S
C1510 C1512 1.415 . S
C1511 C1510 1.355 . S
C1511 C1513 1.419 . S
C1512 C1510 1.415 . S
C1512 C1517 1.425 . S
C1512 C1519 1.409 . S
C1513 H1505 0.930 . S
C1513 C1511 1.419 . S
C1513 C1514 1.362 . S
C1514 H1506 0.930 . S
C1514 C1513 1.362 . S
C1514 C1517 1.409 . S
C1515 H1507 0.930 . S
C1515 C1516 1.355 . S
C1515 C1517 1.415 . S
C1516 C1515 1.355 . S
C1516 C1518 1.419 . S
C1517 C1512 1.425 . S
C1517 C1514 1.409 . S
C1517 C1515 1.415 . S
C1518 H1508 0.930 . S
C1518 C1516 1.419 . S
C1518 C1519 1.362 . S
C1519 H1509 0.930 . S
C1519 C1512 1.409 . S
C1519 C1518 1.362 . S
H1520 C1526 0.930 . S
H1521 C1529 0.930 . S
H1522 C1530 0.930 . S
H1523 C1531 0.930 . S
H1524 C1534 0.930 . S
H1525 C1535 0.930 . S
C1526 H1520 0.930 . S
C1526 C1527 1.355 . S
C1526 C1528 1.415 . S
C1527 C1526 1.355 . S
C1527 C1529 1.419 . S
C1528 C1526 1.415 . S
C1528 C1533 1.425 . S
C1528 C1535 1.409 . S
C1529 H1521 0.930 . S
C1529 C1527 1.419 . S
C1529 C1530 1.362 . S
C1530 H1522 0.930 . S
C1530 C1529 1.362 . S
C1530 C1533 1.409 . S
C1531 H1523 0.930 . S
C1531 C1532 1.355 . S
C1531 C1533 1.415 . S
C1532 C1531 1.355 . S
C1532 C1534 1.419 . S
C1533 C1528 1.425 . S
C1533 C1530 1.409 . S
C1533 C1531 1.415 . S
C1534 H1524 0.930 . S
C1534 C1532 1.419 . S
C1534 C1535 1.362 . S
C1535 H1525 0.930 . S
C1535 C1528 1.409 . S
C1535 C1534 1.362 . S
H1536 C1542 0.930 . S
H1537 C1545 0.930 . S
H1538 C1546 0.930 . S
H1539 C1547 0.930 . S
H1540 C1550 0.930 . S
H1541 C1551 0.930 . S
C1542 H1536 0.930 . S
C1542 C1543 1.355 . S
C1542 C1544 1.415 . S
C1543 C1542 1.355 . S
C1543 C1545 1.419 . S
C1544 C1542 1.415 . S
C1544 C1549 1.425 . S
C1544 C1551 1.409 . S
C1545 H1537 0.930 . S
C1545 C1543 1.419 . S
C1545 C1546 1.362 . S
C1546 H1538 0.930 . S
C1546 C1545 1.362 . S
C1546 C1549 1.409 . S
C1547 H1539 0.930 . S
C1547 C1548 1.355 . S
C1547 C1549 1.415 . S
C1548 C1547 1.355 . S
C1548 C1550 1.419 . S
C1549 C1544 1.425 . S
C1549 C1546 1.409 . S
C1549 C1547 1.415 . S
C1550 H1540 0.930 . S
C1550 C1548 1.419 . S
C1550 C1551 1.362 . S
C1551 H1541 0.930 . S
C1551 C1544 1.409 . S
C1551 C1550 1.362 . S
H1552 C1558 0.930 . S
H1553 C1561 0.930 . S
H1554 C1562 0.930 . S
H1555 C1563 0.930 . S
H1556 C1566 0.930 . S
H1557 C1567 0.930 . S
C1558 H1552 0.930 . S
C1558 C1559 1.355 . S
C1558 C1560 1.415 . S
C1559 C1558 1.355 . S
C1559 C1561 1.419 . S
C1560 C1558 1.415 . S
C1560 C1565 1.425 . S
C1560 C1567 1.409 . S
C1561 H1553 0.930 . S
C1561 C1559 1.419 . S
C1561 C1562 1.362 . S
C1562 H1554 0.930 . S
C1562 C1561 1.362 . S
C1562 C1565 1.409 . S
C1563 H1555 0.930 . S
C1563 C1564 1.355 . S
C1563 C1565 1.415 . S
C1564 C1563 1.355 . S
C1564 C1566 1.419 . S
C1565 C1560 1.425 . S
C1565 C1562 1.409 . S
C1565 C1563 1.415 . S
C1566 H1556 0.930 . S
C1566 C1564 1.419 . S
C1566 C1567 1.362 . S
C1567 H1557 0.930 . S
C1567 C1560 1.409 . S
C1567 C1566 1.362 . S
H1568 C1574 0.930 . S
H1569 C1577 0.930 . S
H1570 C1578 0.930 . S
H1571 C1579 0.930 . S
H1572 C1582 0.930 . S
H1573 C1583 0.930 . S
C1574 H1568 0.930 . S
C1574 C1575 1.355 . S
C1574 C1576 1.415 . S
C1575 C1574 1.355 . S
C1575 C1577 1.419 . S
C1576 C1574 1.415 . S
C1576 C1581 1.425 . S
C1576 C1583 1.409 . S
C1577 H1569 0.930 . S
C1577 C1575 1.419 . S
C1577 C1578 1.362 . S
C1578 H1570 0.930 . S
C1578 C1577 1.362 . S
C1578 C1581 1.409 . S
C1579 H1571 0.930 . S
C1579 C1580 1.355 . S
C1579 C1581 1.415 . S
C1580 C1579 1.355 . S
C1580 C1582 1.419 . S
C1581 C1576 1.425 . S
C1581 C1578 1.409 . S
C1581 C1579 1.415 . S
C1582 H1572 0.930 . S
C1582 C1580 1.419 . S
C1582 C1583 1.362 . S
C1583 H1573 0.930 . S
C1583 C1576 1.409 . S
C1583 C1582 1.362 . S
H1584 C1590 0.930 . S
H1585 C1593 0.930 . S
H1586 C1594 0.930 . S
H1587 C1595 0.930 . S
H1588 C1598 0.930 . S
H1589 C1599 0.930 . S
C1590 H1584 0.930 . S
C1590 C1591 1.355 . S
C1590 C1592 1.415 . S
C1591 C1590 1.355 . S
C1591 C1593 1.419 . S
C1592 C1590 1.415 . S
C1592 C1597 1.425 1_565 S
C1592 C1599 1.409 1_565 S
C1593 H1585 0.930 . S
C1593 C1591 1.419 . S
C1593 C1594 1.362 . S
C1594 H1586 0.930 . S
C1594 C1593 1.362 . S
C1594 C1597 1.409 1_565 S
C1595 H1587 0.930 . S
C1595 C1596 1.355 . S
C1595 C1597 1.415 . S
C1596 C1595 1.355 . S
C1596 C1598 1.419 . S
C1597 C1592 1.425 1_545 S
C1597 C1594 1.409 1_545 S
C1597 C1595 1.415 . S
C1598 H1588 0.930 . S
C1598 C1596 1.419 . S
C1598 C1599 1.362 . S
C1599 H1589 0.930 . S
C1599 C1592 1.409 1_545 S
C1599 C1598 1.362 . S
H1600 C1606 0.930 1_556 S
H1601 C1609 0.930 . S
H1602 C1610 0.930 . S
H1603 C1611 0.930 1_554 S
H1604 C1614 0.930 . S
H1605 C1615 0.930 . S
C1606 H1600 0.930 1_554 S
C1606 C1607 1.355 . S
C1606 C1608 1.415 1_554 S
C1607 C1606 1.355 . S
C1607 C1609 1.419 . S
C1608 C1606 1.415 1_556 S
C1608 C1613 1.425 1_556 S
C1608 C1615 1.409 . S
C1609 H1601 0.930 . S
C1609 C1607 1.419 . S
C1609 C1610 1.362 . S
C1610 H1602 0.930 . S
C1610 C1609 1.362 . S
C1610 C1613 1.409 . S
C1611 H1603 0.930 1_556 S
C1611 C1612 1.355 . S
C1611 C1613 1.415 1_556 S
C1612 C1611 1.355 . S
C1612 C1614 1.419 . S
C1613 C1608 1.425 1_554 S
C1613 C1610 1.409 . S
C1613 C1611 1.415 1_554 S
C1614 H1604 0.930 . S
C1614 C1612 1.419 . S
C1614 C1615 1.362 . S
C1615 H1605 0.930 . S
C1615 C1608 1.409 . S
C1615 C1614 1.362 . S
H1616 C1622 0.930 . S
H1617 C1625 0.930 . S
H1618 C1626 0.930 . S
H1619 C1627 0.930 . S
H1620 C1630 0.930 . S
H1621 C1631 0.930 . S
C1622 H1616 0.930 . S
C1622 C1623 1.355 . S
C1622 C1624 1.460 . S
C1623 C1622 1.355 . S
C1623 C1625 1.419 . S
C1624 C1622 1.460 . S
C1624 C1629 1.420 1_565 S
C1624 C1631 1.370 1_565 S
C1625 H1617 0.930 . S
C1625 C1623 1.419 . S
C1625 C1626 1.362 . S
C1626 H1618 0.930 . S
C1626 C1625 1.362 . S
C1626 C1629 1.370 1_565 S
C1627 H1619 0.930 . S
C1627 C1628 1.355 . S
C1627 C1629 1.460 . S
C1628 C1627 1.355 . S
C1628 C1630 1.419 . S
C1629 C1624 1.420 1_545 S
C1629 C1626 1.370 1_545 S
C1629 C1627 1.460 . S
C1630 H1620 0.930 . S
C1630 C1628 1.419 . S
C1630 C1631 1.362 . S
C1631 H1621 0.930 . S
C1631 C1624 1.370 1_545 S
C1631 C1630 1.362 . S
H1632 C1638 0.930 . S
H1633 C1641 0.930 . S
H1634 C1642 0.930 . S
H1635 C1643 0.930 . S
H1636 C1646 0.930 . S
H1637 C1647 0.930 . S
C1638 H1632 0.930 . S
C1638 C1639 1.355 . S
C1638 C1640 1.415 . S
C1639 C1638 1.355 . S
C1639 C1641 1.419 . S
C1640 C1638 1.415 . S
C1640 C1645 1.425 . S
C1640 C1647 1.409 . S
C1641 H1633 0.930 . S
C1641 C1639 1.419 . S
C1641 C1642 1.362 . S
C1642 H1634 0.930 . S
C1642 C1641 1.362 . S
C1642 C1645 1.409 . S
C1643 H1635 0.930 . S
C1643 C1644 1.355 . S
C1643 C1645 1.415 . S
C1644 C1643 1.355 . S
C1644 C1646 1.419 . S
C1645 C1640 1.425 . S
C1645 C1642 1.409 . S
C1645 C1643 1.415 . S
C1646 H1636 0.930 . S
C1646 C1644 1.419 . S
C1646 C1647 1.362 . S
C1647 H1637 0.930 . S
C1647 C1640 1.409 . S
C1647 C1646 1.362 . S
H1648 C1654 0.930 . S
H1649 C1657 0.930 . S
H1650 C1658 0.909 1_545 S
H1651 C1659 0.930 . S
H1652 C1662 0.930 . S
H1653 C1663 0.909 1_565 S
C1654 H1648 0.930 . S
C1654 C1655 1.355 . S
C1654 C1656 1.415 . S
C1655 C1654 1.355 . S
C1655 C1657 1.419 . S
C1656 C1654 1.415 . S
C1656 C1661 1.425 1_565 S
C1656 C1663 1.397 1_565 S
C1657 H1649 0.930 . S
C1657 C1655 1.419 . S
C1657 C1658 1.396 . S
C1658 H1650 0.909 1_565 S
C1658 C1657 1.396 . S
C1658 C1661 1.397 1_565 S
C1659 H1651 0.930 . S
C1659 C1660 1.355 . S
C1659 C1661 1.415 . S
C1660 C1659 1.355 . S
C1660 C1662 1.419 . S
C1661 C1656 1.425 1_545 S
C1661 C1658 1.397 1_545 S
C1661 C1659 1.415 . S
C1662 H1652 0.930 . S
C1662 C1660 1.419 . S
C1662 C1663 1.396 . S
C1663 H1653 0.909 1_545 S
C1663 C1656 1.397 1_545 S
C1663 C1662 1.396 . S
H1664 C1670 0.930 1_554 S
H1665 C1673 0.930 . S
H1666 C1674 0.930 . S
H1667 C1675 0.930 1_556 S
H1668 C1678 0.930 . S
H1669 C1679 0.930 . S
C1670 H1664 0.930 1_556 S
C1670 C1671 1.355 . S
C1670 C1672 1.415 1_556 S
C1671 C1670 1.355 . S
C1671 C1673 1.419 . S
C1672 C1670 1.415 1_554 S
C1672 C1677 1.425 1_554 S
C1672 C1679 1.409 . S
C1673 H1665 0.930 . S
C1673 C1671 1.419 . S
C1673 C1674 1.362 . S
C1674 H1666 0.930 . S
C1674 C1673 1.362 . S
C1674 C1677 1.409 . S
C1675 H1667 0.930 1_554 S
C1675 C1676 1.355 . S
C1675 C1677 1.415 1_554 S
C1676 C1675 1.355 . S
C1676 C1678 1.419 . S
C1677 C1672 1.425 1_556 S
C1677 C1674 1.409 . S
C1677 C1675 1.415 1_556 S
C1678 H1668 0.930 . S
C1678 C1676 1.419 . S
C1678 C1679 1.362 . S
C1679 H1669 0.930 . S
C1679 C1672 1.409 . S
C1679 C1678 1.362 . S
H1680 C1686 0.930 . S
H1681 C1689 0.930 . S
H1682 C1690 0.930 . S
H1683 C1691 0.930 . S
H1684 C1694 0.930 . S
H1685 C1695 0.930 . S
C1686 H1680 0.930 . S
C1686 C1687 1.355 . S
C1686 C1688 1.415 1_545 S
C1687 C1686 1.355 . S
C1687 C1689 1.419 . S
C1688 C1686 1.415 1_565 S
C1688 C1693 1.425 1_565 S
C1688 C1695 1.409 . S
C1689 H1681 0.930 . S
C1689 C1687 1.419 . S
C1689 C1690 1.362 . S
C1690 H1682 0.930 . S
C1690 C1689 1.362 . S
C1690 C1693 1.409 . S
C1691 H1683 0.930 . S
C1691 C1692 1.355 . S
C1691 C1693 1.415 1_565 S
C1692 C1691 1.355 . S
C1692 C1694 1.419 . S
C1693 C1688 1.425 1_545 S
C1693 C1690 1.409 . S
C1693 C1691 1.415 1_545 S
C1694 H1684 0.930 . S
C1694 C1692 1.419 . S
C1694 C1695 1.362 . S
C1695 H1685 0.930 . S
C1695 C1688 1.409 . S
C1695 C1694 1.362 . S
H1696 C1702 0.930 . S
H1697 C1705 0.930 . S
H1698 C1706 0.930 . S
H1699 C1707 0.930 . S
H1700 C1710 0.930 . S
H1701 C1711 0.930 . S
C1702 H1696 0.930 . S
C1702 C1703 1.355 . S
C1702 C1704 1.415 1_556 S
C1703 C1702 1.355 . S
C1703 C1705 1.419 . S
C1704 C1702 1.415 1_554 S
C1704 C1709 1.425 1_554 S
C1704 C1711 1.409 . S
C1705 H1697 0.930 . S
C1705 C1703 1.419 . S
C1705 C1706 1.362 . S
C1706 H1698 0.930 . S
C1706 C1705 1.362 . S
C1706 C1709 1.409 . S
C1707 H1699 0.930 . S
C1707 C1708 1.355 . S
C1707 C1709 1.415 1_554 S
C1708 C1707 1.355 . S
C1708 C1710 1.419 . S
C1709 C1704 1.425 1_556 S
C1709 C1706 1.409 . S
C1709 C1707 1.415 1_556 S
C1710 H1700 0.930 . S
C1710 C1708 1.419 . S
C1710 C1711 1.362 . S
C1711 H1701 0.930 . S
C1711 C1704 1.409 . S
C1711 C1710 1.362 . S
H1712 C1718 0.930 . S
H1713 C1721 0.930 . S
H1714 C1722 0.930 . S
H1715 C1723 0.930 . S
H1716 C1726 0.930 . S
H1717 C1727 0.930 . S
C1718 H1712 0.930 . S
C1718 C1719 1.355 . S
C1718 C1720 1.415 . S
C1719 C1718 1.355 . S
C1719 C1721 1.419 . S
C1720 C1718 1.415 . S
C1720 C1725 1.425 . S
C1720 C1727 1.409 . S
C1721 H1713 0.930 . S
C1721 C1719 1.419 . S
C1721 C1722 1.362 . S
C1722 H1714 0.930 . S
C1722 C1721 1.362 . S
C1722 C1725 1.409 . S
C1723 H1715 0.930 . S
C1723 C1724 1.355 . S
C1723 C1725 1.415 . S
C1724 C1723 1.355 . S
C1724 C1726 1.419 . S
C1725 C1720 1.425 . S
C1725 C1722 1.409 . S
C1725 C1723 1.415 . S
C1726 H1716 0.930 . S
C1726 C1724 1.419 . S
C1726 C1727 1.362 . S
C1727 H1717 0.930 . S
C1727 C1720 1.409 . S
C1727 C1726 1.362 . S
H1728 C1734 0.930 . S
H1729 C1737 0.930 . S
H1730 C1738 0.930 . S
H1731 C1739 0.930 . S
H1732 C1742 0.930 . S
H1733 C1743 0.930 . S
C1734 H1728 0.930 . S
C1734 C1735 1.355 . S
C1734 C1736 1.415 . S
C1735 C1734 1.355 . S
C1735 C1737 1.419 . S
C1736 C1734 1.415 . S
C1736 C1741 1.425 . S
C1736 C1743 1.409 . S
C1737 H1729 0.930 . S
C1737 C1735 1.419 . S
C1737 C1738 1.362 . S
C1738 H1730 0.930 . S
C1738 C1737 1.362 . S
C1738 C1741 1.409 . S
C1739 H1731 0.930 . S
C1739 C1740 1.355 . S
C1739 C1741 1.415 . S
C1740 C1739 1.355 . S
C1740 C1742 1.419 . S
C1741 C1736 1.425 . S
C1741 C1738 1.409 . S
C1741 C1739 1.415 . S
C1742 H1732 0.930 . S
C1742 C1740 1.419 . S
C1742 C1743 1.362 . S
C1743 H1733 0.930 . S
C1743 C1736 1.409 . S
C1743 C1742 1.362 . S
H1744 C1750 0.930 . S
H1745 C1753 0.930 . S
H1746 C1754 0.930 . S
H1747 C1755 0.930 . S
H1748 C1758 0.930 . S
H1749 C1759 0.930 . S
C1750 H1744 0.930 . S
C1750 C1751 1.355 . S
C1750 C1752 1.415 . S
C1751 C1750 1.355 . S
C1751 C1753 1.419 . S
C1752 C1750 1.415 . S
C1752 C1757 1.425 . S
C1752 C1759 1.409 . S
C1753 H1745 0.930 . S
C1753 C1751 1.419 . S
C1753 C1754 1.362 . S
C1754 H1746 0.930 . S
C1754 C1753 1.362 . S
C1754 C1757 1.409 . S
C1755 H1747 0.930 . S
C1755 C1756 1.355 . S
C1755 C1757 1.415 . S
C1756 C1755 1.355 . S
C1756 C1758 1.419 . S
C1757 C1752 1.425 . S
C1757 C1754 1.409 . S
C1757 C1755 1.415 . S
C1758 H1748 0.930 . S
C1758 C1756 1.419 . S
C1758 C1759 1.362 . S
C1759 H1749 0.930 . S
C1759 C1752 1.409 . S
C1759 C1758 1.362 . S
H1760 C1766 0.930 . S
H1761 C1769 0.930 . S
H1762 C1770 0.930 . S
H1763 C1771 0.930 . S
H1764 C1774 0.930 . S
H1765 C1775 0.930 . S
C1766 H1760 0.930 . S
C1766 C1767 1.355 . S
C1766 C1768 1.415 . S
C1767 C1766 1.355 . S
C1767 C1769 1.419 1_556 S
C1768 C1766 1.415 . S
C1768 C1773 1.425 1_556 S
C1768 C1775 1.409 . S
C1769 H1761 0.930 . S
C1769 C1767 1.419 1_554 S
C1769 C1770 1.362 . S
C1770 H1762 0.930 . S
C1770 C1769 1.362 . S
C1770 C1773 1.409 . S
C1771 H1763 0.930 . S
C1771 C1772 1.355 . S
C1771 C1773 1.415 . S
C1772 C1771 1.355 . S
C1772 C1774 1.419 1_554 S
C1773 C1768 1.425 1_554 S
C1773 C1770 1.409 . S
C1773 C1771 1.415 . S
C1774 H1764 0.930 . S
C1774 C1772 1.419 1_556 S
C1774 C1775 1.362 . S
C1775 H1765 0.930 . S
C1775 C1768 1.409 . S
C1775 C1774 1.362 . S
H1776 C1782 0.930 . S
H1777 C1785 0.930 . S
H1778 C1786 0.930 . S
H1779 C1787 0.930 . S
H1780 C1790 0.930 . S
H1781 C1791 0.930 . S
C1782 H1776 0.930 . S
C1782 C1783 1.355 . S
C1782 C1784 1.415 . S
C1783 C1782 1.355 . S
C1783 C1785 1.419 . S
C1784 C1782 1.415 . S
C1784 C1789 1.425 . S
C1784 C1791 1.409 . S
C1785 H1777 0.930 . S
C1785 C1783 1.419 . S
C1785 C1786 1.362 . S
C1786 H1778 0.930 . S
C1786 C1785 1.362 . S
C1786 C1789 1.409 . S
C1787 H1779 0.930 . S
C1787 C1788 1.355 . S
C1787 C1789 1.415 . S
C1788 C1787 1.355 . S
C1788 C1790 1.419 . S
C1789 C1784 1.425 . S
C1789 C1786 1.409 . S
C1789 C1787 1.415 . S
C1790 H1780 0.930 . S
C1790 C1788 1.419 . S
C1790 C1791 1.362 . S
C1791 H1781 0.930 . S
C1791 C1784 1.409 . S
C1791 C1790 1.362 . S
H1792 C1798 0.930 . S
H1793 C1801 0.930 . S
H1794 C1802 0.930 . S
H1795 C1803 0.930 . S
H1796 C1806 0.930 . S
H1797 C1807 0.930 . S
C1798 H1792 0.930 . S
C1798 C1799 1.355 . S
C1798 C1800 1.415 . S
C1799 C1798 1.355 . S
C1799 C1801 1.419 . S
C1800 C1798 1.415 . S
C1800 C1805 1.425 . S
C1800 C1807 1.409 . S
C1801 H1793 0.930 . S
C1801 C1799 1.419 . S
C1801 C1802 1.362 . S
C1802 H1794 0.930 . S
C1802 C1801 1.362 . S
C1802 C1805 1.409 . S
C1803 H1795 0.930 . S
C1803 C1804 1.355 . S
C1803 C1805 1.415 . S
C1804 C1803 1.355 . S
C1804 C1806 1.419 . S
C1805 C1800 1.425 . S
C1805 C1802 1.409 . S
C1805 C1803 1.415 . S
C1806 H1796 0.930 . S
C1806 C1804 1.419 . S
C1806 C1807 1.362 . S
C1807 H1797 0.930 . S
C1807 C1800 1.409 . S
C1807 C1806 1.362 . S
H1808 C1814 0.930 . S
H1809 C1817 0.930 . S
H1810 C1818 0.930 . S
H1811 C1819 0.930 . S
H1812 C1822 0.930 . S
H1813 C1823 0.930 . S
C1814 H1808 0.930 . S
C1814 C1815 1.355 . S
C1814 C1816 1.415 . S
C1815 C1814 1.355 . S
C1815 C1817 1.419 . S
C1816 C1814 1.415 . S
C1816 C1821 1.425 . S
C1816 C1823 1.409 . S
C1817 H1809 0.930 . S
C1817 C1815 1.419 . S
C1817 C1818 1.362 . S
C1818 H1810 0.930 . S
C1818 C1817 1.362 . S
C1818 C1821 1.409 . S
C1819 H1811 0.930 . S
C1819 C1820 1.355 . S
C1819 C1821 1.415 . S
C1820 C1819 1.355 . S
C1820 C1822 1.419 . S
C1821 C1816 1.425 . S
C1821 C1818 1.409 . S
C1821 C1819 1.415 . S
C1822 H1812 0.930 . S
C1822 C1820 1.419 . S
C1822 C1823 1.362 . S
C1823 H1813 0.930 . S
C1823 C1816 1.409 . S
C1823 C1822 1.362 . S
H1824 C1830 0.930 . S
H1825 C1833 0.930 . S
H1826 C1834 0.930 . S
H1827 C1835 0.930 . S
H1828 C1838 0.930 . S
H1829 C1839 0.930 . S
C1830 H1824 0.930 . S
C1830 C1831 1.355 . S
C1830 C1832 1.415 . S
C1831 C1830 1.355 . S
C1831 C1833 1.419 . S
C1832 C1830 1.415 . S
C1832 C1837 1.425 . S
C1832 C1839 1.409 . S
C1833 H1825 0.930 . S
C1833 C1831 1.419 . S
C1833 C1834 1.362 . S
C1834 H1826 0.930 . S
C1834 C1833 1.362 . S
C1834 C1837 1.409 . S
C1835 H1827 0.930 . S
C1835 C1836 1.355 . S
C1835 C1837 1.415 . S
C1836 C1835 1.355 . S
C1836 C1838 1.419 . S
C1837 C1832 1.425 . S
C1837 C1834 1.409 . S
C1837 C1835 1.415 . S
C1838 H1828 0.930 . S
C1838 C1836 1.419 . S
C1838 C1839 1.362 . S
C1839 H1829 0.930 . S
C1839 C1832 1.409 . S
C1839 C1838 1.362 . S
H1840 C1846 0.930 . S
H1841 C1849 0.930 . S
H1842 C1850 0.930 . S
H1843 C1851 0.930 . S
H1844 C1854 0.930 . S
H1845 C1855 0.930 . S
C1846 H1840 0.930 . S
C1846 C1847 1.355 . S
C1846 C1848 1.415 . S
C1847 C1846 1.355 . S
C1847 C1849 1.419 . S
C1848 C1846 1.415 . S
C1848 C1853 1.425 . S
C1848 C1855 1.409 . S
C1849 H1841 0.930 . S
C1849 C1847 1.419 . S
C1849 C1850 1.362 . S
C1850 H1842 0.930 . S
C1850 C1849 1.362 . S
C1850 C1853 1.409 . S
C1851 H1843 0.930 . S
C1851 C1852 1.355 . S
C1851 C1853 1.415 1_455 S
C1852 C1851 1.355 . S
C1852 C1854 1.419 . S
C1853 C1848 1.425 . S
C1853 C1850 1.409 . S
C1853 C1851 1.415 1_655 S
C1854 H1844 0.930 . S
C1854 C1852 1.419 . S
C1854 C1855 1.362 1_455 S
C1855 H1845 0.930 . S
C1855 C1848 1.409 . S
C1855 C1854 1.362 1_655 S
H1856 C1862 0.930 . S
H1857 C1865 0.930 . S
H1858 C1866 0.930 . S
H1859 C1867 0.930 . S
H1860 C1870 0.930 . S
H1861 C1871 0.930 . S
C1862 H1856 0.930 . S
C1862 C1863 1.355 . S
C1862 C1864 1.415 . S
C1863 C1862 1.355 . S
C1863 C1865 1.419 . S
C1864 C1862 1.415 . S
C1864 C1869 1.425 . S
C1864 C1871 1.409 . S
C1865 H1857 0.930 . S
C1865 C1863 1.419 . S
C1865 C1866 1.362 . S
C1866 H1858 0.930 . S
C1866 C1865 1.362 . S
C1866 C1869 1.409 . S
C1867 H1859 0.930 . S
C1867 C1868 1.355 . S
C1867 C1869 1.415 . S
C1868 C1867 1.355 . S
C1868 C1870 1.419 . S
C1869 C1864 1.425 . S
C1869 C1866 1.409 . S
C1869 C1867 1.415 . S
C1870 H1860 0.930 . S
C1870 C1868 1.419 . S
C1870 C1871 1.362 . S
C1871 H1861 0.930 . S
C1871 C1864 1.409 . S
C1871 C1870 1.362 . S
H1872 C1878 0.930 . S
H1873 C1881 0.930 . S
H1874 C1882 0.930 . S
H1875 C1883 0.930 . S
H1876 C1886 0.930 . S
H1877 C1887 0.930 . S
C1878 H1872 0.930 . S
C1878 C1879 1.355 . S
C1878 C1880 1.415 . S
C1879 C1878 1.355 . S
C1879 C1881 1.419 . S
C1880 C1878 1.415 . S
C1880 C1885 1.425 . S
C1880 C1887 1.409 . S
C1881 H1873 0.930 . S
C1881 C1879 1.419 . S
C1881 C1882 1.362 . S
C1882 H1874 0.930 . S
C1882 C1881 1.362 . S
C1882 C1885 1.409 . S
C1883 H1875 0.930 . S
C1883 C1884 1.355 . S
C1883 C1885 1.415 . S
C1884 C1883 1.355 . S
C1884 C1886 1.419 . S
C1885 C1880 1.425 . S
C1885 C1882 1.409 . S
C1885 C1883 1.415 . S
C1886 H1876 0.930 . S
C1886 C1884 1.419 . S
C1886 C1887 1.362 . S
C1887 H1877 0.930 . S
C1887 C1880 1.409 . S
C1887 C1886 1.362 . S
H1888 C1894 0.930 . S
H1889 C1897 0.930 . S
H1890 C1898 0.930 . S
H1891 C1899 0.930 . S
H1892 C1902 0.930 . S
H1893 C1903 0.930 . S
C1894 H1888 0.930 . S
C1894 C1895 1.355 . S
C1894 C1896 1.415 . S
C1895 C1894 1.355 . S
C1895 C1897 1.419 . S
C1896 C1894 1.415 . S
C1896 C1901 1.425 . S
C1896 C1903 1.409 . S
C1897 H1889 0.930 . S
C1897 C1895 1.419 . S
C1897 C1898 1.362 . S
C1898 H1890 0.930 . S
C1898 C1897 1.362 . S
C1898 C1901 1.409 . S
C1899 H1891 0.930 . S
C1899 C1900 1.355 . S
C1899 C1901 1.415 . S
C1900 C1899 1.355 . S
C1900 C1902 1.419 . S
C1901 C1896 1.425 . S
C1901 C1898 1.409 . S
C1901 C1899 1.415 . S
C1902 H1892 0.930 . S
C1902 C1900 1.419 . S
C1902 C1903 1.362 . S
C1903 H1893 0.930 . S
C1903 C1896 1.409 . S
C1903 C1902 1.362 . S
H1904 C1910 0.930 . S
H1905 C1913 0.930 . S
H1906 C1914 0.930 . S
H1907 C1915 0.930 . S
H1908 C1918 0.930 . S
H1909 C1919 0.930 . S
C1910 H1904 0.930 . S
C1910 C1911 1.355 . S
C1910 C1912 1.415 . S
C1911 C1910 1.355 . S
C1911 C1913 1.419 . S
C1912 C1910 1.415 . S
C1912 C1917 1.425 . S
C1912 C1919 1.409 . S
C1913 H1905 0.930 . S
C1913 C1911 1.419 . S
C1913 C1914 1.362 . S
C1914 H1906 0.930 . S
C1914 C1913 1.362 . S
C1914 C1917 1.409 . S
C1915 H1907 0.930 . S
C1915 C1916 1.355 . S
C1915 C1917 1.415 . S
C1916 C1915 1.355 . S
C1916 C1918 1.419 . S
C1917 C1912 1.425 . S
C1917 C1914 1.409 . S
C1917 C1915 1.415 . S
C1918 H1908 0.930 . S
C1918 C1916 1.419 . S
C1918 C1919 1.362 . S
C1919 H1909 0.930 . S
C1919 C1912 1.409 . S
C1919 C1918 1.362 . S
H1920 C1926 0.930 . S
H1921 C1929 0.930 . S
H1922 C1930 0.930 . S
H1923 C1931 0.930 . S
H1924 C1934 0.930 . S
H1925 C1935 0.930 . S
C1926 H1920 0.930 . S
C1926 C1927 1.355 . S
C1926 C1928 1.415 . S
C1927 C1926 1.355 . S
C1927 C1929 1.419 . S
C1928 C1926 1.415 . S
C1928 C1933 1.425 . S
C1928 C1935 1.409 . S
C1929 H1921 0.930 . S
C1929 C1927 1.419 . S
C1929 C1930 1.362 . S
C1930 H1922 0.930 . S
C1930 C1929 1.362 . S
C1930 C1933 1.409 . S
C1931 H1923 0.930 . S
C1931 C1932 1.355 . S
C1931 C1933 1.415 . S
C1932 C1931 1.355 . S
C1932 C1934 1.419 . S
C1933 C1928 1.425 . S
C1933 C1930 1.409 . S
C1933 C1931 1.415 . S
C1934 H1924 0.930 . S
C1934 C1932 1.419 . S
C1934 C1935 1.362 . S
C1935 H1925 0.930 . S
C1935 C1928 1.409 . S
C1935 C1934 1.362 . S
H1936 C1942 0.930 . S
H1937 C1945 0.930 . S
H1938 C1946 0.930 . S
H1939 C1947 0.930 . S
H1940 C1950 0.930 . S
H1941 C1951 0.930 . S
C1942 H1936 0.930 . S
C1942 C1943 1.355 . S
C1942 C1944 1.415 . S
C1943 C1942 1.355 . S
C1943 C1945 1.419 . S
C1944 C1942 1.415 . S
C1944 C1949 1.425 . S
C1944 C1951 1.409 . S
C1945 H1937 0.930 . S
C1945 C1943 1.419 . S
C1945 C1946 1.362 . S
C1946 H1938 0.930 . S
C1946 C1945 1.362 . S
C1946 C1949 1.409 . S
C1947 H1939 0.930 . S
C1947 C1948 1.355 . S
C1947 C1949 1.415 1_455 S
C1948 C1947 1.355 . S
C1948 C1950 1.419 . S
C1949 C1944 1.425 . S
C1949 C1946 1.409 . S
C1949 C1947 1.415 1_655 S
C1950 H1940 0.930 . S
C1950 C1948 1.419 . S
C1950 C1951 1.362 1_455 S
C1951 H1941 0.930 . S
C1951 C1944 1.409 . S
C1951 C1950 1.362 1_655 S
H1952 C1958 0.930 . S
H1953 C1961 0.930 . S
H1954 C1962 0.930 . S
H1955 C1963 0.930 . S
H1956 C1966 0.930 . S
H1957 C1967 0.930 . S
C1958 H1952 0.930 . S
C1958 C1959 1.355 . S
C1958 C1960 1.415 . S
C1959 C1958 1.355 . S
C1959 C1961 1.419 . S
C1960 C1958 1.415 . S
C1960 C1965 1.425 . S
C1960 C1967 1.409 . S
C1961 H1953 0.930 . S
C1961 C1959 1.419 . S
C1961 C1962 1.362 . S
C1962 H1954 0.930 . S
C1962 C1961 1.362 . S
C1962 C1965 1.409 . S
C1963 H1955 0.930 . S
C1963 C1964 1.355 . S
C1963 C1965 1.415 . S
C1964 C1963 1.355 . S
C1964 C1966 1.419 . S
C1965 C1960 1.425 . S
C1965 C1962 1.409 . S
C1965 C1963 1.415 . S
C1966 H1956 0.930 . S
C1966 C1964 1.419 . S
C1966 C1967 1.362 . S
C1967 H1957 0.930 . S
C1967 C1960 1.409 . S
C1967 C1966 1.362 . S
H1968 C1974 0.930 . S
H1969 C1977 0.930 . S
H1970 C1978 0.930 . S
H1971 C1979 0.930 . S
H1972 C1982 0.930 . S
H1973 C1983 0.930 . S
C1974 H1968 0.930 . S
C1974 C1975 1.355 . S
C1974 C1976 1.415 1_655 S
C1975 C1974 1.355 . S
C1975 C1977 1.419 . S
C1976 C1974 1.415 1_455 S
C1976 C1981 1.425 . S
C1976 C1983 1.409 . S
C1977 H1969 0.930 . S
C1977 C1975 1.419 . S
C1977 C1978 1.362 1_655 S
C1978 H1970 0.930 . S
C1978 C1977 1.362 1_455 S
C1978 C1981 1.409 . S
C1979 H1971 0.930 . S
C1979 C1980 1.355 . S
C1979 C1981 1.415 . S
C1980 C1979 1.355 . S
C1980 C1982 1.419 . S
C1981 C1976 1.425 . S
C1981 C1978 1.409 . S
C1981 C1979 1.415 . S
C1982 H1972 0.930 . S
C1982 C1980 1.419 . S
C1982 C1983 1.362 . S
C1983 H1973 0.930 . S
C1983 C1976 1.409 . S
C1983 C1982 1.362 . S
H1984 C1990 0.930 . S
H1985 C1993 0.930 . S
H1986 C1994 0.930 . S
H1987 C1995 0.930 . S
H1988 C1998 0.930 . S
H1989 C1999 0.930 . S
C1990 H1984 0.930 . S
C1990 C1991 1.355 . S
C1990 C1992 1.415 . S
C1991 C1990 1.355 . S
C1991 C1993 1.419 . S
C1992 C1990 1.415 . S
C1992 C1997 1.425 . S
C1992 C1999 1.409 . S
C1993 H1985 0.930 . S
C1993 C1991 1.419 . S
C1993 C1994 1.362 . S
C1994 H1986 0.930 . S
C1994 C1993 1.362 . S
C1994 C1997 1.409 . S
C1995 H1987 0.930 . S
C1995 C1996 1.355 . S
C1995 C1997 1.415 . S
C1996 C1995 1.355 . S
C1996 C1998 1.419 . S
C1997 C1992 1.425 . S
C1997 C1994 1.409 . S
C1997 C1995 1.415 . S
C1998 H1988 0.930 . S
C1998 C1996 1.419 . S
C1998 C1999 1.362 . S
C1999 H1989 0.930 . S
C1999 C1992 1.409 . S
C1999 C1998 1.362 . S
H2000 C2006 0.930 . S
H2001 C2009 0.930 . S
H2002 C2010 0.930 . S
H2003 C2011 0.930 . S
H2004 C2014 0.930 . S
H2005 C2015 0.930 . S
C2006 H2000 0.930 . S
C2006 C2007 1.355 . S
C2006 C2008 1.415 . S
C2007 C2006 1.355 . S
C2007 C2009 1.419 . S
C2008 C2006 1.415 . S
C2008 C2013 1.425 . S
C2008 C2015 1.409 . S
C2009 H2001 0.930 . S
C2009 C2007 1.419 . S
C2009 C2010 1.362 . S
C2010 H2002 0.930 . S
C2010 C2009 1.362 . S
C2010 C2013 1.409 . S
C2011 H2003 0.930 . S
C2011 C2012 1.355 . S
C2011 C2013 1.415 . S
C2012 C2011 1.355 . S
C2012 C2014 1.419 . S
C2013 C2008 1.425 . S
C2013 C2010 1.409 . S
C2013 C2011 1.415 . S
C2014 H2004 0.930 . S
C2014 C2012 1.419 . S
C2014 C2015 1.362 . S
C2015 H2005 0.930 . S
C2015 C2008 1.409 . S
C2015 C2014 1.362 . S
H2016 C2022 0.930 . S
H2017 C2025 0.930 . S
H2018 C2026 0.930 . S
H2019 C2027 0.930 . S
H2020 C2030 0.930 . S
H2021 C2031 0.930 . S
C2022 H2016 0.930 . S
C2022 C2023 1.355 . S
C2022 C2024 1.415 . S
C2023 C2022 1.355 . S
C2023 C2025 1.419 . S
C2024 C2022 1.415 . S
C2024 C2029 1.425 . S
C2024 C2031 1.409 . S
C2025 H2017 0.930 . S
C2025 C2023 1.419 . S
C2025 C2026 1.362 . S
C2026 H2018 0.930 . S
C2026 C2025 1.362 . S
C2026 C2029 1.409 . S
C2027 H2019 0.930 . S
C2027 C2028 1.355 . S
C2027 C2029 1.415 . S
C2028 C2027 1.355 . S
C2028 C2030 1.419 . S
C2029 C2024 1.425 . S
C2029 C2026 1.409 . S
C2029 C2027 1.415 . S
C2030 H2020 0.930 . S
C2030 C2028 1.419 . S
C2030 C2031 1.362 . S
C2031 H2021 0.930 . S
C2031 C2024 1.409 . S
C2031 C2030 1.362 . S
H2032 C2038 0.930 . S
H2033 C2041 0.930 . S
H2034 C2042 0.930 . S
H2035 C2043 0.930 . S
H2036 C2046 0.930 . S
H2037 C2047 0.930 . S
C2038 H2032 0.930 . S
C2038 C2039 1.355 . S
C2038 C2040 1.415 . S
C2039 C2038 1.355 . S
C2039 C2041 1.419 . S
C2040 C2038 1.415 . S
C2040 C2045 1.425 . S
C2040 C2047 1.409 . S
C2041 H2033 0.930 . S
C2041 C2039 1.419 . S
C2041 C2042 1.362 . S
C2042 H2034 0.930 . S
C2042 C2041 1.362 . S
C2042 C2045 1.409 . S
C2043 H2035 0.930 . S
C2043 C2044 1.355 . S
C2043 C2045 1.415 . S
C2044 C2043 1.355 . S
C2044 C2046 1.419 . S
C2045 C2040 1.425 . S
C2045 C2042 1.409 . S
C2045 C2043 1.415 . S
C2046 H2036 0.930 . S
C2046 C2044 1.419 . S
C2046 C2047 1.362 . S
C2047 H2037 0.930 . S
C2047 C2040 1.409 . S
C2047 C2046 1.362 . S
H2048 C2054 0.930 . S
H2049 C2057 0.930 . S
H2050 C2058 0.930 . S
H2051 C2059 0.930 . S
H2052 C2062 0.930 . S
H2053 C2063 0.930 . S
C2054 H2048 0.930 . S
C2054 C2055 1.355 . S
C2054 C2056 1.415 . S
C2055 C2054 1.355 . S
C2055 C2057 1.419 . S
C2056 C2054 1.415 . S
C2056 C2061 1.425 . S
C2056 C2063 1.409 . S
C2057 H2049 0.930 . S
C2057 C2055 1.419 . S
C2057 C2058 1.362 . S
C2058 H2050 0.930 . S
C2058 C2057 1.362 . S
C2058 C2061 1.409 . S
C2059 H2051 0.930 . S
C2059 C2060 1.355 . S
C2059 C2061 1.415 . S
C2060 C2059 1.355 . S
C2060 C2062 1.419 . S
C2061 C2056 1.425 . S
C2061 C2058 1.409 . S
C2061 C2059 1.415 . S
C2062 H2052 0.930 . S
C2062 C2060 1.419 . S
C2062 C2063 1.362 . S
C2063 H2053 0.930 . S
C2063 C2056 1.409 . S
C2063 C2062 1.362 . S
H2064 C2070 0.930 . S
H2065 C2073 0.930 . S
H2066 C2074 0.930 . S
H2067 C2075 0.930 . S
H2068 C2078 0.930 . S
H2069 C2079 0.930 . S
C2070 H2064 0.930 . S
C2070 C2071 1.355 . S
C2070 C2072 1.415 . S
C2071 C2070 1.355 . S
C2071 C2073 1.419 . S
C2072 C2070 1.415 . S
C2072 C2077 1.425 . S
C2072 C2079 1.409 . S
C2073 H2065 0.930 . S
C2073 C2071 1.419 . S
C2073 C2074 1.362 . S
C2074 H2066 0.930 . S
C2074 C2073 1.362 . S
C2074 C2077 1.409 . S
C2075 H2067 0.930 . S
C2075 C2076 1.355 . S
C2075 C2077 1.415 1_655 S
C2076 C2075 1.355 . S
C2076 C2078 1.419 . S
C2077 C2072 1.425 . S
C2077 C2074 1.409 . S
C2077 C2075 1.415 1_455 S
C2078 H2068 0.930 . S
C2078 C2076 1.419 . S
C2078 C2079 1.362 1_655 S
C2079 H2069 0.930 . S
C2079 C2072 1.409 . S
C2079 C2078 1.362 1_455 S
H2080 C2086 0.930 . S
H2081 C2089 0.930 . S
H2082 C2090 0.930 . S
H2083 C2091 0.930 . S
H2084 C2094 0.930 . S
H2085 C2095 0.930 . S
C2086 H2080 0.930 . S
C2086 C2087 1.355 . S
C2086 C2088 1.415 . S
C2087 C2086 1.355 . S
C2087 C2089 1.419 . S
C2088 C2086 1.415 . S
C2088 C2093 1.425 . S
C2088 C2095 1.409 . S
C2089 H2081 0.930 . S
C2089 C2087 1.419 . S
C2089 C2090 1.362 . S
C2090 H2082 0.930 . S
C2090 C2089 1.362 . S
C2090 C2093 1.409 . S
C2091 H2083 0.930 . S
C2091 C2092 1.355 . S
C2091 C2093 1.415 . S
C2092 C2091 1.355 . S
C2092 C2094 1.419 . S
C2093 C2088 1.425 . S
C2093 C2090 1.409 . S
C2093 C2091 1.415 . S
C2094 H2084 0.930 . S
C2094 C2092 1.419 . S
C2094 C2095 1.362 . S
C2095 H2085 0.930 . S
C2095 C2088 1.409 . S
C2095 C2094 1.362 . S
H2096 C2102 0.930 . S
H2097 C2105 0.930 . S
H2098 C2106 0.930 . S
H2099 C2107 0.930 . S
H2100 C2110 0.930 . S
H2101 C2111 0.930 . S
C2102 H2096 0.930 . S
C2102 C2103 1.355 . S
C2102 C2104 1.415 . S
C2103 C2102 1.355 . S
C2103 C2105 1.419 . S
C2104 C2102 1.415 . S
C2104 C2109 1.425 . S
C2104 C2111 1.409 . S
C2105 H2097 0.930 . S
C2105 C2103 1.419 . S
C2105 C2106 1.362 . S
C2106 H2098 0.930 . S
C2106 C2105 1.362 . S
C2106 C2109 1.409 . S
C2107 H2099 0.930 . S
C2107 C2108 1.355 . S
C2107 C2109 1.415 . S
C2108 C2107 1.355 . S
C2108 C2110 1.419 . S
C2109 C2104 1.425 . S
C2109 C2106 1.409 . S
C2109 C2107 1.415 . S
C2110 H2100 0.930 . S
C2110 C2108 1.419 . S
C2110 C2111 1.362 . S
C2111 H2101 0.930 . S
C2111 C2104 1.409 . S
C2111 C2110 1.362 . S
H2112 C2118 0.930 . S
H2113 C2121 0.930 . S
H2114 C2122 0.930 . S
H2115 C2123 0.930 . S
H2116 C2126 0.930 . S
H2117 C2127 0.930 . S
C2118 H2112 0.930 . S
C2118 C2119 1.355 . S
C2118 C2120 1.415 . S
C2119 C2118 1.355 . S
C2119 C2121 1.419 . S
C2120 C2118 1.415 . S
C2120 C2125 1.425 . S
C2120 C2127 1.409 . S
C2121 H2113 0.930 . S
C2121 C2119 1.419 . S
C2121 C2122 1.362 . S
C2122 H2114 0.930 . S
C2122 C2121 1.362 . S
C2122 C2125 1.409 . S
C2123 H2115 0.930 . S
C2123 C2124 1.355 . S
C2123 C2125 1.415 . S
C2124 C2123 1.355 . S
C2124 C2126 1.419 . S
C2125 C2120 1.425 . S
C2125 C2122 1.409 . S
C2125 C2123 1.415 . S
C2126 H2116 0.930 . S
C2126 C2124 1.419 . S
C2126 C2127 1.362 . S
C2127 H2117 0.930 . S
C2127 C2120 1.409 . S
C2127 C2126 1.362 . S
H2128 C2134 0.930 . S
H2129 C2137 0.930 . S
H2130 C2138 0.930 . S
H2131 C2139 0.930 . S
H2132 C2142 0.930 . S
H2133 C2143 0.930 . S
C2134 H2128 0.930 . S
C2134 C2135 1.355 . S
C2134 C2136 1.415 1_655 S
C2135 C2134 1.355 . S
C2135 C2137 1.419 . S
C2136 C2134 1.415 1_455 S
C2136 C2141 1.425 . S
C2136 C2143 1.409 . S
C2137 H2129 0.930 . S
C2137 C2135 1.419 . S
C2137 C2138 1.362 1_655 S
C2138 H2130 0.930 . S
C2138 C2137 1.362 1_455 S
C2138 C2141 1.409 . S
C2139 H2131 0.930 . S
C2139 C2140 1.355 . S
C2139 C2141 1.415 . S
C2140 C2139 1.355 . S
C2140 C2142 1.419 . S
C2141 C2136 1.425 . S
C2141 C2138 1.409 . S
C2141 C2139 1.415 . S
C2142 H2132 0.930 . S
C2142 C2140 1.419 . S
C2142 C2143 1.362 . S
C2143 H2133 0.930 . S
C2143 C2136 1.409 . S
C2143 C2142 1.362 . S
H2144 C2150 0.930 . S
H2145 C2153 0.930 . S
H2146 C2154 0.930 . S
H2147 C2155 0.930 . S
H2148 C2158 0.930 . S
H2149 C2159 0.930 . S
C2150 H2144 0.930 . S
C2150 C2151 1.355 . S
C2150 C2152 1.415 . S
C2151 C2150 1.355 . S
C2151 C2153 1.419 . S
C2152 C2150 1.415 . S
C2152 C2157 1.425 . S
C2152 C2159 1.409 . S
C2153 H2145 0.930 . S
C2153 C2151 1.419 . S
C2153 C2154 1.362 . S
C2154 H2146 0.930 . S
C2154 C2153 1.362 . S
C2154 C2157 1.409 . S
C2155 H2147 0.930 . S
C2155 C2156 1.355 . S
C2155 C2157 1.415 . S
C2156 C2155 1.355 . S
C2156 C2158 1.419 . S
C2157 C2152 1.425 . S
C2157 C2154 1.409 . S
C2157 C2155 1.415 . S
C2158 H2148 0.930 . S
C2158 C2156 1.419 . S
C2158 C2159 1.362 . S
C2159 H2149 0.930 . S
C2159 C2152 1.409 . S
C2159 C2158 1.362 . S
H2160 C2166 0.930 . S
H2161 C2169 0.930 . S
H2162 C2170 0.930 . S
H2163 C2171 0.930 . S
H2164 C2174 0.930 . S
H2165 C2175 0.930 . S
C2166 H2160 0.930 . S
C2166 C2167 1.355 . S
C2166 C2168 1.415 1_655 S
C2167 C2166 1.355 . S
C2167 C2169 1.419 . S
C2168 C2166 1.415 1_455 S
C2168 C2173 1.425 . S
C2168 C2175 1.409 . S
C2169 H2161 0.930 . S
C2169 C2167 1.419 . S
C2169 C2170 1.362 1_655 S
C2170 H2162 0.930 . S
C2170 C2169 1.362 1_455 S
C2170 C2173 1.409 . S
C2171 H2163 0.930 . S
C2171 C2172 1.355 . S
C2171 C2173 1.415 . S
C2172 C2171 1.355 . S
C2172 C2174 1.419 . S
C2173 C2168 1.425 . S
C2173 C2170 1.409 . S
C2173 C2171 1.415 . S
C2174 H2164 0.930 . S
C2174 C2172 1.419 . S
C2174 C2175 1.362 . S
C2175 H2165 0.930 . S
C2175 C2168 1.409 . S
C2175 C2174 1.362 . S
H2176 C2182 0.930 . S
H2177 C2185 0.930 . S
H2178 C2186 0.930 . S
H2179 C2187 0.930 . S
H2180 C2190 0.930 . S
H2181 C2191 0.930 . S
C2182 H2176 0.930 . S
C2182 C2183 1.355 . S
C2182 C2184 1.415 . S
C2183 C2182 1.355 . S
C2183 C2185 1.419 . S
C2184 C2182 1.415 . S
C2184 C2189 1.425 . S
C2184 C2191 1.409 . S
C2185 H2177 0.930 . S
C2185 C2183 1.419 . S
C2185 C2186 1.362 . S
C2186 H2178 0.930 . S
C2186 C2185 1.362 . S
C2186 C2189 1.409 . S
C2187 H2179 0.930 . S
C2187 C2188 1.355 . S
C2187 C2189 1.415 . S
C2188 C2187 1.355 . S
C2188 C2190 1.419 . S
C2189 C2184 1.425 . S
C2189 C2186 1.409 . S
C2189 C2187 1.415 . S
C2190 H2180 0.930 . S
C2190 C2188 1.419 . S
C2190 C2191 1.362 . S
C2191 H2181 0.930 . S
C2191 C2184 1.409 . S
C2191 C2190 1.362 . S
H2192 C2198 0.930 . S
H2193 C2201 0.930 . S
H2194 C2202 0.930 . S
H2195 C2203 0.930 . S
H2196 C2206 0.930 . S
H2197 C2207 0.930 . S
C2198 H2192 0.930 . S
C2198 C2199 1.355 . S
C2198 C2200 1.415 . S
C2199 C2198 1.355 . S
C2199 C2201 1.419 . S
C2200 C2198 1.415 . S
C2200 C2205 1.425 . S
C2200 C2207 1.409 . S
C2201 H2193 0.930 . S
C2201 C2199 1.419 . S
C2201 C2202 1.362 . S
C2202 H2194 0.930 . S
C2202 C2201 1.362 . S
C2202 C2205 1.409 . S
C2203 H2195 0.930 . S
C2203 C2204 1.355 . S
C2203 C2205 1.415 . S
C2204 C2203 1.355 . S
C2204 C2206 1.419 . S
C2205 C2200 1.425 . S
C2205 C2202 1.409 . S
C2205 C2203 1.415 . S
C2206 H2196 0.930 . S
C2206 C2204 1.419 . S
C2206 C2207 1.362 . S
C2207 H2197 0.930 . S
C2207 C2200 1.409 . S
C2207 C2206 1.362 . S
H2208 C2214 0.930 . S
H2209 C2217 0.930 . S
H2210 C2218 0.930 . S
H2211 C2219 0.930 . S
H2212 C2222 0.930 . S
H2213 C2223 0.930 . S
C2214 H2208 0.930 . S
C2214 C2215 1.355 . S
C2214 C2216 1.415 . S
C2215 C2214 1.355 . S
C2215 C2217 1.419 . S
C2216 C2214 1.415 . S
C2216 C2221 1.425 . S
C2216 C2223 1.409 . S
C2217 H2209 0.930 . S
C2217 C2215 1.419 . S
C2217 C2218 1.362 . S
C2218 H2210 0.930 . S
C2218 C2217 1.362 . S
C2218 C2221 1.409 . S
C2219 H2211 0.930 . S
C2219 C2220 1.355 . S
C2219 C2221 1.415 . S
C2220 C2219 1.355 . S
C2220 C2222 1.419 . S
C2221 C2216 1.425 . S
C2221 C2218 1.409 . S
C2221 C2219 1.415 . S
C2222 H2212 0.930 . S
C2222 C2220 1.419 . S
C2222 C2223 1.362 . S
C2223 H2213 0.930 . S
C2223 C2216 1.409 . S
C2223 C2222 1.362 . S
H2224 C2230 0.930 . S
H2225 C2233 0.930 . S
H2226 C2234 0.930 . S
H2227 C2235 0.930 . S
H2228 C2238 0.930 . S
H2229 C2239 0.930 . S
C2230 H2224 0.930 . S
C2230 C2231 1.355 . S
C2230 C2232 1.415 . S
C2231 C2230 1.355 . S
C2231 C2233 1.419 . S
C2232 C2230 1.415 . S
C2232 C2237 1.425 . S
C2232 C2239 1.409 . S
C2233 H2225 0.930 . S
C2233 C2231 1.419 . S
C2233 C2234 1.362 . S
C2234 H2226 0.930 . S
C2234 C2233 1.362 . S
C2234 C2237 1.409 . S
C2235 H2227 0.930 . S
C2235 C2236 1.355 . S
C2235 C2237 1.415 . S
C2236 C2235 1.355 . S
C2236 C2238 1.419 . S
C2237 C2232 1.425 . S
C2237 C2234 1.409 . S
C2237 C2235 1.415 . S
C2238 H2228 0.930 . S
C2238 C2236 1.419 . S
C2238 C2239 1.362 . S
C2239 H2229 0.930 . S
C2239 C2232 1.409 . S
C2239 C2238 1.362 . S
H2240 C2246 0.930 . S
H2241 C2249 0.930 . S
H2242 C2250 0.930 . S
H2243 C2251 0.930 . S
H2244 C2254 0.930 . S
H2245 C2255 0.930 . S
C2246 H2240 0.930 . S
C2246 C2247 1.355 . S
C2246 C2248 1.415 . S
C2247 C2246 1.355 . S
C2247 C2249 1.419 . S
C2248 C2246 1.415 . S
C2248 C2253 1.425 . S
C2248 C2255 1.409 . S
C2249 H2241 0.930 . S
C2249 C2247 1.419 . S
C2249 C2250 1.362 . S
C2250 H2242 0.930 . S
C2250 C2249 1.362 . S
C2250 C2253 1.409 . S
C2251 H2243 0.930 . S
C2251 C2252 1.355 . S
C2251 C2253 1.415 . S
C2252 C2251 1.355 . S
C2252 C2254 1.419 . S
C2253 C2248 1.425 . S
C2253 C2250 1.409 . S
C2253 C2251 1.415 . S
C2254 H2244 0.930 . S
C2254 C2252 1.419 . S
C2254 C2255 1.362 . S
C2255 H2245 0.930 . S
C2255 C2248 1.409 . S
C2255 C2254 1.362 . S
H2256 C2262 0.930 . S
H2257 C2265 0.930 . S
H2258 C2266 0.930 . S
H2259 C2267 0.930 . S
H2260 C2270 0.930 . S
H2261 C2271 0.930 . S
C2262 H2256 0.930 . S
C2262 C2263 1.355 . S
C2262 C2264 1.415 . S
C2263 C2262 1.355 . S
C2263 C2265 1.419 . S
C2264 C2262 1.415 . S
C2264 C2269 1.425 . S
C2264 C2271 1.409 . S
C2265 H2257 0.930 . S
C2265 C2263 1.419 . S
C2265 C2266 1.362 . S
C2266 H2258 0.930 . S
C2266 C2265 1.362 . S
C2266 C2269 1.409 . S
C2267 H2259 0.930 . S
C2267 C2268 1.355 . S
C2267 C2269 1.415 1_455 S
C2268 C2267 1.355 . S
C2268 C2270 1.419 . S
C2269 C2264 1.425 . S
C2269 C2266 1.409 . S
C2269 C2267 1.415 1_655 S
C2270 H2260 0.930 . S
C2270 C2268 1.419 . S
C2270 C2271 1.362 1_455 S
C2271 H2261 0.930 . S
C2271 C2264 1.409 . S
C2271 C2270 1.362 1_655 S
H2272 C2278 0.930 . S
H2273 C2281 0.930 . S
H2274 C2282 0.930 . S
H2275 C2283 0.930 . S
H2276 C2286 0.930 . S
H2277 C2287 0.930 . S
C2278 H2272 0.930 . S
C2278 C2279 1.355 . S
C2278 C2280 1.415 . S
C2279 C2278 1.355 . S
C2279 C2281 1.419 . S
C2280 C2278 1.415 . S
C2280 C2285 1.425 . S
C2280 C2287 1.409 . S
C2281 H2273 0.930 . S
C2281 C2279 1.419 . S
C2281 C2282 1.362 . S
C2282 H2274 0.930 . S
C2282 C2281 1.362 . S
C2282 C2285 1.409 . S
C2283 H2275 0.930 . S
C2283 C2284 1.355 . S
C2283 C2285 1.415 . S
C2284 C2283 1.355 . S
C2284 C2286 1.419 . S
C2285 C2280 1.425 . S
C2285 C2282 1.409 . S
C2285 C2283 1.415 . S
C2286 H2276 0.930 . S
C2286 C2284 1.419 . S
C2286 C2287 1.362 . S
C2287 H2277 0.930 . S
C2287 C2280 1.409 . S
C2287 C2286 1.362 . S
H2288 C2294 0.930 . S
H2289 C2297 0.930 . S
H2290 C2298 0.930 . S
H2291 C2299 0.930 . S
H2292 C2302 0.930 . S
H2293 C2303 0.930 . S
C2294 H2288 0.930 . S
C2294 C2295 1.355 . S
C2294 C2296 1.415 1_455 S
C2295 C2294 1.355 . S
C2295 C2297 1.419 . S
C2296 C2294 1.415 1_655 S
C2296 C2301 1.425 . S
C2296 C2303 1.409 . S
C2297 H2289 0.930 . S
C2297 C2295 1.419 . S
C2297 C2298 1.362 1_455 S
C2298 H2290 0.930 . S
C2298 C2297 1.362 1_655 S
C2298 C2301 1.409 . S
C2299 H2291 0.930 . S
C2299 C2300 1.355 . S
C2299 C2301 1.415 . S
C2300 C2299 1.355 . S
C2300 C2302 1.419 . S
C2301 C2296 1.425 . S
C2301 C2298 1.409 . S
C2301 C2299 1.415 . S
C2302 H2292 0.930 . S
C2302 C2300 1.419 . S
C2302 C2303 1.362 . S
C2303 H2293 0.930 . S
C2303 C2296 1.409 . S
C2303 C2302 1.362 . S
H2304 C2310 0.930 . S
H2305 C2313 0.930 . S
H2306 C2314 0.930 . S
H2307 C2315 0.930 . S
H2308 C2318 0.930 . S
H2309 C2319 0.930 . S
C2310 H2304 0.930 . S
C2310 C2311 1.355 . S
C2310 C2312 1.415 . S
C2311 C2310 1.355 . S
C2311 C2313 1.419 . S
C2312 C2310 1.415 . S
C2312 C2317 1.425 . S
C2312 C2319 1.409 . S
C2313 H2305 0.930 . S
C2313 C2311 1.419 . S
C2313 C2314 1.362 . S
C2314 H2306 0.930 . S
C2314 C2313 1.362 . S
C2314 C2317 1.409 . S
C2315 H2307 0.930 . S
C2315 C2316 1.355 . S
C2315 C2317 1.415 . S
C2316 C2315 1.355 . S
C2316 C2318 1.419 . S
C2317 C2312 1.425 . S
C2317 C2314 1.409 . S
C2317 C2315 1.415 . S
C2318 H2308 0.930 . S
C2318 C2316 1.419 . S
C2318 C2319 1.362 . S
C2319 H2309 0.930 . S
C2319 C2312 1.409 . S
C2319 C2318 1.362 . S
H2320 C2326 0.930 . S
H2321 C2329 0.930 . S
H2322 C2330 0.930 . S
H2323 C2331 0.930 . S
H2324 C2334 0.930 . S
H2325 C2335 0.930 . S
C2326 H2320 0.930 . S
C2326 C2327 1.355 . S
C2326 C2328 1.415 . S
C2327 C2326 1.355 . S
C2327 C2329 1.419 . S
C2328 C2326 1.415 . S
C2328 C2333 1.425 . S
C2328 C2335 1.409 . S
C2329 H2321 0.930 . S
C2329 C2327 1.419 . S
C2329 C2330 1.362 . S
C2330 H2322 0.930 . S
C2330 C2329 1.362 . S
C2330 C2333 1.409 . S
C2331 H2323 0.930 . S
C2331 C2332 1.355 . S
C2331 C2333 1.415 . S
C2332 C2331 1.355 . S
C2332 C2334 1.419 . S
C2333 C2328 1.425 . S
C2333 C2330 1.409 . S
C2333 C2331 1.415 . S
C2334 H2324 0.930 . S
C2334 C2332 1.419 . S
C2334 C2335 1.362 . S
C2335 H2325 0.930 . S
C2335 C2328 1.409 . S
C2335 C2334 1.362 . S
C1063 C238 1.446 1_554 S
C1068 C7 1.397 . S
C1079 C40 1.374 . S
C1084 C139 1.448 . S
C1095 C73 1.376 . S
C1100 C172 1.450 . S
C1111 C205 1.435 . S
C1116 C106 1.378 1_556 S
C1127 C271 1.380 . S
C1132 C502 1.452 1_556 S
C1143 C403 1.377 . S
C1148 C304 1.438 . S
C1159 C337 1.396 . S
C1164 C436 1.447 . S
C1175 C469 1.433 . S
C1180 C370 1.379 1_554 S
C1191 C766 1.406 . S
C1196 C535 1.400 . S
C1207 C667 1.391 . S
C1212 C568 1.449 1_556 S
C1223 C700 1.391 1_554 S
C1228 C601 1.449 . S
C1239 C733 1.406 . S
C1244 C634 1.441 . S
C1255 C1030 1.380 . S
C1260 C799 1.432 . S
C1271 C832 1.406 1_554 S
C1276 C931 1.400 . S
C1287 C964 1.446 1_556 S
C1292 C865 1.397 . S
C1303 C997 1.446 . S
C1308 C898 1.397 . S
C1319 C18 0.854 . S
C1324 C249 0.784 . S
C1335 C51 0.800 . S
C1340 C150 0.809 1_556 S
C1351 C84 0.814 1_554 S
C1356 C183 0.883 . S
C1367 C117 0.785 . S
C1372 C216 0.835 . S
C1383 C513 0.807 . S
C1388 C282 0.882 . S
C1399 C315 0.813 . S
C1404 C414 0.883 1_554 S
C1415 C447 0.818 . S
C1420 C348 0.793 1_556 S
C1431 C381 0.873 . S
C1436 C480 0.855 . S
C1447 C546 0.837 1_554 S
C1452 C777 0.785 . S
C1463 C678 0.880 . S
C1468 C579 0.842 . S
C1479 C711 0.838 . S
C1484 C612 0.785 . S
C1495 C645 0.789 . S
C1500 C744 0.869 1_556 S
C1511 C810 0.787 1_556 S
C1516 C1041 0.831 . S
C1527 C843 0.830 . S
C1532 C942 0.883 . S
C1543 C876 0.881 . S
C1548 C975 0.806 . S
C1559 C909 0.879 . S
C1564 C1008 0.844 1_554 S
C1575 N211 1.597 . S
C1580 N13 1.597 . S
C1591 N46 1.595 . S
C1596 N244 1.598 . S
C1607 N145 1.594 . S
C1612 N79 1.596 . S
C1623 N178 1.597 . S
C1628 N112 1.594 . S
C1639 N475 1.596 . S
C1644 N277 1.594 . S
C1655 N508 1.594 . S
C1660 N310 1.595 . S
C1671 N409 1.595 . S
C1676 N343 1.594 . S
C1687 N442 1.595 . S
C1692 N376 1.598 . S
C1703 N541 1.595 . S
C1708 N739 1.594 . S
C1719 N772 1.594 . S
C1724 N574 1.597 . S
C1735 N673 1.596 . S
C1740 N607 1.598 . S
C1751 N706 1.597 . S
C1756 N640 1.594 . S
C1767 N1003 1.597 . S
C1772 N805 1.597 . S
C1783 N838 1.597 . S
C1788 N1036 1.597 . S
C1799 N937 1.597 . S
C1804 N871 1.597 . S
C1815 N970 1.594 . S
C1820 N904 1.595 . S
C1831 C21 1.619 . S
C1836 N893 1.557 . S
C1847 N266 1.490 . S
C1852 C54 1.603 . S
C1863 N827 1.551 . S
C1868 C87 1.622 . S
C1879 C120 1.601 . S
C1884 N332 1.473 . S
C1895 C153 1.621 . S
C1900 N959 1.550 . S
C1911 C186 1.619 . S
C1916 N464 1.556 . S
C1927 C219 1.621 . S
C1932 N1025 1.548 . S
C1943 N398 1.519 . S
C1948 C252 1.608 . S
C1959 N629 1.522 . S
C1964 C285 1.617 . S
C1975 C318 1.622 . S
C1980 N2 1.556 . S
C1991 C351 1.601 . S
C1996 N563 1.480 . S
C2007 N68 1.494 . S
C2012 C384 1.603 . S
C2023 N695 1.478 . S
C2028 C417 1.601 . S
C2039 C450 1.610 . S
C2044 N200 1.529 . S
C2055 C483 1.601 . S
C2060 N761 1.476 . S
C2071 N134 1.495 . S
C2076 C516 1.603 . S
C2087 N365 1.488 . S
C2092 C549 1.602 . S
C2103 N794 1.545 . S
C2108 C582 1.621 . S
C2119 C615 1.622 . S
C2124 N299 1.552 . S
C2135 C648 1.604 . S
C2140 N860 1.498 . S
C2151 N431 1.486 . S
C2156 C681 1.608 . S
C2167 C714 1.619 . S
C2172 N992 1.532 . S
C2183 N497 1.507 . S
C2188 C747 1.614 . S
C2199 N926 1.505 . S
C2204 C780 1.605 . S
C2215 N101 1.556 . S
C2220 C813 1.622 . S
C2231 C846 1.617 . S
C2236 N530 1.522 . S
C2247 N35 1.545 . S
C2252 C879 1.621 . S
C2263 N596 1.494 . S
C2268 C912 1.603 . S
C2279 N167 1.543 . S
C2284 C945 1.614 . S
C2295 C978 1.603 . S
C2300 N728 1.472 . S
C2311 C1011 1.602 . S
C2316 N233 1.471 . S
C2327 C1044 1.617 . S
C2332 N662 1.523 . S
