# Generated by pormake.
# Topology wgm, (5)-cn, num edge types: 1
# Building blocks:
#     Node 0, Type 0, BuildingBlock: XOMCOT_clean_sbu_0, # of connection points: 5
#     Node 1, Type 0, BuildingBlock: XOMCOT_clean_sbu_0, # of connection points: 5
#     Node 2, Type 0, BuildingBlock: XOMCOT_clean_sbu_0, # of connection points: 5
#     Node 3, Type 0, BuildingBlock: XOMCOT_clean_sbu_0, # of connection points: 5
#     Node 4, Type 0, BuildingBlock: XOMCOT_clean_sbu_0, # of connection points: 5
#     Node 5, Type 0, BuildingBlock: XOMCOT_clean_sbu_0, # of connection points: 5
#     Node 6, Type 0, BuildingBlock: XOMCOT_clean_sbu_0, # of connection points: 5
#     Node 7, Type 0, BuildingBlock: XOMCOT_clean_sbu_0, # of connection points: 5
#     Node 8, Type 0, BuildingBlock: XOMCOT_clean_sbu_0, # of connection points: 5
#     Node 9, Type 0, BuildingBlock: XOMCOT_clean_sbu_0, # of connection points: 5
#     Node 10, Type 0, BuildingBlock: XOMCOT_clean_sbu_0, # of connection points: 5
#     Node 11, Type 0, BuildingBlock: XOMCOT_clean_sbu_0, # of connection points: 5
#     Node 12, Type 0, BuildingBlock: XOMCOT_clean_sbu_0, # of connection points: 5
#     Node 13, Type 0, BuildingBlock: XOMCOT_clean_sbu_0, # of connection points: 5
#     Node 14, Type 0, BuildingBlock: XOMCOT_clean_sbu_0, # of connection points: 5
#     Node 15, Type 0, BuildingBlock: XOMCOT_clean_sbu_0, # of connection points: 5
#     Node 16, Type 0, BuildingBlock: XOMCOT_clean_sbu_0, # of connection points: 5
#     Node 17, Type 0, BuildingBlock: XOMCOT_clean_sbu_0, # of connection points: 5
#     Node 18, Type 0, BuildingBlock: XOMCOT_clean_sbu_0, # of connection points: 5
#     Node 19, Type 0, BuildingBlock: XOMCOT_clean_sbu_0, # of connection points: 5
#     Node 20, Type 0, BuildingBlock: XOMCOT_clean_sbu_0, # of connection points: 5
#     Node 21, Type 0, BuildingBlock: XOMCOT_clean_sbu_0, # of connection points: 5
#     Node 22, Type 0, BuildingBlock: XOMCOT_clean_sbu_0, # of connection points: 5
#     Node 23, Type 0, BuildingBlock: XOMCOT_clean_sbu_0, # of connection points: 5
#     Node 24, Type 0, BuildingBlock: XOMCOT_clean_sbu_0, # of connection points: 5
#     Node 25, Type 0, BuildingBlock: XOMCOT_clean_sbu_0, # of connection points: 5
#     Node 26, Type 0, BuildingBlock: XOMCOT_clean_sbu_0, # of connection points: 5
#     Node 27, Type 0, BuildingBlock: XOMCOT_clean_sbu_0, # of connection points: 5
#     Node 28, Type 0, BuildingBlock: XOMCOT_clean_sbu_0, # of connection points: 5
#     Node 29, Type 0, BuildingBlock: XOMCOT_clean_sbu_0, # of connection points: 5
#     Node 30, Type 0, BuildingBlock: XOMCOT_clean_sbu_0, # of connection points: 5
#     Node 31, Type 0, BuildingBlock: XOMCOT_clean_sbu_0, # of connection points: 5
#     Edge 32, Type (0, 0), BuildingBlock: XIVTED_clean_linker_0, # of connection points: 2
#     Edge 33, Type (0, 0), BuildingBlock: XIVTED_clean_linker_0, # of connection points: 2
#     Edge 34, Type (0, 0), BuildingBlock: XIVTED_clean_linker_0, # of connection points: 2
#     Edge 35, Type (0, 0), BuildingBlock: XIVTED_clean_linker_0, # of connection points: 2
#     Edge 36, Type (0, 0), BuildingBlock: XIVTED_clean_linker_0, # of connection points: 2
#     Edge 37, Type (0, 0), BuildingBlock: XIVTED_clean_linker_0, # of connection points: 2
#     Edge 38, Type (0, 0), BuildingBlock: XIVTED_clean_linker_0, # of connection points: 2
#     Edge 39, Type (0, 0), BuildingBlock: XIVTED_clean_linker_0, # of connection points: 2
#     Edge 40, Type (0, 0), BuildingBlock: XIVTED_clean_linker_0, # of connection points: 2
#     Edge 41, Type (0, 0), BuildingBlock: XIVTED_clean_linker_0, # of connection points: 2
#     Edge 42, Type (0, 0), BuildingBlock: XIVTED_clean_linker_0, # of connection points: 2
#     Edge 43, Type (0, 0), BuildingBlock: XIVTED_clean_linker_0, # of connection points: 2
#     Edge 44, Type (0, 0), BuildingBlock: XIVTED_clean_linker_0, # of connection points: 2
#     Edge 45, Type (0, 0), BuildingBlock: XIVTED_clean_linker_0, # of connection points: 2
#     Edge 46, Type (0, 0), BuildingBlock: XIVTED_clean_linker_0, # of connection points: 2
#     Edge 47, Type (0, 0), BuildingBlock: XIVTED_clean_linker_0, # of connection points: 2
#     Edge 48, Type (0, 0), BuildingBlock: XIVTED_clean_linker_0, # of connection points: 2
#     Edge 49, Type (0, 0), BuildingBlock: XIVTED_clean_linker_0, # of connection points: 2
#     Edge 50, Type (0, 0), BuildingBlock: XIVTED_clean_linker_0, # of connection points: 2
#     Edge 51, Type (0, 0), BuildingBlock: XIVTED_clean_linker_0, # of connection points: 2
#     Edge 52, Type (0, 0), BuildingBlock: XIVTED_clean_linker_0, # of connection points: 2
#     Edge 53, Type (0, 0), BuildingBlock: XIVTED_clean_linker_0, # of connection points: 2
#     Edge 54, Type (0, 0), BuildingBlock: XIVTED_clean_linker_0, # of connection points: 2
#     Edge 55, Type (0, 0), BuildingBlock: XIVTED_clean_linker_0, # of connection points: 2
#     Edge 56, Type (0, 0), BuildingBlock: XIVTED_clean_linker_0, # of connection points: 2
#     Edge 57, Type (0, 0), BuildingBlock: XIVTED_clean_linker_0, # of connection points: 2
#     Edge 58, Type (0, 0), BuildingBlock: XIVTED_clean_linker_0, # of connection points: 2
#     Edge 59, Type (0, 0), BuildingBlock: XIVTED_clean_linker_0, # of connection points: 2
#     Edge 60, Type (0, 0), BuildingBlock: XIVTED_clean_linker_0, # of connection points: 2
#     Edge 61, Type (0, 0), BuildingBlock: XIVTED_clean_linker_0, # of connection points: 2
#     Edge 62, Type (0, 0), BuildingBlock: XIVTED_clean_linker_0, # of connection points: 2
#     Edge 63, Type (0, 0), BuildingBlock: XIVTED_clean_linker_0, # of connection points: 2
#     Edge 64, Type (0, 0), BuildingBlock: XIVTED_clean_linker_0, # of connection points: 2
#     Edge 65, Type (0, 0), BuildingBlock: XIVTED_clean_linker_0, # of connection points: 2
#     Edge 66, Type (0, 0), BuildingBlock: XIVTED_clean_linker_0, # of connection points: 2
#     Edge 67, Type (0, 0), BuildingBlock: XIVTED_clean_linker_0, # of connection points: 2
#     Edge 68, Type (0, 0), BuildingBlock: XIVTED_clean_linker_0, # of connection points: 2
#     Edge 69, Type (0, 0), BuildingBlock: XIVTED_clean_linker_0, # of connection points: 2
#     Edge 70, Type (0, 0), BuildingBlock: XIVTED_clean_linker_0, # of connection points: 2
#     Edge 71, Type (0, 0), BuildingBlock: XIVTED_clean_linker_0, # of connection points: 2
#     Edge 72, Type (0, 0), BuildingBlock: XIVTED_clean_linker_0, # of connection points: 2
#     Edge 73, Type (0, 0), BuildingBlock: XIVTED_clean_linker_0, # of connection points: 2
#     Edge 74, Type (0, 0), BuildingBlock: XIVTED_clean_linker_0, # of connection points: 2
#     Edge 75, Type (0, 0), BuildingBlock: XIVTED_clean_linker_0, # of connection points: 2
#     Edge 76, Type (0, 0), BuildingBlock: XIVTED_clean_linker_0, # of connection points: 2
#     Edge 77, Type (0, 0), BuildingBlock: XIVTED_clean_linker_0, # of connection points: 2
#     Edge 78, Type (0, 0), BuildingBlock: XIVTED_clean_linker_0, # of connection points: 2
#     Edge 79, Type (0, 0), BuildingBlock: XIVTED_clean_linker_0, # of connection points: 2
#     Edge 80, Type (0, 0), BuildingBlock: XIVTED_clean_linker_0, # of connection points: 2
#     Edge 81, Type (0, 0), BuildingBlock: XIVTED_clean_linker_0, # of connection points: 2
#     Edge 82, Type (0, 0), BuildingBlock: XIVTED_clean_linker_0, # of connection points: 2
#     Edge 83, Type (0, 0), BuildingBlock: XIVTED_clean_linker_0, # of connection points: 2
#     Edge 84, Type (0, 0), BuildingBlock: XIVTED_clean_linker_0, # of connection points: 2
#     Edge 85, Type (0, 0), BuildingBlock: XIVTED_clean_linker_0, # of connection points: 2
#     Edge 86, Type (0, 0), BuildingBlock: XIVTED_clean_linker_0, # of connection points: 2
#     Edge 87, Type (0, 0), BuildingBlock: XIVTED_clean_linker_0, # of connection points: 2
#     Edge 88, Type (0, 0), BuildingBlock: XIVTED_clean_linker_0, # of connection points: 2
#     Edge 89, Type (0, 0), BuildingBlock: XIVTED_clean_linker_0, # of connection points: 2
#     Edge 90, Type (0, 0), BuildingBlock: XIVTED_clean_linker_0, # of connection points: 2
#     Edge 91, Type (0, 0), BuildingBlock: XIVTED_clean_linker_0, # of connection points: 2
#     Edge 92, Type (0, 0), BuildingBlock: XIVTED_clean_linker_0, # of connection points: 2
#     Edge 93, Type (0, 0), BuildingBlock: XIVTED_clean_linker_0, # of connection points: 2
#     Edge 94, Type (0, 0), BuildingBlock: XIVTED_clean_linker_0, # of connection points: 2
#     Edge 95, Type (0, 0), BuildingBlock: XIVTED_clean_linker_0, # of connection points: 2
#     Edge 96, Type (0, 0), BuildingBlock: XIVTED_clean_linker_0, # of connection points: 2
#     Edge 97, Type (0, 0), BuildingBlock: XIVTED_clean_linker_0, # of connection points: 2
#     Edge 98, Type (0, 0), BuildingBlock: XIVTED_clean_linker_0, # of connection points: 2
#     Edge 99, Type (0, 0), BuildingBlock: XIVTED_clean_linker_0, # of connection points: 2
#     Edge 100, Type (0, 0), BuildingBlock: XIVTED_clean_linker_0, # of connection points: 2
#     Edge 101, Type (0, 0), BuildingBlock: XIVTED_clean_linker_0, # of connection points: 2
#     Edge 102, Type (0, 0), BuildingBlock: XIVTED_clean_linker_0, # of connection points: 2
#     Edge 103, Type (0, 0), BuildingBlock: XIVTED_clean_linker_0, # of connection points: 2
#     Edge 104, Type (0, 0), BuildingBlock: XIVTED_clean_linker_0, # of connection points: 2
#     Edge 105, Type (0, 0), BuildingBlock: XIVTED_clean_linker_0, # of connection points: 2
#     Edge 106, Type (0, 0), BuildingBlock: XIVTED_clean_linker_0, # of connection points: 2
#     Edge 107, Type (0, 0), BuildingBlock: XIVTED_clean_linker_0, # of connection points: 2
#     Edge 108, Type (0, 0), BuildingBlock: XIVTED_clean_linker_0, # of connection points: 2
#     Edge 109, Type (0, 0), BuildingBlock: XIVTED_clean_linker_0, # of connection points: 2
#     Edge 110, Type (0, 0), BuildingBlock: XIVTED_clean_linker_0, # of connection points: 2
#     Edge 111, Type (0, 0), BuildingBlock: XIVTED_clean_linker_0, # of connection points: 2
# Relax obj value: 0.094
# Max RMSD: 0.192
# Mean RMSD: 0.192
data_MOF--net-wgm--node1-XOMCOT_clean_sbu_0--edge1-XIVTED_clean_linker_0
_symmetry_space_group_name_H-M    P1
_symmetry_Int_Tables_number       1
_symmetry_cell_setting            triclinic
loop_
_symmetry_equiv_pos_as_xyz
'x, y, z'
_cell_length_a     48.480389
_cell_length_b     48.437765
_cell_length_c     77.562214
_cell_angle_alpha  90.022918
_cell_angle_beta   90.006464
_cell_angle_gamma 90.059037
loop_
_atom_site_label
_atom_site_type_symbol
_atom_site_fract_x
_atom_site_fract_y
_atom_site_fract_z
_atom_type_partial_charge
Co0 Co 0.1869 0.13763 0.35493 0.0
C1 C 0.18692 0.1865 0.37831 0.0
C2 C 0.18599 0.14846 0.39234 0.0
C3 C 0.18396 0.17 0.40393 0.0
N4 N 0.18783 0.15884 0.37623 0.0
N5 N 0.18467 0.19384 0.39501 0.0
H6 H 0.18665 0.20124 0.36796 0.0
H7 H 0.18546 0.12669 0.39542 0.0
C8 C 0.24143 0.12629 0.37147 0.0
O9 O 0.24345 0.15285 0.37465 0.0
N10 N 0.1852 0.11715 0.3336 0.0
C11 C 0.17336 0.12718 0.31918 0.0
C12 C 0.17892 0.10978 0.30573 0.0
C13 C 0.1977 0.09344 0.32876 0.0
N14 N 0.19426 0.08869 0.3117 0.0
C15 C 0.19298 0.18851 0.33644 0.0
C16 C 0.24489 0.17814 0.32334 0.0
C17 C 0.23057 0.2015 0.31752 0.0
C18 C 0.20439 0.20672 0.32444 0.0
C19 C 0.23274 0.16048 0.33544 0.0
N20 N 0.20721 0.16595 0.34215 0.0
H21 H 0.17203 0.19205 0.3406 0.0
H22 H 0.24332 0.14154 0.33845 0.0
H23 H 0.16208 0.14638 0.31837 0.0
H24 H 0.20969 0.08049 0.3373 0.0
O25 O 0.14925 0.15019 0.35109 0.0
O26 O 0.16087 0.11252 0.36544 0.0
O27 O 0.22144 0.11716 0.36229 0.0
C28 C 0.14142 0.1286 0.3598 0.0
H29 H 0.18175 0.16826 0.41778 0.0
H30 H 0.17213 0.11234 0.29253 0.0
H31 H 0.26502 0.17304 0.31822 0.0
H32 H 0.19211 0.22395 0.31996 0.0
Co33 Co 0.13054 0.92989 0.60272 0.0
C34 C 0.08374 0.92116 0.62702 0.0
C35 C 0.11731 0.94192 0.63941 0.0
C36 C 0.0963 0.93864 0.65123 0.0
N37 N 0.10906 0.93191 0.62398 0.0
N38 N 0.07531 0.92548 0.64337 0.0
H39 H 0.07176 0.90976 0.61775 0.0
H40 H 0.13743 0.95052 0.64209 0.0
C41 C 0.14403 0.98691 0.6159 0.0
O42 O 0.11755 0.99254 0.61675 0.0
N43 N 0.15137 0.92713 0.58152 0.0
C44 C 0.14074 0.91728 0.56668 0.0
C45 C 0.15959 0.92099 0.55372 0.0
C46 C 0.17688 0.93641 0.57745 0.0
N47 N 0.18222 0.93304 0.56044 0.0
C48 C 0.07824 0.9395 0.5861 0.0
C49 C 0.09322 0.98797 0.56983 0.0
C50 C 0.06733 0.97649 0.56621 0.0
C51 C 0.05987 0.95199 0.57462 0.0
C52 C 0.11098 0.97474 0.58136 0.0
N53 N 0.10317 0.95121 0.58983 0.0
H54 H 0.07304 0.91938 0.59094 0.0
H55 H 0.13168 0.98267 0.58263 0.0
H56 H 0.12027 0.90867 0.5653 0.0
H57 H 0.1908 0.94613 0.58653 0.0
O58 O 0.11657 0.89273 0.59891 0.0
O59 O 0.15457 0.90332 0.61341 0.0
O60 O 0.15229 0.9638 0.60981 0.0
C61 C 0.138 0.88438 0.6076 0.0
H62 H 0.09668 0.94473 0.66465 0.0
H63 H 0.15693 0.91523 0.54033 0.0
H64 H 0.10038 1.00621 0.56311 0.0
H65 H 0.04033 0.94201 0.57197 0.0
Co66 Co 0.33477 0.86001 0.83332 0.0
C67 C 0.33345 0.81563 0.86037 0.0
C68 C 0.33229 0.85635 0.87112 0.0
C69 C 0.33257 0.83754 0.88445 0.0
N70 N 0.33277 0.84265 0.85597 0.0
N71 N 0.33322 0.81195 0.87764 0.0
H72 H 0.33478 0.79881 0.85136 0.0
H73 H 0.33188 0.87858 0.87239 0.0
C74 C 0.27889 0.8721 0.8474 0.0
O75 O 0.2773 0.84607 0.85205 0.0
N76 N 0.33745 0.87722 0.81089 0.0
C77 C 0.34902 0.86545 0.79694 0.0
C78 C 0.34735 0.88349 0.78334 0.0
C79 C 0.329 0.90243 0.80566 0.0
N80 N 0.33473 0.90676 0.78875 0.0
C81 C 0.33073 0.80563 0.8187 0.0
C82 C 0.27954 0.81252 0.80369 0.0
C83 C 0.2942 0.78818 0.80033 0.0
C84 C 0.32007 0.78481 0.80813 0.0
C85 C 0.291 0.83286 0.81429 0.0
N86 N 0.31605 0.8291 0.82206 0.0
H87 H 0.35134 0.80321 0.82376 0.0
H88 H 0.2803 0.85228 0.81527 0.0
H89 H 0.35834 0.84518 0.79671 0.0
H90 H 0.31889 0.91717 0.81402 0.0
O91 O 0.37294 0.84798 0.83142 0.0
O92 O 0.35914 0.88766 0.84267 0.0
O93 O 0.29925 0.88046 0.83829 0.0
C94 C 0.37939 0.87131 0.83876 0.0
H95 H 0.3322 0.84234 0.89808 0.0
H96 H 0.35556 0.87995 0.77056 0.0
H97 H 0.25998 0.81656 0.79743 0.0
H98 H 0.33229 0.76649 0.8058 0.0
Co99 Co 0.37334 0.09244 0.09374 0.0
C100 C 0.43151 0.09786 0.10623 0.0
C101 C 0.40423 0.07916 0.1247 0.0
C102 C 0.42961 0.08244 0.13225 0.0
N103 N 0.40533 0.0888 0.10844 0.0
N104 N 0.44673 0.09425 0.12071 0.0
H105 H 0.43887 0.10795 0.09466 0.0
H106 H 0.38589 0.07125 0.13091 0.0
C107 C 0.34451 0.03755 0.09682 0.0
O108 O 0.34123 0.03659 0.08003 0.0
N109 N 0.33993 0.09602 0.07973 0.0
C110 C 0.31512 0.10263 0.08644 0.0
C111 C 0.29556 0.10204 0.07371 0.0
C112 C 0.33477 0.09106 0.06281 0.0
N113 N 0.30776 0.09461 0.05881 0.0
C114 C 0.40117 0.0898 0.06137 0.0
C115 C 0.41946 0.03592 0.06376 0.0
C116 C 0.42689 0.05159 0.04926 0.0
C117 C 0.41757 0.0789 0.04823 0.0
C118 C 0.40319 0.04778 0.07677 0.0
N119 N 0.39348 0.07414 0.07519 0.0
H120 H 0.39428 0.11092 0.06028 0.0
H121 H 0.3991 0.03594 0.08828 0.0
H122 H 0.31113 0.10702 0.09987 0.0
H123 H 0.34987 0.0837 0.05372 0.0
O124 O 0.38324 0.13049 0.08867 0.0
O125 O 0.35748 0.11705 0.11065 0.0
O126 O 0.35825 0.05711 0.10375 0.0
C127 C 0.36883 0.13722 0.10218 0.0
H128 H 0.43497 0.077 0.14536 0.0
H129 H 0.27392 0.10671 0.07543 0.0
H130 H 0.42687 0.01498 0.06531 0.0
H131 H 0.42276 0.09179 0.03729 0.0
Co132 Co 0.17485 0.89784 0.18279 0.0
C133 C 0.17684 0.84443 0.16426 0.0
C134 C 0.18295 0.87859 0.14714 0.0
C135 C 0.18095 0.8548 0.13745 0.0
N136 N 0.18054 0.87203 0.16399 0.0
N137 N 0.1771 0.83341 0.1483 0.0
H138 H 0.17205 0.8327 0.17566 0.0
H139 H 0.18483 0.8994 0.14221 0.0
C140 C 0.23153 0.9082 0.16901 0.0
O141 O 0.23479 0.88134 0.16774 0.0
N142 N 0.16818 0.92326 0.20172 0.0
C143 C 0.14499 0.92404 0.21139 0.0
C144 C 0.14964 0.93984 0.22573 0.0
C145 C 0.18666 0.93894 0.21044 0.0
N146 N 0.17581 0.94899 0.22522 0.0
C147 C 0.17759 0.85275 0.20656 0.0
C148 C 0.22958 0.86349 0.21944 0.0
C149 C 0.21422 0.84183 0.22661 0.0
C150 C 0.18792 0.83651 0.21993 0.0
C151 C 0.21846 0.87926 0.20605 0.0
N152 N 0.19297 0.87344 0.19939 0.0
H153 H 0.15688 0.84874 0.20217 0.0
H154 H 0.23012 0.89686 0.20179 0.0
H155 H 0.12616 0.91284 0.20886 0.0
H156 H 0.20798 0.94161 0.20667 0.0
O157 O 0.13732 0.88411 0.18446 0.0
O158 O 0.15072 0.91896 0.16802 0.0
O159 O 0.21005 0.91809 0.17637 0.0
C160 C 0.13087 0.90297 0.17323 0.0
H161 H 0.18147 0.85345 0.12353 0.0
H162 H 0.13506 0.94377 0.23602 0.0
H163 H 0.24963 0.86896 0.22457 0.0
H164 H 0.17524 0.82002 0.22505 0.0
Co165 Co 0.38538 0.93205 0.43552 0.0
C166 C 0.43621 0.93309 0.41458 0.0
C167 C 0.40516 0.95948 0.40372 0.0
C168 C 0.42858 0.96129 0.39371 0.0
N169 N 0.4101 0.94202 0.41691 0.0
N170 N 0.44791 0.94458 0.40053 0.0
H171 H 0.44663 0.91891 0.42317 0.0
H172 H 0.38596 0.97022 0.40148 0.0
C173 C 0.35951 0.99066 0.43683 0.0
O174 O 0.37147 0.9981 0.45129 0.0
N175 N 0.36027 0.92145 0.45427 0.0
C176 C 0.35714 0.89568 0.46076 0.0
C177 C 0.34027 0.89657 0.4749 0.0
C178 C 0.34464 0.93761 0.4647 0.0
N179 N 0.33247 0.92286 0.47742 0.0
C180 C 0.41695 0.93463 0.46642 0.0
C181 C 0.44299 0.98445 0.46041 0.0
C182 C 0.44932 0.96984 0.47556 0.0
C183 C 0.43606 0.94451 0.47836 0.0
C184 C 0.42364 0.97373 0.44873 0.0
N185 N 0.41027 0.94945 0.45206 0.0
H186 H 0.40808 0.91449 0.46854 0.0
H187 H 0.41942 0.98501 0.437 0.0
H188 H 0.36712 0.87722 0.45613 0.0
H189 H 0.34272 0.95966 0.46351 0.0
O190 O 0.40139 0.89534 0.43549 0.0
O191 O 0.36529 0.90842 0.41996 0.0
O192 O 0.36299 0.96647 0.43063 0.0
C193 C 0.38236 0.88893 0.4243 0.0
H194 H 0.43111 0.97361 0.38217 0.0
H195 H 0.3342 0.87916 0.4828 0.0
H196 H 0.45281 1.00402 0.4576 0.0
H197 H 0.44097 0.93188 0.48946 0.0
Co198 Co 0.33627 0.13208 0.67668 0.0
C199 C 0.33996 0.18068 0.6543 0.0
C200 C 0.32711 0.14509 0.63989 0.0
C201 C 0.33033 0.167 0.62865 0.0
N202 N 0.33315 0.15382 0.65594 0.0
N203 N 0.33832 0.18932 0.63781 0.0
H204 H 0.34709 0.19339 0.66488 0.0
H205 H 0.32148 0.12414 0.63655 0.0
C206 C 0.28011 0.10425 0.67988 0.0
O207 O 0.27992 0.10722 0.69672 0.0
N208 N 0.34048 0.1105 0.69781 0.0
C209 C 0.3542 0.11908 0.71198 0.0
C210 C 0.35334 0.09891 0.72429 0.0
C211 C 0.33278 0.0842 0.70151 0.0
N212 N 0.33959 0.07707 0.71787 0.0
C213 C 0.33535 0.17876 0.69949 0.0
C214 C 0.27931 0.18838 0.69863 0.0
C215 C 0.29557 0.20343 0.7103 0.0
C216 C 0.32411 0.19892 0.71021 0.0
C217 C 0.29149 0.16828 0.68812 0.0
N218 N 0.31894 0.16224 0.68955 0.0
H219 H 0.35744 0.17644 0.69929 0.0
H220 H 0.27871 0.15796 0.67877 0.0
H221 H 0.36517 0.13826 0.71332 0.0
H222 H 0.32207 0.07077 0.6926 0.0
O223 O 0.37473 0.14307 0.6783 0.0
O224 O 0.35927 0.10592 0.66471 0.0
O225 O 0.29988 0.11385 0.6708 0.0
C226 C 0.38012 0.12125 0.6691 0.0
H227 H 0.32717 0.16654 0.61483 0.0
H228 H 0.36275 0.10002 0.73693 0.0
H229 H 0.25737 0.19216 0.69753 0.0
H230 H 0.33777 0.21034 0.71865 0.0
Co231 Co 0.14644 0.07533 0.91085 0.0
C232 C 0.08796 0.08038 0.89952 0.0
C233 C 0.11382 0.06038 0.88079 0.0
C234 C 0.08811 0.06393 0.87372 0.0
N235 N 0.11378 0.07071 0.89691 0.0
N236 N 0.07192 0.07653 0.88545 0.0
H237 H 0.08153 0.09127 0.91102 0.0
H238 H 0.13171 0.052 0.87432 0.0
C239 C 0.17452 0.02031 0.90924 0.0
O240 O 0.1782 0.0214 0.926 0.0
N241 N 0.18048 0.07995 0.92407 0.0
C242 C 0.20521 0.084 0.91652 0.0
C243 C 0.22527 0.08557 0.92895 0.0
C244 C 0.18612 0.07875 0.94119 0.0
N245 N 0.21338 0.08218 0.94451 0.0
C246 C 0.11989 0.07461 0.94365 0.0
C247 C 0.10049 0.02101 0.94252 0.0
C248 C 0.09353 0.03768 0.95668 0.0
C249 C 0.10348 0.0648 0.95708 0.0
C250 C 0.11684 0.0318 0.92919 0.0
N251 N 0.12714 0.05805 0.93014 0.0
H252 H 0.12696 0.09573 0.94421 0.0
H253 H 0.12037 0.01929 0.91788 0.0
H254 H 0.20864 0.08532 0.90278 0.0
H255 H 0.1711 0.07442 0.95103 0.0
O256 O 0.13632 0.11321 0.91542 0.0
O257 O 0.1613 0.09953 0.89314 0.0
O258 O 0.16114 0.03935 0.90153 0.0
C259 C 0.14972 0.11973 0.9015 0.0
H260 H 0.08193 0.05831 0.86077 0.0
H261 H 0.24698 0.08905 0.92657 0.0
H262 H 0.09254 1.00017 0.94144 0.0
H263 H 0.09863 0.07844 0.96773 0.0
Co264 Co 0.84028 0.8672 0.68833 0.0
C265 C 0.83784 0.82144 0.66216 0.0
C266 C 0.83892 0.86156 0.65056 0.0
C267 C 0.83846 0.84202 0.63764 0.0
N268 N 0.83848 0.84871 0.66599 0.0
N269 N 0.8377 0.81679 0.64497 0.0
H270 H 0.83796 0.80511 0.67156 0.0
H271 H 0.8395 0.8837 0.64882 0.0
C272 C 0.78496 0.87931 0.67338 0.0
O273 O 0.78316 0.85301 0.66938 0.0
N274 N 0.84277 0.88529 0.71057 0.0
C275 C 0.85545 0.87418 0.72437 0.0
C276 C 0.85211 0.8914 0.73824 0.0
C277 C 0.8319 0.90937 0.71624 0.0
N278 N 0.83724 0.9135 0.73323 0.0
C279 C 0.83586 0.81392 0.70413 0.0
C280 C 0.7841 0.82117 0.71831 0.0
C281 C 0.79916 0.79751 0.72264 0.0
C282 C 0.82528 0.79392 0.71529 0.0
C283 C 0.79565 0.84095 0.70731 0.0
N284 N 0.82104 0.83699 0.69999 0.0
H285 H 0.85651 0.8112 0.69924 0.0
H286 H 0.7847 0.8601 0.70561 0.0
H287 H 0.86626 0.85467 0.72438 0.0
H288 H 0.82001 0.92326 0.70824 0.0
O289 O 0.87818 0.8546 0.6907 0.0
O290 O 0.86554 0.89403 0.6787 0.0
O291 O 0.8051 0.88794 0.68262 0.0
C292 C 0.88535 0.87737 0.68302 0.0
H293 H 0.83842 0.8461 0.62393 0.0
H294 H 0.86041 0.88802 0.75102 0.0
H295 H 0.7642 0.82513 0.72416 0.0
H296 H 0.83771 0.77604 0.71843 0.0
Co297 Co 0.88651 0.0986 0.43264 0.0
C298 C 0.93686 0.09511 0.41058 0.0
C299 C 0.89976 0.09297 0.39566 0.0
C300 C 0.92197 0.09366 0.38452 0.0
N301 N 0.9091 0.09383 0.41205 0.0
N302 N 0.94524 0.09492 0.394 0.0
H303 H 0.95091 0.09753 0.42118 0.0
H304 H 0.87822 0.09269 0.39204 0.0
C305 C 0.87477 0.0421 0.41927 0.0
O306 O 0.90141 0.03928 0.41673 0.0
N307 N 0.86461 0.10449 0.45315 0.0
C308 C 0.87366 0.11949 0.46665 0.0
C309 C 0.85307 0.12137 0.47864 0.0
C310 C 0.83846 0.09705 0.4572 0.0
N311 N 0.83098 0.10738 0.47275 0.0
C312 C 0.93626 0.09351 0.45261 0.0
C313 C 0.92401 0.043 0.46722 0.0
C314 C 0.94829 0.05652 0.47226 0.0
C315 C 0.95429 0.08216 0.46475 0.0
C316 C 0.90659 0.05507 0.45502 0.0
N317 N 0.91326 0.07957 0.4473 0.0
H318 H 0.9406 0.11393 0.44773 0.0
H319 H 0.88707 0.04519 0.45258 0.0
H320 H 0.89387 0.12882 0.46761 0.0
H321 H 0.82508 0.0851 0.44887 0.0
O322 O 0.90007 0.13637 0.43429 0.0
O323 O 0.86273 0.12318 0.42002 0.0
O324 O 0.86551 0.06353 0.42701 0.0
C325 C 0.87897 0.14309 0.42478 0.0
H326 H 0.92107 0.09364 0.37058 0.0
H327 H 0.85417 0.1322 0.49084 0.0
H328 H 0.9178 0.02378 0.47322 0.0
H329 H 0.97259 0.09361 0.46836 0.0
Co330 Co 0.6873 0.12636 0.16454 0.0
C331 C 0.68263 0.18463 0.15307 0.0
C332 C 0.71008 0.1611 0.13705 0.0
C333 C 0.70941 0.18772 0.13101 0.0
N334 N 0.69355 0.15921 0.15097 0.0
N335 N 0.69214 0.20241 0.14103 0.0
H336 H 0.66828 0.19005 0.16321 0.0
H337 H 0.72163 0.14431 0.13144 0.0
C338 C 0.74042 0.09368 0.1619 0.0
O339 O 0.73853 0.08632 0.17815 0.0
N340 N 0.68107 0.09266 0.1777 0.0
C341 C 0.67713 0.06762 0.1705 0.0
C342 C 0.67476 0.04816 0.18331 0.0
C343 C 0.68109 0.08796 0.19491 0.0
N344 N 0.67732 0.06092 0.19868 0.0
C345 C 0.68757 0.15509 0.19676 0.0
C346 C 0.743 0.16797 0.19782 0.0
C347 C 0.72581 0.17814 0.21101 0.0
C348 C 0.69769 0.17138 0.21022 0.0
C349 C 0.73193 0.15187 0.18443 0.0
N350 N 0.70457 0.14499 0.18421 0.0
H351 H 0.66577 0.15062 0.19648 0.0
H352 H 0.74534 0.14583 0.174 0.0
H353 H 0.67685 0.06357 0.15679 0.0
H354 H 0.68418 0.10364 0.20456 0.0
O355 O 0.64933 0.13731 0.1684 0.0
O356 O 0.66364 0.11221 0.14636 0.0
O357 O 0.72303 0.11056 0.15544 0.0
C358 C 0.64324 0.12408 0.15432 0.0
H359 H 0.72027 0.19557 0.11984 0.0
H360 H 0.67235 0.02616 0.18138 0.0
H361 H 0.76484 0.1726 0.19768 0.0
H362 H 0.68322 0.17925 0.21963 0.0
Co363 Co 0.61851 0.92829 0.92338 0.0
C364 C 0.57473 0.91807 0.89807 0.0
C365 C 0.60539 0.94525 0.88754 0.0
C366 C 0.58475 0.94168 0.87548 0.0
N367 N 0.59892 0.93054 0.90173 0.0
N368 N 0.56563 0.92448 0.88214 0.0
H369 H 0.56362 0.90511 0.90707 0.0
H370 H 0.62364 0.95785 0.88603 0.0
C371 C 0.65035 0.98306 0.92573 0.0
O372 O 0.64729 0.98489 0.94252 0.0
N373 N 0.63746 0.92514 0.94541 0.0
C374 C 0.626 0.91516 0.95998 0.0
C375 C 0.64578 0.91297 0.97247 0.0
C376 C 0.66458 0.92811 0.94919 0.0
N377 N 0.67008 0.92103 0.96576 0.0
C378 C 0.56797 0.93113 0.94261 0.0
C379 C 0.56448 0.9878 0.94516 0.0
C380 C 0.5465 0.97163 0.95518 0.0
C381 C 0.54786 0.94287 0.95322 0.0
C382 C 0.58447 0.97511 0.93477 0.0
N383 N 0.58741 0.94705 0.93461 0.0
H384 H 0.56875 0.90893 0.94166 0.0
H385 H 0.59738 0.98813 0.92697 0.0
H386 H 0.60495 0.90856 0.96149 0.0
H387 H 0.68 0.93461 0.93995 0.0
O388 O 0.60697 0.88985 0.92561 0.0
O389 O 0.64537 0.9041 0.91305 0.0
O390 O 0.63876 0.96358 0.91727 0.0
C391 C 0.62961 0.88363 0.91745 0.0
H392 H 0.5839 0.95092 0.86278 0.0
H393 H 0.64247 0.9058 0.98552 0.0
H394 H 0.56331 0.01011 0.94541 0.0
H395 H 0.53436 0.92927 0.96038 0.0
Co396 Co 0.83113 0.12971 0.85108 0.0
C397 C 0.83629 0.17823 0.87451 0.0
C398 C 0.82107 0.14262 0.88785 0.0
C399 C 0.82405 0.16386 0.89957 0.0
N400 N 0.82795 0.15186 0.87199 0.0
N401 N 0.83381 0.1861 0.89113 0.0
H402 H 0.8448 0.19134 0.86465 0.0
H403 H 0.81494 0.12167 0.89079 0.0
C404 C 0.77404 0.11877 0.86451 0.0
O405 O 0.77131 0.14549 0.86687 0.0
N406 N 0.83543 0.10835 0.83008 0.0
C407 C 0.84917 0.11803 0.81624 0.0
C408 C 0.84675 0.09955 0.80299 0.0
C409 C 0.82485 0.08373 0.82505 0.0
N410 N 0.83141 0.07803 0.8084 0.0
C411 C 0.82719 0.18038 0.83205 0.0
C412 C 0.77635 0.17038 0.81722 0.0
C413 C 0.79129 0.1937 0.81207 0.0
C414 C 0.81699 0.19862 0.81965 0.0
C415 C 0.7876 0.15226 0.82939 0.0
N416 N 0.81244 0.1577 0.8371 0.0
H417 H 0.84782 0.18375 0.83675 0.0
H418 H 0.77689 0.13314 0.83174 0.0
H419 H 0.85991 0.13758 0.8157 0.0
H420 H 0.81216 0.07068 0.83314 0.0
O421 O 0.86899 0.14224 0.84876 0.0
O422 O 0.85582 0.10518 0.86328 0.0
O423 O 0.79561 0.10934 0.85699 0.0
C424 C 0.87579 0.12121 0.85827 0.0
H425 H 0.82044 0.16273 0.91333 0.0
H426 H 0.85581 0.10171 0.7903 0.0
H427 H 0.75678 0.16541 0.81122 0.0
H428 H 0.8294 0.21615 0.81575 0.0
Co429 Co 0.64441 0.07479 0.60661 0.0
C430 C 0.58735 0.07934 0.62028 0.0
C431 C 0.61207 0.05117 0.63505 0.0
C432 C 0.58606 0.05184 0.64206 0.0
N433 N 0.61284 0.0682 0.62131 0.0
N434 N 0.57063 0.06959 0.63282 0.0
H435 H 0.58111 0.09405 0.61053 0.0
H436 H 0.62922 0.0392 0.63986 0.0
C437 C 0.67649 0.02167 0.60811 0.0
O438 O 0.67928 0.02217 0.59127 0.0
N439 N 0.67701 0.08135 0.59235 0.0
C440 C 0.70171 0.08879 0.59894 0.0
C441 C 0.72007 0.09303 0.58574 0.0
C442 C 0.68112 0.08039 0.57504 0.0
N443 N 0.70713 0.08768 0.57078 0.0
C444 C 0.61562 0.0716 0.57463 0.0
C445 C 0.59853 0.01737 0.57729 0.0
C446 C 0.58955 0.03312 0.56315 0.0
C447 C 0.59847 0.06055 0.56195 0.0
C448 C 0.61603 0.02921 0.58967 0.0
N449 N 0.62496 0.05587 0.58802 0.0
H450 H 0.62138 0.09308 0.57367 0.0
H451 H 0.62142 0.01724 0.60091 0.0
H452 H 0.70619 0.09114 0.61252 0.0
H453 H 0.66583 0.07477 0.5656 0.0
O454 O 0.63169 0.11199 0.60209 0.0
O455 O 0.6588 0.10017 0.62379 0.0
O456 O 0.66227 0.04016 0.61575 0.0
C457 C 0.64565 0.11955 0.6156 0.0
H458 H 0.57916 0.04064 0.65334 0.0
H459 H 0.74136 0.0995 0.58701 0.0
H460 H 0.5918 0.9962 0.57891 0.0
H461 H 0.59143 0.07381 0.5516 0.0
Co462 Co 0.68305 0.90336 0.34903 0.0
C463 C 0.67383 0.84575 0.36057 0.0
C464 C 0.69157 0.87123 0.38039 0.0
C465 C 0.68595 0.84568 0.38727 0.0
N466 N 0.68394 0.87127 0.36371 0.0
N467 N 0.67479 0.82973 0.37483 0.0
H468 H 0.6648 0.8395 0.34842 0.0
H469 H 0.69969 0.88892 0.38724 0.0
C470 C 0.73929 0.92881 0.35205 0.0
O471 O 0.73981 0.93194 0.33522 0.0
N472 N 0.68203 0.93661 0.33492 0.0
C473 C 0.68312 0.96219 0.34176 0.0
C474 C 0.68279 0.98132 0.32873 0.0
C475 C 0.68083 0.94066 0.31764 0.0
N476 N 0.68144 0.96785 0.31355 0.0
C477 C 0.68444 0.87342 0.31722 0.0
C478 C 0.73798 0.85446 0.31958 0.0
C479 C 0.7222 0.84679 0.30512 0.0
C480 C 0.69487 0.8563 0.30429 0.0
C481 C 0.72651 0.87126 0.33243 0.0
N482 N 0.70043 0.88164 0.33077 0.0
H483 H 0.66325 0.88008 0.3163 0.0
H484 H 0.73854 0.87533 0.34384 0.0
H485 H 0.68451 0.96664 0.35539 0.0
H486 H 0.68021 0.92444 0.30816 0.0
O487 O 0.64458 0.89585 0.34383 0.0
O488 O 0.65941 0.9216 0.36554 0.0
O489 O 0.71923 0.91614 0.35924 0.0
C490 C 0.63872 0.91101 0.35719 0.0
H491 H 0.68938 0.8394 0.4005 0.0
H492 H 0.68336 1.00351 0.33037 0.0
H493 H 0.75906 0.84755 0.32109 0.0
H494 H 0.68124 0.85017 0.29392 0.0
Co495 Co 0.89168 0.92793 0.07969 0.0
C496 C 0.93695 0.91961 0.10469 0.0
C497 C 0.89837 0.927 0.11739 0.0
C498 C 0.91861 0.92406 0.12976 0.0
N499 N 0.91 0.92435 0.10169 0.0
N500 N 0.94284 0.91964 0.12168 0.0
H501 H 0.95209 0.91615 0.09473 0.0
H502 H 0.87677 0.93124 0.11965 0.0
C503 C 0.86002 0.98239 0.08241 0.0
O504 O 0.85566 0.98374 0.06574 0.0
N505 N 0.8733 0.93139 0.05734 0.0
C506 C 0.88517 0.93851 0.0422 0.0
C507 C 0.86555 0.9394 0.02957 0.0
C508 C 0.84628 0.92759 0.05344 0.0
N509 N 0.84106 0.93275 0.03657 0.0
C510 C 0.94369 0.92978 0.06225 0.0
C511 C 0.9491 0.98642 0.06039 0.0
C512 C 0.96743 0.96987 0.05088 0.0
C513 C 0.96499 0.94115 0.05246 0.0
C514 C 0.92794 0.97417 0.07008 0.0
N515 N 0.9246 0.94613 0.07027 0.0
H516 H 0.94173 0.90763 0.06245 0.0
H517 H 0.91398 0.98753 0.07688 0.0
H518 H 0.90657 0.94321 0.04005 0.0
H519 H 0.83067 0.92209 0.0628 0.0
O520 O 0.90067 0.88975 0.0746 0.0
O521 O 0.86276 0.90355 0.08786 0.0
O522 O 0.875 0.96329 0.0888 0.0
C523 C 0.87789 0.8832 0.08244 0.0
H524 H 0.91588 0.92592 0.14356 0.0
H525 H 0.86913 0.9444 0.01616 0.0
H526 H 0.95065 0.00871 0.06007 0.0
H527 H 0.97838 0.92732 0.04539 0.0
Co528 Co 0.6831 0.61848 0.85941 0.0
C529 C 0.67798 0.67511 0.87358 0.0
C530 C 0.7086 0.65154 0.8871 0.0
C531 C 0.70728 0.67744 0.89435 0.0
N532 N 0.69035 0.65012 0.87401 0.0
N533 N 0.68796 0.69215 0.8859 0.0
H534 H 0.66216 0.6808 0.86441 0.0
H535 H 0.72181 0.63491 0.89133 0.0
C536 C 0.73525 0.5848 0.86021 0.0
O537 O 0.73337 0.5813 0.84345 0.0
N538 N 0.67555 0.58611 0.84522 0.0
C539 C 0.67257 0.56052 0.85182 0.0
C540 C 0.66619 0.54244 0.83877 0.0
C541 C 0.67091 0.58313 0.82809 0.0
N542 N 0.66514 0.55663 0.82385 0.0
C543 C 0.68592 0.64882 0.82785 0.0
C544 C 0.7418 0.65977 0.82827 0.0
C545 C 0.72584 0.67042 0.81466 0.0
C546 C 0.69743 0.66489 0.81477 0.0
C547 C 0.7293 0.64405 0.84128 0.0
N548 N 0.70183 0.63771 0.8406 0.0
H549 H 0.66392 0.64547 0.82772 0.0
H550 H 0.74174 0.63773 0.85211 0.0
H551 H 0.67506 0.55531 0.86528 0.0
H552 H 0.67146 0.59967 0.81882 0.0
O553 O 0.64591 0.63161 0.85545 0.0
O554 O 0.65838 0.60373 0.8767 0.0
O555 O 0.71787 0.60006 0.86811 0.0
C556 C 0.63886 0.61716 0.86885 0.0
H557 H 0.71915 0.68468 0.90528 0.0
H558 H 0.66323 0.5204 0.84012 0.0
H559 H 0.76375 0.66365 0.82901 0.0
H560 H 0.68385 0.67348 0.80509 0.0
Co561 Co 0.6331 0.43998 0.10247 0.0
C562 C 0.58589 0.43862 0.12593 0.0
C563 C 0.62291 0.44813 0.13986 0.0
C564 C 0.60133 0.44584 0.15148 0.0
N565 N 0.61302 0.44364 0.12386 0.0
N566 N 0.57813 0.44003 0.14257 0.0
H567 H 0.57218 0.43278 0.11557 0.0
H568 H 0.64433 0.45203 0.1429 0.0
C569 C 0.66514 0.4944 0.09955 0.0
O570 O 0.66279 0.4952 0.08268 0.0
N571 N 0.6524 0.43516 0.08059 0.0
C572 C 0.6406 0.42346 0.06664 0.0
C573 C 0.65959 0.42088 0.05382 0.0
C574 C 0.67928 0.43856 0.0761 0.0
N575 N 0.68406 0.43014 0.05964 0.0
C576 C 0.58361 0.44253 0.08233 0.0
C577 C 0.58181 0.49893 0.07788 0.0
C578 C 0.56463 0.48222 0.06767 0.0
C579 C 0.5649 0.45371 0.07066 0.0
C580 C 0.60039 0.48673 0.08943 0.0
N581 N 0.60279 0.45866 0.09042 0.0
H582 H 0.58359 0.42045 0.08408 0.0
H583 H 0.61277 0.50009 0.09734 0.0
H584 H 0.61987 0.41573 0.0658 0.0
H585 H 0.69501 0.44631 0.08474 0.0
O586 O 0.62058 0.4019 0.10099 0.0
O587 O 0.65917 0.41581 0.11354 0.0
O588 O 0.65346 0.47528 0.10824 0.0
C589 C 0.64281 0.39558 0.10952 0.0
H590 H 0.6026 0.44813 0.16534 0.0
H591 H 0.65556 0.41247 0.04115 0.0
H592 H 0.58123 0.5212 0.07679 0.0
H593 H 0.55183 0.43976 0.06343 0.0
Co594 Co 0.83316 0.38111 0.3362 0.0
C595 C 0.84449 0.33894 0.36279 0.0
C596 C 0.81713 0.37009 0.37245 0.0
C597 C 0.82048 0.3502 0.38498 0.0
N598 N 0.83192 0.36281 0.35843 0.0
N599 N 0.83772 0.33072 0.37886 0.0
H600 H 0.85763 0.32726 0.35422 0.0
H601 H 0.80435 0.38826 0.37353 0.0
C602 C 0.78021 0.41665 0.33538 0.0
O603 O 0.77864 0.41713 0.31849 0.0
N604 N 0.83497 0.39876 0.31371 0.0
C605 C 0.83863 0.38528 0.29868 0.0
C606 C 0.84006 0.40401 0.28552 0.0
C607 C 0.83506 0.42589 0.30944 0.0
N608 N 0.83782 0.42961 0.29218 0.0
C609 C 0.82906 0.32729 0.32109 0.0
C610 C 0.77449 0.32948 0.31108 0.0
C611 C 0.79115 0.30816 0.30462 0.0
C612 C 0.81846 0.30671 0.31036 0.0
C613 C 0.78602 0.34992 0.32176 0.0
N614 N 0.81347 0.34954 0.3259 0.0
H615 H 0.85058 0.32613 0.32444 0.0
H616 H 0.77279 0.36619 0.32613 0.0
H617 H 0.84056 0.36326 0.29717 0.0
H618 H 0.83316 0.44243 0.31875 0.0
O619 O 0.87095 0.36859 0.33316 0.0
O620 O 0.85896 0.40795 0.34544 0.0
O621 O 0.79848 0.40204 0.34301 0.0
C622 C 0.87853 0.39108 0.34098 0.0
H623 H 0.81079 0.34993 0.39755 0.0
H624 H 0.8422 0.39896 0.272 0.0
H625 H 0.75307 0.33113 0.30725 0.0
H626 H 0.83193 0.29021 0.30611 0.0
Co627 Co 0.86801 0.58452 0.58961 0.0
C628 C 0.9167 0.6 0.61007 0.0
C629 C 0.88619 0.58004 0.62579 0.0
C630 C 0.90974 0.58381 0.6355 0.0
N631 N 0.89082 0.58974 0.60977 0.0
N632 N 0.92875 0.5964 0.62555 0.0
H633 H 0.92718 0.60832 0.59891 0.0
H634 H 0.86749 0.5699 0.62993 0.0
C635 C 0.84338 0.52659 0.59342 0.0
O636 O 0.83998 0.52376 0.57675 0.0
N637 N 0.84555 0.57912 0.56884 0.0
C638 C 0.85407 0.56697 0.55401 0.0
C639 C 0.83247 0.5649 0.54282 0.0
C640 C 0.8185 0.58485 0.56605 0.0
N641 N 0.81016 0.57595 0.55032 0.0
C642 C 0.91425 0.58617 0.56703 0.0
C643 C 0.92666 0.53055 0.5675 0.0
C644 C 0.93922 0.54756 0.5551 0.0
C645 C 0.93392 0.57593 0.55568 0.0
C646 C 0.90733 0.54179 0.57896 0.0
N647 N 0.89997 0.56897 0.57778 0.0
H648 H 0.90945 0.60784 0.56634 0.0
H649 H 0.89767 0.52826 0.58816 0.0
H650 H 0.87425 0.55886 0.55131 0.0
H651 H 0.80513 0.59485 0.5753 0.0
O652 O 0.87304 0.62317 0.58383 0.0
O653 O 0.83961 0.60695 0.60029 0.0
O654 O 0.85541 0.54793 0.59961 0.0
C655 C 0.852 0.62829 0.59369 0.0
H656 H 0.913 0.57702 0.64864 0.0
H657 H 0.83312 0.55618 0.52996 0.0
H658 H 0.93058 0.50855 0.5678 0.0
H659 H 0.944 0.59008 0.5469 0.0
Co660 Co 0.67549 0.38417 0.68186 0.0
C661 C 0.66569 0.33051 0.66461 0.0
C662 C 0.6745 0.36287 0.64649 0.0
C663 C 0.67046 0.33865 0.63753 0.0
N664 N 0.67149 0.3577 0.66343 0.0
N665 N 0.66502 0.3183 0.64893 0.0
H666 H 0.66196 0.31992 0.67667 0.0
H667 H 0.67955 0.38282 0.64108 0.0
C668 C 0.71631 0.42155 0.66796 0.0
O669 O 0.69776 0.44024 0.67192 0.0
N670 N 0.68068 0.41041 0.70058 0.0
C671 C 0.70545 0.41439 0.70813 0.0
C672 C 0.70334 0.43505 0.72007 0.0
C673 C 0.66345 0.42851 0.70844 0.0
N674 N 0.67708 0.44395 0.72028 0.0
C675 C 0.67789 0.34825 0.71056 0.0
C676 C 0.73023 0.32735 0.70528 0.0
C677 C 0.71573 0.31955 0.72026 0.0
C678 C 0.68889 0.32978 0.72244 0.0
C679 C 0.7181 0.34558 0.6934 0.0
N680 N 0.69247 0.35622 0.69639 0.0
H681 H 0.65768 0.3567 0.71301 0.0
H682 H 0.72955 0.35149 0.68204 0.0
H683 H 0.72407 0.40324 0.70494 0.0
H684 H 0.64178 0.43079 0.70544 0.0
O685 O 0.63705 0.37818 0.68793 0.0
O686 O 0.65187 0.40953 0.6694 0.0
O687 O 0.71182 0.39619 0.67155 0.0
C688 C 0.63114 0.3974 0.67684 0.0
H689 H 0.67209 0.3361 0.6237 0.0
H690 H 0.7198 0.44285 0.72817 0.0
H691 H 0.75099 0.3201 0.70293 0.0
H692 H 0.67631 0.32384 0.73335 0.0
Co693 Co 0.89324 0.41985 0.93809 0.0
C694 C 0.93979 0.42046 0.91291 0.0
C695 C 0.90052 0.41952 0.90027 0.0
C696 C 0.92096 0.4188 0.88788 0.0
N697 N 0.91235 0.42072 0.916 0.0
N698 N 0.94563 0.41949 0.8959 0.0
H699 H 0.9554 0.42021 0.92275 0.0
H700 H 0.87852 0.41907 0.89797 0.0
C701 C 0.88026 0.47427 0.92184 0.0
O702 O 0.90632 0.47601 0.91734 0.0
N703 N 0.87492 0.41821 0.96022 0.0
C704 C 0.88672 0.40789 0.97457 0.0
C705 C 0.86959 0.41242 0.98834 0.0
C706 C 0.85039 0.42857 0.9654 0.0
N707 N 0.84684 0.42541 0.98262 0.0
C708 C 0.94571 0.42565 0.95492 0.0
C709 C 0.93774 0.47871 0.96698 0.0
C710 C 0.96099 0.46405 0.97247 0.0
C711 C 0.96497 0.43725 0.96622 0.0
C712 C 0.91867 0.46614 0.95595 0.0
N713 N 0.92296 0.44007 0.94968 0.0
H714 H 0.94859 0.4045 0.95092 0.0
H715 H 0.8997 0.47697 0.9535 0.0
H716 H 0.90666 0.39798 0.97506 0.0
H717 H 0.83576 0.43857 0.95691 0.0
O718 O 0.90594 0.38198 0.94114 0.0
O719 O 0.86679 0.39415 0.92862 0.0
O720 O 0.87217 0.45458 0.93164 0.0
C721 C 0.88335 0.37451 0.93332 0.0
H722 H 0.91787 0.41793 0.87407 0.0
H723 H 0.87332 0.40618 1.00155 0.0
H724 H 0.93346 0.49915 0.97198 0.0
H725 H 0.98253 0.4251 0.97035 0.0
Co726 Co 0.83245 0.64965 0.17749 0.0
C727 C 0.83806 0.69465 0.15128 0.0
C728 C 0.8256 0.65629 0.13991 0.0
C729 C 0.82779 0.67577 0.12702 0.0
N730 N 0.83122 0.66831 0.15523 0.0
N731 N 0.83576 0.69975 0.13423 0.0
H732 H 0.84491 0.70989 0.16044 0.0
H733 H 0.82036 0.63475 0.13821 0.0
C734 C 0.77622 0.63783 0.16299 0.0
O735 O 0.77412 0.66404 0.15882 0.0
N736 N 0.83452 0.63138 0.19964 0.0
C737 C 0.84378 0.64351 0.21417 0.0
C738 C 0.84231 0.62496 0.22747 0.0
C739 C 0.82797 0.60525 0.20423 0.0
N740 N 0.83239 0.60093 0.22128 0.0
C741 C 0.82882 0.70329 0.19319 0.0
C742 C 0.77695 0.69672 0.20737 0.0
C743 C 0.79236 0.72015 0.21174 0.0
C744 C 0.81852 0.72342 0.20439 0.0
C745 C 0.78825 0.67676 0.1964 0.0
N746 N 0.81374 0.68032 0.18912 0.0
H747 H 0.84979 0.7054 0.18875 0.0
H748 H 0.77706 0.65772 0.19479 0.0
H749 H 0.85149 0.6644 0.21504 0.0
H750 H 0.82017 0.58985 0.19536 0.0
O751 O 0.87074 0.66102 0.18016 0.0
O752 O 0.8567 0.62247 0.16757 0.0
O753 O 0.79683 0.62947 0.17189 0.0
C754 C 0.87709 0.63822 0.17219 0.0
H755 H 0.82456 0.67242 0.11336 0.0
H756 H 0.84885 0.62861 0.24063 0.0
H757 H 0.757 0.693 0.21323 0.0
H758 H 0.8313 0.74101 0.20769 0.0
Co759 Co 0.63046 0.5916 0.41322 0.0
C760 C 0.57682 0.58524 0.39576 0.0
C761 C 0.60978 0.57087 0.37975 0.0
C762 C 0.58574 0.57059 0.37022 0.0
N763 N 0.60406 0.57943 0.39594 0.0
N764 N 0.56519 0.57994 0.38032 0.0
H765 H 0.56598 0.5951 0.40622 0.0
H766 H 0.63028 0.56683 0.37486 0.0
C767 C 0.64705 0.53392 0.40336 0.0
O768 O 0.62082 0.52709 0.40383 0.0
N769 N 0.6564 0.60534 0.43061 0.0
C770 C 0.65927 0.63214 0.43519 0.0
C771 C 0.67626 0.63416 0.44911 0.0
C772 C 0.67202 0.59138 0.44224 0.0
N773 N 0.6844 0.60866 0.45369 0.0
C774 C 0.58689 0.58765 0.43827 0.0
C775 C 0.60205 0.538 0.4529 0.0
C776 C 0.57835 0.5513 0.45908 0.0
C777 C 0.5711 0.57667 0.45172 0.0
C778 C 0.61745 0.54987 0.43954 0.0
N779 N 0.60926 0.5739 0.43181 0.0
H780 H 0.58099 0.60745 0.43314 0.0
H781 H 0.63627 0.53974 0.43587 0.0
H782 H 0.64887 0.64958 0.42956 0.0
H783 H 0.6739 0.56915 0.44255 0.0
O784 O 0.61253 0.62745 0.41268 0.0
O785 O 0.64726 0.61511 0.39592 0.0
O786 O 0.65469 0.55787 0.40862 0.0
C787 C 0.62957 0.63396 0.40035 0.0
H788 H 0.58391 0.56605 0.3566 0.0
H789 H 0.681 0.65311 0.4559 0.0
H790 H 0.60901 0.51884 0.45861 0.0
H791 H 0.55313 0.58787 0.45617 0.0
Co792 Co 0.33906 0.38723 0.18259 0.0
C793 C 0.33792 0.3387 0.15902 0.0
C794 C 0.33682 0.37679 0.14506 0.0
C795 C 0.33811 0.3553 0.13337 0.0
N796 N 0.33658 0.36633 0.16118 0.0
N797 N 0.33871 0.33138 0.14224 0.0
H798 H 0.33951 0.324 0.16933 0.0
H799 H 0.33665 0.39858 0.14201 0.0
C800 C 0.28372 0.39996 0.1673 0.0
O801 O 0.28127 0.37369 0.16336 0.0
N802 N 0.34258 0.40719 0.20404 0.0
C803 C 0.35525 0.39663 0.21803 0.0
C804 C 0.35266 0.41474 0.23146 0.0
C805 C 0.33256 0.43193 0.20911 0.0
N806 N 0.33838 0.43686 0.22593 0.0
C807 C 0.33407 0.33612 0.20106 0.0
C808 C 0.28245 0.34594 0.21476 0.0
C809 C 0.29711 0.32264 0.22034 0.0
C810 C 0.32312 0.31768 0.21311 0.0
C811 C 0.29415 0.36385 0.20265 0.0
N812 N 0.31954 0.35869 0.19566 0.0
H813 H 0.35491 0.3328 0.19663 0.0
H814 H 0.2833 0.38271 0.19986 0.0
H815 H 0.36553 0.37685 0.21849 0.0
H816 H 0.32094 0.44568 0.20087 0.0
O817 O 0.37707 0.37471 0.1852 0.0
O818 O 0.36402 0.41259 0.17155 0.0
O819 O 0.30413 0.40818 0.17645 0.0
C820 C 0.384 0.39666 0.17652 0.0
H821 H 0.33878 0.35715 0.11947 0.0
H822 H 0.36099 0.41202 0.2443 0.0
H823 H 0.2624 0.35083 0.22009 0.0
H824 H 0.33564 0.30048 0.21737 0.0
Co825 Co 0.37928 0.58363 0.93365 0.0
C826 C 0.42808 0.60096 0.91382 0.0
C827 C 0.39724 0.5825 0.89758 0.0
C828 C 0.42068 0.58687 0.88791 0.0
N829 N 0.40209 0.59101 0.91384 0.0
N830 N 0.43988 0.59852 0.89816 0.0
H831 H 0.43883 0.60786 0.92528 0.0
H832 H 0.37856 0.57236 0.89331 0.0
C833 C 0.34486 0.5389 0.92174 0.0
O834 O 0.32498 0.55496 0.92734 0.0
N835 N 0.35715 0.57477 0.95379 0.0
C836 C 0.35873 0.54983 0.96145 0.0
C837 C 0.34107 0.54902 0.97513 0.0
C838 C 0.33847 0.58913 0.96318 0.0
N839 N 0.32817 0.57355 0.97624 0.0
C840 C 0.41913 0.5846 0.9602 0.0
C841 C 0.44465 0.53499 0.95273 0.0
C842 C 0.45243 0.5496 0.96761 0.0
C843 C 0.43983 0.57497 0.97104 0.0
C844 C 0.42409 0.54573 0.94192 0.0
N845 N 0.41111 0.56985 0.94608 0.0
H846 H 0.40863 0.60345 0.96362 0.0
H847 H 0.41812 0.5343 0.93056 0.0
H848 H 0.37188 0.5331 0.9573 0.0
H849 H 0.33227 0.61013 0.96047 0.0
O850 O 0.38161 0.62233 0.94002 0.0
O851 O 0.34973 0.60437 0.923 0.0
O852 O 0.36998 0.54633 0.92361 0.0
C853 C 0.36051 0.62627 0.92997 0.0
H854 H 0.42385 0.58086 0.87461 0.0
H855 H 0.33824 0.53172 0.98378 0.0
H856 H 0.45409 0.51535 0.94964 0.0
H857 H 0.44495 0.58668 0.98251 0.0
Co858 Co 0.17287 0.61619 0.66162 0.0
C859 C 0.17451 0.67244 0.64649 0.0
C860 C 0.18816 0.64185 0.62846 0.0
C861 C 0.18743 0.66702 0.6202 0.0
N862 N 0.18085 0.64536 0.64512 0.0
N863 N 0.17861 0.68609 0.63155 0.0
H864 H 0.16581 0.68193 0.65782 0.0
H865 H 0.19266 0.62214 0.62254 0.0
C866 C 0.23028 0.6048 0.64864 0.0
O867 O 0.23555 0.63138 0.64957 0.0
N868 N 0.16379 0.5869 0.67803 0.0
C869 C 0.13816 0.57922 0.68302 0.0
C870 C 0.14003 0.5583 0.69481 0.0
C871 C 0.18096 0.57041 0.68722 0.0
N872 N 0.16685 0.55278 0.69751 0.0
C873 C 0.1771 0.65723 0.68812 0.0
C874 C 0.22864 0.64343 0.70047 0.0
C875 C 0.21449 0.66542 0.70821 0.0
C876 C 0.18831 0.67213 0.70184 0.0
C877 C 0.21665 0.62903 0.6867 0.0
N878 N 0.19143 0.63646 0.68026 0.0
H879 H 0.1566 0.66257 0.68394 0.0
H880 H 0.22766 0.61153 0.6817 0.0
H881 H 0.11901 0.58838 0.6789 0.0
H882 H 0.2032 0.57117 0.68648 0.0
O883 O 0.13614 0.63153 0.66391 0.0
O884 O 0.14815 0.5997 0.64486 0.0
O885 O 0.20736 0.59527 0.65435 0.0
C886 C 0.12907 0.6157 0.65111 0.0
H887 H 0.19151 0.67076 0.60667 0.0
H888 H 0.12294 0.54865 0.70149 0.0
H889 H 0.24857 0.63689 0.70528 0.0
H890 H 0.17648 0.68891 0.70734 0.0
Co891 Co 0.12374 0.4333 0.42505 0.0
C892 C 0.07879 0.41928 0.40059 0.0
C893 C 0.11265 0.43922 0.38784 0.0
C894 C 0.09154 0.43568 0.37612 0.0
N895 N 0.10447 0.42934 0.40326 0.0
N896 N 0.07032 0.42316 0.38418 0.0
H897 H 0.06602 0.41038 0.41057 0.0
H898 H 0.13229 0.44903 0.38537 0.0
C899 C 0.15417 0.48834 0.42324 0.0
O900 O 0.15754 0.48889 0.44001 0.0
N901 N 0.14263 0.43691 0.44731 0.0
C902 C 0.13104 0.44458 0.46245 0.0
C903 C 0.1507 0.44498 0.47507 0.0
C904 C 0.16951 0.43214 0.45127 0.0
N905 N 0.1749 0.43731 0.46813 0.0
C906 C 0.07204 0.43362 0.44258 0.0
C907 C 0.06744 0.49009 0.44653 0.0
C908 C 0.05029 0.4727 0.45623 0.0
C909 C 0.05175 0.44423 0.4534 0.0
C910 C 0.08746 0.47859 0.43568 0.0
N911 N 0.09079 0.45059 0.43474 0.0
H912 H 0.07375 0.41151 0.44158 0.0
H913 H 0.10094 0.49245 0.4289 0.0
H914 H 0.10979 0.44988 0.4646 0.0
H915 H 0.18489 0.4257 0.442 0.0
O916 O 0.116 0.39501 0.43051 0.0
O917 O 0.1529 0.4098 0.41652 0.0
O918 O 0.13975 0.46934 0.41614 0.0
C919 C 0.139 0.38913 0.42274 0.0
H920 H 0.09161 0.4422 0.36277 0.0
H921 H 0.14732 0.45017 0.48849 0.0
H922 H 0.06664 0.51229 0.44809 0.0
H923 H 0.03825 0.4301 0.46019 0.0
Co924 Co 0.32738 0.64452 0.34871 0.0
C925 C 0.34642 0.68355 0.37542 0.0
C926 C 0.31379 0.65804 0.38505 0.0
C927 C 0.31893 0.67861 0.39687 0.0
N928 N 0.33078 0.66128 0.37142 0.0
N929 N 0.3393 0.69475 0.39071 0.0
H930 H 0.3611 0.6929 0.36672 0.0
H931 H 0.29727 0.64329 0.38596 0.0
C932 C 0.27431 0.60974 0.34965 0.0
O933 O 0.27309 0.60748 0.3328 0.0
N934 N 0.32468 0.629 0.32559 0.0
C935 C 0.32233 0.64384 0.31093 0.0
C936 C 0.32302 0.62644 0.29706 0.0
C937 C 0.32767 0.60254 0.32025 0.0
N938 N 0.32641 0.60044 0.30282 0.0
C939 C 0.32345 0.70025 0.33699 0.0
C940 C 0.26842 0.69916 0.32784 0.0
C941 C 0.28484 0.7213 0.3223 0.0
C942 C 0.31235 0.72229 0.32778 0.0
C943 C 0.28029 0.67759 0.33726 0.0
N944 N 0.30788 0.67758 0.34093 0.0
H945 H 0.34522 0.70067 0.33972 0.0
H946 H 0.26738 0.66041 0.34054 0.0
H947 H 0.32069 0.66597 0.31004 0.0
H948 H 0.33082 0.58531 0.3289 0.0
O949 O 0.36512 0.65517 0.3435 0.0
O950 O 0.35252 0.61556 0.35539 0.0
O951 O 0.29254 0.62509 0.35681 0.0
C952 C 0.37229 0.63146 0.34998 0.0
H953 H 0.30733 0.68248 0.40855 0.0
H954 H 0.32095 0.6326 0.28372 0.0
H955 H 0.247 0.69753 0.32401 0.0
H956 H 0.32568 0.73932 0.32422 0.0
Co957 Co 0.13405 0.59424 0.10743 0.0
C958 C 0.08129 0.58853 0.12537 0.0
C959 C 0.11485 0.57613 0.14168 0.0
C960 C 0.09094 0.57667 0.15137 0.0
N961 N 0.10867 0.58364 0.12541 0.0
N962 N 0.06994 0.58449 0.14104 0.0
H963 H 0.07031 0.59685 0.11439 0.0
H964 H 0.13548 0.57221 0.14639 0.0
C965 C 0.16524 0.539 0.10505 0.0
O966 O 0.15888 0.53538 0.08874 0.0
N967 N 0.15939 0.60647 0.08916 0.0
C968 C 0.15673 0.63055 0.08042 0.0
C969 C 0.17768 0.63323 0.06879 0.0
C970 C 0.18271 0.59507 0.08261 0.0
N971 N 0.194 0.61097 0.07007 0.0
C972 C 0.10185 0.5893 0.07667 0.0
C973 C 0.08658 0.53473 0.08072 0.0
C974 C 0.07813 0.54878 0.06575 0.0
C975 C 0.0855 0.5767 0.06414 0.0
C976 C 0.10256 0.54837 0.09315 0.0
N977 N 0.11121 0.57491 0.09059 0.0
H978 H 0.10658 0.61091 0.07528 0.0
H979 H 0.10835 0.53743 0.10474 0.0
H980 H 0.14031 0.64537 0.08192 0.0
H981 H 0.19172 0.57598 0.08692 0.0
O982 O 0.11632 0.6301 0.1069 0.0
O983 O 0.15219 0.61894 0.12322 0.0
O984 O 0.15731 0.56062 0.1131 0.0
C985 C 0.13474 0.63765 0.11821 0.0
H986 H 0.0893 0.5726 0.16505 0.0
H987 H 0.18007 0.64985 0.05958 0.0
H988 H 0.08128 0.51328 0.08279 0.0
H989 H 0.0784 0.58903 0.05338 0.0
Co990 Co 0.18257 0.39043 0.84374 0.0
C991 C 0.17403 0.33317 0.85702 0.0
C992 C 0.18755 0.36184 0.87644 0.0
C993 C 0.1834 0.33663 0.88408 0.0
N994 N 0.18166 0.35972 0.85954 0.0
N995 N 0.17489 0.31864 0.87191 0.0
H996 H 0.16739 0.32489 0.84474 0.0
H997 H 0.19404 0.38061 0.88281 0.0
C998 C 0.24008 0.4134 0.84733 0.0
O999 O 0.24142 0.41714 0.83058 0.0
N1000 N 0.18379 0.42255 0.82862 0.0
C1001 C 0.18573 0.44859 0.83466 0.0
C1002 C 0.18826 0.46653 0.82105 0.0
C1003 C 0.18496 0.42513 0.81123 0.0
N1004 N 0.18786 0.45179 0.80633 0.0
C1005 C 0.18361 0.35839 0.81284 0.0
C1006 C 0.2363 0.33751 0.81637 0.0
C1007 C 0.22069 0.33002 0.80187 0.0
C1008 C 0.19389 0.34047 0.80033 0.0
C1009 C 0.2251 0.35539 0.8287 0.0
N1010 N 0.1995 0.36665 0.82644 0.0
H1011 H 0.16287 0.36611 0.81137 0.0
H1012 H 0.23684 0.3595 0.84023 0.0
H1013 H 0.18603 0.45415 0.84817 0.0
H1014 H 0.18458 0.40821 0.80224 0.0
O1015 O 0.14401 0.38432 0.83815 0.0
O1016 O 0.15908 0.41083 0.85938 0.0
O1017 O 0.21898 0.40186 0.85408 0.0
C1018 C 0.13822 0.40042 0.85108 0.0
H1019 H 0.18649 0.33186 0.89758 0.0
H1020 H 0.19016 0.48875 0.82195 0.0
H1021 H 0.25674 0.32909 0.81839 0.0
H1022 H 0.18101 0.33515 0.78941 0.0
Co1023 Co 0.39006 0.42344 0.58653 0.0
C1024 C 0.43609 0.42208 0.61137 0.0
C1025 C 0.40296 0.44737 0.62073 0.0
C1026 C 0.42437 0.44851 0.63241 0.0
N1027 N 0.41045 0.43097 0.60748 0.0
N1028 N 0.44506 0.43252 0.62652 0.0
H1029 H 0.44825 0.40885 0.60308 0.0
H1030 H 0.38346 0.45802 0.62184 0.0
C1031 C 0.35587 0.47717 0.58271 0.0
O1032 O 0.36019 0.48017 0.56609 0.0
N1033 N 0.37021 0.41526 0.56525 0.0
C1034 C 0.38039 0.39974 0.5523 0.0
C1035 C 0.36107 0.39749 0.53951 0.0
C1036 C 0.34416 0.42153 0.56027 0.0
N1037 N 0.33825 0.41123 0.54441 0.0
C1038 C 0.43759 0.42723 0.56466 0.0
C1039 C 0.43985 0.484 0.56204 0.0
C1040 C 0.45737 0.46815 0.55151 0.0
C1041 C 0.45674 0.43939 0.55356 0.0
C1042 C 0.42119 0.47089 0.5732 0.0
N1043 N 0.41876 0.44278 0.57342 0.0
H1044 H 0.43786 0.4051 0.56602 0.0
H1045 H 0.40887 0.48357 0.58159 0.0
H1046 H 0.40036 0.39002 0.55211 0.0
H1047 H 0.32965 0.43287 0.56813 0.0
O1048 O 0.40469 0.3859 0.58632 0.0
O1049 O 0.366 0.39894 0.59902 0.0
O1050 O 0.36716 0.45752 0.59109 0.0
C1051 C 0.38308 0.37919 0.59538 0.0
H1052 H 0.42468 0.46005 0.64436 0.0
H1053 H 0.36388 0.38681 0.52738 0.0
H1054 H 0.44001 0.50632 0.56145 0.0
H1055 H 0.47089 0.42617 0.5466 0.0
H1056 H 0.15342 0.2105 0.42216 0.0
H1057 H 0.18356 0.37075 0.40452 0.0
H1058 H 0.20774 0.2404 0.3823 0.0
H1059 H 0.11594 0.34196 0.43593 0.0
H1060 H 0.19736 0.3229 0.39959 0.0
H1061 H 0.14433 0.25838 0.43082 0.0
C1062 C 0.16372 0.22713 0.4154 0.0
C1063 C 0.18118 0.22154 0.40141 0.0
C1064 C 0.17957 0.32703 0.40763 0.0
C1065 C 0.17083 0.2762 0.41114 0.0
C1066 C 0.17171 0.35436 0.41047 0.0
C1067 C 0.14845 0.36034 0.42055 0.0
C1068 C 0.16416 0.30547 0.41498 0.0
C1069 C 0.13392 0.33826 0.42798 0.0
C1070 C 0.15838 0.25442 0.42026 0.0
C1071 C 0.19381 0.24385 0.39299 0.0
N1072 N 0.14196 0.31178 0.42501 0.0
N1073 N 0.18834 0.27017 0.39795 0.0
H1074 H 0.04376 0.95606 0.66483 0.0
H1075 H 0.92805 0.84115 0.67845 0.0
H1076 H 0.04704 0.87786 0.63845 0.0
H1077 H 0.90865 0.92802 0.6778 0.0
H1078 H 0.97555 0.85227 0.66973 0.0
H1079 H 0.99769 0.94399 0.67581 0.0
C1080 C 0.03486 0.93623 0.66154 0.0
C1081 C 0.04906 0.91794 0.6507 0.0
C1082 C 0.96087 0.86884 0.6716 0.0
C1083 C 0.99678 0.90392 0.66329 0.0
C1084 C 0.93388 0.86255 0.67665 0.0
C1085 C 0.91443 0.88371 0.67879 0.0
C1086 C 0.96859 0.89651 0.66911 0.0
C1087 C 0.92299 0.91109 0.67619 0.0
C1088 C 0.0086 0.92945 0.66769 0.0
C1089 C 0.03659 0.89258 0.64665 0.0
N1090 N 0.94949 0.91673 0.67159 0.0
N1091 N 0.0112 0.88622 0.65303 0.0
H1092 H 0.32157 0.64033 0.90605 0.0
H1093 H 0.35619 0.80211 0.90902 0.0
H1094 H 0.37984 0.67614 0.9417 0.0
H1095 H 0.31282 0.76249 0.86722 0.0
H1096 H 0.35946 0.75747 0.92373 0.0
H1097 H 0.3122 0.68631 0.89453 0.0
C1098 C 0.3321 0.65791 0.91165 0.0
C1099 C 0.35164 0.65434 0.92481 0.0
C1100 C 0.34914 0.75859 0.91137 0.0
C1101 C 0.34117 0.70711 0.91153 0.0
C1102 C 0.34714 0.78408 0.90301 0.0
C1103 C 0.33437 0.78603 0.8868 0.0
C1104 C 0.33805 0.73486 0.90356 0.0
C1105 C 0.32322 0.76189 0.87956 0.0
C1106 C 0.32685 0.68417 0.90498 0.0
C1107 C 0.36467 0.67792 0.93152 0.0
N1108 N 0.32533 0.73736 0.88797 0.0
N1109 N 0.35933 0.70328 0.92474 0.0
H1110 H 0.62451 0.10058 0.12425 0.0
H1111 H 0.46603 0.11691 0.15004 0.0
H1112 H 0.59642 0.14328 0.1698 0.0
H1113 H 0.49117 0.09051 0.09939 0.0
H1114 H 0.51402 0.12658 0.15724 0.0
H1115 H 0.57645 0.09629 0.11465 0.0
C1116 C 0.60826 0.10915 0.1322 0.0
C1117 C 0.61449 0.12219 0.14791 0.0
C1118 C 0.50918 0.11887 0.14448 0.0
C1119 C 0.55952 0.11728 0.13702 0.0
C1120 C 0.48176 0.11327 0.1404 0.0
C1121 C 0.4747 0.1027 0.12415 0.0
C1122 C 0.52996 0.11354 0.13233 0.0
C1123 C 0.49583 0.09873 0.11204 0.0
C1124 C 0.58086 0.10676 0.12668 0.0
C1125 C 0.59263 0.13299 0.15764 0.0
N1126 N 0.52261 0.10383 0.11644 0.0
N1127 N 0.56618 0.13012 0.1521 0.0
H1128 H 0.11083 0.68367 0.10416 0.0
H1129 H 0.19005 0.78818 0.167 0.0
H1130 H 0.16646 0.65762 0.14441 0.0
H1131 H 0.15041 0.81406 0.11994 0.0
H1132 H 0.17776 0.74039 0.16045 0.0
H1133 H 0.12068 0.7319 0.11155 0.0
C1134 C 0.12482 0.6881 0.11469 0.0
C1135 C 0.13789 0.66666 0.12368 0.0
C1136 C 0.17179 0.75649 0.15152 0.0
C1137 C 0.14938 0.72162 0.1321 0.0
C1138 C 0.17875 0.78376 0.15528 0.0
C1139 C 0.17126 0.80509 0.14399 0.0
C1140 C 0.15699 0.75045 0.13642 0.0
C1141 C 0.15685 0.7982 0.12889 0.0
C1142 C 0.1306 0.7156 0.11881 0.0
C1143 C 0.156 0.67353 0.13712 0.0
N1144 N 0.15006 0.77146 0.12557 0.0
N1145 N 0.16123 0.7004 0.1409 0.0
H1146 H 0.48344 0.98309 0.38869 0.0
H1147 H 0.59397 0.87729 0.35281 0.0
H1148 H 0.47457 0.89579 0.39766 0.0
H1149 H 0.61855 0.95553 0.37451 0.0
H1150 H 0.5468 0.88523 0.36345 0.0
H1151 H 0.5303 0.97497 0.37766 0.0
C1152 C 0.49141 0.96223 0.38824 0.0
C1153 C 0.47535 0.94006 0.39411 0.0
C1154 C 0.56259 0.90062 0.36581 0.0
C1155 C 0.52835 0.93058 0.38129 0.0
C1156 C 0.58935 0.89621 0.35968 0.0
C1157 C 0.61007 0.9158 0.36284 0.0
C1158 C 0.55645 0.92511 0.3747 0.0
C1159 C 0.60314 0.93988 0.3719 0.0
C1160 C 0.51805 0.95762 0.38205 0.0
C1161 C 0.48652 0.91338 0.39338 0.0
N1162 N 0.57683 0.944 0.37739 0.0
N1163 N 0.5123 0.9093 0.38691 0.0
H1164 H 0.3296 0.23772 0.65423 0.0
H1165 H 0.40644 0.33069 0.584 0.0
H1166 H 0.36168 0.20312 0.60712 0.0
H1167 H 0.34745 0.36288 0.62046 0.0
H1168 H 0.39567 0.28369 0.59405 0.0
H1169 H 0.34143 0.28389 0.64384 0.0
C1170 C 0.33922 0.23988 0.6417 0.0
C1171 C 0.34465 0.21659 0.63151 0.0
C1172 C 0.38513 0.30111 0.5998 0.0
C1173 C 0.35839 0.26938 0.61954 0.0
C1174 C 0.39135 0.32788 0.59415 0.0
C1175 C 0.37778 0.35069 0.60139 0.0
C1176 C 0.36557 0.29728 0.61298 0.0
C1177 C 0.35832 0.3459 0.61445 0.0
C1178 C 0.34585 0.26622 0.63574 0.0
C1179 C 0.35691 0.22058 0.61529 0.0
N1180 N 0.35292 0.3198 0.61987 0.0
N1181 N 0.36356 0.24649 0.60983 0.0
H1182 H 0.89487 0.08726 0.88384 0.0
H1183 H 0.0521 0.10035 0.85662 0.0
H1184 H 0.92256 0.14339 0.84427 0.0
H1185 H 0.0286 0.07381 0.90755 0.0
H1186 H 1.00418 0.11302 0.85077 0.0
H1187 H 0.94311 0.07857 0.89171 0.0
C1188 C 0.9111 0.09773 0.8768 0.0
C1189 C 0.90474 0.11598 0.86332 0.0
C1190 C 0.00947 0.10461 0.86328 0.0
C1191 C 0.95982 0.10601 0.8722 0.0
C1192 C 0.03675 0.09728 0.86658 0.0
C1193 C 0.04416 0.08592 0.88255 0.0
C1194 C 0.98926 0.10007 0.87592 0.0
C1195 C 0.02362 0.08262 0.89511 0.0
C1196 C 0.93857 0.09289 0.88138 0.0
C1197 C 0.92654 0.12915 0.85473 0.0
N1198 N 0.99695 0.08933 0.89146 0.0
N1199 N 0.95311 0.12371 0.8592 0.0
H1200 H 0.85949 0.8043 0.61363 0.0
H1201 H 0.81546 0.64482 0.61857 0.0
H1202 H 0.81514 0.76876 0.65642 0.0
H1203 H 0.87372 0.67679 0.58156 0.0
H1204 H 0.80963 0.69146 0.63018 0.0
H1205 H 0.85976 0.75909 0.59952 0.0
C1206 C 0.84961 0.78706 0.62001 0.0
C1207 C 0.8374 0.79037 0.6363 0.0
C1208 C 0.8235 0.68831 0.61941 0.0
C1209 C 0.83767 0.73843 0.6202 0.0
C1210 C 0.8267 0.66171 0.6127 0.0
C1211 C 0.84518 0.65685 0.5991 0.0
C1212 C 0.83879 0.71031 0.61245 0.0
C1213 C 0.8593 0.67955 0.59207 0.0
C1214 C 0.8499 0.7612 0.61198 0.0
C1215 C 0.82516 0.76713 0.64401 0.0
N1216 N 0.85591 0.70524 0.59887 0.0
N1217 N 0.8256 0.7422 0.6359 0.0
H1218 H 0.99119 0.07464 0.40912 0.0
H1219 H 0.09545 0.15436 0.34674 0.0
H1220 H 0.96335 0.12178 0.36534 0.0
H1221 H 0.12047 0.08975 0.38166 0.0
H1222 H 0.04708 0.14485 0.35406 0.0
H1223 H 0.03889 0.08197 0.40002 0.0
C1224 C 0.99516 0.08652 0.39756 0.0
C1225 C 0.97328 0.09768 0.388 0.0
C1226 C 0.06318 0.13269 0.36003 0.0
C1227 C 0.02793 0.10631 0.37749 0.0
C1228 C 0.09077 0.13816 0.35591 0.0
C1229 C 0.11203 0.12285 0.36362 0.0
C1230 C 0.05685 0.112 0.37211 0.0
C1231 C 0.10478 0.10205 0.37538 0.0
C1232 C 0.02239 0.09061 0.39231 0.0
C1233 C 0.9796 0.11264 0.373 0.0
N1234 N 0.07787 0.09737 0.37933 0.0
N1235 N 1.00636 0.11674 0.36828 0.0
H1236 H 0.72678 0.2437 0.13271 0.0
H1237 H 0.60807 0.35082 0.1104 0.0
H1238 H 0.64147 0.22576 0.14348 0.0
H1239 H 0.69199 0.37548 0.12081 0.0
H1240 H 0.61953 0.30374 0.1198 0.0
H1241 H 0.71424 0.29134 0.12583 0.0
C1242 C 0.7054 0.24996 0.13371 0.0
C1243 C 0.6851 0.23095 0.13864 0.0
C1244 C 0.63534 0.31955 0.12006 0.0
C1245 C 0.67048 0.28516 0.13054 0.0
C1246 C 0.62889 0.3463 0.1146 0.0
C1247 C 0.64916 0.367 0.11478 0.0
C1248 C 0.66233 0.31347 0.12544 0.0
C1249 C 0.67574 0.36014 0.12046 0.0
C1250 C 0.69825 0.27709 0.12983 0.0
C1251 C 0.65768 0.23998 0.13985 0.0
N1252 N 0.6816 0.33393 0.12544 0.0
N1253 N 0.65106 0.26644 0.13561 0.0
H1254 H 0.40022 0.9229 0.84355 0.0
H1255 H 0.54113 0.87444 0.88505 0.0
H1256 H 0.42365 0.83703 0.844 0.0
H1257 H 0.53202 0.95448 0.86151 0.0
H1258 H 0.49657 0.86054 0.8727 0.0
H1259 H 0.44694 0.9354 0.85261 0.0
C1260 C 0.41528 0.90668 0.84548 0.0
C1261 C 0.40812 0.87889 0.84303 0.0
C1262 C 0.50446 0.88106 0.87013 0.0
C1263 C 0.46143 0.89303 0.85367 0.0
C1264 C 0.52972 0.88904 0.87726 0.0
C1265 C 0.54017 0.91565 0.8743 0.0
C1266 C 0.48926 0.90006 0.86031 0.0
C1267 C 0.52475 0.93373 0.86398 0.0
C1268 C 0.44194 0.91384 0.85059 0.0
C1269 C 0.42842 0.85871 0.84567 0.0
N1270 N 0.49991 0.92573 0.85753 0.0
N1271 N 0.45412 0.86615 0.85108 0.0
H1272 H 0.80547 0.2155 0.91487 0.0
H1273 H 0.91962 0.33234 0.92693 0.0
H1274 H 0.87946 0.21638 0.88414 0.0
H1275 H 0.83274 0.3507 0.9298 0.0
H1276 H 0.90816 0.2852 0.91737 0.0
H1277 H 0.8181 0.26101 0.92663 0.0
C1278 C 0.82446 0.22524 0.91073 0.0
C1279 C 0.84138 0.21238 0.89847 0.0
C1280 C 0.89168 0.29956 0.92024 0.0
C1281 C 0.85619 0.26389 0.91204 0.0
C1282 C 0.89817 0.32631 0.92579 0.0
C1283 C 0.87707 0.34537 0.92913 0.0
C1284 C 0.86392 0.2917 0.91846 0.0
C1285 C 0.84961 0.33663 0.92729 0.0
C1286 C 0.83159 0.25114 0.91736 0.0
C1287 C 0.86575 0.22583 0.89343 0.0
N1288 N 0.8438 0.31038 0.92219 0.0
N1289 N 0.87256 0.25079 0.90033 0.0
H1290 H 0.52982 0.03529 0.64266 0.0
H1291 H 0.42553 0.15502 0.66805 0.0
H1292 H 0.5476 0.12054 0.63136 0.0
H1293 H 0.39883 0.07184 0.65713 0.0
H1294 H 0.47196 0.14291 0.65782 0.0
H1295 H 0.4829 0.04827 0.65101 0.0
C1296 C 0.5237 0.05675 0.64188 0.0
C1297 C 0.54246 0.0769 0.63633 0.0
C1298 C 0.45586 0.12739 0.65764 0.0
C1299 C 0.48908 0.092 0.64609 0.0
C1300 C 0.42948 0.13421 0.66358 0.0
C1301 C 0.40838 0.11436 0.66346 0.0
C1302 C 0.4612 0.10043 0.65187 0.0
C1303 C 0.41451 0.08777 0.65742 0.0
C1304 C 0.49697 0.06414 0.64659 0.0
C1305 C 0.53358 0.10442 0.63544 0.0
N1306 N 0.44039 0.08152 0.65199 0.0
N1307 N 0.50755 0.11126 0.64048 0.0
H1308 H 0.66053 0.65307 0.37326 0.0
H1309 H 0.648 0.80914 0.40247 0.0
H1310 H 0.60376 0.68006 0.41263 0.0
H1311 H 0.67809 0.78734 0.35202 0.0
H1312 H 0.63314 0.76141 0.40682 0.0
H1313 H 0.66837 0.70143 0.36524 0.0
C1314 C 0.64943 0.66914 0.38005 0.0
C1315 C 0.63158 0.66254 0.3937 0.0
C1316 C 0.64277 0.76704 0.39472 0.0
C1317 C 0.64082 0.71781 0.3848 0.0
C1318 C 0.65142 0.79422 0.3923 0.0
C1319 C 0.66445 0.80206 0.37692 0.0
C1320 C 0.64764 0.74733 0.3818 0.0
C1321 C 0.66805 0.78205 0.36403 0.0
C1322 C 0.65391 0.69671 0.37546 0.0
C1323 C 0.61773 0.68418 0.40205 0.0
N1324 N 0.66003 0.75545 0.36684 0.0
N1325 N 0.62294 0.71083 0.39763 0.0
H1326 H 0.9912 0.93688 0.10801 0.0
H1327 H 0.08381 0.87736 0.18456 0.0
H1328 H 0.95601 0.89783 0.15288 0.0
H1329 H 0.11363 0.9349 0.14639 0.0
H1330 H 0.03731 0.88165 0.17239 0.0
H1331 H 0.03684 0.93305 0.12097 0.0
C1332 C 0.99312 0.92731 0.12056 0.0
C1333 C 0.9698 0.9175 0.12935 0.0
C1334 C 0.05404 0.8934 0.16675 0.0
C1335 C 0.02207 0.91323 0.14436 0.0
C1336 C 0.08056 0.89092 0.17365 0.0
C1337 C 0.10258 0.9058 0.16646 0.0
C1338 C 0.04965 0.91063 0.15245 0.0
C1339 C 0.09724 0.9231 0.15236 0.0
C1340 C 0.01917 0.92533 0.12802 0.0
C1341 C 0.97346 0.90578 0.14574 0.0
N1342 N 0.07136 0.92492 0.14576 0.0
N1343 N 0.99916 0.90381 0.1527 0.0
H1344 H 0.7204 0.73407 0.89669 0.0
H1345 H 0.59639 0.83758 0.91637 0.0
H1346 H 0.63624 0.71355 0.88414 0.0
H1347 H 0.68031 0.86444 0.90848 0.0
H1348 H 0.61011 0.79049 0.90809 0.0
H1349 H 0.70567 0.7807 0.90454 0.0
C1350 C 0.69879 0.73944 0.8956 0.0
C1351 C 0.67951 0.71999 0.88975 0.0
C1352 C 0.62545 0.80676 0.90818 0.0
C1353 C 0.66241 0.77323 0.89886 0.0
C1354 C 0.61769 0.83353 0.913 0.0
C1355 C 0.63726 0.85491 0.91311 0.0
C1356 C 0.65304 0.80133 0.90377 0.0
C1357 C 0.66454 0.84861 0.90852 0.0
C1358 C 0.69041 0.76605 0.90001 0.0
C1359 C 0.65177 0.72806 0.88844 0.0
N1360 N 0.67163 0.82241 0.90414 0.0
N1361 N 0.64397 0.75404 0.89311 0.0
H1362 H 0.40216 0.43577 0.15412 0.0
H1363 H 0.56316 0.41438 0.17237 0.0
H1364 H 0.43175 0.37345 0.18928 0.0
H1365 H 0.53045 0.45473 0.12729 0.0
H1366 H 0.51568 0.40385 0.18168 0.0
H1367 H 0.44964 0.44751 0.14697 0.0
C1368 C 0.41868 0.42455 0.16038 0.0
C1369 C 0.41297 0.40351 0.17227 0.0
C1370 C 0.51899 0.41506 0.16978 0.0
C1371 C 0.46762 0.41702 0.16417 0.0
C1372 C 0.54599 0.42125 0.16456 0.0
C1373 C 0.55065 0.43532 0.14901 0.0
C1374 C 0.49664 0.42345 0.15949 0.0
C1375 C 0.52775 0.44357 0.13925 0.0
C1376 C 0.44583 0.43124 0.15625 0.0
C1377 C 0.43527 0.3897 0.17996 0.0
N1378 N 0.50181 0.43757 0.14466 0.0
N1379 N 0.4617 0.39675 0.17581 0.0
H1380 H 0.82938 0.16534 0.41644 0.0
H1381 H 0.88695 0.30438 0.37726 0.0
H1382 H 0.91564 0.18595 0.42105 0.0
H1383 H 0.80519 0.29849 0.39876 0.0
H1384 H 0.89813 0.25922 0.39 0.0
H1385 H 0.81999 0.21236 0.40661 0.0
C1386 C 0.84634 0.17982 0.4154 0.0
C1387 C 0.87332 0.17182 0.41955 0.0
C1388 C 0.87785 0.26799 0.39203 0.0
C1389 C 0.86277 0.22547 0.40806 0.0
C1390 C 0.87144 0.29358 0.38471 0.0
C1391 C 0.84513 0.30508 0.387 0.0
C1392 C 0.85757 0.25359 0.40131 0.0
C1393 C 0.82577 0.29042 0.39684 0.0
C1394 C 0.84094 0.20665 0.40987 0.0
C1395 C 0.89453 0.19141 0.41804 0.0
N1396 N 0.83225 0.26527 0.40345 0.0
N1397 N 0.88887 0.21732 0.41219 0.0
H1398 H 0.95907 0.64207 0.61924 0.0
H1399 H 0.10253 0.57062 0.63815 0.0
H1400 H 0.96355 0.55985 0.64013 0.0
H1401 H 0.08973 0.65593 0.6519 0.0
H1402 H 0.05308 0.56634 0.6318 0.0
H1403 H 0.00887 0.64783 0.62473 0.0
C1404 C 0.97062 0.62535 0.62503 0.0
C1405 C 0.9574 0.60059 0.62944 0.0
C1406 C 0.06122 0.58602 0.63609 0.0
C1407 C 0.01392 0.6066 0.63517 0.0
C1408 C 0.08937 0.58854 0.63956 0.0
C1409 C 0.10008 0.61367 0.64554 0.0
C1410 C 0.04391 0.60897 0.6382 0.0
C1411 C 0.08214 0.6362 0.64735 0.0
C1412 C 0.99884 0.62861 0.62815 0.0
C1413 C 0.97307 0.57935 0.63681 0.0
N1414 N 0.05487 0.63339 0.64358 0.0
N1415 N 1.00063 0.5827 0.63928 0.0
H1416 H 0.67703 0.27408 0.66919 0.0
H1417 H 0.62348 0.16437 0.59934 0.0
H1418 H 0.64298 0.29656 0.61978 0.0
H1419 H 0.67069 0.14144 0.64427 0.0
H1420 H 0.62676 0.21275 0.60802 0.0
H1421 H 0.67102 0.22528 0.66174 0.0
C1422 C 0.66807 0.26878 0.65685 0.0
C1423 C 0.66058 0.28948 0.64507 0.0
C1424 C 0.63639 0.19716 0.61601 0.0
C1425 C 0.65379 0.23366 0.63641 0.0
C1426 C 0.63448 0.1695 0.61107 0.0
C1427 C 0.64691 0.14882 0.62107 0.0
C1428 C 0.65072 0.20428 0.63112 0.0
C1429 C 0.66087 0.15672 0.63615 0.0
C1430 C 0.66482 0.24091 0.65255 0.0
C1431 C 0.64938 0.28134 0.62916 0.0
N1432 N 0.6624 0.18382 0.64072 0.0
N1433 N 0.64631 0.25412 0.62532 0.0
H1434 H 0.12067 0.43177 0.87822 0.0
H1435 H 0.96039 0.39595 0.86537 0.0
H1436 H 0.09026 0.3807 0.83677 0.0
H1437 H 0.99302 0.44106 0.9088 0.0
H1438 H 1.00705 0.393 0.85336 0.0
H1439 H 0.07341 0.43814 0.8883 0.0
C1440 C 0.10402 0.42201 0.87117 0.0
C1441 C 0.10946 0.40561 0.85665 0.0
C1442 C 1.00396 0.40359 0.8655 0.0
C1443 C 0.05512 0.41274 0.86819 0.0
C1444 C 0.97729 0.40541 0.87232 0.0
C1445 C 0.97275 0.41858 0.8882 0.0
C1446 C 0.02626 0.41516 0.87457 0.0
C1447 C 0.99555 0.43027 0.89669 0.0
C1448 C 0.077 0.42561 0.87696 0.0
C1449 C 0.08702 0.39348 0.84804 0.0
N1450 N 0.02123 0.42825 0.8898 0.0
N1451 N 0.06084 0.39722 0.85396 0.0
H1452 H 0.80443 0.72468 0.11 0.0
H1453 H 0.91411 0.84104 0.08763 0.0
H1454 H 0.88018 0.73277 0.13855 0.0
H1455 H 0.82726 0.86014 0.08881 0.0
H1456 H 0.90385 0.79516 0.09947 0.0
H1457 H 0.8143 0.76897 0.09556 0.0
C1458 C 0.8232 0.73576 0.1131 0.0
C1459 C 0.8415 0.72531 0.12548 0.0
C1460 C 0.88707 0.80934 0.09693 0.0
C1461 C 0.85317 0.7752 0.10886 0.0
C1462 C 0.89283 0.83536 0.09004 0.0
C1463 C 0.87146 0.85435 0.08722 0.0
C1464 C 0.85969 0.80201 0.10061 0.0
C1465 C 0.8443 0.84607 0.09081 0.0
C1466 C 0.82875 0.76093 0.10495 0.0
C1467 C 0.86551 0.74036 0.12917 0.0
N1468 N 0.83914 0.82042 0.09726 0.0
N1469 N 0.87081 0.76445 0.12077 0.0
H1470 H 0.39359 0.57947 0.35235 0.0
H1471 H 0.53858 0.62745 0.38762 0.0
H1472 H 0.41711 0.66536 0.35291 0.0
H1473 H 0.53001 0.55027 0.36054 0.0
H1474 H 0.49196 0.64042 0.37841 0.0
H1475 H 0.44165 0.56677 0.35837 0.0
C1476 C 0.40893 0.59562 0.35363 0.0
C1477 C 0.40146 0.62349 0.35213 0.0
C1478 C 0.50032 0.62069 0.37444 0.0
C1479 C 0.4561 0.60916 0.35935 0.0
C1480 C 0.52674 0.6132 0.3798 0.0
C1481 C 0.53791 0.58769 0.3749 0.0
C1482 C 0.48473 0.60226 0.36442 0.0
C1483 C 0.52198 0.5701 0.36454 0.0
C1484 C 0.43629 0.58836 0.357 0.0
C1485 C 0.42209 0.64363 0.35387 0.0
N1486 N 0.49599 0.57755 0.3598 0.0
N1487 N 0.44843 0.63609 0.35764 0.0
H1488 H 0.31948 0.28439 0.15682 0.0
H1489 H 0.38794 0.18439 0.08646 0.0
H1490 H 0.364 0.31487 0.1126 0.0
H1491 H 0.34002 0.15626 0.12992 0.0
H1492 H 0.37968 0.23226 0.09546 0.0
H1493 H 0.32673 0.23734 0.14674 0.0
C1494 C 0.33085 0.28118 0.14498 0.0
C1495 C 0.34135 0.30365 0.13563 0.0
C1496 C 0.37098 0.21559 0.103 0.0
C1497 C 0.34968 0.24955 0.12388 0.0
C1498 C 0.37574 0.18827 0.0979 0.0
C1499 C 0.3647 0.16629 0.10747 0.0
C1500 C 0.35509 0.22092 0.1178 0.0
C1501 C 0.34898 0.17252 0.12216 0.0
C1502 C 0.3349 0.25425 0.13917 0.0
C1503 C 0.35543 0.29819 0.12016 0.0
N1504 N 0.34469 0.19918 0.12685 0.0
N1505 N 0.35934 0.27168 0.11482 0.0
H1506 H 0.61357 0.57342 0.88417 0.0
H1507 H 0.47022 0.64464 0.90299 0.0
H1508 H 0.59847 0.65613 0.86593 0.0
H1509 H 0.47444 0.56082 0.88472 0.0
H1510 H 0.51974 0.65032 0.89632 0.0
H1511 H 0.56453 0.56927 0.89172 0.0
C1512 C 0.59996 0.59078 0.88195 0.0
C1513 C 0.60989 0.61511 0.87439 0.0
C1514 C 0.5097 0.63074 0.89377 0.0
C1515 C 0.55428 0.61066 0.88321 0.0
C1516 C 0.48169 0.62752 0.89759 0.0
C1517 C 0.46851 0.60236 0.8942 0.0
C1518 C 0.52459 0.6083 0.88711 0.0
C1519 C 0.484 0.5806 0.88728 0.0
C1520 C 0.57208 0.58834 0.88615 0.0
C1521 C 0.59145 0.63698 0.87165 0.0
N1522 N 0.51136 0.58396 0.88412 0.0
N1523 N 0.56447 0.63434 0.87619 0.0
H1524 H 0.13315 0.7142 0.64154 0.0
H1525 H 0.18809 0.86033 0.61218 0.0
H1526 H 0.2092 0.72233 0.61327 0.0
H1527 H 0.1012 0.84148 0.60988 0.0
H1528 H 0.1978 0.81142 0.61752 0.0
H1529 H 0.12236 0.76273 0.63501 0.0
C1530 C 0.1476 0.72633 0.63405 0.0
C1531 C 0.17212 0.71446 0.62795 0.0
C1532 C 0.17663 0.81802 0.6158 0.0
C1533 C 0.16015 0.76966 0.62065 0.0
C1534 C 0.17106 0.84587 0.61284 0.0
C1535 C 0.14381 0.85486 0.61057 0.0
C1536 C 0.15475 0.79915 0.61696 0.0
C1537 C 0.1225 0.83528 0.61146 0.0
C1538 C 0.14137 0.75382 0.63023 0.0
C1539 C 0.19007 0.73082 0.61813 0.0
N1540 N 0.12839 0.80832 0.6148 0.0
N1541 N 0.1839 0.75773 0.61494 0.0
H1542 H 0.9039 0.44068 0.34691 0.0
H1543 H 0.03826 0.37824 0.38986 0.0
H1544 H 0.91904 0.35297 0.34664 0.0
H1545 H 0.04064 0.4559 0.36287 0.0
H1546 H 0.99172 0.3699 0.37824 0.0
H1547 H 0.95151 0.44831 0.35671 0.0
C1548 C 0.91729 0.42307 0.34883 0.0
C1549 C 0.90762 0.39618 0.34585 0.0
C1550 C 1.00253 0.38869 0.37482 0.0
C1551 C 0.9617 0.4047 0.35746 0.0
C1552 C 0.02893 0.39349 0.38149 0.0
C1553 C 0.04327 0.4177 0.37722 0.0
C1554 C 0.99012 0.40862 0.36419 0.0
C1555 C 0.03035 0.43685 0.3663 0.0
C1556 C 0.94441 0.42743 0.35439 0.0
C1557 C 0.9258 0.37405 0.34861 0.0
N1558 N 1.00439 0.43206 0.3603 0.0
N1559 N 0.95186 0.37877 0.35447 0.0
H1560 H 0.30511 0.73293 0.40436 0.0
H1561 H 0.41914 0.84581 0.42484 0.0
H1562 H 0.38986 0.71883 0.3901 0.0
H1563 H 0.33561 0.86663 0.41078 0.0
H1564 H 0.40982 0.79748 0.41678 0.0
H1565 H 0.31685 0.78037 0.41225 0.0
C1566 C 0.32631 0.73972 0.40317 0.0
C1567 C 0.34662 0.72194 0.39668 0.0
C1568 C 0.39368 0.81277 0.41539 0.0
C1569 C 0.36014 0.77623 0.40559 0.0
C1570 C 0.39894 0.84024 0.41998 0.0
C1571 C 0.37813 0.86021 0.41842 0.0
C1572 C 0.36724 0.80525 0.40966 0.0
C1573 C 0.3523 0.85195 0.41208 0.0
C1574 C 0.33292 0.76686 0.40748 0.0
C1575 C 0.37367 0.732 0.39505 0.0
N1576 N 0.3475 0.82506 0.40812 0.0
N1577 N 0.37975 0.7585 0.39958 0.0
H1578 H 0.92497 0.65901 0.1861 0.0
H1579 H 0.02388 0.57674 0.12204 0.0
H1580 H 0.89474 0.59978 0.14907 0.0
H1581 H 0.05241 0.60725 0.17111 0.0
H1582 H 0.9767 0.58979 0.12993 0.0
H1583 H 0.97243 0.64512 0.17902 0.0
C1584 C 0.92832 0.64316 0.17648 0.0
C1585 C 0.90591 0.63049 0.16818 0.0
C1586 C 0.99326 0.5935 0.13901 0.0
C1587 C 0.95992 0.61477 0.15993 0.0
C1588 C 0.02014 0.58614 0.13449 0.0
C1589 C 0.04199 0.59082 0.14597 0.0
C1590 C 0.98822 0.60613 0.15501 0.0
C1591 C 0.03606 0.60299 0.16199 0.0
C1592 C 0.95534 0.63517 0.17251 0.0
C1593 C 0.9114 0.61001 0.15584 0.0
N1594 N 0.00976 0.61046 0.16599 0.0
N1595 N 0.93781 0.60293 0.15201 0.0
H1596 H 0.17474 0.14022 0.87234 0.0
H1597 H 0.15023 0.29724 0.90003 0.0
H1598 H 0.12918 0.16539 0.91747 0.0
H1599 H 0.18383 0.27503 0.8505 0.0
H1600 H 0.14236 0.2486 0.90626 0.0
H1601 H 0.17855 0.18887 0.86373 0.0
C1602 C 0.16549 0.15594 0.8804 0.0
C1603 C 0.15174 0.14875 0.8957 0.0
C1604 C 0.15131 0.25422 0.89397 0.0
C1605 C 0.15604 0.2043 0.88595 0.0
C1606 C 0.1559 0.28202 0.89044 0.0
C1607 C 0.16792 0.29011 0.8748 0.0
C1608 C 0.15905 0.23413 0.88184 0.0
C1609 C 0.17443 0.26958 0.86269 0.0
C1610 C 0.1676 0.18367 0.87546 0.0
C1611 C 0.14006 0.16994 0.90562 0.0
N1612 N 0.17018 0.24244 0.86653 0.0
N1613 N 0.1426 0.19668 0.90062 0.0
H1614 H 0.47702 0.47065 0.64234 0.0
H1615 H 0.58659 0.36296 0.67817 0.0
H1616 H 0.47298 0.38436 0.62913 0.0
H1617 H 0.61073 0.44523 0.66318 0.0
H1618 H 0.54033 0.37161 0.66641 0.0
H1619 H 0.52212 0.46273 0.65599 0.0
C1620 C 0.48562 0.45003 0.64242 0.0
C1621 C 0.47144 0.42811 0.63458 0.0
C1622 C 0.55574 0.3878 0.66585 0.0
C1623 C 0.52248 0.41885 0.65038 0.0
C1624 C 0.582 0.38299 0.67267 0.0
C1625 C 0.60244 0.40344 0.67164 0.0
C1626 C 0.54975 0.41345 0.65833 0.0
C1627 C 0.59553 0.42892 0.66419 0.0
C1628 C 0.5113 0.44556 0.65013 0.0
C1629 C 0.48346 0.40178 0.63492 0.0
N1630 N 0.5697 0.43328 0.65789 0.0
N1631 N 0.50821 0.3978 0.64283 0.0
H1632 H 0.19321 0.03448 0.32018 0.0
H1633 H 0.21103 0.99199 0.2212 0.0
H1634 H 0.21559 0.09101 0.27969 0.0
H1635 H 0.17052 0.94202 0.25952 0.0
H1636 H 0.22605 0.02378 0.2441 0.0
H1637 H 0.19841 0.99593 0.29981 0.0
C1638 C 0.20001 0.03862 0.30713 0.0
C1639 C 0.20353 0.06582 0.30144 0.0
C1640 C 0.2143 1.00557 0.24752 0.0
C1641 C 0.2092 0.02226 0.27812 0.0
C1642 C 0.20588 0.98744 0.23448 0.0
C1643 C 0.18909 0.96482 0.23852 0.0
C1644 C 0.20596 1.00077 0.26465 0.0
C1645 C 0.18292 0.95968 0.2559 0.0
C1646 C 0.20277 0.01674 0.29548 0.0
C1647 C 0.2122 0.07026 0.28441 0.0
N1648 N 0.19107 0.97768 0.26831 0.0
N1649 N 0.21438 0.04876 0.27327 0.0
H1650 H 0.23543 0.92529 0.57002 0.0
H1651 H 0.29168 0.96098 0.47527 0.0
H1652 H 0.18442 0.95624 0.5289 0.0
H1653 H 0.33264 0.90595 0.51055 0.0
H1654 H 0.257 0.97081 0.49761 0.0
H1655 H 0.276 0.92962 0.55111 0.0
C1656 C 0.23295 0.93361 0.55716 0.0
C1657 C 0.20665 0.94011 0.55088 0.0
C1658 C 0.27384 0.95691 0.50053 0.0
C1659 C 0.25257 0.94507 0.52926 0.0
C1660 C 0.29365 0.95146 0.48784 0.0
C1661 C 0.31471 0.93236 0.49105 0.0
C1662 C 0.27542 0.94339 0.51656 0.0
C1663 C 0.31637 0.92044 0.50751 0.0
C1664 C 0.25597 0.9359 0.54635 0.0
C1665 C 0.20438 0.95064 0.53408 0.0
N1666 N 0.29689 0.92598 0.51961 0.0
N1667 N 0.22697 0.95261 0.52381 0.0
H1668 H 0.33474 0.02471 0.70524 0.0
H1669 H 0.3287 0.95958 0.80021 0.0
H1670 H 0.33017 0.07248 0.75206 0.0
H1671 H 0.33021 0.91032 0.75384 0.0
H1672 H 0.32515 1.00108 0.7825 0.0
H1673 H 0.32906 0.98238 0.7224 0.0
C1674 C 0.33224 0.0263 0.71907 0.0
C1675 C 0.33345 0.0521 0.72726 0.0
C1676 C 0.32611 0.98117 0.77618 0.0
C1677 C 0.3271 1.00398 0.74697 0.0
C1678 C 0.32799 0.9574 0.78634 0.0
C1679 C 0.33016 0.93133 0.77857 0.0
C1680 C 0.32644 0.97895 0.75809 0.0
C1681 C 0.32928 0.92996 0.76044 0.0
C1682 C 0.32913 1.00218 0.72888 0.0
C1683 C 0.3301 0.05299 0.74525 0.0
N1684 N 0.32771 0.95339 0.75084 0.0
N1685 N 0.3273 0.02937 0.75447 0.0
H1686 H 0.25295 0.08595 0.05295 0.0
H1687 H 0.26834 0.07477 0.95079 0.0
H1688 H 0.33116 0.09397 0.02674 0.0
H1689 H 0.19055 0.08914 0.97645 0.0
H1690 H 0.29158 0.07671 0.97856 0.0
H1691 H 0.23002 0.08194 0.02522 0.0
C1692 C 0.26542 0.08705 0.04142 0.0
C1693 C 0.29419 0.09071 0.04235 0.0
C1694 C 0.26943 0.07944 0.9781 0.0
C1695 C 0.26773 0.08552 1.0103 0.0
C1696 C 0.25602 0.07847 0.96217 0.0
C1697 C 0.22726 0.08206 0.96106 0.0
C1698 C 0.25406 0.08376 0.99316 0.0
C1699 C 0.21263 0.08607 0.97652 0.0
C1700 C 0.2522 0.0846 0.02553 0.0
C1701 C 0.30904 0.09109 0.02678 0.0
N1702 N 0.22618 0.08683 0.99188 0.0
N1703 N 0.29565 0.08858 1.01142 0.0
H1704 H 0.82893 0.913 0.76785 0.0
H1705 H 0.8207 0.07743 0.77422 0.0
H1706 H 0.82841 0.9669 0.72361 0.0
H1707 H 0.82693 0.0244 0.81863 0.0
H1708 H 0.81687 0.03688 0.75572 0.0
H1709 H 0.82198 0.95286 0.78658 0.0
C1710 C 0.8273 0.93323 0.76204 0.0
C1711 C 0.82977 0.9366 0.74409 0.0
C1712 C 0.81881 0.03399 0.76951 0.0
C1713 C 0.82152 0.98252 0.76559 0.0
C1714 C 0.82103 0.05717 0.78009 0.0
C1715 C 0.82457 0.05427 0.79799 0.0
C1716 C 0.82025 1.00753 0.77678 0.0
C1717 C 0.82426 0.02754 0.80492 0.0
C1718 C 0.82318 0.956 0.77277 0.0
C1719 C 0.82668 0.96329 0.73733 0.0
N1720 N 0.82251 1.00517 0.79428 0.0
N1721 N 0.82301 0.98523 0.74809 0.0
H1722 H 0.80273 0.14896 0.48701 0.0
H1723 H 0.70518 0.05156 0.54397 0.0
H1724 H 0.80164 0.06084 0.47992 0.0
H1725 H 0.73586 0.1313 0.5593 0.0
H1726 H 0.72995 0.05636 0.51623 0.0
H1727 H 0.7663 0.14471 0.50858 0.0
C1728 C 0.79425 0.12874 0.48977 0.0
C1729 C 0.80525 0.1052 0.48186 0.0
C1730 C 0.73091 0.07289 0.52562 0.0
C1731 C 0.76401 0.1 0.50683 0.0
C1732 C 0.71676 0.07021 0.54133 0.0
C1733 C 0.71878 0.09102 0.55386 0.0
C1734 C 0.74652 0.09683 0.52242 0.0
C1735 C 0.73408 0.11474 0.55 0.0
C1736 C 0.77363 0.12628 0.50214 0.0
C1737 C 0.79356 0.07944 0.48577 0.0
N1738 N 0.74733 0.11699 0.53466 0.0
N1739 N 0.77378 0.07741 0.49825 0.0
H1740 H 0.70144 0.07994 0.22813 0.0
H1741 H 0.65938 0.94701 0.28396 0.0
H1742 H 0.65398 0.01189 0.20775 0.0
H1743 H 0.7033 0.01732 0.30437 0.0
H1744 H 0.65824 0.96958 0.2557 0.0
H1745 H 0.7026 0.05693 0.25607 0.0
C1746 C 0.69106 0.06029 0.22951 0.0
C1747 C 0.67758 0.04792 0.21546 0.0
C1748 C 0.66811 0.98006 0.26638 0.0
C1749 C 0.67919 0.02113 0.24753 0.0
C1750 C 0.66891 0.96708 0.2825 0.0
C1751 C 0.68129 0.98032 0.29664 0.0
C1752 C 0.67988 1.00641 0.26436 0.0
C1753 C 0.69309 1.00649 0.29398 0.0
C1754 C 0.6919 0.04703 0.24549 0.0
C1755 C 0.66493 0.02211 0.21809 0.0
N1756 N 0.69208 0.01863 0.27821 0.0
N1757 N 0.66606 0.00959 0.23377 0.0
H1758 H 0.71326 0.95589 0.96049 0.0
H1759 H 0.7971 0.89916 0.04256 0.0
H1760 H 0.68589 0.88799 0.99215 0.0
H1761 H 0.82609 0.96464 1.00954 0.0
H1762 H 0.75525 0.89571 0.02484 0.0
H1763 H 0.75497 0.95942 0.97827 0.0
C1764 C 0.71616 0.94157 0.97105 0.0
C1765 C 0.69594 0.92182 0.97492 0.0
C1766 C 0.77079 0.91086 0.0215 0.0
C1767 C 0.74329 0.92592 0.99548 0.0
C1768 C 0.79452 0.91295 0.0317 0.0
C1769 C 0.81521 0.93197 0.02741 0.0
C1770 C 0.76773 0.92803 1.00697 0.0
C1771 C 0.81093 0.94927 0.01311 0.0
C1772 C 0.73983 0.94371 0.98129 0.0
C1773 C 0.70064 0.9039 0.98888 0.0
N1774 N 0.78777 0.94684 1.0034 0.0
N1775 N 0.72372 0.90645 0.99867 0.0
H1776 H 0.68585 0.57483 0.79333 0.0
H1777 H 0.63347 0.44098 0.74202 0.0
H1778 H 0.63393 0.51197 0.81567 0.0
H1779 H 0.6989 0.49435 0.72482 0.0
H1780 H 0.6245 0.47291 0.76611 0.0
H1781 H 0.68213 0.5516 0.76539 0.0
C1782 C 0.67331 0.55641 0.79231 0.0
C1783 C 0.66053 0.5451 0.80693 0.0
C1784 C 0.64043 0.47793 0.75684 0.0
C1785 C 0.6563 0.51827 0.775 0.0
C1786 C 0.64529 0.45989 0.74304 0.0
C1787 C 0.66696 0.46515 0.73156 0.0
C1788 C 0.65732 0.50135 0.75902 0.0
C1789 C 0.68208 0.48965 0.73351 0.0
C1790 C 0.67129 0.54305 0.77637 0.0
C1791 C 0.64463 0.52105 0.80482 0.0
N1792 N 0.67718 0.50671 0.74706 0.0
N1793 N 0.64314 0.50832 0.78922 0.0
H1794 H 0.84717 0.44738 0.01464 0.0
H1795 H 0.69719 0.3953 0.03362 0.0
H1796 H 0.79312 0.41783 0.97461 0.0
H1797 H 0.72884 0.46436 0.06276 0.0
H1798 H 0.73605 0.39885 0.01412 0.0
H1799 H 0.80742 0.45108 0.03422 0.0
C1800 C 0.8268 0.4421 1.00994 0.0
C1801 C 0.82328 0.43219 0.99305 0.0
C1802 C 0.73447 0.41335 0.02471 0.0
C1803 C 0.77817 0.43571 0.01536 0.0
C1804 C 0.71222 0.4114 0.03591 0.0
C1805 C 0.70923 0.43006 0.04967 0.0
C1806 C 0.75452 0.43368 0.02739 0.0
C1807 C 0.73024 0.44963 0.05231 0.0
C1808 C 0.80424 0.44425 0.02107 0.0
C1809 C 0.7966 0.42569 0.98749 0.0
N1810 N 0.75213 0.45094 0.04124 0.0
N1811 N 0.77511 0.42708 0.99872 0.0
H1812 H 0.81664 0.59647 0.25459 0.0
H1813 H 0.86031 0.43834 0.26057 0.0
H1814 H 0.84184 0.5484 0.21058 0.0
H1815 H 0.81468 0.47904 0.30104 0.0
H1816 H 0.85617 0.47947 0.24287 0.0
H1817 H 0.81732 0.55467 0.27231 0.0
C1818 C 0.82214 0.57702 0.24865 0.0
C1819 C 0.82936 0.57588 0.23112 0.0
C1820 C 0.84697 0.47943 0.25559 0.0
C1821 C 0.83046 0.52801 0.25135 0.0
C1822 C 0.84926 0.45586 0.26576 0.0
C1823 C 0.83749 0.45494 0.28232 0.0
C1824 C 0.83306 0.50262 0.26199 0.0
C1825 C 0.82419 0.47878 0.28842 0.0
C1826 C 0.82247 0.55319 0.25875 0.0
C1827 C 0.83599 0.55013 0.224 0.0
N1828 N 0.82231 0.50164 0.27825 0.0
N1829 N 0.83668 0.52726 0.23419 0.0
H1830 H 0.72089 0.64268 0.46949 0.0
H1831 H 0.77975 0.53589 0.53576 0.0
H1832 H 0.68618 0.56069 0.47242 0.0
H1833 H 0.7835 0.62364 0.5439 0.0
H1834 H 0.74493 0.54293 0.5132 0.0
H1835 H 0.74507 0.63468 0.49632 0.0
C1836 C 0.7181 0.62298 0.47582 0.0
C1837 C 0.70095 0.6025 0.46871 0.0
C1838 C 0.75274 0.5606 0.52024 0.0
C1839 C 0.72942 0.59301 0.4996 0.0
C1840 C 0.77236 0.55658 0.53317 0.0
C1841 C 0.78424 0.57926 0.54167 0.0
C1842 C 0.74553 0.58758 0.51552 0.0
C1843 C 0.77453 0.60569 0.53775 0.0
C1844 C 0.73199 0.61847 0.49123 0.0
C1845 C 0.69918 0.57705 0.47734 0.0
N1846 N 0.75614 0.60919 0.52468 0.0
N1847 N 0.71336 0.57295 0.49233 0.0
H1848 H 0.31352 0.54755 0.31173 0.0
H1849 H 0.33721 0.49039 0.21569 0.0
H1850 H 0.34233 0.59754 0.26931 0.0
H1851 H 0.32553 0.43755 0.25979 0.0
H1852 H 0.33281 0.53079 0.23462 0.0
H1853 H 0.31331 0.50729 0.29254 0.0
C1854 C 0.31996 0.55006 0.29846 0.0
C1855 C 0.32775 0.57607 0.29214 0.0
C1856 C 0.33104 0.51033 0.24013 0.0
C1857 C 0.32706 0.53029 0.27005 0.0
C1858 C 0.33328 0.48736 0.2293 0.0
C1859 C 0.33202 0.4607 0.23624 0.0
C1860 C 0.32731 0.50653 0.25798 0.0
C1861 C 0.3271 0.45781 0.254 0.0
C1862 C 0.31963 0.52714 0.28747 0.0
C1863 C 0.3356 0.57811 0.27473 0.0
N1864 N 0.32505 0.48041 0.26427 0.0
N1865 N 0.33498 0.55561 0.26432 0.0
H1866 H 0.31876 0.62376 0.99093 0.0
H1867 H 0.20975 0.56066 0.05828 0.0
H1868 H 0.29167 0.53894 0.99117 0.0
H1869 H 0.22921 0.6474 0.0554 0.0
H1870 H 0.24312 0.55183 0.03524 0.0
H1871 H 0.28761 0.6331 0.01527 0.0
C1872 C 0.30607 0.60724 0.99598 0.0
C1873 C 0.30801 0.5805 0.98916 0.0
C1874 C 0.24022 0.57281 0.03972 0.0
C1875 C 0.27286 0.59076 0.01707 0.0
C1876 C 0.22142 0.57775 0.05301 0.0
C1877 C 0.21656 0.6048 0.05864 0.0
C1878 C 0.25432 0.59507 0.03205 0.0
C1879 C 0.23204 0.62629 0.05122 0.0
C1880 C 0.28852 0.61245 1.00995 0.0
C1881 C 0.29126 0.55972 0.99626 0.0
N1882 N 0.25009 0.621 0.03824 0.0
N1883 N 0.27455 0.56525 1.00983 0.0
H1884 H 0.20921 0.56126 0.71976 0.0
H1885 H 0.16557 0.43049 0.77705 0.0
H1886 H 0.14692 0.50231 0.7051 0.0
H1887 H 0.2151 0.49795 0.79607 0.0
H1888 H 0.16612 0.4516 0.74837 0.0
H1889 H 0.21947 0.53318 0.74538 0.0
C1890 C 0.19824 0.54204 0.72173 0.0
C1891 C 0.17707 0.53413 0.71044 0.0
C1892 C 0.17706 0.46167 0.7588 0.0
C1893 C 0.18829 0.50218 0.73967 0.0
C1894 C 0.17685 0.44954 0.77515 0.0
C1895 C 0.18996 0.46266 0.78905 0.0
C1896 C 0.19061 0.48704 0.75628 0.0
C1897 C 0.20418 0.48744 0.78583 0.0
C1898 C 0.20386 0.52617 0.7364 0.0
C1899 C 0.16318 0.50922 0.71364 0.0
N1900 N 0.20399 0.4989 0.76983 0.0
N1901 N 0.16886 0.49426 0.728 0.0
H1902 H 0.30145 0.45364 0.54575 0.0
H1903 H 0.21571 0.39946 0.46366 0.0
H1904 H 0.31905 0.3774 0.51915 0.0
H1905 H 0.19222 0.46997 0.49419 0.0
H1906 H 0.2561 0.39304 0.48242 0.0
H1907 H 0.26245 0.4612 0.52623 0.0
C1908 C 0.29699 0.43837 0.53595 0.0
C1909 C 0.31374 0.41495 0.53407 0.0
C1910 C 0.24214 0.41 0.48496 0.0
C1911 C 0.26942 0.42368 0.51143 0.0
C1912 C 0.21929 0.41377 0.47415 0.0
C1913 C 0.2005 0.43509 0.47749 0.0
C1914 C 0.24628 0.42781 0.4991 0.0
C1915 C 0.20595 0.45298 0.49135 0.0
C1916 C 0.27486 0.44279 0.52469 0.0
C1917 C 0.3071 0.39602 0.52093 0.0
N1918 N 0.22822 0.4489 0.50166 0.0
N1919 N 0.28559 0.40084 0.51012 0.0
H1920 H 0.32704 0.98039 0.40861 0.0
H1921 H 0.28156 0.13794 0.3953 0.0
H1922 H 0.35209 0.04635 0.44263 0.0
H1923 H 0.24521 0.06992 0.36739 0.0
H1924 H 0.31043 0.10526 0.41109 0.0
H1925 H 0.29953 0.01326 0.39211 0.0
C1926 C 0.32674 1.00178 0.41267 0.0
C1927 C 0.34195 0.01052 0.42713 0.0
C1928 C 0.29622 0.09747 0.40147 0.0
C1929 C 0.31046 0.04849 0.40806 0.0
C1930 C 0.2798 0.11616 0.39235 0.0
C1931 C 0.26083 0.10674 0.37995 0.0
C1932 C 0.29388 0.06906 0.39818 0.0
C1933 C 0.25948 0.07819 0.37681 0.0
C1934 C 0.31098 0.02057 0.4032 0.0
C1935 C 0.34066 0.03858 0.43167 0.0
N1936 N 0.27573 0.06041 0.38586 0.0
N1937 N 0.3253 0.05654 0.42215 0.0
H1938 H 0.2541 0.05767 0.69121 0.0
H1939 H 0.14328 0.04347 0.61746 0.0
H1940 H 0.25645 0.11478 0.64861 0.0
H1941 H 0.1898 0.97248 0.63412 0.0
H1942 H 0.17575 0.07346 0.63327 0.0
H1943 H 0.2206 0.02933 0.67518 0.0
C1944 C 0.24719 0.06445 0.67862 0.0
C1945 C 0.25796 0.08854 0.67119 0.0
C1946 C 0.17876 0.05131 0.63337 0.0
C1947 C 0.2196 0.05663 0.65304 0.0
C1948 C 0.16035 0.03425 0.62439 0.0
C1949 C 0.16408 1.00553 0.62438 0.0
C1950 C 0.20032 0.0394 0.64287 0.0
C1951 C 0.18642 0.99456 0.63363 0.0
C1952 C 0.22833 0.04822 0.66947 0.0
C1953 C 0.24863 0.09628 0.65474 0.0
N1954 N 0.20349 0.01147 0.64271 0.0
N1955 N 0.22977 0.08048 0.64624 0.0
H1956 H 0.18499 0.01882 0.87456 0.0
H1957 H 0.24424 0.86503 0.87483 0.0
H1958 H 0.19199 0.96977 0.92079 0.0
H1959 H 0.26951 0.92567 0.83724 0.0
H1960 H 0.21636 0.90022 0.8892 0.0
H1961 H 0.2077 0.98184 0.85831 0.0
C1962 C 0.19106 1.00018 0.88127 0.0
C1963 C 0.18669 0.99742 0.89909 0.0
C1964 C 0.22783 0.90574 0.87772 0.0
C1965 C 0.2124 0.95502 0.88051 0.0
C1966 C 0.2436 0.88563 0.86941 0.0
C1967 C 0.25933 0.89241 0.85481 0.0
C1968 C 0.22739 0.93278 0.87126 0.0
C1969 C 0.2578 0.91955 0.84849 0.0
C1970 C 0.20411 0.97917 0.87199 0.0
C1971 C 0.1951 0.97285 0.9071 0.0
N1972 N 0.24212 0.93876 0.85675 0.0
N1973 N 0.20747 0.95256 0.89775 0.0
H1974 H 0.24011 0.96366 0.17439 0.0
H1975 H 0.32507 0.98611 0.08813 0.0
H1976 H 0.26714 0.8953 0.14298 0.0
H1977 H 0.3319 0.04243 0.13104 0.0
H1978 H 0.29978 0.95384 0.10672 0.0
H1979 H 0.26987 0.99452 0.15747 0.0
C1980 C 0.25246 0.95512 0.16405 0.0
C1981 C 0.2512 0.92685 0.16013 0.0
C1982 C 0.30702 0.9732 0.11207 0.0
C1983 C 0.28473 0.96206 0.14054 0.0
C1984 C 0.32137 0.99163 0.10146 0.0
C1985 C 0.33067 0.01697 0.10804 0.0
C1986 C 0.30136 0.98043 0.12926 0.0
C1987 C 0.32527 0.02305 0.12545 0.0
C1988 C 0.26943 0.97271 0.15442 0.0
C1989 C 0.26761 0.9169 0.14655 0.0
N1990 N 0.31071 1.00507 0.13539 0.0
N1991 N 0.28341 0.93452 0.13711 0.0
H1992 H 0.68831 0.02262 0.64262 0.0
H1993 H 0.75128 0.8706 0.64568 0.0
H1994 H 0.69661 0.97155 0.59733 0.0
H1995 H 0.77555 0.93374 0.68192 0.0
H1996 H 0.72349 0.90464 0.63024 0.0
H1997 H 0.71294 0.98758 0.65941 0.0
C1998 C 0.69513 1.00396 0.63622 0.0
C1999 C 0.69043 1.00005 0.6185 0.0
C2000 C 0.73475 0.91099 0.64164 0.0
C2001 C 0.71837 0.95979 0.63774 0.0
C2002 C 0.75048 0.89153 0.65056 0.0
C2003 C 0.76582 0.89929 0.66516 0.0
C2004 C 0.73393 0.9384 0.64745 0.0
C2005 C 0.76411 0.92684 0.67073 0.0
C2006 C 0.70929 0.98406 0.64581 0.0
C2007 C 0.69988 0.9755 0.61091 0.0
N2008 N 0.7484 0.9454 0.6619 0.0
N2009 N 0.71327 0.95625 0.62059 0.0
H2010 H 0.79113 0.94537 0.34243 0.0
H2011 H 0.81975 0.03412 0.42645 0.0
H2012 H 0.73632 0.94267 0.38622 0.0
H2013 H 0.88552 1.0048 0.39375 0.0
H2014 H 0.78752 1.00371 0.41105 0.0
H2015 H 0.82496 0.9703 0.36003 0.0
C2016 C 0.78629 0.94985 0.35577 0.0
C2017 C 0.76088 0.94189 0.36286 0.0
C2018 C 0.80908 1.00377 0.4074 0.0
C2019 C 0.79927 0.97084 0.38298 0.0
C2020 C 0.82746 0.02112 0.41616 0.0
C2021 C 0.85539 0.022 0.4114 0.0
C2022 C 0.81858 0.98765 0.39354 0.0
C2023 C 0.86422 1.00472 0.39793 0.0
C2024 C 0.80562 0.96402 0.36582 0.0
C2025 C 0.75572 0.94827 0.38025 0.0
N2026 N 0.84584 0.98855 0.38934 0.0
N2027 N 0.77459 0.96267 0.38965 0.0
H2028 H 0.74766 0.1015 0.12717 0.0
H2029 H 0.86374 0.98495 0.11768 0.0
H2030 H 0.78078 0.05598 0.17027 0.0
H2031 H 0.82422 0.0246 0.0744 0.0
H2032 H 0.83736 0.01432 0.13723 0.0
H2033 H 0.77925 0.07724 0.108 0.0
C2034 C 0.76176 0.08663 0.13268 0.0
C2035 C 0.76141 0.0808 0.15044 0.0
C2036 C 0.83458 0.01674 0.12346 0.0
C2037 C 0.7977 0.05261 0.12836 0.0
C2038 C 0.8497 0.99999 0.11224 0.0
C2039 C 0.84613 1.00211 0.09429 0.0
C2040 C 0.81568 0.03589 0.11677 0.0
C2041 C 0.82765 0.02211 0.0881 0.0
C2042 C 0.77978 0.07266 0.12166 0.0
C2043 C 0.78021 0.06116 0.1567 0.0
N2044 N 0.81305 0.03808 0.09931 0.0
N2045 N 0.79747 0.0477 0.14568 0.0
H2046 H 0.67266 0.97786 0.8935 0.0
H2047 H 0.73561 0.13018 0.88936 0.0
H2048 H 0.6673 0.03487 0.93613 0.0
H2049 H 0.76655 0.06328 0.85814 0.0
H2050 H 0.70488 0.0977 0.90405 0.0
H2051 H 0.70158 0.01099 0.87802 0.0
C2052 C 0.67738 0.99743 0.89959 0.0
C2053 C 0.66742 1.00356 0.91618 0.0
C2054 C 0.71831 0.09016 0.89394 0.0
C2055 C 0.70055 0.04174 0.89837 0.0
C2056 C 0.73574 0.10872 0.88543 0.0
C2057 C 0.75374 0.0995 0.87243 0.0
C2058 C 0.71845 0.06216 0.88929 0.0
C2059 C 0.75309 0.07134 0.86807 0.0
C2060 C 0.69404 0.01628 0.89074 0.0
C2061 C 0.67452 0.0292 0.92341 0.0
N2062 N 0.73569 0.05372 0.87643 0.0
N2063 N 0.69051 0.0474 0.91443 0.0
H2064 H 0.88728 0.50725 0.89363 0.0
H2065 H 0.73677 0.5738 0.89486 0.0
H2066 H 0.82668 0.48464 0.93188 0.0
H2067 H 0.78392 0.56333 0.84814 0.0
H2068 H 0.77249 0.54852 0.91076 0.0
H2069 H 0.85263 0.53558 0.87913 0.0
C2070 C 0.86678 0.5085 0.89913 0.0
C2071 C 0.85991 0.49348 0.91402 0.0
C2072 C 0.775 0.55185 0.89704 0.0
C2073 C 0.82011 0.52603 0.89741 0.0
C2074 C 0.75472 0.56638 0.88796 0.0
C2075 C 0.75732 0.57064 0.87011 0.0
C2076 C 0.79834 0.54198 0.88829 0.0
C2077 C 0.78098 0.56042 0.86186 0.0
C2078 C 0.84697 0.52454 0.89075 0.0
C2079 C 0.83289 0.4958 0.92042 0.0
N2080 N 0.80061 0.54671 0.87102 0.0
N2081 N 0.81398 0.51182 0.91211 0.0
H2082 H 0.68192 0.54538 0.08771 0.0
H2083 H 0.76812 0.58362 0.17216 0.0
H2084 H 0.68321 0.49358 0.13296 0.0
H2085 H 0.74151 0.64504 0.13549 0.0
H2086 H 0.74006 0.54915 0.15701 0.0
H2087 H 0.70714 0.58098 0.10384 0.0
C2088 C 0.6875 0.54146 0.101 0.0
C2089 C 0.68037 0.51642 0.10896 0.0
C2090 C 0.74019 0.57023 0.15238 0.0
C2091 C 0.70943 0.557 0.12746 0.0
C2092 C 0.75618 0.58993 0.16103 0.0
C2093 C 0.75711 0.61733 0.15515 0.0
C2094 C 0.7254 0.5778 0.13752 0.0
C2095 C 0.74127 0.62424 0.14059 0.0
C2096 C 0.70179 0.56184 0.11023 0.0
C2097 C 0.68814 0.51257 0.12627 0.0
N2098 N 0.72632 0.60459 0.13219 0.0
N2099 N 0.70237 0.53251 0.13488 0.0
H2100 H 0.63521 0.49287 0.38044 0.0
H2101 H 0.78841 0.43785 0.3677 0.0
H2102 H 0.70402 0.53249 0.40563 0.0
H2103 H 0.72762 0.43355 0.32719 0.0
H2104 H 0.7565 0.466 0.38486 0.0
H2105 H 0.66746 0.46422 0.36413 0.0
C2106 C 0.65711 0.49535 0.38273 0.0
C2107 C 0.66687 0.51515 0.39451 0.0
C2108 C 0.75017 0.45884 0.37223 0.0
C2109 C 0.70399 0.48211 0.3758 0.0
C2110 C 0.76826 0.44261 0.36246 0.0
C2111 C 0.76065 0.43319 0.34598 0.0
C2112 C 0.72397 0.46524 0.36567 0.0
C2113 C 0.73439 0.44037 0.3398 0.0
C2114 C 0.6755 0.47909 0.37328 0.0
C2115 C 0.69556 0.51753 0.3967 0.0
N2116 N 0.71692 0.45572 0.3497 0.0
N2117 N 0.71311 0.50109 0.38753 0.0
H2118 H 0.84333 0.52748 0.62875 0.0
H2119 H 0.74215 0.39795 0.64009 0.0
H2120 H 0.81532 0.47865 0.58558 0.0
H2121 H 0.74682 0.46677 0.6752 0.0
H2122 H 0.77849 0.41957 0.62235 0.0
H2123 H 0.81782 0.49729 0.64814 0.0
C2124 C 0.83212 0.51025 0.62331 0.0
C2125 C 0.83118 0.50598 0.60542 0.0
C2126 C 0.77186 0.4296 0.63412 0.0
C2127 C 0.80184 0.47112 0.62771 0.0
C2128 C 0.75138 0.41719 0.64429 0.0
C2129 C 0.74157 0.43071 0.65905 0.0
C2130 C 0.78278 0.45536 0.63902 0.0
C2131 C 0.75381 0.45579 0.66384 0.0
C2132 C 0.8175 0.493 0.63444 0.0
C2133 C 0.81642 0.48297 0.59926 0.0
N2134 N 0.77369 0.46732 0.65385 0.0
N2135 N 0.80212 0.46653 0.61037 0.0
H2136 H 0.1786 0.48629 0.09481 0.0
H2137 H 0.27784 0.45519 0.17499 0.0
H2138 H 0.19049 0.54396 0.13659 0.0
H2139 H 0.24593 0.39147 0.14157 0.0
H2140 H 0.24848 0.48892 0.16019 0.0
H2141 H 0.20612 0.45225 0.1106 0.0
C2142 C 0.18703 0.49186 0.10727 0.0
C2143 C 0.18217 0.5181 0.11433 0.0
C2144 C 0.24778 0.46751 0.15618 0.0
C2145 C 0.21387 0.47916 0.1325 0.0
C2146 C 0.26453 0.44823 0.16465 0.0
C2147 C 0.26436 0.42037 0.15958 0.0
C2148 C 0.23101 0.45903 0.14236 0.0
C2149 C 0.2467 0.41264 0.14602 0.0
C2150 C 0.20266 0.47235 0.11632 0.0
C2151 C 0.1936 0.52401 0.13061 0.0
N2152 N 0.23096 0.43185 0.13782 0.0
N2153 N 0.20899 0.5048 0.13907 0.0
H2154 H 0.3672 0.51757 0.89206 0.0
H2155 H 0.24337 0.40923 0.8824 0.0
H2156 H 0.30416 0.50332 0.93021 0.0
H2157 H 0.28598 0.44397 0.83858 0.0
H2158 H 0.27478 0.4338 0.90154 0.0
H2159 H 0.34656 0.48105 0.87402 0.0
C2160 C 0.34954 0.50619 0.89683 0.0
C2161 C 0.33719 0.51342 0.91254 0.0
C2162 C 0.27748 0.4358 0.88773 0.0
C2163 C 0.31366 0.47201 0.89217 0.0
C2164 C 0.25955 0.42175 0.87676 0.0
C2165 C 0.26169 0.4249 0.85882 0.0
C2166 C 0.29781 0.45318 0.88079 0.0
C2167 C 0.28336 0.44117 0.85233 0.0
C2168 C 0.33766 0.4856 0.8865 0.0
C2169 C 0.31415 0.4984 0.9181 0.0
N2170 N 0.30042 0.45498 0.86332 0.0
N2171 N 0.30306 0.47853 0.90791 0.0
H2172 H 0.27103 0.61934 0.62598 0.0
H2173 H 0.32924 0.46711 0.61299 0.0
H2174 H 0.23395 0.54818 0.65014 0.0
H2175 H 0.33997 0.53033 0.57438 0.0
H2176 H 0.29911 0.49805 0.62916 0.0
H2177 H 0.30138 0.58862 0.60957 0.0
C2178 C 0.26943 0.59726 0.62798 0.0
C2179 C 0.24993 0.58633 0.63953 0.0
C2180 C 0.308 0.50516 0.61715 0.0
C2181 C 0.28471 0.55109 0.62074 0.0
C2182 C 0.32534 0.48757 0.60791 0.0
C2183 C 0.33725 0.49614 0.59227 0.0
C2184 C 0.30279 0.53183 0.61094 0.0
C2185 C 0.33119 0.52283 0.58633 0.0
C2186 C 0.28663 0.57976 0.61849 0.0
C2187 C 0.24865 0.55752 0.6414 0.0
N2188 N 0.31455 0.53984 0.59574 0.0
N2189 N 0.2659 0.54093 0.63219 0.0
H2190 H 0.27627 0.60172 0.38459 0.0
H2191 H 0.14911 0.4969 0.38827 0.0
H2192 H 0.2276 0.58121 0.33981 0.0
H2193 H 0.19226 0.52703 0.43318 0.0
H2194 H 0.17644 0.52815 0.37028 0.0
H2195 H 0.24482 0.57517 0.40244 0.0
C2196 C 0.25868 0.59212 0.3785 0.0
C2197 C 0.25444 0.59427 0.36064 0.0
C2198 C 0.17977 0.52806 0.38408 0.0
C2199 C 0.21844 0.56278 0.38113 0.0
C2200 C 0.16418 0.51017 0.39439 0.0
C2201 C 0.16848 0.5091 0.4123 0.0
C2202 C 0.19996 0.54493 0.39171 0.0
C2203 C 0.18818 0.52702 0.41946 0.0
C2204 C 0.24076 0.57667 0.38874 0.0
C2205 C 0.23168 0.58031 0.35352 0.0
N2206 N 0.20328 0.54398 0.40915 0.0
N2207 N 0.21461 0.56509 0.36376 0.0
H2208 H 0.26967 0.33849 0.2497 0.0
H2209 H 0.25855 0.18545 0.28837 0.0
H2210 H 0.30049 0.26614 0.22355 0.0
H2211 H 0.22774 0.25797 0.31434 0.0
H2212 H 0.27468 0.21464 0.26475 0.0
H2213 H 0.25387 0.30924 0.27333 0.0
C2214 C 0.27286 0.31641 0.2488 0.0
C2215 C 0.28637 0.30481 0.23451 0.0
C2216 C 0.26447 0.22419 0.27564 0.0
C2217 C 0.26871 0.27113 0.26181 0.0
C2218 C 0.25545 0.20754 0.28923 0.0
C2219 C 0.24179 0.21922 0.30345 0.0
C2220 C 0.25984 0.2528 0.27619 0.0
C2221 C 0.23789 0.24797 0.30359 0.0
C2222 C 0.26403 0.29972 0.26241 0.0
C2223 C 0.29043 0.27608 0.23434 0.0
N2224 N 0.24683 0.26373 0.29019 0.0
N2225 N 0.28165 0.26026 0.24777 0.0
H2226 H 0.05639 0.03132 0.56025 0.0
H2227 H 0.96221 1.00214 0.47723 0.0
H2228 H 0.03739 0.94973 0.54125 0.0
H2229 H 0.97553 0.08348 0.49846 0.0
H2230 H 0.99062 0.98274 0.50022 0.0
H2231 H 0.02792 0.05101 0.53729 0.0
C2232 C 0.04623 0.01754 0.55126 0.0
C2233 C 0.04923 0.9888 0.55276 0.0
C2234 C 0.98736 1.00484 0.49984 0.0
C2235 C 0.01655 0.01121 0.52642 0.0
C2236 C 0.97103 0.01595 0.48674 0.0
C2237 C 0.96639 0.04453 0.48586 0.0
C2238 C 0.99924 0.02239 0.51222 0.0
C2239 C 0.9788 0.06138 0.49843 0.0
C2240 C 0.0299 0.02879 0.53818 0.0
C2241 C 0.03535 0.97197 0.5408 0.0
N2242 N 0.9946 0.05007 0.51107 0.0
N2243 N 0.01972 0.98341 0.52814 0.0
H2244 H 0.32267 0.75979 0.77537 0.0
H2245 H 0.18828 0.68537 0.73706 0.0
H2246 H 0.24095 0.76963 0.79655 0.0
H2247 H 0.26846 0.68143 0.71298 0.0
H2248 H 0.20795 0.7134 0.76014 0.0
H2249 H 0.30401 0.72791 0.75389 0.0
C2250 C 0.30085 0.755 0.77566 0.0
C2251 C 0.28336 0.76747 0.78782 0.0
C2252 C 0.22128 0.70636 0.74984 0.0
C2253 C 0.26177 0.73118 0.76303 0.0
C2254 C 0.21002 0.69045 0.73657 0.0
C2255 C 0.22664 0.68119 0.72289 0.0
C2256 C 0.24944 0.71313 0.74954 0.0
C2257 C 0.25485 0.68792 0.72327 0.0
C2258 C 0.29017 0.73694 0.76328 0.0
C2259 C 0.25517 0.76079 0.78732 0.0
N2260 N 0.26531 0.70357 0.73631 0.0
N2261 N 0.24527 0.74317 0.77513 0.0
H2262 H 0.47107 0.07601 0.03333 0.0
H2263 H 0.49442 0.95434 0.96509 0.0
H2264 H 0.42339 1.00079 0.03354 0.0
H2265 H 0.55478 0.01804 0.97508 0.0
H2266 H 0.46555 0.97339 0.98799 0.0
H2267 H 0.49931 0.05738 1.00994 0.0
C2268 C 0.46648 0.05559 0.02842 0.0
C2269 C 0.44475 0.03997 0.0354 0.0
C2270 C 0.48511 0.9832 0.98512 0.0
C2271 C 0.47706 0.01849 1.00852 0.0
C2272 C 0.50173 0.97228 0.97205 0.0
C2273 C 0.52736 0.98439 0.96808 0.0
C2274 C 0.49391 1.00663 0.99426 0.0
C2275 C 0.53514 1.00809 0.9774 0.0
C2276 C 0.4827 0.04491 0.0151 0.0
C2277 C 0.44003 0.01347 0.02864 0.0
N2278 N 0.51854 0.01837 0.99002 0.0
N2279 N 0.45593 1.00363 0.01552 0.0
H2280 H 0.26695 0.82291 0.23139 0.0
H2281 H 0.23326 0.74515 0.32018 0.0
H2282 H 0.18655 0.82343 0.2553 0.0
H2283 H 0.31242 0.74299 0.2947 0.0
H2284 H 0.21611 0.77564 0.29739 0.0
H2285 H 0.28447 0.79562 0.25546 0.0
C2286 C 0.253 0.81743 0.24175 0.0
C2287 C 0.2252 0.8254 0.24126 0.0
C2288 C 0.23729 0.76862 0.29688 0.0
C2289 C 0.24508 0.79389 0.26886 0.0
C2290 C 0.24707 0.75116 0.30987 0.0
C2291 C 0.27438 0.74154 0.30945 0.0
C2292 C 0.25491 0.77643 0.28334 0.0
C2293 C 0.29139 0.75024 0.29581 0.0
C2294 C 0.26299 0.80172 0.25547 0.0
C2295 C 0.20802 0.81737 0.25498 0.0
N2296 N 0.28135 0.76706 0.28331 0.0
N2297 N 0.21823 0.80205 0.2682 0.0
H2298 H 0.54382 1.00076 0.56871 0.0
H2299 H 0.49841 0.99682 0.46923 0.0
H2300 H 0.59 0.04022 0.52803 0.0
H2301 H 0.44784 0.96635 0.51091 0.0
H2302 H 0.533 0.01149 0.49032 0.0
H2303 H 0.5099 0.98541 0.5474 0.0
C2304 C 0.54702 1.00593 0.55527 0.0
C2305 C 0.56982 0.02186 0.55019 0.0
C2306 C 0.51431 1.00162 0.49484 0.0
C2307 C 0.53077 1.00465 0.52568 0.0
C2308 C 0.49441 0.99342 0.4828 0.0
C2309 C 0.4701 0.9802 0.48823 0.0
C2310 C 0.50997 0.99655 0.51248 0.0
C2311 C 0.4664 0.976 0.50603 0.0
C2312 C 0.52749 0.99737 0.54311 0.0
C2313 C 0.57259 0.02826 0.53259 0.0
N2314 N 0.48609 0.98406 0.51746 0.0
N2315 N 0.55333 0.01968 0.521 0.0
H2316 H 0.27221 0.33089 0.78735 0.0
H2317 H 0.24638 0.19865 0.72763 0.0
H2318 H 0.19495 0.28668 0.78576 0.0
H2319 H 0.3162 0.25326 0.72168 0.0
H2320 H 0.22782 0.22957 0.74963 0.0
H2321 H 0.28991 0.30084 0.76451 0.0
C2322 C 0.25904 0.31474 0.78227 0.0
C2323 C 0.23205 0.31133 0.78844 0.0
C2324 C 0.24715 0.23483 0.74345 0.0
C2325 C 0.25208 0.27697 0.76223 0.0
C2326 C 0.25768 0.21727 0.73077 0.0
C2327 C 0.28302 0.22319 0.72278 0.0
C2328 C 0.26209 0.25844 0.74831 0.0
C2329 C 0.29689 0.24748 0.72768 0.0
C2330 C 0.26907 0.29774 0.76914 0.0
C2331 C 0.21578 0.29026 0.78125 0.0
N2332 N 0.28633 0.26409 0.74016 0.0
N2333 N 0.22606 0.27385 0.76856 0.0
H2334 H 0.96111 0.01598 0.03052 0.0
H2335 H 0.09561 0.98788 0.97361 0.0
H2336 H 0.01959 0.95145 0.04228 0.0
H2337 H 0.04993 0.06419 0.9718 0.0
H2338 H 0.06605 0.97231 0.9974 0.0
H2339 H 0.99216 0.03288 1.00814 0.0
C2340 C 0.98062 1.00555 0.02864 0.0
C2341 C 0.98753 0.98209 0.03839 0.0
C2342 C 0.06257 0.99249 0.99181 0.0
C2343 C 0.02297 1.00102 0.01226 0.0
C2344 C 0.07929 1.00128 0.97816 0.0
C2345 C 0.07531 0.02741 0.97075 0.0
C2346 C 0.04146 0.00979 0.99795 0.0
C2347 C 0.05396 0.04403 0.97725 0.0
C2348 C 0.99826 0.01511 0.01569 0.0
C2349 C 0.01299 0.96924 0.03494 0.0
N2350 N 0.03781 0.03491 0.99041 0.0
N2351 N 0.02962 0.97873 0.02211 0.0
H2352 H 0.74816 0.77312 0.72412 0.0
H2353 H 0.76956 0.707 0.81699 0.0
H2354 H 0.82601 0.7772 0.7509 0.0
H2355 H 0.71053 0.67442 0.78048 0.0
H2356 H 0.78812 0.73664 0.79431 0.0
H2357 H 0.73099 0.74112 0.74623 0.0
C2358 C 0.76161 0.76725 0.73466 0.0
C2359 C 0.78857 0.77767 0.73566 0.0
C2360 C 0.77115 0.7229 0.79131 0.0
C2361 C 0.76903 0.74147 0.76104 0.0
C2362 C 0.7606 0.70575 0.80423 0.0
C2363 C 0.73825 0.68803 0.80081 0.0
C2364 C 0.75906 0.72274 0.77486 0.0
C2365 C 0.7273 0.68806 0.78398 0.0
C2366 C 0.75187 0.74894 0.74721 0.0
C2367 C 0.80519 0.76939 0.74956 0.0
N2368 N 0.73764 0.70526 0.77172 0.0
N2369 N 0.79509 0.75196 0.76178 0.0
H2370 H 0.74182 0.27965 0.30345 0.0
H2371 H 0.76799 0.2166 0.20953 0.0
H2372 H 0.81723 0.29221 0.27503 0.0
H2373 H 0.70827 0.1822 0.24488 0.0
H2374 H 0.7839 0.24743 0.23237 0.0
H2375 H 0.72621 0.24742 0.28095 0.0
C2376 C 0.75505 0.27568 0.29248 0.0
C2377 C 0.78096 0.28851 0.29121 0.0
C2378 C 0.76735 0.23307 0.23511 0.0
C2379 C 0.76318 0.25187 0.26535 0.0
C2380 C 0.75833 0.21521 0.22208 0.0
C2381 C 0.7366 0.19654 0.22509 0.0
C2382 C 0.75443 0.23266 0.25133 0.0
C2383 C 0.72466 0.19647 0.24167 0.0
C2384 C 0.74621 0.25719 0.27969 0.0
C2385 C 0.79728 0.28251 0.27669 0.0
N2386 N 0.73359 0.2143 0.25407 0.0
N2387 N 0.78809 0.2648 0.26434 0.0
H2388 H 0.81731 0.20852 0.7822 0.0
H2389 H 0.70718 0.32107 0.75534 0.0
H2390 H 0.74163 0.22022 0.81042 0.0
H2391 H 0.75352 0.2769 0.71654 0.0
H2392 H 0.72515 0.28988 0.77715 0.0
H2393 H 0.79969 0.23906 0.75938 0.0
C2394 C 0.79703 0.21763 0.78359 0.0
C2395 C 0.78086 0.21197 0.79819 0.0
C2396 C 0.7313 0.28701 0.76384 0.0
C2397 C 0.76088 0.24701 0.77238 0.0
C2398 C 0.72089 0.3047 0.75127 0.0
C2399 C 0.72824 0.30144 0.73382 0.0
C2400 C 0.74985 0.26618 0.75917 0.0
C2401 C 0.74722 0.28045 0.72973 0.0
C2402 C 0.78698 0.23486 0.77056 0.0
C2403 C 0.75467 0.22405 0.79934 0.0
N2404 N 0.75742 0.26366 0.74231 0.0
N2405 N 0.74559 0.24123 0.78669 0.0
H2406 H 0.7614 0.8054 0.30782 0.0
H2407 H 0.74247 0.74666 0.21297 0.0
H2408 H 0.70935 0.8461 0.27039 0.0
H2409 H 0.81896 0.73785 0.24077 0.0
H2410 H 0.72582 0.7782 0.23554 0.0
H2411 H 0.77916 0.77577 0.28491 0.0
C2412 C 0.75378 0.80842 0.29485 0.0
C2413 C 0.73367 0.82855 0.29123 0.0
C2414 C 0.74629 0.76943 0.23663 0.0
C2415 C 0.75348 0.79376 0.26497 0.0
C2416 C 0.75573 0.75142 0.22382 0.0
C2417 C 0.78217 0.73984 0.22498 0.0
C2418 C 0.76316 0.77535 0.2509 0.0
C2419 C 0.79856 0.74662 0.23931 0.0
C2420 C 0.76387 0.79126 0.28178 0.0
C2421 C 0.72431 0.83064 0.27407 0.0
N2422 N 0.78871 0.76373 0.25179 0.0
N2423 N 0.7341 0.81337 0.26166 0.0
H2424 H 0.45137 0.49823 0.98207 0.0
H2425 H 0.57757 0.52536 0.0461 0.0
H2426 H 0.4967 0.57487 0.98277 0.0
H2427 H 0.51347 0.46543 0.0561 0.0
H2428 H 0.55188 0.5411 0.02086 0.0
H2429 H 0.47901 0.48196 1.00652 0.0
C2430 C 0.46752 0.51138 0.98717 0.0
C2431 C 0.4718 0.5379 0.98044 0.0
C2432 C 0.54346 0.52456 0.02864 0.0
C2433 C 0.50314 0.51968 1.00847 0.0
C2434 C 0.55796 0.51572 0.04318 0.0
C2435 C 0.54782 0.49389 0.05332 0.0
C2436 C 0.51878 0.5113 0.02403 0.0
C2437 C 0.5225 0.48191 0.04856 0.0
C2438 C 0.48303 0.50226 1.00123 0.0
C2439 C 0.4927 0.55432 0.98767 0.0
N2440 N 0.50898 0.49063 0.03422 0.0
N2441 N 0.50759 0.54496 1.00131 0.0
H2442 H 0.01747 0.51902 0.45628 0.0
H2443 H 0.9767 0.5047 0.55606 0.0
H2444 H 0.04431 0.45174 0.48864 0.0
H2445 H 0.93956 0.5636 0.52133 0.0
H2446 H 1.00332 0.48609 0.53187 0.0
H2447 H 0.99059 0.53723 0.48048 0.0
C2448 C 0.01765 0.50807 0.46845 0.0
C2449 C 0.03293 0.48371 0.4704 0.0
C2450 C 0.98937 0.50314 0.52959 0.0
C2451 C 1.0024 0.50441 0.49814 0.0
C2452 C 0.97411 0.51371 0.54339 0.0
C2453 C 0.95605 0.53595 0.54081 0.0
C2454 C 0.98655 0.51491 0.51311 0.0
C2455 C 0.9537 0.54689 0.52408 0.0
C2456 C 1.00226 0.5184 0.48225 0.0
C2457 C 0.03239 0.47031 0.48647 0.0
N2458 N 0.96878 0.53632 0.51092 0.0
N2459 N 0.01746 0.48086 0.49971 0.0
H2460 H 0.03944 0.50697 0.069 0.0
H2461 H 0.9862 0.51463 0.97229 0.0
H2462 H 0.07893 0.55843 0.03072 0.0
H2463 H 0.97783 0.44067 1.00276 0.0
H2464 H 0.01564 0.53453 0.99488 0.0
H2465 H 0.01236 0.48533 0.04609 0.0
C2466 C 0.04268 0.51366 0.05584 0.0
C2467 C 0.0616 0.53482 0.05195 0.0
C2468 C 1.00747 0.51388 0.99656 0.0
C2469 C 0.02991 0.51048 0.0257 0.0
C2470 C 0.99065 0.50259 0.98372 0.0
C2471 C 0.97975 0.47594 0.98565 0.0
C2472 C 0.0129 0.49865 0.01159 0.0
C2473 C 0.9861 0.46118 1.00071 0.0
C2474 C 0.02703 0.50134 0.04277 0.0
C2475 C 0.06423 0.54278 0.03456 0.0
N2476 N 1.00206 0.47282 0.01319 0.0
N2477 N 0.04845 0.5308 0.02215 0.0
H2478 H 0.56228 0.49736 0.46263 0.0
H2479 H 0.48465 0.5185 0.5528 0.0
H2480 H 0.5556 0.5768 0.48743 0.0
H2481 H 0.47227 0.44773 0.51977 0.0
H2482 H 0.51421 0.53898 0.53062 0.0
H2483 H 0.53352 0.47732 0.48534 0.0
C2484 C 0.55492 0.51056 0.47292 0.0
C2485 C 0.56135 0.53882 0.47309 0.0
C2486 C 0.50501 0.51894 0.52829 0.0
C2487 C 0.52828 0.51599 0.49918 0.0
C2488 C 0.48797 0.50724 0.54093 0.0
C2489 C 0.47586 0.48115 0.53832 0.0
C2490 C 0.51025 0.50442 0.51295 0.0
C2491 C 0.48149 0.46754 0.52267 0.0
C2492 C 0.53834 0.49915 0.48583 0.0
C2493 C 0.55093 0.55497 0.48668 0.0
N2494 N 0.49826 0.47926 0.51067 0.0
N2495 N 0.53501 0.54333 0.4992 0.0
loop_
_geom_bond_atom_site_label_1
_geom_bond_atom_site_label_2
_geom_bond_distance
_geom_bond_site_symmetry_2
_ccdc_geom_bond_type
Co0 N4 2.148 . S
Co0 N10 2.128 . S
Co0 N20 2.194 . S
Co0 O25 2.351 . S
Co0 O26 2.155 . S
Co0 O27 2.096 . S
C1 N4 1.301 . S
C1 N5 1.328 . S
C1 H6 0.930 . S
C2 C3 1.333 . S
C2 N4 1.317 . S
C2 H7 0.930 . S
C3 C2 1.333 . S
C3 N5 1.350 . S
C3 H29 0.931 . S
N4 Co0 2.148 . S
N4 C1 1.301 . S
N4 C2 1.317 . S
N5 C1 1.328 . S
N5 C3 1.350 . S
H6 C1 0.930 . S
H7 C2 0.930 . S
C8 O9 1.224 . S
C8 O27 1.247 . S
O9 C8 1.224 . S
N10 Co0 2.128 . S
N10 C11 1.355 . S
N10 C13 1.311 . S
C11 N10 1.355 . S
C11 C12 1.363 . S
C11 H23 0.929 . S
C12 C11 1.363 . S
C12 N14 1.375 . S
C12 H30 0.931 . S
C13 N10 1.311 . S
C13 N14 1.347 . S
C13 H24 0.929 . S
N14 C12 1.375 . S
N14 C13 1.347 . S
C15 C18 1.365 . S
C15 N20 1.328 . S
C15 H21 0.929 . S
C16 C17 1.362 . S
C16 C19 1.378 . S
C16 H31 0.929 . S
C17 C16 1.362 . S
C17 C18 1.366 . S
C18 C15 1.365 . S
C18 C17 1.366 . S
C18 H32 0.930 . S
C19 C16 1.378 . S
C19 N20 1.315 . S
C19 H22 0.930 . S
N20 Co0 2.194 . S
N20 C15 1.328 . S
N20 C19 1.315 . S
H21 C15 0.929 . S
H22 C19 0.930 . S
H23 C11 0.929 . S
H24 C13 0.929 . S
O25 Co0 2.351 . S
O25 C28 1.244 . S
O26 Co0 2.155 . S
O26 C28 1.240 . S
O27 Co0 2.096 . S
O27 C8 1.247 . S
C28 O25 1.244 . S
C28 O26 1.240 . S
H29 C3 0.931 . S
H30 C12 0.931 . S
H31 C16 0.929 . S
H32 C18 0.930 . S
Co33 N37 2.148 . S
Co33 N43 2.128 . S
Co33 N53 2.194 . S
Co33 O58 2.351 . S
Co33 O59 2.155 . S
Co33 O60 2.096 . S
C34 N37 1.301 . S
C34 N38 1.328 . S
C34 H39 0.930 . S
C35 C36 1.333 . S
C35 N37 1.317 . S
C35 H40 0.930 . S
C36 C35 1.333 . S
C36 N38 1.350 . S
C36 H62 0.931 . S
N37 Co33 2.148 . S
N37 C34 1.301 . S
N37 C35 1.317 . S
N38 C34 1.328 . S
N38 C36 1.350 . S
H39 C34 0.930 . S
H40 C35 0.930 . S
C41 O42 1.224 . S
C41 O60 1.247 . S
O42 C41 1.224 . S
N43 Co33 2.128 . S
N43 C44 1.355 . S
N43 C46 1.311 . S
C44 N43 1.355 . S
C44 C45 1.363 . S
C44 H56 0.929 . S
C45 C44 1.363 . S
C45 N47 1.375 . S
C45 H63 0.931 . S
C46 N43 1.311 . S
C46 N47 1.347 . S
C46 H57 0.929 . S
N47 C45 1.375 . S
N47 C46 1.347 . S
C48 C51 1.365 . S
C48 N53 1.328 . S
C48 H54 0.929 . S
C49 C50 1.362 . S
C49 C52 1.378 . S
C49 H64 0.929 . S
C50 C49 1.362 . S
C50 C51 1.366 . S
C51 C48 1.365 . S
C51 C50 1.366 . S
C51 H65 0.930 . S
C52 C49 1.378 . S
C52 N53 1.315 . S
C52 H55 0.930 . S
N53 Co33 2.194 . S
N53 C48 1.328 . S
N53 C52 1.315 . S
H54 C48 0.929 . S
H55 C52 0.930 . S
H56 C44 0.929 . S
H57 C46 0.929 . S
O58 Co33 2.351 . S
O58 C61 1.244 . S
O59 Co33 2.155 . S
O59 C61 1.240 . S
O60 Co33 2.096 . S
O60 C41 1.247 . S
C61 O58 1.244 . S
C61 O59 1.240 . S
H62 C36 0.931 . S
H63 C45 0.931 . S
H64 C49 0.929 . S
H65 C51 0.930 . S
Co66 N70 2.148 . S
Co66 N76 2.128 . S
Co66 N86 2.194 . S
Co66 O91 2.351 . S
Co66 O92 2.155 . S
Co66 O93 2.096 . S
C67 N70 1.301 . S
C67 N71 1.328 . S
C67 H72 0.930 . S
C68 C69 1.333 . S
C68 N70 1.317 . S
C68 H73 0.930 . S
C69 C68 1.333 . S
C69 N71 1.350 . S
C69 H95 0.931 . S
N70 Co66 2.148 . S
N70 C67 1.301 . S
N70 C68 1.317 . S
N71 C67 1.328 . S
N71 C69 1.350 . S
H72 C67 0.930 . S
H73 C68 0.930 . S
C74 O75 1.224 . S
C74 O93 1.247 . S
O75 C74 1.224 . S
N76 Co66 2.128 . S
N76 C77 1.355 . S
N76 C79 1.311 . S
C77 N76 1.355 . S
C77 C78 1.363 . S
C77 H89 0.929 . S
C78 C77 1.363 . S
C78 N80 1.375 . S
C78 H96 0.931 . S
C79 N76 1.311 . S
C79 N80 1.347 . S
C79 H90 0.929 . S
N80 C78 1.375 . S
N80 C79 1.347 . S
C81 C84 1.365 . S
C81 N86 1.328 . S
C81 H87 0.929 . S
C82 C83 1.362 . S
C82 C85 1.378 . S
C82 H97 0.929 . S
C83 C82 1.362 . S
C83 C84 1.366 . S
C84 C81 1.365 . S
C84 C83 1.366 . S
C84 H98 0.930 . S
C85 C82 1.378 . S
C85 N86 1.315 . S
C85 H88 0.930 . S
N86 Co66 2.194 . S
N86 C81 1.328 . S
N86 C85 1.315 . S
H87 C81 0.929 . S
H88 C85 0.930 . S
H89 C77 0.929 . S
H90 C79 0.929 . S
O91 Co66 2.351 . S
O91 C94 1.244 . S
O92 Co66 2.155 . S
O92 C94 1.240 . S
O93 Co66 2.096 . S
O93 C74 1.247 . S
C94 O91 1.244 . S
C94 O92 1.240 . S
H95 C69 0.931 . S
H96 C78 0.931 . S
H97 C82 0.929 . S
H98 C84 0.930 . S
Co99 N103 2.148 . S
Co99 N109 2.128 . S
Co99 N119 2.194 . S
Co99 O124 2.351 . S
Co99 O125 2.155 . S
Co99 O126 2.096 . S
C100 N103 1.301 . S
C100 N104 1.328 . S
C100 H105 0.930 . S
C101 C102 1.333 . S
C101 N103 1.317 . S
C101 H106 0.930 . S
C102 C101 1.333 . S
C102 N104 1.350 . S
C102 H128 0.931 . S
N103 Co99 2.148 . S
N103 C100 1.301 . S
N103 C101 1.317 . S
N104 C100 1.328 . S
N104 C102 1.350 . S
H105 C100 0.930 . S
H106 C101 0.930 . S
C107 O108 1.224 . S
C107 O126 1.247 . S
O108 C107 1.224 . S
N109 Co99 2.128 . S
N109 C110 1.355 . S
N109 C112 1.311 . S
C110 N109 1.355 . S
C110 C111 1.363 . S
C110 H122 0.929 . S
C111 C110 1.363 . S
C111 N113 1.375 . S
C111 H129 0.931 . S
C112 N109 1.311 . S
C112 N113 1.347 . S
C112 H123 0.929 . S
N113 C111 1.375 . S
N113 C112 1.347 . S
C114 C117 1.365 . S
C114 N119 1.328 . S
C114 H120 0.929 . S
C115 C116 1.362 . S
C115 C118 1.378 . S
C115 H130 0.929 . S
C116 C115 1.362 . S
C116 C117 1.366 . S
C117 C114 1.365 . S
C117 C116 1.366 . S
C117 H131 0.930 . S
C118 C115 1.378 . S
C118 N119 1.315 . S
C118 H121 0.930 . S
N119 Co99 2.194 . S
N119 C114 1.328 . S
N119 C118 1.315 . S
H120 C114 0.929 . S
H121 C118 0.930 . S
H122 C110 0.929 . S
H123 C112 0.929 . S
O124 Co99 2.351 . S
O124 C127 1.244 . S
O125 Co99 2.155 . S
O125 C127 1.240 . S
O126 Co99 2.096 . S
O126 C107 1.247 . S
C127 O124 1.244 . S
C127 O125 1.240 . S
H128 C102 0.931 . S
H129 C111 0.931 . S
H130 C115 0.929 . S
H131 C117 0.930 . S
Co132 N136 2.148 . S
Co132 N142 2.128 . S
Co132 N152 2.194 . S
Co132 O157 2.351 . S
Co132 O158 2.155 . S
Co132 O159 2.096 . S
C133 N136 1.301 . S
C133 N137 1.328 . S
C133 H138 0.930 . S
C134 C135 1.333 . S
C134 N136 1.317 . S
C134 H139 0.930 . S
C135 C134 1.333 . S
C135 N137 1.350 . S
C135 H161 0.931 . S
N136 Co132 2.148 . S
N136 C133 1.301 . S
N136 C134 1.317 . S
N137 C133 1.328 . S
N137 C135 1.350 . S
H138 C133 0.930 . S
H139 C134 0.930 . S
C140 O141 1.224 . S
C140 O159 1.247 . S
O141 C140 1.224 . S
N142 Co132 2.128 . S
N142 C143 1.355 . S
N142 C145 1.311 . S
C143 N142 1.355 . S
C143 C144 1.363 . S
C143 H155 0.929 . S
C144 C143 1.363 . S
C144 N146 1.375 . S
C144 H162 0.931 . S
C145 N142 1.311 . S
C145 N146 1.347 . S
C145 H156 0.929 . S
N146 C144 1.375 . S
N146 C145 1.347 . S
C147 C150 1.365 . S
C147 N152 1.328 . S
C147 H153 0.929 . S
C148 C149 1.362 . S
C148 C151 1.378 . S
C148 H163 0.929 . S
C149 C148 1.362 . S
C149 C150 1.366 . S
C150 C147 1.365 . S
C150 C149 1.366 . S
C150 H164 0.930 . S
C151 C148 1.378 . S
C151 N152 1.315 . S
C151 H154 0.930 . S
N152 Co132 2.194 . S
N152 C147 1.328 . S
N152 C151 1.315 . S
H153 C147 0.929 . S
H154 C151 0.930 . S
H155 C143 0.929 . S
H156 C145 0.929 . S
O157 Co132 2.351 . S
O157 C160 1.244 . S
O158 Co132 2.155 . S
O158 C160 1.240 . S
O159 Co132 2.096 . S
O159 C140 1.247 . S
C160 O157 1.244 . S
C160 O158 1.240 . S
H161 C135 0.931 . S
H162 C144 0.931 . S
H163 C148 0.929 . S
H164 C150 0.930 . S
Co165 N169 2.148 . S
Co165 N175 2.128 . S
Co165 N185 2.194 . S
Co165 O190 2.351 . S
Co165 O191 2.155 . S
Co165 O192 2.096 . S
C166 N169 1.301 . S
C166 N170 1.328 . S
C166 H171 0.930 . S
C167 C168 1.333 . S
C167 N169 1.317 . S
C167 H172 0.930 . S
C168 C167 1.333 . S
C168 N170 1.350 . S
C168 H194 0.931 . S
N169 Co165 2.148 . S
N169 C166 1.301 . S
N169 C167 1.317 . S
N170 C166 1.328 . S
N170 C168 1.350 . S
H171 C166 0.930 . S
H172 C167 0.930 . S
C173 O174 1.224 . S
C173 O192 1.247 . S
O174 C173 1.224 . S
N175 Co165 2.128 . S
N175 C176 1.355 . S
N175 C178 1.311 . S
C176 N175 1.355 . S
C176 C177 1.363 . S
C176 H188 0.929 . S
C177 C176 1.363 . S
C177 N179 1.375 . S
C177 H195 0.931 . S
C178 N175 1.311 . S
C178 N179 1.347 . S
C178 H189 0.929 . S
N179 C177 1.375 . S
N179 C178 1.347 . S
C180 C183 1.365 . S
C180 N185 1.328 . S
C180 H186 0.929 . S
C181 C182 1.362 . S
C181 C184 1.378 . S
C181 H196 0.929 . S
C182 C181 1.362 . S
C182 C183 1.366 . S
C183 C180 1.365 . S
C183 C182 1.366 . S
C183 H197 0.930 . S
C184 C181 1.378 . S
C184 N185 1.315 . S
C184 H187 0.930 . S
N185 Co165 2.194 . S
N185 C180 1.328 . S
N185 C184 1.315 . S
H186 C180 0.929 . S
H187 C184 0.930 . S
H188 C176 0.929 . S
H189 C178 0.929 . S
O190 Co165 2.351 . S
O190 C193 1.244 . S
O191 Co165 2.155 . S
O191 C193 1.240 . S
O192 Co165 2.096 . S
O192 C173 1.247 . S
C193 O190 1.244 . S
C193 O191 1.240 . S
H194 C168 0.931 . S
H195 C177 0.931 . S
H196 C181 0.929 . S
H197 C183 0.930 . S
Co198 N202 2.148 . S
Co198 N208 2.128 . S
Co198 N218 2.194 . S
Co198 O223 2.351 . S
Co198 O224 2.155 . S
Co198 O225 2.096 . S
C199 N202 1.301 . S
C199 N203 1.328 . S
C199 H204 0.930 . S
C200 C201 1.333 . S
C200 N202 1.317 . S
C200 H205 0.930 . S
C201 C200 1.333 . S
C201 N203 1.350 . S
C201 H227 0.931 . S
N202 Co198 2.148 . S
N202 C199 1.301 . S
N202 C200 1.317 . S
N203 C199 1.328 . S
N203 C201 1.350 . S
H204 C199 0.930 . S
H205 C200 0.930 . S
C206 O207 1.224 . S
C206 O225 1.247 . S
O207 C206 1.224 . S
N208 Co198 2.128 . S
N208 C209 1.355 . S
N208 C211 1.311 . S
C209 N208 1.355 . S
C209 C210 1.363 . S
C209 H221 0.929 . S
C210 C209 1.363 . S
C210 N212 1.375 . S
C210 H228 0.931 . S
C211 N208 1.311 . S
C211 N212 1.347 . S
C211 H222 0.929 . S
N212 C210 1.375 . S
N212 C211 1.347 . S
C213 C216 1.365 . S
C213 N218 1.328 . S
C213 H219 0.929 . S
C214 C215 1.362 . S
C214 C217 1.378 . S
C214 H229 0.929 . S
C215 C214 1.362 . S
C215 C216 1.366 . S
C216 C213 1.365 . S
C216 C215 1.366 . S
C216 H230 0.930 . S
C217 C214 1.378 . S
C217 N218 1.315 . S
C217 H220 0.930 . S
N218 Co198 2.194 . S
N218 C213 1.328 . S
N218 C217 1.315 . S
H219 C213 0.929 . S
H220 C217 0.930 . S
H221 C209 0.929 . S
H222 C211 0.929 . S
O223 Co198 2.351 . S
O223 C226 1.244 . S
O224 Co198 2.155 . S
O224 C226 1.240 . S
O225 Co198 2.096 . S
O225 C206 1.247 . S
C226 O223 1.244 . S
C226 O224 1.240 . S
H227 C201 0.931 . S
H228 C210 0.931 . S
H229 C214 0.929 . S
H230 C216 0.930 . S
Co231 N235 2.148 . S
Co231 N241 2.128 . S
Co231 N251 2.194 . S
Co231 O256 2.351 . S
Co231 O257 2.155 . S
Co231 O258 2.096 . S
C232 N235 1.301 . S
C232 N236 1.328 . S
C232 H237 0.930 . S
C233 C234 1.333 . S
C233 N235 1.317 . S
C233 H238 0.930 . S
C234 C233 1.333 . S
C234 N236 1.350 . S
C234 H260 0.931 . S
N235 Co231 2.148 . S
N235 C232 1.301 . S
N235 C233 1.317 . S
N236 C232 1.328 . S
N236 C234 1.350 . S
H237 C232 0.930 . S
H238 C233 0.930 . S
C239 O240 1.224 . S
C239 O258 1.247 . S
O240 C239 1.224 . S
N241 Co231 2.128 . S
N241 C242 1.355 . S
N241 C244 1.311 . S
C242 N241 1.355 . S
C242 C243 1.363 . S
C242 H254 0.929 . S
C243 C242 1.363 . S
C243 N245 1.375 . S
C243 H261 0.931 . S
C244 N241 1.311 . S
C244 N245 1.347 . S
C244 H255 0.929 . S
N245 C243 1.375 . S
N245 C244 1.347 . S
C246 C249 1.365 . S
C246 N251 1.328 . S
C246 H252 0.929 . S
C247 C248 1.362 . S
C247 C250 1.378 . S
C247 H262 0.929 . S
C248 C247 1.362 . S
C248 C249 1.366 . S
C249 C246 1.365 . S
C249 C248 1.366 . S
C249 H263 0.930 . S
C250 C247 1.378 . S
C250 N251 1.315 . S
C250 H253 0.930 . S
N251 Co231 2.194 . S
N251 C246 1.328 . S
N251 C250 1.315 . S
H252 C246 0.929 . S
H253 C250 0.930 . S
H254 C242 0.929 . S
H255 C244 0.929 . S
O256 Co231 2.351 . S
O256 C259 1.244 . S
O257 Co231 2.155 . S
O257 C259 1.240 . S
O258 Co231 2.096 . S
O258 C239 1.247 . S
C259 O256 1.244 . S
C259 O257 1.240 . S
H260 C234 0.931 . S
H261 C243 0.931 . S
H262 C247 0.929 . S
H263 C249 0.930 . S
Co264 N268 2.148 . S
Co264 N274 2.128 . S
Co264 N284 2.194 . S
Co264 O289 2.351 . S
Co264 O290 2.155 . S
Co264 O291 2.096 . S
C265 N268 1.301 . S
C265 N269 1.328 . S
C265 H270 0.930 . S
C266 C267 1.333 . S
C266 N268 1.317 . S
C266 H271 0.930 . S
C267 C266 1.333 . S
C267 N269 1.350 . S
C267 H293 0.931 . S
N268 Co264 2.148 . S
N268 C265 1.301 . S
N268 C266 1.317 . S
N269 C265 1.328 . S
N269 C267 1.350 . S
H270 C265 0.930 . S
H271 C266 0.930 . S
C272 O273 1.224 . S
C272 O291 1.247 . S
O273 C272 1.224 . S
N274 Co264 2.128 . S
N274 C275 1.355 . S
N274 C277 1.311 . S
C275 N274 1.355 . S
C275 C276 1.363 . S
C275 H287 0.929 . S
C276 C275 1.363 . S
C276 N278 1.375 . S
C276 H294 0.931 . S
C277 N274 1.311 . S
C277 N278 1.347 . S
C277 H288 0.929 . S
N278 C276 1.375 . S
N278 C277 1.347 . S
C279 C282 1.365 . S
C279 N284 1.328 . S
C279 H285 0.929 . S
C280 C281 1.362 . S
C280 C283 1.378 . S
C280 H295 0.929 . S
C281 C280 1.362 . S
C281 C282 1.366 . S
C282 C279 1.365 . S
C282 C281 1.366 . S
C282 H296 0.930 . S
C283 C280 1.378 . S
C283 N284 1.315 . S
C283 H286 0.930 . S
N284 Co264 2.194 . S
N284 C279 1.328 . S
N284 C283 1.315 . S
H285 C279 0.929 . S
H286 C283 0.930 . S
H287 C275 0.929 . S
H288 C277 0.929 . S
O289 Co264 2.351 . S
O289 C292 1.244 . S
O290 Co264 2.155 . S
O290 C292 1.240 . S
O291 Co264 2.096 . S
O291 C272 1.247 . S
C292 O289 1.244 . S
C292 O290 1.240 . S
H293 C267 0.931 . S
H294 C276 0.931 . S
H295 C280 0.929 . S
H296 C282 0.930 . S
Co297 N301 2.148 . S
Co297 N307 2.128 . S
Co297 N317 2.194 . S
Co297 O322 2.351 . S
Co297 O323 2.155 . S
Co297 O324 2.096 . S
C298 N301 1.301 . S
C298 N302 1.328 . S
C298 H303 0.930 . S
C299 C300 1.333 . S
C299 N301 1.317 . S
C299 H304 0.930 . S
C300 C299 1.333 . S
C300 N302 1.350 . S
C300 H326 0.931 . S
N301 Co297 2.148 . S
N301 C298 1.301 . S
N301 C299 1.317 . S
N302 C298 1.328 . S
N302 C300 1.350 . S
H303 C298 0.930 . S
H304 C299 0.930 . S
C305 O306 1.224 . S
C305 O324 1.247 . S
O306 C305 1.224 . S
N307 Co297 2.128 . S
N307 C308 1.355 . S
N307 C310 1.311 . S
C308 N307 1.355 . S
C308 C309 1.363 . S
C308 H320 0.929 . S
C309 C308 1.363 . S
C309 N311 1.375 . S
C309 H327 0.931 . S
C310 N307 1.311 . S
C310 N311 1.347 . S
C310 H321 0.929 . S
N311 C309 1.375 . S
N311 C310 1.347 . S
C312 C315 1.365 . S
C312 N317 1.328 . S
C312 H318 0.929 . S
C313 C314 1.362 . S
C313 C316 1.378 . S
C313 H328 0.929 . S
C314 C313 1.362 . S
C314 C315 1.366 . S
C315 C312 1.365 . S
C315 C314 1.366 . S
C315 H329 0.930 . S
C316 C313 1.378 . S
C316 N317 1.315 . S
C316 H319 0.930 . S
N317 Co297 2.194 . S
N317 C312 1.328 . S
N317 C316 1.315 . S
H318 C312 0.929 . S
H319 C316 0.930 . S
H320 C308 0.929 . S
H321 C310 0.929 . S
O322 Co297 2.351 . S
O322 C325 1.244 . S
O323 Co297 2.155 . S
O323 C325 1.240 . S
O324 Co297 2.096 . S
O324 C305 1.247 . S
C325 O322 1.244 . S
C325 O323 1.240 . S
H326 C300 0.931 . S
H327 C309 0.931 . S
H328 C313 0.929 . S
H329 C315 0.930 . S
Co330 N334 2.148 . S
Co330 N340 2.128 . S
Co330 N350 2.194 . S
Co330 O355 2.351 . S
Co330 O356 2.155 . S
Co330 O357 2.096 . S
C331 N334 1.301 . S
C331 N335 1.328 . S
C331 H336 0.930 . S
C332 C333 1.333 . S
C332 N334 1.317 . S
C332 H337 0.930 . S
C333 C332 1.333 . S
C333 N335 1.350 . S
C333 H359 0.931 . S
N334 Co330 2.148 . S
N334 C331 1.301 . S
N334 C332 1.317 . S
N335 C331 1.328 . S
N335 C333 1.350 . S
H336 C331 0.930 . S
H337 C332 0.930 . S
C338 O339 1.224 . S
C338 O357 1.247 . S
O339 C338 1.224 . S
N340 Co330 2.128 . S
N340 C341 1.355 . S
N340 C343 1.311 . S
C341 N340 1.355 . S
C341 C342 1.363 . S
C341 H353 0.929 . S
C342 C341 1.363 . S
C342 N344 1.375 . S
C342 H360 0.931 . S
C343 N340 1.311 . S
C343 N344 1.347 . S
C343 H354 0.929 . S
N344 C342 1.375 . S
N344 C343 1.347 . S
C345 C348 1.365 . S
C345 N350 1.328 . S
C345 H351 0.929 . S
C346 C347 1.362 . S
C346 C349 1.378 . S
C346 H361 0.929 . S
C347 C346 1.362 . S
C347 C348 1.366 . S
C348 C345 1.365 . S
C348 C347 1.366 . S
C348 H362 0.930 . S
C349 C346 1.378 . S
C349 N350 1.315 . S
C349 H352 0.930 . S
N350 Co330 2.194 . S
N350 C345 1.328 . S
N350 C349 1.315 . S
H351 C345 0.929 . S
H352 C349 0.930 . S
H353 C341 0.929 . S
H354 C343 0.929 . S
O355 Co330 2.351 . S
O355 C358 1.244 . S
O356 Co330 2.155 . S
O356 C358 1.240 . S
O357 Co330 2.096 . S
O357 C338 1.247 . S
C358 O355 1.244 . S
C358 O356 1.240 . S
H359 C333 0.931 . S
H360 C342 0.931 . S
H361 C346 0.929 . S
H362 C348 0.930 . S
Co363 N367 2.148 . S
Co363 N373 2.128 . S
Co363 N383 2.194 . S
Co363 O388 2.351 . S
Co363 O389 2.155 . S
Co363 O390 2.096 . S
C364 N367 1.301 . S
C364 N368 1.328 . S
C364 H369 0.930 . S
C365 C366 1.333 . S
C365 N367 1.317 . S
C365 H370 0.930 . S
C366 C365 1.333 . S
C366 N368 1.350 . S
C366 H392 0.931 . S
N367 Co363 2.148 . S
N367 C364 1.301 . S
N367 C365 1.317 . S
N368 C364 1.328 . S
N368 C366 1.350 . S
H369 C364 0.930 . S
H370 C365 0.930 . S
C371 O372 1.224 . S
C371 O390 1.247 . S
O372 C371 1.224 . S
N373 Co363 2.128 . S
N373 C374 1.355 . S
N373 C376 1.311 . S
C374 N373 1.355 . S
C374 C375 1.363 . S
C374 H386 0.929 . S
C375 C374 1.363 . S
C375 N377 1.375 . S
C375 H393 0.931 . S
C376 N373 1.311 . S
C376 N377 1.347 . S
C376 H387 0.929 . S
N377 C375 1.375 . S
N377 C376 1.347 . S
C378 C381 1.365 . S
C378 N383 1.328 . S
C378 H384 0.929 . S
C379 C380 1.362 . S
C379 C382 1.378 . S
C379 H394 0.929 . S
C380 C379 1.362 . S
C380 C381 1.366 . S
C381 C378 1.365 . S
C381 C380 1.366 . S
C381 H395 0.930 . S
C382 C379 1.378 . S
C382 N383 1.315 . S
C382 H385 0.930 . S
N383 Co363 2.194 . S
N383 C378 1.328 . S
N383 C382 1.315 . S
H384 C378 0.929 . S
H385 C382 0.930 . S
H386 C374 0.929 . S
H387 C376 0.929 . S
O388 Co363 2.351 . S
O388 C391 1.244 . S
O389 Co363 2.155 . S
O389 C391 1.240 . S
O390 Co363 2.096 . S
O390 C371 1.247 . S
C391 O388 1.244 . S
C391 O389 1.240 . S
H392 C366 0.931 . S
H393 C375 0.931 . S
H394 C379 0.929 . S
H395 C381 0.930 . S
Co396 N400 2.148 . S
Co396 N406 2.128 . S
Co396 N416 2.194 . S
Co396 O421 2.351 . S
Co396 O422 2.155 . S
Co396 O423 2.096 . S
C397 N400 1.301 . S
C397 N401 1.328 . S
C397 H402 0.930 . S
C398 C399 1.333 . S
C398 N400 1.317 . S
C398 H403 0.930 . S
C399 C398 1.333 . S
C399 N401 1.350 . S
C399 H425 0.931 . S
N400 Co396 2.148 . S
N400 C397 1.301 . S
N400 C398 1.317 . S
N401 C397 1.328 . S
N401 C399 1.350 . S
H402 C397 0.930 . S
H403 C398 0.930 . S
C404 O405 1.224 . S
C404 O423 1.247 . S
O405 C404 1.224 . S
N406 Co396 2.128 . S
N406 C407 1.355 . S
N406 C409 1.311 . S
C407 N406 1.355 . S
C407 C408 1.363 . S
C407 H419 0.929 . S
C408 C407 1.363 . S
C408 N410 1.375 . S
C408 H426 0.931 . S
C409 N406 1.311 . S
C409 N410 1.347 . S
C409 H420 0.929 . S
N410 C408 1.375 . S
N410 C409 1.347 . S
C411 C414 1.365 . S
C411 N416 1.328 . S
C411 H417 0.929 . S
C412 C413 1.362 . S
C412 C415 1.378 . S
C412 H427 0.929 . S
C413 C412 1.362 . S
C413 C414 1.366 . S
C414 C411 1.365 . S
C414 C413 1.366 . S
C414 H428 0.930 . S
C415 C412 1.378 . S
C415 N416 1.315 . S
C415 H418 0.930 . S
N416 Co396 2.194 . S
N416 C411 1.328 . S
N416 C415 1.315 . S
H417 C411 0.929 . S
H418 C415 0.930 . S
H419 C407 0.929 . S
H420 C409 0.929 . S
O421 Co396 2.351 . S
O421 C424 1.244 . S
O422 Co396 2.155 . S
O422 C424 1.240 . S
O423 Co396 2.096 . S
O423 C404 1.247 . S
C424 O421 1.244 . S
C424 O422 1.240 . S
H425 C399 0.931 . S
H426 C408 0.931 . S
H427 C412 0.929 . S
H428 C414 0.930 . S
Co429 N433 2.148 . S
Co429 N439 2.128 . S
Co429 N449 2.194 . S
Co429 O454 2.351 . S
Co429 O455 2.155 . S
Co429 O456 2.096 . S
C430 N433 1.301 . S
C430 N434 1.328 . S
C430 H435 0.930 . S
C431 C432 1.333 . S
C431 N433 1.317 . S
C431 H436 0.930 . S
C432 C431 1.333 . S
C432 N434 1.350 . S
C432 H458 0.931 . S
N433 Co429 2.148 . S
N433 C430 1.301 . S
N433 C431 1.317 . S
N434 C430 1.328 . S
N434 C432 1.350 . S
H435 C430 0.930 . S
H436 C431 0.930 . S
C437 O438 1.224 . S
C437 O456 1.247 . S
O438 C437 1.224 . S
N439 Co429 2.128 . S
N439 C440 1.355 . S
N439 C442 1.311 . S
C440 N439 1.355 . S
C440 C441 1.363 . S
C440 H452 0.929 . S
C441 C440 1.363 . S
C441 N443 1.375 . S
C441 H459 0.931 . S
C442 N439 1.311 . S
C442 N443 1.347 . S
C442 H453 0.929 . S
N443 C441 1.375 . S
N443 C442 1.347 . S
C444 C447 1.365 . S
C444 N449 1.328 . S
C444 H450 0.929 . S
C445 C446 1.362 . S
C445 C448 1.378 . S
C445 H460 0.929 . S
C446 C445 1.362 . S
C446 C447 1.366 . S
C447 C444 1.365 . S
C447 C446 1.366 . S
C447 H461 0.930 . S
C448 C445 1.378 . S
C448 N449 1.315 . S
C448 H451 0.930 . S
N449 Co429 2.194 . S
N449 C444 1.328 . S
N449 C448 1.315 . S
H450 C444 0.929 . S
H451 C448 0.930 . S
H452 C440 0.929 . S
H453 C442 0.929 . S
O454 Co429 2.351 . S
O454 C457 1.244 . S
O455 Co429 2.155 . S
O455 C457 1.240 . S
O456 Co429 2.096 . S
O456 C437 1.247 . S
C457 O454 1.244 . S
C457 O455 1.240 . S
H458 C432 0.931 . S
H459 C441 0.931 . S
H460 C445 0.929 . S
H461 C447 0.930 . S
Co462 N466 2.148 . S
Co462 N472 2.128 . S
Co462 N482 2.194 . S
Co462 O487 2.351 . S
Co462 O488 2.155 . S
Co462 O489 2.096 . S
C463 N466 1.301 . S
C463 N467 1.328 . S
C463 H468 0.930 . S
C464 C465 1.333 . S
C464 N466 1.317 . S
C464 H469 0.930 . S
C465 C464 1.333 . S
C465 N467 1.350 . S
C465 H491 0.931 . S
N466 Co462 2.148 . S
N466 C463 1.301 . S
N466 C464 1.317 . S
N467 C463 1.328 . S
N467 C465 1.350 . S
H468 C463 0.930 . S
H469 C464 0.930 . S
C470 O471 1.224 . S
C470 O489 1.247 . S
O471 C470 1.224 . S
N472 Co462 2.128 . S
N472 C473 1.355 . S
N472 C475 1.311 . S
C473 N472 1.355 . S
C473 C474 1.363 . S
C473 H485 0.929 . S
C474 C473 1.363 . S
C474 N476 1.375 . S
C474 H492 0.931 . S
C475 N472 1.311 . S
C475 N476 1.347 . S
C475 H486 0.929 . S
N476 C474 1.375 . S
N476 C475 1.347 . S
C477 C480 1.365 . S
C477 N482 1.328 . S
C477 H483 0.929 . S
C478 C479 1.362 . S
C478 C481 1.378 . S
C478 H493 0.929 . S
C479 C478 1.362 . S
C479 C480 1.366 . S
C480 C477 1.365 . S
C480 C479 1.366 . S
C480 H494 0.930 . S
C481 C478 1.378 . S
C481 N482 1.315 . S
C481 H484 0.930 . S
N482 Co462 2.194 . S
N482 C477 1.328 . S
N482 C481 1.315 . S
H483 C477 0.929 . S
H484 C481 0.930 . S
H485 C473 0.929 . S
H486 C475 0.929 . S
O487 Co462 2.351 . S
O487 C490 1.244 . S
O488 Co462 2.155 . S
O488 C490 1.240 . S
O489 Co462 2.096 . S
O489 C470 1.247 . S
C490 O487 1.244 . S
C490 O488 1.240 . S
H491 C465 0.931 . S
H492 C474 0.931 . S
H493 C478 0.929 . S
H494 C480 0.930 . S
Co495 N499 2.148 . S
Co495 N505 2.128 . S
Co495 N515 2.194 . S
Co495 O520 2.351 . S
Co495 O521 2.155 . S
Co495 O522 2.096 . S
C496 N499 1.301 . S
C496 N500 1.328 . S
C496 H501 0.930 . S
C497 C498 1.333 . S
C497 N499 1.317 . S
C497 H502 0.930 . S
C498 C497 1.333 . S
C498 N500 1.350 . S
C498 H524 0.931 . S
N499 Co495 2.148 . S
N499 C496 1.301 . S
N499 C497 1.317 . S
N500 C496 1.328 . S
N500 C498 1.350 . S
H501 C496 0.930 . S
H502 C497 0.930 . S
C503 O504 1.224 . S
C503 O522 1.247 . S
O504 C503 1.224 . S
N505 Co495 2.128 . S
N505 C506 1.355 . S
N505 C508 1.311 . S
C506 N505 1.355 . S
C506 C507 1.363 . S
C506 H518 0.929 . S
C507 C506 1.363 . S
C507 N509 1.375 . S
C507 H525 0.931 . S
C508 N505 1.311 . S
C508 N509 1.347 . S
C508 H519 0.929 . S
N509 C507 1.375 . S
N509 C508 1.347 . S
C510 C513 1.365 . S
C510 N515 1.328 . S
C510 H516 0.929 . S
C511 C512 1.362 . S
C511 C514 1.378 . S
C511 H526 0.929 . S
C512 C511 1.362 . S
C512 C513 1.366 . S
C513 C510 1.365 . S
C513 C512 1.366 . S
C513 H527 0.930 . S
C514 C511 1.378 . S
C514 N515 1.315 . S
C514 H517 0.930 . S
N515 Co495 2.194 . S
N515 C510 1.328 . S
N515 C514 1.315 . S
H516 C510 0.929 . S
H517 C514 0.930 . S
H518 C506 0.929 . S
H519 C508 0.929 . S
O520 Co495 2.351 . S
O520 C523 1.244 . S
O521 Co495 2.155 . S
O521 C523 1.240 . S
O522 Co495 2.096 . S
O522 C503 1.247 . S
C523 O520 1.244 . S
C523 O521 1.240 . S
H524 C498 0.931 . S
H525 C507 0.931 . S
H526 C511 0.929 . S
H527 C513 0.930 . S
Co528 N532 2.148 . S
Co528 N538 2.128 . S
Co528 N548 2.194 . S
Co528 O553 2.351 . S
Co528 O554 2.155 . S
Co528 O555 2.096 . S
C529 N532 1.301 . S
C529 N533 1.328 . S
C529 H534 0.930 . S
C530 C531 1.333 . S
C530 N532 1.317 . S
C530 H535 0.930 . S
C531 C530 1.333 . S
C531 N533 1.350 . S
C531 H557 0.931 . S
N532 Co528 2.148 . S
N532 C529 1.301 . S
N532 C530 1.317 . S
N533 C529 1.328 . S
N533 C531 1.350 . S
H534 C529 0.930 . S
H535 C530 0.930 . S
C536 O537 1.224 . S
C536 O555 1.247 . S
O537 C536 1.224 . S
N538 Co528 2.128 . S
N538 C539 1.355 . S
N538 C541 1.311 . S
C539 N538 1.355 . S
C539 C540 1.363 . S
C539 H551 0.929 . S
C540 C539 1.363 . S
C540 N542 1.375 . S
C540 H558 0.931 . S
C541 N538 1.311 . S
C541 N542 1.347 . S
C541 H552 0.929 . S
N542 C540 1.375 . S
N542 C541 1.347 . S
C543 C546 1.365 . S
C543 N548 1.328 . S
C543 H549 0.929 . S
C544 C545 1.362 . S
C544 C547 1.378 . S
C544 H559 0.929 . S
C545 C544 1.362 . S
C545 C546 1.366 . S
C546 C543 1.365 . S
C546 C545 1.366 . S
C546 H560 0.930 . S
C547 C544 1.378 . S
C547 N548 1.315 . S
C547 H550 0.930 . S
N548 Co528 2.194 . S
N548 C543 1.328 . S
N548 C547 1.315 . S
H549 C543 0.929 . S
H550 C547 0.930 . S
H551 C539 0.929 . S
H552 C541 0.929 . S
O553 Co528 2.351 . S
O553 C556 1.244 . S
O554 Co528 2.155 . S
O554 C556 1.240 . S
O555 Co528 2.096 . S
O555 C536 1.247 . S
C556 O553 1.244 . S
C556 O554 1.240 . S
H557 C531 0.931 . S
H558 C540 0.931 . S
H559 C544 0.929 . S
H560 C546 0.930 . S
Co561 N565 2.148 . S
Co561 N571 2.128 . S
Co561 N581 2.194 . S
Co561 O586 2.351 . S
Co561 O587 2.155 . S
Co561 O588 2.096 . S
C562 N565 1.301 . S
C562 N566 1.328 . S
C562 H567 0.930 . S
C563 C564 1.333 . S
C563 N565 1.317 . S
C563 H568 0.930 . S
C564 C563 1.333 . S
C564 N566 1.350 . S
C564 H590 0.931 . S
N565 Co561 2.148 . S
N565 C562 1.301 . S
N565 C563 1.317 . S
N566 C562 1.328 . S
N566 C564 1.350 . S
H567 C562 0.930 . S
H568 C563 0.930 . S
C569 O570 1.224 . S
C569 O588 1.247 . S
O570 C569 1.224 . S
N571 Co561 2.128 . S
N571 C572 1.355 . S
N571 C574 1.311 . S
C572 N571 1.355 . S
C572 C573 1.363 . S
C572 H584 0.929 . S
C573 C572 1.363 . S
C573 N575 1.375 . S
C573 H591 0.931 . S
C574 N571 1.311 . S
C574 N575 1.347 . S
C574 H585 0.929 . S
N575 C573 1.375 . S
N575 C574 1.347 . S
C576 C579 1.365 . S
C576 N581 1.328 . S
C576 H582 0.929 . S
C577 C578 1.362 . S
C577 C580 1.378 . S
C577 H592 0.929 . S
C578 C577 1.362 . S
C578 C579 1.366 . S
C579 C576 1.365 . S
C579 C578 1.366 . S
C579 H593 0.930 . S
C580 C577 1.378 . S
C580 N581 1.315 . S
C580 H583 0.930 . S
N581 Co561 2.194 . S
N581 C576 1.328 . S
N581 C580 1.315 . S
H582 C576 0.929 . S
H583 C580 0.930 . S
H584 C572 0.929 . S
H585 C574 0.929 . S
O586 Co561 2.351 . S
O586 C589 1.244 . S
O587 Co561 2.155 . S
O587 C589 1.240 . S
O588 Co561 2.096 . S
O588 C569 1.247 . S
C589 O586 1.244 . S
C589 O587 1.240 . S
H590 C564 0.931 . S
H591 C573 0.931 . S
H592 C577 0.929 . S
H593 C579 0.930 . S
Co594 N598 2.148 . S
Co594 N604 2.128 . S
Co594 N614 2.194 . S
Co594 O619 2.351 . S
Co594 O620 2.155 . S
Co594 O621 2.096 . S
C595 N598 1.301 . S
C595 N599 1.328 . S
C595 H600 0.930 . S
C596 C597 1.333 . S
C596 N598 1.317 . S
C596 H601 0.930 . S
C597 C596 1.333 . S
C597 N599 1.350 . S
C597 H623 0.931 . S
N598 Co594 2.148 . S
N598 C595 1.301 . S
N598 C596 1.317 . S
N599 C595 1.328 . S
N599 C597 1.350 . S
H600 C595 0.930 . S
H601 C596 0.930 . S
C602 O603 1.224 . S
C602 O621 1.247 . S
O603 C602 1.224 . S
N604 Co594 2.128 . S
N604 C605 1.355 . S
N604 C607 1.311 . S
C605 N604 1.355 . S
C605 C606 1.363 . S
C605 H617 0.929 . S
C606 C605 1.363 . S
C606 N608 1.375 . S
C606 H624 0.931 . S
C607 N604 1.311 . S
C607 N608 1.347 . S
C607 H618 0.929 . S
N608 C606 1.375 . S
N608 C607 1.347 . S
C609 C612 1.365 . S
C609 N614 1.328 . S
C609 H615 0.929 . S
C610 C611 1.362 . S
C610 C613 1.378 . S
C610 H625 0.929 . S
C611 C610 1.362 . S
C611 C612 1.366 . S
C612 C609 1.365 . S
C612 C611 1.366 . S
C612 H626 0.930 . S
C613 C610 1.378 . S
C613 N614 1.315 . S
C613 H616 0.930 . S
N614 Co594 2.194 . S
N614 C609 1.328 . S
N614 C613 1.315 . S
H615 C609 0.929 . S
H616 C613 0.930 . S
H617 C605 0.929 . S
H618 C607 0.929 . S
O619 Co594 2.351 . S
O619 C622 1.244 . S
O620 Co594 2.155 . S
O620 C622 1.240 . S
O621 Co594 2.096 . S
O621 C602 1.247 . S
C622 O619 1.244 . S
C622 O620 1.240 . S
H623 C597 0.931 . S
H624 C606 0.931 . S
H625 C610 0.929 . S
H626 C612 0.930 . S
Co627 N631 2.148 . S
Co627 N637 2.128 . S
Co627 N647 2.194 . S
Co627 O652 2.351 . S
Co627 O653 2.155 . S
Co627 O654 2.096 . S
C628 N631 1.301 . S
C628 N632 1.328 . S
C628 H633 0.930 . S
C629 C630 1.333 . S
C629 N631 1.317 . S
C629 H634 0.930 . S
C630 C629 1.333 . S
C630 N632 1.350 . S
C630 H656 0.931 . S
N631 Co627 2.148 . S
N631 C628 1.301 . S
N631 C629 1.317 . S
N632 C628 1.328 . S
N632 C630 1.350 . S
H633 C628 0.930 . S
H634 C629 0.930 . S
C635 O636 1.224 . S
C635 O654 1.247 . S
O636 C635 1.224 . S
N637 Co627 2.128 . S
N637 C638 1.355 . S
N637 C640 1.311 . S
C638 N637 1.355 . S
C638 C639 1.363 . S
C638 H650 0.929 . S
C639 C638 1.363 . S
C639 N641 1.375 . S
C639 H657 0.931 . S
C640 N637 1.311 . S
C640 N641 1.347 . S
C640 H651 0.929 . S
N641 C639 1.375 . S
N641 C640 1.347 . S
C642 C645 1.365 . S
C642 N647 1.328 . S
C642 H648 0.929 . S
C643 C644 1.362 . S
C643 C646 1.378 . S
C643 H658 0.929 . S
C644 C643 1.362 . S
C644 C645 1.366 . S
C645 C642 1.365 . S
C645 C644 1.366 . S
C645 H659 0.930 . S
C646 C643 1.378 . S
C646 N647 1.315 . S
C646 H649 0.930 . S
N647 Co627 2.194 . S
N647 C642 1.328 . S
N647 C646 1.315 . S
H648 C642 0.929 . S
H649 C646 0.930 . S
H650 C638 0.929 . S
H651 C640 0.929 . S
O652 Co627 2.351 . S
O652 C655 1.244 . S
O653 Co627 2.155 . S
O653 C655 1.240 . S
O654 Co627 2.096 . S
O654 C635 1.247 . S
C655 O652 1.244 . S
C655 O653 1.240 . S
H656 C630 0.931 . S
H657 C639 0.931 . S
H658 C643 0.929 . S
H659 C645 0.930 . S
Co660 N664 2.148 . S
Co660 N670 2.128 . S
Co660 N680 2.194 . S
Co660 O685 2.351 . S
Co660 O686 2.155 . S
Co660 O687 2.096 . S
C661 N664 1.301 . S
C661 N665 1.328 . S
C661 H666 0.930 . S
C662 C663 1.333 . S
C662 N664 1.317 . S
C662 H667 0.930 . S
C663 C662 1.333 . S
C663 N665 1.350 . S
C663 H689 0.931 . S
N664 Co660 2.148 . S
N664 C661 1.301 . S
N664 C662 1.317 . S
N665 C661 1.328 . S
N665 C663 1.350 . S
H666 C661 0.930 . S
H667 C662 0.930 . S
C668 O669 1.224 . S
C668 O687 1.247 . S
O669 C668 1.224 . S
N670 Co660 2.128 . S
N670 C671 1.355 . S
N670 C673 1.311 . S
C671 N670 1.355 . S
C671 C672 1.363 . S
C671 H683 0.929 . S
C672 C671 1.363 . S
C672 N674 1.375 . S
C672 H690 0.931 . S
C673 N670 1.311 . S
C673 N674 1.347 . S
C673 H684 0.929 . S
N674 C672 1.375 . S
N674 C673 1.347 . S
C675 C678 1.365 . S
C675 N680 1.328 . S
C675 H681 0.929 . S
C676 C677 1.362 . S
C676 C679 1.378 . S
C676 H691 0.929 . S
C677 C676 1.362 . S
C677 C678 1.366 . S
C678 C675 1.365 . S
C678 C677 1.366 . S
C678 H692 0.930 . S
C679 C676 1.378 . S
C679 N680 1.315 . S
C679 H682 0.930 . S
N680 Co660 2.194 . S
N680 C675 1.328 . S
N680 C679 1.315 . S
H681 C675 0.929 . S
H682 C679 0.930 . S
H683 C671 0.929 . S
H684 C673 0.929 . S
O685 Co660 2.351 . S
O685 C688 1.244 . S
O686 Co660 2.155 . S
O686 C688 1.240 . S
O687 Co660 2.096 . S
O687 C668 1.247 . S
C688 O685 1.244 . S
C688 O686 1.240 . S
H689 C663 0.931 . S
H690 C672 0.931 . S
H691 C676 0.929 . S
H692 C678 0.930 . S
Co693 N697 2.148 . S
Co693 N703 2.128 . S
Co693 N713 2.194 . S
Co693 O718 2.351 . S
Co693 O719 2.155 . S
Co693 O720 2.096 . S
C694 N697 1.301 . S
C694 N698 1.328 . S
C694 H699 0.930 . S
C695 C696 1.333 . S
C695 N697 1.317 . S
C695 H700 0.930 . S
C696 C695 1.333 . S
C696 N698 1.350 . S
C696 H722 0.931 . S
N697 Co693 2.148 . S
N697 C694 1.301 . S
N697 C695 1.317 . S
N698 C694 1.328 . S
N698 C696 1.350 . S
H699 C694 0.930 . S
H700 C695 0.930 . S
C701 O702 1.224 . S
C701 O720 1.247 . S
O702 C701 1.224 . S
N703 Co693 2.128 . S
N703 C704 1.355 . S
N703 C706 1.311 . S
C704 N703 1.355 . S
C704 C705 1.363 . S
C704 H716 0.929 . S
C705 C704 1.363 . S
C705 N707 1.375 . S
C705 H723 0.931 . S
C706 N703 1.311 . S
C706 N707 1.347 . S
C706 H717 0.929 . S
N707 C705 1.375 . S
N707 C706 1.347 . S
C708 C711 1.365 . S
C708 N713 1.328 . S
C708 H714 0.929 . S
C709 C710 1.362 . S
C709 C712 1.378 . S
C709 H724 0.929 . S
C710 C709 1.362 . S
C710 C711 1.366 . S
C711 C708 1.365 . S
C711 C710 1.366 . S
C711 H725 0.930 . S
C712 C709 1.378 . S
C712 N713 1.315 . S
C712 H715 0.930 . S
N713 Co693 2.194 . S
N713 C708 1.328 . S
N713 C712 1.315 . S
H714 C708 0.929 . S
H715 C712 0.930 . S
H716 C704 0.929 . S
H717 C706 0.929 . S
O718 Co693 2.351 . S
O718 C721 1.244 . S
O719 Co693 2.155 . S
O719 C721 1.240 . S
O720 Co693 2.096 . S
O720 C701 1.247 . S
C721 O718 1.244 . S
C721 O719 1.240 . S
H722 C696 0.931 . S
H723 C705 0.931 . S
H724 C709 0.929 . S
H725 C711 0.930 . S
Co726 N730 2.148 . S
Co726 N736 2.128 . S
Co726 N746 2.194 . S
Co726 O751 2.351 . S
Co726 O752 2.155 . S
Co726 O753 2.096 . S
C727 N730 1.301 . S
C727 N731 1.328 . S
C727 H732 0.930 . S
C728 C729 1.333 . S
C728 N730 1.317 . S
C728 H733 0.930 . S
C729 C728 1.333 . S
C729 N731 1.350 . S
C729 H755 0.931 . S
N730 Co726 2.148 . S
N730 C727 1.301 . S
N730 C728 1.317 . S
N731 C727 1.328 . S
N731 C729 1.350 . S
H732 C727 0.930 . S
H733 C728 0.930 . S
C734 O735 1.224 . S
C734 O753 1.247 . S
O735 C734 1.224 . S
N736 Co726 2.128 . S
N736 C737 1.355 . S
N736 C739 1.311 . S
C737 N736 1.355 . S
C737 C738 1.363 . S
C737 H749 0.929 . S
C738 C737 1.363 . S
C738 N740 1.375 . S
C738 H756 0.931 . S
C739 N736 1.311 . S
C739 N740 1.347 . S
C739 H750 0.929 . S
N740 C738 1.375 . S
N740 C739 1.347 . S
C741 C744 1.365 . S
C741 N746 1.328 . S
C741 H747 0.929 . S
C742 C743 1.362 . S
C742 C745 1.378 . S
C742 H757 0.929 . S
C743 C742 1.362 . S
C743 C744 1.366 . S
C744 C741 1.365 . S
C744 C743 1.366 . S
C744 H758 0.930 . S
C745 C742 1.378 . S
C745 N746 1.315 . S
C745 H748 0.930 . S
N746 Co726 2.194 . S
N746 C741 1.328 . S
N746 C745 1.315 . S
H747 C741 0.929 . S
H748 C745 0.930 . S
H749 C737 0.929 . S
H750 C739 0.929 . S
O751 Co726 2.351 . S
O751 C754 1.244 . S
O752 Co726 2.155 . S
O752 C754 1.240 . S
O753 Co726 2.096 . S
O753 C734 1.247 . S
C754 O751 1.244 . S
C754 O752 1.240 . S
H755 C729 0.931 . S
H756 C738 0.931 . S
H757 C742 0.929 . S
H758 C744 0.930 . S
Co759 N763 2.148 . S
Co759 N769 2.128 . S
Co759 N779 2.194 . S
Co759 O784 2.351 . S
Co759 O785 2.155 . S
Co759 O786 2.096 . S
C760 N763 1.301 . S
C760 N764 1.328 . S
C760 H765 0.930 . S
C761 C762 1.333 . S
C761 N763 1.317 . S
C761 H766 0.930 . S
C762 C761 1.333 . S
C762 N764 1.350 . S
C762 H788 0.931 . S
N763 Co759 2.148 . S
N763 C760 1.301 . S
N763 C761 1.317 . S
N764 C760 1.328 . S
N764 C762 1.350 . S
H765 C760 0.930 . S
H766 C761 0.930 . S
C767 O768 1.224 . S
C767 O786 1.247 . S
O768 C767 1.224 . S
N769 Co759 2.128 . S
N769 C770 1.355 . S
N769 C772 1.311 . S
C770 N769 1.355 . S
C770 C771 1.363 . S
C770 H782 0.929 . S
C771 C770 1.363 . S
C771 N773 1.375 . S
C771 H789 0.931 . S
C772 N769 1.311 . S
C772 N773 1.347 . S
C772 H783 0.929 . S
N773 C771 1.375 . S
N773 C772 1.347 . S
C774 C777 1.365 . S
C774 N779 1.328 . S
C774 H780 0.929 . S
C775 C776 1.362 . S
C775 C778 1.378 . S
C775 H790 0.929 . S
C776 C775 1.362 . S
C776 C777 1.366 . S
C777 C774 1.365 . S
C777 C776 1.366 . S
C777 H791 0.930 . S
C778 C775 1.378 . S
C778 N779 1.315 . S
C778 H781 0.930 . S
N779 Co759 2.194 . S
N779 C774 1.328 . S
N779 C778 1.315 . S
H780 C774 0.929 . S
H781 C778 0.930 . S
H782 C770 0.929 . S
H783 C772 0.929 . S
O784 Co759 2.351 . S
O784 C787 1.244 . S
O785 Co759 2.155 . S
O785 C787 1.240 . S
O786 Co759 2.096 . S
O786 C767 1.247 . S
C787 O784 1.244 . S
C787 O785 1.240 . S
H788 C762 0.931 . S
H789 C771 0.931 . S
H790 C775 0.929 . S
H791 C777 0.930 . S
Co792 N796 2.148 . S
Co792 N802 2.128 . S
Co792 N812 2.194 . S
Co792 O817 2.351 . S
Co792 O818 2.155 . S
Co792 O819 2.096 . S
C793 N796 1.301 . S
C793 N797 1.328 . S
C793 H798 0.930 . S
C794 C795 1.333 . S
C794 N796 1.317 . S
C794 H799 0.930 . S
C795 C794 1.333 . S
C795 N797 1.350 . S
C795 H821 0.931 . S
N796 Co792 2.148 . S
N796 C793 1.301 . S
N796 C794 1.317 . S
N797 C793 1.328 . S
N797 C795 1.350 . S
H798 C793 0.930 . S
H799 C794 0.930 . S
C800 O801 1.224 . S
C800 O819 1.247 . S
O801 C800 1.224 . S
N802 Co792 2.128 . S
N802 C803 1.355 . S
N802 C805 1.311 . S
C803 N802 1.355 . S
C803 C804 1.363 . S
C803 H815 0.929 . S
C804 C803 1.363 . S
C804 N806 1.375 . S
C804 H822 0.931 . S
C805 N802 1.311 . S
C805 N806 1.347 . S
C805 H816 0.929 . S
N806 C804 1.375 . S
N806 C805 1.347 . S
C807 C810 1.365 . S
C807 N812 1.328 . S
C807 H813 0.929 . S
C808 C809 1.362 . S
C808 C811 1.378 . S
C808 H823 0.929 . S
C809 C808 1.362 . S
C809 C810 1.366 . S
C810 C807 1.365 . S
C810 C809 1.366 . S
C810 H824 0.930 . S
C811 C808 1.378 . S
C811 N812 1.315 . S
C811 H814 0.930 . S
N812 Co792 2.194 . S
N812 C807 1.328 . S
N812 C811 1.315 . S
H813 C807 0.929 . S
H814 C811 0.930 . S
H815 C803 0.929 . S
H816 C805 0.929 . S
O817 Co792 2.351 . S
O817 C820 1.244 . S
O818 Co792 2.155 . S
O818 C820 1.240 . S
O819 Co792 2.096 . S
O819 C800 1.247 . S
C820 O817 1.244 . S
C820 O818 1.240 . S
H821 C795 0.931 . S
H822 C804 0.931 . S
H823 C808 0.929 . S
H824 C810 0.930 . S
Co825 N829 2.148 . S
Co825 N835 2.128 . S
Co825 N845 2.194 . S
Co825 O850 2.351 . S
Co825 O851 2.155 . S
Co825 O852 2.096 . S
C826 N829 1.301 . S
C826 N830 1.328 . S
C826 H831 0.930 . S
C827 C828 1.333 . S
C827 N829 1.317 . S
C827 H832 0.930 . S
C828 C827 1.333 . S
C828 N830 1.350 . S
C828 H854 0.931 . S
N829 Co825 2.148 . S
N829 C826 1.301 . S
N829 C827 1.317 . S
N830 C826 1.328 . S
N830 C828 1.350 . S
H831 C826 0.930 . S
H832 C827 0.930 . S
C833 O834 1.224 . S
C833 O852 1.247 . S
O834 C833 1.224 . S
N835 Co825 2.128 . S
N835 C836 1.355 . S
N835 C838 1.311 . S
C836 N835 1.355 . S
C836 C837 1.363 . S
C836 H848 0.929 . S
C837 C836 1.363 . S
C837 N839 1.375 . S
C837 H855 0.931 . S
C838 N835 1.311 . S
C838 N839 1.347 . S
C838 H849 0.929 . S
N839 C837 1.375 . S
N839 C838 1.347 . S
C840 C843 1.365 . S
C840 N845 1.328 . S
C840 H846 0.929 . S
C841 C842 1.362 . S
C841 C844 1.378 . S
C841 H856 0.929 . S
C842 C841 1.362 . S
C842 C843 1.366 . S
C843 C840 1.365 . S
C843 C842 1.366 . S
C843 H857 0.930 . S
C844 C841 1.378 . S
C844 N845 1.315 . S
C844 H847 0.930 . S
N845 Co825 2.194 . S
N845 C840 1.328 . S
N845 C844 1.315 . S
H846 C840 0.929 . S
H847 C844 0.930 . S
H848 C836 0.929 . S
H849 C838 0.929 . S
O850 Co825 2.351 . S
O850 C853 1.244 . S
O851 Co825 2.155 . S
O851 C853 1.240 . S
O852 Co825 2.096 . S
O852 C833 1.247 . S
C853 O850 1.244 . S
C853 O851 1.240 . S
H854 C828 0.931 . S
H855 C837 0.931 . S
H856 C841 0.929 . S
H857 C843 0.930 . S
Co858 N862 2.148 . S
Co858 N868 2.128 . S
Co858 N878 2.194 . S
Co858 O883 2.351 . S
Co858 O884 2.155 . S
Co858 O885 2.096 . S
C859 N862 1.301 . S
C859 N863 1.328 . S
C859 H864 0.930 . S
C860 C861 1.333 . S
C860 N862 1.317 . S
C860 H865 0.930 . S
C861 C860 1.333 . S
C861 N863 1.350 . S
C861 H887 0.931 . S
N862 Co858 2.148 . S
N862 C859 1.301 . S
N862 C860 1.317 . S
N863 C859 1.328 . S
N863 C861 1.350 . S
H864 C859 0.930 . S
H865 C860 0.930 . S
C866 O867 1.224 . S
C866 O885 1.247 . S
O867 C866 1.224 . S
N868 Co858 2.128 . S
N868 C869 1.355 . S
N868 C871 1.311 . S
C869 N868 1.355 . S
C869 C870 1.363 . S
C869 H881 0.929 . S
C870 C869 1.363 . S
C870 N872 1.375 . S
C870 H888 0.931 . S
C871 N868 1.311 . S
C871 N872 1.347 . S
C871 H882 0.929 . S
N872 C870 1.375 . S
N872 C871 1.347 . S
C873 C876 1.365 . S
C873 N878 1.328 . S
C873 H879 0.929 . S
C874 C875 1.362 . S
C874 C877 1.378 . S
C874 H889 0.929 . S
C875 C874 1.362 . S
C875 C876 1.366 . S
C876 C873 1.365 . S
C876 C875 1.366 . S
C876 H890 0.930 . S
C877 C874 1.378 . S
C877 N878 1.315 . S
C877 H880 0.930 . S
N878 Co858 2.194 . S
N878 C873 1.328 . S
N878 C877 1.315 . S
H879 C873 0.929 . S
H880 C877 0.930 . S
H881 C869 0.929 . S
H882 C871 0.929 . S
O883 Co858 2.351 . S
O883 C886 1.244 . S
O884 Co858 2.155 . S
O884 C886 1.240 . S
O885 Co858 2.096 . S
O885 C866 1.247 . S
C886 O883 1.244 . S
C886 O884 1.240 . S
H887 C861 0.931 . S
H888 C870 0.931 . S
H889 C874 0.929 . S
H890 C876 0.930 . S
Co891 N895 2.148 . S
Co891 N901 2.128 . S
Co891 N911 2.194 . S
Co891 O916 2.351 . S
Co891 O917 2.155 . S
Co891 O918 2.096 . S
C892 N895 1.301 . S
C892 N896 1.328 . S
C892 H897 0.930 . S
C893 C894 1.333 . S
C893 N895 1.317 . S
C893 H898 0.930 . S
C894 C893 1.333 . S
C894 N896 1.350 . S
C894 H920 0.931 . S
N895 Co891 2.148 . S
N895 C892 1.301 . S
N895 C893 1.317 . S
N896 C892 1.328 . S
N896 C894 1.350 . S
H897 C892 0.930 . S
H898 C893 0.930 . S
C899 O900 1.224 . S
C899 O918 1.247 . S
O900 C899 1.224 . S
N901 Co891 2.128 . S
N901 C902 1.355 . S
N901 C904 1.311 . S
C902 N901 1.355 . S
C902 C903 1.363 . S
C902 H914 0.929 . S
C903 C902 1.363 . S
C903 N905 1.375 . S
C903 H921 0.931 . S
C904 N901 1.311 . S
C904 N905 1.347 . S
C904 H915 0.929 . S
N905 C903 1.375 . S
N905 C904 1.347 . S
C906 C909 1.365 . S
C906 N911 1.328 . S
C906 H912 0.929 . S
C907 C908 1.362 . S
C907 C910 1.378 . S
C907 H922 0.929 . S
C908 C907 1.362 . S
C908 C909 1.366 . S
C909 C906 1.365 . S
C909 C908 1.366 . S
C909 H923 0.930 . S
C910 C907 1.378 . S
C910 N911 1.315 . S
C910 H913 0.930 . S
N911 Co891 2.194 . S
N911 C906 1.328 . S
N911 C910 1.315 . S
H912 C906 0.929 . S
H913 C910 0.930 . S
H914 C902 0.929 . S
H915 C904 0.929 . S
O916 Co891 2.351 . S
O916 C919 1.244 . S
O917 Co891 2.155 . S
O917 C919 1.240 . S
O918 Co891 2.096 . S
O918 C899 1.247 . S
C919 O916 1.244 . S
C919 O917 1.240 . S
H920 C894 0.931 . S
H921 C903 0.931 . S
H922 C907 0.929 . S
H923 C909 0.930 . S
Co924 N928 2.148 . S
Co924 N934 2.128 . S
Co924 N944 2.194 . S
Co924 O949 2.351 . S
Co924 O950 2.155 . S
Co924 O951 2.096 . S
C925 N928 1.301 . S
C925 N929 1.328 . S
C925 H930 0.930 . S
C926 C927 1.333 . S
C926 N928 1.317 . S
C926 H931 0.930 . S
C927 C926 1.333 . S
C927 N929 1.350 . S
C927 H953 0.931 . S
N928 Co924 2.148 . S
N928 C925 1.301 . S
N928 C926 1.317 . S
N929 C925 1.328 . S
N929 C927 1.350 . S
H930 C925 0.930 . S
H931 C926 0.930 . S
C932 O933 1.224 . S
C932 O951 1.247 . S
O933 C932 1.224 . S
N934 Co924 2.128 . S
N934 C935 1.355 . S
N934 C937 1.311 . S
C935 N934 1.355 . S
C935 C936 1.363 . S
C935 H947 0.929 . S
C936 C935 1.363 . S
C936 N938 1.375 . S
C936 H954 0.931 . S
C937 N934 1.311 . S
C937 N938 1.347 . S
C937 H948 0.929 . S
N938 C936 1.375 . S
N938 C937 1.347 . S
C939 C942 1.365 . S
C939 N944 1.328 . S
C939 H945 0.929 . S
C940 C941 1.362 . S
C940 C943 1.378 . S
C940 H955 0.929 . S
C941 C940 1.362 . S
C941 C942 1.366 . S
C942 C939 1.365 . S
C942 C941 1.366 . S
C942 H956 0.930 . S
C943 C940 1.378 . S
C943 N944 1.315 . S
C943 H946 0.930 . S
N944 Co924 2.194 . S
N944 C939 1.328 . S
N944 C943 1.315 . S
H945 C939 0.929 . S
H946 C943 0.930 . S
H947 C935 0.929 . S
H948 C937 0.929 . S
O949 Co924 2.351 . S
O949 C952 1.244 . S
O950 Co924 2.155 . S
O950 C952 1.240 . S
O951 Co924 2.096 . S
O951 C932 1.247 . S
C952 O949 1.244 . S
C952 O950 1.240 . S
H953 C927 0.931 . S
H954 C936 0.931 . S
H955 C940 0.929 . S
H956 C942 0.930 . S
Co957 N961 2.148 . S
Co957 N967 2.128 . S
Co957 N977 2.194 . S
Co957 O982 2.351 . S
Co957 O983 2.155 . S
Co957 O984 2.096 . S
C958 N961 1.301 . S
C958 N962 1.328 . S
C958 H963 0.930 . S
C959 C960 1.333 . S
C959 N961 1.317 . S
C959 H964 0.930 . S
C960 C959 1.333 . S
C960 N962 1.350 . S
C960 H986 0.931 . S
N961 Co957 2.148 . S
N961 C958 1.301 . S
N961 C959 1.317 . S
N962 C958 1.328 . S
N962 C960 1.350 . S
H963 C958 0.930 . S
H964 C959 0.930 . S
C965 O966 1.224 . S
C965 O984 1.247 . S
O966 C965 1.224 . S
N967 Co957 2.128 . S
N967 C968 1.355 . S
N967 C970 1.311 . S
C968 N967 1.355 . S
C968 C969 1.363 . S
C968 H980 0.929 . S
C969 C968 1.363 . S
C969 N971 1.375 . S
C969 H987 0.931 . S
C970 N967 1.311 . S
C970 N971 1.347 . S
C970 H981 0.929 . S
N971 C969 1.375 . S
N971 C970 1.347 . S
C972 C975 1.365 . S
C972 N977 1.328 . S
C972 H978 0.929 . S
C973 C974 1.362 . S
C973 C976 1.378 . S
C973 H988 0.929 . S
C974 C973 1.362 . S
C974 C975 1.366 . S
C975 C972 1.365 . S
C975 C974 1.366 . S
C975 H989 0.930 . S
C976 C973 1.378 . S
C976 N977 1.315 . S
C976 H979 0.930 . S
N977 Co957 2.194 . S
N977 C972 1.328 . S
N977 C976 1.315 . S
H978 C972 0.929 . S
H979 C976 0.930 . S
H980 C968 0.929 . S
H981 C970 0.929 . S
O982 Co957 2.351 . S
O982 C985 1.244 . S
O983 Co957 2.155 . S
O983 C985 1.240 . S
O984 Co957 2.096 . S
O984 C965 1.247 . S
C985 O982 1.244 . S
C985 O983 1.240 . S
H986 C960 0.931 . S
H987 C969 0.931 . S
H988 C973 0.929 . S
H989 C975 0.930 . S
Co990 N994 2.148 . S
Co990 N1000 2.128 . S
Co990 N1010 2.194 . S
Co990 O1015 2.351 . S
Co990 O1016 2.155 . S
Co990 O1017 2.096 . S
C991 N994 1.301 . S
C991 N995 1.328 . S
C991 H996 0.930 . S
C992 C993 1.333 . S
C992 N994 1.317 . S
C992 H997 0.930 . S
C993 C992 1.333 . S
C993 N995 1.350 . S
C993 H1019 0.931 . S
N994 Co990 2.148 . S
N994 C991 1.301 . S
N994 C992 1.317 . S
N995 C991 1.328 . S
N995 C993 1.350 . S
H996 C991 0.930 . S
H997 C992 0.930 . S
C998 O999 1.224 . S
C998 O1017 1.247 . S
O999 C998 1.224 . S
N1000 Co990 2.128 . S
N1000 C1001 1.355 . S
N1000 C1003 1.311 . S
C1001 N1000 1.355 . S
C1001 C1002 1.363 . S
C1001 H1013 0.929 . S
C1002 C1001 1.363 . S
C1002 N1004 1.375 . S
C1002 H1020 0.931 . S
C1003 N1000 1.311 . S
C1003 N1004 1.347 . S
C1003 H1014 0.929 . S
N1004 C1002 1.375 . S
N1004 C1003 1.347 . S
C1005 C1008 1.365 . S
C1005 N1010 1.328 . S
C1005 H1011 0.929 . S
C1006 C1007 1.362 . S
C1006 C1009 1.378 . S
C1006 H1021 0.929 . S
C1007 C1006 1.362 . S
C1007 C1008 1.366 . S
C1008 C1005 1.365 . S
C1008 C1007 1.366 . S
C1008 H1022 0.930 . S
C1009 C1006 1.378 . S
C1009 N1010 1.315 . S
C1009 H1012 0.930 . S
N1010 Co990 2.194 . S
N1010 C1005 1.328 . S
N1010 C1009 1.315 . S
H1011 C1005 0.929 . S
H1012 C1009 0.930 . S
H1013 C1001 0.929 . S
H1014 C1003 0.929 . S
O1015 Co990 2.351 . S
O1015 C1018 1.244 . S
O1016 Co990 2.155 . S
O1016 C1018 1.240 . S
O1017 Co990 2.096 . S
O1017 C998 1.247 . S
C1018 O1015 1.244 . S
C1018 O1016 1.240 . S
H1019 C993 0.931 . S
H1020 C1002 0.931 . S
H1021 C1006 0.929 . S
H1022 C1008 0.930 . S
Co1023 N1027 2.148 . S
Co1023 N1033 2.128 . S
Co1023 N1043 2.194 . S
Co1023 O1048 2.351 . S
Co1023 O1049 2.155 . S
Co1023 O1050 2.096 . S
C1024 N1027 1.301 . S
C1024 N1028 1.328 . S
C1024 H1029 0.930 . S
C1025 C1026 1.333 . S
C1025 N1027 1.317 . S
C1025 H1030 0.930 . S
C1026 C1025 1.333 . S
C1026 N1028 1.350 . S
C1026 H1052 0.931 . S
N1027 Co1023 2.148 . S
N1027 C1024 1.301 . S
N1027 C1025 1.317 . S
N1028 C1024 1.328 . S
N1028 C1026 1.350 . S
H1029 C1024 0.930 . S
H1030 C1025 0.930 . S
C1031 O1032 1.224 . S
C1031 O1050 1.247 . S
O1032 C1031 1.224 . S
N1033 Co1023 2.128 . S
N1033 C1034 1.355 . S
N1033 C1036 1.311 . S
C1034 N1033 1.355 . S
C1034 C1035 1.363 . S
C1034 H1046 0.929 . S
C1035 C1034 1.363 . S
C1035 N1037 1.375 . S
C1035 H1053 0.931 . S
C1036 N1033 1.311 . S
C1036 N1037 1.347 . S
C1036 H1047 0.929 . S
N1037 C1035 1.375 . S
N1037 C1036 1.347 . S
C1038 C1041 1.365 . S
C1038 N1043 1.328 . S
C1038 H1044 0.929 . S
C1039 C1040 1.362 . S
C1039 C1042 1.378 . S
C1039 H1054 0.929 . S
C1040 C1039 1.362 . S
C1040 C1041 1.366 . S
C1041 C1038 1.365 . S
C1041 C1040 1.366 . S
C1041 H1055 0.930 . S
C1042 C1039 1.378 . S
C1042 N1043 1.315 . S
C1042 H1045 0.930 . S
N1043 Co1023 2.194 . S
N1043 C1038 1.328 . S
N1043 C1042 1.315 . S
H1044 C1038 0.929 . S
H1045 C1042 0.930 . S
H1046 C1034 0.929 . S
H1047 C1036 0.929 . S
O1048 Co1023 2.351 . S
O1048 C1051 1.244 . S
O1049 Co1023 2.155 . S
O1049 C1051 1.240 . S
O1050 Co1023 2.096 . S
O1050 C1031 1.247 . S
C1051 O1048 1.244 . S
C1051 O1049 1.240 . S
H1052 C1026 0.931 . S
H1053 C1035 0.931 . S
H1054 C1039 0.929 . S
H1055 C1041 0.930 . S
H1056 C1062 0.930 . S
H1057 C1066 0.930 . S
H1058 C1071 0.929 . S
H1059 C1069 0.929 . S
H1060 C1064 0.929 . S
H1061 C1070 0.929 . S
C1062 H1056 0.930 . S
C1062 C1063 1.367 . S
C1062 C1070 1.378 . S
C1063 C1062 1.367 . S
C1063 C1071 1.433 . S
C1064 H1060 0.929 . S
C1064 C1066 1.378 . S
C1064 C1068 1.350 . S
C1065 C1068 1.463 . S
C1065 C1070 1.350 . S
C1065 N1073 1.427 . S
C1066 H1057 0.930 . S
C1066 C1064 1.378 . S
C1066 C1067 1.367 . S
C1067 C1066 1.367 . S
C1067 C1069 1.433 . S
C1068 C1064 1.350 . S
C1068 C1065 1.463 . S
C1068 N1072 1.427 . S
C1069 H1059 0.929 . S
C1069 C1067 1.433 . S
C1069 N1072 1.384 . S
C1070 H1061 0.929 . S
C1070 C1062 1.378 . S
C1070 C1065 1.350 . S
C1071 H1058 0.929 . S
C1071 C1063 1.433 . S
C1071 N1073 1.384 . S
N1072 C1068 1.427 . S
N1072 C1069 1.384 . S
N1073 C1065 1.427 . S
N1073 C1071 1.384 . S
H1074 C1080 0.930 . S
H1075 C1084 0.930 . S
H1076 C1089 0.929 . S
H1077 C1087 0.929 . S
H1078 C1082 0.929 . S
H1079 C1088 0.929 . S
C1080 H1074 0.930 . S
C1080 C1081 1.367 . S
C1080 C1088 1.378 1_455 S
C1081 C1080 1.367 . S
C1081 C1089 1.433 . S
C1082 H1078 0.929 . S
C1082 C1084 1.378 . S
C1082 C1086 1.350 . S
C1083 C1086 1.463 . S
C1083 C1088 1.350 . S
C1083 N1091 1.427 . S
C1084 H1075 0.930 . S
C1084 C1082 1.378 . S
C1084 C1085 1.367 . S
C1085 C1084 1.367 . S
C1085 C1087 1.433 . S
C1086 C1082 1.350 . S
C1086 C1083 1.463 . S
C1086 N1090 1.427 . S
C1087 H1077 0.929 . S
C1087 C1085 1.433 . S
C1087 N1090 1.384 . S
C1088 H1079 0.929 . S
C1088 C1080 1.378 1_655 S
C1088 C1083 1.350 . S
C1089 H1076 0.929 . S
C1089 C1081 1.433 . S
C1089 N1091 1.384 1_455 S
N1090 C1086 1.427 . S
N1090 C1087 1.384 . S
N1091 C1083 1.427 . S
N1091 C1089 1.384 1_655 S
H1092 C1098 0.930 . S
H1093 C1102 0.930 . S
H1094 C1107 0.929 . S
H1095 C1105 0.929 . S
H1096 C1100 0.929 . S
H1097 C1106 0.929 . S
C1098 H1092 0.930 . S
C1098 C1099 1.367 . S
C1098 C1106 1.378 . S
C1099 C1098 1.367 . S
C1099 C1107 1.433 . S
C1100 H1096 0.929 . S
C1100 C1102 1.378 . S
C1100 C1104 1.350 . S
C1101 C1104 1.463 . S
C1101 C1106 1.350 . S
C1101 N1109 1.427 . S
C1102 H1093 0.930 . S
C1102 C1100 1.378 . S
C1102 C1103 1.367 . S
C1103 C1102 1.367 . S
C1103 C1105 1.433 . S
C1104 C1100 1.350 . S
C1104 C1101 1.463 . S
C1104 N1108 1.427 . S
C1105 H1095 0.929 . S
C1105 C1103 1.433 . S
C1105 N1108 1.384 . S
C1106 H1097 0.929 . S
C1106 C1098 1.378 . S
C1106 C1101 1.350 . S
C1107 H1094 0.929 . S
C1107 C1099 1.433 . S
C1107 N1109 1.384 . S
N1108 C1104 1.427 . S
N1108 C1105 1.384 . S
N1109 C1101 1.427 . S
N1109 C1107 1.384 . S
H1110 C1116 0.930 . S
H1111 C1120 0.930 . S
H1112 C1125 0.929 . S
H1113 C1123 0.929 . S
H1114 C1118 0.929 . S
H1115 C1124 0.929 . S
C1116 H1110 0.930 . S
C1116 C1117 1.367 . S
C1116 C1124 1.378 . S
C1117 C1116 1.367 . S
C1117 C1125 1.433 . S
C1118 H1114 0.929 . S
C1118 C1120 1.378 . S
C1118 C1122 1.350 . S
C1119 C1122 1.463 . S
C1119 C1124 1.350 . S
C1119 N1127 1.427 . S
C1120 H1111 0.930 . S
C1120 C1118 1.378 . S
C1120 C1121 1.367 . S
C1121 C1120 1.367 . S
C1121 C1123 1.433 . S
C1122 C1118 1.350 . S
C1122 C1119 1.463 . S
C1122 N1126 1.427 . S
C1123 H1113 0.929 . S
C1123 C1121 1.433 . S
C1123 N1126 1.384 . S
C1124 H1115 0.929 . S
C1124 C1116 1.378 . S
C1124 C1119 1.350 . S
C1125 H1112 0.929 . S
C1125 C1117 1.433 . S
C1125 N1127 1.384 . S
N1126 C1122 1.427 . S
N1126 C1123 1.384 . S
N1127 C1119 1.427 . S
N1127 C1125 1.384 . S
H1128 C1134 0.930 . S
H1129 C1138 0.930 . S
H1130 C1143 0.929 . S
H1131 C1141 0.929 . S
H1132 C1136 0.929 . S
H1133 C1142 0.929 . S
C1134 H1128 0.930 . S
C1134 C1135 1.367 . S
C1134 C1142 1.378 . S
C1135 C1134 1.367 . S
C1135 C1143 1.433 . S
C1136 H1132 0.929 . S
C1136 C1138 1.378 . S
C1136 C1140 1.350 . S
C1137 C1140 1.463 . S
C1137 C1142 1.350 . S
C1137 N1145 1.427 . S
C1138 H1129 0.930 . S
C1138 C1136 1.378 . S
C1138 C1139 1.367 . S
C1139 C1138 1.367 . S
C1139 C1141 1.433 . S
C1140 C1136 1.350 . S
C1140 C1137 1.463 . S
C1140 N1144 1.427 . S
C1141 H1131 0.929 . S
C1141 C1139 1.433 . S
C1141 N1144 1.384 . S
C1142 H1133 0.929 . S
C1142 C1134 1.378 . S
C1142 C1137 1.350 . S
C1143 H1130 0.929 . S
C1143 C1135 1.433 . S
C1143 N1145 1.384 . S
N1144 C1140 1.427 . S
N1144 C1141 1.384 . S
N1145 C1137 1.427 . S
N1145 C1143 1.384 . S
H1146 C1152 0.930 . S
H1147 C1156 0.930 . S
H1148 C1161 0.929 . S
H1149 C1159 0.929 . S
H1150 C1154 0.929 . S
H1151 C1160 0.929 . S
C1152 H1146 0.930 . S
C1152 C1153 1.367 . S
C1152 C1160 1.378 . S
C1153 C1152 1.367 . S
C1153 C1161 1.433 . S
C1154 H1150 0.929 . S
C1154 C1156 1.378 . S
C1154 C1158 1.350 . S
C1155 C1158 1.463 . S
C1155 C1160 1.350 . S
C1155 N1163 1.427 . S
C1156 H1147 0.930 . S
C1156 C1154 1.378 . S
C1156 C1157 1.367 . S
C1157 C1156 1.367 . S
C1157 C1159 1.433 . S
C1158 C1154 1.350 . S
C1158 C1155 1.463 . S
C1158 N1162 1.427 . S
C1159 H1149 0.929 . S
C1159 C1157 1.433 . S
C1159 N1162 1.384 . S
C1160 H1151 0.929 . S
C1160 C1152 1.378 . S
C1160 C1155 1.350 . S
C1161 H1148 0.929 . S
C1161 C1153 1.433 . S
C1161 N1163 1.384 . S
N1162 C1158 1.427 . S
N1162 C1159 1.384 . S
N1163 C1155 1.427 . S
N1163 C1161 1.384 . S
H1164 C1170 0.930 . S
H1165 C1174 0.930 . S
H1166 C1179 0.929 . S
H1167 C1177 0.929 . S
H1168 C1172 0.929 . S
H1169 C1178 0.929 . S
C1170 H1164 0.930 . S
C1170 C1171 1.367 . S
C1170 C1178 1.378 . S
C1171 C1170 1.367 . S
C1171 C1179 1.433 . S
C1172 H1168 0.929 . S
C1172 C1174 1.378 . S
C1172 C1176 1.350 . S
C1173 C1176 1.463 . S
C1173 C1178 1.350 . S
C1173 N1181 1.427 . S
C1174 H1165 0.930 . S
C1174 C1172 1.378 . S
C1174 C1175 1.367 . S
C1175 C1174 1.367 . S
C1175 C1177 1.433 . S
C1176 C1172 1.350 . S
C1176 C1173 1.463 . S
C1176 N1180 1.427 . S
C1177 H1167 0.929 . S
C1177 C1175 1.433 . S
C1177 N1180 1.384 . S
C1178 H1169 0.929 . S
C1178 C1170 1.378 . S
C1178 C1173 1.350 . S
C1179 H1166 0.929 . S
C1179 C1171 1.433 . S
C1179 N1181 1.384 . S
N1180 C1176 1.427 . S
N1180 C1177 1.384 . S
N1181 C1173 1.427 . S
N1181 C1179 1.384 . S
H1182 C1188 0.930 . S
H1183 C1192 0.930 . S
H1184 C1197 0.929 . S
H1185 C1195 0.929 . S
H1186 C1190 0.930 . S
H1187 C1196 0.929 . S
C1188 H1182 0.930 . S
C1188 C1189 1.367 . S
C1188 C1196 1.378 . S
C1189 C1188 1.367 . S
C1189 C1197 1.433 . S
C1190 H1186 0.930 . S
C1190 C1192 1.361 1_655 S
C1190 C1194 1.365 . S
C1191 C1194 1.463 . S
C1191 C1196 1.350 . S
C1191 N1199 1.427 . S
C1192 H1183 0.930 . S
C1192 C1190 1.361 1_455 S
C1192 C1193 1.367 . S
C1193 C1192 1.367 . S
C1193 C1195 1.433 . S
C1194 C1190 1.365 . S
C1194 C1191 1.463 . S
C1194 N1198 1.427 . S
C1195 H1185 0.929 . S
C1195 C1193 1.433 . S
C1195 N1198 1.384 1_455 S
C1196 H1187 0.929 . S
C1196 C1188 1.378 . S
C1196 C1191 1.350 . S
C1197 H1184 0.929 . S
C1197 C1189 1.433 . S
C1197 N1199 1.384 . S
N1198 C1194 1.427 . S
N1198 C1195 1.384 1_655 S
N1199 C1191 1.427 . S
N1199 C1197 1.384 . S
H1200 C1206 0.930 . S
H1201 C1210 0.930 . S
H1202 C1215 0.929 . S
H1203 C1213 0.929 . S
H1204 C1208 0.929 . S
H1205 C1214 0.929 . S
C1206 H1200 0.930 . S
C1206 C1207 1.367 . S
C1206 C1214 1.378 . S
C1207 C1206 1.367 . S
C1207 C1215 1.433 . S
C1208 H1204 0.929 . S
C1208 C1210 1.378 . S
C1208 C1212 1.350 . S
C1209 C1212 1.463 . S
C1209 C1214 1.350 . S
C1209 N1217 1.427 . S
C1210 H1201 0.930 . S
C1210 C1208 1.378 . S
C1210 C1211 1.367 . S
C1211 C1210 1.367 . S
C1211 C1213 1.433 . S
C1212 C1208 1.350 . S
C1212 C1209 1.463 . S
C1212 N1216 1.427 . S
C1213 H1203 0.929 . S
C1213 C1211 1.433 . S
C1213 N1216 1.384 . S
C1214 H1205 0.929 . S
C1214 C1206 1.378 . S
C1214 C1209 1.350 . S
C1215 H1202 0.929 . S
C1215 C1207 1.433 . S
C1215 N1217 1.384 . S
N1216 C1212 1.427 . S
N1216 C1213 1.384 . S
N1217 C1209 1.427 . S
N1217 C1215 1.384 . S
H1218 C1224 0.930 . S
H1219 C1228 0.930 . S
H1220 C1233 0.929 . S
H1221 C1231 0.929 . S
H1222 C1226 0.929 . S
H1223 C1232 0.929 . S
C1224 H1218 0.930 . S
C1224 C1225 1.367 . S
C1224 C1232 1.378 1_655 S
C1225 C1224 1.367 . S
C1225 C1233 1.433 . S
C1226 H1222 0.929 . S
C1226 C1228 1.378 . S
C1226 C1230 1.350 . S
C1227 C1230 1.463 . S
C1227 C1232 1.350 . S
C1227 N1235 1.427 . S
C1228 H1219 0.930 . S
C1228 C1226 1.378 . S
C1228 C1229 1.367 . S
C1229 C1228 1.367 . S
C1229 C1231 1.433 . S
C1230 C1226 1.350 . S
C1230 C1227 1.463 . S
C1230 N1234 1.427 . S
C1231 H1221 0.929 . S
C1231 C1229 1.433 . S
C1231 N1234 1.384 . S
C1232 H1223 0.929 . S
C1232 C1224 1.378 1_455 S
C1232 C1227 1.350 . S
C1233 H1220 0.929 . S
C1233 C1225 1.433 . S
C1233 N1235 1.384 1_655 S
N1234 C1230 1.427 . S
N1234 C1231 1.384 . S
N1235 C1227 1.427 . S
N1235 C1233 1.384 1_455 S
H1236 C1242 0.930 . S
H1237 C1246 0.930 . S
H1238 C1251 0.929 . S
H1239 C1249 0.929 . S
H1240 C1244 0.929 . S
H1241 C1250 0.929 . S
C1242 H1236 0.930 . S
C1242 C1243 1.367 . S
C1242 C1250 1.378 . S
C1243 C1242 1.367 . S
C1243 C1251 1.433 . S
C1244 H1240 0.929 . S
C1244 C1246 1.378 . S
C1244 C1248 1.350 . S
C1245 C1248 1.463 . S
C1245 C1250 1.350 . S
C1245 N1253 1.427 . S
C1246 H1237 0.930 . S
C1246 C1244 1.378 . S
C1246 C1247 1.367 . S
C1247 C1246 1.367 . S
C1247 C1249 1.433 . S
C1248 C1244 1.350 . S
C1248 C1245 1.463 . S
C1248 N1252 1.427 . S
C1249 H1239 0.929 . S
C1249 C1247 1.433 . S
C1249 N1252 1.384 . S
C1250 H1241 0.929 . S
C1250 C1242 1.378 . S
C1250 C1245 1.350 . S
C1251 H1238 0.929 . S
C1251 C1243 1.433 . S
C1251 N1253 1.384 . S
N1252 C1248 1.427 . S
N1252 C1249 1.384 . S
N1253 C1245 1.427 . S
N1253 C1251 1.384 . S
H1254 C1260 0.930 . S
H1255 C1264 0.930 . S
H1256 C1269 0.929 . S
H1257 C1267 0.929 . S
H1258 C1262 0.929 . S
H1259 C1268 0.929 . S
C1260 H1254 0.930 . S
C1260 C1261 1.367 . S
C1260 C1268 1.378 . S
C1261 C1260 1.367 . S
C1261 C1269 1.433 . S
C1262 H1258 0.929 . S
C1262 C1264 1.378 . S
C1262 C1266 1.350 . S
C1263 C1266 1.463 . S
C1263 C1268 1.350 . S
C1263 N1271 1.427 . S
C1264 H1255 0.930 . S
C1264 C1262 1.378 . S
C1264 C1265 1.367 . S
C1265 C1264 1.367 . S
C1265 C1267 1.433 . S
C1266 C1262 1.350 . S
C1266 C1263 1.463 . S
C1266 N1270 1.427 . S
C1267 H1257 0.929 . S
C1267 C1265 1.433 . S
C1267 N1270 1.384 . S
C1268 H1259 0.929 . S
C1268 C1260 1.378 . S
C1268 C1263 1.350 . S
C1269 H1256 0.929 . S
C1269 C1261 1.433 . S
C1269 N1271 1.384 . S
N1270 C1266 1.427 . S
N1270 C1267 1.384 . S
N1271 C1263 1.427 . S
N1271 C1269 1.384 . S
H1272 C1278 0.930 . S
H1273 C1282 0.930 . S
H1274 C1287 0.929 . S
H1275 C1285 0.929 . S
H1276 C1280 0.929 . S
H1277 C1286 0.929 . S
C1278 H1272 0.930 . S
C1278 C1279 1.367 . S
C1278 C1286 1.378 . S
C1279 C1278 1.367 . S
C1279 C1287 1.433 . S
C1280 H1276 0.929 . S
C1280 C1282 1.378 . S
C1280 C1284 1.350 . S
C1281 C1284 1.463 . S
C1281 C1286 1.350 . S
C1281 N1289 1.427 . S
C1282 H1273 0.930 . S
C1282 C1280 1.378 . S
C1282 C1283 1.367 . S
C1283 C1282 1.367 . S
C1283 C1285 1.433 . S
C1284 C1280 1.350 . S
C1284 C1281 1.463 . S
C1284 N1288 1.427 . S
C1285 H1275 0.929 . S
C1285 C1283 1.433 . S
C1285 N1288 1.384 . S
C1286 H1277 0.929 . S
C1286 C1278 1.378 . S
C1286 C1281 1.350 . S
C1287 H1274 0.929 . S
C1287 C1279 1.433 . S
C1287 N1289 1.384 . S
N1288 C1284 1.427 . S
N1288 C1285 1.384 . S
N1289 C1281 1.427 . S
N1289 C1287 1.384 . S
H1290 C1296 0.930 . S
H1291 C1300 0.930 . S
H1292 C1305 0.929 . S
H1293 C1303 0.929 . S
H1294 C1298 0.929 . S
H1295 C1304 0.929 . S
C1296 H1290 0.930 . S
C1296 C1297 1.367 . S
C1296 C1304 1.378 . S
C1297 C1296 1.367 . S
C1297 C1305 1.433 . S
C1298 H1294 0.929 . S
C1298 C1300 1.378 . S
C1298 C1302 1.350 . S
C1299 C1302 1.463 . S
C1299 C1304 1.350 . S
C1299 N1307 1.427 . S
C1300 H1291 0.930 . S
C1300 C1298 1.378 . S
C1300 C1301 1.367 . S
C1301 C1300 1.367 . S
C1301 C1303 1.433 . S
C1302 C1298 1.350 . S
C1302 C1299 1.463 . S
C1302 N1306 1.427 . S
C1303 H1293 0.929 . S
C1303 C1301 1.433 . S
C1303 N1306 1.384 . S
C1304 H1295 0.929 . S
C1304 C1296 1.378 . S
C1304 C1299 1.350 . S
C1305 H1292 0.929 . S
C1305 C1297 1.433 . S
C1305 N1307 1.384 . S
N1306 C1302 1.427 . S
N1306 C1303 1.384 . S
N1307 C1299 1.427 . S
N1307 C1305 1.384 . S
H1308 C1314 0.930 . S
H1309 C1318 0.930 . S
H1310 C1323 0.929 . S
H1311 C1321 0.929 . S
H1312 C1316 0.929 . S
H1313 C1322 0.929 . S
C1314 H1308 0.930 . S
C1314 C1315 1.367 . S
C1314 C1322 1.378 . S
C1315 C1314 1.367 . S
C1315 C1323 1.433 . S
C1316 H1312 0.929 . S
C1316 C1318 1.378 . S
C1316 C1320 1.350 . S
C1317 C1320 1.463 . S
C1317 C1322 1.350 . S
C1317 N1325 1.427 . S
C1318 H1309 0.930 . S
C1318 C1316 1.378 . S
C1318 C1319 1.367 . S
C1319 C1318 1.367 . S
C1319 C1321 1.433 . S
C1320 C1316 1.350 . S
C1320 C1317 1.463 . S
C1320 N1324 1.427 . S
C1321 H1311 0.929 . S
C1321 C1319 1.433 . S
C1321 N1324 1.384 . S
C1322 H1313 0.929 . S
C1322 C1314 1.378 . S
C1322 C1317 1.350 . S
C1323 H1310 0.929 . S
C1323 C1315 1.433 . S
C1323 N1325 1.384 . S
N1324 C1320 1.427 . S
N1324 C1321 1.384 . S
N1325 C1317 1.427 . S
N1325 C1323 1.384 . S
H1326 C1332 0.930 . S
H1327 C1336 0.930 . S
H1328 C1341 0.929 . S
H1329 C1339 0.929 . S
H1330 C1334 0.929 . S
H1331 C1340 0.929 . S
C1332 H1326 0.930 . S
C1332 C1333 1.367 . S
C1332 C1340 1.378 1_655 S
C1333 C1332 1.367 . S
C1333 C1341 1.433 . S
C1334 H1330 0.929 . S
C1334 C1336 1.378 . S
C1334 C1338 1.350 . S
C1335 C1338 1.463 . S
C1335 C1340 1.350 . S
C1335 N1343 1.427 . S
C1336 H1327 0.930 . S
C1336 C1334 1.378 . S
C1336 C1337 1.367 . S
C1337 C1336 1.367 . S
C1337 C1339 1.433 . S
C1338 C1334 1.350 . S
C1338 C1335 1.463 . S
C1338 N1342 1.427 . S
C1339 H1329 0.929 . S
C1339 C1337 1.433 . S
C1339 N1342 1.384 . S
C1340 H1331 0.929 . S
C1340 C1332 1.378 1_455 S
C1340 C1335 1.350 . S
C1341 H1328 0.929 . S
C1341 C1333 1.433 . S
C1341 N1343 1.384 1_655 S
N1342 C1338 1.427 . S
N1342 C1339 1.384 . S
N1343 C1335 1.427 . S
N1343 C1341 1.384 1_455 S
H1344 C1350 0.930 . S
H1345 C1354 0.930 . S
H1346 C1359 0.929 . S
H1347 C1357 0.929 . S
H1348 C1352 0.929 . S
H1349 C1358 0.929 . S
C1350 H1344 0.930 . S
C1350 C1351 1.367 . S
C1350 C1358 1.378 . S
C1351 C1350 1.367 . S
C1351 C1359 1.433 . S
C1352 H1348 0.929 . S
C1352 C1354 1.378 . S
C1352 C1356 1.350 . S
C1353 C1356 1.463 . S
C1353 C1358 1.350 . S
C1353 N1361 1.427 . S
C1354 H1345 0.930 . S
C1354 C1352 1.378 . S
C1354 C1355 1.367 . S
C1355 C1354 1.367 . S
C1355 C1357 1.433 . S
C1356 C1352 1.350 . S
C1356 C1353 1.463 . S
C1356 N1360 1.427 . S
C1357 H1347 0.929 . S
C1357 C1355 1.433 . S
C1357 N1360 1.384 . S
C1358 H1349 0.929 . S
C1358 C1350 1.378 . S
C1358 C1353 1.350 . S
C1359 H1346 0.929 . S
C1359 C1351 1.433 . S
C1359 N1361 1.384 . S
N1360 C1356 1.427 . S
N1360 C1357 1.384 . S
N1361 C1353 1.427 . S
N1361 C1359 1.384 . S
H1362 C1368 0.930 . S
H1363 C1372 0.930 . S
H1364 C1377 0.929 . S
H1365 C1375 0.929 . S
H1366 C1370 0.929 . S
H1367 C1376 0.929 . S
C1368 H1362 0.930 . S
C1368 C1369 1.367 . S
C1368 C1376 1.378 . S
C1369 C1368 1.367 . S
C1369 C1377 1.433 . S
C1370 H1366 0.929 . S
C1370 C1372 1.378 . S
C1370 C1374 1.350 . S
C1371 C1374 1.463 . S
C1371 C1376 1.350 . S
C1371 N1379 1.427 . S
C1372 H1363 0.930 . S
C1372 C1370 1.378 . S
C1372 C1373 1.367 . S
C1373 C1372 1.367 . S
C1373 C1375 1.433 . S
C1374 C1370 1.350 . S
C1374 C1371 1.463 . S
C1374 N1378 1.427 . S
C1375 H1365 0.929 . S
C1375 C1373 1.433 . S
C1375 N1378 1.384 . S
C1376 H1367 0.929 . S
C1376 C1368 1.378 . S
C1376 C1371 1.350 . S
C1377 H1364 0.929 . S
C1377 C1369 1.433 . S
C1377 N1379 1.384 . S
N1378 C1374 1.427 . S
N1378 C1375 1.384 . S
N1379 C1371 1.427 . S
N1379 C1377 1.384 . S
H1380 C1386 0.930 . S
H1381 C1390 0.930 . S
H1382 C1395 0.929 . S
H1383 C1393 0.929 . S
H1384 C1388 0.929 . S
H1385 C1394 0.929 . S
C1386 H1380 0.930 . S
C1386 C1387 1.367 . S
C1386 C1394 1.378 . S
C1387 C1386 1.367 . S
C1387 C1395 1.433 . S
C1388 H1384 0.929 . S
C1388 C1390 1.378 . S
C1388 C1392 1.350 . S
C1389 C1392 1.463 . S
C1389 C1394 1.350 . S
C1389 N1397 1.427 . S
C1390 H1381 0.930 . S
C1390 C1388 1.378 . S
C1390 C1391 1.367 . S
C1391 C1390 1.367 . S
C1391 C1393 1.433 . S
C1392 C1388 1.350 . S
C1392 C1389 1.463 . S
C1392 N1396 1.427 . S
C1393 H1383 0.929 . S
C1393 C1391 1.433 . S
C1393 N1396 1.384 . S
C1394 H1385 0.929 . S
C1394 C1386 1.378 . S
C1394 C1389 1.350 . S
C1395 H1382 0.929 . S
C1395 C1387 1.433 . S
C1395 N1397 1.384 . S
N1396 C1392 1.427 . S
N1396 C1393 1.384 . S
N1397 C1389 1.427 . S
N1397 C1395 1.384 . S
H1398 C1404 0.930 . S
H1399 C1408 0.930 . S
H1400 C1413 0.929 . S
H1401 C1411 0.929 . S
H1402 C1406 0.929 . S
H1403 C1412 0.929 . S
C1404 H1398 0.930 . S
C1404 C1405 1.367 . S
C1404 C1412 1.378 1_655 S
C1405 C1404 1.367 . S
C1405 C1413 1.433 . S
C1406 H1402 0.929 . S
C1406 C1408 1.378 . S
C1406 C1410 1.350 . S
C1407 C1410 1.463 . S
C1407 C1412 1.350 . S
C1407 N1415 1.427 . S
C1408 H1399 0.930 . S
C1408 C1406 1.378 . S
C1408 C1409 1.367 . S
C1409 C1408 1.367 . S
C1409 C1411 1.433 . S
C1410 C1406 1.350 . S
C1410 C1407 1.463 . S
C1410 N1414 1.427 . S
C1411 H1401 0.929 . S
C1411 C1409 1.433 . S
C1411 N1414 1.384 . S
C1412 H1403 0.929 . S
C1412 C1404 1.378 1_455 S
C1412 C1407 1.350 . S
C1413 H1400 0.929 . S
C1413 C1405 1.433 . S
C1413 N1415 1.384 1_655 S
N1414 C1410 1.427 . S
N1414 C1411 1.384 . S
N1415 C1407 1.427 . S
N1415 C1413 1.384 1_455 S
H1416 C1422 0.930 . S
H1417 C1426 0.930 . S
H1418 C1431 0.929 . S
H1419 C1429 0.929 . S
H1420 C1424 0.929 . S
H1421 C1430 0.929 . S
C1422 H1416 0.930 . S
C1422 C1423 1.367 . S
C1422 C1430 1.378 . S
C1423 C1422 1.367 . S
C1423 C1431 1.433 . S
C1424 H1420 0.929 . S
C1424 C1426 1.378 . S
C1424 C1428 1.350 . S
C1425 C1428 1.463 . S
C1425 C1430 1.350 . S
C1425 N1433 1.427 . S
C1426 H1417 0.930 . S
C1426 C1424 1.378 . S
C1426 C1427 1.367 . S
C1427 C1426 1.367 . S
C1427 C1429 1.433 . S
C1428 C1424 1.350 . S
C1428 C1425 1.463 . S
C1428 N1432 1.427 . S
C1429 H1419 0.929 . S
C1429 C1427 1.433 . S
C1429 N1432 1.384 . S
C1430 H1421 0.929 . S
C1430 C1422 1.378 . S
C1430 C1425 1.350 . S
C1431 H1418 0.929 . S
C1431 C1423 1.433 . S
C1431 N1433 1.384 . S
N1432 C1428 1.427 . S
N1432 C1429 1.384 . S
N1433 C1425 1.427 . S
N1433 C1431 1.384 . S
H1434 C1440 0.930 . S
H1435 C1444 0.930 . S
H1436 C1449 0.929 . S
H1437 C1447 0.929 . S
H1438 C1442 0.929 . S
H1439 C1448 0.929 . S
C1440 H1434 0.930 . S
C1440 C1441 1.367 . S
C1440 C1448 1.378 . S
C1441 C1440 1.367 . S
C1441 C1449 1.433 . S
C1442 H1438 0.929 . S
C1442 C1444 1.378 1_455 S
C1442 C1446 1.350 . S
C1443 C1446 1.463 . S
C1443 C1448 1.350 . S
C1443 N1451 1.427 . S
C1444 H1435 0.930 . S
C1444 C1442 1.378 1_655 S
C1444 C1445 1.367 . S
C1445 C1444 1.367 . S
C1445 C1447 1.433 . S
C1446 C1442 1.350 . S
C1446 C1443 1.463 . S
C1446 N1450 1.427 . S
C1447 H1437 0.929 . S
C1447 C1445 1.433 . S
C1447 N1450 1.384 1_655 S
C1448 H1439 0.929 . S
C1448 C1440 1.378 . S
C1448 C1443 1.350 . S
C1449 H1436 0.929 . S
C1449 C1441 1.433 . S
C1449 N1451 1.384 . S
N1450 C1446 1.427 . S
N1450 C1447 1.384 1_455 S
N1451 C1443 1.427 . S
N1451 C1449 1.384 . S
H1452 C1458 0.930 . S
H1453 C1462 0.930 . S
H1454 C1467 0.929 . S
H1455 C1465 0.929 . S
H1456 C1460 0.929 . S
H1457 C1466 0.929 . S
C1458 H1452 0.930 . S
C1458 C1459 1.367 . S
C1458 C1466 1.378 . S
C1459 C1458 1.367 . S
C1459 C1467 1.433 . S
C1460 H1456 0.929 . S
C1460 C1462 1.378 . S
C1460 C1464 1.350 . S
C1461 C1464 1.463 . S
C1461 C1466 1.350 . S
C1461 N1469 1.427 . S
C1462 H1453 0.930 . S
C1462 C1460 1.378 . S
C1462 C1463 1.367 . S
C1463 C1462 1.367 . S
C1463 C1465 1.433 . S
C1464 C1460 1.350 . S
C1464 C1461 1.463 . S
C1464 N1468 1.427 . S
C1465 H1455 0.929 . S
C1465 C1463 1.433 . S
C1465 N1468 1.384 . S
C1466 H1457 0.929 . S
C1466 C1458 1.378 . S
C1466 C1461 1.350 . S
C1467 H1454 0.929 . S
C1467 C1459 1.433 . S
C1467 N1469 1.384 . S
N1468 C1464 1.427 . S
N1468 C1465 1.384 . S
N1469 C1461 1.427 . S
N1469 C1467 1.384 . S
H1470 C1476 0.930 . S
H1471 C1480 0.930 . S
H1472 C1485 0.929 . S
H1473 C1483 0.929 . S
H1474 C1478 0.929 . S
H1475 C1484 0.929 . S
C1476 H1470 0.930 . S
C1476 C1477 1.367 . S
C1476 C1484 1.378 . S
C1477 C1476 1.367 . S
C1477 C1485 1.433 . S
C1478 H1474 0.929 . S
C1478 C1480 1.378 . S
C1478 C1482 1.350 . S
C1479 C1482 1.463 . S
C1479 C1484 1.350 . S
C1479 N1487 1.427 . S
C1480 H1471 0.930 . S
C1480 C1478 1.378 . S
C1480 C1481 1.367 . S
C1481 C1480 1.367 . S
C1481 C1483 1.433 . S
C1482 C1478 1.350 . S
C1482 C1479 1.463 . S
C1482 N1486 1.427 . S
C1483 H1473 0.929 . S
C1483 C1481 1.433 . S
C1483 N1486 1.384 . S
C1484 H1475 0.929 . S
C1484 C1476 1.378 . S
C1484 C1479 1.350 . S
C1485 H1472 0.929 . S
C1485 C1477 1.433 . S
C1485 N1487 1.384 . S
N1486 C1482 1.427 . S
N1486 C1483 1.384 . S
N1487 C1479 1.427 . S
N1487 C1485 1.384 . S
H1488 C1494 0.930 . S
H1489 C1498 0.930 . S
H1490 C1503 0.929 . S
H1491 C1501 0.929 . S
H1492 C1496 0.929 . S
H1493 C1502 0.929 . S
C1494 H1488 0.930 . S
C1494 C1495 1.367 . S
C1494 C1502 1.378 . S
C1495 C1494 1.367 . S
C1495 C1503 1.433 . S
C1496 H1492 0.929 . S
C1496 C1498 1.378 . S
C1496 C1500 1.350 . S
C1497 C1500 1.463 . S
C1497 C1502 1.350 . S
C1497 N1505 1.427 . S
C1498 H1489 0.930 . S
C1498 C1496 1.378 . S
C1498 C1499 1.367 . S
C1499 C1498 1.367 . S
C1499 C1501 1.433 . S
C1500 C1496 1.350 . S
C1500 C1497 1.463 . S
C1500 N1504 1.427 . S
C1501 H1491 0.929 . S
C1501 C1499 1.433 . S
C1501 N1504 1.384 . S
C1502 H1493 0.929 . S
C1502 C1494 1.378 . S
C1502 C1497 1.350 . S
C1503 H1490 0.929 . S
C1503 C1495 1.433 . S
C1503 N1505 1.384 . S
N1504 C1500 1.427 . S
N1504 C1501 1.384 . S
N1505 C1497 1.427 . S
N1505 C1503 1.384 . S
H1506 C1512 0.930 . S
H1507 C1516 0.930 . S
H1508 C1521 0.929 . S
H1509 C1519 0.929 . S
H1510 C1514 0.929 . S
H1511 C1520 0.929 . S
C1512 H1506 0.930 . S
C1512 C1513 1.367 . S
C1512 C1520 1.378 . S
C1513 C1512 1.367 . S
C1513 C1521 1.433 . S
C1514 H1510 0.929 . S
C1514 C1516 1.378 . S
C1514 C1518 1.350 . S
C1515 C1518 1.463 . S
C1515 C1520 1.350 . S
C1515 N1523 1.427 . S
C1516 H1507 0.930 . S
C1516 C1514 1.378 . S
C1516 C1517 1.367 . S
C1517 C1516 1.367 . S
C1517 C1519 1.433 . S
C1518 C1514 1.350 . S
C1518 C1515 1.463 . S
C1518 N1522 1.427 . S
C1519 H1509 0.929 . S
C1519 C1517 1.433 . S
C1519 N1522 1.384 . S
C1520 H1511 0.929 . S
C1520 C1512 1.378 . S
C1520 C1515 1.350 . S
C1521 H1508 0.929 . S
C1521 C1513 1.433 . S
C1521 N1523 1.384 . S
N1522 C1518 1.427 . S
N1522 C1519 1.384 . S
N1523 C1515 1.427 . S
N1523 C1521 1.384 . S
H1524 C1530 0.930 . S
H1525 C1534 0.930 . S
H1526 C1539 0.929 . S
H1527 C1537 0.929 . S
H1528 C1532 0.929 . S
H1529 C1538 0.929 . S
C1530 H1524 0.930 . S
C1530 C1531 1.367 . S
C1530 C1538 1.378 . S
C1531 C1530 1.367 . S
C1531 C1539 1.433 . S
C1532 H1528 0.929 . S
C1532 C1534 1.378 . S
C1532 C1536 1.350 . S
C1533 C1536 1.463 . S
C1533 C1538 1.350 . S
C1533 N1541 1.427 . S
C1534 H1525 0.930 . S
C1534 C1532 1.378 . S
C1534 C1535 1.367 . S
C1535 C1534 1.367 . S
C1535 C1537 1.433 . S
C1536 C1532 1.350 . S
C1536 C1533 1.463 . S
C1536 N1540 1.427 . S
C1537 H1527 0.929 . S
C1537 C1535 1.433 . S
C1537 N1540 1.384 . S
C1538 H1529 0.929 . S
C1538 C1530 1.378 . S
C1538 C1533 1.350 . S
C1539 H1526 0.929 . S
C1539 C1531 1.433 . S
C1539 N1541 1.384 . S
N1540 C1536 1.427 . S
N1540 C1537 1.384 . S
N1541 C1533 1.427 . S
N1541 C1539 1.384 . S
H1542 C1548 0.930 . S
H1543 C1552 0.930 . S
H1544 C1557 0.929 . S
H1545 C1555 0.929 . S
H1546 C1550 0.929 . S
H1547 C1556 0.929 . S
C1548 H1542 0.930 . S
C1548 C1549 1.367 . S
C1548 C1556 1.378 . S
C1549 C1548 1.367 . S
C1549 C1557 1.433 . S
C1550 H1546 0.929 . S
C1550 C1552 1.378 1_655 S
C1550 C1554 1.350 . S
C1551 C1554 1.463 . S
C1551 C1556 1.350 . S
C1551 N1559 1.427 . S
C1552 H1543 0.930 . S
C1552 C1550 1.378 1_455 S
C1552 C1553 1.367 . S
C1553 C1552 1.367 . S
C1553 C1555 1.433 . S
C1554 C1550 1.350 . S
C1554 C1551 1.463 . S
C1554 N1558 1.427 . S
C1555 H1545 0.929 . S
C1555 C1553 1.433 . S
C1555 N1558 1.384 1_455 S
C1556 H1547 0.929 . S
C1556 C1548 1.378 . S
C1556 C1551 1.350 . S
C1557 H1544 0.929 . S
C1557 C1549 1.433 . S
C1557 N1559 1.384 . S
N1558 C1554 1.427 . S
N1558 C1555 1.384 1_655 S
N1559 C1551 1.427 . S
N1559 C1557 1.384 . S
H1560 C1566 0.930 . S
H1561 C1570 0.930 . S
H1562 C1575 0.929 . S
H1563 C1573 0.929 . S
H1564 C1568 0.929 . S
H1565 C1574 0.929 . S
C1566 H1560 0.930 . S
C1566 C1567 1.367 . S
C1566 C1574 1.378 . S
C1567 C1566 1.367 . S
C1567 C1575 1.433 . S
C1568 H1564 0.929 . S
C1568 C1570 1.378 . S
C1568 C1572 1.350 . S
C1569 C1572 1.463 . S
C1569 C1574 1.350 . S
C1569 N1577 1.427 . S
C1570 H1561 0.930 . S
C1570 C1568 1.378 . S
C1570 C1571 1.367 . S
C1571 C1570 1.367 . S
C1571 C1573 1.433 . S
C1572 C1568 1.350 . S
C1572 C1569 1.463 . S
C1572 N1576 1.427 . S
C1573 H1563 0.929 . S
C1573 C1571 1.433 . S
C1573 N1576 1.384 . S
C1574 H1565 0.929 . S
C1574 C1566 1.378 . S
C1574 C1569 1.350 . S
C1575 H1562 0.929 . S
C1575 C1567 1.433 . S
C1575 N1577 1.384 . S
N1576 C1572 1.427 . S
N1576 C1573 1.384 . S
N1577 C1569 1.427 . S
N1577 C1575 1.384 . S
H1578 C1584 0.930 . S
H1579 C1588 0.930 . S
H1580 C1593 0.929 . S
H1581 C1591 0.929 . S
H1582 C1586 0.929 . S
H1583 C1592 0.929 . S
C1584 H1578 0.930 . S
C1584 C1585 1.367 . S
C1584 C1592 1.378 . S
C1585 C1584 1.367 . S
C1585 C1593 1.433 . S
C1586 H1582 0.929 . S
C1586 C1588 1.378 1_655 S
C1586 C1590 1.350 . S
C1587 C1590 1.463 . S
C1587 C1592 1.350 . S
C1587 N1595 1.427 . S
C1588 H1579 0.930 . S
C1588 C1586 1.378 1_455 S
C1588 C1589 1.367 . S
C1589 C1588 1.367 . S
C1589 C1591 1.433 . S
C1590 C1586 1.350 . S
C1590 C1587 1.463 . S
C1590 N1594 1.427 . S
C1591 H1581 0.929 . S
C1591 C1589 1.433 . S
C1591 N1594 1.384 1_455 S
C1592 H1583 0.929 . S
C1592 C1584 1.378 . S
C1592 C1587 1.350 . S
C1593 H1580 0.929 . S
C1593 C1585 1.433 . S
C1593 N1595 1.384 . S
N1594 C1590 1.427 . S
N1594 C1591 1.384 1_655 S
N1595 C1587 1.427 . S
N1595 C1593 1.384 . S
H1596 C1602 0.930 . S
H1597 C1606 0.930 . S
H1598 C1611 0.929 . S
H1599 C1609 0.929 . S
H1600 C1604 0.929 . S
H1601 C1610 0.929 . S
C1602 H1596 0.930 . S
C1602 C1603 1.367 . S
C1602 C1610 1.378 . S
C1603 C1602 1.367 . S
C1603 C1611 1.433 . S
C1604 H1600 0.929 . S
C1604 C1606 1.378 . S
C1604 C1608 1.350 . S
C1605 C1608 1.463 . S
C1605 C1610 1.350 . S
C1605 N1613 1.427 . S
C1606 H1597 0.930 . S
C1606 C1604 1.378 . S
C1606 C1607 1.367 . S
C1607 C1606 1.367 . S
C1607 C1609 1.433 . S
C1608 C1604 1.350 . S
C1608 C1605 1.463 . S
C1608 N1612 1.427 . S
C1609 H1599 0.929 . S
C1609 C1607 1.433 . S
C1609 N1612 1.384 . S
C1610 H1601 0.929 . S
C1610 C1602 1.378 . S
C1610 C1605 1.350 . S
C1611 H1598 0.929 . S
C1611 C1603 1.433 . S
C1611 N1613 1.384 . S
N1612 C1608 1.427 . S
N1612 C1609 1.384 . S
N1613 C1605 1.427 . S
N1613 C1611 1.384 . S
H1614 C1620 0.930 . S
H1615 C1624 0.930 . S
H1616 C1629 0.929 . S
H1617 C1627 0.929 . S
H1618 C1622 0.929 . S
H1619 C1628 0.929 . S
C1620 H1614 0.930 . S
C1620 C1621 1.367 . S
C1620 C1628 1.378 . S
C1621 C1620 1.367 . S
C1621 C1629 1.433 . S
C1622 H1618 0.929 . S
C1622 C1624 1.378 . S
C1622 C1626 1.350 . S
C1623 C1626 1.463 . S
C1623 C1628 1.350 . S
C1623 N1631 1.427 . S
C1624 H1615 0.930 . S
C1624 C1622 1.378 . S
C1624 C1625 1.367 . S
C1625 C1624 1.367 . S
C1625 C1627 1.433 . S
C1626 C1622 1.350 . S
C1626 C1623 1.463 . S
C1626 N1630 1.427 . S
C1627 H1617 0.929 . S
C1627 C1625 1.433 . S
C1627 N1630 1.384 . S
C1628 H1619 0.929 . S
C1628 C1620 1.378 . S
C1628 C1623 1.350 . S
C1629 H1616 0.929 . S
C1629 C1621 1.433 . S
C1629 N1631 1.384 . S
N1630 C1626 1.427 . S
N1630 C1627 1.384 . S
N1631 C1623 1.427 . S
N1631 C1629 1.384 . S
H1632 C1638 0.930 . S
H1633 C1642 0.930 . S
H1634 C1647 0.929 . S
H1635 C1645 0.929 . S
H1636 C1640 0.929 . S
H1637 C1646 0.929 . S
C1638 H1632 0.930 . S
C1638 C1639 1.367 . S
C1638 C1646 1.378 1_545 S
C1639 C1638 1.367 . S
C1639 C1647 1.433 . S
C1640 H1636 0.929 . S
C1640 C1642 1.378 1_545 S
C1640 C1644 1.350 1_545 S
C1641 C1644 1.463 1_545 S
C1641 C1646 1.350 1_545 S
C1641 N1649 1.427 . S
C1642 H1633 0.930 . S
C1642 C1640 1.378 1_565 S
C1642 C1643 1.367 . S
C1643 C1642 1.367 . S
C1643 C1645 1.433 . S
C1644 C1640 1.350 1_565 S
C1644 C1641 1.463 1_565 S
C1644 N1648 1.427 . S
C1645 H1635 0.929 . S
C1645 C1643 1.433 . S
C1645 N1648 1.384 . S
C1646 H1637 0.929 . S
C1646 C1638 1.378 1_565 S
C1646 C1641 1.350 1_565 S
C1647 H1634 0.929 . S
C1647 C1639 1.433 . S
C1647 N1649 1.384 . S
N1648 C1644 1.427 . S
N1648 C1645 1.384 . S
N1649 C1641 1.427 . S
N1649 C1647 1.384 . S
H1650 C1656 0.930 . S
H1651 C1660 0.930 . S
H1652 C1665 0.929 . S
H1653 C1663 0.929 . S
H1654 C1658 0.929 . S
H1655 C1664 0.929 . S
C1656 H1650 0.930 . S
C1656 C1657 1.367 . S
C1656 C1664 1.378 . S
C1657 C1656 1.367 . S
C1657 C1665 1.433 . S
C1658 H1654 0.929 . S
C1658 C1660 1.378 . S
C1658 C1662 1.350 . S
C1659 C1662 1.463 . S
C1659 C1664 1.350 . S
C1659 N1667 1.427 . S
C1660 H1651 0.930 . S
C1660 C1658 1.378 . S
C1660 C1661 1.367 . S
C1661 C1660 1.367 . S
C1661 C1663 1.433 . S
C1662 C1658 1.350 . S
C1662 C1659 1.463 . S
C1662 N1666 1.427 . S
C1663 H1653 0.929 . S
C1663 C1661 1.433 . S
C1663 N1666 1.384 . S
C1664 H1655 0.929 . S
C1664 C1656 1.378 . S
C1664 C1659 1.350 . S
C1665 H1652 0.929 . S
C1665 C1657 1.433 . S
C1665 N1667 1.384 . S
N1666 C1662 1.427 . S
N1666 C1663 1.384 . S
N1667 C1659 1.427 . S
N1667 C1665 1.384 . S
H1668 C1674 0.930 . S
H1669 C1678 0.930 . S
H1670 C1683 0.929 . S
H1671 C1681 0.929 . S
H1672 C1676 0.929 1_545 S
H1673 C1682 0.929 1_565 S
C1674 H1668 0.930 . S
C1674 C1675 1.367 . S
C1674 C1682 1.378 . S
C1675 C1674 1.367 . S
C1675 C1683 1.433 . S
C1676 H1672 0.929 1_565 S
C1676 C1678 1.378 . S
C1676 C1680 1.350 . S
C1677 C1680 1.463 1_545 S
C1677 C1682 1.350 . S
C1677 N1685 1.427 . S
C1678 H1669 0.930 . S
C1678 C1676 1.378 . S
C1678 C1679 1.367 . S
C1679 C1678 1.367 . S
C1679 C1681 1.433 . S
C1680 C1676 1.350 . S
C1680 C1677 1.463 1_565 S
C1680 N1684 1.427 . S
C1681 H1671 0.929 . S
C1681 C1679 1.433 . S
C1681 N1684 1.384 . S
C1682 H1673 0.929 1_545 S
C1682 C1674 1.378 . S
C1682 C1677 1.350 . S
C1683 H1670 0.929 . S
C1683 C1675 1.433 . S
C1683 N1685 1.384 . S
N1684 C1680 1.427 . S
N1684 C1681 1.384 . S
N1685 C1677 1.427 . S
N1685 C1683 1.384 . S
H1686 C1692 0.930 . S
H1687 C1696 0.930 . S
H1688 C1701 0.929 . S
H1689 C1699 0.929 . S
H1690 C1694 0.929 . S
H1691 C1700 0.929 . S
C1692 H1686 0.930 . S
C1692 C1693 1.367 . S
C1692 C1700 1.378 . S
C1693 C1692 1.367 . S
C1693 C1701 1.433 . S
C1694 H1690 0.929 . S
C1694 C1696 1.378 . S
C1694 C1698 1.350 . S
C1695 C1698 1.463 1_554 S
C1695 C1700 1.350 . S
C1695 N1703 1.427 . S
C1696 H1687 0.930 . S
C1696 C1694 1.378 . S
C1696 C1697 1.367 . S
C1697 C1696 1.367 . S
C1697 C1699 1.433 . S
C1698 C1694 1.350 . S
C1698 C1695 1.463 1_556 S
C1698 N1702 1.427 . S
C1699 H1689 0.929 . S
C1699 C1697 1.433 . S
C1699 N1702 1.384 . S
C1700 H1691 0.929 . S
C1700 C1692 1.378 . S
C1700 C1695 1.350 . S
C1701 H1688 0.929 . S
C1701 C1693 1.433 . S
C1701 N1703 1.384 . S
N1702 C1698 1.427 . S
N1702 C1699 1.384 . S
N1703 C1695 1.427 . S
N1703 C1701 1.384 . S
H1704 C1710 0.930 . S
H1705 C1714 0.930 . S
H1706 C1719 0.929 . S
H1707 C1717 0.929 . S
H1708 C1712 0.929 . S
H1709 C1718 0.929 . S
C1710 H1704 0.930 . S
C1710 C1711 1.367 . S
C1710 C1718 1.378 . S
C1711 C1710 1.367 . S
C1711 C1719 1.433 . S
C1712 H1708 0.929 . S
C1712 C1714 1.378 . S
C1712 C1716 1.350 . S
C1713 C1716 1.463 1_565 S
C1713 C1718 1.350 . S
C1713 N1721 1.427 . S
C1714 H1705 0.930 . S
C1714 C1712 1.378 . S
C1714 C1715 1.367 . S
C1715 C1714 1.367 . S
C1715 C1717 1.433 . S
C1716 C1712 1.350 . S
C1716 C1713 1.463 1_545 S
C1716 N1720 1.427 . S
C1717 H1707 0.929 . S
C1717 C1715 1.433 . S
C1717 N1720 1.384 . S
C1718 H1709 0.929 . S
C1718 C1710 1.378 . S
C1718 C1713 1.350 . S
C1719 H1706 0.929 . S
C1719 C1711 1.433 . S
C1719 N1721 1.384 . S
N1720 C1716 1.427 . S
N1720 C1717 1.384 . S
N1721 C1713 1.427 . S
N1721 C1719 1.384 . S
H1722 C1728 0.930 . S
H1723 C1732 0.930 . S
H1724 C1737 0.929 . S
H1725 C1735 0.929 . S
H1726 C1730 0.929 . S
H1727 C1736 0.929 . S
C1728 H1722 0.930 . S
C1728 C1729 1.367 . S
C1728 C1736 1.378 . S
C1729 C1728 1.367 . S
C1729 C1737 1.433 . S
C1730 H1726 0.929 . S
C1730 C1732 1.378 . S
C1730 C1734 1.350 . S
C1731 C1734 1.463 . S
C1731 C1736 1.350 . S
C1731 N1739 1.427 . S
C1732 H1723 0.930 . S
C1732 C1730 1.378 . S
C1732 C1733 1.367 . S
C1733 C1732 1.367 . S
C1733 C1735 1.433 . S
C1734 C1730 1.350 . S
C1734 C1731 1.463 . S
C1734 N1738 1.427 . S
C1735 H1725 0.929 . S
C1735 C1733 1.433 . S
C1735 N1738 1.384 . S
C1736 H1727 0.929 . S
C1736 C1728 1.378 . S
C1736 C1731 1.350 . S
C1737 H1724 0.929 . S
C1737 C1729 1.433 . S
C1737 N1739 1.384 . S
N1738 C1734 1.427 . S
N1738 C1735 1.384 . S
N1739 C1731 1.427 . S
N1739 C1737 1.384 . S
H1740 C1746 0.930 . S
H1741 C1750 0.930 . S
H1742 C1755 0.929 . S
H1743 C1753 0.929 . S
H1744 C1748 0.929 . S
H1745 C1754 0.929 . S
C1746 H1740 0.930 . S
C1746 C1747 1.367 . S
C1746 C1754 1.378 . S
C1747 C1746 1.367 . S
C1747 C1755 1.433 . S
C1748 H1744 0.929 . S
C1748 C1750 1.378 . S
C1748 C1752 1.350 . S
C1749 C1752 1.463 1_545 S
C1749 C1754 1.350 . S
C1749 N1757 1.427 1_545 S
C1750 H1741 0.930 . S
C1750 C1748 1.378 . S
C1750 C1751 1.367 . S
C1751 C1750 1.367 . S
C1751 C1753 1.433 . S
C1752 C1748 1.350 . S
C1752 C1749 1.463 1_565 S
C1752 N1756 1.427 1_565 S
C1753 H1743 0.929 . S
C1753 C1751 1.433 . S
C1753 N1756 1.384 1_565 S
C1754 H1745 0.929 . S
C1754 C1746 1.378 . S
C1754 C1749 1.350 . S
C1755 H1742 0.929 . S
C1755 C1747 1.433 . S
C1755 N1757 1.384 1_545 S
N1756 C1752 1.427 1_545 S
N1756 C1753 1.384 1_545 S
N1757 C1749 1.427 1_565 S
N1757 C1755 1.384 1_565 S
H1758 C1764 0.930 . S
H1759 C1768 0.930 . S
H1760 C1773 0.929 . S
H1761 C1771 0.929 . S
H1762 C1766 0.929 . S
H1763 C1772 0.929 . S
C1764 H1758 0.930 . S
C1764 C1765 1.367 . S
C1764 C1772 1.378 . S
C1765 C1764 1.367 . S
C1765 C1773 1.433 . S
C1766 H1762 0.929 . S
C1766 C1768 1.378 . S
C1766 C1770 1.350 . S
C1767 C1770 1.463 1_556 S
C1767 C1772 1.350 . S
C1767 N1775 1.427 . S
C1768 H1759 0.930 . S
C1768 C1766 1.378 . S
C1768 C1769 1.367 . S
C1769 C1768 1.367 . S
C1769 C1771 1.433 . S
C1770 C1766 1.350 . S
C1770 C1767 1.463 1_554 S
C1770 N1774 1.427 . S
C1771 H1761 0.929 . S
C1771 C1769 1.433 . S
C1771 N1774 1.384 . S
C1772 H1763 0.929 . S
C1772 C1764 1.378 . S
C1772 C1767 1.350 . S
C1773 H1760 0.929 . S
C1773 C1765 1.433 . S
C1773 N1775 1.384 . S
N1774 C1770 1.427 . S
N1774 C1771 1.384 . S
N1775 C1767 1.427 . S
N1775 C1773 1.384 . S
H1776 C1782 0.930 . S
H1777 C1786 0.930 . S
H1778 C1791 0.929 . S
H1779 C1789 0.929 . S
H1780 C1784 0.929 . S
H1781 C1790 0.929 . S
C1782 H1776 0.930 . S
C1782 C1783 1.367 . S
C1782 C1790 1.378 . S
C1783 C1782 1.367 . S
C1783 C1791 1.433 . S
C1784 H1780 0.929 . S
C1784 C1786 1.378 . S
C1784 C1788 1.350 . S
C1785 C1788 1.463 . S
C1785 C1790 1.350 . S
C1785 N1793 1.427 . S
C1786 H1777 0.930 . S
C1786 C1784 1.378 . S
C1786 C1787 1.367 . S
C1787 C1786 1.367 . S
C1787 C1789 1.433 . S
C1788 C1784 1.350 . S
C1788 C1785 1.463 . S
C1788 N1792 1.427 . S
C1789 H1779 0.929 . S
C1789 C1787 1.433 . S
C1789 N1792 1.384 . S
C1790 H1781 0.929 . S
C1790 C1782 1.378 . S
C1790 C1785 1.350 . S
C1791 H1778 0.929 . S
C1791 C1783 1.433 . S
C1791 N1793 1.384 . S
N1792 C1788 1.427 . S
N1792 C1789 1.384 . S
N1793 C1785 1.427 . S
N1793 C1791 1.384 . S
H1794 C1800 0.930 . S
H1795 C1804 0.930 . S
H1796 C1809 0.929 . S
H1797 C1807 0.929 . S
H1798 C1802 0.929 1_556 S
H1799 C1808 0.929 1_554 S
C1800 H1794 0.930 . S
C1800 C1801 1.367 . S
C1800 C1808 1.378 . S
C1801 C1800 1.367 . S
C1801 C1809 1.433 . S
C1802 H1798 0.929 1_554 S
C1802 C1804 1.378 . S
C1802 C1806 1.350 . S
C1803 C1806 1.463 1_556 S
C1803 C1808 1.350 . S
C1803 N1811 1.427 . S
C1804 H1795 0.930 . S
C1804 C1802 1.378 . S
C1804 C1805 1.367 . S
C1805 C1804 1.367 . S
C1805 C1807 1.433 . S
C1806 C1802 1.350 . S
C1806 C1803 1.463 1_554 S
C1806 N1810 1.427 . S
C1807 H1797 0.929 . S
C1807 C1805 1.433 . S
C1807 N1810 1.384 . S
C1808 H1799 0.929 1_556 S
C1808 C1800 1.378 . S
C1808 C1803 1.350 . S
C1809 H1796 0.929 . S
C1809 C1801 1.433 . S
C1809 N1811 1.384 . S
N1810 C1806 1.427 . S
N1810 C1807 1.384 . S
N1811 C1803 1.427 . S
N1811 C1809 1.384 . S
H1812 C1818 0.930 . S
H1813 C1822 0.930 . S
H1814 C1827 0.929 . S
H1815 C1825 0.929 . S
H1816 C1820 0.929 . S
H1817 C1826 0.929 . S
C1818 H1812 0.930 . S
C1818 C1819 1.367 . S
C1818 C1826 1.378 . S
C1819 C1818 1.367 . S
C1819 C1827 1.433 . S
C1820 H1816 0.929 . S
C1820 C1822 1.378 . S
C1820 C1824 1.350 . S
C1821 C1824 1.463 . S
C1821 C1826 1.350 . S
C1821 N1829 1.427 . S
C1822 H1813 0.930 . S
C1822 C1820 1.378 . S
C1822 C1823 1.367 . S
C1823 C1822 1.367 . S
C1823 C1825 1.433 . S
C1824 C1820 1.350 . S
C1824 C1821 1.463 . S
C1824 N1828 1.427 . S
C1825 H1815 0.929 . S
C1825 C1823 1.433 . S
C1825 N1828 1.384 . S
C1826 H1817 0.929 . S
C1826 C1818 1.378 . S
C1826 C1821 1.350 . S
C1827 H1814 0.929 . S
C1827 C1819 1.433 . S
C1827 N1829 1.384 . S
N1828 C1824 1.427 . S
N1828 C1825 1.384 . S
N1829 C1821 1.427 . S
N1829 C1827 1.384 . S
H1830 C1836 0.930 . S
H1831 C1840 0.930 . S
H1832 C1845 0.929 . S
H1833 C1843 0.929 . S
H1834 C1838 0.929 . S
H1835 C1844 0.929 . S
C1836 H1830 0.930 . S
C1836 C1837 1.367 . S
C1836 C1844 1.378 . S
C1837 C1836 1.367 . S
C1837 C1845 1.433 . S
C1838 H1834 0.929 . S
C1838 C1840 1.378 . S
C1838 C1842 1.350 . S
C1839 C1842 1.463 . S
C1839 C1844 1.350 . S
C1839 N1847 1.427 . S
C1840 H1831 0.930 . S
C1840 C1838 1.378 . S
C1840 C1841 1.367 . S
C1841 C1840 1.367 . S
C1841 C1843 1.433 . S
C1842 C1838 1.350 . S
C1842 C1839 1.463 . S
C1842 N1846 1.427 . S
C1843 H1833 0.929 . S
C1843 C1841 1.433 . S
C1843 N1846 1.384 . S
C1844 H1835 0.929 . S
C1844 C1836 1.378 . S
C1844 C1839 1.350 . S
C1845 H1832 0.929 . S
C1845 C1837 1.433 . S
C1845 N1847 1.384 . S
N1846 C1842 1.427 . S
N1846 C1843 1.384 . S
N1847 C1839 1.427 . S
N1847 C1845 1.384 . S
H1848 C1854 0.930 . S
H1849 C1858 0.930 . S
H1850 C1863 0.929 . S
H1851 C1861 0.929 . S
H1852 C1856 0.929 . S
H1853 C1862 0.929 . S
C1854 H1848 0.930 . S
C1854 C1855 1.367 . S
C1854 C1862 1.378 . S
C1855 C1854 1.367 . S
C1855 C1863 1.433 . S
C1856 H1852 0.929 . S
C1856 C1858 1.378 . S
C1856 C1860 1.350 . S
C1857 C1860 1.463 . S
C1857 C1862 1.350 . S
C1857 N1865 1.427 . S
C1858 H1849 0.930 . S
C1858 C1856 1.378 . S
C1858 C1859 1.367 . S
C1859 C1858 1.367 . S
C1859 C1861 1.433 . S
C1860 C1856 1.350 . S
C1860 C1857 1.463 . S
C1860 N1864 1.427 . S
C1861 H1851 0.929 . S
C1861 C1859 1.433 . S
C1861 N1864 1.384 . S
C1862 H1853 0.929 . S
C1862 C1854 1.378 . S
C1862 C1857 1.350 . S
C1863 H1850 0.929 . S
C1863 C1855 1.433 . S
C1863 N1865 1.384 . S
N1864 C1860 1.427 . S
N1864 C1861 1.384 . S
N1865 C1857 1.427 . S
N1865 C1863 1.384 . S
H1866 C1872 0.930 . S
H1867 C1876 0.930 . S
H1868 C1881 0.929 . S
H1869 C1879 0.929 . S
H1870 C1874 0.929 . S
H1871 C1880 0.929 . S
C1872 H1866 0.930 . S
C1872 C1873 1.367 . S
C1872 C1880 1.378 . S
C1873 C1872 1.367 . S
C1873 C1881 1.433 . S
C1874 H1870 0.929 . S
C1874 C1876 1.378 . S
C1874 C1878 1.350 . S
C1875 C1878 1.463 1_556 S
C1875 C1880 1.350 . S
C1875 N1883 1.427 . S
C1876 H1867 0.930 . S
C1876 C1874 1.378 . S
C1876 C1877 1.367 . S
C1877 C1876 1.367 . S
C1877 C1879 1.433 . S
C1878 C1874 1.350 . S
C1878 C1875 1.463 1_554 S
C1878 N1882 1.427 . S
C1879 H1869 0.929 . S
C1879 C1877 1.433 . S
C1879 N1882 1.384 . S
C1880 H1871 0.929 . S
C1880 C1872 1.378 . S
C1880 C1875 1.350 . S
C1881 H1868 0.929 . S
C1881 C1873 1.433 . S
C1881 N1883 1.384 . S
N1882 C1878 1.427 . S
N1882 C1879 1.384 . S
N1883 C1875 1.427 . S
N1883 C1881 1.384 . S
H1884 C1890 0.930 . S
H1885 C1894 0.930 . S
H1886 C1899 0.929 . S
H1887 C1897 0.929 . S
H1888 C1892 0.929 . S
H1889 C1898 0.929 . S
C1890 H1884 0.930 . S
C1890 C1891 1.367 . S
C1890 C1898 1.378 . S
C1891 C1890 1.367 . S
C1891 C1899 1.433 . S
C1892 H1888 0.929 . S
C1892 C1894 1.378 . S
C1892 C1896 1.350 . S
C1893 C1896 1.463 . S
C1893 C1898 1.350 . S
C1893 N1901 1.427 . S
C1894 H1885 0.930 . S
C1894 C1892 1.378 . S
C1894 C1895 1.367 . S
C1895 C1894 1.367 . S
C1895 C1897 1.433 . S
C1896 C1892 1.350 . S
C1896 C1893 1.463 . S
C1896 N1900 1.427 . S
C1897 H1887 0.929 . S
C1897 C1895 1.433 . S
C1897 N1900 1.384 . S
C1898 H1889 0.929 . S
C1898 C1890 1.378 . S
C1898 C1893 1.350 . S
C1899 H1886 0.929 . S
C1899 C1891 1.433 . S
C1899 N1901 1.384 . S
N1900 C1896 1.427 . S
N1900 C1897 1.384 . S
N1901 C1893 1.427 . S
N1901 C1899 1.384 . S
H1902 C1908 0.930 . S
H1903 C1912 0.930 . S
H1904 C1917 0.929 . S
H1905 C1915 0.929 . S
H1906 C1910 0.929 . S
H1907 C1916 0.929 . S
C1908 H1902 0.930 . S
C1908 C1909 1.367 . S
C1908 C1916 1.378 . S
C1909 C1908 1.367 . S
C1909 C1917 1.433 . S
C1910 H1906 0.929 . S
C1910 C1912 1.378 . S
C1910 C1914 1.350 . S
C1911 C1914 1.463 . S
C1911 C1916 1.350 . S
C1911 N1919 1.427 . S
C1912 H1903 0.930 . S
C1912 C1910 1.378 . S
C1912 C1913 1.367 . S
C1913 C1912 1.367 . S
C1913 C1915 1.433 . S
C1914 C1910 1.350 . S
C1914 C1911 1.463 . S
C1914 N1918 1.427 . S
C1915 H1905 0.929 . S
C1915 C1913 1.433 . S
C1915 N1918 1.384 . S
C1916 H1907 0.929 . S
C1916 C1908 1.378 . S
C1916 C1911 1.350 . S
C1917 H1904 0.929 . S
C1917 C1909 1.433 . S
C1917 N1919 1.384 . S
N1918 C1914 1.427 . S
N1918 C1915 1.384 . S
N1919 C1911 1.427 . S
N1919 C1917 1.384 . S
H1920 C1926 0.930 . S
H1921 C1930 0.930 . S
H1922 C1935 0.929 . S
H1923 C1933 0.929 . S
H1924 C1928 0.929 . S
H1925 C1934 0.929 1_565 S
C1926 H1920 0.930 . S
C1926 C1927 1.367 . S
C1926 C1934 1.378 1_565 S
C1927 C1926 1.367 . S
C1927 C1935 1.433 1_565 S
C1928 H1924 0.929 . S
C1928 C1930 1.378 . S
C1928 C1932 1.350 . S
C1929 C1932 1.463 . S
C1929 C1934 1.350 . S
C1929 N1937 1.427 . S
C1930 H1921 0.930 . S
C1930 C1928 1.378 . S
C1930 C1931 1.367 . S
C1931 C1930 1.367 . S
C1931 C1933 1.433 . S
C1932 C1928 1.350 . S
C1932 C1929 1.463 . S
C1932 N1936 1.427 . S
C1933 H1923 0.929 . S
C1933 C1931 1.433 . S
C1933 N1936 1.384 . S
C1934 H1925 0.929 1_545 S
C1934 C1926 1.378 1_545 S
C1934 C1929 1.350 . S
C1935 H1922 0.929 . S
C1935 C1927 1.433 1_545 S
C1935 N1937 1.384 . S
N1936 C1932 1.427 . S
N1936 C1933 1.384 . S
N1937 C1929 1.427 . S
N1937 C1935 1.384 . S
H1938 C1944 0.930 . S
H1939 C1948 0.930 . S
H1940 C1953 0.929 . S
H1941 C1951 0.929 . S
H1942 C1946 0.929 . S
H1943 C1952 0.929 . S
C1944 H1938 0.930 . S
C1944 C1945 1.367 . S
C1944 C1952 1.378 . S
C1945 C1944 1.367 . S
C1945 C1953 1.433 . S
C1946 H1942 0.929 . S
C1946 C1948 1.378 . S
C1946 C1950 1.350 . S
C1947 C1950 1.463 . S
C1947 C1952 1.350 . S
C1947 N1955 1.427 . S
C1948 H1939 0.930 . S
C1948 C1946 1.378 . S
C1948 C1949 1.367 1_545 S
C1949 C1948 1.367 1_565 S
C1949 C1951 1.433 . S
C1950 C1946 1.350 . S
C1950 C1947 1.463 . S
C1950 N1954 1.427 . S
C1951 H1941 0.929 . S
C1951 C1949 1.433 . S
C1951 N1954 1.384 1_565 S
C1952 H1943 0.929 . S
C1952 C1944 1.378 . S
C1952 C1947 1.350 . S
C1953 H1940 0.929 . S
C1953 C1945 1.433 . S
C1953 N1955 1.384 . S
N1954 C1950 1.427 . S
N1954 C1951 1.384 1_545 S
N1955 C1947 1.427 . S
N1955 C1953 1.384 . S
H1956 C1962 0.930 . S
H1957 C1966 0.930 . S
H1958 C1971 0.929 . S
H1959 C1969 0.929 . S
H1960 C1964 0.929 . S
H1961 C1970 0.929 1_545 S
C1962 H1956 0.930 . S
C1962 C1963 1.367 . S
C1962 C1970 1.378 1_545 S
C1963 C1962 1.367 . S
C1963 C1971 1.433 1_545 S
C1964 H1960 0.929 . S
C1964 C1966 1.378 . S
C1964 C1968 1.350 . S
C1965 C1968 1.463 . S
C1965 C1970 1.350 . S
C1965 N1973 1.427 . S
C1966 H1957 0.930 . S
C1966 C1964 1.378 . S
C1966 C1967 1.367 . S
C1967 C1966 1.367 . S
C1967 C1969 1.433 . S
C1968 C1964 1.350 . S
C1968 C1965 1.463 . S
C1968 N1972 1.427 . S
C1969 H1959 0.929 . S
C1969 C1967 1.433 . S
C1969 N1972 1.384 . S
C1970 H1961 0.929 1_565 S
C1970 C1962 1.378 1_565 S
C1970 C1965 1.350 . S
C1971 H1958 0.929 . S
C1971 C1963 1.433 1_565 S
C1971 N1973 1.384 . S
N1972 C1968 1.427 . S
N1972 C1969 1.384 . S
N1973 C1965 1.427 . S
N1973 C1971 1.384 . S
H1974 C1980 0.930 . S
H1975 C1984 0.930 . S
H1976 C1989 0.929 . S
H1977 C1987 0.929 . S
H1978 C1982 0.929 . S
H1979 C1988 0.929 . S
C1980 H1974 0.930 . S
C1980 C1981 1.367 . S
C1980 C1988 1.378 . S
C1981 C1980 1.367 . S
C1981 C1989 1.433 . S
C1982 H1978 0.929 . S
C1982 C1984 1.378 . S
C1982 C1986 1.350 . S
C1983 C1986 1.463 . S
C1983 C1988 1.350 . S
C1983 N1991 1.427 . S
C1984 H1975 0.930 . S
C1984 C1982 1.378 . S
C1984 C1985 1.367 1_565 S
C1985 C1984 1.367 1_545 S
C1985 C1987 1.433 . S
C1986 C1982 1.350 . S
C1986 C1983 1.463 . S
C1986 N1990 1.427 . S
C1987 H1977 0.929 . S
C1987 C1985 1.433 . S
C1987 N1990 1.384 1_545 S
C1988 H1979 0.929 . S
C1988 C1980 1.378 . S
C1988 C1983 1.350 . S
C1989 H1976 0.929 . S
C1989 C1981 1.433 . S
C1989 N1991 1.384 . S
N1990 C1986 1.427 . S
N1990 C1987 1.384 1_565 S
N1991 C1983 1.427 . S
N1991 C1989 1.384 . S
H1992 C1998 0.930 . S
H1993 C2002 0.930 . S
H1994 C2007 0.929 . S
H1995 C2005 0.929 . S
H1996 C2000 0.929 . S
H1997 C2006 0.929 . S
C1998 H1992 0.930 . S
C1998 C1999 1.367 . S
C1998 C2006 1.378 1_545 S
C1999 C1998 1.367 . S
C1999 C2007 1.433 1_545 S
C2000 H1996 0.929 . S
C2000 C2002 1.378 . S
C2000 C2004 1.350 . S
C2001 C2004 1.463 . S
C2001 C2006 1.350 . S
C2001 N2009 1.427 . S
C2002 H1993 0.930 . S
C2002 C2000 1.378 . S
C2002 C2003 1.367 . S
C2003 C2002 1.367 . S
C2003 C2005 1.433 . S
C2004 C2000 1.350 . S
C2004 C2001 1.463 . S
C2004 N2008 1.427 . S
C2005 H1995 0.929 . S
C2005 C2003 1.433 . S
C2005 N2008 1.384 . S
C2006 H1997 0.929 . S
C2006 C1998 1.378 1_565 S
C2006 C2001 1.350 . S
C2007 H1994 0.929 . S
C2007 C1999 1.433 1_565 S
C2007 N2009 1.384 . S
N2008 C2004 1.427 . S
N2008 C2005 1.384 . S
N2009 C2001 1.427 . S
N2009 C2007 1.384 . S
H2010 C2016 0.930 . S
H2011 C2020 0.930 . S
H2012 C2025 0.929 . S
H2013 C2023 0.929 . S
H2014 C2018 0.929 . S
H2015 C2024 0.929 . S
C2016 H2010 0.930 . S
C2016 C2017 1.367 . S
C2016 C2024 1.378 . S
C2017 C2016 1.367 . S
C2017 C2025 1.433 . S
C2018 H2014 0.929 . S
C2018 C2020 1.378 1_565 S
C2018 C2022 1.350 . S
C2019 C2022 1.463 . S
C2019 C2024 1.350 . S
C2019 N2027 1.427 . S
C2020 H2011 0.930 . S
C2020 C2018 1.378 1_545 S
C2020 C2021 1.367 . S
C2021 C2020 1.367 . S
C2021 C2023 1.433 1_545 S
C2022 C2018 1.350 . S
C2022 C2019 1.463 . S
C2022 N2026 1.427 . S
C2023 H2013 0.929 . S
C2023 C2021 1.433 1_565 S
C2023 N2026 1.384 . S
C2024 H2015 0.929 . S
C2024 C2016 1.378 . S
C2024 C2019 1.350 . S
C2025 H2012 0.929 . S
C2025 C2017 1.433 . S
C2025 N2027 1.384 . S
N2026 C2022 1.427 . S
N2026 C2023 1.384 . S
N2027 C2019 1.427 . S
N2027 C2025 1.384 . S
H2028 C2034 0.930 . S
H2029 C2038 0.930 . S
H2030 C2043 0.929 . S
H2031 C2041 0.929 . S
H2032 C2036 0.929 1_565 S
H2033 C2042 0.929 . S
C2034 H2028 0.930 . S
C2034 C2035 1.367 . S
C2034 C2042 1.378 . S
C2035 C2034 1.367 . S
C2035 C2043 1.433 . S
C2036 H2032 0.929 1_545 S
C2036 C2038 1.378 1_545 S
C2036 C2040 1.350 . S
C2037 C2040 1.463 . S
C2037 C2042 1.350 . S
C2037 N2045 1.427 . S
C2038 H2029 0.930 . S
C2038 C2036 1.378 1_565 S
C2038 C2039 1.367 . S
C2039 C2038 1.367 . S
C2039 C2041 1.433 1_565 S
C2040 C2036 1.350 . S
C2040 C2037 1.463 . S
C2040 N2044 1.427 . S
C2041 H2031 0.929 . S
C2041 C2039 1.433 1_545 S
C2041 N2044 1.384 . S
C2042 H2033 0.929 . S
C2042 C2034 1.378 . S
C2042 C2037 1.350 . S
C2043 H2030 0.929 . S
C2043 C2035 1.433 . S
C2043 N2045 1.384 . S
N2044 C2040 1.427 . S
N2044 C2041 1.384 . S
N2045 C2037 1.427 . S
N2045 C2043 1.384 . S
H2046 C2052 0.930 . S
H2047 C2056 0.930 . S
H2048 C2061 0.929 . S
H2049 C2059 0.929 . S
H2050 C2054 0.929 . S
H2051 C2060 0.929 1_565 S
C2052 H2046 0.930 . S
C2052 C2053 1.367 . S
C2052 C2060 1.378 1_565 S
C2053 C2052 1.367 . S
C2053 C2061 1.433 1_565 S
C2054 H2050 0.929 . S
C2054 C2056 1.378 . S
C2054 C2058 1.350 . S
C2055 C2058 1.463 . S
C2055 C2060 1.350 . S
C2055 N2063 1.427 . S
C2056 H2047 0.930 . S
C2056 C2054 1.378 . S
C2056 C2057 1.367 . S
C2057 C2056 1.367 . S
C2057 C2059 1.433 . S
C2058 C2054 1.350 . S
C2058 C2055 1.463 . S
C2058 N2062 1.427 . S
C2059 H2049 0.929 . S
C2059 C2057 1.433 . S
C2059 N2062 1.384 . S
C2060 H2051 0.929 1_545 S
C2060 C2052 1.378 1_545 S
C2060 C2055 1.350 . S
C2061 H2048 0.929 . S
C2061 C2053 1.433 1_545 S
C2061 N2063 1.384 . S
N2062 C2058 1.427 . S
N2062 C2059 1.384 . S
N2063 C2055 1.427 . S
N2063 C2061 1.384 . S
H2064 C2070 0.930 . S
H2065 C2074 0.930 . S
H2066 C2079 0.929 . S
H2067 C2077 0.929 . S
H2068 C2072 0.929 . S
H2069 C2078 0.929 . S
C2070 H2064 0.930 . S
C2070 C2071 1.367 . S
C2070 C2078 1.378 . S
C2071 C2070 1.367 . S
C2071 C2079 1.433 . S
C2072 H2068 0.929 . S
C2072 C2074 1.378 . S
C2072 C2076 1.350 . S
C2073 C2076 1.463 . S
C2073 C2078 1.350 . S
C2073 N2081 1.427 . S
C2074 H2065 0.930 . S
C2074 C2072 1.378 . S
C2074 C2075 1.367 . S
C2075 C2074 1.367 . S
C2075 C2077 1.433 . S
C2076 C2072 1.350 . S
C2076 C2073 1.463 . S
C2076 N2080 1.427 . S
C2077 H2067 0.929 . S
C2077 C2075 1.433 . S
C2077 N2080 1.384 . S
C2078 H2069 0.929 . S
C2078 C2070 1.378 . S
C2078 C2073 1.350 . S
C2079 H2066 0.929 . S
C2079 C2071 1.433 . S
C2079 N2081 1.384 . S
N2080 C2076 1.427 . S
N2080 C2077 1.384 . S
N2081 C2073 1.427 . S
N2081 C2079 1.384 . S
H2082 C2088 0.930 . S
H2083 C2092 0.930 . S
H2084 C2097 0.929 . S
H2085 C2095 0.929 . S
H2086 C2090 0.929 . S
H2087 C2096 0.929 . S
C2088 H2082 0.930 . S
C2088 C2089 1.367 . S
C2088 C2096 1.378 . S
C2089 C2088 1.367 . S
C2089 C2097 1.433 . S
C2090 H2086 0.929 . S
C2090 C2092 1.378 . S
C2090 C2094 1.350 . S
C2091 C2094 1.463 . S
C2091 C2096 1.350 . S
C2091 N2099 1.427 . S
C2092 H2083 0.930 . S
C2092 C2090 1.378 . S
C2092 C2093 1.367 . S
C2093 C2092 1.367 . S
C2093 C2095 1.433 . S
C2094 C2090 1.350 . S
C2094 C2091 1.463 . S
C2094 N2098 1.427 . S
C2095 H2085 0.929 . S
C2095 C2093 1.433 . S
C2095 N2098 1.384 . S
C2096 H2087 0.929 . S
C2096 C2088 1.378 . S
C2096 C2091 1.350 . S
C2097 H2084 0.929 . S
C2097 C2089 1.433 . S
C2097 N2099 1.384 . S
N2098 C2094 1.427 . S
N2098 C2095 1.384 . S
N2099 C2091 1.427 . S
N2099 C2097 1.384 . S
H2100 C2106 0.930 . S
H2101 C2110 0.930 . S
H2102 C2115 0.929 . S
H2103 C2113 0.929 . S
H2104 C2108 0.929 . S
H2105 C2114 0.929 . S
C2106 H2100 0.930 . S
C2106 C2107 1.367 . S
C2106 C2114 1.378 . S
C2107 C2106 1.367 . S
C2107 C2115 1.433 . S
C2108 H2104 0.929 . S
C2108 C2110 1.378 . S
C2108 C2112 1.350 . S
C2109 C2112 1.463 . S
C2109 C2114 1.350 . S
C2109 N2117 1.427 . S
C2110 H2101 0.930 . S
C2110 C2108 1.378 . S
C2110 C2111 1.367 . S
C2111 C2110 1.367 . S
C2111 C2113 1.433 . S
C2112 C2108 1.350 . S
C2112 C2109 1.463 . S
C2112 N2116 1.427 . S
C2113 H2103 0.929 . S
C2113 C2111 1.433 . S
C2113 N2116 1.384 . S
C2114 H2105 0.929 . S
C2114 C2106 1.378 . S
C2114 C2109 1.350 . S
C2115 H2102 0.929 . S
C2115 C2107 1.433 . S
C2115 N2117 1.384 . S
N2116 C2112 1.427 . S
N2116 C2113 1.384 . S
N2117 C2109 1.427 . S
N2117 C2115 1.384 . S
H2118 C2124 0.930 . S
H2119 C2128 0.930 . S
H2120 C2133 0.929 . S
H2121 C2131 0.929 . S
H2122 C2126 0.929 . S
H2123 C2132 0.929 . S
C2124 H2118 0.930 . S
C2124 C2125 1.367 . S
C2124 C2132 1.378 . S
C2125 C2124 1.367 . S
C2125 C2133 1.433 . S
C2126 H2122 0.929 . S
C2126 C2128 1.378 . S
C2126 C2130 1.350 . S
C2127 C2130 1.463 . S
C2127 C2132 1.350 . S
C2127 N2135 1.427 . S
C2128 H2119 0.930 . S
C2128 C2126 1.378 . S
C2128 C2129 1.367 . S
C2129 C2128 1.367 . S
C2129 C2131 1.433 . S
C2130 C2126 1.350 . S
C2130 C2127 1.463 . S
C2130 N2134 1.427 . S
C2131 H2121 0.929 . S
C2131 C2129 1.433 . S
C2131 N2134 1.384 . S
C2132 H2123 0.929 . S
C2132 C2124 1.378 . S
C2132 C2127 1.350 . S
C2133 H2120 0.929 . S
C2133 C2125 1.433 . S
C2133 N2135 1.384 . S
N2134 C2130 1.427 . S
N2134 C2131 1.384 . S
N2135 C2127 1.427 . S
N2135 C2133 1.384 . S
H2136 C2142 0.930 . S
H2137 C2146 0.930 . S
H2138 C2151 0.929 . S
H2139 C2149 0.929 . S
H2140 C2144 0.929 . S
H2141 C2150 0.929 . S
C2142 H2136 0.930 . S
C2142 C2143 1.367 . S
C2142 C2150 1.378 . S
C2143 C2142 1.367 . S
C2143 C2151 1.433 . S
C2144 H2140 0.929 . S
C2144 C2146 1.378 . S
C2144 C2148 1.350 . S
C2145 C2148 1.463 . S
C2145 C2150 1.350 . S
C2145 N2153 1.427 . S
C2146 H2137 0.930 . S
C2146 C2144 1.378 . S
C2146 C2147 1.367 . S
C2147 C2146 1.367 . S
C2147 C2149 1.433 . S
C2148 C2144 1.350 . S
C2148 C2145 1.463 . S
C2148 N2152 1.427 . S
C2149 H2139 0.929 . S
C2149 C2147 1.433 . S
C2149 N2152 1.384 . S
C2150 H2141 0.929 . S
C2150 C2142 1.378 . S
C2150 C2145 1.350 . S
C2151 H2138 0.929 . S
C2151 C2143 1.433 . S
C2151 N2153 1.384 . S
N2152 C2148 1.427 . S
N2152 C2149 1.384 . S
N2153 C2145 1.427 . S
N2153 C2151 1.384 . S
H2154 C2160 0.930 . S
H2155 C2164 0.930 . S
H2156 C2169 0.929 . S
H2157 C2167 0.929 . S
H2158 C2162 0.929 . S
H2159 C2168 0.929 . S
C2160 H2154 0.930 . S
C2160 C2161 1.367 . S
C2160 C2168 1.378 . S
C2161 C2160 1.367 . S
C2161 C2169 1.433 . S
C2162 H2158 0.929 . S
C2162 C2164 1.378 . S
C2162 C2166 1.350 . S
C2163 C2166 1.463 . S
C2163 C2168 1.350 . S
C2163 N2171 1.427 . S
C2164 H2155 0.930 . S
C2164 C2162 1.378 . S
C2164 C2165 1.367 . S
C2165 C2164 1.367 . S
C2165 C2167 1.433 . S
C2166 C2162 1.350 . S
C2166 C2163 1.463 . S
C2166 N2170 1.427 . S
C2167 H2157 0.929 . S
C2167 C2165 1.433 . S
C2167 N2170 1.384 . S
C2168 H2159 0.929 . S
C2168 C2160 1.378 . S
C2168 C2163 1.350 . S
C2169 H2156 0.929 . S
C2169 C2161 1.433 . S
C2169 N2171 1.384 . S
N2170 C2166 1.427 . S
N2170 C2167 1.384 . S
N2171 C2163 1.427 . S
N2171 C2169 1.384 . S
H2172 C2178 0.930 . S
H2173 C2182 0.930 . S
H2174 C2187 0.929 . S
H2175 C2185 0.929 . S
H2176 C2180 0.929 . S
H2177 C2186 0.929 . S
C2178 H2172 0.930 . S
C2178 C2179 1.367 . S
C2178 C2186 1.378 . S
C2179 C2178 1.367 . S
C2179 C2187 1.433 . S
C2180 H2176 0.929 . S
C2180 C2182 1.378 . S
C2180 C2184 1.350 . S
C2181 C2184 1.463 . S
C2181 C2186 1.350 . S
C2181 N2189 1.427 . S
C2182 H2173 0.930 . S
C2182 C2180 1.378 . S
C2182 C2183 1.367 . S
C2183 C2182 1.367 . S
C2183 C2185 1.433 . S
C2184 C2180 1.350 . S
C2184 C2181 1.463 . S
C2184 N2188 1.427 . S
C2185 H2175 0.929 . S
C2185 C2183 1.433 . S
C2185 N2188 1.384 . S
C2186 H2177 0.929 . S
C2186 C2178 1.378 . S
C2186 C2181 1.350 . S
C2187 H2174 0.929 . S
C2187 C2179 1.433 . S
C2187 N2189 1.384 . S
N2188 C2184 1.427 . S
N2188 C2185 1.384 . S
N2189 C2181 1.427 . S
N2189 C2187 1.384 . S
H2190 C2196 0.930 . S
H2191 C2200 0.930 . S
H2192 C2205 0.929 . S
H2193 C2203 0.929 . S
H2194 C2198 0.929 . S
H2195 C2204 0.929 . S
C2196 H2190 0.930 . S
C2196 C2197 1.367 . S
C2196 C2204 1.378 . S
C2197 C2196 1.367 . S
C2197 C2205 1.433 . S
C2198 H2194 0.929 . S
C2198 C2200 1.378 . S
C2198 C2202 1.350 . S
C2199 C2202 1.463 . S
C2199 C2204 1.350 . S
C2199 N2207 1.427 . S
C2200 H2191 0.930 . S
C2200 C2198 1.378 . S
C2200 C2201 1.367 . S
C2201 C2200 1.367 . S
C2201 C2203 1.433 . S
C2202 C2198 1.350 . S
C2202 C2199 1.463 . S
C2202 N2206 1.427 . S
C2203 H2193 0.929 . S
C2203 C2201 1.433 . S
C2203 N2206 1.384 . S
C2204 H2195 0.929 . S
C2204 C2196 1.378 . S
C2204 C2199 1.350 . S
C2205 H2192 0.929 . S
C2205 C2197 1.433 . S
C2205 N2207 1.384 . S
N2206 C2202 1.427 . S
N2206 C2203 1.384 . S
N2207 C2199 1.427 . S
N2207 C2205 1.384 . S
H2208 C2214 0.930 . S
H2209 C2218 0.930 . S
H2210 C2223 0.929 . S
H2211 C2221 0.929 . S
H2212 C2216 0.929 . S
H2213 C2222 0.929 . S
C2214 H2208 0.930 . S
C2214 C2215 1.367 . S
C2214 C2222 1.378 . S
C2215 C2214 1.367 . S
C2215 C2223 1.433 . S
C2216 H2212 0.929 . S
C2216 C2218 1.378 . S
C2216 C2220 1.350 . S
C2217 C2220 1.463 . S
C2217 C2222 1.350 . S
C2217 N2225 1.427 . S
C2218 H2209 0.930 . S
C2218 C2216 1.378 . S
C2218 C2219 1.367 . S
C2219 C2218 1.367 . S
C2219 C2221 1.433 . S
C2220 C2216 1.350 . S
C2220 C2217 1.463 . S
C2220 N2224 1.427 . S
C2221 H2211 0.929 . S
C2221 C2219 1.433 . S
C2221 N2224 1.384 . S
C2222 H2213 0.929 . S
C2222 C2214 1.378 . S
C2222 C2217 1.350 . S
C2223 H2210 0.929 . S
C2223 C2215 1.433 . S
C2223 N2225 1.384 . S
N2224 C2220 1.427 . S
N2224 C2221 1.384 . S
N2225 C2217 1.427 . S
N2225 C2223 1.384 . S
H2226 C2232 0.930 . S
H2227 C2236 0.930 . S
H2228 C2241 0.929 . S
H2229 C2239 0.929 . S
H2230 C2234 0.929 . S
H2231 C2240 0.929 . S
C2232 H2226 0.930 . S
C2232 C2233 1.367 . S
C2232 C2240 1.378 1_565 S
C2233 C2232 1.367 . S
C2233 C2241 1.433 . S
C2234 H2230 0.929 . S
C2234 C2236 1.378 1_565 S
C2234 C2238 1.350 1_565 S
C2235 C2238 1.463 1_465 S
C2235 C2240 1.350 1_565 S
C2235 N2243 1.427 . S
C2236 H2227 0.930 . S
C2236 C2234 1.378 1_545 S
C2236 C2237 1.367 . S
C2237 C2236 1.367 . S
C2237 C2239 1.433 . S
C2238 C2234 1.350 1_545 S
C2238 C2235 1.463 1_645 S
C2238 N2242 1.427 . S
C2239 H2229 0.929 . S
C2239 C2237 1.433 . S
C2239 N2242 1.384 . S
C2240 H2231 0.929 . S
C2240 C2232 1.378 1_545 S
C2240 C2235 1.350 1_545 S
C2241 H2228 0.929 . S
C2241 C2233 1.433 . S
C2241 N2243 1.384 . S
N2242 C2238 1.427 . S
N2242 C2239 1.384 . S
N2243 C2235 1.427 . S
N2243 C2241 1.384 . S
H2244 C2250 0.930 . S
H2245 C2254 0.930 . S
H2246 C2259 0.929 . S
H2247 C2257 0.929 . S
H2248 C2252 0.929 . S
H2249 C2258 0.929 . S
C2250 H2244 0.930 . S
C2250 C2251 1.367 . S
C2250 C2258 1.378 . S
C2251 C2250 1.367 . S
C2251 C2259 1.433 . S
C2252 H2248 0.929 . S
C2252 C2254 1.378 . S
C2252 C2256 1.350 . S
C2253 C2256 1.463 . S
C2253 C2258 1.350 . S
C2253 N2261 1.427 . S
C2254 H2245 0.930 . S
C2254 C2252 1.378 . S
C2254 C2255 1.367 . S
C2255 C2254 1.367 . S
C2255 C2257 1.433 . S
C2256 C2252 1.350 . S
C2256 C2253 1.463 . S
C2256 N2260 1.427 . S
C2257 H2247 0.929 . S
C2257 C2255 1.433 . S
C2257 N2260 1.384 . S
C2258 H2249 0.929 . S
C2258 C2250 1.378 . S
C2258 C2253 1.350 . S
C2259 H2246 0.929 . S
C2259 C2251 1.433 . S
C2259 N2261 1.384 . S
N2260 C2256 1.427 . S
N2260 C2257 1.384 . S
N2261 C2253 1.427 . S
N2261 C2259 1.384 . S
H2262 C2268 0.930 . S
H2263 C2272 0.930 . S
H2264 C2277 0.929 . S
H2265 C2275 0.929 . S
H2266 C2270 0.929 . S
H2267 C2276 0.929 . S
C2268 H2262 0.930 . S
C2268 C2269 1.367 . S
C2268 C2276 1.378 . S
C2269 C2268 1.367 . S
C2269 C2277 1.433 . S
C2270 H2266 0.929 . S
C2270 C2272 1.378 . S
C2270 C2274 1.350 . S
C2271 C2274 1.463 1_544 S
C2271 C2276 1.350 . S
C2271 N2279 1.427 . S
C2272 H2263 0.930 . S
C2272 C2270 1.378 . S
C2272 C2273 1.367 . S
C2273 C2272 1.367 . S
C2273 C2275 1.433 . S
C2274 C2270 1.350 . S
C2274 C2271 1.463 1_566 S
C2274 N2278 1.427 . S
C2275 H2265 0.929 . S
C2275 C2273 1.433 . S
C2275 N2278 1.384 . S
C2276 H2267 0.929 . S
C2276 C2268 1.378 . S
C2276 C2271 1.350 . S
C2277 H2264 0.929 . S
C2277 C2269 1.433 . S
C2277 N2279 1.384 . S
N2278 C2274 1.427 . S
N2278 C2275 1.384 . S
N2279 C2271 1.427 . S
N2279 C2277 1.384 . S
H2280 C2286 0.930 . S
H2281 C2290 0.930 . S
H2282 C2295 0.929 . S
H2283 C2293 0.929 . S
H2284 C2288 0.929 . S
H2285 C2294 0.929 . S
C2286 H2280 0.930 . S
C2286 C2287 1.367 . S
C2286 C2294 1.378 . S
C2287 C2286 1.367 . S
C2287 C2295 1.433 . S
C2288 H2284 0.929 . S
C2288 C2290 1.378 . S
C2288 C2292 1.350 . S
C2289 C2292 1.463 . S
C2289 C2294 1.350 . S
C2289 N2297 1.427 . S
C2290 H2281 0.930 . S
C2290 C2288 1.378 . S
C2290 C2291 1.367 . S
C2291 C2290 1.367 . S
C2291 C2293 1.433 . S
C2292 C2288 1.350 . S
C2292 C2289 1.463 . S
C2292 N2296 1.427 . S
C2293 H2283 0.929 . S
C2293 C2291 1.433 . S
C2293 N2296 1.384 . S
C2294 H2285 0.929 . S
C2294 C2286 1.378 . S
C2294 C2289 1.350 . S
C2295 H2282 0.929 . S
C2295 C2287 1.433 . S
C2295 N2297 1.384 . S
N2296 C2292 1.427 . S
N2296 C2293 1.384 . S
N2297 C2289 1.427 . S
N2297 C2295 1.384 . S
H2298 C2304 0.930 . S
H2299 C2308 0.930 . S
H2300 C2313 0.929 . S
H2301 C2311 0.929 . S
H2302 C2306 0.929 1_545 S
H2303 C2312 0.929 1_565 S
C2304 H2298 0.930 . S
C2304 C2305 1.367 . S
C2304 C2312 1.378 . S
C2305 C2304 1.367 . S
C2305 C2313 1.433 . S
C2306 H2302 0.929 1_565 S
C2306 C2308 1.378 . S
C2306 C2310 1.350 . S
C2307 C2310 1.463 1_545 S
C2307 C2312 1.350 . S
C2307 N2315 1.427 . S
C2308 H2299 0.930 . S
C2308 C2306 1.378 . S
C2308 C2309 1.367 . S
C2309 C2308 1.367 . S
C2309 C2311 1.433 . S
C2310 C2306 1.350 . S
C2310 C2307 1.463 1_565 S
C2310 N2314 1.427 . S
C2311 H2301 0.929 . S
C2311 C2309 1.433 . S
C2311 N2314 1.384 . S
C2312 H2303 0.929 1_545 S
C2312 C2304 1.378 . S
C2312 C2307 1.350 . S
C2313 H2300 0.929 . S
C2313 C2305 1.433 . S
C2313 N2315 1.384 . S
N2314 C2310 1.427 . S
N2314 C2311 1.384 . S
N2315 C2307 1.427 . S
N2315 C2313 1.384 . S
H2316 C2322 0.930 . S
H2317 C2326 0.930 . S
H2318 C2331 0.929 . S
H2319 C2329 0.929 . S
H2320 C2324 0.929 . S
H2321 C2330 0.929 . S
C2322 H2316 0.930 . S
C2322 C2323 1.367 . S
C2322 C2330 1.378 . S
C2323 C2322 1.367 . S
C2323 C2331 1.433 . S
C2324 H2320 0.929 . S
C2324 C2326 1.378 . S
C2324 C2328 1.350 . S
C2325 C2328 1.463 . S
C2325 C2330 1.350 . S
C2325 N2333 1.427 . S
C2326 H2317 0.930 . S
C2326 C2324 1.378 . S
C2326 C2327 1.367 . S
C2327 C2326 1.367 . S
C2327 C2329 1.433 . S
C2328 C2324 1.350 . S
C2328 C2325 1.463 . S
C2328 N2332 1.427 . S
C2329 H2319 0.929 . S
C2329 C2327 1.433 . S
C2329 N2332 1.384 . S
C2330 H2321 0.929 . S
C2330 C2322 1.378 . S
C2330 C2325 1.350 . S
C2331 H2318 0.929 . S
C2331 C2323 1.433 . S
C2331 N2333 1.384 . S
N2332 C2328 1.427 . S
N2332 C2329 1.384 . S
N2333 C2325 1.427 . S
N2333 C2331 1.384 . S
H2334 C2340 0.930 . S
H2335 C2344 0.930 . S
H2336 C2349 0.929 . S
H2337 C2347 0.929 . S
H2338 C2342 0.929 1_564 S
H2339 C2348 0.929 1_546 S
C2340 H2334 0.930 . S
C2340 C2341 1.367 . S
C2340 C2348 1.378 . S
C2341 C2340 1.367 . S
C2341 C2349 1.433 . S
C2342 H2338 0.929 1_546 S
C2342 C2344 1.378 . S
C2342 C2346 1.350 . S
C2343 C2346 1.463 1_664 S
C2343 C2348 1.350 . S
C2343 N2351 1.427 1_655 S
C2344 H2335 0.930 . S
C2344 C2342 1.378 . S
C2344 C2345 1.367 . S
C2345 C2344 1.367 . S
C2345 C2347 1.433 . S
C2346 C2342 1.350 . S
C2346 C2343 1.463 1_446 S
C2346 N2350 1.427 1_455 S
C2347 H2337 0.929 . S
C2347 C2345 1.433 . S
C2347 N2350 1.384 1_455 S
C2348 H2339 0.929 1_564 S
C2348 C2340 1.378 . S
C2348 C2343 1.350 . S
C2349 H2336 0.929 . S
C2349 C2341 1.433 . S
C2349 N2351 1.384 1_655 S
N2350 C2346 1.427 1_655 S
N2350 C2347 1.384 1_655 S
N2351 C2343 1.427 1_455 S
N2351 C2349 1.384 1_455 S
H2352 C2358 0.930 . S
H2353 C2362 0.930 . S
H2354 C2367 0.929 . S
H2355 C2365 0.929 . S
H2356 C2360 0.929 . S
H2357 C2366 0.929 . S
C2358 H2352 0.930 . S
C2358 C2359 1.367 . S
C2358 C2366 1.378 . S
C2359 C2358 1.367 . S
C2359 C2367 1.433 . S
C2360 H2356 0.929 . S
C2360 C2362 1.378 . S
C2360 C2364 1.350 . S
C2361 C2364 1.463 . S
C2361 C2366 1.350 . S
C2361 N2369 1.427 . S
C2362 H2353 0.930 . S
C2362 C2360 1.378 . S
C2362 C2363 1.367 . S
C2363 C2362 1.367 . S
C2363 C2365 1.433 . S
C2364 C2360 1.350 . S
C2364 C2361 1.463 . S
C2364 N2368 1.427 . S
C2365 H2355 0.929 . S
C2365 C2363 1.433 . S
C2365 N2368 1.384 . S
C2366 H2357 0.929 . S
C2366 C2358 1.378 . S
C2366 C2361 1.350 . S
C2367 H2354 0.929 . S
C2367 C2359 1.433 . S
C2367 N2369 1.384 . S
N2368 C2364 1.427 . S
N2368 C2365 1.384 . S
N2369 C2361 1.427 . S
N2369 C2367 1.384 . S
H2370 C2376 0.930 . S
H2371 C2380 0.930 . S
H2372 C2385 0.929 . S
H2373 C2383 0.929 . S
H2374 C2378 0.929 . S
H2375 C2384 0.929 . S
C2376 H2370 0.930 . S
C2376 C2377 1.367 . S
C2376 C2384 1.378 . S
C2377 C2376 1.367 . S
C2377 C2385 1.433 . S
C2378 H2374 0.929 . S
C2378 C2380 1.378 . S
C2378 C2382 1.350 . S
C2379 C2382 1.463 . S
C2379 C2384 1.350 . S
C2379 N2387 1.427 . S
C2380 H2371 0.930 . S
C2380 C2378 1.378 . S
C2380 C2381 1.367 . S
C2381 C2380 1.367 . S
C2381 C2383 1.433 . S
C2382 C2378 1.350 . S
C2382 C2379 1.463 . S
C2382 N2386 1.427 . S
C2383 H2373 0.929 . S
C2383 C2381 1.433 . S
C2383 N2386 1.384 . S
C2384 H2375 0.929 . S
C2384 C2376 1.378 . S
C2384 C2379 1.350 . S
C2385 H2372 0.929 . S
C2385 C2377 1.433 . S
C2385 N2387 1.384 . S
N2386 C2382 1.427 . S
N2386 C2383 1.384 . S
N2387 C2379 1.427 . S
N2387 C2385 1.384 . S
H2388 C2394 0.930 . S
H2389 C2398 0.930 . S
H2390 C2403 0.929 . S
H2391 C2401 0.929 . S
H2392 C2396 0.929 . S
H2393 C2402 0.929 . S
C2394 H2388 0.930 . S
C2394 C2395 1.367 . S
C2394 C2402 1.378 . S
C2395 C2394 1.367 . S
C2395 C2403 1.433 . S
C2396 H2392 0.929 . S
C2396 C2398 1.378 . S
C2396 C2400 1.350 . S
C2397 C2400 1.463 . S
C2397 C2402 1.350 . S
C2397 N2405 1.427 . S
C2398 H2389 0.930 . S
C2398 C2396 1.378 . S
C2398 C2399 1.367 . S
C2399 C2398 1.367 . S
C2399 C2401 1.433 . S
C2400 C2396 1.350 . S
C2400 C2397 1.463 . S
C2400 N2404 1.427 . S
C2401 H2391 0.929 . S
C2401 C2399 1.433 . S
C2401 N2404 1.384 . S
C2402 H2393 0.929 . S
C2402 C2394 1.378 . S
C2402 C2397 1.350 . S
C2403 H2390 0.929 . S
C2403 C2395 1.433 . S
C2403 N2405 1.384 . S
N2404 C2400 1.427 . S
N2404 C2401 1.384 . S
N2405 C2397 1.427 . S
N2405 C2403 1.384 . S
H2406 C2412 0.930 . S
H2407 C2416 0.930 . S
H2408 C2421 0.929 . S
H2409 C2419 0.929 . S
H2410 C2414 0.929 . S
H2411 C2420 0.929 . S
C2412 H2406 0.930 . S
C2412 C2413 1.367 . S
C2412 C2420 1.378 . S
C2413 C2412 1.367 . S
C2413 C2421 1.433 . S
C2414 H2410 0.929 . S
C2414 C2416 1.378 . S
C2414 C2418 1.350 . S
C2415 C2418 1.463 . S
C2415 C2420 1.350 . S
C2415 N2423 1.427 . S
C2416 H2407 0.930 . S
C2416 C2414 1.378 . S
C2416 C2417 1.367 . S
C2417 C2416 1.367 . S
C2417 C2419 1.433 . S
C2418 C2414 1.350 . S
C2418 C2415 1.463 . S
C2418 N2422 1.427 . S
C2419 H2409 0.929 . S
C2419 C2417 1.433 . S
C2419 N2422 1.384 . S
C2420 H2411 0.929 . S
C2420 C2412 1.378 . S
C2420 C2415 1.350 . S
C2421 H2408 0.929 . S
C2421 C2413 1.433 . S
C2421 N2423 1.384 . S
N2422 C2418 1.427 . S
N2422 C2419 1.384 . S
N2423 C2415 1.427 . S
N2423 C2421 1.384 . S
H2424 C2430 0.930 . S
H2425 C2434 0.930 . S
H2426 C2439 0.929 . S
H2427 C2437 0.929 . S
H2428 C2432 0.929 1_556 S
H2429 C2438 0.929 1_554 S
C2430 H2424 0.930 . S
C2430 C2431 1.367 . S
C2430 C2438 1.378 . S
C2431 C2430 1.367 . S
C2431 C2439 1.433 . S
C2432 H2428 0.929 1_554 S
C2432 C2434 1.378 . S
C2432 C2436 1.350 . S
C2433 C2436 1.463 1_556 S
C2433 C2438 1.350 . S
C2433 N2441 1.427 . S
C2434 H2425 0.930 . S
C2434 C2432 1.378 . S
C2434 C2435 1.367 . S
C2435 C2434 1.367 . S
C2435 C2437 1.433 . S
C2436 C2432 1.350 . S
C2436 C2433 1.463 1_554 S
C2436 N2440 1.427 . S
C2437 H2427 0.929 . S
C2437 C2435 1.433 . S
C2437 N2440 1.384 . S
C2438 H2429 0.929 1_556 S
C2438 C2430 1.378 . S
C2438 C2433 1.350 . S
C2439 H2426 0.929 . S
C2439 C2431 1.433 . S
C2439 N2441 1.384 . S
N2440 C2436 1.427 . S
N2440 C2437 1.384 . S
N2441 C2433 1.427 . S
N2441 C2439 1.384 . S
H2442 C2448 0.930 . S
H2443 C2452 0.930 . S
H2444 C2457 0.929 . S
H2445 C2455 0.929 . S
H2446 C2450 0.929 . S
H2447 C2456 0.929 . S
C2448 H2442 0.930 . S
C2448 C2449 1.367 . S
C2448 C2456 1.378 . S
C2449 C2448 1.367 . S
C2449 C2457 1.433 . S
C2450 H2446 0.929 . S
C2450 C2452 1.378 . S
C2450 C2454 1.350 . S
C2451 C2454 1.463 1_455 S
C2451 C2456 1.350 . S
C2451 N2459 1.427 . S
C2452 H2443 0.930 . S
C2452 C2450 1.378 . S
C2452 C2453 1.367 . S
C2453 C2452 1.367 . S
C2453 C2455 1.433 . S
C2454 C2450 1.350 . S
C2454 C2451 1.463 1_655 S
C2454 N2458 1.427 . S
C2455 H2445 0.929 . S
C2455 C2453 1.433 . S
C2455 N2458 1.384 . S
C2456 H2447 0.929 . S
C2456 C2448 1.378 . S
C2456 C2451 1.350 . S
C2457 H2444 0.929 . S
C2457 C2449 1.433 . S
C2457 N2459 1.384 . S
N2458 C2454 1.427 . S
N2458 C2455 1.384 . S
N2459 C2451 1.427 . S
N2459 C2457 1.384 . S
H2460 C2466 0.930 . S
H2461 C2470 0.930 . S
H2462 C2475 0.929 . S
H2463 C2473 0.929 . S
H2464 C2468 0.929 . S
H2465 C2474 0.929 . S
C2466 H2460 0.930 . S
C2466 C2467 1.367 . S
C2466 C2474 1.378 . S
C2467 C2466 1.367 . S
C2467 C2475 1.433 . S
C2468 H2464 0.929 . S
C2468 C2470 1.378 . S
C2468 C2472 1.350 . S
C2469 C2472 1.463 1_454 S
C2469 C2474 1.350 . S
C2469 N2477 1.433 . S
C2470 H2461 0.930 . S
C2470 C2468 1.378 . S
C2470 C2471 1.367 . S
C2471 C2470 1.367 . S
C2471 C2473 1.433 . S
C2472 C2468 1.350 . S
C2472 C2469 1.463 1_656 S
C2472 N2476 1.433 . S
C2473 H2463 0.929 . S
C2473 C2471 1.433 . S
C2473 N2476 1.395 . S
C2474 H2465 0.929 . S
C2474 C2466 1.378 . S
C2474 C2469 1.350 . S
C2475 H2462 0.929 . S
C2475 C2467 1.433 . S
C2475 N2477 1.395 . S
N2476 C2472 1.433 . S
N2476 C2473 1.395 . S
N2477 C2469 1.433 . S
N2477 C2475 1.395 . S
H2478 C2484 0.930 . S
H2479 C2488 0.930 . S
H2480 C2493 0.929 . S
H2481 C2491 0.929 . S
H2482 C2486 0.929 . S
H2483 C2492 0.929 . S
C2484 H2478 0.930 . S
C2484 C2485 1.367 . S
C2484 C2492 1.378 . S
C2485 C2484 1.367 . S
C2485 C2493 1.433 . S
C2486 H2482 0.929 . S
C2486 C2488 1.378 . S
C2486 C2490 1.350 . S
C2487 C2490 1.463 . S
C2487 C2492 1.350 . S
C2487 N2495 1.427 . S
C2488 H2479 0.930 . S
C2488 C2486 1.378 . S
C2488 C2489 1.367 . S
C2489 C2488 1.367 . S
C2489 C2491 1.433 . S
C2490 C2486 1.350 . S
C2490 C2487 1.463 . S
C2490 N2494 1.427 . S
C2491 H2481 0.929 . S
C2491 C2489 1.433 . S
C2491 N2494 1.384 . S
C2492 H2483 0.929 . S
C2492 C2484 1.378 . S
C2492 C2487 1.350 . S
C2493 H2480 0.929 . S
C2493 C2485 1.433 . S
C2493 N2495 1.384 . S
N2494 C2490 1.427 . S
N2494 C2491 1.384 . S
N2495 C2487 1.427 . S
N2495 C2493 1.384 . S
C1063 N5 1.482 . S
C1067 C919 1.460 . S
C1081 N38 1.482 . S
C1085 C292 1.463 . S
C1099 C853 1.460 . S
C1103 N71 1.482 . S
C1117 C358 1.457 . S
C1121 N104 1.482 . S
C1135 C985 1.463 . S
C1139 N137 1.483 . S
C1153 N170 1.482 . S
C1157 C490 1.465 . S
C1171 N203 1.484 . S
C1175 C1051 1.459 . S
C1189 C424 1.457 . S
C1193 N236 1.482 . S
C1207 N269 1.482 . S
C1211 C655 1.457 . S
C1225 N302 1.484 . S
C1229 C28 1.459 . S
C1243 N335 1.482 . S
C1247 C589 1.463 . S
C1261 C94 1.459 . S
C1265 N368 1.484 . S
C1279 N401 1.482 . S
C1283 C721 1.463 . S
C1297 N434 1.482 . S
C1301 C226 1.465 . S
C1315 C787 1.459 . S
C1319 N467 1.482 . S
C1333 N500 1.484 . S
C1337 C160 1.461 . S
C1351 N533 1.482 . S
C1355 C391 1.461 . S
C1369 C820 1.455 . S
C1373 N566 1.482 . S
C1387 C325 1.458 . S
C1391 N599 1.484 . S
C1405 N632 1.483 . S
C1409 C886 1.455 . S
C1423 N665 1.484 . S
C1427 C457 1.460 . S
C1441 C1018 1.460 . S
C1445 N698 1.482 . S
C1459 N731 1.482 . S
C1463 C523 1.461 . S
C1477 C952 1.457 . S
C1481 N764 1.484 . S
C1495 N797 1.483 . S
C1499 C127 1.465 . S
C1513 C556 1.455 . S
C1517 N830 1.483 . S
C1531 N863 1.483 . S
C1535 C61 1.456 . S
C1549 C622 1.455 . S
C1553 N896 1.483 . S
C1567 N929 1.482 . S
C1571 C193 1.461 . S
C1585 C754 1.459 . S
C1589 N962 1.484 . S
C1603 C259 1.458 . S
C1607 N995 1.482 . S
C1621 N1028 1.482 . S
C1625 C688 1.464 . S
C1639 N14 1.471 . S
C1643 N146 1.472 . S
C1657 N47 1.471 . S
C1661 N179 1.461 . S
C1675 N212 1.465 . S
C1679 N80 1.473 . S
C1693 N113 1.456 . S
C1697 N245 1.465 . S
C1711 N278 1.463 . S
C1715 N410 1.456 . S
C1729 N311 1.460 . S
C1733 N443 1.469 . S
C1747 N344 1.458 . S
C1751 N476 1.455 . S
C1765 N377 1.472 . S
C1769 N509 1.463 . S
C1783 N542 1.469 . S
C1787 N674 1.473 . S
C1801 N707 1.460 . S
C1805 N575 1.455 . S
C1819 N740 1.462 . S
C1823 N608 1.455 . S
C1837 N773 1.456 . S
C1841 N641 1.465 . S
C1855 N938 1.473 . S
C1859 N806 1.467 . S
C1873 N839 1.464 . S
C1877 N971 1.472 . S
C1891 N872 1.456 . S
C1895 N1004 1.457 . S
C1909 N1037 1.468 . S
C1913 N905 1.458 . S
C1927 C173 1.868 . S
C1931 C8 1.870 . S
C1945 C206 1.869 . S
C1949 C41 1.869 . S
C1963 C239 1.868 . S
C1967 C74 1.870 . S
C1981 C140 1.868 . S
C1985 C107 1.870 . S
C1999 C437 1.869 . S
C2003 C272 1.870 . S
C2017 C470 1.870 . S
C2021 C305 1.868 . S
C2035 C338 1.870 . S
C2039 C503 1.868 . S
C2053 C371 1.869 . S
C2057 C404 1.870 . S
C2071 C701 1.870 . S
C2075 C536 1.868 . S
C2089 C569 1.869 . S
C2093 C734 1.869 . S
C2107 C767 1.870 . S
C2111 C602 1.868 . S
C2125 C635 1.869 . S
C2129 C668 1.870 . S
C2143 C965 1.870 . S
C2147 C800 1.868 . S
C2161 C833 1.869 . S
C2165 C998 1.870 . S
C2179 C866 1.870 . S
C2183 C1031 1.868 . S
C2197 C932 1.869 . S
C2201 C899 1.870 . S
C2215 C809 1.117 . S
C2219 C17 1.117 . S
C2233 C50 1.109 . S
C2237 C314 1.109 . S
C2251 C83 1.122 . S
C2255 C875 1.122 . S
C2269 C116 1.115 . S
C2273 C380 1.115 . S
C2287 C149 1.109 . S
C2291 C941 1.109 . S
C2305 C446 1.109 . S
C2309 C182 1.109 . S
C2323 C1007 1.120 . S
C2327 C215 1.120 . S
C2341 C512 1.116 . S
C2345 C248 1.116 . S
C2359 C281 1.110 . S
C2363 C545 1.110 . S
C2377 C611 1.111 . S
C2381 C347 1.111 . S
C2395 C413 1.122 . S
C2399 C677 1.122 . S
C2413 C479 1.110 . S
C2417 C743 1.110 . S
C2431 C842 1.118 . S
C2435 C578 1.118 . S
C2449 C908 1.109 . S
C2453 C644 1.109 . S
C2467 C974 1.109 . S
C2471 C710 1.109 . S
C2485 C776 1.109 . S
C2489 C1040 1.109 . S
