# Generated by pormake.
# Topology umj, (4)-cn, num edge types: 1
# Building blocks:
#     Node 0, Type 0, BuildingBlock: ESEHIV_clean_sbu_0, # of connection points: 4
#     Node 1, Type 0, BuildingBlock: ESEHIV_clean_sbu_0, # of connection points: 4
#     Node 2, Type 0, BuildingBlock: ESEHIV_clean_sbu_0, # of connection points: 4
#     Node 3, Type 0, BuildingBlock: ESEHIV_clean_sbu_0, # of connection points: 4
#     Node 4, Type 0, BuildingBlock: ESEHIV_clean_sbu_0, # of connection points: 4
#     Node 5, Type 0, BuildingBlock: ESEHIV_clean_sbu_0, # of connection points: 4
#     Node 6, Type 0, BuildingBlock: ESEHIV_clean_sbu_0, # of connection points: 4
#     Node 7, Type 0, BuildingBlock: ESEHIV_clean_sbu_0, # of connection points: 4
#     Node 8, Type 0, BuildingBlock: ESEHIV_clean_sbu_0, # of connection points: 4
#     Node 9, Type 0, BuildingBlock: ESEHIV_clean_sbu_0, # of connection points: 4
#     Node 10, Type 0, BuildingBlock: ESEHIV_clean_sbu_0, # of connection points: 4
#     Node 11, Type 0, BuildingBlock: ESEHIV_clean_sbu_0, # of connection points: 4
#     Edge 12, Type (0, 0), BuildingBlock: ZUJKAS_clean_linker_0, # of connection points: 2
#     Edge 13, Type (0, 0), BuildingBlock: ZUJKAS_clean_linker_0, # of connection points: 2
#     Edge 14, Type (0, 0), BuildingBlock: ZUJKAS_clean_linker_0, # of connection points: 2
#     Edge 15, Type (0, 0), BuildingBlock: ZUJKAS_clean_linker_0, # of connection points: 2
#     Edge 16, Type (0, 0), BuildingBlock: ZUJKAS_clean_linker_0, # of connection points: 2
#     Edge 17, Type (0, 0), BuildingBlock: ZUJKAS_clean_linker_0, # of connection points: 2
#     Edge 18, Type (0, 0), BuildingBlock: ZUJKAS_clean_linker_0, # of connection points: 2
#     Edge 19, Type (0, 0), BuildingBlock: ZUJKAS_clean_linker_0, # of connection points: 2
#     Edge 20, Type (0, 0), BuildingBlock: ZUJKAS_clean_linker_0, # of connection points: 2
#     Edge 21, Type (0, 0), BuildingBlock: ZUJKAS_clean_linker_0, # of connection points: 2
#     Edge 22, Type (0, 0), BuildingBlock: ZUJKAS_clean_linker_0, # of connection points: 2
#     Edge 23, Type (0, 0), BuildingBlock: ZUJKAS_clean_linker_0, # of connection points: 2
#     Edge 24, Type (0, 0), BuildingBlock: ZUJKAS_clean_linker_0, # of connection points: 2
#     Edge 25, Type (0, 0), BuildingBlock: ZUJKAS_clean_linker_0, # of connection points: 2
#     Edge 26, Type (0, 0), BuildingBlock: ZUJKAS_clean_linker_0, # of connection points: 2
#     Edge 27, Type (0, 0), BuildingBlock: ZUJKAS_clean_linker_0, # of connection points: 2
#     Edge 28, Type (0, 0), BuildingBlock: ZUJKAS_clean_linker_0, # of connection points: 2
#     Edge 29, Type (0, 0), BuildingBlock: ZUJKAS_clean_linker_0, # of connection points: 2
#     Edge 30, Type (0, 0), BuildingBlock: ZUJKAS_clean_linker_0, # of connection points: 2
#     Edge 31, Type (0, 0), BuildingBlock: ZUJKAS_clean_linker_0, # of connection points: 2
#     Edge 32, Type (0, 0), BuildingBlock: ZUJKAS_clean_linker_0, # of connection points: 2
#     Edge 33, Type (0, 0), BuildingBlock: ZUJKAS_clean_linker_0, # of connection points: 2
#     Edge 34, Type (0, 0), BuildingBlock: ZUJKAS_clean_linker_0, # of connection points: 2
#     Edge 35, Type (0, 0), BuildingBlock: ZUJKAS_clean_linker_0, # of connection points: 2
# Relax obj value: 0.040
# Max RMSD: 0.094
# Mean RMSD: 0.084
data_MOF--net-umj--node1-ESEHIV_clean_sbu_0--edge1-ZUJKAS_clean_linker_0
_symmetry_space_group_name_H-M    P1
_symmetry_Int_Tables_number       1
_symmetry_cell_setting            triclinic
loop_
_symmetry_equiv_pos_as_xyz
'x, y, z'
_cell_length_a     37.751953
_cell_length_b     43.133957
_cell_length_c     113.49218
_cell_angle_alpha  90.079336
_cell_angle_beta   90.136382
_cell_angle_gamma 116.0076
loop_
_atom_site_label
_atom_site_type_symbol
_atom_site_fract_x
_atom_site_fract_y
_atom_site_fract_z
_atom_type_partial_charge
Cu0 Cu 0.07354 0.28432 0.09996 0.0
N1 N 0.04099 0.23705 0.09945 0.0
N2 N 1.02354 0.18055 0.0978 0.0
C3 C 0.05066 0.21275 0.09508 0.0
C4 C 0.99576 0.18494 0.1041 0.0
C5 C 1.00679 0.21976 0.10519 0.0
O6 O 0.10664 0.29623 0.08588 0.0
C7 C 0.12592 0.31962 0.11959 0.0
O8 O 0.13853 0.34838 0.11354 0.0
H9 H 0.07793 0.21876 0.09047 0.0
H10 H 0.99216 0.23162 0.11043 0.0
N11 N 0.04284 0.30869 0.09995 0.0
N12 N 1.02615 0.35241 0.09958 0.0
C13 C 0.05561 0.34303 0.1011 0.0
C14 C 1.004 0.29603 0.0976 0.0
C15 C 0.99363 0.32289 0.09738 0.0
C16 C 0.09044 0.29851 0.07626 0.0
O17 O 0.05361 0.29368 0.07644 0.0
H18 H 0.08615 0.36097 0.10246 0.0
H19 H 0.98477 0.26932 0.09568 0.0
O20 O 0.10127 0.29152 0.11495 0.0
H21 H 0.97064 0.1646 0.10831 0.0
H22 H 0.96454 0.32088 0.09558 0.0
Cu23 Cu 0.81803 0.09004 0.42547 0.0
N24 N 0.82469 0.10238 0.44148 0.0
N25 N 0.82115 0.09719 0.46112 0.0
C26 C 0.80901 0.08088 0.45065 0.0
C27 C 0.84531 0.13025 0.4584 0.0
C28 C 0.84735 0.13339 0.4463 0.0
O29 O 0.7611 0.06579 0.42228 0.0
C30 C 0.88536 0.0812 0.42526 0.0
O31 O 0.89727 0.11239 0.42963 0.0
H32 H 0.78997 0.0536 0.44965 0.0
H33 H 0.86478 0.15651 0.44136 0.0
N34 N 0.83959 0.12909 0.41578 0.0
N35 N 0.87189 0.16329 0.40073 0.0
C36 C 0.86033 0.13208 0.40584 0.0
C37 C 0.83782 0.15939 0.41701 0.0
C38 C 0.85767 0.18052 0.40775 0.0
C39 C 0.74035 0.08 0.42643 0.0
O40 O 0.7583 0.10893 0.43238 0.0
H41 H 0.86628 0.11148 0.40236 0.0
H42 H 0.82322 0.16574 0.42415 0.0
O43 O 0.849 0.06435 0.42252 0.0
H44 H 0.86048 0.15071 0.4647 0.0
H45 H 0.86167 0.20668 0.4064 0.0
Cu46 Cu 0.77259 0.7686 0.77577 0.0
N47 N 0.78925 0.81509 0.77958 0.0
N48 N 0.83347 0.86965 0.78301 0.0
C49 C 0.82703 0.83634 0.78216 0.0
C50 C 0.79797 0.86917 0.78087 0.0
C51 C 0.77082 0.83552 0.7787 0.0
O52 O 0.7839 0.76784 0.75897 0.0
C53 C 0.78668 0.75059 0.79736 0.0
O54 O 0.75896 0.76068 0.79914 0.0
H55 H 0.84978 0.82756 0.78271 0.0
H56 H 0.7404 0.82694 0.7761 0.0
N57 N 0.71853 0.74027 0.77805 0.0
N58 N 0.66277 0.69116 0.77921 0.0
C59 C 0.70166 0.70576 0.77665 0.0
C60 C 0.68942 0.74798 0.78167 0.0
C61 C 0.65501 0.71778 0.78237 0.0
C62 C 0.75838 0.77033 0.75212 0.0
O63 O 0.72734 0.77181 0.75676 0.0
H64 H 0.71811 0.6917 0.77407 0.0
H65 H 0.69294 0.77358 0.78382 0.0
O66 O 0.79983 0.75193 0.78693 0.0
H67 H 0.79209 0.89155 0.78056 0.0
H68 H 0.62655 0.71577 0.785 0.0
Cu69 Cu 0.98829 0.75216 0.10014 0.0
N70 N 1.01963 0.79932 0.10178 0.0
N71 N 0.03912 0.85623 0.10113 0.0
C72 C 1.0102 0.82472 0.09849 0.0
C73 C 0.06789 0.85025 0.10624 0.0
C74 C 0.05572 0.81511 0.10665 0.0
O75 O 0.95439 0.74544 0.08652 0.0
C76 C 0.94198 0.7493 0.1201 0.0
O77 O 0.9381 0.77477 0.11485 0.0
H78 H 0.98264 0.82006 0.09423 0.0
H79 H 0.07183 0.80192 0.11033 0.0
N80 N 1.02067 0.73064 0.09713 0.0
N81 N 0.04191 0.68993 0.09585 0.0
C82 C 1.01537 0.69919 0.10074 0.0
C83 C 0.05173 0.74181 0.08981 0.0
C84 C 0.0649 0.71673 0.08898 0.0
C85 C 0.94018 0.71752 0.0806 0.0
O86 O 0.94427 0.69071 0.0846 0.0
H87 H 0.99125 0.68274 0.10632 0.0
H88 H 0.06313 0.76604 0.08511 0.0
O89 O 0.96048 0.73476 0.11486 0.0
H90 H 0.09536 0.86978 0.10971 0.0
H91 H 0.08905 0.71787 0.08359 0.0
Cu92 Cu 0.24643 0.95268 0.42528 0.0
N93 N 0.24108 0.9393 0.44106 0.0
N94 N 0.24563 0.94373 0.46069 0.0
C95 C 0.25969 0.95959 0.45031 0.0
C96 C 0.2172 0.91222 0.45784 0.0
C97 C 0.21445 0.90958 0.44573 0.0
O98 O 0.30332 0.97798 0.42225 0.0
C99 C 0.2099 0.9929 0.41459 0.0
O100 O 0.2287 0.99332 0.40481 0.0
H101 H 0.28162 0.98608 0.44943 0.0
H102 H 0.1935 0.88801 0.44069 0.0
N103 N 0.22299 0.91322 0.41572 0.0
N104 N 0.18976 0.87752 0.40101 0.0
C105 C 0.1999 0.90856 0.40615 0.0
C106 C 0.22718 0.88393 0.41676 0.0
C107 C 0.20687 0.86194 0.40769 0.0
C108 C 0.32112 0.96965 0.4142 0.0
O109 O 0.30026 0.94578 0.40651 0.0
H110 H 0.19161 0.92787 0.4028 0.0
H111 H 0.24447 0.87922 0.42352 0.0
O112 O 0.21622 0.97934 0.42382 0.0
H113 H 0.19914 0.89271 0.46406 0.0
H114 H 0.20511 0.83655 0.40612 0.0
Cu115 Cu 0.28031 0.25908 0.77765 0.0
N116 N 0.26051 0.21404 0.78345 0.0
N117 N 0.21414 0.16083 0.78742 0.0
C118 C 0.22302 0.19065 0.78164 0.0
C119 C 0.24777 0.16573 0.79308 0.0
C120 C 0.2763 0.19869 0.79066 0.0
O121 O 0.26729 0.25562 0.76085 0.0
C122 C 0.27257 0.28848 0.79821 0.0
O123 O 0.30274 0.28196 0.80051 0.0
H124 H 0.20266 0.1958 0.77619 0.0
H125 H 0.30599 0.21085 0.79415 0.0
N126 N 0.33519 0.2843 0.77864 0.0
N127 N 0.39341 0.33102 0.77926 0.0
C128 C 0.35383 0.31898 0.77915 0.0
C129 C 0.36391 0.27383 0.77833 0.0
C130 C 0.39994 0.30267 0.7787 0.0
C131 C 0.27582 0.23398 0.75532 0.0
O132 O 0.29127 0.21675 0.76125 0.0
H133 H 0.33846 0.33507 0.77919 0.0
H134 H 0.35903 0.24723 0.77774 0.0
O135 O 0.2569 0.28137 0.78797 0.0
H136 H 0.25126 0.14733 0.79886 0.0
H137 H 0.42863 0.30271 0.77862 0.0
Cu138 Cu 0.75572 0.95781 0.61227 0.0
N139 N 0.75466 0.94563 0.5964 0.0
N140 N 0.75714 0.94935 0.57672 0.0
C141 C 0.75152 0.96299 0.58688 0.0
C142 C 0.76352 0.92214 0.58 0.0
C143 C 0.76196 0.91992 0.59212 0.0
O144 O 0.72124 0.98096 0.6142 0.0
C145 C 0.83838 1.00129 0.60976 0.0
O146 O 0.82937 1.00563 0.5989 0.0
H147 H 0.74758 0.98634 0.58745 0.0
H148 H 0.76724 0.90164 0.59748 0.0
N149 N 0.73795 0.91781 0.62142 0.0
N150 N 0.73435 0.88223 0.63619 0.0
C151 C 0.75403 0.91421 0.63163 0.0
C152 C 0.70721 0.88707 0.61936 0.0
C153 C 0.70481 0.8651 0.62848 0.0
C154 C 0.69374 0.97172 0.62184 0.0
O155 O 0.69054 0.94808 0.6296 0.0
H156 H 0.77918 0.93492 0.63575 0.0
H157 H 0.68786 0.88116 0.61179 0.0
O158 O 0.81073 0.98485 0.617 0.0
H159 H 0.76969 0.90543 0.57409 0.0
H160 H 0.68313 0.83852 0.62932 0.0
Cu161 Cu 0.80346 0.74743 0.94106 0.0
N162 N 0.8195 0.7951 0.9418 0.0
N163 N 0.85833 0.85182 0.94079 0.0
C164 C 0.8558 0.81982 0.93937 0.0
C165 C 0.8219 0.84699 0.94402 0.0
C166 C 0.79802 0.81207 0.94457 0.0
O167 O 0.82529 0.73296 0.95434 0.0
C168 C 0.80271 0.74588 0.91695 0.0
O169 O 0.77868 0.75977 0.91925 0.0
H170 H 0.87973 0.81436 0.93644 0.0
H171 H 0.76712 0.80015 0.94676 0.0
N172 N 0.74896 0.72368 0.9429 0.0
N173 N 0.68776 0.68119 0.94221 0.0
C174 C 0.72445 0.69391 0.93764 0.0
C175 C 0.72724 0.7296 0.95119 0.0
C176 C 0.68941 0.70372 0.95069 0.0
C177 C 0.85981 0.74911 0.95861 0.0
O178 O 0.88588 0.77609 0.95305 0.0
H179 H 0.73376 0.68117 0.93095 0.0
H180 H 0.73866 0.75004 0.95768 0.0
O181 O 0.81792 0.73708 0.92559 0.0
H182 H 0.81317 0.86717 0.94604 0.0
H183 H 0.66568 0.70046 0.95665 0.0
Cu184 Cu 0.03748 0.76882 0.26106 0.0
N185 N 0.06604 0.81518 0.25707 0.0
N186 N 0.07426 0.86943 0.25453 0.0
C187 C 0.05376 0.83906 0.26006 0.0
C188 C 0.10102 0.86444 0.24789 0.0
C189 C 0.0957 0.83085 0.24942 0.0
O190 O 1.02533 0.76827 0.27783 0.0
C191 C 1.00335 0.74642 0.23963 0.0
O192 O 0.04036 0.75339 0.23768 0.0
H193 H 1.029 0.8335 0.26584 0.0
H194 H 0.11075 0.81828 0.24475 0.0
N195 N 0.06464 0.74164 0.25913 0.0
N196 N 0.07259 0.69332 0.25775 0.0
C197 C 0.04679 0.70692 0.25919 0.0
C198 C 0.10323 0.75049 0.25758 0.0
C199 C 0.10824 0.72067 0.25678 0.0
C200 C 0.0555 0.77602 0.28441 0.0
O201 O 0.08958 0.78317 0.27945 0.0
H202 H 1.01539 0.69197 0.26043 0.0
H203 H 0.12609 0.77668 0.25715 0.0
O204 O 0.99327 0.75099 0.24997 0.0
H205 H 0.12144 0.88297 0.24182 0.0
H206 H 0.13588 0.71924 0.25547 0.0
Cu207 Cu 0.31475 0.08881 0.6107 0.0
N208 N 0.32189 0.10314 0.59498 0.0
N209 N 0.32163 0.09935 0.57532 0.0
C210 C 0.32186 0.08383 0.58563 0.0
C211 C 0.32162 0.12964 0.57832 0.0
C212 C 0.32171 0.13187 0.59045 0.0
O213 O 0.3485 0.06565 0.61382 0.0
C214 C 0.237 0.04512 0.62069 0.0
O215 O 0.25416 0.04196 0.63039 0.0
H216 H 0.31979 0.05807 0.5864 0.0
H217 H 0.31999 0.1523 0.59559 0.0
N218 N 0.3291 0.12698 0.6208 0.0
N219 N 0.32981 0.15949 0.63632 0.0
C220 C 0.31245 0.12798 0.63121 0.0
C221 C 0.35803 0.15902 0.61927 0.0
C222 C 0.3585 0.17913 0.62879 0.0
C223 C 0.38421 0.08174 0.6104 0.0
O224 O 0.39528 0.11193 0.60534 0.0
H225 H 0.28785 0.10613 0.63493 0.0
H226 H 0.37759 0.16717 0.61176 0.0
O227 O 0.25795 0.06101 0.6119 0.0
H228 H 0.32064 0.14847 0.5722 0.0
H229 H 0.37897 0.20589 0.63017 0.0
Cu230 Cu 0.2485 0.28116 0.93762 0.0
N231 N 0.23455 0.23462 0.9351 0.0
N232 N 0.19781 0.1777 0.93404 0.0
C233 C 0.19932 0.20827 0.93741 0.0
C234 C 0.23365 0.18516 0.92949 0.0
C235 C 0.25622 0.22037 0.93012 0.0
O236 O 0.22136 0.28496 0.95171 0.0
C237 C 0.20418 0.28446 0.91772 0.0
O238 O 0.17507 0.25798 0.92262 0.0
H239 H 0.17522 0.21159 0.94143 0.0
H240 H 0.28604 0.23466 0.92696 0.0
N241 N 0.30256 0.30419 0.94026 0.0
N242 N 0.36394 0.3463 0.94074 0.0
C243 C 0.32629 0.33709 0.93741 0.0
C244 C 0.32584 0.29207 0.94556 0.0
C245 C 0.36383 0.318 0.94584 0.0
C246 C 0.2321 0.31271 0.95763 0.0
O247 O 0.25998 0.34142 0.95347 0.0
H248 H 0.31604 0.35388 0.933 0.0
H249 H 0.31577 0.26633 0.94909 0.0
O250 O 0.23674 0.29947 0.92325 0.0
H251 H 0.24252 0.16667 0.92566 0.0
H252 H 0.38913 0.31641 0.94977 0.0
Cu253 Cu 1.01596 0.25874 0.26107 0.0
N254 N 0.9871 0.21124 0.25868 0.0
N255 N 0.97819 0.15668 0.25644 0.0
C256 C 1.00439 0.1903 0.25666 0.0
C257 C 0.94283 0.15657 0.25842 0.0
C258 C 0.94845 0.19027 0.25984 0.0
O259 O 0.03179 0.26382 0.27767 0.0
C260 C 0.04122 0.26875 0.23868 0.0
O261 O 1.00261 0.25229 0.23792 0.0
H262 H 0.03598 0.19972 0.25594 0.0
H263 H 0.92614 0.19866 0.262 0.0
N264 N 0.98794 0.28492 0.25861 0.0
N265 N 0.9791 0.33292 0.25741 0.0
C266 C 1.00438 0.31939 0.26001 0.0
C267 C 0.95085 0.27604 0.25492 0.0
C268 C 0.94528 0.30559 0.25419 0.0
C269 C 1.00388 0.25997 0.28474 0.0
O270 O 0.96944 0.25449 0.28033 0.0
H271 H 0.03481 0.3342 0.26261 0.0
H272 H 0.92953 0.25011 0.25277 0.0
O273 O 0.0568 0.27483 0.24894 0.0
H274 H 0.91493 0.13384 0.25901 0.0
H275 H 0.91834 0.30669 0.25151 0.0
H276 H 0.12247 0.30072 0.23548 0.0
H277 H 0.15776 0.32023 0.21659 0.0
H278 H 0.04653 0.28303 0.19825 0.0
H279 H 1.01162 0.2637 0.21667 0.0
H280 H 0.14842 0.2779 0.19471 0.0
H281 H 0.10893 0.38577 0.18783 0.0
H282 H 0.10861 0.36759 0.2022 0.0
H283 H 0.06753 0.34684 0.1923 0.0
C284 C 0.10571 0.29681 0.2274 0.0
C285 C 0.06421 0.28073 0.22762 0.0
C286 C 0.12584 0.30794 0.21664 0.0
C287 C 0.10467 0.30354 0.20606 0.0
C288 C 0.06346 0.28722 0.20632 0.0
H289 H 0.10207 0.26487 0.13465 0.0
H290 H 0.10902 0.26621 0.15597 0.0
C291 C 0.04353 0.27601 0.21692 0.0
C292 C 0.12437 0.31485 0.19448 0.0
H293 H 0.12075 0.36006 0.17024 0.0
C294 C 0.14344 0.29658 0.18943 0.0
C295 C 0.11846 0.33958 0.18764 0.0
C296 C 0.10011 0.36134 0.19281 0.0
C297 C 0.15364 0.30027 0.17741 0.0
C298 C 0.14374 0.32227 0.17026 0.0
C299 C 0.12794 0.34281 0.17562 0.0
C300 C 0.14484 0.3214 0.15714 0.0
C301 C 0.17381 0.27975 0.17245 0.0
C302 C 0.16234 0.35203 0.15056 0.0
C303 C 0.15792 0.35142 0.13827 0.0
C304 C 0.13566 0.32016 0.13232 0.0
C305 C 0.11953 0.28943 0.1389 0.0
C306 C 0.12384 0.29009 0.15114 0.0
H307 H 0.19274 0.2758 0.17922 0.0
H308 H 0.15119 0.2539 0.16971 0.0
H309 H 0.19222 0.29266 0.16469 0.0
H310 H 0.17841 0.37657 0.15498 0.0
H311 H 0.17069 0.37557 0.13351 0.0
H312 H 0.75322 0.0436 0.46804 0.0
H313 H 0.73731 1.01829 0.48777 0.0
H314 H 0.85216 0.09074 0.50013 0.0
H315 H 0.86775 0.1165 0.48053 0.0
H316 H 0.76934 0.98632 0.50066 0.0
H317 H 0.78442 0.10242 0.5251 0.0
H318 H 0.78343 0.10046 0.50922 0.0
H319 H 0.82847 0.1101 0.51716 0.0
C320 C 0.775 0.05414 0.47498 0.0
C321 C 0.81163 0.08224 0.47274 0.0
C322 C 0.76586 0.03974 0.48627 0.0
C323 C 0.79318 0.05303 0.49554 0.0
C324 C 0.83003 0.08071 0.49325 0.0
H325 H 0.80304 0.94617 0.55891 0.0
H326 H 0.80895 0.97029 0.53918 0.0
C327 C 0.839 0.09536 0.48202 0.0
C328 C 0.78384 0.03712 0.50748 0.0
H329 H 0.78403 0.05595 0.53675 0.0
C330 C 0.7722 1.00153 0.50854 0.0
C331 C 0.78676 0.0567 0.51778 0.0
C332 C 0.79602 0.09445 0.51726 0.0
C333 C 0.76471 0.98525 0.51959 0.0
C334 C 0.77011 1.00526 0.52994 0.0
C335 C 0.78043 0.04063 0.52886 0.0
C336 C 0.76602 0.99021 0.54196 0.0
C337 C 0.75061 0.94668 0.52002 0.0
C338 C 0.74094 0.99432 0.55031 0.0
C339 C 0.73792 0.98089 0.5617 0.0
C340 C 0.75982 0.96297 0.56497 0.0
C341 C 0.78507 0.9591 0.55661 0.0
C342 C 0.78839 0.97283 0.54529 0.0
H343 H 0.73558 0.93417 0.51169 0.0
H344 H 0.77635 0.94097 0.52118 0.0
H345 H 0.72996 0.93497 0.52745 0.0
H346 H 0.72355 1.00781 0.548 0.0
H347 H 0.71815 0.9842 0.56792 0.0
H348 H 0.74272 0.70999 0.81472 0.0
H349 H 0.76487 0.70325 0.83428 0.0
H350 H 0.88591 0.75918 0.82332 0.0
H351 H 0.86342 0.76637 0.80352 0.0
H352 H 0.81376 0.67833 0.84486 0.0
H353 H 0.87416 0.8214 0.84876 0.0
H354 H 0.84375 0.79825 0.83646 0.0
H355 H 0.89386 0.80433 0.83743 0.0
C356 C 0.7741 0.71999 0.81637 0.0
C357 C 0.80138 0.7389 0.80767 0.0
C358 C 0.78676 0.71606 0.82756 0.0
C359 C 0.82703 0.73125 0.83036 0.0
C360 C 0.85464 0.74767 0.82139 0.0
H361 H 0.85453 0.72184 0.90828 0.0
H362 H 0.87022 0.7176 0.88746 0.0
C363 C 0.84185 0.75146 0.81006 0.0
C364 C 0.83843 0.73349 0.84301 0.0
H365 H 0.86409 0.79004 0.86613 0.0
C366 C 0.8259 0.7028 0.84952 0.0
C367 C 0.85396 0.76546 0.84908 0.0
C368 C 0.86708 0.79931 0.84265 0.0
C369 C 0.82566 0.70308 0.86192 0.0
C370 C 0.83867 0.73491 0.86794 0.0
C371 C 0.85415 0.76569 0.86146 0.0
C372 C 0.83004 0.73677 0.88062 0.0
C373 C 0.80856 0.6693 0.86848 0.0
C374 C 0.80249 0.74903 0.88366 0.0
C375 C 0.79359 0.75151 0.89542 0.0
C376 C 0.81209 0.74186 0.90451 0.0
C377 C 0.83966 0.72936 0.90149 0.0
C378 C 0.8486 0.72687 0.88961 0.0
H379 H 0.79705 0.64671 0.86243 0.0
H380 H 0.83163 0.66766 0.87416 0.0
H381 H 0.78425 0.66785 0.87429 0.0
H382 H 0.78769 0.75668 0.87687 0.0
H383 H 0.77218 0.76119 0.89737 0.0
H384 H 0.95385 0.70366 0.13442 0.0
H385 H 0.94361 0.69671 0.15564 0.0
H386 H 0.89381 0.76959 0.15553 0.0
H387 H 0.90473 0.77726 0.13427 0.0
H388 H 0.95113 0.78638 0.17155 0.0
H389 H 0.85047 0.64836 0.17692 0.0
H390 H 0.89194 0.654 0.16799 0.0
H391 H 0.85778 0.66996 0.16288 0.0
C392 C 0.93995 0.7177 0.13884 0.0
C393 C 0.93026 0.74113 0.13262 0.0
C394 C 0.9338 0.71348 0.151 0.0
C395 C 0.91738 0.73223 0.1572 0.0
C396 C 0.90628 0.75466 0.15094 0.0
H397 H 0.94364 0.76472 0.23458 0.0
H398 H 0.9112 0.75873 0.21527 0.0
C399 C 0.91254 0.759 0.13877 0.0
C400 C 0.91629 0.73141 0.17031 0.0
H401 H 0.89191 0.67655 0.19381 0.0
C402 C 0.93729 0.76247 0.17646 0.0
C403 C 0.89812 0.70025 0.17673 0.0
C404 C 0.87297 0.66633 0.17078 0.0
C405 C 0.94314 0.76293 0.1887 0.0
C406 C 0.9271 0.73148 0.19501 0.0
C407 C 0.90414 0.70065 0.18898 0.0
C408 C 0.93938 0.72964 0.20733 0.0
C409 C 0.96883 0.79676 0.19465 0.0
C410 C 0.96415 0.71374 0.20942 0.0
C411 C 0.98248 0.71712 0.22034 0.0
C412 C 0.97612 0.73616 0.22945 0.0
C413 C 0.94878 0.74971 0.22772 0.0
C414 C 0.93059 0.74657 0.21668 0.0
H415 H 0.9829 0.8181 0.18824 0.0
H416 H 0.95065 0.80385 0.20076 0.0
H417 H 0.99233 0.79434 0.19991 0.0
H418 H 0.97131 0.70052 0.20237 0.0
H419 H 1.00333 0.70632 0.22145 0.0
H420 H 0.35129 0.05614 0.56756 0.0
H421 H 0.3437 0.03063 0.54785 0.0
H422 H 0.27457 0.0832 0.53714 0.0
H423 H 0.28296 0.10931 0.55668 0.0
H424 H 0.28041 0.98789 0.53638 0.0
H425 H 0.35019 0.10774 0.51033 0.0
H426 H 0.3538 0.10758 0.52617 0.0
H427 H 0.31076 0.10733 0.51919 0.0
C428 C 0.33469 0.06237 0.56096 0.0
C429 C 0.31804 0.08498 0.56364 0.0
C430 C 0.33041 0.04785 0.5497 0.0
C431 C 0.30922 0.05549 0.54089 0.0
C432 C 0.29216 0.07774 0.54362 0.0
H433 H 0.19774 0.93056 0.47963 0.0
H434 H 0.21505 0.95706 0.49913 0.0
C435 C 0.29686 0.0926 0.55482 0.0
C436 C 0.30343 0.03903 0.52904 0.0
H437 H 0.31036 0.05626 0.49954 0.0
C438 C 0.28734 1.00289 0.52833 0.0
C439 C 0.31309 0.05851 0.5185 0.0
C440 C 0.33332 0.09743 0.51857 0.0
C441 C 0.27957 0.98571 0.51741 0.0
C442 C 0.28692 1.00511 0.50687 0.0
C443 C 0.30415 0.04129 0.50758 0.0
C444 C 0.27655 0.98848 0.49504 0.0
C445 C 0.26406 0.94697 0.51732 0.0
C446 C 0.30493 0.99804 0.48606 0.0
C447 C 0.29487 0.98328 0.47481 0.0
C448 C 0.25626 0.95851 0.47233 0.0
C449 C 0.22791 0.949 0.48133 0.0
C450 C 0.23784 0.96407 0.49251 0.0
H451 H 0.27257 0.93764 0.52547 0.0
H452 H 0.23139 0.93496 0.5169 0.0
H453 H 0.27515 0.93803 0.5096 0.0
H454 H 0.33495 1.01692 0.48775 0.0
H455 H 0.31737 0.99101 0.46808 0.0
H456 H 0.19452 0.2661 0.80378 0.0
H457 H 0.1689 0.27265 0.82309 0.0
H458 H 0.287 0.34032 0.83442 0.0
H459 H 0.31241 0.33373 0.81533 0.0
H460 H 0.19357 0.2506 0.84326 0.0
H461 H 0.22384 0.3873 0.8486 0.0
H462 H 0.22165 0.36786 0.83433 0.0
H463 H 0.26581 0.38266 0.84313 0.0
C464 C 0.21465 0.2835 0.81024 0.0
C465 C 0.25539 0.29956 0.80808 0.0
C466 C 0.20007 0.28705 0.82128 0.0
C467 C 0.22598 0.30725 0.83018 0.0
C468 C 0.2663 0.32521 0.82766 0.0
H469 H 0.26316 0.32943 0.90366 0.0
H470 H 0.26154 0.33571 0.88231 0.0
C471 C 0.28083 0.32132 0.81675 0.0
C472 C 0.21266 0.30544 0.84259 0.0
H473 H 0.21955 0.35576 0.86659 0.0
C474 C 0.19825 0.27344 0.84832 0.0
C475 C 0.2192 0.33531 0.84921 0.0
C476 C 0.23313 0.37017 0.84347 0.0
C477 C 0.1927 0.27077 0.86058 0.0
C478 C 0.20082 0.3009 0.86729 0.0
C479 C 0.21338 0.33268 0.86147 0.0
C480 C 0.19985 0.30026 0.88041 0.0
C481 C 0.18071 0.23604 0.86631 0.0
C482 C 0.16533 0.27927 0.88654 0.0
C483 C 0.16623 0.27538 0.89877 0.0
C484 C 0.20158 0.29275 0.90514 0.0
C485 C 0.23545 0.31554 0.89906 0.0
C486 C 0.23457 0.3192 0.88683 0.0
H487 H 0.18412 0.21727 0.86025 0.0
H488 H 0.19853 0.23845 0.87436 0.0
H489 H 0.14927 0.22532 0.86891 0.0
H490 H 0.13794 0.26505 0.88182 0.0
H491 H 0.13951 0.25787 0.90317 0.0
H492 H 0.07369 0.32455 0.05644 0.0
H493 H 0.10098 0.32799 0.03678 0.0
H494 H 0.17947 0.28761 0.05007 0.0
H495 H 0.15288 0.28509 0.07001 0.0
H496 H 0.21562 0.33833 0.03381 0.0
H497 H 0.07168 0.24413 1.01621 0.0
H498 H 0.06856 0.28063 0.0228 0.0
H499 H 0.0808 0.25226 0.03178 0.0
C500 C 0.097 0.31664 0.05523 0.0
C501 C 0.11085 0.30418 0.06476 0.0
C502 C 0.11239 0.3184 0.04395 0.0
C503 C 0.1414 0.30705 0.04185 0.0
C504 C 0.15675 0.29615 0.05145 0.0
H505 H 0.1875 0.25592 0.97087 0.0
H506 H 0.16748 0.25437 0.9914 0.0
C507 C 0.14165 0.29481 0.06284 0.0
C508 C 0.1548 0.30597 0.02959 0.0
H509 H 0.12066 0.27576 1.00198 0.0
C510 C 0.19493 0.32445 0.02686 0.0
C511 C 0.12794 0.28728 0.02054 0.0
C512 C 0.08493 0.26466 0.02299 0.0
C513 C 0.20872 0.32561 1.01528 0.0
C514 C 0.18147 0.30857 1.00611 0.0
C515 C 0.14153 0.28929 1.00893 0.0
C516 C 0.19364 0.30986 0.99356 0.0
C517 C 0.25245 0.34458 1.01305 0.0
C518 C 0.21425 0.34154 0.98778 0.0
C519 C 0.22604 0.34251 0.97604 0.0
C520 C 0.21685 0.31178 0.96975 0.0
C521 C 0.19502 0.28009 0.97542 0.0
C522 C 0.18363 0.27916 0.9872 0.0
H523 H 0.26974 0.34662 0.0212 0.0
H524 H 0.26189 0.33156 1.00614 0.0
H525 H 0.25971 0.37116 1.01006 0.0
H526 H 0.22124 0.3656 0.99234 0.0
H527 H 0.24257 0.36735 0.97192 0.0
H528 H 0.92302 0.14171 0.39093 0.0
H529 H 0.95955 0.16171 0.37251 0.0
H530 H 0.90765 0.23209 0.36754 0.0
H531 H 0.87114 0.2123 0.38589 0.0
H532 H 0.9316 0.15862 0.35024 0.0
H533 H 1.02294 0.29509 0.36216 0.0
H534 H 0.99659 0.26258 0.37302 0.0
H535 H 0.97157 0.28253 0.36465 0.0
C536 C 0.91934 0.16144 0.38593 0.0
C537 C 0.89415 0.17546 0.38996 0.0
C538 C 0.94046 0.173 0.37542 0.0
C539 C 0.93705 0.19895 0.36874 0.0
C540 C 0.91177 0.21282 0.3727 0.0
H541 H 0.96704 0.28101 0.30095 0.0
H542 H 0.9598 0.26775 0.32194 0.0
C543 C 0.89076 0.20137 0.38321 0.0
C544 C 0.95796 0.21023 0.35728 0.0
H545 H 1.01509 0.28204 0.34136 0.0
C546 C 0.95055 0.18551 0.34836 0.0
C547 C 0.98296 0.2453 0.35484 0.0
C548 C 0.99434 0.27283 0.36422 0.0
C549 C 0.96525 0.19517 0.33689 0.0
C550 C 0.98836 0.23047 0.3343 0.0
C551 C 0.9974 0.25499 0.34335 0.0
C552 C 0.99843 0.24271 0.32197 0.0
C553 C 0.95398 0.16781 0.32744 0.0
C554 C 1.02395 0.23431 0.31507 0.0
C555 C 1.02853 0.24227 0.30299 0.0
C556 C 1.00729 0.2584 0.29769 0.0
C557 C 0.98369 0.26848 0.30479 0.0
C558 C 0.97951 0.26092 0.3168 0.0
H559 H 0.93207 0.14219 0.3306 0.0
H560 H 0.94152 0.17523 0.31967 0.0
H561 H 0.98066 0.16535 0.32452 0.0
H562 H 0.03915 0.22052 0.31892 0.0
H563 H 0.04662 0.23395 0.29769 0.0
H564 H 0.82705 0.80622 0.73974 0.0
H565 H 0.83153 0.82512 0.71906 0.0
H566 H 0.70611 0.76455 0.71506 0.0
H567 H 0.70144 0.74627 0.73555 0.0
H568 H 0.80397 0.78966 0.69583 0.0
H569 H 0.72615 0.86655 0.70992 0.0
H570 H 0.74886 0.84893 0.72026 0.0
H571 H 0.70128 0.82195 0.71405 0.0
C572 C 0.80074 0.79619 0.73431 0.0
C573 C 0.76386 0.775 0.73924 0.0
C574 C 0.80327 0.80712 0.72254 0.0
C575 C 0.76898 0.79679 0.71562 0.0
C576 C 0.7328 0.77332 0.7203 0.0
H577 H 0.68166 0.8325 0.65015 0.0
H578 H 0.69454 0.81257 0.66912 0.0
C579 C 0.73022 0.76277 0.732 0.0
C580 C 0.76963 0.81255 0.70394 0.0
H581 H 0.72989 0.85895 0.68923 0.0
C582 C 0.7883 0.80522 0.69438 0.0
C583 C 0.74936 0.83306 0.70211 0.0
C584 C 0.73058 0.84342 0.71214 0.0
C585 C 0.7855 0.81651 0.68292 0.0
C586 C 0.76369 0.83567 0.68105 0.0
C587 C 0.74627 0.84397 0.69068 0.0
C588 C 0.75706 0.84633 0.66913 0.0
C589 C 0.80454 0.80684 0.67281 0.0
C590 C 0.78795 0.87198 0.66284 0.0
C591 C 0.78064 0.88353 0.65197 0.0
C592 C 0.74228 0.86956 0.64719 0.0
C593 C 0.71157 0.84352 0.65347 0.0
C594 C 0.71886 0.83219 0.66435 0.0
H595 H 0.81557 0.78785 0.67545 0.0
H596 H 0.78325 0.79587 0.66543 0.0
H597 H 0.82979 0.83033 0.6695 0.0
H598 H 0.81756 0.88355 0.66644 0.0
H599 H 0.80502 0.90338 0.64733 0.0
H600 H 0.9126 0.66375 0.0649 0.0
H601 H 0.89582 0.66522 0.04415 0.0
H602 H 0.91787 0.77163 0.04793 0.0
H603 H 0.93427 0.77036 0.06873 0.0
H604 H 0.8504 0.73215 0.03453 0.0
H605 H 0.98025 0.71498 0.01911 0.0
H606 H 0.94833 0.68213 0.02898 0.0
H607 H 0.97493 0.72572 0.03417 0.0
C608 C 0.91346 0.68738 0.06137 0.0
C609 C 0.92511 0.71703 0.06847 0.0
C610 C 0.90413 0.68823 0.04947 0.0
C611 C 0.90644 0.71874 0.04443 0.0
C612 C 0.9162 0.74788 0.05162 0.0
H613 H 0.92759 0.7823 0.97153 0.0
H614 H 0.93818 0.77299 0.99224 0.0
C615 C 0.92552 0.74708 0.06352 0.0
C616 C 0.89971 0.72068 0.03162 0.0
H617 H 0.93582 0.71553 1.00447 0.0
C618 C 0.86897 0.72841 0.02795 0.0
C619 C 0.92438 0.7163 0.02306 0.0
C620 C 0.95907 0.70963 0.02648 0.0
C621 C 0.86205 0.73166 1.01595 0.0
C622 C 0.88619 0.72655 1.00738 0.0
C623 C 0.9171 0.71905 1.01105 0.0
C624 C 0.88068 0.73019 0.99458 0.0
C625 C 0.82959 0.74143 1.01256 0.0
C626 C 0.84535 0.70846 0.98892 0.0
C627 C 0.83919 0.71368 0.97708 0.0
C628 C 0.86836 0.74067 0.97064 0.0
C629 C 0.90446 0.76134 0.97621 0.0
C630 C 0.91056 0.75609 0.98806 0.0
H631 H 0.82015 0.75234 0.02013 0.0
H632 H 0.83917 0.7606 1.0053 0.0
H633 H 0.80363 0.7181 1.00944 0.0
H634 H 0.82223 0.68784 0.99372 0.0
H635 H 0.81112 0.69713 0.97307 0.0
H636 H 1.01508 0.80313 0.29789 0.0
H637 H 1.0278 0.81973 0.31886 0.0
H638 H 0.10734 0.77246 0.32081 0.0
H639 H 0.09542 0.75658 0.30004 0.0
H640 H 1.02702 0.78192 0.34139 0.0
H641 H 0.17566 0.87756 0.32751 0.0
H642 H 0.13536 0.85726 0.31724 0.0
H643 H 0.1628 0.83465 0.32226 0.0
C644 C 0.03432 0.79546 0.30293 0.0
C645 C 0.05451 0.77881 0.29737 0.0
C646 C 0.04171 0.80507 0.31486 0.0
C647 C 0.06912 0.79788 0.3213 0.0
C648 C 0.08661 0.77875 0.31596 0.0
H649 H 0.1968 0.83282 0.38545 0.0
H650 H 0.16289 0.81407 0.36655 0.0
C651 C 0.07965 0.76958 0.3041 0.0
C652 C 0.08283 0.81279 0.33319 0.0
H653 H 0.16679 0.86495 0.34807 0.0
C654 C 0.05735 0.80051 0.34287 0.0
C655 C 0.12239 0.83724 0.33507 0.0
C656 C 0.15058 0.85274 0.32497 0.0
C657 C 0.07115 0.81072 0.35445 0.0
C658 C 0.11124 0.83374 0.35632 0.0
C659 C 0.13616 0.84705 0.34661 0.0
C660 C 0.12878 0.84307 0.36827 0.0
C661 C 0.04339 0.79583 0.36467 0.0
C662 C 0.12076 0.86557 0.37553 0.0
C663 C 0.14024 0.87645 0.38637 0.0
C664 C 0.16802 0.86494 0.39015 0.0
C665 C 0.17529 0.84185 0.38292 0.0
C666 C 0.15604 0.83121 0.37208 0.0
H667 H 1.01418 0.77564 0.36182 0.0
H668 H 0.05635 0.78455 0.37119 0.0
H669 H 0.03898 0.81674 0.36916 0.0
H670 H 0.10014 0.87532 0.37269 0.0
H671 H 0.13368 0.89398 0.39176 0.0
H672 H 0.34217 0.22377 0.64335 0.0
H673 H 0.32946 0.24095 0.66292 0.0
H674 H 0.28362 0.13541 0.67451 0.0
H675 H 0.29671 0.11811 0.65513 0.0
H676 H 0.25382 0.21291 0.67701 0.0
H677 H 0.37677 0.19436 0.69762 0.0
H678 H 0.37354 0.19966 0.68192 0.0
H679 H 0.34357 0.15894 0.68873 0.0
C680 C 0.32948 0.20423 0.65007 0.0
C681 C 0.3207 0.16956 0.64765 0.0
C682 C 0.32194 0.21406 0.66121 0.0
C683 C 0.30584 0.18949 0.67017 0.0
C684 C 0.29625 0.15481 0.66772 0.0
H685 H 0.25954 0.17484 0.74364 0.0
H686 H 0.26385 0.16692 0.72253 0.0
C687 C 0.30356 0.14493 0.6566 0.0
C688 C 0.30053 0.19999 0.68225 0.0
H689 H 0.33262 0.20281 0.71053 0.0
C690 C 0.27121 0.21105 0.68436 0.0
C691 C 0.32347 0.19775 0.69177 0.0
C692 C 0.35637 0.18732 0.68994 0.0
C693 C 0.26302 0.21837 0.69587 0.0
C694 C 0.2852 0.21504 0.70544 0.0
C695 C 0.31542 0.20515 0.70321 0.0
C696 C 0.27644 0.21939 0.71795 0.0
C697 C 0.22977 0.22824 0.69776 0.0
C698 C 0.28069 0.25131 0.72242 0.0
C699 C 0.27769 0.25581 0.7346 0.0
C700 C 0.27104 0.22859 0.74243 0.0
C701 C 0.26491 0.19636 0.73783 0.0
C702 C 0.26744 0.19179 0.72575 0.0
H703 H 0.21054 0.22287 0.68986 0.0
H704 H 0.21145 0.21413 0.70539 0.0
H705 H 0.24221 0.25626 0.69971 0.0
H706 H 0.28824 0.27315 0.7166 0.0
H707 H 0.28298 0.28102 0.73793 0.0
H708 H 0.06455 0.65754 0.07913 0.0
H709 H 0.06317 0.60048 0.08048 0.0
H710 H 1.02075 0.59077 0.11619 0.0
H711 H 1.0214 0.64768 0.11479 0.0
H712 H 0.10067 0.57458 0.09464 0.0
H713 H 0.93935 0.50334 0.10149 0.0
H714 H 0.96278 0.54806 0.09717 0.0
H715 H 0.96357 0.53627 0.11234 0.0
C716 C 0.05521 0.64337 0.0873 0.0
C717 C 0.04286 0.65701 0.09684 0.0
C718 C 0.0543 0.61071 0.08805 0.0
C719 C 0.04117 0.59105 0.09836 0.0
C720 C 1.02996 0.60504 0.10803 0.0
H721 H 0.07588 0.40678 0.11262 0.0
H722 H 0.08055 0.46526 0.11266 0.0
C723 C 0.03046 0.63759 0.10724 0.0
C724 C 0.0392 0.55594 0.09891 0.0
H725 H 0.97639 0.47126 0.10356 0.0
C726 C 0.0735 0.55196 0.09659 0.0
C727 C 1.00358 0.52639 0.10127 0.0
C728 C 0.96514 0.52858 0.10309 0.0
C729 C 0.07321 0.51929 0.09658 0.0
C730 C 0.03787 0.48987 0.0993 0.0
C731 C 1.00356 0.49386 0.1016 0.0
C732 C 0.03532 0.45452 0.09939 0.0
C733 C 0.11049 0.51657 0.09332 0.0
C734 C 1.00759 0.42877 0.09219 0.0
C735 C 1.00451 0.3953 0.09229 0.0
C736 C 1.02922 0.3869 0.09956 0.0
C737 C 0.05689 0.41266 0.1068 0.0
C738 C 0.05967 0.44609 0.10679 0.0
H739 H 0.13108 0.53953 0.08833 0.0
H740 H 0.12578 0.51487 0.10149 0.0
H741 H 0.10389 0.49317 0.08793 0.0
H742 H 0.98846 0.43464 0.08642 0.0
H743 H 0.98321 0.37614 0.08653 0.0
H744 H 0.68958 0.09866 0.43789 0.0
H745 H 0.61918 0.07825 0.43473 0.0
H746 H 0.62146 1.00898 0.40763 0.0
H747 H 0.69254 0.02892 0.41097 0.0
H748 H 0.58141 0.0833 0.41537 0.0
H749 H 0.52814 0.94507 0.42692 0.0
H750 H 0.57762 0.97687 0.43019 0.0
H751 H 0.56463 0.95984 0.41551 0.0
C752 C 0.67524 0.07886 0.43129 0.0
C753 C 0.69689 0.06544 0.42468 0.0
C754 C 0.6348 0.06723 0.42949 0.0
C755 C 0.61467 0.04185 0.421 0.0
C756 C 0.63603 0.02809 0.4144 0.0
H757 H 0.36695 0.95274 0.39933 0.0
H758 H 0.438 0.97111 0.4004 0.0
C759 C 0.67674 0.0396 0.41628 0.0
C760 C 0.57174 0.03115 0.41894 0.0
H761 H 0.48061 0.96225 0.41973 0.0
C762 C 0.55942 0.05679 0.41632 0.0
C763 C 0.54287 0.99657 0.42017 0.0
C764 C 0.55381 0.968 0.42345 0.0
C765 C 0.51931 0.04892 0.41494 0.0
C766 C 0.49047 1.01448 0.41632 0.0
C767 C 0.50272 0.98868 0.4187 0.0
C768 C 0.44744 1.00471 0.41542 0.0
C769 C 0.50814 0.07753 0.41191 0.0
C770 C 0.42892 1.01758 0.42349 0.0
C771 C 0.38811 1.00709 0.42292 0.0
C772 C 0.36491 0.98345 0.41426 0.0
C773 C 0.38375 0.97108 0.40609 0.0
C774 C 0.42445 0.98144 0.4067 0.0
H775 H 0.53353 0.10046 0.40832 0.0
H776 H 0.48375 0.06864 0.40536 0.0
H777 H 0.49793 0.08562 0.41999 0.0
H778 H 0.44591 0.03517 0.43041 0.0
H779 H 0.37465 1.01696 0.42941 0.0
H780 H 0.46728 0.35913 0.77008 0.0
H781 H 0.5149 0.42024 0.77029 0.0
H782 H 0.43205 0.44512 0.78934 0.0
H783 H 0.38472 0.38425 0.78933 0.0
H784 H 0.50249 0.47712 0.76088 0.0
H785 H 0.53522 0.4914 0.80885 0.0
H786 H 0.51299 0.4499 0.80159 0.0
H787 H 0.48371 0.4721 0.8051 0.0
C788 C 0.45942 0.37755 0.77444 0.0
C789 C 0.42215 0.36676 0.77968 0.0
C790 C 0.48656 0.41248 0.77449 0.0
C791 C 0.47716 0.43718 0.77993 0.0
C792 C 0.44013 0.42647 0.78523 0.0
H793 H 0.5925 0.65885 0.79061 0.0
H794 H 0.54749 0.59744 0.79021 0.0
C795 C 0.41294 0.39167 0.78511 0.0
C796 C 0.50545 0.47433 0.77975 0.0
H797 H 0.55943 0.54285 0.7976 0.0
C798 C 0.5152 0.49149 0.76889 0.0
C799 C 0.52175 0.49304 0.79023 0.0
C800 C 0.51323 0.4757 0.80211 0.0
C801 C 0.54008 0.52705 0.76823 0.0
C802 C 0.55646 0.54582 0.77871 0.0
C803 C 0.54686 0.52854 0.78957 0.0
C804 C 0.58357 0.58338 0.77863 0.0
C805 C 0.54758 0.54434 0.75633 0.0
C806 C 0.61903 0.59605 0.77231 0.0
C807 C 0.64469 0.63131 0.77239 0.0
C808 C 0.63577 0.65477 0.77893 0.0
C809 C 0.60027 0.64187 0.78533 0.0
C810 C 0.57454 0.60661 0.78519 0.0
H811 H 0.52436 0.52902 0.74985 0.0
H812 H 0.54897 0.57054 0.75696 0.0
H813 H 0.5762 0.54683 0.7529 0.0
H814 H 0.62713 0.57862 0.76739 0.0
H815 H 0.67142 0.64006 0.76727 0.0
H816 H 0.45612 0.10502 0.60007 0.0
H817 H 0.50623 0.08451 0.60262 0.0
H818 H 0.43065 1.00689 0.62686 0.0
H819 H 0.37941 0.0269 0.62406 0.0
H820 H 0.54623 0.08396 0.62184 0.0
H821 H 0.46386 0.94956 0.60562 0.0
H822 H 0.4461 0.98179 0.60355 0.0
H823 H 0.44017 0.96047 0.61752 0.0
C824 C 0.44983 0.0834 0.6059 0.0
C825 C 0.41357 0.0676 0.61185 0.0
C826 C 0.4787 0.0717 0.60736 0.0
C827 C 0.47234 0.0439 0.61485 0.0
C828 C 0.4361 0.02791 0.62083 0.0
H829 H 0.62805 0.95193 0.63558 0.0
H830 H 0.5753 0.97004 0.63418 0.0
C831 C 0.40685 0.03947 0.61927 0.0
C832 C 0.50445 0.0329 0.61656 0.0
H833 H 0.52713 0.96461 0.6138 0.0
C834 C 0.54197 0.05784 0.62005 0.0
C835 C 0.49913 0.99883 0.61424 0.0
C836 C 0.46028 0.97116 0.60992 0.0
C837 C 0.57406 0.04973 0.6213 0.0
C838 C 0.56876 1.01578 0.61892 0.0
C839 C 0.5312 0.99067 0.6156 0.0
C840 C 0.60178 1.00577 0.61989 0.0
C841 C 0.61333 0.07747 0.6253 0.0
C842 C 0.63443 0.01985 0.61231 0.0
C843 C 0.66479 1.00946 0.61305 0.0
C844 C 0.66314 0.98478 0.62141 0.0
C845 C 0.63054 0.97108 0.62906 0.0
C846 C 0.60017 0.98131 0.62826 0.0
H847 H 0.61051 0.09989 0.62923 0.0
H848 H 0.62722 0.06716 0.63188 0.0
H849 H 0.63335 0.08677 0.61761 0.0
H850 H 0.63609 0.03846 0.60567 0.0
H851 H 0.68925 0.02039 0.60697 0.0
H852 H 0.36157 0.40813 0.9406 0.0
H853 H 0.4176 0.4651 0.93925 0.0
H854 H 0.49706 0.41777 0.93732 0.0
H855 H 0.44102 0.36054 0.93852 0.0
H856 H 0.48456 0.49037 0.95579 0.0
H857 H 0.52798 0.48805 0.90908 0.0
H858 H 0.4793 0.46027 0.91448 0.0
H859 H 0.52005 0.45099 0.91793 0.0
C860 C 0.39087 0.40978 0.9397 0.0
C861 C 0.39686 0.37981 0.93963 0.0
C862 C 0.42284 0.44234 0.93899 0.0
C863 C 0.46131 0.44553 0.93806 0.0
C864 C 0.46748 0.41575 0.93788 0.0
H865 H 0.69136 0.62199 0.93589 0.0
H866 H 0.63595 0.56454 0.93438 0.0
C867 C 0.43551 0.38314 0.93868 0.0
C868 C 0.49507 0.48014 0.9379 0.0
H869 H 0.56898 0.53638 0.92055 0.0
C870 C 0.50299 0.50054 0.94808 0.0
C871 C 0.51912 0.49302 0.92786 0.0
C872 C 0.51123 0.47215 0.91666 0.0
C873 C 0.53469 0.53352 0.94855 0.0
C874 C 0.55839 0.5468 0.93843 0.0
C875 C 0.55062 0.52623 0.92826 0.0
C876 C 0.59149 0.58191 0.93831 0.0
C877 C 0.54302 0.55347 0.95998 0.0
C878 C 0.58472 0.61085 0.9406 0.0
C879 C 0.61629 0.64359 0.94151 0.0
C880 C 0.65518 0.6481 0.93998 0.0
C881 C 0.66173 0.61936 0.93705 0.0
C882 C 0.63012 0.58652 0.93623 0.0
H883 H 0.52966 0.5362 0.96762 0.0
H884 H 0.57521 0.56806 0.96156 0.0
H885 H 0.53014 0.57214 0.95956 0.0
H886 H 0.55504 0.608 0.9419 0.0
H887 H 0.61038 0.66538 0.94357 0.0
H888 H 1.00527 0.64078 0.24986 0.0
H889 H 0.98889 0.57935 0.24984 0.0
H890 H 0.10263 0.602 0.26492 0.0
H891 H 0.11938 0.66371 0.2648 0.0
H892 H 0.08397 0.55517 0.24729 0.0
H893 H 0.95736 0.51566 0.27782 0.0
H894 H 0.95229 0.53822 0.26515 0.0
H895 H 0.99148 0.56025 0.27555 0.0
C896 C 1.02667 0.63268 0.25327 0.0
C897 C 0.0635 0.65714 0.25745 0.0
C898 C 1.01722 0.5975 0.25329 0.0
C899 C 0.04413 0.5859 0.25764 0.0
C900 C 0.08126 0.6103 0.26159 0.0
H901 H 0.03824 0.38494 0.2693 0.0
H902 H 0.05396 0.44609 0.26904 0.0
C903 C 0.09088 0.64557 0.26148 0.0
C904 C 0.0338 0.5484 0.25786 0.0
H905 H 0.96543 0.47038 0.26795 0.0
C906 C 0.05818 0.53669 0.25187 0.0
C907 C 1.00015 0.52421 0.26386 0.0
C908 C 0.97403 0.53521 0.27106 0.0
C909 C 0.04947 0.5015 0.25154 0.0
C910 C 1.01559 0.47739 0.2574 0.0
C911 C 0.99121 0.48897 0.2634 0.0
C912 C 1.00555 0.44008 0.25758 0.0
C913 C 0.07622 0.49019 0.24482 0.0
C914 C 0.97265 0.41629 0.25138 0.0
C915 C 0.96373 0.38114 0.25137 0.0
C916 C 0.98736 0.36904 0.25768 0.0
C917 C 1.01978 0.39309 0.26411 0.0
C918 C 1.0288 0.42818 0.26403 0.0
H919 H 0.09703 0.51097 0.23906 0.0
H920 H 0.09367 0.48286 0.25115 0.0
H921 H 0.05863 0.4672 0.23931 0.0
H922 H 0.95426 0.42501 0.24638 0.0
H923 H 0.93873 0.36367 0.24625 0.0
H924 H 0.96329 0.11622 0.0968 0.0
H925 H 0.9684 0.06167 0.09584 0.0
H926 H 0.09486 0.11739 0.09349 0.0
H927 H 0.09018 0.17195 0.09482 0.0
H928 H 1.00286 0.0349 0.07882 0.0
H929 H 0.07731 0.05495 0.1224 0.0
H930 H 0.0528 0.08038 0.11752 0.0
H931 H 0.10087 0.08922 0.112 0.0
C932 C 0.9922 0.1169 0.09611 0.0
C933 C 1.02632 0.14854 0.09602 0.0
C934 C 0.99505 0.08571 0.09548 0.0
C935 C 0.03204 0.08553 0.0948 0.0
C936 C 0.06606 0.11699 0.09421 0.0
H937 H 0.10231 0.91848 0.09865 0.0
H938 H 0.10143 0.97448 0.09622 0.0
C939 C 0.06326 0.1482 0.09484 0.0
C940 C 0.03501 0.05242 0.09508 0.0
H941 H 0.06959 1.00549 0.11166 0.0
C942 C 1.01747 0.02843 0.08598 0.0
C943 C 0.05409 0.04411 0.10445 0.0
C944 C 0.07208 0.06833 0.11471 0.0
C945 C 1.01875 0.99637 0.08595 0.0
C946 C 0.03747 0.98794 0.09539 0.0
C947 C 0.05537 1.01209 0.10442 0.0
C948 C 0.03785 0.95381 0.0963 0.0
C949 C 1.00048 0.972 0.07576 0.0
C950 C 1.00241 0.92367 0.09724 0.0
C951 C 1.00282 0.89166 0.09869 0.0
C952 C 0.03871 0.88917 0.09931 0.0
C953 C 0.07418 0.91947 0.09834 0.0
C954 C 0.07374 0.95148 0.09688 0.0
H955 H 0.9974 0.98578 0.06785 0.0
H956 H 1.01831 0.95817 0.0734 0.0
H957 H 0.9706 0.95255 0.0783 0.0
H958 H 0.97441 0.92497 0.09712 0.0
H959 H 0.97499 0.86901 0.09963 0.0
H960 H 0.8784 0.02399 0.41246 0.0
H961 H 0.93065 1.00562 0.40871 0.0
H962 H 1.0111 0.08969 0.43018 0.0
H963 H 0.95998 0.10826 0.43378 0.0
H964 H 0.04342 0.08575 0.40895 0.0
H965 H 0.97675 0.95785 0.43104 0.0
H966 H 0.94719 0.96485 0.41987 0.0
H967 H 0.95846 0.9897 0.43324 0.0
C968 C 0.90714 0.03827 0.41645 0.0
C969 C 0.91495 0.06762 0.4234 0.0
C970 C 0.93695 0.02774 0.41432 0.0
C971 C 0.97485 0.04622 0.4192 0.0
C972 C 0.98226 0.0751 0.42626 0.0
H973 H 0.16829 0.99845 0.4335 0.0
H974 H 0.11117 1.01095 0.43343 0.0
C975 C 0.95281 0.08564 0.42833 0.0
C976 C 1.0076 0.0366 0.4169 0.0
H977 H 0.03937 0.97509 0.42255 0.0
C978 C 0.04242 0.0614 0.41182 0.0
C979 C 1.00642 1.00498 0.42075 0.0
C980 C 0.97038 0.97782 0.42662 0.0
C981 C 0.07633 0.0559 0.41077 0.0
C982 C 0.07528 0.02439 0.4147 0.0
C983 C 0.04015 0.99921 0.41951 0.0
C984 C 0.11088 1.01781 0.41456 0.0
C985 C 0.11348 0.08452 0.40594 0.0
C986 C 0.1301 1.01775 0.40397 0.0
C987 C 0.16317 1.01091 0.40399 0.0
C988 C 0.17743 1.00363 0.41459 0.0
C989 C 0.15827 1.00403 0.42517 0.0
C990 C 0.1254 1.011 0.42515 0.0
H991 H 0.11205 0.1097 0.40596 0.0
H992 H 0.13965 0.08724 0.41114 0.0
H993 H 0.11768 0.07836 0.39671 0.0
H994 H 0.1191 0.02234 0.39566 0.0
H995 H 0.17687 1.01042 0.39566 0.0
H996 H 0.14231 0.15868 0.78283 0.0
H997 H 0.07867 0.10822 0.78276 0.0
H998 H 0.13465 0.04417 0.79299 0.0
H999 H 0.19904 0.09464 0.79284 0.0
H1000 H 0.05716 0.04618 0.7689 0.0
H1001 H 0.04315 0.021 0.81714 0.0
H1002 H 0.07691 0.06205 0.81105 0.0
H1003 H 0.08841 0.02589 0.81041 0.0
C1004 C 0.14145 0.13395 0.78497 0.0
C1005 C 0.17619 0.13092 0.78777 0.0
C1006 C 0.10483 0.10509 0.785 0.0
C1007 C 0.10184 0.0725 0.78795 0.0
C1008 C 0.13622 0.06921 0.79085 0.0
H1009 H 0.90009 0.87098 0.79274 0.0
H1010 H 0.96511 0.91992 0.79376 0.0
C1011 C 0.17304 0.09813 0.79077 0.0
C1012 C 0.06275 0.04199 0.78763 0.0
H1013 H 0.99264 0.9815 0.80499 0.0
C1014 C 0.04301 0.03201 0.77679 0.0
C1015 C 0.04448 0.02349 0.79792 0.0
C1016 C 0.06405 0.03365 0.80983 0.0
C1017 C 1.0056 1.00384 0.77592 0.0
C1018 C 0.98687 0.98569 0.78624 0.0
C1019 C 1.00685 0.99549 0.79708 0.0
C1020 C 0.94676 0.95626 0.78594 0.0
C1021 C 0.98696 0.99335 0.76389 0.0
C1022 C 0.91439 0.96045 0.78148 0.0
C1023 C 0.87711 0.93231 0.78072 0.0
C1024 C 0.87122 0.89935 0.78454 0.0
C1025 C 0.90347 0.89565 0.78946 0.0
C1026 C 0.94075 0.92374 0.79014 0.0
H1027 H 1.00934 1.00299 0.75677 0.0
H1028 H 0.97064 0.96487 0.76309 0.0
H1029 H 0.96587 1.00456 0.76246 0.0
H1030 H 0.918 0.98547 0.77847 0.0
H1031 H 0.85324 0.93636 0.77688 0.0
H1032 H 0.90355 0.03247 0.59586 0.0
H1033 H 0.97009 0.03907 0.59975 0.0
H1034 H 0.93466 0.99618 0.63445 0.0
H1035 H 0.86754 0.98876 0.63054 0.0
H1036 H 1.02551 0.07444 0.61647 0.0
H1037 H 0.97948 0.93366 0.62084 0.0
H1038 H 0.94688 0.95074 0.61524 0.0
H1039 H 0.95578 0.95095 0.63081 0.0
C1040 C 0.90987 0.0247 0.60438 0.0
C1041 C 0.87998 1.00984 0.61285 0.0
C1042 C 0.94802 0.02846 0.60658 0.0
C1043 C 0.95727 1.0174 0.61729 0.0
C1044 C 0.92804 1.00408 0.626 0.0
H1045 H 0.1833 0.02021 0.63878 0.0
H1046 H 0.11483 1.01245 0.63877 0.0
C1047 C 0.88974 1.00021 0.62379 0.0
C1048 C 0.99736 0.01948 0.61913 0.0
H1049 H 0.04715 0.97049 0.6235 0.0
C1050 C 0.03017 0.0517 0.61806 0.0
C1051 C 1.00355 0.98981 0.62122 0.0
C1052 C 0.96964 0.95426 0.622 0.0
C1053 C 0.06884 0.05504 0.61888 0.0
C1054 C 0.07501 0.02531 0.62069 0.0
C1055 C 0.04232 0.99321 0.6221 0.0
C1056 C 0.11525 0.02707 0.62054 0.0
C1057 C 0.10288 0.09041 0.61778 0.0
C1058 C 0.13767 0.03663 0.61018 0.0
C1059 C 0.17656 0.04088 0.61013 0.0
C1060 C 0.19403 0.03564 0.62045 0.0
C1061 C 0.17086 0.02448 0.63068 0.0
C1062 C 0.13176 0.02013 0.63071 0.0
H1063 H 0.09358 0.11117 0.6194 0.0
H1064 H 0.12685 0.09362 0.62406 0.0
H1065 H 0.11497 0.09366 0.60872 0.0
H1066 H 0.12528 0.04149 0.60217 0.0
H1067 H 0.19329 0.04927 0.60205 0.0
H1068 H 0.93474 0.863 0.94275 0.0
H1069 H 0.99323 0.91825 0.94138 0.0
H1070 H 0.9196 0.96972 0.93504 0.0
H1071 H 0.86089 0.91453 0.93619 0.0
H1072 H 1.01762 0.9672 0.9222 0.0
H1073 H 0.98967 0.02144 0.96366 0.0
H1074 H 0.96566 0.97591 0.96027 0.0
H1075 H 0.94914 1.0048 0.95343 0.0
C1076 C 0.93088 0.88593 0.94092 0.0
C1077 C 0.89298 0.88425 0.93962 0.0
C1078 C 0.96438 0.91752 0.94021 0.0
C1079 C 0.96062 0.94803 0.93828 0.0
C1080 C 0.92301 0.94648 0.93676 0.0
H1081 H 0.12073 0.16433 0.93327 0.0
H1082 H 0.06388 0.10788 0.93416 0.0
C1083 C 0.88949 0.9149 0.93744 0.0
C1084 C 0.99609 0.98152 0.93782 0.0
H1085 H 0.04221 0.05931 0.95176 0.0
C1086 C 1.02319 0.98734 0.92867 0.0
C1087 C 1.0031 1.00761 0.9463 0.0
C1088 C 0.97559 1.00218 0.95654 0.0
C1089 C 0.05678 0.01902 0.92761 0.0
C1090 C 0.06376 0.04518 0.93608 0.0
C1091 C 0.03675 0.03921 0.94528 0.0
C1092 C 0.09854 0.07922 0.93548 0.0
C1093 C 0.08386 0.0245 0.91726 0.0
C1094 C 0.13691 0.08186 0.93607 0.0
C1095 C 0.16951 0.11415 0.93557 0.0
C1096 C 0.1643 0.14439 0.93461 0.0
C1097 C 0.12578 0.14161 0.93416 0.0
C1098 C 0.09325 0.10936 0.9346 0.0
H1099 H 0.06913 1.00575 0.91004 0.0
H1100 H 0.0944 0.05102 0.9137 0.0
H1101 H 0.10992 0.02093 0.92016 0.0
H1102 H 0.14164 0.05898 0.93704 0.0
H1103 H 0.19877 0.11549 0.93612 0.0
H1104 H 0.12375 0.93561 0.24856 0.0
H1105 H 0.1088 0.9855 0.24858 0.0
H1106 H 0.99132 0.92104 0.26084 0.0
H1107 H 1.00542 0.87123 0.26063 0.0
H1108 H 0.04538 0.99269 0.23607 0.0
H1109 H 0.03441 1.00257 0.28459 0.0
H1110 H 0.05857 0.97906 0.27782 0.0
H1111 H 1.00572 0.96028 0.27857 0.0
C1112 C 0.0947 0.93197 0.25123 0.0
C1113 C 0.06603 0.89923 0.2547 0.0
C1114 C 0.08626 0.96057 0.25127 0.0
C1115 C 0.04915 0.95706 0.25489 0.0
C1116 C 1.02043 0.92449 0.25826 0.0
H1117 H 0.93376 0.09077 0.26383 0.0
H1118 H 0.95071 0.0423 0.2627 0.0
C1119 C 1.02872 0.89595 0.25818 0.0
C1120 C 0.03981 0.98712 0.2549 0.0
H1121 H 1.01263 0.03645 0.27291 0.0
C1122 C 0.03851 1.00249 0.24412 0.0
C1123 C 0.03057 0.99964 0.26541 0.0
C1124 C 0.03265 0.98479 0.27728 0.0
C1125 C 1.02726 0.02952 0.24353 0.0
C1126 C 1.01794 0.04205 0.25405 0.0
C1127 C 1.01958 0.0268 0.26484 0.0
C1128 C 1.0068 0.07116 0.25412 0.0
C1129 C 1.02431 0.04365 0.23161 0.0
C1130 C 0.03259 0.10357 0.24967 0.0
C1131 C 1.02276 0.13126 0.25017 0.0
C1132 C 0.98711 0.1274 0.2553 0.0
C1133 C 0.9612 0.09477 0.25969 0.0
C1134 C 0.971 0.06702 0.25913 0.0
H1135 H 1.02082 0.02493 0.22444 0.0
H1136 H 0.9991 0.05035 0.23122 0.0
H1137 H 0.05178 0.06737 0.22989 0.0
H1138 H 0.06073 0.10768 0.24598 0.0
H1139 H 0.04332 0.15576 0.24657 0.0
loop_
_geom_bond_atom_site_label_1
_geom_bond_atom_site_label_2
_geom_bond_distance
_geom_bond_site_symmetry_2
_ccdc_geom_bond_type
Cu0 N1 1.999 . S
Cu0 O6 1.974 1_655 S
Cu0 N11 1.992 1_655 S
Cu0 O20 1.959 . S
N1 Cu0 1.999 . S
N1 C3 1.263 1_655 S
N1 C5 1.389 . S
N2 C3 1.358 1_655 S
N2 C4 1.400 . S
C3 N1 1.263 1_455 S
C3 N2 1.358 1_455 S
C3 H9 0.930 . S
C4 N2 1.400 . S
C4 C5 1.351 . S
C4 H21 0.930 . S
C5 N1 1.389 . S
C5 C4 1.351 . S
C5 H10 0.930 . S
O6 Cu0 1.974 1_455 S
O6 C16 1.282 . S
C7 O8 1.244 1_655 S
C7 O20 1.263 . S
O8 C7 1.244 1_455 S
H9 C3 0.930 . S
H10 C5 0.930 . S
N11 Cu0 1.992 1_455 S
N11 C13 1.314 1_455 S
N11 C14 1.400 . S
N12 C13 1.344 1_455 S
N12 C15 1.335 . S
C13 N11 1.314 1_655 S
C13 N12 1.344 1_655 S
C13 H18 0.930 . S
C14 N11 1.400 . S
C14 C15 1.346 . S
C14 H19 0.930 . S
C15 N12 1.335 . S
C15 C14 1.346 . S
C15 H22 0.929 . S
C16 O6 1.282 . S
C16 O17 1.216 . S
O17 C16 1.216 . S
H18 C13 0.930 . S
H19 C14 0.930 . S
O20 Cu0 1.959 . S
O20 C7 1.263 . S
H21 C4 0.930 . S
H22 C15 0.929 . S
Cu23 N24 1.999 . S
Cu23 O29 1.974 . S
Cu23 N34 1.985 . S
Cu23 O43 1.959 . S
N24 Cu23 1.999 . S
N24 C26 1.263 . S
N24 C28 1.389 . S
N25 C26 1.358 . S
N25 C27 1.400 . S
C26 N24 1.263 . S
C26 N25 1.358 . S
C26 H32 0.930 . S
C27 N25 1.400 . S
C27 C28 1.351 . S
C27 H44 0.930 . S
C28 N24 1.389 . S
C28 C27 1.351 . S
C28 H33 0.930 . S
O29 Cu23 1.974 . S
O29 C39 1.282 . S
C30 O31 1.261 1_545 S
C30 O43 1.251 . S
O31 C30 1.261 1_565 S
H32 C26 0.930 . S
H33 C28 0.930 . S
N34 Cu23 1.985 . S
N34 C36 1.335 . S
N34 C37 1.390 . S
N35 C36 1.345 . S
N35 C38 1.336 . S
C36 N34 1.335 . S
C36 N35 1.345 . S
C36 H41 0.930 . S
C37 N34 1.390 . S
C37 C38 1.346 . S
C37 H42 0.930 . S
C38 N35 1.336 . S
C38 C37 1.346 . S
C38 H45 0.929 . S
C39 O29 1.282 . S
C39 O40 1.216 1_545 S
O40 C39 1.216 1_565 S
H41 C36 0.930 . S
H42 C37 0.930 . S
O43 Cu23 1.959 . S
O43 C30 1.251 . S
H44 C27 0.930 . S
H45 C38 0.929 . S
Cu46 N47 1.999 . S
Cu46 O52 1.974 . S
Cu46 N57 1.985 . S
Cu46 O66 1.959 . S
N47 Cu46 1.999 . S
N47 C49 1.263 . S
N47 C51 1.389 . S
N48 C49 1.358 . S
N48 C50 1.400 . S
C49 N47 1.263 . S
C49 N48 1.358 . S
C49 H55 0.930 . S
C50 N48 1.400 . S
C50 C51 1.351 . S
C50 H67 0.930 . S
C51 N47 1.389 . S
C51 C50 1.351 . S
C51 H56 0.930 . S
O52 Cu46 1.974 . S
O52 C62 1.282 . S
C53 O54 1.261 . S
C53 O66 1.251 . S
O54 C53 1.261 . S
H55 C49 0.930 . S
H56 C51 0.930 . S
N57 Cu46 1.985 . S
N57 C59 1.335 . S
N57 C60 1.390 . S
N58 C59 1.345 . S
N58 C61 1.336 . S
C59 N57 1.335 . S
C59 N58 1.345 . S
C59 H64 0.930 . S
C60 N57 1.390 . S
C60 C61 1.346 . S
C60 H65 0.930 . S
C61 N58 1.336 . S
C61 C60 1.346 . S
C61 H68 0.929 . S
C62 O52 1.282 . S
C62 O63 1.216 . S
O63 C62 1.216 . S
H64 C59 0.930 . S
H65 C60 0.930 . S
O66 Cu46 1.959 . S
O66 C53 1.251 . S
H67 C50 0.930 . S
H68 C61 0.929 . S
Cu69 N70 1.999 . S
Cu69 O75 1.974 1_455 S
Cu69 N80 1.985 1_455 S
Cu69 O89 1.959 . S
N70 Cu69 1.999 . S
N70 C72 1.263 1_455 S
N70 C74 1.389 . S
N71 C72 1.358 1_455 S
N71 C73 1.400 . S
C72 N70 1.263 1_655 S
C72 N71 1.358 1_655 S
C72 H78 0.930 . S
C73 N71 1.400 . S
C73 C74 1.351 . S
C73 H90 0.930 . S
C74 N70 1.389 . S
C74 C73 1.351 . S
C74 H79 0.930 . S
O75 Cu69 1.974 1_655 S
O75 C85 1.282 . S
C76 O77 1.248 1_455 S
C76 O89 1.260 . S
O77 C76 1.248 1_655 S
H78 C72 0.930 . S
H79 C74 0.930 . S
N80 Cu69 1.985 1_655 S
N80 C82 1.335 1_655 S
N80 C83 1.390 . S
N81 C82 1.345 1_655 S
N81 C84 1.337 . S
C82 N80 1.335 1_455 S
C82 N81 1.345 1_455 S
C82 H87 0.930 . S
C83 N80 1.390 . S
C83 C84 1.346 . S
C83 H88 0.930 . S
C84 N81 1.337 . S
C84 C83 1.346 . S
C84 H91 0.929 . S
C85 O75 1.282 . S
C85 O86 1.216 . S
O86 C85 1.216 . S
H87 C82 0.930 . S
H88 C83 0.930 . S
O89 Cu69 1.959 . S
O89 C76 1.260 . S
H90 C73 0.930 . S
H91 C84 0.929 . S
Cu92 N93 1.999 . S
Cu92 O98 1.974 . S
Cu92 N103 1.985 . S
Cu92 O112 1.959 . S
N93 Cu92 1.999 . S
N93 C95 1.263 . S
N93 C97 1.389 . S
N94 C95 1.358 . S
N94 C96 1.400 . S
C95 N93 1.263 . S
C95 N94 1.358 . S
C95 H101 0.930 . S
C96 N94 1.400 . S
C96 C97 1.351 . S
C96 H113 0.930 . S
C97 N93 1.389 . S
C97 C96 1.351 . S
C97 H102 0.930 . S
O98 Cu92 1.974 . S
O98 C108 1.282 . S
C99 O100 1.261 1_565 S
C99 O112 1.251 . S
O100 C99 1.261 1_545 S
H101 C95 0.930 . S
H102 C97 0.930 . S
N103 Cu92 1.985 . S
N103 C105 1.335 . S
N103 C106 1.390 . S
N104 C105 1.345 . S
N104 C107 1.336 . S
C105 N103 1.335 . S
C105 N104 1.345 . S
C105 H110 0.930 . S
C106 N103 1.390 . S
C106 C107 1.346 . S
C106 H111 0.930 . S
C107 N104 1.336 . S
C107 C106 1.346 . S
C107 H114 0.929 . S
C108 O98 1.282 . S
C108 O109 1.216 1_565 S
O109 C108 1.216 1_545 S
H110 C105 0.930 . S
H111 C106 0.930 . S
O112 Cu92 1.959 . S
O112 C99 1.251 . S
H113 C96 0.930 . S
H114 C107 0.929 . S
Cu115 N116 1.999 . S
Cu115 O121 1.974 . S
Cu115 N126 1.985 . S
Cu115 O135 1.959 . S
N116 Cu115 1.999 . S
N116 C118 1.263 . S
N116 C120 1.389 . S
N117 C118 1.358 . S
N117 C119 1.400 . S
C118 N116 1.263 . S
C118 N117 1.358 . S
C118 H124 0.930 . S
C119 N117 1.400 . S
C119 C120 1.351 . S
C119 H136 0.930 . S
C120 N116 1.389 . S
C120 C119 1.351 . S
C120 H125 0.930 . S
O121 Cu115 1.974 . S
O121 C131 1.282 . S
C122 O123 1.261 . S
C122 O135 1.251 . S
O123 C122 1.261 . S
H124 C118 0.930 . S
H125 C120 0.930 . S
N126 Cu115 1.985 . S
N126 C128 1.335 . S
N126 C129 1.390 . S
N127 C128 1.345 . S
N127 C130 1.336 . S
C128 N126 1.335 . S
C128 N127 1.345 . S
C128 H133 0.930 . S
C129 N126 1.390 . S
C129 C130 1.346 . S
C129 H134 0.930 . S
C130 N127 1.336 . S
C130 C129 1.346 . S
C130 H137 0.929 . S
C131 O121 1.282 . S
C131 O132 1.216 . S
O132 C131 1.216 . S
H133 C128 0.930 . S
H134 C129 0.930 . S
O135 Cu115 1.959 . S
O135 C122 1.251 . S
H136 C119 0.930 . S
H137 C130 0.929 . S
Cu138 N139 1.999 . S
Cu138 O144 1.974 . S
Cu138 N149 1.985 . S
Cu138 O158 1.959 . S
N139 Cu138 1.999 . S
N139 C141 1.263 . S
N139 C143 1.389 . S
N140 C141 1.358 . S
N140 C142 1.400 . S
C141 N139 1.263 . S
C141 N140 1.358 . S
C141 H147 0.930 . S
C142 N140 1.400 . S
C142 C143 1.351 . S
C142 H159 0.930 . S
C143 N139 1.389 . S
C143 C142 1.351 . S
C143 H148 0.930 . S
O144 Cu138 1.974 . S
O144 C154 1.282 . S
C145 O146 1.261 1_565 S
C145 O158 1.251 . S
O146 C145 1.261 1_545 S
H147 C141 0.930 . S
H148 C143 0.930 . S
N149 Cu138 1.985 . S
N149 C151 1.335 . S
N149 C152 1.390 . S
N150 C151 1.345 . S
N150 C153 1.336 . S
C151 N149 1.335 . S
C151 N150 1.345 . S
C151 H156 0.930 . S
C152 N149 1.390 . S
C152 C153 1.346 . S
C152 H157 0.930 . S
C153 N150 1.336 . S
C153 C152 1.346 . S
C153 H160 0.929 . S
C154 O144 1.282 . S
C154 O155 1.216 1_565 S
O155 C154 1.216 1_545 S
H156 C151 0.930 . S
H157 C152 0.930 . S
O158 Cu138 1.959 . S
O158 C145 1.251 . S
H159 C142 0.930 . S
H160 C153 0.929 . S
Cu161 N162 1.999 . S
Cu161 O167 1.974 . S
Cu161 N172 1.985 . S
Cu161 O181 1.959 . S
N162 Cu161 1.999 . S
N162 C164 1.263 . S
N162 C166 1.389 . S
N163 C164 1.358 . S
N163 C165 1.400 . S
C164 N162 1.263 . S
C164 N163 1.358 . S
C164 H170 0.930 . S
C165 N163 1.400 . S
C165 C166 1.351 . S
C165 H182 0.930 . S
C166 N162 1.389 . S
C166 C165 1.351 . S
C166 H171 0.930 . S
O167 Cu161 1.974 . S
O167 C177 1.282 . S
C168 O169 1.261 . S
C168 O181 1.251 . S
O169 C168 1.261 . S
H170 C164 0.930 . S
H171 C166 0.930 . S
N172 Cu161 1.985 . S
N172 C174 1.335 . S
N172 C175 1.390 . S
N173 C174 1.345 . S
N173 C176 1.336 . S
C174 N172 1.335 . S
C174 N173 1.345 . S
C174 H179 0.930 . S
C175 N172 1.390 . S
C175 C176 1.346 . S
C175 H180 0.930 . S
C176 N173 1.336 . S
C176 C175 1.346 . S
C176 H183 0.929 . S
C177 O167 1.282 . S
C177 O178 1.216 . S
O178 C177 1.216 . S
H179 C174 0.930 . S
H180 C175 0.930 . S
O181 Cu161 1.959 . S
O181 C168 1.251 . S
H182 C165 0.930 . S
H183 C176 0.929 . S
Cu184 N185 1.999 . S
Cu184 O190 1.974 1_655 S
Cu184 N195 1.985 1_655 S
Cu184 O204 1.959 . S
N185 Cu184 1.999 . S
N185 C187 1.263 1_655 S
N185 C189 1.389 . S
N186 C187 1.358 1_655 S
N186 C188 1.400 . S
C187 N185 1.263 1_455 S
C187 N186 1.358 1_455 S
C187 H193 0.930 . S
C188 N186 1.400 . S
C188 C189 1.351 . S
C188 H205 0.930 . S
C189 N185 1.389 . S
C189 C188 1.351 . S
C189 H194 0.930 . S
O190 Cu184 1.974 1_455 S
O190 C200 1.282 . S
C191 O192 1.261 . S
C191 O204 1.251 1_455 S
O192 C191 1.261 . S
H193 C187 0.930 . S
H194 C189 0.930 . S
N195 Cu184 1.985 1_455 S
N195 C197 1.335 1_455 S
N195 C198 1.390 . S
N196 C197 1.345 1_455 S
N196 C199 1.336 . S
C197 N195 1.335 1_655 S
C197 N196 1.345 1_655 S
C197 H202 0.930 . S
C198 N195 1.390 . S
C198 C199 1.346 . S
C198 H203 0.930 . S
C199 N196 1.336 . S
C199 C198 1.346 . S
C199 H206 0.929 . S
C200 O190 1.282 . S
C200 O201 1.216 . S
O201 C200 1.216 . S
H202 C197 0.930 . S
H203 C198 0.930 . S
O204 Cu184 1.959 . S
O204 C191 1.251 1_655 S
H205 C188 0.930 . S
H206 C199 0.929 . S
Cu207 N208 1.999 . S
Cu207 O213 1.974 . S
Cu207 N218 1.985 . S
Cu207 O227 1.959 . S
N208 Cu207 1.999 . S
N208 C210 1.263 . S
N208 C212 1.389 . S
N209 C210 1.358 . S
N209 C211 1.400 . S
C210 N208 1.263 . S
C210 N209 1.358 . S
C210 H216 0.930 . S
C211 N209 1.400 . S
C211 C212 1.351 . S
C211 H228 0.930 . S
C212 N208 1.389 . S
C212 C211 1.351 . S
C212 H217 0.930 . S
O213 Cu207 1.974 . S
O213 C223 1.282 . S
C214 O215 1.261 1_545 S
C214 O227 1.251 . S
O215 C214 1.261 1_565 S
H216 C210 0.930 . S
H217 C212 0.930 . S
N218 Cu207 1.985 . S
N218 C220 1.335 . S
N218 C221 1.390 . S
N219 C220 1.345 . S
N219 C222 1.336 . S
C220 N218 1.335 . S
C220 N219 1.345 . S
C220 H225 0.930 . S
C221 N218 1.390 . S
C221 C222 1.346 . S
C221 H226 0.930 . S
C222 N219 1.336 . S
C222 C221 1.346 . S
C222 H229 0.929 . S
C223 O213 1.282 . S
C223 O224 1.216 1_545 S
O224 C223 1.216 1_565 S
H225 C220 0.930 . S
H226 C221 0.930 . S
O227 Cu207 1.959 . S
O227 C214 1.251 . S
H228 C211 0.930 . S
H229 C222 0.929 . S
Cu230 N231 1.999 . S
Cu230 O236 1.974 . S
Cu230 N241 1.985 . S
Cu230 O250 1.959 . S
N231 Cu230 1.999 . S
N231 C233 1.263 . S
N231 C235 1.389 . S
N232 C233 1.358 . S
N232 C234 1.400 . S
C233 N231 1.263 . S
C233 N232 1.358 . S
C233 H239 0.930 . S
C234 N232 1.400 . S
C234 C235 1.351 . S
C234 H251 0.930 . S
C235 N231 1.389 . S
C235 C234 1.351 . S
C235 H240 0.930 . S
O236 Cu230 1.974 . S
O236 C246 1.282 . S
C237 O238 1.261 . S
C237 O250 1.251 . S
O238 C237 1.261 . S
H239 C233 0.930 . S
H240 C235 0.930 . S
N241 Cu230 1.985 . S
N241 C243 1.335 . S
N241 C244 1.390 . S
N242 C243 1.345 . S
N242 C245 1.336 . S
C243 N241 1.335 . S
C243 N242 1.345 . S
C243 H248 0.930 . S
C244 N241 1.390 . S
C244 C245 1.346 . S
C244 H249 0.930 . S
C245 N242 1.336 . S
C245 C244 1.346 . S
C245 H252 0.929 . S
C246 O236 1.282 . S
C246 O247 1.216 . S
O247 C246 1.216 . S
H248 C243 0.930 . S
H249 C244 0.930 . S
O250 Cu230 1.959 . S
O250 C237 1.251 . S
H251 C234 0.930 . S
H252 C245 0.929 . S
Cu253 N254 1.999 . S
Cu253 O259 1.974 1_455 S
Cu253 N264 1.985 1_455 S
Cu253 O273 1.959 . S
N254 Cu253 1.999 . S
N254 C256 1.263 1_455 S
N254 C258 1.389 . S
N255 C256 1.358 1_455 S
N255 C257 1.400 . S
C256 N254 1.263 1_655 S
C256 N255 1.358 1_655 S
C256 H262 0.930 . S
C257 N255 1.400 . S
C257 C258 1.351 . S
C257 H274 0.930 . S
C258 N254 1.389 . S
C258 C257 1.351 . S
C258 H263 0.930 . S
O259 Cu253 1.974 1_655 S
O259 C269 1.282 . S
C260 O261 1.261 . S
C260 O273 1.251 1_655 S
O261 C260 1.261 . S
H262 C256 0.930 . S
H263 C258 0.930 . S
N264 Cu253 1.985 1_655 S
N264 C266 1.335 1_655 S
N264 C267 1.390 . S
N265 C266 1.345 1_655 S
N265 C268 1.336 . S
C266 N264 1.335 1_455 S
C266 N265 1.345 1_455 S
C266 H271 0.930 . S
C267 N264 1.390 . S
C267 C268 1.346 . S
C267 H272 0.930 . S
C268 N265 1.336 . S
C268 C267 1.346 . S
C268 H275 0.929 . S
C269 O259 1.282 . S
C269 O270 1.216 . S
O270 C269 1.216 . S
H271 C266 0.930 . S
H272 C267 0.930 . S
O273 Cu253 1.959 . S
O273 C260 1.251 1_455 S
H274 C257 0.930 . S
H275 C268 0.929 . S
H276 C284 0.929 . S
H277 C286 0.930 . S
H278 C288 0.930 . S
H279 C291 0.929 . S
H280 C294 0.930 . S
H281 C296 0.960 . S
H282 C296 0.960 . S
H283 C296 0.960 . S
C284 H276 0.929 . S
C284 C285 1.377 1_455 S
C284 C286 1.384 . S
C285 C284 1.377 1_655 S
C285 C291 1.390 . S
C286 H277 0.930 . S
C286 C284 1.384 . S
C286 C287 1.372 1_455 S
C287 C286 1.372 1_655 S
C287 C288 1.400 . S
C287 C292 1.490 . S
C288 H278 0.930 . S
C288 C287 1.400 . S
C288 C291 1.386 . S
H289 C305 0.930 . S
H290 C306 0.931 . S
C291 H279 0.929 . S
C291 C285 1.390 . S
C291 C288 1.386 . S
C292 C287 1.490 . S
C292 C294 1.395 1_655 S
C292 C295 1.403 . S
H293 C299 0.930 . S
C294 H280 0.930 . S
C294 C292 1.395 1_455 S
C294 C297 1.403 . S
C295 C292 1.403 . S
C295 C296 1.524 . S
C295 C299 1.400 . S
C296 H281 0.960 . S
C296 H282 0.960 . S
C296 H283 0.960 . S
C296 C295 1.524 . S
C297 C294 1.403 . S
C297 C298 1.406 . S
C297 C301 1.495 . S
C298 C297 1.406 . S
C298 C299 1.370 1_455 S
C298 C300 1.477 1_455 S
C299 H293 0.930 . S
C299 C295 1.400 . S
C299 C298 1.370 1_655 S
C300 C298 1.477 1_655 S
C300 C302 1.376 1_655 S
C300 C306 1.388 . S
C301 C297 1.495 . S
C301 H307 0.959 . S
C301 H308 0.961 . S
C301 H309 0.960 . S
C302 C300 1.376 1_455 S
C302 C303 1.394 . S
C302 H310 0.930 . S
C303 C302 1.394 . S
C303 C304 1.383 1_455 S
C303 H311 0.929 . S
C304 C303 1.383 1_655 S
C304 C305 1.377 . S
C305 H289 0.930 . S
C305 C304 1.377 . S
C305 C306 1.379 . S
C306 H290 0.931 . S
C306 C300 1.388 . S
C306 C305 1.379 . S
H307 C301 0.959 . S
H308 C301 0.961 . S
H309 C301 0.960 . S
H310 C302 0.930 . S
H311 C303 0.929 . S
H312 C320 0.929 . S
H313 C322 0.930 . S
H314 C324 0.930 . S
H315 C327 0.929 . S
H316 C330 0.930 . S
H317 C332 0.960 . S
H318 C332 0.960 . S
H319 C332 0.960 . S
C320 H312 0.929 . S
C320 C321 1.377 1_565 S
C320 C322 1.384 . S
C321 C320 1.377 1_545 S
C321 C327 1.390 . S
C322 H313 0.930 . S
C322 C320 1.384 . S
C322 C323 1.372 1_565 S
C323 C322 1.372 1_545 S
C323 C324 1.400 . S
C323 C328 1.490 . S
C324 H314 0.930 . S
C324 C323 1.400 . S
C324 C327 1.386 . S
H325 C341 0.930 . S
H326 C342 0.931 . S
C327 H315 0.929 . S
C327 C321 1.390 . S
C327 C324 1.386 . S
C328 C323 1.490 . S
C328 C330 1.398 1_545 S
C328 C331 1.400 . S
H329 C335 0.930 . S
C330 H316 0.930 . S
C330 C328 1.398 1_565 S
C330 C333 1.403 . S
C331 C328 1.400 . S
C331 C332 1.524 . S
C331 C335 1.400 . S
C332 H317 0.960 . S
C332 H318 0.960 . S
C332 H319 0.960 . S
C332 C331 1.524 . S
C333 C330 1.403 . S
C333 C334 1.392 . S
C333 C337 1.495 . S
C334 C333 1.392 . S
C334 C335 1.385 1_565 S
C334 C336 1.478 . S
C335 H329 0.930 . S
C335 C331 1.400 . S
C335 C334 1.385 1_545 S
C336 C334 1.478 . S
C336 C338 1.381 . S
C336 C342 1.383 1_565 S
C337 C333 1.495 . S
C337 H343 0.959 . S
C337 H344 0.961 . S
C337 H345 0.960 . S
C338 C336 1.381 . S
C338 C339 1.394 . S
C338 H346 0.930 . S
C339 C338 1.394 . S
C339 C340 1.383 . S
C339 H347 0.929 . S
C340 C339 1.383 . S
C340 C341 1.377 1_565 S
C341 H325 0.930 . S
C341 C340 1.377 1_545 S
C341 C342 1.379 . S
C342 H326 0.931 . S
C342 C336 1.383 1_545 S
C342 C341 1.379 . S
H343 C337 0.959 . S
H344 C337 0.961 . S
H345 C337 0.960 . S
H346 C338 0.930 . S
H347 C339 0.929 . S
H348 C356 0.929 . S
H349 C358 0.930 . S
H350 C360 0.930 . S
H351 C363 0.929 . S
H352 C366 0.930 . S
H353 C368 0.960 . S
H354 C368 0.960 . S
H355 C368 0.960 . S
C356 H348 0.929 . S
C356 C357 1.377 . S
C356 C358 1.384 . S
C357 C356 1.377 . S
C357 C363 1.390 . S
C358 H349 0.930 . S
C358 C356 1.384 . S
C358 C359 1.372 . S
C359 C358 1.372 . S
C359 C360 1.400 . S
C359 C364 1.490 . S
C360 H350 0.930 . S
C360 C359 1.400 . S
C360 C363 1.386 . S
H361 C377 0.930 . S
H362 C378 0.931 . S
C363 H351 0.929 . S
C363 C357 1.390 . S
C363 C360 1.386 . S
C364 C359 1.490 . S
C364 C366 1.395 . S
C364 C367 1.403 . S
H365 C371 0.930 . S
C366 H352 0.930 . S
C366 C364 1.395 . S
C366 C369 1.403 . S
C367 C364 1.403 . S
C367 C368 1.524 . S
C367 C371 1.400 . S
C368 H353 0.960 . S
C368 H354 0.960 . S
C368 H355 0.960 . S
C368 C367 1.524 . S
C369 C366 1.403 . S
C369 C370 1.392 . S
C369 C373 1.495 . S
C370 C369 1.392 . S
C370 C371 1.385 . S
C370 C372 1.478 . S
C371 H365 0.930 . S
C371 C367 1.400 . S
C371 C370 1.385 . S
C372 C370 1.478 . S
C372 C374 1.381 . S
C372 C378 1.383 . S
C373 C369 1.495 . S
C373 H379 0.959 . S
C373 H380 0.961 . S
C373 H381 0.960 . S
C374 C372 1.381 . S
C374 C375 1.394 . S
C374 H382 0.930 . S
C375 C374 1.394 . S
C375 C376 1.383 . S
C375 H383 0.929 . S
C376 C375 1.383 . S
C376 C377 1.377 . S
C377 H361 0.930 . S
C377 C376 1.377 . S
C377 C378 1.379 . S
C378 H362 0.931 . S
C378 C372 1.383 . S
C378 C377 1.379 . S
H379 C373 0.959 . S
H380 C373 0.961 . S
H381 C373 0.960 . S
H382 C374 0.930 . S
H383 C375 0.929 . S
H384 C392 0.929 . S
H385 C394 0.930 . S
H386 C396 0.930 . S
H387 C399 0.929 . S
H388 C402 0.930 . S
H389 C404 0.960 . S
H390 C404 0.960 . S
H391 C404 0.960 . S
C392 H384 0.929 . S
C392 C393 1.377 . S
C392 C394 1.384 . S
C393 C392 1.377 . S
C393 C399 1.390 1_455 S
C394 H385 0.930 . S
C394 C392 1.384 . S
C394 C395 1.372 . S
C395 C394 1.372 . S
C395 C396 1.400 1_455 S
C395 C400 1.490 . S
C396 H386 0.930 . S
C396 C395 1.400 1_655 S
C396 C399 1.386 . S
H397 C413 0.930 . S
H398 C414 0.931 . S
C399 H387 0.929 . S
C399 C393 1.390 1_655 S
C399 C396 1.386 . S
C400 C395 1.490 . S
C400 C402 1.395 . S
C400 C403 1.403 1_455 S
H401 C407 0.930 . S
C402 H388 0.930 . S
C402 C400 1.395 . S
C402 C405 1.403 . S
C403 C400 1.403 1_655 S
C403 C404 1.524 . S
C403 C407 1.400 . S
C404 H389 0.960 . S
C404 H390 0.960 . S
C404 H391 0.960 . S
C404 C403 1.524 . S
C405 C402 1.403 . S
C405 C406 1.392 . S
C405 C409 1.495 . S
C406 C405 1.392 . S
C406 C407 1.385 1_455 S
C406 C408 1.478 . S
C407 H401 0.930 . S
C407 C403 1.400 . S
C407 C406 1.385 1_655 S
C408 C406 1.478 . S
C408 C410 1.381 . S
C408 C414 1.383 1_455 S
C409 C405 1.495 . S
C409 H415 0.959 . S
C409 H416 0.961 . S
C409 H417 0.960 . S
C410 C408 1.381 . S
C410 C411 1.394 . S
C410 H418 0.930 . S
C411 C410 1.394 . S
C411 C412 1.383 . S
C411 H419 0.929 . S
C412 C411 1.383 . S
C412 C413 1.377 1_455 S
C413 H397 0.930 . S
C413 C412 1.377 1_655 S
C413 C414 1.379 . S
C414 H398 0.931 . S
C414 C408 1.383 1_655 S
C414 C413 1.379 . S
H415 C409 0.959 . S
H416 C409 0.961 . S
H417 C409 0.960 . S
H418 C410 0.930 . S
H419 C411 0.929 . S
H420 C428 0.929 . S
H421 C430 0.930 . S
H422 C432 0.930 . S
H423 C435 0.929 . S
H424 C438 0.930 . S
H425 C440 0.960 . S
H426 C440 0.960 . S
H427 C440 0.960 . S
C428 H420 0.929 . S
C428 C429 1.377 1_565 S
C428 C430 1.384 . S
C429 C428 1.377 1_545 S
C429 C435 1.390 . S
C430 H421 0.930 . S
C430 C428 1.384 . S
C430 C431 1.372 1_565 S
C431 C430 1.372 1_545 S
C431 C432 1.400 . S
C431 C436 1.493 . S
C432 H422 0.930 . S
C432 C431 1.400 . S
C432 C435 1.386 . S
H433 C449 0.942 . S
H434 C450 0.949 . S
C435 H423 0.929 . S
C435 C429 1.390 . S
C435 C432 1.386 . S
C436 C431 1.493 . S
C436 C438 1.371 1_545 S
C436 C439 1.423 . S
H437 C443 0.930 . S
C438 H424 0.930 . S
C438 C436 1.371 1_565 S
C438 C441 1.403 . S
C439 C436 1.423 . S
C439 C440 1.524 . S
C439 C443 1.400 . S
C440 H425 0.960 . S
C440 H426 0.960 . S
C440 H427 0.960 . S
C440 C439 1.524 . S
C441 C438 1.403 . S
C441 C442 1.392 . S
C441 C445 1.495 . S
C442 C441 1.392 . S
C442 C443 1.385 1_565 S
C442 C444 1.478 . S
C443 H437 0.930 . S
C443 C439 1.400 . S
C443 C442 1.385 1_545 S
C444 C442 1.478 . S
C444 C446 1.381 . S
C444 C450 1.383 . S
C445 C441 1.495 . S
C445 H451 0.959 . S
C445 H452 0.961 . S
C445 H453 0.960 . S
C446 C444 1.381 . S
C446 C447 1.394 . S
C446 H454 0.930 . S
C447 C446 1.394 . S
C447 C448 1.383 . S
C447 H455 0.929 . S
C448 C447 1.383 . S
C448 C449 1.377 . S
C449 H433 0.942 . S
C449 C448 1.377 . S
C449 C450 1.379 . S
C450 H434 0.949 . S
C450 C444 1.383 . S
C450 C449 1.379 . S
H451 C445 0.959 . S
H452 C445 0.961 . S
H453 C445 0.960 . S
H454 C446 0.930 . S
H455 C447 0.929 . S
H456 C464 0.929 . S
H457 C466 0.930 . S
H458 C468 0.930 . S
H459 C471 0.929 . S
H460 C474 0.930 . S
H461 C476 0.960 . S
H462 C476 0.960 . S
H463 C476 0.960 . S
C464 H456 0.929 . S
C464 C465 1.377 . S
C464 C466 1.384 . S
C465 C464 1.377 . S
C465 C471 1.390 . S
C466 H457 0.930 . S
C466 C464 1.384 . S
C466 C467 1.372 . S
C467 C466 1.372 . S
C467 C468 1.400 . S
C467 C472 1.490 . S
C468 H458 0.930 . S
C468 C467 1.400 . S
C468 C471 1.386 . S
H469 C485 0.930 . S
H470 C486 0.931 . S
C471 H459 0.929 . S
C471 C465 1.390 . S
C471 C468 1.386 . S
C472 C467 1.490 . S
C472 C474 1.395 . S
C472 C475 1.403 . S
H473 C479 0.930 . S
C474 H460 0.930 . S
C474 C472 1.395 . S
C474 C477 1.403 . S
C475 C472 1.403 . S
C475 C476 1.524 . S
C475 C479 1.400 . S
C476 H461 0.960 . S
C476 H462 0.960 . S
C476 H463 0.960 . S
C476 C475 1.524 . S
C477 C474 1.403 . S
C477 C478 1.392 . S
C477 C481 1.495 . S
C478 C477 1.392 . S
C478 C479 1.385 . S
C478 C480 1.478 . S
C479 H473 0.930 . S
C479 C475 1.400 . S
C479 C478 1.385 . S
C480 C478 1.478 . S
C480 C482 1.381 . S
C480 C486 1.383 . S
C481 C477 1.495 . S
C481 H487 0.959 . S
C481 H488 0.961 . S
C481 H489 0.960 . S
C482 C480 1.381 . S
C482 C483 1.394 . S
C482 H490 0.930 . S
C483 C482 1.394 . S
C483 C484 1.383 . S
C483 H491 0.929 . S
C484 C483 1.383 . S
C484 C485 1.377 . S
C485 H469 0.930 . S
C485 C484 1.377 . S
C485 C486 1.379 . S
C486 H470 0.931 . S
C486 C480 1.383 . S
C486 C485 1.379 . S
H487 C481 0.959 . S
H488 C481 0.961 . S
H489 C481 0.960 . S
H490 C482 0.930 . S
H491 C483 0.929 . S
H492 C500 0.929 . S
H493 C502 0.930 . S
H494 C504 0.930 . S
H495 C507 0.929 . S
H496 C510 0.930 . S
H497 C512 0.972 . S
H498 C512 0.958 1_554 S
H499 C512 0.951 1_554 S
C500 H492 0.929 . S
C500 C501 1.377 . S
C500 C502 1.384 . S
C501 C500 1.377 . S
C501 C507 1.390 . S
C502 H493 0.930 . S
C502 C500 1.384 . S
C502 C503 1.372 . S
C503 C502 1.372 . S
C503 C504 1.400 . S
C503 C508 1.490 . S
C504 H494 0.930 . S
C504 C503 1.400 . S
C504 C507 1.386 . S
H505 C521 0.930 . S
H506 C522 0.931 . S
C507 H495 0.929 . S
C507 C501 1.390 . S
C507 C504 1.386 . S
C508 C503 1.490 . S
C508 C510 1.395 . S
C508 C511 1.434 . S
H509 C515 0.930 . S
C510 H496 0.930 . S
C510 C508 1.395 . S
C510 C513 1.407 . S
C511 C508 1.434 . S
C511 C512 1.522 1_554 S
C511 C515 1.370 1_554 S
C512 H497 0.972 . S
C512 H498 0.958 1_556 S
C512 H499 0.951 1_556 S
C512 C511 1.522 1_556 S
C513 C510 1.407 . S
C513 C514 1.388 1_554 S
C513 C517 1.495 . S
C514 C513 1.388 1_556 S
C514 C515 1.385 . S
C514 C516 1.478 . S
C515 H509 0.930 . S
C515 C511 1.370 1_556 S
C515 C514 1.385 . S
C516 C514 1.478 . S
C516 C518 1.381 . S
C516 C522 1.383 . S
C517 C513 1.495 . S
C517 H523 0.995 . S
C517 H524 0.955 1_554 S
C517 H525 0.932 1_554 S
C518 C516 1.381 . S
C518 C519 1.394 . S
C518 H526 0.930 . S
C519 C518 1.394 . S
C519 C520 1.383 . S
C519 H527 0.929 . S
C520 C519 1.383 . S
C520 C521 1.377 . S
C521 H505 0.930 . S
C521 C520 1.377 . S
C521 C522 1.379 . S
C522 H506 0.931 . S
C522 C516 1.383 . S
C522 C521 1.379 . S
H523 C517 0.995 . S
H524 C517 0.955 1_556 S
H525 C517 0.932 1_556 S
H526 C518 0.930 . S
H527 C519 0.929 . S
H528 C536 0.929 . S
H529 C538 0.930 . S
H530 C540 0.930 . S
H531 C543 0.929 . S
H532 C546 0.930 . S
H533 C548 0.960 . S
H534 C548 0.960 . S
H535 C548 0.960 . S
C536 H528 0.929 . S
C536 C537 1.377 . S
C536 C538 1.384 . S
C537 C536 1.377 . S
C537 C543 1.390 . S
C538 H529 0.930 . S
C538 C536 1.384 . S
C538 C539 1.372 . S
C539 C538 1.372 . S
C539 C540 1.400 . S
C539 C544 1.490 . S
C540 H530 0.930 . S
C540 C539 1.400 . S
C540 C543 1.386 . S
H541 C557 0.930 . S
H542 C558 0.931 . S
C543 H531 0.929 . S
C543 C537 1.390 . S
C543 C540 1.386 . S
C544 C539 1.490 . S
C544 C546 1.395 . S
C544 C547 1.403 . S
H545 C551 0.930 . S
C546 H532 0.930 . S
C546 C544 1.395 . S
C546 C549 1.403 . S
C547 C544 1.403 . S
C547 C548 1.524 . S
C547 C551 1.400 . S
C548 H533 0.960 . S
C548 H534 0.960 . S
C548 H535 0.960 . S
C548 C547 1.524 . S
C549 C546 1.403 . S
C549 C550 1.392 . S
C549 C553 1.495 . S
C550 C549 1.392 . S
C550 C551 1.385 . S
C550 C552 1.478 . S
C551 H545 0.930 . S
C551 C547 1.400 . S
C551 C550 1.385 . S
C552 C550 1.478 . S
C552 C554 1.381 . S
C552 C558 1.383 . S
C553 C549 1.495 . S
C553 H559 0.959 . S
C553 H560 0.961 . S
C553 H561 0.960 . S
C554 C552 1.381 . S
C554 C555 1.394 . S
C554 H562 0.930 . S
C555 C554 1.394 . S
C555 C556 1.383 . S
C555 H563 0.929 . S
C556 C555 1.383 . S
C556 C557 1.377 . S
C557 H541 0.930 . S
C557 C556 1.377 . S
C557 C558 1.379 . S
C558 H542 0.931 . S
C558 C552 1.383 . S
C558 C557 1.379 . S
H559 C553 0.959 . S
H560 C553 0.961 . S
H561 C553 0.960 . S
H562 C554 0.930 . S
H563 C555 0.929 . S
H564 C572 0.929 . S
H565 C574 0.930 . S
H566 C576 0.930 . S
H567 C579 0.929 . S
H568 C582 0.930 . S
H569 C584 0.960 . S
H570 C584 0.960 . S
H571 C584 0.960 . S
C572 H564 0.929 . S
C572 C573 1.377 . S
C572 C574 1.384 . S
C573 C572 1.377 . S
C573 C579 1.390 . S
C574 H565 0.930 . S
C574 C572 1.384 . S
C574 C575 1.372 . S
C575 C574 1.372 . S
C575 C576 1.400 . S
C575 C580 1.490 . S
C576 H566 0.930 . S
C576 C575 1.400 . S
C576 C579 1.386 . S
H577 C593 0.930 . S
H578 C594 0.931 . S
C579 H567 0.929 . S
C579 C573 1.390 . S
C579 C576 1.386 . S
C580 C575 1.490 . S
C580 C582 1.395 . S
C580 C583 1.403 . S
H581 C587 0.930 . S
C582 H568 0.930 . S
C582 C580 1.395 . S
C582 C585 1.403 . S
C583 C580 1.403 . S
C583 C584 1.524 . S
C583 C587 1.400 . S
C584 H569 0.960 . S
C584 H570 0.960 . S
C584 H571 0.960 . S
C584 C583 1.524 . S
C585 C582 1.403 . S
C585 C586 1.392 . S
C585 C589 1.495 . S
C586 C585 1.392 . S
C586 C587 1.385 . S
C586 C588 1.478 . S
C587 H581 0.930 . S
C587 C583 1.400 . S
C587 C586 1.385 . S
C588 C586 1.478 . S
C588 C590 1.381 . S
C588 C594 1.383 . S
C589 C585 1.495 . S
C589 H595 0.959 . S
C589 H596 0.961 . S
C589 H597 0.960 . S
C590 C588 1.381 . S
C590 C591 1.394 . S
C590 H598 0.930 . S
C591 C590 1.394 . S
C591 C592 1.383 . S
C591 H599 0.929 . S
C592 C591 1.383 . S
C592 C593 1.377 . S
C593 H577 0.930 . S
C593 C592 1.377 . S
C593 C594 1.379 . S
C594 H578 0.931 . S
C594 C588 1.383 . S
C594 C593 1.379 . S
H595 C589 0.959 . S
H596 C589 0.961 . S
H597 C589 0.960 . S
H598 C590 0.930 . S
H599 C591 0.929 . S
H600 C608 0.929 . S
H601 C610 0.930 . S
H602 C612 0.930 . S
H603 C615 0.929 . S
H604 C618 0.930 . S
H605 C620 1.058 . S
H606 C620 0.907 1_554 S
H607 C620 0.933 1_554 S
C608 H600 0.929 . S
C608 C609 1.377 . S
C608 C610 1.384 . S
C609 C608 1.377 . S
C609 C615 1.390 . S
C610 H601 0.930 . S
C610 C608 1.384 . S
C610 C611 1.372 . S
C611 C610 1.372 . S
C611 C612 1.400 . S
C611 C616 1.490 . S
C612 H602 0.930 . S
C612 C611 1.400 . S
C612 C615 1.386 . S
H613 C629 0.930 . S
H614 C630 0.931 . S
C615 H603 0.929 . S
C615 C609 1.390 . S
C615 C612 1.386 . S
C616 C611 1.490 . S
C616 C618 1.395 . S
C616 C619 1.406 . S
H617 C623 0.930 . S
C618 H604 0.930 . S
C618 C616 1.395 . S
C618 C621 1.403 . S
C619 C616 1.406 . S
C619 C620 1.518 1_554 S
C619 C623 1.397 1_554 S
C620 H605 1.058 . S
C620 H606 0.907 1_556 S
C620 H607 0.933 1_556 S
C620 C619 1.518 1_556 S
C621 C618 1.403 . S
C621 C622 1.392 1_554 S
C621 C625 1.495 . S
C622 C621 1.392 1_556 S
C622 C623 1.385 . S
C622 C624 1.478 . S
C623 H617 0.930 . S
C623 C619 1.397 1_556 S
C623 C622 1.385 . S
C624 C622 1.478 . S
C624 C626 1.381 . S
C624 C630 1.383 . S
C625 C621 1.495 . S
C625 H631 0.959 . S
C625 H632 0.961 1_554 S
C625 H633 0.947 1_554 S
C626 C624 1.381 . S
C626 C627 1.394 . S
C626 H634 0.930 . S
C627 C626 1.394 . S
C627 C628 1.383 . S
C627 H635 0.929 . S
C628 C627 1.383 . S
C628 C629 1.377 . S
C629 H613 0.930 . S
C629 C628 1.377 . S
C629 C630 1.379 . S
C630 H614 0.931 . S
C630 C624 1.383 . S
C630 C629 1.379 . S
H631 C625 0.959 . S
H632 C625 0.961 1_556 S
H633 C625 0.947 1_556 S
H634 C626 0.930 . S
H635 C627 0.929 . S
H636 C644 0.929 . S
H637 C646 0.930 . S
H638 C648 0.930 . S
H639 C651 0.929 . S
H640 C654 0.930 . S
H641 C656 0.960 . S
H642 C656 0.960 . S
H643 C656 0.960 . S
C644 H636 0.929 . S
C644 C645 1.377 . S
C644 C646 1.384 . S
C645 C644 1.377 . S
C645 C651 1.390 . S
C646 H637 0.930 . S
C646 C644 1.384 . S
C646 C647 1.372 . S
C647 C646 1.372 . S
C647 C648 1.400 . S
C647 C652 1.490 . S
C648 H638 0.930 . S
C648 C647 1.400 . S
C648 C651 1.386 . S
H649 C665 0.930 . S
H650 C666 0.931 . S
C651 H639 0.929 . S
C651 C645 1.390 . S
C651 C648 1.386 . S
C652 C647 1.490 . S
C652 C654 1.395 . S
C652 C655 1.403 . S
H653 C659 0.930 . S
C654 H640 0.930 . S
C654 C652 1.395 . S
C654 C657 1.403 . S
C655 C652 1.403 . S
C655 C656 1.524 . S
C655 C659 1.400 . S
C656 H641 0.960 . S
C656 H642 0.960 . S
C656 H643 0.960 . S
C656 C655 1.524 . S
C657 C654 1.403 . S
C657 C658 1.392 . S
C657 C661 1.495 . S
C658 C657 1.392 . S
C658 C659 1.385 . S
C658 C660 1.478 . S
C659 H653 0.930 . S
C659 C655 1.400 . S
C659 C658 1.385 . S
C660 C658 1.478 . S
C660 C662 1.381 . S
C660 C666 1.383 . S
C661 C657 1.495 . S
C661 H667 0.959 . S
C661 H668 0.961 . S
C661 H669 0.960 . S
C662 C660 1.381 . S
C662 C663 1.394 . S
C662 H670 0.930 . S
C663 C662 1.394 . S
C663 C664 1.383 . S
C663 H671 0.929 . S
C664 C663 1.383 . S
C664 C665 1.377 . S
C665 H649 0.930 . S
C665 C664 1.377 . S
C665 C666 1.379 . S
C666 H650 0.931 . S
C666 C660 1.383 . S
C666 C665 1.379 . S
H667 C661 0.959 . S
H668 C661 0.961 . S
H669 C661 0.960 . S
H670 C662 0.930 . S
H671 C663 0.929 . S
H672 C680 0.929 . S
H673 C682 0.930 . S
H674 C684 0.930 . S
H675 C687 0.929 . S
H676 C690 0.930 . S
H677 C692 0.960 . S
H678 C692 0.960 . S
H679 C692 0.960 . S
C680 H672 0.929 . S
C680 C681 1.377 . S
C680 C682 1.384 . S
C681 C680 1.377 . S
C681 C687 1.390 . S
C682 H673 0.930 . S
C682 C680 1.384 . S
C682 C683 1.372 . S
C683 C682 1.372 . S
C683 C684 1.400 . S
C683 C688 1.490 . S
C684 H674 0.930 . S
C684 C683 1.400 . S
C684 C687 1.386 . S
H685 C701 0.930 . S
H686 C702 0.931 . S
C687 H675 0.929 . S
C687 C681 1.390 . S
C687 C684 1.386 . S
C688 C683 1.490 . S
C688 C690 1.395 . S
C688 C691 1.403 . S
H689 C695 0.930 . S
C690 H676 0.930 . S
C690 C688 1.395 . S
C690 C693 1.403 . S
C691 C688 1.403 . S
C691 C692 1.524 . S
C691 C695 1.400 . S
C692 H677 0.960 . S
C692 H678 0.960 . S
C692 H679 0.960 . S
C692 C691 1.524 . S
C693 C690 1.403 . S
C693 C694 1.392 . S
C693 C697 1.495 . S
C694 C693 1.392 . S
C694 C695 1.385 . S
C694 C696 1.478 . S
C695 H689 0.930 . S
C695 C691 1.400 . S
C695 C694 1.385 . S
C696 C694 1.478 . S
C696 C698 1.381 . S
C696 C702 1.383 . S
C697 C693 1.495 . S
C697 H703 0.959 . S
C697 H704 0.961 . S
C697 H705 0.960 . S
C698 C696 1.381 . S
C698 C699 1.394 . S
C698 H706 0.930 . S
C699 C698 1.394 . S
C699 C700 1.383 . S
C699 H707 0.929 . S
C700 C699 1.383 . S
C700 C701 1.377 . S
C701 H685 0.930 . S
C701 C700 1.377 . S
C701 C702 1.379 . S
C702 H686 0.931 . S
C702 C696 1.383 . S
C702 C701 1.379 . S
H703 C697 0.959 . S
H704 C697 0.961 . S
H705 C697 0.960 . S
H706 C698 0.930 . S
H707 C699 0.929 . S
H708 C716 0.929 . S
H709 C718 0.930 . S
H710 C720 0.930 . S
H711 C723 0.929 . S
H712 C726 0.930 . S
H713 C728 0.960 . S
H714 C728 0.960 . S
H715 C728 0.960 . S
C716 H708 0.929 . S
C716 C717 1.377 . S
C716 C718 1.384 . S
C717 C716 1.377 . S
C717 C723 1.390 1_455 S
C718 H709 0.930 . S
C718 C716 1.384 . S
C718 C719 1.372 . S
C719 C718 1.372 . S
C719 C720 1.400 1_455 S
C719 C724 1.490 . S
C720 H710 0.930 . S
C720 C719 1.400 1_655 S
C720 C723 1.386 . S
H721 C737 0.930 . S
H722 C738 0.931 . S
C723 H711 0.929 . S
C723 C717 1.390 1_655 S
C723 C720 1.386 . S
C724 C719 1.490 . S
C724 C726 1.395 . S
C724 C727 1.403 1_455 S
H725 C731 0.930 . S
C726 H712 0.930 . S
C726 C724 1.395 . S
C726 C729 1.403 . S
C727 C724 1.403 1_655 S
C727 C728 1.524 . S
C727 C731 1.400 . S
C728 H713 0.960 . S
C728 H714 0.960 . S
C728 H715 0.960 . S
C728 C727 1.524 . S
C729 C726 1.403 . S
C729 C730 1.392 . S
C729 C733 1.495 . S
C730 C729 1.392 . S
C730 C731 1.385 1_455 S
C730 C732 1.478 . S
C731 H725 0.930 . S
C731 C727 1.400 . S
C731 C730 1.385 1_655 S
C732 C730 1.478 . S
C732 C734 1.381 . S
C732 C738 1.383 1_455 S
C733 C729 1.495 . S
C733 H739 0.959 . S
C733 H740 0.961 . S
C733 H741 0.960 . S
C734 C732 1.381 . S
C734 C735 1.394 . S
C734 H742 0.930 . S
C735 C734 1.394 . S
C735 C736 1.383 1_455 S
C735 H743 0.929 . S
C736 C735 1.383 1_655 S
C736 C737 1.377 . S
C737 H721 0.930 . S
C737 C736 1.377 . S
C737 C738 1.379 . S
C738 H722 0.931 . S
C738 C732 1.383 1_655 S
C738 C737 1.379 . S
H739 C733 0.959 . S
H740 C733 0.961 . S
H741 C733 0.960 . S
H742 C734 0.930 . S
H743 C735 0.929 . S
H744 C752 0.929 . S
H745 C754 0.930 1_565 S
H746 C756 0.930 . S
H747 C759 0.929 . S
H748 C762 0.930 . S
H749 C764 0.960 . S
H750 C764 0.960 . S
H751 C764 0.960 . S
C752 H744 0.929 . S
C752 C753 1.377 . S
C752 C754 1.384 . S
C753 C752 1.377 . S
C753 C759 1.390 . S
C754 H745 0.930 1_545 S
C754 C752 1.384 . S
C754 C755 1.372 . S
C755 C754 1.372 . S
C755 C756 1.400 . S
C755 C760 1.490 . S
C756 H746 0.930 . S
C756 C755 1.400 . S
C756 C759 1.386 . S
H757 C773 0.930 1_545 S
H758 C774 0.931 . S
C759 H747 0.929 . S
C759 C753 1.390 . S
C759 C756 1.386 . S
C760 C755 1.490 . S
C760 C762 1.395 . S
C760 C763 1.403 1_545 S
H761 C767 0.930 . S
C762 H748 0.930 . S
C762 C760 1.395 . S
C762 C765 1.403 . S
C763 C760 1.403 1_565 S
C763 C764 1.524 . S
C763 C767 1.400 . S
C764 H749 0.960 . S
C764 H750 0.960 . S
C764 H751 0.960 . S
C764 C763 1.524 . S
C765 C762 1.403 . S
C765 C766 1.392 1_545 S
C765 C769 1.495 . S
C766 C765 1.392 1_565 S
C766 C767 1.385 . S
C766 C768 1.478 . S
C767 H761 0.930 . S
C767 C763 1.400 . S
C767 C766 1.385 . S
C768 C766 1.478 . S
C768 C770 1.381 . S
C768 C774 1.383 1_565 S
C769 C765 1.495 . S
C769 H775 0.959 . S
C769 H776 0.961 . S
C769 H777 0.960 . S
C770 C768 1.381 . S
C770 C771 1.394 . S
C770 H778 0.930 . S
C771 C770 1.394 . S
C771 C772 1.383 . S
C771 H779 0.929 . S
C772 C771 1.383 . S
C772 C773 1.377 . S
C773 H757 0.930 1_565 S
C773 C772 1.377 . S
C773 C774 1.379 1_565 S
C774 H758 0.931 . S
C774 C768 1.383 1_545 S
C774 C773 1.379 1_545 S
H775 C769 0.959 . S
H776 C769 0.961 . S
H777 C769 0.960 . S
H778 C770 0.930 . S
H779 C771 0.929 . S
H780 C788 0.929 . S
H781 C790 0.930 . S
H782 C792 0.930 . S
H783 C795 0.929 . S
H784 C798 0.930 . S
H785 C800 0.960 . S
H786 C800 0.960 . S
H787 C800 0.960 . S
C788 H780 0.929 . S
C788 C789 1.377 . S
C788 C790 1.384 . S
C789 C788 1.377 . S
C789 C795 1.390 . S
C790 H781 0.930 . S
C790 C788 1.384 . S
C790 C791 1.372 . S
C791 C790 1.372 . S
C791 C792 1.400 . S
C791 C796 1.490 . S
C792 H782 0.930 . S
C792 C791 1.400 . S
C792 C795 1.386 . S
H793 C809 0.930 . S
H794 C810 0.931 . S
C795 H783 0.929 . S
C795 C789 1.390 . S
C795 C792 1.386 . S
C796 C791 1.490 . S
C796 C798 1.395 . S
C796 C799 1.403 . S
H797 C803 0.930 . S
C798 H784 0.930 . S
C798 C796 1.395 . S
C798 C801 1.403 . S
C799 C796 1.403 . S
C799 C800 1.524 . S
C799 C803 1.400 . S
C800 H785 0.960 . S
C800 H786 0.960 . S
C800 H787 0.960 . S
C800 C799 1.524 . S
C801 C798 1.403 . S
C801 C802 1.392 . S
C801 C805 1.495 . S
C802 C801 1.392 . S
C802 C803 1.385 . S
C802 C804 1.478 . S
C803 H797 0.930 . S
C803 C799 1.400 . S
C803 C802 1.385 . S
C804 C802 1.478 . S
C804 C806 1.381 . S
C804 C810 1.383 . S
C805 C801 1.495 . S
C805 H811 0.959 . S
C805 H812 0.961 . S
C805 H813 0.960 . S
C806 C804 1.381 . S
C806 C807 1.394 . S
C806 H814 0.930 . S
C807 C806 1.394 . S
C807 C808 1.383 . S
C807 H815 0.929 . S
C808 C807 1.383 . S
C808 C809 1.377 . S
C809 H793 0.930 . S
C809 C808 1.377 . S
C809 C810 1.379 . S
C810 H794 0.931 . S
C810 C804 1.383 . S
C810 C809 1.379 . S
H811 C805 0.959 . S
H812 C805 0.961 . S
H813 C805 0.960 . S
H814 C806 0.930 . S
H815 C807 0.929 . S
H816 C824 0.929 . S
H817 C826 0.930 1_565 S
H818 C828 0.930 . S
H819 C831 0.929 . S
H820 C834 0.930 . S
H821 C836 0.960 . S
H822 C836 0.960 . S
H823 C836 0.960 . S
C824 H816 0.929 . S
C824 C825 1.377 . S
C824 C826 1.384 . S
C825 C824 1.377 . S
C825 C831 1.390 . S
C826 H817 0.930 1_545 S
C826 C824 1.384 . S
C826 C827 1.372 . S
C827 C826 1.372 . S
C827 C828 1.400 . S
C827 C832 1.490 . S
C828 H818 0.930 . S
C828 C827 1.400 . S
C828 C831 1.386 . S
H829 C845 0.930 1_545 S
H830 C846 0.931 . S
C831 H819 0.929 . S
C831 C825 1.390 . S
C831 C828 1.386 . S
C832 C827 1.490 . S
C832 C834 1.395 . S
C832 C835 1.403 1_545 S
H833 C839 0.930 . S
C834 H820 0.930 . S
C834 C832 1.395 . S
C834 C837 1.403 . S
C835 C832 1.403 1_565 S
C835 C836 1.524 . S
C835 C839 1.400 . S
C836 H821 0.960 . S
C836 H822 0.960 . S
C836 H823 0.960 . S
C836 C835 1.524 . S
C837 C834 1.403 . S
C837 C838 1.371 1_545 S
C837 C841 1.495 . S
C838 C837 1.371 1_565 S
C838 C839 1.393 . S
C838 C840 1.492 . S
C839 H833 0.930 . S
C839 C835 1.400 . S
C839 C838 1.393 . S
C840 C838 1.492 . S
C840 C842 1.381 . S
C840 C846 1.383 1_565 S
C841 C837 1.495 . S
C841 H847 0.959 . S
C841 H848 0.961 . S
C841 H849 0.960 . S
C842 C840 1.381 . S
C842 C843 1.394 . S
C842 H850 0.930 . S
C843 C842 1.394 . S
C843 C844 1.383 . S
C843 H851 0.929 . S
C844 C843 1.383 . S
C844 C845 1.377 . S
C845 H829 0.930 1_565 S
C845 C844 1.377 . S
C845 C846 1.379 1_565 S
C846 H830 0.931 . S
C846 C840 1.383 1_545 S
C846 C845 1.379 1_545 S
H847 C841 0.959 . S
H848 C841 0.961 . S
H849 C841 0.960 . S
H850 C842 0.930 . S
H851 C843 0.929 . S
H852 C860 0.929 . S
H853 C862 0.930 . S
H854 C864 0.930 . S
H855 C867 0.929 . S
H856 C870 0.930 . S
H857 C872 0.960 . S
H858 C872 0.960 . S
H859 C872 0.960 . S
C860 H852 0.929 . S
C860 C861 1.377 . S
C860 C862 1.384 . S
C861 C860 1.377 . S
C861 C867 1.390 . S
C862 H853 0.930 . S
C862 C860 1.384 . S
C862 C863 1.372 . S
C863 C862 1.372 . S
C863 C864 1.400 . S
C863 C868 1.490 . S
C864 H854 0.930 . S
C864 C863 1.400 . S
C864 C867 1.386 . S
H865 C881 0.930 . S
H866 C882 0.931 . S
C867 H855 0.929 . S
C867 C861 1.390 . S
C867 C864 1.386 . S
C868 C863 1.490 . S
C868 C870 1.395 . S
C868 C871 1.403 . S
H869 C875 0.930 . S
C870 H856 0.930 . S
C870 C868 1.395 . S
C870 C873 1.403 . S
C871 C868 1.403 . S
C871 C872 1.524 . S
C871 C875 1.400 . S
C872 H857 0.960 . S
C872 H858 0.960 . S
C872 H859 0.960 . S
C872 C871 1.524 . S
C873 C870 1.403 . S
C873 C874 1.392 . S
C873 C877 1.495 . S
C874 C873 1.392 . S
C874 C875 1.385 . S
C874 C876 1.478 . S
C875 H869 0.930 . S
C875 C871 1.400 . S
C875 C874 1.385 . S
C876 C874 1.478 . S
C876 C878 1.381 . S
C876 C882 1.383 . S
C877 C873 1.495 . S
C877 H883 0.959 . S
C877 H884 0.961 . S
C877 H885 0.960 . S
C878 C876 1.381 . S
C878 C879 1.394 . S
C878 H886 0.930 . S
C879 C878 1.394 . S
C879 C880 1.383 . S
C879 H887 0.929 . S
C880 C879 1.383 . S
C880 C881 1.377 . S
C881 H865 0.930 . S
C881 C880 1.377 . S
C881 C882 1.379 . S
C882 H866 0.931 . S
C882 C876 1.383 . S
C882 C881 1.379 . S
H883 C877 0.959 . S
H884 C877 0.961 . S
H885 C877 0.960 . S
H886 C878 0.930 . S
H887 C879 0.929 . S
H888 C896 0.929 . S
H889 C898 0.930 . S
H890 C900 0.930 . S
H891 C903 0.929 . S
H892 C906 0.930 . S
H893 C908 0.960 . S
H894 C908 0.960 . S
H895 C908 0.960 . S
C896 H888 0.929 . S
C896 C897 1.377 1_655 S
C896 C898 1.384 . S
C897 C896 1.377 1_455 S
C897 C903 1.390 . S
C898 H889 0.930 . S
C898 C896 1.384 . S
C898 C899 1.372 1_655 S
C899 C898 1.372 1_455 S
C899 C900 1.400 . S
C899 C904 1.486 . S
C900 H890 0.930 . S
C900 C899 1.400 . S
C900 C903 1.386 . S
H901 C917 0.930 . S
H902 C918 0.931 . S
C903 H891 0.929 . S
C903 C897 1.390 . S
C903 C900 1.386 . S
C904 C899 1.486 . S
C904 C906 1.400 . S
C904 C907 1.401 1_455 S
H905 C911 0.930 . S
C906 H892 0.930 . S
C906 C904 1.400 . S
C906 C909 1.403 . S
C907 C904 1.401 1_655 S
C907 C908 1.524 . S
C907 C911 1.400 . S
C908 H893 0.960 . S
C908 H894 0.960 . S
C908 H895 0.960 . S
C908 C907 1.524 . S
C909 C906 1.403 . S
C909 C910 1.392 . S
C909 C913 1.495 . S
C910 C909 1.392 . S
C910 C911 1.385 1_455 S
C910 C912 1.478 . S
C911 H905 0.930 . S
C911 C907 1.400 . S
C911 C910 1.385 1_655 S
C912 C910 1.478 . S
C912 C914 1.381 1_455 S
C912 C918 1.383 . S
C913 C909 1.495 . S
C913 H919 0.959 . S
C913 H920 0.961 . S
C913 H921 0.960 . S
C914 C912 1.381 1_655 S
C914 C915 1.394 . S
C914 H922 0.930 . S
C915 C914 1.394 . S
C915 C916 1.395 . S
C915 H923 0.929 . S
C916 C915 1.395 . S
C916 C917 1.374 1_655 S
C917 H901 0.930 . S
C917 C916 1.374 1_455 S
C917 C918 1.379 . S
C918 H902 0.931 . S
C918 C912 1.383 . S
C918 C917 1.379 . S
H919 C913 0.959 . S
H920 C913 0.961 . S
H921 C913 0.960 . S
H922 C914 0.930 . S
H923 C915 0.929 . S
H924 C932 0.929 . S
H925 C934 0.930 . S
H926 C936 0.930 . S
H927 C939 0.929 . S
H928 C942 0.930 . S
H929 C944 0.960 . S
H930 C944 0.960 . S
H931 C944 0.960 . S
C932 H924 0.929 . S
C932 C933 1.377 . S
C932 C934 1.384 . S
C933 C932 1.377 . S
C933 C939 1.390 1_655 S
C934 H925 0.930 . S
C934 C932 1.384 . S
C934 C935 1.372 . S
C935 C934 1.372 . S
C935 C936 1.400 1_655 S
C935 C940 1.490 . S
C936 H926 0.930 . S
C936 C935 1.400 1_455 S
C936 C939 1.386 . S
H937 C953 0.930 . S
H938 C954 0.931 . S
C939 H927 0.929 . S
C939 C933 1.390 1_455 S
C939 C936 1.386 . S
C940 C935 1.490 . S
C940 C942 1.395 . S
C940 C943 1.403 1_655 S
H941 C947 0.930 . S
C942 H928 0.930 . S
C942 C940 1.395 . S
C942 C945 1.403 1_545 S
C943 C940 1.403 1_455 S
C943 C944 1.524 . S
C943 C947 1.400 1_545 S
C944 H929 0.960 . S
C944 H930 0.960 . S
C944 H931 0.960 . S
C944 C943 1.524 . S
C945 C942 1.403 1_565 S
C945 C946 1.392 . S
C945 C949 1.495 . S
C946 C945 1.392 . S
C946 C947 1.385 1_655 S
C946 C948 1.478 . S
C947 H941 0.930 . S
C947 C943 1.400 1_565 S
C947 C946 1.385 1_455 S
C948 C946 1.478 . S
C948 C950 1.381 . S
C948 C954 1.383 1_655 S
C949 C945 1.495 . S
C949 H955 0.959 . S
C949 H956 0.961 . S
C949 H957 0.960 . S
C950 C948 1.381 . S
C950 C951 1.394 . S
C950 H958 0.930 . S
C951 C950 1.394 . S
C951 C952 1.395 . S
C951 H959 0.929 . S
C952 C951 1.395 . S
C952 C953 1.373 1_655 S
C953 H937 0.930 . S
C953 C952 1.373 1_455 S
C953 C954 1.379 . S
C954 H938 0.931 . S
C954 C948 1.383 1_455 S
C954 C953 1.379 . S
H955 C949 0.959 . S
H956 C949 0.961 . S
H957 C949 0.960 . S
H958 C950 0.930 . S
H959 C951 0.929 . S
H960 C968 0.929 . S
H961 C970 0.930 . S
H962 C972 0.914 1_565 S
H963 C975 0.929 1_565 S
H964 C978 0.930 . S
H965 C980 0.960 . S
H966 C980 0.960 . S
H967 C980 0.960 . S
C968 H960 0.929 . S
C968 C969 1.377 . S
C968 C970 1.384 . S
C969 C968 1.377 . S
C969 C975 1.390 . S
C970 H961 0.930 . S
C970 C968 1.384 . S
C970 C971 1.372 . S
C971 C970 1.372 . S
C971 C972 1.400 . S
C971 C976 1.490 . S
C972 H962 0.914 1_545 S
C972 C971 1.400 . S
C972 C975 1.402 . S
H973 C989 0.930 . S
H974 C990 0.931 . S
C975 H963 0.929 1_545 S
C975 C969 1.390 . S
C975 C972 1.402 . S
C976 C971 1.490 . S
C976 C978 1.395 1_655 S
C976 C979 1.403 1_545 S
H977 C983 0.930 . S
C978 H964 0.930 . S
C978 C976 1.395 1_455 S
C978 C981 1.403 . S
C979 C976 1.403 1_565 S
C979 C980 1.524 . S
C979 C983 1.400 1_655 S
C980 H965 0.960 . S
C980 H966 0.960 . S
C980 H967 0.960 . S
C980 C979 1.524 . S
C981 C978 1.403 . S
C981 C982 1.392 . S
C981 C985 1.495 . S
C982 C981 1.392 . S
C982 C983 1.385 1_545 S
C982 C984 1.478 1_545 S
C983 H977 0.930 . S
C983 C979 1.400 1_455 S
C983 C982 1.385 1_565 S
C984 C982 1.478 1_565 S
C984 C986 1.381 1_565 S
C984 C990 1.383 . S
C985 C981 1.495 . S
C985 H991 0.959 . S
C985 H992 0.961 . S
C985 H993 0.960 . S
C986 C984 1.381 1_545 S
C986 C987 1.394 1_545 S
C986 H994 0.930 . S
C987 C986 1.394 1_565 S
C987 C988 1.383 . S
C987 H995 0.929 . S
C988 C987 1.383 . S
C988 C989 1.377 . S
C989 H973 0.930 . S
C989 C988 1.377 . S
C989 C990 1.379 . S
C990 H974 0.931 . S
C990 C984 1.383 . S
C990 C989 1.379 . S
H991 C985 0.959 . S
H992 C985 0.961 . S
H993 C985 0.960 . S
H994 C986 0.930 . S
H995 C987 0.929 . S
H996 C1004 0.929 . S
H997 C1006 0.930 . S
H998 C1008 0.930 . S
H999 C1011 0.929 . S
H1000 C1014 0.935 1_455 S
H1001 C1016 0.960 1_565 S
H1002 C1016 0.960 . S
H1003 C1016 0.960 . S
C1004 H996 0.929 . S
C1004 C1005 1.377 . S
C1004 C1006 1.384 . S
C1005 C1004 1.377 . S
C1005 C1011 1.390 . S
C1006 H997 0.930 . S
C1006 C1004 1.384 . S
C1006 C1007 1.372 . S
C1007 C1006 1.372 . S
C1007 C1008 1.400 . S
C1007 C1012 1.490 . S
C1008 H998 0.930 . S
C1008 C1007 1.400 . S
C1008 C1011 1.386 . S
H1009 C1025 0.930 . S
H1010 C1026 0.931 . S
C1011 H999 0.929 . S
C1011 C1005 1.390 . S
C1011 C1008 1.386 . S
C1012 C1007 1.490 . S
C1012 C1014 1.381 1_455 S
C1012 C1015 1.403 . S
H1013 C1019 0.930 . S
C1014 H1000 0.935 1_655 S
C1014 C1012 1.381 1_655 S
C1014 C1017 1.412 1_545 S
C1015 C1012 1.403 . S
C1015 C1016 1.524 . S
C1015 C1019 1.400 1_445 S
C1016 H1001 0.960 1_545 S
C1016 H1002 0.960 . S
C1016 H1003 0.960 . S
C1016 C1015 1.524 . S
C1017 C1014 1.412 1_565 S
C1017 C1018 1.392 . S
C1017 C1021 1.495 . S
C1018 C1017 1.392 . S
C1018 C1019 1.385 . S
C1018 C1020 1.478 . S
C1019 H1013 0.930 . S
C1019 C1015 1.400 1_665 S
C1019 C1018 1.385 . S
C1020 C1018 1.478 . S
C1020 C1022 1.381 . S
C1020 C1026 1.383 . S
C1021 C1017 1.495 . S
C1021 H1027 0.959 1_565 S
C1021 H1028 0.961 . S
C1021 H1029 0.960 . S
C1022 C1020 1.381 . S
C1022 C1023 1.394 . S
C1022 H1030 0.930 . S
C1023 C1022 1.394 . S
C1023 C1024 1.383 . S
C1023 H1031 0.929 . S
C1024 C1023 1.383 . S
C1024 C1025 1.377 . S
C1025 H1009 0.930 . S
C1025 C1024 1.377 . S
C1025 C1026 1.379 . S
C1026 H1010 0.931 . S
C1026 C1020 1.383 . S
C1026 C1025 1.379 . S
H1027 C1021 0.959 1_545 S
H1028 C1021 0.961 . S
H1029 C1021 0.960 . S
H1030 C1022 0.930 . S
H1031 C1023 0.929 . S
H1032 C1040 0.936 . S
H1033 C1042 0.930 . S
H1034 C1044 0.930 . S
H1035 C1047 0.929 . S
H1036 C1050 0.930 . S
H1037 C1052 0.960 . S
H1038 C1052 0.960 . S
H1039 C1052 0.960 . S
C1040 H1032 0.936 . S
C1040 C1041 1.374 1_545 S
C1040 C1042 1.381 . S
C1041 C1040 1.374 1_565 S
C1041 C1047 1.390 . S
C1042 H1033 0.930 . S
C1042 C1040 1.381 . S
C1042 C1043 1.372 1_545 S
C1043 C1042 1.372 1_565 S
C1043 C1044 1.400 . S
C1043 C1048 1.490 . S
C1044 H1034 0.930 . S
C1044 C1043 1.400 . S
C1044 C1047 1.386 . S
H1045 C1061 0.930 1_565 S
H1046 C1062 0.931 1_565 S
C1047 H1035 0.929 . S
C1047 C1041 1.390 . S
C1047 C1044 1.386 . S
C1048 C1043 1.490 . S
C1048 C1050 1.395 1_565 S
C1048 C1051 1.403 . S
H1049 C1055 0.930 . S
C1050 H1036 0.930 . S
C1050 C1048 1.395 1_545 S
C1050 C1053 1.403 1_655 S
C1051 C1048 1.403 . S
C1051 C1052 1.524 . S
C1051 C1055 1.400 1_655 S
C1052 H1037 0.960 . S
C1052 H1038 0.960 . S
C1052 H1039 0.960 . S
C1052 C1051 1.524 . S
C1053 C1050 1.403 1_455 S
C1053 C1054 1.392 . S
C1053 C1057 1.495 . S
C1054 C1053 1.392 . S
C1054 C1055 1.385 1_545 S
C1054 C1056 1.478 . S
C1055 H1049 0.930 . S
C1055 C1051 1.400 1_455 S
C1055 C1054 1.385 1_565 S
C1056 C1054 1.478 . S
C1056 C1058 1.381 . S
C1056 C1062 1.383 . S
C1057 C1053 1.495 . S
C1057 H1063 0.959 . S
C1057 H1064 0.961 . S
C1057 H1065 0.960 . S
C1058 C1056 1.381 . S
C1058 C1059 1.394 . S
C1058 H1066 0.930 . S
C1059 C1058 1.394 . S
C1059 C1060 1.383 . S
C1059 H1067 0.929 . S
C1060 C1059 1.383 . S
C1060 C1061 1.377 . S
C1061 H1045 0.930 1_545 S
C1061 C1060 1.377 . S
C1061 C1062 1.379 . S
C1062 H1046 0.931 1_545 S
C1062 C1056 1.383 . S
C1062 C1061 1.379 . S
H1063 C1057 0.959 . S
H1064 C1057 0.961 . S
H1065 C1057 0.960 . S
H1066 C1058 0.930 . S
H1067 C1059 0.929 . S
H1068 C1076 0.929 . S
H1069 C1078 0.930 . S
H1070 C1080 0.930 . S
H1071 C1083 0.929 . S
H1072 C1086 0.930 . S
H1073 C1088 0.978 . S
H1074 C1088 0.954 1_565 S
H1075 C1088 0.957 1_565 S
C1076 H1068 0.929 . S
C1076 C1077 1.377 . S
C1076 C1078 1.384 . S
C1077 C1076 1.377 . S
C1077 C1083 1.390 . S
C1078 H1069 0.930 . S
C1078 C1076 1.384 . S
C1078 C1079 1.372 . S
C1079 C1078 1.372 . S
C1079 C1080 1.400 . S
C1079 C1084 1.490 . S
C1080 H1070 0.930 . S
C1080 C1079 1.400 . S
C1080 C1083 1.386 . S
H1081 C1097 0.930 . S
H1082 C1098 0.931 . S
C1083 H1071 0.929 . S
C1083 C1077 1.390 . S
C1083 C1080 1.386 . S
C1084 C1079 1.490 . S
C1084 C1086 1.395 1_655 S
C1084 C1087 1.403 . S
H1085 C1091 0.932 1_655 S
C1086 H1072 0.930 . S
C1086 C1084 1.395 1_455 S
C1086 C1089 1.403 . S
C1087 C1084 1.403 . S
C1087 C1088 1.515 1_565 S
C1087 C1091 1.400 1_665 S
C1088 H1073 0.978 . S
C1088 H1074 0.954 1_545 S
C1088 H1075 0.957 1_545 S
C1088 C1087 1.515 1_545 S
C1089 C1086 1.403 . S
C1089 C1090 1.392 1_565 S
C1089 C1093 1.495 . S
C1090 C1089 1.392 1_545 S
C1090 C1091 1.385 . S
C1090 C1092 1.478 . S
C1091 H1085 0.932 1_455 S
C1091 C1087 1.400 1_445 S
C1091 C1090 1.385 . S
C1092 C1090 1.478 . S
C1092 C1094 1.381 . S
C1092 C1098 1.383 . S
C1093 C1089 1.495 . S
C1093 H1099 0.959 . S
C1093 H1100 0.961 1_565 S
C1093 H1101 0.960 1_565 S
C1094 C1092 1.381 . S
C1094 C1095 1.394 . S
C1094 H1102 0.930 . S
C1095 C1094 1.394 . S
C1095 C1096 1.383 . S
C1095 H1103 0.929 . S
C1096 C1095 1.383 . S
C1096 C1097 1.377 . S
C1097 H1081 0.930 . S
C1097 C1096 1.377 . S
C1097 C1098 1.379 . S
C1098 H1082 0.931 . S
C1098 C1092 1.383 . S
C1098 C1097 1.379 . S
H1099 C1093 0.959 . S
H1100 C1093 0.961 1_545 S
H1101 C1093 0.960 1_545 S
H1102 C1094 0.930 . S
H1103 C1095 0.929 . S
H1104 C1112 0.929 . S
H1105 C1114 0.930 . S
H1106 C1116 0.930 . S
H1107 C1119 0.929 . S
H1108 C1122 0.930 . S
H1109 C1124 0.960 . S
H1110 C1124 0.960 . S
H1111 C1124 0.960 . S
C1112 H1104 0.929 . S
C1112 C1113 1.377 . S
C1112 C1114 1.384 . S
C1113 C1112 1.377 . S
C1113 C1119 1.390 1_455 S
C1114 H1105 0.930 . S
C1114 C1112 1.384 . S
C1114 C1115 1.372 . S
C1115 C1114 1.372 . S
C1115 C1116 1.400 1_455 S
C1115 C1120 1.490 . S
C1116 H1106 0.930 . S
C1116 C1115 1.400 1_655 S
C1116 C1119 1.386 . S
H1117 C1133 0.930 . S
H1118 C1134 0.931 . S
C1119 H1107 0.929 . S
C1119 C1113 1.390 1_655 S
C1119 C1116 1.386 . S
C1120 C1115 1.490 . S
C1120 C1122 1.395 . S
C1120 C1123 1.403 1_455 S
H1121 C1127 0.930 . S
C1122 H1108 0.930 . S
C1122 C1120 1.395 . S
C1122 C1125 1.403 1_565 S
C1123 C1120 1.403 1_655 S
C1123 C1124 1.524 . S
C1123 C1127 1.400 1_565 S
C1124 H1109 0.960 . S
C1124 H1110 0.960 . S
C1124 H1111 0.960 . S
C1124 C1123 1.524 . S
C1125 C1122 1.403 1_545 S
C1125 C1126 1.392 . S
C1125 C1129 1.495 . S
C1126 C1125 1.392 . S
C1126 C1127 1.385 1_455 S
C1126 C1128 1.478 . S
C1127 H1121 0.930 . S
C1127 C1123 1.400 1_545 S
C1127 C1126 1.385 1_655 S
C1128 C1126 1.478 . S
C1128 C1130 1.381 . S
C1128 C1134 1.383 1_455 S
C1129 C1125 1.495 . S
C1129 H1135 0.959 . S
C1129 H1136 0.961 . S
C1129 H1137 0.960 . S
C1130 C1128 1.381 . S
C1130 C1131 1.394 . S
C1130 H1138 0.930 . S
C1131 C1130 1.394 . S
C1131 C1132 1.383 1_455 S
C1131 H1139 0.929 . S
C1132 C1131 1.383 1_655 S
C1132 C1133 1.377 . S
C1133 H1117 0.930 . S
C1133 C1132 1.377 . S
C1133 C1134 1.379 . S
C1134 H1118 0.931 . S
C1134 C1128 1.383 1_655 S
C1134 C1133 1.379 . S
H1135 C1129 0.959 . S
H1136 C1129 0.961 . S
H1137 C1129 0.960 . S
H1138 C1130 0.930 . S
H1139 C1131 0.929 . S
C285 C260 1.669 . S
C304 C7 1.649 . S
C321 N25 1.573 . S
C340 N140 1.537 . S
C357 C53 1.668 . S
C376 C168 1.647 . S
C393 C76 1.671 . S
C412 C191 1.647 . S
C429 N209 1.570 . S
C448 N94 1.546 . S
C465 C122 1.667 . S
C484 C237 1.656 . S
C501 C16 1.632 . S
C520 C246 1.636 . S
C537 N35 1.620 . S
C556 C269 1.618 . S
C573 C62 1.616 . S
C592 N150 1.621 . S
C609 C85 1.628 . S
C628 C177 1.646 . S
C645 C200 1.618 . S
C664 N104 1.614 . S
C681 N219 1.617 . S
C700 C131 1.629 . S
C717 N81 1.432 1_455 S
C736 N12 1.430 1_655 S
C753 C39 1.507 . S
C772 C108 1.504 . S
C789 N127 1.477 . S
C808 N58 1.455 . S
C825 C223 1.508 . S
C844 C154 1.503 . S
C861 N242 1.439 . S
C880 N173 1.419 . S
C897 N196 1.484 . S
C916 N265 1.495 . S
C933 N2 1.449 . S
C952 N71 1.462 1_655 S
C969 C30 1.677 . S
C988 C99 1.665 . S
C1005 N117 1.397 . S
C1024 N48 1.423 . S
C1041 C145 1.675 . S
C1060 C214 1.681 . S
C1077 N163 1.453 . S
C1096 N232 1.426 . S
C1113 N186 1.407 1_455 S
C1132 N255 1.376 1_655 S
