# Generated by pormake.
# Topology wji, (4)-cn, num edge types: 1
# Building blocks:
#     Node 0, Type 0, BuildingBlock: CEKHIL_clean_sbu_0, # of connection points: 4
#     Node 1, Type 0, BuildingBlock: CEKHIL_clean_sbu_0, # of connection points: 4
#     Node 2, Type 0, BuildingBlock: CEKHIL_clean_sbu_0, # of connection points: 4
#     Node 3, Type 0, BuildingBlock: CEKHIL_clean_sbu_0, # of connection points: 4
#     Node 4, Type 0, BuildingBlock: CEKHIL_clean_sbu_0, # of connection points: 4
#     Node 5, Type 0, BuildingBlock: CEKHIL_clean_sbu_0, # of connection points: 4
#     Node 6, Type 0, BuildingBlock: CEKHIL_clean_sbu_0, # of connection points: 4
#     Node 7, Type 0, BuildingBlock: CEKHIL_clean_sbu_0, # of connection points: 4
#     Node 8, Type 0, BuildingBlock: CEKHIL_clean_sbu_0, # of connection points: 4
#     Node 9, Type 0, BuildingBlock: CEKHIL_clean_sbu_0, # of connection points: 4
#     Node 10, Type 0, BuildingBlock: CEKHIL_clean_sbu_0, # of connection points: 4
#     Node 11, Type 0, BuildingBlock: CEKHIL_clean_sbu_0, # of connection points: 4
#     Edge 12, Type (0, 0), BuildingBlock: ZUJKAS_clean_linker_0, # of connection points: 2
#     Edge 13, Type (0, 0), BuildingBlock: ZUJKAS_clean_linker_0, # of connection points: 2
#     Edge 14, Type (0, 0), BuildingBlock: ZUJKAS_clean_linker_0, # of connection points: 2
#     Edge 15, Type (0, 0), BuildingBlock: ZUJKAS_clean_linker_0, # of connection points: 2
#     Edge 16, Type (0, 0), BuildingBlock: ZUJKAS_clean_linker_0, # of connection points: 2
#     Edge 17, Type (0, 0), BuildingBlock: ZUJKAS_clean_linker_0, # of connection points: 2
#     Edge 18, Type (0, 0), BuildingBlock: ZUJKAS_clean_linker_0, # of connection points: 2
#     Edge 19, Type (0, 0), BuildingBlock: ZUJKAS_clean_linker_0, # of connection points: 2
#     Edge 20, Type (0, 0), BuildingBlock: ZUJKAS_clean_linker_0, # of connection points: 2
#     Edge 21, Type (0, 0), BuildingBlock: ZUJKAS_clean_linker_0, # of connection points: 2
#     Edge 22, Type (0, 0), BuildingBlock: ZUJKAS_clean_linker_0, # of connection points: 2
#     Edge 23, Type (0, 0), BuildingBlock: ZUJKAS_clean_linker_0, # of connection points: 2
#     Edge 24, Type (0, 0), BuildingBlock: ZUJKAS_clean_linker_0, # of connection points: 2
#     Edge 25, Type (0, 0), BuildingBlock: ZUJKAS_clean_linker_0, # of connection points: 2
#     Edge 26, Type (0, 0), BuildingBlock: ZUJKAS_clean_linker_0, # of connection points: 2
#     Edge 27, Type (0, 0), BuildingBlock: ZUJKAS_clean_linker_0, # of connection points: 2
#     Edge 28, Type (0, 0), BuildingBlock: ZUJKAS_clean_linker_0, # of connection points: 2
#     Edge 29, Type (0, 0), BuildingBlock: ZUJKAS_clean_linker_0, # of connection points: 2
#     Edge 30, Type (0, 0), BuildingBlock: ZUJKAS_clean_linker_0, # of connection points: 2
#     Edge 31, Type (0, 0), BuildingBlock: ZUJKAS_clean_linker_0, # of connection points: 2
#     Edge 32, Type (0, 0), BuildingBlock: ZUJKAS_clean_linker_0, # of connection points: 2
#     Edge 33, Type (0, 0), BuildingBlock: ZUJKAS_clean_linker_0, # of connection points: 2
#     Edge 34, Type (0, 0), BuildingBlock: ZUJKAS_clean_linker_0, # of connection points: 2
#     Edge 35, Type (0, 0), BuildingBlock: ZUJKAS_clean_linker_0, # of connection points: 2
# Relax obj value: 0.222
# Max RMSD: 0.135
# Mean RMSD: 0.135
data_MOF--net-wji--node1-CEKHIL_clean_sbu_0--edge1-ZUJKAS_clean_linker_0
_symmetry_space_group_name_H-M    P1
_symmetry_Int_Tables_number       1
_symmetry_cell_setting            triclinic
loop_
_symmetry_equiv_pos_as_xyz
'x, y, z'
_cell_length_a     73.346611
_cell_length_b     73.328668
_cell_length_c     29.547681
_cell_angle_alpha  90.013185
_cell_angle_beta   89.974755
_cell_angle_gamma 119.9972
loop_
_atom_site_label
_atom_site_type_symbol
_atom_site_fract_x
_atom_site_fract_y
_atom_site_fract_z
_atom_type_partial_charge
Co0 Co 0.4222 0.33007 0.44611 0.0
O1 O 0.428 0.31768 0.4975 0.0
O2 O 0.408 0.29944 0.43997 0.0
C3 C 0.45611 0.35597 0.43655 0.0
O4 O 0.41317 0.33807 0.3867 0.0
Co5 Co 0.43168 0.37652 0.45198 0.0
O6 O 0.42734 0.37333 0.38581 0.0
C7 C 0.39369 0.3422 0.4964 0.0
C8 C 0.41637 0.29946 0.47889 0.0
C9 C 0.41733 0.3554 0.36659 0.0
O10 O 0.39703 0.32812 0.47852 0.0
O11 O 0.40644 0.36202 0.49234 0.0
O12 O 0.44965 0.33739 0.41946 0.0
O13 O 0.44247 0.35768 0.46083 0.0
Co14 Co 0.09741 0.42164 0.6096 0.0
O15 O 0.11598 0.42794 0.66052 0.0
O16 O 0.11318 0.40677 0.60449 0.0
C17 C 0.10584 0.45555 0.59818 0.0
O18 O 0.08005 0.41195 0.55072 0.0
Co19 Co 0.06087 0.43172 0.61352 0.0
O20 O 0.05991 0.42713 0.5474 0.0
C21 C 0.05698 0.39439 0.66157 0.0
C22 C 0.12201 0.41568 0.64271 0.0
C23 C 0.06738 0.41645 0.52948 0.0
O24 O 0.07421 0.39719 0.64368 0.0
O25 O 0.05006 0.40719 0.65604 0.0
O26 O 0.11764 0.44864 0.58136 0.0
O27 O 0.09046 0.44231 0.62297 0.0
Co28 Co 0.67705 0.09855 0.77486 0.0
O29 O 0.68965 0.11723 0.82544 0.0
O30 O 0.70761 0.11506 0.76779 0.0
C31 C 0.65089 0.1062 0.7657 0.0
O32 O 0.66883 0.08099 0.71605 0.0
Co33 Co 0.63085 0.06132 0.78217 0.0
O34 O 0.63358 0.05994 0.7159 0.0
C35 C 0.66557 0.05864 0.82728 0.0
C36 C 0.70778 0.12368 0.8065 0.0
C37 C 0.6514 0.06775 0.6963 0.0
O38 O 0.67945 0.07586 0.80839 0.0
O39 O 0.6457 0.05127 0.82332 0.0
O40 O 0.66928 0.11825 0.7477 0.0
O41 O 0.64948 0.09107 0.79031 0.0
Co42 Co 0.58224 0.67628 0.93891 0.0
O43 O 0.57609 0.68814 0.99076 0.0
O44 O 0.5958 0.70688 0.93332 0.0
C45 C 0.54862 0.64981 0.92955 0.0
O46 O 0.59152 0.66883 0.87903 0.0
Co47 Co 0.57418 0.63033 0.94368 0.0
O48 O 0.57754 0.6336 0.87731 0.0
C49 C 0.61144 0.66509 0.989 0.0
C50 C 0.58746 0.70651 0.97253 0.0
C51 C 0.58728 0.65159 0.85832 0.0
O52 O 0.60768 0.67888 0.97114 0.0
O53 O 0.59923 0.6452 0.98444 0.0
O54 O 0.55457 0.66833 0.91273 0.0
O55 O 0.56257 0.64844 0.9534 0.0
Co56 Co 0.90843 0.58188 0.10896 0.0
O57 O 0.88605 0.57315 0.15217 0.0
O58 O 0.89241 0.5962 0.09775 0.0
C59 C 0.90259 0.54895 0.09525 0.0
O60 O 0.93039 0.59393 0.05764 0.0
Co61 Co 0.94499 0.57345 0.13341 0.0
O62 O 0.95464 0.58427 0.07141 0.0
C63 C 0.94032 0.60587 0.18167 0.0
C64 C 0.8811 0.58589 0.13276 0.0
C65 C 0.94712 0.59321 0.0467 0.0
O66 O 0.92778 0.60541 0.15078 0.0
O67 O 0.94688 0.59267 0.18379 0.0
O68 O 0.89164 0.55577 0.07402 0.0
O69 O 0.91509 0.56145 0.12575 0.0
Co70 Co 0.32795 0.90619 0.27239 0.0
O71 O 0.31561 0.8862 0.32079 0.0
O72 O 0.29738 0.88941 0.2651 0.0
C73 C 0.35469 0.89968 0.25997 0.0
O74 O 0.33629 0.92536 0.21604 0.0
Co75 Co 0.37367 0.94384 0.28589 0.0
O76 O 0.37118 0.94832 0.22064 0.0
C77 C 0.33814 0.94156 0.3373 0.0
C78 C 0.2974 0.88003 0.3026 0.0
C79 C 0.35377 0.94015 0.19915 0.0
O80 O 0.32494 0.92753 0.30995 0.0
O81 O 0.35796 0.9483 0.33625 0.0
O82 O 0.33639 0.88769 0.24151 0.0
O83 O 0.3555 0.91377 0.28714 0.0
Co84 Co 0.67896 0.58193 0.39311 0.0
O85 O 0.69196 0.5743 0.34605 0.0
O86 O 0.70944 0.59604 0.40196 0.0
C87 C 0.6522 0.54868 0.40517 0.0
O88 O 0.66991 0.59269 0.44832 0.0
Co89 Co 0.63341 0.57374 0.37641 0.0
O90 O 0.63502 0.58045 0.44178 0.0
C91 C 0.66947 0.60745 0.32743 0.0
C92 C 0.70992 0.58654 0.36504 0.0
C93 C 0.65219 0.58978 0.46413 0.0
O94 O 0.68232 0.60628 0.35517 0.0
O95 O 0.64964 0.59441 0.32713 0.0
O96 O 0.67034 0.55511 0.42451 0.0
O97 O 0.65159 0.56182 0.37724 0.0
Co98 Co 0.09913 0.6756 0.56421 0.0
O99 O 0.11723 0.68796 0.51272 0.0
O100 O 0.11558 0.70623 0.57033 0.0
C101 C 0.10716 0.64968 0.57319 0.0
O102 O 0.08213 0.66756 0.62378 0.0
Co103 Co 0.06211 0.62923 0.55836 0.0
O104 O 0.06106 0.6323 0.6246 0.0
C105 C 0.0586 0.66361 0.51388 0.0
C106 C 0.1238 0.7062 0.53123 0.0
C107 C 0.06899 0.6502 0.64392 0.0
O108 O 0.076 0.67764 0.53184 0.0
O109 O 0.05141 0.64377 0.51801 0.0
O110 O 0.11924 0.6682 0.59057 0.0
O111 O 0.09175 0.648 0.54918 0.0
Co112 Co 0.42376 0.09961 0.73059 0.0
O113 O 0.43129 0.11979 0.68255 0.0
O114 O 0.40951 0.11594 0.73806 0.0
C115 C 0.45716 0.10664 0.74338 0.0
O116 O 0.4129 0.08023 0.78658 0.0
Co117 Co 0.43262 0.06247 0.71756 0.0
O118 O 0.42547 0.05778 0.78274 0.0
C119 C 0.39917 0.06415 0.66549 0.0
C120 C 0.41896 0.12559 0.70082 0.0
C121 C 0.41581 0.06564 0.80375 0.0
O122 O 0.39975 0.07817 0.69253 0.0
O123 O 0.4124 0.0576 0.66702 0.0
O124 O 0.45046 0.11829 0.76198 0.0
O125 O 0.44412 0.0925 0.71597 0.0
Co126 Co 0.32729 0.42194 0.89487 0.0
O127 O 0.31355 0.42901 0.84843 0.0
O128 O 0.29689 0.40752 0.90527 0.0
C129 C 0.35373 0.45553 0.90547 0.0
O130 O 0.33704 0.41166 0.94989 0.0
Co131 Co 0.37321 0.43126 0.87751 0.0
O132 O 0.37185 0.42397 0.94221 0.0
C133 C 0.33719 0.39415 0.83517 0.0
C134 C 0.29587 0.41683 0.86855 0.0
C135 C 0.3548 0.41427 0.9648 0.0
O136 O 0.32397 0.39739 0.8574 0.0
O137 O 0.35713 0.40669 0.83626 0.0
O138 O 0.33575 0.44886 0.92576 0.0
O139 O 0.3544 0.44239 0.87766 0.0
Co140 Co 0.90926 0.32769 0.06236 0.0
O141 O 0.89117 0.31586 0.01054 0.0
O142 O 0.89205 0.29716 0.06814 0.0
C143 C 0.90237 0.35437 0.07151 0.0
O144 O 0.92585 0.33483 0.12224 0.0
Co145 Co 0.94737 0.3735 0.05937 0.0
O146 O 0.94718 0.37 0.12574 0.0
C147 C 0.94984 0.33878 0.01329 0.0
C148 C 0.88401 0.29752 0.02906 0.0
C149 C 0.93876 0.35181 0.14378 0.0
O150 O 0.93206 0.32495 0.03027 0.0
O151 O 0.95764 0.35865 0.01865 0.0
O152 O 0.88969 0.33588 0.08842 0.0
O153 O 0.91774 0.35565 0.04797 0.0
Co154 Co 0.58267 0.90633 0.23103 0.0
O155 O 0.57524 0.8864 0.18257 0.0
O156 O 0.59625 0.88938 0.239 0.0
C157 C 0.54941 0.89995 0.24239 0.0
O158 O 0.59325 0.92537 0.28747 0.0
Co159 Co 0.57496 0.94419 0.21727 0.0
O160 O 0.58121 0.94826 0.28293 0.0
C161 C 0.60868 0.94207 0.16752 0.0
C162 C 0.58703 0.88007 0.20132 0.0
C163 C 0.59038 0.94003 0.30443 0.0
O164 O 0.60735 0.92766 0.19436 0.0
O165 O 0.59575 0.94899 0.16797 0.0
O166 O 0.55556 0.88789 0.26115 0.0
O167 O 0.56288 0.91408 0.21555 0.0
H168 H 0.32387 0.39342 0.03024 0.0
H169 H 0.32699 0.37683 0.10028 0.0
H170 H 0.39135 0.3963 0.06674 0.0
H171 H 0.38863 0.41279 0.99815 0.0
H172 H 0.36399 0.35138 0.09416 0.0
H173 H 0.36531 0.41095 0.21352 0.0
H174 H 0.34495 0.39943 0.17114 0.0
H175 H 0.37163 0.41695 0.15435 0.0
C176 C 0.33868 0.39422 0.03796 0.0
C177 C 0.35598 0.4046 0.00839 0.0
C178 C 0.34043 0.38471 0.0779 0.0
C179 C 0.35941 0.38529 0.08857 0.0
C180 C 0.37654 0.39555 0.05912 0.0
H181 H 0.43321 0.38667 0.30406 0.0
H182 H 0.41565 0.38999 0.23725 0.0
C183 C 0.37491 0.40512 0.01983 0.0
C184 C 0.36225 0.37586 0.13066 0.0
H185 H 0.37508 0.38725 0.2422 0.0
C186 C 0.3659 0.35883 0.12688 0.0
C187 C 0.36496 0.38579 0.17309 0.0
C188 C 0.3616 0.40434 0.17871 0.0
C189 C 0.37318 0.35215 0.1639 0.0
C190 C 0.3769 0.36279 0.20573 0.0
C191 C 0.3722 0.3791 0.21008 0.0
C192 C 0.38804 0.35914 0.24372 0.0
C193 C 0.37811 0.33467 0.15736 0.0
C194 C 0.37869 0.34033 0.26886 0.0
C195 C 0.38887 0.33828 0.30727 0.0
C196 C 0.40844 0.35511 0.32121 0.0
C197 C 0.41812 0.37343 0.29446 0.0
C198 C 0.40804 0.37542 0.2563 0.0
H199 H 0.37648 0.32955 0.12148 0.0
H200 H 0.3944 0.33984 0.16883 0.0
H201 H 0.36721 0.32091 0.17823 0.0
H202 H 0.36319 0.3276 0.25993 0.0
H203 H 0.38088 0.32408 0.32745 0.0
H204 H 0.05696 0.37715 0.49802 0.0
H205 H 0.03482 0.35921 0.43168 0.0
H206 H 0.03518 0.41623 0.39482 0.0
H207 H 0.0569 0.43406 0.46091 0.0
H208 H 0.99162 0.36555 0.41889 0.0
H209 H 0.04813 0.38283 0.27733 0.0
H210 H 0.05419 0.37932 0.3349 0.0
H211 H 0.05413 0.40291 0.3194 0.0
C212 C 0.05286 0.38601 0.47494 0.0
C213 C 0.05868 0.40702 0.48462 0.0
C214 C 0.04009 0.3757 0.43732 0.0
C215 C 0.03333 0.38641 0.40854 0.0
C216 C 0.04025 0.40772 0.41661 0.0
H217 H 0.9471 0.37868 0.21396 0.0
H218 H 0.96788 0.38224 0.28153 0.0
C219 C 0.05271 0.41789 0.45431 0.0
C220 C 0.01749 0.37521 0.37254 0.0
H221 H 0.01225 0.36913 0.25781 0.0
C222 C 0.99607 0.36591 0.38375 0.0
C223 C 0.02336 0.37579 0.32683 0.0
C224 C 0.04619 0.38566 0.3135 0.0
C225 C 0.98042 0.35804 0.35007 0.0
C226 C 0.98636 0.35956 0.30411 0.0
C227 C 0.00771 0.36788 0.2931 0.0
C228 C 0.97105 0.35507 0.26688 0.0
C229 C 0.95767 0.34879 0.36362 0.0
C230 C 0.9654 0.33822 0.23681 0.0
C231 C 0.95308 0.33588 0.19847 0.0
C232 C 0.94669 0.35066 0.18919 0.0
C233 C 0.95165 0.36695 0.22045 0.0
C234 C 0.96357 0.36904 0.25901 0.0
H235 H 0.9552 0.3444 0.40002 0.0
H236 H 0.95268 0.36058 0.35753 0.0
H237 H 0.94745 0.33464 0.34295 0.0
H238 H 0.97113 0.32734 0.24217 0.0
H239 H 0.94983 0.32342 0.17455 0.0
H240 H 0.57333 0.9547 0.3656 0.0
H241 H 0.58979 0.97559 0.43328 0.0
H242 H 0.64397 0.96828 0.41255 0.0
H243 H 0.62734 0.94701 0.34427 0.0
H244 H 0.60728 0.9655 0.51461 0.0
H245 H 0.6659 0.03441 0.41422 0.0
H246 H 0.64188 0.01397 0.38909 0.0
H247 H 0.66263 0.00878 0.40296 0.0
C248 C 0.5886 0.9572 0.3758 0.0
C249 C 0.59904 0.94921 0.34954 0.0
C250 C 0.59801 0.96919 0.41448 0.0
C251 C 0.61822 0.97376 0.42762 0.0
C252 C 0.62843 0.9651 0.40271 0.0
H253 H 0.68217 0.06165 0.65722 0.0
H254 H 0.67775 0.03937 0.5909 0.0
C255 C 0.61883 0.95278 0.36405 0.0
C256 C 0.62849 0.98824 0.46651 0.0
H257 H 0.66319 0.03985 0.49183 0.0
C258 C 0.61981 0.98162 0.5098 0.0
C259 C 0.64481 0.00932 0.46021 0.0
C260 C 0.65442 0.01724 0.41419 0.0
C261 C 0.62642 0.99569 0.5465 0.0
C262 C 0.64185 0.01706 0.53966 0.0
C263 C 0.65135 0.02348 0.49697 0.0
C264 C 0.64632 0.03311 0.5753 0.0
C265 C 0.61632 0.98775 0.59215 0.0
C266 C 0.63058 0.03776 0.58707 0.0
C267 C 0.63308 0.05044 0.62446 0.0
C268 C 0.65144 0.05888 0.65104 0.0
C269 C 0.66792 0.05552 0.63728 0.0
C270 C 0.66535 0.04268 0.59962 0.0
H271 H 0.6089 0.97036 0.59478 0.0
H272 H 0.62806 0.99514 0.61973 0.0
H273 H 0.60387 0.99195 0.59729 0.0
H274 H 0.61591 0.0308 0.5684 0.0
H275 H 0.62014 0.05282 0.63385 0.0
H276 H 0.68256 0.62538 0.50795 0.0
H277 H 0.6778 0.64134 0.57727 0.0
H278 H 0.61429 0.58949 0.58969 0.0
H279 H 0.61884 0.57368 0.52127 0.0
H280 H 0.6445 0.65257 0.59054 0.0
H281 H 0.64025 0.59494 0.71717 0.0
H282 H 0.65229 0.59797 0.66224 0.0
H283 H 0.62414 0.58279 0.66828 0.0
C284 C 0.66777 0.61722 0.52611 0.0
C285 C 0.6511 0.59824 0.50916 0.0
C286 C 0.66501 0.62642 0.56543 0.0
C287 C 0.64571 0.61655 0.5888 0.0
C288 C 0.62938 0.5973 0.5726 0.0
H289 H 0.56923 0.62194 0.79296 0.0
H290 H 0.58624 0.61737 0.72647 0.0
C291 C 0.63201 0.58829 0.53334 0.0
C292 C 0.64179 0.62639 0.62896 0.0
H293 H 0.62426 0.61539 0.73807 0.0
C294 C 0.64054 0.64477 0.62318 0.0
C295 C 0.63663 0.6162 0.67151 0.0
C296 C 0.63857 0.59699 0.68043 0.0
C297 C 0.63291 0.65237 0.65797 0.0
C298 C 0.62655 0.64138 0.69955 0.0
C299 C 0.62896 0.62372 0.70605 0.0
C300 C 0.61558 0.64653 0.73549 0.0
C301 C 0.63055 0.67134 0.6493 0.0
C302 C 0.62611 0.66494 0.76181 0.0
C303 C 0.61625 0.66772 0.79998 0.0
C304 C 0.59583 0.65201 0.81251 0.0
C305 C 0.58497 0.63432 0.7843 0.0
C306 C 0.59472 0.63163 0.74634 0.0
H307 H 0.63399 0.6767 0.61355 0.0
H308 H 0.61432 0.66771 0.6577 0.0
H309 H 0.64155 0.68448 0.67148 0.0
H310 H 0.64229 0.67657 0.75435 0.0
H311 H 0.62513 0.68136 0.82138 0.0
H312 H 0.05349 0.61874 0.70609 0.0
H313 H 0.03266 0.61533 0.77311 0.0
H314 H 0.04317 0.67802 0.75204 0.0
H315 H 0.06432 0.68164 0.68422 0.0
H316 H 0.04505 0.66709 0.84594 0.0
H317 H 0.97265 0.60691 0.76045 0.0
H318 H 0.99366 0.60106 0.75799 0.0
H319 H 0.99655 0.62414 0.72998 0.0
C320 C 0.05169 0.63199 0.71595 0.0
C321 C 0.06044 0.65042 0.68947 0.0
C322 C 0.03961 0.62993 0.75417 0.0
C323 C 0.03582 0.64616 0.76687 0.0
C324 C 0.04568 0.66519 0.74248 0.0
H325 H 0.93549 0.60931 0.97415 0.0
H326 H 0.9561 0.62585 0.90513 0.0
C327 C 0.05791 0.66731 0.70398 0.0
C328 C 0.02105 0.64263 0.80489 0.0
H329 H 0.97124 0.60799 0.84166 0.0
C330 C 0.02881 0.65443 0.84475 0.0
C331 C 0.99969 0.6264 0.80317 0.0
C332 C 0.99005 0.61403 0.76043 0.0
C333 C 0.01621 0.64942 0.88385 0.0
C334 C 0.99541 0.63199 0.88324 0.0
C335 C 0.98721 0.62121 0.8424 0.0
C336 C 0.98299 0.62314 0.92557 0.0
C337 C 0.02548 0.66252 0.92587 0.0
C338 C 0.99105 0.61583 0.95955 0.0
C339 C 0.97935 0.60631 0.99843 0.0
C340 C 0.95912 0.6037 0.00467 0.0
C341 C 0.95099 0.61109 0.97063 0.0
C342 C 0.96277 0.62056 0.93121 0.0
H343 H 0.03795 0.6788 0.91722 0.0
H344 H 0.01321 0.66331 0.94642 0.0
H345 H 0.03278 0.65534 0.94684 0.0
H346 H 0.00633 0.61711 0.95563 0.0
H347 H 0.9863 0.60093 0.02366 0.0
H348 H 0.37959 0.06047 0.84453 0.0
H349 H 0.36229 0.03928 0.9126 0.0
H350 H 0.41392 0.02771 0.9308 0.0
H351 H 0.43109 0.04851 0.86344 0.0
H352 H 0.35983 0.9903 0.92265 0.0
H353 H 0.3947 0.05148 0.0572 0.0
H354 H 0.38875 0.0572 1.00136 0.0
H355 H 0.41087 0.05344 0.00934 0.0
C356 C 0.38742 0.05376 0.86365 0.0
C357 C 0.4067 0.05614 0.84849 0.0
C358 C 0.37745 0.04153 0.90224 0.0
C359 C 0.38678 0.0318 0.92643 0.0
C360 C 0.40641 0.03498 0.91248 0.0
H361 H 0.38739 0.96021 0.14307 0.0
H362 H 0.39087 0.98107 0.07616 0.0
C363 C 0.41622 0.04694 0.87399 0.0
C364 C 0.37609 0.01757 0.96537 0.0
H365 H 0.37839 0.01582 0.08061 0.0
C366 C 0.36334 0.99588 0.9573 0.0
C367 C 0.38093 0.02489 0.01039 0.0
C368 C 0.39449 0.04803 0.02052 0.0
C369 C 0.35619 0.98124 0.99315 0.0
C370 C 0.36196 0.9885 0.03804 0.0
C371 C 0.37386 0.01028 0.04617 0.0
C372 C 0.35849 0.97387 0.07619 0.0
C373 C 0.34369 0.95802 0.98285 0.0
C374 C 0.33886 0.96232 0.09787 0.0
C375 C 0.33674 0.95017 0.13656 0.0
C376 C 0.35428 0.94957 0.15416 0.0
C377 C 0.37357 0.96043 0.13084 0.0
C378 C 0.37564 0.97243 0.09251 0.0
H379 H 0.34028 0.95487 0.94615 0.0
H380 H 0.35255 0.95026 0.99441 0.0
H381 H 0.32857 0.95077 1.00169 0.0
H382 H 0.32542 0.96325 0.08579 0.0
H383 H 0.32172 0.94214 0.15384 0.0
H384 H 0.61242 0.53462 0.37509 0.0
H385 H 0.58203 0.49935 0.38155 0.0
H386 H 0.6195 0.47906 0.45528 0.0
H387 H 0.65012 0.51475 0.44973 0.0
H388 H 0.57749 0.46219 0.34883 0.0
H389 H 0.56779 0.45893 0.53599 0.0
H390 H 0.58444 0.48321 0.50633 0.0
H391 H 0.59316 0.46458 0.51553 0.0
C392 C 0.61421 0.52275 0.3931 0.0
C393 C 0.63367 0.5275 0.4121 0.0
C394 C 0.59682 0.50254 0.39656 0.0
C395 C 0.59842 0.48656 0.41904 0.0
C396 C 0.6178 0.49122 0.43836 0.0
H397 H 0.49013 0.35643 0.39597 0.0
H398 H 0.52626 0.38637 0.39092 0.0
C399 C 0.63528 0.51159 0.43513 0.0
C400 C 0.57965 0.46512 0.4214 0.0
H401 H 0.54316 0.42952 0.49452 0.0
C402 C 0.57008 0.4549 0.38068 0.0
C403 C 0.57001 0.45569 0.463 0.0
C404 C 0.57922 0.46616 0.50777 0.0
C405 C 0.55071 0.43595 0.38036 0.0
C406 C 0.54082 0.42679 0.42195 0.0
C407 C 0.55082 0.43656 0.46269 0.0
C408 C 0.51914 0.40841 0.42408 0.0
C409 C 0.54048 0.4265 0.33555 0.0
C410 C 0.50323 0.41081 0.44465 0.0
C411 C 0.48276 0.39382 0.44777 0.0
C412 C 0.47768 0.37399 0.43038 0.0
C413 C 0.49355 0.37157 0.40935 0.0
C414 C 0.51417 0.38866 0.40639 0.0
H415 H 0.54827 0.43756 0.30695 0.0
H416 H 0.5415 0.41212 0.32921 0.0
H417 H 0.52357 0.42189 0.336 0.0
H418 H 0.50667 0.4259 0.45839 0.0
H419 H 0.47095 0.39625 0.46422 0.0
H420 H 0.13972 0.48912 0.55704 0.0
H421 H 0.14701 0.52572 0.55322 0.0
H422 H 0.08839 0.50737 0.62165 0.0
H423 H 0.08117 0.47123 0.62599 0.0
H424 H 0.12385 0.5426 0.51426 0.0
H425 H 0.13095 0.55648 0.69885 0.0
H426 H 0.13199 0.53469 0.67306 0.0
H427 H 0.10702 0.5329 0.68444 0.0
C428 C 0.1284 0.49295 0.57108 0.0
C429 C 0.10996 0.47733 0.5921 0.0
C430 C 0.13261 0.51383 0.56903 0.0
C431 C 0.1185 0.51936 0.58824 0.0
C432 C 0.0998 0.50361 0.6078 0.0
H433 H 0.08312 0.6101 0.54027 0.0
H434 H 0.08996 0.58088 0.54353 0.0
C435 C 0.09561 0.48288 0.60989 0.0
C436 C 0.12264 0.54135 0.58706 0.0
H437 H 0.12256 0.57909 0.65472 0.0
C438 C 0.12398 0.55077 0.54497 0.0
C439 C 0.12329 0.55224 0.62715 0.0
C440 C 0.12347 0.54365 0.67343 0.0
C441 C 0.12436 0.57008 0.54187 0.0
C442 C 0.12298 0.57997 0.58187 0.0
C443 C 0.12326 0.57134 0.62403 0.0
C444 C 0.11922 0.59806 0.58044 0.0
C445 C 0.12573 0.57945 0.49569 0.0
C446 C 0.13299 0.61726 0.60175 0.0
C447 C 0.129 0.63408 0.60029 0.0
C448 C 0.1111 0.63185 0.57782 0.0
C449 C 0.09713 0.61242 0.55761 0.0
C450 C 0.10111 0.59572 0.55905 0.0
H451 H 0.13365 0.57423 0.47107 0.0
H452 H 0.10959 0.57408 0.48299 0.0
H453 H 0.13442 0.59693 0.49699 0.0
H454 H 0.14692 0.61929 0.61898 0.0
H455 H 0.14003 0.64886 0.6162 0.0
H456 H 0.49071 0.13891 0.78818 0.0
H457 H 0.52697 0.14529 0.79187 0.0
H458 H 0.50802 0.08816 0.71668 0.0
H459 H 0.47219 0.08187 0.71237 0.0
H460 H 0.54305 0.12108 0.82725 0.0
H461 H 0.55794 0.13156 0.64318 0.0
H462 H 0.53612 0.13233 0.66959 0.0
H463 H 0.53416 0.10749 0.65573 0.0
C464 C 0.49432 0.1277 0.77266 0.0
C465 C 0.47863 0.10998 0.7497 0.0
C466 C 0.51502 0.1314 0.77462 0.0
C467 C 0.52031 0.11749 0.75346 0.0
C468 C 0.50446 0.09944 0.73205 0.0
H469 H 0.61116 0.08135 0.79711 0.0
H470 H 0.58171 0.08783 0.79447 0.0
C471 C 0.48391 0.09578 0.72999 0.0
C472 C 0.54215 0.12122 0.75442 0.0
H473 H 0.58014 0.12216 0.68584 0.0
C474 C 0.55134 0.1217 0.79636 0.0
C475 C 0.55322 0.12251 0.71414 0.0
C476 C 0.54495 0.12369 0.66814 0.0
C477 C 0.57058 0.12194 0.799 0.0
C478 C 0.58066 0.12126 0.75865 0.0
C479 C 0.57224 0.12231 0.71677 0.0
C480 C 0.59882 0.11759 0.75928 0.0
C481 C 0.57971 0.12249 0.84505 0.0
C482 C 0.61805 0.13174 0.73857 0.0
C483 C 0.63501 0.12795 0.73959 0.0
C484 C 0.63288 0.10987 0.76109 0.0
C485 C 0.6134 0.09551 0.78057 0.0
C486 C 0.59657 0.09928 0.77948 0.0
H487 H 0.57442 0.13003 0.87049 0.0
H488 H 0.57423 0.10614 0.85645 0.0
H489 H 0.59719 0.13116 0.84414 0.0
H490 H 0.62003 0.14584 0.72224 0.0
H491 H 0.64982 0.13928 0.72426 0.0
H492 H 0.53515 0.60935 0.95385 0.0
H493 H 0.49959 0.57927 0.94987 0.0
H494 H 0.4776 0.61859 0.89091 0.0
H495 H 0.51355 0.64893 0.89395 0.0
H496 H 0.46386 0.57438 0.99151 0.0
H497 H 0.4542 0.56854 0.80434 0.0
H498 H 0.47948 0.58439 0.83101 0.0
H499 H 0.46092 0.59356 0.82886 0.0
C500 C 0.52283 0.61163 0.9396 0.0
C501 C 0.52718 0.63152 0.92402 0.0
C502 C 0.50246 0.5944 0.93755 0.0
C503 C 0.48592 0.59662 0.91995 0.0
C504 C 0.49017 0.61644 0.90402 0.0
H505 H 0.35614 0.48887 0.95341 0.0
H506 H 0.38657 0.52473 0.95858 0.0
C507 C 0.51069 0.63375 0.90581 0.0
C508 C 0.46434 0.57803 0.91915 0.0
H509 H 0.42605 0.54331 0.84791 0.0
C510 C 0.45545 0.56769 0.96017 0.0
C511 C 0.45346 0.56932 0.8782 0.0
C512 C 0.46249 0.57937 0.83299 0.0
C513 C 0.43638 0.54844 0.96124 0.0
C514 C 0.42575 0.53949 0.92019 0.0
C515 C 0.43422 0.55026 0.87935 0.0
C516 C 0.40712 0.51797 0.91814 0.0
C517 C 0.42837 0.53732 0.00596 0.0
C518 C 0.40851 0.50237 0.89352 0.0
C519 C 0.39125 0.48207 0.89037 0.0
C520 C 0.37213 0.47685 0.91177 0.0
C521 C 0.37072 0.4924 0.93687 0.0
C522 C 0.38809 0.51286 0.93989 0.0
H523 H 0.44038 0.54444 0.03314 0.0
H524 H 0.41438 0.53835 0.0164 0.0
H525 H 0.42352 0.5204 0.00288 0.0
H526 H 0.42304 0.50592 0.87662 0.0
H527 H 0.39289 0.47051 0.87072 0.0
H528 H 0.86875 0.35578 0.10913 0.0
H529 H 0.86309 0.38614 0.11095 0.0
H530 H 0.92334 0.42451 0.04684 0.0
H531 H 0.92892 0.39448 0.0443 0.0
H532 H 0.88608 0.42524 0.15063 0.0
H533 H 0.88439 0.43419 0.9653 0.0
H534 H 0.88205 0.41082 0.99127 0.0
H535 H 0.90757 0.43374 0.98281 0.0
C536 C 0.88077 0.37073 0.09557 0.0
C537 C 0.8992 0.3727 0.07629 0.0
C538 C 0.8775 0.38802 0.09648 0.0
C539 C 0.89255 0.40745 0.07791 0.0
C540 C 0.91122 0.40953 0.06009 0.0
H541 H 0.92641 0.53378 0.13127 0.0
H542 H 0.92079 0.49819 0.12618 0.0
C543 C 0.91447 0.39235 0.05906 0.0
C544 C 0.88935 0.42591 0.07814 0.0
H545 H 0.89212 0.46484 0.00988 0.0
C546 C 0.88705 0.43371 0.1198 0.0
C547 C 0.89012 0.43674 0.03784 0.0
C548 C 0.89093 0.4283 0.99175 0.0
C549 C 0.88691 0.45277 0.12247 0.0
C550 C 0.88959 0.46454 0.08251 0.0
C551 C 0.89045 0.45603 0.04059 0.0
C552 C 0.89305 0.48629 0.08398 0.0
C553 C 0.88419 0.46026 0.16821 0.0
C554 C 0.87992 0.49179 0.06009 0.0
C555 C 0.88328 0.51236 0.06245 0.0
C556 C 0.89987 0.52772 0.08861 0.0
C557 C 0.91337 0.52229 0.11115 0.0
C558 C 0.91006 0.50186 0.10864 0.0
H559 H 0.87545 0.44685 0.19182 0.0
H560 H 0.89993 0.47076 0.18316 0.0
H561 H 0.87567 0.46917 0.16548 0.0
H562 H 0.86686 0.48007 0.04035 0.0
H563 H 0.87264 0.51609 0.04472 0.0
H564 H 0.39469 0.92601 0.28772 0.0
H565 H 0.42483 0.92065 0.28366 0.0
H566 H 0.38676 0.86131 0.21576 0.0
H567 H 0.35633 0.86681 0.21901 0.0
H568 H 0.42825 0.888 0.3219 0.0
H569 H 0.43912 0.89085 0.13503 0.0
H570 H 0.42286 0.89971 0.16209 0.0
H571 H 0.41346 0.87205 0.156 0.0
C572 C 0.39271 0.9119 0.27144 0.0
C573 C 0.37313 0.89685 0.25356 0.0
C574 C 0.40996 0.90882 0.26934 0.0
C575 C 0.40809 0.89062 0.24936 0.0
C576 C 0.38864 0.87561 0.23083 0.0
H577 H 0.51506 0.86756 0.28474 0.0
H578 H 0.47911 0.86199 0.28763 0.0
C579 C 0.37128 0.87876 0.23271 0.0
C580 C 0.42665 0.88757 0.24912 0.0
H581 H 0.46346 0.88689 0.17952 0.0
C582 C 0.43584 0.88749 0.29079 0.0
C583 C 0.43651 0.88697 0.20848 0.0
C584 C 0.42764 0.88754 0.16277 0.0
C585 C 0.45509 0.88773 0.29294 0.0
C586 C 0.46525 0.88769 0.25228 0.0
C587 C 0.45561 0.88688 0.21064 0.0
C588 C 0.48685 0.89075 0.25187 0.0
C589 C 0.46494 0.88913 0.33858 0.0
C590 C 0.50305 0.90865 0.23073 0.0
C591 C 0.52341 0.91179 0.22888 0.0
C592 C 0.52809 0.89707 0.24813 0.0
C593 C 0.51195 0.87925 0.26996 0.0
C594 C 0.49144 0.87607 0.27164 0.0
H595 H 0.457 0.89292 0.36601 0.0
H596 H 0.46373 0.87379 0.34664 0.0
H597 H 0.48188 0.90133 0.33828 0.0
H598 H 0.4999 0.92023 0.21544 0.0
H599 H 0.53546 0.92568 0.21179 0.0
H600 H 0.29717 0.36863 0.80137 0.0
H601 H 0.28647 0.34011 0.74574 0.0
H602 H 0.34939 0.34934 0.74798 0.0
H603 H 0.35979 0.37687 0.80347 0.0
H604 H 0.30009 0.34474 0.66416 0.0
H605 H 0.31858 0.28765 0.73557 0.0
H606 H 0.31477 0.30541 0.77159 0.0
H607 H 0.34064 0.3126 0.75021 0.0
C608 C 0.30847 0.36408 0.7908 0.0
C609 C 0.3294 0.37519 0.80638 0.0
C610 C 0.30233 0.34775 0.75915 0.0
C611 C 0.31695 0.34215 0.74324 0.0
C612 C 0.33751 0.35266 0.76066 0.0
H613 H 0.38043 0.36752 0.53326 0.0
H614 H 0.35146 0.35801 0.58433 0.0
C615 C 0.3436 0.36882 0.79193 0.0
C616 C 0.3127 0.32857 0.70282 0.0
H617 H 0.33484 0.30166 0.65705 0.0
C618 C 0.30677 0.33449 0.66272 0.0
C619 C 0.32015 0.31414 0.70027 0.0
C620 C 0.3236 0.30444 0.74201 0.0
C621 C 0.31215 0.32984 0.62046 0.0
C622 C 0.32441 0.31986 0.6188 0.0
C623 C 0.32638 0.31026 0.65817 0.0
C624 C 0.33972 0.32439 0.58162 0.0
C625 C 0.30648 0.3375 0.57834 0.0
C626 C 0.34339 0.30877 0.56354 0.0
C627 C 0.36056 0.3143 0.5346 0.0
C628 C 0.37441 0.33558 0.5237 0.0
C629 C 0.37021 0.35098 0.54079 0.0
C630 C 0.35326 0.34549 0.56957 0.0
H631 H 0.29011 0.33454 0.58094 0.0
H632 H 0.31699 0.35478 0.57509 0.0
H633 H 0.30787 0.32967 0.54741 0.0
H634 H 0.33338 0.29241 0.57292 0.0
H635 H 0.36334 0.30204 0.52198 0.0
H636 H 0.93667 0.29931 0.9777 0.0
H637 H 0.95508 0.29005 0.92082 0.0
H638 H 0.00754 0.35368 0.92545 0.0
H639 H 0.98992 0.36265 0.98262 0.0
H640 H 0.96303 0.30412 0.84065 0.0
H641 H 0.04003 0.32505 0.90797 0.0
H642 H 0.01872 0.32087 0.94522 0.0
H643 H 0.03659 0.34677 0.92274 0.0
C644 C 0.95242 0.3111 0.96751 0.0
C645 C 0.9617 0.3318 0.98433 0.0
C646 C 0.96293 0.30576 0.93506 0.0
C647 C 0.98293 0.32101 0.91925 0.0
C648 C 0.99252 0.34132 0.93796 0.0
H649 H 0.01894 0.38234 0.70006 0.0
H650 H 1.00018 0.35487 0.75494 0.0
C651 C 0.98217 0.34659 0.97028 0.0
C652 C 0.99229 0.31757 0.8778 0.0
H653 H 0.04082 0.34014 0.82923 0.0
C654 C 0.97999 0.31115 0.83833 0.0
C655 C 0.01425 0.32558 0.8741 0.0
C656 C 0.028 0.32966 0.91507 0.0
C657 C 0.98948 0.31621 0.7955 0.0
C658 C 0.01166 0.32864 0.79248 0.0
C659 C 0.02378 0.33146 0.83138 0.0
C660 C 0.02191 0.34294 0.75349 0.0
C661 C 0.97558 0.30976 0.75416 0.0
C662 C 0.04084 0.34595 0.73474 0.0
C663 C 0.05205 0.36223 0.70357 0.0
C664 C 0.04457 0.37585 0.69103 0.0
C665 C 0.02528 0.37226 0.70881 0.0
C666 C 0.01424 0.35619 0.73983 0.0
H667 H 0.96221 0.29345 0.75823 0.0
H668 H 0.96879 0.32022 0.75032 0.0
H669 H 0.98438 0.31057 0.72292 0.0
H670 H 0.04725 0.33614 0.74526 0.0
H671 H 0.06686 0.36455 0.69051 0.0
H672 H 0.60374 0.94528 0.07845 0.0
H673 H 0.63118 0.96417 0.02215 0.0
H674 H 0.6789 0.97887 0.1235 0.0
H675 H 0.65112 0.9591 0.18016 0.0
H676 H 0.67812 0.01429 0.07566 0.0
H677 H 0.67781 0.95609 0.95698 0.0
H678 H 0.65177 0.94885 0.97578 0.0
H679 H 0.67085 0.95038 0.01617 0.0
C680 C 0.62008 0.95204 0.0884 0.0
C681 C 0.62544 0.95085 0.13335 0.0
C682 C 0.63573 0.96267 0.05623 0.0
C683 C 0.65704 0.97263 0.06857 0.0
C684 C 0.66253 0.97094 0.11326 0.0
H685 H 0.70457 0.07234 0.8658 0.0
H686 H 0.71358 0.05358 0.92253 0.0
C687 C 0.64674 0.95975 0.14545 0.0
C688 C 0.67265 0.98747 0.03592 0.0
H689 H 0.68171 0.98843 0.92279 0.0
C690 C 0.67993 0.00895 0.0426 0.0
C691 C 0.6752 0.98041 0.99324 0.0
C692 C 0.66868 0.95766 0.9852 0.0
C693 C 0.68636 0.02292 0.00582 0.0
C694 C 0.68582 0.01508 0.96172 0.0
C695 C 0.68186 0.99437 0.9565 0.0
C696 C 0.68283 0.02547 0.92171 0.0
C697 C 0.69094 0.04516 0.01369 0.0
C698 C 0.66298 0.01553 0.901 0.0
C699 C 0.65786 0.02604 0.8688 0.0
C700 C 0.67248 0.04684 0.85647 0.0
C701 C 0.69291 0.05637 0.8749 0.0
C702 C 0.69806 0.04573 0.90741 0.0
H703 H 0.68999 0.04846 0.05005 0.0
H704 H 0.70699 0.05647 1.00137 0.0
H705 H 0.67957 0.04802 0.99456 0.0
H706 H 0.65094 0.99992 0.9115 0.0
H707 H 0.6421 0.01806 0.8548 0.0
H708 H 0.62895 0.6419 0.01605 0.0
H709 H 0.65605 0.65097 0.07252 0.0
H710 H 0.66459 0.71345 0.08358 0.0
H711 H 0.63667 0.7042 0.02718 0.0
H712 H 0.69809 0.6817 0.08426 0.0
H713 H 0.64619 0.69012 0.21091 0.0
H714 H 0.6363 0.67977 0.15534 0.0
H715 H 0.65538 0.70716 0.16231 0.0
C716 C 0.63666 0.65768 0.02999 0.0
C717 C 0.63029 0.67217 0.01783 0.0
C718 C 0.65236 0.66293 0.06205 0.0
C719 C 0.66217 0.6828 0.08277 0.0
C720 C 0.65699 0.69792 0.0685 0.0
H721 H 0.69556 0.64973 0.34078 0.0
H722 H 0.70423 0.67788 0.28473 0.0
C723 C 0.64111 0.69263 0.03617 0.0
C724 C 0.67549 0.68584 0.1229 0.0
H725 H 0.66815 0.67789 0.23667 0.0
C726 C 0.69221 0.68181 0.11789 0.0
C727 C 0.66809 0.68637 0.1669 0.0
C728 C 0.65051 0.69107 0.17459 0.0
C729 C 0.69927 0.67495 0.15468 0.0
C730 C 0.68948 0.67229 0.19717 0.0
C731 C 0.67542 0.67975 0.20373 0.0
C732 C 0.68828 0.65638 0.22944 0.0
C733 C 0.71536 0.66823 0.14683 0.0
C734 C 0.67652 0.63514 0.21668 0.0
C735 C 0.6711 0.61928 0.24852 0.0
C736 C 0.67767 0.62435 0.29354 0.0
C737 C 0.69048 0.64555 0.30602 0.0
C738 C 0.69547 0.66157 0.27418 0.0
H739 H 0.72619 0.67735 0.11876 0.0
H740 H 0.7247 0.67028 0.17793 0.0
H741 H 0.70715 0.65133 0.13729 0.0
H742 H 0.67047 0.63083 0.18253 0.0
H743 H 0.66124 0.60302 0.23825 0.0
H744 H 0.01795 0.63956 0.48725 0.0
H745 H 0.9988 0.6484 0.43319 0.0
H746 H 0.05135 0.71175 0.42329 0.0
H747 H 0.07115 0.70278 0.47734 0.0
H748 H 0.98632 0.67876 0.42647 0.0
H749 H 0.04529 0.68968 0.29394 0.0
H750 H 0.04579 0.67879 0.3483 0.0
H751 H 0.05347 0.70611 0.34354 0.0
C752 C 0.02549 0.65547 0.47405 0.0
C753 C 0.04627 0.67033 0.48591 0.0
C754 C 0.01439 0.66057 0.44339 0.0
C755 C 0.02371 0.68066 0.42379 0.0
C756 C 0.04397 0.69607 0.4376 0.0
H757 H 0.95615 0.64808 0.16886 0.0
H758 H 0.97513 0.67606 0.22539 0.0
C759 C 0.05521 0.69093 0.46854 0.0
C760 C 0.01267 0.68377 0.38522 0.0
H761 H 0.01057 0.67673 0.27096 0.0
C762 C 0.99187 0.67925 0.39221 0.0
C763 C 0.02001 0.68482 0.34044 0.0
C764 C 0.04234 0.6901 0.33071 0.0
C765 C 0.97741 0.67243 0.3564 0.0
C766 C 0.98404 0.67024 0.31292 0.0
C767 C 0.00553 0.67819 0.30462 0.0
C768 C 0.96905 0.65444 0.28075 0.0
C769 C 0.95467 0.66538 0.36622 0.0
C770 C 0.95931 0.63317 0.29338 0.0
C771 C 0.9491 0.61738 0.26126 0.0
C772 C 0.94812 0.62256 0.21605 0.0
C773 C 0.95662 0.6438 0.20374 0.0
C774 C 0.96737 0.65972 0.23587 0.0
H775 H 0.95331 0.67461 0.39451 0.0
H776 H 0.94666 0.66699 0.33586 0.0
H777 H 0.94644 0.64857 0.37651 0.0
H778 H 0.96083 0.62875 0.32758 0.0
H779 H 0.94264 0.6011 0.27142 0.0
H780 H 0.35226 0.95123 0.42288 0.0
H781 H 0.34355 0.96996 0.47885 0.0
H782 H 0.29864 0.97146 0.38686 0.0
H783 H 0.30715 0.95207 0.3303 0.0
H784 H 0.33069 0.01156 0.41927 0.0
H785 H 0.29381 0.9575 0.56261 0.0
H786 H 0.31471 0.95433 0.53976 0.0
H787 H 0.29216 0.9483 0.50507 0.0
C788 C 0.34019 0.95512 0.41488 0.0
C789 C 0.33047 0.95037 0.37229 0.0
C790 C 0.33502 0.9656 0.44709 0.0
C791 C 0.32016 0.97177 0.43733 0.0
C792 C 0.30987 0.96649 0.39526 0.0
H793 H 0.35778 0.05417 0.67119 0.0
H794 H 0.33004 0.03474 0.61437 0.0
C795 C 0.31476 0.95551 0.36308 0.0
C796 C 0.31863 0.98663 0.46878 0.0
H797 H 0.32143 0.99405 0.58281 0.0
C798 C 0.3277 0.00769 0.45494 0.0
C799 C 0.31424 0.98162 0.51514 0.0
C800 C 0.30295 0.95913 0.53139 0.0
C801 C 0.33584 0.024 0.48691 0.0
C802 C 0.33491 0.01896 0.53331 0.0
C803 C 0.32254 0.99794 0.54711 0.0
C804 C 0.35127 0.03366 0.56498 0.0
C805 C 0.3475 0.04649 0.47066 0.0
C806 C 0.37223 0.03937 0.55593 0.0
C807 C 0.38779 0.04987 0.58829 0.0
C808 C 0.38278 0.0551 0.63034 0.0
C809 C 0.36199 0.05035 0.63884 0.0
C810 C 0.3462 0.03935 0.60652 0.0
H811 H 0.34034 0.04829 0.43907 0.0
H812 H 0.34755 0.05742 0.49675 0.0
H813 H 0.36405 0.051 0.46296 0.0
H814 H 0.37642 0.0347 0.52458 0.0
H815 H 0.40371 0.05346 0.5808 0.0
H816 H 0.42941 0.29638 0.56314 0.0
H817 H 0.42685 0.26552 0.60013 0.0
H818 H 0.39439 0.22752 0.48398 0.0
H819 H 0.39666 0.25861 0.4465 0.0
H820 H 0.37716 0.20762 0.57011 0.0
H821 H 0.46353 0.24039 0.56173 0.0
H822 H 0.45603 0.25779 0.58774 0.0
H823 H 0.4502 0.25097 0.52897 0.0
C824 C 0.42164 0.28148 0.5453 0.0
C825 C 0.41343 0.28005 0.50154 0.0
C826 C 0.42024 0.26383 0.56658 0.0
C827 C 0.41077 0.24426 0.5446 0.0
C828 C 0.40187 0.2425 0.50151 0.0
H829 H 0.43323 0.14317 0.61823 0.0
H830 H 0.42937 0.1706 0.58092 0.0
C831 C 0.40321 0.26027 0.48009 0.0
C832 C 0.41095 0.22602 0.56638 0.0
H833 H 0.44432 0.21026 0.60803 0.0
C834 C 0.39182 0.2081 0.57822 0.0
C835 C 0.43007 0.22658 0.57663 0.0
C836 C 0.45113 0.24486 0.56276 0.0
C837 C 0.39134 0.19089 0.60068 0.0
C838 C 0.41052 0.19177 0.61221 0.0
C839 C 0.4296 0.20961 0.59974 0.0
C840 C 0.41141 0.17405 0.63494 0.0
C841 C 0.37033 0.17178 0.61106 0.0
C842 C 0.40254 0.16664 0.67802 0.0
C843 C 0.40464 0.15069 0.69963 0.0
C844 C 0.41586 0.14207 0.67872 0.0
C845 C 0.42457 0.14948 0.63557 0.0
C846 C 0.42236 0.16521 0.61404 0.0
H847 H 0.35751 0.17138 0.59029 0.0
H848 H 0.37077 0.15706 0.605 0.0
H849 H 0.36644 0.17214 0.64722 0.0
H850 H 0.39437 0.17348 0.69534 0.0
H851 H 0.39781 0.14538 0.73288 0.0
H852 H 0.25503 0.38555 0.88661 0.0
H853 H 0.22276 0.37994 0.84846 0.0
H854 H 0.25954 0.43612 0.76936 0.0
H855 H 0.29152 0.44138 0.80592 0.0
H856 H 0.20326 0.40248 0.84262 0.0
H857 H 0.22794 0.39506 0.67057 0.0
H858 H 0.24195 0.39464 0.72036 0.0
H859 H 0.24721 0.41932 0.69586 0.0
C860 C 0.25616 0.39666 0.86109 0.0
C861 C 0.27587 0.41376 0.84895 0.0
C862 C 0.23773 0.39343 0.83921 0.0
C863 C 0.23873 0.40725 0.80493 0.0
C864 C 0.25835 0.42477 0.79435 0.0
H865 H 0.14716 0.43814 0.71289 0.0
H866 H 0.17356 0.4332 0.75197 0.0
C867 C 0.27665 0.42786 0.81568 0.0
C868 C 0.21945 0.40397 0.78072 0.0
H869 H 0.20062 0.40426 0.67498 0.0
C870 C 0.20256 0.40255 0.80596 0.0
C871 C 0.21813 0.40348 0.7328 0.0
C872 C 0.23469 0.40296 0.70339 0.0
C873 C 0.18508 0.40193 0.78473 0.0
C874 C 0.1847 0.40341 0.73689 0.0
C875 C 0.20099 0.40354 0.71162 0.0
C876 C 0.16829 0.40607 0.71266 0.0
C877 C 0.16721 0.39971 0.81398 0.0
C878 C 0.15704 0.3931 0.67584 0.0
C879 C 0.1421 0.39621 0.65255 0.0
C880 C 0.13811 0.41232 0.66572 0.0
C881 C 0.1496 0.4254 0.70214 0.0
C882 C 0.16462 0.42245 0.72494 0.0
H883 H 0.16607 0.3911 0.84578 0.0
H884 H 0.17016 0.41559 0.82354 0.0
H885 H 0.15189 0.39124 0.79602 0.0
H886 H 0.15973 0.3805 0.66527 0.0
H887 H 0.13354 0.38589 0.62462 0.0
H888 H 0.86739 0.29501 0.94547 0.0
H889 H 0.83904 0.26428 0.90807 0.0
H890 H 0.83413 0.22566 0.02256 0.0
H891 H 0.86293 0.25656 0.06039 0.0
H892 H 0.8317 0.20648 0.93599 0.0
H893 H 0.77717 0.23813 0.94666 0.0
H894 H 0.80198 0.25584 0.92067 0.0
H895 H 0.80114 0.24884 0.97927 0.0
C896 C 0.86037 0.28 0.96285 0.0
C897 C 0.86733 0.27832 0.00622 0.0
C898 C 0.84409 0.26243 0.94136 0.0
C899 C 0.83419 0.24272 0.96275 0.0
C900 C 0.84147 0.24075 0.00549 0.0
H901 H 0.71121 0.14018 0.89046 0.0
H902 H 0.74243 0.16779 0.9277 0.0
C903 C 0.85789 0.25842 0.02712 0.0
C904 C 0.81589 0.22446 0.94072 0.0
H905 H 0.76641 0.20805 0.90036 0.0
C906 C 0.81737 0.20674 0.92835 0.0
C907 C 0.79712 0.22473 0.93108 0.0
C908 C 0.7941 0.2428 0.94545 0.0
C909 C 0.80071 0.18945 0.90597 0.0
C910 C 0.78218 0.19003 0.89517 0.0
C911 C 0.78067 0.20766 0.90813 0.0
C912 C 0.76365 0.17218 0.87256 0.0
C913 C 0.80291 0.17057 0.89489 0.0
C914 C 0.76506 0.16525 0.82894 0.0
C915 C 0.74706 0.14923 0.80735 0.0
C916 C 0.72732 0.14003 0.8289 0.0
C917 C 0.7261 0.14692 0.87267 0.0
C918 C 0.74399 0.16276 0.89414 0.0
H919 H 0.81565 0.17041 0.91491 0.0
H920 H 0.78795 0.15571 0.90138 0.0
H921 H 0.80684 0.17102 0.85849 0.0
H922 H 0.77997 0.17253 0.81115 0.0
H923 H 0.74853 0.14435 0.7736 0.0
H924 H 0.60796 0.85994 0.23293 0.0
H925 H 0.61093 0.8316 0.19512 0.0
H926 H 0.57554 0.83461 0.08172 0.0
H927 H 0.57219 0.8623 0.11918 0.0
H928 H 0.56047 0.79475 0.11003 0.0
H929 H 0.64713 0.83367 0.0878 0.0
H930 H 0.63854 0.83318 0.14499 0.0
H931 H 0.63396 0.84807 0.10278 0.0
C932 C 0.60093 0.85459 0.19985 0.0
C933 C 0.58978 0.86336 0.17924 0.0
C934 C 0.60276 0.8385 0.1781 0.0
C935 C 0.59364 0.83108 0.13523 0.0
C936 C 0.58273 0.84002 0.11467 0.0
H937 H 0.60659 0.74753 0.94139 0.0
H938 H 0.60912 0.7783 0.98093 0.0
C939 C 0.58082 0.8559 0.1363 0.0
C940 C 0.59429 0.81329 0.11224 0.0
H941 H 0.6272 0.79766 0.0666 0.0
C942 C 0.57509 0.79543 0.10061 0.0
C943 C 0.61335 0.81424 0.09927 0.0
C944 C 0.63444 0.83337 0.10892 0.0
C945 C 0.57437 0.77852 0.07672 0.0
C946 C 0.59338 0.77918 0.06477 0.0
C947 C 0.61264 0.7971 0.07596 0.0
C948 C 0.59336 0.76111 0.04164 0.0
C949 C 0.55316 0.76022 0.06375 0.0
C950 C 0.58413 0.7414 0.06294 0.0
C951 C 0.58257 0.72391 0.04047 0.0
C952 C 0.59037 0.72569 0.99618 0.0
C953 C 0.60033 0.74561 0.97535 0.0
C954 C 0.60183 0.76319 0.99796 0.0
H955 H 0.54071 0.76463 0.06415 0.0
H956 H 0.55366 0.75422 0.02952 0.0
H957 H 0.54865 0.74724 0.08839 0.0
H958 H 0.57786 0.73946 0.09692 0.0
H959 H 0.57502 0.7089 0.05787 0.0
H960 H 0.75114 0.6167 0.38376 0.0
H961 H 0.78294 0.62253 0.34304 0.0
H962 H 0.74474 0.56895 0.25799 0.0
H963 H 0.71326 0.56339 0.29737 0.0
H964 H 0.80079 0.59837 0.33171 0.0
H965 H 0.77766 0.61269 0.16369 0.0
H966 H 0.76407 0.61246 0.21481 0.0
H967 H 0.75754 0.58817 0.18648 0.0
C968 C 0.7496 0.6062 0.35639 0.0
C969 C 0.72964 0.58971 0.3436 0.0
C970 C 0.76775 0.60958 0.33302 0.0
C971 C 0.76621 0.59656 0.29645 0.0
C972 C 0.74635 0.57969 0.28489 0.0
H973 H 0.85121 0.56041 0.1927 0.0
H974 H 0.82522 0.56613 0.23137 0.0
C975 C 0.72832 0.57641 0.30786 0.0
C976 C 0.78522 0.59979 0.27115 0.0
H977 H 0.80368 0.60155 0.16391 0.0
C978 C 0.80157 0.59942 0.29507 0.0
C979 C 0.78664 0.60168 0.22332 0.0
C980 C 0.77064 0.60402 0.19567 0.0
C981 C 0.81848 0.5995 0.27241 0.0
C982 C 0.81884 0.5994 0.22442 0.0
C983 C 0.80326 0.6012 0.2006 0.0
C984 C 0.8343 0.59586 0.19865 0.0
C985 C 0.83569 0.59945 0.30026 0.0
C986 C 0.84741 0.61008 0.16524 0.0
C987 C 0.86224 0.60665 0.14224 0.0
C988 C 0.86413 0.58892 0.1523 0.0
C989 C 0.8504 0.57438 0.18446 0.0
C990 C 0.83561 0.57772 0.20702 0.0
H991 H 0.83717 0.6069 0.33382 0.0
H992 H 0.83177 0.58294 0.30625 0.0
H993 H 0.85114 0.60789 0.28273 0.0
H994 H 0.84651 0.62406 0.1577 0.0
H995 H 0.8726 0.61814 0.1177 0.0
H996 H 0.13892 0.70917 0.44602 0.0
H997 H 0.16662 0.74002 0.40778 0.0
H998 H 0.17339 0.77821 0.52444 0.0
H999 H 0.14516 0.74713 0.56322 0.0
H1000 H 0.17491 0.79785 0.43832 0.0
H1001 H 0.22887 0.76542 0.44269 0.0
H1002 H 0.20369 0.74787 0.41806 0.0
H1003 H 0.20536 0.75488 0.47686 0.0
C1004 C 0.14619 0.72411 0.46373 0.0
C1005 C 0.13995 0.7256 0.50801 0.0
C1006 C 0.1621 0.74176 0.44172 0.0
C1007 C 0.17237 0.76137 0.46345 0.0
C1008 C 0.16575 0.76319 0.50709 0.0
H1009 H 0.29472 0.86271 0.38516 0.0
H1010 H 0.2638 0.83526 0.42338 0.0
C1011 C 0.14966 0.74543 0.52925 0.0
C1012 C 0.19047 0.77958 0.44081 0.0
H1013 H 0.23913 0.7954 0.39632 0.0
C1014 C 0.18901 0.79741 0.42931 0.0
C1015 C 0.20895 0.77907 0.42935 0.0
C1016 C 0.21197 0.76088 0.44271 0.0
C1017 C 0.20543 0.81457 0.40604 0.0
C1018 C 0.22364 0.81374 0.39339 0.0
C1019 C 0.22511 0.79599 0.40547 0.0
C1020 C 0.24199 0.83148 0.37006 0.0
C1021 C 0.20332 0.83359 0.39603 0.0
C1022 C 0.24017 0.83871 0.32706 0.0
C1023 C 0.25802 0.85467 0.30487 0.0
C1024 C 0.27801 0.86349 0.32517 0.0
C1025 C 0.27964 0.85625 0.36827 0.0
C1026 C 0.26192 0.84051 0.39034 0.0
H1027 H 0.19097 0.83392 0.41722 0.0
H1028 H 0.21847 0.84836 0.40178 0.0
H1029 H 0.19888 0.83319 0.36 0.0
H1030 H 0.22504 0.83172 0.31024 0.0
H1031 H 0.25623 0.85985 0.2717 0.0
loop_
_geom_bond_atom_site_label_1
_geom_bond_atom_site_label_2
_geom_bond_distance
_geom_bond_site_symmetry_2
_ccdc_geom_bond_type
Co0 O1 2.216 . S
Co0 O2 2.091 . S
Co0 O4 2.004 . S
Co0 O10 2.021 . S
Co0 O12 2.137 . S
Co0 O13 2.244 . S
O1 Co0 2.216 . S
O1 C8 1.247 . S
O2 Co0 2.091 . S
O2 C8 1.261 . S
C3 O12 1.247 . S
C3 O13 1.272 . S
O4 Co0 2.004 . S
O4 C9 1.259 . S
Co5 O6 2.061 . S
Co5 O11 2.052 . S
Co5 O13 2.135 . S
O6 Co5 2.061 . S
O6 C9 1.235 . S
C7 O10 1.238 . S
C7 O11 1.241 . S
C8 O1 1.247 . S
C8 O2 1.261 . S
C9 O4 1.259 . S
C9 O6 1.235 . S
O10 Co0 2.021 . S
O10 C7 1.238 . S
O11 Co5 2.052 . S
O11 C7 1.241 . S
O12 Co0 2.137 . S
O12 C3 1.247 . S
O13 Co0 2.244 . S
O13 C3 1.272 . S
O13 Co5 2.135 . S
Co14 O15 2.216 . S
Co14 O16 2.091 . S
Co14 O18 2.004 . S
Co14 O24 2.021 . S
Co14 O26 2.137 . S
Co14 O27 2.244 . S
O15 Co14 2.216 . S
O15 C22 1.247 . S
O16 Co14 2.091 . S
O16 C22 1.261 . S
C17 O26 1.247 . S
C17 O27 1.272 . S
O18 Co14 2.004 . S
O18 C23 1.259 . S
Co19 O20 2.061 . S
Co19 O25 2.052 . S
Co19 O27 2.135 . S
O20 Co19 2.061 . S
O20 C23 1.235 . S
C21 O24 1.238 . S
C21 O25 1.241 . S
C22 O15 1.247 . S
C22 O16 1.261 . S
C23 O18 1.259 . S
C23 O20 1.235 . S
O24 Co14 2.021 . S
O24 C21 1.238 . S
O25 Co19 2.052 . S
O25 C21 1.241 . S
O26 Co14 2.137 . S
O26 C17 1.247 . S
O27 Co14 2.244 . S
O27 C17 1.272 . S
O27 Co19 2.135 . S
Co28 O29 2.216 . S
Co28 O30 2.091 . S
Co28 O32 2.004 . S
Co28 O38 2.021 . S
Co28 O40 2.137 . S
Co28 O41 2.244 . S
O29 Co28 2.216 . S
O29 C36 1.247 . S
O30 Co28 2.091 . S
O30 C36 1.261 . S
C31 O40 1.247 . S
C31 O41 1.272 . S
O32 Co28 2.004 . S
O32 C37 1.259 . S
Co33 O34 2.061 . S
Co33 O39 2.052 . S
Co33 O41 2.135 . S
O34 Co33 2.061 . S
O34 C37 1.235 . S
C35 O38 1.238 . S
C35 O39 1.241 . S
C36 O29 1.247 . S
C36 O30 1.261 . S
C37 O32 1.259 . S
C37 O34 1.235 . S
O38 Co28 2.021 . S
O38 C35 1.238 . S
O39 Co33 2.052 . S
O39 C35 1.241 . S
O40 Co28 2.137 . S
O40 C31 1.247 . S
O41 Co28 2.244 . S
O41 C31 1.272 . S
O41 Co33 2.135 . S
Co42 O43 2.216 . S
Co42 O44 2.091 . S
Co42 O46 2.004 . S
Co42 O52 2.021 . S
Co42 O54 2.137 . S
Co42 O55 2.244 . S
O43 Co42 2.216 . S
O43 C50 1.247 . S
O44 Co42 2.091 . S
O44 C50 1.261 . S
C45 O54 1.247 . S
C45 O55 1.272 . S
O46 Co42 2.004 . S
O46 C51 1.259 . S
Co47 O48 2.061 . S
Co47 O53 2.052 . S
Co47 O55 2.135 . S
O48 Co47 2.061 . S
O48 C51 1.235 . S
C49 O52 1.238 . S
C49 O53 1.241 . S
C50 O43 1.247 . S
C50 O44 1.261 . S
C51 O46 1.259 . S
C51 O48 1.235 . S
O52 Co42 2.021 . S
O52 C49 1.238 . S
O53 Co47 2.052 . S
O53 C49 1.241 . S
O54 Co42 2.137 . S
O54 C45 1.247 . S
O55 Co42 2.244 . S
O55 C45 1.272 . S
O55 Co47 2.135 . S
Co56 O57 2.216 . S
Co56 O58 2.091 . S
Co56 O60 2.004 . S
Co56 O66 2.021 . S
Co56 O68 2.137 . S
Co56 O69 2.244 . S
O57 Co56 2.216 . S
O57 C64 1.247 . S
O58 Co56 2.091 . S
O58 C64 1.261 . S
C59 O68 1.247 . S
C59 O69 1.272 . S
O60 Co56 2.004 . S
O60 C65 1.259 . S
Co61 O62 2.061 . S
Co61 O67 2.052 . S
Co61 O69 2.135 . S
O62 Co61 2.061 . S
O62 C65 1.235 . S
C63 O66 1.238 . S
C63 O67 1.241 . S
C64 O57 1.247 . S
C64 O58 1.261 . S
C65 O60 1.259 . S
C65 O62 1.235 . S
O66 Co56 2.021 . S
O66 C63 1.238 . S
O67 Co61 2.052 . S
O67 C63 1.241 . S
O68 Co56 2.137 . S
O68 C59 1.247 . S
O69 Co56 2.244 . S
O69 C59 1.272 . S
O69 Co61 2.135 . S
Co70 O71 2.216 . S
Co70 O72 2.091 . S
Co70 O74 2.004 . S
Co70 O80 2.021 . S
Co70 O82 2.137 . S
Co70 O83 2.244 . S
O71 Co70 2.216 . S
O71 C78 1.247 . S
O72 Co70 2.091 . S
O72 C78 1.261 . S
C73 O82 1.247 . S
C73 O83 1.272 . S
O74 Co70 2.004 . S
O74 C79 1.259 . S
Co75 O76 2.061 . S
Co75 O81 2.052 . S
Co75 O83 2.135 . S
O76 Co75 2.061 . S
O76 C79 1.235 . S
C77 O80 1.238 . S
C77 O81 1.241 . S
C78 O71 1.247 . S
C78 O72 1.261 . S
C79 O74 1.259 . S
C79 O76 1.235 . S
O80 Co70 2.021 . S
O80 C77 1.238 . S
O81 Co75 2.052 . S
O81 C77 1.241 . S
O82 Co70 2.137 . S
O82 C73 1.247 . S
O83 Co70 2.244 . S
O83 C73 1.272 . S
O83 Co75 2.135 . S
Co84 O85 2.216 . S
Co84 O86 2.091 . S
Co84 O88 2.004 . S
Co84 O94 2.021 . S
Co84 O96 2.137 . S
Co84 O97 2.244 . S
O85 Co84 2.216 . S
O85 C92 1.247 . S
O86 Co84 2.091 . S
O86 C92 1.261 . S
C87 O96 1.247 . S
C87 O97 1.272 . S
O88 Co84 2.004 . S
O88 C93 1.259 . S
Co89 O90 2.061 . S
Co89 O95 2.052 . S
Co89 O97 2.135 . S
O90 Co89 2.061 . S
O90 C93 1.235 . S
C91 O94 1.238 . S
C91 O95 1.241 . S
C92 O85 1.247 . S
C92 O86 1.261 . S
C93 O88 1.259 . S
C93 O90 1.235 . S
O94 Co84 2.021 . S
O94 C91 1.238 . S
O95 Co89 2.052 . S
O95 C91 1.241 . S
O96 Co84 2.137 . S
O96 C87 1.247 . S
O97 Co84 2.244 . S
O97 C87 1.272 . S
O97 Co89 2.135 . S
Co98 O99 2.216 . S
Co98 O100 2.091 . S
Co98 O102 2.004 . S
Co98 O108 2.021 . S
Co98 O110 2.137 . S
Co98 O111 2.244 . S
O99 Co98 2.216 . S
O99 C106 1.247 . S
O100 Co98 2.091 . S
O100 C106 1.261 . S
C101 O110 1.247 . S
C101 O111 1.272 . S
O102 Co98 2.004 . S
O102 C107 1.259 . S
Co103 O104 2.061 . S
Co103 O109 2.052 . S
Co103 O111 2.135 . S
O104 Co103 2.061 . S
O104 C107 1.235 . S
C105 O108 1.238 . S
C105 O109 1.241 . S
C106 O99 1.247 . S
C106 O100 1.261 . S
C107 O102 1.259 . S
C107 O104 1.235 . S
O108 Co98 2.021 . S
O108 C105 1.238 . S
O109 Co103 2.052 . S
O109 C105 1.241 . S
O110 Co98 2.137 . S
O110 C101 1.247 . S
O111 Co98 2.244 . S
O111 C101 1.272 . S
O111 Co103 2.135 . S
Co112 O113 2.216 . S
Co112 O114 2.091 . S
Co112 O116 2.004 . S
Co112 O122 2.021 . S
Co112 O124 2.137 . S
Co112 O125 2.244 . S
O113 Co112 2.216 . S
O113 C120 1.247 . S
O114 Co112 2.091 . S
O114 C120 1.261 . S
C115 O124 1.247 . S
C115 O125 1.272 . S
O116 Co112 2.004 . S
O116 C121 1.259 . S
Co117 O118 2.061 . S
Co117 O123 2.052 . S
Co117 O125 2.135 . S
O118 Co117 2.061 . S
O118 C121 1.235 . S
C119 O122 1.238 . S
C119 O123 1.241 . S
C120 O113 1.247 . S
C120 O114 1.261 . S
C121 O116 1.259 . S
C121 O118 1.235 . S
O122 Co112 2.021 . S
O122 C119 1.238 . S
O123 Co117 2.052 . S
O123 C119 1.241 . S
O124 Co112 2.137 . S
O124 C115 1.247 . S
O125 Co112 2.244 . S
O125 C115 1.272 . S
O125 Co117 2.135 . S
Co126 O127 2.216 . S
Co126 O128 2.091 . S
Co126 O130 2.004 . S
Co126 O136 2.021 . S
Co126 O138 2.137 . S
Co126 O139 2.244 . S
O127 Co126 2.216 . S
O127 C134 1.247 . S
O128 Co126 2.091 . S
O128 C134 1.261 . S
C129 O138 1.247 . S
C129 O139 1.272 . S
O130 Co126 2.004 . S
O130 C135 1.259 . S
Co131 O132 2.061 . S
Co131 O137 2.052 . S
Co131 O139 2.135 . S
O132 Co131 2.061 . S
O132 C135 1.235 . S
C133 O136 1.238 . S
C133 O137 1.241 . S
C134 O127 1.247 . S
C134 O128 1.261 . S
C135 O130 1.259 . S
C135 O132 1.235 . S
O136 Co126 2.021 . S
O136 C133 1.238 . S
O137 Co131 2.052 . S
O137 C133 1.241 . S
O138 Co126 2.137 . S
O138 C129 1.247 . S
O139 Co126 2.244 . S
O139 C129 1.272 . S
O139 Co131 2.135 . S
Co140 O141 2.216 . S
Co140 O142 2.091 . S
Co140 O144 2.004 . S
Co140 O150 2.021 . S
Co140 O152 2.137 . S
Co140 O153 2.244 . S
O141 Co140 2.216 . S
O141 C148 1.247 . S
O142 Co140 2.091 . S
O142 C148 1.261 . S
C143 O152 1.247 . S
C143 O153 1.272 . S
O144 Co140 2.004 . S
O144 C149 1.259 . S
Co145 O146 2.061 . S
Co145 O151 2.052 . S
Co145 O153 2.135 . S
O146 Co145 2.061 . S
O146 C149 1.235 . S
C147 O150 1.238 . S
C147 O151 1.241 . S
C148 O141 1.247 . S
C148 O142 1.261 . S
C149 O144 1.259 . S
C149 O146 1.235 . S
O150 Co140 2.021 . S
O150 C147 1.238 . S
O151 Co145 2.052 . S
O151 C147 1.241 . S
O152 Co140 2.137 . S
O152 C143 1.247 . S
O153 Co140 2.244 . S
O153 C143 1.272 . S
O153 Co145 2.135 . S
Co154 O155 2.216 . S
Co154 O156 2.091 . S
Co154 O158 2.004 . S
Co154 O164 2.021 . S
Co154 O166 2.137 . S
Co154 O167 2.244 . S
O155 Co154 2.216 . S
O155 C162 1.247 . S
O156 Co154 2.091 . S
O156 C162 1.261 . S
C157 O166 1.247 . S
C157 O167 1.272 . S
O158 Co154 2.004 . S
O158 C163 1.259 . S
Co159 O160 2.061 . S
Co159 O165 2.052 . S
Co159 O167 2.135 . S
O160 Co159 2.061 . S
O160 C163 1.235 . S
C161 O164 1.238 . S
C161 O165 1.241 . S
C162 O155 1.247 . S
C162 O156 1.261 . S
C163 O158 1.259 . S
C163 O160 1.235 . S
O164 Co154 2.021 . S
O164 C161 1.238 . S
O165 Co159 2.052 . S
O165 C161 1.241 . S
O166 Co154 2.137 . S
O166 C157 1.247 . S
O167 Co154 2.244 . S
O167 C157 1.272 . S
O167 Co159 2.135 . S
H168 C176 0.929 . S
H169 C178 0.930 . S
H170 C180 0.930 . S
H171 C183 0.929 1_556 S
H172 C186 0.930 . S
H173 C188 0.960 . S
H174 C188 0.960 . S
H175 C188 0.960 . S
C176 H168 0.929 . S
C176 C177 1.377 . S
C176 C178 1.384 . S
C177 C176 1.377 . S
C177 C183 1.390 . S
C178 H169 0.930 . S
C178 C176 1.384 . S
C178 C179 1.372 . S
C179 C178 1.372 . S
C179 C180 1.400 . S
C179 C184 1.490 . S
C180 H170 0.930 . S
C180 C179 1.400 . S
C180 C183 1.386 . S
H181 C197 0.930 . S
H182 C198 0.931 . S
C183 H171 0.929 1_554 S
C183 C177 1.390 . S
C183 C180 1.386 . S
C184 C179 1.490 . S
C184 C186 1.395 . S
C184 C187 1.403 . S
H185 C191 0.930 . S
C186 H172 0.930 . S
C186 C184 1.395 . S
C186 C189 1.403 . S
C187 C184 1.403 . S
C187 C188 1.524 . S
C187 C191 1.400 . S
C188 H173 0.960 . S
C188 H174 0.960 . S
C188 H175 0.960 . S
C188 C187 1.524 . S
C189 C186 1.403 . S
C189 C190 1.392 . S
C189 C193 1.495 . S
C190 C189 1.392 . S
C190 C191 1.385 . S
C190 C192 1.478 . S
C191 H185 0.930 . S
C191 C187 1.400 . S
C191 C190 1.385 . S
C192 C190 1.478 . S
C192 C194 1.381 . S
C192 C198 1.383 . S
C193 C189 1.495 . S
C193 H199 0.959 . S
C193 H200 0.961 . S
C193 H201 0.960 . S
C194 C192 1.381 . S
C194 C195 1.394 . S
C194 H202 0.930 . S
C195 C194 1.394 . S
C195 C196 1.383 . S
C195 H203 0.929 . S
C196 C195 1.383 . S
C196 C197 1.377 . S
C197 H181 0.930 . S
C197 C196 1.377 . S
C197 C198 1.379 . S
C198 H182 0.931 . S
C198 C192 1.383 . S
C198 C197 1.379 . S
H199 C193 0.959 . S
H200 C193 0.961 . S
H201 C193 0.960 . S
H202 C194 0.930 . S
H203 C195 0.929 . S
H204 C212 0.929 . S
H205 C214 0.930 . S
H206 C216 0.930 . S
H207 C219 0.929 . S
H208 C222 0.930 . S
H209 C224 0.960 . S
H210 C224 0.960 . S
H211 C224 0.960 . S
C212 H204 0.929 . S
C212 C213 1.377 . S
C212 C214 1.384 . S
C213 C212 1.377 . S
C213 C219 1.390 . S
C214 H205 0.930 . S
C214 C212 1.384 . S
C214 C215 1.372 . S
C215 C214 1.372 . S
C215 C216 1.400 . S
C215 C220 1.490 . S
C216 H206 0.930 . S
C216 C215 1.400 . S
C216 C219 1.386 . S
H217 C233 0.930 . S
H218 C234 0.931 . S
C219 H207 0.929 . S
C219 C213 1.390 . S
C219 C216 1.386 . S
C220 C215 1.490 . S
C220 C222 1.395 1_455 S
C220 C223 1.403 . S
H221 C227 0.930 . S
C222 H208 0.930 . S
C222 C220 1.395 1_655 S
C222 C225 1.403 . S
C223 C220 1.403 . S
C223 C224 1.524 . S
C223 C227 1.400 . S
C224 H209 0.960 . S
C224 H210 0.960 . S
C224 H211 0.960 . S
C224 C223 1.524 . S
C225 C222 1.403 . S
C225 C226 1.392 . S
C225 C229 1.495 . S
C226 C225 1.392 . S
C226 C227 1.385 1_655 S
C226 C228 1.478 . S
C227 H221 0.930 . S
C227 C223 1.400 . S
C227 C226 1.385 1_455 S
C228 C226 1.478 . S
C228 C230 1.381 . S
C228 C234 1.383 . S
C229 C225 1.495 . S
C229 H235 0.959 . S
C229 H236 0.961 . S
C229 H237 0.960 . S
C230 C228 1.381 . S
C230 C231 1.394 . S
C230 H238 0.930 . S
C231 C230 1.394 . S
C231 C232 1.383 . S
C231 H239 0.929 . S
C232 C231 1.383 . S
C232 C233 1.377 . S
C233 H217 0.930 . S
C233 C232 1.377 . S
C233 C234 1.379 . S
C234 H218 0.931 . S
C234 C228 1.383 . S
C234 C233 1.379 . S
H235 C229 0.959 . S
H236 C229 0.961 . S
H237 C229 0.960 . S
H238 C230 0.930 . S
H239 C231 0.929 . S
H240 C248 0.929 . S
H241 C250 0.930 . S
H242 C252 0.930 . S
H243 C255 0.929 . S
H244 C258 0.930 . S
H245 C260 0.960 . S
H246 C260 0.960 . S
H247 C260 0.960 . S
C248 H240 0.929 . S
C248 C249 1.377 . S
C248 C250 1.384 . S
C249 C248 1.377 . S
C249 C255 1.390 . S
C250 H241 0.930 . S
C250 C248 1.384 . S
C250 C251 1.372 . S
C251 C250 1.372 . S
C251 C252 1.400 . S
C251 C256 1.490 . S
C252 H242 0.930 . S
C252 C251 1.400 . S
C252 C255 1.386 . S
H253 C269 0.930 . S
H254 C270 0.931 . S
C255 H243 0.929 . S
C255 C249 1.390 . S
C255 C252 1.386 . S
C256 C251 1.490 . S
C256 C258 1.395 . S
C256 C259 1.403 1_565 S
H257 C263 0.930 . S
C258 H244 0.930 . S
C258 C256 1.395 . S
C258 C261 1.403 . S
C259 C256 1.403 1_545 S
C259 C260 1.524 . S
C259 C263 1.400 . S
C260 H245 0.960 . S
C260 H246 0.960 . S
C260 H247 0.960 . S
C260 C259 1.524 . S
C261 C258 1.403 . S
C261 C262 1.392 1_565 S
C261 C265 1.495 . S
C262 C261 1.392 1_545 S
C262 C263 1.385 . S
C262 C264 1.478 . S
C263 H257 0.930 . S
C263 C259 1.400 . S
C263 C262 1.385 . S
C264 C262 1.478 . S
C264 C266 1.381 . S
C264 C270 1.383 . S
C265 C261 1.495 . S
C265 H271 0.959 . S
C265 H272 0.961 . S
C265 H273 0.960 . S
C266 C264 1.381 . S
C266 C267 1.394 . S
C266 H274 0.930 . S
C267 C266 1.394 . S
C267 C268 1.383 . S
C267 H275 0.929 . S
C268 C267 1.383 . S
C268 C269 1.377 . S
C269 H253 0.930 . S
C269 C268 1.377 . S
C269 C270 1.379 . S
C270 H254 0.931 . S
C270 C264 1.383 . S
C270 C269 1.379 . S
H271 C265 0.959 . S
H272 C265 0.961 . S
H273 C265 0.960 . S
H274 C266 0.930 . S
H275 C267 0.929 . S
H276 C284 0.929 . S
H277 C286 0.930 . S
H278 C288 0.930 . S
H279 C291 0.929 . S
H280 C294 0.930 . S
H281 C296 0.960 . S
H282 C296 0.960 . S
H283 C296 0.960 . S
C284 H276 0.929 . S
C284 C285 1.377 . S
C284 C286 1.384 . S
C285 C284 1.377 . S
C285 C291 1.390 . S
C286 H277 0.930 . S
C286 C284 1.384 . S
C286 C287 1.372 . S
C287 C286 1.372 . S
C287 C288 1.400 . S
C287 C292 1.490 . S
C288 H278 0.930 . S
C288 C287 1.400 . S
C288 C291 1.386 . S
H289 C305 0.930 . S
H290 C306 0.931 . S
C291 H279 0.929 . S
C291 C285 1.390 . S
C291 C288 1.386 . S
C292 C287 1.490 . S
C292 C294 1.395 . S
C292 C295 1.403 . S
H293 C299 0.930 . S
C294 H280 0.930 . S
C294 C292 1.395 . S
C294 C297 1.403 . S
C295 C292 1.403 . S
C295 C296 1.524 . S
C295 C299 1.400 . S
C296 H281 0.960 . S
C296 H282 0.960 . S
C296 H283 0.960 . S
C296 C295 1.524 . S
C297 C294 1.403 . S
C297 C298 1.392 . S
C297 C301 1.495 . S
C298 C297 1.392 . S
C298 C299 1.385 . S
C298 C300 1.478 . S
C299 H293 0.930 . S
C299 C295 1.400 . S
C299 C298 1.385 . S
C300 C298 1.478 . S
C300 C302 1.381 . S
C300 C306 1.383 . S
C301 C297 1.495 . S
C301 H307 0.959 . S
C301 H308 0.961 . S
C301 H309 0.960 . S
C302 C300 1.381 . S
C302 C303 1.394 . S
C302 H310 0.930 . S
C303 C302 1.394 . S
C303 C304 1.383 . S
C303 H311 0.929 . S
C304 C303 1.383 . S
C304 C305 1.377 . S
C305 H289 0.930 . S
C305 C304 1.377 . S
C305 C306 1.379 . S
C306 H290 0.931 . S
C306 C300 1.383 . S
C306 C305 1.379 . S
H307 C301 0.959 . S
H308 C301 0.961 . S
H309 C301 0.960 . S
H310 C302 0.930 . S
H311 C303 0.929 . S
H312 C320 0.929 . S
H313 C322 0.930 . S
H314 C324 0.930 . S
H315 C327 0.929 . S
H316 C330 0.930 . S
H317 C332 0.960 . S
H318 C332 0.960 1_455 S
H319 C332 0.960 . S
C320 H312 0.929 . S
C320 C321 1.377 . S
C320 C322 1.384 . S
C321 C320 1.377 . S
C321 C327 1.390 . S
C322 H313 0.930 . S
C322 C320 1.384 . S
C322 C323 1.372 . S
C323 C322 1.372 . S
C323 C324 1.400 . S
C323 C328 1.490 . S
C324 H314 0.930 . S
C324 C323 1.400 . S
C324 C327 1.386 . S
H325 C341 0.930 . S
H326 C342 0.931 . S
C327 H315 0.929 . S
C327 C321 1.390 . S
C327 C324 1.386 . S
C328 C323 1.490 . S
C328 C330 1.395 . S
C328 C331 1.403 1_455 S
H329 C335 0.930 . S
C330 H316 0.930 . S
C330 C328 1.395 . S
C330 C333 1.403 . S
C331 C328 1.403 1_655 S
C331 C332 1.524 . S
C331 C335 1.400 . S
C332 H317 0.960 . S
C332 H318 0.960 1_655 S
C332 H319 0.960 . S
C332 C331 1.524 . S
C333 C330 1.403 . S
C333 C334 1.392 1_455 S
C333 C337 1.495 . S
C334 C333 1.392 1_655 S
C334 C335 1.385 . S
C334 C336 1.478 . S
C335 H329 0.930 . S
C335 C331 1.400 . S
C335 C334 1.385 . S
C336 C334 1.478 . S
C336 C338 1.381 . S
C336 C342 1.383 . S
C337 C333 1.495 . S
C337 H343 0.959 . S
C337 H344 0.961 . S
C337 H345 0.960 . S
C338 C336 1.381 . S
C338 C339 1.394 . S
C338 H346 0.930 . S
C339 C338 1.394 . S
C339 C340 1.383 . S
C339 H347 0.929 1_556 S
C340 C339 1.383 . S
C340 C341 1.377 . S
C341 H325 0.930 . S
C341 C340 1.377 . S
C341 C342 1.379 . S
C342 H326 0.931 . S
C342 C336 1.383 . S
C342 C341 1.379 . S
H343 C337 0.959 . S
H344 C337 0.961 . S
H345 C337 0.960 . S
H346 C338 0.930 . S
H347 C339 0.929 1_554 S
H348 C356 0.929 . S
H349 C358 0.930 . S
H350 C360 0.930 . S
H351 C363 0.929 . S
H352 C366 0.930 . S
H353 C368 0.960 . S
H354 C368 0.960 . S
H355 C368 0.960 . S
C356 H348 0.929 . S
C356 C357 1.377 . S
C356 C358 1.384 . S
C357 C356 1.377 . S
C357 C363 1.390 . S
C358 H349 0.930 . S
C358 C356 1.384 . S
C358 C359 1.372 . S
C359 C358 1.372 . S
C359 C360 1.400 . S
C359 C364 1.490 . S
C360 H350 0.930 . S
C360 C359 1.400 . S
C360 C363 1.386 . S
H361 C377 0.930 . S
H362 C378 0.931 . S
C363 H351 0.929 . S
C363 C357 1.390 . S
C363 C360 1.386 . S
C364 C359 1.490 . S
C364 C366 1.395 1_545 S
C364 C367 1.403 1_556 S
H365 C371 0.930 . S
C366 H352 0.930 . S
C366 C364 1.395 1_565 S
C366 C369 1.403 . S
C367 C364 1.403 1_554 S
C367 C368 1.524 . S
C367 C371 1.400 . S
C368 H353 0.960 . S
C368 H354 0.960 . S
C368 H355 0.960 . S
C368 C367 1.524 . S
C369 C366 1.403 . S
C369 C370 1.392 1_556 S
C369 C373 1.495 . S
C370 C369 1.392 1_554 S
C370 C371 1.385 1_565 S
C370 C372 1.478 . S
C371 H365 0.930 . S
C371 C367 1.400 . S
C371 C370 1.385 1_545 S
C372 C370 1.478 . S
C372 C374 1.381 . S
C372 C378 1.383 . S
C373 C369 1.495 . S
C373 H379 0.959 . S
C373 H380 0.961 . S
C373 H381 0.960 . S
C374 C372 1.381 . S
C374 C375 1.394 . S
C374 H382 0.930 . S
C375 C374 1.394 . S
C375 C376 1.383 . S
C375 H383 0.929 . S
C376 C375 1.383 . S
C376 C377 1.377 . S
C377 H361 0.930 . S
C377 C376 1.377 . S
C377 C378 1.379 . S
C378 H362 0.931 . S
C378 C372 1.383 . S
C378 C377 1.379 . S
H379 C373 0.959 . S
H380 C373 0.961 . S
H381 C373 0.960 . S
H382 C374 0.930 . S
H383 C375 0.929 . S
H384 C392 0.929 . S
H385 C394 0.930 . S
H386 C396 0.930 . S
H387 C399 0.929 . S
H388 C402 0.930 . S
H389 C404 0.960 . S
H390 C404 0.960 . S
H391 C404 0.960 . S
C392 H384 0.929 . S
C392 C393 1.377 . S
C392 C394 1.384 . S
C393 C392 1.377 . S
C393 C399 1.390 . S
C394 H385 0.930 . S
C394 C392 1.384 . S
C394 C395 1.372 . S
C395 C394 1.372 . S
C395 C396 1.400 . S
C395 C400 1.490 . S
C396 H386 0.930 . S
C396 C395 1.400 . S
C396 C399 1.386 . S
H397 C413 0.930 . S
H398 C414 0.931 . S
C399 H387 0.929 . S
C399 C393 1.390 . S
C399 C396 1.386 . S
C400 C395 1.490 . S
C400 C402 1.395 . S
C400 C403 1.403 . S
H401 C407 0.930 . S
C402 H388 0.930 . S
C402 C400 1.395 . S
C402 C405 1.403 . S
C403 C400 1.403 . S
C403 C404 1.524 . S
C403 C407 1.400 . S
C404 H389 0.960 . S
C404 H390 0.960 . S
C404 H391 0.960 . S
C404 C403 1.524 . S
C405 C402 1.403 . S
C405 C406 1.392 . S
C405 C409 1.495 . S
C406 C405 1.392 . S
C406 C407 1.385 . S
C406 C408 1.478 . S
C407 H401 0.930 . S
C407 C403 1.400 . S
C407 C406 1.385 . S
C408 C406 1.478 . S
C408 C410 1.381 . S
C408 C414 1.383 . S
C409 C405 1.495 . S
C409 H415 0.959 . S
C409 H416 0.961 . S
C409 H417 0.960 . S
C410 C408 1.381 . S
C410 C411 1.394 . S
C410 H418 0.930 . S
C411 C410 1.394 . S
C411 C412 1.383 . S
C411 H419 0.929 . S
C412 C411 1.383 . S
C412 C413 1.377 . S
C413 H397 0.930 . S
C413 C412 1.377 . S
C413 C414 1.379 . S
C414 H398 0.931 . S
C414 C408 1.383 . S
C414 C413 1.379 . S
H415 C409 0.959 . S
H416 C409 0.961 . S
H417 C409 0.960 . S
H418 C410 0.930 . S
H419 C411 0.929 . S
H420 C428 0.929 . S
H421 C430 0.930 . S
H422 C432 0.930 . S
H423 C435 0.929 . S
H424 C438 0.930 . S
H425 C440 0.960 . S
H426 C440 0.960 . S
H427 C440 0.960 . S
C428 H420 0.929 . S
C428 C429 1.377 . S
C428 C430 1.384 . S
C429 C428 1.377 . S
C429 C435 1.390 . S
C430 H421 0.930 . S
C430 C428 1.384 . S
C430 C431 1.372 . S
C431 C430 1.372 . S
C431 C432 1.400 . S
C431 C436 1.490 . S
C432 H422 0.930 . S
C432 C431 1.400 . S
C432 C435 1.386 . S
H433 C449 0.930 . S
H434 C450 0.931 . S
C435 H423 0.929 . S
C435 C429 1.390 . S
C435 C432 1.386 . S
C436 C431 1.490 . S
C436 C438 1.395 . S
C436 C439 1.403 . S
H437 C443 0.930 . S
C438 H424 0.930 . S
C438 C436 1.395 . S
C438 C441 1.403 . S
C439 C436 1.403 . S
C439 C440 1.524 . S
C439 C443 1.400 . S
C440 H425 0.960 . S
C440 H426 0.960 . S
C440 H427 0.960 . S
C440 C439 1.524 . S
C441 C438 1.403 . S
C441 C442 1.392 . S
C441 C445 1.495 . S
C442 C441 1.392 . S
C442 C443 1.385 . S
C442 C444 1.478 . S
C443 H437 0.930 . S
C443 C439 1.400 . S
C443 C442 1.385 . S
C444 C442 1.478 . S
C444 C446 1.381 . S
C444 C450 1.383 . S
C445 C441 1.495 . S
C445 H451 0.959 . S
C445 H452 0.961 . S
C445 H453 0.960 . S
C446 C444 1.381 . S
C446 C447 1.394 . S
C446 H454 0.930 . S
C447 C446 1.394 . S
C447 C448 1.383 . S
C447 H455 0.929 . S
C448 C447 1.383 . S
C448 C449 1.377 . S
C449 H433 0.930 . S
C449 C448 1.377 . S
C449 C450 1.379 . S
C450 H434 0.931 . S
C450 C444 1.383 . S
C450 C449 1.379 . S
H451 C445 0.959 . S
H452 C445 0.961 . S
H453 C445 0.960 . S
H454 C446 0.930 . S
H455 C447 0.929 . S
H456 C464 0.929 . S
H457 C466 0.930 . S
H458 C468 0.930 . S
H459 C471 0.929 . S
H460 C474 0.930 . S
H461 C476 0.960 . S
H462 C476 0.960 . S
H463 C476 0.960 . S
C464 H456 0.929 . S
C464 C465 1.377 . S
C464 C466 1.384 . S
C465 C464 1.377 . S
C465 C471 1.390 . S
C466 H457 0.930 . S
C466 C464 1.384 . S
C466 C467 1.372 . S
C467 C466 1.372 . S
C467 C468 1.400 . S
C467 C472 1.490 . S
C468 H458 0.930 . S
C468 C467 1.400 . S
C468 C471 1.386 . S
H469 C485 0.930 . S
H470 C486 0.931 . S
C471 H459 0.929 . S
C471 C465 1.390 . S
C471 C468 1.386 . S
C472 C467 1.490 . S
C472 C474 1.395 . S
C472 C475 1.403 . S
H473 C479 0.930 . S
C474 H460 0.930 . S
C474 C472 1.395 . S
C474 C477 1.403 . S
C475 C472 1.403 . S
C475 C476 1.524 . S
C475 C479 1.400 . S
C476 H461 0.960 . S
C476 H462 0.960 . S
C476 H463 0.960 . S
C476 C475 1.524 . S
C477 C474 1.403 . S
C477 C478 1.392 . S
C477 C481 1.495 . S
C478 C477 1.392 . S
C478 C479 1.385 . S
C478 C480 1.478 . S
C479 H473 0.930 . S
C479 C475 1.400 . S
C479 C478 1.385 . S
C480 C478 1.478 . S
C480 C482 1.381 . S
C480 C486 1.383 . S
C481 C477 1.495 . S
C481 H487 0.959 . S
C481 H488 0.961 . S
C481 H489 0.960 . S
C482 C480 1.381 . S
C482 C483 1.394 . S
C482 H490 0.930 . S
C483 C482 1.394 . S
C483 C484 1.383 . S
C483 H491 0.929 . S
C484 C483 1.383 . S
C484 C485 1.377 . S
C485 H469 0.930 . S
C485 C484 1.377 . S
C485 C486 1.379 . S
C486 H470 0.931 . S
C486 C480 1.383 . S
C486 C485 1.379 . S
H487 C481 0.959 . S
H488 C481 0.961 . S
H489 C481 0.960 . S
H490 C482 0.930 . S
H491 C483 0.929 . S
H492 C500 0.929 . S
H493 C502 0.930 . S
H494 C504 0.930 . S
H495 C507 0.929 . S
H496 C510 0.930 . S
H497 C512 0.960 . S
H498 C512 0.960 . S
H499 C512 0.960 . S
C500 H492 0.929 . S
C500 C501 1.377 . S
C500 C502 1.384 . S
C501 C500 1.377 . S
C501 C507 1.390 . S
C502 H493 0.930 . S
C502 C500 1.384 . S
C502 C503 1.372 . S
C503 C502 1.372 . S
C503 C504 1.400 . S
C503 C508 1.490 . S
C504 H494 0.930 . S
C504 C503 1.400 . S
C504 C507 1.386 . S
H505 C521 0.930 . S
H506 C522 0.931 . S
C507 H495 0.929 . S
C507 C501 1.390 . S
C507 C504 1.386 . S
C508 C503 1.490 . S
C508 C510 1.395 . S
C508 C511 1.403 . S
H509 C515 0.930 . S
C510 H496 0.930 . S
C510 C508 1.395 . S
C510 C513 1.403 . S
C511 C508 1.403 . S
C511 C512 1.524 . S
C511 C515 1.400 . S
C512 H497 0.960 . S
C512 H498 0.960 . S
C512 H499 0.960 . S
C512 C511 1.524 . S
C513 C510 1.403 . S
C513 C514 1.392 . S
C513 C517 1.495 . S
C514 C513 1.392 . S
C514 C515 1.385 . S
C514 C516 1.478 . S
C515 H509 0.930 . S
C515 C511 1.400 . S
C515 C514 1.385 . S
C516 C514 1.478 . S
C516 C518 1.381 . S
C516 C522 1.383 . S
C517 C513 1.495 . S
C517 H523 0.959 . S
C517 H524 0.961 . S
C517 H525 0.960 . S
C518 C516 1.381 . S
C518 C519 1.394 . S
C518 H526 0.930 . S
C519 C518 1.394 . S
C519 C520 1.383 . S
C519 H527 0.929 . S
C520 C519 1.383 . S
C520 C521 1.377 . S
C521 H505 0.930 . S
C521 C520 1.377 . S
C521 C522 1.379 . S
C522 H506 0.931 . S
C522 C516 1.383 . S
C522 C521 1.379 . S
H523 C517 0.959 . S
H524 C517 0.961 . S
H525 C517 0.960 . S
H526 C518 0.930 . S
H527 C519 0.929 . S
H528 C536 0.929 . S
H529 C538 0.930 . S
H530 C540 0.930 . S
H531 C543 0.929 . S
H532 C546 0.930 . S
H533 C548 0.960 1_556 S
H534 C548 0.960 . S
H535 C548 0.960 1_556 S
C536 H528 0.929 . S
C536 C537 1.377 . S
C536 C538 1.384 . S
C537 C536 1.377 . S
C537 C543 1.390 . S
C538 H529 0.930 . S
C538 C536 1.384 . S
C538 C539 1.372 . S
C539 C538 1.372 . S
C539 C540 1.400 . S
C539 C544 1.490 . S
C540 H530 0.930 . S
C540 C539 1.400 . S
C540 C543 1.386 . S
H541 C557 0.930 . S
H542 C558 0.931 . S
C543 H531 0.929 . S
C543 C537 1.390 . S
C543 C540 1.386 . S
C544 C539 1.490 . S
C544 C546 1.395 . S
C544 C547 1.403 . S
H545 C551 0.930 . S
C546 H532 0.930 . S
C546 C544 1.395 . S
C546 C549 1.403 . S
C547 C544 1.403 . S
C547 C548 1.524 . S
C547 C551 1.400 . S
C548 H533 0.960 1_554 S
C548 H534 0.960 . S
C548 H535 0.960 1_554 S
C548 C547 1.524 . S
C549 C546 1.403 . S
C549 C550 1.392 . S
C549 C553 1.495 . S
C550 C549 1.392 . S
C550 C551 1.385 . S
C550 C552 1.478 . S
C551 H545 0.930 . S
C551 C547 1.400 . S
C551 C550 1.385 . S
C552 C550 1.478 . S
C552 C554 1.381 . S
C552 C558 1.383 . S
C553 C549 1.495 . S
C553 H559 0.959 . S
C553 H560 0.961 . S
C553 H561 0.960 . S
C554 C552 1.381 . S
C554 C555 1.394 . S
C554 H562 0.930 . S
C555 C554 1.394 . S
C555 C556 1.383 . S
C555 H563 0.929 . S
C556 C555 1.383 . S
C556 C557 1.377 . S
C557 H541 0.930 . S
C557 C556 1.377 . S
C557 C558 1.379 . S
C558 H542 0.931 . S
C558 C552 1.383 . S
C558 C557 1.379 . S
H559 C553 0.959 . S
H560 C553 0.961 . S
H561 C553 0.960 . S
H562 C554 0.930 . S
H563 C555 0.929 . S
H564 C572 0.929 . S
H565 C574 0.930 . S
H566 C576 0.930 . S
H567 C579 0.929 . S
H568 C582 0.930 . S
H569 C584 0.960 . S
H570 C584 0.960 . S
H571 C584 0.960 . S
C572 H564 0.929 . S
C572 C573 1.377 . S
C572 C574 1.384 . S
C573 C572 1.377 . S
C573 C579 1.390 . S
C574 H565 0.930 . S
C574 C572 1.384 . S
C574 C575 1.372 . S
C575 C574 1.372 . S
C575 C576 1.400 . S
C575 C580 1.490 . S
C576 H566 0.930 . S
C576 C575 1.400 . S
C576 C579 1.386 . S
H577 C593 0.930 . S
H578 C594 0.931 . S
C579 H567 0.929 . S
C579 C573 1.390 . S
C579 C576 1.386 . S
C580 C575 1.490 . S
C580 C582 1.395 . S
C580 C583 1.403 . S
H581 C587 0.930 . S
C582 H568 0.930 . S
C582 C580 1.395 . S
C582 C585 1.403 . S
C583 C580 1.403 . S
C583 C584 1.524 . S
C583 C587 1.400 . S
C584 H569 0.960 . S
C584 H570 0.960 . S
C584 H571 0.960 . S
C584 C583 1.524 . S
C585 C582 1.403 . S
C585 C586 1.392 . S
C585 C589 1.495 . S
C586 C585 1.392 . S
C586 C587 1.385 . S
C586 C588 1.478 . S
C587 H581 0.930 . S
C587 C583 1.400 . S
C587 C586 1.385 . S
C588 C586 1.478 . S
C588 C590 1.381 . S
C588 C594 1.383 . S
C589 C585 1.495 . S
C589 H595 0.959 . S
C589 H596 0.961 . S
C589 H597 0.960 . S
C590 C588 1.381 . S
C590 C591 1.394 . S
C590 H598 0.930 . S
C591 C590 1.394 . S
C591 C592 1.383 . S
C591 H599 0.929 . S
C592 C591 1.383 . S
C592 C593 1.377 . S
C593 H577 0.930 . S
C593 C592 1.377 . S
C593 C594 1.379 . S
C594 H578 0.931 . S
C594 C588 1.383 . S
C594 C593 1.379 . S
H595 C589 0.959 . S
H596 C589 0.961 . S
H597 C589 0.960 . S
H598 C590 0.930 . S
H599 C591 0.929 . S
H600 C608 0.929 . S
H601 C610 0.930 . S
H602 C612 0.930 . S
H603 C615 0.929 . S
H604 C618 0.930 . S
H605 C620 0.960 . S
H606 C620 0.960 . S
H607 C620 0.960 . S
C608 H600 0.929 . S
C608 C609 1.377 . S
C608 C610 1.384 . S
C609 C608 1.377 . S
C609 C615 1.390 . S
C610 H601 0.930 . S
C610 C608 1.384 . S
C610 C611 1.372 . S
C611 C610 1.372 . S
C611 C612 1.400 . S
C611 C616 1.490 . S
C612 H602 0.930 . S
C612 C611 1.400 . S
C612 C615 1.386 . S
H613 C629 0.930 . S
H614 C630 0.931 . S
C615 H603 0.929 . S
C615 C609 1.390 . S
C615 C612 1.386 . S
C616 C611 1.490 . S
C616 C618 1.395 . S
C616 C619 1.403 . S
H617 C623 0.930 . S
C618 H604 0.930 . S
C618 C616 1.395 . S
C618 C621 1.403 . S
C619 C616 1.403 . S
C619 C620 1.524 . S
C619 C623 1.400 . S
C620 H605 0.960 . S
C620 H606 0.960 . S
C620 H607 0.960 . S
C620 C619 1.524 . S
C621 C618 1.403 . S
C621 C622 1.392 . S
C621 C625 1.495 . S
C622 C621 1.392 . S
C622 C623 1.385 . S
C622 C624 1.478 . S
C623 H617 0.930 . S
C623 C619 1.400 . S
C623 C622 1.385 . S
C624 C622 1.478 . S
C624 C626 1.381 . S
C624 C630 1.383 . S
C625 C621 1.495 . S
C625 H631 0.959 . S
C625 H632 0.961 . S
C625 H633 0.960 . S
C626 C624 1.381 . S
C626 C627 1.394 . S
C626 H634 0.930 . S
C627 C626 1.394 . S
C627 C628 1.383 . S
C627 H635 0.929 . S
C628 C627 1.383 . S
C628 C629 1.377 . S
C629 H613 0.930 . S
C629 C628 1.377 . S
C629 C630 1.379 . S
C630 H614 0.931 . S
C630 C624 1.383 . S
C630 C629 1.379 . S
H631 C625 0.959 . S
H632 C625 0.961 . S
H633 C625 0.960 . S
H634 C626 0.930 . S
H635 C627 0.929 . S
H636 C644 0.929 . S
H637 C646 0.930 . S
H638 C648 0.930 . S
H639 C651 0.929 1_554 S
H640 C654 0.930 . S
H641 C656 0.960 . S
H642 C656 0.960 . S
H643 C656 0.960 . S
C644 H636 0.929 . S
C644 C645 1.377 . S
C644 C646 1.384 . S
C645 C644 1.377 . S
C645 C651 1.390 . S
C646 H637 0.930 . S
C646 C644 1.384 . S
C646 C647 1.372 . S
C647 C646 1.372 . S
C647 C648 1.400 . S
C647 C652 1.490 . S
C648 H638 0.930 . S
C648 C647 1.400 . S
C648 C651 1.386 . S
H649 C665 0.930 . S
H650 C666 0.931 . S
C651 H639 0.929 1_556 S
C651 C645 1.390 . S
C651 C648 1.386 . S
C652 C647 1.490 . S
C652 C654 1.395 . S
C652 C655 1.403 1_655 S
H653 C659 0.930 . S
C654 H640 0.930 . S
C654 C652 1.395 . S
C654 C657 1.403 . S
C655 C652 1.403 1_455 S
C655 C656 1.524 . S
C655 C659 1.400 . S
C656 H641 0.960 . S
C656 H642 0.960 . S
C656 H643 0.960 . S
C656 C655 1.524 . S
C657 C654 1.403 . S
C657 C658 1.392 1_655 S
C657 C661 1.495 . S
C658 C657 1.392 1_455 S
C658 C659 1.385 . S
C658 C660 1.478 . S
C659 H653 0.930 . S
C659 C655 1.400 . S
C659 C658 1.385 . S
C660 C658 1.478 . S
C660 C662 1.381 . S
C660 C666 1.383 . S
C661 C657 1.495 . S
C661 H667 0.959 . S
C661 H668 0.961 . S
C661 H669 0.960 . S
C662 C660 1.381 . S
C662 C663 1.394 . S
C662 H670 0.930 . S
C663 C662 1.394 . S
C663 C664 1.383 . S
C663 H671 0.929 . S
C664 C663 1.383 . S
C664 C665 1.377 . S
C665 H649 0.930 . S
C665 C664 1.377 . S
C665 C666 1.379 . S
C666 H650 0.931 . S
C666 C660 1.383 . S
C666 C665 1.379 . S
H667 C661 0.959 . S
H668 C661 0.961 . S
H669 C661 0.960 . S
H670 C662 0.930 . S
H671 C663 0.929 . S
H672 C680 0.929 . S
H673 C682 0.930 . S
H674 C684 0.930 . S
H675 C687 0.929 . S
H676 C690 0.930 . S
H677 C692 0.960 . S
H678 C692 0.960 . S
H679 C692 0.960 1_554 S
C680 H672 0.929 . S
C680 C681 1.377 . S
C680 C682 1.384 . S
C681 C680 1.377 . S
C681 C687 1.390 . S
C682 H673 0.930 . S
C682 C680 1.384 . S
C682 C683 1.372 . S
C683 C682 1.372 . S
C683 C684 1.400 . S
C683 C688 1.490 . S
C684 H674 0.930 . S
C684 C683 1.400 . S
C684 C687 1.386 . S
H685 C701 0.930 . S
H686 C702 0.931 . S
C687 H675 0.929 . S
C687 C681 1.390 . S
C687 C684 1.386 . S
C688 C683 1.490 . S
C688 C690 1.395 1_565 S
C688 C691 1.403 1_554 S
H689 C695 0.924 1_565 S
C690 H676 0.930 . S
C690 C688 1.395 1_545 S
C690 C693 1.403 . S
C691 C688 1.403 1_556 S
C691 C692 1.524 . S
C691 C695 1.400 1_565 S
C692 H677 0.960 . S
C692 H678 0.960 . S
C692 H679 0.960 1_556 S
C692 C691 1.524 . S
C693 C690 1.403 . S
C693 C694 1.392 1_554 S
C693 C697 1.495 . S
C694 C693 1.392 1_556 S
C694 C695 1.385 . S
C694 C696 1.478 . S
C695 H689 0.924 1_545 S
C695 C691 1.400 1_545 S
C695 C694 1.385 . S
C696 C694 1.478 . S
C696 C698 1.381 . S
C696 C702 1.383 . S
C697 C693 1.495 . S
C697 H703 0.959 . S
C697 H704 0.961 . S
C697 H705 0.960 1_554 S
C698 C696 1.381 . S
C698 C699 1.394 . S
C698 H706 0.930 . S
C699 C698 1.394 . S
C699 C700 1.383 . S
C699 H707 0.929 . S
C700 C699 1.383 . S
C700 C701 1.377 . S
C701 H685 0.930 . S
C701 C700 1.377 . S
C701 C702 1.379 . S
C702 H686 0.931 . S
C702 C696 1.383 . S
C702 C701 1.379 . S
H703 C697 0.959 . S
H704 C697 0.961 . S
H705 C697 0.960 1_556 S
H706 C698 0.930 . S
H707 C699 0.929 . S
H708 C716 0.929 1_556 S
H709 C718 0.930 . S
H710 C720 0.930 . S
H711 C723 0.929 . S
H712 C726 0.930 . S
H713 C728 0.960 . S
H714 C728 0.960 . S
H715 C728 0.960 . S
C716 H708 0.929 1_554 S
C716 C717 1.377 . S
C716 C718 1.384 . S
C717 C716 1.377 . S
C717 C723 1.390 . S
C718 H709 0.930 . S
C718 C716 1.384 . S
C718 C719 1.372 . S
C719 C718 1.372 . S
C719 C720 1.400 . S
C719 C724 1.490 . S
C720 H710 0.930 . S
C720 C719 1.400 . S
C720 C723 1.386 . S
H721 C737 0.930 . S
H722 C738 0.931 . S
C723 H711 0.929 . S
C723 C717 1.390 . S
C723 C720 1.386 . S
C724 C719 1.490 . S
C724 C726 1.395 . S
C724 C727 1.403 . S
H725 C731 0.930 . S
C726 H712 0.930 . S
C726 C724 1.395 . S
C726 C729 1.403 . S
C727 C724 1.403 . S
C727 C728 1.524 . S
C727 C731 1.400 . S
C728 H713 0.960 . S
C728 H714 0.960 . S
C728 H715 0.960 . S
C728 C727 1.524 . S
C729 C726 1.403 . S
C729 C730 1.392 . S
C729 C733 1.495 . S
C730 C729 1.392 . S
C730 C731 1.385 . S
C730 C732 1.478 . S
C731 H725 0.930 . S
C731 C727 1.400 . S
C731 C730 1.385 . S
C732 C730 1.478 . S
C732 C734 1.381 . S
C732 C738 1.383 . S
C733 C729 1.495 . S
C733 H739 0.959 . S
C733 H740 0.961 . S
C733 H741 0.960 . S
C734 C732 1.381 . S
C734 C735 1.394 . S
C734 H742 0.930 . S
C735 C734 1.394 . S
C735 C736 1.383 . S
C735 H743 0.929 . S
C736 C735 1.383 . S
C736 C737 1.377 . S
C737 H721 0.930 . S
C737 C736 1.377 . S
C737 C738 1.379 . S
C738 H722 0.931 . S
C738 C732 1.383 . S
C738 C737 1.379 . S
H739 C733 0.959 . S
H740 C733 0.961 . S
H741 C733 0.960 . S
H742 C734 0.930 . S
H743 C735 0.929 . S
H744 C752 0.929 . S
H745 C754 0.930 . S
H746 C756 0.930 . S
H747 C759 0.929 . S
H748 C762 0.930 . S
H749 C764 0.960 . S
H750 C764 0.960 . S
H751 C764 0.960 . S
C752 H744 0.929 . S
C752 C753 1.377 . S
C752 C754 1.384 . S
C753 C752 1.377 . S
C753 C759 1.390 . S
C754 H745 0.930 . S
C754 C752 1.384 . S
C754 C755 1.372 . S
C755 C754 1.372 . S
C755 C756 1.400 . S
C755 C760 1.490 . S
C756 H746 0.930 . S
C756 C755 1.400 . S
C756 C759 1.386 . S
H757 C773 0.930 . S
H758 C774 0.931 . S
C759 H747 0.929 . S
C759 C753 1.390 . S
C759 C756 1.386 . S
C760 C755 1.490 . S
C760 C762 1.395 1_455 S
C760 C763 1.403 . S
H761 C767 0.946 . S
C762 H748 0.930 . S
C762 C760 1.395 1_655 S
C762 C765 1.403 . S
C763 C760 1.403 . S
C763 C764 1.524 . S
C763 C767 1.426 . S
C764 H749 0.960 . S
C764 H750 0.960 . S
C764 H751 0.960 . S
C764 C763 1.524 . S
C765 C762 1.403 . S
C765 C766 1.392 . S
C765 C769 1.495 . S
C766 C765 1.392 . S
C766 C767 1.345 1_655 S
C766 C768 1.478 . S
C767 H761 0.946 . S
C767 C763 1.426 . S
C767 C766 1.345 1_455 S
C768 C766 1.478 . S
C768 C770 1.381 . S
C768 C774 1.383 . S
C769 C765 1.495 . S
C769 H775 0.959 . S
C769 H776 0.961 . S
C769 H777 0.960 . S
C770 C768 1.381 . S
C770 C771 1.394 . S
C770 H778 0.930 . S
C771 C770 1.394 . S
C771 C772 1.383 . S
C771 H779 0.929 . S
C772 C771 1.383 . S
C772 C773 1.377 . S
C773 H757 0.930 . S
C773 C772 1.377 . S
C773 C774 1.379 . S
C774 H758 0.931 . S
C774 C768 1.383 . S
C774 C773 1.379 . S
H775 C769 0.959 . S
H776 C769 0.961 . S
H777 C769 0.960 . S
H778 C770 0.930 . S
H779 C771 0.929 . S
H780 C788 0.929 . S
H781 C790 0.930 . S
H782 C792 0.930 . S
H783 C795 0.929 . S
H784 C798 0.930 . S
H785 C800 0.960 . S
H786 C800 0.960 . S
H787 C800 0.960 . S
C788 H780 0.929 . S
C788 C789 1.377 . S
C788 C790 1.384 . S
C789 C788 1.377 . S
C789 C795 1.390 . S
C790 H781 0.930 . S
C790 C788 1.384 . S
C790 C791 1.372 . S
C791 C790 1.372 . S
C791 C792 1.400 . S
C791 C796 1.490 . S
C792 H782 0.930 . S
C792 C791 1.400 . S
C792 C795 1.386 . S
H793 C809 0.930 . S
H794 C810 0.931 . S
C795 H783 0.929 . S
C795 C789 1.390 . S
C795 C792 1.386 . S
C796 C791 1.490 . S
C796 C798 1.395 1_565 S
C796 C799 1.403 . S
H797 C803 0.930 . S
C798 H784 0.930 . S
C798 C796 1.395 1_545 S
C798 C801 1.403 . S
C799 C796 1.403 . S
C799 C800 1.524 . S
C799 C803 1.400 . S
C800 H785 0.960 . S
C800 H786 0.960 . S
C800 H787 0.960 . S
C800 C799 1.524 . S
C801 C798 1.403 . S
C801 C802 1.392 . S
C801 C805 1.495 . S
C802 C801 1.392 . S
C802 C803 1.385 1_545 S
C802 C804 1.478 . S
C803 H797 0.930 . S
C803 C799 1.400 . S
C803 C802 1.385 1_565 S
C804 C802 1.478 . S
C804 C806 1.381 . S
C804 C810 1.383 . S
C805 C801 1.495 . S
C805 H811 0.959 . S
C805 H812 0.961 . S
C805 H813 0.960 . S
C806 C804 1.381 . S
C806 C807 1.394 . S
C806 H814 0.930 . S
C807 C806 1.394 . S
C807 C808 1.383 . S
C807 H815 0.929 . S
C808 C807 1.383 . S
C808 C809 1.377 . S
C809 H793 0.930 . S
C809 C808 1.377 . S
C809 C810 1.379 . S
C810 H794 0.931 . S
C810 C804 1.383 . S
C810 C809 1.379 . S
H811 C805 0.959 . S
H812 C805 0.961 . S
H813 C805 0.960 . S
H814 C806 0.930 . S
H815 C807 0.929 . S
H816 C824 0.929 . S
H817 C826 0.930 . S
H818 C828 0.930 . S
H819 C831 0.929 . S
H820 C834 0.930 . S
H821 C836 0.960 . S
H822 C836 0.960 . S
H823 C836 0.960 . S
C824 H816 0.929 . S
C824 C825 1.377 . S
C824 C826 1.384 . S
C825 C824 1.377 . S
C825 C831 1.390 . S
C826 H817 0.930 . S
C826 C824 1.384 . S
C826 C827 1.372 . S
C827 C826 1.372 . S
C827 C828 1.400 . S
C827 C832 1.490 . S
C828 H818 0.930 . S
C828 C827 1.400 . S
C828 C831 1.386 . S
H829 C845 0.930 . S
H830 C846 0.931 . S
C831 H819 0.929 . S
C831 C825 1.390 . S
C831 C828 1.386 . S
C832 C827 1.490 . S
C832 C834 1.395 . S
C832 C835 1.403 . S
H833 C839 0.930 . S
C834 H820 0.930 . S
C834 C832 1.395 . S
C834 C837 1.403 . S
C835 C832 1.403 . S
C835 C836 1.524 . S
C835 C839 1.400 . S
C836 H821 0.960 . S
C836 H822 0.960 . S
C836 H823 0.960 . S
C836 C835 1.524 . S
C837 C834 1.403 . S
C837 C838 1.392 . S
C837 C841 1.495 . S
C838 C837 1.392 . S
C838 C839 1.385 . S
C838 C840 1.478 . S
C839 H833 0.930 . S
C839 C835 1.400 . S
C839 C838 1.385 . S
C840 C838 1.478 . S
C840 C842 1.381 . S
C840 C846 1.383 . S
C841 C837 1.495 . S
C841 H847 0.959 . S
C841 H848 0.961 . S
C841 H849 0.960 . S
C842 C840 1.381 . S
C842 C843 1.394 . S
C842 H850 0.930 . S
C843 C842 1.394 . S
C843 C844 1.383 . S
C843 H851 0.929 . S
C844 C843 1.383 . S
C844 C845 1.377 . S
C845 H829 0.930 . S
C845 C844 1.377 . S
C845 C846 1.379 . S
C846 H830 0.931 . S
C846 C840 1.383 . S
C846 C845 1.379 . S
H847 C841 0.959 . S
H848 C841 0.961 . S
H849 C841 0.960 . S
H850 C842 0.930 . S
H851 C843 0.929 . S
H852 C860 0.929 . S
H853 C862 0.930 . S
H854 C864 0.930 . S
H855 C867 0.929 . S
H856 C870 0.930 . S
H857 C872 0.960 . S
H858 C872 0.960 . S
H859 C872 0.960 . S
C860 H852 0.929 . S
C860 C861 1.377 . S
C860 C862 1.384 . S
C861 C860 1.377 . S
C861 C867 1.390 . S
C862 H853 0.930 . S
C862 C860 1.384 . S
C862 C863 1.372 . S
C863 C862 1.372 . S
C863 C864 1.400 . S
C863 C868 1.490 . S
C864 H854 0.930 . S
C864 C863 1.400 . S
C864 C867 1.386 . S
H865 C881 0.930 . S
H866 C882 0.931 . S
C867 H855 0.929 . S
C867 C861 1.390 . S
C867 C864 1.386 . S
C868 C863 1.490 . S
C868 C870 1.395 . S
C868 C871 1.403 . S
H869 C875 0.930 . S
C870 H856 0.930 . S
C870 C868 1.395 . S
C870 C873 1.403 . S
C871 C868 1.403 . S
C871 C872 1.524 . S
C871 C875 1.400 . S
C872 H857 0.960 . S
C872 H858 0.960 . S
C872 H859 0.960 . S
C872 C871 1.524 . S
C873 C870 1.403 . S
C873 C874 1.392 . S
C873 C877 1.495 . S
C874 C873 1.392 . S
C874 C875 1.385 . S
C874 C876 1.478 . S
C875 H869 0.930 . S
C875 C871 1.400 . S
C875 C874 1.385 . S
C876 C874 1.478 . S
C876 C878 1.381 . S
C876 C882 1.383 . S
C877 C873 1.495 . S
C877 H883 0.959 . S
C877 H884 0.961 . S
C877 H885 0.960 . S
C878 C876 1.381 . S
C878 C879 1.394 . S
C878 H886 0.930 . S
C879 C878 1.394 . S
C879 C880 1.383 . S
C879 H887 0.929 . S
C880 C879 1.383 . S
C880 C881 1.377 . S
C881 H865 0.930 . S
C881 C880 1.377 . S
C881 C882 1.379 . S
C882 H866 0.931 . S
C882 C876 1.383 . S
C882 C881 1.379 . S
H883 C877 0.959 . S
H884 C877 0.961 . S
H885 C877 0.960 . S
H886 C878 0.930 . S
H887 C879 0.929 . S
H888 C896 0.929 . S
H889 C898 0.930 . S
H890 C900 0.930 . S
H891 C903 0.929 . S
H892 C906 0.930 . S
H893 C908 0.960 . S
H894 C908 0.960 . S
H895 C908 0.960 . S
C896 H888 0.929 . S
C896 C897 1.377 1_556 S
C896 C898 1.384 . S
C897 C896 1.377 1_554 S
C897 C903 1.390 . S
C898 H889 0.930 . S
C898 C896 1.384 . S
C898 C899 1.372 . S
C899 C898 1.372 . S
C899 C900 1.400 1_556 S
C899 C904 1.490 . S
C900 H890 0.930 . S
C900 C899 1.400 1_554 S
C900 C903 1.386 . S
H901 C917 0.930 . S
H902 C918 0.931 . S
C903 H891 0.929 . S
C903 C897 1.390 . S
C903 C900 1.386 . S
C904 C899 1.490 . S
C904 C906 1.395 . S
C904 C907 1.403 . S
H905 C911 0.930 . S
C906 H892 0.930 . S
C906 C904 1.395 . S
C906 C909 1.403 . S
C907 C904 1.403 . S
C907 C908 1.524 . S
C907 C911 1.400 . S
C908 H893 0.960 . S
C908 H894 0.960 . S
C908 H895 0.960 . S
C908 C907 1.524 . S
C909 C906 1.403 . S
C909 C910 1.392 . S
C909 C913 1.495 . S
C910 C909 1.392 . S
C910 C911 1.385 . S
C910 C912 1.478 . S
C911 H905 0.930 . S
C911 C907 1.400 . S
C911 C910 1.385 . S
C912 C910 1.478 . S
C912 C914 1.381 . S
C912 C918 1.383 . S
C913 C909 1.495 . S
C913 H919 0.959 . S
C913 H920 0.961 . S
C913 H921 0.960 . S
C914 C912 1.381 . S
C914 C915 1.394 . S
C914 H922 0.930 . S
C915 C914 1.394 . S
C915 C916 1.383 . S
C915 H923 0.929 . S
C916 C915 1.383 . S
C916 C917 1.377 . S
C917 H901 0.930 . S
C917 C916 1.377 . S
C917 C918 1.379 . S
C918 H902 0.931 . S
C918 C912 1.383 . S
C918 C917 1.379 . S
H919 C913 0.959 . S
H920 C913 0.961 . S
H921 C913 0.960 . S
H922 C914 0.930 . S
H923 C915 0.929 . S
H924 C932 0.929 . S
H925 C934 0.930 . S
H926 C936 0.930 . S
H927 C939 0.929 . S
H928 C942 0.930 . S
H929 C944 0.960 . S
H930 C944 0.960 . S
H931 C944 0.960 . S
C932 H924 0.929 . S
C932 C933 1.377 . S
C932 C934 1.384 . S
C933 C932 1.377 . S
C933 C939 1.390 . S
C934 H925 0.930 . S
C934 C932 1.384 . S
C934 C935 1.372 . S
C935 C934 1.372 . S
C935 C936 1.400 . S
C935 C940 1.490 . S
C936 H926 0.930 . S
C936 C935 1.400 . S
C936 C939 1.386 . S
H937 C953 0.930 . S
H938 C954 0.931 . S
C939 H927 0.929 . S
C939 C933 1.390 . S
C939 C936 1.386 . S
C940 C935 1.490 . S
C940 C942 1.395 . S
C940 C943 1.403 . S
H941 C947 0.930 . S
C942 H928 0.930 . S
C942 C940 1.395 . S
C942 C945 1.403 . S
C943 C940 1.403 . S
C943 C944 1.524 . S
C943 C947 1.400 . S
C944 H929 0.960 . S
C944 H930 0.960 . S
C944 H931 0.960 . S
C944 C943 1.524 . S
C945 C942 1.403 . S
C945 C946 1.392 . S
C945 C949 1.495 . S
C946 C945 1.392 . S
C946 C947 1.385 . S
C946 C948 1.478 . S
C947 H941 0.930 . S
C947 C943 1.400 . S
C947 C946 1.385 . S
C948 C946 1.478 . S
C948 C950 1.381 . S
C948 C954 1.383 1_554 S
C949 C945 1.495 . S
C949 H955 0.959 . S
C949 H956 0.961 . S
C949 H957 0.960 . S
C950 C948 1.381 . S
C950 C951 1.394 . S
C950 H958 0.930 . S
C951 C950 1.394 . S
C951 C952 1.383 1_554 S
C951 H959 0.929 . S
C952 C951 1.383 1_556 S
C952 C953 1.377 . S
C953 H937 0.930 . S
C953 C952 1.377 . S
C953 C954 1.379 . S
C954 H938 0.931 . S
C954 C948 1.383 1_556 S
C954 C953 1.379 . S
H955 C949 0.959 . S
H956 C949 0.961 . S
H957 C949 0.960 . S
H958 C950 0.930 . S
H959 C951 0.929 . S
H960 C968 0.929 . S
H961 C970 0.930 . S
H962 C972 0.930 . S
H963 C975 0.929 . S
H964 C978 0.930 . S
H965 C980 0.960 . S
H966 C980 0.960 . S
H967 C980 0.960 . S
C968 H960 0.929 . S
C968 C969 1.377 . S
C968 C970 1.384 . S
C969 C968 1.377 . S
C969 C975 1.390 . S
C970 H961 0.930 . S
C970 C968 1.384 . S
C970 C971 1.372 . S
C971 C970 1.372 . S
C971 C972 1.400 . S
C971 C976 1.490 . S
C972 H962 0.930 . S
C972 C971 1.400 . S
C972 C975 1.386 . S
H973 C989 0.930 . S
H974 C990 0.931 . S
C975 H963 0.929 . S
C975 C969 1.390 . S
C975 C972 1.386 . S
C976 C971 1.490 . S
C976 C978 1.395 . S
C976 C979 1.403 . S
H977 C983 0.930 . S
C978 H964 0.930 . S
C978 C976 1.395 . S
C978 C981 1.403 . S
C979 C976 1.403 . S
C979 C980 1.524 . S
C979 C983 1.400 . S
C980 H965 0.960 . S
C980 H966 0.960 . S
C980 H967 0.960 . S
C980 C979 1.524 . S
C981 C978 1.403 . S
C981 C982 1.392 . S
C981 C985 1.495 . S
C982 C981 1.392 . S
C982 C983 1.385 . S
C982 C984 1.478 . S
C983 H977 0.930 . S
C983 C979 1.400 . S
C983 C982 1.385 . S
C984 C982 1.478 . S
C984 C986 1.381 . S
C984 C990 1.383 . S
C985 C981 1.495 . S
C985 H991 0.959 . S
C985 H992 0.961 . S
C985 H993 0.960 . S
C986 C984 1.381 . S
C986 C987 1.394 . S
C986 H994 0.930 . S
C987 C986 1.394 . S
C987 C988 1.383 . S
C987 H995 0.929 . S
C988 C987 1.383 . S
C988 C989 1.377 . S
C989 H973 0.930 . S
C989 C988 1.377 . S
C989 C990 1.379 . S
C990 H974 0.931 . S
C990 C984 1.383 . S
C990 C989 1.379 . S
H991 C985 0.959 . S
H992 C985 0.961 . S
H993 C985 0.960 . S
H994 C986 0.930 . S
H995 C987 0.929 . S
H996 C1004 0.929 . S
H997 C1006 0.930 . S
H998 C1008 0.930 . S
H999 C1011 0.929 . S
H1000 C1014 0.930 . S
H1001 C1016 0.960 . S
H1002 C1016 0.960 . S
H1003 C1016 0.960 . S
C1004 H996 0.929 . S
C1004 C1005 1.377 . S
C1004 C1006 1.384 . S
C1005 C1004 1.377 . S
C1005 C1011 1.390 . S
C1006 H997 0.930 . S
C1006 C1004 1.384 . S
C1006 C1007 1.372 . S
C1007 C1006 1.372 . S
C1007 C1008 1.400 . S
C1007 C1012 1.490 . S
C1008 H998 0.930 . S
C1008 C1007 1.400 . S
C1008 C1011 1.386 . S
H1009 C1025 0.930 . S
H1010 C1026 0.931 . S
C1011 H999 0.929 . S
C1011 C1005 1.390 . S
C1011 C1008 1.386 . S
C1012 C1007 1.490 . S
C1012 C1014 1.395 . S
C1012 C1015 1.403 . S
H1013 C1019 0.930 . S
C1014 H1000 0.930 . S
C1014 C1012 1.395 . S
C1014 C1017 1.403 . S
C1015 C1012 1.403 . S
C1015 C1016 1.524 . S
C1015 C1019 1.400 . S
C1016 H1001 0.960 . S
C1016 H1002 0.960 . S
C1016 H1003 0.960 . S
C1016 C1015 1.524 . S
C1017 C1014 1.403 . S
C1017 C1018 1.392 . S
C1017 C1021 1.495 . S
C1018 C1017 1.392 . S
C1018 C1019 1.385 . S
C1018 C1020 1.478 . S
C1019 H1013 0.930 . S
C1019 C1015 1.400 . S
C1019 C1018 1.385 . S
C1020 C1018 1.478 . S
C1020 C1022 1.381 . S
C1020 C1026 1.383 . S
C1021 C1017 1.495 . S
C1021 H1027 0.959 . S
C1021 H1028 0.961 . S
C1021 H1029 0.960 . S
C1022 C1020 1.381 . S
C1022 C1023 1.394 . S
C1022 H1030 0.930 . S
C1023 C1022 1.394 . S
C1023 C1024 1.383 . S
C1023 H1031 0.929 . S
C1024 C1023 1.383 . S
C1024 C1025 1.377 . S
C1025 H1009 0.930 . S
C1025 C1024 1.377 . S
C1025 C1026 1.379 . S
C1026 H1010 0.931 . S
C1026 C1020 1.383 . S
C1026 C1025 1.379 . S
H1027 C1021 0.959 . S
H1028 C1021 0.961 . S
H1029 C1021 0.960 . S
H1030 C1022 0.930 . S
H1031 C1023 0.929 . S
C177 C135 1.585 1_554 S
C196 C9 1.600 . S
C213 C23 1.588 . S
C232 C149 1.589 . S
C249 C163 1.579 . S
C268 C37 1.567 . S
C285 C93 1.586 . S
C304 C51 1.602 . S
C321 C107 1.581 . S
C340 C65 1.586 1_556 S
C357 C121 1.588 . S
C376 C79 1.593 . S
C393 C87 1.467 . S
C412 C3 1.464 . S
C429 C17 1.465 . S
C448 C101 1.463 . S
C465 C115 1.467 . S
C484 C31 1.454 . S
C501 C45 1.468 . S
C520 C129 1.458 . S
C537 C143 1.468 . S
C556 C59 1.452 . S
C573 C73 1.465 . S
C592 C157 1.471 . S
C609 C133 1.218 . S
C628 C7 1.179 . S
C645 C147 1.218 1_556 S
C664 C21 1.183 . S
C681 C161 1.212 . S
C700 C35 1.197 . S
C717 C49 1.203 1_554 S
C736 C91 1.243 . S
C753 C105 1.204 . S
C772 C63 1.243 . S
C789 C77 1.208 . S
C808 C119 1.218 . S
C825 C8 1.082 . S
C844 C120 1.083 . S
C861 C134 1.082 . S
C880 C22 1.072 . S
C897 C148 1.083 . S
C916 C36 1.084 . S
C933 C162 1.085 . S
C952 C50 1.083 . S
C969 C92 1.082 . S
C988 C64 1.072 . S
C1005 C106 1.083 . S
C1024 C78 1.082 . S
