# Generated by pormake.
# Topology uoj, (4)-cn, num edge types: 1
# Building blocks:
#     Node 0, Type 0, BuildingBlock: QUQFOY_clean_sbu_1, # of connection points: 4
#     Node 1, Type 0, BuildingBlock: QUQFOY_clean_sbu_1, # of connection points: 4
#     Node 2, Type 0, BuildingBlock: QUQFOY_clean_sbu_1, # of connection points: 4
#     Node 3, Type 0, BuildingBlock: QUQFOY_clean_sbu_1, # of connection points: 4
#     Node 4, Type 0, BuildingBlock: QUQFOY_clean_sbu_1, # of connection points: 4
#     Node 5, Type 0, BuildingBlock: QUQFOY_clean_sbu_1, # of connection points: 4
#     Node 6, Type 0, BuildingBlock: QUQFOY_clean_sbu_1, # of connection points: 4
#     Node 7, Type 0, BuildingBlock: QUQFOY_clean_sbu_1, # of connection points: 4
#     Edge 8, Type (0, 0), BuildingBlock: OJICUG_clean_linker_0, # of connection points: 2
#     Edge 9, Type (0, 0), BuildingBlock: OJICUG_clean_linker_0, # of connection points: 2
#     Edge 10, Type (0, 0), BuildingBlock: OJICUG_clean_linker_0, # of connection points: 2
#     Edge 11, Type (0, 0), BuildingBlock: OJICUG_clean_linker_0, # of connection points: 2
#     Edge 12, Type (0, 0), BuildingBlock: OJICUG_clean_linker_0, # of connection points: 2
#     Edge 13, Type (0, 0), BuildingBlock: OJICUG_clean_linker_0, # of connection points: 2
#     Edge 14, Type (0, 0), BuildingBlock: OJICUG_clean_linker_0, # of connection points: 2
#     Edge 15, Type (0, 0), BuildingBlock: OJICUG_clean_linker_0, # of connection points: 2
#     Edge 16, Type (0, 0), BuildingBlock: OJICUG_clean_linker_0, # of connection points: 2
#     Edge 17, Type (0, 0), BuildingBlock: OJICUG_clean_linker_0, # of connection points: 2
#     Edge 18, Type (0, 0), BuildingBlock: OJICUG_clean_linker_0, # of connection points: 2
#     Edge 19, Type (0, 0), BuildingBlock: OJICUG_clean_linker_0, # of connection points: 2
#     Edge 20, Type (0, 0), BuildingBlock: OJICUG_clean_linker_0, # of connection points: 2
#     Edge 21, Type (0, 0), BuildingBlock: OJICUG_clean_linker_0, # of connection points: 2
#     Edge 22, Type (0, 0), BuildingBlock: OJICUG_clean_linker_0, # of connection points: 2
#     Edge 23, Type (0, 0), BuildingBlock: OJICUG_clean_linker_0, # of connection points: 2
# Relax obj value: 0.061
# Max RMSD: 0.092
# Mean RMSD: 0.092
data_MOF--net-uoj--node1-QUQFOY_clean_sbu_1--edge1-OJICUG_clean_linker_0
_symmetry_space_group_name_H-M    P1
_symmetry_Int_Tables_number       1
_symmetry_cell_setting            triclinic
loop_
_symmetry_equiv_pos_as_xyz
'x, y, z'
_cell_length_a     24.937092
_cell_length_b     24.930282
_cell_length_c     28.65234
_cell_angle_alpha  90.0168
_cell_angle_beta   90.166558
_cell_angle_gamma 90.146258
loop_
_atom_site_label
_atom_site_type_symbol
_atom_site_fract_x
_atom_site_fract_y
_atom_site_fract_z
_atom_type_partial_charge
O0 O 0.95708 0.2266 0.56156 0.0
Cd1 Cd 0.03133 0.25965 0.5611 0.0
Cd2 Cd 0.01348 0.25294 0.47034 0.0
O3 O 0.95488 0.19723 0.489 0.0
O4 O 0.06921 0.2322 0.61739 0.0
O5 O 0.09158 0.21288 0.54414 0.0
C6 C 0.09831 0.20525 0.58844 0.0
C7 C 0.07511 0.25117 0.40897 0.0
C8 C 0.93404 0.2 0.52953 0.0
C9 C 0.00636 0.36005 0.51875 0.0
O10 O -0.00771 0.33041 0.48476 0.0
O11 O 0.03136 0.34068 0.55353 0.0
O12 O 0.02416 0.25224 0.40102 0.0
O13 O 0.09095 0.24535 0.45162 0.0
O14 O 0.23135 -0.01121 0.60019 0.0
Cd15 Cd 0.25859 0.91261 0.59394 0.0
Cd16 Cd 0.25961 0.92434 0.68849 0.0
O17 O 0.20902 -0.01102 0.67473 0.0
O18 O 0.2223 0.88006 0.53933 0.0
O19 O 0.21028 0.85412 0.61301 0.0
C20 C 0.1973 0.85045 0.5693 0.0
C21 C 0.26882 0.87952 0.76017 0.0
C22 C 0.20986 0.0118 0.63489 0.0
C23 C 0.36287 0.92356 0.62921 0.0
O24 O 0.33652 0.93501 0.66564 0.0
O25 O 0.33951 0.90603 0.59297 0.0
O26 O 0.27705 0.93025 0.7561 0.0
O27 O 0.24787 0.85481 0.72494 0.0
O28 O -0.01661 0.70808 0.55547 0.0
Cd29 Cd 0.90833 0.67738 0.55716 0.0
Cd30 Cd 0.92212 0.68211 0.46657 0.0
O31 O -0.01989 0.73927 0.4836 0.0
O32 O 0.87379 0.70728 0.6138 0.0
O33 O 0.85 0.72678 0.54079 0.0
C34 C 0.84548 0.73563 0.58513 0.0
C35 C 0.85999 0.68262 0.40527 0.0
C36 C 0.00371 0.73597 0.52303 0.0
C37 C 0.92996 0.5761 0.51648 0.0
O38 O 0.94416 0.60499 0.48211 0.0
O39 O 0.90525 0.5964 0.55087 0.0
O40 O 0.91087 0.68155 0.39735 0.0
O41 O 0.84436 0.68878 0.44788 0.0
O42 O 0.71324 0.9539 0.6074 0.0
Cd43 Cd 0.68097 0.02821 0.60797 0.0
Cd44 Cd 0.68179 0.00654 0.6968 0.0
O45 O 0.74081 0.95063 0.68041 0.0
O46 O 0.71086 0.06435 0.55207 0.0
O47 O 0.72872 0.08811 0.62537 0.0
C48 C 0.73819 0.09317 0.58119 0.0
C49 C 0.67631 0.06738 0.75885 0.0
C50 C 0.73928 0.93053 0.63949 0.0
C51 C 0.57917 -0.00239 0.64147 0.0
O52 O 0.6071 -0.01812 0.676 0.0
O53 O 0.59961 0.02742 0.61027 0.0
O54 O 0.67638 0.01629 0.76613 0.0
O55 O 0.68461 0.08408 0.71678 0.0
O56 O 0.49145 0.73265 1.06896 0.0
Cd57 Cd 0.41529 0.75937 1.07663 0.0
Cd58 Cd 0.42449 0.75961 0.98139 0.0
O59 O 0.48981 0.70972 0.99446 0.0
O60 O 0.3835 0.72232 0.13107 0.0
O61 O 0.35701 0.71079 1.05737 0.0
C62 C 0.35384 0.69733 0.10097 0.0
C63 C 0.37935 0.76889 0.90975 0.0
C64 C 0.51368 0.7111 1.03389 0.0
C65 C 0.42448 0.86337 1.04074 0.0
O66 O 0.43481 0.8366 1.00424 0.0
O67 O 0.40832 0.84037 1.07753 0.0
O68 O 0.43002 0.77745 0.91389 0.0
O69 O 0.35493 0.74751 0.9448 0.0
O70 O 0.72782 0.45852 0.1031 0.0
Cd71 Cd 0.76173 0.53237 0.10439 0.0
Cd72 Cd 0.75432 0.51439 0.19511 0.0
O73 O 0.69795 0.45671 0.17542 0.0
O74 O 0.7347 0.57116 1.04846 0.0
O75 O 0.71547 0.59274 0.12193 0.0
C76 C 0.70792 0.60005 1.0777 0.0
C77 C 0.75243 0.57574 0.25686 0.0
C78 C 0.70048 0.43597 0.13478 0.0
C79 C 0.86172 0.50699 0.14767 0.0
O80 O 0.83182 0.4928 0.18132 0.0
O81 O 0.84263 0.532 0.1128 0.0
O82 O 0.75298 0.52473 0.26448 0.0
O83 O 0.74722 0.59185 0.21426 0.0
O84 O 0.45151 0.21273 1.05614 0.0
Cd85 Cd 0.5267 0.1825 1.05608 0.0
Cd86 Cd 0.50491 0.18117 0.96735 0.0
O87 O 0.44764 0.23918 0.98291 0.0
O88 O 0.56232 0.21415 0.1117 0.0
O89 O 0.58557 0.23126 1.03827 0.0
C90 C 0.59068 0.24143 1.08237 0.0
C91 C 0.56542 0.17614 0.90514 0.0
C92 C 0.42742 0.2375 1.02371 0.0
C93 C 0.49812 0.07947 1.0242 0.0
O94 O 0.48192 0.10636 0.98923 0.0
O95 O 0.52772 0.1011 1.05507 0.0
O96 O 0.5143 0.17464 0.89806 0.0
O97 O 0.58221 0.18557 0.94707 0.0
O98 O 0.21237 0.48265 0.1136 0.0
Cd99 Cd 0.17957 0.40841 0.11151 0.0
Cd100 Cd 0.18385 0.4229 0.20226 0.0
O101 O 0.24176 0.48037 0.18613 0.0
O102 O 0.20702 0.37507 1.05338 0.0
O103 O 0.22711 0.34753 0.12523 0.0
C104 C 0.23471 0.34441 1.08063 0.0
C105 C 0.18358 0.35978 0.2626 0.0
C106 C 0.23969 0.50326 0.14638 0.0
C107 C 0.07827 0.43213 0.1517 0.0
O108 O 0.10699 0.44583 0.18645 0.0
O109 O 0.09858 0.40737 0.11734 0.0
O110 O 0.18296 0.41056 0.27129 0.0
O111 O 0.18974 0.34477 0.21978 0.0
C112 C 0.12944 0.28124 0.28887 0.0
C113 C 0.16743 0.32129 0.29931 0.0
H114 H 0.06948 0.22767 0.31584 0.0
C115 C 0.18111 0.3307 0.34619 0.0
H116 H 0.11759 0.27368 0.25305 0.0
C117 C 0.15487 0.30299 0.38205 0.0
C118 C 0.11304 0.2669 0.37171 0.0
H119 H 0.20993 0.36164 0.35518 0.0
H120 H 0.16398 0.31349 0.41791 0.0
C121 C 0.10177 0.25499 0.32477 0.0
C122 C 0.34107 0.87097 0.81899 0.0
C123 C 0.29348 0.85022 0.79983 0.0
H124 H 0.40561 0.86069 0.86695 0.0
C125 C 0.27407 0.80064 0.81636 0.0
H126 H 0.35776 0.90853 0.80661 0.0
C127 C 0.30143 0.77326 0.85234 0.0
C128 C 0.34976 0.79399 0.8705 0.0
H129 H 0.23775 0.78346 0.80184 0.0
H130 H 0.28535 0.73581 0.86544 0.0
C131 C 0.36909 0.84301 0.8532 0.0
C132 C 0.78132 0.62938 0.37762 0.0
C133 C 0.82195 0.66694 0.36792 0.0
H134 H 0.7275 0.57009 0.34961 0.0
C135 C 0.83223 0.68063 0.32126 0.0
H136 H 0.77308 0.61753 0.41327 0.0
C137 C 0.80477 0.65479 0.28489 0.0
C138 C 0.76806 0.61336 0.29452 0.0
H139 H 0.86362 0.70912 0.31285 0.0
H140 H 0.81591 0.66387 0.24922 0.0
C141 C 0.75532 0.60209 0.34122 0.0
C142 C 0.59191 0.17033 0.82094 0.0
C143 C 0.60262 0.15853 0.86797 0.0
H144 H 0.60905 0.15221 0.74932 0.0
C145 C 0.64377 0.12202 0.87867 0.0
H146 H 0.5601 0.19793 0.81174 0.0
C147 C 0.67044 0.09441 0.84299 0.0
C148 C 0.65794 0.10437 0.79596 0.0
H149 H 0.65234 0.11157 0.91462 0.0
H150 H 0.69909 0.06355 0.8522 0.0
C151 C 0.62006 0.14426 0.78526 0.0
C152 C 0.15209 0.0896 0.65976 0.0
C153 C 0.18622 0.06536 0.62711 0.0
H154 H 0.09758 0.1542 0.67327 0.0
C155 C 0.19652 0.09189 0.58469 0.0
H156 H 0.14383 0.07038 0.69287 0.0
C157 C 0.17051 0.13943 0.57363 0.0
C158 C 0.1337 0.1619 0.60476 0.0
H159 H 0.22354 0.07507 0.55905 0.0
H160 H 0.17764 0.15741 0.53978 0.0
C161 C 0.12599 0.1377 0.64864 0.0
C162 C 0.12753 0.78248 0.5872 0.0
C163 C 0.15147 0.81696 0.55479 0.0
H164 H 0.06255 0.73026 0.60258 0.0
C165 C 0.128 0.82291 0.51033 0.0
H166 H 0.14469 0.7769 0.62164 0.0
C167 C 0.08011 0.79626 0.49926 0.0
C168 C 0.05524 0.76325 0.5325 0.0
H169 H 0.14557 0.84951 0.48467 0.0
H170 H 0.06216 0.80228 0.46521 0.0
C171 C 0.08011 0.75593 0.57621 0.0
C172 C 0.75795 0.85773 0.5827 0.0
C173 C 0.76493 0.87884 0.62792 0.0
H174 H 0.7766 0.79567 0.53436 0.0
C175 C 0.79504 0.84962 0.66063 0.0
H176 H 0.73445 0.8786 0.55659 0.0
C177 C 0.81923 0.80116 0.64761 0.0
C178 C 0.81353 0.78141 0.60178 0.0
H179 H 0.80063 0.86455 0.69581 0.0
H180 H 0.84383 0.78022 0.6729 0.0
C181 C 0.78184 0.80974 0.56987 0.0
C182 C 0.80471 0.11978 0.51984 0.0
C183 C 0.78392 0.12584 0.56519 0.0
H184 H 0.86919 0.13797 0.47279 0.0
C185 C 0.81139 0.15822 0.59728 0.0
H186 H 0.78448 0.09468 0.49441 0.0
C187 C 0.85968 0.1823 0.58514 0.0
C188 C 0.8819 0.17469 0.5405 0.0
H189 H 0.79645 0.16375 0.63243 0.0
H190 H 0.87997 0.20631 0.61132 0.0
C191 C 0.85343 0.14404 0.50757 0.0
C192 C 0.26077 0.57897 0.09303 0.0
C193 C 0.26734 0.55461 0.137 0.0
H194 H 0.28198 0.64328 1.04766 0.0
C195 C 0.29964 0.58002 0.17062 0.0
H196 H 0.23568 0.56099 1.06632 0.0
C197 C 0.32618 0.62801 0.15975 0.0
C198 C 0.32077 0.65109 0.11512 0.0
H199 H 0.3051 0.56249 0.20488 0.0
H200 H 0.35215 0.64607 0.18576 0.0
C201 C 0.28711 0.6265 1.08226 0.0
C202 C 0.64301 0.67285 0.09304 0.0
C203 C 0.66463 0.63569 1.06175 0.0
H204 H 0.579 0.72599 0.10844 0.0
C205 C 0.63941 0.62758 1.01828 0.0
H206 H 0.66182 0.68027 0.12658 0.0
C207 C 0.59103 0.65353 1.00785 0.0
C208 C 0.56757 0.68789 1.04077 0.0
H209 H 0.65526 0.59887 0.99355 0.0
H210 H 0.57095 0.64487 0.97513 0.0
C211 C 0.5952 0.69875 1.08265 0.0
C212 C 0.6439 0.35583 0.15638 0.0
C213 C 0.67385 0.38457 0.1233 0.0
H214 H 0.59455 0.28695 0.16956 0.0
C215 C 0.67959 0.36322 1.07809 0.0
H216 H 0.6392 0.37095 0.19157 0.0
C217 C 0.65471 0.31533 1.0657 0.0
C218 C 0.62336 0.2874 0.09812 0.0
H219 H 0.70285 0.38383 1.05171 0.0
H220 H 0.65897 0.30097 1.03021 0.0
C221 C 0.61884 0.30753 0.14387 0.0
C222 C 0.35141 0.25009 1.07831 0.0
C223 C 0.37502 0.2618 1.03488 0.0
H224 H 0.28813 0.26598 0.12615 0.0
C225 C 0.34831 0.2964 1.00401 0.0
H226 H 0.37015 0.22271 0.10271 0.0
C227 C 0.30036 0.32109 1.01763 0.0
C228 C 0.27871 0.31137 1.06221 0.0
H229 H 0.36522 0.30568 0.97018 0.0
H230 H 0.28171 0.34959 0.99417 0.0
C231 C 0.30397 0.27457 0.09177 0.0
C232 C 0.95805 0.49344 0.4756 0.0
C233 C 0.9471 0.52007 0.51761 0.0
H234 H -0.01397 0.42172 0.44324 0.0
C235 C 0.95723 0.49436 0.5603 0.0
H236 H 0.95078 0.51263 0.44225 0.0
C237 C -0.02135 0.44275 0.56087 0.0
C238 C -0.01088 0.41606 0.51876 0.0
H239 H 0.94975 0.51454 0.59313 0.0
H240 H -0.01412 0.42334 0.59412 0.0
C241 C -0.02152 0.44169 0.47617 0.0
C242 C 0.497 -0.02119 0.59381 0.0
C243 C 0.52413 -0.02249 0.63686 0.0
H244 H 0.42401 0.96064 0.5571 0.0
C245 C 0.4994 0.95379 0.67565 0.0
H246 H 0.51565 -0.00384 0.56322 0.0
C247 C 0.44786 0.93334 0.67201 0.0
C248 C 0.42012 0.93584 0.62948 0.0
H249 H 0.51949 0.95177 0.70919 0.0
H250 H 0.42908 0.91677 0.70292 0.0
C251 C 0.44521 0.95769 0.59006 0.0
C252 C 0.48098 -0.00183 1.07331 0.0
C253 C 0.47828 0.02445 1.02995 0.0
H254 H 0.46398 0.92592 0.11133 0.0
C255 C 0.45312 -0.00101 0.99208 0.0
H256 H 0.49943 0.01739 0.10324 0.0
C257 C 0.4326 0.94762 0.99688 0.0
C258 C 0.43655 0.92068 1.03967 0.0
H259 H 0.44995 0.01839 0.95835 0.0
H260 H 0.41489 0.92829 0.96661 0.0
C261 C 0.45987 0.94649 1.07822 0.0
C262 C -0.00317 0.4592 0.10732 0.0
C263 C 0.02229 0.44939 0.15021 0.0
H264 H 0.92581 0.48701 1.07291 0.0
C265 C -0.00474 0.46016 0.192 0.0
H266 H 0.0173 0.45183 1.07465 0.0
C267 C 0.94326 0.47996 0.19101 0.0
C268 C 0.91785 0.49019 0.1482 0.0
H269 H 0.01426 0.45311 0.2255 0.0
H270 H 0.92294 0.48735 0.22376 0.0
C271 C 0.94501 0.48003 0.10632 0.0
loop_
_geom_bond_atom_site_label_1
_geom_bond_atom_site_label_2
_geom_bond_distance
_geom_bond_site_symmetry_2
_ccdc_geom_bond_type
O0 Cd1 2.223 . S
O0 C8 1.315 . S
Cd1 O0 2.223 . S
Cd1 O4 2.297 . S
Cd1 O5 2.439 . S
Cd1 O11 2.240 . S
Cd2 O3 2.240 . S
Cd2 O10 2.223 . S
Cd2 O12 2.297 . S
Cd2 O13 2.439 . S
O3 Cd2 2.240 . S
O3 C8 1.279 . S
O4 Cd1 2.297 . S
O4 C6 1.247 . S
O5 Cd1 2.439 . S
O5 C6 1.208 . S
C6 O4 1.247 . S
C6 O5 1.208 . S
C7 O12 1.247 . S
C7 O13 1.208 . S
C8 O0 1.315 . S
C8 O3 1.279 . S
C9 O10 1.315 . S
C9 O11 1.279 . S
O10 Cd2 2.223 . S
O10 C9 1.315 . S
O11 Cd1 2.240 . S
O11 C9 1.279 . S
O12 Cd2 2.297 . S
O12 C7 1.247 . S
O13 Cd2 2.439 . S
O13 C7 1.208 . S
O14 Cd15 2.223 . S
O14 C22 1.315 . S
Cd15 O14 2.223 . S
Cd15 O18 2.297 . S
Cd15 O19 2.439 . S
Cd15 O25 2.240 . S
Cd16 O17 2.240 . S
Cd16 O24 2.223 . S
Cd16 O26 2.297 . S
Cd16 O27 2.439 . S
O17 Cd16 2.240 . S
O17 C22 1.279 . S
O18 Cd15 2.297 . S
O18 C20 1.247 . S
O19 Cd15 2.439 . S
O19 C20 1.208 . S
C20 O18 1.247 . S
C20 O19 1.208 . S
C21 O26 1.247 . S
C21 O27 1.208 . S
C22 O14 1.315 . S
C22 O17 1.279 . S
C23 O24 1.315 . S
C23 O25 1.279 . S
O24 Cd16 2.223 . S
O24 C23 1.315 . S
O25 Cd15 2.240 . S
O25 C23 1.279 . S
O26 Cd16 2.297 . S
O26 C21 1.247 . S
O27 Cd16 2.439 . S
O27 C21 1.208 . S
O28 Cd29 2.223 . S
O28 C36 1.315 . S
Cd29 O28 2.223 . S
Cd29 O32 2.297 . S
Cd29 O33 2.439 . S
Cd29 O39 2.240 . S
Cd30 O31 2.240 . S
Cd30 O38 2.223 . S
Cd30 O40 2.297 . S
Cd30 O41 2.439 . S
O31 Cd30 2.240 . S
O31 C36 1.279 . S
O32 Cd29 2.297 . S
O32 C34 1.247 . S
O33 Cd29 2.439 . S
O33 C34 1.208 . S
C34 O32 1.247 . S
C34 O33 1.208 . S
C35 O40 1.247 . S
C35 O41 1.208 . S
C36 O28 1.315 . S
C36 O31 1.279 . S
C37 O38 1.315 . S
C37 O39 1.279 . S
O38 Cd30 2.223 . S
O38 C37 1.315 . S
O39 Cd29 2.240 . S
O39 C37 1.279 . S
O40 Cd30 2.297 . S
O40 C35 1.247 . S
O41 Cd30 2.439 . S
O41 C35 1.208 . S
O42 Cd43 2.223 . S
O42 C50 1.315 . S
Cd43 O42 2.223 . S
Cd43 O46 2.297 . S
Cd43 O47 2.439 . S
Cd43 O53 2.240 . S
Cd44 O45 2.240 . S
Cd44 O52 2.223 . S
Cd44 O54 2.297 . S
Cd44 O55 2.439 . S
O45 Cd44 2.240 . S
O45 C50 1.279 . S
O46 Cd43 2.297 . S
O46 C48 1.247 . S
O47 Cd43 2.439 . S
O47 C48 1.208 . S
C48 O46 1.247 . S
C48 O47 1.208 . S
C49 O54 1.247 . S
C49 O55 1.208 . S
C50 O42 1.315 . S
C50 O45 1.279 . S
C51 O52 1.315 . S
C51 O53 1.279 . S
O52 Cd44 2.223 . S
O52 C51 1.315 . S
O53 Cd43 2.240 . S
O53 C51 1.279 . S
O54 Cd44 2.297 . S
O54 C49 1.247 . S
O55 Cd44 2.439 . S
O55 C49 1.208 . S
O56 Cd57 2.223 1_554 S
O56 C64 1.315 1_554 S
Cd57 O56 2.223 1_556 S
Cd57 O60 2.297 1_556 S
Cd57 O61 2.439 . S
Cd57 O67 2.240 . S
Cd58 O59 2.240 . S
Cd58 O66 2.223 . S
Cd58 O68 2.297 . S
Cd58 O69 2.439 . S
O59 Cd58 2.240 . S
O59 C64 1.279 . S
O60 Cd57 2.297 1_554 S
O60 C62 1.247 1_554 S
O61 Cd57 2.439 . S
O61 C62 1.208 . S
C62 O60 1.247 1_556 S
C62 O61 1.208 . S
C63 O68 1.247 . S
C63 O69 1.208 . S
C64 O56 1.315 1_556 S
C64 O59 1.279 . S
C65 O66 1.315 . S
C65 O67 1.279 . S
O66 Cd58 2.223 . S
O66 C65 1.315 . S
O67 Cd57 2.240 . S
O67 C65 1.279 . S
O68 Cd58 2.297 . S
O68 C63 1.247 . S
O69 Cd58 2.439 . S
O69 C63 1.208 . S
O70 Cd71 2.223 1_556 S
O70 C78 1.315 1_556 S
Cd71 O70 2.223 1_554 S
Cd71 O74 2.297 1_554 S
Cd71 O75 2.439 . S
Cd71 O81 2.240 . S
Cd72 O73 2.240 . S
Cd72 O80 2.223 . S
Cd72 O82 2.297 . S
Cd72 O83 2.439 . S
O73 Cd72 2.240 . S
O73 C78 1.279 . S
O74 Cd71 2.297 1_556 S
O74 C76 1.247 1_556 S
O75 Cd71 2.439 . S
O75 C76 1.208 . S
C76 O74 1.247 1_554 S
C76 O75 1.208 . S
C77 O82 1.247 . S
C77 O83 1.208 . S
C78 O70 1.315 1_554 S
C78 O73 1.279 . S
C79 O80 1.315 . S
C79 O81 1.279 . S
O80 Cd72 2.223 . S
O80 C79 1.315 . S
O81 Cd71 2.240 . S
O81 C79 1.279 . S
O82 Cd72 2.297 . S
O82 C77 1.247 . S
O83 Cd72 2.439 . S
O83 C77 1.208 . S
O84 Cd85 2.223 1_554 S
O84 C92 1.315 1_554 S
Cd85 O84 2.223 1_556 S
Cd85 O88 2.297 1_556 S
Cd85 O89 2.439 . S
Cd85 O95 2.240 . S
Cd86 O87 2.240 . S
Cd86 O94 2.223 . S
Cd86 O96 2.297 . S
Cd86 O97 2.439 . S
O87 Cd86 2.240 . S
O87 C92 1.279 . S
O88 Cd85 2.297 1_554 S
O88 C90 1.247 1_554 S
O89 Cd85 2.439 . S
O89 C90 1.208 . S
C90 O88 1.247 1_556 S
C90 O89 1.208 . S
C91 O96 1.247 . S
C91 O97 1.208 . S
C92 O84 1.315 1_556 S
C92 O87 1.279 . S
C93 O94 1.315 . S
C93 O95 1.279 . S
O94 Cd86 2.223 . S
O94 C93 1.315 . S
O95 Cd85 2.240 . S
O95 C93 1.279 . S
O96 Cd86 2.297 . S
O96 C91 1.247 . S
O97 Cd86 2.439 . S
O97 C91 1.208 . S
O98 Cd99 2.223 1_556 S
O98 C106 1.315 1_556 S
Cd99 O98 2.223 1_554 S
Cd99 O102 2.297 1_554 S
Cd99 O103 2.439 . S
Cd99 O109 2.240 . S
Cd100 O101 2.240 . S
Cd100 O108 2.223 . S
Cd100 O110 2.297 . S
Cd100 O111 2.439 . S
O101 Cd100 2.240 . S
O101 C106 1.279 . S
O102 Cd99 2.297 1_556 S
O102 C104 1.247 1_556 S
O103 Cd99 2.439 . S
O103 C104 1.208 . S
C104 O102 1.247 1_554 S
C104 O103 1.208 . S
C105 O110 1.247 . S
C105 O111 1.208 . S
C106 O98 1.315 1_554 S
C106 O101 1.279 . S
C107 O108 1.315 . S
C107 O109 1.279 . S
O108 Cd100 2.223 . S
O108 C107 1.315 . S
O109 Cd99 2.240 . S
O109 C107 1.279 . S
O110 Cd100 2.297 . S
O110 C105 1.247 . S
O111 Cd100 2.439 . S
O111 C105 1.208 . S
C112 C113 1.387 . S
C112 H116 0.950 . S
C112 C121 1.390 . S
C113 C112 1.387 . S
C113 C115 1.387 . S
H114 C121 0.950 . S
C115 C113 1.387 . S
C115 C117 1.390 . S
C115 H119 0.950 . S
H116 C112 0.950 . S
C117 C115 1.390 . S
C117 C118 1.387 . S
C117 H120 0.950 . S
C118 C117 1.387 . S
C118 C121 1.387 . S
H119 C115 0.950 . S
H120 C117 0.950 . S
C121 C112 1.390 . S
C121 H114 0.950 . S
C121 C118 1.387 . S
C122 C123 1.387 . S
C122 H126 0.950 . S
C122 C131 1.390 . S
C123 C122 1.387 . S
C123 C125 1.387 . S
H124 C131 0.950 . S
C125 C123 1.387 . S
C125 C127 1.390 . S
C125 H129 0.950 . S
H126 C122 0.950 . S
C127 C125 1.390 . S
C127 C128 1.387 . S
C127 H130 0.950 . S
C128 C127 1.387 . S
C128 C131 1.387 . S
H129 C125 0.950 . S
H130 C127 0.950 . S
C131 C122 1.390 . S
C131 H124 0.950 . S
C131 C128 1.387 . S
C132 C133 1.387 . S
C132 H136 0.950 . S
C132 C141 1.390 . S
C133 C132 1.387 . S
C133 C135 1.387 . S
H134 C141 0.950 . S
C135 C133 1.387 . S
C135 C137 1.390 . S
C135 H139 0.950 . S
H136 C132 0.950 . S
C137 C135 1.390 . S
C137 C138 1.387 . S
C137 H140 0.950 . S
C138 C137 1.387 . S
C138 C141 1.387 . S
H139 C135 0.950 . S
H140 C137 0.950 . S
C141 C132 1.390 . S
C141 H134 0.950 . S
C141 C138 1.387 . S
C142 C143 1.387 . S
C142 H146 0.950 . S
C142 C151 1.390 . S
C143 C142 1.387 . S
C143 C145 1.387 . S
H144 C151 0.950 . S
C145 C143 1.387 . S
C145 C147 1.390 . S
C145 H149 0.950 . S
H146 C142 0.950 . S
C147 C145 1.390 . S
C147 C148 1.387 . S
C147 H150 0.950 . S
C148 C147 1.387 . S
C148 C151 1.387 . S
H149 C145 0.950 . S
H150 C147 0.950 . S
C151 C142 1.390 . S
C151 H144 0.950 . S
C151 C148 1.387 . S
C152 C153 1.387 . S
C152 H156 0.950 . S
C152 C161 1.390 . S
C153 C152 1.387 . S
C153 C155 1.387 . S
H154 C161 0.950 . S
C155 C153 1.387 . S
C155 C157 1.390 . S
C155 H159 0.950 . S
H156 C152 0.950 . S
C157 C155 1.390 . S
C157 C158 1.387 . S
C157 H160 0.950 . S
C158 C157 1.387 . S
C158 C161 1.387 . S
H159 C155 0.950 . S
H160 C157 0.950 . S
C161 C152 1.390 . S
C161 H154 0.950 . S
C161 C158 1.387 . S
C162 C163 1.387 . S
C162 H166 0.950 . S
C162 C171 1.390 . S
C163 C162 1.387 . S
C163 C165 1.387 . S
H164 C171 0.950 . S
C165 C163 1.387 . S
C165 C167 1.390 . S
C165 H169 0.950 . S
H166 C162 0.950 . S
C167 C165 1.390 . S
C167 C168 1.387 . S
C167 H170 0.950 . S
C168 C167 1.387 . S
C168 C171 1.387 . S
H169 C165 0.950 . S
H170 C167 0.950 . S
C171 C162 1.390 . S
C171 H164 0.950 . S
C171 C168 1.387 . S
C172 C173 1.387 . S
C172 H176 0.950 . S
C172 C181 1.390 . S
C173 C172 1.387 . S
C173 C175 1.387 . S
H174 C181 0.950 . S
C175 C173 1.387 . S
C175 C177 1.390 . S
C175 H179 0.950 . S
H176 C172 0.950 . S
C177 C175 1.390 . S
C177 C178 1.387 . S
C177 H180 0.950 . S
C178 C177 1.387 . S
C178 C181 1.387 . S
H179 C175 0.950 . S
H180 C177 0.950 . S
C181 C172 1.390 . S
C181 H174 0.950 . S
C181 C178 1.387 . S
C182 C183 1.387 . S
C182 H186 0.950 . S
C182 C191 1.390 . S
C183 C182 1.387 . S
C183 C185 1.387 . S
H184 C191 0.950 . S
C185 C183 1.387 . S
C185 C187 1.390 . S
C185 H189 0.950 . S
H186 C182 0.950 . S
C187 C185 1.390 . S
C187 C188 1.387 . S
C187 H190 0.950 . S
C188 C187 1.387 . S
C188 C191 1.387 . S
H189 C185 0.950 . S
H190 C187 0.950 . S
C191 C182 1.390 . S
C191 H184 0.950 . S
C191 C188 1.387 . S
C192 C193 1.383 1_556 S
C192 H196 0.951 . S
C192 C201 1.393 . S
C193 C192 1.383 1_554 S
C193 C195 1.387 . S
H194 C201 0.950 . S
C195 C193 1.387 . S
C195 C197 1.390 . S
C195 H199 0.950 . S
H196 C192 0.951 . S
C197 C195 1.390 . S
C197 C198 1.387 1_554 S
C197 H200 0.950 . S
C198 C197 1.387 1_556 S
C198 C201 1.387 . S
H199 C195 0.950 . S
H200 C197 0.950 . S
C201 C192 1.393 . S
C201 H194 0.950 . S
C201 C198 1.387 . S
C202 C203 1.387 . S
C202 H206 0.950 . S
C202 C211 1.390 . S
C203 C202 1.387 . S
C203 C205 1.387 1_554 S
H204 C211 0.950 . S
C205 C203 1.387 1_556 S
C205 C207 1.390 . S
C205 H209 0.950 . S
H206 C202 0.950 . S
C207 C205 1.390 . S
C207 C208 1.387 . S
C207 H210 0.950 . S
C208 C207 1.387 . S
C208 C211 1.387 1_556 S
H209 C205 0.950 . S
H210 C207 0.950 . S
C211 C202 1.390 . S
C211 H204 0.950 . S
C211 C208 1.387 1_554 S
C212 C213 1.387 . S
C212 H216 0.950 . S
C212 C221 1.390 . S
C213 C212 1.387 . S
C213 C215 1.387 1_554 S
H214 C221 0.950 . S
C215 C213 1.387 1_556 S
C215 C217 1.390 . S
C215 H219 0.950 . S
H216 C212 0.950 . S
C217 C215 1.390 . S
C217 C218 1.387 . S
C217 H220 0.950 . S
C218 C217 1.387 . S
C218 C221 1.387 1_556 S
H219 C215 0.950 . S
H220 C217 0.950 . S
C221 C212 1.390 . S
C221 H214 0.950 . S
C221 C218 1.387 1_554 S
C222 C223 1.387 1_554 S
C222 H226 0.950 . S
C222 C231 1.390 . S
C223 C222 1.387 1_556 S
C223 C225 1.387 . S
H224 C231 0.950 . S
C225 C223 1.387 . S
C225 C227 1.390 . S
C225 H229 0.950 . S
H226 C222 0.950 . S
C227 C225 1.390 . S
C227 C228 1.387 1_556 S
C227 H230 0.950 . S
C228 C227 1.387 1_554 S
C228 C231 1.387 . S
H229 C225 0.950 . S
H230 C227 0.950 . S
C231 C222 1.390 . S
C231 H224 0.950 . S
C231 C228 1.387 . S
C232 C233 1.387 . S
C232 H236 0.950 . S
C232 C241 1.390 1_655 S
C233 C232 1.387 . S
C233 C235 1.387 . S
H234 C241 0.950 . S
C235 C233 1.387 . S
C235 C237 1.390 1_655 S
C235 H239 0.950 . S
H236 C232 0.950 . S
C237 C235 1.390 1_455 S
C237 C238 1.387 . S
C237 H240 0.950 . S
C238 C237 1.387 . S
C238 C241 1.387 . S
H239 C235 0.950 . S
H240 C237 0.950 . S
C241 C232 1.390 1_455 S
C241 H234 0.950 . S
C241 C238 1.387 . S
C242 C243 1.387 . S
C242 H246 0.950 . S
C242 C251 1.390 1_545 S
C243 C242 1.387 . S
C243 C245 1.387 . S
H244 C251 0.950 . S
C245 C243 1.387 . S
C245 C247 1.390 1_545 S
C245 H249 0.950 . S
H246 C242 0.950 . S
C247 C245 1.390 1_565 S
C247 C248 1.387 . S
C247 H250 0.950 . S
C248 C247 1.387 . S
C248 C251 1.387 . S
H249 C245 0.950 . S
H250 C247 0.950 . S
C251 C242 1.390 1_565 S
C251 H244 0.950 . S
C251 C248 1.387 . S
C252 C253 1.387 . S
C252 H256 0.950 1_556 S
C252 C261 1.390 1_545 S
C253 C252 1.387 . S
C253 C255 1.387 . S
H254 C261 0.950 1_554 S
C255 C253 1.387 . S
C255 C257 1.390 1_545 S
C255 H259 0.950 . S
H256 C252 0.950 1_554 S
C257 C255 1.390 1_565 S
C257 C258 1.387 . S
C257 H260 0.950 . S
C258 C257 1.387 . S
C258 C261 1.387 . S
H259 C255 0.950 . S
H260 C257 0.950 . S
C261 C252 1.390 1_565 S
C261 H254 0.950 1_556 S
C261 C258 1.387 . S
C262 C263 1.387 . S
C262 H266 0.950 1_554 S
C262 C271 1.390 1_455 S
C263 C262 1.387 . S
C263 C265 1.387 . S
H264 C271 0.950 1_556 S
C265 C263 1.387 . S
C265 C267 1.390 1_455 S
C265 H269 0.950 . S
H266 C262 0.950 1_556 S
C267 C265 1.390 1_655 S
C267 C268 1.387 . S
C267 H270 0.950 . S
C268 C267 1.387 . S
C268 C271 1.387 . S
H269 C265 0.950 . S
H270 C267 0.950 . S
C271 C262 1.390 1_655 S
C271 H264 0.950 1_554 S
C271 C268 1.387 . S
C113 C105 1.543 . S
C118 C7 1.545 . S
C123 C21 1.545 . S
C128 C63 1.544 . S
C133 C35 1.542 . S
C138 C77 1.544 . S
C143 C91 1.542 . S
C148 C49 1.544 . S
C153 C22 1.559 1_545 S
C158 C6 1.541 . S
C163 C20 1.540 . S
C168 C36 1.559 1_455 S
C173 C50 1.559 1_565 S
C178 C34 1.539 . S
C183 C48 1.539 . S
C188 C8 1.559 1_655 S
C193 C106 1.559 . S
C198 C62 1.540 . S
C203 C76 1.539 . S
C208 C64 1.559 . S
C213 C78 1.559 . S
C218 C90 1.539 . S
C223 C92 1.559 . S
C228 C104 1.539 . S
C233 C37 1.354 . S
C238 C9 1.354 . S
C243 C51 1.354 . S
C248 C23 1.354 . S
C253 C93 1.354 . S
C258 C65 1.354 . S
C263 C107 1.350 . S
C268 C79 1.350 . S
