# Generated by pormake.
# Topology uol, (4)-cn, num edge types: 1
# Building blocks:
#     Node 0, Type 0, BuildingBlock: GALJAG_clean_sbu_0, # of connection points: 4
#     Node 1, Type 0, BuildingBlock: GALJAG_clean_sbu_0, # of connection points: 4
#     Node 2, Type 0, BuildingBlock: GALJAG_clean_sbu_0, # of connection points: 4
#     Node 3, Type 0, BuildingBlock: GALJAG_clean_sbu_0, # of connection points: 4
#     Node 4, Type 0, BuildingBlock: GALJAG_clean_sbu_0, # of connection points: 4
#     Node 5, Type 0, BuildingBlock: GALJAG_clean_sbu_0, # of connection points: 4
#     Node 6, Type 0, BuildingBlock: GALJAG_clean_sbu_0, # of connection points: 4
#     Node 7, Type 0, BuildingBlock: GALJAG_clean_sbu_0, # of connection points: 4
#     Node 8, Type 0, BuildingBlock: GALJAG_clean_sbu_0, # of connection points: 4
#     Node 9, Type 0, BuildingBlock: GALJAG_clean_sbu_0, # of connection points: 4
#     Node 10, Type 0, BuildingBlock: GALJAG_clean_sbu_0, # of connection points: 4
#     Node 11, Type 0, BuildingBlock: GALJAG_clean_sbu_0, # of connection points: 4
#     Edge 12, Type (0, 0), BuildingBlock: EYOCIG_clean_linker_4, # of connection points: 2
#     Edge 13, Type (0, 0), BuildingBlock: EYOCIG_clean_linker_4, # of connection points: 2
#     Edge 14, Type (0, 0), BuildingBlock: EYOCIG_clean_linker_4, # of connection points: 2
#     Edge 15, Type (0, 0), BuildingBlock: EYOCIG_clean_linker_4, # of connection points: 2
#     Edge 16, Type (0, 0), BuildingBlock: EYOCIG_clean_linker_4, # of connection points: 2
#     Edge 17, Type (0, 0), BuildingBlock: EYOCIG_clean_linker_4, # of connection points: 2
#     Edge 18, Type (0, 0), BuildingBlock: EYOCIG_clean_linker_4, # of connection points: 2
#     Edge 19, Type (0, 0), BuildingBlock: EYOCIG_clean_linker_4, # of connection points: 2
#     Edge 20, Type (0, 0), BuildingBlock: EYOCIG_clean_linker_4, # of connection points: 2
#     Edge 21, Type (0, 0), BuildingBlock: EYOCIG_clean_linker_4, # of connection points: 2
#     Edge 22, Type (0, 0), BuildingBlock: EYOCIG_clean_linker_4, # of connection points: 2
#     Edge 23, Type (0, 0), BuildingBlock: EYOCIG_clean_linker_4, # of connection points: 2
#     Edge 24, Type (0, 0), BuildingBlock: EYOCIG_clean_linker_4, # of connection points: 2
#     Edge 25, Type (0, 0), BuildingBlock: EYOCIG_clean_linker_4, # of connection points: 2
#     Edge 26, Type (0, 0), BuildingBlock: EYOCIG_clean_linker_4, # of connection points: 2
#     Edge 27, Type (0, 0), BuildingBlock: EYOCIG_clean_linker_4, # of connection points: 2
#     Edge 28, Type (0, 0), BuildingBlock: EYOCIG_clean_linker_4, # of connection points: 2
#     Edge 29, Type (0, 0), BuildingBlock: EYOCIG_clean_linker_4, # of connection points: 2
#     Edge 30, Type (0, 0), BuildingBlock: EYOCIG_clean_linker_4, # of connection points: 2
#     Edge 31, Type (0, 0), BuildingBlock: EYOCIG_clean_linker_4, # of connection points: 2
#     Edge 32, Type (0, 0), BuildingBlock: EYOCIG_clean_linker_4, # of connection points: 2
#     Edge 33, Type (0, 0), BuildingBlock: EYOCIG_clean_linker_4, # of connection points: 2
#     Edge 34, Type (0, 0), BuildingBlock: EYOCIG_clean_linker_4, # of connection points: 2
#     Edge 35, Type (0, 0), BuildingBlock: EYOCIG_clean_linker_4, # of connection points: 2
# Relax obj value: 0.121
# Max RMSD: 0.117
# Mean RMSD: 0.117
data_MOF--net-uol--node1-GALJAG_clean_sbu_0--edge1-EYOCIG_clean_linker_4
_symmetry_space_group_name_H-M    P1
_symmetry_Int_Tables_number       1
_symmetry_cell_setting            triclinic
loop_
_symmetry_equiv_pos_as_xyz
'x, y, z'
_cell_length_a     28.07386
_cell_length_b     28.083164
_cell_length_c     47.102127
_cell_angle_alpha  90.079124
_cell_angle_beta   89.924023
_cell_angle_gamma 120.00704
loop_
_atom_site_label
_atom_site_type_symbol
_atom_site_fract_x
_atom_site_fract_y
_atom_site_fract_z
_atom_type_partial_charge
In0 In 0.15723 0.36614 0.10415 0.0
O1 O 0.06462 0.30763 0.11164 0.0
O2 O 0.11023 0.36418 0.14462 0.0
C3 C 0.19551 0.33723 0.05795 0.0
C4 C 0.1651 0.46164 0.09265 0.0
C5 C 0.21615 0.33968 0.1362 0.0
O6 O 0.1458 0.3094 0.06597 0.0
O7 O 0.22409 0.38115 0.0716 0.0
O8 O 0.23075 0.38953 0.13192 0.0
O9 O 0.17083 0.30393 0.12586 0.0
C10 C 0.06419 0.32593 0.1362 0.0
O11 O 0.19687 0.45776 0.11025 0.0
O12 O 0.13141 0.41811 0.07984 0.0
In13 In 0.7781 0.16357 0.27082 0.0
O14 O 0.74338 0.07067 0.27815 0.0
O15 O 0.7333 0.11655 0.31129 0.0
C16 C 0.84595 0.20255 0.22492 0.0
C17 C 0.69079 0.17272 0.2605 0.0
C18 C 0.8629 0.22195 0.30331 0.0
O19 O 0.82405 0.15274 0.23268 0.0
O20 O 0.82998 0.2307 0.23849 0.0
O21 O 0.82778 0.23662 0.29883 0.0
O22 O 0.85377 0.17696 0.2927 0.0
C23 C 0.72503 0.07038 0.3028 0.0
O24 O 0.72747 0.20438 0.27771 0.0
O25 O 0.69963 0.13873 0.24724 0.0
In26 In 0.60172 0.7847 0.43773 0.0
O27 O 0.65925 0.74885 0.4447 0.0
O28 O 0.60409 0.73976 0.47805 0.0
C29 C 0.63058 0.85254 0.39178 0.0
C30 C 0.50507 0.69743 0.42733 0.0
C31 C 0.62601 0.86978 0.46993 0.0
O32 O 0.6589 0.8312 0.39974 0.0
O33 O 0.58617 0.83599 0.40516 0.0
O34 O 0.57665 0.83349 0.46544 0.0
O35 O 0.66279 0.86131 0.4599 0.0
C36 C 0.64114 0.73042 0.46932 0.0
O37 O 0.51025 0.73405 0.44463 0.0
O38 O 0.54781 0.70629 0.41398 0.0
In39 In 0.80395 0.60805 0.60421 0.0
O40 O 0.76501 0.51657 0.61052 0.0
O41 O 0.82976 0.556 0.57971 0.0
C42 C 0.74453 0.63277 0.63714 0.0
C43 C 0.89816 0.64951 0.63552 0.0
C44 C 0.76291 0.63507 0.55852 0.0
O45 O 0.731 0.5833 0.63255 0.0
O46 O 0.78908 0.66936 0.62643 0.0
O47 O 0.81274 0.66409 0.56614 0.0
O48 O 0.73574 0.59102 0.57224 0.0
C49 C 0.79646 0.51257 0.59271 0.0
O50 O 0.89688 0.66717 0.61093 0.0
O51 O 0.85239 0.61141 0.64435 0.0
In52 In 0.18281 0.81034 0.77094 0.0
O53 O 0.21869 0.90369 0.77777 0.0
O54 O 0.22784 0.85809 0.81124 0.0
C55 C 0.11592 0.77241 0.72453 0.0
C56 C 0.26991 0.80039 0.76077 0.0
C57 C 0.09798 0.74964 0.80337 0.0
O58 O 0.13739 0.82193 0.73277 0.0
O59 O 0.13159 0.74401 0.73802 0.0
O60 O 0.13419 0.73658 0.79864 0.0
O61 O 0.10615 0.79467 0.79325 0.0
C62 C 0.23716 0.90434 0.80239 0.0
O63 O 0.23302 0.76909 0.77797 0.0
O64 O 0.26145 0.83448 0.74745 0.0
In65 In 0.35971 0.18949 0.93748 0.0
O66 O 0.30097 0.22382 0.9441 0.0
O67 O 0.35625 0.23448 0.97765 0.0
C68 C 0.33277 0.12149 0.89175 0.0
C69 C 0.45654 0.27618 0.92659 0.0
C70 C 0.3331 0.10472 0.97003 0.0
O71 O 0.30393 0.1426 0.89923 0.0
O72 O 0.37667 0.13817 0.90557 0.0
O73 O 0.38291 0.14015 0.96583 0.0
O74 O 0.29727 0.11363 0.95923 0.0
C75 C 0.31834 0.24237 0.96879 0.0
O76 O 0.45107 0.2402 0.94436 0.0
O77 O 0.41371 0.26749 0.91341 0.0
In78 In 0.60159 0.81025 0.73513 0.0
O79 O 0.51008 0.77117 0.72882 0.0
O80 O 0.54953 0.83614 0.75952 0.0
C81 C 0.62676 0.74995 0.70317 0.0
C82 C 0.64287 0.9041 0.70358 0.0
C83 C 0.62857 0.77049 0.78147 0.0
O84 O 0.57716 0.73653 0.70732 0.0
O85 O 0.6631 0.7952 0.71334 0.0
O86 O 0.65736 0.82015 0.77358 0.0
O87 O 0.58487 0.74269 0.76755 0.0
C88 C 0.50607 0.80268 0.74658 0.0
O89 O 0.66078 0.90301 0.72812 0.0
O90 O 0.6046 0.8583 0.69489 0.0
In91 In 0.77819 0.60836 0.90166 0.0
O92 O 0.74273 0.66642 0.89551 0.0
O93 O 0.7328 0.61198 0.86168 0.0
C94 C 0.84592 0.63742 0.94769 0.0
C95 C 0.69173 0.51106 0.91253 0.0
C96 C 0.86313 0.63218 0.86925 0.0
O97 O 0.82445 0.66555 0.93964 0.0
O98 O 0.82977 0.59317 0.93426 0.0
O99 O 0.82663 0.58294 0.87376 0.0
O100 O 0.855 0.66908 0.87939 0.0
C101 C 0.72393 0.64907 0.87088 0.0
O102 O 0.72784 0.51683 0.89474 0.0
O103 O 0.70026 0.55375 0.9258 0.0
In104 In 0.15724 0.78451 0.06845 0.0
O105 O 0.06425 0.75001 0.06148 0.0
O106 O 0.10961 0.73989 0.02806 0.0
C107 C 0.19715 0.85264 0.11423 0.0
C108 C 0.16675 0.69733 0.07858 0.0
C109 C 0.21583 0.86984 0.03636 0.0
O110 O 0.14723 0.83098 0.10663 0.0
O111 O 0.22482 0.83615 0.10063 0.0
O112 O 0.2304 0.83456 0.04052 0.0
O113 O 0.17054 0.86025 0.04678 0.0
C114 C 0.06359 0.73175 0.03677 0.0
O115 O 0.1981 0.73402 0.06129 0.0
O116 O 0.13275 0.70599 0.09197 0.0
In117 In 0.35987 0.16382 0.23523 0.0
O118 O 0.45135 0.2029 0.2289 0.0
O119 O 0.41162 0.1377 0.25945 0.0
C120 C 0.33324 0.22204 0.20279 0.0
C121 C 0.31956 0.07037 0.20343 0.0
C122 C 0.33301 0.20395 0.28145 0.0
O123 O 0.3831 0.23661 0.20706 0.0
O124 O 0.29742 0.17721 0.21357 0.0
O125 O 0.30416 0.15419 0.27366 0.0
O126 O 0.37671 0.23163 0.26748 0.0
C127 C 0.45511 0.17107 0.2465 0.0
O128 O 0.30176 0.07093 0.22812 0.0
O129 O 0.35721 0.11649 0.19473 0.0
In130 In 0.18328 0.36591 0.40172 0.0
O131 O 0.23548 0.45753 0.39532 0.0
O132 O 0.26072 0.41834 0.42624 0.0
C133 C 0.09793 0.33968 0.36959 0.0
C134 C 0.23734 0.32513 0.37097 0.0
C135 C 0.11523 0.33707 0.44755 0.0
O136 O 0.13348 0.38949 0.37377 0.0
O137 O 0.10741 0.30386 0.37988 0.0
O138 O 0.13684 0.30897 0.43959 0.0
O139 O 0.13143 0.38133 0.43412 0.0
C140 C 0.27089 0.46165 0.41316 0.0
O141 O 0.21863 0.30804 0.39566 0.0
O142 O 0.22841 0.36207 0.36163 0.0
In143 In 0.8038 0.18906 0.56844 0.0
O144 O 0.76291 0.23963 0.56155 0.0
O145 O 0.82855 0.2679 0.59192 0.0
C146 C 0.74317 0.10444 0.5359 0.0
C147 C 0.89741 0.24197 0.53664 0.0
C148 C 0.76585 0.12203 0.61474 0.0
O149 O 0.73 0.14054 0.54072 0.0
O150 O 0.78812 0.11251 0.54608 0.0
O151 O 0.81547 0.14376 0.6066 0.0
O152 O 0.73736 0.13758 0.60125 0.0
C153 C 0.79445 0.2765 0.57868 0.0
O154 O 0.89676 0.22331 0.56121 0.0
O155 O 0.85141 0.23397 0.5281 0.0
C156 C 0.166 0.60413 0.08337 0.0
C157 C 0.16658 0.64685 0.08107 0.0
C158 C 0.16514 0.55415 0.08607 0.0
C159 C 0.16475 0.51162 0.0889 0.0
C160 C 0.59725 0.17122 0.2556 0.0
C161 C 0.64013 0.17216 0.25796 0.0
C162 C 0.54727 0.17035 0.25287 0.0
C163 C 0.5049 0.17031 0.25013 0.0
C164 C 0.41282 0.60396 0.42246 0.0
C165 C 0.45486 0.6468 0.4248 0.0
C166 C 0.36365 0.55399 0.41971 0.0
C167 C 0.32136 0.51157 0.41687 0.0
C168 C 0.79636 0.41995 0.5861 0.0
C169 C 0.79684 0.46255 0.58892 0.0
C170 C 0.79539 0.36987 0.58343 0.0
C171 C 0.79472 0.32707 0.58115 0.0
C172 C 0.4133 0.80221 0.75332 0.0
C173 C 0.45598 0.80286 0.75045 0.0
C174 C 0.36315 0.80108 0.75604 0.0
C175 C 0.32038 0.80047 0.75834 0.0
C176 C 0.55089 0.36712 0.92057 0.0
C177 C 0.50755 0.32569 0.92315 0.0
C178 C 0.60062 0.41671 0.91821 0.0
C179 C 0.64214 0.46002 0.91576 0.0
C180 C 0.29968 0.27984 0.17553 0.0
C181 C 0.31758 0.25523 0.18776 0.0
C182 C 0.27468 0.30538 0.16209 0.0
C183 C 0.24995 0.32385 0.1505 0.0
C184 C 0.95399 0.27986 0.3308 0.0
C185 C 0.91161 0.25517 0.31845 0.0
C186 C 0.00458 0.30551 0.34422 0.0
C187 C 0.04804 0.32398 0.35557 0.0
C188 C 0.6819 0.01321 0.50892 0.0
C189 C 0.70812 0.05572 0.52106 0.0
C190 C 0.65651 0.96254 0.49546 0.0
C191 C 0.6399 0.91934 0.48399 0.0
C192 C 0.68503 0.66369 0.66507 0.0
C193 C 0.7105 0.64704 0.65252 0.0
C194 C 0.65925 0.68861 0.67849 0.0
C195 C 0.64152 0.7146 0.68952 0.0
C196 C 0.95553 0.66231 0.84334 0.0
C197 C 0.91246 0.64581 0.85497 0.0
C198 C 0.00625 0.6878 0.82988 0.0
C199 C 0.04897 0.71431 0.81795 0.0
C200 C 0.27464 0.96274 0.01059 0.0
C201 C 0.24971 0.91951 0.02214 0.0
C202 C 0.29972 0.01329 0.99718 0.0
C203 C 0.31755 0.05584 0.985 0.0
C204 C 0.24347 0.30392 0.01996 0.0
C205 C 0.22021 0.31777 0.03712 0.0
C206 C 0.27149 0.28547 1.00147 0.0
C207 C 0.29301 0.26587 0.9867 0.0
C208 C 0.92857 0.25172 0.1878 0.0
C209 C 0.89086 0.22789 0.20456 0.0
C210 C 0.97515 0.27995 0.16944 0.0
C211 C 0.01595 0.30119 0.15446 0.0
C212 C 0.68191 0.98152 0.33618 0.0
C213 C 0.70151 0.0222 0.32111 0.0
C214 C 0.66362 0.93507 0.35463 0.0
C215 C 0.64989 0.89743 0.37141 0.0
C216 C 0.7126 0.66641 0.52101 0.0
C217 C 0.73659 0.65318 0.53798 0.0
C218 C 0.685 0.68502 0.50239 0.0
C219 C 0.66491 0.70568 0.48739 0.0
C220 C 0.03466 0.72415 0.68658 0.0
C221 C 0.07175 0.74757 0.70372 0.0
C222 C -0.01184 0.69609 0.66812 0.0
C223 C 0.94704 0.67471 0.65337 0.0
C224 C 0.30141 0.03954 0.85437 0.0
C225 C 0.3146 0.07691 0.87128 0.0
C226 C 0.28277 -0.00653 0.83562 0.0
C227 C 0.26197 0.95302 0.82038 0.0
C228 C 0.65967 0.72163 0.82004 0.0
C229 C 0.6466 0.74502 0.8026 0.0
C230 C 0.67836 0.6941 0.83871 0.0
C231 C 0.69911 0.67357 0.85334 0.0
C232 C 0.92794 0.67068 0.98516 0.0
C233 C 0.89052 0.65684 0.96823 0.0
C234 C 0.97436 0.68901 0.00364 0.0
C235 C 0.01515 0.70845 0.01862 0.0
C236 C 0.24715 0.93557 0.15115 0.0
C237 C 0.22309 0.89774 0.13446 0.0
C238 C 0.27479 0.98174 0.16983 0.0
C239 C 0.29499 0.02195 0.18525 0.0
C240 C 0.30193 0.2532 0.31986 0.0
C241 C 0.31501 0.22964 0.30248 0.0
C242 C 0.28316 0.28049 0.33866 0.0
C243 C 0.26225 0.30057 0.35354 0.0
C244 C 0.03299 0.3036 0.48492 0.0
C245 C 0.07051 0.31759 0.46803 0.0
C246 C -0.01345 0.28512 0.50342 0.0
C247 C 0.94578 0.2655 0.51843 0.0
C248 C 0.68944 -0.00615 0.67084 0.0
C249 C 0.66801 0.9528 0.68563 0.0
C250 C 0.71757 0.04038 0.65244 0.0
C251 C 0.74103 0.07765 0.63542 0.0
loop_
_geom_bond_atom_site_label_1
_geom_bond_atom_site_label_2
_geom_bond_distance
_geom_bond_site_symmetry_2
_ccdc_geom_bond_type
In0 O1 2.294 . S
In0 O2 2.326 . S
In0 O6 2.266 . S
In0 O7 2.326 . S
In0 O8 2.266 . S
In0 O9 2.326 . S
In0 O11 2.294 . S
In0 O12 2.326 . S
O1 In0 2.294 . S
O1 C10 1.240 . S
O2 In0 2.326 . S
O2 C10 1.252 . S
C3 O6 1.252 . S
C3 O7 1.260 . S
C4 O11 1.240 . S
C4 O12 1.252 . S
C5 O8 1.252 . S
C5 O9 1.260 . S
O6 In0 2.266 . S
O6 C3 1.252 . S
O7 In0 2.326 . S
O7 C3 1.260 . S
O8 In0 2.266 . S
O8 C5 1.252 . S
O9 In0 2.326 . S
O9 C5 1.260 . S
C10 O1 1.240 . S
C10 O2 1.252 . S
O11 In0 2.294 . S
O11 C4 1.240 . S
O12 In0 2.326 . S
O12 C4 1.252 . S
In13 O14 2.294 . S
In13 O15 2.326 . S
In13 O19 2.266 . S
In13 O20 2.326 . S
In13 O21 2.266 . S
In13 O22 2.326 . S
In13 O24 2.294 . S
In13 O25 2.326 . S
O14 In13 2.294 . S
O14 C23 1.240 . S
O15 In13 2.326 . S
O15 C23 1.252 . S
C16 O19 1.252 . S
C16 O20 1.260 . S
C17 O24 1.240 . S
C17 O25 1.252 . S
C18 O21 1.252 . S
C18 O22 1.260 . S
O19 In13 2.266 . S
O19 C16 1.252 . S
O20 In13 2.326 . S
O20 C16 1.260 . S
O21 In13 2.266 . S
O21 C18 1.252 . S
O22 In13 2.326 . S
O22 C18 1.260 . S
C23 O14 1.240 . S
C23 O15 1.252 . S
O24 In13 2.294 . S
O24 C17 1.240 . S
O25 In13 2.326 . S
O25 C17 1.252 . S
In26 O27 2.294 . S
In26 O28 2.326 . S
In26 O32 2.266 . S
In26 O33 2.326 . S
In26 O34 2.266 . S
In26 O35 2.326 . S
In26 O37 2.294 . S
In26 O38 2.326 . S
O27 In26 2.294 . S
O27 C36 1.240 . S
O28 In26 2.326 . S
O28 C36 1.252 . S
C29 O32 1.252 . S
C29 O33 1.260 . S
C30 O37 1.240 . S
C30 O38 1.252 . S
C31 O34 1.252 . S
C31 O35 1.260 . S
O32 In26 2.266 . S
O32 C29 1.252 . S
O33 In26 2.326 . S
O33 C29 1.260 . S
O34 In26 2.266 . S
O34 C31 1.252 . S
O35 In26 2.326 . S
O35 C31 1.260 . S
C36 O27 1.240 . S
C36 O28 1.252 . S
O37 In26 2.294 . S
O37 C30 1.240 . S
O38 In26 2.326 . S
O38 C30 1.252 . S
In39 O40 2.294 . S
In39 O41 2.326 . S
In39 O45 2.266 . S
In39 O46 2.326 . S
In39 O47 2.266 . S
In39 O48 2.326 . S
In39 O50 2.294 . S
In39 O51 2.326 . S
O40 In39 2.294 . S
O40 C49 1.240 . S
O41 In39 2.326 . S
O41 C49 1.252 . S
C42 O45 1.252 . S
C42 O46 1.260 . S
C43 O50 1.240 . S
C43 O51 1.252 . S
C44 O47 1.252 . S
C44 O48 1.260 . S
O45 In39 2.266 . S
O45 C42 1.252 . S
O46 In39 2.326 . S
O46 C42 1.260 . S
O47 In39 2.266 . S
O47 C44 1.252 . S
O48 In39 2.326 . S
O48 C44 1.260 . S
C49 O40 1.240 . S
C49 O41 1.252 . S
O50 In39 2.294 . S
O50 C43 1.240 . S
O51 In39 2.326 . S
O51 C43 1.252 . S
In52 O53 2.294 . S
In52 O54 2.326 . S
In52 O58 2.266 . S
In52 O59 2.326 . S
In52 O60 2.266 . S
In52 O61 2.326 . S
In52 O63 2.294 . S
In52 O64 2.326 . S
O53 In52 2.294 . S
O53 C62 1.240 . S
O54 In52 2.326 . S
O54 C62 1.252 . S
C55 O58 1.252 . S
C55 O59 1.260 . S
C56 O63 1.240 . S
C56 O64 1.252 . S
C57 O60 1.252 . S
C57 O61 1.260 . S
O58 In52 2.266 . S
O58 C55 1.252 . S
O59 In52 2.326 . S
O59 C55 1.260 . S
O60 In52 2.266 . S
O60 C57 1.252 . S
O61 In52 2.326 . S
O61 C57 1.260 . S
C62 O53 1.240 . S
C62 O54 1.252 . S
O63 In52 2.294 . S
O63 C56 1.240 . S
O64 In52 2.326 . S
O64 C56 1.252 . S
In65 O66 2.294 . S
In65 O67 2.326 . S
In65 O71 2.266 . S
In65 O72 2.326 . S
In65 O73 2.266 . S
In65 O74 2.326 . S
In65 O76 2.294 . S
In65 O77 2.326 . S
O66 In65 2.294 . S
O66 C75 1.240 . S
O67 In65 2.326 . S
O67 C75 1.252 . S
C68 O71 1.252 . S
C68 O72 1.260 . S
C69 O76 1.240 . S
C69 O77 1.252 . S
C70 O73 1.252 . S
C70 O74 1.260 . S
O71 In65 2.266 . S
O71 C68 1.252 . S
O72 In65 2.326 . S
O72 C68 1.260 . S
O73 In65 2.266 . S
O73 C70 1.252 . S
O74 In65 2.326 . S
O74 C70 1.260 . S
C75 O66 1.240 . S
C75 O67 1.252 . S
O76 In65 2.294 . S
O76 C69 1.240 . S
O77 In65 2.326 . S
O77 C69 1.252 . S
In78 O79 2.294 . S
In78 O80 2.326 . S
In78 O84 2.266 . S
In78 O85 2.326 . S
In78 O86 2.266 . S
In78 O87 2.326 . S
In78 O89 2.294 . S
In78 O90 2.326 . S
O79 In78 2.294 . S
O79 C88 1.240 . S
O80 In78 2.326 . S
O80 C88 1.252 . S
C81 O84 1.252 . S
C81 O85 1.260 . S
C82 O89 1.240 . S
C82 O90 1.252 . S
C83 O86 1.252 . S
C83 O87 1.260 . S
O84 In78 2.266 . S
O84 C81 1.252 . S
O85 In78 2.326 . S
O85 C81 1.260 . S
O86 In78 2.266 . S
O86 C83 1.252 . S
O87 In78 2.326 . S
O87 C83 1.260 . S
C88 O79 1.240 . S
C88 O80 1.252 . S
O89 In78 2.294 . S
O89 C82 1.240 . S
O90 In78 2.326 . S
O90 C82 1.252 . S
In91 O92 2.294 . S
In91 O93 2.326 . S
In91 O97 2.266 . S
In91 O98 2.326 . S
In91 O99 2.266 . S
In91 O100 2.326 . S
In91 O102 2.294 . S
In91 O103 2.326 . S
O92 In91 2.294 . S
O92 C101 1.240 . S
O93 In91 2.326 . S
O93 C101 1.252 . S
C94 O97 1.252 . S
C94 O98 1.260 . S
C95 O102 1.240 . S
C95 O103 1.252 . S
C96 O99 1.252 . S
C96 O100 1.260 . S
O97 In91 2.266 . S
O97 C94 1.252 . S
O98 In91 2.326 . S
O98 C94 1.260 . S
O99 In91 2.266 . S
O99 C96 1.252 . S
O100 In91 2.326 . S
O100 C96 1.260 . S
C101 O92 1.240 . S
C101 O93 1.252 . S
O102 In91 2.294 . S
O102 C95 1.240 . S
O103 In91 2.326 . S
O103 C95 1.252 . S
In104 O105 2.294 . S
In104 O106 2.326 . S
In104 O110 2.266 . S
In104 O111 2.326 . S
In104 O112 2.266 . S
In104 O113 2.326 . S
In104 O115 2.294 . S
In104 O116 2.326 . S
O105 In104 2.294 . S
O105 C114 1.240 . S
O106 In104 2.326 . S
O106 C114 1.252 . S
C107 O110 1.252 . S
C107 O111 1.260 . S
C108 O115 1.240 . S
C108 O116 1.252 . S
C109 O112 1.252 . S
C109 O113 1.260 . S
O110 In104 2.266 . S
O110 C107 1.252 . S
O111 In104 2.326 . S
O111 C107 1.260 . S
O112 In104 2.266 . S
O112 C109 1.252 . S
O113 In104 2.326 . S
O113 C109 1.260 . S
C114 O105 1.240 . S
C114 O106 1.252 . S
O115 In104 2.294 . S
O115 C108 1.240 . S
O116 In104 2.326 . S
O116 C108 1.252 . S
In117 O118 2.294 . S
In117 O119 2.326 . S
In117 O123 2.266 . S
In117 O124 2.326 . S
In117 O125 2.266 . S
In117 O126 2.326 . S
In117 O128 2.294 . S
In117 O129 2.326 . S
O118 In117 2.294 . S
O118 C127 1.240 . S
O119 In117 2.326 . S
O119 C127 1.252 . S
C120 O123 1.252 . S
C120 O124 1.260 . S
C121 O128 1.240 . S
C121 O129 1.252 . S
C122 O125 1.252 . S
C122 O126 1.260 . S
O123 In117 2.266 . S
O123 C120 1.252 . S
O124 In117 2.326 . S
O124 C120 1.260 . S
O125 In117 2.266 . S
O125 C122 1.252 . S
O126 In117 2.326 . S
O126 C122 1.260 . S
C127 O118 1.240 . S
C127 O119 1.252 . S
O128 In117 2.294 . S
O128 C121 1.240 . S
O129 In117 2.326 . S
O129 C121 1.252 . S
In130 O131 2.294 . S
In130 O132 2.326 . S
In130 O136 2.266 . S
In130 O137 2.326 . S
In130 O138 2.266 . S
In130 O139 2.326 . S
In130 O141 2.294 . S
In130 O142 2.326 . S
O131 In130 2.294 . S
O131 C140 1.240 . S
O132 In130 2.326 . S
O132 C140 1.252 . S
C133 O136 1.252 . S
C133 O137 1.260 . S
C134 O141 1.240 . S
C134 O142 1.252 . S
C135 O138 1.252 . S
C135 O139 1.260 . S
O136 In130 2.266 . S
O136 C133 1.252 . S
O137 In130 2.326 . S
O137 C133 1.260 . S
O138 In130 2.266 . S
O138 C135 1.252 . S
O139 In130 2.326 . S
O139 C135 1.260 . S
C140 O131 1.240 . S
C140 O132 1.252 . S
O141 In130 2.294 . S
O141 C134 1.240 . S
O142 In130 2.326 . S
O142 C134 1.252 . S
In143 O144 2.294 . S
In143 O145 2.326 . S
In143 O149 2.266 . S
In143 O150 2.326 . S
In143 O151 2.266 . S
In143 O152 2.326 . S
In143 O154 2.294 . S
In143 O155 2.326 . S
O144 In143 2.294 . S
O144 C153 1.240 . S
O145 In143 2.326 . S
O145 C153 1.252 . S
C146 O149 1.252 . S
C146 O150 1.260 . S
C147 O154 1.240 . S
C147 O155 1.252 . S
C148 O151 1.252 . S
C148 O152 1.260 . S
O149 In143 2.266 . S
O149 C146 1.252 . S
O150 In143 2.326 . S
O150 C146 1.260 . S
O151 In143 2.266 . S
O151 C148 1.252 . S
O152 In143 2.326 . S
O152 C148 1.260 . S
C153 O144 1.240 . S
C153 O145 1.252 . S
O154 In143 2.294 . S
O154 C147 1.240 . S
O155 In143 2.326 . S
O155 C147 1.252 . S
C156 C157 1.170 . S
C156 C158 1.380 . S
C157 C156 1.170 . S
C158 C156 1.380 . S
C158 C159 1.170 . S
C159 C158 1.170 . S
C160 C161 1.170 . S
C160 C162 1.380 . S
C161 C160 1.170 . S
C162 C160 1.380 . S
C162 C163 1.170 . S
C163 C162 1.170 . S
C164 C165 1.170 . S
C164 C166 1.380 . S
C165 C164 1.170 . S
C166 C164 1.380 . S
C166 C167 1.170 . S
C167 C166 1.170 . S
C168 C169 1.170 . S
C168 C170 1.380 . S
C169 C168 1.170 . S
C170 C168 1.380 . S
C170 C171 1.170 . S
C171 C170 1.170 . S
C172 C173 1.170 . S
C172 C174 1.380 . S
C173 C172 1.170 . S
C174 C172 1.380 . S
C174 C175 1.170 . S
C175 C174 1.170 . S
C176 C177 1.170 . S
C176 C178 1.380 . S
C177 C176 1.170 . S
C178 C176 1.380 . S
C178 C179 1.170 . S
C179 C178 1.170 . S
C180 C181 1.170 . S
C180 C182 1.380 . S
C181 C180 1.170 . S
C182 C180 1.380 . S
C182 C183 1.170 . S
C183 C182 1.170 . S
C184 C185 1.170 . S
C184 C186 1.380 1_655 S
C185 C184 1.170 . S
C186 C184 1.380 1_455 S
C186 C187 1.170 . S
C187 C186 1.170 . S
C188 C189 1.170 . S
C188 C190 1.380 1_545 S
C189 C188 1.170 . S
C190 C188 1.380 1_565 S
C190 C191 1.170 . S
C191 C190 1.170 . S
C192 C193 1.170 . S
C192 C194 1.380 . S
C193 C192 1.170 . S
C194 C192 1.380 . S
C194 C195 1.170 . S
C195 C194 1.170 . S
C196 C197 1.170 . S
C196 C198 1.380 1_655 S
C197 C196 1.170 . S
C198 C196 1.380 1_455 S
C198 C199 1.170 . S
C199 C198 1.170 . S
C200 C201 1.170 . S
C200 C202 1.380 1_564 S
C201 C200 1.170 . S
C202 C200 1.380 1_546 S
C202 C203 1.170 . S
C203 C202 1.170 . S
C204 C205 1.170 . S
C204 C206 1.380 1_554 S
C205 C204 1.170 . S
C206 C204 1.380 1_556 S
C206 C207 1.170 . S
C207 C206 1.170 . S
C208 C209 1.170 . S
C208 C210 1.380 . S
C209 C208 1.170 . S
C210 C208 1.380 . S
C210 C211 1.170 1_655 S
C211 C210 1.170 1_455 S
C212 C213 1.170 1_565 S
C212 C214 1.380 . S
C213 C212 1.170 1_545 S
C214 C212 1.380 . S
C214 C215 1.170 . S
C215 C214 1.170 . S
C216 C217 1.170 . S
C216 C218 1.380 . S
C217 C216 1.170 . S
C218 C216 1.380 . S
C218 C219 1.170 . S
C219 C218 1.170 . S
C220 C221 1.170 . S
C220 C222 1.380 . S
C221 C220 1.170 . S
C222 C220 1.380 . S
C222 C223 1.170 1_455 S
C223 C222 1.170 1_655 S
C224 C225 1.170 . S
C224 C226 1.380 . S
C225 C224 1.170 . S
C226 C224 1.380 . S
C226 C227 1.170 1_545 S
C227 C226 1.170 1_565 S
C228 C229 1.170 . S
C228 C230 1.380 . S
C229 C228 1.170 . S
C230 C228 1.380 . S
C230 C231 1.170 . S
C231 C230 1.170 . S
C232 C233 1.170 . S
C232 C234 1.380 . S
C233 C232 1.170 . S
C234 C232 1.380 . S
C234 C235 1.170 1_656 S
C235 C234 1.170 1_454 S
C236 C237 1.170 . S
C236 C238 1.380 . S
C237 C236 1.170 . S
C238 C236 1.380 . S
C238 C239 1.170 1_565 S
C239 C238 1.170 1_545 S
C240 C241 1.170 . S
C240 C242 1.380 . S
C241 C240 1.170 . S
C242 C240 1.380 . S
C242 C243 1.170 . S
C243 C242 1.170 . S
C244 C245 1.170 . S
C244 C246 1.380 . S
C245 C244 1.170 . S
C246 C244 1.380 . S
C246 C247 1.170 1_455 S
C247 C246 1.170 1_655 S
C248 C249 1.170 1_545 S
C248 C250 1.380 . S
C249 C248 1.170 1_565 S
C250 C248 1.380 . S
C250 C251 1.170 . S
C251 C250 1.170 . S
C157 C108 1.289 . S
C159 C4 1.297 . S
C161 C17 1.288 . S
C163 C127 1.295 . S
C165 C30 1.289 . S
C167 C140 1.296 . S
C169 C49 1.296 . S
C171 C153 1.289 . S
C173 C88 1.297 . S
C175 C56 1.289 . S
C177 C69 1.299 . S
C179 C95 1.298 . S
C181 C120 1.106 . S
C183 C5 1.107 . S
C185 C18 1.106 . S
C187 C133 1.107 . S
C189 C146 1.124 . S
C191 C31 1.125 . S
C193 C42 1.116 . S
C195 C81 1.118 . S
C197 C96 1.125 . S
C199 C57 1.125 . S
C201 C109 1.107 . S
C203 C70 1.106 . S
C205 C3 1.599 . S
C207 C75 1.588 . S
C209 C16 1.587 . S
C211 C10 1.589 . S
C213 C23 1.590 . S
C215 C29 1.585 . S
C217 C44 1.577 . S
C219 C36 1.601 . S
C221 C55 1.600 . S
C223 C43 1.589 . S
C225 C68 1.578 . S
C227 C62 1.602 . S
C229 C83 1.595 . S
C231 C101 1.602 . S
C233 C94 1.593 . S
C235 C114 1.587 . S
C237 C107 1.581 . S
C239 C121 1.593 . S
C241 C122 1.592 . S
C243 C134 1.603 . S
C245 C135 1.590 . S
C247 C147 1.588 . S
C249 C82 1.587 . S
C251 C148 1.597 . S
