# Generated by pormake.
# Topology wgl, (5)-cn, num edge types: 1
# Building blocks:
#     Node 0, Type 0, BuildingBlock: XOMCOT_clean_sbu_1, # of connection points: 5
#     Node 1, Type 0, BuildingBlock: XOMCOT_clean_sbu_1, # of connection points: 5
#     Node 2, Type 0, BuildingBlock: XOMCOT_clean_sbu_1, # of connection points: 5
#     Node 3, Type 0, BuildingBlock: XOMCOT_clean_sbu_1, # of connection points: 5
#     Node 4, Type 0, BuildingBlock: XOMCOT_clean_sbu_1, # of connection points: 5
#     Node 5, Type 0, BuildingBlock: XOMCOT_clean_sbu_1, # of connection points: 5
#     Node 6, Type 0, BuildingBlock: XOMCOT_clean_sbu_1, # of connection points: 5
#     Node 7, Type 0, BuildingBlock: XOMCOT_clean_sbu_1, # of connection points: 5
#     Node 8, Type 0, BuildingBlock: XOMCOT_clean_sbu_1, # of connection points: 5
#     Node 9, Type 0, BuildingBlock: XOMCOT_clean_sbu_1, # of connection points: 5
#     Node 10, Type 0, BuildingBlock: XOMCOT_clean_sbu_1, # of connection points: 5
#     Node 11, Type 0, BuildingBlock: XOMCOT_clean_sbu_1, # of connection points: 5
#     Node 12, Type 0, BuildingBlock: XOMCOT_clean_sbu_1, # of connection points: 5
#     Node 13, Type 0, BuildingBlock: XOMCOT_clean_sbu_1, # of connection points: 5
#     Node 14, Type 0, BuildingBlock: XOMCOT_clean_sbu_1, # of connection points: 5
#     Node 15, Type 0, BuildingBlock: XOMCOT_clean_sbu_1, # of connection points: 5
#     Node 16, Type 0, BuildingBlock: XOMCOT_clean_sbu_1, # of connection points: 5
#     Node 17, Type 0, BuildingBlock: XOMCOT_clean_sbu_1, # of connection points: 5
#     Node 18, Type 0, BuildingBlock: XOMCOT_clean_sbu_1, # of connection points: 5
#     Node 19, Type 0, BuildingBlock: XOMCOT_clean_sbu_1, # of connection points: 5
#     Node 20, Type 0, BuildingBlock: XOMCOT_clean_sbu_1, # of connection points: 5
#     Node 21, Type 0, BuildingBlock: XOMCOT_clean_sbu_1, # of connection points: 5
#     Node 22, Type 0, BuildingBlock: XOMCOT_clean_sbu_1, # of connection points: 5
#     Node 23, Type 0, BuildingBlock: XOMCOT_clean_sbu_1, # of connection points: 5
#     Node 24, Type 0, BuildingBlock: XOMCOT_clean_sbu_1, # of connection points: 5
#     Node 25, Type 0, BuildingBlock: XOMCOT_clean_sbu_1, # of connection points: 5
#     Node 26, Type 0, BuildingBlock: XOMCOT_clean_sbu_1, # of connection points: 5
#     Node 27, Type 0, BuildingBlock: XOMCOT_clean_sbu_1, # of connection points: 5
#     Node 28, Type 0, BuildingBlock: XOMCOT_clean_sbu_1, # of connection points: 5
#     Node 29, Type 0, BuildingBlock: XOMCOT_clean_sbu_1, # of connection points: 5
#     Node 30, Type 0, BuildingBlock: XOMCOT_clean_sbu_1, # of connection points: 5
#     Node 31, Type 0, BuildingBlock: XOMCOT_clean_sbu_1, # of connection points: 5
#     Edge 32, Type (0, 0), BuildingBlock: KIFKEQ_clean_linker_1, # of connection points: 2
#     Edge 33, Type (0, 0), BuildingBlock: KIFKEQ_clean_linker_1, # of connection points: 2
#     Edge 34, Type (0, 0), BuildingBlock: KIFKEQ_clean_linker_1, # of connection points: 2
#     Edge 35, Type (0, 0), BuildingBlock: KIFKEQ_clean_linker_1, # of connection points: 2
#     Edge 36, Type (0, 0), BuildingBlock: KIFKEQ_clean_linker_1, # of connection points: 2
#     Edge 37, Type (0, 0), BuildingBlock: KIFKEQ_clean_linker_1, # of connection points: 2
#     Edge 38, Type (0, 0), BuildingBlock: KIFKEQ_clean_linker_1, # of connection points: 2
#     Edge 39, Type (0, 0), BuildingBlock: KIFKEQ_clean_linker_1, # of connection points: 2
#     Edge 40, Type (0, 0), BuildingBlock: KIFKEQ_clean_linker_1, # of connection points: 2
#     Edge 41, Type (0, 0), BuildingBlock: KIFKEQ_clean_linker_1, # of connection points: 2
#     Edge 42, Type (0, 0), BuildingBlock: KIFKEQ_clean_linker_1, # of connection points: 2
#     Edge 43, Type (0, 0), BuildingBlock: KIFKEQ_clean_linker_1, # of connection points: 2
#     Edge 44, Type (0, 0), BuildingBlock: KIFKEQ_clean_linker_1, # of connection points: 2
#     Edge 45, Type (0, 0), BuildingBlock: KIFKEQ_clean_linker_1, # of connection points: 2
#     Edge 46, Type (0, 0), BuildingBlock: KIFKEQ_clean_linker_1, # of connection points: 2
#     Edge 47, Type (0, 0), BuildingBlock: KIFKEQ_clean_linker_1, # of connection points: 2
#     Edge 48, Type (0, 0), BuildingBlock: KIFKEQ_clean_linker_1, # of connection points: 2
#     Edge 49, Type (0, 0), BuildingBlock: KIFKEQ_clean_linker_1, # of connection points: 2
#     Edge 50, Type (0, 0), BuildingBlock: KIFKEQ_clean_linker_1, # of connection points: 2
#     Edge 51, Type (0, 0), BuildingBlock: KIFKEQ_clean_linker_1, # of connection points: 2
#     Edge 52, Type (0, 0), BuildingBlock: KIFKEQ_clean_linker_1, # of connection points: 2
#     Edge 53, Type (0, 0), BuildingBlock: KIFKEQ_clean_linker_1, # of connection points: 2
#     Edge 54, Type (0, 0), BuildingBlock: KIFKEQ_clean_linker_1, # of connection points: 2
#     Edge 55, Type (0, 0), BuildingBlock: KIFKEQ_clean_linker_1, # of connection points: 2
#     Edge 56, Type (0, 0), BuildingBlock: KIFKEQ_clean_linker_1, # of connection points: 2
#     Edge 57, Type (0, 0), BuildingBlock: KIFKEQ_clean_linker_1, # of connection points: 2
#     Edge 58, Type (0, 0), BuildingBlock: KIFKEQ_clean_linker_1, # of connection points: 2
#     Edge 59, Type (0, 0), BuildingBlock: KIFKEQ_clean_linker_1, # of connection points: 2
#     Edge 60, Type (0, 0), BuildingBlock: KIFKEQ_clean_linker_1, # of connection points: 2
#     Edge 61, Type (0, 0), BuildingBlock: KIFKEQ_clean_linker_1, # of connection points: 2
#     Edge 62, Type (0, 0), BuildingBlock: KIFKEQ_clean_linker_1, # of connection points: 2
#     Edge 63, Type (0, 0), BuildingBlock: KIFKEQ_clean_linker_1, # of connection points: 2
#     Edge 64, Type (0, 0), BuildingBlock: KIFKEQ_clean_linker_1, # of connection points: 2
#     Edge 65, Type (0, 0), BuildingBlock: KIFKEQ_clean_linker_1, # of connection points: 2
#     Edge 66, Type (0, 0), BuildingBlock: KIFKEQ_clean_linker_1, # of connection points: 2
#     Edge 67, Type (0, 0), BuildingBlock: KIFKEQ_clean_linker_1, # of connection points: 2
#     Edge 68, Type (0, 0), BuildingBlock: KIFKEQ_clean_linker_1, # of connection points: 2
#     Edge 69, Type (0, 0), BuildingBlock: KIFKEQ_clean_linker_1, # of connection points: 2
#     Edge 70, Type (0, 0), BuildingBlock: KIFKEQ_clean_linker_1, # of connection points: 2
#     Edge 71, Type (0, 0), BuildingBlock: KIFKEQ_clean_linker_1, # of connection points: 2
#     Edge 72, Type (0, 0), BuildingBlock: KIFKEQ_clean_linker_1, # of connection points: 2
#     Edge 73, Type (0, 0), BuildingBlock: KIFKEQ_clean_linker_1, # of connection points: 2
#     Edge 74, Type (0, 0), BuildingBlock: KIFKEQ_clean_linker_1, # of connection points: 2
#     Edge 75, Type (0, 0), BuildingBlock: KIFKEQ_clean_linker_1, # of connection points: 2
#     Edge 76, Type (0, 0), BuildingBlock: KIFKEQ_clean_linker_1, # of connection points: 2
#     Edge 77, Type (0, 0), BuildingBlock: KIFKEQ_clean_linker_1, # of connection points: 2
#     Edge 78, Type (0, 0), BuildingBlock: KIFKEQ_clean_linker_1, # of connection points: 2
#     Edge 79, Type (0, 0), BuildingBlock: KIFKEQ_clean_linker_1, # of connection points: 2
#     Edge 80, Type (0, 0), BuildingBlock: KIFKEQ_clean_linker_1, # of connection points: 2
#     Edge 81, Type (0, 0), BuildingBlock: KIFKEQ_clean_linker_1, # of connection points: 2
#     Edge 82, Type (0, 0), BuildingBlock: KIFKEQ_clean_linker_1, # of connection points: 2
#     Edge 83, Type (0, 0), BuildingBlock: KIFKEQ_clean_linker_1, # of connection points: 2
#     Edge 84, Type (0, 0), BuildingBlock: KIFKEQ_clean_linker_1, # of connection points: 2
#     Edge 85, Type (0, 0), BuildingBlock: KIFKEQ_clean_linker_1, # of connection points: 2
#     Edge 86, Type (0, 0), BuildingBlock: KIFKEQ_clean_linker_1, # of connection points: 2
#     Edge 87, Type (0, 0), BuildingBlock: KIFKEQ_clean_linker_1, # of connection points: 2
#     Edge 88, Type (0, 0), BuildingBlock: KIFKEQ_clean_linker_1, # of connection points: 2
#     Edge 89, Type (0, 0), BuildingBlock: KIFKEQ_clean_linker_1, # of connection points: 2
#     Edge 90, Type (0, 0), BuildingBlock: KIFKEQ_clean_linker_1, # of connection points: 2
#     Edge 91, Type (0, 0), BuildingBlock: KIFKEQ_clean_linker_1, # of connection points: 2
#     Edge 92, Type (0, 0), BuildingBlock: KIFKEQ_clean_linker_1, # of connection points: 2
#     Edge 93, Type (0, 0), BuildingBlock: KIFKEQ_clean_linker_1, # of connection points: 2
#     Edge 94, Type (0, 0), BuildingBlock: KIFKEQ_clean_linker_1, # of connection points: 2
#     Edge 95, Type (0, 0), BuildingBlock: KIFKEQ_clean_linker_1, # of connection points: 2
#     Edge 96, Type (0, 0), BuildingBlock: KIFKEQ_clean_linker_1, # of connection points: 2
#     Edge 97, Type (0, 0), BuildingBlock: KIFKEQ_clean_linker_1, # of connection points: 2
#     Edge 98, Type (0, 0), BuildingBlock: KIFKEQ_clean_linker_1, # of connection points: 2
#     Edge 99, Type (0, 0), BuildingBlock: KIFKEQ_clean_linker_1, # of connection points: 2
#     Edge 100, Type (0, 0), BuildingBlock: KIFKEQ_clean_linker_1, # of connection points: 2
#     Edge 101, Type (0, 0), BuildingBlock: KIFKEQ_clean_linker_1, # of connection points: 2
#     Edge 102, Type (0, 0), BuildingBlock: KIFKEQ_clean_linker_1, # of connection points: 2
#     Edge 103, Type (0, 0), BuildingBlock: KIFKEQ_clean_linker_1, # of connection points: 2
#     Edge 104, Type (0, 0), BuildingBlock: KIFKEQ_clean_linker_1, # of connection points: 2
#     Edge 105, Type (0, 0), BuildingBlock: KIFKEQ_clean_linker_1, # of connection points: 2
#     Edge 106, Type (0, 0), BuildingBlock: KIFKEQ_clean_linker_1, # of connection points: 2
#     Edge 107, Type (0, 0), BuildingBlock: KIFKEQ_clean_linker_1, # of connection points: 2
#     Edge 108, Type (0, 0), BuildingBlock: KIFKEQ_clean_linker_1, # of connection points: 2
#     Edge 109, Type (0, 0), BuildingBlock: KIFKEQ_clean_linker_1, # of connection points: 2
#     Edge 110, Type (0, 0), BuildingBlock: KIFKEQ_clean_linker_1, # of connection points: 2
#     Edge 111, Type (0, 0), BuildingBlock: KIFKEQ_clean_linker_1, # of connection points: 2
# Relax obj value: 0.053
# Max RMSD: 0.091
# Mean RMSD: 0.091
data_MOF--net-wgl--node1-XOMCOT_clean_sbu_1--edge1-KIFKEQ_clean_linker_1
_symmetry_space_group_name_H-M    P1
_symmetry_Int_Tables_number       1
_symmetry_cell_setting            triclinic
loop_
_symmetry_equiv_pos_as_xyz
'x, y, z'
_cell_length_a     57.959761
_cell_length_b     57.961449
_cell_length_c     53.230429
_cell_angle_alpha  90.030812
_cell_angle_beta   90.014424
_cell_angle_gamma 89.945776
loop_
_atom_site_label
_atom_site_type_symbol
_atom_site_fract_x
_atom_site_fract_y
_atom_site_fract_z
_atom_type_partial_charge
C0 C 0.27671 0.36523 0.19071 0.0
C1 C 0.25847 0.38014 0.19183 0.0
N2 N 0.24896 0.38159 0.16883 0.0
N3 N 0.27906 0.35712 0.16711 0.0
C4 C 0.2619 0.36755 0.15401 0.0
H5 H 0.28767 0.36064 0.20634 0.0
Co6 Co 0.30183 0.33496 0.16038 0.0
C7 C 0.29345 0.31567 0.10789 0.0
O8 O 0.31284 0.30406 0.10904 0.0
N9 N 0.32528 0.31236 0.15573 0.0
C10 C 0.35941 0.29466 0.1558 0.0
C11 C 0.34836 0.31562 0.15506 0.0
C12 C 0.32292 0.28911 0.15737 0.0
N13 N 0.34339 0.2779 0.15746 0.0
O14 O 0.28351 0.31252 0.17852 0.0
H15 H 0.35692 0.33214 0.15524 0.0
H16 H 0.30643 0.28062 0.15927 0.0
O17 O 0.28699 0.32784 0.1269 0.0
C18 C 0.29247 0.31079 0.20047 0.0
O19 O 0.31095 0.32316 0.20539 0.0
N20 N 0.32081 0.35786 0.14604 0.0
C21 C 0.36 0.38446 0.13678 0.0
C22 C 0.34929 0.37225 0.11719 0.0
C23 C 0.32948 0.35911 0.12217 0.0
C24 C 0.32965 0.37154 0.16448 0.0
C25 C 0.34891 0.38526 0.16016 0.0
H26 H 0.3227 0.34858 0.10731 0.0
H27 H 0.32311 0.37021 0.18341 0.0
H28 H 0.2587 0.36464 0.13424 0.0
H29 H 0.25292 0.38954 0.20833 0.0
H30 H 0.3779 0.29214 0.15571 0.0
H31 H 0.35716 0.37123 0.09878 0.0
H32 H 0.35614 0.39494 0.17569 0.0
C33 C 0.90682 0.02776 0.43606 0.0
C34 C 0.89133 1.00994 0.4362 0.0
N35 N 0.89065 1.00059 0.41305 0.0
N36 N 0.9161 0.02983 0.41298 0.0
C37 C 0.90579 0.0131 0.39919 0.0
H38 H 0.91089 0.03876 0.45185 0.0
Co39 Co 0.93813 0.05247 0.40659 0.0
C40 C 0.95327 0.04786 0.35284 0.0
O41 O 0.95799 0.07 0.35283 0.0
N42 N 0.96069 0.07581 0.40167 0.0
C43 C 0.97903 0.10951 0.39997 0.0
C44 C 0.95784 0.09894 0.4004 0.0
C45 C 0.98391 0.07292 0.40185 0.0
N46 N 0.9955 0.09314 0.40118 0.0
O47 O 0.96089 0.03387 0.42415 0.0
H48 H 0.94154 0.10791 0.40029 0.0
H49 H 0.99216 0.05626 0.40345 0.0
O50 O 0.94548 0.03832 0.37296 0.0
C51 C 0.96292 0.04239 0.44627 0.0
O52 O 0.95048 0.06066 0.45187 0.0
N53 N 0.91477 0.0715 0.39328 0.0
C54 C 0.8832 0.10677 0.38374 0.0
C55 C 0.8918 0.09319 0.36401 0.0
C56 C 0.90716 0.07509 0.36927 0.0
C57 C 0.90511 0.08339 0.41271 0.0
C58 C 0.88936 0.10109 0.4084 0.0
H59 H 0.91294 0.0645 0.35394 0.0
H60 H 0.91079 0.08 0.43169 0.0
H61 H 0.90935 1.0101 0.3795 0.0
H62 H 0.88088 1.00472 0.45206 0.0
H63 H 0.98193 0.12792 0.39919 0.0
H64 H 0.88689 0.0967 0.34475 0.0
H65 H 0.88312 0.1111 0.42419 0.0
C66 C 0.23742 0.64397 0.68296 0.0
C67 C 0.25548 0.62876 0.68325 0.0
N68 N 0.27103 0.6354 0.66589 0.0
N69 N 0.24113 0.66022 0.66534 0.0
C70 C 0.26183 0.65457 0.65516 0.0
H71 H 0.22256 0.64329 0.69517 0.0
Co72 Co 0.2205 0.68478 0.66075 0.0
C73 C 0.22281 0.69784 0.60622 0.0
O74 O 0.20086 0.70324 0.60745 0.0
N75 N 0.19915 0.70996 0.65739 0.0
C76 C 0.16699 0.73104 0.65447 0.0
C77 C 0.17607 0.70927 0.6532 0.0
C78 C 0.20347 0.7328 0.66077 0.0
N79 N 0.18417 0.74587 0.65946 0.0
O80 O 0.24234 0.70548 0.6765 0.0
H81 H 0.16603 0.69417 0.64885 0.0
H82 H 0.22034 0.73982 0.66469 0.0
O83 O 0.23312 0.69047 0.62608 0.0
C84 C 0.23872 0.70419 0.7002 0.0
O85 O 0.22335 0.68928 0.70824 0.0
N86 N 0.19828 0.66361 0.64928 0.0
C87 C 0.15832 0.63831 0.64082 0.0
C88 C 0.17455 0.64118 0.62149 0.0
C89 C 0.19486 0.65369 0.62627 0.0
C90 C 0.18403 0.65837 0.66882 0.0
C91 C 0.16384 0.64599 0.66497 0.0
H92 H 0.20718 0.65594 0.61131 0.0
H93 H 0.18739 0.66563 0.68717 0.0
H94 H 0.27016 0.66456 0.64059 0.0
H95 H 0.25681 0.61375 0.69523 0.0
H96 H 0.14906 0.73561 0.65162 0.0
H97 H 0.17103 0.63492 0.60271 0.0
H98 H 0.15192 0.64369 0.68045 0.0
C99 C 0.61967 0.99597 0.94752 0.0
C100 C 0.6347 0.01415 0.94685 0.0
N101 N 0.6341 0.02346 0.92371 0.0
N102 N 0.60938 0.99362 0.92497 0.0
C103 C 0.61869 1.01056 0.91062 0.0
H104 H 0.61656 0.98498 0.96354 0.0
Co105 Co 0.5872 0.97068 0.92044 0.0
C106 C 0.56578 0.97637 0.86888 0.0
O107 O 0.55825 0.95507 0.87019 0.0
N108 N 0.5647 0.94699 0.91782 0.0
C109 C 0.54692 0.91294 0.91856 0.0
C110 C 0.56792 0.92388 0.91763 0.0
C111 C 0.54145 0.94951 0.91915 0.0
N112 N 0.53025 0.92909 0.91958 0.0
O113 O 0.56542 0.98901 0.93965 0.0
H114 H 0.58438 0.91521 0.91731 0.0
H115 H 0.53289 0.96608 0.92013 0.0
O116 O 0.57747 0.98482 0.88731 0.0
C117 C 0.56473 0.98063 0.96191 0.0
O118 O 0.57799 0.96279 0.96693 0.0
N119 N 0.60958 0.95182 0.905 0.0
C120 C 0.6377 0.9148 0.89148 0.0
C121 C 0.62659 0.92807 0.87303 0.0
C122 C 0.61286 0.94685 0.88016 0.0
C123 C 0.62211 0.94054 0.92288 0.0
C124 C 0.63629 0.92196 0.91655 0.0
H125 H 0.6044 0.95649 0.86562 0.0
H126 H 0.61958 0.94478 0.94247 0.0
H127 H 0.61415 0.01351 0.89118 0.0
H128 H 0.64567 0.01974 0.96215 0.0
H129 H 0.54419 0.89447 0.91844 0.0
H130 H 0.62778 0.92341 0.85336 0.0
H131 H 0.64456 0.91222 0.9314 0.0
C132 C 0.28205 0.6525 0.35179 0.0
C133 C 0.26559 0.63558 0.35252 0.0
N134 N 0.25691 0.63466 0.37594 0.0
N135 N 0.28396 0.6624 0.37462 0.0
C136 C 0.26828 0.6512 0.38905 0.0
H137 H 0.29228 0.65702 0.33558 0.0
Co138 Co 0.30587 0.68548 0.38054 0.0
C139 C 0.29649 0.70571 0.43249 0.0
O140 O 0.31619 0.71679 0.43174 0.0
N141 N 0.3285 0.7088 0.38476 0.0
C142 C 0.36201 0.72755 0.38583 0.0
C143 C 0.35165 0.70624 0.38615 0.0
C144 C 0.32538 0.73196 0.38319 0.0
N145 N 0.34545 0.74376 0.38388 0.0
O146 O 0.28725 0.70699 0.36111 0.0
H147 H 0.36074 0.68999 0.38664 0.0
H148 H 0.30864 0.74 0.38113 0.0
O149 O 0.29028 0.69341 0.41348 0.0
C150 C 0.29643 0.70792 0.3392 0.0
O151 O 0.31477 0.69511 0.33503 0.0
N152 N 0.32527 0.66353 0.39598 0.0
C153 C 0.36324 0.63626 0.4086 0.0
C154 C 0.35112 0.64844 0.42719 0.0
C155 C 0.33192 0.66181 0.42055 0.0
C156 C 0.33584 0.65039 0.37808 0.0
C157 C 0.35474 0.63652 0.38399 0.0
H158 H 0.32359 0.67159 0.43505 0.0
H159 H 0.33073 0.65211 0.35865 0.0
H160 H 0.26566 0.65461 0.40883 0.0
H161 H 0.26033 0.62481 0.33692 0.0
H162 H 0.38037 0.73075 0.38683 0.0
H163 H 0.35707 0.64845 0.44648 0.0
H164 H 0.3637 0.62756 0.36902 0.0
C165 C 0.62533 0.04535 0.62025 0.0
C166 C 0.64244 0.02911 0.6175 0.0
N167 N 0.63618 1.00983 0.62994 0.0
N168 N 0.60828 0.03655 0.63449 0.0
C169 C 0.61531 0.01487 0.64009 0.0
H170 H 0.62535 0.06259 0.61249 0.0
Co171 Co 0.58122 0.0524 0.64299 0.0
C172 C 0.56251 0.02634 0.68594 0.0
O173 O 0.54299 0.0245 0.67355 0.0
N174 N 0.55399 0.06845 0.6516 0.0
C175 C 0.52876 0.08973 0.673 0.0
C176 C 0.55016 0.07956 0.67355 0.0
C177 C 0.53449 0.07199 0.6381 0.0
N178 N 0.51893 0.08488 0.65073 0.0
O179 O 0.5632 0.02981 0.62461 0.0
H180 H 0.56221 0.08021 0.68905 0.0
H181 H 0.53176 0.06561 0.61926 0.0
O182 O 0.57976 0.03594 0.67529 0.0
C183 C 0.56429 0.03662 0.60172 0.0
O184 O 0.57704 0.05483 0.59687 0.0
N185 N 0.59886 0.07591 0.65743 0.0
C186 C 0.6239 0.11464 0.67185 0.0
C187 C 0.62717 0.0935 0.68425 0.0
C188 C 0.61424 0.07416 0.67679 0.0
C189 C 0.59618 0.09616 0.64479 0.0
C190 C 0.60819 0.11581 0.65198 0.0
H191 H 0.61689 0.05781 0.68612 0.0
H192 H 0.58453 0.09701 0.62894 0.0
H193 H 0.60517 1.00301 0.65122 0.0
H194 H 0.65849 0.03163 0.60751 0.0
H195 H 0.52086 0.09961 0.68797 0.0
H196 H 0.63952 0.09199 0.69942 0.0
H197 H 0.60563 0.13172 0.64166 0.0
C198 C 0.23496 0.37159 0.85166 0.0
C199 C 0.25109 0.38882 0.85115 0.0
N200 N 0.26334 0.38792 0.87259 0.0
N201 N 0.23678 0.35976 0.87335 0.0
C202 C 0.25443 0.37002 0.88581 0.0
H203 H 0.22226 0.36819 0.83726 0.0
Co204 Co 0.21582 0.33617 0.88001 0.0
C205 C 0.21985 0.32362 0.93424 0.0
O206 O 0.19759 0.31959 0.93371 0.0
N207 N 0.19385 0.31183 0.88521 0.0
C208 C 0.16124 0.29171 0.88895 0.0
C209 C 0.17077 0.31334 0.88885 0.0
C210 C 0.19772 0.28875 0.88344 0.0
N211 N 0.17813 0.27617 0.88521 0.0
O212 O 0.23607 0.31459 0.86306 0.0
H213 H 0.16102 0.32897 0.89152 0.0
H214 H 0.21451 0.28127 0.88002 0.0
O215 O 0.23005 0.33027 0.91399 0.0
C216 C 0.22804 0.31254 0.84074 0.0
O217 O 0.20946 0.32442 0.83493 0.0
N218 N 0.19529 0.35847 0.89269 0.0
C219 C 0.15953 0.38929 0.90311 0.0
C220 C 0.17636 0.38427 0.92135 0.0
C221 C 0.19454 0.36919 0.91554 0.0
C222 C 0.18053 0.36504 0.8741 0.0
C223 C 0.16236 0.38008 0.87895 0.0
H224 H 0.20769 0.3662 0.92947 0.0
H225 H 0.18204 0.35733 0.85567 0.0
H226 H 0.2601 0.36507 0.90442 0.0
H227 H 0.25352 0.40125 0.83621 0.0
H228 H 0.14313 0.28784 0.89152 0.0
H229 H 0.17536 0.39175 0.93997 0.0
H230 H 0.14995 0.3834 0.86417 0.0
C231 C 0.90626 0.99709 0.09769 0.0
C232 C 0.89091 0.01503 0.0986 0.0
N233 N 0.89019 0.02317 0.12229 0.0
N234 N 0.9154 0.99367 0.12064 0.0
C235 C 0.90516 1.00975 0.13542 0.0
H236 H 0.91021 0.98687 0.08127 0.0
Co237 Co 0.93692 0.97012 0.12566 0.0
C238 C 0.95526 0.97434 0.17871 0.0
O239 O 0.96163 0.95262 0.17791 0.0
N240 N 0.95872 0.94594 0.12896 0.0
C241 C 0.97558 0.9116 0.12498 0.0
C242 C 0.95488 0.92309 0.12602 0.0
C243 C 0.98206 0.94779 0.12967 0.0
N244 N 0.99262 0.92716 0.1272 0.0
O245 O 0.95985 0.98814 0.10771 0.0
H246 H 0.93826 0.9151 0.12351 0.0
H247 H 0.99116 0.96406 0.13078 0.0
O248 O 0.94567 0.98355 0.15932 0.0
C249 C 0.96111 0.97977 0.08545 0.0
O250 O 0.9477 0.96221 0.07987 0.0
N251 N 0.91345 0.95148 0.13961 0.0
C252 C 0.88478 0.91412 0.15003 0.0
C253 C 0.89524 0.92652 0.16959 0.0
C254 C 0.90917 0.94556 0.16401 0.0
C255 C 0.90132 0.9412 0.1207 0.0
C256 C 0.88688 0.92246 0.12547 0.0
H257 H 0.91695 0.95461 0.1794 0.0
H258 H 0.90453 0.94622 0.10146 0.0
H259 H 0.90861 0.01159 0.1553 0.0
H260 H 0.88057 0.02114 0.08303 0.0
H261 H 0.97794 0.89325 0.12212 0.0
H262 H 0.89343 0.92096 0.18891 0.0
H263 H 0.87905 0.91342 0.10983 0.0
C264 C 0.73897 0.6537 0.8474 0.0
C265 C 0.75504 0.6364 0.8483 0.0
N266 N 0.76546 0.6371 0.87086 0.0
N267 N 0.73903 0.66538 0.8693 0.0
C268 C 0.75553 0.65493 0.88334 0.0
H269 H 0.72743 0.65715 0.8319 0.0
Co270 Co 0.71749 0.68879 0.87449 0.0
C271 C 0.72136 0.7043 0.92797 0.0
O272 O 0.69909 0.70851 0.92732 0.0
N273 N 0.69531 0.71265 0.87801 0.0
C274 C 0.66361 0.73378 0.87231 0.0
C275 C 0.67256 0.71185 0.87238 0.0
C276 C 0.69967 0.73545 0.88133 0.0
N277 N 0.68068 0.74855 0.87792 0.0
O278 O 0.73718 0.71025 0.85656 0.0
H279 H 0.66303 0.69669 0.86705 0.0
H280 H 0.71672 0.74243 0.88468 0.0
O281 O 0.73138 0.69644 0.90813 0.0
C282 C 0.72894 0.71139 0.83424 0.0
O283 O 0.71081 0.69867 0.829 0.0
N284 N 0.69723 0.66675 0.88833 0.0
C285 C 0.66115 0.63658 0.8996 0.0
C286 C 0.67673 0.64359 0.91836 0.0
C287 C 0.6951 0.65829 0.91219 0.0
C288 C 0.68387 0.65799 0.86958 0.0
C289 C 0.66555 0.64327 0.87477 0.0
H290 H 0.70724 0.66277 0.92669 0.0
H291 H 0.68654 0.66375 0.85049 0.0
H292 H 0.75955 0.65962 0.90253 0.0
H293 H 0.75861 0.624 0.83358 0.0
H294 H 0.6461 0.73863 0.86754 0.0
H295 H 0.67457 0.63801 0.93762 0.0
H296 H 0.65421 0.6383 0.85954 0.0
C297 C 0.12399 0.98359 0.59914 0.0
C298 C 0.14131 0.99959 0.59897 0.0
N299 N 0.13914 0.01289 0.61954 0.0
N300 N 0.11082 0.98654 0.61976 0.0
C301 C 0.12039 1.00475 0.63189 0.0
H302 H 0.12143 0.97023 0.58526 0.0
Co303 Co 0.08657 0.96621 0.62585 0.0
C304 C 0.07218 0.9714 0.67954 0.0
O305 O 0.06701 0.94937 0.67915 0.0
N306 N 0.06173 0.94495 0.63035 0.0
C307 C 0.04068 0.91285 0.63296 0.0
C308 C 0.06256 0.92176 0.6334 0.0
C309 C 0.03881 0.94954 0.62843 0.0
N310 N 0.02571 0.93029 0.62958 0.0
O311 O 0.06587 0.9868 0.60812 0.0
H312 H 0.07789 0.91151 0.63586 0.0
H313 H 0.03179 0.9666 0.62536 0.0
O314 O 0.08011 0.98093 0.65946 0.0
C315 C 0.06536 0.97986 0.58528 0.0
O316 O 0.07766 0.96161 0.57933 0.0
N317 N 0.10805 0.94534 0.63955 0.0
C318 C 0.13891 0.90991 0.65122 0.0
C319 C 0.13308 0.92668 0.66924 0.0
C320 C 0.11799 0.94467 0.66282 0.0
C321 C 0.11517 0.93043 0.62133 0.0
C322 C 0.13025 0.91244 0.62679 0.0
H323 H 0.1145 0.95785 0.67659 0.0
H324 H 0.10799 0.93178 0.60264 0.0
H325 H 0.11428 0.0114 0.64969 0.0
H326 H 0.15466 1.00124 0.58485 0.0
H327 H 0.03617 0.89482 0.63492 0.0
H328 H 0.14005 0.92585 0.68809 0.0
H329 H 0.13416 0.90001 0.61221 0.0
C330 C 0.79607 0.37882 0.36972 0.0
C331 C 0.77948 0.39514 0.36489 0.0
N332 N 0.75866 0.38621 0.37054 0.0
N333 N 0.78601 0.35958 0.37884 0.0
C334 C 0.76312 0.36442 0.37844 0.0
H335 H 0.81438 0.38112 0.36694 0.0
Co336 Co 0.80127 0.33201 0.38828 0.0
C337 C 0.77533 0.34524 0.4365 0.0
O338 O 0.7722 0.36673 0.42951 0.0
N339 N 0.81631 0.30461 0.39748 0.0
C340 C 0.83422 0.27865 0.42118 0.0
C341 C 0.82654 0.30099 0.41991 0.0
C342 C 0.81816 0.28415 0.38532 0.0
N343 N 0.82881 0.26796 0.3995 0.0
O344 O 0.77741 0.31412 0.37189 0.0
H345 H 0.82792 0.31367 0.43473 0.0
H346 H 0.81112 0.28089 0.36684 0.0
O347 O 0.78573 0.33112 0.42177 0.0
C348 C 0.78198 0.31519 0.34835 0.0
O349 O 0.79932 0.32822 0.34118 0.0
N350 N 0.82649 0.34899 0.40054 0.0
C351 C 0.86783 0.3728 0.40774 0.0
C352 C 0.85017 0.37389 0.42581 0.0
C353 C 0.82946 0.36188 0.4218 0.0
C354 C 0.84371 0.34737 0.38323 0.0
C355 C 0.86441 0.35912 0.38638 0.0
H356 H 0.81615 0.36312 0.43577 0.0
H357 H 0.84113 0.33702 0.36656 0.0
H358 H 0.75008 0.35232 0.38454 0.0
H359 H 0.78274 0.41259 0.35862 0.0
H360 H 0.84297 0.27084 0.43701 0.0
H361 H 0.8522 0.38419 0.44264 0.0
H362 H 0.87771 0.35733 0.37222 0.0
C363 C 0.40155 0.02938 0.11242 0.0
C364 C 0.38386 0.0138 0.11356 0.0
N365 N 0.38349 1.00455 0.13671 0.0
N366 N 0.41253 0.03017 0.13474 0.0
C367 C 0.40115 0.01467 0.1493 0.0
H368 H 0.40566 0.04002 0.09641 0.0
Co369 Co 0.4363 0.05156 0.13982 0.0
C370 C 0.45245 0.04732 0.19345 0.0
O371 O 0.46005 0.06861 0.19226 0.0
N372 N 0.46047 0.07374 0.14333 0.0
C373 C 0.48013 0.10676 0.14486 0.0
C374 C 0.45863 0.09693 0.14558 0.0
C375 C 0.48356 0.07009 0.14137 0.0
N376 N 0.49588 0.0899 0.14194 0.0
O377 O 0.45765 0.03091 0.12309 0.0
H378 H 0.44281 0.10655 0.1475 0.0
H379 H 0.49123 0.05324 0.13881 0.0
O380 O 0.4429 0.03823 0.17397 0.0
C381 C 0.45854 0.03759 0.10017 0.0
O382 O 0.44629 0.05571 0.09367 0.0
N383 N 0.41444 0.07252 0.1524 0.0
C384 C 0.38615 0.11068 0.16115 0.0
C385 C 0.39345 0.09658 0.18115 0.0
C386 C 0.40737 0.07725 0.17633 0.0
C387 C 0.40573 0.08474 0.1327 0.0
C388 C 0.39177 0.10393 0.13661 0.0
H389 H 0.41269 0.0667 0.19192 0.0
H390 H 0.41109 0.08054 0.11381 0.0
H391 H 0.40506 0.01155 0.16889 0.0
H392 H 0.37189 1.0098 0.09856 0.0
H393 H 0.48378 0.12501 0.1463 0.0
H394 H 0.3889 0.10074 0.20035 0.0
H395 H 0.38676 0.1142 0.12052 0.0
C396 C 0.72785 0.37428 0.69445 0.0
C397 C 0.74233 0.39286 0.69718 0.0
N398 N 0.76064 0.38987 0.68192 0.0
N399 N 0.73685 0.35953 0.67751 0.0
C400 C 0.75695 0.36941 0.67028 0.0
H401 H 0.71154 0.37184 0.70394 0.0
Co402 Co 0.72211 0.33248 0.66703 0.0
C403 C 0.75035 0.31676 0.62338 0.0
O404 O 0.75232 0.29613 0.63336 0.0
N405 N 0.70699 0.30538 0.65649 0.0
C406 C 0.68996 0.27928 0.63209 0.0
C407 C 0.69865 0.30131 0.63321 0.0
C408 C 0.70258 0.28573 0.66937 0.0
N409 N 0.69247 0.26951 0.65485 0.0
O410 O 0.74447 0.31426 0.68554 0.0
H411 H 0.69925 0.31345 0.6178 0.0
H412 H 0.70712 0.28302 0.68883 0.0
O413 O 0.73993 0.33265 0.6356 0.0
C414 C 0.73658 0.31411 0.70805 0.0
O415 O 0.7174 0.32554 0.7124 0.0
N416 N 0.69888 0.35025 0.65241 0.0
C417 C 0.66115 0.37772 0.63988 0.0
C418 C 0.68116 0.37796 0.62498 0.0
C419 C 0.70013 0.36423 0.63181 0.0
C420 C 0.67945 0.34956 0.66671 0.0
C421 C 0.66043 0.36315 0.66084 0.0
H422 H 0.7158 0.36523 0.6209 0.0
H423 H 0.67893 0.33861 0.68315 0.0
H424 H 0.76829 0.36213 0.6562 0.0
H425 H 0.7395 0.4075 0.70942 0.0
H426 H 0.68231 0.2711 0.61581 0.0
H427 H 0.68233 0.38907 0.60868 0.0
H428 H 0.64521 0.36221 0.67261 0.0
C429 C 0.39893 0.98637 0.44742 0.0
C430 C 0.38203 1.00287 0.44749 0.0
N431 N 0.38459 0.01618 0.42693 0.0
N432 N 0.4124 0.98906 0.42702 0.0
C433 C 0.4033 1.00748 0.41482 0.0
H434 H 0.40117 0.97306 0.46142 0.0
Co435 Co 0.43708 0.96899 0.42123 0.0
C436 C 0.45071 0.97349 0.36722 0.0
O437 O 0.45589 0.95145 0.36778 0.0
N438 N 0.46234 0.94831 0.41674 0.0
C439 C 0.48476 0.91742 0.41103 0.0
C440 C 0.46248 0.92507 0.41372 0.0
C441 C 0.48501 0.95414 0.41619 0.0
N442 N 0.49884 0.9357 0.41274 0.0
O443 O 0.45763 0.9901 0.43841 0.0
H444 H 0.44757 0.91404 0.41282 0.0
H445 H 0.49135 0.97164 0.41761 0.0
O446 O 0.44302 0.98326 0.38729 0.0
C447 C 0.45793 0.98405 0.46154 0.0
O448 O 0.44491 0.96664 0.46845 0.0
N449 N 0.41605 0.94741 0.40812 0.0
C450 C 0.38763 0.90996 0.39697 0.0
C451 C 0.3923 0.92684 0.37872 0.0
C452 C 0.40614 0.94587 0.38489 0.0
C453 C 0.40973 0.93247 0.42662 0.0
C454 C 0.39587 0.91348 0.42143 0.0
H455 H 0.40886 0.95901 0.3709 0.0
H456 H 0.41684 0.9345 0.44527 0.0
H457 H 0.40997 0.0141 0.39727 0.0
H458 H 0.36897 1.00498 0.46183 0.0
H459 H 0.49024 0.89975 0.40813 0.0
H460 H 0.3855 0.92525 0.35985 0.0
H461 H 0.39274 0.90105 0.43621 0.0
C462 C 0.77401 0.65881 0.18349 0.0
C463 C 0.75822 0.64129 0.1824 0.0
N464 N 0.75154 0.63872 0.15837 0.0
N465 N 0.77747 0.6674 0.16027 0.0
C466 C 0.7634 0.65482 0.1452 0.0
H467 H 0.78304 0.66439 0.20017 0.0
Co468 Co 0.80006 0.68977 0.15493 0.0
C469 C 0.79626 0.70578 0.10127 0.0
O470 O 0.81822 0.71129 0.10198 0.0
N471 N 0.82328 0.71255 0.15119 0.0
C472 C 0.85633 0.73156 0.15636 0.0
C473 C 0.84614 0.71019 0.15568 0.0
C474 C 0.82014 0.73566 0.14902 0.0
N475 N 0.83995 0.7475 0.15218 0.0
O476 O 0.78097 0.71231 0.17214 0.0
H477 H 0.8549 0.69423 0.1598 0.0
H478 H 0.80342 0.74375 0.14674 0.0
O479 O 0.78667 0.69718 0.12097 0.0
C480 C 0.78947 0.7143 0.19428 0.0
O481 O 0.80766 0.70176 0.19993 0.0
N482 N 0.81969 0.66678 0.14202 0.0
C483 C 0.85665 0.63686 0.13361 0.0
C484 C 0.84349 0.64533 0.11341 0.0
C485 C 0.82473 0.66004 0.11804 0.0
C486 C 0.83063 0.65665 0.16179 0.0
C487 C 0.84926 0.6419 0.15808 0.0
H488 H 0.81491 0.66618 0.10227 0.0
H489 H 0.82602 0.66158 0.18073 0.0
H490 H 0.76267 0.65664 0.12498 0.0
H491 H 0.75238 0.63086 0.19803 0.0
H492 H 0.87423 0.73521 0.16061 0.0
H493 H 0.84802 0.64115 0.0942 0.0
H494 H 0.85872 0.6359 0.17436 0.0
C495 C 0.12224 0.02645 0.93302 0.0
C496 C 0.13776 1.00864 0.93189 0.0
N497 N 0.13687 0.99935 0.90874 0.0
N498 N 0.11134 0.0285 0.91077 0.0
C499 C 0.12082 0.01184 0.89613 0.0
H500 H 0.11923 0.03735 0.94915 0.0
Co501 Co 0.08826 0.05064 0.90621 0.0
C502 C 0.07099 0.04657 0.85288 0.0
O503 O 0.0639 0.06805 0.85403 0.0
N504 N 0.0647 0.07343 0.90315 0.0
C505 C 0.0455 0.10677 0.90306 0.0
C506 C 0.06689 0.09664 0.90182 0.0
C507 C 0.04159 0.07006 0.905 0.0
N508 N 0.02956 0.09005 0.90532 0.0
O509 O 0.06665 0.03071 0.9236 0.0
H510 H 0.08287 0.10603 0.90042 0.0
H511 H 0.0337 0.05327 0.90697 0.0
O512 O 0.0806 0.03739 0.87227 0.0
C513 C 0.06624 0.03754 0.9465 0.0
O514 O 0.07908 0.05534 0.95265 0.0
N515 N 0.11047 0.07091 0.89299 0.0
C516 C 0.13926 0.10846 0.88317 0.0
C517 C 0.13124 0.09435 0.8635 0.0
C518 C 0.11706 0.07536 0.86883 0.0
C519 C 0.12003 0.08294 0.91235 0.0
C520 C 0.13422 0.10187 0.90791 0.0
H521 H 0.11114 0.06486 0.85346 0.0
H522 H 0.11511 0.07889 0.93143 0.0
H523 H 0.11593 1.00873 0.8768 0.0
H524 H 0.1492 1.00324 0.94686 0.0
H525 H 0.04206 0.12512 0.90255 0.0
H526 H 0.13537 0.09828 0.84414 0.0
H527 H 0.13981 0.11209 0.92381 0.0
C528 C 0.78514 0.87529 0.68113 0.0
C529 C 0.76765 0.89115 0.68185 0.0
N530 N 0.7532 0.887 0.66256 0.0
N531 N 0.78202 0.86098 0.66147 0.0
C532 C 0.76239 0.86861 0.6503 0.0
H533 H 0.79939 0.8743 0.69417 0.0
Co534 Co 0.80275 0.83676 0.65567 0.0
C535 C 0.79904 0.82501 0.60112 0.0
O536 O 0.82137 0.82135 0.60115 0.0
N537 N 0.82438 0.81186 0.65107 0.0
C538 C 0.85676 0.79146 0.64604 0.0
C539 C 0.84707 0.81301 0.64504 0.0
C540 C 0.82091 0.789 0.65544 0.0
N541 N 0.84039 0.77631 0.65285 0.0
O542 O 0.78177 0.81576 0.6722 0.0
H543 H 0.85637 0.82832 0.63965 0.0
H544 H 0.80459 0.78173 0.66116 0.0
O545 O 0.78894 0.831 0.62163 0.0
C546 C 0.78739 0.81618 0.69548 0.0
O547 O 0.80453 0.82962 0.70227 0.0
N548 N 0.82399 0.8585 0.64342 0.0
C549 C 0.86025 0.88892 0.63404 0.0
C550 C 0.84324 0.88489 0.61571 0.0
C551 C 0.82478 0.87002 0.62105 0.0
C552 C 0.83922 0.86383 0.66204 0.0
C553 C 0.85758 0.8787 0.6577 0.0
H554 H 0.81139 0.86781 0.60718 0.0
H555 H 0.83776 0.85541 0.68009 0.0
H556 H 0.75485 0.86071 0.63381 0.0
H557 H 0.76597 0.90502 0.69536 0.0
H558 H 0.87457 0.78733 0.64189 0.0
H559 H 0.84425 0.89307 0.59746 0.0
H560 H 0.8702 0.88122 0.67246 0.0
C561 C 0.40456 0.52849 0.93795 0.0
C562 C 0.38715 0.51256 0.93765 0.0
N563 N 0.3861 0.50326 0.91454 0.0
N564 N 0.41459 0.52948 0.91513 0.0
C565 C 0.40299 0.51373 0.90112 0.0
H566 H 0.4091 0.53927 0.95375 0.0
Co567 Co 0.43756 0.55139 0.90897 0.0
C568 C 0.45637 0.54355 0.85662 0.0
O569 O 0.4649 0.5645 0.85687 0.0
N570 N 0.4608 0.57417 0.90452 0.0
C571 C 0.47934 0.60776 0.90254 0.0
C572 C 0.45813 0.59725 0.90219 0.0
C573 C 0.48398 0.57125 0.90634 0.0
N574 N 0.49564 0.59141 0.90537 0.0
O575 O 0.4592 0.53292 0.92829 0.0
H576 H 0.4419 0.60627 0.90085 0.0
H577 H 0.49212 0.55465 0.90906 0.0
O578 O 0.44566 0.53587 0.87611 0.0
C579 C 0.46035 0.54206 0.9502 0.0
O580 O 0.44779 0.56055 0.9545 0.0
N581 N 0.41533 0.57056 0.89364 0.0
C582 C 0.38753 0.60792 0.88046 0.0
C583 C 0.39766 0.59407 0.86186 0.0
C584 C 0.41117 0.57507 0.86884 0.0
C585 C 0.40387 0.5826 0.91178 0.0
C586 C 0.38985 0.60131 0.90563 0.0
H587 H 0.41872 0.56487 0.85418 0.0
H588 H 0.4071 0.57877 0.93134 0.0
H589 H 0.40614 0.51071 0.88134 0.0
H590 H 0.3758 0.50838 0.95314 0.0
H591 H 0.48239 0.62612 0.90102 0.0
H592 H 0.39579 0.59836 0.84216 0.0
H593 H 0.38239 0.61155 0.9206 0.0
C594 C 0.74003 0.15188 0.19711 0.0
C595 C 0.7569 0.13532 0.19692 0.0
N596 N 0.76748 0.1358 0.17441 0.0
N597 N 0.73977 0.16296 0.17487 0.0
C598 C 0.75682 0.15283 0.16133 0.0
H599 H 0.72837 0.15537 0.21248 0.0
Co600 Co 0.7178 0.18579 0.16841 0.0
C601 C 0.72299 0.2002 0.11452 0.0
O602 O 0.70084 0.20497 0.11439 0.0
N603 N 0.69507 0.20913 0.16331 0.0
C604 C 0.66176 0.22833 0.16195 0.0
C605 C 0.67185 0.20691 0.16215 0.0
C606 C 0.6985 0.2323 0.16349 0.0
N607 N 0.67852 0.24433 0.16305 0.0
O608 O 0.73671 0.20805 0.18644 0.0
H609 H 0.66242 0.19092 0.16196 0.0
H610 H 0.71532 0.24025 0.165 0.0
O611 O 0.73243 0.19279 0.13489 0.0
C612 C 0.72794 0.20914 0.20853 0.0
O613 O 0.70987 0.19617 0.21326 0.0
N614 N 0.69828 0.16296 0.15487 0.0
C615 C 0.66213 0.13257 0.14445 0.0
C616 C 0.6774 0.13954 0.12536 0.0
C617 C 0.69578 0.15442 0.13108 0.0
C618 C 0.68515 0.15438 0.17392 0.0
C619 C 0.66688 0.13946 0.16915 0.0
H620 H 0.7075 0.15911 0.11628 0.0
H621 H 0.68784 0.16055 0.19285 0.0
H622 H 0.76092 0.15737 0.14212 0.0
H623 H 0.7611 0.12381 0.21227 0.0
H624 H 0.64342 0.23181 0.16135 0.0
H625 H 0.67493 0.1339 0.10615 0.0
H626 H 0.65573 0.13465 0.18459 0.0
C627 C 0.11714 0.49444 0.44922 0.0
C628 C 0.13287 0.51206 0.44948 0.0
N629 N 0.13498 0.52039 0.42595 0.0
N630 N 0.10919 0.49139 0.42569 0.0
C631 C 0.12044 0.50741 0.41179 0.0
H632 H 0.1121 0.48414 0.46523 0.0
Co633 Co 0.08753 0.46848 0.41857 0.0
C634 C 0.06354 0.49426 0.37644 0.0
O635 O 0.04574 0.49978 0.39047 0.0
N636 N 0.06563 0.44499 0.41264 0.0
C637 C 0.04921 0.41032 0.41408 0.0
C638 C 0.06969 0.42212 0.41484 0.0
C639 C 0.04236 0.44658 0.41085 0.0
N640 N 0.03195 0.42573 0.41185 0.0
O641 O 0.06453 0.48583 0.43734 0.0
H642 H 0.08636 0.41441 0.4183 0.0
H643 H 0.03307 0.46273 0.41099 0.0
O644 O 0.08032 0.48306 0.38607 0.0
C645 C 0.06199 0.47664 0.45905 0.0
O646 O 0.07424 0.45815 0.46427 0.0
N647 N 0.11043 0.45052 0.40288 0.0
C648 C 0.13677 0.41247 0.38844 0.0
C649 C 0.12175 0.42319 0.37132 0.0
C650 C 0.1087 0.44228 0.37889 0.0
C651 C 0.12641 0.44161 0.41899 0.0
C652 C 0.1399 0.42266 0.41209 0.0
H653 H 0.09566 0.44879 0.36625 0.0
H654 H 0.12718 0.44777 0.43814 0.0
H655 H 0.11798 0.50951 0.39178 0.0
H656 H 0.14248 0.51778 0.46575 0.0
H657 H 0.04719 0.39185 0.41598 0.0
H658 H 0.11894 0.41592 0.35282 0.0
H659 H 0.15109 0.41482 0.42598 0.0
C660 C 0.7888 0.15022 0.85999 0.0
C661 C 0.77211 0.13356 0.85906 0.0
N662 N 0.75845 0.13584 0.87937 0.0
N663 N 0.78588 0.16325 0.88073 0.0
C664 C 0.76711 0.15413 0.89223 0.0
H665 H 0.80242 0.15257 0.84638 0.0
Co666 Co 0.80625 0.18741 0.88781 0.0
C667 C 0.80167 0.19774 0.94273 0.0
O668 O 0.824 0.20137 0.9432 0.0
N669 N 0.82748 0.21221 0.89371 0.0
C670 C 0.85958 0.23286 0.8992 0.0
C671 C 0.85029 0.21113 0.89922 0.0
C672 C 0.82351 0.23516 0.89076 0.0
N673 N 0.84279 0.24801 0.89361 0.0
O674 O 0.78531 0.2088 0.87157 0.0
H675 H 0.85997 0.1957 0.90334 0.0
H676 H 0.80696 0.24241 0.88579 0.0
O677 O 0.79189 0.19216 0.92188 0.0
C678 C 0.79145 0.20928 0.84844 0.0
O679 O 0.809 0.19642 0.84154 0.0
N680 N 0.82758 0.16548 0.89956 0.0
C681 C 0.86432 0.13516 0.90737 0.0
C682 C 0.8478 0.13889 0.9263 0.0
C683 C 0.82906 0.15371 0.92174 0.0
C684 C 0.84243 0.16055 0.88046 0.0
C685 C 0.86098 0.14571 0.88399 0.0
H686 H 0.81604 0.15567 0.93606 0.0
H687 H 0.84052 0.16924 0.86263 0.0
H688 H 0.76022 0.16045 0.90983 0.0
H689 H 0.77014 0.12083 0.84435 0.0
H690 H 0.87742 0.23711 0.90305 0.0
H691 H 0.84939 0.13049 0.94438 0.0
H692 H 0.87322 0.14345 0.86881 0.0
C693 C 0.11404 0.53136 0.11222 0.0
C694 C 0.13091 0.5149 0.11151 0.0
N695 N 0.13182 0.50454 0.13407 0.0
N696 N 0.10413 0.53166 0.13512 0.0
C697 C 0.11526 0.5149 0.14816 0.0
H698 H 0.10953 0.54271 0.09691 0.0
Co699 Co 0.08117 0.55357 0.1415 0.0
C700 C 0.06137 0.54566 0.19355 0.0
O701 O 0.05198 0.56622 0.1924 0.0
N702 N 0.05794 0.57646 0.14576 0.0
C703 C 0.03955 0.61019 0.14745 0.0
C704 C 0.06068 0.59948 0.14853 0.0
C705 C 0.03483 0.57378 0.14292 0.0
N706 N 0.02324 0.59402 0.14367 0.0
O707 O 0.05954 0.53485 0.12237 0.0
H708 H 0.07695 0.60833 0.15053 0.0
H709 H 0.02668 0.5573 0.13957 0.0
O710 O 0.07329 0.5382 0.17475 0.0
C711 C 0.05808 0.54376 0.10037 0.0
O712 O 0.07015 0.56249 0.0958 0.0
N713 N 0.10339 0.57277 0.1566 0.0
C714 C 0.13478 0.60752 0.16883 0.0
C715 C 0.12306 0.59547 0.18779 0.0
C716 C 0.10763 0.57777 0.1813 0.0
C717 C 0.11529 0.58385 0.13814 0.0
C718 C 0.13112 0.60109 0.1438 0.0
H719 H 0.09885 0.56883 0.19616 0.0
H720 H 0.11156 0.58007 0.11869 0.0
H721 H 0.11176 0.51077 0.16762 0.0
H722 H 0.1417 0.51079 0.09551 0.0
H723 H 0.03661 0.62856 0.14898 0.0
H724 H 0.12556 0.5999 0.20737 0.0
H725 H 0.13951 0.61018 0.12855 0.0
C726 C 0.73753 0.87269 0.34594 0.0
C727 C 0.75448 0.88911 0.34546 0.0
N728 N 0.76623 0.88812 0.36726 0.0
N729 N 0.73843 0.86113 0.36787 0.0
C730 C 0.75621 0.87087 0.38057 0.0
H731 H 0.72501 0.86964 0.33128 0.0
Co732 Co 0.71663 0.83836 0.37487 0.0
C733 C 0.72115 0.82631 0.42921 0.0
O734 O 0.69872 0.82338 0.42956 0.0
N735 N 0.69383 0.81498 0.38058 0.0
C736 C 0.66048 0.79649 0.38605 0.0
C737 C 0.67107 0.81759 0.38562 0.0
C738 C 0.69642 0.79177 0.37821 0.0
N739 N 0.67634 0.78016 0.38107 0.0
O740 O 0.73584 0.81598 0.35773 0.0
H741 H 0.66231 0.83365 0.38926 0.0
H742 H 0.71263 0.78348 0.37378 0.0
O743 O 0.73112 0.83206 0.40853 0.0
C744 C 0.72821 0.81521 0.33514 0.0
O745 O 0.71004 0.8278 0.3296 0.0
N746 N 0.69717 0.86148 0.38765 0.0
C747 C 0.6627 0.89393 0.39745 0.0
C748 C 0.67925 0.88846 0.41585 0.0
C749 C 0.69681 0.87253 0.41034 0.0
C750 C 0.68264 0.86829 0.36896 0.0
C751 C 0.66511 0.88412 0.37351 0.0
H752 H 0.70982 0.86918 0.42434 0.0
H753 H 0.68382 0.86024 0.35069 0.0
H754 H 0.76127 0.86592 0.39938 0.0
H755 H 0.75788 0.90089 0.33014 0.0
H756 H 0.64241 0.79352 0.38994 0.0
H757 H 0.67856 0.89628 0.43431 0.0
H758 H 0.65287 0.88764 0.35863 0.0
C759 C 0.39962 0.48587 0.60437 0.0
C760 C 0.38424 0.50377 0.60391 0.0
N761 N 0.3903 0.51919 0.62168 0.0
N762 N 0.41543 0.48956 0.62249 0.0
C763 C 0.40933 0.51007 0.63282 0.0
H764 H 0.39931 0.47103 0.59209 0.0
Co765 Co 0.43971 0.46875 0.62751 0.0
C766 C 0.45225 0.47137 0.68192 0.0
O767 O 0.45625 0.4491 0.68123 0.0
N768 N 0.46467 0.44714 0.63131 0.0
C769 C 0.48531 0.41467 0.63421 0.0
C770 C 0.46368 0.42408 0.63559 0.0
C771 C 0.48758 0.45113 0.6279 0.0
N772 N 0.50033 0.43163 0.62919 0.0
O773 O 0.46057 0.49 0.61123 0.0
H774 H 0.44848 0.41425 0.64004 0.0
H775 H 0.49487 0.46788 0.62386 0.0
O776 O 0.44579 0.48186 0.66181 0.0
C777 C 0.45941 0.48535 0.58774 0.0
O778 O 0.445 0.46918 0.58049 0.0
N779 N 0.41822 0.44716 0.63958 0.0
C780 C 0.39213 0.40814 0.64974 0.0
C781 C 0.39487 0.42526 0.66815 0.0
C782 C 0.40771 0.44511 0.66247 0.0
C783 C 0.41281 0.43225 0.62067 0.0
C784 C 0.4001 0.41244 0.62541 0.0
H785 H 0.40973 0.45822 0.67667 0.0
H786 H 0.42025 0.43473 0.60224 0.0
H787 H 0.41882 0.51827 0.64787 0.0
H788 H 0.36944 0.50503 0.59159 0.0
H789 H 0.48969 0.39668 0.63694 0.0
H790 H 0.38825 0.42277 0.68698 0.0
H791 H 0.39777 0.39987 0.61055 0.0
C792 C 0.24401 0.15278 0.35423 0.0
C793 C 0.26211 0.13762 0.35524 0.0
N794 N 0.27195 0.13917 0.37808 0.0
N795 N 0.24225 0.1641 0.37626 0.0
C796 C 0.25946 0.15529 0.39064 0.0
H797 H 0.23269 0.15526 0.33835 0.0
Co798 Co 0.21965 0.18677 0.38052 0.0
C799 C 0.22124 0.20245 0.43413 0.0
O800 O 0.19903 0.20673 0.43255 0.0
N801 N 0.19655 0.20996 0.38312 0.0
C802 C 0.16381 0.22952 0.3777 0.0
C803 C 0.17367 0.20801 0.37852 0.0
C804 C 0.20001 0.23306 0.38521 0.0
N805 N 0.18039 0.24525 0.38181 0.0
O806 O 0.23937 0.20883 0.36376 0.0
H807 H 0.16454 0.19223 0.37468 0.0
H808 H 0.2168 0.24086 0.38777 0.0
O809 O 0.23197 0.19464 0.41473 0.0
C810 C 0.23258 0.20901 0.34086 0.0
O811 O 0.21504 0.1958 0.33472 0.0
N812 N 0.19954 0.16407 0.39319 0.0
C813 C 0.16279 0.13415 0.40227 0.0
C814 C 0.17712 0.1415 0.42204 0.0
C815 C 0.19583 0.15613 0.41701 0.0
C816 C 0.18761 0.15479 0.37361 0.0
C817 C 0.16899 0.14014 0.37768 0.0
H818 H 0.2068 0.16114 0.43237 0.0
H819 H 0.1914 0.16034 0.35467 0.0
H820 H 0.26291 0.16068 0.40974 0.0
H821 H 0.2673 0.12592 0.34042 0.0
H822 H 0.14592 0.23338 0.37361 0.0
H823 H 0.17361 0.13644 0.44124 0.0
H824 H 0.15867 0.13494 0.3617 0.0
C825 C 0.62594 0.47933 0.10291 0.0
C826 C 0.64389 0.49458 0.10065 0.0
N827 N 0.6405 0.51202 0.11697 0.0
N828 N 0.61116 0.48695 0.12062 0.0
C829 C 0.62041 0.50706 0.1288 0.0
H830 H 0.62394 0.46342 0.09252 0.0
Co831 Co 0.58503 0.47022 0.13027 0.0
C832 C 0.56664 0.49575 0.17367 0.0
O833 O 0.54702 0.49711 0.16139 0.0
N834 N 0.559 0.453 0.13985 0.0
C835 C 0.53598 0.43041 0.16239 0.0
C836 C 0.55677 0.44165 0.16188 0.0
C837 C 0.53915 0.44852 0.12734 0.0
N838 N 0.52491 0.43475 0.14069 0.0
O839 O 0.56544 0.49245 0.1134 0.0
H840 H 0.56941 0.44165 0.17681 0.0
H841 H 0.53522 0.45492 0.10875 0.0
O842 O 0.58404 0.48639 0.16293 0.0
C843 C 0.56561 0.48682 0.09012 0.0
O844 O 0.57811 0.46895 0.08335 0.0
N845 N 0.60415 0.44721 0.14314 0.0
C846 C 0.63106 0.40862 0.15393 0.0
C847 C 0.63059 0.42756 0.17049 0.0
C848 C 0.61715 0.44701 0.16453 0.0
C849 C 0.60448 0.42902 0.127 0.0
C850 C 0.6178 0.40963 0.13197 0.0
H851 H 0.61716 0.4617 0.17704 0.0
H852 H 0.59418 0.42964 0.11007 0.0
H853 H 0.61298 0.51748 0.14362 0.0
H854 H 0.65841 0.4929 0.088 0.0
H855 H 0.52929 0.42019 0.17777 0.0
H856 H 0.64066 0.42739 0.18763 0.0
H857 H 0.61734 0.3953 0.1189 0.0
C858 C 0.29507 0.87399 0.8507 0.0
C859 C 0.27895 0.89122 0.84852 0.0
N860 N 0.26205 0.88747 0.86545 0.0
N861 N 0.28851 0.85919 0.86882 0.0
C862 C 0.26828 0.86779 0.87748 0.0
H863 H 0.31069 0.87236 0.83974 0.0
Co864 Co 0.3058 0.83319 0.87789 0.0
C865 C 0.28249 0.8144 0.92301 0.0
O866 O 0.28249 0.79388 0.91252 0.0
N867 N 0.32359 0.80711 0.88692 0.0
C868 C 0.34713 0.78371 0.90806 0.0
C869 C 0.33676 0.80503 0.90778 0.0
C870 C 0.32612 0.78661 0.87498 0.0
N871 N 0.34032 0.77215 0.88747 0.0
O872 O 0.28373 0.81352 0.86068 0.0
H873 H 0.33846 0.81802 0.92223 0.0
H874 H 0.31782 0.78218 0.85747 0.0
O875 O 0.29 0.83169 0.91057 0.0
C876 C 0.2904 0.81391 0.8377 0.0
O877 O 0.30855 0.82652 0.83225 0.0
N878 N 0.3285 0.85252 0.89103 0.0
C879 C 0.36687 0.87917 0.90324 0.0
C880 C 0.34779 0.87819 0.91951 0.0
C881 C 0.32846 0.86492 0.91286 0.0
C882 C 0.34674 0.85355 0.875 0.0
C883 C 0.36605 0.86673 0.88069 0.0
H884 H 0.31374 0.86448 0.92528 0.0
H885 H 0.34633 0.84375 0.85771 0.0
H886 H 0.25855 0.85997 0.89256 0.0
H887 H 0.27966 0.90532 0.83525 0.0
H888 H 0.35827 0.77696 0.92264 0.0
H889 H 0.34778 0.88767 0.93705 0.0
H890 H 0.38048 0.86672 0.86776 0.0
C891 C 0.9017 0.52665 0.61016 0.0
C892 C 0.88427 0.51085 0.61232 0.0
N893 N 0.8834 0.50369 0.63632 0.0
N894 N 0.91195 0.5296 0.63267 0.0
C895 C 0.90043 0.51524 0.64838 0.0
H896 H 0.90605 0.53604 0.5933 0.0
Co897 Co 0.93469 0.55207 0.63695 0.0
C898 C 0.95259 0.54832 0.69016 0.0
O899 O 0.96029 0.56956 0.68863 0.0
N900 N 0.95775 0.57533 0.6397 0.0
C901 C 0.97564 0.60934 0.63921 0.0
C902 C 0.9547 0.59846 0.6408 0.0
C903 C 0.98097 0.57276 0.63761 0.0
N904 N 0.99217 0.59319 0.63695 0.0
O905 O 0.95674 0.53226 0.61976 0.0
H906 H 0.9384 0.60732 0.64218 0.0
H907 H 0.9895 0.55625 0.6357 0.0
O908 O 0.94253 0.5392 0.67102 0.0
C909 C 0.95751 0.53892 0.59681 0.0
O910 O 0.94475 0.55671 0.59032 0.0
N911 N 0.91208 0.57212 0.65004 0.0
C912 C 0.88289 0.60955 0.65952 0.0
C913 C 0.89185 0.59626 0.67939 0.0
C914 C 0.90625 0.57737 0.67425 0.0
C915 C 0.90165 0.58332 0.63061 0.0
C916 C 0.88721 0.60215 0.63487 0.0
H917 H 0.91301 0.56766 0.68981 0.0
H918 H 0.90606 0.57872 0.61152 0.0
H919 H 0.90367 0.51408 0.66837 0.0
H920 H 0.87277 0.50535 0.59745 0.0
H921 H 0.9784 0.6278 0.63947 0.0
H922 H 0.88832 0.60082 0.69874 0.0
H923 H 0.88088 0.61173 0.61882 0.0
C924 C 0.22771 0.87193 0.18622 0.0
C925 C 0.24199 0.89062 0.18913 0.0
N926 N 0.26016 0.88816 0.17354 0.0
N927 N 0.23664 0.85761 0.1688 0.0
C928 C 0.25655 0.86786 0.1615 0.0
H929 H 0.21165 0.86899 0.19605 0.0
Co930 Co 0.22249 0.82985 0.15906 0.0
C931 C 0.2336 0.83512 0.10304 0.0
O932 O 0.2128 0.84252 0.09788 0.0
N933 N 0.20862 0.80141 0.14946 0.0
C934 C 0.1906 0.77412 0.12746 0.0
C935 C 0.19758 0.79668 0.12767 0.0
C936 C 0.20765 0.78125 0.16239 0.0
N937 N 0.19699 0.76436 0.14927 0.0
O938 O 0.24698 0.81275 0.17543 0.0
H939 H 0.19395 0.80888 0.11301 0.0
H940 H 0.21479 0.77878 0.18094 0.0
O941 O 0.23934 0.82998 0.12576 0.0
C942 C 0.24178 0.81277 0.19885 0.0
O943 O 0.22303 0.82379 0.20583 0.0
N944 N 0.19651 0.84681 0.14732 0.0
C945 C 0.155 0.86999 0.13785 0.0
C946 C 0.17616 0.87961 0.13038 0.0
C947 C 0.19682 0.86797 0.13587 0.0
C948 C 0.17623 0.83855 0.1567 0.0
C949 C 0.15538 0.84949 0.15174 0.0
H950 H 0.21305 0.87576 0.13051 0.0
H951 H 0.1761 0.82345 0.16858 0.0
H952 H 0.26793 0.8608 0.14732 0.0
H953 H 0.23921 0.90488 0.20191 0.0
H954 H 0.18105 0.76567 0.1126 0.0
H955 H 0.17674 0.8958 0.12027 0.0
H956 H 0.13965 0.84212 0.15924 0.0
C957 C 0.89962 0.49291 0.94535 0.0
C958 C 0.88233 0.50898 0.94442 0.0
N959 N 0.88314 0.51949 0.92192 0.0
N960 N 0.91143 0.49305 0.92353 0.0
C961 C 0.90103 0.50961 0.90951 0.0
H962 H 0.90293 0.48132 0.96081 0.0
Co963 Co 0.9349 0.47153 0.91822 0.0
C964 C 0.95087 0.47577 0.86471 0.0
O965 O 0.95662 0.45388 0.8656 0.0
N966 N 0.95882 0.44923 0.91447 0.0
C967 C 0.97864 0.41629 0.91319 0.0
C968 C 0.95705 0.42598 0.91314 0.0
C969 C 0.98191 0.45308 0.91519 0.0
N970 N 0.99433 0.43332 0.91471 0.0
O971 O 0.95633 0.49152 0.93586 0.0
H972 H 0.94126 0.41624 0.91232 0.0
H973 H 0.98952 0.47004 0.91678 0.0
O974 O 0.94218 0.4854 0.88438 0.0
C975 C 0.95688 0.4843 0.95861 0.0
O976 O 0.94436 0.46617 0.96437 0.0
N977 N 0.91284 0.45117 0.90476 0.0
C978 C 0.88318 0.41452 0.89409 0.0
C979 C 0.8904 0.42961 0.87497 0.0
C980 C 0.90491 0.44823 0.88079 0.0
C981 C 0.90408 0.43812 0.92378 0.0
C982 C 0.8895 0.41961 0.91889 0.0
H983 H 0.90983 0.4598 0.86593 0.0
H984 H 0.90986 0.44112 0.94281 0.0
H985 H 0.9058 0.5137 0.89037 0.0
H986 H 0.86985 0.51249 0.95907 0.0
H987 H 0.98242 0.39803 0.91221 0.0
H988 H 0.88523 0.42682 0.85565 0.0
H989 H 0.88447 0.40856 0.93435 0.0
C990 C 0.27484 0.15658 0.68867 0.0
C991 C 0.25871 0.13941 0.68769 0.0
N992 N 0.25161 0.13724 0.66378 0.0
N993 N 0.27813 0.16535 0.66548 0.0
C994 C 0.26358 0.1532 0.65054 0.0
H995 H 0.28426 0.16168 0.70525 0.0
Co996 Co 0.30099 0.18754 0.66013 0.0
C997 C 0.29197 0.20977 0.60911 0.0
O998 O 0.31089 0.22202 0.61098 0.0
N999 N 0.3247 0.20986 0.65679 0.0
C1000 C 0.35935 0.2264 0.65813 0.0
C1001 C 0.34769 0.20588 0.65622 0.0
C1002 C 0.32299 0.23308 0.65957 0.0
N1003 N 0.34379 0.24351 0.66035 0.0
O1004 O 0.2829 0.20956 0.67927 0.0
H1005 H 0.35579 0.18912 0.65558 0.0
H1006 H 0.30678 0.24214 0.66163 0.0
O1007 O 0.2861 0.19633 0.62726 0.0
C1008 C 0.29096 0.21044 0.70166 0.0
O1009 O 0.3091 0.1977 0.70699 0.0
N1010 N 0.31958 0.16509 0.64435 0.0
C1011 C 0.35697 0.13722 0.63119 0.0
C1012 C 0.34611 0.15115 0.61316 0.0
C1013 C 0.32725 0.16487 0.62006 0.0
C1014 C 0.32876 0.15023 0.66151 0.0
C1015 C 0.34736 0.13604 0.65531 0.0
H1016 H 0.32027 0.17637 0.60621 0.0
H1017 H 0.32293 0.15082 0.68078 0.0
H1018 H 0.26255 0.15521 0.63036 0.0
H1019 H 0.25297 0.12888 0.70329 0.0
H1020 H 0.37791 0.22847 0.65822 0.0
H1021 H 0.35292 0.15238 0.59426 0.0
H1022 H 0.35534 0.12576 0.66991 0.0
C1023 C 0.62312 0.52752 0.43338 0.0
C1024 C 0.63807 0.50931 0.43179 0.0
N1025 N 0.63553 0.49931 0.40912 0.0
N1026 N 0.61105 0.52933 0.41184 0.0
C1027 C 0.61909 0.51191 0.39722 0.0
H1028 H 0.62112 0.53871 0.44946 0.0
Co1029 Co 0.58805 0.55181 0.40868 0.0
C1030 C 0.56875 0.54894 0.35605 0.0
O1031 O 0.5617 0.57039 0.35816 0.0
N1032 N 0.5647 0.57476 0.40735 0.0
C1033 C 0.54549 0.60742 0.41459 0.0
C1034 C 0.56694 0.59754 0.41236 0.0
C1035 C 0.54154 0.57134 0.40662 0.0
N1036 N 0.52959 0.59092 0.41098 0.0
O1037 O 0.56666 0.53184 0.4264 0.0
H1038 H 0.58295 0.60648 0.41559 0.0
H1039 H 0.53358 0.5546 0.40417 0.0
O1040 O 0.57934 0.53939 0.37459 0.0
C1041 C 0.56673 0.53923 0.44911 0.0
O1042 O 0.58049 0.55654 0.45455 0.0
N1043 N 0.60997 0.57243 0.39518 0.0
C1044 C 0.63572 0.61219 0.38674 0.0
C1045 C 0.62692 0.5995 0.36642 0.0
C1046 C 0.61419 0.57933 0.37105 0.0
C1047 C 0.62102 0.58297 0.41465 0.0
C1048 C 0.63384 0.60294 0.4109 0.0
H1049 H 0.60705 0.57023 0.35527 0.0
H1050 H 0.61789 0.57726 0.43365 0.0
H1051 H 0.61275 0.50821 0.37854 0.0
H1052 H 0.65012 0.504 0.44621 0.0
H1053 H 0.54183 0.62524 0.41923 0.0
H1054 H 0.62847 0.60592 0.34739 0.0
H1055 H 0.64073 0.61203 0.42703 0.0
H1056 H 0.25097 0.28732 0.20245 0.0
H1057 H 0.31392 0.29917 0.24392 0.0
H1058 H 0.23664 0.26339 0.23704 0.0
H1059 H 0.30007 0.27503 0.27778 0.0
H1060 H 0.25954 0.24816 0.34567 0.0
H1061 H 0.27325 0.27316 0.31162 0.0
H1062 H 0.24267 0.2272 0.25703 0.0
H1063 H 0.22867 0.20289 0.2907 0.0
C1064 C 0.26179 0.28468 0.21878 0.0
C1065 C 0.28352 0.29524 0.22037 0.0
C1066 C 0.25366 0.27093 0.23863 0.0
C1067 C 0.26715 0.26733 0.26041 0.0
C1068 C 0.28895 0.27774 0.2617 0.0
C1069 C 0.29697 0.29149 0.24205 0.0
C1070 C 0.25596 0.2434 0.32638 0.0
C1071 C 0.24297 0.2236 0.32095 0.0
C1072 C 0.26377 0.25769 0.30681 0.0
C1073 C 0.25888 0.25236 0.28144 0.0
C1074 C 0.24631 0.23225 0.27622 0.0
C1075 C 0.23844 0.21816 0.29564 0.0
H1076 H 0.0706 0.97515 0.53501 0.0
H1077 H 0.02744 1.00855 0.59023 0.0
H1078 H 0.04644 0.98991 0.50151 0.0
H1079 H 1.00255 0.02297 0.55643 0.0
H1080 H 0.97624 0.06372 0.48921 0.0
H1081 H 1.00077 0.04938 0.52253 0.0
H1082 H 1.01003 0.98554 0.48178 0.0
H1083 H 0.98573 1.0004 0.4477 0.0
C1084 C 0.05584 0.98566 0.54004 0.0
C1085 C 0.05097 0.99068 0.56538 0.0
C1086 C 0.04181 0.99397 0.52071 0.0
C1087 C 0.02231 1.00747 0.52606 0.0
C1088 C 0.01755 0.01281 0.55147 0.0
C1089 C 0.03179 1.00458 0.57091 0.0
C1090 C 0.98349 0.04659 0.48721 0.0
C1091 C 0.97893 0.03318 0.46569 0.0
C1092 C 0.99748 0.03828 0.50656 0.0
C1093 C 1.00731 0.01618 0.50516 0.0
C1094 C 1.00297 1.00276 0.48348 0.0
C1095 C 0.989 0.01121 0.46391 0.0
H1096 H 0.30197 0.81458 0.78843 0.0
H1097 H 0.25743 0.7792 0.84077 0.0
H1098 H 0.29067 0.78851 0.75538 0.0
H1099 H 0.24498 0.75335 0.80685 0.0
H1100 H 0.24679 0.69541 0.74929 0.0
H1101 H 0.25781 0.72228 0.78219 0.0
H1102 H 0.26271 0.77678 0.727 0.0
H1103 H 0.25267 0.74934 0.69386 0.0
C1104 C 0.28942 0.80137 0.79288 0.0
C1105 C 0.28073 0.79896 0.81748 0.0
C1106 C 0.28274 0.78643 0.77365 0.0
C1107 C 0.2669 0.76861 0.77817 0.0
C1108 C 0.25757 0.76658 0.80264 0.0
C1109 C 0.26447 0.78155 0.8221 0.0
C1110 C 0.25058 0.71308 0.74412 0.0
C1111 C 0.24897 0.7202 0.71891 0.0
C1112 C 0.25657 0.72863 0.76312 0.0
C1113 C 0.26085 0.75194 0.75758 0.0
C1114 C 0.25979 0.75896 0.73215 0.0
C1115 C 0.25409 0.74322 0.71302 0.0
H1116 H 0.45174 0.03837 0.05002 0.0
H1117 H 0.49919 0.01319 0.10617 0.0
H1118 H 0.47713 0.02494 1.01689 0.0
H1119 H 0.5253 1.0002 0.07276 0.0
H1120 H 0.55599 0.96034 1.00685 0.0
H1121 H 0.53054 0.97301 0.04013 0.0
H1122 H 0.5124 0.03322 0.99652 0.0
H1123 H 0.53759 0.01995 0.96247 0.0
C1124 C 0.46768 0.02989 0.0553 0.0
C1125 C 0.47344 0.02681 0.08076 0.0
C1126 C 0.48241 0.02239 0.03621 0.0
C1127 C 0.50352 0.01174 0.04195 0.0
C1128 C 0.5091 1.00816 0.06752 0.0
C1129 C 0.49415 0.01553 0.08674 0.0
C1130 C 0.54663 0.97634 1.00422 0.0
C1131 C 0.54889 0.98915 0.98186 0.0
C1132 C 0.53209 0.9837 0.02355 0.0
C1133 C 0.51938 1.00422 1.02128 0.0
C1134 C 0.52166 0.01714 0.99889 0.0
C1135 C 0.53617 1.00963 0.97936 0.0
H1136 H 0.24526 0.82245 0.24827 0.0
H1137 H 0.26421 0.77101 0.19343 0.0
H1138 H 0.25827 0.79737 0.28201 0.0
H1139 H 0.27681 0.74536 0.2274 0.0
H1140 H 0.31579 0.71333 0.29315 0.0
H1141 H 0.3045 0.73883 0.25939 0.0
H1142 H 0.24722 0.76333 0.30399 0.0
H1143 H 0.25911 0.73797 0.33854 0.0
C1144 C 0.2525 0.80578 0.24342 0.0
C1145 C 0.25384 0.79876 0.21815 0.0
C1146 C 0.25967 0.79124 0.26285 0.0
C1147 C 0.26826 0.76908 0.25766 0.0
C1148 C 0.27044 0.76235 0.23222 0.0
C1149 C 0.26337 0.77707 0.21266 0.0
C1150 C 0.30072 0.72409 0.29593 0.0
C1151 C 0.28836 0.72353 0.31874 0.0
C1152 C 0.29415 0.73868 0.27631 0.0
C1153 C 0.2749 0.75322 0.27871 0.0
C1154 C 0.26237 0.75262 0.3015 0.0
C1155 C 0.26904 0.73798 0.32131 0.0
H1156 H 0.44855 0.98991 0.51078 0.0
H1157 H 0.50231 1.00027 0.45599 0.0
H1158 H 0.47463 1.00138 0.54427 0.0
H1159 H 0.52906 1.01082 0.48968 0.0
H1160 H 0.5646 0.04994 0.5529 0.0
H1161 H 0.5393 0.03842 0.51921 0.0
H1162 H 0.50608 0.98953 0.56867 0.0
H1163 H 0.53106 1.00213 0.60323 0.0
C1164 C 0.46602 0.99482 0.5059 0.0
C1165 C 0.47332 0.99444 0.48071 0.0
C1166 C 0.48113 1.00107 0.52521 0.0
C1167 C 0.50421 1.00677 0.52 0.0
C1168 C 0.51139 1.00684 0.49459 0.0
C1169 C 0.49606 1.00089 0.47515 0.0
C1170 C 0.55199 0.03663 0.55677 0.0
C1171 C 0.54986 0.02706 0.581 0.0
C1172 C 0.53749 0.02985 0.53716 0.0
C1173 C 0.52043 0.01303 0.54093 0.0
C1174 C 0.51869 1.00288 0.56503 0.0
C1175 C 0.53318 1.00988 0.58487 0.0
H1176 H 0.29939 0.20757 0.75168 0.0
H1177 H 0.26062 0.24703 0.69734 0.0
H1178 H 0.28483 0.23173 0.7853 0.0
H1179 H 0.24648 0.27198 0.73115 0.0
H1180 H 0.20638 0.29674 0.79913 0.0
H1181 H 0.22135 0.27253 0.7659 0.0
H1182 H 0.28689 0.26851 0.80442 0.0
H1183 H 0.27137 0.29244 0.83851 0.0
C1184 C 0.28781 0.22156 0.74685 0.0
C1185 C 0.28112 0.22532 0.72173 0.0
C1186 C 0.2796 0.2356 0.76623 0.0
C1187 C 0.26453 0.25399 0.76114 0.0
C1188 C 0.25781 0.25779 0.73594 0.0
C1189 C 0.26592 0.24354 0.71648 0.0
C1190 C 0.22403 0.29072 0.80065 0.0
C1191 C 0.23773 0.29664 0.82152 0.0
C1192 C 0.23269 0.27692 0.78134 0.0
C1193 C 0.25547 0.26869 0.7821 0.0
C1194 C 0.26918 0.27434 0.8032 0.0
C1195 C 0.26036 0.28808 0.82278 0.0
H1196 H 0.07221 0.04083 0.99676 0.0
H1197 H 0.02658 0.0114 0.94127 0.0
H1198 H 0.04731 0.02725 0.03018 0.0
H1199 H 1.00097 0.99819 0.97499 0.0
H1200 H 0.97231 0.95841 0.0418 0.0
H1201 H 0.99742 0.97154 1.00845 0.0
H1202 H 0.01145 0.0339 0.05027 0.0
H1203 H 0.98654 0.02022 0.08437 0.0
C1204 C 0.05675 0.03143 0.99166 0.0
C1205 C 0.0514 0.02718 0.96627 0.0
C1206 C 0.04231 0.02382 1.01094 0.0
C1207 C 0.02189 0.01181 1.00549 0.0
C1208 C 0.01666 1.00719 0.98002 0.0
C1209 C 0.03131 0.01472 0.96062 0.0
C1210 C 0.98071 0.97497 0.04402 0.0
C1211 C 0.97732 0.9883 0.06586 0.0
C1212 C 0.99505 0.98259 0.02465 0.0
C1213 C 1.00643 1.0039 0.02635 0.0
C1214 C 1.00319 0.01725 0.04832 0.0
C1215 C 0.98887 1.00949 0.06791 0.0
H1216 H 0.70996 0.71923 0.78848 0.0
H1217 H 0.76821 0.73876 0.83443 0.0
H1218 H 0.72327 0.74415 0.75516 0.0
H1219 H 0.78213 0.76353 0.80029 0.0
H1220 H 0.78707 0.82375 0.74558 0.0
H1221 H 0.77368 0.79853 0.77887 0.0
H1222 H 0.75138 0.74888 0.72334 0.0
H1223 H 0.76436 0.77474 0.68976 0.0
C1224 C 0.72581 0.72873 0.79147 0.0
C1225 C 0.73803 0.72692 0.81429 0.0
C1226 C 0.73355 0.74296 0.7721 0.0
C1227 C 0.75387 0.75585 0.77476 0.0
C1228 C 0.76623 0.75407 0.7976 0.0
C1229 C 0.75835 0.7398 0.81718 0.0
C1230 C 0.77915 0.80751 0.7404 0.0
C1231 C 0.77673 0.80128 0.71496 0.0
C1232 C 0.77169 0.79289 0.75959 0.0
C1233 C 0.76168 0.77145 0.754 0.0
C1234 C 0.75882 0.76535 0.72846 0.0
C1235 C 0.76618 0.78016 0.70914 0.0
H1236 H 0.77815 0.3246 0.2988 0.0
H1237 H 0.76145 0.27252 0.35371 0.0
H1238 H 0.76565 0.29917 0.26515 0.0
H1239 H 0.74935 0.24656 0.31982 0.0
H1240 H 0.70952 0.21427 0.25503 0.0
H1241 H 0.72108 0.23983 0.28855 0.0
H1242 H 0.77697 0.26532 0.24264 0.0
H1243 H 0.76479 0.23981 0.20827 0.0
C1244 C 0.77158 0.30769 0.3037 0.0
C1245 C 0.77067 0.30062 0.32898 0.0
C1246 C 0.76469 0.29297 0.28431 0.0
C1247 C 0.75678 0.27059 0.28954 0.0
C1248 C 0.75517 0.26373 0.31498 0.0
C1249 C 0.76197 0.27862 0.33449 0.0
C1250 C 0.72435 0.22525 0.25188 0.0
C1251 C 0.73622 0.22491 0.22875 0.0
C1252 C 0.73109 0.23987 0.27138 0.0
C1253 C 0.75004 0.25468 0.26857 0.0
C1254 C 0.76209 0.25435 0.24546 0.0
C1255 C 0.75524 0.23964 0.22575 0.0
H1256 H 0.77347 0.28344 0.70745 0.0
H1257 H 0.72141 0.31253 0.75616 0.0
H1258 H 0.78668 0.25894 0.74217 0.0
H1259 H 0.73369 0.28773 0.78998 0.0
H1260 H 0.77264 0.25277 0.85415 0.0
H1261 H 0.76144 0.27932 0.82045 0.0
H1262 H 0.77565 0.22624 0.76546 0.0
H1263 H 0.78757 0.20039 0.79891 0.0
C1264 C 0.76491 0.28468 0.72549 0.0
C1265 C 0.74635 0.29995 0.72886 0.0
C1266 C 0.77229 0.27048 0.7454 0.0
C1267 C 0.76119 0.27115 0.76907 0.0
C1268 C 0.74297 0.28682 0.77236 0.0
C1269 C 0.73577 0.301 0.75268 0.0
C1270 C 0.77297 0.24677 0.83488 0.0
C1271 C 0.7809 0.2245 0.82921 0.0
C1272 C 0.76666 0.26198 0.81546 0.0
C1273 C 0.76787 0.25512 0.78998 0.0
C1274 C 0.77506 0.2325 0.78462 0.0
C1275 C 0.7816 0.21751 0.8039 0.0
H1276 H 0.75781 0.77784 0.33918 0.0
H1277 H 0.72134 0.81976 0.28513 0.0
H1278 H 0.77184 0.75326 0.30488 0.0
H1279 H 0.73566 0.79593 0.25118 0.0
H1280 H 0.74675 0.73561 0.197 0.0
H1281 H 0.73196 0.75932 0.23164 0.0
H1282 H 0.79737 0.75275 0.26999 0.0
H1283 H 0.81168 0.72884 0.23611 0.0
C1284 C 0.75301 0.78195 0.32003 0.0
C1285 C 0.73841 0.80071 0.31497 0.0
C1286 C 0.76103 0.76791 0.3003 0.0
C1287 C 0.75476 0.77245 0.27511 0.0
C1288 C 0.74046 0.79147 0.27024 0.0
C1289 C 0.73238 0.80531 0.28982 0.0
C1290 C 0.75792 0.73938 0.21279 0.0
C1291 C 0.78031 0.73022 0.21379 0.0
C1292 C 0.74951 0.75298 0.23269 0.0
C1293 C 0.7634 0.75784 0.25388 0.0
C1294 C 0.78593 0.74899 0.25444 0.0
C1295 C 0.79421 0.73537 0.23477 0.0
H1296 H 0.48908 0.50378 0.95086 0.0
H1297 H 0.46676 0.56156 0.99605 0.0
H1298 H 0.51417 0.49116 0.98533 0.0
H1299 H 0.49201 0.54953 0.02975 0.0
H1300 H 0.52384 0.50927 0.09567 0.0
H1301 H 0.49789 0.52178 0.06188 0.0
H1302 H 0.54873 0.50133 1.00678 0.0
H1303 H 0.57405 0.48844 0.04029 0.0
C1304 C 0.48956 0.5138 0.96803 0.0
C1305 C 0.47585 0.53365 0.97057 0.0
C1306 C 0.50403 0.50669 0.9878 0.0
C1307 C 0.50519 0.51932 1.0105 0.0
C1308 C 0.49139 0.53909 1.01288 0.0
C1309 C 0.47696 0.5461 0.9933 0.0
C1310 C 0.52953 0.50786 0.07635 0.0
C1311 C 0.55098 0.49791 0.07067 0.0
C1312 C 0.51466 0.51491 0.05691 0.0
C1313 C 0.52102 0.5123 0.03142 0.0
C1314 C 0.54288 0.50308 0.02601 0.0
C1315 C 0.55755 0.49594 0.04531 0.0
H1316 H 0.99591 0.51086 0.60266 0.0
H1317 H 0.95303 0.54312 0.54641 0.0
H1318 H 0.02146 0.49647 0.56939 0.0
H1319 H 0.97783 0.52842 0.51347 0.0
H1320 H 0.03874 0.51836 0.46033 0.0
H1321 H 0.01422 0.53316 0.49419 0.0
H1322 H 0.02444 0.46989 0.53565 0.0
H1323 H 0.04924 0.45559 0.50246 0.0
C1324 C 0.99177 0.51461 0.58325 0.0
C1325 C 0.97247 0.52819 0.57728 0.0
C1326 C 1.00639 0.50639 0.5641 0.0
C1327 C 1.00192 0.51142 0.53855 0.0
C1328 C 0.98229 0.5246 0.53279 0.0
C1329 C 0.96788 0.53289 0.5518 0.0
C1330 C 0.03567 0.50765 0.47665 0.0
C1331 C 0.04604 0.48582 0.4786 0.0
C1332 C 0.02155 0.51606 0.49611 0.0
C1333 C 0.01731 0.50278 0.51791 0.0
C1334 C 0.02757 0.48088 0.51957 0.0
C1335 C 0.04171 0.47258 0.50029 0.0
H1336 H 0.03414 0.50243 0.09814 0.0
H1337 H 0.04749 0.56486 0.05637 0.0
H1338 H 1.01039 0.48823 0.06329 0.0
H1339 H 0.02349 0.5512 0.0223 0.0
H1340 H 0.99604 0.51135 0.95425 0.0
H1341 H 0.02097 0.5248 0.9885 0.0
H1342 H 0.9747 0.49412 0.04265 0.0
H1343 H 0.95051 0.4803 1.00872 0.0
C1344 C 0.03189 0.51317 0.08168 0.0
C1345 C 0.04281 0.53473 0.08013 0.0
C1346 C 0.01822 0.50511 0.06167 0.0
C1347 C 0.01501 0.51852 0.03974 0.0
C1348 C 0.02585 0.54012 0.03847 0.0
C1349 C 0.03953 0.54805 0.05827 0.0
C1350 C 0.99118 0.50771 0.97349 0.0
C1351 C 0.97133 0.49473 0.9787 0.0
C1352 C 1.00545 0.51537 0.9932 0.0
C1353 C 1.00004 0.51038 1.01853 0.0
C1354 C 0.97985 0.49784 0.02353 0.0
C1355 C 0.96581 0.49009 1.00396 0.0
H1356 H 0.56258 0.55613 0.49639 0.0
H1357 H 0.53536 0.50304 0.44773 0.0
H1358 H 0.53697 0.54417 0.52962 0.0
H1359 H 0.5099 0.49031 0.48183 0.0
H1360 H 0.4507 0.48918 0.53803 0.0
H1361 H 0.47658 0.50139 0.50475 0.0
H1362 H 0.52935 0.51573 0.55999 0.0
H1363 H 0.50287 0.5041 0.59353 0.0
C1364 C 0.55125 0.54166 0.49278 0.0
C1365 C 0.5511 0.53055 0.4692 0.0
C1366 C 0.5366 0.53466 0.51211 0.0
C1367 C 0.52131 0.51618 0.50868 0.0
C1368 C 0.52122 0.50484 0.48514 0.0
C1369 C 0.53591 0.512 0.46558 0.0
C1370 C 0.46777 0.49518 0.54314 0.0
C1371 C 0.47471 0.49575 0.56848 0.0
C1372 C 0.48275 0.50193 0.52394 0.0
C1373 C 0.50527 0.50928 0.52944 0.0
C1374 C 0.51207 0.51037 0.55493 0.0
C1375 C 0.49691 0.50379 0.57425 0.0
H1376 H 0.38296 0.25678 0.17272 0.0
H1377 H 0.31283 0.24287 0.14956 0.0
H1378 H 0.39007 0.21582 0.1766 0.0
H1379 H 0.3196 0.20177 0.15499 0.0
H1380 H 0.35151 0.131 0.13376 0.0
H1381 H 0.3395 0.17115 0.13509 0.0
H1382 H 0.38254 0.18215 0.20032 0.0
H1383 H 0.39567 0.14231 0.19799 0.0
C1384 C 0.36897 0.24509 0.16851 0.0
C1385 C 0.34734 0.2534 0.16057 0.0
C1386 C 0.37296 0.22145 0.1712 0.0
C1387 C 0.35539 0.20535 0.16626 0.0
C1388 C 0.33363 0.21361 0.15874 0.0
C1389 C 0.32967 0.2373 0.15586 0.0
C1390 C 0.35832 0.14194 0.1485 0.0
C1391 C 0.3749 0.13347 0.16548 0.0
C1392 C 0.35122 0.16497 0.14943 0.0
C1393 C 0.36034 0.18011 0.16755 0.0
C1394 C 0.37558 0.17117 0.18571 0.0
C1395 C 0.38283 0.14816 0.18464 0.0
H1396 H 0.02983 0.06206 0.39192 0.0
H1397 H 0.01751 0.13215 0.4163 0.0
H1398 H 0.07118 0.06802 0.39665 0.0
H1399 H 0.05862 0.13845 0.41957 0.0
H1400 H 0.13204 0.14272 0.44017 0.0
H1401 H 0.09225 0.1297 0.44301 0.0
H1402 H 0.10195 0.08788 0.37659 0.0
H1403 H 0.14213 0.09976 0.37471 0.0
C1404 C 0.03582 0.07872 0.39831 0.0
C1405 C 0.02012 0.09663 0.40359 0.0
C1406 C 0.05962 0.0822 0.40082 0.0
C1407 C 0.06834 0.1037 0.40858 0.0
C1408 C 0.05262 0.12151 0.414 0.0
C1409 C 0.0289 0.11801 0.41165 0.0
C1410 C 0.12595 0.13014 0.42666 0.0
C1411 C 0.14026 0.12259 0.40697 0.0
C1412 C 0.10297 0.12296 0.42804 0.0
C1413 C 0.09365 0.10818 0.40966 0.0
C1414 C 0.10844 0.09929 0.39108 0.0
C1415 C 0.13148 0.10631 0.38984 0.0
H1416 H 0.1353 0.88369 0.69377 0.0
H1417 H 0.1724 0.88809 0.62357 0.0
H1418 H 0.15096 0.84516 0.70062 0.0
H1419 H 0.18716 0.84919 0.62982 0.0
H1420 H 0.21585 0.77924 0.64949 0.0
H1421 H 0.21006 0.82103 0.65263 0.0
H1422 H 0.14101 0.8095 0.68051 0.0
H1423 H 0.1471 0.76819 0.67819 0.0
C1424 C 0.14722 0.87668 0.68008 0.0
C1425 C 0.15225 0.88882 0.6579 0.0
C1426 C 0.15599 0.85446 0.68385 0.0
C1427 C 0.16992 0.84384 0.66551 0.0
C1428 C 0.1765 0.85676 0.64436 0.0
C1429 C 0.16781 0.87901 0.64063 0.0
C1430 C 0.19964 0.78571 0.65672 0.0
C1431 C 0.18181 0.77041 0.66321 0.0
C1432 C 0.19625 0.80963 0.65837 0.0
C1433 C 0.17504 0.81868 0.66676 0.0
C1434 C 0.15767 0.80325 0.67428 0.0
C1435 C 0.16102 0.77949 0.67255 0.0
H1436 H 0.5085 0.89194 0.93933 0.0
H1437 H 0.49612 0.95743 0.9031 0.0
H1438 H 0.46734 0.88383 0.9387 0.0
H1439 H 0.45472 0.94967 0.90326 0.0
H1440 H 0.39124 0.90827 0.87312 0.0
H1441 H 0.42985 0.92337 0.88031 0.0
H1442 H 0.42947 0.89441 0.95509 0.0
H1443 H 0.39086 0.87875 0.94754 0.0
C1444 C 0.49698 0.90469 0.93137 0.0
C1445 C 0.50568 0.92521 0.92097 0.0
C1446 C 0.47331 0.90019 0.93136 0.0
C1447 C 0.45769 0.91609 0.92091 0.0
C1448 C 0.4663 0.93697 0.91126 0.0
C1449 C 0.49002 0.9415 0.91134 0.0
C1450 C 0.39928 0.90544 0.89124 0.0
C1451 C 0.38817 0.8921 0.90966 0.0
C1452 C 0.42135 0.91425 0.89544 0.0
C1453 C 0.43289 0.9099 0.91818 0.0
C1454 C 0.42118 0.89777 0.93722 0.0
C1455 C 0.39899 0.88902 0.93303 0.0
H1456 H 0.39379 0.88328 0.35508 0.0
H1457 H 0.35549 0.88634 0.4246 0.0
H1458 H 0.38029 0.84393 0.34831 0.0
H1459 H 0.34289 0.84671 0.41846 0.0
H1460 H 0.38354 0.76645 0.3676 0.0
H1461 H 0.39006 0.80778 0.36752 0.0
H1462 H 0.32085 0.81892 0.39516 0.0
H1463 H 0.31469 0.77733 0.39636 0.0
C1464 C 0.38211 0.87574 0.36867 0.0
C1465 C 0.37596 0.88787 0.39055 0.0
C1466 C 0.37462 0.85305 0.36497 0.0
C1467 C 0.36085 0.84196 0.38307 0.0
C1468 C 0.35342 0.85466 0.40408 0.0
C1469 C 0.36085 0.87735 0.40774 0.0
C1470 C 0.36972 0.77763 0.3738 0.0
C1471 C 0.34867 0.76843 0.38229 0.0
C1472 C 0.37333 0.80145 0.37335 0.0
C1473 C 0.35598 0.81677 0.3813 0.0
C1474 C 0.33468 0.80763 0.38913 0.0
C1475 C 0.33107 0.78375 0.38961 0.0
H1476 H 0.37224 0.09376 0.64319 0.0
H1477 H 0.39407 0.15789 0.6095 0.0
H1478 H 0.41226 0.0801 0.64296 0.0
H1479 H 0.43392 0.14424 0.60931 0.0
H1480 H 0.49879 0.12602 0.65891 0.0
H1481 H 0.45933 0.13722 0.6484 0.0
H1482 H 0.44805 0.07061 0.61422 0.0
H1483 H 0.48792 0.05952 0.62456 0.0
C1484 C 0.3855 0.10469 0.63521 0.0
C1485 C 0.38003 0.12691 0.62642 0.0
C1486 C 0.40836 0.09684 0.63497 0.0
C1487 C 0.42617 0.1112 0.6263 0.0
C1488 C 0.42052 0.13288 0.61623 0.0
C1489 C 0.39767 0.14059 0.61614 0.0
C1490 C 0.48794 0.11388 0.64895 0.0
C1491 C 0.49631 0.09191 0.64262 0.0
C1492 C 0.46544 0.12033 0.64276 0.0
C1493 C 0.45067 0.10479 0.63045 0.0
C1494 C 0.45911 0.08289 0.62372 0.0
C1495 C 0.48187 0.07661 0.6295 0.0
H1496 H 0.21043 0.24248 0.892 0.0
H1497 H 0.13942 0.25368 0.87047 0.0
H1498 H 0.20504 0.20093 0.88694 0.0
H1499 H 0.13376 0.21253 0.86672 0.0
H1500 H 0.17424 0.12934 0.90977 0.0
H1501 H 0.18595 0.16958 0.9076 0.0
H1502 H 0.14228 0.17926 0.84265 0.0
H1503 H 0.12945 0.13945 0.8458 0.0
C1504 C 0.19372 0.23617 0.88613 0.0
C1505 C 0.17532 0.25156 0.88192 0.0
C1506 C 0.19057 0.2123 0.88342 0.0
C1507 C 0.16896 0.20327 0.87637 0.0
C1508 C 0.15076 0.21874 0.87176 0.0
C1509 C 0.15391 0.24247 0.87439 0.0
C1510 C 0.16722 0.14001 0.89492 0.0
C1511 C 0.15049 0.13118 0.8783 0.0
C1512 C 0.17416 0.16308 0.89349 0.0
C1513 C 0.16472 0.17788 0.87526 0.0
C1514 C 0.14947 0.16854 0.85736 0.0
C1515 C 0.14237 0.14553 0.85892 0.0
H1516 H 0.11575 0.84864 0.1225 0.0
H1517 H 0.14312 0.91606 0.13984 0.0
H1518 H 0.07759 0.86494 0.1178 0.0
H1519 H 0.1047 0.93286 0.13376 0.0
H1520 H 0.02704 0.94567 0.15496 0.0
H1521 H 0.06778 0.93421 0.15438 0.0
H1522 H 0.05358 0.8877 0.09274 0.0
H1523 H 0.013 0.89846 0.09433 0.0
C1524 C 0.11364 0.86706 0.12503 0.0
C1525 C 0.13245 0.88098 0.13188 0.0
C1526 C 0.09172 0.87653 0.12198 0.0
C1527 C 0.08792 0.9003 0.12535 0.0
C1528 C 0.10691 0.91445 0.1313 0.0
C1529 C 0.12898 0.90488 0.13449 0.0
C1530 C 0.03285 0.93319 0.1412 0.0
C1531 C 0.01693 0.92258 0.12503 0.0
C1532 C 0.05616 0.92668 0.14072 0.0
C1533 C 0.06398 0.90969 0.12379 0.0
C1534 C 0.04814 0.90028 0.10656 0.0
C1535 C 0.02489 0.90647 0.10737 0.0
H1536 H 0.66328 0.77403 0.84041 0.0
H1537 H 0.69449 0.77851 0.91362 0.0
H1538 H 0.65699 0.81561 0.8402 0.0
H1539 H 0.68694 0.82008 0.91455 0.0
H1540 H 0.6794 0.89706 0.90662 0.0
H1541 H 0.69357 0.85769 0.90063 0.0
H1542 H 0.63194 0.84148 0.85828 0.0
H1543 H 0.61863 0.88084 0.86331 0.0
C1544 C 0.66876 0.7841 0.85648 0.0
C1545 C 0.67915 0.77326 0.87711 0.0
C1546 C 0.66501 0.8079 0.85653 0.0
C1547 C 0.67099 0.82136 0.87758 0.0
C1548 C 0.68227 0.81047 0.89787 0.0
C1549 C 0.68651 0.78666 0.8975 0.0
C1550 C 0.6692 0.88509 0.89564 0.0
C1551 C 0.64801 0.89205 0.88527 0.0
C1552 C 0.67718 0.86245 0.89237 0.0
C1553 C 0.66393 0.84616 0.87904 0.0
C1554 C 0.643 0.85347 0.86817 0.0
C1555 C 0.63526 0.87613 0.87108 0.0
H1556 H 0.99283 0.96202 0.64129 0.0
H1557 H 1.00267 0.89399 0.61003 0.0
H1558 H 0.95096 0.95726 0.63774 0.0
H1559 H 0.96123 0.88891 0.60724 0.0
H1560 H 0.88694 0.88642 0.59179 0.0
H1561 H 0.92616 0.90093 0.58661 0.0
H1562 H 0.92193 0.93414 0.65915 0.0
H1563 H 0.88247 0.92042 0.66383 0.0
C1564 C 0.98608 0.94617 0.63347 0.0
C1565 C 1.00108 0.92827 0.62627 0.0
C1566 C 0.96212 0.94337 0.63156 0.0
C1567 C 0.95269 0.9227 0.62219 0.0
C1568 C 0.9678 0.90519 0.61421 0.0
C1569 C 0.99163 0.90794 0.61621 0.0
C1570 C 0.8941 0.89747 0.60623 0.0
C1571 C 0.88173 0.90195 0.6284 0.0
C1572 C 0.91669 0.90556 0.60342 0.0
C1573 C 0.92739 0.91828 0.62271 0.0
C1574 C 0.91429 0.9244 0.64391 0.0
C1575 C 0.89171 0.91635 0.6467 0.0
H1576 H 0.84268 0.11948 0.40577 0.0
H1577 H 0.89349 0.14228 0.35206 0.0
H1578 H 0.8252 0.15778 0.40563 0.0
H1579 H 0.87645 0.18088 0.35236 0.0
H1580 H 0.83579 0.24847 0.35359 0.0
H1581 H 0.84438 0.20777 0.34485 0.0
H1582 H 0.83921 0.19273 0.42416 0.0
H1583 H 0.83003 0.23273 0.43258 0.0
C1584 C 0.84981 0.13261 0.39356 0.0
C1585 C 0.86955 0.12801 0.37912 0.0
C1586 C 0.83992 0.15459 0.39358 0.0
C1587 C 0.84974 0.17258 0.37942 0.0
C1588 C 0.86839 0.16745 0.36342 0.0
C1589 C 0.87816 0.14533 0.36322 0.0
C1590 C 0.83616 0.23632 0.36902 0.0
C1591 C 0.8325 0.24389 0.39381 0.0
C1592 C 0.84122 0.21306 0.36406 0.0
C1593 C 0.84244 0.19692 0.38378 0.0
C1594 C 0.83809 0.20451 0.40842 0.0
C1595 C 0.83317 0.22761 0.41333 0.0
H1596 H 0.51799 0.12801 0.12494 0.0
H1597 H 0.52988 0.0585 0.15119 0.0
H1598 H 0.55915 0.13423 0.12199 0.0
H1599 H 0.57144 0.06438 0.14701 0.0
H1600 H 0.63298 0.13934 0.10462 0.0
H1601 H 0.59364 0.12526 0.10006 0.0
H1602 H 0.60136 0.08528 0.16804 0.0
H1603 H 0.64109 0.0983 0.17177 0.0
C1604 C 0.52936 0.11397 0.13002 0.0
C1605 C 0.52047 0.09285 0.13871 0.0
C1606 C 0.5531 0.11741 0.12787 0.0
C1607 C 0.56876 0.0998 0.13416 0.0
C1608 C 0.55992 0.07841 0.1422 0.0
C1609 C 0.53605 0.07497 0.14442 0.0
C1610 C 0.62658 0.12694 0.11813 0.0
C1611 C 0.64014 0.12028 0.1388 0.0
C1612 C 0.60385 0.11912 0.11573 0.0
C1613 C 0.59406 0.10456 0.13402 0.0
C1614 C 0.60822 0.09648 0.15359 0.0
C1615 C 0.63099 0.10417 0.15589 0.0
H1616 H 0.67463 0.25519 0.6992 0.0
H1617 H 0.69599 0.23146 0.626 0.0
H1618 H 0.661 0.21617 0.70939 0.0
H1619 H 0.68264 0.19262 0.63612 0.0
H1620 H 0.67 0.12142 0.66591 0.0
H1621 H 0.69009 0.15869 0.66605 0.0
H1622 H 0.62752 0.19228 0.69065 0.0
H1623 H 0.60751 0.15512 0.69013 0.0
C1624 C 0.67672 0.24155 0.68549 0.0
C1625 C 0.68614 0.24634 0.66174 0.0
C1626 C 0.6689 0.21929 0.69127 0.0
C1627 C 0.67085 0.20135 0.67358 0.0
C1628 C 0.68115 0.20601 0.65024 0.0
C1629 C 0.68855 0.22828 0.64433 0.0
C1630 C 0.66086 0.13669 0.67215 0.0
C1631 C 0.63732 0.13552 0.67815 0.0
C1632 C 0.67224 0.158 0.67203 0.0
C1633 C 0.66032 0.17839 0.67822 0.0
C1634 C 0.63721 0.17686 0.68601 0.0
C1635 C 0.62576 0.15564 0.68573 0.0
H1636 H 0.63637 0.89353 0.44027 0.0
H1637 H 0.64149 0.92597 0.36738 0.0
H1638 H 0.59753 0.90946 0.44525 0.0
H1639 H 0.60235 0.94091 0.37206 0.0
H1640 H 0.52364 0.91449 0.37712 0.0
H1641 H 0.56568 0.91066 0.37538 0.0
H1642 H 0.57179 0.95106 0.44319 0.0
H1643 H 0.52945 0.95552 0.44435 0.0
C1644 C 0.62957 0.90462 0.42567 0.0
C1645 C 0.64188 0.90806 0.40319 0.0
C1646 C 0.6073 0.91367 0.42852 0.0
C1647 C 0.59697 0.92612 0.40888 0.0
C1648 C 0.60993 0.93117 0.38735 0.0
C1649 C 0.63226 0.92246 0.38465 0.0
C1650 C 0.53405 0.92281 0.39138 0.0
C1651 C 0.52352 0.93528 0.41082 0.0
C1652 C 0.558 0.92074 0.39037 0.0
C1653 C 0.57186 0.93065 0.40912 0.0
C1654 C 0.5614 0.94337 0.42849 0.0
C1655 C 0.53734 0.94598 0.42911 0.0
H1656 H 0.90431 0.87849 0.17508 0.0
H1657 H 0.84301 0.89735 0.134 0.0
H1658 H 0.89128 0.83883 0.17706 0.0
H1659 H 0.82897 0.8577 0.13717 0.0
H1660 H 0.82616 0.77983 0.11904 0.0
H1661 H 0.83463 0.82115 0.12071 0.0
H1662 H 0.8671 0.81157 0.19323 0.0
H1663 H 0.85994 0.77025 0.19028 0.0
C1664 C 0.88762 0.87422 0.16718 0.0
C1665 C 0.87462 0.89101 0.15452 0.0
C1666 C 0.88002 0.8514 0.16835 0.0
C1667 C 0.85895 0.84476 0.15728 0.0
C1668 C 0.84548 0.8619 0.14549 0.0
C1669 C 0.85336 0.8847 0.14388 0.0
C1670 C 0.83499 0.7868 0.13529 0.0
C1671 C 0.84272 0.77203 0.15434 0.0
C1672 C 0.83974 0.81048 0.13643 0.0
C1673 C 0.85188 0.81993 0.157 0.0
C1674 C 0.85842 0.80504 0.17669 0.0
C1675 C 0.85419 0.78137 0.17518 0.0
H1676 H 1.0081 0.1272 0.9256 0.0
H1677 H 0.99522 0.05987 0.8938 0.0
H1678 H 0.96694 0.13361 0.92972 0.0
H1679 H 0.95375 0.06593 0.89889 0.0
H1680 H 0.88507 0.10361 0.87651 0.0
H1681 H 0.92456 0.08955 0.87917 0.0
H1682 H 0.93217 0.12269 0.95143 0.0
H1683 H 0.89283 0.13753 0.94823 0.0
C1684 C 0.9965 0.11369 0.91954 0.0
C1685 C 1.00505 0.09314 0.909 0.0
C1686 C 0.97281 0.11721 0.92233 0.0
C1687 C 0.95694 0.10026 0.91472 0.0
C1688 C 0.96547 0.07942 0.90478 0.0
C1689 C 0.98926 0.07588 0.90201 0.0
C1690 C 0.89506 0.10759 0.89315 0.0
C1691 C 0.88595 0.12202 0.91196 0.0
C1692 C 0.91768 0.09936 0.89479 0.0
C1693 C 0.93173 0.10531 0.91532 0.0
C1694 C 0.92197 0.11818 0.9351 0.0
C1695 C 0.89931 0.12644 0.93345 0.0
H1696 H 0.89341 0.64189 0.69529 0.0
H1697 H 0.84665 0.62909 0.63361 0.0
H1698 H 0.87978 0.68149 0.69776 0.0
H1699 H 0.834 0.66914 0.63514 0.0
H1700 H 0.80831 0.74202 0.64991 0.0
H1701 H 0.81481 0.70069 0.6562 0.0
H1702 H 0.88668 0.71419 0.67193 0.0
H1703 H 0.88 0.75511 0.66679 0.0
C1704 C 0.87989 0.64733 0.68256 0.0
C1705 C 0.87141 0.63227 0.664 0.0
C1706 C 0.8723 0.67022 0.68372 0.0
C1707 C 0.85616 0.67875 0.66627 0.0
C1708 C 0.84645 0.66326 0.64889 0.0
C1709 C 0.85393 0.6403 0.64782 0.0
C1710 C 0.82539 0.73615 0.65508 0.0
C1711 C 0.84368 0.75195 0.65753 0.0
C1712 C 0.82917 0.71243 0.6585 0.0
C1713 C 0.85128 0.704 0.66459 0.0
C1714 C 0.86934 0.71994 0.66764 0.0
C1715 C 0.86558 0.74351 0.66423 0.0
H1716 H 0.63243 0.64374 0.93966 0.0
H1717 H 0.64013 0.60184 0.87305 0.0
H1718 H 0.59328 0.62934 0.94501 0.0
H1719 H 0.60061 0.58843 0.87757 0.0
H1720 H 0.51716 0.63037 0.92112 0.0
H1721 H 0.55827 0.63742 0.92336 0.0
H1722 H 0.57157 0.56734 0.89965 0.0
H1723 H 0.53015 0.56062 0.89614 0.0
C1724 C 0.62597 0.63109 0.92644 0.0
C1725 C 0.63933 0.62425 0.90569 0.0
C1726 C 0.60337 0.62308 0.92929 0.0
C1727 C 0.59354 0.60812 0.9114 0.0
C1728 C 0.60752 0.59992 0.89174 0.0
C1729 C 0.63016 0.60782 0.88898 0.0
C1730 C 0.52875 0.61646 0.91618 0.0
C1731 C 0.5202 0.595 0.90808 0.0
C1732 C 0.55245 0.62039 0.91792 0.0
C1733 C 0.56835 0.60294 0.91177 0.0
C1734 C 0.55984 0.58125 0.90431 0.0
C1735 C 0.53605 0.57733 0.9025 0.0
H1736 H 0.63205 0.38369 0.19759 0.0
H1737 H 0.65953 0.38512 0.12227 0.0
H1738 H 0.64765 0.34477 0.20334 0.0
H1739 H 0.67461 0.34621 0.12769 0.0
H1740 H 0.70757 0.27801 0.14707 0.0
H1741 H 0.70098 0.31972 0.14891 0.0
H1742 H 0.63555 0.30792 0.18555 0.0
H1743 H 0.64244 0.26659 0.18433 0.0
C1744 C 0.6419 0.37591 0.18251 0.0
C1745 C 0.64436 0.3873 0.15939 0.0
C1746 C 0.65063 0.35354 0.18567 0.0
C1747 C 0.66209 0.34223 0.16584 0.0
C1748 C 0.66599 0.35438 0.1434 0.0
C1749 C 0.65719 0.37663 0.14022 0.0
C1750 C 0.69197 0.28439 0.15583 0.0
C1751 C 0.67539 0.26896 0.16523 0.0
C1752 C 0.68812 0.30826 0.15678 0.0
C1753 C 0.66771 0.31719 0.16736 0.0
C1754 C 0.65158 0.30172 0.17755 0.0
C1755 C 0.65536 0.27795 0.17647 0.0
H1756 H 0.01148 0.3899 0.43574 0.0
H1757 H 0.9969 0.45088 0.39194 0.0
H1758 H 0.97067 0.38063 0.43679 0.0
H1759 H 0.95566 0.44198 0.3937 0.0
H1760 H 0.89459 0.37615 0.45008 0.0
H1761 H 0.93342 0.39236 0.45338 0.0
H1762 H 0.93027 0.41302 0.37548 0.0
H1763 H 0.89134 0.39752 0.37247 0.0
C1764 C 0.99956 0.40138 0.42633 0.0
C1765 C 1.00754 0.42098 0.41342 0.0
C1766 C 0.97605 0.39625 0.42729 0.0
C1767 C 0.95983 0.41057 0.41537 0.0
C1768 C 0.96772 0.43048 0.40292 0.0
C1769 C 0.99131 0.43567 0.40203 0.0
C1770 C 0.90202 0.38463 0.43386 0.0
C1771 C 0.89003 0.3853 0.41094 0.0
C1772 C 0.92434 0.39371 0.43566 0.0
C1773 C 0.93508 0.40375 0.4146 0.0
C1774 C 0.92253 0.40554 0.3921 0.0
C1775 C 0.90029 0.39643 0.3903 0.0
H1776 H 0.89161 0.38484 0.85518 0.0
H1777 H 0.84823 0.39363 0.92047 0.0
H1778 H 0.87815 0.34525 0.85088 0.0
H1779 H 0.83564 0.35369 0.91691 0.0
H1780 H 0.81025 0.2815 0.89942 0.0
H1781 H 0.81569 0.32313 0.89458 0.0
H1782 H 0.88715 0.31157 0.87512 0.0
H1783 H 0.88148 0.27033 0.87896 0.0
C1784 C 0.8788 0.37854 0.86829 0.0
C1785 C 0.87129 0.39234 0.88841 0.0
C1786 C 0.87131 0.3557 0.86603 0.0
C1787 C 0.85621 0.34609 0.88389 0.0
C1788 C 0.84728 0.36046 0.90282 0.0
C1789 C 0.8547 0.38333 0.90502 0.0
C1790 C 0.827 0.28787 0.89375 0.0
C1791 C 0.84549 0.27254 0.88989 0.0
C1792 C 0.83017 0.31174 0.89113 0.0
C1793 C 0.85186 0.32075 0.88443 0.0
C1794 C 0.87011 0.30531 0.87993 0.0
C1795 C 0.86696 0.28159 0.88258 0.0
H1796 H 0.87556 0.60103 0.1605 0.0
H1797 H 0.88943 0.64669 0.09818 0.0
H1798 H 0.91567 0.58872 0.16045 0.0
H1799 H 0.92919 0.6333 0.09711 0.0
H1800 H 0.98832 0.56284 0.14856 0.0
H1801 H 0.94735 0.5694 0.1413 0.0
H1802 H 0.96158 0.64062 0.12306 0.0
H1803 H 1.0024 0.63378 0.12885 0.0
C1804 C 0.88704 0.60809 0.14643 0.0
C1805 C 0.87931 0.62522 0.12968 0.0
C1806 C 0.91005 0.60083 0.14622 0.0
C1807 C 0.92587 0.61035 0.1291 0.0
C1808 C 0.91765 0.62604 0.111 0.0
C1809 C 0.89469 0.63345 0.11134 0.0
C1810 C 0.9828 0.5798 0.14263 0.0
C1811 C 0.99886 0.59778 0.13946 0.0
C1812 C 0.95921 0.58363 0.13867 0.0
C1813 C 0.95106 0.60554 0.13153 0.0
C1814 C 0.96716 0.6234 0.12811 0.0
C1815 C 0.99068 0.61956 0.13192 0.0
H1816 H 0.70746 0.74491 0.38538 0.0
H1817 H 0.63559 0.75944 0.37026 0.0
H1818 H 0.69913 0.70345 0.38376 0.0
H1819 H 0.62742 0.71841 0.3695 0.0
H1820 H 0.61899 0.6492 0.41129 0.0
H1821 H 0.63042 0.68943 0.40732 0.0
H1822 H 0.68111 0.67059 0.35157 0.0
H1823 H 0.66933 0.6298 0.35537 0.0
C1824 C 0.69 0.73939 0.38147 0.0
C1825 C 0.67213 0.75567 0.3785 0.0
C1826 C 0.68528 0.71565 0.38051 0.0
C1827 C 0.66261 0.70782 0.37675 0.0
C1828 C 0.645 0.72402 0.37277 0.0
C1829 C 0.64971 0.74759 0.37347 0.0
C1830 C 0.63267 0.65358 0.39827 0.0
C1831 C 0.6434 0.63641 0.38375 0.0
C1832 C 0.63911 0.67661 0.3959 0.0
C1833 C 0.65661 0.68307 0.37914 0.0
C1834 C 0.66763 0.66596 0.36471 0.0
C1835 C 0.66085 0.64275 0.36677 0.0
H1836 H 0.6376 0.40593 0.67167 0.0
H1837 H 0.63844 0.38171 0.59501 0.0
H1838 H 0.60004 0.42378 0.6647 0.0
H1839 H 0.60077 0.39984 0.58784 0.0
H1840 H 0.53448 0.46065 0.64382 0.0
H1841 H 0.57613 0.45291 0.64213 0.0
H1842 H 0.56264 0.38821 0.60459 0.0
H1843 H 0.52141 0.39609 0.60615 0.0
C1844 C 0.62992 0.40488 0.65314 0.0
C1845 C 0.64074 0.3922 0.63396 0.0
C1846 C 0.60849 0.41528 0.64908 0.0
C1847 C 0.59732 0.41306 0.62578 0.0
C1848 C 0.60886 0.40164 0.60608 0.0
C1849 C 0.63046 0.3914 0.6101 0.0
C1850 C 0.54056 0.44506 0.63477 0.0
C1851 C 0.52477 0.42881 0.62544 0.0
C1852 C 0.56433 0.44056 0.6339 0.0
C1853 C 0.57268 0.4199 0.62329 0.0
C1854 C 0.55685 0.40438 0.61266 0.0
C1855 C 0.53321 0.40874 0.61382 0.0
H1856 H 0.18049 0.3958 0.39755 0.0
H1857 H 0.11371 0.37581 0.36908 0.0
H1858 H 0.1939 0.35592 0.39342 0.0
H1859 H 0.12657 0.33618 0.36579 0.0
H1860 H 0.15662 0.2683 0.34651 0.0
H1861 H 0.14921 0.3096 0.34472 0.0
H1862 H 0.18996 0.31914 0.41203 0.0
H1863 H 0.19828 0.27767 0.41273 0.0
C1864 C 0.16876 0.38291 0.39022 0.0
C1865 C 0.14613 0.38902 0.38336 0.0
C1866 C 0.17636 0.36 0.38803 0.0
C1867 C 0.16139 0.34264 0.37923 0.0
C1868 C 0.13888 0.34899 0.37203 0.0
C1869 C 0.13143 0.37183 0.37392 0.0
C1870 C 0.1641 0.27933 0.36077 0.0
C1871 C 0.17775 0.26987 0.37994 0.0
C1872 C 0.15978 0.30301 0.35988 0.0
C1873 C 0.16856 0.31785 0.37851 0.0
C1874 C 0.18301 0.3084 0.39721 0.0
C1875 C 0.18772 0.28465 0.39777 0.0
H1876 H 0.50755 0.39275 0.15011 0.0
H1877 H 0.49106 0.45846 0.11668 0.0
H1878 H 0.46764 0.3805 0.14531 0.0
H1879 H 0.45057 0.44643 0.11234 0.0
H1880 H 0.3808 0.40696 0.0968 0.0
H1881 H 0.42149 0.41863 0.09341 0.0
H1882 H 0.43384 0.39293 0.16836 0.0
H1883 H 0.39419 0.38064 0.17136 0.0
C1884 C 0.49532 0.4045 0.14156 0.0
C1885 C 0.50223 0.42665 0.13416 0.0
C1886 C 0.47246 0.39754 0.13885 0.0
C1887 C 0.45581 0.41271 0.129 0.0
C1888 C 0.46299 0.43437 0.12001 0.0
C1889 C 0.4861 0.44127 0.12251 0.0
C1890 C 0.3923 0.40383 0.11247 0.0
C1891 C 0.38411 0.3931 0.13445 0.0
C1892 C 0.41552 0.41061 0.11058 0.0
C1893 C 0.43095 0.40646 0.1305 0.0
C1894 C 0.42258 0.39602 0.15246 0.0
C1895 C 0.39962 0.38933 0.15435 0.0
H1896 H 0.31208 0.73954 0.86807 0.0
H1897 H 0.38181 0.75192 0.89287 0.0
H1898 H 0.32149 0.69867 0.86103 0.0
H1899 H 0.39135 0.71137 0.88553 0.0
H1900 H 0.40618 0.64171 0.85155 0.0
H1901 H 0.3935 0.68187 0.84847 0.0
H1902 H 0.33355 0.66597 0.89327 0.0
H1903 H 0.34636 0.62578 0.89658 0.0
C1904 C 0.32949 0.73356 0.87156 0.0
C1905 C 0.34624 0.74876 0.88109 0.0
C1906 C 0.33483 0.71025 0.86766 0.0
C1907 C 0.35715 0.70193 0.87266 0.0
C1908 C 0.37407 0.71737 0.88128 0.0
C1909 C 0.36861 0.74049 0.88566 0.0
C1910 C 0.38995 0.64664 0.8601 0.0
C1911 C 0.37725 0.63067 0.87433 0.0
C1912 C 0.3828 0.66964 0.85851 0.0
C1913 C 0.36264 0.677 0.87076 0.0
C1914 C 0.34909 0.6607 0.88353 0.0
C1915 C 0.35644 0.63776 0.88549 0.0
H1916 H 0.14367 0.59646 0.62204 0.0
H1917 H 0.11946 0.66242 0.64885 0.0
H1918 H 0.10336 0.58336 0.61766 0.0
H1919 H 0.07973 0.64962 0.6446 0.0
H1920 H 0.01142 0.62993 0.6139 0.0
H1921 H 0.05221 0.63916 0.61086 0.0
H1922 H 0.06929 0.57504 0.64769 0.0
H1923 H 0.02809 0.56574 0.65083 0.0
C1924 C 0.12973 0.60816 0.62667 0.0
C1925 C 0.13452 0.63038 0.6358 0.0
C1926 C 0.10677 0.60067 0.62436 0.0
C1927 C 0.0884 0.61551 0.63071 0.0
C1928 C 0.09343 0.63788 0.63924 0.0
C1929 C 0.11617 0.64518 0.6418 0.0
C1930 C 0.0238 0.61777 0.6214 0.0
C1931 C 0.01647 0.59734 0.63314 0.0
C1932 C 0.0472 0.62301 0.61952 0.0
C1933 C 0.06394 0.60797 0.62933 0.0
C1934 C 0.05677 0.5869 0.63985 0.0
C1935 C 0.03321 0.58162 0.64173 0.0
H1936 H 0.17815 0.61651 0.15179 0.0
H1937 H 0.12355 0.64516 0.19721 0.0
H1938 H 0.19779 0.65372 0.15184 0.0
H1939 H 0.14294 0.68264 0.19691 0.0
H1940 H 0.18731 0.74786 0.19589 0.0
H1941 H 0.17652 0.70804 0.2066 0.0
H1942 H 0.18639 0.68816 0.12909 0.0
H1943 H 0.19738 0.72741 0.11875 0.0
C1944 C 0.17064 0.63068 0.16227 0.0
C1945 C 0.14922 0.62805 0.17425 0.0
C1946 C 0.1818 0.65202 0.1622 0.0
C1947 C 0.17169 0.67129 0.17392 0.0
C1948 C 0.15125 0.66814 0.18777 0.0
C1949 C 0.14012 0.64668 0.18797 0.0
C1950 C 0.18755 0.73479 0.18135 0.0
C1951 C 0.19296 0.74074 0.15644 0.0
C1952 C 0.18124 0.71208 0.18741 0.0
C1953 C 0.18062 0.69489 0.16872 0.0
C1954 C 0.18698 0.70081 0.14407 0.0
C1955 C 0.19301 0.7234 0.13803 0.0
H1956 H 0.02748 0.46398 0.90079 0.0
H1957 H 0.01742 0.3965 0.93331 0.0
H1958 H 0.06926 0.45821 0.90234 0.0
H1959 H 0.05874 0.39034 0.93385 0.0
H1960 H 0.13352 0.3862 0.94586 0.0
H1961 H 0.09467 0.40108 0.95245 0.0
H1962 H 0.09733 0.43509 0.8803 0.0
H1963 H 0.13659 0.42122 0.87433 0.0
C1964 C 0.03414 0.44801 0.90842 0.0
C1965 C 0.01903 0.4306 0.91663 0.0
C1966 C 0.05809 0.44463 0.90915 0.0
C1967 C 0.06743 0.42379 0.9182 0.0
C1968 C 0.05227 0.40673 0.92709 0.0
C1969 C 0.02845 0.41011 0.92636 0.0
C1970 C 0.12613 0.39749 0.93178 0.0
C1971 C 0.13805 0.40218 0.90937 0.0
C1972 C 0.1037 0.40577 0.9354 0.0
C1973 C 0.09263 0.41885 0.91666 0.0
C1974 C 0.10525 0.42507 0.89515 0.0
C1975 C 0.12771 0.41689 0.89159 0.0
H1976 H 0.35032 0.39501 0.66975 0.0
H1977 H 0.41563 0.36863 0.64348 0.0
H1978 H 0.3367 0.35517 0.67639 0.0
H1979 H 0.4023 0.32934 0.64993 0.0
H1980 H 0.38133 0.26225 0.68252 0.0
H1981 H 0.39158 0.3029 0.68441 0.0
H1982 H 0.32743 0.32068 0.64794 0.0
H1983 H 0.31714 0.27975 0.64598 0.0
C1984 C 0.36177 0.3807 0.66571 0.0
C1985 C 0.38392 0.38472 0.65601 0.0
C1986 C 0.35399 0.358 0.66934 0.0
C1987 C 0.36848 0.33916 0.66375 0.0
C1988 C 0.39083 0.34343 0.65474 0.0
C1989 C 0.39842 0.36591 0.65087 0.0
C1990 C 0.36938 0.27478 0.67491 0.0
C1991 C 0.34863 0.26772 0.66364 0.0
C1992 C 0.3752 0.29809 0.67612 0.0
C1993 C 0.36043 0.31495 0.66606 0.0
C1994 C 0.33908 0.30807 0.65601 0.0
C1995 C 0.33323 0.28465 0.65481 0.0
H1996 H 0.39926 0.65681 0.43211 0.0
H1997 H 0.37947 0.59339 0.39564 0.0
H1998 H 0.43882 0.64345 0.43463 0.0
H1999 H 0.41904 0.57918 0.39928 0.0
H2000 H 0.49663 0.57547 0.37944 0.0
H2001 H 0.45534 0.58399 0.38155 0.0
H2002 H 0.46616 0.61974 0.452 0.0
H2003 H 0.50743 0.61238 0.44863 0.0
C2004 C 0.40329 0.63963 0.42538 0.0
C2005 C 0.38627 0.62612 0.41378 0.0
C2006 C 0.42606 0.63186 0.42684 0.0
C2007 C 0.43241 0.61014 0.41712 0.0
C2008 C 0.41505 0.59617 0.40652 0.0
C2009 C 0.39229 0.60418 0.40464 0.0
C2010 C 0.48995 0.58497 0.39538 0.0
C2011 C 0.50507 0.59357 0.41368 0.0
C2012 C 0.46628 0.58978 0.39677 0.0
C2013 C 0.4572 0.60288 0.41683 0.0
C2014 C 0.47241 0.61027 0.43585 0.0
C2015 C 0.49606 0.60594 0.43409 0.0
H2016 H 0.30785 0.29677 0.06366 0.0
H2017 H 0.25324 0.33882 0.09467 0.0
H2018 H 0.29109 0.30037 0.02213 0.0
H2019 H 0.23629 0.34237 0.05256 0.0
H2020 H 0.19953 0.31796 0.97991 0.0
H2021 H 0.21699 0.31756 1.02124 0.0
H2022 H 0.28397 0.32857 0.98796 0.0
H2023 H 0.2663 0.32905 0.94594 0.0
C2024 C 0.29219 0.30681 0.06173 0.0
C2025 C 0.2819 0.31745 0.0828 0.0
C2026 C 0.2827 0.30904 0.03768 0.0
C2027 C 0.26242 0.32179 0.0338 0.0
C2028 C 0.25191 0.33232 0.05484 0.0
C2029 C 0.2616 0.33029 0.07902 0.0
C2030 C 0.21802 0.32035 0.98117 0.0
C2031 C 0.23149 0.3234 0.95933 0.0
C2032 C 0.22801 0.32032 1.00508 0.0
C2033 C 0.25188 0.32312 1.0081 0.0
C2034 C 0.26549 0.32622 0.98634 0.0
C2035 C 0.2554 0.32652 0.96224 0.0
H2036 H 0.95033 0.95331 0.22387 0.0
H2037 H 0.95803 0.02073 0.19075 0.0
H2038 H 0.94871 0.97022 0.26532 0.0
H2039 H 0.95814 0.03794 0.2327 0.0
H2040 H 0.93888 0.06616 0.30884 0.0
H2041 H 0.93847 0.04888 0.26741 0.0
H2042 H 0.96698 0.98605 0.2986 0.0
H2043 H 0.96562 1.0032 0.34056 0.0
C2044 C 0.95207 0.97186 0.22549 0.0
C2045 C 0.95446 0.98565 0.20388 0.0
C2046 C 0.95133 0.98164 0.24952 0.0
C2047 C 0.9535 1.00561 0.25297 0.0
C2048 C 0.95596 0.01946 0.23119 0.0
C2049 C 0.9561 1.00963 0.20697 0.0
C2050 C 0.94492 0.04856 0.30685 0.0
C2051 C 0.95232 0.03605 0.32802 0.0
C2052 C 0.94495 0.03864 0.28287 0.0
C2053 C 0.95296 0.01597 0.27903 0.0
C2054 C 0.96026 1.00338 0.30044 0.0
C2055 C 0.95963 0.01319 0.32465 0.0
H2056 H 0.20189 0.7031 0.56069 0.0
H2057 H 0.26901 0.69225 0.59395 0.0
H2058 H 0.21907 0.70367 0.5191 0.0
H2059 H 0.28635 0.69291 0.55183 0.0
H2060 H 0.31003 0.72523 0.47671 0.0
H2061 H 0.29295 0.72164 0.51807 0.0
H2062 H 0.23875 0.67919 0.48726 0.0
H2063 H 0.25607 0.68268 0.44529 0.0
C2064 C 0.22039 0.70081 0.55921 0.0
C2065 C 0.23406 0.69781 0.58091 0.0
C2066 C 0.23021 0.70093 0.53517 0.0
C2067 C 0.2541 0.69832 0.53194 0.0
C2068 C 0.26787 0.69516 0.55359 0.0
C2069 C 0.25796 0.69473 0.57776 0.0
C2070 C 0.29443 0.7151 0.4785 0.0
C2071 C 0.28448 0.70426 0.45737 0.0
C2072 C 0.28475 0.71288 0.50246 0.0
C2073 C 0.26459 0.69995 0.50621 0.0
C2074 C 0.2543 0.68935 0.48509 0.0
C2075 C 0.2642 0.69135 0.46099 0.0
H2076 H 0.5927 0.01146 0.8485 0.0
H2077 H 0.53519 0.96668 0.83205 0.0
H2078 H 0.59206 0.02533 0.80483 0.0
H2079 H 0.53512 0.97949 0.78896 0.0
H2080 H 0.52615 0.01705 0.71681 0.0
H2081 H 0.52639 1.00903 0.76147 0.0
H2082 H 0.60078 0.01392 0.76229 0.0
H2083 H 0.60037 0.02308 0.71734 0.0
C2084 C 0.57972 1.00485 0.83576 0.0
C2085 C 0.56396 0.98798 0.84391 0.0
C2086 C 0.57955 0.01253 0.81058 0.0
C2087 C 0.56356 1.00357 0.79305 0.0
C2088 C 0.54747 0.98723 0.80167 0.0
C2089 C 0.54761 0.9797 0.82658 0.0
C2090 C 0.54263 0.01633 0.72639 0.0
C2091 C 0.56326 0.02042 0.71325 0.0
C2092 C 0.54279 0.01165 0.75218 0.0
C2093 C 0.56363 1.01049 0.76578 0.0
C2094 C 0.58433 0.01486 0.75269 0.0
C2095 C 0.58414 0.01987 0.72679 0.0
H2096 H 0.75197 0.69173 0.08875 0.0
H2097 H 0.81401 0.7206 0.05666 0.0
H2098 H 0.7344 0.69097 0.0468 0.0
H2099 H 0.79658 0.71983 1.01523 0.0
H2100 H 0.7665 0.69298 0.94027 0.0
H2101 H 0.78413 0.69291 0.98221 0.0
H2102 H 0.7202 0.71739 1.01418 0.0
H2103 H 0.70273 0.71748 0.97277 0.0
C2104 C 0.76181 0.69805 0.07289 0.0
C2105 C 0.78442 0.70625 0.07629 0.0
C2106 C 0.75176 0.69761 0.04879 0.0
C2107 C 0.76413 0.70519 0.02747 0.0
C2108 C 0.78664 0.71348 0.03101 0.0
C2109 C 0.79657 0.71409 0.05497 0.0
C2110 C 0.75629 0.69848 0.95622 0.0
C2111 C 0.73318 0.70526 0.95294 0.0
C2112 C 0.76637 0.69845 0.98031 0.0
C2113 C 0.75354 0.70499 1.00173 0.0
C2114 C 0.73053 0.71186 0.99832 0.0
C2115 C 0.72056 0.71208 0.97436 0.0
H2116 H 0.05674 0.0646 0.8081 0.0
H2117 H 0.08561 1.00251 0.84017 0.0
H2118 H 0.05785 0.04728 0.76657 0.0
H2119 H 0.08674 0.98508 0.79818 0.0
H2120 H 0.05955 0.95321 0.72466 0.0
H2121 H 0.06007 0.97093 0.76588 0.0
H2122 H 0.08462 0.03449 0.73328 0.0
H2123 H 0.08414 0.01656 0.69142 0.0
C2124 C 0.06333 0.04718 0.80638 0.0
C2125 C 0.07102 0.03496 0.82774 0.0
C2126 C 0.06415 0.03732 0.78237 0.0
C2127 C 0.07249 0.01481 0.77882 0.0
C2128 C 0.08005 1.00243 0.80016 0.0
C2129 C 0.07942 0.01241 0.82429 0.0
C2130 C 0.06509 0.97101 0.72605 0.0
C2131 C 0.07179 0.98342 0.70445 0.0
C2132 C 0.06555 0.98112 0.74991 0.0
C2133 C 0.07255 1.0041 0.75312 0.0
C2134 C 0.07901 0.01674 0.73154 0.0
C2135 C 0.07875 1.00649 0.70751 0.0
H2136 H 0.75429 0.35774 0.59791 0.0
H2137 H 0.7592 0.28408 0.58732 0.0
H2138 H 0.76045 0.36357 0.5531 0.0
H2139 H 0.76445 0.28976 0.54234 0.0
H2140 H 0.79244 0.30871 0.4641 0.0
H2141 H 0.78801 0.30179 0.50909 0.0
H2142 H 0.74226 0.36053 0.51428 0.0
H2143 H 0.74754 0.36791 0.46973 0.0
C2144 C 0.75668 0.34276 0.58601 0.0
C2145 C 0.75622 0.32044 0.59635 0.0
C2146 C 0.76 0.34607 0.56014 0.0
C2147 C 0.76267 0.32715 0.54368 0.0
C2148 C 0.76273 0.30484 0.5542 0.0
C2149 C 0.75966 0.30155 0.58013 0.0
C2150 C 0.78129 0.32003 0.47482 0.0
C2151 C 0.77047 0.33897 0.4632 0.0
C2152 C 0.77869 0.31605 0.50074 0.0
C2153 C 0.76498 0.33075 0.51575 0.0
C2154 C 0.7535 0.34916 0.50377 0.0
C2155 C 0.75632 0.35327 0.47801 0.0
H2156 H 0.46251 0.95468 0.32211 0.0
H2157 H 0.43906 0.01866 0.35508 0.0
H2158 H 0.46185 0.97207 0.28075 0.0
H2159 H 0.43842 0.03625 0.31308 0.0
H2160 H 0.4669 0.06531 0.23813 0.0
H2161 H 0.46541 0.04827 0.27972 0.0
H2162 H 0.43525 0.98655 0.24846 0.0
H2163 H 0.43674 1.00372 0.20636 0.0
C2164 C 0.45718 0.97254 0.32063 0.0
C2165 C 0.45087 0.98524 0.34219 0.0
C2166 C 0.45663 0.98246 0.29669 0.0
C2167 C 0.44993 1.00552 0.29338 0.0
C2168 C 0.4438 0.01843 0.31491 0.0
C2169 C 0.44415 1.00838 0.33902 0.0
C2170 C 0.45993 0.04806 0.23993 0.0
C2171 C 0.45202 0.03589 0.21864 0.0
C2172 C 0.45889 0.03837 0.26399 0.0
C2173 C 0.4501 0.01607 0.26764 0.0
C2174 C 0.44228 1.00374 0.24638 0.0
C2175 C 0.44312 0.01356 0.2222 0.0
H2176 H 0.75295 0.81769 0.59023 0.0
H2177 H 0.81824 0.83382 0.55564 0.0
H2178 H 0.73476 0.81705 0.54878 0.0
H2179 H 0.80015 0.83473 0.51469 0.0
H2180 H 0.76689 0.81649 0.43988 0.0
H2181 H 0.7852 0.8152 0.48129 0.0
H2182 H 0.72117 0.83742 0.51539 0.0
H2183 H 0.7029 0.83718 0.47455 0.0
C2184 C 0.76334 0.82138 0.57381 0.0
C2185 C 0.78706 0.82561 0.57632 0.0
C2186 C 0.75293 0.82118 0.5499 0.0
C2187 C 0.76585 0.82579 0.52788 0.0
C2188 C 0.78953 0.83046 0.53073 0.0
C2189 C 0.79995 0.83014 0.55445 0.0
C2190 C 0.75684 0.82105 0.4563 0.0
C2191 C 0.7334 0.82671 0.45385 0.0
C2192 C 0.76732 0.82046 0.48018 0.0
C2193 C 0.75477 0.82608 0.5022 0.0
C2194 C 0.73145 0.83229 0.49937 0.0
C2195 C 0.72093 0.83237 0.47571 0.0
H2196 H 0.4588 0.49708 0.84454 0.0
H2197 H 0.44904 0.56445 0.81198 0.0
H2198 H 0.45814 0.48 0.80247 0.0
H2199 H 0.44668 0.54769 0.77048 0.0
H2200 H 0.46393 0.51599 0.6949 0.0
H2201 H 0.46528 0.53261 0.73706 0.0
H2202 H 0.43854 0.46883 0.76764 0.0
H2203 H 0.43892 0.45206 0.72592 0.0
C2204 C 0.45617 0.50817 0.82842 0.0
C2205 C 0.45426 0.53212 0.83163 0.0
C2206 C 0.45563 0.49842 0.80415 0.0
C2207 C 0.45255 0.51234 0.7825 0.0
C2208 C 0.44986 0.53624 0.78615 0.0
C2209 C 0.45099 0.54593 0.81019 0.0
C2210 C 0.45833 0.50564 0.71071 0.0
C2211 C 0.45149 0.48269 0.70704 0.0
C2212 C 0.45894 0.51517 0.73504 0.0
C2213 C 0.45207 0.50219 0.75633 0.0
C2214 C 0.44462 0.47938 0.75225 0.0
C2215 C 0.4446 0.46976 0.72811 0.0
H2216 H 0.70364 0.19339 0.06868 0.0
H2217 H 0.76961 0.20481 0.104 0.0
H2218 H 0.72186 0.19181 0.02788 0.0
H2219 H 0.78806 0.20485 0.06268 0.0
H2220 H 0.81932 0.18518 0.98788 0.0
H2221 H 0.80091 0.18503 0.02872 0.0
H2222 H 0.7379 0.21022 0.99475 0.0
H2223 H 0.75625 0.20873 0.95343 0.0
C2224 C 0.72213 0.19593 0.06769 0.0
C2225 C 0.73512 0.19935 0.08975 0.0
C2226 C 0.73267 0.19522 0.04403 0.0
C2227 C 0.75662 0.1984 0.04136 0.0
C2228 C 0.76966 0.20188 0.06358 0.0
C2229 C 0.75909 0.20205 0.08745 0.0
C2230 C 0.80145 0.19058 0.9891 0.0
C2231 C 0.78927 0.197 0.9673 0.0
C2232 C 0.79087 0.19074 1.01276 0.0
C2233 C 0.76778 0.19785 1.01566 0.0
C2234 C 0.75554 0.2042 0.99366 0.0
C2235 C 0.76606 0.2035 0.96979 0.0
H2236 H 0.02633 0.50469 0.34709 0.0
H2237 H 0.10005 0.4951 0.34314 0.0
H2238 H 0.0252 0.51277 0.3024 0.0
H2239 H 0.09924 0.50454 0.2983 0.0
H2240 H 0.08912 0.51026 0.21256 0.0
H2241 H 0.08958 0.49553 0.25592 0.0
H2242 H 0.03336 0.54148 0.27459 0.0
H2243 H 0.03219 0.55491 0.2319 0.0
C2244 C 0.04241 0.50462 0.33672 0.0
C2245 C 0.06331 0.49954 0.34893 0.0
C2246 C 0.04182 0.50939 0.31091 0.0
C2247 C 0.06219 0.50978 0.29637 0.0
C2248 C 0.08311 0.50427 0.30855 0.0
C2249 C 0.08363 0.49907 0.33441 0.0
C2250 C 0.07656 0.51673 0.22587 0.0
C2251 C 0.06061 0.53378 0.21853 0.0
C2252 C 0.07699 0.50853 0.2509 0.0
C2253 C 0.06148 0.51719 0.26917 0.0
C2254 C 0.04531 0.53383 0.26137 0.0
C2255 C 0.04478 0.54178 0.23662 0.0
H2256 H 0.2522 0.18648 0.59496 0.0
H2257 H 0.30634 0.23 0.5656 0.0
H2258 H 0.23561 0.1836 0.55259 0.0
H2259 H 0.29 0.22693 0.52379 0.0
H2260 H 0.26725 0.19717 0.44712 0.0
H2261 H 0.28401 0.19789 0.48952 0.0
H2262 H 0.2164 0.20942 0.52105 0.0
H2263 H 0.19978 0.2089 0.47918 0.0
C2264 C 0.26052 0.19548 0.57962 0.0
C2265 C 0.28059 0.20853 0.58391 0.0
C2266 C 0.25104 0.19383 0.55531 0.0
C2267 C 0.2616 0.20489 0.53467 0.0
C2268 C 0.2816 0.21789 0.53906 0.0
C2269 C 0.29085 0.2198 0.56325 0.0
C2270 C 0.25601 0.19992 0.4631 0.0
C2271 C 0.23218 0.20314 0.45955 0.0
C2272 C 0.26559 0.20034 0.48741 0.0
C2273 C 0.25152 0.20362 0.50878 0.0
C2274 C 0.22772 0.20657 0.50516 0.0
C2275 C 0.21824 0.20647 0.48098 0.0
H2276 H 0.54231 0.56283 0.31685 0.0
H2277 H 0.59266 0.51111 0.33697 0.0
H2278 H 0.54268 0.54946 0.27386 0.0
H2279 H 0.59252 0.497 0.2934 0.0
H2280 H 0.60406 0.49662 0.20603 0.0
H2281 H 0.60433 0.50721 0.25066 0.0
H2282 H 0.53086 0.51937 0.24745 0.0
H2283 H 0.53074 0.50962 0.20319 0.0
C2284 C 0.55329 0.5483 0.31221 0.0
C2285 C 0.56745 0.53809 0.33059 0.0
C2286 C 0.55339 0.54049 0.28737 0.0
C2287 C 0.56757 0.52202 0.27988 0.0
C2288 C 0.58152 0.51141 0.29833 0.0
C2289 C 0.5814 0.51931 0.32342 0.0
C2290 C 0.58801 0.50169 0.21487 0.0
C2291 C 0.56744 0.50253 0.20078 0.0
C2292 C 0.58811 0.50755 0.24057 0.0
C2293 C 0.56764 0.51436 0.25286 0.0
C2294 C 0.5471 0.51476 0.23873 0.0
C2295 C 0.54702 0.50907 0.21317 0.0
H2296 H 0.2784 0.78008 0.95797 0.0
H2297 H 0.2747 0.85409 0.95021 0.0
H2298 H 0.27159 0.78358 1.00283 0.0
H2299 H 0.26676 0.85767 0.99509 0.0
H2300 H 0.26626 0.86125 0.07946 0.0
H2301 H 0.28036 0.8557 0.03647 0.0
H2302 H 0.24357 0.79092 0.03258 0.0
H2303 H 0.23061 0.79624 0.07564 0.0
C2304 C 0.2758 0.79715 0.96578 0.0
C2305 C 0.27695 0.81679 0.95031 0.0
C2306 C 0.27182 0.79918 0.99167 0.0
C2307 C 0.26852 0.82093 1.00299 0.0
C2308 C 0.26963 0.84061 0.98741 0.0
C2309 C 0.27392 0.83857 0.96151 0.0
C2310 C 0.26216 0.84537 0.06969 0.0
C2311 C 0.24798 0.82882 0.08114 0.0
C2312 C 0.26977 0.84238 0.04479 0.0
C2313 C 0.26297 0.82295 0.03058 0.0
C2314 C 0.24961 0.80594 0.0427 0.0
C2315 C 0.24224 0.80887 0.06757 0.0
H2316 H 0.93744 0.50464 0.70353 0.0
H2317 H 0.96694 0.56681 0.73469 0.0
H2318 H 0.93616 0.48778 0.7458 0.0
H2319 H 0.96559 0.55009 0.77648 0.0
H2320 H 0.9387 0.52068 0.85198 0.0
H2321 H 0.93828 0.53795 0.80982 0.0
H2322 H 0.96313 0.47395 0.77838 0.0
H2323 H 0.96366 0.45687 0.81992 0.0
C2324 C 0.94372 0.51468 0.71927 0.0
C2325 C 0.95238 0.53707 0.71548 0.0
C2326 C 0.943 0.50504 0.74354 0.0
C2327 C 0.95067 0.51762 0.76469 0.0
C2328 C 0.95922 0.53999 0.76082 0.0
C2329 C 0.96018 0.54949 0.73666 0.0
C2330 C 0.94418 0.51037 0.83609 0.0
C2331 C 0.95126 0.48737 0.83958 0.0
C2332 C 0.94394 0.52025 0.81188 0.0
C2333 C 0.95052 0.50729 0.79055 0.0
C2334 C 0.95759 0.48437 0.79417 0.0
C2335 C 0.95806 0.47463 0.81821 0.0
H2336 H 0.21376 0.39417 0.19928 0.0
H2337 H 0.23982 0.40183 0.12381 0.0
H2338 H 0.18457 0.42324 0.19118 0.0
H2339 H 0.20966 0.43029 0.11512 0.0
H2340 H 0.17612 0.50122 0.1195 0.0
H2341 H 0.20252 0.46933 0.12663 0.0
H2342 H 0.15016 0.4344 0.17013 0.0
H2343 H 0.1238 0.46697 0.16327 0.0
C2344 C 0.21311 0.40192 0.18081 0.0
C2345 C 0.2295 0.39603 0.16235 0.0
C2346 C 0.1961 0.41844 0.17606 0.0
C2347 C 0.19487 0.42946 0.15262 0.0
C2348 C 0.21041 0.42256 0.13362 0.0
C2349 C 0.22754 0.40603 0.13844 0.0
C2350 C 0.17025 0.48672 0.13061 0.0
C2351 C 0.14786 0.48652 0.14073 0.0
C2352 C 0.18533 0.4683 0.13451 0.0
C2353 C 0.17843 0.44899 0.14856 0.0
C2354 C 0.15614 0.44901 0.15927 0.0
C2355 C 0.14104 0.46765 0.15547 0.0
H2356 H 0.87341 0.99251 0.36633 0.0
H2357 H 0.8739 0.96613 0.44215 0.0
H2358 H 0.84485 0.96342 0.35468 0.0
H2359 H 0.84474 0.93787 0.43092 0.0
H2360 H 0.80246 0.87833 0.398 0.0
H2361 H 0.83512 0.90362 0.40784 0.0
H2362 H 0.8046 0.9575 0.36262 0.0
H2363 H 0.77245 0.93235 0.35276 0.0
C2364 C 0.86762 0.9804 0.38044 0.0
C2365 C 0.87571 0.98194 0.40526 0.0
C2366 C 0.85103 0.96387 0.37387 0.0
C2367 C 0.84217 0.94846 0.39196 0.0
C2368 C 0.85114 0.94933 0.41645 0.0
C2369 C 0.8677 0.96579 0.42298 0.0
C2370 C 0.80275 0.89562 0.39033 0.0
C2371 C 0.78495 0.90321 0.37441 0.0
C2372 C 0.82146 0.91012 0.39589 0.0
C2373 C 0.82271 0.93256 0.38574 0.0
C2374 C 0.80465 0.94017 0.3702 0.0
C2375 C 0.78609 0.92572 0.36462 0.0
H2376 H 0.29545 0.60729 0.6968 0.0
H2377 H 0.29576 0.63667 0.62228 0.0
H2378 H 0.32749 0.58269 0.6858 0.0
H2379 H 0.32928 0.61308 0.61166 0.0
H2380 H 0.36221 0.54351 0.59063 0.0
H2381 H 0.33678 0.57488 0.60172 0.0
H2382 H 0.36598 0.57622 0.67646 0.0
H2383 H 0.39041 0.54334 0.66572 0.0
C2384 C 0.30249 0.60871 0.67806 0.0
C2385 C 0.29244 0.62357 0.66021 0.0
C2386 C 0.32132 0.59479 0.67185 0.0
C2387 C 0.33104 0.59551 0.64768 0.0
C2388 C 0.32199 0.61154 0.6303 0.0
C2389 C 0.30287 0.62534 0.63646 0.0
C2390 C 0.36319 0.5503 0.60952 0.0
C2391 C 0.37798 0.54029 0.62748 0.0
C2392 C 0.34879 0.56875 0.61579 0.0
C2393 C 0.34893 0.57813 0.64015 0.0
C2394 C 0.36488 0.56916 0.65767 0.0
C2395 C 0.37916 0.55042 0.65144 0.0
H2396 H 0.64876 0.0595 0.95165 0.0
H2397 H 0.65151 0.0307 0.87696 0.0
H2398 H 0.67739 0.08822 0.94008 0.0
H2399 H 0.67975 0.0601 0.86494 0.0
H2400 H 0.75271 0.09112 0.86614 0.0
H2401 H 0.71997 0.06643 0.87479 0.0
H2402 H 0.68715 0.12191 0.91559 0.0
H2403 H 0.72029 0.14686 0.9068 0.0
C2404 C 0.65531 0.0595 0.93261 0.0
C2405 C 0.64817 0.04253 0.91535 0.0
C2406 C 0.67157 0.07617 0.92588 0.0
C2407 C 0.68115 0.07637 0.90166 0.0
C2408 C 0.67304 0.06019 0.88392 0.0
C2409 C 0.65667 0.04349 0.89068 0.0
C2410 C 0.73844 0.09826 0.87668 0.0
C2411 C 0.73913 0.12112 0.88558 0.0
C2412 C 0.71954 0.08405 0.88157 0.0
C2413 C 0.7007 0.0922 0.8956 0.0
C2414 C 0.7014 0.11501 0.90478 0.0
C2415 C 0.72042 0.12931 0.89985 0.0
H2416 H 0.1533 0.55426 0.45511 0.0
H2417 H 0.152 0.52836 0.379 0.0
H2418 H 0.18253 0.5821 0.4435 0.0
H2419 H 0.18037 0.55732 0.36696 0.0
H2420 H 0.25098 0.59074 0.36059 0.0
H2421 H 0.2202 0.56442 0.37217 0.0
H2422 H 0.19169 0.61632 0.42162 0.0
H2423 H 0.22317 0.64251 0.41031 0.0
C2424 C 0.15914 0.55451 0.43582 0.0
C2425 C 0.1505 0.5386 0.41814 0.0
C2426 C 0.17576 0.57083 0.42906 0.0
C2427 C 0.18412 0.57194 0.40433 0.0
C2428 C 0.17476 0.5567 0.38635 0.0
C2429 C 0.15821 0.54022 0.39317 0.0
C2430 C 0.23811 0.59655 0.3739 0.0
C2431 C 0.23942 0.61876 0.38442 0.0
C2432 C 0.22031 0.58149 0.38044 0.0
C2433 C 0.20313 0.58824 0.39758 0.0
C2434 C 0.20467 0.61039 0.40849 0.0
C2435 C 0.2227 0.62543 0.40208 0.0
H2436 H 0.67095 0.99492 0.5996 0.0
H2437 H 0.63228 0.97666 0.66604 0.0
H2438 H 0.69646 0.96234 0.60643 0.0
H2439 H 0.65707 0.9432 0.67207 0.0
H2440 H 0.72567 0.90941 0.69546 0.0
H2441 H 0.69506 0.93651 0.68598 0.0
H2442 H 0.70265 0.92169 0.60683 0.0
H2443 H 0.73434 0.89509 0.61648 0.0
C2444 C 0.66771 0.98391 0.6156 0.0
C2445 C 0.64969 0.98888 0.63254 0.0
C2446 C 0.68221 0.96487 0.61929 0.0
C2447 C 0.67907 0.95009 0.63994 0.0
C2448 C 0.66036 0.9544 0.6562 0.0
C2449 C 0.64591 0.97354 0.65259 0.0
C2450 C 0.72084 0.91187 0.676 0.0
C2451 C 0.7328 0.90036 0.6567 0.0
C2452 C 0.70297 0.92725 0.67055 0.0
C2453 C 0.69633 0.93154 0.64559 0.0
C2454 C 0.70751 0.91914 0.62627 0.0
C2455 C 0.72552 0.90368 0.63177 0.0
H2456 H 0.39247 0.46415 0.8873 0.0
H2457 H 0.34077 0.5056 0.92408 0.0
H2458 H 0.36294 0.43477 0.87763 0.0
H2459 H 0.31146 0.47675 0.91438 0.0
H2460 H 0.26256 0.43373 0.86517 0.0
H2461 H 0.29321 0.46136 0.87393 0.0
H2462 H 0.33535 0.40666 0.90436 0.0
H2463 H 0.30421 0.37877 0.89559 0.0
C2464 C 0.37476 0.46707 0.89296 0.0
C2465 C 0.36881 0.4871 0.90634 0.0
C2466 C 0.35798 0.45022 0.88774 0.0
C2467 C 0.33493 0.45345 0.89538 0.0
C2468 C 0.32903 0.47379 0.9082 0.0
C2469 C 0.34577 0.49029 0.91375 0.0
C2470 C 0.27834 0.4276 0.87378 0.0
C2471 C 0.28102 0.40413 0.87973 0.0
C2472 C 0.29587 0.44341 0.87883 0.0
C2473 C 0.31672 0.43615 0.88969 0.0
C2474 C 0.31951 0.41266 0.89574 0.0
C2475 C 0.30168 0.3968 0.89103 0.0
H2476 H 0.87354 0.02974 0.16964 0.0
H2477 H 0.87303 0.05869 0.09493 0.0
H2478 H 0.84538 0.05865 0.18294 0.0
H2479 H 0.84414 0.08657 0.10769 0.0
H2480 H 0.80269 0.14536 0.14236 0.0
H2481 H 0.83485 0.11991 0.1312 0.0
H2482 H 0.80546 0.06603 0.17725 0.0
H2483 H 0.77391 0.09153 0.18863 0.0
C2484 C 0.86759 0.04232 0.1561 0.0
C2485 C 0.87534 0.04156 0.13111 0.0
C2486 C 0.85118 0.05876 0.16361 0.0
C2487 C 0.84211 0.07483 0.14631 0.0
C2488 C 0.85069 0.07465 0.12163 0.0
C2489 C 0.86711 0.05835 0.11419 0.0
C2490 C 0.80312 0.12804 0.14993 0.0
C2491 C 0.78583 0.12055 0.1665 0.0
C2492 C 0.82156 0.11341 0.1436 0.0
C2493 C 0.82299 0.09088 0.15352 0.0
C2494 C 0.80541 0.08339 0.16976 0.0
C2495 C 0.78717 0.09802 0.17619 0.0
H2496 H 0.8373 0.51842 0.92889 0.0
H2497 H 0.89182 0.55868 0.89563 0.0
H2498 H 0.80923 0.54793 0.91735 0.0
H2499 H 0.86349 0.58868 0.88408 0.0
H2500 H 0.80458 0.64576 0.89734 0.0
H2501 H 0.8346 0.61744 0.90887 0.0
H2502 H 0.79403 0.56323 0.87516 0.0
H2503 H 0.76451 0.5913 0.86363 0.0
C2504 C 0.84323 0.53364 0.91904 0.0
C2505 C 0.8667 0.5363 0.91312 0.0
C2506 C 0.82718 0.55051 0.91241 0.0
C2507 C 0.83419 0.57065 0.89995 0.0
C2508 C 0.85768 0.57339 0.89389 0.0
C2509 C 0.87379 0.5562 0.9002 0.0
C2510 C 0.80214 0.62775 0.89267 0.0
C2511 C 0.78228 0.62066 0.87963 0.0
C2512 C 0.81934 0.61164 0.89896 0.0
C2513 C 0.81666 0.58817 0.89277 0.0
C2514 C 0.79656 0.58116 0.88019 0.0
C2515 C 0.77969 0.59722 0.87358 0.0
H2516 H 0.18526 0.0118 0.61517 0.0
H2517 H 0.12877 0.05468 0.63977 0.0
H2518 H 0.2124 0.04282 0.62415 0.0
H2519 H 0.15618 0.08615 0.64881 0.0
H2520 H 0.21451 0.14252 0.63326 0.0
H2521 H 0.18579 0.11258 0.62273 0.0
H2522 H 0.22541 0.0626 0.66466 0.0
H2523 H 0.25358 0.09233 0.67519 0.0
C2524 C 0.17868 0.02794 0.62253 0.0
C2525 C 0.15494 0.03087 0.62679 0.0
C2526 C 0.19421 0.04566 0.6277 0.0
C2527 C 0.18639 0.06693 0.63702 0.0
C2528 C 0.16262 0.06998 0.64138 0.0
C2529 C 0.14702 0.05197 0.63654 0.0
C2530 C 0.21707 0.12503 0.63983 0.0
C2531 C 0.2362 0.1196 0.65491 0.0
C2532 C 0.2006 0.10803 0.63413 0.0
C2533 C 0.20335 0.08531 0.64301 0.0
C2534 C 0.22286 0.07991 0.6575 0.0
C2535 C 0.23897 0.09687 0.66351 0.0
H2536 H 0.64807 0.48912 0.36104 0.0
H2537 H 0.6521 0.46437 0.43734 0.0
H2538 H 0.67415 0.45812 0.34767 0.0
H2539 H 0.67872 0.43445 0.42452 0.0
H2540 H 0.72024 0.37592 0.39789 0.0
H2541 H 0.68612 0.39985 0.40326 0.0
H2542 H 0.71413 0.44969 0.35123 0.0
H2543 H 0.74746 0.42509 0.34465 0.0
C2544 C 0.65427 0.47692 0.37487 0.0
C2545 C 0.64833 0.47948 0.40031 0.0
C2546 C 0.66942 0.45928 0.36731 0.0
C2547 C 0.67884 0.4438 0.38502 0.0
C2548 C 0.67178 0.44575 0.4102 0.0
C2549 C 0.65671 0.46322 0.41767 0.0
C2550 C 0.71892 0.39165 0.38707 0.0
C2551 C 0.73699 0.39868 0.37119 0.0
C2552 C 0.69939 0.40559 0.39039 0.0
C2553 C 0.69745 0.42704 0.3781 0.0
C2554 C 0.71484 0.43333 0.36101 0.0
C2555 C 0.73424 0.41931 0.35752 0.0
H2556 H 0.33807 1.00625 0.1272 0.0
H2557 H 0.39002 0.96649 0.16575 0.0
H2558 H 0.30911 0.97744 0.13755 0.0
H2559 H 0.36071 0.93723 0.17642 0.0
H2560 H 0.30436 0.87942 0.15874 0.0
H2561 H 0.33532 0.90777 0.15258 0.0
H2562 H 0.28887 0.96232 0.17482 0.0
H2563 H 0.25812 0.93438 0.1804 0.0
C2564 C 0.34321 0.99135 0.13812 0.0
C2565 C 0.36628 0.98858 0.14565 0.0
C2566 C 0.3266 0.97488 0.14416 0.0
C2567 C 0.33257 0.95499 0.15778 0.0
C2568 C 0.35562 0.9523 0.16574 0.0
C2569 C 0.37231 0.96909 0.15992 0.0
C2570 C 0.3008 0.89747 0.16223 0.0
C2571 C 0.2787 0.90457 0.17005 0.0
C2572 C 0.31859 0.91367 0.159 0.0
C2573 C 0.31456 0.93731 0.16322 0.0
C2574 C 0.29254 0.94428 0.17126 0.0
C2575 C 0.27491 0.92818 0.17464 0.0
H2576 H 0.80487 0.38047 0.66807 0.0
H2577 H 0.75843 0.43632 0.68622 0.0
H2578 H 0.8357 0.40853 0.65996 0.0
H2579 H 0.78907 0.46407 0.67851 0.0
H2580 H 0.83813 0.50412 0.62586 0.0
H2581 H 0.80919 0.47616 0.63896 0.0
H2582 H 0.86067 0.43996 0.6824 0.0
H2583 H 0.88987 0.46841 0.66914 0.0
C2584 C 0.80126 0.39867 0.6704 0.0
C2585 C 0.77915 0.40612 0.67776 0.0
C2586 C 0.81896 0.4147 0.66604 0.0
C2587 C 0.81479 0.4385 0.66861 0.0
C2588 C 0.7928 0.44586 0.67627 0.0
C2589 C 0.77526 0.42991 0.68085 0.0
C2590 C 0.84322 0.49031 0.63837 0.0
C2591 C 0.8662 0.48838 0.64648 0.0
C2592 C 0.82664 0.47434 0.64597 0.0
C2593 C 0.83264 0.45582 0.66168 0.0
C2594 C 0.8556 0.454 0.67016 0.0
C2595 C 0.87221 0.47032 0.66282 0.0
H2596 H 0.27981 0.12361 0.42546 0.0
H2597 H 0.30743 0.12304 0.35021 0.0
H2598 H 0.30925 0.09566 0.43834 0.0
H2599 H 0.33629 0.09476 0.36272 0.0
H2600 H 0.39552 0.05338 0.39791 0.0
H2601 H 0.37047 0.08614 0.38767 0.0
H2602 H 0.31509 0.05484 0.42983 0.0
H2603 H 0.33978 0.0224 0.43981 0.0
C2604 C 0.29237 0.1178 0.41179 0.0
C2605 C 0.29107 0.12529 0.38675 0.0
C2606 C 0.30909 0.1016 0.41905 0.0
C2607 C 0.32498 0.09268 0.40147 0.0
C2608 C 0.32444 0.10124 0.3768 0.0
C2609 C 0.30771 0.1173 0.36955 0.0
C2610 C 0.37797 0.05347 0.40486 0.0
C2611 C 0.36983 0.03528 0.4199 0.0
C2612 C 0.36362 0.07229 0.39908 0.0
C2613 C 0.34082 0.07333 0.40824 0.0
C2614 C 0.33271 0.055 0.42304 0.0
C2615 C 0.34694 0.03628 0.42871 0.0
H2616 H 0.71622 0.64292 0.12517 0.0
H2617 H 0.75256 0.59417 0.1718 0.0
H2618 H 0.68817 0.61264 0.11378 0.0
H2619 H 0.72503 0.56413 0.16046 0.0
H2620 H 0.68694 0.51083 0.11365 0.0
H2621 H 0.71386 0.54233 0.12097 0.0
H2622 H 0.65702 0.58776 0.13833 0.0
H2623 H 0.62979 0.55594 0.1308 0.0
C2624 C 0.71835 0.62567 0.13263 0.0
C2625 C 0.73649 0.6208 0.14932 0.0
C2626 C 0.70224 0.60847 0.12637 0.0
C2627 C 0.7044 0.58605 0.1363 0.0
C2628 C 0.72296 0.58117 0.1524 0.0
C2629 C 0.73869 0.59835 0.15894 0.0
C2630 C 0.6801 0.52756 0.11878 0.0
C2631 C 0.6562 0.53088 0.12162 0.0
C2632 C 0.69555 0.54559 0.1231 0.0
C2633 C 0.68756 0.56752 0.13016 0.0
C2634 C 0.66364 0.57107 0.13268 0.0
C2635 C 0.6481 0.55284 0.12866 0.0
H2636 H 0.15148 0.96279 0.93573 0.0
H2637 H 0.15472 0.99341 0.862 0.0
H2638 H 0.17999 0.93409 0.92338 0.0
H2639 H 0.18312 0.96424 0.84927 0.0
H2640 H 0.25673 0.9326 0.85254 0.0
H2641 H 0.22373 0.95724 0.86029 0.0
H2642 H 0.18861 0.90079 0.89671 0.0
H2643 H 0.22173 0.87577 0.88867 0.0
C2644 C 0.15812 0.96319 0.91673 0.0
C2645 C 0.15109 0.98055 0.89993 0.0
C2646 C 0.17431 0.94657 0.90956 0.0
C2647 C 0.18403 0.94693 0.88539 0.0
C2648 C 0.17619 0.96366 0.86815 0.0
C2649 C 0.15979 0.98023 0.87532 0.0
C2650 C 0.24192 0.92515 0.86181 0.0
C2651 C 0.24209 0.902 0.86991 0.0
C2652 C 0.22287 0.93939 0.86622 0.0
C2653 C 0.20342 0.93102 0.879 0.0
C2654 C 0.2034 0.90786 0.88697 0.0
C2655 C 0.22246 0.89351 0.88244 0.0
loop_
_geom_bond_atom_site_label_1
_geom_bond_atom_site_label_2
_geom_bond_distance
_geom_bond_site_symmetry_2
_ccdc_geom_bond_type
C0 C1 1.351 . S
C0 N3 1.368 . S
C0 H5 0.931 . S
C1 C0 1.351 . S
C1 N2 1.373 . S
C1 H29 0.930 . S
N2 C1 1.373 . S
N2 C4 1.340 . S
N3 C0 1.368 . S
N3 C4 1.321 . S
N3 Co6 2.135 . S
C4 N2 1.340 . S
C4 N3 1.321 . S
C4 H28 0.930 . S
H5 C0 0.931 . S
Co6 N3 2.135 . S
Co6 N9 2.121 . S
Co6 O14 2.055 . S
Co6 O17 2.039 . S
Co6 N20 2.140 . S
C7 O8 1.227 . S
C7 O17 1.265 . S
O8 C7 1.227 . S
N9 Co6 2.121 . S
N9 C11 1.375 . S
N9 C12 1.313 . S
C10 C11 1.338 . S
C10 N13 1.377 . S
C10 H30 0.930 . S
C11 N9 1.375 . S
C11 C10 1.338 . S
C11 H15 0.931 . S
C12 N9 1.313 . S
C12 N13 1.344 . S
C12 H16 0.930 . S
N13 C10 1.377 . S
N13 C12 1.344 . S
O14 Co6 2.055 . S
O14 C18 1.253 . S
H15 C11 0.931 . S
H16 C12 0.930 . S
O17 Co6 2.039 . S
O17 C7 1.265 . S
C18 O14 1.253 . S
C18 O19 1.227 . S
O19 C18 1.227 . S
N20 Co6 2.140 . S
N20 C23 1.346 . S
N20 C24 1.345 . S
C21 C22 1.387 . S
C21 C25 1.391 . S
C22 C21 1.387 . S
C22 C23 1.369 . S
C22 H31 0.929 . S
C23 N20 1.346 . S
C23 C22 1.369 . S
C23 H26 0.928 . S
C24 N20 1.345 . S
C24 C25 1.371 . S
C24 H27 0.931 . S
C25 C21 1.391 . S
C25 C24 1.371 . S
C25 H32 0.930 . S
H26 C23 0.928 . S
H27 C24 0.931 . S
H28 C4 0.930 . S
H29 C1 0.930 . S
H30 C10 0.930 . S
H31 C22 0.929 . S
H32 C25 0.930 . S
C33 C34 1.351 1_545 S
C33 N36 1.368 . S
C33 H38 0.931 . S
C34 C33 1.351 1_565 S
C34 N35 1.373 . S
C34 H62 0.930 . S
N35 C34 1.373 . S
N35 C37 1.340 1_565 S
N36 C33 1.368 . S
N36 C37 1.321 . S
N36 Co39 2.135 . S
C37 N35 1.340 1_545 S
C37 N36 1.321 . S
C37 H61 0.930 1_545 S
H38 C33 0.931 . S
Co39 N36 2.135 . S
Co39 N42 2.121 . S
Co39 O47 2.055 . S
Co39 O50 2.039 . S
Co39 N53 2.140 . S
C40 O41 1.227 . S
C40 O50 1.265 . S
O41 C40 1.227 . S
N42 Co39 2.121 . S
N42 C44 1.375 . S
N42 C45 1.313 . S
C43 C44 1.338 . S
C43 N46 1.377 1_655 S
C43 H63 0.930 . S
C44 N42 1.375 . S
C44 C43 1.338 . S
C44 H48 0.931 . S
C45 N42 1.313 . S
C45 N46 1.344 1_655 S
C45 H49 0.930 . S
N46 C43 1.377 1_455 S
N46 C45 1.344 1_455 S
O47 Co39 2.055 . S
O47 C51 1.253 . S
H48 C44 0.931 . S
H49 C45 0.930 . S
O50 Co39 2.039 . S
O50 C40 1.265 . S
C51 O47 1.253 . S
C51 O52 1.227 . S
O52 C51 1.227 . S
N53 Co39 2.140 . S
N53 C56 1.346 . S
N53 C57 1.345 . S
C54 C55 1.387 . S
C54 C58 1.391 . S
C55 C54 1.387 . S
C55 C56 1.369 . S
C55 H64 0.929 . S
C56 N53 1.346 . S
C56 C55 1.369 . S
C56 H59 0.928 . S
C57 N53 1.345 . S
C57 C58 1.371 . S
C57 H60 0.931 . S
C58 C54 1.391 . S
C58 C57 1.371 . S
C58 H65 0.930 . S
H59 C56 0.928 . S
H60 C57 0.931 . S
H61 C37 0.930 1_565 S
H62 C34 0.930 . S
H63 C43 0.930 . S
H64 C55 0.929 . S
H65 C58 0.930 . S
C66 C67 1.351 . S
C66 N69 1.368 . S
C66 H71 0.931 . S
C67 C66 1.351 . S
C67 N68 1.373 . S
C67 H95 0.930 . S
N68 C67 1.373 . S
N68 C70 1.340 . S
N69 C66 1.368 . S
N69 C70 1.321 . S
N69 Co72 2.135 . S
C70 N68 1.340 . S
C70 N69 1.321 . S
C70 H94 0.930 . S
H71 C66 0.931 . S
Co72 N69 2.135 . S
Co72 N75 2.121 . S
Co72 O80 2.055 . S
Co72 O83 2.039 . S
Co72 N86 2.140 . S
C73 O74 1.227 . S
C73 O83 1.265 . S
O74 C73 1.227 . S
N75 Co72 2.121 . S
N75 C77 1.375 . S
N75 C78 1.313 . S
C76 C77 1.338 . S
C76 N79 1.377 . S
C76 H96 0.930 . S
C77 N75 1.375 . S
C77 C76 1.338 . S
C77 H81 0.931 . S
C78 N75 1.313 . S
C78 N79 1.344 . S
C78 H82 0.930 . S
N79 C76 1.377 . S
N79 C78 1.344 . S
O80 Co72 2.055 . S
O80 C84 1.253 . S
H81 C77 0.931 . S
H82 C78 0.930 . S
O83 Co72 2.039 . S
O83 C73 1.265 . S
C84 O80 1.253 . S
C84 O85 1.227 . S
O85 C84 1.227 . S
N86 Co72 2.140 . S
N86 C89 1.346 . S
N86 C90 1.345 . S
C87 C88 1.387 . S
C87 C91 1.391 . S
C88 C87 1.387 . S
C88 C89 1.369 . S
C88 H97 0.929 . S
C89 N86 1.346 . S
C89 C88 1.369 . S
C89 H92 0.928 . S
C90 N86 1.345 . S
C90 C91 1.371 . S
C90 H93 0.931 . S
C91 C87 1.391 . S
C91 C90 1.371 . S
C91 H98 0.930 . S
H92 C89 0.928 . S
H93 C90 0.931 . S
H94 C70 0.930 . S
H95 C67 0.930 . S
H96 C76 0.930 . S
H97 C88 0.929 . S
H98 C91 0.930 . S
C99 C100 1.351 1_565 S
C99 N102 1.368 . S
C99 H104 0.931 . S
C100 C99 1.351 1_545 S
C100 N101 1.373 . S
C100 H128 0.930 . S
N101 C100 1.373 . S
N101 C103 1.340 1_545 S
N102 C99 1.368 . S
N102 C103 1.321 . S
N102 Co105 2.135 . S
C103 N101 1.340 1_565 S
C103 N102 1.321 . S
C103 H127 0.930 1_565 S
H104 C99 0.931 . S
Co105 N102 2.135 . S
Co105 N108 2.121 . S
Co105 O113 2.055 . S
Co105 O116 2.039 . S
Co105 N119 2.140 . S
C106 O107 1.227 . S
C106 O116 1.265 . S
O107 C106 1.227 . S
N108 Co105 2.121 . S
N108 C110 1.375 . S
N108 C111 1.313 . S
C109 C110 1.338 . S
C109 N112 1.377 . S
C109 H129 0.930 . S
C110 N108 1.375 . S
C110 C109 1.338 . S
C110 H114 0.931 . S
C111 N108 1.313 . S
C111 N112 1.344 . S
C111 H115 0.930 . S
N112 C109 1.377 . S
N112 C111 1.344 . S
O113 Co105 2.055 . S
O113 C117 1.253 . S
H114 C110 0.931 . S
H115 C111 0.930 . S
O116 Co105 2.039 . S
O116 C106 1.265 . S
C117 O113 1.253 . S
C117 O118 1.227 . S
O118 C117 1.227 . S
N119 Co105 2.140 . S
N119 C122 1.346 . S
N119 C123 1.345 . S
C120 C121 1.387 . S
C120 C124 1.391 . S
C121 C120 1.387 . S
C121 C122 1.369 . S
C121 H130 0.929 . S
C122 N119 1.346 . S
C122 C121 1.369 . S
C122 H125 0.928 . S
C123 N119 1.345 . S
C123 C124 1.371 . S
C123 H126 0.931 . S
C124 C120 1.391 . S
C124 C123 1.371 . S
C124 H131 0.930 . S
H125 C122 0.928 . S
H126 C123 0.931 . S
H127 C103 0.930 1_545 S
H128 C100 0.930 . S
H129 C109 0.930 . S
H130 C121 0.929 . S
H131 C124 0.930 . S
C132 C133 1.351 . S
C132 N135 1.368 . S
C132 H137 0.931 . S
C133 C132 1.351 . S
C133 N134 1.373 . S
C133 H161 0.930 . S
N134 C133 1.373 . S
N134 C136 1.340 . S
N135 C132 1.368 . S
N135 C136 1.321 . S
N135 Co138 2.135 . S
C136 N134 1.340 . S
C136 N135 1.321 . S
C136 H160 0.930 . S
H137 C132 0.931 . S
Co138 N135 2.135 . S
Co138 N141 2.121 . S
Co138 O146 2.055 . S
Co138 O149 2.039 . S
Co138 N152 2.140 . S
C139 O140 1.227 . S
C139 O149 1.265 . S
O140 C139 1.227 . S
N141 Co138 2.121 . S
N141 C143 1.375 . S
N141 C144 1.313 . S
C142 C143 1.338 . S
C142 N145 1.377 . S
C142 H162 0.930 . S
C143 N141 1.375 . S
C143 C142 1.338 . S
C143 H147 0.931 . S
C144 N141 1.313 . S
C144 N145 1.344 . S
C144 H148 0.930 . S
N145 C142 1.377 . S
N145 C144 1.344 . S
O146 Co138 2.055 . S
O146 C150 1.253 . S
H147 C143 0.931 . S
H148 C144 0.930 . S
O149 Co138 2.039 . S
O149 C139 1.265 . S
C150 O146 1.253 . S
C150 O151 1.227 . S
O151 C150 1.227 . S
N152 Co138 2.140 . S
N152 C155 1.346 . S
N152 C156 1.345 . S
C153 C154 1.387 . S
C153 C157 1.391 . S
C154 C153 1.387 . S
C154 C155 1.369 . S
C154 H163 0.929 . S
C155 N152 1.346 . S
C155 C154 1.369 . S
C155 H158 0.928 . S
C156 N152 1.345 . S
C156 C157 1.371 . S
C156 H159 0.931 . S
C157 C153 1.391 . S
C157 C156 1.371 . S
C157 H164 0.930 . S
H158 C155 0.928 . S
H159 C156 0.931 . S
H160 C136 0.930 . S
H161 C133 0.930 . S
H162 C142 0.930 . S
H163 C154 0.929 . S
H164 C157 0.930 . S
C165 C166 1.351 1_545 S
C165 N168 1.368 . S
C165 H170 0.931 . S
C166 C165 1.351 1_565 S
C166 N167 1.373 . S
C166 H194 0.930 . S
N167 C166 1.373 . S
N167 C169 1.340 1_565 S
N168 C165 1.368 . S
N168 C169 1.321 . S
N168 Co171 2.135 . S
C169 N167 1.340 1_545 S
C169 N168 1.321 . S
C169 H193 0.930 1_545 S
H170 C165 0.931 . S
Co171 N168 2.135 . S
Co171 N174 2.121 . S
Co171 O179 2.055 . S
Co171 O182 2.039 . S
Co171 N185 2.140 . S
C172 O173 1.227 . S
C172 O182 1.265 . S
O173 C172 1.227 . S
N174 Co171 2.121 . S
N174 C176 1.375 . S
N174 C177 1.313 . S
C175 C176 1.338 . S
C175 N178 1.377 . S
C175 H195 0.930 . S
C176 N174 1.375 . S
C176 C175 1.338 . S
C176 H180 0.931 . S
C177 N174 1.313 . S
C177 N178 1.344 . S
C177 H181 0.930 . S
N178 C175 1.377 . S
N178 C177 1.344 . S
O179 Co171 2.055 . S
O179 C183 1.253 . S
H180 C176 0.931 . S
H181 C177 0.930 . S
O182 Co171 2.039 . S
O182 C172 1.265 . S
C183 O179 1.253 . S
C183 O184 1.227 . S
O184 C183 1.227 . S
N185 Co171 2.140 . S
N185 C188 1.346 . S
N185 C189 1.345 . S
C186 C187 1.387 . S
C186 C190 1.391 . S
C187 C186 1.387 . S
C187 C188 1.369 . S
C187 H196 0.929 . S
C188 N185 1.346 . S
C188 C187 1.369 . S
C188 H191 0.928 . S
C189 N185 1.345 . S
C189 C190 1.371 . S
C189 H192 0.931 . S
C190 C186 1.391 . S
C190 C189 1.371 . S
C190 H197 0.930 . S
H191 C188 0.928 . S
H192 C189 0.931 . S
H193 C169 0.930 1_565 S
H194 C166 0.930 . S
H195 C175 0.930 . S
H196 C187 0.929 . S
H197 C190 0.930 . S
C198 C199 1.351 . S
C198 N201 1.368 . S
C198 H203 0.931 . S
C199 C198 1.351 . S
C199 N200 1.373 . S
C199 H227 0.930 . S
N200 C199 1.373 . S
N200 C202 1.340 . S
N201 C198 1.368 . S
N201 C202 1.321 . S
N201 Co204 2.135 . S
C202 N200 1.340 . S
C202 N201 1.321 . S
C202 H226 0.930 . S
H203 C198 0.931 . S
Co204 N201 2.135 . S
Co204 N207 2.121 . S
Co204 O212 2.055 . S
Co204 O215 2.039 . S
Co204 N218 2.140 . S
C205 O206 1.227 . S
C205 O215 1.265 . S
O206 C205 1.227 . S
N207 Co204 2.121 . S
N207 C209 1.375 . S
N207 C210 1.313 . S
C208 C209 1.338 . S
C208 N211 1.377 . S
C208 H228 0.930 . S
C209 N207 1.375 . S
C209 C208 1.338 . S
C209 H213 0.931 . S
C210 N207 1.313 . S
C210 N211 1.344 . S
C210 H214 0.930 . S
N211 C208 1.377 . S
N211 C210 1.344 . S
O212 Co204 2.055 . S
O212 C216 1.253 . S
H213 C209 0.931 . S
H214 C210 0.930 . S
O215 Co204 2.039 . S
O215 C205 1.265 . S
C216 O212 1.253 . S
C216 O217 1.227 . S
O217 C216 1.227 . S
N218 Co204 2.140 . S
N218 C221 1.346 . S
N218 C222 1.345 . S
C219 C220 1.387 . S
C219 C223 1.391 . S
C220 C219 1.387 . S
C220 C221 1.369 . S
C220 H229 0.929 . S
C221 N218 1.346 . S
C221 C220 1.369 . S
C221 H224 0.928 . S
C222 N218 1.345 . S
C222 C223 1.371 . S
C222 H225 0.931 . S
C223 C219 1.391 . S
C223 C222 1.371 . S
C223 H230 0.930 . S
H224 C221 0.928 . S
H225 C222 0.931 . S
H226 C202 0.930 . S
H227 C199 0.930 . S
H228 C208 0.930 . S
H229 C220 0.929 . S
H230 C223 0.930 . S
C231 C232 1.351 1_565 S
C231 N234 1.368 . S
C231 H236 0.931 . S
C232 C231 1.351 1_545 S
C232 N233 1.373 . S
C232 H260 0.930 . S
N233 C232 1.373 . S
N233 C235 1.340 1_545 S
N234 C231 1.368 . S
N234 C235 1.321 . S
N234 Co237 2.135 . S
C235 N233 1.340 1_565 S
C235 N234 1.321 . S
C235 H259 0.930 1_565 S
H236 C231 0.931 . S
Co237 N234 2.135 . S
Co237 N240 2.121 . S
Co237 O245 2.055 . S
Co237 O248 2.039 . S
Co237 N251 2.140 . S
C238 O239 1.227 . S
C238 O248 1.265 . S
O239 C238 1.227 . S
N240 Co237 2.121 . S
N240 C242 1.375 . S
N240 C243 1.313 . S
C241 C242 1.338 . S
C241 N244 1.377 1_655 S
C241 H261 0.930 . S
C242 N240 1.375 . S
C242 C241 1.338 . S
C242 H246 0.931 . S
C243 N240 1.313 . S
C243 N244 1.344 1_655 S
C243 H247 0.930 . S
N244 C241 1.377 1_455 S
N244 C243 1.344 1_455 S
O245 Co237 2.055 . S
O245 C249 1.253 . S
H246 C242 0.931 . S
H247 C243 0.930 . S
O248 Co237 2.039 . S
O248 C238 1.265 . S
C249 O245 1.253 . S
C249 O250 1.227 . S
O250 C249 1.227 . S
N251 Co237 2.140 . S
N251 C254 1.346 . S
N251 C255 1.345 . S
C252 C253 1.387 . S
C252 C256 1.391 . S
C253 C252 1.387 . S
C253 C254 1.369 . S
C253 H262 0.929 . S
C254 N251 1.346 . S
C254 C253 1.369 . S
C254 H257 0.928 . S
C255 N251 1.345 . S
C255 C256 1.371 . S
C255 H258 0.931 . S
C256 C252 1.391 . S
C256 C255 1.371 . S
C256 H263 0.930 . S
H257 C254 0.928 . S
H258 C255 0.931 . S
H259 C235 0.930 1_545 S
H260 C232 0.930 . S
H261 C241 0.930 . S
H262 C253 0.929 . S
H263 C256 0.930 . S
C264 C265 1.351 . S
C264 N267 1.368 . S
C264 H269 0.931 . S
C265 C264 1.351 . S
C265 N266 1.373 . S
C265 H293 0.930 . S
N266 C265 1.373 . S
N266 C268 1.340 . S
N267 C264 1.368 . S
N267 C268 1.321 . S
N267 Co270 2.135 . S
C268 N266 1.340 . S
C268 N267 1.321 . S
C268 H292 0.930 . S
H269 C264 0.931 . S
Co270 N267 2.135 . S
Co270 N273 2.121 . S
Co270 O278 2.055 . S
Co270 O281 2.039 . S
Co270 N284 2.140 . S
C271 O272 1.227 . S
C271 O281 1.265 . S
O272 C271 1.227 . S
N273 Co270 2.121 . S
N273 C275 1.375 . S
N273 C276 1.313 . S
C274 C275 1.338 . S
C274 N277 1.377 . S
C274 H294 0.930 . S
C275 N273 1.375 . S
C275 C274 1.338 . S
C275 H279 0.931 . S
C276 N273 1.313 . S
C276 N277 1.344 . S
C276 H280 0.930 . S
N277 C274 1.377 . S
N277 C276 1.344 . S
O278 Co270 2.055 . S
O278 C282 1.253 . S
H279 C275 0.931 . S
H280 C276 0.930 . S
O281 Co270 2.039 . S
O281 C271 1.265 . S
C282 O278 1.253 . S
C282 O283 1.227 . S
O283 C282 1.227 . S
N284 Co270 2.140 . S
N284 C287 1.346 . S
N284 C288 1.345 . S
C285 C286 1.387 . S
C285 C289 1.391 . S
C286 C285 1.387 . S
C286 C287 1.369 . S
C286 H295 0.929 . S
C287 N284 1.346 . S
C287 C286 1.369 . S
C287 H290 0.928 . S
C288 N284 1.345 . S
C288 C289 1.371 . S
C288 H291 0.931 . S
C289 C285 1.391 . S
C289 C288 1.371 . S
C289 H296 0.930 . S
H290 C287 0.928 . S
H291 C288 0.931 . S
H292 C268 0.930 . S
H293 C265 0.930 . S
H294 C274 0.930 . S
H295 C286 0.929 . S
H296 C289 0.930 . S
C297 C298 1.351 1_565 S
C297 N300 1.368 . S
C297 H302 0.931 . S
C298 C297 1.351 1_545 S
C298 N299 1.373 . S
C298 H326 0.930 . S
N299 C298 1.373 . S
N299 C301 1.340 1_545 S
N300 C297 1.368 . S
N300 C301 1.321 . S
N300 Co303 2.135 . S
C301 N299 1.340 1_565 S
C301 N300 1.321 . S
C301 H325 0.930 1_565 S
H302 C297 0.931 . S
Co303 N300 2.135 . S
Co303 N306 2.121 . S
Co303 O311 2.055 . S
Co303 O314 2.039 . S
Co303 N317 2.140 . S
C304 O305 1.227 . S
C304 O314 1.265 . S
O305 C304 1.227 . S
N306 Co303 2.121 . S
N306 C308 1.375 . S
N306 C309 1.313 . S
C307 C308 1.338 . S
C307 N310 1.377 1_455 S
C307 H327 0.930 . S
C308 N306 1.375 . S
C308 C307 1.338 . S
C308 H312 0.931 . S
C309 N306 1.313 . S
C309 N310 1.344 1_455 S
C309 H313 0.930 . S
N310 C307 1.377 1_655 S
N310 C309 1.344 1_655 S
O311 Co303 2.055 . S
O311 C315 1.253 . S
H312 C308 0.931 . S
H313 C309 0.930 . S
O314 Co303 2.039 . S
O314 C304 1.265 . S
C315 O311 1.253 . S
C315 O316 1.227 . S
O316 C315 1.227 . S
N317 Co303 2.140 . S
N317 C320 1.346 . S
N317 C321 1.345 . S
C318 C319 1.387 . S
C318 C322 1.391 . S
C319 C318 1.387 . S
C319 C320 1.369 . S
C319 H328 0.929 . S
C320 N317 1.346 . S
C320 C319 1.369 . S
C320 H323 0.928 . S
C321 N317 1.345 . S
C321 C322 1.371 . S
C321 H324 0.931 . S
C322 C318 1.391 . S
C322 C321 1.371 . S
C322 H329 0.930 . S
H323 C320 0.928 . S
H324 C321 0.931 . S
H325 C301 0.930 1_545 S
H326 C298 0.930 . S
H327 C307 0.930 . S
H328 C319 0.929 . S
H329 C322 0.930 . S
C330 C331 1.351 . S
C330 N333 1.368 . S
C330 H335 0.931 . S
C331 C330 1.351 . S
C331 N332 1.373 . S
C331 H359 0.930 . S
N332 C331 1.373 . S
N332 C334 1.340 . S
N333 C330 1.368 . S
N333 C334 1.321 . S
N333 Co336 2.135 . S
C334 N332 1.340 . S
C334 N333 1.321 . S
C334 H358 0.930 . S
H335 C330 0.931 . S
Co336 N333 2.135 . S
Co336 N339 2.121 . S
Co336 O344 2.055 . S
Co336 O347 2.039 . S
Co336 N350 2.140 . S
C337 O338 1.227 . S
C337 O347 1.265 . S
O338 C337 1.227 . S
N339 Co336 2.121 . S
N339 C341 1.375 . S
N339 C342 1.313 . S
C340 C341 1.338 . S
C340 N343 1.377 . S
C340 H360 0.930 . S
C341 N339 1.375 . S
C341 C340 1.338 . S
C341 H345 0.931 . S
C342 N339 1.313 . S
C342 N343 1.344 . S
C342 H346 0.930 . S
N343 C340 1.377 . S
N343 C342 1.344 . S
O344 Co336 2.055 . S
O344 C348 1.253 . S
H345 C341 0.931 . S
H346 C342 0.930 . S
O347 Co336 2.039 . S
O347 C337 1.265 . S
C348 O344 1.253 . S
C348 O349 1.227 . S
O349 C348 1.227 . S
N350 Co336 2.140 . S
N350 C353 1.346 . S
N350 C354 1.345 . S
C351 C352 1.387 . S
C351 C355 1.391 . S
C352 C351 1.387 . S
C352 C353 1.369 . S
C352 H361 0.929 . S
C353 N350 1.346 . S
C353 C352 1.369 . S
C353 H356 0.928 . S
C354 N350 1.345 . S
C354 C355 1.371 . S
C354 H357 0.931 . S
C355 C351 1.391 . S
C355 C354 1.371 . S
C355 H362 0.930 . S
H356 C353 0.928 . S
H357 C354 0.931 . S
H358 C334 0.930 . S
H359 C331 0.930 . S
H360 C340 0.930 . S
H361 C352 0.929 . S
H362 C355 0.930 . S
C363 C364 1.351 1_545 S
C363 N366 1.368 . S
C363 H368 0.931 . S
C364 C363 1.351 1_565 S
C364 N365 1.373 . S
C364 H392 0.930 . S
N365 C364 1.373 . S
N365 C367 1.340 1_565 S
N366 C363 1.368 . S
N366 C367 1.321 . S
N366 Co369 2.135 . S
C367 N365 1.340 1_545 S
C367 N366 1.321 . S
C367 H391 0.930 1_545 S
H368 C363 0.931 . S
Co369 N366 2.135 . S
Co369 N372 2.121 . S
Co369 O377 2.055 . S
Co369 O380 2.039 . S
Co369 N383 2.140 . S
C370 O371 1.227 . S
C370 O380 1.265 . S
O371 C370 1.227 . S
N372 Co369 2.121 . S
N372 C374 1.375 . S
N372 C375 1.313 . S
C373 C374 1.338 . S
C373 N376 1.377 . S
C373 H393 0.930 . S
C374 N372 1.375 . S
C374 C373 1.338 . S
C374 H378 0.931 . S
C375 N372 1.313 . S
C375 N376 1.344 . S
C375 H379 0.930 . S
N376 C373 1.377 . S
N376 C375 1.344 . S
O377 Co369 2.055 . S
O377 C381 1.253 . S
H378 C374 0.931 . S
H379 C375 0.930 . S
O380 Co369 2.039 . S
O380 C370 1.265 . S
C381 O377 1.253 . S
C381 O382 1.227 . S
O382 C381 1.227 . S
N383 Co369 2.140 . S
N383 C386 1.346 . S
N383 C387 1.345 . S
C384 C385 1.387 . S
C384 C388 1.391 . S
C385 C384 1.387 . S
C385 C386 1.369 . S
C385 H394 0.929 . S
C386 N383 1.346 . S
C386 C385 1.369 . S
C386 H389 0.928 . S
C387 N383 1.345 . S
C387 C388 1.371 . S
C387 H390 0.931 . S
C388 C384 1.391 . S
C388 C387 1.371 . S
C388 H395 0.930 . S
H389 C386 0.928 . S
H390 C387 0.931 . S
H391 C367 0.930 1_565 S
H392 C364 0.930 . S
H393 C373 0.930 . S
H394 C385 0.929 . S
H395 C388 0.930 . S
C396 C397 1.351 . S
C396 N399 1.368 . S
C396 H401 0.931 . S
C397 C396 1.351 . S
C397 N398 1.373 . S
C397 H425 0.930 . S
N398 C397 1.373 . S
N398 C400 1.340 . S
N399 C396 1.368 . S
N399 C400 1.321 . S
N399 Co402 2.135 . S
C400 N398 1.340 . S
C400 N399 1.321 . S
C400 H424 0.930 . S
H401 C396 0.931 . S
Co402 N399 2.135 . S
Co402 N405 2.121 . S
Co402 O410 2.055 . S
Co402 O413 2.039 . S
Co402 N416 2.140 . S
C403 O404 1.227 . S
C403 O413 1.265 . S
O404 C403 1.227 . S
N405 Co402 2.121 . S
N405 C407 1.375 . S
N405 C408 1.313 . S
C406 C407 1.338 . S
C406 N409 1.377 . S
C406 H426 0.930 . S
C407 N405 1.375 . S
C407 C406 1.338 . S
C407 H411 0.931 . S
C408 N405 1.313 . S
C408 N409 1.344 . S
C408 H412 0.930 . S
N409 C406 1.377 . S
N409 C408 1.344 . S
O410 Co402 2.055 . S
O410 C414 1.253 . S
H411 C407 0.931 . S
H412 C408 0.930 . S
O413 Co402 2.039 . S
O413 C403 1.265 . S
C414 O410 1.253 . S
C414 O415 1.227 . S
O415 C414 1.227 . S
N416 Co402 2.140 . S
N416 C419 1.346 . S
N416 C420 1.345 . S
C417 C418 1.387 . S
C417 C421 1.391 . S
C418 C417 1.387 . S
C418 C419 1.369 . S
C418 H427 0.929 . S
C419 N416 1.346 . S
C419 C418 1.369 . S
C419 H422 0.928 . S
C420 N416 1.345 . S
C420 C421 1.371 . S
C420 H423 0.931 . S
C421 C417 1.391 . S
C421 C420 1.371 . S
C421 H428 0.930 . S
H422 C419 0.928 . S
H423 C420 0.931 . S
H424 C400 0.930 . S
H425 C397 0.930 . S
H426 C406 0.930 . S
H427 C418 0.929 . S
H428 C421 0.930 . S
C429 C430 1.351 1_565 S
C429 N432 1.368 . S
C429 H434 0.931 . S
C430 C429 1.351 1_545 S
C430 N431 1.373 . S
C430 H458 0.930 . S
N431 C430 1.373 . S
N431 C433 1.340 1_545 S
N432 C429 1.368 . S
N432 C433 1.321 . S
N432 Co435 2.135 . S
C433 N431 1.340 1_565 S
C433 N432 1.321 . S
C433 H457 0.930 1_565 S
H434 C429 0.931 . S
Co435 N432 2.135 . S
Co435 N438 2.121 . S
Co435 O443 2.055 . S
Co435 O446 2.039 . S
Co435 N449 2.140 . S
C436 O437 1.227 . S
C436 O446 1.265 . S
O437 C436 1.227 . S
N438 Co435 2.121 . S
N438 C440 1.375 . S
N438 C441 1.313 . S
C439 C440 1.338 . S
C439 N442 1.377 . S
C439 H459 0.930 . S
C440 N438 1.375 . S
C440 C439 1.338 . S
C440 H444 0.931 . S
C441 N438 1.313 . S
C441 N442 1.344 . S
C441 H445 0.930 . S
N442 C439 1.377 . S
N442 C441 1.344 . S
O443 Co435 2.055 . S
O443 C447 1.253 . S
H444 C440 0.931 . S
H445 C441 0.930 . S
O446 Co435 2.039 . S
O446 C436 1.265 . S
C447 O443 1.253 . S
C447 O448 1.227 . S
O448 C447 1.227 . S
N449 Co435 2.140 . S
N449 C452 1.346 . S
N449 C453 1.345 . S
C450 C451 1.387 . S
C450 C454 1.391 . S
C451 C450 1.387 . S
C451 C452 1.369 . S
C451 H460 0.929 . S
C452 N449 1.346 . S
C452 C451 1.369 . S
C452 H455 0.928 . S
C453 N449 1.345 . S
C453 C454 1.371 . S
C453 H456 0.931 . S
C454 C450 1.391 . S
C454 C453 1.371 . S
C454 H461 0.930 . S
H455 C452 0.928 . S
H456 C453 0.931 . S
H457 C433 0.930 1_545 S
H458 C430 0.930 . S
H459 C439 0.930 . S
H460 C451 0.929 . S
H461 C454 0.930 . S
C462 C463 1.351 . S
C462 N465 1.368 . S
C462 H467 0.931 . S
C463 C462 1.351 . S
C463 N464 1.373 . S
C463 H491 0.930 . S
N464 C463 1.373 . S
N464 C466 1.340 . S
N465 C462 1.368 . S
N465 C466 1.321 . S
N465 Co468 2.135 . S
C466 N464 1.340 . S
C466 N465 1.321 . S
C466 H490 0.930 . S
H467 C462 0.931 . S
Co468 N465 2.135 . S
Co468 N471 2.121 . S
Co468 O476 2.055 . S
Co468 O479 2.039 . S
Co468 N482 2.140 . S
C469 O470 1.227 . S
C469 O479 1.265 . S
O470 C469 1.227 . S
N471 Co468 2.121 . S
N471 C473 1.375 . S
N471 C474 1.313 . S
C472 C473 1.338 . S
C472 N475 1.377 . S
C472 H492 0.930 . S
C473 N471 1.375 . S
C473 C472 1.338 . S
C473 H477 0.931 . S
C474 N471 1.313 . S
C474 N475 1.344 . S
C474 H478 0.930 . S
N475 C472 1.377 . S
N475 C474 1.344 . S
O476 Co468 2.055 . S
O476 C480 1.253 . S
H477 C473 0.931 . S
H478 C474 0.930 . S
O479 Co468 2.039 . S
O479 C469 1.265 . S
C480 O476 1.253 . S
C480 O481 1.227 . S
O481 C480 1.227 . S
N482 Co468 2.140 . S
N482 C485 1.346 . S
N482 C486 1.345 . S
C483 C484 1.387 . S
C483 C487 1.391 . S
C484 C483 1.387 . S
C484 C485 1.369 . S
C484 H493 0.929 . S
C485 N482 1.346 . S
C485 C484 1.369 . S
C485 H488 0.928 . S
C486 N482 1.345 . S
C486 C487 1.371 . S
C486 H489 0.931 . S
C487 C483 1.391 . S
C487 C486 1.371 . S
C487 H494 0.930 . S
H488 C485 0.928 . S
H489 C486 0.931 . S
H490 C466 0.930 . S
H491 C463 0.930 . S
H492 C472 0.930 . S
H493 C484 0.929 . S
H494 C487 0.930 . S
C495 C496 1.351 1_545 S
C495 N498 1.368 . S
C495 H500 0.931 . S
C496 C495 1.351 1_565 S
C496 N497 1.373 . S
C496 H524 0.930 . S
N497 C496 1.373 . S
N497 C499 1.340 1_565 S
N498 C495 1.368 . S
N498 C499 1.321 . S
N498 Co501 2.135 . S
C499 N497 1.340 1_545 S
C499 N498 1.321 . S
C499 H523 0.930 1_545 S
H500 C495 0.931 . S
Co501 N498 2.135 . S
Co501 N504 2.121 . S
Co501 O509 2.055 . S
Co501 O512 2.039 . S
Co501 N515 2.140 . S
C502 O503 1.227 . S
C502 O512 1.265 . S
O503 C502 1.227 . S
N504 Co501 2.121 . S
N504 C506 1.375 . S
N504 C507 1.313 . S
C505 C506 1.338 . S
C505 N508 1.377 1_455 S
C505 H525 0.930 . S
C506 N504 1.375 . S
C506 C505 1.338 . S
C506 H510 0.931 . S
C507 N504 1.313 . S
C507 N508 1.344 1_455 S
C507 H511 0.930 . S
N508 C505 1.377 1_655 S
N508 C507 1.344 1_655 S
O509 Co501 2.055 . S
O509 C513 1.253 . S
H510 C506 0.931 . S
H511 C507 0.930 . S
O512 Co501 2.039 . S
O512 C502 1.265 . S
C513 O509 1.253 . S
C513 O514 1.227 . S
O514 C513 1.227 . S
N515 Co501 2.140 . S
N515 C518 1.346 . S
N515 C519 1.345 . S
C516 C517 1.387 . S
C516 C520 1.391 . S
C517 C516 1.387 . S
C517 C518 1.369 . S
C517 H526 0.929 . S
C518 N515 1.346 . S
C518 C517 1.369 . S
C518 H521 0.928 . S
C519 N515 1.345 . S
C519 C520 1.371 . S
C519 H522 0.931 . S
C520 C516 1.391 . S
C520 C519 1.371 . S
C520 H527 0.930 . S
H521 C518 0.928 . S
H522 C519 0.931 . S
H523 C499 0.930 1_565 S
H524 C496 0.930 . S
H525 C505 0.930 . S
H526 C517 0.929 . S
H527 C520 0.930 . S
C528 C529 1.351 . S
C528 N531 1.368 . S
C528 H533 0.931 . S
C529 C528 1.351 . S
C529 N530 1.373 . S
C529 H557 0.930 . S
N530 C529 1.373 . S
N530 C532 1.340 . S
N531 C528 1.368 . S
N531 C532 1.321 . S
N531 Co534 2.135 . S
C532 N530 1.340 . S
C532 N531 1.321 . S
C532 H556 0.930 . S
H533 C528 0.931 . S
Co534 N531 2.135 . S
Co534 N537 2.121 . S
Co534 O542 2.055 . S
Co534 O545 2.039 . S
Co534 N548 2.140 . S
C535 O536 1.227 . S
C535 O545 1.265 . S
O536 C535 1.227 . S
N537 Co534 2.121 . S
N537 C539 1.375 . S
N537 C540 1.313 . S
C538 C539 1.338 . S
C538 N541 1.377 . S
C538 H558 0.930 . S
C539 N537 1.375 . S
C539 C538 1.338 . S
C539 H543 0.931 . S
C540 N537 1.313 . S
C540 N541 1.344 . S
C540 H544 0.930 . S
N541 C538 1.377 . S
N541 C540 1.344 . S
O542 Co534 2.055 . S
O542 C546 1.253 . S
H543 C539 0.931 . S
H544 C540 0.930 . S
O545 Co534 2.039 . S
O545 C535 1.265 . S
C546 O542 1.253 . S
C546 O547 1.227 . S
O547 C546 1.227 . S
N548 Co534 2.140 . S
N548 C551 1.346 . S
N548 C552 1.345 . S
C549 C550 1.387 . S
C549 C553 1.391 . S
C550 C549 1.387 . S
C550 C551 1.369 . S
C550 H559 0.929 . S
C551 N548 1.346 . S
C551 C550 1.369 . S
C551 H554 0.928 . S
C552 N548 1.345 . S
C552 C553 1.371 . S
C552 H555 0.931 . S
C553 C549 1.391 . S
C553 C552 1.371 . S
C553 H560 0.930 . S
H554 C551 0.928 . S
H555 C552 0.931 . S
H556 C532 0.930 . S
H557 C529 0.930 . S
H558 C538 0.930 . S
H559 C550 0.929 . S
H560 C553 0.930 . S
C561 C562 1.351 . S
C561 N564 1.368 . S
C561 H566 0.931 . S
C562 C561 1.351 . S
C562 N563 1.373 . S
C562 H590 0.930 . S
N563 C562 1.373 . S
N563 C565 1.340 . S
N564 C561 1.368 . S
N564 C565 1.321 . S
N564 Co567 2.135 . S
C565 N563 1.340 . S
C565 N564 1.321 . S
C565 H589 0.930 . S
H566 C561 0.931 . S
Co567 N564 2.135 . S
Co567 N570 2.121 . S
Co567 O575 2.055 . S
Co567 O578 2.039 . S
Co567 N581 2.140 . S
C568 O569 1.227 . S
C568 O578 1.265 . S
O569 C568 1.227 . S
N570 Co567 2.121 . S
N570 C572 1.375 . S
N570 C573 1.313 . S
C571 C572 1.338 . S
C571 N574 1.377 . S
C571 H591 0.930 . S
C572 N570 1.375 . S
C572 C571 1.338 . S
C572 H576 0.931 . S
C573 N570 1.313 . S
C573 N574 1.344 . S
C573 H577 0.930 . S
N574 C571 1.377 . S
N574 C573 1.344 . S
O575 Co567 2.055 . S
O575 C579 1.253 . S
H576 C572 0.931 . S
H577 C573 0.930 . S
O578 Co567 2.039 . S
O578 C568 1.265 . S
C579 O575 1.253 . S
C579 O580 1.227 . S
O580 C579 1.227 . S
N581 Co567 2.140 . S
N581 C584 1.346 . S
N581 C585 1.345 . S
C582 C583 1.387 . S
C582 C586 1.391 . S
C583 C582 1.387 . S
C583 C584 1.369 . S
C583 H592 0.929 . S
C584 N581 1.346 . S
C584 C583 1.369 . S
C584 H587 0.928 . S
C585 N581 1.345 . S
C585 C586 1.371 . S
C585 H588 0.931 . S
C586 C582 1.391 . S
C586 C585 1.371 . S
C586 H593 0.930 . S
H587 C584 0.928 . S
H588 C585 0.931 . S
H589 C565 0.930 . S
H590 C562 0.930 . S
H591 C571 0.930 . S
H592 C583 0.929 . S
H593 C586 0.930 . S
C594 C595 1.351 . S
C594 N597 1.368 . S
C594 H599 0.931 . S
C595 C594 1.351 . S
C595 N596 1.373 . S
C595 H623 0.930 . S
N596 C595 1.373 . S
N596 C598 1.340 . S
N597 C594 1.368 . S
N597 C598 1.321 . S
N597 Co600 2.135 . S
C598 N596 1.340 . S
C598 N597 1.321 . S
C598 H622 0.930 . S
H599 C594 0.931 . S
Co600 N597 2.135 . S
Co600 N603 2.121 . S
Co600 O608 2.055 . S
Co600 O611 2.039 . S
Co600 N614 2.140 . S
C601 O602 1.227 . S
C601 O611 1.265 . S
O602 C601 1.227 . S
N603 Co600 2.121 . S
N603 C605 1.375 . S
N603 C606 1.313 . S
C604 C605 1.338 . S
C604 N607 1.377 . S
C604 H624 0.930 . S
C605 N603 1.375 . S
C605 C604 1.338 . S
C605 H609 0.931 . S
C606 N603 1.313 . S
C606 N607 1.344 . S
C606 H610 0.930 . S
N607 C604 1.377 . S
N607 C606 1.344 . S
O608 Co600 2.055 . S
O608 C612 1.253 . S
H609 C605 0.931 . S
H610 C606 0.930 . S
O611 Co600 2.039 . S
O611 C601 1.265 . S
C612 O608 1.253 . S
C612 O613 1.227 . S
O613 C612 1.227 . S
N614 Co600 2.140 . S
N614 C617 1.346 . S
N614 C618 1.345 . S
C615 C616 1.387 . S
C615 C619 1.391 . S
C616 C615 1.387 . S
C616 C617 1.369 . S
C616 H625 0.929 . S
C617 N614 1.346 . S
C617 C616 1.369 . S
C617 H620 0.928 . S
C618 N614 1.345 . S
C618 C619 1.371 . S
C618 H621 0.931 . S
C619 C615 1.391 . S
C619 C618 1.371 . S
C619 H626 0.930 . S
H620 C617 0.928 . S
H621 C618 0.931 . S
H622 C598 0.930 . S
H623 C595 0.930 . S
H624 C604 0.930 . S
H625 C616 0.929 . S
H626 C619 0.930 . S
C627 C628 1.351 . S
C627 N630 1.368 . S
C627 H632 0.931 . S
C628 C627 1.351 . S
C628 N629 1.373 . S
C628 H656 0.930 . S
N629 C628 1.373 . S
N629 C631 1.340 . S
N630 C627 1.368 . S
N630 C631 1.321 . S
N630 Co633 2.135 . S
C631 N629 1.340 . S
C631 N630 1.321 . S
C631 H655 0.930 . S
H632 C627 0.931 . S
Co633 N630 2.135 . S
Co633 N636 2.121 . S
Co633 O641 2.055 . S
Co633 O644 2.039 . S
Co633 N647 2.140 . S
C634 O635 1.227 . S
C634 O644 1.265 . S
O635 C634 1.227 . S
N636 Co633 2.121 . S
N636 C638 1.375 . S
N636 C639 1.313 . S
C637 C638 1.338 . S
C637 N640 1.377 1_455 S
C637 H657 0.930 . S
C638 N636 1.375 . S
C638 C637 1.338 . S
C638 H642 0.931 . S
C639 N636 1.313 . S
C639 N640 1.344 1_455 S
C639 H643 0.930 . S
N640 C637 1.377 1_655 S
N640 C639 1.344 1_655 S
O641 Co633 2.055 . S
O641 C645 1.253 . S
H642 C638 0.931 . S
H643 C639 0.930 . S
O644 Co633 2.039 . S
O644 C634 1.265 . S
C645 O641 1.253 . S
C645 O646 1.227 . S
O646 C645 1.227 . S
N647 Co633 2.140 . S
N647 C650 1.346 . S
N647 C651 1.345 . S
C648 C649 1.387 . S
C648 C652 1.391 . S
C649 C648 1.387 . S
C649 C650 1.369 . S
C649 H658 0.929 . S
C650 N647 1.346 . S
C650 C649 1.369 . S
C650 H653 0.928 . S
C651 N647 1.345 . S
C651 C652 1.371 . S
C651 H654 0.931 . S
C652 C648 1.391 . S
C652 C651 1.371 . S
C652 H659 0.930 . S
H653 C650 0.928 . S
H654 C651 0.931 . S
H655 C631 0.930 . S
H656 C628 0.930 . S
H657 C637 0.930 . S
H658 C649 0.929 . S
H659 C652 0.930 . S
C660 C661 1.351 . S
C660 N663 1.368 . S
C660 H665 0.931 . S
C661 C660 1.351 . S
C661 N662 1.373 . S
C661 H689 0.930 . S
N662 C661 1.373 . S
N662 C664 1.340 . S
N663 C660 1.368 . S
N663 C664 1.321 . S
N663 Co666 2.135 . S
C664 N662 1.340 . S
C664 N663 1.321 . S
C664 H688 0.930 . S
H665 C660 0.931 . S
Co666 N663 2.135 . S
Co666 N669 2.121 . S
Co666 O674 2.055 . S
Co666 O677 2.039 . S
Co666 N680 2.140 . S
C667 O668 1.227 . S
C667 O677 1.265 . S
O668 C667 1.227 . S
N669 Co666 2.121 . S
N669 C671 1.375 . S
N669 C672 1.313 . S
C670 C671 1.338 . S
C670 N673 1.377 . S
C670 H690 0.930 . S
C671 N669 1.375 . S
C671 C670 1.338 . S
C671 H675 0.931 . S
C672 N669 1.313 . S
C672 N673 1.344 . S
C672 H676 0.930 . S
N673 C670 1.377 . S
N673 C672 1.344 . S
O674 Co666 2.055 . S
O674 C678 1.253 . S
H675 C671 0.931 . S
H676 C672 0.930 . S
O677 Co666 2.039 . S
O677 C667 1.265 . S
C678 O674 1.253 . S
C678 O679 1.227 . S
O679 C678 1.227 . S
N680 Co666 2.140 . S
N680 C683 1.346 . S
N680 C684 1.345 . S
C681 C682 1.387 . S
C681 C685 1.391 . S
C682 C681 1.387 . S
C682 C683 1.369 . S
C682 H691 0.929 . S
C683 N680 1.346 . S
C683 C682 1.369 . S
C683 H686 0.928 . S
C684 N680 1.345 . S
C684 C685 1.371 . S
C684 H687 0.931 . S
C685 C681 1.391 . S
C685 C684 1.371 . S
C685 H692 0.930 . S
H686 C683 0.928 . S
H687 C684 0.931 . S
H688 C664 0.930 . S
H689 C661 0.930 . S
H690 C670 0.930 . S
H691 C682 0.929 . S
H692 C685 0.930 . S
C693 C694 1.351 . S
C693 N696 1.368 . S
C693 H698 0.931 . S
C694 C693 1.351 . S
C694 N695 1.373 . S
C694 H722 0.930 . S
N695 C694 1.373 . S
N695 C697 1.340 . S
N696 C693 1.368 . S
N696 C697 1.321 . S
N696 Co699 2.135 . S
C697 N695 1.340 . S
C697 N696 1.321 . S
C697 H721 0.930 . S
H698 C693 0.931 . S
Co699 N696 2.135 . S
Co699 N702 2.121 . S
Co699 O707 2.055 . S
Co699 O710 2.039 . S
Co699 N713 2.140 . S
C700 O701 1.227 . S
C700 O710 1.265 . S
O701 C700 1.227 . S
N702 Co699 2.121 . S
N702 C704 1.375 . S
N702 C705 1.313 . S
C703 C704 1.338 . S
C703 N706 1.377 1_455 S
C703 H723 0.930 . S
C704 N702 1.375 . S
C704 C703 1.338 . S
C704 H708 0.931 . S
C705 N702 1.313 . S
C705 N706 1.344 1_455 S
C705 H709 0.930 . S
N706 C703 1.377 1_655 S
N706 C705 1.344 1_655 S
O707 Co699 2.055 . S
O707 C711 1.253 . S
H708 C704 0.931 . S
H709 C705 0.930 . S
O710 Co699 2.039 . S
O710 C700 1.265 . S
C711 O707 1.253 . S
C711 O712 1.227 . S
O712 C711 1.227 . S
N713 Co699 2.140 . S
N713 C716 1.346 . S
N713 C717 1.345 . S
C714 C715 1.387 . S
C714 C718 1.391 . S
C715 C714 1.387 . S
C715 C716 1.369 . S
C715 H724 0.929 . S
C716 N713 1.346 . S
C716 C715 1.369 . S
C716 H719 0.928 . S
C717 N713 1.345 . S
C717 C718 1.371 . S
C717 H720 0.931 . S
C718 C714 1.391 . S
C718 C717 1.371 . S
C718 H725 0.930 . S
H719 C716 0.928 . S
H720 C717 0.931 . S
H721 C697 0.930 . S
H722 C694 0.930 . S
H723 C703 0.930 . S
H724 C715 0.929 . S
H725 C718 0.930 . S
C726 C727 1.351 . S
C726 N729 1.368 . S
C726 H731 0.931 . S
C727 C726 1.351 . S
C727 N728 1.373 . S
C727 H755 0.930 . S
N728 C727 1.373 . S
N728 C730 1.340 . S
N729 C726 1.368 . S
N729 C730 1.321 . S
N729 Co732 2.135 . S
C730 N728 1.340 . S
C730 N729 1.321 . S
C730 H754 0.930 . S
H731 C726 0.931 . S
Co732 N729 2.135 . S
Co732 N735 2.121 . S
Co732 O740 2.055 . S
Co732 O743 2.039 . S
Co732 N746 2.140 . S
C733 O734 1.227 . S
C733 O743 1.265 . S
O734 C733 1.227 . S
N735 Co732 2.121 . S
N735 C737 1.375 . S
N735 C738 1.313 . S
C736 C737 1.338 . S
C736 N739 1.377 . S
C736 H756 0.930 . S
C737 N735 1.375 . S
C737 C736 1.338 . S
C737 H741 0.931 . S
C738 N735 1.313 . S
C738 N739 1.344 . S
C738 H742 0.930 . S
N739 C736 1.377 . S
N739 C738 1.344 . S
O740 Co732 2.055 . S
O740 C744 1.253 . S
H741 C737 0.931 . S
H742 C738 0.930 . S
O743 Co732 2.039 . S
O743 C733 1.265 . S
C744 O740 1.253 . S
C744 O745 1.227 . S
O745 C744 1.227 . S
N746 Co732 2.140 . S
N746 C749 1.346 . S
N746 C750 1.345 . S
C747 C748 1.387 . S
C747 C751 1.391 . S
C748 C747 1.387 . S
C748 C749 1.369 . S
C748 H757 0.929 . S
C749 N746 1.346 . S
C749 C748 1.369 . S
C749 H752 0.928 . S
C750 N746 1.345 . S
C750 C751 1.371 . S
C750 H753 0.931 . S
C751 C747 1.391 . S
C751 C750 1.371 . S
C751 H758 0.930 . S
H752 C749 0.928 . S
H753 C750 0.931 . S
H754 C730 0.930 . S
H755 C727 0.930 . S
H756 C736 0.930 . S
H757 C748 0.929 . S
H758 C751 0.930 . S
C759 C760 1.351 . S
C759 N762 1.368 . S
C759 H764 0.931 . S
C760 C759 1.351 . S
C760 N761 1.373 . S
C760 H788 0.930 . S
N761 C760 1.373 . S
N761 C763 1.340 . S
N762 C759 1.368 . S
N762 C763 1.321 . S
N762 Co765 2.135 . S
C763 N761 1.340 . S
C763 N762 1.321 . S
C763 H787 0.930 . S
H764 C759 0.931 . S
Co765 N762 2.135 . S
Co765 N768 2.121 . S
Co765 O773 2.055 . S
Co765 O776 2.039 . S
Co765 N779 2.140 . S
C766 O767 1.227 . S
C766 O776 1.265 . S
O767 C766 1.227 . S
N768 Co765 2.121 . S
N768 C770 1.375 . S
N768 C771 1.313 . S
C769 C770 1.338 . S
C769 N772 1.377 . S
C769 H789 0.930 . S
C770 N768 1.375 . S
C770 C769 1.338 . S
C770 H774 0.931 . S
C771 N768 1.313 . S
C771 N772 1.344 . S
C771 H775 0.930 . S
N772 C769 1.377 . S
N772 C771 1.344 . S
O773 Co765 2.055 . S
O773 C777 1.253 . S
H774 C770 0.931 . S
H775 C771 0.930 . S
O776 Co765 2.039 . S
O776 C766 1.265 . S
C777 O773 1.253 . S
C777 O778 1.227 . S
O778 C777 1.227 . S
N779 Co765 2.140 . S
N779 C782 1.346 . S
N779 C783 1.345 . S
C780 C781 1.387 . S
C780 C784 1.391 . S
C781 C780 1.387 . S
C781 C782 1.369 . S
C781 H790 0.929 . S
C782 N779 1.346 . S
C782 C781 1.369 . S
C782 H785 0.928 . S
C783 N779 1.345 . S
C783 C784 1.371 . S
C783 H786 0.931 . S
C784 C780 1.391 . S
C784 C783 1.371 . S
C784 H791 0.930 . S
H785 C782 0.928 . S
H786 C783 0.931 . S
H787 C763 0.930 . S
H788 C760 0.930 . S
H789 C769 0.930 . S
H790 C781 0.929 . S
H791 C784 0.930 . S
C792 C793 1.351 . S
C792 N795 1.368 . S
C792 H797 0.931 . S
C793 C792 1.351 . S
C793 N794 1.373 . S
C793 H821 0.930 . S
N794 C793 1.373 . S
N794 C796 1.340 . S
N795 C792 1.368 . S
N795 C796 1.321 . S
N795 Co798 2.135 . S
C796 N794 1.340 . S
C796 N795 1.321 . S
C796 H820 0.930 . S
H797 C792 0.931 . S
Co798 N795 2.135 . S
Co798 N801 2.121 . S
Co798 O806 2.055 . S
Co798 O809 2.039 . S
Co798 N812 2.140 . S
C799 O800 1.227 . S
C799 O809 1.265 . S
O800 C799 1.227 . S
N801 Co798 2.121 . S
N801 C803 1.375 . S
N801 C804 1.313 . S
C802 C803 1.338 . S
C802 N805 1.377 . S
C802 H822 0.930 . S
C803 N801 1.375 . S
C803 C802 1.338 . S
C803 H807 0.931 . S
C804 N801 1.313 . S
C804 N805 1.344 . S
C804 H808 0.930 . S
N805 C802 1.377 . S
N805 C804 1.344 . S
O806 Co798 2.055 . S
O806 C810 1.253 . S
H807 C803 0.931 . S
H808 C804 0.930 . S
O809 Co798 2.039 . S
O809 C799 1.265 . S
C810 O806 1.253 . S
C810 O811 1.227 . S
O811 C810 1.227 . S
N812 Co798 2.140 . S
N812 C815 1.346 . S
N812 C816 1.345 . S
C813 C814 1.387 . S
C813 C817 1.391 . S
C814 C813 1.387 . S
C814 C815 1.369 . S
C814 H823 0.929 . S
C815 N812 1.346 . S
C815 C814 1.369 . S
C815 H818 0.928 . S
C816 N812 1.345 . S
C816 C817 1.371 . S
C816 H819 0.931 . S
C817 C813 1.391 . S
C817 C816 1.371 . S
C817 H824 0.930 . S
H818 C815 0.928 . S
H819 C816 0.931 . S
H820 C796 0.930 . S
H821 C793 0.930 . S
H822 C802 0.930 . S
H823 C814 0.929 . S
H824 C817 0.930 . S
C825 C826 1.351 . S
C825 N828 1.368 . S
C825 H830 0.931 . S
C826 C825 1.351 . S
C826 N827 1.373 . S
C826 H854 0.930 . S
N827 C826 1.373 . S
N827 C829 1.340 . S
N828 C825 1.368 . S
N828 C829 1.321 . S
N828 Co831 2.135 . S
C829 N827 1.340 . S
C829 N828 1.321 . S
C829 H853 0.930 . S
H830 C825 0.931 . S
Co831 N828 2.135 . S
Co831 N834 2.121 . S
Co831 O839 2.055 . S
Co831 O842 2.039 . S
Co831 N845 2.140 . S
C832 O833 1.227 . S
C832 O842 1.265 . S
O833 C832 1.227 . S
N834 Co831 2.121 . S
N834 C836 1.375 . S
N834 C837 1.313 . S
C835 C836 1.338 . S
C835 N838 1.377 . S
C835 H855 0.930 . S
C836 N834 1.375 . S
C836 C835 1.338 . S
C836 H840 0.931 . S
C837 N834 1.313 . S
C837 N838 1.344 . S
C837 H841 0.930 . S
N838 C835 1.377 . S
N838 C837 1.344 . S
O839 Co831 2.055 . S
O839 C843 1.253 . S
H840 C836 0.931 . S
H841 C837 0.930 . S
O842 Co831 2.039 . S
O842 C832 1.265 . S
C843 O839 1.253 . S
C843 O844 1.227 . S
O844 C843 1.227 . S
N845 Co831 2.140 . S
N845 C848 1.346 . S
N845 C849 1.345 . S
C846 C847 1.387 . S
C846 C850 1.391 . S
C847 C846 1.387 . S
C847 C848 1.369 . S
C847 H856 0.929 . S
C848 N845 1.346 . S
C848 C847 1.369 . S
C848 H851 0.928 . S
C849 N845 1.345 . S
C849 C850 1.371 . S
C849 H852 0.931 . S
C850 C846 1.391 . S
C850 C849 1.371 . S
C850 H857 0.930 . S
H851 C848 0.928 . S
H852 C849 0.931 . S
H853 C829 0.930 . S
H854 C826 0.930 . S
H855 C835 0.930 . S
H856 C847 0.929 . S
H857 C850 0.930 . S
C858 C859 1.351 . S
C858 N861 1.368 . S
C858 H863 0.931 . S
C859 C858 1.351 . S
C859 N860 1.373 . S
C859 H887 0.930 . S
N860 C859 1.373 . S
N860 C862 1.340 . S
N861 C858 1.368 . S
N861 C862 1.321 . S
N861 Co864 2.135 . S
C862 N860 1.340 . S
C862 N861 1.321 . S
C862 H886 0.930 . S
H863 C858 0.931 . S
Co864 N861 2.135 . S
Co864 N867 2.121 . S
Co864 O872 2.055 . S
Co864 O875 2.039 . S
Co864 N878 2.140 . S
C865 O866 1.227 . S
C865 O875 1.265 . S
O866 C865 1.227 . S
N867 Co864 2.121 . S
N867 C869 1.375 . S
N867 C870 1.313 . S
C868 C869 1.338 . S
C868 N871 1.377 . S
C868 H888 0.930 . S
C869 N867 1.375 . S
C869 C868 1.338 . S
C869 H873 0.931 . S
C870 N867 1.313 . S
C870 N871 1.344 . S
C870 H874 0.930 . S
N871 C868 1.377 . S
N871 C870 1.344 . S
O872 Co864 2.055 . S
O872 C876 1.253 . S
H873 C869 0.931 . S
H874 C870 0.930 . S
O875 Co864 2.039 . S
O875 C865 1.265 . S
C876 O872 1.253 . S
C876 O877 1.227 . S
O877 C876 1.227 . S
N878 Co864 2.140 . S
N878 C881 1.346 . S
N878 C882 1.345 . S
C879 C880 1.387 . S
C879 C883 1.391 . S
C880 C879 1.387 . S
C880 C881 1.369 . S
C880 H889 0.929 . S
C881 N878 1.346 . S
C881 C880 1.369 . S
C881 H884 0.928 . S
C882 N878 1.345 . S
C882 C883 1.371 . S
C882 H885 0.931 . S
C883 C879 1.391 . S
C883 C882 1.371 . S
C883 H890 0.930 . S
H884 C881 0.928 . S
H885 C882 0.931 . S
H886 C862 0.930 . S
H887 C859 0.930 . S
H888 C868 0.930 . S
H889 C880 0.929 . S
H890 C883 0.930 . S
C891 C892 1.351 . S
C891 N894 1.368 . S
C891 H896 0.931 . S
C892 C891 1.351 . S
C892 N893 1.373 . S
C892 H920 0.930 . S
N893 C892 1.373 . S
N893 C895 1.340 . S
N894 C891 1.368 . S
N894 C895 1.321 . S
N894 Co897 2.135 . S
C895 N893 1.340 . S
C895 N894 1.321 . S
C895 H919 0.930 . S
H896 C891 0.931 . S
Co897 N894 2.135 . S
Co897 N900 2.121 . S
Co897 O905 2.055 . S
Co897 O908 2.039 . S
Co897 N911 2.140 . S
C898 O899 1.227 . S
C898 O908 1.265 . S
O899 C898 1.227 . S
N900 Co897 2.121 . S
N900 C902 1.375 . S
N900 C903 1.313 . S
C901 C902 1.338 . S
C901 N904 1.377 1_655 S
C901 H921 0.930 . S
C902 N900 1.375 . S
C902 C901 1.338 . S
C902 H906 0.931 . S
C903 N900 1.313 . S
C903 N904 1.344 1_655 S
C903 H907 0.930 . S
N904 C901 1.377 1_455 S
N904 C903 1.344 1_455 S
O905 Co897 2.055 . S
O905 C909 1.253 . S
H906 C902 0.931 . S
H907 C903 0.930 . S
O908 Co897 2.039 . S
O908 C898 1.265 . S
C909 O905 1.253 . S
C909 O910 1.227 . S
O910 C909 1.227 . S
N911 Co897 2.140 . S
N911 C914 1.346 . S
N911 C915 1.345 . S
C912 C913 1.387 . S
C912 C916 1.391 . S
C913 C912 1.387 . S
C913 C914 1.369 . S
C913 H922 0.929 . S
C914 N911 1.346 . S
C914 C913 1.369 . S
C914 H917 0.928 . S
C915 N911 1.345 . S
C915 C916 1.371 . S
C915 H918 0.931 . S
C916 C912 1.391 . S
C916 C915 1.371 . S
C916 H923 0.930 . S
H917 C914 0.928 . S
H918 C915 0.931 . S
H919 C895 0.930 . S
H920 C892 0.930 . S
H921 C901 0.930 . S
H922 C913 0.929 . S
H923 C916 0.930 . S
C924 C925 1.351 . S
C924 N927 1.368 . S
C924 H929 0.931 . S
C925 C924 1.351 . S
C925 N926 1.373 . S
C925 H953 0.930 . S
N926 C925 1.373 . S
N926 C928 1.340 . S
N927 C924 1.368 . S
N927 C928 1.321 . S
N927 Co930 2.135 . S
C928 N926 1.340 . S
C928 N927 1.321 . S
C928 H952 0.930 . S
H929 C924 0.931 . S
Co930 N927 2.135 . S
Co930 N933 2.121 . S
Co930 O938 2.055 . S
Co930 O941 2.039 . S
Co930 N944 2.140 . S
C931 O932 1.227 . S
C931 O941 1.265 . S
O932 C931 1.227 . S
N933 Co930 2.121 . S
N933 C935 1.375 . S
N933 C936 1.313 . S
C934 C935 1.338 . S
C934 N937 1.377 . S
C934 H954 0.930 . S
C935 N933 1.375 . S
C935 C934 1.338 . S
C935 H939 0.931 . S
C936 N933 1.313 . S
C936 N937 1.344 . S
C936 H940 0.930 . S
N937 C934 1.377 . S
N937 C936 1.344 . S
O938 Co930 2.055 . S
O938 C942 1.253 . S
H939 C935 0.931 . S
H940 C936 0.930 . S
O941 Co930 2.039 . S
O941 C931 1.265 . S
C942 O938 1.253 . S
C942 O943 1.227 . S
O943 C942 1.227 . S
N944 Co930 2.140 . S
N944 C947 1.346 . S
N944 C948 1.345 . S
C945 C946 1.387 . S
C945 C949 1.391 . S
C946 C945 1.387 . S
C946 C947 1.369 . S
C946 H955 0.929 . S
C947 N944 1.346 . S
C947 C946 1.369 . S
C947 H950 0.928 . S
C948 N944 1.345 . S
C948 C949 1.371 . S
C948 H951 0.931 . S
C949 C945 1.391 . S
C949 C948 1.371 . S
C949 H956 0.930 . S
H950 C947 0.928 . S
H951 C948 0.931 . S
H952 C928 0.930 . S
H953 C925 0.930 . S
H954 C934 0.930 . S
H955 C946 0.929 . S
H956 C949 0.930 . S
C957 C958 1.351 . S
C957 N960 1.368 . S
C957 H962 0.931 . S
C958 C957 1.351 . S
C958 N959 1.373 . S
C958 H986 0.930 . S
N959 C958 1.373 . S
N959 C961 1.340 . S
N960 C957 1.368 . S
N960 C961 1.321 . S
N960 Co963 2.135 . S
C961 N959 1.340 . S
C961 N960 1.321 . S
C961 H985 0.930 . S
H962 C957 0.931 . S
Co963 N960 2.135 . S
Co963 N966 2.121 . S
Co963 O971 2.055 . S
Co963 O974 2.039 . S
Co963 N977 2.140 . S
C964 O965 1.227 . S
C964 O974 1.265 . S
O965 C964 1.227 . S
N966 Co963 2.121 . S
N966 C968 1.375 . S
N966 C969 1.313 . S
C967 C968 1.338 . S
C967 N970 1.377 1_655 S
C967 H987 0.930 . S
C968 N966 1.375 . S
C968 C967 1.338 . S
C968 H972 0.931 . S
C969 N966 1.313 . S
C969 N970 1.344 1_655 S
C969 H973 0.930 . S
N970 C967 1.377 1_455 S
N970 C969 1.344 1_455 S
O971 Co963 2.055 . S
O971 C975 1.253 . S
H972 C968 0.931 . S
H973 C969 0.930 . S
O974 Co963 2.039 . S
O974 C964 1.265 . S
C975 O971 1.253 . S
C975 O976 1.227 . S
O976 C975 1.227 . S
N977 Co963 2.140 . S
N977 C980 1.346 . S
N977 C981 1.345 . S
C978 C979 1.387 . S
C978 C982 1.391 . S
C979 C978 1.387 . S
C979 C980 1.369 . S
C979 H988 0.929 . S
C980 N977 1.346 . S
C980 C979 1.369 . S
C980 H983 0.928 . S
C981 N977 1.345 . S
C981 C982 1.371 . S
C981 H984 0.931 . S
C982 C978 1.391 . S
C982 C981 1.371 . S
C982 H989 0.930 . S
H983 C980 0.928 . S
H984 C981 0.931 . S
H985 C961 0.930 . S
H986 C958 0.930 . S
H987 C967 0.930 . S
H988 C979 0.929 . S
H989 C982 0.930 . S
C990 C991 1.351 . S
C990 N993 1.368 . S
C990 H995 0.931 . S
C991 C990 1.351 . S
C991 N992 1.373 . S
C991 H1019 0.930 . S
N992 C991 1.373 . S
N992 C994 1.340 . S
N993 C990 1.368 . S
N993 C994 1.321 . S
N993 Co996 2.135 . S
C994 N992 1.340 . S
C994 N993 1.321 . S
C994 H1018 0.930 . S
H995 C990 0.931 . S
Co996 N993 2.135 . S
Co996 N999 2.121 . S
Co996 O1004 2.055 . S
Co996 O1007 2.039 . S
Co996 N1010 2.140 . S
C997 O998 1.227 . S
C997 O1007 1.265 . S
O998 C997 1.227 . S
N999 Co996 2.121 . S
N999 C1001 1.375 . S
N999 C1002 1.313 . S
C1000 C1001 1.338 . S
C1000 N1003 1.377 . S
C1000 H1020 0.930 . S
C1001 N999 1.375 . S
C1001 C1000 1.338 . S
C1001 H1005 0.931 . S
C1002 N999 1.313 . S
C1002 N1003 1.344 . S
C1002 H1006 0.930 . S
N1003 C1000 1.377 . S
N1003 C1002 1.344 . S
O1004 Co996 2.055 . S
O1004 C1008 1.253 . S
H1005 C1001 0.931 . S
H1006 C1002 0.930 . S
O1007 Co996 2.039 . S
O1007 C997 1.265 . S
C1008 O1004 1.253 . S
C1008 O1009 1.227 . S
O1009 C1008 1.227 . S
N1010 Co996 2.140 . S
N1010 C1013 1.346 . S
N1010 C1014 1.345 . S
C1011 C1012 1.387 . S
C1011 C1015 1.391 . S
C1012 C1011 1.387 . S
C1012 C1013 1.369 . S
C1012 H1021 0.929 . S
C1013 N1010 1.346 . S
C1013 C1012 1.369 . S
C1013 H1016 0.928 . S
C1014 N1010 1.345 . S
C1014 C1015 1.371 . S
C1014 H1017 0.931 . S
C1015 C1011 1.391 . S
C1015 C1014 1.371 . S
C1015 H1022 0.930 . S
H1016 C1013 0.928 . S
H1017 C1014 0.931 . S
H1018 C994 0.930 . S
H1019 C991 0.930 . S
H1020 C1000 0.930 . S
H1021 C1012 0.929 . S
H1022 C1015 0.930 . S
C1023 C1024 1.351 . S
C1023 N1026 1.368 . S
C1023 H1028 0.931 . S
C1024 C1023 1.351 . S
C1024 N1025 1.373 . S
C1024 H1052 0.930 . S
N1025 C1024 1.373 . S
N1025 C1027 1.340 . S
N1026 C1023 1.368 . S
N1026 C1027 1.321 . S
N1026 Co1029 2.135 . S
C1027 N1025 1.340 . S
C1027 N1026 1.321 . S
C1027 H1051 0.930 . S
H1028 C1023 0.931 . S
Co1029 N1026 2.135 . S
Co1029 N1032 2.121 . S
Co1029 O1037 2.055 . S
Co1029 O1040 2.039 . S
Co1029 N1043 2.140 . S
C1030 O1031 1.227 . S
C1030 O1040 1.265 . S
O1031 C1030 1.227 . S
N1032 Co1029 2.121 . S
N1032 C1034 1.375 . S
N1032 C1035 1.313 . S
C1033 C1034 1.338 . S
C1033 N1036 1.377 . S
C1033 H1053 0.930 . S
C1034 N1032 1.375 . S
C1034 C1033 1.338 . S
C1034 H1038 0.931 . S
C1035 N1032 1.313 . S
C1035 N1036 1.344 . S
C1035 H1039 0.930 . S
N1036 C1033 1.377 . S
N1036 C1035 1.344 . S
O1037 Co1029 2.055 . S
O1037 C1041 1.253 . S
H1038 C1034 0.931 . S
H1039 C1035 0.930 . S
O1040 Co1029 2.039 . S
O1040 C1030 1.265 . S
C1041 O1037 1.253 . S
C1041 O1042 1.227 . S
O1042 C1041 1.227 . S
N1043 Co1029 2.140 . S
N1043 C1046 1.346 . S
N1043 C1047 1.345 . S
C1044 C1045 1.387 . S
C1044 C1048 1.391 . S
C1045 C1044 1.387 . S
C1045 C1046 1.369 . S
C1045 H1054 0.929 . S
C1046 N1043 1.346 . S
C1046 C1045 1.369 . S
C1046 H1049 0.928 . S
C1047 N1043 1.345 . S
C1047 C1048 1.371 . S
C1047 H1050 0.931 . S
C1048 C1044 1.391 . S
C1048 C1047 1.371 . S
C1048 H1055 0.930 . S
H1049 C1046 0.928 . S
H1050 C1047 0.931 . S
H1051 C1027 0.930 . S
H1052 C1024 0.930 . S
H1053 C1033 0.930 . S
H1054 C1045 0.929 . S
H1055 C1048 0.930 . S
H1056 C1064 0.950 . S
H1057 C1069 0.950 . S
H1058 C1066 0.950 . S
H1059 C1068 0.950 . S
H1060 C1070 0.950 . S
H1061 C1072 0.950 . S
H1062 C1074 0.950 . S
H1063 C1075 0.950 . S
C1064 H1056 0.950 . S
C1064 C1065 1.386 . S
C1064 C1066 1.391 . S
C1065 C1064 1.386 . S
C1065 C1069 1.393 . S
C1066 H1058 0.950 . S
C1066 C1064 1.391 . S
C1066 C1067 1.400 . S
C1067 C1066 1.400 . S
C1067 C1068 1.398 . S
C1067 C1073 1.491 . S
C1068 H1059 0.950 . S
C1068 C1067 1.398 . S
C1068 C1069 1.391 . S
C1069 H1057 0.950 . S
C1069 C1065 1.393 . S
C1069 C1068 1.391 . S
C1070 H1060 0.950 . S
C1070 C1071 1.386 . S
C1070 C1072 1.391 . S
C1071 C1070 1.386 . S
C1071 C1075 1.393 . S
C1072 H1061 0.950 . S
C1072 C1070 1.391 . S
C1072 C1073 1.400 . S
C1073 C1067 1.491 . S
C1073 C1072 1.400 . S
C1073 C1074 1.398 . S
C1074 H1062 0.950 . S
C1074 C1073 1.398 . S
C1074 C1075 1.391 . S
C1075 H1063 0.950 . S
C1075 C1071 1.393 . S
C1075 C1074 1.391 . S
H1076 C1084 0.950 . S
H1077 C1089 0.950 . S
H1078 C1086 0.950 . S
H1079 C1088 0.950 . S
H1080 C1090 0.950 . S
H1081 C1092 0.950 . S
H1082 C1094 0.950 . S
H1083 C1095 0.950 . S
C1084 H1076 0.950 . S
C1084 C1085 1.386 . S
C1084 C1086 1.391 1_455 S
C1085 C1084 1.386 . S
C1085 C1089 1.393 1_565 S
C1086 H1078 0.950 . S
C1086 C1084 1.391 1_655 S
C1086 C1087 1.400 1_655 S
C1087 C1086 1.400 1_455 S
C1087 C1088 1.398 1_565 S
C1087 C1093 1.491 1_465 S
C1088 H1079 0.950 . S
C1088 C1087 1.398 1_545 S
C1088 C1089 1.391 . S
C1089 H1077 0.950 . S
C1089 C1085 1.393 1_545 S
C1089 C1088 1.391 . S
C1090 H1080 0.950 . S
C1090 C1091 1.386 . S
C1090 C1092 1.391 1_655 S
C1091 C1090 1.386 . S
C1091 C1095 1.393 1_545 S
C1092 H1081 0.950 . S
C1092 C1090 1.391 1_455 S
C1092 C1093 1.400 1_455 S
C1093 C1087 1.491 1_645 S
C1093 C1092 1.400 1_655 S
C1093 C1094 1.398 1_545 S
C1094 H1082 0.950 . S
C1094 C1093 1.398 1_565 S
C1094 C1095 1.391 . S
C1095 H1083 0.950 . S
C1095 C1091 1.393 1_565 S
C1095 C1094 1.391 . S
H1096 C1104 0.950 . S
H1097 C1109 0.950 . S
H1098 C1106 0.950 . S
H1099 C1108 0.950 . S
H1100 C1110 0.950 . S
H1101 C1112 0.950 . S
H1102 C1114 0.950 . S
H1103 C1115 0.950 . S
C1104 H1096 0.950 . S
C1104 C1105 1.386 . S
C1104 C1106 1.391 . S
C1105 C1104 1.386 . S
C1105 C1109 1.393 . S
C1106 H1098 0.950 . S
C1106 C1104 1.391 . S
C1106 C1107 1.400 . S
C1107 C1106 1.400 . S
C1107 C1108 1.398 . S
C1107 C1113 1.491 . S
C1108 H1099 0.950 . S
C1108 C1107 1.398 . S
C1108 C1109 1.391 . S
C1109 H1097 0.950 . S
C1109 C1105 1.393 . S
C1109 C1108 1.391 . S
C1110 H1100 0.950 . S
C1110 C1111 1.386 . S
C1110 C1112 1.391 . S
C1111 C1110 1.386 . S
C1111 C1115 1.393 . S
C1112 H1101 0.950 . S
C1112 C1110 1.391 . S
C1112 C1113 1.400 . S
C1113 C1107 1.491 . S
C1113 C1112 1.400 . S
C1113 C1114 1.398 . S
C1114 H1102 0.950 . S
C1114 C1113 1.398 . S
C1114 C1115 1.391 . S
C1115 H1103 0.950 . S
C1115 C1111 1.393 . S
C1115 C1114 1.391 . S
H1116 C1124 0.950 . S
H1117 C1129 0.950 . S
H1118 C1126 0.913 1_566 S
H1119 C1128 0.950 . S
H1120 C1130 0.950 . S
H1121 C1132 0.913 1_544 S
H1122 C1134 0.950 . S
H1123 C1135 0.950 . S
C1124 H1116 0.950 . S
C1124 C1125 1.386 . S
C1124 C1126 1.391 . S
C1125 C1124 1.386 . S
C1125 C1129 1.393 . S
C1126 H1118 0.913 1_544 S
C1126 C1124 1.391 . S
C1126 C1127 1.400 . S
C1127 C1126 1.400 . S
C1127 C1128 1.398 . S
C1127 C1133 1.491 1_544 S
C1128 H1119 0.950 . S
C1128 C1127 1.398 . S
C1128 C1129 1.391 . S
C1129 H1117 0.950 . S
C1129 C1125 1.393 . S
C1129 C1128 1.391 . S
C1130 H1120 0.950 . S
C1130 C1131 1.386 . S
C1130 C1132 1.391 . S
C1131 C1130 1.386 . S
C1131 C1135 1.393 . S
C1132 H1121 0.913 1_566 S
C1132 C1130 1.391 . S
C1132 C1133 1.400 . S
C1133 C1127 1.491 1_566 S
C1133 C1132 1.400 . S
C1133 C1134 1.398 . S
C1134 H1122 0.950 . S
C1134 C1133 1.398 . S
C1134 C1135 1.391 . S
C1135 H1123 0.950 . S
C1135 C1131 1.393 . S
C1135 C1134 1.391 . S
H1136 C1144 0.950 . S
H1137 C1149 0.950 . S
H1138 C1146 0.950 . S
H1139 C1148 0.950 . S
H1140 C1150 0.950 . S
H1141 C1152 0.950 . S
H1142 C1154 0.950 . S
H1143 C1155 0.950 . S
C1144 H1136 0.950 . S
C1144 C1145 1.386 . S
C1144 C1146 1.391 . S
C1145 C1144 1.386 . S
C1145 C1149 1.393 . S
C1146 H1138 0.950 . S
C1146 C1144 1.391 . S
C1146 C1147 1.400 . S
C1147 C1146 1.400 . S
C1147 C1148 1.398 . S
C1147 C1153 1.491 . S
C1148 H1139 0.950 . S
C1148 C1147 1.398 . S
C1148 C1149 1.391 . S
C1149 H1137 0.950 . S
C1149 C1145 1.393 . S
C1149 C1148 1.391 . S
C1150 H1140 0.950 . S
C1150 C1151 1.386 . S
C1150 C1152 1.391 . S
C1151 C1150 1.386 . S
C1151 C1155 1.393 . S
C1152 H1141 0.950 . S
C1152 C1150 1.391 . S
C1152 C1153 1.400 . S
C1153 C1147 1.491 . S
C1153 C1152 1.400 . S
C1153 C1154 1.398 . S
C1154 H1142 0.950 . S
C1154 C1153 1.398 . S
C1154 C1155 1.391 . S
C1155 H1143 0.950 . S
C1155 C1151 1.393 . S
C1155 C1154 1.391 . S
H1156 C1164 0.950 . S
H1157 C1169 0.950 . S
H1158 C1166 0.950 . S
H1159 C1168 0.950 . S
H1160 C1170 0.950 . S
H1161 C1172 0.950 . S
H1162 C1174 0.950 . S
H1163 C1175 0.950 . S
C1164 H1156 0.950 . S
C1164 C1165 1.386 . S
C1164 C1166 1.391 . S
C1165 C1164 1.386 . S
C1165 C1169 1.393 . S
C1166 H1158 0.950 . S
C1166 C1164 1.391 . S
C1166 C1167 1.400 . S
C1167 C1166 1.400 . S
C1167 C1168 1.398 . S
C1167 C1173 1.491 1_565 S
C1168 H1159 0.950 . S
C1168 C1167 1.398 . S
C1168 C1169 1.391 . S
C1169 H1157 0.950 . S
C1169 C1165 1.393 . S
C1169 C1168 1.391 . S
C1170 H1160 0.950 . S
C1170 C1171 1.386 . S
C1170 C1172 1.391 . S
C1171 C1170 1.386 . S
C1171 C1175 1.393 . S
C1172 H1161 0.950 . S
C1172 C1170 1.391 . S
C1172 C1173 1.400 . S
C1173 C1167 1.491 1_545 S
C1173 C1172 1.400 . S
C1173 C1174 1.398 . S
C1174 H1162 0.950 . S
C1174 C1173 1.398 . S
C1174 C1175 1.391 . S
C1175 H1163 0.950 . S
C1175 C1171 1.393 . S
C1175 C1174 1.391 . S
H1176 C1184 0.950 . S
H1177 C1189 0.950 . S
H1178 C1186 0.950 . S
H1179 C1188 0.950 . S
H1180 C1190 0.950 . S
H1181 C1192 0.950 . S
H1182 C1194 0.950 . S
H1183 C1195 0.950 . S
C1184 H1176 0.950 . S
C1184 C1185 1.386 . S
C1184 C1186 1.391 . S
C1185 C1184 1.386 . S
C1185 C1189 1.393 . S
C1186 H1178 0.950 . S
C1186 C1184 1.391 . S
C1186 C1187 1.400 . S
C1187 C1186 1.400 . S
C1187 C1188 1.398 . S
C1187 C1193 1.491 . S
C1188 H1179 0.950 . S
C1188 C1187 1.398 . S
C1188 C1189 1.391 . S
C1189 H1177 0.950 . S
C1189 C1185 1.393 . S
C1189 C1188 1.391 . S
C1190 H1180 0.950 . S
C1190 C1191 1.386 . S
C1190 C1192 1.391 . S
C1191 C1190 1.386 . S
C1191 C1195 1.393 . S
C1192 H1181 0.950 . S
C1192 C1190 1.391 . S
C1192 C1193 1.400 . S
C1193 C1187 1.491 . S
C1193 C1192 1.400 . S
C1193 C1194 1.398 . S
C1194 H1182 0.950 . S
C1194 C1193 1.398 . S
C1194 C1195 1.391 . S
C1195 H1183 0.950 . S
C1195 C1191 1.393 . S
C1195 C1194 1.391 . S
H1196 C1204 0.950 . S
H1197 C1209 0.950 1_655 S
H1198 C1206 0.950 1_554 S
H1199 C1208 0.949 1_565 S
H1200 C1210 0.950 . S
H1201 C1212 0.950 1_556 S
H1202 C1214 0.949 1_545 S
H1203 C1215 0.950 1_455 S
C1204 H1196 0.950 . S
C1204 C1205 1.386 . S
C1204 C1206 1.391 . S
C1205 C1204 1.386 . S
C1205 C1209 1.393 . S
C1206 H1198 0.950 1_556 S
C1206 C1204 1.391 . S
C1206 C1207 1.400 . S
C1207 C1206 1.400 . S
C1207 C1208 1.398 1_455 S
C1207 C1213 1.491 1_446 S
C1208 H1199 0.949 1_545 S
C1208 C1207 1.398 1_655 S
C1208 C1209 1.391 1_655 S
C1209 H1197 0.950 1_455 S
C1209 C1205 1.393 . S
C1209 C1208 1.391 1_455 S
C1210 H1200 0.950 . S
C1210 C1211 1.386 . S
C1210 C1212 1.391 . S
C1211 C1210 1.386 . S
C1211 C1215 1.393 . S
C1212 H1201 0.950 1_554 S
C1212 C1210 1.391 . S
C1212 C1213 1.400 . S
C1213 C1207 1.491 1_664 S
C1213 C1212 1.400 . S
C1213 C1214 1.398 1_655 S
C1214 H1202 0.949 1_565 S
C1214 C1213 1.398 1_455 S
C1214 C1215 1.391 1_455 S
C1215 H1203 0.950 1_655 S
C1215 C1211 1.393 . S
C1215 C1214 1.391 1_655 S
H1216 C1224 0.950 . S
H1217 C1229 0.950 . S
H1218 C1226 0.950 . S
H1219 C1228 0.950 . S
H1220 C1230 0.950 . S
H1221 C1232 0.950 . S
H1222 C1234 0.950 . S
H1223 C1235 0.950 . S
C1224 H1216 0.950 . S
C1224 C1225 1.386 . S
C1224 C1226 1.391 . S
C1225 C1224 1.386 . S
C1225 C1229 1.393 . S
C1226 H1218 0.950 . S
C1226 C1224 1.391 . S
C1226 C1227 1.400 . S
C1227 C1226 1.400 . S
C1227 C1228 1.398 . S
C1227 C1233 1.491 . S
C1228 H1219 0.950 . S
C1228 C1227 1.398 . S
C1228 C1229 1.391 . S
C1229 H1217 0.950 . S
C1229 C1225 1.393 . S
C1229 C1228 1.391 . S
C1230 H1220 0.950 . S
C1230 C1231 1.386 . S
C1230 C1232 1.391 . S
C1231 C1230 1.386 . S
C1231 C1235 1.393 . S
C1232 H1221 0.950 . S
C1232 C1230 1.391 . S
C1232 C1233 1.400 . S
C1233 C1227 1.491 . S
C1233 C1232 1.400 . S
C1233 C1234 1.398 . S
C1234 H1222 0.950 . S
C1234 C1233 1.398 . S
C1234 C1235 1.391 . S
C1235 H1223 0.950 . S
C1235 C1231 1.393 . S
C1235 C1234 1.391 . S
H1236 C1244 0.950 . S
H1237 C1249 0.950 . S
H1238 C1246 0.950 . S
H1239 C1248 0.950 . S
H1240 C1250 0.950 . S
H1241 C1252 0.950 . S
H1242 C1254 0.950 . S
H1243 C1255 0.950 . S
C1244 H1236 0.950 . S
C1244 C1245 1.386 . S
C1244 C1246 1.391 . S
C1245 C1244 1.386 . S
C1245 C1249 1.393 . S
C1246 H1238 0.950 . S
C1246 C1244 1.391 . S
C1246 C1247 1.400 . S
C1247 C1246 1.400 . S
C1247 C1248 1.398 . S
C1247 C1253 1.491 . S
C1248 H1239 0.950 . S
C1248 C1247 1.398 . S
C1248 C1249 1.391 . S
C1249 H1237 0.950 . S
C1249 C1245 1.393 . S
C1249 C1248 1.391 . S
C1250 H1240 0.950 . S
C1250 C1251 1.386 . S
C1250 C1252 1.391 . S
C1251 C1250 1.386 . S
C1251 C1255 1.393 . S
C1252 H1241 0.950 . S
C1252 C1250 1.391 . S
C1252 C1253 1.400 . S
C1253 C1247 1.491 . S
C1253 C1252 1.400 . S
C1253 C1254 1.398 . S
C1254 H1242 0.950 . S
C1254 C1253 1.398 . S
C1254 C1255 1.391 . S
C1255 H1243 0.950 . S
C1255 C1251 1.393 . S
C1255 C1254 1.391 . S
H1256 C1264 0.950 . S
H1257 C1269 0.950 . S
H1258 C1266 0.950 . S
H1259 C1268 0.950 . S
H1260 C1270 0.950 . S
H1261 C1272 0.950 . S
H1262 C1274 0.950 . S
H1263 C1275 0.950 . S
C1264 H1256 0.950 . S
C1264 C1265 1.386 . S
C1264 C1266 1.391 . S
C1265 C1264 1.386 . S
C1265 C1269 1.393 . S
C1266 H1258 0.950 . S
C1266 C1264 1.391 . S
C1266 C1267 1.400 . S
C1267 C1266 1.400 . S
C1267 C1268 1.398 . S
C1267 C1273 1.491 . S
C1268 H1259 0.950 . S
C1268 C1267 1.398 . S
C1268 C1269 1.391 . S
C1269 H1257 0.950 . S
C1269 C1265 1.393 . S
C1269 C1268 1.391 . S
C1270 H1260 0.950 . S
C1270 C1271 1.386 . S
C1270 C1272 1.391 . S
C1271 C1270 1.386 . S
C1271 C1275 1.393 . S
C1272 H1261 0.950 . S
C1272 C1270 1.391 . S
C1272 C1273 1.400 . S
C1273 C1267 1.491 . S
C1273 C1272 1.400 . S
C1273 C1274 1.398 . S
C1274 H1262 0.950 . S
C1274 C1273 1.398 . S
C1274 C1275 1.391 . S
C1275 H1263 0.950 . S
C1275 C1271 1.393 . S
C1275 C1274 1.391 . S
H1276 C1284 0.950 . S
H1277 C1289 0.950 . S
H1278 C1286 0.950 . S
H1279 C1288 0.950 . S
H1280 C1290 0.950 . S
H1281 C1292 0.950 . S
H1282 C1294 0.950 . S
H1283 C1295 0.950 . S
C1284 H1276 0.950 . S
C1284 C1285 1.386 . S
C1284 C1286 1.391 . S
C1285 C1284 1.386 . S
C1285 C1289 1.393 . S
C1286 H1278 0.950 . S
C1286 C1284 1.391 . S
C1286 C1287 1.400 . S
C1287 C1286 1.400 . S
C1287 C1288 1.398 . S
C1287 C1293 1.491 . S
C1288 H1279 0.950 . S
C1288 C1287 1.398 . S
C1288 C1289 1.391 . S
C1289 H1277 0.950 . S
C1289 C1285 1.393 . S
C1289 C1288 1.391 . S
C1290 H1280 0.950 . S
C1290 C1291 1.386 . S
C1290 C1292 1.391 . S
C1291 C1290 1.386 . S
C1291 C1295 1.393 . S
C1292 H1281 0.950 . S
C1292 C1290 1.391 . S
C1292 C1293 1.400 . S
C1293 C1287 1.491 . S
C1293 C1292 1.400 . S
C1293 C1294 1.398 . S
C1294 H1282 0.950 . S
C1294 C1293 1.398 . S
C1294 C1295 1.391 . S
C1295 H1283 0.950 . S
C1295 C1291 1.393 . S
C1295 C1294 1.391 . S
H1296 C1304 0.950 . S
H1297 C1309 0.950 . S
H1298 C1306 0.950 . S
H1299 C1308 0.917 1_554 S
H1300 C1310 0.950 . S
H1301 C1312 0.950 . S
H1302 C1314 0.917 1_556 S
H1303 C1315 0.950 . S
C1304 H1296 0.950 . S
C1304 C1305 1.386 . S
C1304 C1306 1.391 . S
C1305 C1304 1.386 . S
C1305 C1309 1.393 . S
C1306 H1298 0.950 . S
C1306 C1304 1.391 . S
C1306 C1307 1.400 . S
C1307 C1306 1.400 . S
C1307 C1308 1.398 . S
C1307 C1313 1.491 1_556 S
C1308 H1299 0.917 1_556 S
C1308 C1307 1.398 . S
C1308 C1309 1.391 . S
C1309 H1297 0.950 . S
C1309 C1305 1.393 . S
C1309 C1308 1.391 . S
C1310 H1300 0.950 . S
C1310 C1311 1.386 . S
C1310 C1312 1.391 . S
C1311 C1310 1.386 . S
C1311 C1315 1.393 . S
C1312 H1301 0.950 . S
C1312 C1310 1.391 . S
C1312 C1313 1.400 . S
C1313 C1307 1.491 1_554 S
C1313 C1312 1.400 . S
C1313 C1314 1.398 . S
C1314 H1302 0.917 1_554 S
C1314 C1313 1.398 . S
C1314 C1315 1.391 . S
C1315 H1303 0.950 . S
C1315 C1311 1.393 . S
C1315 C1314 1.391 . S
H1316 C1324 0.965 . S
H1317 C1329 0.950 . S
H1318 C1326 0.950 . S
H1319 C1328 0.950 . S
H1320 C1330 0.965 . S
H1321 C1332 0.950 . S
H1322 C1334 0.950 . S
H1323 C1335 0.950 . S
C1324 H1316 0.965 . S
C1324 C1325 1.386 . S
C1324 C1326 1.391 1_655 S
C1325 C1324 1.386 . S
C1325 C1329 1.393 . S
C1326 H1318 0.950 . S
C1326 C1324 1.391 1_455 S
C1326 C1327 1.400 1_455 S
C1327 C1326 1.400 1_655 S
C1327 C1328 1.398 . S
C1327 C1333 1.491 1_655 S
C1328 H1319 0.950 . S
C1328 C1327 1.398 . S
C1328 C1329 1.391 . S
C1329 H1317 0.950 . S
C1329 C1325 1.393 . S
C1329 C1328 1.391 . S
C1330 H1320 0.965 . S
C1330 C1331 1.386 . S
C1330 C1332 1.391 1_455 S
C1331 C1330 1.386 . S
C1331 C1335 1.393 . S
C1332 H1321 0.950 . S
C1332 C1330 1.391 1_655 S
C1332 C1333 1.400 1_655 S
C1333 C1327 1.491 1_455 S
C1333 C1332 1.400 1_455 S
C1333 C1334 1.398 . S
C1334 H1322 0.950 . S
C1334 C1333 1.398 . S
C1334 C1335 1.391 . S
C1335 H1323 0.950 . S
C1335 C1331 1.393 . S
C1335 C1334 1.391 . S
H1336 C1344 0.950 1_655 S
H1337 C1349 0.950 . S
H1338 C1346 0.950 . S
H1339 C1348 0.950 1_556 S
H1340 C1350 0.950 1_455 S
H1341 C1352 0.950 . S
H1342 C1354 0.950 1_554 S
H1343 C1355 0.950 . S
C1344 H1336 0.950 1_455 S
C1344 C1345 1.386 . S
C1344 C1346 1.391 1_455 S
C1345 C1344 1.386 . S
C1345 C1349 1.393 . S
C1346 H1338 0.950 . S
C1346 C1344 1.391 1_655 S
C1346 C1347 1.400 1_655 S
C1347 C1346 1.400 1_455 S
C1347 C1348 1.398 . S
C1347 C1353 1.491 1_454 S
C1348 H1339 0.950 1_554 S
C1348 C1347 1.398 . S
C1348 C1349 1.391 . S
C1349 H1337 0.950 . S
C1349 C1345 1.393 . S
C1349 C1348 1.391 . S
C1350 H1340 0.950 1_655 S
C1350 C1351 1.386 . S
C1350 C1352 1.391 1_655 S
C1351 C1350 1.386 . S
C1351 C1355 1.393 . S
C1352 H1341 0.950 . S
C1352 C1350 1.391 1_455 S
C1352 C1353 1.400 1_455 S
C1353 C1347 1.491 1_656 S
C1353 C1352 1.400 1_655 S
C1353 C1354 1.398 . S
C1354 H1342 0.950 1_556 S
C1354 C1353 1.398 . S
C1354 C1355 1.391 . S
C1355 H1343 0.950 . S
C1355 C1351 1.393 . S
C1355 C1354 1.391 . S
H1356 C1364 0.950 . S
H1357 C1369 0.950 . S
H1358 C1366 0.950 . S
H1359 C1368 0.950 . S
H1360 C1370 0.950 . S
H1361 C1372 0.950 . S
H1362 C1374 0.950 . S
H1363 C1375 0.950 . S
C1364 H1356 0.950 . S
C1364 C1365 1.386 . S
C1364 C1366 1.391 . S
C1365 C1364 1.386 . S
C1365 C1369 1.393 . S
C1366 H1358 0.950 . S
C1366 C1364 1.391 . S
C1366 C1367 1.400 . S
C1367 C1366 1.400 . S
C1367 C1368 1.398 . S
C1367 C1373 1.491 . S
C1368 H1359 0.950 . S
C1368 C1367 1.398 . S
C1368 C1369 1.391 . S
C1369 H1357 0.950 . S
C1369 C1365 1.393 . S
C1369 C1368 1.391 . S
C1370 H1360 0.950 . S
C1370 C1371 1.386 . S
C1370 C1372 1.391 . S
C1371 C1370 1.386 . S
C1371 C1375 1.393 . S
C1372 H1361 0.950 . S
C1372 C1370 1.391 . S
C1372 C1373 1.400 . S
C1373 C1367 1.491 . S
C1373 C1372 1.400 . S
C1373 C1374 1.398 . S
C1374 H1362 0.950 . S
C1374 C1373 1.398 . S
C1374 C1375 1.391 . S
C1375 H1363 0.950 . S
C1375 C1371 1.393 . S
C1375 C1374 1.391 . S
H1376 C1384 0.950 . S
H1377 C1389 0.950 . S
H1378 C1386 0.950 . S
H1379 C1388 0.950 . S
H1380 C1390 0.950 . S
H1381 C1392 0.950 . S
H1382 C1394 0.950 . S
H1383 C1395 0.950 . S
C1384 H1376 0.950 . S
C1384 C1385 1.386 . S
C1384 C1386 1.391 . S
C1385 C1384 1.386 . S
C1385 C1389 1.393 . S
C1386 H1378 0.950 . S
C1386 C1384 1.391 . S
C1386 C1387 1.400 . S
C1387 C1386 1.400 . S
C1387 C1388 1.398 . S
C1387 C1393 1.491 . S
C1388 H1379 0.950 . S
C1388 C1387 1.398 . S
C1388 C1389 1.391 . S
C1389 H1377 0.950 . S
C1389 C1385 1.393 . S
C1389 C1388 1.391 . S
C1390 H1380 0.950 . S
C1390 C1391 1.386 . S
C1390 C1392 1.391 . S
C1391 C1390 1.386 . S
C1391 C1395 1.393 . S
C1392 H1381 0.950 . S
C1392 C1390 1.391 . S
C1392 C1393 1.400 . S
C1393 C1387 1.491 . S
C1393 C1392 1.400 . S
C1393 C1394 1.398 . S
C1394 H1382 0.950 . S
C1394 C1393 1.398 . S
C1394 C1395 1.391 . S
C1395 H1383 0.950 . S
C1395 C1391 1.393 . S
C1395 C1394 1.391 . S
H1396 C1404 0.950 . S
H1397 C1409 0.950 . S
H1398 C1406 0.950 . S
H1399 C1408 0.950 . S
H1400 C1410 0.950 . S
H1401 C1412 0.950 . S
H1402 C1414 0.950 . S
H1403 C1415 0.950 . S
C1404 H1396 0.950 . S
C1404 C1405 1.386 . S
C1404 C1406 1.391 . S
C1405 C1404 1.386 . S
C1405 C1409 1.393 . S
C1406 H1398 0.950 . S
C1406 C1404 1.391 . S
C1406 C1407 1.400 . S
C1407 C1406 1.400 . S
C1407 C1408 1.398 . S
C1407 C1413 1.491 . S
C1408 H1399 0.950 . S
C1408 C1407 1.398 . S
C1408 C1409 1.391 . S
C1409 H1397 0.950 . S
C1409 C1405 1.393 . S
C1409 C1408 1.391 . S
C1410 H1400 0.950 . S
C1410 C1411 1.386 . S
C1410 C1412 1.391 . S
C1411 C1410 1.386 . S
C1411 C1415 1.393 . S
C1412 H1401 0.950 . S
C1412 C1410 1.391 . S
C1412 C1413 1.400 . S
C1413 C1407 1.491 . S
C1413 C1412 1.400 . S
C1413 C1414 1.398 . S
C1414 H1402 0.950 . S
C1414 C1413 1.398 . S
C1414 C1415 1.391 . S
C1415 H1403 0.950 . S
C1415 C1411 1.393 . S
C1415 C1414 1.391 . S
H1416 C1424 0.950 . S
H1417 C1429 0.950 . S
H1418 C1426 0.950 . S
H1419 C1428 0.950 . S
H1420 C1430 0.950 . S
H1421 C1432 0.950 . S
H1422 C1434 0.950 . S
H1423 C1435 0.950 . S
C1424 H1416 0.950 . S
C1424 C1425 1.386 . S
C1424 C1426 1.391 . S
C1425 C1424 1.386 . S
C1425 C1429 1.393 . S
C1426 H1418 0.950 . S
C1426 C1424 1.391 . S
C1426 C1427 1.400 . S
C1427 C1426 1.400 . S
C1427 C1428 1.398 . S
C1427 C1433 1.491 . S
C1428 H1419 0.950 . S
C1428 C1427 1.398 . S
C1428 C1429 1.391 . S
C1429 H1417 0.950 . S
C1429 C1425 1.393 . S
C1429 C1428 1.391 . S
C1430 H1420 0.950 . S
C1430 C1431 1.386 . S
C1430 C1432 1.391 . S
C1431 C1430 1.386 . S
C1431 C1435 1.393 . S
C1432 H1421 0.950 . S
C1432 C1430 1.391 . S
C1432 C1433 1.400 . S
C1433 C1427 1.491 . S
C1433 C1432 1.400 . S
C1433 C1434 1.398 . S
C1434 H1422 0.950 . S
C1434 C1433 1.398 . S
C1434 C1435 1.391 . S
C1435 H1423 0.950 . S
C1435 C1431 1.393 . S
C1435 C1434 1.391 . S
H1436 C1444 0.950 . S
H1437 C1449 0.950 . S
H1438 C1446 0.950 . S
H1439 C1448 0.950 . S
H1440 C1450 0.950 . S
H1441 C1452 0.950 . S
H1442 C1454 0.950 . S
H1443 C1455 0.950 . S
C1444 H1436 0.950 . S
C1444 C1445 1.386 . S
C1444 C1446 1.391 . S
C1445 C1444 1.386 . S
C1445 C1449 1.393 . S
C1446 H1438 0.950 . S
C1446 C1444 1.391 . S
C1446 C1447 1.400 . S
C1447 C1446 1.400 . S
C1447 C1448 1.398 . S
C1447 C1453 1.491 . S
C1448 H1439 0.950 . S
C1448 C1447 1.398 . S
C1448 C1449 1.391 . S
C1449 H1437 0.950 . S
C1449 C1445 1.393 . S
C1449 C1448 1.391 . S
C1450 H1440 0.950 . S
C1450 C1451 1.386 . S
C1450 C1452 1.391 . S
C1451 C1450 1.386 . S
C1451 C1455 1.393 . S
C1452 H1441 0.950 . S
C1452 C1450 1.391 . S
C1452 C1453 1.400 . S
C1453 C1447 1.491 . S
C1453 C1452 1.400 . S
C1453 C1454 1.398 . S
C1454 H1442 0.950 . S
C1454 C1453 1.398 . S
C1454 C1455 1.391 . S
C1455 H1443 0.950 . S
C1455 C1451 1.393 . S
C1455 C1454 1.391 . S
H1456 C1464 0.950 . S
H1457 C1469 0.950 . S
H1458 C1466 0.950 . S
H1459 C1468 0.950 . S
H1460 C1470 0.950 . S
H1461 C1472 0.950 . S
H1462 C1474 0.950 . S
H1463 C1475 0.950 . S
C1464 H1456 0.950 . S
C1464 C1465 1.386 . S
C1464 C1466 1.391 . S
C1465 C1464 1.386 . S
C1465 C1469 1.393 . S
C1466 H1458 0.950 . S
C1466 C1464 1.391 . S
C1466 C1467 1.400 . S
C1467 C1466 1.400 . S
C1467 C1468 1.398 . S
C1467 C1473 1.491 . S
C1468 H1459 0.950 . S
C1468 C1467 1.398 . S
C1468 C1469 1.391 . S
C1469 H1457 0.950 . S
C1469 C1465 1.393 . S
C1469 C1468 1.391 . S
C1470 H1460 0.950 . S
C1470 C1471 1.386 . S
C1470 C1472 1.391 . S
C1471 C1470 1.386 . S
C1471 C1475 1.393 . S
C1472 H1461 0.950 . S
C1472 C1470 1.391 . S
C1472 C1473 1.400 . S
C1473 C1467 1.491 . S
C1473 C1472 1.400 . S
C1473 C1474 1.398 . S
C1474 H1462 0.950 . S
C1474 C1473 1.398 . S
C1474 C1475 1.391 . S
C1475 H1463 0.950 . S
C1475 C1471 1.393 . S
C1475 C1474 1.391 . S
H1476 C1484 0.950 . S
H1477 C1489 0.950 . S
H1478 C1486 0.950 . S
H1479 C1488 0.950 . S
H1480 C1490 0.950 . S
H1481 C1492 0.950 . S
H1482 C1494 0.950 . S
H1483 C1495 0.950 . S
C1484 H1476 0.950 . S
C1484 C1485 1.386 . S
C1484 C1486 1.391 . S
C1485 C1484 1.386 . S
C1485 C1489 1.393 . S
C1486 H1478 0.950 . S
C1486 C1484 1.391 . S
C1486 C1487 1.400 . S
C1487 C1486 1.400 . S
C1487 C1488 1.398 . S
C1487 C1493 1.491 . S
C1488 H1479 0.950 . S
C1488 C1487 1.398 . S
C1488 C1489 1.391 . S
C1489 H1477 0.950 . S
C1489 C1485 1.393 . S
C1489 C1488 1.391 . S
C1490 H1480 0.950 . S
C1490 C1491 1.386 . S
C1490 C1492 1.391 . S
C1491 C1490 1.386 . S
C1491 C1495 1.393 . S
C1492 H1481 0.950 . S
C1492 C1490 1.391 . S
C1492 C1493 1.400 . S
C1493 C1487 1.491 . S
C1493 C1492 1.400 . S
C1493 C1494 1.398 . S
C1494 H1482 0.950 . S
C1494 C1493 1.398 . S
C1494 C1495 1.391 . S
C1495 H1483 0.950 . S
C1495 C1491 1.393 . S
C1495 C1494 1.391 . S
H1496 C1504 0.950 . S
H1497 C1509 0.950 . S
H1498 C1506 0.950 . S
H1499 C1508 0.950 . S
H1500 C1510 0.950 . S
H1501 C1512 0.950 . S
H1502 C1514 0.950 . S
H1503 C1515 0.950 . S
C1504 H1496 0.950 . S
C1504 C1505 1.386 . S
C1504 C1506 1.391 . S
C1505 C1504 1.386 . S
C1505 C1509 1.393 . S
C1506 H1498 0.950 . S
C1506 C1504 1.391 . S
C1506 C1507 1.400 . S
C1507 C1506 1.400 . S
C1507 C1508 1.398 . S
C1507 C1513 1.491 . S
C1508 H1499 0.950 . S
C1508 C1507 1.398 . S
C1508 C1509 1.391 . S
C1509 H1497 0.950 . S
C1509 C1505 1.393 . S
C1509 C1508 1.391 . S
C1510 H1500 0.950 . S
C1510 C1511 1.386 . S
C1510 C1512 1.391 . S
C1511 C1510 1.386 . S
C1511 C1515 1.393 . S
C1512 H1501 0.950 . S
C1512 C1510 1.391 . S
C1512 C1513 1.400 . S
C1513 C1507 1.491 . S
C1513 C1512 1.400 . S
C1513 C1514 1.398 . S
C1514 H1502 0.950 . S
C1514 C1513 1.398 . S
C1514 C1515 1.391 . S
C1515 H1503 0.950 . S
C1515 C1511 1.393 . S
C1515 C1514 1.391 . S
H1516 C1524 0.950 . S
H1517 C1529 0.950 . S
H1518 C1526 0.950 . S
H1519 C1528 0.950 . S
H1520 C1530 0.950 . S
H1521 C1532 0.950 . S
H1522 C1534 0.950 . S
H1523 C1535 0.950 . S
C1524 H1516 0.950 . S
C1524 C1525 1.386 . S
C1524 C1526 1.391 . S
C1525 C1524 1.386 . S
C1525 C1529 1.393 . S
C1526 H1518 0.950 . S
C1526 C1524 1.391 . S
C1526 C1527 1.400 . S
C1527 C1526 1.400 . S
C1527 C1528 1.398 . S
C1527 C1533 1.491 . S
C1528 H1519 0.950 . S
C1528 C1527 1.398 . S
C1528 C1529 1.391 . S
C1529 H1517 0.950 . S
C1529 C1525 1.393 . S
C1529 C1528 1.391 . S
C1530 H1520 0.950 . S
C1530 C1531 1.386 . S
C1530 C1532 1.391 . S
C1531 C1530 1.386 . S
C1531 C1535 1.393 . S
C1532 H1521 0.950 . S
C1532 C1530 1.391 . S
C1532 C1533 1.400 . S
C1533 C1527 1.491 . S
C1533 C1532 1.400 . S
C1533 C1534 1.398 . S
C1534 H1522 0.950 . S
C1534 C1533 1.398 . S
C1534 C1535 1.391 . S
C1535 H1523 0.950 . S
C1535 C1531 1.393 . S
C1535 C1534 1.391 . S
H1536 C1544 0.950 . S
H1537 C1549 0.950 . S
H1538 C1546 0.950 . S
H1539 C1548 0.950 . S
H1540 C1550 0.950 . S
H1541 C1552 0.950 . S
H1542 C1554 0.950 . S
H1543 C1555 0.950 . S
C1544 H1536 0.950 . S
C1544 C1545 1.386 . S
C1544 C1546 1.391 . S
C1545 C1544 1.386 . S
C1545 C1549 1.393 . S
C1546 H1538 0.950 . S
C1546 C1544 1.391 . S
C1546 C1547 1.400 . S
C1547 C1546 1.400 . S
C1547 C1548 1.398 . S
C1547 C1553 1.491 . S
C1548 H1539 0.950 . S
C1548 C1547 1.398 . S
C1548 C1549 1.391 . S
C1549 H1537 0.950 . S
C1549 C1545 1.393 . S
C1549 C1548 1.391 . S
C1550 H1540 0.950 . S
C1550 C1551 1.386 . S
C1550 C1552 1.391 . S
C1551 C1550 1.386 . S
C1551 C1555 1.393 . S
C1552 H1541 0.950 . S
C1552 C1550 1.391 . S
C1552 C1553 1.400 . S
C1553 C1547 1.491 . S
C1553 C1552 1.400 . S
C1553 C1554 1.398 . S
C1554 H1542 0.950 . S
C1554 C1553 1.398 . S
C1554 C1555 1.391 . S
C1555 H1543 0.950 . S
C1555 C1551 1.393 . S
C1555 C1554 1.391 . S
H1556 C1564 0.950 . S
H1557 C1569 0.950 . S
H1558 C1566 0.950 . S
H1559 C1568 0.950 . S
H1560 C1570 0.950 . S
H1561 C1572 0.950 . S
H1562 C1574 0.950 . S
H1563 C1575 0.950 . S
C1564 H1556 0.950 . S
C1564 C1565 1.386 . S
C1564 C1566 1.391 . S
C1565 C1564 1.386 . S
C1565 C1569 1.393 . S
C1566 H1558 0.950 . S
C1566 C1564 1.391 . S
C1566 C1567 1.400 . S
C1567 C1566 1.400 . S
C1567 C1568 1.398 . S
C1567 C1573 1.491 . S
C1568 H1559 0.950 . S
C1568 C1567 1.398 . S
C1568 C1569 1.391 . S
C1569 H1557 0.950 . S
C1569 C1565 1.393 . S
C1569 C1568 1.391 . S
C1570 H1560 0.950 . S
C1570 C1571 1.386 . S
C1570 C1572 1.391 . S
C1571 C1570 1.386 . S
C1571 C1575 1.393 . S
C1572 H1561 0.950 . S
C1572 C1570 1.391 . S
C1572 C1573 1.400 . S
C1573 C1567 1.491 . S
C1573 C1572 1.400 . S
C1573 C1574 1.398 . S
C1574 H1562 0.950 . S
C1574 C1573 1.398 . S
C1574 C1575 1.391 . S
C1575 H1563 0.950 . S
C1575 C1571 1.393 . S
C1575 C1574 1.391 . S
H1576 C1584 0.950 . S
H1577 C1589 0.950 . S
H1578 C1586 0.950 . S
H1579 C1588 0.950 . S
H1580 C1590 0.950 . S
H1581 C1592 0.950 . S
H1582 C1594 0.950 . S
H1583 C1595 0.950 . S
C1584 H1576 0.950 . S
C1584 C1585 1.386 . S
C1584 C1586 1.391 . S
C1585 C1584 1.386 . S
C1585 C1589 1.393 . S
C1586 H1578 0.950 . S
C1586 C1584 1.391 . S
C1586 C1587 1.400 . S
C1587 C1586 1.400 . S
C1587 C1588 1.398 . S
C1587 C1593 1.491 . S
C1588 H1579 0.950 . S
C1588 C1587 1.398 . S
C1588 C1589 1.391 . S
C1589 H1577 0.950 . S
C1589 C1585 1.393 . S
C1589 C1588 1.391 . S
C1590 H1580 0.950 . S
C1590 C1591 1.386 . S
C1590 C1592 1.391 . S
C1591 C1590 1.386 . S
C1591 C1595 1.393 . S
C1592 H1581 0.950 . S
C1592 C1590 1.391 . S
C1592 C1593 1.400 . S
C1593 C1587 1.491 . S
C1593 C1592 1.400 . S
C1593 C1594 1.398 . S
C1594 H1582 0.950 . S
C1594 C1593 1.398 . S
C1594 C1595 1.391 . S
C1595 H1583 0.950 . S
C1595 C1591 1.393 . S
C1595 C1594 1.391 . S
H1596 C1604 0.950 . S
H1597 C1609 0.950 . S
H1598 C1606 0.950 . S
H1599 C1608 0.950 . S
H1600 C1610 0.950 . S
H1601 C1612 0.950 . S
H1602 C1614 0.950 . S
H1603 C1615 0.950 . S
C1604 H1596 0.950 . S
C1604 C1605 1.386 . S
C1604 C1606 1.391 . S
C1605 C1604 1.386 . S
C1605 C1609 1.393 . S
C1606 H1598 0.950 . S
C1606 C1604 1.391 . S
C1606 C1607 1.400 . S
C1607 C1606 1.400 . S
C1607 C1608 1.398 . S
C1607 C1613 1.491 . S
C1608 H1599 0.950 . S
C1608 C1607 1.398 . S
C1608 C1609 1.391 . S
C1609 H1597 0.950 . S
C1609 C1605 1.393 . S
C1609 C1608 1.391 . S
C1610 H1600 0.950 . S
C1610 C1611 1.386 . S
C1610 C1612 1.391 . S
C1611 C1610 1.386 . S
C1611 C1615 1.393 . S
C1612 H1601 0.950 . S
C1612 C1610 1.391 . S
C1612 C1613 1.400 . S
C1613 C1607 1.491 . S
C1613 C1612 1.400 . S
C1613 C1614 1.398 . S
C1614 H1602 0.950 . S
C1614 C1613 1.398 . S
C1614 C1615 1.391 . S
C1615 H1603 0.950 . S
C1615 C1611 1.393 . S
C1615 C1614 1.391 . S
H1616 C1624 0.950 . S
H1617 C1629 0.950 . S
H1618 C1626 0.950 . S
H1619 C1628 0.950 . S
H1620 C1630 0.950 . S
H1621 C1632 0.950 . S
H1622 C1634 0.950 . S
H1623 C1635 0.950 . S
C1624 H1616 0.950 . S
C1624 C1625 1.386 . S
C1624 C1626 1.391 . S
C1625 C1624 1.386 . S
C1625 C1629 1.393 . S
C1626 H1618 0.950 . S
C1626 C1624 1.391 . S
C1626 C1627 1.400 . S
C1627 C1626 1.400 . S
C1627 C1628 1.398 . S
C1627 C1633 1.491 . S
C1628 H1619 0.950 . S
C1628 C1627 1.398 . S
C1628 C1629 1.391 . S
C1629 H1617 0.950 . S
C1629 C1625 1.393 . S
C1629 C1628 1.391 . S
C1630 H1620 0.950 . S
C1630 C1631 1.386 . S
C1630 C1632 1.391 . S
C1631 C1630 1.386 . S
C1631 C1635 1.393 . S
C1632 H1621 0.950 . S
C1632 C1630 1.391 . S
C1632 C1633 1.400 . S
C1633 C1627 1.491 . S
C1633 C1632 1.400 . S
C1633 C1634 1.398 . S
C1634 H1622 0.950 . S
C1634 C1633 1.398 . S
C1634 C1635 1.391 . S
C1635 H1623 0.950 . S
C1635 C1631 1.393 . S
C1635 C1634 1.391 . S
H1636 C1644 0.950 . S
H1637 C1649 0.950 . S
H1638 C1646 0.950 . S
H1639 C1648 0.950 . S
H1640 C1650 0.950 . S
H1641 C1652 0.950 . S
H1642 C1654 0.950 . S
H1643 C1655 0.950 . S
C1644 H1636 0.950 . S
C1644 C1645 1.386 . S
C1644 C1646 1.391 . S
C1645 C1644 1.386 . S
C1645 C1649 1.393 . S
C1646 H1638 0.950 . S
C1646 C1644 1.391 . S
C1646 C1647 1.400 . S
C1647 C1646 1.400 . S
C1647 C1648 1.398 . S
C1647 C1653 1.491 . S
C1648 H1639 0.950 . S
C1648 C1647 1.398 . S
C1648 C1649 1.391 . S
C1649 H1637 0.950 . S
C1649 C1645 1.393 . S
C1649 C1648 1.391 . S
C1650 H1640 0.950 . S
C1650 C1651 1.386 . S
C1650 C1652 1.391 . S
C1651 C1650 1.386 . S
C1651 C1655 1.393 . S
C1652 H1641 0.950 . S
C1652 C1650 1.391 . S
C1652 C1653 1.400 . S
C1653 C1647 1.491 . S
C1653 C1652 1.400 . S
C1653 C1654 1.398 . S
C1654 H1642 0.950 . S
C1654 C1653 1.398 . S
C1654 C1655 1.391 . S
C1655 H1643 0.950 . S
C1655 C1651 1.393 . S
C1655 C1654 1.391 . S
H1656 C1664 0.950 . S
H1657 C1669 0.950 . S
H1658 C1666 0.950 . S
H1659 C1668 0.950 . S
H1660 C1670 0.950 . S
H1661 C1672 0.950 . S
H1662 C1674 0.950 . S
H1663 C1675 0.950 . S
C1664 H1656 0.950 . S
C1664 C1665 1.386 . S
C1664 C1666 1.391 . S
C1665 C1664 1.386 . S
C1665 C1669 1.393 . S
C1666 H1658 0.950 . S
C1666 C1664 1.391 . S
C1666 C1667 1.400 . S
C1667 C1666 1.400 . S
C1667 C1668 1.398 . S
C1667 C1673 1.491 . S
C1668 H1659 0.950 . S
C1668 C1667 1.398 . S
C1668 C1669 1.391 . S
C1669 H1657 0.950 . S
C1669 C1665 1.393 . S
C1669 C1668 1.391 . S
C1670 H1660 0.950 . S
C1670 C1671 1.386 . S
C1670 C1672 1.391 . S
C1671 C1670 1.386 . S
C1671 C1675 1.393 . S
C1672 H1661 0.950 . S
C1672 C1670 1.391 . S
C1672 C1673 1.400 . S
C1673 C1667 1.491 . S
C1673 C1672 1.400 . S
C1673 C1674 1.398 . S
C1674 H1662 0.950 . S
C1674 C1673 1.398 . S
C1674 C1675 1.391 . S
C1675 H1663 0.950 . S
C1675 C1671 1.393 . S
C1675 C1674 1.391 . S
H1676 C1684 0.950 . S
H1677 C1689 0.950 . S
H1678 C1686 0.950 . S
H1679 C1688 0.950 . S
H1680 C1690 0.950 . S
H1681 C1692 0.950 . S
H1682 C1694 0.950 . S
H1683 C1695 0.950 . S
C1684 H1676 0.950 . S
C1684 C1685 1.386 . S
C1684 C1686 1.391 . S
C1685 C1684 1.386 . S
C1685 C1689 1.393 . S
C1686 H1678 0.950 . S
C1686 C1684 1.391 . S
C1686 C1687 1.400 . S
C1687 C1686 1.400 . S
C1687 C1688 1.398 . S
C1687 C1693 1.491 . S
C1688 H1679 0.950 . S
C1688 C1687 1.398 . S
C1688 C1689 1.391 . S
C1689 H1677 0.950 . S
C1689 C1685 1.393 . S
C1689 C1688 1.391 . S
C1690 H1680 0.950 . S
C1690 C1691 1.386 . S
C1690 C1692 1.391 . S
C1691 C1690 1.386 . S
C1691 C1695 1.393 . S
C1692 H1681 0.950 . S
C1692 C1690 1.391 . S
C1692 C1693 1.400 . S
C1693 C1687 1.491 . S
C1693 C1692 1.400 . S
C1693 C1694 1.398 . S
C1694 H1682 0.950 . S
C1694 C1693 1.398 . S
C1694 C1695 1.391 . S
C1695 H1683 0.950 . S
C1695 C1691 1.393 . S
C1695 C1694 1.391 . S
H1696 C1704 0.950 . S
H1697 C1709 0.950 . S
H1698 C1706 0.950 . S
H1699 C1708 0.950 . S
H1700 C1710 0.950 . S
H1701 C1712 0.950 . S
H1702 C1714 0.950 . S
H1703 C1715 0.950 . S
C1704 H1696 0.950 . S
C1704 C1705 1.386 . S
C1704 C1706 1.391 . S
C1705 C1704 1.386 . S
C1705 C1709 1.393 . S
C1706 H1698 0.950 . S
C1706 C1704 1.391 . S
C1706 C1707 1.400 . S
C1707 C1706 1.400 . S
C1707 C1708 1.398 . S
C1707 C1713 1.491 . S
C1708 H1699 0.950 . S
C1708 C1707 1.398 . S
C1708 C1709 1.391 . S
C1709 H1697 0.950 . S
C1709 C1705 1.393 . S
C1709 C1708 1.391 . S
C1710 H1700 0.950 . S
C1710 C1711 1.386 . S
C1710 C1712 1.391 . S
C1711 C1710 1.386 . S
C1711 C1715 1.393 . S
C1712 H1701 0.950 . S
C1712 C1710 1.391 . S
C1712 C1713 1.400 . S
C1713 C1707 1.491 . S
C1713 C1712 1.400 . S
C1713 C1714 1.398 . S
C1714 H1702 0.950 . S
C1714 C1713 1.398 . S
C1714 C1715 1.391 . S
C1715 H1703 0.950 . S
C1715 C1711 1.393 . S
C1715 C1714 1.391 . S
H1716 C1724 0.950 . S
H1717 C1729 0.950 . S
H1718 C1726 0.950 . S
H1719 C1728 0.950 . S
H1720 C1730 0.950 . S
H1721 C1732 0.950 . S
H1722 C1734 0.950 . S
H1723 C1735 0.950 . S
C1724 H1716 0.950 . S
C1724 C1725 1.386 . S
C1724 C1726 1.391 . S
C1725 C1724 1.386 . S
C1725 C1729 1.393 . S
C1726 H1718 0.950 . S
C1726 C1724 1.391 . S
C1726 C1727 1.400 . S
C1727 C1726 1.400 . S
C1727 C1728 1.398 . S
C1727 C1733 1.491 . S
C1728 H1719 0.950 . S
C1728 C1727 1.398 . S
C1728 C1729 1.391 . S
C1729 H1717 0.950 . S
C1729 C1725 1.393 . S
C1729 C1728 1.391 . S
C1730 H1720 0.950 . S
C1730 C1731 1.386 . S
C1730 C1732 1.391 . S
C1731 C1730 1.386 . S
C1731 C1735 1.393 . S
C1732 H1721 0.950 . S
C1732 C1730 1.391 . S
C1732 C1733 1.400 . S
C1733 C1727 1.491 . S
C1733 C1732 1.400 . S
C1733 C1734 1.398 . S
C1734 H1722 0.950 . S
C1734 C1733 1.398 . S
C1734 C1735 1.391 . S
C1735 H1723 0.950 . S
C1735 C1731 1.393 . S
C1735 C1734 1.391 . S
H1736 C1744 0.950 . S
H1737 C1749 0.950 . S
H1738 C1746 0.950 . S
H1739 C1748 0.950 . S
H1740 C1750 0.950 . S
H1741 C1752 0.950 . S
H1742 C1754 0.950 . S
H1743 C1755 0.950 . S
C1744 H1736 0.950 . S
C1744 C1745 1.386 . S
C1744 C1746 1.391 . S
C1745 C1744 1.386 . S
C1745 C1749 1.393 . S
C1746 H1738 0.950 . S
C1746 C1744 1.391 . S
C1746 C1747 1.400 . S
C1747 C1746 1.400 . S
C1747 C1748 1.398 . S
C1747 C1753 1.491 . S
C1748 H1739 0.950 . S
C1748 C1747 1.398 . S
C1748 C1749 1.391 . S
C1749 H1737 0.950 . S
C1749 C1745 1.393 . S
C1749 C1748 1.391 . S
C1750 H1740 0.950 . S
C1750 C1751 1.386 . S
C1750 C1752 1.391 . S
C1751 C1750 1.386 . S
C1751 C1755 1.393 . S
C1752 H1741 0.950 . S
C1752 C1750 1.391 . S
C1752 C1753 1.400 . S
C1753 C1747 1.491 . S
C1753 C1752 1.400 . S
C1753 C1754 1.398 . S
C1754 H1742 0.950 . S
C1754 C1753 1.398 . S
C1754 C1755 1.391 . S
C1755 H1743 0.950 . S
C1755 C1751 1.393 . S
C1755 C1754 1.391 . S
H1756 C1764 0.950 . S
H1757 C1769 0.950 . S
H1758 C1766 0.950 . S
H1759 C1768 0.950 . S
H1760 C1770 0.950 . S
H1761 C1772 0.950 . S
H1762 C1774 0.950 . S
H1763 C1775 0.950 . S
C1764 H1756 0.950 . S
C1764 C1765 1.386 . S
C1764 C1766 1.391 . S
C1765 C1764 1.386 . S
C1765 C1769 1.393 . S
C1766 H1758 0.950 . S
C1766 C1764 1.391 . S
C1766 C1767 1.400 . S
C1767 C1766 1.400 . S
C1767 C1768 1.398 . S
C1767 C1773 1.491 . S
C1768 H1759 0.950 . S
C1768 C1767 1.398 . S
C1768 C1769 1.391 . S
C1769 H1757 0.950 . S
C1769 C1765 1.393 . S
C1769 C1768 1.391 . S
C1770 H1760 0.950 . S
C1770 C1771 1.386 . S
C1770 C1772 1.391 . S
C1771 C1770 1.386 . S
C1771 C1775 1.393 . S
C1772 H1761 0.950 . S
C1772 C1770 1.391 . S
C1772 C1773 1.400 . S
C1773 C1767 1.491 . S
C1773 C1772 1.400 . S
C1773 C1774 1.398 . S
C1774 H1762 0.950 . S
C1774 C1773 1.398 . S
C1774 C1775 1.391 . S
C1775 H1763 0.950 . S
C1775 C1771 1.393 . S
C1775 C1774 1.391 . S
H1776 C1784 0.950 . S
H1777 C1789 0.950 . S
H1778 C1786 0.950 . S
H1779 C1788 0.950 . S
H1780 C1790 0.950 . S
H1781 C1792 0.950 . S
H1782 C1794 0.950 . S
H1783 C1795 0.950 . S
C1784 H1776 0.950 . S
C1784 C1785 1.386 . S
C1784 C1786 1.391 . S
C1785 C1784 1.386 . S
C1785 C1789 1.393 . S
C1786 H1778 0.950 . S
C1786 C1784 1.391 . S
C1786 C1787 1.400 . S
C1787 C1786 1.400 . S
C1787 C1788 1.398 . S
C1787 C1793 1.491 . S
C1788 H1779 0.950 . S
C1788 C1787 1.398 . S
C1788 C1789 1.391 . S
C1789 H1777 0.950 . S
C1789 C1785 1.393 . S
C1789 C1788 1.391 . S
C1790 H1780 0.950 . S
C1790 C1791 1.386 . S
C1790 C1792 1.391 . S
C1791 C1790 1.386 . S
C1791 C1795 1.393 . S
C1792 H1781 0.950 . S
C1792 C1790 1.391 . S
C1792 C1793 1.400 . S
C1793 C1787 1.491 . S
C1793 C1792 1.400 . S
C1793 C1794 1.398 . S
C1794 H1782 0.950 . S
C1794 C1793 1.398 . S
C1794 C1795 1.391 . S
C1795 H1783 0.950 . S
C1795 C1791 1.393 . S
C1795 C1794 1.391 . S
H1796 C1804 0.950 . S
H1797 C1809 0.950 . S
H1798 C1806 0.950 . S
H1799 C1808 0.950 . S
H1800 C1810 0.950 . S
H1801 C1812 0.950 . S
H1802 C1814 0.950 . S
H1803 C1815 0.950 . S
C1804 H1796 0.950 . S
C1804 C1805 1.386 . S
C1804 C1806 1.391 . S
C1805 C1804 1.386 . S
C1805 C1809 1.393 . S
C1806 H1798 0.950 . S
C1806 C1804 1.391 . S
C1806 C1807 1.400 . S
C1807 C1806 1.400 . S
C1807 C1808 1.398 . S
C1807 C1813 1.491 . S
C1808 H1799 0.950 . S
C1808 C1807 1.398 . S
C1808 C1809 1.391 . S
C1809 H1797 0.950 . S
C1809 C1805 1.393 . S
C1809 C1808 1.391 . S
C1810 H1800 0.950 . S
C1810 C1811 1.386 . S
C1810 C1812 1.391 . S
C1811 C1810 1.386 . S
C1811 C1815 1.393 . S
C1812 H1801 0.950 . S
C1812 C1810 1.391 . S
C1812 C1813 1.400 . S
C1813 C1807 1.491 . S
C1813 C1812 1.400 . S
C1813 C1814 1.398 . S
C1814 H1802 0.950 . S
C1814 C1813 1.398 . S
C1814 C1815 1.391 . S
C1815 H1803 0.950 . S
C1815 C1811 1.393 . S
C1815 C1814 1.391 . S
H1816 C1824 0.950 . S
H1817 C1829 0.950 . S
H1818 C1826 0.950 . S
H1819 C1828 0.950 . S
H1820 C1830 0.950 . S
H1821 C1832 0.950 . S
H1822 C1834 0.950 . S
H1823 C1835 0.950 . S
C1824 H1816 0.950 . S
C1824 C1825 1.386 . S
C1824 C1826 1.391 . S
C1825 C1824 1.386 . S
C1825 C1829 1.393 . S
C1826 H1818 0.950 . S
C1826 C1824 1.391 . S
C1826 C1827 1.400 . S
C1827 C1826 1.400 . S
C1827 C1828 1.398 . S
C1827 C1833 1.491 . S
C1828 H1819 0.950 . S
C1828 C1827 1.398 . S
C1828 C1829 1.391 . S
C1829 H1817 0.950 . S
C1829 C1825 1.393 . S
C1829 C1828 1.391 . S
C1830 H1820 0.950 . S
C1830 C1831 1.386 . S
C1830 C1832 1.391 . S
C1831 C1830 1.386 . S
C1831 C1835 1.393 . S
C1832 H1821 0.950 . S
C1832 C1830 1.391 . S
C1832 C1833 1.400 . S
C1833 C1827 1.491 . S
C1833 C1832 1.400 . S
C1833 C1834 1.398 . S
C1834 H1822 0.950 . S
C1834 C1833 1.398 . S
C1834 C1835 1.391 . S
C1835 H1823 0.950 . S
C1835 C1831 1.393 . S
C1835 C1834 1.391 . S
H1836 C1844 0.950 . S
H1837 C1849 0.950 . S
H1838 C1846 0.950 . S
H1839 C1848 0.950 . S
H1840 C1850 0.950 . S
H1841 C1852 0.950 . S
H1842 C1854 0.950 . S
H1843 C1855 0.950 . S
C1844 H1836 0.950 . S
C1844 C1845 1.386 . S
C1844 C1846 1.391 . S
C1845 C1844 1.386 . S
C1845 C1849 1.393 . S
C1846 H1838 0.950 . S
C1846 C1844 1.391 . S
C1846 C1847 1.400 . S
C1847 C1846 1.400 . S
C1847 C1848 1.398 . S
C1847 C1853 1.491 . S
C1848 H1839 0.950 . S
C1848 C1847 1.398 . S
C1848 C1849 1.391 . S
C1849 H1837 0.950 . S
C1849 C1845 1.393 . S
C1849 C1848 1.391 . S
C1850 H1840 0.950 . S
C1850 C1851 1.386 . S
C1850 C1852 1.391 . S
C1851 C1850 1.386 . S
C1851 C1855 1.393 . S
C1852 H1841 0.950 . S
C1852 C1850 1.391 . S
C1852 C1853 1.400 . S
C1853 C1847 1.491 . S
C1853 C1852 1.400 . S
C1853 C1854 1.398 . S
C1854 H1842 0.950 . S
C1854 C1853 1.398 . S
C1854 C1855 1.391 . S
C1855 H1843 0.950 . S
C1855 C1851 1.393 . S
C1855 C1854 1.391 . S
H1856 C1864 0.950 . S
H1857 C1869 0.950 . S
H1858 C1866 0.950 . S
H1859 C1868 0.950 . S
H1860 C1870 0.950 . S
H1861 C1872 0.950 . S
H1862 C1874 0.950 . S
H1863 C1875 0.950 . S
C1864 H1856 0.950 . S
C1864 C1865 1.386 . S
C1864 C1866 1.391 . S
C1865 C1864 1.386 . S
C1865 C1869 1.393 . S
C1866 H1858 0.950 . S
C1866 C1864 1.391 . S
C1866 C1867 1.400 . S
C1867 C1866 1.400 . S
C1867 C1868 1.398 . S
C1867 C1873 1.491 . S
C1868 H1859 0.950 . S
C1868 C1867 1.398 . S
C1868 C1869 1.391 . S
C1869 H1857 0.950 . S
C1869 C1865 1.393 . S
C1869 C1868 1.391 . S
C1870 H1860 0.950 . S
C1870 C1871 1.386 . S
C1870 C1872 1.391 . S
C1871 C1870 1.386 . S
C1871 C1875 1.393 . S
C1872 H1861 0.950 . S
C1872 C1870 1.391 . S
C1872 C1873 1.400 . S
C1873 C1867 1.491 . S
C1873 C1872 1.400 . S
C1873 C1874 1.398 . S
C1874 H1862 0.950 . S
C1874 C1873 1.398 . S
C1874 C1875 1.391 . S
C1875 H1863 0.950 . S
C1875 C1871 1.393 . S
C1875 C1874 1.391 . S
H1876 C1884 0.950 . S
H1877 C1889 0.950 . S
H1878 C1886 0.950 . S
H1879 C1888 0.950 . S
H1880 C1890 0.950 . S
H1881 C1892 0.950 . S
H1882 C1894 0.950 . S
H1883 C1895 0.950 . S
C1884 H1876 0.950 . S
C1884 C1885 1.386 . S
C1884 C1886 1.391 . S
C1885 C1884 1.386 . S
C1885 C1889 1.393 . S
C1886 H1878 0.950 . S
C1886 C1884 1.391 . S
C1886 C1887 1.400 . S
C1887 C1886 1.400 . S
C1887 C1888 1.398 . S
C1887 C1893 1.491 . S
C1888 H1879 0.950 . S
C1888 C1887 1.398 . S
C1888 C1889 1.391 . S
C1889 H1877 0.950 . S
C1889 C1885 1.393 . S
C1889 C1888 1.391 . S
C1890 H1880 0.950 . S
C1890 C1891 1.386 . S
C1890 C1892 1.391 . S
C1891 C1890 1.386 . S
C1891 C1895 1.393 . S
C1892 H1881 0.950 . S
C1892 C1890 1.391 . S
C1892 C1893 1.400 . S
C1893 C1887 1.491 . S
C1893 C1892 1.400 . S
C1893 C1894 1.398 . S
C1894 H1882 0.950 . S
C1894 C1893 1.398 . S
C1894 C1895 1.391 . S
C1895 H1883 0.950 . S
C1895 C1891 1.393 . S
C1895 C1894 1.391 . S
H1896 C1904 0.950 . S
H1897 C1909 0.950 . S
H1898 C1906 0.950 . S
H1899 C1908 0.950 . S
H1900 C1910 0.950 . S
H1901 C1912 0.950 . S
H1902 C1914 0.950 . S
H1903 C1915 0.950 . S
C1904 H1896 0.950 . S
C1904 C1905 1.386 . S
C1904 C1906 1.391 . S
C1905 C1904 1.386 . S
C1905 C1909 1.393 . S
C1906 H1898 0.950 . S
C1906 C1904 1.391 . S
C1906 C1907 1.400 . S
C1907 C1906 1.400 . S
C1907 C1908 1.398 . S
C1907 C1913 1.491 . S
C1908 H1899 0.950 . S
C1908 C1907 1.398 . S
C1908 C1909 1.391 . S
C1909 H1897 0.950 . S
C1909 C1905 1.393 . S
C1909 C1908 1.391 . S
C1910 H1900 0.950 . S
C1910 C1911 1.386 . S
C1910 C1912 1.391 . S
C1911 C1910 1.386 . S
C1911 C1915 1.393 . S
C1912 H1901 0.950 . S
C1912 C1910 1.391 . S
C1912 C1913 1.400 . S
C1913 C1907 1.491 . S
C1913 C1912 1.400 . S
C1913 C1914 1.398 . S
C1914 H1902 0.950 . S
C1914 C1913 1.398 . S
C1914 C1915 1.391 . S
C1915 H1903 0.950 . S
C1915 C1911 1.393 . S
C1915 C1914 1.391 . S
H1916 C1924 0.950 . S
H1917 C1929 0.950 . S
H1918 C1926 0.950 . S
H1919 C1928 0.950 . S
H1920 C1930 0.950 . S
H1921 C1932 0.950 . S
H1922 C1934 0.950 . S
H1923 C1935 0.950 . S
C1924 H1916 0.950 . S
C1924 C1925 1.386 . S
C1924 C1926 1.391 . S
C1925 C1924 1.386 . S
C1925 C1929 1.393 . S
C1926 H1918 0.950 . S
C1926 C1924 1.391 . S
C1926 C1927 1.400 . S
C1927 C1926 1.400 . S
C1927 C1928 1.398 . S
C1927 C1933 1.491 . S
C1928 H1919 0.950 . S
C1928 C1927 1.398 . S
C1928 C1929 1.391 . S
C1929 H1917 0.950 . S
C1929 C1925 1.393 . S
C1929 C1928 1.391 . S
C1930 H1920 0.950 . S
C1930 C1931 1.386 . S
C1930 C1932 1.391 . S
C1931 C1930 1.386 . S
C1931 C1935 1.393 . S
C1932 H1921 0.950 . S
C1932 C1930 1.391 . S
C1932 C1933 1.400 . S
C1933 C1927 1.491 . S
C1933 C1932 1.400 . S
C1933 C1934 1.398 . S
C1934 H1922 0.950 . S
C1934 C1933 1.398 . S
C1934 C1935 1.391 . S
C1935 H1923 0.950 . S
C1935 C1931 1.393 . S
C1935 C1934 1.391 . S
H1936 C1944 0.950 . S
H1937 C1949 0.950 . S
H1938 C1946 0.950 . S
H1939 C1948 0.950 . S
H1940 C1950 0.950 . S
H1941 C1952 0.950 . S
H1942 C1954 0.950 . S
H1943 C1955 0.950 . S
C1944 H1936 0.950 . S
C1944 C1945 1.386 . S
C1944 C1946 1.391 . S
C1945 C1944 1.386 . S
C1945 C1949 1.393 . S
C1946 H1938 0.950 . S
C1946 C1944 1.391 . S
C1946 C1947 1.400 . S
C1947 C1946 1.400 . S
C1947 C1948 1.398 . S
C1947 C1953 1.491 . S
C1948 H1939 0.950 . S
C1948 C1947 1.398 . S
C1948 C1949 1.391 . S
C1949 H1937 0.950 . S
C1949 C1945 1.393 . S
C1949 C1948 1.391 . S
C1950 H1940 0.950 . S
C1950 C1951 1.386 . S
C1950 C1952 1.391 . S
C1951 C1950 1.386 . S
C1951 C1955 1.393 . S
C1952 H1941 0.950 . S
C1952 C1950 1.391 . S
C1952 C1953 1.400 . S
C1953 C1947 1.491 . S
C1953 C1952 1.400 . S
C1953 C1954 1.398 . S
C1954 H1942 0.950 . S
C1954 C1953 1.398 . S
C1954 C1955 1.391 . S
C1955 H1943 0.950 . S
C1955 C1951 1.393 . S
C1955 C1954 1.391 . S
H1956 C1964 0.950 . S
H1957 C1969 0.950 . S
H1958 C1966 0.950 . S
H1959 C1968 0.950 . S
H1960 C1970 0.950 . S
H1961 C1972 0.950 . S
H1962 C1974 0.950 . S
H1963 C1975 0.950 . S
C1964 H1956 0.950 . S
C1964 C1965 1.386 . S
C1964 C1966 1.391 . S
C1965 C1964 1.386 . S
C1965 C1969 1.393 . S
C1966 H1958 0.950 . S
C1966 C1964 1.391 . S
C1966 C1967 1.400 . S
C1967 C1966 1.400 . S
C1967 C1968 1.398 . S
C1967 C1973 1.491 . S
C1968 H1959 0.950 . S
C1968 C1967 1.398 . S
C1968 C1969 1.391 . S
C1969 H1957 0.950 . S
C1969 C1965 1.393 . S
C1969 C1968 1.391 . S
C1970 H1960 0.950 . S
C1970 C1971 1.386 . S
C1970 C1972 1.391 . S
C1971 C1970 1.386 . S
C1971 C1975 1.393 . S
C1972 H1961 0.950 . S
C1972 C1970 1.391 . S
C1972 C1973 1.400 . S
C1973 C1967 1.491 . S
C1973 C1972 1.400 . S
C1973 C1974 1.398 . S
C1974 H1962 0.950 . S
C1974 C1973 1.398 . S
C1974 C1975 1.391 . S
C1975 H1963 0.950 . S
C1975 C1971 1.393 . S
C1975 C1974 1.391 . S
H1976 C1984 0.950 . S
H1977 C1989 0.950 . S
H1978 C1986 0.950 . S
H1979 C1988 0.950 . S
H1980 C1990 0.950 . S
H1981 C1992 0.950 . S
H1982 C1994 0.950 . S
H1983 C1995 0.950 . S
C1984 H1976 0.950 . S
C1984 C1985 1.386 . S
C1984 C1986 1.391 . S
C1985 C1984 1.386 . S
C1985 C1989 1.393 . S
C1986 H1978 0.950 . S
C1986 C1984 1.391 . S
C1986 C1987 1.400 . S
C1987 C1986 1.400 . S
C1987 C1988 1.398 . S
C1987 C1993 1.491 . S
C1988 H1979 0.950 . S
C1988 C1987 1.398 . S
C1988 C1989 1.391 . S
C1989 H1977 0.950 . S
C1989 C1985 1.393 . S
C1989 C1988 1.391 . S
C1990 H1980 0.950 . S
C1990 C1991 1.386 . S
C1990 C1992 1.391 . S
C1991 C1990 1.386 . S
C1991 C1995 1.393 . S
C1992 H1981 0.950 . S
C1992 C1990 1.391 . S
C1992 C1993 1.400 . S
C1993 C1987 1.491 . S
C1993 C1992 1.400 . S
C1993 C1994 1.398 . S
C1994 H1982 0.950 . S
C1994 C1993 1.398 . S
C1994 C1995 1.391 . S
C1995 H1983 0.950 . S
C1995 C1991 1.393 . S
C1995 C1994 1.391 . S
H1996 C2004 0.950 . S
H1997 C2009 0.950 . S
H1998 C2006 0.950 . S
H1999 C2008 0.950 . S
H2000 C2010 0.950 . S
H2001 C2012 0.950 . S
H2002 C2014 0.950 . S
H2003 C2015 0.950 . S
C2004 H1996 0.950 . S
C2004 C2005 1.386 . S
C2004 C2006 1.391 . S
C2005 C2004 1.386 . S
C2005 C2009 1.393 . S
C2006 H1998 0.950 . S
C2006 C2004 1.391 . S
C2006 C2007 1.400 . S
C2007 C2006 1.400 . S
C2007 C2008 1.398 . S
C2007 C2013 1.491 . S
C2008 H1999 0.950 . S
C2008 C2007 1.398 . S
C2008 C2009 1.391 . S
C2009 H1997 0.950 . S
C2009 C2005 1.393 . S
C2009 C2008 1.391 . S
C2010 H2000 0.950 . S
C2010 C2011 1.386 . S
C2010 C2012 1.391 . S
C2011 C2010 1.386 . S
C2011 C2015 1.393 . S
C2012 H2001 0.950 . S
C2012 C2010 1.391 . S
C2012 C2013 1.400 . S
C2013 C2007 1.491 . S
C2013 C2012 1.400 . S
C2013 C2014 1.398 . S
C2014 H2002 0.950 . S
C2014 C2013 1.398 . S
C2014 C2015 1.391 . S
C2015 H2003 0.950 . S
C2015 C2011 1.393 . S
C2015 C2014 1.391 . S
H2016 C2024 0.950 . S
H2017 C2029 0.950 . S
H2018 C2026 0.950 . S
H2019 C2028 0.950 . S
H2020 C2030 0.950 . S
H2021 C2032 0.950 . S
H2022 C2034 0.950 . S
H2023 C2035 0.950 . S
C2024 H2016 0.950 . S
C2024 C2025 1.386 . S
C2024 C2026 1.391 . S
C2025 C2024 1.386 . S
C2025 C2029 1.393 . S
C2026 H2018 0.950 . S
C2026 C2024 1.391 . S
C2026 C2027 1.400 . S
C2027 C2026 1.400 . S
C2027 C2028 1.398 . S
C2027 C2033 1.491 1_554 S
C2028 H2019 0.950 . S
C2028 C2027 1.398 . S
C2028 C2029 1.391 . S
C2029 H2017 0.950 . S
C2029 C2025 1.393 . S
C2029 C2028 1.391 . S
C2030 H2020 0.950 . S
C2030 C2031 1.386 . S
C2030 C2032 1.391 . S
C2031 C2030 1.386 . S
C2031 C2035 1.393 . S
C2032 H2021 0.950 . S
C2032 C2030 1.391 . S
C2032 C2033 1.400 . S
C2033 C2027 1.491 1_556 S
C2033 C2032 1.400 . S
C2033 C2034 1.398 . S
C2034 H2022 0.950 . S
C2034 C2033 1.398 . S
C2034 C2035 1.391 . S
C2035 H2023 0.950 . S
C2035 C2031 1.393 . S
C2035 C2034 1.391 . S
H2036 C2044 0.950 . S
H2037 C2049 0.950 . S
H2038 C2046 0.950 . S
H2039 C2048 0.940 1_545 S
H2040 C2050 0.950 . S
H2041 C2052 0.950 . S
H2042 C2054 0.940 1_565 S
H2043 C2055 0.950 . S
C2044 H2036 0.950 . S
C2044 C2045 1.386 . S
C2044 C2046 1.391 . S
C2045 C2044 1.386 . S
C2045 C2049 1.393 . S
C2046 H2038 0.950 . S
C2046 C2044 1.391 . S
C2046 C2047 1.400 . S
C2047 C2046 1.400 . S
C2047 C2048 1.401 . S
C2047 C2053 1.491 1_565 S
C2048 H2039 0.940 1_565 S
C2048 C2047 1.401 . S
C2048 C2049 1.398 . S
C2049 H2037 0.950 . S
C2049 C2045 1.393 . S
C2049 C2048 1.398 . S
C2050 H2040 0.950 . S
C2050 C2051 1.386 . S
C2050 C2052 1.391 . S
C2051 C2050 1.386 . S
C2051 C2055 1.393 . S
C2052 H2041 0.950 . S
C2052 C2050 1.391 . S
C2052 C2053 1.400 . S
C2053 C2047 1.491 1_545 S
C2053 C2052 1.400 . S
C2053 C2054 1.401 . S
C2054 H2042 0.940 1_545 S
C2054 C2053 1.401 . S
C2054 C2055 1.398 . S
C2055 H2043 0.950 . S
C2055 C2051 1.393 . S
C2055 C2054 1.398 . S
H2056 C2064 0.950 . S
H2057 C2069 0.950 . S
H2058 C2066 0.950 . S
H2059 C2068 0.950 . S
H2060 C2070 0.950 . S
H2061 C2072 0.950 . S
H2062 C2074 0.950 . S
H2063 C2075 0.950 . S
C2064 H2056 0.950 . S
C2064 C2065 1.386 . S
C2064 C2066 1.391 . S
C2065 C2064 1.386 . S
C2065 C2069 1.393 . S
C2066 H2058 0.950 . S
C2066 C2064 1.391 . S
C2066 C2067 1.400 . S
C2067 C2066 1.400 . S
C2067 C2068 1.398 . S
C2067 C2073 1.491 . S
C2068 H2059 0.950 . S
C2068 C2067 1.398 . S
C2068 C2069 1.391 . S
C2069 H2057 0.950 . S
C2069 C2065 1.393 . S
C2069 C2068 1.391 . S
C2070 H2060 0.950 . S
C2070 C2071 1.386 . S
C2070 C2072 1.391 . S
C2071 C2070 1.386 . S
C2071 C2075 1.393 . S
C2072 H2061 0.950 . S
C2072 C2070 1.391 . S
C2072 C2073 1.400 . S
C2073 C2067 1.491 . S
C2073 C2072 1.400 . S
C2073 C2074 1.398 . S
C2074 H2062 0.950 . S
C2074 C2073 1.398 . S
C2074 C2075 1.391 . S
C2075 H2063 0.950 . S
C2075 C2071 1.393 . S
C2075 C2074 1.391 . S
H2076 C2084 0.950 . S
H2077 C2089 0.950 . S
H2078 C2086 0.950 . S
H2079 C2088 0.950 . S
H2080 C2090 0.950 . S
H2081 C2092 0.950 . S
H2082 C2094 0.950 . S
H2083 C2095 0.950 . S
C2084 H2076 0.950 . S
C2084 C2085 1.386 . S
C2084 C2086 1.391 . S
C2085 C2084 1.386 . S
C2085 C2089 1.393 . S
C2086 H2078 0.950 . S
C2086 C2084 1.391 . S
C2086 C2087 1.400 . S
C2087 C2086 1.400 . S
C2087 C2088 1.398 . S
C2087 C2093 1.491 1_565 S
C2088 H2079 0.950 . S
C2088 C2087 1.398 . S
C2088 C2089 1.391 . S
C2089 H2077 0.950 . S
C2089 C2085 1.393 . S
C2089 C2088 1.391 . S
C2090 H2080 0.950 . S
C2090 C2091 1.386 . S
C2090 C2092 1.391 . S
C2091 C2090 1.386 . S
C2091 C2095 1.393 . S
C2092 H2081 0.950 . S
C2092 C2090 1.391 . S
C2092 C2093 1.400 . S
C2093 C2087 1.491 1_545 S
C2093 C2092 1.400 . S
C2093 C2094 1.398 . S
C2094 H2082 0.950 . S
C2094 C2093 1.398 . S
C2094 C2095 1.391 . S
C2095 H2083 0.950 . S
C2095 C2091 1.393 . S
C2095 C2094 1.391 . S
H2096 C2104 0.950 . S
H2097 C2109 0.950 . S
H2098 C2106 0.950 . S
H2099 C2108 0.950 . S
H2100 C2110 0.950 . S
H2101 C2112 0.950 . S
H2102 C2114 0.950 . S
H2103 C2115 0.950 . S
C2104 H2096 0.950 . S
C2104 C2105 1.386 . S
C2104 C2106 1.391 . S
C2105 C2104 1.386 . S
C2105 C2109 1.393 . S
C2106 H2098 0.950 . S
C2106 C2104 1.391 . S
C2106 C2107 1.400 . S
C2107 C2106 1.400 . S
C2107 C2108 1.398 . S
C2107 C2113 1.491 1_554 S
C2108 H2099 0.950 . S
C2108 C2107 1.398 . S
C2108 C2109 1.391 . S
C2109 H2097 0.950 . S
C2109 C2105 1.393 . S
C2109 C2108 1.391 . S
C2110 H2100 0.950 . S
C2110 C2111 1.386 . S
C2110 C2112 1.391 . S
C2111 C2110 1.386 . S
C2111 C2115 1.393 . S
C2112 H2101 0.950 . S
C2112 C2110 1.391 . S
C2112 C2113 1.400 . S
C2113 C2107 1.491 1_556 S
C2113 C2112 1.400 . S
C2113 C2114 1.398 . S
C2114 H2102 0.950 . S
C2114 C2113 1.398 . S
C2114 C2115 1.391 . S
C2115 H2103 0.950 . S
C2115 C2111 1.393 . S
C2115 C2114 1.391 . S
H2116 C2124 0.950 . S
H2117 C2129 0.950 . S
H2118 C2126 0.950 . S
H2119 C2128 0.950 . S
H2120 C2130 0.950 . S
H2121 C2132 0.950 . S
H2122 C2134 0.950 . S
H2123 C2135 0.950 . S
C2124 H2116 0.950 . S
C2124 C2125 1.386 . S
C2124 C2126 1.391 . S
C2125 C2124 1.386 . S
C2125 C2129 1.393 1_545 S
C2126 H2118 0.950 . S
C2126 C2124 1.391 . S
C2126 C2127 1.400 . S
C2127 C2126 1.400 . S
C2127 C2128 1.398 1_545 S
C2127 C2133 1.491 1_545 S
C2128 H2119 0.950 . S
C2128 C2127 1.398 1_565 S
C2128 C2129 1.391 . S
C2129 H2117 0.950 . S
C2129 C2125 1.393 1_565 S
C2129 C2128 1.391 . S
C2130 H2120 0.950 . S
C2130 C2131 1.386 . S
C2130 C2132 1.391 . S
C2131 C2130 1.386 . S
C2131 C2135 1.393 1_565 S
C2132 H2121 0.950 . S
C2132 C2130 1.391 . S
C2132 C2133 1.400 . S
C2133 C2127 1.491 1_565 S
C2133 C2132 1.400 . S
C2133 C2134 1.398 1_565 S
C2134 H2122 0.950 . S
C2134 C2133 1.398 1_545 S
C2134 C2135 1.391 . S
C2135 H2123 0.950 . S
C2135 C2131 1.393 1_545 S
C2135 C2134 1.391 . S
H2136 C2144 0.950 . S
H2137 C2149 0.950 . S
H2138 C2146 0.950 . S
H2139 C2148 0.950 . S
H2140 C2150 0.950 . S
H2141 C2152 0.950 . S
H2142 C2154 0.950 . S
H2143 C2155 0.950 . S
C2144 H2136 0.950 . S
C2144 C2145 1.386 . S
C2144 C2146 1.391 . S
C2145 C2144 1.386 . S
C2145 C2149 1.393 . S
C2146 H2138 0.950 . S
C2146 C2144 1.391 . S
C2146 C2147 1.400 . S
C2147 C2146 1.400 . S
C2147 C2148 1.398 . S
C2147 C2153 1.491 . S
C2148 H2139 0.950 . S
C2148 C2147 1.398 . S
C2148 C2149 1.391 . S
C2149 H2137 0.950 . S
C2149 C2145 1.393 . S
C2149 C2148 1.391 . S
C2150 H2140 0.950 . S
C2150 C2151 1.386 . S
C2150 C2152 1.391 . S
C2151 C2150 1.386 . S
C2151 C2155 1.393 . S
C2152 H2141 0.950 . S
C2152 C2150 1.391 . S
C2152 C2153 1.400 . S
C2153 C2147 1.491 . S
C2153 C2152 1.400 . S
C2153 C2154 1.398 . S
C2154 H2142 0.950 . S
C2154 C2153 1.398 . S
C2154 C2155 1.391 . S
C2155 H2143 0.950 . S
C2155 C2151 1.393 . S
C2155 C2154 1.391 . S
H2156 C2164 0.950 . S
H2157 C2169 0.950 . S
H2158 C2166 0.950 . S
H2159 C2168 0.950 . S
H2160 C2170 0.950 . S
H2161 C2172 0.950 . S
H2162 C2174 0.950 . S
H2163 C2175 0.950 . S
C2164 H2156 0.950 . S
C2164 C2165 1.386 . S
C2164 C2166 1.391 . S
C2165 C2164 1.386 . S
C2165 C2169 1.393 1_565 S
C2166 H2158 0.950 . S
C2166 C2164 1.391 . S
C2166 C2167 1.400 . S
C2167 C2166 1.400 . S
C2167 C2168 1.398 1_565 S
C2167 C2173 1.491 1_565 S
C2168 H2159 0.950 . S
C2168 C2167 1.398 1_545 S
C2168 C2169 1.391 . S
C2169 H2157 0.950 . S
C2169 C2165 1.393 1_545 S
C2169 C2168 1.391 . S
C2170 H2160 0.950 . S
C2170 C2171 1.386 . S
C2170 C2172 1.391 . S
C2171 C2170 1.386 . S
C2171 C2175 1.393 1_545 S
C2172 H2161 0.950 . S
C2172 C2170 1.391 . S
C2172 C2173 1.400 . S
C2173 C2167 1.491 1_545 S
C2173 C2172 1.400 . S
C2173 C2174 1.398 1_545 S
C2174 H2162 0.950 . S
C2174 C2173 1.398 1_565 S
C2174 C2175 1.391 . S
C2175 H2163 0.950 . S
C2175 C2171 1.393 1_565 S
C2175 C2174 1.391 . S
H2176 C2184 0.950 . S
H2177 C2189 0.950 . S
H2178 C2186 0.950 . S
H2179 C2188 0.950 . S
H2180 C2190 0.950 . S
H2181 C2192 0.950 . S
H2182 C2194 0.950 . S
H2183 C2195 0.950 . S
C2184 H2176 0.950 . S
C2184 C2185 1.386 . S
C2184 C2186 1.391 . S
C2185 C2184 1.386 . S
C2185 C2189 1.393 . S
C2186 H2178 0.950 . S
C2186 C2184 1.391 . S
C2186 C2187 1.400 . S
C2187 C2186 1.400 . S
C2187 C2188 1.398 . S
C2187 C2193 1.491 . S
C2188 H2179 0.950 . S
C2188 C2187 1.398 . S
C2188 C2189 1.391 . S
C2189 H2177 0.950 . S
C2189 C2185 1.393 . S
C2189 C2188 1.391 . S
C2190 H2180 0.950 . S
C2190 C2191 1.386 . S
C2190 C2192 1.391 . S
C2191 C2190 1.386 . S
C2191 C2195 1.393 . S
C2192 H2181 0.950 . S
C2192 C2190 1.391 . S
C2192 C2193 1.400 . S
C2193 C2187 1.491 . S
C2193 C2192 1.400 . S
C2193 C2194 1.398 . S
C2194 H2182 0.950 . S
C2194 C2193 1.398 . S
C2194 C2195 1.391 . S
C2195 H2183 0.950 . S
C2195 C2191 1.393 . S
C2195 C2194 1.391 . S
H2196 C2204 0.950 . S
H2197 C2209 0.950 . S
H2198 C2206 0.950 . S
H2199 C2208 0.950 . S
H2200 C2210 0.950 . S
H2201 C2212 0.950 . S
H2202 C2214 0.950 . S
H2203 C2215 0.950 . S
C2204 H2196 0.950 . S
C2204 C2205 1.386 . S
C2204 C2206 1.391 . S
C2205 C2204 1.386 . S
C2205 C2209 1.393 . S
C2206 H2198 0.950 . S
C2206 C2204 1.391 . S
C2206 C2207 1.400 . S
C2207 C2206 1.400 . S
C2207 C2208 1.398 . S
C2207 C2213 1.491 . S
C2208 H2199 0.950 . S
C2208 C2207 1.398 . S
C2208 C2209 1.391 . S
C2209 H2197 0.950 . S
C2209 C2205 1.393 . S
C2209 C2208 1.391 . S
C2210 H2200 0.950 . S
C2210 C2211 1.386 . S
C2210 C2212 1.391 . S
C2211 C2210 1.386 . S
C2211 C2215 1.393 . S
C2212 H2201 0.950 . S
C2212 C2210 1.391 . S
C2212 C2213 1.400 . S
C2213 C2207 1.491 . S
C2213 C2212 1.400 . S
C2213 C2214 1.398 . S
C2214 H2202 0.950 . S
C2214 C2213 1.398 . S
C2214 C2215 1.391 . S
C2215 H2203 0.950 . S
C2215 C2211 1.393 . S
C2215 C2214 1.391 . S
H2216 C2224 0.950 . S
H2217 C2229 0.950 . S
H2218 C2226 0.950 . S
H2219 C2228 0.950 . S
H2220 C2230 0.950 . S
H2221 C2232 0.950 . S
H2222 C2234 0.950 . S
H2223 C2235 0.950 . S
C2224 H2216 0.950 . S
C2224 C2225 1.386 . S
C2224 C2226 1.391 . S
C2225 C2224 1.386 . S
C2225 C2229 1.393 . S
C2226 H2218 0.950 . S
C2226 C2224 1.391 . S
C2226 C2227 1.400 . S
C2227 C2226 1.400 . S
C2227 C2228 1.398 . S
C2227 C2233 1.491 1_554 S
C2228 H2219 0.950 . S
C2228 C2227 1.398 . S
C2228 C2229 1.391 . S
C2229 H2217 0.950 . S
C2229 C2225 1.393 . S
C2229 C2228 1.391 . S
C2230 H2220 0.950 . S
C2230 C2231 1.386 . S
C2230 C2232 1.391 . S
C2231 C2230 1.386 . S
C2231 C2235 1.393 . S
C2232 H2221 0.950 . S
C2232 C2230 1.391 . S
C2232 C2233 1.400 . S
C2233 C2227 1.491 1_556 S
C2233 C2232 1.400 . S
C2233 C2234 1.398 . S
C2234 H2222 0.950 . S
C2234 C2233 1.398 . S
C2234 C2235 1.391 . S
C2235 H2223 0.950 . S
C2235 C2231 1.393 . S
C2235 C2234 1.391 . S
H2236 C2244 0.950 . S
H2237 C2249 0.950 . S
H2238 C2246 0.950 . S
H2239 C2248 0.950 . S
H2240 C2250 0.950 . S
H2241 C2252 0.950 . S
H2242 C2254 0.950 . S
H2243 C2255 0.950 . S
C2244 H2236 0.950 . S
C2244 C2245 1.386 . S
C2244 C2246 1.391 . S
C2245 C2244 1.386 . S
C2245 C2249 1.393 . S
C2246 H2238 0.950 . S
C2246 C2244 1.391 . S
C2246 C2247 1.400 . S
C2247 C2246 1.400 . S
C2247 C2248 1.398 . S
C2247 C2253 1.491 . S
C2248 H2239 0.950 . S
C2248 C2247 1.398 . S
C2248 C2249 1.391 . S
C2249 H2237 0.950 . S
C2249 C2245 1.393 . S
C2249 C2248 1.391 . S
C2250 H2240 0.950 . S
C2250 C2251 1.386 . S
C2250 C2252 1.391 . S
C2251 C2250 1.386 . S
C2251 C2255 1.393 . S
C2252 H2241 0.950 . S
C2252 C2250 1.391 . S
C2252 C2253 1.400 . S
C2253 C2247 1.491 . S
C2253 C2252 1.400 . S
C2253 C2254 1.398 . S
C2254 H2242 0.950 . S
C2254 C2253 1.398 . S
C2254 C2255 1.391 . S
C2255 H2243 0.950 . S
C2255 C2251 1.393 . S
C2255 C2254 1.391 . S
H2256 C2264 0.950 . S
H2257 C2269 0.950 . S
H2258 C2266 0.950 . S
H2259 C2268 0.950 . S
H2260 C2270 0.950 . S
H2261 C2272 0.950 . S
H2262 C2274 0.950 . S
H2263 C2275 0.950 . S
C2264 H2256 0.950 . S
C2264 C2265 1.386 . S
C2264 C2266 1.391 . S
C2265 C2264 1.386 . S
C2265 C2269 1.393 . S
C2266 H2258 0.950 . S
C2266 C2264 1.391 . S
C2266 C2267 1.400 . S
C2267 C2266 1.400 . S
C2267 C2268 1.398 . S
C2267 C2273 1.491 . S
C2268 H2259 0.950 . S
C2268 C2267 1.398 . S
C2268 C2269 1.391 . S
C2269 H2257 0.950 . S
C2269 C2265 1.393 . S
C2269 C2268 1.391 . S
C2270 H2260 0.950 . S
C2270 C2271 1.386 . S
C2270 C2272 1.391 . S
C2271 C2270 1.386 . S
C2271 C2275 1.393 . S
C2272 H2261 0.950 . S
C2272 C2270 1.391 . S
C2272 C2273 1.400 . S
C2273 C2267 1.491 . S
C2273 C2272 1.400 . S
C2273 C2274 1.398 . S
C2274 H2262 0.950 . S
C2274 C2273 1.398 . S
C2274 C2275 1.391 . S
C2275 H2263 0.950 . S
C2275 C2271 1.393 . S
C2275 C2274 1.391 . S
H2276 C2284 0.950 . S
H2277 C2289 0.950 . S
H2278 C2286 0.950 . S
H2279 C2288 0.950 . S
H2280 C2290 0.950 . S
H2281 C2292 0.950 . S
H2282 C2294 0.950 . S
H2283 C2295 0.950 . S
C2284 H2276 0.950 . S
C2284 C2285 1.386 . S
C2284 C2286 1.391 . S
C2285 C2284 1.386 . S
C2285 C2289 1.393 . S
C2286 H2278 0.950 . S
C2286 C2284 1.391 . S
C2286 C2287 1.400 . S
C2287 C2286 1.400 . S
C2287 C2288 1.398 . S
C2287 C2293 1.491 . S
C2288 H2279 0.950 . S
C2288 C2287 1.398 . S
C2288 C2289 1.391 . S
C2289 H2277 0.950 . S
C2289 C2285 1.393 . S
C2289 C2288 1.391 . S
C2290 H2280 0.950 . S
C2290 C2291 1.386 . S
C2290 C2292 1.391 . S
C2291 C2290 1.386 . S
C2291 C2295 1.393 . S
C2292 H2281 0.950 . S
C2292 C2290 1.391 . S
C2292 C2293 1.400 . S
C2293 C2287 1.491 . S
C2293 C2292 1.400 . S
C2293 C2294 1.398 . S
C2294 H2282 0.950 . S
C2294 C2293 1.398 . S
C2294 C2295 1.391 . S
C2295 H2283 0.950 . S
C2295 C2291 1.393 . S
C2295 C2294 1.391 . S
H2296 C2304 0.950 . S
H2297 C2309 0.950 . S
H2298 C2306 0.950 . S
H2299 C2308 0.950 . S
H2300 C2310 0.950 . S
H2301 C2312 0.950 . S
H2302 C2314 0.950 . S
H2303 C2315 0.950 . S
C2304 H2296 0.950 . S
C2304 C2305 1.386 . S
C2304 C2306 1.391 . S
C2305 C2304 1.386 . S
C2305 C2309 1.393 . S
C2306 H2298 0.950 . S
C2306 C2304 1.391 . S
C2306 C2307 1.400 . S
C2307 C2306 1.400 . S
C2307 C2308 1.398 . S
C2307 C2313 1.491 1_556 S
C2308 H2299 0.950 . S
C2308 C2307 1.398 . S
C2308 C2309 1.391 . S
C2309 H2297 0.950 . S
C2309 C2305 1.393 . S
C2309 C2308 1.391 . S
C2310 H2300 0.950 . S
C2310 C2311 1.386 . S
C2310 C2312 1.391 . S
C2311 C2310 1.386 . S
C2311 C2315 1.393 . S
C2312 H2301 0.950 . S
C2312 C2310 1.391 . S
C2312 C2313 1.400 . S
C2313 C2307 1.491 1_554 S
C2313 C2312 1.400 . S
C2313 C2314 1.398 . S
C2314 H2302 0.950 . S
C2314 C2313 1.398 . S
C2314 C2315 1.391 . S
C2315 H2303 0.950 . S
C2315 C2311 1.393 . S
C2315 C2314 1.391 . S
H2316 C2324 0.950 . S
H2317 C2329 0.950 . S
H2318 C2326 0.950 . S
H2319 C2328 0.950 . S
H2320 C2330 0.950 . S
H2321 C2332 0.950 . S
H2322 C2334 0.950 . S
H2323 C2335 0.950 . S
C2324 H2316 0.950 . S
C2324 C2325 1.386 . S
C2324 C2326 1.391 . S
C2325 C2324 1.386 . S
C2325 C2329 1.393 . S
C2326 H2318 0.950 . S
C2326 C2324 1.391 . S
C2326 C2327 1.400 . S
C2327 C2326 1.400 . S
C2327 C2328 1.398 . S
C2327 C2333 1.491 . S
C2328 H2319 0.950 . S
C2328 C2327 1.398 . S
C2328 C2329 1.391 . S
C2329 H2317 0.950 . S
C2329 C2325 1.393 . S
C2329 C2328 1.391 . S
C2330 H2320 0.950 . S
C2330 C2331 1.386 . S
C2330 C2332 1.391 . S
C2331 C2330 1.386 . S
C2331 C2335 1.393 . S
C2332 H2321 0.950 . S
C2332 C2330 1.391 . S
C2332 C2333 1.400 . S
C2333 C2327 1.491 . S
C2333 C2332 1.400 . S
C2333 C2334 1.398 . S
C2334 H2322 0.950 . S
C2334 C2333 1.398 . S
C2334 C2335 1.391 . S
C2335 H2323 0.950 . S
C2335 C2331 1.393 . S
C2335 C2334 1.391 . S
H2336 C2344 0.950 . S
H2337 C2349 0.950 . S
H2338 C2346 0.950 . S
H2339 C2348 0.950 . S
H2340 C2350 0.950 . S
H2341 C2352 0.950 . S
H2342 C2354 0.950 . S
H2343 C2355 0.950 . S
C2344 H2336 0.950 . S
C2344 C2345 1.386 . S
C2344 C2346 1.391 . S
C2345 C2344 1.386 . S
C2345 C2349 1.393 . S
C2346 H2338 0.950 . S
C2346 C2344 1.391 . S
C2346 C2347 1.400 . S
C2347 C2346 1.400 . S
C2347 C2348 1.398 . S
C2347 C2353 1.491 . S
C2348 H2339 0.950 . S
C2348 C2347 1.398 . S
C2348 C2349 1.391 . S
C2349 H2337 0.950 . S
C2349 C2345 1.393 . S
C2349 C2348 1.391 . S
C2350 H2340 0.950 . S
C2350 C2351 1.386 . S
C2350 C2352 1.391 . S
C2351 C2350 1.386 . S
C2351 C2355 1.393 . S
C2352 H2341 0.950 . S
C2352 C2350 1.391 . S
C2352 C2353 1.400 . S
C2353 C2347 1.491 . S
C2353 C2352 1.400 . S
C2353 C2354 1.398 . S
C2354 H2342 0.950 . S
C2354 C2353 1.398 . S
C2354 C2355 1.391 . S
C2355 H2343 0.950 . S
C2355 C2351 1.393 . S
C2355 C2354 1.391 . S
H2356 C2364 0.950 . S
H2357 C2369 0.950 . S
H2358 C2366 0.950 . S
H2359 C2368 0.950 . S
H2360 C2370 0.950 . S
H2361 C2372 0.950 . S
H2362 C2374 0.950 . S
H2363 C2375 0.950 . S
C2364 H2356 0.950 . S
C2364 C2365 1.386 . S
C2364 C2366 1.391 . S
C2365 C2364 1.386 . S
C2365 C2369 1.393 . S
C2366 H2358 0.950 . S
C2366 C2364 1.391 . S
C2366 C2367 1.400 . S
C2367 C2366 1.400 . S
C2367 C2368 1.398 . S
C2367 C2373 1.491 . S
C2368 H2359 0.950 . S
C2368 C2367 1.398 . S
C2368 C2369 1.391 . S
C2369 H2357 0.950 . S
C2369 C2365 1.393 . S
C2369 C2368 1.391 . S
C2370 H2360 0.950 . S
C2370 C2371 1.386 . S
C2370 C2372 1.391 . S
C2371 C2370 1.386 . S
C2371 C2375 1.393 . S
C2372 H2361 0.950 . S
C2372 C2370 1.391 . S
C2372 C2373 1.400 . S
C2373 C2367 1.491 . S
C2373 C2372 1.400 . S
C2373 C2374 1.398 . S
C2374 H2362 0.950 . S
C2374 C2373 1.398 . S
C2374 C2375 1.391 . S
C2375 H2363 0.950 . S
C2375 C2371 1.393 . S
C2375 C2374 1.391 . S
H2376 C2384 0.950 . S
H2377 C2389 0.950 . S
H2378 C2386 0.950 . S
H2379 C2388 0.950 . S
H2380 C2390 0.950 . S
H2381 C2392 0.950 . S
H2382 C2394 0.950 . S
H2383 C2395 0.950 . S
C2384 H2376 0.950 . S
C2384 C2385 1.386 . S
C2384 C2386 1.391 . S
C2385 C2384 1.386 . S
C2385 C2389 1.393 . S
C2386 H2378 0.950 . S
C2386 C2384 1.391 . S
C2386 C2387 1.400 . S
C2387 C2386 1.400 . S
C2387 C2388 1.398 . S
C2387 C2393 1.491 . S
C2388 H2379 0.950 . S
C2388 C2387 1.398 . S
C2388 C2389 1.391 . S
C2389 H2377 0.950 . S
C2389 C2385 1.393 . S
C2389 C2388 1.391 . S
C2390 H2380 0.950 . S
C2390 C2391 1.386 . S
C2390 C2392 1.391 . S
C2391 C2390 1.386 . S
C2391 C2395 1.393 . S
C2392 H2381 0.950 . S
C2392 C2390 1.391 . S
C2392 C2393 1.400 . S
C2393 C2387 1.491 . S
C2393 C2392 1.400 . S
C2393 C2394 1.398 . S
C2394 H2382 0.950 . S
C2394 C2393 1.398 . S
C2394 C2395 1.391 . S
C2395 H2383 0.950 . S
C2395 C2391 1.393 . S
C2395 C2394 1.391 . S
H2396 C2404 0.950 . S
H2397 C2409 0.950 . S
H2398 C2406 0.950 . S
H2399 C2408 0.950 . S
H2400 C2410 0.950 . S
H2401 C2412 0.950 . S
H2402 C2414 0.950 . S
H2403 C2415 0.950 . S
C2404 H2396 0.950 . S
C2404 C2405 1.386 . S
C2404 C2406 1.391 . S
C2405 C2404 1.386 . S
C2405 C2409 1.393 . S
C2406 H2398 0.950 . S
C2406 C2404 1.391 . S
C2406 C2407 1.400 . S
C2407 C2406 1.400 . S
C2407 C2408 1.398 . S
C2407 C2413 1.491 . S
C2408 H2399 0.950 . S
C2408 C2407 1.398 . S
C2408 C2409 1.391 . S
C2409 H2397 0.950 . S
C2409 C2405 1.393 . S
C2409 C2408 1.391 . S
C2410 H2400 0.950 . S
C2410 C2411 1.386 . S
C2410 C2412 1.391 . S
C2411 C2410 1.386 . S
C2411 C2415 1.393 . S
C2412 H2401 0.950 . S
C2412 C2410 1.391 . S
C2412 C2413 1.400 . S
C2413 C2407 1.491 . S
C2413 C2412 1.400 . S
C2413 C2414 1.398 . S
C2414 H2402 0.950 . S
C2414 C2413 1.398 . S
C2414 C2415 1.391 . S
C2415 H2403 0.950 . S
C2415 C2411 1.393 . S
C2415 C2414 1.391 . S
H2416 C2424 0.950 . S
H2417 C2429 0.950 . S
H2418 C2426 0.950 . S
H2419 C2428 0.950 . S
H2420 C2430 0.950 . S
H2421 C2432 0.950 . S
H2422 C2434 0.950 . S
H2423 C2435 0.950 . S
C2424 H2416 0.950 . S
C2424 C2425 1.386 . S
C2424 C2426 1.391 . S
C2425 C2424 1.386 . S
C2425 C2429 1.393 . S
C2426 H2418 0.950 . S
C2426 C2424 1.391 . S
C2426 C2427 1.400 . S
C2427 C2426 1.400 . S
C2427 C2428 1.398 . S
C2427 C2433 1.491 . S
C2428 H2419 0.950 . S
C2428 C2427 1.398 . S
C2428 C2429 1.391 . S
C2429 H2417 0.950 . S
C2429 C2425 1.393 . S
C2429 C2428 1.391 . S
C2430 H2420 0.950 . S
C2430 C2431 1.386 . S
C2430 C2432 1.391 . S
C2431 C2430 1.386 . S
C2431 C2435 1.393 . S
C2432 H2421 0.950 . S
C2432 C2430 1.391 . S
C2432 C2433 1.400 . S
C2433 C2427 1.491 . S
C2433 C2432 1.400 . S
C2433 C2434 1.398 . S
C2434 H2422 0.950 . S
C2434 C2433 1.398 . S
C2434 C2435 1.391 . S
C2435 H2423 0.950 . S
C2435 C2431 1.393 . S
C2435 C2434 1.391 . S
H2436 C2444 0.950 . S
H2437 C2449 0.950 . S
H2438 C2446 0.950 . S
H2439 C2448 0.950 . S
H2440 C2450 0.950 . S
H2441 C2452 0.950 . S
H2442 C2454 0.950 . S
H2443 C2455 0.950 . S
C2444 H2436 0.950 . S
C2444 C2445 1.386 . S
C2444 C2446 1.391 . S
C2445 C2444 1.386 . S
C2445 C2449 1.393 . S
C2446 H2438 0.950 . S
C2446 C2444 1.391 . S
C2446 C2447 1.400 . S
C2447 C2446 1.400 . S
C2447 C2448 1.398 . S
C2447 C2453 1.491 . S
C2448 H2439 0.950 . S
C2448 C2447 1.398 . S
C2448 C2449 1.391 . S
C2449 H2437 0.950 . S
C2449 C2445 1.393 . S
C2449 C2448 1.391 . S
C2450 H2440 0.950 . S
C2450 C2451 1.386 . S
C2450 C2452 1.391 . S
C2451 C2450 1.386 . S
C2451 C2455 1.393 . S
C2452 H2441 0.950 . S
C2452 C2450 1.391 . S
C2452 C2453 1.400 . S
C2453 C2447 1.491 . S
C2453 C2452 1.400 . S
C2453 C2454 1.398 . S
C2454 H2442 0.950 . S
C2454 C2453 1.398 . S
C2454 C2455 1.391 . S
C2455 H2443 0.950 . S
C2455 C2451 1.393 . S
C2455 C2454 1.391 . S
H2456 C2464 0.950 . S
H2457 C2469 0.950 . S
H2458 C2466 0.950 . S
H2459 C2468 0.950 . S
H2460 C2470 0.950 . S
H2461 C2472 0.950 . S
H2462 C2474 0.950 . S
H2463 C2475 0.950 . S
C2464 H2456 0.950 . S
C2464 C2465 1.386 . S
C2464 C2466 1.391 . S
C2465 C2464 1.386 . S
C2465 C2469 1.393 . S
C2466 H2458 0.950 . S
C2466 C2464 1.391 . S
C2466 C2467 1.400 . S
C2467 C2466 1.400 . S
C2467 C2468 1.398 . S
C2467 C2473 1.491 . S
C2468 H2459 0.950 . S
C2468 C2467 1.398 . S
C2468 C2469 1.391 . S
C2469 H2457 0.950 . S
C2469 C2465 1.393 . S
C2469 C2468 1.391 . S
C2470 H2460 0.950 . S
C2470 C2471 1.386 . S
C2470 C2472 1.391 . S
C2471 C2470 1.386 . S
C2471 C2475 1.393 . S
C2472 H2461 0.950 . S
C2472 C2470 1.391 . S
C2472 C2473 1.400 . S
C2473 C2467 1.491 . S
C2473 C2472 1.400 . S
C2473 C2474 1.398 . S
C2474 H2462 0.950 . S
C2474 C2473 1.398 . S
C2474 C2475 1.391 . S
C2475 H2463 0.950 . S
C2475 C2471 1.393 . S
C2475 C2474 1.391 . S
H2476 C2484 0.950 . S
H2477 C2489 0.950 . S
H2478 C2486 0.950 . S
H2479 C2488 0.950 . S
H2480 C2490 0.950 . S
H2481 C2492 0.950 . S
H2482 C2494 0.950 . S
H2483 C2495 0.950 . S
C2484 H2476 0.950 . S
C2484 C2485 1.386 . S
C2484 C2486 1.391 . S
C2485 C2484 1.386 . S
C2485 C2489 1.393 . S
C2486 H2478 0.950 . S
C2486 C2484 1.391 . S
C2486 C2487 1.400 . S
C2487 C2486 1.400 . S
C2487 C2488 1.398 . S
C2487 C2493 1.491 . S
C2488 H2479 0.950 . S
C2488 C2487 1.398 . S
C2488 C2489 1.391 . S
C2489 H2477 0.950 . S
C2489 C2485 1.393 . S
C2489 C2488 1.391 . S
C2490 H2480 0.950 . S
C2490 C2491 1.386 . S
C2490 C2492 1.391 . S
C2491 C2490 1.386 . S
C2491 C2495 1.393 . S
C2492 H2481 0.950 . S
C2492 C2490 1.391 . S
C2492 C2493 1.400 . S
C2493 C2487 1.491 . S
C2493 C2492 1.400 . S
C2493 C2494 1.398 . S
C2494 H2482 0.950 . S
C2494 C2493 1.398 . S
C2494 C2495 1.391 . S
C2495 H2483 0.950 . S
C2495 C2491 1.393 . S
C2495 C2494 1.391 . S
H2496 C2504 0.950 . S
H2497 C2509 0.950 . S
H2498 C2506 0.950 . S
H2499 C2508 0.950 . S
H2500 C2510 0.950 . S
H2501 C2512 0.950 . S
H2502 C2514 0.950 . S
H2503 C2515 0.950 . S
C2504 H2496 0.950 . S
C2504 C2505 1.386 . S
C2504 C2506 1.391 . S
C2505 C2504 1.386 . S
C2505 C2509 1.393 . S
C2506 H2498 0.950 . S
C2506 C2504 1.391 . S
C2506 C2507 1.400 . S
C2507 C2506 1.400 . S
C2507 C2508 1.398 . S
C2507 C2513 1.491 . S
C2508 H2499 0.950 . S
C2508 C2507 1.398 . S
C2508 C2509 1.391 . S
C2509 H2497 0.950 . S
C2509 C2505 1.393 . S
C2509 C2508 1.391 . S
C2510 H2500 0.950 . S
C2510 C2511 1.386 . S
C2510 C2512 1.391 . S
C2511 C2510 1.386 . S
C2511 C2515 1.393 . S
C2512 H2501 0.950 . S
C2512 C2510 1.391 . S
C2512 C2513 1.400 . S
C2513 C2507 1.491 . S
C2513 C2512 1.400 . S
C2513 C2514 1.398 . S
C2514 H2502 0.950 . S
C2514 C2513 1.398 . S
C2514 C2515 1.391 . S
C2515 H2503 0.950 . S
C2515 C2511 1.393 . S
C2515 C2514 1.391 . S
H2516 C2524 0.950 . S
H2517 C2529 0.950 . S
H2518 C2526 0.950 . S
H2519 C2528 0.950 . S
H2520 C2530 0.950 . S
H2521 C2532 0.950 . S
H2522 C2534 0.950 . S
H2523 C2535 0.950 . S
C2524 H2516 0.950 . S
C2524 C2525 1.386 . S
C2524 C2526 1.391 . S
C2525 C2524 1.386 . S
C2525 C2529 1.393 . S
C2526 H2518 0.950 . S
C2526 C2524 1.391 . S
C2526 C2527 1.400 . S
C2527 C2526 1.400 . S
C2527 C2528 1.398 . S
C2527 C2533 1.491 . S
C2528 H2519 0.950 . S
C2528 C2527 1.398 . S
C2528 C2529 1.391 . S
C2529 H2517 0.950 . S
C2529 C2525 1.393 . S
C2529 C2528 1.391 . S
C2530 H2520 0.950 . S
C2530 C2531 1.386 . S
C2530 C2532 1.391 . S
C2531 C2530 1.386 . S
C2531 C2535 1.393 . S
C2532 H2521 0.950 . S
C2532 C2530 1.391 . S
C2532 C2533 1.400 . S
C2533 C2527 1.491 . S
C2533 C2532 1.400 . S
C2533 C2534 1.398 . S
C2534 H2522 0.950 . S
C2534 C2533 1.398 . S
C2534 C2535 1.391 . S
C2535 H2523 0.950 . S
C2535 C2531 1.393 . S
C2535 C2534 1.391 . S
H2536 C2544 0.950 . S
H2537 C2549 0.950 . S
H2538 C2546 0.950 . S
H2539 C2548 0.950 . S
H2540 C2550 0.950 . S
H2541 C2552 0.950 . S
H2542 C2554 0.950 . S
H2543 C2555 0.950 . S
C2544 H2536 0.950 . S
C2544 C2545 1.386 . S
C2544 C2546 1.391 . S
C2545 C2544 1.386 . S
C2545 C2549 1.393 . S
C2546 H2538 0.950 . S
C2546 C2544 1.391 . S
C2546 C2547 1.400 . S
C2547 C2546 1.400 . S
C2547 C2548 1.398 . S
C2547 C2553 1.491 . S
C2548 H2539 0.950 . S
C2548 C2547 1.398 . S
C2548 C2549 1.391 . S
C2549 H2537 0.950 . S
C2549 C2545 1.393 . S
C2549 C2548 1.391 . S
C2550 H2540 0.950 . S
C2550 C2551 1.386 . S
C2550 C2552 1.391 . S
C2551 C2550 1.386 . S
C2551 C2555 1.393 . S
C2552 H2541 0.950 . S
C2552 C2550 1.391 . S
C2552 C2553 1.400 . S
C2553 C2547 1.491 . S
C2553 C2552 1.400 . S
C2553 C2554 1.398 . S
C2554 H2542 0.950 . S
C2554 C2553 1.398 . S
C2554 C2555 1.391 . S
C2555 H2543 0.950 . S
C2555 C2551 1.393 . S
C2555 C2554 1.391 . S
H2556 C2564 0.950 . S
H2557 C2569 0.950 . S
H2558 C2566 0.950 . S
H2559 C2568 0.950 . S
H2560 C2570 0.950 . S
H2561 C2572 0.950 . S
H2562 C2574 0.950 . S
H2563 C2575 0.950 . S
C2564 H2556 0.950 . S
C2564 C2565 1.386 . S
C2564 C2566 1.391 . S
C2565 C2564 1.386 . S
C2565 C2569 1.393 . S
C2566 H2558 0.950 . S
C2566 C2564 1.391 . S
C2566 C2567 1.400 . S
C2567 C2566 1.400 . S
C2567 C2568 1.398 . S
C2567 C2573 1.491 . S
C2568 H2559 0.950 . S
C2568 C2567 1.398 . S
C2568 C2569 1.391 . S
C2569 H2557 0.950 . S
C2569 C2565 1.393 . S
C2569 C2568 1.391 . S
C2570 H2560 0.950 . S
C2570 C2571 1.386 . S
C2570 C2572 1.391 . S
C2571 C2570 1.386 . S
C2571 C2575 1.393 . S
C2572 H2561 0.950 . S
C2572 C2570 1.391 . S
C2572 C2573 1.400 . S
C2573 C2567 1.491 . S
C2573 C2572 1.400 . S
C2573 C2574 1.398 . S
C2574 H2562 0.950 . S
C2574 C2573 1.398 . S
C2574 C2575 1.391 . S
C2575 H2563 0.950 . S
C2575 C2571 1.393 . S
C2575 C2574 1.391 . S
H2576 C2584 0.950 . S
H2577 C2589 0.950 . S
H2578 C2586 0.950 . S
H2579 C2588 0.950 . S
H2580 C2590 0.950 . S
H2581 C2592 0.950 . S
H2582 C2594 0.950 . S
H2583 C2595 0.950 . S
C2584 H2576 0.950 . S
C2584 C2585 1.386 . S
C2584 C2586 1.391 . S
C2585 C2584 1.386 . S
C2585 C2589 1.393 . S
C2586 H2578 0.950 . S
C2586 C2584 1.391 . S
C2586 C2587 1.400 . S
C2587 C2586 1.400 . S
C2587 C2588 1.398 . S
C2587 C2593 1.491 . S
C2588 H2579 0.950 . S
C2588 C2587 1.398 . S
C2588 C2589 1.391 . S
C2589 H2577 0.950 . S
C2589 C2585 1.393 . S
C2589 C2588 1.391 . S
C2590 H2580 0.950 . S
C2590 C2591 1.386 . S
C2590 C2592 1.391 . S
C2591 C2590 1.386 . S
C2591 C2595 1.393 . S
C2592 H2581 0.950 . S
C2592 C2590 1.391 . S
C2592 C2593 1.400 . S
C2593 C2587 1.491 . S
C2593 C2592 1.400 . S
C2593 C2594 1.398 . S
C2594 H2582 0.950 . S
C2594 C2593 1.398 . S
C2594 C2595 1.391 . S
C2595 H2583 0.950 . S
C2595 C2591 1.393 . S
C2595 C2594 1.391 . S
H2596 C2604 0.950 . S
H2597 C2609 0.950 . S
H2598 C2606 0.950 . S
H2599 C2608 0.950 . S
H2600 C2610 0.950 . S
H2601 C2612 0.950 . S
H2602 C2614 0.950 . S
H2603 C2615 0.950 . S
C2604 H2596 0.950 . S
C2604 C2605 1.386 . S
C2604 C2606 1.391 . S
C2605 C2604 1.386 . S
C2605 C2609 1.393 . S
C2606 H2598 0.950 . S
C2606 C2604 1.391 . S
C2606 C2607 1.400 . S
C2607 C2606 1.400 . S
C2607 C2608 1.398 . S
C2607 C2613 1.491 . S
C2608 H2599 0.950 . S
C2608 C2607 1.398 . S
C2608 C2609 1.391 . S
C2609 H2597 0.950 . S
C2609 C2605 1.393 . S
C2609 C2608 1.391 . S
C2610 H2600 0.950 . S
C2610 C2611 1.386 . S
C2610 C2612 1.391 . S
C2611 C2610 1.386 . S
C2611 C2615 1.393 . S
C2612 H2601 0.950 . S
C2612 C2610 1.391 . S
C2612 C2613 1.400 . S
C2613 C2607 1.491 . S
C2613 C2612 1.400 . S
C2613 C2614 1.398 . S
C2614 H2602 0.950 . S
C2614 C2613 1.398 . S
C2614 C2615 1.391 . S
C2615 H2603 0.950 . S
C2615 C2611 1.393 . S
C2615 C2614 1.391 . S
H2616 C2624 0.950 . S
H2617 C2629 0.950 . S
H2618 C2626 0.950 . S
H2619 C2628 0.950 . S
H2620 C2630 0.950 . S
H2621 C2632 0.950 . S
H2622 C2634 0.950 . S
H2623 C2635 0.950 . S
C2624 H2616 0.950 . S
C2624 C2625 1.386 . S
C2624 C2626 1.391 . S
C2625 C2624 1.386 . S
C2625 C2629 1.393 . S
C2626 H2618 0.950 . S
C2626 C2624 1.391 . S
C2626 C2627 1.400 . S
C2627 C2626 1.400 . S
C2627 C2628 1.398 . S
C2627 C2633 1.491 . S
C2628 H2619 0.950 . S
C2628 C2627 1.398 . S
C2628 C2629 1.391 . S
C2629 H2617 0.950 . S
C2629 C2625 1.393 . S
C2629 C2628 1.391 . S
C2630 H2620 0.950 . S
C2630 C2631 1.386 . S
C2630 C2632 1.391 . S
C2631 C2630 1.386 . S
C2631 C2635 1.393 . S
C2632 H2621 0.950 . S
C2632 C2630 1.391 . S
C2632 C2633 1.400 . S
C2633 C2627 1.491 . S
C2633 C2632 1.400 . S
C2633 C2634 1.398 . S
C2634 H2622 0.950 . S
C2634 C2633 1.398 . S
C2634 C2635 1.391 . S
C2635 H2623 0.950 . S
C2635 C2631 1.393 . S
C2635 C2634 1.391 . S
H2636 C2644 0.950 . S
H2637 C2649 0.950 . S
H2638 C2646 0.950 . S
H2639 C2648 0.950 . S
H2640 C2650 0.950 . S
H2641 C2652 0.950 . S
H2642 C2654 0.950 . S
H2643 C2655 0.950 . S
C2644 H2636 0.950 . S
C2644 C2645 1.386 . S
C2644 C2646 1.391 . S
C2645 C2644 1.386 . S
C2645 C2649 1.393 . S
C2646 H2638 0.950 . S
C2646 C2644 1.391 . S
C2646 C2647 1.400 . S
C2647 C2646 1.400 . S
C2647 C2648 1.398 . S
C2647 C2653 1.491 . S
C2648 H2639 0.950 . S
C2648 C2647 1.398 . S
C2648 C2649 1.391 . S
C2649 H2637 0.950 . S
C2649 C2645 1.393 . S
C2649 C2648 1.391 . S
C2650 H2640 0.950 . S
C2650 C2651 1.386 . S
C2650 C2652 1.391 . S
C2651 C2650 1.386 . S
C2651 C2655 1.393 . S
C2652 H2641 0.950 . S
C2652 C2650 1.391 . S
C2652 C2653 1.400 . S
C2653 C2647 1.491 . S
C2653 C2652 1.400 . S
C2653 C2654 1.398 . S
C2654 H2642 0.950 . S
C2654 C2653 1.398 . S
C2654 C2655 1.391 . S
C2655 H2643 0.950 . S
C2655 C2651 1.393 . S
C2655 C2654 1.391 . S
C1065 C18 1.535 . S
C1071 C810 1.535 . S
C1085 C315 1.537 . S
C1091 C51 1.537 . S
C1105 C876 1.536 . S
C1111 C84 1.536 . S
C1125 C381 1.531 . S
C1131 C117 1.531 . S
C1145 C942 1.536 . S
C1151 C150 1.536 . S
C1165 C447 1.531 . S
C1171 C183 1.531 . S
C1185 C1008 1.531 . S
C1191 C216 1.531 . S
C1205 C513 1.531 . S
C1211 C249 1.531 . S
C1225 C282 1.531 . S
C1231 C546 1.531 . S
C1245 C348 1.531 . S
C1251 C612 1.531 . S
C1265 C414 1.539 . S
C1271 C678 1.539 . S
C1285 C744 1.531 . S
C1291 C480 1.531 . S
C1305 C579 1.532 . S
C1311 C843 1.532 . S
C1325 C909 1.538 . S
C1331 C645 1.538 . S
C1345 C711 1.531 . S
C1351 C975 1.531 . S
C1365 C1041 1.531 . S
C1371 C777 1.531 . S
C1385 N13 1.349 . S
C1391 C384 1.371 . S
C1405 N46 1.335 . S
C1411 C813 1.372 . S
C1425 C318 1.379 . S
C1431 N79 1.358 . S
C1445 N112 1.342 . S
C1451 C879 1.369 . S
C1465 C450 1.369 . S
C1471 N145 1.341 . S
C1485 C1011 1.372 . S
C1491 N178 1.336 . S
C1505 N211 1.337 . S
C1511 C516 1.370 . S
C1525 C945 1.373 . S
C1531 N244 1.355 . S
C1545 N277 1.338 . S
C1551 C120 1.374 . S
C1565 N310 1.359 . S
C1571 C549 1.378 . S
C1585 C54 1.374 . S
C1591 N343 1.356 . S
C1605 N376 1.338 . S
C1611 C615 1.369 . S
C1625 N409 1.337 . S
C1631 C186 1.373 . S
C1645 C747 1.376 . S
C1651 N442 1.342 . S
C1665 C252 1.376 . S
C1671 N475 1.341 . S
C1685 N508 1.347 . S
C1691 C681 1.378 . S
C1705 C912 1.377 . S
C1711 N541 1.359 . S
C1725 C285 1.369 . S
C1731 N574 1.339 . S
C1745 C846 1.379 . S
C1751 N607 1.359 . S
C1765 N640 1.356 . S
C1771 C351 1.379 . S
C1785 C978 1.370 . S
C1791 N673 1.345 . S
C1805 C483 1.379 . S
C1811 N706 1.356 . S
C1825 N739 1.339 . S
C1831 C1044 1.375 . S
C1845 C417 1.379 . S
C1851 N772 1.352 . S
C1865 C648 1.373 . S
C1871 N805 1.354 . S
C1885 N838 1.336 . S
C1891 C21 1.373 . S
C1905 N871 1.351 . S
C1911 C582 1.372 . S
C1925 C87 1.375 . S
C1931 N904 1.357 . S
C1945 C714 1.375 . S
C1951 N937 1.357 . S
C1965 N970 1.350 . S
C1971 C219 1.371 . S
C1985 C780 1.374 . S
C1991 N1003 1.355 . S
C2005 C153 1.377 . S
C2011 N1036 1.343 . S
C2025 C7 1.062 . S
C2031 C205 1.047 . S
C2045 C238 1.059 . S
C2051 C40 1.057 . S
C2065 C73 1.062 . S
C2071 C139 1.049 . S
C2085 C106 1.047 . S
C2091 C172 1.046 . S
C2105 C469 1.061 . S
C2111 C271 1.043 . S
C2125 C502 1.043 . S
C2131 C304 1.061 . S
C2145 C403 1.062 . S
C2151 C337 1.047 . S
C2165 C436 1.043 . S
C2171 C370 1.061 . S
C2185 C535 1.048 . S
C2191 C733 1.062 . S
C2205 C568 1.044 . S
C2211 C766 1.049 . S
C2225 C601 1.054 . S
C2231 C667 1.041 . S
C2245 C634 1.059 . S
C2251 C700 1.057 . S
C2265 C997 1.060 . S
C2271 C799 1.042 . S
C2285 C1030 1.050 . S
C2291 C832 1.043 . S
C2305 C865 1.043 . S
C2311 C931 1.050 . S
C2325 C898 1.059 . S
C2331 C964 1.042 . S
C2345 N2 1.699 . S
C2351 N695 1.689 . S
C2365 N35 1.696 . S
C2371 N728 1.707 . S
C2385 N68 1.703 . S
C2391 N761 1.691 . S
C2405 N101 1.701 . S
C2411 N662 1.689 . S
C2425 N629 1.707 . S
C2431 N134 1.698 . S
C2445 N167 1.700 . S
C2451 N530 1.689 . S
C2465 N563 1.692 . S
C2471 N200 1.690 . S
C2485 N233 1.692 . S
C2491 N596 1.705 . S
C2505 N959 1.693 . S
C2511 N266 1.690 . S
C2525 N299 1.689 . S
C2531 N992 1.696 . S
C2545 N1025 1.696 . S
C2551 N332 1.689 . S
C2565 N365 1.692 . S
C2571 N926 1.691 . S
C2585 N398 1.707 . S
C2591 N893 1.703 . S
C2605 N794 1.699 . S
C2611 N431 1.689 . S
C2625 N464 1.708 . S
C2631 N827 1.700 . S
C2645 N497 1.692 . S
C2651 N860 1.705 . S
