# Generated by pormake.
# Topology zfp, (5)-cn, num edge types: 1
# Building blocks:
#     Node 0, Type 0, BuildingBlock: BEQFEK_clean_sbu_0, # of connection points: 5
#     Node 1, Type 0, BuildingBlock: BEQFEK_clean_sbu_0, # of connection points: 5
#     Node 2, Type 0, BuildingBlock: BEQFEK_clean_sbu_0, # of connection points: 5
#     Node 3, Type 0, BuildingBlock: BEQFEK_clean_sbu_0, # of connection points: 5
#     Node 4, Type 0, BuildingBlock: BEQFEK_clean_sbu_0, # of connection points: 5
#     Node 5, Type 0, BuildingBlock: BEQFEK_clean_sbu_0, # of connection points: 5
#     Node 6, Type 0, BuildingBlock: BEQFEK_clean_sbu_0, # of connection points: 5
#     Node 7, Type 0, BuildingBlock: BEQFEK_clean_sbu_0, # of connection points: 5
#     Node 8, Type 0, BuildingBlock: BEQFEK_clean_sbu_0, # of connection points: 5
#     Node 9, Type 0, BuildingBlock: BEQFEK_clean_sbu_0, # of connection points: 5
#     Node 10, Type 0, BuildingBlock: BEQFEK_clean_sbu_0, # of connection points: 5
#     Node 11, Type 0, BuildingBlock: BEQFEK_clean_sbu_0, # of connection points: 5
#     Node 12, Type 0, BuildingBlock: BEQFEK_clean_sbu_0, # of connection points: 5
#     Node 13, Type 0, BuildingBlock: BEQFEK_clean_sbu_0, # of connection points: 5
#     Node 14, Type 0, BuildingBlock: BEQFEK_clean_sbu_0, # of connection points: 5
#     Node 15, Type 0, BuildingBlock: BEQFEK_clean_sbu_0, # of connection points: 5
#     Edge 16, Type (0, 0), BuildingBlock: MIFKUJ_clean_linker_0, # of connection points: 2
#     Edge 17, Type (0, 0), BuildingBlock: MIFKUJ_clean_linker_0, # of connection points: 2
#     Edge 18, Type (0, 0), BuildingBlock: MIFKUJ_clean_linker_0, # of connection points: 2
#     Edge 19, Type (0, 0), BuildingBlock: MIFKUJ_clean_linker_0, # of connection points: 2
#     Edge 20, Type (0, 0), BuildingBlock: MIFKUJ_clean_linker_0, # of connection points: 2
#     Edge 21, Type (0, 0), BuildingBlock: MIFKUJ_clean_linker_0, # of connection points: 2
#     Edge 22, Type (0, 0), BuildingBlock: MIFKUJ_clean_linker_0, # of connection points: 2
#     Edge 23, Type (0, 0), BuildingBlock: MIFKUJ_clean_linker_0, # of connection points: 2
#     Edge 24, Type (0, 0), BuildingBlock: MIFKUJ_clean_linker_0, # of connection points: 2
#     Edge 25, Type (0, 0), BuildingBlock: MIFKUJ_clean_linker_0, # of connection points: 2
#     Edge 26, Type (0, 0), BuildingBlock: MIFKUJ_clean_linker_0, # of connection points: 2
#     Edge 27, Type (0, 0), BuildingBlock: MIFKUJ_clean_linker_0, # of connection points: 2
#     Edge 28, Type (0, 0), BuildingBlock: MIFKUJ_clean_linker_0, # of connection points: 2
#     Edge 29, Type (0, 0), BuildingBlock: MIFKUJ_clean_linker_0, # of connection points: 2
#     Edge 30, Type (0, 0), BuildingBlock: MIFKUJ_clean_linker_0, # of connection points: 2
#     Edge 31, Type (0, 0), BuildingBlock: MIFKUJ_clean_linker_0, # of connection points: 2
#     Edge 32, Type (0, 0), BuildingBlock: MIFKUJ_clean_linker_0, # of connection points: 2
#     Edge 33, Type (0, 0), BuildingBlock: MIFKUJ_clean_linker_0, # of connection points: 2
#     Edge 34, Type (0, 0), BuildingBlock: MIFKUJ_clean_linker_0, # of connection points: 2
#     Edge 35, Type (0, 0), BuildingBlock: MIFKUJ_clean_linker_0, # of connection points: 2
#     Edge 36, Type (0, 0), BuildingBlock: MIFKUJ_clean_linker_0, # of connection points: 2
#     Edge 37, Type (0, 0), BuildingBlock: MIFKUJ_clean_linker_0, # of connection points: 2
#     Edge 38, Type (0, 0), BuildingBlock: MIFKUJ_clean_linker_0, # of connection points: 2
#     Edge 39, Type (0, 0), BuildingBlock: MIFKUJ_clean_linker_0, # of connection points: 2
#     Edge 40, Type (0, 0), BuildingBlock: MIFKUJ_clean_linker_0, # of connection points: 2
#     Edge 41, Type (0, 0), BuildingBlock: MIFKUJ_clean_linker_0, # of connection points: 2
#     Edge 42, Type (0, 0), BuildingBlock: MIFKUJ_clean_linker_0, # of connection points: 2
#     Edge 43, Type (0, 0), BuildingBlock: MIFKUJ_clean_linker_0, # of connection points: 2
#     Edge 44, Type (0, 0), BuildingBlock: MIFKUJ_clean_linker_0, # of connection points: 2
#     Edge 45, Type (0, 0), BuildingBlock: MIFKUJ_clean_linker_0, # of connection points: 2
#     Edge 46, Type (0, 0), BuildingBlock: MIFKUJ_clean_linker_0, # of connection points: 2
#     Edge 47, Type (0, 0), BuildingBlock: MIFKUJ_clean_linker_0, # of connection points: 2
#     Edge 48, Type (0, 0), BuildingBlock: MIFKUJ_clean_linker_0, # of connection points: 2
#     Edge 49, Type (0, 0), BuildingBlock: MIFKUJ_clean_linker_0, # of connection points: 2
#     Edge 50, Type (0, 0), BuildingBlock: MIFKUJ_clean_linker_0, # of connection points: 2
#     Edge 51, Type (0, 0), BuildingBlock: MIFKUJ_clean_linker_0, # of connection points: 2
#     Edge 52, Type (0, 0), BuildingBlock: MIFKUJ_clean_linker_0, # of connection points: 2
#     Edge 53, Type (0, 0), BuildingBlock: MIFKUJ_clean_linker_0, # of connection points: 2
#     Edge 54, Type (0, 0), BuildingBlock: MIFKUJ_clean_linker_0, # of connection points: 2
#     Edge 55, Type (0, 0), BuildingBlock: MIFKUJ_clean_linker_0, # of connection points: 2
# Relax obj value: 0.116
# Max RMSD: 0.153
# Mean RMSD: 0.153
data_MOF--net-zfp--node1-BEQFEK_clean_sbu_0--edge1-MIFKUJ_clean_linker_0
_symmetry_space_group_name_H-M    P1
_symmetry_Int_Tables_number       1
_symmetry_cell_setting            triclinic
loop_
_symmetry_equiv_pos_as_xyz
'x, y, z'
_cell_length_a     39.214687
_cell_length_b     39.219229
_cell_length_c     95.456299
_cell_angle_alpha  89.995427
_cell_angle_beta   90.003178
_cell_angle_gamma 89.988969
loop_
_atom_site_label
_atom_site_type_symbol
_atom_site_fract_x
_atom_site_fract_y
_atom_site_fract_z
_atom_type_partial_charge
Co0 Co 0.15352 0.29871 0.14849 0.0
Co1 Co 0.15073 0.29403 0.11573 0.0
C2 C 0.10525 0.25117 0.13282 0.0
O3 O 0.11749 0.26453 0.14393 0.0
O4 O 0.11714 0.25856 0.12077 0.0
C5 C 0.13926 0.29816 0.17786 0.0
O6 O 0.10739 0.299 0.17362 0.0
C7 C 0.14665 0.27667 0.08555 0.0
C8 C 0.17011 0.32281 0.07635 0.0
C9 C 0.15461 0.29225 0.0729 0.0
N10 N 0.15708 0.29723 0.09599 0.0
N11 N 0.17127 0.32459 0.0904 0.0
C12 C 0.12643 0.24481 0.08781 0.0
H13 H 0.14014 0.22798 0.09527 0.0
H14 H 0.12156 0.23099 0.07789 0.0
H15 H 0.10161 0.25162 0.09264 0.0
C16 C 0.22725 0.2913 0.14272 0.0
N17 N 0.19453 0.2919 0.13846 0.0
N18 N 0.19336 0.28766 0.12482 0.0
C19 C 0.22531 0.28273 0.12 0.0
C20 C 0.2481 0.28515 0.13118 0.0
C21 C 0.23817 0.30038 0.15729 0.0
H22 H 0.221 0.32018 0.16165 0.0
H23 H 0.23647 0.2774 0.16404 0.0
H24 H 0.26467 0.31024 0.15751 0.0
O25 O 0.13366 0.34339 0.14415 0.0
O26 O 0.12916 0.3382 0.12109 0.0
H27 H 0.23595 0.29868 0.09905 0.0
H28 H 0.25783 0.26022 0.10425 0.0
C29 C 0.23353 0.27459 0.10506 0.0
H30 H 0.21274 0.25922 0.10036 0.0
H31 H 0.18098 0.34492 0.09622 0.0
O32 O 0.16298 0.29723 0.16882 0.0
C33 C 0.1239 0.35485 0.13235 0.0
Co34 Co 0.69831 0.14818 0.64682 0.0
Co35 Co 0.69905 0.14607 0.61389 0.0
C36 C 0.74597 0.10228 0.63076 0.0
O37 O 0.73473 0.11467 0.64224 0.0
O38 O 0.7352 0.11296 0.61893 0.0
C39 C 0.71958 0.15223 0.6763 0.0
O40 O 0.74836 0.13768 0.67256 0.0
C41 C 0.71888 0.14702 0.58387 0.0
C42 C 0.67177 0.16796 0.5745 0.0
C43 C 0.70422 0.15658 0.5712 0.0
N44 N 0.69601 0.15259 0.59413 0.0
N45 N 0.66789 0.1649 0.58842 0.0
C46 C 0.75458 0.13511 0.58638 0.0
H47 H 0.76351 0.14376 0.59683 0.0
H48 H 0.77206 0.14479 0.57815 0.0
H49 H 0.75505 0.10682 0.58622 0.0
C50 C 0.70382 0.22216 0.64118 0.0
N51 N 0.70269 0.18955 0.63678 0.0
N52 N 0.7047 0.1888 0.62304 0.0
C53 C 0.70824 0.221 0.61826 0.0
C54 C 0.70759 0.24333 0.62959 0.0
C55 C 0.69803 0.2327 0.65608 0.0
H56 H 0.67679 0.21763 0.66059 0.0
H57 H 0.72137 0.22732 0.66228 0.0
H58 H 0.69159 0.26014 0.65697 0.0
O59 O 0.65518 0.12513 0.64245 0.0
O60 O 0.65544 0.12374 0.61923 0.0
H61 H 0.68857 0.23004 0.59772 0.0
H62 H 0.72536 0.25559 0.60207 0.0
C63 C 0.71354 0.23003 0.60318 0.0
H64 H 0.73027 0.21087 0.59813 0.0
H65 H 0.64613 0.17156 0.59409 0.0
O66 O 0.69681 0.15798 0.66714 0.0
C67 C 0.64159 0.11637 0.63091 0.0
Co68 Co 0.85492 0.68431 0.1529 0.0
Co69 Co 0.85301 0.68727 0.12004 0.0
C70 C 0.90139 0.73048 0.13567 0.0
O71 O 0.89048 0.71794 0.14717 0.0
O72 O 0.88813 0.72219 0.12396 0.0
C73 C 0.83904 0.71297 0.17989 0.0
O74 O 0.8313 0.74045 0.17268 0.0
C75 C 0.85645 0.69823 0.08912 0.0
C76 C 0.81786 0.66068 0.08227 0.0
C77 C 0.84055 0.68485 0.07727 0.0
N78 N 0.84303 0.68305 0.10052 0.0
N79 N 0.82031 0.66041 0.09629 0.0
C80 C 0.88633 0.72194 0.08962 0.0
H81 H 0.90356 0.71476 0.09833 0.0
H82 H 0.87709 0.74829 0.09149 0.0
H83 H 0.901 0.72127 0.07968 0.0
C84 C 0.78002 0.69278 0.14871 0.0
N85 N 0.81233 0.69138 0.14386 0.0
N86 N 0.81202 0.69611 0.13021 0.0
C87 C 0.77973 0.70288 0.12613 0.0
C88 C 0.7585 0.70055 0.13767 0.0
C89 C 0.76953 0.68507 0.16344 0.0
H90 H 0.7876 0.66686 0.16832 0.0
H91 H 0.7693 0.70906 0.16959 0.0
H92 H 0.74341 0.67422 0.16376 0.0
O93 O 0.87313 0.63912 0.14839 0.0
O94 O 0.87321 0.64222 0.1252 0.0
H95 H 0.76034 0.68718 0.10624 0.0
H96 H 0.74692 0.72882 0.11153 0.0
C97 C 0.76886 0.71093 0.11148 0.0
H98 H 0.79016 0.72245 0.1055 0.0
H99 H 0.80672 0.64445 0.10302 0.0
O100 O 0.84971 0.68663 0.17351 0.0
C101 C 0.87988 0.62622 0.13649 0.0
Co102 Co 0.29924 0.85554 0.64765 0.0
Co103 Co 0.29809 0.85758 0.61473 0.0
C104 C 0.25122 0.90135 0.63141 0.0
O105 O 0.26291 0.88947 0.64291 0.0
O106 O 0.26203 0.89062 0.61961 0.0
C107 C 0.29426 0.86695 0.67768 0.0
O108 O 0.28886 0.89905 0.67442 0.0
C109 C 0.27941 0.85855 0.58458 0.0
C110 C 0.32474 0.83346 0.57545 0.0
C111 C 0.2936 0.84781 0.57199 0.0
N112 N 0.3013 0.85086 0.59497 0.0
N113 N 0.32838 0.83607 0.58941 0.0
C114 C 0.24486 0.87369 0.58686 0.0
H115 H 0.23404 0.86444 0.5969 0.0
H116 H 0.22731 0.86712 0.57814 0.0
H117 H 0.24727 0.90184 0.58747 0.0
C118 C 0.29267 0.78157 0.64193 0.0
N119 N 0.29422 0.81421 0.63758 0.0
N120 N 0.29152 0.81509 0.62386 0.0
C121 C 0.28679 0.78308 0.61907 0.0
C122 C 0.28768 0.76059 0.63035 0.0
C123 C 0.29919 0.77081 0.65675 0.0
H124 H 0.3203 0.78618 0.6612 0.0
H125 H 0.27596 0.77554 0.6631 0.0
H126 H 0.30619 0.74348 0.65746 0.0
O127 O 0.34354 0.87709 0.6435 0.0
O128 O 0.34209 0.8789 0.62028 0.0
H129 H 0.30413 0.77224 0.59833 0.0
H130 H 0.26565 0.74999 0.60318 0.0
C131 C 0.27966 0.77448 0.60408 0.0
H132 H 0.26423 0.79492 0.59917 0.0
H133 H 0.34924 0.82742 0.5952 0.0
O134 O 0.29842 0.84522 0.66797 0.0
C135 C 0.35693 0.88542 0.63185 0.0
Co136 Co 0.64817 0.20987 0.8499 0.0
Co137 Co 0.64602 0.19787 0.88246 0.0
C138 C 0.60084 0.24952 0.86794 0.0
O139 O 0.61404 0.24406 0.85593 0.0
O140 O 0.61124 0.23371 0.87881 0.0
C141 C 0.6371 0.22075 0.82026 0.0
O142 O 0.60522 0.22644 0.82379 0.0
C143 C 0.64768 0.21406 0.9126 0.0
C144 C 0.66242 0.16428 0.9216 0.0
C145 C 0.65464 0.19763 0.92517 0.0
N146 N 0.6512 0.19138 0.90213 0.0
N147 N 0.65979 0.16166 0.9076 0.0
C148 C 0.64035 0.25108 0.91038 0.0
H149 H 0.64952 0.25925 0.89991 0.0
H150 H 0.65263 0.2668 0.91863 0.0
H151 H 0.61238 0.25521 0.91086 0.0
C152 C 0.72181 0.21594 0.85614 0.0
N153 N 0.6892 0.21243 0.86034 0.0
N154 N 0.68849 0.20771 0.87397 0.0
C155 C 0.7207 0.20804 0.8789 0.0
C156 C 0.74287 0.21313 0.86777 0.0
C157 C 0.73247 0.21845 0.84112 0.0
H158 H 0.72283 0.19587 0.83535 0.0
H159 H 0.7208 0.24148 0.83636 0.0
H160 H 0.76057 0.21968 0.83995 0.0
O161 O 0.62589 0.16499 0.85203 0.0
O162 O 0.62738 0.15481 0.87493 0.0
H163 H 0.72495 0.17642 0.89704 0.0
H164 H 0.7574 0.20903 0.89588 0.0
C165 C 0.73011 0.2032 0.89397 0.0
H166 H 0.71427 0.22013 0.9006 0.0
H167 H 0.66425 0.1396 0.90172 0.0
O168 O 0.65891 0.21454 0.82975 0.0
C169 C 0.61964 0.14596 0.86251 0.0
Co170 Co 0.79457 0.64454 0.35342 0.0
Co171 Co 0.79819 0.64717 0.38627 0.0
C172 C 0.74993 0.6004 0.37146 0.0
O173 O 0.75909 0.6114 0.35945 0.0
O174 O 0.76256 0.61252 0.38271 0.0
C175 C 0.76722 0.65551 0.32528 0.0
O176 O 0.73719 0.65888 0.33123 0.0
C177 C 0.78414 0.64651 0.41682 0.0
C178 C 0.83131 0.67082 0.42467 0.0
C179 C 0.80111 0.65591 0.42902 0.0
N180 N 0.80353 0.65574 0.40581 0.0
N181 N 0.83158 0.67028 0.41061 0.0
C182 C 0.75242 0.62557 0.41551 0.0
H183 H 0.7588 0.60123 0.41023 0.0
H184 H 0.73376 0.63923 0.40881 0.0
H185 H 0.74082 0.61964 0.4258 0.0
C186 C 0.78765 0.71963 0.35759 0.0
N187 N 0.79022 0.6875 0.36253 0.0
N188 N 0.79007 0.68837 0.37631 0.0
C189 C 0.78637 0.72097 0.38057 0.0
C190 C 0.78495 0.74185 0.36885 0.0
C191 C 0.78764 0.7288 0.34237 0.0
H192 H 0.80816 0.71468 0.33687 0.0
H193 H 0.76283 0.72134 0.33773 0.0
H194 H 0.79109 0.75656 0.3407 0.0
O195 O 0.83914 0.62321 0.35746 0.0
O196 O 0.84179 0.626 0.3806 0.0
H197 H 0.81312 0.73132 0.39955 0.0
H198 H 0.77692 0.75848 0.39681 0.0
C199 C 0.78658 0.73211 0.39557 0.0
H200 H 0.77077 0.71454 0.40194 0.0
H201 H 0.85136 0.67907 0.40424 0.0
O202 O 0.79329 0.6497 0.33281 0.0
C203 C 0.85458 0.61721 0.36891 0.0
Co204 Co 0.36081 0.80015 0.85106 0.0
Co205 Co 0.36574 0.80859 0.88377 0.0
C206 C 0.41015 0.75904 0.86749 0.0
O207 O 0.39599 0.76576 0.85578 0.0
O208 O 0.40051 0.77351 0.8788 0.0
C209 C 0.35663 0.77808 0.82161 0.0
O210 O 0.37409 0.75083 0.82518 0.0
C211 C 0.36686 0.7898 0.91384 0.0
C212 C 0.36094 0.84072 0.92349 0.0
C213 C 0.3659 0.80662 0.92666 0.0
N214 N 0.36277 0.81312 0.90362 0.0
N215 N 0.35901 0.84339 0.90949 0.0
C216 C 0.37529 0.75318 0.91118 0.0
H217 H 0.36735 0.74572 0.90045 0.0
H218 H 0.36273 0.73633 0.91892 0.0
H219 H 0.40326 0.74961 0.91217 0.0
C220 C 0.2879 0.7913 0.85836 0.0
N221 N 0.32077 0.79537 0.86208 0.0
N222 N 0.32258 0.79932 0.87574 0.0
C223 C 0.29085 0.79837 0.88116 0.0
C224 C 0.26771 0.79333 0.8703 0.0
C225 C 0.27629 0.78541 0.84362 0.0
H226 H 0.29332 0.76662 0.83848 0.0
H227 H 0.2497 0.77579 0.84324 0.0
H228 H 0.27794 0.8097 0.83769 0.0
O229 O 0.38241 0.84515 0.85393 0.0
O230 O 0.38296 0.85282 0.87696 0.0
H231 H 0.29511 0.83031 0.8992 0.0
H232 H 0.25517 0.80792 0.89815 0.0
C233 C 0.28294 0.80589 0.89619 0.0
H234 H 0.29385 0.78549 0.90288 0.0
H235 H 0.3559 0.86604 0.9039 0.0
O236 O 0.34883 0.79994 0.83089 0.0
C237 C 0.38929 0.86321 0.86462 0.0
Co238 Co 0.19045 0.35532 0.35297 0.0
Co239 Co 0.19508 0.3561 0.38583 0.0
C240 C 0.23653 0.40395 0.36853 0.0
O241 O 0.22399 0.39174 0.35726 0.0
O242 O 0.22859 0.39182 0.3805 0.0
C243 C 0.21289 0.34837 0.32401 0.0
O244 O 0.24382 0.35413 0.32874 0.0
C245 C 0.21872 0.3546 0.41539 0.0
C246 C 0.17364 0.33157 0.42557 0.0
C247 C 0.20602 0.34401 0.42828 0.0
N248 N 0.19482 0.34857 0.40557 0.0
N249 N 0.16792 0.33502 0.41177 0.0
C250 C 0.25355 0.36806 0.41224 0.0
H251 H 0.2615 0.36024 0.40156 0.0
H252 H 0.27239 0.35876 0.42003 0.0
H253 H 0.2529 0.39633 0.41262 0.0
C254 C 0.20393 0.2819 0.3577 0.0
N255 N 0.20031 0.31409 0.36241 0.0
N256 N 0.20277 0.31428 0.37616 0.0
C257 C 0.20841 0.28213 0.38062 0.0
C258 C 0.20923 0.26055 0.36909 0.0
C259 C 0.19922 0.27155 0.34273 0.0
H260 H 0.17645 0.28445 0.33833 0.0
H261 H 0.22181 0.27974 0.3366 0.0
H262 H 0.19605 0.24358 0.34163 0.0
O263 O 0.14538 0.37288 0.35837 0.0
O264 O 0.14925 0.37497 0.38151 0.0
H265 H 0.18813 0.27238 0.40099 0.0
H266 H 0.22452 0.24637 0.39657 0.0
C267 C 0.21322 0.27221 0.39563 0.0
H268 H 0.23014 0.29084 0.4009 0.0
H269 H 0.14573 0.3278 0.40652 0.0
O270 O 0.188 0.34786 0.33252 0.0
C271 C 0.13274 0.38032 0.37024 0.0
Co272 Co 0.85963 0.7025 0.85463 0.0
Co273 Co 0.86288 0.68739 0.88693 0.0
C274 C 0.91045 0.7373 0.87289 0.0
O275 O 0.89653 0.73386 0.86089 0.0
O276 O 0.8994 0.7212 0.88355 0.0
C277 C 0.87042 0.70573 0.82517 0.0
O278 O 0.90148 0.6966 0.82873 0.0
C279 C 0.86001 0.70054 0.91743 0.0
C280 C 0.86193 0.64787 0.92562 0.0
C281 C 0.86149 0.68171 0.92975 0.0
N282 N 0.85972 0.6787 0.90655 0.0
N283 N 0.8606 0.64729 0.91155 0.0
C284 C 0.86125 0.73849 0.91595 0.0
H285 H 0.86796 0.74588 0.90509 0.0
H286 H 0.83576 0.74922 0.91839 0.0
H287 H 0.87989 0.74947 0.92345 0.0
C288 C 0.78665 0.71071 0.86167 0.0
N289 N 0.81935 0.7063 0.86556 0.0
N290 N 0.82048 0.70025 0.87912 0.0
C291 C 0.78847 0.70061 0.88429 0.0
C292 C 0.76599 0.70715 0.87338 0.0
C293 C 0.77539 0.71682 0.8469 0.0
H294 H 0.79034 0.73812 0.84236 0.0
H295 H 0.74783 0.72312 0.84632 0.0
H296 H 0.78051 0.69365 0.84057 0.0
O297 O 0.87833 0.65554 0.85552 0.0
O298 O 0.87884 0.6447 0.87832 0.0
H299 H 0.79127 0.66613 0.90161 0.0
H300 H 0.75149 0.68937 0.90053 0.0
C301 C 0.77948 0.69104 0.899 0.0
H302 H 0.79005 0.71038 0.90627 0.0
H303 H 0.86121 0.62542 0.90533 0.0
O304 O 0.84848 0.71094 0.83472 0.0
C305 C 0.88463 0.63567 0.86574 0.0
Co306 Co 0.30094 0.85685 0.35077 0.0
Co307 Co 0.2993 0.85663 0.38371 0.0
C308 C 0.25349 0.90214 0.36762 0.0
O309 O 0.26532 0.89091 0.35605 0.0
O310 O 0.26352 0.89012 0.37931 0.0
C311 C 0.27463 0.83936 0.32329 0.0
O312 O 0.2466 0.83091 0.32997 0.0
C313 C 0.28031 0.85588 0.41379 0.0
C314 C 0.32605 0.83157 0.42292 0.0
C315 C 0.29461 0.84527 0.42638 0.0
N316 N 0.30241 0.84877 0.40341 0.0
N317 N 0.32973 0.8344 0.40897 0.0
C318 C 0.24557 0.87058 0.4115 0.0
H319 H 0.23506 0.86156 0.40137 0.0
H320 H 0.22798 0.86339 0.42012 0.0
H321 H 0.24755 0.89878 0.41109 0.0
C322 C 0.29673 0.78195 0.35576 0.0
N323 N 0.29627 0.81454 0.36027 0.0
N324 N 0.29313 0.81477 0.37399 0.0
C325 C 0.28987 0.78242 0.37858 0.0
C326 C 0.29246 0.76043 0.3672 0.0
C327 C 0.30532 0.77157 0.34108 0.0
H328 H 0.32226 0.79075 0.33615 0.0
H329 H 0.28149 0.76965 0.33487 0.0
H330 H 0.31822 0.7464 0.3409 0.0
O331 O 0.34508 0.87776 0.35526 0.0
O332 O 0.34308 0.87878 0.37849 0.0
H333 H 0.30754 0.77138 0.39927 0.0
H334 H 0.27009 0.74777 0.39419 0.0
C335 C 0.28304 0.77288 0.3935 0.0
H336 H 0.26672 0.79243 0.39854 0.0
H337 H 0.35084 0.82636 0.40319 0.0
O338 O 0.29996 0.85068 0.33016 0.0
C339 C 0.35808 0.88579 0.36701 0.0
Co340 Co 0.14976 0.29936 0.85187 0.0
Co341 Co 0.14516 0.30611 0.88462 0.0
C342 C 0.09979 0.25837 0.86854 0.0
O343 O 0.11331 0.2662 0.85683 0.0
O344 O 0.11031 0.27147 0.87996 0.0
C345 C 0.13792 0.2936 0.82253 0.0
O346 O 0.10584 0.29248 0.82649 0.0
C347 C 0.14631 0.28822 0.91487 0.0
C348 C 0.14946 0.33971 0.92417 0.0
C349 C 0.14678 0.30549 0.9276 0.0
N350 N 0.14851 0.31134 0.90447 0.0
N351 N 0.15067 0.34198 0.91014 0.0
C352 C 0.14189 0.25074 0.91257 0.0
H353 H 0.1345 0.24523 0.90162 0.0
H354 H 0.16645 0.23767 0.91466 0.0
H355 H 0.12245 0.24037 0.91988 0.0
C356 C 0.22262 0.29031 0.85894 0.0
N357 N 0.18977 0.29378 0.86277 0.0
N358 N 0.18805 0.29631 0.8765 0.0
C359 C 0.2198 0.29438 0.88186 0.0
C360 C 0.24277 0.29063 0.87089 0.0
C361 C 0.23437 0.28756 0.84407 0.0
H362 H 0.21955 0.26742 0.83865 0.0
H363 H 0.26193 0.28137 0.84339 0.0
H364 H 0.22943 0.31206 0.83862 0.0
O365 O 0.13051 0.34552 0.85438 0.0
O366 O 0.12738 0.34997 0.8775 0.0
H367 H 0.21751 0.32427 0.90056 0.0
H368 H 0.25595 0.29922 0.89897 0.0
C369 C 0.22807 0.29949 0.89702 0.0
H370 H 0.2158 0.27906 0.90327 0.0
H371 H 0.15216 0.36458 0.90441 0.0
O372 O 0.1611 0.29549 0.83179 0.0
C373 C 0.12252 0.36223 0.86532 0.0
Co374 Co 0.69998 0.14718 0.35072 0.0
Co375 Co 0.69621 0.14704 0.38365 0.0
C376 C 0.74393 0.10085 0.36763 0.0
O377 O 0.73491 0.11298 0.3558 0.0
O378 O 0.73148 0.11228 0.37906 0.0
C379 C 0.72065 0.14661 0.32117 0.0
O380 O 0.74802 0.1299 0.32515 0.0
C381 C 0.71741 0.15007 0.41338 0.0
C382 C 0.66889 0.16498 0.42345 0.0
C383 C 0.70266 0.1573 0.42627 0.0
N384 N 0.69337 0.15346 0.40342 0.0
N385 N 0.66441 0.16209 0.40954 0.0
C386 C 0.75386 0.14154 0.41043 0.0
H387 H 0.76116 0.15078 0.39986 0.0
H388 H 0.77088 0.15291 0.41847 0.0
H389 H 0.75701 0.11343 0.41066 0.0
C390 C 0.70964 0.22094 0.35585 0.0
N391 N 0.70591 0.18877 0.36052 0.0
N392 N 0.70358 0.1891 0.37426 0.0
C393 C 0.70512 0.22165 0.37878 0.0
C394 C 0.70901 0.24301 0.36724 0.0
C395 C 0.71411 0.23007 0.34073 0.0
H396 H 0.73256 0.2123 0.33581 0.0
H397 H 0.72353 0.25655 0.33945 0.0
H398 H 0.68931 0.2273 0.33524 0.0
O399 O 0.65532 0.126 0.35496 0.0
O400 O 0.65219 0.12709 0.37814 0.0
H401 H 0.67396 0.22178 0.3971 0.0
H402 H 0.69848 0.26 0.39507 0.0
C403 C 0.69894 0.23198 0.39367 0.0
H404 H 0.71898 0.22076 0.40046 0.0
H405 H 0.64156 0.16618 0.40419 0.0
O406 O 0.69887 0.15582 0.33027 0.0
C407 C 0.63958 0.11936 0.36629 0.0
Co408 Co 0.35354 0.80762 0.1491 0.0
Co409 Co 0.35521 0.7996 0.11641 0.0
C410 C 0.40152 0.75863 0.13372 0.0
O411 O 0.38968 0.77323 0.14465 0.0
O412 O 0.38924 0.76478 0.12161 0.0
C413 C 0.33478 0.78293 0.17658 0.0
O414 O 0.32656 0.75472 0.16997 0.0
C415 C 0.35962 0.78301 0.08602 0.0
C416 C 0.33227 0.82763 0.07737 0.0
C417 C 0.35012 0.79865 0.07355 0.0
N418 N 0.34778 0.80207 0.0967 0.0
N419 N 0.33128 0.82849 0.09142 0.0
C420 C 0.38251 0.75285 0.08787 0.0
H421 H 0.40668 0.76133 0.09282 0.0
H422 H 0.3703 0.73435 0.0951 0.0
H423 H 0.38838 0.7403 0.07775 0.0
C424 C 0.27903 0.79915 0.14367 0.0
N425 N 0.31187 0.79944 0.13946 0.0
N426 N 0.31305 0.79355 0.12591 0.0
C427 C 0.28118 0.78777 0.12117 0.0
C428 C 0.25839 0.79143 0.13224 0.0
C429 C 0.26735 0.8102 0.1579 0.0
H430 H 0.28594 0.82818 0.16258 0.0
H431 H 0.26504 0.78753 0.16478 0.0
H432 H 0.24202 0.82277 0.15731 0.0
O433 O 0.37224 0.85234 0.14389 0.0
O434 O 0.37609 0.84445 0.12095 0.0
H435 H 0.26926 0.80089 0.1 0.0
H436 H 0.24914 0.76233 0.10605 0.0
C437 C 0.27293 0.77763 0.10644 0.0
H438 H 0.29415 0.76253 0.10191 0.0
H439 H 0.32023 0.84772 0.09746 0.0
O440 O 0.34656 0.808 0.16967 0.0
C441 C 0.38122 0.86261 0.1318 0.0
Co442 Co 0.19242 0.35372 0.64777 0.0
Co443 Co 0.19614 0.35306 0.61488 0.0
C444 C 0.23888 0.40093 0.63187 0.0
O445 O 0.22696 0.38894 0.64329 0.0
O446 O 0.2301 0.38868 0.62002 0.0
C447 C 0.21312 0.35136 0.67707 0.0
O448 O 0.24306 0.36206 0.67275 0.0
C449 C 0.22007 0.35029 0.5854 0.0
C450 C 0.17411 0.32949 0.57508 0.0
C451 C 0.20704 0.34054 0.57246 0.0
N452 N 0.19584 0.34513 0.59517 0.0
N453 N 0.16843 0.33289 0.58889 0.0
C454 C 0.2553 0.36254 0.58864 0.0
H455 H 0.26282 0.35447 0.59934 0.0
H456 H 0.2739 0.35258 0.58089 0.0
H457 H 0.25564 0.39082 0.58825 0.0
C458 C 0.20286 0.27988 0.64351 0.0
N459 N 0.20063 0.31194 0.63854 0.0
N460 N 0.20295 0.31136 0.62479 0.0
C461 C 0.20726 0.27876 0.62059 0.0
C462 C 0.20713 0.25775 0.63232 0.0
C463 C 0.20053 0.27076 0.6587 0.0
H464 H 0.22072 0.2845 0.66456 0.0
H465 H 0.20365 0.24297 0.66045 0.0
H466 H 0.17549 0.27915 0.66288 0.0
O467 O 0.14821 0.37314 0.6423 0.0
O468 O 0.15081 0.3732 0.61911 0.0
H469 H 0.21581 0.2405 0.60457 0.0
H470 H 0.22709 0.28371 0.59979 0.0
C471 C 0.20855 0.26771 0.6056 0.0
H472 H 0.18304 0.27129 0.60082 0.0
H473 H 0.14584 0.32669 0.59407 0.0
O474 O 0.18945 0.34643 0.66822 0.0
C475 C 0.13522 0.3802 0.63044 0.0
Co476 Co 0.64993 0.19659 0.14622 0.0
Co477 Co 0.64814 0.19973 0.11333 0.0
C478 C 0.60599 0.2471 0.1305 0.0
O479 O 0.61772 0.23425 0.14181 0.0
O480 O 0.61626 0.2369 0.11852 0.0
C481 C 0.6377 0.20125 0.17606 0.0
O482 O 0.60622 0.20866 0.17245 0.0
C483 C 0.64954 0.21961 0.08327 0.0
C484 C 0.67069 0.17242 0.07405 0.0
C485 C 0.65929 0.2048 0.07065 0.0
N486 N 0.65501 0.19688 0.09359 0.0
N487 N 0.66747 0.16873 0.08798 0.0
C488 C 0.63751 0.25532 0.08568 0.0
H489 H 0.64609 0.26443 0.0961 0.0
H490 H 0.64719 0.2727 0.07741 0.0
H491 H 0.60922 0.25571 0.0855 0.0
C492 C 0.72406 0.20188 0.14073 0.0
N493 N 0.69149 0.20074 0.13627 0.0
N494 N 0.69084 0.20392 0.12257 0.0
C495 C 0.72302 0.20816 0.11788 0.0
C496 C 0.74528 0.20681 0.12923 0.0
C497 C 0.7345 0.19575 0.15561 0.0
H498 H 0.71944 0.17436 0.16002 0.0
H499 H 0.72901 0.21891 0.1619 0.0
H500 H 0.76197 0.18942 0.15649 0.0
O501 O 0.62576 0.15397 0.14158 0.0
O502 O 0.62472 0.15648 0.11837 0.0
H503 H 0.73265 0.19098 0.09702 0.0
H504 H 0.75733 0.22781 0.10208 0.0
C505 C 0.73204 0.21532 0.10293 0.0
H506 H 0.71253 0.23214 0.09816 0.0
H507 H 0.67408 0.14705 0.09371 0.0
O508 O 0.65976 0.19589 0.16657 0.0
C509 C 0.61693 0.14166 0.1298 0.0
Co510 Co 0.8047 0.64794 0.6516 0.0
Co511 Co 0.798 0.64648 0.61886 0.0
C512 C 0.75589 0.60059 0.6365 0.0
O513 O 0.76989 0.61213 0.64761 0.0
O514 O 0.76311 0.61267 0.62445 0.0
C515 C 0.78327 0.65711 0.68062 0.0
O516 O 0.75199 0.65278 0.67602 0.0
C517 C 0.77937 0.64131 0.58877 0.0
C518 C 0.82528 0.66489 0.5794 0.0
C519 C 0.79499 0.64875 0.57607 0.0
N520 N 0.79972 0.65268 0.59912 0.0
N521 N 0.82697 0.66682 0.59342 0.0
C522 C 0.7481 0.62028 0.59116 0.0
H523 H 0.75563 0.59564 0.59597 0.0
H524 H 0.73109 0.63357 0.59868 0.0
H525 H 0.73423 0.61511 0.58127 0.0
C526 C 0.79335 0.72194 0.64643 0.0
N527 N 0.79578 0.68944 0.64194 0.0
N528 N 0.79216 0.68881 0.62824 0.0
C529 C 0.78672 0.72085 0.62359 0.0
C530 C 0.78753 0.74298 0.63497 0.0
C531 C 0.79614 0.7324 0.66147 0.0
H532 H 0.82042 0.72266 0.66591 0.0
H533 H 0.77486 0.72078 0.66743 0.0
H534 H 0.79485 0.76045 0.66279 0.0
O535 O 0.84924 0.62854 0.64613 0.0
O536 O 0.84282 0.62597 0.62313 0.0
H537 H 0.80919 0.72924 0.60354 0.0
H538 H 0.77333 0.75632 0.607 0.0
C539 C 0.78358 0.73024 0.60845 0.0
H540 H 0.7668 0.71173 0.60301 0.0
H541 H 0.8473 0.67681 0.59915 0.0
O542 O 0.80797 0.65608 0.67202 0.0
C543 C 0.86031 0.62024 0.63409 0.0
H544 H 0.09512 0.29859 0.20006 0.0
H545 H 0.10905 0.30545 0.22485 0.0
H546 H 0.21608 0.31047 0.21459 0.0
H547 H 0.20245 0.30291 0.18981 0.0
H548 H 0.20631 0.27274 0.23754 0.0
H549 H 0.17041 0.38284 0.22137 0.0
H550 H 0.13183 0.42409 0.21 0.0
H551 H 0.05384 0.40122 0.24015 0.0
H552 H 0.09182 0.35947 0.25158 0.0
H553 H 0.2597 0.34591 0.30266 0.0
H554 H 0.24854 0.33599 0.27773 0.0
H555 H 0.141 0.32664 0.28642 0.0
H556 H 0.1518 0.33676 0.31122 0.0
H557 H 0.15265 0.36733 0.26411 0.0
H558 H 0.18893 0.25677 0.28015 0.0
H559 H 0.22798 0.21595 0.29149 0.0
H560 H 0.30602 0.2405 0.26159 0.0
H561 H 0.26756 0.28185 0.25018 0.0
C562 C 0.12164 0.30096 0.20307 0.0
C563 C 0.14765 0.30045 0.19295 0.0
C564 C 0.12955 0.30502 0.21725 0.0
C565 C 0.16358 0.30904 0.22155 0.0
C566 C 0.18965 0.30753 0.21151 0.0
C567 C 0.18179 0.30329 0.19734 0.0
C568 C 0.17192 0.31552 0.23647 0.0
C569 C 0.19492 0.29369 0.2433 0.0
C570 C 0.15668 0.34255 0.24405 0.0
C571 C 0.13385 0.3678 0.23725 0.0
C572 C 0.14495 0.38643 0.22551 0.0
C573 C 0.1232 0.40993 0.21907 0.0
C574 C 0.09037 0.41521 0.22433 0.0
C575 C 0.07926 0.39707 0.23607 0.0
C576 C 0.1009 0.37351 0.24254 0.0
C577 C 0.2337 0.3417 0.29926 0.0
C578 C 0.20666 0.34214 0.30893 0.0
C579 C 0.22738 0.33592 0.28503 0.0
C580 C 0.19395 0.33036 0.28025 0.0
C581 C 0.16697 0.33092 0.28988 0.0
C582 C 0.17324 0.33662 0.30407 0.0
C583 C 0.1868 0.3244 0.2652 0.0
C584 C 0.16407 0.34641 0.25833 0.0
C585 C 0.20238 0.29762 0.2576 0.0
C586 C 0.22548 0.27267 0.26441 0.0
C587 C 0.21451 0.25367 0.27606 0.0
C588 C 0.23652 0.2304 0.28249 0.0
C589 C 0.2695 0.2257 0.27729 0.0
C590 C 0.28049 0.2442 0.26562 0.0
C591 C 0.25859 0.26754 0.25917 0.0
H592 H 0.2865 0.20767 0.28228 0.0
H593 H 0.07357 0.43341 0.21932 0.0
H594 H 0.69772 0.19832 0.80963 0.0
H595 H 0.71284 0.18985 0.78513 0.0
H596 H 0.6149 0.22954 0.77251 0.0
H597 H 0.5991 0.23707 0.79712 0.0
H598 H 0.62809 0.1736 0.75872 0.0
H599 H 0.69128 0.27556 0.76838 0.0
H600 H 0.73145 0.31218 0.78137 0.0
H601 H 0.81244 0.24106 0.77342 0.0
H602 H 0.77264 0.20377 0.76054 0.0
H603 H 0.66489 0.18693 0.68669 0.0
H604 H 0.6528 0.2012 0.71103 0.0
H605 H 0.74688 0.15345 0.72382 0.0
H606 H 0.75951 0.13934 0.69933 0.0
H607 H 0.73608 0.21412 0.73735 0.0
H608 H 0.67227 0.11201 0.728 0.0
H609 H 0.63196 0.07573 0.71493 0.0
H610 H 0.55178 0.14814 0.72226 0.0
H611 H 0.59175 0.1851 0.73522 0.0
C612 C 0.67947 0.20559 0.80166 0.0
C613 C 0.64716 0.21838 0.80534 0.0
C614 C 0.68825 0.20088 0.78762 0.0
C615 C 0.6652 0.20944 0.77694 0.0
C616 C 0.63313 0.22277 0.78057 0.0
C617 C 0.62416 0.22715 0.79464 0.0
C618 C 0.67391 0.20285 0.76203 0.0
C619 C 0.65144 0.18299 0.754 0.0
C620 C 0.70485 0.21423 0.75594 0.0
C621 C 0.7289 0.23674 0.7636 0.0
C622 C 0.7176 0.26761 0.76949 0.0
C623 C 0.74032 0.28851 0.77681 0.0
C624 C 0.77446 0.27891 0.77825 0.0
C625 C 0.78598 0.24845 0.77232 0.0
C626 C 0.76336 0.22744 0.76499 0.0
C627 C 0.68311 0.17944 0.69465 0.0
C628 C 0.71307 0.1617 0.69107 0.0
C629 C 0.67608 0.18759 0.70857 0.0
C630 C 0.69867 0.17794 0.71925 0.0
C631 C 0.72905 0.16102 0.71572 0.0
C632 C 0.73617 0.1529 0.70174 0.0
C633 C 0.69016 0.18511 0.7341 0.0
C634 C 0.71269 0.20493 0.7421 0.0
C635 C 0.65923 0.17379 0.74017 0.0
C636 C 0.63508 0.15146 0.73247 0.0
C637 C 0.6461 0.12032 0.72674 0.0
C638 C 0.62331 0.09961 0.71937 0.0
C639 C 0.58935 0.10966 0.71774 0.0
C640 C 0.5781 0.1404 0.72352 0.0
C641 C 0.6008 0.16122 0.73089 0.0
H642 H 0.57175 0.0936 0.71202 0.0
H643 H 0.792 0.29512 0.78393 0.0
H644 H 0.72479 0.68967 0.30731 0.0
H645 H 0.73509 0.70261 0.28257 0.0
H646 H 0.82961 0.64628 0.28425 0.0
H647 H 0.82007 0.6345 0.30902 0.0
H648 H 0.84051 0.7025 0.27147 0.0
H649 H 0.75486 0.61568 0.26771 0.0
H650 H 0.69938 0.58806 0.27209 0.0
H651 H 0.64756 0.67358 0.25375 0.0
H652 H 0.70275 0.70192 0.24942 0.0
H653 H 0.8673 0.66953 0.19886 0.0
H654 H 0.85335 0.66405 0.22375 0.0
H655 H 0.78023 0.74566 0.22001 0.0
H656 H 0.79455 0.75181 0.1951 0.0
H657 H 0.75647 0.68176 0.23357 0.0
H658 H 0.84597 0.76558 0.23603 0.0
H659 H 0.90306 0.78881 0.23094 0.0
H660 H 0.94943 0.70271 0.25118 0.0
H661 H 0.89259 0.6787 0.25621 0.0
C662 C 0.74758 0.67981 0.30235 0.0
C663 C 0.77164 0.66111 0.31009 0.0
C664 C 0.75343 0.68714 0.2882 0.0
C665 C 0.78305 0.67523 0.28148 0.0
C666 C 0.80668 0.65595 0.28919 0.0
C667 C 0.80113 0.64911 0.30334 0.0
C668 C 0.79022 0.68362 0.26658 0.0
C669 C 0.82218 0.6976 0.2632 0.0
C670 C 0.76612 0.67801 0.25576 0.0
C671 C 0.73291 0.66109 0.2584 0.0
C672 C 0.73162 0.62872 0.26472 0.0
C673 C 0.70023 0.61291 0.26717 0.0
C674 C 0.66996 0.6291 0.26324 0.0
C675 C 0.67103 0.6611 0.25682 0.0
C676 C 0.70235 0.67704 0.25436 0.0
C677 C 0.84845 0.68651 0.20337 0.0
C678 C 0.83207 0.71117 0.19507 0.0
C679 C 0.84055 0.68335 0.21756 0.0
C680 C 0.81581 0.70447 0.22366 0.0
C681 C 0.79942 0.72918 0.21545 0.0
C682 C 0.80777 0.73278 0.20128 0.0
C683 C 0.80675 0.70002 0.23858 0.0
C684 C 0.77453 0.68684 0.24193 0.0
C685 C 0.83079 0.70574 0.24934 0.0
C686 C 0.86501 0.72019 0.24638 0.0
C687 C 0.86834 0.75144 0.23929 0.0
C688 C 0.90066 0.76479 0.23644 0.0
C689 C 0.92986 0.74721 0.24071 0.0
C690 C 0.92679 0.71629 0.24787 0.0
C691 C 0.89453 0.70282 0.25073 0.0
H692 H 0.95486 0.75759 0.2385 0.0
H693 H 0.64569 0.61681 0.26514 0.0
H694 H 0.36714 0.73674 0.7988 0.0
H695 H 0.35378 0.74928 0.77427 0.0
H696 H 0.31273 0.84699 0.78641 0.0
H697 H 0.32508 0.83432 0.81087 0.0
H698 H 0.27341 0.81964 0.76735 0.0
H699 H 0.39377 0.83846 0.77222 0.0
H700 H 0.45309 0.82364 0.77827 0.0
H701 H 0.45128 0.74175 0.74842 0.0
H702 H 0.39176 0.75581 0.74232 0.0
H703 H 0.28334 0.90523 0.7013 0.0
H704 H 0.29112 0.88761 0.72571 0.0
H705 H 0.32055 0.78706 0.71199 0.0
H706 H 0.31283 0.80432 0.68763 0.0
H707 H 0.36487 0.8139 0.73152 0.0
H708 H 0.24395 0.79852 0.72605 0.0
H709 H 0.1854 0.81608 0.72 0.0
H710 H 0.18941 0.89511 0.75109 0.0
H711 H 0.2482 0.87832 0.7572 0.0
C712 C 0.3551 0.7608 0.79624 0.0
C713 C 0.34739 0.78459 0.80679 0.0
C714 C 0.34762 0.76802 0.78221 0.0
C715 C 0.33271 0.79932 0.77846 0.0
C716 C 0.32426 0.8227 0.78902 0.0
C717 C 0.33148 0.81542 0.80303 0.0
C718 C 0.32636 0.80815 0.76354 0.0
C719 C 0.29352 0.8187 0.75956 0.0
C720 C 0.35241 0.80645 0.75329 0.0
C721 C 0.38819 0.79795 0.75693 0.0
C722 C 0.40593 0.81712 0.76703 0.0
C723 C 0.4396 0.80889 0.77045 0.0
C724 C 0.45591 0.78171 0.76377 0.0
C725 C 0.4386 0.76276 0.75361 0.0
C726 C 0.4049 0.77086 0.75016 0.0
C727 C 0.29127 0.87931 0.70348 0.0
C728 C 0.29746 0.8562 0.69251 0.0
C729 C 0.29561 0.86926 0.71743 0.0
C730 C 0.30627 0.83597 0.72065 0.0
C731 C 0.31233 0.81285 0.70973 0.0
C732 C 0.30778 0.82278 0.69581 0.0
C733 C 0.31202 0.82545 0.73539 0.0
C734 C 0.34476 0.81465 0.73933 0.0
C735 C 0.28599 0.8273 0.74562 0.0
C736 C 0.2506 0.83736 0.74199 0.0
C737 C 0.23246 0.81983 0.73152 0.0
C738 C 0.1992 0.82961 0.72809 0.0
C739 C 0.18373 0.85675 0.73513 0.0
C740 C 0.20145 0.87411 0.74563 0.0
C741 C 0.23472 0.86446 0.74909 0.0
H742 H 0.15798 0.86428 0.73246 0.0
H743 H 0.48198 0.77538 0.76643 0.0
H744 H 0.91096 0.69694 0.80215 0.0
H745 H 0.89316 0.69375 0.77766 0.0
H746 H 0.78901 0.71296 0.78986 0.0
H747 H 0.80654 0.71603 0.81442 0.0
H748 H 0.79439 0.65842 0.77232 0.0
H749 H 0.83359 0.77395 0.77327 0.0
H750 H 0.8741 0.82062 0.77802 0.0
H751 H 0.94685 0.77511 0.75008 0.0
H752 H 0.90696 0.7279 0.74531 0.0
H753 H 0.7369 0.66985 0.7015 0.0
H754 H 0.74886 0.6826 0.72613 0.0
H755 H 0.85675 0.67287 0.71818 0.0
H756 H 0.8451 0.66101 0.69358 0.0
H757 H 0.84546 0.72656 0.7339 0.0
H758 H 0.80954 0.60907 0.73446 0.0
H759 H 0.77059 0.56096 0.72992 0.0
H760 H 0.69345 0.60857 0.75515 0.0
H761 H 0.73182 0.6572 0.75969 0.0
C762 C 0.88432 0.70085 0.79963 0.0
C763 C 0.86018 0.70669 0.81024 0.0
C764 C 0.8742 0.69913 0.78561 0.0
C765 C 0.83978 0.70331 0.78194 0.0
C766 C 0.8157 0.70968 0.79248 0.0
C767 C 0.82581 0.71155 0.8065 0.0
C768 C 0.8288 0.69934 0.76716 0.0
C769 C 0.80507 0.67373 0.76393 0.0
C770 C 0.84334 0.7188 0.75621 0.0
C771 C 0.86737 0.74723 0.75902 0.0
C772 C 0.85833 0.77375 0.76822 0.0
C773 C 0.88116 0.80033 0.7709 0.0
C774 C 0.91305 0.80079 0.76438 0.0
C775 C 0.92215 0.77471 0.75513 0.0
C776 C 0.89942 0.74805 0.75243 0.0
C777 C 0.76316 0.67038 0.70501 0.0
C778 C 0.79003 0.66431 0.69559 0.0
C779 C 0.76996 0.67758 0.7191 0.0
C780 C 0.80372 0.67837 0.72404 0.0
C781 C 0.83052 0.67248 0.71461 0.0
C782 C 0.82378 0.66557 0.70055 0.0
C783 C 0.8114 0.68527 0.73901 0.0
C784 C 0.83452 0.71145 0.74229 0.0
C785 C 0.79649 0.66615 0.75 0.0
C786 C 0.7734 0.63695 0.74728 0.0
C787 C 0.78417 0.60941 0.73894 0.0
C788 C 0.76222 0.58203 0.73639 0.0
C789 C 0.72953 0.58176 0.7422 0.0
C790 C 0.71875 0.60884 0.75063 0.0
C791 C 0.7406 0.63631 0.7532 0.0
H792 H 0.71257 0.56053 0.74022 0.0
H793 H 0.9307 0.8214 0.76647 0.0
H794 H 0.32302 0.86526 0.30577 0.0
H795 H 0.32973 0.85465 0.2807 0.0
H796 H 0.24095 0.78981 0.28117 0.0
H797 H 0.23381 0.80054 0.30632 0.0
H798 H 0.29941 0.76148 0.26729 0.0
H799 H 0.23216 0.86411 0.26725 0.0
H800 H 0.21832 0.92312 0.27411 0.0
H801 H 0.31264 0.95809 0.25635 0.0
H802 H 0.32728 0.89918 0.24955 0.0
H803 H 0.29186 0.7451 0.19297 0.0
H804 H 0.27884 0.75362 0.21778 0.0
H805 H 0.35052 0.83707 0.2193 0.0
H806 H 0.3625 0.82954 0.1944 0.0
H807 H 0.29652 0.85503 0.23233 0.0
H808 H 0.36692 0.75505 0.23366 0.0
H809 H 0.38478 0.69663 0.22752 0.0
H810 H 0.29028 0.65722 0.24346 0.0
H811 H 0.27166 0.71548 0.24953 0.0
C812 C 0.3048 0.84886 0.30054 0.0
C813 C 0.27781 0.8338 0.30802 0.0
C814 C 0.30865 0.84289 0.28622 0.0
C815 C 0.28575 0.82159 0.2791 0.0
C816 C 0.25884 0.80637 0.2865 0.0
C817 C 0.25471 0.81267 0.30083 0.0
C818 C 0.29039 0.81498 0.26394 0.0
C819 C 0.29823 0.78175 0.25957 0.0
C820 C 0.28981 0.84169 0.25401 0.0
C821 C 0.28094 0.87718 0.258 0.0
C822 C 0.25008 0.88434 0.2649 0.0
C823 C 0.24206 0.91778 0.26876 0.0
C824 C 0.26462 0.94433 0.26569 0.0
C825 C 0.2952 0.93749 0.25873 0.0
C826 C 0.30335 0.90409 0.25485 0.0
C827 C 0.305 0.76509 0.19863 0.0
C828 C 0.32825 0.78661 0.19176 0.0
C829 C 0.29763 0.76988 0.21284 0.0
C830 C 0.31397 0.79576 0.22051 0.0
C831 C 0.33747 0.817 0.21364 0.0
C832 C 0.3444 0.8126 0.19941 0.0
C833 C 0.30609 0.80145 0.23558 0.0
C834 C 0.29757 0.83457 0.23997 0.0
C835 C 0.30664 0.7747 0.24556 0.0
C836 C 0.31774 0.73966 0.2419 0.0
C837 C 0.34983 0.73395 0.23575 0.0
C838 C 0.36011 0.70087 0.2323 0.0
C839 C 0.33863 0.67324 0.23506 0.0
C840 C 0.30686 0.67865 0.2413 0.0
C841 C 0.29644 0.71169 0.24476 0.0
H842 H 0.34664 0.64765 0.23238 0.0
H843 H 0.25837 0.9702 0.26869 0.0
H844 H 0.2579 0.35691 0.69904 0.0
H845 H 0.24644 0.34571 0.72385 0.0
H846 H 0.14252 0.31923 0.71381 0.0
H847 H 0.15359 0.3305 0.6891 0.0
H848 H 0.14611 0.36164 0.73624 0.0
H849 H 0.20012 0.25787 0.72079 0.0
H850 H 0.2459 0.22375 0.70996 0.0
H851 H 0.31699 0.26025 0.74071 0.0
H852 H 0.27172 0.29498 0.7516 0.0
H853 H 0.09547 0.28674 0.79998 0.0
H854 H 0.10971 0.2946 0.77527 0.0
H855 H 0.21451 0.31428 0.78641 0.0
H856 H 0.2007 0.30555 0.8111 0.0
H857 H 0.21172 0.27622 0.76353 0.0
H858 H 0.15868 0.37967 0.77913 0.0
H859 H 0.11361 0.41449 0.79008 0.0
H860 H 0.0418 0.38018 0.75919 0.0
H861 H 0.08635 0.34476 0.74816 0.0
C862 C 0.23263 0.34868 0.70212 0.0
C863 C 0.20668 0.34458 0.69209 0.0
C864 C 0.22616 0.34219 0.71628 0.0
C865 C 0.19369 0.33142 0.72064 0.0
C866 C 0.16774 0.32754 0.71067 0.0
C867 C 0.17418 0.33393 0.69654 0.0
C868 C 0.18646 0.32441 0.7356 0.0
C869 C 0.16018 0.34268 0.74217 0.0
C870 C 0.20542 0.3003 0.74341 0.0
C871 C 0.23261 0.27929 0.73692 0.0
C872 C 0.22558 0.25883 0.72517 0.0
C873 C 0.25142 0.23934 0.71903 0.0
C874 C 0.28435 0.2399 0.72462 0.0
C875 C 0.29149 0.25988 0.73638 0.0
C876 C 0.26574 0.27945 0.74255 0.0
C877 C 0.1216 0.29247 0.79717 0.0
C878 C 0.14688 0.2958 0.80751 0.0
C879 C 0.12968 0.29712 0.78304 0.0
C880 C 0.16305 0.30569 0.77901 0.0
C881 C 0.18857 0.30783 0.78928 0.0
C882 C 0.18059 0.3029 0.80339 0.0
C883 C 0.17118 0.31329 0.76416 0.0
C884 C 0.19766 0.29521 0.75761 0.0
C885 C 0.15254 0.33775 0.75638 0.0
C886 C 0.12578 0.35931 0.7629 0.0
C887 C 0.13323 0.37938 0.77472 0.0
C888 C 0.10778 0.39924 0.78094 0.0
C889 C 0.07484 0.39948 0.77536 0.0
C890 C 0.06732 0.37994 0.76352 0.0
C891 C 0.09266 0.35998 0.75727 0.0
H892 H 0.05517 0.41485 0.78019 0.0
H893 H 0.30433 0.2248 0.71985 0.0
H894 H 0.66527 0.17832 0.30978 0.0
H895 H 0.65316 0.18836 0.28507 0.0
H896 H 0.7489 0.14174 0.27378 0.0
H897 H 0.76139 0.13156 0.29861 0.0
H898 H 0.73561 0.20156 0.25892 0.0
H899 H 0.67824 0.09697 0.27006 0.0
H900 H 0.64012 0.05964 0.28373 0.0
H901 H 0.55552 0.12566 0.27477 0.0
H902 H 0.59326 0.16367 0.26121 0.0
H903 H 0.69852 0.17935 0.18675 0.0
H904 H 0.71377 0.17139 0.21129 0.0
H905 H 0.6144 0.20754 0.22379 0.0
H906 H 0.59857 0.21474 0.19917 0.0
H907 H 0.63063 0.15239 0.23808 0.0
H908 H 0.68737 0.25738 0.22715 0.0
H909 H 0.72518 0.29546 0.21369 0.0
H910 H 0.81039 0.23001 0.22237 0.0
H911 H 0.77298 0.19127 0.23573 0.0
C912 C 0.68387 0.17023 0.30208 0.0
C913 C 0.71423 0.15389 0.30617 0.0
C914 C 0.67684 0.17594 0.28794 0.0
C915 C 0.69993 0.16542 0.2776 0.0
C916 C 0.7307 0.14995 0.28162 0.0
C917 C 0.73774 0.14408 0.2958 0.0
C918 C 0.69151 0.17015 0.26258 0.0
C919 C 0.71293 0.19044 0.25428 0.0
C920 C 0.66147 0.15627 0.25666 0.0
C921 C 0.63866 0.13333 0.26473 0.0
C922 C 0.65156 0.10367 0.2711 0.0
C923 C 0.63001 0.08236 0.27881 0.0
C924 C 0.59544 0.09032 0.28014 0.0
C925 C 0.58232 0.11955 0.27374 0.0
C926 C 0.60377 0.14097 0.26603 0.0
C927 C 0.67991 0.18578 0.1947 0.0
C928 C 0.64731 0.19774 0.19099 0.0
C929 C 0.68876 0.18136 0.20876 0.0
C930 C 0.66541 0.18928 0.21942 0.0
C931 C 0.63286 0.2013 0.21575 0.0
C932 C 0.62388 0.2055 0.20167 0.0
C933 C 0.6746 0.18407 0.23437 0.0
C934 C 0.65332 0.16359 0.24267 0.0
C935 C 0.70471 0.1979 0.24029 0.0
C936 C 0.7273 0.22126 0.23233 0.0
C937 C 0.71412 0.25097 0.2261 0.0
C938 C 0.73549 0.2727 0.2185 0.0
C939 C 0.77015 0.26511 0.21714 0.0
C940 C 0.78353 0.23583 0.22342 0.0
C941 C 0.76226 0.214 0.23102 0.0
H942 H 0.78665 0.28196 0.21126 0.0
H943 H 0.57879 0.07379 0.28612 0.0
H944 H 0.16826 0.23101 0.06028 0.0
H945 H 0.16041 0.21684 0.03537 0.0
H946 H 0.11603 0.31604 0.02829 0.0
H947 H 0.12378 0.3301 0.05302 0.0
H948 H 0.08238 0.26395 0.01368 0.0
H949 H 0.19889 0.30417 0.02287 0.0
H950 H 0.25507 0.29986 0.03437 0.0
H951 H 0.26865 0.19944 0.01731 0.0
H952 H 0.2123 0.20305 0.00586 0.0
H953 H 0.11367 0.33654 0.94891 0.0
H954 H 0.10892 0.31811 0.97316 0.0
H955 H 0.16499 0.22645 0.96345 0.0
H956 H 0.17103 0.24552 0.93915 0.0
H957 H 0.18952 0.25532 0.98625 0.0
H958 H 0.07951 0.22203 0.9719 0.0
H959 H 0.02367 0.22636 0.96018 0.0
H960 H 0.99672 0.31085 0.98655 0.0
H961 H 0.0526 0.30742 0.99829 0.0
C962 C 0.15604 0.24932 0.05343 0.0
C963 C 0.14635 0.28151 0.0585 0.0
C964 C 0.15174 0.24131 0.03924 0.0
C965 C 0.13766 0.26543 0.03001 0.0
C966 C 0.12672 0.297 0.03525 0.0
C967 C 0.13132 0.30508 0.04934 0.0
C968 C 0.13701 0.2597 0.01468 0.0
C969 C 0.10571 0.26188 0.00763 0.0
C970 C 0.1674 0.25572 0.00686 0.0
C971 C 0.20127 0.25369 0.01367 0.0
C972 C 0.21376 0.28108 0.02167 0.0
C973 C 0.24563 0.27879 0.02816 0.0
C974 C 0.26536 0.24935 0.02661 0.0
C975 C 0.2533 0.22219 0.01853 0.0
C976 C 0.22141 0.22435 0.01204 0.0
C977 C 0.12476 0.31228 0.95188 0.0
C978 C 0.14226 0.29226 0.94202 0.0
C979 C 0.12169 0.30157 0.96573 0.0
C980 C 0.13591 0.27049 0.97008 0.0
C981 C 0.15334 0.25027 0.96027 0.0
C982 C 0.15647 0.26105 0.94633 0.0
C983 C 0.1349 0.26113 0.98515 0.0
C984 C 0.16594 0.25617 0.99219 0.0
C985 C 0.10419 0.26232 0.99294 0.0
C986 C 0.07037 0.2645 0.98596 0.0
C987 C 0.06178 0.24168 0.97515 0.0
C988 C 0.03009 0.24396 0.96851 0.0
C989 C 0.00667 0.26887 0.97261 0.0
C990 C 0.01488 0.29154 0.98339 0.0
C991 C 0.04654 0.28939 0.99006 0.0
H992 H 0.98215 0.2706 0.96745 0.0
H993 H 0.29004 0.24762 0.03164 0.0
H994 H 0.69301 0.20341 0.44689 0.0
H995 H 0.71149 0.19957 0.47126 0.0
H996 H 0.76351 0.10516 0.46224 0.0
H997 H 0.74506 0.10903 0.43768 0.0
H998 H 0.71893 0.10095 0.48488 0.0
H999 H 0.81118 0.17056 0.47103 0.0
H1000 H 0.84037 0.2181 0.45914 0.0
H1001 H 0.7844 0.29011 0.48402 0.0
H1002 H 0.75445 0.24304 0.49592 0.0
H1003 H 0.7442 0.10703 0.55907 0.0
H1004 H 0.76158 0.10359 0.53441 0.0
H1005 H 0.71203 0.19982 0.5263 0.0
H1006 H 0.69517 0.20359 0.55085 0.0
H1007 H 0.77241 0.19453 0.51209 0.0
H1008 H 0.67091 0.12556 0.52073 0.0
H1009 H 0.6392 0.07886 0.53213 0.0
H1010 H 0.7119 0.00627 0.51654 0.0
H1011 H 0.74428 0.05268 0.50519 0.0
C1012 C 0.70896 0.18219 0.45004 0.0
C1013 C 0.71791 0.15671 0.4404 0.0
C1014 C 0.71965 0.18009 0.46394 0.0
C1015 C 0.73919 0.15226 0.46853 0.0
C1016 C 0.74875 0.12701 0.45886 0.0
C1017 C 0.73842 0.12937 0.44484 0.0
C1018 C 0.74637 0.14844 0.48369 0.0
C1019 C 0.73158 0.12087 0.49081 0.0
C1020 C 0.76247 0.17466 0.49142 0.0
C1021 C 0.78046 0.20319 0.48434 0.0
C1022 C 0.8049 0.19653 0.47391 0.0
C1023 C 0.82162 0.22341 0.46717 0.0
C1024 C 0.81423 0.2571 0.47082 0.0
C1025 C 0.79012 0.26399 0.48122 0.0
C1026 C 0.77331 0.23721 0.48798 0.0
C1027 C 0.73791 0.12788 0.55211 0.0
C1028 C 0.71855 0.15572 0.55688 0.0
C1029 C 0.7476 0.12575 0.538 0.0
C1030 C 0.73797 0.1514 0.52851 0.0
C1031 C 0.7199 0.17983 0.53344 0.0
C1032 C 0.71008 0.18185 0.54745 0.0
C1033 C 0.74379 0.14778 0.51323 0.0
C1034 C 0.7609 0.17402 0.50611 0.0
C1035 C 0.72969 0.12042 0.50549 0.0
C1036 C 0.71024 0.09259 0.51229 0.0
C1037 C 0.68027 0.09967 0.51984 0.0
C1038 C 0.66216 0.07326 0.52627 0.0
C1039 C 0.6736 0.03963 0.5251 0.0
C1040 C 0.70313 0.03234 0.51747 0.0
C1041 C 0.72137 0.05868 0.51104 0.0
H1042 H 0.65954 0.01921 0.53008 0.0
H1043 H 0.8272 0.27788 0.46559 0.0
H1044 H 0.90067 0.65449 0.95021 0.0
H1045 H 0.90039 0.66838 0.97514 0.0
H1046 H 0.82765 0.74879 0.96753 0.0
H1047 H 0.82746 0.73462 0.94252 0.0
H1048 H 0.91275 0.72551 0.99182 0.0
H1049 H 0.76844 0.74166 0.99419 0.0
H1050 H 0.71693 0.72761 0.98048 0.0
H1051 H 0.76639 0.63832 0.96418 0.0
H1052 H 0.81796 0.65163 0.97794 0.0
H1053 H 0.85823 0.74592 0.06467 0.0
H1054 H 0.86488 0.75681 0.0395 0.0
H1055 H 0.83893 0.65215 0.03071 0.0
H1056 H 0.83352 0.64074 0.05568 0.0
H1057 H 0.80212 0.69961 0.01471 0.0
H1058 H 0.91866 0.67477 0.02923 0.0
H1059 H 0.97048 0.68535 0.04321 0.0
H1060 H 0.97791 0.78629 0.02605 0.0
H1061 H 0.92577 0.77646 0.01213 0.0
C1062 C 0.88503 0.6755 0.95381 0.0
C1063 C 0.86417 0.69354 0.94442 0.0
C1064 C 0.88514 0.68362 0.96804 0.0
C1065 C 0.864 0.70958 0.97318 0.0
C1066 C 0.84423 0.72871 0.96375 0.0
C1067 C 0.8443 0.72072 0.94945 0.0
C1068 C 0.85976 0.71333 0.98853 0.0
C1069 C 0.88845 0.72043 0.99684 0.0
C1070 C 0.82812 0.70651 0.99507 0.0
C1071 C 0.79712 0.6979 0.98694 0.0
C1072 C 0.76824 0.719 0.9877 0.0
C1073 C 0.73905 0.71117 0.97992 0.0
C1074 C 0.73844 0.68217 0.97142 0.0
C1075 C 0.76694 0.66084 0.97073 0.0
C1076 C 0.79616 0.66853 0.9785 0.0
C1077 C 0.85491 0.725 0.05741 0.0
C1078 C 0.84613 0.69223 0.06221 0.0
C1079 C 0.85827 0.73141 0.04303 0.0
C1080 C 0.85238 0.70526 0.03328 0.0
C1081 C 0.84343 0.6727 0.03807 0.0
C1082 C 0.84042 0.66623 0.05236 0.0
C1083 C 0.8552 0.71123 0.01802 0.0
C1084 C 0.82619 0.70584 0.00972 0.0
C1085 C 0.88659 0.71932 0.01153 0.0
C1086 C 0.9181 0.72504 0.01978 0.0
C1087 C 0.93117 0.69932 0.02853 0.0
C1088 C 0.96063 0.70516 0.03643 0.0
C1089 C 0.97741 0.73652 0.03556 0.0
C1090 C 0.96484 0.76205 0.02674 0.0
C1091 C 0.93534 0.75636 0.01885 0.0
H1092 H 0.00021 0.741 0.04168 0.0
H1093 H 0.71584 0.67617 0.96539 0.0
H1094 H 0.26082 0.89903 0.43851 0.0
H1095 H 0.24473 0.90488 0.46324 0.0
H1096 H 0.28345 0.80388 0.47149 0.0
H1097 H 0.29924 0.79786 0.44685 0.0
H1098 H 0.22308 0.81719 0.4858 0.0
H1099 H 0.33302 0.87145 0.47676 0.0
H1100 H 0.37053 0.91316 0.46507 0.0
H1101 H 0.30847 0.99527 0.48044 0.0
H1102 H 0.27033 0.95395 0.49207 0.0
H1103 H 0.29666 0.79957 0.55183 0.0
H1104 H 0.28041 0.80492 0.52725 0.0
H1105 H 0.24486 0.90738 0.53484 0.0
H1106 H 0.26132 0.9021 0.55959 0.0
H1107 H 0.28885 0.90343 0.51257 0.0
H1108 H 0.18733 0.84871 0.52646 0.0
H1109 H 0.15093 0.80672 0.53851 0.0
H1110 H 0.19603 0.72589 0.51449 0.0
H1111 H 0.23312 0.76731 0.50243 0.0
C1112 C 0.26499 0.87776 0.44553 0.0
C1113 C 0.28101 0.84786 0.44077 0.0
C1114 C 0.25603 0.88123 0.45966 0.0
C1115 C 0.26299 0.85484 0.46919 0.0
C1116 C 0.27768 0.82448 0.4643 0.0
C1117 C 0.28687 0.82114 0.45025 0.0
C1118 C 0.25794 0.85944 0.48446 0.0
C1119 C 0.23733 0.83608 0.49169 0.0
C1120 C 0.27565 0.88485 0.49207 0.0
C1121 C 0.29859 0.90964 0.48511 0.0
C1122 C 0.32722 0.89839 0.47754 0.0
C1123 C 0.34862 0.92195 0.47095 0.0
C1124 C 0.34181 0.95684 0.47197 0.0
C1125 C 0.31365 0.96824 0.47962 0.0
C1126 C 0.29214 0.94477 0.48622 0.0
C1127 C 0.28483 0.82302 0.54831 0.0
C1128 C 0.27988 0.85027 0.55762 0.0
C1129 C 0.27536 0.826 0.53429 0.0
C1130 C 0.26101 0.8564 0.52925 0.0
C1131 C 0.25555 0.88358 0.53856 0.0
C1132 C 0.26471 0.88045 0.55269 0.0
C1133 C 0.25497 0.86032 0.514 0.0
C1134 C 0.27362 0.88521 0.50674 0.0
C1135 C 0.23541 0.83633 0.50638 0.0
C1136 C 0.21314 0.81117 0.51357 0.0
C1137 C 0.18969 0.82196 0.52381 0.0
C1138 C 0.16889 0.79825 0.53063 0.0
C1139 C 0.17119 0.76366 0.52727 0.0
C1140 C 0.19426 0.75271 0.51707 0.0
C1141 C 0.21515 0.77631 0.51022 0.0
H1142 H 0.15506 0.74534 0.53257 0.0
H1143 H 0.35842 0.97504 0.46686 0.0
H1144 H 0.70588 0.19444 0.05026 0.0
H1145 H 0.70207 0.21047 0.02567 0.0
H1146 H 0.60665 0.26174 0.03363 0.0
H1147 H 0.61003 0.24495 0.05837 0.0
H1148 H 0.6015 0.21954 0.01179 0.0
H1149 H 0.67647 0.30834 0.02416 0.0
H1150 H 0.72561 0.33623 0.03546 0.0
H1151 H 0.79434 0.27464 0.01127 0.0
H1152 H 0.74565 0.24597 0.99996 0.0
H1153 H 0.60911 0.24214 0.93719 0.0
H1154 H 0.60722 0.26017 0.96181 0.0
H1155 H 0.69755 0.20086 0.97028 0.0
H1156 H 0.69967 0.18304 0.94577 0.0
H1157 H 0.69795 0.26444 0.98367 0.0
H1158 H 0.62115 0.1676 0.97633 0.0
H1159 H 0.57172 0.13942 0.9653 0.0
H1160 H 0.50582 0.21878 0.98041 0.0
H1161 H 0.55501 0.24766 0.99137 0.0
C1162 C 0.68436 0.20963 0.04683 0.0
C1163 C 0.65847 0.21879 0.05627 0.0
C1164 C 0.68233 0.21904 0.03278 0.0
C1165 C 0.65434 0.2378 0.02782 0.0
C1166 C 0.62868 0.24761 0.03727 0.0
C1167 C 0.63079 0.23828 0.05142 0.0
C1168 C 0.65078 0.24383 0.01254 0.0
C1169 C 0.62215 0.23033 0.00567 0.0
C1170 C 0.67779 0.25769 0.00451 0.0
C1171 C 0.70732 0.27491 0.01123 0.0
C1172 C 0.70205 0.30057 0.0213 0.0
C1173 C 0.72984 0.31654 0.02771 0.0
C1174 C 0.76307 0.30719 0.02409 0.0
C1175 C 0.76858 0.28188 0.01405 0.0
C1176 C 0.74088 0.2658 0.00762 0.0
C1177 C 0.62901 0.23368 0.94424 0.0
C1178 C 0.65473 0.21142 0.93957 0.0
C1179 C 0.62776 0.2438 0.9583 0.0
C1180 C 0.65224 0.23182 0.96785 0.0
C1181 C 0.67855 0.21056 0.96306 0.0
C1182 C 0.6796 0.20023 0.94909 0.0
C1183 C 0.64943 0.2389 0.98305 0.0
C1184 C 0.67687 0.25478 0.98986 0.0
C1185 C 0.62127 0.22743 0.99102 0.0
C1186 C 0.59177 0.21 0.98449 0.0
C1187 C 0.59616 0.17917 0.97719 0.0
C1188 C 0.56819 0.16306 0.97098 0.0
C1189 C 0.53567 0.17737 0.97211 0.0
C1190 C 0.53104 0.20777 0.97951 0.0
C1191 C 0.55894 0.22402 0.98572 0.0
H1192 H 0.51405 0.16485 0.9673 0.0
H1193 H 0.78456 0.31959 0.02907 0.0
H1194 H 0.83393 0.618 0.5566 0.0
H1195 H 0.82287 0.61429 0.53149 0.0
H1196 H 0.72286 0.6575 0.53768 0.0
H1197 H 0.73389 0.66115 0.56304 0.0
H1198 H 0.73045 0.60348 0.51468 0.0
H1199 H 0.77441 0.71163 0.53021 0.0
H1200 H 0.81278 0.74839 0.54401 0.0
H1201 H 0.89956 0.70566 0.52293 0.0
H1202 H 0.86171 0.66817 0.50918 0.0
H1203 H 0.73936 0.66536 0.44216 0.0
H1204 H 0.72738 0.65921 0.46732 0.0
H1205 H 0.83149 0.62797 0.47431 0.0
H1206 H 0.84333 0.63351 0.44933 0.0
H1207 H 0.81175 0.6814 0.49092 0.0
H1208 H 0.76854 0.57121 0.47644 0.0
H1209 H 0.73098 0.53276 0.46305 0.0
H1210 H 0.64293 0.57904 0.48186 0.0
H1211 H 0.68 0.61814 0.49522 0.0
C1212 C 0.8092 0.62579 0.55266 0.0
C1213 C 0.78474 0.63986 0.56168 0.0
C1214 C 0.80288 0.62356 0.53835 0.0
C1215 C 0.77219 0.63589 0.53277 0.0
C1216 C 0.7466 0.64766 0.54184 0.0
C1217 C 0.75289 0.64971 0.55628 0.0
C1218 C 0.76975 0.6412 0.51747 0.0
C1219 C 0.74765 0.62098 0.50944 0.0
C1220 C 0.7924 0.66391 0.51071 0.0
C1221 C 0.81522 0.68694 0.51874 0.0
C1222 C 0.80169 0.70991 0.52859 0.0
C1223 C 0.82334 0.73089 0.5364 0.0
C1224 C 0.85859 0.72933 0.53437 0.0
C1225 C 0.87225 0.70683 0.5245 0.0
C1226 C 0.8507 0.68574 0.51668 0.0
C1227 C 0.75931 0.65618 0.44903 0.0
C1228 C 0.79213 0.64939 0.4438 0.0
C1229 C 0.75251 0.6529 0.46338 0.0
C1230 C 0.77855 0.64304 0.47264 0.0
C1231 C 0.81106 0.63563 0.46734 0.0
C1232 C 0.8178 0.63883 0.45308 0.0
C1233 C 0.77325 0.64287 0.488 0.0
C1234 C 0.79398 0.66431 0.49609 0.0
C1235 C 0.74927 0.62139 0.49471 0.0
C1236 C 0.72702 0.5979 0.48668 0.0
C1237 C 0.74116 0.57343 0.47761 0.0
C1238 C 0.71996 0.55147 0.47005 0.0
C1239 C 0.68458 0.55354 0.47156 0.0
C1240 C 0.67033 0.57752 0.48067 0.0
C1241 C 0.69143 0.59958 0.48824 0.0
H1242 H 0.66821 0.5365 0.46571 0.0
H1243 H 0.87532 0.74558 0.54043 0.0
H1244 H 0.34045 0.73826 0.05963 0.0
H1245 H 0.34739 0.72853 0.03431 0.0
H1246 H 0.38687 0.83065 0.02965 0.0
H1247 H 0.37919 0.8405 0.05469 0.0
H1248 H 0.33632 0.82059 0.01234 0.0
H1249 H 0.43712 0.75815 0.02588 0.0
H1250 H 0.46933 0.71354 0.03838 0.0
H1251 H 0.41012 0.63606 0.01793 0.0
H1252 H 0.37722 0.68027 0.00544 0.0
H1253 H 0.40651 0.83385 0.94649 0.0
H1254 H 0.4078 0.81996 0.97142 0.0
H1255 H 0.33781 0.73699 0.9644 0.0
H1256 H 0.33564 0.7514 0.93938 0.0
H1257 H 0.39866 0.72938 0.98698 0.0
H1258 H 0.29802 0.7943 0.97344 0.0
H1259 H 0.26934 0.84048 0.96044 0.0
H1260 H 0.33185 0.91473 0.98126 0.0
H1261 H 0.36132 0.86888 0.9942 0.0
C1262 C 0.3514 0.75818 0.05319 0.0
C1263 C 0.3594 0.79007 0.05902 0.0
C1264 C 0.35532 0.75266 0.03876 0.0
C1265 C 0.36758 0.77891 0.03007 0.0
C1266 C 0.37714 0.81011 0.03611 0.0
C1267 C 0.37285 0.81571 0.0504 0.0
C1268 C 0.36759 0.77565 0.01457 0.0
C1269 C 0.35011 0.80063 0.00687 0.0
C1270 C 0.38469 0.74909 0.00735 0.0
C1271 C 0.40442 0.72253 0.01486 0.0
C1272 C 0.43074 0.73162 0.02415 0.0
C1273 C 0.44917 0.7064 0.03121 0.0
C1274 C 0.4417 0.67199 0.02899 0.0
C1275 C 0.41583 0.66272 0.01966 0.0
C1276 C 0.3973 0.68785 0.01259 0.0
C1277 C 0.39208 0.81208 0.95019 0.0
C1278 C 0.37131 0.79345 0.94098 0.0
C1279 C 0.39302 0.80406 0.9644 0.0
C1280 C 0.37305 0.77737 0.96969 0.0
C1281 C 0.35384 0.7573 0.96043 0.0
C1282 C 0.35278 0.76544 0.94614 0.0
C1283 C 0.36816 0.77475 0.98501 0.0
C1284 C 0.38452 0.74884 0.99259 0.0
C1285 C 0.35019 0.80052 0.99223 0.0
C1286 C 0.33204 0.82816 0.98469 0.0
C1287 C 0.30582 0.82046 0.97516 0.0
C1288 C 0.2894 0.84657 0.96781 0.0
C1289 C 0.29882 0.88051 0.97 0.0
C1290 C 0.32461 0.88842 0.97957 0.0
C1291 C 0.34115 0.86239 0.98692 0.0
H1292 H 0.28608 0.90069 0.9643 0.0
H1293 H 0.456 0.6525 0.03446 0.0
H1294 H 0.24799 0.39051 0.56119 0.0
H1295 H 0.26682 0.39509 0.53674 0.0
H1296 H 0.21863 0.29881 0.52748 0.0
H1297 H 0.20033 0.29391 0.55182 0.0
H1298 H 0.27942 0.30578 0.51352 0.0
H1299 H 0.17661 0.3734 0.52265 0.0
H1300 H 0.14486 0.41942 0.5345 0.0
H1301 H 0.2176 0.4929 0.5197 0.0
H1302 H 0.25002 0.44718 0.5079 0.0
H1303 H 0.20132 0.29599 0.44847 0.0
H1304 H 0.22052 0.29972 0.47269 0.0
H1305 H 0.26475 0.39839 0.46436 0.0
H1306 H 0.24499 0.39492 0.43998 0.0
H1307 H 0.224 0.39959 0.4871 0.0
H1308 H 0.31701 0.3324 0.47244 0.0
H1309 H 0.34714 0.28604 0.46017 0.0
H1310 H 0.29375 0.21177 0.48488 0.0
H1311 H 0.26288 0.25764 0.49716 0.0
C1312 C 0.24239 0.36985 0.55404 0.0
C1313 C 0.22288 0.34172 0.55841 0.0
C1314 C 0.25291 0.37264 0.54005 0.0
C1315 C 0.24396 0.34737 0.53028 0.0
C1316 C 0.22596 0.31853 0.53484 0.0
C1317 C 0.21533 0.31585 0.54873 0.0
C1318 C 0.25001 0.35196 0.51505 0.0
C1319 C 0.26751 0.32636 0.50771 0.0
C1320 C 0.23548 0.37947 0.50753 0.0
C1321 C 0.21595 0.40688 0.51457 0.0
C1322 C 0.18596 0.39935 0.52202 0.0
C1323 C 0.16783 0.42537 0.52871 0.0
C1324 C 0.17927 0.45905 0.52789 0.0
C1325 C 0.20882 0.46679 0.52035 0.0
C1326 C 0.22708 0.44085 0.51366 0.0
C1327 C 0.21568 0.31822 0.45172 0.0
C1328 C 0.22198 0.34499 0.44231 0.0
C1329 C 0.22689 0.32023 0.46555 0.0
C1330 C 0.24454 0.34912 0.47031 0.0
C1331 C 0.25153 0.37569 0.46086 0.0
C1332 C 0.24049 0.37356 0.44692 0.0
C1333 C 0.25212 0.35254 0.48548 0.0
C1334 C 0.23709 0.37962 0.49285 0.0
C1335 C 0.26894 0.32637 0.49301 0.0
C1336 C 0.28753 0.29854 0.48571 0.0
C1337 C 0.31152 0.30619 0.47521 0.0
C1338 C 0.32876 0.27998 0.46825 0.0
C1339 C 0.32235 0.24598 0.47174 0.0
C1340 C 0.29871 0.23812 0.4822 0.0
C1341 C 0.28138 0.26423 0.48919 0.0
H1342 H 0.33572 0.22573 0.46634 0.0
H1343 H 0.1652 0.47917 0.53307 0.0
H1344 H 0.10838 0.39813 0.15393 0.0
H1345 H 0.06548 0.44331 0.154 0.0
H1346 H 0.04627 0.42599 0.11009 0.0
H1347 H 0.08905 0.38071 0.10988 0.0
H1348 H 0.05839 0.50267 0.13966 0.0
H1349 H 0.95822 0.43353 0.10491 0.0
H1350 H 0.94024 0.37497 0.099 0.0
H1351 H 0.98075 0.33855 0.13801 0.0
H1352 H 0.99846 0.39694 0.14426 0.0
H1353 H 0.89552 0.58814 0.11325 0.0
H1354 H 0.93561 0.54034 0.11191 0.0
H1355 H 0.9498 0.5445 0.15666 0.0
H1356 H 0.90969 0.59191 0.15818 0.0
H1357 H 0.93952 0.4744 0.12602 0.0
H1358 H 0.03747 0.54167 0.1615 0.0
H1359 H 0.05365 0.60002 0.16853 0.0
H1360 H 0.01617 0.63895 0.12943 0.0
H1361 H 0.00031 0.58085 0.12206 0.0
C1362 C 0.09542 0.40422 0.14422 0.0
C1363 C 0.10205 0.38564 0.13192 0.0
C1364 C 0.07086 0.43002 0.1443 0.0
C1365 C 0.05229 0.43752 0.13212 0.0
C1366 C 0.05993 0.42016 0.11966 0.0
C1367 C 0.08461 0.39447 0.11955 0.0
C1368 C 0.0245 0.46307 0.13254 0.0
C1369 C 0.03235 0.49637 0.13681 0.0
C1370 C 0.99061 0.45491 0.12861 0.0
C1371 C 0.98016 0.4196 0.12494 0.0
C1372 C 0.96328 0.41304 0.11223 0.0
C1373 C 0.95312 0.37987 0.10883 0.0
C1374 C 0.95959 0.35303 0.11808 0.0
C1375 C 0.97602 0.35933 0.1308 0.0
C1376 C 0.98617 0.39246 0.13427 0.0
C1377 C 0.90667 0.57848 0.12285 0.0
C1378 C 0.89959 0.59405 0.13581 0.0
C1379 C 0.9295 0.55115 0.12205 0.0
C1380 C 0.9459 0.53931 0.13416 0.0
C1381 C 0.93757 0.55356 0.14719 0.0
C1382 C 0.91454 0.5806 0.14802 0.0
C1383 C 0.97354 0.51378 0.13315 0.0
C1384 C 0.96563 0.48058 0.12879 0.0
C1385 C 0.00735 0.52189 0.13709 0.0
C1386 C 0.01735 0.55692 0.14131 0.0
C1387 C 0.03281 0.56267 0.15438 0.0
C1388 C 0.04192 0.59571 0.15842 0.0
C1389 C 0.03583 0.6232 0.14945 0.0
C1390 C 0.02075 0.61768 0.13638 0.0
C1391 C 0.01165 0.5847 0.13228 0.0
H1392 H 0.04285 0.64876 0.1526 0.0
H1393 H 0.95171 0.32739 0.11542 0.0
H1394 H 0.3972 0.90261 0.65423 0.0
H1395 H 0.44683 0.94021 0.65426 0.0
H1396 H 0.43771 0.95291 0.60952 0.0
H1397 H 0.38863 0.91468 0.60932 0.0
H1398 H 0.50225 0.94627 0.61632 0.0
H1399 H 0.41109 0.02103 0.63246 0.0
H1400 H 0.36348 0.04043 0.64734 0.0
H1401 H 0.42482 0.02574 0.68412 0.0
H1402 H 0.47321 0.00736 0.66937 0.0
H1403 H 0.60167 0.09647 0.6088 0.0
H1404 H 0.55502 0.0551 0.60912 0.0
H1405 H 0.56783 0.04246 0.65372 0.0
H1406 H 0.61377 0.08428 0.65356 0.0
H1407 H 0.50279 0.04767 0.64739 0.0
H1408 H 0.5972 0.98122 0.62996 0.0
H1409 H 0.64504 0.96751 0.61411 0.0
H1410 H 0.57692 0.96783 0.57892 0.0
H1411 H 0.52866 0.98148 0.59453 0.0
C1412 C 0.40591 0.91315 0.64437 0.0
C1413 C 0.38881 0.90569 0.63178 0.0
C1414 C 0.43413 0.9349 0.64442 0.0
C1415 C 0.44558 0.94995 0.63193 0.0
C1416 C 0.42925 0.94171 0.6193 0.0
C1417 C 0.40117 0.9198 0.61921 0.0
C1418 C 0.47448 0.9744 0.63201 0.0
C1419 C 0.50222 0.96863 0.62302 0.0
C1420 C 0.47489 0.00319 0.64093 0.0
C1421 C 0.4455 0.01247 0.64986 0.0
C1422 C 0.41426 0.02165 0.64373 0.0
C1423 C 0.38722 0.03261 0.65214 0.0
C1424 C 0.39098 0.03397 0.66669 0.0
C1425 C 0.4219 0.02458 0.67286 0.0
C1426 C 0.44921 0.01413 0.66448 0.0
C1427 C 0.59435 0.08511 0.61869 0.0
C1428 C 0.61136 0.09382 0.63116 0.0
C1429 C 0.56792 0.0612 0.61884 0.0
C1430 C 0.55836 0.04524 0.63141 0.0
C1431 C 0.57485 0.05439 0.64389 0.0
C1432 C 0.60103 0.07845 0.64378 0.0
C1433 C 0.53053 0.01967 0.63167 0.0
C1434 C 0.50299 0.0252 0.64075 0.0
C1435 C 0.53034 0.9908 0.62277 0.0
C1436 C 0.55937 0.98264 0.61339 0.0
C1437 C 0.59247 0.97858 0.61883 0.0
C1438 C 0.61964 0.97078 0.6099 0.0
C1439 C 0.61405 0.967 0.59553 0.0
C1440 C 0.58123 0.97082 0.59006 0.0
C1441 C 0.55394 0.97847 0.59894 0.0
H1442 H 0.63514 0.96101 0.58864 0.0
H1443 H 0.37002 0.04249 0.67317 0.0
H1444 H 0.38442 0.92164 0.88001 0.0
H1445 H 0.42004 0.97269 0.87794 0.0
H1446 H 0.47581 0.92524 0.8441 0.0
H1447 H 0.43853 0.87572 0.84544 0.0
H1448 H 0.48029 0.98343 0.88273 0.0
H1449 H 0.51442 0.97887 0.823 0.0
H1450 H 0.48616 0.96516 0.80061 0.0
H1451 H 0.38838 0.9854 0.81906 0.0
H1452 H 0.41604 0.99968 0.8415 0.0
H1453 H 0.62574 0.08421 0.87545 0.0
H1454 H 0.58583 0.0363 0.87401 0.0
H1455 H 0.52382 0.09339 0.84486 0.0
H1456 H 0.56523 0.13977 0.84537 0.0
H1457 H 0.51799 0.03435 0.83777 0.0
H1458 H 0.50752 0.08687 0.88238 0.0
H1459 H 0.52657 0.10958 0.90517 0.0
H1460 H 0.55944 0.00961 0.91761 0.0
H1461 H 0.54099 0.98638 0.89482 0.0
C1462 C 0.40382 0.92263 0.87193 0.0
C1463 C 0.40852 0.89508 0.86276 0.0
C1464 C 0.42432 0.95165 0.8708 0.0
C1465 C 0.45049 0.95319 0.86074 0.0
C1466 C 0.45517 0.92541 0.85164 0.0
C1467 C 0.43395 0.89696 0.85245 0.0
C1468 C 0.47418 0.9828 0.86027 0.0
C1469 C 0.48825 0.99471 0.87288 0.0
C1470 C 0.48414 0.9983 0.8475 0.0
C1471 C 0.46733 0.99004 0.83397 0.0
C1472 C 0.4869 0.98055 0.82226 0.0
C1473 C 0.47098 0.97265 0.80957 0.0
C1474 C 0.43549 0.97431 0.80843 0.0
C1475 C 0.41585 0.984 0.81997 0.0
C1476 C 0.43164 0.99196 0.83269 0.0
C1477 C 0.60391 0.08604 0.86853 0.0
C1478 C 0.59842 0.11548 0.86051 0.0
C1479 C 0.58087 0.05891 0.86783 0.0
C1480 C 0.55108 0.06158 0.85968 0.0
C1481 C 0.54642 0.09061 0.85127 0.0
C1482 C 0.5701 0.11713 0.85155 0.0
C1483 C 0.52421 0.03482 0.86022 0.0
C1484 C 0.5097 0.02332 0.84762 0.0
C1485 C 0.51227 0.02118 0.87307 0.0
C1486 C 0.52314 0.03495 0.88684 0.0
C1487 C 0.51897 0.06977 0.88995 0.0
C1488 C 0.52966 0.08273 0.90287 0.0
C1489 C 0.54428 0.06106 0.91282 0.0
C1490 C 0.54815 0.02637 0.90989 0.0
C1491 C 0.53755 0.01328 0.89697 0.0
H1492 H 0.55255 0.07115 0.92281 0.0
H1493 H 0.42322 0.96815 0.79859 0.0
H1494 H 0.08977 0.39513 0.3485 0.0
H1495 H 0.04155 0.43449 0.34872 0.0
H1496 H 0.05384 0.44853 0.39325 0.0
H1497 H 0.10233 0.40939 0.39315 0.0
H1498 H 0.98038 0.43727 0.36229 0.0
H1499 H 0.04207 0.5339 0.40029 0.0
H1500 H 0.09938 0.55191 0.40799 0.0
H1501 H 0.14149 0.51969 0.36864 0.0
H1502 H 0.08439 0.50198 0.36063 0.0
H1503 H 0.89579 0.60125 0.39109 0.0
H1504 H 0.94227 0.5598 0.39153 0.0
H1505 H 0.93045 0.54332 0.34712 0.0
H1506 H 0.88373 0.58451 0.34657 0.0
H1507 H 0.00337 0.55537 0.37841 0.0
H1508 H 0.94233 0.45721 0.3406 0.0
H1509 H 0.88567 0.43679 0.33315 0.0
H1510 H 0.84229 0.47151 0.3719 0.0
H1511 H 0.89877 0.49168 0.37969 0.0
C1512 C 0.08195 0.40615 0.3584 0.0
C1513 C 0.10018 0.39938 0.37079 0.0
C1514 C 0.05435 0.42863 0.35849 0.0
C1515 C 0.04459 0.44488 0.37095 0.0
C1516 C 0.06139 0.43667 0.38348 0.0
C1517 C 0.08897 0.41412 0.38341 0.0
C1518 C 0.01798 0.47164 0.37065 0.0
C1519 C 0.98545 0.4632 0.36566 0.0
C1520 C 0.02458 0.50528 0.3753 0.0
C1521 C 0.059 0.51625 0.37994 0.0
C1522 C 0.06355 0.53076 0.39327 0.0
C1523 C 0.096 0.54092 0.39769 0.0
C1524 C 0.12408 0.53684 0.38883 0.0
C1525 C 0.11975 0.52271 0.37551 0.0
C1526 C 0.08735 0.51257 0.37103 0.0
C1527 C 0.90331 0.58915 0.38137 0.0
C1528 C 0.88586 0.59606 0.36881 0.0
C1529 C 0.92988 0.56545 0.38165 0.0
C1530 C 0.93934 0.54806 0.36942 0.0
C1531 C 0.92309 0.55604 0.35673 0.0
C1532 C 0.89658 0.57981 0.35642 0.0
C1533 C 0.96569 0.52104 0.37 0.0
C1534 C 0.99822 0.52944 0.37505 0.0
C1535 C 0.95909 0.48738 0.36536 0.0
C1536 C 0.92477 0.47625 0.36066 0.0
C1537 C 0.9207 0.46051 0.34753 0.0
C1538 C 0.88863 0.44894 0.34326 0.0
C1539 C 0.86044 0.45281 0.35206 0.0
C1540 C 0.86417 0.46855 0.3651 0.0
C1541 C 0.8962 0.48013 0.36943 0.0
H1542 H 0.83574 0.44346 0.34878 0.0
H1543 H 0.14918 0.54469 0.39227 0.0
H1544 H 0.90097 0.58672 0.88491 0.0
H1545 H 0.94205 0.54064 0.88203 0.0
H1546 H 0.95305 0.56587 0.83831 0.0
H1547 H 0.91179 0.61229 0.84104 0.0
H1548 H 0.95454 0.49355 0.84457 0.0
H1549 H 0.00849 0.59816 0.85838 0.0
H1550 H 0.01483 0.64995 0.8728 0.0
H1551 H 0.02911 0.58831 0.90951 0.0
H1552 H 0.02229 0.53613 0.89535 0.0
H1553 H 0.10772 0.39738 0.84121 0.0
H1554 H 0.06933 0.44616 0.83877 0.0
H1555 H 0.05484 0.44816 0.88357 0.0
H1556 H 0.0938 0.40026 0.88616 0.0
H1557 H 0.05786 0.51072 0.87381 0.0
H1558 H 0.99787 0.40708 0.86096 0.0
H1559 H 0.98935 0.35453 0.84719 0.0
H1560 H 0.98537 0.41338 0.80928 0.0
H1561 H 0.99421 0.46626 0.82283 0.0
C1562 C 0.9115 0.58213 0.8746 0.0
C1563 C 0.9035 0.60357 0.86325 0.0
C1564 C 0.93503 0.55579 0.87299 0.0
C1565 C 0.95099 0.55042 0.86003 0.0
C1566 C 0.94107 0.56985 0.8484 0.0
C1567 C 0.9175 0.59634 0.85 0.0
C1568 C 0.98018 0.52672 0.85911 0.0
C1569 C 0.97741 0.49749 0.85076 0.0
C1570 C 0.0098 0.53191 0.8673 0.0
C1571 C 0.01464 0.56324 0.87581 0.0
C1572 C 0.01278 0.59565 0.86954 0.0
C1573 C 0.01647 0.62508 0.87767 0.0
C1574 C 0.02231 0.62242 0.89207 0.0
C1575 C 0.02458 0.59033 0.89836 0.0
C1576 C 0.02083 0.56081 0.89028 0.0
C1577 C 0.09682 0.40858 0.85057 0.0
C1578 C 0.10357 0.39467 0.86387 0.0
C1579 C 0.07471 0.43632 0.84914 0.0
C1580 C 0.05864 0.4503 0.86096 0.0
C1581 C 0.06682 0.43768 0.87429 0.0
C1582 C 0.08912 0.41021 0.87575 0.0
C1583 C 0.03199 0.47689 0.85955 0.0
C1584 C 0.03525 0.50686 0.86746 0.0
C1585 C 0.00278 0.47224 0.851 0.0
C1586 C 0.99705 0.44054 0.84288 0.0
C1587 C 0.99536 0.40877 0.84968 0.0
C1588 C 0.99045 0.37894 0.84192 0.0
C1589 C 0.98692 0.38061 0.82737 0.0
C1590 C 0.98816 0.41212 0.82055 0.0
C1591 C 0.99309 0.44203 0.82827 0.0
H1592 H 0.98315 0.35749 0.82137 0.0
H1593 H 0.02513 0.64524 0.89834 0.0
H1594 H 0.59508 0.10668 0.3877 0.0
H1595 H 0.54703 0.0671 0.38763 0.0
H1596 H 0.56543 0.0448 0.34402 0.0
H1597 H 0.61312 0.08484 0.3439 0.0
H1598 H 0.49856 0.05059 0.34921 0.0
H1599 H 0.5932 0.98987 0.36972 0.0
H1600 H 0.64037 0.98044 0.38642 0.0
H1601 H 0.57021 0.98626 0.42083 0.0
H1602 H 0.52262 0.99575 0.40438 0.0
H1603 H 0.40152 0.89919 0.34529 0.0
H1604 H 0.44934 0.93907 0.3451 0.0
H1605 H 0.43219 0.96122 0.38881 0.0
H1606 H 0.38482 0.92084 0.38919 0.0
H1607 H 0.49861 0.95539 0.38346 0.0
H1608 H 0.40404 0.01671 0.36288 0.0
H1609 H 0.35705 0.02652 0.34613 0.0
H1610 H 0.42725 0.01936 0.31177 0.0
H1611 H 0.47469 0.00963 0.32828 0.0
C1612 C 0.58866 0.09368 0.37804 0.0
C1613 C 0.60799 0.09884 0.36582 0.0
C1614 C 0.56134 0.07089 0.37805 0.0
C1615 C 0.55312 0.05253 0.3659 0.0
C1616 C 0.57146 0.05863 0.35353 0.0
C1617 C 0.59865 0.0816 0.35348 0.0
C1618 C 0.52576 0.02653 0.36614 0.0
C1619 C 0.49877 0.02952 0.35658 0.0
C1620 C 0.52576 0.99944 0.37594 0.0
C1621 C 0.5544 0.99382 0.38583 0.0
C1622 C 0.58787 0.98937 0.38085 0.0
C1623 C 0.61467 0.98397 0.39027 0.0
C1624 C 0.60831 0.98294 0.40466 0.0
C1625 C 0.57511 0.98713 0.40968 0.0
C1626 C 0.5482 0.99242 0.40032 0.0
C1627 C 0.40815 0.91226 0.35491 0.0
C1628 C 0.38932 0.90687 0.36725 0.0
C1629 C 0.43532 0.93524 0.35475 0.0
C1630 C 0.44387 0.95359 0.36687 0.0
C1631 C 0.42592 0.94739 0.37933 0.0
C1632 C 0.39891 0.92422 0.37953 0.0
C1633 C 0.47135 0.97948 0.36655 0.0
C1634 C 0.49839 0.97645 0.37609 0.0
C1635 C 0.47141 0.00652 0.35673 0.0
C1636 C 0.44285 0.01213 0.34681 0.0
C1637 C 0.40941 0.01699 0.35175 0.0
C1638 C 0.38272 0.02259 0.34231 0.0
C1639 C 0.38914 0.02334 0.32791 0.0
C1640 C 0.4223 0.0187 0.32292 0.0
C1641 C 0.44912 0.01325 0.33232 0.0
H1642 H 0.36842 0.02764 0.32063 0.0
H1643 H 0.6291 0.97878 0.41192 0.0
H1644 H 0.41623 0.88533 0.10888 0.0
H1645 H 0.45513 0.93384 0.10761 0.0
H1646 H 0.43105 0.96024 0.15033 0.0
H1647 H 0.39215 0.91157 0.15178 0.0
H1648 H 0.43383 0.01659 0.13178 0.0
H1649 H 0.50087 0.91828 0.14456 0.0
H1650 H 0.5224 0.85963 0.14168 0.0
H1651 H 0.56512 0.88629 0.10175 0.0
H1652 H 0.54333 0.94501 0.10428 0.0
H1653 H 0.57819 0.11626 0.15111 0.0
H1654 H 0.53537 0.07107 0.1498 0.0
H1655 H 0.56055 0.05414 0.1064 0.0
H1656 H 0.60283 0.10015 0.10746 0.0
H1657 H 0.55679 0.99349 0.12389 0.0
H1658 H 0.49062 0.08935 0.11003 0.0
H1659 H 0.46312 0.14589 0.11013 0.0
H1660 H 0.41722 0.12383 0.14994 0.0
H1661 H 0.44453 0.06712 0.1501 0.0
C1662 C 0.41879 0.90167 0.11797 0.0
C1663 C 0.40121 0.89445 0.13048 0.0
C1664 C 0.4412 0.92927 0.11723 0.0
C1665 C 0.44626 0.95024 0.12894 0.0
C1666 C 0.42756 0.94417 0.14121 0.0
C1667 C 0.40537 0.91636 0.14201 0.0
C1668 C 0.47186 0.97789 0.12852 0.0
C1669 C 0.46079 0.01158 0.13027 0.0
C1670 C 0.50682 0.97121 0.12604 0.0
C1671 C 0.52012 0.93596 0.12454 0.0
C1672 C 0.51458 0.91157 0.13511 0.0
C1673 C 0.52688 0.87832 0.13355 0.0
C1674 C 0.54503 0.86921 0.12152 0.0
C1675 C 0.551 0.89337 0.11105 0.0
C1676 C 0.53869 0.92665 0.11254 0.0
C1677 C 0.57485 0.10278 0.1413 0.0
C1678 C 0.59393 0.11177 0.12938 0.0
C1679 C 0.55017 0.07719 0.14055 0.0
C1680 C 0.54463 0.05963 0.12797 0.0
C1681 C 0.56437 0.06765 0.11617 0.0
C1682 C 0.58857 0.0938 0.11682 0.0
C1683 C 0.51878 0.03225 0.12733 0.0
C1684 C 0.52984 0.99856 0.12542 0.0
C1685 C 0.48375 0.03894 0.12952 0.0
C1686 C 0.46992 0.07411 0.13014 0.0
C1687 C 0.47512 0.09674 0.11892 0.0
C1688 C 0.45925 0.12867 0.11885 0.0
C1689 C 0.43821 0.13831 0.12998 0.0
C1690 C 0.43334 0.11622 0.14128 0.0
C1691 C 0.449 0.08419 0.14136 0.0
H1692 H 0.42588 0.163 0.12989 0.0
H1693 H 0.55452 0.84346 0.12033 0.0
H1694 H 0.09998 0.40187 0.60725 0.0
H1695 H 0.05401 0.44411 0.60657 0.0
H1696 H 0.05424 0.449 0.6517 0.0
H1697 H 0.09993 0.40691 0.65254 0.0
H1698 H 0.98873 0.44623 0.61831 0.0
H1699 H 0.04798 0.53323 0.66092 0.0
H1700 H 0.10487 0.54799 0.67014 0.0
H1701 H 0.15017 0.52279 0.63053 0.0
H1702 H 0.09351 0.50825 0.62101 0.0
H1703 H 0.90234 0.59834 0.65519 0.0
H1704 H 0.94997 0.55842 0.65325 0.0
H1705 H 0.93791 0.55646 0.60835 0.0
H1706 H 0.89011 0.59607 0.61015 0.0
H1707 H 0.01106 0.55912 0.63996 0.0
H1708 H 0.95211 0.47361 0.59705 0.0
H1709 H 0.89599 0.45543 0.58808 0.0
H1710 H 0.85058 0.47657 0.62807 0.0
H1711 H 0.90651 0.49441 0.63735 0.0
C1712 C 0.08988 0.41151 0.61705 0.0
C1713 C 0.10385 0.40117 0.62995 0.0
C1714 C 0.06369 0.43568 0.61662 0.0
C1715 C 0.05131 0.4501 0.62907 0.0
C1716 C 0.06393 0.43857 0.64197 0.0
C1717 C 0.0899 0.41431 0.64242 0.0
C1718 C 0.02579 0.47785 0.62866 0.0
C1719 C 0.99373 0.47114 0.62282 0.0
C1720 C 0.03234 0.51008 0.63476 0.0
C1721 C 0.0665 0.51927 0.64031 0.0
C1722 C 0.07005 0.53095 0.65416 0.0
C1723 C 0.10226 0.53924 0.65944 0.0
C1724 C 0.13112 0.53611 0.65095 0.0
C1725 C 0.12781 0.52497 0.63712 0.0
C1726 C 0.09565 0.51664 0.63179 0.0
C1727 C 0.91008 0.58981 0.64488 0.0
C1728 C 0.89217 0.60018 0.63285 0.0
C1729 C 0.93731 0.56698 0.6438 0.0
C1730 C 0.94702 0.55402 0.63069 0.0
C1731 C 0.93038 0.56567 0.61859 0.0
C1732 C 0.90317 0.58849 0.61966 0.0
C1733 C 0.97373 0.5274 0.62975 0.0
C1734 C 0.00609 0.53434 0.63534 0.0
C1735 C 0.96747 0.49538 0.62338 0.0
C1736 C 0.93346 0.4857 0.61784 0.0
C1737 C 0.93014 0.47442 0.60392 0.0
C1738 C 0.89838 0.46413 0.59879 0.0
C1739 C 0.86977 0.46483 0.6075 0.0
C1740 C 0.87278 0.47609 0.62133 0.0
C1741 C 0.9045 0.48637 0.62653 0.0
H1742 H 0.84532 0.45647 0.60353 0.0
H1743 H 0.15603 0.54236 0.65509 0.0
H1744 H 0.57028 0.26551 0.15395 0.0
H1745 H 0.51058 0.28273 0.15455 0.0
H1746 H 0.5105 0.29366 0.10964 0.0
H1747 H 0.5703 0.27619 0.10883 0.0
H1748 H 0.46419 0.34112 0.12668 0.0
H1749 H 0.49705 0.22082 0.12025 0.0
H1750 H 0.5302 0.17114 0.12838 0.0
H1751 H 0.4767 0.17284 0.16761 0.0
H1752 H 0.44418 0.22335 0.15993 0.0
H1753 H 0.29102 0.3131 0.11161 0.0
H1754 H 0.35314 0.31234 0.11142 0.0
H1755 H 0.35317 0.25751 0.15065 0.0
H1756 H 0.29105 0.25475 0.14996 0.0
H1757 H 0.40113 0.23439 0.13722 0.0
H1758 H 0.36903 0.34906 0.1467 0.0
H1759 H 0.3396 0.40398 0.14321 0.0
H1760 H 0.3913 0.41754 0.10395 0.0
H1761 H 0.42072 0.36245 0.10712 0.0
C1762 C 0.55809 0.27279 0.14421 0.0
C1763 C 0.57488 0.26853 0.13129 0.0
C1764 C 0.5239 0.28269 0.14461 0.0
C1765 C 0.50608 0.28874 0.13212 0.0
C1766 C 0.52387 0.28891 0.11938 0.0
C1767 C 0.55806 0.27878 0.11895 0.0
C1768 C 0.46835 0.28812 0.13208 0.0
C1769 C 0.45022 0.31783 0.12884 0.0
C1770 C 0.45039 0.25788 0.13539 0.0
C1771 C 0.46847 0.22617 0.13958 0.0
C1772 C 0.4926 0.21084 0.13067 0.0
C1773 C 0.51142 0.18263 0.13522 0.0
C1774 C 0.50571 0.16902 0.14854 0.0
C1775 C 0.48119 0.18354 0.15733 0.0
C1776 C 0.46262 0.21199 0.15289 0.0
C1777 C 0.30423 0.3001 0.12 0.0
C1778 C 0.286 0.28409 0.13084 0.0
C1779 C 0.33989 0.30034 0.12006 0.0
C1780 C 0.35817 0.28579 0.13124 0.0
C1781 C 0.33991 0.26919 0.14193 0.0
C1782 C 0.30429 0.26799 0.14163 0.0
C1783 C 0.39619 0.28765 0.1318 0.0
C1784 C 0.41464 0.25794 0.13507 0.0
C1785 C 0.41437 0.31828 0.12903 0.0
C1786 C 0.39682 0.35147 0.12709 0.0
C1787 C 0.37395 0.36365 0.13728 0.0
C1788 C 0.35729 0.39482 0.13536 0.0
C1789 C 0.36351 0.41419 0.12335 0.0
C1790 C 0.38648 0.40248 0.11324 0.0
C1791 C 0.40317 0.3713 0.1151 0.0
H1792 H 0.35059 0.43832 0.12188 0.0
H1793 H 0.52001 0.14703 0.15203 0.0
H1794 H 0.74532 0.28501 0.64638 0.0
H1795 H 0.74448 0.34746 0.64722 0.0
H1796 H 0.67311 0.34948 0.61287 0.0
H1797 H 0.67265 0.2869 0.61241 0.0
H1798 H 0.73244 0.39729 0.61131 0.0
H1799 H 0.64023 0.36271 0.64169 0.0
H1800 H 0.61538 0.32923 0.66102 0.0
H1801 H 0.68594 0.37461 0.68992 0.0
H1802 H 0.71162 0.40794 0.6707 0.0
H1803 H 0.71249 0.57356 0.61688 0.0
H1804 H 0.69284 0.51442 0.61574 0.0
H1805 H 0.73799 0.49479 0.65617 0.0
H1806 H 0.75603 0.55402 0.6577 0.0
H1807 H 0.68571 0.4554 0.65335 0.0
H1808 H 0.78166 0.48525 0.62445 0.0
H1809 H 0.81036 0.51901 0.60613 0.0
H1810 H 0.74001 0.48105 0.5754 0.0
H1811 H 0.7101 0.44798 0.59365 0.0
C1812 C 0.7293 0.29878 0.63907 0.0
C1813 C 0.70887 0.28113 0.6294 0.0
C1814 C 0.72897 0.33438 0.63951 0.0
C1815 C 0.70859 0.35298 0.63016 0.0
C1816 C 0.68904 0.33552 0.62016 0.0
C1817 C 0.68894 0.29984 0.61986 0.0
C1818 C 0.70715 0.39064 0.63112 0.0
C1819 C 0.72167 0.41012 0.62036 0.0
C1820 C 0.69387 0.40714 0.64311 0.0
C1821 C 0.67802 0.38762 0.65473 0.0
C1822 C 0.65061 0.36537 0.65215 0.0
C1823 C 0.63636 0.34643 0.66308 0.0
C1824 C 0.64912 0.34973 0.67668 0.0
C1825 C 0.6761 0.37206 0.67938 0.0
C1826 C 0.69049 0.391 0.66847 0.0
C1827 C 0.71724 0.5569 0.62572 0.0
C1828 C 0.73632 0.56835 0.63727 0.0
C1829 C 0.7062 0.52302 0.62502 0.0
C1830 C 0.71501 0.4998 0.63565 0.0
C1831 C 0.73115 0.51205 0.64777 0.0
C1832 C 0.74149 0.54606 0.64862 0.0
C1833 C 0.71123 0.46238 0.63355 0.0
C1834 C 0.69597 0.44278 0.64416 0.0
C1835 C 0.72456 0.4457 0.62154 0.0
C1836 C 0.74338 0.46446 0.61045 0.0
C1837 C 0.77218 0.48425 0.6138 0.0
C1838 C 0.78858 0.50338 0.60344 0.0
C1839 C 0.77699 0.50222 0.58961 0.0
C1840 C 0.74893 0.48196 0.58612 0.0
C1841 C 0.73216 0.46311 0.59648 0.0
H1842 H 0.78978 0.51697 0.5816 0.0
H1843 H 0.63806 0.33504 0.68514 0.0
H1844 H 0.43461 0.72265 0.11314 0.0
H1845 H 0.49341 0.70205 0.11374 0.0
H1846 H 0.50149 0.73235 0.15706 0.0
H1847 H 0.44265 0.7519 0.15669 0.0
H1848 H 0.54639 0.7399 0.11669 0.0
H1849 H 0.56398 0.69102 0.17385 0.0
H1850 H 0.53165 0.65868 0.19159 0.0
H1851 H 0.47251 0.61124 0.15914 0.0
H1852 H 0.50478 0.64293 0.14119 0.0
H1853 H 0.7181 0.75667 0.13689 0.0
H1854 H 0.65553 0.75843 0.13627 0.0
H1855 H 0.65249 0.6484 0.13747 0.0
H1856 H 0.71506 0.6469 0.13853 0.0
H1857 H 0.60457 0.6727 0.15366 0.0
H1858 H 0.64055 0.69353 0.10668 0.0
H1859 H 0.67289 0.72191 0.08785 0.0
H1860 H 0.62372 0.81693 0.09745 0.0
H1861 H 0.59156 0.78924 0.11652 0.0
C1862 C 0.44857 0.72402 0.12291 0.0
C1863 C 0.43389 0.73919 0.13483 0.0
C1864 C 0.48229 0.71239 0.12322 0.0
C1865 C 0.50204 0.71569 0.13543 0.0
C1866 C 0.48677 0.72897 0.14756 0.0
C1867 C 0.45299 0.74028 0.14731 0.0
C1868 C 0.53937 0.70883 0.1351 0.0
C1869 C 0.55901 0.72494 0.12472 0.0
C1870 C 0.556 0.68903 0.14546 0.0
C1871 C 0.53666 0.66958 0.15618 0.0
C1872 C 0.5442 0.67356 0.17049 0.0
C1873 C 0.52585 0.65538 0.18058 0.0
C1874 C 0.49999 0.63299 0.17649 0.0
C1875 C 0.49247 0.62868 0.1623 0.0
C1876 C 0.51075 0.64679 0.15216 0.0
C1877 C 0.70388 0.733 0.1371 0.0
C1878 C 0.72097 0.70168 0.13774 0.0
C1879 C 0.66825 0.73393 0.13667 0.0
C1880 C 0.64925 0.7035 0.1366 0.0
C1881 C 0.66653 0.67219 0.13749 0.0
C1882 C 0.70215 0.6713 0.13806 0.0
C1883 C 0.61144 0.70438 0.13544 0.0
C1884 C 0.59181 0.6873 0.14555 0.0
C1885 C 0.59472 0.72268 0.12465 0.0
C1886 C 0.61381 0.73935 0.1131 0.0
C1887 C 0.6368 0.72052 0.10484 0.0
C1888 C 0.65509 0.73649 0.09412 0.0
C1889 C 0.6504 0.77121 0.09147 0.0
C1890 C 0.62736 0.79004 0.09952 0.0
C1891 C 0.60907 0.77422 0.11028 0.0
H1892 H 0.66459 0.78352 0.08316 0.0
H1893 H 0.4858 0.61895 0.18432 0.0
H1894 H 0.26944 0.43527 0.61012 0.0
H1895 H 0.28574 0.49561 0.60996 0.0
H1896 H 0.26428 0.50236 0.65413 0.0
H1897 H 0.24878 0.4422 0.65456 0.0
H1898 H 0.22392 0.54612 0.63345 0.0
H1899 H 0.33786 0.51381 0.64807 0.0
H1900 H 0.39219 0.4827 0.64567 0.0
H1901 H 0.40953 0.53013 0.60575 0.0
H1902 H 0.35501 0.56115 0.60783 0.0
H1903 H 0.25171 0.71944 0.64807 0.0
H1904 H 0.2498 0.65727 0.64834 0.0
H1905 H 0.31388 0.65428 0.61157 0.0
H1906 H 0.31835 0.71643 0.6121 0.0
H1907 H 0.33366 0.60718 0.62743 0.0
H1908 H 0.22303 0.63886 0.61133 0.0
H1909 H 0.16712 0.66766 0.61115 0.0
H1910 H 0.14102 0.61968 0.65014 0.0
H1911 H 0.19709 0.59118 0.65069 0.0
C1912 C 0.26928 0.44926 0.6199 0.0
C1913 C 0.25739 0.43391 0.63231 0.0
C1914 C 0.27855 0.48374 0.61977 0.0
C1915 C 0.27586 0.50334 0.63201 0.0
C1916 C 0.26644 0.48756 0.64459 0.0
C1917 C 0.2577 0.45307 0.64479 0.0
C1918 C 0.27827 0.54092 0.63138 0.0
C1919 C 0.24791 0.55964 0.63232 0.0
C1920 C 0.30943 0.55815 0.62928 0.0
C1921 C 0.34215 0.53947 0.62803 0.0
C1922 C 0.35306 0.51731 0.63871 0.0
C1923 C 0.38394 0.49977 0.63743 0.0
C1924 C 0.40425 0.50435 0.62554 0.0
C1925 C 0.39375 0.52656 0.61494 0.0
C1926 C 0.36288 0.54414 0.61617 0.0
C1927 C 0.26572 0.70549 0.64015 0.0
C1928 C 0.28517 0.72283 0.63007 0.0
C1929 C 0.26419 0.6699 0.64017 0.0
C1930 C 0.2811 0.65086 0.6298 0.0
C1931 C 0.30045 0.66824 0.61967 0.0
C1932 C 0.30265 0.70383 0.61986 0.0
C1933 C 0.27916 0.6129 0.6297 0.0
C1934 C 0.30953 0.59395 0.62854 0.0
C1935 C 0.2478 0.5953 0.63124 0.0
C1936 C 0.21437 0.61307 0.6311 0.0
C1937 C 0.20551 0.63472 0.61993 0.0
C1938 C 0.17377 0.65097 0.61976 0.0
C1939 C 0.15056 0.64556 0.63064 0.0
C1940 C 0.15904 0.6239 0.64173 0.0
C1941 C 0.19079 0.60769 0.64198 0.0
H1942 H 0.12597 0.65809 0.63047 0.0
H1943 H 0.42815 0.49076 0.62457 0.0
H1944 H 0.06549 0.2342 0.89142 0.0
H1945 H 0.00636 0.21494 0.89214 0.0
H1946 H 0.00116 0.2201 0.84705 0.0
H1947 H 0.0604 0.23898 0.8462 0.0
H1948 H 0.95593 0.2552 0.88398 0.0
H1949 H 0.93677 0.16856 0.83525 0.0
H1950 H 0.96797 0.12411 0.82222 0.0
H1951 H 0.02502 0.09907 0.85921 0.0
H1952 H 0.99385 0.14303 0.87252 0.0
H1953 H 0.78683 0.262 0.85881 0.0
H1954 H 0.8494 0.26048 0.85958 0.0
H1955 H 0.84572 0.16006 0.87799 0.0
H1956 H 0.7831 0.16159 0.87719 0.0
H1957 H 0.89519 0.1663 0.85671 0.0
H1958 H 0.86017 0.22319 0.89877 0.0
H1959 H 0.82867 0.26599 0.91257 0.0
H1960 H 0.88089 0.34656 0.89095 0.0
H1961 H 0.91232 0.30421 0.87685 0.0
C1962 C 0.05212 0.23032 0.88161 0.0
C1963 C 0.06759 0.23859 0.86875 0.0
C1964 C 0.01825 0.2194 0.88206 0.0
C1965 C 0.99924 0.21634 0.86967 0.0
C1966 C 0.01539 0.22198 0.85675 0.0
C1967 C 0.04933 0.23284 0.85628 0.0
C1968 C 0.96171 0.21172 0.87035 0.0
C1969 C 0.94274 0.23556 0.87809 0.0
C1970 C 0.94444 0.18605 0.86272 0.0
C1971 C 0.96314 0.15932 0.85485 0.0
C1972 C 0.95587 0.15348 0.84062 0.0
C1973 C 0.97357 0.12838 0.83318 0.0
C1974 C 0.99853 0.10885 0.83987 0.0
C1975 C 0.00578 0.11431 0.85403 0.0
C1976 C 0.98814 0.13936 0.86152 0.0
C1977 C 0.79951 0.23962 0.86295 0.0
C1978 C 0.78046 0.212 0.86801 0.0
C1979 C 0.8351 0.23875 0.8634 0.0
C1980 C 0.8521 0.2102 0.8689 0.0
C1981 C 0.83304 0.18227 0.87369 0.0
C1982 C 0.79743 0.18326 0.87333 0.0
C1983 C 0.88974 0.21014 0.87009 0.0
C1984 C 0.90858 0.18564 0.86268 0.0
C1985 C 0.90703 0.23498 0.87813 0.0
C1986 C 0.8884 0.26052 0.88668 0.0
C1987 C 0.86476 0.25003 0.89689 0.0
C1988 C 0.84693 0.27421 0.90477 0.0
C1989 C 0.85272 0.30897 0.90262 0.0
C1990 C 0.87641 0.31962 0.8926 0.0
C1991 C 0.89425 0.29554 0.88466 0.0
H1992 H 0.8389 0.32765 0.90874 0.0
H1993 H 0.01221 0.08944 0.8341 0.0
H1994 H 0.83274 0.78488 0.35827 0.0
H1995 H 0.83162 0.84743 0.35821 0.0
H1996 H 0.73395 0.84572 0.37905 0.0
H1997 H 0.73478 0.78312 0.37878 0.0
H1998 H 0.73402 0.89201 0.3587 0.0
H1999 H 0.80652 0.86295 0.39712 0.0
H2000 H 0.85471 0.83443 0.40886 0.0
H2001 H 0.92525 0.88721 0.38215 0.0
H2002 H 0.87741 0.91568 0.3701 0.0
H2003 H 0.76501 0.0646 0.39064 0.0
H2004 H 0.78032 0.00423 0.39099 0.0
H2005 H 0.78098 0.00255 0.34584 0.0
H2006 H 0.76576 0.06282 0.34532 0.0
H2007 H 0.82917 0.95847 0.3795 0.0
H2008 H 0.72706 0.93514 0.33681 0.0
H2009 H 0.67679 0.96436 0.32691 0.0
H2010 H 0.66103 0.01684 0.36583 0.0
H2011 H 0.71043 0.98704 0.37613 0.0
C2012 C 0.81098 0.798 0.36272 0.0
C2013 C 0.78384 0.77947 0.36853 0.0
C2014 C 0.81045 0.83363 0.36279 0.0
C2015 C 0.78287 0.85127 0.36877 0.0
C2016 C 0.7555 0.83266 0.3744 0.0
C2017 C 0.75602 0.79702 0.3743 0.0
C2018 C 0.78259 0.88912 0.3692 0.0
C2019 C 0.75488 0.90648 0.36322 0.0
C2020 C 0.80952 0.90807 0.37532 0.0
C2021 C 0.83836 0.89121 0.38262 0.0
C2022 C 0.83229 0.86829 0.39368 0.0
C2023 C 0.85955 0.85216 0.4004 0.0
C2024 C 0.89302 0.85894 0.39624 0.0
C2025 C 0.89931 0.88195 0.38536 0.0
C2026 C 0.87213 0.89811 0.37858 0.0
C2027 C 0.76953 0.05176 0.38077 0.0
C2028 C 0.76336 0.06842 0.36795 0.0
C2029 C 0.77835 0.01722 0.381 0.0
C2030 C 0.78097 0.99886 0.36844 0.0
C2031 C 0.77858 0.01626 0.35565 0.0
C2032 C 0.76994 0.05079 0.35539 0.0
C2033 C 0.78108 0.96111 0.3687 0.0
C2034 C 0.80855 0.94387 0.37488 0.0
C2035 C 0.75354 0.94221 0.36305 0.0
C2036 C 0.7228 0.95917 0.35717 0.0
C2037 C 0.71271 0.95269 0.3433 0.0
C2038 C 0.68431 0.96931 0.33762 0.0
C2039 C 0.66577 0.99247 0.34574 0.0
C2040 C 0.67542 0.99887 0.35957 0.0
C2041 C 0.70359 0.98208 0.36533 0.0
H2042 H 0.6439 0.00543 0.34131 0.0
H2043 H 0.91409 0.84643 0.40145 0.0
H2044 H 0.95688 0.73245 0.89399 0.0
H2045 H 0.01554 0.75181 0.89379 0.0
H2046 H 0.99832 0.80299 0.85437 0.0
H2047 H 0.93958 0.78179 0.85412 0.0
H2048 H 0.0524 0.76876 0.85211 0.0
H2049 H 0.01551 0.84662 0.887 0.0
H2050 H 0.98659 0.86619 0.90848 0.0
H2051 H 0.05113 0.80173 0.93336 0.0
H2052 H 0.08015 0.7814 0.91202 0.0
H2053 H 0.22381 0.83135 0.85465 0.0
H2054 H 0.16131 0.83092 0.85544 0.0
H2055 H 0.16431 0.75643 0.88867 0.0
H2056 H 0.22687 0.7562 0.88766 0.0
H2057 H 0.11721 0.81107 0.89321 0.0
H2058 H 0.14915 0.73014 0.85693 0.0
H2059 H 0.17856 0.71369 0.83512 0.0
H2060 H 0.12246 0.78978 0.8124 0.0
H2061 H 0.09311 0.80705 0.83415 0.0
C2062 C 0.96519 0.74851 0.88541 0.0
C2063 C 0.94346 0.7555 0.87404 0.0
C2064 C 0.99891 0.7598 0.88535 0.0
C2065 C 0.01152 0.77929 0.87415 0.0
C2066 C 0.9893 0.78795 0.86314 0.0
C2067 C 0.95564 0.776 0.86304 0.0
C2068 C 0.04859 0.78742 0.87333 0.0
C2069 C 0.0663 0.77883 0.86102 0.0
C2070 C 0.06714 0.80004 0.88498 0.0
C2071 C 0.04989 0.81234 0.89788 0.0
C2072 C 0.02341 0.83645 0.89704 0.0
C2073 C 0.00701 0.8477 0.9092 0.0
C2074 C 0.01698 0.83517 0.92227 0.0
C2075 C 0.04343 0.81142 0.92322 0.0
C2076 C 0.05991 0.80006 0.9111 0.0
C2077 C 0.21106 0.81474 0.86205 0.0
C2078 C 0.23002 0.79364 0.87104 0.0
C2079 C 0.17546 0.81467 0.86255 0.0
C2080 C 0.15825 0.79358 0.87209 0.0
C2081 C 0.17716 0.77301 0.88128 0.0
C2082 C 0.21278 0.77287 0.8807 0.0
C2083 C 0.12051 0.79193 0.87215 0.0
C2084 C 0.1029 0.80164 0.88429 0.0
C2085 C 0.10196 0.78089 0.86029 0.0
C2086 C 0.11921 0.77012 0.84719 0.0
C2087 C 0.14328 0.74353 0.8473 0.0
C2088 C 0.15991 0.73404 0.83495 0.0
C2089 C 0.15245 0.75074 0.82239 0.0
C2090 C 0.12826 0.7769 0.82215 0.0
C2091 C 0.1116 0.78654 0.83448 0.0
H2092 H 0.16536 0.74337 0.81284 0.0
H2093 H 0.00424 0.8439 0.93167 0.0
H2094 H 0.25381 0.22098 0.3545 0.0
H2095 H 0.25593 0.15838 0.35366 0.0
H2096 H 0.17147 0.15329 0.38254 0.0
H2097 H 0.16939 0.21579 0.3834 0.0
H2098 H 0.26553 0.11058 0.37506 0.0
H2099 H 0.12024 0.08649 0.37122 0.0
H2100 H 0.06876 0.11546 0.36231 0.0
H2101 H 0.12953 0.17023 0.33242 0.0
H2102 H 0.18125 0.1412 0.34098 0.0
H2103 H 0.23421 0.94033 0.39025 0.0
H2104 H 0.21907 0.00057 0.38992 0.0
H2105 H 0.21378 0.99833 0.34484 0.0
H2106 H 0.22937 0.93795 0.34497 0.0
H2107 H 0.16506 0.04444 0.35876 0.0
H2108 H 0.28452 0.0153 0.35673 0.0
H2109 H 0.3357 0.98491 0.36507 0.0
H2110 H 0.32965 0.03761 0.4044 0.0
H2111 H 0.27759 0.0673 0.39651 0.0
C2112 C 0.23584 0.20636 0.36068 0.0
C2113 C 0.21147 0.22295 0.36902 0.0
C2114 C 0.23712 0.17075 0.36024 0.0
C2115 C 0.2137 0.15126 0.36796 0.0
C2116 C 0.18958 0.16788 0.37642 0.0
C2117 C 0.18853 0.20347 0.37697 0.0
C2118 C 0.21424 0.11354 0.36708 0.0
C2119 C 0.24358 0.09615 0.37151 0.0
C2120 C 0.1857 0.09476 0.36227 0.0
C2121 C 0.15466 0.11191 0.35686 0.0
C2122 C 0.12259 0.1046 0.36271 0.0
C2123 C 0.09336 0.12105 0.35772 0.0
C2124 C 0.09589 0.14475 0.34684 0.0
C2125 C 0.12762 0.15196 0.34088 0.0
C2126 C 0.1569 0.13555 0.34581 0.0
C2127 C 0.22874 0.95219 0.38025 0.0
C2128 C 0.2338 0.93442 0.36761 0.0
C2129 C 0.22012 0.98672 0.38011 0.0
C2130 C 0.21603 0.00392 0.36735 0.0
C2131 C 0.21705 0.98544 0.35479 0.0
C2132 C 0.22601 0.95091 0.3549 0.0
C2133 C 0.216 0.04163 0.36706 0.0
C2134 C 0.1869 0.05896 0.36237 0.0
C2135 C 0.24494 0.0604 0.37147 0.0
C2136 C 0.27685 0.04325 0.37608 0.0
C2137 C 0.29385 0.02015 0.36721 0.0
C2138 C 0.32302 0.00303 0.37186 0.0
C2139 C 0.33593 0.00936 0.38525 0.0
C2140 C 0.31962 0.03273 0.39403 0.0
C2141 C 0.2902 0.04963 0.3895 0.0
H2142 H 0.3586 0.99618 0.3888 0.0
H2143 H 0.07324 0.15748 0.34301 0.0
H2144 H 0.44817 0.73823 0.84503 0.0
H2145 H 0.5072 0.71847 0.84549 0.0
H2146 H 0.50458 0.71566 0.89063 0.0
H2147 H 0.44554 0.73561 0.89031 0.0
H2148 H 0.55684 0.75824 0.85775 0.0
H2149 H 0.565 0.65535 0.90128 0.0
H2150 H 0.53055 0.6079 0.91063 0.0
H2151 H 0.48041 0.59718 0.87089 0.0
H2152 H 0.51487 0.64421 0.86124 0.0
H2153 H 0.72235 0.74876 0.8874 0.0
H2154 H 0.65966 0.74844 0.88627 0.0
H2155 H 0.66299 0.66094 0.85892 0.0
H2156 H 0.72561 0.66166 0.85986 0.0
H2157 H 0.61067 0.6587 0.88103 0.0
H2158 H 0.65341 0.72945 0.84361 0.0
H2159 H 0.68844 0.77583 0.83378 0.0
H2160 H 0.63591 0.84859 0.85956 0.0
H2161 H 0.60098 0.80249 0.86974 0.0
C2162 C 0.45973 0.73248 0.85506 0.0
C2163 C 0.4422 0.73895 0.86765 0.0
C2164 C 0.49357 0.72133 0.85529 0.0
C2165 C 0.51032 0.71587 0.86808 0.0
C2166 C 0.49208 0.71959 0.88063 0.0
C2167 C 0.45831 0.73106 0.88043 0.0
C2168 C 0.54776 0.71059 0.86837 0.0
C2169 C 0.56854 0.73635 0.86278 0.0
C2170 C 0.56303 0.68205 0.87492 0.0
C2171 C 0.54232 0.65356 0.88059 0.0
C2172 C 0.54671 0.64279 0.89452 0.0
C2173 C 0.52717 0.61597 0.89988 0.0
C2174 C 0.50323 0.59961 0.89137 0.0
C2175 C 0.49885 0.60997 0.87748 0.0
C2176 C 0.51834 0.63676 0.87208 0.0
C2177 C 0.70953 0.72933 0.88129 0.0
C2178 C 0.72844 0.7054 0.87363 0.0
C2179 C 0.67391 0.72912 0.88065 0.0
C2180 C 0.65682 0.70468 0.87249 0.0
C2181 C 0.67574 0.67988 0.86531 0.0
C2182 C 0.71135 0.68042 0.86578 0.0
C2183 C 0.61941 0.70661 0.87063 0.0
C2184 C 0.59878 0.68042 0.87596 0.0
C2185 C 0.60414 0.73465 0.86377 0.0
C2186 C 0.62482 0.76247 0.85754 0.0
C2187 C 0.64953 0.75529 0.84727 0.0
C2188 C 0.66934 0.78154 0.84162 0.0
C2189 C 0.66446 0.81513 0.84606 0.0
C2190 C 0.63969 0.82255 0.85614 0.0
C2191 C 0.61988 0.79637 0.86185 0.0
H2192 H 0.67981 0.83543 0.84167 0.0
H2193 H 0.48812 0.57886 0.89553 0.0
H2194 H 0.24228 0.44685 0.34618 0.0
H2195 H 0.26245 0.5053 0.34637 0.0
H2196 H 0.29521 0.49359 0.38928 0.0
H2197 H 0.27332 0.43517 0.38938 0.0
H2198 H 0.26015 0.54748 0.38771 0.0
H2199 H 0.35264 0.50698 0.36045 0.0
H2200 H 0.38214 0.47569 0.34161 0.0
H2201 H 0.33081 0.53641 0.31068 0.0
H2202 H 0.30061 0.56777 0.32932 0.0
H2203 H 0.32614 0.71852 0.38545 0.0
H2204 H 0.32562 0.65608 0.38603 0.0
H2205 H 0.26141 0.65451 0.34937 0.0
H2206 H 0.26044 0.717 0.34914 0.0
H2207 H 0.32055 0.60747 0.34927 0.0
H2208 H 0.22382 0.64242 0.37784 0.0
H2209 H 0.19728 0.67418 0.39729 0.0
H2210 H 0.26252 0.62307 0.42669 0.0
H2211 H 0.28982 0.59137 0.40737 0.0
C2212 C 0.25454 0.4563 0.35558 0.0
C2213 C 0.25596 0.43631 0.3678 0.0
C2214 C 0.2663 0.48987 0.35565 0.0
C2215 C 0.28066 0.50402 0.36781 0.0
C2216 C 0.28412 0.48337 0.37978 0.0
C2217 C 0.27177 0.44989 0.3798 0.0
C2218 C 0.2883 0.54119 0.36844 0.0
C2219 C 0.27414 0.56033 0.37945 0.0
C2220 C 0.30605 0.55836 0.35758 0.0
C2221 C 0.32419 0.5396 0.34631 0.0
C2222 C 0.34745 0.51351 0.34963 0.0
C2223 C 0.36433 0.49579 0.33898 0.0
C2224 C 0.35831 0.50402 0.32496 0.0
C2225 C 0.33544 0.53006 0.32155 0.0
C2226 C 0.31848 0.54786 0.33216 0.0
C2227 C 0.31152 0.70489 0.37764 0.0
C2228 C 0.29301 0.72263 0.36734 0.0
C2229 C 0.31156 0.66927 0.3779 0.0
C2230 C 0.2935 0.65081 0.36774 0.0
C2231 C 0.27568 0.66839 0.35724 0.0
C2232 C 0.27519 0.70402 0.35711 0.0
C2233 C 0.29202 0.61315 0.36836 0.0
C2234 C 0.30722 0.59418 0.3576 0.0
C2235 C 0.27576 0.59604 0.37954 0.0
C2236 C 0.25913 0.61485 0.39115 0.0
C2237 C 0.23271 0.63819 0.38844 0.0
C2238 C 0.2175 0.65613 0.39944 0.0
C2239 C 0.22829 0.65073 0.41321 0.0
C2240 C 0.25424 0.62728 0.41602 0.0
C2241 C 0.26958 0.60931 0.40505 0.0
H2242 H 0.21648 0.66465 0.42172 0.0
H2243 H 0.3714 0.49026 0.31673 0.0
H2244 H 0.56599 0.26862 0.89156 0.0
H2245 H 0.50589 0.28487 0.89273 0.0
H2246 H 0.50161 0.28937 0.84765 0.0
H2247 H 0.56163 0.27328 0.84632 0.0
H2248 H 0.46044 0.33687 0.88164 0.0
H2249 H 0.43321 0.23831 0.83886 0.0
H2250 H 0.46012 0.18804 0.82792 0.0
H2251 H 0.51269 0.16591 0.86632 0.0
H2252 H 0.48568 0.21577 0.87754 0.0
H2253 H 0.28552 0.33665 0.85894 0.0
H2254 H 0.34814 0.33697 0.85968 0.0
H2255 H 0.34678 0.24597 0.88507 0.0
H2256 H 0.2841 0.24584 0.88443 0.0
H2257 H 0.39106 0.24238 0.86197 0.0
H2258 H 0.36531 0.31734 0.90032 0.0
H2259 H 0.33807 0.36689 0.9116 0.0
H2260 H 0.3906 0.43438 0.88352 0.0
H2261 H 0.41777 0.38516 0.87191 0.0
C2262 C 0.55263 0.27416 0.88189 0.0
C2263 C 0.56851 0.269 0.86883 0.0
C2264 C 0.51827 0.28352 0.8826 0.0
C2265 C 0.49926 0.28765 0.87028 0.0
C2266 C 0.51586 0.28594 0.85728 0.0
C2267 C 0.55025 0.27682 0.85655 0.0
C2268 C 0.46156 0.28856 0.87094 0.0
C2269 C 0.4452 0.31636 0.87728 0.0
C2270 C 0.44181 0.26143 0.86548 0.0
C2271 C 0.4577 0.23097 0.85897 0.0
C2272 C 0.4504 0.22263 0.84498 0.0
C2273 C 0.46567 0.19423 0.83873 0.0
C2274 C 0.48817 0.17389 0.84641 0.0
C2275 C 0.49535 0.18179 0.86038 0.0
C2276 C 0.48009 0.21013 0.86668 0.0
C2277 C 0.29873 0.31683 0.8647 0.0
C2278 C 0.28033 0.29116 0.87161 0.0
C2279 C 0.33434 0.31712 0.86517 0.0
C2280 C 0.352 0.29158 0.87248 0.0
C2281 C 0.33356 0.26591 0.87939 0.0
C2282 C 0.29792 0.26587 0.87906 0.0
C2283 C 0.38975 0.29094 0.87249 0.0
C2284 C 0.40618 0.26305 0.86627 0.0
C2285 C 0.40944 0.31789 0.87813 0.0
C2286 C 0.39333 0.34753 0.88516 0.0
C2287 C 0.37084 0.34272 0.89647 0.0
C2288 C 0.35545 0.37075 0.90294 0.0
C2289 C 0.36254 0.40376 0.89826 0.0
C2290 C 0.38511 0.4088 0.88712 0.0
C2291 C 0.40053 0.38084 0.8806 0.0
H2292 H 0.3506 0.42543 0.90328 0.0
H2293 H 0.49995 0.15198 0.84152 0.0
H2294 H 0.747 0.2865 0.38318 0.0
H2295 H 0.74408 0.34902 0.38361 0.0
H2296 H 0.66893 0.3471 0.35067 0.0
H2297 H 0.67036 0.28455 0.35071 0.0
H2298 H 0.73194 0.39557 0.34843 0.0
H2299 H 0.63603 0.36211 0.37767 0.0
H2300 H 0.6104 0.32951 0.39709 0.0
H2301 H 0.67879 0.37739 0.4262 0.0
H2302 H 0.70523 0.40985 0.4069 0.0
H2303 H 0.70963 0.57169 0.35113 0.0
H2304 H 0.69064 0.5123 0.35026 0.0
H2305 H 0.72923 0.49638 0.3921 0.0
H2306 H 0.7466 0.55571 0.39328 0.0
H2307 H 0.67873 0.456 0.38856 0.0
H2308 H 0.77818 0.48469 0.36189 0.0
H2309 H 0.81106 0.51575 0.34396 0.0
H2310 H 0.74636 0.47511 0.31173 0.0
H2311 H 0.71254 0.44444 0.32953 0.0
C2312 C 0.72965 0.29945 0.37613 0.0
C2313 C 0.70873 0.28077 0.36698 0.0
C2314 C 0.72815 0.33505 0.37633 0.0
C2315 C 0.7062 0.35248 0.3672 0.0
C2316 C 0.68603 0.33398 0.35776 0.0
C2317 C 0.68702 0.29836 0.35776 0.0
C2318 C 0.70408 0.39007 0.3677 0.0
C2319 C 0.71972 0.40893 0.35703 0.0
C2320 C 0.68913 0.40716 0.37918 0.0
C2321 C 0.67279 0.38818 0.39082 0.0
C2322 C 0.64579 0.36548 0.38819 0.0
C2323 C 0.63109 0.34706 0.39918 0.0
C2324 C 0.64301 0.35132 0.41286 0.0
C2325 C 0.6696 0.37409 0.41559 0.0
C2326 C 0.68443 0.39253 0.40463 0.0
C2327 C 0.71297 0.55581 0.36031 0.0
C2328 C 0.73009 0.56833 0.37219 0.0
C2329 C 0.70234 0.52179 0.35977 0.0
C2330 C 0.70959 0.49952 0.37093 0.0
C2331 C 0.72358 0.51289 0.3833 0.0
C2332 C 0.73352 0.54701 0.38396 0.0
C2333 C 0.70663 0.46194 0.36924 0.0
C2334 C 0.69034 0.4429 0.37976 0.0
C2335 C 0.72196 0.44459 0.3578 0.0
C2336 C 0.74254 0.46262 0.34706 0.0
C2337 C 0.77076 0.48261 0.35099 0.0
C2338 C 0.78955 0.50019 0.34085 0.0
C2339 C 0.78074 0.49748 0.32672 0.0
C2340 C 0.75311 0.47722 0.32269 0.0
C2341 C 0.73409 0.45979 0.3328 0.0
H2342 H 0.79538 0.51102 0.31888 0.0
H2343 H 0.63161 0.33702 0.42136 0.0
H2344 H 0.92976 0.7679 0.1143 0.0
H2345 H 0.98841 0.78896 0.11304 0.0
H2346 H 0.00581 0.75568 0.15553 0.0
H2347 H 0.94707 0.73624 0.1571 0.0
H2348 H 0.04165 0.80959 0.15127 0.0
H2349 H 0.02352 0.70486 0.12549 0.0
H2350 H 0.99583 0.66926 0.10745 0.0
H2351 H 0.03101 0.73735 0.07533 0.0
H2352 H 0.05841 0.77366 0.09321 0.0
H2353 H 0.21598 0.76076 0.15107 0.0
H2354 H 0.15355 0.75973 0.15092 0.0
H2355 H 0.15292 0.81611 0.11215 0.0
H2356 H 0.21536 0.81854 0.11256 0.0
H2357 H 0.10869 0.75744 0.11273 0.0
H2358 H 0.13339 0.85791 0.13949 0.0
H2359 H 0.16188 0.89057 0.1582 0.0
H2360 H 0.11556 0.82648 0.18931 0.0
H2361 H 0.08723 0.79306 0.17076 0.0
C2362 C 0.94582 0.76591 0.1235 0.0
C2363 C 0.9338 0.74996 0.13574 0.0
C2364 C 0.97946 0.77772 0.12273 0.0
C2365 C 0.00194 0.77293 0.13404 0.0
C2366 C 0.98915 0.75947 0.14661 0.0
C2367 C 0.95541 0.74831 0.14749 0.0
C2368 C 0.03926 0.77898 0.13254 0.0
C2369 C 0.05625 0.79806 0.14287 0.0
C2370 C 0.05847 0.76439 0.12146 0.0
C2371 C 0.04269 0.74214 0.11069 0.0
C2372 C 0.02522 0.71229 0.11458 0.0
C2373 C 0.00958 0.692 0.10439 0.0
C2374 C 0.01161 0.70108 0.09026 0.0
C2375 C 0.02941 0.73039 0.08629 0.0
C2376 C 0.045 0.75083 0.09644 0.0
C2377 C 0.20255 0.77325 0.1426 0.0
C2378 C 0.22058 0.78974 0.13184 0.0
C2379 C 0.16692 0.77251 0.14249 0.0
C2380 C 0.14867 0.788 0.13155 0.0
C2381 C 0.16657 0.80394 0.12065 0.0
C2382 C 0.20223 0.80508 0.12086 0.0
C2383 C 0.11087 0.78744 0.13158 0.0
C2384 C 0.09391 0.76934 0.121 0.0
C2385 C 0.09178 0.80246 0.14253 0.0
C2386 C 0.1084 0.82281 0.15372 0.0
C2387 C 0.12948 0.85062 0.15031 0.0
C2388 C 0.14557 0.86929 0.16089 0.0
C2389 C 0.14059 0.86056 0.17493 0.0
C2390 C 0.11942 0.8332 0.17843 0.0
C2391 C 0.10331 0.8144 0.16788 0.0
H2392 H 0.15308 0.87504 0.18311 0.0
H2393 H 0.99945 0.68537 0.08239 0.0
H2394 H 0.25737 0.21462 0.6238 0.0
H2395 H 0.25678 0.15194 0.6244 0.0
H2396 H 0.15586 0.15396 0.64239 0.0
H2397 H 0.15653 0.21657 0.6418 0.0
H2398 H 0.24945 0.10697 0.64684 0.0
H2399 H 0.1116 0.08615 0.62738 0.0
H2400 H 0.06862 0.11533 0.61278 0.0
H2401 H 0.14819 0.16554 0.58977 0.0
H2402 H 0.19161 0.13627 0.60407 0.0
H2403 H 0.22329 0.93321 0.65432 0.0
H2404 H 0.20325 0.99217 0.65527 0.0
H2405 H 0.21225 0.99978 0.61036 0.0
H2406 H 0.23117 0.94073 0.60923 0.0
H2407 H 0.16236 0.04193 0.62014 0.0
H2408 H 0.28011 0.01404 0.63103 0.0
H2409 H 0.32186 0.98078 0.6447 0.0
H2410 H 0.28693 0.02826 0.6826 0.0
H2411 H 0.2441 0.06092 0.6692 0.0
C2412 C 0.23515 0.20153 0.62786 0.0
C2413 C 0.20697 0.22011 0.63271 0.0
C2414 C 0.23487 0.16588 0.62828 0.0
C2415 C 0.20622 0.14833 0.63339 0.0
C2416 C 0.17812 0.16699 0.63832 0.0
C2417 C 0.17853 0.20262 0.63801 0.0
C2418 C 0.20555 0.11051 0.63334 0.0
C2419 C 0.23031 0.09279 0.64106 0.0
C2420 C 0.18068 0.09198 0.62574 0.0
C2421 C 0.15481 0.10932 0.61692 0.0
C2422 C 0.11991 0.10333 0.61917 0.0
C2423 C 0.09547 0.11989 0.61095 0.0
C2424 C 0.10567 0.14237 0.60039 0.0
C2425 C 0.14032 0.14823 0.59799 0.0
C2426 C 0.16485 0.13169 0.60616 0.0
C2427 C 0.21983 0.94699 0.64459 0.0
C2428 C 0.22974 0.93249 0.63173 0.0
C2429 C 0.2084 0.98075 0.64516 0.0
C2430 C 0.2073 0.00065 0.63293 0.0
C2431 C 0.21323 0.98501 0.61995 0.0
C2432 C 0.22423 0.95117 0.61934 0.0
C2433 C 0.20599 0.03844 0.63376 0.0
C2434 C 0.1811 0.05617 0.62611 0.0
C2435 C 0.23106 0.05704 0.64125 0.0
C2436 C 0.25867 0.03964 0.64914 0.0
C2437 C 0.2813 0.01734 0.64228 0.0
C2438 C 0.30495 0.99839 0.64999 0.0
C2439 C 0.30685 0.00222 0.66452 0.0
C2440 C 0.28529 0.02521 0.67135 0.0
C2441 C 0.26125 0.04387 0.66371 0.0
H2442 H 0.3252 0.98753 0.67047 0.0
H2443 H 0.08671 0.15519 0.59405 0.0
H2444 H 0.78581 0.24449 0.14655 0.0
H2445 H 0.84807 0.2465 0.1471 0.0
H2446 H 0.85218 0.17828 0.11164 0.0
H2447 H 0.78986 0.17453 0.11169 0.0
H2448 H 0.89766 0.15938 0.12906 0.0
H2449 H 0.86953 0.26699 0.10921 0.0
H2450 H 0.84261 0.32345 0.10662 0.0
H2451 H 0.88833 0.35639 0.14518 0.0
H2452 H 0.91516 0.29996 0.14811 0.0
H2453 H 0.07203 0.21549 0.11213 0.0
H2454 H 0.01139 0.20035 0.1119 0.0
H2455 H 0.00207 0.23289 0.15484 0.0
H2456 H 0.06249 0.24739 0.15533 0.0
H2457 H 0.96055 0.26873 0.13257 0.0
H2458 H 0.98936 0.15756 0.15117 0.0
H2459 H 0.01941 0.10234 0.15103 0.0
H2460 H 0.97457 0.07788 0.11124 0.0
H2461 H 0.94463 0.13322 0.11104 0.0
C2462 C 0.80005 0.22973 0.13895 0.0
C2463 C 0.78303 0.20931 0.1291 0.0
C2464 C 0.83565 0.23124 0.13914 0.0
C2465 C 0.85499 0.21296 0.12927 0.0
C2466 C 0.83793 0.1927 0.11935 0.0
C2467 C 0.80231 0.19082 0.11929 0.0
C2468 C 0.89295 0.21421 0.12958 0.0
C2469 C 0.91133 0.18337 0.12963 0.0
C2470 C 0.91106 0.24543 0.13043 0.0
C2471 C 0.89401 0.27905 0.12897 0.0
C2472 C 0.8735 0.28611 0.11723 0.0
C2473 C 0.85834 0.31816 0.11568 0.0
C2474 C 0.86365 0.34345 0.12576 0.0
C2475 C 0.88411 0.33673 0.13742 0.0
C2476 C 0.8993 0.30472 0.13903 0.0
C2477 C 0.05737 0.21836 0.12167 0.0
C2478 C 0.07211 0.23306 0.13369 0.0
C2479 C 0.02272 0.20973 0.1215 0.0
C2480 C 0.00234 0.21588 0.13331 0.0
C2481 C 0.01747 0.22807 0.14562 0.0
C2482 C 0.05212 0.23617 0.14588 0.0
C2483 C 0.96475 0.21407 0.13229 0.0
C2484 C 0.94661 0.24485 0.13201 0.0
C2485 C 0.94704 0.18294 0.13091 0.0
C2486 C 0.96508 0.14972 0.13101 0.0
C2487 C 0.98621 0.14058 0.14231 0.0
C2488 C 0.00314 0.10921 0.14232 0.0
C2489 C 0.99899 0.08666 0.13112 0.0
C2490 C 0.97781 0.0954 0.1199 0.0
C2491 C 0.96083 0.12675 0.11984 0.0
H2492 H 0.01211 0.06238 0.13114 0.0
H2493 H 0.852 0.36828 0.12451 0.0
H2494 H 0.77018 0.0647 0.60864 0.0
H2495 H 0.78506 0.00425 0.60925 0.0
H2496 H 0.78001 0.00539 0.65436 0.0
H2497 H 0.7651 0.06574 0.65392 0.0
H2498 H 0.83146 0.95905 0.62165 0.0
H2499 H 0.72553 0.93865 0.66333 0.0
H2500 H 0.67398 0.9682 0.67187 0.0
H2501 H 0.66241 0.01765 0.63203 0.0
H2502 H 0.7132 0.98761 0.62311 0.0
H2503 H 0.83558 0.78727 0.64445 0.0
H2504 H 0.83405 0.84971 0.64368 0.0
H2505 H 0.73544 0.84578 0.62364 0.0
H2506 H 0.73644 0.78331 0.62496 0.0
H2507 H 0.73522 0.89402 0.64236 0.0
H2508 H 0.80916 0.86231 0.60498 0.0
H2509 H 0.85768 0.8332 0.59372 0.0
H2510 H 0.92753 0.88801 0.62004 0.0
H2511 H 0.87937 0.9171 0.63161 0.0
C2512 C 0.77336 0.05247 0.61873 0.0
C2513 C 0.76564 0.06997 0.63122 0.0
C2514 C 0.7819 0.01785 0.61904 0.0
C2515 C 0.78276 0.00023 0.63183 0.0
C2516 C 0.77891 0.01848 0.64437 0.0
C2517 C 0.7705 0.05308 0.64408 0.0
C2518 C 0.78281 0.96244 0.63197 0.0
C2519 C 0.8106 0.94477 0.62627 0.0
C2520 C 0.75489 0.9439 0.63751 0.0
C2521 C 0.72352 0.96121 0.64263 0.0
C2522 C 0.71186 0.95565 0.65636 0.0
C2523 C 0.68273 0.97245 0.66126 0.0
C2524 C 0.665 0.99486 0.65251 0.0
C2525 C 0.67623 0.00036 0.63881 0.0
C2526 C 0.70516 0.9834 0.63382 0.0
C2527 C 0.8135 0.79986 0.64 0.0
C2528 C 0.78619 0.78067 0.6347 0.0
C2529 C 0.81275 0.83547 0.63945 0.0
C2530 C 0.78486 0.85251 0.6334 0.0
C2531 C 0.75729 0.83326 0.62831 0.0
C2532 C 0.75794 0.79764 0.62897 0.0
C2533 C 0.78442 0.89037 0.6324 0.0
C2534 C 0.75633 0.90816 0.63787 0.0
C2535 C 0.81158 0.90894 0.62624 0.0
C2536 C 0.84063 0.89165 0.61925 0.0
C2537 C 0.83485 0.86798 0.60844 0.0
C2538 C 0.86229 0.85151 0.60199 0.0
C2539 C 0.89566 0.85869 0.60618 0.0
C2540 C 0.90166 0.88244 0.61681 0.0
C2541 C 0.87431 0.89895 0.62331 0.0
H2542 H 0.91687 0.84592 0.60117 0.0
H2543 H 0.64251 0.00791 0.65632 0.0
loop_
_geom_bond_atom_site_label_1
_geom_bond_atom_site_label_2
_geom_bond_distance
_geom_bond_site_symmetry_2
_ccdc_geom_bond_type
Co0 O3 1.970 . S
Co0 N17 1.989 . S
Co0 O25 1.967 . S
Co0 O32 1.920 . S
Co1 O4 1.966 . S
Co1 N10 2.022 . S
Co1 N18 1.993 . S
Co1 O26 1.941 . S
C2 O3 1.258 . S
C2 O4 1.263 . S
O3 Co0 1.970 . S
O3 C2 1.258 . S
O4 Co1 1.966 . S
O4 C2 1.263 . S
C5 O6 1.235 . S
C5 O32 1.289 . S
O6 C5 1.235 . S
C7 C9 1.400 . S
C7 N10 1.351 . S
C7 C12 1.501 . S
C8 C9 1.387 . S
C8 N11 1.341 . S
C9 C7 1.400 . S
C9 C8 1.387 . S
N10 Co1 2.022 . S
N10 C7 1.351 . S
N10 N11 1.365 . S
N11 C8 1.341 . S
N11 N10 1.365 . S
N11 H31 0.862 . S
C12 C7 1.501 . S
C12 H13 0.961 . S
C12 H14 0.961 . S
C12 H15 0.960 . S
H13 C12 0.961 . S
H14 C12 0.961 . S
H15 C12 0.960 . S
C16 N17 1.342 . S
C16 C20 1.401 . S
C16 C21 1.499 . S
N17 Co0 1.989 . S
N17 C16 1.342 . S
N17 N18 1.388 . S
N18 Co1 1.993 . S
N18 N17 1.388 . S
N18 C19 1.346 . S
C19 N18 1.346 . S
C19 C20 1.396 . S
C19 C29 1.510 . S
C20 C16 1.401 . S
C20 C19 1.396 . S
C21 C16 1.499 . S
C21 H22 0.959 . S
C21 H23 0.960 . S
C21 H24 0.961 . S
H22 C21 0.959 . S
H23 C21 0.960 . S
H24 C21 0.961 . S
O25 Co0 1.967 . S
O25 C33 1.258 . S
O26 Co1 1.941 . S
O26 C33 1.266 . S
H27 C29 0.959 . S
H28 C29 0.961 . S
C29 C19 1.510 . S
C29 H27 0.959 . S
C29 H28 0.961 . S
C29 H30 0.960 . S
H30 C29 0.960 . S
H31 N11 0.862 . S
O32 Co0 1.920 . S
O32 C5 1.289 . S
C33 O25 1.258 . S
C33 O26 1.266 . S
Co34 O37 1.970 . S
Co34 N51 1.989 . S
Co34 O59 1.967 . S
Co34 O66 1.920 . S
Co35 O38 1.966 . S
Co35 N44 2.022 . S
Co35 N52 1.993 . S
Co35 O60 1.941 . S
C36 O37 1.258 . S
C36 O38 1.263 . S
O37 Co34 1.970 . S
O37 C36 1.258 . S
O38 Co35 1.966 . S
O38 C36 1.263 . S
C39 O40 1.235 . S
C39 O66 1.289 . S
O40 C39 1.235 . S
C41 C43 1.400 . S
C41 N44 1.351 . S
C41 C46 1.501 . S
C42 C43 1.387 . S
C42 N45 1.341 . S
C43 C41 1.400 . S
C43 C42 1.387 . S
N44 Co35 2.022 . S
N44 C41 1.351 . S
N44 N45 1.365 . S
N45 C42 1.341 . S
N45 N44 1.365 . S
N45 H65 0.862 . S
C46 C41 1.501 . S
C46 H47 0.961 . S
C46 H48 0.961 . S
C46 H49 0.960 . S
H47 C46 0.961 . S
H48 C46 0.961 . S
H49 C46 0.960 . S
C50 N51 1.342 . S
C50 C54 1.401 . S
C50 C55 1.499 . S
N51 Co34 1.989 . S
N51 C50 1.342 . S
N51 N52 1.388 . S
N52 Co35 1.993 . S
N52 N51 1.388 . S
N52 C53 1.346 . S
C53 N52 1.346 . S
C53 C54 1.396 . S
C53 C63 1.510 . S
C54 C50 1.401 . S
C54 C53 1.396 . S
C55 C50 1.499 . S
C55 H56 0.959 . S
C55 H57 0.960 . S
C55 H58 0.961 . S
H56 C55 0.959 . S
H57 C55 0.960 . S
H58 C55 0.961 . S
O59 Co34 1.967 . S
O59 C67 1.258 . S
O60 Co35 1.941 . S
O60 C67 1.266 . S
H61 C63 0.959 . S
H62 C63 0.961 . S
C63 C53 1.510 . S
C63 H61 0.959 . S
C63 H62 0.961 . S
C63 H64 0.960 . S
H64 C63 0.960 . S
H65 N45 0.862 . S
O66 Co34 1.920 . S
O66 C39 1.289 . S
C67 O59 1.258 . S
C67 O60 1.266 . S
Co68 O71 1.970 . S
Co68 N85 1.989 . S
Co68 O93 1.967 . S
Co68 O100 1.920 . S
Co69 O72 1.966 . S
Co69 N78 2.022 . S
Co69 N86 1.993 . S
Co69 O94 1.941 . S
C70 O71 1.258 . S
C70 O72 1.263 . S
O71 Co68 1.970 . S
O71 C70 1.258 . S
O72 Co69 1.966 . S
O72 C70 1.263 . S
C73 O74 1.235 . S
C73 O100 1.289 . S
O74 C73 1.235 . S
C75 C77 1.400 . S
C75 N78 1.351 . S
C75 C80 1.501 . S
C76 C77 1.387 . S
C76 N79 1.341 . S
C77 C75 1.400 . S
C77 C76 1.387 . S
N78 Co69 2.022 . S
N78 C75 1.351 . S
N78 N79 1.365 . S
N79 C76 1.341 . S
N79 N78 1.365 . S
N79 H99 0.862 . S
C80 C75 1.501 . S
C80 H81 0.961 . S
C80 H82 0.961 . S
C80 H83 0.960 . S
H81 C80 0.961 . S
H82 C80 0.961 . S
H83 C80 0.960 . S
C84 N85 1.342 . S
C84 C88 1.401 . S
C84 C89 1.499 . S
N85 Co68 1.989 . S
N85 C84 1.342 . S
N85 N86 1.388 . S
N86 Co69 1.993 . S
N86 N85 1.388 . S
N86 C87 1.346 . S
C87 N86 1.346 . S
C87 C88 1.396 . S
C87 C97 1.510 . S
C88 C84 1.401 . S
C88 C87 1.396 . S
C89 C84 1.499 . S
C89 H90 0.959 . S
C89 H91 0.960 . S
C89 H92 0.961 . S
H90 C89 0.959 . S
H91 C89 0.960 . S
H92 C89 0.961 . S
O93 Co68 1.967 . S
O93 C101 1.258 . S
O94 Co69 1.941 . S
O94 C101 1.266 . S
H95 C97 0.959 . S
H96 C97 0.961 . S
C97 C87 1.510 . S
C97 H95 0.959 . S
C97 H96 0.961 . S
C97 H98 0.960 . S
H98 C97 0.960 . S
H99 N79 0.862 . S
O100 Co68 1.920 . S
O100 C73 1.289 . S
C101 O93 1.258 . S
C101 O94 1.266 . S
Co102 O105 1.970 . S
Co102 N119 1.989 . S
Co102 O127 1.967 . S
Co102 O134 1.920 . S
Co103 O106 1.966 . S
Co103 N112 2.022 . S
Co103 N120 1.993 . S
Co103 O128 1.941 . S
C104 O105 1.258 . S
C104 O106 1.263 . S
O105 Co102 1.970 . S
O105 C104 1.258 . S
O106 Co103 1.966 . S
O106 C104 1.263 . S
C107 O108 1.235 . S
C107 O134 1.289 . S
O108 C107 1.235 . S
C109 C111 1.400 . S
C109 N112 1.351 . S
C109 C114 1.501 . S
C110 C111 1.387 . S
C110 N113 1.341 . S
C111 C109 1.400 . S
C111 C110 1.387 . S
N112 Co103 2.022 . S
N112 C109 1.351 . S
N112 N113 1.365 . S
N113 C110 1.341 . S
N113 N112 1.365 . S
N113 H133 0.862 . S
C114 C109 1.501 . S
C114 H115 0.961 . S
C114 H116 0.961 . S
C114 H117 0.960 . S
H115 C114 0.961 . S
H116 C114 0.961 . S
H117 C114 0.960 . S
C118 N119 1.342 . S
C118 C122 1.401 . S
C118 C123 1.499 . S
N119 Co102 1.989 . S
N119 C118 1.342 . S
N119 N120 1.388 . S
N120 Co103 1.993 . S
N120 N119 1.388 . S
N120 C121 1.346 . S
C121 N120 1.346 . S
C121 C122 1.396 . S
C121 C131 1.510 . S
C122 C118 1.401 . S
C122 C121 1.396 . S
C123 C118 1.499 . S
C123 H124 0.959 . S
C123 H125 0.960 . S
C123 H126 0.961 . S
H124 C123 0.959 . S
H125 C123 0.960 . S
H126 C123 0.961 . S
O127 Co102 1.967 . S
O127 C135 1.258 . S
O128 Co103 1.941 . S
O128 C135 1.266 . S
H129 C131 0.959 . S
H130 C131 0.961 . S
C131 C121 1.510 . S
C131 H129 0.959 . S
C131 H130 0.961 . S
C131 H132 0.960 . S
H132 C131 0.960 . S
H133 N113 0.862 . S
O134 Co102 1.920 . S
O134 C107 1.289 . S
C135 O127 1.258 . S
C135 O128 1.266 . S
Co136 O139 1.970 . S
Co136 N153 1.989 . S
Co136 O161 1.967 . S
Co136 O168 1.920 . S
Co137 O140 1.966 . S
Co137 N146 2.022 . S
Co137 N154 1.993 . S
Co137 O162 1.941 . S
C138 O139 1.258 . S
C138 O140 1.263 . S
O139 Co136 1.970 . S
O139 C138 1.258 . S
O140 Co137 1.966 . S
O140 C138 1.263 . S
C141 O142 1.235 . S
C141 O168 1.289 . S
O142 C141 1.235 . S
C143 C145 1.400 . S
C143 N146 1.351 . S
C143 C148 1.501 . S
C144 C145 1.387 . S
C144 N147 1.341 . S
C145 C143 1.400 . S
C145 C144 1.387 . S
N146 Co137 2.022 . S
N146 C143 1.351 . S
N146 N147 1.365 . S
N147 C144 1.341 . S
N147 N146 1.365 . S
N147 H167 0.862 . S
C148 C143 1.501 . S
C148 H149 0.961 . S
C148 H150 0.961 . S
C148 H151 0.960 . S
H149 C148 0.961 . S
H150 C148 0.961 . S
H151 C148 0.960 . S
C152 N153 1.342 . S
C152 C156 1.401 . S
C152 C157 1.499 . S
N153 Co136 1.989 . S
N153 C152 1.342 . S
N153 N154 1.388 . S
N154 Co137 1.993 . S
N154 N153 1.388 . S
N154 C155 1.346 . S
C155 N154 1.346 . S
C155 C156 1.396 . S
C155 C165 1.510 . S
C156 C152 1.401 . S
C156 C155 1.396 . S
C157 C152 1.499 . S
C157 H158 0.959 . S
C157 H159 0.960 . S
C157 H160 0.961 . S
H158 C157 0.959 . S
H159 C157 0.960 . S
H160 C157 0.961 . S
O161 Co136 1.967 . S
O161 C169 1.258 . S
O162 Co137 1.941 . S
O162 C169 1.266 . S
H163 C165 0.959 . S
H164 C165 0.961 . S
C165 C155 1.510 . S
C165 H163 0.959 . S
C165 H164 0.961 . S
C165 H166 0.960 . S
H166 C165 0.960 . S
H167 N147 0.862 . S
O168 Co136 1.920 . S
O168 C141 1.289 . S
C169 O161 1.258 . S
C169 O162 1.266 . S
Co170 O173 1.970 . S
Co170 N187 1.989 . S
Co170 O195 1.967 . S
Co170 O202 1.920 . S
Co171 O174 1.966 . S
Co171 N180 2.022 . S
Co171 N188 1.993 . S
Co171 O196 1.941 . S
C172 O173 1.258 . S
C172 O174 1.263 . S
O173 Co170 1.970 . S
O173 C172 1.258 . S
O174 Co171 1.966 . S
O174 C172 1.263 . S
C175 O176 1.235 . S
C175 O202 1.289 . S
O176 C175 1.235 . S
C177 C179 1.400 . S
C177 N180 1.351 . S
C177 C182 1.501 . S
C178 C179 1.387 . S
C178 N181 1.341 . S
C179 C177 1.400 . S
C179 C178 1.387 . S
N180 Co171 2.022 . S
N180 C177 1.351 . S
N180 N181 1.365 . S
N181 C178 1.341 . S
N181 N180 1.365 . S
N181 H201 0.862 . S
C182 C177 1.501 . S
C182 H183 0.961 . S
C182 H184 0.961 . S
C182 H185 0.960 . S
H183 C182 0.961 . S
H184 C182 0.961 . S
H185 C182 0.960 . S
C186 N187 1.342 . S
C186 C190 1.401 . S
C186 C191 1.499 . S
N187 Co170 1.989 . S
N187 C186 1.342 . S
N187 N188 1.388 . S
N188 Co171 1.993 . S
N188 N187 1.388 . S
N188 C189 1.346 . S
C189 N188 1.346 . S
C189 C190 1.396 . S
C189 C199 1.510 . S
C190 C186 1.401 . S
C190 C189 1.396 . S
C191 C186 1.499 . S
C191 H192 0.959 . S
C191 H193 0.960 . S
C191 H194 0.961 . S
H192 C191 0.959 . S
H193 C191 0.960 . S
H194 C191 0.961 . S
O195 Co170 1.967 . S
O195 C203 1.258 . S
O196 Co171 1.941 . S
O196 C203 1.266 . S
H197 C199 0.959 . S
H198 C199 0.961 . S
C199 C189 1.510 . S
C199 H197 0.959 . S
C199 H198 0.961 . S
C199 H200 0.960 . S
H200 C199 0.960 . S
H201 N181 0.862 . S
O202 Co170 1.920 . S
O202 C175 1.289 . S
C203 O195 1.258 . S
C203 O196 1.266 . S
Co204 O207 1.970 . S
Co204 N221 1.989 . S
Co204 O229 1.967 . S
Co204 O236 1.920 . S
Co205 O208 1.966 . S
Co205 N214 2.022 . S
Co205 N222 1.993 . S
Co205 O230 1.941 . S
C206 O207 1.258 . S
C206 O208 1.263 . S
O207 Co204 1.970 . S
O207 C206 1.258 . S
O208 Co205 1.966 . S
O208 C206 1.263 . S
C209 O210 1.235 . S
C209 O236 1.289 . S
O210 C209 1.235 . S
C211 C213 1.400 . S
C211 N214 1.351 . S
C211 C216 1.501 . S
C212 C213 1.387 . S
C212 N215 1.341 . S
C213 C211 1.400 . S
C213 C212 1.387 . S
N214 Co205 2.022 . S
N214 C211 1.351 . S
N214 N215 1.365 . S
N215 C212 1.341 . S
N215 N214 1.365 . S
N215 H235 0.862 . S
C216 C211 1.501 . S
C216 H217 0.961 . S
C216 H218 0.961 . S
C216 H219 0.960 . S
H217 C216 0.961 . S
H218 C216 0.961 . S
H219 C216 0.960 . S
C220 N221 1.342 . S
C220 C224 1.401 . S
C220 C225 1.499 . S
N221 Co204 1.989 . S
N221 C220 1.342 . S
N221 N222 1.388 . S
N222 Co205 1.993 . S
N222 N221 1.388 . S
N222 C223 1.346 . S
C223 N222 1.346 . S
C223 C224 1.396 . S
C223 C233 1.510 . S
C224 C220 1.401 . S
C224 C223 1.396 . S
C225 C220 1.499 . S
C225 H226 0.959 . S
C225 H227 0.960 . S
C225 H228 0.961 . S
H226 C225 0.959 . S
H227 C225 0.960 . S
H228 C225 0.961 . S
O229 Co204 1.967 . S
O229 C237 1.258 . S
O230 Co205 1.941 . S
O230 C237 1.266 . S
H231 C233 0.959 . S
H232 C233 0.961 . S
C233 C223 1.510 . S
C233 H231 0.959 . S
C233 H232 0.961 . S
C233 H234 0.960 . S
H234 C233 0.960 . S
H235 N215 0.862 . S
O236 Co204 1.920 . S
O236 C209 1.289 . S
C237 O229 1.258 . S
C237 O230 1.266 . S
Co238 O241 1.970 . S
Co238 N255 1.989 . S
Co238 O263 1.967 . S
Co238 O270 1.920 . S
Co239 O242 1.966 . S
Co239 N248 2.022 . S
Co239 N256 1.993 . S
Co239 O264 1.941 . S
C240 O241 1.258 . S
C240 O242 1.263 . S
O241 Co238 1.970 . S
O241 C240 1.258 . S
O242 Co239 1.966 . S
O242 C240 1.263 . S
C243 O244 1.235 . S
C243 O270 1.289 . S
O244 C243 1.235 . S
C245 C247 1.400 . S
C245 N248 1.351 . S
C245 C250 1.501 . S
C246 C247 1.387 . S
C246 N249 1.341 . S
C247 C245 1.400 . S
C247 C246 1.387 . S
N248 Co239 2.022 . S
N248 C245 1.351 . S
N248 N249 1.365 . S
N249 C246 1.341 . S
N249 N248 1.365 . S
N249 H269 0.862 . S
C250 C245 1.501 . S
C250 H251 0.961 . S
C250 H252 0.961 . S
C250 H253 0.960 . S
H251 C250 0.961 . S
H252 C250 0.961 . S
H253 C250 0.960 . S
C254 N255 1.342 . S
C254 C258 1.401 . S
C254 C259 1.499 . S
N255 Co238 1.989 . S
N255 C254 1.342 . S
N255 N256 1.388 . S
N256 Co239 1.993 . S
N256 N255 1.388 . S
N256 C257 1.346 . S
C257 N256 1.346 . S
C257 C258 1.396 . S
C257 C267 1.510 . S
C258 C254 1.401 . S
C258 C257 1.396 . S
C259 C254 1.499 . S
C259 H260 0.959 . S
C259 H261 0.960 . S
C259 H262 0.961 . S
H260 C259 0.959 . S
H261 C259 0.960 . S
H262 C259 0.961 . S
O263 Co238 1.967 . S
O263 C271 1.258 . S
O264 Co239 1.941 . S
O264 C271 1.266 . S
H265 C267 0.959 . S
H266 C267 0.961 . S
C267 C257 1.510 . S
C267 H265 0.959 . S
C267 H266 0.961 . S
C267 H268 0.960 . S
H268 C267 0.960 . S
H269 N249 0.862 . S
O270 Co238 1.920 . S
O270 C243 1.289 . S
C271 O263 1.258 . S
C271 O264 1.266 . S
Co272 O275 1.970 . S
Co272 N289 1.989 . S
Co272 O297 1.967 . S
Co272 O304 1.920 . S
Co273 O276 1.966 . S
Co273 N282 2.022 . S
Co273 N290 1.993 . S
Co273 O298 1.941 . S
C274 O275 1.258 . S
C274 O276 1.263 . S
O275 Co272 1.970 . S
O275 C274 1.258 . S
O276 Co273 1.966 . S
O276 C274 1.263 . S
C277 O278 1.235 . S
C277 O304 1.289 . S
O278 C277 1.235 . S
C279 C281 1.400 . S
C279 N282 1.351 . S
C279 C284 1.501 . S
C280 C281 1.387 . S
C280 N283 1.341 . S
C281 C279 1.400 . S
C281 C280 1.387 . S
N282 Co273 2.022 . S
N282 C279 1.351 . S
N282 N283 1.365 . S
N283 C280 1.341 . S
N283 N282 1.365 . S
N283 H303 0.862 . S
C284 C279 1.501 . S
C284 H285 0.961 . S
C284 H286 0.961 . S
C284 H287 0.960 . S
H285 C284 0.961 . S
H286 C284 0.961 . S
H287 C284 0.960 . S
C288 N289 1.342 . S
C288 C292 1.401 . S
C288 C293 1.499 . S
N289 Co272 1.989 . S
N289 C288 1.342 . S
N289 N290 1.388 . S
N290 Co273 1.993 . S
N290 N289 1.388 . S
N290 C291 1.346 . S
C291 N290 1.346 . S
C291 C292 1.396 . S
C291 C301 1.510 . S
C292 C288 1.401 . S
C292 C291 1.396 . S
C293 C288 1.499 . S
C293 H294 0.959 . S
C293 H295 0.960 . S
C293 H296 0.961 . S
H294 C293 0.959 . S
H295 C293 0.960 . S
H296 C293 0.961 . S
O297 Co272 1.967 . S
O297 C305 1.258 . S
O298 Co273 1.941 . S
O298 C305 1.266 . S
H299 C301 0.959 . S
H300 C301 0.961 . S
C301 C291 1.510 . S
C301 H299 0.959 . S
C301 H300 0.961 . S
C301 H302 0.960 . S
H302 C301 0.960 . S
H303 N283 0.862 . S
O304 Co272 1.920 . S
O304 C277 1.289 . S
C305 O297 1.258 . S
C305 O298 1.266 . S
Co306 O309 1.970 . S
Co306 N323 1.989 . S
Co306 O331 1.967 . S
Co306 O338 1.920 . S
Co307 O310 1.966 . S
Co307 N316 2.022 . S
Co307 N324 1.993 . S
Co307 O332 1.941 . S
C308 O309 1.258 . S
C308 O310 1.263 . S
O309 Co306 1.970 . S
O309 C308 1.258 . S
O310 Co307 1.966 . S
O310 C308 1.263 . S
C311 O312 1.235 . S
C311 O338 1.289 . S
O312 C311 1.235 . S
C313 C315 1.400 . S
C313 N316 1.351 . S
C313 C318 1.501 . S
C314 C315 1.387 . S
C314 N317 1.341 . S
C315 C313 1.400 . S
C315 C314 1.387 . S
N316 Co307 2.022 . S
N316 C313 1.351 . S
N316 N317 1.365 . S
N317 C314 1.341 . S
N317 N316 1.365 . S
N317 H337 0.862 . S
C318 C313 1.501 . S
C318 H319 0.961 . S
C318 H320 0.961 . S
C318 H321 0.960 . S
H319 C318 0.961 . S
H320 C318 0.961 . S
H321 C318 0.960 . S
C322 N323 1.342 . S
C322 C326 1.401 . S
C322 C327 1.499 . S
N323 Co306 1.989 . S
N323 C322 1.342 . S
N323 N324 1.388 . S
N324 Co307 1.993 . S
N324 N323 1.388 . S
N324 C325 1.346 . S
C325 N324 1.346 . S
C325 C326 1.396 . S
C325 C335 1.510 . S
C326 C322 1.401 . S
C326 C325 1.396 . S
C327 C322 1.499 . S
C327 H328 0.959 . S
C327 H329 0.960 . S
C327 H330 0.961 . S
H328 C327 0.959 . S
H329 C327 0.960 . S
H330 C327 0.961 . S
O331 Co306 1.967 . S
O331 C339 1.258 . S
O332 Co307 1.941 . S
O332 C339 1.266 . S
H333 C335 0.959 . S
H334 C335 0.961 . S
C335 C325 1.510 . S
C335 H333 0.959 . S
C335 H334 0.961 . S
C335 H336 0.960 . S
H336 C335 0.960 . S
H337 N317 0.862 . S
O338 Co306 1.920 . S
O338 C311 1.289 . S
C339 O331 1.258 . S
C339 O332 1.266 . S
Co340 O343 1.970 . S
Co340 N357 1.989 . S
Co340 O365 1.967 . S
Co340 O372 1.920 . S
Co341 O344 1.966 . S
Co341 N350 2.022 . S
Co341 N358 1.993 . S
Co341 O366 1.941 . S
C342 O343 1.258 . S
C342 O344 1.263 . S
O343 Co340 1.970 . S
O343 C342 1.258 . S
O344 Co341 1.966 . S
O344 C342 1.263 . S
C345 O346 1.235 . S
C345 O372 1.289 . S
O346 C345 1.235 . S
C347 C349 1.400 . S
C347 N350 1.351 . S
C347 C352 1.501 . S
C348 C349 1.387 . S
C348 N351 1.341 . S
C349 C347 1.400 . S
C349 C348 1.387 . S
N350 Co341 2.022 . S
N350 C347 1.351 . S
N350 N351 1.365 . S
N351 C348 1.341 . S
N351 N350 1.365 . S
N351 H371 0.862 . S
C352 C347 1.501 . S
C352 H353 0.961 . S
C352 H354 0.961 . S
C352 H355 0.960 . S
H353 C352 0.961 . S
H354 C352 0.961 . S
H355 C352 0.960 . S
C356 N357 1.342 . S
C356 C360 1.401 . S
C356 C361 1.499 . S
N357 Co340 1.989 . S
N357 C356 1.342 . S
N357 N358 1.388 . S
N358 Co341 1.993 . S
N358 N357 1.388 . S
N358 C359 1.346 . S
C359 N358 1.346 . S
C359 C360 1.396 . S
C359 C369 1.510 . S
C360 C356 1.401 . S
C360 C359 1.396 . S
C361 C356 1.499 . S
C361 H362 0.959 . S
C361 H363 0.960 . S
C361 H364 0.961 . S
H362 C361 0.959 . S
H363 C361 0.960 . S
H364 C361 0.961 . S
O365 Co340 1.967 . S
O365 C373 1.258 . S
O366 Co341 1.941 . S
O366 C373 1.266 . S
H367 C369 0.959 . S
H368 C369 0.961 . S
C369 C359 1.510 . S
C369 H367 0.959 . S
C369 H368 0.961 . S
C369 H370 0.960 . S
H370 C369 0.960 . S
H371 N351 0.862 . S
O372 Co340 1.920 . S
O372 C345 1.289 . S
C373 O365 1.258 . S
C373 O366 1.266 . S
Co374 O377 1.970 . S
Co374 N391 1.989 . S
Co374 O399 1.967 . S
Co374 O406 1.920 . S
Co375 O378 1.966 . S
Co375 N384 2.022 . S
Co375 N392 1.993 . S
Co375 O400 1.941 . S
C376 O377 1.258 . S
C376 O378 1.263 . S
O377 Co374 1.970 . S
O377 C376 1.258 . S
O378 Co375 1.966 . S
O378 C376 1.263 . S
C379 O380 1.235 . S
C379 O406 1.289 . S
O380 C379 1.235 . S
C381 C383 1.400 . S
C381 N384 1.351 . S
C381 C386 1.501 . S
C382 C383 1.387 . S
C382 N385 1.341 . S
C383 C381 1.400 . S
C383 C382 1.387 . S
N384 Co375 2.022 . S
N384 C381 1.351 . S
N384 N385 1.365 . S
N385 C382 1.341 . S
N385 N384 1.365 . S
N385 H405 0.862 . S
C386 C381 1.501 . S
C386 H387 0.961 . S
C386 H388 0.961 . S
C386 H389 0.960 . S
H387 C386 0.961 . S
H388 C386 0.961 . S
H389 C386 0.960 . S
C390 N391 1.342 . S
C390 C394 1.401 . S
C390 C395 1.499 . S
N391 Co374 1.989 . S
N391 C390 1.342 . S
N391 N392 1.388 . S
N392 Co375 1.993 . S
N392 N391 1.388 . S
N392 C393 1.346 . S
C393 N392 1.346 . S
C393 C394 1.396 . S
C393 C403 1.510 . S
C394 C390 1.401 . S
C394 C393 1.396 . S
C395 C390 1.499 . S
C395 H396 0.959 . S
C395 H397 0.960 . S
C395 H398 0.961 . S
H396 C395 0.959 . S
H397 C395 0.960 . S
H398 C395 0.961 . S
O399 Co374 1.967 . S
O399 C407 1.258 . S
O400 Co375 1.941 . S
O400 C407 1.266 . S
H401 C403 0.959 . S
H402 C403 0.961 . S
C403 C393 1.510 . S
C403 H401 0.959 . S
C403 H402 0.961 . S
C403 H404 0.960 . S
H404 C403 0.960 . S
H405 N385 0.862 . S
O406 Co374 1.920 . S
O406 C379 1.289 . S
C407 O399 1.258 . S
C407 O400 1.266 . S
Co408 O411 1.970 . S
Co408 N425 1.989 . S
Co408 O433 1.967 . S
Co408 O440 1.920 . S
Co409 O412 1.966 . S
Co409 N418 2.022 . S
Co409 N426 1.993 . S
Co409 O434 1.941 . S
C410 O411 1.258 . S
C410 O412 1.263 . S
O411 Co408 1.970 . S
O411 C410 1.258 . S
O412 Co409 1.966 . S
O412 C410 1.263 . S
C413 O414 1.235 . S
C413 O440 1.289 . S
O414 C413 1.235 . S
C415 C417 1.400 . S
C415 N418 1.351 . S
C415 C420 1.501 . S
C416 C417 1.387 . S
C416 N419 1.341 . S
C417 C415 1.400 . S
C417 C416 1.387 . S
N418 Co409 2.022 . S
N418 C415 1.351 . S
N418 N419 1.365 . S
N419 C416 1.341 . S
N419 N418 1.365 . S
N419 H439 0.862 . S
C420 C415 1.501 . S
C420 H421 0.961 . S
C420 H422 0.961 . S
C420 H423 0.960 . S
H421 C420 0.961 . S
H422 C420 0.961 . S
H423 C420 0.960 . S
C424 N425 1.342 . S
C424 C428 1.401 . S
C424 C429 1.499 . S
N425 Co408 1.989 . S
N425 C424 1.342 . S
N425 N426 1.388 . S
N426 Co409 1.993 . S
N426 N425 1.388 . S
N426 C427 1.346 . S
C427 N426 1.346 . S
C427 C428 1.396 . S
C427 C437 1.510 . S
C428 C424 1.401 . S
C428 C427 1.396 . S
C429 C424 1.499 . S
C429 H430 0.959 . S
C429 H431 0.960 . S
C429 H432 0.961 . S
H430 C429 0.959 . S
H431 C429 0.960 . S
H432 C429 0.961 . S
O433 Co408 1.967 . S
O433 C441 1.258 . S
O434 Co409 1.941 . S
O434 C441 1.266 . S
H435 C437 0.959 . S
H436 C437 0.961 . S
C437 C427 1.510 . S
C437 H435 0.959 . S
C437 H436 0.961 . S
C437 H438 0.960 . S
H438 C437 0.960 . S
H439 N419 0.862 . S
O440 Co408 1.920 . S
O440 C413 1.289 . S
C441 O433 1.258 . S
C441 O434 1.266 . S
Co442 O445 1.970 . S
Co442 N459 1.989 . S
Co442 O467 1.967 . S
Co442 O474 1.920 . S
Co443 O446 1.966 . S
Co443 N452 2.022 . S
Co443 N460 1.993 . S
Co443 O468 1.941 . S
C444 O445 1.258 . S
C444 O446 1.263 . S
O445 Co442 1.970 . S
O445 C444 1.258 . S
O446 Co443 1.966 . S
O446 C444 1.263 . S
C447 O448 1.235 . S
C447 O474 1.289 . S
O448 C447 1.235 . S
C449 C451 1.400 . S
C449 N452 1.351 . S
C449 C454 1.501 . S
C450 C451 1.387 . S
C450 N453 1.341 . S
C451 C449 1.400 . S
C451 C450 1.387 . S
N452 Co443 2.022 . S
N452 C449 1.351 . S
N452 N453 1.365 . S
N453 C450 1.341 . S
N453 N452 1.365 . S
N453 H473 0.862 . S
C454 C449 1.501 . S
C454 H455 0.961 . S
C454 H456 0.961 . S
C454 H457 0.960 . S
H455 C454 0.961 . S
H456 C454 0.961 . S
H457 C454 0.960 . S
C458 N459 1.342 . S
C458 C462 1.401 . S
C458 C463 1.499 . S
N459 Co442 1.989 . S
N459 C458 1.342 . S
N459 N460 1.388 . S
N460 Co443 1.993 . S
N460 N459 1.388 . S
N460 C461 1.346 . S
C461 N460 1.346 . S
C461 C462 1.396 . S
C461 C471 1.510 . S
C462 C458 1.401 . S
C462 C461 1.396 . S
C463 C458 1.499 . S
C463 H464 0.959 . S
C463 H465 0.960 . S
C463 H466 0.961 . S
H464 C463 0.959 . S
H465 C463 0.960 . S
H466 C463 0.961 . S
O467 Co442 1.967 . S
O467 C475 1.258 . S
O468 Co443 1.941 . S
O468 C475 1.266 . S
H469 C471 0.959 . S
H470 C471 0.961 . S
C471 C461 1.510 . S
C471 H469 0.959 . S
C471 H470 0.961 . S
C471 H472 0.960 . S
H472 C471 0.960 . S
H473 N453 0.862 . S
O474 Co442 1.920 . S
O474 C447 1.289 . S
C475 O467 1.258 . S
C475 O468 1.266 . S
Co476 O479 1.970 . S
Co476 N493 1.989 . S
Co476 O501 1.967 . S
Co476 O508 1.920 . S
Co477 O480 1.966 . S
Co477 N486 2.022 . S
Co477 N494 1.993 . S
Co477 O502 1.941 . S
C478 O479 1.258 . S
C478 O480 1.263 . S
O479 Co476 1.970 . S
O479 C478 1.258 . S
O480 Co477 1.966 . S
O480 C478 1.263 . S
C481 O482 1.235 . S
C481 O508 1.289 . S
O482 C481 1.235 . S
C483 C485 1.400 . S
C483 N486 1.351 . S
C483 C488 1.501 . S
C484 C485 1.387 . S
C484 N487 1.341 . S
C485 C483 1.400 . S
C485 C484 1.387 . S
N486 Co477 2.022 . S
N486 C483 1.351 . S
N486 N487 1.365 . S
N487 C484 1.341 . S
N487 N486 1.365 . S
N487 H507 0.862 . S
C488 C483 1.501 . S
C488 H489 0.961 . S
C488 H490 0.961 . S
C488 H491 0.960 . S
H489 C488 0.961 . S
H490 C488 0.961 . S
H491 C488 0.960 . S
C492 N493 1.342 . S
C492 C496 1.401 . S
C492 C497 1.499 . S
N493 Co476 1.989 . S
N493 C492 1.342 . S
N493 N494 1.388 . S
N494 Co477 1.993 . S
N494 N493 1.388 . S
N494 C495 1.346 . S
C495 N494 1.346 . S
C495 C496 1.396 . S
C495 C505 1.510 . S
C496 C492 1.401 . S
C496 C495 1.396 . S
C497 C492 1.499 . S
C497 H498 0.959 . S
C497 H499 0.960 . S
C497 H500 0.961 . S
H498 C497 0.959 . S
H499 C497 0.960 . S
H500 C497 0.961 . S
O501 Co476 1.967 . S
O501 C509 1.258 . S
O502 Co477 1.941 . S
O502 C509 1.266 . S
H503 C505 0.959 . S
H504 C505 0.961 . S
C505 C495 1.510 . S
C505 H503 0.959 . S
C505 H504 0.961 . S
C505 H506 0.960 . S
H506 C505 0.960 . S
H507 N487 0.862 . S
O508 Co476 1.920 . S
O508 C481 1.289 . S
C509 O501 1.258 . S
C509 O502 1.266 . S
Co510 O513 1.970 . S
Co510 N527 1.989 . S
Co510 O535 1.967 . S
Co510 O542 1.920 . S
Co511 O514 1.966 . S
Co511 N520 2.022 . S
Co511 N528 1.993 . S
Co511 O536 1.941 . S
C512 O513 1.258 . S
C512 O514 1.263 . S
O513 Co510 1.970 . S
O513 C512 1.258 . S
O514 Co511 1.966 . S
O514 C512 1.263 . S
C515 O516 1.235 . S
C515 O542 1.289 . S
O516 C515 1.235 . S
C517 C519 1.400 . S
C517 N520 1.351 . S
C517 C522 1.501 . S
C518 C519 1.387 . S
C518 N521 1.341 . S
C519 C517 1.400 . S
C519 C518 1.387 . S
N520 Co511 2.022 . S
N520 C517 1.351 . S
N520 N521 1.365 . S
N521 C518 1.341 . S
N521 N520 1.365 . S
N521 H541 0.862 . S
C522 C517 1.501 . S
C522 H523 0.961 . S
C522 H524 0.961 . S
C522 H525 0.960 . S
H523 C522 0.961 . S
H524 C522 0.961 . S
H525 C522 0.960 . S
C526 N527 1.342 . S
C526 C530 1.401 . S
C526 C531 1.499 . S
N527 Co510 1.989 . S
N527 C526 1.342 . S
N527 N528 1.388 . S
N528 Co511 1.993 . S
N528 N527 1.388 . S
N528 C529 1.346 . S
C529 N528 1.346 . S
C529 C530 1.396 . S
C529 C539 1.510 . S
C530 C526 1.401 . S
C530 C529 1.396 . S
C531 C526 1.499 . S
C531 H532 0.959 . S
C531 H533 0.960 . S
C531 H534 0.961 . S
H532 C531 0.959 . S
H533 C531 0.960 . S
H534 C531 0.961 . S
O535 Co510 1.967 . S
O535 C543 1.258 . S
O536 Co511 1.941 . S
O536 C543 1.266 . S
H537 C539 0.959 . S
H538 C539 0.961 . S
C539 C529 1.510 . S
C539 H537 0.959 . S
C539 H538 0.961 . S
C539 H540 0.960 . S
H540 C539 0.960 . S
H541 N521 0.862 . S
O542 Co510 1.920 . S
O542 C515 1.289 . S
C543 O535 1.258 . S
C543 O536 1.266 . S
H544 C562 0.951 . S
H545 C564 0.951 . S
H546 C566 0.950 . S
H547 C567 0.950 . S
H548 C569 0.950 . S
H549 C572 0.950 . S
H550 C573 0.950 . S
H551 C575 0.950 . S
H552 C576 0.950 . S
H553 C577 0.951 . S
H554 C579 0.951 . S
H555 C581 0.950 . S
H556 C582 0.950 . S
H557 C584 0.950 . S
H558 C587 0.950 . S
H559 C588 0.950 . S
H560 C590 0.950 . S
H561 C591 0.950 . S
C562 H544 0.951 . S
C562 C563 1.366 . S
C562 C564 1.388 . S
C563 C562 1.366 . S
C563 C567 1.385 . S
C564 H545 0.951 . S
C564 C562 1.388 . S
C564 C565 1.366 . S
C565 C564 1.366 . S
C565 C566 1.414 . S
C565 C568 1.499 . S
C566 H546 0.950 . S
C566 C565 1.414 . S
C566 C567 1.374 . S
C567 H547 0.950 . S
C567 C563 1.385 . S
C567 C566 1.374 . S
C568 C565 1.499 . S
C568 C569 1.373 . S
C568 C570 1.389 . S
C569 H548 0.950 . S
C569 C568 1.373 . S
C569 C585 1.377 . S
C570 C568 1.389 . S
C570 C571 1.524 . S
C570 C584 1.377 . S
C571 C570 1.524 . S
C571 C572 1.397 . S
C571 C576 1.363 . S
C572 H549 0.950 . S
C572 C571 1.397 . S
C572 C573 1.334 . S
C573 H550 0.950 . S
C573 C572 1.334 . S
C573 C574 1.287 . S
C574 C573 1.287 . S
C574 C575 1.524 . S
C574 H593 0.913 . S
C575 H551 0.950 . S
C575 C574 1.524 . S
C575 C576 1.415 . S
C576 H552 0.950 . S
C576 C571 1.363 . S
C576 C575 1.415 . S
C577 H553 0.951 . S
C577 C578 1.366 . S
C577 C579 1.388 . S
C578 C577 1.366 . S
C578 C582 1.385 . S
C579 H554 0.951 . S
C579 C577 1.388 . S
C579 C580 1.366 . S
C580 C579 1.366 . S
C580 C581 1.414 . S
C580 C583 1.499 . S
C581 H555 0.950 . S
C581 C580 1.414 . S
C581 C582 1.374 . S
C582 H556 0.950 . S
C582 C578 1.385 . S
C582 C581 1.374 . S
C583 C580 1.499 . S
C583 C584 1.373 . S
C583 C585 1.389 . S
C584 H557 0.950 . S
C584 C570 1.377 . S
C584 C583 1.373 . S
C585 C569 1.377 . S
C585 C583 1.389 . S
C585 C586 1.524 . S
C586 C585 1.524 . S
C586 C587 1.397 . S
C586 C591 1.363 . S
C587 H558 0.950 . S
C587 C586 1.397 . S
C587 C588 1.334 . S
C588 H559 0.950 . S
C588 C587 1.334 . S
C588 C589 1.287 . S
C589 C588 1.287 . S
C589 C590 1.524 . S
C589 H592 0.999 . S
C590 H560 0.950 . S
C590 C589 1.524 . S
C590 C591 1.415 . S
C591 H561 0.950 . S
C591 C586 1.363 . S
C591 C590 1.415 . S
H592 C589 0.999 . S
H593 C574 0.913 . S
H594 C612 0.951 . S
H595 C614 0.951 . S
H596 C616 0.950 . S
H597 C617 0.950 . S
H598 C619 0.950 . S
H599 C622 0.950 . S
H600 C623 0.950 . S
H601 C625 0.950 . S
H602 C626 0.950 . S
H603 C627 0.951 . S
H604 C629 0.951 . S
H605 C631 0.950 . S
H606 C632 0.950 . S
H607 C634 0.950 . S
H608 C637 0.950 . S
H609 C638 0.950 . S
H610 C640 0.950 . S
H611 C641 0.950 . S
C612 H594 0.951 . S
C612 C613 1.366 . S
C612 C614 1.388 . S
C613 C612 1.366 . S
C613 C617 1.385 . S
C614 H595 0.951 . S
C614 C612 1.388 . S
C614 C615 1.366 . S
C615 C614 1.366 . S
C615 C616 1.414 . S
C615 C618 1.499 . S
C616 H596 0.950 . S
C616 C615 1.414 . S
C616 C617 1.374 . S
C617 H597 0.950 . S
C617 C613 1.385 . S
C617 C616 1.374 . S
C618 C615 1.499 . S
C618 C619 1.373 . S
C618 C620 1.389 . S
C619 H598 0.950 . S
C619 C618 1.373 . S
C619 C635 1.377 . S
C620 C618 1.389 . S
C620 C621 1.524 . S
C620 C634 1.377 . S
C621 C620 1.524 . S
C621 C622 1.397 . S
C621 C626 1.363 . S
C622 H599 0.950 . S
C622 C621 1.397 . S
C622 C623 1.334 . S
C623 H600 0.950 . S
C623 C622 1.334 . S
C623 C624 1.287 . S
C624 C623 1.287 . S
C624 C625 1.524 . S
C624 H643 0.913 . S
C625 H601 0.950 . S
C625 C624 1.524 . S
C625 C626 1.415 . S
C626 H602 0.950 . S
C626 C621 1.363 . S
C626 C625 1.415 . S
C627 H603 0.951 . S
C627 C628 1.366 . S
C627 C629 1.388 . S
C628 C627 1.366 . S
C628 C632 1.385 . S
C629 H604 0.951 . S
C629 C627 1.388 . S
C629 C630 1.366 . S
C630 C629 1.366 . S
C630 C631 1.414 . S
C630 C633 1.499 . S
C631 H605 0.950 . S
C631 C630 1.414 . S
C631 C632 1.374 . S
C632 H606 0.950 . S
C632 C628 1.385 . S
C632 C631 1.374 . S
C633 C630 1.499 . S
C633 C634 1.373 . S
C633 C635 1.389 . S
C634 H607 0.950 . S
C634 C620 1.377 . S
C634 C633 1.373 . S
C635 C619 1.377 . S
C635 C633 1.389 . S
C635 C636 1.524 . S
C636 C635 1.524 . S
C636 C637 1.397 . S
C636 C641 1.363 . S
C637 H608 0.950 . S
C637 C636 1.397 . S
C637 C638 1.334 . S
C638 H609 0.950 . S
C638 C637 1.334 . S
C638 C639 1.287 . S
C639 C638 1.287 . S
C639 C640 1.524 . S
C639 H642 0.999 . S
C640 H610 0.950 . S
C640 C639 1.524 . S
C640 C641 1.415 . S
C641 H611 0.950 . S
C641 C636 1.363 . S
C641 C640 1.415 . S
H642 C639 0.999 . S
H643 C624 0.913 . S
H644 C662 0.951 . S
H645 C664 0.951 . S
H646 C666 0.950 . S
H647 C667 0.950 . S
H648 C669 0.950 . S
H649 C672 0.950 . S
H650 C673 0.950 . S
H651 C675 0.950 . S
H652 C676 0.950 . S
H653 C677 0.951 . S
H654 C679 0.951 . S
H655 C681 0.950 . S
H656 C682 0.950 . S
H657 C684 0.950 . S
H658 C687 0.950 . S
H659 C688 0.950 . S
H660 C690 0.950 . S
H661 C691 0.950 . S
C662 H644 0.951 . S
C662 C663 1.366 . S
C662 C664 1.388 . S
C663 C662 1.366 . S
C663 C667 1.385 . S
C664 H645 0.951 . S
C664 C662 1.388 . S
C664 C665 1.366 . S
C665 C664 1.366 . S
C665 C666 1.414 . S
C665 C668 1.499 . S
C666 H646 0.950 . S
C666 C665 1.414 . S
C666 C667 1.374 . S
C667 H647 0.950 . S
C667 C663 1.385 . S
C667 C666 1.374 . S
C668 C665 1.499 . S
C668 C669 1.373 . S
C668 C670 1.389 . S
C669 H648 0.950 . S
C669 C668 1.373 . S
C669 C685 1.377 . S
C670 C668 1.389 . S
C670 C671 1.524 . S
C670 C684 1.377 . S
C671 C670 1.524 . S
C671 C672 1.397 . S
C671 C676 1.363 . S
C672 H649 0.950 . S
C672 C671 1.397 . S
C672 C673 1.334 . S
C673 H650 0.950 . S
C673 C672 1.334 . S
C673 C674 1.287 . S
C674 C673 1.287 . S
C674 C675 1.524 . S
C674 H693 0.913 . S
C675 H651 0.950 . S
C675 C674 1.524 . S
C675 C676 1.415 . S
C676 H652 0.950 . S
C676 C671 1.363 . S
C676 C675 1.415 . S
C677 H653 0.951 . S
C677 C678 1.366 . S
C677 C679 1.388 . S
C678 C677 1.366 . S
C678 C682 1.385 . S
C679 H654 0.951 . S
C679 C677 1.388 . S
C679 C680 1.366 . S
C680 C679 1.366 . S
C680 C681 1.414 . S
C680 C683 1.499 . S
C681 H655 0.950 . S
C681 C680 1.414 . S
C681 C682 1.374 . S
C682 H656 0.950 . S
C682 C678 1.385 . S
C682 C681 1.374 . S
C683 C680 1.499 . S
C683 C684 1.373 . S
C683 C685 1.389 . S
C684 H657 0.950 . S
C684 C670 1.377 . S
C684 C683 1.373 . S
C685 C669 1.377 . S
C685 C683 1.389 . S
C685 C686 1.524 . S
C686 C685 1.524 . S
C686 C687 1.397 . S
C686 C691 1.363 . S
C687 H658 0.950 . S
C687 C686 1.397 . S
C687 C688 1.334 . S
C688 H659 0.950 . S
C688 C687 1.334 . S
C688 C689 1.287 . S
C689 C688 1.287 . S
C689 C690 1.524 . S
C689 H692 0.999 . S
C690 H660 0.950 . S
C690 C689 1.524 . S
C690 C691 1.415 . S
C691 H661 0.950 . S
C691 C686 1.363 . S
C691 C690 1.415 . S
H692 C689 0.999 . S
H693 C674 0.913 . S
H694 C712 0.951 . S
H695 C714 0.951 . S
H696 C716 0.950 . S
H697 C717 0.950 . S
H698 C719 0.950 . S
H699 C722 0.950 . S
H700 C723 0.950 . S
H701 C725 0.950 . S
H702 C726 0.950 . S
H703 C727 0.951 . S
H704 C729 0.951 . S
H705 C731 0.950 . S
H706 C732 0.950 . S
H707 C734 0.950 . S
H708 C737 0.950 . S
H709 C738 0.950 . S
H710 C740 0.950 . S
H711 C741 0.950 . S
C712 H694 0.951 . S
C712 C713 1.366 . S
C712 C714 1.388 . S
C713 C712 1.366 . S
C713 C717 1.385 . S
C714 H695 0.951 . S
C714 C712 1.388 . S
C714 C715 1.366 . S
C715 C714 1.366 . S
C715 C716 1.414 . S
C715 C718 1.499 . S
C716 H696 0.950 . S
C716 C715 1.414 . S
C716 C717 1.374 . S
C717 H697 0.950 . S
C717 C713 1.385 . S
C717 C716 1.374 . S
C718 C715 1.499 . S
C718 C719 1.373 . S
C718 C720 1.389 . S
C719 H698 0.950 . S
C719 C718 1.373 . S
C719 C735 1.377 . S
C720 C718 1.389 . S
C720 C721 1.524 . S
C720 C734 1.377 . S
C721 C720 1.524 . S
C721 C722 1.397 . S
C721 C726 1.363 . S
C722 H699 0.950 . S
C722 C721 1.397 . S
C722 C723 1.334 . S
C723 H700 0.950 . S
C723 C722 1.334 . S
C723 C724 1.287 . S
C724 C723 1.287 . S
C724 C725 1.524 . S
C724 H743 0.913 . S
C725 H701 0.950 . S
C725 C724 1.524 . S
C725 C726 1.415 . S
C726 H702 0.950 . S
C726 C721 1.363 . S
C726 C725 1.415 . S
C727 H703 0.951 . S
C727 C728 1.366 . S
C727 C729 1.388 . S
C728 C727 1.366 . S
C728 C732 1.385 . S
C729 H704 0.951 . S
C729 C727 1.388 . S
C729 C730 1.366 . S
C730 C729 1.366 . S
C730 C731 1.414 . S
C730 C733 1.499 . S
C731 H705 0.950 . S
C731 C730 1.414 . S
C731 C732 1.374 . S
C732 H706 0.950 . S
C732 C728 1.385 . S
C732 C731 1.374 . S
C733 C730 1.499 . S
C733 C734 1.373 . S
C733 C735 1.389 . S
C734 H707 0.950 . S
C734 C720 1.377 . S
C734 C733 1.373 . S
C735 C719 1.377 . S
C735 C733 1.389 . S
C735 C736 1.524 . S
C736 C735 1.524 . S
C736 C737 1.397 . S
C736 C741 1.363 . S
C737 H708 0.950 . S
C737 C736 1.397 . S
C737 C738 1.334 . S
C738 H709 0.950 . S
C738 C737 1.334 . S
C738 C739 1.287 . S
C739 C738 1.287 . S
C739 C740 1.524 . S
C739 H742 0.999 . S
C740 H710 0.950 . S
C740 C739 1.524 . S
C740 C741 1.415 . S
C741 H711 0.950 . S
C741 C736 1.363 . S
C741 C740 1.415 . S
H742 C739 0.999 . S
H743 C724 0.913 . S
H744 C762 0.951 . S
H745 C764 0.951 . S
H746 C766 0.950 . S
H747 C767 0.950 . S
H748 C769 0.950 . S
H749 C772 0.950 . S
H750 C773 0.950 . S
H751 C775 0.950 . S
H752 C776 0.950 . S
H753 C777 0.951 . S
H754 C779 0.951 . S
H755 C781 0.950 . S
H756 C782 0.950 . S
H757 C784 0.950 . S
H758 C787 0.950 . S
H759 C788 0.950 . S
H760 C790 0.950 . S
H761 C791 0.950 . S
C762 H744 0.951 . S
C762 C763 1.366 . S
C762 C764 1.388 . S
C763 C762 1.366 . S
C763 C767 1.385 . S
C764 H745 0.951 . S
C764 C762 1.388 . S
C764 C765 1.366 . S
C765 C764 1.366 . S
C765 C766 1.414 . S
C765 C768 1.499 . S
C766 H746 0.950 . S
C766 C765 1.414 . S
C766 C767 1.374 . S
C767 H747 0.950 . S
C767 C763 1.385 . S
C767 C766 1.374 . S
C768 C765 1.499 . S
C768 C769 1.373 . S
C768 C770 1.389 . S
C769 H748 0.950 . S
C769 C768 1.373 . S
C769 C785 1.377 . S
C770 C768 1.389 . S
C770 C771 1.524 . S
C770 C784 1.377 . S
C771 C770 1.524 . S
C771 C772 1.397 . S
C771 C776 1.363 . S
C772 H749 0.950 . S
C772 C771 1.397 . S
C772 C773 1.334 . S
C773 H750 0.950 . S
C773 C772 1.334 . S
C773 C774 1.287 . S
C774 C773 1.287 . S
C774 C775 1.524 . S
C774 H793 0.913 . S
C775 H751 0.950 . S
C775 C774 1.524 . S
C775 C776 1.415 . S
C776 H752 0.950 . S
C776 C771 1.363 . S
C776 C775 1.415 . S
C777 H753 0.951 . S
C777 C778 1.366 . S
C777 C779 1.388 . S
C778 C777 1.366 . S
C778 C782 1.385 . S
C779 H754 0.951 . S
C779 C777 1.388 . S
C779 C780 1.366 . S
C780 C779 1.366 . S
C780 C781 1.414 . S
C780 C783 1.499 . S
C781 H755 0.950 . S
C781 C780 1.414 . S
C781 C782 1.374 . S
C782 H756 0.950 . S
C782 C778 1.385 . S
C782 C781 1.374 . S
C783 C780 1.499 . S
C783 C784 1.373 . S
C783 C785 1.389 . S
C784 H757 0.950 . S
C784 C770 1.377 . S
C784 C783 1.373 . S
C785 C769 1.377 . S
C785 C783 1.389 . S
C785 C786 1.524 . S
C786 C785 1.524 . S
C786 C787 1.397 . S
C786 C791 1.363 . S
C787 H758 0.950 . S
C787 C786 1.397 . S
C787 C788 1.334 . S
C788 H759 0.950 . S
C788 C787 1.334 . S
C788 C789 1.287 . S
C789 C788 1.287 . S
C789 C790 1.524 . S
C789 H792 0.999 . S
C790 H760 0.950 . S
C790 C789 1.524 . S
C790 C791 1.415 . S
C791 H761 0.950 . S
C791 C786 1.363 . S
C791 C790 1.415 . S
H792 C789 0.999 . S
H793 C774 0.913 . S
H794 C812 0.951 . S
H795 C814 0.951 . S
H796 C816 0.950 . S
H797 C817 0.950 . S
H798 C819 0.950 . S
H799 C822 0.950 . S
H800 C823 0.950 . S
H801 C825 0.950 . S
H802 C826 0.950 . S
H803 C827 0.951 . S
H804 C829 0.951 . S
H805 C831 0.950 . S
H806 C832 0.950 . S
H807 C834 0.950 . S
H808 C837 0.950 . S
H809 C838 0.950 . S
H810 C840 0.950 . S
H811 C841 0.950 . S
C812 H794 0.951 . S
C812 C813 1.366 . S
C812 C814 1.388 . S
C813 C812 1.366 . S
C813 C817 1.385 . S
C814 H795 0.951 . S
C814 C812 1.388 . S
C814 C815 1.366 . S
C815 C814 1.366 . S
C815 C816 1.414 . S
C815 C818 1.499 . S
C816 H796 0.950 . S
C816 C815 1.414 . S
C816 C817 1.374 . S
C817 H797 0.950 . S
C817 C813 1.385 . S
C817 C816 1.374 . S
C818 C815 1.499 . S
C818 C819 1.373 . S
C818 C820 1.389 . S
C819 H798 0.950 . S
C819 C818 1.373 . S
C819 C835 1.377 . S
C820 C818 1.389 . S
C820 C821 1.524 . S
C820 C834 1.377 . S
C821 C820 1.524 . S
C821 C822 1.397 . S
C821 C826 1.363 . S
C822 H799 0.950 . S
C822 C821 1.397 . S
C822 C823 1.334 . S
C823 H800 0.950 . S
C823 C822 1.334 . S
C823 C824 1.287 . S
C824 C823 1.287 . S
C824 C825 1.524 . S
C824 H843 0.913 . S
C825 H801 0.950 . S
C825 C824 1.524 . S
C825 C826 1.415 . S
C826 H802 0.950 . S
C826 C821 1.363 . S
C826 C825 1.415 . S
C827 H803 0.951 . S
C827 C828 1.366 . S
C827 C829 1.388 . S
C828 C827 1.366 . S
C828 C832 1.385 . S
C829 H804 0.951 . S
C829 C827 1.388 . S
C829 C830 1.366 . S
C830 C829 1.366 . S
C830 C831 1.414 . S
C830 C833 1.499 . S
C831 H805 0.950 . S
C831 C830 1.414 . S
C831 C832 1.374 . S
C832 H806 0.950 . S
C832 C828 1.385 . S
C832 C831 1.374 . S
C833 C830 1.499 . S
C833 C834 1.373 . S
C833 C835 1.389 . S
C834 H807 0.950 . S
C834 C820 1.377 . S
C834 C833 1.373 . S
C835 C819 1.377 . S
C835 C833 1.389 . S
C835 C836 1.524 . S
C836 C835 1.524 . S
C836 C837 1.397 . S
C836 C841 1.363 . S
C837 H808 0.950 . S
C837 C836 1.397 . S
C837 C838 1.334 . S
C838 H809 0.950 . S
C838 C837 1.334 . S
C838 C839 1.287 . S
C839 C838 1.287 . S
C839 C840 1.524 . S
C839 H842 0.999 . S
C840 H810 0.950 . S
C840 C839 1.524 . S
C840 C841 1.415 . S
C841 H811 0.950 . S
C841 C836 1.363 . S
C841 C840 1.415 . S
H842 C839 0.999 . S
H843 C824 0.913 . S
H844 C862 0.951 . S
H845 C864 0.951 . S
H846 C866 0.950 . S
H847 C867 0.950 . S
H848 C869 0.950 . S
H849 C872 0.950 . S
H850 C873 0.950 . S
H851 C875 0.950 . S
H852 C876 0.950 . S
H853 C877 0.951 . S
H854 C879 0.951 . S
H855 C881 0.950 . S
H856 C882 0.950 . S
H857 C884 0.950 . S
H858 C887 0.950 . S
H859 C888 0.950 . S
H860 C890 0.950 . S
H861 C891 0.950 . S
C862 H844 0.951 . S
C862 C863 1.366 . S
C862 C864 1.388 . S
C863 C862 1.366 . S
C863 C867 1.385 . S
C864 H845 0.951 . S
C864 C862 1.388 . S
C864 C865 1.366 . S
C865 C864 1.366 . S
C865 C866 1.414 . S
C865 C868 1.499 . S
C866 H846 0.950 . S
C866 C865 1.414 . S
C866 C867 1.374 . S
C867 H847 0.950 . S
C867 C863 1.385 . S
C867 C866 1.374 . S
C868 C865 1.499 . S
C868 C869 1.373 . S
C868 C870 1.389 . S
C869 H848 0.950 . S
C869 C868 1.373 . S
C869 C885 1.377 . S
C870 C868 1.389 . S
C870 C871 1.524 . S
C870 C884 1.377 . S
C871 C870 1.524 . S
C871 C872 1.397 . S
C871 C876 1.363 . S
C872 H849 0.950 . S
C872 C871 1.397 . S
C872 C873 1.334 . S
C873 H850 0.950 . S
C873 C872 1.334 . S
C873 C874 1.287 . S
C874 C873 1.287 . S
C874 C875 1.524 . S
C874 H893 0.913 . S
C875 H851 0.950 . S
C875 C874 1.524 . S
C875 C876 1.415 . S
C876 H852 0.950 . S
C876 C871 1.363 . S
C876 C875 1.415 . S
C877 H853 0.951 . S
C877 C878 1.366 . S
C877 C879 1.388 . S
C878 C877 1.366 . S
C878 C882 1.385 . S
C879 H854 0.951 . S
C879 C877 1.388 . S
C879 C880 1.366 . S
C880 C879 1.366 . S
C880 C881 1.414 . S
C880 C883 1.499 . S
C881 H855 0.950 . S
C881 C880 1.414 . S
C881 C882 1.374 . S
C882 H856 0.950 . S
C882 C878 1.385 . S
C882 C881 1.374 . S
C883 C880 1.499 . S
C883 C884 1.373 . S
C883 C885 1.389 . S
C884 H857 0.950 . S
C884 C870 1.377 . S
C884 C883 1.373 . S
C885 C869 1.377 . S
C885 C883 1.389 . S
C885 C886 1.524 . S
C886 C885 1.524 . S
C886 C887 1.397 . S
C886 C891 1.363 . S
C887 H858 0.950 . S
C887 C886 1.397 . S
C887 C888 1.334 . S
C888 H859 0.950 . S
C888 C887 1.334 . S
C888 C889 1.287 . S
C889 C888 1.287 . S
C889 C890 1.524 . S
C889 H892 0.999 . S
C890 H860 0.950 . S
C890 C889 1.524 . S
C890 C891 1.415 . S
C891 H861 0.950 . S
C891 C886 1.363 . S
C891 C890 1.415 . S
H892 C889 0.999 . S
H893 C874 0.913 . S
H894 C912 0.951 . S
H895 C914 0.951 . S
H896 C916 0.950 . S
H897 C917 0.950 . S
H898 C919 0.950 . S
H899 C922 0.950 . S
H900 C923 0.950 . S
H901 C925 0.950 . S
H902 C926 0.950 . S
H903 C927 0.951 . S
H904 C929 0.951 . S
H905 C931 0.950 . S
H906 C932 0.950 . S
H907 C934 0.950 . S
H908 C937 0.950 . S
H909 C938 0.950 . S
H910 C940 0.950 . S
H911 C941 0.950 . S
C912 H894 0.951 . S
C912 C913 1.366 . S
C912 C914 1.388 . S
C913 C912 1.366 . S
C913 C917 1.385 . S
C914 H895 0.951 . S
C914 C912 1.388 . S
C914 C915 1.366 . S
C915 C914 1.366 . S
C915 C916 1.414 . S
C915 C918 1.499 . S
C916 H896 0.950 . S
C916 C915 1.414 . S
C916 C917 1.374 . S
C917 H897 0.950 . S
C917 C913 1.385 . S
C917 C916 1.374 . S
C918 C915 1.499 . S
C918 C919 1.373 . S
C918 C920 1.389 . S
C919 H898 0.950 . S
C919 C918 1.373 . S
C919 C935 1.377 . S
C920 C918 1.389 . S
C920 C921 1.524 . S
C920 C934 1.377 . S
C921 C920 1.524 . S
C921 C922 1.397 . S
C921 C926 1.363 . S
C922 H899 0.950 . S
C922 C921 1.397 . S
C922 C923 1.334 . S
C923 H900 0.950 . S
C923 C922 1.334 . S
C923 C924 1.287 . S
C924 C923 1.287 . S
C924 C925 1.524 . S
C924 H943 0.913 . S
C925 H901 0.950 . S
C925 C924 1.524 . S
C925 C926 1.415 . S
C926 H902 0.950 . S
C926 C921 1.363 . S
C926 C925 1.415 . S
C927 H903 0.951 . S
C927 C928 1.366 . S
C927 C929 1.388 . S
C928 C927 1.366 . S
C928 C932 1.385 . S
C929 H904 0.951 . S
C929 C927 1.388 . S
C929 C930 1.366 . S
C930 C929 1.366 . S
C930 C931 1.414 . S
C930 C933 1.499 . S
C931 H905 0.950 . S
C931 C930 1.414 . S
C931 C932 1.374 . S
C932 H906 0.950 . S
C932 C928 1.385 . S
C932 C931 1.374 . S
C933 C930 1.499 . S
C933 C934 1.373 . S
C933 C935 1.389 . S
C934 H907 0.950 . S
C934 C920 1.377 . S
C934 C933 1.373 . S
C935 C919 1.377 . S
C935 C933 1.389 . S
C935 C936 1.524 . S
C936 C935 1.524 . S
C936 C937 1.397 . S
C936 C941 1.363 . S
C937 H908 0.950 . S
C937 C936 1.397 . S
C937 C938 1.334 . S
C938 H909 0.950 . S
C938 C937 1.334 . S
C938 C939 1.287 . S
C939 C938 1.287 . S
C939 C940 1.524 . S
C939 H942 0.999 . S
C940 H910 0.950 . S
C940 C939 1.524 . S
C940 C941 1.415 . S
C941 H911 0.950 . S
C941 C936 1.363 . S
C941 C940 1.415 . S
H942 C939 0.999 . S
H943 C924 0.913 . S
H944 C962 0.951 . S
H945 C964 0.951 . S
H946 C966 0.950 . S
H947 C967 0.950 . S
H948 C969 0.950 . S
H949 C972 0.950 . S
H950 C973 0.950 . S
H951 C975 0.950 . S
H952 C976 0.950 . S
H953 C977 0.951 . S
H954 C979 0.951 . S
H955 C981 0.950 . S
H956 C982 0.950 . S
H957 C984 0.950 . S
H958 C987 0.950 . S
H959 C988 0.950 . S
H960 C990 0.950 . S
H961 C991 0.950 . S
C962 H944 0.951 . S
C962 C963 1.366 . S
C962 C964 1.388 . S
C963 C962 1.366 . S
C963 C967 1.385 . S
C964 H945 0.951 . S
C964 C962 1.388 . S
C964 C965 1.366 . S
C965 C964 1.366 . S
C965 C966 1.414 . S
C965 C968 1.499 . S
C966 H946 0.950 . S
C966 C965 1.414 . S
C966 C967 1.374 . S
C967 H947 0.950 . S
C967 C963 1.385 . S
C967 C966 1.374 . S
C968 C965 1.499 . S
C968 C969 1.373 . S
C968 C970 1.389 . S
C969 H948 0.950 . S
C969 C968 1.373 . S
C969 C985 1.377 1_554 S
C970 C968 1.389 . S
C970 C971 1.524 . S
C970 C984 1.377 1_554 S
C971 C970 1.524 . S
C971 C972 1.397 . S
C971 C976 1.363 . S
C972 H949 0.950 . S
C972 C971 1.397 . S
C972 C973 1.334 . S
C973 H950 0.950 . S
C973 C972 1.334 . S
C973 C974 1.287 . S
C974 C973 1.287 . S
C974 C975 1.524 . S
C974 H993 0.913 . S
C975 H951 0.950 . S
C975 C974 1.524 . S
C975 C976 1.415 . S
C976 H952 0.950 . S
C976 C971 1.363 . S
C976 C975 1.415 . S
C977 H953 0.951 . S
C977 C978 1.366 . S
C977 C979 1.388 . S
C978 C977 1.366 . S
C978 C982 1.385 . S
C979 H954 0.951 . S
C979 C977 1.388 . S
C979 C980 1.366 . S
C980 C979 1.366 . S
C980 C981 1.414 . S
C980 C983 1.499 . S
C981 H955 0.950 . S
C981 C980 1.414 . S
C981 C982 1.374 . S
C982 H956 0.950 . S
C982 C978 1.385 . S
C982 C981 1.374 . S
C983 C980 1.499 . S
C983 C984 1.373 . S
C983 C985 1.389 . S
C984 H957 0.950 . S
C984 C970 1.377 1_556 S
C984 C983 1.373 . S
C985 C969 1.377 1_556 S
C985 C983 1.389 . S
C985 C986 1.524 . S
C986 C985 1.524 . S
C986 C987 1.397 . S
C986 C991 1.363 . S
C987 H958 0.950 . S
C987 C986 1.397 . S
C987 C988 1.334 . S
C988 H959 0.950 . S
C988 C987 1.334 . S
C988 C989 1.287 1_455 S
C989 C988 1.287 1_655 S
C989 C990 1.524 . S
C989 H992 0.999 . S
C990 H960 0.950 . S
C990 C989 1.524 . S
C990 C991 1.415 1_655 S
C991 H961 0.950 . S
C991 C986 1.363 . S
C991 C990 1.415 1_455 S
H992 C989 0.999 . S
H993 C974 0.913 . S
H994 C1012 0.951 . S
H995 C1014 0.951 . S
H996 C1016 0.950 . S
H997 C1017 0.950 . S
H998 C1019 0.950 . S
H999 C1022 0.950 . S
H1000 C1023 0.950 . S
H1001 C1025 0.950 . S
H1002 C1026 0.950 . S
H1003 C1027 0.951 . S
H1004 C1029 0.951 . S
H1005 C1031 0.950 . S
H1006 C1032 0.950 . S
H1007 C1034 0.950 . S
H1008 C1037 0.950 . S
H1009 C1038 0.950 . S
H1010 C1040 0.950 1_565 S
H1011 C1041 0.950 . S
C1012 H994 0.951 . S
C1012 C1013 1.366 . S
C1012 C1014 1.388 . S
C1013 C1012 1.366 . S
C1013 C1017 1.385 . S
C1014 H995 0.951 . S
C1014 C1012 1.388 . S
C1014 C1015 1.366 . S
C1015 C1014 1.366 . S
C1015 C1016 1.414 . S
C1015 C1018 1.499 . S
C1016 H996 0.950 . S
C1016 C1015 1.414 . S
C1016 C1017 1.374 . S
C1017 H997 0.950 . S
C1017 C1013 1.385 . S
C1017 C1016 1.374 . S
C1018 C1015 1.499 . S
C1018 C1019 1.373 . S
C1018 C1020 1.389 . S
C1019 H998 0.950 . S
C1019 C1018 1.373 . S
C1019 C1035 1.377 . S
C1020 C1018 1.389 . S
C1020 C1021 1.524 . S
C1020 C1034 1.377 . S
C1021 C1020 1.524 . S
C1021 C1022 1.397 . S
C1021 C1026 1.363 . S
C1022 H999 0.950 . S
C1022 C1021 1.397 . S
C1022 C1023 1.334 . S
C1023 H1000 0.950 . S
C1023 C1022 1.334 . S
C1023 C1024 1.287 . S
C1024 C1023 1.287 . S
C1024 C1025 1.524 . S
C1024 H1043 0.913 . S
C1025 H1001 0.950 . S
C1025 C1024 1.524 . S
C1025 C1026 1.415 . S
C1026 H1002 0.950 . S
C1026 C1021 1.363 . S
C1026 C1025 1.415 . S
C1027 H1003 0.951 . S
C1027 C1028 1.366 . S
C1027 C1029 1.388 . S
C1028 C1027 1.366 . S
C1028 C1032 1.385 . S
C1029 H1004 0.951 . S
C1029 C1027 1.388 . S
C1029 C1030 1.366 . S
C1030 C1029 1.366 . S
C1030 C1031 1.414 . S
C1030 C1033 1.499 . S
C1031 H1005 0.950 . S
C1031 C1030 1.414 . S
C1031 C1032 1.374 . S
C1032 H1006 0.950 . S
C1032 C1028 1.385 . S
C1032 C1031 1.374 . S
C1033 C1030 1.499 . S
C1033 C1034 1.373 . S
C1033 C1035 1.389 . S
C1034 H1007 0.950 . S
C1034 C1020 1.377 . S
C1034 C1033 1.373 . S
C1035 C1019 1.377 . S
C1035 C1033 1.389 . S
C1035 C1036 1.524 . S
C1036 C1035 1.524 . S
C1036 C1037 1.397 . S
C1036 C1041 1.363 . S
C1037 H1008 0.950 . S
C1037 C1036 1.397 . S
C1037 C1038 1.334 . S
C1038 H1009 0.950 . S
C1038 C1037 1.334 . S
C1038 C1039 1.287 . S
C1039 C1038 1.287 . S
C1039 C1040 1.524 . S
C1039 H1042 0.999 . S
C1040 H1010 0.950 1_545 S
C1040 C1039 1.524 . S
C1040 C1041 1.415 . S
C1041 H1011 0.950 . S
C1041 C1036 1.363 . S
C1041 C1040 1.415 . S
H1042 C1039 0.999 . S
H1043 C1024 0.913 . S
H1044 C1062 0.951 . S
H1045 C1064 0.951 . S
H1046 C1066 0.950 . S
H1047 C1067 0.950 . S
H1048 C1069 0.950 . S
H1049 C1072 0.950 . S
H1050 C1073 0.950 . S
H1051 C1075 0.950 . S
H1052 C1076 0.950 . S
H1053 C1077 0.951 . S
H1054 C1079 0.951 . S
H1055 C1081 0.950 . S
H1056 C1082 0.950 . S
H1057 C1084 0.950 . S
H1058 C1087 0.950 . S
H1059 C1088 0.950 . S
H1060 C1090 0.950 . S
H1061 C1091 0.950 . S
C1062 H1044 0.951 . S
C1062 C1063 1.366 . S
C1062 C1064 1.388 . S
C1063 C1062 1.366 . S
C1063 C1067 1.385 . S
C1064 H1045 0.951 . S
C1064 C1062 1.388 . S
C1064 C1065 1.366 . S
C1065 C1064 1.366 . S
C1065 C1066 1.414 . S
C1065 C1068 1.499 . S
C1066 H1046 0.950 . S
C1066 C1065 1.414 . S
C1066 C1067 1.374 . S
C1067 H1047 0.950 . S
C1067 C1063 1.385 . S
C1067 C1066 1.374 . S
C1068 C1065 1.499 . S
C1068 C1069 1.373 . S
C1068 C1070 1.389 . S
C1069 H1048 0.950 . S
C1069 C1068 1.373 . S
C1069 C1085 1.377 1_556 S
C1070 C1068 1.389 . S
C1070 C1071 1.524 . S
C1070 C1084 1.377 1_556 S
C1071 C1070 1.524 . S
C1071 C1072 1.397 . S
C1071 C1076 1.363 . S
C1072 H1049 0.950 . S
C1072 C1071 1.397 . S
C1072 C1073 1.334 . S
C1073 H1050 0.950 . S
C1073 C1072 1.334 . S
C1073 C1074 1.287 . S
C1074 C1073 1.287 . S
C1074 C1075 1.524 . S
C1074 H1093 0.913 . S
C1075 H1051 0.950 . S
C1075 C1074 1.524 . S
C1075 C1076 1.415 . S
C1076 H1052 0.950 . S
C1076 C1071 1.363 . S
C1076 C1075 1.415 . S
C1077 H1053 0.951 . S
C1077 C1078 1.366 . S
C1077 C1079 1.388 . S
C1078 C1077 1.366 . S
C1078 C1082 1.385 . S
C1079 H1054 0.951 . S
C1079 C1077 1.388 . S
C1079 C1080 1.366 . S
C1080 C1079 1.366 . S
C1080 C1081 1.414 . S
C1080 C1083 1.499 . S
C1081 H1055 0.950 . S
C1081 C1080 1.414 . S
C1081 C1082 1.374 . S
C1082 H1056 0.950 . S
C1082 C1078 1.385 . S
C1082 C1081 1.374 . S
C1083 C1080 1.499 . S
C1083 C1084 1.373 . S
C1083 C1085 1.389 . S
C1084 H1057 0.950 . S
C1084 C1070 1.377 1_554 S
C1084 C1083 1.373 . S
C1085 C1069 1.377 1_554 S
C1085 C1083 1.389 . S
C1085 C1086 1.524 . S
C1086 C1085 1.524 . S
C1086 C1087 1.397 . S
C1086 C1091 1.363 . S
C1087 H1058 0.950 . S
C1087 C1086 1.397 . S
C1087 C1088 1.334 . S
C1088 H1059 0.950 . S
C1088 C1087 1.334 . S
C1088 C1089 1.287 1_655 S
C1089 C1088 1.287 1_455 S
C1089 C1090 1.524 . S
C1089 H1092 0.999 . S
C1090 H1060 0.950 . S
C1090 C1089 1.524 . S
C1090 C1091 1.415 1_455 S
C1091 H1061 0.950 . S
C1091 C1086 1.363 . S
C1091 C1090 1.415 1_655 S
H1092 C1089 0.999 . S
H1093 C1074 0.913 . S
H1094 C1112 0.951 . S
H1095 C1114 0.951 . S
H1096 C1116 0.950 . S
H1097 C1117 0.950 . S
H1098 C1119 0.950 . S
H1099 C1122 0.950 . S
H1100 C1123 0.950 . S
H1101 C1125 0.950 . S
H1102 C1126 0.950 . S
H1103 C1127 0.951 . S
H1104 C1129 0.951 . S
H1105 C1131 0.950 . S
H1106 C1132 0.950 . S
H1107 C1134 0.950 . S
H1108 C1137 0.950 . S
H1109 C1138 0.950 . S
H1110 C1140 0.950 . S
H1111 C1141 0.950 . S
C1112 H1094 0.951 . S
C1112 C1113 1.366 . S
C1112 C1114 1.388 . S
C1113 C1112 1.366 . S
C1113 C1117 1.385 . S
C1114 H1095 0.951 . S
C1114 C1112 1.388 . S
C1114 C1115 1.366 . S
C1115 C1114 1.366 . S
C1115 C1116 1.414 . S
C1115 C1118 1.499 . S
C1116 H1096 0.950 . S
C1116 C1115 1.414 . S
C1116 C1117 1.374 . S
C1117 H1097 0.950 . S
C1117 C1113 1.385 . S
C1117 C1116 1.374 . S
C1118 C1115 1.499 . S
C1118 C1119 1.373 . S
C1118 C1120 1.389 . S
C1119 H1098 0.950 . S
C1119 C1118 1.373 . S
C1119 C1135 1.377 . S
C1120 C1118 1.389 . S
C1120 C1121 1.524 . S
C1120 C1134 1.377 . S
C1121 C1120 1.524 . S
C1121 C1122 1.397 . S
C1121 C1126 1.363 . S
C1122 H1099 0.950 . S
C1122 C1121 1.397 . S
C1122 C1123 1.334 . S
C1123 H1100 0.950 . S
C1123 C1122 1.334 . S
C1123 C1124 1.287 . S
C1124 C1123 1.287 . S
C1124 C1125 1.524 . S
C1124 H1143 0.913 . S
C1125 H1101 0.950 . S
C1125 C1124 1.524 . S
C1125 C1126 1.415 . S
C1126 H1102 0.950 . S
C1126 C1121 1.363 . S
C1126 C1125 1.415 . S
C1127 H1103 0.951 . S
C1127 C1128 1.366 . S
C1127 C1129 1.388 . S
C1128 C1127 1.366 . S
C1128 C1132 1.385 . S
C1129 H1104 0.951 . S
C1129 C1127 1.388 . S
C1129 C1130 1.366 . S
C1130 C1129 1.366 . S
C1130 C1131 1.414 . S
C1130 C1133 1.499 . S
C1131 H1105 0.950 . S
C1131 C1130 1.414 . S
C1131 C1132 1.374 . S
C1132 H1106 0.950 . S
C1132 C1128 1.385 . S
C1132 C1131 1.374 . S
C1133 C1130 1.499 . S
C1133 C1134 1.373 . S
C1133 C1135 1.389 . S
C1134 H1107 0.950 . S
C1134 C1120 1.377 . S
C1134 C1133 1.373 . S
C1135 C1119 1.377 . S
C1135 C1133 1.389 . S
C1135 C1136 1.524 . S
C1136 C1135 1.524 . S
C1136 C1137 1.397 . S
C1136 C1141 1.363 . S
C1137 H1108 0.950 . S
C1137 C1136 1.397 . S
C1137 C1138 1.334 . S
C1138 H1109 0.950 . S
C1138 C1137 1.334 . S
C1138 C1139 1.287 . S
C1139 C1138 1.287 . S
C1139 C1140 1.524 . S
C1139 H1142 0.999 . S
C1140 H1110 0.950 . S
C1140 C1139 1.524 . S
C1140 C1141 1.415 . S
C1141 H1111 0.950 . S
C1141 C1136 1.363 . S
C1141 C1140 1.415 . S
H1142 C1139 0.999 . S
H1143 C1124 0.913 . S
H1144 C1162 0.951 . S
H1145 C1164 0.951 . S
H1146 C1166 0.950 . S
H1147 C1167 0.950 . S
H1148 C1169 0.950 . S
H1149 C1172 0.950 . S
H1150 C1173 0.950 . S
H1151 C1175 0.950 . S
H1152 C1176 0.950 . S
H1153 C1177 0.951 . S
H1154 C1179 0.951 . S
H1155 C1181 0.950 . S
H1156 C1182 0.950 . S
H1157 C1184 0.950 . S
H1158 C1187 0.950 . S
H1159 C1188 0.950 . S
H1160 C1190 0.950 . S
H1161 C1191 0.950 . S
C1162 H1144 0.951 . S
C1162 C1163 1.366 . S
C1162 C1164 1.388 . S
C1163 C1162 1.366 . S
C1163 C1167 1.385 . S
C1164 H1145 0.951 . S
C1164 C1162 1.388 . S
C1164 C1165 1.366 . S
C1165 C1164 1.366 . S
C1165 C1166 1.414 . S
C1165 C1168 1.499 . S
C1166 H1146 0.950 . S
C1166 C1165 1.414 . S
C1166 C1167 1.374 . S
C1167 H1147 0.950 . S
C1167 C1163 1.385 . S
C1167 C1166 1.374 . S
C1168 C1165 1.499 . S
C1168 C1169 1.373 . S
C1168 C1170 1.389 . S
C1169 H1148 0.950 . S
C1169 C1168 1.373 . S
C1169 C1185 1.377 1_554 S
C1170 C1168 1.389 . S
C1170 C1171 1.524 . S
C1170 C1184 1.377 1_554 S
C1171 C1170 1.524 . S
C1171 C1172 1.397 . S
C1171 C1176 1.363 . S
C1172 H1149 0.950 . S
C1172 C1171 1.397 . S
C1172 C1173 1.334 . S
C1173 H1150 0.950 . S
C1173 C1172 1.334 . S
C1173 C1174 1.287 . S
C1174 C1173 1.287 . S
C1174 C1175 1.524 . S
C1174 H1193 0.913 . S
C1175 H1151 0.950 . S
C1175 C1174 1.524 . S
C1175 C1176 1.415 . S
C1176 H1152 0.950 . S
C1176 C1171 1.363 . S
C1176 C1175 1.415 . S
C1177 H1153 0.951 . S
C1177 C1178 1.366 . S
C1177 C1179 1.388 . S
C1178 C1177 1.366 . S
C1178 C1182 1.385 . S
C1179 H1154 0.951 . S
C1179 C1177 1.388 . S
C1179 C1180 1.366 . S
C1180 C1179 1.366 . S
C1180 C1181 1.414 . S
C1180 C1183 1.499 . S
C1181 H1155 0.950 . S
C1181 C1180 1.414 . S
C1181 C1182 1.374 . S
C1182 H1156 0.950 . S
C1182 C1178 1.385 . S
C1182 C1181 1.374 . S
C1183 C1180 1.499 . S
C1183 C1184 1.373 . S
C1183 C1185 1.389 . S
C1184 H1157 0.950 . S
C1184 C1170 1.377 1_556 S
C1184 C1183 1.373 . S
C1185 C1169 1.377 1_556 S
C1185 C1183 1.389 . S
C1185 C1186 1.524 . S
C1186 C1185 1.524 . S
C1186 C1187 1.397 . S
C1186 C1191 1.363 . S
C1187 H1158 0.950 . S
C1187 C1186 1.397 . S
C1187 C1188 1.334 . S
C1188 H1159 0.950 . S
C1188 C1187 1.334 . S
C1188 C1189 1.287 . S
C1189 C1188 1.287 . S
C1189 C1190 1.524 . S
C1189 H1192 0.999 . S
C1190 H1160 0.950 . S
C1190 C1189 1.524 . S
C1190 C1191 1.415 . S
C1191 H1161 0.950 . S
C1191 C1186 1.363 . S
C1191 C1190 1.415 . S
H1192 C1189 0.999 . S
H1193 C1174 0.913 . S
H1194 C1212 0.951 . S
H1195 C1214 0.951 . S
H1196 C1216 0.950 . S
H1197 C1217 0.950 . S
H1198 C1219 0.950 . S
H1199 C1222 0.950 . S
H1200 C1223 0.950 . S
H1201 C1225 0.950 . S
H1202 C1226 0.950 . S
H1203 C1227 0.951 . S
H1204 C1229 0.951 . S
H1205 C1231 0.950 . S
H1206 C1232 0.950 . S
H1207 C1234 0.950 . S
H1208 C1237 0.950 . S
H1209 C1238 0.950 . S
H1210 C1240 0.950 . S
H1211 C1241 0.950 . S
C1212 H1194 0.951 . S
C1212 C1213 1.366 . S
C1212 C1214 1.388 . S
C1213 C1212 1.366 . S
C1213 C1217 1.385 . S
C1214 H1195 0.951 . S
C1214 C1212 1.388 . S
C1214 C1215 1.366 . S
C1215 C1214 1.366 . S
C1215 C1216 1.414 . S
C1215 C1218 1.499 . S
C1216 H1196 0.950 . S
C1216 C1215 1.414 . S
C1216 C1217 1.374 . S
C1217 H1197 0.950 . S
C1217 C1213 1.385 . S
C1217 C1216 1.374 . S
C1218 C1215 1.499 . S
C1218 C1219 1.373 . S
C1218 C1220 1.389 . S
C1219 H1198 0.950 . S
C1219 C1218 1.373 . S
C1219 C1235 1.377 . S
C1220 C1218 1.389 . S
C1220 C1221 1.524 . S
C1220 C1234 1.377 . S
C1221 C1220 1.524 . S
C1221 C1222 1.397 . S
C1221 C1226 1.363 . S
C1222 H1199 0.950 . S
C1222 C1221 1.397 . S
C1222 C1223 1.334 . S
C1223 H1200 0.950 . S
C1223 C1222 1.334 . S
C1223 C1224 1.287 . S
C1224 C1223 1.287 . S
C1224 C1225 1.524 . S
C1224 H1243 0.913 . S
C1225 H1201 0.950 . S
C1225 C1224 1.524 . S
C1225 C1226 1.415 . S
C1226 H1202 0.950 . S
C1226 C1221 1.363 . S
C1226 C1225 1.415 . S
C1227 H1203 0.951 . S
C1227 C1228 1.366 . S
C1227 C1229 1.388 . S
C1228 C1227 1.366 . S
C1228 C1232 1.385 . S
C1229 H1204 0.951 . S
C1229 C1227 1.388 . S
C1229 C1230 1.366 . S
C1230 C1229 1.366 . S
C1230 C1231 1.414 . S
C1230 C1233 1.499 . S
C1231 H1205 0.950 . S
C1231 C1230 1.414 . S
C1231 C1232 1.374 . S
C1232 H1206 0.950 . S
C1232 C1228 1.385 . S
C1232 C1231 1.374 . S
C1233 C1230 1.499 . S
C1233 C1234 1.373 . S
C1233 C1235 1.389 . S
C1234 H1207 0.950 . S
C1234 C1220 1.377 . S
C1234 C1233 1.373 . S
C1235 C1219 1.377 . S
C1235 C1233 1.389 . S
C1235 C1236 1.524 . S
C1236 C1235 1.524 . S
C1236 C1237 1.397 . S
C1236 C1241 1.363 . S
C1237 H1208 0.950 . S
C1237 C1236 1.397 . S
C1237 C1238 1.334 . S
C1238 H1209 0.950 . S
C1238 C1237 1.334 . S
C1238 C1239 1.287 . S
C1239 C1238 1.287 . S
C1239 C1240 1.524 . S
C1239 H1242 0.999 . S
C1240 H1210 0.950 . S
C1240 C1239 1.524 . S
C1240 C1241 1.415 . S
C1241 H1211 0.950 . S
C1241 C1236 1.363 . S
C1241 C1240 1.415 . S
H1242 C1239 0.999 . S
H1243 C1224 0.913 . S
H1244 C1262 0.951 . S
H1245 C1264 0.951 . S
H1246 C1266 0.950 . S
H1247 C1267 0.950 . S
H1248 C1269 0.950 . S
H1249 C1272 0.950 . S
H1250 C1273 0.950 . S
H1251 C1275 0.950 . S
H1252 C1276 0.950 . S
H1253 C1277 0.951 . S
H1254 C1279 0.951 . S
H1255 C1281 0.950 . S
H1256 C1282 0.950 . S
H1257 C1284 0.950 . S
H1258 C1287 0.950 . S
H1259 C1288 0.950 . S
H1260 C1290 0.950 . S
H1261 C1291 0.950 . S
C1262 H1244 0.951 . S
C1262 C1263 1.366 . S
C1262 C1264 1.388 . S
C1263 C1262 1.366 . S
C1263 C1267 1.385 . S
C1264 H1245 0.951 . S
C1264 C1262 1.388 . S
C1264 C1265 1.366 . S
C1265 C1264 1.366 . S
C1265 C1266 1.414 . S
C1265 C1268 1.499 . S
C1266 H1246 0.950 . S
C1266 C1265 1.414 . S
C1266 C1267 1.374 . S
C1267 H1247 0.950 . S
C1267 C1263 1.385 . S
C1267 C1266 1.374 . S
C1268 C1265 1.499 . S
C1268 C1269 1.373 . S
C1268 C1270 1.389 . S
C1269 H1248 0.950 . S
C1269 C1268 1.373 . S
C1269 C1285 1.377 1_554 S
C1270 C1268 1.389 . S
C1270 C1271 1.524 . S
C1270 C1284 1.377 1_554 S
C1271 C1270 1.524 . S
C1271 C1272 1.397 . S
C1271 C1276 1.363 . S
C1272 H1249 0.950 . S
C1272 C1271 1.397 . S
C1272 C1273 1.334 . S
C1273 H1250 0.950 . S
C1273 C1272 1.334 . S
C1273 C1274 1.287 . S
C1274 C1273 1.287 . S
C1274 C1275 1.524 . S
C1274 H1293 0.913 . S
C1275 H1251 0.950 . S
C1275 C1274 1.524 . S
C1275 C1276 1.415 . S
C1276 H1252 0.950 . S
C1276 C1271 1.363 . S
C1276 C1275 1.415 . S
C1277 H1253 0.951 . S
C1277 C1278 1.366 . S
C1277 C1279 1.388 . S
C1278 C1277 1.366 . S
C1278 C1282 1.385 . S
C1279 H1254 0.951 . S
C1279 C1277 1.388 . S
C1279 C1280 1.366 . S
C1280 C1279 1.366 . S
C1280 C1281 1.414 . S
C1280 C1283 1.499 . S
C1281 H1255 0.950 . S
C1281 C1280 1.414 . S
C1281 C1282 1.374 . S
C1282 H1256 0.950 . S
C1282 C1278 1.385 . S
C1282 C1281 1.374 . S
C1283 C1280 1.499 . S
C1283 C1284 1.373 . S
C1283 C1285 1.389 . S
C1284 H1257 0.950 . S
C1284 C1270 1.377 1_556 S
C1284 C1283 1.373 . S
C1285 C1269 1.377 1_556 S
C1285 C1283 1.389 . S
C1285 C1286 1.524 . S
C1286 C1285 1.524 . S
C1286 C1287 1.397 . S
C1286 C1291 1.363 . S
C1287 H1258 0.950 . S
C1287 C1286 1.397 . S
C1287 C1288 1.334 . S
C1288 H1259 0.950 . S
C1288 C1287 1.334 . S
C1288 C1289 1.287 . S
C1289 C1288 1.287 . S
C1289 C1290 1.524 . S
C1289 H1292 0.999 . S
C1290 H1260 0.950 . S
C1290 C1289 1.524 . S
C1290 C1291 1.415 . S
C1291 H1261 0.950 . S
C1291 C1286 1.363 . S
C1291 C1290 1.415 . S
H1292 C1289 0.999 . S
H1293 C1274 0.913 . S
H1294 C1312 0.951 . S
H1295 C1314 0.951 . S
H1296 C1316 0.950 . S
H1297 C1317 0.950 . S
H1298 C1319 0.950 . S
H1299 C1322 0.950 . S
H1300 C1323 0.950 . S
H1301 C1325 0.950 . S
H1302 C1326 0.950 . S
H1303 C1327 0.951 . S
H1304 C1329 0.951 . S
H1305 C1331 0.950 . S
H1306 C1332 0.950 . S
H1307 C1334 0.950 . S
H1308 C1337 0.950 . S
H1309 C1338 0.950 . S
H1310 C1340 0.950 . S
H1311 C1341 0.950 . S
C1312 H1294 0.951 . S
C1312 C1313 1.366 . S
C1312 C1314 1.388 . S
C1313 C1312 1.366 . S
C1313 C1317 1.385 . S
C1314 H1295 0.951 . S
C1314 C1312 1.388 . S
C1314 C1315 1.366 . S
C1315 C1314 1.366 . S
C1315 C1316 1.414 . S
C1315 C1318 1.499 . S
C1316 H1296 0.950 . S
C1316 C1315 1.414 . S
C1316 C1317 1.374 . S
C1317 H1297 0.950 . S
C1317 C1313 1.385 . S
C1317 C1316 1.374 . S
C1318 C1315 1.499 . S
C1318 C1319 1.373 . S
C1318 C1320 1.389 . S
C1319 H1298 0.950 . S
C1319 C1318 1.373 . S
C1319 C1335 1.377 . S
C1320 C1318 1.389 . S
C1320 C1321 1.524 . S
C1320 C1334 1.377 . S
C1321 C1320 1.524 . S
C1321 C1322 1.397 . S
C1321 C1326 1.363 . S
C1322 H1299 0.950 . S
C1322 C1321 1.397 . S
C1322 C1323 1.334 . S
C1323 H1300 0.950 . S
C1323 C1322 1.334 . S
C1323 C1324 1.287 . S
C1324 C1323 1.287 . S
C1324 C1325 1.524 . S
C1324 H1343 0.913 . S
C1325 H1301 0.950 . S
C1325 C1324 1.524 . S
C1325 C1326 1.415 . S
C1326 H1302 0.950 . S
C1326 C1321 1.363 . S
C1326 C1325 1.415 . S
C1327 H1303 0.951 . S
C1327 C1328 1.366 . S
C1327 C1329 1.388 . S
C1328 C1327 1.366 . S
C1328 C1332 1.385 . S
C1329 H1304 0.951 . S
C1329 C1327 1.388 . S
C1329 C1330 1.366 . S
C1330 C1329 1.366 . S
C1330 C1331 1.414 . S
C1330 C1333 1.499 . S
C1331 H1305 0.950 . S
C1331 C1330 1.414 . S
C1331 C1332 1.374 . S
C1332 H1306 0.950 . S
C1332 C1328 1.385 . S
C1332 C1331 1.374 . S
C1333 C1330 1.499 . S
C1333 C1334 1.373 . S
C1333 C1335 1.389 . S
C1334 H1307 0.950 . S
C1334 C1320 1.377 . S
C1334 C1333 1.373 . S
C1335 C1319 1.377 . S
C1335 C1333 1.389 . S
C1335 C1336 1.524 . S
C1336 C1335 1.524 . S
C1336 C1337 1.397 . S
C1336 C1341 1.363 . S
C1337 H1308 0.950 . S
C1337 C1336 1.397 . S
C1337 C1338 1.334 . S
C1338 H1309 0.950 . S
C1338 C1337 1.334 . S
C1338 C1339 1.287 . S
C1339 C1338 1.287 . S
C1339 C1340 1.524 . S
C1339 H1342 0.999 . S
C1340 H1310 0.950 . S
C1340 C1339 1.524 . S
C1340 C1341 1.415 . S
C1341 H1311 0.950 . S
C1341 C1336 1.363 . S
C1341 C1340 1.415 . S
H1342 C1339 0.999 . S
H1343 C1324 0.913 . S
H1344 C1362 0.951 . S
H1345 C1364 0.951 . S
H1346 C1366 0.950 . S
H1347 C1367 0.950 . S
H1348 C1369 0.950 . S
H1349 C1372 0.950 . S
H1350 C1373 0.960 . S
H1351 C1375 0.950 . S
H1352 C1376 0.950 . S
H1353 C1377 0.951 . S
H1354 C1379 0.951 . S
H1355 C1381 0.950 . S
H1356 C1382 0.950 . S
H1357 C1384 0.950 . S
H1358 C1387 0.950 . S
H1359 C1388 0.960 . S
H1360 C1390 0.950 . S
H1361 C1391 0.950 . S
C1362 H1344 0.951 . S
C1362 C1363 1.366 . S
C1362 C1364 1.388 . S
C1363 C1362 1.366 . S
C1363 C1367 1.385 . S
C1364 H1345 0.951 . S
C1364 C1362 1.388 . S
C1364 C1365 1.366 . S
C1365 C1364 1.366 . S
C1365 C1366 1.414 . S
C1365 C1368 1.499 . S
C1366 H1346 0.950 . S
C1366 C1365 1.414 . S
C1366 C1367 1.374 . S
C1367 H1347 0.950 . S
C1367 C1363 1.385 . S
C1367 C1366 1.374 . S
C1368 C1365 1.499 . S
C1368 C1369 1.373 . S
C1368 C1370 1.389 1_455 S
C1369 H1348 0.950 . S
C1369 C1368 1.373 . S
C1369 C1385 1.377 . S
C1370 C1368 1.389 1_655 S
C1370 C1371 1.524 . S
C1370 C1384 1.377 . S
C1371 C1370 1.524 . S
C1371 C1372 1.397 1_655 S
C1371 C1376 1.363 . S
C1372 H1349 0.950 . S
C1372 C1371 1.397 1_455 S
C1372 C1373 1.337 . S
C1373 H1350 0.960 . S
C1373 C1372 1.337 . S
C1373 C1374 1.275 1_455 S
C1374 C1373 1.275 1_655 S
C1374 C1375 1.524 . S
C1374 H1393 0.913 . S
C1375 H1351 0.950 . S
C1375 C1374 1.524 . S
C1375 C1376 1.415 . S
C1376 H1352 0.950 . S
C1376 C1371 1.363 . S
C1376 C1375 1.415 . S
C1377 H1353 0.951 . S
C1377 C1378 1.366 . S
C1377 C1379 1.388 . S
C1378 C1377 1.366 . S
C1378 C1382 1.385 . S
C1379 H1354 0.951 . S
C1379 C1377 1.388 . S
C1379 C1380 1.366 . S
C1380 C1379 1.366 . S
C1380 C1381 1.414 . S
C1380 C1383 1.499 . S
C1381 H1355 0.950 . S
C1381 C1380 1.414 . S
C1381 C1382 1.374 . S
C1382 H1356 0.950 . S
C1382 C1378 1.385 . S
C1382 C1381 1.374 . S
C1383 C1380 1.499 . S
C1383 C1384 1.373 . S
C1383 C1385 1.389 1_655 S
C1384 H1357 0.950 . S
C1384 C1370 1.377 . S
C1384 C1383 1.373 . S
C1385 C1369 1.377 . S
C1385 C1383 1.389 1_455 S
C1385 C1386 1.524 . S
C1386 C1385 1.524 . S
C1386 C1387 1.397 1_455 S
C1386 C1391 1.363 . S
C1387 H1358 0.950 . S
C1387 C1386 1.397 1_655 S
C1387 C1388 1.337 . S
C1388 H1359 0.960 . S
C1388 C1387 1.337 . S
C1388 C1389 1.275 1_655 S
C1389 C1388 1.275 1_455 S
C1389 C1390 1.524 . S
C1389 H1392 0.999 . S
C1390 H1360 0.950 . S
C1390 C1389 1.524 . S
C1390 C1391 1.415 . S
C1391 H1361 0.950 . S
C1391 C1386 1.363 . S
C1391 C1390 1.415 . S
H1392 C1389 0.999 . S
H1393 C1374 0.913 . S
H1394 C1412 0.951 . S
H1395 C1414 0.951 . S
H1396 C1416 0.950 . S
H1397 C1417 0.950 . S
H1398 C1419 0.950 . S
H1399 C1422 0.950 . S
H1400 C1423 0.950 . S
H1401 C1425 0.950 . S
H1402 C1426 0.950 . S
H1403 C1427 0.951 . S
H1404 C1429 0.951 . S
H1405 C1431 0.950 . S
H1406 C1432 0.950 . S
H1407 C1434 0.950 . S
H1408 C1437 0.950 . S
H1409 C1438 0.950 . S
H1410 C1440 0.950 . S
H1411 C1441 0.950 . S
C1412 H1394 0.951 . S
C1412 C1413 1.366 . S
C1412 C1414 1.388 . S
C1413 C1412 1.366 . S
C1413 C1417 1.385 . S
C1414 H1395 0.951 . S
C1414 C1412 1.388 . S
C1414 C1415 1.366 . S
C1415 C1414 1.366 . S
C1415 C1416 1.414 . S
C1415 C1418 1.499 . S
C1416 H1396 0.950 . S
C1416 C1415 1.414 . S
C1416 C1417 1.374 . S
C1417 H1397 0.950 . S
C1417 C1413 1.385 . S
C1417 C1416 1.374 . S
C1418 C1415 1.499 . S
C1418 C1419 1.373 1_565 S
C1418 C1420 1.389 . S
C1419 H1398 0.950 . S
C1419 C1418 1.373 1_545 S
C1419 C1435 1.377 . S
C1420 C1418 1.389 . S
C1420 C1421 1.524 . S
C1420 C1434 1.377 . S
C1421 C1420 1.524 . S
C1421 C1422 1.397 . S
C1421 C1426 1.363 . S
C1422 H1399 0.950 . S
C1422 C1421 1.397 . S
C1422 C1423 1.334 . S
C1423 H1400 0.950 . S
C1423 C1422 1.334 . S
C1423 C1424 1.287 . S
C1424 C1423 1.287 . S
C1424 C1425 1.524 . S
C1424 H1443 0.913 . S
C1425 H1401 0.950 . S
C1425 C1424 1.524 . S
C1425 C1426 1.415 . S
C1426 H1402 0.950 . S
C1426 C1421 1.363 . S
C1426 C1425 1.415 . S
C1427 H1403 0.951 . S
C1427 C1428 1.366 . S
C1427 C1429 1.388 . S
C1428 C1427 1.366 . S
C1428 C1432 1.385 . S
C1429 H1404 0.951 . S
C1429 C1427 1.388 . S
C1429 C1430 1.366 . S
C1430 C1429 1.366 . S
C1430 C1431 1.414 . S
C1430 C1433 1.499 . S
C1431 H1405 0.950 . S
C1431 C1430 1.414 . S
C1431 C1432 1.374 . S
C1432 H1406 0.950 . S
C1432 C1428 1.385 . S
C1432 C1431 1.374 . S
C1433 C1430 1.499 . S
C1433 C1434 1.373 1_545 S
C1433 C1435 1.389 . S
C1434 H1407 0.950 . S
C1434 C1420 1.377 . S
C1434 C1433 1.373 1_565 S
C1435 C1419 1.377 . S
C1435 C1433 1.389 . S
C1435 C1436 1.524 . S
C1436 C1435 1.524 . S
C1436 C1437 1.397 . S
C1436 C1441 1.363 . S
C1437 H1408 0.950 . S
C1437 C1436 1.397 . S
C1437 C1438 1.334 . S
C1438 H1409 0.950 . S
C1438 C1437 1.334 . S
C1438 C1439 1.287 . S
C1439 C1438 1.287 . S
C1439 C1440 1.524 . S
C1439 H1442 0.999 . S
C1440 H1410 0.950 . S
C1440 C1439 1.524 . S
C1440 C1441 1.415 . S
C1441 H1411 0.950 . S
C1441 C1436 1.363 . S
C1441 C1440 1.415 . S
H1442 C1439 0.999 . S
H1443 C1424 0.913 . S
H1444 C1462 0.951 . S
H1445 C1464 0.951 . S
H1446 C1466 0.950 . S
H1447 C1467 0.950 . S
H1448 C1469 0.950 . S
H1449 C1472 0.950 . S
H1450 C1473 0.950 . S
H1451 C1475 0.950 . S
H1452 C1476 0.950 . S
H1453 C1477 0.951 . S
H1454 C1479 0.951 . S
H1455 C1481 0.950 . S
H1456 C1482 0.950 . S
H1457 C1484 0.950 . S
H1458 C1487 0.950 . S
H1459 C1488 0.950 . S
H1460 C1490 0.950 . S
H1461 C1491 0.950 . S
C1462 H1444 0.951 . S
C1462 C1463 1.366 . S
C1462 C1464 1.388 . S
C1463 C1462 1.366 . S
C1463 C1467 1.385 . S
C1464 H1445 0.951 . S
C1464 C1462 1.388 . S
C1464 C1465 1.366 . S
C1465 C1464 1.366 . S
C1465 C1466 1.414 . S
C1465 C1468 1.499 . S
C1466 H1446 0.950 . S
C1466 C1465 1.414 . S
C1466 C1467 1.374 . S
C1467 H1447 0.950 . S
C1467 C1463 1.385 . S
C1467 C1466 1.374 . S
C1468 C1465 1.499 . S
C1468 C1469 1.373 . S
C1468 C1470 1.389 . S
C1469 H1448 0.950 . S
C1469 C1468 1.373 . S
C1469 C1485 1.377 1_565 S
C1470 C1468 1.389 . S
C1470 C1471 1.524 . S
C1470 C1484 1.377 1_565 S
C1471 C1470 1.524 . S
C1471 C1472 1.397 . S
C1471 C1476 1.363 1_565 S
C1472 H1449 0.950 . S
C1472 C1471 1.397 . S
C1472 C1473 1.334 . S
C1473 H1450 0.950 . S
C1473 C1472 1.334 . S
C1473 C1474 1.287 . S
C1474 C1473 1.287 . S
C1474 C1475 1.524 1_565 S
C1474 H1493 0.913 . S
C1475 H1451 0.950 . S
C1475 C1474 1.524 1_545 S
C1475 C1476 1.415 . S
C1476 H1452 0.950 . S
C1476 C1471 1.363 1_545 S
C1476 C1475 1.415 . S
C1477 H1453 0.951 . S
C1477 C1478 1.366 . S
C1477 C1479 1.388 . S
C1478 C1477 1.366 . S
C1478 C1482 1.385 . S
C1479 H1454 0.951 . S
C1479 C1477 1.388 . S
C1479 C1480 1.366 . S
C1480 C1479 1.366 . S
C1480 C1481 1.414 . S
C1480 C1483 1.499 . S
C1481 H1455 0.950 . S
C1481 C1480 1.414 . S
C1481 C1482 1.374 . S
C1482 H1456 0.950 . S
C1482 C1478 1.385 . S
C1482 C1481 1.374 . S
C1483 C1480 1.499 . S
C1483 C1484 1.373 . S
C1483 C1485 1.389 . S
C1484 H1457 0.950 . S
C1484 C1470 1.377 1_545 S
C1484 C1483 1.373 . S
C1485 C1469 1.377 1_545 S
C1485 C1483 1.389 . S
C1485 C1486 1.524 . S
C1486 C1485 1.524 . S
C1486 C1487 1.397 . S
C1486 C1491 1.363 1_545 S
C1487 H1458 0.950 . S
C1487 C1486 1.397 . S
C1487 C1488 1.334 . S
C1488 H1459 0.950 . S
C1488 C1487 1.334 . S
C1488 C1489 1.287 . S
C1489 C1488 1.287 . S
C1489 C1490 1.524 1_545 S
C1489 H1492 0.999 . S
C1490 H1460 0.950 . S
C1490 C1489 1.524 1_565 S
C1490 C1491 1.415 . S
C1491 H1461 0.950 . S
C1491 C1486 1.363 1_565 S
C1491 C1490 1.415 . S
H1492 C1489 0.999 . S
H1493 C1474 0.913 . S
H1494 C1512 0.951 . S
H1495 C1514 0.951 . S
H1496 C1516 0.950 . S
H1497 C1517 0.950 . S
H1498 C1519 0.950 . S
H1499 C1522 0.950 . S
H1500 C1523 0.950 . S
H1501 C1525 0.950 . S
H1502 C1526 0.950 . S
H1503 C1527 0.951 . S
H1504 C1529 0.951 . S
H1505 C1531 0.950 . S
H1506 C1532 0.950 . S
H1507 C1534 0.950 . S
H1508 C1537 0.950 . S
H1509 C1538 0.950 . S
H1510 C1540 0.950 . S
H1511 C1541 0.950 . S
C1512 H1494 0.951 . S
C1512 C1513 1.366 . S
C1512 C1514 1.388 . S
C1513 C1512 1.366 . S
C1513 C1517 1.385 . S
C1514 H1495 0.951 . S
C1514 C1512 1.388 . S
C1514 C1515 1.366 . S
C1515 C1514 1.366 . S
C1515 C1516 1.414 . S
C1515 C1518 1.499 . S
C1516 H1496 0.950 . S
C1516 C1515 1.414 . S
C1516 C1517 1.374 . S
C1517 H1497 0.950 . S
C1517 C1513 1.385 . S
C1517 C1516 1.374 . S
C1518 C1515 1.499 . S
C1518 C1519 1.373 1_455 S
C1518 C1520 1.389 . S
C1519 H1498 0.950 . S
C1519 C1518 1.373 1_655 S
C1519 C1535 1.377 . S
C1520 C1518 1.389 . S
C1520 C1521 1.524 . S
C1520 C1534 1.377 . S
C1521 C1520 1.524 . S
C1521 C1522 1.397 . S
C1521 C1526 1.363 . S
C1522 H1499 0.950 . S
C1522 C1521 1.397 . S
C1522 C1523 1.334 . S
C1523 H1500 0.950 . S
C1523 C1522 1.334 . S
C1523 C1524 1.287 . S
C1524 C1523 1.287 . S
C1524 C1525 1.524 . S
C1524 H1543 0.913 . S
C1525 H1501 0.950 . S
C1525 C1524 1.524 . S
C1525 C1526 1.415 . S
C1526 H1502 0.950 . S
C1526 C1521 1.363 . S
C1526 C1525 1.415 . S
C1527 H1503 0.951 . S
C1527 C1528 1.366 . S
C1527 C1529 1.388 . S
C1528 C1527 1.366 . S
C1528 C1532 1.385 . S
C1529 H1504 0.951 . S
C1529 C1527 1.388 . S
C1529 C1530 1.366 . S
C1530 C1529 1.366 . S
C1530 C1531 1.414 . S
C1530 C1533 1.499 . S
C1531 H1505 0.950 . S
C1531 C1530 1.414 . S
C1531 C1532 1.374 . S
C1532 H1506 0.950 . S
C1532 C1528 1.385 . S
C1532 C1531 1.374 . S
C1533 C1530 1.499 . S
C1533 C1534 1.373 1_655 S
C1533 C1535 1.389 . S
C1534 H1507 0.950 . S
C1534 C1520 1.377 . S
C1534 C1533 1.373 1_455 S
C1535 C1519 1.377 . S
C1535 C1533 1.389 . S
C1535 C1536 1.524 . S
C1536 C1535 1.524 . S
C1536 C1537 1.397 . S
C1536 C1541 1.363 . S
C1537 H1508 0.950 . S
C1537 C1536 1.397 . S
C1537 C1538 1.334 . S
C1538 H1509 0.950 . S
C1538 C1537 1.334 . S
C1538 C1539 1.287 . S
C1539 C1538 1.287 . S
C1539 C1540 1.524 . S
C1539 H1542 0.999 . S
C1540 H1510 0.950 . S
C1540 C1539 1.524 . S
C1540 C1541 1.415 . S
C1541 H1511 0.950 . S
C1541 C1536 1.363 . S
C1541 C1540 1.415 . S
H1542 C1539 0.999 . S
H1543 C1524 0.913 . S
H1544 C1562 0.951 . S
H1545 C1564 0.951 . S
H1546 C1566 0.950 . S
H1547 C1567 0.950 . S
H1548 C1569 0.950 . S
H1549 C1572 0.950 1_455 S
H1550 C1573 0.950 1_455 S
H1551 C1575 0.950 . S
H1552 C1576 0.950 . S
H1553 C1577 0.951 . S
H1554 C1579 0.951 . S
H1555 C1581 0.950 . S
H1556 C1582 0.950 . S
H1557 C1584 0.950 . S
H1558 C1587 0.950 1_655 S
H1559 C1588 0.950 1_655 S
H1560 C1590 0.950 . S
H1561 C1591 0.950 . S
C1562 H1544 0.951 . S
C1562 C1563 1.366 . S
C1562 C1564 1.388 . S
C1563 C1562 1.366 . S
C1563 C1567 1.385 . S
C1564 H1545 0.951 . S
C1564 C1562 1.388 . S
C1564 C1565 1.366 . S
C1565 C1564 1.366 . S
C1565 C1566 1.414 . S
C1565 C1568 1.499 . S
C1566 H1546 0.950 . S
C1566 C1565 1.414 . S
C1566 C1567 1.374 . S
C1567 H1547 0.950 . S
C1567 C1563 1.385 . S
C1567 C1566 1.374 . S
C1568 C1565 1.499 . S
C1568 C1569 1.373 . S
C1568 C1570 1.389 . S
C1569 H1548 0.950 . S
C1569 C1568 1.373 . S
C1569 C1585 1.377 1_655 S
C1570 C1568 1.389 . S
C1570 C1571 1.524 . S
C1570 C1584 1.377 1_655 S
C1571 C1570 1.524 . S
C1571 C1572 1.396 . S
C1571 C1576 1.363 . S
C1572 H1549 0.950 1_655 S
C1572 C1571 1.396 . S
C1572 C1573 1.334 . S
C1573 H1550 0.950 1_655 S
C1573 C1572 1.334 . S
C1573 C1574 1.287 . S
C1574 C1573 1.287 . S
C1574 C1575 1.524 . S
C1574 H1593 0.913 . S
C1575 H1551 0.950 . S
C1575 C1574 1.524 . S
C1575 C1576 1.415 . S
C1576 H1552 0.950 . S
C1576 C1571 1.363 . S
C1576 C1575 1.415 . S
C1577 H1553 0.951 . S
C1577 C1578 1.366 . S
C1577 C1579 1.388 . S
C1578 C1577 1.366 . S
C1578 C1582 1.385 . S
C1579 H1554 0.951 . S
C1579 C1577 1.388 . S
C1579 C1580 1.366 . S
C1580 C1579 1.366 . S
C1580 C1581 1.414 . S
C1580 C1583 1.499 . S
C1581 H1555 0.950 . S
C1581 C1580 1.414 . S
C1581 C1582 1.374 . S
C1582 H1556 0.950 . S
C1582 C1578 1.385 . S
C1582 C1581 1.374 . S
C1583 C1580 1.499 . S
C1583 C1584 1.373 . S
C1583 C1585 1.389 . S
C1584 H1557 0.950 . S
C1584 C1570 1.377 1_455 S
C1584 C1583 1.373 . S
C1585 C1569 1.377 1_455 S
C1585 C1583 1.389 . S
C1585 C1586 1.524 . S
C1586 C1585 1.524 . S
C1586 C1587 1.396 . S
C1586 C1591 1.363 . S
C1587 H1558 0.950 1_455 S
C1587 C1586 1.396 . S
C1587 C1588 1.334 . S
C1588 H1559 0.950 1_455 S
C1588 C1587 1.334 . S
C1588 C1589 1.287 . S
C1589 C1588 1.287 . S
C1589 C1590 1.524 . S
C1589 H1592 0.999 . S
C1590 H1560 0.950 . S
C1590 C1589 1.524 . S
C1590 C1591 1.415 . S
C1591 H1561 0.950 . S
C1591 C1586 1.363 . S
C1591 C1590 1.415 . S
H1592 C1589 0.999 . S
H1593 C1574 0.913 . S
H1594 C1612 0.951 . S
H1595 C1614 0.951 . S
H1596 C1616 0.950 . S
H1597 C1617 0.950 . S
H1598 C1619 0.950 . S
H1599 C1622 0.950 . S
H1600 C1623 0.950 . S
H1601 C1625 0.950 . S
H1602 C1626 0.950 . S
H1603 C1627 0.951 . S
H1604 C1629 0.951 . S
H1605 C1631 0.950 . S
H1606 C1632 0.950 . S
H1607 C1634 0.950 . S
H1608 C1637 0.950 . S
H1609 C1638 0.950 . S
H1610 C1640 0.950 . S
H1611 C1641 0.950 . S
C1612 H1594 0.951 . S
C1612 C1613 1.366 . S
C1612 C1614 1.388 . S
C1613 C1612 1.366 . S
C1613 C1617 1.385 . S
C1614 H1595 0.951 . S
C1614 C1612 1.388 . S
C1614 C1615 1.366 . S
C1615 C1614 1.366 . S
C1615 C1616 1.414 . S
C1615 C1618 1.499 . S
C1616 H1596 0.950 . S
C1616 C1615 1.414 . S
C1616 C1617 1.374 . S
C1617 H1597 0.950 . S
C1617 C1613 1.385 . S
C1617 C1616 1.374 . S
C1618 C1615 1.499 . S
C1618 C1619 1.373 1_545 S
C1618 C1620 1.389 . S
C1619 H1598 0.950 . S
C1619 C1618 1.373 1_565 S
C1619 C1635 1.377 . S
C1620 C1618 1.389 . S
C1620 C1621 1.524 . S
C1620 C1634 1.377 . S
C1621 C1620 1.524 . S
C1621 C1622 1.397 . S
C1621 C1626 1.363 . S
C1622 H1599 0.950 . S
C1622 C1621 1.397 . S
C1622 C1623 1.334 . S
C1623 H1600 0.950 . S
C1623 C1622 1.334 . S
C1623 C1624 1.287 . S
C1624 C1623 1.287 . S
C1624 C1625 1.524 . S
C1624 H1643 0.913 . S
C1625 H1601 0.950 . S
C1625 C1624 1.524 . S
C1625 C1626 1.415 . S
C1626 H1602 0.950 . S
C1626 C1621 1.363 . S
C1626 C1625 1.415 . S
C1627 H1603 0.951 . S
C1627 C1628 1.366 . S
C1627 C1629 1.388 . S
C1628 C1627 1.366 . S
C1628 C1632 1.385 . S
C1629 H1604 0.951 . S
C1629 C1627 1.388 . S
C1629 C1630 1.366 . S
C1630 C1629 1.366 . S
C1630 C1631 1.414 . S
C1630 C1633 1.499 . S
C1631 H1605 0.950 . S
C1631 C1630 1.414 . S
C1631 C1632 1.374 . S
C1632 H1606 0.950 . S
C1632 C1628 1.385 . S
C1632 C1631 1.374 . S
C1633 C1630 1.499 . S
C1633 C1634 1.373 1_565 S
C1633 C1635 1.389 . S
C1634 H1607 0.950 . S
C1634 C1620 1.377 . S
C1634 C1633 1.373 1_545 S
C1635 C1619 1.377 . S
C1635 C1633 1.389 . S
C1635 C1636 1.524 . S
C1636 C1635 1.524 . S
C1636 C1637 1.397 . S
C1636 C1641 1.363 . S
C1637 H1608 0.950 . S
C1637 C1636 1.397 . S
C1637 C1638 1.334 . S
C1638 H1609 0.950 . S
C1638 C1637 1.334 . S
C1638 C1639 1.287 . S
C1639 C1638 1.287 . S
C1639 C1640 1.524 . S
C1639 H1642 0.999 . S
C1640 H1610 0.950 . S
C1640 C1639 1.524 . S
C1640 C1641 1.415 . S
C1641 H1611 0.950 . S
C1641 C1636 1.363 . S
C1641 C1640 1.415 . S
H1642 C1639 0.999 . S
H1643 C1624 0.913 . S
H1644 C1662 0.951 . S
H1645 C1664 0.951 . S
H1646 C1666 0.950 . S
H1647 C1667 0.950 . S
H1648 C1669 0.951 . S
H1649 C1672 0.950 . S
H1650 C1673 0.950 . S
H1651 C1675 0.950 . S
H1652 C1676 0.950 . S
H1653 C1677 0.951 . S
H1654 C1679 0.951 . S
H1655 C1681 0.950 . S
H1656 C1682 0.950 . S
H1657 C1684 0.951 . S
H1658 C1687 0.950 . S
H1659 C1688 0.950 . S
H1660 C1690 0.950 . S
H1661 C1691 0.950 . S
C1662 H1644 0.951 . S
C1662 C1663 1.366 . S
C1662 C1664 1.388 . S
C1663 C1662 1.366 . S
C1663 C1667 1.385 . S
C1664 H1645 0.951 . S
C1664 C1662 1.388 . S
C1664 C1665 1.366 . S
C1665 C1664 1.366 . S
C1665 C1666 1.414 . S
C1665 C1668 1.499 . S
C1666 H1646 0.950 . S
C1666 C1665 1.414 . S
C1666 C1667 1.374 . S
C1667 H1647 0.950 . S
C1667 C1663 1.385 . S
C1667 C1666 1.374 . S
C1668 C1665 1.499 . S
C1668 C1669 1.359 1_565 S
C1668 C1670 1.389 . S
C1669 H1648 0.951 . S
C1669 C1668 1.359 1_545 S
C1669 C1685 1.390 . S
C1670 C1668 1.389 . S
C1670 C1671 1.524 . S
C1670 C1684 1.390 . S
C1671 C1670 1.524 . S
C1671 C1672 1.397 . S
C1671 C1676 1.363 . S
C1672 H1649 0.950 . S
C1672 C1671 1.397 . S
C1672 C1673 1.334 . S
C1673 H1650 0.950 . S
C1673 C1672 1.334 . S
C1673 C1674 1.287 . S
C1674 C1673 1.287 . S
C1674 C1675 1.524 . S
C1674 H1693 0.913 . S
C1675 H1651 0.950 . S
C1675 C1674 1.524 . S
C1675 C1676 1.415 . S
C1676 H1652 0.950 . S
C1676 C1671 1.363 . S
C1676 C1675 1.415 . S
C1677 H1653 0.951 . S
C1677 C1678 1.366 . S
C1677 C1679 1.388 . S
C1678 C1677 1.366 . S
C1678 C1682 1.385 . S
C1679 H1654 0.951 . S
C1679 C1677 1.388 . S
C1679 C1680 1.366 . S
C1680 C1679 1.366 . S
C1680 C1681 1.414 . S
C1680 C1683 1.499 . S
C1681 H1655 0.950 . S
C1681 C1680 1.414 . S
C1681 C1682 1.374 . S
C1682 H1656 0.950 . S
C1682 C1678 1.385 . S
C1682 C1681 1.374 . S
C1683 C1680 1.499 . S
C1683 C1684 1.359 1_545 S
C1683 C1685 1.389 . S
C1684 H1657 0.951 . S
C1684 C1670 1.390 . S
C1684 C1683 1.359 1_565 S
C1685 C1669 1.390 . S
C1685 C1683 1.389 . S
C1685 C1686 1.524 . S
C1686 C1685 1.524 . S
C1686 C1687 1.397 . S
C1686 C1691 1.363 . S
C1687 H1658 0.950 . S
C1687 C1686 1.397 . S
C1687 C1688 1.334 . S
C1688 H1659 0.950 . S
C1688 C1687 1.334 . S
C1688 C1689 1.287 . S
C1689 C1688 1.287 . S
C1689 C1690 1.524 . S
C1689 H1692 0.999 . S
C1690 H1660 0.950 . S
C1690 C1689 1.524 . S
C1690 C1691 1.415 . S
C1691 H1661 0.950 . S
C1691 C1686 1.363 . S
C1691 C1690 1.415 . S
H1692 C1689 0.999 . S
H1693 C1674 0.913 . S
H1694 C1712 0.951 . S
H1695 C1714 0.951 . S
H1696 C1716 0.950 . S
H1697 C1717 0.950 . S
H1698 C1719 0.950 . S
H1699 C1722 0.950 . S
H1700 C1723 0.950 . S
H1701 C1725 0.950 . S
H1702 C1726 0.950 . S
H1703 C1727 0.951 . S
H1704 C1729 0.951 . S
H1705 C1731 0.950 . S
H1706 C1732 0.950 . S
H1707 C1734 0.950 . S
H1708 C1737 0.950 . S
H1709 C1738 0.950 . S
H1710 C1740 0.950 . S
H1711 C1741 0.950 . S
C1712 H1694 0.951 . S
C1712 C1713 1.366 . S
C1712 C1714 1.388 . S
C1713 C1712 1.366 . S
C1713 C1717 1.385 . S
C1714 H1695 0.951 . S
C1714 C1712 1.388 . S
C1714 C1715 1.366 . S
C1715 C1714 1.366 . S
C1715 C1716 1.414 . S
C1715 C1718 1.499 . S
C1716 H1696 0.950 . S
C1716 C1715 1.414 . S
C1716 C1717 1.374 . S
C1717 H1697 0.950 . S
C1717 C1713 1.385 . S
C1717 C1716 1.374 . S
C1718 C1715 1.499 . S
C1718 C1719 1.373 . S
C1718 C1720 1.389 . S
C1719 H1698 0.950 . S
C1719 C1718 1.373 . S
C1719 C1735 1.377 1_455 S
C1720 C1718 1.389 . S
C1720 C1721 1.524 . S
C1720 C1734 1.377 1_455 S
C1721 C1720 1.524 . S
C1721 C1722 1.397 . S
C1721 C1726 1.363 . S
C1722 H1699 0.950 . S
C1722 C1721 1.397 . S
C1722 C1723 1.334 . S
C1723 H1700 0.950 . S
C1723 C1722 1.334 . S
C1723 C1724 1.287 . S
C1724 C1723 1.287 . S
C1724 C1725 1.524 . S
C1724 H1743 0.913 . S
C1725 H1701 0.950 . S
C1725 C1724 1.524 . S
C1725 C1726 1.415 . S
C1726 H1702 0.950 . S
C1726 C1721 1.363 . S
C1726 C1725 1.415 . S
C1727 H1703 0.951 . S
C1727 C1728 1.366 . S
C1727 C1729 1.388 . S
C1728 C1727 1.366 . S
C1728 C1732 1.385 . S
C1729 H1704 0.951 . S
C1729 C1727 1.388 . S
C1729 C1730 1.366 . S
C1730 C1729 1.366 . S
C1730 C1731 1.414 . S
C1730 C1733 1.499 . S
C1731 H1705 0.950 . S
C1731 C1730 1.414 . S
C1731 C1732 1.374 . S
C1732 H1706 0.950 . S
C1732 C1728 1.385 . S
C1732 C1731 1.374 . S
C1733 C1730 1.499 . S
C1733 C1734 1.373 . S
C1733 C1735 1.389 . S
C1734 H1707 0.950 . S
C1734 C1720 1.377 1_655 S
C1734 C1733 1.373 . S
C1735 C1719 1.377 1_655 S
C1735 C1733 1.389 . S
C1735 C1736 1.524 . S
C1736 C1735 1.524 . S
C1736 C1737 1.397 . S
C1736 C1741 1.363 . S
C1737 H1708 0.950 . S
C1737 C1736 1.397 . S
C1737 C1738 1.334 . S
C1738 H1709 0.950 . S
C1738 C1737 1.334 . S
C1738 C1739 1.287 . S
C1739 C1738 1.287 . S
C1739 C1740 1.524 . S
C1739 H1742 0.999 . S
C1740 H1710 0.950 . S
C1740 C1739 1.524 . S
C1740 C1741 1.415 . S
C1741 H1711 0.950 . S
C1741 C1736 1.363 . S
C1741 C1740 1.415 . S
H1742 C1739 0.999 . S
H1743 C1724 0.913 . S
H1744 C1762 0.951 . S
H1745 C1764 0.951 . S
H1746 C1766 0.950 . S
H1747 C1767 0.950 . S
H1748 C1769 0.950 . S
H1749 C1772 0.950 . S
H1750 C1773 0.950 . S
H1751 C1775 0.950 . S
H1752 C1776 0.950 . S
H1753 C1777 0.951 . S
H1754 C1779 0.951 . S
H1755 C1781 0.950 . S
H1756 C1782 0.950 . S
H1757 C1784 0.950 . S
H1758 C1787 0.950 . S
H1759 C1788 0.950 . S
H1760 C1790 0.950 . S
H1761 C1791 0.950 . S
C1762 H1744 0.951 . S
C1762 C1763 1.366 . S
C1762 C1764 1.388 . S
C1763 C1762 1.366 . S
C1763 C1767 1.385 . S
C1764 H1745 0.951 . S
C1764 C1762 1.388 . S
C1764 C1765 1.366 . S
C1765 C1764 1.366 . S
C1765 C1766 1.414 . S
C1765 C1768 1.499 . S
C1766 H1746 0.950 . S
C1766 C1765 1.414 . S
C1766 C1767 1.374 . S
C1767 H1747 0.950 . S
C1767 C1763 1.385 . S
C1767 C1766 1.374 . S
C1768 C1765 1.499 . S
C1768 C1769 1.373 . S
C1768 C1770 1.389 . S
C1769 H1748 0.950 . S
C1769 C1768 1.373 . S
C1769 C1785 1.377 . S
C1770 C1768 1.389 . S
C1770 C1771 1.524 . S
C1770 C1784 1.377 . S
C1771 C1770 1.524 . S
C1771 C1772 1.397 . S
C1771 C1776 1.363 . S
C1772 H1749 0.950 . S
C1772 C1771 1.397 . S
C1772 C1773 1.334 . S
C1773 H1750 0.950 . S
C1773 C1772 1.334 . S
C1773 C1774 1.287 . S
C1774 C1773 1.287 . S
C1774 C1775 1.524 . S
C1774 H1793 0.913 . S
C1775 H1751 0.950 . S
C1775 C1774 1.524 . S
C1775 C1776 1.415 . S
C1776 H1752 0.950 . S
C1776 C1771 1.363 . S
C1776 C1775 1.415 . S
C1777 H1753 0.951 . S
C1777 C1778 1.366 . S
C1777 C1779 1.388 . S
C1778 C1777 1.366 . S
C1778 C1782 1.385 . S
C1779 H1754 0.951 . S
C1779 C1777 1.388 . S
C1779 C1780 1.366 . S
C1780 C1779 1.366 . S
C1780 C1781 1.414 . S
C1780 C1783 1.499 . S
C1781 H1755 0.950 . S
C1781 C1780 1.414 . S
C1781 C1782 1.374 . S
C1782 H1756 0.950 . S
C1782 C1778 1.385 . S
C1782 C1781 1.374 . S
C1783 C1780 1.499 . S
C1783 C1784 1.373 . S
C1783 C1785 1.389 . S
C1784 H1757 0.950 . S
C1784 C1770 1.377 . S
C1784 C1783 1.373 . S
C1785 C1769 1.377 . S
C1785 C1783 1.389 . S
C1785 C1786 1.524 . S
C1786 C1785 1.524 . S
C1786 C1787 1.397 . S
C1786 C1791 1.363 . S
C1787 H1758 0.950 . S
C1787 C1786 1.397 . S
C1787 C1788 1.334 . S
C1788 H1759 0.950 . S
C1788 C1787 1.334 . S
C1788 C1789 1.287 . S
C1789 C1788 1.287 . S
C1789 C1790 1.524 . S
C1789 H1792 0.999 . S
C1790 H1760 0.950 . S
C1790 C1789 1.524 . S
C1790 C1791 1.415 . S
C1791 H1761 0.950 . S
C1791 C1786 1.363 . S
C1791 C1790 1.415 . S
H1792 C1789 0.999 . S
H1793 C1774 0.913 . S
H1794 C1812 0.951 . S
H1795 C1814 0.951 . S
H1796 C1816 0.950 . S
H1797 C1817 0.950 . S
H1798 C1819 0.950 . S
H1799 C1822 0.950 . S
H1800 C1823 0.950 . S
H1801 C1825 0.950 . S
H1802 C1826 0.950 . S
H1803 C1827 0.951 . S
H1804 C1829 0.951 . S
H1805 C1831 0.950 . S
H1806 C1832 0.950 . S
H1807 C1834 0.950 . S
H1808 C1837 0.950 . S
H1809 C1838 0.950 . S
H1810 C1840 0.950 . S
H1811 C1841 0.950 . S
C1812 H1794 0.951 . S
C1812 C1813 1.366 . S
C1812 C1814 1.388 . S
C1813 C1812 1.366 . S
C1813 C1817 1.385 . S
C1814 H1795 0.951 . S
C1814 C1812 1.388 . S
C1814 C1815 1.366 . S
C1815 C1814 1.366 . S
C1815 C1816 1.414 . S
C1815 C1818 1.499 . S
C1816 H1796 0.950 . S
C1816 C1815 1.414 . S
C1816 C1817 1.374 . S
C1817 H1797 0.950 . S
C1817 C1813 1.385 . S
C1817 C1816 1.374 . S
C1818 C1815 1.499 . S
C1818 C1819 1.373 . S
C1818 C1820 1.389 . S
C1819 H1798 0.950 . S
C1819 C1818 1.373 . S
C1819 C1835 1.377 . S
C1820 C1818 1.389 . S
C1820 C1821 1.524 . S
C1820 C1834 1.377 . S
C1821 C1820 1.524 . S
C1821 C1822 1.397 . S
C1821 C1826 1.363 . S
C1822 H1799 0.950 . S
C1822 C1821 1.397 . S
C1822 C1823 1.334 . S
C1823 H1800 0.950 . S
C1823 C1822 1.334 . S
C1823 C1824 1.287 . S
C1824 C1823 1.287 . S
C1824 C1825 1.524 . S
C1824 H1843 0.913 . S
C1825 H1801 0.950 . S
C1825 C1824 1.524 . S
C1825 C1826 1.415 . S
C1826 H1802 0.950 . S
C1826 C1821 1.363 . S
C1826 C1825 1.415 . S
C1827 H1803 0.951 . S
C1827 C1828 1.366 . S
C1827 C1829 1.388 . S
C1828 C1827 1.366 . S
C1828 C1832 1.385 . S
C1829 H1804 0.951 . S
C1829 C1827 1.388 . S
C1829 C1830 1.366 . S
C1830 C1829 1.366 . S
C1830 C1831 1.414 . S
C1830 C1833 1.499 . S
C1831 H1805 0.950 . S
C1831 C1830 1.414 . S
C1831 C1832 1.374 . S
C1832 H1806 0.950 . S
C1832 C1828 1.385 . S
C1832 C1831 1.374 . S
C1833 C1830 1.499 . S
C1833 C1834 1.373 . S
C1833 C1835 1.389 . S
C1834 H1807 0.950 . S
C1834 C1820 1.377 . S
C1834 C1833 1.373 . S
C1835 C1819 1.377 . S
C1835 C1833 1.389 . S
C1835 C1836 1.524 . S
C1836 C1835 1.524 . S
C1836 C1837 1.397 . S
C1836 C1841 1.363 . S
C1837 H1808 0.950 . S
C1837 C1836 1.397 . S
C1837 C1838 1.334 . S
C1838 H1809 0.950 . S
C1838 C1837 1.334 . S
C1838 C1839 1.287 . S
C1839 C1838 1.287 . S
C1839 C1840 1.524 . S
C1839 H1842 0.999 . S
C1840 H1810 0.950 . S
C1840 C1839 1.524 . S
C1840 C1841 1.415 . S
C1841 H1811 0.950 . S
C1841 C1836 1.363 . S
C1841 C1840 1.415 . S
H1842 C1839 0.999 . S
H1843 C1824 0.913 . S
H1844 C1862 0.951 . S
H1845 C1864 0.951 . S
H1846 C1866 0.950 . S
H1847 C1867 0.950 . S
H1848 C1869 0.950 . S
H1849 C1872 0.950 . S
H1850 C1873 0.950 . S
H1851 C1875 0.950 . S
H1852 C1876 0.950 . S
H1853 C1877 0.951 . S
H1854 C1879 0.951 . S
H1855 C1881 0.950 . S
H1856 C1882 0.950 . S
H1857 C1884 0.950 . S
H1858 C1887 0.950 . S
H1859 C1888 0.950 . S
H1860 C1890 0.950 . S
H1861 C1891 0.950 . S
C1862 H1844 0.951 . S
C1862 C1863 1.366 . S
C1862 C1864 1.388 . S
C1863 C1862 1.366 . S
C1863 C1867 1.385 . S
C1864 H1845 0.951 . S
C1864 C1862 1.388 . S
C1864 C1865 1.366 . S
C1865 C1864 1.366 . S
C1865 C1866 1.414 . S
C1865 C1868 1.499 . S
C1866 H1846 0.950 . S
C1866 C1865 1.414 . S
C1866 C1867 1.374 . S
C1867 H1847 0.950 . S
C1867 C1863 1.385 . S
C1867 C1866 1.374 . S
C1868 C1865 1.499 . S
C1868 C1869 1.373 . S
C1868 C1870 1.389 . S
C1869 H1848 0.950 . S
C1869 C1868 1.373 . S
C1869 C1885 1.377 . S
C1870 C1868 1.389 . S
C1870 C1871 1.524 . S
C1870 C1884 1.377 . S
C1871 C1870 1.524 . S
C1871 C1872 1.397 . S
C1871 C1876 1.363 . S
C1872 H1849 0.950 . S
C1872 C1871 1.397 . S
C1872 C1873 1.334 . S
C1873 H1850 0.950 . S
C1873 C1872 1.334 . S
C1873 C1874 1.287 . S
C1874 C1873 1.287 . S
C1874 C1875 1.524 . S
C1874 H1893 0.913 . S
C1875 H1851 0.950 . S
C1875 C1874 1.524 . S
C1875 C1876 1.415 . S
C1876 H1852 0.950 . S
C1876 C1871 1.363 . S
C1876 C1875 1.415 . S
C1877 H1853 0.951 . S
C1877 C1878 1.366 . S
C1877 C1879 1.388 . S
C1878 C1877 1.366 . S
C1878 C1882 1.385 . S
C1879 H1854 0.951 . S
C1879 C1877 1.388 . S
C1879 C1880 1.366 . S
C1880 C1879 1.366 . S
C1880 C1881 1.414 . S
C1880 C1883 1.499 . S
C1881 H1855 0.950 . S
C1881 C1880 1.414 . S
C1881 C1882 1.374 . S
C1882 H1856 0.950 . S
C1882 C1878 1.385 . S
C1882 C1881 1.374 . S
C1883 C1880 1.499 . S
C1883 C1884 1.373 . S
C1883 C1885 1.389 . S
C1884 H1857 0.950 . S
C1884 C1870 1.377 . S
C1884 C1883 1.373 . S
C1885 C1869 1.377 . S
C1885 C1883 1.389 . S
C1885 C1886 1.524 . S
C1886 C1885 1.524 . S
C1886 C1887 1.397 . S
C1886 C1891 1.363 . S
C1887 H1858 0.950 . S
C1887 C1886 1.397 . S
C1887 C1888 1.334 . S
C1888 H1859 0.950 . S
C1888 C1887 1.334 . S
C1888 C1889 1.287 . S
C1889 C1888 1.287 . S
C1889 C1890 1.524 . S
C1889 H1892 0.999 . S
C1890 H1860 0.950 . S
C1890 C1889 1.524 . S
C1890 C1891 1.415 . S
C1891 H1861 0.950 . S
C1891 C1886 1.363 . S
C1891 C1890 1.415 . S
H1892 C1889 0.999 . S
H1893 C1874 0.913 . S
H1894 C1912 0.951 . S
H1895 C1914 0.951 . S
H1896 C1916 0.950 . S
H1897 C1917 0.950 . S
H1898 C1919 0.950 . S
H1899 C1922 0.950 . S
H1900 C1923 0.950 . S
H1901 C1925 0.950 . S
H1902 C1926 0.950 . S
H1903 C1927 0.951 . S
H1904 C1929 0.951 . S
H1905 C1931 0.950 . S
H1906 C1932 0.950 . S
H1907 C1934 0.950 . S
H1908 C1937 0.950 . S
H1909 C1938 0.950 . S
H1910 C1940 0.950 . S
H1911 C1941 0.950 . S
C1912 H1894 0.951 . S
C1912 C1913 1.366 . S
C1912 C1914 1.388 . S
C1913 C1912 1.366 . S
C1913 C1917 1.385 . S
C1914 H1895 0.951 . S
C1914 C1912 1.388 . S
C1914 C1915 1.366 . S
C1915 C1914 1.366 . S
C1915 C1916 1.414 . S
C1915 C1918 1.499 . S
C1916 H1896 0.950 . S
C1916 C1915 1.414 . S
C1916 C1917 1.374 . S
C1917 H1897 0.950 . S
C1917 C1913 1.385 . S
C1917 C1916 1.374 . S
C1918 C1915 1.499 . S
C1918 C1919 1.373 . S
C1918 C1920 1.389 . S
C1919 H1898 0.950 . S
C1919 C1918 1.373 . S
C1919 C1935 1.377 . S
C1920 C1918 1.389 . S
C1920 C1921 1.524 . S
C1920 C1934 1.377 . S
C1921 C1920 1.524 . S
C1921 C1922 1.397 . S
C1921 C1926 1.363 . S
C1922 H1899 0.950 . S
C1922 C1921 1.397 . S
C1922 C1923 1.334 . S
C1923 H1900 0.950 . S
C1923 C1922 1.334 . S
C1923 C1924 1.287 . S
C1924 C1923 1.287 . S
C1924 C1925 1.524 . S
C1924 H1943 0.913 . S
C1925 H1901 0.950 . S
C1925 C1924 1.524 . S
C1925 C1926 1.415 . S
C1926 H1902 0.950 . S
C1926 C1921 1.363 . S
C1926 C1925 1.415 . S
C1927 H1903 0.951 . S
C1927 C1928 1.366 . S
C1927 C1929 1.388 . S
C1928 C1927 1.366 . S
C1928 C1932 1.385 . S
C1929 H1904 0.951 . S
C1929 C1927 1.388 . S
C1929 C1930 1.366 . S
C1930 C1929 1.366 . S
C1930 C1931 1.414 . S
C1930 C1933 1.499 . S
C1931 H1905 0.950 . S
C1931 C1930 1.414 . S
C1931 C1932 1.374 . S
C1932 H1906 0.950 . S
C1932 C1928 1.385 . S
C1932 C1931 1.374 . S
C1933 C1930 1.499 . S
C1933 C1934 1.373 . S
C1933 C1935 1.389 . S
C1934 H1907 0.950 . S
C1934 C1920 1.377 . S
C1934 C1933 1.373 . S
C1935 C1919 1.377 . S
C1935 C1933 1.389 . S
C1935 C1936 1.524 . S
C1936 C1935 1.524 . S
C1936 C1937 1.397 . S
C1936 C1941 1.363 . S
C1937 H1908 0.950 . S
C1937 C1936 1.397 . S
C1937 C1938 1.334 . S
C1938 H1909 0.950 . S
C1938 C1937 1.334 . S
C1938 C1939 1.287 . S
C1939 C1938 1.287 . S
C1939 C1940 1.524 . S
C1939 H1942 0.999 . S
C1940 H1910 0.950 . S
C1940 C1939 1.524 . S
C1940 C1941 1.415 . S
C1941 H1911 0.950 . S
C1941 C1936 1.363 . S
C1941 C1940 1.415 . S
H1942 C1939 0.999 . S
H1943 C1924 0.913 . S
H1944 C1962 0.951 . S
H1945 C1964 0.951 . S
H1946 C1966 0.950 . S
H1947 C1967 0.945 1_455 S
H1948 C1969 0.950 . S
H1949 C1972 0.950 . S
H1950 C1973 0.950 . S
H1951 C1975 0.950 . S
H1952 C1976 0.950 . S
H1953 C1977 0.951 . S
H1954 C1979 0.951 . S
H1955 C1981 0.950 . S
H1956 C1982 0.950 . S
H1957 C1984 0.950 . S
H1958 C1987 0.950 . S
H1959 C1988 0.950 . S
H1960 C1990 0.950 . S
H1961 C1991 0.950 . S
C1962 H1944 0.951 . S
C1962 C1963 1.366 . S
C1962 C1964 1.388 1_455 S
C1963 C1962 1.366 . S
C1963 C1967 1.375 1_455 S
C1964 H1945 0.951 . S
C1964 C1962 1.388 1_655 S
C1964 C1965 1.366 . S
C1965 C1964 1.366 . S
C1965 C1966 1.414 . S
C1965 C1968 1.499 . S
C1966 H1946 0.950 . S
C1966 C1965 1.414 . S
C1966 C1967 1.389 . S
C1967 H1947 0.945 1_655 S
C1967 C1963 1.375 1_655 S
C1967 C1966 1.389 . S
C1968 C1965 1.499 . S
C1968 C1969 1.373 . S
C1968 C1970 1.389 . S
C1969 H1948 0.950 . S
C1969 C1968 1.373 . S
C1969 C1985 1.377 . S
C1970 C1968 1.389 . S
C1970 C1971 1.524 . S
C1970 C1984 1.377 . S
C1971 C1970 1.524 . S
C1971 C1972 1.397 . S
C1971 C1976 1.363 . S
C1972 H1949 0.950 . S
C1972 C1971 1.397 . S
C1972 C1973 1.334 . S
C1973 H1950 0.950 . S
C1973 C1972 1.334 . S
C1973 C1974 1.287 . S
C1974 C1973 1.287 . S
C1974 C1975 1.524 . S
C1974 H1993 0.913 . S
C1975 H1951 0.950 . S
C1975 C1974 1.524 . S
C1975 C1976 1.415 . S
C1976 H1952 0.950 . S
C1976 C1971 1.363 . S
C1976 C1975 1.415 . S
C1977 H1953 0.951 . S
C1977 C1978 1.366 . S
C1977 C1979 1.388 . S
C1978 C1977 1.366 . S
C1978 C1982 1.385 . S
C1979 H1954 0.951 . S
C1979 C1977 1.388 . S
C1979 C1980 1.366 . S
C1980 C1979 1.366 . S
C1980 C1981 1.414 . S
C1980 C1983 1.499 . S
C1981 H1955 0.950 . S
C1981 C1980 1.414 . S
C1981 C1982 1.374 . S
C1982 H1956 0.950 . S
C1982 C1978 1.385 . S
C1982 C1981 1.374 . S
C1983 C1980 1.499 . S
C1983 C1984 1.373 . S
C1983 C1985 1.389 . S
C1984 H1957 0.950 . S
C1984 C1970 1.377 . S
C1984 C1983 1.373 . S
C1985 C1969 1.377 . S
C1985 C1983 1.389 . S
C1985 C1986 1.524 . S
C1986 C1985 1.524 . S
C1986 C1987 1.397 . S
C1986 C1991 1.363 . S
C1987 H1958 0.950 . S
C1987 C1986 1.397 . S
C1987 C1988 1.334 . S
C1988 H1959 0.950 . S
C1988 C1987 1.334 . S
C1988 C1989 1.287 . S
C1989 C1988 1.287 . S
C1989 C1990 1.524 . S
C1989 H1992 0.999 . S
C1990 H1960 0.950 . S
C1990 C1989 1.524 . S
C1990 C1991 1.415 . S
C1991 H1961 0.950 . S
C1991 C1986 1.363 . S
C1991 C1990 1.415 . S
H1992 C1989 0.999 . S
H1993 C1974 0.913 . S
H1994 C2012 0.951 . S
H1995 C2014 0.951 . S
H1996 C2016 0.950 . S
H1997 C2017 0.950 . S
H1998 C2019 0.950 . S
H1999 C2022 0.950 . S
H2000 C2023 0.950 . S
H2001 C2025 0.950 . S
H2002 C2026 0.950 . S
H2003 C2027 0.941 1_545 S
H2004 C2029 0.951 . S
H2005 C2031 0.950 . S
H2006 C2032 0.950 . S
H2007 C2034 0.950 . S
H2008 C2037 0.950 . S
H2009 C2038 0.950 . S
H2010 C2040 0.950 . S
H2011 C2041 0.950 . S
C2012 H1994 0.951 . S
C2012 C2013 1.366 . S
C2012 C2014 1.388 . S
C2013 C2012 1.366 . S
C2013 C2017 1.385 . S
C2014 H1995 0.951 . S
C2014 C2012 1.388 . S
C2014 C2015 1.366 . S
C2015 C2014 1.366 . S
C2015 C2016 1.414 . S
C2015 C2018 1.499 . S
C2016 H1996 0.950 . S
C2016 C2015 1.414 . S
C2016 C2017 1.374 . S
C2017 H1997 0.950 . S
C2017 C2013 1.385 . S
C2017 C2016 1.374 . S
C2018 C2015 1.499 . S
C2018 C2019 1.373 . S
C2018 C2020 1.389 . S
C2019 H1998 0.950 . S
C2019 C2018 1.373 . S
C2019 C2035 1.377 . S
C2020 C2018 1.389 . S
C2020 C2021 1.524 . S
C2020 C2034 1.377 . S
C2021 C2020 1.524 . S
C2021 C2022 1.397 . S
C2021 C2026 1.363 . S
C2022 H1999 0.950 . S
C2022 C2021 1.397 . S
C2022 C2023 1.334 . S
C2023 H2000 0.950 . S
C2023 C2022 1.334 . S
C2023 C2024 1.287 . S
C2024 C2023 1.287 . S
C2024 C2025 1.524 . S
C2024 H2043 0.913 . S
C2025 H2001 0.950 . S
C2025 C2024 1.524 . S
C2025 C2026 1.415 . S
C2026 H2002 0.950 . S
C2026 C2021 1.363 . S
C2026 C2025 1.415 . S
C2027 H2003 0.941 1_565 S
C2027 C2028 1.346 1_565 S
C2027 C2029 1.417 . S
C2028 C2027 1.346 1_545 S
C2028 C2032 1.385 . S
C2029 H2004 0.951 . S
C2029 C2027 1.417 . S
C2029 C2030 1.366 . S
C2030 C2029 1.366 . S
C2030 C2031 1.414 . S
C2030 C2033 1.499 . S
C2031 H2005 0.950 . S
C2031 C2030 1.414 . S
C2031 C2032 1.374 1_565 S
C2032 H2006 0.950 . S
C2032 C2028 1.385 . S
C2032 C2031 1.374 1_545 S
C2033 C2030 1.499 . S
C2033 C2034 1.373 . S
C2033 C2035 1.389 . S
C2034 H2007 0.950 . S
C2034 C2020 1.377 . S
C2034 C2033 1.373 . S
C2035 C2019 1.377 . S
C2035 C2033 1.389 . S
C2035 C2036 1.524 . S
C2036 C2035 1.524 . S
C2036 C2037 1.397 . S
C2036 C2041 1.363 . S
C2037 H2008 0.950 . S
C2037 C2036 1.397 . S
C2037 C2038 1.334 . S
C2038 H2009 0.950 . S
C2038 C2037 1.334 . S
C2038 C2039 1.287 . S
C2039 C2038 1.287 . S
C2039 C2040 1.524 . S
C2039 H2042 0.999 . S
C2040 H2010 0.950 . S
C2040 C2039 1.524 . S
C2040 C2041 1.415 . S
C2041 H2011 0.950 . S
C2041 C2036 1.363 . S
C2041 C2040 1.415 . S
H2042 C2039 0.999 . S
H2043 C2024 0.913 . S
H2044 C2062 0.946 1_655 S
H2045 C2064 0.951 . S
H2046 C2066 0.950 . S
H2047 C2067 0.950 . S
H2048 C2069 0.950 . S
H2049 C2072 0.950 . S
H2050 C2073 0.950 . S
H2051 C2075 0.950 . S
H2052 C2076 0.950 . S
H2053 C2077 0.951 . S
H2054 C2079 0.951 . S
H2055 C2081 0.950 . S
H2056 C2082 0.950 . S
H2057 C2084 0.950 . S
H2058 C2087 0.950 . S
H2059 C2088 0.950 . S
H2060 C2090 0.950 . S
H2061 C2091 0.950 . S
C2062 H2044 0.946 1_455 S
C2062 C2063 1.356 1_455 S
C2062 C2064 1.403 . S
C2063 C2062 1.356 1_655 S
C2063 C2067 1.385 . S
C2064 H2045 0.951 . S
C2064 C2062 1.403 . S
C2064 C2065 1.366 . S
C2065 C2064 1.366 . S
C2065 C2066 1.414 . S
C2065 C2068 1.499 . S
C2066 H2046 0.950 . S
C2066 C2065 1.414 . S
C2066 C2067 1.374 1_455 S
C2067 H2047 0.950 . S
C2067 C2063 1.385 . S
C2067 C2066 1.374 1_655 S
C2068 C2065 1.499 . S
C2068 C2069 1.373 . S
C2068 C2070 1.389 . S
C2069 H2048 0.950 . S
C2069 C2068 1.373 . S
C2069 C2085 1.377 . S
C2070 C2068 1.389 . S
C2070 C2071 1.524 . S
C2070 C2084 1.377 . S
C2071 C2070 1.524 . S
C2071 C2072 1.397 . S
C2071 C2076 1.363 . S
C2072 H2049 0.950 . S
C2072 C2071 1.397 . S
C2072 C2073 1.334 . S
C2073 H2050 0.950 . S
C2073 C2072 1.334 . S
C2073 C2074 1.287 . S
C2074 C2073 1.287 . S
C2074 C2075 1.524 . S
C2074 H2093 0.913 . S
C2075 H2051 0.950 . S
C2075 C2074 1.524 . S
C2075 C2076 1.415 . S
C2076 H2052 0.950 . S
C2076 C2071 1.363 . S
C2076 C2075 1.415 . S
C2077 H2053 0.951 . S
C2077 C2078 1.366 . S
C2077 C2079 1.388 . S
C2078 C2077 1.366 . S
C2078 C2082 1.385 . S
C2079 H2054 0.951 . S
C2079 C2077 1.388 . S
C2079 C2080 1.366 . S
C2080 C2079 1.366 . S
C2080 C2081 1.414 . S
C2080 C2083 1.499 . S
C2081 H2055 0.950 . S
C2081 C2080 1.414 . S
C2081 C2082 1.374 . S
C2082 H2056 0.950 . S
C2082 C2078 1.385 . S
C2082 C2081 1.374 . S
C2083 C2080 1.499 . S
C2083 C2084 1.373 . S
C2083 C2085 1.389 . S
C2084 H2057 0.950 . S
C2084 C2070 1.377 . S
C2084 C2083 1.373 . S
C2085 C2069 1.377 . S
C2085 C2083 1.389 . S
C2085 C2086 1.524 . S
C2086 C2085 1.524 . S
C2086 C2087 1.397 . S
C2086 C2091 1.363 . S
C2087 H2058 0.950 . S
C2087 C2086 1.397 . S
C2087 C2088 1.334 . S
C2088 H2059 0.950 . S
C2088 C2087 1.334 . S
C2088 C2089 1.287 . S
C2089 C2088 1.287 . S
C2089 C2090 1.524 . S
C2089 H2092 0.999 . S
C2090 H2060 0.950 . S
C2090 C2089 1.524 . S
C2090 C2091 1.415 . S
C2091 H2061 0.950 . S
C2091 C2086 1.363 . S
C2091 C2090 1.415 . S
H2092 C2089 0.999 . S
H2093 C2074 0.913 . S
H2094 C2112 0.951 . S
H2095 C2114 0.951 . S
H2096 C2116 0.950 . S
H2097 C2117 0.950 . S
H2098 C2119 0.950 . S
H2099 C2122 0.950 . S
H2100 C2123 0.950 . S
H2101 C2125 0.950 . S
H2102 C2126 0.950 . S
H2103 C2127 0.951 . S
H2104 C2129 0.951 . S
H2105 C2131 0.950 . S
H2106 C2132 0.950 . S
H2107 C2134 0.950 . S
H2108 C2137 0.950 . S
H2109 C2138 0.950 . S
H2110 C2140 0.950 . S
H2111 C2141 0.950 . S
C2112 H2094 0.951 . S
C2112 C2113 1.366 . S
C2112 C2114 1.388 . S
C2113 C2112 1.366 . S
C2113 C2117 1.385 . S
C2114 H2095 0.951 . S
C2114 C2112 1.388 . S
C2114 C2115 1.366 . S
C2115 C2114 1.366 . S
C2115 C2116 1.414 . S
C2115 C2118 1.499 . S
C2116 H2096 0.950 . S
C2116 C2115 1.414 . S
C2116 C2117 1.374 . S
C2117 H2097 0.950 . S
C2117 C2113 1.385 . S
C2117 C2116 1.374 . S
C2118 C2115 1.499 . S
C2118 C2119 1.373 . S
C2118 C2120 1.389 . S
C2119 H2098 0.950 . S
C2119 C2118 1.373 . S
C2119 C2135 1.377 . S
C2120 C2118 1.389 . S
C2120 C2121 1.524 . S
C2120 C2134 1.377 . S
C2121 C2120 1.524 . S
C2121 C2122 1.397 . S
C2121 C2126 1.363 . S
C2122 H2099 0.950 . S
C2122 C2121 1.397 . S
C2122 C2123 1.334 . S
C2123 H2100 0.950 . S
C2123 C2122 1.334 . S
C2123 C2124 1.287 . S
C2124 C2123 1.287 . S
C2124 C2125 1.524 . S
C2124 H2143 0.913 . S
C2125 H2101 0.950 . S
C2125 C2124 1.524 . S
C2125 C2126 1.415 . S
C2126 H2102 0.950 . S
C2126 C2121 1.363 . S
C2126 C2125 1.415 . S
C2127 H2103 0.951 . S
C2127 C2128 1.366 . S
C2127 C2129 1.388 1_565 S
C2128 C2127 1.366 . S
C2128 C2132 1.385 . S
C2129 H2104 0.951 . S
C2129 C2127 1.388 1_545 S
C2129 C2130 1.366 . S
C2130 C2129 1.366 . S
C2130 C2131 1.414 . S
C2130 C2133 1.499 . S
C2131 H2105 0.950 . S
C2131 C2130 1.414 . S
C2131 C2132 1.374 1_545 S
C2132 H2106 0.950 . S
C2132 C2128 1.385 . S
C2132 C2131 1.374 1_565 S
C2133 C2130 1.499 . S
C2133 C2134 1.373 . S
C2133 C2135 1.389 . S
C2134 H2107 0.950 . S
C2134 C2120 1.377 . S
C2134 C2133 1.373 . S
C2135 C2119 1.377 . S
C2135 C2133 1.389 . S
C2135 C2136 1.524 . S
C2136 C2135 1.524 . S
C2136 C2137 1.397 . S
C2136 C2141 1.363 . S
C2137 H2108 0.950 . S
C2137 C2136 1.397 . S
C2137 C2138 1.334 . S
C2138 H2109 0.950 . S
C2138 C2137 1.334 . S
C2138 C2139 1.287 . S
C2139 C2138 1.287 . S
C2139 C2140 1.524 . S
C2139 H2142 0.999 . S
C2140 H2110 0.950 . S
C2140 C2139 1.524 . S
C2140 C2141 1.415 . S
C2141 H2111 0.950 . S
C2141 C2136 1.363 . S
C2141 C2140 1.415 . S
H2142 C2139 0.999 . S
H2143 C2124 0.913 . S
H2144 C2162 0.951 . S
H2145 C2164 0.951 . S
H2146 C2166 0.950 . S
H2147 C2167 0.950 . S
H2148 C2169 0.950 . S
H2149 C2172 0.950 . S
H2150 C2173 0.950 . S
H2151 C2175 0.950 . S
H2152 C2176 0.950 . S
H2153 C2177 0.951 . S
H2154 C2179 0.951 . S
H2155 C2181 0.950 . S
H2156 C2182 0.950 . S
H2157 C2184 0.950 . S
H2158 C2187 0.950 . S
H2159 C2188 0.950 . S
H2160 C2190 0.950 . S
H2161 C2191 0.950 . S
C2162 H2144 0.951 . S
C2162 C2163 1.366 . S
C2162 C2164 1.388 . S
C2163 C2162 1.366 . S
C2163 C2167 1.385 . S
C2164 H2145 0.951 . S
C2164 C2162 1.388 . S
C2164 C2165 1.366 . S
C2165 C2164 1.366 . S
C2165 C2166 1.414 . S
C2165 C2168 1.499 . S
C2166 H2146 0.950 . S
C2166 C2165 1.414 . S
C2166 C2167 1.374 . S
C2167 H2147 0.950 . S
C2167 C2163 1.385 . S
C2167 C2166 1.374 . S
C2168 C2165 1.499 . S
C2168 C2169 1.373 . S
C2168 C2170 1.389 . S
C2169 H2148 0.950 . S
C2169 C2168 1.373 . S
C2169 C2185 1.377 . S
C2170 C2168 1.389 . S
C2170 C2171 1.524 . S
C2170 C2184 1.377 . S
C2171 C2170 1.524 . S
C2171 C2172 1.397 . S
C2171 C2176 1.363 . S
C2172 H2149 0.950 . S
C2172 C2171 1.397 . S
C2172 C2173 1.334 . S
C2173 H2150 0.950 . S
C2173 C2172 1.334 . S
C2173 C2174 1.287 . S
C2174 C2173 1.287 . S
C2174 C2175 1.524 . S
C2174 H2193 0.913 . S
C2175 H2151 0.950 . S
C2175 C2174 1.524 . S
C2175 C2176 1.415 . S
C2176 H2152 0.950 . S
C2176 C2171 1.363 . S
C2176 C2175 1.415 . S
C2177 H2153 0.951 . S
C2177 C2178 1.366 . S
C2177 C2179 1.388 . S
C2178 C2177 1.366 . S
C2178 C2182 1.385 . S
C2179 H2154 0.951 . S
C2179 C2177 1.388 . S
C2179 C2180 1.366 . S
C2180 C2179 1.366 . S
C2180 C2181 1.414 . S
C2180 C2183 1.499 . S
C2181 H2155 0.950 . S
C2181 C2180 1.414 . S
C2181 C2182 1.374 . S
C2182 H2156 0.950 . S
C2182 C2178 1.385 . S
C2182 C2181 1.374 . S
C2183 C2180 1.499 . S
C2183 C2184 1.373 . S
C2183 C2185 1.389 . S
C2184 H2157 0.950 . S
C2184 C2170 1.377 . S
C2184 C2183 1.373 . S
C2185 C2169 1.377 . S
C2185 C2183 1.389 . S
C2185 C2186 1.524 . S
C2186 C2185 1.524 . S
C2186 C2187 1.397 . S
C2186 C2191 1.363 . S
C2187 H2158 0.950 . S
C2187 C2186 1.397 . S
C2187 C2188 1.334 . S
C2188 H2159 0.950 . S
C2188 C2187 1.334 . S
C2188 C2189 1.287 . S
C2189 C2188 1.287 . S
C2189 C2190 1.524 . S
C2189 H2192 0.999 . S
C2190 H2160 0.950 . S
C2190 C2189 1.524 . S
C2190 C2191 1.415 . S
C2191 H2161 0.950 . S
C2191 C2186 1.363 . S
C2191 C2190 1.415 . S
H2192 C2189 0.999 . S
H2193 C2174 0.913 . S
H2194 C2212 0.951 . S
H2195 C2214 0.951 . S
H2196 C2216 0.950 . S
H2197 C2217 0.950 . S
H2198 C2219 0.950 . S
H2199 C2222 0.950 . S
H2200 C2223 0.950 . S
H2201 C2225 0.950 . S
H2202 C2226 0.950 . S
H2203 C2227 0.951 . S
H2204 C2229 0.951 . S
H2205 C2231 0.950 . S
H2206 C2232 0.950 . S
H2207 C2234 0.950 . S
H2208 C2237 0.950 . S
H2209 C2238 0.950 . S
H2210 C2240 0.950 . S
H2211 C2241 0.950 . S
C2212 H2194 0.951 . S
C2212 C2213 1.366 . S
C2212 C2214 1.388 . S
C2213 C2212 1.366 . S
C2213 C2217 1.385 . S
C2214 H2195 0.951 . S
C2214 C2212 1.388 . S
C2214 C2215 1.366 . S
C2215 C2214 1.366 . S
C2215 C2216 1.414 . S
C2215 C2218 1.499 . S
C2216 H2196 0.950 . S
C2216 C2215 1.414 . S
C2216 C2217 1.374 . S
C2217 H2197 0.950 . S
C2217 C2213 1.385 . S
C2217 C2216 1.374 . S
C2218 C2215 1.499 . S
C2218 C2219 1.373 . S
C2218 C2220 1.389 . S
C2219 H2198 0.950 . S
C2219 C2218 1.373 . S
C2219 C2235 1.377 . S
C2220 C2218 1.389 . S
C2220 C2221 1.524 . S
C2220 C2234 1.377 . S
C2221 C2220 1.524 . S
C2221 C2222 1.397 . S
C2221 C2226 1.363 . S
C2222 H2199 0.950 . S
C2222 C2221 1.397 . S
C2222 C2223 1.334 . S
C2223 H2200 0.950 . S
C2223 C2222 1.334 . S
C2223 C2224 1.287 . S
C2224 C2223 1.287 . S
C2224 C2225 1.524 . S
C2224 H2243 0.913 . S
C2225 H2201 0.950 . S
C2225 C2224 1.524 . S
C2225 C2226 1.415 . S
C2226 H2202 0.950 . S
C2226 C2221 1.363 . S
C2226 C2225 1.415 . S
C2227 H2203 0.951 . S
C2227 C2228 1.366 . S
C2227 C2229 1.388 . S
C2228 C2227 1.366 . S
C2228 C2232 1.385 . S
C2229 H2204 0.951 . S
C2229 C2227 1.388 . S
C2229 C2230 1.366 . S
C2230 C2229 1.366 . S
C2230 C2231 1.414 . S
C2230 C2233 1.499 . S
C2231 H2205 0.950 . S
C2231 C2230 1.414 . S
C2231 C2232 1.374 . S
C2232 H2206 0.950 . S
C2232 C2228 1.385 . S
C2232 C2231 1.374 . S
C2233 C2230 1.499 . S
C2233 C2234 1.373 . S
C2233 C2235 1.389 . S
C2234 H2207 0.950 . S
C2234 C2220 1.377 . S
C2234 C2233 1.373 . S
C2235 C2219 1.377 . S
C2235 C2233 1.389 . S
C2235 C2236 1.524 . S
C2236 C2235 1.524 . S
C2236 C2237 1.397 . S
C2236 C2241 1.363 . S
C2237 H2208 0.950 . S
C2237 C2236 1.397 . S
C2237 C2238 1.334 . S
C2238 H2209 0.950 . S
C2238 C2237 1.334 . S
C2238 C2239 1.287 . S
C2239 C2238 1.287 . S
C2239 C2240 1.524 . S
C2239 H2242 0.999 . S
C2240 H2210 0.950 . S
C2240 C2239 1.524 . S
C2240 C2241 1.415 . S
C2241 H2211 0.950 . S
C2241 C2236 1.363 . S
C2241 C2240 1.415 . S
H2242 C2239 0.999 . S
H2243 C2224 0.913 . S
H2244 C2262 0.951 . S
H2245 C2264 0.951 . S
H2246 C2266 0.950 . S
H2247 C2267 0.950 . S
H2248 C2269 0.950 . S
H2249 C2272 0.950 . S
H2250 C2273 0.950 . S
H2251 C2275 0.950 . S
H2252 C2276 0.950 . S
H2253 C2277 0.951 . S
H2254 C2279 0.951 . S
H2255 C2281 0.950 . S
H2256 C2282 0.950 . S
H2257 C2284 0.950 . S
H2258 C2287 0.950 . S
H2259 C2288 0.950 . S
H2260 C2290 0.950 . S
H2261 C2291 0.950 . S
C2262 H2244 0.951 . S
C2262 C2263 1.366 . S
C2262 C2264 1.388 . S
C2263 C2262 1.366 . S
C2263 C2267 1.385 . S
C2264 H2245 0.951 . S
C2264 C2262 1.388 . S
C2264 C2265 1.366 . S
C2265 C2264 1.366 . S
C2265 C2266 1.414 . S
C2265 C2268 1.499 . S
C2266 H2246 0.950 . S
C2266 C2265 1.414 . S
C2266 C2267 1.374 . S
C2267 H2247 0.950 . S
C2267 C2263 1.385 . S
C2267 C2266 1.374 . S
C2268 C2265 1.499 . S
C2268 C2269 1.373 . S
C2268 C2270 1.389 . S
C2269 H2248 0.950 . S
C2269 C2268 1.373 . S
C2269 C2285 1.377 . S
C2270 C2268 1.389 . S
C2270 C2271 1.524 . S
C2270 C2284 1.377 . S
C2271 C2270 1.524 . S
C2271 C2272 1.397 . S
C2271 C2276 1.363 . S
C2272 H2249 0.950 . S
C2272 C2271 1.397 . S
C2272 C2273 1.334 . S
C2273 H2250 0.950 . S
C2273 C2272 1.334 . S
C2273 C2274 1.287 . S
C2274 C2273 1.287 . S
C2274 C2275 1.524 . S
C2274 H2293 0.913 . S
C2275 H2251 0.950 . S
C2275 C2274 1.524 . S
C2275 C2276 1.415 . S
C2276 H2252 0.950 . S
C2276 C2271 1.363 . S
C2276 C2275 1.415 . S
C2277 H2253 0.951 . S
C2277 C2278 1.366 . S
C2277 C2279 1.388 . S
C2278 C2277 1.366 . S
C2278 C2282 1.385 . S
C2279 H2254 0.951 . S
C2279 C2277 1.388 . S
C2279 C2280 1.366 . S
C2280 C2279 1.366 . S
C2280 C2281 1.414 . S
C2280 C2283 1.499 . S
C2281 H2255 0.950 . S
C2281 C2280 1.414 . S
C2281 C2282 1.374 . S
C2282 H2256 0.950 . S
C2282 C2278 1.385 . S
C2282 C2281 1.374 . S
C2283 C2280 1.499 . S
C2283 C2284 1.373 . S
C2283 C2285 1.389 . S
C2284 H2257 0.950 . S
C2284 C2270 1.377 . S
C2284 C2283 1.373 . S
C2285 C2269 1.377 . S
C2285 C2283 1.389 . S
C2285 C2286 1.524 . S
C2286 C2285 1.524 . S
C2286 C2287 1.397 . S
C2286 C2291 1.363 . S
C2287 H2258 0.950 . S
C2287 C2286 1.397 . S
C2287 C2288 1.334 . S
C2288 H2259 0.950 . S
C2288 C2287 1.334 . S
C2288 C2289 1.287 . S
C2289 C2288 1.287 . S
C2289 C2290 1.524 . S
C2289 H2292 0.999 . S
C2290 H2260 0.950 . S
C2290 C2289 1.524 . S
C2290 C2291 1.415 . S
C2291 H2261 0.950 . S
C2291 C2286 1.363 . S
C2291 C2290 1.415 . S
H2292 C2289 0.999 . S
H2293 C2274 0.913 . S
H2294 C2312 0.951 . S
H2295 C2314 0.951 . S
H2296 C2316 0.950 . S
H2297 C2317 0.950 . S
H2298 C2319 0.950 . S
H2299 C2322 0.950 . S
H2300 C2323 0.950 . S
H2301 C2325 0.950 . S
H2302 C2326 0.950 . S
H2303 C2327 0.951 . S
H2304 C2329 0.951 . S
H2305 C2331 0.950 . S
H2306 C2332 0.950 . S
H2307 C2334 0.950 . S
H2308 C2337 0.950 . S
H2309 C2338 0.950 . S
H2310 C2340 0.950 . S
H2311 C2341 0.950 . S
C2312 H2294 0.951 . S
C2312 C2313 1.366 . S
C2312 C2314 1.388 . S
C2313 C2312 1.366 . S
C2313 C2317 1.385 . S
C2314 H2295 0.951 . S
C2314 C2312 1.388 . S
C2314 C2315 1.366 . S
C2315 C2314 1.366 . S
C2315 C2316 1.414 . S
C2315 C2318 1.499 . S
C2316 H2296 0.950 . S
C2316 C2315 1.414 . S
C2316 C2317 1.374 . S
C2317 H2297 0.950 . S
C2317 C2313 1.385 . S
C2317 C2316 1.374 . S
C2318 C2315 1.499 . S
C2318 C2319 1.373 . S
C2318 C2320 1.389 . S
C2319 H2298 0.950 . S
C2319 C2318 1.373 . S
C2319 C2335 1.377 . S
C2320 C2318 1.389 . S
C2320 C2321 1.524 . S
C2320 C2334 1.377 . S
C2321 C2320 1.524 . S
C2321 C2322 1.397 . S
C2321 C2326 1.363 . S
C2322 H2299 0.950 . S
C2322 C2321 1.397 . S
C2322 C2323 1.334 . S
C2323 H2300 0.950 . S
C2323 C2322 1.334 . S
C2323 C2324 1.287 . S
C2324 C2323 1.287 . S
C2324 C2325 1.524 . S
C2324 H2343 0.913 . S
C2325 H2301 0.950 . S
C2325 C2324 1.524 . S
C2325 C2326 1.415 . S
C2326 H2302 0.950 . S
C2326 C2321 1.363 . S
C2326 C2325 1.415 . S
C2327 H2303 0.951 . S
C2327 C2328 1.366 . S
C2327 C2329 1.388 . S
C2328 C2327 1.366 . S
C2328 C2332 1.385 . S
C2329 H2304 0.951 . S
C2329 C2327 1.388 . S
C2329 C2330 1.366 . S
C2330 C2329 1.366 . S
C2330 C2331 1.414 . S
C2330 C2333 1.499 . S
C2331 H2305 0.950 . S
C2331 C2330 1.414 . S
C2331 C2332 1.374 . S
C2332 H2306 0.950 . S
C2332 C2328 1.385 . S
C2332 C2331 1.374 . S
C2333 C2330 1.499 . S
C2333 C2334 1.373 . S
C2333 C2335 1.389 . S
C2334 H2307 0.950 . S
C2334 C2320 1.377 . S
C2334 C2333 1.373 . S
C2335 C2319 1.377 . S
C2335 C2333 1.389 . S
C2335 C2336 1.524 . S
C2336 C2335 1.524 . S
C2336 C2337 1.397 . S
C2336 C2341 1.363 . S
C2337 H2308 0.950 . S
C2337 C2336 1.397 . S
C2337 C2338 1.334 . S
C2338 H2309 0.950 . S
C2338 C2337 1.334 . S
C2338 C2339 1.287 . S
C2339 C2338 1.287 . S
C2339 C2340 1.524 . S
C2339 H2342 0.999 . S
C2340 H2310 0.950 . S
C2340 C2339 1.524 . S
C2340 C2341 1.415 . S
C2341 H2311 0.950 . S
C2341 C2336 1.363 . S
C2341 C2340 1.415 . S
H2342 C2339 0.999 . S
H2343 C2324 0.913 . S
H2344 C2362 0.951 . S
H2345 C2364 0.951 . S
H2346 C2366 0.950 . S
H2347 C2367 0.950 . S
H2348 C2369 0.950 . S
H2349 C2372 0.950 . S
H2350 C2373 0.950 . S
H2351 C2375 0.950 . S
H2352 C2376 0.950 . S
H2353 C2377 0.951 . S
H2354 C2379 0.951 . S
H2355 C2381 0.950 . S
H2356 C2382 0.950 . S
H2357 C2384 0.950 . S
H2358 C2387 0.950 . S
H2359 C2388 0.950 . S
H2360 C2390 0.950 . S
H2361 C2391 0.950 . S
C2362 H2344 0.951 . S
C2362 C2363 1.366 . S
C2362 C2364 1.388 1_655 S
C2363 C2362 1.366 . S
C2363 C2367 1.385 . S
C2364 H2345 0.951 . S
C2364 C2362 1.388 1_455 S
C2364 C2365 1.366 . S
C2365 C2364 1.366 . S
C2365 C2366 1.414 . S
C2365 C2368 1.499 . S
C2366 H2346 0.950 . S
C2366 C2365 1.414 . S
C2366 C2367 1.374 1_455 S
C2367 H2347 0.950 . S
C2367 C2363 1.385 . S
C2367 C2366 1.374 1_655 S
C2368 C2365 1.499 . S
C2368 C2369 1.373 . S
C2368 C2370 1.389 . S
C2369 H2348 0.950 . S
C2369 C2368 1.373 . S
C2369 C2385 1.377 . S
C2370 C2368 1.389 . S
C2370 C2371 1.524 . S
C2370 C2384 1.377 . S
C2371 C2370 1.524 . S
C2371 C2372 1.397 . S
C2371 C2376 1.363 . S
C2372 H2349 0.950 . S
C2372 C2371 1.397 . S
C2372 C2373 1.334 . S
C2373 H2350 0.950 . S
C2373 C2372 1.334 . S
C2373 C2374 1.287 . S
C2374 C2373 1.287 . S
C2374 C2375 1.524 . S
C2374 H2393 0.913 . S
C2375 H2351 0.950 . S
C2375 C2374 1.524 . S
C2375 C2376 1.415 . S
C2376 H2352 0.950 . S
C2376 C2371 1.363 . S
C2376 C2375 1.415 . S
C2377 H2353 0.951 . S
C2377 C2378 1.366 . S
C2377 C2379 1.388 . S
C2378 C2377 1.366 . S
C2378 C2382 1.385 . S
C2379 H2354 0.951 . S
C2379 C2377 1.388 . S
C2379 C2380 1.366 . S
C2380 C2379 1.366 . S
C2380 C2381 1.414 . S
C2380 C2383 1.499 . S
C2381 H2355 0.950 . S
C2381 C2380 1.414 . S
C2381 C2382 1.374 . S
C2382 H2356 0.950 . S
C2382 C2378 1.385 . S
C2382 C2381 1.374 . S
C2383 C2380 1.499 . S
C2383 C2384 1.373 . S
C2383 C2385 1.389 . S
C2384 H2357 0.950 . S
C2384 C2370 1.377 . S
C2384 C2383 1.373 . S
C2385 C2369 1.377 . S
C2385 C2383 1.389 . S
C2385 C2386 1.524 . S
C2386 C2385 1.524 . S
C2386 C2387 1.397 . S
C2386 C2391 1.363 . S
C2387 H2358 0.950 . S
C2387 C2386 1.397 . S
C2387 C2388 1.334 . S
C2388 H2359 0.950 . S
C2388 C2387 1.334 . S
C2388 C2389 1.287 . S
C2389 C2388 1.287 . S
C2389 C2390 1.524 . S
C2389 H2392 0.999 . S
C2390 H2360 0.950 . S
C2390 C2389 1.524 . S
C2390 C2391 1.415 . S
C2391 H2361 0.950 . S
C2391 C2386 1.363 . S
C2391 C2390 1.415 . S
H2392 C2389 0.999 . S
H2393 C2374 0.913 . S
H2394 C2412 0.951 . S
H2395 C2414 0.951 . S
H2396 C2416 0.950 . S
H2397 C2417 0.950 . S
H2398 C2419 0.950 . S
H2399 C2422 0.950 . S
H2400 C2423 0.950 . S
H2401 C2425 0.950 . S
H2402 C2426 0.950 . S
H2403 C2427 0.951 . S
H2404 C2429 0.951 . S
H2405 C2431 0.950 . S
H2406 C2432 0.950 . S
H2407 C2434 0.950 . S
H2408 C2437 0.950 . S
H2409 C2438 0.950 . S
H2410 C2440 0.950 . S
H2411 C2441 0.950 . S
C2412 H2394 0.951 . S
C2412 C2413 1.366 . S
C2412 C2414 1.388 . S
C2413 C2412 1.366 . S
C2413 C2417 1.385 . S
C2414 H2395 0.951 . S
C2414 C2412 1.388 . S
C2414 C2415 1.366 . S
C2415 C2414 1.366 . S
C2415 C2416 1.414 . S
C2415 C2418 1.499 . S
C2416 H2396 0.950 . S
C2416 C2415 1.414 . S
C2416 C2417 1.374 . S
C2417 H2397 0.950 . S
C2417 C2413 1.385 . S
C2417 C2416 1.374 . S
C2418 C2415 1.499 . S
C2418 C2419 1.373 . S
C2418 C2420 1.389 . S
C2419 H2398 0.950 . S
C2419 C2418 1.373 . S
C2419 C2435 1.377 . S
C2420 C2418 1.389 . S
C2420 C2421 1.524 . S
C2420 C2434 1.377 . S
C2421 C2420 1.524 . S
C2421 C2422 1.397 . S
C2421 C2426 1.363 . S
C2422 H2399 0.950 . S
C2422 C2421 1.397 . S
C2422 C2423 1.334 . S
C2423 H2400 0.950 . S
C2423 C2422 1.334 . S
C2423 C2424 1.287 . S
C2424 C2423 1.287 . S
C2424 C2425 1.524 . S
C2424 H2443 0.913 . S
C2425 H2401 0.950 . S
C2425 C2424 1.524 . S
C2425 C2426 1.415 . S
C2426 H2402 0.950 . S
C2426 C2421 1.363 . S
C2426 C2425 1.415 . S
C2427 H2403 0.951 . S
C2427 C2428 1.366 . S
C2427 C2429 1.388 1_565 S
C2428 C2427 1.366 . S
C2428 C2432 1.385 . S
C2429 H2404 0.951 . S
C2429 C2427 1.388 1_545 S
C2429 C2430 1.366 . S
C2430 C2429 1.366 . S
C2430 C2431 1.414 . S
C2430 C2433 1.499 . S
C2431 H2405 0.950 . S
C2431 C2430 1.414 . S
C2431 C2432 1.374 1_545 S
C2432 H2406 0.950 . S
C2432 C2428 1.385 . S
C2432 C2431 1.374 1_565 S
C2433 C2430 1.499 . S
C2433 C2434 1.373 . S
C2433 C2435 1.389 . S
C2434 H2407 0.950 . S
C2434 C2420 1.377 . S
C2434 C2433 1.373 . S
C2435 C2419 1.377 . S
C2435 C2433 1.389 . S
C2435 C2436 1.524 . S
C2436 C2435 1.524 . S
C2436 C2437 1.397 . S
C2436 C2441 1.363 . S
C2437 H2408 0.950 . S
C2437 C2436 1.397 . S
C2437 C2438 1.334 . S
C2438 H2409 0.950 . S
C2438 C2437 1.334 . S
C2438 C2439 1.287 . S
C2439 C2438 1.287 . S
C2439 C2440 1.524 . S
C2439 H2442 0.999 . S
C2440 H2410 0.950 . S
C2440 C2439 1.524 . S
C2440 C2441 1.415 . S
C2441 H2411 0.950 . S
C2441 C2436 1.363 . S
C2441 C2440 1.415 . S
H2442 C2439 0.999 . S
H2443 C2424 0.913 . S
H2444 C2462 0.951 . S
H2445 C2464 0.951 . S
H2446 C2466 0.950 . S
H2447 C2467 0.950 . S
H2448 C2469 0.950 . S
H2449 C2472 0.950 . S
H2450 C2473 0.950 . S
H2451 C2475 0.950 . S
H2452 C2476 0.950 . S
H2453 C2477 0.951 . S
H2454 C2479 0.951 . S
H2455 C2481 0.950 . S
H2456 C2482 0.950 . S
H2457 C2484 0.950 . S
H2458 C2487 0.950 . S
H2459 C2488 0.950 . S
H2460 C2490 0.950 . S
H2461 C2491 0.950 . S
C2462 H2444 0.951 . S
C2462 C2463 1.366 . S
C2462 C2464 1.388 . S
C2463 C2462 1.366 . S
C2463 C2467 1.385 . S
C2464 H2445 0.951 . S
C2464 C2462 1.388 . S
C2464 C2465 1.366 . S
C2465 C2464 1.366 . S
C2465 C2466 1.414 . S
C2465 C2468 1.499 . S
C2466 H2446 0.950 . S
C2466 C2465 1.414 . S
C2466 C2467 1.374 . S
C2467 H2447 0.950 . S
C2467 C2463 1.385 . S
C2467 C2466 1.374 . S
C2468 C2465 1.499 . S
C2468 C2469 1.373 . S
C2468 C2470 1.389 . S
C2469 H2448 0.950 . S
C2469 C2468 1.373 . S
C2469 C2485 1.377 . S
C2470 C2468 1.389 . S
C2470 C2471 1.524 . S
C2470 C2484 1.377 . S
C2471 C2470 1.524 . S
C2471 C2472 1.397 . S
C2471 C2476 1.363 . S
C2472 H2449 0.950 . S
C2472 C2471 1.397 . S
C2472 C2473 1.334 . S
C2473 H2450 0.950 . S
C2473 C2472 1.334 . S
C2473 C2474 1.287 . S
C2474 C2473 1.287 . S
C2474 C2475 1.524 . S
C2474 H2493 0.913 . S
C2475 H2451 0.950 . S
C2475 C2474 1.524 . S
C2475 C2476 1.415 . S
C2476 H2452 0.950 . S
C2476 C2471 1.363 . S
C2476 C2475 1.415 . S
C2477 H2453 0.951 . S
C2477 C2478 1.366 . S
C2477 C2479 1.388 1_455 S
C2478 C2477 1.366 . S
C2478 C2482 1.385 . S
C2479 H2454 0.951 . S
C2479 C2477 1.388 1_655 S
C2479 C2480 1.366 . S
C2480 C2479 1.366 . S
C2480 C2481 1.414 . S
C2480 C2483 1.499 . S
C2481 H2455 0.950 . S
C2481 C2480 1.414 . S
C2481 C2482 1.374 1_655 S
C2482 H2456 0.950 . S
C2482 C2478 1.385 . S
C2482 C2481 1.374 1_455 S
C2483 C2480 1.499 . S
C2483 C2484 1.373 . S
C2483 C2485 1.389 . S
C2484 H2457 0.950 . S
C2484 C2470 1.377 . S
C2484 C2483 1.373 . S
C2485 C2469 1.377 . S
C2485 C2483 1.389 . S
C2485 C2486 1.524 . S
C2486 C2485 1.524 . S
C2486 C2487 1.397 . S
C2486 C2491 1.363 . S
C2487 H2458 0.950 . S
C2487 C2486 1.397 . S
C2487 C2488 1.334 . S
C2488 H2459 0.950 . S
C2488 C2487 1.334 . S
C2488 C2489 1.287 . S
C2489 C2488 1.287 . S
C2489 C2490 1.524 . S
C2489 H2492 0.999 . S
C2490 H2460 0.950 . S
C2490 C2489 1.524 . S
C2490 C2491 1.415 . S
C2491 H2461 0.950 . S
C2491 C2486 1.363 . S
C2491 C2490 1.415 . S
H2492 C2489 0.999 . S
H2493 C2474 0.913 . S
H2494 C2512 0.941 1_545 S
H2495 C2514 0.951 . S
H2496 C2516 0.950 . S
H2497 C2517 0.950 . S
H2498 C2519 0.950 . S
H2499 C2522 0.950 . S
H2500 C2523 0.950 . S
H2501 C2525 0.950 . S
H2502 C2526 0.950 . S
H2503 C2527 0.951 . S
H2504 C2529 0.951 . S
H2505 C2531 0.950 . S
H2506 C2532 0.950 . S
H2507 C2534 0.950 . S
H2508 C2537 0.950 . S
H2509 C2538 0.950 . S
H2510 C2540 0.950 . S
H2511 C2541 0.950 . S
C2512 H2494 0.941 1_565 S
C2512 C2513 1.346 1_565 S
C2512 C2514 1.418 . S
C2513 C2512 1.346 1_545 S
C2513 C2517 1.385 . S
C2514 H2495 0.951 . S
C2514 C2512 1.418 . S
C2514 C2515 1.366 . S
C2515 C2514 1.366 . S
C2515 C2516 1.414 . S
C2515 C2518 1.499 . S
C2516 H2496 0.950 . S
C2516 C2515 1.414 . S
C2516 C2517 1.374 1_565 S
C2517 H2497 0.950 . S
C2517 C2513 1.385 . S
C2517 C2516 1.374 1_545 S
C2518 C2515 1.499 . S
C2518 C2519 1.373 . S
C2518 C2520 1.389 . S
C2519 H2498 0.950 . S
C2519 C2518 1.373 . S
C2519 C2535 1.377 . S
C2520 C2518 1.389 . S
C2520 C2521 1.524 . S
C2520 C2534 1.377 . S
C2521 C2520 1.524 . S
C2521 C2522 1.397 . S
C2521 C2526 1.363 . S
C2522 H2499 0.950 . S
C2522 C2521 1.397 . S
C2522 C2523 1.334 . S
C2523 H2500 0.950 . S
C2523 C2522 1.334 . S
C2523 C2524 1.287 . S
C2524 C2523 1.287 . S
C2524 C2525 1.524 . S
C2524 H2543 0.913 . S
C2525 H2501 0.950 . S
C2525 C2524 1.524 . S
C2525 C2526 1.415 . S
C2526 H2502 0.950 . S
C2526 C2521 1.363 . S
C2526 C2525 1.415 . S
C2527 H2503 0.951 . S
C2527 C2528 1.366 . S
C2527 C2529 1.388 . S
C2528 C2527 1.366 . S
C2528 C2532 1.385 . S
C2529 H2504 0.951 . S
C2529 C2527 1.388 . S
C2529 C2530 1.366 . S
C2530 C2529 1.366 . S
C2530 C2531 1.414 . S
C2530 C2533 1.499 . S
C2531 H2505 0.950 . S
C2531 C2530 1.414 . S
C2531 C2532 1.374 . S
C2532 H2506 0.950 . S
C2532 C2528 1.385 . S
C2532 C2531 1.374 . S
C2533 C2530 1.499 . S
C2533 C2534 1.373 . S
C2533 C2535 1.389 . S
C2534 H2507 0.950 . S
C2534 C2520 1.377 . S
C2534 C2533 1.373 . S
C2535 C2519 1.377 . S
C2535 C2533 1.389 . S
C2535 C2536 1.524 . S
C2536 C2535 1.524 . S
C2536 C2537 1.397 . S
C2536 C2541 1.363 . S
C2537 H2508 0.950 . S
C2537 C2536 1.397 . S
C2537 C2538 1.334 . S
C2538 H2509 0.950 . S
C2538 C2537 1.334 . S
C2538 C2539 1.287 . S
C2539 C2538 1.287 . S
C2539 C2540 1.524 . S
C2539 H2542 0.999 . S
C2540 H2510 0.950 . S
C2540 C2539 1.524 . S
C2540 C2541 1.415 . S
C2541 H2511 0.950 . S
C2541 C2536 1.363 . S
C2541 C2540 1.415 . S
H2542 C2539 0.999 . S
H2543 C2524 0.913 . S
C563 C5 1.682 . S
C578 C243 1.682 . S
C613 C141 1.682 . S
C628 C39 1.682 . S
C663 C175 1.682 . S
C678 C73 1.682 . S
C713 C209 1.682 . S
C728 C107 1.682 . S
C763 C277 1.682 . S
C778 C515 1.682 . S
C813 C311 1.682 . S
C828 C413 1.682 . S
C863 C447 1.682 . S
C878 C345 1.682 . S
C913 C379 1.682 . S
C928 C481 1.682 . S
C963 C9 1.488 . S
C978 C349 1.487 . S
C1013 C383 1.487 . S
C1028 C43 1.488 . S
C1063 C281 1.487 . S
C1078 C77 1.487 . S
C1113 C315 1.488 . S
C1128 C111 1.487 . S
C1163 C485 1.487 . S
C1178 C145 1.488 . S
C1213 C519 1.488 . S
C1228 C179 1.487 . S
C1263 C417 1.487 . S
C1278 C213 1.488 . S
C1313 C451 1.488 . S
C1328 C247 1.487 . S
C1363 C33 0.467 . S
C1378 C101 0.467 . S
C1413 C135 0.466 . S
C1428 C67 0.467 . S
C1463 C237 0.466 . S
C1478 C169 0.466 . S
C1513 C271 0.467 . S
C1528 C203 0.467 . S
C1563 C305 0.467 . S
C1578 C373 0.467 . S
C1613 C407 0.467 . S
C1628 C339 0.466 . S
C1663 C441 0.467 . S
C1678 C509 0.467 . S
C1713 C475 0.467 . S
C1728 C543 0.467 . S
C1763 C478 1.346 . S
C1778 C20 1.356 . S
C1813 C54 1.356 . S
C1828 C512 1.346 . S
C1863 C410 1.346 . S
C1878 C88 1.356 . S
C1913 C444 1.345 . S
C1928 C122 1.356 . S
C1963 C342 1.345 . S
C1978 C156 1.356 . S
C2013 C190 1.356 . S
C2028 C376 1.346 . S
C2063 C274 1.346 . S
C2078 C224 1.356 . S
C2113 C258 1.356 . S
C2128 C308 1.346 . S
C2163 C206 1.345 . S
C2178 C292 1.356 . S
C2213 C240 1.346 . S
C2228 C326 1.356 . S
C2263 C138 1.346 . S
C2278 C360 1.356 . S
C2313 C394 1.356 . S
C2328 C172 1.346 . S
C2363 C70 1.346 . S
C2378 C428 1.356 . S
C2413 C462 1.356 . S
C2428 C104 1.346 . S
C2463 C496 1.356 . S
C2478 C2 1.345 . S
C2513 C36 1.346 . S
C2528 C530 1.356 . S
