# Generated by pormake.
# Topology npo, (4)-cn, num edge types: 1
# Building blocks:
#     Node 0, Type 0, BuildingBlock: QUQFOY_clean_sbu_1, # of connection points: 4
#     Node 1, Type 0, BuildingBlock: QUQFOY_clean_sbu_1, # of connection points: 4
#     Node 2, Type 0, BuildingBlock: QUQFOY_clean_sbu_1, # of connection points: 4
#     Node 3, Type 0, BuildingBlock: QUQFOY_clean_sbu_1, # of connection points: 4
#     Node 4, Type 0, BuildingBlock: QUQFOY_clean_sbu_1, # of connection points: 4
#     Node 5, Type 0, BuildingBlock: QUQFOY_clean_sbu_1, # of connection points: 4
#     Edge 6, Type (0, 0), BuildingBlock: UVAHIK_clean_linker_0, # of connection points: 2
#     Edge 7, Type (0, 0), BuildingBlock: UVAHIK_clean_linker_0, # of connection points: 2
#     Edge 8, Type (0, 0), BuildingBlock: UVAHIK_clean_linker_0, # of connection points: 2
#     Edge 9, Type (0, 0), BuildingBlock: UVAHIK_clean_linker_0, # of connection points: 2
#     Edge 10, Type (0, 0), BuildingBlock: UVAHIK_clean_linker_0, # of connection points: 2
#     Edge 11, Type (0, 0), BuildingBlock: UVAHIK_clean_linker_0, # of connection points: 2
#     Edge 12, Type (0, 0), BuildingBlock: UVAHIK_clean_linker_0, # of connection points: 2
#     Edge 13, Type (0, 0), BuildingBlock: UVAHIK_clean_linker_0, # of connection points: 2
#     Edge 14, Type (0, 0), BuildingBlock: UVAHIK_clean_linker_0, # of connection points: 2
#     Edge 15, Type (0, 0), BuildingBlock: UVAHIK_clean_linker_0, # of connection points: 2
#     Edge 16, Type (0, 0), BuildingBlock: UVAHIK_clean_linker_0, # of connection points: 2
#     Edge 17, Type (0, 0), BuildingBlock: UVAHIK_clean_linker_0, # of connection points: 2
# Relax obj value: 0.271
# Max RMSD: 0.244
# Mean RMSD: 0.244
data_MOF--net-npo--node1-QUQFOY_clean_sbu_1--edge1-UVAHIK_clean_linker_0
_symmetry_space_group_name_H-M    P1
_symmetry_Int_Tables_number       1
_symmetry_cell_setting            triclinic
loop_
_symmetry_equiv_pos_as_xyz
'x, y, z'
_cell_length_a     56.137176
_cell_length_b     56.296403
_cell_length_c     35.654798
_cell_angle_alpha  90.026349
_cell_angle_beta   90.015225
_cell_angle_gamma 119.93869
loop_
_atom_site_label
_atom_site_type_symbol
_atom_site_fract_x
_atom_site_fract_y
_atom_site_fract_z
_atom_type_partial_charge
O0 O 0.58759 0.13056 0.25341 0.0
Cd1 Cd 0.54695 0.11068 0.26952 0.0
Cd2 Cd 0.53948 0.11137 0.19036 0.0
O3 O 0.58168 0.13045 0.19228 0.0
O4 O 0.54969 0.10635 0.32427 0.0
O5 O 0.52852 0.07114 0.28564 0.0
C6 C 0.53607 0.08023 0.31935 0.0
C7 C 0.51965 0.08113 0.14051 0.0
C8 C 0.59745 0.13649 0.22049 0.0
C9 C 0.51623 0.13822 0.2397 0.0
O10 O 0.52021 0.13262 0.2066 0.0
O11 O 0.52508 0.13108 0.26781 0.0
O12 O 0.53328 0.10722 0.13546 0.0
O13 O 0.51674 0.0719 0.17434 0.0
O14 O 0.45421 0.59299 0.7776 0.0
Cd15 Cd 0.43133 0.55089 0.78253 0.0
Cd16 Cd 0.42851 0.55672 0.70352 0.0
O17 O 0.45314 0.59742 0.71628 0.0
O18 O 0.43382 0.54692 0.83737 0.0
O19 O 0.45032 0.52958 0.79615 0.0
C20 C 0.44639 0.53353 0.83073 0.0
C21 C 0.44115 0.54079 0.65135 0.0
C22 C 0.4611 0.608 0.74854 0.0
C23 C 0.37537 0.52884 0.74637 0.0
O24 O 0.38722 0.5383 0.71516 0.0
O25 O 0.38928 0.53119 0.77562 0.0
O26 O 0.42989 0.55578 0.64798 0.0
O27 O 0.44521 0.53465 0.68478 0.0
O28 O 0.85289 0.38659 0.21813 0.0
Cd29 Cd 0.87514 0.42875 0.22422 0.0
Cd30 Cd 0.86793 0.41286 0.29983 0.0
O31 O 0.85201 0.37447 0.27712 0.0
O32 O 0.88036 0.44094 0.17119 0.0
O33 O 0.91505 0.44901 0.20846 0.0
C34 C 0.90639 0.45138 0.1759 0.0
C35 C 0.89906 0.42526 0.34892 0.0
C36 C 0.84644 0.36809 0.24281 0.0
C37 C 0.84327 0.44622 0.27478 0.0
O38 O 0.84364 0.43063 0.30017 0.0
O39 O 0.85604 0.44942 0.24415 0.0
O40 O 0.87337 0.40774 0.35352 0.0
O41 O 0.90733 0.43551 0.31586 0.0
O42 O 0.46521 0.85538 0.70735 0.0
Cd43 Cd 0.44264 0.87329 0.69128 0.0
Cd44 Cd 0.43558 0.87397 0.77031 0.0
O45 O 0.46076 0.85711 0.76855 0.0
O46 O 0.44917 0.87767 0.63646 0.0
O47 O 0.46141 0.91276 0.67481 0.0
C48 C 0.46007 0.90371 0.64113 0.0
C49 C 0.4443 0.90441 0.81946 0.0
C50 C 0.47036 0.85087 0.7404 0.0
C51 C 0.38485 0.84369 0.72228 0.0
O52 O 0.3949 0.85059 0.75504 0.0
O53 O 0.40045 0.85079 0.69377 0.0
O54 O 0.43372 0.87852 0.82518 0.0
O55 O 0.44991 0.91331 0.78541 0.0
O56 O 0.52762 0.39613 0.27823 0.0
Cd57 Cd 0.55004 0.43824 0.28291 0.0
Cd58 Cd 0.5522 0.43259 0.20418 0.0
O59 O 0.52798 0.39182 0.21681 0.0
O60 O 0.54752 0.44248 0.33768 0.0
O61 O 0.53073 0.45931 0.29614 0.0
C62 C 0.53471 0.4556 0.33079 0.0
C63 C 0.53915 0.44824 0.15209 0.0
C64 C 0.52056 0.38116 0.24909 0.0
C65 C 0.60572 0.46035 0.24635 0.0
O66 O 0.59359 0.45103 0.21523 0.0
O67 O 0.59206 0.45799 0.27586 0.0
O68 O 0.55053 0.43336 0.14865 0.0
O69 O 0.53522 0.45444 0.18554 0.0
O70 O 0.13223 0.54819 0.80103 0.0
Cd71 Cd 0.10837 0.56643 0.79977 0.0
Cd72 Cd 0.10204 0.55063 0.72454 0.0
O73 O 0.12048 0.52946 0.74488 0.0
O74 O 0.10283 0.57194 0.85328 0.0
O75 O 0.06883 0.5444 0.81546 0.0
C76 C 0.07707 0.55474 0.84849 0.0
C77 C 0.07057 0.52846 0.67621 0.0
C78 C 0.13285 0.53257 0.77586 0.0
C79 C 0.13162 0.61126 0.74301 0.0
O80 O 0.12525 0.5927 0.71841 0.0
O81 O 0.12525 0.60492 0.77714 0.0
O82 O 0.09652 0.53825 0.67155 0.0
O83 O 0.06213 0.53118 0.70874 0.0
C84 C 0.49667 0.16646 0.21485 0.0
C85 C 0.50272 0.15474 0.24556 0.0
C86 C 0.48731 0.18495 0.22055 0.0
C87 C 0.49443 0.23534 0.29027 0.0
H88 H 0.45 0.24864 0.21936 0.0
C89 C 0.49903 0.33874 0.28868 0.0
C90 C 0.5055 0.35098 0.25299 0.0
C91 C 0.48865 0.31058 0.29257 0.0
C92 C 0.46229 0.24508 0.23956 0.0
H93 H 0.50152 0.15148 0.30628 0.0
H94 H 0.4849 0.18356 0.31616 0.0
H95 H 0.44963 0.20505 0.21775 0.0
H96 H 0.50401 0.34292 0.19324 0.0
H97 H 0.48644 0.29404 0.20007 0.0
H98 H 0.50822 0.27572 0.31088 0.0
C99 C 0.48795 0.17888 0.2877 0.0
C100 C 0.46211 0.22017 0.23862 0.0
C101 C 0.49744 0.16047 0.28201 0.0
C102 C 0.49948 0.33419 0.22117 0.0
C103 C 0.48913 0.30607 0.22507 0.0
C104 C 0.49457 0.26015 0.29125 0.0
C105 C 0.48366 0.19201 0.25708 0.0
C106 C 0.47903 0.21549 0.26301 0.0
C107 C 0.48452 0.29412 0.26087 0.0
C108 C 0.47936 0.26572 0.26496 0.0
H109 H 0.50036 0.16237 0.18639 0.0
H110 H 0.48451 0.1949 0.19633 0.0
H111 H 0.50797 0.2326 0.30919 0.0
H112 H 0.50309 0.35105 0.31376 0.0
H113 H 0.48491 0.30187 0.32049 0.0
C114 C 0.33107 0.50183 0.78131 0.0
C115 C 0.34528 0.5168 0.74935 0.0
C116 C 0.30319 0.49316 0.78594 0.0
C117 C 0.24226 0.48896 0.7365 0.0
H118 H 0.22373 0.50192 0.83625 0.0
C119 C 0.1725 0.53157 0.80583 0.0
C120 C 0.15015 0.5199 0.78095 0.0
C121 C 0.19159 0.52258 0.80617 0.0
C122 C 0.22854 0.49825 0.80819 0.0
H123 H 0.34115 0.53339 0.69644 0.0
H124 H 0.29312 0.5194 0.70507 0.0
H125 H 0.26672 0.50249 0.82615 0.0
H126 H 0.12878 0.48803 0.73943 0.0
H127 H 0.16142 0.47146 0.74118 0.0
H128 H 0.20542 0.48732 0.71784 0.0
C129 C 0.30307 0.51357 0.72623 0.0
C130 C 0.25308 0.49812 0.80246 0.0
C131 C 0.33078 0.52185 0.72136 0.0
C132 C 0.14609 0.49768 0.75849 0.0
C133 C 0.16491 0.48832 0.75935 0.0
C134 C 0.218 0.48962 0.74209 0.0
C135 C 0.28903 0.49964 0.75896 0.0
C136 C 0.26074 0.4945 0.76626 0.0
C137 C 0.1885 0.50136 0.78212 0.0
C138 C 0.21131 0.4953 0.77777 0.0
H139 H 0.34164 0.49732 0.80317 0.0
H140 H 0.29294 0.48198 0.81111 0.0
H141 H 0.24708 0.48533 0.70843 0.0
H142 H 0.17619 0.54877 0.82342 0.0
H143 H 0.20961 0.53347 0.82374 0.0
C144 C 0.63881 0.16056 0.17901 0.0
C145 C 0.62759 0.15207 0.21506 0.0
C146 C 0.66703 0.17808 0.17435 0.0
C147 C 0.73453 0.21018 0.22345 0.0
H148 H 0.74833 0.27444 0.16647 0.0
C149 C 0.81903 0.3185 0.25998 0.0
C150 C 0.82986 0.33887 0.23214 0.0
C151 C 0.79953 0.29158 0.25084 0.0
C152 C 0.7452 0.25646 0.18167 0.0
H153 H 0.63747 0.1538 0.27422 0.0
H154 H 0.68654 0.18463 0.26613 0.0
H155 H 0.70356 0.23347 0.16316 0.0
H156 H 0.83075 0.34636 0.17232 0.0
H157 H 0.79698 0.29919 0.15629 0.0
H158 H 0.77595 0.23377 0.24325 0.0
C159 C 0.6736 0.17759 0.24141 0.0
C160 C 0.71941 0.23289 0.1798 0.0
C161 C 0.6454 0.16011 0.24609 0.0
C162 C 0.82248 0.33124 0.19452 0.0
C163 C 0.80307 0.30423 0.18534 0.0
C164 C 0.76043 0.23377 0.22519 0.0
C165 C 0.6846 0.18742 0.20562 0.0
C166 C 0.71346 0.20989 0.20179 0.0
C167 C 0.79055 0.28435 0.2136 0.0
C168 C 0.76569 0.25754 0.20548 0.0
H169 H 0.62572 0.1545 0.15444 0.0
H170 H 0.67498 0.18506 0.14638 0.0
H171 H 0.73064 0.19256 0.24022 0.0
H172 H 0.8244 0.32361 0.28922 0.0
H173 H 0.7902 0.27692 0.27341 0.0
C174 C 0.49161 0.8242 0.71543 0.0
C175 C 0.48545 0.83586 0.74612 0.0
C176 C 0.50141 0.80607 0.72116 0.0
C177 C 0.49407 0.75607 0.79141 0.0
H178 H 0.53573 0.7402 0.71893 0.0
C179 C 0.48433 0.65036 0.78822 0.0
C180 C 0.47693 0.63817 0.75253 0.0
C181 C 0.4959 0.67868 0.7923 0.0
C182 C 0.52423 0.74448 0.73959 0.0
H183 H 0.48742 0.83984 0.80676 0.0
H184 H 0.50489 0.80845 0.8167 0.0
H185 H 0.53806 0.78472 0.71774 0.0
H186 H 0.47785 0.64639 0.69292 0.0
H187 H 0.49748 0.69556 0.70008 0.0
H188 H 0.47906 0.7155 0.81203 0.0
C189 C 0.50149 0.81281 0.78824 0.0
C190 C 0.52554 0.76993 0.7389 0.0
C191 C 0.49151 0.83083 0.78252 0.0
C192 C 0.48308 0.65507 0.72085 0.0
C193 C 0.49463 0.68336 0.72493 0.0
C194 C 0.49282 0.73072 0.79215 0.0
C195 C 0.50543 0.79935 0.75771 0.0
C196 C 0.50952 0.77553 0.76378 0.0
C197 C 0.50031 0.69536 0.76078 0.0
C198 C 0.50694 0.72421 0.76524 0.0
H199 H 0.48737 0.82779 0.687 0.0
H200 H 0.50398 0.79593 0.69698 0.0
H201 H 0.48119 0.75948 0.81073 0.0
H202 H 0.48019 0.63795 0.8132 0.0
H203 H 0.50042 0.6874 0.82025 0.0
C204 C 0.64978 0.46658 0.22047 0.0
C205 C 0.63576 0.47181 0.24897 0.0
C206 C 0.67723 0.47375 0.2252 0.0
C207 C 0.72619 0.48545 0.30148 0.0
H208 H 0.77359 0.49545 0.2169 0.0
C209 C 0.8311 0.48187 0.25743 0.0
C210 C 0.82619 0.45917 0.27941 0.0
C211 C 0.81288 0.49196 0.25828 0.0
C212 C 0.76108 0.49332 0.24116 0.0
H213 H 0.64008 0.49065 0.30349 0.0
H214 H 0.68835 0.50409 0.31121 0.0
H215 H 0.73329 0.49997 0.20795 0.0
H216 H 0.79913 0.43002 0.32081 0.0
H217 H 0.7667 0.44661 0.32108 0.0
H218 H 0.75427 0.4793 0.33484 0.0
C219 C 0.67789 0.49358 0.28573 0.0
C220 C 0.73761 0.49546 0.23582 0.0
C221 C 0.65026 0.48601 0.28123 0.0
C222 C 0.80348 0.4476 0.30362 0.0
C223 C 0.78496 0.45732 0.30395 0.0
C224 C 0.74996 0.48383 0.30698 0.0
C225 C 0.69147 0.48673 0.2583 0.0
C226 C 0.71919 0.4903 0.26553 0.0
C227 C 0.78903 0.47919 0.28055 0.0
C228 C 0.76706 0.48649 0.27655 0.0
H229 H 0.63918 0.45562 0.19529 0.0
H230 H 0.68671 0.4677 0.20364 0.0
H231 H 0.71256 0.48129 0.32512 0.0
H232 H 0.84871 0.49145 0.23888 0.0
H233 H 0.8171 0.50927 0.24062 0.0
C234 C 0.34351 0.81701 0.68147 0.0
C235 C 0.35478 0.82641 0.71731 0.0
C236 C 0.31539 0.79883 0.67714 0.0
C237 C 0.24804 0.76783 0.72588 0.0
H238 H 0.23323 0.70276 0.67004 0.0
C239 C 0.16009 0.66067 0.76065 0.0
C240 C 0.1492 0.64041 0.73263 0.0
C241 C 0.18058 0.68731 0.75204 0.0
C242 C 0.23668 0.72098 0.68492 0.0
H243 H 0.34511 0.82523 0.77646 0.0
H244 H 0.29617 0.79328 0.76892 0.0
H245 H 0.27861 0.74303 0.66737 0.0
H246 H 0.14932 0.63291 0.67294 0.0
H247 H 0.1848 0.67961 0.65782 0.0
H248 H 0.20628 0.74527 0.74458 0.0
C249 C 0.30902 0.80014 0.74413 0.0
C250 C 0.26281 0.74411 0.68345 0.0
C251 C 0.33714 0.81826 0.74849 0.0
C252 C 0.15758 0.64794 0.69529 0.0
C253 C 0.17799 0.67467 0.68663 0.0
C254 C 0.22181 0.74469 0.72722 0.0
C255 C 0.29796 0.78976 0.70852 0.0
C256 C 0.26904 0.76742 0.70493 0.0
C257 C 0.19051 0.69435 0.71517 0.0
C258 C 0.21613 0.72066 0.70782 0.0
H259 H 0.35648 0.82308 0.6568 0.0
H260 H 0.30738 0.79136 0.64932 0.0
H261 H 0.25217 0.7857 0.74224 0.0
H262 H 0.15397 0.65563 0.78969 0.0
H263 H 0.18986 0.70182 0.77482 0.0
C264 C 0.45667 0.91645 0.88631 0.0
C265 C 0.44996 0.923 0.85141 0.0
C266 C 0.46155 0.93345 0.9172 0.0
C267 C 0.47607 0.00355 0.94341 0.0
H268 H 0.46234 0.97169 0.04289 0.0
C269 C 0.52201 0.07114 0.07329 0.0
C270 C 0.50866 0.06265 0.108 0.0
C271 C 0.51224 0.05394 0.04217 0.0
C272 C 0.46586 0.98102 0.01542 0.0
H273 H 0.44258 0.95205 0.82123 0.0
H274 H 0.44952 0.98111 0.8757 0.0
H275 H 0.4487 0.94208 0.98856 0.0
H276 H 0.47428 0.02989 0.13748 0.0
H277 H 0.45606 0.0002 0.08255 0.0
H278 H 0.49156 0.04234 0.97024 0.0
C279 C 0.45213 0.96344 0.87911 0.0
C280 C 0.45853 0.96397 0.98403 0.0
C281 C 0.44801 0.94677 0.84787 0.0
C282 C 0.48505 0.03676 0.111 0.0
C283 C 0.47476 0.01974 0.07951 0.0
C284 C 0.48268 0.02053 0.97478 0.0
C285 C 0.45903 0.95704 0.91426 0.0
C286 C 0.46427 0.97504 0.94756 0.0
C287 C 0.48835 0.02803 0.04466 0.0
C288 C 0.47844 0.00961 0.01128 0.0
H289 H 0.45857 0.89834 0.88962 0.0
H290 H 0.46766 0.92814 0.94324 0.0
H291 H 0.48103 0.01303 0.91598 0.0
H292 H 0.54048 0.09093 0.07035 0.0
H293 H 0.52386 0.06088 0.01637 0.0
C294 C 0.50985 0.47908 0.35559 0.0
C295 C 0.52454 0.4653 0.36208 0.0
C296 C 0.49962 0.48723 0.38577 0.0
C297 C 0.48037 0.47136 0.48524 0.0
H298 H 0.48907 0.54408 0.48933 0.0
C299 C 0.46273 0.516 0.62093 0.0
C300 C 0.44931 0.5313 0.61768 0.0
C301 C 0.47078 0.50755 0.58885 0.0
C302 C 0.48617 0.52358 0.48838 0.0
H303 H 0.54044 0.44969 0.40523 0.0
H304 H 0.52286 0.46401 0.45744 0.0
H305 H 0.50488 0.53018 0.43416 0.0
H306 H 0.43355 0.54953 0.57829 0.0
H307 H 0.4473 0.53453 0.52248 0.0
H308 H 0.4618 0.46472 0.53943 0.0
C309 C 0.51884 0.46818 0.42918 0.0
C310 C 0.49521 0.51563 0.45679 0.0
C311 C 0.52908 0.46014 0.3992 0.0
C312 C 0.44395 0.53784 0.58176 0.0
C313 C 0.45197 0.52939 0.54974 0.0
C314 C 0.47131 0.47926 0.51675 0.0
C315 C 0.50382 0.4816 0.42285 0.0
C316 C 0.4927 0.48956 0.45512 0.0
C317 C 0.46554 0.51423 0.55291 0.0
C318 C 0.47436 0.50555 0.51886 0.0
H319 H 0.50603 0.48332 0.32728 0.0
H320 H 0.48801 0.49747 0.38009 0.0
H321 H 0.47772 0.45094 0.48445 0.0
H322 H 0.46722 0.51072 0.64822 0.0
H323 H 0.48151 0.49617 0.59221 0.0
C324 C 0.03321 0.52137 0.88017 0.0
C325 C 0.05808 0.54635 0.88064 0.0
C326 C 0.01669 0.51228 0.91221 0.0
C327 C 0.02042 0.52338 0.01536 0.0
H328 H 0.9411 0.48044 0.00773 0.0
C329 C 0.95133 0.46749 0.14302 0.0
C330 C 0.92527 0.46515 0.14434 0.0
C331 C 0.96797 0.47851 0.1113 0.0
C332 C 0.96321 0.49273 0.01051 0.0
H333 H 0.0846 0.58208 0.91418 0.0
H334 H 0.05532 0.56689 0.96941 0.0
H335 H 0.96836 0.49838 0.95123 0.0
H336 H 0.89668 0.47372 0.11465 0.0
H337 H 0.92599 0.49395 0.06032 0.0
H338 H 0.01517 0.51869 0.07479 0.0
C339 C 0.04895 0.55373 0.94494 0.0
C340 C 0.97891 0.50266 0.97794 0.0
C341 C 0.06563 0.56258 0.91316 0.0
C342 C 0.91656 0.47494 0.11416 0.0
C343 C 0.9333 0.48634 0.08285 0.0
C344 C 0.00469 0.51376 0.04799 0.0
C345 C 0.02453 0.52822 0.94517 0.0
C346 C 0.00773 0.51804 0.9799 0.0
C347 C 0.95898 0.48777 0.08061 0.0
C348 C 0.97587 0.49826 0.04599 0.0
H349 H 0.027 0.50836 0.85553 0.0
H350 H -0.00178 0.49237 0.91142 0.0
H351 H 0.04259 0.53475 0.01801 0.0
H352 H 0.95846 0.45996 0.16588 0.0
H353 H 0.98749 0.479 0.11044 0.0
C354 C 0.51622 0.03309 0.34678 0.0
C355 C 0.52934 0.06161 0.35171 0.0
C356 C 0.50986 0.01577 0.37781 0.0
C357 C 0.52727 0.01569 0.47817 0.0
H358 H 0.45667 0.94869 0.48151 0.0
C359 C 0.48247 0.95078 0.61281 0.0
C360 C 0.47001 0.92224 0.60843 0.0
C361 C 0.49087 0.96791 0.58137 0.0
C362 C 0.47657 0.96722 0.48081 0.0
H363 H 0.54603 0.09437 0.39298 0.0
H364 H 0.5345 0.06425 0.44685 0.0
H365 H 0.46915 0.97801 0.42633 0.0
H366 H 0.45701 0.88931 0.56776 0.0
H367 H 0.47165 0.91915 0.5132 0.0
H368 H 0.53442 0.00499 0.53301 0.0
C369 C 0.52958 0.0552 0.41911 0.0
C370 C 0.48376 0.98396 0.44916 0.0
C371 C 0.53602 0.07247 0.38818 0.0
C372 C 0.46645 0.91121 0.57212 0.0
C373 C 0.47469 0.92827 0.54081 0.0
C374 C 0.52 -0.001 0.50992 0.0
C375 C 0.51642 0.02666 0.41433 0.0
C376 C 0.50917 0.00842 0.4475 0.0
C377 C 0.48678 0.95676 0.54506 0.0
C378 C 0.49458 0.9746 0.51154 0.0
H379 H 0.51093 0.02414 0.319 0.0
H380 H 0.5 -0.00614 0.37316 0.0
H381 H 0.54718 0.0342 0.47754 0.0
H382 H 0.48549 0.95985 0.64044 0.0
H383 H 0.5 0.98982 0.58541 0.0
C384 C 0.47074 0.50967 0.856 0.0
C385 C 0.45631 0.52374 0.86221 0.0
C386 C 0.4807 0.5014 0.88636 0.0
C387 C 0.49972 0.51735 0.98592 0.0
H388 H 0.49047 0.44442 0.99028 0.0
C389 C 0.51738 0.47287 0.12175 0.0
C390 C 0.53077 0.45754 0.11846 0.0
C391 C 0.5092 0.48121 0.08969 0.0
C392 C 0.49351 0.46497 0.98926 0.0
H393 H 0.44058 0.53975 0.90506 0.0
H394 H 0.45768 0.52522 0.95758 0.0
H395 H 0.47487 0.45839 0.93497 0.0
H396 H 0.5463 0.43912 0.07902 0.0
H397 H 0.53232 0.45393 0.02326 0.0
H398 H 0.51825 0.52397 0.04017 0.0
C399 C 0.46171 0.52091 0.9294 0.0
C400 C 0.4846 0.47296 0.95759 0.0
C401 C 0.45175 0.52908 0.89924 0.0
C402 C 0.53593 0.45084 0.08253 0.0
C403 C 0.52778 0.45917 0.05054 0.0
C404 C 0.50865 0.5094 0.01752 0.0
C405 C 0.47648 0.5072 0.92334 0.0
C406 C 0.48735 0.49913 0.9558 0.0
C407 C 0.51427 0.4744 0.05374 0.0
C408 C 0.50542 0.48305 0.0197 0.0
H409 H 0.47456 0.50528 0.82777 0.0
H410 H 0.49212 0.49094 0.88089 0.0
H411 H 0.50255 0.53784 0.98504 0.0
H412 H 0.51305 0.47827 0.14905 0.0
H413 H 0.49852 0.49264 0.09308 0.0
C414 C 0.05993 0.50509 0.61425 0.0
C415 C 0.05156 0.51505 0.64462 0.0
C416 C 0.04307 0.49401 0.58294 0.0
C417 C 0.97174 0.46754 0.5485 0.0
H418 H 0.00769 0.4824 0.45156 0.0
C419 C 0.91041 0.41808 0.41398 0.0
C420 C 0.91796 0.43404 0.38123 0.0
C421 C 0.92709 0.4272 0.44578 0.0
C422 C -0.00275 0.47828 0.47831 0.0
H423 H 0.01884 0.52088 0.66646 0.0
H424 H 0.98961 0.50237 0.61105 0.0
H425 H 0.0352 0.50028 0.50792 0.0
H426 H 0.94898 0.47188 0.3558 0.0
H427 H 0.97775 0.48834 0.41171 0.0
H428 H 0.93371 0.44672 0.5187 0.0
C429 C 0.00896 0.5025 0.61175 0.0
C430 C 0.01309 0.48818 0.5108 0.0
C431 C 0.02571 0.51321 0.64346 0.0
C432 C 0.94278 0.45907 0.38061 0.0
C433 C 0.95929 0.46843 0.41266 0.0
C434 C 0.95587 0.45795 0.51595 0.0
C435 C 0.01761 0.49306 0.5809 0.0
C436 C 0.00056 0.48278 0.54636 0.0
C437 C 0.9515 0.45272 0.4458 0.0
C438 C 0.96843 0.46307 0.48043 0.0
H439 H 0.07964 0.50594 0.61459 0.0
H440 H 0.05011 0.48626 0.56027 0.0
H441 H 0.96136 0.46274 0.57535 0.0
H442 H 0.89148 0.39855 0.41514 0.0
H443 H 0.92075 0.41422 0.4704 0.0
loop_
_geom_bond_atom_site_label_1
_geom_bond_atom_site_label_2
_geom_bond_distance
_geom_bond_site_symmetry_2
_ccdc_geom_bond_type
O0 Cd1 2.223 . S
O0 C8 1.315 . S
Cd1 O0 2.223 . S
Cd1 O4 2.297 . S
Cd1 O5 2.439 . S
Cd1 O11 2.240 . S
Cd2 O3 2.240 . S
Cd2 O10 2.223 . S
Cd2 O12 2.297 . S
Cd2 O13 2.439 . S
O3 Cd2 2.240 . S
O3 C8 1.279 . S
O4 Cd1 2.297 . S
O4 C6 1.247 . S
O5 Cd1 2.439 . S
O5 C6 1.208 . S
C6 O4 1.247 . S
C6 O5 1.208 . S
C7 O12 1.247 . S
C7 O13 1.208 . S
C8 O0 1.315 . S
C8 O3 1.279 . S
C9 O10 1.315 . S
C9 O11 1.279 . S
O10 Cd2 2.223 . S
O10 C9 1.315 . S
O11 Cd1 2.240 . S
O11 C9 1.279 . S
O12 Cd2 2.297 . S
O12 C7 1.247 . S
O13 Cd2 2.439 . S
O13 C7 1.208 . S
O14 Cd15 2.223 . S
O14 C22 1.315 . S
Cd15 O14 2.223 . S
Cd15 O18 2.297 . S
Cd15 O19 2.439 . S
Cd15 O25 2.240 . S
Cd16 O17 2.240 . S
Cd16 O24 2.223 . S
Cd16 O26 2.297 . S
Cd16 O27 2.439 . S
O17 Cd16 2.240 . S
O17 C22 1.279 . S
O18 Cd15 2.297 . S
O18 C20 1.247 . S
O19 Cd15 2.439 . S
O19 C20 1.208 . S
C20 O18 1.247 . S
C20 O19 1.208 . S
C21 O26 1.247 . S
C21 O27 1.208 . S
C22 O14 1.315 . S
C22 O17 1.279 . S
C23 O24 1.315 . S
C23 O25 1.279 . S
O24 Cd16 2.223 . S
O24 C23 1.315 . S
O25 Cd15 2.240 . S
O25 C23 1.279 . S
O26 Cd16 2.297 . S
O26 C21 1.247 . S
O27 Cd16 2.439 . S
O27 C21 1.208 . S
O28 Cd29 2.223 . S
O28 C36 1.315 . S
Cd29 O28 2.223 . S
Cd29 O32 2.297 . S
Cd29 O33 2.439 . S
Cd29 O39 2.240 . S
Cd30 O31 2.240 . S
Cd30 O38 2.223 . S
Cd30 O40 2.297 . S
Cd30 O41 2.439 . S
O31 Cd30 2.240 . S
O31 C36 1.279 . S
O32 Cd29 2.297 . S
O32 C34 1.247 . S
O33 Cd29 2.439 . S
O33 C34 1.208 . S
C34 O32 1.247 . S
C34 O33 1.208 . S
C35 O40 1.247 . S
C35 O41 1.208 . S
C36 O28 1.315 . S
C36 O31 1.279 . S
C37 O38 1.315 . S
C37 O39 1.279 . S
O38 Cd30 2.223 . S
O38 C37 1.315 . S
O39 Cd29 2.240 . S
O39 C37 1.279 . S
O40 Cd30 2.297 . S
O40 C35 1.247 . S
O41 Cd30 2.439 . S
O41 C35 1.208 . S
O42 Cd43 2.223 . S
O42 C50 1.315 . S
Cd43 O42 2.223 . S
Cd43 O46 2.297 . S
Cd43 O47 2.439 . S
Cd43 O53 2.240 . S
Cd44 O45 2.240 . S
Cd44 O52 2.223 . S
Cd44 O54 2.297 . S
Cd44 O55 2.439 . S
O45 Cd44 2.240 . S
O45 C50 1.279 . S
O46 Cd43 2.297 . S
O46 C48 1.247 . S
O47 Cd43 2.439 . S
O47 C48 1.208 . S
C48 O46 1.247 . S
C48 O47 1.208 . S
C49 O54 1.247 . S
C49 O55 1.208 . S
C50 O42 1.315 . S
C50 O45 1.279 . S
C51 O52 1.315 . S
C51 O53 1.279 . S
O52 Cd44 2.223 . S
O52 C51 1.315 . S
O53 Cd43 2.240 . S
O53 C51 1.279 . S
O54 Cd44 2.297 . S
O54 C49 1.247 . S
O55 Cd44 2.439 . S
O55 C49 1.208 . S
O56 Cd57 2.223 . S
O56 C64 1.315 . S
Cd57 O56 2.223 . S
Cd57 O60 2.297 . S
Cd57 O61 2.439 . S
Cd57 O67 2.240 . S
Cd58 O59 2.240 . S
Cd58 O66 2.223 . S
Cd58 O68 2.297 . S
Cd58 O69 2.439 . S
O59 Cd58 2.240 . S
O59 C64 1.279 . S
O60 Cd57 2.297 . S
O60 C62 1.247 . S
O61 Cd57 2.439 . S
O61 C62 1.208 . S
C62 O60 1.247 . S
C62 O61 1.208 . S
C63 O68 1.247 . S
C63 O69 1.208 . S
C64 O56 1.315 . S
C64 O59 1.279 . S
C65 O66 1.315 . S
C65 O67 1.279 . S
O66 Cd58 2.223 . S
O66 C65 1.315 . S
O67 Cd57 2.240 . S
O67 C65 1.279 . S
O68 Cd58 2.297 . S
O68 C63 1.247 . S
O69 Cd58 2.439 . S
O69 C63 1.208 . S
O70 Cd71 2.223 . S
O70 C78 1.315 . S
Cd71 O70 2.223 . S
Cd71 O74 2.297 . S
Cd71 O75 2.439 . S
Cd71 O81 2.240 . S
Cd72 O73 2.240 . S
Cd72 O80 2.223 . S
Cd72 O82 2.297 . S
Cd72 O83 2.439 . S
O73 Cd72 2.240 . S
O73 C78 1.279 . S
O74 Cd71 2.297 . S
O74 C76 1.247 . S
O75 Cd71 2.439 . S
O75 C76 1.208 . S
C76 O74 1.247 . S
C76 O75 1.208 . S
C77 O82 1.247 . S
C77 O83 1.208 . S
C78 O70 1.315 . S
C78 O73 1.279 . S
C79 O80 1.315 . S
C79 O81 1.279 . S
O80 Cd72 2.223 . S
O80 C79 1.315 . S
O81 Cd71 2.240 . S
O81 C79 1.279 . S
O82 Cd72 2.297 . S
O82 C77 1.247 . S
O83 Cd72 2.439 . S
O83 C77 1.208 . S
C84 C85 1.349 . S
C84 C86 1.327 . S
C84 H109 0.950 . S
C85 C84 1.349 . S
C85 C101 1.349 . S
C86 C84 1.327 . S
C86 C105 1.429 . S
C86 H110 0.950 . S
C87 C104 1.574 . S
C87 C106 1.368 . S
C87 H111 0.949 . S
H88 C92 0.949 . S
C89 C90 1.349 . S
C89 C91 1.327 . S
C89 H112 0.950 . S
C90 C89 1.349 . S
C90 C102 1.349 . S
C91 C89 1.327 . S
C91 C107 1.429 . S
C91 H113 0.950 . S
C92 H88 0.949 . S
C92 C100 1.574 . S
C92 C108 1.368 . S
H93 C101 0.950 . S
H94 C99 0.950 . S
H95 C100 0.949 . S
H96 C102 0.950 . S
H97 C103 0.950 . S
H98 C104 0.949 . S
C99 H94 0.950 . S
C99 C101 1.327 . S
C99 C105 1.429 . S
C100 C92 1.574 . S
C100 H95 0.949 . S
C100 C106 1.368 . S
C101 C85 1.349 . S
C101 H93 0.950 . S
C101 C99 1.327 . S
C102 C90 1.349 . S
C102 H96 0.950 . S
C102 C103 1.327 . S
C103 H97 0.950 . S
C103 C102 1.327 . S
C103 C107 1.429 . S
C104 C87 1.574 . S
C104 H98 0.949 . S
C104 C108 1.368 . S
C105 C86 1.429 . S
C105 C99 1.429 . S
C105 C106 1.523 . S
C106 C87 1.368 . S
C106 C100 1.368 . S
C106 C105 1.523 . S
C107 C91 1.429 . S
C107 C103 1.429 . S
C107 C108 1.523 . S
C108 C92 1.368 . S
C108 C104 1.368 . S
C108 C107 1.523 . S
H109 C84 0.950 . S
H110 C86 0.950 . S
H111 C87 0.949 . S
H112 C89 0.950 . S
H113 C91 0.950 . S
C114 C115 1.349 . S
C114 C116 1.327 . S
C114 H139 0.950 . S
C115 C114 1.349 . S
C115 C131 1.349 . S
C116 C114 1.327 . S
C116 C135 1.429 . S
C116 H140 0.950 . S
C117 C134 1.574 . S
C117 C136 1.368 . S
C117 H141 0.949 . S
H118 C122 0.949 . S
C119 C120 1.349 . S
C119 C121 1.327 . S
C119 H142 0.950 . S
C120 C119 1.349 . S
C120 C132 1.349 . S
C121 C119 1.327 . S
C121 C137 1.429 . S
C121 H143 0.950 . S
C122 H118 0.949 . S
C122 C130 1.574 . S
C122 C138 1.368 . S
H123 C131 0.950 . S
H124 C129 0.950 . S
H125 C130 0.949 . S
H126 C132 0.950 . S
H127 C133 0.950 . S
H128 C134 0.949 . S
C129 H124 0.950 . S
C129 C131 1.327 . S
C129 C135 1.429 . S
C130 C122 1.574 . S
C130 H125 0.949 . S
C130 C136 1.368 . S
C131 C115 1.349 . S
C131 H123 0.950 . S
C131 C129 1.327 . S
C132 C120 1.349 . S
C132 H126 0.950 . S
C132 C133 1.327 . S
C133 H127 0.950 . S
C133 C132 1.327 . S
C133 C137 1.429 . S
C134 C117 1.574 . S
C134 H128 0.949 . S
C134 C138 1.368 . S
C135 C116 1.429 . S
C135 C129 1.429 . S
C135 C136 1.523 . S
C136 C117 1.368 . S
C136 C130 1.368 . S
C136 C135 1.523 . S
C137 C121 1.429 . S
C137 C133 1.429 . S
C137 C138 1.523 . S
C138 C122 1.368 . S
C138 C134 1.368 . S
C138 C137 1.523 . S
H139 C114 0.950 . S
H140 C116 0.950 . S
H141 C117 0.949 . S
H142 C119 0.950 . S
H143 C121 0.950 . S
C144 C145 1.349 . S
C144 C146 1.327 . S
C144 H169 0.950 . S
C145 C144 1.349 . S
C145 C161 1.349 . S
C146 C144 1.327 . S
C146 C165 1.429 . S
C146 H170 0.950 . S
C147 C164 1.574 . S
C147 C166 1.368 . S
C147 H171 0.949 . S
H148 C152 0.949 . S
C149 C150 1.349 . S
C149 C151 1.327 . S
C149 H172 0.950 . S
C150 C149 1.349 . S
C150 C162 1.349 . S
C151 C149 1.327 . S
C151 C167 1.429 . S
C151 H173 0.950 . S
C152 H148 0.949 . S
C152 C160 1.574 . S
C152 C168 1.368 . S
H153 C161 0.950 . S
H154 C159 0.950 . S
H155 C160 0.949 . S
H156 C162 0.950 . S
H157 C163 0.950 . S
H158 C164 0.949 . S
C159 H154 0.950 . S
C159 C161 1.327 . S
C159 C165 1.429 . S
C160 C152 1.574 . S
C160 H155 0.949 . S
C160 C166 1.368 . S
C161 C145 1.349 . S
C161 H153 0.950 . S
C161 C159 1.327 . S
C162 C150 1.349 . S
C162 H156 0.950 . S
C162 C163 1.327 . S
C163 H157 0.950 . S
C163 C162 1.327 . S
C163 C167 1.429 . S
C164 C147 1.574 . S
C164 H158 0.949 . S
C164 C168 1.368 . S
C165 C146 1.429 . S
C165 C159 1.429 . S
C165 C166 1.523 . S
C166 C147 1.368 . S
C166 C160 1.368 . S
C166 C165 1.523 . S
C167 C151 1.429 . S
C167 C163 1.429 . S
C167 C168 1.523 . S
C168 C152 1.368 . S
C168 C164 1.368 . S
C168 C167 1.523 . S
H169 C144 0.950 . S
H170 C146 0.950 . S
H171 C147 0.949 . S
H172 C149 0.950 . S
H173 C151 0.950 . S
C174 C175 1.349 . S
C174 C176 1.327 . S
C174 H199 0.950 . S
C175 C174 1.349 . S
C175 C191 1.349 . S
C176 C174 1.327 . S
C176 C195 1.429 . S
C176 H200 0.950 . S
C177 C194 1.574 . S
C177 C196 1.368 . S
C177 H201 0.949 . S
H178 C182 0.949 . S
C179 C180 1.349 . S
C179 C181 1.327 . S
C179 H202 0.950 . S
C180 C179 1.349 . S
C180 C192 1.349 . S
C181 C179 1.327 . S
C181 C197 1.429 . S
C181 H203 0.950 . S
C182 H178 0.949 . S
C182 C190 1.574 . S
C182 C198 1.368 . S
H183 C191 0.950 . S
H184 C189 0.950 . S
H185 C190 0.949 . S
H186 C192 0.950 . S
H187 C193 0.950 . S
H188 C194 0.949 . S
C189 H184 0.950 . S
C189 C191 1.327 . S
C189 C195 1.429 . S
C190 C182 1.574 . S
C190 H185 0.949 . S
C190 C196 1.368 . S
C191 C175 1.349 . S
C191 H183 0.950 . S
C191 C189 1.327 . S
C192 C180 1.349 . S
C192 H186 0.950 . S
C192 C193 1.327 . S
C193 H187 0.950 . S
C193 C192 1.327 . S
C193 C197 1.429 . S
C194 C177 1.574 . S
C194 H188 0.949 . S
C194 C198 1.368 . S
C195 C176 1.429 . S
C195 C189 1.429 . S
C195 C196 1.523 . S
C196 C177 1.368 . S
C196 C190 1.368 . S
C196 C195 1.523 . S
C197 C181 1.429 . S
C197 C193 1.429 . S
C197 C198 1.523 . S
C198 C182 1.368 . S
C198 C194 1.368 . S
C198 C197 1.523 . S
H199 C174 0.950 . S
H200 C176 0.950 . S
H201 C177 0.949 . S
H202 C179 0.950 . S
H203 C181 0.950 . S
C204 C205 1.349 . S
C204 C206 1.327 . S
C204 H229 0.950 . S
C205 C204 1.349 . S
C205 C221 1.349 . S
C206 C204 1.327 . S
C206 C225 1.429 . S
C206 H230 0.950 . S
C207 C224 1.574 . S
C207 C226 1.368 . S
C207 H231 0.949 . S
H208 C212 0.949 . S
C209 C210 1.349 . S
C209 C211 1.327 . S
C209 H232 0.950 . S
C210 C209 1.349 . S
C210 C222 1.349 . S
C211 C209 1.327 . S
C211 C227 1.429 . S
C211 H233 0.950 . S
C212 H208 0.949 . S
C212 C220 1.574 . S
C212 C228 1.368 . S
H213 C221 0.950 . S
H214 C219 0.950 . S
H215 C220 0.949 . S
H216 C222 0.950 . S
H217 C223 0.950 . S
H218 C224 0.949 . S
C219 H214 0.950 . S
C219 C221 1.327 . S
C219 C225 1.429 . S
C220 C212 1.574 . S
C220 H215 0.949 . S
C220 C226 1.368 . S
C221 C205 1.349 . S
C221 H213 0.950 . S
C221 C219 1.327 . S
C222 C210 1.349 . S
C222 H216 0.950 . S
C222 C223 1.327 . S
C223 H217 0.950 . S
C223 C222 1.327 . S
C223 C227 1.429 . S
C224 C207 1.574 . S
C224 H218 0.949 . S
C224 C228 1.368 . S
C225 C206 1.429 . S
C225 C219 1.429 . S
C225 C226 1.523 . S
C226 C207 1.368 . S
C226 C220 1.368 . S
C226 C225 1.523 . S
C227 C211 1.429 . S
C227 C223 1.429 . S
C227 C228 1.523 . S
C228 C212 1.368 . S
C228 C224 1.368 . S
C228 C227 1.523 . S
H229 C204 0.950 . S
H230 C206 0.950 . S
H231 C207 0.949 . S
H232 C209 0.950 . S
H233 C211 0.950 . S
C234 C235 1.349 . S
C234 C236 1.327 . S
C234 H259 0.950 . S
C235 C234 1.349 . S
C235 C251 1.349 . S
C236 C234 1.327 . S
C236 C255 1.429 . S
C236 H260 0.950 . S
C237 C254 1.574 . S
C237 C256 1.368 . S
C237 H261 0.949 . S
H238 C242 0.949 . S
C239 C240 1.349 . S
C239 C241 1.327 . S
C239 H262 0.950 . S
C240 C239 1.349 . S
C240 C252 1.349 . S
C241 C239 1.327 . S
C241 C257 1.429 . S
C241 H263 0.950 . S
C242 H238 0.949 . S
C242 C250 1.574 . S
C242 C258 1.368 . S
H243 C251 0.950 . S
H244 C249 0.950 . S
H245 C250 0.949 . S
H246 C252 0.950 . S
H247 C253 0.950 . S
H248 C254 0.949 . S
C249 H244 0.950 . S
C249 C251 1.327 . S
C249 C255 1.429 . S
C250 C242 1.574 . S
C250 H245 0.949 . S
C250 C256 1.368 . S
C251 C235 1.349 . S
C251 H243 0.950 . S
C251 C249 1.327 . S
C252 C240 1.349 . S
C252 H246 0.950 . S
C252 C253 1.327 . S
C253 H247 0.950 . S
C253 C252 1.327 . S
C253 C257 1.429 . S
C254 C237 1.574 . S
C254 H248 0.949 . S
C254 C258 1.368 . S
C255 C236 1.429 . S
C255 C249 1.429 . S
C255 C256 1.523 . S
C256 C237 1.368 . S
C256 C250 1.368 . S
C256 C255 1.523 . S
C257 C241 1.429 . S
C257 C253 1.429 . S
C257 C258 1.523 . S
C258 C242 1.368 . S
C258 C254 1.368 . S
C258 C257 1.523 . S
H259 C234 0.950 . S
H260 C236 0.950 . S
H261 C237 0.949 . S
H262 C239 0.950 . S
H263 C241 0.950 . S
C264 C265 1.349 . S
C264 C266 1.327 . S
C264 H289 0.950 . S
C265 C264 1.349 . S
C265 C281 1.349 . S
C266 C264 1.327 . S
C266 C285 1.429 . S
C266 H290 0.950 . S
C267 C284 1.574 1_556 S
C267 C286 1.368 1_545 S
C267 H291 0.949 . S
H268 C272 0.949 . S
C269 C270 1.349 . S
C269 C271 1.327 . S
C269 H292 0.950 . S
C270 C269 1.349 . S
C270 C282 1.349 . S
C271 C269 1.327 . S
C271 C287 1.429 . S
C271 H293 0.950 . S
C272 H268 0.949 . S
C272 C280 1.574 1_554 S
C272 C288 1.368 1_565 S
H273 C281 0.950 . S
H274 C279 0.950 . S
H275 C280 0.949 . S
H276 C282 0.950 . S
H277 C283 0.950 . S
H278 C284 0.949 . S
C279 H274 0.950 . S
C279 C281 1.327 . S
C279 C285 1.429 . S
C280 C272 1.574 1_556 S
C280 H275 0.949 . S
C280 C286 1.368 . S
C281 C265 1.349 . S
C281 H273 0.950 . S
C281 C279 1.327 . S
C282 C270 1.349 . S
C282 H276 0.950 . S
C282 C283 1.327 . S
C283 H277 0.950 . S
C283 C282 1.327 . S
C283 C287 1.429 . S
C284 C267 1.574 1_554 S
C284 H278 0.949 . S
C284 C288 1.368 . S
C285 C266 1.429 . S
C285 C279 1.429 . S
C285 C286 1.523 . S
C286 C267 1.368 1_565 S
C286 C280 1.368 . S
C286 C285 1.523 . S
C287 C271 1.429 . S
C287 C283 1.429 . S
C287 C288 1.523 . S
C288 C272 1.368 1_545 S
C288 C284 1.368 . S
C288 C287 1.523 . S
H289 C264 0.950 . S
H290 C266 0.950 . S
H291 C267 0.949 . S
H292 C269 0.950 . S
H293 C271 0.950 . S
C294 C295 1.349 . S
C294 C296 1.327 . S
C294 H319 0.950 . S
C295 C294 1.349 . S
C295 C311 1.349 . S
C296 C294 1.327 . S
C296 C315 1.429 . S
C296 H320 0.950 . S
C297 C314 1.574 . S
C297 C316 1.368 . S
C297 H321 0.949 . S
H298 C302 0.949 . S
C299 C300 1.349 . S
C299 C301 1.327 . S
C299 H322 0.950 . S
C300 C299 1.349 . S
C300 C312 1.349 . S
C301 C299 1.327 . S
C301 C317 1.429 . S
C301 H323 0.950 . S
C302 H298 0.949 . S
C302 C310 1.574 . S
C302 C318 1.368 . S
H303 C311 0.950 . S
H304 C309 0.950 . S
H305 C310 0.949 . S
H306 C312 0.950 . S
H307 C313 0.950 . S
H308 C314 0.949 . S
C309 H304 0.950 . S
C309 C311 1.327 . S
C309 C315 1.429 . S
C310 C302 1.574 . S
C310 H305 0.949 . S
C310 C316 1.368 . S
C311 C295 1.349 . S
C311 H303 0.950 . S
C311 C309 1.327 . S
C312 C300 1.349 . S
C312 H306 0.950 . S
C312 C313 1.327 . S
C313 H307 0.950 . S
C313 C312 1.327 . S
C313 C317 1.429 . S
C314 C297 1.574 . S
C314 H308 0.949 . S
C314 C318 1.368 . S
C315 C296 1.429 . S
C315 C309 1.429 . S
C315 C316 1.523 . S
C316 C297 1.368 . S
C316 C310 1.368 . S
C316 C315 1.523 . S
C317 C301 1.429 . S
C317 C313 1.429 . S
C317 C318 1.523 . S
C318 C302 1.368 . S
C318 C314 1.368 . S
C318 C317 1.523 . S
H319 C294 0.950 . S
H320 C296 0.950 . S
H321 C297 0.949 . S
H322 C299 0.950 . S
H323 C301 0.950 . S
C324 C325 1.349 . S
C324 C326 1.327 . S
C324 H349 0.950 . S
C325 C324 1.349 . S
C325 C341 1.349 . S
C326 C324 1.327 . S
C326 C345 1.429 . S
C326 H350 0.950 . S
C327 C344 1.574 1_456 S
C327 C346 1.368 . S
C327 H351 0.949 . S
H328 C332 0.949 . S
C329 C330 1.349 . S
C329 C331 1.327 . S
C329 H352 0.950 . S
C330 C329 1.349 . S
C330 C342 1.349 . S
C331 C329 1.327 . S
C331 C347 1.429 . S
C331 H353 0.950 . S
C332 H328 0.949 . S
C332 C340 1.574 1_654 S
C332 C348 1.368 . S
H333 C341 0.950 . S
H334 C339 0.950 . S
H335 C340 0.949 . S
H336 C342 0.950 . S
H337 C343 0.950 . S
H338 C344 0.949 . S
C339 H334 0.950 . S
C339 C341 1.327 . S
C339 C345 1.429 . S
C340 C332 1.574 1_456 S
C340 H335 0.949 . S
C340 C346 1.368 . S
C341 C325 1.349 . S
C341 H333 0.950 . S
C341 C339 1.327 . S
C342 C330 1.349 . S
C342 H336 0.950 . S
C342 C343 1.327 . S
C343 H337 0.950 . S
C343 C342 1.327 . S
C343 C347 1.429 . S
C344 C327 1.574 1_654 S
C344 H338 0.949 . S
C344 C348 1.368 . S
C345 C326 1.429 . S
C345 C339 1.429 . S
C345 C346 1.523 . S
C346 C327 1.368 . S
C346 C340 1.368 . S
C346 C345 1.523 . S
C347 C331 1.429 . S
C347 C343 1.429 . S
C347 C348 1.523 . S
C348 C332 1.368 . S
C348 C344 1.368 . S
C348 C347 1.523 . S
H349 C324 0.950 . S
H350 C326 0.950 . S
H351 C327 0.949 . S
H352 C329 0.950 . S
H353 C331 0.950 . S
C354 C355 1.349 . S
C354 C356 1.327 . S
C354 H379 0.950 . S
C355 C354 1.349 . S
C355 C371 1.349 . S
C356 C354 1.327 . S
C356 C375 1.429 . S
C356 H380 0.950 1_545 S
C357 C374 1.574 . S
C357 C376 1.368 . S
C357 H381 0.949 . S
H358 C362 0.949 . S
C359 C360 1.349 . S
C359 C361 1.327 . S
C359 H382 0.950 . S
C360 C359 1.349 . S
C360 C372 1.349 . S
C361 C359 1.327 . S
C361 C377 1.429 . S
C361 H383 0.950 1_565 S
C362 H358 0.949 . S
C362 C370 1.574 . S
C362 C378 1.368 . S
H363 C371 0.950 . S
H364 C369 0.950 . S
H365 C370 0.949 . S
H366 C372 0.950 . S
H367 C373 0.950 . S
H368 C374 0.949 . S
C369 H364 0.950 . S
C369 C371 1.327 . S
C369 C375 1.429 . S
C370 C362 1.574 . S
C370 H365 0.949 . S
C370 C376 1.368 1_565 S
C371 C355 1.349 . S
C371 H363 0.950 . S
C371 C369 1.327 . S
C372 C360 1.349 . S
C372 H366 0.950 . S
C372 C373 1.327 . S
C373 H367 0.950 . S
C373 C372 1.327 . S
C373 C377 1.429 . S
C374 C357 1.574 . S
C374 H368 0.949 . S
C374 C378 1.368 1_545 S
C375 C356 1.429 . S
C375 C369 1.429 . S
C375 C376 1.523 . S
C376 C357 1.368 . S
C376 C370 1.368 1_545 S
C376 C375 1.523 . S
C377 C361 1.429 . S
C377 C373 1.429 . S
C377 C378 1.523 . S
C378 C362 1.368 . S
C378 C374 1.368 1_565 S
C378 C377 1.523 . S
H379 C354 0.950 . S
H380 C356 0.950 1_565 S
H381 C357 0.949 . S
H382 C359 0.950 . S
H383 C361 0.950 1_545 S
C384 C385 1.349 . S
C384 C386 1.327 . S
C384 H409 0.950 . S
C385 C384 1.349 . S
C385 C401 1.349 . S
C386 C384 1.327 . S
C386 C405 1.429 . S
C386 H410 0.950 . S
C387 C404 1.574 1_556 S
C387 C406 1.368 . S
C387 H411 0.949 . S
H388 C392 0.949 . S
C389 C390 1.349 . S
C389 C391 1.327 . S
C389 H412 0.950 . S
C390 C389 1.349 . S
C390 C402 1.349 . S
C391 C389 1.327 . S
C391 C407 1.429 . S
C391 H413 0.950 . S
C392 H388 0.949 . S
C392 C400 1.574 1_554 S
C392 C408 1.368 . S
H393 C401 0.950 . S
H394 C399 0.950 . S
H395 C400 0.949 . S
H396 C402 0.950 . S
H397 C403 0.950 . S
H398 C404 0.949 . S
C399 H394 0.950 . S
C399 C401 1.327 . S
C399 C405 1.429 . S
C400 C392 1.574 1_556 S
C400 H395 0.949 . S
C400 C406 1.368 . S
C401 C385 1.349 . S
C401 H393 0.950 . S
C401 C399 1.327 . S
C402 C390 1.349 . S
C402 H396 0.950 . S
C402 C403 1.327 . S
C403 H397 0.950 . S
C403 C402 1.327 . S
C403 C407 1.429 . S
C404 C387 1.574 1_554 S
C404 H398 0.949 . S
C404 C408 1.368 . S
C405 C386 1.429 . S
C405 C399 1.429 . S
C405 C406 1.523 . S
C406 C387 1.368 . S
C406 C400 1.368 . S
C406 C405 1.523 . S
C407 C391 1.429 . S
C407 C403 1.429 . S
C407 C408 1.523 . S
C408 C392 1.368 . S
C408 C404 1.368 . S
C408 C407 1.523 . S
H409 C384 0.950 . S
H410 C386 0.950 . S
H411 C387 0.949 . S
H412 C389 0.950 . S
H413 C391 0.950 . S
C414 C415 1.349 . S
C414 C416 1.327 . S
C414 H439 0.950 . S
C415 C414 1.349 . S
C415 C431 1.349 . S
C416 C414 1.327 . S
C416 C435 1.429 . S
C416 H440 0.950 . S
C417 C434 1.574 . S
C417 C436 1.368 1_655 S
C417 H441 0.949 . S
H418 C422 0.949 . S
C419 C420 1.349 . S
C419 C421 1.327 . S
C419 H442 0.950 . S
C420 C419 1.349 . S
C420 C432 1.349 . S
C421 C419 1.327 . S
C421 C437 1.429 . S
C421 H443 0.950 . S
C422 H418 0.949 . S
C422 C430 1.574 . S
C422 C438 1.368 1_455 S
H423 C431 0.950 . S
H424 C429 0.950 . S
H425 C430 0.949 . S
H426 C432 0.950 . S
H427 C433 0.950 . S
H428 C434 0.949 . S
C429 H424 0.950 . S
C429 C431 1.327 . S
C429 C435 1.429 . S
C430 C422 1.574 . S
C430 H425 0.949 . S
C430 C436 1.368 . S
C431 C415 1.349 . S
C431 H423 0.950 . S
C431 C429 1.327 . S
C432 C420 1.349 . S
C432 H426 0.950 . S
C432 C433 1.327 . S
C433 H427 0.950 . S
C433 C432 1.327 . S
C433 C437 1.429 . S
C434 C417 1.574 . S
C434 H428 0.949 . S
C434 C438 1.368 . S
C435 C416 1.429 . S
C435 C429 1.429 . S
C435 C436 1.523 . S
C436 C417 1.368 1_455 S
C436 C430 1.368 . S
C436 C435 1.523 . S
C437 C421 1.429 . S
C437 C433 1.429 . S
C437 C438 1.523 . S
C438 C422 1.368 1_655 S
C438 C434 1.368 . S
C438 C437 1.523 . S
H439 C414 0.950 . S
H440 C416 0.950 . S
H441 C417 0.949 . S
H442 C419 0.950 . S
H443 C421 0.950 . S
C85 C9 1.159 . S
C90 C64 1.159 . S
C115 C23 1.159 . S
C120 C78 1.159 . S
C145 C8 1.159 . S
C150 C36 1.159 . S
C175 C50 1.159 . S
C180 C22 1.159 . S
C205 C65 1.159 . S
C210 C37 1.159 . S
C235 C51 1.159 . S
C240 C79 1.159 . S
C265 C49 1.425 . S
C270 C7 1.425 . S
C295 C62 1.425 . S
C300 C21 1.425 . S
C325 C76 1.425 . S
C330 C34 1.425 . S
C355 C6 1.425 . S
C360 C48 1.425 . S
C385 C20 1.425 . S
C390 C63 1.425 . S
C415 C77 1.425 . S
C420 C35 1.425 . S
