# Generated by pormake.
# Topology fcp, (5)-cn, num edge types: 1
# Building blocks:
#     Node 0, Type 0, BuildingBlock: XOMCOT_clean_sbu_1, # of connection points: 5
#     Node 1, Type 0, BuildingBlock: XOMCOT_clean_sbu_1, # of connection points: 5
#     Node 2, Type 0, BuildingBlock: XOMCOT_clean_sbu_1, # of connection points: 5
#     Node 3, Type 0, BuildingBlock: XOMCOT_clean_sbu_1, # of connection points: 5
#     Node 4, Type 0, BuildingBlock: XOMCOT_clean_sbu_1, # of connection points: 5
#     Node 5, Type 0, BuildingBlock: XOMCOT_clean_sbu_1, # of connection points: 5
#     Node 6, Type 0, BuildingBlock: XOMCOT_clean_sbu_1, # of connection points: 5
#     Node 7, Type 0, BuildingBlock: XOMCOT_clean_sbu_1, # of connection points: 5
#     Node 8, Type 0, BuildingBlock: XOMCOT_clean_sbu_1, # of connection points: 5
#     Node 9, Type 0, BuildingBlock: XOMCOT_clean_sbu_1, # of connection points: 5
#     Node 10, Type 0, BuildingBlock: XOMCOT_clean_sbu_1, # of connection points: 5
#     Node 11, Type 0, BuildingBlock: XOMCOT_clean_sbu_1, # of connection points: 5
#     Node 12, Type 0, BuildingBlock: XOMCOT_clean_sbu_1, # of connection points: 5
#     Node 13, Type 0, BuildingBlock: XOMCOT_clean_sbu_1, # of connection points: 5
#     Node 14, Type 0, BuildingBlock: XOMCOT_clean_sbu_1, # of connection points: 5
#     Node 15, Type 0, BuildingBlock: XOMCOT_clean_sbu_1, # of connection points: 5
#     Node 16, Type 0, BuildingBlock: XOMCOT_clean_sbu_1, # of connection points: 5
#     Node 17, Type 0, BuildingBlock: XOMCOT_clean_sbu_1, # of connection points: 5
#     Node 18, Type 0, BuildingBlock: XOMCOT_clean_sbu_1, # of connection points: 5
#     Node 19, Type 0, BuildingBlock: XOMCOT_clean_sbu_1, # of connection points: 5
#     Node 20, Type 0, BuildingBlock: XOMCOT_clean_sbu_1, # of connection points: 5
#     Node 21, Type 0, BuildingBlock: XOMCOT_clean_sbu_1, # of connection points: 5
#     Node 22, Type 0, BuildingBlock: XOMCOT_clean_sbu_1, # of connection points: 5
#     Node 23, Type 0, BuildingBlock: XOMCOT_clean_sbu_1, # of connection points: 5
#     Edge 24, Type (0, 0), None
#     Edge 25, Type (0, 0), None
#     Edge 26, Type (0, 0), None
#     Edge 27, Type (0, 0), None
#     Edge 28, Type (0, 0), None
#     Edge 29, Type (0, 0), None
#     Edge 30, Type (0, 0), None
#     Edge 31, Type (0, 0), None
#     Edge 32, Type (0, 0), None
#     Edge 33, Type (0, 0), None
#     Edge 34, Type (0, 0), None
#     Edge 35, Type (0, 0), None
#     Edge 36, Type (0, 0), None
#     Edge 37, Type (0, 0), None
#     Edge 38, Type (0, 0), None
#     Edge 39, Type (0, 0), None
#     Edge 40, Type (0, 0), None
#     Edge 41, Type (0, 0), None
#     Edge 42, Type (0, 0), None
#     Edge 43, Type (0, 0), None
#     Edge 44, Type (0, 0), None
#     Edge 45, Type (0, 0), None
#     Edge 46, Type (0, 0), None
#     Edge 47, Type (0, 0), None
#     Edge 48, Type (0, 0), None
#     Edge 49, Type (0, 0), None
#     Edge 50, Type (0, 0), None
#     Edge 51, Type (0, 0), None
#     Edge 52, Type (0, 0), None
#     Edge 53, Type (0, 0), None
#     Edge 54, Type (0, 0), None
#     Edge 55, Type (0, 0), None
#     Edge 56, Type (0, 0), None
#     Edge 57, Type (0, 0), None
#     Edge 58, Type (0, 0), None
#     Edge 59, Type (0, 0), None
#     Edge 60, Type (0, 0), None
#     Edge 61, Type (0, 0), None
#     Edge 62, Type (0, 0), None
#     Edge 63, Type (0, 0), None
#     Edge 64, Type (0, 0), None
#     Edge 65, Type (0, 0), None
#     Edge 66, Type (0, 0), None
#     Edge 67, Type (0, 0), None
#     Edge 68, Type (0, 0), None
#     Edge 69, Type (0, 0), None
#     Edge 70, Type (0, 0), None
#     Edge 71, Type (0, 0), None
#     Edge 72, Type (0, 0), None
#     Edge 73, Type (0, 0), None
#     Edge 74, Type (0, 0), None
#     Edge 75, Type (0, 0), None
#     Edge 76, Type (0, 0), None
#     Edge 77, Type (0, 0), None
#     Edge 78, Type (0, 0), None
#     Edge 79, Type (0, 0), None
#     Edge 80, Type (0, 0), None
#     Edge 81, Type (0, 0), None
#     Edge 82, Type (0, 0), None
#     Edge 83, Type (0, 0), None
# Relax obj value: 0.085
# Max RMSD: 0.136
# Mean RMSD: 0.136
data_MOF--net-fcp--node1-XOMCOT_clean_sbu_1--edge1-none
_symmetry_space_group_name_H-M    P1
_symmetry_Int_Tables_number       1
_symmetry_cell_setting            triclinic
loop_
_symmetry_equiv_pos_as_xyz
'x, y, z'
_cell_length_a     26.426745
_cell_length_b     26.427072
_cell_length_c     26.426626
_cell_angle_alpha  90.00138
_cell_angle_beta   90.000469
_cell_angle_gamma 89.996921
loop_
_atom_site_label
_atom_site_type_symbol
_atom_site_fract_x
_atom_site_fract_y
_atom_site_fract_z
_atom_type_partial_charge
C0 C 0.99268 0.3433 0.19108 0.0
C1 C 0.95476 0.35744 0.22395 0.0
N2 N 0.97645 0.37477 0.26675 0.0
N3 N 0.03789 0.35338 0.21253 0.0
C4 C 0.02675 0.3714 0.25909 0.0
H5 H 0.98769 0.3278 0.15351 0.0
Co6 Co 0.1021 0.34434 0.18513 0.0
C7 C 0.13277 0.45231 0.21733 0.0
O8 O 0.1235 0.47769 0.17564 0.0
N9 N 0.16755 0.33324 0.15969 0.0
C10 C 0.25124 0.33132 0.1491 0.0
C11 C 0.21077 0.36011 0.16524 0.0
C12 C 0.18277 0.28866 0.13982 0.0
N13 N 0.23321 0.28651 0.13303 0.0
O14 O 0.12088 0.30786 0.24465 0.0
H15 H 0.21357 0.39715 0.18221 0.0
H16 H 0.15735 0.25742 0.13243 0.0
O17 O 0.12503 0.40476 0.21932 0.0
C18 C 0.11655 0.25996 0.24586 0.0
O19 O 0.09793 0.2363 0.20628 0.0
N20 N 0.08174 0.3787 0.1241 0.0
C21 C 0.03105 0.40391 0.03417 0.0
C22 C 0.02264 0.4318 0.0785 0.0
C23 C 0.04885 0.4189 0.12309 0.0
C24 C 0.09136 0.35302 0.08025 0.0
C25 C 0.06751 0.36571 0.03502 0.0
H26 H 0.0386 0.43793 0.15781 0.0
H27 H 0.11381 0.31921 0.08031 0.0
H28 H 0.05504 0.3828 0.28648 0.0
H29 H 0.91444 0.35482 0.21707 0.0
H30 H 0.29079 0.34204 0.15015 0.0
H31 H 0.99348 0.46058 0.07969 0.0
H32 H 0.07376 0.34223 1.00196 0.0
C33 C 0.84331 0.53302 0.33462 0.0
C34 C 0.85745 0.57093 0.30175 0.0
N35 N 0.87479 0.54924 0.25895 0.0
N36 N 0.85338 0.4878 0.31317 0.0
C37 C 0.87142 0.49894 0.26661 0.0
H38 H 0.8278 0.53801 0.37218 0.0
Co39 Co 0.84435 0.4236 0.34057 0.0
C40 C 0.95231 0.39291 0.30837 0.0
O41 O 0.9777 0.40218 0.35006 0.0
N42 N 0.83323 0.35814 0.36601 0.0
C43 C 0.83132 0.27446 0.37661 0.0
C44 C 0.86011 0.31492 0.36046 0.0
C45 C 0.78866 0.34294 0.38588 0.0
N46 N 0.78651 0.29249 0.39268 0.0
O47 O 0.80787 0.40482 0.28105 0.0
H48 H 0.89715 0.31212 0.34349 0.0
H49 H 0.75742 0.36836 0.39327 0.0
O50 O 0.90477 0.40065 0.30638 0.0
C51 C 0.75996 0.40915 0.27983 0.0
O52 O 0.7363 0.42777 0.31942 0.0
N53 N 0.87871 0.44396 0.4016 0.0
C54 C 0.90392 0.49463 0.49153 0.0
C55 C 0.93181 0.50304 0.4472 0.0
C56 C 0.91891 0.47683 0.40261 0.0
C57 C 0.85303 0.43434 0.44545 0.0
C58 C 0.86573 0.45818 0.49068 0.0
H59 H 0.93793 0.48708 0.36789 0.0
H60 H 0.81922 0.41189 0.44539 0.0
H61 H 0.88282 0.47065 0.23923 0.0
H62 H 0.85483 0.61126 0.30863 0.0
H63 H 0.84204 0.23491 0.37555 0.0
H64 H 0.96059 0.5322 0.44601 0.0
H65 H 0.84225 0.45193 0.52375 0.0
C66 C 0.03303 0.68238 0.19108 0.0
C67 C 0.07094 0.66825 0.22395 0.0
N68 N 0.04925 0.65092 0.26676 0.0
N69 N 0.98781 0.67231 0.21253 0.0
C70 C 0.99895 0.65428 0.2591 0.0
H71 H 0.03801 0.69788 0.15352 0.0
Co72 Co 0.92361 0.68134 0.18514 0.0
C73 C 0.89293 0.57338 0.21733 0.0
O74 O 0.90221 0.54799 0.17564 0.0
N75 N 0.85815 0.69245 0.1597 0.0
C76 C 0.77446 0.69437 0.1491 0.0
C77 C 0.81493 0.66557 0.16525 0.0
C78 C 0.84294 0.73702 0.13983 0.0
N79 N 0.79249 0.73917 0.13303 0.0
O80 O 0.90482 0.71782 0.24465 0.0
H81 H 0.81213 0.62853 0.18221 0.0
H82 H 0.86835 0.76826 0.13244 0.0
O83 O 0.90067 0.62092 0.21932 0.0
C84 C 0.90916 0.76573 0.24587 0.0
O85 O 0.92777 0.78938 0.20628 0.0
N86 N 0.94397 0.64698 0.1241 0.0
C87 C 0.99465 0.62178 0.03417 0.0
C88 C 1.00306 0.59388 0.07849 0.0
C89 C 0.97685 0.60679 0.12309 0.0
C90 C 0.93434 0.67266 0.08025 0.0
C91 C 0.9582 0.65997 0.03502 0.0
H92 H 0.9871 0.58776 0.15781 0.0
H93 H 0.91189 0.70648 0.08032 0.0
H94 H 0.97066 0.64288 0.28648 0.0
H95 H 0.11127 0.67087 0.21707 0.0
H96 H 0.73491 0.68364 0.15015 0.0
H97 H 0.03223 0.56511 0.07969 0.0
H98 H 0.95194 0.68346 1.00196 0.0
C99 C 0.1824 0.49267 0.33462 0.0
C100 C 0.16825 0.45476 0.30175 0.0
N101 N 0.15091 0.47645 0.25895 0.0
N102 N 0.17232 0.53788 0.31317 0.0
C103 C 0.15428 0.52675 0.26661 0.0
H104 H 0.19791 0.48768 0.37218 0.0
Co105 Co 0.18136 0.60209 0.34057 0.0
C106 C 0.0734 0.63278 0.30837 0.0
O107 O 0.04801 0.62351 0.35007 0.0
N108 N 0.19247 0.66754 0.36601 0.0
C109 C 0.19439 0.75123 0.37661 0.0
C110 C 0.1656 0.71076 0.36046 0.0
C111 C 0.23705 0.68275 0.38588 0.0
N112 N 0.2392 0.7332 0.39268 0.0
O113 O 0.21784 0.62087 0.28105 0.0
H114 H 0.12856 0.71357 0.34349 0.0
H115 H 0.26829 0.65733 0.39327 0.0
O116 O 0.12094 0.62503 0.30638 0.0
C117 C 0.26575 0.61654 0.27983 0.0
O118 O 0.2894 0.59792 0.31942 0.0
N119 N 0.147 0.58173 0.4016 0.0
C120 C 0.1218 0.53106 0.49153 0.0
C121 C 0.0939 0.52265 0.44721 0.0
C122 C 0.10681 0.54886 0.40262 0.0
C123 C 0.17269 0.59135 0.44545 0.0
C124 C 0.15999 0.5675 0.49068 0.0
H125 H 0.08778 0.53861 0.36789 0.0
H126 H 0.2065 0.6138 0.44539 0.0
H127 H 0.14289 0.55504 0.23923 0.0
H128 H 0.17088 0.41443 0.30863 0.0
H129 H 0.18366 0.79078 0.37555 0.0
H130 H 0.06512 0.49349 0.44602 0.0
H131 H 0.18348 0.57375 0.52374 0.0
C132 C 0.99268 0.68239 0.83463 0.0
C133 C 0.95477 0.66825 0.80176 0.0
N134 N 0.97646 0.65092 0.75895 0.0
N135 N 0.03789 0.67232 0.81317 0.0
C136 C 0.02676 0.65429 0.76661 0.0
H137 H 0.98769 0.69789 0.87219 0.0
Co138 Co 0.1021 0.68135 0.84057 0.0
C139 C 0.13279 0.57339 0.80837 0.0
O140 O 0.12353 0.54801 0.85007 0.0
N141 N 0.16755 0.69246 0.86601 0.0
C142 C 0.25124 0.69438 0.87661 0.0
C143 C 0.21077 0.66559 0.86046 0.0
C144 C 0.18276 0.73704 0.88588 0.0
N145 N 0.23321 0.73919 0.89268 0.0
O146 O 0.12088 0.71783 0.78106 0.0
H147 H 0.21358 0.62855 0.84349 0.0
H148 H 0.15734 0.76828 0.89328 0.0
O149 O 0.12504 0.62093 0.80638 0.0
C150 C 0.11655 0.76574 0.77984 0.0
O151 O 0.09793 0.7894 0.81942 0.0
N152 N 0.08174 0.64699 0.9016 0.0
C153 C 0.03106 0.62179 0.99152 0.0
C154 C 0.02266 0.59389 0.9472 0.0
C155 C 0.04887 0.60679 0.90261 0.0
C156 C 0.09136 0.67268 0.94545 0.0
C157 C 0.06751 0.65998 0.99068 0.0
H158 H 0.03862 0.58776 0.86788 0.0
H159 H 0.1138 0.70649 0.94539 0.0
H160 H 0.05505 0.64289 0.73923 0.0
H161 H 0.91444 0.67087 0.80864 0.0
H162 H 0.29079 0.68366 0.87555 0.0
H163 H 0.9935 0.56511 0.94601 0.0
H164 H 0.07375 0.68347 0.02375 0.0
C165 C 0.18239 0.53302 0.69108 0.0
C166 C 0.16825 0.57093 0.72395 0.0
N167 N 0.15092 0.54925 0.76675 0.0
N168 N 0.17232 0.48781 0.71253 0.0
C169 C 0.15429 0.49895 0.7591 0.0
H170 H 0.19789 0.538 0.65351 0.0
Co171 Co 0.18135 0.4236 0.68514 0.0
C172 C 0.07339 0.39292 0.71733 0.0
O173 O 0.048 0.40219 0.67564 0.0
N174 N 0.19246 0.35814 0.65969 0.0
C175 C 0.19438 0.27446 0.6491 0.0
C176 C 0.16558 0.31493 0.66524 0.0
C177 C 0.23703 0.34293 0.63982 0.0
N178 N 0.23918 0.29248 0.63303 0.0
O179 O 0.21783 0.40481 0.74465 0.0
H180 H 0.12854 0.31213 0.68221 0.0
H181 H 0.26827 0.36834 0.63244 0.0
O182 O 0.12093 0.40067 0.71932 0.0
C183 C 0.26574 0.40915 0.74587 0.0
O184 O 0.28939 0.42776 0.70628 0.0
N185 N 0.14699 0.44396 0.6241 0.0
C186 C 0.1218 0.49465 0.53418 0.0
C187 C 0.09389 0.50305 0.5785 0.0
C188 C 0.10679 0.47684 0.62309 0.0
C189 C 0.17269 0.43435 0.58026 0.0
C190 C 0.16 0.4582 0.53502 0.0
H191 H 0.08776 0.48708 0.65781 0.0
H192 H 0.20651 0.4119 0.58032 0.0
H193 H 0.1429 0.47066 0.78648 0.0
H194 H 0.17087 0.61126 0.71707 0.0
H195 H 0.18365 0.23491 0.65015 0.0
H196 H 0.06511 0.53221 0.57968 0.0
H197 H 0.18349 0.45196 0.50196 0.0
C198 C 0.03303 0.3433 0.83462 0.0
C199 C 0.07094 0.35745 0.80175 0.0
N200 N 0.04925 0.37479 0.75895 0.0
N201 N 0.98781 0.35338 0.81317 0.0
C202 C 0.99895 0.37141 0.76661 0.0
H203 H 0.03802 0.3278 0.87218 0.0
Co204 Co 0.92361 0.34434 0.84056 0.0
C205 C 0.89292 0.4523 0.80837 0.0
O206 O 0.90218 0.47769 0.85007 0.0
N207 N 0.85815 0.33323 0.86601 0.0
C208 C 0.77446 0.33131 0.8766 0.0
C209 C 0.81493 0.3601 0.86046 0.0
C210 C 0.84294 0.28865 0.88588 0.0
N211 N 0.7925 0.2865 0.89267 0.0
O212 O 0.90482 0.30786 0.78105 0.0
H213 H 0.81212 0.39714 0.84349 0.0
H214 H 0.86836 0.25741 0.89327 0.0
O215 O 0.90066 0.40476 0.80638 0.0
C216 C 0.90916 0.25995 0.77983 0.0
O217 O 0.92778 0.2363 0.81941 0.0
N218 N 0.94396 0.3787 0.9016 0.0
C219 C 0.99464 0.4039 0.99152 0.0
C220 C 1.00305 0.43181 0.9472 0.0
C221 C 0.97684 0.4189 0.90261 0.0
C222 C 0.93435 0.35301 0.94545 0.0
C223 C 0.9582 0.36571 0.99068 0.0
H224 H 0.98708 0.43793 0.86789 0.0
H225 H 0.9119 0.3192 0.94538 0.0
H226 H 0.97066 0.3828 0.73923 0.0
H227 H 0.11127 0.35483 0.80863 0.0
H228 H 0.73491 0.34203 0.87555 0.0
H229 H 0.03221 0.46059 0.94601 0.0
H230 H 0.95196 0.34222 0.02374 0.0
C231 C 0.84331 0.49267 0.69107 0.0
C232 C 0.85745 0.45476 0.72394 0.0
N233 N 0.87479 0.47645 0.76675 0.0
N234 N 0.85339 0.53788 0.71253 0.0
C235 C 0.87142 0.52674 0.75909 0.0
H236 H 0.82781 0.48768 0.65351 0.0
Co237 Co 0.84436 0.60209 0.68513 0.0
C238 C 0.95232 0.63277 0.71733 0.0
O239 O 0.97771 0.6235 0.67564 0.0
N240 N 0.83325 0.66754 0.65969 0.0
C241 C 0.83133 0.75123 0.64909 0.0
C242 C 0.86012 0.71076 0.66524 0.0
C243 C 0.78867 0.68276 0.63982 0.0
N244 N 0.78652 0.7332 0.63302 0.0
O245 O 0.80787 0.62087 0.74465 0.0
H246 H 0.89716 0.71356 0.68221 0.0
H247 H 0.75743 0.65734 0.63243 0.0
O248 O 0.90478 0.62503 0.71932 0.0
C249 C 0.75997 0.61654 0.74586 0.0
O250 O 0.73632 0.59792 0.70628 0.0
N251 N 0.87872 0.58173 0.6241 0.0
C252 C 0.90392 0.53104 0.53418 0.0
C253 C 0.93182 0.52263 0.5785 0.0
C254 C 0.91892 0.54885 0.62309 0.0
C255 C 0.85303 0.59135 0.58025 0.0
C256 C 0.86572 0.5675 0.53502 0.0
H257 H 0.93795 0.5386 0.65782 0.0
H258 H 0.81922 0.6138 0.58032 0.0
H259 H 0.88281 0.55503 0.78648 0.0
H260 H 0.85483 0.41443 0.71706 0.0
H261 H 0.84206 0.79078 0.65015 0.0
H262 H 0.9606 0.49347 0.57969 0.0
H263 H 0.84224 0.57374 0.50196 0.0
C264 C 0.19108 0.99266 0.3433 0.0
C265 C 0.22395 0.95475 0.35744 0.0
N266 N 0.26675 0.97644 0.37478 0.0
N267 N 0.21253 0.03788 0.35337 0.0
C268 C 0.2591 0.02674 0.37141 0.0
H269 H 0.15352 0.98768 0.32779 0.0
Co270 Co 0.18514 0.10208 0.34434 0.0
C271 C 0.21733 0.13276 0.4523 0.0
O272 O 0.17564 0.1235 0.47769 0.0
N273 N 0.1597 0.16754 0.33323 0.0
C274 C 0.1491 0.25123 0.33131 0.0
C275 C 0.16523 0.21076 0.36011 0.0
C276 C 0.13985 0.18275 0.28864 0.0
N277 N 0.13307 0.2332 0.28649 0.0
O278 O 0.24466 0.12087 0.30786 0.0
H279 H 0.18218 0.21355 0.39716 0.0
H280 H 0.13246 0.15734 0.2574 0.0
O281 O 0.21932 0.12502 0.40476 0.0
C282 C 0.24588 0.11653 0.25995 0.0
O283 O 0.2063 0.09792 0.2363 0.0
N284 N 0.1241 0.08173 0.37869 0.0
C285 C 0.03417 0.03105 0.40388 0.0
C286 C 0.07849 0.02265 0.43179 0.0
C287 C 0.12308 0.04885 0.41889 0.0
C288 C 0.08026 0.09135 0.353 0.0
C289 C 0.03503 0.0675 0.36568 0.0
H290 H 0.15781 0.0386 0.43792 0.0
H291 H 0.08033 0.11379 0.31918 0.0
H292 H 0.28647 0.05503 0.38281 0.0
H293 H 0.21707 0.91443 0.35482 0.0
H294 H 0.15014 0.29077 0.34205 0.0
H295 H 0.07968 0.99349 0.46057 0.0
H296 H 1.00197 0.07374 0.34219 0.0
C297 C 0.49267 0.33462 0.1824 0.0
C298 C 0.45476 0.30175 0.16826 0.0
N299 N 0.47645 0.25895 0.15092 0.0
N300 N 0.53789 0.31317 0.17232 0.0
C301 C 0.52675 0.2666 0.15429 0.0
H302 H 0.48768 0.37218 0.1979 0.0
Co303 Co 0.60209 0.34056 0.18136 0.0
C304 C 0.63278 0.30836 0.0734 0.0
O305 O 0.6235 0.35005 0.04801 0.0
N306 N 0.66755 0.366 0.19247 0.0
C307 C 0.75123 0.3766 0.19439 0.0
C308 C 0.71076 0.36046 0.16559 0.0
C309 C 0.68276 0.38585 0.23705 0.0
N310 N 0.73321 0.39263 0.23921 0.0
O311 O 0.62088 0.28105 0.21784 0.0
H312 H 0.71356 0.34352 0.12853 0.0
H313 H 0.65734 0.39324 0.26829 0.0
O314 O 0.62503 0.30637 0.12094 0.0
C315 C 0.61653 0.27983 0.26575 0.0
O316 O 0.59791 0.31941 0.2894 0.0
N317 N 0.58173 0.40159 0.147 0.0
C318 C 0.53106 0.49152 0.12179 0.0
C319 C 0.52265 0.4472 0.0939 0.0
C320 C 0.54885 0.40261 0.1068 0.0
C321 C 0.59136 0.44544 0.17267 0.0
C322 C 0.56751 0.49068 0.15998 0.0
H323 H 0.5386 0.36788 0.08777 0.0
H324 H 0.61381 0.44538 0.20649 0.0
H325 H 0.55504 0.23923 0.14289 0.0
H326 H 0.41443 0.30863 0.17088 0.0
H327 H 0.79078 0.37556 0.18365 0.0
H328 H 0.49348 0.44601 0.06512 0.0
H329 H 0.57377 0.52374 0.18346 0.0
C330 C 0.83462 0.03302 0.3433 0.0
C331 C 0.80175 0.07094 0.35745 0.0
N332 N 0.75895 0.04925 0.37478 0.0
N333 N 0.81317 0.98781 0.35338 0.0
C334 C 0.76661 0.99895 0.37141 0.0
H335 H 0.87218 0.03801 0.3278 0.0
Co336 Co 0.84056 0.92361 0.34434 0.0
C337 C 0.80837 0.89293 0.45231 0.0
O338 O 0.85007 0.90219 0.4777 0.0
N339 N 0.86601 0.85815 0.33323 0.0
C340 C 0.8766 0.77446 0.33132 0.0
C341 C 0.86047 0.81493 0.36012 0.0
C342 C 0.88586 0.84293 0.28865 0.0
N343 N 0.89264 0.79248 0.2865 0.0
O344 O 0.78105 0.90482 0.30787 0.0
H345 H 0.84353 0.81214 0.39717 0.0
H346 H 0.89324 0.86835 0.25741 0.0
O347 O 0.80638 0.90067 0.40477 0.0
C348 C 0.77983 0.90916 0.25996 0.0
O349 O 0.81941 0.92777 0.2363 0.0
N350 N 0.9016 0.94396 0.37869 0.0
C351 C 0.99152 0.99464 0.40388 0.0
C352 C 0.94721 1.00305 0.43179 0.0
C353 C 0.90262 0.97684 0.4189 0.0
C354 C 0.94544 0.93435 0.353 0.0
C355 C 0.99068 0.9582 0.36568 0.0
H356 H 0.8679 0.98708 0.43793 0.0
H357 H 0.94537 0.9119 0.31918 0.0
H358 H 0.73923 0.97066 0.3828 0.0
H359 H 0.80863 0.11126 0.35483 0.0
H360 H 0.87557 0.73492 0.34205 0.0
H361 H 0.94602 0.03221 0.46058 0.0
H362 H 0.02373 0.95196 0.34219 0.0
C363 C 0.53303 0.69107 0.18239 0.0
C364 C 0.57094 0.72394 0.16825 0.0
N365 N 0.54925 0.76675 0.15092 0.0
N366 N 0.48782 0.71252 0.17232 0.0
C367 C 0.49895 0.75909 0.15429 0.0
H368 H 0.53802 0.65351 0.19789 0.0
Co369 Co 0.42361 0.68513 0.18136 0.0
C370 C 0.39292 0.71733 0.0734 0.0
O371 O 0.40219 0.67564 0.04801 0.0
N372 N 0.35816 0.65969 0.19247 0.0
C373 C 0.27447 0.64909 0.19439 0.0
C374 C 0.31494 0.66523 0.16559 0.0
C375 C 0.34295 0.63984 0.23705 0.0
N376 N 0.2925 0.63306 0.23921 0.0
O377 O 0.40483 0.74464 0.21784 0.0
H378 H 0.31214 0.68217 0.12853 0.0
H379 H 0.36836 0.63246 0.26829 0.0
O380 O 0.40067 0.71932 0.12094 0.0
C381 C 0.40917 0.74586 0.26574 0.0
O382 O 0.42779 0.70628 0.2894 0.0
N383 N 0.44397 0.6241 0.14699 0.0
C384 C 0.49465 0.53418 0.12179 0.0
C385 C 0.50306 0.57849 0.09389 0.0
C386 C 0.47685 0.62308 0.1068 0.0
C387 C 0.43435 0.58025 0.17268 0.0
C388 C 0.4582 0.53502 0.15999 0.0
H389 H 0.4871 0.65781 0.08777 0.0
H390 H 0.4119 0.58032 0.20649 0.0
H391 H 0.47066 0.78647 0.14289 0.0
H392 H 0.61127 0.71706 0.17087 0.0
H393 H 0.23492 0.65013 0.18365 0.0
H394 H 0.53222 0.57968 0.06511 0.0
H395 H 0.45195 0.50196 0.18347 0.0
C396 C 0.19108 0.03302 0.6824 0.0
C397 C 0.22395 0.07093 0.66826 0.0
N398 N 0.26675 0.04924 0.65092 0.0
N399 N 0.21253 0.98781 0.67232 0.0
C400 C 0.25909 0.99894 0.65429 0.0
H401 H 0.15352 0.03801 0.6979 0.0
Co402 Co 0.18514 0.92361 0.68136 0.0
C403 C 0.21734 0.89292 0.5734 0.0
O404 O 0.17564 0.90218 0.54801 0.0
N405 N 0.1597 0.85815 0.69247 0.0
C406 C 0.1491 0.77446 0.69439 0.0
C407 C 0.16524 0.81493 0.66559 0.0
C408 C 0.13985 0.84294 0.73706 0.0
N409 N 0.13307 0.79249 0.73921 0.0
O410 O 0.24465 0.90482 0.71784 0.0
H411 H 0.18218 0.81213 0.62854 0.0
H412 H 0.13246 0.86836 0.7683 0.0
O413 O 0.21932 0.90066 0.62094 0.0
C414 C 0.24587 0.90916 0.76575 0.0
O415 O 0.20629 0.92778 0.7894 0.0
N416 N 0.12411 0.94396 0.647 0.0
C417 C 0.03418 0.99464 0.62179 0.0
C418 C 0.0785 1.00305 0.5939 0.0
C419 C 0.12309 0.97684 0.6068 0.0
C420 C 0.08026 0.93433 0.67268 0.0
C421 C 0.03502 0.95818 0.65998 0.0
H422 H 0.15782 0.98709 0.58777 0.0
H423 H 0.08032 0.91188 0.70649 0.0
H424 H 0.28647 0.97065 0.64289 0.0
H425 H 0.21707 0.11126 0.67088 0.0
H426 H 0.15014 0.73492 0.68366 0.0
H427 H 0.07969 0.03221 0.56512 0.0
H428 H 1.00196 0.95193 0.68347 0.0
C429 C 0.53303 0.33461 0.8433 0.0
C430 C 0.57094 0.30174 0.85745 0.0
N431 N 0.54926 0.25894 0.87478 0.0
N432 N 0.48782 0.31316 0.85338 0.0
C433 C 0.49896 0.2666 0.87141 0.0
H434 H 0.53802 0.37217 0.8278 0.0
Co435 Co 0.42361 0.34056 0.84434 0.0
C436 C 0.39294 0.30837 0.95231 0.0
O437 O 0.40221 0.35006 0.9777 0.0
N438 N 0.35815 0.366 0.83323 0.0
C439 C 0.27447 0.3766 0.83132 0.0
C440 C 0.31494 0.36046 0.86012 0.0
C441 C 0.34294 0.38584 0.78865 0.0
N442 N 0.29249 0.39263 0.7865 0.0
O443 O 0.40483 0.28104 0.80787 0.0
H444 H 0.31214 0.34352 0.89717 0.0
H445 H 0.36836 0.39323 0.75741 0.0
O446 O 0.40068 0.30638 0.90477 0.0
C447 C 0.40916 0.27982 0.75996 0.0
O448 O 0.42778 0.3194 0.73631 0.0
N449 N 0.44397 0.40159 0.87869 0.0
C450 C 0.49465 0.49152 0.90388 0.0
C451 C 0.50305 0.44721 0.93179 0.0
C452 C 0.47685 0.40261 0.91889 0.0
C453 C 0.43435 0.44543 0.853 0.0
C454 C 0.4582 0.49067 0.86568 0.0
H455 H 0.4871 0.36789 0.93793 0.0
H456 H 0.4119 0.44536 0.81918 0.0
H457 H 0.47067 0.23922 0.88281 0.0
H458 H 0.61127 0.30862 0.85483 0.0
H459 H 0.23492 0.37556 0.84205 0.0
H460 H 0.53221 0.44602 0.96057 0.0
H461 H 0.45195 0.52372 0.84219 0.0
C462 C 0.83463 0.99266 0.6824 0.0
C463 C 0.80176 0.95475 0.66826 0.0
N464 N 0.75895 0.97644 0.65092 0.0
N465 N 0.81318 0.03788 0.67232 0.0
C466 C 0.76661 0.02674 0.65429 0.0
H467 H 0.87219 0.98768 0.6979 0.0
Co468 Co 0.84057 0.10208 0.68135 0.0
C469 C 0.80837 0.13277 0.57339 0.0
O470 O 0.85006 0.1235 0.54801 0.0
N471 N 0.86601 0.16754 0.69247 0.0
C472 C 0.8766 0.25123 0.69438 0.0
C473 C 0.86047 0.21075 0.66558 0.0
C474 C 0.88586 0.18275 0.73705 0.0
N475 N 0.89264 0.2332 0.7392 0.0
O476 O 0.78106 0.12087 0.71784 0.0
H477 H 0.84353 0.21355 0.62853 0.0
H478 H 0.89324 0.15734 0.76829 0.0
O479 O 0.80638 0.12502 0.62094 0.0
C480 C 0.77984 0.11653 0.76574 0.0
O481 O 0.81942 0.09791 0.7894 0.0
N482 N 0.9016 0.08173 0.64699 0.0
C483 C 0.99152 0.03104 0.62179 0.0
C484 C 0.9472 0.02263 0.59389 0.0
C485 C 0.90261 0.04885 0.6068 0.0
C486 C 0.94545 0.09135 0.67268 0.0
C487 C 0.99068 0.0675 0.65999 0.0
H488 H 0.86789 0.0386 0.58777 0.0
H489 H 0.94538 0.1138 0.70649 0.0
H490 H 0.73923 0.05503 0.64289 0.0
H491 H 0.80864 0.91443 0.67088 0.0
H492 H 0.87557 0.29077 0.68365 0.0
H493 H 0.94601 0.99347 0.56511 0.0
H494 H 0.02374 0.07374 0.68347 0.0
C495 C 0.49267 0.69107 0.8433 0.0
C496 C 0.45476 0.72394 0.85744 0.0
N497 N 0.47645 0.76675 0.87478 0.0
N498 N 0.53788 0.71252 0.85337 0.0
C499 C 0.52675 0.75909 0.87141 0.0
H500 H 0.48768 0.65351 0.8278 0.0
Co501 Co 0.60209 0.68513 0.84434 0.0
C502 C 0.63277 0.71732 0.9523 0.0
O503 O 0.62351 0.67563 0.97769 0.0
N504 N 0.66755 0.65969 0.83323 0.0
C505 C 0.75124 0.64909 0.83131 0.0
C506 C 0.71076 0.66522 0.86011 0.0
C507 C 0.68276 0.63984 0.78864 0.0
N508 N 0.73321 0.63305 0.78649 0.0
O509 O 0.62088 0.74464 0.80786 0.0
H510 H 0.71356 0.68216 0.89716 0.0
H511 H 0.65735 0.63245 0.7574 0.0
O512 O 0.62503 0.71931 0.90476 0.0
C513 C 0.61654 0.74587 0.75995 0.0
O514 O 0.59792 0.70629 0.7363 0.0
N515 N 0.58173 0.6241 0.87869 0.0
C516 C 0.53105 0.53418 0.90388 0.0
C517 C 0.52265 0.57849 0.93179 0.0
C518 C 0.54886 0.62308 0.91889 0.0
C519 C 0.59135 0.58025 0.85299 0.0
C520 C 0.5675 0.53502 0.86568 0.0
H521 H 0.53861 0.6578 0.93793 0.0
H522 H 0.6138 0.58032 0.81918 0.0
H523 H 0.55504 0.78646 0.8828 0.0
H524 H 0.41443 0.71706 0.85483 0.0
H525 H 0.79078 0.65013 0.84205 0.0
H526 H 0.49349 0.57967 0.96058 0.0
H527 H 0.57374 0.50196 0.84219 0.0
C528 C 0.34331 0.19108 0.99267 0.0
C529 C 0.35746 0.22395 0.95476 0.0
N530 N 0.3748 0.26675 0.97645 0.0
N531 N 0.35339 0.21253 0.03788 0.0
C532 C 0.37143 0.25909 0.02675 0.0
H533 H 0.32781 0.15352 0.98768 0.0
Co534 Co 0.34435 0.18514 0.10209 0.0
C535 C 0.45231 0.21733 0.13278 0.0
O536 O 0.47771 0.17564 0.1235 0.0
N537 N 0.33324 0.1597 0.16755 0.0
C538 C 0.33132 0.14909 0.25123 0.0
C539 C 0.36012 0.16523 0.21076 0.0
C540 C 0.28866 0.13985 0.18276 0.0
N541 N 0.2865 0.13306 0.2332 0.0
O542 O 0.30787 0.24465 0.12087 0.0
H543 H 0.39717 0.18217 0.21356 0.0
H544 H 0.25741 0.13247 0.15734 0.0
O545 O 0.40477 0.21932 0.12504 0.0
C546 C 0.25997 0.24588 0.11652 0.0
O547 O 0.23632 0.2063 0.0979 0.0
N548 N 0.37871 0.1241 0.08174 0.0
C549 C 0.40391 0.03417 0.03106 0.0
C550 C 0.43181 0.07849 0.02265 0.0
C551 C 0.41891 0.12308 0.04886 0.0
C552 C 0.35302 0.08026 0.09136 0.0
C553 C 0.36571 0.03502 0.06751 0.0
H554 H 0.43794 0.1578 0.03861 0.0
H555 H 0.31921 0.08033 0.11381 0.0
H556 H 0.38282 0.28647 0.05504 0.0
H557 H 0.35483 0.21707 0.91443 0.0
H558 H 0.34206 0.15012 0.29078 0.0
H559 H 0.46059 0.07967 0.99349 0.0
H560 H 0.34223 1.00197 0.07376 0.0
C561 C 0.34331 0.83462 0.03303 0.0
C562 C 0.35745 0.80175 0.07095 0.0
N563 N 0.37479 0.75895 0.04925 0.0
N564 N 0.35338 0.81317 0.98782 0.0
C565 C 0.37142 0.7666 0.99895 0.0
H566 H 0.3278 0.87218 0.03802 0.0
Co567 Co 0.34435 0.84056 0.92362 0.0
C568 C 0.45231 0.80836 0.89293 0.0
O569 O 0.47769 0.85005 0.9022 0.0
N570 N 0.33323 0.866 0.85816 0.0
C571 C 0.33132 0.8766 0.77447 0.0
C572 C 0.36012 0.86047 0.81494 0.0
C573 C 0.28865 0.88585 0.84295 0.0
N574 N 0.2865 0.89264 0.7925 0.0
O575 O 0.30787 0.78105 0.90483 0.0
H576 H 0.39717 0.84352 0.81215 0.0
H577 H 0.25741 0.89324 0.86836 0.0
O578 O 0.40477 0.80637 0.90067 0.0
C579 C 0.25996 0.77982 0.90918 0.0
O580 O 0.2363 0.8194 0.9278 0.0
N581 N 0.3787 0.90159 0.94397 0.0
C582 C 0.4039 0.99151 0.99465 0.0
C583 C 0.43181 0.9472 1.00306 0.0
C584 C 0.4189 0.90261 0.97685 0.0
C585 C 0.35302 0.94544 0.93435 0.0
C586 C 0.36571 0.99067 0.9582 0.0
H587 H 0.43793 0.86788 0.9871 0.0
H588 H 0.3192 0.94537 0.9119 0.0
H589 H 0.38281 0.73922 0.97067 0.0
H590 H 0.35483 0.80863 0.11127 0.0
H591 H 0.34205 0.87557 0.73493 0.0
H592 H 0.46059 0.94601 0.03222 0.0
H593 H 0.34222 0.02373 0.95195 0.0
C594 C 0.33462 0.18238 0.49267 0.0
C595 C 0.30175 0.16824 0.45476 0.0
N596 N 0.25895 0.1509 0.47645 0.0
N597 N 0.31317 0.1723 0.53788 0.0
C598 C 0.2666 0.15427 0.52675 0.0
H599 H 0.37218 0.19789 0.48769 0.0
Co600 Co 0.34056 0.18134 0.60209 0.0
C601 C 0.30837 0.07338 0.63277 0.0
O602 O 0.35006 0.04799 0.6235 0.0
N603 N 0.366 0.19246 0.66755 0.0
C604 C 0.3766 0.19437 0.75124 0.0
C605 C 0.36047 0.16558 0.71077 0.0
C606 C 0.38585 0.23704 0.68276 0.0
N607 N 0.39264 0.23919 0.73321 0.0
O608 O 0.28104 0.21782 0.62087 0.0
H609 H 0.34353 0.12852 0.71356 0.0
H610 H 0.39323 0.26828 0.65734 0.0
O611 O 0.30638 0.12092 0.62503 0.0
C612 C 0.27982 0.26573 0.61653 0.0
O613 O 0.3194 0.28938 0.59791 0.0
N614 N 0.4016 0.14699 0.58174 0.0
C615 C 0.49153 0.1218 0.53106 0.0
C616 C 0.44721 0.09389 0.52265 0.0
C617 C 0.40262 0.10679 0.54886 0.0
C618 C 0.44544 0.17268 0.59136 0.0
C619 C 0.49067 0.15999 0.56751 0.0
H620 H 0.3679 0.08776 0.53861 0.0
H621 H 0.44537 0.20649 0.61381 0.0
H622 H 0.23922 0.14287 0.55504 0.0
H623 H 0.30863 0.17086 0.41443 0.0
H624 H 0.37557 0.18364 0.79078 0.0
H625 H 0.44603 0.06512 0.49349 0.0
H626 H 0.52373 0.18348 0.57376 0.0
C627 C 0.6824 0.19107 0.03303 0.0
C628 C 0.66826 0.22394 0.07094 0.0
N629 N 0.65091 0.26674 0.04925 0.0
N630 N 0.67233 0.21252 0.98782 0.0
C631 C 0.65429 0.25909 0.99896 0.0
H632 H 0.69791 0.15351 0.03802 0.0
Co633 Co 0.68136 0.18513 0.92361 0.0
C634 C 0.5734 0.21732 0.89293 0.0
O635 O 0.54801 0.17564 0.9022 0.0
N636 N 0.69248 0.15969 0.85816 0.0
C637 C 0.69439 0.14909 0.77447 0.0
C638 C 0.66559 0.16522 0.81494 0.0
C639 C 0.73706 0.13984 0.84294 0.0
N640 N 0.73921 0.13305 0.7925 0.0
O641 O 0.71784 0.24464 0.90483 0.0
H642 H 0.62854 0.18217 0.81214 0.0
H643 H 0.7683 0.13245 0.86836 0.0
O644 O 0.62094 0.21931 0.90067 0.0
C645 C 0.76575 0.24587 0.90918 0.0
O646 O 0.7894 0.20629 0.9278 0.0
N647 N 0.64701 0.1241 0.94397 0.0
C648 C 0.62181 0.03417 0.99465 0.0
C649 C 0.59391 0.07849 1.00305 0.0
C650 C 0.60681 0.12308 0.97685 0.0
C651 C 0.6727 0.08025 0.93435 0.0
C652 C 0.66001 0.03502 0.9582 0.0
H653 H 0.58778 0.1578 0.9871 0.0
H654 H 0.70651 0.08032 0.9119 0.0
H655 H 0.64289 0.28646 0.97067 0.0
H656 H 0.67088 0.21706 0.11127 0.0
H657 H 0.68365 0.15012 0.73492 0.0
H658 H 0.56513 0.07968 0.03221 0.0
H659 H 0.6835 1.00196 0.95195 0.0
C660 C 0.69109 0.84331 0.49267 0.0
C661 C 0.72395 0.85745 0.45476 0.0
N662 N 0.76675 0.87479 0.47645 0.0
N663 N 0.71254 0.85338 0.53789 0.0
C664 C 0.7591 0.87142 0.52675 0.0
H665 H 0.65353 0.8278 0.48768 0.0
Co666 Co 0.68515 0.84434 0.60209 0.0
C667 C 0.71734 0.9523 0.63278 0.0
O668 O 0.67565 0.97769 0.62351 0.0
N669 N 0.65971 0.83322 0.66755 0.0
C670 C 0.6491 0.83131 0.75124 0.0
C671 C 0.66524 0.86011 0.71077 0.0
C672 C 0.63986 0.78864 0.68276 0.0
N673 N 0.63307 0.78649 0.7332 0.0
O674 O 0.74466 0.80786 0.62087 0.0
H675 H 0.68218 0.89716 0.71357 0.0
H676 H 0.63247 0.7574 0.65734 0.0
O677 O 0.71933 0.90476 0.62504 0.0
C678 C 0.74589 0.75996 0.61652 0.0
O679 O 0.70631 0.73631 0.5979 0.0
N680 N 0.62411 0.8787 0.58174 0.0
C681 C 0.53418 0.9039 0.53106 0.0
C682 C 0.57849 0.9318 0.52265 0.0
C683 C 0.62309 0.9189 0.54886 0.0
C684 C 0.58026 0.85301 0.59136 0.0
C685 C 0.53503 0.8657 0.56751 0.0
H686 H 0.65781 0.93793 0.53861 0.0
H687 H 0.58033 0.8192 0.61381 0.0
H688 H 0.78648 0.88281 0.55504 0.0
H689 H 0.71707 0.85483 0.41443 0.0
H690 H 0.65014 0.84204 0.79078 0.0
H691 H 0.57968 0.96057 0.49349 0.0
H692 H 0.50197 0.84221 0.57376 0.0
C693 C 0.68239 0.83461 0.99267 0.0
C694 C 0.66824 0.80174 0.95476 0.0
N695 N 0.65091 0.75894 0.97645 0.0
N696 N 0.67231 0.81316 0.03788 0.0
C697 C 0.65428 0.7666 0.02675 0.0
H698 H 0.69789 0.87217 0.98768 0.0
Co699 Co 0.68135 0.84055 0.10209 0.0
C700 C 0.57339 0.80836 0.13277 0.0
O701 O 0.548 0.85005 0.1235 0.0
N702 N 0.69247 0.86599 0.16755 0.0
C703 C 0.69438 0.8766 0.25123 0.0
C704 C 0.66558 0.86046 0.21076 0.0
C705 C 0.73705 0.88584 0.18276 0.0
N706 N 0.7392 0.89263 0.23321 0.0
O707 O 0.71783 0.78103 0.12087 0.0
H708 H 0.62853 0.84352 0.21356 0.0
H709 H 0.76829 0.89322 0.15734 0.0
O710 O 0.62093 0.80637 0.12503 0.0
C711 C 0.76574 0.77981 0.11653 0.0
O712 O 0.78939 0.81939 0.09791 0.0
N713 N 0.647 0.90159 0.08173 0.0
C714 C 0.62181 0.99151 0.03105 0.0
C715 C 0.5939 0.9472 0.02265 0.0
C716 C 0.6068 0.90261 0.04886 0.0
C717 C 0.6727 0.94543 0.09135 0.0
C718 C 0.66001 0.99066 0.0675 0.0
H719 H 0.58776 0.86789 0.03861 0.0
H720 H 0.70651 0.94536 0.1138 0.0
H721 H 0.64289 0.73922 0.05504 0.0
H722 H 0.67087 0.80862 0.91443 0.0
H723 H 0.68365 0.87557 0.29078 0.0
H724 H 0.56512 0.94602 0.99349 0.0
H725 H 0.6835 0.02372 0.07374 0.0
C726 C 0.33463 0.8433 0.53303 0.0
C727 C 0.30176 0.85744 0.57094 0.0
N728 N 0.25896 0.87478 0.54926 0.0
N729 N 0.31317 0.85337 0.48782 0.0
C730 C 0.26661 0.87141 0.49896 0.0
H731 H 0.37219 0.82779 0.53802 0.0
Co732 Co 0.34057 0.84434 0.42361 0.0
C733 C 0.30837 0.9523 0.39293 0.0
O734 O 0.35006 0.97768 0.4022 0.0
N735 N 0.36601 0.83322 0.35816 0.0
C736 C 0.37661 0.83131 0.27447 0.0
C737 C 0.36047 0.86011 0.31494 0.0
C738 C 0.38586 0.78864 0.34294 0.0
N739 N 0.39265 0.78649 0.2925 0.0
O740 O 0.28105 0.80786 0.40483 0.0
H741 H 0.34353 0.89716 0.31214 0.0
H742 H 0.39325 0.7574 0.36836 0.0
O743 O 0.30638 0.90476 0.40067 0.0
C744 C 0.27983 0.75995 0.40918 0.0
O745 O 0.31941 0.7363 0.4278 0.0
N746 N 0.4016 0.87869 0.44397 0.0
C747 C 0.49152 0.90389 0.49465 0.0
C748 C 0.4472 0.9318 0.50306 0.0
C749 C 0.40261 0.91889 0.47685 0.0
C750 C 0.44545 0.85301 0.43435 0.0
C751 C 0.49068 0.8657 0.4582 0.0
H752 H 0.36789 0.93792 0.4871 0.0
H753 H 0.44538 0.81919 0.4119 0.0
H754 H 0.23923 0.88281 0.47067 0.0
H755 H 0.30864 0.85482 0.61127 0.0
H756 H 0.37557 0.84204 0.23492 0.0
H757 H 0.44601 0.96058 0.53222 0.0
H758 H 0.52374 0.84221 0.45196 0.0
C759 C 0.69108 0.18239 0.53303 0.0
C760 C 0.72395 0.16825 0.57094 0.0
N761 N 0.76675 0.15091 0.54925 0.0
N762 N 0.71253 0.17232 0.48782 0.0
C763 C 0.75909 0.15428 0.49895 0.0
H764 H 0.65352 0.1979 0.53802 0.0
Co765 Co 0.68514 0.18136 0.42361 0.0
C766 C 0.71733 0.07339 0.39292 0.0
O767 O 0.67564 0.04801 0.40219 0.0
N768 N 0.6597 0.19247 0.35816 0.0
C769 C 0.64909 0.19438 0.27447 0.0
C770 C 0.66523 0.16559 0.31494 0.0
C771 C 0.63984 0.23705 0.34295 0.0
N772 N 0.63306 0.2392 0.2925 0.0
O773 O 0.74465 0.21784 0.40483 0.0
H774 H 0.68218 0.12853 0.31214 0.0
H775 H 0.63246 0.26829 0.36836 0.0
O776 O 0.71932 0.12094 0.40067 0.0
C777 C 0.74587 0.26574 0.40918 0.0
O778 O 0.70629 0.2894 0.4278 0.0
N779 N 0.6241 0.147 0.44397 0.0
C780 C 0.53419 0.1218 0.49465 0.0
C781 C 0.5785 0.0939 0.50305 0.0
C782 C 0.62309 0.1068 0.47684 0.0
C783 C 0.58025 0.17269 0.43435 0.0
C784 C 0.53502 0.16 0.4582 0.0
H785 H 0.65782 0.08777 0.48709 0.0
H786 H 0.58032 0.2065 0.4119 0.0
H787 H 0.78647 0.14288 0.47066 0.0
H788 H 0.71707 0.17087 0.61127 0.0
H789 H 0.65013 0.18365 0.23492 0.0
H790 H 0.57969 0.06512 0.53221 0.0
H791 H 0.50196 0.18349 0.45196 0.0
loop_
_geom_bond_atom_site_label_1
_geom_bond_atom_site_label_2
_geom_bond_distance
_geom_bond_site_symmetry_2
_ccdc_geom_bond_type
C0 C1 1.351 . S
C0 N3 1.368 1_655 S
C0 H5 0.931 . S
C1 C0 1.351 . S
C1 N2 1.373 . S
C1 H29 0.930 . S
N2 C1 1.373 . S
N2 C4 1.360 . S
N3 C0 1.368 1_455 S
N3 C4 1.312 1_455 S
N3 Co6 2.135 . S
C4 N2 1.360 . S
C4 N3 1.312 1_655 S
C4 H28 0.921 1_655 S
H5 C0 0.931 . S
Co6 N3 2.135 . S
Co6 N9 2.121 . S
Co6 O14 2.055 . S
Co6 O17 2.039 . S
Co6 N20 2.140 . S
C7 O8 1.227 . S
C7 O17 1.265 . S
O8 C7 1.227 . S
N9 Co6 2.121 . S
N9 C11 1.375 . S
N9 C12 1.313 . S
C10 C11 1.338 . S
C10 N13 1.377 . S
C10 H30 0.930 . S
C11 N9 1.375 . S
C11 C10 1.338 . S
C11 H15 0.931 . S
C12 N9 1.313 . S
C12 N13 1.344 . S
C12 H16 0.930 . S
N13 C10 1.377 . S
N13 C12 1.344 . S
O14 Co6 2.055 . S
O14 C18 1.253 . S
H15 C11 0.931 . S
H16 C12 0.930 . S
O17 Co6 2.039 . S
O17 C7 1.265 . S
C18 O14 1.253 . S
C18 O19 1.227 . S
O19 C18 1.227 . S
N20 Co6 2.140 . S
N20 C23 1.346 . S
N20 C24 1.345 . S
C21 C22 1.387 1_455 S
C21 C25 1.391 . S
C22 C21 1.387 1_655 S
C22 C23 1.369 1_655 S
C22 H31 0.929 . S
C23 N20 1.346 . S
C23 C22 1.369 1_455 S
C23 H26 0.928 . S
C24 N20 1.345 . S
C24 C25 1.371 . S
C24 H27 0.931 . S
C25 C21 1.391 . S
C25 C24 1.371 . S
C25 H32 0.930 . S
H26 C23 0.928 . S
H27 C24 0.931 . S
H28 C4 0.921 1_455 S
H29 C1 0.930 . S
H30 C10 0.930 . S
H31 C22 0.929 . S
H32 C25 0.930 . S
C33 C34 1.351 . S
C33 N36 1.368 . S
C33 H38 0.931 . S
C34 C33 1.351 . S
C34 N35 1.373 . S
C34 H62 0.930 . S
N35 C34 1.373 . S
N35 C37 1.340 . S
N36 C33 1.368 . S
N36 C37 1.321 . S
N36 Co39 2.135 . S
C37 N35 1.340 . S
C37 N36 1.321 . S
C37 H61 0.930 . S
H38 C33 0.931 . S
Co39 N36 2.135 . S
Co39 N42 2.121 . S
Co39 O47 2.055 . S
Co39 O50 2.039 . S
Co39 N53 2.140 . S
C40 O41 1.227 . S
C40 O50 1.265 . S
O41 C40 1.227 . S
N42 Co39 2.121 . S
N42 C44 1.375 . S
N42 C45 1.313 . S
C43 C44 1.338 . S
C43 N46 1.377 . S
C43 H63 0.930 . S
C44 N42 1.375 . S
C44 C43 1.338 . S
C44 H48 0.931 . S
C45 N42 1.313 . S
C45 N46 1.344 . S
C45 H49 0.930 . S
N46 C43 1.377 . S
N46 C45 1.344 . S
O47 Co39 2.055 . S
O47 C51 1.253 . S
H48 C44 0.931 . S
H49 C45 0.930 . S
O50 Co39 2.039 . S
O50 C40 1.265 . S
C51 O47 1.253 . S
C51 O52 1.227 . S
O52 C51 1.227 . S
N53 Co39 2.140 . S
N53 C56 1.346 . S
N53 C57 1.345 . S
C54 C55 1.387 . S
C54 C58 1.391 . S
C55 C54 1.387 . S
C55 C56 1.369 . S
C55 H64 0.929 . S
C56 N53 1.346 . S
C56 C55 1.369 . S
C56 H59 0.928 . S
C57 N53 1.345 . S
C57 C58 1.371 . S
C57 H60 0.931 . S
C58 C54 1.391 . S
C58 C57 1.371 . S
C58 H65 0.930 . S
H59 C56 0.928 . S
H60 C57 0.931 . S
H61 C37 0.930 . S
H62 C34 0.930 . S
H63 C43 0.930 . S
H64 C55 0.929 . S
H65 C58 0.930 . S
C66 C67 1.351 . S
C66 N69 1.368 1_455 S
C66 H71 0.931 . S
C67 C66 1.351 . S
C67 N68 1.373 . S
C67 H95 0.930 . S
N68 C67 1.373 . S
N68 C70 1.360 . S
N69 C66 1.368 1_655 S
N69 C70 1.312 1_655 S
N69 Co72 2.135 . S
C70 N68 1.360 . S
C70 N69 1.312 1_455 S
C70 H94 0.921 1_455 S
H71 C66 0.931 . S
Co72 N69 2.135 . S
Co72 N75 2.121 . S
Co72 O80 2.055 . S
Co72 O83 2.039 . S
Co72 N86 2.140 . S
C73 O74 1.227 . S
C73 O83 1.265 . S
O74 C73 1.227 . S
N75 Co72 2.121 . S
N75 C77 1.375 . S
N75 C78 1.313 . S
C76 C77 1.338 . S
C76 N79 1.377 . S
C76 H96 0.930 . S
C77 N75 1.375 . S
C77 C76 1.338 . S
C77 H81 0.931 . S
C78 N75 1.313 . S
C78 N79 1.344 . S
C78 H82 0.930 . S
N79 C76 1.377 . S
N79 C78 1.344 . S
O80 Co72 2.055 . S
O80 C84 1.253 . S
H81 C77 0.931 . S
H82 C78 0.930 . S
O83 Co72 2.039 . S
O83 C73 1.265 . S
C84 O80 1.253 . S
C84 O85 1.227 . S
O85 C84 1.227 . S
N86 Co72 2.140 . S
N86 C89 1.346 . S
N86 C90 1.345 . S
C87 C88 1.387 1_655 S
C87 C91 1.391 . S
C88 C87 1.387 1_455 S
C88 C89 1.369 1_455 S
C88 H97 0.929 . S
C89 N86 1.346 . S
C89 C88 1.369 1_655 S
C89 H92 0.928 . S
C90 N86 1.345 . S
C90 C91 1.371 . S
C90 H93 0.931 . S
C91 C87 1.391 . S
C91 C90 1.371 . S
C91 H98 0.930 . S
H92 C89 0.928 . S
H93 C90 0.931 . S
H94 C70 0.921 1_655 S
H95 C67 0.930 . S
H96 C76 0.930 . S
H97 C88 0.929 . S
H98 C91 0.930 . S
C99 C100 1.351 . S
C99 N102 1.368 . S
C99 H104 0.931 . S
C100 C99 1.351 . S
C100 N101 1.373 . S
C100 H128 0.930 . S
N101 C100 1.373 . S
N101 C103 1.340 . S
N102 C99 1.368 . S
N102 C103 1.321 . S
N102 Co105 2.135 . S
C103 N101 1.340 . S
C103 N102 1.321 . S
C103 H127 0.930 . S
H104 C99 0.931 . S
Co105 N102 2.135 . S
Co105 N108 2.121 . S
Co105 O113 2.055 . S
Co105 O116 2.039 . S
Co105 N119 2.140 . S
C106 O107 1.227 . S
C106 O116 1.265 . S
O107 C106 1.227 . S
N108 Co105 2.121 . S
N108 C110 1.375 . S
N108 C111 1.313 . S
C109 C110 1.338 . S
C109 N112 1.377 . S
C109 H129 0.930 . S
C110 N108 1.375 . S
C110 C109 1.338 . S
C110 H114 0.931 . S
C111 N108 1.313 . S
C111 N112 1.344 . S
C111 H115 0.930 . S
N112 C109 1.377 . S
N112 C111 1.344 . S
O113 Co105 2.055 . S
O113 C117 1.253 . S
H114 C110 0.931 . S
H115 C111 0.930 . S
O116 Co105 2.039 . S
O116 C106 1.265 . S
C117 O113 1.253 . S
C117 O118 1.227 . S
O118 C117 1.227 . S
N119 Co105 2.140 . S
N119 C122 1.346 . S
N119 C123 1.345 . S
C120 C121 1.387 . S
C120 C124 1.391 . S
C121 C120 1.387 . S
C121 C122 1.369 . S
C121 H130 0.929 . S
C122 N119 1.346 . S
C122 C121 1.369 . S
C122 H125 0.928 . S
C123 N119 1.345 . S
C123 C124 1.371 . S
C123 H126 0.931 . S
C124 C120 1.391 . S
C124 C123 1.371 . S
C124 H131 0.930 . S
H125 C122 0.928 . S
H126 C123 0.931 . S
H127 C103 0.930 . S
H128 C100 0.930 . S
H129 C109 0.930 . S
H130 C121 0.929 . S
H131 C124 0.930 . S
C132 C133 1.351 . S
C132 N135 1.368 1_655 S
C132 H137 0.931 . S
C133 C132 1.351 . S
C133 N134 1.373 . S
C133 H161 0.930 . S
N134 C133 1.373 . S
N134 C136 1.360 . S
N135 C132 1.368 1_455 S
N135 C136 1.312 1_455 S
N135 Co138 2.135 . S
C136 N134 1.360 . S
C136 N135 1.312 1_655 S
C136 H160 0.921 1_655 S
H137 C132 0.931 . S
Co138 N135 2.135 . S
Co138 N141 2.121 . S
Co138 O146 2.055 . S
Co138 O149 2.039 . S
Co138 N152 2.140 . S
C139 O140 1.227 . S
C139 O149 1.265 . S
O140 C139 1.227 . S
N141 Co138 2.121 . S
N141 C143 1.375 . S
N141 C144 1.313 . S
C142 C143 1.338 . S
C142 N145 1.377 . S
C142 H162 0.930 . S
C143 N141 1.375 . S
C143 C142 1.338 . S
C143 H147 0.931 . S
C144 N141 1.313 . S
C144 N145 1.344 . S
C144 H148 0.930 . S
N145 C142 1.377 . S
N145 C144 1.344 . S
O146 Co138 2.055 . S
O146 C150 1.253 . S
H147 C143 0.931 . S
H148 C144 0.930 . S
O149 Co138 2.039 . S
O149 C139 1.265 . S
C150 O146 1.253 . S
C150 O151 1.227 . S
O151 C150 1.227 . S
N152 Co138 2.140 . S
N152 C155 1.346 . S
N152 C156 1.345 . S
C153 C154 1.387 1_455 S
C153 C157 1.391 . S
C154 C153 1.387 1_655 S
C154 C155 1.369 1_655 S
C154 H163 0.929 . S
C155 N152 1.346 . S
C155 C154 1.369 1_455 S
C155 H158 0.928 . S
C156 N152 1.345 . S
C156 C157 1.371 . S
C156 H159 0.931 . S
C157 C153 1.391 . S
C157 C156 1.371 . S
C157 H164 0.930 . S
H158 C155 0.928 . S
H159 C156 0.931 . S
H160 C136 0.921 1_455 S
H161 C133 0.930 . S
H162 C142 0.930 . S
H163 C154 0.929 . S
H164 C157 0.930 . S
C165 C166 1.351 . S
C165 N168 1.368 . S
C165 H170 0.931 . S
C166 C165 1.351 . S
C166 N167 1.373 . S
C166 H194 0.930 . S
N167 C166 1.373 . S
N167 C169 1.340 . S
N168 C165 1.368 . S
N168 C169 1.321 . S
N168 Co171 2.135 . S
C169 N167 1.340 . S
C169 N168 1.321 . S
C169 H193 0.930 . S
H170 C165 0.931 . S
Co171 N168 2.135 . S
Co171 N174 2.121 . S
Co171 O179 2.055 . S
Co171 O182 2.039 . S
Co171 N185 2.140 . S
C172 O173 1.227 . S
C172 O182 1.265 . S
O173 C172 1.227 . S
N174 Co171 2.121 . S
N174 C176 1.375 . S
N174 C177 1.313 . S
C175 C176 1.338 . S
C175 N178 1.377 . S
C175 H195 0.930 . S
C176 N174 1.375 . S
C176 C175 1.338 . S
C176 H180 0.931 . S
C177 N174 1.313 . S
C177 N178 1.344 . S
C177 H181 0.930 . S
N178 C175 1.377 . S
N178 C177 1.344 . S
O179 Co171 2.055 . S
O179 C183 1.253 . S
H180 C176 0.931 . S
H181 C177 0.930 . S
O182 Co171 2.039 . S
O182 C172 1.265 . S
C183 O179 1.253 . S
C183 O184 1.227 . S
O184 C183 1.227 . S
N185 Co171 2.140 . S
N185 C188 1.346 . S
N185 C189 1.345 . S
C186 C187 1.387 . S
C186 C190 1.391 . S
C187 C186 1.387 . S
C187 C188 1.369 . S
C187 H196 0.929 . S
C188 N185 1.346 . S
C188 C187 1.369 . S
C188 H191 0.928 . S
C189 N185 1.345 . S
C189 C190 1.371 . S
C189 H192 0.931 . S
C190 C186 1.391 . S
C190 C189 1.371 . S
C190 H197 0.930 . S
H191 C188 0.928 . S
H192 C189 0.931 . S
H193 C169 0.930 . S
H194 C166 0.930 . S
H195 C175 0.930 . S
H196 C187 0.929 . S
H197 C190 0.930 . S
C198 C199 1.351 . S
C198 N201 1.368 1_455 S
C198 H203 0.931 . S
C199 C198 1.351 . S
C199 N200 1.373 . S
C199 H227 0.930 . S
N200 C199 1.373 . S
N200 C202 1.360 . S
N201 C198 1.368 1_655 S
N201 C202 1.312 1_655 S
N201 Co204 2.135 . S
C202 N200 1.360 . S
C202 N201 1.312 1_455 S
C202 H226 0.921 1_455 S
H203 C198 0.931 . S
Co204 N201 2.135 . S
Co204 N207 2.121 . S
Co204 O212 2.055 . S
Co204 O215 2.039 . S
Co204 N218 2.140 . S
C205 O206 1.227 . S
C205 O215 1.265 . S
O206 C205 1.227 . S
N207 Co204 2.121 . S
N207 C209 1.375 . S
N207 C210 1.313 . S
C208 C209 1.338 . S
C208 N211 1.377 . S
C208 H228 0.930 . S
C209 N207 1.375 . S
C209 C208 1.338 . S
C209 H213 0.931 . S
C210 N207 1.313 . S
C210 N211 1.344 . S
C210 H214 0.930 . S
N211 C208 1.377 . S
N211 C210 1.344 . S
O212 Co204 2.055 . S
O212 C216 1.253 . S
H213 C209 0.931 . S
H214 C210 0.930 . S
O215 Co204 2.039 . S
O215 C205 1.265 . S
C216 O212 1.253 . S
C216 O217 1.227 . S
O217 C216 1.227 . S
N218 Co204 2.140 . S
N218 C221 1.346 . S
N218 C222 1.345 . S
C219 C220 1.387 1_655 S
C219 C223 1.391 . S
C220 C219 1.387 1_455 S
C220 C221 1.369 1_455 S
C220 H229 0.929 . S
C221 N218 1.346 . S
C221 C220 1.369 1_655 S
C221 H224 0.928 . S
C222 N218 1.345 . S
C222 C223 1.371 . S
C222 H225 0.931 . S
C223 C219 1.391 . S
C223 C222 1.371 . S
C223 H230 0.930 . S
H224 C221 0.928 . S
H225 C222 0.931 . S
H226 C202 0.921 1_655 S
H227 C199 0.930 . S
H228 C208 0.930 . S
H229 C220 0.929 . S
H230 C223 0.930 . S
C231 C232 1.351 . S
C231 N234 1.368 . S
C231 H236 0.931 . S
C232 C231 1.351 . S
C232 N233 1.373 . S
C232 H260 0.930 . S
N233 C232 1.373 . S
N233 C235 1.340 . S
N234 C231 1.368 . S
N234 C235 1.321 . S
N234 Co237 2.135 . S
C235 N233 1.340 . S
C235 N234 1.321 . S
C235 H259 0.930 . S
H236 C231 0.931 . S
Co237 N234 2.135 . S
Co237 N240 2.121 . S
Co237 O245 2.055 . S
Co237 O248 2.039 . S
Co237 N251 2.140 . S
C238 O239 1.227 . S
C238 O248 1.265 . S
O239 C238 1.227 . S
N240 Co237 2.121 . S
N240 C242 1.375 . S
N240 C243 1.313 . S
C241 C242 1.338 . S
C241 N244 1.377 . S
C241 H261 0.930 . S
C242 N240 1.375 . S
C242 C241 1.338 . S
C242 H246 0.931 . S
C243 N240 1.313 . S
C243 N244 1.344 . S
C243 H247 0.930 . S
N244 C241 1.377 . S
N244 C243 1.344 . S
O245 Co237 2.055 . S
O245 C249 1.253 . S
H246 C242 0.931 . S
H247 C243 0.930 . S
O248 Co237 2.039 . S
O248 C238 1.265 . S
C249 O245 1.253 . S
C249 O250 1.227 . S
O250 C249 1.227 . S
N251 Co237 2.140 . S
N251 C254 1.346 . S
N251 C255 1.345 . S
C252 C253 1.387 . S
C252 C256 1.391 . S
C253 C252 1.387 . S
C253 C254 1.369 . S
C253 H262 0.929 . S
C254 N251 1.346 . S
C254 C253 1.369 . S
C254 H257 0.928 . S
C255 N251 1.345 . S
C255 C256 1.371 . S
C255 H258 0.931 . S
C256 C252 1.391 . S
C256 C255 1.371 . S
C256 H263 0.930 . S
H257 C254 0.928 . S
H258 C255 0.931 . S
H259 C235 0.930 . S
H260 C232 0.930 . S
H261 C241 0.930 . S
H262 C253 0.929 . S
H263 C256 0.930 . S
C264 C265 1.351 . S
C264 N267 1.368 1_565 S
C264 H269 0.931 . S
C265 C264 1.351 . S
C265 N266 1.373 . S
C265 H293 0.930 . S
N266 C265 1.373 . S
N266 C268 1.360 . S
N267 C264 1.368 1_545 S
N267 C268 1.312 1_545 S
N267 Co270 2.135 . S
C268 N266 1.360 . S
C268 N267 1.312 1_565 S
C268 H292 0.921 1_565 S
H269 C264 0.931 . S
Co270 N267 2.135 . S
Co270 N273 2.121 . S
Co270 O278 2.055 . S
Co270 O281 2.039 . S
Co270 N284 2.140 . S
C271 O272 1.227 . S
C271 O281 1.265 . S
O272 C271 1.227 . S
N273 Co270 2.121 . S
N273 C275 1.375 . S
N273 C276 1.313 . S
C274 C275 1.338 . S
C274 N277 1.377 . S
C274 H294 0.930 . S
C275 N273 1.375 . S
C275 C274 1.338 . S
C275 H279 0.931 . S
C276 N273 1.313 . S
C276 N277 1.344 . S
C276 H280 0.930 . S
N277 C274 1.377 . S
N277 C276 1.344 . S
O278 Co270 2.055 . S
O278 C282 1.253 . S
H279 C275 0.931 . S
H280 C276 0.930 . S
O281 Co270 2.039 . S
O281 C271 1.265 . S
C282 O278 1.253 . S
C282 O283 1.227 . S
O283 C282 1.227 . S
N284 Co270 2.140 . S
N284 C287 1.346 . S
N284 C288 1.345 . S
C285 C286 1.387 1_545 S
C285 C289 1.391 . S
C286 C285 1.387 1_565 S
C286 C287 1.369 1_565 S
C286 H295 0.929 . S
C287 N284 1.346 . S
C287 C286 1.369 1_545 S
C287 H290 0.928 . S
C288 N284 1.345 . S
C288 C289 1.371 . S
C288 H291 0.931 . S
C289 C285 1.391 . S
C289 C288 1.371 . S
C289 H296 0.930 . S
H290 C287 0.928 . S
H291 C288 0.931 . S
H292 C268 0.921 1_545 S
H293 C265 0.930 . S
H294 C274 0.930 . S
H295 C286 0.929 . S
H296 C289 0.930 . S
C297 C298 1.351 . S
C297 N300 1.368 . S
C297 H302 0.931 . S
C298 C297 1.351 . S
C298 N299 1.373 . S
C298 H326 0.930 . S
N299 C298 1.373 . S
N299 C301 1.340 . S
N300 C297 1.368 . S
N300 C301 1.321 . S
N300 Co303 2.135 . S
C301 N299 1.340 . S
C301 N300 1.321 . S
C301 H325 0.930 . S
H302 C297 0.931 . S
Co303 N300 2.135 . S
Co303 N306 2.121 . S
Co303 O311 2.055 . S
Co303 O314 2.039 . S
Co303 N317 2.140 . S
C304 O305 1.227 . S
C304 O314 1.265 . S
O305 C304 1.227 . S
N306 Co303 2.121 . S
N306 C308 1.375 . S
N306 C309 1.313 . S
C307 C308 1.338 . S
C307 N310 1.377 . S
C307 H327 0.930 . S
C308 N306 1.375 . S
C308 C307 1.338 . S
C308 H312 0.931 . S
C309 N306 1.313 . S
C309 N310 1.344 . S
C309 H313 0.930 . S
N310 C307 1.377 . S
N310 C309 1.344 . S
O311 Co303 2.055 . S
O311 C315 1.253 . S
H312 C308 0.931 . S
H313 C309 0.930 . S
O314 Co303 2.039 . S
O314 C304 1.265 . S
C315 O311 1.253 . S
C315 O316 1.227 . S
O316 C315 1.227 . S
N317 Co303 2.140 . S
N317 C320 1.346 . S
N317 C321 1.345 . S
C318 C319 1.387 . S
C318 C322 1.391 . S
C319 C318 1.387 . S
C319 C320 1.369 . S
C319 H328 0.929 . S
C320 N317 1.346 . S
C320 C319 1.369 . S
C320 H323 0.928 . S
C321 N317 1.345 . S
C321 C322 1.371 . S
C321 H324 0.931 . S
C322 C318 1.391 . S
C322 C321 1.371 . S
C322 H329 0.930 . S
H323 C320 0.928 . S
H324 C321 0.931 . S
H325 C301 0.930 . S
H326 C298 0.930 . S
H327 C307 0.930 . S
H328 C319 0.929 . S
H329 C322 0.930 . S
C330 C331 1.351 . S
C330 N333 1.368 1_545 S
C330 H335 0.931 . S
C331 C330 1.351 . S
C331 N332 1.373 . S
C331 H359 0.930 . S
N332 C331 1.373 . S
N332 C334 1.360 . S
N333 C330 1.368 1_565 S
N333 C334 1.312 1_565 S
N333 Co336 2.135 . S
C334 N332 1.360 . S
C334 N333 1.312 1_545 S
C334 H358 0.921 1_545 S
H335 C330 0.931 . S
Co336 N333 2.135 . S
Co336 N339 2.121 . S
Co336 O344 2.055 . S
Co336 O347 2.039 . S
Co336 N350 2.140 . S
C337 O338 1.227 . S
C337 O347 1.265 . S
O338 C337 1.227 . S
N339 Co336 2.121 . S
N339 C341 1.375 . S
N339 C342 1.313 . S
C340 C341 1.338 . S
C340 N343 1.377 . S
C340 H360 0.930 . S
C341 N339 1.375 . S
C341 C340 1.338 . S
C341 H345 0.931 . S
C342 N339 1.313 . S
C342 N343 1.344 . S
C342 H346 0.930 . S
N343 C340 1.377 . S
N343 C342 1.344 . S
O344 Co336 2.055 . S
O344 C348 1.253 . S
H345 C341 0.931 . S
H346 C342 0.930 . S
O347 Co336 2.039 . S
O347 C337 1.265 . S
C348 O344 1.253 . S
C348 O349 1.227 . S
O349 C348 1.227 . S
N350 Co336 2.140 . S
N350 C353 1.346 . S
N350 C354 1.345 . S
C351 C352 1.387 1_565 S
C351 C355 1.391 . S
C352 C351 1.387 1_545 S
C352 C353 1.369 1_545 S
C352 H361 0.929 . S
C353 N350 1.346 . S
C353 C352 1.369 1_565 S
C353 H356 0.928 . S
C354 N350 1.345 . S
C354 C355 1.371 . S
C354 H357 0.931 . S
C355 C351 1.391 . S
C355 C354 1.371 . S
C355 H362 0.930 . S
H356 C353 0.928 . S
H357 C354 0.931 . S
H358 C334 0.921 1_565 S
H359 C331 0.930 . S
H360 C340 0.930 . S
H361 C352 0.929 . S
H362 C355 0.930 . S
C363 C364 1.351 . S
C363 N366 1.368 . S
C363 H368 0.931 . S
C364 C363 1.351 . S
C364 N365 1.373 . S
C364 H392 0.930 . S
N365 C364 1.373 . S
N365 C367 1.340 . S
N366 C363 1.368 . S
N366 C367 1.321 . S
N366 Co369 2.135 . S
C367 N365 1.340 . S
C367 N366 1.321 . S
C367 H391 0.930 . S
H368 C363 0.931 . S
Co369 N366 2.135 . S
Co369 N372 2.121 . S
Co369 O377 2.055 . S
Co369 O380 2.039 . S
Co369 N383 2.140 . S
C370 O371 1.227 . S
C370 O380 1.265 . S
O371 C370 1.227 . S
N372 Co369 2.121 . S
N372 C374 1.375 . S
N372 C375 1.313 . S
C373 C374 1.338 . S
C373 N376 1.377 . S
C373 H393 0.930 . S
C374 N372 1.375 . S
C374 C373 1.338 . S
C374 H378 0.931 . S
C375 N372 1.313 . S
C375 N376 1.344 . S
C375 H379 0.930 . S
N376 C373 1.377 . S
N376 C375 1.344 . S
O377 Co369 2.055 . S
O377 C381 1.253 . S
H378 C374 0.931 . S
H379 C375 0.930 . S
O380 Co369 2.039 . S
O380 C370 1.265 . S
C381 O377 1.253 . S
C381 O382 1.227 . S
O382 C381 1.227 . S
N383 Co369 2.140 . S
N383 C386 1.346 . S
N383 C387 1.345 . S
C384 C385 1.387 . S
C384 C388 1.391 . S
C385 C384 1.387 . S
C385 C386 1.369 . S
C385 H394 0.929 . S
C386 N383 1.346 . S
C386 C385 1.369 . S
C386 H389 0.928 . S
C387 N383 1.345 . S
C387 C388 1.371 . S
C387 H390 0.931 . S
C388 C384 1.391 . S
C388 C387 1.371 . S
C388 H395 0.930 . S
H389 C386 0.928 . S
H390 C387 0.931 . S
H391 C367 0.930 . S
H392 C364 0.930 . S
H393 C373 0.930 . S
H394 C385 0.929 . S
H395 C388 0.930 . S
C396 C397 1.351 . S
C396 N399 1.368 1_545 S
C396 H401 0.931 . S
C397 C396 1.351 . S
C397 N398 1.373 . S
C397 H425 0.930 . S
N398 C397 1.373 . S
N398 C400 1.360 . S
N399 C396 1.368 1_565 S
N399 C400 1.312 1_565 S
N399 Co402 2.135 . S
C400 N398 1.360 . S
C400 N399 1.312 1_545 S
C400 H424 0.921 1_545 S
H401 C396 0.931 . S
Co402 N399 2.135 . S
Co402 N405 2.121 . S
Co402 O410 2.055 . S
Co402 O413 2.039 . S
Co402 N416 2.140 . S
C403 O404 1.227 . S
C403 O413 1.265 . S
O404 C403 1.227 . S
N405 Co402 2.121 . S
N405 C407 1.375 . S
N405 C408 1.313 . S
C406 C407 1.338 . S
C406 N409 1.377 . S
C406 H426 0.930 . S
C407 N405 1.375 . S
C407 C406 1.338 . S
C407 H411 0.931 . S
C408 N405 1.313 . S
C408 N409 1.344 . S
C408 H412 0.930 . S
N409 C406 1.377 . S
N409 C408 1.344 . S
O410 Co402 2.055 . S
O410 C414 1.253 . S
H411 C407 0.931 . S
H412 C408 0.930 . S
O413 Co402 2.039 . S
O413 C403 1.265 . S
C414 O410 1.253 . S
C414 O415 1.227 . S
O415 C414 1.227 . S
N416 Co402 2.140 . S
N416 C419 1.346 . S
N416 C420 1.345 . S
C417 C418 1.387 1_565 S
C417 C421 1.391 . S
C418 C417 1.387 1_545 S
C418 C419 1.369 1_545 S
C418 H427 0.929 . S
C419 N416 1.346 . S
C419 C418 1.369 1_565 S
C419 H422 0.928 . S
C420 N416 1.345 . S
C420 C421 1.371 . S
C420 H423 0.931 . S
C421 C417 1.391 . S
C421 C420 1.371 . S
C421 H428 0.930 . S
H422 C419 0.928 . S
H423 C420 0.931 . S
H424 C400 0.921 1_565 S
H425 C397 0.930 . S
H426 C406 0.930 . S
H427 C418 0.929 . S
H428 C421 0.930 . S
C429 C430 1.351 . S
C429 N432 1.368 . S
C429 H434 0.931 . S
C430 C429 1.351 . S
C430 N431 1.373 . S
C430 H458 0.930 . S
N431 C430 1.373 . S
N431 C433 1.340 . S
N432 C429 1.368 . S
N432 C433 1.321 . S
N432 Co435 2.135 . S
C433 N431 1.340 . S
C433 N432 1.321 . S
C433 H457 0.930 . S
H434 C429 0.931 . S
Co435 N432 2.135 . S
Co435 N438 2.121 . S
Co435 O443 2.055 . S
Co435 O446 2.039 . S
Co435 N449 2.140 . S
C436 O437 1.227 . S
C436 O446 1.265 . S
O437 C436 1.227 . S
N438 Co435 2.121 . S
N438 C440 1.375 . S
N438 C441 1.313 . S
C439 C440 1.338 . S
C439 N442 1.377 . S
C439 H459 0.930 . S
C440 N438 1.375 . S
C440 C439 1.338 . S
C440 H444 0.931 . S
C441 N438 1.313 . S
C441 N442 1.344 . S
C441 H445 0.930 . S
N442 C439 1.377 . S
N442 C441 1.344 . S
O443 Co435 2.055 . S
O443 C447 1.253 . S
H444 C440 0.931 . S
H445 C441 0.930 . S
O446 Co435 2.039 . S
O446 C436 1.265 . S
C447 O443 1.253 . S
C447 O448 1.227 . S
O448 C447 1.227 . S
N449 Co435 2.140 . S
N449 C452 1.346 . S
N449 C453 1.345 . S
C450 C451 1.387 . S
C450 C454 1.391 . S
C451 C450 1.387 . S
C451 C452 1.369 . S
C451 H460 0.929 . S
C452 N449 1.346 . S
C452 C451 1.369 . S
C452 H455 0.928 . S
C453 N449 1.345 . S
C453 C454 1.371 . S
C453 H456 0.931 . S
C454 C450 1.391 . S
C454 C453 1.371 . S
C454 H461 0.930 . S
H455 C452 0.928 . S
H456 C453 0.931 . S
H457 C433 0.930 . S
H458 C430 0.930 . S
H459 C439 0.930 . S
H460 C451 0.929 . S
H461 C454 0.930 . S
C462 C463 1.351 . S
C462 N465 1.368 1_565 S
C462 H467 0.931 . S
C463 C462 1.351 . S
C463 N464 1.373 . S
C463 H491 0.930 . S
N464 C463 1.373 . S
N464 C466 1.360 . S
N465 C462 1.368 1_545 S
N465 C466 1.312 1_545 S
N465 Co468 2.135 . S
C466 N464 1.360 . S
C466 N465 1.312 1_565 S
C466 H490 0.921 1_565 S
H467 C462 0.931 . S
Co468 N465 2.135 . S
Co468 N471 2.121 . S
Co468 O476 2.055 . S
Co468 O479 2.039 . S
Co468 N482 2.140 . S
C469 O470 1.227 . S
C469 O479 1.265 . S
O470 C469 1.227 . S
N471 Co468 2.121 . S
N471 C473 1.375 . S
N471 C474 1.313 . S
C472 C473 1.338 . S
C472 N475 1.377 . S
C472 H492 0.930 . S
C473 N471 1.375 . S
C473 C472 1.338 . S
C473 H477 0.931 . S
C474 N471 1.313 . S
C474 N475 1.344 . S
C474 H478 0.930 . S
N475 C472 1.377 . S
N475 C474 1.344 . S
O476 Co468 2.055 . S
O476 C480 1.253 . S
H477 C473 0.931 . S
H478 C474 0.930 . S
O479 Co468 2.039 . S
O479 C469 1.265 . S
C480 O476 1.253 . S
C480 O481 1.227 . S
O481 C480 1.227 . S
N482 Co468 2.140 . S
N482 C485 1.346 . S
N482 C486 1.345 . S
C483 C484 1.387 1_545 S
C483 C487 1.391 . S
C484 C483 1.387 1_565 S
C484 C485 1.369 1_565 S
C484 H493 0.929 . S
C485 N482 1.346 . S
C485 C484 1.369 1_545 S
C485 H488 0.928 . S
C486 N482 1.345 . S
C486 C487 1.371 . S
C486 H489 0.931 . S
C487 C483 1.391 . S
C487 C486 1.371 . S
C487 H494 0.930 . S
H488 C485 0.928 . S
H489 C486 0.931 . S
H490 C466 0.921 1_545 S
H491 C463 0.930 . S
H492 C472 0.930 . S
H493 C484 0.929 . S
H494 C487 0.930 . S
C495 C496 1.351 . S
C495 N498 1.368 . S
C495 H500 0.931 . S
C496 C495 1.351 . S
C496 N497 1.373 . S
C496 H524 0.930 . S
N497 C496 1.373 . S
N497 C499 1.340 . S
N498 C495 1.368 . S
N498 C499 1.321 . S
N498 Co501 2.135 . S
C499 N497 1.340 . S
C499 N498 1.321 . S
C499 H523 0.930 . S
H500 C495 0.931 . S
Co501 N498 2.135 . S
Co501 N504 2.121 . S
Co501 O509 2.055 . S
Co501 O512 2.039 . S
Co501 N515 2.140 . S
C502 O503 1.227 . S
C502 O512 1.265 . S
O503 C502 1.227 . S
N504 Co501 2.121 . S
N504 C506 1.375 . S
N504 C507 1.313 . S
C505 C506 1.338 . S
C505 N508 1.377 . S
C505 H525 0.930 . S
C506 N504 1.375 . S
C506 C505 1.338 . S
C506 H510 0.931 . S
C507 N504 1.313 . S
C507 N508 1.344 . S
C507 H511 0.930 . S
N508 C505 1.377 . S
N508 C507 1.344 . S
O509 Co501 2.055 . S
O509 C513 1.253 . S
H510 C506 0.931 . S
H511 C507 0.930 . S
O512 Co501 2.039 . S
O512 C502 1.265 . S
C513 O509 1.253 . S
C513 O514 1.227 . S
O514 C513 1.227 . S
N515 Co501 2.140 . S
N515 C518 1.346 . S
N515 C519 1.345 . S
C516 C517 1.387 . S
C516 C520 1.391 . S
C517 C516 1.387 . S
C517 C518 1.369 . S
C517 H526 0.929 . S
C518 N515 1.346 . S
C518 C517 1.369 . S
C518 H521 0.928 . S
C519 N515 1.345 . S
C519 C520 1.371 . S
C519 H522 0.931 . S
C520 C516 1.391 . S
C520 C519 1.371 . S
C520 H527 0.930 . S
H521 C518 0.928 . S
H522 C519 0.931 . S
H523 C499 0.930 . S
H524 C496 0.930 . S
H525 C505 0.930 . S
H526 C517 0.929 . S
H527 C520 0.930 . S
C528 C529 1.351 . S
C528 N531 1.368 1_556 S
C528 H533 0.931 . S
C529 C528 1.351 . S
C529 N530 1.373 . S
C529 H557 0.930 . S
N530 C529 1.373 . S
N530 C532 1.360 . S
N531 C528 1.368 1_554 S
N531 C532 1.312 1_554 S
N531 Co534 2.135 . S
C532 N530 1.360 . S
C532 N531 1.312 1_556 S
C532 H556 0.921 1_556 S
H533 C528 0.931 . S
Co534 N531 2.135 . S
Co534 N537 2.121 . S
Co534 O542 2.055 . S
Co534 O545 2.039 . S
Co534 N548 2.140 . S
C535 O536 1.227 . S
C535 O545 1.265 . S
O536 C535 1.227 . S
N537 Co534 2.121 . S
N537 C539 1.375 . S
N537 C540 1.313 . S
C538 C539 1.338 . S
C538 N541 1.377 . S
C538 H558 0.930 . S
C539 N537 1.375 . S
C539 C538 1.338 . S
C539 H543 0.931 . S
C540 N537 1.313 . S
C540 N541 1.344 . S
C540 H544 0.930 . S
N541 C538 1.377 . S
N541 C540 1.344 . S
O542 Co534 2.055 . S
O542 C546 1.253 . S
H543 C539 0.931 . S
H544 C540 0.930 . S
O545 Co534 2.039 . S
O545 C535 1.265 . S
C546 O542 1.253 . S
C546 O547 1.227 . S
O547 C546 1.227 . S
N548 Co534 2.140 . S
N548 C551 1.346 . S
N548 C552 1.345 . S
C549 C550 1.387 1_554 S
C549 C553 1.391 . S
C550 C549 1.387 1_556 S
C550 C551 1.369 1_556 S
C550 H559 0.929 . S
C551 N548 1.346 . S
C551 C550 1.369 1_554 S
C551 H554 0.928 . S
C552 N548 1.345 . S
C552 C553 1.371 . S
C552 H555 0.931 . S
C553 C549 1.391 . S
C553 C552 1.371 . S
C553 H560 0.930 . S
H554 C551 0.928 . S
H555 C552 0.931 . S
H556 C532 0.921 1_554 S
H557 C529 0.930 . S
H558 C538 0.930 . S
H559 C550 0.929 . S
H560 C553 0.930 . S
C561 C562 1.351 . S
C561 N564 1.368 1_554 S
C561 H566 0.931 . S
C562 C561 1.351 . S
C562 N563 1.373 . S
C562 H590 0.930 . S
N563 C562 1.373 . S
N563 C565 1.360 . S
N564 C561 1.368 1_556 S
N564 C565 1.312 1_556 S
N564 Co567 2.135 . S
C565 N563 1.360 . S
C565 N564 1.312 1_554 S
C565 H589 0.921 1_554 S
H566 C561 0.931 . S
Co567 N564 2.135 . S
Co567 N570 2.121 . S
Co567 O575 2.055 . S
Co567 O578 2.039 . S
Co567 N581 2.140 . S
C568 O569 1.227 . S
C568 O578 1.265 . S
O569 C568 1.227 . S
N570 Co567 2.121 . S
N570 C572 1.375 . S
N570 C573 1.313 . S
C571 C572 1.338 . S
C571 N574 1.377 . S
C571 H591 0.930 . S
C572 N570 1.375 . S
C572 C571 1.338 . S
C572 H576 0.931 . S
C573 N570 1.313 . S
C573 N574 1.344 . S
C573 H577 0.930 . S
N574 C571 1.377 . S
N574 C573 1.344 . S
O575 Co567 2.055 . S
O575 C579 1.253 . S
H576 C572 0.931 . S
H577 C573 0.930 . S
O578 Co567 2.039 . S
O578 C568 1.265 . S
C579 O575 1.253 . S
C579 O580 1.227 . S
O580 C579 1.227 . S
N581 Co567 2.140 . S
N581 C584 1.346 . S
N581 C585 1.345 . S
C582 C583 1.387 1_556 S
C582 C586 1.391 . S
C583 C582 1.387 1_554 S
C583 C584 1.369 1_554 S
C583 H592 0.929 . S
C584 N581 1.346 . S
C584 C583 1.369 1_556 S
C584 H587 0.928 . S
C585 N581 1.345 . S
C585 C586 1.371 . S
C585 H588 0.931 . S
C586 C582 1.391 . S
C586 C585 1.371 . S
C586 H593 0.930 . S
H587 C584 0.928 . S
H588 C585 0.931 . S
H589 C565 0.921 1_556 S
H590 C562 0.930 . S
H591 C571 0.930 . S
H592 C583 0.929 . S
H593 C586 0.930 . S
C594 C595 1.351 . S
C594 N597 1.368 . S
C594 H599 0.931 . S
C595 C594 1.351 . S
C595 N596 1.373 . S
C595 H623 0.930 . S
N596 C595 1.373 . S
N596 C598 1.340 . S
N597 C594 1.368 . S
N597 C598 1.321 . S
N597 Co600 2.135 . S
C598 N596 1.340 . S
C598 N597 1.321 . S
C598 H622 0.930 . S
H599 C594 0.931 . S
Co600 N597 2.135 . S
Co600 N603 2.121 . S
Co600 O608 2.055 . S
Co600 O611 2.039 . S
Co600 N614 2.140 . S
C601 O602 1.227 . S
C601 O611 1.265 . S
O602 C601 1.227 . S
N603 Co600 2.121 . S
N603 C605 1.375 . S
N603 C606 1.313 . S
C604 C605 1.338 . S
C604 N607 1.377 . S
C604 H624 0.930 . S
C605 N603 1.375 . S
C605 C604 1.338 . S
C605 H609 0.931 . S
C606 N603 1.313 . S
C606 N607 1.344 . S
C606 H610 0.930 . S
N607 C604 1.377 . S
N607 C606 1.344 . S
O608 Co600 2.055 . S
O608 C612 1.253 . S
H609 C605 0.931 . S
H610 C606 0.930 . S
O611 Co600 2.039 . S
O611 C601 1.265 . S
C612 O608 1.253 . S
C612 O613 1.227 . S
O613 C612 1.227 . S
N614 Co600 2.140 . S
N614 C617 1.346 . S
N614 C618 1.345 . S
C615 C616 1.387 . S
C615 C619 1.391 . S
C616 C615 1.387 . S
C616 C617 1.369 . S
C616 H625 0.929 . S
C617 N614 1.346 . S
C617 C616 1.369 . S
C617 H620 0.928 . S
C618 N614 1.345 . S
C618 C619 1.371 . S
C618 H621 0.931 . S
C619 C615 1.391 . S
C619 C618 1.371 . S
C619 H626 0.930 . S
H620 C617 0.928 . S
H621 C618 0.931 . S
H622 C598 0.930 . S
H623 C595 0.930 . S
H624 C604 0.930 . S
H625 C616 0.929 . S
H626 C619 0.930 . S
C627 C628 1.351 . S
C627 N630 1.368 1_554 S
C627 H632 0.931 . S
C628 C627 1.351 . S
C628 N629 1.373 . S
C628 H656 0.930 . S
N629 C628 1.373 . S
N629 C631 1.360 . S
N630 C627 1.368 1_556 S
N630 C631 1.312 1_556 S
N630 Co633 2.135 . S
C631 N629 1.360 . S
C631 N630 1.312 1_554 S
C631 H655 0.921 1_554 S
H632 C627 0.931 . S
Co633 N630 2.135 . S
Co633 N636 2.121 . S
Co633 O641 2.055 . S
Co633 O644 2.039 . S
Co633 N647 2.140 . S
C634 O635 1.227 . S
C634 O644 1.265 . S
O635 C634 1.227 . S
N636 Co633 2.121 . S
N636 C638 1.375 . S
N636 C639 1.313 . S
C637 C638 1.338 . S
C637 N640 1.377 . S
C637 H657 0.930 . S
C638 N636 1.375 . S
C638 C637 1.338 . S
C638 H642 0.931 . S
C639 N636 1.313 . S
C639 N640 1.344 . S
C639 H643 0.930 . S
N640 C637 1.377 . S
N640 C639 1.344 . S
O641 Co633 2.055 . S
O641 C645 1.253 . S
H642 C638 0.931 . S
H643 C639 0.930 . S
O644 Co633 2.039 . S
O644 C634 1.265 . S
C645 O641 1.253 . S
C645 O646 1.227 . S
O646 C645 1.227 . S
N647 Co633 2.140 . S
N647 C650 1.346 . S
N647 C651 1.345 . S
C648 C649 1.387 1_556 S
C648 C652 1.391 . S
C649 C648 1.387 1_554 S
C649 C650 1.369 1_554 S
C649 H658 0.929 . S
C650 N647 1.346 . S
C650 C649 1.369 1_556 S
C650 H653 0.928 . S
C651 N647 1.345 . S
C651 C652 1.371 . S
C651 H654 0.931 . S
C652 C648 1.391 . S
C652 C651 1.371 . S
C652 H659 0.930 . S
H653 C650 0.928 . S
H654 C651 0.931 . S
H655 C631 0.921 1_556 S
H656 C628 0.930 . S
H657 C637 0.930 . S
H658 C649 0.929 . S
H659 C652 0.930 . S
C660 C661 1.351 . S
C660 N663 1.368 . S
C660 H665 0.931 . S
C661 C660 1.351 . S
C661 N662 1.373 . S
C661 H689 0.930 . S
N662 C661 1.373 . S
N662 C664 1.340 . S
N663 C660 1.368 . S
N663 C664 1.321 . S
N663 Co666 2.135 . S
C664 N662 1.340 . S
C664 N663 1.321 . S
C664 H688 0.930 . S
H665 C660 0.931 . S
Co666 N663 2.135 . S
Co666 N669 2.121 . S
Co666 O674 2.055 . S
Co666 O677 2.039 . S
Co666 N680 2.140 . S
C667 O668 1.227 . S
C667 O677 1.265 . S
O668 C667 1.227 . S
N669 Co666 2.121 . S
N669 C671 1.375 . S
N669 C672 1.313 . S
C670 C671 1.338 . S
C670 N673 1.377 . S
C670 H690 0.930 . S
C671 N669 1.375 . S
C671 C670 1.338 . S
C671 H675 0.931 . S
C672 N669 1.313 . S
C672 N673 1.344 . S
C672 H676 0.930 . S
N673 C670 1.377 . S
N673 C672 1.344 . S
O674 Co666 2.055 . S
O674 C678 1.253 . S
H675 C671 0.931 . S
H676 C672 0.930 . S
O677 Co666 2.039 . S
O677 C667 1.265 . S
C678 O674 1.253 . S
C678 O679 1.227 . S
O679 C678 1.227 . S
N680 Co666 2.140 . S
N680 C683 1.346 . S
N680 C684 1.345 . S
C681 C682 1.387 . S
C681 C685 1.391 . S
C682 C681 1.387 . S
C682 C683 1.369 . S
C682 H691 0.929 . S
C683 N680 1.346 . S
C683 C682 1.369 . S
C683 H686 0.928 . S
C684 N680 1.345 . S
C684 C685 1.371 . S
C684 H687 0.931 . S
C685 C681 1.391 . S
C685 C684 1.371 . S
C685 H692 0.930 . S
H686 C683 0.928 . S
H687 C684 0.931 . S
H688 C664 0.930 . S
H689 C661 0.930 . S
H690 C670 0.930 . S
H691 C682 0.929 . S
H692 C685 0.930 . S
C693 C694 1.351 . S
C693 N696 1.368 1_556 S
C693 H698 0.931 . S
C694 C693 1.351 . S
C694 N695 1.373 . S
C694 H722 0.930 . S
N695 C694 1.373 . S
N695 C697 1.360 . S
N696 C693 1.368 1_554 S
N696 C697 1.312 1_554 S
N696 Co699 2.135 . S
C697 N695 1.360 . S
C697 N696 1.312 1_556 S
C697 H721 0.921 1_556 S
H698 C693 0.931 . S
Co699 N696 2.135 . S
Co699 N702 2.121 . S
Co699 O707 2.055 . S
Co699 O710 2.039 . S
Co699 N713 2.140 . S
C700 O701 1.227 . S
C700 O710 1.265 . S
O701 C700 1.227 . S
N702 Co699 2.121 . S
N702 C704 1.375 . S
N702 C705 1.313 . S
C703 C704 1.338 . S
C703 N706 1.377 . S
C703 H723 0.930 . S
C704 N702 1.375 . S
C704 C703 1.338 . S
C704 H708 0.931 . S
C705 N702 1.313 . S
C705 N706 1.344 . S
C705 H709 0.930 . S
N706 C703 1.377 . S
N706 C705 1.344 . S
O707 Co699 2.055 . S
O707 C711 1.253 . S
H708 C704 0.931 . S
H709 C705 0.930 . S
O710 Co699 2.039 . S
O710 C700 1.265 . S
C711 O707 1.253 . S
C711 O712 1.227 . S
O712 C711 1.227 . S
N713 Co699 2.140 . S
N713 C716 1.346 . S
N713 C717 1.345 . S
C714 C715 1.387 1_554 S
C714 C718 1.391 . S
C715 C714 1.387 1_556 S
C715 C716 1.369 1_556 S
C715 H724 0.929 . S
C716 N713 1.346 . S
C716 C715 1.369 1_554 S
C716 H719 0.928 . S
C717 N713 1.345 . S
C717 C718 1.371 . S
C717 H720 0.931 . S
C718 C714 1.391 . S
C718 C717 1.371 . S
C718 H725 0.930 . S
H719 C716 0.928 . S
H720 C717 0.931 . S
H721 C697 0.921 1_554 S
H722 C694 0.930 . S
H723 C703 0.930 . S
H724 C715 0.929 . S
H725 C718 0.930 . S
C726 C727 1.351 . S
C726 N729 1.368 . S
C726 H731 0.931 . S
C727 C726 1.351 . S
C727 N728 1.373 . S
C727 H755 0.930 . S
N728 C727 1.373 . S
N728 C730 1.340 . S
N729 C726 1.368 . S
N729 C730 1.321 . S
N729 Co732 2.135 . S
C730 N728 1.340 . S
C730 N729 1.321 . S
C730 H754 0.930 . S
H731 C726 0.931 . S
Co732 N729 2.135 . S
Co732 N735 2.121 . S
Co732 O740 2.055 . S
Co732 O743 2.039 . S
Co732 N746 2.140 . S
C733 O734 1.227 . S
C733 O743 1.265 . S
O734 C733 1.227 . S
N735 Co732 2.121 . S
N735 C737 1.375 . S
N735 C738 1.313 . S
C736 C737 1.338 . S
C736 N739 1.377 . S
C736 H756 0.930 . S
C737 N735 1.375 . S
C737 C736 1.338 . S
C737 H741 0.931 . S
C738 N735 1.313 . S
C738 N739 1.344 . S
C738 H742 0.930 . S
N739 C736 1.377 . S
N739 C738 1.344 . S
O740 Co732 2.055 . S
O740 C744 1.253 . S
H741 C737 0.931 . S
H742 C738 0.930 . S
O743 Co732 2.039 . S
O743 C733 1.265 . S
C744 O740 1.253 . S
C744 O745 1.227 . S
O745 C744 1.227 . S
N746 Co732 2.140 . S
N746 C749 1.346 . S
N746 C750 1.345 . S
C747 C748 1.387 . S
C747 C751 1.391 . S
C748 C747 1.387 . S
C748 C749 1.369 . S
C748 H757 0.929 . S
C749 N746 1.346 . S
C749 C748 1.369 . S
C749 H752 0.928 . S
C750 N746 1.345 . S
C750 C751 1.371 . S
C750 H753 0.931 . S
C751 C747 1.391 . S
C751 C750 1.371 . S
C751 H758 0.930 . S
H752 C749 0.928 . S
H753 C750 0.931 . S
H754 C730 0.930 . S
H755 C727 0.930 . S
H756 C736 0.930 . S
H757 C748 0.929 . S
H758 C751 0.930 . S
C759 C760 1.351 . S
C759 N762 1.368 . S
C759 H764 0.931 . S
C760 C759 1.351 . S
C760 N761 1.373 . S
C760 H788 0.930 . S
N761 C760 1.373 . S
N761 C763 1.340 . S
N762 C759 1.368 . S
N762 C763 1.321 . S
N762 Co765 2.135 . S
C763 N761 1.340 . S
C763 N762 1.321 . S
C763 H787 0.930 . S
H764 C759 0.931 . S
Co765 N762 2.135 . S
Co765 N768 2.121 . S
Co765 O773 2.055 . S
Co765 O776 2.039 . S
Co765 N779 2.140 . S
C766 O767 1.227 . S
C766 O776 1.265 . S
O767 C766 1.227 . S
N768 Co765 2.121 . S
N768 C770 1.375 . S
N768 C771 1.313 . S
C769 C770 1.338 . S
C769 N772 1.377 . S
C769 H789 0.930 . S
C770 N768 1.375 . S
C770 C769 1.338 . S
C770 H774 0.931 . S
C771 N768 1.313 . S
C771 N772 1.344 . S
C771 H775 0.930 . S
N772 C769 1.377 . S
N772 C771 1.344 . S
O773 Co765 2.055 . S
O773 C777 1.253 . S
H774 C770 0.931 . S
H775 C771 0.930 . S
O776 Co765 2.039 . S
O776 C766 1.265 . S
C777 O773 1.253 . S
C777 O778 1.227 . S
O778 C777 1.227 . S
N779 Co765 2.140 . S
N779 C782 1.346 . S
N779 C783 1.345 . S
C780 C781 1.387 . S
C780 C784 1.391 . S
C781 C780 1.387 . S
C781 C782 1.369 . S
C781 H790 0.929 . S
C782 N779 1.346 . S
C782 C781 1.369 . S
C782 H785 0.928 . S
C783 N779 1.345 . S
C783 C784 1.371 . S
C783 H786 0.931 . S
C784 C780 1.391 . S
C784 C783 1.371 . S
C784 H791 0.930 . S
H785 C782 0.928 . S
H786 C783 0.931 . S
H787 C763 0.930 . S
H788 C760 0.930 . S
H789 C769 0.930 . S
H790 C781 0.929 . S
H791 C784 0.930 . S
N101 C7 1.329 . S
N2 C40 1.329 . S
N35 C73 1.329 . S
C106 N68 1.329 . S
N167 C139 1.329 . S
N200 C172 1.329 . S
C205 N233 1.329 . S
N134 C238 1.329 . S
C271 N596 1.329 . S
C304 N629 1.329 . S
N662 C337 1.329 . S
N563 C370 1.329 . S
N728 C403 1.329 . S
C436 N530 1.329 . S
C469 N761 1.329 . S
N695 C502 1.329 . S
N299 C535 1.329 . S
C568 N497 1.329 . S
N398 C601 1.329 . S
N431 C634 1.329 . S
N464 C667 1.329 . S
N365 C700 1.329 . S
N266 C733 1.329 . S
N332 C766 1.329 . S
C219 C21 1.753 1_656 S
C54 C252 1.753 . S
C153 C87 1.753 1_456 S
C186 C120 1.753 . S
C351 C285 1.753 1_665 S
C318 C384 1.753 . S
C417 C483 1.753 1_465 S
C516 C450 1.753 . S
C549 C582 1.753 1_544 S
C615 C780 1.753 . S
C648 C714 1.753 1_546 S
C747 C681 1.753 . S
C18 N277 1.878 . S
C51 N310 1.878 . S
N343 C84 1.878 . S
N376 C117 1.878 . S
C150 N409 1.878 . S
N442 C183 1.878 . S
C216 N475 1.878 . S
N508 C249 1.878 . S
C282 N541 1.878 . S
N772 C315 1.878 . S
C348 N706 1.878 . S
C381 N739 1.878 . S
N574 C414 1.878 . S
C447 N607 1.878 . S
C480 N640 1.878 . S
C513 N673 1.878 . S
C546 N13 1.878 . S
C579 N145 1.878 . S
C612 N178 1.878 . S
N211 C645 1.878 . S
C678 N244 1.878 . S
N79 C711 1.878 . S
N112 C744 1.878 . S
C777 N46 1.878 . S
