# Generated by pormake.
# Topology yfq, (5)-cn, num edge types: 1
# Building blocks:
#     Node 0, Type 0, BuildingBlock: XOMCOT_clean_sbu_1, # of connection points: 5
#     Node 1, Type 0, BuildingBlock: XOMCOT_clean_sbu_1, # of connection points: 5
#     Node 2, Type 0, BuildingBlock: XOMCOT_clean_sbu_1, # of connection points: 5
#     Node 3, Type 0, BuildingBlock: XOMCOT_clean_sbu_1, # of connection points: 5
#     Node 4, Type 0, BuildingBlock: XOMCOT_clean_sbu_1, # of connection points: 5
#     Node 5, Type 0, BuildingBlock: XOMCOT_clean_sbu_1, # of connection points: 5
#     Node 6, Type 0, BuildingBlock: XOMCOT_clean_sbu_1, # of connection points: 5
#     Node 7, Type 0, BuildingBlock: XOMCOT_clean_sbu_1, # of connection points: 5
#     Node 8, Type 0, BuildingBlock: XOMCOT_clean_sbu_1, # of connection points: 5
#     Node 9, Type 0, BuildingBlock: XOMCOT_clean_sbu_1, # of connection points: 5
#     Node 10, Type 0, BuildingBlock: XOMCOT_clean_sbu_1, # of connection points: 5
#     Node 11, Type 0, BuildingBlock: XOMCOT_clean_sbu_1, # of connection points: 5
#     Node 12, Type 0, BuildingBlock: XOMCOT_clean_sbu_1, # of connection points: 5
#     Node 13, Type 0, BuildingBlock: XOMCOT_clean_sbu_1, # of connection points: 5
#     Node 14, Type 0, BuildingBlock: XOMCOT_clean_sbu_1, # of connection points: 5
#     Node 15, Type 0, BuildingBlock: XOMCOT_clean_sbu_1, # of connection points: 5
#     Node 16, Type 0, BuildingBlock: XOMCOT_clean_sbu_1, # of connection points: 5
#     Node 17, Type 0, BuildingBlock: XOMCOT_clean_sbu_1, # of connection points: 5
#     Node 18, Type 0, BuildingBlock: XOMCOT_clean_sbu_1, # of connection points: 5
#     Node 19, Type 0, BuildingBlock: XOMCOT_clean_sbu_1, # of connection points: 5
#     Node 20, Type 0, BuildingBlock: XOMCOT_clean_sbu_1, # of connection points: 5
#     Node 21, Type 0, BuildingBlock: XOMCOT_clean_sbu_1, # of connection points: 5
#     Node 22, Type 0, BuildingBlock: XOMCOT_clean_sbu_1, # of connection points: 5
#     Node 23, Type 0, BuildingBlock: XOMCOT_clean_sbu_1, # of connection points: 5
#     Node 24, Type 0, BuildingBlock: XOMCOT_clean_sbu_1, # of connection points: 5
#     Node 25, Type 0, BuildingBlock: XOMCOT_clean_sbu_1, # of connection points: 5
#     Node 26, Type 0, BuildingBlock: XOMCOT_clean_sbu_1, # of connection points: 5
#     Node 27, Type 0, BuildingBlock: XOMCOT_clean_sbu_1, # of connection points: 5
#     Node 28, Type 0, BuildingBlock: XOMCOT_clean_sbu_1, # of connection points: 5
#     Node 29, Type 0, BuildingBlock: XOMCOT_clean_sbu_1, # of connection points: 5
#     Node 30, Type 0, BuildingBlock: XOMCOT_clean_sbu_1, # of connection points: 5
#     Node 31, Type 0, BuildingBlock: XOMCOT_clean_sbu_1, # of connection points: 5
#     Edge 32, Type (0, 0), BuildingBlock: OJICUG_clean_linker_0, # of connection points: 2
#     Edge 33, Type (0, 0), BuildingBlock: OJICUG_clean_linker_0, # of connection points: 2
#     Edge 34, Type (0, 0), BuildingBlock: OJICUG_clean_linker_0, # of connection points: 2
#     Edge 35, Type (0, 0), BuildingBlock: OJICUG_clean_linker_0, # of connection points: 2
#     Edge 36, Type (0, 0), BuildingBlock: OJICUG_clean_linker_0, # of connection points: 2
#     Edge 37, Type (0, 0), BuildingBlock: OJICUG_clean_linker_0, # of connection points: 2
#     Edge 38, Type (0, 0), BuildingBlock: OJICUG_clean_linker_0, # of connection points: 2
#     Edge 39, Type (0, 0), BuildingBlock: OJICUG_clean_linker_0, # of connection points: 2
#     Edge 40, Type (0, 0), BuildingBlock: OJICUG_clean_linker_0, # of connection points: 2
#     Edge 41, Type (0, 0), BuildingBlock: OJICUG_clean_linker_0, # of connection points: 2
#     Edge 42, Type (0, 0), BuildingBlock: OJICUG_clean_linker_0, # of connection points: 2
#     Edge 43, Type (0, 0), BuildingBlock: OJICUG_clean_linker_0, # of connection points: 2
#     Edge 44, Type (0, 0), BuildingBlock: OJICUG_clean_linker_0, # of connection points: 2
#     Edge 45, Type (0, 0), BuildingBlock: OJICUG_clean_linker_0, # of connection points: 2
#     Edge 46, Type (0, 0), BuildingBlock: OJICUG_clean_linker_0, # of connection points: 2
#     Edge 47, Type (0, 0), BuildingBlock: OJICUG_clean_linker_0, # of connection points: 2
#     Edge 48, Type (0, 0), BuildingBlock: OJICUG_clean_linker_0, # of connection points: 2
#     Edge 49, Type (0, 0), BuildingBlock: OJICUG_clean_linker_0, # of connection points: 2
#     Edge 50, Type (0, 0), BuildingBlock: OJICUG_clean_linker_0, # of connection points: 2
#     Edge 51, Type (0, 0), BuildingBlock: OJICUG_clean_linker_0, # of connection points: 2
#     Edge 52, Type (0, 0), BuildingBlock: OJICUG_clean_linker_0, # of connection points: 2
#     Edge 53, Type (0, 0), BuildingBlock: OJICUG_clean_linker_0, # of connection points: 2
#     Edge 54, Type (0, 0), BuildingBlock: OJICUG_clean_linker_0, # of connection points: 2
#     Edge 55, Type (0, 0), BuildingBlock: OJICUG_clean_linker_0, # of connection points: 2
#     Edge 56, Type (0, 0), BuildingBlock: OJICUG_clean_linker_0, # of connection points: 2
#     Edge 57, Type (0, 0), BuildingBlock: OJICUG_clean_linker_0, # of connection points: 2
#     Edge 58, Type (0, 0), BuildingBlock: OJICUG_clean_linker_0, # of connection points: 2
#     Edge 59, Type (0, 0), BuildingBlock: OJICUG_clean_linker_0, # of connection points: 2
#     Edge 60, Type (0, 0), BuildingBlock: OJICUG_clean_linker_0, # of connection points: 2
#     Edge 61, Type (0, 0), BuildingBlock: OJICUG_clean_linker_0, # of connection points: 2
#     Edge 62, Type (0, 0), BuildingBlock: OJICUG_clean_linker_0, # of connection points: 2
#     Edge 63, Type (0, 0), BuildingBlock: OJICUG_clean_linker_0, # of connection points: 2
#     Edge 64, Type (0, 0), BuildingBlock: OJICUG_clean_linker_0, # of connection points: 2
#     Edge 65, Type (0, 0), BuildingBlock: OJICUG_clean_linker_0, # of connection points: 2
#     Edge 66, Type (0, 0), BuildingBlock: OJICUG_clean_linker_0, # of connection points: 2
#     Edge 67, Type (0, 0), BuildingBlock: OJICUG_clean_linker_0, # of connection points: 2
#     Edge 68, Type (0, 0), BuildingBlock: OJICUG_clean_linker_0, # of connection points: 2
#     Edge 69, Type (0, 0), BuildingBlock: OJICUG_clean_linker_0, # of connection points: 2
#     Edge 70, Type (0, 0), BuildingBlock: OJICUG_clean_linker_0, # of connection points: 2
#     Edge 71, Type (0, 0), BuildingBlock: OJICUG_clean_linker_0, # of connection points: 2
#     Edge 72, Type (0, 0), BuildingBlock: OJICUG_clean_linker_0, # of connection points: 2
#     Edge 73, Type (0, 0), BuildingBlock: OJICUG_clean_linker_0, # of connection points: 2
#     Edge 74, Type (0, 0), BuildingBlock: OJICUG_clean_linker_0, # of connection points: 2
#     Edge 75, Type (0, 0), BuildingBlock: OJICUG_clean_linker_0, # of connection points: 2
#     Edge 76, Type (0, 0), BuildingBlock: OJICUG_clean_linker_0, # of connection points: 2
#     Edge 77, Type (0, 0), BuildingBlock: OJICUG_clean_linker_0, # of connection points: 2
#     Edge 78, Type (0, 0), BuildingBlock: OJICUG_clean_linker_0, # of connection points: 2
#     Edge 79, Type (0, 0), BuildingBlock: OJICUG_clean_linker_0, # of connection points: 2
#     Edge 80, Type (0, 0), BuildingBlock: OJICUG_clean_linker_0, # of connection points: 2
#     Edge 81, Type (0, 0), BuildingBlock: OJICUG_clean_linker_0, # of connection points: 2
#     Edge 82, Type (0, 0), BuildingBlock: OJICUG_clean_linker_0, # of connection points: 2
#     Edge 83, Type (0, 0), BuildingBlock: OJICUG_clean_linker_0, # of connection points: 2
#     Edge 84, Type (0, 0), BuildingBlock: OJICUG_clean_linker_0, # of connection points: 2
#     Edge 85, Type (0, 0), BuildingBlock: OJICUG_clean_linker_0, # of connection points: 2
#     Edge 86, Type (0, 0), BuildingBlock: OJICUG_clean_linker_0, # of connection points: 2
#     Edge 87, Type (0, 0), BuildingBlock: OJICUG_clean_linker_0, # of connection points: 2
#     Edge 88, Type (0, 0), BuildingBlock: OJICUG_clean_linker_0, # of connection points: 2
#     Edge 89, Type (0, 0), BuildingBlock: OJICUG_clean_linker_0, # of connection points: 2
#     Edge 90, Type (0, 0), BuildingBlock: OJICUG_clean_linker_0, # of connection points: 2
#     Edge 91, Type (0, 0), BuildingBlock: OJICUG_clean_linker_0, # of connection points: 2
#     Edge 92, Type (0, 0), BuildingBlock: OJICUG_clean_linker_0, # of connection points: 2
#     Edge 93, Type (0, 0), BuildingBlock: OJICUG_clean_linker_0, # of connection points: 2
#     Edge 94, Type (0, 0), BuildingBlock: OJICUG_clean_linker_0, # of connection points: 2
#     Edge 95, Type (0, 0), BuildingBlock: OJICUG_clean_linker_0, # of connection points: 2
#     Edge 96, Type (0, 0), BuildingBlock: OJICUG_clean_linker_0, # of connection points: 2
#     Edge 97, Type (0, 0), BuildingBlock: OJICUG_clean_linker_0, # of connection points: 2
#     Edge 98, Type (0, 0), BuildingBlock: OJICUG_clean_linker_0, # of connection points: 2
#     Edge 99, Type (0, 0), BuildingBlock: OJICUG_clean_linker_0, # of connection points: 2
#     Edge 100, Type (0, 0), BuildingBlock: OJICUG_clean_linker_0, # of connection points: 2
#     Edge 101, Type (0, 0), BuildingBlock: OJICUG_clean_linker_0, # of connection points: 2
#     Edge 102, Type (0, 0), BuildingBlock: OJICUG_clean_linker_0, # of connection points: 2
#     Edge 103, Type (0, 0), BuildingBlock: OJICUG_clean_linker_0, # of connection points: 2
#     Edge 104, Type (0, 0), BuildingBlock: OJICUG_clean_linker_0, # of connection points: 2
#     Edge 105, Type (0, 0), BuildingBlock: OJICUG_clean_linker_0, # of connection points: 2
#     Edge 106, Type (0, 0), BuildingBlock: OJICUG_clean_linker_0, # of connection points: 2
#     Edge 107, Type (0, 0), BuildingBlock: OJICUG_clean_linker_0, # of connection points: 2
#     Edge 108, Type (0, 0), BuildingBlock: OJICUG_clean_linker_0, # of connection points: 2
#     Edge 109, Type (0, 0), BuildingBlock: OJICUG_clean_linker_0, # of connection points: 2
#     Edge 110, Type (0, 0), BuildingBlock: OJICUG_clean_linker_0, # of connection points: 2
#     Edge 111, Type (0, 0), BuildingBlock: OJICUG_clean_linker_0, # of connection points: 2
# Relax obj value: 0.556
# Max RMSD: 0.297
# Mean RMSD: 0.297
data_MOF--net-yfq--node1-XOMCOT_clean_sbu_1--edge1-OJICUG_clean_linker_0
_symmetry_space_group_name_H-M    P1
_symmetry_Int_Tables_number       1
_symmetry_cell_setting            triclinic
loop_
_symmetry_equiv_pos_as_xyz
'x, y, z'
_cell_length_a     38.689075
_cell_length_b     38.68467
_cell_length_c     47.597886
_cell_angle_alpha  89.975292
_cell_angle_beta   89.979471
_cell_angle_gamma 90.028166
loop_
_atom_site_label
_atom_site_type_symbol
_atom_site_fract_x
_atom_site_fract_y
_atom_site_fract_z
_atom_type_partial_charge
C0 C 0.18066 0.2325 0.29004 0.0
C1 C 0.18144 0.25781 0.31009 0.0
N2 N 0.15324 0.27787 0.30686 0.0
N3 N 0.15223 0.23649 0.2741 0.0
C4 C 0.13607 0.26449 0.28461 0.0
H5 H 0.19896 0.21156 0.28784 0.0
Co6 Co 0.14211 0.20527 0.24625 0.0
C7 C 0.07178 0.22055 0.22434 0.0
O8 O 0.06755 0.18691 0.22293 0.0
N9 N 0.13415 0.17275 0.21754 0.0
C10 C 0.1244 0.12584 0.1916 0.0
C11 C 0.12859 0.13823 0.21847 0.0
C12 C 0.13381 0.18045 0.18983 0.0
N13 N 0.12781 0.15249 0.17368 0.0
O14 O 0.17332 0.23026 0.2228 0.0
H15 H 0.12739 0.12263 0.2372 0.0
H16 H 0.13714 0.20635 0.18165 0.0
O17 O 0.10104 0.23279 0.23282 0.0
C18 C 0.20387 0.21813 0.22521 0.0
O19 O 0.20722 0.18582 0.23333 0.0
N20 N 0.11495 0.18115 0.27238 0.0
C21 C 0.08946 0.15453 0.3227 0.0
C22 C 0.07278 0.18196 0.30927 0.0
C23 C 0.08638 0.19546 0.28468 0.0
C24 C 0.13159 0.15437 0.28524 0.0
C25 C 0.11888 0.14011 0.31019 0.0
H26 H 0.07535 0.21932 0.27738 0.0
H27 H 0.15604 0.14538 0.27697 0.0
H28 H 0.11159 0.27396 0.27681 0.0
H29 H 0.20008 0.25965 0.32697 0.0
H30 H 0.11974 0.09923 0.18569 0.0
H31 H 0.05009 0.19401 0.31833 0.0
H32 H 0.13289 0.11932 0.32031 0.0
C33 C 0.05563 0.93615 0.5294 0.0
C34 C 0.0388 0.95096 0.55159 0.0
N35 N 1.00955 0.93299 0.55631 0.0
N36 N 0.03705 0.90917 0.51983 0.0
C37 C 1.00895 0.90782 0.53654 0.0
H38 H 0.08023 0.94424 0.52085 0.0
Co39 Co 0.05324 0.88446 0.48945 0.0
C40 C 0.99952 0.83513 0.4717 0.0
O41 O 0.99913 0.85056 0.4471 0.0
N42 N 0.07131 0.86079 0.45858 0.0
C43 C 0.09097 0.81916 0.43069 0.0
C44 C 0.07902 0.82679 0.45715 0.0
C45 C 0.0792 0.87335 0.43291 0.0
N46 N 0.09104 0.84852 0.41548 0.0
O47 O 0.02498 0.91343 0.46628 0.0
H48 H 0.07566 0.80854 0.47417 0.0
H49 H 0.07546 0.89999 0.4268 0.0
O50 O 0.01682 0.84865 0.49179 0.0
C51 C 0.03681 0.94413 0.46391 0.0
O52 O 0.07046 0.94842 0.46548 0.0
N53 N 0.08077 0.85896 0.51392 0.0
C54 C 0.12021 0.83676 0.55902 0.0
C55 C 0.08495 0.82932 0.55783 0.0
C56 C 0.06564 0.84079 0.53525 0.0
C57 C 0.11548 0.86512 0.51397 0.0
C58 C 0.13599 0.85378 0.53639 0.0
H59 H 0.03804 0.8373 0.53638 0.0
H60 H 0.12686 0.88051 0.49739 0.0
H61 H 0.98937 0.88792 0.53503 0.0
H62 H 0.04792 0.97275 0.56376 0.0
H63 H 0.09907 0.79399 0.42328 0.0
H64 H 0.07209 0.81585 0.57486 0.0
H65 H 0.16334 0.85975 0.53675 0.0
C66 C 0.34303 0.80095 0.78692 0.0
C67 C 0.34028 0.77529 0.80653 0.0
N68 N 0.36709 0.75346 0.80315 0.0
N69 N 0.37132 0.79544 0.7711 0.0
C70 C 0.38553 0.76624 0.78131 0.0
H71 H 0.32597 0.82291 0.7847 0.0
Co72 Co 0.38199 0.82596 0.74298 0.0
C73 C 0.45242 0.81038 0.72138 0.0
O74 O 0.45628 0.84403 0.71951 0.0
N75 N 0.39017 0.85793 0.71396 0.0
C76 C 0.39926 0.90437 0.68729 0.0
C77 C 0.39577 0.89245 0.7144 0.0
C78 C 0.38987 0.84974 0.68636 0.0
N79 N 0.39535 0.8774 0.66975 0.0
O80 O 0.35072 0.80065 0.71974 0.0
H81 H 0.3973 0.90831 0.73297 0.0
H82 H 0.38625 0.82372 0.67856 0.0
O83 O 0.4232 0.79803 0.72997 0.0
C84 C 0.32015 0.81284 0.72187 0.0
O85 O 0.31676 0.84536 0.72936 0.0
N86 N 0.40922 0.85026 0.76901 0.0
C87 C 0.43274 0.87449 0.82079 0.0
C88 C 0.45002 0.84781 0.80688 0.0
C89 C 0.43731 0.8354 0.78163 0.0
C90 C 0.39255 0.87699 0.78192 0.0
C91 C 0.40418 0.88992 0.80771 0.0
H92 H 0.44829 0.81155 0.77427 0.0
H93 H 0.3685 0.8865 0.7733 0.0
H94 H 0.40932 0.75521 0.77342 0.0
H95 H 0.3212 0.77412 0.82313 0.0
H96 H 0.40365 0.93089 0.68095 0.0
H97 H 0.47218 0.83513 0.81621 0.0
H98 H 0.38973 0.91022 0.81806 0.0
C99 C 0.47558 0.08465 0.03895 0.0
C100 C 0.50129 0.08066 0.05837 0.0
N101 N 0.52462 0.10614 0.0546 0.0
N102 N 0.48253 0.11243 0.0229 0.0
C103 C 0.51266 0.12499 0.0327 0.0
H104 H 0.45267 0.06881 0.03698 0.0
Co105 Co 0.4526 0.12482 -0.00514 0.0
C106 C 0.46993 0.19588 0.97557 0.0
O107 O 0.43641 0.20086 0.97411 0.0
N108 N 0.42119 0.13491 0.96587 0.0
C109 C 0.3752 0.14613 0.93927 0.0
C110 C 0.38682 0.14136 0.9663 0.0
C111 C 0.42959 0.1355 0.93831 0.0
N112 N 0.40218 0.14225 0.92175 0.0
O113 O 0.47779 0.09448 0.97094 0.0
H114 H 0.37077 0.14259 0.98476 0.0
H115 H 0.45555 0.13148 0.93051 0.0
O116 O 0.48145 0.16596 0.98322 0.0
C117 C 0.46635 0.06363 0.97306 0.0
O118 O 0.43365 0.0595 0.97977 0.0
N119 N 0.42843 0.15119 0.02142 0.0
C120 C 0.40241 0.1742 0.07269 0.0
C121 C 0.43063 0.19066 0.06016 0.0
C122 C 0.44383 0.17821 0.0351 0.0
C123 C 0.40072 0.1349 0.03329 0.0
C124 C 0.38677 0.14644 0.05873 0.0
H125 H 0.46836 0.18853 0.02857 0.0
H126 H 0.39085 0.11141 0.02393 0.0
H127 H 0.52493 0.14798 0.02447 0.0
H128 H 0.50147 0.06174 0.07512 0.0
H129 H 0.34881 0.15125 0.93295 0.0
H130 H 0.4436 0.2121 0.07033 0.0
H131 H 0.3653 0.13262 0.06809 0.0
C132 C 0.19153 0.799 0.18003 0.0
C133 C 0.1959 0.77431 0.15979 0.0
N134 N 0.17123 0.75002 0.16317 0.0
N135 N 0.16428 0.79052 0.19619 0.0
C136 C 0.15251 0.76041 0.18568 0.0
H137 H 0.20669 0.82229 0.18248 0.0
Co138 Co 0.15149 0.81891 0.22527 0.0
C139 C 0.08007 0.8012 0.24286 0.0
O140 O 0.07505 0.83479 0.24346 0.0
N141 N 0.14102 0.84847 0.25543 0.0
C142 C 0.12965 0.89194 0.28462 0.0
C143 C 0.13767 0.88316 0.25735 0.0
C144 C 0.13572 0.83701 0.28189 0.0
N145 N 0.12823 0.86275 0.29999 0.0
O146 O 0.18179 0.79269 0.24848 0.0
H147 H 0.14038 0.90128 0.2403 0.0
H148 H 0.13703 0.80998 0.28763 0.0
O149 O 0.11017 0.78942 0.23592 0.0
C150 C 0.2126 0.80428 0.24664 0.0
O151 O 0.21668 0.83705 0.2401 0.0
N152 N 0.12499 0.84433 0.19937 0.0
C153 C 0.1007 0.87288 0.14934 0.0
C154 C 0.08605 0.84273 0.16023 0.0
C155 C 0.09913 0.82841 0.18463 0.0
C156 C 0.13972 0.87378 0.189 0.0
C157 C 0.12741 0.88904 0.16425 0.0
H158 H 0.09022 0.80286 0.18987 0.0
H159 H 0.16281 0.88404 0.1987 0.0
H160 H 0.13012 0.74705 0.19389 0.0
H161 H 0.21448 0.77548 0.14283 0.0
H162 H 0.12446 0.91774 0.29229 0.0
H163 H 0.06551 0.82928 0.14926 0.0
H164 H 0.13989 0.91199 0.15606 0.0
C165 C 0.4769 0.93094 0.43323 0.0
C166 C 0.50246 0.93345 0.4135 0.0
N167 N 0.52415 0.90652 0.41686 0.0
N168 N 0.48233 0.90269 0.44912 0.0
C169 C 0.51138 0.88826 0.43882 0.0
H170 H 0.45503 0.94812 0.43545 0.0
Co171 Co 0.45168 0.89185 0.47721 0.0
C172 C 0.46799 0.82161 0.49892 0.0
O173 O 0.43443 0.8172 0.50096 0.0
N174 N 0.41959 0.88341 0.50612 0.0
C175 C 0.37285 0.87398 0.53236 0.0
C176 C 0.38518 0.87721 0.50536 0.0
C177 C 0.4273 0.88425 0.5338 0.0
N178 N 0.39943 0.87863 0.55016 0.0
O179 O 0.47674 0.92297 0.50058 0.0
H180 H 0.36964 0.87513 0.48665 0.0
H181 H 0.4531 0.88846 0.54188 0.0
O182 O 0.47982 0.85095 0.49019 0.0
C183 C 0.4648 0.9536 0.49831 0.0
O184 O 0.43225 0.95718 0.49096 0.0
N185 N 0.4276 0.86468 0.45112 0.0
C186 C 0.40356 0.84149 0.39925 0.0
C187 C 0.43007 0.824 0.41321 0.0
C188 C 0.44236 0.83651 0.43856 0.0
C189 C 0.40106 0.88157 0.43813 0.0
C190 C 0.3882 0.87008 0.4123 0.0
H191 H 0.46604 0.82532 0.44605 0.0
H192 H 0.39161 0.90562 0.4468 0.0
H193 H 0.52228 0.86441 0.4467 0.0
H194 H 0.50363 0.95247 0.39685 0.0
H195 H 0.34629 0.86932 0.53844 0.0
H196 H 0.44267 0.80179 0.40387 0.0
H197 H 0.36801 0.88463 0.4019 0.0
C198 C 0.33845 0.21947 0.68594 0.0
C199 C 0.33397 0.24476 0.66623 0.0
N200 N 0.35981 0.2679 0.66895 0.0
N201 N 0.36689 0.22648 0.70117 0.0
C202 C 0.37939 0.25623 0.69054 0.0
H203 H 0.32249 0.19676 0.68865 0.0
Co204 Co 0.37988 0.19672 0.72922 0.0
C205 C 0.45133 0.21398 0.7475 0.0
O206 O 0.45617 0.18043 0.74906 0.0
N207 N 0.39052 0.16543 0.7582 0.0
C208 C 0.40209 0.11946 0.78475 0.0
C209 C 0.39705 0.13108 0.75774 0.0
C210 C 0.39138 0.17384 0.78574 0.0
N211 N 0.3983 0.14643 0.80227 0.0
O212 O 0.35001 0.22207 0.75345 0.0
H213 H 0.3981 0.11504 0.73927 0.0
H214 H 0.38731 0.19978 0.79357 0.0
O215 O 0.42134 0.22559 0.74013 0.0
C216 C 0.31927 0.21019 0.75206 0.0
O217 O 0.31542 0.1773 0.74587 0.0
N218 N 0.40557 0.17233 0.70241 0.0
C219 C 0.42648 0.1465 0.65051 0.0
C220 C 0.44386 0.17426 0.66289 0.0
C221 C 0.43244 0.18739 0.68829 0.0
C222 C 0.38859 0.14488 0.69082 0.0
C223 C 0.39903 0.13106 0.66503 0.0
H224 H 0.44332 0.21172 0.69469 0.0
H225 H 0.36528 0.13523 0.70066 0.0
H226 H 0.40284 0.26843 0.69795 0.0
H227 H 0.3144 0.24477 0.65 0.0
H228 H 0.40724 0.09307 0.79104 0.0
H229 H 0.46515 0.18702 0.65231 0.0
H230 H 0.38455 0.10994 0.65584 0.0
C231 C 0.04364 0.08639 0.93998 0.0
C232 C 0.01877 0.08271 0.91984 0.0
N233 N 0.99753 0.11026 0.92115 0.0
N234 N 0.03822 0.11599 0.95415 0.0
C235 C 1.00984 0.13005 0.94238 0.0
H236 H 0.06519 0.06915 0.94354 0.0
Co237 Co 0.06862 0.12857 0.98189 0.0
C238 C 0.05313 0.20049 7e-05 0.0
O239 O 0.08676 0.20465 0.00157 0.0
N240 N 0.10058 0.13877 0.01055 0.0
C241 C 0.14732 0.14998 0.03631 0.0
C242 C 0.135 0.14487 0.00953 0.0
C243 C 0.09284 0.13989 0.03824 0.0
N244 N 0.12073 0.14665 0.05429 0.0
O245 O 0.04281 0.09948 0.00659 0.0
H246 H 0.15062 0.14565 -0.0092 0.0
H247 H 0.06705 0.13619 0.04651 0.0
O248 O 0.04086 0.17074 -0.00725 0.0
C249 C 0.05407 0.06848 0.00576 0.0
O250 O 0.08674 0.06379 -0.00079 0.0
N251 N 0.09333 0.15352 0.95466 0.0
C252 C 0.11972 0.17413 0.90277 0.0
C253 C 0.09259 0.19226 0.91536 0.0
C254 C 0.07915 0.18101 0.94074 0.0
C255 C 0.12008 0.13571 0.94283 0.0
C256 C 0.13416 0.14595 0.91706 0.0
H257 H 0.05531 0.19272 0.94733 0.0
H258 H 0.12903 0.11207 0.95255 0.0
H259 H 0.99929 0.15478 0.94858 0.0
H260 H 0.01796 0.06246 0.90417 0.0
H261 H 0.1739 0.15495 0.04216 0.0
H262 H 0.08058 0.21413 0.90501 0.0
H263 H 0.15473 0.13085 0.90772 0.0
C264 C 0.84963 0.83764 0.67284 0.0
C265 C 0.8394 0.81346 0.65364 0.0
N266 N 0.85374 0.78293 0.66065 0.0
N267 N 0.87081 0.82279 0.69176 0.0
C268 C 0.87284 0.78933 0.68393 0.0
H269 H 0.84114 0.86423 0.67357 0.0
Co270 Co 0.88306 0.84622 0.72395 0.0
C271 C 0.95341 0.82344 0.7414 0.0
O272 O 0.95914 0.85597 0.74774 0.0
N273 N 0.89297 0.87114 0.75717 0.0
C274 C 0.90551 0.91197 0.78855 0.0
C275 C 0.90094 0.90496 0.76057 0.0
C276 C 0.89236 0.85841 0.7837 0.0
N277 N 0.90009 0.8827 0.80309 0.0
O278 O 0.85189 0.81663 0.7437 0.0
H279 H 0.90359 0.92389 0.74417 0.0
H280 H 0.88686 0.83168 0.7887 0.0
O281 O 0.92344 0.81454 0.73183 0.0
C282 C 0.82079 0.82689 0.74041 0.0
O283 O 0.81577 0.8593 0.73317 0.0
N284 N 0.91059 0.87537 0.7015 0.0
C285 C 0.93774 0.91267 0.65674 0.0
C286 C 0.95275 0.88155 0.66498 0.0
C287 C 0.93808 0.8627 0.68666 0.0
C288 C 0.89542 0.90569 0.6934 0.0
C289 C 0.90878 0.92504 0.67105 0.0
H290 H 0.94709 0.8366 0.6893 0.0
H291 H 0.87148 0.91375 0.70317 0.0
H292 H 0.88691 0.76993 0.69564 0.0
H293 H 0.82299 0.81824 0.63565 0.0
H294 H 0.91172 0.93691 0.79754 0.0
H295 H 0.97408 0.87052 0.65322 0.0
H296 H 0.89583 0.94842 0.66428 0.0
C297 C 0.96312 0.08551 0.43162 0.0
C298 C 0.9887 0.08319 0.41189 0.0
N299 N 0.01096 0.10951 0.41596 0.0
N300 N 0.96911 0.11307 0.44816 0.0
C301 C 0.99853 0.12722 0.43829 0.0
H302 H 0.94093 0.06865 0.43349 0.0
Co303 Co 0.93902 0.12321 0.47669 0.0
C304 C 0.95554 0.19298 0.4993 0.0
O305 O 0.92193 0.19705 0.50122 0.0
N306 N 0.90758 0.13091 0.50612 0.0
C307 C 0.86195 0.14011 0.53363 0.0
C308 C 0.87308 0.1365 0.5063 0.0
C309 C 0.91655 0.13061 0.53355 0.0
N310 N 0.88942 0.13623 0.55066 0.0
O311 O 0.96406 0.09076 0.4991 0.0
H312 H 0.85673 0.1381 0.48801 0.0
H313 H 0.94282 0.12713 0.54084 0.0
O314 O 0.96763 0.16381 0.49033 0.0
C315 C 0.95118 0.06047 0.49673 0.0
O316 O 0.9184 0.05788 0.48978 0.0
N317 N 0.91484 0.15158 0.45138 0.0
C318 C 0.89081 0.17672 0.40004 0.0
C319 C 0.91796 0.19311 0.41405 0.0
C320 C 0.93024 0.17961 0.43906 0.0
C321 C 0.88757 0.13584 0.43842 0.0
C322 C 0.87473 0.14831 0.41285 0.0
H323 H 0.95443 0.18986 0.44638 0.0
H324 H 0.8776 0.11178 0.44672 0.0
H325 H 1.01002 0.15045 0.44683 0.0
H326 H 0.98959 0.06474 0.39482 0.0
H327 H 0.83567 0.14474 0.54046 0.0
H328 H 0.93114 0.21513 0.40491 0.0
H329 H 0.85402 0.13456 0.4024 0.0
C330 C 0.68731 0.22299 0.18527 0.0
C331 C 0.69176 0.24855 0.16578 0.0
N332 N 0.66596 0.27167 0.16878 0.0
N333 N 0.65893 0.2298 0.20062 0.0
C334 C 0.64646 0.25972 0.19033 0.0
H335 H 0.70325 0.20023 0.18774 0.0
Co336 Co 0.64585 0.19983 0.22844 0.0
C337 C 0.57408 0.21646 0.24623 0.0
O338 O 0.56925 0.18288 0.24725 0.0
N339 N 0.63507 0.16837 0.25722 0.0
C340 C 0.62353 0.12234 0.28373 0.0
C341 C 0.62881 0.13395 0.25675 0.0
C342 C 0.63378 0.17682 0.28473 0.0
N343 N 0.62688 0.14939 0.30123 0.0
O344 O 0.67518 0.22532 0.25296 0.0
H345 H 0.62811 0.11784 0.23831 0.0
H346 H 0.6375 0.20282 0.29255 0.0
O347 O 0.60412 0.2283 0.23922 0.0
C348 C 0.70613 0.21407 0.25158 0.0
O349 O 0.7106 0.1812 0.24561 0.0
N350 N 0.62061 0.17538 0.20139 0.0
C351 C 0.59939 0.1487 0.14988 0.0
C352 C 0.58239 0.17695 0.16184 0.0
C353 C 0.59395 0.19047 0.18707 0.0
C354 C 0.6375 0.14774 0.19003 0.0
C355 C 0.62684 0.13343 0.16449 0.0
H356 H 0.58322 0.21494 0.19329 0.0
H357 H 0.66075 0.13814 0.19995 0.0
H358 H 0.62304 0.2718 0.19792 0.0
H359 H 0.71124 0.24873 0.14946 0.0
H360 H 0.61848 0.09593 0.29003 0.0
H361 H 0.56117 0.18963 0.15115 0.0
H362 H 0.64105 0.11195 0.15557 0.0
C363 C 0.5481 0.93655 0.94034 0.0
C364 C 0.5234 0.94021 0.92006 0.0
N365 N 0.50262 0.91226 0.92083 0.0
N366 N 0.54302 0.90661 0.95413 0.0
C367 C 0.51504 0.89226 0.94192 0.0
H368 H 0.56936 0.95406 0.94423 0.0
Co369 Co 0.57377 0.89381 0.98163 0.0
C370 C 0.55875 0.82166 -0.00057 0.0
O371 O 0.5924 0.81755 0.00073 0.0
N372 N 0.6061 0.88338 0.00996 0.0
C373 C 0.65331 0.87197 0.03506 0.0
C374 C 0.64052 0.87748 0.00848 0.0
C375 C 0.59884 0.88177 0.03772 0.0
N376 N 0.62702 0.87485 0.05338 0.0
O377 O 0.54803 0.92216 0.0068 0.0
H378 H 0.65579 0.8771 -0.01045 0.0
H379 H 0.57317 0.8852 0.04632 0.0
O380 O 0.54637 0.85138 -0.00777 0.0
C381 C 0.55912 0.95323 0.00633 0.0
O382 O 0.592 0.95814 0.0006 0.0
N383 N 0.59842 0.86966 0.95404 0.0
C384 C 0.62371 0.85146 0.90126 0.0
C385 C 0.59774 0.83193 0.91414 0.0
C386 C 0.58476 0.842 0.94 0.0
C387 C 0.62429 0.88859 0.94206 0.0
C388 C 0.63775 0.87965 0.91579 0.0
H389 H 0.56155 0.8293 0.94687 0.0
H390 H 0.63283 0.91221 0.95205 0.0
H391 H 0.50492 0.86717 0.94767 0.0
H392 H 0.52244 0.96076 0.90465 0.0
H393 H 0.68001 0.86702 0.04055 0.0
H394 H 0.58615 0.80993 0.90368 0.0
H395 H 0.65745 0.89578 0.9063 0.0
C396 C 0.83985 0.22239 0.78586 0.0
C397 C 0.83678 0.24788 0.80557 0.0
N398 N 0.86381 0.26959 0.80277 0.0
N399 N 0.86854 0.22788 0.77052 0.0
C400 C 0.8827 0.2569 0.78115 0.0
H401 H 0.82274 0.20051 0.78329 0.0
Co402 Co 0.87995 0.19721 0.74264 0.0
C403 C 0.95071 0.21341 0.72187 0.0
O404 O 0.95505 0.17987 0.71961 0.0
N405 N 0.8889 0.16495 0.71392 0.0
C406 C 0.89836 0.11778 0.68822 0.0
C407 C 0.8955 0.13063 0.71506 0.0
C408 C 0.88759 0.17211 0.68613 0.0
N409 N 0.89313 0.14394 0.67011 0.0
O410 O 0.84958 0.22247 0.71874 0.0
H411 H 0.89797 0.11544 0.73394 0.0
H412 H 0.88284 0.19766 0.67773 0.0
O413 O 0.92125 0.22521 0.73032 0.0
C414 C 0.81875 0.21092 0.72059 0.0
O415 O 0.81459 0.17837 0.72777 0.0
N416 N 0.90633 0.17303 0.76919 0.0
C417 C 0.92833 0.14871 0.82131 0.0
C418 C 0.94633 0.17509 0.80757 0.0
C419 C 0.9344 0.18753 0.78208 0.0
C420 C 0.88892 0.14666 0.78198 0.0
C421 C 0.89981 0.13365 0.80793 0.0
H422 H 0.94598 0.2111 0.77471 0.0
H423 H 0.86498 0.13738 0.77298 0.0
H424 H 0.9068 0.2678 0.77375 0.0
H425 H 0.81729 0.24896 0.82186 0.0
H426 H 0.90299 0.09111 0.68247 0.0
H427 H 0.9685 0.18747 0.81718 0.0
H428 H 0.88487 0.11357 0.81814 0.0
C429 C 0.54536 0.08418 0.53505 0.0
C430 C 0.51995 0.07986 0.55468 0.0
N431 N 0.49754 0.1064 0.55242 0.0
N432 N 0.53916 0.1132 0.52032 0.0
C433 C 0.50974 0.12619 0.53113 0.0
H434 H 0.56771 0.06778 0.53216 0.0
Co435 Co 0.56951 0.12659 0.49283 0.0
C436 C 0.55316 0.19858 0.47542 0.0
O437 O 0.58675 0.20333 0.47454 0.0
N438 N 0.60136 0.13769 0.46439 0.0
C439 C 0.64779 0.14929 0.43836 0.0
C440 C 0.63575 0.14406 0.46522 0.0
C441 C 0.59336 0.13894 0.43679 0.0
N442 N 0.62104 0.14582 0.42057 0.0
O443 O 0.54435 0.09752 0.46788 0.0
H444 H 0.65156 0.14478 0.48383 0.0
H445 H 0.56752 0.13508 0.42867 0.0
O446 O 0.54121 0.16849 0.48218 0.0
C447 C 0.55614 0.06674 0.46879 0.0
O448 O 0.5889 0.06264 0.47532 0.0
N449 N 0.59368 0.15144 0.52024 0.0
C450 C 0.62021 0.17199 0.57198 0.0
C451 C 0.59221 0.18937 0.55997 0.0
C452 C 0.57876 0.17815 0.53462 0.0
C453 C 0.62105 0.13417 0.53165 0.0
C454 C 0.63527 0.14447 0.55731 0.0
H455 H 0.55448 0.18921 0.52829 0.0
H456 H 0.63053 0.11094 0.52162 0.0
H457 H 0.4983 0.1502 0.52416 0.0
H458 H 0.5195 0.05994 0.57064 0.0
H459 H 0.67431 0.15428 0.43232 0.0
H460 H 0.5797 0.21067 0.57069 0.0
H461 H 0.65654 0.12997 0.56625 0.0
C462 C 0.69197 0.78673 0.28769 0.0
C463 C 0.69393 0.76103 0.30734 0.0
N464 N 0.66636 0.74009 0.30413 0.0
N465 N 0.66344 0.78211 0.27199 0.0
C466 C 0.64836 0.75336 0.28226 0.0
H467 H 0.70957 0.80829 0.28555 0.0
Co468 Co 0.65248 0.81349 0.24454 0.0
C469 C 0.58159 0.79851 0.22366 0.0
O470 O 0.57743 0.83218 0.22282 0.0
N471 N 0.64381 0.84629 0.21619 0.0
C472 C 0.63347 0.89352 0.19077 0.0
C473 C 0.63828 0.88079 0.21747 0.0
C474 C 0.64283 0.83894 0.18843 0.0
N475 N 0.63645 0.8671 0.17258 0.0
O476 O 0.68309 0.78868 0.22042 0.0
H477 H 0.63754 0.89616 0.23632 0.0
H478 H 0.64599 0.81316 0.18 0.0
O479 O 0.61102 0.78603 0.23153 0.0
C480 C 0.71391 0.80016 0.22268 0.0
O481 O 0.71797 0.83257 0.23028 0.0
N482 N 0.62587 0.83721 0.27133 0.0
C483 C 0.60121 0.8628 0.3223 0.0
C484 C 0.58456 0.83534 0.30886 0.0
C485 C 0.59779 0.82233 0.28398 0.0
C486 C 0.6425 0.86401 0.28418 0.0
C487 C 0.6302 0.87774 0.30947 0.0
H488 H 0.58693 0.79839 0.27669 0.0
H489 H 0.66667 0.8734 0.27565 0.0
H490 H 0.62408 0.74326 0.27457 0.0
H491 H 0.7129 0.75948 0.32399 0.0
H492 H 0.62869 0.9202 0.18513 0.0
H493 H 0.5622 0.82289 0.31811 0.0
H494 H 0.64423 0.89854 0.31955 0.0
C495 C 0.96747 0.93178 0.04359 0.0
C496 C 0.99314 0.93672 0.06291 0.0
N497 N 0.01855 0.91375 0.05775 0.0
N498 N 0.97641 0.90581 0.02628 0.0
C499 C 1.00776 0.89535 0.03518 0.0
H500 H 0.94335 0.94582 0.04244 0.0
Co501 Co 0.94743 0.89358 -0.00256 0.0
C502 C 0.96616 0.82364 0.97722 0.0
O503 O 0.93269 0.81827 0.97586 0.0
N504 N 0.91705 0.88372 0.96757 0.0
C505 C 0.87252 0.87263 0.9393 0.0
C506 C 0.88272 0.87719 0.96678 0.0
C507 C 0.92686 0.88335 0.94031 0.0
N508 N 0.90039 0.87667 0.92271 0.0
O509 O 0.97245 0.92549 0.97462 0.0
H510 H 0.86576 0.8759 0.98471 0.0
H511 H 0.9532 0.8876 0.93349 0.0
O512 O 0.9774 0.85354 0.98523 0.0
C513 C 0.96085 0.95615 0.97764 0.0
O514 O 0.92848 0.95983 0.98548 0.0
N515 N 0.92346 0.8654 0.02313 0.0
C516 C 0.89907 0.84044 0.07444 0.0
C517 C 0.92809 0.8258 0.06173 0.0
C518 C 0.94041 0.83921 0.03671 0.0
C519 C 0.89463 0.87963 0.03498 0.0
C520 C 0.88152 0.86707 0.06048 0.0
H521 H 0.96562 0.8306 0.03031 0.0
H522 H 0.88339 0.90264 0.02587 0.0
H523 H 0.02194 0.87433 0.02564 0.0
H524 H 0.99213 0.95459 0.08037 0.0
H525 H 0.84644 0.86778 0.93206 0.0
H526 H 0.94248 0.80523 0.07184 0.0
H527 H 0.8593 0.87945 0.06997 0.0
C528 C 0.6933 0.74384 0.78104 0.0
C529 C 0.6958 0.76911 0.80099 0.0
N530 N 0.66688 0.7885 0.80001 0.0
N531 N 0.66312 0.7472 0.7673 0.0
C532 C 0.64756 0.77478 0.77906 0.0
H533 H 0.71165 0.72322 0.77756 0.0
Co534 Co 0.65105 0.71508 0.74069 0.0
C535 C 0.57862 0.72802 0.72249 0.0
O536 O 0.5751 0.69426 0.72234 0.0
N537 N 0.6413 0.68149 0.71319 0.0
C538 C 0.63052 0.63337 0.68905 0.0
C539 C 0.63623 0.64697 0.71532 0.0
C540 C 0.63907 0.68798 0.68534 0.0
N541 N 0.63247 0.65924 0.67027 0.0
O542 O 0.67935 0.74024 0.71491 0.0
H543 H 0.63649 0.63213 0.73447 0.0
H544 H 0.6417 0.7135 0.67627 0.0
O545 O 0.60817 0.7413 0.72915 0.0
C546 C 0.71062 0.72972 0.71559 0.0
O547 O 0.71623 0.6975 0.72309 0.0
N548 N 0.62686 0.69116 0.76887 0.0
C549 C 0.60519 0.66437 0.82036 0.0
C550 C 0.58716 0.69143 0.80755 0.0
C551 C 0.59891 0.70505 0.78236 0.0
C552 C 0.64506 0.66506 0.78125 0.0
C553 C 0.63426 0.65071 0.80676 0.0
H554 H 0.58682 0.72852 0.77532 0.0
H555 H 0.66908 0.65648 0.77193 0.0
H556 H 0.62199 0.7835 0.77325 0.0
H557 H 0.71616 0.77114 0.81647 0.0
H558 H 0.62601 0.60643 0.68408 0.0
H559 H 0.56468 0.70294 0.81739 0.0
H560 H 0.64938 0.63031 0.81633 0.0
C561 C 0.55193 0.43207 0.03558 0.0
C562 C 0.52674 0.43642 0.0554 0.0
N563 N 0.50402 0.41014 0.05307 0.0
N564 N 0.54529 0.40329 0.02068 0.0
C565 C 0.51583 0.39046 0.03159 0.0
H566 H 0.5744 0.44832 0.03265 0.0
Co567 Co 0.57517 0.39002 -0.00721 0.0
C568 C 0.5578 0.31845 0.97489 0.0
O569 O 0.59132 0.31343 0.97349 0.0
N570 N 0.60653 0.37904 0.96398 0.0
C571 C 0.65252 0.36744 0.93745 0.0
C572 C 0.64087 0.37242 0.96446 0.0
C573 C 0.59816 0.37822 0.93643 0.0
N574 N 0.62557 0.37135 0.91992 0.0
O575 O 0.55002 0.41967 0.96831 0.0
H576 H 0.65689 0.37134 0.98294 0.0
H577 H 0.57225 0.38237 0.92858 0.0
O578 O 0.54629 0.34854 0.98206 0.0
C579 C 0.56224 0.45029 0.96935 0.0
O580 O 0.59498 0.45397 0.97608 0.0
N581 N 0.59944 0.36458 0.01979 0.0
C582 C 0.62548 0.344 0.07168 0.0
C583 C 0.59761 0.32659 0.0595 0.0
C584 C 0.58439 0.33782 0.03407 0.0
C585 C 0.62693 0.38164 0.03123 0.0
C586 C 0.64087 0.37135 0.057 0.0
H587 H 0.56008 0.32687 0.02772 0.0
H588 H 0.63656 0.40485 0.02124 0.0
H589 H 0.50401 0.36668 0.0245 0.0
H590 H 0.52658 0.4562 0.07146 0.0
H591 H 0.67891 0.36231 0.93115 0.0
H592 H 0.58489 0.30538 0.07022 0.0
H593 H 0.6621 0.38582 0.06605 0.0
C594 C 0.83302 0.29716 0.28255 0.0
C595 C 0.82857 0.27228 0.3026 0.0
N596 N 0.85555 0.25032 0.3013 0.0
N597 N 0.86252 0.29104 0.26842 0.0
C598 C 0.87581 0.26227 0.28019 0.0
H599 H 0.81629 0.31909 0.27892 0.0
Co600 Co 0.87557 0.32133 0.24065 0.0
C601 C 0.94752 0.30561 0.22282 0.0
O602 O 0.95185 0.33923 0.22136 0.0
N603 N 0.88617 0.35322 0.21206 0.0
C604 C 0.89749 0.40005 0.18641 0.0
C605 C 0.89226 0.38764 0.21317 0.0
C606 C 0.88744 0.34557 0.18437 0.0
N607 N 0.89424 0.37351 0.16838 0.0
O608 O 0.84696 0.29553 0.21577 0.0
H609 H 0.89288 0.40315 0.23196 0.0
H610 H 0.88375 0.3198 0.17605 0.0
O611 O 0.91773 0.29346 0.23015 0.0
C612 C 0.81591 0.30662 0.21641 0.0
O613 O 0.81109 0.33957 0.22188 0.0
N614 N 0.90006 0.34604 0.268 0.0
C615 C 0.91776 0.37048 0.32115 0.0
C616 C 0.93728 0.34459 0.3082 0.0
C617 C 0.92743 0.33202 0.28217 0.0
C618 C 0.88138 0.37212 0.27992 0.0
C619 C 0.89005 0.38511 0.30641 0.0
H620 H 0.9399 0.30868 0.27534 0.0
H621 H 0.85796 0.38099 0.2698 0.0
H622 H 0.90027 0.25108 0.27399 0.0
H623 H 0.80814 0.27184 0.31812 0.0
H624 H 0.90244 0.42666 0.18062 0.0
H625 H 0.95897 0.3326 0.3188 0.0
H626 H 0.87396 0.4048 0.31591 0.0
C627 C 0.94226 0.60182 0.55704 0.0
C628 C 0.96883 0.59762 0.5757 0.0
N629 N 0.99657 0.61489 0.56585 0.0
N630 N 0.95298 0.62194 0.53567 0.0
C631 C 0.98622 0.62947 0.54143 0.0
H632 H 0.91678 0.59049 0.55864 0.0
Co633 Co 0.92587 0.62847 0.50456 0.0
C634 C 0.94199 0.69669 0.47924 0.0
O635 O 0.90855 0.6988 0.47492 0.0
N636 N 0.8977 0.63233 0.4724 0.0
C637 C 0.85534 0.63847 0.44112 0.0
C638 C 0.86316 0.63602 0.46928 0.0
C639 C 0.91002 0.63167 0.44579 0.0
N640 N 0.88492 0.63575 0.42642 0.0
O641 O 0.95443 0.59528 0.4859 0.0
H642 H 0.84453 0.63743 0.48606 0.0
H643 H 0.93722 0.62962 0.44075 0.0
O644 O 0.9546 0.66921 0.49084 0.0
C645 C 0.94377 0.56476 0.49144 0.0
O646 O 0.91221 0.56115 0.50123 0.0
N647 N 0.89806 0.65829 0.52639 0.0
C648 C 0.86923 0.68802 0.57426 0.0
C649 C 0.89844 0.70239 0.56177 0.0
C650 C 0.91296 0.6867 0.53854 0.0
C651 C 0.86876 0.64445 0.53793 0.0
C652 C 0.85345 0.65933 0.56178 0.0
H653 H 0.93843 0.69536 0.53295 0.0
H654 H 0.8591 0.61993 0.53036 0.0
H655 H 1.00259 0.64473 0.52778 0.0
H656 H 0.96745 0.5837 0.59539 0.0
H657 H 0.82985 0.64188 0.43216 0.0
H658 H 0.91163 0.7242 0.57126 0.0
H659 H 0.83117 0.64722 0.57143 0.0
C660 C 0.68619 0.29372 0.68376 0.0
C661 C 0.68982 0.26802 0.66429 0.0
N662 N 0.66377 0.24525 0.66779 0.0
N663 N 0.65808 0.28735 0.69957 0.0
C664 C 0.64497 0.25753 0.6896 0.0
H665 H 0.70247 0.3163 0.68587 0.0
Co666 Co 0.64586 0.31752 0.72748 0.0
C667 C 0.57457 0.30093 0.7466 0.0
O668 O 0.56987 0.33451 0.74792 0.0
N669 N 0.63595 0.34913 0.75634 0.0
C670 C 0.62536 0.39525 0.78297 0.0
C671 C 0.62984 0.38357 0.75592 0.0
C672 C 0.63538 0.34074 0.78389 0.0
N673 N 0.62906 0.36822 0.80046 0.0
O674 O 0.67593 0.2922 0.75154 0.0
H675 H 0.62873 0.39964 0.73746 0.0
H676 H 0.63917 0.31474 0.7917 0.0
O677 O 0.60441 0.2891 0.7391 0.0
C678 C 0.70675 0.30375 0.74968 0.0
O679 O 0.71089 0.33631 0.74252 0.0
N680 N 0.61981 0.34182 0.7008 0.0
C681 C 0.59692 0.36832 0.64967 0.0
C682 C 0.58035 0.34007 0.66205 0.0
C683 C 0.59272 0.32665 0.68707 0.0
C684 C 0.6363 0.36947 0.68902 0.0
C685 C 0.62481 0.38368 0.66366 0.0
H686 H 0.58221 0.30218 0.69355 0.0
H687 H 0.65984 0.37915 0.69841 0.0
H688 H 0.62159 0.24577 0.69761 0.0
H689 H 0.70888 0.26751 0.64766 0.0
H690 H 0.62059 0.42169 0.78931 0.0
H691 H 0.55881 0.3273 0.65184 0.0
H692 H 0.63871 0.40516 0.65439 0.0
C693 C 0.97951 0.43547 0.93328 0.0
C694 C 1.00543 0.43796 0.91386 0.0
N695 N 0.02708 0.41104 0.91751 0.0
N696 N 0.98468 0.40724 0.94924 0.0
C697 C 0.01397 0.39287 0.93937 0.0
H698 H 0.95753 0.45256 0.93519 0.0
Co699 Co 0.95351 0.39613 0.97679 0.0
C700 C 0.96875 0.32533 -0.00228 0.0
O701 O 0.93508 0.32113 -0.0014 0.0
N702 N 0.92089 0.38736 0.00524 0.0
C703 C 0.8739 0.37718 0.03098 0.0
C704 C 0.88642 0.38164 0.00416 0.0
C705 C 0.92844 0.38679 0.03296 0.0
N706 N 0.90043 0.38058 0.049 0.0
O707 O 0.97825 0.42696 0.00074 0.0
H708 H 0.87094 0.38059 0.98537 0.0
H709 H 0.95426 0.39023 0.04124 0.0
O710 O 0.98119 0.3548 -0.01019 0.0
C711 C 0.96654 0.45769 -0.00155 0.0
O712 O 0.934 0.46146 -0.00888 0.0
N713 N 0.92984 0.36934 0.95012 0.0
C714 C 0.90506 0.34523 0.89872 0.0
C715 C 0.93238 0.32853 0.91228 0.0
C716 C 0.94501 0.34151 0.93738 0.0
C717 C 0.90298 0.38586 0.93726 0.0
C718 C 0.88968 0.37384 0.91174 0.0
H719 H 0.96899 0.33079 0.9447 0.0
H720 H 0.89334 0.40986 0.9459 0.0
H721 H 0.02468 0.36902 0.9474 0.0
H722 H 1.00676 0.45686 0.89713 0.0
H723 H 0.84726 0.37242 0.03679 0.0
H724 H 0.94512 0.30641 0.90294 0.0
H725 H 0.86895 0.38789 0.90159 0.0
C726 C 0.8488 0.71114 0.18676 0.0
C727 C 0.84302 0.73578 0.16676 0.0
N728 N 0.86644 0.76122 0.17019 0.0
N729 N 0.8757 0.72075 0.20288 0.0
C730 C 0.88604 0.75146 0.19241 0.0
H731 H 0.83458 0.68726 0.18928 0.0
Co732 Co 0.8882 0.69281 0.23236 0.0
C733 C 0.95808 0.71335 0.2525 0.0
O734 O 0.96343 0.68031 0.25697 0.0
N735 N 0.89809 0.66297 0.26281 0.0
C736 C 0.90965 0.61774 0.29028 0.0
C737 C 0.90756 0.62929 0.263 0.0
C738 C 0.89434 0.67101 0.29033 0.0
N739 N 0.90108 0.64399 0.30742 0.0
O740 O 0.85661 0.71876 0.25478 0.0
H741 H 0.91259 0.61363 0.24474 0.0
H742 H 0.88675 0.6963 0.2978 0.0
O743 O 0.92826 0.72337 0.24339 0.0
C744 C 0.82582 0.70723 0.25239 0.0
O745 O 0.82183 0.67453 0.24564 0.0
N746 N 0.91606 0.66792 0.20703 0.0
C747 C 0.93933 0.64274 0.15547 0.0
C748 C 0.95572 0.67071 0.16836 0.0
C749 C 0.94312 0.68353 0.1935 0.0
C750 C 0.90051 0.63973 0.19525 0.0
C751 C 0.91208 0.62632 0.16958 0.0
H752 H 0.95301 0.70827 0.19981 0.0
H753 H 0.87728 0.62931 0.20467 0.0
H754 H 0.90768 0.76599 0.20064 0.0
H755 H 0.82416 0.73408 0.15004 0.0
H756 H 0.91591 0.59173 0.29694 0.0
H757 H 0.97686 0.68417 0.15817 0.0
H758 H 0.89842 0.60488 0.16004 0.0
C759 C 0.54169 0.58237 0.43949 0.0
C760 C 0.51676 0.57911 0.41933 0.0
N761 N 0.49627 0.60725 0.42034 0.0
N762 N 0.53701 0.61226 0.45341 0.0
C763 C 0.50902 0.62689 0.4415 0.0
H764 H 0.56291 0.56474 0.4431 0.0
Co765 Co 0.56824 0.62525 0.48046 0.0
C766 C 0.55332 0.69749 0.498 0.0
O767 O 0.58698 0.70183 0.49844 0.0
N768 N 0.60099 0.63602 0.50839 0.0
C769 C 0.64834 0.64828 0.53306 0.0
C770 C 0.63542 0.64185 0.50667 0.0
C771 C 0.59387 0.63854 0.53612 0.0
N772 N 0.62213 0.64606 0.55151 0.0
O773 O 0.54317 0.59675 0.50601 0.0
H774 H 0.65064 0.64166 0.48772 0.0
H775 H 0.56822 0.63551 0.54486 0.0
O776 O 0.54085 0.6676 0.49132 0.0
C777 C 0.5546 0.56581 0.50544 0.0
O778 O 0.5874 0.56128 0.49927 0.0
N779 N 0.59228 0.64951 0.45254 0.0
C780 C 0.61879 0.66964 0.40061 0.0
C781 C 0.59168 0.68796 0.41307 0.0
C782 C 0.57818 0.67695 0.43851 0.0
C783 C 0.61867 0.63125 0.44064 0.0
C784 C 0.63284 0.64127 0.41488 0.0
H785 H 0.55455 0.68898 0.44525 0.0
H786 H 0.62744 0.60761 0.45047 0.0
H787 H 0.49927 0.65205 0.4474 0.0
H788 H 0.5156 0.55878 0.40376 0.0
H789 H 0.67505 0.65353 0.53834 0.0
H790 H 0.57993 0.70996 0.40271 0.0
H791 H 0.65334 0.62599 0.40562 0.0
C792 C 0.33976 0.29847 0.18461 0.0
C793 C 0.33572 0.27298 0.16501 0.0
N794 N 0.36148 0.24988 0.16829 0.0
N795 N 0.36784 0.29163 0.20031 0.0
C796 C 0.38056 0.26176 0.1901 0.0
H797 H 0.32377 0.32122 0.18688 0.0
Co798 Co 0.38038 0.32156 0.22835 0.0
C799 C 0.45123 0.30383 0.24784 0.0
O800 O 0.45626 0.33733 0.2496 0.0
N801 N 0.39056 0.353 0.25733 0.0
C802 C 0.40176 0.39905 0.28389 0.0
C803 C 0.39731 0.38732 0.25685 0.0
C804 C 0.39069 0.34473 0.28492 0.0
N805 N 0.39738 0.37218 0.30146 0.0
O806 O 0.34962 0.2967 0.25225 0.0
H807 H 0.39889 0.40327 0.23833 0.0
H808 H 0.3863 0.31885 0.29277 0.0
O809 O 0.4213 0.29245 0.24006 0.0
C810 C 0.31906 0.30891 0.25038 0.0
O811 O 0.31563 0.34142 0.24282 0.0
N812 N 0.40706 0.3455 0.2018 0.0
C813 C 0.43011 0.37095 0.15031 0.0
C814 C 0.4466 0.34294 0.16309 0.0
C815 C 0.43412 0.33001 0.18825 0.0
C816 C 0.39088 0.37316 0.18978 0.0
C817 C 0.40241 0.38679 0.1642 0.0
H818 H 0.44441 0.30553 0.19491 0.0
H819 H 0.36742 0.38316 0.19908 0.0
H820 H 0.40381 0.24964 0.19795 0.0
H821 H 0.31655 0.27281 0.14846 0.0
H822 H 0.40693 0.42544 0.29017 0.0
H823 H 0.46802 0.32984 0.15301 0.0
H824 H 0.38858 0.40811 0.15467 0.0
C825 C 0.48646 0.58793 0.93191 0.0
C826 C 0.51199 0.58682 0.91205 0.0
N827 N 0.53234 0.61481 0.91537 0.0
N828 N 0.4906 0.61636 0.94783 0.0
C829 C 0.51888 0.63222 0.93747 0.0
H830 H 0.46535 0.56979 0.93407 0.0
Co831 Co 0.45932 0.62651 0.97565 0.0
C832 C 0.47433 0.69691 -0.00249 0.0
O833 O 0.44067 0.70097 -0.00116 0.0
N834 N 0.42677 0.63442 0.00431 0.0
C835 C 0.37987 0.64365 0.03039 0.0
C836 C 0.39225 0.63986 0.00346 0.0
C837 C 0.43451 0.6345 0.032 0.0
N838 N 0.40656 0.64011 0.04825 0.0
O839 O 0.48431 0.59548 -0.00085 0.0
H840 H 0.37665 0.64116 0.98474 0.0
H841 H 0.46042 0.63117 0.04012 0.0
O842 O 0.48672 0.6677 -0.01096 0.0
C843 C 0.47208 0.56495 -0.00313 0.0
O844 O 0.43964 0.56163 -0.01089 0.0
N845 N 0.43522 0.65347 0.94948 0.0
C846 C 0.40969 0.67764 0.8984 0.0
C847 C 0.43658 0.69492 0.91208 0.0
C848 C 0.44957 0.68195 0.93705 0.0
C849 C 0.40872 0.63646 0.93655 0.0
C850 C 0.39505 0.64847 0.91118 0.0
H851 H 0.47322 0.69328 0.9445 0.0
H852 H 0.3997 0.61211 0.94502 0.0
H853 H 0.52857 0.6566 0.94532 0.0
H854 H 0.51388 0.56805 0.89527 0.0
H855 H 0.35325 0.64807 0.0364 0.0
H856 H 0.4487 0.7175 0.90287 0.0
H857 H 0.37465 0.63403 0.90093 0.0
C858 C 0.19229 0.73035 0.68222 0.0
C859 C 0.19873 0.7522 0.66026 0.0
N860 N 0.17136 0.77337 0.65735 0.0
N861 N 0.1613 0.73785 0.69358 0.0
C862 C 0.14916 0.76444 0.67816 0.0
H863 H 0.20867 0.70926 0.68888 0.0
Co864 Co 0.14449 0.71016 0.72205 0.0
C865 C 0.07293 0.73143 0.73678 0.0
O866 O 0.06642 0.69816 0.73813 0.0
N867 N 0.13019 0.68064 0.75157 0.0
C868 C 0.11434 0.63608 0.77835 0.0
C869 C 0.12124 0.64681 0.75141 0.0
C870 C 0.12878 0.68959 0.77905 0.0
N871 N 0.11926 0.66301 0.79572 0.0
O872 O 0.17372 0.73539 0.74705 0.0
H873 H 0.11984 0.63036 0.73322 0.0
H874 H 0.1346 0.71525 0.78675 0.0
O875 O 0.10384 0.74163 0.7305 0.0
C876 C 0.20432 0.72318 0.74835 0.0
O877 O 0.20847 0.68998 0.74356 0.0
N878 N 0.11907 0.68585 0.69468 0.0
C879 C 0.09365 0.65568 0.64573 0.0
C880 C 0.08027 0.68694 0.65547 0.0
C881 C 0.09372 0.70188 0.67947 0.0
C882 C 0.13346 0.65598 0.68482 0.0
C883 C 0.12037 0.63975 0.66075 0.0
H884 H 0.08493 0.72753 0.68435 0.0
H885 H 0.15586 0.64522 0.69523 0.0
H886 H 0.12366 0.77538 0.68091 0.0
H887 H 0.22118 0.7514 0.64672 0.0
H888 H 0.10737 0.61014 0.78474 0.0
H889 H 0.05979 0.70022 0.64429 0.0
H890 H 0.13171 0.61579 0.65346 0.0
C891 C 0.0229 0.43585 0.44421 0.0
C892 C 0.99778 0.43914 0.42424 0.0
N893 N 0.97853 0.41008 0.42422 0.0
N894 N 0.01963 0.40503 0.45702 0.0
C895 C 0.9922 0.38988 0.44466 0.0
H896 H 0.04348 0.45411 0.44823 0.0
Co897 Co 0.05193 0.39189 0.48316 0.0
C898 C 0.03856 0.31897 0.50012 0.0
O899 O 0.0723 0.31528 0.50016 0.0
N900 N 0.08581 0.38106 0.51022 0.0
C901 C 0.1343 0.36949 0.53363 0.0
C902 C 0.12015 0.37518 0.50755 0.0
C903 C 0.08 0.37917 0.53819 0.0
N904 N 0.10898 0.3722 0.55283 0.0
O905 O 0.02735 0.41975 0.50965 0.0
H906 H 0.13452 0.37498 0.48817 0.0
H907 H 0.05482 0.38256 0.5477 0.0
O908 O 0.02545 0.34879 0.49404 0.0
C909 C 0.0387 0.45077 0.50954 0.0
O910 O 0.07084 0.45585 0.50158 0.0
N911 N 0.07535 0.36845 0.45438 0.0
C912 C 0.10215 0.34816 0.40256 0.0
C913 C 0.0751 0.32974 0.41507 0.0
C914 C 0.06148 0.34081 0.44046 0.0
C915 C 0.10133 0.38709 0.44226 0.0
C916 C 0.11567 0.377 0.41658 0.0
H917 H 0.0381 0.32844 0.4474 0.0
H918 H 0.10995 0.41083 0.45202 0.0
H919 H 0.98365 0.36397 0.44961 0.0
H920 H 0.99583 0.46019 0.40935 0.0
H921 H 0.16129 0.36465 0.53818 0.0
H922 H 0.06368 0.30744 0.40491 0.0
H923 H 0.13605 0.39242 0.40727 0.0
C924 C 0.34313 0.72295 0.28214 0.0
C925 C 0.33914 0.74809 0.30203 0.0
N926 N 0.36635 0.76975 0.30038 0.0
N927 N 0.37256 0.72863 0.2678 0.0
C928 C 0.38625 0.75741 0.27922 0.0
H929 H 0.32614 0.70113 0.2788 0.0
Co930 Co 0.38512 0.69819 0.2401 0.0
C931 C 0.45683 0.71394 0.22151 0.0
O932 O 0.46105 0.68031 0.22 0.0
N933 N 0.39524 0.66619 0.2115 0.0
C934 C 0.40601 0.61942 0.18567 0.0
C935 C 0.40138 0.63178 0.21251 0.0
C936 C 0.39591 0.67389 0.1838 0.0
N937 N 0.40234 0.64598 0.1677 0.0
O938 O 0.35582 0.72373 0.21548 0.0
H939 H 0.40242 0.61622 0.23127 0.0
H940 H 0.39205 0.69966 0.17554 0.0
O941 O 0.42711 0.72612 0.22898 0.0
C942 C 0.3249 0.71224 0.21635 0.0
O943 O 0.32043 0.67947 0.22272 0.0
N944 N 0.41029 0.67372 0.26728 0.0
C945 C 0.43038 0.6485 0.31966 0.0
C946 C 0.44877 0.67522 0.3067 0.0
C947 C 0.43776 0.68812 0.28108 0.0
C948 C 0.39243 0.64715 0.27934 0.0
C949 C 0.40236 0.63369 0.3054 0.0
H950 H 0.44954 0.71184 0.27424 0.0
H951 H 0.36885 0.638 0.26965 0.0
H952 H 0.41076 0.76831 0.27278 0.0
H953 H 0.31891 0.74887 0.31772 0.0
H954 H 0.41084 0.59283 0.17978 0.0
H955 H 0.47057 0.68745 0.31698 0.0
H956 H 0.38709 0.6134 0.31498 0.0
C957 C 0.05407 0.58724 0.03331 0.0
C958 C 0.03086 0.58212 0.05455 0.0
N959 N 1.00771 0.60813 0.05403 0.0
N960 N 0.04575 0.61622 0.01922 0.0
C961 C 0.01726 0.62845 0.03215 0.0
H962 H 0.07644 0.57141 0.02886 0.0
Co963 Co 0.07348 0.63031 -0.01004 0.0
C964 C 0.05473 0.70195 0.97375 0.0
O965 O 0.08814 0.70722 0.97138 0.0
N966 N 0.10268 0.64209 0.95969 0.0
C967 C 0.1468 0.65538 0.93162 0.0
C968 C 0.13707 0.64834 0.95882 0.0
C969 C 0.09237 0.64497 0.93263 0.0
N970 N 0.11862 0.65319 0.91519 0.0
O971 O 0.04667 0.60096 0.96631 0.0
H972 H 0.15442 0.64794 0.9765 0.0
H973 H 0.06587 0.64162 0.92589 0.0
O974 O 0.04368 0.67167 0.98095 0.0
C975 C 0.05812 0.57003 0.96685 0.0
O976 O 0.09119 0.56554 0.97201 0.0
N977 N 0.09942 0.65573 0.01619 0.0
C978 C 0.12839 0.67686 0.06697 0.0
C979 C 0.09927 0.69347 0.05611 0.0
C980 C 0.08466 0.68195 0.0313 0.0
C981 C 0.12805 0.63936 0.02639 0.0
C982 C 0.14349 0.65 0.05154 0.0
H983 H 0.05962 0.69221 0.0262 0.0
H984 H 0.13754 0.61637 0.016 0.0
H985 H 1.00459 0.65227 0.02621 0.0
H986 H 0.03241 0.562 0.0703 0.0
H987 H 0.17277 0.66089 0.92442 0.0
H988 H 0.08668 0.71421 0.06748 0.0
H989 H 0.16567 0.63611 0.05963 0.0
C990 C 0.18848 0.28821 0.7854 0.0
C991 C 0.19136 0.26321 0.80557 0.0
N992 N 0.1636 0.24226 0.80378 0.0
N993 N 0.1592 0.28314 0.77075 0.0
C994 C 0.14458 0.25482 0.78218 0.0
H995 H 0.20597 0.30968 0.78223 0.0
Co996 Co 0.14673 0.31404 0.74328 0.0
C997 C 0.07488 0.29875 0.725 0.0
O998 O 0.07051 0.33241 0.72457 0.0
N999 N 0.13645 0.34634 0.71492 0.0
C1000 C 0.12443 0.39307 0.6894 0.0
C1001 C 0.13105 0.38087 0.716 0.0
C1002 C 0.13361 0.33845 0.68735 0.0
N1003 N 0.12616 0.3663 0.67147 0.0
O1004 O 0.17597 0.28893 0.71839 0.0
H1005 H 0.13155 0.3966 0.73466 0.0
H1006 H 0.13616 0.31249 0.67913 0.0
O1007 O 0.10468 0.28633 0.73195 0.0
C1008 C 0.20677 0.30073 0.71944 0.0
O1009 O 0.2108 0.33358 0.7257 0.0
N1010 N 0.12169 0.33822 0.77064 0.0
C1011 C 0.10038 0.36485 0.82219 0.0
C1012 C 0.08268 0.33732 0.80974 0.0
C1013 C 0.09428 0.32379 0.78451 0.0
C1014 C 0.13932 0.36506 0.78251 0.0
C1015 C 0.12869 0.37931 0.80808 0.0
H1016 H 0.08276 0.29986 0.77785 0.0
H1017 H 0.16303 0.37408 0.77293 0.0
H1018 H 0.11986 0.24462 0.77557 0.0
H1019 H 0.21113 0.26224 0.82162 0.0
H1020 H 0.11926 0.41965 0.68364 0.0
H1021 H 0.06077 0.32526 0.81999 0.0
H1022 H 0.14348 0.40016 0.81736 0.0
C1023 C 0.4714 0.43203 0.53927 0.0
C1024 C 0.49696 0.43584 0.55885 0.0
N1025 N 0.52033 0.41044 0.55501 0.0
N1026 N 0.47848 0.40445 0.52306 0.0
C1027 C 0.50853 0.3918 0.53294 0.0
H1028 H 0.44853 0.4479 0.53728 0.0
Co1029 Co 0.44883 0.39253 0.49466 0.0
C1030 C 0.46627 0.32178 0.47477 0.0
O1031 O 0.43275 0.31695 0.47283 0.0
N1032 N 0.41772 0.38296 0.46534 0.0
C1033 C 0.37199 0.37221 0.43831 0.0
C1034 C 0.38333 0.37661 0.46547 0.0
C1035 C 0.42643 0.38271 0.43784 0.0
N1036 N 0.39919 0.37623 0.42102 0.0
O1037 O 0.47426 0.42335 0.47125 0.0
H1038 H 0.36708 0.37519 0.48382 0.0
H1039 H 0.4525 0.38673 0.43027 0.0
O1040 O 0.47776 0.35154 0.48283 0.0
C1041 C 0.4626 0.45408 0.47355 0.0
O1042 O 0.4299 0.45789 0.48038 0.0
N1043 N 0.42436 0.3657 0.5208 0.0
C1044 C 0.39862 0.34255 0.57215 0.0
C1045 C 0.42657 0.32595 0.55938 0.0
C1046 C 0.43965 0.33847 0.53429 0.0
C1047 C 0.3967 0.38192 0.53277 0.0
C1048 C 0.38291 0.37034 0.55827 0.0
H1049 H 0.46413 0.32813 0.52772 0.0
H1050 H 0.38688 0.40551 0.52354 0.0
H1051 H 0.52092 0.36895 0.52459 0.0
H1052 H 0.49707 0.4546 0.5757 0.0
H1053 H 0.34567 0.3672 0.43176 0.0
H1054 H 0.43955 0.30445 0.56946 0.0
H1055 H 0.36163 0.38423 0.56781 0.0
C1056 C 0.14493 0.17153 0.09775 0.0
C1057 C 0.12206 0.1486 0.08443 0.0
H1058 H 0.16452 0.19084 0.1368 0.0
C1059 C 0.10086 0.12721 0.10094 0.0
H1060 H 0.16137 0.18844 0.08548 0.0
C1061 C 0.10284 0.12839 0.13022 0.0
C1062 C 0.12567 0.15137 0.14354 0.0
H1063 H 0.08323 0.10909 0.09118 0.0
H1064 H 0.0863 0.11158 0.14248 0.0
C1065 C 0.14653 0.1731 0.12704 0.0
C1066 C 0.09624 0.82455 0.36766 0.0
C1067 C 0.10053 0.85225 0.38639 0.0
H1068 H 0.10079 0.80637 0.32555 0.0
C1069 C 0.11402 0.88359 0.37623 0.0
H1070 H 0.08529 0.8003 0.37471 0.0
C1071 C 0.12322 0.88706 0.34796 0.0
C1072 C 0.11898 0.85929 0.32921 0.0
H1073 H 0.11797 0.90527 0.39024 0.0
H1074 H 0.13406 0.91134 0.3409 0.0
C1075 C 0.10523 0.82805 0.33942 0.0
C1076 C 0.37488 0.85566 0.62398 0.0
C1077 C 0.39626 0.87789 0.63956 0.0
H1078 H 0.35903 0.83866 0.58312 0.0
C1079 C 0.41859 0.90047 0.62526 0.0
H1080 H 0.3572 0.83824 0.6345 0.0
C1081 C 0.41981 0.90053 0.59592 0.0
C1082 C 0.39831 0.8784 0.58035 0.0
H1083 H 0.43547 0.91769 0.63679 0.0
H1084 H 0.43722 0.91821 0.5854 0.0
C1085 C 0.3757 0.8561 0.59464 0.0
C1086 C 0.42241 0.12325 0.84637 0.0
C1087 C 0.39982 0.14587 0.83243 0.0
H1088 H 0.44095 0.1045 0.88591 0.0
C1089 C 0.37832 0.16761 0.84835 0.0
H1090 H 0.4394 0.10641 0.83457 0.0
C1091 C 0.37908 0.16641 0.87766 0.0
C1092 C 0.40169 0.1438 0.89159 0.0
H1093 H 0.36042 0.18505 0.83813 0.0
H1094 H 0.36218 0.18334 0.88945 0.0
C1095 C 0.42351 0.12239 0.87568 0.0
C1096 C 0.87841 0.85594 0.87684 0.0
C1097 C 0.9014 0.87652 0.89245 0.0
H1098 H 0.86025 0.84147 0.83587 0.0
C1099 C 0.92497 0.89775 0.87807 0.0
H1100 H 0.8602 0.83909 0.88737 0.0
C1101 C 0.92495 0.89911 0.84879 0.0
C1102 C 0.90158 0.87907 0.83316 0.0
H1103 H 0.94279 0.91414 0.88945 0.0
H1104 H 0.94313 0.91607 0.83833 0.0
C1105 C 0.87866 0.85702 0.84742 0.0
C1106 C 0.86931 0.1629 0.62455 0.0
C1107 C 0.89217 0.14199 0.63995 0.0
H1108 H 0.85035 0.1772 0.58387 0.0
C1109 C 0.91384 0.11893 0.62553 0.0
H1110 H 0.85206 0.18061 0.63518 0.0
C1111 C 0.91296 0.11711 0.59623 0.0
C1112 C 0.89003 0.13793 0.58083 0.0
H1113 H 0.93179 0.10266 0.6369 0.0
H1114 H 0.92994 0.09912 0.58562 0.0
C1115 C 0.86807 0.16071 0.59527 0.0
C1116 C 0.64615 0.17082 0.34739 0.0
C1117 C 0.62493 0.14895 0.33135 0.0
H1118 H 0.66158 0.18682 0.38861 0.0
C1119 C 0.60213 0.12635 0.3451 0.0
H1120 H 0.6642 0.18824 0.33729 0.0
C1121 C 0.60053 0.12567 0.37439 0.0
C1122 C 0.62205 0.14725 0.39044 0.0
H1123 H 0.58537 0.10942 0.33318 0.0
H1124 H 0.58295 0.10779 0.38449 0.0
C1125 C 0.64489 0.16981 0.37669 0.0
C1126 C 0.60797 0.89341 0.10046 0.0
C1127 C 0.62889 0.87237 0.08347 0.0
H1128 H 0.5942 0.90832 0.14234 0.0
C1129 C 0.65206 0.84928 0.09626 0.0
H1130 H 0.59012 0.91163 0.09112 0.0
C1131 C 0.65422 0.84724 0.12551 0.0
C1132 C 0.63366 0.86864 0.1425 0.0
H1133 H 0.66829 0.83263 0.08362 0.0
H1134 H 0.67244 0.82939 0.13486 0.0
C1135 C 0.61052 0.89175 0.1297 0.0
C1136 C 0.64713 0.67391 0.59341 0.0
C1137 C 0.62407 0.65004 0.58147 0.0
H1138 H 0.66765 0.69572 0.63126 0.0
C1139 C 0.60334 0.62969 0.5992 0.0
H1140 H 0.66318 0.69006 0.58018 0.0
C1141 C 0.60608 0.63274 0.62835 0.0
C1142 C 0.62918 0.65657 0.64028 0.0
H1143 H 0.58556 0.61092 0.5905 0.0
H1144 H 0.59 0.61662 0.64158 0.0
C1145 C 0.64946 0.67735 0.62256 0.0
C1146 C 0.64856 0.34756 0.87567 0.0
C1147 C 0.62612 0.37017 0.88976 0.0
H1148 H 0.66695 0.32916 0.83599 0.0
C1149 C 0.60447 0.39196 0.87402 0.0
H1150 H 0.66534 0.33039 0.88735 0.0
C1151 C 0.6055 0.39139 0.84471 0.0
C1152 C 0.62784 0.36869 0.83062 0.0
H1153 H 0.5872 0.40989 0.88438 0.0
H1154 H 0.5886 0.40846 0.83305 0.0
C1155 C 0.64924 0.34665 0.84636 0.0
C1156 C 0.9191 0.39786 0.12494 0.0
C1157 C 0.8962 0.37492 0.13824 0.0
H1158 H 0.93849 0.41747 0.08591 0.0
C1159 C 0.87489 0.35368 0.12172 0.0
H1160 H 0.93593 0.41433 0.13722 0.0
C1161 C 0.87616 0.35565 0.09244 0.0
C1162 C 0.89914 0.3785 0.07913 0.0
H1163 H 0.85678 0.33602 0.13146 0.0
H1164 H 0.85943 0.33906 0.08017 0.0
C1165 C 0.92075 0.39944 0.09565 0.0
C1166 C 0.91923 0.62121 0.35362 0.0
C1167 C 0.89757 0.64262 0.33753 0.0
H1168 H 0.93218 0.60231 0.39461 0.0
C1169 C 0.8718 0.6619 0.35122 0.0
H1170 H 0.93941 0.60622 0.34364 0.0
C1171 C 0.86749 0.65945 0.38033 0.0
C1172 C 0.88917 0.63806 0.39641 0.0
H1173 H 0.85451 0.67833 0.33934 0.0
H1174 H 0.84743 0.67459 0.39031 0.0
C1175 C 0.91524 0.61915 0.38277 0.0
C1176 C 0.42126 0.39622 0.37518 0.0
C1177 C 0.39909 0.37485 0.39084 0.0
H1178 H 0.43796 0.41217 0.33425 0.0
C1179 C 0.3766 0.35236 0.37664 0.0
H1180 H 0.43862 0.41402 0.38561 0.0
C1181 C 0.37634 0.3512 0.34732 0.0
C1182 C 0.39825 0.37284 0.33165 0.0
H1183 H 0.35944 0.33546 0.38824 0.0
H1184 H 0.35856 0.33382 0.3369 0.0
C1185 C 0.42067 0.3954 0.34585 0.0
C1186 C 0.42749 0.62064 0.09456 0.0
C1187 C 0.40556 0.64168 0.0784 0.0
H1188 H 0.44345 0.60546 0.13587 0.0
C1189 C 0.38267 0.66424 0.09208 0.0
H1190 H 0.44515 0.60282 0.08451 0.0
C1191 C 0.38189 0.66592 0.12138 0.0
C1192 C 0.40361 0.64468 0.13754 0.0
H1193 H 0.36569 0.68088 0.08009 0.0
H1194 H 0.36391 0.68343 0.13143 0.0
C1195 C 0.42633 0.62194 0.12387 0.0
C1196 C 0.14016 0.67994 0.8714 0.0
C1197 C 0.11728 0.6573 0.88513 0.0
H1198 H 0.15855 0.69968 0.8321 0.0
C1199 C 0.09388 0.6379 0.86899 0.0
H1200 H 0.15821 0.69548 0.88333 0.0
C1201 C 0.09409 0.64029 0.8397 0.0
C1202 C 0.11744 0.6624 0.82594 0.0
H1203 H 0.07611 0.62009 0.87896 0.0
H1204 H 0.07614 0.62464 0.82776 0.0
C1205 C 0.1401 0.68262 0.84211 0.0
C1206 C 0.14064 0.34549 0.62394 0.0
C1207 C 0.12125 0.36722 0.64155 0.0
H1208 H 0.15194 0.33022 0.58166 0.0
C1209 C 0.09723 0.39007 0.62955 0.0
H1210 H 0.15948 0.32783 0.63268 0.0
C1211 C 0.09273 0.39123 0.60046 0.0
C1212 C 0.11256 0.36994 0.58282 0.0
H1213 H 0.08178 0.40686 0.64271 0.0
H1214 H 0.07431 0.40932 0.59171 0.0
C1215 C 0.13652 0.34704 0.59482 0.0
C1216 C 0.01222 0.29893 0.22169 0.0
C1217 C 0.97908 0.28349 0.22141 0.0
H1218 H 0.06727 0.29158 0.22306 0.0
C1219 C 0.97698 0.24733 0.22095 0.0
H1220 H 0.01502 0.32678 0.22218 0.0
C1221 C 1.00715 0.22721 0.22099 0.0
C1222 C 0.04028 0.24265 0.22198 0.0
H1223 H 0.95206 0.23456 0.22078 0.0
H1224 H 1.00435 0.19935 0.22094 0.0
C1225 C 0.04237 0.27881 0.2222 0.0
C1226 C 0.95175 0.75208 0.45397 0.0
C1227 C 0.96176 0.72944 0.47562 0.0
H1228 H 0.95515 0.80268 0.43603 0.0
C1229 C 0.98493 0.74166 0.49612 0.0
H1230 H 0.93361 0.74365 0.43803 0.0
C1231 C 0.99675 0.77618 0.49537 0.0
C1232 C 0.98589 0.79904 0.47397 0.0
H1233 H 0.99263 0.72513 0.51339 0.0
H1234 H 0.01437 0.7849 0.51153 0.0
C1235 C 0.96376 0.78618 0.45304 0.0
C1236 C 0.48307 0.75259 0.72123 0.0
C1237 C 0.48433 0.78874 0.71956 0.0
H1238 H 0.51155 0.7053 0.72301 0.0
C1239 C 0.51713 0.80481 0.71777 0.0
H1240 H 0.45848 0.73934 0.72275 0.0
C1241 C 0.54776 0.7854 0.71838 0.0
C1242 C 0.5465 0.74929 0.72032 0.0
H1243 H 0.51934 0.83267 0.71658 0.0
H1244 H 0.57238 0.79871 0.71756 0.0
C1245 C 0.5137 0.73314 0.72137 0.0
C1246 C 0.52887 0.22411 0.97378 0.0
C1247 C 0.49277 0.22695 0.97371 0.0
H1248 H 0.57744 0.25047 0.97375 0.0
C1249 C 0.47807 0.26043 0.9731 0.0
H1250 H 0.5411 0.19894 0.97434 0.0
C1251 C 0.49886 0.29019 0.97318 0.0
C1252 C 0.53496 0.28734 0.97342 0.0
H1253 H 0.45029 0.26382 0.97317 0.0
H1254 H 0.48663 0.31537 0.97326 0.0
C1255 C 0.54966 0.25386 0.97342 0.0
C1256 C 0.02264 0.7221 0.25342 0.0
C1257 C 0.98905 0.73644 0.25167 0.0
H1258 H 0.07753 0.7308 0.25163 0.0
C1259 C 0.98599 0.77216 0.24747 0.0
H1260 H 0.0262 0.69459 0.25645 0.0
C1261 C 0.01562 0.7929 0.24505 0.0
C1262 C 0.04917 0.77847 0.2463 0.0
H1263 H 0.96075 0.78407 0.24582 0.0
H1264 H 0.01208 0.82035 0.24167 0.0
C1265 C 0.05226 0.74277 0.25053 0.0
C1266 C 0.49514 0.72687 0.50175 0.0
C1267 C 0.53123 0.72903 0.50003 0.0
H1268 H 0.44716 0.75415 0.50335 0.0
C1269 C 0.54658 0.76221 0.49915 0.0
H1270 H 0.48244 0.70192 0.50243 0.0
C1271 C 0.52639 0.79233 0.49926 0.0
C1272 C 0.49028 0.79018 0.50073 0.0
H1273 H 0.57437 0.76505 0.49768 0.0
H1274 H 0.53906 0.81725 0.49789 0.0
C1275 C 0.47498 0.75701 0.50233 0.0
C1276 C 0.48001 0.27276 0.74882 0.0
C1277 C 0.48258 0.23663 0.74893 0.0
H1278 H 0.50676 0.32113 0.74849 0.0
C1279 C 0.51595 0.22168 0.74921 0.0
H1280 H 0.45492 0.28517 0.74852 0.0
C1281 C 0.54586 0.24224 0.74877 0.0
C1282 C 0.54329 0.27836 0.7485 0.0
H1283 H 0.51914 0.19388 0.74915 0.0
H1284 H 0.57094 0.22981 0.74844 0.0
C1285 C 0.50993 0.29332 0.74884 0.0
C1286 C 0.99501 0.23035 0.00128 0.0
C1287 C 0.03117 0.23221 0.00131 0.0
H1288 H 0.94721 0.25799 0.00066 0.0
C1289 C 0.0468 0.26529 0.00125 0.0
H1290 H 0.98208 0.2055 0.00124 0.0
C1291 C 0.02687 0.29559 0.00049 0.0
C1292 C 0.9907 0.29372 0.00022 0.0
H1293 H 0.07467 0.26793 0.00113 0.0
H1294 H 0.0398 0.32042 -0.00016 0.0
C1295 C 0.97507 0.26065 0.00098 0.0
C1296 C 0.01774 0.81292 0.7431 0.0
C1297 C 0.98379 0.79958 0.74069 0.0
H1298 H 0.07239 0.80238 0.7434 0.0
C1299 C 0.97977 0.7639 0.73689 0.0
H1300 H 0.02202 0.84038 0.74582 0.0
C1301 C 1.00877 0.74215 0.73587 0.0
C1302 C 0.04273 0.75547 0.73815 0.0
H1303 H 0.95422 0.75272 0.7348 0.0
H1304 H 1.00444 0.71473 0.73295 0.0
C1305 C 0.0468 0.79121 0.74162 0.0
C1306 C 0.98106 0.28816 0.50391 0.0
C1307 C 0.01714 0.28685 0.50173 0.0
H1308 H 0.93368 0.25986 0.50547 0.0
C1309 C 0.03311 0.25401 0.49995 0.0
H1310 H 0.96787 0.31279 0.50527 0.0
C1311 C 0.01352 0.22343 0.49964 0.0
C1312 C 0.9774 0.22476 0.50156 0.0
H1313 H 0.06092 0.25181 0.4981 0.0
H1314 H 0.02665 0.19884 0.49756 0.0
C1315 C 0.96152 0.25758 0.50406 0.0
C1316 C 0.47963 0.24492 0.24822 0.0
C1317 C 0.48236 0.28103 0.24919 0.0
H1318 H 0.50616 0.19648 0.24695 0.0
C1319 C 0.5158 0.29582 0.25006 0.0
H1320 H 0.4545 0.23262 0.24741 0.0
C1321 C 0.54562 0.27518 0.24935 0.0
C1322 C 0.54289 0.23909 0.24821 0.0
H1323 H 0.51912 0.32361 0.25067 0.0
H1324 H 0.57076 0.28751 0.24952 0.0
C1325 C 0.50945 0.22425 0.24796 0.0
C1326 C 0.50065 0.79183 0.00128 0.0
C1327 C 0.53681 0.78994 0.0008 0.0
H1328 H 0.45282 0.76418 0.00117 0.0
C1329 C 0.55242 0.75689 0.00042 0.0
H1330 H 0.48776 0.81667 0.00153 0.0
C1331 C 0.53245 0.72662 -0.00021 0.0
C1332 C 0.49629 0.7285 0.0 0.0
H1333 H 0.58028 0.75426 -8e-05 0.0
H1334 H 0.54535 0.7018 -0.00115 0.0
C1335 C 0.48068 0.76154 0.00112 0.0
C1336 C 0.01541 0.22038 0.71955 0.0
C1337 C 0.98223 0.23568 0.72067 0.0
H1338 H 0.0705 0.22784 0.72034 0.0
C1339 C 0.98008 0.27178 0.72224 0.0
H1340 H 0.01825 0.19256 0.71849 0.0
C1341 C 1.01021 0.29197 0.7229 0.0
C1342 C 0.04339 0.27663 0.72248 0.0
H1343 H 0.95515 0.28446 0.72326 0.0
H1344 H 1.00735 0.31975 0.72441 0.0
C1345 C 0.04555 0.24054 0.72068 0.0
C1346 C 0.52504 0.29314 0.47418 0.0
C1347 C 0.48893 0.29057 0.47319 0.0
H1348 H 0.57337 0.26643 0.47524 0.0
C1349 C 0.47401 0.2572 0.47203 0.0
H1350 H 0.53744 0.31822 0.4752 0.0
C1351 C 0.49454 0.22729 0.47249 0.0
C1352 C 0.53063 0.22987 0.47366 0.0
H1353 H 0.44621 0.254 0.47139 0.0
H1354 H 0.48212 0.20219 0.47211 0.0
C1355 C 0.54559 0.26325 0.47419 0.0
C1356 C 0.52159 0.7204 0.22008 0.0
C1357 C 0.48851 0.73597 0.22017 0.0
H1358 H 0.5767 0.72749 0.22135 0.0
C1359 C 0.48661 0.77214 0.22028 0.0
H1360 H 0.52426 0.69254 0.22013 0.0
C1361 C 0.5169 0.79213 0.22054 0.0
C1362 C 0.54997 0.77655 0.22117 0.0
H1363 H 0.46176 0.78502 0.22043 0.0
H1364 H 0.51423 0.81999 0.22094 0.0
C1365 C 0.55187 0.74038 0.2208 0.0
C1366 C 0.04623 0.76646 0.97345 0.0
C1367 C 0.03173 0.73288 0.97321 0.0
H1368 H 0.03733 0.82129 0.97516 0.0
C1369 C 0.99567 0.72973 0.97346 0.0
H1370 H 0.07399 0.77005 0.97343 0.0
C1371 C 0.97471 0.7593 0.97403 0.0
C1372 C 0.98921 0.79286 0.97483 0.0
H1373 H 0.98362 0.70445 0.97335 0.0
H1374 H 0.94696 0.75566 0.97443 0.0
C1375 C 0.02528 0.79603 0.97448 0.0
C1376 C 0.16369 0.31798 0.34627 0.0
C1377 C 0.1407 0.30242 0.32715 0.0
H1378 H 0.16949 0.34444 0.38547 0.0
C1379 C 0.10503 0.30754 0.33068 0.0
H1380 H 0.19135 0.3154 0.34369 0.0
C1381 C 0.0926 0.32479 0.35428 0.0
C1382 C 0.11553 0.33696 0.37493 0.0
H1383 H 0.0865 0.29624 0.31637 0.0
H1384 H 0.06489 0.327 0.35707 0.0
C1385 C 0.15121 0.33495 0.37007 0.0
C1386 C 0.98284 0.94456 0.63104 0.0
C1387 C 0.95042 0.92862 0.63083 0.0
H1388 H 0.02731 0.95841 0.60734 0.0
C1389 C 0.93526 0.91916 0.6052 0.0
H1390 H 0.99514 0.9513 0.65075 0.0
C1391 C 0.9538 0.92276 0.58019 0.0
C1392 C 0.98766 0.93586 0.58062 0.0
H1393 H 0.91042 0.90621 0.60483 0.0
H1394 H 0.94247 0.91349 0.56082 0.0
C1395 C 1.00127 0.94837 0.60611 0.0
C1396 C 0.42273 0.70147 0.85088 0.0
C1397 C 0.39819 0.69002 0.8706 0.0
H1398 H 0.43211 0.73088 0.8138 0.0
C1399 C 0.36294 0.69397 0.86471 0.0
H1400 H 0.45012 0.69775 0.85451 0.0
C1401 C 0.35255 0.71234 0.84095 0.0
C1402 C 0.37725 0.72729 0.82292 0.0
H1403 H 0.34349 0.68498 0.87938 0.0
H1404 H 0.32521 0.71656 0.8376 0.0
C1405 C 0.41238 0.72008 0.82731 0.0
C1406 C 0.56396 0.0907 0.09345 0.0
C1407 C 0.55133 0.11536 0.07424 0.0
H1408 H 0.58906 0.08203 0.13294 0.0
C1409 C 0.56124 0.15005 0.07739 0.0
H1410 H 0.55784 0.06356 0.09107 0.0
C1411 C 0.57974 0.1604 0.10099 0.0
C1412 C 0.58837 0.13635 0.12197 0.0
H1413 H 0.55247 0.16976 0.06294 0.0
H1414 H 0.58529 0.18766 0.10373 0.0
C1415 C 0.58218 0.10115 0.11728 0.0
C1416 C 0.11782 0.69417 0.11658 0.0
C1417 C 0.14141 0.68741 0.09481 0.0
H1418 H 0.10866 0.71956 0.15549 0.0
C1419 C 0.17642 0.6952 0.09875 0.0
H1420 H 0.09077 0.68743 0.11436 0.0
C1421 C 0.18693 0.7131 0.12274 0.0
C1422 C 0.16248 0.7238 0.14291 0.0
H1423 H 0.19519 0.68978 0.08243 0.0
H1424 H 0.21382 0.72041 0.12459 0.0
C1425 C 0.12819 0.71232 0.14036 0.0
C1426 C 0.58386 0.91001 0.35529 0.0
C1427 C 0.58827 0.87469 0.34986 0.0
H1428 H 0.56072 0.94803 0.38181 0.0
C1429 C 0.57676 0.85042 0.36979 0.0
H1430 H 0.59283 0.92928 0.34046 0.0
C1431 C 0.55782 0.86102 0.39312 0.0
C1432 C 0.5503 0.89617 0.39709 0.0
H1433 H 0.5808 0.82299 0.36655 0.0
H1434 H 0.54711 0.84143 0.4068 0.0
C1435 C 0.56516 0.92067 0.37882 0.0
C1436 C 0.40294 0.30389 0.64449 0.0
C1437 C 0.36836 0.29422 0.64873 0.0
H1438 H 0.43945 0.3278 0.61705 0.0
C1439 C 0.34295 0.30681 0.63016 0.0
H1440 H 0.4232 0.29511 0.65841 0.0
C1441 C 0.35243 0.32493 0.60599 0.0
C1442 C 0.38741 0.33106 0.60028 0.0
H1443 H 0.31591 0.30085 0.63337 0.0
H1444 H 0.33268 0.33192 0.5909 0.0
C1445 C 0.41233 0.32229 0.62056 0.0
C1446 C 0.95871 0.09421 0.88212 0.0
C1447 C 0.97284 0.11967 0.89989 0.0
H1448 H 0.93379 0.08341 0.84292 0.0
C1449 C 0.96644 0.15461 0.89391 0.0
H1450 H 0.96223 0.06702 0.88663 0.0
C1451 C 0.94954 0.1639 0.86923 0.0
C1452 C 0.93905 0.13847 0.84991 0.0
H1453 H 0.97657 0.17496 0.90713 0.0
H1454 H 0.94637 0.19112 0.86453 0.0
C1455 C 0.94212 0.10353 0.85722 0.0
C1456 C 0.87941 0.72804 0.64469 0.0
C1457 C 0.85191 0.75167 0.64429 0.0
H1458 H 0.90573 0.68785 0.62251 0.0
C1459 C 0.82515 0.74699 0.62452 0.0
H1460 H 0.90024 0.73058 0.6597 0.0
C1461 C 0.82847 0.72259 0.60306 0.0
C1462 C 0.85829 0.70231 0.60146 0.0
H1463 H 0.8029 0.76391 0.62431 0.0
H1464 H 0.80949 0.722 0.58633 0.0
C1465 C 0.88251 0.70348 0.62343 0.0
C1466 C 0.05226 0.09577 0.37809 0.0
C1467 C 0.03745 0.12002 0.39657 0.0
H1468 H 0.08036 0.08777 0.33986 0.0
C1469 C 0.04532 0.15518 0.39314 0.0
H1470 H 0.04746 0.0684 0.38068 0.0
C1471 C 0.06461 0.16613 0.3701 0.0
C1472 C 0.07615 0.14217 0.34998 0.0
H1473 H 0.03459 0.17456 0.407 0.0
H1474 H 0.06887 0.19359 0.3672 0.0
C1475 C 0.07138 0.10677 0.35488 0.0
C1476 C 0.61258 0.32528 0.12062 0.0
C1477 C 0.63714 0.33366 0.09995 0.0
H1478 H 0.60237 0.2988 0.15889 0.0
C1479 C 0.67225 0.32796 0.10541 0.0
H1480 H 0.58537 0.33051 0.11729 0.0
C1481 C 0.68218 0.31042 0.12972 0.0
C1482 C 0.65709 0.29794 0.14864 0.0
H1483 H 0.69175 0.33471 0.09001 0.0
H1484 H 0.70929 0.30466 0.13271 0.0
C1485 C 0.62241 0.30743 0.14469 0.0
C1486 C 0.47189 0.86804 0.89311 0.0
C1487 C 0.47818 0.90293 0.89933 0.0
H1488 H 0.4516 0.83176 0.86366 0.0
C1489 C 0.46395 0.92852 0.88171 0.0
H1490 H 0.48208 0.84759 0.9062 0.0
C1491 C 0.44723 0.9194 0.85681 0.0
C1492 C 0.44409 0.88452 0.84932 0.0
H1493 H 0.46734 0.95568 0.88639 0.0
H1494 H 0.43872 0.93964 0.84269 0.0
C1495 C 0.45484 0.85895 0.86844 0.0
C1496 C 0.91862 0.32178 0.85113 0.0
C1497 C 0.89385 0.3328 0.87082 0.0
H1498 H 0.92857 0.29278 0.81396 0.0
C1499 C 0.85868 0.32843 0.86476 0.0
H1500 H 0.94595 0.32587 0.85484 0.0
C1501 C 0.84864 0.31013 0.84086 0.0
C1502 C 0.87361 0.2956 0.82285 0.0
H1503 H 0.83904 0.33707 0.87937 0.0
H1504 H 0.82137 0.30569 0.83737 0.0
C1505 C 0.90863 0.3032 0.82744 0.0
C1506 C 0.45914 0.09022 0.59176 0.0
C1507 C 0.47182 0.11541 0.573 0.0
H1508 H 0.43501 0.08038 0.63149 0.0
C1509 C 0.46299 0.15018 0.57743 0.0
H1510 H 0.46436 0.06306 0.58843 0.0
C1511 C 0.44549 0.1599 0.60171 0.0
C1512 C 0.43683 0.13513 0.62214 0.0
H1513 H 0.47177 0.17033 0.56339 0.0
H1514 H 0.44066 0.18713 0.60531 0.0
C1515 C 0.44198 0.10003 0.61629 0.0
C1516 C 0.67861 0.70009 0.34327 0.0
C1517 C 0.65489 0.71491 0.32434 0.0
H1518 H 0.68574 0.67435 0.38266 0.0
C1519 C 0.61945 0.70873 0.32821 0.0
H1520 H 0.70615 0.70341 0.34037 0.0
C1521 C 0.60787 0.69144 0.35208 0.0
C1522 C 0.63145 0.68033 0.37265 0.0
H1523 H 0.60039 0.71936 0.31403 0.0
H1524 H 0.58028 0.68853 0.35521 0.0
C1525 C 0.66698 0.68311 0.36735 0.0
C1526 C 0.08117 0.86274 0.10021 0.0
C1527 C 0.08802 0.88608 0.12214 0.0
H1528 H 0.05343 0.85311 0.06241 0.0
C1529 C 0.07792 0.92065 0.1193 0.0
H1530 H 0.08962 0.83609 0.10157 0.0
C1531 C 0.05765 0.93067 0.09644 0.0
C1532 C 0.04688 0.90615 0.07636 0.0
H1533 H 0.08333 0.93924 0.13573 0.0
H1534 H 0.04858 0.9571 0.09553 0.0
C1535 C 0.06065 0.87262 0.07758 0.0
C1536 C 0.68035 0.82686 0.83999 0.0
C1537 C 0.6559 0.812 0.82169 0.0
H1538 H 0.68941 0.85057 0.87995 0.0
C1539 C 0.62059 0.81626 0.82757 0.0
H1540 H 0.70774 0.82512 0.8356 0.0
C1541 C 0.61016 0.83159 0.85261 0.0
C1542 C 0.63477 0.84255 0.87244 0.0
H1543 H 0.60092 0.80564 0.81395 0.0
H1544 H 0.58275 0.83312 0.85714 0.0
C1545 C 0.6699 0.84178 0.86528 0.0
C1546 C 0.45055 0.35725 0.10193 0.0
C1547 C 0.44163 0.38215 0.12217 0.0
H1548 H 0.47759 0.34648 0.06401 0.0
C1549 C 0.44748 0.41717 0.11638 0.0
H1550 H 0.44525 0.33009 0.10548 0.0
C1551 C 0.46538 0.42673 0.09213 0.0
C1552 C 0.47806 0.40139 0.07354 0.0
H1553 H 0.44037 0.43692 0.13144 0.0
H1554 H 0.47104 0.45383 0.08884 0.0
C1555 C 0.46875 0.36673 0.07791 0.0
C1556 C 0.84632 0.19358 0.36439 0.0
C1557 C 0.88108 0.1888 0.37166 0.0
H1558 H 0.81079 0.21601 0.33532 0.0
C1559 C 0.90697 0.19882 0.35255 0.0
H1560 H 0.82584 0.18564 0.37851 0.0
C1561 C 0.89849 0.21685 0.32819 0.0
C1562 C 0.86389 0.22486 0.32229 0.0
H1563 H 0.93402 0.19435 0.35719 0.0
H1564 H 0.91928 0.22648 0.31516 0.0
C1565 C 0.8378 0.2113 0.33979 0.0
C1566 C 0.03863 0.59738 0.60211 0.0
C1567 C 0.02835 0.62047 0.58081 0.0
H1568 H 0.06833 0.59051 0.63969 0.0
C1569 C 0.04668 0.65149 0.57732 0.0
H1570 H 0.02578 0.57273 0.60471 0.0
C1571 C 0.07149 0.66124 0.59696 0.0
C1572 C 0.07818 0.64021 0.62042 0.0
H1573 H 0.03973 0.6697 0.56101 0.0
H1574 H 0.08315 0.68664 0.59524 0.0
C1575 C 0.06335 0.60725 0.62189 0.0
C1576 C 0.61919 0.20983 0.6446 0.0
C1577 C 0.65408 0.21893 0.64796 0.0
H1578 H 0.58125 0.18677 0.618 0.0
C1579 C 0.67857 0.20592 0.62879 0.0
H1580 H 0.59959 0.21891 0.65901 0.0
C1581 C 0.66788 0.18812 0.60483 0.0
C1582 C 0.63259 0.18271 0.59995 0.0
H1583 H 0.70582 0.21141 0.63132 0.0
H1584 H 0.68695 0.18093 0.58922 0.0
C1585 C 0.60859 0.19173 0.62087 0.0
C1586 C 0.08522 0.41292 0.85502 0.0
C1587 C 0.08913 0.37745 0.85 0.0
H1588 H 0.06326 0.45168 0.88147 0.0
C1589 C 0.07845 0.35372 0.87062 0.0
H1590 H 0.09365 0.43179 0.83965 0.0
C1591 C 0.06041 0.36496 0.89421 0.0
C1592 C 0.05303 0.40022 0.89773 0.0
H1593 H 0.08221 0.3262 0.86769 0.0
H1594 H 0.05012 0.3457 0.9084 0.0
C1595 C 0.06748 0.42423 0.87882 0.0
C1596 C 0.84641 0.79943 0.13196 0.0
C1597 C 0.87275 0.7887 0.15046 0.0
H1598 H 0.83416 0.82432 0.09296 0.0
C1599 C 0.90634 0.80148 0.14655 0.0
H1600 H 0.82 0.79101 0.13496 0.0
C1601 C 0.91419 0.82114 0.12288 0.0
C1602 C 0.8887 0.82808 0.10257 0.0
H1603 H 0.92718 0.79413 0.16047 0.0
H1604 H 0.94076 0.82898 0.11951 0.0
C1605 C 0.85436 0.81883 0.10807 0.0
C1606 C 0.45039 0.66247 0.36818 0.0
C1607 C 0.44019 0.63757 0.34833 0.0
H1608 H 0.47639 0.67252 0.4067 0.0
C1609 C 0.44262 0.60245 0.35526 0.0
H1610 H 0.44763 0.68982 0.36381 0.0
C1611 C 0.45834 0.59245 0.38037 0.0
C1612 C 0.4723 0.61738 0.39872 0.0
H1613 H 0.43447 0.58271 0.34055 0.0
H1614 H 0.46131 0.56513 0.38459 0.0
C1615 C 0.46647 0.65251 0.39305 0.0
C1616 C 0.41509 0.19502 0.12113 0.0
C1617 C 0.39063 0.18596 0.10059 0.0
H1618 H 0.42512 0.22269 0.15889 0.0
C1619 C 0.35552 0.19211 0.10573 0.0
H1620 H 0.44229 0.18953 0.11806 0.0
C1621 C 0.3455 0.21051 0.12959 0.0
C1622 C 0.37049 0.22336 0.14842 0.0
H1623 H 0.33609 0.18492 0.09042 0.0
H1624 H 0.31839 0.21648 0.13236 0.0
C1625 C 0.40517 0.2137 0.14477 0.0
C1626 C 0.59072 0.61565 0.85287 0.0
C1627 C 0.59337 0.65127 0.84791 0.0
H1628 H 0.57001 0.57594 0.87913 0.0
C1629 C 0.58117 0.67449 0.86835 0.0
H1630 H 0.60024 0.59716 0.83764 0.0
C1631 C 0.56325 0.66244 0.89177 0.0
C1632 C 0.55749 0.62687 0.89534 0.0
H1633 H 0.58385 0.70215 0.86548 0.0
H1634 H 0.55196 0.6812 0.90587 0.0
C1635 C 0.57307 0.60355 0.87649 0.0
C1636 C 0.12625 0.83648 0.6109 0.0
C1637 C 0.13933 0.827 0.58447 0.0
H1638 H 0.12692 0.82726 0.65516 0.0
C1639 C 0.16692 0.80377 0.58279 0.0
H1640 H 0.10513 0.85476 0.61257 0.0
C1641 C 0.1791 0.78771 0.60709 0.0
C1642 C 0.16389 0.79482 0.63341 0.0
H1643 H 0.1772 0.79605 0.56257 0.0
H1644 H 0.19866 0.76797 0.6048 0.0
C1645 C 0.1385 0.82059 0.63518 0.0
C1646 C 0.92681 0.4155 0.35821 0.0
C1647 C 0.92601 0.38061 0.35033 0.0
H1648 H 0.94286 0.45228 0.38894 0.0
C1649 C 0.93622 0.35532 0.36985 0.0
H1650 H 0.91853 0.43552 0.3438 0.0
C1651 C 0.95099 0.36485 0.39535 0.0
C1652 C 0.9554 0.39994 0.40201 0.0
H1653 H 0.93456 0.32807 0.36478 0.0
H1654 H 0.96108 0.34466 0.40873 0.0
C1655 C 0.94111 0.42505 0.38397 0.0
C1656 C 0.41018 0.80216 0.32714 0.0
C1657 C 0.37535 0.79508 0.32125 0.0
H1658 H 0.44632 0.82337 0.35627 0.0
C1659 C 0.34965 0.8092 0.33879 0.0
H1660 H 0.43068 0.79205 0.31406 0.0
C1661 C 0.35867 0.82646 0.36347 0.0
C1662 C 0.39355 0.83019 0.37076 0.0
H1663 H 0.32253 0.80517 0.33432 0.0
H1664 H 0.33842 0.83477 0.37765 0.0
C1665 C 0.41916 0.81971 0.35159 0.0
C1666 C 0.95757 0.65853 0.10686 0.0
C1667 C 0.94999 0.63273 0.12677 0.0
H1668 H 0.98205 0.67109 0.0681 0.0
C1669 C 0.95591 0.59804 0.11986 0.0
H1670 H 0.95219 0.68547 0.11128 0.0
C1671 C 0.97237 0.58966 0.09465 0.0
C1672 C 0.98347 0.61586 0.07612 0.0
H1673 H 0.94984 0.57762 0.13465 0.0
H1674 H 0.97802 0.56278 0.0904 0.0
C1675 C 0.9743 0.65023 0.08186 0.0
C1676 C 0.10722 0.19464 0.85413 0.0
C1677 C 0.13154 0.18447 0.87446 0.0
H1678 H 0.09819 0.22116 0.81567 0.0
C1679 C 0.16685 0.18763 0.86844 0.0
H1680 H 0.07977 0.19139 0.85783 0.0
C1681 C 0.17753 0.20399 0.84377 0.0
C1682 C 0.15307 0.21783 0.82496 0.0
H1683 H 0.18615 0.17954 0.88355 0.0
H1684 H 0.20494 0.20753 0.84027 0.0
C1685 C 0.11784 0.21132 0.8297 0.0
C1686 C 0.57872 0.41567 0.6172 0.0
C1687 C 0.58506 0.3805 0.62192 0.0
H1688 H 0.55387 0.45311 0.59115 0.0
C1689 C 0.57592 0.35633 0.60118 0.0
H1690 H 0.58594 0.43487 0.63269 0.0
C1691 C 0.55699 0.36656 0.57776 0.0
C1692 C 0.54713 0.40125 0.57456 0.0
H1693 H 0.58152 0.3291 0.60395 0.0
H1694 H 0.54793 0.34681 0.56348 0.0
C1695 C 0.56003 0.426 0.59357 0.0
C1696 C 0.2286 0.27751 0.23297 0.0
C1697 C 0.23367 0.2418 0.22951 0.0
H1698 H 0.25122 0.32639 0.24326 0.0
C1699 C 0.26691 0.22815 0.23425 0.0
H1700 H 0.20326 0.28886 0.23007 0.0
C1701 C 0.29434 0.24959 0.24233 0.0
C1702 C 0.28926 0.28529 0.24584 0.0
H1703 H 0.27172 0.20071 0.23205 0.0
H1704 H 0.31967 0.23823 0.24525 0.0
C1705 C 0.25603 0.29895 0.24105 0.0
C1706 C 0.97943 0.96928 0.47841 0.0
C1707 C 0.01427 0.9741 0.47097 0.0
H1708 H 0.93259 0.99251 0.49324 0.0
C1709 C 0.02869 1.00738 0.47384 0.0
H1710 H 0.96758 0.94397 0.47701 0.0
C1711 C 1.00884 0.03507 0.48378 0.0
C1712 C 0.97392 0.03032 0.49092 0.0
H1713 H 0.05553 0.01207 0.46863 0.0
H1714 H 0.02064 0.06042 0.48503 0.0
C1715 C 0.95952 0.99704 0.48818 0.0
C1716 C 0.26774 0.73279 0.73996 0.0
C1717 C 0.23432 0.74658 0.74356 0.0
H1718 H 0.3208 0.74244 0.72955 0.0
C1719 C 0.22932 0.78205 0.7386 0.0
H1720 H 0.27256 0.70552 0.74331 0.0
C1721 C 0.25693 0.80309 0.73022 0.0
C1722 C 0.2903 0.7893 0.72658 0.0
H1723 H 0.20391 0.79353 0.74063 0.0
H1724 H 0.25214 0.83037 0.72688 0.0
C1725 C 0.29535 0.75384 0.73153 0.0
C1726 C 0.54746 0.01548 -0.00497 0.0
C1727 C 0.53471 0.98192 5e-05 0.0
H1728 H 0.53641 0.06722 0.98177 0.0
C1729 C 0.49955 0.9753 -0.0051 0.0
H1730 H 0.57445 0.02152 -0.00148 0.0
C1731 C 0.47783 1.00146 0.98481 0.0
C1732 C 0.49062 0.03496 0.97966 0.0
H1733 H 0.48891 0.94968 -0.002 0.0
H1734 H 0.45082 0.99547 0.98131 0.0
C1735 C 0.52576 0.04161 0.9849 0.0
C1736 C 0.30191 0.77168 0.22693 0.0
C1737 C 0.29578 0.73641 0.22186 0.0
H1738 H 0.28084 0.82036 0.23973 0.0
C1739 C 0.26218 0.7234 0.22619 0.0
H1740 H 0.32754 0.78252 0.22437 0.0
C1741 C 0.23549 0.74498 0.23552 0.0
C1742 C 0.24166 0.78021 0.2407 0.0
H1743 H 0.25654 0.69631 0.22274 0.0
H1744 H 0.20987 0.73414 0.23812 0.0
C1745 C 0.27521 0.79326 0.23625 0.0
C1746 C 0.54553 1.00403 0.47898 0.0
C1747 C 0.53222 0.03741 0.47426 0.0
H1748 H 0.53514 0.95169 0.49105 0.0
C1749 C 0.4968 0.04317 0.47887 0.0
H1750 H 0.57275 0.99868 0.47591 0.0
C1751 C 0.47533 0.01629 0.48804 0.0
C1752 C 0.48867 0.98293 0.4928 0.0
H1753 H 0.48572 0.06864 0.476 0.0
H1754 H 0.4481 0.0216 0.49109 0.0
C1755 C 0.52408 0.97717 0.48819 0.0
C1756 C 0.23009 0.24166 0.73089 0.0
C1757 C 0.23599 0.27692 0.72556 0.0
H1758 H 0.25131 0.19339 0.74449 0.0
C1759 C 0.26935 0.29033 0.73029 0.0
H1760 H 0.20464 0.23053 0.72805 0.0
C1761 C 0.29601 0.26916 0.74025 0.0
C1762 C 0.29009 0.23393 0.74564 0.0
H1763 H 0.2748 0.31743 0.72666 0.0
H1764 H 0.32146 0.2803 0.74311 0.0
C1765 C 0.25676 0.22049 0.74085 0.0
C1766 C 0.97224 0.01879 -0.01216 0.0
C1767 C 0.9851 0.98525 0.983 0.0
H1768 H 0.98348 0.07113 -0.00055 0.0
C1769 C 0.02052 0.97912 -0.01277 0.0
H1770 H 0.94501 0.02437 0.98509 0.0
C1771 C 0.04245 1.0058 -0.00396 0.0
C1772 C 0.02965 0.0394 0.00073 0.0
H1773 H 0.03125 0.95351 0.98433 0.0
H1774 H 0.06966 1.00015 -0.00121 0.0
C1775 C 0.9942 0.04551 -0.00343 0.0
C1776 C 0.79949 0.76629 0.73191 0.0
C1777 C 0.79244 0.80165 0.73541 0.0
H1778 H 0.77956 0.71617 0.72186 0.0
C1779 C 0.75852 0.81344 0.73056 0.0
H1780 H 0.82542 0.75637 0.73486 0.0
C1781 C 0.73227 0.79048 0.72266 0.0
C1782 C 0.73922 0.75505 0.7194 0.0
H1783 H 0.75221 0.84058 0.73274 0.0
H1784 H 0.70633 0.80042 0.71982 0.0
C1785 C 0.77325 0.74332 0.72396 0.0
C1786 C 0.75383 0.29499 0.22837 0.0
C1787 C 0.78735 0.28227 0.22327 0.0
H1788 H 0.70227 0.284 0.24212 0.0
C1789 C 0.79414 0.24724 0.22888 0.0
H1790 H 0.74768 0.3219 0.22456 0.0
C1791 C 0.76818 0.22563 0.23946 0.0
C1792 C 0.73468 0.23837 0.24461 0.0
H1793 H 0.81976 0.23663 0.22574 0.0
H1794 H 0.7743 0.19871 0.24328 0.0
C1795 C 0.72787 0.27339 0.23897 0.0
C1796 C 0.79588 0.27059 0.73023 0.0
C1797 C 0.78971 0.23518 0.72593 0.0
H1798 H 0.77492 0.31964 0.74213 0.0
C1799 C 0.7562 0.22226 0.73084 0.0
H1800 H 0.82146 0.28137 0.72723 0.0
C1801 C 0.7296 0.2441 0.7399 0.0
C1802 C 0.73578 0.27951 0.74422 0.0
H1803 H 0.75056 0.19505 0.72801 0.0
H1804 H 0.70402 0.23332 0.74291 0.0
C1805 C 0.76927 0.29244 0.73929 0.0
C1806 C 0.73684 0.74037 0.23211 0.0
C1807 C 0.74297 0.77583 0.22799 0.0
H1808 H 0.75777 0.69127 0.24401 0.0
C1809 C 0.77645 0.78873 0.23309 0.0
H1810 H 0.7113 0.72958 0.22895 0.0
C1811 C 0.80301 0.76686 0.24223 0.0
C1812 C 0.79684 0.73143 0.24648 0.0
H1813 H 0.78208 0.81596 0.23039 0.0
H1814 H 0.82854 0.77766 0.24545 0.0
C1815 C 0.76341 0.71849 0.24126 0.0
C1816 C 0.5312 0.54051 -0.01231 0.0
C1817 C 0.49565 0.53526 -0.00801 0.0
H1818 H 0.57975 0.51819 0.97611 0.0
C1819 C 0.48193 0.502 -0.01253 0.0
H1820 H 0.54257 0.56589 -0.00961 0.0
C1821 C 0.50315 0.47472 0.97878 0.0
C1822 C 0.53869 0.47998 0.97443 0.0
H1823 H 0.45459 0.49708 -0.00969 0.0
H1824 H 0.49176 0.44936 0.97605 0.0
C1825 C 0.55241 0.51324 0.97898 0.0
C1826 C 1.00409 0.54118 0.4961 0.0
C1827 C 0.96829 0.53546 0.49468 0.0
H1828 H 0.05416 0.5193 0.50297 0.0
C1829 C 0.95568 0.50188 0.49988 0.0
H1830 H 0.01465 0.5668 0.49285 0.0
C1831 C 0.97829 0.47463 0.50606 0.0
C1832 C 0.01414 0.48027 0.50731 0.0
H1833 H 0.9282 0.49661 0.49926 0.0
H1834 H 0.96767 0.44901 0.50924 0.0
C1835 C 0.02669 0.51397 0.50241 0.0
C1836 C 0.99892 0.54702 0.97846 0.0
C1837 C 0.03414 0.54094 0.97317 0.0
H1838 H 0.95035 0.52588 -0.00844 0.0
C1839 C 0.04729 0.50746 0.97781 0.0
H1840 H 0.98798 0.57256 0.97569 0.0
C1841 C 0.02585 0.4808 -0.01252 0.0
C1842 C 0.99059 0.48685 -0.00736 0.0
H1843 H 0.07436 0.50185 0.97425 0.0
H1844 H 0.03676 0.45524 -0.00981 0.0
C1845 C 0.97746 0.52033 -0.01193 0.0
C1846 C 0.47356 0.51645 0.48492 0.0
C1847 C 0.48664 0.48305 0.47989 0.0
H1848 H 0.48425 0.56847 0.49768 0.0
C1849 C 0.52189 0.47683 0.48494 0.0
H1850 H 0.44646 0.52211 0.48157 0.0
C1851 C 0.54343 0.5033 0.49472 0.0
C1852 C 0.53041 0.53677 0.4996 0.0
H1853 H 0.53276 0.4513 0.48191 0.0
H1854 H 0.57053 0.49761 0.49805 0.0
C1855 C 0.49512 0.54294 0.49468 0.0
loop_
_geom_bond_atom_site_label_1
_geom_bond_atom_site_label_2
_geom_bond_distance
_geom_bond_site_symmetry_2
_ccdc_geom_bond_type
C0 C1 1.351 . S
C0 N3 1.368 . S
C0 H5 0.931 . S
C1 C0 1.351 . S
C1 N2 1.373 . S
C1 H29 0.930 . S
N2 C1 1.373 . S
N2 C4 1.340 . S
N3 C0 1.368 . S
N3 C4 1.321 . S
N3 Co6 2.135 . S
C4 N2 1.340 . S
C4 N3 1.321 . S
C4 H28 0.930 . S
H5 C0 0.931 . S
Co6 N3 2.135 . S
Co6 N9 2.121 . S
Co6 O14 2.055 . S
Co6 O17 2.039 . S
Co6 N20 2.140 . S
C7 O8 1.227 . S
C7 O17 1.265 . S
O8 C7 1.227 . S
N9 Co6 2.121 . S
N9 C11 1.375 . S
N9 C12 1.313 . S
C10 C11 1.338 . S
C10 N13 1.377 . S
C10 H30 0.930 . S
C11 N9 1.375 . S
C11 C10 1.338 . S
C11 H15 0.931 . S
C12 N9 1.313 . S
C12 N13 1.344 . S
C12 H16 0.930 . S
N13 C10 1.377 . S
N13 C12 1.344 . S
O14 Co6 2.055 . S
O14 C18 1.253 . S
H15 C11 0.931 . S
H16 C12 0.930 . S
O17 Co6 2.039 . S
O17 C7 1.265 . S
C18 O14 1.253 . S
C18 O19 1.227 . S
O19 C18 1.227 . S
N20 Co6 2.140 . S
N20 C23 1.346 . S
N20 C24 1.345 . S
C21 C22 1.387 . S
C21 C25 1.391 . S
C22 C21 1.387 . S
C22 C23 1.369 . S
C22 H31 0.929 . S
C23 N20 1.346 . S
C23 C22 1.369 . S
C23 H26 0.928 . S
C24 N20 1.345 . S
C24 C25 1.371 . S
C24 H27 0.931 . S
C25 C21 1.391 . S
C25 C24 1.371 . S
C25 H32 0.930 . S
H26 C23 0.928 . S
H27 C24 0.931 . S
H28 C4 0.930 . S
H29 C1 0.930 . S
H30 C10 0.930 . S
H31 C22 0.929 . S
H32 C25 0.930 . S
C33 C34 1.351 . S
C33 N36 1.368 . S
C33 H38 0.931 . S
C34 C33 1.351 . S
C34 N35 1.373 1_455 S
C34 H62 0.930 . S
N35 C34 1.373 1_655 S
N35 C37 1.340 . S
N36 C33 1.368 . S
N36 C37 1.321 1_455 S
N36 Co39 2.135 . S
C37 N35 1.340 . S
C37 N36 1.321 1_655 S
C37 H61 0.930 . S
H38 C33 0.931 . S
Co39 N36 2.135 . S
Co39 N42 2.121 . S
Co39 O47 2.055 . S
Co39 O50 2.039 . S
Co39 N53 2.140 . S
C40 O41 1.227 . S
C40 O50 1.265 . S
O41 C40 1.227 . S
N42 Co39 2.121 . S
N42 C44 1.375 . S
N42 C45 1.313 . S
C43 C44 1.338 . S
C43 N46 1.377 . S
C43 H63 0.930 . S
C44 N42 1.375 . S
C44 C43 1.338 . S
C44 H48 0.931 . S
C45 N42 1.313 . S
C45 N46 1.344 . S
C45 H49 0.930 . S
N46 C43 1.377 . S
N46 C45 1.344 . S
O47 Co39 2.055 . S
O47 C51 1.253 . S
H48 C44 0.931 . S
H49 C45 0.930 . S
O50 Co39 2.039 . S
O50 C40 1.265 . S
C51 O47 1.253 . S
C51 O52 1.227 . S
O52 C51 1.227 . S
N53 Co39 2.140 . S
N53 C56 1.346 . S
N53 C57 1.345 . S
C54 C55 1.387 . S
C54 C58 1.391 . S
C55 C54 1.387 . S
C55 C56 1.369 . S
C55 H64 0.929 . S
C56 N53 1.346 . S
C56 C55 1.369 . S
C56 H59 0.928 . S
C57 N53 1.345 . S
C57 C58 1.371 . S
C57 H60 0.931 . S
C58 C54 1.391 . S
C58 C57 1.371 . S
C58 H65 0.930 . S
H59 C56 0.928 . S
H60 C57 0.931 . S
H61 C37 0.930 . S
H62 C34 0.930 . S
H63 C43 0.930 . S
H64 C55 0.929 . S
H65 C58 0.930 . S
C66 C67 1.351 . S
C66 N69 1.368 . S
C66 H71 0.931 . S
C67 C66 1.351 . S
C67 N68 1.373 . S
C67 H95 0.930 . S
N68 C67 1.373 . S
N68 C70 1.340 . S
N69 C66 1.368 . S
N69 C70 1.321 . S
N69 Co72 2.135 . S
C70 N68 1.340 . S
C70 N69 1.321 . S
C70 H94 0.930 . S
H71 C66 0.931 . S
Co72 N69 2.135 . S
Co72 N75 2.121 . S
Co72 O80 2.055 . S
Co72 O83 2.039 . S
Co72 N86 2.140 . S
C73 O74 1.227 . S
C73 O83 1.265 . S
O74 C73 1.227 . S
N75 Co72 2.121 . S
N75 C77 1.375 . S
N75 C78 1.313 . S
C76 C77 1.338 . S
C76 N79 1.377 . S
C76 H96 0.930 . S
C77 N75 1.375 . S
C77 C76 1.338 . S
C77 H81 0.931 . S
C78 N75 1.313 . S
C78 N79 1.344 . S
C78 H82 0.930 . S
N79 C76 1.377 . S
N79 C78 1.344 . S
O80 Co72 2.055 . S
O80 C84 1.253 . S
H81 C77 0.931 . S
H82 C78 0.930 . S
O83 Co72 2.039 . S
O83 C73 1.265 . S
C84 O80 1.253 . S
C84 O85 1.227 . S
O85 C84 1.227 . S
N86 Co72 2.140 . S
N86 C89 1.346 . S
N86 C90 1.345 . S
C87 C88 1.387 . S
C87 C91 1.391 . S
C88 C87 1.387 . S
C88 C89 1.369 . S
C88 H97 0.929 . S
C89 N86 1.346 . S
C89 C88 1.369 . S
C89 H92 0.928 . S
C90 N86 1.345 . S
C90 C91 1.371 . S
C90 H93 0.931 . S
C91 C87 1.391 . S
C91 C90 1.371 . S
C91 H98 0.930 . S
H92 C89 0.928 . S
H93 C90 0.931 . S
H94 C70 0.930 . S
H95 C67 0.930 . S
H96 C76 0.930 . S
H97 C88 0.929 . S
H98 C91 0.930 . S
C99 C100 1.351 . S
C99 N102 1.368 . S
C99 H104 0.931 . S
C100 C99 1.351 . S
C100 N101 1.373 . S
C100 H128 0.930 . S
N101 C100 1.373 . S
N101 C103 1.340 . S
N102 C99 1.368 . S
N102 C103 1.321 . S
N102 Co105 2.135 . S
C103 N101 1.340 . S
C103 N102 1.321 . S
C103 H127 0.930 . S
H104 C99 0.931 . S
Co105 N102 2.135 . S
Co105 N108 2.121 1_554 S
Co105 O113 2.072 . S
Co105 O116 2.039 . S
Co105 N119 2.140 . S
C106 O107 1.227 . S
C106 O116 1.265 . S
O107 C106 1.227 . S
N108 Co105 2.121 1_556 S
N108 C110 1.375 . S
N108 C111 1.313 . S
C109 C110 1.338 . S
C109 N112 1.377 . S
C109 H129 0.930 . S
C110 N108 1.375 . S
C110 C109 1.338 . S
C110 H114 0.931 . S
C111 N108 1.313 . S
C111 N112 1.344 . S
C111 H115 0.930 . S
N112 C109 1.377 . S
N112 C111 1.344 . S
O113 Co105 2.072 . S
O113 C117 1.261 . S
H114 C110 0.931 . S
H115 C111 0.930 . S
O116 Co105 2.039 . S
O116 C106 1.265 . S
C117 O113 1.261 . S
C117 O118 1.227 . S
O118 C117 1.227 . S
N119 Co105 2.140 . S
N119 C122 1.346 . S
N119 C123 1.345 . S
C120 C121 1.387 . S
C120 C124 1.391 . S
C121 C120 1.387 . S
C121 C122 1.369 . S
C121 H130 0.929 . S
C122 N119 1.346 . S
C122 C121 1.369 . S
C122 H125 0.928 . S
C123 N119 1.345 . S
C123 C124 1.371 . S
C123 H126 0.931 . S
C124 C120 1.391 . S
C124 C123 1.371 . S
C124 H131 0.930 . S
H125 C122 0.928 . S
H126 C123 0.931 . S
H127 C103 0.930 . S
H128 C100 0.930 . S
H129 C109 0.930 . S
H130 C121 0.929 . S
H131 C124 0.930 . S
C132 C133 1.351 . S
C132 N135 1.368 . S
C132 H137 0.931 . S
C133 C132 1.351 . S
C133 N134 1.373 . S
C133 H161 0.930 . S
N134 C133 1.373 . S
N134 C136 1.340 . S
N135 C132 1.368 . S
N135 C136 1.321 . S
N135 Co138 2.135 . S
C136 N134 1.340 . S
C136 N135 1.321 . S
C136 H160 0.930 . S
H137 C132 0.931 . S
Co138 N135 2.135 . S
Co138 N141 2.121 . S
Co138 O146 2.055 . S
Co138 O149 2.039 . S
Co138 N152 2.140 . S
C139 O140 1.227 . S
C139 O149 1.265 . S
O140 C139 1.227 . S
N141 Co138 2.121 . S
N141 C143 1.375 . S
N141 C144 1.313 . S
C142 C143 1.338 . S
C142 N145 1.377 . S
C142 H162 0.930 . S
C143 N141 1.375 . S
C143 C142 1.338 . S
C143 H147 0.931 . S
C144 N141 1.313 . S
C144 N145 1.344 . S
C144 H148 0.930 . S
N145 C142 1.377 . S
N145 C144 1.344 . S
O146 Co138 2.055 . S
O146 C150 1.253 . S
H147 C143 0.931 . S
H148 C144 0.930 . S
O149 Co138 2.039 . S
O149 C139 1.265 . S
C150 O146 1.253 . S
C150 O151 1.227 . S
O151 C150 1.227 . S
N152 Co138 2.140 . S
N152 C155 1.346 . S
N152 C156 1.345 . S
C153 C154 1.387 . S
C153 C157 1.391 . S
C154 C153 1.387 . S
C154 C155 1.369 . S
C154 H163 0.929 . S
C155 N152 1.346 . S
C155 C154 1.369 . S
C155 H158 0.928 . S
C156 N152 1.345 . S
C156 C157 1.371 . S
C156 H159 0.931 . S
C157 C153 1.391 . S
C157 C156 1.371 . S
C157 H164 0.930 . S
H158 C155 0.928 . S
H159 C156 0.931 . S
H160 C136 0.930 . S
H161 C133 0.930 . S
H162 C142 0.930 . S
H163 C154 0.929 . S
H164 C157 0.930 . S
C165 C166 1.351 . S
C165 N168 1.368 . S
C165 H170 0.931 . S
C166 C165 1.351 . S
C166 N167 1.373 . S
C166 H194 0.930 . S
N167 C166 1.373 . S
N167 C169 1.340 . S
N168 C165 1.368 . S
N168 C169 1.321 . S
N168 Co171 2.135 . S
C169 N167 1.340 . S
C169 N168 1.321 . S
C169 H193 0.930 . S
H170 C165 0.931 . S
Co171 N168 2.135 . S
Co171 N174 2.121 . S
Co171 O179 2.055 . S
Co171 O182 2.039 . S
Co171 N185 2.140 . S
C172 O173 1.227 . S
C172 O182 1.265 . S
O173 C172 1.227 . S
N174 Co171 2.121 . S
N174 C176 1.375 . S
N174 C177 1.313 . S
C175 C176 1.338 . S
C175 N178 1.377 . S
C175 H195 0.930 . S
C176 N174 1.375 . S
C176 C175 1.338 . S
C176 H180 0.931 . S
C177 N174 1.313 . S
C177 N178 1.344 . S
C177 H181 0.930 . S
N178 C175 1.377 . S
N178 C177 1.344 . S
O179 Co171 2.055 . S
O179 C183 1.253 . S
H180 C176 0.931 . S
H181 C177 0.930 . S
O182 Co171 2.039 . S
O182 C172 1.265 . S
C183 O179 1.253 . S
C183 O184 1.227 . S
O184 C183 1.227 . S
N185 Co171 2.140 . S
N185 C188 1.346 . S
N185 C189 1.345 . S
C186 C187 1.387 . S
C186 C190 1.391 . S
C187 C186 1.387 . S
C187 C188 1.369 . S
C187 H196 0.929 . S
C188 N185 1.346 . S
C188 C187 1.369 . S
C188 H191 0.928 . S
C189 N185 1.345 . S
C189 C190 1.371 . S
C189 H192 0.931 . S
C190 C186 1.391 . S
C190 C189 1.371 . S
C190 H197 0.930 . S
H191 C188 0.928 . S
H192 C189 0.931 . S
H193 C169 0.930 . S
H194 C166 0.930 . S
H195 C175 0.930 . S
H196 C187 0.929 . S
H197 C190 0.930 . S
C198 C199 1.351 . S
C198 N201 1.368 . S
C198 H203 0.931 . S
C199 C198 1.351 . S
C199 N200 1.373 . S
C199 H227 0.930 . S
N200 C199 1.373 . S
N200 C202 1.340 . S
N201 C198 1.368 . S
N201 C202 1.321 . S
N201 Co204 2.135 . S
C202 N200 1.340 . S
C202 N201 1.321 . S
C202 H226 0.930 . S
H203 C198 0.931 . S
Co204 N201 2.135 . S
Co204 N207 2.121 . S
Co204 O212 2.055 . S
Co204 O215 2.039 . S
Co204 N218 2.140 . S
C205 O206 1.227 . S
C205 O215 1.265 . S
O206 C205 1.227 . S
N207 Co204 2.121 . S
N207 C209 1.375 . S
N207 C210 1.313 . S
C208 C209 1.338 . S
C208 N211 1.377 . S
C208 H228 0.930 . S
C209 N207 1.375 . S
C209 C208 1.338 . S
C209 H213 0.931 . S
C210 N207 1.313 . S
C210 N211 1.344 . S
C210 H214 0.930 . S
N211 C208 1.377 . S
N211 C210 1.344 . S
O212 Co204 2.055 . S
O212 C216 1.253 . S
H213 C209 0.931 . S
H214 C210 0.930 . S
O215 Co204 2.039 . S
O215 C205 1.265 . S
C216 O212 1.253 . S
C216 O217 1.227 . S
O217 C216 1.227 . S
N218 Co204 2.140 . S
N218 C221 1.346 . S
N218 C222 1.345 . S
C219 C220 1.387 . S
C219 C223 1.391 . S
C220 C219 1.387 . S
C220 C221 1.369 . S
C220 H229 0.929 . S
C221 N218 1.346 . S
C221 C220 1.369 . S
C221 H224 0.928 . S
C222 N218 1.345 . S
C222 C223 1.371 . S
C222 H225 0.931 . S
C223 C219 1.391 . S
C223 C222 1.371 . S
C223 H230 0.930 . S
H224 C221 0.928 . S
H225 C222 0.931 . S
H226 C202 0.930 . S
H227 C199 0.930 . S
H228 C208 0.930 . S
H229 C220 0.929 . S
H230 C223 0.930 . S
C231 C232 1.351 . S
C231 N234 1.368 . S
C231 H236 0.931 . S
C232 C231 1.351 . S
C232 N233 1.373 1_455 S
C232 H260 0.930 . S
N233 C232 1.373 1_655 S
N233 C235 1.340 . S
N234 C231 1.368 . S
N234 C235 1.321 1_455 S
N234 Co237 2.135 . S
C235 N233 1.340 . S
C235 N234 1.321 1_655 S
C235 H259 0.930 . S
H236 C231 0.931 . S
Co237 N234 2.135 . S
Co237 N240 2.121 1_556 S
Co237 O245 2.072 . S
Co237 O248 2.039 . S
Co237 N251 2.140 . S
C238 O239 1.227 . S
C238 O248 1.265 . S
O239 C238 1.227 . S
N240 Co237 2.121 1_554 S
N240 C242 1.375 . S
N240 C243 1.313 . S
C241 C242 1.338 . S
C241 N244 1.377 . S
C241 H261 0.930 . S
C242 N240 1.375 . S
C242 C241 1.338 . S
C242 H246 0.931 . S
C243 N240 1.313 . S
C243 N244 1.344 . S
C243 H247 0.930 . S
N244 C241 1.377 . S
N244 C243 1.344 . S
O245 Co237 2.072 . S
O245 C249 1.261 . S
H246 C242 0.931 . S
H247 C243 0.930 . S
O248 Co237 2.039 . S
O248 C238 1.265 . S
C249 O245 1.261 . S
C249 O250 1.227 . S
O250 C249 1.227 . S
N251 Co237 2.140 . S
N251 C254 1.346 . S
N251 C255 1.345 . S
C252 C253 1.387 . S
C252 C256 1.391 . S
C253 C252 1.387 . S
C253 C254 1.369 . S
C253 H262 0.929 . S
C254 N251 1.346 . S
C254 C253 1.369 . S
C254 H257 0.928 . S
C255 N251 1.345 . S
C255 C256 1.371 . S
C255 H258 0.931 . S
C256 C252 1.391 . S
C256 C255 1.371 . S
C256 H263 0.930 . S
H257 C254 0.928 . S
H258 C255 0.931 . S
H259 C235 0.930 . S
H260 C232 0.930 . S
H261 C241 0.930 . S
H262 C253 0.929 . S
H263 C256 0.930 . S
C264 C265 1.351 . S
C264 N267 1.368 . S
C264 H269 0.931 . S
C265 C264 1.351 . S
C265 N266 1.373 . S
C265 H293 0.930 . S
N266 C265 1.373 . S
N266 C268 1.340 . S
N267 C264 1.368 . S
N267 C268 1.321 . S
N267 Co270 2.135 . S
C268 N266 1.340 . S
C268 N267 1.321 . S
C268 H292 0.930 . S
H269 C264 0.931 . S
Co270 N267 2.135 . S
Co270 N273 2.121 . S
Co270 O278 2.055 . S
Co270 O281 2.039 . S
Co270 N284 2.140 . S
C271 O272 1.227 . S
C271 O281 1.265 . S
O272 C271 1.227 . S
N273 Co270 2.121 . S
N273 C275 1.375 . S
N273 C276 1.313 . S
C274 C275 1.338 . S
C274 N277 1.377 . S
C274 H294 0.930 . S
C275 N273 1.375 . S
C275 C274 1.338 . S
C275 H279 0.931 . S
C276 N273 1.313 . S
C276 N277 1.344 . S
C276 H280 0.930 . S
N277 C274 1.377 . S
N277 C276 1.344 . S
O278 Co270 2.055 . S
O278 C282 1.253 . S
H279 C275 0.931 . S
H280 C276 0.930 . S
O281 Co270 2.039 . S
O281 C271 1.265 . S
C282 O278 1.253 . S
C282 O283 1.227 . S
O283 C282 1.227 . S
N284 Co270 2.140 . S
N284 C287 1.346 . S
N284 C288 1.345 . S
C285 C286 1.387 . S
C285 C289 1.391 . S
C286 C285 1.387 . S
C286 C287 1.369 . S
C286 H295 0.929 . S
C287 N284 1.346 . S
C287 C286 1.369 . S
C287 H290 0.928 . S
C288 N284 1.345 . S
C288 C289 1.371 . S
C288 H291 0.931 . S
C289 C285 1.391 . S
C289 C288 1.371 . S
C289 H296 0.930 . S
H290 C287 0.928 . S
H291 C288 0.931 . S
H292 C268 0.930 . S
H293 C265 0.930 . S
H294 C274 0.930 . S
H295 C286 0.929 . S
H296 C289 0.930 . S
C297 C298 1.351 . S
C297 N300 1.368 . S
C297 H302 0.931 . S
C298 C297 1.351 . S
C298 N299 1.373 1_655 S
C298 H326 0.930 . S
N299 C298 1.373 1_455 S
N299 C301 1.340 . S
N300 C297 1.368 . S
N300 C301 1.321 1_655 S
N300 Co303 2.135 . S
C301 N299 1.340 . S
C301 N300 1.321 1_455 S
C301 H325 0.930 . S
H302 C297 0.931 . S
Co303 N300 2.135 . S
Co303 N306 2.121 . S
Co303 O311 2.055 . S
Co303 O314 2.039 . S
Co303 N317 2.140 . S
C304 O305 1.227 . S
C304 O314 1.265 . S
O305 C304 1.227 . S
N306 Co303 2.121 . S
N306 C308 1.375 . S
N306 C309 1.313 . S
C307 C308 1.338 . S
C307 N310 1.377 . S
C307 H327 0.930 . S
C308 N306 1.375 . S
C308 C307 1.338 . S
C308 H312 0.931 . S
C309 N306 1.313 . S
C309 N310 1.344 . S
C309 H313 0.930 . S
N310 C307 1.377 . S
N310 C309 1.344 . S
O311 Co303 2.055 . S
O311 C315 1.253 . S
H312 C308 0.931 . S
H313 C309 0.930 . S
O314 Co303 2.039 . S
O314 C304 1.265 . S
C315 O311 1.253 . S
C315 O316 1.227 . S
O316 C315 1.227 . S
N317 Co303 2.140 . S
N317 C320 1.346 . S
N317 C321 1.345 . S
C318 C319 1.387 . S
C318 C322 1.391 . S
C319 C318 1.387 . S
C319 C320 1.369 . S
C319 H328 0.929 . S
C320 N317 1.346 . S
C320 C319 1.369 . S
C320 H323 0.928 . S
C321 N317 1.345 . S
C321 C322 1.371 . S
C321 H324 0.931 . S
C322 C318 1.391 . S
C322 C321 1.371 . S
C322 H329 0.930 . S
H323 C320 0.928 . S
H324 C321 0.931 . S
H325 C301 0.930 . S
H326 C298 0.930 . S
H327 C307 0.930 . S
H328 C319 0.929 . S
H329 C322 0.930 . S
C330 C331 1.351 . S
C330 N333 1.368 . S
C330 H335 0.931 . S
C331 C330 1.351 . S
C331 N332 1.373 . S
C331 H359 0.930 . S
N332 C331 1.373 . S
N332 C334 1.340 . S
N333 C330 1.368 . S
N333 C334 1.321 . S
N333 Co336 2.135 . S
C334 N332 1.340 . S
C334 N333 1.321 . S
C334 H358 0.930 . S
H335 C330 0.931 . S
Co336 N333 2.135 . S
Co336 N339 2.121 . S
Co336 O344 2.055 . S
Co336 O347 2.039 . S
Co336 N350 2.140 . S
C337 O338 1.227 . S
C337 O347 1.265 . S
O338 C337 1.227 . S
N339 Co336 2.121 . S
N339 C341 1.375 . S
N339 C342 1.313 . S
C340 C341 1.338 . S
C340 N343 1.377 . S
C340 H360 0.930 . S
C341 N339 1.375 . S
C341 C340 1.338 . S
C341 H345 0.931 . S
C342 N339 1.313 . S
C342 N343 1.344 . S
C342 H346 0.930 . S
N343 C340 1.377 . S
N343 C342 1.344 . S
O344 Co336 2.055 . S
O344 C348 1.253 . S
H345 C341 0.931 . S
H346 C342 0.930 . S
O347 Co336 2.039 . S
O347 C337 1.265 . S
C348 O344 1.253 . S
C348 O349 1.227 . S
O349 C348 1.227 . S
N350 Co336 2.140 . S
N350 C353 1.346 . S
N350 C354 1.345 . S
C351 C352 1.387 . S
C351 C355 1.391 . S
C352 C351 1.387 . S
C352 C353 1.369 . S
C352 H361 0.929 . S
C353 N350 1.346 . S
C353 C352 1.369 . S
C353 H356 0.928 . S
C354 N350 1.345 . S
C354 C355 1.371 . S
C354 H357 0.931 . S
C355 C351 1.391 . S
C355 C354 1.371 . S
C355 H362 0.930 . S
H356 C353 0.928 . S
H357 C354 0.931 . S
H358 C334 0.930 . S
H359 C331 0.930 . S
H360 C340 0.930 . S
H361 C352 0.929 . S
H362 C355 0.930 . S
C363 C364 1.351 . S
C363 N366 1.368 . S
C363 H368 0.931 . S
C364 C363 1.351 . S
C364 N365 1.373 . S
C364 H392 0.930 . S
N365 C364 1.373 . S
N365 C367 1.340 . S
N366 C363 1.368 . S
N366 C367 1.321 . S
N366 Co369 2.135 . S
C367 N365 1.340 . S
C367 N366 1.321 . S
C367 H391 0.930 . S
H368 C363 0.931 . S
Co369 N366 2.135 . S
Co369 N372 2.121 1_556 S
Co369 O377 2.072 . S
Co369 O380 2.039 . S
Co369 N383 2.140 . S
C370 O371 1.227 . S
C370 O380 1.265 . S
O371 C370 1.227 . S
N372 Co369 2.121 1_554 S
N372 C374 1.375 . S
N372 C375 1.313 . S
C373 C374 1.338 . S
C373 N376 1.377 . S
C373 H393 0.930 . S
C374 N372 1.375 . S
C374 C373 1.338 . S
C374 H378 0.931 . S
C375 N372 1.313 . S
C375 N376 1.344 . S
C375 H379 0.930 . S
N376 C373 1.377 . S
N376 C375 1.344 . S
O377 Co369 2.072 . S
O377 C381 1.261 . S
H378 C374 0.931 . S
H379 C375 0.930 . S
O380 Co369 2.039 . S
O380 C370 1.265 . S
C381 O377 1.261 . S
C381 O382 1.227 . S
O382 C381 1.227 . S
N383 Co369 2.140 . S
N383 C386 1.346 . S
N383 C387 1.345 . S
C384 C385 1.387 . S
C384 C388 1.391 . S
C385 C384 1.387 . S
C385 C386 1.369 . S
C385 H394 0.929 . S
C386 N383 1.346 . S
C386 C385 1.369 . S
C386 H389 0.928 . S
C387 N383 1.345 . S
C387 C388 1.371 . S
C387 H390 0.931 . S
C388 C384 1.391 . S
C388 C387 1.371 . S
C388 H395 0.930 . S
H389 C386 0.928 . S
H390 C387 0.931 . S
H391 C367 0.930 . S
H392 C364 0.930 . S
H393 C373 0.930 . S
H394 C385 0.929 . S
H395 C388 0.930 . S
C396 C397 1.351 . S
C396 N399 1.368 . S
C396 H401 0.931 . S
C397 C396 1.351 . S
C397 N398 1.373 . S
C397 H425 0.930 . S
N398 C397 1.373 . S
N398 C400 1.340 . S
N399 C396 1.368 . S
N399 C400 1.321 . S
N399 Co402 2.135 . S
C400 N398 1.340 . S
C400 N399 1.321 . S
C400 H424 0.930 . S
H401 C396 0.931 . S
Co402 N399 2.135 . S
Co402 N405 2.121 . S
Co402 O410 2.055 . S
Co402 O413 2.039 . S
Co402 N416 2.140 . S
C403 O404 1.227 . S
C403 O413 1.265 . S
O404 C403 1.227 . S
N405 Co402 2.121 . S
N405 C407 1.375 . S
N405 C408 1.313 . S
C406 C407 1.338 . S
C406 N409 1.377 . S
C406 H426 0.930 . S
C407 N405 1.375 . S
C407 C406 1.338 . S
C407 H411 0.931 . S
C408 N405 1.313 . S
C408 N409 1.344 . S
C408 H412 0.930 . S
N409 C406 1.377 . S
N409 C408 1.344 . S
O410 Co402 2.055 . S
O410 C414 1.253 . S
H411 C407 0.931 . S
H412 C408 0.930 . S
O413 Co402 2.039 . S
O413 C403 1.265 . S
C414 O410 1.253 . S
C414 O415 1.227 . S
O415 C414 1.227 . S
N416 Co402 2.140 . S
N416 C419 1.346 . S
N416 C420 1.345 . S
C417 C418 1.387 . S
C417 C421 1.391 . S
C418 C417 1.387 . S
C418 C419 1.369 . S
C418 H427 0.929 . S
C419 N416 1.346 . S
C419 C418 1.369 . S
C419 H422 0.928 . S
C420 N416 1.345 . S
C420 C421 1.371 . S
C420 H423 0.931 . S
C421 C417 1.391 . S
C421 C420 1.371 . S
C421 H428 0.930 . S
H422 C419 0.928 . S
H423 C420 0.931 . S
H424 C400 0.930 . S
H425 C397 0.930 . S
H426 C406 0.930 . S
H427 C418 0.929 . S
H428 C421 0.930 . S
C429 C430 1.351 . S
C429 N432 1.368 . S
C429 H434 0.931 . S
C430 C429 1.351 . S
C430 N431 1.373 . S
C430 H458 0.930 . S
N431 C430 1.373 . S
N431 C433 1.340 . S
N432 C429 1.368 . S
N432 C433 1.321 . S
N432 Co435 2.135 . S
C433 N431 1.340 . S
C433 N432 1.321 . S
C433 H457 0.930 . S
H434 C429 0.931 . S
Co435 N432 2.135 . S
Co435 N438 2.121 . S
Co435 O443 2.055 . S
Co435 O446 2.039 . S
Co435 N449 2.140 . S
C436 O437 1.227 . S
C436 O446 1.265 . S
O437 C436 1.227 . S
N438 Co435 2.121 . S
N438 C440 1.375 . S
N438 C441 1.313 . S
C439 C440 1.338 . S
C439 N442 1.377 . S
C439 H459 0.930 . S
C440 N438 1.375 . S
C440 C439 1.338 . S
C440 H444 0.931 . S
C441 N438 1.313 . S
C441 N442 1.344 . S
C441 H445 0.930 . S
N442 C439 1.377 . S
N442 C441 1.344 . S
O443 Co435 2.055 . S
O443 C447 1.253 . S
H444 C440 0.931 . S
H445 C441 0.930 . S
O446 Co435 2.039 . S
O446 C436 1.265 . S
C447 O443 1.253 . S
C447 O448 1.227 . S
O448 C447 1.227 . S
N449 Co435 2.140 . S
N449 C452 1.346 . S
N449 C453 1.345 . S
C450 C451 1.387 . S
C450 C454 1.391 . S
C451 C450 1.387 . S
C451 C452 1.369 . S
C451 H460 0.929 . S
C452 N449 1.346 . S
C452 C451 1.369 . S
C452 H455 0.928 . S
C453 N449 1.345 . S
C453 C454 1.371 . S
C453 H456 0.931 . S
C454 C450 1.391 . S
C454 C453 1.371 . S
C454 H461 0.930 . S
H455 C452 0.928 . S
H456 C453 0.931 . S
H457 C433 0.930 . S
H458 C430 0.930 . S
H459 C439 0.930 . S
H460 C451 0.929 . S
H461 C454 0.930 . S
C462 C463 1.351 . S
C462 N465 1.368 . S
C462 H467 0.931 . S
C463 C462 1.351 . S
C463 N464 1.373 . S
C463 H491 0.930 . S
N464 C463 1.373 . S
N464 C466 1.340 . S
N465 C462 1.368 . S
N465 C466 1.321 . S
N465 Co468 2.135 . S
C466 N464 1.340 . S
C466 N465 1.321 . S
C466 H490 0.930 . S
H467 C462 0.931 . S
Co468 N465 2.135 . S
Co468 N471 2.121 . S
Co468 O476 2.055 . S
Co468 O479 2.039 . S
Co468 N482 2.140 . S
C469 O470 1.227 . S
C469 O479 1.265 . S
O470 C469 1.227 . S
N471 Co468 2.121 . S
N471 C473 1.375 . S
N471 C474 1.313 . S
C472 C473 1.338 . S
C472 N475 1.377 . S
C472 H492 0.930 . S
C473 N471 1.375 . S
C473 C472 1.338 . S
C473 H477 0.931 . S
C474 N471 1.313 . S
C474 N475 1.344 . S
C474 H478 0.930 . S
N475 C472 1.377 . S
N475 C474 1.344 . S
O476 Co468 2.055 . S
O476 C480 1.253 . S
H477 C473 0.931 . S
H478 C474 0.930 . S
O479 Co468 2.039 . S
O479 C469 1.265 . S
C480 O476 1.253 . S
C480 O481 1.227 . S
O481 C480 1.227 . S
N482 Co468 2.140 . S
N482 C485 1.346 . S
N482 C486 1.345 . S
C483 C484 1.387 . S
C483 C487 1.391 . S
C484 C483 1.387 . S
C484 C485 1.369 . S
C484 H493 0.929 . S
C485 N482 1.346 . S
C485 C484 1.369 . S
C485 H488 0.928 . S
C486 N482 1.345 . S
C486 C487 1.371 . S
C486 H489 0.931 . S
C487 C483 1.391 . S
C487 C486 1.371 . S
C487 H494 0.930 . S
H488 C485 0.928 . S
H489 C486 0.931 . S
H490 C466 0.930 . S
H491 C463 0.930 . S
H492 C472 0.930 . S
H493 C484 0.929 . S
H494 C487 0.930 . S
C495 C496 1.351 . S
C495 N498 1.368 . S
C495 H500 0.931 . S
C496 C495 1.351 . S
C496 N497 1.373 1_655 S
C496 H524 0.930 . S
N497 C496 1.373 1_455 S
N497 C499 1.340 . S
N498 C495 1.368 . S
N498 C499 1.321 1_655 S
N498 Co501 2.135 . S
C499 N497 1.340 . S
C499 N498 1.321 1_455 S
C499 H523 0.930 . S
H500 C495 0.931 . S
Co501 N498 2.135 . S
Co501 N504 2.121 1_554 S
Co501 O509 2.072 . S
Co501 O512 2.039 . S
Co501 N515 2.140 . S
C502 O503 1.227 . S
C502 O512 1.265 . S
O503 C502 1.227 . S
N504 Co501 2.121 1_556 S
N504 C506 1.375 . S
N504 C507 1.313 . S
C505 C506 1.338 . S
C505 N508 1.377 . S
C505 H525 0.930 . S
C506 N504 1.375 . S
C506 C505 1.338 . S
C506 H510 0.931 . S
C507 N504 1.313 . S
C507 N508 1.344 . S
C507 H511 0.930 . S
N508 C505 1.377 . S
N508 C507 1.344 . S
O509 Co501 2.072 . S
O509 C513 1.261 . S
H510 C506 0.931 . S
H511 C507 0.930 . S
O512 Co501 2.039 . S
O512 C502 1.265 . S
C513 O509 1.261 . S
C513 O514 1.227 . S
O514 C513 1.227 . S
N515 Co501 2.140 . S
N515 C518 1.346 . S
N515 C519 1.345 . S
C516 C517 1.387 . S
C516 C520 1.391 . S
C517 C516 1.387 . S
C517 C518 1.369 . S
C517 H526 0.929 . S
C518 N515 1.346 . S
C518 C517 1.369 . S
C518 H521 0.928 . S
C519 N515 1.345 . S
C519 C520 1.371 . S
C519 H522 0.931 . S
C520 C516 1.391 . S
C520 C519 1.371 . S
C520 H527 0.930 . S
H521 C518 0.928 . S
H522 C519 0.931 . S
H523 C499 0.930 . S
H524 C496 0.930 . S
H525 C505 0.930 . S
H526 C517 0.929 . S
H527 C520 0.930 . S
C528 C529 1.351 . S
C528 N531 1.368 . S
C528 H533 0.931 . S
C529 C528 1.351 . S
C529 N530 1.373 . S
C529 H557 0.930 . S
N530 C529 1.373 . S
N530 C532 1.340 . S
N531 C528 1.368 . S
N531 C532 1.321 . S
N531 Co534 2.135 . S
C532 N530 1.340 . S
C532 N531 1.321 . S
C532 H556 0.930 . S
H533 C528 0.931 . S
Co534 N531 2.135 . S
Co534 N537 2.121 . S
Co534 O542 2.055 . S
Co534 O545 2.039 . S
Co534 N548 2.140 . S
C535 O536 1.227 . S
C535 O545 1.265 . S
O536 C535 1.227 . S
N537 Co534 2.121 . S
N537 C539 1.375 . S
N537 C540 1.313 . S
C538 C539 1.338 . S
C538 N541 1.377 . S
C538 H558 0.930 . S
C539 N537 1.375 . S
C539 C538 1.338 . S
C539 H543 0.931 . S
C540 N537 1.313 . S
C540 N541 1.344 . S
C540 H544 0.930 . S
N541 C538 1.377 . S
N541 C540 1.344 . S
O542 Co534 2.055 . S
O542 C546 1.253 . S
H543 C539 0.931 . S
H544 C540 0.930 . S
O545 Co534 2.039 . S
O545 C535 1.265 . S
C546 O542 1.253 . S
C546 O547 1.227 . S
O547 C546 1.227 . S
N548 Co534 2.140 . S
N548 C551 1.346 . S
N548 C552 1.345 . S
C549 C550 1.387 . S
C549 C553 1.391 . S
C550 C549 1.387 . S
C550 C551 1.369 . S
C550 H559 0.929 . S
C551 N548 1.346 . S
C551 C550 1.369 . S
C551 H554 0.928 . S
C552 N548 1.345 . S
C552 C553 1.371 . S
C552 H555 0.931 . S
C553 C549 1.391 . S
C553 C552 1.371 . S
C553 H560 0.930 . S
H554 C551 0.928 . S
H555 C552 0.931 . S
H556 C532 0.930 . S
H557 C529 0.930 . S
H558 C538 0.930 . S
H559 C550 0.929 . S
H560 C553 0.930 . S
C561 C562 1.351 . S
C561 N564 1.368 . S
C561 H566 0.931 . S
C562 C561 1.351 . S
C562 N563 1.373 . S
C562 H590 0.930 . S
N563 C562 1.373 . S
N563 C565 1.340 . S
N564 C561 1.368 . S
N564 C565 1.321 . S
N564 Co567 2.135 . S
C565 N563 1.340 . S
C565 N564 1.321 . S
C565 H589 0.930 . S
H566 C561 0.931 . S
Co567 N564 2.135 . S
Co567 N570 2.121 1_554 S
Co567 O575 2.072 . S
Co567 O578 2.039 . S
Co567 N581 2.140 . S
C568 O569 1.227 . S
C568 O578 1.265 . S
O569 C568 1.227 . S
N570 Co567 2.121 1_556 S
N570 C572 1.375 . S
N570 C573 1.313 . S
C571 C572 1.338 . S
C571 N574 1.377 . S
C571 H591 0.930 . S
C572 N570 1.375 . S
C572 C571 1.338 . S
C572 H576 0.931 . S
C573 N570 1.313 . S
C573 N574 1.344 . S
C573 H577 0.930 . S
N574 C571 1.377 . S
N574 C573 1.344 . S
O575 Co567 2.072 . S
O575 C579 1.261 . S
H576 C572 0.931 . S
H577 C573 0.930 . S
O578 Co567 2.039 . S
O578 C568 1.265 . S
C579 O575 1.261 . S
C579 O580 1.227 . S
O580 C579 1.227 . S
N581 Co567 2.140 . S
N581 C584 1.346 . S
N581 C585 1.345 . S
C582 C583 1.387 . S
C582 C586 1.391 . S
C583 C582 1.387 . S
C583 C584 1.369 . S
C583 H592 0.929 . S
C584 N581 1.346 . S
C584 C583 1.369 . S
C584 H587 0.928 . S
C585 N581 1.345 . S
C585 C586 1.371 . S
C585 H588 0.931 . S
C586 C582 1.391 . S
C586 C585 1.371 . S
C586 H593 0.930 . S
H587 C584 0.928 . S
H588 C585 0.931 . S
H589 C565 0.930 . S
H590 C562 0.930 . S
H591 C571 0.930 . S
H592 C583 0.929 . S
H593 C586 0.930 . S
C594 C595 1.351 . S
C594 N597 1.368 . S
C594 H599 0.931 . S
C595 C594 1.351 . S
C595 N596 1.373 . S
C595 H623 0.930 . S
N596 C595 1.373 . S
N596 C598 1.340 . S
N597 C594 1.368 . S
N597 C598 1.321 . S
N597 Co600 2.135 . S
C598 N596 1.340 . S
C598 N597 1.321 . S
C598 H622 0.930 . S
H599 C594 0.931 . S
Co600 N597 2.135 . S
Co600 N603 2.121 . S
Co600 O608 2.055 . S
Co600 O611 2.039 . S
Co600 N614 2.140 . S
C601 O602 1.227 . S
C601 O611 1.265 . S
O602 C601 1.227 . S
N603 Co600 2.121 . S
N603 C605 1.375 . S
N603 C606 1.313 . S
C604 C605 1.338 . S
C604 N607 1.377 . S
C604 H624 0.930 . S
C605 N603 1.375 . S
C605 C604 1.338 . S
C605 H609 0.931 . S
C606 N603 1.313 . S
C606 N607 1.344 . S
C606 H610 0.930 . S
N607 C604 1.377 . S
N607 C606 1.344 . S
O608 Co600 2.055 . S
O608 C612 1.253 . S
H609 C605 0.931 . S
H610 C606 0.930 . S
O611 Co600 2.039 . S
O611 C601 1.265 . S
C612 O608 1.253 . S
C612 O613 1.227 . S
O613 C612 1.227 . S
N614 Co600 2.140 . S
N614 C617 1.346 . S
N614 C618 1.345 . S
C615 C616 1.387 . S
C615 C619 1.391 . S
C616 C615 1.387 . S
C616 C617 1.369 . S
C616 H625 0.929 . S
C617 N614 1.346 . S
C617 C616 1.369 . S
C617 H620 0.928 . S
C618 N614 1.345 . S
C618 C619 1.371 . S
C618 H621 0.931 . S
C619 C615 1.391 . S
C619 C618 1.371 . S
C619 H626 0.930 . S
H620 C617 0.928 . S
H621 C618 0.931 . S
H622 C598 0.930 . S
H623 C595 0.930 . S
H624 C604 0.930 . S
H625 C616 0.929 . S
H626 C619 0.930 . S
C627 C628 1.351 . S
C627 N630 1.368 . S
C627 H632 0.931 . S
C628 C627 1.351 . S
C628 N629 1.373 1_655 S
C628 H656 0.930 . S
N629 C628 1.373 1_455 S
N629 C631 1.340 . S
N630 C627 1.368 . S
N630 C631 1.321 1_655 S
N630 Co633 2.135 . S
C631 N629 1.340 . S
C631 N630 1.321 1_455 S
C631 H655 0.930 . S
H632 C627 0.931 . S
Co633 N630 2.135 . S
Co633 N636 2.121 . S
Co633 O641 2.055 . S
Co633 O644 2.039 . S
Co633 N647 2.140 . S
C634 O635 1.227 . S
C634 O644 1.265 . S
O635 C634 1.227 . S
N636 Co633 2.121 . S
N636 C638 1.375 . S
N636 C639 1.313 . S
C637 C638 1.338 . S
C637 N640 1.377 . S
C637 H657 0.930 . S
C638 N636 1.375 . S
C638 C637 1.338 . S
C638 H642 0.931 . S
C639 N636 1.313 . S
C639 N640 1.344 . S
C639 H643 0.930 . S
N640 C637 1.377 . S
N640 C639 1.344 . S
O641 Co633 2.055 . S
O641 C645 1.253 . S
H642 C638 0.931 . S
H643 C639 0.930 . S
O644 Co633 2.039 . S
O644 C634 1.265 . S
C645 O641 1.253 . S
C645 O646 1.227 . S
O646 C645 1.227 . S
N647 Co633 2.140 . S
N647 C650 1.346 . S
N647 C651 1.345 . S
C648 C649 1.387 . S
C648 C652 1.391 . S
C649 C648 1.387 . S
C649 C650 1.369 . S
C649 H658 0.929 . S
C650 N647 1.346 . S
C650 C649 1.369 . S
C650 H653 0.928 . S
C651 N647 1.345 . S
C651 C652 1.371 . S
C651 H654 0.931 . S
C652 C648 1.391 . S
C652 C651 1.371 . S
C652 H659 0.930 . S
H653 C650 0.928 . S
H654 C651 0.931 . S
H655 C631 0.930 . S
H656 C628 0.930 . S
H657 C637 0.930 . S
H658 C649 0.929 . S
H659 C652 0.930 . S
C660 C661 1.351 . S
C660 N663 1.368 . S
C660 H665 0.931 . S
C661 C660 1.351 . S
C661 N662 1.373 . S
C661 H689 0.930 . S
N662 C661 1.373 . S
N662 C664 1.340 . S
N663 C660 1.368 . S
N663 C664 1.321 . S
N663 Co666 2.135 . S
C664 N662 1.340 . S
C664 N663 1.321 . S
C664 H688 0.930 . S
H665 C660 0.931 . S
Co666 N663 2.135 . S
Co666 N669 2.121 . S
Co666 O674 2.055 . S
Co666 O677 2.039 . S
Co666 N680 2.140 . S
C667 O668 1.227 . S
C667 O677 1.265 . S
O668 C667 1.227 . S
N669 Co666 2.121 . S
N669 C671 1.375 . S
N669 C672 1.313 . S
C670 C671 1.338 . S
C670 N673 1.377 . S
C670 H690 0.930 . S
C671 N669 1.375 . S
C671 C670 1.338 . S
C671 H675 0.931 . S
C672 N669 1.313 . S
C672 N673 1.344 . S
C672 H676 0.930 . S
N673 C670 1.377 . S
N673 C672 1.344 . S
O674 Co666 2.055 . S
O674 C678 1.253 . S
H675 C671 0.931 . S
H676 C672 0.930 . S
O677 Co666 2.039 . S
O677 C667 1.265 . S
C678 O674 1.253 . S
C678 O679 1.227 . S
O679 C678 1.227 . S
N680 Co666 2.140 . S
N680 C683 1.346 . S
N680 C684 1.345 . S
C681 C682 1.387 . S
C681 C685 1.391 . S
C682 C681 1.387 . S
C682 C683 1.369 . S
C682 H691 0.929 . S
C683 N680 1.346 . S
C683 C682 1.369 . S
C683 H686 0.928 . S
C684 N680 1.345 . S
C684 C685 1.371 . S
C684 H687 0.931 . S
C685 C681 1.391 . S
C685 C684 1.371 . S
C685 H692 0.930 . S
H686 C683 0.928 . S
H687 C684 0.931 . S
H688 C664 0.930 . S
H689 C661 0.930 . S
H690 C670 0.930 . S
H691 C682 0.929 . S
H692 C685 0.930 . S
C693 C694 1.351 . S
C693 N696 1.368 . S
C693 H698 0.931 . S
C694 C693 1.351 . S
C694 N695 1.373 1_655 S
C694 H722 0.930 . S
N695 C694 1.373 1_455 S
N695 C697 1.340 . S
N696 C693 1.368 . S
N696 C697 1.321 1_655 S
N696 Co699 2.135 . S
C697 N695 1.340 . S
C697 N696 1.321 1_455 S
C697 H721 0.930 . S
H698 C693 0.931 . S
Co699 N696 2.135 . S
Co699 N702 2.121 1_556 S
Co699 O707 2.072 . S
Co699 O710 2.039 . S
Co699 N713 2.140 . S
C700 O701 1.227 . S
C700 O710 1.265 . S
O701 C700 1.227 . S
N702 Co699 2.121 1_554 S
N702 C704 1.375 . S
N702 C705 1.313 . S
C703 C704 1.338 . S
C703 N706 1.377 . S
C703 H723 0.930 . S
C704 N702 1.375 . S
C704 C703 1.338 . S
C704 H708 0.931 . S
C705 N702 1.313 . S
C705 N706 1.344 . S
C705 H709 0.930 . S
N706 C703 1.377 . S
N706 C705 1.344 . S
O707 Co699 2.072 . S
O707 C711 1.261 . S
H708 C704 0.931 . S
H709 C705 0.930 . S
O710 Co699 2.039 . S
O710 C700 1.265 . S
C711 O707 1.261 . S
C711 O712 1.227 . S
O712 C711 1.227 . S
N713 Co699 2.140 . S
N713 C716 1.346 . S
N713 C717 1.345 . S
C714 C715 1.387 . S
C714 C718 1.391 . S
C715 C714 1.387 . S
C715 C716 1.369 . S
C715 H724 0.929 . S
C716 N713 1.346 . S
C716 C715 1.369 . S
C716 H719 0.928 . S
C717 N713 1.345 . S
C717 C718 1.371 . S
C717 H720 0.931 . S
C718 C714 1.391 . S
C718 C717 1.371 . S
C718 H725 0.930 . S
H719 C716 0.928 . S
H720 C717 0.931 . S
H721 C697 0.930 . S
H722 C694 0.930 . S
H723 C703 0.930 . S
H724 C715 0.929 . S
H725 C718 0.930 . S
C726 C727 1.351 . S
C726 N729 1.368 . S
C726 H731 0.931 . S
C727 C726 1.351 . S
C727 N728 1.373 . S
C727 H755 0.930 . S
N728 C727 1.373 . S
N728 C730 1.340 . S
N729 C726 1.368 . S
N729 C730 1.321 . S
N729 Co732 2.135 . S
C730 N728 1.340 . S
C730 N729 1.321 . S
C730 H754 0.930 . S
H731 C726 0.931 . S
Co732 N729 2.135 . S
Co732 N735 2.121 . S
Co732 O740 2.055 . S
Co732 O743 2.039 . S
Co732 N746 2.140 . S
C733 O734 1.227 . S
C733 O743 1.265 . S
O734 C733 1.227 . S
N735 Co732 2.121 . S
N735 C737 1.375 . S
N735 C738 1.313 . S
C736 C737 1.338 . S
C736 N739 1.377 . S
C736 H756 0.930 . S
C737 N735 1.375 . S
C737 C736 1.338 . S
C737 H741 0.931 . S
C738 N735 1.313 . S
C738 N739 1.344 . S
C738 H742 0.930 . S
N739 C736 1.377 . S
N739 C738 1.344 . S
O740 Co732 2.055 . S
O740 C744 1.253 . S
H741 C737 0.931 . S
H742 C738 0.930 . S
O743 Co732 2.039 . S
O743 C733 1.265 . S
C744 O740 1.253 . S
C744 O745 1.227 . S
O745 C744 1.227 . S
N746 Co732 2.140 . S
N746 C749 1.346 . S
N746 C750 1.345 . S
C747 C748 1.387 . S
C747 C751 1.391 . S
C748 C747 1.387 . S
C748 C749 1.369 . S
C748 H757 0.929 . S
C749 N746 1.346 . S
C749 C748 1.369 . S
C749 H752 0.928 . S
C750 N746 1.345 . S
C750 C751 1.371 . S
C750 H753 0.931 . S
C751 C747 1.391 . S
C751 C750 1.371 . S
C751 H758 0.930 . S
H752 C749 0.928 . S
H753 C750 0.931 . S
H754 C730 0.930 . S
H755 C727 0.930 . S
H756 C736 0.930 . S
H757 C748 0.929 . S
H758 C751 0.930 . S
C759 C760 1.351 . S
C759 N762 1.368 . S
C759 H764 0.931 . S
C760 C759 1.351 . S
C760 N761 1.373 . S
C760 H788 0.930 . S
N761 C760 1.373 . S
N761 C763 1.340 . S
N762 C759 1.368 . S
N762 C763 1.321 . S
N762 Co765 2.135 . S
C763 N761 1.340 . S
C763 N762 1.321 . S
C763 H787 0.930 . S
H764 C759 0.931 . S
Co765 N762 2.135 . S
Co765 N768 2.121 . S
Co765 O773 2.055 . S
Co765 O776 2.039 . S
Co765 N779 2.140 . S
C766 O767 1.227 . S
C766 O776 1.265 . S
O767 C766 1.227 . S
N768 Co765 2.121 . S
N768 C770 1.375 . S
N768 C771 1.313 . S
C769 C770 1.338 . S
C769 N772 1.377 . S
C769 H789 0.930 . S
C770 N768 1.375 . S
C770 C769 1.338 . S
C770 H774 0.931 . S
C771 N768 1.313 . S
C771 N772 1.344 . S
C771 H775 0.930 . S
N772 C769 1.377 . S
N772 C771 1.344 . S
O773 Co765 2.055 . S
O773 C777 1.253 . S
H774 C770 0.931 . S
H775 C771 0.930 . S
O776 Co765 2.039 . S
O776 C766 1.265 . S
C777 O773 1.253 . S
C777 O778 1.227 . S
O778 C777 1.227 . S
N779 Co765 2.140 . S
N779 C782 1.346 . S
N779 C783 1.345 . S
C780 C781 1.387 . S
C780 C784 1.391 . S
C781 C780 1.387 . S
C781 C782 1.369 . S
C781 H790 0.929 . S
C782 N779 1.346 . S
C782 C781 1.369 . S
C782 H785 0.928 . S
C783 N779 1.345 . S
C783 C784 1.371 . S
C783 H786 0.931 . S
C784 C780 1.391 . S
C784 C783 1.371 . S
C784 H791 0.930 . S
H785 C782 0.928 . S
H786 C783 0.931 . S
H787 C763 0.930 . S
H788 C760 0.930 . S
H789 C769 0.930 . S
H790 C781 0.929 . S
H791 C784 0.930 . S
C792 C793 1.351 . S
C792 N795 1.368 . S
C792 H797 0.931 . S
C793 C792 1.351 . S
C793 N794 1.373 . S
C793 H821 0.930 . S
N794 C793 1.373 . S
N794 C796 1.340 . S
N795 C792 1.368 . S
N795 C796 1.321 . S
N795 Co798 2.135 . S
C796 N794 1.340 . S
C796 N795 1.321 . S
C796 H820 0.930 . S
H797 C792 0.931 . S
Co798 N795 2.135 . S
Co798 N801 2.121 . S
Co798 O806 2.055 . S
Co798 O809 2.039 . S
Co798 N812 2.140 . S
C799 O800 1.227 . S
C799 O809 1.265 . S
O800 C799 1.227 . S
N801 Co798 2.121 . S
N801 C803 1.375 . S
N801 C804 1.313 . S
C802 C803 1.338 . S
C802 N805 1.377 . S
C802 H822 0.930 . S
C803 N801 1.375 . S
C803 C802 1.338 . S
C803 H807 0.931 . S
C804 N801 1.313 . S
C804 N805 1.344 . S
C804 H808 0.930 . S
N805 C802 1.377 . S
N805 C804 1.344 . S
O806 Co798 2.055 . S
O806 C810 1.253 . S
H807 C803 0.931 . S
H808 C804 0.930 . S
O809 Co798 2.039 . S
O809 C799 1.265 . S
C810 O806 1.253 . S
C810 O811 1.227 . S
O811 C810 1.227 . S
N812 Co798 2.140 . S
N812 C815 1.346 . S
N812 C816 1.345 . S
C813 C814 1.387 . S
C813 C817 1.391 . S
C814 C813 1.387 . S
C814 C815 1.369 . S
C814 H823 0.929 . S
C815 N812 1.346 . S
C815 C814 1.369 . S
C815 H818 0.928 . S
C816 N812 1.345 . S
C816 C817 1.371 . S
C816 H819 0.931 . S
C817 C813 1.391 . S
C817 C816 1.371 . S
C817 H824 0.930 . S
H818 C815 0.928 . S
H819 C816 0.931 . S
H820 C796 0.930 . S
H821 C793 0.930 . S
H822 C802 0.930 . S
H823 C814 0.929 . S
H824 C817 0.930 . S
C825 C826 1.351 . S
C825 N828 1.368 . S
C825 H830 0.931 . S
C826 C825 1.351 . S
C826 N827 1.373 . S
C826 H854 0.930 . S
N827 C826 1.373 . S
N827 C829 1.340 . S
N828 C825 1.368 . S
N828 C829 1.321 . S
N828 Co831 2.135 . S
C829 N827 1.340 . S
C829 N828 1.321 . S
C829 H853 0.930 . S
H830 C825 0.931 . S
Co831 N828 2.135 . S
Co831 N834 2.121 1_556 S
Co831 O839 2.072 . S
Co831 O842 2.039 . S
Co831 N845 2.140 . S
C832 O833 1.227 . S
C832 O842 1.265 . S
O833 C832 1.227 . S
N834 Co831 2.121 1_554 S
N834 C836 1.375 . S
N834 C837 1.313 . S
C835 C836 1.338 . S
C835 N838 1.377 . S
C835 H855 0.930 . S
C836 N834 1.375 . S
C836 C835 1.338 . S
C836 H840 0.931 . S
C837 N834 1.313 . S
C837 N838 1.344 . S
C837 H841 0.930 . S
N838 C835 1.377 . S
N838 C837 1.344 . S
O839 Co831 2.072 . S
O839 C843 1.261 . S
H840 C836 0.931 . S
H841 C837 0.930 . S
O842 Co831 2.039 . S
O842 C832 1.265 . S
C843 O839 1.261 . S
C843 O844 1.227 . S
O844 C843 1.227 . S
N845 Co831 2.140 . S
N845 C848 1.346 . S
N845 C849 1.345 . S
C846 C847 1.387 . S
C846 C850 1.391 . S
C847 C846 1.387 . S
C847 C848 1.369 . S
C847 H856 0.929 . S
C848 N845 1.346 . S
C848 C847 1.369 . S
C848 H851 0.928 . S
C849 N845 1.345 . S
C849 C850 1.371 . S
C849 H852 0.931 . S
C850 C846 1.391 . S
C850 C849 1.371 . S
C850 H857 0.930 . S
H851 C848 0.928 . S
H852 C849 0.931 . S
H853 C829 0.930 . S
H854 C826 0.930 . S
H855 C835 0.930 . S
H856 C847 0.929 . S
H857 C850 0.930 . S
C858 C859 1.351 . S
C858 N861 1.368 . S
C858 H863 0.931 . S
C859 C858 1.351 . S
C859 N860 1.373 . S
C859 H887 0.930 . S
N860 C859 1.373 . S
N860 C862 1.340 . S
N861 C858 1.368 . S
N861 C862 1.321 . S
N861 Co864 2.135 . S
C862 N860 1.340 . S
C862 N861 1.321 . S
C862 H886 0.930 . S
H863 C858 0.931 . S
Co864 N861 2.135 . S
Co864 N867 2.121 . S
Co864 O872 2.055 . S
Co864 O875 2.039 . S
Co864 N878 2.140 . S
C865 O866 1.227 . S
C865 O875 1.265 . S
O866 C865 1.227 . S
N867 Co864 2.121 . S
N867 C869 1.375 . S
N867 C870 1.313 . S
C868 C869 1.338 . S
C868 N871 1.377 . S
C868 H888 0.930 . S
C869 N867 1.375 . S
C869 C868 1.338 . S
C869 H873 0.931 . S
C870 N867 1.313 . S
C870 N871 1.344 . S
C870 H874 0.930 . S
N871 C868 1.377 . S
N871 C870 1.344 . S
O872 Co864 2.055 . S
O872 C876 1.253 . S
H873 C869 0.931 . S
H874 C870 0.930 . S
O875 Co864 2.039 . S
O875 C865 1.265 . S
C876 O872 1.253 . S
C876 O877 1.227 . S
O877 C876 1.227 . S
N878 Co864 2.140 . S
N878 C881 1.346 . S
N878 C882 1.345 . S
C879 C880 1.387 . S
C879 C883 1.391 . S
C880 C879 1.387 . S
C880 C881 1.369 . S
C880 H889 0.929 . S
C881 N878 1.346 . S
C881 C880 1.369 . S
C881 H884 0.928 . S
C882 N878 1.345 . S
C882 C883 1.371 . S
C882 H885 0.931 . S
C883 C879 1.391 . S
C883 C882 1.371 . S
C883 H890 0.930 . S
H884 C881 0.928 . S
H885 C882 0.931 . S
H886 C862 0.930 . S
H887 C859 0.930 . S
H888 C868 0.930 . S
H889 C880 0.929 . S
H890 C883 0.930 . S
C891 C892 1.351 . S
C891 N894 1.368 . S
C891 H896 0.931 . S
C892 C891 1.351 . S
C892 N893 1.373 1_455 S
C892 H920 0.930 . S
N893 C892 1.373 1_655 S
N893 C895 1.340 . S
N894 C891 1.368 . S
N894 C895 1.321 1_455 S
N894 Co897 2.135 . S
C895 N893 1.340 . S
C895 N894 1.321 1_655 S
C895 H919 0.930 . S
H896 C891 0.931 . S
Co897 N894 2.135 . S
Co897 N900 2.121 . S
Co897 O905 2.055 . S
Co897 O908 2.039 . S
Co897 N911 2.140 . S
C898 O899 1.227 . S
C898 O908 1.265 . S
O899 C898 1.227 . S
N900 Co897 2.121 . S
N900 C902 1.375 . S
N900 C903 1.313 . S
C901 C902 1.338 . S
C901 N904 1.377 . S
C901 H921 0.930 . S
C902 N900 1.375 . S
C902 C901 1.338 . S
C902 H906 0.931 . S
C903 N900 1.313 . S
C903 N904 1.344 . S
C903 H907 0.930 . S
N904 C901 1.377 . S
N904 C903 1.344 . S
O905 Co897 2.055 . S
O905 C909 1.253 . S
H906 C902 0.931 . S
H907 C903 0.930 . S
O908 Co897 2.039 . S
O908 C898 1.265 . S
C909 O905 1.253 . S
C909 O910 1.227 . S
O910 C909 1.227 . S
N911 Co897 2.140 . S
N911 C914 1.346 . S
N911 C915 1.345 . S
C912 C913 1.387 . S
C912 C916 1.391 . S
C913 C912 1.387 . S
C913 C914 1.369 . S
C913 H922 0.929 . S
C914 N911 1.346 . S
C914 C913 1.369 . S
C914 H917 0.928 . S
C915 N911 1.345 . S
C915 C916 1.371 . S
C915 H918 0.931 . S
C916 C912 1.391 . S
C916 C915 1.371 . S
C916 H923 0.930 . S
H917 C914 0.928 . S
H918 C915 0.931 . S
H919 C895 0.930 . S
H920 C892 0.930 . S
H921 C901 0.930 . S
H922 C913 0.929 . S
H923 C916 0.930 . S
C924 C925 1.351 . S
C924 N927 1.368 . S
C924 H929 0.931 . S
C925 C924 1.351 . S
C925 N926 1.373 . S
C925 H953 0.930 . S
N926 C925 1.373 . S
N926 C928 1.340 . S
N927 C924 1.368 . S
N927 C928 1.321 . S
N927 Co930 2.135 . S
C928 N926 1.340 . S
C928 N927 1.321 . S
C928 H952 0.930 . S
H929 C924 0.931 . S
Co930 N927 2.135 . S
Co930 N933 2.121 . S
Co930 O938 2.055 . S
Co930 O941 2.039 . S
Co930 N944 2.140 . S
C931 O932 1.227 . S
C931 O941 1.265 . S
O932 C931 1.227 . S
N933 Co930 2.121 . S
N933 C935 1.375 . S
N933 C936 1.313 . S
C934 C935 1.338 . S
C934 N937 1.377 . S
C934 H954 0.930 . S
C935 N933 1.375 . S
C935 C934 1.338 . S
C935 H939 0.931 . S
C936 N933 1.313 . S
C936 N937 1.344 . S
C936 H940 0.930 . S
N937 C934 1.377 . S
N937 C936 1.344 . S
O938 Co930 2.055 . S
O938 C942 1.253 . S
H939 C935 0.931 . S
H940 C936 0.930 . S
O941 Co930 2.039 . S
O941 C931 1.265 . S
C942 O938 1.253 . S
C942 O943 1.227 . S
O943 C942 1.227 . S
N944 Co930 2.140 . S
N944 C947 1.346 . S
N944 C948 1.345 . S
C945 C946 1.387 . S
C945 C949 1.391 . S
C946 C945 1.387 . S
C946 C947 1.369 . S
C946 H955 0.929 . S
C947 N944 1.346 . S
C947 C946 1.369 . S
C947 H950 0.928 . S
C948 N944 1.345 . S
C948 C949 1.371 . S
C948 H951 0.931 . S
C949 C945 1.391 . S
C949 C948 1.371 . S
C949 H956 0.930 . S
H950 C947 0.928 . S
H951 C948 0.931 . S
H952 C928 0.930 . S
H953 C925 0.930 . S
H954 C934 0.930 . S
H955 C946 0.929 . S
H956 C949 0.930 . S
C957 C958 1.351 . S
C957 N960 1.368 . S
C957 H962 0.931 . S
C958 C957 1.351 . S
C958 N959 1.373 1_455 S
C958 H986 0.930 . S
N959 C958 1.373 1_655 S
N959 C961 1.340 . S
N960 C957 1.368 . S
N960 C961 1.321 1_455 S
N960 Co963 2.135 . S
C961 N959 1.340 . S
C961 N960 1.321 1_655 S
C961 H985 0.930 . S
H962 C957 0.931 . S
Co963 N960 2.135 . S
Co963 N966 2.121 1_554 S
Co963 O971 2.072 . S
Co963 O974 2.039 . S
Co963 N977 2.140 . S
C964 O965 1.227 . S
C964 O974 1.265 . S
O965 C964 1.227 . S
N966 Co963 2.121 1_556 S
N966 C968 1.375 . S
N966 C969 1.313 . S
C967 C968 1.338 . S
C967 N970 1.377 . S
C967 H987 0.930 . S
C968 N966 1.375 . S
C968 C967 1.338 . S
C968 H972 0.931 . S
C969 N966 1.313 . S
C969 N970 1.344 . S
C969 H973 0.930 . S
N970 C967 1.377 . S
N970 C969 1.344 . S
O971 Co963 2.072 . S
O971 C975 1.261 . S
H972 C968 0.931 . S
H973 C969 0.930 . S
O974 Co963 2.039 . S
O974 C964 1.265 . S
C975 O971 1.261 . S
C975 O976 1.227 . S
O976 C975 1.227 . S
N977 Co963 2.140 . S
N977 C980 1.346 . S
N977 C981 1.345 . S
C978 C979 1.387 . S
C978 C982 1.391 . S
C979 C978 1.387 . S
C979 C980 1.369 . S
C979 H988 0.929 . S
C980 N977 1.346 . S
C980 C979 1.369 . S
C980 H983 0.928 . S
C981 N977 1.345 . S
C981 C982 1.371 . S
C981 H984 0.931 . S
C982 C978 1.391 . S
C982 C981 1.371 . S
C982 H989 0.930 . S
H983 C980 0.928 . S
H984 C981 0.931 . S
H985 C961 0.930 . S
H986 C958 0.930 . S
H987 C967 0.930 . S
H988 C979 0.929 . S
H989 C982 0.930 . S
C990 C991 1.351 . S
C990 N993 1.368 . S
C990 H995 0.931 . S
C991 C990 1.351 . S
C991 N992 1.373 . S
C991 H1019 0.930 . S
N992 C991 1.373 . S
N992 C994 1.340 . S
N993 C990 1.368 . S
N993 C994 1.321 . S
N993 Co996 2.135 . S
C994 N992 1.340 . S
C994 N993 1.321 . S
C994 H1018 0.930 . S
H995 C990 0.931 . S
Co996 N993 2.135 . S
Co996 N999 2.121 . S
Co996 O1004 2.055 . S
Co996 O1007 2.039 . S
Co996 N1010 2.140 . S
C997 O998 1.227 . S
C997 O1007 1.265 . S
O998 C997 1.227 . S
N999 Co996 2.121 . S
N999 C1001 1.375 . S
N999 C1002 1.313 . S
C1000 C1001 1.338 . S
C1000 N1003 1.377 . S
C1000 H1020 0.930 . S
C1001 N999 1.375 . S
C1001 C1000 1.338 . S
C1001 H1005 0.931 . S
C1002 N999 1.313 . S
C1002 N1003 1.344 . S
C1002 H1006 0.930 . S
N1003 C1000 1.377 . S
N1003 C1002 1.344 . S
O1004 Co996 2.055 . S
O1004 C1008 1.253 . S
H1005 C1001 0.931 . S
H1006 C1002 0.930 . S
O1007 Co996 2.039 . S
O1007 C997 1.265 . S
C1008 O1004 1.253 . S
C1008 O1009 1.227 . S
O1009 C1008 1.227 . S
N1010 Co996 2.140 . S
N1010 C1013 1.346 . S
N1010 C1014 1.345 . S
C1011 C1012 1.387 . S
C1011 C1015 1.391 . S
C1012 C1011 1.387 . S
C1012 C1013 1.369 . S
C1012 H1021 0.929 . S
C1013 N1010 1.346 . S
C1013 C1012 1.369 . S
C1013 H1016 0.928 . S
C1014 N1010 1.345 . S
C1014 C1015 1.371 . S
C1014 H1017 0.931 . S
C1015 C1011 1.391 . S
C1015 C1014 1.371 . S
C1015 H1022 0.930 . S
H1016 C1013 0.928 . S
H1017 C1014 0.931 . S
H1018 C994 0.930 . S
H1019 C991 0.930 . S
H1020 C1000 0.930 . S
H1021 C1012 0.929 . S
H1022 C1015 0.930 . S
C1023 C1024 1.351 . S
C1023 N1026 1.368 . S
C1023 H1028 0.931 . S
C1024 C1023 1.351 . S
C1024 N1025 1.373 . S
C1024 H1052 0.930 . S
N1025 C1024 1.373 . S
N1025 C1027 1.340 . S
N1026 C1023 1.368 . S
N1026 C1027 1.321 . S
N1026 Co1029 2.135 . S
C1027 N1025 1.340 . S
C1027 N1026 1.321 . S
C1027 H1051 0.930 . S
H1028 C1023 0.931 . S
Co1029 N1026 2.135 . S
Co1029 N1032 2.121 . S
Co1029 O1037 2.055 . S
Co1029 O1040 2.039 . S
Co1029 N1043 2.140 . S
C1030 O1031 1.227 . S
C1030 O1040 1.265 . S
O1031 C1030 1.227 . S
N1032 Co1029 2.121 . S
N1032 C1034 1.375 . S
N1032 C1035 1.313 . S
C1033 C1034 1.338 . S
C1033 N1036 1.377 . S
C1033 H1053 0.930 . S
C1034 N1032 1.375 . S
C1034 C1033 1.338 . S
C1034 H1038 0.931 . S
C1035 N1032 1.313 . S
C1035 N1036 1.344 . S
C1035 H1039 0.930 . S
N1036 C1033 1.377 . S
N1036 C1035 1.344 . S
O1037 Co1029 2.055 . S
O1037 C1041 1.253 . S
H1038 C1034 0.931 . S
H1039 C1035 0.930 . S
O1040 Co1029 2.039 . S
O1040 C1030 1.265 . S
C1041 O1037 1.253 . S
C1041 O1042 1.227 . S
O1042 C1041 1.227 . S
N1043 Co1029 2.140 . S
N1043 C1046 1.346 . S
N1043 C1047 1.345 . S
C1044 C1045 1.387 . S
C1044 C1048 1.391 . S
C1045 C1044 1.387 . S
C1045 C1046 1.369 . S
C1045 H1054 0.929 . S
C1046 N1043 1.346 . S
C1046 C1045 1.369 . S
C1046 H1049 0.928 . S
C1047 N1043 1.345 . S
C1047 C1048 1.371 . S
C1047 H1050 0.931 . S
C1048 C1044 1.391 . S
C1048 C1047 1.371 . S
C1048 H1055 0.930 . S
H1049 C1046 0.928 . S
H1050 C1047 0.931 . S
H1051 C1027 0.930 . S
H1052 C1024 0.930 . S
H1053 C1033 0.930 . S
H1054 C1045 0.929 . S
H1055 C1048 0.930 . S
C1056 C1057 1.387 . S
C1056 H1060 0.950 . S
C1056 C1065 1.390 . S
C1057 C1056 1.387 . S
C1057 C1059 1.387 . S
H1058 C1065 0.950 . S
C1059 C1057 1.387 . S
C1059 C1061 1.390 . S
C1059 H1063 0.950 . S
H1060 C1056 0.950 . S
C1061 C1059 1.390 . S
C1061 C1062 1.387 . S
C1061 H1064 0.950 . S
C1062 C1061 1.387 . S
C1062 C1065 1.387 . S
H1063 C1059 0.950 . S
H1064 C1061 0.950 . S
C1065 C1056 1.390 . S
C1065 H1058 0.950 . S
C1065 C1062 1.387 . S
C1066 C1067 1.387 . S
C1066 H1070 0.950 . S
C1066 C1075 1.390 . S
C1067 C1066 1.387 . S
C1067 C1069 1.387 . S
H1068 C1075 0.950 . S
C1069 C1067 1.387 . S
C1069 C1071 1.390 . S
C1069 H1073 0.950 . S
H1070 C1066 0.950 . S
C1071 C1069 1.390 . S
C1071 C1072 1.387 . S
C1071 H1074 0.950 . S
C1072 C1071 1.387 . S
C1072 C1075 1.387 . S
H1073 C1069 0.950 . S
H1074 C1071 0.950 . S
C1075 C1066 1.390 . S
C1075 H1068 0.950 . S
C1075 C1072 1.387 . S
C1076 C1077 1.387 . S
C1076 H1080 0.950 . S
C1076 C1085 1.390 . S
C1077 C1076 1.387 . S
C1077 C1079 1.387 . S
H1078 C1085 0.950 . S
C1079 C1077 1.387 . S
C1079 C1081 1.390 . S
C1079 H1083 0.950 . S
H1080 C1076 0.950 . S
C1081 C1079 1.390 . S
C1081 C1082 1.387 . S
C1081 H1084 0.950 . S
C1082 C1081 1.387 . S
C1082 C1085 1.387 . S
H1083 C1079 0.950 . S
H1084 C1081 0.950 . S
C1085 C1076 1.390 . S
C1085 H1078 0.950 . S
C1085 C1082 1.387 . S
C1086 C1087 1.387 . S
C1086 H1090 0.950 . S
C1086 C1095 1.390 . S
C1087 C1086 1.387 . S
C1087 C1089 1.387 . S
H1088 C1095 0.950 . S
C1089 C1087 1.387 . S
C1089 C1091 1.390 . S
C1089 H1093 0.950 . S
H1090 C1086 0.950 . S
C1091 C1089 1.390 . S
C1091 C1092 1.387 . S
C1091 H1094 0.950 . S
C1092 C1091 1.387 . S
C1092 C1095 1.387 . S
H1093 C1089 0.950 . S
H1094 C1091 0.950 . S
C1095 C1086 1.390 . S
C1095 H1088 0.950 . S
C1095 C1092 1.387 . S
C1096 C1097 1.387 . S
C1096 H1100 0.950 . S
C1096 C1105 1.390 . S
C1097 C1096 1.387 . S
C1097 C1099 1.387 . S
H1098 C1105 0.950 . S
C1099 C1097 1.387 . S
C1099 C1101 1.390 . S
C1099 H1103 0.950 . S
H1100 C1096 0.950 . S
C1101 C1099 1.390 . S
C1101 C1102 1.387 . S
C1101 H1104 0.950 . S
C1102 C1101 1.387 . S
C1102 C1105 1.387 . S
H1103 C1099 0.950 . S
H1104 C1101 0.950 . S
C1105 C1096 1.390 . S
C1105 H1098 0.950 . S
C1105 C1102 1.387 . S
C1106 C1107 1.387 . S
C1106 H1110 0.950 . S
C1106 C1115 1.390 . S
C1107 C1106 1.387 . S
C1107 C1109 1.387 . S
H1108 C1115 0.950 . S
C1109 C1107 1.387 . S
C1109 C1111 1.390 . S
C1109 H1113 0.950 . S
H1110 C1106 0.950 . S
C1111 C1109 1.390 . S
C1111 C1112 1.387 . S
C1111 H1114 0.950 . S
C1112 C1111 1.387 . S
C1112 C1115 1.387 . S
H1113 C1109 0.950 . S
H1114 C1111 0.950 . S
C1115 C1106 1.390 . S
C1115 H1108 0.950 . S
C1115 C1112 1.387 . S
C1116 C1117 1.387 . S
C1116 H1120 0.950 . S
C1116 C1125 1.390 . S
C1117 C1116 1.387 . S
C1117 C1119 1.387 . S
H1118 C1125 0.950 . S
C1119 C1117 1.387 . S
C1119 C1121 1.390 . S
C1119 H1123 0.950 . S
H1120 C1116 0.950 . S
C1121 C1119 1.390 . S
C1121 C1122 1.387 . S
C1121 H1124 0.950 . S
C1122 C1121 1.387 . S
C1122 C1125 1.387 . S
H1123 C1119 0.950 . S
H1124 C1121 0.950 . S
C1125 C1116 1.390 . S
C1125 H1118 0.950 . S
C1125 C1122 1.387 . S
C1126 C1127 1.387 . S
C1126 H1130 0.950 . S
C1126 C1135 1.390 . S
C1127 C1126 1.387 . S
C1127 C1129 1.387 . S
H1128 C1135 0.950 . S
C1129 C1127 1.387 . S
C1129 C1131 1.390 . S
C1129 H1133 0.950 . S
H1130 C1126 0.950 . S
C1131 C1129 1.390 . S
C1131 C1132 1.387 . S
C1131 H1134 0.950 . S
C1132 C1131 1.387 . S
C1132 C1135 1.387 . S
H1133 C1129 0.950 . S
H1134 C1131 0.950 . S
C1135 C1126 1.390 . S
C1135 H1128 0.950 . S
C1135 C1132 1.387 . S
C1136 C1137 1.387 . S
C1136 H1140 0.950 . S
C1136 C1145 1.390 . S
C1137 C1136 1.387 . S
C1137 C1139 1.387 . S
H1138 C1145 0.950 . S
C1139 C1137 1.387 . S
C1139 C1141 1.390 . S
C1139 H1143 0.950 . S
H1140 C1136 0.950 . S
C1141 C1139 1.390 . S
C1141 C1142 1.387 . S
C1141 H1144 0.950 . S
C1142 C1141 1.387 . S
C1142 C1145 1.387 . S
H1143 C1139 0.950 . S
H1144 C1141 0.950 . S
C1145 C1136 1.390 . S
C1145 H1138 0.950 . S
C1145 C1142 1.387 . S
C1146 C1147 1.387 . S
C1146 H1150 0.950 . S
C1146 C1155 1.390 . S
C1147 C1146 1.387 . S
C1147 C1149 1.387 . S
H1148 C1155 0.950 . S
C1149 C1147 1.387 . S
C1149 C1151 1.390 . S
C1149 H1153 0.950 . S
H1150 C1146 0.950 . S
C1151 C1149 1.390 . S
C1151 C1152 1.387 . S
C1151 H1154 0.950 . S
C1152 C1151 1.387 . S
C1152 C1155 1.387 . S
H1153 C1149 0.950 . S
H1154 C1151 0.950 . S
C1155 C1146 1.390 . S
C1155 H1148 0.950 . S
C1155 C1152 1.387 . S
C1156 C1157 1.387 . S
C1156 H1160 0.950 . S
C1156 C1165 1.390 . S
C1157 C1156 1.387 . S
C1157 C1159 1.387 . S
H1158 C1165 0.950 . S
C1159 C1157 1.387 . S
C1159 C1161 1.390 . S
C1159 H1163 0.950 . S
H1160 C1156 0.950 . S
C1161 C1159 1.390 . S
C1161 C1162 1.387 . S
C1161 H1164 0.950 . S
C1162 C1161 1.387 . S
C1162 C1165 1.387 . S
H1163 C1159 0.950 . S
H1164 C1161 0.950 . S
C1165 C1156 1.390 . S
C1165 H1158 0.950 . S
C1165 C1162 1.387 . S
C1166 C1167 1.387 . S
C1166 H1170 0.950 . S
C1166 C1175 1.390 . S
C1167 C1166 1.387 . S
C1167 C1169 1.387 . S
H1168 C1175 0.950 . S
C1169 C1167 1.387 . S
C1169 C1171 1.390 . S
C1169 H1173 0.950 . S
H1170 C1166 0.950 . S
C1171 C1169 1.390 . S
C1171 C1172 1.387 . S
C1171 H1174 0.950 . S
C1172 C1171 1.387 . S
C1172 C1175 1.387 . S
H1173 C1169 0.950 . S
H1174 C1171 0.950 . S
C1175 C1166 1.390 . S
C1175 H1168 0.950 . S
C1175 C1172 1.387 . S
C1176 C1177 1.387 . S
C1176 H1180 0.950 . S
C1176 C1185 1.390 . S
C1177 C1176 1.387 . S
C1177 C1179 1.387 . S
H1178 C1185 0.950 . S
C1179 C1177 1.387 . S
C1179 C1181 1.390 . S
C1179 H1183 0.950 . S
H1180 C1176 0.950 . S
C1181 C1179 1.390 . S
C1181 C1182 1.387 . S
C1181 H1184 0.950 . S
C1182 C1181 1.387 . S
C1182 C1185 1.387 . S
H1183 C1179 0.950 . S
H1184 C1181 0.950 . S
C1185 C1176 1.390 . S
C1185 H1178 0.950 . S
C1185 C1182 1.387 . S
C1186 C1187 1.387 . S
C1186 H1190 0.950 . S
C1186 C1195 1.390 . S
C1187 C1186 1.387 . S
C1187 C1189 1.387 . S
H1188 C1195 0.950 . S
C1189 C1187 1.387 . S
C1189 C1191 1.390 . S
C1189 H1193 0.950 . S
H1190 C1186 0.950 . S
C1191 C1189 1.390 . S
C1191 C1192 1.387 . S
C1191 H1194 0.950 . S
C1192 C1191 1.387 . S
C1192 C1195 1.387 . S
H1193 C1189 0.950 . S
H1194 C1191 0.950 . S
C1195 C1186 1.390 . S
C1195 H1188 0.950 . S
C1195 C1192 1.387 . S
C1196 C1197 1.387 . S
C1196 H1200 0.950 . S
C1196 C1205 1.390 . S
C1197 C1196 1.387 . S
C1197 C1199 1.387 . S
H1198 C1205 0.950 . S
C1199 C1197 1.387 . S
C1199 C1201 1.390 . S
C1199 H1203 0.950 . S
H1200 C1196 0.950 . S
C1201 C1199 1.390 . S
C1201 C1202 1.387 . S
C1201 H1204 0.950 . S
C1202 C1201 1.387 . S
C1202 C1205 1.387 . S
H1203 C1199 0.950 . S
H1204 C1201 0.950 . S
C1205 C1196 1.390 . S
C1205 H1198 0.950 . S
C1205 C1202 1.387 . S
C1206 C1207 1.387 . S
C1206 H1210 0.950 . S
C1206 C1215 1.390 . S
C1207 C1206 1.387 . S
C1207 C1209 1.387 . S
H1208 C1215 0.950 . S
C1209 C1207 1.387 . S
C1209 C1211 1.390 . S
C1209 H1213 0.950 . S
H1210 C1206 0.950 . S
C1211 C1209 1.390 . S
C1211 C1212 1.387 . S
C1211 H1214 0.950 . S
C1212 C1211 1.387 . S
C1212 C1215 1.387 . S
H1213 C1209 0.950 . S
H1214 C1211 0.950 . S
C1215 C1206 1.390 . S
C1215 H1208 0.950 . S
C1215 C1212 1.387 . S
C1216 C1217 1.387 . S
C1216 H1220 0.950 . S
C1216 C1225 1.390 1_655 S
C1217 C1216 1.387 . S
C1217 C1219 1.387 . S
H1218 C1225 0.950 . S
C1219 C1217 1.387 . S
C1219 C1221 1.390 1_655 S
C1219 H1223 0.950 . S
H1220 C1216 0.950 . S
C1221 C1219 1.390 1_455 S
C1221 C1222 1.387 . S
C1221 H1224 0.950 . S
C1222 C1221 1.387 . S
C1222 C1225 1.387 . S
H1223 C1219 0.950 . S
H1224 C1221 0.950 . S
C1225 C1216 1.390 1_455 S
C1225 H1218 0.950 . S
C1225 C1222 1.387 . S
C1226 C1227 1.387 . S
C1226 H1230 0.950 . S
C1226 C1235 1.390 1_655 S
C1227 C1226 1.387 . S
C1227 C1229 1.387 . S
H1228 C1235 0.950 . S
C1229 C1227 1.387 . S
C1229 C1231 1.390 1_655 S
C1229 H1233 0.950 . S
H1230 C1226 0.950 . S
C1231 C1229 1.390 1_455 S
C1231 C1232 1.387 . S
C1231 H1234 0.950 . S
C1232 C1231 1.387 . S
C1232 C1235 1.387 . S
H1233 C1229 0.950 . S
H1234 C1231 0.950 . S
C1235 C1226 1.390 1_455 S
C1235 H1228 0.950 . S
C1235 C1232 1.387 . S
C1236 C1237 1.387 . S
C1236 H1240 0.950 . S
C1236 C1245 1.390 . S
C1237 C1236 1.387 . S
C1237 C1239 1.387 . S
H1238 C1245 0.950 . S
C1239 C1237 1.387 . S
C1239 C1241 1.390 . S
C1239 H1243 0.950 . S
H1240 C1236 0.950 . S
C1241 C1239 1.390 . S
C1241 C1242 1.387 . S
C1241 H1244 0.950 . S
C1242 C1241 1.387 . S
C1242 C1245 1.387 . S
H1243 C1239 0.950 . S
H1244 C1241 0.950 . S
C1245 C1236 1.390 . S
C1245 H1238 0.950 . S
C1245 C1242 1.387 . S
C1246 C1247 1.387 . S
C1246 H1250 0.950 . S
C1246 C1255 1.390 . S
C1247 C1246 1.387 . S
C1247 C1249 1.387 1_554 S
H1248 C1255 0.950 . S
C1249 C1247 1.387 1_556 S
C1249 C1251 1.390 . S
C1249 H1253 0.950 . S
H1250 C1246 0.950 . S
C1251 C1249 1.390 . S
C1251 C1252 1.387 1_556 S
C1251 H1254 0.950 . S
C1252 C1251 1.387 1_554 S
C1252 C1255 1.387 . S
H1253 C1249 0.950 . S
H1254 C1251 0.950 . S
C1255 C1246 1.390 . S
C1255 H1248 0.950 . S
C1255 C1252 1.387 . S
C1256 C1257 1.387 . S
C1256 H1260 0.950 . S
C1256 C1265 1.390 1_655 S
C1257 C1256 1.387 . S
C1257 C1259 1.387 . S
H1258 C1265 0.950 . S
C1259 C1257 1.387 . S
C1259 C1261 1.390 1_655 S
C1259 H1263 0.950 . S
H1260 C1256 0.950 . S
C1261 C1259 1.390 1_455 S
C1261 C1262 1.387 . S
C1261 H1264 0.950 . S
C1262 C1261 1.387 . S
C1262 C1265 1.387 . S
H1263 C1259 0.950 . S
H1264 C1261 0.950 . S
C1265 C1256 1.390 1_455 S
C1265 H1258 0.950 . S
C1265 C1262 1.387 . S
C1266 C1267 1.387 . S
C1266 H1270 0.950 . S
C1266 C1275 1.390 . S
C1267 C1266 1.387 . S
C1267 C1269 1.387 . S
H1268 C1275 0.950 . S
C1269 C1267 1.387 . S
C1269 C1271 1.390 . S
C1269 H1273 0.950 . S
H1270 C1266 0.950 . S
C1271 C1269 1.390 . S
C1271 C1272 1.387 . S
C1271 H1274 0.950 . S
C1272 C1271 1.387 . S
C1272 C1275 1.387 . S
H1273 C1269 0.950 . S
H1274 C1271 0.950 . S
C1275 C1266 1.390 . S
C1275 H1268 0.950 . S
C1275 C1272 1.387 . S
C1276 C1277 1.387 . S
C1276 H1280 0.950 . S
C1276 C1285 1.390 . S
C1277 C1276 1.387 . S
C1277 C1279 1.387 . S
H1278 C1285 0.950 . S
C1279 C1277 1.387 . S
C1279 C1281 1.390 . S
C1279 H1283 0.950 . S
H1280 C1276 0.950 . S
C1281 C1279 1.390 . S
C1281 C1282 1.387 . S
C1281 H1284 0.950 . S
C1282 C1281 1.387 . S
C1282 C1285 1.387 . S
H1283 C1279 0.950 . S
H1284 C1281 0.950 . S
C1285 C1276 1.390 . S
C1285 H1278 0.950 . S
C1285 C1282 1.387 . S
C1286 C1287 1.387 . S
C1286 H1290 0.950 . S
C1286 C1295 1.390 1_455 S
C1287 C1286 1.387 . S
C1287 C1289 1.387 1_556 S
H1288 C1295 0.950 . S
C1289 C1287 1.387 1_554 S
C1289 C1291 1.390 1_455 S
C1289 H1293 0.950 . S
H1290 C1286 0.950 . S
C1291 C1289 1.390 1_655 S
C1291 C1292 1.387 1_554 S
C1291 H1294 0.950 . S
C1292 C1291 1.387 1_556 S
C1292 C1295 1.387 . S
H1293 C1289 0.950 . S
H1294 C1291 0.950 . S
C1295 C1286 1.390 1_655 S
C1295 H1288 0.950 . S
C1295 C1292 1.387 . S
C1296 C1297 1.387 . S
C1296 H1300 0.950 . S
C1296 C1305 1.390 1_655 S
C1297 C1296 1.387 . S
C1297 C1299 1.387 . S
H1298 C1305 0.950 . S
C1299 C1297 1.387 . S
C1299 C1301 1.390 1_655 S
C1299 H1303 0.950 . S
H1300 C1296 0.950 . S
C1301 C1299 1.390 1_455 S
C1301 C1302 1.387 . S
C1301 H1304 0.950 . S
C1302 C1301 1.387 . S
C1302 C1305 1.387 . S
H1303 C1299 0.950 . S
H1304 C1301 0.950 . S
C1305 C1296 1.390 1_455 S
C1305 H1298 0.950 . S
C1305 C1302 1.387 . S
C1306 C1307 1.387 . S
C1306 H1310 0.950 . S
C1306 C1315 1.390 1_455 S
C1307 C1306 1.387 . S
C1307 C1309 1.387 . S
H1308 C1315 0.950 . S
C1309 C1307 1.387 . S
C1309 C1311 1.390 1_455 S
C1309 H1313 0.950 . S
H1310 C1306 0.950 . S
C1311 C1309 1.390 1_655 S
C1311 C1312 1.387 . S
C1311 H1314 0.950 . S
C1312 C1311 1.387 . S
C1312 C1315 1.387 . S
H1313 C1309 0.950 . S
H1314 C1311 0.950 . S
C1315 C1306 1.390 1_655 S
C1315 H1308 0.950 . S
C1315 C1312 1.387 . S
C1316 C1317 1.387 . S
C1316 H1320 0.950 . S
C1316 C1325 1.390 . S
C1317 C1316 1.387 . S
C1317 C1319 1.387 . S
H1318 C1325 0.950 . S
C1319 C1317 1.387 . S
C1319 C1321 1.390 . S
C1319 H1323 0.950 . S
H1320 C1316 0.950 . S
C1321 C1319 1.390 . S
C1321 C1322 1.387 . S
C1321 H1324 0.950 . S
C1322 C1321 1.387 . S
C1322 C1325 1.387 . S
H1323 C1319 0.950 . S
H1324 C1321 0.950 . S
C1325 C1316 1.390 . S
C1325 H1318 0.950 . S
C1325 C1322 1.387 . S
C1326 C1327 1.387 . S
C1326 H1330 0.950 . S
C1326 C1335 1.390 . S
C1327 C1326 1.387 . S
C1327 C1329 1.387 1_556 S
H1328 C1335 0.950 . S
C1329 C1327 1.387 1_554 S
C1329 C1331 1.390 . S
C1329 H1333 0.950 . S
H1330 C1326 0.950 . S
C1331 C1329 1.390 . S
C1331 C1332 1.387 1_554 S
C1331 H1334 0.950 . S
C1332 C1331 1.387 1_556 S
C1332 C1335 1.387 . S
H1333 C1329 0.950 . S
H1334 C1331 0.950 . S
C1335 C1326 1.390 . S
C1335 H1328 0.950 . S
C1335 C1332 1.387 . S
C1336 C1337 1.387 . S
C1336 H1340 0.950 . S
C1336 C1345 1.390 1_655 S
C1337 C1336 1.387 . S
C1337 C1339 1.387 . S
H1338 C1345 0.950 . S
C1339 C1337 1.387 . S
C1339 C1341 1.390 1_655 S
C1339 H1343 0.950 . S
H1340 C1336 0.950 . S
C1341 C1339 1.390 1_455 S
C1341 C1342 1.387 . S
C1341 H1344 0.950 . S
C1342 C1341 1.387 . S
C1342 C1345 1.387 . S
H1343 C1339 0.950 . S
H1344 C1341 0.950 . S
C1345 C1336 1.390 1_455 S
C1345 H1338 0.950 . S
C1345 C1342 1.387 . S
C1346 C1347 1.387 . S
C1346 H1350 0.950 . S
C1346 C1355 1.390 . S
C1347 C1346 1.387 . S
C1347 C1349 1.387 . S
H1348 C1355 0.950 . S
C1349 C1347 1.387 . S
C1349 C1351 1.390 . S
C1349 H1353 0.950 . S
H1350 C1346 0.950 . S
C1351 C1349 1.390 . S
C1351 C1352 1.387 . S
C1351 H1354 0.950 . S
C1352 C1351 1.387 . S
C1352 C1355 1.387 . S
H1353 C1349 0.950 . S
H1354 C1351 0.950 . S
C1355 C1346 1.390 . S
C1355 H1348 0.950 . S
C1355 C1352 1.387 . S
C1356 C1357 1.387 . S
C1356 H1360 0.950 . S
C1356 C1365 1.390 . S
C1357 C1356 1.387 . S
C1357 C1359 1.387 . S
H1358 C1365 0.950 . S
C1359 C1357 1.387 . S
C1359 C1361 1.390 . S
C1359 H1363 0.950 . S
H1360 C1356 0.950 . S
C1361 C1359 1.390 . S
C1361 C1362 1.387 . S
C1361 H1364 0.950 . S
C1362 C1361 1.387 . S
C1362 C1365 1.387 . S
H1363 C1359 0.950 . S
H1364 C1361 0.950 . S
C1365 C1356 1.390 . S
C1365 H1358 0.950 . S
C1365 C1362 1.387 . S
C1366 C1367 1.387 . S
C1366 H1370 0.950 . S
C1366 C1375 1.390 1_455 S
C1367 C1366 1.387 . S
C1367 C1369 1.387 1_554 S
H1368 C1375 0.950 . S
C1369 C1367 1.387 1_556 S
C1369 C1371 1.390 1_455 S
C1369 H1373 0.950 . S
H1370 C1366 0.950 . S
C1371 C1369 1.390 1_655 S
C1371 C1372 1.387 1_556 S
C1371 H1374 0.950 . S
C1372 C1371 1.387 1_554 S
C1372 C1375 1.387 . S
H1373 C1369 0.950 . S
H1374 C1371 0.950 . S
C1375 C1366 1.390 1_655 S
C1375 H1368 0.950 . S
C1375 C1372 1.387 . S
C1376 C1377 1.387 . S
C1376 H1380 0.950 . S
C1376 C1385 1.390 . S
C1377 C1376 1.387 . S
C1377 C1379 1.387 . S
H1378 C1385 0.950 . S
C1379 C1377 1.387 . S
C1379 C1381 1.390 . S
C1379 H1383 0.950 . S
H1380 C1376 0.950 . S
C1381 C1379 1.390 . S
C1381 C1382 1.387 . S
C1381 H1384 0.950 . S
C1382 C1381 1.387 . S
C1382 C1385 1.387 . S
H1383 C1379 0.950 . S
H1384 C1381 0.950 . S
C1385 C1376 1.390 . S
C1385 H1378 0.950 . S
C1385 C1382 1.387 . S
C1386 C1387 1.387 . S
C1386 H1390 0.950 . S
C1386 C1395 1.390 . S
C1387 C1386 1.387 . S
C1387 C1389 1.387 . S
H1388 C1395 0.950 . S
C1389 C1387 1.387 . S
C1389 C1391 1.390 . S
C1389 H1393 0.950 . S
H1390 C1386 0.950 . S
C1391 C1389 1.390 . S
C1391 C1392 1.387 . S
C1391 H1394 0.950 . S
C1392 C1391 1.387 . S
C1392 C1395 1.387 . S
H1393 C1389 0.950 . S
H1394 C1391 0.950 . S
C1395 C1386 1.390 . S
C1395 H1388 0.950 . S
C1395 C1392 1.387 . S
C1396 C1397 1.387 . S
C1396 H1400 0.950 . S
C1396 C1405 1.390 . S
C1397 C1396 1.387 . S
C1397 C1399 1.387 . S
H1398 C1405 0.950 . S
C1399 C1397 1.387 . S
C1399 C1401 1.390 . S
C1399 H1403 0.950 . S
H1400 C1396 0.950 . S
C1401 C1399 1.390 . S
C1401 C1402 1.387 . S
C1401 H1404 0.950 . S
C1402 C1401 1.387 . S
C1402 C1405 1.387 . S
H1403 C1399 0.950 . S
H1404 C1401 0.950 . S
C1405 C1396 1.390 . S
C1405 H1398 0.950 . S
C1405 C1402 1.387 . S
C1406 C1407 1.387 . S
C1406 H1410 0.950 . S
C1406 C1415 1.390 . S
C1407 C1406 1.387 . S
C1407 C1409 1.387 . S
H1408 C1415 0.950 . S
C1409 C1407 1.387 . S
C1409 C1411 1.390 . S
C1409 H1413 0.950 . S
H1410 C1406 0.950 . S
C1411 C1409 1.390 . S
C1411 C1412 1.387 . S
C1411 H1414 0.950 . S
C1412 C1411 1.387 . S
C1412 C1415 1.387 . S
H1413 C1409 0.950 . S
H1414 C1411 0.950 . S
C1415 C1406 1.390 . S
C1415 H1408 0.950 . S
C1415 C1412 1.387 . S
C1416 C1417 1.387 . S
C1416 H1420 0.950 . S
C1416 C1425 1.390 . S
C1417 C1416 1.387 . S
C1417 C1419 1.387 . S
H1418 C1425 0.950 . S
C1419 C1417 1.387 . S
C1419 C1421 1.390 . S
C1419 H1423 0.950 . S
H1420 C1416 0.950 . S
C1421 C1419 1.390 . S
C1421 C1422 1.387 . S
C1421 H1424 0.950 . S
C1422 C1421 1.387 . S
C1422 C1425 1.387 . S
H1423 C1419 0.950 . S
H1424 C1421 0.950 . S
C1425 C1416 1.390 . S
C1425 H1418 0.950 . S
C1425 C1422 1.387 . S
C1426 C1427 1.387 . S
C1426 H1430 0.950 . S
C1426 C1435 1.390 . S
C1427 C1426 1.387 . S
C1427 C1429 1.387 . S
H1428 C1435 0.950 . S
C1429 C1427 1.387 . S
C1429 C1431 1.390 . S
C1429 H1433 0.950 . S
H1430 C1426 0.950 . S
C1431 C1429 1.390 . S
C1431 C1432 1.387 . S
C1431 H1434 0.950 . S
C1432 C1431 1.387 . S
C1432 C1435 1.387 . S
H1433 C1429 0.950 . S
H1434 C1431 0.950 . S
C1435 C1426 1.390 . S
C1435 H1428 0.950 . S
C1435 C1432 1.387 . S
C1436 C1437 1.387 . S
C1436 H1440 0.950 . S
C1436 C1445 1.390 . S
C1437 C1436 1.387 . S
C1437 C1439 1.387 . S
H1438 C1445 0.950 . S
C1439 C1437 1.387 . S
C1439 C1441 1.390 . S
C1439 H1443 0.950 . S
H1440 C1436 0.950 . S
C1441 C1439 1.390 . S
C1441 C1442 1.387 . S
C1441 H1444 0.950 . S
C1442 C1441 1.387 . S
C1442 C1445 1.387 . S
H1443 C1439 0.950 . S
H1444 C1441 0.950 . S
C1445 C1436 1.390 . S
C1445 H1438 0.950 . S
C1445 C1442 1.387 . S
C1446 C1447 1.387 . S
C1446 H1450 0.950 . S
C1446 C1455 1.390 . S
C1447 C1446 1.387 . S
C1447 C1449 1.387 . S
H1448 C1455 0.950 . S
C1449 C1447 1.387 . S
C1449 C1451 1.390 . S
C1449 H1453 0.950 . S
H1450 C1446 0.950 . S
C1451 C1449 1.390 . S
C1451 C1452 1.387 . S
C1451 H1454 0.950 . S
C1452 C1451 1.387 . S
C1452 C1455 1.387 . S
H1453 C1449 0.950 . S
H1454 C1451 0.950 . S
C1455 C1446 1.390 . S
C1455 H1448 0.950 . S
C1455 C1452 1.387 . S
C1456 C1457 1.387 . S
C1456 H1460 0.950 . S
C1456 C1465 1.390 . S
C1457 C1456 1.387 . S
C1457 C1459 1.387 . S
H1458 C1465 0.950 . S
C1459 C1457 1.387 . S
C1459 C1461 1.390 . S
C1459 H1463 0.950 . S
H1460 C1456 0.950 . S
C1461 C1459 1.390 . S
C1461 C1462 1.387 . S
C1461 H1464 0.950 . S
C1462 C1461 1.387 . S
C1462 C1465 1.387 . S
H1463 C1459 0.950 . S
H1464 C1461 0.950 . S
C1465 C1456 1.390 . S
C1465 H1458 0.950 . S
C1465 C1462 1.387 . S
C1466 C1467 1.387 . S
C1466 H1470 0.950 . S
C1466 C1475 1.390 . S
C1467 C1466 1.387 . S
C1467 C1469 1.387 . S
H1468 C1475 0.950 . S
C1469 C1467 1.387 . S
C1469 C1471 1.390 . S
C1469 H1473 0.950 . S
H1470 C1466 0.950 . S
C1471 C1469 1.390 . S
C1471 C1472 1.387 . S
C1471 H1474 0.950 . S
C1472 C1471 1.387 . S
C1472 C1475 1.387 . S
H1473 C1469 0.950 . S
H1474 C1471 0.950 . S
C1475 C1466 1.390 . S
C1475 H1468 0.950 . S
C1475 C1472 1.387 . S
C1476 C1477 1.387 . S
C1476 H1480 0.950 . S
C1476 C1485 1.390 . S
C1477 C1476 1.387 . S
C1477 C1479 1.387 . S
H1478 C1485 0.950 . S
C1479 C1477 1.387 . S
C1479 C1481 1.390 . S
C1479 H1483 0.950 . S
H1480 C1476 0.950 . S
C1481 C1479 1.390 . S
C1481 C1482 1.387 . S
C1481 H1484 0.950 . S
C1482 C1481 1.387 . S
C1482 C1485 1.387 . S
H1483 C1479 0.950 . S
H1484 C1481 0.950 . S
C1485 C1476 1.390 . S
C1485 H1478 0.950 . S
C1485 C1482 1.387 . S
C1486 C1487 1.387 . S
C1486 H1490 0.950 . S
C1486 C1495 1.390 . S
C1487 C1486 1.387 . S
C1487 C1489 1.387 . S
H1488 C1495 0.950 . S
C1489 C1487 1.387 . S
C1489 C1491 1.390 . S
C1489 H1493 0.950 . S
H1490 C1486 0.950 . S
C1491 C1489 1.390 . S
C1491 C1492 1.387 . S
C1491 H1494 0.950 . S
C1492 C1491 1.387 . S
C1492 C1495 1.387 . S
H1493 C1489 0.950 . S
H1494 C1491 0.950 . S
C1495 C1486 1.390 . S
C1495 H1488 0.950 . S
C1495 C1492 1.387 . S
C1496 C1497 1.387 . S
C1496 H1500 0.950 . S
C1496 C1505 1.390 . S
C1497 C1496 1.387 . S
C1497 C1499 1.387 . S
H1498 C1505 0.950 . S
C1499 C1497 1.387 . S
C1499 C1501 1.390 . S
C1499 H1503 0.950 . S
H1500 C1496 0.950 . S
C1501 C1499 1.390 . S
C1501 C1502 1.387 . S
C1501 H1504 0.950 . S
C1502 C1501 1.387 . S
C1502 C1505 1.387 . S
H1503 C1499 0.950 . S
H1504 C1501 0.950 . S
C1505 C1496 1.390 . S
C1505 H1498 0.950 . S
C1505 C1502 1.387 . S
C1506 C1507 1.387 . S
C1506 H1510 0.950 . S
C1506 C1515 1.390 . S
C1507 C1506 1.387 . S
C1507 C1509 1.387 . S
H1508 C1515 0.950 . S
C1509 C1507 1.387 . S
C1509 C1511 1.390 . S
C1509 H1513 0.950 . S
H1510 C1506 0.950 . S
C1511 C1509 1.390 . S
C1511 C1512 1.387 . S
C1511 H1514 0.950 . S
C1512 C1511 1.387 . S
C1512 C1515 1.387 . S
H1513 C1509 0.950 . S
H1514 C1511 0.950 . S
C1515 C1506 1.390 . S
C1515 H1508 0.950 . S
C1515 C1512 1.387 . S
C1516 C1517 1.387 . S
C1516 H1520 0.950 . S
C1516 C1525 1.390 . S
C1517 C1516 1.387 . S
C1517 C1519 1.387 . S
H1518 C1525 0.950 . S
C1519 C1517 1.387 . S
C1519 C1521 1.390 . S
C1519 H1523 0.950 . S
H1520 C1516 0.950 . S
C1521 C1519 1.390 . S
C1521 C1522 1.387 . S
C1521 H1524 0.950 . S
C1522 C1521 1.387 . S
C1522 C1525 1.387 . S
H1523 C1519 0.950 . S
H1524 C1521 0.950 . S
C1525 C1516 1.390 . S
C1525 H1518 0.950 . S
C1525 C1522 1.387 . S
C1526 C1527 1.387 . S
C1526 H1530 0.950 . S
C1526 C1535 1.390 . S
C1527 C1526 1.387 . S
C1527 C1529 1.387 . S
H1528 C1535 0.950 . S
C1529 C1527 1.387 . S
C1529 C1531 1.390 . S
C1529 H1533 0.950 . S
H1530 C1526 0.950 . S
C1531 C1529 1.390 . S
C1531 C1532 1.387 . S
C1531 H1534 0.950 . S
C1532 C1531 1.387 . S
C1532 C1535 1.387 . S
H1533 C1529 0.950 . S
H1534 C1531 0.950 . S
C1535 C1526 1.390 . S
C1535 H1528 0.950 . S
C1535 C1532 1.387 . S
C1536 C1537 1.387 . S
C1536 H1540 0.950 . S
C1536 C1545 1.390 . S
C1537 C1536 1.387 . S
C1537 C1539 1.387 . S
H1538 C1545 0.950 . S
C1539 C1537 1.387 . S
C1539 C1541 1.390 . S
C1539 H1543 0.950 . S
H1540 C1536 0.950 . S
C1541 C1539 1.390 . S
C1541 C1542 1.387 . S
C1541 H1544 0.950 . S
C1542 C1541 1.387 . S
C1542 C1545 1.387 . S
H1543 C1539 0.950 . S
H1544 C1541 0.950 . S
C1545 C1536 1.390 . S
C1545 H1538 0.950 . S
C1545 C1542 1.387 . S
C1546 C1547 1.387 . S
C1546 H1550 0.950 . S
C1546 C1555 1.390 . S
C1547 C1546 1.387 . S
C1547 C1549 1.387 . S
H1548 C1555 0.950 . S
C1549 C1547 1.387 . S
C1549 C1551 1.390 . S
C1549 H1553 0.950 . S
H1550 C1546 0.950 . S
C1551 C1549 1.390 . S
C1551 C1552 1.387 . S
C1551 H1554 0.950 . S
C1552 C1551 1.387 . S
C1552 C1555 1.387 . S
H1553 C1549 0.950 . S
H1554 C1551 0.950 . S
C1555 C1546 1.390 . S
C1555 H1548 0.950 . S
C1555 C1552 1.387 . S
C1556 C1557 1.387 . S
C1556 H1560 0.950 . S
C1556 C1565 1.390 . S
C1557 C1556 1.387 . S
C1557 C1559 1.387 . S
H1558 C1565 0.950 . S
C1559 C1557 1.387 . S
C1559 C1561 1.390 . S
C1559 H1563 0.950 . S
H1560 C1556 0.950 . S
C1561 C1559 1.390 . S
C1561 C1562 1.387 . S
C1561 H1564 0.950 . S
C1562 C1561 1.387 . S
C1562 C1565 1.387 . S
H1563 C1559 0.950 . S
H1564 C1561 0.950 . S
C1565 C1556 1.390 . S
C1565 H1558 0.950 . S
C1565 C1562 1.387 . S
C1566 C1567 1.387 . S
C1566 H1570 0.950 . S
C1566 C1575 1.390 . S
C1567 C1566 1.387 . S
C1567 C1569 1.387 . S
H1568 C1575 0.950 . S
C1569 C1567 1.387 . S
C1569 C1571 1.390 . S
C1569 H1573 0.950 . S
H1570 C1566 0.950 . S
C1571 C1569 1.390 . S
C1571 C1572 1.387 . S
C1571 H1574 0.950 . S
C1572 C1571 1.387 . S
C1572 C1575 1.387 . S
H1573 C1569 0.950 . S
H1574 C1571 0.950 . S
C1575 C1566 1.390 . S
C1575 H1568 0.950 . S
C1575 C1572 1.387 . S
C1576 C1577 1.387 . S
C1576 H1580 0.950 . S
C1576 C1585 1.390 . S
C1577 C1576 1.387 . S
C1577 C1579 1.387 . S
H1578 C1585 0.950 . S
C1579 C1577 1.387 . S
C1579 C1581 1.390 . S
C1579 H1583 0.950 . S
H1580 C1576 0.950 . S
C1581 C1579 1.390 . S
C1581 C1582 1.387 . S
C1581 H1584 0.950 . S
C1582 C1581 1.387 . S
C1582 C1585 1.387 . S
H1583 C1579 0.950 . S
H1584 C1581 0.950 . S
C1585 C1576 1.390 . S
C1585 H1578 0.950 . S
C1585 C1582 1.387 . S
C1586 C1587 1.387 . S
C1586 H1590 0.950 . S
C1586 C1595 1.390 . S
C1587 C1586 1.387 . S
C1587 C1589 1.387 . S
H1588 C1595 0.950 . S
C1589 C1587 1.387 . S
C1589 C1591 1.390 . S
C1589 H1593 0.950 . S
H1590 C1586 0.950 . S
C1591 C1589 1.390 . S
C1591 C1592 1.387 . S
C1591 H1594 0.950 . S
C1592 C1591 1.387 . S
C1592 C1595 1.387 . S
H1593 C1589 0.950 . S
H1594 C1591 0.950 . S
C1595 C1586 1.390 . S
C1595 H1588 0.950 . S
C1595 C1592 1.387 . S
C1596 C1597 1.387 . S
C1596 H1600 0.950 . S
C1596 C1605 1.390 . S
C1597 C1596 1.387 . S
C1597 C1599 1.387 . S
H1598 C1605 0.950 . S
C1599 C1597 1.387 . S
C1599 C1601 1.390 . S
C1599 H1603 0.950 . S
H1600 C1596 0.950 . S
C1601 C1599 1.390 . S
C1601 C1602 1.387 . S
C1601 H1604 0.950 . S
C1602 C1601 1.387 . S
C1602 C1605 1.387 . S
H1603 C1599 0.950 . S
H1604 C1601 0.950 . S
C1605 C1596 1.390 . S
C1605 H1598 0.950 . S
C1605 C1602 1.387 . S
C1606 C1607 1.387 . S
C1606 H1610 0.950 . S
C1606 C1615 1.390 . S
C1607 C1606 1.387 . S
C1607 C1609 1.387 . S
H1608 C1615 0.950 . S
C1609 C1607 1.387 . S
C1609 C1611 1.390 . S
C1609 H1613 0.950 . S
H1610 C1606 0.950 . S
C1611 C1609 1.390 . S
C1611 C1612 1.387 . S
C1611 H1614 0.950 . S
C1612 C1611 1.387 . S
C1612 C1615 1.387 . S
H1613 C1609 0.950 . S
H1614 C1611 0.950 . S
C1615 C1606 1.390 . S
C1615 H1608 0.950 . S
C1615 C1612 1.387 . S
C1616 C1617 1.387 . S
C1616 H1620 0.950 . S
C1616 C1625 1.390 . S
C1617 C1616 1.387 . S
C1617 C1619 1.387 . S
H1618 C1625 0.950 . S
C1619 C1617 1.387 . S
C1619 C1621 1.390 . S
C1619 H1623 0.950 . S
H1620 C1616 0.950 . S
C1621 C1619 1.390 . S
C1621 C1622 1.387 . S
C1621 H1624 0.950 . S
C1622 C1621 1.387 . S
C1622 C1625 1.387 . S
H1623 C1619 0.950 . S
H1624 C1621 0.950 . S
C1625 C1616 1.390 . S
C1625 H1618 0.950 . S
C1625 C1622 1.387 . S
C1626 C1627 1.387 . S
C1626 H1630 0.950 . S
C1626 C1635 1.390 . S
C1627 C1626 1.387 . S
C1627 C1629 1.387 . S
H1628 C1635 0.950 . S
C1629 C1627 1.387 . S
C1629 C1631 1.390 . S
C1629 H1633 0.950 . S
H1630 C1626 0.950 . S
C1631 C1629 1.390 . S
C1631 C1632 1.387 . S
C1631 H1634 0.950 . S
C1632 C1631 1.387 . S
C1632 C1635 1.387 . S
H1633 C1629 0.950 . S
H1634 C1631 0.950 . S
C1635 C1626 1.390 . S
C1635 H1628 0.950 . S
C1635 C1632 1.387 . S
C1636 C1637 1.387 . S
C1636 H1640 0.950 . S
C1636 C1645 1.390 . S
C1637 C1636 1.387 . S
C1637 C1639 1.387 . S
H1638 C1645 0.950 . S
C1639 C1637 1.387 . S
C1639 C1641 1.390 . S
C1639 H1643 0.950 . S
H1640 C1636 0.950 . S
C1641 C1639 1.390 . S
C1641 C1642 1.387 . S
C1641 H1644 0.950 . S
C1642 C1641 1.387 . S
C1642 C1645 1.387 . S
H1643 C1639 0.950 . S
H1644 C1641 0.950 . S
C1645 C1636 1.390 . S
C1645 H1638 0.950 . S
C1645 C1642 1.387 . S
C1646 C1647 1.387 . S
C1646 H1650 0.950 . S
C1646 C1655 1.390 . S
C1647 C1646 1.387 . S
C1647 C1649 1.387 . S
H1648 C1655 0.950 . S
C1649 C1647 1.387 . S
C1649 C1651 1.390 . S
C1649 H1653 0.950 . S
H1650 C1646 0.950 . S
C1651 C1649 1.390 . S
C1651 C1652 1.387 . S
C1651 H1654 0.950 . S
C1652 C1651 1.387 . S
C1652 C1655 1.387 . S
H1653 C1649 0.950 . S
H1654 C1651 0.950 . S
C1655 C1646 1.390 . S
C1655 H1648 0.950 . S
C1655 C1652 1.387 . S
C1656 C1657 1.387 . S
C1656 H1660 0.950 . S
C1656 C1665 1.390 . S
C1657 C1656 1.387 . S
C1657 C1659 1.387 . S
H1658 C1665 0.950 . S
C1659 C1657 1.387 . S
C1659 C1661 1.390 . S
C1659 H1663 0.950 . S
H1660 C1656 0.950 . S
C1661 C1659 1.390 . S
C1661 C1662 1.387 . S
C1661 H1664 0.950 . S
C1662 C1661 1.387 . S
C1662 C1665 1.387 . S
H1663 C1659 0.950 . S
H1664 C1661 0.950 . S
C1665 C1656 1.390 . S
C1665 H1658 0.950 . S
C1665 C1662 1.387 . S
C1666 C1667 1.387 . S
C1666 H1670 0.950 . S
C1666 C1675 1.390 . S
C1667 C1666 1.387 . S
C1667 C1669 1.387 . S
H1668 C1675 0.950 . S
C1669 C1667 1.387 . S
C1669 C1671 1.390 . S
C1669 H1673 0.950 . S
H1670 C1666 0.950 . S
C1671 C1669 1.390 . S
C1671 C1672 1.387 . S
C1671 H1674 0.950 . S
C1672 C1671 1.387 . S
C1672 C1675 1.387 . S
H1673 C1669 0.950 . S
H1674 C1671 0.950 . S
C1675 C1666 1.390 . S
C1675 H1668 0.950 . S
C1675 C1672 1.387 . S
C1676 C1677 1.387 . S
C1676 H1680 0.950 . S
C1676 C1685 1.390 . S
C1677 C1676 1.387 . S
C1677 C1679 1.387 . S
H1678 C1685 0.950 . S
C1679 C1677 1.387 . S
C1679 C1681 1.390 . S
C1679 H1683 0.950 . S
H1680 C1676 0.950 . S
C1681 C1679 1.390 . S
C1681 C1682 1.387 . S
C1681 H1684 0.950 . S
C1682 C1681 1.387 . S
C1682 C1685 1.387 . S
H1683 C1679 0.950 . S
H1684 C1681 0.950 . S
C1685 C1676 1.390 . S
C1685 H1678 0.950 . S
C1685 C1682 1.387 . S
C1686 C1687 1.387 . S
C1686 H1690 0.950 . S
C1686 C1695 1.390 . S
C1687 C1686 1.387 . S
C1687 C1689 1.387 . S
H1688 C1695 0.950 . S
C1689 C1687 1.387 . S
C1689 C1691 1.390 . S
C1689 H1693 0.950 . S
H1690 C1686 0.950 . S
C1691 C1689 1.390 . S
C1691 C1692 1.387 . S
C1691 H1694 0.950 . S
C1692 C1691 1.387 . S
C1692 C1695 1.387 . S
H1693 C1689 0.950 . S
H1694 C1691 0.950 . S
C1695 C1686 1.390 . S
C1695 H1688 0.950 . S
C1695 C1692 1.387 . S
C1696 C1697 1.387 . S
C1696 H1700 0.950 . S
C1696 C1705 1.390 . S
C1697 C1696 1.387 . S
C1697 C1699 1.387 . S
H1698 C1705 0.950 . S
C1699 C1697 1.387 . S
C1699 C1701 1.390 . S
C1699 H1703 0.950 . S
H1700 C1696 0.950 . S
C1701 C1699 1.390 . S
C1701 C1702 1.387 . S
C1701 H1704 0.950 . S
C1702 C1701 1.387 . S
C1702 C1705 1.387 . S
H1703 C1699 0.950 . S
H1704 C1701 0.950 . S
C1705 C1696 1.390 . S
C1705 H1698 0.950 . S
C1705 C1702 1.387 . S
C1706 C1707 1.387 . S
C1706 H1710 0.950 . S
C1706 C1715 1.390 1_465 S
C1707 C1706 1.387 . S
C1707 C1709 1.387 . S
H1708 C1715 0.950 . S
C1709 C1707 1.387 . S
C1709 C1711 1.390 1_465 S
C1709 H1713 0.950 . S
H1710 C1706 0.950 . S
C1711 C1709 1.390 1_645 S
C1711 C1712 1.387 . S
C1711 H1714 0.950 . S
C1712 C1711 1.387 . S
C1712 C1715 1.387 . S
H1713 C1709 0.950 . S
H1714 C1711 0.950 . S
C1715 C1706 1.390 1_645 S
C1715 H1708 0.950 . S
C1715 C1712 1.387 . S
C1716 C1717 1.387 . S
C1716 H1720 0.950 . S
C1716 C1725 1.390 . S
C1717 C1716 1.387 . S
C1717 C1719 1.387 . S
H1718 C1725 0.950 . S
C1719 C1717 1.387 . S
C1719 C1721 1.390 . S
C1719 H1723 0.950 . S
H1720 C1716 0.950 . S
C1721 C1719 1.390 . S
C1721 C1722 1.387 . S
C1721 H1724 0.950 . S
C1722 C1721 1.387 . S
C1722 C1725 1.387 . S
H1723 C1719 0.950 . S
H1724 C1721 0.950 . S
C1725 C1716 1.390 . S
C1725 H1718 0.950 . S
C1725 C1722 1.387 . S
C1726 C1727 1.422 . S
C1726 H1730 0.950 . S
C1726 C1735 1.390 1_565 S
C1727 C1726 1.422 . S
C1727 C1729 1.352 1_556 S
H1728 C1735 0.950 . S
C1729 C1727 1.352 1_554 S
C1729 C1731 1.390 1_565 S
C1729 H1733 0.950 . S
H1730 C1726 0.950 . S
C1731 C1729 1.390 1_545 S
C1731 C1732 1.422 . S
C1731 H1734 0.950 . S
C1732 C1731 1.422 . S
C1732 C1735 1.352 1_554 S
H1733 C1729 0.950 . S
H1734 C1731 0.950 . S
C1735 C1726 1.390 1_545 S
C1735 H1728 0.950 . S
C1735 C1732 1.352 1_556 S
C1736 C1737 1.387 . S
C1736 H1740 0.950 . S
C1736 C1745 1.390 . S
C1737 C1736 1.387 . S
C1737 C1739 1.387 . S
H1738 C1745 0.950 . S
C1739 C1737 1.387 . S
C1739 C1741 1.390 . S
C1739 H1743 0.950 . S
H1740 C1736 0.950 . S
C1741 C1739 1.390 . S
C1741 C1742 1.387 . S
C1741 H1744 0.950 . S
C1742 C1741 1.387 . S
C1742 C1745 1.387 . S
H1743 C1739 0.950 . S
H1744 C1741 0.950 . S
C1745 C1736 1.390 . S
C1745 H1738 0.950 . S
C1745 C1742 1.387 . S
C1746 C1747 1.387 . S
C1746 H1750 0.950 . S
C1746 C1755 1.390 1_545 S
C1747 C1746 1.387 . S
C1747 C1749 1.387 . S
H1748 C1755 0.950 . S
C1749 C1747 1.387 . S
C1749 C1751 1.390 1_545 S
C1749 H1753 0.950 . S
H1750 C1746 0.950 . S
C1751 C1749 1.390 1_565 S
C1751 C1752 1.387 . S
C1751 H1754 0.950 . S
C1752 C1751 1.387 . S
C1752 C1755 1.387 . S
H1753 C1749 0.950 . S
H1754 C1751 0.950 . S
C1755 C1746 1.390 1_565 S
C1755 H1748 0.950 . S
C1755 C1752 1.387 . S
C1756 C1757 1.387 . S
C1756 H1760 0.950 . S
C1756 C1765 1.390 . S
C1757 C1756 1.387 . S
C1757 C1759 1.387 . S
H1758 C1765 0.950 . S
C1759 C1757 1.387 . S
C1759 C1761 1.390 . S
C1759 H1763 0.950 . S
H1760 C1756 0.950 . S
C1761 C1759 1.390 . S
C1761 C1762 1.387 . S
C1761 H1764 0.950 . S
C1762 C1761 1.387 . S
C1762 C1765 1.387 . S
H1763 C1759 0.950 . S
H1764 C1761 0.950 . S
C1765 C1756 1.390 . S
C1765 H1758 0.950 . S
C1765 C1762 1.387 . S
C1766 C1767 1.387 . S
C1766 H1770 0.950 . S
C1766 C1775 1.390 1_665 S
C1767 C1766 1.387 . S
C1767 C1769 1.387 1_554 S
H1768 C1775 0.950 . S
C1769 C1767 1.387 1_556 S
C1769 C1771 1.390 1_665 S
C1769 H1773 0.950 . S
H1770 C1766 0.950 . S
C1771 C1769 1.390 1_445 S
C1771 C1772 1.387 . S
C1771 H1774 0.950 . S
C1772 C1771 1.387 . S
C1772 C1775 1.387 1_556 S
H1773 C1769 0.950 . S
H1774 C1771 0.950 . S
C1775 C1766 1.390 1_445 S
C1775 H1768 0.950 . S
C1775 C1772 1.387 1_554 S
C1776 C1777 1.387 . S
C1776 H1780 0.950 . S
C1776 C1785 1.390 . S
C1777 C1776 1.387 . S
C1777 C1779 1.387 . S
H1778 C1785 0.950 . S
C1779 C1777 1.387 . S
C1779 C1781 1.390 . S
C1779 H1783 0.950 . S
H1780 C1776 0.950 . S
C1781 C1779 1.390 . S
C1781 C1782 1.387 . S
C1781 H1784 0.950 . S
C1782 C1781 1.387 . S
C1782 C1785 1.387 . S
H1783 C1779 0.950 . S
H1784 C1781 0.950 . S
C1785 C1776 1.390 . S
C1785 H1778 0.950 . S
C1785 C1782 1.387 . S
C1786 C1787 1.387 . S
C1786 H1790 0.950 . S
C1786 C1795 1.390 . S
C1787 C1786 1.387 . S
C1787 C1789 1.387 . S
H1788 C1795 0.950 . S
C1789 C1787 1.387 . S
C1789 C1791 1.390 . S
C1789 H1793 0.950 . S
H1790 C1786 0.950 . S
C1791 C1789 1.390 . S
C1791 C1792 1.387 . S
C1791 H1794 0.950 . S
C1792 C1791 1.387 . S
C1792 C1795 1.387 . S
H1793 C1789 0.950 . S
H1794 C1791 0.950 . S
C1795 C1786 1.390 . S
C1795 H1788 0.950 . S
C1795 C1792 1.387 . S
C1796 C1797 1.387 . S
C1796 H1800 0.950 . S
C1796 C1805 1.390 . S
C1797 C1796 1.387 . S
C1797 C1799 1.387 . S
H1798 C1805 0.950 . S
C1799 C1797 1.387 . S
C1799 C1801 1.390 . S
C1799 H1803 0.950 . S
H1800 C1796 0.950 . S
C1801 C1799 1.390 . S
C1801 C1802 1.387 . S
C1801 H1804 0.950 . S
C1802 C1801 1.387 . S
C1802 C1805 1.387 . S
H1803 C1799 0.950 . S
H1804 C1801 0.950 . S
C1805 C1796 1.390 . S
C1805 H1798 0.950 . S
C1805 C1802 1.387 . S
C1806 C1807 1.387 . S
C1806 H1810 0.950 . S
C1806 C1815 1.390 . S
C1807 C1806 1.387 . S
C1807 C1809 1.387 . S
H1808 C1815 0.950 . S
C1809 C1807 1.387 . S
C1809 C1811 1.390 . S
C1809 H1813 0.950 . S
H1810 C1806 0.950 . S
C1811 C1809 1.390 . S
C1811 C1812 1.387 . S
C1811 H1814 0.950 . S
C1812 C1811 1.387 . S
C1812 C1815 1.387 . S
H1813 C1809 0.950 . S
H1814 C1811 0.950 . S
C1815 C1806 1.390 . S
C1815 H1808 0.950 . S
C1815 C1812 1.387 . S
C1816 C1817 1.387 1_554 S
C1816 H1820 0.950 . S
C1816 C1825 1.390 . S
C1817 C1816 1.387 1_556 S
C1817 C1819 1.387 . S
H1818 C1825 0.950 . S
C1819 C1817 1.387 . S
C1819 C1821 1.390 . S
C1819 H1823 0.950 . S
H1820 C1816 0.950 . S
C1821 C1819 1.390 . S
C1821 C1822 1.387 1_556 S
C1821 H1824 0.950 . S
C1822 C1821 1.387 1_554 S
C1822 C1825 1.387 . S
H1823 C1819 0.950 . S
H1824 C1821 0.950 . S
C1825 C1816 1.390 . S
C1825 H1818 0.950 . S
C1825 C1822 1.387 . S
C1826 C1827 1.387 . S
C1826 H1830 0.950 . S
C1826 C1835 1.390 1_655 S
C1827 C1826 1.387 . S
C1827 C1829 1.387 . S
H1828 C1835 0.950 . S
C1829 C1827 1.387 . S
C1829 C1831 1.390 1_655 S
C1829 H1833 0.950 . S
H1830 C1826 0.950 . S
C1831 C1829 1.390 1_455 S
C1831 C1832 1.387 . S
C1831 H1834 0.950 . S
C1832 C1831 1.387 . S
C1832 C1835 1.387 . S
H1833 C1829 0.950 . S
H1834 C1831 0.950 . S
C1835 C1826 1.390 1_455 S
C1835 H1828 0.950 . S
C1835 C1832 1.387 . S
C1836 C1837 1.387 1_556 S
C1836 H1840 0.950 . S
C1836 C1845 1.390 1_455 S
C1837 C1836 1.387 1_554 S
C1837 C1839 1.387 . S
H1838 C1845 0.950 . S
C1839 C1837 1.387 . S
C1839 C1841 1.390 1_455 S
C1839 H1843 0.950 . S
H1840 C1836 0.950 . S
C1841 C1839 1.390 1_655 S
C1841 C1842 1.387 1_554 S
C1841 H1844 0.950 . S
C1842 C1841 1.387 1_556 S
C1842 C1845 1.387 . S
H1843 C1839 0.950 . S
H1844 C1841 0.950 . S
C1845 C1836 1.390 1_655 S
C1845 H1838 0.950 . S
C1845 C1842 1.387 . S
C1846 C1847 1.387 . S
C1846 H1850 0.950 . S
C1846 C1855 1.390 . S
C1847 C1846 1.387 . S
C1847 C1849 1.387 . S
H1848 C1855 0.950 . S
C1849 C1847 1.387 . S
C1849 C1851 1.390 . S
C1849 H1853 0.950 . S
H1850 C1846 0.950 . S
C1851 C1849 1.390 . S
C1851 C1852 1.387 . S
C1851 H1854 0.950 . S
C1852 C1851 1.387 . S
C1852 C1855 1.387 . S
H1853 C1849 0.950 . S
H1854 C1851 0.950 . S
C1855 C1846 1.390 . S
C1855 H1848 0.950 . S
C1855 C1852 1.387 . S
C1057 N244 1.862 . S
C1062 N13 1.859 . S
C1067 N46 1.862 . S
C1072 N145 1.860 . S
C1077 N79 1.859 . S
C1082 N178 1.862 . S
C1087 N211 1.862 . S
C1092 N112 1.859 . S
C1097 N508 1.860 . S
C1102 N277 1.862 . S
C1107 N409 1.861 . S
C1112 N310 1.861 . S
C1117 N343 1.862 . S
C1122 N442 1.860 . S
C1127 N376 1.862 . S
C1132 N475 1.860 . S
C1137 N772 1.862 . S
C1142 N541 1.860 . S
C1147 N574 1.862 . S
C1152 N673 1.860 . S
C1157 N607 1.862 . S
C1162 N706 1.859 . S
C1167 N739 1.862 . S
C1172 N640 1.859 . S
C1177 N1036 1.862 . S
C1182 N805 1.860 . S
C1187 N838 1.861 . S
C1192 N937 1.860 . S
C1197 N970 1.861 . S
C1202 N871 1.862 . S
C1207 N1003 1.861 . S
C1212 N904 1.860 . S
C1217 C601 1.299 . S
C1222 C7 1.299 . S
C1227 C634 1.301 . S
C1232 C40 1.301 . S
C1237 C73 1.299 . S
C1242 C535 1.299 . S
C1247 C106 1.299 . S
C1252 C568 1.299 . S
C1257 C733 1.301 . S
C1262 C139 1.301 . S
C1267 C766 1.299 . S
C1272 C172 1.299 . S
C1277 C205 1.301 . S
C1282 C667 1.301 . S
C1287 C238 1.299 . S
C1292 C700 1.299 . S
C1297 C271 1.301 . S
C1302 C865 1.301 . S
C1307 C898 1.299 . S
C1312 C304 1.299 . S
C1317 C799 1.301 . S
C1322 C337 1.301 . S
C1327 C370 1.301 . S
C1332 C832 1.301 . S
C1337 C403 1.299 . S
C1342 C997 1.299 . S
C1347 C1030 1.301 . S
C1352 C436 1.301 . S
C1357 C931 1.299 . S
C1362 C469 1.299 . S
C1367 C964 1.301 . S
C1372 C502 1.301 . S
C1377 N2 1.316 . S
C1382 C912 1.117 . S
C1387 C285 1.114 . S
C1392 N35 1.313 . S
C1397 C846 1.110 . S
C1402 N68 1.311 . S
C1407 N101 1.314 . S
C1412 C351 1.114 . S
C1417 C978 1.110 . S
C1422 N134 1.311 . S
C1427 C483 1.115 . S
C1432 N167 1.314 . S
C1437 N200 1.311 . S
C1442 C1044 1.110 . S
C1447 N233 1.315 . S
C1452 C417 1.116 . S
C1457 N266 1.313 . S
C1462 C648 1.113 . S
C1467 N299 1.313 . S
C1472 C21 1.113 . S
C1477 C582 1.115 . S
C1482 N332 1.314 . S
C1487 N365 1.314 . S
C1492 C87 1.115 . S
C1497 C714 1.115 . S
C1502 N398 1.314 . S
C1507 N431 1.313 . S
C1512 C219 1.113 . S
C1517 N464 1.311 . S
C1522 C780 1.110 . S
C1527 C153 1.115 . S
C1532 N497 1.314 . S
C1537 N530 1.316 . S
C1542 C384 1.117 . S
C1547 C813 1.111 . S
C1552 N563 1.312 . S
C1557 C318 1.117 . S
C1562 N596 1.316 . S
C1567 N629 1.316 . S
C1572 C879 1.117 . S
C1577 N662 1.311 . S
C1582 C450 1.110 . S
C1587 C1011 1.114 . S
C1592 N695 1.313 . S
C1597 N728 1.315 . S
C1602 C516 1.115 . S
C1607 C945 1.112 . S
C1612 N761 1.313 . S
C1617 C120 1.117 . S
C1622 N794 1.316 . S
C1627 C549 1.114 . S
C1632 N827 1.314 . S
C1637 C54 1.116 . S
C1642 N860 1.315 . S
C1647 C615 1.114 . S
C1652 N893 1.314 . S
C1657 N926 1.316 . S
C1662 C186 1.117 . S
C1667 C747 1.116 . S
C1672 N959 1.315 . S
C1677 C252 1.117 . S
C1682 N992 1.316 . S
C1687 C681 1.112 . S
C1692 N1025 1.313 . S
C1697 C18 1.489 . S
C1702 C810 1.489 . S
C1707 C51 1.489 . S
C1712 C315 1.489 . S
C1717 C876 1.489 . S
C1722 C84 1.489 . S
C1727 C381 1.497 . S
C1732 C117 1.497 . S
C1737 C942 1.486 . S
C1742 C150 1.486 . S
C1747 C447 1.490 . S
C1752 C183 1.490 . S
C1757 C1008 1.486 . S
C1762 C216 1.486 . S
C1767 C513 1.489 . S
C1772 C249 1.489 . S
C1777 C282 1.486 . S
C1782 C546 1.486 . S
C1787 C612 1.486 . S
C1792 C348 1.486 . S
C1797 C414 1.486 . S
C1802 C678 1.486 . S
C1807 C480 1.486 . S
C1812 C744 1.486 . S
C1817 C843 1.486 . S
C1822 C579 1.486 . S
C1827 C645 1.490 . S
C1832 C909 1.490 . S
C1837 C975 1.486 . S
C1842 C711 1.486 . S
C1847 C1041 1.489 . S
C1852 C777 1.489 . S
