# Generated by pormake.
# Topology cbo, (4)-cn, num edge types: 1
# Building blocks:
#     Node 0, Type 0, BuildingBlock: KUFVIS_clean_sbu_0, # of connection points: 4
#     Node 1, Type 0, BuildingBlock: KUFVIS_clean_sbu_0, # of connection points: 4
#     Node 2, Type 0, BuildingBlock: KUFVIS_clean_sbu_0, # of connection points: 4
#     Node 3, Type 0, BuildingBlock: KUFVIS_clean_sbu_0, # of connection points: 4
#     Node 4, Type 0, BuildingBlock: KUFVIS_clean_sbu_0, # of connection points: 4
#     Node 5, Type 0, BuildingBlock: KUFVIS_clean_sbu_0, # of connection points: 4
#     Node 6, Type 0, BuildingBlock: KUFVIS_clean_sbu_0, # of connection points: 4
#     Node 7, Type 0, BuildingBlock: KUFVIS_clean_sbu_0, # of connection points: 4
#     Node 8, Type 0, BuildingBlock: KUFVIS_clean_sbu_0, # of connection points: 4
#     Node 9, Type 0, BuildingBlock: KUFVIS_clean_sbu_0, # of connection points: 4
#     Node 10, Type 0, BuildingBlock: KUFVIS_clean_sbu_0, # of connection points: 4
#     Node 11, Type 0, BuildingBlock: KUFVIS_clean_sbu_0, # of connection points: 4
#     Node 12, Type 0, BuildingBlock: KUFVIS_clean_sbu_0, # of connection points: 4
#     Node 13, Type 0, BuildingBlock: KUFVIS_clean_sbu_0, # of connection points: 4
#     Node 14, Type 0, BuildingBlock: KUFVIS_clean_sbu_0, # of connection points: 4
#     Node 15, Type 0, BuildingBlock: KUFVIS_clean_sbu_0, # of connection points: 4
#     Node 16, Type 0, BuildingBlock: KUFVIS_clean_sbu_0, # of connection points: 4
#     Node 17, Type 0, BuildingBlock: KUFVIS_clean_sbu_0, # of connection points: 4
#     Node 18, Type 0, BuildingBlock: KUFVIS_clean_sbu_0, # of connection points: 4
#     Node 19, Type 0, BuildingBlock: KUFVIS_clean_sbu_0, # of connection points: 4
#     Node 20, Type 0, BuildingBlock: KUFVIS_clean_sbu_0, # of connection points: 4
#     Node 21, Type 0, BuildingBlock: KUFVIS_clean_sbu_0, # of connection points: 4
#     Node 22, Type 0, BuildingBlock: KUFVIS_clean_sbu_0, # of connection points: 4
#     Node 23, Type 0, BuildingBlock: KUFVIS_clean_sbu_0, # of connection points: 4
#     Edge 24, Type (0, 0), BuildingBlock: OJICUG_clean_linker_0, # of connection points: 2
#     Edge 25, Type (0, 0), BuildingBlock: OJICUG_clean_linker_0, # of connection points: 2
#     Edge 26, Type (0, 0), BuildingBlock: OJICUG_clean_linker_0, # of connection points: 2
#     Edge 27, Type (0, 0), BuildingBlock: OJICUG_clean_linker_0, # of connection points: 2
#     Edge 28, Type (0, 0), BuildingBlock: OJICUG_clean_linker_0, # of connection points: 2
#     Edge 29, Type (0, 0), BuildingBlock: OJICUG_clean_linker_0, # of connection points: 2
#     Edge 30, Type (0, 0), BuildingBlock: OJICUG_clean_linker_0, # of connection points: 2
#     Edge 31, Type (0, 0), BuildingBlock: OJICUG_clean_linker_0, # of connection points: 2
#     Edge 32, Type (0, 0), BuildingBlock: OJICUG_clean_linker_0, # of connection points: 2
#     Edge 33, Type (0, 0), BuildingBlock: OJICUG_clean_linker_0, # of connection points: 2
#     Edge 34, Type (0, 0), BuildingBlock: OJICUG_clean_linker_0, # of connection points: 2
#     Edge 35, Type (0, 0), BuildingBlock: OJICUG_clean_linker_0, # of connection points: 2
#     Edge 36, Type (0, 0), BuildingBlock: OJICUG_clean_linker_0, # of connection points: 2
#     Edge 37, Type (0, 0), BuildingBlock: OJICUG_clean_linker_0, # of connection points: 2
#     Edge 38, Type (0, 0), BuildingBlock: OJICUG_clean_linker_0, # of connection points: 2
#     Edge 39, Type (0, 0), BuildingBlock: OJICUG_clean_linker_0, # of connection points: 2
#     Edge 40, Type (0, 0), BuildingBlock: OJICUG_clean_linker_0, # of connection points: 2
#     Edge 41, Type (0, 0), BuildingBlock: OJICUG_clean_linker_0, # of connection points: 2
#     Edge 42, Type (0, 0), BuildingBlock: OJICUG_clean_linker_0, # of connection points: 2
#     Edge 43, Type (0, 0), BuildingBlock: OJICUG_clean_linker_0, # of connection points: 2
#     Edge 44, Type (0, 0), BuildingBlock: OJICUG_clean_linker_0, # of connection points: 2
#     Edge 45, Type (0, 0), BuildingBlock: OJICUG_clean_linker_0, # of connection points: 2
#     Edge 46, Type (0, 0), BuildingBlock: OJICUG_clean_linker_0, # of connection points: 2
#     Edge 47, Type (0, 0), BuildingBlock: OJICUG_clean_linker_0, # of connection points: 2
#     Edge 48, Type (0, 0), BuildingBlock: OJICUG_clean_linker_0, # of connection points: 2
#     Edge 49, Type (0, 0), BuildingBlock: OJICUG_clean_linker_0, # of connection points: 2
#     Edge 50, Type (0, 0), BuildingBlock: OJICUG_clean_linker_0, # of connection points: 2
#     Edge 51, Type (0, 0), BuildingBlock: OJICUG_clean_linker_0, # of connection points: 2
#     Edge 52, Type (0, 0), BuildingBlock: OJICUG_clean_linker_0, # of connection points: 2
#     Edge 53, Type (0, 0), BuildingBlock: OJICUG_clean_linker_0, # of connection points: 2
#     Edge 54, Type (0, 0), BuildingBlock: OJICUG_clean_linker_0, # of connection points: 2
#     Edge 55, Type (0, 0), BuildingBlock: OJICUG_clean_linker_0, # of connection points: 2
#     Edge 56, Type (0, 0), BuildingBlock: OJICUG_clean_linker_0, # of connection points: 2
#     Edge 57, Type (0, 0), BuildingBlock: OJICUG_clean_linker_0, # of connection points: 2
#     Edge 58, Type (0, 0), BuildingBlock: OJICUG_clean_linker_0, # of connection points: 2
#     Edge 59, Type (0, 0), BuildingBlock: OJICUG_clean_linker_0, # of connection points: 2
#     Edge 60, Type (0, 0), BuildingBlock: OJICUG_clean_linker_0, # of connection points: 2
#     Edge 61, Type (0, 0), BuildingBlock: OJICUG_clean_linker_0, # of connection points: 2
#     Edge 62, Type (0, 0), BuildingBlock: OJICUG_clean_linker_0, # of connection points: 2
#     Edge 63, Type (0, 0), BuildingBlock: OJICUG_clean_linker_0, # of connection points: 2
#     Edge 64, Type (0, 0), BuildingBlock: OJICUG_clean_linker_0, # of connection points: 2
#     Edge 65, Type (0, 0), BuildingBlock: OJICUG_clean_linker_0, # of connection points: 2
#     Edge 66, Type (0, 0), BuildingBlock: OJICUG_clean_linker_0, # of connection points: 2
#     Edge 67, Type (0, 0), BuildingBlock: OJICUG_clean_linker_0, # of connection points: 2
#     Edge 68, Type (0, 0), BuildingBlock: OJICUG_clean_linker_0, # of connection points: 2
#     Edge 69, Type (0, 0), BuildingBlock: OJICUG_clean_linker_0, # of connection points: 2
#     Edge 70, Type (0, 0), BuildingBlock: OJICUG_clean_linker_0, # of connection points: 2
#     Edge 71, Type (0, 0), BuildingBlock: OJICUG_clean_linker_0, # of connection points: 2
# Relax obj value: 0.204
# Max RMSD: 0.230
# Mean RMSD: 0.214
data_MOF--net-cbo--node1-KUFVIS_clean_sbu_0--edge1-OJICUG_clean_linker_0
_symmetry_space_group_name_H-M    P1
_symmetry_Int_Tables_number       1
_symmetry_cell_setting            triclinic
loop_
_symmetry_equiv_pos_as_xyz
'x, y, z'
_cell_length_a     37.424723
_cell_length_b     36.969101
_cell_length_c     38.188692
_cell_angle_alpha  90.001361
_cell_angle_beta   89.993208
_cell_angle_gamma 89.990338
loop_
_atom_site_label
_atom_site_type_symbol
_atom_site_fract_x
_atom_site_fract_y
_atom_site_fract_z
_atom_type_partial_charge
Mn0 Mn 0.12819 0.17212 0.32702 0.0
Mn1 Mn 0.13302 0.08382 0.34758 0.0
C2 C 0.18019 0.1401 0.3168 0.0
C3 C 0.11618 0.2166 0.28527 0.0
C4 C 0.13587 0.14371 0.40192 0.0
O5 O 0.0759 0.15801 0.33231 0.0
O6 O 0.08187 0.09818 0.34329 0.0
C7 C 0.1047 0.05292 0.28173 0.0
N8 N 0.1317 0.05596 0.30545 0.0
C9 C 0.1696 0.01691 0.27135 0.0
C10 C 0.1421 0.01314 0.24668 0.0
C11 C 0.10952 0.03124 0.25191 0.0
C12 C 0.1631 0.03853 0.30078 0.0
H13 H 0.07975 0.06709 0.28547 0.0
C14 C 0.06287 0.12666 0.33835 0.0
O15 O 0.11687 0.22445 0.31847 0.0
O16 O 0.12074 0.18307 0.27678 0.0
N17 N 0.18126 0.06724 0.352 0.0
C18 C 0.20579 0.07559 0.37708 0.0
C19 C 0.24022 0.06063 0.37511 0.0
C20 C 0.24907 0.03732 0.34738 0.0
C21 C 0.22334 0.02908 0.32191 0.0
C22 C 0.18934 0.04447 0.32545 0.0
H23 H 0.19922 0.09379 0.39824 0.0
O24 O 0.18095 0.17499 0.32001 0.0
O25 O 0.14894 0.12522 0.32023 0.0
O26 O 0.13482 0.17032 0.38055 0.0
O27 O 0.13511 0.11059 0.39233 0.0
C28 C 0.23033 0.00683 0.29274 0.0
C29 C 0.20347 0.00073 0.2675 0.0
H30 H 0.14584 0.99673 0.22347 0.0
H31 H 0.08825 0.02865 0.23287 0.0
H32 H 0.25998 0.06724 0.39479 0.0
H33 H 0.27577 0.02614 0.34575 0.0
H34 H 0.2564 0.99462 0.28926 0.0
H35 H 0.20931 0.98393 0.24497 0.0
Mn36 Mn 0.37357 0.82542 0.82473 0.0
Mn37 Mn 0.36487 0.91242 0.84891 0.0
C38 C 0.32037 0.85583 0.81577 0.0
C39 C 0.38658 0.78269 0.78148 0.0
C40 C 0.36193 0.85067 0.90068 0.0
O41 O 0.42515 0.84104 0.82963 0.0
O42 O 0.41658 0.89847 0.84807 0.0
C43 C 0.39845 0.94533 0.78634 0.0
N44 N 0.36959 0.94152 0.80776 0.0
C45 C 0.33442 0.9813 0.77168 0.0
C46 C 0.36385 0.98583 0.74939 0.0
C47 C 0.396 0.96776 0.75677 0.0
C48 C 0.33857 0.95891 0.80098 0.0
H49 H 0.42313 0.93124 0.79168 0.0
C50 C 0.43683 0.87163 0.84004 0.0
O51 O 0.38667 0.77383 0.81445 0.0
O52 O 0.38053 0.81624 0.77406 0.0
N53 N 0.3164 0.92902 0.85 0.0
C54 C 0.28999 0.92031 0.87306 0.0
C55 C 0.25583 0.93541 0.86884 0.0
C56 C 0.24918 0.95926 0.84097 0.0
C57 C 0.27682 0.96795 0.81765 0.0
C58 C 0.31043 0.95238 0.82341 0.0
H59 H 0.29485 0.90168 0.89425 0.0
O60 O 0.32084 0.82089 0.81837 0.0
O61 O 0.35106 0.87182 0.81941 0.0
O62 O 0.36828 0.82544 0.87858 0.0
O63 O 0.35873 0.884 0.89236 0.0
C64 C 0.27216 0.99089 0.78856 0.0
C65 C 0.30094 0.99757 0.76559 0.0
H66 H 0.36198 0.00285 0.72638 0.0
H67 H 0.41878 0.97095 0.73958 0.0
H68 H 0.2346 0.92846 0.88687 0.0
H69 H 0.22269 0.97055 0.83757 0.0
H70 H 0.24645 0.00324 0.78338 0.0
H71 H 0.29692 0.01496 0.7431 0.0
Mn72 Mn 0.62749 0.32759 0.67767 0.0
Mn73 Mn 0.63247 0.41582 0.65685 0.0
C74 C 0.67951 0.35953 0.68781 0.0
C75 C 0.61535 0.28326 0.71948 0.0
C76 C 0.63536 0.35574 0.60273 0.0
O77 O 0.57525 0.34177 0.67228 0.0
O78 O 0.58129 0.40155 0.66111 0.0
C79 C 0.60407 0.44695 0.72258 0.0
N80 N 0.63111 0.4438 0.69891 0.0
C81 C 0.66901 0.48286 0.73297 0.0
C82 C 0.64148 0.48674 0.75759 0.0
C83 C 0.60887 0.4687 0.75236 0.0
C84 C 0.66253 0.46118 0.70359 0.0
H85 H 0.57911 0.43282 0.71884 0.0
C86 C 0.56226 0.37311 0.66612 0.0
O87 O 0.61607 0.27533 0.6863 0.0
O88 O 0.61995 0.3168 0.72792 0.0
N89 N 0.68074 0.43232 0.65246 0.0
C90 C 0.7053 0.42387 0.62743 0.0
C91 C 0.73974 0.43879 0.6294 0.0
C92 C 0.74857 0.46215 0.6571 0.0
C93 C 0.72282 0.47048 0.68252 0.0
C94 C 0.68881 0.45514 0.67896 0.0
H95 H 0.69873 0.40564 0.60629 0.0
O96 O 0.68022 0.32463 0.68474 0.0
O97 O 0.64829 0.37447 0.68433 0.0
O98 O 0.63422 0.32921 0.62418 0.0
O99 O 0.63462 0.3889 0.61219 0.0
C100 C 0.72979 0.49279 0.71164 0.0
C101 C 0.7029 0.49899 0.73684 0.0
H102 H 0.6452 0.5032 0.78077 0.0
H103 H 0.58757 0.47137 0.77136 0.0
H104 H 0.75952 0.43211 0.60976 0.0
H105 H 0.77529 0.47328 0.65874 0.0
H106 H 0.75587 0.50496 0.71514 0.0
H107 H 0.70872 0.51583 0.75934 0.0
Mn108 Mn 0.87237 0.67223 0.1781 0.0
Mn109 Mn 0.86638 0.5844 0.15601 0.0
C110 C 0.81992 0.6408 0.18774 0.0
C111 C 0.88541 0.71545 0.22093 0.0
C112 C 0.86459 0.64534 0.10266 0.0
O113 O 0.92436 0.65742 0.1725 0.0
O114 O 0.91773 0.59782 0.16079 0.0
C115 C 0.89383 0.55185 0.22146 0.0
N116 N 0.86702 0.55577 0.19766 0.0
C117 C 0.82829 0.5168 0.23093 0.0
C118 C 0.85559 0.51213 0.25567 0.0
C119 C 0.8885 0.52974 0.2509 0.0
C120 C 0.8353 0.53882 0.2019 0.0
H121 H 0.91903 0.56565 0.21808 0.0
C122 C 0.93703 0.626 0.16613 0.0
O123 O 0.88469 0.72414 0.18793 0.0
O124 O 0.88009 0.68183 0.2286 0.0
N125 N 0.81789 0.56874 0.15108 0.0
C126 C 0.79363 0.57797 0.12604 0.0
C127 C 0.75895 0.56358 0.12759 0.0
C128 C 0.74957 0.53994 0.15488 0.0
C129 C 0.77503 0.5308 0.18034 0.0
C130 C 0.8093 0.54564 0.1772 0.0
H131 H 0.80062 0.59642 0.10521 0.0
O132 O 0.81965 0.67577 0.18526 0.0
O133 O 0.85096 0.62557 0.18395 0.0
O134 O 0.86573 0.67161 0.12446 0.0
O135 O 0.86498 0.61205 0.11175 0.0
C136 C 0.76751 0.50817 0.2091 0.0
C137 C 0.79413 0.50116 0.23437 0.0
H138 H 0.85146 0.49539 0.27859 0.0
H139 H 0.90962 0.52645 0.26999 0.0
H140 H 0.73941 0.57089 0.10794 0.0
H141 H 0.72267 0.52921 0.15621 0.0
H142 H 0.74122 0.49637 0.21226 0.0
H143 H 0.7879 0.48408 0.25659 0.0
Mn144 Mn 0.33276 0.1164 0.17557 0.0
Mn145 Mn 0.3537 0.1081 0.09075 0.0
C146 C 0.3247 0.16613 0.139 0.0
C147 C 0.29103 0.108 0.22019 0.0
C148 C 0.40832 0.11367 0.14952 0.0
O149 O 0.33838 0.06203 0.1678 0.0
O150 O 0.33873 0.06006 0.10875 0.0
C151 C 0.28411 0.08924 0.05881 0.0
N152 N 0.31323 0.11123 0.06053 0.0
C153 C 0.29414 0.14469 0.00987 0.0
C154 C 0.26383 0.1225 0.00757 0.0
C155 C 0.25867 0.09482 0.0323 0.0
C156 C 0.31809 0.13838 0.03733 0.0
H157 H 0.28042 0.0676 0.07747 0.0
C158 C 0.33735 0.04484 0.13882 0.0
O159 O 0.32502 0.1096 0.22691 0.0
O160 O 0.28154 0.1103 0.1876 0.0
N161 N 0.36864 0.15258 0.06998 0.0
C162 C 0.39888 0.172 0.07641 0.0
C163 C 0.40885 0.19968 0.05332 0.0
C164 C 0.38783 0.20688 0.02373 0.0
C165 C 0.35611 0.18745 0.01828 0.0
C166 C 0.34768 0.16001 0.04209 0.0
H167 H 0.41592 0.16575 0.09835 0.0
O168 O 0.32644 0.16981 0.17276 0.0
O169 O 0.32681 0.13291 0.12774 0.0
O170 O 0.38679 0.12267 0.17376 0.0
O171 O 0.39817 0.10474 0.11879 0.0
C172 C 0.33305 0.19348 0.98968 0.0
C173 C 0.30174 0.17257 0.98584 0.0
H174 H 0.24439 0.12642 0.9869 0.0
H175 H 0.23538 0.07756 0.03068 0.0
H176 H 0.43321 0.21477 0.05778 0.0
H177 H 0.39677 0.22698 0.00515 0.0
H178 H 0.33909 0.21416 0.97049 0.0
H179 H 0.28396 0.17785 0.96405 0.0
Mn180 Mn 0.16665 0.88174 0.67539 0.0
Mn181 Mn 0.14592 0.88999 0.59036 0.0
C182 C 0.17409 0.83185 0.63889 0.0
C183 C 0.20853 0.88889 0.72011 0.0
C184 C 0.0909 0.88514 0.64891 0.0
O185 O 0.16264 0.93623 0.66758 0.0
O186 O 0.16052 0.93815 0.60856 0.0
C187 C 0.21561 0.90939 0.55888 0.0
N188 N 0.18664 0.88717 0.5604 0.0
C189 C 0.20702 0.85309 0.51058 0.0
C190 C 0.23712 0.87559 0.50845 0.0
C191 C 0.24152 0.90373 0.53283 0.0
C192 C 0.18238 0.85973 0.53739 0.0
H193 H 0.21885 0.93123 0.57738 0.0
C194 C 0.1632 0.95341 0.63856 0.0
O195 O 0.1745 0.88817 0.7268 0.0
O196 O 0.21799 0.8865 0.68753 0.0
N197 N 0.13153 0.84535 0.56952 0.0
C198 C 0.10174 0.8253 0.57613 0.0
C199 C 0.09292 0.7966 0.55375 0.0
C200 C 0.11467 0.78897 0.52475 0.0
C201 C 0.14583 0.80923 0.51907 0.0
C202 C 0.15305 0.83772 0.5421 0.0
H203 H 0.08432 0.83165 0.59777 0.0
O204 O 0.17171 0.82823 0.67261 0.0
O205 O 0.17256 0.86511 0.62756 0.0
O206 O 0.11236 0.87684 0.67348 0.0
O207 O 0.10119 0.89309 0.61798 0.0
C208 C 0.16963 0.80277 0.49115 0.0
C209 C 0.20048 0.82434 0.48722 0.0
H210 H 0.25704 0.87147 0.48826 0.0
H211 H 0.26469 0.92118 0.53137 0.0
H212 H 0.06898 0.78088 0.55838 0.0
H213 H 0.10678 0.76782 0.50683 0.0
H214 H 0.16458 0.78123 0.47261 0.0
H215 H 0.21886 0.81874 0.46599 0.0
Mn216 Mn 0.83235 0.38353 0.82866 0.0
Mn217 Mn 0.8535 0.39199 0.91343 0.0
C218 C 0.8248 0.33378 0.86527 0.0
C219 C 0.79048 0.39161 0.78416 0.0
C220 C 0.908 0.38672 0.85453 0.0
O221 O 0.83732 0.43794 0.8364 0.0
O222 O 0.8382 0.43992 0.89543 0.0
C223 C 0.7839 0.41052 0.94558 0.0
N224 N 0.81314 0.38868 0.94378 0.0
C225 C 0.79434 0.35512 0.99449 0.0
C226 C 0.76393 0.37716 0.99688 0.0
C227 C 0.75857 0.40482 0.97216 0.0
C228 C 0.8182 0.36156 0.96698 0.0
H229 H 0.78005 0.43213 0.92692 0.0
C230 C 0.83629 0.45515 0.86538 0.0
O231 O 0.82447 0.39028 0.77736 0.0
O232 O 0.78105 0.38916 0.81676 0.0
N233 N 0.86873 0.34759 0.93419 0.0
C234 C 0.89902 0.32828 0.92764 0.0
C235 C 0.90915 0.30059 0.95067 0.0
C236 C 0.88823 0.29328 0.98031 0.0
C237 C 0.85647 0.31261 0.98588 0.0
C238 C 0.84788 0.34006 0.96213 0.0
H239 H 0.91597 0.3346 0.90565 0.0
O240 O 0.82656 0.33009 0.83151 0.0
O241 O 0.82665 0.36702 0.87652 0.0
O242 O 0.88643 0.37775 0.83032 0.0
O243 O 0.8979 0.39554 0.8853 0.0
C244 C 0.83351 0.30646 0.01453 0.0
C245 C 0.80213 0.32724 0.01848 0.0
H246 H 0.74455 0.37314 0.01759 0.0
H247 H 0.73519 0.42196 0.97384 0.0
H248 H 0.93355 0.28559 0.94612 0.0
H249 H 0.89728 0.27316 0.99883 0.0
H250 H 0.83966 0.28577 0.03367 0.0
H251 H 0.78441 0.32187 0.0403 0.0
Mn252 Mn 0.66752 0.61649 0.32902 0.0
Mn253 Mn 0.64684 0.60903 0.4141 0.0
C254 C 0.67516 0.66667 0.36505 0.0
C255 C 0.70916 0.60845 0.28428 0.0
C256 C 0.59186 0.61357 0.35555 0.0
O257 O 0.6632 0.56214 0.3373 0.0
O258 O 0.66141 0.56068 0.39633 0.0
C259 C 0.71651 0.58987 0.44577 0.0
N260 N 0.68755 0.61211 0.44404 0.0
C261 C 0.7079 0.6466 0.49359 0.0
C262 C 0.73799 0.6241 0.49592 0.0
C263 C 0.7424 0.59574 0.47178 0.0
C264 C 0.68329 0.63975 0.46682 0.0
H265 H 0.71974 0.56785 0.42745 0.0
C266 C 0.66385 0.54517 0.36643 0.0
O267 O 0.67512 0.60937 0.27769 0.0
O268 O 0.71878 0.61125 0.31679 0.0
N269 N 0.63246 0.65388 0.43454 0.0
C270 C 0.60267 0.67388 0.42777 0.0
C271 C 0.59382 0.70276 0.44992 0.0
C272 C 0.61554 0.71062 0.47887 0.0
C273 C 0.64671 0.69042 0.48471 0.0
C274 C 0.65397 0.66173 0.46191 0.0
H275 H 0.58526 0.66735 0.40617 0.0
O276 O 0.67288 0.66999 0.33129 0.0
O277 O 0.67353 0.63353 0.37668 0.0
O278 O 0.61333 0.62174 0.33096 0.0
O279 O 0.60211 0.60571 0.38651 0.0
C280 C 0.67049 0.6971 0.5126 0.0
C281 C 0.70134 0.67555 0.51672 0.0
H282 H 0.75789 0.62839 0.51609 0.0
H283 H 0.76556 0.5783 0.47339 0.0
H284 H 0.56988 0.71843 0.44516 0.0
H285 H 0.60761 0.73189 0.49664 0.0
H286 H 0.66541 0.7188 0.53097 0.0
H287 H 0.71971 0.68133 0.53791 0.0
Mn288 Mn 0.1829 0.31439 0.11439 0.0
Mn289 Mn 0.2544 0.35175 0.07498 0.0
C290 C 0.23133 0.27804 0.09946 0.0
C291 C 0.15304 0.29972 0.1662 0.0
C292 C 0.18464 0.33594 0.03751 0.0
O293 O 0.17534 0.36845 0.12205 0.0
O294 O 0.22707 0.38979 0.09984 0.0
C295 C 0.29601 0.37324 0.13752 0.0
N296 N 0.29371 0.35499 0.10665 0.0
C297 C 0.35553 0.33747 0.10968 0.0
C298 C 0.35864 0.35609 0.14155 0.0
C299 C 0.32869 0.37389 0.15561 0.0
C300 C 0.32217 0.33733 0.09317 0.0
H301 H 0.27309 0.38726 0.14811 0.0
C302 C 0.19684 0.39419 0.11492 0.0
O303 O 0.13597 0.30241 0.13669 0.0
O304 O 0.18701 0.30641 0.16569 0.0
N305 N 0.28324 0.31857 0.04931 0.0
C306 C 0.27543 0.30165 0.01857 0.0
C307 C 0.30275 0.28419 1.00004 0.0
C308 C 0.3377 0.28436 0.01333 0.0
C309 C 0.34486 0.30074 0.04567 0.0
C310 C 0.31671 0.31843 0.06254 0.0
H311 H 0.24882 0.30246 0.0077 0.0
O312 O 0.20001 0.2643 0.10527 0.0
O313 O 0.23361 0.313 0.10343 0.0
O314 O 0.16855 0.31989 0.06256 0.0
O315 O 0.21586 0.34948 0.04009 0.0
C316 C 0.37895 0.30112 0.06136 0.0
C317 C 0.38417 0.31907 0.0936 0.0
H318 H 0.38387 0.35688 0.15544 0.0
H319 H 0.33088 0.38832 0.18018 0.0
H320 H 0.29708 0.27147 0.97513 0.0
H321 H 0.3589 0.27264 0.99796 0.0
H322 H 0.40129 0.28761 0.04894 0.0
H323 H 0.41038 0.31885 0.10562 0.0
Mn324 Mn 0.68283 0.18583 0.89012 0.0
Mn325 Mn 0.75451 0.14828 0.92905 0.0
C326 C 0.73137 0.22204 0.90483 0.0
C327 C 0.65268 0.2005 0.83851 0.0
C328 C 0.68495 0.16408 0.96691 0.0
O329 O 0.67517 0.13182 0.88245 0.0
O330 O 0.72704 0.11035 0.90422 0.0
C331 C 0.79583 0.1269 0.86628 0.0
N332 N 0.79368 0.14508 0.8972 0.0
C333 C 0.85548 0.16261 0.8939 0.0
C334 C 0.85844 0.14406 0.86198 0.0
C335 C 0.82843 0.12628 0.84803 0.0
C336 C 0.8222 0.16269 0.91059 0.0
H337 H 0.77287 0.11292 0.85577 0.0
C338 C 0.69671 0.10606 0.88932 0.0
O339 O 0.63578 0.19785 0.86812 0.0
O340 O 0.68666 0.19381 0.83882 0.0
N341 N 0.78348 0.18137 0.95467 0.0
C342 C 0.7758 0.19828 0.98545 0.0
C343 C 0.80319 0.21579 0.00384 0.0
C344 C 0.83807 0.21566 0.99037 0.0
C345 C 0.8451 0.19926 0.958 0.0
C346 C 0.81689 0.18154 0.94128 0.0
H347 H 0.74924 0.19746 0.99644 0.0
O348 O 0.70004 0.23587 0.89919 0.0
O349 O 0.73358 0.1871 0.90079 0.0
O350 O 0.66877 0.18028 0.94201 0.0
O351 O 0.71612 0.15047 0.96412 0.0
C352 C 0.8791 0.19894 0.94213 0.0
C353 C 0.88418 0.18101 0.90985 0.0
H354 H 0.88359 0.14331 0.84796 0.0
H355 H 0.8305 0.11191 0.82342 0.0
H356 H 0.79762 0.22851 0.02877 0.0
H357 H 0.85933 0.22743 0.0056 0.0
H358 H 0.90148 0.21248 0.95443 0.0
H359 H 0.91033 0.18128 0.89769 0.0
Mn360 Mn 0.81919 0.81325 0.39168 0.0
Mn361 Mn 0.74686 0.85413 0.42477 0.0
C362 C 0.76929 0.77821 0.4046 0.0
C363 C 0.85074 0.79791 0.34094 0.0
C364 C 0.81509 0.83948 0.46615 0.0
O365 O 0.8286 0.86708 0.38462 0.0
O366 O 0.77371 0.8895 0.39567 0.0
C367 C 0.70473 0.86921 0.36083 0.0
N368 N 0.70738 0.85389 0.39314 0.0
C369 C 0.64583 0.83519 0.39176 0.0
C370 C 0.64238 0.85078 0.35844 0.0
C371 C 0.67201 0.86772 0.34285 0.0
C372 C 0.67918 0.83718 0.40821 0.0
H373 H 0.72739 0.88252 0.34896 0.0
C374 C 0.806 0.8929 0.38507 0.0
O375 O 0.86677 0.79988 0.3711 0.0
O376 O 0.81701 0.80555 0.34032 0.0
N377 N 0.71844 0.82313 0.45344 0.0
C378 C 0.72659 0.80863 0.48525 0.0
C379 C 0.69971 0.79175 0.50489 0.0
C380 C 0.66478 0.79005 0.49167 0.0
C381 C 0.65723 0.80407 0.45838 0.0
C382 C 0.68499 0.82112 0.44027 0.0
H383 H 0.75314 0.81075 0.49603 0.0
O384 O 0.80047 0.76364 0.4001 0.0
O385 O 0.76811 0.81314 0.39999 0.0
O386 O 0.83054 0.81881 0.44406 0.0
O387 O 0.78558 0.8557 0.46 0.0
C388 C 0.62315 0.80249 0.44274 0.0
C389 C 0.61756 0.81764 0.40926 0.0
H390 H 0.61716 0.84984 0.34457 0.0
H391 H 0.66957 0.87979 0.31714 0.0
H392 H 0.70571 0.7808 0.53051 0.0
H393 H 0.64392 0.77854 0.50768 0.0
H394 H 0.60108 0.78956 0.45615 0.0
H395 H 0.59137 0.81585 0.39731 0.0
Mn396 Mn 0.31863 0.68573 0.61107 0.0
Mn397 Mn 0.2462 0.64505 0.57799 0.0
C398 C 0.26867 0.72086 0.59851 0.0
C399 C 0.35055 0.70082 0.66159 0.0
C400 C 0.31439 0.65978 0.53657 0.0
O401 O 0.32799 0.63185 0.61791 0.0
O402 O 0.27303 0.60955 0.60696 0.0
C403 C 0.20403 0.62972 0.64185 0.0
N404 N 0.20671 0.6452 0.60961 0.0
C405 C 0.14517 0.66396 0.61107 0.0
C406 C 0.1417 0.6482 0.64431 0.0
C407 C 0.17131 0.63116 0.65983 0.0
C408 C 0.17853 0.662 0.59461 0.0
H409 H 0.22668 0.61634 0.65367 0.0
C410 C 0.30533 0.60608 0.6175 0.0
O411 O 0.36635 0.69891 0.63131 0.0
O412 O 0.3168 0.69327 0.66246 0.0
N413 N 0.21781 0.67623 0.54945 0.0
C414 C 0.226 0.69093 0.51773 0.0
C415 C 0.19916 0.708 0.4982 0.0
C416 C 0.16422 0.70967 0.51142 0.0
C417 C 0.15663 0.69543 0.54462 0.0
C418 C 0.18436 0.67821 0.56263 0.0
H419 H 0.25256 0.68884 0.50695 0.0
O420 O 0.29988 0.73539 0.60291 0.0
O421 O 0.26751 0.6859 0.60296 0.0
O422 O 0.32981 0.68042 0.55868 0.0
O423 O 0.28491 0.64353 0.54271 0.0
C424 C 0.12255 0.69698 0.56025 0.0
C425 C 0.11693 0.68163 0.59365 0.0
H426 H 0.11647 0.6491 0.65819 0.0
H427 H 0.16885 0.61896 0.68548 0.0
H428 H 0.20519 0.71913 0.47266 0.0
H429 H 0.1434 0.72137 0.4955 0.0
H430 H 0.1005 0.71002 0.54691 0.0
H431 H 0.09074 0.6834 0.6056 0.0
Mn432 Mn 0.87248 0.83404 0.68306 0.0
Mn433 Mn 0.86843 0.92269 0.66361 0.0
C434 C 0.82098 0.86659 0.69428 0.0
C435 C 0.8851 0.78901 0.72424 0.0
C436 C 0.86036 0.86367 0.60889 0.0
O437 O 0.92473 0.84702 0.67683 0.0
O438 O 0.91932 0.90634 0.66397 0.0
C439 C 0.903 0.95083 0.7278 0.0
N440 N 0.87425 0.94963 0.70597 0.0
C441 C 0.8411 0.99025 0.74301 0.0
C442 C 0.87047 0.99213 0.76573 0.0
C443 C 0.90154 0.97232 0.75809 0.0
C444 C 0.84425 0.96867 0.71303 0.0
H445 H 0.92683 0.9354 0.72221 0.0
C446 C 0.93809 0.87776 0.66914 0.0
O447 O 0.88354 0.78146 0.691 0.0
O448 O 0.88084 0.82252 0.73297 0.0
N449 N 0.82089 0.94183 0.66289 0.0
C450 C 0.79427 0.93554 0.63931 0.0
C451 C 0.76103 0.95256 0.64373 0.0
C452 C 0.7555 0.97585 0.67228 0.0
C453 C 0.78335 0.98205 0.69609 0.0
C454 C 0.81604 0.96464 0.69014 0.0
H455 H 0.79822 0.91735 0.61756 0.0
O456 O 0.81989 0.83172 0.69101 0.0
O457 O 0.85238 0.88129 0.69098 0.0
O458 O 0.86455 0.83672 0.62957 0.0
O459 O 0.86119 0.8966 0.61915 0.0
C460 C 0.77975 0.00427 0.72586 0.0
C461 C 0.8086 0.00837 0.7493 0.0
H462 H 0.86935 0.00845 0.78927 0.0
H463 H 0.92424 0.97346 0.77561 0.0
H464 H 0.73962 0.94753 0.62531 0.0
H465 H 0.7297 0.98862 0.6758 0.0
H466 H 0.75476 0.01801 0.73119 0.0
H467 H 0.80537 0.02522 0.7723 0.0
Mn468 Mn 0.62575 0.16867 0.1824 0.0
Mn469 Mn 0.63112 0.0802 0.16243 0.0
C470 C 0.6779 0.13703 0.19263 0.0
C471 C 0.6132 0.21308 0.22413 0.0
C472 C 0.63697 0.13977 0.10799 0.0
O473 O 0.57368 0.15471 0.17676 0.0
O474 O 0.58 0.09542 0.16404 0.0
C475 C 0.59871 0.05078 0.22715 0.0
N476 N 0.62691 0.05281 0.2047 0.0
C477 C 0.66186 0.01276 0.2407 0.0
C478 C 0.63308 0.01002 0.26407 0.0
C479 C 0.60138 0.02913 0.25726 0.0
C480 C 0.6575 0.03444 0.21093 0.0
H481 H 0.57441 0.06568 0.22221 0.0
C482 C 0.56082 0.12367 0.16938 0.0
O483 O 0.61401 0.22099 0.19093 0.0
O484 O 0.61795 0.17955 0.23249 0.0
N485 N 0.67906 0.06222 0.1605 0.0
C486 C 0.70496 0.06932 0.13637 0.0
C487 C 0.7387 0.05312 0.13994 0.0
C488 C 0.74545 0.0298 0.16822 0.0
C489 C 0.71831 0.02273 0.19259 0.0
C490 C 0.68508 0.03933 0.18746 0.0
H491 H 0.70003 0.0875 0.11479 0.0
O492 O 0.67837 0.17193 0.1896 0.0
O493 O 0.64674 0.12179 0.18968 0.0
O494 O 0.63299 0.16655 0.12889 0.0
O495 O 0.6367 0.10678 0.11806 0.0
C496 C 0.72314 0.00043 0.22213 0.0
C497 C 0.69494 0.99544 0.24617 0.0
H498 H 0.63515 0.99361 0.28748 0.0
H499 H 0.57914 0.02733 0.27528 0.0
H500 H 0.75954 0.0588 0.12108 0.0
H501 H 0.77164 0.01768 0.17109 0.0
H502 H 0.74858 0.98731 0.22683 0.0
H503 H 0.69912 0.97857 0.26899 0.0
Mn504 Mn 0.37387 0.66489 0.32018 0.0
Mn505 Mn 0.36954 0.57626 0.33978 0.0
C506 C 0.32234 0.63251 0.30905 0.0
C507 C 0.38666 0.70976 0.27886 0.0
C508 C 0.36121 0.63538 0.39433 0.0
O509 O 0.42603 0.65179 0.32657 0.0
O510 O 0.42042 0.59257 0.33975 0.0
C511 C 0.40454 0.54811 0.27581 0.0
N512 N 0.37565 0.54931 0.29746 0.0
C513 C 0.34276 0.50868 0.26023 0.0
C514 C 0.37228 0.5068 0.23769 0.0
C515 C 0.40329 0.52662 0.24551 0.0
C516 C 0.3457 0.53028 0.29022 0.0
H517 H 0.42833 0.56354 0.28154 0.0
C518 C 0.43926 0.62108 0.33454 0.0
O519 O 0.3851 0.71742 0.31209 0.0
O520 O 0.38236 0.67624 0.27024 0.0
N521 N 0.322 0.55711 0.34023 0.0
C522 C 0.29526 0.56331 0.3637 0.0
C523 C 0.26208 0.54623 0.35912 0.0
C524 C 0.25674 0.52296 0.33052 0.0
C525 C 0.28473 0.51682 0.30684 0.0
C526 C 0.31734 0.53428 0.31295 0.0
H527 H 0.29907 0.58149 0.38548 0.0
O528 O 0.32135 0.66739 0.31216 0.0
O529 O 0.35368 0.61768 0.31233 0.0
O530 O 0.36574 0.6623 0.37366 0.0
O531 O 0.36197 0.60243 0.38413 0.0
C532 C 0.28132 0.4946 0.27705 0.0
C533 C 0.31032 0.49053 0.25377 0.0
H534 H 0.37132 0.49047 0.21415 0.0
H535 H 0.4261 0.52547 0.22813 0.0
H536 H 0.24057 0.55121 0.37744 0.0
H537 H 0.23098 0.51015 0.32687 0.0
H538 H 0.2564 0.48082 0.27159 0.0
H539 H 0.30725 0.47367 0.23076 0.0
Mn540 Mn 0.12534 0.33082 0.82201 0.0
Mn541 Mn 0.13086 0.41933 0.84181 0.0
C542 C 0.17752 0.36238 0.81166 0.0
C543 C 0.11276 0.2863 0.78036 0.0
C544 C 0.13658 0.35985 0.89639 0.0
O545 O 0.07328 0.34492 0.82763 0.0
O546 O 0.07973 0.40423 0.8402 0.0
C547 C 0.09856 0.44872 0.77703 0.0
N548 N 0.12674 0.44666 0.7995 0.0
C549 C 0.16181 0.48654 0.76345 0.0
C550 C 0.13305 0.48932 0.74006 0.0
C551 C 0.10131 0.47031 0.74689 0.0
C552 C 0.15738 0.46494 0.79325 0.0
H553 H 0.07423 0.43389 0.78199 0.0
C554 C 0.06048 0.37602 0.83491 0.0
O555 O 0.11355 0.27849 0.81358 0.0
O556 O 0.11753 0.31981 0.77193 0.0
N557 N 0.17884 0.43718 0.84374 0.0
C558 C 0.20471 0.43006 0.86789 0.0
C559 C 0.23849 0.44616 0.86431 0.0
C560 C 0.24531 0.46941 0.83599 0.0
C561 C 0.2182 0.47651 0.8116 0.0
C562 C 0.18493 0.46001 0.81674 0.0
H563 H 0.19972 0.41194 0.88951 0.0
O564 O 0.17796 0.32749 0.81478 0.0
O565 O 0.14638 0.37765 0.81463 0.0
O566 O 0.13259 0.33304 0.87554 0.0
O567 O 0.13635 0.39283 0.88624 0.0
C568 C 0.22311 0.49874 0.78202 0.0
C569 C 0.19493 0.50376 0.75796 0.0
H570 H 0.13517 0.50568 0.71662 0.0
H571 H 0.07908 0.47213 0.72885 0.0
H572 H 0.2593 0.44046 0.88319 0.0
H573 H 0.27153 0.48146 0.83311 0.0
H574 H 0.24858 0.51178 0.77731 0.0
H575 H 0.19916 0.52058 0.73511 0.0
Mn576 Mn 0.6648 0.88854 0.82969 0.0
Mn577 Mn 0.64591 0.88644 0.91569 0.0
C578 C 0.67464 0.83622 0.86176 0.0
C579 C 0.70672 0.90006 0.78584 0.0
C580 C 0.58932 0.88506 0.85853 0.0
O581 O 0.66062 0.94192 0.84256 0.0
O582 O 0.65566 0.9372 0.90136 0.0
C583 C 0.71582 0.90851 0.94501 0.0
N584 N 0.68893 0.88381 0.94258 0.0
C585 C 0.71962 0.8429 0.98129 0.0
C586 C 0.74741 0.86811 0.98456 0.0
C587 C 0.74551 0.90103 0.96629 0.0
C588 C 0.69045 0.85206 0.9601 0.0
H589 H 0.71478 0.93357 0.93057 0.0
C590 C 0.65947 0.95582 0.8732 0.0
O591 O 0.67271 0.89953 0.77884 0.0
O592 O 0.71591 0.89517 0.81815 0.0
N593 N 0.63702 0.83825 0.93192 0.0
C594 C 0.60954 0.81565 0.92363 0.0
C595 C 0.60833 0.78089 0.9384 0.0
C596 C 0.63539 0.76971 0.96146 0.0
C597 C 0.66342 0.79342 0.96959 0.0
C598 C 0.663 0.82789 0.95438 0.0
H599 H 0.58882 0.82395 0.90569 0.0
O600 O 0.67125 0.83474 0.828 0.0
O601 O 0.67187 0.86825 0.87531 0.0
O602 O 0.6105 0.88262 0.83244 0.0
O603 O 0.59988 0.88831 0.89022 0.0
C604 C 0.69219 0.78388 0.99152 0.0
C605 C 0.72025 0.80861 0.99739 0.0
H606 H 0.77057 0.86225 1.0006 0.0
H607 H 0.76702 0.92047 0.96838 0.0
H608 H 0.5867 0.76268 0.93187 0.0
H609 H 0.63456 0.74273 0.97251 0.0
H610 H 0.69325 0.75739 0.0036 0.0
H611 H 0.7425 0.80075 0.01386 0.0
Mn612 Mn 0.83442 0.11277 0.32804 0.0
Mn613 Mn 0.85419 0.10877 0.41382 0.0
C614 C 0.82551 0.16287 0.36318 0.0
C615 C 0.79252 0.1042 0.28379 0.0
C616 C 0.91032 0.11486 0.35671 0.0
O617 O 0.83738 0.05881 0.3374 0.0
O618 O 0.8464 0.05866 0.39593 0.0
C619 C 0.78523 0.08185 0.44137 0.0
N620 N 0.81105 0.1078 0.4406 0.0
C621 C 0.77859 0.14474 0.4816 0.0
C622 C 0.75179 0.11828 0.48303 0.0
C623 C 0.75513 0.08671 0.46282 0.0
C624 C 0.80821 0.13819 0.4601 0.0
H625 H 0.7875 0.0577 0.42561 0.0
C626 C 0.84097 0.04252 0.36665 0.0
O627 O 0.82651 0.10497 0.27672 0.0
O628 O 0.78331 0.10767 0.31628 0.0
N629 N 0.86148 0.15576 0.43365 0.0
C630 C 0.88837 0.17974 0.42735 0.0
C631 C 0.88831 0.21333 0.44452 0.0
C632 C 0.86061 0.22193 0.4679 0.0
C633 C 0.83322 0.19682 0.47396 0.0
C634 C 0.8349 0.16361 0.45639 0.0
H635 H 0.90954 0.17342 0.40915 0.0
O636 O 0.82905 0.16645 0.32956 0.0
O637 O 0.82765 0.12994 0.37493 0.0
O638 O 0.88892 0.11764 0.33083 0.0
O639 O 0.90011 0.11045 0.38835 0.0
C640 C 0.80393 0.20376 0.49614 0.0
C641 C 0.77665 0.17773 0.49998 0.0
H642 H 0.72834 0.1221 0.49926 0.0
H643 H 0.73444 0.06628 0.46361 0.0
H644 H 0.90945 0.23264 0.43958 0.0
H645 H 0.86046 0.24802 0.48081 0.0
H646 H 0.80188 0.22923 0.51003 0.0
H647 H 0.75403 0.18358 0.51675 0.0
Mn648 Mn 0.1651 0.61162 0.17529 0.0
Mn649 Mn 0.14524 0.61407 0.08956 0.0
C650 C 0.1743 0.66423 0.1435 0.0
C651 C 0.20736 0.59966 0.21857 0.0
C652 C 0.08942 0.61487 0.14745 0.0
O653 O 0.16079 0.5583 0.16215 0.0
O654 O 0.15569 0.56327 0.1034 0.0
C655 C 0.21489 0.59287 0.05905 0.0
N656 N 0.1878 0.61728 0.06204 0.0
C657 C 0.21735 0.65862 0.0229 0.0
C658 C 0.24533 0.6337 0.01907 0.0
C659 C 0.24411 0.60071 0.03727 0.0
C660 C 0.18867 0.64909 0.04458 0.0
H661 H 0.21437 0.56775 0.07344 0.0
C662 C 0.15966 0.54453 0.13146 0.0
O663 O 0.17343 0.60018 0.22592 0.0
O664 O 0.21629 0.60489 0.18623 0.0
N665 N 0.13563 0.66227 0.07376 0.0
C666 C 0.10811 0.68459 0.08266 0.0
C667 C 0.1063 0.7194 0.06807 0.0
C668 C 0.13282 0.73093 0.04456 0.0
C669 C 0.1609 0.70751 0.03581 0.0
C670 C 0.1611 0.67297 0.05088 0.0
H671 H 0.0878 0.67601 0.10093 0.0
O672 O 0.17144 0.66539 0.17733 0.0
O673 O 0.17159 0.63228 0.12972 0.0
O674 O 0.11083 0.61757 0.17329 0.0
O675 O 0.09961 0.61156 0.11566 0.0
C676 C 0.18916 0.7174 0.01339 0.0
C677 C 0.21734 0.69297 0.00691 0.0
H678 H 0.26813 0.63985 0.00264 0.0
H679 H 0.26578 0.58151 0.03474 0.0
H680 H 0.08463 0.73738 0.07508 0.0
H681 H 0.13153 0.75794 0.03364 0.0
H682 H 0.18974 0.74395 1.0014 0.0
H683 H 0.2392 0.70111 0.99007 0.0
Mn684 Mn 0.33384 0.38654 0.67597 0.0
Mn685 Mn 0.35372 0.3899 0.59018 0.0
C686 C 0.32517 0.33612 0.64121 0.0
C687 C 0.29191 0.39523 0.72018 0.0
C688 C 0.40977 0.38452 0.64741 0.0
O689 O 0.33658 0.44043 0.66618 0.0
O690 O 0.3457 0.44012 0.60766 0.0
C691 C 0.2847 0.41631 0.5623 0.0
N692 N 0.31063 0.39047 0.56333 0.0
C693 C 0.27841 0.35305 0.52257 0.0
C694 C 0.2515 0.37938 0.52088 0.0
C695 C 0.25467 0.41114 0.54084 0.0
C696 C 0.30796 0.3599 0.54407 0.0
H697 H 0.28684 0.4406 0.57787 0.0
C698 C 0.34017 0.4565 0.63682 0.0
O699 O 0.3259 0.39469 0.72723 0.0
O700 O 0.2827 0.39151 0.68772 0.0
N701 N 0.36124 0.34276 0.57075 0.0
C702 C 0.38822 0.31894 0.5773 0.0
C703 C 0.38833 0.28521 0.56041 0.0
C704 C 0.36071 0.27629 0.53705 0.0
C705 C 0.33324 0.30124 0.53073 0.0
C706 C 0.33474 0.33461 0.54803 0.0
H707 H 0.40932 0.3255 0.59549 0.0
O708 O 0.3287 0.33282 0.67485 0.0
O709 O 0.32719 0.36896 0.6292 0.0
O710 O 0.38834 0.38186 0.67327 0.0
O711 O 0.39961 0.38863 0.61572 0.0
C712 C 0.30402 0.294 0.50856 0.0
C713 C 0.27664 0.31989 0.50446 0.0
H714 H 0.2281 0.37533 0.50465 0.0
H715 H 0.2339 0.43148 0.53985 0.0
H716 H 0.40953 0.26602 0.56555 0.0
H717 H 0.3607 0.25009 0.52436 0.0
H718 H 0.3021 0.2684 0.49488 0.0
H719 H 0.25408 0.3138 0.4877 0.0
Mn720 Mn 0.81898 0.68527 0.88812 0.0
Mn721 Mn 0.90672 0.66606 0.88546 0.0
C722 C 0.85173 0.69658 0.83799 0.0
C723 C 0.77248 0.72568 0.89843 0.0
C724 C 0.84977 0.60939 0.87566 0.0
O725 O 0.83081 0.68053 0.93972 0.0
O726 O 0.88842 0.66344 0.93483 0.0
C727 C 0.9315 0.73103 0.92383 0.0
N728 N 0.93205 0.71002 0.89452 0.0
C729 C 0.97281 0.75076 0.86586 0.0
C730 C 0.97284 0.77268 0.89582 0.0
C731 C 0.95208 0.76276 0.92492 0.0
C732 C 0.95201 0.71928 0.8664 0.0
H733 H 0.91541 0.72372 0.94619 0.0
C734 C 0.86032 0.67022 0.95304 0.0
O735 O 0.76669 0.69101 0.89779 0.0
O736 O 0.8052 0.73636 0.89467 0.0
N737 N 0.9279 0.66817 0.83984 0.0
C738 C 0.92377 0.64496 0.81242 0.0
C739 C 0.94212 0.6515 0.78098 0.0
C740 C 0.9646 0.68176 0.77808 0.0
C741 C 0.96868 0.7051 0.80673 0.0
C742 C 0.94996 0.69701 0.83752 0.0
H743 H 0.9062 0.62195 0.81436 0.0
O744 O 0.81745 0.69196 0.83643 0.0
O745 O 0.86594 0.69437 0.86906 0.0
O746 O 0.82331 0.6302 0.88204 0.0
O747 O 0.88225 0.62003 0.87481 0.0
C748 C 0.99008 0.73643 0.80574 0.0
C749 C 0.99214 0.75925 0.83528 0.0
H750 H 0.98848 0.79731 0.89668 0.0
H751 H 0.95183 0.77963 0.94808 0.0
H752 H 0.93873 0.63341 0.75895 0.0
H753 H 0.97843 0.68692 0.75366 0.0
H754 H 0.00479 0.74343 0.78226 0.0
H755 H 0.00841 0.78344 0.83408 0.0
Mn756 Mn 0.3177 0.81569 0.11701 0.0
Mn757 Mn 0.40622 0.83147 0.11651 0.0
C758 C 0.35175 0.80256 0.16596 0.0
C759 C 0.27054 0.77601 0.10674 0.0
C760 C 0.35082 0.89049 0.12725 0.0
O761 O 0.32794 0.82234 0.06526 0.0
O762 O 0.38752 0.83135 0.06719 0.0
C763 C 0.42883 0.76362 0.08175 0.0
N764 N 0.43053 0.78651 0.10965 0.0
C765 C 0.47128 0.74694 0.13982 0.0
C766 C 0.4703 0.72319 0.11121 0.0
C767 C 0.44893 0.73155 0.08209 0.0
C768 C 0.45099 0.77872 0.13783 0.0
H769 H 0.4121 0.76965 0.05949 0.0
C770 C 0.35793 0.82805 0.05039 0.0
O771 O 0.26501 0.81069 0.10869 0.0
O772 O 0.30327 0.76504 0.10924 0.0
N773 N 0.4277 0.83145 0.16206 0.0
C774 C 0.42359 0.85574 0.18858 0.0
C775 C 0.44217 0.85062 0.22013 0.0
C776 C 0.4647 0.82053 0.22415 0.0
C777 C 0.46847 0.79584 0.19654 0.0
C778 C 0.44961 0.80258 0.16553 0.0
H779 H 0.40578 0.87845 0.18593 0.0
O780 O 0.31757 0.80739 0.16856 0.0
O781 O 0.36494 0.80517 0.1345 0.0
O782 O 0.32332 0.87025 0.1245 0.0
O783 O 0.38298 0.87891 0.12489 0.0
C784 C 0.48955 0.76436 0.19887 0.0
C785 C 0.49095 0.73993 0.17053 0.0
H786 H 0.48551 0.69826 0.11151 0.0
H787 H 0.44778 0.71319 0.06004 0.0
H788 H 0.43885 0.86964 0.24143 0.0
H789 H 0.47865 0.81644 0.24869 0.0
H790 H 0.50438 0.75841 0.22254 0.0
H791 H 0.50687 0.71556 0.17283 0.0
Mn792 Mn 0.18207 0.18413 0.61624 0.0
Mn793 Mn 0.09442 0.16414 0.61902 0.0
C794 C 0.14916 0.19542 0.66631 0.0
C795 C 0.22819 0.22504 0.60526 0.0
C796 C 0.15184 0.10797 0.62909 0.0
O797 O 0.17024 0.17885 0.56473 0.0
O798 O 0.11273 0.16144 0.5697 0.0
C799 C 0.0692 0.2288 0.58043 0.0
N800 N 0.06874 0.20786 0.60978 0.0
C801 C 0.02751 0.2483 0.63821 0.0
C802 C 0.02738 0.27014 0.6082 0.0
C803 C 0.04834 0.26034 0.5792 0.0
C804 C 0.0486 0.21701 0.63781 0.0
H805 H 0.08544 0.22158 0.55814 0.0
C806 C 0.1408 0.16825 0.55148 0.0
O807 O 0.23429 0.19043 0.60632 0.0
O808 O 0.19539 0.2354 0.60921 0.0
N809 N 0.07314 0.16622 0.66459 0.0
C810 C 0.0773 0.14305 0.69204 0.0
C811 C 0.05875 0.14948 0.72339 0.0
C812 C 0.036 0.17955 0.72616 0.0
C813 C 0.03184 0.20282 0.69745 0.0
C814 C 0.05077 0.19485 0.66676 0.0
H815 H 0.09503 0.12016 0.69018 0.0
O816 O 0.18352 0.19131 0.66791 0.0
O817 O 0.13501 0.19283 0.63526 0.0
O818 O 0.1782 0.12895 0.6227 0.0
O819 O 0.11928 0.11838 0.62984 0.0
C820 C 0.01014 0.23394 0.6983 0.0
C821 C 0.00798 0.25667 0.66871 0.0
H822 H 0.01151 0.29463 0.60723 0.0
H823 H 0.04852 0.27715 0.556 0.0
H824 H 0.06217 0.13143 0.74544 0.0
H825 H 0.02201 0.18463 0.7505 0.0
H826 H 0.99527 0.24085 0.7217 0.0
H827 H 0.99147 0.28072 0.66979 0.0
Mn828 Mn 0.6822 0.31446 0.38877 0.0
Mn829 Mn 0.59457 0.33461 0.3857 0.0
C830 C 0.64948 0.30337 0.33857 0.0
C831 C 0.72829 0.27351 0.39978 0.0
C832 C 0.65209 0.39067 0.37595 0.0
O833 O 0.67017 0.31965 0.44024 0.0
O834 O 0.61274 0.33729 0.43505 0.0
C835 C 0.56916 0.26998 0.4242 0.0
N836 N 0.56881 0.29093 0.39486 0.0
C837 C 0.52758 0.2506 0.36632 0.0
C838 C 0.52733 0.22874 0.39632 0.0
C839 C 0.54824 0.23848 0.42537 0.0
C840 C 0.54873 0.28184 0.36678 0.0
H841 H 0.58536 0.27716 0.44653 0.0
C842 C 0.64072 0.33039 0.45337 0.0
O843 O 0.73437 0.30812 0.39885 0.0
O844 O 0.6955 0.26316 0.39571 0.0
N845 N 0.57341 0.33259 0.34008 0.0
C846 C 0.57765 0.3558 0.31267 0.0
C847 C 0.55915 0.34944 0.28129 0.0
C848 C 0.53637 0.3194 0.27844 0.0
C849 C 0.53211 0.29612 0.30712 0.0
C850 C 0.551 0.30402 0.33785 0.0
H851 H 0.59539 0.37867 0.31459 0.0
O852 O 0.68384 0.30743 0.3371 0.0
O853 O 0.63519 0.30588 0.36957 0.0
O854 O 0.67838 0.36965 0.38245 0.0
O855 O 0.61952 0.38031 0.37498 0.0
C856 C 0.51036 0.26504 0.30621 0.0
C857 C 0.5081 0.24229 0.33578 0.0
H858 H 0.51142 0.20429 0.39725 0.0
H859 H 0.54833 0.22166 0.44857 0.0
H860 H 0.56263 0.36751 0.25926 0.0
H861 H 0.52242 0.31438 0.25407 0.0
H862 H 0.49552 0.25818 0.28278 0.0
H863 H 0.49155 0.21828 0.33465 0.0
C864 C 0.14977 0.29413 0.23133 0.0
C865 C 0.13614 0.2851 0.19815 0.0
H866 H 0.15256 0.28015 0.28578 0.0
C867 C 0.11035 0.25768 0.19551 0.0
H868 H 0.16969 0.3152 0.23402 0.0
C869 C 0.10124 0.2371 0.22494 0.0
C870 C 0.11687 0.24443 0.25763 0.0
H871 H 0.0996 0.25004 0.17023 0.0
H872 H 0.08373 0.214 0.2217 0.0
C873 C 0.13977 0.27428 0.26097 0.0
C874 C 0.40049 0.76518 0.71996 0.0
C875 C 0.38684 0.75571 0.75302 0.0
H876 H 0.40065 0.75407 0.66482 0.0
C877 C 0.36658 0.72397 0.75635 0.0
H878 H 0.416 0.7897 0.71673 0.0
C879 C 0.3569 0.70425 0.72653 0.0
C880 C 0.36828 0.71535 0.69312 0.0
H881 H 0.35537 0.71634 0.78144 0.0
H882 H 0.33875 0.68161 0.72936 0.0
C883 C 0.39174 0.7448 0.69028 0.0
C884 C 0.6006 0.26296 0.77991 0.0
C885 C 0.61604 0.25549 0.74715 0.0
H886 H 0.59926 0.25023 0.83466 0.0
C887 C 0.63884 0.22556 0.74377 0.0
H888 H 0.58316 0.28612 0.78317 0.0
C889 C 0.64898 0.2058 0.77341 0.0
C890 C 0.63557 0.21499 0.80663 0.0
H891 H 0.65148 0.21958 0.7189 0.0
H892 H 0.66885 0.18467 0.77067 0.0
C893 C 0.60984 0.24247 0.80935 0.0
C894 C 0.89999 0.73326 0.28225 0.0
C895 C 0.88591 0.74256 0.24931 0.0
H896 H 0.90084 0.74463 0.33734 0.0
C897 C 0.86562 0.77429 0.24609 0.0
H898 H 0.91556 0.70876 0.2854 0.0
C899 C 0.85635 0.79418 0.27594 0.0
C900 C 0.86814 0.78324 0.30927 0.0
H901 H 0.8541 0.78182 0.2211 0.0
H902 H 0.83818 0.81682 0.27323 0.0
C903 C 0.89162 0.75379 0.31195 0.0
C904 C 0.22812 0.09984 0.24015 0.0
C905 C 0.26384 0.10794 0.24825 0.0
H906 H 0.17346 0.10342 0.25616 0.0
C907 C 0.27219 0.12091 0.28188 0.0
H908 H 0.2209 0.08972 0.21449 0.0
C909 C 0.24489 0.12881 0.30577 0.0
C910 C 0.20904 0.12284 0.2967 0.0
H911 H 0.29949 0.12751 0.2888 0.0
H912 H 0.25159 0.14137 0.33054 0.0
C913 C 0.20098 0.10731 0.26414 0.0
C914 C 0.25526 0.86502 0.80463 0.0
C915 C 0.29093 0.8725 0.79594 0.0
H916 H 0.20062 0.8657 0.78767 0.0
C917 C 0.29858 0.8897 0.76406 0.0
H918 H 0.2489 0.85119 0.82885 0.0
C919 C 0.27125 0.89748 0.74037 0.0
C920 C 0.23574 0.88817 0.74812 0.0
H921 H 0.32598 0.89484 0.75636 0.0
H922 H 0.27818 0.90899 0.71518 0.0
C923 C 0.22775 0.87334 0.7811 0.0
C924 C 0.77156 0.37866 0.72253 0.0
C925 C 0.76325 0.39165 0.75616 0.0
H926 H 0.75087 0.35818 0.67392 0.0
C927 C 0.72756 0.39981 0.76432 0.0
H928 H 0.79884 0.37201 0.71558 0.0
C929 C 0.70038 0.39237 0.74037 0.0
C930 C 0.7084 0.3768 0.70781 0.0
H931 H 0.72038 0.40996 0.78998 0.0
H932 H 0.67288 0.39631 0.74838 0.0
C933 C 0.74422 0.37078 0.69869 0.0
C934 C 0.79903 0.60757 0.24005 0.0
C935 C 0.79097 0.62356 0.20769 0.0
H936 H 0.77914 0.58956 0.28957 0.0
C937 C 0.75515 0.62992 0.1988 0.0
H938 H 0.82654 0.60334 0.24788 0.0
C939 C 0.72786 0.62191 0.22267 0.0
C940 C 0.73623 0.60849 0.25612 0.0
H941 H 0.74847 0.64284 0.17419 0.0
H942 H 0.70059 0.62881 0.21593 0.0
C943 C 0.77191 0.60004 0.26404 0.0
C944 C 0.31552 0.23207 0.12987 0.0
C945 C 0.30924 0.19642 0.11856 0.0
H946 H 0.2944 0.28556 0.13446 0.0
C947 C 0.28079 0.19008 0.09542 0.0
H948 H 0.33649 0.23765 0.14867 0.0
C949 C 0.25818 0.21833 0.08518 0.0
C950 C 0.2624 0.25321 0.09926 0.0
H951 H 0.27337 0.16283 0.08837 0.0
H952 H 0.23507 0.212 0.06924 0.0
C953 C 0.2918 0.25993 0.1211 0.0
C954 C 0.81555 0.26785 0.87428 0.0
C955 C 0.80936 0.30349 0.88569 0.0
H956 H 0.79425 0.21447 0.86955 0.0
C957 C 0.78099 0.30984 0.90892 0.0
H958 H 0.83646 0.26227 0.8554 0.0
C959 C 0.75837 0.28163 0.91917 0.0
C960 C 0.76247 0.24679 0.90498 0.0
H961 H 0.7736 0.33709 0.91601 0.0
H962 H 0.73531 0.28798 0.93521 0.0
C963 C 0.79177 0.24005 0.88302 0.0
C964 C 0.74129 0.71929 0.41916 0.0
C965 C 0.73777 0.75397 0.40446 0.0
H966 H 0.72622 0.66385 0.4159 0.0
C967 C 0.70916 0.76049 0.38158 0.0
H968 H 0.76393 0.713 0.43578 0.0
C969 C 0.68529 0.73274 0.37284 0.0
C970 C 0.69091 0.69723 0.38492 0.0
H971 H 0.7074 0.78571 0.36742 0.0
H972 H 0.66482 0.73821 0.35348 0.0
C973 C 0.7189 0.69104 0.4086 0.0
C974 C 0.21803 0.80798 0.59525 0.0
C975 C 0.19002 0.8015 0.61883 0.0
H976 H 0.26316 0.7864 0.56793 0.0
C977 C 0.18454 0.76588 0.63068 0.0
H978 H 0.22525 0.83525 0.58816 0.0
C979 C 0.20855 0.7383 0.62178 0.0
C980 C 0.23714 0.74508 0.59894 0.0
H981 H 0.16407 0.76019 0.64997 0.0
H982 H 0.20689 0.71299 0.63578 0.0
C983 C 0.24054 0.77989 0.58449 0.0
C984 C 0.88611 0.74849 0.81442 0.0
C985 C 0.86937 0.71513 0.80853 0.0
H986 H 0.90549 0.79763 0.7919 0.0
C987 C 0.8631 0.70382 0.77395 0.0
H988 H 0.89024 0.7583 0.84084 0.0
C989 C 0.87181 0.7264 0.74572 0.0
C990 C 0.88601 0.761 0.75186 0.0
H991 H 0.84965 0.6784 0.76889 0.0
H992 H 0.86463 0.71804 0.71947 0.0
C993 C 0.89456 0.7711 0.78636 0.0
C994 C 0.62786 0.27512 0.24613 0.0
C995 C 0.61296 0.24078 0.25202 0.0
H996 H 0.65141 0.32227 0.26962 0.0
C997 C 0.60476 0.23032 0.28649 0.0
H998 H 0.63486 0.28368 0.21989 0.0
C999 C 0.61415 0.25231 0.31472 0.0
C1000 C 0.63147 0.28539 0.30903 0.0
H1001 H 0.59336 0.20395 0.29182 0.0
H1002 H 0.61016 0.24223 0.34107 0.0
C1003 C 0.63752 0.29706 0.27453 0.0
C1004 C 0.39474 0.72733 0.21643 0.0
C1005 C 0.38746 0.73772 0.25114 0.0
H1006 H 0.38888 0.74002 0.16205 0.0
C1007 C 0.37432 0.77269 0.25757 0.0
H1008 H 0.40486 0.70053 0.21064 0.0
C1009 C 0.36532 0.79541 0.22954 0.0
C1010 C 0.37019 0.78383 0.19482 0.0
H1011 H 0.36815 0.78131 0.284 0.0
H1012 H 0.35262 0.82115 0.23492 0.0
C1013 C 0.38592 0.75005 0.18855 0.0
C1014 C 0.13699 0.20202 0.7303 0.0
C1015 C 0.13109 0.21358 0.69573 0.0
H1016 H 0.13422 0.21563 0.78488 0.0
C1017 C 0.1139 0.24671 0.68988 0.0
H1018 H 0.15078 0.17679 0.73533 0.0
C1019 C 0.10451 0.26885 0.71801 0.0
C1020 C 0.11257 0.2585 0.75255 0.0
H1021 H 0.11002 0.2567 0.66349 0.0
H1022 H 0.09322 0.29525 0.71255 0.0
C1023 C 0.12733 0.22412 0.75859 0.0
C1024 C 0.72753 0.88694 0.72484 0.0
C1025 C 0.73448 0.9009 0.75837 0.0
H1026 H 0.75021 0.86488 0.67775 0.0
C1027 C 0.76985 0.90937 0.76762 0.0
H1028 H 0.70056 0.87986 0.71716 0.0
C1029 C 0.79802 0.90107 0.74508 0.0
C1030 C 0.79133 0.88447 0.71274 0.0
H1031 H 0.776 0.92015 0.79331 0.0
H1032 H 0.82518 0.90512 0.75409 0.0
C1033 C 0.75586 0.87827 0.70237 0.0
C1034 C 0.74317 0.1265 0.20059 0.0
C1035 C 0.70782 0.11963 0.21093 0.0
H1036 H 0.79847 0.12563 0.21541 0.0
C1037 C 0.70132 0.10272 0.24314 0.0
H1038 H 0.74861 0.14014 0.17606 0.0
C1039 C 0.72956 0.09465 0.26559 0.0
C1040 C 0.76477 0.10375 0.2564 0.0
H1041 H 0.67423 0.0982 0.25212 0.0
H1042 H 0.72355 0.08346 0.29115 0.0
C1043 C 0.77159 0.11813 0.22302 0.0
C1044 C 0.25721 0.62093 0.30162 0.0
C1045 C 0.29255 0.61464 0.2909 0.0
H1046 H 0.2018 0.61957 0.28732 0.0
C1047 C 0.29893 0.59802 0.25852 0.0
H1048 H 0.25182 0.63432 0.32629 0.0
C1049 C 0.27055 0.58987 0.2362 0.0
C1050 C 0.23532 0.59849 0.24579 0.0
H1051 H 0.326 0.59389 0.24928 0.0
H1052 H 0.27643 0.57913 0.21044 0.0
C1053 C 0.22867 0.61239 0.2794 0.0
C1054 C 0.27112 0.38138 0.781 0.0
C1055 C 0.26419 0.39565 0.7476 0.0
H1056 H 0.24829 0.35942 0.82806 0.0
C1057 C 0.22893 0.4046 0.73843 0.0
H1058 H 0.29803 0.374 0.78858 0.0
C1059 C 0.20077 0.3965 0.76096 0.0
C1060 C 0.20737 0.37971 0.79321 0.0
H1061 H 0.22284 0.4157 0.71286 0.0
H1062 H 0.17364 0.40093 0.75202 0.0
C1063 C 0.24276 0.37297 0.8035 0.0
C1064 C 0.75149 0.78898 0.90437 0.0
C1065 C 0.74332 0.75253 0.89794 0.0
H1066 H 0.73596 0.84404 0.89736 0.0
C1067 C 0.70938 0.74353 0.88475 0.0
H1068 H 0.77742 0.79674 0.9145 0.0
C1069 C 0.68536 0.77089 0.87514 0.0
C1070 C 0.69475 0.80737 0.87941 0.0
H1071 H 0.70254 0.71564 0.87923 0.0
H1072 H 0.66036 0.76367 0.86268 0.0
C1073 C 0.72761 0.8161 0.89485 0.0
C1074 C 0.22605 0.68544 0.10921 0.0
C1075 C 0.19362 0.69359 0.12575 0.0
H1076 H 0.27511 0.70552 0.08856 0.0
C1077 C 0.18416 0.72993 0.13109 0.0
H1078 H 0.23455 0.65763 0.10596 0.0
C1079 C 0.20778 0.75767 0.1215 0.0
C1080 C 0.24136 0.74917 0.10716 0.0
H1081 H 0.15951 0.73671 0.14443 0.0
H1082 H 0.20101 0.78537 0.12793 0.0
C1083 C 0.24945 0.71293 0.09958 0.0
C1084 C 0.27263 0.31595 0.60723 0.0
C1085 C 0.30571 0.30751 0.62241 0.0
H1086 H 0.22253 0.29611 0.58864 0.0
C1087 C 0.31543 0.27107 0.62648 0.0
H1088 H 0.264 0.34382 0.60488 0.0
C1089 C 0.29144 0.2435 0.6174 0.0
C1090 C 0.25716 0.25219 0.60492 0.0
H1091 H 0.34059 0.26402 0.63873 0.0
H1092 H 0.29859 0.2157 0.62296 0.0
C1093 C 0.24871 0.28857 0.5983 0.0
C1094 C 0.79159 0.25522 0.38768 0.0
C1095 C 0.75729 0.24638 0.4 0.0
H1096 H 0.84083 0.23495 0.3663 0.0
C1097 C 0.74888 0.20994 0.40632 0.0
H1098 H 0.79871 0.28308 0.38236 0.0
C1099 C 0.77288 0.18266 0.39724 0.0
C1100 C 0.80597 0.19128 0.38219 0.0
H1101 H 0.72268 0.20229 0.41586 0.0
H1102 H 0.76429 0.15477 0.39935 0.0
C1103 C 0.81565 0.22776 0.37844 0.0
C1104 C 0.15858 0.18516 0.49016 0.0
C1105 C 0.13906 0.16286 0.5131 0.0
H1106 H 0.17218 0.1972 0.4367 0.0
C1107 C 0.11816 0.13485 0.49909 0.0
H1108 H 0.1748 0.20706 0.50028 0.0
C1109 C 0.11742 0.12869 0.46299 0.0
C1110 C 0.13674 0.15104 0.44 0.0
H1111 H 0.10297 0.11716 0.51612 0.0
H1112 H 0.10142 0.10656 0.45299 0.0
C1113 C 0.15698 0.17966 0.45385 0.0
C1114 C 0.32879 0.84672 0.99415 0.0
C1115 C 0.35837 0.83181 0.0117 0.0
H1116 H 0.30698 0.86468 0.94521 0.0
C1117 C 0.38834 0.82117 0.99197 0.0
H1118 H 0.30537 0.8553 0.00861 0.0
C1119 C 0.38874 0.82555 0.95549 0.0
C1120 C 0.35963 0.8416 0.93826 0.0
H1121 H 0.41148 0.80952 0.00472 0.0
H1122 H 0.41233 0.81769 0.9409 0.0
C1123 C 0.32967 0.8521 0.95789 0.0
C1124 C 0.61805 0.36418 0.50549 0.0
C1125 C 0.63887 0.33598 0.4917 0.0
H1126 H 0.6013 0.39283 0.55138 0.0
C1127 C 0.65821 0.31371 0.5148 0.0
H1128 H 0.60301 0.38186 0.48831 0.0
C1129 C 0.65651 0.31944 0.55107 0.0
C1130 C 0.63636 0.34824 0.5647 0.0
H1131 H 0.67436 0.29167 0.50484 0.0
H1132 H 0.67157 0.30191 0.56836 0.0
C1133 C 0.61723 0.37056 0.54154 0.0
C1134 C 0.8841 0.63125 0.04172 0.0
C1135 C 0.86418 0.65314 0.06464 0.0
H1136 H 0.89908 0.62003 0.98867 0.0
C1137 C 0.84354 0.68142 0.05071 0.0
H1138 H 0.9004 0.60936 0.05178 0.0
C1139 C 0.84206 0.68695 0.01437 0.0
C1140 C 0.86209 0.66501 0.99149 0.0
H1141 H 0.82786 0.6986 0.0678 0.0
H1142 H 0.82546 0.70852 0.00418 0.0
C1143 C 0.88348 0.63744 0.00562 0.0
C1144 C 0.46146 0.14045 0.17975 0.0
C1145 C 0.44709 0.11487 0.15647 0.0
H1146 H 0.50893 0.16373 0.20169 0.0
C1147 C 0.47028 0.09153 0.13843 0.0
H1148 H 0.44416 0.15893 0.1938 0.0
C1149 C 0.50717 0.09384 0.14338 0.0
C1150 C 0.52167 0.12012 0.16583 0.0
H1151 H 0.45989 0.07151 0.12039 0.0
H1152 H 0.52438 0.07565 0.12887 0.0
C1153 C 0.49847 0.14334 0.18408 0.0
C1154 C 0.9922 0.9061 0.64229 0.0
C1155 C 0.97732 0.88054 0.66527 0.0
H1156 H 0.0398 0.92724 0.61884 0.0
C1157 C 0.00023 0.85735 0.68393 0.0
H1158 H 0.97522 0.92425 0.62748 0.0
C1159 C 0.0373 0.85962 0.67955 0.0
C1160 C 0.05205 0.88449 0.65578 0.0
H1161 H 0.98949 0.83751 0.70197 0.0
H1162 H 0.05435 0.84121 0.69399 0.0
C1163 C 0.02914 0.90774 0.63727 0.0
C1164 C 0.0069 0.40612 0.86079 0.0
C1165 C 0.02134 0.37974 0.8384 0.0
H1166 H 0.95968 0.42872 0.88366 0.0
C1167 C 0.99808 0.35664 0.8201 0.0
H1168 H 0.02417 0.42423 0.87533 0.0
C1169 C 0.96107 0.35974 0.82433 0.0
C1170 C 0.94676 0.38542 0.84756 0.0
H1171 H 0.00849 0.33618 0.80253 0.0
H1172 H 0.94372 0.34133 0.81026 0.0
C1173 C 0.97002 0.40864 0.86564 0.0
C1174 C 0.49312 0.5929 0.36197 0.0
C1175 C 0.47843 0.61825 0.33866 0.0
H1176 H 0.54055 0.57191 0.38586 0.0
C1177 C 0.50146 0.64124 0.31992 0.0
H1178 H 0.47603 0.57493 0.37685 0.0
C1179 C 0.53849 0.63895 0.32453 0.0
C1180 C 0.55305 0.61428 0.3486 0.0
H1181 H 0.49086 0.66091 0.30164 0.0
H1182 H 0.55563 0.65719 0.31001 0.0
C1183 C 0.53002 0.59125 0.36721 0.0
C1184 C 0.17126 0.44434 0.15175 0.0
C1185 C 0.18495 0.43176 0.11979 0.0
H1186 H 0.15294 0.49049 0.1809 0.0
C1187 C 0.18821 0.45575 0.09155 0.0
H1188 H 0.16847 0.42614 0.17382 0.0
C1189 C 0.17858 0.49189 0.09517 0.0
C1190 C 0.16629 0.50523 0.12746 0.0
H1191 H 0.19831 0.44648 0.0665 0.0
H1192 H 0.18181 0.50957 0.07279 0.0
C1193 C 0.16246 0.48103 0.15573 0.0
C1194 C 0.66255 0.01916 0.84861 0.0
C1195 C 0.66598 0.99513 0.87707 0.0
H1196 H 0.66896 0.07392 0.83028 0.0
C1197 C 0.67785 0.00864 0.90944 0.0
H1198 H 0.65336 0.00957 0.82337 0.0
C1199 C 0.68751 0.04477 0.91297 0.0
C1200 C 0.6847 0.06856 0.88454 0.0
H1201 H 0.68076 0.99111 0.93197 0.0
H1202 H 0.69731 0.05418 0.93808 0.0
C1203 C 0.67139 0.05584 0.85248 0.0
C1204 C 0.80625 0.98794 0.34928 0.0
C1205 C 0.83525 0.00311 0.36744 0.0
H1206 H 0.77381 0.94079 0.34121 0.0
C1207 C 0.85648 0.98088 0.38877 0.0
H1208 H 0.78929 0.00468 0.33295 0.0
C1209 C 0.84834 0.94416 0.3925 0.0
C1210 C 0.81814 0.92952 0.37593 0.0
H1211 H 0.8789 0.99208 0.40308 0.0
H1212 H 0.86441 0.92771 0.40992 0.0
C1213 C 0.79737 0.95154 0.354 0.0
C1214 C 0.30536 0.51119 0.6537 0.0
C1215 C 0.33441 0.49589 0.63571 0.0
H1216 H 0.27294 0.55842 0.66144 0.0
C1217 C 0.35571 0.51797 0.6143 0.0
H1218 H 0.28836 0.49457 0.67009 0.0
C1219 C 0.3476 0.55467 0.61033 0.0
C1220 C 0.31737 0.56945 0.62676 0.0
H1221 H 0.37817 0.50667 0.60012 0.0
H1222 H 0.36374 0.57102 0.59288 0.0
C1223 C 0.29651 0.54757 0.64875 0.0
C1224 C 0.84557 0.81703 0.52082 0.0
C1225 C 0.83111 0.84554 0.50101 0.0
H1226 H 0.86577 0.80008 0.57092 0.0
C1227 C 0.82854 0.87999 0.51615 0.0
H1228 H 0.84751 0.79011 0.50977 0.0
C1229 C 0.83922 0.88581 0.55062 0.0
C1230 C 0.85216 0.85714 0.57129 0.0
H1231 H 0.81759 0.90247 0.50143 0.0
H1232 H 0.83619 0.91277 0.56133 0.0
C1233 C 0.85572 0.82271 0.55584 0.0
C1234 C 0.66603 0.12341 0.01453 0.0
C1235 C 0.66688 0.15846 1.00066 0.0
H1236 H 0.65539 0.09 0.05862 0.0
C1237 C 0.65496 0.18755 0.02119 0.0
H1238 H 0.6752 0.10059 0.99912 0.0
C1239 C 0.6441 0.18169 0.05596 0.0
C1240 C 0.64464 0.14658 0.07036 0.0
H1241 H 0.65585 0.21489 0.01101 0.0
H1242 H 0.63632 0.20469 0.07178 0.0
C1243 C 0.65475 0.11747 0.04876 0.0
C1244 C 0.33917 0.61337 0.45231 0.0
C1245 C 0.35255 0.64197 0.43181 0.0
H1246 H 0.3168 0.59683 0.50122 0.0
C1247 C 0.35603 0.6764 0.44728 0.0
H1248 H 0.33619 0.58642 0.44159 0.0
C1249 C 0.34542 0.68213 0.48216 0.0
C1250 C 0.33055 0.6537 0.50178 0.0
H1251 H 0.36639 0.69897 0.43233 0.0
H1252 H 0.34738 0.70903 0.49324 0.0
C1253 C 0.32802 0.61926 0.48662 0.0
C1254 C 0.16538 0.37647 0.9899 0.0
C1255 C 0.16645 0.34145 0.0038 0.0
H1256 H 0.15459 0.40978 0.94576 0.0
C1257 C 0.15474 0.31226 0.98328 0.0
H1258 H 0.17441 0.39936 0.00529 0.0
C1259 C 0.14387 0.31803 0.94849 0.0
C1260 C 0.14421 0.35313 0.93405 0.0
H1261 H 0.15581 0.28494 0.99347 0.0
H1262 H 0.13627 0.29496 0.93268 0.0
C1263 C 0.1541 0.38232 0.95564 0.0
C1264 C 0.52677 0.90208 0.87423 0.0
C1265 C 0.55043 0.88312 0.85233 0.0
H1266 H 0.47226 0.91382 0.88702 0.0
C1267 C 0.53649 0.86114 0.82562 0.0
H1268 H 0.53682 0.91928 0.89497 0.0
C1269 C 0.49952 0.85736 0.82159 0.0
C1270 C 0.47587 0.87624 0.84361 0.0
H1271 H 0.55415 0.84605 0.80853 0.0
H1272 H 0.48942 0.83973 0.80121 0.0
C1273 C 0.48986 0.89906 0.86961 0.0
C1274 C 0.97247 0.09523 0.36996 0.0
C1275 C 0.94912 0.11689 0.35026 0.0
H1276 H 0.02667 0.08094 0.38104 0.0
C1277 C 0.96333 0.14129 0.32573 0.0
H1278 H 0.96217 0.07615 0.38899 0.0
C1279 C 0.0004 0.14469 0.32177 0.0
C1280 C 0.02371 0.12296 0.34154 0.0
H1281 H 0.94582 0.15844 0.3104 0.0
H1282 H 0.01083 0.16416 0.3032 0.0
C1283 C 0.00934 0.09788 0.36531 0.0
C1284 C 0.02737 0.59499 0.134 0.0
C1285 C 0.05066 0.6163 0.1541 0.0
H1286 H 0.97314 0.58088 0.12268 0.0
C1287 C 0.03645 0.64006 0.1792 0.0
H1288 H 0.03771 0.57642 0.11452 0.0
C1289 C 0.9994 0.64329 0.18328 0.0
C1290 C 0.97613 0.62201 0.16305 0.0
H1291 H 0.05391 0.65695 0.19483 0.0
H1292 H 0.98897 0.66236 0.20224 0.0
C1293 C 0.99048 0.59744 0.13877 0.0
C1294 C 0.46275 0.35846 0.67866 0.0
C1295 C 0.44856 0.38266 0.65395 0.0
H1296 H 0.51024 0.33582 0.70143 0.0
C1297 C 0.47189 0.40426 0.63418 0.0
H1298 H 0.44525 0.34136 0.69405 0.0
C1299 C 0.50876 0.40172 0.63893 0.0
C1300 C 0.52312 0.37681 0.66287 0.0
H1301 H 0.46159 0.42319 0.61501 0.0
H1302 H 0.5261 0.4186 0.62314 0.0
C1303 C 0.49982 0.35516 0.68273 0.0
C1304 C 0.86172 0.55131 0.84441 0.0
C1305 C 0.84287 0.57056 0.8702 0.0
H1306 H 0.8733 0.4995 0.82189 0.0
C1307 C 0.81923 0.55191 0.89229 0.0
H1308 H 0.88 0.56508 0.82698 0.0
C1309 C 0.81611 0.5143 0.88996 0.0
C1310 C 0.83565 0.49497 0.86473 0.0
H1311 H 0.80456 0.56618 0.91248 0.0
H1312 H 0.799 0.50022 0.90835 0.0
C1313 C 0.85769 0.51387 0.84132 0.0
C1314 C 0.36886 0.94953 0.15395 0.0
C1315 C 0.3453 0.92963 0.13273 0.0
H1316 H 0.38369 0.00178 0.1736 0.0
C1317 C 0.31726 0.94774 0.11567 0.0
H1318 H 0.39075 0.93638 0.16733 0.0
C1319 C 0.31392 0.98532 0.11845 0.0
C1320 C 0.33771 0.00511 0.13942 0.0
H1321 H 0.29887 0.93307 0.09899 0.0
H1322 H 0.29312 0.99902 0.10381 0.0
C1323 C 0.3647 0.98689 0.15775 0.0
C1324 C 0.14443 0.01261 0.66391 0.0
C1325 C 0.16456 0.99328 0.63919 0.0
H1326 H 0.12419 0.06428 0.67967 0.0
C1327 C 0.18306 0.01234 0.61299 0.0
H1328 H 0.12971 0.99852 0.68418 0.0
C1329 C 0.18064 0.05005 0.61098 0.0
C1330 C 0.15878 0.06912 0.63444 0.0
H1331 H 0.19875 0.99799 0.59361 0.0
H1332 H 0.19433 0.06408 0.58999 0.0
C1333 C 0.14111 0.05017 0.66121 0.0
C1334 C 0.68066 0.44855 0.39445 0.0
C1335 C 0.65911 0.4295 0.37071 0.0
H1336 H 0.69862 0.50059 0.412 0.0
C1337 C 0.64181 0.44844 0.34372 0.0
H1338 H 0.69406 0.4345 0.41561 0.0
C1339 C 0.6452 0.48598 0.34104 0.0
C1340 C 0.66502 0.50531 0.36599 0.0
H1341 H 0.62513 0.43433 0.32505 0.0
H1342 H 0.63077 0.50006 0.32056 0.0
C1343 C 0.68314 0.48625 0.39245 0.0
loop_
_geom_bond_atom_site_label_1
_geom_bond_atom_site_label_2
_geom_bond_distance
_geom_bond_site_symmetry_2
_ccdc_geom_bond_type
Mn0 O5 2.095 . S
Mn0 O15 2.162 . S
Mn0 O16 2.297 . S
Mn0 O24 2.385 . S
Mn0 O25 2.209 . S
Mn0 O26 2.094 . S
Mn1 O6 2.121 . S
Mn1 N8 2.257 . S
Mn1 N17 2.282 . S
Mn1 O25 2.215 . S
Mn1 O27 2.117 . S
C2 O24 1.234 . S
C2 O25 1.283 . S
C3 O15 1.281 . S
C3 O16 1.236 . S
C4 O26 1.240 . S
C4 O27 1.264 . S
O5 Mn0 2.095 . S
O5 C14 1.250 . S
O6 Mn1 2.121 . S
O6 C14 1.258 . S
C7 N8 1.326 . S
C7 C11 1.460 . S
C7 H13 0.929 . S
N8 Mn1 2.257 . S
N8 C7 1.326 . S
N8 C12 1.362 . S
C9 C10 1.258 1_545 S
C9 C12 1.431 . S
C9 C29 1.449 1_545 S
C10 C9 1.258 1_565 S
C10 C11 1.477 1_565 S
C10 H30 0.931 . S
C11 C7 1.460 . S
C11 C10 1.477 1_545 S
C11 H31 0.930 . S
C12 N8 1.362 . S
C12 C9 1.431 . S
C12 C22 1.476 . S
H13 C7 0.929 . S
C14 O5 1.250 . S
C14 O6 1.258 . S
O15 Mn0 2.162 . S
O15 C3 1.281 . S
O16 Mn0 2.297 . S
O16 C3 1.236 . S
N17 Mn1 2.282 . S
N17 C18 1.328 . S
N17 C22 1.318 . S
C18 N17 1.328 . S
C18 C19 1.457 . S
C18 H23 0.929 . S
C19 C18 1.457 . S
C19 C20 1.291 . S
C19 H32 0.931 . S
C20 C19 1.291 . S
C20 C21 1.373 . S
C20 H33 0.929 . S
C21 C20 1.373 . S
C21 C22 1.396 . S
C21 C28 1.403 . S
C22 C12 1.476 . S
C22 N17 1.318 . S
C22 C21 1.396 . S
H23 C18 0.929 . S
O24 Mn0 2.385 . S
O24 C2 1.234 . S
O25 Mn0 2.209 . S
O25 Mn1 2.215 . S
O25 C2 1.283 . S
O26 Mn0 2.094 . S
O26 C4 1.240 . S
O27 Mn1 2.117 . S
O27 C4 1.264 . S
C28 C21 1.403 . S
C28 C29 1.399 1_545 S
C28 H34 0.929 1_545 S
C29 C9 1.449 1_565 S
C29 C28 1.399 1_565 S
C29 H35 0.930 . S
H30 C10 0.931 . S
H31 C11 0.930 . S
H32 C19 0.931 . S
H33 C20 0.929 . S
H34 C28 0.929 1_565 S
H35 C29 0.930 . S
Mn36 O41 2.095 . S
Mn36 O51 2.162 . S
Mn36 O52 2.297 . S
Mn36 O60 2.385 . S
Mn36 O61 2.209 . S
Mn36 O62 2.094 . S
Mn37 O42 2.121 . S
Mn37 N44 2.257 . S
Mn37 N53 2.282 . S
Mn37 O61 2.215 . S
Mn37 O63 2.117 . S
C38 O60 1.234 . S
C38 O61 1.283 . S
C39 O51 1.281 . S
C39 O52 1.236 . S
C40 O62 1.240 . S
C40 O63 1.264 . S
O41 Mn36 2.095 . S
O41 C50 1.250 . S
O42 Mn37 2.121 . S
O42 C50 1.258 . S
C43 N44 1.326 . S
C43 C47 1.460 . S
C43 H49 0.929 . S
N44 Mn37 2.257 . S
N44 C43 1.326 . S
N44 C48 1.362 . S
C45 C46 1.258 1_565 S
C45 C48 1.431 . S
C45 C65 1.449 1_565 S
C46 C45 1.258 1_545 S
C46 C47 1.477 1_545 S
C46 H66 0.931 . S
C47 C43 1.460 . S
C47 C46 1.477 1_565 S
C47 H67 0.930 . S
C48 N44 1.362 . S
C48 C45 1.431 . S
C48 C58 1.476 . S
H49 C43 0.929 . S
C50 O41 1.250 . S
C50 O42 1.258 . S
O51 Mn36 2.162 . S
O51 C39 1.281 . S
O52 Mn36 2.297 . S
O52 C39 1.236 . S
N53 Mn37 2.282 . S
N53 C54 1.328 . S
N53 C58 1.318 . S
C54 N53 1.328 . S
C54 C55 1.457 . S
C54 H59 0.929 . S
C55 C54 1.457 . S
C55 C56 1.291 . S
C55 H68 0.931 . S
C56 C55 1.291 . S
C56 C57 1.373 . S
C56 H69 0.929 . S
C57 C56 1.373 . S
C57 C58 1.396 . S
C57 C64 1.403 . S
C58 C48 1.476 . S
C58 N53 1.318 . S
C58 C57 1.396 . S
H59 C54 0.929 . S
O60 Mn36 2.385 . S
O60 C38 1.234 . S
O61 Mn36 2.209 . S
O61 Mn37 2.215 . S
O61 C38 1.283 . S
O62 Mn36 2.094 . S
O62 C40 1.240 . S
O63 Mn37 2.117 . S
O63 C40 1.264 . S
C64 C57 1.403 . S
C64 C65 1.399 1_565 S
C64 H70 0.929 1_565 S
C65 C45 1.449 1_545 S
C65 C64 1.399 1_545 S
C65 H71 0.930 . S
H66 C46 0.931 . S
H67 C47 0.930 . S
H68 C55 0.931 . S
H69 C56 0.929 . S
H70 C64 0.929 1_545 S
H71 C65 0.930 . S
Mn72 O77 2.095 . S
Mn72 O87 2.162 . S
Mn72 O88 2.297 . S
Mn72 O96 2.385 . S
Mn72 O97 2.209 . S
Mn72 O98 2.094 . S
Mn73 O78 2.121 . S
Mn73 N80 2.257 . S
Mn73 N89 2.282 . S
Mn73 O97 2.215 . S
Mn73 O99 2.117 . S
C74 O96 1.234 . S
C74 O97 1.283 . S
C75 O87 1.281 . S
C75 O88 1.236 . S
C76 O98 1.240 . S
C76 O99 1.264 . S
O77 Mn72 2.095 . S
O77 C86 1.250 . S
O78 Mn73 2.121 . S
O78 C86 1.258 . S
C79 N80 1.326 . S
C79 C83 1.460 . S
C79 H85 0.929 . S
N80 Mn73 2.257 . S
N80 C79 1.326 . S
N80 C84 1.362 . S
C81 C82 1.258 . S
C81 C84 1.431 . S
C81 C101 1.449 . S
C82 C81 1.258 . S
C82 C83 1.477 . S
C82 H102 0.931 . S
C83 C79 1.460 . S
C83 C82 1.477 . S
C83 H103 0.930 . S
C84 N80 1.362 . S
C84 C81 1.431 . S
C84 C94 1.476 . S
H85 C79 0.929 . S
C86 O77 1.250 . S
C86 O78 1.258 . S
O87 Mn72 2.162 . S
O87 C75 1.281 . S
O88 Mn72 2.297 . S
O88 C75 1.236 . S
N89 Mn73 2.282 . S
N89 C90 1.328 . S
N89 C94 1.318 . S
C90 N89 1.328 . S
C90 C91 1.457 . S
C90 H95 0.929 . S
C91 C90 1.457 . S
C91 C92 1.291 . S
C91 H104 0.931 . S
C92 C91 1.291 . S
C92 C93 1.373 . S
C92 H105 0.929 . S
C93 C92 1.373 . S
C93 C94 1.396 . S
C93 C100 1.403 . S
C94 C84 1.476 . S
C94 N89 1.318 . S
C94 C93 1.396 . S
H95 C90 0.929 . S
O96 Mn72 2.385 . S
O96 C74 1.234 . S
O97 Mn72 2.209 . S
O97 Mn73 2.215 . S
O97 C74 1.283 . S
O98 Mn72 2.094 . S
O98 C76 1.240 . S
O99 Mn73 2.117 . S
O99 C76 1.264 . S
C100 C93 1.403 . S
C100 C101 1.399 . S
C100 H106 0.929 . S
C101 C81 1.449 . S
C101 C100 1.399 . S
C101 H107 0.930 . S
H102 C82 0.931 . S
H103 C83 0.930 . S
H104 C91 0.931 . S
H105 C92 0.929 . S
H106 C100 0.929 . S
H107 C101 0.930 . S
Mn108 O113 2.095 . S
Mn108 O123 2.162 . S
Mn108 O124 2.297 . S
Mn108 O132 2.385 . S
Mn108 O133 2.209 . S
Mn108 O134 2.094 . S
Mn109 O114 2.121 . S
Mn109 N116 2.257 . S
Mn109 N125 2.282 . S
Mn109 O133 2.215 . S
Mn109 O135 2.117 . S
C110 O132 1.234 . S
C110 O133 1.283 . S
C111 O123 1.281 . S
C111 O124 1.236 . S
C112 O134 1.240 . S
C112 O135 1.264 . S
O113 Mn108 2.095 . S
O113 C122 1.250 . S
O114 Mn109 2.121 . S
O114 C122 1.258 . S
C115 N116 1.326 . S
C115 C119 1.460 . S
C115 H121 0.929 . S
N116 Mn109 2.257 . S
N116 C115 1.326 . S
N116 C120 1.362 . S
C117 C118 1.258 . S
C117 C120 1.431 . S
C117 C137 1.449 . S
C118 C117 1.258 . S
C118 C119 1.477 . S
C118 H138 0.931 . S
C119 C115 1.460 . S
C119 C118 1.477 . S
C119 H139 0.930 . S
C120 N116 1.362 . S
C120 C117 1.431 . S
C120 C130 1.476 . S
H121 C115 0.929 . S
C122 O113 1.250 . S
C122 O114 1.258 . S
O123 Mn108 2.162 . S
O123 C111 1.281 . S
O124 Mn108 2.297 . S
O124 C111 1.236 . S
N125 Mn109 2.282 . S
N125 C126 1.328 . S
N125 C130 1.318 . S
C126 N125 1.328 . S
C126 C127 1.457 . S
C126 H131 0.929 . S
C127 C126 1.457 . S
C127 C128 1.291 . S
C127 H140 0.931 . S
C128 C127 1.291 . S
C128 C129 1.373 . S
C128 H141 0.929 . S
C129 C128 1.373 . S
C129 C130 1.396 . S
C129 C136 1.403 . S
C130 C120 1.476 . S
C130 N125 1.318 . S
C130 C129 1.396 . S
H131 C126 0.929 . S
O132 Mn108 2.385 . S
O132 C110 1.234 . S
O133 Mn108 2.209 . S
O133 Mn109 2.215 . S
O133 C110 1.283 . S
O134 Mn108 2.094 . S
O134 C112 1.240 . S
O135 Mn109 2.117 . S
O135 C112 1.264 . S
C136 C129 1.403 . S
C136 C137 1.399 . S
C136 H142 0.929 . S
C137 C117 1.449 . S
C137 C136 1.399 . S
C137 H143 0.930 . S
H138 C118 0.931 . S
H139 C119 0.930 . S
H140 C127 0.931 . S
H141 C128 0.929 . S
H142 C136 0.929 . S
H143 C137 0.930 . S
Mn144 O149 2.095 . S
Mn144 O159 2.162 . S
Mn144 O160 2.297 . S
Mn144 O168 2.385 . S
Mn144 O169 2.209 . S
Mn144 O170 2.094 . S
Mn145 O150 2.121 . S
Mn145 N152 2.257 . S
Mn145 N161 2.282 . S
Mn145 O169 2.215 . S
Mn145 O171 2.117 . S
C146 O168 1.234 . S
C146 O169 1.283 . S
C147 O159 1.281 . S
C147 O160 1.236 . S
C148 O170 1.240 . S
C148 O171 1.264 . S
O149 Mn144 2.095 . S
O149 C158 1.250 . S
O150 Mn145 2.121 . S
O150 C158 1.258 . S
C151 N152 1.326 . S
C151 C155 1.460 . S
C151 H157 0.929 . S
N152 Mn145 2.257 . S
N152 C151 1.326 . S
N152 C156 1.362 . S
C153 C154 1.258 . S
C153 C156 1.431 . S
C153 C173 1.449 1_554 S
C154 C153 1.258 . S
C154 C155 1.477 . S
C154 H174 0.931 1_554 S
C155 C151 1.460 . S
C155 C154 1.477 . S
C155 H175 0.930 . S
C156 N152 1.362 . S
C156 C153 1.431 . S
C156 C166 1.476 . S
H157 C151 0.929 . S
C158 O149 1.250 . S
C158 O150 1.258 . S
O159 Mn144 2.162 . S
O159 C147 1.281 . S
O160 Mn144 2.297 . S
O160 C147 1.236 . S
N161 Mn145 2.282 . S
N161 C162 1.328 . S
N161 C166 1.318 . S
C162 N161 1.328 . S
C162 C163 1.457 . S
C162 H167 0.929 . S
C163 C162 1.457 . S
C163 C164 1.291 . S
C163 H176 0.931 . S
C164 C163 1.291 . S
C164 C165 1.373 . S
C164 H177 0.929 . S
C165 C164 1.373 . S
C165 C166 1.396 . S
C165 C172 1.403 . S
C166 C156 1.476 . S
C166 N161 1.318 . S
C166 C165 1.396 . S
H167 C162 0.929 . S
O168 Mn144 2.385 . S
O168 C146 1.234 . S
O169 Mn144 2.209 . S
O169 Mn145 2.215 . S
O169 C146 1.283 . S
O170 Mn144 2.094 . S
O170 C148 1.240 . S
O171 Mn145 2.117 . S
O171 C148 1.264 . S
C172 C165 1.403 . S
C172 C173 1.399 1_554 S
C172 H178 0.924 1_554 S
C173 C153 1.449 1_556 S
C173 C172 1.399 1_556 S
C173 H179 0.930 . S
H174 C154 0.931 1_556 S
H175 C155 0.930 . S
H176 C163 0.931 . S
H177 C164 0.929 . S
H178 C172 0.924 1_556 S
H179 C173 0.930 . S
Mn180 O185 2.095 . S
Mn180 O195 2.162 . S
Mn180 O196 2.297 . S
Mn180 O204 2.385 . S
Mn180 O205 2.209 . S
Mn180 O206 2.094 . S
Mn181 O186 2.121 . S
Mn181 N188 2.257 . S
Mn181 N197 2.282 . S
Mn181 O205 2.215 . S
Mn181 O207 2.117 . S
C182 O204 1.234 . S
C182 O205 1.283 . S
C183 O195 1.281 . S
C183 O196 1.236 . S
C184 O206 1.240 . S
C184 O207 1.264 . S
O185 Mn180 2.095 . S
O185 C194 1.250 . S
O186 Mn181 2.121 . S
O186 C194 1.258 . S
C187 N188 1.326 . S
C187 C191 1.460 . S
C187 H193 0.929 . S
N188 Mn181 2.257 . S
N188 C187 1.326 . S
N188 C192 1.362 . S
C189 C190 1.258 . S
C189 C192 1.431 . S
C189 C209 1.449 . S
C190 C189 1.258 . S
C190 C191 1.477 . S
C190 H210 0.931 . S
C191 C187 1.460 . S
C191 C190 1.477 . S
C191 H211 0.930 . S
C192 N188 1.362 . S
C192 C189 1.431 . S
C192 C202 1.476 . S
H193 C187 0.929 . S
C194 O185 1.250 . S
C194 O186 1.258 . S
O195 Mn180 2.162 . S
O195 C183 1.281 . S
O196 Mn180 2.297 . S
O196 C183 1.236 . S
N197 Mn181 2.282 . S
N197 C198 1.328 . S
N197 C202 1.318 . S
C198 N197 1.328 . S
C198 C199 1.457 . S
C198 H203 0.929 . S
C199 C198 1.457 . S
C199 C200 1.291 . S
C199 H212 0.931 . S
C200 C199 1.291 . S
C200 C201 1.373 . S
C200 H213 0.929 . S
C201 C200 1.373 . S
C201 C202 1.396 . S
C201 C208 1.403 . S
C202 C192 1.476 . S
C202 N197 1.318 . S
C202 C201 1.396 . S
H203 C198 0.929 . S
O204 Mn180 2.385 . S
O204 C182 1.234 . S
O205 Mn180 2.209 . S
O205 Mn181 2.215 . S
O205 C182 1.283 . S
O206 Mn180 2.094 . S
O206 C184 1.240 . S
O207 Mn181 2.117 . S
O207 C184 1.264 . S
C208 C201 1.403 . S
C208 C209 1.399 . S
C208 H214 0.929 . S
C209 C189 1.449 . S
C209 C208 1.399 . S
C209 H215 0.930 . S
H210 C190 0.931 . S
H211 C191 0.930 . S
H212 C199 0.931 . S
H213 C200 0.929 . S
H214 C208 0.929 . S
H215 C209 0.930 . S
Mn216 O221 2.095 . S
Mn216 O231 2.162 . S
Mn216 O232 2.297 . S
Mn216 O240 2.385 . S
Mn216 O241 2.209 . S
Mn216 O242 2.094 . S
Mn217 O222 2.121 . S
Mn217 N224 2.257 . S
Mn217 N233 2.282 . S
Mn217 O241 2.215 . S
Mn217 O243 2.117 . S
C218 O240 1.234 . S
C218 O241 1.283 . S
C219 O231 1.281 . S
C219 O232 1.236 . S
C220 O242 1.240 . S
C220 O243 1.264 . S
O221 Mn216 2.095 . S
O221 C230 1.250 . S
O222 Mn217 2.121 . S
O222 C230 1.258 . S
C223 N224 1.326 . S
C223 C227 1.460 . S
C223 H229 0.929 . S
N224 Mn217 2.257 . S
N224 C223 1.326 . S
N224 C228 1.362 . S
C225 C226 1.258 . S
C225 C228 1.431 . S
C225 C245 1.449 1_556 S
C226 C225 1.258 . S
C226 C227 1.477 . S
C226 H246 0.931 1_556 S
C227 C223 1.460 . S
C227 C226 1.477 . S
C227 H247 0.930 . S
C228 N224 1.362 . S
C228 C225 1.431 . S
C228 C238 1.476 . S
H229 C223 0.929 . S
C230 O221 1.250 . S
C230 O222 1.258 . S
O231 Mn216 2.162 . S
O231 C219 1.281 . S
O232 Mn216 2.297 . S
O232 C219 1.236 . S
N233 Mn217 2.282 . S
N233 C234 1.328 . S
N233 C238 1.318 . S
C234 N233 1.328 . S
C234 C235 1.457 . S
C234 H239 0.929 . S
C235 C234 1.457 . S
C235 C236 1.291 . S
C235 H248 0.931 . S
C236 C235 1.291 . S
C236 C237 1.373 . S
C236 H249 0.929 . S
C237 C236 1.373 . S
C237 C238 1.396 . S
C237 C244 1.403 . S
C238 C228 1.476 . S
C238 N233 1.318 . S
C238 C237 1.396 . S
H239 C234 0.929 . S
O240 Mn216 2.385 . S
O240 C218 1.234 . S
O241 Mn216 2.209 . S
O241 Mn217 2.215 . S
O241 C218 1.283 . S
O242 Mn216 2.094 . S
O242 C220 1.240 . S
O243 Mn217 2.117 . S
O243 C220 1.264 . S
C244 C237 1.403 . S
C244 C245 1.399 1_556 S
C244 H250 0.924 1_556 S
C245 C225 1.449 1_554 S
C245 C244 1.399 1_554 S
C245 H251 0.930 . S
H246 C226 0.931 1_554 S
H247 C227 0.930 . S
H248 C235 0.931 . S
H249 C236 0.929 . S
H250 C244 0.924 1_554 S
H251 C245 0.930 . S
Mn252 O257 2.095 . S
Mn252 O267 2.162 . S
Mn252 O268 2.297 . S
Mn252 O276 2.385 . S
Mn252 O277 2.209 . S
Mn252 O278 2.094 . S
Mn253 O258 2.121 . S
Mn253 N260 2.257 . S
Mn253 N269 2.282 . S
Mn253 O277 2.215 . S
Mn253 O279 2.117 . S
C254 O276 1.234 . S
C254 O277 1.283 . S
C255 O267 1.281 . S
C255 O268 1.236 . S
C256 O278 1.240 . S
C256 O279 1.264 . S
O257 Mn252 2.095 . S
O257 C266 1.250 . S
O258 Mn253 2.121 . S
O258 C266 1.258 . S
C259 N260 1.326 . S
C259 C263 1.460 . S
C259 H265 0.929 . S
N260 Mn253 2.257 . S
N260 C259 1.326 . S
N260 C264 1.362 . S
C261 C262 1.258 . S
C261 C264 1.431 . S
C261 C281 1.449 . S
C262 C261 1.258 . S
C262 C263 1.477 . S
C262 H282 0.931 . S
C263 C259 1.460 . S
C263 C262 1.477 . S
C263 H283 0.930 . S
C264 N260 1.362 . S
C264 C261 1.431 . S
C264 C274 1.476 . S
H265 C259 0.929 . S
C266 O257 1.250 . S
C266 O258 1.258 . S
O267 Mn252 2.162 . S
O267 C255 1.281 . S
O268 Mn252 2.297 . S
O268 C255 1.236 . S
N269 Mn253 2.282 . S
N269 C270 1.328 . S
N269 C274 1.318 . S
C270 N269 1.328 . S
C270 C271 1.457 . S
C270 H275 0.929 . S
C271 C270 1.457 . S
C271 C272 1.291 . S
C271 H284 0.931 . S
C272 C271 1.291 . S
C272 C273 1.373 . S
C272 H285 0.929 . S
C273 C272 1.373 . S
C273 C274 1.396 . S
C273 C280 1.403 . S
C274 C264 1.476 . S
C274 N269 1.318 . S
C274 C273 1.396 . S
H275 C270 0.929 . S
O276 Mn252 2.385 . S
O276 C254 1.234 . S
O277 Mn252 2.209 . S
O277 Mn253 2.215 . S
O277 C254 1.283 . S
O278 Mn252 2.094 . S
O278 C256 1.240 . S
O279 Mn253 2.117 . S
O279 C256 1.264 . S
C280 C273 1.403 . S
C280 C281 1.399 . S
C280 H286 0.929 . S
C281 C261 1.449 . S
C281 C280 1.399 . S
C281 H287 0.930 . S
H282 C262 0.931 . S
H283 C263 0.930 . S
H284 C271 0.931 . S
H285 C272 0.929 . S
H286 C280 0.929 . S
H287 C281 0.930 . S
Mn288 O293 2.095 . S
Mn288 O303 2.162 . S
Mn288 O304 2.297 . S
Mn288 O312 2.385 . S
Mn288 O313 2.209 . S
Mn288 O314 2.094 . S
Mn289 O294 2.121 . S
Mn289 N296 2.257 . S
Mn289 N305 2.282 . S
Mn289 O313 2.215 . S
Mn289 O315 2.117 . S
C290 O312 1.234 . S
C290 O313 1.283 . S
C291 O303 1.281 . S
C291 O304 1.236 . S
C292 O314 1.240 . S
C292 O315 1.264 . S
O293 Mn288 2.095 . S
O293 C302 1.250 . S
O294 Mn289 2.121 . S
O294 C302 1.258 . S
C295 N296 1.326 . S
C295 C299 1.460 . S
C295 H301 0.929 . S
N296 Mn289 2.257 . S
N296 C295 1.326 . S
N296 C300 1.362 . S
C297 C298 1.258 . S
C297 C300 1.431 . S
C297 C317 1.449 . S
C298 C297 1.258 . S
C298 C299 1.477 . S
C298 H318 0.931 . S
C299 C295 1.460 . S
C299 C298 1.477 . S
C299 H319 0.930 . S
C300 N296 1.362 . S
C300 C297 1.431 . S
C300 C310 1.476 . S
H301 C295 0.929 . S
C302 O293 1.250 . S
C302 O294 1.258 . S
O303 Mn288 2.162 . S
O303 C291 1.281 . S
O304 Mn288 2.297 . S
O304 C291 1.236 . S
N305 Mn289 2.282 . S
N305 C306 1.328 . S
N305 C310 1.318 . S
C306 N305 1.328 . S
C306 C307 1.457 . S
C306 H311 0.929 . S
C307 C306 1.457 . S
C307 C308 1.291 . S
C307 H320 0.935 . S
C308 C307 1.291 . S
C308 C309 1.373 . S
C308 H321 0.929 . S
C309 C308 1.373 . S
C309 C310 1.396 . S
C309 C316 1.403 . S
C310 C300 1.476 . S
C310 N305 1.318 . S
C310 C309 1.396 . S
H311 C306 0.929 . S
O312 Mn288 2.385 . S
O312 C290 1.234 . S
O313 Mn288 2.209 . S
O313 Mn289 2.215 . S
O313 C290 1.283 . S
O314 Mn288 2.094 . S
O314 C292 1.240 . S
O315 Mn289 2.117 . S
O315 C292 1.264 . S
C316 C309 1.403 . S
C316 C317 1.399 . S
C316 H322 0.929 . S
C317 C297 1.449 . S
C317 C316 1.399 . S
C317 H323 0.930 . S
H318 C298 0.931 . S
H319 C299 0.930 . S
H320 C307 0.935 . S
H321 C308 0.929 . S
H322 C316 0.929 . S
H323 C317 0.930 . S
Mn324 O329 2.095 . S
Mn324 O339 2.162 . S
Mn324 O340 2.297 . S
Mn324 O348 2.385 . S
Mn324 O349 2.209 . S
Mn324 O350 2.094 . S
Mn325 O330 2.121 . S
Mn325 N332 2.257 . S
Mn325 N341 2.282 . S
Mn325 O349 2.215 . S
Mn325 O351 2.117 . S
C326 O348 1.234 . S
C326 O349 1.283 . S
C327 O339 1.281 . S
C327 O340 1.236 . S
C328 O350 1.240 . S
C328 O351 1.264 . S
O329 Mn324 2.095 . S
O329 C338 1.250 . S
O330 Mn325 2.121 . S
O330 C338 1.258 . S
C331 N332 1.326 . S
C331 C335 1.460 . S
C331 H337 0.929 . S
N332 Mn325 2.257 . S
N332 C331 1.326 . S
N332 C336 1.362 . S
C333 C334 1.258 . S
C333 C336 1.431 . S
C333 C353 1.449 . S
C334 C333 1.258 . S
C334 C335 1.477 . S
C334 H354 0.931 . S
C335 C331 1.460 . S
C335 C334 1.477 . S
C335 H355 0.930 . S
C336 N332 1.362 . S
C336 C333 1.431 . S
C336 C346 1.476 . S
H337 C331 0.929 . S
C338 O329 1.250 . S
C338 O330 1.258 . S
O339 Mn324 2.162 . S
O339 C327 1.281 . S
O340 Mn324 2.297 . S
O340 C327 1.236 . S
N341 Mn325 2.282 . S
N341 C342 1.328 . S
N341 C346 1.318 . S
C342 N341 1.328 . S
C342 C343 1.457 . S
C342 H347 0.929 . S
C343 C342 1.457 . S
C343 C344 1.291 . S
C343 H356 0.935 . S
C344 C343 1.291 . S
C344 C345 1.373 . S
C344 H357 0.929 . S
C345 C344 1.373 . S
C345 C346 1.396 . S
C345 C352 1.403 . S
C346 C336 1.476 . S
C346 N341 1.318 . S
C346 C345 1.396 . S
H347 C342 0.929 . S
O348 Mn324 2.385 . S
O348 C326 1.234 . S
O349 Mn324 2.209 . S
O349 Mn325 2.215 . S
O349 C326 1.283 . S
O350 Mn324 2.094 . S
O350 C328 1.240 . S
O351 Mn325 2.117 . S
O351 C328 1.264 . S
C352 C345 1.403 . S
C352 C353 1.399 . S
C352 H358 0.929 . S
C353 C333 1.449 . S
C353 C352 1.399 . S
C353 H359 0.930 . S
H354 C334 0.931 . S
H355 C335 0.930 . S
H356 C343 0.935 . S
H357 C344 0.929 . S
H358 C352 0.929 . S
H359 C353 0.930 . S
Mn360 O365 2.095 . S
Mn360 O375 2.162 . S
Mn360 O376 2.297 . S
Mn360 O384 2.385 . S
Mn360 O385 2.209 . S
Mn360 O386 2.094 . S
Mn361 O366 2.121 . S
Mn361 N368 2.257 . S
Mn361 N377 2.282 . S
Mn361 O385 2.215 . S
Mn361 O387 2.117 . S
C362 O384 1.234 . S
C362 O385 1.283 . S
C363 O375 1.281 . S
C363 O376 1.236 . S
C364 O386 1.240 . S
C364 O387 1.264 . S
O365 Mn360 2.095 . S
O365 C374 1.250 . S
O366 Mn361 2.121 . S
O366 C374 1.258 . S
C367 N368 1.326 . S
C367 C371 1.460 . S
C367 H373 0.929 . S
N368 Mn361 2.257 . S
N368 C367 1.326 . S
N368 C372 1.362 . S
C369 C370 1.258 . S
C369 C372 1.431 . S
C369 C389 1.449 . S
C370 C369 1.258 . S
C370 C371 1.477 . S
C370 H390 0.931 . S
C371 C367 1.460 . S
C371 C370 1.477 . S
C371 H391 0.930 . S
C372 N368 1.362 . S
C372 C369 1.431 . S
C372 C382 1.476 . S
H373 C367 0.929 . S
C374 O365 1.250 . S
C374 O366 1.258 . S
O375 Mn360 2.162 . S
O375 C363 1.281 . S
O376 Mn360 2.297 . S
O376 C363 1.236 . S
N377 Mn361 2.282 . S
N377 C378 1.328 . S
N377 C382 1.318 . S
C378 N377 1.328 . S
C378 C379 1.457 . S
C378 H383 0.929 . S
C379 C378 1.457 . S
C379 C380 1.291 . S
C379 H392 0.931 . S
C380 C379 1.291 . S
C380 C381 1.373 . S
C380 H393 0.929 . S
C381 C380 1.373 . S
C381 C382 1.396 . S
C381 C388 1.403 . S
C382 C372 1.476 . S
C382 N377 1.318 . S
C382 C381 1.396 . S
H383 C378 0.929 . S
O384 Mn360 2.385 . S
O384 C362 1.234 . S
O385 Mn360 2.209 . S
O385 Mn361 2.215 . S
O385 C362 1.283 . S
O386 Mn360 2.094 . S
O386 C364 1.240 . S
O387 Mn361 2.117 . S
O387 C364 1.264 . S
C388 C381 1.403 . S
C388 C389 1.399 . S
C388 H394 0.929 . S
C389 C369 1.449 . S
C389 C388 1.399 . S
C389 H395 0.930 . S
H390 C370 0.931 . S
H391 C371 0.930 . S
H392 C379 0.931 . S
H393 C380 0.929 . S
H394 C388 0.929 . S
H395 C389 0.930 . S
Mn396 O401 2.095 . S
Mn396 O411 2.162 . S
Mn396 O412 2.297 . S
Mn396 O420 2.385 . S
Mn396 O421 2.209 . S
Mn396 O422 2.094 . S
Mn397 O402 2.121 . S
Mn397 N404 2.257 . S
Mn397 N413 2.282 . S
Mn397 O421 2.215 . S
Mn397 O423 2.117 . S
C398 O420 1.234 . S
C398 O421 1.283 . S
C399 O411 1.281 . S
C399 O412 1.236 . S
C400 O422 1.240 . S
C400 O423 1.264 . S
O401 Mn396 2.095 . S
O401 C410 1.250 . S
O402 Mn397 2.121 . S
O402 C410 1.258 . S
C403 N404 1.326 . S
C403 C407 1.460 . S
C403 H409 0.929 . S
N404 Mn397 2.257 . S
N404 C403 1.326 . S
N404 C408 1.362 . S
C405 C406 1.258 . S
C405 C408 1.431 . S
C405 C425 1.449 . S
C406 C405 1.258 . S
C406 C407 1.477 . S
C406 H426 0.931 . S
C407 C403 1.460 . S
C407 C406 1.477 . S
C407 H427 0.930 . S
C408 N404 1.362 . S
C408 C405 1.431 . S
C408 C418 1.476 . S
H409 C403 0.929 . S
C410 O401 1.250 . S
C410 O402 1.258 . S
O411 Mn396 2.162 . S
O411 C399 1.281 . S
O412 Mn396 2.297 . S
O412 C399 1.236 . S
N413 Mn397 2.282 . S
N413 C414 1.328 . S
N413 C418 1.318 . S
C414 N413 1.328 . S
C414 C415 1.457 . S
C414 H419 0.929 . S
C415 C414 1.457 . S
C415 C416 1.291 . S
C415 H428 0.931 . S
C416 C415 1.291 . S
C416 C417 1.373 . S
C416 H429 0.929 . S
C417 C416 1.373 . S
C417 C418 1.396 . S
C417 C424 1.403 . S
C418 C408 1.476 . S
C418 N413 1.318 . S
C418 C417 1.396 . S
H419 C414 0.929 . S
O420 Mn396 2.385 . S
O420 C398 1.234 . S
O421 Mn396 2.209 . S
O421 Mn397 2.215 . S
O421 C398 1.283 . S
O422 Mn396 2.094 . S
O422 C400 1.240 . S
O423 Mn397 2.117 . S
O423 C400 1.264 . S
C424 C417 1.403 . S
C424 C425 1.399 . S
C424 H430 0.929 . S
C425 C405 1.449 . S
C425 C424 1.399 . S
C425 H431 0.930 . S
H426 C406 0.931 . S
H427 C407 0.930 . S
H428 C415 0.931 . S
H429 C416 0.929 . S
H430 C424 0.929 . S
H431 C425 0.930 . S
Mn432 O437 2.095 . S
Mn432 O447 2.162 . S
Mn432 O448 2.297 . S
Mn432 O456 2.385 . S
Mn432 O457 2.209 . S
Mn432 O458 2.094 . S
Mn433 O438 2.121 . S
Mn433 N440 2.257 . S
Mn433 N449 2.282 . S
Mn433 O457 2.215 . S
Mn433 O459 2.117 . S
C434 O456 1.234 . S
C434 O457 1.283 . S
C435 O447 1.281 . S
C435 O448 1.236 . S
C436 O458 1.240 . S
C436 O459 1.264 . S
O437 Mn432 2.095 . S
O437 C446 1.250 . S
O438 Mn433 2.121 . S
O438 C446 1.258 . S
C439 N440 1.326 . S
C439 C443 1.460 . S
C439 H445 0.929 . S
N440 Mn433 2.257 . S
N440 C439 1.326 . S
N440 C444 1.362 . S
C441 C442 1.258 1_565 S
C441 C444 1.431 . S
C441 C461 1.449 1_565 S
C442 C441 1.258 1_545 S
C442 C443 1.477 1_545 S
C442 H462 0.931 . S
C443 C439 1.460 . S
C443 C442 1.477 1_565 S
C443 H463 0.930 . S
C444 N440 1.362 . S
C444 C441 1.431 . S
C444 C454 1.476 . S
H445 C439 0.929 . S
C446 O437 1.250 . S
C446 O438 1.258 . S
O447 Mn432 2.162 . S
O447 C435 1.281 . S
O448 Mn432 2.297 . S
O448 C435 1.236 . S
N449 Mn433 2.282 . S
N449 C450 1.328 . S
N449 C454 1.318 . S
C450 N449 1.328 . S
C450 C451 1.457 . S
C450 H455 0.929 . S
C451 C450 1.457 . S
C451 C452 1.291 . S
C451 H464 0.931 . S
C452 C451 1.291 . S
C452 C453 1.373 . S
C452 H465 0.929 . S
C453 C452 1.373 . S
C453 C454 1.396 . S
C453 C460 1.403 . S
C454 C444 1.476 . S
C454 N449 1.318 . S
C454 C453 1.396 . S
H455 C450 0.929 . S
O456 Mn432 2.385 . S
O456 C434 1.234 . S
O457 Mn432 2.209 . S
O457 Mn433 2.215 . S
O457 C434 1.283 . S
O458 Mn432 2.094 . S
O458 C436 1.240 . S
O459 Mn433 2.117 . S
O459 C436 1.264 . S
C460 C453 1.403 . S
C460 C461 1.399 1_565 S
C460 H466 0.929 1_565 S
C461 C441 1.449 1_545 S
C461 C460 1.399 1_545 S
C461 H467 0.930 . S
H462 C442 0.931 . S
H463 C443 0.930 . S
H464 C451 0.931 . S
H465 C452 0.929 . S
H466 C460 0.929 1_545 S
H467 C461 0.930 . S
Mn468 O473 2.095 . S
Mn468 O483 2.162 . S
Mn468 O484 2.297 . S
Mn468 O492 2.385 . S
Mn468 O493 2.209 . S
Mn468 O494 2.094 . S
Mn469 O474 2.121 . S
Mn469 N476 2.257 . S
Mn469 N485 2.282 . S
Mn469 O493 2.215 . S
Mn469 O495 2.117 . S
C470 O492 1.234 . S
C470 O493 1.283 . S
C471 O483 1.281 . S
C471 O484 1.236 . S
C472 O494 1.240 . S
C472 O495 1.264 . S
O473 Mn468 2.095 . S
O473 C482 1.250 . S
O474 Mn469 2.121 . S
O474 C482 1.258 . S
C475 N476 1.326 . S
C475 C479 1.460 . S
C475 H481 0.929 . S
N476 Mn469 2.257 . S
N476 C475 1.326 . S
N476 C480 1.362 . S
C477 C478 1.258 1_545 S
C477 C480 1.431 . S
C477 C497 1.449 1_545 S
C478 C477 1.258 1_565 S
C478 C479 1.477 1_565 S
C478 H498 0.931 . S
C479 C475 1.460 . S
C479 C478 1.477 1_545 S
C479 H499 0.930 . S
C480 N476 1.362 . S
C480 C477 1.431 . S
C480 C490 1.476 . S
H481 C475 0.929 . S
C482 O473 1.250 . S
C482 O474 1.258 . S
O483 Mn468 2.162 . S
O483 C471 1.281 . S
O484 Mn468 2.297 . S
O484 C471 1.236 . S
N485 Mn469 2.282 . S
N485 C486 1.328 . S
N485 C490 1.318 . S
C486 N485 1.328 . S
C486 C487 1.457 . S
C486 H491 0.929 . S
C487 C486 1.457 . S
C487 C488 1.291 . S
C487 H500 0.931 . S
C488 C487 1.291 . S
C488 C489 1.373 . S
C488 H501 0.929 . S
C489 C488 1.373 . S
C489 C490 1.396 . S
C489 C496 1.403 . S
C490 C480 1.476 . S
C490 N485 1.318 . S
C490 C489 1.396 . S
H491 C486 0.929 . S
O492 Mn468 2.385 . S
O492 C470 1.234 . S
O493 Mn468 2.209 . S
O493 Mn469 2.215 . S
O493 C470 1.283 . S
O494 Mn468 2.094 . S
O494 C472 1.240 . S
O495 Mn469 2.117 . S
O495 C472 1.264 . S
C496 C489 1.403 . S
C496 C497 1.399 1_545 S
C496 H502 0.929 1_545 S
C497 C477 1.449 1_565 S
C497 C496 1.399 1_565 S
C497 H503 0.930 . S
H498 C478 0.931 . S
H499 C479 0.930 . S
H500 C487 0.931 . S
H501 C488 0.929 . S
H502 C496 0.929 1_565 S
H503 C497 0.930 . S
Mn504 O509 2.095 . S
Mn504 O519 2.162 . S
Mn504 O520 2.297 . S
Mn504 O528 2.385 . S
Mn504 O529 2.209 . S
Mn504 O530 2.094 . S
Mn505 O510 2.121 . S
Mn505 N512 2.257 . S
Mn505 N521 2.282 . S
Mn505 O529 2.215 . S
Mn505 O531 2.117 . S
C506 O528 1.234 . S
C506 O529 1.283 . S
C507 O519 1.281 . S
C507 O520 1.236 . S
C508 O530 1.240 . S
C508 O531 1.264 . S
O509 Mn504 2.095 . S
O509 C518 1.250 . S
O510 Mn505 2.121 . S
O510 C518 1.258 . S
C511 N512 1.326 . S
C511 C515 1.460 . S
C511 H517 0.929 . S
N512 Mn505 2.257 . S
N512 C511 1.326 . S
N512 C516 1.362 . S
C513 C514 1.258 . S
C513 C516 1.431 . S
C513 C533 1.449 . S
C514 C513 1.258 . S
C514 C515 1.477 . S
C514 H534 0.931 . S
C515 C511 1.460 . S
C515 C514 1.477 . S
C515 H535 0.930 . S
C516 N512 1.362 . S
C516 C513 1.431 . S
C516 C526 1.476 . S
H517 C511 0.929 . S
C518 O509 1.250 . S
C518 O510 1.258 . S
O519 Mn504 2.162 . S
O519 C507 1.281 . S
O520 Mn504 2.297 . S
O520 C507 1.236 . S
N521 Mn505 2.282 . S
N521 C522 1.328 . S
N521 C526 1.318 . S
C522 N521 1.328 . S
C522 C523 1.457 . S
C522 H527 0.929 . S
C523 C522 1.457 . S
C523 C524 1.291 . S
C523 H536 0.931 . S
C524 C523 1.291 . S
C524 C525 1.373 . S
C524 H537 0.929 . S
C525 C524 1.373 . S
C525 C526 1.396 . S
C525 C532 1.403 . S
C526 C516 1.476 . S
C526 N521 1.318 . S
C526 C525 1.396 . S
H527 C522 0.929 . S
O528 Mn504 2.385 . S
O528 C506 1.234 . S
O529 Mn504 2.209 . S
O529 Mn505 2.215 . S
O529 C506 1.283 . S
O530 Mn504 2.094 . S
O530 C508 1.240 . S
O531 Mn505 2.117 . S
O531 C508 1.264 . S
C532 C525 1.403 . S
C532 C533 1.399 . S
C532 H538 0.929 . S
C533 C513 1.449 . S
C533 C532 1.399 . S
C533 H539 0.930 . S
H534 C514 0.931 . S
H535 C515 0.930 . S
H536 C523 0.931 . S
H537 C524 0.929 . S
H538 C532 0.929 . S
H539 C533 0.930 . S
Mn540 O545 2.095 . S
Mn540 O555 2.162 . S
Mn540 O556 2.297 . S
Mn540 O564 2.385 . S
Mn540 O565 2.209 . S
Mn540 O566 2.094 . S
Mn541 O546 2.121 . S
Mn541 N548 2.257 . S
Mn541 N557 2.282 . S
Mn541 O565 2.215 . S
Mn541 O567 2.117 . S
C542 O564 1.234 . S
C542 O565 1.283 . S
C543 O555 1.281 . S
C543 O556 1.236 . S
C544 O566 1.240 . S
C544 O567 1.264 . S
O545 Mn540 2.095 . S
O545 C554 1.250 . S
O546 Mn541 2.121 . S
O546 C554 1.258 . S
C547 N548 1.326 . S
C547 C551 1.460 . S
C547 H553 0.929 . S
N548 Mn541 2.257 . S
N548 C547 1.326 . S
N548 C552 1.362 . S
C549 C550 1.258 . S
C549 C552 1.431 . S
C549 C569 1.449 . S
C550 C549 1.258 . S
C550 C551 1.477 . S
C550 H570 0.931 . S
C551 C547 1.460 . S
C551 C550 1.477 . S
C551 H571 0.930 . S
C552 N548 1.362 . S
C552 C549 1.431 . S
C552 C562 1.476 . S
H553 C547 0.929 . S
C554 O545 1.250 . S
C554 O546 1.258 . S
O555 Mn540 2.162 . S
O555 C543 1.281 . S
O556 Mn540 2.297 . S
O556 C543 1.236 . S
N557 Mn541 2.282 . S
N557 C558 1.328 . S
N557 C562 1.318 . S
C558 N557 1.328 . S
C558 C559 1.457 . S
C558 H563 0.929 . S
C559 C558 1.457 . S
C559 C560 1.291 . S
C559 H572 0.931 . S
C560 C559 1.291 . S
C560 C561 1.373 . S
C560 H573 0.929 . S
C561 C560 1.373 . S
C561 C562 1.396 . S
C561 C568 1.403 . S
C562 C552 1.476 . S
C562 N557 1.318 . S
C562 C561 1.396 . S
H563 C558 0.929 . S
O564 Mn540 2.385 . S
O564 C542 1.234 . S
O565 Mn540 2.209 . S
O565 Mn541 2.215 . S
O565 C542 1.283 . S
O566 Mn540 2.094 . S
O566 C544 1.240 . S
O567 Mn541 2.117 . S
O567 C544 1.264 . S
C568 C561 1.403 . S
C568 C569 1.399 . S
C568 H574 0.929 . S
C569 C549 1.449 . S
C569 C568 1.399 . S
C569 H575 0.930 . S
H570 C550 0.931 . S
H571 C551 0.930 . S
H572 C559 0.931 . S
H573 C560 0.929 . S
H574 C568 0.929 . S
H575 C569 0.930 . S
Mn576 O581 2.095 . S
Mn576 O591 2.162 . S
Mn576 O592 2.297 . S
Mn576 O600 2.385 . S
Mn576 O601 2.209 . S
Mn576 O602 2.094 . S
Mn577 O582 2.121 . S
Mn577 N584 2.257 . S
Mn577 N593 2.282 . S
Mn577 O601 2.215 . S
Mn577 O603 2.117 . S
C578 O600 1.234 . S
C578 O601 1.283 . S
C579 O591 1.281 . S
C579 O592 1.236 . S
C580 O602 1.240 . S
C580 O603 1.264 . S
O581 Mn576 2.095 . S
O581 C590 1.250 . S
O582 Mn577 2.121 . S
O582 C590 1.258 . S
C583 N584 1.326 . S
C583 C587 1.460 . S
C583 H589 0.929 . S
N584 Mn577 2.257 . S
N584 C583 1.326 . S
N584 C588 1.362 . S
C585 C586 1.258 1_556 S
C585 C588 1.431 . S
C585 C605 1.449 1_556 S
C586 C585 1.258 1_554 S
C586 C587 1.477 1_554 S
C586 H606 0.931 . S
C587 C583 1.460 . S
C587 C586 1.477 1_556 S
C587 H607 0.930 . S
C588 N584 1.362 . S
C588 C585 1.431 . S
C588 C598 1.476 . S
H589 C583 0.929 . S
C590 O581 1.250 . S
C590 O582 1.258 . S
O591 Mn576 2.162 . S
O591 C579 1.281 . S
O592 Mn576 2.297 . S
O592 C579 1.236 . S
N593 Mn577 2.282 . S
N593 C594 1.328 . S
N593 C598 1.318 . S
C594 N593 1.328 . S
C594 C595 1.457 . S
C594 H599 0.929 . S
C595 C594 1.457 . S
C595 C596 1.291 . S
C595 H608 0.931 . S
C596 C595 1.291 . S
C596 C597 1.373 . S
C596 H609 0.929 . S
C597 C596 1.373 . S
C597 C598 1.396 . S
C597 C604 1.403 . S
C598 C588 1.476 . S
C598 N593 1.318 . S
C598 C597 1.396 . S
H599 C594 0.929 . S
O600 Mn576 2.385 . S
O600 C578 1.234 . S
O601 Mn576 2.209 . S
O601 Mn577 2.215 . S
O601 C578 1.283 . S
O602 Mn576 2.094 . S
O602 C580 1.240 . S
O603 Mn577 2.117 . S
O603 C580 1.264 . S
C604 C597 1.403 . S
C604 C605 1.399 1_556 S
C604 H610 0.929 1_556 S
C605 C585 1.449 1_554 S
C605 C604 1.399 1_554 S
C605 H611 0.930 . S
H606 C586 0.931 . S
H607 C587 0.930 . S
H608 C595 0.931 . S
H609 C596 0.929 . S
H610 C604 0.929 1_554 S
H611 C605 0.930 . S
Mn612 O617 2.095 . S
Mn612 O627 2.162 . S
Mn612 O628 2.297 . S
Mn612 O636 2.385 . S
Mn612 O637 2.209 . S
Mn612 O638 2.094 . S
Mn613 O618 2.121 . S
Mn613 N620 2.257 . S
Mn613 N629 2.282 . S
Mn613 O637 2.215 . S
Mn613 O639 2.117 . S
C614 O636 1.234 . S
C614 O637 1.283 . S
C615 O627 1.281 . S
C615 O628 1.236 . S
C616 O638 1.240 . S
C616 O639 1.264 . S
O617 Mn612 2.095 . S
O617 C626 1.250 . S
O618 Mn613 2.121 . S
O618 C626 1.258 . S
C619 N620 1.326 . S
C619 C623 1.460 . S
C619 H625 0.929 . S
N620 Mn613 2.257 . S
N620 C619 1.326 . S
N620 C624 1.362 . S
C621 C622 1.258 . S
C621 C624 1.431 . S
C621 C641 1.449 . S
C622 C621 1.258 . S
C622 C623 1.477 . S
C622 H642 0.931 . S
C623 C619 1.460 . S
C623 C622 1.477 . S
C623 H643 0.930 . S
C624 N620 1.362 . S
C624 C621 1.431 . S
C624 C634 1.476 . S
H625 C619 0.929 . S
C626 O617 1.250 . S
C626 O618 1.258 . S
O627 Mn612 2.162 . S
O627 C615 1.281 . S
O628 Mn612 2.297 . S
O628 C615 1.236 . S
N629 Mn613 2.282 . S
N629 C630 1.328 . S
N629 C634 1.318 . S
C630 N629 1.328 . S
C630 C631 1.457 . S
C630 H635 0.929 . S
C631 C630 1.457 . S
C631 C632 1.291 . S
C631 H644 0.931 . S
C632 C631 1.291 . S
C632 C633 1.373 . S
C632 H645 0.929 . S
C633 C632 1.373 . S
C633 C634 1.396 . S
C633 C640 1.403 . S
C634 C624 1.476 . S
C634 N629 1.318 . S
C634 C633 1.396 . S
H635 C630 0.929 . S
O636 Mn612 2.385 . S
O636 C614 1.234 . S
O637 Mn612 2.209 . S
O637 Mn613 2.215 . S
O637 C614 1.283 . S
O638 Mn612 2.094 . S
O638 C616 1.240 . S
O639 Mn613 2.117 . S
O639 C616 1.264 . S
C640 C633 1.403 . S
C640 C641 1.399 . S
C640 H646 0.929 . S
C641 C621 1.449 . S
C641 C640 1.399 . S
C641 H647 0.930 . S
H642 C622 0.931 . S
H643 C623 0.930 . S
H644 C631 0.931 . S
H645 C632 0.929 . S
H646 C640 0.929 . S
H647 C641 0.930 . S
Mn648 O653 2.095 . S
Mn648 O663 2.162 . S
Mn648 O664 2.297 . S
Mn648 O672 2.385 . S
Mn648 O673 2.209 . S
Mn648 O674 2.094 . S
Mn649 O654 2.121 . S
Mn649 N656 2.257 . S
Mn649 N665 2.282 . S
Mn649 O673 2.215 . S
Mn649 O675 2.117 . S
C650 O672 1.234 . S
C650 O673 1.283 . S
C651 O663 1.281 . S
C651 O664 1.236 . S
C652 O674 1.240 . S
C652 O675 1.264 . S
O653 Mn648 2.095 . S
O653 C662 1.250 . S
O654 Mn649 2.121 . S
O654 C662 1.258 . S
C655 N656 1.326 . S
C655 C659 1.460 . S
C655 H661 0.929 . S
N656 Mn649 2.257 . S
N656 C655 1.326 . S
N656 C660 1.362 . S
C657 C658 1.258 1_554 S
C657 C660 1.431 . S
C657 C677 1.449 1_554 S
C658 C657 1.258 1_556 S
C658 C659 1.477 1_556 S
C658 H678 0.931 . S
C659 C655 1.460 . S
C659 C658 1.477 1_554 S
C659 H679 0.930 . S
C660 N656 1.362 . S
C660 C657 1.431 . S
C660 C670 1.476 . S
H661 C655 0.929 . S
C662 O653 1.250 . S
C662 O654 1.258 . S
O663 Mn648 2.162 . S
O663 C651 1.281 . S
O664 Mn648 2.297 . S
O664 C651 1.236 . S
N665 Mn649 2.282 . S
N665 C666 1.328 . S
N665 C670 1.318 . S
C666 N665 1.328 . S
C666 C667 1.457 . S
C666 H671 0.929 . S
C667 C666 1.457 . S
C667 C668 1.291 . S
C667 H680 0.931 . S
C668 C667 1.291 . S
C668 C669 1.373 . S
C668 H681 0.929 . S
C669 C668 1.373 . S
C669 C670 1.396 . S
C669 C676 1.403 . S
C670 C660 1.476 . S
C670 N665 1.318 . S
C670 C669 1.396 . S
H671 C666 0.929 . S
O672 Mn648 2.385 . S
O672 C650 1.234 . S
O673 Mn648 2.209 . S
O673 Mn649 2.215 . S
O673 C650 1.283 . S
O674 Mn648 2.094 . S
O674 C652 1.240 . S
O675 Mn649 2.117 . S
O675 C652 1.264 . S
C676 C669 1.403 . S
C676 C677 1.399 1_554 S
C676 H682 0.929 1_554 S
C677 C657 1.449 1_556 S
C677 C676 1.399 1_556 S
C677 H683 0.930 . S
H678 C658 0.931 . S
H679 C659 0.930 . S
H680 C667 0.931 . S
H681 C668 0.929 . S
H682 C676 0.929 1_556 S
H683 C677 0.930 . S
Mn684 O689 2.095 . S
Mn684 O699 2.162 . S
Mn684 O700 2.297 . S
Mn684 O708 2.385 . S
Mn684 O709 2.209 . S
Mn684 O710 2.094 . S
Mn685 O690 2.121 . S
Mn685 N692 2.257 . S
Mn685 N701 2.282 . S
Mn685 O709 2.215 . S
Mn685 O711 2.117 . S
C686 O708 1.234 . S
C686 O709 1.283 . S
C687 O699 1.281 . S
C687 O700 1.236 . S
C688 O710 1.240 . S
C688 O711 1.264 . S
O689 Mn684 2.095 . S
O689 C698 1.250 . S
O690 Mn685 2.121 . S
O690 C698 1.258 . S
C691 N692 1.326 . S
C691 C695 1.460 . S
C691 H697 0.929 . S
N692 Mn685 2.257 . S
N692 C691 1.326 . S
N692 C696 1.362 . S
C693 C694 1.258 . S
C693 C696 1.431 . S
C693 C713 1.449 . S
C694 C693 1.258 . S
C694 C695 1.477 . S
C694 H714 0.931 . S
C695 C691 1.460 . S
C695 C694 1.477 . S
C695 H715 0.930 . S
C696 N692 1.362 . S
C696 C693 1.431 . S
C696 C706 1.476 . S
H697 C691 0.929 . S
C698 O689 1.250 . S
C698 O690 1.258 . S
O699 Mn684 2.162 . S
O699 C687 1.281 . S
O700 Mn684 2.297 . S
O700 C687 1.236 . S
N701 Mn685 2.282 . S
N701 C702 1.328 . S
N701 C706 1.318 . S
C702 N701 1.328 . S
C702 C703 1.457 . S
C702 H707 0.929 . S
C703 C702 1.457 . S
C703 C704 1.291 . S
C703 H716 0.931 . S
C704 C703 1.291 . S
C704 C705 1.373 . S
C704 H717 0.929 . S
C705 C704 1.373 . S
C705 C706 1.396 . S
C705 C712 1.403 . S
C706 C696 1.476 . S
C706 N701 1.318 . S
C706 C705 1.396 . S
H707 C702 0.929 . S
O708 Mn684 2.385 . S
O708 C686 1.234 . S
O709 Mn684 2.209 . S
O709 Mn685 2.215 . S
O709 C686 1.283 . S
O710 Mn684 2.094 . S
O710 C688 1.240 . S
O711 Mn685 2.117 . S
O711 C688 1.264 . S
C712 C705 1.403 . S
C712 C713 1.399 . S
C712 H718 0.929 . S
C713 C693 1.449 . S
C713 C712 1.399 . S
C713 H719 0.930 . S
H714 C694 0.931 . S
H715 C695 0.930 . S
H716 C703 0.931 . S
H717 C704 0.929 . S
H718 C712 0.929 . S
H719 C713 0.930 . S
Mn720 O725 2.095 . S
Mn720 O735 2.162 . S
Mn720 O736 2.297 . S
Mn720 O744 2.385 . S
Mn720 O745 2.209 . S
Mn720 O746 2.094 . S
Mn721 O726 2.121 . S
Mn721 N728 2.257 . S
Mn721 N737 2.282 . S
Mn721 O745 2.215 . S
Mn721 O747 2.117 . S
C722 O744 1.234 . S
C722 O745 1.283 . S
C723 O735 1.281 . S
C723 O736 1.236 . S
C724 O746 1.240 . S
C724 O747 1.264 . S
O725 Mn720 2.095 . S
O725 C734 1.250 . S
O726 Mn721 2.121 . S
O726 C734 1.258 . S
C727 N728 1.326 . S
C727 C731 1.460 . S
C727 H733 0.929 . S
N728 Mn721 2.257 . S
N728 C727 1.326 . S
N728 C732 1.362 . S
C729 C730 1.255 1_655 S
C729 C732 1.431 . S
C729 C749 1.449 1_655 S
C730 C729 1.255 1_455 S
C730 C731 1.474 1_455 S
C730 H750 0.937 . S
C731 C727 1.460 . S
C731 C730 1.474 1_655 S
C731 H751 0.930 . S
C732 N728 1.362 . S
C732 C729 1.431 . S
C732 C742 1.476 . S
H733 C727 0.929 . S
C734 O725 1.250 . S
C734 O726 1.258 . S
O735 Mn720 2.162 . S
O735 C723 1.281 . S
O736 Mn720 2.297 . S
O736 C723 1.236 . S
N737 Mn721 2.282 . S
N737 C738 1.328 . S
N737 C742 1.318 . S
C738 N737 1.328 . S
C738 C739 1.457 . S
C738 H743 0.929 . S
C739 C738 1.457 . S
C739 C740 1.291 . S
C739 H752 0.931 . S
C740 C739 1.291 . S
C740 C741 1.373 . S
C740 H753 0.929 . S
C741 C740 1.373 . S
C741 C742 1.396 . S
C741 C748 1.403 . S
C742 C732 1.476 . S
C742 N737 1.318 . S
C742 C741 1.396 . S
H743 C738 0.929 . S
O744 Mn720 2.385 . S
O744 C722 1.234 . S
O745 Mn720 2.209 . S
O745 Mn721 2.215 . S
O745 C722 1.283 . S
O746 Mn720 2.094 . S
O746 C724 1.240 . S
O747 Mn721 2.117 . S
O747 C724 1.264 . S
C748 C741 1.403 . S
C748 C749 1.399 1_655 S
C748 H754 0.929 1_655 S
C749 C729 1.449 1_455 S
C749 C748 1.399 1_455 S
C749 H755 0.930 . S
H750 C730 0.937 . S
H751 C731 0.930 . S
H752 C739 0.931 . S
H753 C740 0.929 . S
H754 C748 0.929 1_455 S
H755 C749 0.930 . S
Mn756 O761 2.095 . S
Mn756 O771 2.162 . S
Mn756 O772 2.297 . S
Mn756 O780 2.385 . S
Mn756 O781 2.209 . S
Mn756 O782 2.094 . S
Mn757 O762 2.121 . S
Mn757 N764 2.257 . S
Mn757 N773 2.282 . S
Mn757 O781 2.215 . S
Mn757 O783 2.117 . S
C758 O780 1.234 . S
C758 O781 1.283 . S
C759 O771 1.281 . S
C759 O772 1.236 . S
C760 O782 1.240 . S
C760 O783 1.264 . S
O761 Mn756 2.095 . S
O761 C770 1.250 . S
O762 Mn757 2.121 . S
O762 C770 1.258 . S
C763 N764 1.326 . S
C763 C767 1.460 . S
C763 H769 0.929 . S
N764 Mn757 2.257 . S
N764 C763 1.326 . S
N764 C768 1.362 . S
C765 C766 1.258 . S
C765 C768 1.431 . S
C765 C785 1.449 . S
C766 C765 1.258 . S
C766 C767 1.477 . S
C766 H786 0.931 . S
C767 C763 1.460 . S
C767 C766 1.477 . S
C767 H787 0.930 . S
C768 N764 1.362 . S
C768 C765 1.431 . S
C768 C778 1.476 . S
H769 C763 0.929 . S
C770 O761 1.250 . S
C770 O762 1.258 . S
O771 Mn756 2.162 . S
O771 C759 1.281 . S
O772 Mn756 2.297 . S
O772 C759 1.236 . S
N773 Mn757 2.282 . S
N773 C774 1.328 . S
N773 C778 1.318 . S
C774 N773 1.328 . S
C774 C775 1.457 . S
C774 H779 0.929 . S
C775 C774 1.457 . S
C775 C776 1.291 . S
C775 H788 0.931 . S
C776 C775 1.291 . S
C776 C777 1.373 . S
C776 H789 0.929 . S
C777 C776 1.373 . S
C777 C778 1.396 . S
C777 C784 1.403 . S
C778 C768 1.476 . S
C778 N773 1.318 . S
C778 C777 1.396 . S
H779 C774 0.929 . S
O780 Mn756 2.385 . S
O780 C758 1.234 . S
O781 Mn756 2.209 . S
O781 Mn757 2.215 . S
O781 C758 1.283 . S
O782 Mn756 2.094 . S
O782 C760 1.240 . S
O783 Mn757 2.117 . S
O783 C760 1.264 . S
C784 C777 1.403 . S
C784 C785 1.399 . S
C784 H790 0.929 . S
C785 C765 1.449 . S
C785 C784 1.399 . S
C785 H791 0.930 . S
H786 C766 0.931 . S
H787 C767 0.930 . S
H788 C775 0.931 . S
H789 C776 0.929 . S
H790 C784 0.929 . S
H791 C785 0.930 . S
Mn792 O797 2.095 . S
Mn792 O807 2.162 . S
Mn792 O808 2.297 . S
Mn792 O816 2.385 . S
Mn792 O817 2.209 . S
Mn792 O818 2.094 . S
Mn793 O798 2.121 . S
Mn793 N800 2.257 . S
Mn793 N809 2.282 . S
Mn793 O817 2.215 . S
Mn793 O819 2.117 . S
C794 O816 1.234 . S
C794 O817 1.283 . S
C795 O807 1.281 . S
C795 O808 1.236 . S
C796 O818 1.240 . S
C796 O819 1.264 . S
O797 Mn792 2.095 . S
O797 C806 1.250 . S
O798 Mn793 2.121 . S
O798 C806 1.258 . S
C799 N800 1.326 . S
C799 C803 1.460 . S
C799 H805 0.929 . S
N800 Mn793 2.257 . S
N800 C799 1.326 . S
N800 C804 1.362 . S
C801 C802 1.255 1_455 S
C801 C804 1.431 . S
C801 C821 1.449 1_455 S
C802 C801 1.255 1_655 S
C802 C803 1.474 1_655 S
C802 H822 0.937 . S
C803 C799 1.460 . S
C803 C802 1.474 1_455 S
C803 H823 0.930 . S
C804 N800 1.362 . S
C804 C801 1.431 . S
C804 C814 1.476 . S
H805 C799 0.929 . S
C806 O797 1.250 . S
C806 O798 1.258 . S
O807 Mn792 2.162 . S
O807 C795 1.281 . S
O808 Mn792 2.297 . S
O808 C795 1.236 . S
N809 Mn793 2.282 . S
N809 C810 1.328 . S
N809 C814 1.318 . S
C810 N809 1.328 . S
C810 C811 1.457 . S
C810 H815 0.929 . S
C811 C810 1.457 . S
C811 C812 1.291 . S
C811 H824 0.931 . S
C812 C811 1.291 . S
C812 C813 1.373 . S
C812 H825 0.929 . S
C813 C812 1.373 . S
C813 C814 1.396 . S
C813 C820 1.403 . S
C814 C804 1.476 . S
C814 N809 1.318 . S
C814 C813 1.396 . S
H815 C810 0.929 . S
O816 Mn792 2.385 . S
O816 C794 1.234 . S
O817 Mn792 2.209 . S
O817 Mn793 2.215 . S
O817 C794 1.283 . S
O818 Mn792 2.094 . S
O818 C796 1.240 . S
O819 Mn793 2.117 . S
O819 C796 1.264 . S
C820 C813 1.403 . S
C820 C821 1.399 1_455 S
C820 H826 0.929 1_455 S
C821 C801 1.449 1_655 S
C821 C820 1.399 1_655 S
C821 H827 0.930 . S
H822 C802 0.937 . S
H823 C803 0.930 . S
H824 C811 0.931 . S
H825 C812 0.929 . S
H826 C820 0.929 1_655 S
H827 C821 0.930 . S
Mn828 O833 2.095 . S
Mn828 O843 2.162 . S
Mn828 O844 2.297 . S
Mn828 O852 2.385 . S
Mn828 O853 2.209 . S
Mn828 O854 2.094 . S
Mn829 O834 2.121 . S
Mn829 N836 2.257 . S
Mn829 N845 2.282 . S
Mn829 O853 2.215 . S
Mn829 O855 2.117 . S
C830 O852 1.234 . S
C830 O853 1.283 . S
C831 O843 1.281 . S
C831 O844 1.236 . S
C832 O854 1.240 . S
C832 O855 1.264 . S
O833 Mn828 2.095 . S
O833 C842 1.250 . S
O834 Mn829 2.121 . S
O834 C842 1.258 . S
C835 N836 1.326 . S
C835 C839 1.460 . S
C835 H841 0.929 . S
N836 Mn829 2.257 . S
N836 C835 1.326 . S
N836 C840 1.362 . S
C837 C838 1.258 . S
C837 C840 1.431 . S
C837 C857 1.449 . S
C838 C837 1.258 . S
C838 C839 1.477 . S
C838 H858 0.931 . S
C839 C835 1.460 . S
C839 C838 1.477 . S
C839 H859 0.930 . S
C840 N836 1.362 . S
C840 C837 1.431 . S
C840 C850 1.476 . S
H841 C835 0.929 . S
C842 O833 1.250 . S
C842 O834 1.258 . S
O843 Mn828 2.162 . S
O843 C831 1.281 . S
O844 Mn828 2.297 . S
O844 C831 1.236 . S
N845 Mn829 2.282 . S
N845 C846 1.328 . S
N845 C850 1.318 . S
C846 N845 1.328 . S
C846 C847 1.457 . S
C846 H851 0.929 . S
C847 C846 1.457 . S
C847 C848 1.291 . S
C847 H860 0.931 . S
C848 C847 1.291 . S
C848 C849 1.373 . S
C848 H861 0.929 . S
C849 C848 1.373 . S
C849 C850 1.396 . S
C849 C856 1.403 . S
C850 C840 1.476 . S
C850 N845 1.318 . S
C850 C849 1.396 . S
H851 C846 0.929 . S
O852 Mn828 2.385 . S
O852 C830 1.234 . S
O853 Mn828 2.209 . S
O853 Mn829 2.215 . S
O853 C830 1.283 . S
O854 Mn828 2.094 . S
O854 C832 1.240 . S
O855 Mn829 2.117 . S
O855 C832 1.264 . S
C856 C849 1.403 . S
C856 C857 1.399 . S
C856 H862 0.929 . S
C857 C837 1.449 . S
C857 C856 1.399 . S
C857 H863 0.930 . S
H858 C838 0.931 . S
H859 C839 0.930 . S
H860 C847 0.931 . S
H861 C848 0.929 . S
H862 C856 0.929 . S
H863 C857 0.930 . S
C864 C865 1.387 . S
C864 H868 0.950 . S
C864 C873 1.390 . S
C865 C864 1.387 . S
C865 C867 1.387 . S
H866 C873 0.950 . S
C867 C865 1.387 . S
C867 C869 1.390 . S
C867 H871 0.950 . S
H868 C864 0.950 . S
C869 C867 1.390 . S
C869 C870 1.387 . S
C869 H872 0.950 . S
C870 C869 1.387 . S
C870 C873 1.387 . S
H871 C867 0.950 . S
H872 C869 0.950 . S
C873 C864 1.390 . S
C873 H866 0.950 . S
C873 C870 1.387 . S
C874 C875 1.387 . S
C874 H878 0.950 . S
C874 C883 1.390 . S
C875 C874 1.387 . S
C875 C877 1.387 . S
H876 C883 0.950 . S
C877 C875 1.387 . S
C877 C879 1.390 . S
C877 H881 0.950 . S
H878 C874 0.950 . S
C879 C877 1.390 . S
C879 C880 1.387 . S
C879 H882 0.950 . S
C880 C879 1.387 . S
C880 C883 1.387 . S
H881 C877 0.950 . S
H882 C879 0.950 . S
C883 C874 1.390 . S
C883 H876 0.950 . S
C883 C880 1.387 . S
C884 C885 1.387 . S
C884 H888 0.950 . S
C884 C893 1.390 . S
C885 C884 1.387 . S
C885 C887 1.387 . S
H886 C893 0.950 . S
C887 C885 1.387 . S
C887 C889 1.390 . S
C887 H891 0.950 . S
H888 C884 0.950 . S
C889 C887 1.390 . S
C889 C890 1.387 . S
C889 H892 0.950 . S
C890 C889 1.387 . S
C890 C893 1.387 . S
H891 C887 0.950 . S
H892 C889 0.950 . S
C893 C884 1.390 . S
C893 H886 0.950 . S
C893 C890 1.387 . S
C894 C895 1.387 . S
C894 H898 0.950 . S
C894 C903 1.390 . S
C895 C894 1.387 . S
C895 C897 1.387 . S
H896 C903 0.950 . S
C897 C895 1.387 . S
C897 C899 1.390 . S
C897 H901 0.950 . S
H898 C894 0.950 . S
C899 C897 1.390 . S
C899 C900 1.387 . S
C899 H902 0.950 . S
C900 C899 1.387 . S
C900 C903 1.387 . S
H901 C897 0.950 . S
H902 C899 0.950 . S
C903 C894 1.390 . S
C903 H896 0.950 . S
C903 C900 1.387 . S
C904 C905 1.387 . S
C904 H908 0.950 . S
C904 C913 1.390 . S
C905 C904 1.387 . S
C905 C907 1.387 . S
H906 C913 0.950 . S
C907 C905 1.387 . S
C907 C909 1.390 . S
C907 H911 0.950 . S
H908 C904 0.950 . S
C909 C907 1.390 . S
C909 C910 1.387 . S
C909 H912 0.950 . S
C910 C909 1.387 . S
C910 C913 1.387 . S
H911 C907 0.950 . S
H912 C909 0.950 . S
C913 C904 1.390 . S
C913 H906 0.950 . S
C913 C910 1.387 . S
C914 C915 1.387 . S
C914 H918 0.950 . S
C914 C923 1.390 . S
C915 C914 1.387 . S
C915 C917 1.387 . S
H916 C923 0.950 . S
C917 C915 1.387 . S
C917 C919 1.390 . S
C917 H921 0.950 . S
H918 C914 0.950 . S
C919 C917 1.390 . S
C919 C920 1.387 . S
C919 H922 0.950 . S
C920 C919 1.387 . S
C920 C923 1.387 . S
H921 C917 0.950 . S
H922 C919 0.950 . S
C923 C914 1.390 . S
C923 H916 0.950 . S
C923 C920 1.387 . S
C924 C925 1.387 . S
C924 H928 0.950 . S
C924 C933 1.390 . S
C925 C924 1.387 . S
C925 C927 1.387 . S
H926 C933 0.950 . S
C927 C925 1.387 . S
C927 C929 1.390 . S
C927 H931 0.950 . S
H928 C924 0.950 . S
C929 C927 1.390 . S
C929 C930 1.387 . S
C929 H932 0.950 . S
C930 C929 1.387 . S
C930 C933 1.387 . S
H931 C927 0.950 . S
H932 C929 0.950 . S
C933 C924 1.390 . S
C933 H926 0.950 . S
C933 C930 1.387 . S
C934 C935 1.387 . S
C934 H938 0.950 . S
C934 C943 1.390 . S
C935 C934 1.387 . S
C935 C937 1.387 . S
H936 C943 0.950 . S
C937 C935 1.387 . S
C937 C939 1.390 . S
C937 H941 0.950 . S
H938 C934 0.950 . S
C939 C937 1.390 . S
C939 C940 1.387 . S
C939 H942 0.950 . S
C940 C939 1.387 . S
C940 C943 1.387 . S
H941 C937 0.950 . S
H942 C939 0.950 . S
C943 C934 1.390 . S
C943 H936 0.950 . S
C943 C940 1.387 . S
C944 C945 1.387 . S
C944 H948 0.950 . S
C944 C953 1.390 . S
C945 C944 1.387 . S
C945 C947 1.387 . S
H946 C953 0.950 . S
C947 C945 1.387 . S
C947 C949 1.390 . S
C947 H951 0.950 . S
H948 C944 0.950 . S
C949 C947 1.390 . S
C949 C950 1.387 . S
C949 H952 0.950 . S
C950 C949 1.387 . S
C950 C953 1.387 . S
H951 C947 0.950 . S
H952 C949 0.950 . S
C953 C944 1.390 . S
C953 H946 0.950 . S
C953 C950 1.387 . S
C954 C955 1.387 . S
C954 H958 0.950 . S
C954 C963 1.390 . S
C955 C954 1.387 . S
C955 C957 1.387 . S
H956 C963 0.950 . S
C957 C955 1.387 . S
C957 C959 1.390 . S
C957 H961 0.950 . S
H958 C954 0.950 . S
C959 C957 1.390 . S
C959 C960 1.387 . S
C959 H962 0.950 . S
C960 C959 1.387 . S
C960 C963 1.387 . S
H961 C957 0.950 . S
H962 C959 0.950 . S
C963 C954 1.390 . S
C963 H956 0.950 . S
C963 C960 1.387 . S
C964 C965 1.387 . S
C964 H968 0.950 . S
C964 C973 1.390 . S
C965 C964 1.387 . S
C965 C967 1.387 . S
H966 C973 0.950 . S
C967 C965 1.387 . S
C967 C969 1.390 . S
C967 H971 0.950 . S
H968 C964 0.950 . S
C969 C967 1.390 . S
C969 C970 1.387 . S
C969 H972 0.950 . S
C970 C969 1.387 . S
C970 C973 1.387 . S
H971 C967 0.950 . S
H972 C969 0.950 . S
C973 C964 1.390 . S
C973 H966 0.950 . S
C973 C970 1.387 . S
C974 C975 1.387 . S
C974 H978 0.950 . S
C974 C983 1.390 . S
C975 C974 1.387 . S
C975 C977 1.387 . S
H976 C983 0.950 . S
C977 C975 1.387 . S
C977 C979 1.390 . S
C977 H981 0.950 . S
H978 C974 0.950 . S
C979 C977 1.390 . S
C979 C980 1.387 . S
C979 H982 0.950 . S
C980 C979 1.387 . S
C980 C983 1.387 . S
H981 C977 0.950 . S
H982 C979 0.950 . S
C983 C974 1.390 . S
C983 H976 0.950 . S
C983 C980 1.387 . S
C984 C985 1.387 . S
C984 H988 0.950 . S
C984 C993 1.390 . S
C985 C984 1.387 . S
C985 C987 1.387 . S
H986 C993 0.950 . S
C987 C985 1.387 . S
C987 C989 1.390 . S
C987 H991 0.950 . S
H988 C984 0.950 . S
C989 C987 1.390 . S
C989 C990 1.387 . S
C989 H992 0.950 . S
C990 C989 1.387 . S
C990 C993 1.387 . S
H991 C987 0.950 . S
H992 C989 0.950 . S
C993 C984 1.390 . S
C993 H986 0.950 . S
C993 C990 1.387 . S
C994 C995 1.387 . S
C994 H998 0.950 . S
C994 C1003 1.390 . S
C995 C994 1.387 . S
C995 C997 1.387 . S
H996 C1003 0.950 . S
C997 C995 1.387 . S
C997 C999 1.390 . S
C997 H1001 0.950 . S
H998 C994 0.950 . S
C999 C997 1.390 . S
C999 C1000 1.387 . S
C999 H1002 0.950 . S
C1000 C999 1.387 . S
C1000 C1003 1.387 . S
H1001 C997 0.950 . S
H1002 C999 0.950 . S
C1003 C994 1.390 . S
C1003 H996 0.950 . S
C1003 C1000 1.387 . S
C1004 C1005 1.387 . S
C1004 H1008 0.950 . S
C1004 C1013 1.390 . S
C1005 C1004 1.387 . S
C1005 C1007 1.387 . S
H1006 C1013 0.950 . S
C1007 C1005 1.387 . S
C1007 C1009 1.390 . S
C1007 H1011 0.950 . S
H1008 C1004 0.950 . S
C1009 C1007 1.390 . S
C1009 C1010 1.387 . S
C1009 H1012 0.950 . S
C1010 C1009 1.387 . S
C1010 C1013 1.387 . S
H1011 C1007 0.950 . S
H1012 C1009 0.950 . S
C1013 C1004 1.390 . S
C1013 H1006 0.950 . S
C1013 C1010 1.387 . S
C1014 C1015 1.387 . S
C1014 H1018 0.950 . S
C1014 C1023 1.390 . S
C1015 C1014 1.387 . S
C1015 C1017 1.387 . S
H1016 C1023 0.950 . S
C1017 C1015 1.387 . S
C1017 C1019 1.390 . S
C1017 H1021 0.950 . S
H1018 C1014 0.950 . S
C1019 C1017 1.390 . S
C1019 C1020 1.387 . S
C1019 H1022 0.950 . S
C1020 C1019 1.387 . S
C1020 C1023 1.387 . S
H1021 C1017 0.950 . S
H1022 C1019 0.950 . S
C1023 C1014 1.390 . S
C1023 H1016 0.950 . S
C1023 C1020 1.387 . S
C1024 C1025 1.387 . S
C1024 H1028 0.950 . S
C1024 C1033 1.390 . S
C1025 C1024 1.387 . S
C1025 C1027 1.387 . S
H1026 C1033 0.950 . S
C1027 C1025 1.387 . S
C1027 C1029 1.390 . S
C1027 H1031 0.950 . S
H1028 C1024 0.950 . S
C1029 C1027 1.390 . S
C1029 C1030 1.387 . S
C1029 H1032 0.950 . S
C1030 C1029 1.387 . S
C1030 C1033 1.387 . S
H1031 C1027 0.950 . S
H1032 C1029 0.950 . S
C1033 C1024 1.390 . S
C1033 H1026 0.950 . S
C1033 C1030 1.387 . S
C1034 C1035 1.387 . S
C1034 H1038 0.950 . S
C1034 C1043 1.390 . S
C1035 C1034 1.387 . S
C1035 C1037 1.387 . S
H1036 C1043 0.950 . S
C1037 C1035 1.387 . S
C1037 C1039 1.390 . S
C1037 H1041 0.950 . S
H1038 C1034 0.950 . S
C1039 C1037 1.390 . S
C1039 C1040 1.387 . S
C1039 H1042 0.950 . S
C1040 C1039 1.387 . S
C1040 C1043 1.387 . S
H1041 C1037 0.950 . S
H1042 C1039 0.950 . S
C1043 C1034 1.390 . S
C1043 H1036 0.950 . S
C1043 C1040 1.387 . S
C1044 C1045 1.387 . S
C1044 H1048 0.950 . S
C1044 C1053 1.390 . S
C1045 C1044 1.387 . S
C1045 C1047 1.387 . S
H1046 C1053 0.950 . S
C1047 C1045 1.387 . S
C1047 C1049 1.390 . S
C1047 H1051 0.950 . S
H1048 C1044 0.950 . S
C1049 C1047 1.390 . S
C1049 C1050 1.387 . S
C1049 H1052 0.950 . S
C1050 C1049 1.387 . S
C1050 C1053 1.387 . S
H1051 C1047 0.950 . S
H1052 C1049 0.950 . S
C1053 C1044 1.390 . S
C1053 H1046 0.950 . S
C1053 C1050 1.387 . S
C1054 C1055 1.387 . S
C1054 H1058 0.950 . S
C1054 C1063 1.390 . S
C1055 C1054 1.387 . S
C1055 C1057 1.387 . S
H1056 C1063 0.950 . S
C1057 C1055 1.387 . S
C1057 C1059 1.390 . S
C1057 H1061 0.950 . S
H1058 C1054 0.950 . S
C1059 C1057 1.390 . S
C1059 C1060 1.387 . S
C1059 H1062 0.950 . S
C1060 C1059 1.387 . S
C1060 C1063 1.387 . S
H1061 C1057 0.950 . S
H1062 C1059 0.950 . S
C1063 C1054 1.390 . S
C1063 H1056 0.950 . S
C1063 C1060 1.387 . S
C1064 C1065 1.387 . S
C1064 H1068 0.950 . S
C1064 C1073 1.390 . S
C1065 C1064 1.387 . S
C1065 C1067 1.387 . S
H1066 C1073 0.950 . S
C1067 C1065 1.387 . S
C1067 C1069 1.390 . S
C1067 H1071 0.950 . S
H1068 C1064 0.950 . S
C1069 C1067 1.390 . S
C1069 C1070 1.387 . S
C1069 H1072 0.950 . S
C1070 C1069 1.387 . S
C1070 C1073 1.387 . S
H1071 C1067 0.950 . S
H1072 C1069 0.950 . S
C1073 C1064 1.390 . S
C1073 H1066 0.950 . S
C1073 C1070 1.387 . S
C1074 C1075 1.387 . S
C1074 H1078 0.950 . S
C1074 C1083 1.390 . S
C1075 C1074 1.387 . S
C1075 C1077 1.387 . S
H1076 C1083 0.950 . S
C1077 C1075 1.387 . S
C1077 C1079 1.390 . S
C1077 H1081 0.950 . S
H1078 C1074 0.950 . S
C1079 C1077 1.390 . S
C1079 C1080 1.387 . S
C1079 H1082 0.950 . S
C1080 C1079 1.387 . S
C1080 C1083 1.387 . S
H1081 C1077 0.950 . S
H1082 C1079 0.950 . S
C1083 C1074 1.390 . S
C1083 H1076 0.950 . S
C1083 C1080 1.387 . S
C1084 C1085 1.387 . S
C1084 H1088 0.950 . S
C1084 C1093 1.390 . S
C1085 C1084 1.387 . S
C1085 C1087 1.387 . S
H1086 C1093 0.950 . S
C1087 C1085 1.387 . S
C1087 C1089 1.390 . S
C1087 H1091 0.950 . S
H1088 C1084 0.950 . S
C1089 C1087 1.390 . S
C1089 C1090 1.387 . S
C1089 H1092 0.950 . S
C1090 C1089 1.387 . S
C1090 C1093 1.387 . S
H1091 C1087 0.950 . S
H1092 C1089 0.950 . S
C1093 C1084 1.390 . S
C1093 H1086 0.950 . S
C1093 C1090 1.387 . S
C1094 C1095 1.387 . S
C1094 H1098 0.950 . S
C1094 C1103 1.390 . S
C1095 C1094 1.387 . S
C1095 C1097 1.387 . S
H1096 C1103 0.950 . S
C1097 C1095 1.387 . S
C1097 C1099 1.390 . S
C1097 H1101 0.950 . S
H1098 C1094 0.950 . S
C1099 C1097 1.390 . S
C1099 C1100 1.387 . S
C1099 H1102 0.950 . S
C1100 C1099 1.387 . S
C1100 C1103 1.387 . S
H1101 C1097 0.950 . S
H1102 C1099 0.950 . S
C1103 C1094 1.390 . S
C1103 H1096 0.950 . S
C1103 C1100 1.387 . S
C1104 C1105 1.387 . S
C1104 H1108 0.950 . S
C1104 C1113 1.390 . S
C1105 C1104 1.387 . S
C1105 C1107 1.387 . S
H1106 C1113 0.950 . S
C1107 C1105 1.387 . S
C1107 C1109 1.390 . S
C1107 H1111 0.950 . S
H1108 C1104 0.950 . S
C1109 C1107 1.390 . S
C1109 C1110 1.387 . S
C1109 H1112 0.950 . S
C1110 C1109 1.387 . S
C1110 C1113 1.387 . S
H1111 C1107 0.950 . S
H1112 C1109 0.950 . S
C1113 C1104 1.390 . S
C1113 H1106 0.950 . S
C1113 C1110 1.387 . S
C1114 C1115 1.387 1_556 S
C1114 H1118 0.950 1_556 S
C1114 C1123 1.390 . S
C1115 C1114 1.387 1_554 S
C1115 C1117 1.387 . S
H1116 C1123 0.950 . S
C1117 C1115 1.387 . S
C1117 C1119 1.390 1_554 S
C1117 H1121 0.950 . S
H1118 C1114 0.950 1_554 S
C1119 C1117 1.390 1_556 S
C1119 C1120 1.387 . S
C1119 H1122 0.950 . S
C1120 C1119 1.387 . S
C1120 C1123 1.387 . S
H1121 C1117 0.950 . S
H1122 C1119 0.950 . S
C1123 C1114 1.390 . S
C1123 H1116 0.950 . S
C1123 C1120 1.387 . S
C1124 C1125 1.387 . S
C1124 H1128 0.950 . S
C1124 C1133 1.390 . S
C1125 C1124 1.387 . S
C1125 C1127 1.387 . S
H1126 C1133 0.950 . S
C1127 C1125 1.387 . S
C1127 C1129 1.390 . S
C1127 H1131 0.950 . S
H1128 C1124 0.950 . S
C1129 C1127 1.390 . S
C1129 C1130 1.387 . S
C1129 H1132 0.950 . S
C1130 C1129 1.387 . S
C1130 C1133 1.387 . S
H1131 C1127 0.950 . S
H1132 C1129 0.950 . S
C1133 C1124 1.390 . S
C1133 H1126 0.950 . S
C1133 C1130 1.387 . S
C1134 C1135 1.387 . S
C1134 H1138 0.950 . S
C1134 C1143 1.390 1_554 S
C1135 C1134 1.387 . S
C1135 C1137 1.387 . S
H1136 C1143 0.950 . S
C1137 C1135 1.387 . S
C1137 C1139 1.390 . S
C1137 H1141 0.950 . S
H1138 C1134 0.950 . S
C1139 C1137 1.390 . S
C1139 C1140 1.387 1_554 S
C1139 H1142 0.950 1_554 S
C1140 C1139 1.387 1_556 S
C1140 C1143 1.387 . S
H1141 C1137 0.950 . S
H1142 C1139 0.950 1_556 S
C1143 C1134 1.390 1_556 S
C1143 H1136 0.950 . S
C1143 C1140 1.387 . S
C1144 C1145 1.387 . S
C1144 H1148 0.950 . S
C1144 C1153 1.390 . S
C1145 C1144 1.387 . S
C1145 C1147 1.387 . S
H1146 C1153 0.950 . S
C1147 C1145 1.387 . S
C1147 C1149 1.390 . S
C1147 H1151 0.950 . S
H1148 C1144 0.950 . S
C1149 C1147 1.390 . S
C1149 C1150 1.387 . S
C1149 H1152 0.950 . S
C1150 C1149 1.387 . S
C1150 C1153 1.387 . S
H1151 C1147 0.950 . S
H1152 C1149 0.950 . S
C1153 C1144 1.390 . S
C1153 H1146 0.950 . S
C1153 C1150 1.387 . S
C1154 C1155 1.387 1_455 S
C1154 H1158 0.950 1_455 S
C1154 C1163 1.390 . S
C1155 C1154 1.387 1_655 S
C1155 C1157 1.387 1_655 S
H1156 C1163 0.950 . S
C1157 C1155 1.387 1_455 S
C1157 C1159 1.390 . S
C1157 H1161 0.950 1_455 S
H1158 C1154 0.950 1_655 S
C1159 C1157 1.390 . S
C1159 C1160 1.387 . S
C1159 H1162 0.950 . S
C1160 C1159 1.387 . S
C1160 C1163 1.387 . S
H1161 C1157 0.950 1_655 S
H1162 C1159 0.950 . S
C1163 C1154 1.390 . S
C1163 H1156 0.950 . S
C1163 C1160 1.387 . S
C1164 C1165 1.387 . S
C1164 H1168 0.950 . S
C1164 C1173 1.390 1_455 S
C1165 C1164 1.387 . S
C1165 C1167 1.387 1_455 S
H1166 C1173 0.950 . S
C1167 C1165 1.387 1_655 S
C1167 C1169 1.390 . S
C1167 H1171 0.950 . S
H1168 C1164 0.950 . S
C1169 C1167 1.390 . S
C1169 C1170 1.387 . S
C1169 H1172 0.950 . S
C1170 C1169 1.387 . S
C1170 C1173 1.387 . S
H1171 C1167 0.950 . S
H1172 C1169 0.950 . S
C1173 C1164 1.390 1_655 S
C1173 H1166 0.950 . S
C1173 C1170 1.387 . S
C1174 C1175 1.387 . S
C1174 H1178 0.950 . S
C1174 C1183 1.390 . S
C1175 C1174 1.387 . S
C1175 C1177 1.387 . S
H1176 C1183 0.950 . S
C1177 C1175 1.387 . S
C1177 C1179 1.390 . S
C1177 H1181 0.950 . S
H1178 C1174 0.950 . S
C1179 C1177 1.390 . S
C1179 C1180 1.387 . S
C1179 H1182 0.950 . S
C1180 C1179 1.387 . S
C1180 C1183 1.387 . S
H1181 C1177 0.950 . S
H1182 C1179 0.950 . S
C1183 C1174 1.390 . S
C1183 H1176 0.950 . S
C1183 C1180 1.387 . S
C1184 C1185 1.387 . S
C1184 H1188 0.950 . S
C1184 C1193 1.390 . S
C1185 C1184 1.387 . S
C1185 C1187 1.387 . S
H1186 C1193 0.950 . S
C1187 C1185 1.387 . S
C1187 C1189 1.390 . S
C1187 H1191 0.950 . S
H1188 C1184 0.950 . S
C1189 C1187 1.390 . S
C1189 C1190 1.387 . S
C1189 H1192 0.950 . S
C1190 C1189 1.387 . S
C1190 C1193 1.387 . S
H1191 C1187 0.950 . S
H1192 C1189 0.950 . S
C1193 C1184 1.390 . S
C1193 H1186 0.950 . S
C1193 C1190 1.387 . S
C1194 C1195 1.387 1_545 S
C1194 H1198 0.950 . S
C1194 C1203 1.390 . S
C1195 C1194 1.387 1_565 S
C1195 C1197 1.387 1_565 S
H1196 C1203 0.950 . S
C1197 C1195 1.387 1_545 S
C1197 C1199 1.390 . S
C1197 H1201 0.950 1_545 S
H1198 C1194 0.950 . S
C1199 C1197 1.390 . S
C1199 C1200 1.387 . S
C1199 H1202 0.950 . S
C1200 C1199 1.387 . S
C1200 C1203 1.387 . S
H1201 C1197 0.950 1_565 S
H1202 C1199 0.950 . S
C1203 C1194 1.390 . S
C1203 H1196 0.950 . S
C1203 C1200 1.387 . S
C1204 C1205 1.387 . S
C1204 H1208 0.950 . S
C1204 C1213 1.390 1_545 S
C1205 C1204 1.387 . S
C1205 C1207 1.387 1_545 S
H1206 C1213 0.950 . S
C1207 C1205 1.387 1_565 S
C1207 C1209 1.390 . S
C1207 H1211 0.950 . S
H1208 C1204 0.950 . S
C1209 C1207 1.390 . S
C1209 C1210 1.387 . S
C1209 H1212 0.950 . S
C1210 C1209 1.387 . S
C1210 C1213 1.387 . S
H1211 C1207 0.950 . S
H1212 C1209 0.950 . S
C1213 C1204 1.390 1_565 S
C1213 H1206 0.950 . S
C1213 C1210 1.387 . S
C1214 C1215 1.387 . S
C1214 H1218 0.950 . S
C1214 C1223 1.390 . S
C1215 C1214 1.387 . S
C1215 C1217 1.387 . S
H1216 C1223 0.950 . S
C1217 C1215 1.387 . S
C1217 C1219 1.390 . S
C1217 H1221 0.950 . S
H1218 C1214 0.950 . S
C1219 C1217 1.390 . S
C1219 C1220 1.387 . S
C1219 H1222 0.950 . S
C1220 C1219 1.387 . S
C1220 C1223 1.387 . S
H1221 C1217 0.950 . S
H1222 C1219 0.950 . S
C1223 C1214 1.390 . S
C1223 H1216 0.950 . S
C1223 C1220 1.387 . S
C1224 C1225 1.387 . S
C1224 H1228 0.950 . S
C1224 C1233 1.390 . S
C1225 C1224 1.387 . S
C1225 C1227 1.387 . S
H1226 C1233 0.950 . S
C1227 C1225 1.387 . S
C1227 C1229 1.390 . S
C1227 H1231 0.950 . S
H1228 C1224 0.950 . S
C1229 C1227 1.390 . S
C1229 C1230 1.387 . S
C1229 H1232 0.950 . S
C1230 C1229 1.387 . S
C1230 C1233 1.387 . S
H1231 C1227 0.950 . S
H1232 C1229 0.950 . S
C1233 C1224 1.390 . S
C1233 H1226 0.950 . S
C1233 C1230 1.387 . S
C1234 C1235 1.387 1_554 S
C1234 H1238 0.950 . S
C1234 C1243 1.390 . S
C1235 C1234 1.387 1_556 S
C1235 C1237 1.387 1_556 S
H1236 C1243 0.950 . S
C1237 C1235 1.387 1_554 S
C1237 C1239 1.390 . S
C1237 H1241 0.950 1_554 S
H1238 C1234 0.950 . S
C1239 C1237 1.390 . S
C1239 C1240 1.387 . S
C1239 H1242 0.950 . S
C1240 C1239 1.387 . S
C1240 C1243 1.387 . S
H1241 C1237 0.950 1_556 S
H1242 C1239 0.950 . S
C1243 C1234 1.390 . S
C1243 H1236 0.950 . S
C1243 C1240 1.387 . S
C1244 C1245 1.387 . S
C1244 H1248 0.950 . S
C1244 C1253 1.390 . S
C1245 C1244 1.387 . S
C1245 C1247 1.387 . S
H1246 C1253 0.950 . S
C1247 C1245 1.387 . S
C1247 C1249 1.390 . S
C1247 H1251 0.950 . S
H1248 C1244 0.950 . S
C1249 C1247 1.390 . S
C1249 C1250 1.387 . S
C1249 H1252 0.950 . S
C1250 C1249 1.387 . S
C1250 C1253 1.387 . S
H1251 C1247 0.950 . S
H1252 C1249 0.950 . S
C1253 C1244 1.390 . S
C1253 H1246 0.950 . S
C1253 C1250 1.387 . S
C1254 C1255 1.387 1_556 S
C1254 H1258 0.950 1_556 S
C1254 C1263 1.390 . S
C1255 C1254 1.387 1_554 S
C1255 C1257 1.387 1_554 S
H1256 C1263 0.950 . S
C1257 C1255 1.387 1_556 S
C1257 C1259 1.390 . S
C1257 H1261 0.950 1_556 S
H1258 C1254 0.950 1_554 S
C1259 C1257 1.390 . S
C1259 C1260 1.387 . S
C1259 H1262 0.950 . S
C1260 C1259 1.387 . S
C1260 C1263 1.387 . S
H1261 C1257 0.950 1_554 S
H1262 C1259 0.950 . S
C1263 C1254 1.390 . S
C1263 H1256 0.950 . S
C1263 C1260 1.387 . S
C1264 C1265 1.387 . S
C1264 H1268 0.950 . S
C1264 C1273 1.390 . S
C1265 C1264 1.387 . S
C1265 C1267 1.387 . S
H1266 C1273 0.950 . S
C1267 C1265 1.387 . S
C1267 C1269 1.390 . S
C1267 H1271 0.950 . S
H1268 C1264 0.950 . S
C1269 C1267 1.390 . S
C1269 C1270 1.387 . S
C1269 H1272 0.950 . S
C1270 C1269 1.387 . S
C1270 C1273 1.387 . S
H1271 C1267 0.950 . S
H1272 C1269 0.950 . S
C1273 C1264 1.390 . S
C1273 H1266 0.950 . S
C1273 C1270 1.387 . S
C1274 C1275 1.387 . S
C1274 H1278 0.950 . S
C1274 C1283 1.390 . S
C1275 C1274 1.387 . S
C1275 C1277 1.387 . S
H1276 C1283 0.950 1_455 S
C1277 C1275 1.387 . S
C1277 C1279 1.390 . S
C1277 H1281 0.950 . S
H1278 C1274 0.950 . S
C1279 C1277 1.390 . S
C1279 C1280 1.387 1_655 S
C1279 H1282 0.950 1_655 S
C1280 C1279 1.387 1_455 S
C1280 C1283 1.387 1_455 S
H1281 C1277 0.950 . S
H1282 C1279 0.950 1_455 S
C1283 C1274 1.390 . S
C1283 H1276 0.950 1_655 S
C1283 C1280 1.387 1_655 S
C1284 C1285 1.387 . S
C1284 H1288 0.950 . S
C1284 C1293 1.390 . S
C1285 C1284 1.387 . S
C1285 C1287 1.387 . S
H1286 C1293 0.950 1_655 S
C1287 C1285 1.387 . S
C1287 C1289 1.390 . S
C1287 H1291 0.950 . S
H1288 C1284 0.950 . S
C1289 C1287 1.390 . S
C1289 C1290 1.387 1_455 S
C1289 H1292 0.950 1_455 S
C1290 C1289 1.387 1_655 S
C1290 C1293 1.387 1_655 S
H1291 C1287 0.950 . S
H1292 C1289 0.950 1_655 S
C1293 C1284 1.390 . S
C1293 H1286 0.950 1_455 S
C1293 C1290 1.387 1_455 S
C1294 C1295 1.387 . S
C1294 H1298 0.950 . S
C1294 C1303 1.390 . S
C1295 C1294 1.387 . S
C1295 C1297 1.387 . S
H1296 C1303 0.950 . S
C1297 C1295 1.387 . S
C1297 C1299 1.390 . S
C1297 H1301 0.950 . S
H1298 C1294 0.950 . S
C1299 C1297 1.390 . S
C1299 C1300 1.387 . S
C1299 H1302 0.950 . S
C1300 C1299 1.387 . S
C1300 C1303 1.387 . S
H1301 C1297 0.950 . S
H1302 C1299 0.950 . S
C1303 C1294 1.390 . S
C1303 H1296 0.950 . S
C1303 C1300 1.387 . S
C1304 C1305 1.387 . S
C1304 H1308 0.950 . S
C1304 C1313 1.390 . S
C1305 C1304 1.387 . S
C1305 C1307 1.387 . S
H1306 C1313 0.950 . S
C1307 C1305 1.387 . S
C1307 C1309 1.390 . S
C1307 H1311 0.950 . S
H1308 C1304 0.950 . S
C1309 C1307 1.390 . S
C1309 C1310 1.387 . S
C1309 H1312 0.950 . S
C1310 C1309 1.387 . S
C1310 C1313 1.387 . S
H1311 C1307 0.950 . S
H1312 C1309 0.950 . S
C1313 C1304 1.390 . S
C1313 H1306 0.950 . S
C1313 C1310 1.387 . S
C1314 C1315 1.387 . S
C1314 H1318 0.950 . S
C1314 C1323 1.390 . S
C1315 C1314 1.387 . S
C1315 C1317 1.387 . S
H1316 C1323 0.950 1_545 S
C1317 C1315 1.387 . S
C1317 C1319 1.390 1_565 S
C1317 H1321 0.950 . S
H1318 C1314 0.950 . S
C1319 C1317 1.390 1_545 S
C1319 C1320 1.387 . S
C1319 H1322 0.950 . S
C1320 C1319 1.387 . S
C1320 C1323 1.387 1_545 S
H1321 C1317 0.950 . S
H1322 C1319 0.950 . S
C1323 C1314 1.390 . S
C1323 H1316 0.950 1_565 S
C1323 C1320 1.387 1_565 S
C1324 C1325 1.387 1_545 S
C1324 H1328 0.950 . S
C1324 C1333 1.390 . S
C1325 C1324 1.387 1_565 S
C1325 C1327 1.387 . S
H1326 C1333 0.950 . S
C1327 C1325 1.387 . S
C1327 C1329 1.390 1_565 S
C1327 H1331 0.950 . S
H1328 C1324 0.950 . S
C1329 C1327 1.390 1_545 S
C1329 C1330 1.387 . S
C1329 H1332 0.950 . S
C1330 C1329 1.387 . S
C1330 C1333 1.387 . S
H1331 C1327 0.950 . S
H1332 C1329 0.950 . S
C1333 C1324 1.390 . S
C1333 H1326 0.950 . S
C1333 C1330 1.387 . S
C1334 C1335 1.387 . S
C1334 H1338 0.950 . S
C1334 C1343 1.390 . S
C1335 C1334 1.387 . S
C1335 C1337 1.387 . S
H1336 C1343 0.950 . S
C1337 C1335 1.387 . S
C1337 C1339 1.390 . S
C1337 H1341 0.950 . S
H1338 C1334 0.950 . S
C1339 C1337 1.390 . S
C1339 C1340 1.387 . S
C1339 H1342 0.950 . S
C1340 C1339 1.387 . S
C1340 C1343 1.387 . S
H1341 C1337 0.950 . S
H1342 C1339 0.950 . S
C1343 C1334 1.390 . S
C1343 H1336 0.950 . S
C1343 C1340 1.387 . S
C865 C291 1.186 . S
C870 C3 1.168 . S
C875 C39 1.165 . S
C880 C399 1.187 . S
C885 C75 1.166 . S
C890 C327 1.186 . S
C895 C111 1.165 . S
C900 C363 1.187 . S
C905 C147 1.208 . S
C910 C2 1.170 . S
C915 C38 1.167 . S
C920 C183 1.210 . S
C925 C219 1.211 . S
C930 C74 1.169 . S
C935 C110 1.168 . S
C940 C255 1.208 . S
C945 C146 1.257 . S
C950 C290 1.221 . S
C955 C218 1.258 . S
C960 C326 1.223 . S
C965 C362 1.219 . S
C970 C254 1.257 . S
C975 C182 1.257 . S
C980 C398 1.219 . S
C985 C722 1.184 . S
C990 C435 1.203 . S
C995 C471 1.204 . S
C1000 C830 1.188 . S
C1005 C507 1.205 . S
C1010 C758 1.186 . S
C1015 C794 1.188 . S
C1020 C543 1.204 . S
C1025 C579 1.221 . S
C1030 C434 1.205 . S
C1035 C470 1.205 . S
C1040 C615 1.221 . S
C1045 C506 1.205 . S
C1050 C651 1.221 . S
C1055 C687 1.220 . S
C1060 C542 1.205 . S
C1065 C723 1.214 . S
C1070 C578 1.194 . S
C1075 C650 1.194 . S
C1080 C759 1.214 . S
C1085 C686 1.194 . S
C1090 C795 1.214 . S
C1095 C831 1.211 . S
C1100 C614 1.192 . S
C1105 C806 1.380 . S
C1110 C4 1.386 . S
C1115 C770 1.383 . S
C1120 C40 1.386 . S
C1125 C842 1.382 . S
C1130 C76 1.387 . S
C1135 C112 1.387 . S
C1140 C734 1.382 . S
C1145 C148 1.404 . S
C1150 C482 1.394 . S
C1155 C446 1.395 . S
C1160 C184 1.405 . S
C1165 C554 1.394 . S
C1170 C220 1.405 . S
C1175 C518 1.395 . S
C1180 C256 1.405 . S
C1185 C302 1.400 . S
C1190 C662 1.391 . S
C1195 C590 1.390 . S
C1200 C338 1.401 . S
C1205 C626 1.389 . S
C1210 C374 1.401 . S
C1215 C698 1.389 . S
C1220 C410 1.401 . S
C1225 C364 1.451 . S
C1230 C436 1.433 . S
C1235 C328 1.452 . S
C1240 C472 1.432 . S
C1245 C508 1.432 . S
C1250 C400 1.452 . S
C1255 C292 1.452 . S
C1260 C544 1.432 . S
C1265 C580 1.410 . S
C1270 C50 1.410 . S
C1275 C616 1.410 . S
C1280 C14 1.410 . S
C1285 C652 1.410 . S
C1290 C122 1.411 . S
C1295 C688 1.412 . S
C1300 C86 1.411 . S
C1305 C724 1.410 . S
C1310 C230 1.404 . S
C1315 C760 1.409 . S
C1320 C158 1.404 . S
C1325 C194 1.404 . S
C1330 C796 1.410 . S
C1335 C832 1.408 . S
C1340 C266 1.406 . S
