# Generated by pormake.
# Topology una, (4)-cn, num edge types: 1
# Building blocks:
#     Node 0, Type 0, BuildingBlock: UXUYUI_clean_sbu_0, # of connection points: 4
#     Node 1, Type 0, BuildingBlock: UXUYUI_clean_sbu_0, # of connection points: 4
#     Node 2, Type 0, BuildingBlock: UXUYUI_clean_sbu_0, # of connection points: 4
#     Node 3, Type 0, BuildingBlock: UXUYUI_clean_sbu_0, # of connection points: 4
#     Node 4, Type 0, BuildingBlock: UXUYUI_clean_sbu_0, # of connection points: 4
#     Node 5, Type 0, BuildingBlock: UXUYUI_clean_sbu_0, # of connection points: 4
#     Node 6, Type 0, BuildingBlock: UXUYUI_clean_sbu_0, # of connection points: 4
#     Node 7, Type 0, BuildingBlock: UXUYUI_clean_sbu_0, # of connection points: 4
#     Node 8, Type 0, BuildingBlock: UXUYUI_clean_sbu_0, # of connection points: 4
#     Node 9, Type 0, BuildingBlock: UXUYUI_clean_sbu_0, # of connection points: 4
#     Node 10, Type 0, BuildingBlock: UXUYUI_clean_sbu_0, # of connection points: 4
#     Node 11, Type 0, BuildingBlock: UXUYUI_clean_sbu_0, # of connection points: 4
#     Edge 12, Type (0, 0), BuildingBlock: MIFKUJ_clean_linker_0, # of connection points: 2
#     Edge 13, Type (0, 0), BuildingBlock: MIFKUJ_clean_linker_0, # of connection points: 2
#     Edge 14, Type (0, 0), BuildingBlock: MIFKUJ_clean_linker_0, # of connection points: 2
#     Edge 15, Type (0, 0), BuildingBlock: MIFKUJ_clean_linker_0, # of connection points: 2
#     Edge 16, Type (0, 0), BuildingBlock: MIFKUJ_clean_linker_0, # of connection points: 2
#     Edge 17, Type (0, 0), BuildingBlock: MIFKUJ_clean_linker_0, # of connection points: 2
#     Edge 18, Type (0, 0), BuildingBlock: MIFKUJ_clean_linker_0, # of connection points: 2
#     Edge 19, Type (0, 0), BuildingBlock: MIFKUJ_clean_linker_0, # of connection points: 2
#     Edge 20, Type (0, 0), BuildingBlock: MIFKUJ_clean_linker_0, # of connection points: 2
#     Edge 21, Type (0, 0), BuildingBlock: MIFKUJ_clean_linker_0, # of connection points: 2
#     Edge 22, Type (0, 0), BuildingBlock: MIFKUJ_clean_linker_0, # of connection points: 2
#     Edge 23, Type (0, 0), BuildingBlock: MIFKUJ_clean_linker_0, # of connection points: 2
#     Edge 24, Type (0, 0), BuildingBlock: MIFKUJ_clean_linker_0, # of connection points: 2
#     Edge 25, Type (0, 0), BuildingBlock: MIFKUJ_clean_linker_0, # of connection points: 2
#     Edge 26, Type (0, 0), BuildingBlock: MIFKUJ_clean_linker_0, # of connection points: 2
#     Edge 27, Type (0, 0), BuildingBlock: MIFKUJ_clean_linker_0, # of connection points: 2
#     Edge 28, Type (0, 0), BuildingBlock: MIFKUJ_clean_linker_0, # of connection points: 2
#     Edge 29, Type (0, 0), BuildingBlock: MIFKUJ_clean_linker_0, # of connection points: 2
#     Edge 30, Type (0, 0), BuildingBlock: MIFKUJ_clean_linker_0, # of connection points: 2
#     Edge 31, Type (0, 0), BuildingBlock: MIFKUJ_clean_linker_0, # of connection points: 2
#     Edge 32, Type (0, 0), BuildingBlock: MIFKUJ_clean_linker_0, # of connection points: 2
#     Edge 33, Type (0, 0), BuildingBlock: MIFKUJ_clean_linker_0, # of connection points: 2
#     Edge 34, Type (0, 0), BuildingBlock: MIFKUJ_clean_linker_0, # of connection points: 2
#     Edge 35, Type (0, 0), BuildingBlock: MIFKUJ_clean_linker_0, # of connection points: 2
# Relax obj value: 0.208
# Max RMSD: 0.213
# Mean RMSD: 0.213
data_MOF--net-una--node1-UXUYUI_clean_sbu_0--edge1-MIFKUJ_clean_linker_0
_symmetry_space_group_name_H-M    P1
_symmetry_Int_Tables_number       1
_symmetry_cell_setting            triclinic
loop_
_symmetry_equiv_pos_as_xyz
'x, y, z'
_cell_length_a     99.368863
_cell_length_b     99.411625
_cell_length_c     38.670182
_cell_angle_alpha  89.993134
_cell_angle_beta   89.994693
_cell_angle_gamma 119.98512
loop_
_atom_site_label
_atom_site_type_symbol
_atom_site_fract_x
_atom_site_fract_y
_atom_site_fract_z
_atom_type_partial_charge
Li0 Li 0.12607 0.44458 0.05309 0.0
Li1 Li 0.12904 0.42329 0.07279 0.0
Li2 Li 0.13587 0.43277 0.01398 0.0
Li3 Li 0.10824 0.41746 0.03202 0.0
C4 C 0.15505 0.4576 0.07316 0.0
N5 N 0.17359 0.48555 0.10628 0.0
C6 C 0.15804 0.45789 0.10856 0.0
C7 C 0.16153 0.47153 0.05459 0.0
C8 C 0.16745 0.47214 0.12482 0.0
C9 C 0.17085 0.48553 0.07182 0.0
C10 C 0.1016 0.41794 0.10699 0.0
C11 C 0.08201 0.39392 0.13254 0.0
N12 N 0.08298 0.40161 0.16235 0.0
C13 C 0.10233 0.42562 0.13781 0.0
C14 C 0.0913 0.40197 0.10424 0.0
C15 C 0.09285 0.41715 0.16554 0.0
C16 C 0.1242 0.47158 0.04101 0.0
N17 N 0.1267 0.46338 0.06577 0.0
C18 C 0.13031 0.48221 0.10861 0.0
C19 C 0.12958 0.46832 0.09914 0.0
C20 C 0.12796 0.49104 0.08349 0.0
C21 C 0.12483 0.48554 0.04931 0.0
H22 H 0.12164 0.46725 0.01483 0.0
H23 H 0.13147 0.46154 0.11834 0.0
C24 C 0.15083 0.41803 0.10307 0.0
N25 N 0.13634 0.41565 0.10936 0.0
C26 C 0.15817 0.41341 0.12701 0.0
C27 C 0.13573 0.40426 0.16422 0.0
C28 C 0.12866 0.40879 0.13913 0.0
C29 C 0.15067 0.40658 0.15816 0.0
H30 H 0.15677 0.42372 0.07944 0.0
H31 H 0.11719 0.40695 0.14382 0.0
C32 C 0.12098 0.44098 0.97105 0.0
N33 N 0.12608 0.44783 0.90136 0.0
C34 C 0.11155 0.43 0.94644 0.0
C35 C 0.13298 0.45547 0.9602 0.0
C36 C 0.1143 0.43369 0.91133 0.0
C37 C 0.13539 0.45869 0.92485 0.0
C38 C 0.12767 0.39978 0.03669 0.0
C39 C 0.1417 0.40139 0.02488 0.0
C40 C 0.11783 0.38702 0.05719 0.0
C41 C 0.14572 0.39026 0.03409 0.0
C42 C 0.12228 0.37616 0.06589 0.0
N43 N 0.13602 0.37799 0.05427 0.0
C44 C 0.16435 0.44814 0.97747 0.0
C45 C 0.14404 0.4262 0.94922 0.0
C46 C 0.17438 0.4507 0.94983 0.0
N47 N 0.1495 0.43612 0.97653 0.0
C48 C 0.15365 0.42835 0.92099 0.0
C49 C 0.16904 0.44074 0.92108 0.0
H50 H 0.16843 0.45571 -0.0003 0.0
H51 H 0.13223 0.4166 0.9495 0.0
C52 C 0.07886 0.40978 0.00839 0.0
N53 N 0.08814 0.40372 0.01546 0.0
C54 C 0.06488 0.40093 0.99087 0.0
C55 C 0.06989 0.37949 0.99005 0.0
C56 C 0.08389 0.38885 0.00718 0.0
C57 C 0.06036 0.38565 0.98079 0.0
H58 H 0.08274 0.42177 0.01481 0.0
H59 H 0.09163 0.38443 0.01279 0.0
O60 O 0.14573 0.44379 0.05681 0.0
O61 O 0.11069 0.4261 0.07951 0.0
O62 O 0.11869 0.43748 0.00555 0.0
O63 O 0.12369 0.41074 0.02853 0.0
H64 H 0.15302 0.44727 0.12345 0.0
H65 H 0.15922 0.47155 0.02727 0.0
H66 H 0.16981 0.47254 0.15222 0.0
H67 H 0.17585 0.4964 0.05781 0.0
H68 H 0.07404 0.38155 0.1308 0.0
H69 H 0.11014 0.43797 0.14036 0.0
H70 H 0.09052 0.39584 0.08064 0.0
H71 H 0.09333 0.42294 0.18958 0.0
H72 H 0.13289 0.48609 0.1352 0.0
H73 H 0.12266 0.49183 0.02928 0.0
H74 H 0.16982 0.41565 0.12174 0.0
H75 H 0.12965 0.39906 0.18811 0.0
H76 H 0.10231 0.41867 0.95427 0.0
H77 H 0.1405 0.46406 0.97886 0.0
H78 H 0.10713 0.42527 0.89201 0.0
H79 H 0.1447 0.46982 0.9161 0.0
H80 H 0.14951 0.41122 0.00917 0.0
H81 H 0.10696 0.3856 0.06666 0.0
H82 H 0.15658 0.39141 0.02531 0.0
H83 H 0.11483 0.36629 0.08195 0.0
H84 H 0.18613 0.46045 0.95083 0.0
H85 H 0.14915 0.42024 0.89961 0.0
H86 H 0.05812 0.40632 0.98378 0.0
H87 H 0.06679 0.36772 0.9833 0.0
Li88 Li 0.68227 0.13237 0.21738 0.0
Li89 Li 0.70735 0.13548 0.23822 0.0
Li90 Li 0.70584 0.14428 0.18143 0.0
Li91 Li 0.69313 0.11765 0.19378 0.0
C92 C 0.70818 0.16717 0.21876 0.0
N93 N 0.72051 0.19797 0.2003 0.0
C94 C 0.72208 0.17854 0.23353 0.0
C95 C 0.70047 0.17148 0.19484 0.0
C96 C 0.72814 0.19405 0.22381 0.0
C97 C 0.70691 0.18711 0.18577 0.0
C98 C 0.68034 0.11484 0.27468 0.0
C99 C 0.66722 0.09835 0.32354 0.0
N100 N 0.66881 0.11089 0.34123 0.0
C101 C 0.68183 0.12757 0.29335 0.0
C102 C 0.67295 0.10011 0.28985 0.0
C103 C 0.67593 0.12533 0.32695 0.0
C104 C 0.65039 0.11805 0.23159 0.0
N105 N 0.66367 0.13206 0.23007 0.0
C106 C 0.64991 0.14511 0.24596 0.0
C107 C 0.66374 0.14544 0.23765 0.0
C108 C 0.63594 0.13084 0.24691 0.0
C109 C 0.63631 0.11716 0.24 0.0
H110 H 0.65076 0.10757 0.22611 0.0
H111 H 0.67451 0.15637 0.23733 0.0
C112 C 0.7361 0.15206 0.26867 0.0
N113 N 0.72156 0.14018 0.27536 0.0
C114 C 0.74771 0.15693 0.29367 0.0
C115 C 0.72931 0.13683 0.3317 0.0
C116 C 0.71808 0.13226 0.30578 0.0
C117 C 0.74428 0.14943 0.32588 0.0
H118 H 0.73863 0.15786 0.24386 0.0
H119 H 0.70666 0.12243 0.31014 0.0
C120 C 0.67777 0.1193 0.14075 0.0
N121 N 0.66442 0.09864 0.08664 0.0
C122 C 0.68666 0.12025 0.11185 0.0
C123 C 0.66206 0.10794 0.14198 0.0
C124 C 0.6797 0.10968 0.08479 0.0
C125 C 0.65553 0.09757 0.11441 0.0
C126 C 0.72364 0.12465 0.20205 0.0
C127 C 0.73796 0.12936 0.18627 0.0
C128 C 0.71763 0.1123 0.22555 0.0
C129 C 0.74605 0.12161 0.19419 0.0
C130 C 0.72607 0.10486 0.2328 0.0
N131 N 0.73998 0.10962 0.2171 0.0
C132 C 0.73309 0.16856 0.15338 0.0
C133 C 0.71052 0.16177 0.12015 0.0
C134 C 0.74236 0.17986 0.12928 0.0
N135 N 0.71753 0.15976 0.14825 0.0
C136 C 0.71936 0.17283 0.0952 0.0
C137 C 0.73554 0.18198 0.09943 0.0
H138 H 0.73827 0.16673 0.17619 0.0
H139 H 0.69808 0.15466 0.11696 0.0
C140 C 0.67418 0.08533 0.18471 0.0
N141 N 0.68756 0.09805 0.17443 0.0
C142 C 0.66907 0.0711 0.16824 0.0
C143 C 0.69185 0.08332 0.13164 0.0
C144 C 0.69654 0.09727 0.14888 0.0
C145 C 0.67783 0.07008 0.14092 0.0
H146 H 0.66723 0.08639 0.20492 0.0
H147 H 0.70707 0.10763 0.14108 0.0
O148 O 0.70224 0.15187 0.22727 0.0
O149 O 0.6858 0.11657 0.24155 0.0
O150 O 0.68448 0.12929 0.16792 0.0
O151 O 0.71572 0.13229 0.19458 0.0
H152 H 0.72812 0.17545 0.25234 0.0
H153 H 0.68976 0.1628 0.18289 0.0
H154 H 0.73893 0.20296 0.23496 0.0
H155 H 0.70114 0.19058 0.16705 0.0
H156 H 0.66149 0.08702 0.3356 0.0
H157 H 0.68749 0.13907 0.2822 0.0
H158 H 0.67166 0.09013 0.27571 0.0
H159 H 0.67702 0.13507 0.34169 0.0
H160 H 0.65016 0.15589 0.2518 0.0
H161 H 0.62579 0.10593 0.24038 0.0
H162 H 0.75909 0.16675 0.28822 0.0
H163 H 0.72631 0.13061 0.35605 0.0
H164 H 0.69888 0.12884 0.11065 0.0
H165 H 0.65501 0.10704 0.1641 0.0
H166 H 0.68647 0.11018 0.06242 0.0
H167 H 0.64341 0.08865 0.11513 0.0
H168 H 0.74278 0.13893 0.16809 0.0
H169 H 0.70659 0.10849 0.23814 0.0
H170 H 0.75715 0.12513 0.18215 0.0
H171 H 0.72156 0.09529 0.25092 0.0
H172 H 0.75472 0.18683 0.13397 0.0
H173 H 0.71361 0.17391 0.07246 0.0
H174 H 0.65811 0.06118 0.17589 0.0
H175 H 0.699 0.08296 0.11092 0.0
Li176 Li 0.57196 0.7052 0.40742 0.0
Li177 Li 0.55142 0.68007 0.38711 0.0
Li178 Li 0.57882 0.69099 0.36529 0.0
Li179 Li 0.56219 0.70135 0.34695 0.0
C180 C 0.57699 0.68238 0.44201 0.0
N181 N 0.58984 0.67726 0.50044 0.0
C182 C 0.56784 0.67555 0.47132 0.0
C183 C 0.59258 0.68625 0.44217 0.0
C184 C 0.57458 0.67317 0.50068 0.0
C185 C 0.59889 0.68367 0.47201 0.0
C186 C 0.53664 0.69541 0.40356 0.0
C187 C 0.50875 0.68201 0.39765 0.0
N188 N 0.50752 0.68586 0.43078 0.0
C189 C 0.53511 0.69934 0.43746 0.0
C190 C 0.52337 0.68679 0.38338 0.0
C191 C 0.52028 0.69437 0.45077 0.0
C192 C 0.58686 0.73498 0.43593 0.0
N193 N 0.57908 0.71966 0.44454 0.0
C194 C 0.57923 0.72596 0.50421 0.0
C195 C 0.5753 0.71499 0.47792 0.0
C196 C 0.5872 0.74182 0.49592 0.0
C197 C 0.59127 0.74631 0.46141 0.0
H198 H 0.58917 0.73841 0.40911 0.0
H199 H 0.56861 0.70278 0.48398 0.0
C200 C 0.52706 0.64951 0.37684 0.0
N201 N 0.53322 0.66135 0.40006 0.0
C202 C 0.51355 0.63565 0.38481 0.0
C203 C 0.51304 0.64638 0.44058 0.0
C204 C 0.52662 0.65999 0.43161 0.0
C205 C 0.50633 0.63399 0.41698 0.0
H206 H 0.53262 0.65085 0.35206 0.0
H207 H 0.53183 0.66952 0.44974 0.0
C208 C 0.59946 0.7238 0.36468 0.0
N209 N 0.63072 0.7457 0.36717 0.0
C210 C 0.60625 0.73477 0.33823 0.0
C211 C 0.60854 0.72409 0.39257 0.0
C212 C 0.62208 0.74571 0.3399 0.0
C213 C 0.62433 0.73522 0.39333 0.0
C214 C 0.55507 0.6778 0.30515 0.0
C215 C 0.56628 0.67984 0.28065 0.0
C216 C 0.54005 0.6736 0.29431 0.0
C217 C 0.56232 0.67783 0.24561 0.0
C218 C 0.53656 0.67173 0.25903 0.0
N219 N 0.54768 0.67388 0.23561 0.0
C220 C 0.58968 0.6705 0.35334 0.0
C221 C 0.60604 0.69567 0.33039 0.0
C222 C 0.59837 0.66488 0.33683 0.0
N223 N 0.59347 0.68557 0.34927 0.0
C224 C 0.61515 0.6906 0.31379 0.0
C225 C 0.61107 0.67494 0.31613 0.0
H226 H 0.57945 0.66269 0.36806 0.0
H227 H 0.60853 0.70742 0.32638 0.0
C228 C 0.54636 0.71378 0.30907 0.0
N229 N 0.55841 0.71097 0.30889 0.0
C230 C 0.54406 0.72129 0.2811 0.0
C231 C 0.5666 0.72279 0.25339 0.0
C232 C 0.56845 0.71529 0.28186 0.0
C233 C 0.55435 0.72601 0.25288 0.0
H234 H 0.53868 0.71042 0.33113 0.0
H235 H 0.57798 0.71296 0.28257 0.0
O236 O 0.57049 0.68453 0.41281 0.0
O237 O 0.55106 0.70004 0.39021 0.0
O238 O 0.58398 0.71298 0.3633 0.0
O239 O 0.55879 0.67999 0.33955 0.0
H240 H 0.5557 0.67225 0.47153 0.0
H241 H 0.59974 0.69105 0.41942 0.0
H242 H 0.56766 0.66804 0.52364 0.0
H243 H 0.61097 0.68668 0.47252 0.0
H244 H 0.49838 0.67523 0.38239 0.0
H245 H 0.54524 0.70612 0.45336 0.0
H246 H 0.52434 0.68368 0.35709 0.0
H247 H 0.51892 0.69727 0.47702 0.0
H248 H 0.57575 0.7221 0.53058 0.0
H249 H 0.59708 0.75844 0.45398 0.0
H250 H 0.50868 0.62643 0.36578 0.0
H251 H 0.50794 0.64549 0.46582 0.0
H252 H 0.59937 0.73481 0.31659 0.0
H253 H 0.60341 0.71599 0.41366 0.0
H254 H 0.6275 0.75422 0.31954 0.0
H255 H 0.63148 0.73558 0.41479 0.0
H256 H 0.57794 0.68308 0.2885 0.0
H257 H 0.5312 0.67187 0.3129 0.0
H258 H 0.57091 0.67946 0.22636 0.0
H259 H 0.52501 0.66857 0.25027 0.0
H260 H 0.59488 0.65271 0.33918 0.0
H261 H 0.62466 0.69862 0.29746 0.0
H262 H 0.53461 0.72375 0.28197 0.0
H263 H 0.57468 0.72606 0.23202 0.0
Li264 Li 0.86667 0.54958 0.54523 0.0
Li265 Li 0.86236 0.57019 0.56702 0.0
Li266 Li 0.85526 0.56204 0.50914 0.0
Li267 Li 0.88223 0.57603 0.52619 0.0
C268 C 0.83232 0.53813 0.53989 0.0
N269 N 0.8037 0.51647 0.51359 0.0
C270 C 0.8187 0.53667 0.55402 0.0
C271 C 0.83136 0.52846 0.51261 0.0
C272 C 0.80435 0.52567 0.54032 0.0
C273 C 0.81679 0.51762 0.49961 0.0
C274 C 0.882 0.56339 0.60598 0.0
C275 C 0.89695 0.56443 0.65607 0.0
N276 N 0.88368 0.55374 0.67206 0.0
C277 C 0.8685 0.55239 0.6229 0.0
C278 C 0.89634 0.56944 0.62265 0.0
C279 C 0.8696 0.54767 0.6563 0.0
C280 C 0.88144 0.53248 0.55886 0.0
N281 N 0.86725 0.5313 0.55651 0.0
C282 C 0.85469 0.50441 0.57137 0.0
C283 C 0.854 0.51771 0.56309 0.0
C284 C 0.86918 0.50516 0.57359 0.0
C285 C 0.88269 0.51951 0.56745 0.0
H286 H 0.8918 0.54355 0.55428 0.0
H287 H 0.84288 0.51715 0.56204 0.0
C288 C 0.84187 0.57633 0.60249 0.0
N289 N 0.85616 0.57781 0.60521 0.0
C290 C 0.83617 0.58166 0.6288 0.0
C291 C 0.86025 0.59041 0.65992 0.0
C292 C 0.8655 0.58492 0.63286 0.0
C293 C 0.84534 0.5887 0.65816 0.0
H294 H 0.83495 0.57109 0.57963 0.0
H295 H 0.87705 0.58644 0.63386 0.0
C296 C 0.88186 0.56049 0.4708 0.0
N297 N 0.90397 0.56923 0.41934 0.0
C298 C 0.88319 0.57112 0.44546 0.0
C299 C 0.89166 0.55418 0.46976 0.0
C300 C 0.89448 0.57543 0.41972 0.0
C301 C 0.90278 0.55877 0.44356 0.0
C302 C 0.86942 0.59696 0.53938 0.0
C303 C 0.85823 0.60138 0.5346 0.0
C304 C 0.88252 0.60615 0.55964 0.0
C305 C 0.86029 0.61492 0.55042 0.0
C306 C 0.88415 0.61961 0.575 0.0
N307 N 0.87309 0.62367 0.57013 0.0
C308 C 0.8295 0.56266 0.48213 0.0
C309 C 0.84112 0.55312 0.44294 0.0
C310 C 0.81843 0.56074 0.45752 0.0
N311 N 0.8406 0.55898 0.47433 0.0
C312 C 0.83032 0.55108 0.41746 0.0
C313 C 0.81883 0.55502 0.42453 0.0
H314 H 0.82922 0.56699 0.50761 0.0
H315 H 0.84992 0.55004 0.43769 0.0
C316 C 0.91397 0.5872 0.51523 0.0
N317 N 0.90239 0.5905 0.5105 0.0
C318 C 0.92838 0.59635 0.49951 0.0
C319 C 0.91887 0.6126 0.47601 0.0
C320 C 0.9046 0.60303 0.49187 0.0
C321 C 0.93088 0.60909 0.47903 0.0
H322 H 0.91175 0.57701 0.52987 0.0
H323 H 0.89509 0.60524 0.48823 0.0
O324 O 0.84652 0.54913 0.55228 0.0
O325 O 0.88137 0.56817 0.57313 0.0
O326 O 0.87122 0.55651 0.49685 0.0
O327 O 0.8674 0.58349 0.52504 0.0
H328 H 0.81918 0.5439 0.5754 0.0
H329 H 0.84178 0.52945 0.50131 0.0
H330 H 0.79372 0.52445 0.55093 0.0
H331 H 0.81589 0.51015 0.47834 0.0
H332 H 0.90798 0.56902 0.66928 0.0
H333 H 0.85728 0.54752 0.61054 0.0
H334 H 0.9069 0.57792 0.60984 0.0
H335 H 0.85925 0.53919 0.6697 0.0
H336 H 0.84394 0.49362 0.57555 0.0
H337 H 0.89413 0.52077 0.56961 0.0
H338 H 0.82457 0.57999 0.62646 0.0
H339 H 0.86778 0.596 0.68186 0.0
H340 H 0.87579 0.57622 0.4461 0.0
H341 H 0.89075 0.54591 0.4891 0.0
H342 H 0.89576 0.58377 0.40017 0.0
H343 H 0.91051 0.55405 0.44255 0.0
H344 H 0.84803 0.5944 0.51902 0.0
H345 H 0.8912 0.6028 0.56393 0.0
H346 H 0.85169 0.61845 0.54707 0.0
H347 H 0.89417 0.62678 0.59093 0.0
H348 H 0.8096 0.56362 0.46433 0.0
H349 H 0.83114 0.54674 0.39233 0.0
H350 H 0.93719 0.59305 0.50214 0.0
H351 H 0.92034 0.62242 0.46092 0.0
Li352 Li 0.29217 0.86583 0.74104 0.0
Li353 Li 0.31872 0.87162 0.72452 0.0
Li354 Li 0.30738 0.88713 0.70247 0.0
Li355 Li 0.29753 0.86084 0.68357 0.0
C356 C 0.31023 0.89485 0.77196 0.0
N357 N 0.30572 0.91483 0.81363 0.0
C358 C 0.32128 0.9038 0.79689 0.0
C359 C 0.29687 0.89605 0.7682 0.0
C360 C 0.31879 0.91384 0.81772 0.0
C361 C 0.29481 0.90622 0.78951 0.0
C362 C 0.29207 0.83582 0.72025 0.0
C363 C 0.29205 0.8137 0.69455 0.0
N364 N 0.27702 0.80452 0.70452 0.0
C365 C 0.27668 0.82613 0.73057 0.0
C366 C 0.29988 0.82953 0.70241 0.0
C367 C 0.26925 0.81035 0.72226 0.0
C368 C 0.26242 0.8537 0.76961 0.0
N369 N 0.27748 0.85835 0.77708 0.0
C370 C 0.27087 0.84923 0.83506 0.0
C371 C 0.28194 0.85655 0.80911 0.0
C372 C 0.2551 0.8437 0.82774 0.0
C373 C 0.25096 0.84634 0.79476 0.0
H374 H 0.25924 0.85509 0.74371 0.0
H375 H 0.29404 0.86035 0.8141 0.0
C376 C 0.35101 0.88436 0.72834 0.0
N377 N 0.33719 0.87236 0.73914 0.0
C378 C 0.36483 0.88466 0.73648 0.0
C379 C 0.34995 0.86059 0.76792 0.0
C380 C 0.33638 0.86064 0.75877 0.0
C381 C 0.36438 0.87262 0.75633 0.0
H382 H 0.35123 0.89351 0.71275 0.0
H383 H 0.32518 0.85122 0.76681 0.0
C384 C 0.27909 0.87378 0.66861 0.0
N385 N 0.26678 0.87998 0.61069 0.0
C386 C 0.2876 0.87852 0.63782 0.0
C387 C 0.26432 0.87221 0.66989 0.0
C388 C 0.28118 0.88159 0.60885 0.0
C389 C 0.2583 0.8754 0.64035 0.0
C390 C 0.32809 0.87868 0.65142 0.0
C391 C 0.33199 0.88896 0.6236 0.0
C392 C 0.33397 0.86851 0.65277 0.0
C393 C 0.34163 0.88882 0.59748 0.0
C394 C 0.34359 0.86875 0.62617 0.0
N395 N 0.34719 0.8788 0.59929 0.0
C396 C 0.32809 0.9167 0.67974 0.0
C397 C 0.30235 0.91217 0.68436 0.0
C398 C 0.33303 0.93114 0.66466 0.0
N399 N 0.31294 0.90743 0.68837 0.0
C400 C 0.30678 0.92655 0.66922 0.0
C401 C 0.32223 0.93607 0.6585 0.0
H402 H 0.33621 0.91256 0.68334 0.0
H403 H 0.29039 0.90462 0.69185 0.0
C404 C 0.27248 0.8366 0.64985 0.0
N405 N 0.2879 0.84676 0.64577 0.0
C406 C 0.26393 0.8263 0.62346 0.0
C407 C 0.28719 0.83734 0.58854 0.0
C408 C 0.29533 0.84727 0.61585 0.0
C409 C 0.27123 0.82669 0.59204 0.0
H410 H 0.26674 0.83669 0.67354 0.0
H411 H 0.30745 0.85561 0.61252 0.0
O412 O 0.31256 0.88501 0.75138 0.0
O413 O 0.29947 0.85134 0.72775 0.0
O414 O 0.2851 0.87071 0.69747 0.0
O415 O 0.31875 0.87877 0.67731 0.0
H416 H 0.33168 0.903 0.80009 0.0
H417 H 0.28818 0.88923 0.74907 0.0
H418 H 0.32725 0.92084 0.83713 0.0
H419 H 0.28453 0.90727 0.78688 0.0
H420 H 0.29792 0.80871 0.68054 0.0
H421 H 0.27046 0.83075 0.74453 0.0
H422 H 0.31184 0.83679 0.69462 0.0
H423 H 0.2573 0.80275 0.72986 0.0
H424 H 0.27454 0.84754 0.86027 0.0
H425 H 0.23893 0.84206 0.7879 0.0
H426 H 0.37576 0.8942 0.72736 0.0
H427 H 0.34914 0.85104 0.78306 0.0
H428 H 0.29903 0.87983 0.6362 0.0
H429 H 0.25758 0.86864 0.69349 0.0
H430 H 0.28765 0.88526 0.58489 0.0
H431 H 0.24688 0.87424 0.64102 0.0
H432 H 0.32757 0.89693 0.62211 0.0
H433 H 0.33113 0.86052 0.67406 0.0
H434 H 0.3447 0.89668 0.57577 0.0
H435 H 0.3482 0.86093 0.6269 0.0
H436 H 0.34501 0.93801 0.6564 0.0
H437 H 0.29815 0.93002 0.66527 0.0
H438 H 0.25171 0.8182 0.62765 0.0
H439 H 0.29328 0.83835 0.5646 0.0
Li440 Li 0.44746 0.31701 0.88085 0.0
Li441 Li 0.4274 0.29206 0.89804 0.0
Li442 Li 0.4367 0.29483 0.84043 0.0
Li443 Li 0.42052 0.30636 0.85954 0.0
C444 C 0.46347 0.30081 0.87678 0.0
N445 N 0.49352 0.30755 0.86338 0.0
C446 C 0.47081 0.29532 0.89882 0.0
C447 C 0.47141 0.30972 0.84795 0.0
C448 C 0.486 0.29886 0.8916 0.0
C449 C 0.48659 0.313 0.8416 0.0
C450 C 0.43253 0.31685 0.94113 0.0
C451 C 0.43132 0.33017 0.99215 0.0
N452 N 0.44119 0.32653 0.00855 0.0
C453 C 0.44266 0.31324 0.95851 0.0
C454 C 0.4268 0.32538 0.95806 0.0
C455 C 0.4469 0.31824 0.99258 0.0
C456 C 0.46734 0.34926 0.87955 0.0
N457 N 0.46557 0.33585 0.89305 0.0
C458 C 0.49015 0.34963 0.92143 0.0
C459 C 0.4765 0.33581 0.91411 0.0
C460 C 0.49251 0.36363 0.9071 0.0
C461 C 0.48081 0.36337 0.88621 0.0
H462 H 0.45837 0.34894 0.86313 0.0
H463 H 0.4747 0.32504 0.92512 0.0
C464 C 0.42639 0.26805 0.93594 0.0
N465 N 0.4203 0.27759 0.93493 0.0
C466 C 0.42236 0.25726 0.96247 0.0
C467 C 0.40558 0.26608 0.98619 0.0
C468 C 0.40998 0.27677 0.9591 0.0
C469 C 0.41199 0.25631 0.98828 0.0
H470 H 0.43443 0.26888 0.91608 0.0
H471 H 0.40529 0.28451 0.95748 0.0
C472 C 0.44338 0.32316 0.80153 0.0
N473 N 0.44938 0.33763 0.73776 0.0
C474 C 0.4313 0.31925 0.77798 0.0
C475 C 0.45851 0.33453 0.79268 0.0
C476 C 0.43457 0.32666 0.74587 0.0
C477 C 0.46131 0.34168 0.7603 0.0
C478 C 0.40406 0.26984 0.86546 0.0
C479 C 0.40653 0.25738 0.85954 0.0
C480 C 0.3908 0.26742 0.8833 0.0
C481 C 0.39572 0.24266 0.87189 0.0
C482 C 0.38026 0.25252 0.89524 0.0
N483 N 0.38292 0.24056 0.88936 0.0
C484 C 0.44777 0.27652 0.80816 0.0
C485 C 0.43468 0.28519 0.77109 0.0
C486 C 0.44998 0.26863 0.78092 0.0
N487 N 0.44044 0.2848 0.80269 0.0
C488 C 0.43658 0.27744 0.74313 0.0
C489 C 0.44433 0.26901 0.74785 0.0
H490 H 0.45168 0.2758 0.83377 0.0
H491 H 0.42824 0.29117 0.76773 0.0
C492 C 0.4107 0.32728 0.84237 0.0
N493 N 0.40615 0.31194 0.84331 0.0
C494 C 0.40177 0.33229 0.82469 0.0
C495 C 0.38334 0.30552 0.8107 0.0
C496 C 0.39266 0.30104 0.82855 0.0
C497 C 0.3881 0.32137 0.80783 0.0
H498 H 0.42164 0.33566 0.85394 0.0
H499 H 0.38958 0.28896 0.82901 0.0
O500 O 0.44866 0.2976 0.88396 0.0
O501 O 0.42817 0.31214 0.90772 0.0
O502 O 0.44036 0.31631 0.83351 0.0
O503 O 0.41472 0.2844 0.8544 0.0
H504 H 0.46483 0.28847 0.92136 0.0
H505 H 0.4659 0.31395 0.83052 0.0
H506 H 0.49183 0.29471 0.90847 0.0
H507 H 0.49286 0.31987 0.81933 0.0
H508 H 0.42698 0.33678 0.00555 0.0
H509 H 0.4472 0.30663 0.94598 0.0
H510 H 0.41895 0.32827 0.94495 0.0
H511 H 0.45473 0.31552 0.00632 0.0
H512 H 0.49874 0.34936 0.93822 0.0
H513 H 0.4822 0.37388 0.87448 0.0
H514 H 0.42735 0.24974 0.96282 0.0
H515 H 0.3976 0.26573 0.00572 0.0
H516 H 0.41954 0.31043 0.78418 0.0
H517 H 0.46801 0.33786 0.81061 0.0
H518 H 0.42533 0.32368 0.72738 0.0
H519 H 0.47296 0.35047 0.75313 0.0
H520 H 0.41678 0.25909 0.84589 0.0
H521 H 0.3888 0.27699 0.88834 0.0
H522 H 0.39752 0.23292 0.86769 0.0
H523 H 0.37 0.25049 0.90932 0.0
H524 H 0.45601 0.26227 0.78576 0.0
H525 H 0.43163 0.27767 0.71834 0.0
H526 H 0.40575 0.3446 0.82331 0.0
H527 H 0.373 0.29677 0.79768 0.0
Li528 Li 0.57658 0.88404 0.88143 0.0
Li529 Li 0.56155 0.85665 0.88883 0.0
Li530 Li 0.5723 0.86642 0.83351 0.0
Li531 Li 0.55006 0.86898 0.85625 0.0
C532 C 0.59958 0.87641 0.87236 0.0
N533 N 0.63141 0.89208 0.86309 0.0
C534 C 0.60892 0.87273 0.8927 0.0
C535 C 0.60642 0.88805 0.84735 0.0
C536 C 0.625 0.88079 0.88761 0.0
C537 C 0.62253 0.89584 0.84302 0.0
C538 C 0.55835 0.8749 0.94044 0.0
C539 C 0.55169 0.88235 0.99432 0.0
N540 N 0.56297 0.88077 0.01056 0.0
C541 C 0.56987 0.87334 0.95768 0.0
C542 C 0.54917 0.87942 0.95888 0.0
C543 C 0.57202 0.87637 0.99312 0.0
C544 C 0.58837 0.91561 0.89582 0.0
N545 N 0.59029 0.90326 0.90259 0.0
C546 C 0.61015 0.91796 0.94388 0.0
C547 C 0.60101 0.90421 0.9258 0.0
C548 C 0.60821 0.93082 0.938 0.0
C549 C 0.59733 0.92963 0.91323 0.0
H550 H 0.5796 0.91442 0.87755 0.0
H551 H 0.60217 0.89418 0.93107 0.0
C552 C 0.56683 0.83456 0.92095 0.0
N553 N 0.55695 0.84027 0.92022 0.0
C554 C 0.56492 0.82349 0.94552 0.0
C555 C 0.54238 0.82403 0.96742 0.0
C556 C 0.54473 0.8351 0.94234 0.0
C557 C 0.55274 0.81831 0.96962 0.0
H558 H 0.57638 0.83886 0.9028 0.0
H559 H 0.53708 0.8399 0.94109 0.0
C560 C 0.57208 0.89353 0.80479 0.0
N561 N 0.57669 0.9107 0.74524 0.0
C562 C 0.56049 0.88837 0.77955 0.0
C563 C 0.58592 0.90758 0.8 0.0
C564 C 0.56307 0.89716 0.74954 0.0
C565 C 0.58806 0.91604 0.76965 0.0
C566 C 0.54261 0.83454 0.84823 0.0
C567 C 0.54938 0.82553 0.84019 0.0
C568 C 0.52767 0.8275 0.86233 0.0
C569 C 0.5411 0.80958 0.8467 0.0
C570 C 0.51977 0.81151 0.86843 0.0
N571 N 0.52659 0.80296 0.86059 0.0
C572 C 0.59067 0.85699 0.79586 0.0
C573 C 0.57323 0.86122 0.76207 0.0
C574 C 0.59483 0.85144 0.76707 0.0
N575 N 0.58006 0.86177 0.7929 0.0
C576 C 0.57695 0.85563 0.73265 0.0
C577 C 0.5877 0.85041 0.73513 0.0
H578 H 0.59533 0.85667 0.82084 0.0
H579 H 0.56431 0.86435 0.76064 0.0
C580 C 0.52868 0.87935 0.86294 0.0
N581 N 0.53177 0.86936 0.84539 0.0
C582 C 0.51509 0.87975 0.85614 0.0
C583 C 0.5083 0.85975 0.81296 0.0
C584 C 0.52193 0.85962 0.82087 0.0
C585 C 0.50473 0.86988 0.83083 0.0
H586 H 0.53677 0.88696 0.88226 0.0
H587 H 0.52471 0.85176 0.80749 0.0
O588 O 0.58385 0.86874 0.87751 0.0
O589 O 0.55605 0.87211 0.90567 0.0
O590 O 0.56967 0.88524 0.83466 0.0
O591 O 0.5507 0.85022 0.84294 0.0
H592 H 0.60381 0.8638 0.91232 0.0
H593 H 0.59936 0.89093 0.83124 0.0
H594 H 0.63237 0.87808 0.9032 0.0
H595 H 0.62796 0.90485 0.82368 0.0
H596 H 0.54468 0.88587 0.00891 0.0
H597 H 0.5771 0.86986 0.9439 0.0
H598 H 0.5402 0.88067 0.94593 0.0
H599 H 0.58091 0.87522 0.00676 0.0
H600 H 0.6185 0.91845 0.96257 0.0
H601 H 0.59535 0.93923 0.90829 0.0
H602 H 0.57301 0.81919 0.94596 0.0
H603 H 0.53294 0.82045 0.98569 0.0
H604 H 0.54968 0.8776 0.78289 0.0
H605 H 0.5949 0.91196 0.81959 0.0
H606 H 0.55424 0.89323 0.72968 0.0
H607 H 0.59874 0.9269 0.76557 0.0
H608 H 0.56098 0.83084 0.8294 0.0
H609 H 0.52233 0.83436 0.86885 0.0
H610 H 0.54621 0.80246 0.8408 0.0
H611 H 0.50823 0.80591 0.87952 0.0
H612 H 0.60284 0.84713 0.77024 0.0
H613 H 0.5711 0.85488 0.70849 0.0
H614 H 0.5128 0.88781 0.87023 0.0
H615 H 0.50051 0.85186 0.79351 0.0
Li616 Li 0.69837 0.56397 0.05464 0.0
Li617 Li 0.68734 0.5787 0.02975 0.0
Li618 Li 0.67857 0.55226 0.00992 0.0
Li619 Li 0.70436 0.5735 0.99461 0.0
C620 C 0.66906 0.54948 0.08371 0.0
N621 N 0.65426 0.52988 0.13882 0.0
C622 C 0.6637 0.55453 0.11146 0.0
C623 C 0.66678 0.53443 0.08387 0.0
C624 C 0.65628 0.54445 0.13912 0.0
C625 C 0.6593 0.5247 0.11198 0.0
C626 C 0.71539 0.59584 0.06567 0.0
C627 C 0.73641 0.61796 0.09411 0.0
N628 N 0.72689 0.61591 0.12132 0.0
C629 C 0.70582 0.59399 0.09388 0.0
C630 C 0.7308 0.60795 0.06572 0.0
C631 C 0.71184 0.60424 0.12177 0.0
C632 C 0.71849 0.55646 0.08848 0.0
N633 N 0.70724 0.56015 0.09436 0.0
C634 C 0.7104 0.55942 0.15544 0.0
C635 C 0.70308 0.56164 0.12703 0.0
C636 C 0.72208 0.55562 0.15013 0.0
C637 C 0.72604 0.55403 0.11612 0.0
H638 H 0.72175 0.55562 0.06223 0.0
H639 H 0.69428 0.56479 0.13118 0.0
C640 C 0.66593 0.58662 0.05331 0.0
N641 N 0.68057 0.59287 0.04057 0.0
C642 C 0.66086 0.59616 0.06763 0.0
C643 C 0.68569 0.6185 0.05321 0.0
C644 C 0.69033 0.60848 0.03943 0.0
C645 C 0.67093 0.61232 0.06854 0.0
H646 H 0.65848 0.57414 0.05391 0.0
H647 H 0.70197 0.61312 0.02933 0.0
C648 C 0.69879 0.53987 0.00196 0.0
N649 N 0.69914 0.51363 0.97966 0.0
C650 C 0.70265 0.53877 0.96772 0.0
C651 C 0.69539 0.52775 0.02501 0.0
C652 C 0.70268 0.52537 0.9569 0.0
C653 C 0.69554 0.51455 0.01319 0.0
C654 C 0.68571 0.58253 0.95911 0.0
C655 C 0.67449 0.5797 0.934 0.0
C656 C 0.69884 0.59731 0.96176 0.0
C657 C 0.67659 0.59172 0.91191 0.0
C658 C 0.70051 0.60902 0.9392 0.0
N659 N 0.68944 0.60601 0.91494 0.0
C660 C 0.64704 0.52977 0.01064 0.0
C661 C 0.66143 0.52489 0.96864 0.0
C662 C 0.63349 0.51619 0.00156 0.0
N663 N 0.66071 0.53369 0.9947 0.0
C664 C 0.64813 0.51119 0.95864 0.0
C665 C 0.63393 0.50663 0.97537 0.0
H666 H 0.64666 0.53719 0.03057 0.0
H667 H 0.67225 0.52853 0.95536 0.0
C668 C 0.73517 0.58844 0.97433 0.0
N669 N 0.72047 0.58123 0.96164 0.0
C670 C 0.7478 0.59357 0.95198 0.0
C671 C 0.72987 0.58394 0.90382 0.0
C672 C 0.71758 0.57909 0.92715 0.0
C673 C 0.74522 0.59108 0.91624 0.0
H674 H 0.73705 0.58987 0.00194 0.0
H675 H 0.70572 0.57318 0.9179 0.0
O676 O 0.67651 0.55926 0.0566 0.0
O677 O 0.70974 0.58604 0.03786 0.0
O678 O 0.69892 0.553 0.01313 0.0
O679 O 0.68376 0.57084 0.98088 0.0
H680 H 0.66538 0.56615 0.11182 0.0
H681 H 0.67065 0.53028 0.06241 0.0
H682 H 0.65215 0.54824 0.16085 0.0
H683 H 0.65748 0.51303 0.11244 0.0
H684 H 0.74832 0.62738 0.09449 0.0
H685 H 0.69383 0.58479 0.09422 0.0
H686 H 0.73836 0.60963 0.044 0.0
H687 H 0.70454 0.60293 0.14373 0.0
H688 H 0.70698 0.56069 0.18129 0.0
H689 H 0.73516 0.55136 0.11094 0.0
H690 H 0.6495 0.59081 0.07959 0.0
H691 H 0.69375 0.63088 0.05292 0.0
H692 H 0.70542 0.54806 0.94959 0.0
H693 H 0.69281 0.52856 0.05184 0.0
H694 H 0.70552 0.52432 0.9304 0.0
H695 H 0.69288 0.50506 0.03073 0.0
H696 H 0.66426 0.56831 0.93163 0.0
H697 H 0.70767 0.59974 0.98097 0.0
H698 H 0.66799 0.58969 0.89235 0.0
H699 H 0.71061 0.6205 0.94097 0.0
H700 H 0.62284 0.51312 0.01529 0.0
H701 H 0.64892 0.50436 0.93776 0.0
H702 H 0.75943 0.59919 0.96265 0.0
H703 H 0.72733 0.58157 0.87655 0.0
Li704 Li 0.14321 0.7029 0.22357 0.0
Li705 Li 0.11531 0.69064 0.21323 0.0
Li706 Li 0.13033 0.6793 0.19008 0.0
Li707 Li 0.13271 0.70307 0.16631 0.0
C708 C 0.12336 0.66869 0.25383 0.0
N709 N 0.1162 0.64019 0.28108 0.0
C710 C 0.10787 0.65738 0.25961 0.0
C711 C 0.13522 0.66557 0.26215 0.0
C712 C 0.10449 0.64303 0.27338 0.0
C713 C 0.13135 0.65107 0.2758 0.0
C714 C 0.12432 0.72008 0.22496 0.0
C715 C 0.10478 0.72769 0.22616 0.0
N716 N 0.10938 0.73343 0.25863 0.0
C717 C 0.12893 0.72614 0.25825 0.0
C718 C 0.11223 0.72094 0.20866 0.0
C719 C 0.12121 0.73281 0.27486 0.0
C720 C 0.17052 0.72898 0.24981 0.0
N721 N 0.15866 0.71446 0.25705 0.0
C722 C 0.16666 0.71687 0.316 0.0
C723 C 0.15659 0.70829 0.28929 0.0
C724 C 0.17901 0.73185 0.30924 0.0
C725 C 0.18108 0.73784 0.27561 0.0
H726 H 0.17155 0.73382 0.22429 0.0
H727 H 0.14683 0.69689 0.29453 0.0
C728 C 0.08267 0.67865 0.21936 0.0
N729 N 0.09662 0.68595 0.23572 0.0
C730 C 0.06901 0.6741 0.23801 0.0
C731 C 0.0845 0.6851 0.28952 0.0
C732 C 0.09778 0.68925 0.27002 0.0
C733 C 0.06982 0.67712 0.27373 0.0
H734 H 0.08212 0.67595 0.19213 0.0
H735 H 0.10905 0.69481 0.28237 0.0
C736 C 0.16529 0.70676 0.17961 0.0
N737 N 0.19729 0.72391 0.1844 0.0
C738 C 0.17357 0.72058 0.16097 0.0
C739 C 0.17329 0.70162 0.20054 0.0
C740 C 0.18975 0.72908 0.16375 0.0
C741 C 0.18946 0.71047 0.20269 0.0
C742 C 0.10877 0.68051 0.13387 0.0
C743 C 0.11182 0.67188 0.10983 0.0
C744 C 0.10073 0.68803 0.12355 0.0
C745 C 0.10692 0.67106 0.07565 0.0
C746 C 0.09604 0.68694 0.08912 0.0
N747 N 0.09921 0.67856 0.06608 0.0
C748 C 0.11631 0.64686 0.18146 0.0
C749 C 0.14331 0.66103 0.16929 0.0
C750 C 0.11584 0.63287 0.17426 0.0
N751 N 0.12995 0.66051 0.17929 0.0
C752 C 0.14335 0.64734 0.16156 0.0
C753 C 0.1295 0.63303 0.16419 0.0
H754 H 0.10581 0.64686 0.18881 0.0
H755 H 0.15393 0.67206 0.16727 0.0
C756 C 0.13741 0.72876 0.12566 0.0
N757 N 0.13701 0.7149 0.12538 0.0
C758 C 0.14304 0.73859 0.09698 0.0
C759 C 0.14706 0.71933 0.06795 0.0
C760 C 0.14147 0.70996 0.0972 0.0
C761 C 0.14835 0.73407 0.06799 0.0
H762 H 0.13409 0.73252 0.14873 0.0
H763 H 0.14136 0.69903 0.09807 0.0
O764 O 0.12691 0.6827 0.23975 0.0
O765 O 0.13157 0.71326 0.20848 0.0
O766 O 0.14943 0.69829 0.17737 0.0
O767 O 0.11365 0.68162 0.16734 0.0
H768 H 0.09855 0.65957 0.25318 0.0
H769 H 0.14726 0.67421 0.25784 0.0
H770 H 0.09256 0.63413 0.27783 0.0
H771 H 0.1404 0.64845 0.28216 0.0
H772 H 0.09533 0.72834 0.21395 0.0
H773 H 0.13828 0.72558 0.27124 0.0
H774 H 0.10853 0.71632 0.1829 0.0
H775 H 0.12459 0.73748 0.30069 0.0
H776 H 0.16473 0.71195 0.34175 0.0
H777 H 0.19036 0.74948 0.26973 0.0
H778 H 0.05794 0.66778 0.22487 0.0
H779 H 0.08574 0.68791 0.31681 0.0
H780 H 0.1676 0.72479 0.14476 0.0
H781 H 0.16706 0.69099 0.21526 0.0
H782 H 0.1963 0.73983 0.14957 0.0
H783 H 0.19579 0.70668 0.21894 0.0
H784 H 0.11805 0.666 0.11739 0.0
H785 H 0.09824 0.69472 0.14188 0.0
H786 H 0.10927 0.66449 0.05671 0.0
H787 H 0.08988 0.69278 0.08071 0.0
H788 H 0.10489 0.62209 0.1761 0.0
H789 H 0.15413 0.64794 0.15405 0.0
H790 H 0.14402 0.74993 0.09828 0.0
H791 H 0.15087 0.71532 0.046 0.0
Li792 Li 0.43507 0.13703 0.38238 0.0
Li793 Li 0.4196 0.1102 0.3665 0.0
Li794 Li 0.44593 0.1265 0.34203 0.0
Li795 Li 0.42389 0.1304 0.32598 0.0
C796 C 0.44954 0.121 0.41596 0.0
N797 N 0.46917 0.12222 0.46805 0.0
C798 C 0.44349 0.11171 0.44541 0.0
C799 C 0.46559 0.13083 0.41295 0.0
C800 C 0.4536 0.11252 0.47148 0.0
C801 C 0.47532 0.1313 0.43957 0.0
C802 C 0.40359 0.12267 0.3993 0.0
C803 C 0.38037 0.11925 0.42723 0.0
N804 N 0.38527 0.11626 0.4576 0.0
C805 C 0.40837 0.11955 0.4308 0.0
C806 C 0.38947 0.12252 0.39748 0.0
C807 C 0.39896 0.11634 0.45997 0.0
C808 C 0.4318 0.1599 0.41618 0.0
N809 N 0.43941 0.15175 0.41872 0.0
C810 C 0.45125 0.16458 0.4717 0.0
C811 C 0.44907 0.15394 0.44572 0.0
C812 C 0.44348 0.17309 0.46975 0.0
C813 C 0.43373 0.17073 0.44141 0.0
H814 H 0.42412 0.15787 0.39454 0.0
H815 H 0.45505 0.14746 0.44741 0.0
C816 C 0.41314 0.08198 0.39369 0.0
N817 N 0.40612 0.09003 0.3835 0.0
C818 C 0.40485 0.06825 0.41232 0.0
C819 C 0.38194 0.07078 0.40749 0.0
C820 C 0.39071 0.08451 0.38888 0.0
C821 C 0.38918 0.06278 0.42045 0.0
H822 H 0.42539 0.08664 0.38872 0.0
H823 H 0.38538 0.09109 0.38016 0.0
C824 C 0.4528 0.1616 0.34516 0.0
N825 N 0.4668 0.19263 0.36289 0.0
C826 C 0.44617 0.17049 0.33494 0.0
C827 C 0.46664 0.16853 0.36407 0.0
C828 C 0.45341 0.18616 0.34422 0.0
C829 C 0.47351 0.18422 0.37289 0.0
C830 C 0.41398 0.10096 0.29799 0.0
C831 C 0.41636 0.0919 0.27387 0.0
C832 C 0.39911 0.09893 0.30237 0.0
C833 C 0.40379 0.08092 0.25446 0.0
C834 C 0.38685 0.08784 0.28248 0.0
N835 N 0.38942 0.07913 0.25913 0.0
C836 C 0.46375 0.11258 0.32773 0.0
C837 C 0.47673 0.13972 0.31742 0.0
C838 C 0.47715 0.11206 0.31941 0.0
N839 N 0.46386 0.12629 0.32688 0.0
C840 C 0.49043 0.13977 0.30922 0.0
C841 C 0.49082 0.12582 0.31045 0.0
H842 H 0.4533 0.10211 0.33544 0.0
H843 H 0.47646 0.15046 0.31712 0.0
C844 C 0.40492 0.14095 0.29715 0.0
N845 N 0.41549 0.1365 0.28971 0.0
C846 C 0.40029 0.14771 0.27164 0.0
C847 C 0.41703 0.14453 0.23106 0.0
C848 C 0.42133 0.13782 0.25736 0.0
C849 C 0.40671 0.14996 0.23834 0.0
H850 H 0.40071 0.13997 0.32332 0.0
H851 H 0.42978 0.13423 0.2524 0.0
O852 O 0.43979 0.12016 0.38995 0.0
O853 O 0.41253 0.12574 0.3702 0.0
O854 O 0.44567 0.14614 0.33707 0.0
O855 O 0.4262 0.11171 0.31719 0.0
H856 H 0.43112 0.10396 0.44818 0.0
H857 H 0.47051 0.13817 0.39055 0.0
H858 H 0.44907 0.10543 0.49443 0.0
H859 H 0.48775 0.13891 0.43761 0.0
H860 H 0.36941 0.11908 0.42616 0.0
H861 H 0.41923 0.11962 0.43279 0.0
H862 H 0.38552 0.12481 0.37329 0.0
H863 H 0.40255 0.11391 0.48449 0.0
H864 H 0.45898 0.16618 0.49302 0.0
H865 H 0.4274 0.17694 0.43916 0.0
H866 H 0.41076 0.06224 0.42127 0.0
H867 H 0.36989 0.06695 0.41324 0.0
H868 H 0.43548 0.16534 0.32029 0.0
H869 H 0.47192 0.16184 0.37226 0.0
H870 H 0.44836 0.19315 0.33667 0.0
H871 H 0.48414 0.1897 0.38778 0.0
H872 H 0.42781 0.09333 0.27022 0.0
H873 H 0.39703 0.10583 0.3209 0.0
H874 H 0.40546 0.07381 0.23569 0.0
H875 H 0.37528 0.08614 0.2856 0.0
H876 H 0.4768 0.101 0.32015 0.0
H877 H 0.50071 0.15069 0.30298 0.0
H878 H 0.39248 0.15193 0.27843 0.0
H879 H 0.42213 0.14594 0.20562 0.0
Li880 Li 0.29417 0.43649 0.558 0.0
Li881 Li 0.30525 0.42075 0.54501 0.0
Li882 Li 0.3178 0.4484 0.52334 0.0
Li883 Li 0.29275 0.42683 0.50029 0.0
C884 C 0.31801 0.4469 0.60372 0.0
N885 N 0.32373 0.45981 0.66912 0.0
C886 C 0.30909 0.43814 0.63183 0.0
C887 C 0.32987 0.46222 0.60889 0.0
C888 C 0.31214 0.44488 0.66468 0.0
C889 C 0.33258 0.46853 0.64216 0.0
C890 C 0.27641 0.39979 0.55435 0.0
C891 C 0.26981 0.3731 0.54652 0.0
N892 N 0.26392 0.3698 0.57914 0.0
C893 C 0.2703 0.39613 0.58784 0.0
C894 C 0.27615 0.38817 0.53352 0.0
C895 C 0.26403 0.38091 0.59986 0.0
C896 C 0.26731 0.43117 0.5933 0.0
N897 N 0.28277 0.44143 0.59056 0.0
C898 C 0.28109 0.45762 0.63402 0.0
C899 C 0.28963 0.45477 0.60941 0.0
C900 C 0.26526 0.44681 0.63861 0.0
C901 C 0.2583 0.43359 0.61738 0.0
H902 H 0.26199 0.42101 0.57692 0.0
H903 H 0.30176 0.46317 0.60556 0.0
C904 C 0.31848 0.40119 0.54273 0.0
N905 N 0.31032 0.40593 0.56259 0.0
C906 C 0.32284 0.39086 0.55611 0.0
C907 C 0.31005 0.3903 0.60973 0.0
C908 C 0.30616 0.40076 0.59553 0.0
C909 C 0.31861 0.38533 0.59007 0.0
H910 H 0.32182 0.40563 0.51674 0.0
H911 H 0.29991 0.40485 0.61099 0.0
C912 C 0.28973 0.45529 0.51788 0.0
N913 N 0.27187 0.46907 0.52863 0.0
C914 C 0.27386 0.44719 0.51024 0.0
C915 C 0.29653 0.47039 0.53096 0.0
C916 C 0.26503 0.45437 0.51586 0.0
C917 C 0.2873 0.47716 0.53621 0.0
C918 C 0.31463 0.42644 0.46389 0.0
C919 C 0.3219 0.43895 0.44102 0.0
C920 C 0.30779 0.41126 0.4512 0.0
C921 C 0.32206 0.43607 0.40571 0.0
C922 C 0.30819 0.40886 0.41571 0.0
N923 N 0.31525 0.42121 0.39389 0.0
C924 C 0.35025 0.46762 0.52153 0.0
C925 C 0.3361 0.47846 0.49598 0.0
C926 C 0.3643 0.48103 0.51402 0.0
N927 N 0.33657 0.46667 0.51263 0.0
C928 C 0.34985 0.4921 0.48812 0.0
C929 C 0.36419 0.49352 0.49724 0.0
H930 H 0.3502 0.45799 0.53466 0.0
H931 H 0.32505 0.47722 0.48861 0.0
C932 C 0.26759 0.40631 0.45694 0.0
N933 N 0.28047 0.42058 0.45967 0.0
C934 C 0.25755 0.40284 0.42886 0.0
C935 C 0.27437 0.42876 0.40686 0.0
C936 C 0.28411 0.43168 0.43517 0.0
C937 C 0.26072 0.41429 0.40388 0.0
H938 H 0.2647 0.39786 0.47725 0.0
H939 H 0.29428 0.44302 0.43842 0.0
O940 O 0.31528 0.44054 0.57132 0.0
O941 O 0.28275 0.41468 0.54215 0.0
O942 O 0.29847 0.4483 0.51344 0.0
O943 O 0.31403 0.42903 0.49844 0.0
H944 H 0.29961 0.42643 0.62823 0.0
H945 H 0.33687 0.4692 0.58745 0.0
H946 H 0.30522 0.43828 0.6866 0.0
H947 H 0.3417 0.48038 0.64652 0.0
H948 H 0.26963 0.36403 0.53071 0.0
H949 H 0.27066 0.40497 0.60469 0.0
H950 H 0.281 0.3908 0.50776 0.0
H951 H 0.25934 0.37794 0.62577 0.0
H952 H 0.2868 0.46813 0.64934 0.0
H953 H 0.24611 0.42498 0.62004 0.0
H954 H 0.32949 0.38731 0.54022 0.0
H955 H 0.30684 0.38653 0.63624 0.0
H956 H 0.26837 0.43542 0.50052 0.0
H957 H 0.30875 0.47673 0.53753 0.0
H958 H 0.25272 0.44822 0.5102 0.0
H959 H 0.29238 0.48881 0.5465 0.0
H960 H 0.3272 0.45077 0.45034 0.0
H961 H 0.30218 0.40144 0.46853 0.0
H962 H 0.32757 0.44564 0.38769 0.0
H963 H 0.30288 0.39718 0.40552 0.0
H964 H 0.3751 0.48171 0.52172 0.0
H965 H 0.34929 0.50136 0.47466 0.0
H966 H 0.24702 0.39163 0.42769 0.0
H967 H 0.27722 0.43785 0.38801 0.0
Li968 Li 0.88687 0.30854 0.69159 0.0
Li969 Li 0.86033 0.29647 0.7181 0.0
Li970 Li 0.86428 0.29241 0.6592 0.0
Li971 Li 0.86897 0.31749 0.67398 0.0
C972 C 0.86902 0.27212 0.69217 0.0
N973 N 0.86251 0.24286 0.67165 0.0
C974 C 0.85587 0.25896 0.70493 0.0
C975 C 0.87895 0.27042 0.66927 0.0
C976 C 0.85277 0.24427 0.69418 0.0
C977 C 0.87542 0.25552 0.65912 0.0
C978 C 0.88563 0.32715 0.74795 0.0
C979 C 0.89511 0.3503 0.78266 0.0
N980 N 0.90285 0.34527 0.8031 0.0
C981 C 0.89358 0.32216 0.76949 0.0
C982 C 0.88635 0.34131 0.75466 0.0
C983 C 0.90227 0.33151 0.79713 0.0
C984 C 0.91771 0.33119 0.70311 0.0
N985 N 0.9078 0.31561 0.70274 0.0
C986 C 0.92635 0.31099 0.73146 0.0
C987 C 0.91192 0.30546 0.71562 0.0
C988 C 0.9364 0.32707 0.73442 0.0
C989 C 0.93217 0.33723 0.71909 0.0
H990 H 0.91394 0.33893 0.69315 0.0
H991 H 0.90363 0.29316 0.7157 0.0
C992 C 0.83283 0.27668 0.75395 0.0
N993 N 0.84811 0.28737 0.7584 0.0
C994 C 0.82332 0.26955 0.78251 0.0
C995 C 0.84552 0.28415 0.81971 0.0
C996 C 0.85455 0.29115 0.79045 0.0
C997 C 0.82969 0.27324 0.81587 0.0
H998 H 0.82806 0.27358 0.72817 0.0
H999 H 0.86671 0.29946 0.79341 0.0
C1000 C 0.88054 0.31584 0.61064 0.0
N1001 N 0.87715 0.32282 0.54316 0.0
C1002 C 0.86583 0.3118 0.59784 0.0
C1003 C 0.89351 0.32343 0.58911 0.0
C1004 C 0.86437 0.31543 0.56366 0.0
C1005 C 0.89156 0.32685 0.55507 0.0
C1006 C 0.83732 0.30044 0.68799 0.0
C1007 C 0.82272 0.29292 0.67221 0.0
C1008 C 0.84016 0.31088 0.71503 0.0
C1009 C 0.81119 0.29598 0.68367 0.0
C1010 C 0.82832 0.31363 0.72574 0.0
N1011 N 0.81421 0.30619 0.70997 0.0
C1012 C 0.84101 0.26474 0.63238 0.0
C1013 C 0.86343 0.2763 0.59677 0.0
C1014 C 0.83371 0.25207 0.61015 0.0
N1015 N 0.85559 0.27646 0.62543 0.0
C1016 C 0.85642 0.26399 0.57336 0.0
C1017 C 0.84133 0.25162 0.5799 0.0
H1018 H 0.83517 0.26513 0.65565 0.0
H1019 H 0.87512 0.28569 0.59212 0.0
C1020 C 0.8823 0.34939 0.665 0.0
N1021 N 0.86879 0.33578 0.66059 0.0
C1022 C 0.88316 0.36346 0.65678 0.0
C1023 C 0.85627 0.34921 0.63877 0.0
C1024 C 0.85598 0.33541 0.64704 0.0
C1025 C 0.86996 0.36347 0.64388 0.0
H1026 H 0.89236 0.34928 0.67533 0.0
H1027 H 0.84552 0.32444 0.64264 0.0
O1028 O 0.87205 0.28661 0.70173 0.0
O1029 O 0.87742 0.31842 0.72005 0.0
O1030 O 0.88239 0.31252 0.64407 0.0
O1031 O 0.84864 0.29744 0.67687 0.0
H1032 H 0.84808 0.2601 0.72268 0.0
H1033 H 0.88912 0.28051 0.65901 0.0
H1034 H 0.84258 0.23398 0.70367 0.0
H1035 H 0.88292 0.25402 0.64116 0.0
H1036 H 0.89576 0.36128 0.78814 0.0
H1037 H 0.893 0.31114 0.76497 0.0
H1038 H 0.88013 0.34528 0.73853 0.0
H1039 H 0.90854 0.32782 0.81387 0.0
H1040 H 0.92913 0.30283 0.74343 0.0
H1041 H 0.93966 0.3497 0.72085 0.0
H1042 H 0.8112 0.26098 0.77853 0.0
H1043 H 0.85083 0.28729 0.84507 0.0
H1044 H 0.85563 0.30591 0.61398 0.0
H1045 H 0.90498 0.32665 0.59865 0.0
H1046 H 0.85306 0.31237 0.55344 0.0
H1047 H 0.90151 0.33273 0.53812 0.0
H1048 H 0.82035 0.2848 0.65128 0.0
H1049 H 0.85133 0.31682 0.72767 0.0
H1050 H 0.79984 0.29025 0.67166 0.0
H1051 H 0.83036 0.32168 0.7466 0.0
H1052 H 0.82226 0.24269 0.61688 0.0
H1053 H 0.8627 0.26429 0.55023 0.0
H1054 H 0.89391 0.37422 0.66116 0.0
H1055 H 0.84594 0.34875 0.62825 0.0
H1056 H 0.16543 0.38986 0.151 0.0
H1057 H 0.18262 0.38753 0.19326 0.0
H1058 H 0.17263 0.4139 0.26696 0.0
H1059 H 0.15519 0.41598 0.22519 0.0
H1060 H 0.20794 0.42316 0.23427 0.0
H1061 H 0.16068 0.38709 0.2998 0.0
H1062 H 0.1351 0.36325 0.30379 0.0
H1063 H 0.15545 0.33597 0.27197 0.0
H1064 H 0.18113 0.35973 0.26729 0.0
H1065 H 0.25005 0.43362 0.38565 0.0
H1066 H 0.23045 0.42931 0.34243 0.0
H1067 H 0.22559 0.38476 0.3176 0.0
H1068 H 0.24509 0.38893 0.36172 0.0
H1069 H 0.19796 0.38227 0.32064 0.0
H1070 H 0.24515 0.41609 0.26311 0.0
H1071 H 0.27124 0.43886 0.25504 0.0
H1072 H 0.25235 0.46921 0.26504 0.0
H1073 H 0.22616 0.44663 0.27368 0.0
C1074 C 0.16665 0.39482 0.17653 0.0
C1075 C 0.15902 0.40307 0.185 0.0
C1076 C 0.1764 0.39345 0.20056 0.0
C1077 C 0.17873 0.40045 0.23312 0.0
C1078 C 0.17075 0.40825 0.24203 0.0
C1079 C 0.1608 0.4094 0.21826 0.0
C1080 C 0.19092 0.40131 0.25617 0.0
C1081 C 0.20579 0.41434 0.25344 0.0
C1082 C 0.18814 0.38941 0.27987 0.0
C1083 C 0.17274 0.37519 0.28268 0.0
C1084 C 0.15965 0.37604 0.29321 0.0
C1085 C 0.14515 0.36253 0.29573 0.0
C1086 C 0.14363 0.3481 0.288 0.0
C1087 C 0.15663 0.34715 0.27786 0.0
C1088 C 0.17116 0.36063 0.27528 0.0
C1089 C 0.24495 0.42299 0.37068 0.0
C1090 C 0.24922 0.41169 0.37666 0.0
C1091 C 0.23374 0.42053 0.346 0.0
C1092 C 0.22677 0.40684 0.3263 0.0
C1093 C 0.23088 0.39543 0.33242 0.0
C1094 C 0.24201 0.39783 0.35751 0.0
C1095 C 0.21502 0.4045 0.29979 0.0
C1096 C 0.20024 0.39114 0.30148 0.0
C1097 C 0.21797 0.416 0.2746 0.0
C1098 C 0.2337 0.42965 0.26929 0.0
C1099 C 0.24657 0.42762 0.26383 0.0
C1100 C 0.26138 0.4405 0.25912 0.0
C1101 C 0.26346 0.45548 0.2596 0.0
C1102 C 0.25072 0.4576 0.2647 0.0
C1103 C 0.23589 0.44476 0.26946 0.0
H1104 H 0.27493 0.46543 0.25594 0.0
H1105 H 0.1324 0.33766 0.28998 0.0
H1106 H 0.85419 0.23803 0.53964 0.0
H1107 H 0.84094 0.21713 0.49727 0.0
H1108 H 0.79729 0.21409 0.52284 0.0
H1109 H 0.81038 0.23543 0.56351 0.0
H1110 H 0.79744 0.18424 0.51828 0.0
H1111 H 0.81363 0.23343 0.45692 0.0
H1112 H 0.83359 0.25934 0.43653 0.0
H1113 H 0.85725 0.2391 0.38391 0.0
H1114 H 0.83751 0.21308 0.40444 0.0
H1115 H 0.7399 0.15469 0.39275 0.0
H1116 H 0.75961 0.16779 0.43708 0.0
H1117 H 0.79491 0.17109 0.36682 0.0
H1118 H 0.77512 0.15822 0.32188 0.0
H1119 H 0.80407 0.19784 0.3936 0.0
H1120 H 0.78497 0.14822 0.44195 0.0
H1121 H 0.76586 0.12192 0.46189 0.0
H1122 H 0.74925 0.14129 0.53872 0.0
H1123 H 0.7681 0.16772 0.51892 0.0
C1124 C 0.8418 0.23304 0.53606 0.0
C1125 C 0.83339 0.23849 0.55512 0.0
C1126 C 0.83425 0.22098 0.51213 0.0
C1127 C 0.81816 0.21405 0.50728 0.0
C1128 C 0.8097 0.21919 0.52667 0.0
C1129 C 0.81723 0.23138 0.55005 0.0
C1130 C 0.81006 0.20209 0.48055 0.0
C1131 C 0.79885 0.1871 0.49096 0.0
C1132 C 0.81246 0.20575 0.445 0.0
C1133 C 0.82424 0.22136 0.43259 0.0
C1134 C 0.82317 0.23453 0.44128 0.0
C1135 C 0.83442 0.24923 0.42965 0.0
C1136 C 0.84671 0.25088 0.40904 0.0
C1137 C 0.84775 0.23782 0.39995 0.0
C1138 C 0.83654 0.22309 0.41157 0.0
C1139 C 0.7518 0.15786 0.38701 0.0
C1140 C 0.75599 0.15546 0.35389 0.0
C1141 C 0.76308 0.1653 0.41244 0.0
C1142 C 0.77876 0.17026 0.4055 0.0
C1143 C 0.78289 0.16735 0.37279 0.0
C1144 C 0.77161 0.16003 0.34716 0.0
C1145 C 0.79083 0.17997 0.4312 0.0
C1146 C 0.80285 0.19463 0.42071 0.0
C1147 C 0.78933 0.17587 0.46665 0.0
C1148 C 0.77794 0.15998 0.47881 0.0
C1149 C 0.77718 0.14688 0.46295 0.0
C1150 C 0.76639 0.13195 0.47425 0.0
C1151 C 0.75634 0.12994 0.50153 0.0
C1152 C 0.75706 0.14287 0.5176 0.0
C1153 C 0.76782 0.15784 0.50638 0.0
H1154 H 0.748 0.11836 0.51025 0.0
H1155 H 0.85541 0.26226 0.40004 0.0
H1156 H 0.61427 0.76856 0.51039 0.0
H1157 H 0.61769 0.78947 0.54979 0.0
H1158 H 0.56934 0.76286 0.5784 0.0
H1159 H 0.56593 0.74188 0.53972 0.0
H1160 H 0.58191 0.79568 0.55223 0.0
H1161 H 0.59127 0.76401 0.63462 0.0
H1162 H 0.60518 0.75083 0.65534 0.0
H1163 H 0.64815 0.79425 0.65507 0.0
H1164 H 0.6345 0.80765 0.63384 0.0
H1165 H 0.56556 0.82795 0.69467 0.0
H1166 H 0.569 0.81243 0.65067 0.0
H1167 H 0.61869 0.83871 0.66558 0.0
H1168 H 0.61521 0.85412 0.71056 0.0
H1169 H 0.60978 0.8094 0.66453 0.0
H1170 H 0.60129 0.84211 0.59011 0.0
H1171 H 0.58886 0.85643 0.56745 0.0
H1172 H 0.54676 0.81342 0.5486 0.0
H1173 H 0.55885 0.79883 0.57163 0.0
C1174 C 0.60447 0.76713 0.52554 0.0
C1175 C 0.58986 0.75364 0.52226 0.0
C1176 C 0.60643 0.77902 0.54791 0.0
C1177 C 0.59374 0.77763 0.56675 0.0
C1178 C 0.57924 0.76407 0.56398 0.0
C1179 C 0.57734 0.75209 0.54215 0.0
C1180 C 0.59527 0.79058 0.58818 0.0
C1181 C 0.58791 0.79868 0.57691 0.0
C1182 C 0.60373 0.79485 0.61944 0.0
C1183 C 0.6119 0.78679 0.63219 0.0
C1184 C 0.60371 0.77071 0.6386 0.0
C1185 C 0.61154 0.76321 0.65053 0.0
C1186 C 0.62755 0.77168 0.65639 0.0
C1187 C 0.63575 0.78769 0.65044 0.0
C1188 C 0.62798 0.79524 0.63847 0.0
C1189 C 0.57725 0.83067 0.68804 0.0
C1190 C 0.59013 0.84232 0.70581 0.0
C1191 C 0.57922 0.82179 0.66284 0.0
C1192 C 0.59413 0.82455 0.65438 0.0
C1193 C 0.60708 0.8364 0.67161 0.0
C1194 C 0.60509 0.8452 0.69721 0.0
C1195 C 0.59593 0.81429 0.62925 0.0
C1196 C 0.60397 0.80668 0.63965 0.0
C1197 C 0.58833 0.81067 0.59678 0.0
C1198 C 0.58097 0.81938 0.58281 0.0
C1199 C 0.58935 0.8357 0.58137 0.0
C1200 C 0.58236 0.84387 0.56841 0.0
C1201 C 0.56703 0.83584 0.55664 0.0
C1202 C 0.55864 0.81962 0.55773 0.0
C1203 C 0.56557 0.8114 0.57069 0.0
H1204 H 0.56164 0.84218 0.54662 0.0
H1205 H 0.63359 0.76586 0.66564 0.0
H1206 H 0.82824 0.60333 0.65489 0.0
H1207 H 0.8147 0.60776 0.70234 0.0
H1208 H 0.83477 0.5897 0.77474 0.0
H1209 H 0.8479 0.58471 0.72724 0.0
H1210 H 0.8041 0.57546 0.78112 0.0
H1211 H 0.84519 0.62825 0.77483 0.0
H1212 H 0.86287 0.65321 0.74661 0.0
H1213 H 0.82394 0.65795 0.71577 0.0
H1214 H 0.80599 0.6329 0.74338 0.0
H1215 H 0.77014 0.58712 0.92765 0.0
H1216 H 0.79051 0.59105 0.88695 0.0
H1217 H 0.77012 0.60668 0.80963 0.0
H1218 H 0.74995 0.60337 0.85081 0.0
H1219 H 0.80233 0.62336 0.80812 0.0
H1220 H 0.76142 0.56992 0.80932 0.0
H1221 H 0.74337 0.54483 0.8366 0.0
H1222 H 0.78194 0.54126 0.87548 0.0
H1223 H 0.80024 0.56647 0.84884 0.0
C1224 C 0.82986 0.60042 0.68096 0.0
C1225 C 0.83901 0.59352 0.6873 0.0
C1226 C 0.82226 0.60313 0.7081 0.0
C1227 C 0.82378 0.59912 0.74209 0.0
C1228 C 0.83347 0.5929 0.74868 0.0
C1229 C 0.84105 0.59015 0.72155 0.0
C1230 C 0.81399 0.59985 0.77005 0.0
C1231 C 0.80397 0.58603 0.7875 0.0
C1232 C 0.81346 0.61352 0.77755 0.0
C1233 C 0.82423 0.62862 0.76095 0.0
C1234 C 0.84038 0.63454 0.76179 0.0
C1235 C 0.85046 0.64873 0.74595 0.0
C1236 C 0.84453 0.65715 0.72934 0.0
C1237 C 0.82851 0.65141 0.72862 0.0
C1238 C 0.81838 0.63723 0.7444 0.0
C1239 C 0.77017 0.59177 0.90232 0.0
C1240 C 0.75835 0.59484 0.8924 0.0
C1241 C 0.78177 0.5939 0.879 0.0
C1242 C 0.78167 0.59894 0.84518 0.0
C1243 C 0.77035 0.60273 0.83562 0.0
C1244 C 0.75875 0.60067 0.85903 0.0
C1245 C 0.7926 0.59901 0.81912 0.0
C1246 C 0.80268 0.61289 0.80193 0.0
C1247 C 0.79317 0.58538 0.81163 0.0
C1248 C 0.78219 0.57015 0.8274 0.0
C1249 C 0.76605 0.56384 0.82391 0.0
C1250 C 0.75577 0.54959 0.83922 0.0
C1251 C 0.7615 0.54147 0.85784 0.0
C1252 C 0.77752 0.54757 0.86109 0.0
C1253 C 0.78785 0.56184 0.84588 0.0
H1254 H 0.75352 0.53044 0.86968 0.0
H1255 H 0.85235 0.66813 0.7171 0.0
H1256 H 0.22869 0.84457 0.84459 0.0
H1257 H 0.20751 0.82659 0.88264 0.0
H1258 H 0.2328 0.80285 0.90558 0.0
H1259 H 0.25377 0.82047 0.86737 0.0
H1260 H 0.20245 0.78301 0.88593 0.0
H1261 H 0.23093 0.82674 0.96372 0.0
H1262 H 0.24222 0.85411 0.98153 0.0
H1263 H 0.19714 0.85 0.97674 0.0
H1264 H 0.18562 0.82265 0.95844 0.0
H1265 H 0.17477 0.73916 0.03553 0.0
H1266 H 0.1893 0.75811 0.99081 0.0
H1267 H 0.15585 0.77373 0.99202 0.0
H1268 H 0.14102 0.75452 0.03703 0.0
H1269 H 0.18567 0.79793 0.99307 0.0
H1270 H 0.1565 0.75318 0.92392 0.0
H1271 H 0.14497 0.72577 0.90647 0.0
H1272 H 0.19051 0.73162 0.89369 0.0
H1273 H 0.20234 0.75902 0.91157 0.0
C1274 C 0.22973 0.83555 0.85792 0.0
C1275 C 0.2429 0.83395 0.8531 0.0
C1276 C 0.21768 0.82536 0.8797 0.0
C1277 C 0.21863 0.81341 0.89683 0.0
C1278 C 0.23187 0.81199 0.89251 0.0
C1279 C 0.24391 0.82217 0.87096 0.0
C1280 C 0.2057 0.80197 0.9185 0.0
C1281 C 0.1988 0.78624 0.90944 0.0
C1282 C 0.20052 0.8063 0.94828 0.0
C1283 C 0.20745 0.82272 0.95928 0.0
C1284 C 0.22346 0.83172 0.96614 0.0
C1285 C 0.22989 0.84721 0.9764 0.0
C1286 C 0.22042 0.8538 0.98015 0.0
C1287 C 0.20447 0.84489 0.97375 0.0
C1288 C 0.19798 0.82939 0.96345 0.0
C1289 C 0.17027 0.74636 0.02584 0.0
C1290 C 0.15661 0.74518 0.03952 0.0
C1291 C 0.17863 0.75725 0.00032 0.0
C1292 C 0.17351 0.76715 0.98771 0.0
C1293 C 0.15994 0.76612 0.00132 0.0
C1294 C 0.15151 0.75517 0.02701 0.0
C1295 C 0.18287 0.7789 0.96123 0.0
C1296 C 0.18906 0.79468 0.96921 0.0
C1297 C 0.18735 0.77464 0.93026 0.0
C1298 C 0.18031 0.75816 0.91926 0.0
C1299 C 0.16407 0.74861 0.91761 0.0
C1300 C 0.15747 0.73306 0.90761 0.0
C1301 C 0.167 0.72695 0.89901 0.0
C1302 C 0.18315 0.73637 0.90034 0.0
C1303 C 0.1898 0.75192 0.91036 0.0
H1304 H 0.16187 0.71491 0.89128 0.0
H1305 H 0.22542 0.8658 0.9881 0.0
H1306 H 0.37921 0.14866 0.2216 0.0
H1307 H 0.37563 0.16615 0.18259 0.0
H1308 H 0.42461 0.19016 0.15899 0.0
H1309 H 0.42829 0.173 0.19795 0.0
H1310 H 0.41347 0.20988 0.1778 0.0
H1311 H 0.39926 0.1654 0.1023 0.0
H1312 H 0.3834 0.13782 0.08588 0.0
H1313 H 0.34223 0.14165 0.0877 0.0
H1314 H 0.35784 0.16922 0.10458 0.0
H1315 H 0.43242 0.25152 0.02533 0.0
H1316 H 0.42682 0.233 0.07194 0.0
H1317 H 0.37805 0.21835 0.06529 0.0
H1318 H 0.38359 0.23677 0.0176 0.0
H1319 H 0.38312 0.19365 0.06877 0.0
H1320 H 0.39791 0.2393 0.13354 0.0
H1321 H 0.41359 0.26693 0.14944 0.0
H1322 H 0.45292 0.26114 0.16918 0.0
H1323 H 0.43756 0.23352 0.1529 0.0
C1324 C 0.38917 0.15763 0.2079 0.0
C1325 C 0.40402 0.15942 0.21266 0.0
C1326 C 0.3871 0.16755 0.18562 0.0
C1327 C 0.39987 0.17943 0.16804 0.0
C1328 C 0.41462 0.18107 0.17242 0.0
C1329 C 0.41668 0.17114 0.1944 0.0
C1330 C 0.39822 0.19054 0.14558 0.0
C1331 C 0.40685 0.20636 0.15394 0.0
C1332 C 0.38902 0.18584 0.1153 0.0
C1333 C 0.37968 0.16929 0.10515 0.0
C1334 C 0.3868 0.16032 0.09952 0.0
C1335 C 0.37787 0.1447 0.09006 0.0
C1336 C 0.36181 0.13797 0.08588 0.0
C1337 C 0.35466 0.14686 0.09104 0.0
C1338 C 0.36355 0.16248 0.10054 0.0
C1339 C 0.42049 0.24434 0.03367 0.0
C1340 C 0.40843 0.24552 0.01773 0.0
C1341 C 0.41732 0.23387 0.06056 0.0
C1342 C 0.40204 0.22445 0.07235 0.0
C1343 C 0.38993 0.2256 0.05665 0.0
C1344 C 0.39311 0.23616 0.02964 0.0
C1345 C 0.39898 0.21306 0.10021 0.0
C1346 C 0.38943 0.19719 0.09303 0.0
C1347 C 0.40726 0.2177 0.13177 0.0
C1348 C 0.41657 0.23432 0.14185 0.0
C1349 C 0.40993 0.24393 0.14106 0.0
C1350 C 0.41876 0.2596 0.15017 0.0
C1351 C 0.43424 0.26579 0.16029 0.0
C1352 C 0.44092 0.25632 0.16137 0.0
C1353 C 0.43214 0.24065 0.15225 0.0
H1354 H 0.44106 0.27793 0.16732 0.0
H1355 H 0.35491 0.12588 0.07854 0.0
H1356 H 0.11583 0.49717 0.1409 0.0
H1357 H 0.11652 0.52142 0.15569 0.0
H1358 H 0.14183 0.5424 0.0618 0.0
H1359 H 0.14158 0.51832 0.04731 0.0
H1360 H 0.15389 0.56186 0.11682 0.0
H1361 H 0.10344 0.52962 0.06643 0.0
H1362 H 0.07788 0.5059 0.06029 0.0
H1363 H 0.06598 0.51143 0.16402 0.0
H1364 H 0.09157 0.53509 0.17094 0.0
H1365 H 0.14308 0.62697 0.10962 0.0
H1366 H 0.14305 0.60285 0.09708 0.0
H1367 H 0.11561 0.5819 0.18863 0.0
H1368 H 0.11545 0.60597 0.20106 0.0
H1369 H 0.10473 0.56231 0.13594 0.0
H1370 H 0.15491 0.59474 0.18635 0.0
H1371 H 0.18047 0.61842 0.19286 0.0
H1372 H 0.19299 0.61251 0.09002 0.0
H1373 H 0.16741 0.5889 0.08271 0.0
C1374 C 0.12169 0.507 0.12359 0.0
C1375 C 0.1286 0.50582 0.09286 0.0
C1376 C 0.12196 0.5208 0.13192 0.0
C1377 C 0.12906 0.53363 0.10962 0.0
C1378 C 0.13623 0.5326 0.07928 0.0
C1379 C 0.13596 0.5188 0.07091 0.0
C1380 C 0.12892 0.54812 0.11776 0.0
C1381 C 0.14315 0.56201 0.1206 0.0
C1382 C 0.1149 0.54821 0.12349 0.0
C1383 C 0.09948 0.53404 0.11931 0.0
C1384 C 0.09542 0.52571 0.08802 0.0
C1385 C 0.08092 0.51229 0.08439 0.0
C1386 C 0.07033 0.50714 0.11178 0.0
C1387 C 0.07421 0.51543 0.14284 0.0
C1388 C 0.0887 0.52885 0.14662 0.0
C1389 C 0.13713 0.61725 0.12718 0.0
C1390 C 0.12933 0.61836 0.15639 0.0
C1391 C 0.13713 0.60348 0.12002 0.0
C1392 C 0.12952 0.59065 0.14221 0.0
C1393 C 0.12156 0.59167 0.17118 0.0
C1394 C 0.12146 0.6054 0.17821 0.0
C1395 C 0.12972 0.5761 0.13499 0.0
C1396 C 0.11549 0.56218 0.13228 0.0
C1397 C 0.14375 0.57599 0.12947 0.0
C1398 C 0.15919 0.59013 0.13388 0.0
C1399 C 0.16307 0.59855 0.16503 0.0
C1400 C 0.17757 0.61195 0.16888 0.0
C1401 C 0.18834 0.61699 0.14184 0.0
C1402 C 0.18464 0.60861 0.11093 0.0
C1403 C 0.17014 0.59521 0.10693 0.0
H1404 H 0.19956 0.62737 0.14487 0.0
H1405 H 0.05911 0.49674 0.10891 0.0
H1406 H 0.61255 0.11072 0.28963 0.0
H1407 H 0.58778 0.10958 0.30103 0.0
H1408 H 0.60087 0.1484 0.2323 0.0
H1409 H 0.62571 0.1497 0.22115 0.0
H1410 H 0.5881 0.15187 0.28887 0.0
H1411 H 0.57507 0.11073 0.20754 0.0
H1412 H 0.57392 0.087 0.18483 0.0
H1413 H 0.54758 0.06141 0.27357 0.0
H1414 H 0.54876 0.08505 0.29707 0.0
H1415 H 0.51324 0.14284 0.26223 0.0
H1416 H 0.53788 0.1435 0.25281 0.0
H1417 H 0.52617 0.10903 0.33241 0.0
H1418 H 0.50174 0.10864 0.34294 0.0
H1419 H 0.53798 0.1031 0.2715 0.0
H1420 H 0.55086 0.1447 0.35177 0.0
H1421 H 0.55182 0.16855 0.37295 0.0
H1422 H 0.57831 0.19344 0.28374 0.0
H1423 H 0.57731 0.16966 0.26176 0.0
C1424 C 0.6101 0.11896 0.27685 0.0
C1425 C 0.62104 0.13027 0.25443 0.0
C1426 C 0.59595 0.11829 0.28336 0.0
C1427 C 0.59239 0.12878 0.26716 0.0
C1428 C 0.60338 0.1402 0.24511 0.0
C1429 C 0.61757 0.14095 0.23881 0.0
C1430 C 0.57722 0.12789 0.27318 0.0
C1431 C 0.57715 0.14126 0.28463 0.0
C1432 C 0.56292 0.11395 0.26834 0.0
C1433 C 0.56214 0.0997 0.25423 0.0
C1434 C 0.56914 0.10007 0.22235 0.0
C1435 C 0.56846 0.08663 0.20931 0.0
C1436 C 0.56072 0.07271 0.22779 0.0
C1437 C 0.55359 0.0722 0.25931 0.0
C1438 C 0.55425 0.08562 0.27249 0.0
C1439 C 0.51594 0.1355 0.278 0.0
C1440 C 0.50549 0.12573 0.30345 0.0
C1441 C 0.52999 0.13584 0.27244 0.0
C1442 C 0.53385 0.12638 0.29209 0.0
C1443 C 0.52335 0.11637 0.31694 0.0
C1444 C 0.50935 0.11612 0.32275 0.0
C1445 C 0.54893 0.12708 0.28694 0.0
C1446 C 0.54896 0.11369 0.27571 0.0
C1447 C 0.5632 0.14102 0.29172 0.0
C1448 C 0.56387 0.15535 0.30495 0.0
C1449 C 0.55677 0.15522 0.33651 0.0
C1450 C 0.55734 0.16874 0.3487 0.0
C1451 C 0.56508 0.1825 0.32966 0.0
C1452 C 0.5723 0.18277 0.29844 0.0
C1453 C 0.57174 0.16928 0.28612 0.0
H1454 H 0.56552 0.19295 0.33914 0.0
H1455 H 0.5602 0.06232 0.21766 0.0
H1456 H 0.39089 0.49617 0.47058 0.0
H1457 H 0.41516 0.52002 0.4574 0.0
H1458 H 0.39508 0.54728 0.49296 0.0
H1459 H 0.37074 0.52346 0.50588 0.0
H1460 H 0.41028 0.55869 0.43425 0.0
H1461 H 0.42133 0.54268 0.54247 0.0
H1462 H 0.42315 0.52462 0.58332 0.0
H1463 H 0.45564 0.52103 0.51618 0.0
H1464 H 0.45384 0.53892 0.47467 0.0
H1465 H 0.48029 0.63105 0.44805 0.0
H1466 H 0.45627 0.60705 0.46198 0.0
H1467 H 0.47546 0.58017 0.4192 0.0
H1468 H 0.49964 0.60413 0.40579 0.0
H1469 H 0.46087 0.56862 0.48145 0.0
H1470 H 0.44973 0.58491 0.37343 0.0
H1471 H 0.44795 0.60326 0.33337 0.0
H1472 H 0.41563 0.60663 0.40148 0.0
H1473 H 0.41739 0.58846 0.44222 0.0
C1474 C 0.3917 0.50725 0.47583 0.0
C1475 C 0.37894 0.50795 0.48935 0.0
C1476 C 0.40557 0.52087 0.4683 0.0
C1477 C 0.407 0.53544 0.47459 0.0
C1478 C 0.39423 0.53616 0.48787 0.0
C1479 C 0.38033 0.52255 0.49518 0.0
C1480 C 0.42174 0.54994 0.46696 0.0
C1481 C 0.42131 0.56095 0.44497 0.0
C1482 C 0.43618 0.55274 0.48034 0.0
C1483 C 0.43733 0.54202 0.50531 0.0
C1484 C 0.42877 0.53795 0.53629 0.0
C1485 C 0.42981 0.52776 0.55959 0.0
C1486 C 0.43947 0.52165 0.55231 0.0
C1487 C 0.44814 0.52575 0.52176 0.0
C1488 C 0.44712 0.53593 0.49835 0.0
C1489 C 0.47943 0.62002 0.44189 0.0
C1490 C 0.49182 0.61946 0.42576 0.0
C1491 C 0.46567 0.60634 0.4496 0.0
C1492 C 0.46405 0.59185 0.4413 0.0
C1493 C 0.47648 0.59124 0.4257 0.0
C1494 C 0.49022 0.60492 0.41784 0.0
C1495 C 0.44937 0.57733 0.44886 0.0
C1496 C 0.44982 0.56633 0.4708 0.0
C1497 C 0.43494 0.57457 0.43557 0.0
C1498 C 0.43381 0.58544 0.41104 0.0
C1499 C 0.44234 0.58966 0.38001 0.0
C1500 C 0.44132 0.60001 0.35715 0.0
C1501 C 0.43171 0.60614 0.36492 0.0
C1502 C 0.42308 0.60189 0.39552 0.0
C1503 C 0.42407 0.59156 0.41849 0.0
H1504 H 0.43094 0.61415 0.34719 0.0
H1505 H 0.44027 0.51376 0.57038 0.0
H1506 H 0.88955 0.49665 0.54762 0.0
H1507 H 0.89079 0.47331 0.56074 0.0
H1508 H 0.85175 0.45791 0.62996 0.0
H1509 H 0.85107 0.4817 0.61878 0.0
H1510 H 0.87209 0.45206 0.65756 0.0
H1511 H 0.84811 0.44326 0.54595 0.0
H1512 H 0.84577 0.44906 0.48496 0.0
H1513 H 0.88757 0.44842 0.46018 0.0
H1514 H 0.89027 0.44282 0.52115 0.0
H1515 H 0.84861 0.37176 0.66217 0.0
H1516 H 0.8495 0.39641 0.65059 0.0
H1517 H 0.89315 0.41325 0.5973 0.0
H1518 H 0.8923 0.38856 0.60871 0.0
H1519 H 0.87134 0.41853 0.56166 0.0
H1520 H 0.89407 0.42608 0.67492 0.0
H1521 H 0.89498 0.41927 0.73586 0.0
H1522 H 0.85349 0.42105 0.75725 0.0
H1523 H 0.85221 0.42765 0.69628 0.0
C1524 C 0.88138 0.48844 0.56609 0.0
C1525 C 0.87014 0.49106 0.58197 0.0
C1526 C 0.88197 0.47498 0.57321 0.0
C1527 C 0.87117 0.46369 0.59582 0.0
C1528 C 0.86015 0.4664 0.61224 0.0
C1529 C 0.85967 0.47995 0.60548 0.0
C1530 C 0.87127 0.44902 0.60225 0.0
C1531 C 0.87174 0.44465 0.63657 0.0
C1532 C 0.87109 0.43946 0.57487 0.0
C1533 C 0.86948 0.44278 0.53818 0.0
C1534 C 0.85686 0.44447 0.52754 0.0
C1535 C 0.85546 0.4477 0.49297 0.0
C1536 C 0.86654 0.44915 0.46873 0.0
C1537 C 0.87902 0.44732 0.479 0.0
C1538 C 0.88048 0.44411 0.51355 0.0
C1539 C 0.85834 0.38069 0.64779 0.0
C1540 C 0.87039 0.37828 0.63634 0.0
C1541 C 0.85888 0.39477 0.64141 0.0
C1542 C 0.87145 0.40665 0.62333 0.0
C1543 C 0.88339 0.40421 0.61138 0.0
C1544 C 0.88293 0.39017 0.61806 0.0
C1545 C 0.87207 0.42161 0.61684 0.0
C1546 C 0.87174 0.426 0.58255 0.0
C1547 C 0.87216 0.43108 0.64422 0.0
C1548 C 0.87297 0.42721 0.68095 0.0
C1549 C 0.88507 0.42489 0.69255 0.0
C1550 C 0.88567 0.42109 0.72711 0.0
C1551 C 0.87428 0.41969 0.75039 0.0
C1552 C 0.8623 0.42213 0.73918 0.0
C1553 C 0.86164 0.42591 0.70463 0.0
H1554 H 0.87476 0.41675 0.77714 0.0
H1555 H 0.86544 0.45165 0.44197 0.0
H1556 H 0.37383 0.86741 0.81873 0.0
H1557 H 0.39781 0.867 0.83139 0.0
H1558 H 0.41138 0.87677 0.72429 0.0
H1559 H 0.38745 0.87723 0.71149 0.0
H1560 H 0.41454 0.85217 0.75321 0.0
H1561 H 0.4284 0.90503 0.77823 0.0
H1562 H 0.4252 0.92554 0.80626 0.0
H1563 H 0.42905 0.90894 0.90622 0.0
H1564 H 0.43204 0.88818 0.87876 0.0
H1565 H 0.49293 0.8706 0.76756 0.0
H1566 H 0.469 0.87099 0.7551 0.0
H1567 H 0.45976 0.86972 0.86449 0.0
H1568 H 0.48388 0.86969 0.87702 0.0
H1569 H 0.45402 0.8898 0.83459 0.0
H1570 H 0.44013 0.83713 0.81159 0.0
H1571 H 0.44263 0.8159 0.78519 0.0
H1572 H 0.43788 0.83087 0.68403 0.0
H1573 H 0.43557 0.85233 0.70981 0.0
C1574 C 0.38192 0.86943 0.79792 0.0
C1575 C 0.37885 0.87242 0.76418 0.0
C1576 C 0.39561 0.86926 0.80519 0.0
C1577 C 0.40635 0.87193 0.77878 0.0
C1578 C 0.40322 0.87471 0.74499 0.0
C1579 C 0.38963 0.87507 0.73779 0.0
C1580 C 0.42088 0.87183 0.78639 0.0
C1581 C 0.42329 0.8605 0.77066 0.0
C1582 C 0.43202 0.88244 0.80989 0.0
C1583 C 0.43028 0.89495 0.82644 0.0
C1584 C 0.42842 0.90567 0.80619 0.0
C1585 C 0.42668 0.91735 0.82198 0.0
C1586 C 0.42688 0.91852 0.858 0.0
C1587 C 0.42887 0.90801 0.87832 0.0
C1588 C 0.43061 0.89629 0.86266 0.0
C1589 C 0.48573 0.87032 0.7889 0.0
C1590 C 0.49022 0.87007 0.82325 0.0
C1591 C 0.47205 0.87051 0.78178 0.0
C1592 C 0.46245 0.87014 0.80886 0.0
C1593 C 0.46698 0.87001 0.84318 0.0
C1594 C 0.48075 0.87 0.85032 0.0
C1595 C 0.44777 0.87011 0.80142 0.0
C1596 C 0.4453 0.88142 0.81718 0.0
C1597 C 0.43649 0.85935 0.77821 0.0
C1598 C 0.43783 0.84643 0.76262 0.0
C1599 C 0.43974 0.83597 0.7837 0.0
C1600 C 0.4411 0.82388 0.76885 0.0
C1601 C 0.44045 0.82206 0.73295 0.0
C1602 C 0.4384 0.8323 0.71183 0.0
C1603 C 0.43705 0.84442 0.72655 0.0
H1604 H 0.44151 0.8127 0.72151 0.0
H1605 H 0.42553 0.92758 0.87018 0.0
H1606 H 0.52205 0.36832 0.90715 0.0
H1607 H 0.54627 0.39258 0.9176 0.0
H1608 H 0.5205 0.41654 0.93147 0.0
H1609 H 0.49619 0.39228 0.92114 0.0
H1610 H 0.54567 0.43286 0.89079 0.0
H1611 H 0.53491 0.4068 0.00063 0.0
H1612 H 0.52898 0.385 0.03997 0.0
H1613 H 0.57162 0.38685 0.01124 0.0
H1614 H 0.57771 0.40854 0.97135 0.0
H1615 H 0.60432 0.50161 0.96925 0.0
H1616 H 0.58069 0.47723 0.95622 0.0
H1617 H 0.60756 0.45424 0.94565 0.0
H1618 H 0.63121 0.47848 0.96008 0.0
H1619 H 0.58215 0.43722 0.98352 0.0
H1620 H 0.59327 0.46359 0.87462 0.0
H1621 H 0.59928 0.48534 0.83509 0.0
H1622 H 0.55613 0.48288 0.86155 0.0
H1623 H 0.54996 0.46124 0.90163 0.0
C1624 C 0.52152 0.37872 0.91278 0.0
C1625 C 0.5072 0.37837 0.91351 0.0
C1626 C 0.53537 0.39257 0.91866 0.0
C1627 C 0.53516 0.40632 0.92567 0.0
C1628 C 0.52091 0.40605 0.92607 0.0
C1629 C 0.50705 0.3922 0.9201 0.0
C1630 C 0.54982 0.421 0.93241 0.0
C1631 C 0.55356 0.43389 0.91134 0.0
C1632 C 0.56029 0.42218 0.95864 0.0
C1633 C 0.55669 0.40919 0.98275 0.0
C1634 C 0.54297 0.40248 0.0025 0.0
C1635 C 0.53958 0.39016 0.02494 0.0
C1636 C 0.54989 0.38452 0.02804 0.0
C1637 C 0.56363 0.39122 0.00878 0.0
C1638 C 0.56706 0.40353 0.98628 0.0
C1639 C 0.60521 0.49135 0.96436 0.0
C1640 C 0.61966 0.49199 0.96576 0.0
C1641 C 0.5917 0.47746 0.95654 0.0
C1642 C 0.59238 0.46396 0.94958 0.0
C1643 C 0.60678 0.46455 0.95082 0.0
C1644 C 0.62031 0.47844 0.95875 0.0
C1645 C 0.57799 0.44913 0.94197 0.0
C1646 C 0.57429 0.4362 0.96289 0.0
C1647 C 0.56757 0.44791 0.91556 0.0
C1648 C 0.57122 0.46088 0.89137 0.0
C1649 C 0.58512 0.46776 0.87222 0.0
C1650 C 0.58854 0.48006 0.84967 0.0
C1651 C 0.57811 0.48551 0.84587 0.0
C1652 C 0.56421 0.47865 0.86455 0.0
C1653 C 0.56074 0.46636 0.88715 0.0
H1654 H 0.58078 0.49504 0.82841 0.0
H1655 H 0.54725 0.37497 0.04542 0.0
H1656 H 0.27422 0.45565 0.70526 0.0
H1657 H 0.25849 0.45672 0.75265 0.0
H1658 H 0.22003 0.4432 0.68267 0.0
H1659 H 0.23581 0.44236 0.63492 0.0
H1660 H 0.22377 0.46639 0.72914 0.0
H1661 H 0.22031 0.41641 0.73097 0.0
H1662 H 0.23069 0.39848 0.73175 0.0
H1663 H 0.25363 0.41791 0.8282 0.0
H1664 H 0.24357 0.43614 0.82772 0.0
H1665 H 0.1623 0.4384 0.85199 0.0
H1666 H 0.17942 0.44131 0.80364 0.0
H1667 H 0.21667 0.45157 0.87514 0.0
H1668 H 0.19948 0.44819 0.92366 0.0
H1669 H 0.21394 0.43068 0.82778 0.0
H1670 H 0.21669 0.48018 0.82705 0.0
H1671 H 0.20633 0.49813 0.82615 0.0
H1672 H 0.1847 0.47972 0.72803 0.0
H1673 H 0.19475 0.4615 0.72857 0.0
C1674 C 0.26252 0.4532 0.69982 0.0
C1675 C 0.2562 0.44884 0.66645 0.0
C1676 C 0.25352 0.45371 0.72694 0.0
C1677 C 0.23806 0.44986 0.72116 0.0
C1678 C 0.23193 0.44616 0.68761 0.0
C1679 C 0.2409 0.44558 0.66047 0.0
C1680 C 0.22807 0.44889 0.75049 0.0
C1681 C 0.22146 0.45848 0.75057 0.0
C1682 C 0.22534 0.43876 0.77866 0.0
C1683 C 0.23133 0.42775 0.77912 0.0
C1684 C 0.22768 0.41695 0.7522 0.0
C1685 C 0.23349 0.40672 0.75261 0.0
C1686 C 0.24285 0.40709 0.77996 0.0
C1687 C 0.2464 0.41766 0.807 0.0
C1688 C 0.24064 0.42794 0.80668 0.0
C1689 C 0.17412 0.44121 0.85741 0.0
C1690 C 0.17955 0.44306 0.89163 0.0
C1691 C 0.18393 0.44303 0.82975 0.0
C1692 C 0.19936 0.44682 0.83581 0.0
C1693 C 0.20482 0.44871 0.86992 0.0
C1694 C 0.19502 0.44689 0.89758 0.0
C1695 C 0.20965 0.44825 0.80664 0.0
C1696 C 0.21628 0.43867 0.8065 0.0
C1697 C 0.21238 0.4584 0.77847 0.0
C1698 C 0.20635 0.46937 0.77802 0.0
C1699 C 0.20962 0.47987 0.80541 0.0
C1700 C 0.20382 0.49011 0.80494 0.0
C1701 C 0.19483 0.49004 0.77709 0.0
C1702 C 0.19165 0.47975 0.74961 0.0
C1703 C 0.19741 0.46947 0.74997 0.0
H1704 H 0.19036 0.49798 0.77677 0.0
H1705 H 0.24733 0.39915 0.78023 0.0
H1706 H 0.76427 0.18838 0.077 0.0
H1707 H 0.77998 0.2062 0.03121 0.0
H1708 H 0.74455 0.21836 0.01332 0.0
H1709 H 0.72888 0.20089 0.05997 0.0
H1710 H 0.75491 0.21054 0.95302 0.0
H1711 H 0.77649 0.24402 0.05122 0.0
H1712 H 0.78796 0.25132 0.1095 0.0
H1713 H 0.82669 0.24663 0.07667 0.0
H1714 H 0.81534 0.23907 0.0183 0.0
H1715 H 0.80104 0.26905 0.83122 0.0
H1716 H 0.78475 0.25555 0.88128 0.0
H1717 H 0.82002 0.24596 0.91884 0.0
H1718 H 0.83648 0.25981 0.86936 0.0
H1719 H 0.8087 0.25402 0.97051 0.0
H1720 H 0.78678 0.21831 0.87537 0.0
H1721 H 0.77551 0.20979 0.81721 0.0
H1722 H 0.7378 0.21722 0.84412 0.0
H1723 H 0.74896 0.22599 0.90234 0.0
C1724 C 0.75991 0.19506 0.06388 0.0
C1725 C 0.74531 0.19322 0.0723 0.0
C1726 C 0.76889 0.20518 0.03759 0.0
C1727 C 0.76344 0.21364 0.01911 0.0
C1728 C 0.74892 0.2119 0.02734 0.0
C1729 C 0.73996 0.20186 0.05387 0.0
C1730 C 0.77275 0.22386 0.99034 0.0
C1731 C 0.76657 0.22024 0.95684 0.0
C1732 C 0.78808 0.23622 0.99541 0.0
C1733 C 0.79499 0.24086 0.03044 0.0
C1734 C 0.78739 0.24443 0.05649 0.0
C1735 C 0.79388 0.24863 0.08954 0.0
C1736 C 0.80803 0.24941 0.0968 0.0
C1737 C 0.81573 0.24601 0.07101 0.0
C1738 C 0.80928 0.24179 0.03793 0.0
C1739 C 0.80527 0.26404 0.85021 0.0
C1740 C 0.81996 0.2654 0.84645 0.0
C1741 C 0.79597 0.25632 0.87874 0.0
C1742 C 0.80107 0.24954 0.90356 0.0
C1743 C 0.81586 0.25112 0.90006 0.0
C1744 C 0.82524 0.25902 0.87181 0.0
C1745 C 0.79096 0.24059 0.93296 0.0
C1746 C 0.79699 0.24443 0.96663 0.0
C1747 C 0.77555 0.22829 0.928 0.0
C1748 C 0.76879 0.22297 0.89306 0.0
C1749 C 0.77614 0.21824 0.86879 0.0
C1750 C 0.76977 0.21335 0.83584 0.0
C1751 C 0.75597 0.21301 0.82694 0.0
C1752 C 0.7485 0.21752 0.85103 0.0
C1753 C 0.75484 0.22244 0.88401 0.0
H1754 H 0.75106 0.20922 0.80141 0.0
H1755 H 0.81303 0.25266 0.1224 0.0
H1756 H 0.57738 0.75116 0.21946 0.0
H1757 H 0.57479 0.76573 0.1717 0.0
H1758 H 0.52504 0.73564 0.17304 0.0
H1759 H 0.52758 0.72062 0.22033 0.0
H1760 H 0.53661 0.74132 0.10734 0.0
H1761 H 0.54055 0.77128 0.20723 0.0
H1762 H 0.55171 0.78498 0.26209 0.0
H1763 H 0.59434 0.81608 0.2102 0.0
H1764 H 0.58352 0.80241 0.15509 0.0
H1765 H 0.52637 0.79337 0.99568 0.0
H1766 H 0.52451 0.77675 0.04443 0.0
H1767 H 0.57434 0.80275 0.05621 0.0
H1768 H 0.57625 0.8196 0.00839 0.0
H1769 H 0.55972 0.79843 0.11734 0.0
H1770 H 0.55643 0.76711 0.01868 0.0
H1771 H 0.54538 0.75328 0.96386 0.0
H1772 H 0.50142 0.7248 0.01365 0.0
H1773 H 0.51217 0.73861 0.06869 0.0
C1774 C 0.56589 0.74751 0.20937 0.0
C1775 C 0.55268 0.73473 0.22367 0.0
C1776 C 0.56442 0.75595 0.18231 0.0
C1777 C 0.54971 0.75189 0.16918 0.0
C1778 C 0.53649 0.739 0.18298 0.0
C1779 C 0.53795 0.73053 0.21012 0.0
C1780 C 0.54827 0.76116 0.14098 0.0
C1781 C 0.54141 0.75377 0.10969 0.0
C1782 C 0.55471 0.77742 0.14399 0.0
C1783 C 0.56125 0.78574 0.17707 0.0
C1784 C 0.55234 0.78096 0.20756 0.0
C1785 C 0.5586 0.78874 0.2387 0.0
C1786 C 0.57374 0.80137 0.23965 0.0
C1787 C 0.58263 0.80628 0.20943 0.0
C1788 C 0.57642 0.79854 0.17823 0.0
C1789 C 0.53691 0.79555 0.00876 0.0
C1790 C 0.55146 0.80774 0.99809 0.0
C1791 C 0.53584 0.78599 0.0364 0.0
C1792 C 0.54931 0.78847 0.05375 0.0
C1793 C 0.56382 0.80063 0.04313 0.0
C1794 C 0.56489 0.81015 0.01557 0.0
C1795 C 0.54841 0.77865 0.08344 0.0
C1796 C 0.55479 0.78596 0.11509 0.0
C1797 C 0.54151 0.76233 0.08073 0.0
C1798 C 0.53505 0.75401 0.04769 0.0
C1799 C 0.54437 0.75799 0.01786 0.0
C1800 C 0.53817 0.75014 0.98677 0.0
C1801 C 0.52269 0.7382 0.98524 0.0
C1802 C 0.5134 0.73407 0.01485 0.0
C1803 C 0.51954 0.7419 0.046 0.0
H1804 H 0.51791 0.73214 0.96115 0.0
H1805 H 0.57856 0.80738 0.26378 0.0
H1806 H 0.8082 0.57504 0.41052 0.0
H1807 H 0.79001 0.57279 0.36546 0.0
H1808 H 0.78604 0.52963 0.33155 0.0
H1809 H 0.80406 0.53162 0.37708 0.0
H1810 H 0.79096 0.54971 0.2778 0.0
H1811 H 0.75676 0.52885 0.37505 0.0
H1812 H 0.74801 0.52858 0.43485 0.0
H1813 H 0.74593 0.56998 0.41473 0.0
H1814 H 0.75489 0.57063 0.35493 0.0
H1815 H 0.72973 0.53305 0.16033 0.0
H1816 H 0.74465 0.53091 0.20824 0.0
H1817 H 0.74854 0.57224 0.25439 0.0
H1818 H 0.73349 0.57431 0.2068 0.0
H1819 H 0.74257 0.55093 0.30249 0.0
H1820 H 0.77849 0.57322 0.20778 0.0
H1821 H 0.78797 0.57449 0.14826 0.0
H1822 H 0.78761 0.53154 0.16387 0.0
H1823 H 0.77791 0.52991 0.22336 0.0
C1824 C 0.80328 0.56493 0.39387 0.0
C1825 C 0.80755 0.55347 0.39749 0.0
C1826 C 0.79292 0.5637 0.36806 0.0
C1827 C 0.78658 0.55097 0.34542 0.0
C1828 C 0.79082 0.53953 0.34881 0.0
C1829 C 0.80116 0.54073 0.37472 0.0
C1830 C 0.77589 0.54991 0.31757 0.0
C1831 C 0.78023 0.54969 0.28316 0.0
C1832 C 0.76211 0.55027 0.32468 0.0
C1833 C 0.75662 0.54986 0.36058 0.0
C1834 C 0.75455 0.53797 0.38345 0.0
C1835 C 0.74953 0.53773 0.41733 0.0
C1836 C 0.74645 0.54927 0.4286 0.0
C1837 C 0.74834 0.56105 0.40597 0.0
C1838 C 0.75337 0.56135 0.37207 0.0
C1839 C 0.73378 0.54167 0.18071 0.0
C1840 C 0.73051 0.55388 0.1798 0.0
C1841 C 0.74229 0.54044 0.20804 0.0
C1842 C 0.74788 0.55154 0.23464 0.0
C1843 C 0.74432 0.56354 0.23416 0.0
C1844 C 0.73571 0.5647 0.207 0.0
C1845 C 0.75771 0.55089 0.26265 0.0
C1846 C 0.75322 0.55081 0.2971 0.0
C1847 C 0.77143 0.55037 0.25559 0.0
C1848 C 0.77731 0.55136 0.21987 0.0
C1849 C 0.78032 0.56399 0.19842 0.0
C1850 C 0.78575 0.56478 0.16471 0.0
C1851 C 0.78835 0.55308 0.15226 0.0
C1852 C 0.78556 0.54058 0.17353 0.0
C1853 C 0.78011 0.53972 0.20725 0.0
H1854 H 0.79256 0.55372 0.12615 0.0
H1855 H 0.74257 0.54908 0.45485 0.0
H1856 H 0.21063 0.74644 0.31273 0.0
H1857 H 0.22729 0.76257 0.36039 0.0
H1858 H 0.18671 0.75544 0.41643 0.0
H1859 H 0.17004 0.73903 0.36936 0.0
H1860 H 0.21341 0.78828 0.40823 0.0
H1861 H 0.20009 0.73627 0.44463 0.0
H1862 H 0.19842 0.71088 0.43648 0.0
H1863 H 0.24787 0.73354 0.42269 0.0
H1864 H 0.2498 0.7591 0.43023 0.0
H1865 H 0.24126 0.81765 0.57337 0.0
H1866 H 0.22652 0.80134 0.52494 0.0
H1867 H 0.26606 0.79728 0.49388 0.0
H1868 H 0.28056 0.81266 0.54393 0.0
H1869 H 0.24124 0.77067 0.48617 0.0
H1870 H 0.25582 0.82221 0.45214 0.0
H1871 H 0.25875 0.84827 0.45734 0.0
H1872 H 0.20919 0.82803 0.4621 0.0
H1873 H 0.20595 0.80182 0.45743 0.0
C1874 C 0.20534 0.74832 0.33531 0.0
C1875 C 0.18912 0.7415 0.33766 0.0
C1876 C 0.2148 0.75747 0.3624 0.0
C1877 C 0.20815 0.76011 0.39176 0.0
C1878 C 0.19199 0.75348 0.3939 0.0
C1879 C 0.18252 0.74409 0.3672 0.0
C1880 C 0.21803 0.76986 0.42034 0.0
C1881 C 0.21941 0.78443 0.42555 0.0
C1882 C 0.22621 0.76495 0.44196 0.0
C1883 C 0.22506 0.7496 0.43755 0.0
C1884 C 0.21059 0.73585 0.43949 0.0
C1885 C 0.2096 0.72142 0.43507 0.0
C1886 C 0.22303 0.7206 0.42895 0.0
C1887 C 0.23748 0.7342 0.42735 0.0
C1888 C 0.23852 0.74865 0.43172 0.0
C1889 C 0.24678 0.81307 0.55672 0.0
C1890 C 0.26216 0.81653 0.56266 0.0
C1891 C 0.23839 0.80393 0.52861 0.0
C1892 C 0.24529 0.79837 0.50527 0.0
C1893 C 0.26053 0.80155 0.51138 0.0
C1894 C 0.26886 0.8105 0.53984 0.0
C1895 C 0.23654 0.78917 0.47463 0.0
C1896 C 0.23537 0.77467 0.46886 0.0
C1897 C 0.22877 0.79429 0.45206 0.0
C1898 C 0.23065 0.81004 0.45473 0.0
C1899 C 0.24554 0.82331 0.45454 0.0
C1900 C 0.24726 0.83811 0.45736 0.0
C1901 C 0.23417 0.8398 0.46012 0.0
C1902 C 0.21932 0.8267 0.45999 0.0
C1903 C 0.21754 0.81187 0.45722 0.0
H1904 H 0.23552 0.85127 0.4623 0.0
H1905 H 0.22224 0.70942 0.42555 0.0
H1906 H 0.45116 0.27802 0.68019 0.0
H1907 H 0.45257 0.26291 0.63183 0.0
H1908 H 0.44278 0.22513 0.70124 0.0
H1909 H 0.44109 0.24002 0.7496 0.0
H1910 H 0.46643 0.23111 0.65549 0.0
H1911 H 0.41449 0.22336 0.65217 0.0
H1912 H 0.39501 0.2318 0.65 0.0
H1913 H 0.41381 0.25485 0.55331 0.0
H1914 H 0.43355 0.24673 0.55517 0.0
H1915 H 0.44261 0.1684 0.53936 0.0
H1916 H 0.4446 0.18613 0.58536 0.0
H1917 H 0.4502 0.22026 0.50908 0.0
H1918 H 0.44801 0.20243 0.46287 0.0
H1919 H 0.43003 0.21765 0.55672 0.0
H1920 H 0.48113 0.22437 0.55796 0.0
H1921 H 0.50075 0.21611 0.55988 0.0
H1922 H 0.48409 0.19551 0.65968 0.0
H1923 H 0.46422 0.20345 0.65816 0.0
C1924 C 0.44923 0.26647 0.68514 0.0
C1925 C 0.44595 0.2602 0.71873 0.0
C1926 C 0.4501 0.25788 0.65752 0.0
C1927 C 0.44765 0.24287 0.66298 0.0
C1928 C 0.44475 0.23672 0.69655 0.0
C1929 C 0.44385 0.24527 0.72417 0.0
C1930 C 0.44775 0.23339 0.63361 0.0
C1931 C 0.45839 0.22803 0.63401 0.0
C1932 C 0.43752 0.22976 0.60524 0.0
C1933 C 0.4256 0.23458 0.604 0.0
C1934 C 0.41455 0.23034 0.63059 0.0
C1935 C 0.40344 0.23504 0.62939 0.0
C1936 C 0.4032 0.24389 0.60158 0.0
C1937 C 0.41403 0.24802 0.57486 0.0
C1938 C 0.42517 0.24336 0.57597 0.0
C1939 C 0.44445 0.17975 0.53243 0.0
C1940 C 0.44521 0.18407 0.49757 0.0
C1941 C 0.4456 0.18988 0.55872 0.0
C1942 C 0.44776 0.20461 0.55067 0.0
C1943 C 0.44855 0.20896 0.51586 0.0
C1944 C 0.44727 0.19877 0.48953 0.0
C1945 C 0.44867 0.21524 0.5786 0.0
C1946 C 0.43819 0.22082 0.57799 0.0
C1947 C 0.4591 0.21912 0.60671 0.0
C1948 C 0.4711 0.2144 0.60781 0.0
C1949 C 0.48158 0.21798 0.58021 0.0
C1950 C 0.49275 0.21337 0.58124 0.0
C1951 C 0.49365 0.20526 0.60985 0.0
C1952 C 0.48338 0.20178 0.63753 0.0
C1953 C 0.47217 0.20635 0.63661 0.0
H1954 H 0.50231 0.2017 0.6106 0.0
H1955 H 0.39459 0.24752 0.60069 0.0
H1956 H 0.05696 0.36611 0.92727 0.0
H1957 H 0.03549 0.3538 0.88651 0.0
H1958 H 0.01155 0.37371 0.94033 0.0
H1959 H 0.0325 0.3852 0.98275 0.0
H1960 H 0.99139 0.34589 0.91907 0.0
H1961 H 0.03407 0.39081 0.86691 0.0
H1962 H 0.06118 0.40752 0.8479 0.0
H1963 H 0.05739 0.37121 0.78133 0.0
H1964 H 0.03031 0.3542 0.80033 0.0
H1965 H 0.94474 0.34869 0.78507 0.0
H1966 H 0.96595 0.3569 0.82664 0.0
H1967 H 0.98011 0.32703 0.77736 0.0
H1968 H 0.95879 0.31871 0.73549 0.0
H1969 H 0.00507 0.35808 0.79509 0.0
H1970 H 0.96075 0.31402 0.84613 0.0
H1971 H 0.93338 0.29895 0.8646 0.0
H1972 H 0.94014 0.33583 0.93301 0.0
H1973 H 0.9675 0.35124 0.91453 0.0
C1974 C 0.04696 0.36754 0.93113 0.0
C1975 C 0.04656 0.3768 0.95822 0.0
C1976 C 0.03477 0.36066 0.90743 0.0
C1977 C 0.02211 0.36317 0.90983 0.0
C1978 C 0.02129 0.37174 0.93776 0.0
C1979 C 0.03337 0.37844 0.9618 0.0
C1980 C 0.01008 0.3575 0.88242 0.0
C1981 C 0.9944 0.34866 0.89202 0.0
C1982 C 0.01399 0.36093 0.847 0.0
C1983 C 0.03023 0.37118 0.83532 0.0
C1984 C 0.03906 0.38635 0.8484 0.0
C1985 C 0.05441 0.39588 0.8376 0.0
C1986 C 0.06102 0.39042 0.81349 0.0
C1987 C 0.05226 0.37542 0.80005 0.0
C1988 C 0.03691 0.36583 0.81081 0.0
C1989 C 0.95255 0.3441 0.78267 0.0
C1990 C 0.95021 0.33313 0.757 0.0
C1991 C 0.96456 0.34869 0.80658 0.0
C1992 C 0.97445 0.34244 0.80514 0.0
C1993 C 0.97253 0.33192 0.77882 0.0
C1994 C 0.96038 0.32717 0.75507 0.0
C1995 C 0.98649 0.34663 0.8319 0.0
C1996 C 0.00214 0.3552 0.82214 0.0
C1997 C 0.98254 0.34317 0.86719 0.0
C1998 C 0.96615 0.33384 0.87872 0.0
C1999 C 0.95637 0.31897 0.86492 0.0
C2000 C 0.94086 0.31036 0.87542 0.0
C2001 C 0.93501 0.31644 0.89991 0.0
C2002 C 0.94468 0.33114 0.91402 0.0
C2003 C 0.9602 0.33981 0.90357 0.0
H2004 H 0.923 0.30976 0.90799 0.0
H2005 H 0.07291 0.39781 0.80517 0.0
H2006 H 0.61331 0.93286 0.00755 0.0
H2007 H 0.62664 0.95637 0.04269 0.0
H2008 H 0.63567 0.98451 0.95129 0.0
H2009 H 0.62257 0.96098 0.91578 0.0
H2010 H 0.66121 0.99554 0.99566 0.0
H2011 H 0.60659 0.97864 0.00175 0.0
H2012 H 0.57895 0.95976 0.01232 0.0
H2013 H 0.58928 0.95487 0.11784 0.0
H2014 H 0.61704 0.97357 0.10774 0.0
H2015 H 0.67728 0.06684 0.07094 0.0
H2016 H 0.66693 0.04282 0.03773 0.0
H2017 H 0.65473 0.01637 0.1325 0.0
H2018 H 0.66499 0.04045 0.16595 0.0
H2019 H 0.6314 0.00389 0.08787 0.0
H2020 H 0.68575 0.0215 0.08328 0.0
H2021 H 0.71349 0.04012 0.07321 0.0
H2022 H 0.70411 0.04342 0.96611 0.0
H2023 H 0.67625 0.02498 0.97563 0.0
C2024 C 0.61833 0.94405 0.99485 0.0
C2025 C 0.6169 0.9451 0.95892 0.0
C2026 C 0.62583 0.95745 0.01499 0.0
C2027 C 0.63199 0.97213 -0.00043 0.0
C2028 C 0.63095 0.97326 0.96362 0.0
C2029 C 0.62338 0.95984 0.94344 0.0
C2030 C 0.63908 0.98629 0.02115 0.0
C2031 C 0.65469 0.99748 0.01559 0.0
C2032 C 0.63062 0.98854 0.04771 0.0
C2033 C 0.61391 0.97738 0.05389 0.0
C2034 C 0.60299 0.97345 0.02713 0.0
C2035 C 0.5873 0.96279 0.03305 0.0
C2036 C 0.58237 0.95609 0.06571 0.0
C2037 C 0.59312 0.96006 0.09254 0.0
C2038 C 0.60883 0.97069 0.08674 0.0
C2039 C 0.6726 0.05592 0.08471 0.0
C2040 C 0.67202 0.0555 0.12103 0.0
C2041 C 0.66669 0.04221 0.06571 0.0
C2042 C 0.66026 0.02782 0.08265 0.0
C2043 C 0.65968 0.02736 0.11893 0.0
C2044 C 0.6655 0.04109 0.13798 0.0
C2045 C 0.65359 0.01325 0.06238 0.0
C2046 C 0.63802 0.00195 0.06813 0.0
C2047 C 0.66212 0.01089 0.03612 0.0
C2048 C 0.67888 0.02195 0.03025 0.0
C2049 C 0.68958 0.02628 0.05763 0.0
C2050 C 0.70533 0.03679 0.05202 0.0
C2051 C 0.71056 0.04298 0.01906 0.0
C2052 C 0.70004 0.03863 0.99164 0.0
C2053 C 0.68427 0.02814 0.99712 0.0
H2054 H 0.72276 0.05111 0.01477 0.0
H2055 H 0.57022 0.94784 0.07024 0.0
H2056 H 0.68967 0.63717 0.10967 0.0
H2057 H 0.68173 0.65099 0.14924 0.0
H2058 H 0.63432 0.62324 0.11458 0.0
H2059 H 0.64232 0.61006 0.07323 0.0
H2060 H 0.64017 0.65147 0.12829 0.0
H2061 H 0.64829 0.61335 0.18677 0.0
H2062 H 0.66329 0.60081 0.20413 0.0
H2063 H 0.69717 0.64296 0.25351 0.0
H2064 H 0.68247 0.65582 0.23598 0.0
H2065 H 0.59734 0.64951 0.27472 0.0
H2066 H 0.60985 0.6413 0.23185 0.0
H2067 H 0.65478 0.67864 0.26304 0.0
H2068 H 0.64228 0.68699 0.30613 0.0
H2069 H 0.65239 0.64826 0.25149 0.0
H2070 H 0.64152 0.68517 0.19606 0.0
H2071 H 0.62476 0.69592 0.18 0.0
H2072 H 0.59401 0.65378 0.12609 0.0
H2073 H 0.61046 0.64268 0.14234 0.0
C2074 C 0.67764 0.63433 0.10957 0.0
C2075 C 0.66659 0.62233 0.08854 0.0
C2076 C 0.67309 0.64212 0.13259 0.0
C2077 C 0.65737 0.63784 0.13555 0.0
C2078 C 0.64649 0.62662 0.113 0.0
C2079 C 0.65106 0.61898 0.08961 0.0
C2080 C 0.65204 0.64418 0.16368 0.0
C2081 C 0.64279 0.6507 0.15521 0.0
C2082 C 0.65563 0.64335 0.19883 0.0
C2083 C 0.66438 0.63559 0.20974 0.0
C2084 C 0.65899 0.61997 0.20114 0.0
C2085 C 0.66743 0.6128 0.21102 0.0
C2086 C 0.6812 0.62109 0.22982 0.0
C2087 C 0.68652 0.63656 0.23888 0.0
C2088 C 0.67814 0.64379 0.22899 0.0
C2089 C 0.6099 0.65577 0.27298 0.0
C2090 C 0.61887 0.66886 0.29372 0.0
C2091 C 0.617 0.65115 0.24833 0.0
C2092 C 0.63318 0.65949 0.24418 0.0
C2093 C 0.64226 0.67212 0.26591 0.0
C2094 C 0.63513 0.67688 0.29036 0.0
C2095 C 0.64044 0.65534 0.21599 0.0
C2096 C 0.64999 0.64921 0.2245 0.0
C2097 C 0.63694 0.6563 0.18095 0.0
C2098 C 0.62716 0.66305 0.17066 0.0
C2099 C 0.63112 0.67815 0.181 0.0
C2100 C 0.62169 0.68431 0.17183 0.0
C2101 C 0.60831 0.67552 0.1521 0.0
C2102 C 0.60437 0.66057 0.1414 0.0
C2103 C 0.61375 0.65434 0.15055 0.0
H2104 H 0.60102 0.68031 0.14504 0.0
H2105 H 0.68772 0.61553 0.23744 0.0
H2106 H 0.06475 0.66487 0.33885 0.0
H2107 H 0.04128 0.65489 0.37354 0.0
H2108 H 0.01853 0.66505 0.29094 0.0
H2109 H 0.0424 0.67594 0.25656 0.0
H2110 H 0.01154 0.67252 0.35177 0.0
H2111 H 0.0113 0.62801 0.30487 0.0
H2112 H 0.02186 0.61089 0.29082 0.0
H2113 H 0.02679 0.60457 0.39899 0.0
H2114 H 0.01646 0.62185 0.4137 0.0
H2115 H 0.93445 0.62062 0.41329 0.0
H2116 H 0.95832 0.63393 0.37942 0.0
H2117 H 0.98426 0.63043 0.46491 0.0
H2118 H 0.96051 0.61757 0.49957 0.0
H2119 H 0.98906 0.61956 0.40139 0.0
H2120 H 0.98872 0.66445 0.44701 0.0
H2121 H 0.97729 0.681 0.45903 0.0
H2122 H 0.97211 0.68557 0.35013 0.0
H2123 H 0.98331 0.66885 0.33747 0.0
C2124 C 0.05488 0.66528 0.32818 0.0
C2125 C 0.05549 0.67125 0.29487 0.0
C2126 C 0.04138 0.65936 0.34793 0.0
C2127 C 0.02807 0.65897 0.3346 0.0
C2128 C 0.02866 0.66516 0.30163 0.0
C2129 C 0.04225 0.67124 0.28191 0.0
C2130 C 0.01353 0.65194 0.3551 0.0
C2131 C 0.00649 0.66086 0.36221 0.0
C2132 C 0.00708 0.6368 0.36911 0.0
C2133 C 0.01324 0.62634 0.36038 0.0
C2134 C 0.01474 0.62307 0.32566 0.0
C2135 C 0.02067 0.61332 0.31758 0.0
C2136 C 0.02502 0.60667 0.34399 0.0
C2137 C 0.02342 0.60974 0.37855 0.0
C2138 C 0.01752 0.6195 0.38678 0.0
C2139 C 0.94527 0.623 0.42528 0.0
C2140 C 0.94555 0.61804 0.45924 0.0
C2141 C 0.95888 0.63053 0.40577 0.0
C2142 C 0.97301 0.63318 0.41976 0.0
C2143 C 0.97342 0.62844 0.4537 0.0
C2144 C 0.95983 0.62103 0.47337 0.0
C2145 C 0.98722 0.6402 0.39834 0.0
C2146 C 0.99414 0.63122 0.39094 0.0
C2147 C 0.9934 0.65518 0.38374 0.0
C2148 C 0.98671 0.66527 0.39131 0.0
C2149 C 0.98502 0.66887 0.42563 0.0
C2150 C 0.97861 0.6783 0.43256 0.0
C2151 C 0.97394 0.6843 0.40536 0.0
C2152 C 0.97571 0.6809 0.37117 0.0
C2153 C 0.9821 0.67146 0.36411 0.0
H2154 H 0.96898 0.6916 0.41078 0.0
H2155 H 0.02961 0.59913 0.33768 0.0
H2156 H 0.40027 0.0578 0.48037 0.0
H2157 H 0.38696 0.03631 0.52081 0.0
H2158 H 0.34598 0.01665 0.45663 0.0
H2159 H 0.35931 0.0383 0.41576 0.0
H2160 H 0.33889 0.01559 0.52537 0.0
H2161 H 0.36901 0.00107 0.45492 0.0
H2162 H 0.39252 0.00456 0.42531 0.0
H2163 H 0.41546 0.01123 0.52314 0.0
H2164 H 0.39215 0.008 0.55332 0.0
H2165 H 0.30628 0.94037 0.6062 0.0
H2166 H 0.31579 0.96266 0.56729 0.0
H2167 H 0.35847 0.98625 0.62548 0.0
H2168 H 0.34897 0.96407 0.66474 0.0
H2169 H 0.36336 0.98432 0.55694 0.0
H2170 H 0.33287 -0.0009 0.62713 0.0
H2171 H 0.30906 0.99527 0.6559 0.0
H2172 H 0.28628 0.9873 0.5575 0.0
H2173 H 0.3099 0.99087 0.52816 0.0
C2174 C 0.38849 0.04881 0.47459 0.0
C2175 C 0.38091 0.04958 0.44461 0.0
C2176 C 0.38088 0.03658 0.49781 0.0
C2177 C 0.36558 0.02478 0.49141 0.0
C2178 C 0.35781 0.02565 0.46192 0.0
C2179 C 0.36543 0.03797 0.43864 0.0
C2180 C 0.3579 0.01152 0.51558 0.0
C2181 C 0.34408 0.00857 0.53193 0.0
C2182 C 0.36484 0.00255 0.52441 0.0
C2183 C 0.37887 0.00442 0.50636 0.0
C2184 C 0.37911 0.00339 0.47011 0.0
C2185 C 0.39239 0.00531 0.45322 0.0
C2186 C 0.40549 0.00815 0.47233 0.0
C2187 C 0.40531 0.00904 0.50837 0.0
C2188 C 0.39206 0.00715 0.52538 0.0
C2189 C 0.3175 0.95048 0.61131 0.0
C2190 C 0.32693 0.95044 0.63839 0.0
C2191 C 0.32293 0.96319 0.58898 0.0
C2192 C 0.33784 0.97607 0.5935 0.0
C2193 C 0.34696 0.97636 0.62149 0.0
C2194 C 0.34154 0.96369 0.64381 0.0
C2195 C 0.34452 0.98858 0.56734 0.0
C2196 C 0.35813 0.99132 0.5504 0.0
C2197 C 0.33731 0.99723 0.55788 0.0
C2198 C 0.3231 0.99509 0.57548 0.0
C2199 C 0.32274 0.99639 0.61165 0.0
C2200 C 0.30929 0.9943 0.62805 0.0
C2201 C 0.29615 0.991 0.60855 0.0
C2202 C 0.29646 0.98983 0.57258 0.0
C2203 C 0.30988 0.9919 0.55605 0.0
H2204 H 0.28575 0.98939 0.6213 0.0
H2205 H 0.41576 0.00963 0.4592 0.0
H2206 H 0.34778 0.3893 0.58904 0.0
H2207 H 0.3574 0.37501 0.62247 0.0
H2208 H 0.3111 0.34452 0.66106 0.0
H2209 H 0.3015 0.35904 0.62811 0.0
H2210 H 0.33063 0.35502 0.71229 0.0
H2211 H 0.32951 0.33165 0.60406 0.0
H2212 H 0.33449 0.33066 0.54191 0.0
H2213 H 0.38366 0.3564 0.56032 0.0
H2214 H 0.37899 0.35774 0.62253 0.0
H2215 H 0.3566 0.30908 0.8022 0.0
H2216 H 0.34275 0.31702 0.76207 0.0
H2217 H 0.38652 0.3531 0.72181 0.0
H2218 H 0.4004 0.34506 0.76121 0.0
H2219 H 0.36578 0.33655 0.67036 0.0
H2220 H 0.36632 0.36192 0.77761 0.0
H2221 H 0.36112 0.3628 0.83969 0.0
H2222 H 0.31233 0.33251 0.82226 0.0
H2223 H 0.31726 0.3313 0.76011 0.0
C2224 C 0.3396 0.37932 0.604 0.0
C2225 C 0.32392 0.37528 0.6061 0.0
C2226 C 0.3451 0.37114 0.62308 0.0
C2227 C 0.33495 0.3586 0.64412 0.0
C2228 C 0.31914 0.35416 0.64507 0.0
C2229 C 0.31368 0.36244 0.62627 0.0
C2230 C 0.34111 0.3511 0.66741 0.0
C2231 C 0.33804 0.35066 0.70297 0.0
C2232 C 0.35102 0.3457 0.65538 0.0
C2233 C 0.35389 0.34489 0.61796 0.0
C2234 C 0.34139 0.3372 0.59483 0.0
C2235 C 0.34415 0.33656 0.55959 0.0
C2236 C 0.35938 0.34348 0.54716 0.0
C2237 C 0.37187 0.35104 0.56998 0.0
C2238 C 0.36917 0.35173 0.60524 0.0
C2239 C 0.36324 0.31869 0.78475 0.0
C2240 C 0.37958 0.32654 0.78502 0.0
C2241 C 0.35533 0.32324 0.76198 0.0
C2242 C 0.36364 0.33568 0.73912 0.0
C2243 C 0.37992 0.34347 0.73927 0.0
C2244 C 0.38782 0.33898 0.76206 0.0
C2245 C 0.35544 0.34071 0.71504 0.0
C2246 C 0.35816 0.3407 0.67944 0.0
C2247 C 0.34515 0.34563 0.72696 0.0
C2248 C 0.34218 0.34637 0.7643 0.0
C2249 C 0.3545 0.35534 0.78707 0.0
C2250 C 0.3516 0.35592 0.82226 0.0
C2251 C 0.33641 0.34768 0.83493 0.0
C2252 C 0.32409 0.33887 0.81242 0.0
C2253 C 0.32693 0.33824 0.77721 0.0
H2254 H 0.33419 0.34814 0.86218 0.0
H2255 H 0.36149 0.34297 0.51987 0.0
loop_
_geom_bond_atom_site_label_1
_geom_bond_atom_site_label_2
_geom_bond_distance
_geom_bond_site_symmetry_2
_ccdc_geom_bond_type
Li0 N17 1.990 . S
Li0 O60 1.956 . S
Li0 O61 1.970 . S
Li0 O62 1.961 1_554 S
Li1 N25 1.990 . S
Li1 O60 1.970 . S
Li1 O61 1.956 . S
Li1 O63 1.961 . S
Li2 N47 1.990 . S
Li2 O60 1.961 1_556 S
Li2 O62 1.956 . S
Li2 O63 1.970 1_556 S
Li3 N53 1.990 . S
Li3 O61 1.961 . S
Li3 O62 1.970 1_554 S
Li3 O63 1.956 . S
C4 C6 1.348 . S
C4 C7 1.356 . S
C4 O60 1.325 . S
N5 C8 1.314 . S
N5 C9 1.279 . S
C6 C4 1.348 . S
C6 C8 1.353 . S
C6 H64 0.929 . S
C7 C4 1.356 . S
C7 C9 1.358 . S
C7 H65 0.930 . S
C8 N5 1.314 . S
C8 C6 1.353 . S
C8 H66 0.930 . S
C9 N5 1.279 . S
C9 C7 1.358 . S
C9 H67 0.930 . S
C10 C13 1.348 . S
C10 C14 1.356 . S
C10 O61 1.325 . S
C11 N12 1.279 . S
C11 C14 1.358 . S
C11 H68 0.930 . S
N12 C11 1.279 . S
N12 C15 1.314 . S
C13 C10 1.348 . S
C13 C15 1.353 . S
C13 H69 0.929 . S
C14 C10 1.356 . S
C14 C11 1.358 . S
C14 H70 0.930 . S
C15 N12 1.314 . S
C15 C13 1.353 . S
C15 H71 0.930 . S
C16 N17 1.314 . S
C16 C21 1.353 . S
C16 H22 0.930 . S
N17 Li0 1.990 . S
N17 C16 1.314 . S
N17 C19 1.279 . S
C18 C19 1.358 . S
C18 C20 1.356 . S
C18 H72 0.930 . S
C19 N17 1.279 . S
C19 C18 1.358 . S
C19 H23 0.930 . S
C20 C18 1.356 . S
C20 C21 1.348 . S
C21 C16 1.353 . S
C21 C20 1.348 . S
C21 H73 0.929 . S
H22 C16 0.930 . S
H23 C19 0.930 . S
C24 N25 1.314 . S
C24 C26 1.353 . S
C24 H30 0.930 . S
N25 Li1 1.990 . S
N25 C24 1.314 . S
N25 C28 1.279 . S
C26 C24 1.353 . S
C26 C29 1.348 . S
C26 H74 0.929 . S
C27 C28 1.358 . S
C27 C29 1.356 . S
C27 H75 0.930 . S
C28 N25 1.279 . S
C28 C27 1.358 . S
C28 H31 0.930 . S
C29 C26 1.348 . S
C29 C27 1.356 . S
H30 C24 0.930 . S
H31 C28 0.930 . S
C32 C34 1.348 . S
C32 C35 1.356 . S
C32 O62 1.325 . S
N33 C36 1.314 . S
N33 C37 1.279 . S
C34 C32 1.348 . S
C34 C36 1.353 . S
C34 H76 0.929 . S
C35 C32 1.356 . S
C35 C37 1.358 . S
C35 H77 0.930 . S
C36 N33 1.314 . S
C36 C34 1.353 . S
C36 H78 0.930 . S
C37 N33 1.279 . S
C37 C35 1.358 . S
C37 H79 0.930 . S
C38 C39 1.348 1_554 S
C38 C40 1.356 . S
C38 O63 1.325 . S
C39 C38 1.348 1_556 S
C39 C41 1.353 . S
C39 H80 0.929 . S
C40 C38 1.356 . S
C40 C42 1.358 . S
C40 H81 0.930 . S
C41 C39 1.353 . S
C41 N43 1.314 1_556 S
C41 H82 0.930 . S
C42 C40 1.358 . S
C42 N43 1.279 . S
C42 H83 0.930 . S
N43 C41 1.314 1_554 S
N43 C42 1.279 . S
C44 C46 1.353 . S
C44 N47 1.314 . S
C44 H50 0.930 . S
C45 N47 1.279 . S
C45 C48 1.358 . S
C45 H51 0.930 . S
C46 C44 1.353 . S
C46 C49 1.348 . S
C46 H84 0.929 . S
N47 Li2 1.990 . S
N47 C44 1.314 . S
N47 C45 1.279 . S
C48 C45 1.358 . S
C48 C49 1.356 . S
C48 H85 0.930 . S
C49 C46 1.348 . S
C49 C48 1.356 . S
H50 C44 0.930 . S
H51 C45 0.930 . S
C52 N53 1.314 . S
C52 C54 1.353 . S
C52 H58 0.930 . S
N53 Li3 1.990 . S
N53 C52 1.314 . S
N53 C56 1.279 1_554 S
C54 C52 1.353 . S
C54 C57 1.348 1_554 S
C54 H86 0.929 . S
C55 C56 1.358 . S
C55 C57 1.356 . S
C55 H87 0.930 . S
C56 N53 1.279 1_556 S
C56 C55 1.358 . S
C56 H59 0.930 . S
C57 C54 1.348 1_556 S
C57 C55 1.356 . S
H58 C52 0.930 . S
H59 C56 0.930 . S
O60 Li0 1.956 . S
O60 Li1 1.970 . S
O60 Li2 1.961 1_554 S
O60 C4 1.325 . S
O61 Li0 1.970 . S
O61 Li1 1.956 . S
O61 Li3 1.961 . S
O61 C10 1.325 . S
O62 Li0 1.961 1_556 S
O62 Li2 1.956 . S
O62 Li3 1.970 1_556 S
O62 C32 1.325 . S
O63 Li1 1.961 . S
O63 Li2 1.970 1_554 S
O63 Li3 1.956 . S
O63 C38 1.325 . S
H64 C6 0.929 . S
H65 C7 0.930 . S
H66 C8 0.930 . S
H67 C9 0.930 . S
H68 C11 0.930 . S
H69 C13 0.929 . S
H70 C14 0.930 . S
H71 C15 0.930 . S
H72 C18 0.930 . S
H73 C21 0.929 . S
H74 C26 0.929 . S
H75 C27 0.930 . S
H76 C34 0.929 . S
H77 C35 0.930 . S
H78 C36 0.930 . S
H79 C37 0.930 . S
H80 C39 0.929 . S
H81 C40 0.930 . S
H82 C41 0.930 . S
H83 C42 0.930 . S
H84 C46 0.929 . S
H85 C48 0.930 . S
H86 C54 0.929 . S
H87 C55 0.930 . S
Li88 N105 1.990 . S
Li88 O148 1.956 . S
Li88 O149 1.970 . S
Li88 O150 1.961 . S
Li89 N113 1.990 . S
Li89 O148 1.970 . S
Li89 O149 1.956 . S
Li89 O151 1.961 . S
Li90 N135 1.990 . S
Li90 O148 1.961 . S
Li90 O150 1.956 . S
Li90 O151 1.970 . S
Li91 N141 1.990 . S
Li91 O149 1.961 . S
Li91 O150 1.970 . S
Li91 O151 1.956 . S
C92 C94 1.348 . S
C92 C95 1.356 . S
C92 O148 1.325 . S
N93 C96 1.314 . S
N93 C97 1.279 . S
C94 C92 1.348 . S
C94 C96 1.353 . S
C94 H152 0.929 . S
C95 C92 1.356 . S
C95 C97 1.358 . S
C95 H153 0.930 . S
C96 N93 1.314 . S
C96 C94 1.353 . S
C96 H154 0.930 . S
C97 N93 1.279 . S
C97 C95 1.358 . S
C97 H155 0.930 . S
C98 C101 1.348 . S
C98 C102 1.356 . S
C98 O149 1.325 . S
C99 N100 1.279 . S
C99 C102 1.358 . S
C99 H156 0.930 . S
N100 C99 1.279 . S
N100 C103 1.314 . S
C101 C98 1.348 . S
C101 C103 1.353 . S
C101 H157 0.929 . S
C102 C98 1.356 . S
C102 C99 1.358 . S
C102 H158 0.930 . S
C103 N100 1.314 . S
C103 C101 1.353 . S
C103 H159 0.930 . S
C104 N105 1.314 . S
C104 C109 1.353 . S
C104 H110 0.930 . S
N105 Li88 1.990 . S
N105 C104 1.314 . S
N105 C107 1.279 . S
C106 C107 1.358 . S
C106 C108 1.356 . S
C106 H160 0.930 . S
C107 N105 1.279 . S
C107 C106 1.358 . S
C107 H111 0.930 . S
C108 C106 1.356 . S
C108 C109 1.348 . S
C109 C104 1.353 . S
C109 C108 1.348 . S
C109 H161 0.929 . S
H110 C104 0.930 . S
H111 C107 0.930 . S
C112 N113 1.314 . S
C112 C114 1.353 . S
C112 H118 0.930 . S
N113 Li89 1.990 . S
N113 C112 1.314 . S
N113 C116 1.279 . S
C114 C112 1.353 . S
C114 C117 1.348 . S
C114 H162 0.929 . S
C115 C116 1.358 . S
C115 C117 1.356 . S
C115 H163 0.930 . S
C116 N113 1.279 . S
C116 C115 1.358 . S
C116 H119 0.930 . S
C117 C114 1.348 . S
C117 C115 1.356 . S
H118 C112 0.930 . S
H119 C116 0.930 . S
C120 C122 1.348 . S
C120 C123 1.356 . S
C120 O150 1.325 . S
N121 C124 1.314 . S
N121 C125 1.279 . S
C122 C120 1.348 . S
C122 C124 1.353 . S
C122 H164 0.929 . S
C123 C120 1.356 . S
C123 C125 1.358 . S
C123 H165 0.930 . S
C124 N121 1.314 . S
C124 C122 1.353 . S
C124 H166 0.930 . S
C125 N121 1.279 . S
C125 C123 1.358 . S
C125 H167 0.930 . S
C126 C127 1.348 . S
C126 C128 1.356 . S
C126 O151 1.325 . S
C127 C126 1.348 . S
C127 C129 1.353 . S
C127 H168 0.929 . S
C128 C126 1.356 . S
C128 C130 1.358 . S
C128 H169 0.930 . S
C129 C127 1.353 . S
C129 N131 1.314 . S
C129 H170 0.930 . S
C130 C128 1.358 . S
C130 N131 1.279 . S
C130 H171 0.930 . S
N131 C129 1.314 . S
N131 C130 1.279 . S
C132 C134 1.353 . S
C132 N135 1.314 . S
C132 H138 0.930 . S
C133 N135 1.279 . S
C133 C136 1.358 . S
C133 H139 0.930 . S
C134 C132 1.353 . S
C134 C137 1.348 . S
C134 H172 0.929 . S
N135 Li90 1.990 . S
N135 C132 1.314 . S
N135 C133 1.279 . S
C136 C133 1.358 . S
C136 C137 1.356 . S
C136 H173 0.930 . S
C137 C134 1.348 . S
C137 C136 1.356 . S
H138 C132 0.930 . S
H139 C133 0.930 . S
C140 N141 1.314 . S
C140 C142 1.353 . S
C140 H146 0.930 . S
N141 Li91 1.990 . S
N141 C140 1.314 . S
N141 C144 1.279 . S
C142 C140 1.353 . S
C142 C145 1.348 . S
C142 H174 0.929 . S
C143 C144 1.358 . S
C143 C145 1.356 . S
C143 H175 0.930 . S
C144 N141 1.279 . S
C144 C143 1.358 . S
C144 H147 0.930 . S
C145 C142 1.348 . S
C145 C143 1.356 . S
H146 C140 0.930 . S
H147 C144 0.930 . S
O148 Li88 1.956 . S
O148 Li89 1.970 . S
O148 Li90 1.961 . S
O148 C92 1.325 . S
O149 Li88 1.970 . S
O149 Li89 1.956 . S
O149 Li91 1.961 . S
O149 C98 1.325 . S
O150 Li88 1.961 . S
O150 Li90 1.956 . S
O150 Li91 1.970 . S
O150 C120 1.325 . S
O151 Li89 1.961 . S
O151 Li90 1.970 . S
O151 Li91 1.956 . S
O151 C126 1.325 . S
H152 C94 0.929 . S
H153 C95 0.930 . S
H154 C96 0.930 . S
H155 C97 0.930 . S
H156 C99 0.930 . S
H157 C101 0.929 . S
H158 C102 0.930 . S
H159 C103 0.930 . S
H160 C106 0.930 . S
H161 C109 0.929 . S
H162 C114 0.929 . S
H163 C115 0.930 . S
H164 C122 0.929 . S
H165 C123 0.930 . S
H166 C124 0.930 . S
H167 C125 0.930 . S
H168 C127 0.929 . S
H169 C128 0.930 . S
H170 C129 0.930 . S
H171 C130 0.930 . S
H172 C134 0.929 . S
H173 C136 0.930 . S
H174 C142 0.929 . S
H175 C143 0.930 . S
Li176 N193 1.990 . S
Li176 O236 1.956 . S
Li176 O237 1.970 . S
Li176 O238 1.961 . S
Li177 N201 1.990 . S
Li177 O236 1.970 . S
Li177 O237 1.956 . S
Li177 O239 1.961 . S
Li178 N223 1.990 . S
Li178 O236 1.961 . S
Li178 O238 1.956 . S
Li178 O239 1.970 . S
Li179 N229 1.990 . S
Li179 O237 1.961 . S
Li179 O238 1.970 . S
Li179 O239 1.956 . S
C180 C182 1.348 . S
C180 C183 1.356 . S
C180 O236 1.325 . S
N181 C184 1.314 . S
N181 C185 1.279 . S
C182 C180 1.348 . S
C182 C184 1.353 . S
C182 H240 0.929 . S
C183 C180 1.356 . S
C183 C185 1.358 . S
C183 H241 0.930 . S
C184 N181 1.314 . S
C184 C182 1.353 . S
C184 H242 0.930 . S
C185 N181 1.279 . S
C185 C183 1.358 . S
C185 H243 0.930 . S
C186 C189 1.348 . S
C186 C190 1.356 . S
C186 O237 1.325 . S
C187 N188 1.279 . S
C187 C190 1.358 . S
C187 H244 0.930 . S
N188 C187 1.279 . S
N188 C191 1.314 . S
C189 C186 1.348 . S
C189 C191 1.353 . S
C189 H245 0.929 . S
C190 C186 1.356 . S
C190 C187 1.358 . S
C190 H246 0.930 . S
C191 N188 1.314 . S
C191 C189 1.353 . S
C191 H247 0.930 . S
C192 N193 1.314 . S
C192 C197 1.353 . S
C192 H198 0.930 . S
N193 Li176 1.990 . S
N193 C192 1.314 . S
N193 C195 1.279 . S
C194 C195 1.358 . S
C194 C196 1.356 . S
C194 H248 0.930 . S
C195 N193 1.279 . S
C195 C194 1.358 . S
C195 H199 0.930 . S
C196 C194 1.356 . S
C196 C197 1.348 . S
C197 C192 1.353 . S
C197 C196 1.348 . S
C197 H249 0.929 . S
H198 C192 0.930 . S
H199 C195 0.930 . S
C200 N201 1.314 . S
C200 C202 1.353 . S
C200 H206 0.930 . S
N201 Li177 1.990 . S
N201 C200 1.314 . S
N201 C204 1.279 . S
C202 C200 1.353 . S
C202 C205 1.348 . S
C202 H250 0.929 . S
C203 C204 1.358 . S
C203 C205 1.356 . S
C203 H251 0.930 . S
C204 N201 1.279 . S
C204 C203 1.358 . S
C204 H207 0.930 . S
C205 C202 1.348 . S
C205 C203 1.356 . S
H206 C200 0.930 . S
H207 C204 0.930 . S
C208 C210 1.348 . S
C208 C211 1.356 . S
C208 O238 1.325 . S
N209 C212 1.314 . S
N209 C213 1.279 . S
C210 C208 1.348 . S
C210 C212 1.353 . S
C210 H252 0.929 . S
C211 C208 1.356 . S
C211 C213 1.358 . S
C211 H253 0.930 . S
C212 N209 1.314 . S
C212 C210 1.353 . S
C212 H254 0.930 . S
C213 N209 1.279 . S
C213 C211 1.358 . S
C213 H255 0.930 . S
C214 C215 1.348 . S
C214 C216 1.356 . S
C214 O239 1.325 . S
C215 C214 1.348 . S
C215 C217 1.353 . S
C215 H256 0.929 . S
C216 C214 1.356 . S
C216 C218 1.358 . S
C216 H257 0.930 . S
C217 C215 1.353 . S
C217 N219 1.314 . S
C217 H258 0.930 . S
C218 C216 1.358 . S
C218 N219 1.279 . S
C218 H259 0.930 . S
N219 C217 1.314 . S
N219 C218 1.279 . S
C220 C222 1.353 . S
C220 N223 1.314 . S
C220 H226 0.930 . S
C221 N223 1.279 . S
C221 C224 1.358 . S
C221 H227 0.930 . S
C222 C220 1.353 . S
C222 C225 1.348 . S
C222 H260 0.929 . S
N223 Li178 1.990 . S
N223 C220 1.314 . S
N223 C221 1.279 . S
C224 C221 1.358 . S
C224 C225 1.356 . S
C224 H261 0.930 . S
C225 C222 1.348 . S
C225 C224 1.356 . S
H226 C220 0.930 . S
H227 C221 0.930 . S
C228 N229 1.314 . S
C228 C230 1.353 . S
C228 H234 0.930 . S
N229 Li179 1.990 . S
N229 C228 1.314 . S
N229 C232 1.279 . S
C230 C228 1.353 . S
C230 C233 1.348 . S
C230 H262 0.929 . S
C231 C232 1.358 . S
C231 C233 1.356 . S
C231 H263 0.930 . S
C232 N229 1.279 . S
C232 C231 1.358 . S
C232 H235 0.930 . S
C233 C230 1.348 . S
C233 C231 1.356 . S
H234 C228 0.930 . S
H235 C232 0.930 . S
O236 Li176 1.956 . S
O236 Li177 1.970 . S
O236 Li178 1.961 . S
O236 C180 1.325 . S
O237 Li176 1.970 . S
O237 Li177 1.956 . S
O237 Li179 1.961 . S
O237 C186 1.325 . S
O238 Li176 1.961 . S
O238 Li178 1.956 . S
O238 Li179 1.970 . S
O238 C208 1.325 . S
O239 Li177 1.961 . S
O239 Li178 1.970 . S
O239 Li179 1.956 . S
O239 C214 1.325 . S
H240 C182 0.929 . S
H241 C183 0.930 . S
H242 C184 0.930 . S
H243 C185 0.930 . S
H244 C187 0.930 . S
H245 C189 0.929 . S
H246 C190 0.930 . S
H247 C191 0.930 . S
H248 C194 0.930 . S
H249 C197 0.929 . S
H250 C202 0.929 . S
H251 C203 0.930 . S
H252 C210 0.929 . S
H253 C211 0.930 . S
H254 C212 0.930 . S
H255 C213 0.930 . S
H256 C215 0.929 . S
H257 C216 0.930 . S
H258 C217 0.930 . S
H259 C218 0.930 . S
H260 C222 0.929 . S
H261 C224 0.930 . S
H262 C230 0.929 . S
H263 C231 0.930 . S
Li264 N281 1.990 . S
Li264 O324 1.956 . S
Li264 O325 1.970 . S
Li264 O326 1.961 . S
Li265 N289 1.990 . S
Li265 O324 1.970 . S
Li265 O325 1.956 . S
Li265 O327 1.961 . S
Li266 N311 1.990 . S
Li266 O324 1.961 . S
Li266 O326 1.956 . S
Li266 O327 1.970 . S
Li267 N317 1.990 . S
Li267 O325 1.961 . S
Li267 O326 1.970 . S
Li267 O327 1.956 . S
C268 C270 1.348 . S
C268 C271 1.356 . S
C268 O324 1.325 . S
N269 C272 1.314 . S
N269 C273 1.279 . S
C270 C268 1.348 . S
C270 C272 1.353 . S
C270 H328 0.929 . S
C271 C268 1.356 . S
C271 C273 1.358 . S
C271 H329 0.930 . S
C272 N269 1.314 . S
C272 C270 1.353 . S
C272 H330 0.930 . S
C273 N269 1.279 . S
C273 C271 1.358 . S
C273 H331 0.930 . S
C274 C277 1.348 . S
C274 C278 1.356 . S
C274 O325 1.325 . S
C275 N276 1.279 . S
C275 C278 1.358 . S
C275 H332 0.930 . S
N276 C275 1.279 . S
N276 C279 1.314 . S
C277 C274 1.348 . S
C277 C279 1.353 . S
C277 H333 0.929 . S
C278 C274 1.356 . S
C278 C275 1.358 . S
C278 H334 0.930 . S
C279 N276 1.314 . S
C279 C277 1.353 . S
C279 H335 0.930 . S
C280 N281 1.314 . S
C280 C285 1.353 . S
C280 H286 0.930 . S
N281 Li264 1.990 . S
N281 C280 1.314 . S
N281 C283 1.279 . S
C282 C283 1.358 . S
C282 C284 1.356 . S
C282 H336 0.930 . S
C283 N281 1.279 . S
C283 C282 1.358 . S
C283 H287 0.930 . S
C284 C282 1.356 . S
C284 C285 1.348 . S
C285 C280 1.353 . S
C285 C284 1.348 . S
C285 H337 0.929 . S
H286 C280 0.930 . S
H287 C283 0.930 . S
C288 N289 1.314 . S
C288 C290 1.353 . S
C288 H294 0.930 . S
N289 Li265 1.990 . S
N289 C288 1.314 . S
N289 C292 1.279 . S
C290 C288 1.353 . S
C290 C293 1.348 . S
C290 H338 0.929 . S
C291 C292 1.358 . S
C291 C293 1.356 . S
C291 H339 0.930 . S
C292 N289 1.279 . S
C292 C291 1.358 . S
C292 H295 0.930 . S
C293 C290 1.348 . S
C293 C291 1.356 . S
H294 C288 0.930 . S
H295 C292 0.930 . S
C296 C298 1.348 . S
C296 C299 1.356 . S
C296 O326 1.325 . S
N297 C300 1.314 . S
N297 C301 1.279 . S
C298 C296 1.348 . S
C298 C300 1.353 . S
C298 H340 0.929 . S
C299 C296 1.356 . S
C299 C301 1.358 . S
C299 H341 0.930 . S
C300 N297 1.314 . S
C300 C298 1.353 . S
C300 H342 0.930 . S
C301 N297 1.279 . S
C301 C299 1.358 . S
C301 H343 0.930 . S
C302 C303 1.348 . S
C302 C304 1.356 . S
C302 O327 1.325 . S
C303 C302 1.348 . S
C303 C305 1.353 . S
C303 H344 0.929 . S
C304 C302 1.356 . S
C304 C306 1.358 . S
C304 H345 0.930 . S
C305 C303 1.353 . S
C305 N307 1.314 . S
C305 H346 0.930 . S
C306 C304 1.358 . S
C306 N307 1.279 . S
C306 H347 0.930 . S
N307 C305 1.314 . S
N307 C306 1.279 . S
C308 C310 1.353 . S
C308 N311 1.314 . S
C308 H314 0.930 . S
C309 N311 1.279 . S
C309 C312 1.358 . S
C309 H315 0.930 . S
C310 C308 1.353 . S
C310 C313 1.348 . S
C310 H348 0.929 . S
N311 Li266 1.990 . S
N311 C308 1.314 . S
N311 C309 1.279 . S
C312 C309 1.358 . S
C312 C313 1.356 . S
C312 H349 0.930 . S
C313 C310 1.348 . S
C313 C312 1.356 . S
H314 C308 0.930 . S
H315 C309 0.930 . S
C316 N317 1.314 . S
C316 C318 1.353 . S
C316 H322 0.930 . S
N317 Li267 1.990 . S
N317 C316 1.314 . S
N317 C320 1.279 . S
C318 C316 1.353 . S
C318 C321 1.348 . S
C318 H350 0.929 . S
C319 C320 1.358 . S
C319 C321 1.356 . S
C319 H351 0.930 . S
C320 N317 1.279 . S
C320 C319 1.358 . S
C320 H323 0.930 . S
C321 C318 1.348 . S
C321 C319 1.356 . S
H322 C316 0.930 . S
H323 C320 0.930 . S
O324 Li264 1.956 . S
O324 Li265 1.970 . S
O324 Li266 1.961 . S
O324 C268 1.325 . S
O325 Li264 1.970 . S
O325 Li265 1.956 . S
O325 Li267 1.961 . S
O325 C274 1.325 . S
O326 Li264 1.961 . S
O326 Li266 1.956 . S
O326 Li267 1.970 . S
O326 C296 1.325 . S
O327 Li265 1.961 . S
O327 Li266 1.970 . S
O327 Li267 1.956 . S
O327 C302 1.325 . S
H328 C270 0.929 . S
H329 C271 0.930 . S
H330 C272 0.930 . S
H331 C273 0.930 . S
H332 C275 0.930 . S
H333 C277 0.929 . S
H334 C278 0.930 . S
H335 C279 0.930 . S
H336 C282 0.930 . S
H337 C285 0.929 . S
H338 C290 0.929 . S
H339 C291 0.930 . S
H340 C298 0.929 . S
H341 C299 0.930 . S
H342 C300 0.930 . S
H343 C301 0.930 . S
H344 C303 0.929 . S
H345 C304 0.930 . S
H346 C305 0.930 . S
H347 C306 0.930 . S
H348 C310 0.929 . S
H349 C312 0.930 . S
H350 C318 0.929 . S
H351 C319 0.930 . S
Li352 N369 1.990 . S
Li352 O412 1.956 . S
Li352 O413 1.970 . S
Li352 O414 1.961 . S
Li353 N377 1.990 . S
Li353 O412 1.970 . S
Li353 O413 1.956 . S
Li353 O415 1.961 . S
Li354 N399 1.990 . S
Li354 O412 1.961 . S
Li354 O414 1.956 . S
Li354 O415 1.970 . S
Li355 N405 1.990 . S
Li355 O413 1.961 . S
Li355 O414 1.970 . S
Li355 O415 1.956 . S
C356 C358 1.348 . S
C356 C359 1.356 . S
C356 O412 1.325 . S
N357 C360 1.314 . S
N357 C361 1.279 . S
C358 C356 1.348 . S
C358 C360 1.353 . S
C358 H416 0.929 . S
C359 C356 1.356 . S
C359 C361 1.358 . S
C359 H417 0.930 . S
C360 N357 1.314 . S
C360 C358 1.353 . S
C360 H418 0.930 . S
C361 N357 1.279 . S
C361 C359 1.358 . S
C361 H419 0.930 . S
C362 C365 1.348 . S
C362 C366 1.356 . S
C362 O413 1.325 . S
C363 N364 1.279 . S
C363 C366 1.358 . S
C363 H420 0.930 . S
N364 C363 1.279 . S
N364 C367 1.314 . S
C365 C362 1.348 . S
C365 C367 1.353 . S
C365 H421 0.929 . S
C366 C362 1.356 . S
C366 C363 1.358 . S
C366 H422 0.930 . S
C367 N364 1.314 . S
C367 C365 1.353 . S
C367 H423 0.930 . S
C368 N369 1.314 . S
C368 C373 1.353 . S
C368 H374 0.930 . S
N369 Li352 1.990 . S
N369 C368 1.314 . S
N369 C371 1.279 . S
C370 C371 1.358 . S
C370 C372 1.356 . S
C370 H424 0.930 . S
C371 N369 1.279 . S
C371 C370 1.358 . S
C371 H375 0.930 . S
C372 C370 1.356 . S
C372 C373 1.348 . S
C373 C368 1.353 . S
C373 C372 1.348 . S
C373 H425 0.929 . S
H374 C368 0.930 . S
H375 C371 0.930 . S
C376 N377 1.314 . S
C376 C378 1.353 . S
C376 H382 0.930 . S
N377 Li353 1.990 . S
N377 C376 1.314 . S
N377 C380 1.279 . S
C378 C376 1.353 . S
C378 C381 1.348 . S
C378 H426 0.929 . S
C379 C380 1.358 . S
C379 C381 1.356 . S
C379 H427 0.930 . S
C380 N377 1.279 . S
C380 C379 1.358 . S
C380 H383 0.930 . S
C381 C378 1.348 . S
C381 C379 1.356 . S
H382 C376 0.930 . S
H383 C380 0.930 . S
C384 C386 1.348 . S
C384 C387 1.356 . S
C384 O414 1.325 . S
N385 C388 1.314 . S
N385 C389 1.279 . S
C386 C384 1.348 . S
C386 C388 1.353 . S
C386 H428 0.929 . S
C387 C384 1.356 . S
C387 C389 1.358 . S
C387 H429 0.930 . S
C388 N385 1.314 . S
C388 C386 1.353 . S
C388 H430 0.930 . S
C389 N385 1.279 . S
C389 C387 1.358 . S
C389 H431 0.930 . S
C390 C391 1.348 . S
C390 C392 1.356 . S
C390 O415 1.325 . S
C391 C390 1.348 . S
C391 C393 1.353 . S
C391 H432 0.929 . S
C392 C390 1.356 . S
C392 C394 1.358 . S
C392 H433 0.930 . S
C393 C391 1.353 . S
C393 N395 1.314 . S
C393 H434 0.930 . S
C394 C392 1.358 . S
C394 N395 1.279 . S
C394 H435 0.930 . S
N395 C393 1.314 . S
N395 C394 1.279 . S
C396 C398 1.353 . S
C396 N399 1.314 . S
C396 H402 0.930 . S
C397 N399 1.279 . S
C397 C400 1.358 . S
C397 H403 0.930 . S
C398 C396 1.353 . S
C398 C401 1.348 . S
C398 H436 0.929 . S
N399 Li354 1.990 . S
N399 C396 1.314 . S
N399 C397 1.279 . S
C400 C397 1.358 . S
C400 C401 1.356 . S
C400 H437 0.930 . S
C401 C398 1.348 . S
C401 C400 1.356 . S
H402 C396 0.930 . S
H403 C397 0.930 . S
C404 N405 1.314 . S
C404 C406 1.353 . S
C404 H410 0.930 . S
N405 Li355 1.990 . S
N405 C404 1.314 . S
N405 C408 1.279 . S
C406 C404 1.353 . S
C406 C409 1.348 . S
C406 H438 0.929 . S
C407 C408 1.358 . S
C407 C409 1.356 . S
C407 H439 0.930 . S
C408 N405 1.279 . S
C408 C407 1.358 . S
C408 H411 0.930 . S
C409 C406 1.348 . S
C409 C407 1.356 . S
H410 C404 0.930 . S
H411 C408 0.930 . S
O412 Li352 1.956 . S
O412 Li353 1.970 . S
O412 Li354 1.961 . S
O412 C356 1.325 . S
O413 Li352 1.970 . S
O413 Li353 1.956 . S
O413 Li355 1.961 . S
O413 C362 1.325 . S
O414 Li352 1.961 . S
O414 Li354 1.956 . S
O414 Li355 1.970 . S
O414 C384 1.325 . S
O415 Li353 1.961 . S
O415 Li354 1.970 . S
O415 Li355 1.956 . S
O415 C390 1.325 . S
H416 C358 0.929 . S
H417 C359 0.930 . S
H418 C360 0.930 . S
H419 C361 0.930 . S
H420 C363 0.930 . S
H421 C365 0.929 . S
H422 C366 0.930 . S
H423 C367 0.930 . S
H424 C370 0.930 . S
H425 C373 0.929 . S
H426 C378 0.929 . S
H427 C379 0.930 . S
H428 C386 0.929 . S
H429 C387 0.930 . S
H430 C388 0.930 . S
H431 C389 0.930 . S
H432 C391 0.929 . S
H433 C392 0.930 . S
H434 C393 0.930 . S
H435 C394 0.930 . S
H436 C398 0.929 . S
H437 C400 0.930 . S
H438 C406 0.929 . S
H439 C407 0.930 . S
Li440 N457 1.990 . S
Li440 O500 1.956 . S
Li440 O501 1.970 . S
Li440 O502 1.961 . S
Li441 N465 1.990 . S
Li441 O500 1.970 . S
Li441 O501 1.956 . S
Li441 O503 1.961 . S
Li442 N487 1.990 . S
Li442 O500 1.961 . S
Li442 O502 1.956 . S
Li442 O503 1.970 . S
Li443 N493 1.990 . S
Li443 O501 1.961 . S
Li443 O502 1.970 . S
Li443 O503 1.956 . S
C444 C446 1.348 . S
C444 C447 1.356 . S
C444 O500 1.325 . S
N445 C448 1.314 . S
N445 C449 1.279 . S
C446 C444 1.348 . S
C446 C448 1.353 . S
C446 H504 0.929 . S
C447 C444 1.356 . S
C447 C449 1.358 . S
C447 H505 0.930 . S
C448 N445 1.314 . S
C448 C446 1.353 . S
C448 H506 0.930 . S
C449 N445 1.279 . S
C449 C447 1.358 . S
C449 H507 0.930 . S
C450 C453 1.348 . S
C450 C454 1.356 . S
C450 O501 1.325 . S
C451 N452 1.279 . S
C451 C454 1.358 . S
C451 H508 0.930 . S
N452 C451 1.279 . S
N452 C455 1.314 . S
C453 C450 1.348 . S
C453 C455 1.353 . S
C453 H509 0.929 . S
C454 C450 1.356 . S
C454 C451 1.358 . S
C454 H510 0.930 . S
C455 N452 1.314 . S
C455 C453 1.353 . S
C455 H511 0.930 . S
C456 N457 1.314 . S
C456 C461 1.353 . S
C456 H462 0.930 . S
N457 Li440 1.990 . S
N457 C456 1.314 . S
N457 C459 1.279 . S
C458 C459 1.358 . S
C458 C460 1.356 . S
C458 H512 0.930 . S
C459 N457 1.279 . S
C459 C458 1.358 . S
C459 H463 0.930 . S
C460 C458 1.356 . S
C460 C461 1.348 . S
C461 C456 1.353 . S
C461 C460 1.348 . S
C461 H513 0.929 . S
H462 C456 0.930 . S
H463 C459 0.930 . S
C464 N465 1.314 . S
C464 C466 1.353 . S
C464 H470 0.930 . S
N465 Li441 1.990 . S
N465 C464 1.314 . S
N465 C468 1.279 . S
C466 C464 1.353 . S
C466 C469 1.348 1_556 S
C466 H514 0.929 . S
C467 C468 1.358 1_554 S
C467 C469 1.356 . S
C467 H515 0.930 . S
C468 N465 1.279 . S
C468 C467 1.358 1_556 S
C468 H471 0.930 . S
C469 C466 1.348 1_554 S
C469 C467 1.356 . S
H470 C464 0.930 . S
H471 C468 0.930 . S
C472 C474 1.348 . S
C472 C475 1.356 . S
C472 O502 1.325 . S
N473 C476 1.314 . S
N473 C477 1.279 . S
C474 C472 1.348 . S
C474 C476 1.353 . S
C474 H516 0.929 . S
C475 C472 1.356 . S
C475 C477 1.358 . S
C475 H517 0.930 . S
C476 N473 1.314 . S
C476 C474 1.353 . S
C476 H518 0.930 . S
C477 N473 1.279 . S
C477 C475 1.358 . S
C477 H519 0.930 . S
C478 C479 1.348 . S
C478 C480 1.356 . S
C478 O503 1.325 . S
C479 C478 1.348 . S
C479 C481 1.353 . S
C479 H520 0.929 . S
C480 C478 1.356 . S
C480 C482 1.358 . S
C480 H521 0.930 . S
C481 C479 1.353 . S
C481 N483 1.314 . S
C481 H522 0.930 . S
C482 C480 1.358 . S
C482 N483 1.279 . S
C482 H523 0.930 . S
N483 C481 1.314 . S
N483 C482 1.279 . S
C484 C486 1.353 . S
C484 N487 1.314 . S
C484 H490 0.930 . S
C485 N487 1.279 . S
C485 C488 1.358 . S
C485 H491 0.930 . S
C486 C484 1.353 . S
C486 C489 1.348 . S
C486 H524 0.929 . S
N487 Li442 1.990 . S
N487 C484 1.314 . S
N487 C485 1.279 . S
C488 C485 1.358 . S
C488 C489 1.356 . S
C488 H525 0.930 . S
C489 C486 1.348 . S
C489 C488 1.356 . S
H490 C484 0.930 . S
H491 C485 0.930 . S
C492 N493 1.314 . S
C492 C494 1.353 . S
C492 H498 0.930 . S
N493 Li443 1.990 . S
N493 C492 1.314 . S
N493 C496 1.279 . S
C494 C492 1.353 . S
C494 C497 1.348 . S
C494 H526 0.929 . S
C495 C496 1.358 . S
C495 C497 1.356 . S
C495 H527 0.930 . S
C496 N493 1.279 . S
C496 C495 1.358 . S
C496 H499 0.930 . S
C497 C494 1.348 . S
C497 C495 1.356 . S
H498 C492 0.930 . S
H499 C496 0.930 . S
O500 Li440 1.956 . S
O500 Li441 1.970 . S
O500 Li442 1.961 . S
O500 C444 1.325 . S
O501 Li440 1.970 . S
O501 Li441 1.956 . S
O501 Li443 1.961 . S
O501 C450 1.325 . S
O502 Li440 1.961 . S
O502 Li442 1.956 . S
O502 Li443 1.970 . S
O502 C472 1.325 . S
O503 Li441 1.961 . S
O503 Li442 1.970 . S
O503 Li443 1.956 . S
O503 C478 1.325 . S
H504 C446 0.929 . S
H505 C447 0.930 . S
H506 C448 0.930 . S
H507 C449 0.930 . S
H508 C451 0.930 . S
H509 C453 0.929 . S
H510 C454 0.930 . S
H511 C455 0.930 . S
H512 C458 0.930 . S
H513 C461 0.929 . S
H514 C466 0.929 . S
H515 C467 0.930 . S
H516 C474 0.929 . S
H517 C475 0.930 . S
H518 C476 0.930 . S
H519 C477 0.930 . S
H520 C479 0.929 . S
H521 C480 0.930 . S
H522 C481 0.930 . S
H523 C482 0.930 . S
H524 C486 0.929 . S
H525 C488 0.930 . S
H526 C494 0.929 . S
H527 C495 0.930 . S
Li528 N545 1.990 . S
Li528 O588 1.956 . S
Li528 O589 1.970 . S
Li528 O590 1.961 . S
Li529 N553 1.990 . S
Li529 O588 1.970 . S
Li529 O589 1.956 . S
Li529 O591 1.961 . S
Li530 N575 1.990 . S
Li530 O588 1.961 . S
Li530 O590 1.956 . S
Li530 O591 1.970 . S
Li531 N581 1.990 . S
Li531 O589 1.961 . S
Li531 O590 1.970 . S
Li531 O591 1.956 . S
C532 C534 1.348 . S
C532 C535 1.356 . S
C532 O588 1.325 . S
N533 C536 1.314 . S
N533 C537 1.279 . S
C534 C532 1.348 . S
C534 C536 1.353 . S
C534 H592 0.929 . S
C535 C532 1.356 . S
C535 C537 1.358 . S
C535 H593 0.930 . S
C536 N533 1.314 . S
C536 C534 1.353 . S
C536 H594 0.930 . S
C537 N533 1.279 . S
C537 C535 1.358 . S
C537 H595 0.930 . S
C538 C541 1.348 . S
C538 C542 1.356 . S
C538 O589 1.325 . S
C539 N540 1.263 1_556 S
C539 C542 1.358 . S
C539 H596 0.930 . S
N540 C539 1.263 1_554 S
N540 C543 1.304 1_554 S
C541 C538 1.348 . S
C541 C543 1.353 . S
C541 H597 0.929 . S
C542 C538 1.356 . S
C542 C539 1.358 . S
C542 H598 0.930 . S
C543 N540 1.304 1_556 S
C543 C541 1.353 . S
C543 H599 0.930 1_556 S
C544 N545 1.314 . S
C544 C549 1.353 . S
C544 H550 0.930 . S
N545 Li528 1.990 . S
N545 C544 1.314 . S
N545 C547 1.279 . S
C546 C547 1.358 . S
C546 C548 1.356 . S
C546 H600 0.930 . S
C547 N545 1.279 . S
C547 C546 1.358 . S
C547 H551 0.930 . S
C548 C546 1.356 . S
C548 C549 1.348 . S
C549 C544 1.353 . S
C549 C548 1.348 . S
C549 H601 0.929 . S
H550 C544 0.930 . S
H551 C547 0.930 . S
C552 N553 1.314 . S
C552 C554 1.353 . S
C552 H558 0.930 . S
N553 Li529 1.990 . S
N553 C552 1.314 . S
N553 C556 1.279 . S
C554 C552 1.353 . S
C554 C557 1.319 1_556 S
C554 H602 0.929 . S
C555 C556 1.358 1_554 S
C555 C557 1.361 . S
C555 H603 0.930 . S
C556 N553 1.279 . S
C556 C555 1.358 1_556 S
C556 H559 0.930 . S
C557 C554 1.319 1_554 S
C557 C555 1.361 . S
H558 C552 0.930 . S
H559 C556 0.930 . S
C560 C562 1.348 . S
C560 C563 1.356 . S
C560 O590 1.325 . S
N561 C564 1.314 . S
N561 C565 1.279 . S
C562 C560 1.348 . S
C562 C564 1.353 . S
C562 H604 0.929 . S
C563 C560 1.356 . S
C563 C565 1.358 . S
C563 H605 0.930 . S
C564 N561 1.314 . S
C564 C562 1.353 . S
C564 H606 0.930 . S
C565 N561 1.279 . S
C565 C563 1.358 . S
C565 H607 0.930 . S
C566 C567 1.348 . S
C566 C568 1.356 . S
C566 O591 1.325 . S
C567 C566 1.348 . S
C567 C569 1.353 . S
C567 H608 0.929 . S
C568 C566 1.356 . S
C568 C570 1.358 . S
C568 H609 0.930 . S
C569 C567 1.353 . S
C569 N571 1.314 . S
C569 H610 0.930 . S
C570 C568 1.358 . S
C570 N571 1.279 . S
C570 H611 0.930 . S
N571 C569 1.314 . S
N571 C570 1.279 . S
C572 C574 1.353 . S
C572 N575 1.314 . S
C572 H578 0.930 . S
C573 N575 1.279 . S
C573 C576 1.358 . S
C573 H579 0.930 . S
C574 C572 1.353 . S
C574 C577 1.348 . S
C574 H612 0.929 . S
N575 Li530 1.990 . S
N575 C572 1.314 . S
N575 C573 1.279 . S
C576 C573 1.358 . S
C576 C577 1.356 . S
C576 H613 0.930 . S
C577 C574 1.348 . S
C577 C576 1.356 . S
H578 C572 0.930 . S
H579 C573 0.930 . S
C580 N581 1.314 . S
C580 C582 1.353 . S
C580 H586 0.930 . S
N581 Li531 1.990 . S
N581 C580 1.314 . S
N581 C584 1.279 . S
C582 C580 1.353 . S
C582 C585 1.348 . S
C582 H614 0.929 . S
C583 C584 1.358 . S
C583 C585 1.356 . S
C583 H615 0.930 . S
C584 N581 1.279 . S
C584 C583 1.358 . S
C584 H587 0.930 . S
C585 C582 1.348 . S
C585 C583 1.356 . S
H586 C580 0.930 . S
H587 C584 0.930 . S
O588 Li528 1.956 . S
O588 Li529 1.970 . S
O588 Li530 1.961 . S
O588 C532 1.325 . S
O589 Li528 1.970 . S
O589 Li529 1.956 . S
O589 Li531 1.961 . S
O589 C538 1.325 . S
O590 Li528 1.961 . S
O590 Li530 1.956 . S
O590 Li531 1.970 . S
O590 C560 1.325 . S
O591 Li529 1.961 . S
O591 Li530 1.970 . S
O591 Li531 1.956 . S
O591 C566 1.325 . S
H592 C534 0.929 . S
H593 C535 0.930 . S
H594 C536 0.930 . S
H595 C537 0.930 . S
H596 C539 0.930 . S
H597 C541 0.929 . S
H598 C542 0.930 . S
H599 C543 0.930 1_554 S
H600 C546 0.930 . S
H601 C549 0.929 . S
H602 C554 0.929 . S
H603 C555 0.930 . S
H604 C562 0.929 . S
H605 C563 0.930 . S
H606 C564 0.930 . S
H607 C565 0.930 . S
H608 C567 0.929 . S
H609 C568 0.930 . S
H610 C569 0.930 . S
H611 C570 0.930 . S
H612 C574 0.929 . S
H613 C576 0.930 . S
H614 C582 0.929 . S
H615 C583 0.930 . S
Li616 N633 1.990 . S
Li616 O676 1.956 . S
Li616 O677 1.970 . S
Li616 O678 1.961 . S
Li617 N641 1.990 . S
Li617 O676 1.970 . S
Li617 O677 1.956 . S
Li617 O679 1.961 . S
Li618 N663 1.990 . S
Li618 O676 1.961 . S
Li618 O678 1.956 . S
Li618 O679 1.970 . S
Li619 N669 1.990 1_554 S
Li619 O677 1.961 . S
Li619 O678 1.970 . S
Li619 O679 1.956 . S
C620 C622 1.348 . S
C620 C623 1.356 . S
C620 O676 1.325 . S
N621 C624 1.314 . S
N621 C625 1.279 . S
C622 C620 1.348 . S
C622 C624 1.353 . S
C622 H680 0.929 . S
C623 C620 1.356 . S
C623 C625 1.358 . S
C623 H681 0.930 . S
C624 N621 1.314 . S
C624 C622 1.353 . S
C624 H682 0.930 . S
C625 N621 1.279 . S
C625 C623 1.358 . S
C625 H683 0.930 . S
C626 C629 1.348 . S
C626 C630 1.356 . S
C626 O677 1.325 . S
C627 N628 1.279 . S
C627 C630 1.358 . S
C627 H684 0.930 . S
N628 C627 1.279 . S
N628 C631 1.314 . S
C629 C626 1.348 . S
C629 C631 1.353 . S
C629 H685 0.929 . S
C630 C626 1.356 . S
C630 C627 1.358 . S
C630 H686 0.930 . S
C631 N628 1.314 . S
C631 C629 1.353 . S
C631 H687 0.930 . S
C632 N633 1.314 . S
C632 C637 1.353 . S
C632 H638 0.930 . S
N633 Li616 1.990 . S
N633 C632 1.314 . S
N633 C635 1.279 . S
C634 C635 1.358 . S
C634 C636 1.356 . S
C634 H688 0.930 . S
C635 N633 1.279 . S
C635 C634 1.358 . S
C635 H639 0.930 . S
C636 C634 1.356 . S
C636 C637 1.348 . S
C637 C632 1.353 . S
C637 C636 1.348 . S
C637 H689 0.929 . S
H638 C632 0.930 . S
H639 C635 0.930 . S
C640 N641 1.314 . S
C640 C642 1.353 . S
C640 H646 0.930 . S
N641 Li617 1.990 . S
N641 C640 1.314 . S
N641 C644 1.279 . S
C642 C640 1.353 . S
C642 C645 1.348 . S
C642 H690 0.929 . S
C643 C644 1.358 . S
C643 C645 1.356 . S
C643 H691 0.930 . S
C644 N641 1.279 . S
C644 C643 1.358 . S
C644 H647 0.930 . S
C645 C642 1.348 . S
C645 C643 1.356 . S
H646 C640 0.930 . S
H647 C644 0.930 . S
C648 C650 1.348 1_554 S
C648 C651 1.356 . S
C648 O678 1.325 . S
N649 C652 1.314 1_554 S
N649 C653 1.279 . S
C650 C648 1.348 1_556 S
C650 C652 1.353 . S
C650 H692 0.929 . S
C651 C648 1.356 . S
C651 C653 1.358 . S
C651 H693 0.930 . S
C652 N649 1.314 1_556 S
C652 C650 1.353 . S
C652 H694 0.930 . S
C653 N649 1.279 . S
C653 C651 1.358 . S
C653 H695 0.930 . S
C654 C655 1.348 . S
C654 C656 1.356 . S
C654 O679 1.325 1_556 S
C655 C654 1.348 . S
C655 C657 1.353 . S
C655 H696 0.929 . S
C656 C654 1.356 . S
C656 C658 1.358 . S
C656 H697 0.930 . S
C657 C655 1.353 . S
C657 N659 1.314 . S
C657 H698 0.930 . S
C658 C656 1.358 . S
C658 N659 1.279 . S
C658 H699 0.930 . S
N659 C657 1.314 . S
N659 C658 1.279 . S
C660 C662 1.353 . S
C660 N663 1.314 . S
C660 H666 0.930 . S
C661 N663 1.279 . S
C661 C664 1.358 . S
C661 H667 0.930 . S
C662 C660 1.353 . S
C662 C665 1.348 . S
C662 H700 0.929 . S
N663 Li618 1.990 . S
N663 C660 1.314 . S
N663 C661 1.279 . S
C664 C661 1.358 . S
C664 C665 1.356 . S
C664 H701 0.930 1_554 S
C665 C662 1.348 . S
C665 C664 1.356 . S
H666 C660 0.930 . S
H667 C661 0.930 . S
C668 N669 1.314 . S
C668 C670 1.353 . S
C668 H674 0.930 . S
N669 Li619 1.990 1_556 S
N669 C668 1.314 . S
N669 C672 1.279 . S
C670 C668 1.353 . S
C670 C673 1.348 . S
C670 H702 0.929 . S
C671 C672 1.358 . S
C671 C673 1.356 . S
C671 H703 0.930 . S
C672 N669 1.279 . S
C672 C671 1.358 . S
C672 H675 0.930 . S
C673 C670 1.348 . S
C673 C671 1.356 . S
H674 C668 0.930 . S
H675 C672 0.930 . S
O676 Li616 1.956 . S
O676 Li617 1.970 . S
O676 Li618 1.961 . S
O676 C620 1.325 . S
O677 Li616 1.970 . S
O677 Li617 1.956 . S
O677 Li619 1.961 . S
O677 C626 1.325 . S
O678 Li616 1.961 . S
O678 Li618 1.956 . S
O678 Li619 1.970 . S
O678 C648 1.325 . S
O679 Li617 1.961 . S
O679 Li618 1.970 . S
O679 Li619 1.956 . S
O679 C654 1.325 1_554 S
H680 C622 0.929 . S
H681 C623 0.930 . S
H682 C624 0.930 . S
H683 C625 0.930 . S
H684 C627 0.930 . S
H685 C629 0.929 . S
H686 C630 0.930 . S
H687 C631 0.930 . S
H688 C634 0.930 . S
H689 C637 0.929 . S
H690 C642 0.929 . S
H691 C643 0.930 . S
H692 C650 0.929 . S
H693 C651 0.930 . S
H694 C652 0.930 . S
H695 C653 0.930 . S
H696 C655 0.929 . S
H697 C656 0.930 . S
H698 C657 0.930 . S
H699 C658 0.930 . S
H700 C662 0.929 . S
H701 C664 0.930 1_556 S
H702 C670 0.929 . S
H703 C671 0.930 . S
Li704 N721 1.990 . S
Li704 O764 1.956 . S
Li704 O765 1.970 . S
Li704 O766 1.961 . S
Li705 N729 1.990 . S
Li705 O764 1.970 . S
Li705 O765 1.956 . S
Li705 O767 1.961 . S
Li706 N751 1.990 . S
Li706 O764 1.961 . S
Li706 O766 1.956 . S
Li706 O767 1.970 . S
Li707 N757 1.990 . S
Li707 O765 1.961 . S
Li707 O766 1.970 . S
Li707 O767 1.956 . S
C708 C710 1.348 . S
C708 C711 1.356 . S
C708 O764 1.325 . S
N709 C712 1.314 . S
N709 C713 1.279 . S
C710 C708 1.348 . S
C710 C712 1.353 . S
C710 H768 0.929 . S
C711 C708 1.356 . S
C711 C713 1.358 . S
C711 H769 0.930 . S
C712 N709 1.314 . S
C712 C710 1.353 . S
C712 H770 0.930 . S
C713 N709 1.279 . S
C713 C711 1.358 . S
C713 H771 0.930 . S
C714 C717 1.348 . S
C714 C718 1.356 . S
C714 O765 1.325 . S
C715 N716 1.279 . S
C715 C718 1.358 . S
C715 H772 0.930 . S
N716 C715 1.279 . S
N716 C719 1.314 . S
C717 C714 1.348 . S
C717 C719 1.353 . S
C717 H773 0.929 . S
C718 C714 1.356 . S
C718 C715 1.358 . S
C718 H774 0.930 . S
C719 N716 1.314 . S
C719 C717 1.353 . S
C719 H775 0.930 . S
C720 N721 1.314 . S
C720 C725 1.353 . S
C720 H726 0.930 . S
N721 Li704 1.990 . S
N721 C720 1.314 . S
N721 C723 1.279 . S
C722 C723 1.358 . S
C722 C724 1.356 . S
C722 H776 0.930 . S
C723 N721 1.279 . S
C723 C722 1.358 . S
C723 H727 0.930 . S
C724 C722 1.356 . S
C724 C725 1.348 . S
C725 C720 1.353 . S
C725 C724 1.348 . S
C725 H777 0.929 . S
H726 C720 0.930 . S
H727 C723 0.930 . S
C728 N729 1.314 . S
C728 C730 1.353 . S
C728 H734 0.930 . S
N729 Li705 1.990 . S
N729 C728 1.314 . S
N729 C732 1.279 . S
C730 C728 1.353 . S
C730 C733 1.348 . S
C730 H778 0.929 . S
C731 C732 1.358 . S
C731 C733 1.356 . S
C731 H779 0.930 . S
C732 N729 1.279 . S
C732 C731 1.358 . S
C732 H735 0.930 . S
C733 C730 1.348 . S
C733 C731 1.356 . S
H734 C728 0.930 . S
H735 C732 0.930 . S
C736 C738 1.348 . S
C736 C739 1.356 . S
C736 O766 1.325 . S
N737 C740 1.314 . S
N737 C741 1.279 . S
C738 C736 1.348 . S
C738 C740 1.353 . S
C738 H780 0.929 . S
C739 C736 1.356 . S
C739 C741 1.358 . S
C739 H781 0.930 . S
C740 N737 1.314 . S
C740 C738 1.353 . S
C740 H782 0.930 . S
C741 N737 1.279 . S
C741 C739 1.358 . S
C741 H783 0.930 . S
C742 C743 1.348 . S
C742 C744 1.356 . S
C742 O767 1.325 . S
C743 C742 1.348 . S
C743 C745 1.353 . S
C743 H784 0.929 . S
C744 C742 1.356 . S
C744 C746 1.358 . S
C744 H785 0.930 . S
C745 C743 1.353 . S
C745 N747 1.314 . S
C745 H786 0.930 . S
C746 C744 1.358 . S
C746 N747 1.279 . S
C746 H787 0.930 . S
N747 C745 1.314 . S
N747 C746 1.279 . S
C748 C750 1.353 . S
C748 N751 1.314 . S
C748 H754 0.930 . S
C749 N751 1.279 . S
C749 C752 1.358 . S
C749 H755 0.930 . S
C750 C748 1.353 . S
C750 C753 1.348 . S
C750 H788 0.929 . S
N751 Li706 1.990 . S
N751 C748 1.314 . S
N751 C749 1.279 . S
C752 C749 1.358 . S
C752 C753 1.356 . S
C752 H789 0.930 . S
C753 C750 1.348 . S
C753 C752 1.356 . S
H754 C748 0.930 . S
H755 C749 0.930 . S
C756 N757 1.314 . S
C756 C758 1.353 . S
C756 H762 0.930 . S
N757 Li707 1.990 . S
N757 C756 1.314 . S
N757 C760 1.279 . S
C758 C756 1.353 . S
C758 C761 1.348 . S
C758 H790 0.929 . S
C759 C760 1.358 . S
C759 C761 1.356 . S
C759 H791 0.930 . S
C760 N757 1.279 . S
C760 C759 1.358 . S
C760 H763 0.930 . S
C761 C758 1.348 . S
C761 C759 1.356 . S
H762 C756 0.930 . S
H763 C760 0.930 . S
O764 Li704 1.956 . S
O764 Li705 1.970 . S
O764 Li706 1.961 . S
O764 C708 1.325 . S
O765 Li704 1.970 . S
O765 Li705 1.956 . S
O765 Li707 1.961 . S
O765 C714 1.325 . S
O766 Li704 1.961 . S
O766 Li706 1.956 . S
O766 Li707 1.970 . S
O766 C736 1.325 . S
O767 Li705 1.961 . S
O767 Li706 1.970 . S
O767 Li707 1.956 . S
O767 C742 1.325 . S
H768 C710 0.929 . S
H769 C711 0.930 . S
H770 C712 0.930 . S
H771 C713 0.930 . S
H772 C715 0.930 . S
H773 C717 0.929 . S
H774 C718 0.930 . S
H775 C719 0.930 . S
H776 C722 0.930 . S
H777 C725 0.929 . S
H778 C730 0.929 . S
H779 C731 0.930 . S
H780 C738 0.929 . S
H781 C739 0.930 . S
H782 C740 0.930 . S
H783 C741 0.930 . S
H784 C743 0.929 . S
H785 C744 0.930 . S
H786 C745 0.930 . S
H787 C746 0.930 . S
H788 C750 0.929 . S
H789 C752 0.930 . S
H790 C758 0.929 . S
H791 C759 0.930 . S
Li792 N809 1.990 . S
Li792 O852 1.956 . S
Li792 O853 1.970 . S
Li792 O854 1.961 . S
Li793 N817 1.990 . S
Li793 O852 1.970 . S
Li793 O853 1.956 . S
Li793 O855 1.961 . S
Li794 N839 1.990 . S
Li794 O852 1.961 . S
Li794 O854 1.956 . S
Li794 O855 1.970 . S
Li795 N845 1.990 . S
Li795 O853 1.961 . S
Li795 O854 1.970 . S
Li795 O855 1.956 . S
C796 C798 1.348 . S
C796 C799 1.356 . S
C796 O852 1.325 . S
N797 C800 1.314 . S
N797 C801 1.279 . S
C798 C796 1.348 . S
C798 C800 1.353 . S
C798 H856 0.929 . S
C799 C796 1.356 . S
C799 C801 1.358 . S
C799 H857 0.930 . S
C800 N797 1.314 . S
C800 C798 1.353 . S
C800 H858 0.930 . S
C801 N797 1.279 . S
C801 C799 1.358 . S
C801 H859 0.930 . S
C802 C805 1.348 . S
C802 C806 1.356 . S
C802 O853 1.325 . S
C803 N804 1.279 . S
C803 C806 1.358 . S
C803 H860 0.930 . S
N804 C803 1.279 . S
N804 C807 1.314 . S
C805 C802 1.348 . S
C805 C807 1.353 . S
C805 H861 0.929 . S
C806 C802 1.356 . S
C806 C803 1.358 . S
C806 H862 0.930 . S
C807 N804 1.314 . S
C807 C805 1.353 . S
C807 H863 0.930 . S
C808 N809 1.314 . S
C808 C813 1.353 . S
C808 H814 0.930 . S
N809 Li792 1.990 . S
N809 C808 1.314 . S
N809 C811 1.279 . S
C810 C811 1.358 . S
C810 C812 1.356 . S
C810 H864 0.930 . S
C811 N809 1.279 . S
C811 C810 1.358 . S
C811 H815 0.930 . S
C812 C810 1.356 . S
C812 C813 1.348 . S
C813 C808 1.353 . S
C813 C812 1.348 . S
C813 H865 0.929 . S
H814 C808 0.930 . S
H815 C811 0.930 . S
C816 N817 1.314 . S
C816 C818 1.353 . S
C816 H822 0.930 . S
N817 Li793 1.990 . S
N817 C816 1.314 . S
N817 C820 1.279 . S
C818 C816 1.353 . S
C818 C821 1.348 . S
C818 H866 0.929 . S
C819 C820 1.358 . S
C819 C821 1.356 . S
C819 H867 0.930 . S
C820 N817 1.279 . S
C820 C819 1.358 . S
C820 H823 0.930 . S
C821 C818 1.348 . S
C821 C819 1.356 . S
H822 C816 0.930 . S
H823 C820 0.930 . S
C824 C826 1.348 . S
C824 C827 1.356 . S
C824 O854 1.325 . S
N825 C828 1.314 . S
N825 C829 1.279 . S
C826 C824 1.348 . S
C826 C828 1.353 . S
C826 H868 0.929 . S
C827 C824 1.356 . S
C827 C829 1.358 . S
C827 H869 0.930 . S
C828 N825 1.314 . S
C828 C826 1.353 . S
C828 H870 0.930 . S
C829 N825 1.279 . S
C829 C827 1.358 . S
C829 H871 0.930 . S
C830 C831 1.348 . S
C830 C832 1.356 . S
C830 O855 1.325 . S
C831 C830 1.348 . S
C831 C833 1.353 . S
C831 H872 0.929 . S
C832 C830 1.356 . S
C832 C834 1.358 . S
C832 H873 0.930 . S
C833 C831 1.353 . S
C833 N835 1.314 . S
C833 H874 0.930 . S
C834 C832 1.358 . S
C834 N835 1.279 . S
C834 H875 0.930 . S
N835 C833 1.314 . S
N835 C834 1.279 . S
C836 C838 1.353 . S
C836 N839 1.314 . S
C836 H842 0.930 . S
C837 N839 1.279 . S
C837 C840 1.358 . S
C837 H843 0.930 . S
C838 C836 1.353 . S
C838 C841 1.348 . S
C838 H876 0.929 . S
N839 Li794 1.990 . S
N839 C836 1.314 . S
N839 C837 1.279 . S
C840 C837 1.358 . S
C840 C841 1.356 . S
C840 H877 0.930 . S
C841 C838 1.348 . S
C841 C840 1.356 . S
H842 C836 0.930 . S
H843 C837 0.930 . S
C844 N845 1.314 . S
C844 C846 1.353 . S
C844 H850 0.930 . S
N845 Li795 1.990 . S
N845 C844 1.314 . S
N845 C848 1.279 . S
C846 C844 1.353 . S
C846 C849 1.348 . S
C846 H878 0.929 . S
C847 C848 1.358 . S
C847 C849 1.356 . S
C847 H879 0.930 . S
C848 N845 1.279 . S
C848 C847 1.358 . S
C848 H851 0.930 . S
C849 C846 1.348 . S
C849 C847 1.356 . S
H850 C844 0.930 . S
H851 C848 0.930 . S
O852 Li792 1.956 . S
O852 Li793 1.970 . S
O852 Li794 1.961 . S
O852 C796 1.325 . S
O853 Li792 1.970 . S
O853 Li793 1.956 . S
O853 Li795 1.961 . S
O853 C802 1.325 . S
O854 Li792 1.961 . S
O854 Li794 1.956 . S
O854 Li795 1.970 . S
O854 C824 1.325 . S
O855 Li793 1.961 . S
O855 Li794 1.970 . S
O855 Li795 1.956 . S
O855 C830 1.325 . S
H856 C798 0.929 . S
H857 C799 0.930 . S
H858 C800 0.930 . S
H859 C801 0.930 . S
H860 C803 0.930 . S
H861 C805 0.929 . S
H862 C806 0.930 . S
H863 C807 0.930 . S
H864 C810 0.930 . S
H865 C813 0.929 . S
H866 C818 0.929 . S
H867 C819 0.930 . S
H868 C826 0.929 . S
H869 C827 0.930 . S
H870 C828 0.930 . S
H871 C829 0.930 . S
H872 C831 0.929 . S
H873 C832 0.930 . S
H874 C833 0.930 . S
H875 C834 0.930 . S
H876 C838 0.929 . S
H877 C840 0.930 . S
H878 C846 0.929 . S
H879 C847 0.930 . S
Li880 N897 1.990 . S
Li880 O940 1.956 . S
Li880 O941 1.970 . S
Li880 O942 1.961 . S
Li881 N905 1.990 . S
Li881 O940 1.970 . S
Li881 O941 1.956 . S
Li881 O943 1.961 . S
Li882 N927 1.990 . S
Li882 O940 1.961 . S
Li882 O942 1.956 . S
Li882 O943 1.970 . S
Li883 N933 1.990 . S
Li883 O941 1.961 . S
Li883 O942 1.970 . S
Li883 O943 1.956 . S
C884 C886 1.348 . S
C884 C887 1.356 . S
C884 O940 1.325 . S
N885 C888 1.314 . S
N885 C889 1.279 . S
C886 C884 1.348 . S
C886 C888 1.353 . S
C886 H944 0.929 . S
C887 C884 1.356 . S
C887 C889 1.358 . S
C887 H945 0.930 . S
C888 N885 1.314 . S
C888 C886 1.353 . S
C888 H946 0.930 . S
C889 N885 1.279 . S
C889 C887 1.358 . S
C889 H947 0.930 . S
C890 C893 1.348 . S
C890 C894 1.356 . S
C890 O941 1.325 . S
C891 N892 1.279 . S
C891 C894 1.358 . S
C891 H948 0.930 . S
N892 C891 1.279 . S
N892 C895 1.314 . S
C893 C890 1.348 . S
C893 C895 1.353 . S
C893 H949 0.929 . S
C894 C890 1.356 . S
C894 C891 1.358 . S
C894 H950 0.930 . S
C895 N892 1.314 . S
C895 C893 1.353 . S
C895 H951 0.930 . S
C896 N897 1.314 . S
C896 C901 1.353 . S
C896 H902 0.930 . S
N897 Li880 1.990 . S
N897 C896 1.314 . S
N897 C899 1.279 . S
C898 C899 1.358 . S
C898 C900 1.356 . S
C898 H952 0.930 . S
C899 N897 1.279 . S
C899 C898 1.358 . S
C899 H903 0.930 . S
C900 C898 1.356 . S
C900 C901 1.348 . S
C901 C896 1.353 . S
C901 C900 1.348 . S
C901 H953 0.929 . S
H902 C896 0.930 . S
H903 C899 0.930 . S
C904 N905 1.314 . S
C904 C906 1.353 . S
C904 H910 0.930 . S
N905 Li881 1.990 . S
N905 C904 1.314 . S
N905 C908 1.279 . S
C906 C904 1.353 . S
C906 C909 1.348 . S
C906 H954 0.929 . S
C907 C908 1.358 . S
C907 C909 1.356 . S
C907 H955 0.930 . S
C908 N905 1.279 . S
C908 C907 1.358 . S
C908 H911 0.930 . S
C909 C906 1.348 . S
C909 C907 1.356 . S
H910 C904 0.930 . S
H911 C908 0.930 . S
C912 C914 1.348 . S
C912 C915 1.356 . S
C912 O942 1.325 . S
N913 C916 1.314 . S
N913 C917 1.279 . S
C914 C912 1.348 . S
C914 C916 1.353 . S
C914 H956 0.929 . S
C915 C912 1.356 . S
C915 C917 1.358 . S
C915 H957 0.930 . S
C916 N913 1.314 . S
C916 C914 1.353 . S
C916 H958 0.930 . S
C917 N913 1.279 . S
C917 C915 1.358 . S
C917 H959 0.930 . S
C918 C919 1.348 . S
C918 C920 1.356 . S
C918 O943 1.325 . S
C919 C918 1.348 . S
C919 C921 1.353 . S
C919 H960 0.929 . S
C920 C918 1.356 . S
C920 C922 1.358 . S
C920 H961 0.930 . S
C921 C919 1.353 . S
C921 N923 1.314 . S
C921 H962 0.930 . S
C922 C920 1.358 . S
C922 N923 1.279 . S
C922 H963 0.930 . S
N923 C921 1.314 . S
N923 C922 1.279 . S
C924 C926 1.353 . S
C924 N927 1.314 . S
C924 H930 0.930 . S
C925 N927 1.279 . S
C925 C928 1.358 . S
C925 H931 0.930 . S
C926 C924 1.353 . S
C926 C929 1.348 . S
C926 H964 0.929 . S
N927 Li882 1.990 . S
N927 C924 1.314 . S
N927 C925 1.279 . S
C928 C925 1.358 . S
C928 C929 1.356 . S
C928 H965 0.930 . S
C929 C926 1.348 . S
C929 C928 1.356 . S
H930 C924 0.930 . S
H931 C925 0.930 . S
C932 N933 1.314 . S
C932 C934 1.353 . S
C932 H938 0.930 . S
N933 Li883 1.990 . S
N933 C932 1.314 . S
N933 C936 1.279 . S
C934 C932 1.353 . S
C934 C937 1.348 . S
C934 H966 0.929 . S
C935 C936 1.358 . S
C935 C937 1.356 . S
C935 H967 0.930 . S
C936 N933 1.279 . S
C936 C935 1.358 . S
C936 H939 0.930 . S
C937 C934 1.348 . S
C937 C935 1.356 . S
H938 C932 0.930 . S
H939 C936 0.930 . S
O940 Li880 1.956 . S
O940 Li881 1.970 . S
O940 Li882 1.961 . S
O940 C884 1.325 . S
O941 Li880 1.970 . S
O941 Li881 1.956 . S
O941 Li883 1.961 . S
O941 C890 1.325 . S
O942 Li880 1.961 . S
O942 Li882 1.956 . S
O942 Li883 1.970 . S
O942 C912 1.325 . S
O943 Li881 1.961 . S
O943 Li882 1.970 . S
O943 Li883 1.956 . S
O943 C918 1.325 . S
H944 C886 0.929 . S
H945 C887 0.930 . S
H946 C888 0.930 . S
H947 C889 0.930 . S
H948 C891 0.930 . S
H949 C893 0.929 . S
H950 C894 0.930 . S
H951 C895 0.930 . S
H952 C898 0.930 . S
H953 C901 0.929 . S
H954 C906 0.929 . S
H955 C907 0.930 . S
H956 C914 0.929 . S
H957 C915 0.930 . S
H958 C916 0.930 . S
H959 C917 0.930 . S
H960 C919 0.929 . S
H961 C920 0.930 . S
H962 C921 0.930 . S
H963 C922 0.930 . S
H964 C926 0.929 . S
H965 C928 0.930 . S
H966 C934 0.929 . S
H967 C935 0.930 . S
Li968 N985 1.990 . S
Li968 O1028 1.956 . S
Li968 O1029 1.970 . S
Li968 O1030 1.961 . S
Li969 N993 1.990 . S
Li969 O1028 1.970 . S
Li969 O1029 1.956 . S
Li969 O1031 1.961 . S
Li970 N1015 1.990 . S
Li970 O1028 1.961 . S
Li970 O1030 1.956 . S
Li970 O1031 1.970 . S
Li971 N1021 1.990 . S
Li971 O1029 1.961 . S
Li971 O1030 1.970 . S
Li971 O1031 1.956 . S
C972 C974 1.348 . S
C972 C975 1.356 . S
C972 O1028 1.325 . S
N973 C976 1.314 . S
N973 C977 1.279 . S
C974 C972 1.348 . S
C974 C976 1.353 . S
C974 H1032 0.929 . S
C975 C972 1.356 . S
C975 C977 1.358 . S
C975 H1033 0.930 . S
C976 N973 1.314 . S
C976 C974 1.353 . S
C976 H1034 0.930 . S
C977 N973 1.279 . S
C977 C975 1.358 . S
C977 H1035 0.930 . S
C978 C981 1.348 . S
C978 C982 1.356 . S
C978 O1029 1.325 . S
C979 N980 1.279 . S
C979 C982 1.358 . S
C979 H1036 0.930 . S
N980 C979 1.279 . S
N980 C983 1.314 . S
C981 C978 1.348 . S
C981 C983 1.353 . S
C981 H1037 0.929 . S
C982 C978 1.356 . S
C982 C979 1.358 . S
C982 H1038 0.930 . S
C983 N980 1.314 . S
C983 C981 1.353 . S
C983 H1039 0.930 . S
C984 N985 1.314 . S
C984 C989 1.353 . S
C984 H990 0.930 . S
N985 Li968 1.990 . S
N985 C984 1.314 . S
N985 C987 1.279 . S
C986 C987 1.358 . S
C986 C988 1.356 . S
C986 H1040 0.930 . S
C987 N985 1.279 . S
C987 C986 1.358 . S
C987 H991 0.930 . S
C988 C986 1.356 . S
C988 C989 1.348 . S
C989 C984 1.353 . S
C989 C988 1.348 . S
C989 H1041 0.929 . S
H990 C984 0.930 . S
H991 C987 0.930 . S
C992 N993 1.314 . S
C992 C994 1.353 . S
C992 H998 0.930 . S
N993 Li969 1.990 . S
N993 C992 1.314 . S
N993 C996 1.279 . S
C994 C992 1.353 . S
C994 C997 1.348 . S
C994 H1042 0.929 . S
C995 C996 1.358 . S
C995 C997 1.356 . S
C995 H1043 0.930 . S
C996 N993 1.279 . S
C996 C995 1.358 . S
C996 H999 0.930 . S
C997 C994 1.348 . S
C997 C995 1.356 . S
H998 C992 0.930 . S
H999 C996 0.930 . S
C1000 C1002 1.348 . S
C1000 C1003 1.356 . S
C1000 O1030 1.325 . S
N1001 C1004 1.314 . S
N1001 C1005 1.279 . S
C1002 C1000 1.348 . S
C1002 C1004 1.353 . S
C1002 H1044 0.929 . S
C1003 C1000 1.356 . S
C1003 C1005 1.358 . S
C1003 H1045 0.930 . S
C1004 N1001 1.314 . S
C1004 C1002 1.353 . S
C1004 H1046 0.930 . S
C1005 N1001 1.279 . S
C1005 C1003 1.358 . S
C1005 H1047 0.930 . S
C1006 C1007 1.348 . S
C1006 C1008 1.356 . S
C1006 O1031 1.325 . S
C1007 C1006 1.348 . S
C1007 C1009 1.353 . S
C1007 H1048 0.929 . S
C1008 C1006 1.356 . S
C1008 C1010 1.358 . S
C1008 H1049 0.930 . S
C1009 C1007 1.353 . S
C1009 N1011 1.314 . S
C1009 H1050 0.930 . S
C1010 C1008 1.358 . S
C1010 N1011 1.279 . S
C1010 H1051 0.930 . S
N1011 C1009 1.314 . S
N1011 C1010 1.279 . S
C1012 C1014 1.353 . S
C1012 N1015 1.314 . S
C1012 H1018 0.930 . S
C1013 N1015 1.279 . S
C1013 C1016 1.358 . S
C1013 H1019 0.930 . S
C1014 C1012 1.353 . S
C1014 C1017 1.348 . S
C1014 H1052 0.929 . S
N1015 Li970 1.990 . S
N1015 C1012 1.314 . S
N1015 C1013 1.279 . S
C1016 C1013 1.358 . S
C1016 C1017 1.356 . S
C1016 H1053 0.930 . S
C1017 C1014 1.348 . S
C1017 C1016 1.356 . S
H1018 C1012 0.930 . S
H1019 C1013 0.930 . S
C1020 N1021 1.314 . S
C1020 C1022 1.353 . S
C1020 H1026 0.930 . S
N1021 Li971 1.990 . S
N1021 C1020 1.314 . S
N1021 C1024 1.279 . S
C1022 C1020 1.353 . S
C1022 C1025 1.348 . S
C1022 H1054 0.929 . S
C1023 C1024 1.358 . S
C1023 C1025 1.356 . S
C1023 H1055 0.930 . S
C1024 N1021 1.279 . S
C1024 C1023 1.358 . S
C1024 H1027 0.930 . S
C1025 C1022 1.348 . S
C1025 C1023 1.356 . S
H1026 C1020 0.930 . S
H1027 C1024 0.930 . S
O1028 Li968 1.956 . S
O1028 Li969 1.970 . S
O1028 Li970 1.961 . S
O1028 C972 1.325 . S
O1029 Li968 1.970 . S
O1029 Li969 1.956 . S
O1029 Li971 1.961 . S
O1029 C978 1.325 . S
O1030 Li968 1.961 . S
O1030 Li970 1.956 . S
O1030 Li971 1.970 . S
O1030 C1000 1.325 . S
O1031 Li969 1.961 . S
O1031 Li970 1.970 . S
O1031 Li971 1.956 . S
O1031 C1006 1.325 . S
H1032 C974 0.929 . S
H1033 C975 0.930 . S
H1034 C976 0.930 . S
H1035 C977 0.930 . S
H1036 C979 0.930 . S
H1037 C981 0.929 . S
H1038 C982 0.930 . S
H1039 C983 0.930 . S
H1040 C986 0.930 . S
H1041 C989 0.929 . S
H1042 C994 0.929 . S
H1043 C995 0.930 . S
H1044 C1002 0.929 . S
H1045 C1003 0.930 . S
H1046 C1004 0.930 . S
H1047 C1005 0.930 . S
H1048 C1007 0.929 . S
H1049 C1008 0.930 . S
H1050 C1009 0.930 . S
H1051 C1010 0.930 . S
H1052 C1014 0.929 . S
H1053 C1016 0.930 . S
H1054 C1022 0.929 . S
H1055 C1023 0.930 . S
H1056 C1074 0.951 . S
H1057 C1076 0.951 . S
H1058 C1078 0.950 . S
H1059 C1079 0.950 . S
H1060 C1081 0.950 . S
H1061 C1084 0.950 . S
H1062 C1085 0.950 . S
H1063 C1087 0.950 . S
H1064 C1088 0.950 . S
H1065 C1089 0.951 . S
H1066 C1091 0.951 . S
H1067 C1093 0.950 . S
H1068 C1094 0.950 . S
H1069 C1096 0.950 . S
H1070 C1099 0.950 . S
H1071 C1100 0.950 . S
H1072 C1102 0.950 . S
H1073 C1103 0.950 . S
C1074 H1056 0.951 . S
C1074 C1075 1.366 . S
C1074 C1076 1.388 . S
C1075 C1074 1.366 . S
C1075 C1079 1.385 . S
C1076 H1057 0.951 . S
C1076 C1074 1.388 . S
C1076 C1077 1.366 . S
C1077 C1076 1.366 . S
C1077 C1078 1.414 . S
C1077 C1080 1.499 . S
C1078 H1058 0.950 . S
C1078 C1077 1.414 . S
C1078 C1079 1.374 . S
C1079 H1059 0.950 . S
C1079 C1075 1.385 . S
C1079 C1078 1.374 . S
C1080 C1077 1.499 . S
C1080 C1081 1.373 . S
C1080 C1082 1.389 . S
C1081 H1060 0.950 . S
C1081 C1080 1.373 . S
C1081 C1097 1.377 . S
C1082 C1080 1.389 . S
C1082 C1083 1.524 . S
C1082 C1096 1.377 . S
C1083 C1082 1.524 . S
C1083 C1084 1.397 . S
C1083 C1088 1.363 . S
C1084 H1061 0.950 . S
C1084 C1083 1.397 . S
C1084 C1085 1.334 . S
C1085 H1062 0.950 . S
C1085 C1084 1.334 . S
C1085 C1086 1.287 . S
C1086 C1085 1.287 . S
C1086 C1087 1.524 . S
C1086 H1105 0.913 . S
C1087 H1063 0.950 . S
C1087 C1086 1.524 . S
C1087 C1088 1.415 . S
C1088 H1064 0.950 . S
C1088 C1083 1.363 . S
C1088 C1087 1.415 . S
C1089 H1065 0.951 . S
C1089 C1090 1.366 . S
C1089 C1091 1.388 . S
C1090 C1089 1.366 . S
C1090 C1094 1.385 . S
C1091 H1066 0.951 . S
C1091 C1089 1.388 . S
C1091 C1092 1.366 . S
C1092 C1091 1.366 . S
C1092 C1093 1.414 . S
C1092 C1095 1.499 . S
C1093 H1067 0.950 . S
C1093 C1092 1.414 . S
C1093 C1094 1.374 . S
C1094 H1068 0.950 . S
C1094 C1090 1.385 . S
C1094 C1093 1.374 . S
C1095 C1092 1.499 . S
C1095 C1096 1.373 . S
C1095 C1097 1.389 . S
C1096 H1069 0.950 . S
C1096 C1082 1.377 . S
C1096 C1095 1.373 . S
C1097 C1081 1.377 . S
C1097 C1095 1.389 . S
C1097 C1098 1.524 . S
C1098 C1097 1.524 . S
C1098 C1099 1.397 . S
C1098 C1103 1.363 . S
C1099 H1070 0.950 . S
C1099 C1098 1.397 . S
C1099 C1100 1.334 . S
C1100 H1071 0.950 . S
C1100 C1099 1.334 . S
C1100 C1101 1.287 . S
C1101 C1100 1.287 . S
C1101 C1102 1.524 . S
C1101 H1104 0.999 . S
C1102 H1072 0.950 . S
C1102 C1101 1.524 . S
C1102 C1103 1.415 . S
C1103 H1073 0.950 . S
C1103 C1098 1.363 . S
C1103 C1102 1.415 . S
H1104 C1101 0.999 . S
H1105 C1086 0.913 . S
H1106 C1124 0.951 . S
H1107 C1126 0.951 . S
H1108 C1128 0.950 . S
H1109 C1129 0.950 . S
H1110 C1131 0.950 . S
H1111 C1134 0.950 . S
H1112 C1135 0.950 . S
H1113 C1137 0.950 . S
H1114 C1138 0.950 . S
H1115 C1139 0.951 . S
H1116 C1141 0.951 . S
H1117 C1143 0.950 . S
H1118 C1144 0.950 . S
H1119 C1146 0.950 . S
H1120 C1149 0.950 . S
H1121 C1150 0.950 . S
H1122 C1152 0.950 . S
H1123 C1153 0.950 . S
C1124 H1106 0.951 . S
C1124 C1125 1.366 . S
C1124 C1126 1.388 . S
C1125 C1124 1.366 . S
C1125 C1129 1.385 . S
C1126 H1107 0.951 . S
C1126 C1124 1.388 . S
C1126 C1127 1.366 . S
C1127 C1126 1.366 . S
C1127 C1128 1.414 . S
C1127 C1130 1.499 . S
C1128 H1108 0.950 . S
C1128 C1127 1.414 . S
C1128 C1129 1.374 . S
C1129 H1109 0.950 . S
C1129 C1125 1.385 . S
C1129 C1128 1.374 . S
C1130 C1127 1.499 . S
C1130 C1131 1.373 . S
C1130 C1132 1.389 . S
C1131 H1110 0.950 . S
C1131 C1130 1.373 . S
C1131 C1147 1.377 . S
C1132 C1130 1.389 . S
C1132 C1133 1.524 . S
C1132 C1146 1.377 . S
C1133 C1132 1.524 . S
C1133 C1134 1.397 . S
C1133 C1138 1.363 . S
C1134 H1111 0.950 . S
C1134 C1133 1.397 . S
C1134 C1135 1.334 . S
C1135 H1112 0.950 . S
C1135 C1134 1.334 . S
C1135 C1136 1.287 . S
C1136 C1135 1.287 . S
C1136 C1137 1.524 . S
C1136 H1155 0.913 . S
C1137 H1113 0.950 . S
C1137 C1136 1.524 . S
C1137 C1138 1.415 . S
C1138 H1114 0.950 . S
C1138 C1133 1.363 . S
C1138 C1137 1.415 . S
C1139 H1115 0.951 . S
C1139 C1140 1.366 . S
C1139 C1141 1.388 . S
C1140 C1139 1.366 . S
C1140 C1144 1.385 . S
C1141 H1116 0.951 . S
C1141 C1139 1.388 . S
C1141 C1142 1.366 . S
C1142 C1141 1.366 . S
C1142 C1143 1.414 . S
C1142 C1145 1.499 . S
C1143 H1117 0.950 . S
C1143 C1142 1.414 . S
C1143 C1144 1.374 . S
C1144 H1118 0.950 . S
C1144 C1140 1.385 . S
C1144 C1143 1.374 . S
C1145 C1142 1.499 . S
C1145 C1146 1.373 . S
C1145 C1147 1.389 . S
C1146 H1119 0.950 . S
C1146 C1132 1.377 . S
C1146 C1145 1.373 . S
C1147 C1131 1.377 . S
C1147 C1145 1.389 . S
C1147 C1148 1.524 . S
C1148 C1147 1.524 . S
C1148 C1149 1.397 . S
C1148 C1153 1.363 . S
C1149 H1120 0.950 . S
C1149 C1148 1.397 . S
C1149 C1150 1.334 . S
C1150 H1121 0.950 . S
C1150 C1149 1.334 . S
C1150 C1151 1.287 . S
C1151 C1150 1.287 . S
C1151 C1152 1.524 . S
C1151 H1154 0.999 . S
C1152 H1122 0.950 . S
C1152 C1151 1.524 . S
C1152 C1153 1.415 . S
C1153 H1123 0.950 . S
C1153 C1148 1.363 . S
C1153 C1152 1.415 . S
H1154 C1151 0.999 . S
H1155 C1136 0.913 . S
H1156 C1174 0.951 . S
H1157 C1176 0.951 . S
H1158 C1178 0.950 . S
H1159 C1179 0.950 . S
H1160 C1181 0.950 . S
H1161 C1184 0.950 . S
H1162 C1185 0.950 . S
H1163 C1187 0.950 . S
H1164 C1188 0.950 . S
H1165 C1189 0.951 . S
H1166 C1191 0.951 . S
H1167 C1193 0.950 . S
H1168 C1194 0.950 . S
H1169 C1196 0.950 . S
H1170 C1199 0.950 . S
H1171 C1200 0.950 . S
H1172 C1202 0.950 . S
H1173 C1203 0.950 . S
C1174 H1156 0.951 . S
C1174 C1175 1.366 . S
C1174 C1176 1.388 . S
C1175 C1174 1.366 . S
C1175 C1179 1.385 . S
C1176 H1157 0.951 . S
C1176 C1174 1.388 . S
C1176 C1177 1.366 . S
C1177 C1176 1.366 . S
C1177 C1178 1.414 . S
C1177 C1180 1.499 . S
C1178 H1158 0.950 . S
C1178 C1177 1.414 . S
C1178 C1179 1.374 . S
C1179 H1159 0.950 . S
C1179 C1175 1.385 . S
C1179 C1178 1.374 . S
C1180 C1177 1.499 . S
C1180 C1181 1.373 . S
C1180 C1182 1.389 . S
C1181 H1160 0.950 . S
C1181 C1180 1.373 . S
C1181 C1197 1.377 . S
C1182 C1180 1.389 . S
C1182 C1183 1.524 . S
C1182 C1196 1.377 . S
C1183 C1182 1.524 . S
C1183 C1184 1.397 . S
C1183 C1188 1.363 . S
C1184 H1161 0.950 . S
C1184 C1183 1.397 . S
C1184 C1185 1.334 . S
C1185 H1162 0.950 . S
C1185 C1184 1.334 . S
C1185 C1186 1.287 . S
C1186 C1185 1.287 . S
C1186 C1187 1.524 . S
C1186 H1205 0.913 . S
C1187 H1163 0.950 . S
C1187 C1186 1.524 . S
C1187 C1188 1.415 . S
C1188 H1164 0.950 . S
C1188 C1183 1.363 . S
C1188 C1187 1.415 . S
C1189 H1165 0.951 . S
C1189 C1190 1.366 . S
C1189 C1191 1.388 . S
C1190 C1189 1.366 . S
C1190 C1194 1.385 . S
C1191 H1166 0.951 . S
C1191 C1189 1.388 . S
C1191 C1192 1.366 . S
C1192 C1191 1.366 . S
C1192 C1193 1.414 . S
C1192 C1195 1.499 . S
C1193 H1167 0.950 . S
C1193 C1192 1.414 . S
C1193 C1194 1.374 . S
C1194 H1168 0.950 . S
C1194 C1190 1.385 . S
C1194 C1193 1.374 . S
C1195 C1192 1.499 . S
C1195 C1196 1.373 . S
C1195 C1197 1.389 . S
C1196 H1169 0.950 . S
C1196 C1182 1.377 . S
C1196 C1195 1.373 . S
C1197 C1181 1.377 . S
C1197 C1195 1.389 . S
C1197 C1198 1.524 . S
C1198 C1197 1.524 . S
C1198 C1199 1.397 . S
C1198 C1203 1.363 . S
C1199 H1170 0.950 . S
C1199 C1198 1.397 . S
C1199 C1200 1.334 . S
C1200 H1171 0.950 . S
C1200 C1199 1.334 . S
C1200 C1201 1.287 . S
C1201 C1200 1.287 . S
C1201 C1202 1.524 . S
C1201 H1204 0.999 . S
C1202 H1172 0.950 . S
C1202 C1201 1.524 . S
C1202 C1203 1.415 . S
C1203 H1173 0.950 . S
C1203 C1198 1.363 . S
C1203 C1202 1.415 . S
H1204 C1201 0.999 . S
H1205 C1186 0.913 . S
H1206 C1224 0.951 . S
H1207 C1226 0.951 . S
H1208 C1228 0.950 . S
H1209 C1229 0.950 . S
H1210 C1231 0.950 . S
H1211 C1234 0.950 . S
H1212 C1235 0.950 . S
H1213 C1237 0.950 . S
H1214 C1238 0.950 . S
H1215 C1239 0.951 . S
H1216 C1241 0.951 . S
H1217 C1243 0.950 . S
H1218 C1244 0.950 . S
H1219 C1246 0.950 . S
H1220 C1249 0.950 . S
H1221 C1250 0.950 . S
H1222 C1252 0.950 . S
H1223 C1253 0.950 . S
C1224 H1206 0.951 . S
C1224 C1225 1.366 . S
C1224 C1226 1.388 . S
C1225 C1224 1.366 . S
C1225 C1229 1.385 . S
C1226 H1207 0.951 . S
C1226 C1224 1.388 . S
C1226 C1227 1.366 . S
C1227 C1226 1.366 . S
C1227 C1228 1.414 . S
C1227 C1230 1.499 . S
C1228 H1208 0.950 . S
C1228 C1227 1.414 . S
C1228 C1229 1.374 . S
C1229 H1209 0.950 . S
C1229 C1225 1.385 . S
C1229 C1228 1.374 . S
C1230 C1227 1.499 . S
C1230 C1231 1.373 . S
C1230 C1232 1.389 . S
C1231 H1210 0.950 . S
C1231 C1230 1.373 . S
C1231 C1247 1.377 . S
C1232 C1230 1.389 . S
C1232 C1233 1.524 . S
C1232 C1246 1.377 . S
C1233 C1232 1.524 . S
C1233 C1234 1.397 . S
C1233 C1238 1.363 . S
C1234 H1211 0.950 . S
C1234 C1233 1.397 . S
C1234 C1235 1.334 . S
C1235 H1212 0.950 . S
C1235 C1234 1.334 . S
C1235 C1236 1.287 . S
C1236 C1235 1.287 . S
C1236 C1237 1.524 . S
C1236 H1255 0.913 . S
C1237 H1213 0.950 . S
C1237 C1236 1.524 . S
C1237 C1238 1.415 . S
C1238 H1214 0.950 . S
C1238 C1233 1.363 . S
C1238 C1237 1.415 . S
C1239 H1215 0.951 . S
C1239 C1240 1.366 . S
C1239 C1241 1.388 . S
C1240 C1239 1.366 . S
C1240 C1244 1.385 . S
C1241 H1216 0.951 . S
C1241 C1239 1.388 . S
C1241 C1242 1.366 . S
C1242 C1241 1.366 . S
C1242 C1243 1.414 . S
C1242 C1245 1.499 . S
C1243 H1217 0.950 . S
C1243 C1242 1.414 . S
C1243 C1244 1.374 . S
C1244 H1218 0.950 . S
C1244 C1240 1.385 . S
C1244 C1243 1.374 . S
C1245 C1242 1.499 . S
C1245 C1246 1.373 . S
C1245 C1247 1.389 . S
C1246 H1219 0.950 . S
C1246 C1232 1.377 . S
C1246 C1245 1.373 . S
C1247 C1231 1.377 . S
C1247 C1245 1.389 . S
C1247 C1248 1.524 . S
C1248 C1247 1.524 . S
C1248 C1249 1.397 . S
C1248 C1253 1.363 . S
C1249 H1220 0.950 . S
C1249 C1248 1.397 . S
C1249 C1250 1.334 . S
C1250 H1221 0.950 . S
C1250 C1249 1.334 . S
C1250 C1251 1.287 . S
C1251 C1250 1.287 . S
C1251 C1252 1.524 . S
C1251 H1254 0.999 . S
C1252 H1222 0.950 . S
C1252 C1251 1.524 . S
C1252 C1253 1.415 . S
C1253 H1223 0.950 . S
C1253 C1248 1.363 . S
C1253 C1252 1.415 . S
H1254 C1251 0.999 . S
H1255 C1236 0.913 . S
H1256 C1274 0.951 . S
H1257 C1276 0.951 . S
H1258 C1278 0.950 . S
H1259 C1279 0.950 . S
H1260 C1281 0.950 . S
H1261 C1284 0.950 . S
H1262 C1285 0.950 . S
H1263 C1287 0.950 . S
H1264 C1288 0.950 . S
H1265 C1289 0.951 . S
H1266 C1291 0.951 . S
H1267 C1293 0.950 . S
H1268 C1294 0.950 . S
H1269 C1296 0.953 . S
H1270 C1299 0.950 . S
H1271 C1300 0.950 . S
H1272 C1302 0.950 . S
H1273 C1303 0.950 . S
C1274 H1256 0.951 . S
C1274 C1275 1.366 . S
C1274 C1276 1.388 . S
C1275 C1274 1.366 . S
C1275 C1279 1.385 . S
C1276 H1257 0.951 . S
C1276 C1274 1.388 . S
C1276 C1277 1.366 . S
C1277 C1276 1.366 . S
C1277 C1278 1.414 . S
C1277 C1280 1.499 . S
C1278 H1258 0.950 . S
C1278 C1277 1.414 . S
C1278 C1279 1.374 . S
C1279 H1259 0.950 . S
C1279 C1275 1.385 . S
C1279 C1278 1.374 . S
C1280 C1277 1.499 . S
C1280 C1281 1.373 . S
C1280 C1282 1.389 . S
C1281 H1260 0.950 . S
C1281 C1280 1.373 . S
C1281 C1297 1.377 . S
C1282 C1280 1.389 . S
C1282 C1283 1.524 . S
C1282 C1296 1.377 . S
C1283 C1282 1.524 . S
C1283 C1284 1.397 . S
C1283 C1288 1.363 . S
C1284 H1261 0.950 . S
C1284 C1283 1.397 . S
C1284 C1285 1.334 . S
C1285 H1262 0.950 . S
C1285 C1284 1.334 . S
C1285 C1286 1.287 . S
C1286 C1285 1.287 . S
C1286 C1287 1.524 . S
C1286 H1305 0.913 1_556 S
C1287 H1263 0.950 . S
C1287 C1286 1.524 . S
C1287 C1288 1.415 . S
C1288 H1264 0.950 . S
C1288 C1283 1.363 . S
C1288 C1287 1.415 . S
C1289 H1265 0.951 . S
C1289 C1290 1.366 . S
C1289 C1291 1.388 . S
C1290 C1289 1.366 . S
C1290 C1294 1.385 . S
C1291 H1266 0.951 . S
C1291 C1289 1.388 . S
C1291 C1292 1.360 1_554 S
C1292 C1291 1.360 1_556 S
C1292 C1293 1.409 1_556 S
C1292 C1295 1.509 . S
C1293 H1267 0.950 . S
C1293 C1292 1.409 1_554 S
C1293 C1294 1.374 . S
C1294 H1268 0.950 . S
C1294 C1290 1.385 . S
C1294 C1293 1.374 . S
C1295 C1292 1.509 . S
C1295 C1296 1.373 . S
C1295 C1297 1.389 . S
C1296 H1269 0.953 . S
C1296 C1282 1.377 . S
C1296 C1295 1.373 . S
C1297 C1281 1.377 . S
C1297 C1295 1.389 . S
C1297 C1298 1.524 . S
C1298 C1297 1.524 . S
C1298 C1299 1.397 . S
C1298 C1303 1.363 . S
C1299 H1270 0.950 . S
C1299 C1298 1.397 . S
C1299 C1300 1.334 . S
C1300 H1271 0.950 . S
C1300 C1299 1.334 . S
C1300 C1301 1.287 . S
C1301 C1300 1.287 . S
C1301 C1302 1.524 . S
C1301 H1304 0.999 . S
C1302 H1272 0.950 . S
C1302 C1301 1.524 . S
C1302 C1303 1.415 . S
C1303 H1273 0.950 . S
C1303 C1298 1.363 . S
C1303 C1302 1.415 . S
H1304 C1301 0.999 . S
H1305 C1286 0.913 1_554 S
H1306 C1324 0.951 . S
H1307 C1326 0.951 . S
H1308 C1328 0.950 . S
H1309 C1329 0.950 . S
H1310 C1331 0.950 . S
H1311 C1334 0.950 . S
H1312 C1335 0.950 . S
H1313 C1337 0.950 . S
H1314 C1338 0.950 . S
H1315 C1339 0.951 . S
H1316 C1341 0.951 . S
H1317 C1343 0.950 . S
H1318 C1344 0.950 . S
H1319 C1346 0.950 . S
H1320 C1349 0.950 . S
H1321 C1350 0.950 . S
H1322 C1352 0.950 . S
H1323 C1353 0.950 . S
C1324 H1306 0.951 . S
C1324 C1325 1.366 . S
C1324 C1326 1.388 . S
C1325 C1324 1.366 . S
C1325 C1329 1.385 . S
C1326 H1307 0.951 . S
C1326 C1324 1.388 . S
C1326 C1327 1.366 . S
C1327 C1326 1.366 . S
C1327 C1328 1.414 . S
C1327 C1330 1.499 . S
C1328 H1308 0.950 . S
C1328 C1327 1.414 . S
C1328 C1329 1.374 . S
C1329 H1309 0.950 . S
C1329 C1325 1.385 . S
C1329 C1328 1.374 . S
C1330 C1327 1.499 . S
C1330 C1331 1.373 . S
C1330 C1332 1.389 . S
C1331 H1310 0.950 . S
C1331 C1330 1.373 . S
C1331 C1347 1.377 . S
C1332 C1330 1.389 . S
C1332 C1333 1.524 . S
C1332 C1346 1.377 . S
C1333 C1332 1.524 . S
C1333 C1334 1.397 . S
C1333 C1338 1.363 . S
C1334 H1311 0.950 . S
C1334 C1333 1.397 . S
C1334 C1335 1.334 . S
C1335 H1312 0.950 . S
C1335 C1334 1.334 . S
C1335 C1336 1.287 . S
C1336 C1335 1.287 . S
C1336 C1337 1.524 . S
C1336 H1355 0.913 . S
C1337 H1313 0.950 . S
C1337 C1336 1.524 . S
C1337 C1338 1.415 . S
C1338 H1314 0.950 . S
C1338 C1333 1.363 . S
C1338 C1337 1.415 . S
C1339 H1315 0.951 . S
C1339 C1340 1.366 . S
C1339 C1341 1.388 . S
C1340 C1339 1.366 . S
C1340 C1344 1.385 . S
C1341 H1316 0.951 . S
C1341 C1339 1.388 . S
C1341 C1342 1.366 . S
C1342 C1341 1.366 . S
C1342 C1343 1.414 . S
C1342 C1345 1.499 . S
C1343 H1317 0.950 . S
C1343 C1342 1.414 . S
C1343 C1344 1.374 . S
C1344 H1318 0.950 . S
C1344 C1340 1.385 . S
C1344 C1343 1.374 . S
C1345 C1342 1.499 . S
C1345 C1346 1.373 . S
C1345 C1347 1.389 . S
C1346 H1319 0.950 . S
C1346 C1332 1.377 . S
C1346 C1345 1.373 . S
C1347 C1331 1.377 . S
C1347 C1345 1.389 . S
C1347 C1348 1.524 . S
C1348 C1347 1.524 . S
C1348 C1349 1.397 . S
C1348 C1353 1.363 . S
C1349 H1320 0.950 . S
C1349 C1348 1.397 . S
C1349 C1350 1.334 . S
C1350 H1321 0.950 . S
C1350 C1349 1.334 . S
C1350 C1351 1.287 . S
C1351 C1350 1.287 . S
C1351 C1352 1.524 . S
C1351 H1354 0.999 . S
C1352 H1322 0.950 . S
C1352 C1351 1.524 . S
C1352 C1353 1.415 . S
C1353 H1323 0.950 . S
C1353 C1348 1.363 . S
C1353 C1352 1.415 . S
H1354 C1351 0.999 . S
H1355 C1336 0.913 . S
H1356 C1374 0.951 . S
H1357 C1376 0.951 . S
H1358 C1378 0.950 . S
H1359 C1379 0.950 . S
H1360 C1381 0.950 . S
H1361 C1384 0.950 . S
H1362 C1385 0.950 . S
H1363 C1387 0.950 . S
H1364 C1388 0.950 . S
H1365 C1389 0.951 . S
H1366 C1391 0.951 . S
H1367 C1393 0.950 . S
H1368 C1394 0.950 . S
H1369 C1396 0.950 . S
H1370 C1399 0.950 . S
H1371 C1400 0.950 . S
H1372 C1402 0.950 . S
H1373 C1403 0.950 . S
C1374 H1356 0.951 . S
C1374 C1375 1.366 . S
C1374 C1376 1.388 . S
C1375 C1374 1.366 . S
C1375 C1379 1.385 . S
C1376 H1357 0.951 . S
C1376 C1374 1.388 . S
C1376 C1377 1.366 . S
C1377 C1376 1.366 . S
C1377 C1378 1.414 . S
C1377 C1380 1.499 . S
C1378 H1358 0.950 . S
C1378 C1377 1.414 . S
C1378 C1379 1.374 . S
C1379 H1359 0.950 . S
C1379 C1375 1.385 . S
C1379 C1378 1.374 . S
C1380 C1377 1.499 . S
C1380 C1381 1.373 . S
C1380 C1382 1.389 . S
C1381 H1360 0.950 . S
C1381 C1380 1.373 . S
C1381 C1397 1.377 . S
C1382 C1380 1.389 . S
C1382 C1383 1.524 . S
C1382 C1396 1.377 . S
C1383 C1382 1.524 . S
C1383 C1384 1.397 . S
C1383 C1388 1.363 . S
C1384 H1361 0.950 . S
C1384 C1383 1.397 . S
C1384 C1385 1.334 . S
C1385 H1362 0.950 . S
C1385 C1384 1.334 . S
C1385 C1386 1.287 . S
C1386 C1385 1.287 . S
C1386 C1387 1.524 . S
C1386 H1405 0.913 . S
C1387 H1363 0.950 . S
C1387 C1386 1.524 . S
C1387 C1388 1.415 . S
C1388 H1364 0.950 . S
C1388 C1383 1.363 . S
C1388 C1387 1.415 . S
C1389 H1365 0.951 . S
C1389 C1390 1.366 . S
C1389 C1391 1.388 . S
C1390 C1389 1.366 . S
C1390 C1394 1.385 . S
C1391 H1366 0.951 . S
C1391 C1389 1.388 . S
C1391 C1392 1.366 . S
C1392 C1391 1.366 . S
C1392 C1393 1.414 . S
C1392 C1395 1.499 . S
C1393 H1367 0.950 . S
C1393 C1392 1.414 . S
C1393 C1394 1.374 . S
C1394 H1368 0.950 . S
C1394 C1390 1.385 . S
C1394 C1393 1.374 . S
C1395 C1392 1.499 . S
C1395 C1396 1.373 . S
C1395 C1397 1.389 . S
C1396 H1369 0.950 . S
C1396 C1382 1.377 . S
C1396 C1395 1.373 . S
C1397 C1381 1.377 . S
C1397 C1395 1.389 . S
C1397 C1398 1.524 . S
C1398 C1397 1.524 . S
C1398 C1399 1.397 . S
C1398 C1403 1.363 . S
C1399 H1370 0.950 . S
C1399 C1398 1.397 . S
C1399 C1400 1.334 . S
C1400 H1371 0.950 . S
C1400 C1399 1.334 . S
C1400 C1401 1.287 . S
C1401 C1400 1.287 . S
C1401 C1402 1.524 . S
C1401 H1404 0.999 . S
C1402 H1372 0.950 . S
C1402 C1401 1.524 . S
C1402 C1403 1.415 . S
C1403 H1373 0.950 . S
C1403 C1398 1.363 . S
C1403 C1402 1.415 . S
H1404 C1401 0.999 . S
H1405 C1386 0.913 . S
H1406 C1424 0.951 . S
H1407 C1426 0.951 . S
H1408 C1428 0.950 . S
H1409 C1429 0.950 . S
H1410 C1431 0.950 . S
H1411 C1434 0.950 . S
H1412 C1435 0.950 . S
H1413 C1437 0.950 . S
H1414 C1438 0.950 . S
H1415 C1439 0.951 . S
H1416 C1441 0.951 . S
H1417 C1443 0.950 . S
H1418 C1444 0.950 . S
H1419 C1446 0.950 . S
H1420 C1449 0.950 . S
H1421 C1450 0.950 . S
H1422 C1452 0.950 . S
H1423 C1453 0.950 . S
C1424 H1406 0.951 . S
C1424 C1425 1.366 . S
C1424 C1426 1.388 . S
C1425 C1424 1.366 . S
C1425 C1429 1.385 . S
C1426 H1407 0.951 . S
C1426 C1424 1.388 . S
C1426 C1427 1.366 . S
C1427 C1426 1.366 . S
C1427 C1428 1.414 . S
C1427 C1430 1.499 . S
C1428 H1408 0.950 . S
C1428 C1427 1.414 . S
C1428 C1429 1.374 . S
C1429 H1409 0.950 . S
C1429 C1425 1.385 . S
C1429 C1428 1.374 . S
C1430 C1427 1.499 . S
C1430 C1431 1.373 . S
C1430 C1432 1.389 . S
C1431 H1410 0.950 . S
C1431 C1430 1.373 . S
C1431 C1447 1.377 . S
C1432 C1430 1.389 . S
C1432 C1433 1.524 . S
C1432 C1446 1.377 . S
C1433 C1432 1.524 . S
C1433 C1434 1.397 . S
C1433 C1438 1.363 . S
C1434 H1411 0.950 . S
C1434 C1433 1.397 . S
C1434 C1435 1.334 . S
C1435 H1412 0.950 . S
C1435 C1434 1.334 . S
C1435 C1436 1.287 . S
C1436 C1435 1.287 . S
C1436 C1437 1.524 . S
C1436 H1455 0.913 . S
C1437 H1413 0.950 . S
C1437 C1436 1.524 . S
C1437 C1438 1.415 . S
C1438 H1414 0.950 . S
C1438 C1433 1.363 . S
C1438 C1437 1.415 . S
C1439 H1415 0.951 . S
C1439 C1440 1.366 . S
C1439 C1441 1.388 . S
C1440 C1439 1.366 . S
C1440 C1444 1.385 . S
C1441 H1416 0.951 . S
C1441 C1439 1.388 . S
C1441 C1442 1.366 . S
C1442 C1441 1.366 . S
C1442 C1443 1.414 . S
C1442 C1445 1.499 . S
C1443 H1417 0.950 . S
C1443 C1442 1.414 . S
C1443 C1444 1.374 . S
C1444 H1418 0.950 . S
C1444 C1440 1.385 . S
C1444 C1443 1.374 . S
C1445 C1442 1.499 . S
C1445 C1446 1.373 . S
C1445 C1447 1.389 . S
C1446 H1419 0.950 . S
C1446 C1432 1.377 . S
C1446 C1445 1.373 . S
C1447 C1431 1.377 . S
C1447 C1445 1.389 . S
C1447 C1448 1.524 . S
C1448 C1447 1.524 . S
C1448 C1449 1.397 . S
C1448 C1453 1.363 . S
C1449 H1420 0.950 . S
C1449 C1448 1.397 . S
C1449 C1450 1.334 . S
C1450 H1421 0.950 . S
C1450 C1449 1.334 . S
C1450 C1451 1.287 . S
C1451 C1450 1.287 . S
C1451 C1452 1.524 . S
C1451 H1454 0.999 . S
C1452 H1422 0.950 . S
C1452 C1451 1.524 . S
C1452 C1453 1.415 . S
C1453 H1423 0.950 . S
C1453 C1448 1.363 . S
C1453 C1452 1.415 . S
H1454 C1451 0.999 . S
H1455 C1436 0.913 . S
H1456 C1474 0.951 . S
H1457 C1476 0.951 . S
H1458 C1478 0.950 . S
H1459 C1479 0.950 . S
H1460 C1481 0.950 . S
H1461 C1484 0.950 . S
H1462 C1485 0.950 . S
H1463 C1487 0.950 . S
H1464 C1488 0.950 . S
H1465 C1489 0.951 . S
H1466 C1491 0.951 . S
H1467 C1493 0.950 . S
H1468 C1494 0.950 . S
H1469 C1496 0.950 . S
H1470 C1499 0.950 . S
H1471 C1500 0.950 . S
H1472 C1502 0.950 . S
H1473 C1503 0.950 . S
C1474 H1456 0.951 . S
C1474 C1475 1.366 . S
C1474 C1476 1.388 . S
C1475 C1474 1.366 . S
C1475 C1479 1.385 . S
C1476 H1457 0.951 . S
C1476 C1474 1.388 . S
C1476 C1477 1.366 . S
C1477 C1476 1.366 . S
C1477 C1478 1.414 . S
C1477 C1480 1.499 . S
C1478 H1458 0.950 . S
C1478 C1477 1.414 . S
C1478 C1479 1.374 . S
C1479 H1459 0.950 . S
C1479 C1475 1.385 . S
C1479 C1478 1.374 . S
C1480 C1477 1.499 . S
C1480 C1481 1.373 . S
C1480 C1482 1.389 . S
C1481 H1460 0.950 . S
C1481 C1480 1.373 . S
C1481 C1497 1.377 . S
C1482 C1480 1.389 . S
C1482 C1483 1.524 . S
C1482 C1496 1.377 . S
C1483 C1482 1.524 . S
C1483 C1484 1.397 . S
C1483 C1488 1.363 . S
C1484 H1461 0.950 . S
C1484 C1483 1.397 . S
C1484 C1485 1.334 . S
C1485 H1462 0.950 . S
C1485 C1484 1.334 . S
C1485 C1486 1.287 . S
C1486 C1485 1.287 . S
C1486 C1487 1.524 . S
C1486 H1505 0.913 . S
C1487 H1463 0.950 . S
C1487 C1486 1.524 . S
C1487 C1488 1.415 . S
C1488 H1464 0.950 . S
C1488 C1483 1.363 . S
C1488 C1487 1.415 . S
C1489 H1465 0.951 . S
C1489 C1490 1.366 . S
C1489 C1491 1.388 . S
C1490 C1489 1.366 . S
C1490 C1494 1.385 . S
C1491 H1466 0.951 . S
C1491 C1489 1.388 . S
C1491 C1492 1.366 . S
C1492 C1491 1.366 . S
C1492 C1493 1.414 . S
C1492 C1495 1.499 . S
C1493 H1467 0.950 . S
C1493 C1492 1.414 . S
C1493 C1494 1.374 . S
C1494 H1468 0.950 . S
C1494 C1490 1.385 . S
C1494 C1493 1.374 . S
C1495 C1492 1.499 . S
C1495 C1496 1.373 . S
C1495 C1497 1.389 . S
C1496 H1469 0.950 . S
C1496 C1482 1.377 . S
C1496 C1495 1.373 . S
C1497 C1481 1.377 . S
C1497 C1495 1.389 . S
C1497 C1498 1.524 . S
C1498 C1497 1.524 . S
C1498 C1499 1.397 . S
C1498 C1503 1.363 . S
C1499 H1470 0.950 . S
C1499 C1498 1.397 . S
C1499 C1500 1.334 . S
C1500 H1471 0.950 . S
C1500 C1499 1.334 . S
C1500 C1501 1.287 . S
C1501 C1500 1.287 . S
C1501 C1502 1.524 . S
C1501 H1504 0.999 . S
C1502 H1472 0.950 . S
C1502 C1501 1.524 . S
C1502 C1503 1.415 . S
C1503 H1473 0.950 . S
C1503 C1498 1.363 . S
C1503 C1502 1.415 . S
H1504 C1501 0.999 . S
H1505 C1486 0.913 . S
H1506 C1524 0.951 . S
H1507 C1526 0.951 . S
H1508 C1528 0.950 . S
H1509 C1529 0.950 . S
H1510 C1531 0.950 . S
H1511 C1534 0.950 . S
H1512 C1535 0.950 . S
H1513 C1537 0.950 . S
H1514 C1538 0.950 . S
H1515 C1539 0.951 . S
H1516 C1541 0.951 . S
H1517 C1543 0.950 . S
H1518 C1544 0.950 . S
H1519 C1546 0.950 . S
H1520 C1549 0.950 . S
H1521 C1550 0.950 . S
H1522 C1552 0.950 . S
H1523 C1553 0.950 . S
C1524 H1506 0.951 . S
C1524 C1525 1.366 . S
C1524 C1526 1.388 . S
C1525 C1524 1.366 . S
C1525 C1529 1.385 . S
C1526 H1507 0.951 . S
C1526 C1524 1.388 . S
C1526 C1527 1.366 . S
C1527 C1526 1.366 . S
C1527 C1528 1.414 . S
C1527 C1530 1.499 . S
C1528 H1508 0.950 . S
C1528 C1527 1.414 . S
C1528 C1529 1.374 . S
C1529 H1509 0.950 . S
C1529 C1525 1.385 . S
C1529 C1528 1.374 . S
C1530 C1527 1.499 . S
C1530 C1531 1.373 . S
C1530 C1532 1.389 . S
C1531 H1510 0.950 . S
C1531 C1530 1.373 . S
C1531 C1547 1.377 . S
C1532 C1530 1.389 . S
C1532 C1533 1.524 . S
C1532 C1546 1.377 . S
C1533 C1532 1.524 . S
C1533 C1534 1.397 . S
C1533 C1538 1.363 . S
C1534 H1511 0.950 . S
C1534 C1533 1.397 . S
C1534 C1535 1.334 . S
C1535 H1512 0.950 . S
C1535 C1534 1.334 . S
C1535 C1536 1.287 . S
C1536 C1535 1.287 . S
C1536 C1537 1.524 . S
C1536 H1555 0.913 . S
C1537 H1513 0.950 . S
C1537 C1536 1.524 . S
C1537 C1538 1.415 . S
C1538 H1514 0.950 . S
C1538 C1533 1.363 . S
C1538 C1537 1.415 . S
C1539 H1515 0.951 . S
C1539 C1540 1.366 . S
C1539 C1541 1.388 . S
C1540 C1539 1.366 . S
C1540 C1544 1.385 . S
C1541 H1516 0.951 . S
C1541 C1539 1.388 . S
C1541 C1542 1.366 . S
C1542 C1541 1.366 . S
C1542 C1543 1.414 . S
C1542 C1545 1.499 . S
C1543 H1517 0.950 . S
C1543 C1542 1.414 . S
C1543 C1544 1.374 . S
C1544 H1518 0.950 . S
C1544 C1540 1.385 . S
C1544 C1543 1.374 . S
C1545 C1542 1.499 . S
C1545 C1546 1.373 . S
C1545 C1547 1.389 . S
C1546 H1519 0.950 . S
C1546 C1532 1.377 . S
C1546 C1545 1.373 . S
C1547 C1531 1.377 . S
C1547 C1545 1.389 . S
C1547 C1548 1.524 . S
C1548 C1547 1.524 . S
C1548 C1549 1.397 . S
C1548 C1553 1.363 . S
C1549 H1520 0.950 . S
C1549 C1548 1.397 . S
C1549 C1550 1.334 . S
C1550 H1521 0.950 . S
C1550 C1549 1.334 . S
C1550 C1551 1.287 . S
C1551 C1550 1.287 . S
C1551 C1552 1.524 . S
C1551 H1554 0.999 . S
C1552 H1522 0.950 . S
C1552 C1551 1.524 . S
C1552 C1553 1.415 . S
C1553 H1523 0.950 . S
C1553 C1548 1.363 . S
C1553 C1552 1.415 . S
H1554 C1551 0.999 . S
H1555 C1536 0.913 . S
H1556 C1574 0.951 . S
H1557 C1576 0.951 . S
H1558 C1578 0.950 . S
H1559 C1579 0.950 . S
H1560 C1581 0.950 . S
H1561 C1584 0.950 . S
H1562 C1585 0.950 . S
H1563 C1587 0.950 . S
H1564 C1588 0.950 . S
H1565 C1589 0.951 . S
H1566 C1591 0.951 . S
H1567 C1593 0.950 . S
H1568 C1594 0.950 . S
H1569 C1596 0.950 . S
H1570 C1599 0.950 . S
H1571 C1600 0.950 . S
H1572 C1602 0.950 . S
H1573 C1603 0.950 . S
C1574 H1556 0.951 . S
C1574 C1575 1.366 . S
C1574 C1576 1.388 . S
C1575 C1574 1.366 . S
C1575 C1579 1.385 . S
C1576 H1557 0.951 . S
C1576 C1574 1.388 . S
C1576 C1577 1.366 . S
C1577 C1576 1.366 . S
C1577 C1578 1.414 . S
C1577 C1580 1.499 . S
C1578 H1558 0.950 . S
C1578 C1577 1.414 . S
C1578 C1579 1.374 . S
C1579 H1559 0.950 . S
C1579 C1575 1.385 . S
C1579 C1578 1.374 . S
C1580 C1577 1.499 . S
C1580 C1581 1.373 . S
C1580 C1582 1.389 . S
C1581 H1560 0.950 . S
C1581 C1580 1.373 . S
C1581 C1597 1.377 . S
C1582 C1580 1.389 . S
C1582 C1583 1.524 . S
C1582 C1596 1.377 . S
C1583 C1582 1.524 . S
C1583 C1584 1.397 . S
C1583 C1588 1.363 . S
C1584 H1561 0.950 . S
C1584 C1583 1.397 . S
C1584 C1585 1.334 . S
C1585 H1562 0.950 . S
C1585 C1584 1.334 . S
C1585 C1586 1.287 . S
C1586 C1585 1.287 . S
C1586 C1587 1.524 . S
C1586 H1605 0.913 . S
C1587 H1563 0.950 . S
C1587 C1586 1.524 . S
C1587 C1588 1.415 . S
C1588 H1564 0.950 . S
C1588 C1583 1.363 . S
C1588 C1587 1.415 . S
C1589 H1565 0.951 . S
C1589 C1590 1.366 . S
C1589 C1591 1.388 . S
C1590 C1589 1.366 . S
C1590 C1594 1.385 . S
C1591 H1566 0.951 . S
C1591 C1589 1.388 . S
C1591 C1592 1.366 . S
C1592 C1591 1.366 . S
C1592 C1593 1.414 . S
C1592 C1595 1.499 . S
C1593 H1567 0.950 . S
C1593 C1592 1.414 . S
C1593 C1594 1.374 . S
C1594 H1568 0.950 . S
C1594 C1590 1.385 . S
C1594 C1593 1.374 . S
C1595 C1592 1.499 . S
C1595 C1596 1.373 . S
C1595 C1597 1.389 . S
C1596 H1569 0.950 . S
C1596 C1582 1.377 . S
C1596 C1595 1.373 . S
C1597 C1581 1.377 . S
C1597 C1595 1.389 . S
C1597 C1598 1.524 . S
C1598 C1597 1.524 . S
C1598 C1599 1.397 . S
C1598 C1603 1.363 . S
C1599 H1570 0.950 . S
C1599 C1598 1.397 . S
C1599 C1600 1.334 . S
C1600 H1571 0.950 . S
C1600 C1599 1.334 . S
C1600 C1601 1.287 . S
C1601 C1600 1.287 . S
C1601 C1602 1.524 . S
C1601 H1604 0.999 . S
C1602 H1572 0.950 . S
C1602 C1601 1.524 . S
C1602 C1603 1.415 . S
C1603 H1573 0.950 . S
C1603 C1598 1.363 . S
C1603 C1602 1.415 . S
H1604 C1601 0.999 . S
H1605 C1586 0.913 . S
H1606 C1624 0.951 . S
H1607 C1626 0.951 . S
H1608 C1628 0.950 . S
H1609 C1629 0.950 . S
H1610 C1631 0.950 . S
H1611 C1634 0.950 1_554 S
H1612 C1635 0.950 . S
H1613 C1637 0.950 . S
H1614 C1638 0.950 . S
H1615 C1639 0.951 . S
H1616 C1641 0.951 . S
H1617 C1643 0.950 . S
H1618 C1644 0.950 . S
H1619 C1646 0.950 . S
H1620 C1649 0.950 . S
H1621 C1650 0.950 . S
H1622 C1652 0.950 . S
H1623 C1653 0.950 . S
C1624 H1606 0.951 . S
C1624 C1625 1.366 . S
C1624 C1626 1.388 . S
C1625 C1624 1.366 . S
C1625 C1629 1.385 . S
C1626 H1607 0.951 . S
C1626 C1624 1.388 . S
C1626 C1627 1.366 . S
C1627 C1626 1.366 . S
C1627 C1628 1.414 . S
C1627 C1630 1.499 . S
C1628 H1608 0.950 . S
C1628 C1627 1.414 . S
C1628 C1629 1.374 . S
C1629 H1609 0.950 . S
C1629 C1625 1.385 . S
C1629 C1628 1.374 . S
C1630 C1627 1.499 . S
C1630 C1631 1.373 . S
C1630 C1632 1.389 . S
C1631 H1610 0.950 . S
C1631 C1630 1.373 . S
C1631 C1647 1.377 . S
C1632 C1630 1.389 . S
C1632 C1633 1.524 . S
C1632 C1646 1.377 . S
C1633 C1632 1.524 . S
C1633 C1634 1.397 . S
C1633 C1638 1.363 . S
C1634 H1611 0.950 1_556 S
C1634 C1633 1.397 . S
C1634 C1635 1.334 1_556 S
C1635 H1612 0.950 . S
C1635 C1634 1.334 1_554 S
C1635 C1636 1.287 . S
C1636 C1635 1.287 . S
C1636 C1637 1.524 1_554 S
C1636 H1655 0.913 . S
C1637 H1613 0.950 . S
C1637 C1636 1.524 1_556 S
C1637 C1638 1.415 . S
C1638 H1614 0.950 . S
C1638 C1633 1.363 . S
C1638 C1637 1.415 . S
C1639 H1615 0.951 . S
C1639 C1640 1.366 . S
C1639 C1641 1.388 1_554 S
C1640 C1639 1.366 . S
C1640 C1644 1.384 1_554 S
C1641 H1616 0.951 . S
C1641 C1639 1.388 1_556 S
C1641 C1642 1.366 . S
C1642 C1641 1.366 . S
C1642 C1643 1.414 . S
C1642 C1645 1.499 . S
C1643 H1617 0.950 . S
C1643 C1642 1.414 . S
C1643 C1644 1.374 . S
C1644 H1618 0.950 . S
C1644 C1640 1.384 1_556 S
C1644 C1643 1.374 . S
C1645 C1642 1.499 . S
C1645 C1646 1.373 . S
C1645 C1647 1.389 . S
C1646 H1619 0.950 . S
C1646 C1632 1.377 . S
C1646 C1645 1.373 . S
C1647 C1631 1.377 . S
C1647 C1645 1.389 . S
C1647 C1648 1.524 . S
C1648 C1647 1.524 . S
C1648 C1649 1.397 . S
C1648 C1653 1.363 . S
C1649 H1620 0.950 . S
C1649 C1648 1.397 . S
C1649 C1650 1.334 . S
C1650 H1621 0.950 . S
C1650 C1649 1.334 . S
C1650 C1651 1.287 . S
C1651 C1650 1.287 . S
C1651 C1652 1.524 . S
C1651 H1654 0.999 . S
C1652 H1622 0.950 . S
C1652 C1651 1.524 . S
C1652 C1653 1.415 . S
C1653 H1623 0.950 . S
C1653 C1648 1.363 . S
C1653 C1652 1.415 . S
H1654 C1651 0.999 . S
H1655 C1636 0.913 . S
H1656 C1674 0.951 . S
H1657 C1676 0.951 . S
H1658 C1678 0.950 . S
H1659 C1679 0.950 . S
H1660 C1681 0.950 . S
H1661 C1684 0.950 . S
H1662 C1685 0.950 . S
H1663 C1687 0.950 . S
H1664 C1688 0.950 . S
H1665 C1689 0.951 . S
H1666 C1691 0.951 . S
H1667 C1693 0.950 . S
H1668 C1694 0.950 . S
H1669 C1696 0.950 . S
H1670 C1699 0.950 . S
H1671 C1700 0.950 . S
H1672 C1702 0.950 . S
H1673 C1703 0.950 . S
C1674 H1656 0.951 . S
C1674 C1675 1.366 . S
C1674 C1676 1.388 . S
C1675 C1674 1.366 . S
C1675 C1679 1.385 . S
C1676 H1657 0.951 . S
C1676 C1674 1.388 . S
C1676 C1677 1.366 . S
C1677 C1676 1.366 . S
C1677 C1678 1.414 . S
C1677 C1680 1.499 . S
C1678 H1658 0.950 . S
C1678 C1677 1.414 . S
C1678 C1679 1.374 . S
C1679 H1659 0.950 . S
C1679 C1675 1.385 . S
C1679 C1678 1.374 . S
C1680 C1677 1.499 . S
C1680 C1681 1.373 . S
C1680 C1682 1.389 . S
C1681 H1660 0.950 . S
C1681 C1680 1.373 . S
C1681 C1697 1.377 . S
C1682 C1680 1.389 . S
C1682 C1683 1.524 . S
C1682 C1696 1.377 . S
C1683 C1682 1.524 . S
C1683 C1684 1.397 . S
C1683 C1688 1.363 . S
C1684 H1661 0.950 . S
C1684 C1683 1.397 . S
C1684 C1685 1.334 . S
C1685 H1662 0.950 . S
C1685 C1684 1.334 . S
C1685 C1686 1.287 . S
C1686 C1685 1.287 . S
C1686 C1687 1.524 . S
C1686 H1705 0.913 . S
C1687 H1663 0.950 . S
C1687 C1686 1.524 . S
C1687 C1688 1.415 . S
C1688 H1664 0.950 . S
C1688 C1683 1.363 . S
C1688 C1687 1.415 . S
C1689 H1665 0.951 . S
C1689 C1690 1.366 . S
C1689 C1691 1.388 . S
C1690 C1689 1.366 . S
C1690 C1694 1.385 . S
C1691 H1666 0.951 . S
C1691 C1689 1.388 . S
C1691 C1692 1.366 . S
C1692 C1691 1.366 . S
C1692 C1693 1.414 . S
C1692 C1695 1.499 . S
C1693 H1667 0.950 . S
C1693 C1692 1.414 . S
C1693 C1694 1.374 . S
C1694 H1668 0.950 . S
C1694 C1690 1.385 . S
C1694 C1693 1.374 . S
C1695 C1692 1.499 . S
C1695 C1696 1.373 . S
C1695 C1697 1.389 . S
C1696 H1669 0.950 . S
C1696 C1682 1.377 . S
C1696 C1695 1.373 . S
C1697 C1681 1.377 . S
C1697 C1695 1.389 . S
C1697 C1698 1.524 . S
C1698 C1697 1.524 . S
C1698 C1699 1.397 . S
C1698 C1703 1.363 . S
C1699 H1670 0.950 . S
C1699 C1698 1.397 . S
C1699 C1700 1.334 . S
C1700 H1671 0.950 . S
C1700 C1699 1.334 . S
C1700 C1701 1.287 . S
C1701 C1700 1.287 . S
C1701 C1702 1.524 . S
C1701 H1704 0.999 . S
C1702 H1672 0.950 . S
C1702 C1701 1.524 . S
C1702 C1703 1.415 . S
C1703 H1673 0.950 . S
C1703 C1698 1.363 . S
C1703 C1702 1.415 . S
H1704 C1701 0.999 . S
H1705 C1686 0.913 . S
H1706 C1724 0.951 . S
H1707 C1726 0.951 . S
H1708 C1728 0.950 1_556 S
H1709 C1729 0.950 . S
H1710 C1731 0.950 . S
H1711 C1734 0.950 . S
H1712 C1735 0.950 . S
H1713 C1737 0.950 . S
H1714 C1738 0.950 . S
H1715 C1739 0.951 . S
H1716 C1741 0.951 . S
H1717 C1743 0.950 . S
H1718 C1744 0.950 . S
H1719 C1746 0.950 . S
H1720 C1749 0.950 . S
H1721 C1750 0.950 . S
H1722 C1752 0.950 . S
H1723 C1753 0.950 . S
C1724 H1706 0.951 . S
C1724 C1725 1.366 . S
C1724 C1726 1.388 . S
C1725 C1724 1.366 . S
C1725 C1729 1.385 . S
C1726 H1707 0.951 . S
C1726 C1724 1.388 . S
C1726 C1727 1.366 . S
C1727 C1726 1.366 . S
C1727 C1728 1.414 . S
C1727 C1730 1.499 1_554 S
C1728 H1708 0.950 1_554 S
C1728 C1727 1.414 . S
C1728 C1729 1.374 . S
C1729 H1709 0.950 . S
C1729 C1725 1.385 . S
C1729 C1728 1.374 . S
C1730 C1727 1.499 1_556 S
C1730 C1731 1.373 . S
C1730 C1732 1.389 . S
C1731 H1710 0.950 . S
C1731 C1730 1.373 . S
C1731 C1747 1.377 . S
C1732 C1730 1.389 . S
C1732 C1733 1.524 1_556 S
C1732 C1746 1.377 . S
C1733 C1732 1.524 1_554 S
C1733 C1734 1.397 . S
C1733 C1738 1.363 . S
C1734 H1711 0.950 . S
C1734 C1733 1.397 . S
C1734 C1735 1.334 . S
C1735 H1712 0.950 . S
C1735 C1734 1.334 . S
C1735 C1736 1.287 . S
C1736 C1735 1.287 . S
C1736 C1737 1.524 . S
C1736 H1755 0.913 . S
C1737 H1713 0.950 . S
C1737 C1736 1.524 . S
C1737 C1738 1.415 . S
C1738 H1714 0.950 . S
C1738 C1733 1.363 . S
C1738 C1737 1.415 . S
C1739 H1715 0.951 . S
C1739 C1740 1.366 . S
C1739 C1741 1.388 . S
C1740 C1739 1.366 . S
C1740 C1744 1.385 . S
C1741 H1716 0.951 . S
C1741 C1739 1.388 . S
C1741 C1742 1.366 . S
C1742 C1741 1.366 . S
C1742 C1743 1.414 . S
C1742 C1745 1.499 . S
C1743 H1717 0.950 . S
C1743 C1742 1.414 . S
C1743 C1744 1.374 . S
C1744 H1718 0.950 . S
C1744 C1740 1.385 . S
C1744 C1743 1.374 . S
C1745 C1742 1.499 . S
C1745 C1746 1.373 . S
C1745 C1747 1.389 . S
C1746 H1719 0.950 . S
C1746 C1732 1.377 . S
C1746 C1745 1.373 . S
C1747 C1731 1.377 . S
C1747 C1745 1.389 . S
C1747 C1748 1.524 . S
C1748 C1747 1.524 . S
C1748 C1749 1.397 . S
C1748 C1753 1.363 . S
C1749 H1720 0.950 . S
C1749 C1748 1.397 . S
C1749 C1750 1.334 . S
C1750 H1721 0.950 . S
C1750 C1749 1.334 . S
C1750 C1751 1.287 . S
C1751 C1750 1.287 . S
C1751 C1752 1.524 . S
C1751 H1754 0.999 . S
C1752 H1722 0.950 . S
C1752 C1751 1.524 . S
C1752 C1753 1.415 . S
C1753 H1723 0.950 . S
C1753 C1748 1.363 . S
C1753 C1752 1.415 . S
H1754 C1751 0.999 . S
H1755 C1736 0.913 . S
H1756 C1774 0.951 . S
H1757 C1776 0.951 . S
H1758 C1778 0.950 . S
H1759 C1779 0.950 . S
H1760 C1781 0.950 . S
H1761 C1784 0.950 . S
H1762 C1785 0.950 . S
H1763 C1787 0.950 . S
H1764 C1788 0.950 . S
H1765 C1789 0.951 . S
H1766 C1791 0.951 . S
H1767 C1793 0.950 . S
H1768 C1794 0.950 . S
H1769 C1796 0.950 . S
H1770 C1799 0.950 . S
H1771 C1800 0.950 . S
H1772 C1802 0.950 . S
H1773 C1803 0.950 . S
C1774 H1756 0.951 . S
C1774 C1775 1.366 . S
C1774 C1776 1.388 . S
C1775 C1774 1.366 . S
C1775 C1779 1.385 . S
C1776 H1757 0.951 . S
C1776 C1774 1.388 . S
C1776 C1777 1.366 . S
C1777 C1776 1.366 . S
C1777 C1778 1.414 . S
C1777 C1780 1.499 . S
C1778 H1758 0.950 . S
C1778 C1777 1.414 . S
C1778 C1779 1.374 . S
C1779 H1759 0.950 . S
C1779 C1775 1.385 . S
C1779 C1778 1.374 . S
C1780 C1777 1.499 . S
C1780 C1781 1.373 . S
C1780 C1782 1.389 . S
C1781 H1760 0.950 . S
C1781 C1780 1.373 . S
C1781 C1797 1.377 . S
C1782 C1780 1.389 . S
C1782 C1783 1.524 . S
C1782 C1796 1.377 . S
C1783 C1782 1.524 . S
C1783 C1784 1.397 . S
C1783 C1788 1.363 . S
C1784 H1761 0.950 . S
C1784 C1783 1.397 . S
C1784 C1785 1.334 . S
C1785 H1762 0.950 . S
C1785 C1784 1.334 . S
C1785 C1786 1.287 . S
C1786 C1785 1.287 . S
C1786 C1787 1.524 . S
C1786 H1805 0.913 . S
C1787 H1763 0.950 . S
C1787 C1786 1.524 . S
C1787 C1788 1.415 . S
C1788 H1764 0.950 . S
C1788 C1783 1.363 . S
C1788 C1787 1.415 . S
C1789 H1765 0.951 . S
C1789 C1790 1.366 . S
C1789 C1791 1.388 . S
C1790 C1789 1.366 . S
C1790 C1794 1.385 . S
C1791 H1766 0.951 . S
C1791 C1789 1.388 . S
C1791 C1792 1.366 . S
C1792 C1791 1.366 . S
C1792 C1793 1.414 . S
C1792 C1795 1.499 . S
C1793 H1767 0.950 . S
C1793 C1792 1.414 . S
C1793 C1794 1.374 . S
C1794 H1768 0.950 . S
C1794 C1790 1.385 . S
C1794 C1793 1.374 . S
C1795 C1792 1.499 . S
C1795 C1796 1.373 . S
C1795 C1797 1.389 . S
C1796 H1769 0.950 . S
C1796 C1782 1.377 . S
C1796 C1795 1.373 . S
C1797 C1781 1.377 . S
C1797 C1795 1.389 . S
C1797 C1798 1.524 . S
C1798 C1797 1.524 . S
C1798 C1799 1.397 . S
C1798 C1803 1.363 . S
C1799 H1770 0.950 . S
C1799 C1798 1.397 . S
C1799 C1800 1.334 1_554 S
C1800 H1771 0.950 . S
C1800 C1799 1.334 1_556 S
C1800 C1801 1.287 . S
C1801 C1800 1.287 . S
C1801 C1802 1.520 1_556 S
C1801 H1804 1.004 . S
C1802 H1772 0.950 . S
C1802 C1801 1.520 1_554 S
C1802 C1803 1.415 . S
C1803 H1773 0.950 . S
C1803 C1798 1.363 . S
C1803 C1802 1.415 . S
H1804 C1801 1.004 . S
H1805 C1786 0.913 . S
H1806 C1824 0.951 . S
H1807 C1826 0.951 . S
H1808 C1828 0.950 . S
H1809 C1829 0.950 . S
H1810 C1831 0.950 . S
H1811 C1834 0.950 . S
H1812 C1835 0.950 . S
H1813 C1837 0.950 . S
H1814 C1838 0.950 . S
H1815 C1839 0.951 . S
H1816 C1841 0.951 . S
H1817 C1843 0.950 . S
H1818 C1844 0.950 . S
H1819 C1846 0.950 . S
H1820 C1849 0.950 . S
H1821 C1850 0.950 . S
H1822 C1852 0.950 . S
H1823 C1853 0.950 . S
C1824 H1806 0.951 . S
C1824 C1825 1.366 . S
C1824 C1826 1.388 . S
C1825 C1824 1.366 . S
C1825 C1829 1.385 . S
C1826 H1807 0.951 . S
C1826 C1824 1.388 . S
C1826 C1827 1.366 . S
C1827 C1826 1.366 . S
C1827 C1828 1.414 . S
C1827 C1830 1.499 . S
C1828 H1808 0.950 . S
C1828 C1827 1.414 . S
C1828 C1829 1.374 . S
C1829 H1809 0.950 . S
C1829 C1825 1.385 . S
C1829 C1828 1.374 . S
C1830 C1827 1.499 . S
C1830 C1831 1.373 . S
C1830 C1832 1.389 . S
C1831 H1810 0.950 . S
C1831 C1830 1.373 . S
C1831 C1847 1.377 . S
C1832 C1830 1.389 . S
C1832 C1833 1.524 . S
C1832 C1846 1.377 . S
C1833 C1832 1.524 . S
C1833 C1834 1.397 . S
C1833 C1838 1.363 . S
C1834 H1811 0.950 . S
C1834 C1833 1.397 . S
C1834 C1835 1.334 . S
C1835 H1812 0.950 . S
C1835 C1834 1.334 . S
C1835 C1836 1.287 . S
C1836 C1835 1.287 . S
C1836 C1837 1.524 . S
C1836 H1855 0.913 . S
C1837 H1813 0.950 . S
C1837 C1836 1.524 . S
C1837 C1838 1.415 . S
C1838 H1814 0.950 . S
C1838 C1833 1.363 . S
C1838 C1837 1.415 . S
C1839 H1815 0.951 . S
C1839 C1840 1.366 . S
C1839 C1841 1.388 . S
C1840 C1839 1.366 . S
C1840 C1844 1.385 . S
C1841 H1816 0.951 . S
C1841 C1839 1.388 . S
C1841 C1842 1.366 . S
C1842 C1841 1.366 . S
C1842 C1843 1.414 . S
C1842 C1845 1.499 . S
C1843 H1817 0.950 . S
C1843 C1842 1.414 . S
C1843 C1844 1.374 . S
C1844 H1818 0.950 . S
C1844 C1840 1.385 . S
C1844 C1843 1.374 . S
C1845 C1842 1.499 . S
C1845 C1846 1.373 . S
C1845 C1847 1.389 . S
C1846 H1819 0.950 . S
C1846 C1832 1.377 . S
C1846 C1845 1.373 . S
C1847 C1831 1.377 . S
C1847 C1845 1.389 . S
C1847 C1848 1.524 . S
C1848 C1847 1.524 . S
C1848 C1849 1.397 . S
C1848 C1853 1.363 . S
C1849 H1820 0.950 . S
C1849 C1848 1.397 . S
C1849 C1850 1.334 . S
C1850 H1821 0.950 . S
C1850 C1849 1.334 . S
C1850 C1851 1.287 . S
C1851 C1850 1.287 . S
C1851 C1852 1.524 . S
C1851 H1854 0.999 . S
C1852 H1822 0.950 . S
C1852 C1851 1.524 . S
C1852 C1853 1.415 . S
C1853 H1823 0.950 . S
C1853 C1848 1.363 . S
C1853 C1852 1.415 . S
H1854 C1851 0.999 . S
H1855 C1836 0.913 . S
H1856 C1874 0.951 . S
H1857 C1876 0.951 . S
H1858 C1878 0.950 . S
H1859 C1879 0.950 . S
H1860 C1881 0.950 . S
H1861 C1884 0.950 . S
H1862 C1885 0.950 . S
H1863 C1887 0.950 . S
H1864 C1888 0.950 . S
H1865 C1889 0.951 . S
H1866 C1891 0.951 . S
H1867 C1893 0.950 . S
H1868 C1894 0.950 . S
H1869 C1896 0.950 . S
H1870 C1899 0.950 . S
H1871 C1900 0.950 . S
H1872 C1902 0.950 . S
H1873 C1903 0.950 . S
C1874 H1856 0.951 . S
C1874 C1875 1.366 . S
C1874 C1876 1.388 . S
C1875 C1874 1.366 . S
C1875 C1879 1.385 . S
C1876 H1857 0.951 . S
C1876 C1874 1.388 . S
C1876 C1877 1.366 . S
C1877 C1876 1.366 . S
C1877 C1878 1.414 . S
C1877 C1880 1.499 . S
C1878 H1858 0.950 . S
C1878 C1877 1.414 . S
C1878 C1879 1.374 . S
C1879 H1859 0.950 . S
C1879 C1875 1.385 . S
C1879 C1878 1.374 . S
C1880 C1877 1.499 . S
C1880 C1881 1.373 . S
C1880 C1882 1.389 . S
C1881 H1860 0.950 . S
C1881 C1880 1.373 . S
C1881 C1897 1.377 . S
C1882 C1880 1.389 . S
C1882 C1883 1.524 . S
C1882 C1896 1.377 . S
C1883 C1882 1.524 . S
C1883 C1884 1.397 . S
C1883 C1888 1.363 . S
C1884 H1861 0.950 . S
C1884 C1883 1.397 . S
C1884 C1885 1.334 . S
C1885 H1862 0.950 . S
C1885 C1884 1.334 . S
C1885 C1886 1.287 . S
C1886 C1885 1.287 . S
C1886 C1887 1.524 . S
C1886 H1905 0.913 . S
C1887 H1863 0.950 . S
C1887 C1886 1.524 . S
C1887 C1888 1.415 . S
C1888 H1864 0.950 . S
C1888 C1883 1.363 . S
C1888 C1887 1.415 . S
C1889 H1865 0.951 . S
C1889 C1890 1.366 . S
C1889 C1891 1.388 . S
C1890 C1889 1.366 . S
C1890 C1894 1.385 . S
C1891 H1866 0.951 . S
C1891 C1889 1.388 . S
C1891 C1892 1.366 . S
C1892 C1891 1.366 . S
C1892 C1893 1.414 . S
C1892 C1895 1.499 . S
C1893 H1867 0.950 . S
C1893 C1892 1.414 . S
C1893 C1894 1.374 . S
C1894 H1868 0.950 . S
C1894 C1890 1.385 . S
C1894 C1893 1.374 . S
C1895 C1892 1.499 . S
C1895 C1896 1.373 . S
C1895 C1897 1.389 . S
C1896 H1869 0.950 . S
C1896 C1882 1.377 . S
C1896 C1895 1.373 . S
C1897 C1881 1.377 . S
C1897 C1895 1.389 . S
C1897 C1898 1.524 . S
C1898 C1897 1.524 . S
C1898 C1899 1.397 . S
C1898 C1903 1.363 . S
C1899 H1870 0.950 . S
C1899 C1898 1.397 . S
C1899 C1900 1.334 . S
C1900 H1871 0.950 . S
C1900 C1899 1.334 . S
C1900 C1901 1.287 . S
C1901 C1900 1.287 . S
C1901 C1902 1.524 . S
C1901 H1904 0.999 . S
C1902 H1872 0.950 . S
C1902 C1901 1.524 . S
C1902 C1903 1.415 . S
C1903 H1873 0.950 . S
C1903 C1898 1.363 . S
C1903 C1902 1.415 . S
H1904 C1901 0.999 . S
H1905 C1886 0.913 . S
H1906 C1924 0.951 . S
H1907 C1926 0.951 . S
H1908 C1928 0.950 . S
H1909 C1929 0.950 . S
H1910 C1931 0.950 . S
H1911 C1934 0.950 . S
H1912 C1935 0.950 . S
H1913 C1937 0.950 . S
H1914 C1938 0.950 . S
H1915 C1939 0.951 . S
H1916 C1941 0.951 . S
H1917 C1943 0.950 . S
H1918 C1944 0.950 . S
H1919 C1946 0.950 . S
H1920 C1949 0.950 . S
H1921 C1950 0.950 . S
H1922 C1952 0.950 . S
H1923 C1953 0.950 . S
C1924 H1906 0.951 . S
C1924 C1925 1.366 . S
C1924 C1926 1.388 . S
C1925 C1924 1.366 . S
C1925 C1929 1.385 . S
C1926 H1907 0.951 . S
C1926 C1924 1.388 . S
C1926 C1927 1.366 . S
C1927 C1926 1.366 . S
C1927 C1928 1.414 . S
C1927 C1930 1.499 . S
C1928 H1908 0.950 . S
C1928 C1927 1.414 . S
C1928 C1929 1.374 . S
C1929 H1909 0.950 . S
C1929 C1925 1.385 . S
C1929 C1928 1.374 . S
C1930 C1927 1.499 . S
C1930 C1931 1.373 . S
C1930 C1932 1.389 . S
C1931 H1910 0.950 . S
C1931 C1930 1.373 . S
C1931 C1947 1.377 . S
C1932 C1930 1.389 . S
C1932 C1933 1.524 . S
C1932 C1946 1.377 . S
C1933 C1932 1.524 . S
C1933 C1934 1.397 . S
C1933 C1938 1.363 . S
C1934 H1911 0.950 . S
C1934 C1933 1.397 . S
C1934 C1935 1.334 . S
C1935 H1912 0.950 . S
C1935 C1934 1.334 . S
C1935 C1936 1.287 . S
C1936 C1935 1.287 . S
C1936 C1937 1.524 . S
C1936 H1955 0.913 . S
C1937 H1913 0.950 . S
C1937 C1936 1.524 . S
C1937 C1938 1.415 . S
C1938 H1914 0.950 . S
C1938 C1933 1.363 . S
C1938 C1937 1.415 . S
C1939 H1915 0.951 . S
C1939 C1940 1.366 . S
C1939 C1941 1.388 . S
C1940 C1939 1.366 . S
C1940 C1944 1.385 . S
C1941 H1916 0.951 . S
C1941 C1939 1.388 . S
C1941 C1942 1.366 . S
C1942 C1941 1.366 . S
C1942 C1943 1.414 . S
C1942 C1945 1.499 . S
C1943 H1917 0.950 . S
C1943 C1942 1.414 . S
C1943 C1944 1.374 . S
C1944 H1918 0.950 . S
C1944 C1940 1.385 . S
C1944 C1943 1.374 . S
C1945 C1942 1.499 . S
C1945 C1946 1.373 . S
C1945 C1947 1.389 . S
C1946 H1919 0.950 . S
C1946 C1932 1.377 . S
C1946 C1945 1.373 . S
C1947 C1931 1.377 . S
C1947 C1945 1.389 . S
C1947 C1948 1.524 . S
C1948 C1947 1.524 . S
C1948 C1949 1.397 . S
C1948 C1953 1.363 . S
C1949 H1920 0.950 . S
C1949 C1948 1.397 . S
C1949 C1950 1.334 . S
C1950 H1921 0.950 . S
C1950 C1949 1.334 . S
C1950 C1951 1.287 . S
C1951 C1950 1.287 . S
C1951 C1952 1.524 . S
C1951 H1954 0.999 . S
C1952 H1922 0.950 . S
C1952 C1951 1.524 . S
C1952 C1953 1.415 . S
C1953 H1923 0.950 . S
C1953 C1948 1.363 . S
C1953 C1952 1.415 . S
H1954 C1951 0.999 . S
H1955 C1936 0.913 . S
H1956 C1974 0.951 . S
H1957 C1976 0.951 . S
H1958 C1978 0.950 . S
H1959 C1979 0.950 . S
H1960 C1981 0.950 . S
H1961 C1984 0.950 . S
H1962 C1985 0.950 . S
H1963 C1987 0.950 . S
H1964 C1988 0.950 . S
H1965 C1989 0.951 . S
H1966 C1991 0.951 . S
H1967 C1993 0.950 . S
H1968 C1994 0.950 . S
H1969 C1996 0.950 . S
H1970 C1999 0.950 . S
H1971 C2000 0.950 . S
H1972 C2002 0.950 . S
H1973 C2003 0.950 . S
C1974 H1956 0.951 . S
C1974 C1975 1.366 . S
C1974 C1976 1.388 . S
C1975 C1974 1.366 . S
C1975 C1979 1.385 . S
C1976 H1957 0.951 . S
C1976 C1974 1.388 . S
C1976 C1977 1.366 . S
C1977 C1976 1.366 . S
C1977 C1978 1.414 . S
C1977 C1980 1.499 . S
C1978 H1958 0.950 . S
C1978 C1977 1.414 . S
C1978 C1979 1.374 . S
C1979 H1959 0.950 . S
C1979 C1975 1.385 . S
C1979 C1978 1.374 . S
C1980 C1977 1.499 . S
C1980 C1981 1.373 1_455 S
C1980 C1982 1.389 . S
C1981 H1960 0.950 . S
C1981 C1980 1.373 1_655 S
C1981 C1997 1.377 . S
C1982 C1980 1.389 . S
C1982 C1983 1.524 . S
C1982 C1996 1.377 . S
C1983 C1982 1.524 . S
C1983 C1984 1.397 . S
C1983 C1988 1.363 . S
C1984 H1961 0.950 . S
C1984 C1983 1.397 . S
C1984 C1985 1.334 . S
C1985 H1962 0.950 . S
C1985 C1984 1.334 . S
C1985 C1986 1.287 . S
C1986 C1985 1.287 . S
C1986 C1987 1.524 . S
C1986 H2005 0.913 . S
C1987 H1963 0.950 . S
C1987 C1986 1.524 . S
C1987 C1988 1.415 . S
C1988 H1964 0.950 . S
C1988 C1983 1.363 . S
C1988 C1987 1.415 . S
C1989 H1965 0.951 . S
C1989 C1990 1.366 . S
C1989 C1991 1.388 . S
C1990 C1989 1.366 . S
C1990 C1994 1.385 . S
C1991 H1966 0.951 . S
C1991 C1989 1.388 . S
C1991 C1992 1.366 . S
C1992 C1991 1.366 . S
C1992 C1993 1.414 . S
C1992 C1995 1.499 . S
C1993 H1967 0.950 . S
C1993 C1992 1.414 . S
C1993 C1994 1.374 . S
C1994 H1968 0.950 . S
C1994 C1990 1.385 . S
C1994 C1993 1.374 . S
C1995 C1992 1.499 . S
C1995 C1996 1.373 1_655 S
C1995 C1997 1.389 . S
C1996 H1969 0.950 . S
C1996 C1982 1.377 . S
C1996 C1995 1.373 1_455 S
C1997 C1981 1.377 . S
C1997 C1995 1.389 . S
C1997 C1998 1.524 . S
C1998 C1997 1.524 . S
C1998 C1999 1.397 . S
C1998 C2003 1.363 . S
C1999 H1970 0.950 . S
C1999 C1998 1.397 . S
C1999 C2000 1.334 . S
C2000 H1971 0.950 . S
C2000 C1999 1.334 . S
C2000 C2001 1.287 . S
C2001 C2000 1.287 . S
C2001 C2002 1.524 . S
C2001 H2004 0.999 . S
C2002 H1972 0.950 . S
C2002 C2001 1.524 . S
C2002 C2003 1.415 . S
C2003 H1973 0.950 . S
C2003 C1998 1.363 . S
C2003 C2002 1.415 . S
H2004 C2001 0.999 . S
H2005 C1986 0.913 . S
H2006 C2024 0.951 . S
H2007 C2026 0.951 1_554 S
H2008 C2028 0.950 . S
H2009 C2029 0.950 . S
H2010 C2031 0.950 1_556 S
H2011 C2034 0.965 . S
H2012 C2035 0.950 . S
H2013 C2037 0.950 . S
H2014 C2038 0.950 . S
H2015 C2039 0.951 . S
H2016 C2041 0.951 . S
H2017 C2043 0.950 . S
H2018 C2044 0.950 . S
H2019 C2046 0.950 . S
H2020 C2049 0.950 . S
H2021 C2050 0.950 . S
H2022 C2052 0.950 . S
H2023 C2053 0.950 . S
C2024 H2006 0.951 . S
C2024 C2025 1.366 . S
C2024 C2026 1.388 . S
C2025 C2024 1.366 . S
C2025 C2029 1.385 . S
C2026 H2007 0.951 1_556 S
C2026 C2024 1.388 . S
C2026 C2027 1.366 . S
C2027 C2026 1.366 . S
C2027 C2028 1.414 . S
C2027 C2030 1.499 1_556 S
C2028 H2008 0.950 . S
C2028 C2027 1.414 . S
C2028 C2029 1.374 . S
C2029 H2009 0.950 . S
C2029 C2025 1.385 . S
C2029 C2028 1.374 . S
C2030 C2027 1.499 1_554 S
C2030 C2031 1.373 1_565 S
C2030 C2032 1.389 . S
C2031 H2010 0.950 1_554 S
C2031 C2030 1.373 1_545 S
C2031 C2047 1.377 . S
C2032 C2030 1.389 . S
C2032 C2033 1.524 . S
C2032 C2046 1.377 . S
C2033 C2032 1.524 . S
C2033 C2034 1.397 . S
C2033 C2038 1.363 . S
C2034 H2011 0.965 . S
C2034 C2033 1.397 . S
C2034 C2035 1.334 . S
C2035 H2012 0.950 . S
C2035 C2034 1.334 . S
C2035 C2036 1.287 . S
C2036 C2035 1.287 . S
C2036 C2037 1.524 . S
C2036 H2055 0.913 . S
C2037 H2013 0.950 . S
C2037 C2036 1.524 . S
C2037 C2038 1.415 . S
C2038 H2014 0.950 . S
C2038 C2033 1.363 . S
C2038 C2037 1.415 . S
C2039 H2015 0.951 . S
C2039 C2040 1.366 . S
C2039 C2041 1.388 . S
C2040 C2039 1.366 . S
C2040 C2044 1.385 . S
C2041 H2016 0.951 . S
C2041 C2039 1.388 . S
C2041 C2042 1.366 . S
C2042 C2041 1.366 . S
C2042 C2043 1.414 . S
C2042 C2045 1.499 . S
C2043 H2017 0.950 . S
C2043 C2042 1.414 . S
C2043 C2044 1.374 . S
C2044 H2018 0.950 . S
C2044 C2040 1.385 . S
C2044 C2043 1.374 . S
C2045 C2042 1.499 . S
C2045 C2046 1.373 1_545 S
C2045 C2047 1.389 . S
C2046 H2019 0.950 . S
C2046 C2032 1.377 . S
C2046 C2045 1.373 1_565 S
C2047 C2031 1.377 . S
C2047 C2045 1.389 . S
C2047 C2048 1.524 . S
C2048 C2047 1.524 . S
C2048 C2049 1.397 . S
C2048 C2053 1.363 1_554 S
C2049 H2020 0.950 . S
C2049 C2048 1.397 . S
C2049 C2050 1.334 . S
C2050 H2021 0.950 . S
C2050 C2049 1.334 . S
C2050 C2051 1.287 . S
C2051 C2050 1.287 . S
C2051 C2052 1.524 1_554 S
C2051 H2054 0.999 . S
C2052 H2022 0.950 . S
C2052 C2051 1.524 1_556 S
C2052 C2053 1.415 . S
C2053 H2023 0.950 . S
C2053 C2048 1.363 1_556 S
C2053 C2052 1.415 . S
H2054 C2051 0.999 . S
H2055 C2036 0.913 . S
H2056 C2074 0.951 . S
H2057 C2076 0.951 . S
H2058 C2078 0.950 . S
H2059 C2079 0.950 . S
H2060 C2081 0.950 . S
H2061 C2084 0.950 . S
H2062 C2085 0.950 . S
H2063 C2087 0.950 . S
H2064 C2088 0.950 . S
H2065 C2089 0.951 . S
H2066 C2091 0.951 . S
H2067 C2093 0.950 . S
H2068 C2094 0.950 . S
H2069 C2096 0.950 . S
H2070 C2099 0.950 . S
H2071 C2100 0.950 . S
H2072 C2102 0.950 . S
H2073 C2103 0.950 . S
C2074 H2056 0.951 . S
C2074 C2075 1.366 . S
C2074 C2076 1.388 . S
C2075 C2074 1.366 . S
C2075 C2079 1.385 . S
C2076 H2057 0.951 . S
C2076 C2074 1.388 . S
C2076 C2077 1.366 . S
C2077 C2076 1.366 . S
C2077 C2078 1.414 . S
C2077 C2080 1.499 . S
C2078 H2058 0.950 . S
C2078 C2077 1.414 . S
C2078 C2079 1.374 . S
C2079 H2059 0.950 . S
C2079 C2075 1.385 . S
C2079 C2078 1.374 . S
C2080 C2077 1.499 . S
C2080 C2081 1.373 . S
C2080 C2082 1.389 . S
C2081 H2060 0.950 . S
C2081 C2080 1.373 . S
C2081 C2097 1.377 . S
C2082 C2080 1.389 . S
C2082 C2083 1.524 . S
C2082 C2096 1.377 . S
C2083 C2082 1.524 . S
C2083 C2084 1.397 . S
C2083 C2088 1.363 . S
C2084 H2061 0.950 . S
C2084 C2083 1.397 . S
C2084 C2085 1.334 . S
C2085 H2062 0.950 . S
C2085 C2084 1.334 . S
C2085 C2086 1.287 . S
C2086 C2085 1.287 . S
C2086 C2087 1.524 . S
C2086 H2105 0.913 . S
C2087 H2063 0.950 . S
C2087 C2086 1.524 . S
C2087 C2088 1.415 . S
C2088 H2064 0.950 . S
C2088 C2083 1.363 . S
C2088 C2087 1.415 . S
C2089 H2065 0.951 . S
C2089 C2090 1.366 . S
C2089 C2091 1.388 . S
C2090 C2089 1.366 . S
C2090 C2094 1.385 . S
C2091 H2066 0.951 . S
C2091 C2089 1.388 . S
C2091 C2092 1.366 . S
C2092 C2091 1.366 . S
C2092 C2093 1.414 . S
C2092 C2095 1.499 . S
C2093 H2067 0.950 . S
C2093 C2092 1.414 . S
C2093 C2094 1.374 . S
C2094 H2068 0.950 . S
C2094 C2090 1.385 . S
C2094 C2093 1.374 . S
C2095 C2092 1.499 . S
C2095 C2096 1.373 . S
C2095 C2097 1.389 . S
C2096 H2069 0.950 . S
C2096 C2082 1.377 . S
C2096 C2095 1.373 . S
C2097 C2081 1.377 . S
C2097 C2095 1.389 . S
C2097 C2098 1.524 . S
C2098 C2097 1.524 . S
C2098 C2099 1.397 . S
C2098 C2103 1.363 . S
C2099 H2070 0.950 . S
C2099 C2098 1.397 . S
C2099 C2100 1.334 . S
C2100 H2071 0.950 . S
C2100 C2099 1.334 . S
C2100 C2101 1.287 . S
C2101 C2100 1.287 . S
C2101 C2102 1.524 . S
C2101 H2104 0.999 . S
C2102 H2072 0.950 . S
C2102 C2101 1.524 . S
C2102 C2103 1.415 . S
C2103 H2073 0.950 . S
C2103 C2098 1.363 . S
C2103 C2102 1.415 . S
H2104 C2101 0.999 . S
H2105 C2086 0.913 . S
H2106 C2124 0.951 . S
H2107 C2126 0.951 . S
H2108 C2128 0.950 . S
H2109 C2129 0.950 . S
H2110 C2131 0.950 . S
H2111 C2134 0.950 . S
H2112 C2135 0.950 . S
H2113 C2137 0.950 . S
H2114 C2138 0.950 . S
H2115 C2139 0.951 . S
H2116 C2141 0.951 . S
H2117 C2143 0.950 . S
H2118 C2144 0.950 . S
H2119 C2146 0.950 . S
H2120 C2149 0.950 . S
H2121 C2150 0.950 . S
H2122 C2152 0.950 . S
H2123 C2153 0.950 . S
C2124 H2106 0.951 . S
C2124 C2125 1.366 . S
C2124 C2126 1.388 . S
C2125 C2124 1.366 . S
C2125 C2129 1.385 . S
C2126 H2107 0.951 . S
C2126 C2124 1.388 . S
C2126 C2127 1.366 . S
C2127 C2126 1.366 . S
C2127 C2128 1.414 . S
C2127 C2130 1.499 . S
C2128 H2108 0.950 . S
C2128 C2127 1.414 . S
C2128 C2129 1.374 . S
C2129 H2109 0.950 . S
C2129 C2125 1.385 . S
C2129 C2128 1.374 . S
C2130 C2127 1.499 . S
C2130 C2131 1.373 . S
C2130 C2132 1.389 . S
C2131 H2110 0.950 . S
C2131 C2130 1.373 . S
C2131 C2147 1.377 1_455 S
C2132 C2130 1.389 . S
C2132 C2133 1.524 . S
C2132 C2146 1.377 1_455 S
C2133 C2132 1.524 . S
C2133 C2134 1.397 . S
C2133 C2138 1.363 . S
C2134 H2111 0.950 . S
C2134 C2133 1.397 . S
C2134 C2135 1.334 . S
C2135 H2112 0.950 . S
C2135 C2134 1.334 . S
C2135 C2136 1.287 . S
C2136 C2135 1.287 . S
C2136 C2137 1.524 . S
C2136 H2155 0.913 . S
C2137 H2113 0.950 . S
C2137 C2136 1.524 . S
C2137 C2138 1.415 . S
C2138 H2114 0.950 . S
C2138 C2133 1.363 . S
C2138 C2137 1.415 . S
C2139 H2115 0.951 . S
C2139 C2140 1.366 . S
C2139 C2141 1.388 . S
C2140 C2139 1.366 . S
C2140 C2144 1.385 . S
C2141 H2116 0.951 . S
C2141 C2139 1.388 . S
C2141 C2142 1.366 . S
C2142 C2141 1.366 . S
C2142 C2143 1.414 . S
C2142 C2145 1.499 . S
C2143 H2117 0.950 . S
C2143 C2142 1.414 . S
C2143 C2144 1.374 . S
C2144 H2118 0.950 . S
C2144 C2140 1.385 . S
C2144 C2143 1.374 . S
C2145 C2142 1.499 . S
C2145 C2146 1.373 . S
C2145 C2147 1.389 . S
C2146 H2119 0.950 . S
C2146 C2132 1.377 1_655 S
C2146 C2145 1.373 . S
C2147 C2131 1.377 1_655 S
C2147 C2145 1.389 . S
C2147 C2148 1.524 . S
C2148 C2147 1.524 . S
C2148 C2149 1.397 . S
C2148 C2153 1.363 . S
C2149 H2120 0.950 . S
C2149 C2148 1.397 . S
C2149 C2150 1.334 . S
C2150 H2121 0.950 . S
C2150 C2149 1.334 . S
C2150 C2151 1.287 . S
C2151 C2150 1.287 . S
C2151 C2152 1.524 . S
C2151 H2154 0.999 . S
C2152 H2122 0.950 . S
C2152 C2151 1.524 . S
C2152 C2153 1.415 . S
C2153 H2123 0.950 . S
C2153 C2148 1.363 . S
C2153 C2152 1.415 . S
H2154 C2151 0.999 . S
H2155 C2136 0.913 . S
H2156 C2174 0.951 . S
H2157 C2176 0.951 . S
H2158 C2178 0.950 . S
H2159 C2179 0.950 . S
H2160 C2181 0.950 . S
H2161 C2184 0.950 . S
H2162 C2185 0.950 . S
H2163 C2187 0.950 . S
H2164 C2188 0.950 . S
H2165 C2189 0.951 . S
H2166 C2191 0.951 . S
H2167 C2193 0.950 . S
H2168 C2194 0.950 . S
H2169 C2196 0.950 . S
H2170 C2199 0.950 . S
H2171 C2200 0.950 . S
H2172 C2202 0.950 . S
H2173 C2203 0.950 . S
C2174 H2156 0.951 . S
C2174 C2175 1.366 . S
C2174 C2176 1.388 . S
C2175 C2174 1.366 . S
C2175 C2179 1.385 . S
C2176 H2157 0.951 . S
C2176 C2174 1.388 . S
C2176 C2177 1.366 . S
C2177 C2176 1.366 . S
C2177 C2178 1.414 . S
C2177 C2180 1.499 . S
C2178 H2158 0.950 . S
C2178 C2177 1.414 . S
C2178 C2179 1.374 . S
C2179 H2159 0.950 . S
C2179 C2175 1.385 . S
C2179 C2178 1.374 . S
C2180 C2177 1.499 . S
C2180 C2181 1.373 . S
C2180 C2182 1.389 . S
C2181 H2160 0.950 . S
C2181 C2180 1.373 . S
C2181 C2197 1.377 1_545 S
C2182 C2180 1.389 . S
C2182 C2183 1.524 . S
C2182 C2196 1.377 1_545 S
C2183 C2182 1.524 . S
C2183 C2184 1.397 . S
C2183 C2188 1.363 . S
C2184 H2161 0.950 . S
C2184 C2183 1.397 . S
C2184 C2185 1.334 . S
C2185 H2162 0.950 . S
C2185 C2184 1.334 . S
C2185 C2186 1.287 . S
C2186 C2185 1.287 . S
C2186 C2187 1.524 . S
C2186 H2205 0.913 . S
C2187 H2163 0.950 . S
C2187 C2186 1.524 . S
C2187 C2188 1.415 . S
C2188 H2164 0.950 . S
C2188 C2183 1.363 . S
C2188 C2187 1.415 . S
C2189 H2165 0.951 . S
C2189 C2190 1.366 . S
C2189 C2191 1.388 . S
C2190 C2189 1.366 . S
C2190 C2194 1.385 . S
C2191 H2166 0.951 . S
C2191 C2189 1.388 . S
C2191 C2192 1.366 . S
C2192 C2191 1.366 . S
C2192 C2193 1.414 . S
C2192 C2195 1.499 . S
C2193 H2167 0.950 . S
C2193 C2192 1.414 . S
C2193 C2194 1.374 . S
C2194 H2168 0.950 . S
C2194 C2190 1.385 . S
C2194 C2193 1.374 . S
C2195 C2192 1.499 . S
C2195 C2196 1.373 . S
C2195 C2197 1.389 . S
C2196 H2169 0.950 . S
C2196 C2182 1.377 1_565 S
C2196 C2195 1.373 . S
C2197 C2181 1.377 1_565 S
C2197 C2195 1.389 . S
C2197 C2198 1.524 . S
C2198 C2197 1.524 . S
C2198 C2199 1.397 . S
C2198 C2203 1.363 . S
C2199 H2170 0.950 . S
C2199 C2198 1.397 . S
C2199 C2200 1.334 . S
C2200 H2171 0.950 . S
C2200 C2199 1.334 . S
C2200 C2201 1.287 . S
C2201 C2200 1.287 . S
C2201 C2202 1.524 . S
C2201 H2204 0.999 . S
C2202 H2172 0.950 . S
C2202 C2201 1.524 . S
C2202 C2203 1.415 . S
C2203 H2173 0.950 . S
C2203 C2198 1.363 . S
C2203 C2202 1.415 . S
H2204 C2201 0.999 . S
H2205 C2186 0.913 . S
H2206 C2224 0.951 . S
H2207 C2226 0.951 . S
H2208 C2228 0.950 . S
H2209 C2229 0.950 . S
H2210 C2231 0.950 . S
H2211 C2234 0.950 . S
H2212 C2235 0.950 . S
H2213 C2237 0.950 . S
H2214 C2238 0.950 . S
H2215 C2239 0.951 . S
H2216 C2241 0.951 . S
H2217 C2243 0.950 . S
H2218 C2244 0.950 . S
H2219 C2246 0.950 . S
H2220 C2249 0.950 . S
H2221 C2250 0.950 . S
H2222 C2252 0.950 . S
H2223 C2253 0.950 . S
C2224 H2206 0.951 . S
C2224 C2225 1.366 . S
C2224 C2226 1.388 . S
C2225 C2224 1.366 . S
C2225 C2229 1.385 . S
C2226 H2207 0.951 . S
C2226 C2224 1.388 . S
C2226 C2227 1.366 . S
C2227 C2226 1.366 . S
C2227 C2228 1.414 . S
C2227 C2230 1.499 . S
C2228 H2208 0.950 . S
C2228 C2227 1.414 . S
C2228 C2229 1.374 . S
C2229 H2209 0.950 . S
C2229 C2225 1.385 . S
C2229 C2228 1.374 . S
C2230 C2227 1.499 . S
C2230 C2231 1.373 . S
C2230 C2232 1.389 . S
C2231 H2210 0.950 . S
C2231 C2230 1.373 . S
C2231 C2247 1.377 . S
C2232 C2230 1.389 . S
C2232 C2233 1.524 . S
C2232 C2246 1.377 . S
C2233 C2232 1.524 . S
C2233 C2234 1.397 . S
C2233 C2238 1.363 . S
C2234 H2211 0.950 . S
C2234 C2233 1.397 . S
C2234 C2235 1.334 . S
C2235 H2212 0.950 . S
C2235 C2234 1.334 . S
C2235 C2236 1.287 . S
C2236 C2235 1.287 . S
C2236 C2237 1.524 . S
C2236 H2255 0.913 . S
C2237 H2213 0.950 . S
C2237 C2236 1.524 . S
C2237 C2238 1.415 . S
C2238 H2214 0.950 . S
C2238 C2233 1.363 . S
C2238 C2237 1.415 . S
C2239 H2215 0.951 . S
C2239 C2240 1.366 . S
C2239 C2241 1.388 . S
C2240 C2239 1.366 . S
C2240 C2244 1.385 . S
C2241 H2216 0.951 . S
C2241 C2239 1.388 . S
C2241 C2242 1.366 . S
C2242 C2241 1.366 . S
C2242 C2243 1.414 . S
C2242 C2245 1.499 . S
C2243 H2217 0.950 . S
C2243 C2242 1.414 . S
C2243 C2244 1.374 . S
C2244 H2218 0.950 . S
C2244 C2240 1.385 . S
C2244 C2243 1.374 . S
C2245 C2242 1.499 . S
C2245 C2246 1.373 . S
C2245 C2247 1.389 . S
C2246 H2219 0.950 . S
C2246 C2232 1.377 . S
C2246 C2245 1.373 . S
C2247 C2231 1.377 . S
C2247 C2245 1.389 . S
C2247 C2248 1.524 . S
C2248 C2247 1.524 . S
C2248 C2249 1.397 . S
C2248 C2253 1.363 . S
C2249 H2220 0.950 . S
C2249 C2248 1.397 . S
C2249 C2250 1.334 . S
C2250 H2221 0.950 . S
C2250 C2249 1.334 . S
C2250 C2251 1.287 . S
C2251 C2250 1.287 . S
C2251 C2252 1.524 . S
C2251 H2254 0.999 . S
C2252 H2222 0.950 . S
C2252 C2251 1.524 . S
C2252 C2253 1.415 . S
C2253 H2223 0.950 . S
C2253 C2248 1.363 . S
C2253 C2252 1.415 . S
H2254 C2251 0.999 . S
H2255 C2236 0.913 . S
C1075 C29 1.130 . S
C1090 C937 1.130 . S
C1125 C1017 1.131 . S
C1140 C117 1.130 . S
C1175 C196 1.130 . S
C1190 C577 1.131 . S
C1225 C293 1.130 . S
C1240 C673 1.131 . S
C1275 C372 1.130 . S
C1290 C761 1.131 . S
C1325 C849 1.130 . S
C1340 C469 1.131 . S
C1375 C20 1.654 . S
C1390 C753 1.654 . S
C1425 C108 1.654 . S
C1440 C841 1.654 . S
C1475 C929 1.654 . S
C1490 C205 1.654 . S
C1525 C284 1.654 . S
C1540 C1025 1.654 . S
C1575 C381 1.654 . S
C1590 C585 1.654 . S
C1625 C460 1.654 . S
C1640 C665 1.655 . S
C1675 C900 0.375 . S
C1690 C49 0.375 . S
C1725 C137 0.376 . S
C1740 C997 0.376 . S
C1775 C233 0.376 . S
C1790 C557 0.398 . S
C1825 C313 0.375 . S
C1840 C636 0.375 . S
C1875 C724 0.376 . S
C1890 C409 0.376 . S
C1925 C489 0.376 . S
C1940 C812 0.375 . S
C1975 C57 1.605 . S
C1990 C988 1.605 . S
C2025 C548 1.605 . S
C2040 C145 1.605 . S
C2075 C645 1.605 . S
C2090 C225 1.605 . S
C2125 C733 1.605 . S
C2140 C321 1.605 . S
C2175 C821 1.605 . S
C2190 C401 1.604 . S
C2225 C909 1.604 . S
C2240 C497 1.604 . S
