# Generated by pormake.
# Topology fcu, (12)-cn, num edge types: 1
# Building blocks:
#     Node 0, Type 0, BuildingBlock: UKIBUN_clean_sbu_0, # of connection points: 12
#     Node 1, Type 0, BuildingBlock: UKIBUN_clean_sbu_0, # of connection points: 12
#     Node 2, Type 0, BuildingBlock: UKIBUN_clean_sbu_0, # of connection points: 12
#     Node 3, Type 0, BuildingBlock: UKIBUN_clean_sbu_0, # of connection points: 12
#     Edge 4, Type (0, 0), BuildingBlock: XIVTED_clean_linker_0, # of connection points: 2
#     Edge 5, Type (0, 0), BuildingBlock: XIVTED_clean_linker_0, # of connection points: 2
#     Edge 6, Type (0, 0), BuildingBlock: XIVTED_clean_linker_0, # of connection points: 2
#     Edge 7, Type (0, 0), BuildingBlock: XIVTED_clean_linker_0, # of connection points: 2
#     Edge 8, Type (0, 0), BuildingBlock: XIVTED_clean_linker_0, # of connection points: 2
#     Edge 9, Type (0, 0), BuildingBlock: XIVTED_clean_linker_0, # of connection points: 2
#     Edge 10, Type (0, 0), BuildingBlock: XIVTED_clean_linker_0, # of connection points: 2
#     Edge 11, Type (0, 0), BuildingBlock: XIVTED_clean_linker_0, # of connection points: 2
#     Edge 12, Type (0, 0), BuildingBlock: XIVTED_clean_linker_0, # of connection points: 2
#     Edge 13, Type (0, 0), BuildingBlock: XIVTED_clean_linker_0, # of connection points: 2
#     Edge 14, Type (0, 0), BuildingBlock: XIVTED_clean_linker_0, # of connection points: 2
#     Edge 15, Type (0, 0), BuildingBlock: XIVTED_clean_linker_0, # of connection points: 2
#     Edge 16, Type (0, 0), BuildingBlock: XIVTED_clean_linker_0, # of connection points: 2
#     Edge 17, Type (0, 0), BuildingBlock: XIVTED_clean_linker_0, # of connection points: 2
#     Edge 18, Type (0, 0), BuildingBlock: XIVTED_clean_linker_0, # of connection points: 2
#     Edge 19, Type (0, 0), BuildingBlock: XIVTED_clean_linker_0, # of connection points: 2
#     Edge 20, Type (0, 0), BuildingBlock: XIVTED_clean_linker_0, # of connection points: 2
#     Edge 21, Type (0, 0), BuildingBlock: XIVTED_clean_linker_0, # of connection points: 2
#     Edge 22, Type (0, 0), BuildingBlock: XIVTED_clean_linker_0, # of connection points: 2
#     Edge 23, Type (0, 0), BuildingBlock: XIVTED_clean_linker_0, # of connection points: 2
#     Edge 24, Type (0, 0), BuildingBlock: XIVTED_clean_linker_0, # of connection points: 2
#     Edge 25, Type (0, 0), BuildingBlock: XIVTED_clean_linker_0, # of connection points: 2
#     Edge 26, Type (0, 0), BuildingBlock: XIVTED_clean_linker_0, # of connection points: 2
#     Edge 27, Type (0, 0), BuildingBlock: XIVTED_clean_linker_0, # of connection points: 2
# Relax obj value: 0.006
# Max RMSD: 0.049
# Mean RMSD: 0.049
data_MOF--net-fcu--node1-UKIBUN_clean_sbu_0--edge1-XIVTED_clean_linker_0
_symmetry_space_group_name_H-M    P1
_symmetry_Int_Tables_number       1
_symmetry_cell_setting            triclinic
loop_
_symmetry_equiv_pos_as_xyz
'x, y, z'
_cell_length_a     26.766917
_cell_length_b     26.784299
_cell_length_c     26.769083
_cell_angle_alpha  89.997743
_cell_angle_beta   89.998407
_cell_angle_gamma 90.002066
loop_
_atom_site_label
_atom_site_type_symbol
_atom_site_fract_x
_atom_site_fract_y
_atom_site_fract_z
_atom_type_partial_charge
C0 C -0.00663 0.10974 0.11033 0.0
C1 C 0.87517 0.10935 -0.00652 0.0
O2 O 0.03535 0.0351 0.03487 0.0
O3 O 0.95111 0.95015 0.03554 0.0
O4 O 0.03558 0.95046 0.03489 0.0
O5 O 0.95084 0.0349 0.03551 0.0
Hf6 Hf -0.00647 -0.00733 0.08277 0.0
O7 O 0.03472 0.03501 0.95048 0.0
Hf8 Hf 0.99268 0.08277 -0.00706 0.0
O9 O 0.03498 0.95042 0.95051 0.0
Hf10 Hf 0.08288 -0.00711 0.99238 0.0
O11 O 0.95025 0.03478 0.95113 0.0
Hf12 Hf -0.0068 0.90247 -0.00697 0.0
Hf13 Hf 0.90303 0.99236 -0.00627 0.0
O14 O 0.95047 0.95014 0.95115 0.0
Hf15 Hf 0.9922 0.99257 0.90318 0.0
C16 C 0.87588 0.87517 -0.00584 0.0
C17 C 0.11003 0.11006 0.99207 0.0
C18 C 0.11073 0.87588 0.99228 0.0
C19 C 0.11072 -0.00709 0.10958 0.0
O20 O 0.06479 -0.00722 0.12415 0.0
O21 O 0.92278 0.99235 0.12524 0.0
C22 C 0.87668 0.99231 0.11116 0.0
O23 O 0.92058 0.99237 0.86196 0.0
O24 O 0.99286 0.86081 0.92159 0.0
O25 O -0.00602 0.86089 0.0645 0.0
O26 O 0.06304 -0.0072 0.86076 0.0
O27 O 0.99206 0.12434 0.92145 0.0
O28 O 0.99295 0.12444 0.06437 0.0
O29 O 0.86095 0.06331 -0.00619 0.0
O30 O 0.86143 0.92114 -0.00567 0.0
C31 C 0.10916 -0.00693 0.87485 0.0
O32 O 0.12495 0.92193 0.99206 0.0
O33 O 0.12448 0.06409 0.99196 0.0
C34 C 0.87469 0.99214 0.87685 0.0
O35 O 0.99161 0.06358 0.86123 0.0
O36 O -0.00581 0.92165 0.12471 0.0
O37 O -0.00633 0.06373 0.12464 0.0
O38 O 0.99204 0.92151 0.86131 0.0
O39 O 0.86058 0.99203 0.92294 0.0
O40 O 0.12407 -0.00686 0.92073 0.0
C41 C 0.99237 0.8755 0.87563 0.0
O42 O 0.12515 -0.00697 0.06353 0.0
O43 O 0.06402 0.12463 0.99246 0.0
O44 O 0.86177 0.99238 0.06529 0.0
O45 O 0.0648 0.86108 0.99265 0.0
O46 O 0.92188 0.8606 -0.00638 0.0
O47 O 0.9211 0.12416 -0.00686 0.0
C48 C 0.99165 0.10961 0.8755 0.0
C49 C -0.00568 0.87563 0.11044 0.0
C50 C -0.00701 0.60965 0.61042 0.0
C51 C 0.87629 0.61032 0.4928 0.0
O52 O 0.03535 0.53472 0.53534 0.0
O53 O 0.95059 0.45051 0.53509 0.0
O54 O 0.03509 0.45017 0.53538 0.0
O55 O 0.95088 0.535 0.5351 0.0
Hf56 Hf 0.99284 0.4926 0.58294 0.0
O57 O 0.03554 0.53474 0.45083 0.0
Hf58 Hf -0.00658 0.58264 0.493 0.0
O59 O 0.03525 0.45024 0.45075 0.0
Hf60 Hf 0.08295 0.49226 0.49318 0.0
O61 O 0.95104 0.53508 0.45063 0.0
Hf62 Hf 0.99281 0.40268 0.49293 0.0
Hf63 Hf 0.9031 0.4929 0.49275 0.0
O64 O 0.95077 0.45053 0.45059 0.0
Hf65 Hf -0.00676 0.49268 0.40299 0.0
C66 C 0.87568 0.37558 0.49259 0.0
C67 C 0.11085 0.60928 0.49344 0.0
C68 C 0.10984 0.37496 0.49305 0.0
C69 C 0.11013 0.49231 0.61033 0.0
O70 O 0.06413 0.49253 0.62489 0.0
O71 O 0.92133 0.49285 0.6245 0.0
C72 C 0.87537 0.49292 0.60976 0.0
O73 O 0.92193 0.49282 0.36105 0.0
O74 O -0.00703 0.361 0.42149 0.0
O75 O 0.99229 0.36093 0.56433 0.0
O76 O 0.06473 0.49244 0.36142 0.0
O77 O -0.00605 0.62438 0.42161 0.0
O78 O -0.0068 0.62431 0.56444 0.0
O79 O 0.86157 0.56439 0.49273 0.0
O80 O 0.86114 0.42158 0.49267 0.0
C81 C 0.11068 0.49235 0.37616 0.0
O82 O 0.12454 0.42088 0.49308 0.0
O83 O 0.12509 0.56324 0.49344 0.0
C84 C 0.87592 0.49293 0.3756 0.0
O85 O -0.00622 0.56378 0.36122 0.0
O86 O 0.99234 0.42151 0.62472 0.0
O87 O 0.99287 0.56366 0.62478 0.0
O88 O -0.00686 0.42163 0.36115 0.0
O89 O 0.86145 0.49302 0.42157 0.0
O90 O 0.12496 0.4923 0.4222 0.0
C91 C -0.00693 0.37564 0.37551 0.0
O92 O 0.1246 0.49209 0.56435 0.0
O93 O 0.06493 0.62405 0.49329 0.0
O94 O 0.86109 0.49293 0.56373 0.0
O95 O 0.0638 0.36066 0.49307 0.0
O96 O 0.92165 0.36112 0.4926 0.0
O97 O 0.92234 0.62461 0.49286 0.0
C98 C -0.00593 0.60976 0.37562 0.0
C99 C 0.99213 0.37553 0.61032 0.0
C100 C 0.49284 0.11041 0.60971 0.0
C101 C 0.37612 0.11038 0.4924 0.0
O102 O 0.53544 0.03503 0.53511 0.0
O103 O 0.45056 0.95086 0.53519 0.0
O104 O 0.5351 0.95059 0.53522 0.0
O105 O 0.45073 0.0352 0.53504 0.0
Hf106 Hf 0.49298 -0.00691 0.58285 0.0
O107 O 0.5355 0.03489 0.45061 0.0
Hf108 Hf 0.49319 0.08258 0.49275 0.0
O109 O 0.53517 0.9504 0.45083 0.0
Hf110 Hf 0.58309 0.99258 0.49293 0.0
O111 O 0.45079 0.0351 0.4505 0.0
Hf112 Hf 0.49266 0.90287 0.4931 0.0
Hf113 Hf 0.40289 -0.00692 0.49277 0.0
O114 O 0.45062 0.95065 0.45069 0.0
Hf115 Hf 0.49313 -0.00726 0.40302 0.0
C116 C 0.37524 0.87601 0.49311 0.0
C117 C 0.61029 0.10993 0.4929 0.0
C118 C 0.60981 0.87514 0.49321 0.0
C119 C 0.61028 -0.00727 0.61015 0.0
O120 O 0.56428 -0.00707 0.62469 0.0
O121 O 0.42171 -0.00656 0.62454 0.0
C122 C 0.37569 -0.00651 0.6101 0.0
O123 O 0.4222 -0.00713 0.36101 0.0
O124 O 0.49272 0.86102 0.42175 0.0
O125 O 0.4926 0.86135 0.56465 0.0
O126 O 0.56431 0.9925 0.36128 0.0
O127 O 0.49362 0.12434 0.42166 0.0
O128 O 0.49299 0.12465 0.56367 0.0
O129 O 0.36135 0.06448 0.49253 0.0
O130 O 0.36091 0.92203 0.49289 0.0
C131 C 0.61032 0.9923 0.37571 0.0
O132 O 0.62457 0.92107 0.49316 0.0
O133 O 0.62493 0.06396 0.49281 0.0
C134 C 0.37615 -0.00708 0.37525 0.0
O135 O 0.4934 0.06397 0.3611 0.0
O136 O 0.49269 0.9221 0.62488 0.0
O137 O 0.49287 0.0645 0.62446 0.0
O138 O 0.49311 0.92157 0.36131 0.0
O139 O 0.36136 -0.00705 0.42119 0.0
O140 O 0.62492 0.99226 0.42168 0.0
C141 C 0.49296 0.87559 0.37574 0.0
O142 O 0.62477 0.9926 0.56416 0.0
O143 O 0.56428 0.12429 0.49296 0.0
O144 O 0.3611 -0.00666 0.56411 0.0
O145 O 0.56374 0.86088 0.49319 0.0
O146 O 0.4212 0.86134 0.49324 0.0
O147 O 0.42218 0.12462 0.49242 0.0
C148 C 0.49362 0.10993 0.37568 0.0
C149 C 0.4926 0.87607 0.61061 0.0
C150 C 0.49345 0.60935 0.1107 0.0
C151 C 0.37594 0.60997 -0.00666 0.0
O152 O 0.53531 0.53462 0.03523 0.0
O153 O 0.45074 0.45028 0.03527 0.0
O154 O 0.53517 0.45007 0.03506 0.0
O155 O 0.45105 0.53487 0.03545 0.0
Hf156 Hf 0.49318 0.49227 0.08303 0.0
O157 O 0.53516 0.53483 0.95063 0.0
Hf158 Hf 0.49322 0.58266 -0.00687 0.0
O159 O 0.53501 0.45022 0.95044 0.0
Hf160 Hf 0.58274 0.49235 0.99274 0.0
O161 O 0.45089 0.53502 0.95082 0.0
Hf162 Hf 0.49273 0.40259 0.99275 0.0
Hf163 Hf 0.40324 0.49284 -0.00685 0.0
O164 O 0.45058 0.45049 0.95065 0.0
Hf165 Hf 0.49282 0.49265 0.90285 0.0
C166 C 0.37526 0.37592 0.99277 0.0
C167 C 0.61068 0.60931 -0.00666 0.0
C168 C 0.61002 0.37525 0.99231 0.0
C169 C 0.61064 0.49197 0.10974 0.0
O170 O 0.56471 0.49214 0.12454 0.0
O171 O 0.42187 0.49227 0.1249 0.0
C172 C 0.37588 0.49248 0.11028 0.0
O173 O 0.4213 0.49292 0.86135 0.0
O174 O 0.49226 0.36095 0.92158 0.0
O175 O 0.49278 0.3606 0.06372 0.0
O176 O 0.56414 0.49258 0.86099 0.0
O177 O 0.49328 0.62443 0.92171 0.0
O178 O 0.49334 0.62409 0.06474 0.0
O179 O 0.36153 0.56399 -0.00655 0.0
O180 O 0.36107 0.42196 -0.00702 0.0
C181 C 0.61012 0.49267 0.87562 0.0
O182 O 0.62445 0.42122 0.9923 0.0
O183 O 0.62487 0.56326 -0.00696 0.0
C184 C 0.37537 0.49318 0.87615 0.0
O185 O 0.49292 0.56388 0.86124 0.0
O186 O 0.49332 0.42078 0.12453 0.0
O187 O 0.49344 0.56331 0.12499 0.0
O188 O 0.49248 0.42136 0.861 0.0
O189 O 0.36116 0.49324 0.92221 0.0
O190 O 0.6245 0.49265 0.92162 0.0
C191 C 0.49222 0.37539 0.87559 0.0
O192 O 0.62484 0.49193 0.06368 0.0
O193 O 0.56476 0.62412 -0.00659 0.0
O194 O 0.36149 0.49272 0.06428 0.0
O195 O 0.56402 0.36068 0.9925 0.0
O196 O 0.42119 0.36113 0.99267 0.0
O197 O 0.42193 0.62456 -0.00684 0.0
C198 C 0.49311 0.60986 0.87569 0.0
C199 C 0.4931 0.37487 0.10976 0.0
H200 H -0.00456 0.09652 0.21207 0.0
H201 H 0.99156 0.38879 0.27377 0.0
H202 H 0.99159 0.21182 0.09917 0.0
H203 H -0.00524 0.27355 0.38676 0.0
H204 H 0.99176 0.32445 0.20946 0.0
H205 H -0.00455 0.16083 0.27643 0.0
C206 C -0.00542 0.1353 0.20066 0.0
C207 C -0.00651 0.14858 0.14987 0.0
C208 C 0.99242 0.31324 0.24832 0.0
C209 C -0.00651 0.22262 0.22381 0.0
C210 C 0.99232 0.35001 0.28521 0.0
C211 C -0.00686 0.33676 0.33601 0.0
C212 C -0.00662 0.26268 0.26211 0.0
C213 C -0.00593 0.28573 0.34821 0.0
C214 C -0.00541 0.17206 0.23758 0.0
C215 C 0.99246 0.19962 0.1377 0.0
N216 N -0.00583 0.25062 0.31154 0.0
N217 N 0.99247 0.2347 0.17439 0.0
H218 H 0.89 0.99038 0.21293 0.0
H219 H 0.5974 -0.00628 0.27396 0.0
H220 H 0.77465 -0.00613 0.09997 0.0
H221 H 0.71239 0.99054 0.38729 0.0
H222 H 0.66196 -0.00642 0.20986 0.0
H223 H 0.82554 0.99023 0.27726 0.0
C224 C 0.85118 0.99113 0.20151 0.0
C225 C 0.83791 0.99216 0.15072 0.0
C226 C 0.67308 -0.00709 0.24875 0.0
C227 C 0.76378 0.99198 0.22455 0.0
C228 C 0.63617 -0.00703 0.28551 0.0
C229 C 0.64929 0.99215 0.33634 0.0
C230 C 0.72362 0.992 0.26271 0.0
C231 C 0.70032 0.99123 0.34871 0.0
C232 C 0.81436 0.99103 0.23839 0.0
C233 C 0.78685 -0.00695 0.13851 0.0
N234 N 0.73556 0.99118 0.31217 0.0
N235 N 0.75173 -0.00705 0.17513 0.0
H236 H -0.00499 0.88893 0.2122 0.0
H237 H -0.00468 0.59663 0.27388 0.0
H238 H -0.00513 0.77355 0.09931 0.0
H239 H -0.00592 0.71186 0.38691 0.0
H240 H -0.00407 0.66098 0.20959 0.0
H241 H -0.00453 0.82462 0.27658 0.0
C242 C -0.00492 0.85013 0.2008 0.0
C243 C -0.00517 0.83682 0.15 0.0
C244 C -0.00447 0.67219 0.24845 0.0
C245 C -0.00464 0.76281 0.22397 0.0
C246 C -0.00484 0.63541 0.28533 0.0
C247 C -0.00542 0.64866 0.33614 0.0
C248 C -0.0047 0.72275 0.26226 0.0
C249 C -0.00552 0.69969 0.34835 0.0
C250 C -0.00466 0.81338 0.23773 0.0
C251 C -0.005 0.78578 0.13785 0.0
N252 N -0.00518 0.73481 0.3117 0.0
N253 N -0.00477 0.75071 0.17454 0.0
H254 H 0.38974 -0.0045 0.27358 0.0
H255 H 0.09757 0.99013 0.21121 0.0
H256 H 0.274 0.99037 0.38607 0.0
H257 H 0.21292 -0.00442 0.09833 0.0
H258 H 0.16182 0.99011 0.27554 0.0
H259 H 0.32562 -0.00453 0.209 0.0
C260 C 0.35089 -0.00566 0.28485 0.0
C261 C 0.33743 -0.00706 0.3356 0.0
C262 C 0.1731 0.99133 0.23671 0.0
C263 C 0.26364 -0.0071 0.2614 0.0
C264 C 0.13637 0.99135 0.19979 0.0
C265 C 0.14967 -0.00712 0.14901 0.0
C266 C 0.22367 -0.00715 0.22299 0.0
C267 C 0.20073 -0.00565 0.13687 0.0
C268 C 0.31425 -0.00566 0.24781 0.0
C269 C 0.28634 0.99153 0.34758 0.0
N270 N 0.23582 -0.00569 0.17358 0.0
N271 N 0.25138 0.99154 0.31077 0.0
H272 H 0.98989 0.88872 0.7739 0.0
H273 H -0.00514 0.59648 0.71216 0.0
H274 H -0.00548 0.77343 0.88679 0.0
H275 H 0.99072 0.71173 0.5992 0.0
H276 H -0.00549 0.6608 0.77648 0.0
H277 H 0.9899 0.82441 0.70955 0.0
C278 C 0.99092 0.84994 0.78531 0.0
C279 C 0.99223 0.83666 0.8361 0.0
C280 C -0.00632 0.67202 0.73763 0.0
C281 C 0.99226 0.76263 0.76215 0.0
C282 C -0.00614 0.63526 0.70073 0.0
C283 C 0.99283 0.64852 0.64993 0.0
C284 C 0.99243 0.72257 0.72385 0.0
C285 C 0.9916 0.69955 0.63775 0.0
C286 C 0.99092 0.81318 0.7484 0.0
C287 C -0.00652 0.78563 0.84826 0.0
N288 N 0.99143 0.73464 0.67442 0.0
N289 N -0.00653 0.75055 0.81158 0.0
H290 H 0.09591 0.99034 0.77305 0.0
H291 H 0.38852 -0.0029 0.71184 0.0
H292 H 0.2112 -0.0036 0.88595 0.0
H293 H 0.2736 0.99049 0.5986 0.0
H294 H 0.32393 -0.00276 0.77595 0.0
H295 H 0.16037 0.99073 0.7087 0.0
C296 C 0.13471 0.99178 0.78445 0.0
C297 C 0.14796 -0.00669 0.83524 0.0
C298 C 0.31284 -0.00425 0.73708 0.0
C299 C 0.22212 -0.00624 0.76136 0.0
C300 C 0.34976 -0.00435 0.70031 0.0
C301 C 0.33668 -0.00626 0.64949 0.0
C302 C 0.26231 -0.0061 0.72316 0.0
C303 C 0.28566 0.99202 0.63716 0.0
C304 C 0.17154 0.99198 0.74755 0.0
C305 C 0.19901 -0.0049 0.84742 0.0
N306 N 0.2504 0.99212 0.67371 0.0
N307 N 0.23413 -0.00472 0.81078 0.0
H308 H 0.99108 0.38864 0.71207 0.0
H309 H 0.99112 0.09633 0.77374 0.0
H310 H 0.99206 0.27342 0.59903 0.0
H311 H 0.99124 0.21169 0.88664 0.0
H312 H 0.99081 0.16064 0.70936 0.0
H313 H 0.9905 0.32429 0.77635 0.0
C314 C 0.99118 0.34986 0.70061 0.0
C315 C 0.99167 0.33663 0.6498 0.0
C316 C 0.99089 0.17188 0.74822 0.0
C317 C 0.991 0.26252 0.72368 0.0
C318 C 0.99107 0.13513 0.78514 0.0
C319 C 0.99126 0.14843 0.83595 0.0
C320 C 0.9909 0.22245 0.76198 0.0
C321 C 0.99115 0.19947 0.8481 0.0
C322 C 0.99084 0.31308 0.73749 0.0
C323 C 0.99172 0.28559 0.63759 0.0
N324 N 0.991 0.23455 0.81141 0.0
N325 N 0.99141 0.25047 0.67424 0.0
H326 H 0.71207 -0.0057 0.59739 0.0
H327 H 0.77288 0.99019 0.89006 0.0
H328 H 0.5986 0.99087 0.71223 0.0
H329 H 0.88593 -0.00613 0.77482 0.0
H330 H 0.70858 0.99026 0.82554 0.0
H331 H 0.7761 -0.00598 0.66203 0.0
C332 C 0.70047 -0.00653 0.63614 0.0
C333 C 0.64962 0.99261 0.64919 0.0
C334 C 0.74746 0.99105 0.8144 0.0
C335 C 0.72319 0.99229 0.72362 0.0
C336 C 0.78432 0.99102 0.85126 0.0
C337 C 0.83513 0.99204 0.83803 0.0
C338 C 0.76134 0.99213 0.76383 0.0
C339 C 0.84738 -0.00696 0.78699 0.0
C340 C 0.7372 -0.00667 0.67309 0.0
C341 C 0.6372 0.9916 0.70021 0.0
N342 N 0.81077 -0.00693 0.75183 0.0
N343 N 0.67371 0.99146 0.73549 0.0
H344 H 0.27354 0.38923 -0.00395 0.0
H345 H 0.2117 0.09707 0.98785 0.0
H346 H 0.38627 0.27391 0.98896 0.0
H347 H 0.09873 0.21211 -0.00439 0.0
H348 H 0.27596 0.16144 0.98781 0.0
H349 H 0.2091 0.32496 -0.00443 0.0
C350 C 0.28489 0.35045 -0.00563 0.0
C351 C 0.33566 0.33715 0.99256 0.0
C352 C 0.23712 0.17261 0.98953 0.0
C353 C 0.26164 0.26318 0.992 0.0
C354 C 0.20026 0.13581 0.98958 0.0
C355 C 0.14948 0.14899 0.99179 0.0
C356 C 0.22333 0.22312 0.99175 0.0
C357 C 0.13727 0.19999 -0.00616 0.0
C358 C 0.24793 0.31372 -0.00589 0.0
C359 C 0.34776 0.28613 0.99048 0.0
N360 N 0.17392 0.23513 -0.0062 0.0
N361 N 0.31104 0.25109 0.99025 0.0
H362 H 0.27422 0.59694 -0.00339 0.0
H363 H 0.21247 0.88915 0.98885 0.0
H364 H 0.38723 0.71202 0.99 0.0
H365 H 0.09968 0.77385 -0.0044 0.0
H366 H 0.27688 0.82485 0.98914 0.0
H367 H 0.20995 0.66131 -0.00375 0.0
C368 C 0.28567 0.63569 -0.00494 0.0
C369 C 0.33647 0.64889 -0.00668 0.0
C370 C 0.23804 0.81363 0.99056 0.0
C371 C 0.26261 0.72301 0.99289 0.0
C372 C 0.2011 0.85037 0.99041 0.0
C373 C 0.15032 0.83709 0.99222 0.0
C374 C 0.22431 0.76308 0.99257 0.0
C375 C 0.1382 0.78606 -0.00588 0.0
C376 C 0.2488 0.67249 -0.00513 0.0
C377 C 0.34868 0.69989 0.99143 0.0
N378 N 0.1749 0.751 -0.00573 0.0
N379 N 0.31204 0.73503 0.99125 0.0
H380 H 0.71172 0.38826 0.9888 0.0
H381 H 0.77343 0.09605 -0.00347 0.0
H382 H 0.59868 0.2732 -0.00448 0.0
H383 H 0.88622 0.21137 0.99009 0.0
H384 H 0.70901 0.16035 -0.00396 0.0
H385 H 0.77596 0.32387 0.98901 0.0
C386 C 0.70026 0.3495 0.99034 0.0
C387 C 0.64946 0.33632 0.99218 0.0
C388 C 0.74785 0.17157 -0.00527 0.0
C389 C 0.7233 0.26219 0.99243 0.0
C390 C 0.78479 0.13484 -0.005 0.0
C391 C 0.83558 0.14813 -0.00664 0.0
C392 C 0.76158 0.22212 0.99277 0.0
C393 C 0.84769 0.19915 0.99146 0.0
C394 C 0.73711 0.3127 0.99044 0.0
C395 C 0.63723 0.28532 -0.00597 0.0
N396 N 0.81099 0.2342 0.99121 0.0
N397 N 0.67387 0.25018 -0.00586 0.0
H398 H 0.7742 0.88816 -0.0016 0.0
H399 H 0.71242 0.59598 0.99041 0.0
H400 H 0.88719 0.77312 0.99083 0.0
H401 H 0.59967 0.71131 -0.00289 0.0
H402 H 0.77686 0.66026 0.99105 0.0
H403 H 0.70996 0.82378 -0.00147 0.0
C404 C 0.78566 0.84941 -0.00326 0.0
C405 C 0.83644 0.83624 -0.00547 0.0
C406 C 0.73802 0.67149 0.99239 0.0
C407 C 0.7626 0.7621 -0.00532 0.0
C408 C 0.70106 0.63476 0.99204 0.0
C409 C 0.65029 0.64807 -0.00632 0.0
C410 C 0.7243 0.72203 -0.00558 0.0
C411 C 0.63818 0.69909 -0.00428 0.0
C412 C 0.7488 0.81261 -0.00316 0.0
C413 C 0.84866 0.78524 0.99257 0.0
N414 N 0.6749 0.73413 -0.00397 0.0
N415 N 0.81202 0.75009 0.99266 0.0
H416 H 0.71184 0.49441 0.88882 0.0
H417 H 0.77364 0.49141 0.59644 0.0
H418 H 0.59888 0.49124 0.77348 0.0
H419 H 0.8865 0.49449 0.71189 0.0
H420 H 0.70924 0.49143 0.66075 0.0
H421 H 0.77617 0.49455 0.82447 0.0
C422 C 0.70041 0.49373 0.85001 0.0
C423 C 0.64961 0.4928 0.83673 0.0
C424 C 0.74809 0.49211 0.67201 0.0
C425 C 0.72353 0.49296 0.76265 0.0
C426 C 0.78503 0.49211 0.63526 0.0
C427 C 0.83582 0.49295 0.64858 0.0
C428 C 0.76184 0.49297 0.7226 0.0
C429 C 0.84796 0.4938 0.69965 0.0
C430 C 0.73731 0.49382 0.81324 0.0
C431 C 0.63742 0.49199 0.78567 0.0
N432 N 0.81126 0.49378 0.73473 0.0
N433 N 0.6741 0.49208 0.75056 0.0
H434 H 0.21184 0.49017 0.59723 0.0
H435 H 0.27365 0.49572 0.88956 0.0
H436 H 0.0988 0.49475 0.71246 0.0
H437 H 0.3864 0.49097 0.77405 0.0
H438 H 0.2092 0.49559 0.82528 0.0
H439 H 0.27611 0.49058 0.66159 0.0
C440 C 0.20038 0.49127 0.63602 0.0
C441 C 0.14957 0.49242 0.64926 0.0
C442 C 0.24804 0.49457 0.81401 0.0
C443 C 0.22344 0.4929 0.72337 0.0
C444 C 0.285 0.49464 0.85074 0.0
C445 C 0.33578 0.49332 0.83738 0.0
C446 C 0.26175 0.49316 0.76342 0.0
C447 C 0.34788 0.49202 0.78631 0.0
C448 C 0.23725 0.4915 0.67281 0.0
C449 C 0.13735 0.49378 0.7003 0.0
N450 N 0.31116 0.49196 0.75127 0.0
N451 N 0.17401 0.494 0.73544 0.0
H452 H 0.21243 0.49265 0.38949 0.0
H453 H 0.27415 0.492 0.09709 0.0
H454 H 0.09954 0.49199 0.27403 0.0
H455 H 0.38716 0.49281 0.21242 0.0
H456 H 0.20984 0.49193 0.16144 0.0
H457 H 0.27682 0.49265 0.32518 0.0
C458 C 0.20103 0.4925 0.35067 0.0
C459 C 0.15023 0.49232 0.33734 0.0
C460 C 0.2487 0.49212 0.17268 0.0
C461 C 0.2242 0.49232 0.26332 0.0
C462 C 0.28559 0.49217 0.1359 0.0
C463 C 0.3364 0.49242 0.14917 0.0
C464 C 0.2625 0.49233 0.22326 0.0
C465 C 0.34861 0.49261 0.20023 0.0
C466 C 0.23796 0.4925 0.31392 0.0
C467 C 0.13808 0.49214 0.28627 0.0
N468 N 0.31194 0.49257 0.23535 0.0
N469 N 0.17478 0.49214 0.25119 0.0
H470 H 0.71236 0.48934 0.09634 0.0
H471 H 0.77421 0.49537 0.38867 0.0
H472 H 0.59963 0.49442 0.21184 0.0
H473 H 0.88725 0.49031 0.27346 0.0
H474 H 0.70994 0.49498 0.3243 0.0
H475 H 0.77682 0.48955 0.16062 0.0
C476 C 0.70101 0.49051 0.13516 0.0
C477 C 0.65024 0.49189 0.14852 0.0
C478 C 0.7488 0.49395 0.31309 0.0
C479 C 0.72428 0.49214 0.22248 0.0
C480 C 0.78567 0.49416 0.34988 0.0
C481 C 0.83648 0.49286 0.33665 0.0
C482 C 0.7626 0.49241 0.26253 0.0
C483 C 0.84869 0.49138 0.28561 0.0
C484 C 0.73798 0.49062 0.17189 0.0
C485 C 0.63815 0.4933 0.19958 0.0
N486 N 0.81203 0.49119 0.25047 0.0
N487 N 0.67488 0.49341 0.23462 0.0
H488 H 0.27343 0.88886 0.49062 0.0
H489 H 0.21267 0.59631 0.49636 0.0
H490 H 0.38675 0.77402 0.49591 0.0
H491 H 0.09946 0.71126 0.49089 0.0
H492 H 0.27685 0.66088 0.4964 0.0
H493 H 0.20931 0.82427 0.49086 0.0
C494 C 0.28497 0.85013 0.49185 0.0
C495 C 0.33581 0.83706 0.49324 0.0
C496 C 0.23796 0.67196 0.49519 0.0
C497 C 0.26217 0.7627 0.49352 0.0
C498 C 0.20116 0.63507 0.49515 0.0
C499 C 0.15034 0.64818 0.4936 0.0
C500 C 0.22404 0.72248 0.49364 0.0
C501 C 0.13803 0.69918 0.49214 0.0
C502 C 0.24821 0.81321 0.49198 0.0
C503 C 0.34817 0.78607 0.49476 0.0
N504 N 0.17459 0.73438 0.49218 0.0
N505 N 0.31163 0.75083 0.49486 0.0
H506 H 0.09672 0.27325 0.49325 0.0
H507 H 0.38931 0.21209 0.49162 0.0
H508 H 0.21193 0.38634 0.49248 0.0
H509 H 0.27403 0.09908 0.4929 0.0
H510 H 0.32485 0.27632 0.49167 0.0
H511 H 0.16121 0.20907 0.49292 0.0
C512 C 0.13552 0.28473 0.49302 0.0
C513 C 0.14873 0.33552 0.49291 0.0
C514 C 0.31367 0.23747 0.49194 0.0
C515 C 0.22295 0.2618 0.49251 0.0
C516 C 0.35051 0.20064 0.49191 0.0
C517 C 0.33726 0.14986 0.49228 0.0
C518 C 0.26309 0.22362 0.49234 0.0
C519 C 0.2862 0.13762 0.49262 0.0
C520 C 0.17238 0.24792 0.49282 0.0
C521 C 0.19979 0.3478 0.4926 0.0
N522 N 0.25105 0.17421 0.49265 0.0
N523 N 0.23496 0.31122 0.49241 0.0
H524 H 0.88935 0.71206 0.49483 0.0
H525 H 0.59671 0.7734 0.49151 0.0
H526 H 0.77415 0.59905 0.49098 0.0
H527 H 0.71195 0.88638 0.49497 0.0
H528 H 0.66118 0.70915 0.49145 0.0
H529 H 0.82486 0.77628 0.49501 0.0
C530 C 0.85055 0.7006 0.49399 0.0
C531 C 0.83736 0.64981 0.49287 0.0
C532 C 0.67236 0.748 0.49223 0.0
C533 C 0.76311 0.7236 0.49309 0.0
C534 C 0.63551 0.78485 0.49228 0.0
C535 C 0.64872 0.83563 0.49324 0.0
C536 C 0.72294 0.76182 0.49316 0.0
C537 C 0.69979 0.84785 0.49417 0.0
C538 C 0.81369 0.73743 0.49411 0.0
C539 C 0.7863 0.63758 0.49188 0.0
N540 N 0.73495 0.81124 0.49411 0.0
N541 N 0.75112 0.67418 0.49201 0.0
H542 H 0.59683 0.21154 0.4949 0.0
H543 H 0.889 0.27398 0.49038 0.0
H544 H 0.71249 0.09899 0.49094 0.0
H545 H 0.77347 0.38665 0.49462 0.0
H546 H 0.82482 0.20958 0.49047 0.0
H547 H 0.66097 0.27602 0.49477 0.0
C548 C 0.63567 0.20022 0.49399 0.0
C549 C 0.6491 0.14949 0.49292 0.0
C550 C 0.81349 0.24838 0.49139 0.0
C551 C 0.72294 0.22362 0.49276 0.0
C552 C 0.85018 0.28534 0.49135 0.0
C553 C 0.8368 0.33608 0.49251 0.0
C554 C 0.76289 0.26202 0.49262 0.0
C555 C 0.78572 0.34815 0.49367 0.0
C556 C 0.67232 0.23722 0.49392 0.0
C557 C 0.70018 0.13747 0.49181 0.0
N558 N 0.75069 0.3114 0.49371 0.0
N559 N 0.73518 0.17425 0.49175 0.0
H560 H 0.48777 0.27381 0.88866 0.0
H561 H 0.49606 0.21204 0.59639 0.0
H562 H 0.49578 0.38667 0.7735 0.0
H563 H 0.48891 0.09934 0.71175 0.0
H564 H 0.49549 0.27641 0.66069 0.0
H565 H 0.48762 0.20958 0.82427 0.0
C566 C 0.48954 0.28523 0.84988 0.0
C567 C 0.49187 0.33597 0.83666 0.0
C568 C 0.49404 0.2376 0.67193 0.0
C569 C 0.49168 0.26216 0.76255 0.0
C570 C 0.49435 0.20069 0.63519 0.0
C571 C 0.49256 0.14995 0.6485 0.0
C572 C 0.49191 0.22389 0.72249 0.0
C573 C 0.49043 0.13784 0.69954 0.0
C574 C 0.48942 0.24839 0.81308 0.0
C575 C 0.49394 0.34816 0.78564 0.0
N576 N 0.49016 0.17452 0.7346 0.0
N577 N 0.49383 0.31153 0.75051 0.0
H578 H 0.49119 0.88927 0.7124 0.0
H579 H 0.49447 0.59688 0.77391 0.0
H580 H 0.49393 0.77398 0.59946 0.0
H581 H 0.49169 0.71198 0.88705 0.0
H582 H 0.49429 0.66131 0.70968 0.0
H583 H 0.49132 0.82491 0.77676 0.0
C584 C 0.49183 0.85048 0.70098 0.0
C585 C 0.49256 0.83722 0.65017 0.0
C586 C 0.49371 0.67248 0.74856 0.0
C587 C 0.49272 0.76313 0.72412 0.0
C588 C 0.49381 0.63565 0.7854 0.0
C589 C 0.49309 0.64882 0.83624 0.0
C590 C 0.49287 0.72302 0.7624 0.0
C591 C 0.49229 0.69985 0.84848 0.0
C592 C 0.49189 0.8137 0.7379 0.0
C593 C 0.49333 0.78618 0.638 0.0
N594 N 0.49219 0.73501 0.81186 0.0
N595 N 0.4934 0.75108 0.67468 0.0
H596 H 0.49424 0.59616 0.21251 0.0
H597 H 0.49271 0.88858 0.27395 0.0
H598 H 0.49299 0.71144 0.09953 0.0
H599 H 0.49362 0.77347 0.38711 0.0
H600 H 0.49302 0.82415 0.20973 0.0
H601 H 0.49426 0.66054 0.27685 0.0
C602 C 0.49396 0.63495 0.20108 0.0
C603 C 0.49358 0.6482 0.15026 0.0
C604 C 0.49315 0.81298 0.2486 0.0
C605 C 0.4936 0.72231 0.22419 0.0
C606 C 0.49297 0.84981 0.28545 0.0
C607 C 0.49311 0.83663 0.33628 0.0
C608 C 0.49348 0.76243 0.26246 0.0
C609 C 0.49346 0.7856 0.34854 0.0
C610 C 0.49398 0.67174 0.23798 0.0
C611 C 0.49327 0.69925 0.13808 0.0
N612 N 0.49363 0.75044 0.31192 0.0
N613 N 0.49328 0.73435 0.17474 0.0
H614 H 0.49673 0.21155 0.38878 0.0
H615 H 0.49084 0.27321 0.09644 0.0
H616 H 0.49107 0.09861 0.27357 0.0
H617 H 0.49582 0.38597 0.21185 0.0
H618 H 0.49122 0.20885 0.16076 0.0
H619 H 0.49678 0.27578 0.3244 0.0
C620 C 0.49548 0.20011 0.34999 0.0
C621 C 0.49385 0.14935 0.33676 0.0
C622 C 0.49224 0.24768 0.172 0.0
C623 C 0.49392 0.22315 0.26264 0.0
C624 C 0.49203 0.28458 0.13525 0.0
C625 C 0.49328 0.33534 0.14857 0.0
C626 C 0.49374 0.26141 0.22258 0.0
C627 C 0.49477 0.34747 0.19962 0.0
C628 C 0.49553 0.23695 0.3132 0.0
C629 C 0.49237 0.13714 0.28572 0.0
N630 N 0.49496 0.31079 0.23469 0.0
N631 N 0.49241 0.17376 0.25059 0.0
loop_
_geom_bond_atom_site_label_1
_geom_bond_atom_site_label_2
_geom_bond_distance
_geom_bond_site_symmetry_2
_ccdc_geom_bond_type
C0 O28 1.281 . S
C0 O37 1.281 . S
C1 O29 1.281 . S
C1 O47 1.281 . S
O2 Hf6 2.202 . S
O2 Hf8 2.202 . S
O2 Hf10 2.202 . S
O3 Hf6 2.202 1_665 S
O3 Hf12 2.202 1_655 S
O3 Hf13 2.202 1_565 S
O4 Hf6 2.072 1_565 S
O4 Hf10 2.072 1_565 S
O4 Hf12 2.072 . S
O5 Hf6 2.072 1_655 S
O5 Hf8 2.072 1_655 S
O5 Hf13 2.072 . S
Hf6 O2 2.202 . S
Hf6 O3 2.202 1_445 S
Hf6 O4 2.072 1_545 S
Hf6 O5 2.072 1_455 S
Hf6 O20 2.209 1_545 S
Hf6 O21 2.209 1_455 S
Hf6 O36 2.209 1_545 S
Hf6 O37 2.209 1_455 S
O7 Hf8 2.072 1_556 S
O7 Hf10 2.072 1_556 S
O7 Hf15 2.072 . S
Hf8 O2 2.202 . S
Hf8 O5 2.072 1_455 S
Hf8 O7 2.072 1_554 S
Hf8 O11 2.202 1_454 S
Hf8 O27 2.209 1_554 S
Hf8 O28 2.209 1_455 S
Hf8 O43 2.209 1_554 S
Hf8 O47 2.209 1_455 S
O9 Hf10 2.202 1_566 S
O9 Hf12 2.202 1_556 S
O9 Hf15 2.202 1_565 S
Hf10 O2 2.202 . S
Hf10 O4 2.072 1_545 S
Hf10 O7 2.072 1_554 S
Hf10 O9 2.202 1_544 S
Hf10 O32 2.209 1_545 S
Hf10 O33 2.209 1_554 S
Hf10 O40 2.209 1_554 S
Hf10 O42 2.209 1_545 S
O11 Hf8 2.202 1_656 S
O11 Hf13 2.202 1_556 S
O11 Hf15 2.202 1_655 S
Hf12 O3 2.202 1_455 S
Hf12 O4 2.072 . S
Hf12 O9 2.202 1_554 S
Hf12 O14 2.072 1_454 S
Hf12 O24 2.209 1_454 S
Hf12 O25 2.209 . S
Hf12 O45 2.209 . S
Hf12 O46 2.209 1_454 S
Hf13 O3 2.202 1_545 S
Hf13 O5 2.072 . S
Hf13 O11 2.202 1_554 S
Hf13 O14 2.072 1_544 S
Hf13 O29 2.209 . S
Hf13 O30 2.209 1_544 S
Hf13 O39 2.209 1_544 S
Hf13 O44 2.209 . S
O14 Hf12 2.072 1_656 S
O14 Hf13 2.072 1_566 S
O14 Hf15 2.072 1_665 S
Hf15 O7 2.072 . S
Hf15 O9 2.202 1_545 S
Hf15 O11 2.202 1_455 S
Hf15 O14 2.072 1_445 S
Hf15 O23 2.209 1_445 S
Hf15 O26 2.209 . S
Hf15 O35 2.209 . S
Hf15 O38 2.209 1_445 S
C16 O30 1.281 . S
C16 O46 1.281 . S
C17 O33 1.281 . S
C17 O43 1.281 . S
C18 O32 1.281 . S
C18 O45 1.281 . S
C19 O20 1.281 . S
C19 O42 1.281 . S
O20 Hf6 2.209 1_565 S
O20 C19 1.281 . S
O21 Hf6 2.209 1_655 S
O21 C22 1.281 . S
C22 O21 1.281 . S
C22 O44 1.281 . S
O23 Hf15 2.209 1_665 S
O23 C34 1.281 . S
O24 Hf12 2.209 1_656 S
O24 C41 1.281 . S
O25 Hf12 2.209 . S
O25 C49 1.281 . S
O26 Hf15 2.209 . S
O26 C31 1.281 . S
O27 Hf8 2.209 1_556 S
O27 C48 1.281 . S
O28 C0 1.281 . S
O28 Hf8 2.209 1_655 S
O29 C1 1.281 . S
O29 Hf13 2.209 . S
O30 Hf13 2.209 1_566 S
O30 C16 1.281 . S
C31 O26 1.281 . S
C31 O40 1.281 . S
O32 Hf10 2.209 1_565 S
O32 C18 1.281 . S
O33 Hf10 2.209 1_556 S
O33 C17 1.281 . S
C34 O23 1.281 . S
C34 O39 1.281 . S
O35 Hf15 2.209 . S
O35 C48 1.281 . S
O36 Hf6 2.209 1_565 S
O36 C49 1.281 . S
O37 C0 1.281 . S
O37 Hf6 2.209 1_655 S
O38 Hf15 2.209 1_665 S
O38 C41 1.281 . S
O39 Hf13 2.209 1_566 S
O39 C34 1.281 . S
O40 Hf10 2.209 1_556 S
O40 C31 1.281 . S
C41 O24 1.281 . S
C41 O38 1.281 . S
O42 Hf10 2.209 1_565 S
O42 C19 1.281 . S
O43 Hf8 2.209 1_556 S
O43 C17 1.281 . S
O44 Hf13 2.209 . S
O44 C22 1.281 . S
O45 Hf12 2.209 . S
O45 C18 1.281 . S
O46 Hf12 2.209 1_656 S
O46 C16 1.281 . S
O47 C1 1.281 . S
O47 Hf8 2.209 1_655 S
C48 O27 1.281 . S
C48 O35 1.281 . S
C49 O25 1.281 . S
C49 O36 1.281 . S
C50 O78 1.281 . S
C50 O87 1.281 . S
C51 O79 1.281 . S
C51 O97 1.281 . S
O52 Hf56 2.202 . S
O52 Hf58 2.202 . S
O52 Hf60 2.202 . S
O53 Hf56 2.202 1_655 S
O53 Hf62 2.202 1_655 S
O53 Hf63 2.202 . S
O54 Hf56 2.072 . S
O54 Hf60 2.072 . S
O54 Hf62 2.072 . S
O55 Hf56 2.072 1_655 S
O55 Hf58 2.072 1_655 S
O55 Hf63 2.072 . S
Hf56 O52 2.202 . S
Hf56 O53 2.202 1_455 S
Hf56 O54 2.072 . S
Hf56 O55 2.072 1_455 S
Hf56 O70 2.209 . S
Hf56 O71 2.209 1_455 S
Hf56 O86 2.209 . S
Hf56 O87 2.209 1_455 S
O57 Hf58 2.072 . S
O57 Hf60 2.072 . S
O57 Hf65 2.072 . S
Hf58 O52 2.202 . S
Hf58 O55 2.072 1_455 S
Hf58 O57 2.072 . S
Hf58 O61 2.202 1_455 S
Hf58 O77 2.209 . S
Hf58 O78 2.209 1_455 S
Hf58 O93 2.209 . S
Hf58 O97 2.209 1_455 S
O59 Hf60 2.202 . S
O59 Hf62 2.202 . S
O59 Hf65 2.202 . S
Hf60 O52 2.202 . S
Hf60 O54 2.072 . S
Hf60 O57 2.072 . S
Hf60 O59 2.202 . S
Hf60 O82 2.209 . S
Hf60 O83 2.209 . S
Hf60 O90 2.209 . S
Hf60 O92 2.209 . S
O61 Hf58 2.202 1_655 S
O61 Hf63 2.202 . S
O61 Hf65 2.202 1_655 S
Hf62 O53 2.202 1_455 S
Hf62 O54 2.072 . S
Hf62 O59 2.202 . S
Hf62 O64 2.072 1_455 S
Hf62 O74 2.209 1_455 S
Hf62 O75 2.209 . S
Hf62 O95 2.209 . S
Hf62 O96 2.209 1_455 S
Hf63 O53 2.202 . S
Hf63 O55 2.072 . S
Hf63 O61 2.202 . S
Hf63 O64 2.072 . S
Hf63 O79 2.209 . S
Hf63 O80 2.209 . S
Hf63 O89 2.209 . S
Hf63 O94 2.209 . S
O64 Hf62 2.072 1_655 S
O64 Hf63 2.072 . S
O64 Hf65 2.072 1_655 S
Hf65 O57 2.072 . S
Hf65 O59 2.202 . S
Hf65 O61 2.202 1_455 S
Hf65 O64 2.072 1_455 S
Hf65 O73 2.209 1_455 S
Hf65 O76 2.209 . S
Hf65 O85 2.209 . S
Hf65 O88 2.209 1_455 S
C66 O80 1.281 . S
C66 O96 1.281 . S
C67 O83 1.281 . S
C67 O93 1.281 . S
C68 O82 1.281 . S
C68 O95 1.281 . S
C69 O70 1.281 . S
C69 O92 1.281 . S
O70 Hf56 2.209 . S
O70 C69 1.281 . S
O71 Hf56 2.209 1_655 S
O71 C72 1.281 . S
C72 O71 1.281 . S
C72 O94 1.281 . S
O73 Hf65 2.209 1_655 S
O73 C84 1.281 . S
O74 Hf62 2.209 1_655 S
O74 C91 1.281 . S
O75 Hf62 2.209 . S
O75 C99 1.281 . S
O76 Hf65 2.209 . S
O76 C81 1.281 . S
O77 Hf58 2.209 . S
O77 C98 1.281 . S
O78 C50 1.281 . S
O78 Hf58 2.209 1_655 S
O79 C51 1.281 . S
O79 Hf63 2.209 . S
O80 Hf63 2.209 . S
O80 C66 1.281 . S
C81 O76 1.281 . S
C81 O90 1.281 . S
O82 Hf60 2.209 . S
O82 C68 1.281 . S
O83 Hf60 2.209 . S
O83 C67 1.281 . S
C84 O73 1.281 . S
C84 O89 1.281 . S
O85 Hf65 2.209 . S
O85 C98 1.281 . S
O86 Hf56 2.209 . S
O86 C99 1.281 . S
O87 C50 1.281 . S
O87 Hf56 2.209 1_655 S
O88 Hf65 2.209 1_655 S
O88 C91 1.281 . S
O89 Hf63 2.209 . S
O89 C84 1.281 . S
O90 Hf60 2.209 . S
O90 C81 1.281 . S
C91 O74 1.281 . S
C91 O88 1.281 . S
O92 Hf60 2.209 . S
O92 C69 1.281 . S
O93 Hf58 2.209 . S
O93 C67 1.281 . S
O94 Hf63 2.209 . S
O94 C72 1.281 . S
O95 Hf62 2.209 . S
O95 C68 1.281 . S
O96 Hf62 2.209 1_655 S
O96 C66 1.281 . S
O97 C51 1.281 . S
O97 Hf58 2.209 1_655 S
C98 O77 1.281 . S
C98 O85 1.281 . S
C99 O75 1.281 . S
C99 O86 1.281 . S
C100 O128 1.281 . S
C100 O137 1.281 . S
C101 O129 1.281 . S
C101 O147 1.281 . S
O102 Hf106 2.202 . S
O102 Hf108 2.202 . S
O102 Hf110 2.202 . S
O103 Hf106 2.202 1_565 S
O103 Hf112 2.202 . S
O103 Hf113 2.202 1_565 S
O104 Hf106 2.072 1_565 S
O104 Hf110 2.072 1_565 S
O104 Hf112 2.072 . S
O105 Hf106 2.072 . S
O105 Hf108 2.072 . S
O105 Hf113 2.072 . S
Hf106 O102 2.202 . S
Hf106 O103 2.202 1_545 S
Hf106 O104 2.072 1_545 S
Hf106 O105 2.072 . S
Hf106 O120 2.209 1_545 S
Hf106 O121 2.209 . S
Hf106 O136 2.209 1_545 S
Hf106 O137 2.209 . S
O107 Hf108 2.072 . S
O107 Hf110 2.072 . S
O107 Hf115 2.072 . S
Hf108 O102 2.202 . S
Hf108 O105 2.072 . S
Hf108 O107 2.072 . S
Hf108 O111 2.202 . S
Hf108 O127 2.209 . S
Hf108 O128 2.209 . S
Hf108 O143 2.209 . S
Hf108 O147 2.209 . S
O109 Hf110 2.202 1_565 S
O109 Hf112 2.202 . S
O109 Hf115 2.202 1_565 S
Hf110 O102 2.202 . S
Hf110 O104 2.072 1_545 S
Hf110 O107 2.072 . S
Hf110 O109 2.202 1_545 S
Hf110 O132 2.209 1_545 S
Hf110 O133 2.209 . S
Hf110 O140 2.209 . S
Hf110 O142 2.209 1_545 S
O111 Hf108 2.202 . S
O111 Hf113 2.202 . S
O111 Hf115 2.202 . S
Hf112 O103 2.202 . S
Hf112 O104 2.072 . S
Hf112 O109 2.202 . S
Hf112 O114 2.072 . S
Hf112 O124 2.209 . S
Hf112 O125 2.209 . S
Hf112 O145 2.209 . S
Hf112 O146 2.209 . S
Hf113 O103 2.202 1_545 S
Hf113 O105 2.072 . S
Hf113 O111 2.202 . S
Hf113 O114 2.072 1_545 S
Hf113 O129 2.209 . S
Hf113 O130 2.209 1_545 S
Hf113 O139 2.209 1_545 S
Hf113 O144 2.209 . S
O114 Hf112 2.072 . S
O114 Hf113 2.072 1_565 S
O114 Hf115 2.072 1_565 S
Hf115 O107 2.072 . S
Hf115 O109 2.202 1_545 S
Hf115 O111 2.202 . S
Hf115 O114 2.072 1_545 S
Hf115 O123 2.209 1_545 S
Hf115 O126 2.209 . S
Hf115 O135 2.209 . S
Hf115 O138 2.209 1_545 S
C116 O130 1.281 . S
C116 O146 1.281 . S
C117 O133 1.281 . S
C117 O143 1.281 . S
C118 O132 1.281 . S
C118 O145 1.281 . S
C119 O120 1.281 . S
C119 O142 1.281 . S
O120 Hf106 2.209 1_565 S
O120 C119 1.281 . S
O121 Hf106 2.209 . S
O121 C122 1.281 . S
C122 O121 1.281 . S
C122 O144 1.281 . S
O123 Hf115 2.209 1_565 S
O123 C134 1.281 . S
O124 Hf112 2.209 . S
O124 C141 1.281 . S
O125 Hf112 2.209 . S
O125 C149 1.281 . S
O126 Hf115 2.209 . S
O126 C131 1.281 . S
O127 Hf108 2.209 . S
O127 C148 1.281 . S
O128 C100 1.281 . S
O128 Hf108 2.209 . S
O129 C101 1.281 . S
O129 Hf113 2.209 . S
O130 Hf113 2.209 1_565 S
O130 C116 1.281 . S
C131 O126 1.281 . S
C131 O140 1.281 . S
O132 Hf110 2.209 1_565 S
O132 C118 1.281 . S
O133 Hf110 2.209 . S
O133 C117 1.281 . S
C134 O123 1.281 . S
C134 O139 1.281 . S
O135 Hf115 2.209 . S
O135 C148 1.281 . S
O136 Hf106 2.209 1_565 S
O136 C149 1.281 . S
O137 C100 1.281 . S
O137 Hf106 2.209 . S
O138 Hf115 2.209 1_565 S
O138 C141 1.281 . S
O139 Hf113 2.209 1_565 S
O139 C134 1.281 . S
O140 Hf110 2.209 . S
O140 C131 1.281 . S
C141 O124 1.281 . S
C141 O138 1.281 . S
O142 Hf110 2.209 1_565 S
O142 C119 1.281 . S
O143 Hf108 2.209 . S
O143 C117 1.281 . S
O144 Hf113 2.209 . S
O144 C122 1.281 . S
O145 Hf112 2.209 . S
O145 C118 1.281 . S
O146 Hf112 2.209 . S
O146 C116 1.281 . S
O147 C101 1.281 . S
O147 Hf108 2.209 . S
C148 O127 1.281 . S
C148 O135 1.281 . S
C149 O125 1.281 . S
C149 O136 1.281 . S
C150 O178 1.281 . S
C150 O187 1.281 . S
C151 O179 1.281 . S
C151 O197 1.281 . S
O152 Hf156 2.202 . S
O152 Hf158 2.202 . S
O152 Hf160 2.202 . S
O153 Hf156 2.202 . S
O153 Hf162 2.202 . S
O153 Hf163 2.202 . S
O154 Hf156 2.072 . S
O154 Hf160 2.072 . S
O154 Hf162 2.072 . S
O155 Hf156 2.072 . S
O155 Hf158 2.072 . S
O155 Hf163 2.072 . S
Hf156 O152 2.202 . S
Hf156 O153 2.202 . S
Hf156 O154 2.072 . S
Hf156 O155 2.072 . S
Hf156 O170 2.209 . S
Hf156 O171 2.209 . S
Hf156 O186 2.209 . S
Hf156 O187 2.209 . S
O157 Hf158 2.072 1_556 S
O157 Hf160 2.072 1_556 S
O157 Hf165 2.072 . S
Hf158 O152 2.202 . S
Hf158 O155 2.072 . S
Hf158 O157 2.072 1_554 S
Hf158 O161 2.202 1_554 S
Hf158 O177 2.209 1_554 S
Hf158 O178 2.209 . S
Hf158 O193 2.209 1_554 S
Hf158 O197 2.209 . S
O159 Hf160 2.202 1_556 S
O159 Hf162 2.202 1_556 S
O159 Hf165 2.202 . S
Hf160 O152 2.202 . S
Hf160 O154 2.072 . S
Hf160 O157 2.072 1_554 S
Hf160 O159 2.202 1_554 S
Hf160 O182 2.209 . S
Hf160 O183 2.209 1_554 S
Hf160 O190 2.209 1_554 S
Hf160 O192 2.209 . S
O161 Hf158 2.202 1_556 S
O161 Hf163 2.202 1_556 S
O161 Hf165 2.202 . S
Hf162 O153 2.202 . S
Hf162 O154 2.072 . S
Hf162 O159 2.202 1_554 S
Hf162 O164 2.072 1_554 S
Hf162 O174 2.209 1_554 S
Hf162 O175 2.209 . S
Hf162 O195 2.209 . S
Hf162 O196 2.209 1_554 S
Hf163 O153 2.202 . S
Hf163 O155 2.072 . S
Hf163 O161 2.202 1_554 S
Hf163 O164 2.072 1_554 S
Hf163 O179 2.209 . S
Hf163 O180 2.209 1_554 S
Hf163 O189 2.209 1_554 S
Hf163 O194 2.209 . S
O164 Hf162 2.072 1_556 S
O164 Hf163 2.072 1_556 S
O164 Hf165 2.072 . S
Hf165 O157 2.072 . S
Hf165 O159 2.202 . S
Hf165 O161 2.202 . S
Hf165 O164 2.072 . S
Hf165 O173 2.209 . S
Hf165 O176 2.209 . S
Hf165 O185 2.209 . S
Hf165 O188 2.209 . S
C166 O180 1.281 . S
C166 O196 1.281 . S
C167 O183 1.281 . S
C167 O193 1.281 . S
C168 O182 1.281 . S
C168 O195 1.281 . S
C169 O170 1.281 . S
C169 O192 1.281 . S
O170 Hf156 2.209 . S
O170 C169 1.281 . S
O171 Hf156 2.209 . S
O171 C172 1.281 . S
C172 O171 1.281 . S
C172 O194 1.281 . S
O173 Hf165 2.209 . S
O173 C184 1.281 . S
O174 Hf162 2.209 1_556 S
O174 C191 1.281 . S
O175 Hf162 2.209 . S
O175 C199 1.281 . S
O176 Hf165 2.209 . S
O176 C181 1.281 . S
O177 Hf158 2.209 1_556 S
O177 C198 1.281 . S
O178 C150 1.281 . S
O178 Hf158 2.209 . S
O179 C151 1.281 . S
O179 Hf163 2.209 . S
O180 Hf163 2.209 1_556 S
O180 C166 1.281 . S
C181 O176 1.281 . S
C181 O190 1.281 . S
O182 Hf160 2.209 . S
O182 C168 1.281 . S
O183 Hf160 2.209 1_556 S
O183 C167 1.281 . S
C184 O173 1.281 . S
C184 O189 1.281 . S
O185 Hf165 2.209 . S
O185 C198 1.281 . S
O186 Hf156 2.209 . S
O186 C199 1.281 . S
O187 C150 1.281 . S
O187 Hf156 2.209 . S
O188 Hf165 2.209 . S
O188 C191 1.281 . S
O189 Hf163 2.209 1_556 S
O189 C184 1.281 . S
O190 Hf160 2.209 1_556 S
O190 C181 1.281 . S
C191 O174 1.281 . S
C191 O188 1.281 . S
O192 Hf160 2.209 . S
O192 C169 1.281 . S
O193 Hf158 2.209 1_556 S
O193 C167 1.281 . S
O194 Hf163 2.209 . S
O194 C172 1.281 . S
O195 Hf162 2.209 . S
O195 C168 1.281 . S
O196 Hf162 2.209 1_556 S
O196 C166 1.281 . S
O197 C151 1.281 . S
O197 Hf158 2.209 . S
C198 O177 1.281 . S
C198 O185 1.281 . S
C199 O175 1.281 . S
C199 O186 1.281 . S
H200 C206 0.930 . S
H201 C210 0.930 . S
H202 C215 0.929 . S
H203 C213 0.929 . S
H204 C208 0.929 . S
H205 C214 0.929 . S
C206 H200 0.930 . S
C206 C207 1.367 1_455 S
C206 C214 1.378 . S
C207 C206 1.367 1_655 S
C207 C215 1.433 . S
C208 H204 0.929 . S
C208 C210 1.378 . S
C208 C212 1.350 . S
C209 C212 1.463 . S
C209 C214 1.350 1_655 S
C209 N217 1.427 . S
C210 H201 0.930 . S
C210 C208 1.378 . S
C210 C211 1.367 . S
C211 C210 1.367 . S
C211 C213 1.433 1_655 S
C212 C208 1.350 . S
C212 C209 1.463 . S
C212 N216 1.427 1_655 S
C213 H203 0.929 . S
C213 C211 1.433 1_455 S
C213 N216 1.384 . S
C214 H205 0.929 . S
C214 C206 1.378 . S
C214 C209 1.350 1_455 S
C215 H202 0.929 . S
C215 C207 1.433 . S
C215 N217 1.384 . S
N216 C212 1.427 1_455 S
N216 C213 1.384 . S
N217 C209 1.427 . S
N217 C215 1.384 . S
H218 C224 0.930 . S
H219 C228 0.930 . S
H220 C233 0.929 . S
H221 C231 0.929 . S
H222 C226 0.929 . S
H223 C232 0.929 . S
C224 H218 0.930 . S
C224 C225 1.367 1_565 S
C224 C232 1.378 . S
C225 C224 1.367 1_545 S
C225 C233 1.433 . S
C226 H222 0.929 . S
C226 C228 1.378 . S
C226 C230 1.350 . S
C227 C230 1.463 . S
C227 C232 1.350 1_545 S
C227 N235 1.427 . S
C228 H219 0.930 . S
C228 C226 1.378 . S
C228 C229 1.367 . S
C229 C228 1.367 . S
C229 C231 1.433 1_545 S
C230 C226 1.350 . S
C230 C227 1.463 . S
C230 N234 1.427 1_545 S
C231 H221 0.929 . S
C231 C229 1.433 1_565 S
C231 N234 1.384 . S
C232 H223 0.929 . S
C232 C224 1.378 . S
C232 C227 1.350 1_565 S
C233 H220 0.929 . S
C233 C225 1.433 . S
C233 N235 1.384 . S
N234 C230 1.427 1_565 S
N234 C231 1.384 . S
N235 C227 1.427 . S
N235 C233 1.384 . S
H236 C242 0.930 . S
H237 C246 0.930 . S
H238 C251 0.929 . S
H239 C249 0.929 . S
H240 C244 0.929 . S
H241 C250 0.929 . S
C242 H236 0.930 . S
C242 C243 1.367 . S
C242 C250 1.378 . S
C243 C242 1.367 . S
C243 C251 1.433 . S
C244 H240 0.929 . S
C244 C246 1.378 . S
C244 C248 1.350 . S
C245 C248 1.463 . S
C245 C250 1.350 . S
C245 N253 1.427 . S
C246 H237 0.930 . S
C246 C244 1.378 . S
C246 C247 1.367 . S
C247 C246 1.367 . S
C247 C249 1.433 . S
C248 C244 1.350 . S
C248 C245 1.463 . S
C248 N252 1.427 . S
C249 H239 0.929 . S
C249 C247 1.433 . S
C249 N252 1.384 . S
C250 H241 0.929 . S
C250 C242 1.378 . S
C250 C245 1.350 . S
C251 H238 0.929 . S
C251 C243 1.433 . S
C251 N253 1.384 . S
N252 C248 1.427 . S
N252 C249 1.384 . S
N253 C245 1.427 . S
N253 C251 1.384 . S
H254 C260 0.930 . S
H255 C264 0.930 . S
H256 C269 0.929 . S
H257 C267 0.929 . S
H258 C262 0.929 . S
H259 C268 0.929 . S
C260 H254 0.930 . S
C260 C261 1.367 1_545 S
C260 C268 1.378 . S
C261 C260 1.367 1_565 S
C261 C269 1.433 . S
C262 H258 0.929 . S
C262 C264 1.378 . S
C262 C266 1.350 . S
C263 C266 1.463 . S
C263 C268 1.350 1_565 S
C263 N271 1.427 . S
C264 H255 0.930 . S
C264 C262 1.378 . S
C264 C265 1.367 . S
C265 C264 1.367 . S
C265 C267 1.433 1_565 S
C266 C262 1.350 . S
C266 C263 1.463 . S
C266 N270 1.427 1_565 S
C267 H257 0.929 . S
C267 C265 1.433 1_545 S
C267 N270 1.384 . S
C268 H259 0.929 . S
C268 C260 1.378 . S
C268 C263 1.350 1_545 S
C269 H256 0.929 . S
C269 C261 1.433 . S
C269 N271 1.384 . S
N270 C266 1.427 1_545 S
N270 C267 1.384 . S
N271 C263 1.427 . S
N271 C269 1.384 . S
H272 C278 0.930 . S
H273 C282 0.930 . S
H274 C287 0.929 . S
H275 C285 0.929 . S
H276 C280 0.929 . S
H277 C286 0.929 . S
C278 H272 0.930 . S
C278 C279 1.367 . S
C278 C286 1.378 . S
C279 C278 1.367 . S
C279 C287 1.433 1_655 S
C280 H276 0.929 . S
C280 C282 1.378 . S
C280 C284 1.350 1_455 S
C281 C284 1.463 . S
C281 C286 1.350 . S
C281 N289 1.427 1_655 S
C282 H273 0.930 . S
C282 C280 1.378 . S
C282 C283 1.367 1_455 S
C283 C282 1.367 1_655 S
C283 C285 1.433 . S
C284 C280 1.350 1_655 S
C284 C281 1.463 . S
C284 N288 1.427 . S
C285 H275 0.929 . S
C285 C283 1.433 . S
C285 N288 1.384 . S
C286 H277 0.929 . S
C286 C278 1.378 . S
C286 C281 1.350 . S
C287 H274 0.929 . S
C287 C279 1.433 1_455 S
C287 N289 1.384 . S
N288 C284 1.427 . S
N288 C285 1.384 . S
N289 C281 1.427 1_455 S
N289 C287 1.384 . S
H290 C296 0.930 . S
H291 C300 0.930 . S
H292 C305 0.929 . S
H293 C303 0.929 . S
H294 C298 0.929 . S
H295 C304 0.929 . S
C296 H290 0.930 . S
C296 C297 1.367 1_565 S
C296 C304 1.378 . S
C297 C296 1.367 1_545 S
C297 C305 1.433 . S
C298 H294 0.929 . S
C298 C300 1.378 . S
C298 C302 1.350 . S
C299 C302 1.463 . S
C299 C304 1.350 1_545 S
C299 N307 1.427 . S
C300 H291 0.930 . S
C300 C298 1.378 . S
C300 C301 1.367 . S
C301 C300 1.367 . S
C301 C303 1.433 1_545 S
C302 C298 1.350 . S
C302 C299 1.463 . S
C302 N306 1.427 1_545 S
C303 H293 0.929 . S
C303 C301 1.433 1_565 S
C303 N306 1.384 . S
C304 H295 0.929 . S
C304 C296 1.378 . S
C304 C299 1.350 1_565 S
C305 H292 0.929 . S
C305 C297 1.433 . S
C305 N307 1.384 . S
N306 C302 1.427 1_565 S
N306 C303 1.384 . S
N307 C299 1.427 . S
N307 C305 1.384 . S
H308 C314 0.930 . S
H309 C318 0.930 . S
H310 C323 0.929 . S
H311 C321 0.929 . S
H312 C316 0.929 . S
H313 C322 0.929 . S
C314 H308 0.930 . S
C314 C315 1.367 . S
C314 C322 1.378 . S
C315 C314 1.367 . S
C315 C323 1.433 . S
C316 H312 0.929 . S
C316 C318 1.378 . S
C316 C320 1.350 . S
C317 C320 1.463 . S
C317 C322 1.350 . S
C317 N325 1.427 . S
C318 H309 0.930 . S
C318 C316 1.378 . S
C318 C319 1.367 . S
C319 C318 1.367 . S
C319 C321 1.433 . S
C320 C316 1.350 . S
C320 C317 1.463 . S
C320 N324 1.427 . S
C321 H311 0.929 . S
C321 C319 1.433 . S
C321 N324 1.384 . S
C322 H313 0.929 . S
C322 C314 1.378 . S
C322 C317 1.350 . S
C323 H310 0.929 . S
C323 C315 1.433 . S
C323 N325 1.384 . S
N324 C320 1.427 . S
N324 C321 1.384 . S
N325 C317 1.427 . S
N325 C323 1.384 . S
H326 C332 0.930 . S
H327 C336 0.930 . S
H328 C341 0.929 . S
H329 C339 0.929 . S
H330 C334 0.929 . S
H331 C340 0.929 . S
C332 H326 0.930 . S
C332 C333 1.367 1_545 S
C332 C340 1.378 . S
C333 C332 1.367 1_565 S
C333 C341 1.433 . S
C334 H330 0.929 . S
C334 C336 1.378 . S
C334 C338 1.350 . S
C335 C338 1.463 . S
C335 C340 1.350 1_565 S
C335 N343 1.427 . S
C336 H327 0.930 . S
C336 C334 1.378 . S
C336 C337 1.367 . S
C337 C336 1.367 . S
C337 C339 1.433 1_565 S
C338 C334 1.350 . S
C338 C335 1.463 . S
C338 N342 1.427 1_565 S
C339 H329 0.929 . S
C339 C337 1.433 1_545 S
C339 N342 1.384 . S
C340 H331 0.929 . S
C340 C332 1.378 . S
C340 C335 1.350 1_545 S
C341 H328 0.929 . S
C341 C333 1.433 . S
C341 N343 1.384 . S
N342 C338 1.427 1_545 S
N342 C339 1.384 . S
N343 C335 1.427 . S
N343 C341 1.384 . S
H344 C350 0.930 . S
H345 C354 0.930 . S
H346 C359 0.929 . S
H347 C357 0.929 . S
H348 C352 0.929 . S
H349 C358 0.929 . S
C350 H344 0.930 . S
C350 C351 1.367 1_554 S
C350 C358 1.378 . S
C351 C350 1.367 1_556 S
C351 C359 1.433 . S
C352 H348 0.929 . S
C352 C354 1.378 . S
C352 C356 1.350 . S
C353 C356 1.463 . S
C353 C358 1.350 1_556 S
C353 N361 1.427 . S
C354 H345 0.930 . S
C354 C352 1.378 . S
C354 C355 1.367 . S
C355 C354 1.367 . S
C355 C357 1.433 1_556 S
C356 C352 1.350 . S
C356 C353 1.463 . S
C356 N360 1.427 1_556 S
C357 H347 0.929 . S
C357 C355 1.433 1_554 S
C357 N360 1.384 . S
C358 H349 0.929 . S
C358 C350 1.378 . S
C358 C353 1.350 1_554 S
C359 H346 0.929 . S
C359 C351 1.433 . S
C359 N361 1.384 . S
N360 C356 1.427 1_554 S
N360 C357 1.384 . S
N361 C353 1.427 . S
N361 C359 1.384 . S
H362 C368 0.930 . S
H363 C372 0.930 . S
H364 C377 0.929 . S
H365 C375 0.929 . S
H366 C370 0.929 . S
H367 C376 0.929 . S
C368 H362 0.930 . S
C368 C369 1.367 . S
C368 C376 1.378 . S
C369 C368 1.367 . S
C369 C377 1.433 1_554 S
C370 H366 0.929 . S
C370 C372 1.378 . S
C370 C374 1.350 1_556 S
C371 C374 1.463 . S
C371 C376 1.350 . S
C371 N379 1.427 1_554 S
C372 H363 0.930 . S
C372 C370 1.378 . S
C372 C373 1.367 1_556 S
C373 C372 1.367 1_554 S
C373 C375 1.433 . S
C374 C370 1.350 1_554 S
C374 C371 1.463 . S
C374 N378 1.427 . S
C375 H365 0.929 . S
C375 C373 1.433 . S
C375 N378 1.384 . S
C376 H367 0.929 . S
C376 C368 1.378 . S
C376 C371 1.350 . S
C377 H364 0.929 . S
C377 C369 1.433 1_556 S
C377 N379 1.384 . S
N378 C374 1.427 . S
N378 C375 1.384 . S
N379 C371 1.427 1_556 S
N379 C377 1.384 . S
H380 C386 0.930 . S
H381 C390 0.930 . S
H382 C395 0.929 . S
H383 C393 0.929 . S
H384 C388 0.929 . S
H385 C394 0.929 . S
C386 H380 0.930 . S
C386 C387 1.367 1_556 S
C386 C394 1.378 . S
C387 C386 1.367 1_554 S
C387 C395 1.433 . S
C388 H384 0.929 . S
C388 C390 1.378 . S
C388 C392 1.350 . S
C389 C392 1.463 . S
C389 C394 1.350 1_554 S
C389 N397 1.427 . S
C390 H381 0.930 . S
C390 C388 1.378 . S
C390 C391 1.367 . S
C391 C390 1.367 . S
C391 C393 1.433 1_554 S
C392 C388 1.350 . S
C392 C389 1.463 . S
C392 N396 1.427 1_554 S
C393 H383 0.929 . S
C393 C391 1.433 1_556 S
C393 N396 1.384 . S
C394 H385 0.929 . S
C394 C386 1.378 . S
C394 C389 1.350 1_556 S
C395 H382 0.929 . S
C395 C387 1.433 . S
C395 N397 1.384 . S
N396 C392 1.427 1_556 S
N396 C393 1.384 . S
N397 C389 1.427 . S
N397 C395 1.384 . S
H398 C404 0.930 . S
H399 C408 0.930 . S
H400 C413 0.929 . S
H401 C411 0.929 . S
H402 C406 0.929 . S
H403 C412 0.929 . S
C404 H398 0.930 . S
C404 C405 1.367 1_554 S
C404 C412 1.378 . S
C405 C404 1.367 1_556 S
C405 C413 1.433 . S
C406 H402 0.929 . S
C406 C408 1.378 . S
C406 C410 1.350 . S
C407 C410 1.463 . S
C407 C412 1.350 1_556 S
C407 N415 1.427 . S
C408 H399 0.930 . S
C408 C406 1.378 . S
C408 C409 1.367 . S
C409 C408 1.367 . S
C409 C411 1.433 1_556 S
C410 C406 1.350 . S
C410 C407 1.463 . S
C410 N414 1.427 1_556 S
C411 H401 0.929 . S
C411 C409 1.433 1_554 S
C411 N414 1.384 . S
C412 H403 0.929 . S
C412 C404 1.378 . S
C412 C407 1.350 1_554 S
C413 H400 0.929 . S
C413 C405 1.433 . S
C413 N415 1.384 . S
N414 C410 1.427 1_554 S
N414 C411 1.384 . S
N415 C407 1.427 . S
N415 C413 1.384 . S
H416 C422 0.930 . S
H417 C426 0.930 . S
H418 C431 0.929 . S
H419 C429 0.929 . S
H420 C424 0.929 . S
H421 C430 0.929 . S
C422 H416 0.930 . S
C422 C423 1.367 . S
C422 C430 1.378 . S
C423 C422 1.367 . S
C423 C431 1.433 . S
C424 H420 0.929 . S
C424 C426 1.378 . S
C424 C428 1.350 . S
C425 C428 1.463 . S
C425 C430 1.350 . S
C425 N433 1.427 . S
C426 H417 0.930 . S
C426 C424 1.378 . S
C426 C427 1.367 . S
C427 C426 1.367 . S
C427 C429 1.433 . S
C428 C424 1.350 . S
C428 C425 1.463 . S
C428 N432 1.427 . S
C429 H419 0.929 . S
C429 C427 1.433 . S
C429 N432 1.384 . S
C430 H421 0.929 . S
C430 C422 1.378 . S
C430 C425 1.350 . S
C431 H418 0.929 . S
C431 C423 1.433 . S
C431 N433 1.384 . S
N432 C428 1.427 . S
N432 C429 1.384 . S
N433 C425 1.427 . S
N433 C431 1.384 . S
H434 C440 0.930 . S
H435 C444 0.930 . S
H436 C449 0.929 . S
H437 C447 0.929 . S
H438 C442 0.929 . S
H439 C448 0.929 . S
C440 H434 0.930 . S
C440 C441 1.367 . S
C440 C448 1.378 . S
C441 C440 1.367 . S
C441 C449 1.433 . S
C442 H438 0.929 . S
C442 C444 1.378 . S
C442 C446 1.350 . S
C443 C446 1.463 . S
C443 C448 1.350 . S
C443 N451 1.427 . S
C444 H435 0.930 . S
C444 C442 1.378 . S
C444 C445 1.367 . S
C445 C444 1.367 . S
C445 C447 1.433 . S
C446 C442 1.350 . S
C446 C443 1.463 . S
C446 N450 1.427 . S
C447 H437 0.929 . S
C447 C445 1.433 . S
C447 N450 1.384 . S
C448 H439 0.929 . S
C448 C440 1.378 . S
C448 C443 1.350 . S
C449 H436 0.929 . S
C449 C441 1.433 . S
C449 N451 1.384 . S
N450 C446 1.427 . S
N450 C447 1.384 . S
N451 C443 1.427 . S
N451 C449 1.384 . S
H452 C458 0.930 . S
H453 C462 0.930 . S
H454 C467 0.929 . S
H455 C465 0.929 . S
H456 C460 0.929 . S
H457 C466 0.929 . S
C458 H452 0.930 . S
C458 C459 1.367 . S
C458 C466 1.378 . S
C459 C458 1.367 . S
C459 C467 1.433 . S
C460 H456 0.929 . S
C460 C462 1.378 . S
C460 C464 1.350 . S
C461 C464 1.463 . S
C461 C466 1.350 . S
C461 N469 1.427 . S
C462 H453 0.930 . S
C462 C460 1.378 . S
C462 C463 1.367 . S
C463 C462 1.367 . S
C463 C465 1.433 . S
C464 C460 1.350 . S
C464 C461 1.463 . S
C464 N468 1.427 . S
C465 H455 0.929 . S
C465 C463 1.433 . S
C465 N468 1.384 . S
C466 H457 0.929 . S
C466 C458 1.378 . S
C466 C461 1.350 . S
C467 H454 0.929 . S
C467 C459 1.433 . S
C467 N469 1.384 . S
N468 C464 1.427 . S
N468 C465 1.384 . S
N469 C461 1.427 . S
N469 C467 1.384 . S
H470 C476 0.930 . S
H471 C480 0.930 . S
H472 C485 0.929 . S
H473 C483 0.929 . S
H474 C478 0.929 . S
H475 C484 0.929 . S
C476 H470 0.930 . S
C476 C477 1.367 . S
C476 C484 1.378 . S
C477 C476 1.367 . S
C477 C485 1.433 . S
C478 H474 0.929 . S
C478 C480 1.378 . S
C478 C482 1.350 . S
C479 C482 1.463 . S
C479 C484 1.350 . S
C479 N487 1.427 . S
C480 H471 0.930 . S
C480 C478 1.378 . S
C480 C481 1.367 . S
C481 C480 1.367 . S
C481 C483 1.433 . S
C482 C478 1.350 . S
C482 C479 1.463 . S
C482 N486 1.427 . S
C483 H473 0.929 . S
C483 C481 1.433 . S
C483 N486 1.384 . S
C484 H475 0.929 . S
C484 C476 1.378 . S
C484 C479 1.350 . S
C485 H472 0.929 . S
C485 C477 1.433 . S
C485 N487 1.384 . S
N486 C482 1.427 . S
N486 C483 1.384 . S
N487 C479 1.427 . S
N487 C485 1.384 . S
H488 C494 0.930 . S
H489 C498 0.930 . S
H490 C503 0.929 . S
H491 C501 0.929 . S
H492 C496 0.929 . S
H493 C502 0.929 . S
C494 H488 0.930 . S
C494 C495 1.367 . S
C494 C502 1.378 . S
C495 C494 1.367 . S
C495 C503 1.433 . S
C496 H492 0.929 . S
C496 C498 1.378 . S
C496 C500 1.350 . S
C497 C500 1.463 . S
C497 C502 1.350 . S
C497 N505 1.427 . S
C498 H489 0.930 . S
C498 C496 1.378 . S
C498 C499 1.367 . S
C499 C498 1.367 . S
C499 C501 1.433 . S
C500 C496 1.350 . S
C500 C497 1.463 . S
C500 N504 1.427 . S
C501 H491 0.929 . S
C501 C499 1.433 . S
C501 N504 1.384 . S
C502 H493 0.929 . S
C502 C494 1.378 . S
C502 C497 1.350 . S
C503 H490 0.929 . S
C503 C495 1.433 . S
C503 N505 1.384 . S
N504 C500 1.427 . S
N504 C501 1.384 . S
N505 C497 1.427 . S
N505 C503 1.384 . S
H506 C512 0.930 . S
H507 C516 0.930 . S
H508 C521 0.929 . S
H509 C519 0.929 . S
H510 C514 0.929 . S
H511 C520 0.929 . S
C512 H506 0.930 . S
C512 C513 1.367 . S
C512 C520 1.378 . S
C513 C512 1.367 . S
C513 C521 1.433 . S
C514 H510 0.929 . S
C514 C516 1.378 . S
C514 C518 1.350 . S
C515 C518 1.463 . S
C515 C520 1.350 . S
C515 N523 1.427 . S
C516 H507 0.930 . S
C516 C514 1.378 . S
C516 C517 1.367 . S
C517 C516 1.367 . S
C517 C519 1.433 . S
C518 C514 1.350 . S
C518 C515 1.463 . S
C518 N522 1.427 . S
C519 H509 0.929 . S
C519 C517 1.433 . S
C519 N522 1.384 . S
C520 H511 0.929 . S
C520 C512 1.378 . S
C520 C515 1.350 . S
C521 H508 0.929 . S
C521 C513 1.433 . S
C521 N523 1.384 . S
N522 C518 1.427 . S
N522 C519 1.384 . S
N523 C515 1.427 . S
N523 C521 1.384 . S
H524 C530 0.930 . S
H525 C534 0.930 . S
H526 C539 0.929 . S
H527 C537 0.929 . S
H528 C532 0.929 . S
H529 C538 0.929 . S
C530 H524 0.930 . S
C530 C531 1.367 . S
C530 C538 1.378 . S
C531 C530 1.367 . S
C531 C539 1.433 . S
C532 H528 0.929 . S
C532 C534 1.378 . S
C532 C536 1.350 . S
C533 C536 1.463 . S
C533 C538 1.350 . S
C533 N541 1.427 . S
C534 H525 0.930 . S
C534 C532 1.378 . S
C534 C535 1.367 . S
C535 C534 1.367 . S
C535 C537 1.433 . S
C536 C532 1.350 . S
C536 C533 1.463 . S
C536 N540 1.427 . S
C537 H527 0.929 . S
C537 C535 1.433 . S
C537 N540 1.384 . S
C538 H529 0.929 . S
C538 C530 1.378 . S
C538 C533 1.350 . S
C539 H526 0.929 . S
C539 C531 1.433 . S
C539 N541 1.384 . S
N540 C536 1.427 . S
N540 C537 1.384 . S
N541 C533 1.427 . S
N541 C539 1.384 . S
H542 C548 0.930 . S
H543 C552 0.930 . S
H544 C557 0.929 . S
H545 C555 0.929 . S
H546 C550 0.929 . S
H547 C556 0.929 . S
C548 H542 0.930 . S
C548 C549 1.367 . S
C548 C556 1.378 . S
C549 C548 1.367 . S
C549 C557 1.433 . S
C550 H546 0.929 . S
C550 C552 1.378 . S
C550 C554 1.350 . S
C551 C554 1.463 . S
C551 C556 1.350 . S
C551 N559 1.427 . S
C552 H543 0.930 . S
C552 C550 1.378 . S
C552 C553 1.367 . S
C553 C552 1.367 . S
C553 C555 1.433 . S
C554 C550 1.350 . S
C554 C551 1.463 . S
C554 N558 1.427 . S
C555 H545 0.929 . S
C555 C553 1.433 . S
C555 N558 1.384 . S
C556 H547 0.929 . S
C556 C548 1.378 . S
C556 C551 1.350 . S
C557 H544 0.929 . S
C557 C549 1.433 . S
C557 N559 1.384 . S
N558 C554 1.427 . S
N558 C555 1.384 . S
N559 C551 1.427 . S
N559 C557 1.384 . S
H560 C566 0.930 . S
H561 C570 0.930 . S
H562 C575 0.929 . S
H563 C573 0.929 . S
H564 C568 0.929 . S
H565 C574 0.929 . S
C566 H560 0.930 . S
C566 C567 1.367 . S
C566 C574 1.378 . S
C567 C566 1.367 . S
C567 C575 1.433 . S
C568 H564 0.929 . S
C568 C570 1.378 . S
C568 C572 1.350 . S
C569 C572 1.463 . S
C569 C574 1.350 . S
C569 N577 1.427 . S
C570 H561 0.930 . S
C570 C568 1.378 . S
C570 C571 1.367 . S
C571 C570 1.367 . S
C571 C573 1.433 . S
C572 C568 1.350 . S
C572 C569 1.463 . S
C572 N576 1.427 . S
C573 H563 0.929 . S
C573 C571 1.433 . S
C573 N576 1.384 . S
C574 H565 0.929 . S
C574 C566 1.378 . S
C574 C569 1.350 . S
C575 H562 0.929 . S
C575 C567 1.433 . S
C575 N577 1.384 . S
N576 C572 1.427 . S
N576 C573 1.384 . S
N577 C569 1.427 . S
N577 C575 1.384 . S
H578 C584 0.930 . S
H579 C588 0.930 . S
H580 C593 0.929 . S
H581 C591 0.929 . S
H582 C586 0.929 . S
H583 C592 0.929 . S
C584 H578 0.930 . S
C584 C585 1.367 . S
C584 C592 1.378 . S
C585 C584 1.367 . S
C585 C593 1.433 . S
C586 H582 0.929 . S
C586 C588 1.378 . S
C586 C590 1.350 . S
C587 C590 1.463 . S
C587 C592 1.350 . S
C587 N595 1.427 . S
C588 H579 0.930 . S
C588 C586 1.378 . S
C588 C589 1.367 . S
C589 C588 1.367 . S
C589 C591 1.433 . S
C590 C586 1.350 . S
C590 C587 1.463 . S
C590 N594 1.427 . S
C591 H581 0.929 . S
C591 C589 1.433 . S
C591 N594 1.384 . S
C592 H583 0.929 . S
C592 C584 1.378 . S
C592 C587 1.350 . S
C593 H580 0.929 . S
C593 C585 1.433 . S
C593 N595 1.384 . S
N594 C590 1.427 . S
N594 C591 1.384 . S
N595 C587 1.427 . S
N595 C593 1.384 . S
H596 C602 0.930 . S
H597 C606 0.930 . S
H598 C611 0.929 . S
H599 C609 0.929 . S
H600 C604 0.929 . S
H601 C610 0.929 . S
C602 H596 0.930 . S
C602 C603 1.367 . S
C602 C610 1.378 . S
C603 C602 1.367 . S
C603 C611 1.433 . S
C604 H600 0.929 . S
C604 C606 1.378 . S
C604 C608 1.350 . S
C605 C608 1.463 . S
C605 C610 1.350 . S
C605 N613 1.427 . S
C606 H597 0.930 . S
C606 C604 1.378 . S
C606 C607 1.367 . S
C607 C606 1.367 . S
C607 C609 1.433 . S
C608 C604 1.350 . S
C608 C605 1.463 . S
C608 N612 1.427 . S
C609 H599 0.929 . S
C609 C607 1.433 . S
C609 N612 1.384 . S
C610 H601 0.929 . S
C610 C602 1.378 . S
C610 C605 1.350 . S
C611 H598 0.929 . S
C611 C603 1.433 . S
C611 N613 1.384 . S
N612 C608 1.427 . S
N612 C609 1.384 . S
N613 C605 1.427 . S
N613 C611 1.384 . S
H614 C620 0.930 . S
H615 C624 0.930 . S
H616 C629 0.929 . S
H617 C627 0.929 . S
H618 C622 0.929 . S
H619 C628 0.929 . S
C620 H614 0.930 . S
C620 C621 1.367 . S
C620 C628 1.378 . S
C621 C620 1.367 . S
C621 C629 1.433 . S
C622 H618 0.929 . S
C622 C624 1.378 . S
C622 C626 1.350 . S
C623 C626 1.463 . S
C623 C628 1.350 . S
C623 N631 1.427 . S
C624 H615 0.930 . S
C624 C622 1.378 . S
C624 C625 1.367 . S
C625 C624 1.367 . S
C625 C627 1.433 . S
C626 C622 1.350 . S
C626 C623 1.463 . S
C626 N630 1.427 . S
C627 H617 0.929 . S
C627 C625 1.433 . S
C627 N630 1.384 . S
C628 H619 0.929 . S
C628 C620 1.378 . S
C628 C623 1.350 . S
C629 H616 0.929 . S
C629 C621 1.433 . S
C629 N631 1.384 . S
N630 C626 1.427 . S
N630 C627 1.384 . S
N631 C623 1.427 . S
N631 C629 1.384 . S
C207 C0 1.496 . S
C211 C91 1.493 . S
C225 C22 1.495 . S
C229 C131 1.497 . S
C243 C49 1.496 . S
C247 C98 1.496 . S
C261 C134 1.495 . S
C265 C19 1.493 . S
C279 C41 1.497 . S
C283 C50 1.499 . S
C297 C31 1.495 . S
C301 C122 1.497 . S
C315 C99 1.496 . S
C319 C48 1.496 . S
C333 C119 1.496 . S
C337 C34 1.500 . S
C351 C166 1.495 . S
C355 C17 1.493 . S
C369 C151 1.497 . S
C373 C18 1.495 . S
C387 C168 1.495 . S
C391 C1 1.497 . S
C405 C16 1.495 . S
C409 C167 1.501 . S
C423 C181 1.496 . S
C427 C72 1.499 . S
C441 C69 1.497 . S
C445 C184 1.495 . S
C459 C81 1.496 . S
C463 C172 1.492 . S
C477 C169 1.497 . S
C481 C84 1.496 . S
C495 C116 1.497 . S
C499 C67 1.495 . S
C513 C68 1.496 . S
C517 C101 1.492 . S
C531 C51 1.497 . S
C535 C118 1.499 . S
C549 C117 1.495 . S
C553 C66 1.497 . S
C567 C191 1.497 . S
C571 C100 1.495 . S
C585 C149 1.496 . S
C589 C198 1.500 . S
C603 C150 1.496 . S
C607 C141 1.496 . S
C621 C148 1.497 . S
C625 C199 1.491 . S
