# Generated by pormake.
# Topology wkf, (6)-cn, num edge types: 1
# Building blocks:
#     Node 0, Type 0, BuildingBlock: KUMBUR_clean_sbu_0, # of connection points: 6
#     Node 1, Type 0, BuildingBlock: KUMBUR_clean_sbu_0, # of connection points: 6
#     Node 2, Type 0, BuildingBlock: KUMBUR_clean_sbu_0, # of connection points: 6
#     Node 3, Type 0, BuildingBlock: KUMBUR_clean_sbu_0, # of connection points: 6
#     Node 4, Type 0, BuildingBlock: KUMBUR_clean_sbu_0, # of connection points: 6
#     Node 5, Type 0, BuildingBlock: KUMBUR_clean_sbu_0, # of connection points: 6
#     Node 6, Type 0, BuildingBlock: KUMBUR_clean_sbu_0, # of connection points: 6
#     Node 7, Type 0, BuildingBlock: KUMBUR_clean_sbu_0, # of connection points: 6
#     Node 8, Type 0, BuildingBlock: KUMBUR_clean_sbu_0, # of connection points: 6
#     Node 9, Type 0, BuildingBlock: KUMBUR_clean_sbu_0, # of connection points: 6
#     Node 10, Type 0, BuildingBlock: KUMBUR_clean_sbu_0, # of connection points: 6
#     Node 11, Type 0, BuildingBlock: KUMBUR_clean_sbu_0, # of connection points: 6
#     Edge 12, Type (0, 0), BuildingBlock: ZUJKAS_clean_linker_0, # of connection points: 2
#     Edge 13, Type (0, 0), BuildingBlock: ZUJKAS_clean_linker_0, # of connection points: 2
#     Edge 14, Type (0, 0), BuildingBlock: ZUJKAS_clean_linker_0, # of connection points: 2
#     Edge 15, Type (0, 0), BuildingBlock: ZUJKAS_clean_linker_0, # of connection points: 2
#     Edge 16, Type (0, 0), BuildingBlock: ZUJKAS_clean_linker_0, # of connection points: 2
#     Edge 17, Type (0, 0), BuildingBlock: ZUJKAS_clean_linker_0, # of connection points: 2
#     Edge 18, Type (0, 0), BuildingBlock: ZUJKAS_clean_linker_0, # of connection points: 2
#     Edge 19, Type (0, 0), BuildingBlock: ZUJKAS_clean_linker_0, # of connection points: 2
#     Edge 20, Type (0, 0), BuildingBlock: ZUJKAS_clean_linker_0, # of connection points: 2
#     Edge 21, Type (0, 0), BuildingBlock: ZUJKAS_clean_linker_0, # of connection points: 2
#     Edge 22, Type (0, 0), BuildingBlock: ZUJKAS_clean_linker_0, # of connection points: 2
#     Edge 23, Type (0, 0), BuildingBlock: ZUJKAS_clean_linker_0, # of connection points: 2
#     Edge 24, Type (0, 0), BuildingBlock: ZUJKAS_clean_linker_0, # of connection points: 2
#     Edge 25, Type (0, 0), BuildingBlock: ZUJKAS_clean_linker_0, # of connection points: 2
#     Edge 26, Type (0, 0), BuildingBlock: ZUJKAS_clean_linker_0, # of connection points: 2
#     Edge 27, Type (0, 0), BuildingBlock: ZUJKAS_clean_linker_0, # of connection points: 2
#     Edge 28, Type (0, 0), BuildingBlock: ZUJKAS_clean_linker_0, # of connection points: 2
#     Edge 29, Type (0, 0), BuildingBlock: ZUJKAS_clean_linker_0, # of connection points: 2
#     Edge 30, Type (0, 0), BuildingBlock: ZUJKAS_clean_linker_0, # of connection points: 2
#     Edge 31, Type (0, 0), BuildingBlock: ZUJKAS_clean_linker_0, # of connection points: 2
#     Edge 32, Type (0, 0), BuildingBlock: ZUJKAS_clean_linker_0, # of connection points: 2
#     Edge 33, Type (0, 0), BuildingBlock: ZUJKAS_clean_linker_0, # of connection points: 2
#     Edge 34, Type (0, 0), BuildingBlock: ZUJKAS_clean_linker_0, # of connection points: 2
#     Edge 35, Type (0, 0), BuildingBlock: ZUJKAS_clean_linker_0, # of connection points: 2
#     Edge 36, Type (0, 0), BuildingBlock: ZUJKAS_clean_linker_0, # of connection points: 2
#     Edge 37, Type (0, 0), BuildingBlock: ZUJKAS_clean_linker_0, # of connection points: 2
#     Edge 38, Type (0, 0), BuildingBlock: ZUJKAS_clean_linker_0, # of connection points: 2
#     Edge 39, Type (0, 0), BuildingBlock: ZUJKAS_clean_linker_0, # of connection points: 2
#     Edge 40, Type (0, 0), BuildingBlock: ZUJKAS_clean_linker_0, # of connection points: 2
#     Edge 41, Type (0, 0), BuildingBlock: ZUJKAS_clean_linker_0, # of connection points: 2
#     Edge 42, Type (0, 0), BuildingBlock: ZUJKAS_clean_linker_0, # of connection points: 2
#     Edge 43, Type (0, 0), BuildingBlock: ZUJKAS_clean_linker_0, # of connection points: 2
#     Edge 44, Type (0, 0), BuildingBlock: ZUJKAS_clean_linker_0, # of connection points: 2
#     Edge 45, Type (0, 0), BuildingBlock: ZUJKAS_clean_linker_0, # of connection points: 2
#     Edge 46, Type (0, 0), BuildingBlock: ZUJKAS_clean_linker_0, # of connection points: 2
#     Edge 47, Type (0, 0), BuildingBlock: ZUJKAS_clean_linker_0, # of connection points: 2
# Relax obj value: 0.129
# Max RMSD: 0.266
# Mean RMSD: 0.261
data_MOF--net-wkf--node1-KUMBUR_clean_sbu_0--edge1-ZUJKAS_clean_linker_0
_symmetry_space_group_name_H-M    P1
_symmetry_Int_Tables_number       1
_symmetry_cell_setting            triclinic
loop_
_symmetry_equiv_pos_as_xyz
'x, y, z'
_cell_length_a     38.922552
_cell_length_b     38.908001
_cell_length_c     99.560231
_cell_angle_alpha  89.978996
_cell_angle_beta   89.879734
_cell_angle_gamma 119.65387
loop_
_atom_site_label
_atom_site_type_symbol
_atom_site_fract_x
_atom_site_fract_y
_atom_site_fract_z
_atom_type_partial_charge
Tb0 Tb 0.50182 0.99856 0.36442 0.0
C1 C 0.41832 0.03099 0.32086 0.0
C2 C 0.36394 0.03709 0.33016 0.0
C3 C 0.39518 0.07055 0.30924 0.0
C4 C 0.38985 1.02163 0.33078 0.0
C5 C 0.42151 0.05573 0.31005 0.0
C6 C 0.36655 0.06134 0.31929 0.0
C7 C 0.47734 0.05026 0.30194 0.0
N8 N 0.44461 1.01757 0.32234 0.0
C9 C 0.47324 0.02592 0.31289 0.0
C10 C 0.45146 0.06528 0.30053 0.0
Tb11 Tb 0.4309 0.97415 0.33969 0.0
N12 N 0.38843 0.99837 0.34123 0.0
C13 C 0.36161 0.98923 0.35136 0.0
C14 C 0.33652 0.02806 0.34057 0.0
C15 C 0.33544 1.00412 0.35123 0.0
H16 H 0.49288 1.01389 0.31381 0.0
H17 H 0.31426 0.99689 0.35929 0.0
H18 H 0.34679 0.0734 0.31861 0.0
H19 H 0.5003 0.05725 0.29455 0.0
H20 H 0.35994 0.97001 0.35946 0.0
H21 H 0.5897 0.05606 0.31865 0.0
H22 H 0.31614 0.03946 0.3405 0.0
H23 H 0.49062 0.92432 0.38433 0.0
H24 H 0.53548 0.04241 0.33376 0.0
H25 H 0.52275 0.88466 0.38789 0.0
H26 H 0.39705 0.08958 0.30099 0.0
H27 H 0.63231 0.02684 0.32295 0.0
H28 H 0.64587 0.98096 0.33664 0.0
H29 H 0.45489 0.08422 0.29206 0.0
H30 H 0.62674 0.93322 0.35519 0.0
N31 N 0.5486 1.00955 0.34798 0.0
C32 C 0.55467 0.03143 0.33654 0.0
C33 C 0.60904 1.0218 0.33001 0.0
C34 C 0.60116 0.9971 0.34112 0.0
C35 C 0.58516 0.03842 0.32759 0.0
C36 C 0.57033 0.99137 0.34998 0.0
H37 H 0.57991 0.89593 0.3739 0.0
N38 N 0.52731 0.957 0.36777 0.0
C39 C 0.53319 0.90672 0.38 0.0
C40 C 0.55915 0.96401 0.36021 0.0
C41 C 0.51456 0.92903 0.37775 0.0
C42 C 0.56558 0.91335 0.37216 0.0
C43 C 0.57896 0.94222 0.36212 0.0
O44 O 0.51655 0.99903 0.3847 0.0
O45 O 0.45462 1.00826 0.35812 0.0
O46 O 0.4688 0.04207 0.33932 0.0
O47 O 0.51755 0.05902 0.35537 0.0
O48 O 0.45829 0.99977 0.37791 0.0
O49 O 0.55047 0.04992 0.37222 0.0
O50 O 0.41618 0.93671 0.32288 0.0
O51 O 0.46878 0.9542 0.34946 0.0
O52 O 0.45026 0.94191 0.37126 0.0
O53 O 0.3989 0.93453 0.35715 0.0
O54 O 0.47055 0.95534 0.32941 0.0
O55 O 0.37014 0.9328 0.3356 0.0
C56 C 0.43896 1.00847 0.36943 0.0
C57 C 0.54136 0.06162 0.39489 0.0
C58 C 0.57275 0.12433 0.40688 0.0
C59 C 0.57428 0.09896 0.39717 0.0
C60 C 0.53793 0.11216 0.41431 0.0
C61 C 0.50689 0.04956 0.40263 0.0
C62 C 0.50518 0.07491 0.41218 0.0
C63 C 0.50022 0.07022 0.34593 0.0
C64 C 0.54369 0.03599 0.38443 0.0
C65 C 0.61094 0.94935 0.35379 0.0
C66 C 0.62195 0.97666 0.34327 0.0
C67 C 0.48188 0.9431 0.33963 0.0
C68 C 0.35498 0.91725 0.31187 0.0
C69 C 0.32002 0.8819 0.30791 0.0
C70 C 0.30122 0.88028 0.29539 0.0
C71 C 0.31705 0.9142 0.28729 0.0
C72 C 0.37085 0.94897 0.30275 0.0
C73 C 0.35166 0.94801 0.29089 0.0
C74 C 0.41192 0.92397 0.36798 0.0
C75 C 0.37803 0.92028 0.32446 0.0
H76 H 0.60104 0.1084 0.39133 0.0
H77 H 0.53633 0.13122 0.42192 0.0
H78 H 0.48127 1.02058 0.40142 0.0
H79 H 0.47849 0.06555 0.41801 0.0
H80 H 0.30823 0.85591 0.31426 0.0
H81 H 0.30344 0.91392 0.27777 0.0
H82 H 0.39925 0.97414 0.30435 0.0
H83 H 0.36454 0.97327 0.28419 0.0
Tb84 Tb 0.52694 0.48824 0.52992 0.0
C85 C 0.41772 0.40429 0.4845 0.0
C86 C 0.35249 0.35753 0.49305 0.0
C87 C 0.35993 0.38427 0.47045 0.0
C88 C 0.39375 0.37973 0.49472 0.0
C89 C 0.40095 0.40749 0.47238 0.0
C90 C 0.33576 0.35939 0.48076 0.0
C91 C 0.46586 0.45913 0.46559 0.0
N92 N 0.45702 0.42795 0.4871 0.0
C93 C 0.48116 0.45531 0.47786 0.0
C94 C 0.42569 0.43496 0.4628 0.0
Tb95 Tb 0.47804 0.41366 0.5067 0.0
N96 N 0.4109 0.37954 0.50659 0.0
C97 C 0.38867 0.35679 0.51706 0.0
C98 C 0.32932 0.33475 0.50386 0.0
C99 C 0.3475 0.33445 0.51593 0.0
H100 H 0.51217 0.47442 0.47983 0.0
H101 H 0.32991 0.31641 0.52426 0.0
H102 H 0.3041 0.34233 0.47923 0.0
H103 H 0.48508 0.48082 0.4583 0.0
H104 H 0.40283 0.35449 0.52605 0.0
H105 H 0.55355 0.569 0.48269 0.0
H106 H 0.29746 0.31728 0.50299 0.0
H107 H 0.59034 0.47782 0.54976 0.0
H108 H 0.51393 0.51795 0.49886 0.0
H109 H 0.66198 0.50894 0.55261 0.0
H110 H 0.34648 0.3861 0.46116 0.0
H111 H 0.62558 0.61023 0.48593 0.0
H112 H 0.68574 0.62386 0.49904 0.0
H113 H 0.41396 0.43834 0.45334 0.0
H114 H 0.71541 0.60631 0.5177 0.0
N115 N 0.56098 0.53174 0.51259 0.0
C116 C 0.54436 0.53665 0.50116 0.0
C117 C 0.60787 0.58841 0.49345 0.0
C118 C 0.62539 0.58155 0.50458 0.0
C119 C 0.56725 0.56531 0.49161 0.0
C120 C 0.60095 0.55259 0.51405 0.0
H121 H 0.70691 0.56289 0.53743 0.0
N122 N 0.59347 0.51197 0.53256 0.0
C123 C 0.64999 0.51843 0.54454 0.0
C124 C 0.61772 0.54231 0.52439 0.0
C125 C 0.60911 0.50034 0.54271 0.0
C126 C 0.67522 0.54907 0.53604 0.0
C127 C 0.65924 0.56134 0.52578 0.0
O128 O 0.53091 0.49759 0.55064 0.0
O129 O 0.46929 0.44126 0.52459 0.0
O130 O 0.44797 0.45161 0.50543 0.0
O131 O 0.48104 0.50269 0.52071 0.0
O132 O 0.48304 0.44898 0.5444 0.0
O133 O 0.53858 0.5442 0.53724 0.0
O134 O 0.48775 0.38389 0.49056 0.0
O135 O 0.53674 0.45263 0.51548 0.0
O136 O 0.53416 0.43758 0.53675 0.0
O137 O 0.48441 0.38438 0.525 0.0
O138 O 0.53634 0.44601 0.49573 0.0
O139 O 0.45817 0.35255 0.5085 0.0
C140 C 0.45462 0.4282 0.53629 0.0
C141 C 0.57254 0.56268 0.55833 0.0
C142 C 0.60592 0.62678 0.56956 0.0
C143 C 0.5782 0.60092 0.56016 0.0
C144 C 0.62951 0.61478 0.57657 0.0
C145 C 0.59493 0.55062 0.56609 0.0
C146 C 0.62397 0.57689 0.57482 0.0
C147 C 0.452 0.48432 0.51148 0.0
C148 C 0.53992 0.53435 0.54967 0.0
C149 C 0.68351 0.59136 0.51676 0.0
C150 C 0.66662 0.60143 0.50617 0.0
C151 C 0.56048 0.46199 0.50556 0.0
C152 C 0.4393 0.31543 0.48783 0.0
C153 C 0.4512 0.30151 0.47646 0.0
C154 C 0.42273 0.26932 0.46866 0.0
C155 C 0.38274 0.25185 0.4723 0.0
C156 C 0.39905 0.29561 0.49136 0.0
C157 C 0.37111 0.26472 0.48357 0.0
C158 C 0.511 0.39871 0.53486 0.0
C159 C 0.4686 0.34928 0.49628 0.0
H160 H 0.55942 0.60964 0.55485 0.0
H161 H 0.65153 0.63438 0.58369 0.0
H162 H 0.58937 0.52059 0.56581 0.0
H163 H 0.64133 0.56739 0.58059 0.0
H164 H 0.48218 0.31542 0.47374 0.0
H165 H 0.3604 0.22734 0.46655 0.0
H166 H 0.38886 0.3035 0.50027 0.0
H167 H 0.34021 0.25026 0.48641 0.0
Tb168 Tb 0.05836 0.51902 0.69536 0.0
C169 C 1.03414 0.40271 0.65292 0.0
C170 C 1.01712 0.33949 0.66303 0.0
C171 C 0.99539 0.34209 0.64033 0.0
C172 C 1.03575 0.38101 0.66371 0.0
C173 C 1.01347 0.38349 0.64119 0.0
C174 C 0.99718 0.32014 0.65123 0.0
C175 C 1.0282 0.44734 0.63244 0.0
N176 N 0.05015 0.44254 0.65451 0.0
C177 C 0.04813 0.46509 0.64435 0.0
C178 C 1.01081 0.40641 0.63084 0.0
Tb179 Tb 0.08701 0.46796 0.67359 0.0
N180 N 0.05478 0.4008 0.67502 0.0
C181 C 0.05815 0.38098 0.68577 0.0
C182 C 1.01908 0.31879 0.67424 0.0
C183 C 0.0398 0.33965 0.68565 0.0
H184 H 0.06196 0.49677 0.6453 0.0
H185 H 0.04215 0.32398 0.69427 0.0
H186 H 0.98276 0.28822 0.65048 0.0
H187 H 1.02643 0.4653 0.62446 0.0
H188 H 0.07572 0.39714 0.69434 0.0
H189 H 1.0079 0.53842 0.64603 0.0
H190 H 1.00509 0.28682 0.67415 0.0
H191 H 0.13388 0.58772 0.71303 0.0
H192 H 1.02418 0.50356 0.66278 0.0
H193 H 0.16907 0.65964 0.71541 0.0
H194 H 0.97945 0.32672 0.63137 0.0
H195 H 1.02846 0.6089 0.64928 0.0
H196 H 0.06853 0.67094 0.66245 0.0
H197 H 0.99519 0.3928 0.62164 0.0
H198 H 0.11461 0.70458 0.68104 0.0
N199 N 0.04737 0.55027 0.67715 0.0
C200 C 1.03034 0.53273 0.66518 0.0
C201 C 1.03402 0.5929 0.6571 0.0
C202 C 0.05585 0.61224 0.66849 0.0
C203 C 1.02224 0.55315 0.65527 0.0
C204 C 0.06239 0.58994 0.67835 0.0
H205 H 0.15336 0.70075 0.7005 0.0
N206 N 0.09746 0.58665 0.69678 0.0
C207 C 0.14644 0.64579 0.70781 0.0
C208 C 0.08866 0.60888 0.68856 0.0
C209 C 0.12621 0.60467 0.70635 0.0
C210 C 0.13737 0.66886 0.69944 0.0
C211 C 0.10851 0.65055 0.68955 0.0
O212 O 0.06919 0.52922 0.71589 0.0
O213 O 0.06173 0.46551 0.69338 0.0
O214 O 1.01912 0.43919 0.67214 0.0
O215 O 0.99955 0.47675 0.68506 0.0
O216 O 1.01357 0.46184 0.70305 0.0
O217 O 1.02182 0.53409 0.70677 0.0
O218 O 0.12703 0.47858 0.65745 0.0
O219 O 0.10458 0.52701 0.68176 0.0
O220 O 0.11291 0.52194 0.70418 0.0
O221 O 0.12139 0.47507 0.69224 0.0
O222 O 0.11288 0.52601 0.66224 0.0
O223 O 0.12943 0.44937 0.67525 0.0
C224 C 1.02993 0.44146 0.69962 0.0
C225 C 1.01167 0.50698 0.7289 0.0
C226 C 0.94886 0.47853 0.74095 0.0
C227 C 0.97431 0.50338 0.73083 0.0
C228 C 0.96119 0.45739 0.74919 0.0
C229 C 1.02359 0.48582 0.7374 0.0
C230 C 0.99839 0.46111 0.74741 0.0
C231 C 0.99015 0.44516 0.67706 0.0
C232 C 0.03805 0.53245 0.71804 0.0
C233 C 0.09993 0.67262 0.68037 0.0
C234 C 0.07359 0.65346 0.66984 0.0
C235 C 0.11955 0.5506 0.67188 0.0
C236 C 0.14775 0.43013 0.65471 0.0
C237 C 0.17566 0.44144 0.64393 0.0
C238 C 0.18065 0.41238 0.63677 0.0
C239 C 0.15598 0.37235 0.64013 0.0
C240 C 0.12557 0.3898 0.658 0.0
C241 C 0.12896 0.36131 0.65062 0.0
C242 C 0.13125 0.50086 0.70234 0.0
C243 C 0.14307 0.4598 0.66308 0.0
H244 H 0.96484 0.51954 0.72436 0.0
H245 H 0.94234 0.43851 0.75717 0.0
H246 H 0.05237 0.48817 0.73632 0.0
H247 H 1.00779 0.44488 0.75384 0.0
H248 H 0.19413 0.47245 0.64148 0.0
H249 H 0.158 0.34926 0.63472 0.0
H250 H 0.10588 0.3799 0.66647 0.0
H251 H 0.111 0.33037 0.65325 0.0
Tb252 Tb 0.56597 0.05093 0.86196 0.0
C253 C 0.65783 1.02354 0.81989 0.0
C254 C 0.70455 1.00731 0.8301 0.0
C255 C 0.67974 0.98394 0.80758 0.0
C256 C 0.68143 0.02592 0.83065 0.0
C257 C 0.65626 1.00208 0.80831 0.0
C258 C 0.7038 0.98652 0.81846 0.0
C259 C 0.6069 1.01636 0.79943 0.0
N260 N 0.63396 0.03973 0.82134 0.0
C261 C 0.60922 0.03711 0.81119 0.0
C262 C 0.63049 0.99877 0.79798 0.0
Tb263 Tb 0.64536 0.07771 0.84017 0.0
N264 N 0.68088 0.04581 0.8418 0.0
C265 C 0.70434 0.04991 0.85252 0.0
C266 C 0.72762 1.01017 0.84127 0.0
C267 C 0.72759 0.03167 0.85251 0.0
H268 H 0.59129 0.05103 0.81203 0.0
H269 H 0.74584 0.03463 0.8611 0.0
H270 H 0.72146 0.97209 0.8178 0.0
H271 H 0.58702 1.01409 0.79146 0.0
H272 H 0.70561 0.06784 0.861 0.0
H273 H 0.4952 0.99743 0.81298 0.0
H274 H 0.7458 0.99624 0.84126 0.0
H275 H 0.57499 0.12958 0.87854 0.0
H276 H 0.54657 1.01444 0.82957 0.0
H277 H 0.53923 0.16623 0.88044 0.0
H278 H 0.67908 0.96739 0.79875 0.0
H279 H 0.44596 1.01926 0.81601 0.0
H280 H 0.42503 0.06132 0.82874 0.0
H281 H 0.6284 0.98254 0.78889 0.0
H282 H 0.43862 0.10951 0.84678 0.0
N283 N 0.52387 0.03937 0.84372 0.0
C284 C 0.52388 1.02121 0.83192 0.0
C285 C 0.46763 1.02516 0.82379 0.0
C286 C 0.47066 0.04816 0.83494 0.0
C287 C 0.49522 1.01268 0.82207 0.0
C288 C 0.49963 0.0551 0.84475 0.0
H289 H 0.48211 0.1499 0.86574 0.0
N290 N 0.53881 0.09171 0.86276 0.0
C291 C 0.5299 0.14268 0.87315 0.0
C292 C 0.50758 0.08253 0.85465 0.0
C293 C 0.55026 0.12163 0.87195 0.0
C294 C 0.49758 0.13326 0.8649 0.0
C295 C 0.48631 0.10319 0.85539 0.0
O296 O 0.5658 0.0634 0.88228 0.0
O297 O 0.62204 0.053 0.85991 0.0
O298 O 0.60629 1.00988 0.83905 0.0
O299 O 0.54953 0.99145 0.85204 0.0
O300 O 0.57844 1.00668 0.87046 0.0
O301 O 0.51404 1.01566 0.87329 0.0
O302 O 0.67355 0.11764 0.82398 0.0
O303 O 0.60427 0.0963 0.84821 0.0
O304 O 0.61784 0.10488 0.87078 0.0
O305 O 0.67266 0.1124 0.85873 0.0
O306 O 0.613 0.10306 0.82859 0.0
O307 O 0.70616 0.11984 0.84147 0.0
C308 C 0.61466 1.02201 0.86667 0.0
C309 C 0.52735 1.00946 0.89642 0.0
C310 C 0.49051 0.94946 0.90983 0.0
C311 C 0.49489 0.97125 0.89803 0.0
C312 C 0.51896 0.96646 0.92004 0.0
C313 C 0.55555 0.02569 0.90677 0.0
C314 C 0.55131 1.00425 0.91846 0.0
C315 C 0.57153 0.98142 0.8441 0.0
C316 C 0.53085 0.03359 0.88447 0.0
C317 C 0.4555 0.09422 0.8463 0.0
C318 C 0.44766 0.06668 0.83608 0.0
C319 C 0.59551 0.11066 0.83817 0.0
C320 C 0.74238 0.13894 0.82066 0.0
C321 C 0.75765 0.16733 0.81003 0.0
C322 C 0.79075 0.17254 0.80228 0.0
C323 C 0.80757 0.14876 0.80515 0.0
C324 C 0.76121 0.11681 0.82334 0.0
C325 C 0.79295 0.12126 0.81556 0.0
C326 C 0.65702 0.1227 0.86885 0.0
C327 C 0.70848 0.13368 0.82938 0.0
H328 H 0.47304 0.95852 0.89013 0.0
H329 H 0.51593 0.95076 0.92934 0.0
H330 H 0.58072 0.05525 0.90595 0.0
H331 H 0.57302 1.01712 0.92639 0.0
H332 H 0.74441 0.18555 0.80795 0.0
H333 H 0.83272 0.15201 0.79941 0.0
H334 H 0.75203 0.0964 0.83163 0.0
H335 H 0.80678 0.10366 0.81778 0.0
Tb336 Tb 0.54014 0.55655 0.02925 0.0
C337 C 0.65561 0.64651 0.98628 0.0
C338 C 0.71883 0.69309 0.99605 0.0
C339 C 0.71602 0.6678 0.97348 0.0
C340 C 0.67737 0.67028 0.99691 0.0
C341 C 0.67469 0.64453 0.97453 0.0
C342 C 0.73804 0.69198 0.98422 0.0
C343 C 0.61092 0.59498 0.96616 0.0
N344 N 0.61589 0.62278 0.98806 0.0
C345 C 0.59331 0.5977 0.97809 0.0
C346 C 0.65174 0.61848 0.96436 0.0
Tb347 Tb 0.59061 0.63511 0.0071 0.0
N348 N 0.65775 0.66999 0.00826 0.0
C349 C 0.67764 0.69349 0.01889 0.0
C350 C 0.73963 0.71613 0.00713 0.0
C351 C 0.71892 0.7164 0.01858 0.0
H352 H 0.56171 0.57983 0.9792 0.0
H353 H 0.73465 0.7347 0.02709 0.0
H354 H 0.76991 0.70941 0.98333 0.0
H355 H 0.59295 0.57486 0.95833 0.0
H356 H 0.66157 0.69521 0.02748 0.0
H357 H 0.51915 0.48425 0.98031 0.0
H358 H 0.77156 0.73406 0.00689 0.0
H359 H 0.47261 0.56504 0.04737 0.0
H360 H 0.55499 0.53544 0.99678 0.0
H361 H 0.40074 0.52993 0.05 0.0
H362 H 0.73128 0.66681 0.9645 0.0
H363 H 0.4484 0.43639 0.98381 0.0
H364 H 0.38679 0.41668 0.9971 0.0
H365 H 0.66526 0.61606 0.95515 0.0
H366 H 0.354 0.43069 0.01573 0.0
N367 N 0.50838 0.51409 0.01125 0.0
C368 C 0.52563 0.51338 0.99931 0.0
C369 C 0.46478 0.458 0.99151 0.0
C370 C 0.44585 0.46162 0.00289 0.0
C371 C 0.50467 0.48481 0.98954 0.0
C372 C 0.46863 0.49047 0.0126 0.0
H373 H 0.35882 0.47373 0.03517 0.0
N374 N 0.47275 0.52964 0.03096 0.0
C375 C 0.4142 0.52078 0.0423 0.0
C376 C 0.45012 0.49872 0.02284 0.0
C377 C 0.45526 0.54082 0.04067 0.0
C378 C 0.39067 0.48897 0.03398 0.0
C379 C 0.40849 0.47778 0.02401 0.0
O380 O 0.53108 0.55715 0.0499 0.0
O381 O 0.59335 0.61277 0.02692 0.0
O382 O 0.61959 0.59591 0.00578 0.0
O383 O 0.58241 0.53952 0.01896 0.0
O384 O 0.59734 0.569 0.03703 0.0
O385 O 0.52352 0.50427 0.04033 0.0
O386 O 0.57937 0.66378 0.99087 0.0
O387 O 0.53172 0.59423 0.01548 0.0
O388 O 0.53759 0.60861 0.03807 0.0
O389 O 0.58369 0.66299 0.02568 0.0
O390 O 0.53264 0.60287 0.99588 0.0
O391 O 0.60886 0.69593 0.00849 0.0
C392 C 0.61749 0.60531 0.03329 0.0
C393 C 0.54671 0.5167 0.0631 0.0
C394 C 0.5746 0.48025 0.07458 0.0
C395 C 0.55791 0.48741 0.06304 0.0
C396 C 0.58115 0.50427 0.08598 0.0
C397 C 0.55399 0.54021 0.0746 0.0
C398 C 0.57147 0.53427 0.08587 0.0
C399 C 0.61379 0.56123 0.01083 0.0
C400 C 0.52503 0.52155 0.05173 0.0
C401 C 0.38595 0.44726 0.01494 0.0
C402 C 0.40462 0.43918 0.00438 0.0
C403 C 0.50818 0.58543 0.00559 0.0
C404 C 0.62711 0.73262 0.98777 0.0
C405 C 0.61499 0.74811 0.97688 0.0
C406 C 0.64328 0.78192 0.96957 0.0
C407 C 0.68332 0.79893 0.97303 0.0
C408 C 0.66752 0.75169 0.99101 0.0
C409 C 0.69525 0.78391 0.9836 0.0
C410 C 0.5584 0.64775 0.03596 0.0
C411 C 0.59803 0.69864 0.99633 0.0
H412 H 0.55307 0.47004 0.05405 0.0
H413 H 0.59255 0.49935 0.09524 0.0
H414 H 0.54551 0.56286 0.07499 0.0
H415 H 0.57652 0.55228 0.09473 0.0
H416 H 0.58393 0.73477 0.97439 0.0
H417 H 0.70554 0.82454 0.96763 0.0
H418 H 0.67801 0.74242 0.99948 0.0
H419 H 0.72622 0.79788 0.98626 0.0
Tb420 Tb 1.00711 0.53387 0.19468 0.0
C421 C 1.02732 0.6411 0.14911 0.0
C422 C 0.04704 0.70749 0.1569 0.0
C423 C 0.06341 0.69725 0.13419 0.0
C424 C 1.02793 0.66639 0.15909 0.0
C425 C 0.0459 0.65642 0.13667 0.0
C426 C 0.06402 0.72272 0.14428 0.0
C427 C 1.03212 0.59063 0.13066 0.0
N428 N 1.01198 0.60203 0.15222 0.0
C429 C 1.01438 0.57679 0.14322 0.0
C430 C 0.04764 0.63049 0.12732 0.0
Tb431 Tb 0.97896 0.58365 0.17234 0.0
N432 N 1.01261 0.6507 0.17133 0.0
C433 C 1.01461 0.67426 0.18176 0.0
C434 C 0.04951 0.73201 0.16759 0.0
C435 C 1.0334 0.71533 0.18009 0.0
H436 H 1.00279 0.54597 0.14557 0.0
H437 H 1.03478 0.734 0.18837 0.0
H438 H 0.07859 0.75424 0.14234 0.0
H439 H 1.03388 0.5705 0.12355 0.0
H440 H 0.99999 0.66117 0.19112 0.0
H441 H 0.05852 0.50958 0.14664 0.0
H442 H 0.064 0.76381 0.16633 0.0
H443 H 0.93536 0.4696 0.2151 0.0
H444 H 0.04858 0.54874 0.16363 0.0
H445 H 0.89708 0.39786 0.21809 0.0
H446 H 0.07759 0.70957 0.12464 0.0
H447 H 1.02794 0.43719 0.14937 0.0
H448 H 0.98365 0.37635 0.16268 0.0
H449 H 0.06169 0.64109 0.11763 0.0
H450 H 0.93934 0.34595 0.18203 0.0
N451 N 1.0147 0.50037 0.17682 0.0
C452 C 1.03613 0.5178 0.16546 0.0
C453 C 1.02404 0.45453 0.15711 0.0
C454 C 1.00066 0.43644 0.16841 0.0
C455 C 0.04137 0.49534 0.15555 0.0
C456 C 0.99637 0.46041 0.17816 0.0
H457 H 0.90751 0.35381 0.20284 0.0
N458 N 0.9652 0.46718 0.19737 0.0
C459 C 0.91739 0.41019 0.20972 0.0
C460 C 0.97084 0.44325 0.18884 0.0
C461 C 0.93874 0.45112 0.20777 0.0
C462 C 0.9234 0.38544 0.20111 0.0
C463 C 0.94977 0.40175 0.19036 0.0
O464 O 1.01268 0.51726 0.21432 0.0
O465 O 1.01534 0.59133 0.19013 0.0
O466 O 0.04693 0.61579 0.17112 0.0
O467 O 0.06605 0.58105 0.18531 0.0
O468 O 1.01007 0.57574 0.20978 0.0
O469 O 0.0606 0.53681 0.20009 0.0
O470 O 0.93845 0.57624 0.15687 0.0
O471 O 0.96173 0.52487 0.18051 0.0
O472 O 0.95144 0.52812 0.20314 0.0
O473 O 0.94345 0.57504 0.19087 0.0
O474 O 0.95044 0.52538 0.16123 0.0
O475 O 0.93865 0.60435 0.17546 0.0
C476 C 1.01713 0.60503 0.20202 0.0
C477 C 0.05637 0.49135 0.21654 0.0
C478 C 0.10618 0.47408 0.22304 0.0
C479 C 0.09594 0.50183 0.21836 0.0
C480 C 0.07619 0.43518 0.22571 0.0
C481 C 1.02666 0.45258 0.21952 0.0
C482 C 1.0366 0.42457 0.22393 0.0
C483 C 0.07601 0.61142 0.17668 0.0
C484 C 0.04774 0.52227 0.21201 0.0
C485 C 0.95521 0.37786 0.18101 0.0
C486 C 0.98049 0.39517 0.17002 0.0
C487 C 0.94505 0.50095 0.17079 0.0
C488 C 0.91744 0.62477 0.15572 0.0
C489 C 0.89064 0.6137 0.14468 0.0
C490 C 0.88298 0.64204 0.13831 0.0
C491 C 0.90354 0.68138 0.1428 0.0
C492 C 0.93624 0.66433 0.16 0.0
C493 C 0.9299 0.69234 0.15348 0.0
C494 C 0.93331 0.54919 0.20098 0.0
C495 C 0.92365 0.59498 0.16338 0.0
H496 H 0.11878 0.53216 0.21653 0.0
H497 H 0.08333 0.41314 0.22925 0.0
H498 H 0.99593 0.4439 0.21867 0.0
H499 H 1.01354 0.39469 0.22614 0.0
H500 H 0.87492 0.58317 0.14141 0.0
H501 H 0.89883 0.70382 0.13809 0.0
H502 H 0.95537 0.6738 0.16862 0.0
H503 H 0.94497 0.7227 0.15691 0.0
Tb504 Tb 0.06165 0.55762 0.472 0.0
C505 C 1.02954 0.64011 0.51607 0.0
C506 C 1.02382 0.69537 0.50745 0.0
C507 C 0.99027 0.66271 0.5282 0.0
C508 C 0.03903 0.66933 0.50643 0.0
C509 C 1.00483 0.63624 0.52698 0.0
C510 C 0.99966 0.69213 0.51845 0.0
C511 C 1.00977 0.57949 0.53433 0.0
N512 N 0.04275 0.61378 0.51418 0.0
C513 C 1.03409 0.58429 0.5233 0.0
C514 C 0.99505 0.60549 0.53618 0.0
Tb515 Tb 0.08624 0.62866 0.49675 0.0
N516 N 0.06214 0.67129 0.49585 0.0
C517 C 0.07143 0.69884 0.48597 0.0
C518 C 1.033 0.72357 0.4973 0.0
C519 C 0.05684 0.72524 0.48651 0.0
H520 H 0.04586 0.56453 0.52206 0.0
H521 H 0.06424 0.74706 0.47866 0.0
H522 H 0.98779 0.71199 0.51944 0.0
H523 H 1.00257 0.55588 0.54147 0.0
H524 H 0.09077 0.70102 0.47784 0.0
H525 H 1.0034 0.46961 0.51766 0.0
H526 H 1.02182 0.74411 0.49769 0.0
H527 H 0.13483 0.56813 0.45173 0.0
H528 H 1.01534 0.52246 0.50219 0.0
H529 H 0.17588 0.5373 0.44849 0.0
H530 H 0.97127 0.66033 0.53654 0.0
H531 H 1.03559 0.42935 0.51404 0.0
H532 H 0.08355 0.41756 0.50089 0.0
H533 H 0.97613 0.60152 0.54472 0.0
H534 H 0.13174 0.4371 0.48245 0.0
N535 N 0.05086 0.51118 0.48851 0.0
C536 C 1.02798 0.50444 0.49973 0.0
C537 C 0.04001 0.45205 0.50683 0.0
C538 C 0.06527 0.46033 0.49585 0.0
C539 C 1.02176 0.47463 0.50888 0.0
C540 C 0.07013 0.49035 0.48676 0.0
H541 H 0.16698 0.48222 0.46315 0.0
N542 N 0.10356 0.53259 0.46867 0.0
C543 C 0.15415 0.52711 0.45649 0.0
C544 C 0.09753 0.50159 0.47652 0.0
C545 C 0.13104 0.54498 0.45854 0.0
C546 C 0.14886 0.49587 0.46471 0.0
C547 C 0.12033 0.48271 0.47487 0.0
O548 O 0.06049 0.54257 0.45172 0.0
O549 O 0.05258 0.60507 0.4783 0.0
O550 O 1.01822 0.59171 0.49683 0.0
O551 O 1.00116 0.5426 0.48089 0.0
O552 O 0.0596 0.60062 0.45845 0.0
O553 O 1.01063 0.50791 0.46458 0.0
O554 O 0.12393 0.64317 0.51344 0.0
O555 O 0.10615 0.59081 0.48692 0.0
O556 O 0.11815 0.60918 0.46503 0.0
O557 O 0.12548 0.66059 0.47919 0.0
O558 O 0.10516 0.58909 0.50697 0.0
O559 O 0.12776 0.68939 0.50082 0.0
C560 C 0.05176 0.6205 0.46703 0.0
C561 C 0.99701 0.51594 0.44202 0.0
C562 C 0.93232 0.48382 0.43125 0.0
C563 C 0.95839 0.48405 0.44104 0.0
C564 C 0.94517 0.51622 0.4225 0.0
C565 C 1.00954 0.54791 0.43304 0.0
C566 C 0.98366 0.54787 0.42335 0.0
C567 C 0.98999 0.56041 0.49018 0.0
C568 C 1.02379 0.51478 0.45227 0.0
C569 C 0.11454 0.45191 0.48357 0.0
C570 C 0.08703 0.44072 0.49404 0.0
C571 C 0.11744 0.57785 0.49673 0.0
C572 C 0.14281 0.70399 0.52457 0.0
C573 C 0.17759 0.73956 0.52842 0.0
C574 C 0.17893 0.75813 0.54095 0.0
C575 C 0.14526 0.74147 0.54919 0.0
C576 C 0.11143 0.68719 0.53383 0.0
C577 C 0.11203 0.70619 0.54571 0.0
C578 C 0.13601 0.64754 0.46832 0.0
C579 C 0.1402 0.68134 0.51194 0.0
H580 H 0.94867 0.45929 0.44791 0.0
H581 H 0.9259 0.5165 0.41471 0.0
H582 H 0.03933 0.57277 0.43337 0.0
H583 H 0.9937 0.57203 0.41628 0.0
H584 H 0.20341 0.75201 0.52197 0.0
H585 H 0.14538 0.7549 0.55874 0.0
H586 H 0.08689 0.65826 0.53231 0.0
H587 H 0.08705 0.69264 0.55252 0.0
Tb588 Tb 0.52824 0.05029 0.63996 0.0
C589 C 0.42191 0.02571 0.68628 0.0
C590 C 0.35605 1.00842 0.67866 0.0
C591 C 0.36526 0.98828 0.70089 0.0
C592 C 0.39715 0.02705 0.67651 0.0
C593 C 0.40608 1.00555 0.69845 0.0
C594 C 0.34031 0.98967 0.69101 0.0
C595 C 0.47146 1.01784 0.70431 0.0
N596 N 0.46098 0.04094 0.6832 0.0
C597 C 0.4858 0.0372 0.69201 0.0
C598 C 0.43154 1.0022 0.70759 0.0
Tb599 Tb 0.48034 0.07651 0.6636 0.0
N600 N 0.41331 0.04432 0.66452 0.0
C601 C 0.39027 0.04499 0.65436 0.0
C602 C 0.33204 1.00843 0.66819 0.0
C603 C 0.34923 0.02668 0.65598 0.0
H604 H 0.51666 0.04894 0.6897 0.0
H605 H 0.33097 0.02732 0.6479 0.0
H606 H 0.30879 0.9754 0.69291 0.0
H607 H 0.49124 1.01497 0.71126 0.0
H608 H 0.40379 0.06123 0.64528 0.0
H609 H 0.55286 0.99313 0.68684 0.0
H610 H 0.30026 0.99437 0.66943 0.0
H611 H 0.59237 0.12353 0.62025 0.0
H612 H 0.51387 1.00578 0.67069 0.0
H613 H 0.66416 0.16264 0.61738 0.0
H614 H 0.35256 0.97288 0.71023 0.0
H615 H 0.62499 1.02302 0.68372 0.0
H616 H 0.68563 0.06865 0.67062 0.0
H617 H 0.42055 0.98694 0.71707 0.0
H618 H 0.71602 0.11555 0.65193 0.0
N619 N 0.56159 0.03962 0.65725 0.0
C620 C 0.54446 1.01752 0.66852 0.0
C621 C 0.60761 0.02789 0.67625 0.0
C622 C 0.62558 0.05248 0.6652 0.0
C623 C 0.56694 1.01091 0.67803 0.0
C624 C 0.60156 0.05799 0.65581 0.0
H625 H 0.70841 0.15188 0.63242 0.0
N626 N 0.59488 0.09189 0.63738 0.0
C627 C 0.65185 0.14114 0.62542 0.0
C628 C 0.61875 0.08502 0.64551 0.0
C629 C 0.61091 0.11922 0.62728 0.0
C630 C 0.67669 0.13476 0.63385 0.0
C631 C 0.66029 0.1065 0.64406 0.0
O632 O 0.53436 0.04619 0.61926 0.0
O633 O 0.47105 0.04095 0.64552 0.0
O634 O 0.44837 1.00828 0.66419 0.0
O635 O 0.4816 0.99006 0.64891 0.0
O636 O 0.48455 0.04722 0.6257 0.0
O637 O 0.53739 1.00435 0.63262 0.0
O638 O 0.49023 0.11534 0.67994 0.0
O639 O 0.5387 0.09557 0.65447 0.0
O640 O 0.53544 0.10817 0.63317 0.0
O641 O 0.48659 0.11268 0.64545 0.0
O642 O 0.53921 0.10207 0.67418 0.0
O643 O 0.4609 0.11835 0.66212 0.0
C644 C 0.45621 0.0399 0.63391 0.0
C645 C 0.57435 1.01953 0.61217 0.0
C646 C 0.60762 0.9866 0.60211 0.0
C647 C 0.57893 0.9861 0.61087 0.0
C648 C 0.63311 1.02163 0.59519 0.0
C649 C 0.59879 0.0535 0.60452 0.0
C650 C 0.62864 0.05485 0.59641 0.0
C651 C 0.452 0.97945 0.65798 0.0
C652 C 0.5412 1.01686 0.62026 0.0
C653 C 0.68412 0.09964 0.65298 0.0
C654 C 0.66682 0.0728 0.66357 0.0
C655 C 0.563 0.11004 0.66419 0.0
C656 C 0.44319 0.13776 0.68289 0.0
C657 C 0.45605 0.16471 0.69394 0.0
C658 C 0.42859 0.1716 0.7013 0.0
C659 C 0.38852 0.15049 0.69773 0.0
C660 C 0.40286 0.11838 0.67955 0.0
C661 C 0.37586 0.12415 0.68701 0.0
C662 C 0.51276 0.12454 0.63539 0.0
C663 C 0.47169 0.13175 0.67433 0.0
H664 H 0.55872 0.95906 0.6161 0.0
H665 H 0.65586 1.02299 0.58856 0.0
H666 H 0.59434 0.07876 0.60444 0.0
H667 H 0.64758 0.08133 0.59073 0.0
H668 H 0.48714 0.18095 0.6965 0.0
H669 H 0.36687 0.15495 0.70317 0.0
H670 H 0.39196 0.09918 0.67097 0.0
H671 H 0.3449 0.10866 0.68427 0.0
Tb672 Tb 0.49928 0.51732 0.80578 0.0
C673 C 0.42074 0.4121 0.85249 0.0
C674 C 0.376 0.34508 0.84495 0.0
C675 C 0.40465 0.35648 0.86731 0.0
C676 C 0.39601 0.38619 0.8427 0.0
C677 C 0.42599 0.39737 0.86477 0.0
C678 C 0.37979 0.3304 0.85742 0.0
C679 C 0.47613 0.46395 0.87045 0.0
N680 N 0.44265 0.45128 0.84929 0.0
C681 C 0.47034 0.47719 0.85804 0.0
C682 C 0.45367 0.42399 0.87388 0.0
Tb683 Tb 0.42509 0.46849 0.8295 0.0
N684 N 0.3942 0.40142 0.83058 0.0
C685 C 0.37186 0.3773 0.82042 0.0
C686 C 0.35367 0.32002 0.83446 0.0
C687 C 0.35171 0.3362 0.82213 0.0
H688 H 0.48824 0.50809 0.85561 0.0
H689 H 0.334 0.31709 0.81405 0.0
H690 H 0.36438 0.29889 0.8594 0.0
H691 H 0.49805 0.48461 0.87736 0.0
H692 H 0.36807 0.38981 0.81125 0.0
H693 H 0.5785 0.54239 0.85298 0.0
H694 H 0.33791 0.28821 0.83577 0.0
H695 H 0.49266 0.58145 0.7851 0.0
H696 H 0.52852 0.5033 0.83643 0.0
H697 H 0.52533 0.65332 0.78201 0.0
H698 H 0.40808 0.34461 0.87675 0.0
H699 H 0.61994 0.61463 0.85 0.0
H700 H 0.6354 0.6753 0.8367 0.0
H701 H 0.45861 0.41386 0.88344 0.0
H702 H 0.62037 0.70554 0.81755 0.0
N703 N 0.54241 0.55122 0.82308 0.0
C704 C 0.54702 0.53402 0.8344 0.0
C705 C 0.59842 0.59723 0.8424 0.0
C706 C 0.59249 0.61518 0.83118 0.0
C707 C 0.57518 0.55651 0.84409 0.0
C708 C 0.56391 0.59113 0.82161 0.0
H709 H 0.57848 0.69773 0.79746 0.0
N710 N 0.52535 0.5842 0.80266 0.0
C711 C 0.53387 0.64107 0.79027 0.0
C712 C 0.55502 0.60819 0.81103 0.0
C713 C 0.51499 0.60014 0.79221 0.0
C714 C 0.564 0.66601 0.79894 0.0
C715 C 0.57492 0.64972 0.80949 0.0
O716 O 0.51701 0.5318 0.7857 0.0
O717 O 0.45098 0.45957 0.81106 0.0
O718 O 0.46296 0.43799 0.83006 0.0
O719 O 0.51274 0.47024 0.81428 0.0
O720 O 0.45699 0.47653 0.79146 0.0
O721 O 0.54982 0.51549 0.79909 0.0
O722 O 0.39336 0.47606 0.8455 0.0
O723 O 0.4654 0.52672 0.8209 0.0
O724 O 0.44902 0.52532 0.79893 0.0
O725 O 0.39606 0.47798 0.8117 0.0
O726 O 0.45486 0.52741 0.84024 0.0
O727 O 0.36348 0.44581 0.82754 0.0
C728 C 0.43704 0.44688 0.7993 0.0
C729 C 0.54464 0.49498 0.77645 0.0
C730 C 0.57995 0.46639 0.76492 0.0
C731 C 0.57883 0.49211 0.77461 0.0
C732 C 0.54603 0.44278 0.75725 0.0
C733 C 0.51132 0.47184 0.76841 0.0
C734 C 0.51195 0.44558 0.75901 0.0
C735 C 0.49487 0.44138 0.82356 0.0
C736 C 0.54465 0.52251 0.78667 0.0
C737 C 0.60454 0.67365 0.81864 0.0
C738 C 0.61321 0.65642 0.8295 0.0
C739 C 0.47313 0.55126 0.83047 0.0
C740 C 0.32545 0.42577 0.84813 0.0
C741 C 0.30783 0.43652 0.85877 0.0
C742 C 0.27549 0.40685 0.86638 0.0
C743 C 0.26352 0.36696 0.86366 0.0
C744 C 0.30951 0.38546 0.84523 0.0
C745 C 0.27992 0.35651 0.85313 0.0
C746 C 0.41027 0.50434 0.80168 0.0
C747 C 0.35909 0.45593 0.83969 0.0
H748 H 0.60462 0.50998 0.78075 0.0
H749 H 0.54614 0.42284 0.74968 0.0
H750 H 0.48485 0.47413 0.76922 0.0
H751 H 0.4861 0.4277 0.75294 0.0
H752 H 0.31834 0.46748 0.86081 0.0
H753 H 0.24061 0.34331 0.86956 0.0
H754 H 0.31947 0.37586 0.83673 0.0
H755 H 0.2691 0.32559 0.85091 0.0
Tb756 Tb 1.00698 0.48942 0.9734 0.0
C757 C 1.02983 0.4052 0.01937 0.0
C758 C 0.04902 0.35785 0.01164 0.0
C759 C 0.06713 0.38587 0.03408 0.0
C760 C 1.02976 0.3799 0.0095 0.0
C761 C 0.04931 0.40909 0.03164 0.0
C762 C 0.06702 0.36035 0.0241 0.0
C763 C 1.0355 0.46129 0.0376 0.0
N764 N 1.01413 0.42878 0.0163 0.0
C765 C 1.01686 0.45674 0.0252 0.0
C766 C 0.05152 0.43721 0.04088 0.0
Tb767 Tb 0.9799 0.41336 0.99649 0.0
N768 N 1.01333 0.3794 0.99741 0.0
C769 C 1.01416 0.35676 0.98712 0.0
C770 C 0.0505 0.33486 1.00107 0.0
C771 C 1.03312 0.33444 0.98874 0.0
H772 H 1.00484 0.47574 0.02288 0.0
H773 H 1.03364 0.31636 0.98057 0.0
H774 H 0.08176 0.3434 0.026 0.0
H775 H 0.03755 0.48346 0.04462 0.0
H776 H 0.99855 0.35449 0.97794 0.0
H777 H 0.05795 0.56628 0.02114 0.0
H778 H 0.06508 0.31749 0.0023 0.0
H779 H 0.93728 0.48361 0.95245 0.0
H780 H 0.0492 0.51769 0.00423 0.0
H781 H 0.89675 0.51527 0.94967 0.0
H782 H 0.08202 0.38823 0.0435 0.0
H783 H 1.02537 0.60655 0.01854 0.0
H784 H 0.97923 0.62127 0.00551 0.0
H785 H 0.06625 0.44114 0.05044 0.0
H786 H 0.93433 0.60641 0.98635 0.0
N787 N 1.01462 0.53137 0.99101 0.0
C788 C 1.0362 0.53575 0.00234 0.0
C789 C 1.02224 0.58574 0.01076 0.0
C790 C 0.99865 0.58004 0.99951 0.0
C791 C 0.04069 0.56312 0.01225 0.0
C792 C 0.99545 0.55241 0.98969 0.0
H793 H 0.90283 0.56645 0.9657 0.0
N794 N 0.96545 0.51496 0.97038 0.0
C795 C 0.91702 0.52343 0.95804 0.0
C796 C 0.96992 0.54382 0.97902 0.0
C797 C 0.93982 0.50509 0.9598 0.0
C798 C 0.92073 0.55248 0.96704 0.0
C799 C 0.94735 0.56301 0.9777 0.0
O800 O 1.01169 0.50973 0.95361 0.0
O801 O 1.0157 0.4407 0.97848 0.0
O802 O 0.04799 0.44921 0.99728 0.0
O803 O 0.0663 0.50189 0.98263 0.0
O804 O 1.00942 0.44904 0.95879 0.0
O805 O 0.05932 0.54078 0.96758 0.0
O806 O 0.93999 0.38239 0.01237 0.0
O807 O 0.96207 0.45413 0.9879 0.0
O808 O 0.9506 0.4394 0.9655 0.0
O809 O 0.94366 0.3856 0.97822 0.0
O810 O 0.95208 0.44445 0.00738 0.0
O811 O 0.93941 0.35239 0.99421 0.0
C812 C 1.01708 0.4277 0.96677 0.0
C813 C 0.07663 0.53961 0.94485 0.0
C814 C 0.14092 0.57778 0.93391 0.0
C815 C 0.11371 0.57393 0.94395 0.0
C816 C 0.13077 0.54638 0.92492 0.0
C817 C 0.06695 0.5087 0.93566 0.0
C818 C 0.09401 0.51218 0.9258 0.0
C819 C 0.07673 0.48218 0.99142 0.0
C820 C 0.04814 0.53744 0.95509 0.0
C821 C 0.95142 0.59142 0.9872 0.0
C822 C 0.97704 0.59993 0.99808 0.0
C823 C 0.94584 0.46225 0.9976 0.0
C824 C 0.9184 0.31304 0.01449 0.0
C825 C 0.89052 0.29786 0.0253 0.0
C826 C 0.88333 0.2629 0.03229 0.0
C827 C 0.90492 0.24431 0.02857 0.0
C828 C 0.9384 0.29258 0.01101 0.0
C829 C 0.93218 0.25907 0.01808 0.0
C830 C 0.93278 0.40049 0.96803 0.0
C831 C 0.92475 0.34829 0.00632 0.0
H832 H 0.12119 0.59776 0.95103 0.0
H833 H 0.15071 0.54869 0.91692 0.0
H834 H 0.03839 0.48207 0.9359 0.0
H835 H 0.08617 0.48873 0.91859 0.0
H836 H 0.8739 0.31241 0.02799 0.0
H837 H 0.90022 0.21777 0.03371 0.0
H838 H 0.95845 0.30182 0.00261 0.0
H839 H 0.94813 0.24396 0.01523 0.0
Tb840 Tb 0.54016 1.0027 0.1399 0.0
C841 C 0.65537 0.03366 0.18156 0.0
C842 C 0.71727 0.04183 0.17276 0.0
C843 C 0.71661 0.07501 0.19344 0.0
C844 C 0.67598 1.02513 0.17181 0.0
C845 C 0.67553 0.05906 0.19233 0.0
C846 C 0.7374 0.06647 0.18369 0.0
C847 C 0.61297 0.05204 0.19979 0.0
N848 N 0.61571 1.01945 0.17975 0.0
C849 C 0.59405 0.02697 0.18892 0.0
C850 C 0.65382 0.06823 0.20148 0.0
Tb851 Tb 0.58925 0.97556 0.16254 0.0
N852 N 0.65571 1.00163 0.16121 0.0
C853 C 0.67479 0.99332 0.15133 0.0
C854 C 0.73715 0.03368 0.16259 0.0
C855 C 0.71584 1.00944 0.15183 0.0
H856 H 0.56236 1.01338 0.1878 0.0
H857 H 0.73101 1.00301 0.14395 0.0
H858 H 0.76916 0.07948 0.1846 0.0
H859 H 0.59602 0.05853 0.20696 0.0
H860 H 0.6585 0.9742 0.14308 0.0
H861 H 0.50954 0.06401 0.18479 0.0
H862 H 0.76893 0.04608 0.16293 0.0
H863 H 0.47677 0.92248 0.12172 0.0
H864 H 0.55033 0.04893 0.17029 0.0
H865 H 0.40566 0.88278 0.11861 0.0
H866 H 0.7327 0.0945 0.20168 0.0
H867 H 0.43816 0.03474 0.18034 0.0
H868 H 0.37924 0.98756 0.16704 0.0
H869 H 0.66828 0.08768 0.2099 0.0
H870 H 0.35079 0.93706 0.1494 0.0
N871 N 0.5046 1.01424 0.15628 0.0
C872 C 0.52015 0.03728 0.16748 0.0
C873 C 0.45639 0.02877 0.17356 0.0
C874 C 0.43981 1.00289 0.16276 0.0
C875 C 0.49662 0.04537 0.17608 0.0
C876 C 0.46488 0.99595 0.15425 0.0
H877 H 0.36022 0.8969 0.13174 0.0
N878 N 0.47351 0.95907 0.13721 0.0
C879 C 0.41735 0.90642 0.12593 0.0
C880 C 0.4488 0.96736 0.14438 0.0
C881 C 0.45812 0.92903 0.12795 0.0
C882 C 0.39183 0.91464 0.13328 0.0
C883 C 0.40735 0.94528 0.14266 0.0
O884 O 0.52889 0.99315 0.11934 0.0
O885 O 0.59273 0.99719 0.1422 0.0
O886 O 0.61651 0.04376 0.16299 0.0
O887 O 0.58195 0.06309 0.14875 0.0
O888 O 0.59816 0.04528 0.13211 0.0
O889 O 0.52593 0.04087 0.12928 0.0
O890 O 0.56857 0.94484 0.18082 0.0
O891 O 0.53068 0.97123 0.1587 0.0
O892 O 0.5381 0.94667 0.13234 0.0
O893 O 0.58549 0.94004 0.14457 0.0
O894 O 0.53049 0.92099 0.16359 0.0
O895 O 0.61074 0.93726 0.1689 0.0
C896 C 0.61769 0.02851 0.13603 0.0
C897 C 0.54912 0.05112 0.10655 0.0
C898 C 0.57735 0.11526 0.09502 0.0
C899 C 0.55876 0.09105 0.10633 0.0
C900 C 0.58753 0.09873 0.08415 0.0
C901 C 0.56003 0.03581 0.09559 0.0
C902 C 0.57948 0.05963 0.08457 0.0
C903 C 0.61205 0.07275 0.15731 0.0
C904 C 0.52583 1.02471 0.11777 0.0
C905 C 0.38259 0.95356 0.15064 0.0
C906 C 0.3988 0.98235 0.16066 0.0
C907 C 0.507 0.93392 0.16071 0.0
C908 C 0.6093 0.92527 0.19303 0.0
C909 C 0.61033 0.89049 0.1971 0.0
C910 C 0.62681 0.88907 0.20979 0.0
C911 C 0.64257 0.92268 0.21802 0.0
C912 C 0.62308 0.95671 0.20219 0.0
C913 C 0.6404 0.95593 0.2143 0.0
C914 C 0.55883 0.9281 0.13468 0.0
C915 C 0.5902 0.92763 0.18011 0.0
H916 H 0.55132 0.10288 0.11498 0.0
H917 H 0.60071 0.11532 0.07506 0.0
H918 H 0.55306 1.00518 0.09542 0.0
H919 H 0.58744 0.04742 0.07613 0.0
H920 H 0.59795 0.86478 0.19063 0.0
H921 H 0.65526 0.92261 0.22769 0.0
H922 H 0.61924 0.98161 0.20036 0.0
H923 H 0.65118 0.98094 0.22105 0.0
Tb924 Tb 0.5743 0.53435 0.30796 0.0
C925 C 0.64925 0.63359 0.35604 0.0
C926 C 0.69274 0.70266 0.3503 0.0
C927 C 0.66266 0.68487 0.37249 0.0
C928 C 0.67427 0.66227 0.34696 0.0
C929 C 0.64245 0.64475 0.36878 0.0
C930 C 0.68772 0.71377 0.36326 0.0
C931 C 0.59316 0.57648 0.37266 0.0
N932 N 0.6288 0.59526 0.35178 0.0
C933 C 0.60064 0.56681 0.35986 0.0
C934 C 0.61442 0.61548 0.37721 0.0
Tb935 Tb 0.64949 0.58411 0.33148 0.0
N936 N 0.67672 0.65044 0.33432 0.0
C937 C 0.69725 0.67736 0.32451 0.0
C938 C 0.7141 0.73059 0.34031 0.0
C939 C 0.71602 0.71789 0.32732 0.0
H940 H 0.5837 0.53655 0.35659 0.0
H941 H 0.73265 0.73923 0.31956 0.0
H942 H 0.70198 0.74467 0.36609 0.0
H943 H 0.57092 0.55379 0.37903 0.0
H944 H 0.70096 0.66748 0.3148 0.0
H945 H 0.49457 0.50969 0.35517 0.0
H946 H 0.72868 0.76198 0.34245 0.0
H947 H 0.58139 0.46979 0.2875 0.0
H948 H 0.54427 0.54872 0.33848 0.0
H949 H 0.54997 0.39794 0.2849 0.0
H950 H 0.65809 0.69399 0.3823 0.0
H951 H 0.45437 0.43723 0.35265 0.0
H952 H 0.44038 0.37634 0.33985 0.0
H953 H 0.60825 0.62283 0.38709 0.0
H954 H 0.45639 0.34585 0.32101 0.0
N955 N 0.53132 0.50046 0.32539 0.0
C956 C 0.52624 0.51784 0.33659 0.0
C957 C 0.47569 0.45458 0.34495 0.0
C958 C 0.48208 0.43647 0.33387 0.0
C959 C 0.49824 0.49542 0.34639 0.0
C960 C 0.51035 0.46046 0.32415 0.0
H961 H 0.49773 0.35358 0.30071 0.0
N962 N 0.54882 0.46733 0.30512 0.0
C963 C 0.54122 0.41025 0.29309 0.0
C964 C 0.51949 0.44331 0.31365 0.0
C965 C 0.55941 0.45123 0.29476 0.0
C966 C 0.51158 0.38534 0.30197 0.0
C967 C 0.50038 0.40172 0.31242 0.0
O968 O 0.55601 0.5182 0.28808 0.0
O969 O 0.62279 0.59167 0.3131 0.0
O970 O 0.61288 0.61582 0.3316 0.0
O971 O 0.56064 0.58088 0.31689 0.0
O972 O 0.61685 0.57637 0.29365 0.0
O973 O 0.525 0.538 0.30103 0.0
O974 O 0.6845 0.57821 0.34656 0.0
O975 O 0.60731 0.52617 0.32351 0.0
O976 O 0.62438 0.52642 0.30112 0.0
O977 O 0.6777 0.57457 0.31344 0.0
O978 O 0.62452 0.52484 0.34195 0.0
O979 O 0.71116 0.61009 0.32838 0.0
C980 C 0.63674 0.60594 0.30147 0.0
C981 C 0.53046 0.55558 0.27802 0.0
C982 C 0.4948 0.57988 0.26454 0.0
C983 C 0.49608 0.55719 0.27531 0.0
C984 C 0.52918 0.60302 0.25697 0.0
C985 C 0.56418 0.57762 0.26995 0.0
C986 C 0.56365 0.60178 0.25969 0.0
C987 C 0.57994 0.61122 0.32556 0.0
C988 C 0.52949 0.52905 0.28878 0.0
C989 C 0.47136 0.3778 0.3218 0.0
C990 C 0.46221 0.39515 0.33251 0.0
C991 C 0.60299 0.50119 0.33261 0.0
C992 C 0.75118 0.63099 0.34847 0.0
C993 C 0.76852 0.62092 0.35934 0.0
C994 C 0.80036 0.651 0.36691 0.0
C995 C 0.81214 0.69071 0.36388 0.0
C996 C 0.76696 0.67108 0.34522 0.0
C997 C 0.7961 0.70051 0.35307 0.0
C998 C 0.66312 0.54778 0.3036 0.0
C999 C 0.71772 0.60016 0.34027 0.0
H1000 H 0.46983 0.53964 0.28133 0.0
H1001 H 0.5289 0.62049 0.24854 0.0
H1002 H 0.59082 0.57596 0.27134 0.0
H1003 H 0.58963 0.61859 0.25353 0.0
H1004 H 0.75805 0.59007 0.3616 0.0
H1005 H 0.83451 0.71475 0.36975 0.0
H1006 H 0.7571 0.68005 0.33653 0.0
H1007 H 0.80679 0.73128 0.35063 0.0
H1008 H 1.00712 0.65963 0.21613 0.0
H1009 H 0.05463 0.70902 0.23175 0.0
H1010 H 0.14354 0.68145 0.21838 0.0
H1011 H 0.09668 0.63307 0.20299 0.0
H1012 H 0.08674 0.69579 0.2527 0.0
H1013 H 0.21209 0.79732 0.22063 0.0
H1014 H 0.16461 0.76269 0.21368 0.0
H1015 H 0.19979 0.74703 0.2179 0.0
C1016 C 0.03753 0.66596 0.2159 0.0
C1017 C 0.04847 0.64405 0.20738 0.0
C1018 C 0.06464 0.69375 0.22509 0.0
C1019 C 0.1035 0.70012 0.22622 0.0
C1020 C 0.11468 0.67894 0.21748 0.0
H1021 H 0.30235 0.81908 0.28235 0.0
H1022 H 0.25288 0.77346 0.2663 0.0
C1023 C 0.08769 0.65143 0.20831 0.0
C1024 C 0.13085 0.72538 0.23735 0.0
H1025 H 0.22611 0.79757 0.24409 0.0
C1026 C 0.11706 0.71836 0.25073 0.0
C1027 C 0.1708 0.75488 0.23503 0.0
C1028 C 0.18756 0.76621 0.22102 0.0
C1029 C 0.1419 0.73896 0.26169 0.0
C1030 C 0.18192 0.76794 0.25937 0.0
C1031 C 0.19568 0.77519 0.24601 0.0
C1032 C 0.20977 0.79177 0.27055 0.0
C1033 C 0.12524 0.72869 0.27573 0.0
C1034 C 0.20206 0.81676 0.27871 0.0
C1035 C 0.23027 0.8426 0.28801 0.0
C1036 C 0.26694 0.84402 0.28955 0.0
C1037 C 0.27391 0.81774 0.28184 0.0
C1038 C 0.2458 0.79208 0.27246 0.0
H1039 H 0.09812 0.69918 0.27615 0.0
H1040 H 0.14732 0.72891 0.28283 0.0
H1041 H 0.1173 0.751 0.27917 0.0
H1042 H 0.17511 0.81803 0.27736 0.0
H1043 H 0.22454 0.8635 0.29336 0.0
H1044 H 0.45563 0.22136 0.46905 0.0
H1045 H 0.45699 0.17995 0.4507 0.0
H1046 H 0.41079 0.23352 0.42357 0.0
H1047 H 0.408 0.27368 0.4421 0.0
H1048 H 0.37227 0.15767 0.41961 0.0
H1049 H 0.53024 0.20121 0.42032 0.0
H1050 H 0.50767 0.18138 0.43624 0.0
H1051 H 0.51106 0.22666 0.43016 0.0
C1052 C 0.44706 0.22523 0.45906 0.0
C1053 C 0.43288 0.25175 0.45696 0.0
C1054 C 0.44765 0.20133 0.44852 0.0
C1055 C 0.43456 0.20364 0.43551 0.0
C1056 C 0.42123 0.23091 0.43339 0.0
H1057 H 0.48587 0.08947 0.3692 0.0
H1058 H 0.48058 0.1369 0.38325 0.0
C1059 C 0.42017 0.25439 0.44396 0.0
C1060 C 0.43305 0.17661 0.42432 0.0
H1061 H 0.48791 0.14287 0.40788 0.0
C1062 C 0.3977 0.15457 0.41705 0.0
C1063 C 0.46613 0.17262 0.42064 0.0
C1064 C 0.50597 0.19704 0.42717 0.0
C1065 C 0.39433 0.12852 0.40655 0.0
C1066 C 0.4269 0.12312 0.4033 0.0
C1067 C 0.46246 0.14588 0.41039 0.0
C1068 C 0.42539 0.09465 0.39261 0.0
C1069 C 0.35611 0.10807 0.39881 0.0
C1070 C 0.39544 0.05456 0.39239 0.0
C1071 C 0.39737 0.02736 0.38345 0.0
C1072 C 0.42935 0.0391 0.37448 0.0
C1073 C 0.45879 0.07931 0.37466 0.0
C1074 C 0.45651 0.10661 0.38331 0.0
H1075 H 0.34018 0.12514 0.3992 0.0
H1076 H 0.36126 0.10381 0.38812 0.0
H1077 H 0.33657 0.07868 0.40338 0.0
H1078 H 0.37171 0.04355 0.39968 0.0
H1079 H 0.37532 0.99637 0.38431 0.0
H1080 H 0.19906 0.46037 0.61408 0.0
H1081 H 0.24168 0.46412 0.59503 0.0
H1082 H 0.27325 0.38706 0.61608 0.0
H1083 H 0.23191 0.3839 0.63504 0.0
H1084 H 0.33128 0.48293 0.59547 0.0
H1085 H 0.22147 0.33224 0.57809 0.0
H1086 H 0.20763 0.36249 0.58797 0.0
H1087 H 0.23165 0.33857 0.59583 0.0
C1088 C 0.21583 0.44504 0.61477 0.0
C1089 C 0.21166 0.4216 0.62612 0.0
C1090 C 0.23995 0.44688 0.60381 0.0
C1091 C 0.26021 0.42519 0.60396 0.0
C1092 C 0.25757 0.40353 0.61555 0.0
H1093 H 0.40551 0.36666 0.55233 0.0
H1094 H 0.3557 0.36506 0.56788 0.0
C1095 C 0.23389 0.40189 0.62644 0.0
C1096 C 0.28354 0.42404 0.59206 0.0
H1097 H 0.28454 0.36193 0.56778 0.0
C1098 C 0.32084 0.4567 0.58929 0.0
C1099 C 0.27041 0.38958 0.5841 0.0
C1100 C 0.23051 0.35367 0.58652 0.0
C1101 C 0.34563 0.45551 0.5791 0.0
C1102 C 0.33246 0.42102 0.57104 0.0
C1103 C 0.29489 0.38848 0.57377 0.0
C1104 C 0.35775 0.41797 0.56007 0.0
C1105 C 0.38654 0.49075 0.57753 0.0
C1106 C 0.3742 0.44667 0.54989 0.0
C1107 C 0.40278 0.44757 0.54102 0.0
C1108 C 0.41471 0.4188 0.54153 0.0
C1109 C 0.39603 0.38839 0.55114 0.0
C1110 C 0.36779 0.38778 0.5602 0.0
H1111 H 0.39622 0.50904 0.58679 0.0
H1112 H 0.40859 0.48143 0.57512 0.0
H1113 H 0.38641 0.50975 0.56924 0.0
H1114 H 0.36678 0.47002 0.54927 0.0
H1115 H 0.41813 0.47327 0.5348 0.0
H1116 H 0.05918 0.4346 0.72362 0.0
H1117 H 1.01912 0.38622 0.74095 0.0
H1118 H 0.93006 0.31938 0.71142 0.0
H1119 H 0.96973 0.36805 0.69424 0.0
H1120 H 0.94042 0.3731 0.74708 0.0
H1121 H 0.93542 0.2321 0.73397 0.0
H1122 H 0.97445 0.27955 0.7282 0.0
H1123 H 0.92675 0.25721 0.72035 0.0
C1124 C 1.03221 0.40832 0.72066 0.0
C1125 C 1.01842 0.40469 0.70738 0.0
C1126 C 1.00881 0.38099 0.73066 0.0
C1127 C 0.97128 0.34884 0.72761 0.0
C1128 C 0.95897 0.3434 0.71412 0.0
H1129 H 0.77498 0.16503 0.77529 0.0
H1130 H 0.81702 0.20882 0.75719 0.0
C1131 C 0.98207 0.37106 0.70419 0.0
C1132 C 0.94334 0.32382 0.7386 0.0
H1133 H 0.8907 0.22906 0.75073 0.0
C1134 C 0.92989 0.34169 0.74794 0.0
C1135 C 0.92863 0.28255 0.73965 0.0
C1136 C 0.94216 0.26158 0.73009 0.0
C1137 C 0.90217 0.31968 0.75811 0.0
C1138 C 0.88794 0.27842 0.75936 0.0
C1139 C 0.90129 0.26052 0.74993 0.0
C1140 C 0.85995 0.25349 0.77044 0.0
C1141 C 0.88749 0.34088 0.76711 0.0
C1142 C 0.86913 0.26376 0.78406 0.0
C1143 C 0.84463 0.23898 0.7944 0.0
C1144 C 0.81016 0.20312 0.79148 0.0
C1145 C 0.80051 0.19307 0.77789 0.0
C1146 C 0.82497 0.21792 0.76753 0.0
H1147 H 0.88982 0.36746 0.7621 0.0
H1148 H 0.85622 0.32131 0.77013 0.0
H1149 H 0.90595 0.3509 0.7763 0.0
H1150 H 0.89627 0.29017 0.78676 0.0
H1151 H 0.85376 0.24685 0.80474 0.0
H1152 H 0.62467 0.9594 0.86092 0.0
H1153 H 0.63316 0.91898 0.878 0.0
H1154 H 0.66434 1.01195 0.90697 0.0
H1155 H 0.65521 0.05211 0.88986 0.0
H1156 H 0.68915 0.92235 0.89656 0.0
H1157 H 0.5638 0.9219 0.92322 0.0
H1158 H 0.57774 0.94069 0.90634 0.0
H1159 H 0.60538 0.97025 0.92045 0.0
C1160 C 0.63544 0.97216 0.87072 0.0
C1161 C 0.64018 1.00958 0.87384 0.0
C1162 C 0.63969 0.94863 0.88061 0.0
C1163 C 0.64828 0.96164 0.894 0.0
C1164 C 0.65685 1.00059 0.89684 0.0
H1165 H 0.64569 0.85281 0.97107 0.0
H1166 H 0.64579 0.89428 0.95253 0.0
C1167 C 0.65273 1.02416 0.88691 0.0
C1168 C 0.64471 0.9334 0.90506 0.0
H1169 H 0.59348 0.88935 0.93397 0.0
C1170 C 0.66817 0.91513 0.90471 0.0
C1171 C 0.61708 0.92327 0.91573 0.0
C1172 C 0.58925 0.93969 0.91645 0.0
C1173 C 0.66567 0.88838 0.91486 0.0
C1174 C 0.63821 0.87853 0.9256 0.0
C1175 C 0.61456 0.89656 0.92584 0.0
C1176 C 0.63472 0.85119 0.93698 0.0
C1177 C 0.69348 0.8719 0.91417 0.0
C1178 C 0.62674 0.81209 0.93472 0.0
C1179 C 0.62619 0.78801 0.94544 0.0
C1180 C 0.63315 0.80222 0.95872 0.0
C1181 C 0.63934 0.8406 0.96102 0.0
C1182 C 0.6398 0.86454 0.95035 0.0
H1183 H 0.71926 0.88995 0.90755 0.0
H1184 H 0.70453 0.87045 0.92431 0.0
H1185 H 0.67751 0.84149 0.91002 0.0
H1186 H 0.62174 0.80039 0.92461 0.0
H1187 H 0.62222 0.75899 0.94327 0.0
H1188 H 0.81953 0.65356 0.13865 0.0
H1189 H 0.77783 0.6508 0.11988 0.0
H1190 H 0.83872 0.60965 0.09393 0.0
H1191 H 0.88013 0.61167 0.11293 0.0
H1192 H 0.79912 0.69328 0.09754 0.0
H1193 H 0.72676 0.53549 0.08286 0.0
H1194 H 0.75355 0.55326 0.0984 0.0
H1195 H 0.77972 0.55902 0.0829 0.0
C1196 C 0.82337 0.64289 0.12902 0.0
C1197 C 0.85293 0.63232 0.12738 0.0
C1198 C 0.79964 0.64165 0.11822 0.0
C1199 C 0.80459 0.62986 0.10534 0.0
C1200 C 0.83339 0.6181 0.10374 0.0
H1201 H 0.6895 0.61409 0.02808 0.0
H1202 H 0.73842 0.62437 0.04529 0.0
C1203 C 0.85712 0.61913 0.11464 0.0
C1204 C 0.78112 0.63221 0.09363 0.0
H1205 H 0.71825 0.57859 0.06812 0.0
C1206 C 0.7814 0.66805 0.09115 0.0
C1207 C 0.75775 0.59957 0.08515 0.0
C1208 C 0.75401 0.55955 0.08751 0.0
C1209 C 0.75964 0.67222 0.08052 0.0
C1210 C 0.73631 0.6396 0.07207 0.0
C1211 C 0.73621 0.60385 0.07447 0.0
C1212 C 0.71102 0.64132 0.0609 0.0
C1213 C 0.76239 0.71186 0.07832 0.0
C1214 C 0.68008 0.64937 0.06354 0.0
C1215 C 0.65236 0.64422 0.05353 0.0
C1216 C 0.65479 0.63085 0.04061 0.0
C1217 C 0.6874 0.62572 0.03773 0.0
C1218 C 0.71507 0.63084 0.04771 0.0
H1219 H 0.78943 0.73619 0.08296 0.0
H1220 H 0.76245 0.71821 0.06744 0.0
H1221 H 0.73639 0.71162 0.08301 0.0
H1222 H 0.6755 0.65671 0.07363 0.0
H1223 H 0.62668 0.64658 0.05631 0.0
H1224 H 0.4263 0.95982 0.63252 0.0
H1225 H 0.37719 0.9146 0.61696 0.0
H1226 H 0.35127 1.00582 0.6051 0.0
H1227 H 0.40135 0.05172 0.62084 0.0
H1228 H 0.30121 0.88133 0.61138 0.0
H1229 H 0.38343 0.9836 0.56959 0.0
H1230 H 0.40201 0.99215 0.58654 0.0
H1231 H 0.36498 1.00465 0.58169 0.0
C1232 C 0.40845 0.96981 0.62745 0.0
C1233 C 0.4166 1.00924 0.62878 0.0
C1234 C 0.38076 0.94388 0.6181 0.0
C1235 C 0.36076 0.95661 0.60947 0.0
C1236 C 0.36679 0.99514 0.61133 0.0
H1237 H 0.1932 0.83385 0.54387 0.0
H1238 H 0.23893 0.88314 0.55992 0.0
C1239 C 0.39476 1.02122 0.62067 0.0
C1240 C 0.33586 0.93024 0.59813 0.0
H1241 H 0.32443 0.92531 0.56383 0.0
C1242 C 0.30645 0.89112 0.601 0.0
C1243 C 0.34252 0.94239 0.58444 0.0
C1244 C 0.37518 0.98282 0.58033 0.0
C1245 C 0.28357 0.86438 0.59077 0.0
C1246 C 0.2902 0.87659 0.57714 0.0
C1247 C 0.31924 0.91574 0.57423 0.0
C1248 C 0.26671 0.84923 0.56586 0.0
C1249 C 0.25192 0.82327 0.59469 0.0
C1250 C 0.26829 0.81447 0.5632 0.0
C1251 C 0.24268 0.7866 0.55376 0.0
C1252 C 0.2149 0.79279 0.54671 0.0
C1253 C 0.21502 0.82867 0.54881 0.0
C1254 C 0.24084 0.85667 0.55815 0.0
H1255 H 0.24457 0.82113 0.60555 0.0
H1256 H 0.22454 0.81411 0.5888 0.0
H1257 H 0.26252 0.8021 0.59251 0.0
H1258 H 0.28822 0.80806 0.56884 0.0
H1259 H 0.24259 0.75884 0.55272 0.0
H1260 H 0.45083 0.16865 0.72744 0.0
H1261 H 0.45173 0.20994 0.74641 0.0
H1262 H 0.42889 0.28204 0.71904 0.0
H1263 H 0.42766 0.24085 0.70024 0.0
H1264 H 0.49395 0.29324 0.75304 0.0
H1265 H 0.33489 0.24046 0.74513 0.0
H1266 H 0.36 0.21711 0.73735 0.0
H1267 H 0.36424 0.26165 0.73031 0.0
C1268 C 0.44731 0.19411 0.72545 0.0
C1269 C 0.43978 0.20178 0.71227 0.0
C1270 C 0.44744 0.21754 0.73633 0.0
C1271 C 0.43956 0.24886 0.7343 0.0
C1272 C 0.43431 0.25777 0.72102 0.0
H1273 H 0.40367 0.42225 0.77514 0.0
H1274 H 0.4034 0.37122 0.761 0.0
C1275 C 0.43416 0.23447 0.71021 0.0
C1276 C 0.4346 0.27101 0.74591 0.0
H1277 H 0.36882 0.29549 0.75972 0.0
C1278 C 0.46648 0.29345 0.75459 0.0
C1279 C 0.39866 0.27114 0.74816 0.0
C1280 C 0.36234 0.24601 0.73985 0.0
C1281 C 0.46411 0.3175 0.76486 0.0
C1282 C 0.42855 0.31888 0.76674 0.0
C1283 C 0.39627 0.29509 0.75837 0.0
C1284 C 0.42508 0.34728 0.77631 0.0
C1285 C 0.50038 0.34241 0.77321 0.0
C1286 C 0.43508 0.35015 0.79006 0.0
C1287 C 0.43529 0.37992 0.79828 0.0
C1288 C 0.42527 0.4074 0.793 0.0
C1289 C 0.41175 0.40187 0.77963 0.0
C1290 C 0.41187 0.37263 0.77143 0.0
H1291 H 0.52743 0.3449 0.76853 0.0
H1292 H 0.50478 0.37257 0.77472 0.0
H1293 H 0.49673 0.3284 0.78321 0.0
H1294 H 0.44358 0.32998 0.79441 0.0
H1295 H 0.44445 0.38194 0.80857 0.0
H1296 H 0.09695 0.47843 0.96538 0.0
H1297 H 0.14346 0.47485 0.94999 0.0
H1298 H 0.05383 0.35838 0.93787 0.0
H1299 H 1.00683 0.36206 0.95344 0.0
H1300 H 0.17606 0.42661 0.94454 0.0
H1301 H 0.07894 0.4212 0.90329 0.0
H1302 H 0.06589 0.42179 0.92062 0.0
H1303 H 0.05666 0.37633 0.91291 0.0
C1304 C 0.08765 0.4508 0.96028 0.0
C1305 C 0.04838 0.41945 0.9615 0.0
C1306 C 0.11432 0.44919 0.95109 0.0
C1307 C 0.10243 0.41654 0.94254 0.0
C1308 C 0.06397 0.38418 0.94421 0.0
H1309 H 0.19557 0.36606 0.87074 0.0
H1310 H 0.15794 0.3704 0.88933 0.0
C1311 C 1.0372 0.38592 0.95339 0.0
C1312 C 0.12906 0.41802 0.93123 0.0
H1313 H 0.13492 0.41514 0.89695 0.0
C1314 C 0.16705 0.42404 0.93412 0.0
C1315 C 0.11774 0.41487 0.91754 0.0
C1316 C 0.07775 0.40858 0.9134 0.0
C1317 C 0.19312 0.42541 0.92389 0.0
C1318 C 0.18191 0.42253 0.91016 0.0
C1319 C 0.14416 0.41743 0.90733 0.0
C1320 C 0.20687 0.42146 0.89859 0.0
C1321 C 0.23165 0.42817 0.92805 0.0
C1322 C 0.24757 0.44919 0.89702 0.0
C1323 C 0.27003 0.44589 0.88637 0.0
C1324 C 0.25224 0.41517 0.87686 0.0
C1325 C 0.21108 0.38935 0.87802 0.0
C1326 C 0.1891 0.39208 0.8887 0.0
H1327 H 0.23056 0.41842 0.93861 0.0
H1328 H 0.23925 0.40984 0.92148 0.0
H1329 H 0.25563 0.45941 0.92733 0.0
H1330 H 0.26221 0.47334 0.90404 0.0
H1331 H 0.30142 0.46666 0.88583 0.0
H1332 H 0.62209 0.9983 0.11197 0.0
H1333 H 0.67026 0.03758 0.09455 0.0
H1334 H 0.74057 0.12479 0.12418 0.0
H1335 H 0.69249 0.08541 0.14153 0.0
H1336 H 0.68366 0.11142 0.08761 0.0
H1337 H 0.82687 0.12374 0.10171 0.0
H1338 H 0.78044 0.08627 0.10868 0.0
H1339 H 0.80388 0.13593 0.11511 0.0
C1340 C 0.64922 1.02443 0.11494 0.0
C1341 C 0.65396 0.03784 0.12831 0.0
C1342 C 0.6764 0.04753 0.10487 0.0
C1343 C 0.70946 0.08451 0.10789 0.0
C1344 C 0.71599 0.09626 0.12146 0.0
H1345 H 0.88741 0.28329 0.05896 0.0
H1346 H 0.84417 0.24199 0.07735 0.0
C1347 C 0.68863 0.07327 0.13149 0.0
C1348 C 0.73418 0.1125 0.09682 0.0
H1349 H 0.82908 0.16874 0.08506 0.0
C1350 C 0.71544 0.12363 0.08702 0.0
C1351 C 0.77584 0.12929 0.09602 0.0
C1352 C 0.79798 0.11799 0.10586 0.0
C1353 C 0.73689 0.15097 0.07669 0.0
C1354 C 0.77853 0.16743 0.07579 0.0
C1355 C 0.79732 0.15651 0.08564 0.0
C1356 C 0.80289 0.19476 0.06449 0.0
C1357 C 0.71461 0.16271 0.06706 0.0
C1358 C 0.79429 0.18277 0.05099 0.0
C1359 C 0.8188 0.20658 0.04049 0.0
C1360 C 0.85268 0.24329 0.0431 0.0
C1361 C 0.8609 0.25585 0.05655 0.0
C1362 C 0.83639 0.23189 0.0671 0.0
H1363 H 0.68641 0.15802 0.07151 0.0
H1364 H 0.73258 0.19422 0.06403 0.0
H1365 H 0.70725 0.14414 0.05791 0.0
H1366 H 0.76951 0.15406 0.04856 0.0
H1367 H 0.81232 0.19539 0.03031 0.0
H1368 H 0.58038 0.62783 0.29816 0.0
H1369 H 0.58155 0.67598 0.28256 0.0
H1370 H 0.70425 0.7162 0.27397 0.0
H1371 H 0.70249 0.66626 0.28947 0.0
H1372 H 0.61404 0.75002 0.27853 0.0
H1373 H 0.66581 0.69276 0.23697 0.0
H1374 H 0.65669 0.67122 0.25349 0.0
H1375 H 0.70264 0.7153 0.24976 0.0
C1376 C 0.6084 0.64824 0.29367 0.0
C1377 C 0.64198 0.64407 0.29583 0.0
C1378 C 0.60879 0.67558 0.28435 0.0
C1379 C 0.64268 0.69966 0.27664 0.0
C1380 C 0.67712 0.69743 0.27936 0.0
H1381 H 0.6904 0.87946 0.21493 0.0
H1382 H 0.6932 0.832 0.23049 0.0
C1383 C 0.67649 0.66947 0.28858 0.0
C1384 C 0.64091 0.72561 0.26558 0.0
H1385 H 0.66023 0.74976 0.23212 0.0
C1386 C 0.62401 0.74961 0.26839 0.0
C1387 C 0.65371 0.72561 0.25216 0.0
C1388 C 0.67032 0.69954 0.24788 0.0
C1389 C 0.62012 0.7735 0.25846 0.0
C1390 C 0.63295 0.77349 0.24511 0.0
C1391 C 0.6501 0.74983 0.24227 0.0
C1392 C 0.63019 0.79894 0.23415 0.0
C1393 C 0.60311 0.79943 0.26249 0.0
C1394 C 0.59368 0.79537 0.23031 0.0
C1395 C 0.59199 0.82225 0.22116 0.0
C1396 C 0.62675 0.85332 0.21554 0.0
C1397 C 0.66296 0.85537 0.21879 0.0
C1398 C 0.66462 0.82842 0.22784 0.0
H1399 H 0.60367 0.80346 0.27355 0.0
H1400 H 0.61963 0.82899 0.25766 0.0
H1401 H 0.57187 0.78542 0.25916 0.0
H1402 H 0.56647 0.77259 0.23476 0.0
H1403 H 0.56374 0.82033 0.21919 0.0
H1404 H 0.97241 0.56932 0.46461 0.0
H1405 H 0.927 0.57547 0.4496 0.0
H1406 H 1.01598 0.69523 0.44052 0.0
H1407 H 0.06203 0.68896 0.45573 0.0
H1408 H 0.89336 0.62352 0.44542 0.0
H1409 H 0.99659 0.63994 0.40453 0.0
H1410 H 1.00754 0.63586 0.42184 0.0
H1411 H 1.01656 0.68253 0.41524 0.0
C1412 C 0.9817 0.59808 0.46037 0.0
C1413 C 1.02056 0.62956 0.46234 0.0
C1414 C 0.95566 0.60122 0.45136 0.0
C1415 C 0.96779 0.63568 0.44372 0.0
C1416 C 1.00569 0.66811 0.44619 0.0
H1417 H 0.87965 0.69405 0.37248 0.0
H1418 H 0.91579 0.68875 0.39128 0.0
C1419 C 1.03186 0.66484 0.4552 0.0
C1420 C 0.94227 0.63594 0.43239 0.0
H1421 H 0.94001 0.64462 0.39822 0.0
C1422 C 0.90358 0.62828 0.43509 0.0
C1423 C 0.95521 0.64189 0.41883 0.0
C1424 C 0.99609 0.65012 0.41492 0.0
C1425 C 0.87828 0.62789 0.4248 0.0
C1426 C 0.89109 0.63348 0.41118 0.0
C1427 C 0.92958 0.64028 0.40853 0.0
C1428 C 0.86691 0.6355 0.39958 0.0
C1429 C 0.83876 0.62312 0.42881 0.0
C1430 C 0.82675 0.60705 0.39745 0.0
C1431 C 0.80501 0.61095 0.38673 0.0
C1432 C 0.82303 0.64302 0.37769 0.0
C1433 C 0.86377 0.66978 0.37943 0.0
C1434 C 0.88498 0.66645 0.39021 0.0
H1435 H 0.83847 0.63109 0.43951 0.0
H1436 H 0.83097 0.6418 0.42251 0.0
H1437 H 0.81562 0.59173 0.42756 0.0
H1438 H 0.812 0.58178 0.40406 0.0
H1439 H 0.77395 0.58938 0.38575 0.0
H1440 H 0.61448 0.68024 0.34128 0.0
H1441 H 0.59802 0.73305 0.34365 0.0
H1442 H 0.5007 0.67176 0.31644 0.0
H1443 H 0.51729 0.61868 0.31408 0.0
H1444 H 0.59716 0.7886 0.32894 0.0
H1445 H 0.44062 0.69612 0.34335 0.0
H1446 H 0.47385 0.67639 0.34247 0.0
H1447 H 0.45155 0.68214 0.32743 0.0
C1448 C 0.58931 0.67736 0.3358 0.0
C1449 C 0.56745 0.6436 0.32754 0.0
C1450 C 0.57973 0.70837 0.33716 0.0
C1451 C 0.54719 0.70777 0.3305 0.0
C1452 C 0.52529 0.67403 0.32218 0.0
H1453 H 0.52554 0.92925 0.32031 0.0
H1454 H 0.54095 0.87544 0.31818 0.0
C1455 C 0.53509 0.64305 0.32074 0.0
C1456 C 0.53725 0.74229 0.3321 0.0
H1457 H 0.4618 0.76349 0.33855 0.0
C1458 C 0.56733 0.78253 0.33102 0.0
C1459 C 0.49869 0.73657 0.33508 0.0
C1460 C 0.46435 0.69556 0.3373 0.0
C1461 C 0.56031 0.81545 0.33248 0.0
C1462 C 0.52156 0.80972 0.33507 0.0
C1463 C 0.4916 0.76951 0.33644 0.0
C1464 C 0.51183 0.84443 0.33647 0.0
C1465 C 0.59543 0.85654 0.33158 0.0
C1466 C 0.48898 0.84678 0.34726 0.0
C1467 C 0.47997 0.87833 0.3485 0.0
C1468 C 0.49299 0.90955 0.33897 0.0
C1469 C 0.51512 0.90682 0.32808 0.0
C1470 C 0.52438 0.87554 0.3269 0.0
H1471 H 0.62337 0.85679 0.33406 0.0
H1472 H 0.5981 0.86768 0.32116 0.0
H1473 H 0.59213 0.87712 0.33847 0.0
H1474 H 0.47804 0.82405 0.35493 0.0
H1475 H 0.46204 0.87781 0.3569 0.0
H1476 H 0.61689 0.50443 0.48601 0.0
H1477 H 0.68603 0.52061 0.48382 0.0
H1478 H 0.67663 0.46 0.52095 0.0
H1479 H 0.60729 0.44452 0.52324 0.0
H1480 H 0.74861 0.517 0.52077 0.0
H1481 H 0.73496 0.4628 0.46896 0.0
H1482 H 0.7231 0.50172 0.46986 0.0
H1483 H 0.69245 0.45553 0.47846 0.0
C1484 C 0.62926 0.49441 0.4938 0.0
C1485 C 0.60513 0.47336 0.50494 0.0
C1486 C 0.66957 0.50342 0.49244 0.0
C1487 C 0.68855 0.49105 0.50194 0.0
C1488 C 0.66446 0.47035 0.51321 0.0
H1489 H 0.91913 0.49425 0.48073 0.0
H1490 H 0.84968 0.47771 0.48377 0.0
C1491 C 0.62404 0.46152 0.51461 0.0
C1492 C 0.73261 0.4998 0.50021 0.0
H1493 H 0.80052 0.50034 0.47728 0.0
C1494 C 0.75943 0.51312 0.51117 0.0
C1495 C 0.7489 0.49459 0.48792 0.0
C1496 C 0.7233 0.47749 0.47567 0.0
C1497 C 0.79998 0.52174 0.51022 0.0
C1498 C 0.81678 0.5183 0.49777 0.0
C1499 C 0.7897 0.50411 0.48689 0.0
C1500 C 0.8613 0.52861 0.49589 0.0
C1501 C 0.82393 0.53321 0.52296 0.0
C1502 C 0.89377 0.56337 0.50124 0.0
C1503 C 0.93409 0.57274 0.49956 0.0
C1504 C 0.94535 0.54837 0.49231 0.0
C1505 C 0.9131 0.51405 0.48662 0.0
C1506 C 0.87253 0.50454 0.48834 0.0
H1507 H 0.80465 0.52142 0.53197 0.0
H1508 H 0.84532 0.52216 0.52306 0.0
H1509 H 0.84046 0.56592 0.52382 0.0
H1510 H 0.88828 0.58437 0.50658 0.0
H1511 H 0.95672 0.60018 0.50376 0.0
H1512 H 0.44493 0.90802 0.64761 0.0
H1513 H 0.39117 0.83902 0.65021 0.0
H1514 H 0.32836 0.8784 0.67575 0.0
H1515 H 0.38158 0.94679 0.67313 0.0
H1516 H 0.35618 0.78296 0.66914 0.0
H1517 H 0.23631 0.80989 0.65295 0.0
H1518 H 0.28763 0.84707 0.65126 0.0
H1519 H 0.26255 0.83974 0.66712 0.0
C1520 C 0.41987 0.90236 0.65386 0.0
C1521 C 0.41912 0.9349 0.66011 0.0
C1522 C 0.38839 0.86202 0.65536 0.0
C1523 C 0.35351 0.8513 0.66303 0.0
C1524 C 0.35317 0.88386 0.66942 0.0
H1525 H 0.13452 0.60881 0.65263 0.0
H1526 H 0.18834 0.67784 0.65085 0.0
C1527 C 0.38467 0.924 0.668 0.0
C1528 C 0.31848 0.80708 0.66444 0.0
H1529 H 0.21624 0.74691 0.66262 0.0
C1530 C 0.32572 0.77564 0.66769 0.0
C1531 C 0.27749 0.79492 0.66246 0.0
C1532 C 0.26538 0.8245 0.65812 0.0
C1533 C 0.29492 0.73486 0.66923 0.0
C1534 C 0.25383 0.7229 0.66766 0.0
C1535 C 0.24668 0.75422 0.66412 0.0
C1536 C 0.21862 0.67878 0.66918 0.0
C1537 C 0.30735 0.70459 0.67215 0.0
C1538 C 0.21469 0.65361 0.6802 0.0
C1539 C 0.183 0.61331 0.68128 0.0
C1540 C 0.15267 0.59533 0.67149 0.0
C1541 C 0.15636 0.62046 0.66055 0.0
C1542 C 0.1878 0.6608 0.65953 0.0
H1543 H 0.33841 0.71518 0.66901 0.0
H1544 H 0.30538 0.69896 0.68313 0.0
H1545 H 0.28798 0.67625 0.66695 0.0
H1546 H 0.2362 0.66511 0.68821 0.0
H1547 H 0.18271 0.59589 0.68981 0.0
H1548 H 0.55499 0.43119 0.81108 0.0
H1549 H 0.57121 0.37774 0.81367 0.0
H1550 H 0.47923 0.32216 0.84328 0.0
H1551 H 0.46326 0.37519 0.84074 0.0
H1552 H 0.59853 0.34721 0.83271 0.0
H1553 H 0.44882 0.22519 0.82166 0.0
H1554 H 0.46244 0.27623 0.81899 0.0
H1555 H 0.44919 0.25477 0.83553 0.0
C1556 C 0.53816 0.40787 0.81825 0.0
C1557 C 0.50743 0.409 0.82568 0.0
C1558 C 0.54755 0.37658 0.81974 0.0
C1559 C 0.52644 0.34382 0.82856 0.0
C1560 C 0.4961 0.34533 0.83608 0.0
H1561 H 0.54936 0.12308 0.81939 0.0
H1562 H 0.53354 0.17683 0.81739 0.0
C1563 C 0.48698 0.37668 0.83468 0.0
C1564 C 0.53609 0.30898 0.83 0.0
H1565 H 0.4942 0.20653 0.83021 0.0
C1566 C 0.57532 0.31659 0.83216 0.0
C1567 C 0.50707 0.26781 0.82916 0.0
C1568 C 0.46459 0.25533 0.82608 0.0
C1569 C 0.58572 0.28592 0.83372 0.0
C1570 C 0.55652 0.24473 0.83329 0.0
C1571 C 0.51741 0.23715 0.83082 0.0
C1572 C 0.56589 0.20974 0.83492 0.0
C1573 C 0.62879 0.29847 0.83545 0.0
C1574 C 0.58909 0.20748 0.84559 0.0
C1575 C 0.59798 0.17584 0.84682 0.0
C1576 C 0.58404 0.14402 0.83754 0.0
C1577 C 0.5608 0.14615 0.82692 0.0
C1578 C 0.55155 0.17751 0.82577 0.0
H1579 H 0.64825 0.32888 0.83158 0.0
H1580 H 0.63515 0.29837 0.84631 0.0
H1581 H 0.63643 0.27798 0.8302 0.0
H1582 H 0.60039 0.23026 0.8532 0.0
H1583 H 0.61644 0.17665 0.85507 0.0
H1584 H 0.14733 0.5466 0.98107 0.0
H1585 H 0.21673 0.56283 0.98372 0.0
H1586 H 0.17928 0.46152 0.00938 0.0
H1587 H 0.11037 0.44528 0.00667 0.0
H1588 H 0.27244 0.58495 0.00247 0.0
H1589 H 0.24995 0.4394 0.98695 0.0
H1590 H 0.2117 0.4524 0.98516 0.0
H1591 H 0.21969 0.43558 1.00111 0.0
C1592 C 0.1535 0.52759 0.98735 0.0
C1593 C 0.12137 0.49421 0.99361 0.0
C1594 C 0.19407 0.53703 0.98889 0.0
C1595 C 0.20546 0.51346 0.99661 0.0
C1596 C 0.17329 0.48044 0.003 0.0
H1597 H 0.45065 0.5412 0.98645 0.0
H1598 H 0.38109 0.52478 0.98464 0.0
C1599 C 0.13287 0.47117 0.00154 0.0
C1600 C 0.24998 0.52342 0.99806 0.0
H1601 H 0.31242 0.48325 0.99655 0.0
C1602 C 0.28063 0.56229 1.00116 0.0
C1603 C 0.26324 0.49523 0.99624 0.0
C1604 C 0.23459 0.45343 0.99205 0.0
C1605 C 0.3217 0.57305 0.00269 0.0
C1606 C 0.33475 0.54458 1.0013 0.0
C1607 C 0.30423 0.5059 0.99792 0.0
C1608 C 0.37921 0.55434 0.00282 0.0
C1609 C 0.35106 0.61584 0.0054 0.0
C1610 C 0.40404 0.57621 0.01376 0.0
C1611 C 0.44465 0.58555 0.01485 0.0
C1612 C 0.46325 0.57331 0.00516 0.0
C1613 C 0.43849 0.55132 0.99429 0.0
C1614 C 0.39785 0.5417 0.99326 0.0
H1615 H 0.33966 0.63563 0.00212 0.0
H1616 H 0.35664 0.62005 0.01636 0.0
H1617 H 0.37957 0.62506 1.00019 0.0
H1618 H 0.39203 0.58614 0.02169 0.0
H1619 H 0.46179 0.60311 0.0233 0.0
H1620 H 0.88397 0.45481 0.18952 0.0
H1621 H 0.82961 0.38617 0.18786 0.0
H1622 H 0.87284 0.37544 0.14919 0.0
H1623 H 0.92679 0.44425 0.15086 0.0
H1624 H 0.79835 0.33508 0.14642 0.0
H1625 H 0.81472 0.28169 0.19591 0.0
H1626 H 0.80695 0.32328 0.19741 0.0
H1627 H 0.85093 0.329 0.18928 0.0
C1628 C 0.88281 0.43775 0.18078 0.0
C1629 C 0.91183 0.45627 0.17056 0.0
C1630 C 0.85096 0.39751 0.17977 0.0
C1631 C 0.84575 0.37284 0.16845 0.0
C1632 C 0.87458 0.39184 0.15818 0.0
H1633 H 0.68753 0.1058 0.16919 0.0
H1634 H 0.73984 0.17451 0.17169 0.0
C1635 C 0.90625 0.43201 0.15918 0.0
C1636 C 0.81056 0.32866 0.16705 0.0
H1637 H 0.75665 0.23898 0.18389 0.0
C1638 C 0.78964 0.3145 0.15475 0.0
C1639 C 0.79764 0.29937 0.17749 0.0
C1640 C 0.81887 0.30881 0.19074 0.0
C1641 C 0.75772 0.27451 0.15276 0.0
C1642 C 0.74398 0.24567 0.16336 0.0
C1643 C 0.76529 0.25962 0.17557 0.0
C1644 C 0.70927 0.20137 0.16194 0.0
C1645 C 0.74001 0.26339 0.13892 0.0
C1646 C 0.67213 0.19028 0.1558 0.0
C1647 C 0.64111 0.14975 0.15449 0.0
C1648 C 0.6447 0.1173 0.15938 0.0
C1649 C 0.68166 0.12849 0.16559 0.0
C1650 C 0.71256 0.16886 0.16693 0.0
H1651 H 0.76083 0.28321 0.13111 0.0
H1652 H 0.73173 0.23245 0.13641 0.0
H1653 H 0.71308 0.26631 0.1385 0.0
H1654 H 0.66653 0.21312 0.15204 0.0
H1655 H 0.614 0.14391 0.14955 0.0
H1656 H 0.13278 0.53514 0.51601 0.0
H1657 H 0.18755 0.52094 0.51793 0.0
H1658 H 0.23657 0.58326 0.48089 0.0
H1659 H 0.18221 0.59815 0.47919 0.0
H1660 H 0.2165 0.48109 0.50599 0.0
H1661 H 0.33745 0.63494 0.50065 0.0
H1662 H 0.28666 0.62302 0.50249 0.0
H1663 H 0.30534 0.61892 0.48635 0.0
C1664 C 0.15517 0.54604 0.50822 0.0
C1665 C 0.15168 0.56775 0.49734 0.0
C1666 C 0.18708 0.53768 0.50931 0.0
C1667 C 0.21836 0.55127 0.49977 0.0
C1668 C 0.21463 0.57277 0.48881 0.0
H1669 H 0.44452 0.54839 0.52186 0.0
H1670 H 0.3905 0.56372 0.51916 0.0
C1671 C 0.18252 0.58092 0.48768 0.0
C1672 C 0.2538 0.5427 0.50132 0.0
H1673 H 0.35622 0.58544 0.50027 0.0
C1674 C 0.2469 0.5043 0.50468 0.0
C1675 C 0.29474 0.57202 0.49999 0.0
C1676 C 0.30669 0.61461 0.49731 0.0
C1677 C 0.27796 0.49464 0.50639 0.0
C1678 C 0.31883 0.52365 0.50462 0.0
C1679 C 0.32581 0.56225 0.50155 0.0
C1680 C 0.35404 0.5147 0.50604 0.0
C1681 C 0.26622 0.45301 0.51057 0.0
C1682 C 0.35433 0.48241 0.49948 0.0
C1683 C 0.38585 0.4737 0.50097 0.0
C1684 C 0.41966 0.49666 0.50908 0.0
C1685 C 0.41993 0.52953 0.51544 0.0
C1686 C 0.38834 0.5384 0.51389 0.0
H1687 H 0.23697 0.43832 0.51567 0.0
H1688 H 0.2639 0.43541 0.50151 0.0
H1689 H 0.28838 0.45248 0.51745 0.0
H1690 H 0.32996 0.46354 0.49298 0.0
H1691 H 0.38322 0.44817 0.49577 0.0
H1692 H 0.60782 0.17385 0.64614 0.0
H1693 H 0.67701 0.22788 0.64771 0.0
H1694 H 0.6892 0.18036 0.68526 0.0
H1695 H 0.62073 0.1262 0.68348 0.0
H1696 H 0.72137 0.2902 0.66272 0.0
H1697 H 0.79063 0.19822 0.67069 0.0
H1698 H 0.73937 0.17699 0.66611 0.0
H1699 H 0.75432 0.18909 0.68338 0.0
C1700 C 0.62531 0.17411 0.65462 0.0
C1701 C 0.60748 0.14371 0.66445 0.0
C1702 C 0.66558 0.20592 0.65563 0.0
C1703 C 0.69092 0.20951 0.66652 0.0
C1704 C 0.67263 0.17931 0.67642 0.0
H1705 H 0.91878 0.44061 0.68614 0.0
H1706 H 0.84992 0.38722 0.68384 0.0
C1707 C 0.63245 0.14778 0.67544 0.0
C1708 C 0.7351 0.24459 0.66771 0.0
H1709 H 0.83141 0.267 0.67501 0.0
C1710 C 0.74509 0.28456 0.66542 0.0
C1711 C 0.76819 0.23949 0.67102 0.0
C1712 C 0.76281 0.19866 0.67281 0.0
C1713 C 0.78476 0.31778 0.66655 0.0
C1714 C 0.81762 0.31278 0.67033 0.0
C1715 C 0.80773 0.27272 0.67232 0.0
C1716 C 0.8618 0.34772 0.67185 0.0
C1717 C 0.79097 0.35823 0.6632 0.0
C1718 C 0.89447 0.34551 0.66641 0.0
C1719 C 0.93472 0.37672 0.66778 0.0
C1720 C 0.94565 0.41257 0.67479 0.0
C1721 C 0.9131 0.41472 0.68039 0.0
C1722 C 0.8727 0.38348 0.67898 0.0
H1723 H 0.76724 0.35641 0.65655 0.0
H1724 H 0.79027 0.37315 0.67261 0.0
H1725 H 0.81989 0.37674 0.65817 0.0
H1726 H 0.88899 0.31927 0.66091 0.0
H1727 H 0.95752 0.37215 0.66341 0.0
H1728 H 0.61204 0.94777 0.83097 0.0
H1729 H 0.59558 0.87882 0.82826 0.0
H1730 H 0.48708 0.8412 0.84994 0.0
H1731 H 0.50345 0.91057 0.85248 0.0
H1732 H 0.58753 0.81986 0.84266 0.0
H1733 H 0.438 0.76061 0.82164 0.0
H1734 H 0.47075 0.81298 0.82369 0.0
H1735 H 0.44254 0.78304 0.83774 0.0
C1736 C 0.5842 0.92523 0.83501 0.0
C1737 C 0.55919 0.93672 0.84176 0.0
C1738 C 0.5747 0.88475 0.83352 0.0
C1739 C 0.53919 0.85239 0.83856 0.0
C1740 C 0.51417 0.86381 0.84541 0.0
H1741 H 0.45915 0.59857 0.81177 0.0
H1742 H 0.47554 0.66839 0.81342 0.0
C1743 C 0.52383 0.90446 0.84697 0.0
C1744 C 0.52945 0.80796 0.83692 0.0
H1745 H 0.45631 0.71306 0.82805 0.0
C1746 C 0.5586 0.79689 0.83946 0.0
C1747 C 0.49217 0.77605 0.8325 0.0
C1748 C 0.45915 0.78367 0.82859 0.0
C1749 C 0.5518 0.75704 0.83809 0.0
C1750 C 0.51414 0.72487 0.8341 0.0
C1751 C 0.48522 0.73606 0.83126 0.0
C1752 C 0.50446 0.68038 0.8328 0.0
C1753 C 0.58622 0.75037 0.84059 0.0
C1754 C 0.51413 0.66086 0.84296 0.0
C1755 C 0.50485 0.62037 0.84192 0.0
C1756 C 0.48556 0.59629 0.8306 0.0
C1757 C 0.47524 0.61536 0.82049 0.0
C1758 C 0.48435 0.65598 0.82156 0.0
H1759 H 0.6149 0.77781 0.8389 0.0
H1760 H 0.58547 0.74135 0.85121 0.0
H1761 H 0.58501 0.72685 0.834 0.0
H1762 H 0.52827 0.67668 0.85205 0.0
H1763 H 0.51281 0.60764 0.85019 0.0
H1764 H 0.61858 0.49439 0.01986 0.0
H1765 H 0.67224 0.47852 0.01728 0.0
H1766 H 0.73882 0.58445 0.99399 0.0
H1767 H 0.68595 0.6004 0.99672 0.0
H1768 H 0.70929 0.46012 0.99849 0.0
H1769 H 0.82752 0.60269 0.01752 0.0
H1770 H 0.77615 0.58929 0.0186 0.0
H1771 H 0.80341 0.60917 0.00322 0.0
C1772 C 0.64444 0.51447 0.0141 0.0
C1773 C 0.64634 0.54902 0.00848 0.0
C1774 C 0.67585 0.50525 0.01261 0.0
C1775 C 0.7117 0.53024 0.00561 0.0
C1776 C 0.71317 0.56437 0.99982 0.0
H1777 H 0.88493 0.4473 0.97885 0.0
H1778 H 0.83121 0.46334 0.98021 0.0
C1779 C 0.68182 0.57344 1.00125 0.0
C1780 C 0.74667 0.52075 0.00427 0.0
H1781 H 0.84853 0.56112 0.00721 0.0
C1782 C 0.7396 0.4826 1.00043 0.0
C1783 C 0.7874 0.54873 0.00688 0.0
C1784 C 0.79918 0.58962 0.01192 0.0
C1785 C 0.77041 0.47238 0.99893 0.0
C1786 C 0.81128 0.50075 1.00113 0.0
C1787 C 0.81823 0.53864 0.00523 0.0
C1788 C 0.84646 0.49158 0.99976 0.0
C1789 C 0.75822 0.43025 0.99538 0.0
C1790 C 0.87594 0.50264 0.00982 0.0
C1791 C 0.90745 0.4936 0.00893 0.0
C1792 C 0.91256 0.47385 0.99775 0.0
C1793 C 0.88352 0.46317 0.98757 0.0
C1794 C 0.85171 0.47193 0.9885 0.0
H1795 H 0.72681 0.40975 0.99802 0.0
H1796 H 0.7615 0.42814 0.98438 0.0
H1797 H 0.7769 0.42023 1.0006 0.0
H1798 H 0.87426 0.51781 0.01869 0.0
H1799 H 0.92824 0.50236 0.01716 0.0
H1800 H 0.44647 0.93685 0.17612 0.0
H1801 H 0.37608 0.88653 0.1785 0.0
H1802 H 0.39179 0.81259 0.14991 0.0
H1803 H 0.46162 0.86312 0.1474 0.0
H1804 H 0.32049 0.79964 0.1454 0.0
H1805 H 0.3226 0.78982 0.20061 0.0
H1806 H 0.33545 0.83843 0.19488 0.0
H1807 H 0.36722 0.81833 0.19099 0.0
C1808 C 0.43496 0.91046 0.17001 0.0
C1809 C 0.46098 0.90602 0.16104 0.0
C1810 C 0.39402 0.88054 0.17163 0.0
C1811 C 0.37645 0.84368 0.16463 0.0
C1812 C 0.4026 0.83966 0.15561 0.0
H1813 H 0.14692 0.62197 0.18856 0.0
H1814 H 0.21573 0.67569 0.18574 0.0
C1815 C 0.44338 0.86931 0.15409 0.0
C1816 C 0.33201 0.80965 0.16655 0.0
H1817 H 0.25995 0.75319 0.19026 0.0
C1818 C 0.30773 0.78995 0.15531 0.0
C1819 C 0.31323 0.79471 0.17932 0.0
C1820 C 0.33596 0.81104 0.19215 0.0
C1821 C 0.26737 0.75804 0.15635 0.0
C1822 C 0.24824 0.74378 0.1691 0.0
C1823 C 0.27271 0.763 0.18036 0.0
C1824 C 0.20398 0.70927 0.17091 0.0
C1825 C 0.246 0.73898 0.14351 0.0
C1826 C 0.1716 0.70804 0.16385 0.0
C1827 C 0.13146 0.67677 0.16553 0.0
C1828 C 0.12044 0.6442 0.17438 0.0
C1829 C 0.15272 0.6454 0.1815 0.0
C1830 C 0.19294 0.67694 0.1799 0.0
H1831 H 0.26702 0.74366 0.13522 0.0
H1832 H 0.22609 0.70669 0.14483 0.0
H1833 H 0.22797 0.75252 0.14042 0.0
H1834 H 0.17705 0.73199 0.15709 0.0
H1835 H 0.10877 0.67855 0.15984 0.0
H1836 H 0.5593 0.44411 0.35174 0.0
H1837 H 0.54213 0.37456 0.35346 0.0
H1838 H 0.6006 0.38425 0.31579 0.0
H1839 H 0.61698 0.45401 0.31398 0.0
H1840 H 0.54311 0.31218 0.31608 0.0
H1841 H 0.6008 0.32539 0.36732 0.0
H1842 H 0.56201 0.33748 0.36696 0.0
H1843 H 0.60759 0.36801 0.35802 0.0
C1844 C 0.56832 0.4316 0.34367 0.0
C1845 C 0.58889 0.45589 0.33251 0.0
C1846 C 0.55887 0.3911 0.34478 0.0
C1847 C 0.57052 0.37215 0.33501 0.0
C1848 C 0.59075 0.39639 0.32372 0.0
H1849 H 0.5674 0.14094 0.35492 0.0
H1850 H 0.58419 0.21052 0.35204 0.0
C1851 C 0.59999 0.43701 0.32257 0.0
C1852 C 0.56172 0.32803 0.33654 0.0
H1853 H 0.56242 0.25986 0.35904 0.0
C1854 C 0.54757 0.30126 0.32556 0.0
C1855 C 0.56769 0.31163 0.34866 0.0
C1856 C 0.58575 0.33718 0.36087 0.0
C1857 C 0.53885 0.26065 0.32635 0.0
C1858 C 0.54304 0.24373 0.33865 0.0
C1859 C 0.55806 0.27077 0.34954 0.0
C1860 C 0.53266 0.19915 0.34037 0.0
C1861 C 0.52646 0.23674 0.31359 0.0
C1862 C 0.49751 0.16678 0.3352 0.0
C1863 C 0.48802 0.12639 0.33677 0.0
C1864 C 0.51265 0.11495 0.34372 0.0
C1865 C 0.5474 0.14711 0.34923 0.0
C1866 C 0.55704 0.18775 0.34761 0.0
H1867 H 0.53774 0.25607 0.30458 0.0
H1868 H 0.53735 0.21524 0.31323 0.0
H1869 H 0.49371 0.22035 0.31299 0.0
H1870 H 0.47628 0.1724 0.3301 0.0
H1871 H 0.46023 0.10385 0.33277 0.0
H1872 H 0.18058 0.72955 0.47006 0.0
H1873 H 0.22642 0.77633 0.45334 0.0
H1874 H 0.20387 0.67923 0.42719 0.0
H1875 H 0.15882 0.63271 0.44377 0.0
H1876 H 0.28041 0.7305 0.42699 0.0
H1877 H 0.20229 0.8152 0.41918 0.0
H1878 H 0.21637 0.81511 0.43632 0.0
H1879 H 0.18072 0.76953 0.42856 0.0
C1880 C 0.18545 0.71805 0.46078 0.0
C1881 C 0.16577 0.67688 0.45848 0.0
C1882 C 0.21153 0.74504 0.45109 0.0
C1883 C 0.21856 0.7318 0.43872 0.0
C1884 C 0.19933 0.69071 0.43653 0.0
H1885 H 0.33004 0.87818 0.36608 0.0
H1886 H 0.28338 0.83167 0.38274 0.0
C1887 C 0.1734 0.66386 0.44616 0.0
C1888 C 0.24621 0.76012 0.42813 0.0
H1889 H 0.26507 0.84056 0.40861 0.0
C1890 C 0.27688 0.75451 0.42302 0.0
C1891 C 0.24173 0.79134 0.42257 0.0
C1892 C 0.20829 0.79803 0.42682 0.0
C1893 C 0.30309 0.7791 0.41287 0.0
C1894 C 0.29952 0.81119 0.40765 0.0
C1895 C 0.26844 0.81643 0.41257 0.0
C1896 C 0.32801 0.83972 0.39729 0.0
C1897 C 0.33388 0.76968 0.40762 0.0
C1898 C 0.36895 0.86061 0.39975 0.0
C1899 C 0.39569 0.88706 0.39021 0.0
C1900 C 0.38267 0.89399 0.37779 0.0
C1901 C 0.34156 0.87352 0.37538 0.0
C1902 C 0.31469 0.8469 0.38498 0.0
H1903 H 0.32515 0.7382 0.40939 0.0
H1904 H 0.33901 0.77589 0.39669 0.0
H1905 H 0.36217 0.78819 0.41295 0.0
H1906 H 0.3804 0.85693 0.40922 0.0
H1907 H 0.42673 0.90265 0.39276 0.0
H1908 H 0.54895 0.41565 0.55933 0.0
H1909 H 0.54977 0.37011 0.57599 0.0
H1910 H 0.4769 0.27157 0.55031 0.0
H1911 H 0.47554 0.3172 0.53357 0.0
H1912 H 0.45106 0.25449 0.57571 0.0
H1913 H 0.61281 0.31422 0.57647 0.0
H1914 H 0.59958 0.35131 0.58013 0.0
H1915 H 0.58898 0.32832 0.56383 0.0
C1916 C 0.53362 0.38442 0.55704 0.0
C1917 C 0.51278 0.37053 0.54486 0.0
C1918 C 0.53415 0.35817 0.56666 0.0
C1919 C 0.51414 0.31706 0.56444 0.0
C1920 C 0.49291 0.30302 0.55235 0.0
H1921 H 0.55171 0.14673 0.61103 0.0
H1922 H 0.55117 0.19231 0.5943 0.0
C1923 C 0.49225 0.3293 0.54272 0.0
C1924 C 0.51454 0.28887 0.57482 0.0
H1925 H 0.576 0.26921 0.594 0.0
C1926 C 0.47846 0.25774 0.57966 0.0
C1927 C 0.55011 0.29228 0.57997 0.0
C1928 C 0.59005 0.32306 0.57475 0.0
C1929 C 0.47695 0.23075 0.58951 0.0
C1930 C 0.51252 0.23511 0.59503 0.0
C1931 C 0.54858 0.26583 0.59002 0.0
C1932 C 0.51311 0.20753 0.60563 0.0
C1933 C 0.43706 0.19715 0.59362 0.0
C1934 C 0.49254 0.20086 0.6179 0.0
C1935 C 0.49281 0.17453 0.62759 0.0
C1936 C 0.51409 0.15437 0.62542 0.0
C1937 C 0.5353 0.16176 0.61326 0.0
C1938 C 0.53489 0.18793 0.60357 0.0
H1939 H 0.41426 0.19107 0.58587 0.0
H1940 H 0.4383 0.16961 0.59542 0.0
H1941 H 0.42749 0.20515 0.60305 0.0
H1942 H 0.47629 0.21614 0.62004 0.0
H1943 H 0.47619 0.16992 0.63679 0.0
H1944 H 0.32897 0.46908 0.80375 0.0
H1945 H 0.2822 0.46983 0.78751 0.0
H1946 H 0.37884 0.54427 0.76122 0.0
H1947 H 0.42574 0.54422 0.77749 0.0
H1948 H 0.3261 0.56915 0.76143 0.0
H1949 H 0.24435 0.40725 0.75346 0.0
H1950 H 0.24435 0.42063 0.7707 0.0
H1951 H 0.29015 0.43158 0.76267 0.0
C1952 C 0.34044 0.48578 0.79455 0.0
C1953 C 0.38153 0.50659 0.79207 0.0
C1954 C 0.31344 0.48589 0.78514 0.0
C1955 C 0.32651 0.50642 0.77286 0.0
C1956 C 0.36757 0.52797 0.77051 0.0
H1957 H 0.17768 0.46563 0.70167 0.0
H1958 H 0.22472 0.4683 0.71848 0.0
C1959 C 0.39458 0.52799 0.77992 0.0
C1960 C 0.29772 0.50567 0.76249 0.0
H1961 H 0.21663 0.44367 0.74366 0.0
C1962 C 0.3022 0.54162 0.75757 0.0
C1963 C 0.26666 0.46996 0.75713 0.0
C1964 C 0.26123 0.43017 0.76114 0.0
C1965 C 0.27662 0.54287 0.74772 0.0
C1966 C 0.24471 0.50714 0.74271 0.0
C1967 C 0.24056 0.4712 0.7475 0.0
C1968 C 0.21597 0.50626 0.73229 0.0
C1969 C 0.2849 0.58269 0.74253 0.0
C1970 C 0.19456 0.52636 0.73427 0.0
C1971 C 0.16766 0.52512 0.72454 0.0
C1972 C 0.16089 0.50334 0.71257 0.0
C1973 C 0.18201 0.4829 0.71067 0.0
C1974 C 0.20901 0.48431 0.72036 0.0
H1975 H 0.31619 0.6057 0.7442 0.0
H1976 H 0.27843 0.58151 0.73163 0.0
H1977 H 0.26593 0.59195 0.74797 0.0
H1978 H 0.19816 0.54265 0.74345 0.0
H1979 H 0.15174 0.54084 0.72654 0.0
H1980 H 0.63829 0.1446 0.89303 0.0
H1981 H 0.68316 0.19108 0.9098 0.0
H1982 H 0.78292 0.21499 0.8847 0.0
H1983 H 0.73831 0.1679 0.86805 0.0
H1984 H 0.79972 0.20734 0.90982 0.0
H1985 H 0.73894 0.3092 0.91035 0.0
H1986 H 0.70237 0.25926 0.91429 0.0
H1987 H 0.72484 0.271 0.89787 0.0
C1988 C 0.66974 0.15995 0.89098 0.0
C1989 C 0.68433 0.15239 0.87901 0.0
C1990 C 0.69556 0.1869 0.90061 0.0
C1991 C 0.73684 0.2076 0.89856 0.0
C1992 C 0.7514 0.19986 0.88665 0.0
H1993 H 0.9095 0.4169 0.94373 0.0
H1994 H 0.8628 0.37054 0.92735 0.0
C1995 C 0.72566 0.17281 0.87704 0.0
C1996 C 0.76492 0.23636 0.90889 0.0
H1997 H 0.78531 0.31864 0.92749 0.0
C1998 C 0.79645 0.23166 0.91363 0.0
C1999 C 0.7616 0.26882 0.91388 0.0
C2000 C 0.73038 0.27771 0.90875 0.0
C2001 C 0.82395 0.25769 0.92318 0.0
C2002 C 0.81977 0.28929 0.92853 0.0
C2003 C 0.78861 0.29436 0.92364 0.0
C2004 C 0.84783 0.31783 0.9389 0.0
C2005 C 0.85795 0.25158 0.92712 0.0
C2006 C 0.85499 0.30439 0.95116 0.0
C2007 C 0.88193 0.33104 0.96062 0.0
C2008 C 0.9024 0.37219 0.95822 0.0
C2009 C 0.89446 0.38566 0.94608 0.0
C2010 C 0.86759 0.35897 0.93662 0.0
H2011 H 0.86376 0.23444 0.91941 0.0
H2012 H 0.88545 0.28026 0.92865 0.0
H2013 H 0.85057 0.23463 0.93667 0.0
H2014 H 0.83962 0.27311 0.95349 0.0
H2015 H 0.88679 0.31922 0.96982 0.0
H2016 H 0.52147 0.90717 0.10999 0.0
H2017 H 0.51995 0.85929 0.09375 0.0
H2018 H 0.59038 0.83201 0.12035 0.0
H2019 H 0.59241 0.88029 0.13659 0.0
H2020 H 0.61731 0.83868 0.09537 0.0
H2021 H 0.45519 0.74102 0.09343 0.0
H2022 H 0.46999 0.79138 0.08937 0.0
H2023 H 0.47873 0.77905 0.10597 0.0
C2024 C 0.53617 0.89064 0.11254 0.0
C2025 C 0.55659 0.89757 0.12482 0.0
C2026 C 0.5352 0.86295 0.10318 0.0
C2027 C 0.55434 0.84093 0.10578 0.0
C2028 C 0.57506 0.84811 0.11799 0.0
H2029 H 0.51749 0.63025 0.0601 0.0
H2030 H 0.51691 0.67624 0.07684 0.0
C2031 C 0.57612 0.87585 0.12734 0.0
C2032 C 0.55389 0.81151 0.09568 0.0
H2033 H 0.4927 0.73023 0.07671 0.0
C2034 C 0.58995 0.81496 0.09135 0.0
C2035 C 0.51839 0.77979 0.09043 0.0
C2036 C 0.47837 0.77224 0.09513 0.0
C2037 C 0.59157 0.78856 0.08191 0.0
C2038 C 0.55614 0.75781 0.07626 0.0
C2039 C 0.52003 0.75384 0.08079 0.0
C2040 C 0.55596 0.72942 0.06578 0.0
C2041 C 0.63144 0.79347 0.07833 0.0
C2042 C 0.5774 0.7433 0.05369 0.0
C2043 C 0.57783 0.71694 0.04407 0.0
C2044 C 0.55648 0.67563 0.0461 0.0
C2045 C 0.53431 0.66168 0.05807 0.0
C2046 C 0.53396 0.68813 0.06772 0.0
H2047 H 0.65364 0.80967 0.08628 0.0
H2048 H 0.62969 0.7644 0.07675 0.0
H2049 H 0.6422 0.81088 0.06891 0.0
H2050 H 0.59381 0.77472 0.05162 0.0
H2051 H 0.59509 0.72913 0.03501 0.0
H2052 H 0.74471 0.58385 0.30471 0.0
H2053 H 0.79021 0.58359 0.2877 0.0
H2054 H 0.69136 0.50854 0.26247 0.0
H2055 H 0.64593 0.50819 0.27942 0.0
H2056 H 0.74395 0.48375 0.26202 0.0
H2057 H 0.82428 0.64546 0.25321 0.0
H2058 H 0.82597 0.63243 0.27039 0.0
H2059 H 0.7794 0.62123 0.263 0.0
C2060 C 0.73254 0.56711 0.29558 0.0
C2061 C 0.69127 0.5459 0.2936 0.0
C2062 C 0.75876 0.56729 0.28574 0.0
C2063 C 0.74459 0.54666 0.27355 0.0
C2064 C 0.70341 0.52486 0.2717 0.0
H2065 H 0.88548 0.58307 0.20008 0.0
H2066 H 0.83964 0.58159 0.21731 0.0
C2067 C 0.67724 0.52456 0.28151 0.0
C2068 C 0.77225 0.54726 0.26276 0.0
H2069 H 0.85066 0.60872 0.24268 0.0
C2070 C 0.76724 0.51117 0.25782 0.0
C2071 C 0.80243 0.58284 0.25696 0.0
C2072 C 0.80819 0.62268 0.26104 0.0
C2073 C 0.79154 0.50964 0.24752 0.0
C2074 C 0.82265 0.54523 0.24207 0.0
C2075 C 0.82728 0.58133 0.24686 0.0
C2076 C 0.85046 0.54563 0.23139 0.0
C2077 C 0.78284 0.46966 0.24237 0.0
C2078 C 0.87251 0.52631 0.23342 0.0
C2079 C 0.89863 0.5269 0.22352 0.0
C2080 C 0.90394 0.54716 0.21126 0.0
C2081 C 0.88217 0.56688 0.20929 0.0
C2082 C 0.85591 0.56617 0.2192 0.0
H2083 H 0.75177 0.44666 0.24446 0.0
H2084 H 0.78819 0.47046 0.23139 0.0
H2085 H 0.80242 0.46067 0.24752 0.0
H2086 H 0.87005 0.51119 0.24281 0.0
H2087 H 0.91528 0.51206 0.22565 0.0
H2088 H 0.91316 0.40642 0.43147 0.0
H2089 H 0.84811 0.34847 0.42814 0.0
H2090 H 0.79667 0.42392 0.42409 0.0
H2091 H 0.86195 0.48232 0.42743 0.0
H2092 H 0.77809 0.32315 0.44297 0.0
H2093 H 0.76166 0.35641 0.38974 0.0
H2094 H 0.80841 0.38107 0.39842 0.0
H2095 H 0.77141 0.39481 0.40168 0.0
C2096 C 0.88795 0.41068 0.43001 0.0
C2097 C 0.89256 0.44884 0.4297 0.0
C2098 C 0.85088 0.37759 0.42806 0.0
C2099 C 0.8178 0.38204 0.42571 0.0
C2100 C 0.82206 0.42001 0.42563 0.0
H2101 H 0.57705 0.19622 0.40706 0.0
H2102 H 0.63481 0.26044 0.4125 0.0
C2103 C 0.85925 0.45324 0.42755 0.0
C2104 C 0.77904 0.34661 0.42329 0.0
H2105 H 0.70935 0.29852 0.39915 0.0
C2106 C 0.7629 0.31782 0.43343 0.0
C2107 C 0.75937 0.33995 0.41083 0.0
C2108 C 0.77611 0.36948 0.39948 0.0
C2109 C 0.72779 0.28213 0.43136 0.0
C2110 C 0.70879 0.27498 0.41877 0.0
C2111 C 0.72419 0.30424 0.40877 0.0
C2112 C 0.67394 0.23651 0.41556 0.0
C2113 C 0.7114 0.25232 0.44264 0.0
C2114 C 0.67723 0.20221 0.41525 0.0
C2115 C 0.64437 0.16573 0.41225 0.0
C2116 C 0.6078 0.16312 0.40951 0.0
C2117 C 0.60477 0.19759 0.40951 0.0
C2118 C 0.63768 0.23412 0.41249 0.0
H2119 H 0.72304 0.26633 0.45255 0.0
H2120 H 0.67861 0.23731 0.44291 0.0
H2121 H 0.72019 0.22949 0.44103 0.0
H2122 H 0.70524 0.20368 0.41732 0.0
H2123 H 0.64736 0.13949 0.41227 0.0
H2124 H 0.61347 0.95871 0.57767 0.0
H2125 H 0.61346 0.89727 0.57268 0.0
H2126 H 0.60305 0.86925 0.61493 0.0
H2127 H 0.6037 0.93133 0.62007 0.0
H2128 H 0.66327 0.8606 0.59982 0.0
H2129 H 0.5148 0.78454 0.57605 0.0
H2130 H 0.54765 0.83356 0.5699 0.0
H2131 H 0.53064 0.82674 0.58699 0.0
C2132 C 0.61164 0.93972 0.58593 0.0
C2133 C 0.60877 0.94985 0.59927 0.0
C2134 C 0.61119 0.90448 0.58304 0.0
C2135 C 0.60775 0.87868 0.59343 0.0
C2136 C 0.60545 0.88882 0.60679 0.0
H2137 H 0.6087 0.65665 0.59448 0.0
H2138 H 0.61021 0.71828 0.60031 0.0
C2139 C 0.60571 0.9241 0.6097 0.0
C2140 C 0.60715 0.84139 0.59025 0.0
H2141 H 0.55397 0.75368 0.57384 0.0
C2142 C 0.63931 0.83704 0.59422 0.0
C2143 C 0.57587 0.81101 0.5829 0.0
C2144 C 0.54007 0.81387 0.57878 0.0
C2145 C 0.64149 0.80326 0.59073 0.0
C2146 C 0.61025 0.77288 0.58332 0.0
C2147 C 0.57794 0.77717 0.57945 0.0
C2148 C 0.6101 0.73599 0.57972 0.0
C2149 C 0.67762 0.80083 0.59472 0.0
C2150 C 0.60854 0.7251 0.56619 0.0
C2151 C 0.60751 0.68975 0.56281 0.0
C2152 C 0.60803 0.66482 0.57293 0.0
C2153 C 0.60927 0.67575 0.58646 0.0
C2154 C 0.61012 0.71092 0.58982 0.0
H2155 H 0.7031 0.83049 0.59698 0.0
H2156 H 0.67087 0.78241 0.6039 0.0
H2157 H 0.68643 0.78698 0.58666 0.0
H2158 H 0.60823 0.74403 0.55827 0.0
H2159 H 0.60658 0.68203 0.55232 0.0
H2160 H 0.65475 0.52895 0.76294 0.0
H2161 H 0.7158 0.5273 0.75875 0.0
H2162 H 0.6498 0.39983 0.75733 0.0
H2163 H 0.5885 0.4013 0.76141 0.0
H2164 H 0.74909 0.49193 0.77392 0.0
H2165 H 0.71345 0.42839 0.72249 0.0
H2166 H 0.68558 0.44808 0.73074 0.0
H2167 H 0.67736 0.39972 0.73506 0.0
C2168 C 0.65327 0.50055 0.76181 0.0
C2169 C 0.61688 0.46521 0.76252 0.0
C2170 C 0.6881 0.49968 0.75936 0.0
C2171 C 0.68717 0.46349 0.75755 0.0
C2172 C 0.65098 0.4281 0.7584 0.0
H2173 H 0.87806 0.41117 0.74477 0.0
H2174 H 0.81364 0.40605 0.74913 0.0
C2175 C 0.61605 0.42896 0.76078 0.0
C2176 C 0.72436 0.46303 0.7551 0.0
H2177 H 0.77271 0.43694 0.73218 0.0
C2178 C 0.75428 0.47993 0.76479 0.0
C2179 C 0.73088 0.44724 0.74318 0.0
C2180 C 0.7003 0.43013 0.7322 0.0
C2181 C 0.7907 0.48153 0.76289 0.0
C2182 C 0.79735 0.46615 0.75094 0.0
C2183 C 0.76728 0.44864 0.74133 0.0
C2184 C 0.83587 0.46911 0.74807 0.0
C2185 C 0.82179 0.49948 0.77369 0.0
C2186 C 0.86927 0.50621 0.74585 0.0
C2187 C 0.90594 0.50923 0.74338 0.0
C2188 C 0.90971 0.47514 0.74309 0.0
C2189 C 0.87601 0.43792 0.74512 0.0
C2190 C 0.83928 0.43493 0.74753 0.0
H2191 H 0.80908 0.50184 0.78342 0.0
H2192 H 0.83664 0.48168 0.77521 0.0
H2193 H 0.84458 0.52967 0.77056 0.0
H2194 H 0.86696 0.53284 0.74609 0.0
H2195 H 0.93148 0.53827 0.74194 0.0
H2196 H 0.41345 0.92465 0.90339 0.0
H2197 H 0.35582 0.8596 0.90755 0.0
H2198 H 0.43101 0.81946 0.92506 0.0
H2199 H 0.489 0.88408 0.92066 0.0
H2200 H 0.34357 0.7808 0.8989 0.0
H2201 H 0.3443 0.80168 0.95426 0.0
H2202 H 0.36903 0.84267 0.94273 0.0
H2203 H 0.39041 0.81223 0.94658 0.0
C2204 C 0.41784 0.90182 0.90793 0.0
C2205 C 0.45577 0.90956 0.91175 0.0
C2206 C 0.38489 0.86482 0.91037 0.0
C2207 C 0.38932 0.83513 0.91673 0.0
C2208 C 0.42711 0.84234 0.9203 0.0
H2209 H 0.21379 0.58708 0.92787 0.0
H2210 H 0.27524 0.64919 0.92374 0.0
C2211 C 0.46011 0.87926 0.91782 0.0
C2212 C 0.35423 0.7967 0.91979 0.0
H2213 H 0.29635 0.73978 0.94565 0.0
C2214 C 0.33326 0.77166 0.9091 0.0
C2215 C 0.34095 0.7853 0.93313 0.0
C2216 C 0.36206 0.81187 0.94488 0.0
C2217 C 0.29918 0.73516 0.91144 0.0
C2218 C 0.28604 0.7237 0.92477 0.0
C2219 C 0.30691 0.74876 0.93546 0.0
C2220 C 0.24961 0.68637 0.92774 0.0
C2221 C 0.27691 0.70935 0.89967 0.0
C2222 C 0.21533 0.68711 0.93153 0.0
C2223 C 0.18018 0.65184 0.93376 0.0
C2224 C 0.17888 0.61523 0.93234 0.0
C2225 C 0.2137 0.61476 0.92885 0.0
C2226 C 0.2488 0.6501 0.92655 0.0
H2227 H 0.28838 0.72462 0.8899 0.0
H2228 H 0.27954 0.68221 0.8998 0.0
H2229 H 0.24501 0.70003 0.90047 0.0
H2230 H 0.21558 0.71498 0.93247 0.0
H2231 H 0.15379 0.65326 0.93622 0.0
H2232 H 0.63317 0.1787 0.08003 0.0
H2233 H 0.63683 0.24181 0.07631 0.0
H2234 H 0.54522 0.2126 0.10588 0.0
H2235 H 0.53637 0.14705 0.10796 0.0
H2236 H 0.5289 0.24176 0.08745 0.0
H2237 H 0.68847 0.34235 0.09452 0.0
H2238 H 0.68135 0.30875 0.08117 0.0
H2239 H 0.66597 0.29025 0.09803 0.0
C2240 C 0.61304 0.18499 0.08559 0.0
C2241 C 0.58399 0.15661 0.0942 0.0
C2242 C 0.61611 0.22202 0.08371 0.0
C2243 C 0.5919 0.23272 0.09098 0.0
C2244 C 0.56434 0.20533 0.10009 0.0
H2245 H 0.6296 0.4726 0.09003 0.0
H2246 H 0.63329 0.41309 0.09403 0.0
C2247 C 0.55986 0.16766 0.10147 0.0
C2248 C 0.59258 0.27078 0.08833 0.0
H2249 H 0.65325 0.36957 0.08282 0.0
C2250 C 0.55623 0.26975 0.0867 0.0
C2251 C 0.62799 0.30769 0.08745 0.0
C2252 C 0.66803 0.31234 0.09055 0.0
C2253 C 0.55415 0.30415 0.08433 0.0
C2254 C 0.58957 0.34053 0.08236 0.0
C2255 C 0.626 0.3417 0.08402 0.0
C2256 C 0.58934 0.3778 0.07915 0.0
C2257 C 0.51383 0.30093 0.08455 0.0
C2258 C 0.56462 0.37875 0.06908 0.0
C2259 C 0.56036 0.41206 0.06738 0.0
C2260 C 0.58249 0.44628 0.07519 0.0
C2261 C 0.6104 0.44651 0.08426 0.0
C2262 C 0.6132 0.41251 0.0864 0.0
H2263 H 0.49269 0.27559 0.09083 0.0
H2264 H 0.51516 0.32818 0.08856 0.0
H2265 H 0.50172 0.29563 0.07421 0.0
H2266 H 0.5474 0.35316 0.06282 0.0
H2267 H 0.53846 0.40996 0.06027 0.0
H2268 H 0.47894 0.63808 0.25641 0.0
H2269 H 0.41571 0.62888 0.24783 0.0
H2270 H 0.36212 0.50319 0.2545 0.0
H2271 H 0.42477 0.51181 0.26266 0.0
H2272 H 0.35251 0.52852 0.22784 0.0
H2273 H 0.31108 0.59477 0.2702 0.0
H2274 H 0.36001 0.6224 0.26312 0.0
H2275 H 0.34632 0.57774 0.27226 0.0
C2276 C 0.45355 0.60857 0.25607 0.0
C2277 C 0.4566 0.5757 0.2603 0.0
C2278 C 0.41759 0.60343 0.25126 0.0
C2279 C 0.38452 0.5654 0.25064 0.0
C2280 C 0.38745 0.53275 0.25497 0.0
H2281 H 0.13627 0.45653 0.24501 0.0
H2282 H 0.20596 0.48219 0.25049 0.0
C2283 C 0.42314 0.5378 0.25976 0.0
C2284 C 0.34673 0.55862 0.2451 0.0
H2285 H 0.26413 0.56347 0.25312 0.0
C2286 C 0.33329 0.53664 0.23321 0.0
C2287 C 0.32204 0.56916 0.25227 0.0
C2288 C 0.33527 0.59219 0.26521 0.0
C2289 C 0.29486 0.52335 0.22856 0.0
C2290 C 0.26972 0.53293 0.23594 0.0
C2291 C 0.2837 0.55627 0.24754 0.0
C2292 C 0.22794 0.5168 0.23228 0.0
C2293 C 0.28084 0.49756 0.21621 0.0
C2294 C 0.21757 0.52752 0.22016 0.0
C2295 C 0.17787 0.51247 0.21692 0.0
C2296 C 0.14803 0.4868 0.22582 0.0
C2297 C 0.15861 0.47574 0.23787 0.0
C2298 C 0.19831 0.49071 0.24108 0.0
H2299 H 0.30134 0.4867 0.21326 0.0
H2300 H 0.25099 0.47168 0.2179 0.0
H2301 H 0.27882 0.5149 0.2077 0.0
H2302 H 0.24015 0.54792 0.21332 0.0
H2303 H 0.1705 0.52127 0.20752 0.0
loop_
_geom_bond_atom_site_label_1
_geom_bond_atom_site_label_2
_geom_bond_distance
_geom_bond_site_symmetry_2
_ccdc_geom_bond_type
Tb0 N31 2.660 . S
Tb0 N38 2.600 1_545 S
Tb0 O44 2.546 . S
Tb0 O45 2.610 . S
Tb0 O47 2.320 . S
Tb0 O48 2.552 . S
Tb0 O49 2.413 . S
Tb0 O51 2.362 1_545 S
Tb0 O52 2.421 1_545 S
Tb0 C64 2.833 . S
C1 C4 1.432 . S
C1 C5 1.414 . S
C1 N8 1.359 . S
C2 C4 1.417 . S
C2 C6 1.432 . S
C2 C14 1.413 . S
C3 C5 1.444 . S
C3 C6 1.317 . S
C3 H26 0.929 . S
C4 C1 1.432 . S
C4 C2 1.417 . S
C4 N12 1.360 1_545 S
C5 C1 1.414 . S
C5 C3 1.444 . S
C5 C10 1.385 . S
C6 C2 1.432 . S
C6 C3 1.317 . S
C6 H18 0.930 . S
C7 C9 1.392 . S
C7 C10 1.370 . S
C7 H19 0.931 . S
N8 C1 1.359 . S
N8 C9 1.327 . S
N8 Tb11 2.600 1_545 S
C9 C7 1.392 . S
C9 N8 1.327 . S
C9 H16 0.930 . S
C10 C5 1.385 . S
C10 C7 1.370 . S
C10 H29 0.930 . S
Tb11 N8 2.600 1_565 S
Tb11 N12 2.660 . S
Tb11 O45 2.362 1_565 S
Tb11 O46 2.421 1_565 S
Tb11 O50 2.546 . S
Tb11 O51 2.610 . S
Tb11 O53 2.320 . S
Tb11 O54 2.552 . S
Tb11 O55 2.413 . S
Tb11 C75 2.833 . S
N12 C4 1.360 1_565 S
N12 Tb11 2.660 . S
N12 C13 1.305 . S
C13 N12 1.305 . S
C13 C15 1.407 . S
C13 H20 0.930 . S
C14 C2 1.413 . S
C14 C15 1.339 1_545 S
C14 H22 0.934 . S
C15 C13 1.407 . S
C15 C14 1.339 1_565 S
C15 H17 0.930 . S
H16 C9 0.930 . S
H17 C15 0.930 . S
H18 C6 0.930 . S
H19 C7 0.931 . S
H20 C13 0.930 . S
H21 C35 0.930 . S
H22 C14 0.934 . S
H23 C41 0.930 . S
H24 C32 0.930 . S
H25 C39 0.931 . S
H26 C3 0.929 . S
H27 C33 0.930 . S
H28 C66 0.930 . S
H29 C10 0.930 . S
H30 C65 0.929 . S
N31 Tb0 2.660 . S
N31 C32 1.305 . S
N31 C36 1.360 1_545 S
C32 H24 0.930 . S
C32 N31 1.305 . S
C32 C35 1.407 . S
C33 H27 0.930 . S
C33 C34 1.410 . S
C33 C35 1.346 1_565 S
C34 C33 1.410 . S
C34 C36 1.417 . S
C34 C66 1.432 . S
C35 H21 0.930 . S
C35 C32 1.407 . S
C35 C33 1.346 1_545 S
C36 N31 1.360 1_565 S
C36 C34 1.417 . S
C36 C40 1.432 . S
H37 C42 0.930 . S
N38 Tb0 2.600 1_565 S
N38 C40 1.359 . S
N38 C41 1.327 . S
C39 H25 0.931 . S
C39 C41 1.392 . S
C39 C42 1.370 . S
C40 C36 1.432 . S
C40 N38 1.359 . S
C40 C43 1.414 . S
C41 H23 0.930 . S
C41 N38 1.327 . S
C41 C39 1.392 . S
C42 H37 0.930 . S
C42 C39 1.370 . S
C42 C43 1.385 . S
C43 C40 1.414 . S
C43 C42 1.385 . S
C43 C65 1.444 . S
O44 Tb0 2.546 . S
O44 C64 1.251 . S
O45 Tb0 2.610 . S
O45 Tb11 2.362 1_545 S
O45 C56 1.283 . S
O46 Tb11 2.421 1_545 S
O46 C63 1.262 . S
O47 Tb0 2.320 . S
O47 C63 1.260 . S
O48 Tb0 2.552 . S
O48 C56 1.243 . S
O49 Tb0 2.413 . S
O49 C64 1.256 . S
O50 Tb11 2.546 . S
O50 C75 1.251 . S
O51 Tb0 2.362 1_565 S
O51 Tb11 2.610 . S
O51 C67 1.283 . S
O52 Tb0 2.421 1_565 S
O52 C74 1.262 . S
O53 Tb11 2.320 . S
O53 C74 1.260 . S
O54 Tb11 2.552 . S
O54 C67 1.243 . S
O55 Tb11 2.413 . S
O55 C75 1.256 . S
C56 O45 1.283 . S
C56 O48 1.243 . S
C57 C59 1.382 . S
C57 C61 1.393 . S
C57 C64 1.500 . S
C58 C59 1.400 . S
C58 C60 1.384 . S
C59 C57 1.382 . S
C59 C58 1.400 . S
C59 H76 0.930 . S
C60 C58 1.384 . S
C60 C62 1.392 . S
C60 H77 0.931 . S
C61 C57 1.393 . S
C61 C62 1.401 . S
C61 H78 0.930 . S
C62 C60 1.392 . S
C62 C61 1.401 . S
C62 H79 0.930 . S
C63 O46 1.262 . S
C63 O47 1.260 . S
C64 Tb0 2.833 . S
C64 O44 1.251 . S
C64 O49 1.256 . S
C64 C57 1.500 . S
C65 H30 0.929 . S
C65 C43 1.444 . S
C65 C66 1.317 . S
C66 H28 0.930 . S
C66 C34 1.432 . S
C66 C65 1.317 . S
C67 O51 1.283 . S
C67 O54 1.243 . S
C68 C69 1.382 . S
C68 C72 1.393 . S
C68 C75 1.500 . S
C69 C68 1.382 . S
C69 C70 1.400 . S
C69 H80 0.930 . S
C70 C69 1.400 . S
C70 C71 1.384 . S
C71 C70 1.384 . S
C71 C73 1.392 . S
C71 H81 0.931 . S
C72 C68 1.393 . S
C72 C73 1.401 . S
C72 H82 0.930 . S
C73 C71 1.392 . S
C73 C72 1.401 . S
C73 H83 0.930 . S
C74 O52 1.262 . S
C74 O53 1.260 . S
C75 Tb11 2.833 . S
C75 O50 1.251 . S
C75 O55 1.256 . S
C75 C68 1.500 . S
H76 C59 0.930 . S
H77 C60 0.931 . S
H78 C61 0.930 . S
H79 C62 0.930 . S
H80 C69 0.930 . S
H81 C71 0.931 . S
H82 C72 0.930 . S
H83 C73 0.930 . S
Tb84 N115 2.660 . S
Tb84 N122 2.600 . S
Tb84 O128 2.546 . S
Tb84 O129 2.610 . S
Tb84 O131 2.320 . S
Tb84 O132 2.552 . S
Tb84 O133 2.413 . S
Tb84 O135 2.362 . S
Tb84 O136 2.421 . S
Tb84 C148 2.833 . S
C85 C88 1.432 . S
C85 C89 1.414 . S
C85 N92 1.359 . S
C86 C88 1.417 . S
C86 C90 1.432 . S
C86 C98 1.410 . S
C87 C89 1.444 . S
C87 C90 1.317 . S
C87 H110 0.929 . S
C88 C85 1.432 . S
C88 C86 1.417 . S
C88 N96 1.360 . S
C89 C85 1.414 . S
C89 C87 1.444 . S
C89 C94 1.385 . S
C90 C86 1.432 . S
C90 C87 1.317 . S
C90 H102 0.930 . S
C91 C93 1.392 . S
C91 C94 1.370 . S
C91 H103 0.931 . S
N92 C85 1.359 . S
N92 C93 1.327 . S
N92 Tb95 2.600 . S
C93 C91 1.392 . S
C93 N92 1.327 . S
C93 H100 0.930 . S
C94 C89 1.385 . S
C94 C91 1.370 . S
C94 H113 0.930 . S
Tb95 N92 2.600 . S
Tb95 N96 2.660 . S
Tb95 O129 2.362 . S
Tb95 O130 2.421 . S
Tb95 O134 2.546 . S
Tb95 O135 2.610 . S
Tb95 O137 2.320 . S
Tb95 O138 2.552 . S
Tb95 O139 2.413 . S
Tb95 C159 2.833 . S
N96 C88 1.360 . S
N96 Tb95 2.660 . S
N96 C97 1.305 . S
C97 N96 1.305 . S
C97 C99 1.407 . S
C97 H104 0.930 . S
C98 C86 1.410 . S
C98 C99 1.345 . S
C98 H106 0.930 . S
C99 C97 1.407 . S
C99 C98 1.345 . S
C99 H101 0.930 . S
H100 C93 0.930 . S
H101 C99 0.930 . S
H102 C90 0.930 . S
H103 C91 0.931 . S
H104 C97 0.930 . S
H105 C119 0.930 . S
H106 C98 0.930 . S
H107 C125 0.930 . S
H108 C116 0.930 . S
H109 C123 0.931 . S
H110 C87 0.929 . S
H111 C117 0.930 . S
H112 C150 0.930 . S
H113 C94 0.930 . S
H114 C149 0.929 . S
N115 Tb84 2.660 . S
N115 C116 1.305 . S
N115 C120 1.360 . S
C116 H108 0.930 . S
C116 N115 1.305 . S
C116 C119 1.407 . S
C117 H111 0.930 . S
C117 C118 1.410 . S
C117 C119 1.345 . S
C118 C117 1.410 . S
C118 C120 1.417 . S
C118 C150 1.432 . S
C119 H105 0.930 . S
C119 C116 1.407 . S
C119 C117 1.345 . S
C120 N115 1.360 . S
C120 C118 1.417 . S
C120 C124 1.432 . S
H121 C126 0.930 . S
N122 Tb84 2.600 . S
N122 C124 1.359 . S
N122 C125 1.327 . S
C123 H109 0.931 . S
C123 C125 1.392 . S
C123 C126 1.370 . S
C124 C120 1.432 . S
C124 N122 1.359 . S
C124 C127 1.414 . S
C125 H107 0.930 . S
C125 N122 1.327 . S
C125 C123 1.392 . S
C126 H121 0.930 . S
C126 C123 1.370 . S
C126 C127 1.385 . S
C127 C124 1.414 . S
C127 C126 1.385 . S
C127 C149 1.444 . S
O128 Tb84 2.546 . S
O128 C148 1.251 . S
O129 Tb84 2.610 . S
O129 Tb95 2.362 . S
O129 C140 1.283 . S
O130 Tb95 2.421 . S
O130 C147 1.262 . S
O131 Tb84 2.320 . S
O131 C147 1.260 . S
O132 Tb84 2.552 . S
O132 C140 1.243 . S
O133 Tb84 2.413 . S
O133 C148 1.256 . S
O134 Tb95 2.546 . S
O134 C159 1.251 . S
O135 Tb84 2.362 . S
O135 Tb95 2.610 . S
O135 C151 1.283 . S
O136 Tb84 2.421 . S
O136 C158 1.262 . S
O137 Tb95 2.320 . S
O137 C158 1.260 . S
O138 Tb95 2.552 . S
O138 C151 1.243 . S
O139 Tb95 2.413 . S
O139 C159 1.256 . S
C140 O129 1.283 . S
C140 O132 1.243 . S
C141 C143 1.382 . S
C141 C145 1.393 . S
C141 C148 1.500 . S
C142 C143 1.400 . S
C142 C144 1.384 . S
C143 C141 1.382 . S
C143 C142 1.400 . S
C143 H160 0.930 . S
C144 C142 1.384 . S
C144 C146 1.392 . S
C144 H161 0.931 . S
C145 C141 1.393 . S
C145 C146 1.401 . S
C145 H162 0.930 . S
C146 C144 1.392 . S
C146 C145 1.401 . S
C146 H163 0.930 . S
C147 O130 1.262 . S
C147 O131 1.260 . S
C148 Tb84 2.833 . S
C148 O128 1.251 . S
C148 O133 1.256 . S
C148 C141 1.500 . S
C149 H114 0.929 . S
C149 C127 1.444 . S
C149 C150 1.317 . S
C150 H112 0.930 . S
C150 C118 1.432 . S
C150 C149 1.317 . S
C151 O135 1.283 . S
C151 O138 1.243 . S
C152 C153 1.382 . S
C152 C156 1.393 . S
C152 C159 1.500 . S
C153 C152 1.382 . S
C153 C154 1.400 . S
C153 H164 0.930 . S
C154 C153 1.400 . S
C154 C155 1.384 . S
C155 C154 1.384 . S
C155 C157 1.392 . S
C155 H165 0.931 . S
C156 C152 1.393 . S
C156 C157 1.401 . S
C156 H166 0.930 . S
C157 C155 1.392 . S
C157 C156 1.401 . S
C157 H167 0.930 . S
C158 O136 1.262 . S
C158 O137 1.260 . S
C159 Tb95 2.833 . S
C159 O134 1.251 . S
C159 O139 1.256 . S
C159 C152 1.500 . S
H160 C143 0.930 . S
H161 C144 0.931 . S
H162 C145 0.930 . S
H163 C146 0.930 . S
H164 C153 0.930 . S
H165 C155 0.931 . S
H166 C156 0.930 . S
H167 C157 0.930 . S
Tb168 N199 2.660 . S
Tb168 N206 2.600 1_655 S
Tb168 O212 2.546 . S
Tb168 O213 2.610 . S
Tb168 O215 2.320 . S
Tb168 O216 2.552 . S
Tb168 O217 2.413 . S
Tb168 O219 2.362 1_655 S
Tb168 O220 2.421 1_655 S
Tb168 C232 2.833 . S
C169 C172 1.432 . S
C169 C173 1.414 . S
C169 N176 1.359 . S
C170 C172 1.417 . S
C170 C174 1.432 . S
C170 C182 1.410 1_655 S
C171 C173 1.444 . S
C171 C174 1.317 . S
C171 H194 0.929 . S
C172 C169 1.432 . S
C172 C170 1.417 . S
C172 N180 1.360 1_655 S
C173 C169 1.414 . S
C173 C171 1.444 . S
C173 C178 1.385 . S
C174 C170 1.432 . S
C174 C171 1.317 . S
C174 H186 0.930 . S
C175 C177 1.392 . S
C175 C178 1.370 . S
C175 H187 0.931 . S
N176 C169 1.359 . S
N176 C177 1.327 . S
N176 Tb179 2.600 1_655 S
C177 C175 1.392 . S
C177 N176 1.327 . S
C177 H184 0.930 . S
C178 C173 1.385 . S
C178 C175 1.370 . S
C178 H197 0.930 . S
Tb179 N176 2.600 1_455 S
Tb179 N180 2.660 . S
Tb179 O213 2.362 1_455 S
Tb179 O214 2.421 1_455 S
Tb179 O218 2.546 . S
Tb179 O219 2.610 . S
Tb179 O221 2.320 . S
Tb179 O222 2.552 . S
Tb179 O223 2.413 . S
Tb179 C243 2.833 . S
N180 C172 1.360 1_455 S
N180 Tb179 2.660 . S
N180 C181 1.305 . S
C181 N180 1.305 . S
C181 C183 1.407 . S
C181 H188 0.930 . S
C182 C170 1.410 1_455 S
C182 C183 1.345 . S
C182 H190 0.931 . S
C183 C181 1.407 . S
C183 C182 1.345 . S
C183 H185 0.930 . S
H184 C177 0.930 . S
H185 C183 0.930 . S
H186 C174 0.930 . S
H187 C175 0.931 . S
H188 C181 0.930 . S
H189 C203 0.930 . S
H190 C182 0.931 . S
H191 C209 0.930 . S
H192 C200 0.930 . S
H193 C207 0.931 . S
H194 C171 0.929 . S
H195 C201 0.928 . S
H196 C234 0.930 . S
H197 C178 0.930 . S
H198 C233 0.929 . S
N199 Tb168 2.660 . S
N199 C200 1.305 . S
N199 C204 1.360 1_655 S
C200 H192 0.930 . S
C200 N199 1.305 . S
C200 C203 1.407 . S
C201 H195 0.928 . S
C201 C202 1.410 1_655 S
C201 C203 1.345 . S
C202 C201 1.410 1_455 S
C202 C204 1.417 . S
C202 C234 1.432 . S
C203 H189 0.930 . S
C203 C200 1.407 . S
C203 C201 1.345 . S
C204 N199 1.360 1_455 S
C204 C202 1.417 . S
C204 C208 1.432 . S
H205 C210 0.930 . S
N206 Tb168 2.600 1_455 S
N206 C208 1.359 . S
N206 C209 1.327 . S
C207 H193 0.931 . S
C207 C209 1.392 . S
C207 C210 1.370 . S
C208 C204 1.432 . S
C208 N206 1.359 . S
C208 C211 1.414 . S
C209 H191 0.930 . S
C209 N206 1.327 . S
C209 C207 1.392 . S
C210 H205 0.930 . S
C210 C207 1.370 . S
C210 C211 1.385 . S
C211 C208 1.414 . S
C211 C210 1.385 . S
C211 C233 1.444 . S
O212 Tb168 2.546 . S
O212 C232 1.251 . S
O213 Tb168 2.610 . S
O213 Tb179 2.362 1_655 S
O213 C224 1.283 . S
O214 Tb179 2.421 1_655 S
O214 C231 1.262 . S
O215 Tb168 2.320 . S
O215 C231 1.260 . S
O216 Tb168 2.552 . S
O216 C224 1.243 . S
O217 Tb168 2.413 . S
O217 C232 1.256 . S
O218 Tb179 2.546 . S
O218 C243 1.251 . S
O219 Tb168 2.362 1_455 S
O219 Tb179 2.610 . S
O219 C235 1.283 . S
O220 Tb168 2.421 1_455 S
O220 C242 1.262 . S
O221 Tb179 2.320 . S
O221 C242 1.260 . S
O222 Tb179 2.552 . S
O222 C235 1.243 . S
O223 Tb179 2.413 . S
O223 C243 1.256 . S
C224 O213 1.283 . S
C224 O216 1.243 . S
C225 C227 1.382 . S
C225 C229 1.393 . S
C225 C232 1.500 . S
C226 C227 1.400 . S
C226 C228 1.384 . S
C227 C225 1.382 . S
C227 C226 1.400 . S
C227 H244 0.930 . S
C228 C226 1.384 . S
C228 C230 1.392 . S
C228 H245 0.931 . S
C229 C225 1.393 . S
C229 C230 1.401 . S
C229 H246 0.930 . S
C230 C228 1.392 . S
C230 C229 1.401 . S
C230 H247 0.930 . S
C231 O214 1.262 . S
C231 O215 1.260 . S
C232 Tb168 2.833 . S
C232 O212 1.251 . S
C232 O217 1.256 . S
C232 C225 1.500 . S
C233 H198 0.929 . S
C233 C211 1.444 . S
C233 C234 1.317 . S
C234 H196 0.930 . S
C234 C202 1.432 . S
C234 C233 1.317 . S
C235 O219 1.283 . S
C235 O222 1.243 . S
C236 C237 1.382 . S
C236 C240 1.393 . S
C236 C243 1.500 . S
C237 C236 1.382 . S
C237 C238 1.400 . S
C237 H248 0.930 . S
C238 C237 1.400 . S
C238 C239 1.384 . S
C239 C238 1.384 . S
C239 C241 1.392 . S
C239 H249 0.931 . S
C240 C236 1.393 . S
C240 C241 1.401 . S
C240 H250 0.930 . S
C241 C239 1.392 . S
C241 C240 1.401 . S
C241 H251 0.930 . S
C242 O220 1.262 . S
C242 O221 1.260 . S
C243 Tb179 2.833 . S
C243 O218 1.251 . S
C243 O223 1.256 . S
C243 C236 1.500 . S
H244 C227 0.930 . S
H245 C228 0.931 . S
H246 C229 0.930 . S
H247 C230 0.930 . S
H248 C237 0.930 . S
H249 C239 0.931 . S
H250 C240 0.930 . S
H251 C241 0.930 . S
Tb252 N283 2.660 . S
Tb252 N290 2.600 1_565 S
Tb252 O296 2.546 . S
Tb252 O297 2.610 . S
Tb252 O299 2.320 . S
Tb252 O300 2.552 . S
Tb252 O301 2.413 . S
Tb252 O303 2.362 1_565 S
Tb252 O304 2.421 1_565 S
Tb252 C316 2.833 . S
C253 C256 1.432 . S
C253 C257 1.414 . S
C253 N260 1.359 . S
C254 C256 1.417 . S
C254 C258 1.432 . S
C254 C266 1.413 . S
C255 C257 1.444 . S
C255 C258 1.317 . S
C255 H278 0.929 . S
C256 C253 1.432 . S
C256 C254 1.417 . S
C256 N264 1.360 1_565 S
C257 C253 1.414 . S
C257 C255 1.444 . S
C257 C262 1.385 . S
C258 C254 1.432 . S
C258 C255 1.317 . S
C258 H270 0.930 . S
C259 C261 1.392 . S
C259 C262 1.370 . S
C259 H271 0.931 . S
N260 C253 1.359 . S
N260 C261 1.327 . S
N260 Tb263 2.600 1_565 S
C261 C259 1.392 . S
C261 N260 1.327 . S
C261 H268 0.930 . S
C262 C257 1.385 . S
C262 C259 1.370 . S
C262 H281 0.930 . S
Tb263 N260 2.600 1_545 S
Tb263 N264 2.660 . S
Tb263 O297 2.362 1_545 S
Tb263 O298 2.421 1_545 S
Tb263 O302 2.546 . S
Tb263 O303 2.610 . S
Tb263 O305 2.320 . S
Tb263 O306 2.552 . S
Tb263 O307 2.413 . S
Tb263 C327 2.833 . S
N264 C256 1.360 1_545 S
N264 Tb263 2.660 . S
N264 C265 1.305 . S
C265 N264 1.305 . S
C265 C267 1.407 . S
C265 H272 0.930 . S
C266 C254 1.413 . S
C266 C267 1.339 1_565 S
C266 H274 0.934 . S
C267 C265 1.407 . S
C267 C266 1.339 1_545 S
C267 H269 0.930 . S
H268 C261 0.930 . S
H269 C267 0.930 . S
H270 C258 0.930 . S
H271 C259 0.931 . S
H272 C265 0.930 . S
H273 C287 0.930 . S
H274 C266 0.934 . S
H275 C293 0.930 . S
H276 C284 0.930 . S
H277 C291 0.931 . S
H278 C255 0.929 . S
H279 C285 0.930 . S
H280 C318 0.930 . S
H281 C262 0.930 . S
H282 C317 0.929 . S
N283 Tb252 2.660 . S
N283 C284 1.305 . S
N283 C288 1.360 1_565 S
C284 H276 0.930 . S
C284 N283 1.305 . S
C284 C287 1.407 . S
C285 H279 0.930 . S
C285 C286 1.410 . S
C285 C287 1.346 1_545 S
C286 C285 1.410 . S
C286 C288 1.417 . S
C286 C318 1.432 . S
C287 H273 0.930 . S
C287 C284 1.407 . S
C287 C285 1.346 1_565 S
C288 N283 1.360 1_545 S
C288 C286 1.417 . S
C288 C292 1.432 . S
H289 C294 0.930 . S
N290 Tb252 2.600 1_545 S
N290 C292 1.359 . S
N290 C293 1.327 . S
C291 H277 0.931 . S
C291 C293 1.392 . S
C291 C294 1.370 . S
C292 C288 1.432 . S
C292 N290 1.359 . S
C292 C295 1.414 . S
C293 H275 0.930 . S
C293 N290 1.327 . S
C293 C291 1.392 . S
C294 H289 0.930 . S
C294 C291 1.370 . S
C294 C295 1.385 . S
C295 C292 1.414 . S
C295 C294 1.385 . S
C295 C317 1.444 . S
O296 Tb252 2.546 . S
O296 C316 1.251 . S
O297 Tb252 2.610 . S
O297 Tb263 2.362 1_565 S
O297 C308 1.283 . S
O298 Tb263 2.421 1_565 S
O298 C315 1.262 . S
O299 Tb252 2.320 . S
O299 C315 1.260 . S
O300 Tb252 2.552 . S
O300 C308 1.243 . S
O301 Tb252 2.413 . S
O301 C316 1.256 . S
O302 Tb263 2.546 . S
O302 C327 1.251 . S
O303 Tb252 2.362 1_545 S
O303 Tb263 2.610 . S
O303 C319 1.283 . S
O304 Tb252 2.421 1_545 S
O304 C326 1.262 . S
O305 Tb263 2.320 . S
O305 C326 1.260 . S
O306 Tb263 2.552 . S
O306 C319 1.243 . S
O307 Tb263 2.413 . S
O307 C327 1.256 . S
C308 O297 1.283 . S
C308 O300 1.243 . S
C309 C311 1.382 . S
C309 C313 1.393 . S
C309 C316 1.500 . S
C310 C311 1.400 . S
C310 C312 1.384 . S
C311 C309 1.382 . S
C311 C310 1.400 . S
C311 H328 0.930 . S
C312 C310 1.384 . S
C312 C314 1.392 . S
C312 H329 0.931 . S
C313 C309 1.393 . S
C313 C314 1.401 . S
C313 H330 0.930 . S
C314 C312 1.392 . S
C314 C313 1.401 . S
C314 H331 0.930 . S
C315 O298 1.262 . S
C315 O299 1.260 . S
C316 Tb252 2.833 . S
C316 O296 1.251 . S
C316 O301 1.256 . S
C316 C309 1.500 . S
C317 H282 0.929 . S
C317 C295 1.444 . S
C317 C318 1.317 . S
C318 H280 0.930 . S
C318 C286 1.432 . S
C318 C317 1.317 . S
C319 O303 1.283 . S
C319 O306 1.243 . S
C320 C321 1.382 . S
C320 C324 1.393 . S
C320 C327 1.500 . S
C321 C320 1.382 . S
C321 C322 1.400 . S
C321 H332 0.930 . S
C322 C321 1.400 . S
C322 C323 1.384 . S
C323 C322 1.384 . S
C323 C325 1.392 . S
C323 H333 0.931 . S
C324 C320 1.393 . S
C324 C325 1.401 . S
C324 H334 0.930 . S
C325 C323 1.392 . S
C325 C324 1.401 . S
C325 H335 0.930 . S
C326 O304 1.262 . S
C326 O305 1.260 . S
C327 Tb263 2.833 . S
C327 O302 1.251 . S
C327 O307 1.256 . S
C327 C320 1.500 . S
H328 C311 0.930 . S
H329 C312 0.931 . S
H330 C313 0.930 . S
H331 C314 0.930 . S
H332 C321 0.930 . S
H333 C323 0.931 . S
H334 C324 0.930 . S
H335 C325 0.930 . S
Tb336 N367 2.660 . S
Tb336 N374 2.600 . S
Tb336 O380 2.546 . S
Tb336 O381 2.610 . S
Tb336 O383 2.320 . S
Tb336 O384 2.552 . S
Tb336 O385 2.413 . S
Tb336 O387 2.362 . S
Tb336 O388 2.421 . S
Tb336 C400 2.833 . S
C337 C340 1.432 . S
C337 C341 1.414 . S
C337 N344 1.359 . S
C338 C340 1.417 . S
C338 C342 1.432 . S
C338 C350 1.410 . S
C339 C341 1.444 . S
C339 C342 1.317 . S
C339 H362 0.929 . S
C340 C337 1.432 . S
C340 C338 1.417 . S
C340 N348 1.360 . S
C341 C337 1.414 . S
C341 C339 1.444 . S
C341 C346 1.385 . S
C342 C338 1.432 . S
C342 C339 1.317 . S
C342 H354 0.930 . S
C343 C345 1.392 1_556 S
C343 C346 1.370 1_556 S
C343 H355 0.931 . S
N344 C337 1.359 . S
N344 C345 1.327 . S
N344 Tb347 2.600 . S
C345 C343 1.392 1_554 S
C345 N344 1.327 . S
C345 H352 0.930 1_554 S
C346 C341 1.385 . S
C346 C343 1.370 1_554 S
C346 H365 0.905 1_554 S
Tb347 N344 2.600 . S
Tb347 N348 2.660 . S
Tb347 O381 2.362 . S
Tb347 O382 2.421 . S
Tb347 O386 2.546 1_554 S
Tb347 O387 2.610 . S
Tb347 O389 2.320 . S
Tb347 O390 2.552 . S
Tb347 O391 2.413 . S
Tb347 C411 2.833 . S
N348 C340 1.360 . S
N348 Tb347 2.660 . S
N348 C349 1.305 . S
C349 N348 1.305 . S
C349 C351 1.407 . S
C349 H356 0.930 . S
C350 C338 1.410 . S
C350 C351 1.345 . S
C350 H358 0.930 . S
C351 C349 1.407 . S
C351 C350 1.345 . S
C351 H353 0.930 . S
H352 C345 0.930 1_556 S
H353 C351 0.930 . S
H354 C342 0.930 . S
H355 C343 0.931 . S
H356 C349 0.930 . S
H357 C371 0.930 . S
H358 C350 0.930 . S
H359 C377 0.930 . S
H360 C368 0.930 . S
H361 C375 0.931 . S
H362 C339 0.929 . S
H363 C369 0.930 . S
H364 C402 0.930 . S
H365 C346 0.905 1_556 S
H366 C401 0.929 . S
N367 Tb336 2.660 . S
N367 C368 1.305 . S
N367 C372 1.360 . S
C368 H360 0.930 . S
C368 N367 1.305 . S
C368 C371 1.407 . S
C369 H363 0.930 . S
C369 C370 1.410 . S
C369 C371 1.345 . S
C370 C369 1.410 . S
C370 C372 1.417 . S
C370 C402 1.432 . S
C371 H357 0.930 . S
C371 C368 1.407 . S
C371 C369 1.345 . S
C372 N367 1.360 . S
C372 C370 1.417 . S
C372 C376 1.432 . S
H373 C378 0.930 . S
N374 Tb336 2.600 . S
N374 C376 1.359 . S
N374 C377 1.327 . S
C375 H361 0.931 . S
C375 C377 1.392 . S
C375 C378 1.370 . S
C376 C372 1.432 . S
C376 N374 1.359 . S
C376 C379 1.414 . S
C377 H359 0.930 . S
C377 N374 1.327 . S
C377 C375 1.392 . S
C378 H373 0.930 . S
C378 C375 1.370 . S
C378 C379 1.385 . S
C379 C376 1.414 . S
C379 C378 1.385 . S
C379 C401 1.444 . S
O380 Tb336 2.546 . S
O380 C400 1.251 . S
O381 Tb336 2.610 . S
O381 Tb347 2.362 . S
O381 C392 1.283 . S
O382 Tb347 2.421 . S
O382 C399 1.262 . S
O383 Tb336 2.320 . S
O383 C399 1.260 . S
O384 Tb336 2.552 . S
O384 C392 1.243 . S
O385 Tb336 2.413 . S
O385 C400 1.256 . S
O386 Tb347 2.546 1_556 S
O386 C411 1.251 1_556 S
O387 Tb336 2.362 . S
O387 Tb347 2.610 . S
O387 C403 1.283 . S
O388 Tb336 2.421 . S
O388 C410 1.262 . S
O389 Tb347 2.320 . S
O389 C410 1.260 . S
O390 Tb347 2.552 . S
O390 C403 1.243 . S
O391 Tb347 2.413 . S
O391 C411 1.256 . S
C392 O381 1.283 . S
C392 O384 1.243 . S
C393 C395 1.382 . S
C393 C397 1.393 . S
C393 C400 1.500 . S
C394 C395 1.400 . S
C394 C396 1.384 . S
C395 C393 1.382 . S
C395 C394 1.400 . S
C395 H412 0.930 . S
C396 C394 1.384 . S
C396 C398 1.392 . S
C396 H413 0.931 . S
C397 C393 1.393 . S
C397 C398 1.401 . S
C397 H414 0.930 . S
C398 C396 1.392 . S
C398 C397 1.401 . S
C398 H415 0.930 . S
C399 O382 1.262 . S
C399 O383 1.260 . S
C400 Tb336 2.833 . S
C400 O380 1.251 . S
C400 O385 1.256 . S
C400 C393 1.500 . S
C401 H366 0.929 . S
C401 C379 1.444 . S
C401 C402 1.317 . S
C402 H364 0.930 . S
C402 C370 1.432 . S
C402 C401 1.317 . S
C403 O387 1.283 . S
C403 O390 1.243 . S
C404 C405 1.382 . S
C404 C408 1.393 . S
C404 C411 1.500 1_556 S
C405 C404 1.382 . S
C405 C406 1.400 . S
C405 H416 0.930 1_556 S
C406 C405 1.400 . S
C406 C407 1.384 . S
C407 C406 1.384 . S
C407 C409 1.392 . S
C407 H417 0.931 . S
C408 C404 1.393 . S
C408 C409 1.401 . S
C408 H418 0.930 . S
C409 C407 1.392 . S
C409 C408 1.401 . S
C409 H419 0.930 . S
C410 O388 1.262 . S
C410 O389 1.260 . S
C411 Tb347 2.833 . S
C411 O386 1.251 1_554 S
C411 O391 1.256 . S
C411 C404 1.500 1_554 S
H412 C395 0.930 . S
H413 C396 0.931 . S
H414 C397 0.930 . S
H415 C398 0.930 . S
H416 C405 0.930 1_554 S
H417 C407 0.931 . S
H418 C408 0.930 . S
H419 C409 0.930 . S
Tb420 N451 2.660 . S
Tb420 N458 2.600 1_455 S
Tb420 O464 2.546 . S
Tb420 O465 2.610 . S
Tb420 O467 2.320 . S
Tb420 O468 2.552 . S
Tb420 O469 2.413 . S
Tb420 O471 2.362 1_455 S
Tb420 O472 2.421 1_455 S
Tb420 C484 2.833 . S
C421 C424 1.432 . S
C421 C425 1.414 . S
C421 N428 1.359 . S
C422 C424 1.417 . S
C422 C426 1.432 . S
C422 C434 1.410 1_455 S
C423 C425 1.444 . S
C423 C426 1.317 . S
C423 H446 0.929 . S
C424 C421 1.432 . S
C424 C422 1.417 . S
C424 N432 1.360 1_455 S
C425 C421 1.414 . S
C425 C423 1.444 . S
C425 C430 1.385 . S
C426 C422 1.432 . S
C426 C423 1.317 . S
C426 H438 0.930 . S
C427 C429 1.392 . S
C427 C430 1.370 . S
C427 H439 0.931 . S
N428 C421 1.359 . S
N428 C429 1.327 . S
N428 Tb431 2.600 1_455 S
C429 C427 1.392 . S
C429 N428 1.327 . S
C429 H436 0.930 . S
C430 C425 1.385 . S
C430 C427 1.370 . S
C430 H449 0.930 . S
Tb431 N428 2.600 1_655 S
Tb431 N432 2.660 . S
Tb431 O465 2.362 1_655 S
Tb431 O466 2.421 1_655 S
Tb431 O470 2.546 . S
Tb431 O471 2.610 . S
Tb431 O473 2.320 . S
Tb431 O474 2.552 . S
Tb431 O475 2.413 . S
Tb431 C495 2.833 . S
N432 C424 1.360 1_655 S
N432 Tb431 2.660 . S
N432 C433 1.305 . S
C433 N432 1.305 . S
C433 C435 1.407 . S
C433 H440 0.930 . S
C434 C422 1.410 1_655 S
C434 C435 1.345 . S
C434 H442 0.931 . S
C435 C433 1.407 . S
C435 C434 1.345 . S
C435 H437 0.930 . S
H436 C429 0.930 . S
H437 C435 0.930 . S
H438 C426 0.930 . S
H439 C427 0.931 . S
H440 C433 0.930 . S
H441 C455 0.930 . S
H442 C434 0.931 . S
H443 C461 0.930 . S
H444 C452 0.930 . S
H445 C459 0.931 . S
H446 C423 0.929 . S
H447 C453 0.928 . S
H448 C486 0.930 . S
H449 C430 0.930 . S
H450 C485 0.929 . S
N451 Tb420 2.660 . S
N451 C452 1.305 . S
N451 C456 1.360 1_455 S
C452 H444 0.930 . S
C452 N451 1.305 . S
C452 C455 1.407 . S
C453 H447 0.928 . S
C453 C454 1.410 1_455 S
C453 C455 1.345 . S
C454 C453 1.410 1_655 S
C454 C456 1.417 . S
C454 C486 1.432 . S
C455 H441 0.930 . S
C455 C452 1.407 . S
C455 C453 1.345 . S
C456 N451 1.360 1_655 S
C456 C454 1.417 . S
C456 C460 1.432 . S
H457 C462 0.930 . S
N458 Tb420 2.600 1_655 S
N458 C460 1.359 . S
N458 C461 1.327 . S
C459 H445 0.931 . S
C459 C461 1.392 . S
C459 C462 1.370 . S
C460 C456 1.432 . S
C460 N458 1.359 . S
C460 C463 1.414 . S
C461 H443 0.930 . S
C461 N458 1.327 . S
C461 C459 1.392 . S
C462 H457 0.930 . S
C462 C459 1.370 . S
C462 C463 1.385 . S
C463 C460 1.414 . S
C463 C462 1.385 . S
C463 C485 1.444 . S
O464 Tb420 2.546 . S
O464 C484 1.251 . S
O465 Tb420 2.610 . S
O465 Tb431 2.362 1_455 S
O465 C476 1.283 . S
O466 Tb431 2.421 1_455 S
O466 C483 1.262 . S
O467 Tb420 2.320 . S
O467 C483 1.260 . S
O468 Tb420 2.552 . S
O468 C476 1.243 . S
O469 Tb420 2.413 . S
O469 C484 1.256 . S
O470 Tb431 2.546 . S
O470 C495 1.251 . S
O471 Tb420 2.362 1_655 S
O471 Tb431 2.610 . S
O471 C487 1.283 . S
O472 Tb420 2.421 1_655 S
O472 C494 1.262 . S
O473 Tb431 2.320 . S
O473 C494 1.260 . S
O474 Tb431 2.552 . S
O474 C487 1.243 . S
O475 Tb431 2.413 . S
O475 C495 1.256 . S
C476 O465 1.283 . S
C476 O468 1.243 . S
C477 C479 1.382 . S
C477 C481 1.393 . S
C477 C484 1.500 . S
C478 C479 1.400 . S
C478 C480 1.384 . S
C479 C477 1.382 . S
C479 C478 1.400 . S
C479 H496 0.930 . S
C480 C478 1.384 . S
C480 C482 1.392 . S
C480 H497 0.931 . S
C481 C477 1.393 . S
C481 C482 1.401 . S
C481 H498 0.930 . S
C482 C480 1.392 . S
C482 C481 1.401 . S
C482 H499 0.930 . S
C483 O466 1.262 . S
C483 O467 1.260 . S
C484 Tb420 2.833 . S
C484 O464 1.251 . S
C484 O469 1.256 . S
C484 C477 1.500 . S
C485 H450 0.929 . S
C485 C463 1.444 . S
C485 C486 1.317 . S
C486 H448 0.930 . S
C486 C454 1.432 . S
C486 C485 1.317 . S
C487 O471 1.283 . S
C487 O474 1.243 . S
C488 C489 1.382 . S
C488 C492 1.393 . S
C488 C495 1.500 . S
C489 C488 1.382 . S
C489 C490 1.400 . S
C489 H500 0.930 . S
C490 C489 1.400 . S
C490 C491 1.384 . S
C491 C490 1.384 . S
C491 C493 1.392 . S
C491 H501 0.931 . S
C492 C488 1.393 . S
C492 C493 1.401 . S
C492 H502 0.930 . S
C493 C491 1.392 . S
C493 C492 1.401 . S
C493 H503 0.930 . S
C494 O472 1.262 . S
C494 O473 1.260 . S
C495 Tb431 2.833 . S
C495 O470 1.251 . S
C495 O475 1.256 . S
C495 C488 1.500 . S
H496 C479 0.930 . S
H497 C480 0.931 . S
H498 C481 0.930 . S
H499 C482 0.930 . S
H500 C489 0.930 . S
H501 C491 0.931 . S
H502 C492 0.930 . S
H503 C493 0.930 . S
Tb504 N535 2.660 . S
Tb504 N542 2.600 1_655 S
Tb504 O548 2.546 . S
Tb504 O549 2.610 . S
Tb504 O551 2.320 . S
Tb504 O552 2.552 . S
Tb504 O553 2.413 . S
Tb504 O555 2.362 1_655 S
Tb504 O556 2.421 1_655 S
Tb504 C568 2.833 . S
C505 C508 1.432 . S
C505 C509 1.414 . S
C505 N512 1.359 . S
C506 C508 1.417 . S
C506 C510 1.432 . S
C506 C518 1.413 . S
C507 C509 1.444 . S
C507 C510 1.317 . S
C507 H530 0.929 . S
C508 C505 1.432 . S
C508 C506 1.417 . S
C508 N516 1.360 1_655 S
C509 C505 1.414 . S
C509 C507 1.444 . S
C509 C514 1.385 . S
C510 C506 1.432 . S
C510 C507 1.317 . S
C510 H522 0.930 . S
C511 C513 1.392 . S
C511 C514 1.370 . S
C511 H523 0.931 . S
N512 C505 1.359 . S
N512 C513 1.327 . S
N512 Tb515 2.600 1_655 S
C513 C511 1.392 . S
C513 N512 1.327 . S
C513 H520 0.930 . S
C514 C509 1.385 . S
C514 C511 1.370 . S
C514 H533 0.930 . S
Tb515 N512 2.600 1_455 S
Tb515 N516 2.660 . S
Tb515 O549 2.362 1_455 S
Tb515 O550 2.421 1_455 S
Tb515 O554 2.546 . S
Tb515 O555 2.610 . S
Tb515 O557 2.320 . S
Tb515 O558 2.552 . S
Tb515 O559 2.413 . S
Tb515 C579 2.833 . S
N516 C508 1.360 1_455 S
N516 Tb515 2.660 . S
N516 C517 1.305 . S
C517 N516 1.305 . S
C517 C519 1.407 . S
C517 H524 0.930 . S
C518 C506 1.413 . S
C518 C519 1.339 1_655 S
C518 H526 0.934 . S
C519 C517 1.407 . S
C519 C518 1.339 1_455 S
C519 H521 0.930 . S
H520 C513 0.930 . S
H521 C519 0.930 . S
H522 C510 0.930 . S
H523 C511 0.931 . S
H524 C517 0.930 . S
H525 C539 0.930 . S
H526 C518 0.934 . S
H527 C545 0.930 . S
H528 C536 0.930 . S
H529 C543 0.931 . S
H530 C507 0.929 . S
H531 C537 0.930 . S
H532 C570 0.930 . S
H533 C514 0.930 . S
H534 C569 0.929 . S
N535 Tb504 2.660 . S
N535 C536 1.305 . S
N535 C540 1.360 1_655 S
C536 H528 0.930 . S
C536 N535 1.305 . S
C536 C539 1.407 . S
C537 H531 0.930 . S
C537 C538 1.410 . S
C537 C539 1.346 1_455 S
C538 C537 1.410 . S
C538 C540 1.417 . S
C538 C570 1.432 . S
C539 H525 0.930 . S
C539 C536 1.407 . S
C539 C537 1.346 1_655 S
C540 N535 1.360 1_455 S
C540 C538 1.417 . S
C540 C544 1.432 . S
H541 C546 0.930 . S
N542 Tb504 2.600 1_455 S
N542 C544 1.359 . S
N542 C545 1.327 . S
C543 H529 0.931 . S
C543 C545 1.392 . S
C543 C546 1.370 . S
C544 C540 1.432 . S
C544 N542 1.359 . S
C544 C547 1.414 . S
C545 H527 0.930 . S
C545 N542 1.327 . S
C545 C543 1.392 . S
C546 H541 0.930 . S
C546 C543 1.370 . S
C546 C547 1.385 . S
C547 C544 1.414 . S
C547 C546 1.385 . S
C547 C569 1.444 . S
O548 Tb504 2.546 . S
O548 C568 1.251 . S
O549 Tb504 2.610 . S
O549 Tb515 2.362 1_655 S
O549 C560 1.283 . S
O550 Tb515 2.421 1_655 S
O550 C567 1.262 . S
O551 Tb504 2.320 . S
O551 C567 1.260 . S
O552 Tb504 2.552 . S
O552 C560 1.243 . S
O553 Tb504 2.413 . S
O553 C568 1.256 . S
O554 Tb515 2.546 . S
O554 C579 1.251 . S
O555 Tb504 2.362 1_455 S
O555 Tb515 2.610 . S
O555 C571 1.283 . S
O556 Tb504 2.421 1_455 S
O556 C578 1.262 . S
O557 Tb515 2.320 . S
O557 C578 1.260 . S
O558 Tb515 2.552 . S
O558 C571 1.243 . S
O559 Tb515 2.413 . S
O559 C579 1.256 . S
C560 O549 1.283 . S
C560 O552 1.243 . S
C561 C563 1.382 . S
C561 C565 1.393 . S
C561 C568 1.500 . S
C562 C563 1.400 . S
C562 C564 1.384 . S
C563 C561 1.382 . S
C563 C562 1.400 . S
C563 H580 0.930 . S
C564 C562 1.384 . S
C564 C566 1.392 . S
C564 H581 0.931 . S
C565 C561 1.393 . S
C565 C566 1.401 . S
C565 H582 0.930 . S
C566 C564 1.392 . S
C566 C565 1.401 . S
C566 H583 0.930 . S
C567 O550 1.262 . S
C567 O551 1.260 . S
C568 Tb504 2.833 . S
C568 O548 1.251 . S
C568 O553 1.256 . S
C568 C561 1.500 . S
C569 H534 0.929 . S
C569 C547 1.444 . S
C569 C570 1.317 . S
C570 H532 0.930 . S
C570 C538 1.432 . S
C570 C569 1.317 . S
C571 O555 1.283 . S
C571 O558 1.243 . S
C572 C573 1.382 . S
C572 C576 1.393 . S
C572 C579 1.500 . S
C573 C572 1.382 . S
C573 C574 1.400 . S
C573 H584 0.930 . S
C574 C573 1.400 . S
C574 C575 1.384 . S
C575 C574 1.384 . S
C575 C577 1.392 . S
C575 H585 0.931 . S
C576 C572 1.393 . S
C576 C577 1.401 . S
C576 H586 0.930 . S
C577 C575 1.392 . S
C577 C576 1.401 . S
C577 H587 0.930 . S
C578 O556 1.262 . S
C578 O557 1.260 . S
C579 Tb515 2.833 . S
C579 O554 1.251 . S
C579 O559 1.256 . S
C579 C572 1.500 . S
H580 C563 0.930 . S
H581 C564 0.931 . S
H582 C565 0.930 . S
H583 C566 0.930 . S
H584 C573 0.930 . S
H585 C575 0.931 . S
H586 C576 0.930 . S
H587 C577 0.930 . S
Tb588 N619 2.660 . S
Tb588 N626 2.600 1_565 S
Tb588 O632 2.546 . S
Tb588 O633 2.610 . S
Tb588 O635 2.320 . S
Tb588 O636 2.552 . S
Tb588 O637 2.413 . S
Tb588 O639 2.362 1_565 S
Tb588 O640 2.421 1_565 S
Tb588 C652 2.833 . S
C589 C592 1.432 . S
C589 C593 1.414 . S
C589 N596 1.359 . S
C590 C592 1.417 . S
C590 C594 1.432 . S
C590 C602 1.410 1_565 S
C591 C593 1.444 . S
C591 C594 1.317 . S
C591 H614 0.929 . S
C592 C589 1.432 . S
C592 C590 1.417 . S
C592 N600 1.360 1_565 S
C593 C589 1.414 . S
C593 C591 1.444 . S
C593 C598 1.385 . S
C594 C590 1.432 . S
C594 C591 1.317 . S
C594 H606 0.930 . S
C595 C597 1.392 . S
C595 C598 1.370 . S
C595 H607 0.931 . S
N596 C589 1.359 . S
N596 C597 1.327 . S
N596 Tb599 2.600 1_565 S
C597 C595 1.392 . S
C597 N596 1.327 . S
C597 H604 0.930 . S
C598 C593 1.385 . S
C598 C595 1.370 . S
C598 H617 0.930 . S
Tb599 N596 2.600 1_545 S
Tb599 N600 2.660 . S
Tb599 O633 2.362 1_545 S
Tb599 O634 2.421 1_545 S
Tb599 O638 2.546 . S
Tb599 O639 2.610 . S
Tb599 O641 2.320 . S
Tb599 O642 2.552 . S
Tb599 O643 2.413 . S
Tb599 C663 2.833 . S
N600 C592 1.360 1_545 S
N600 Tb599 2.660 . S
N600 C601 1.305 . S
C601 N600 1.305 . S
C601 C603 1.407 . S
C601 H608 0.930 . S
C602 C590 1.410 1_545 S
C602 C603 1.345 . S
C602 H610 0.931 . S
C603 C601 1.407 . S
C603 C602 1.345 . S
C603 H605 0.930 . S
H604 C597 0.930 . S
H605 C603 0.930 . S
H606 C594 0.930 . S
H607 C595 0.931 . S
H608 C601 0.930 . S
H609 C623 0.930 . S
H610 C602 0.931 . S
H611 C629 0.930 . S
H612 C620 0.930 . S
H613 C627 0.931 . S
H614 C591 0.929 . S
H615 C621 0.928 . S
H616 C654 0.930 . S
H617 C598 0.930 . S
H618 C653 0.929 . S
N619 Tb588 2.660 . S
N619 C620 1.305 . S
N619 C624 1.360 1_565 S
C620 H612 0.930 . S
C620 N619 1.305 . S
C620 C623 1.407 . S
C621 H615 0.928 . S
C621 C622 1.410 1_565 S
C621 C623 1.345 . S
C622 C621 1.410 1_545 S
C622 C624 1.417 . S
C622 C654 1.432 . S
C623 H609 0.930 . S
C623 C620 1.407 . S
C623 C621 1.345 . S
C624 N619 1.360 1_545 S
C624 C622 1.417 . S
C624 C628 1.432 . S
H625 C630 0.930 . S
N626 Tb588 2.600 1_545 S
N626 C628 1.359 . S
N626 C629 1.327 . S
C627 H613 0.931 . S
C627 C629 1.392 . S
C627 C630 1.370 . S
C628 C624 1.432 . S
C628 N626 1.359 . S
C628 C631 1.414 . S
C629 H611 0.930 . S
C629 N626 1.327 . S
C629 C627 1.392 . S
C630 H625 0.930 . S
C630 C627 1.370 . S
C630 C631 1.385 . S
C631 C628 1.414 . S
C631 C630 1.385 . S
C631 C653 1.444 . S
O632 Tb588 2.546 . S
O632 C652 1.251 . S
O633 Tb588 2.610 . S
O633 Tb599 2.362 1_565 S
O633 C644 1.283 . S
O634 Tb599 2.421 1_565 S
O634 C651 1.262 . S
O635 Tb588 2.320 . S
O635 C651 1.260 . S
O636 Tb588 2.552 . S
O636 C644 1.243 . S
O637 Tb588 2.413 . S
O637 C652 1.256 . S
O638 Tb599 2.546 . S
O638 C663 1.251 . S
O639 Tb588 2.362 1_545 S
O639 Tb599 2.610 . S
O639 C655 1.283 . S
O640 Tb588 2.421 1_545 S
O640 C662 1.262 . S
O641 Tb599 2.320 . S
O641 C662 1.260 . S
O642 Tb599 2.552 . S
O642 C655 1.243 . S
O643 Tb599 2.413 . S
O643 C663 1.256 . S
C644 O633 1.283 . S
C644 O636 1.243 . S
C645 C647 1.382 . S
C645 C649 1.393 . S
C645 C652 1.500 . S
C646 C647 1.400 . S
C646 C648 1.384 . S
C647 C645 1.382 . S
C647 C646 1.400 . S
C647 H664 0.930 . S
C648 C646 1.384 . S
C648 C650 1.392 . S
C648 H665 0.931 . S
C649 C645 1.393 . S
C649 C650 1.401 . S
C649 H666 0.930 . S
C650 C648 1.392 . S
C650 C649 1.401 . S
C650 H667 0.930 . S
C651 O634 1.262 . S
C651 O635 1.260 . S
C652 Tb588 2.833 . S
C652 O632 1.251 . S
C652 O637 1.256 . S
C652 C645 1.500 . S
C653 H618 0.929 . S
C653 C631 1.444 . S
C653 C654 1.317 . S
C654 H616 0.930 . S
C654 C622 1.432 . S
C654 C653 1.317 . S
C655 O639 1.283 . S
C655 O642 1.243 . S
C656 C657 1.382 . S
C656 C660 1.393 . S
C656 C663 1.500 . S
C657 C656 1.382 . S
C657 C658 1.400 . S
C657 H668 0.930 . S
C658 C657 1.400 . S
C658 C659 1.384 . S
C659 C658 1.384 . S
C659 C661 1.392 . S
C659 H669 0.931 . S
C660 C656 1.393 . S
C660 C661 1.401 . S
C660 H670 0.930 . S
C661 C659 1.392 . S
C661 C660 1.401 . S
C661 H671 0.930 . S
C662 O640 1.262 . S
C662 O641 1.260 . S
C663 Tb599 2.833 . S
C663 O638 1.251 . S
C663 O643 1.256 . S
C663 C656 1.500 . S
H664 C647 0.930 . S
H665 C648 0.931 . S
H666 C649 0.930 . S
H667 C650 0.930 . S
H668 C657 0.930 . S
H669 C659 0.931 . S
H670 C660 0.930 . S
H671 C661 0.930 . S
Tb672 N703 2.660 . S
Tb672 N710 2.600 . S
Tb672 O716 2.546 . S
Tb672 O717 2.610 . S
Tb672 O719 2.320 . S
Tb672 O720 2.552 . S
Tb672 O721 2.413 . S
Tb672 O723 2.362 . S
Tb672 O724 2.421 . S
Tb672 C736 2.833 . S
C673 C676 1.432 . S
C673 C677 1.414 . S
C673 N680 1.359 . S
C674 C676 1.417 . S
C674 C678 1.432 . S
C674 C686 1.410 . S
C675 C677 1.444 . S
C675 C678 1.317 . S
C675 H698 0.929 . S
C676 C673 1.432 . S
C676 C674 1.417 . S
C676 N684 1.360 . S
C677 C673 1.414 . S
C677 C675 1.444 . S
C677 C682 1.385 . S
C678 C674 1.432 . S
C678 C675 1.317 . S
C678 H690 0.930 . S
C679 C681 1.392 . S
C679 C682 1.370 . S
C679 H691 0.931 . S
N680 C673 1.359 . S
N680 C681 1.327 . S
N680 Tb683 2.600 . S
C681 C679 1.392 . S
C681 N680 1.327 . S
C681 H688 0.930 . S
C682 C677 1.385 . S
C682 C679 1.370 . S
C682 H701 0.930 . S
Tb683 N680 2.600 . S
Tb683 N684 2.660 . S
Tb683 O717 2.362 . S
Tb683 O718 2.421 . S
Tb683 O722 2.546 . S
Tb683 O723 2.610 . S
Tb683 O725 2.320 . S
Tb683 O726 2.552 . S
Tb683 O727 2.413 . S
Tb683 C747 2.833 . S
N684 C676 1.360 . S
N684 Tb683 2.660 . S
N684 C685 1.305 . S
C685 N684 1.305 . S
C685 C687 1.407 . S
C685 H692 0.930 . S
C686 C674 1.410 . S
C686 C687 1.345 . S
C686 H694 0.930 . S
C687 C685 1.407 . S
C687 C686 1.345 . S
C687 H689 0.930 . S
H688 C681 0.930 . S
H689 C687 0.930 . S
H690 C678 0.930 . S
H691 C679 0.931 . S
H692 C685 0.930 . S
H693 C707 0.930 . S
H694 C686 0.930 . S
H695 C713 0.930 . S
H696 C704 0.930 . S
H697 C711 0.931 . S
H698 C675 0.929 . S
H699 C705 0.930 . S
H700 C738 0.930 . S
H701 C682 0.930 . S
H702 C737 0.929 . S
N703 Tb672 2.660 . S
N703 C704 1.305 . S
N703 C708 1.360 . S
C704 H696 0.930 . S
C704 N703 1.305 . S
C704 C707 1.407 . S
C705 H699 0.930 . S
C705 C706 1.410 . S
C705 C707 1.345 . S
C706 C705 1.410 . S
C706 C708 1.417 . S
C706 C738 1.432 . S
C707 H693 0.930 . S
C707 C704 1.407 . S
C707 C705 1.345 . S
C708 N703 1.360 . S
C708 C706 1.417 . S
C708 C712 1.432 . S
H709 C714 0.930 . S
N710 Tb672 2.600 . S
N710 C712 1.359 . S
N710 C713 1.327 . S
C711 H697 0.931 . S
C711 C713 1.392 . S
C711 C714 1.370 . S
C712 C708 1.432 . S
C712 N710 1.359 . S
C712 C715 1.414 . S
C713 H695 0.930 . S
C713 N710 1.327 . S
C713 C711 1.392 . S
C714 H709 0.930 . S
C714 C711 1.370 . S
C714 C715 1.385 . S
C715 C712 1.414 . S
C715 C714 1.385 . S
C715 C737 1.444 . S
O716 Tb672 2.546 . S
O716 C736 1.251 . S
O717 Tb672 2.610 . S
O717 Tb683 2.362 . S
O717 C728 1.283 . S
O718 Tb683 2.421 . S
O718 C735 1.262 . S
O719 Tb672 2.320 . S
O719 C735 1.260 . S
O720 Tb672 2.552 . S
O720 C728 1.243 . S
O721 Tb672 2.413 . S
O721 C736 1.256 . S
O722 Tb683 2.546 . S
O722 C747 1.251 . S
O723 Tb672 2.362 . S
O723 Tb683 2.610 . S
O723 C739 1.283 . S
O724 Tb672 2.421 . S
O724 C746 1.262 . S
O725 Tb683 2.320 . S
O725 C746 1.260 . S
O726 Tb683 2.552 . S
O726 C739 1.243 . S
O727 Tb683 2.413 . S
O727 C747 1.256 . S
C728 O717 1.283 . S
C728 O720 1.243 . S
C729 C731 1.382 . S
C729 C733 1.393 . S
C729 C736 1.500 . S
C730 C731 1.400 . S
C730 C732 1.384 . S
C731 C729 1.382 . S
C731 C730 1.400 . S
C731 H748 0.930 . S
C732 C730 1.384 . S
C732 C734 1.392 . S
C732 H749 0.931 . S
C733 C729 1.393 . S
C733 C734 1.401 . S
C733 H750 0.930 . S
C734 C732 1.392 . S
C734 C733 1.401 . S
C734 H751 0.930 . S
C735 O718 1.262 . S
C735 O719 1.260 . S
C736 Tb672 2.833 . S
C736 O716 1.251 . S
C736 O721 1.256 . S
C736 C729 1.500 . S
C737 H702 0.929 . S
C737 C715 1.444 . S
C737 C738 1.317 . S
C738 H700 0.930 . S
C738 C706 1.432 . S
C738 C737 1.317 . S
C739 O723 1.283 . S
C739 O726 1.243 . S
C740 C741 1.382 . S
C740 C744 1.393 . S
C740 C747 1.500 . S
C741 C740 1.382 . S
C741 C742 1.400 . S
C741 H752 0.930 . S
C742 C741 1.400 . S
C742 C743 1.384 . S
C743 C742 1.384 . S
C743 C745 1.392 . S
C743 H753 0.931 . S
C744 C740 1.393 . S
C744 C745 1.401 . S
C744 H754 0.930 . S
C745 C743 1.392 . S
C745 C744 1.401 . S
C745 H755 0.930 . S
C746 O724 1.262 . S
C746 O725 1.260 . S
C747 Tb683 2.833 . S
C747 O722 1.251 . S
C747 O727 1.256 . S
C747 C740 1.500 . S
H748 C731 0.930 . S
H749 C732 0.931 . S
H750 C733 0.930 . S
H751 C734 0.930 . S
H752 C741 0.930 . S
H753 C743 0.931 . S
H754 C744 0.930 . S
H755 C745 0.930 . S
Tb756 N787 2.660 . S
Tb756 N794 2.600 1_455 S
Tb756 O800 2.546 . S
Tb756 O801 2.610 . S
Tb756 O803 2.320 . S
Tb756 O804 2.552 . S
Tb756 O805 2.413 . S
Tb756 O807 2.362 1_455 S
Tb756 O808 2.421 1_455 S
Tb756 C820 2.833 . S
C757 C760 1.432 . S
C757 C761 1.414 . S
C757 N764 1.359 . S
C758 C760 1.417 . S
C758 C762 1.432 . S
C758 C770 1.413 . S
C759 C761 1.444 . S
C759 C762 1.317 . S
C759 H782 0.929 . S
C760 C757 1.432 . S
C760 C758 1.417 . S
C760 N768 1.360 1_455 S
C761 C757 1.414 . S
C761 C759 1.444 . S
C761 C766 1.385 1_556 S
C762 C758 1.432 . S
C762 C759 1.317 . S
C762 H774 0.930 . S
C763 C765 1.392 . S
C763 C766 1.370 . S
C763 H775 0.931 . S
N764 C757 1.359 . S
N764 C765 1.327 1_556 S
N764 Tb767 2.600 1_455 S
C765 C763 1.392 . S
C765 N764 1.327 1_554 S
C765 H772 0.930 . S
C766 C761 1.385 1_554 S
C766 C763 1.370 . S
C766 H785 0.930 . S
Tb767 N764 2.600 1_655 S
Tb767 N768 2.660 . S
Tb767 O801 2.362 1_655 S
Tb767 O802 2.421 1_655 S
Tb767 O806 2.546 1_556 S
Tb767 O807 2.610 . S
Tb767 O809 2.320 . S
Tb767 O810 2.552 . S
Tb767 O811 2.413 . S
Tb767 C831 2.833 1_556 S
N768 C760 1.360 1_655 S
N768 Tb767 2.660 . S
N768 C769 1.305 . S
C769 N768 1.305 . S
C769 C771 1.407 . S
C769 H776 0.930 . S
C770 C758 1.413 . S
C770 C771 1.339 1_455 S
C770 H778 0.934 . S
C771 C769 1.407 . S
C771 C770 1.339 1_655 S
C771 H773 0.930 . S
H772 C765 0.930 . S
H773 C771 0.930 . S
H774 C762 0.930 . S
H775 C763 0.931 . S
H776 C769 0.930 . S
H777 C791 0.930 1_554 S
H778 C770 0.934 . S
H779 C797 0.930 . S
H780 C788 0.930 . S
H781 C795 0.931 . S
H782 C759 0.929 . S
H783 C789 0.930 . S
H784 C822 0.930 . S
H785 C766 0.930 . S
H786 C821 0.929 . S
N787 Tb756 2.660 . S
N787 C788 1.305 . S
N787 C792 1.360 1_455 S
C788 H780 0.930 . S
C788 N787 1.305 . S
C788 C791 1.407 . S
C789 H783 0.930 . S
C789 C790 1.410 . S
C789 C791 1.346 1_655 S
C790 C789 1.410 . S
C790 C792 1.417 . S
C790 C822 1.432 . S
C791 H777 0.930 1_556 S
C791 C788 1.407 . S
C791 C789 1.346 1_455 S
C792 N787 1.360 1_655 S
C792 C790 1.417 . S
C792 C796 1.432 . S
H793 C798 0.930 . S
N794 Tb756 2.600 1_655 S
N794 C796 1.359 . S
N794 C797 1.327 . S
C795 H781 0.931 . S
C795 C797 1.392 . S
C795 C798 1.370 . S
C796 C792 1.432 . S
C796 N794 1.359 . S
C796 C799 1.414 . S
C797 H779 0.930 . S
C797 N794 1.327 . S
C797 C795 1.392 . S
C798 H793 0.930 . S
C798 C795 1.370 . S
C798 C799 1.385 . S
C799 C796 1.414 . S
C799 C798 1.385 . S
C799 C821 1.444 . S
O800 Tb756 2.546 . S
O800 C820 1.251 . S
O801 Tb756 2.610 . S
O801 Tb767 2.362 1_455 S
O801 C812 1.283 . S
O802 Tb767 2.421 1_455 S
O802 C819 1.262 . S
O803 Tb756 2.320 . S
O803 C819 1.260 . S
O804 Tb756 2.552 . S
O804 C812 1.243 . S
O805 Tb756 2.413 . S
O805 C820 1.256 . S
O806 Tb767 2.546 1_554 S
O806 C831 1.251 . S
O807 Tb756 2.362 1_655 S
O807 Tb767 2.610 . S
O807 C823 1.283 . S
O808 Tb756 2.421 1_655 S
O808 C830 1.262 . S
O809 Tb767 2.320 . S
O809 C830 1.260 . S
O810 Tb767 2.552 . S
O810 C823 1.243 . S
O811 Tb767 2.413 . S
O811 C831 1.256 1_556 S
C812 O801 1.283 . S
C812 O804 1.243 . S
C813 C815 1.382 . S
C813 C817 1.393 . S
C813 C820 1.500 . S
C814 C815 1.400 . S
C814 C816 1.384 . S
C815 C813 1.382 . S
C815 C814 1.400 . S
C815 H832 0.930 . S
C816 C814 1.384 . S
C816 C818 1.392 . S
C816 H833 0.931 . S
C817 C813 1.393 . S
C817 C818 1.401 . S
C817 H834 0.930 . S
C818 C816 1.392 . S
C818 C817 1.401 . S
C818 H835 0.930 . S
C819 O802 1.262 . S
C819 O803 1.260 . S
C820 Tb756 2.833 . S
C820 O800 1.251 . S
C820 O805 1.256 . S
C820 C813 1.500 . S
C821 H786 0.929 . S
C821 C799 1.444 . S
C821 C822 1.317 . S
C822 H784 0.930 . S
C822 C790 1.432 . S
C822 C821 1.317 . S
C823 O807 1.283 . S
C823 O810 1.243 . S
C824 C825 1.382 . S
C824 C828 1.393 . S
C824 C831 1.500 . S
C825 C824 1.382 . S
C825 C826 1.400 . S
C825 H836 0.930 . S
C826 C825 1.400 . S
C826 C827 1.384 . S
C827 C826 1.384 . S
C827 C829 1.392 . S
C827 H837 0.931 . S
C828 C824 1.393 . S
C828 C829 1.401 . S
C828 H838 0.930 . S
C829 C827 1.392 . S
C829 C828 1.401 . S
C829 H839 0.930 . S
C830 O808 1.262 . S
C830 O809 1.260 . S
C831 Tb767 2.833 1_554 S
C831 O806 1.251 . S
C831 O811 1.256 1_554 S
C831 C824 1.500 . S
H832 C815 0.930 . S
H833 C816 0.931 . S
H834 C817 0.930 . S
H835 C818 0.930 . S
H836 C825 0.930 . S
H837 C827 0.931 . S
H838 C828 0.930 . S
H839 C829 0.930 . S
Tb840 N871 2.660 . S
Tb840 N878 2.600 1_545 S
Tb840 O884 2.546 . S
Tb840 O885 2.610 . S
Tb840 O887 2.320 . S
Tb840 O888 2.552 . S
Tb840 O889 2.413 . S
Tb840 O891 2.362 1_545 S
Tb840 O892 2.421 1_545 S
Tb840 C904 2.833 . S
C841 C844 1.432 . S
C841 C845 1.414 . S
C841 N848 1.359 . S
C842 C844 1.417 . S
C842 C846 1.432 . S
C842 C854 1.410 1_545 S
C843 C845 1.444 . S
C843 C846 1.317 . S
C843 H866 0.929 . S
C844 C841 1.432 . S
C844 C842 1.417 . S
C844 N852 1.360 1_545 S
C845 C841 1.414 . S
C845 C843 1.444 . S
C845 C850 1.385 . S
C846 C842 1.432 . S
C846 C843 1.317 . S
C846 H858 0.930 . S
C847 C849 1.392 . S
C847 C850 1.370 . S
C847 H859 0.931 . S
N848 C841 1.359 . S
N848 C849 1.327 . S
N848 Tb851 2.600 1_545 S
C849 C847 1.392 . S
C849 N848 1.327 . S
C849 H856 0.930 . S
C850 C845 1.385 . S
C850 C847 1.370 . S
C850 H869 0.930 . S
Tb851 N848 2.600 1_565 S
Tb851 N852 2.660 . S
Tb851 O885 2.362 1_565 S
Tb851 O886 2.421 1_565 S
Tb851 O890 2.546 . S
Tb851 O891 2.610 . S
Tb851 O893 2.320 . S
Tb851 O894 2.552 . S
Tb851 O895 2.413 . S
Tb851 C915 2.833 . S
N852 C844 1.360 1_565 S
N852 Tb851 2.660 . S
N852 C853 1.305 . S
C853 N852 1.305 . S
C853 C855 1.407 . S
C853 H860 0.930 . S
C854 C842 1.410 1_565 S
C854 C855 1.345 . S
C854 H862 0.931 . S
C855 C853 1.407 . S
C855 C854 1.345 . S
C855 H857 0.930 . S
H856 C849 0.930 . S
H857 C855 0.930 . S
H858 C846 0.930 . S
H859 C847 0.931 . S
H860 C853 0.930 . S
H861 C875 0.930 . S
H862 C854 0.931 . S
H863 C881 0.930 . S
H864 C872 0.930 . S
H865 C879 0.931 . S
H866 C843 0.929 . S
H867 C873 0.928 . S
H868 C906 0.930 . S
H869 C850 0.930 . S
H870 C905 0.929 . S
N871 Tb840 2.660 . S
N871 C872 1.305 . S
N871 C876 1.360 1_545 S
C872 H864 0.930 . S
C872 N871 1.305 . S
C872 C875 1.407 . S
C873 H867 0.928 . S
C873 C874 1.410 1_545 S
C873 C875 1.345 . S
C874 C873 1.410 1_565 S
C874 C876 1.417 . S
C874 C906 1.432 . S
C875 H861 0.930 . S
C875 C872 1.407 . S
C875 C873 1.345 . S
C876 N871 1.360 1_565 S
C876 C874 1.417 . S
C876 C880 1.432 . S
H877 C882 0.930 . S
N878 Tb840 2.600 1_565 S
N878 C880 1.359 . S
N878 C881 1.327 . S
C879 H865 0.931 . S
C879 C881 1.392 . S
C879 C882 1.370 . S
C880 C876 1.432 . S
C880 N878 1.359 . S
C880 C883 1.414 . S
C881 H863 0.930 . S
C881 N878 1.327 . S
C881 C879 1.392 . S
C882 H877 0.930 . S
C882 C879 1.370 . S
C882 C883 1.385 . S
C883 C880 1.414 . S
C883 C882 1.385 . S
C883 C905 1.444 . S
O884 Tb840 2.546 . S
O884 C904 1.251 . S
O885 Tb840 2.610 . S
O885 Tb851 2.362 1_545 S
O885 C896 1.283 . S
O886 Tb851 2.421 1_545 S
O886 C903 1.262 . S
O887 Tb840 2.320 . S
O887 C903 1.260 . S
O888 Tb840 2.552 . S
O888 C896 1.243 . S
O889 Tb840 2.413 . S
O889 C904 1.256 . S
O890 Tb851 2.546 . S
O890 C915 1.251 . S
O891 Tb840 2.362 1_565 S
O891 Tb851 2.610 . S
O891 C907 1.283 . S
O892 Tb840 2.421 1_565 S
O892 C914 1.262 . S
O893 Tb851 2.320 . S
O893 C914 1.260 . S
O894 Tb851 2.552 . S
O894 C907 1.243 . S
O895 Tb851 2.413 . S
O895 C915 1.256 . S
C896 O885 1.283 . S
C896 O888 1.243 . S
C897 C899 1.382 . S
C897 C901 1.393 . S
C897 C904 1.500 . S
C898 C899 1.400 . S
C898 C900 1.384 . S
C899 C897 1.382 . S
C899 C898 1.400 . S
C899 H916 0.930 . S
C900 C898 1.384 . S
C900 C902 1.392 . S
C900 H917 0.931 . S
C901 C897 1.393 . S
C901 C902 1.401 . S
C901 H918 0.930 . S
C902 C900 1.392 . S
C902 C901 1.401 . S
C902 H919 0.930 . S
C903 O886 1.262 . S
C903 O887 1.260 . S
C904 Tb840 2.833 . S
C904 O884 1.251 . S
C904 O889 1.256 . S
C904 C897 1.500 . S
C905 H870 0.929 . S
C905 C883 1.444 . S
C905 C906 1.317 . S
C906 H868 0.930 . S
C906 C874 1.432 . S
C906 C905 1.317 . S
C907 O891 1.283 . S
C907 O894 1.243 . S
C908 C909 1.382 . S
C908 C912 1.393 . S
C908 C915 1.500 . S
C909 C908 1.382 . S
C909 C910 1.400 . S
C909 H920 0.930 . S
C910 C909 1.400 . S
C910 C911 1.384 . S
C911 C910 1.384 . S
C911 C913 1.392 . S
C911 H921 0.931 . S
C912 C908 1.393 . S
C912 C913 1.401 . S
C912 H922 0.930 . S
C913 C911 1.392 . S
C913 C912 1.401 . S
C913 H923 0.930 . S
C914 O892 1.262 . S
C914 O893 1.260 . S
C915 Tb851 2.833 . S
C915 O890 1.251 . S
C915 O895 1.256 . S
C915 C908 1.500 . S
H916 C899 0.930 . S
H917 C900 0.931 . S
H918 C901 0.930 . S
H919 C902 0.930 . S
H920 C909 0.930 . S
H921 C911 0.931 . S
H922 C912 0.930 . S
H923 C913 0.930 . S
Tb924 N955 2.660 . S
Tb924 N962 2.600 . S
Tb924 O968 2.546 . S
Tb924 O969 2.610 . S
Tb924 O971 2.320 . S
Tb924 O972 2.552 . S
Tb924 O973 2.413 . S
Tb924 O975 2.362 . S
Tb924 O976 2.421 . S
Tb924 C988 2.833 . S
C925 C928 1.432 . S
C925 C929 1.414 . S
C925 N932 1.359 . S
C926 C928 1.417 . S
C926 C930 1.432 . S
C926 C938 1.410 . S
C927 C929 1.444 . S
C927 C930 1.317 . S
C927 H950 0.929 . S
C928 C925 1.432 . S
C928 C926 1.417 . S
C928 N936 1.360 . S
C929 C925 1.414 . S
C929 C927 1.444 . S
C929 C934 1.385 . S
C930 C926 1.432 . S
C930 C927 1.317 . S
C930 H942 0.930 . S
C931 C933 1.392 . S
C931 C934 1.370 . S
C931 H943 0.931 . S
N932 C925 1.359 . S
N932 C933 1.327 . S
N932 Tb935 2.600 . S
C933 C931 1.392 . S
C933 N932 1.327 . S
C933 H940 0.930 . S
C934 C929 1.385 . S
C934 C931 1.370 . S
C934 H953 0.930 . S
Tb935 N932 2.600 . S
Tb935 N936 2.660 . S
Tb935 O969 2.362 . S
Tb935 O970 2.421 . S
Tb935 O974 2.546 . S
Tb935 O975 2.610 . S
Tb935 O977 2.320 . S
Tb935 O978 2.552 . S
Tb935 O979 2.413 . S
Tb935 C999 2.833 . S
N936 C928 1.360 . S
N936 Tb935 2.660 . S
N936 C937 1.305 . S
C937 N936 1.305 . S
C937 C939 1.407 . S
C937 H944 0.930 . S
C938 C926 1.410 . S
C938 C939 1.345 . S
C938 H946 0.930 . S
C939 C937 1.407 . S
C939 C938 1.345 . S
C939 H941 0.930 . S
H940 C933 0.930 . S
H941 C939 0.930 . S
H942 C930 0.930 . S
H943 C931 0.931 . S
H944 C937 0.930 . S
H945 C959 0.930 . S
H946 C938 0.930 . S
H947 C965 0.930 . S
H948 C956 0.930 . S
H949 C963 0.931 . S
H950 C927 0.929 . S
H951 C957 0.930 . S
H952 C990 0.930 . S
H953 C934 0.930 . S
H954 C989 0.929 . S
N955 Tb924 2.660 . S
N955 C956 1.305 . S
N955 C960 1.360 . S
C956 H948 0.930 . S
C956 N955 1.305 . S
C956 C959 1.407 . S
C957 H951 0.930 . S
C957 C958 1.410 . S
C957 C959 1.345 . S
C958 C957 1.410 . S
C958 C960 1.417 . S
C958 C990 1.432 . S
C959 H945 0.930 . S
C959 C956 1.407 . S
C959 C957 1.345 . S
C960 N955 1.360 . S
C960 C958 1.417 . S
C960 C964 1.432 . S
H961 C966 0.930 . S
N962 Tb924 2.600 . S
N962 C964 1.359 . S
N962 C965 1.327 . S
C963 H949 0.931 . S
C963 C965 1.392 . S
C963 C966 1.370 . S
C964 C960 1.432 . S
C964 N962 1.359 . S
C964 C967 1.414 . S
C965 H947 0.930 . S
C965 N962 1.327 . S
C965 C963 1.392 . S
C966 H961 0.930 . S
C966 C963 1.370 . S
C966 C967 1.385 . S
C967 C964 1.414 . S
C967 C966 1.385 . S
C967 C989 1.444 . S
O968 Tb924 2.546 . S
O968 C988 1.251 . S
O969 Tb924 2.610 . S
O969 Tb935 2.362 . S
O969 C980 1.283 . S
O970 Tb935 2.421 . S
O970 C987 1.262 . S
O971 Tb924 2.320 . S
O971 C987 1.260 . S
O972 Tb924 2.552 . S
O972 C980 1.243 . S
O973 Tb924 2.413 . S
O973 C988 1.256 . S
O974 Tb935 2.546 . S
O974 C999 1.251 . S
O975 Tb924 2.362 . S
O975 Tb935 2.610 . S
O975 C991 1.283 . S
O976 Tb924 2.421 . S
O976 C998 1.262 . S
O977 Tb935 2.320 . S
O977 C998 1.260 . S
O978 Tb935 2.552 . S
O978 C991 1.243 . S
O979 Tb935 2.413 . S
O979 C999 1.256 . S
C980 O969 1.283 . S
C980 O972 1.243 . S
C981 C983 1.382 . S
C981 C985 1.393 . S
C981 C988 1.500 . S
C982 C983 1.400 . S
C982 C984 1.384 . S
C983 C981 1.382 . S
C983 C982 1.400 . S
C983 H1000 0.930 . S
C984 C982 1.384 . S
C984 C986 1.392 . S
C984 H1001 0.931 . S
C985 C981 1.393 . S
C985 C986 1.401 . S
C985 H1002 0.930 . S
C986 C984 1.392 . S
C986 C985 1.401 . S
C986 H1003 0.930 . S
C987 O970 1.262 . S
C987 O971 1.260 . S
C988 Tb924 2.833 . S
C988 O968 1.251 . S
C988 O973 1.256 . S
C988 C981 1.500 . S
C989 H954 0.929 . S
C989 C967 1.444 . S
C989 C990 1.317 . S
C990 H952 0.930 . S
C990 C958 1.432 . S
C990 C989 1.317 . S
C991 O975 1.283 . S
C991 O978 1.243 . S
C992 C993 1.382 . S
C992 C996 1.393 . S
C992 C999 1.500 . S
C993 C992 1.382 . S
C993 C994 1.400 . S
C993 H1004 0.930 . S
C994 C993 1.400 . S
C994 C995 1.384 . S
C995 C994 1.384 . S
C995 C997 1.392 . S
C995 H1005 0.931 . S
C996 C992 1.393 . S
C996 C997 1.401 . S
C996 H1006 0.930 . S
C997 C995 1.392 . S
C997 C996 1.401 . S
C997 H1007 0.930 . S
C998 O976 1.262 . S
C998 O977 1.260 . S
C999 Tb935 2.833 . S
C999 O974 1.251 . S
C999 O979 1.256 . S
C999 C992 1.500 . S
H1000 C983 0.930 . S
H1001 C984 0.931 . S
H1002 C985 0.930 . S
H1003 C986 0.930 . S
H1004 C993 0.930 . S
H1005 C995 0.931 . S
H1006 C996 0.930 . S
H1007 C997 0.930 . S
H1008 C1016 0.929 . S
H1009 C1018 0.930 . S
H1010 C1020 0.930 . S
H1011 C1023 0.929 . S
H1012 C1026 0.930 . S
H1013 C1028 0.960 . S
H1014 C1028 0.960 . S
H1015 C1028 0.960 . S
C1016 H1008 0.929 . S
C1016 C1017 1.377 . S
C1016 C1018 1.384 . S
C1017 C1016 1.377 . S
C1017 C1023 1.390 . S
C1018 H1009 0.930 . S
C1018 C1016 1.384 . S
C1018 C1019 1.372 . S
C1019 C1018 1.372 . S
C1019 C1020 1.400 . S
C1019 C1024 1.490 . S
C1020 H1010 0.930 . S
C1020 C1019 1.400 . S
C1020 C1023 1.386 . S
H1021 C1037 0.930 . S
H1022 C1038 0.931 . S
C1023 H1011 0.929 . S
C1023 C1017 1.390 . S
C1023 C1020 1.386 . S
C1024 C1019 1.490 . S
C1024 C1026 1.395 . S
C1024 C1027 1.403 . S
H1025 C1031 0.930 . S
C1026 H1012 0.930 . S
C1026 C1024 1.395 . S
C1026 C1029 1.403 . S
C1027 C1024 1.403 . S
C1027 C1028 1.524 . S
C1027 C1031 1.400 . S
C1028 H1013 0.960 . S
C1028 H1014 0.960 . S
C1028 H1015 0.960 . S
C1028 C1027 1.524 . S
C1029 C1026 1.403 . S
C1029 C1030 1.392 . S
C1029 C1033 1.495 . S
C1030 C1029 1.392 . S
C1030 C1031 1.385 . S
C1030 C1032 1.478 . S
C1031 H1025 0.930 . S
C1031 C1027 1.400 . S
C1031 C1030 1.385 . S
C1032 C1030 1.478 . S
C1032 C1034 1.381 . S
C1032 C1038 1.383 . S
C1033 C1029 1.495 . S
C1033 H1039 0.959 . S
C1033 H1040 0.961 . S
C1033 H1041 0.960 . S
C1034 C1032 1.381 . S
C1034 C1035 1.394 . S
C1034 H1042 0.930 . S
C1035 C1034 1.394 . S
C1035 C1036 1.383 . S
C1035 H1043 0.929 . S
C1036 C1035 1.383 . S
C1036 C1037 1.377 . S
C1037 H1021 0.930 . S
C1037 C1036 1.377 . S
C1037 C1038 1.379 . S
C1038 H1022 0.931 . S
C1038 C1032 1.383 . S
C1038 C1037 1.379 . S
H1039 C1033 0.959 . S
H1040 C1033 0.961 . S
H1041 C1033 0.960 . S
H1042 C1034 0.930 . S
H1043 C1035 0.929 . S
H1044 C1052 0.929 . S
H1045 C1054 0.930 . S
H1046 C1056 0.930 . S
H1047 C1059 0.929 . S
H1048 C1062 0.930 . S
H1049 C1064 0.960 . S
H1050 C1064 0.960 . S
H1051 C1064 0.960 . S
C1052 H1044 0.929 . S
C1052 C1053 1.377 . S
C1052 C1054 1.384 . S
C1053 C1052 1.377 . S
C1053 C1059 1.390 . S
C1054 H1045 0.930 . S
C1054 C1052 1.384 . S
C1054 C1055 1.372 . S
C1055 C1054 1.372 . S
C1055 C1056 1.400 . S
C1055 C1060 1.490 . S
C1056 H1046 0.930 . S
C1056 C1055 1.400 . S
C1056 C1059 1.386 . S
H1057 C1073 0.930 . S
H1058 C1074 0.931 . S
C1059 H1047 0.929 . S
C1059 C1053 1.390 . S
C1059 C1056 1.386 . S
C1060 C1055 1.490 . S
C1060 C1062 1.395 . S
C1060 C1063 1.403 . S
H1061 C1067 0.930 . S
C1062 H1048 0.930 . S
C1062 C1060 1.395 . S
C1062 C1065 1.403 . S
C1063 C1060 1.403 . S
C1063 C1064 1.524 . S
C1063 C1067 1.400 . S
C1064 H1049 0.960 . S
C1064 H1050 0.960 . S
C1064 H1051 0.960 . S
C1064 C1063 1.524 . S
C1065 C1062 1.403 . S
C1065 C1066 1.392 . S
C1065 C1069 1.495 . S
C1066 C1065 1.392 . S
C1066 C1067 1.385 . S
C1066 C1068 1.478 . S
C1067 H1061 0.930 . S
C1067 C1063 1.400 . S
C1067 C1066 1.385 . S
C1068 C1066 1.478 . S
C1068 C1070 1.381 . S
C1068 C1074 1.383 . S
C1069 C1065 1.495 . S
C1069 H1075 0.959 . S
C1069 H1076 0.961 . S
C1069 H1077 0.960 . S
C1070 C1068 1.381 . S
C1070 C1071 1.394 . S
C1070 H1078 0.930 . S
C1071 C1070 1.394 . S
C1071 C1072 1.383 . S
C1071 H1079 0.929 . S
C1072 C1071 1.383 . S
C1072 C1073 1.377 . S
C1073 H1057 0.930 . S
C1073 C1072 1.377 . S
C1073 C1074 1.379 . S
C1074 H1058 0.931 . S
C1074 C1068 1.383 . S
C1074 C1073 1.379 . S
H1075 C1069 0.959 . S
H1076 C1069 0.961 . S
H1077 C1069 0.960 . S
H1078 C1070 0.930 . S
H1079 C1071 0.929 . S
H1080 C1088 0.929 . S
H1081 C1090 0.930 . S
H1082 C1092 0.930 . S
H1083 C1095 0.929 . S
H1084 C1098 0.930 . S
H1085 C1100 0.960 . S
H1086 C1100 0.960 . S
H1087 C1100 0.960 . S
C1088 H1080 0.929 . S
C1088 C1089 1.377 . S
C1088 C1090 1.384 . S
C1089 C1088 1.377 . S
C1089 C1095 1.390 . S
C1090 H1081 0.930 . S
C1090 C1088 1.384 . S
C1090 C1091 1.372 . S
C1091 C1090 1.372 . S
C1091 C1092 1.400 . S
C1091 C1096 1.490 . S
C1092 H1082 0.930 . S
C1092 C1091 1.400 . S
C1092 C1095 1.386 . S
H1093 C1109 0.930 . S
H1094 C1110 0.931 . S
C1095 H1083 0.929 . S
C1095 C1089 1.390 . S
C1095 C1092 1.386 . S
C1096 C1091 1.490 . S
C1096 C1098 1.395 . S
C1096 C1099 1.403 . S
H1097 C1103 0.930 . S
C1098 H1084 0.930 . S
C1098 C1096 1.395 . S
C1098 C1101 1.403 . S
C1099 C1096 1.403 . S
C1099 C1100 1.524 . S
C1099 C1103 1.400 . S
C1100 H1085 0.960 . S
C1100 H1086 0.960 . S
C1100 H1087 0.960 . S
C1100 C1099 1.524 . S
C1101 C1098 1.403 . S
C1101 C1102 1.392 . S
C1101 C1105 1.495 . S
C1102 C1101 1.392 . S
C1102 C1103 1.385 . S
C1102 C1104 1.478 . S
C1103 H1097 0.930 . S
C1103 C1099 1.400 . S
C1103 C1102 1.385 . S
C1104 C1102 1.478 . S
C1104 C1106 1.381 . S
C1104 C1110 1.383 . S
C1105 C1101 1.495 . S
C1105 H1111 0.959 . S
C1105 H1112 0.961 . S
C1105 H1113 0.960 . S
C1106 C1104 1.381 . S
C1106 C1107 1.394 . S
C1106 H1114 0.930 . S
C1107 C1106 1.394 . S
C1107 C1108 1.383 . S
C1107 H1115 0.929 . S
C1108 C1107 1.383 . S
C1108 C1109 1.377 . S
C1109 H1093 0.930 . S
C1109 C1108 1.377 . S
C1109 C1110 1.379 . S
C1110 H1094 0.931 . S
C1110 C1104 1.383 . S
C1110 C1109 1.379 . S
H1111 C1105 0.959 . S
H1112 C1105 0.961 . S
H1113 C1105 0.960 . S
H1114 C1106 0.930 . S
H1115 C1107 0.929 . S
H1116 C1124 0.929 . S
H1117 C1126 0.930 . S
H1118 C1128 0.930 . S
H1119 C1131 0.929 . S
H1120 C1134 0.930 . S
H1121 C1136 0.960 . S
H1122 C1136 0.960 . S
H1123 C1136 0.960 . S
C1124 H1116 0.929 . S
C1124 C1125 1.377 . S
C1124 C1126 1.384 . S
C1125 C1124 1.377 . S
C1125 C1131 1.390 . S
C1126 H1117 0.930 . S
C1126 C1124 1.384 . S
C1126 C1127 1.372 . S
C1127 C1126 1.372 . S
C1127 C1128 1.400 . S
C1127 C1132 1.490 . S
C1128 H1118 0.930 . S
C1128 C1127 1.400 . S
C1128 C1131 1.386 . S
H1129 C1145 0.930 . S
H1130 C1146 0.931 . S
C1131 H1119 0.929 . S
C1131 C1125 1.390 . S
C1131 C1128 1.386 . S
C1132 C1127 1.490 . S
C1132 C1134 1.395 . S
C1132 C1135 1.403 . S
H1133 C1139 0.930 . S
C1134 H1120 0.930 . S
C1134 C1132 1.395 . S
C1134 C1137 1.403 . S
C1135 C1132 1.403 . S
C1135 C1136 1.524 . S
C1135 C1139 1.400 . S
C1136 H1121 0.960 . S
C1136 H1122 0.960 . S
C1136 H1123 0.960 . S
C1136 C1135 1.524 . S
C1137 C1134 1.403 . S
C1137 C1138 1.392 . S
C1137 C1141 1.495 . S
C1138 C1137 1.392 . S
C1138 C1139 1.385 . S
C1138 C1140 1.478 . S
C1139 H1133 0.930 . S
C1139 C1135 1.400 . S
C1139 C1138 1.385 . S
C1140 C1138 1.478 . S
C1140 C1142 1.381 . S
C1140 C1146 1.383 . S
C1141 C1137 1.495 . S
C1141 H1147 0.959 . S
C1141 H1148 0.961 . S
C1141 H1149 0.960 . S
C1142 C1140 1.381 . S
C1142 C1143 1.394 . S
C1142 H1150 0.930 . S
C1143 C1142 1.394 . S
C1143 C1144 1.383 . S
C1143 H1151 0.929 . S
C1144 C1143 1.383 . S
C1144 C1145 1.377 . S
C1145 H1129 0.930 . S
C1145 C1144 1.377 . S
C1145 C1146 1.379 . S
C1146 H1130 0.931 . S
C1146 C1140 1.383 . S
C1146 C1145 1.379 . S
H1147 C1141 0.959 . S
H1148 C1141 0.961 . S
H1149 C1141 0.960 . S
H1150 C1142 0.930 . S
H1151 C1143 0.929 . S
H1152 C1160 0.929 . S
H1153 C1162 0.930 . S
H1154 C1164 0.930 . S
H1155 C1167 0.929 . S
H1156 C1170 0.930 . S
H1157 C1172 0.960 . S
H1158 C1172 0.960 . S
H1159 C1172 0.960 . S
C1160 H1152 0.929 . S
C1160 C1161 1.377 . S
C1160 C1162 1.384 . S
C1161 C1160 1.377 . S
C1161 C1167 1.390 . S
C1162 H1153 0.930 . S
C1162 C1160 1.384 . S
C1162 C1163 1.372 . S
C1163 C1162 1.372 . S
C1163 C1164 1.400 . S
C1163 C1168 1.490 . S
C1164 H1154 0.930 . S
C1164 C1163 1.400 . S
C1164 C1167 1.386 . S
H1165 C1181 0.930 . S
H1166 C1182 0.931 . S
C1167 H1155 0.929 . S
C1167 C1161 1.390 . S
C1167 C1164 1.386 . S
C1168 C1163 1.490 . S
C1168 C1170 1.395 . S
C1168 C1171 1.403 . S
H1169 C1175 0.930 . S
C1170 H1156 0.930 . S
C1170 C1168 1.395 . S
C1170 C1173 1.403 . S
C1171 C1168 1.403 . S
C1171 C1172 1.524 . S
C1171 C1175 1.400 . S
C1172 H1157 0.960 . S
C1172 H1158 0.960 . S
C1172 H1159 0.960 . S
C1172 C1171 1.524 . S
C1173 C1170 1.403 . S
C1173 C1174 1.392 . S
C1173 C1177 1.495 . S
C1174 C1173 1.392 . S
C1174 C1175 1.385 . S
C1174 C1176 1.478 . S
C1175 H1169 0.930 . S
C1175 C1171 1.400 . S
C1175 C1174 1.385 . S
C1176 C1174 1.478 . S
C1176 C1178 1.381 . S
C1176 C1182 1.383 . S
C1177 C1173 1.495 . S
C1177 H1183 0.959 . S
C1177 H1184 0.961 . S
C1177 H1185 0.960 . S
C1178 C1176 1.381 . S
C1178 C1179 1.394 . S
C1178 H1186 0.930 . S
C1179 C1178 1.394 . S
C1179 C1180 1.383 . S
C1179 H1187 0.929 . S
C1180 C1179 1.383 . S
C1180 C1181 1.377 . S
C1181 H1165 0.930 . S
C1181 C1180 1.377 . S
C1181 C1182 1.379 . S
C1182 H1166 0.931 . S
C1182 C1176 1.383 . S
C1182 C1181 1.379 . S
H1183 C1177 0.959 . S
H1184 C1177 0.961 . S
H1185 C1177 0.960 . S
H1186 C1178 0.930 . S
H1187 C1179 0.929 . S
H1188 C1196 0.929 . S
H1189 C1198 0.930 . S
H1190 C1200 0.930 . S
H1191 C1203 0.929 . S
H1192 C1206 0.930 . S
H1193 C1208 0.960 . S
H1194 C1208 0.960 . S
H1195 C1208 0.960 . S
C1196 H1188 0.929 . S
C1196 C1197 1.377 . S
C1196 C1198 1.384 . S
C1197 C1196 1.377 . S
C1197 C1203 1.390 . S
C1198 H1189 0.930 . S
C1198 C1196 1.384 . S
C1198 C1199 1.372 . S
C1199 C1198 1.372 . S
C1199 C1200 1.400 . S
C1199 C1204 1.490 . S
C1200 H1190 0.930 . S
C1200 C1199 1.400 . S
C1200 C1203 1.386 . S
H1201 C1217 0.930 . S
H1202 C1218 0.931 . S
C1203 H1191 0.929 . S
C1203 C1197 1.390 . S
C1203 C1200 1.386 . S
C1204 C1199 1.490 . S
C1204 C1206 1.395 . S
C1204 C1207 1.403 . S
H1205 C1211 0.930 . S
C1206 H1192 0.930 . S
C1206 C1204 1.395 . S
C1206 C1209 1.403 . S
C1207 C1204 1.403 . S
C1207 C1208 1.524 . S
C1207 C1211 1.400 . S
C1208 H1193 0.960 . S
C1208 H1194 0.960 . S
C1208 H1195 0.960 . S
C1208 C1207 1.524 . S
C1209 C1206 1.403 . S
C1209 C1210 1.392 . S
C1209 C1213 1.495 . S
C1210 C1209 1.392 . S
C1210 C1211 1.385 . S
C1210 C1212 1.478 . S
C1211 H1205 0.930 . S
C1211 C1207 1.400 . S
C1211 C1210 1.385 . S
C1212 C1210 1.478 . S
C1212 C1214 1.381 . S
C1212 C1218 1.383 . S
C1213 C1209 1.495 . S
C1213 H1219 0.959 . S
C1213 H1220 0.961 . S
C1213 H1221 0.960 . S
C1214 C1212 1.381 . S
C1214 C1215 1.394 . S
C1214 H1222 0.930 . S
C1215 C1214 1.394 . S
C1215 C1216 1.383 . S
C1215 H1223 0.929 . S
C1216 C1215 1.383 . S
C1216 C1217 1.377 . S
C1217 H1201 0.930 . S
C1217 C1216 1.377 . S
C1217 C1218 1.379 . S
C1218 H1202 0.931 . S
C1218 C1212 1.383 . S
C1218 C1217 1.379 . S
H1219 C1213 0.959 . S
H1220 C1213 0.961 . S
H1221 C1213 0.960 . S
H1222 C1214 0.930 . S
H1223 C1215 0.929 . S
H1224 C1232 0.929 . S
H1225 C1234 0.930 . S
H1226 C1236 0.930 . S
H1227 C1239 0.929 . S
H1228 C1242 0.930 . S
H1229 C1244 0.960 . S
H1230 C1244 0.960 . S
H1231 C1244 0.960 . S
C1232 H1224 0.929 . S
C1232 C1233 1.377 . S
C1232 C1234 1.384 . S
C1233 C1232 1.377 . S
C1233 C1239 1.390 . S
C1234 H1225 0.930 . S
C1234 C1232 1.384 . S
C1234 C1235 1.372 . S
C1235 C1234 1.372 . S
C1235 C1236 1.400 . S
C1235 C1240 1.490 . S
C1236 H1226 0.930 . S
C1236 C1235 1.400 . S
C1236 C1239 1.386 . S
H1237 C1253 0.930 . S
H1238 C1254 0.931 . S
C1239 H1227 0.929 . S
C1239 C1233 1.390 . S
C1239 C1236 1.386 . S
C1240 C1235 1.490 . S
C1240 C1242 1.395 . S
C1240 C1243 1.403 . S
H1241 C1247 0.930 . S
C1242 H1228 0.930 . S
C1242 C1240 1.395 . S
C1242 C1245 1.403 . S
C1243 C1240 1.403 . S
C1243 C1244 1.524 . S
C1243 C1247 1.400 . S
C1244 H1229 0.960 . S
C1244 H1230 0.960 . S
C1244 H1231 0.960 . S
C1244 C1243 1.524 . S
C1245 C1242 1.403 . S
C1245 C1246 1.392 . S
C1245 C1249 1.495 . S
C1246 C1245 1.392 . S
C1246 C1247 1.385 . S
C1246 C1248 1.478 . S
C1247 H1241 0.930 . S
C1247 C1243 1.400 . S
C1247 C1246 1.385 . S
C1248 C1246 1.478 . S
C1248 C1250 1.381 . S
C1248 C1254 1.383 . S
C1249 C1245 1.495 . S
C1249 H1255 0.959 . S
C1249 H1256 0.961 . S
C1249 H1257 0.960 . S
C1250 C1248 1.381 . S
C1250 C1251 1.394 . S
C1250 H1258 0.930 . S
C1251 C1250 1.394 . S
C1251 C1252 1.383 . S
C1251 H1259 0.929 . S
C1252 C1251 1.383 . S
C1252 C1253 1.377 . S
C1253 H1237 0.930 . S
C1253 C1252 1.377 . S
C1253 C1254 1.379 . S
C1254 H1238 0.931 . S
C1254 C1248 1.383 . S
C1254 C1253 1.379 . S
H1255 C1249 0.959 . S
H1256 C1249 0.961 . S
H1257 C1249 0.960 . S
H1258 C1250 0.930 . S
H1259 C1251 0.929 . S
H1260 C1268 0.929 . S
H1261 C1270 0.930 . S
H1262 C1272 0.930 . S
H1263 C1275 0.929 . S
H1264 C1278 0.930 . S
H1265 C1280 0.960 . S
H1266 C1280 0.960 . S
H1267 C1280 0.960 . S
C1268 H1260 0.929 . S
C1268 C1269 1.377 . S
C1268 C1270 1.384 . S
C1269 C1268 1.377 . S
C1269 C1275 1.390 . S
C1270 H1261 0.930 . S
C1270 C1268 1.384 . S
C1270 C1271 1.372 . S
C1271 C1270 1.372 . S
C1271 C1272 1.400 . S
C1271 C1276 1.490 . S
C1272 H1262 0.930 . S
C1272 C1271 1.400 . S
C1272 C1275 1.386 . S
H1273 C1289 0.930 . S
H1274 C1290 0.931 . S
C1275 H1263 0.929 . S
C1275 C1269 1.390 . S
C1275 C1272 1.386 . S
C1276 C1271 1.490 . S
C1276 C1278 1.395 . S
C1276 C1279 1.403 . S
H1277 C1283 0.930 . S
C1278 H1264 0.930 . S
C1278 C1276 1.395 . S
C1278 C1281 1.403 . S
C1279 C1276 1.403 . S
C1279 C1280 1.524 . S
C1279 C1283 1.400 . S
C1280 H1265 0.960 . S
C1280 H1266 0.960 . S
C1280 H1267 0.960 . S
C1280 C1279 1.524 . S
C1281 C1278 1.403 . S
C1281 C1282 1.392 . S
C1281 C1285 1.495 . S
C1282 C1281 1.392 . S
C1282 C1283 1.385 . S
C1282 C1284 1.478 . S
C1283 H1277 0.930 . S
C1283 C1279 1.400 . S
C1283 C1282 1.385 . S
C1284 C1282 1.478 . S
C1284 C1286 1.381 . S
C1284 C1290 1.383 . S
C1285 C1281 1.495 . S
C1285 H1291 0.959 . S
C1285 H1292 0.961 . S
C1285 H1293 0.960 . S
C1286 C1284 1.381 . S
C1286 C1287 1.394 . S
C1286 H1294 0.930 . S
C1287 C1286 1.394 . S
C1287 C1288 1.383 . S
C1287 H1295 0.929 . S
C1288 C1287 1.383 . S
C1288 C1289 1.377 . S
C1289 H1273 0.930 . S
C1289 C1288 1.377 . S
C1289 C1290 1.379 . S
C1290 H1274 0.931 . S
C1290 C1284 1.383 . S
C1290 C1289 1.379 . S
H1291 C1285 0.959 . S
H1292 C1285 0.961 . S
H1293 C1285 0.960 . S
H1294 C1286 0.930 . S
H1295 C1287 0.929 . S
H1296 C1304 0.929 . S
H1297 C1306 0.930 . S
H1298 C1308 0.930 . S
H1299 C1311 0.929 . S
H1300 C1314 0.930 . S
H1301 C1316 0.960 . S
H1302 C1316 0.960 . S
H1303 C1316 0.960 . S
C1304 H1296 0.929 . S
C1304 C1305 1.377 . S
C1304 C1306 1.384 . S
C1305 C1304 1.377 . S
C1305 C1311 1.390 . S
C1306 H1297 0.930 . S
C1306 C1304 1.384 . S
C1306 C1307 1.372 . S
C1307 C1306 1.372 . S
C1307 C1308 1.400 . S
C1307 C1312 1.490 . S
C1308 H1298 0.930 . S
C1308 C1307 1.400 . S
C1308 C1311 1.386 . S
H1309 C1325 0.930 . S
H1310 C1326 0.931 . S
C1311 H1299 0.929 . S
C1311 C1305 1.390 . S
C1311 C1308 1.386 . S
C1312 C1307 1.490 . S
C1312 C1314 1.395 . S
C1312 C1315 1.403 . S
H1313 C1319 0.930 . S
C1314 H1300 0.930 . S
C1314 C1312 1.395 . S
C1314 C1317 1.403 . S
C1315 C1312 1.403 . S
C1315 C1316 1.524 . S
C1315 C1319 1.400 . S
C1316 H1301 0.960 . S
C1316 H1302 0.960 . S
C1316 H1303 0.960 . S
C1316 C1315 1.524 . S
C1317 C1314 1.403 . S
C1317 C1318 1.392 . S
C1317 C1321 1.495 . S
C1318 C1317 1.392 . S
C1318 C1319 1.385 . S
C1318 C1320 1.478 . S
C1319 H1313 0.930 . S
C1319 C1315 1.400 . S
C1319 C1318 1.385 . S
C1320 C1318 1.478 . S
C1320 C1322 1.381 . S
C1320 C1326 1.383 . S
C1321 C1317 1.495 . S
C1321 H1327 0.959 . S
C1321 H1328 0.961 . S
C1321 H1329 0.960 . S
C1322 C1320 1.381 . S
C1322 C1323 1.394 . S
C1322 H1330 0.930 . S
C1323 C1322 1.394 . S
C1323 C1324 1.383 . S
C1323 H1331 0.929 . S
C1324 C1323 1.383 . S
C1324 C1325 1.377 . S
C1325 H1309 0.930 . S
C1325 C1324 1.377 . S
C1325 C1326 1.379 . S
C1326 H1310 0.931 . S
C1326 C1320 1.383 . S
C1326 C1325 1.379 . S
H1327 C1321 0.959 . S
H1328 C1321 0.961 . S
H1329 C1321 0.960 . S
H1330 C1322 0.930 . S
H1331 C1323 0.929 . S
H1332 C1340 0.929 . S
H1333 C1342 0.930 . S
H1334 C1344 0.930 . S
H1335 C1347 0.929 . S
H1336 C1350 0.930 . S
H1337 C1352 0.960 . S
H1338 C1352 0.960 . S
H1339 C1352 0.960 . S
C1340 H1332 0.929 . S
C1340 C1341 1.377 . S
C1340 C1342 1.384 . S
C1341 C1340 1.377 . S
C1341 C1347 1.390 . S
C1342 H1333 0.930 . S
C1342 C1340 1.384 . S
C1342 C1343 1.372 . S
C1343 C1342 1.372 . S
C1343 C1344 1.400 . S
C1343 C1348 1.490 . S
C1344 H1334 0.930 . S
C1344 C1343 1.400 . S
C1344 C1347 1.386 . S
H1345 C1361 0.930 . S
H1346 C1362 0.931 . S
C1347 H1335 0.929 . S
C1347 C1341 1.390 . S
C1347 C1344 1.386 . S
C1348 C1343 1.490 . S
C1348 C1350 1.395 . S
C1348 C1351 1.403 . S
H1349 C1355 0.930 . S
C1350 H1336 0.930 . S
C1350 C1348 1.395 . S
C1350 C1353 1.403 . S
C1351 C1348 1.403 . S
C1351 C1352 1.524 . S
C1351 C1355 1.400 . S
C1352 H1337 0.960 . S
C1352 H1338 0.960 . S
C1352 H1339 0.960 . S
C1352 C1351 1.524 . S
C1353 C1350 1.403 . S
C1353 C1354 1.392 . S
C1353 C1357 1.495 . S
C1354 C1353 1.392 . S
C1354 C1355 1.385 . S
C1354 C1356 1.478 . S
C1355 H1349 0.930 . S
C1355 C1351 1.400 . S
C1355 C1354 1.385 . S
C1356 C1354 1.478 . S
C1356 C1358 1.381 . S
C1356 C1362 1.383 . S
C1357 C1353 1.495 . S
C1357 H1363 0.959 . S
C1357 H1364 0.961 . S
C1357 H1365 0.960 . S
C1358 C1356 1.381 . S
C1358 C1359 1.394 . S
C1358 H1366 0.930 . S
C1359 C1358 1.394 . S
C1359 C1360 1.383 . S
C1359 H1367 0.929 . S
C1360 C1359 1.383 . S
C1360 C1361 1.377 . S
C1361 H1345 0.930 . S
C1361 C1360 1.377 . S
C1361 C1362 1.379 . S
C1362 H1346 0.931 . S
C1362 C1356 1.383 . S
C1362 C1361 1.379 . S
H1363 C1357 0.959 . S
H1364 C1357 0.961 . S
H1365 C1357 0.960 . S
H1366 C1358 0.930 . S
H1367 C1359 0.929 . S
H1368 C1376 0.929 . S
H1369 C1378 0.930 . S
H1370 C1380 0.930 . S
H1371 C1383 0.929 . S
H1372 C1386 0.930 . S
H1373 C1388 0.960 . S
H1374 C1388 0.960 . S
H1375 C1388 0.960 . S
C1376 H1368 0.929 . S
C1376 C1377 1.377 . S
C1376 C1378 1.384 . S
C1377 C1376 1.377 . S
C1377 C1383 1.390 . S
C1378 H1369 0.930 . S
C1378 C1376 1.384 . S
C1378 C1379 1.372 . S
C1379 C1378 1.372 . S
C1379 C1380 1.400 . S
C1379 C1384 1.490 . S
C1380 H1370 0.930 . S
C1380 C1379 1.400 . S
C1380 C1383 1.386 . S
H1381 C1397 0.930 . S
H1382 C1398 0.931 . S
C1383 H1371 0.929 . S
C1383 C1377 1.390 . S
C1383 C1380 1.386 . S
C1384 C1379 1.490 . S
C1384 C1386 1.395 . S
C1384 C1387 1.403 . S
H1385 C1391 0.930 . S
C1386 H1372 0.930 . S
C1386 C1384 1.395 . S
C1386 C1389 1.403 . S
C1387 C1384 1.403 . S
C1387 C1388 1.524 . S
C1387 C1391 1.400 . S
C1388 H1373 0.960 . S
C1388 H1374 0.960 . S
C1388 H1375 0.960 . S
C1388 C1387 1.524 . S
C1389 C1386 1.403 . S
C1389 C1390 1.392 . S
C1389 C1393 1.495 . S
C1390 C1389 1.392 . S
C1390 C1391 1.385 . S
C1390 C1392 1.478 . S
C1391 H1385 0.930 . S
C1391 C1387 1.400 . S
C1391 C1390 1.385 . S
C1392 C1390 1.478 . S
C1392 C1394 1.381 . S
C1392 C1398 1.383 . S
C1393 C1389 1.495 . S
C1393 H1399 0.959 . S
C1393 H1400 0.961 . S
C1393 H1401 0.960 . S
C1394 C1392 1.381 . S
C1394 C1395 1.394 . S
C1394 H1402 0.930 . S
C1395 C1394 1.394 . S
C1395 C1396 1.383 . S
C1395 H1403 0.929 . S
C1396 C1395 1.383 . S
C1396 C1397 1.377 . S
C1397 H1381 0.930 . S
C1397 C1396 1.377 . S
C1397 C1398 1.379 . S
C1398 H1382 0.931 . S
C1398 C1392 1.383 . S
C1398 C1397 1.379 . S
H1399 C1393 0.959 . S
H1400 C1393 0.961 . S
H1401 C1393 0.960 . S
H1402 C1394 0.930 . S
H1403 C1395 0.929 . S
H1404 C1412 0.929 . S
H1405 C1414 0.930 . S
H1406 C1416 0.930 . S
H1407 C1419 0.929 . S
H1408 C1422 0.930 . S
H1409 C1424 0.960 . S
H1410 C1424 0.960 . S
H1411 C1424 0.960 . S
C1412 H1404 0.929 . S
C1412 C1413 1.377 . S
C1412 C1414 1.384 . S
C1413 C1412 1.377 . S
C1413 C1419 1.390 . S
C1414 H1405 0.930 . S
C1414 C1412 1.384 . S
C1414 C1415 1.372 . S
C1415 C1414 1.372 . S
C1415 C1416 1.400 . S
C1415 C1420 1.490 . S
C1416 H1406 0.930 . S
C1416 C1415 1.400 . S
C1416 C1419 1.386 . S
H1417 C1433 0.930 . S
H1418 C1434 0.931 . S
C1419 H1407 0.929 . S
C1419 C1413 1.390 . S
C1419 C1416 1.386 . S
C1420 C1415 1.490 . S
C1420 C1422 1.395 . S
C1420 C1423 1.403 . S
H1421 C1427 0.930 . S
C1422 H1408 0.930 . S
C1422 C1420 1.395 . S
C1422 C1425 1.403 . S
C1423 C1420 1.403 . S
C1423 C1424 1.524 . S
C1423 C1427 1.400 . S
C1424 H1409 0.960 . S
C1424 H1410 0.960 . S
C1424 H1411 0.960 . S
C1424 C1423 1.524 . S
C1425 C1422 1.403 . S
C1425 C1426 1.392 . S
C1425 C1429 1.495 . S
C1426 C1425 1.392 . S
C1426 C1427 1.385 . S
C1426 C1428 1.478 . S
C1427 H1421 0.930 . S
C1427 C1423 1.400 . S
C1427 C1426 1.385 . S
C1428 C1426 1.478 . S
C1428 C1430 1.381 . S
C1428 C1434 1.383 . S
C1429 C1425 1.495 . S
C1429 H1435 0.959 . S
C1429 H1436 0.961 . S
C1429 H1437 0.960 . S
C1430 C1428 1.381 . S
C1430 C1431 1.394 . S
C1430 H1438 0.930 . S
C1431 C1430 1.394 . S
C1431 C1432 1.383 . S
C1431 H1439 0.929 . S
C1432 C1431 1.383 . S
C1432 C1433 1.377 . S
C1433 H1417 0.930 . S
C1433 C1432 1.377 . S
C1433 C1434 1.379 . S
C1434 H1418 0.931 . S
C1434 C1428 1.383 . S
C1434 C1433 1.379 . S
H1435 C1429 0.959 . S
H1436 C1429 0.961 . S
H1437 C1429 0.960 . S
H1438 C1430 0.930 . S
H1439 C1431 0.929 . S
H1440 C1448 0.929 . S
H1441 C1450 0.930 . S
H1442 C1452 0.930 . S
H1443 C1455 0.929 . S
H1444 C1458 0.930 . S
H1445 C1460 0.960 . S
H1446 C1460 0.960 . S
H1447 C1460 0.960 . S
C1448 H1440 0.929 . S
C1448 C1449 1.377 . S
C1448 C1450 1.384 . S
C1449 C1448 1.377 . S
C1449 C1455 1.390 . S
C1450 H1441 0.930 . S
C1450 C1448 1.384 . S
C1450 C1451 1.372 . S
C1451 C1450 1.372 . S
C1451 C1452 1.400 . S
C1451 C1456 1.490 . S
C1452 H1442 0.930 . S
C1452 C1451 1.400 . S
C1452 C1455 1.386 . S
H1453 C1469 0.930 . S
H1454 C1470 0.931 . S
C1455 H1443 0.929 . S
C1455 C1449 1.390 . S
C1455 C1452 1.386 . S
C1456 C1451 1.490 . S
C1456 C1458 1.395 . S
C1456 C1459 1.403 . S
H1457 C1463 0.930 . S
C1458 H1444 0.930 . S
C1458 C1456 1.395 . S
C1458 C1461 1.403 . S
C1459 C1456 1.403 . S
C1459 C1460 1.524 . S
C1459 C1463 1.400 . S
C1460 H1445 0.960 . S
C1460 H1446 0.960 . S
C1460 H1447 0.960 . S
C1460 C1459 1.524 . S
C1461 C1458 1.403 . S
C1461 C1462 1.392 . S
C1461 C1465 1.495 . S
C1462 C1461 1.392 . S
C1462 C1463 1.385 . S
C1462 C1464 1.478 . S
C1463 H1457 0.930 . S
C1463 C1459 1.400 . S
C1463 C1462 1.385 . S
C1464 C1462 1.478 . S
C1464 C1466 1.381 . S
C1464 C1470 1.383 . S
C1465 C1461 1.495 . S
C1465 H1471 0.959 . S
C1465 H1472 0.961 . S
C1465 H1473 0.960 . S
C1466 C1464 1.381 . S
C1466 C1467 1.394 . S
C1466 H1474 0.930 . S
C1467 C1466 1.394 . S
C1467 C1468 1.383 . S
C1467 H1475 0.929 . S
C1468 C1467 1.383 . S
C1468 C1469 1.377 . S
C1469 H1453 0.930 . S
C1469 C1468 1.377 . S
C1469 C1470 1.379 . S
C1470 H1454 0.931 . S
C1470 C1464 1.383 . S
C1470 C1469 1.379 . S
H1471 C1465 0.959 . S
H1472 C1465 0.961 . S
H1473 C1465 0.960 . S
H1474 C1466 0.930 . S
H1475 C1467 0.929 . S
H1476 C1484 0.929 . S
H1477 C1486 0.930 . S
H1478 C1488 0.930 . S
H1479 C1491 0.929 . S
H1480 C1494 0.930 . S
H1481 C1496 0.960 . S
H1482 C1496 0.960 . S
H1483 C1496 0.960 . S
C1484 H1476 0.929 . S
C1484 C1485 1.377 . S
C1484 C1486 1.384 . S
C1485 C1484 1.377 . S
C1485 C1491 1.390 . S
C1486 H1477 0.930 . S
C1486 C1484 1.384 . S
C1486 C1487 1.372 . S
C1487 C1486 1.372 . S
C1487 C1488 1.400 . S
C1487 C1492 1.490 . S
C1488 H1478 0.930 . S
C1488 C1487 1.400 . S
C1488 C1491 1.386 . S
H1489 C1505 0.930 . S
H1490 C1506 0.931 . S
C1491 H1479 0.929 . S
C1491 C1485 1.390 . S
C1491 C1488 1.386 . S
C1492 C1487 1.490 . S
C1492 C1494 1.395 . S
C1492 C1495 1.403 . S
H1493 C1499 0.930 . S
C1494 H1480 0.930 . S
C1494 C1492 1.395 . S
C1494 C1497 1.403 . S
C1495 C1492 1.403 . S
C1495 C1496 1.524 . S
C1495 C1499 1.400 . S
C1496 H1481 0.960 . S
C1496 H1482 0.960 . S
C1496 H1483 0.960 . S
C1496 C1495 1.524 . S
C1497 C1494 1.403 . S
C1497 C1498 1.392 . S
C1497 C1501 1.495 . S
C1498 C1497 1.392 . S
C1498 C1499 1.385 . S
C1498 C1500 1.478 . S
C1499 H1493 0.930 . S
C1499 C1495 1.400 . S
C1499 C1498 1.385 . S
C1500 C1498 1.478 . S
C1500 C1502 1.381 . S
C1500 C1506 1.383 . S
C1501 C1497 1.495 . S
C1501 H1507 0.959 . S
C1501 H1508 0.961 . S
C1501 H1509 0.960 . S
C1502 C1500 1.381 . S
C1502 C1503 1.394 . S
C1502 H1510 0.930 . S
C1503 C1502 1.394 . S
C1503 C1504 1.383 . S
C1503 H1511 0.929 . S
C1504 C1503 1.383 . S
C1504 C1505 1.377 . S
C1505 H1489 0.930 . S
C1505 C1504 1.377 . S
C1505 C1506 1.379 . S
C1506 H1490 0.931 . S
C1506 C1500 1.383 . S
C1506 C1505 1.379 . S
H1507 C1501 0.959 . S
H1508 C1501 0.961 . S
H1509 C1501 0.960 . S
H1510 C1502 0.930 . S
H1511 C1503 0.929 . S
H1512 C1520 0.929 . S
H1513 C1522 0.930 . S
H1514 C1524 0.930 . S
H1515 C1527 0.929 . S
H1516 C1530 0.930 . S
H1517 C1532 0.960 . S
H1518 C1532 0.960 . S
H1519 C1532 0.960 . S
C1520 H1512 0.929 . S
C1520 C1521 1.377 . S
C1520 C1522 1.384 . S
C1521 C1520 1.377 . S
C1521 C1527 1.390 . S
C1522 H1513 0.930 . S
C1522 C1520 1.384 . S
C1522 C1523 1.372 . S
C1523 C1522 1.372 . S
C1523 C1524 1.400 . S
C1523 C1528 1.490 . S
C1524 H1514 0.930 . S
C1524 C1523 1.400 . S
C1524 C1527 1.386 . S
H1525 C1541 0.930 . S
H1526 C1542 0.931 . S
C1527 H1515 0.929 . S
C1527 C1521 1.390 . S
C1527 C1524 1.386 . S
C1528 C1523 1.490 . S
C1528 C1530 1.395 . S
C1528 C1531 1.403 . S
H1529 C1535 0.930 . S
C1530 H1516 0.930 . S
C1530 C1528 1.395 . S
C1530 C1533 1.403 . S
C1531 C1528 1.403 . S
C1531 C1532 1.524 . S
C1531 C1535 1.400 . S
C1532 H1517 0.960 . S
C1532 H1518 0.960 . S
C1532 H1519 0.960 . S
C1532 C1531 1.524 . S
C1533 C1530 1.403 . S
C1533 C1534 1.392 . S
C1533 C1537 1.495 . S
C1534 C1533 1.392 . S
C1534 C1535 1.385 . S
C1534 C1536 1.478 . S
C1535 H1529 0.930 . S
C1535 C1531 1.400 . S
C1535 C1534 1.385 . S
C1536 C1534 1.478 . S
C1536 C1538 1.381 . S
C1536 C1542 1.383 . S
C1537 C1533 1.495 . S
C1537 H1543 0.959 . S
C1537 H1544 0.961 . S
C1537 H1545 0.960 . S
C1538 C1536 1.381 . S
C1538 C1539 1.394 . S
C1538 H1546 0.930 . S
C1539 C1538 1.394 . S
C1539 C1540 1.383 . S
C1539 H1547 0.929 . S
C1540 C1539 1.383 . S
C1540 C1541 1.377 . S
C1541 H1525 0.930 . S
C1541 C1540 1.377 . S
C1541 C1542 1.379 . S
C1542 H1526 0.931 . S
C1542 C1536 1.383 . S
C1542 C1541 1.379 . S
H1543 C1537 0.959 . S
H1544 C1537 0.961 . S
H1545 C1537 0.960 . S
H1546 C1538 0.930 . S
H1547 C1539 0.929 . S
H1548 C1556 0.929 . S
H1549 C1558 0.930 . S
H1550 C1560 0.930 . S
H1551 C1563 0.929 . S
H1552 C1566 0.930 . S
H1553 C1568 0.960 . S
H1554 C1568 0.960 . S
H1555 C1568 0.960 . S
C1556 H1548 0.929 . S
C1556 C1557 1.377 . S
C1556 C1558 1.384 . S
C1557 C1556 1.377 . S
C1557 C1563 1.390 . S
C1558 H1549 0.930 . S
C1558 C1556 1.384 . S
C1558 C1559 1.372 . S
C1559 C1558 1.372 . S
C1559 C1560 1.400 . S
C1559 C1564 1.490 . S
C1560 H1550 0.930 . S
C1560 C1559 1.400 . S
C1560 C1563 1.386 . S
H1561 C1577 0.930 . S
H1562 C1578 0.931 . S
C1563 H1551 0.929 . S
C1563 C1557 1.390 . S
C1563 C1560 1.386 . S
C1564 C1559 1.490 . S
C1564 C1566 1.395 . S
C1564 C1567 1.403 . S
H1565 C1571 0.930 . S
C1566 H1552 0.930 . S
C1566 C1564 1.395 . S
C1566 C1569 1.403 . S
C1567 C1564 1.403 . S
C1567 C1568 1.524 . S
C1567 C1571 1.400 . S
C1568 H1553 0.960 . S
C1568 H1554 0.960 . S
C1568 H1555 0.960 . S
C1568 C1567 1.524 . S
C1569 C1566 1.403 . S
C1569 C1570 1.392 . S
C1569 C1573 1.495 . S
C1570 C1569 1.392 . S
C1570 C1571 1.385 . S
C1570 C1572 1.478 . S
C1571 H1565 0.930 . S
C1571 C1567 1.400 . S
C1571 C1570 1.385 . S
C1572 C1570 1.478 . S
C1572 C1574 1.381 . S
C1572 C1578 1.383 . S
C1573 C1569 1.495 . S
C1573 H1579 0.959 . S
C1573 H1580 0.961 . S
C1573 H1581 0.960 . S
C1574 C1572 1.381 . S
C1574 C1575 1.394 . S
C1574 H1582 0.930 . S
C1575 C1574 1.394 . S
C1575 C1576 1.383 . S
C1575 H1583 0.929 . S
C1576 C1575 1.383 . S
C1576 C1577 1.377 . S
C1577 H1561 0.930 . S
C1577 C1576 1.377 . S
C1577 C1578 1.379 . S
C1578 H1562 0.931 . S
C1578 C1572 1.383 . S
C1578 C1577 1.379 . S
H1579 C1573 0.959 . S
H1580 C1573 0.961 . S
H1581 C1573 0.960 . S
H1582 C1574 0.930 . S
H1583 C1575 0.929 . S
H1584 C1592 0.929 . S
H1585 C1594 0.930 . S
H1586 C1596 0.923 1_554 S
H1587 C1599 0.929 . S
H1588 C1602 0.930 . S
H1589 C1604 0.960 . S
H1590 C1604 0.960 . S
H1591 C1604 0.960 . S
C1592 H1584 0.929 . S
C1592 C1593 1.377 . S
C1592 C1594 1.384 . S
C1593 C1592 1.377 . S
C1593 C1599 1.390 . S
C1594 H1585 0.930 . S
C1594 C1592 1.384 . S
C1594 C1595 1.372 . S
C1595 C1594 1.372 . S
C1595 C1596 1.400 . S
C1595 C1600 1.490 . S
C1596 H1586 0.923 1_556 S
C1596 C1595 1.400 . S
C1596 C1599 1.386 . S
H1597 C1613 0.930 . S
H1598 C1614 0.931 . S
C1599 H1587 0.929 . S
C1599 C1593 1.390 . S
C1599 C1596 1.386 . S
C1600 C1595 1.490 . S
C1600 C1602 1.395 1_556 S
C1600 C1603 1.403 . S
H1601 C1607 0.930 . S
C1602 H1588 0.930 . S
C1602 C1600 1.395 1_554 S
C1602 C1605 1.403 . S
C1603 C1600 1.403 . S
C1603 C1604 1.524 . S
C1603 C1607 1.400 . S
C1604 H1589 0.960 . S
C1604 H1590 0.960 . S
C1604 H1591 0.960 . S
C1604 C1603 1.524 . S
C1605 C1602 1.403 . S
C1605 C1606 1.392 . S
C1605 C1609 1.495 . S
C1606 C1605 1.392 . S
C1606 C1607 1.385 1_554 S
C1606 C1608 1.478 . S
C1607 H1601 0.930 . S
C1607 C1603 1.400 . S
C1607 C1606 1.385 1_556 S
C1608 C1606 1.478 . S
C1608 C1610 1.381 . S
C1608 C1614 1.383 . S
C1609 C1605 1.495 . S
C1609 H1615 0.959 . S
C1609 H1616 0.961 . S
C1609 H1617 0.960 . S
C1610 C1608 1.381 . S
C1610 C1611 1.394 . S
C1610 H1618 0.930 . S
C1611 C1610 1.394 . S
C1611 C1612 1.383 . S
C1611 H1619 0.929 . S
C1612 C1611 1.383 . S
C1612 C1613 1.377 . S
C1613 H1597 0.930 . S
C1613 C1612 1.377 . S
C1613 C1614 1.379 . S
C1614 H1598 0.931 . S
C1614 C1608 1.383 . S
C1614 C1613 1.379 . S
H1615 C1609 0.959 . S
H1616 C1609 0.961 . S
H1617 C1609 0.960 . S
H1618 C1610 0.930 . S
H1619 C1611 0.929 . S
H1620 C1628 0.929 . S
H1621 C1630 0.930 . S
H1622 C1632 0.930 . S
H1623 C1635 0.929 . S
H1624 C1638 0.930 . S
H1625 C1640 0.960 . S
H1626 C1640 0.960 . S
H1627 C1640 0.960 . S
C1628 H1620 0.929 . S
C1628 C1629 1.377 . S
C1628 C1630 1.384 . S
C1629 C1628 1.377 . S
C1629 C1635 1.390 . S
C1630 H1621 0.930 . S
C1630 C1628 1.384 . S
C1630 C1631 1.372 . S
C1631 C1630 1.372 . S
C1631 C1632 1.400 . S
C1631 C1636 1.490 . S
C1632 H1622 0.930 . S
C1632 C1631 1.400 . S
C1632 C1635 1.386 . S
H1633 C1649 0.930 . S
H1634 C1650 0.931 . S
C1635 H1623 0.929 . S
C1635 C1629 1.390 . S
C1635 C1632 1.386 . S
C1636 C1631 1.490 . S
C1636 C1638 1.395 . S
C1636 C1639 1.403 . S
H1637 C1643 0.930 . S
C1638 H1624 0.930 . S
C1638 C1636 1.395 . S
C1638 C1641 1.403 . S
C1639 C1636 1.403 . S
C1639 C1640 1.524 . S
C1639 C1643 1.400 . S
C1640 H1625 0.960 . S
C1640 H1626 0.960 . S
C1640 H1627 0.960 . S
C1640 C1639 1.524 . S
C1641 C1638 1.403 . S
C1641 C1642 1.392 . S
C1641 C1645 1.495 . S
C1642 C1641 1.392 . S
C1642 C1643 1.385 . S
C1642 C1644 1.478 . S
C1643 H1637 0.930 . S
C1643 C1639 1.400 . S
C1643 C1642 1.385 . S
C1644 C1642 1.478 . S
C1644 C1646 1.381 . S
C1644 C1650 1.383 . S
C1645 C1641 1.495 . S
C1645 H1651 0.959 . S
C1645 H1652 0.961 . S
C1645 H1653 0.960 . S
C1646 C1644 1.381 . S
C1646 C1647 1.394 . S
C1646 H1654 0.930 . S
C1647 C1646 1.394 . S
C1647 C1648 1.383 . S
C1647 H1655 0.929 . S
C1648 C1647 1.383 . S
C1648 C1649 1.377 . S
C1649 H1633 0.930 . S
C1649 C1648 1.377 . S
C1649 C1650 1.379 . S
C1650 H1634 0.931 . S
C1650 C1644 1.383 . S
C1650 C1649 1.379 . S
H1651 C1645 0.959 . S
H1652 C1645 0.961 . S
H1653 C1645 0.960 . S
H1654 C1646 0.930 . S
H1655 C1647 0.929 . S
H1656 C1664 0.929 . S
H1657 C1666 0.930 . S
H1658 C1668 0.930 . S
H1659 C1671 0.929 . S
H1660 C1674 0.930 . S
H1661 C1676 0.960 . S
H1662 C1676 0.960 . S
H1663 C1676 0.960 . S
C1664 H1656 0.929 . S
C1664 C1665 1.377 . S
C1664 C1666 1.384 . S
C1665 C1664 1.377 . S
C1665 C1671 1.390 . S
C1666 H1657 0.930 . S
C1666 C1664 1.384 . S
C1666 C1667 1.372 . S
C1667 C1666 1.372 . S
C1667 C1668 1.400 . S
C1667 C1672 1.490 . S
C1668 H1658 0.930 . S
C1668 C1667 1.400 . S
C1668 C1671 1.386 . S
H1669 C1685 0.930 . S
H1670 C1686 0.931 . S
C1671 H1659 0.929 . S
C1671 C1665 1.390 . S
C1671 C1668 1.386 . S
C1672 C1667 1.490 . S
C1672 C1674 1.395 . S
C1672 C1675 1.403 . S
H1673 C1679 0.930 . S
C1674 H1660 0.930 . S
C1674 C1672 1.395 . S
C1674 C1677 1.403 . S
C1675 C1672 1.403 . S
C1675 C1676 1.524 . S
C1675 C1679 1.400 . S
C1676 H1661 0.960 . S
C1676 H1662 0.960 . S
C1676 H1663 0.960 . S
C1676 C1675 1.524 . S
C1677 C1674 1.403 . S
C1677 C1678 1.392 . S
C1677 C1681 1.495 . S
C1678 C1677 1.392 . S
C1678 C1679 1.385 . S
C1678 C1680 1.478 . S
C1679 H1673 0.930 . S
C1679 C1675 1.400 . S
C1679 C1678 1.385 . S
C1680 C1678 1.478 . S
C1680 C1682 1.381 . S
C1680 C1686 1.383 . S
C1681 C1677 1.495 . S
C1681 H1687 0.959 . S
C1681 H1688 0.961 . S
C1681 H1689 0.960 . S
C1682 C1680 1.381 . S
C1682 C1683 1.394 . S
C1682 H1690 0.930 . S
C1683 C1682 1.394 . S
C1683 C1684 1.383 . S
C1683 H1691 0.929 . S
C1684 C1683 1.383 . S
C1684 C1685 1.377 . S
C1685 H1669 0.930 . S
C1685 C1684 1.377 . S
C1685 C1686 1.379 . S
C1686 H1670 0.931 . S
C1686 C1680 1.383 . S
C1686 C1685 1.379 . S
H1687 C1681 0.959 . S
H1688 C1681 0.961 . S
H1689 C1681 0.960 . S
H1690 C1682 0.930 . S
H1691 C1683 0.929 . S
H1692 C1700 0.929 . S
H1693 C1702 0.930 . S
H1694 C1704 0.930 . S
H1695 C1707 0.929 . S
H1696 C1710 0.930 . S
H1697 C1712 0.960 . S
H1698 C1712 0.960 . S
H1699 C1712 0.960 . S
C1700 H1692 0.929 . S
C1700 C1701 1.377 . S
C1700 C1702 1.384 . S
C1701 C1700 1.377 . S
C1701 C1707 1.390 . S
C1702 H1693 0.930 . S
C1702 C1700 1.384 . S
C1702 C1703 1.372 . S
C1703 C1702 1.372 . S
C1703 C1704 1.400 . S
C1703 C1708 1.490 . S
C1704 H1694 0.930 . S
C1704 C1703 1.400 . S
C1704 C1707 1.386 . S
H1705 C1721 0.930 . S
H1706 C1722 0.931 . S
C1707 H1695 0.929 . S
C1707 C1701 1.390 . S
C1707 C1704 1.386 . S
C1708 C1703 1.490 . S
C1708 C1710 1.395 . S
C1708 C1711 1.403 . S
H1709 C1715 0.930 . S
C1710 H1696 0.930 . S
C1710 C1708 1.395 . S
C1710 C1713 1.403 . S
C1711 C1708 1.403 . S
C1711 C1712 1.524 . S
C1711 C1715 1.400 . S
C1712 H1697 0.960 . S
C1712 H1698 0.960 . S
C1712 H1699 0.960 . S
C1712 C1711 1.524 . S
C1713 C1710 1.403 . S
C1713 C1714 1.392 . S
C1713 C1717 1.495 . S
C1714 C1713 1.392 . S
C1714 C1715 1.385 . S
C1714 C1716 1.478 . S
C1715 H1709 0.930 . S
C1715 C1711 1.400 . S
C1715 C1714 1.385 . S
C1716 C1714 1.478 . S
C1716 C1718 1.381 . S
C1716 C1722 1.383 . S
C1717 C1713 1.495 . S
C1717 H1723 0.959 . S
C1717 H1724 0.961 . S
C1717 H1725 0.960 . S
C1718 C1716 1.381 . S
C1718 C1719 1.394 . S
C1718 H1726 0.930 . S
C1719 C1718 1.394 . S
C1719 C1720 1.383 . S
C1719 H1727 0.929 . S
C1720 C1719 1.383 . S
C1720 C1721 1.377 . S
C1721 H1705 0.930 . S
C1721 C1720 1.377 . S
C1721 C1722 1.379 . S
C1722 H1706 0.931 . S
C1722 C1716 1.383 . S
C1722 C1721 1.379 . S
H1723 C1717 0.959 . S
H1724 C1717 0.961 . S
H1725 C1717 0.960 . S
H1726 C1718 0.930 . S
H1727 C1719 0.929 . S
H1728 C1736 0.929 . S
H1729 C1738 0.930 . S
H1730 C1740 0.930 . S
H1731 C1743 0.929 . S
H1732 C1746 0.930 . S
H1733 C1748 0.960 . S
H1734 C1748 0.960 . S
H1735 C1748 0.960 . S
C1736 H1728 0.929 . S
C1736 C1737 1.377 . S
C1736 C1738 1.384 . S
C1737 C1736 1.377 . S
C1737 C1743 1.390 . S
C1738 H1729 0.930 . S
C1738 C1736 1.384 . S
C1738 C1739 1.372 . S
C1739 C1738 1.372 . S
C1739 C1740 1.400 . S
C1739 C1744 1.490 . S
C1740 H1730 0.930 . S
C1740 C1739 1.400 . S
C1740 C1743 1.386 . S
H1741 C1757 0.930 . S
H1742 C1758 0.931 . S
C1743 H1731 0.929 . S
C1743 C1737 1.390 . S
C1743 C1740 1.386 . S
C1744 C1739 1.490 . S
C1744 C1746 1.395 . S
C1744 C1747 1.403 . S
H1745 C1751 0.930 . S
C1746 H1732 0.930 . S
C1746 C1744 1.395 . S
C1746 C1749 1.403 . S
C1747 C1744 1.403 . S
C1747 C1748 1.524 . S
C1747 C1751 1.400 . S
C1748 H1733 0.960 . S
C1748 H1734 0.960 . S
C1748 H1735 0.960 . S
C1748 C1747 1.524 . S
C1749 C1746 1.403 . S
C1749 C1750 1.392 . S
C1749 C1753 1.495 . S
C1750 C1749 1.392 . S
C1750 C1751 1.385 . S
C1750 C1752 1.478 . S
C1751 H1745 0.930 . S
C1751 C1747 1.400 . S
C1751 C1750 1.385 . S
C1752 C1750 1.478 . S
C1752 C1754 1.381 . S
C1752 C1758 1.383 . S
C1753 C1749 1.495 . S
C1753 H1759 0.959 . S
C1753 H1760 0.961 . S
C1753 H1761 0.960 . S
C1754 C1752 1.381 . S
C1754 C1755 1.394 . S
C1754 H1762 0.930 . S
C1755 C1754 1.394 . S
C1755 C1756 1.383 . S
C1755 H1763 0.929 . S
C1756 C1755 1.383 . S
C1756 C1757 1.377 . S
C1757 H1741 0.930 . S
C1757 C1756 1.377 . S
C1757 C1758 1.379 . S
C1758 H1742 0.931 . S
C1758 C1752 1.383 . S
C1758 C1757 1.379 . S
H1759 C1753 0.959 . S
H1760 C1753 0.961 . S
H1761 C1753 0.960 . S
H1762 C1754 0.930 . S
H1763 C1755 0.929 . S
H1764 C1772 0.929 . S
H1765 C1774 0.930 . S
H1766 C1776 0.923 . S
H1767 C1779 0.929 1_556 S
H1768 C1782 0.930 . S
H1769 C1784 0.960 . S
H1770 C1784 0.960 . S
H1771 C1784 0.960 . S
C1772 H1764 0.929 . S
C1772 C1773 1.377 . S
C1772 C1774 1.384 . S
C1773 C1772 1.377 . S
C1773 C1779 1.390 . S
C1774 H1765 0.930 . S
C1774 C1772 1.384 . S
C1774 C1775 1.372 . S
C1775 C1774 1.372 . S
C1775 C1776 1.405 1_554 S
C1775 C1780 1.490 . S
C1776 H1766 0.923 . S
C1776 C1775 1.405 1_556 S
C1776 C1779 1.387 1_556 S
H1777 C1793 0.930 . S
H1778 C1794 0.931 . S
C1779 H1767 0.929 1_554 S
C1779 C1773 1.390 . S
C1779 C1776 1.387 1_554 S
C1780 C1775 1.490 . S
C1780 C1782 1.395 . S
C1780 C1783 1.403 1_554 S
H1781 C1787 0.930 . S
C1782 H1768 0.930 . S
C1782 C1780 1.395 . S
C1782 C1785 1.403 . S
C1783 C1780 1.403 1_556 S
C1783 C1784 1.524 . S
C1783 C1787 1.400 . S
C1784 H1769 0.960 . S
C1784 H1770 0.960 . S
C1784 H1771 0.960 . S
C1784 C1783 1.524 . S
C1785 C1782 1.403 . S
C1785 C1786 1.392 . S
C1785 C1789 1.495 . S
C1786 C1785 1.392 . S
C1786 C1787 1.385 1_554 S
C1786 C1788 1.484 . S
C1787 H1781 0.930 . S
C1787 C1783 1.400 . S
C1787 C1786 1.385 1_556 S
C1788 C1786 1.484 . S
C1788 C1790 1.400 . S
C1788 C1794 1.356 1_554 S
C1789 C1785 1.495 . S
C1789 H1795 0.959 . S
C1789 H1796 0.961 . S
C1789 H1797 0.960 . S
C1790 C1788 1.400 . S
C1790 C1791 1.394 . S
C1790 H1798 0.930 . S
C1791 C1790 1.394 . S
C1791 C1792 1.383 1_554 S
C1791 H1799 0.929 . S
C1792 C1791 1.383 1_556 S
C1792 C1793 1.377 . S
C1793 H1777 0.930 . S
C1793 C1792 1.377 . S
C1793 C1794 1.379 . S
C1794 H1778 0.931 . S
C1794 C1788 1.356 1_556 S
C1794 C1793 1.379 . S
H1795 C1789 0.959 . S
H1796 C1789 0.961 . S
H1797 C1789 0.960 . S
H1798 C1790 0.930 . S
H1799 C1791 0.929 . S
H1800 C1808 0.929 . S
H1801 C1810 0.930 . S
H1802 C1812 0.930 . S
H1803 C1815 0.929 . S
H1804 C1818 0.930 . S
H1805 C1820 0.960 . S
H1806 C1820 0.960 . S
H1807 C1820 0.960 . S
C1808 H1800 0.929 . S
C1808 C1809 1.377 . S
C1808 C1810 1.384 . S
C1809 C1808 1.377 . S
C1809 C1815 1.390 . S
C1810 H1801 0.930 . S
C1810 C1808 1.384 . S
C1810 C1811 1.372 . S
C1811 C1810 1.372 . S
C1811 C1812 1.400 . S
C1811 C1816 1.490 . S
C1812 H1802 0.930 . S
C1812 C1811 1.400 . S
C1812 C1815 1.386 . S
H1813 C1829 0.930 . S
H1814 C1830 0.931 . S
C1815 H1803 0.929 . S
C1815 C1809 1.390 . S
C1815 C1812 1.386 . S
C1816 C1811 1.490 . S
C1816 C1818 1.395 . S
C1816 C1819 1.403 . S
H1817 C1823 0.930 . S
C1818 H1804 0.930 . S
C1818 C1816 1.395 . S
C1818 C1821 1.403 . S
C1819 C1816 1.403 . S
C1819 C1820 1.524 . S
C1819 C1823 1.400 . S
C1820 H1805 0.960 . S
C1820 H1806 0.960 . S
C1820 H1807 0.960 . S
C1820 C1819 1.524 . S
C1821 C1818 1.403 . S
C1821 C1822 1.392 . S
C1821 C1825 1.495 . S
C1822 C1821 1.392 . S
C1822 C1823 1.385 . S
C1822 C1824 1.478 . S
C1823 H1817 0.930 . S
C1823 C1819 1.400 . S
C1823 C1822 1.385 . S
C1824 C1822 1.478 . S
C1824 C1826 1.381 . S
C1824 C1830 1.383 . S
C1825 C1821 1.495 . S
C1825 H1831 0.959 . S
C1825 H1832 0.961 . S
C1825 H1833 0.960 . S
C1826 C1824 1.381 . S
C1826 C1827 1.394 . S
C1826 H1834 0.930 . S
C1827 C1826 1.394 . S
C1827 C1828 1.383 . S
C1827 H1835 0.929 . S
C1828 C1827 1.383 . S
C1828 C1829 1.377 . S
C1829 H1813 0.930 . S
C1829 C1828 1.377 . S
C1829 C1830 1.379 . S
C1830 H1814 0.931 . S
C1830 C1824 1.383 . S
C1830 C1829 1.379 . S
H1831 C1825 0.959 . S
H1832 C1825 0.961 . S
H1833 C1825 0.960 . S
H1834 C1826 0.930 . S
H1835 C1827 0.929 . S
H1836 C1844 0.929 . S
H1837 C1846 0.930 . S
H1838 C1848 0.930 . S
H1839 C1851 0.929 . S
H1840 C1854 0.930 . S
H1841 C1856 0.960 . S
H1842 C1856 0.960 . S
H1843 C1856 0.960 . S
C1844 H1836 0.929 . S
C1844 C1845 1.377 . S
C1844 C1846 1.384 . S
C1845 C1844 1.377 . S
C1845 C1851 1.390 . S
C1846 H1837 0.930 . S
C1846 C1844 1.384 . S
C1846 C1847 1.372 . S
C1847 C1846 1.372 . S
C1847 C1848 1.400 . S
C1847 C1852 1.490 . S
C1848 H1838 0.930 . S
C1848 C1847 1.400 . S
C1848 C1851 1.386 . S
H1849 C1865 0.930 . S
H1850 C1866 0.931 . S
C1851 H1839 0.929 . S
C1851 C1845 1.390 . S
C1851 C1848 1.386 . S
C1852 C1847 1.490 . S
C1852 C1854 1.395 . S
C1852 C1855 1.403 . S
H1853 C1859 0.930 . S
C1854 H1840 0.930 . S
C1854 C1852 1.395 . S
C1854 C1857 1.403 . S
C1855 C1852 1.403 . S
C1855 C1856 1.524 . S
C1855 C1859 1.400 . S
C1856 H1841 0.960 . S
C1856 H1842 0.960 . S
C1856 H1843 0.960 . S
C1856 C1855 1.524 . S
C1857 C1854 1.403 . S
C1857 C1858 1.392 . S
C1857 C1861 1.495 . S
C1858 C1857 1.392 . S
C1858 C1859 1.385 . S
C1858 C1860 1.478 . S
C1859 H1853 0.930 . S
C1859 C1855 1.400 . S
C1859 C1858 1.385 . S
C1860 C1858 1.478 . S
C1860 C1862 1.381 . S
C1860 C1866 1.383 . S
C1861 C1857 1.495 . S
C1861 H1867 0.959 . S
C1861 H1868 0.961 . S
C1861 H1869 0.960 . S
C1862 C1860 1.381 . S
C1862 C1863 1.394 . S
C1862 H1870 0.930 . S
C1863 C1862 1.394 . S
C1863 C1864 1.383 . S
C1863 H1871 0.929 . S
C1864 C1863 1.383 . S
C1864 C1865 1.377 . S
C1865 H1849 0.930 . S
C1865 C1864 1.377 . S
C1865 C1866 1.379 . S
C1866 H1850 0.931 . S
C1866 C1860 1.383 . S
C1866 C1865 1.379 . S
H1867 C1861 0.959 . S
H1868 C1861 0.961 . S
H1869 C1861 0.960 . S
H1870 C1862 0.930 . S
H1871 C1863 0.929 . S
H1872 C1880 0.929 . S
H1873 C1882 0.930 . S
H1874 C1884 0.930 . S
H1875 C1887 0.929 . S
H1876 C1890 0.930 . S
H1877 C1892 0.960 . S
H1878 C1892 0.960 . S
H1879 C1892 0.960 . S
C1880 H1872 0.929 . S
C1880 C1881 1.377 . S
C1880 C1882 1.384 . S
C1881 C1880 1.377 . S
C1881 C1887 1.390 . S
C1882 H1873 0.930 . S
C1882 C1880 1.384 . S
C1882 C1883 1.372 . S
C1883 C1882 1.372 . S
C1883 C1884 1.400 . S
C1883 C1888 1.490 . S
C1884 H1874 0.930 . S
C1884 C1883 1.400 . S
C1884 C1887 1.386 . S
H1885 C1901 0.930 . S
H1886 C1902 0.931 . S
C1887 H1875 0.929 . S
C1887 C1881 1.390 . S
C1887 C1884 1.386 . S
C1888 C1883 1.490 . S
C1888 C1890 1.395 . S
C1888 C1891 1.403 . S
H1889 C1895 0.930 . S
C1890 H1876 0.930 . S
C1890 C1888 1.395 . S
C1890 C1893 1.403 . S
C1891 C1888 1.403 . S
C1891 C1892 1.524 . S
C1891 C1895 1.400 . S
C1892 H1877 0.960 . S
C1892 H1878 0.960 . S
C1892 H1879 0.960 . S
C1892 C1891 1.524 . S
C1893 C1890 1.403 . S
C1893 C1894 1.392 . S
C1893 C1897 1.495 . S
C1894 C1893 1.392 . S
C1894 C1895 1.385 . S
C1894 C1896 1.478 . S
C1895 H1889 0.930 . S
C1895 C1891 1.400 . S
C1895 C1894 1.385 . S
C1896 C1894 1.478 . S
C1896 C1898 1.381 . S
C1896 C1902 1.383 . S
C1897 C1893 1.495 . S
C1897 H1903 0.959 . S
C1897 H1904 0.961 . S
C1897 H1905 0.960 . S
C1898 C1896 1.381 . S
C1898 C1899 1.394 . S
C1898 H1906 0.930 . S
C1899 C1898 1.394 . S
C1899 C1900 1.383 . S
C1899 H1907 0.929 . S
C1900 C1899 1.383 . S
C1900 C1901 1.377 . S
C1901 H1885 0.930 . S
C1901 C1900 1.377 . S
C1901 C1902 1.379 . S
C1902 H1886 0.931 . S
C1902 C1896 1.383 . S
C1902 C1901 1.379 . S
H1903 C1897 0.959 . S
H1904 C1897 0.961 . S
H1905 C1897 0.960 . S
H1906 C1898 0.930 . S
H1907 C1899 0.929 . S
H1908 C1916 0.929 . S
H1909 C1918 0.930 . S
H1910 C1920 0.930 . S
H1911 C1923 0.929 . S
H1912 C1926 0.930 . S
H1913 C1928 0.960 . S
H1914 C1928 0.960 . S
H1915 C1928 0.960 . S
C1916 H1908 0.929 . S
C1916 C1917 1.377 . S
C1916 C1918 1.384 . S
C1917 C1916 1.377 . S
C1917 C1923 1.390 . S
C1918 H1909 0.930 . S
C1918 C1916 1.384 . S
C1918 C1919 1.372 . S
C1919 C1918 1.372 . S
C1919 C1920 1.400 . S
C1919 C1924 1.490 . S
C1920 H1910 0.930 . S
C1920 C1919 1.400 . S
C1920 C1923 1.386 . S
H1921 C1937 0.930 . S
H1922 C1938 0.931 . S
C1923 H1911 0.929 . S
C1923 C1917 1.390 . S
C1923 C1920 1.386 . S
C1924 C1919 1.490 . S
C1924 C1926 1.395 . S
C1924 C1927 1.403 . S
H1925 C1931 0.930 . S
C1926 H1912 0.930 . S
C1926 C1924 1.395 . S
C1926 C1929 1.403 . S
C1927 C1924 1.403 . S
C1927 C1928 1.524 . S
C1927 C1931 1.400 . S
C1928 H1913 0.960 . S
C1928 H1914 0.960 . S
C1928 H1915 0.960 . S
C1928 C1927 1.524 . S
C1929 C1926 1.403 . S
C1929 C1930 1.392 . S
C1929 C1933 1.495 . S
C1930 C1929 1.392 . S
C1930 C1931 1.385 . S
C1930 C1932 1.478 . S
C1931 H1925 0.930 . S
C1931 C1927 1.400 . S
C1931 C1930 1.385 . S
C1932 C1930 1.478 . S
C1932 C1934 1.381 . S
C1932 C1938 1.383 . S
C1933 C1929 1.495 . S
C1933 H1939 0.959 . S
C1933 H1940 0.961 . S
C1933 H1941 0.960 . S
C1934 C1932 1.381 . S
C1934 C1935 1.394 . S
C1934 H1942 0.930 . S
C1935 C1934 1.394 . S
C1935 C1936 1.383 . S
C1935 H1943 0.929 . S
C1936 C1935 1.383 . S
C1936 C1937 1.377 . S
C1937 H1921 0.930 . S
C1937 C1936 1.377 . S
C1937 C1938 1.379 . S
C1938 H1922 0.931 . S
C1938 C1932 1.383 . S
C1938 C1937 1.379 . S
H1939 C1933 0.959 . S
H1940 C1933 0.961 . S
H1941 C1933 0.960 . S
H1942 C1934 0.930 . S
H1943 C1935 0.929 . S
H1944 C1952 0.929 . S
H1945 C1954 0.930 . S
H1946 C1956 0.930 . S
H1947 C1959 0.929 . S
H1948 C1962 0.930 . S
H1949 C1964 0.960 . S
H1950 C1964 0.960 . S
H1951 C1964 0.960 . S
C1952 H1944 0.929 . S
C1952 C1953 1.377 . S
C1952 C1954 1.384 . S
C1953 C1952 1.377 . S
C1953 C1959 1.390 . S
C1954 H1945 0.930 . S
C1954 C1952 1.384 . S
C1954 C1955 1.372 . S
C1955 C1954 1.372 . S
C1955 C1956 1.400 . S
C1955 C1960 1.490 . S
C1956 H1946 0.930 . S
C1956 C1955 1.400 . S
C1956 C1959 1.386 . S
H1957 C1973 0.930 . S
H1958 C1974 0.931 . S
C1959 H1947 0.929 . S
C1959 C1953 1.390 . S
C1959 C1956 1.386 . S
C1960 C1955 1.490 . S
C1960 C1962 1.395 . S
C1960 C1963 1.403 . S
H1961 C1967 0.930 . S
C1962 H1948 0.930 . S
C1962 C1960 1.395 . S
C1962 C1965 1.403 . S
C1963 C1960 1.403 . S
C1963 C1964 1.524 . S
C1963 C1967 1.400 . S
C1964 H1949 0.960 . S
C1964 H1950 0.960 . S
C1964 H1951 0.960 . S
C1964 C1963 1.524 . S
C1965 C1962 1.403 . S
C1965 C1966 1.392 . S
C1965 C1969 1.495 . S
C1966 C1965 1.392 . S
C1966 C1967 1.385 . S
C1966 C1968 1.478 . S
C1967 H1961 0.930 . S
C1967 C1963 1.400 . S
C1967 C1966 1.385 . S
C1968 C1966 1.478 . S
C1968 C1970 1.381 . S
C1968 C1974 1.383 . S
C1969 C1965 1.495 . S
C1969 H1975 0.959 . S
C1969 H1976 0.961 . S
C1969 H1977 0.960 . S
C1970 C1968 1.381 . S
C1970 C1971 1.394 . S
C1970 H1978 0.930 . S
C1971 C1970 1.394 . S
C1971 C1972 1.383 . S
C1971 H1979 0.929 . S
C1972 C1971 1.383 . S
C1972 C1973 1.377 . S
C1973 H1957 0.930 . S
C1973 C1972 1.377 . S
C1973 C1974 1.379 . S
C1974 H1958 0.931 . S
C1974 C1968 1.383 . S
C1974 C1973 1.379 . S
H1975 C1969 0.959 . S
H1976 C1969 0.961 . S
H1977 C1969 0.960 . S
H1978 C1970 0.930 . S
H1979 C1971 0.929 . S
H1980 C1988 0.929 . S
H1981 C1990 0.930 . S
H1982 C1992 0.930 . S
H1983 C1995 0.929 . S
H1984 C1998 0.930 . S
H1985 C2000 0.960 . S
H1986 C2000 0.960 . S
H1987 C2000 0.960 . S
C1988 H1980 0.929 . S
C1988 C1989 1.377 . S
C1988 C1990 1.384 . S
C1989 C1988 1.377 . S
C1989 C1995 1.390 . S
C1990 H1981 0.930 . S
C1990 C1988 1.384 . S
C1990 C1991 1.372 . S
C1991 C1990 1.372 . S
C1991 C1992 1.400 . S
C1991 C1996 1.490 . S
C1992 H1982 0.930 . S
C1992 C1991 1.400 . S
C1992 C1995 1.386 . S
H1993 C2009 0.930 . S
H1994 C2010 0.931 . S
C1995 H1983 0.929 . S
C1995 C1989 1.390 . S
C1995 C1992 1.386 . S
C1996 C1991 1.490 . S
C1996 C1998 1.395 . S
C1996 C1999 1.403 . S
H1997 C2003 0.930 . S
C1998 H1984 0.930 . S
C1998 C1996 1.395 . S
C1998 C2001 1.403 . S
C1999 C1996 1.403 . S
C1999 C2000 1.524 . S
C1999 C2003 1.400 . S
C2000 H1985 0.960 . S
C2000 H1986 0.960 . S
C2000 H1987 0.960 . S
C2000 C1999 1.524 . S
C2001 C1998 1.403 . S
C2001 C2002 1.392 . S
C2001 C2005 1.495 . S
C2002 C2001 1.392 . S
C2002 C2003 1.385 . S
C2002 C2004 1.478 . S
C2003 H1997 0.930 . S
C2003 C1999 1.400 . S
C2003 C2002 1.385 . S
C2004 C2002 1.478 . S
C2004 C2006 1.381 . S
C2004 C2010 1.383 . S
C2005 C2001 1.495 . S
C2005 H2011 0.959 . S
C2005 H2012 0.961 . S
C2005 H2013 0.960 . S
C2006 C2004 1.381 . S
C2006 C2007 1.394 . S
C2006 H2014 0.930 . S
C2007 C2006 1.394 . S
C2007 C2008 1.383 . S
C2007 H2015 0.929 . S
C2008 C2007 1.383 . S
C2008 C2009 1.377 . S
C2009 H1993 0.930 . S
C2009 C2008 1.377 . S
C2009 C2010 1.379 . S
C2010 H1994 0.931 . S
C2010 C2004 1.383 . S
C2010 C2009 1.379 . S
H2011 C2005 0.959 . S
H2012 C2005 0.961 . S
H2013 C2005 0.960 . S
H2014 C2006 0.930 . S
H2015 C2007 0.929 . S
H2016 C2024 0.929 . S
H2017 C2026 0.930 . S
H2018 C2028 0.930 . S
H2019 C2031 0.929 . S
H2020 C2034 0.930 . S
H2021 C2036 0.960 . S
H2022 C2036 0.960 . S
H2023 C2036 0.960 . S
C2024 H2016 0.929 . S
C2024 C2025 1.377 . S
C2024 C2026 1.384 . S
C2025 C2024 1.377 . S
C2025 C2031 1.390 . S
C2026 H2017 0.930 . S
C2026 C2024 1.384 . S
C2026 C2027 1.372 . S
C2027 C2026 1.372 . S
C2027 C2028 1.400 . S
C2027 C2032 1.490 . S
C2028 H2018 0.930 . S
C2028 C2027 1.400 . S
C2028 C2031 1.386 . S
H2029 C2045 0.930 . S
H2030 C2046 0.931 . S
C2031 H2019 0.929 . S
C2031 C2025 1.390 . S
C2031 C2028 1.386 . S
C2032 C2027 1.490 . S
C2032 C2034 1.395 . S
C2032 C2035 1.403 . S
H2033 C2039 0.930 . S
C2034 H2020 0.930 . S
C2034 C2032 1.395 . S
C2034 C2037 1.403 . S
C2035 C2032 1.403 . S
C2035 C2036 1.524 . S
C2035 C2039 1.400 . S
C2036 H2021 0.960 . S
C2036 H2022 0.960 . S
C2036 H2023 0.960 . S
C2036 C2035 1.524 . S
C2037 C2034 1.403 . S
C2037 C2038 1.392 . S
C2037 C2041 1.495 . S
C2038 C2037 1.392 . S
C2038 C2039 1.385 . S
C2038 C2040 1.478 . S
C2039 H2033 0.930 . S
C2039 C2035 1.400 . S
C2039 C2038 1.385 . S
C2040 C2038 1.478 . S
C2040 C2042 1.381 . S
C2040 C2046 1.383 . S
C2041 C2037 1.495 . S
C2041 H2047 0.959 . S
C2041 H2048 0.961 . S
C2041 H2049 0.960 . S
C2042 C2040 1.381 . S
C2042 C2043 1.394 . S
C2042 H2050 0.930 . S
C2043 C2042 1.394 . S
C2043 C2044 1.383 . S
C2043 H2051 0.929 . S
C2044 C2043 1.383 . S
C2044 C2045 1.377 . S
C2045 H2029 0.930 . S
C2045 C2044 1.377 . S
C2045 C2046 1.379 . S
C2046 H2030 0.931 . S
C2046 C2040 1.383 . S
C2046 C2045 1.379 . S
H2047 C2041 0.959 . S
H2048 C2041 0.961 . S
H2049 C2041 0.960 . S
H2050 C2042 0.930 . S
H2051 C2043 0.929 . S
H2052 C2060 0.929 . S
H2053 C2062 0.930 . S
H2054 C2064 0.930 . S
H2055 C2067 0.929 . S
H2056 C2070 0.930 . S
H2057 C2072 0.960 . S
H2058 C2072 0.960 . S
H2059 C2072 0.960 . S
C2060 H2052 0.929 . S
C2060 C2061 1.377 . S
C2060 C2062 1.384 . S
C2061 C2060 1.377 . S
C2061 C2067 1.390 . S
C2062 H2053 0.930 . S
C2062 C2060 1.384 . S
C2062 C2063 1.372 . S
C2063 C2062 1.372 . S
C2063 C2064 1.400 . S
C2063 C2068 1.490 . S
C2064 H2054 0.930 . S
C2064 C2063 1.400 . S
C2064 C2067 1.386 . S
H2065 C2081 0.930 . S
H2066 C2082 0.931 . S
C2067 H2055 0.929 . S
C2067 C2061 1.390 . S
C2067 C2064 1.386 . S
C2068 C2063 1.490 . S
C2068 C2070 1.395 . S
C2068 C2071 1.403 . S
H2069 C2075 0.930 . S
C2070 H2056 0.930 . S
C2070 C2068 1.395 . S
C2070 C2073 1.403 . S
C2071 C2068 1.403 . S
C2071 C2072 1.524 . S
C2071 C2075 1.400 . S
C2072 H2057 0.960 . S
C2072 H2058 0.960 . S
C2072 H2059 0.960 . S
C2072 C2071 1.524 . S
C2073 C2070 1.403 . S
C2073 C2074 1.392 . S
C2073 C2077 1.495 . S
C2074 C2073 1.392 . S
C2074 C2075 1.385 . S
C2074 C2076 1.478 . S
C2075 H2069 0.930 . S
C2075 C2071 1.400 . S
C2075 C2074 1.385 . S
C2076 C2074 1.478 . S
C2076 C2078 1.381 . S
C2076 C2082 1.383 . S
C2077 C2073 1.495 . S
C2077 H2083 0.959 . S
C2077 H2084 0.961 . S
C2077 H2085 0.960 . S
C2078 C2076 1.381 . S
C2078 C2079 1.394 . S
C2078 H2086 0.930 . S
C2079 C2078 1.394 . S
C2079 C2080 1.383 . S
C2079 H2087 0.929 . S
C2080 C2079 1.383 . S
C2080 C2081 1.377 . S
C2081 H2065 0.930 . S
C2081 C2080 1.377 . S
C2081 C2082 1.379 . S
C2082 H2066 0.931 . S
C2082 C2076 1.383 . S
C2082 C2081 1.379 . S
H2083 C2077 0.959 . S
H2084 C2077 0.961 . S
H2085 C2077 0.960 . S
H2086 C2078 0.930 . S
H2087 C2079 0.929 . S
H2088 C2096 0.929 . S
H2089 C2098 0.930 . S
H2090 C2100 0.930 . S
H2091 C2103 0.929 . S
H2092 C2106 0.930 . S
H2093 C2108 0.960 . S
H2094 C2108 0.960 . S
H2095 C2108 0.960 . S
C2096 H2088 0.929 . S
C2096 C2097 1.377 . S
C2096 C2098 1.384 . S
C2097 C2096 1.377 . S
C2097 C2103 1.390 . S
C2098 H2089 0.930 . S
C2098 C2096 1.384 . S
C2098 C2099 1.372 . S
C2099 C2098 1.372 . S
C2099 C2100 1.400 . S
C2099 C2104 1.490 . S
C2100 H2090 0.930 . S
C2100 C2099 1.400 . S
C2100 C2103 1.386 . S
H2101 C2117 0.930 . S
H2102 C2118 0.931 . S
C2103 H2091 0.929 . S
C2103 C2097 1.390 . S
C2103 C2100 1.386 . S
C2104 C2099 1.490 . S
C2104 C2106 1.395 . S
C2104 C2107 1.403 . S
H2105 C2111 0.930 . S
C2106 H2092 0.930 . S
C2106 C2104 1.395 . S
C2106 C2109 1.403 . S
C2107 C2104 1.403 . S
C2107 C2108 1.524 . S
C2107 C2111 1.400 . S
C2108 H2093 0.960 . S
C2108 H2094 0.960 . S
C2108 H2095 0.960 . S
C2108 C2107 1.524 . S
C2109 C2106 1.403 . S
C2109 C2110 1.392 . S
C2109 C2113 1.495 . S
C2110 C2109 1.392 . S
C2110 C2111 1.385 . S
C2110 C2112 1.478 . S
C2111 H2105 0.930 . S
C2111 C2107 1.400 . S
C2111 C2110 1.385 . S
C2112 C2110 1.478 . S
C2112 C2114 1.381 . S
C2112 C2118 1.383 . S
C2113 C2109 1.495 . S
C2113 H2119 0.959 . S
C2113 H2120 0.961 . S
C2113 H2121 0.960 . S
C2114 C2112 1.381 . S
C2114 C2115 1.394 . S
C2114 H2122 0.930 . S
C2115 C2114 1.394 . S
C2115 C2116 1.383 . S
C2115 H2123 0.929 . S
C2116 C2115 1.383 . S
C2116 C2117 1.377 . S
C2117 H2101 0.930 . S
C2117 C2116 1.377 . S
C2117 C2118 1.379 . S
C2118 H2102 0.931 . S
C2118 C2112 1.383 . S
C2118 C2117 1.379 . S
H2119 C2113 0.959 . S
H2120 C2113 0.961 . S
H2121 C2113 0.960 . S
H2122 C2114 0.930 . S
H2123 C2115 0.929 . S
H2124 C2132 0.929 . S
H2125 C2134 0.930 . S
H2126 C2136 0.930 . S
H2127 C2139 0.929 . S
H2128 C2142 0.930 . S
H2129 C2144 0.960 . S
H2130 C2144 0.960 . S
H2131 C2144 0.960 . S
C2132 H2124 0.929 . S
C2132 C2133 1.377 . S
C2132 C2134 1.384 . S
C2133 C2132 1.377 . S
C2133 C2139 1.390 . S
C2134 H2125 0.930 . S
C2134 C2132 1.384 . S
C2134 C2135 1.372 . S
C2135 C2134 1.372 . S
C2135 C2136 1.400 . S
C2135 C2140 1.490 . S
C2136 H2126 0.930 . S
C2136 C2135 1.400 . S
C2136 C2139 1.386 . S
H2137 C2153 0.930 . S
H2138 C2154 0.931 . S
C2139 H2127 0.929 . S
C2139 C2133 1.390 . S
C2139 C2136 1.386 . S
C2140 C2135 1.490 . S
C2140 C2142 1.395 . S
C2140 C2143 1.403 . S
H2141 C2147 0.930 . S
C2142 H2128 0.930 . S
C2142 C2140 1.395 . S
C2142 C2145 1.403 . S
C2143 C2140 1.403 . S
C2143 C2144 1.524 . S
C2143 C2147 1.400 . S
C2144 H2129 0.960 . S
C2144 H2130 0.960 . S
C2144 H2131 0.960 . S
C2144 C2143 1.524 . S
C2145 C2142 1.403 . S
C2145 C2146 1.392 . S
C2145 C2149 1.495 . S
C2146 C2145 1.392 . S
C2146 C2147 1.385 . S
C2146 C2148 1.478 . S
C2147 H2141 0.930 . S
C2147 C2143 1.400 . S
C2147 C2146 1.385 . S
C2148 C2146 1.478 . S
C2148 C2150 1.381 . S
C2148 C2154 1.383 . S
C2149 C2145 1.495 . S
C2149 H2155 0.959 . S
C2149 H2156 0.961 . S
C2149 H2157 0.960 . S
C2150 C2148 1.381 . S
C2150 C2151 1.394 . S
C2150 H2158 0.930 . S
C2151 C2150 1.394 . S
C2151 C2152 1.383 . S
C2151 H2159 0.929 . S
C2152 C2151 1.383 . S
C2152 C2153 1.377 . S
C2153 H2137 0.930 . S
C2153 C2152 1.377 . S
C2153 C2154 1.379 . S
C2154 H2138 0.931 . S
C2154 C2148 1.383 . S
C2154 C2153 1.379 . S
H2155 C2149 0.959 . S
H2156 C2149 0.961 . S
H2157 C2149 0.960 . S
H2158 C2150 0.930 . S
H2159 C2151 0.929 . S
H2160 C2168 0.929 . S
H2161 C2170 0.930 . S
H2162 C2172 0.930 . S
H2163 C2175 0.929 . S
H2164 C2178 0.930 . S
H2165 C2180 0.960 . S
H2166 C2180 0.960 . S
H2167 C2180 0.960 . S
C2168 H2160 0.929 . S
C2168 C2169 1.377 . S
C2168 C2170 1.384 . S
C2169 C2168 1.377 . S
C2169 C2175 1.390 . S
C2170 H2161 0.930 . S
C2170 C2168 1.384 . S
C2170 C2171 1.372 . S
C2171 C2170 1.372 . S
C2171 C2172 1.400 . S
C2171 C2176 1.490 . S
C2172 H2162 0.930 . S
C2172 C2171 1.400 . S
C2172 C2175 1.386 . S
H2173 C2189 0.930 . S
H2174 C2190 0.931 . S
C2175 H2163 0.929 . S
C2175 C2169 1.390 . S
C2175 C2172 1.386 . S
C2176 C2171 1.490 . S
C2176 C2178 1.395 . S
C2176 C2179 1.403 . S
H2177 C2183 0.930 . S
C2178 H2164 0.930 . S
C2178 C2176 1.395 . S
C2178 C2181 1.403 . S
C2179 C2176 1.403 . S
C2179 C2180 1.524 . S
C2179 C2183 1.400 . S
C2180 H2165 0.960 . S
C2180 H2166 0.960 . S
C2180 H2167 0.960 . S
C2180 C2179 1.524 . S
C2181 C2178 1.403 . S
C2181 C2182 1.392 . S
C2181 C2185 1.495 . S
C2182 C2181 1.392 . S
C2182 C2183 1.385 . S
C2182 C2184 1.478 . S
C2183 H2177 0.930 . S
C2183 C2179 1.400 . S
C2183 C2182 1.385 . S
C2184 C2182 1.478 . S
C2184 C2186 1.381 . S
C2184 C2190 1.383 . S
C2185 C2181 1.495 . S
C2185 H2191 0.959 . S
C2185 H2192 0.961 . S
C2185 H2193 0.960 . S
C2186 C2184 1.381 . S
C2186 C2187 1.394 . S
C2186 H2194 0.930 . S
C2187 C2186 1.394 . S
C2187 C2188 1.383 . S
C2187 H2195 0.929 . S
C2188 C2187 1.383 . S
C2188 C2189 1.377 . S
C2189 H2173 0.930 . S
C2189 C2188 1.377 . S
C2189 C2190 1.379 . S
C2190 H2174 0.931 . S
C2190 C2184 1.383 . S
C2190 C2189 1.379 . S
H2191 C2185 0.959 . S
H2192 C2185 0.961 . S
H2193 C2185 0.960 . S
H2194 C2186 0.930 . S
H2195 C2187 0.929 . S
H2196 C2204 0.929 . S
H2197 C2206 0.930 . S
H2198 C2208 0.930 . S
H2199 C2211 0.929 . S
H2200 C2214 0.930 . S
H2201 C2216 0.960 . S
H2202 C2216 0.960 . S
H2203 C2216 0.960 . S
C2204 H2196 0.929 . S
C2204 C2205 1.377 . S
C2204 C2206 1.384 . S
C2205 C2204 1.377 . S
C2205 C2211 1.390 . S
C2206 H2197 0.930 . S
C2206 C2204 1.384 . S
C2206 C2207 1.372 . S
C2207 C2206 1.372 . S
C2207 C2208 1.400 . S
C2207 C2212 1.490 . S
C2208 H2198 0.930 . S
C2208 C2207 1.400 . S
C2208 C2211 1.386 . S
H2209 C2225 0.930 . S
H2210 C2226 0.931 . S
C2211 H2199 0.929 . S
C2211 C2205 1.390 . S
C2211 C2208 1.386 . S
C2212 C2207 1.490 . S
C2212 C2214 1.395 . S
C2212 C2215 1.403 . S
H2213 C2219 0.930 . S
C2214 H2200 0.930 . S
C2214 C2212 1.395 . S
C2214 C2217 1.403 . S
C2215 C2212 1.403 . S
C2215 C2216 1.524 . S
C2215 C2219 1.400 . S
C2216 H2201 0.960 . S
C2216 H2202 0.960 . S
C2216 H2203 0.960 . S
C2216 C2215 1.524 . S
C2217 C2214 1.403 . S
C2217 C2218 1.392 . S
C2217 C2221 1.495 . S
C2218 C2217 1.392 . S
C2218 C2219 1.385 . S
C2218 C2220 1.478 . S
C2219 H2213 0.930 . S
C2219 C2215 1.400 . S
C2219 C2218 1.385 . S
C2220 C2218 1.478 . S
C2220 C2222 1.381 . S
C2220 C2226 1.383 . S
C2221 C2217 1.495 . S
C2221 H2227 0.959 . S
C2221 H2228 0.961 . S
C2221 H2229 0.960 . S
C2222 C2220 1.381 . S
C2222 C2223 1.394 . S
C2222 H2230 0.930 . S
C2223 C2222 1.394 . S
C2223 C2224 1.383 . S
C2223 H2231 0.929 . S
C2224 C2223 1.383 . S
C2224 C2225 1.377 . S
C2225 H2209 0.930 . S
C2225 C2224 1.377 . S
C2225 C2226 1.379 . S
C2226 H2210 0.931 . S
C2226 C2220 1.383 . S
C2226 C2225 1.379 . S
H2227 C2221 0.959 . S
H2228 C2221 0.961 . S
H2229 C2221 0.960 . S
H2230 C2222 0.930 . S
H2231 C2223 0.929 . S
H2232 C2240 0.929 . S
H2233 C2242 0.930 . S
H2234 C2244 0.930 . S
H2235 C2247 0.929 . S
H2236 C2250 0.930 . S
H2237 C2252 0.960 . S
H2238 C2252 0.960 . S
H2239 C2252 0.960 . S
C2240 H2232 0.929 . S
C2240 C2241 1.377 . S
C2240 C2242 1.384 . S
C2241 C2240 1.377 . S
C2241 C2247 1.390 . S
C2242 H2233 0.930 . S
C2242 C2240 1.384 . S
C2242 C2243 1.372 . S
C2243 C2242 1.372 . S
C2243 C2244 1.400 . S
C2243 C2248 1.490 . S
C2244 H2234 0.930 . S
C2244 C2243 1.400 . S
C2244 C2247 1.386 . S
H2245 C2261 0.930 . S
H2246 C2262 0.931 . S
C2247 H2235 0.929 . S
C2247 C2241 1.390 . S
C2247 C2244 1.386 . S
C2248 C2243 1.490 . S
C2248 C2250 1.395 . S
C2248 C2251 1.403 . S
H2249 C2255 0.930 . S
C2250 H2236 0.930 . S
C2250 C2248 1.395 . S
C2250 C2253 1.403 . S
C2251 C2248 1.403 . S
C2251 C2252 1.524 . S
C2251 C2255 1.400 . S
C2252 H2237 0.960 . S
C2252 H2238 0.960 . S
C2252 H2239 0.960 . S
C2252 C2251 1.524 . S
C2253 C2250 1.403 . S
C2253 C2254 1.392 . S
C2253 C2257 1.495 . S
C2254 C2253 1.392 . S
C2254 C2255 1.385 . S
C2254 C2256 1.478 . S
C2255 H2249 0.930 . S
C2255 C2251 1.400 . S
C2255 C2254 1.385 . S
C2256 C2254 1.478 . S
C2256 C2258 1.381 . S
C2256 C2262 1.383 . S
C2257 C2253 1.495 . S
C2257 H2263 0.959 . S
C2257 H2264 0.961 . S
C2257 H2265 0.960 . S
C2258 C2256 1.381 . S
C2258 C2259 1.394 . S
C2258 H2266 0.930 . S
C2259 C2258 1.394 . S
C2259 C2260 1.383 . S
C2259 H2267 0.929 . S
C2260 C2259 1.383 . S
C2260 C2261 1.377 . S
C2261 H2245 0.930 . S
C2261 C2260 1.377 . S
C2261 C2262 1.379 . S
C2262 H2246 0.931 . S
C2262 C2256 1.383 . S
C2262 C2261 1.379 . S
H2263 C2257 0.959 . S
H2264 C2257 0.961 . S
H2265 C2257 0.960 . S
H2266 C2258 0.930 . S
H2267 C2259 0.929 . S
H2268 C2276 0.929 . S
H2269 C2278 0.930 . S
H2270 C2280 0.930 . S
H2271 C2283 0.929 . S
H2272 C2286 0.930 . S
H2273 C2288 0.960 . S
H2274 C2288 0.960 . S
H2275 C2288 0.960 . S
C2276 H2268 0.929 . S
C2276 C2277 1.377 . S
C2276 C2278 1.384 . S
C2277 C2276 1.377 . S
C2277 C2283 1.390 . S
C2278 H2269 0.930 . S
C2278 C2276 1.384 . S
C2278 C2279 1.372 . S
C2279 C2278 1.372 . S
C2279 C2280 1.400 . S
C2279 C2284 1.490 . S
C2280 H2270 0.930 . S
C2280 C2279 1.400 . S
C2280 C2283 1.386 . S
H2281 C2297 0.930 . S
H2282 C2298 0.931 . S
C2283 H2271 0.929 . S
C2283 C2277 1.390 . S
C2283 C2280 1.386 . S
C2284 C2279 1.490 . S
C2284 C2286 1.395 . S
C2284 C2287 1.403 . S
H2285 C2291 0.930 . S
C2286 H2272 0.930 . S
C2286 C2284 1.395 . S
C2286 C2289 1.403 . S
C2287 C2284 1.403 . S
C2287 C2288 1.524 . S
C2287 C2291 1.400 . S
C2288 H2273 0.960 . S
C2288 H2274 0.960 . S
C2288 H2275 0.960 . S
C2288 C2287 1.524 . S
C2289 C2286 1.403 . S
C2289 C2290 1.392 . S
C2289 C2293 1.495 . S
C2290 C2289 1.392 . S
C2290 C2291 1.385 . S
C2290 C2292 1.478 . S
C2291 H2285 0.930 . S
C2291 C2287 1.400 . S
C2291 C2290 1.385 . S
C2292 C2290 1.478 . S
C2292 C2294 1.381 . S
C2292 C2298 1.383 . S
C2293 C2289 1.495 . S
C2293 H2299 0.959 . S
C2293 H2300 0.961 . S
C2293 H2301 0.960 . S
C2294 C2292 1.381 . S
C2294 C2295 1.394 . S
C2294 H2302 0.930 . S
C2295 C2294 1.394 . S
C2295 C2296 1.383 . S
C2295 H2303 0.929 . S
C2296 C2295 1.383 . S
C2296 C2297 1.377 . S
C2297 H2281 0.930 . S
C2297 C2296 1.377 . S
C2297 C2298 1.379 . S
C2298 H2282 0.931 . S
C2298 C2292 1.383 . S
C2298 C2297 1.379 . S
H2299 C2293 0.959 . S
H2300 C2293 0.961 . S
H2301 C2293 0.960 . S
H2302 C2294 0.930 . S
H2303 C2295 0.929 . S
C1017 C476 1.357 . S
C1036 C70 1.256 . S
C1053 C154 1.195 . S
C1072 C56 1.341 . S
C1089 C238 1.304 . S
C1108 C140 1.372 . S
C1125 C224 1.347 . S
C1144 C322 1.296 . S
C1161 C308 1.297 . S
C1180 C406 1.128 . S
C1197 C490 1.317 . S
C1216 C392 1.451 . S
C1233 C644 1.339 . S
C1252 C574 1.240 . S
C1269 C658 1.300 . S
C1288 C728 1.373 . S
C1305 C812 1.289 . S
C1324 C742 1.143 . S
C1341 C896 1.353 . S
C1360 C826 1.304 . S
C1377 C980 1.407 . S
C1396 C910 1.306 . S
C1413 C560 1.289 . S
C1432 C994 1.159 . S
C1449 C987 3.289 . S
C1468 C67 3.278 . S
C1485 C151 2.779 . S
C1504 C567 2.782 . S
C1521 C651 3.039 . S
C1540 C235 3.010 . S
C1557 C735 3.289 . S
C1576 C319 3.267 . S
C1593 C819 2.795 . S
C1612 C403 2.768 . S
C1629 C487 3.022 . S
C1648 C903 3.038 . S
C1665 C571 3.271 . S
C1684 C147 3.281 . S
C1701 C655 3.023 . S
C1720 C231 3.037 . S
C1737 C315 2.793 . S
C1756 C739 2.772 . S
C1773 C399 3.287 . S
C1792 C823 3.264 . S
C1809 C907 3.021 . S
C1828 C483 3.027 . S
C1845 C991 2.778 . S
C1864 C63 2.780 . S
C1881 C578 2.255 . S
C1900 C74 2.266 . S
C1917 C158 1.535 . S
C1936 C662 1.532 . S
C1953 C746 1.523 . S
C1972 C242 1.525 . S
C1989 C326 2.258 . S
C2008 C830 2.240 . S
C2025 C914 1.546 . S
C2044 C410 1.515 . S
C2061 C998 1.533 . S
C2080 C494 1.574 . S
C2097 C562 0.746 . S
C2116 C58 0.701 . S
C2133 C646 0.515 . S
C2152 C142 0.405 . S
C2169 C730 0.482 . S
C2188 C226 0.460 . S
C2205 C310 0.740 . S
C2224 C814 0.742 . S
C2241 C898 0.518 . S
C2260 C394 0.409 . S
C2277 C982 0.512 . S
C2296 C478 0.465 . S
