# Generated by pormake.
# Topology wgo, (5)-cn, num edge types: 1
# Building blocks:
#     Node 0, Type 0, BuildingBlock: BEQFEK_clean_sbu_0, # of connection points: 5
#     Node 1, Type 0, BuildingBlock: BEQFEK_clean_sbu_0, # of connection points: 5
#     Node 2, Type 0, BuildingBlock: BEQFEK_clean_sbu_0, # of connection points: 5
#     Node 3, Type 0, BuildingBlock: BEQFEK_clean_sbu_0, # of connection points: 5
#     Node 4, Type 0, BuildingBlock: BEQFEK_clean_sbu_0, # of connection points: 5
#     Node 5, Type 0, BuildingBlock: BEQFEK_clean_sbu_0, # of connection points: 5
#     Node 6, Type 0, BuildingBlock: BEQFEK_clean_sbu_0, # of connection points: 5
#     Node 7, Type 0, BuildingBlock: BEQFEK_clean_sbu_0, # of connection points: 5
#     Node 8, Type 0, BuildingBlock: BEQFEK_clean_sbu_0, # of connection points: 5
#     Node 9, Type 0, BuildingBlock: BEQFEK_clean_sbu_0, # of connection points: 5
#     Node 10, Type 0, BuildingBlock: BEQFEK_clean_sbu_0, # of connection points: 5
#     Node 11, Type 0, BuildingBlock: BEQFEK_clean_sbu_0, # of connection points: 5
#     Node 12, Type 0, BuildingBlock: BEQFEK_clean_sbu_0, # of connection points: 5
#     Node 13, Type 0, BuildingBlock: BEQFEK_clean_sbu_0, # of connection points: 5
#     Node 14, Type 0, BuildingBlock: BEQFEK_clean_sbu_0, # of connection points: 5
#     Node 15, Type 0, BuildingBlock: BEQFEK_clean_sbu_0, # of connection points: 5
#     Node 16, Type 0, BuildingBlock: BEQFEK_clean_sbu_0, # of connection points: 5
#     Node 17, Type 0, BuildingBlock: BEQFEK_clean_sbu_0, # of connection points: 5
#     Node 18, Type 0, BuildingBlock: BEQFEK_clean_sbu_0, # of connection points: 5
#     Node 19, Type 0, BuildingBlock: BEQFEK_clean_sbu_0, # of connection points: 5
#     Node 20, Type 0, BuildingBlock: BEQFEK_clean_sbu_0, # of connection points: 5
#     Node 21, Type 0, BuildingBlock: BEQFEK_clean_sbu_0, # of connection points: 5
#     Node 22, Type 0, BuildingBlock: BEQFEK_clean_sbu_0, # of connection points: 5
#     Node 23, Type 0, BuildingBlock: BEQFEK_clean_sbu_0, # of connection points: 5
#     Node 24, Type 0, BuildingBlock: BEQFEK_clean_sbu_0, # of connection points: 5
#     Node 25, Type 0, BuildingBlock: BEQFEK_clean_sbu_0, # of connection points: 5
#     Node 26, Type 0, BuildingBlock: BEQFEK_clean_sbu_0, # of connection points: 5
#     Node 27, Type 0, BuildingBlock: BEQFEK_clean_sbu_0, # of connection points: 5
#     Node 28, Type 0, BuildingBlock: BEQFEK_clean_sbu_0, # of connection points: 5
#     Node 29, Type 0, BuildingBlock: BEQFEK_clean_sbu_0, # of connection points: 5
#     Node 30, Type 0, BuildingBlock: BEQFEK_clean_sbu_0, # of connection points: 5
#     Node 31, Type 0, BuildingBlock: BEQFEK_clean_sbu_0, # of connection points: 5
#     Edge 32, Type (0, 0), BuildingBlock: KIFKEQ_clean_linker_1, # of connection points: 2
#     Edge 33, Type (0, 0), BuildingBlock: KIFKEQ_clean_linker_1, # of connection points: 2
#     Edge 34, Type (0, 0), BuildingBlock: KIFKEQ_clean_linker_1, # of connection points: 2
#     Edge 35, Type (0, 0), BuildingBlock: KIFKEQ_clean_linker_1, # of connection points: 2
#     Edge 36, Type (0, 0), BuildingBlock: KIFKEQ_clean_linker_1, # of connection points: 2
#     Edge 37, Type (0, 0), BuildingBlock: KIFKEQ_clean_linker_1, # of connection points: 2
#     Edge 38, Type (0, 0), BuildingBlock: KIFKEQ_clean_linker_1, # of connection points: 2
#     Edge 39, Type (0, 0), BuildingBlock: KIFKEQ_clean_linker_1, # of connection points: 2
#     Edge 40, Type (0, 0), BuildingBlock: KIFKEQ_clean_linker_1, # of connection points: 2
#     Edge 41, Type (0, 0), BuildingBlock: KIFKEQ_clean_linker_1, # of connection points: 2
#     Edge 42, Type (0, 0), BuildingBlock: KIFKEQ_clean_linker_1, # of connection points: 2
#     Edge 43, Type (0, 0), BuildingBlock: KIFKEQ_clean_linker_1, # of connection points: 2
#     Edge 44, Type (0, 0), BuildingBlock: KIFKEQ_clean_linker_1, # of connection points: 2
#     Edge 45, Type (0, 0), BuildingBlock: KIFKEQ_clean_linker_1, # of connection points: 2
#     Edge 46, Type (0, 0), BuildingBlock: KIFKEQ_clean_linker_1, # of connection points: 2
#     Edge 47, Type (0, 0), BuildingBlock: KIFKEQ_clean_linker_1, # of connection points: 2
#     Edge 48, Type (0, 0), BuildingBlock: KIFKEQ_clean_linker_1, # of connection points: 2
#     Edge 49, Type (0, 0), BuildingBlock: KIFKEQ_clean_linker_1, # of connection points: 2
#     Edge 50, Type (0, 0), BuildingBlock: KIFKEQ_clean_linker_1, # of connection points: 2
#     Edge 51, Type (0, 0), BuildingBlock: KIFKEQ_clean_linker_1, # of connection points: 2
#     Edge 52, Type (0, 0), BuildingBlock: KIFKEQ_clean_linker_1, # of connection points: 2
#     Edge 53, Type (0, 0), BuildingBlock: KIFKEQ_clean_linker_1, # of connection points: 2
#     Edge 54, Type (0, 0), BuildingBlock: KIFKEQ_clean_linker_1, # of connection points: 2
#     Edge 55, Type (0, 0), BuildingBlock: KIFKEQ_clean_linker_1, # of connection points: 2
#     Edge 56, Type (0, 0), BuildingBlock: KIFKEQ_clean_linker_1, # of connection points: 2
#     Edge 57, Type (0, 0), BuildingBlock: KIFKEQ_clean_linker_1, # of connection points: 2
#     Edge 58, Type (0, 0), BuildingBlock: KIFKEQ_clean_linker_1, # of connection points: 2
#     Edge 59, Type (0, 0), BuildingBlock: KIFKEQ_clean_linker_1, # of connection points: 2
#     Edge 60, Type (0, 0), BuildingBlock: KIFKEQ_clean_linker_1, # of connection points: 2
#     Edge 61, Type (0, 0), BuildingBlock: KIFKEQ_clean_linker_1, # of connection points: 2
#     Edge 62, Type (0, 0), BuildingBlock: KIFKEQ_clean_linker_1, # of connection points: 2
#     Edge 63, Type (0, 0), BuildingBlock: KIFKEQ_clean_linker_1, # of connection points: 2
#     Edge 64, Type (0, 0), BuildingBlock: KIFKEQ_clean_linker_1, # of connection points: 2
#     Edge 65, Type (0, 0), BuildingBlock: KIFKEQ_clean_linker_1, # of connection points: 2
#     Edge 66, Type (0, 0), BuildingBlock: KIFKEQ_clean_linker_1, # of connection points: 2
#     Edge 67, Type (0, 0), BuildingBlock: KIFKEQ_clean_linker_1, # of connection points: 2
#     Edge 68, Type (0, 0), BuildingBlock: KIFKEQ_clean_linker_1, # of connection points: 2
#     Edge 69, Type (0, 0), BuildingBlock: KIFKEQ_clean_linker_1, # of connection points: 2
#     Edge 70, Type (0, 0), BuildingBlock: KIFKEQ_clean_linker_1, # of connection points: 2
#     Edge 71, Type (0, 0), BuildingBlock: KIFKEQ_clean_linker_1, # of connection points: 2
#     Edge 72, Type (0, 0), BuildingBlock: KIFKEQ_clean_linker_1, # of connection points: 2
#     Edge 73, Type (0, 0), BuildingBlock: KIFKEQ_clean_linker_1, # of connection points: 2
#     Edge 74, Type (0, 0), BuildingBlock: KIFKEQ_clean_linker_1, # of connection points: 2
#     Edge 75, Type (0, 0), BuildingBlock: KIFKEQ_clean_linker_1, # of connection points: 2
#     Edge 76, Type (0, 0), BuildingBlock: KIFKEQ_clean_linker_1, # of connection points: 2
#     Edge 77, Type (0, 0), BuildingBlock: KIFKEQ_clean_linker_1, # of connection points: 2
#     Edge 78, Type (0, 0), BuildingBlock: KIFKEQ_clean_linker_1, # of connection points: 2
#     Edge 79, Type (0, 0), BuildingBlock: KIFKEQ_clean_linker_1, # of connection points: 2
#     Edge 80, Type (0, 0), BuildingBlock: KIFKEQ_clean_linker_1, # of connection points: 2
#     Edge 81, Type (0, 0), BuildingBlock: KIFKEQ_clean_linker_1, # of connection points: 2
#     Edge 82, Type (0, 0), BuildingBlock: KIFKEQ_clean_linker_1, # of connection points: 2
#     Edge 83, Type (0, 0), BuildingBlock: KIFKEQ_clean_linker_1, # of connection points: 2
#     Edge 84, Type (0, 0), BuildingBlock: KIFKEQ_clean_linker_1, # of connection points: 2
#     Edge 85, Type (0, 0), BuildingBlock: KIFKEQ_clean_linker_1, # of connection points: 2
#     Edge 86, Type (0, 0), BuildingBlock: KIFKEQ_clean_linker_1, # of connection points: 2
#     Edge 87, Type (0, 0), BuildingBlock: KIFKEQ_clean_linker_1, # of connection points: 2
#     Edge 88, Type (0, 0), BuildingBlock: KIFKEQ_clean_linker_1, # of connection points: 2
#     Edge 89, Type (0, 0), BuildingBlock: KIFKEQ_clean_linker_1, # of connection points: 2
#     Edge 90, Type (0, 0), BuildingBlock: KIFKEQ_clean_linker_1, # of connection points: 2
#     Edge 91, Type (0, 0), BuildingBlock: KIFKEQ_clean_linker_1, # of connection points: 2
#     Edge 92, Type (0, 0), BuildingBlock: KIFKEQ_clean_linker_1, # of connection points: 2
#     Edge 93, Type (0, 0), BuildingBlock: KIFKEQ_clean_linker_1, # of connection points: 2
#     Edge 94, Type (0, 0), BuildingBlock: KIFKEQ_clean_linker_1, # of connection points: 2
#     Edge 95, Type (0, 0), BuildingBlock: KIFKEQ_clean_linker_1, # of connection points: 2
#     Edge 96, Type (0, 0), BuildingBlock: KIFKEQ_clean_linker_1, # of connection points: 2
#     Edge 97, Type (0, 0), BuildingBlock: KIFKEQ_clean_linker_1, # of connection points: 2
#     Edge 98, Type (0, 0), BuildingBlock: KIFKEQ_clean_linker_1, # of connection points: 2
#     Edge 99, Type (0, 0), BuildingBlock: KIFKEQ_clean_linker_1, # of connection points: 2
#     Edge 100, Type (0, 0), BuildingBlock: KIFKEQ_clean_linker_1, # of connection points: 2
#     Edge 101, Type (0, 0), BuildingBlock: KIFKEQ_clean_linker_1, # of connection points: 2
#     Edge 102, Type (0, 0), BuildingBlock: KIFKEQ_clean_linker_1, # of connection points: 2
#     Edge 103, Type (0, 0), BuildingBlock: KIFKEQ_clean_linker_1, # of connection points: 2
#     Edge 104, Type (0, 0), BuildingBlock: KIFKEQ_clean_linker_1, # of connection points: 2
#     Edge 105, Type (0, 0), BuildingBlock: KIFKEQ_clean_linker_1, # of connection points: 2
#     Edge 106, Type (0, 0), BuildingBlock: KIFKEQ_clean_linker_1, # of connection points: 2
#     Edge 107, Type (0, 0), BuildingBlock: KIFKEQ_clean_linker_1, # of connection points: 2
#     Edge 108, Type (0, 0), BuildingBlock: KIFKEQ_clean_linker_1, # of connection points: 2
#     Edge 109, Type (0, 0), BuildingBlock: KIFKEQ_clean_linker_1, # of connection points: 2
#     Edge 110, Type (0, 0), BuildingBlock: KIFKEQ_clean_linker_1, # of connection points: 2
#     Edge 111, Type (0, 0), BuildingBlock: KIFKEQ_clean_linker_1, # of connection points: 2
# Relax obj value: 0.280
# Max RMSD: 0.174
# Mean RMSD: 0.174
data_MOF--net-wgo--node1-BEQFEK_clean_sbu_0--edge1-KIFKEQ_clean_linker_1
_symmetry_space_group_name_H-M    P1
_symmetry_Int_Tables_number       1
_symmetry_cell_setting            triclinic
loop_
_symmetry_equiv_pos_as_xyz
'x, y, z'
_cell_length_a     36.173371
_cell_length_b     36.172146
_cell_length_c     107.52212
_cell_angle_alpha  89.996554
_cell_angle_beta   89.974427
_cell_angle_gamma 89.998458
loop_
_atom_site_label
_atom_site_type_symbol
_atom_site_fract_x
_atom_site_fract_y
_atom_site_fract_z
_atom_type_partial_charge
Co0 Co 0.47723 0.02902 0.09313 0.0
Co1 Co 0.40169 0.06076 0.08433 0.0
C2 C 0.45248 0.02883 0.06595 0.0
O3 O 0.47515 0.02511 0.07486 0.0
O4 O 0.41976 0.04063 0.06793 0.0
C5 C 0.52795 0.97149 0.09096 0.0
O6 O 0.50244 0.95974 0.08322 0.0
C7 C 0.32175 0.0689 0.07886 0.0
C8 C 0.31191 0.12405 0.08709 0.0
C9 C 0.29404 0.09408 0.08183 0.0
N10 N 0.35429 0.08318 0.08253 0.0
N11 N 0.34822 0.11655 0.0871 0.0
C12 C 0.31721 0.03047 0.07396 0.0
H13 H 0.34258 0.01394 0.07565 0.0
H14 H 0.29293 0.01682 0.07829 0.0
H15 H 0.31224 0.03185 0.06378 0.0
C16 C 0.42868 0.98632 0.11022 0.0
N17 N 0.43365 0.01033 0.10077 0.0
N18 N 0.40154 0.02454 0.09753 0.0
C19 C 0.37522 0.01074 0.10518 0.0
C20 C 0.39137 0.98561 0.11335 0.0
C21 C 0.4593 0.96441 0.11599 0.0
H22 H 0.47866 0.9835 0.12077 0.0
H23 H 0.47493 0.94992 0.10859 0.0
H24 H 0.44886 0.94355 0.12267 0.0
O25 O 0.48558 0.08171 0.09745 0.0
O26 O 0.4336 0.10278 0.08922 0.0
H27 H 0.32458 0.02034 0.11538 0.0
H28 H 0.31894 0.00995 0.09918 0.0
C29 C 0.3364 0.0249 0.10598 0.0
H30 H 0.33563 0.05487 0.10397 0.0
H31 H 0.36857 0.13334 0.091 0.0
O32 O 0.52164 0.00016 0.09747 0.0
C33 C 0.46453 0.10852 0.0945 0.0
Co34 Co 0.20758 0.22245 0.34396 0.0
Co35 Co 0.17921 0.14652 0.33467 0.0
C36 C 0.21378 0.19862 0.31693 0.0
O37 O 0.21737 0.22121 0.32589 0.0
O38 O 0.19975 0.16669 0.31868 0.0
C39 C 0.26423 0.27477 0.34497 0.0
O40 O 0.28227 0.24855 0.33907 0.0
C41 C 0.17611 0.06831 0.32697 0.0
C42 C 0.1266 0.05027 0.33738 0.0
C43 C 0.15543 0.03726 0.33013 0.0
N44 N 0.16082 0.09785 0.33253 0.0
N45 N 0.13068 0.08701 0.33843 0.0
C46 C 0.20923 0.07038 0.31862 0.0
H47 H 0.23469 0.07366 0.32424 0.0
H48 H 0.21163 0.0452 0.31278 0.0
H49 H 0.20698 0.09502 0.31253 0.0
C50 C 0.2491 0.17508 0.36178 0.0
N51 N 0.22633 0.17977 0.35197 0.0
N52 N 0.21417 0.14734 0.34822 0.0
C53 C 0.22846 0.12095 0.35573 0.0
C54 C 0.2513 0.13763 0.3645 0.0
C55 C 0.26625 0.20613 0.36893 0.0
H56 H 0.24647 0.22945 0.36969 0.0
H57 H 0.29103 0.21606 0.36384 0.0
H58 H 0.27476 0.1971 0.37837 0.0
O59 O 0.15372 0.22845 0.34696 0.0
O60 O 0.13469 0.17511 0.3392 0.0
H61 H 0.18987 0.07613 0.35532 0.0
H62 H 0.23412 0.06406 0.36197 0.0
C63 C 0.22013 0.08054 0.35467 0.0
H64 H 0.22971 0.07036 0.34554 0.0
H65 H 0.11401 0.10438 0.34378 0.0
O66 O 0.23223 0.26795 0.34926 0.0
C67 C 0.12774 0.20627 0.34412 0.0
Co68 Co 0.02046 0.96045 0.59372 0.0
Co69 Co 0.09729 0.93124 0.58512 0.0
C70 C 0.04775 0.96525 0.56675 0.0
O71 O 0.02452 0.96863 0.57555 0.0
O72 O 0.07979 0.95167 0.56874 0.0
C73 C 0.97043 0.01884 0.59311 0.0
O74 O 0.99782 0.03382 0.58686 0.0
C75 C 0.17761 0.92239 0.57969 0.0
C76 C 0.1883 0.87223 0.59088 0.0
C77 C 0.20575 0.89953 0.58404 0.0
N78 N 0.14528 0.90964 0.58416 0.0
N79 N 0.15189 0.87902 0.59049 0.0
C80 C 0.18155 0.95762 0.57252 0.0
H81 H 0.1879 0.9509 0.56268 0.0
H82 H 0.15551 0.97383 0.57285 0.0
H83 H 0.20482 0.97431 0.57622 0.0
C84 C 0.06664 0.00089 0.61209 0.0
N85 N 0.06272 0.97849 0.60215 0.0
N86 N 0.09545 0.96671 0.59854 0.0
C87 C 0.12129 0.98123 0.60621 0.0
C88 C 0.10394 0.00343 0.61504 0.0
C89 C 0.03496 0.01734 0.61911 0.0
H90 H 0.01153 0.99758 0.61938 0.0
H91 H 0.02557 0.04269 0.61423 0.0
H92 H 0.04309 0.02477 0.62874 0.0
O93 O 0.01272 0.90705 0.59702 0.0
O94 O 0.06622 0.88805 0.58939 0.0
H95 H 0.1678 0.94467 0.6058 0.0
H96 H 0.17826 0.98992 0.612 0.0
C97 C 0.16195 0.97465 0.60497 0.0
H98 H 0.17101 0.98425 0.59571 0.0
H99 H 0.13181 0.86407 0.5953 0.0
O100 O 0.97527 0.98753 0.59821 0.0
C101 C 0.03487 0.88106 0.59418 0.0
Co102 Co 0.28888 0.77238 0.84336 0.0
Co103 Co 0.31442 0.84912 0.83371 0.0
C104 C 0.28352 0.79516 0.81607 0.0
O105 O 0.28197 0.77258 0.8251 0.0
O106 O 0.29408 0.82837 0.81781 0.0
C107 C 0.23171 0.72248 0.84312 0.0
O108 O 0.21768 0.74959 0.8365 0.0
C109 C 0.31338 0.92752 0.82637 0.0
C110 C 0.3677 0.94611 0.83328 0.0
C111 C 0.33534 0.95865 0.82789 0.0
N112 N 0.33168 0.89812 0.83085 0.0
N113 N 0.36458 0.9093 0.83465 0.0
C114 C 0.27547 0.92573 0.82082 0.0
H115 H 0.27798 0.92681 0.81055 0.0
H116 H 0.26155 0.89949 0.82342 0.0
H117 H 0.25853 0.94977 0.82375 0.0
C118 C 0.24586 0.81871 0.86101 0.0
N119 N 0.26844 0.8148 0.8511 0.0
N120 N 0.27941 0.84761 0.84729 0.0
C121 C 0.26438 0.87344 0.85486 0.0
C122 C 0.2424 0.85606 0.86374 0.0
C123 C 0.2304 0.78706 0.8683 0.0
H124 H 0.25132 0.76476 0.86907 0.0
H125 H 0.20603 0.77578 0.86332 0.0
H126 H 0.22169 0.79588 0.87774 0.0
O127 O 0.34232 0.76822 0.84699 0.0
O128 O 0.35967 0.82136 0.83853 0.0
H129 H 0.30036 0.91982 0.85234 0.0
H130 H 0.2599 0.93005 0.86154 0.0
C131 C 0.27049 0.91407 0.85352 0.0
H132 H 0.25537 0.92368 0.8452 0.0
H133 H 0.38415 0.89215 0.83883 0.0
O134 O 0.26282 0.72711 0.84838 0.0
C135 C 0.36757 0.79098 0.84389 0.0
Co136 Co 0.47448 0.96211 0.45385 0.0
Co137 Co 0.39866 0.93008 0.46239 0.0
C138 C 0.44823 0.96467 0.4808 0.0
O139 O 0.4713 0.96901 0.47202 0.0
O140 O 0.4165 0.95055 0.47873 0.0
C141 C 0.52555 0.01967 0.45528 0.0
O142 O 0.49957 0.03305 0.46253 0.0
C143 C 0.31881 0.92374 0.46784 0.0
C144 C 0.30751 0.86883 0.45965 0.0
C145 C 0.29046 0.89934 0.46487 0.0
N146 N 0.35096 0.90852 0.46421 0.0
N147 N 0.34403 0.87528 0.45967 0.0
C148 C 0.3153 0.96239 0.47265 0.0
H149 H 0.34109 0.97821 0.47089 0.0
H150 H 0.29137 0.97659 0.4683 0.0
H151 H 0.31036 0.96137 0.48283 0.0
C152 C 0.42637 0.00389 0.4363 0.0
N153 N 0.43123 0.98 0.4458 0.0
N154 N 0.39908 0.96577 0.449 0.0
C155 C 0.37289 0.97938 0.44127 0.0
C156 C 0.3891 0.00448 0.43312 0.0
C157 C 0.45699 0.02609 0.43065 0.0
H158 H 0.47737 0.00713 0.42631 0.0
H159 H 0.47143 0.04165 0.43807 0.0
H160 H 0.44676 0.04608 0.42364 0.0
O161 O 0.48294 0.90869 0.45023 0.0
O162 O 0.43004 0.88772 0.45779 0.0
H163 H 0.32239 0.96968 0.43103 0.0
H164 H 0.31651 0.98017 0.44721 0.0
C165 C 0.33408 0.9652 0.44045 0.0
H166 H 0.33331 0.93523 0.44247 0.0
H167 H 0.36396 0.85793 0.4558 0.0
O168 O 0.51934 0.99005 0.44925 0.0
C169 C 0.46152 0.88191 0.45292 0.0
Co170 Co 0.28204 0.22429 0.70413 0.0
Co171 Co 0.31071 0.14836 0.7136 0.0
C172 C 0.27788 0.20072 0.73142 0.0
O173 O 0.27414 0.22301 0.72237 0.0
O174 O 0.29127 0.16847 0.72973 0.0
C175 C 0.22386 0.27423 0.70397 0.0
O176 O 0.2087 0.24721 0.71036 0.0
C177 C 0.31734 0.07001 0.72145 0.0
C178 C 0.36464 0.05318 0.70973 0.0
C179 C 0.33823 0.03952 0.71783 0.0
N180 N 0.3302 0.09986 0.71539 0.0
N181 N 0.35907 0.08972 0.70867 0.0
C182 C 0.28638 0.07115 0.7307 0.0
H183 H 0.25943 0.0724 0.72583 0.0
H184 H 0.28686 0.04639 0.7368 0.0
H185 H 0.28873 0.09646 0.73648 0.0
C186 C 0.24054 0.17634 0.68653 0.0
N187 N 0.26314 0.18129 0.69636 0.0
N188 N 0.2747 0.14894 0.70039 0.0
C189 C 0.25976 0.12227 0.69314 0.0
C190 C 0.23756 0.13871 0.68412 0.0
C191 C 0.22465 0.20729 0.67901 0.0
H192 H 0.2445 0.23063 0.67858 0.0
H193 H 0.199 0.21725 0.68357 0.0
H194 H 0.21782 0.19812 0.66943 0.0
O195 O 0.33549 0.23061 0.70059 0.0
O196 O 0.35455 0.17759 0.70862 0.0
H197 H 0.29588 0.07546 0.69283 0.0
H198 H 0.24854 0.06467 0.6888 0.0
C199 C 0.26649 0.08177 0.69485 0.0
H200 H 0.26068 0.07414 0.70459 0.0
H201 H 0.3738 0.10742 0.70283 0.0
O202 O 0.25541 0.26914 0.69906 0.0
C203 C 0.36147 0.20844 0.70345 0.0
Co204 Co 0.02008 0.03718 0.95222 0.0
Co205 Co 0.09685 0.06539 0.9612 0.0
C206 C 0.04616 0.03392 0.97945 0.0
O207 O 0.02329 0.03148 0.97051 0.0
O208 O 0.07915 0.04512 0.97755 0.0
C209 C 0.96995 0.97915 0.95367 0.0
O210 O 0.99644 0.96618 0.9608 0.0
C211 C 0.17703 0.07485 0.96688 0.0
C212 C 0.18794 0.12414 0.9553 0.0
C213 C 0.20525 0.09748 0.96245 0.0
N214 N 0.14482 0.08707 0.96216 0.0
N215 N 0.15155 0.11721 0.95559 0.0
C216 C 0.18081 0.04032 0.97445 0.0
H217 H 0.18702 0.04797 0.98422 0.0
H218 H 0.15475 0.02412 0.97427 0.0
H219 H 0.2041 0.02325 0.97096 0.0
C220 C 0.06687 0.99539 0.93431 0.0
N221 N 0.06265 0.0182 0.94413 0.0
N222 N 0.09532 0.02953 0.94794 0.0
C223 C 0.12144 0.0142 0.94056 0.0
C224 C 0.10434 0.99204 0.93166 0.0
C225 C 0.03536 0.97927 0.92712 0.0
H226 H 0.01217 -0.0007 0.92672 0.0
H227 H 0.02543 0.95406 0.93196 0.0
H228 H 0.04391 0.97171 0.91754 0.0
O229 O 0.0128 0.0902 0.94844 0.0
O230 O 0.06557 0.10861 0.9568 0.0
H231 H 0.16898 0.04938 0.94102 0.0
H232 H 0.17873 0.00303 0.93564 0.0
C233 C 0.16212 0.01973 0.94222 0.0
H234 H 0.16981 0.01112 0.95172 0.0
H235 H 0.13158 0.1317 0.95057 0.0
O236 O 0.97514 0.00929 0.94784 0.0
C237 C 0.03476 0.11596 0.95166 0.0
Co238 Co 0.21305 0.76954 0.20375 0.0
Co239 Co 0.18257 0.84573 0.21238 0.0
C240 C 0.21614 0.79535 0.23076 0.0
O241 O 0.2204 0.77232 0.22195 0.0
O242 O 0.20227 0.82718 0.22871 0.0
C243 C 0.27133 0.71991 0.20453 0.0
O244 O 0.28497 0.74674 0.21137 0.0
C245 C 0.17666 0.92433 0.21953 0.0
C246 C 0.12751 0.94048 0.2086 0.0
C247 C 0.15525 0.95458 0.21608 0.0
N248 N 0.16279 0.89413 0.21396 0.0
N249 N 0.13289 0.90385 0.20771 0.0
C250 C 0.20915 0.92369 0.22817 0.0
H251 H 0.23515 0.92117 0.22279 0.0
H252 H 0.21021 0.94914 0.23393 0.0
H253 H 0.20729 0.89918 0.23434 0.0
C254 C 0.25437 0.81682 0.18591 0.0
N255 N 0.23138 0.81234 0.19567 0.0
N256 N 0.21849 0.84476 0.19915 0.0
C257 C 0.23255 0.87093 0.1915 0.0
C258 C 0.25594 0.85413 0.18291 0.0
C259 C 0.27215 0.78557 0.17903 0.0
H260 H 0.25233 0.76234 0.1781 0.0
H261 H 0.29627 0.77558 0.18444 0.0
H262 H 0.28169 0.79431 0.16967 0.0
O263 O 0.15964 0.76206 0.20024 0.0
O264 O 0.13934 0.81549 0.20764 0.0
H265 H 0.23799 0.92764 0.18506 0.0
H266 H 0.23142 0.92198 0.20144 0.0
C267 C 0.22332 0.91122 0.19222 0.0
H268 H 0.19309 0.915 0.1911 0.0
H269 H 0.11721 0.88577 0.2023 0.0
O270 O 0.24065 0.72481 0.19901 0.0
C271 C 0.13317 0.78399 0.20282 0.0
Co272 Co 0.51982 0.95979 0.95291 0.0
Co273 Co 0.59698 0.93064 0.96131 0.0
C274 C 0.54778 0.96423 0.97981 0.0
O275 O 0.52437 0.96755 0.97107 0.0
O276 O 0.57987 0.95088 0.97774 0.0
C277 C 0.46971 0.01805 0.95397 0.0
O278 O 0.49656 0.03201 0.96073 0.0
C279 C 0.67736 0.92172 0.96664 0.0
C280 C 0.68823 0.87227 0.95512 0.0
C281 C 0.70559 0.89918 0.96216 0.0
N282 N 0.64508 0.90917 0.96207 0.0
N283 N 0.6518 0.87897 0.95553 0.0
C284 C 0.68114 0.95649 0.97407 0.0
H285 H 0.65503 0.97261 0.97387 0.0
H286 H 0.70433 0.97353 0.97048 0.0
H287 H 0.68749 0.94917 0.98386 0.0
C288 C 0.56571 0.00093 0.93462 0.0
N289 N 0.56194 0.978 0.94443 0.0
N290 N 0.59476 0.96637 0.94799 0.0
C291 C 0.62052 0.98158 0.94043 0.0
C292 C 0.60301 0.00404 0.93171 0.0
C293 C 0.5339 0.01761 0.92773 0.0
H294 H 0.51059 0.99772 0.92734 0.0
H295 H 0.52438 0.04261 0.93278 0.0
H296 H 0.54196 0.02564 0.91814 0.0
O297 O 0.51201 0.90643 0.9496 0.0
O298 O 0.56567 0.8875 0.95713 0.0
H299 H 0.66774 0.94594 0.94069 0.0
H300 H 0.67753 0.99188 0.93495 0.0
C301 C 0.66126 0.97571 0.94177 0.0
H302 H 0.66977 0.98471 0.95115 0.0
H303 H 0.63174 0.86425 0.95063 0.0
O304 O 0.47469 0.98727 0.94852 0.0
C305 C 0.5342 0.88047 0.95244 0.0
Co306 Co 0.78548 0.77087 0.70315 0.0
Co307 Co 0.81536 0.84718 0.71195 0.0
C308 C 0.78356 0.796 0.73027 0.0
O309 O 0.78065 0.77308 0.72139 0.0
O310 O 0.79492 0.82886 0.72827 0.0
C311 C 0.7285 0.7197 0.70507 0.0
O312 O 0.71619 0.74549 0.71261 0.0
C313 C 0.82047 0.92719 0.71741 0.0
C314 C 0.87518 0.93927 0.70919 0.0
C315 C 0.8444 0.95591 0.7144 0.0
N316 N 0.83617 0.89524 0.71381 0.0
N317 N 0.8693 0.90265 0.70926 0.0
C318 C 0.7818 0.93016 0.72226 0.0
H319 H 0.76633 0.90416 0.72052 0.0
H320 H 0.76725 0.95391 0.71793 0.0
H321 H 0.78283 0.93509 0.73244 0.0
C322 C 0.74203 0.81841 0.68592 0.0
N323 N 0.76612 0.81396 0.69538 0.0
N324 N 0.77964 0.84636 0.69862 0.0
C325 C 0.76536 0.87237 0.69095 0.0
C326 C 0.74056 0.8557 0.68279 0.0
C327 C 0.72059 0.78735 0.68022 0.0
H328 H 0.74004 0.76758 0.6758 0.0
H329 H 0.70547 0.77234 0.68762 0.0
H330 H 0.70027 0.79721 0.67326 0.0
O331 O 0.8386 0.76373 0.6991 0.0
O332 O 0.85839 0.8163 0.70729 0.0
H333 H 0.774 0.9231 0.68072 0.0
H334 H 0.76335 0.92869 0.6969 0.0
C335 C 0.77872 0.91147 0.69014 0.0
H336 H 0.80865 0.91286 0.69216 0.0
H337 H 0.88695 0.88295 0.7054 0.0
O338 O 0.75756 0.72586 0.69872 0.0
C339 C 0.8649 0.78537 0.7021 0.0
Co340 Co 0.97674 0.03465 0.45355 0.0
Co341 Co 0.90004 0.06264 0.46264 0.0
C342 C 0.95109 0.03129 0.48084 0.0
O343 O 0.97386 0.02896 0.47186 0.0
O344 O 0.91803 0.04236 0.47898 0.0
C345 C 0.0263 0.97646 0.45483 0.0
O346 O -0.00044 0.96361 0.46188 0.0
C347 C 0.81975 0.07175 0.46827 0.0
C348 C 0.80891 0.1214 0.45685 0.0
C349 C 0.79154 0.09444 0.46386 0.0
N350 N 0.85202 0.08423 0.46365 0.0
N351 N 0.84532 0.11457 0.45718 0.0
C352 C 0.81594 0.03697 0.4757 0.0
H353 H 0.8097 0.04429 0.48549 0.0
H354 H 0.842 0.02077 0.47545 0.0
H355 H 0.79264 0.02003 0.47214 0.0
C356 C 0.9301 0.99287 0.43569 0.0
N357 N 0.93421 0.01557 0.44554 0.0
N358 N 0.90152 0.02685 0.44934 0.0
C359 C 0.87547 0.01162 0.44191 0.0
C360 C 0.89268 0.98955 0.43301 0.0
C361 C 0.96168 0.97698 0.42846 0.0
H362 H 0.98466 0.99724 0.428 0.0
H363 H 0.97192 0.95192 0.43332 0.0
H364 H 0.95311 0.96923 0.4189 0.0
O365 O 0.98385 0.08759 0.44972 0.0
O366 O 0.93117 0.10597 0.45816 0.0
H367 H 0.82817 0.04712 0.44245 0.0
H368 H 0.81829 0.00121 0.4367 0.0
C369 C 0.83478 0.01735 0.44346 0.0
H370 H 0.8267 0.0082 0.45287 0.0
H371 H 0.86533 0.12928 0.45226 0.0
O372 O 0.02153 0.00677 0.44907 0.0
C373 C 0.96188 0.11332 0.45295 0.0
Co374 Co 0.70605 0.22534 0.20227 0.0
Co375 Co 0.67954 0.14827 0.21143 0.0
C376 C 0.7107 0.20092 0.22941 0.0
O377 O 0.71252 0.22388 0.2205 0.0
O378 O 0.69995 0.16785 0.2275 0.0
C379 C 0.76332 0.27522 0.20313 0.0
O380 O 0.77705 0.24781 0.20969 0.0
C381 C 0.6791 0.06929 0.21824 0.0
C382 C 0.62486 0.0521 0.21087 0.0
C383 C 0.65664 0.0387 0.21641 0.0
N384 N 0.66154 0.09931 0.21387 0.0
N385 N 0.62868 0.08894 0.20979 0.0
C386 C 0.71708 0.06976 0.22374 0.0
H387 H 0.71471 0.06727 0.234 0.0
H388 H 0.73141 0.09608 0.22151 0.0
H389 H 0.73348 0.04581 0.22039 0.0
C390 C 0.74897 0.1795 0.1845 0.0
N391 N 0.72614 0.18309 0.19434 0.0
N392 N 0.71471 0.1502 0.19791 0.0
C393 C 0.72961 0.12462 0.19022 0.0
C394 C 0.75207 0.14228 0.18153 0.0
C395 C 0.76505 0.2114 0.17748 0.0
H396 H 0.74439 0.23395 0.17676 0.0
H397 H 0.78931 0.22215 0.18266 0.0
H398 H 0.77406 0.20305 0.16803 0.0
O399 O 0.65274 0.23035 0.19862 0.0
O400 O 0.63473 0.177 0.20678 0.0
H401 H 0.69254 0.07888 0.19217 0.0
H402 H 0.73315 0.06841 0.18308 0.0
C403 C 0.72259 0.08401 0.19118 0.0
H404 H 0.73706 0.0733 0.19948 0.0
H405 H 0.60965 0.10667 0.2056 0.0
O406 O 0.73256 0.27076 0.19762 0.0
C407 C 0.62722 0.20776 0.2016 0.0
Co408 Co 0.52018 0.03557 0.59397 0.0
Co409 Co 0.59635 0.06346 0.58446 0.0
C410 C 0.54356 0.03168 0.56668 0.0
O411 O 0.52106 0.02928 0.57571 0.0
O412 O 0.57652 0.04306 0.56841 0.0
C413 C 0.47017 0.97787 0.59333 0.0
O414 O 0.49674 0.96435 0.58635 0.0
C415 C 0.67474 0.06785 0.57681 0.0
C416 C 0.69204 0.1172 0.58743 0.0
C417 C 0.70547 0.08893 0.58002 0.0
N418 N 0.64496 0.08241 0.58245 0.0
N419 N 0.65538 0.11244 0.58851 0.0
C420 C 0.67322 0.03511 0.56828 0.0
H421 H 0.67081 0.00929 0.57376 0.0
H422 H 0.69829 0.03364 0.56235 0.0
H423 H 0.64834 0.03702 0.56229 0.0
C424 C 0.56792 0.99302 0.61135 0.0
N425 N 0.56321 0.01597 0.60159 0.0
N426 N 0.59565 0.02806 0.59781 0.0
C427 C 0.62206 0.01357 0.60527 0.0
C428 C 0.60539 0.99067 0.61403 0.0
C429 C 0.53682 0.97609 0.61854 0.0
H430 H 0.51416 0.99649 0.61966 0.0
H431 H 0.52579 0.95217 0.61325 0.0
H432 H 0.5461 0.96641 0.62782 0.0
O433 O 0.51434 0.0889 0.59772 0.0
O434 O 0.56702 0.10754 0.58927 0.0
H435 H 0.67897 0.00766 0.61144 0.0
H436 H 0.67262 0.01312 0.59505 0.0
C437 C 0.66244 0.02207 0.60425 0.0
H438 H 0.66678 0.0523 0.60511 0.0
H439 H 0.63777 0.12861 0.59394 0.0
O440 O 0.47534 0.00844 0.5989 0.0
C441 C 0.53643 0.11471 0.5946 0.0
Co442 Co 0.71561 0.76875 0.34335 0.0
Co443 Co 0.68478 0.84507 0.33486 0.0
C444 C 0.71933 0.79632 0.31638 0.0
O445 O 0.72345 0.77314 0.32517 0.0
O446 O 0.70514 0.82808 0.31842 0.0
C447 C 0.77467 0.71912 0.34267 0.0
O448 O 0.78944 0.7463 0.33626 0.0
C449 C 0.67344 0.92521 0.32946 0.0
C450 C 0.62366 0.93451 0.34098 0.0
C451 C 0.64994 0.9527 0.33392 0.0
N452 N 0.662 0.89257 0.33408 0.0
N453 N 0.63161 0.89833 0.34062 0.0
C454 C 0.70804 0.93009 0.32201 0.0
H455 H 0.72494 0.90448 0.32219 0.0
H456 H 0.72437 0.95377 0.3256 0.0
H457 H 0.70048 0.93628 0.31223 0.0
C458 C 0.75555 0.8157 0.36164 0.0
N459 N 0.7329 0.81131 0.35179 0.0
N460 N 0.72058 0.84382 0.34817 0.0
C461 C 0.73506 0.86999 0.35572 0.0
C462 C 0.75774 0.85309 0.36451 0.0
C463 C 0.77273 0.78434 0.36863 0.0
H464 H 0.75345 0.76052 0.36892 0.0
H465 H 0.79821 0.77549 0.36372 0.0
H466 H 0.78009 0.79263 0.37825 0.0
O467 O 0.66243 0.75971 0.34665 0.0
O468 O 0.64239 0.81291 0.33911 0.0
H469 H 0.69831 0.91635 0.35547 0.0
H470 H 0.74415 0.92729 0.36107 0.0
C471 C 0.72821 0.91056 0.35432 0.0
H472 H 0.73677 0.91915 0.3449 0.0
H473 H 0.61758 0.87786 0.34556 0.0
O474 O 0.74343 0.72405 0.34782 0.0
C475 C 0.63601 0.78133 0.34381 0.0
Co476 Co 0.97773 0.96752 0.09272 0.0
Co477 Co 0.90174 0.93606 0.0841 0.0
C478 C 0.95051 0.97024 0.06565 0.0
O479 O 0.97353 0.97451 0.07447 0.0
O480 O 0.91869 0.95618 0.06766 0.0
C481 C 0.02718 0.02647 0.09156 0.0
O482 O 0.00083 0.03963 0.08441 0.0
C483 C 0.82185 0.92342 0.07861 0.0
C484 C 0.813 0.87413 0.09039 0.0
C485 C 0.79458 0.89979 0.08314 0.0
N486 N 0.85455 0.91268 0.08336 0.0
N487 N 0.84906 0.88256 0.09007 0.0
C488 C 0.81672 0.9575 0.07091 0.0
H489 H 0.81065 0.9493 0.06118 0.0
H490 H 0.84218 0.97464 0.07098 0.0
H491 H 0.7929 0.97387 0.07438 0.0
C492 C 0.93004 0.0073 0.11085 0.0
N493 N 0.93482 0.98462 0.10102 0.0
N494 N 0.90247 0.9722 0.09729 0.0
C495 C 0.87599 0.98673 0.1047 0.0
C496 C 0.89253 0.00944 0.11356 0.0
C497 C 0.96116 0.02448 0.11795 0.0
H498 H 0.98498 0.00521 0.11832 0.0
H499 H 0.97017 0.04997 0.11307 0.0
H500 H 0.95257 0.03181 0.12755 0.0
O501 O 0.98715 0.91458 0.09623 0.0
O502 O 0.9343 0.89418 0.08852 0.0
H503 H 0.8294 0.95029 0.1045 0.0
H504 H 0.81842 0.99675 0.10951 0.0
C505 C 0.83548 0.98003 0.10307 0.0
H506 H 0.82762 0.98774 0.0935 0.0
H507 H 0.86962 0.86908 0.09514 0.0
O508 O 0.02196 0.99615 0.09727 0.0
C509 C 0.96575 0.88803 0.09335 0.0
Co510 Co 0.7798 0.22951 0.84327 0.0
Co511 Co 0.80944 0.15338 0.83419 0.0
C512 C 0.77686 0.20359 0.81601 0.0
O513 O 0.77403 0.22639 0.82496 0.0
O514 O 0.7887 0.1708 0.81789 0.0
C515 C 0.72128 0.27907 0.84196 0.0
O516 O 0.70866 0.25287 0.83464 0.0
C517 C 0.8209 0.07336 0.82858 0.0
C518 C 0.87086 0.06404 0.83998 0.0
C519 C 0.84449 0.04585 0.83296 0.0
N520 N 0.83234 0.10597 0.83321 0.0
N521 N 0.86286 0.10019 0.83968 0.0
C522 C 0.78628 0.06851 0.82114 0.0
H523 H 0.79383 0.06235 0.81135 0.0
H524 H 0.76939 0.09413 0.82133 0.0
H525 H 0.76995 0.04482 0.82472 0.0
C526 C 0.73912 0.18188 0.86116 0.0
N527 N 0.76175 0.18655 0.85132 0.0
N528 N 0.77373 0.15412 0.8475 0.0
C529 C 0.75907 0.1277 0.85491 0.0
C530 C 0.73662 0.14436 0.86382 0.0
C531 C 0.72242 0.21307 0.86837 0.0
H532 H 0.7422 0.23644 0.86891 0.0
H533 H 0.6973 0.22286 0.86345 0.0
H534 H 0.7146 0.20426 0.8779 0.0
O535 O 0.83261 0.23789 0.84701 0.0
O536 O 0.85193 0.18555 0.83859 0.0
H537 H 0.79547 0.08109 0.85435 0.0
H538 H 0.74966 0.07024 0.86 0.0
C539 C 0.7656 0.08715 0.8533 0.0
H540 H 0.75676 0.07906 0.84386 0.0
H541 H 0.87691 0.12062 0.84462 0.0
O542 O 0.75131 0.27382 0.84783 0.0
C543 C 0.85873 0.21645 0.84374 0.0
Co544 Co 0.9768 0.53343 0.59363 0.0
Co545 Co 0.90071 0.56264 0.58447 0.0
C546 C 0.95234 0.53044 0.56642 0.0
O547 O 0.975 0.52783 0.57539 0.0
O548 O 0.91941 0.54183 0.56827 0.0
C549 C 0.02781 0.4762 0.59226 0.0
O550 O 0.00128 0.46244 0.58531 0.0
C551 C 0.8207 0.56891 0.57887 0.0
C552 C 0.80961 0.62385 0.58707 0.0
C553 C 0.79244 0.59342 0.58185 0.0
N554 N 0.85291 0.58396 0.58251 0.0
N555 N 0.84609 0.61724 0.58704 0.0
C556 C 0.817 0.53036 0.57398 0.0
H557 H 0.84274 0.5144 0.57568 0.0
H558 H 0.79302 0.5162 0.57832 0.0
H559 H 0.81198 0.53159 0.56381 0.0
C560 C 0.929 0.49023 0.61088 0.0
N561 N 0.93364 0.51414 0.60138 0.0
N562 N 0.90124 0.52722 0.59792 0.0
C563 C 0.87502 0.51271 0.60546 0.0
C564 C 0.89156 0.4883 0.61377 0.0
C565 C 0.96003 0.46929 0.61681 0.0
H566 H 0.98051 0.4891 0.62062 0.0
H567 H 0.97419 0.45249 0.60963 0.0
H568 H 0.95031 0.45051 0.62426 0.0
O569 O 0.98383 0.58665 0.59752 0.0
O570 O 0.9315 0.60574 0.58904 0.0
H571 H 0.83379 0.5552 0.60389 0.0
H572 H 0.8234 0.52038 0.61527 0.0
C573 C 0.83562 0.5253 0.60595 0.0
H574 H 0.81923 0.50955 0.59906 0.0
H575 H 0.86603 0.63451 0.59094 0.0
O576 O 0.02193 0.50609 0.59817 0.0
C577 C 0.96217 0.61269 0.59431 0.0
Co578 Co 0.71544 0.72867 0.84344 0.0
Co579 Co 0.68302 0.65295 0.83499 0.0
C580 C 0.71798 0.70209 0.81652 0.0
O581 O 0.72239 0.72521 0.82527 0.0
O582 O 0.70373 0.67043 0.81862 0.0
C583 C 0.77339 0.77925 0.84196 0.0
O584 O 0.7866 0.75318 0.8347 0.0
C585 C 0.67533 0.57303 0.82965 0.0
C586 C 0.62032 0.56282 0.83795 0.0
C587 C 0.6504 0.54516 0.83267 0.0
N588 N 0.66081 0.60549 0.8333 0.0
N589 N 0.62752 0.5992 0.83791 0.0
C590 C 0.71381 0.56876 0.82476 0.0
H591 H 0.73014 0.59427 0.82644 0.0
H592 H 0.72764 0.54462 0.82911 0.0
H593 H 0.71251 0.56373 0.81459 0.0
C594 C 0.75664 0.68054 0.86113 0.0
N595 N 0.7329 0.6854 0.85159 0.0
N596 N 0.71862 0.65327 0.8484 0.0
C597 C 0.7321 0.62707 0.85616 0.0
C598 C 0.75711 0.64329 0.86435 0.0
C599 C 0.7789 0.71114 0.86676 0.0
H600 H 0.75997 0.73172 0.871 0.0
H601 H 0.79471 0.72533 0.85933 0.0
H602 H 0.79868 0.70094 0.87383 0.0
O603 O 0.6621 0.7378 0.84697 0.0
O604 O 0.64095 0.68493 0.83946 0.0
H605 H 0.72262 0.57635 0.86632 0.0
H606 H 0.73292 0.57084 0.8501 0.0
C607 C 0.71801 0.58823 0.85693 0.0
H608 H 0.68802 0.58745 0.85495 0.0
H609 H 0.61063 0.61946 0.84181 0.0
O610 O 0.74373 0.77326 0.84799 0.0
C611 C 0.63523 0.71654 0.84424 0.0
Co612 Co 0.52267 0.45456 0.09418 0.0
Co613 Co 0.59904 0.4274 0.0848 0.0
C614 C 0.54513 0.45817 0.06698 0.0
O615 O 0.52247 0.46029 0.07594 0.0
O616 O 0.57822 0.44751 0.06883 0.0
C617 C 0.47206 0.51091 0.09316 0.0
O618 O 0.49891 0.52421 0.08625 0.0
C619 C 0.67682 0.43183 0.07774 0.0
C620 C 0.69715 0.37642 0.08302 0.0
C621 C 0.70868 0.41062 0.07873 0.0
N622 N 0.64809 0.41139 0.0816 0.0
N623 N 0.66023 0.37798 0.08444 0.0
C624 C 0.67327 0.47076 0.07314 0.0
H625 H 0.65387 0.47121 0.06515 0.0
H626 H 0.66095 0.48845 0.08046 0.0
H627 H 0.70027 0.48223 0.07013 0.0
C628 C 0.5696 0.49899 0.11132 0.0
N629 N 0.56541 0.47533 0.10171 0.0
N630 N 0.59797 0.46253 0.09833 0.0
C631 C 0.62379 0.47677 0.10607 0.0
C632 C 0.60691 0.50096 0.11436 0.0
C633 C 0.53825 0.51928 0.11732 0.0
H634 H 0.51754 0.4991 0.12077 0.0
H635 H 0.52453 0.53691 0.11027 0.0
H636 H 0.54754 0.53725 0.12505 0.0
O637 O 0.51851 0.40104 0.09807 0.0
O638 O 0.57156 0.38237 0.0898 0.0
H639 H 0.66567 0.4351 0.1035 0.0
H640 H 0.673 0.46499 0.11664 0.0
C641 C 0.66298 0.46383 0.10689 0.0
H642 H 0.6806 0.48249 0.10131 0.0
H643 H 0.64363 0.35683 0.08795 0.0
O644 O 0.47727 0.48087 0.09906 0.0
C645 C 0.54099 0.37528 0.09518 0.0
Co646 Co 0.78093 0.26893 0.34262 0.0
Co647 Co 0.81117 0.34497 0.33371 0.0
C648 C 0.77766 0.29445 0.31551 0.0
O649 O 0.77351 0.27162 0.32439 0.0
O650 O 0.79151 0.32636 0.31744 0.0
C651 C 0.72255 0.21899 0.34198 0.0
O652 O 0.70879 0.24534 0.33496 0.0
C653 C 0.8195 0.42337 0.32619 0.0
C654 C 0.86654 0.43919 0.33818 0.0
C655 C 0.84075 0.45341 0.32997 0.0
N656 N 0.83156 0.3932 0.33226 0.0
N657 N 0.86027 0.40273 0.33914 0.0
C658 C 0.78886 0.42295 0.31682 0.0
H659 H 0.76175 0.42155 0.32159 0.0
H660 H 0.78969 0.44802 0.31087 0.0
H661 H 0.79129 0.39797 0.31089 0.0
C662 C 0.74003 0.31672 0.36046 0.0
N663 N 0.76278 0.31188 0.35065 0.0
N664 N 0.77498 0.34424 0.34684 0.0
C665 C 0.76031 0.37079 0.3542 0.0
C666 C 0.73765 0.35428 0.36309 0.0
C667 C 0.72332 0.28564 0.36772 0.0
H668 H 0.74294 0.26212 0.36819 0.0
H669 H 0.69796 0.27606 0.36289 0.0
H670 H 0.71588 0.29448 0.37728 0.0
O671 O 0.83424 0.26134 0.34615 0.0
O672 O 0.85429 0.31453 0.33851 0.0
H673 H 0.79697 0.41713 0.35493 0.0
H674 H 0.74952 0.42836 0.3587 0.0
C675 C 0.76763 0.41127 0.35269 0.0
H676 H 0.76253 0.41929 0.34294 0.0
H677 H 0.87444 0.38465 0.34501 0.0
O678 O 0.75324 0.22432 0.34745 0.0
C679 C 0.86062 0.28321 0.34344 0.0
Co680 Co 0.9756 0.46385 0.95382 0.0
Co681 Co 0.89968 0.43418 0.96295 0.0
C682 C 0.95128 0.46785 0.98096 0.0
O683 O 0.97384 0.47184 0.972 0.0
O684 O 0.91928 0.45404 0.97914 0.0
C685 C 0.02532 0.52219 0.9539 0.0
O686 O 0.99802 0.53717 0.9602 0.0
C687 C 0.82111 0.42877 0.97038 0.0
C688 C 0.80472 0.37937 0.95961 0.0
C689 C 0.79074 0.40734 0.96703 0.0
N690 N 0.85122 0.41467 0.9648 0.0
N691 N 0.84134 0.38462 0.95866 0.0
C692 C 0.82198 0.46139 0.97896 0.0
H693 H 0.82369 0.48735 0.97353 0.0
H694 H 0.79694 0.46218 0.98493 0.0
H695 H 0.84698 0.45998 0.98491 0.0
C696 C 0.9278 0.50536 0.93616 0.0
N697 N 0.93261 0.48245 0.94592 0.0
N698 N 0.90027 0.46986 0.94961 0.0
C699 C 0.87383 0.484 0.94209 0.0
C700 C 0.89036 0.50718 0.93338 0.0
C701 C 0.95879 0.52284 0.92907 0.0
H702 H 0.98216 0.50314 0.92823 0.0
H703 H 0.96867 0.54746 0.93424 0.0
H704 H 0.94976 0.53164 0.91966 0.0
O705 O 0.98249 0.41027 0.95037 0.0
O706 O 0.92932 0.39054 0.95812 0.0
H707 H 0.82954 0.44477 0.94208 0.0
H708 H 0.81692 0.48944 0.93586 0.0
C709 C 0.83353 0.47502 0.94303 0.0
H710 H 0.82316 0.48363 0.95225 0.0
H711 H 0.85928 0.36876 0.95325 0.0
O712 O 0.02045 0.49075 0.94888 0.0
C713 C 0.9605 0.38402 0.95312 0.0
Co714 Co 0.78689 0.72165 0.20315 0.0
Co715 Co 0.8154 0.64594 0.2127 0.0
C716 C 0.7817 0.69825 0.23037 0.0
O717 O 0.77915 0.72067 0.22132 0.0
O718 O 0.79384 0.66548 0.22869 0.0
C719 C 0.72997 0.77404 0.20258 0.0
O720 O 0.71263 0.74826 0.20891 0.0
C721 C 0.82109 0.5662 0.21883 0.0
C722 C 0.87482 0.55391 0.20994 0.0
C723 C 0.84471 0.53741 0.21561 0.0
N724 N 0.8362 0.59802 0.21483 0.0
N725 N 0.86885 0.5905 0.20992 0.0
C726 C 0.78327 0.56335 0.22439 0.0
H727 H 0.76758 0.58937 0.22292 0.0
H728 H 0.76799 0.53957 0.22038 0.0
H729 H 0.78598 0.55846 0.23454 0.0
C730 C 0.74529 0.67389 0.18554 0.0
N731 N 0.7681 0.6786 0.19533 0.0
N732 N 0.78082 0.64624 0.19897 0.0
C733 C 0.76708 0.61995 0.19128 0.0
C734 C 0.74377 0.63655 0.18264 0.0
C735 C 0.72748 0.7049 0.17855 0.0
H736 H 0.74743 0.72794 0.17741 0.0
H737 H 0.70361 0.71533 0.184 0.0
H738 H 0.71754 0.69573 0.16929 0.0
O739 O 0.84024 0.72819 0.1997 0.0
O740 O 0.85925 0.67607 0.20832 0.0
H741 H 0.80673 0.57623 0.1931 0.0
H742 H 0.76746 0.56442 0.18358 0.0
C743 C 0.77651 0.57972 0.19197 0.0
H744 H 0.76219 0.56739 0.20005 0.0
H745 H 0.88599 0.61003 0.20572 0.0
O746 O 0.76149 0.76691 0.19795 0.0
C747 C 0.86624 0.70667 0.20301 0.0
Co748 Co 0.52206 0.53586 0.45318 0.0
Co749 Co 0.59921 0.56404 0.46179 0.0
C750 C 0.54902 0.53318 0.48032 0.0
O751 O 0.52584 0.5307 0.47147 0.0
O752 O 0.58202 0.54411 0.47827 0.0
C753 C 0.47159 0.47812 0.45499 0.0
O754 O 0.49805 0.46528 0.46216 0.0
C755 C 0.6796 0.57362 0.46711 0.0
C756 C 0.68992 0.62318 0.45559 0.0
C757 C 0.70757 0.59653 0.46265 0.0
N758 N 0.6472 0.58574 0.46251 0.0
N759 N 0.65359 0.61599 0.45596 0.0
C760 C 0.68376 0.53896 0.47458 0.0
H761 H 0.65781 0.52259 0.47441 0.0
H762 H 0.7071 0.52213 0.47099 0.0
H763 H 0.6901 0.54644 0.48436 0.0
C764 C 0.56798 0.49373 0.43517 0.0
N765 N 0.56426 0.51654 0.44501 0.0
N766 N 0.59711 0.52798 0.4486 0.0
C767 C 0.62285 0.51276 0.44105 0.0
C768 C 0.60529 0.49052 0.43227 0.0
C769 C 0.5361 0.47768 0.42815 0.0
H770 H 0.5131 0.49794 0.42775 0.0
H771 H 0.52605 0.45276 0.43313 0.0
H772 H 0.54425 0.46969 0.41857 0.0
O773 O 0.51495 0.58873 0.4492 0.0
O774 O 0.56797 0.60722 0.45735 0.0
H775 H 0.66995 0.54856 0.44115 0.0
H776 H 0.6798 0.50247 0.43554 0.0
C777 C 0.66357 0.51879 0.44233 0.0
H778 H 0.6722 0.51009 0.45173 0.0
H779 H 0.6334 0.63047 0.45104 0.0
O780 O 0.47688 0.50802 0.44903 0.0
C781 C 0.53711 0.6145 0.45225 0.0
Co782 Co 0.70879 0.27005 0.70284 0.0
Co783 Co 0.67825 0.34674 0.71111 0.0
C784 C 0.71224 0.29762 0.72971 0.0
O785 O 0.71615 0.27418 0.72101 0.0
O786 O 0.6985 0.32948 0.72755 0.0
C787 C 0.76715 0.22021 0.70398 0.0
O788 O 0.78069 0.24705 0.71083 0.0
C789 C 0.67085 0.42671 0.7166 0.0
C790 C 0.61954 0.43856 0.70617 0.0
C791 C 0.64796 0.45533 0.71268 0.0
N792 N 0.65696 0.39475 0.71225 0.0
N793 N 0.62573 0.402 0.70637 0.0
C794 C 0.7072 0.42981 0.72316 0.0
H795 H 0.72318 0.40374 0.72224 0.0
H796 H 0.72344 0.45336 0.71943 0.0
H797 H 0.70209 0.43511 0.73318 0.0
C798 C 0.75027 0.31655 0.68481 0.0
N799 N 0.7269 0.31252 0.69449 0.0
N800 N 0.71393 0.34513 0.69776 0.0
C801 C 0.72821 0.37089 0.68999 0.0
C802 C 0.75194 0.35368 0.68161 0.0
C803 C 0.76876 0.28505 0.67828 0.0
H804 H 0.74905 0.26177 0.67723 0.0
H805 H 0.7923 0.27528 0.68402 0.0
H806 H 0.77928 0.29345 0.669 0.0
O807 O 0.65539 0.26189 0.69942 0.0
O808 O 0.63544 0.3154 0.70679 0.0
H809 H 0.68899 0.41522 0.6905 0.0
H810 H 0.73145 0.42672 0.68259 0.0
C811 C 0.71935 0.41127 0.69049 0.0
H812 H 0.73091 0.423 0.69914 0.0
H813 H 0.60985 0.38224 0.70175 0.0
O814 O 0.73661 0.22513 0.69838 0.0
C815 C 0.62902 0.28379 0.70211 0.0
Co816 Co 0.02228 0.46092 0.45352 0.0
Co817 Co 0.09883 0.43099 0.4622 0.0
C818 C 0.04929 0.46472 0.48056 0.0
O819 O 0.02624 0.4684 0.47173 0.0
O820 O 0.08133 0.4511 0.4786 0.0
C821 C 0.97268 0.51965 0.45445 0.0
O822 O -0.00065 0.53328 0.46136 0.0
C823 C 0.17896 0.42108 0.46781 0.0
C824 C 0.18966 0.37189 0.45616 0.0
C825 C 0.2071 0.39842 0.46333 0.0
N826 N 0.14669 0.40901 0.46309 0.0
N827 N 0.15328 0.37893 0.45648 0.0
C828 C 0.18286 0.45555 0.4754 0.0
H829 H 0.15686 0.47186 0.47522 0.0
H830 H 0.20622 0.47256 0.47192 0.0
H831 H 0.18901 0.44783 0.48517 0.0
C832 C 0.06919 0.50162 0.4354 0.0
N833 N 0.06486 0.47879 0.44522 0.0
N834 N 0.09744 0.46697 0.44894 0.0
C835 C 0.12363 0.48204 0.44152 0.0
C836 C 0.10665 0.50451 0.43268 0.0
C837 C 0.03777 0.51832 0.42832 0.0
H838 H 0.01428 0.49865 0.42794 0.0
H839 H 0.02834 0.54362 0.43322 0.0
H840 H 0.04622 0.52588 0.41873 0.0
O841 O 0.01401 0.4077 0.4501 0.0
O842 O 0.06726 0.38822 0.45779 0.0
H843 H 0.17084 0.4464 0.44189 0.0
H844 H 0.18098 0.4927 0.43655 0.0
C845 C 0.16427 0.4761 0.44313 0.0
H846 H 0.17213 0.48455 0.45263 0.0
H847 H 0.13323 0.36458 0.45146 0.0
O848 O 0.97761 0.4889 0.44898 0.0
C849 C 0.03589 0.38152 0.45297 0.0
Co850 Co 0.28062 0.27177 0.20386 0.0
Co851 Co 0.3122 0.34699 0.21296 0.0
C852 C 0.27924 0.2958 0.23108 0.0
O853 O 0.27554 0.2733 0.22211 0.0
O854 O 0.29151 0.3284 0.2292 0.0
C855 C 0.22279 0.22113 0.20518 0.0
O856 O 0.20962 0.24703 0.21251 0.0
C857 C 0.31922 0.42676 0.21863 0.0
C858 C 0.37452 0.43747 0.21065 0.0
C859 C 0.34402 0.45485 0.21575 0.0
N860 N 0.33418 0.39445 0.21504 0.0
N861 N 0.36766 0.40102 0.21064 0.0
C862 C 0.28049 0.43071 0.22334 0.0
H863 H 0.26439 0.40515 0.22152 0.0
H864 H 0.26671 0.45489 0.219 0.0
H865 H 0.28133 0.43552 0.23353 0.0
C866 C 0.23853 0.32073 0.18673 0.0
N867 N 0.26227 0.31547 0.19624 0.0
N868 N 0.27648 0.34746 0.19961 0.0
C869 C 0.26298 0.37399 0.19198 0.0
C870 C 0.23799 0.35811 0.18372 0.0
C871 C 0.21668 0.2903 0.18082 0.0
H872 H 0.2359 0.27016 0.17647 0.0
H873 H 0.20082 0.2755 0.18809 0.0
H874 H 0.19698 0.30078 0.17376 0.0
O875 O 0.33353 0.26357 0.19981 0.0
O876 O 0.35455 0.31543 0.20813 0.0
H877 H 0.30722 0.41339 0.19342 0.0
H878 H 0.27321 0.42461 0.18186 0.0
C879 C 0.27733 0.41276 0.19128 0.0
H880 H 0.26214 0.43027 0.198 0.0
H881 H 0.38491 0.38094 0.20681 0.0
O882 O 0.25243 0.22734 0.19917 0.0
C883 C 0.36032 0.28453 0.20284 0.0
Co884 Co 0.47488 0.53277 0.95413 0.0
Co885 Co 0.39887 0.5619 0.9634 0.0
C886 C 0.44998 0.52765 0.98127 0.0
O887 O 0.47266 0.52409 0.97232 0.0
O888 O 0.418 0.54152 0.97949 0.0
C889 C 0.52498 0.47458 0.95406 0.0
O890 O 0.4979 0.45932 0.96039 0.0
C891 C 0.32049 0.56912 0.97108 0.0
C892 C 0.30419 0.61658 0.95934 0.0
C893 C 0.29023 0.59022 0.96741 0.0
N894 N 0.35052 0.58179 0.96507 0.0
N895 N 0.34071 0.61075 0.95835 0.0
C896 C 0.32127 0.53807 0.98029 0.0
H897 H 0.3229 0.51118 0.97539 0.0
H898 H 0.29622 0.53839 0.98626 0.0
H899 H 0.34626 0.54047 0.98621 0.0
C900 C 0.42703 0.4922 0.9362 0.0
N901 N 0.43196 0.51458 0.9461 0.0
N902 N 0.39961 0.52638 0.95005 0.0
C903 C 0.37299 0.51185 0.94271 0.0
C904 C 0.38942 0.48968 0.93367 0.0
C905 C 0.458 0.47589 0.92879 0.0
H906 H 0.48158 0.49546 0.92843 0.0
H907 H 0.46753 0.45017 0.93341 0.0
H908 H 0.44902 0.46909 0.91919 0.0
O909 O 0.48185 0.58635 0.95087 0.0
O910 O 0.42869 0.60559 0.95875 0.0
H911 H 0.32639 0.54825 0.94237 0.0
H912 H 0.31538 0.50102 0.93825 0.0
C913 C 0.33249 0.51879 0.94436 0.0
H914 H 0.32468 0.51291 0.95408 0.0
H915 H 0.35862 0.62538 0.95255 0.0
O916 O 0.51982 0.50607 0.94912 0.0
C917 C 0.4598 0.61242 0.95375 0.0
Co918 Co 0.21189 0.72496 0.70315 0.0
Co919 Co 0.1828 0.64859 0.71207 0.0
C920 C 0.21611 0.69941 0.73024 0.0
O921 O 0.21989 0.72226 0.72135 0.0
O922 O 0.20243 0.66741 0.72833 0.0
C923 C 0.27002 0.77498 0.70354 0.0
O924 O 0.28516 0.74743 0.70966 0.0
C925 C 0.17574 0.57007 0.71957 0.0
C926 C 0.12889 0.55358 0.7076 0.0
C927 C 0.15494 0.53973 0.71579 0.0
N928 N 0.16318 0.60007 0.71352 0.0
N929 N 0.13459 0.59013 0.70665 0.0
C930 C 0.2064 0.57094 0.72892 0.0
H931 H 0.23347 0.57258 0.72413 0.0
H932 H 0.20588 0.54591 0.7349 0.0
H933 H 0.20372 0.59594 0.73483 0.0
C934 C 0.2534 0.67782 0.68525 0.0
N935 N 0.23061 0.68236 0.69506 0.0
N936 N 0.21885 0.64984 0.69887 0.0
C937 C 0.23385 0.6235 0.69151 0.0
C938 C 0.25628 0.6403 0.68262 0.0
C939 C 0.26977 0.70909 0.67799 0.0
H940 H 0.2502 0.73267 0.67771 0.0
H941 H 0.29545 0.71844 0.68268 0.0
H942 H 0.27668 0.70047 0.66836 0.0
O943 O 0.15842 0.73176 0.69971 0.0
O944 O 0.13906 0.67829 0.70732 0.0
H945 H 0.19782 0.57666 0.69085 0.0
H946 H 0.24533 0.56608 0.68697 0.0
C947 C 0.22712 0.58292 0.69302 0.0
H948 H 0.23253 0.57494 0.70276 0.0
H949 H 0.12012 0.60801 0.7008 0.0
O950 O 0.23864 0.77018 0.69848 0.0
C951 C 0.13232 0.70954 0.7024 0.0
Co952 Co 0.02482 0.54149 0.09376 0.0
Co953 Co 0.10122 0.56806 0.08438 0.0
C954 C 0.04914 0.53449 0.06666 0.0
O955 O 0.0264 0.53277 0.07565 0.0
O956 O 0.08203 0.54621 0.06838 0.0
C957 C 0.97199 0.48505 0.09475 0.0
O958 O -0.00151 0.46589 0.08943 0.0
C959 C 0.18107 0.57223 0.07841 0.0
C960 C 0.19442 0.62527 0.08759 0.0
C961 C 0.21031 0.59508 0.08178 0.0
N962 N 0.14956 0.58786 0.08245 0.0
N963 N 0.15772 0.6201 0.08754 0.0
C964 C 0.18318 0.53458 0.07268 0.0
H965 H 0.15678 0.51943 0.07402 0.0
H966 H 0.2065 0.5186 0.07669 0.0
H967 H 0.18836 0.53759 0.06256 0.0
C968 C 0.07099 0.49983 0.11182 0.0
N969 N 0.06704 0.52223 0.10189 0.0
N970 N 0.09978 0.53395 0.09824 0.0
C971 C 0.12559 0.51982 0.10602 0.0
C972 C 0.10822 0.49742 0.11478 0.0
C973 C 0.03944 0.48327 0.11889 0.0
H974 H 0.01623 0.50325 0.1194 0.0
H975 H 0.02962 0.45828 0.11391 0.0
H976 H 0.04793 0.47518 0.12843 0.0
O977 O 0.01916 0.59497 0.09694 0.0
O978 O 0.07187 0.61276 0.08844 0.0
H979 H 0.18137 0.51752 0.11348 0.0
H980 H 0.1776 0.51368 0.09699 0.0
C981 C 0.16612 0.52777 0.10525 0.0
H982 H 0.17066 0.55793 0.10435 0.0
H983 H 0.1385 0.63745 0.09181 0.0
O984 O 0.97884 0.51736 0.09874 0.0
C985 C 0.04124 0.62046 0.09361 0.0
Co986 Co 0.20563 0.27449 0.84415 0.0
Co987 Co 0.17895 0.35111 0.83494 0.0
C988 C 0.2118 0.29981 0.81701 0.0
O989 O 0.21365 0.27702 0.82599 0.0
O990 O 0.20026 0.33276 0.81878 0.0
C991 C 0.26246 0.22204 0.84446 0.0
O992 O 0.28071 0.24866 0.83886 0.0
C993 C 0.17159 0.43128 0.82916 0.0
C994 C 0.12089 0.44299 0.83995 0.0
C995 C 0.14885 0.45983 0.83326 0.0
N996 N 0.15812 0.39929 0.83365 0.0
N997 N 0.12718 0.40649 0.83972 0.0
C998 C 0.20727 0.43455 0.8222 0.0
H999 H 0.22309 0.40829 0.82269 0.0
H1000 H 0.22407 0.45769 0.82594 0.0
H1001 H 0.20119 0.44076 0.81231 0.0
C1002 C 0.24722 0.32044 0.8623 0.0
N1003 N 0.22478 0.31654 0.85237 0.0
N1004 N 0.21377 0.34934 0.84857 0.0
C1005 C 0.22883 0.37523 0.8561 0.0
C1006 C 0.25063 0.35781 0.86503 0.0
C1007 C 0.26292 0.28877 0.86951 0.0
H1008 H 0.24289 0.26556 0.86974 0.0
H1009 H 0.28845 0.279 0.86483 0.0
H1010 H 0.26993 0.29713 0.87916 0.0
O1011 O 0.15239 0.2682 0.84747 0.0
O1012 O 0.13467 0.32096 0.83901 0.0
H1013 H 0.19335 0.4225 0.85513 0.0
H1014 H 0.23824 0.43226 0.86172 0.0
C1015 C 0.22325 0.41597 0.85461 0.0
H1016 H 0.23385 0.42441 0.84542 0.0
H1017 H 0.11164 0.38677 0.84449 0.0
O1018 O 0.23055 0.22865 0.84886 0.0
C1019 C 0.12692 0.29027 0.84414 0.0
Co1020 Co 0.47809 0.46221 0.59355 0.0
Co1021 Co 0.40211 0.43309 0.58428 0.0
C1022 C 0.45386 0.46611 0.56632 0.0
O1023 O 0.47639 0.46979 0.5753 0.0
O1024 O 0.42167 0.45276 0.56811 0.0
C1025 C 0.52752 0.52041 0.59313 0.0
O1026 O 0.50067 0.53423 0.58635 0.0
C1027 C 0.32384 0.42688 0.57654 0.0
C1028 C 0.30669 0.37947 0.58816 0.0
C1029 C 0.29321 0.40621 0.58015 0.0
N1030 N 0.35361 0.41362 0.58254 0.0
N1031 N 0.34329 0.38469 0.58919 0.0
C1032 C 0.32518 0.45811 0.5674 0.0
H1033 H 0.32769 0.48483 0.57236 0.0
H1034 H 0.3 0.45858 0.5615 0.0
H1035 H 0.34995 0.45516 0.5614 0.0
C1036 C 0.43023 0.5035 0.61125 0.0
N1037 N 0.43509 0.48087 0.60142 0.0
N1038 N 0.40272 0.46904 0.59751 0.0
C1039 C 0.37614 0.48375 0.60484 0.0
C1040 C 0.39265 0.50614 0.6138 0.0
C1041 C 0.46127 0.51979 0.61863 0.0
H1042 H 0.48452 0.49987 0.61918 0.0
H1043 H 0.47133 0.54505 0.61385 0.0
H1044 H 0.4522 0.52733 0.62816 0.0
O1045 O 0.48488 0.40879 0.59707 0.0
O1046 O 0.43174 0.38943 0.58918 0.0
H1047 H 0.3298 0.44703 0.60519 0.0
H1048 H 0.3186 0.49399 0.60957 0.0
C1049 C 0.33564 0.4766 0.60332 0.0
H1050 H 0.32748 0.48283 0.59366 0.0
H1051 H 0.36093 0.36969 0.59497 0.0
O1052 O 0.5227 0.4895 0.59852 0.0
C1053 C 0.46279 0.38269 0.59425 0.0
Co1054 Co 0.28893 0.72491 0.34407 0.0
Co1055 Co 0.31475 0.64812 0.33451 0.0
C1056 C 0.28224 0.70135 0.31692 0.0
O1057 O 0.2808 0.72412 0.32589 0.0
O1058 O 0.29338 0.66834 0.31867 0.0
C1059 C 0.23133 0.7745 0.34429 0.0
O1060 O 0.21629 0.74668 0.33828 0.0
C1061 C 0.3142 0.56931 0.32751 0.0
C1062 C 0.36919 0.55177 0.33412 0.0
C1063 C 0.33671 0.53857 0.329 0.0
N1064 N 0.33238 0.59917 0.3317 0.0
N1065 N 0.36567 0.5886 0.33531 0.0
C1066 C 0.27572 0.57013 0.32242 0.0
H1067 H 0.27714 0.56811 0.31213 0.0
H1068 H 0.26172 0.59641 0.32492 0.0
H1069 H 0.25952 0.54611 0.32581 0.0
C1070 C 0.24712 0.67868 0.36207 0.0
N1071 N 0.26933 0.68254 0.35207 0.0
N1072 N 0.28053 0.64975 0.34832 0.0
C1073 C 0.26614 0.62398 0.35606 0.0
C1074 C 0.24422 0.64139 0.36495 0.0
C1075 C 0.23142 0.71033 0.3693 0.0
H1076 H 0.25191 0.73308 0.36984 0.0
H1077 H 0.20653 0.72086 0.36443 0.0
H1078 H 0.22342 0.70173 0.37884 0.0
O1079 O 0.34259 0.72971 0.34727 0.0
O1080 O 0.35998 0.67646 0.33891 0.0
H1081 H 0.30291 0.57831 0.35347 0.0
H1082 H 0.26364 0.56771 0.36317 0.0
C1083 C 0.27303 0.58342 0.35493 0.0
H1084 H 0.25735 0.57286 0.34686 0.0
H1085 H 0.38526 0.60619 0.33927 0.0
O1086 O 0.26315 0.77027 0.34909 0.0
C1087 C 0.36788 0.70712 0.34408 0.0
H1088 H 0.52358 0.01718 0.05869 0.0
H1089 H 0.41206 0.01972 0.04435 0.0
H1090 H 0.54705 0.00282 0.0382 0.0
H1091 H 0.43556 0.00353 0.02372 0.0
H1092 H 0.49132 0.01048 0.98601 0.0
H1093 H 0.46841 0.02613 1.00653 0.0
H1094 H 0.55273 0.95708 1.02305 0.0
H1095 H 0.57674 0.94275 1.00236 0.0
C1096 C 0.50389 0.01433 0.05116 0.0
C1097 C 0.46578 0.01969 0.05321 0.0
C1098 C 0.51747 0.00573 0.03935 0.0
C1099 C 0.49339 0.00173 0.0292 0.0
C1100 C 0.45515 0.00692 0.03124 0.0
C1101 C 0.44153 0.01601 0.04309 0.0
C1102 C 0.50523 -0.00119 0.99401 0.0
C1103 C 0.536 0.97536 0.99252 0.0
C1104 C 0.49175 0.00752 1.00584 0.0
C1105 C 0.5083 0.99269 1.01656 0.0
C1106 C 0.53943 0.96952 1.01506 0.0
C1107 C 0.55326 0.96118 1.00319 0.0
H1108 H 0.19241 0.17071 0.29426 0.0
H1109 H 0.26002 0.25551 0.31103 0.0
H1110 H 0.2069 0.19532 0.27371 0.0
H1111 H 0.2759 0.27908 0.29056 0.0
H1112 H 0.27018 0.33598 0.25274 0.0
H1113 H 0.2539 0.31227 0.27334 0.0
H1114 H 0.25272 0.20099 0.25867 0.0
H1115 H 0.26712 0.22468 0.23821 0.0
C1116 C 0.21085 0.19422 0.29355 0.0
C1117 C 0.22497 0.2111 0.3043 0.0
C1118 C 0.2193 0.20838 0.28174 0.0
C1119 C 0.24257 0.23947 0.28037 0.0
C1120 C 0.25726 0.25574 0.29117 0.0
C1121 C 0.24842 0.24191 0.30295 0.0
C1122 C 0.26631 0.30651 0.25395 0.0
C1123 C 0.26984 0.28238 0.24378 0.0
C1124 C 0.25718 0.29278 0.26579 0.0
C1125 C 0.25182 0.25454 0.26777 0.0
C1126 C 0.25572 0.23059 0.25756 0.0
C1127 C 0.26433 0.24428 0.24577 0.0
H1128 H 0.91111 0.02162 0.50252 0.0
H1129 H 0.02232 0.01869 0.48787 0.0
H1130 H 0.93494 0.00504 0.52305 0.0
H1131 H 0.04613 0.00392 0.50829 0.0
H1132 H 0.07633 0.94385 0.54411 0.0
H1133 H 0.05206 0.95832 0.52348 0.0
H1134 H 0.9681 0.02743 0.54018 0.0
H1135 H 0.99131 0.01167 0.56067 0.0
C1136 C 0.9406 0.0177 0.50368 0.0
C1137 C 0.96465 0.02148 0.4935 0.0
C1138 C 0.9544 0.00841 0.51549 0.0
C1139 C 0.99266 0.00307 0.51744 0.0
C1140 C 0.01654 0.007 0.50721 0.0
C1141 C 0.00276 0.01584 0.49545 0.0
C1142 C 0.05287 0.96232 0.54334 0.0
C1143 C 0.0358 0.97648 0.55406 0.0
C1144 C 0.03889 0.97074 0.53149 0.0
C1145 C 0.00777 0.99396 0.53006 0.0
C1146 C 0.99142 0.00877 0.54083 0.0
C1147 C 0.00506 -0.0 0.55263 0.0
H1148 H 0.26168 0.75656 0.73632 0.0
H1149 H 0.19537 0.67026 0.75284 0.0
H1150 H 0.27776 0.77936 0.75683 0.0
H1151 H 0.21016 0.69411 0.77351 0.0
H1152 H 0.27167 0.72376 0.80899 0.0
H1153 H 0.25638 0.70014 0.78855 0.0
H1154 H 0.25513 0.81169 0.7741 0.0
H1155 H 0.27218 0.83527 0.7946 0.0
C1156 C 0.25036 0.74248 0.74436 0.0
C1157 C 0.22718 0.71151 0.74292 0.0
C1158 C 0.25934 0.75585 0.75618 0.0
C1159 C 0.24506 0.73898 0.76694 0.0
C1160 C 0.22215 0.70768 0.76549 0.0
C1161 C 0.21352 0.69396 0.75363 0.0
C1162 C 0.26818 0.74339 0.80147 0.0
C1163 C 0.27332 0.78153 0.80347 0.0
C1164 C 0.25907 0.72975 0.7897 0.0
C1165 C 0.25436 0.75383 0.77956 0.0
C1166 C 0.25913 0.7921 0.78159 0.0
C1167 C 0.2687 0.80575 0.79338 0.0
H1168 H 0.47236 0.01839 0.55972 0.0
H1169 H 0.58358 0.02168 0.54509 0.0
H1170 H 0.4487 0.003 0.5393 0.0
H1171 H 0.55997 0.00452 0.52461 0.0
H1172 H 0.41952 0.94256 0.50336 0.0
H1173 H 0.4433 0.95712 0.52407 0.0
H1174 H 0.52679 0.02723 0.50756 0.0
H1175 H 0.50418 0.0114 0.48705 0.0
C1176 C 0.49193 0.01549 0.55215 0.0
C1177 C 0.52999 0.02146 0.55408 0.0
C1178 C 0.47826 0.00631 0.5404 0.0
C1179 C 0.50224 0.00238 0.5302 0.0
C1180 C 0.54045 0.00793 0.53215 0.0
C1181 C 0.55412 0.01757 0.54393 0.0
C1182 C 0.44279 0.96123 0.5042 0.0
C1183 C 0.45991 0.97568 0.49353 0.0
C1184 C 0.45648 0.96971 0.51608 0.0
C1185 C 0.48733 0.99323 0.51758 0.0
C1186 C 0.5037 0.00832 0.50686 0.0
C1187 C 0.49037 -0.0005 0.49504 0.0
H1188 H 0.23305 0.25879 0.73725 0.0
H1189 H 0.29907 0.17296 0.75414 0.0
H1190 H 0.21764 0.28294 0.75767 0.0
H1191 H 0.28504 0.19813 0.77467 0.0
H1192 H 0.22402 0.22855 0.81 0.0
H1193 H 0.2391 0.20463 0.78964 0.0
H1194 H 0.23985 0.31585 0.77491 0.0
H1195 H 0.2229 0.33983 0.79541 0.0
C1196 C 0.24444 0.2451 0.74535 0.0
C1197 C 0.26727 0.2138 0.74404 0.0
C1198 C 0.23587 0.25926 0.7571 0.0
C1199 C 0.2502 0.24284 0.76793 0.0
C1200 C 0.27293 0.21134 0.76661 0.0
C1201 C 0.28112 0.19685 0.75482 0.0
C1202 C 0.22741 0.2481 0.80246 0.0
C1203 C 0.22217 0.28627 0.8044 0.0
C1204 C 0.23642 0.23426 0.79072 0.0
C1205 C 0.24097 0.25811 0.78052 0.0
C1206 C 0.23605 0.29643 0.78246 0.0
C1207 C 0.22655 0.31031 0.79425 0.0
H1208 H 0.00689 0.0165 0.05932 0.0
H1209 H 0.92196 0.94776 0.04315 0.0
H1210 H 0.02988 0.03154 0.03875 0.0
H1211 H 0.94605 0.9615 1.02243 0.0
H1212 H 0.97507 0.0212 0.98661 0.0
H1213 H 0.95156 0.00682 1.00711 0.0
H1214 H 0.06294 0.00846 1.02167 0.0
H1215 H 0.08646 0.02464 1.00105 0.0
C1216 C 0.9931 0.00447 0.05135 0.0
C1217 C 0.96244 0.98093 0.05291 0.0
C1218 C 0.00663 0.01282 0.0395 0.0
C1219 C 0.99024 0.99755 0.02882 0.0
C1220 C 0.95923 0.97426 0.03038 0.0
C1221 C 0.94536 0.96627 0.04228 0.0
C1222 C 0.99473 0.01852 0.99416 0.0
C1223 C 0.0328 0.0242 0.99214 0.0
C1224 C 0.98113 0.00992 1.00597 0.0
C1225 C 0.00516 0.00628 1.01616 0.0
C1226 C 0.04338 0.01161 1.01413 0.0
C1227 C 0.05701 0.02067 1.00228 0.0
H1228 H 0.26905 0.77246 0.30976 0.0
H1229 H 0.27142 0.66082 0.2955 0.0
H1230 H 0.25387 0.79567 0.28926 0.0
H1231 H 0.25445 0.68398 0.27494 0.0
H1232 H 0.19419 0.82462 0.25322 0.0
H1233 H 0.20828 0.80112 0.27398 0.0
H1234 H 0.27744 0.71636 0.25775 0.0
H1235 H 0.26203 0.73877 0.23715 0.0
C1236 C 0.26594 0.7527 0.30226 0.0
C1237 C 0.27164 0.71466 0.30431 0.0
C1238 C 0.2569 0.76611 0.29046 0.0
C1239 C 0.25282 0.74188 0.28033 0.0
C1240 C 0.25799 0.70369 0.28242 0.0
C1241 C 0.2675 0.69028 0.29424 0.0
C1242 C 0.21254 0.80111 0.25412 0.0
C1243 C 0.22684 0.78358 0.24351 0.0
C1244 C 0.22075 0.78759 0.26604 0.0
C1245 C 0.24389 0.75651 0.26764 0.0
C1246 C 0.25881 0.73968 0.25698 0.0
C1247 C 0.25024 0.75285 0.24511 0.0
H1248 H 0.77406 0.83672 0.75179 0.0
H1249 H 0.77107 0.72504 0.73758 0.0
H1250 H 0.75736 0.81358 0.77241 0.0
H1251 H 0.75613 0.70192 0.75808 0.0
H1252 H 0.69589 0.67311 0.79401 0.0
H1253 H 0.71022 0.69677 0.77327 0.0
H1254 H 0.78003 0.78077 0.7896 0.0
H1255 H 0.76443 0.75824 0.81016 0.0
C1256 C 0.77012 0.80729 0.75307 0.0
C1257 C 0.7739 0.78288 0.74299 0.0
C1258 C 0.76073 0.79388 0.76492 0.0
C1259 C 0.75531 0.75569 0.767 0.0
C1260 C 0.75928 0.73147 0.75688 0.0
C1261 C 0.76821 0.74484 0.74508 0.0
C1262 C 0.71446 0.69645 0.79313 0.0
C1263 C 0.72891 0.71372 0.80377 0.0
C1264 C 0.7228 0.71008 0.78123 0.0
C1265 C 0.74619 0.74101 0.77967 0.0
C1266 C 0.76124 0.75757 0.79035 0.0
C1267 C 0.75256 0.74429 0.80219 0.0
H1268 H 0.72194 0.15997 0.25073 0.0
H1269 H 0.72241 0.272 0.23679 0.0
H1270 H 0.73903 0.18288 0.27132 0.0
H1271 H 0.73771 0.2949 0.2573 0.0
H1272 H 0.79869 0.32387 0.29299 0.0
H1273 H 0.7841 0.30036 0.27228 0.0
H1274 H 0.71643 0.21476 0.28872 0.0
H1275 H 0.73235 0.2372 0.30928 0.0
C1276 C 0.72542 0.18945 0.25206 0.0
C1277 C 0.7208 0.21403 0.24207 0.0
C1278 C 0.73501 0.2027 0.2639 0.0
C1279 C 0.7398 0.24091 0.26607 0.0
C1280 C 0.73504 0.26533 0.25603 0.0
C1281 C 0.72592 0.2521 0.24422 0.0
C1282 C 0.78058 0.30016 0.29215 0.0
C1283 C 0.76681 0.28244 0.30281 0.0
C1284 C 0.77207 0.28664 0.28026 0.0
C1285 C 0.74915 0.25538 0.27873 0.0
C1286 C 0.73484 0.23827 0.28944 0.0
C1287 C 0.74371 0.25144 0.30129 0.0
H1288 H 0.77393 0.65892 0.25225 0.0
H1289 H 0.7668 0.76932 0.23711 0.0
H1290 H 0.75819 0.6832 0.27281 0.0
H1291 H 0.75288 0.79364 0.25754 0.0
H1292 H 0.69543 0.82375 0.29389 0.0
H1293 H 0.70866 0.79911 0.27321 0.0
H1294 H 0.78153 0.71766 0.28949 0.0
H1295 H 0.76702 0.74121 0.31005 0.0
C1296 C 0.76918 0.68832 0.2533 0.0
C1297 C 0.77162 0.71202 0.24299 0.0
C1298 C 0.7604 0.70239 0.26512 0.0
C1299 C 0.75427 0.74058 0.26694 0.0
C1300 C 0.75666 0.76409 0.25657 0.0
C1301 C 0.76497 0.75003 0.24479 0.0
C1302 C 0.7145 0.8008 0.29301 0.0
C1303 C 0.73006 0.78448 0.30364 0.0
C1304 C 0.72218 0.78659 0.28114 0.0
C1305 C 0.74604 0.75602 0.27958 0.0
C1306 C 0.76233 0.74051 0.29025 0.0
C1307 C 0.75429 0.75436 0.30208 0.0
H1308 H 0.76298 0.27448 0.80886 0.0
H1309 H 0.76819 0.16315 0.79441 0.0
H1310 H 0.74839 0.29777 0.78835 0.0
H1311 H 0.75177 0.18639 0.7738 0.0
H1312 H 0.75922 0.24205 0.73615 0.0
H1313 H 0.77448 0.21955 0.75675 0.0
H1314 H 0.7034 0.3028 0.77292 0.0
H1315 H 0.68946 0.32642 0.75216 0.0
C1316 C 0.76064 0.25478 0.80131 0.0
C1317 C 0.76691 0.2168 0.80333 0.0
C1318 C 0.75192 0.26824 0.78949 0.0
C1319 C 0.74873 0.24415 0.7793 0.0
C1320 C 0.75459 0.20601 0.78134 0.0
C1321 C 0.76379 0.19254 0.79319 0.0
C1322 C 0.74701 0.25581 0.7441 0.0
C1323 C 0.72311 0.28615 0.74248 0.0
C1324 C 0.75549 0.24257 0.75596 0.0
C1325 C 0.73996 0.25891 0.76661 0.0
C1326 C 0.71635 0.28965 0.765 0.0
C1327 C 0.70824 0.30326 0.75308 0.0
H1328 H 0.02356 0.51802 0.55937 0.0
H1329 H 0.91233 0.52061 0.54478 0.0
H1330 H 0.04738 0.50319 0.53896 0.0
H1331 H 0.93617 0.50396 0.52424 0.0
H1332 H 0.99266 0.51091 0.48665 0.0
H1333 H 0.96935 0.52653 0.50712 0.0
H1334 H 0.05328 0.45739 0.52382 0.0
H1335 H 0.07769 0.44307 0.50318 0.0
C1336 C 0.004 0.51506 0.55181 0.0
C1337 C 0.96588 0.52062 0.55376 0.0
C1338 C 0.01778 0.5062 0.54005 0.0
C1339 C 0.99389 0.50214 0.52984 0.0
C1340 C 0.95562 0.50741 0.5318 0.0
C1341 C 0.94181 0.51675 0.5436 0.0
C1342 C 0.00639 0.4992 0.49468 0.0
C1343 C 0.03717 0.47573 0.49325 0.0
C1344 C 0.99268 0.50789 0.50648 0.0
C1345 C 0.00901 0.49304 0.51723 0.0
C1346 C 0.04014 0.46984 0.5158 0.0
C1347 C 0.0542 0.4615 0.50396 0.0
H1348 H 0.50745 0.48213 0.98713 0.0
H1349 H 0.42086 0.54739 1.00396 0.0
H1350 H 0.53025 0.46522 1.00758 0.0
H1351 H 0.44469 0.5318 0.02454 0.0
H1352 H 0.47384 0.46922 0.05972 0.0
H1353 H 0.45053 0.4848 0.03928 0.0
H1354 H 0.56233 0.48703 0.02505 0.0
H1355 H 0.58563 0.46967 0.04557 0.0
C1356 C 0.49331 0.49304 0.99522 0.0
C1357 C 0.46224 0.51615 0.99388 0.0
C1358 C 0.50668 0.48358 1.007 0.0
C1359 C 0.48967 0.49729 1.01782 0.0
C1360 C 0.45833 0.5202 1.01647 0.0
C1361 C 0.44463 0.52929 1.00465 0.0
C1362 C 0.49359 0.47295 0.05225 0.0
C1363 C 0.53173 0.46807 0.05432 0.0
C1364 C 0.48013 0.48225 0.04048 0.0
C1365 C 0.50437 0.48742 0.03041 0.0
C1366 C 0.54263 0.48272 0.03249 0.0
C1367 C 0.55612 0.47296 0.04429 0.0
H1368 H 0.978 0.52101 0.05973 0.0
H1369 H 0.08913 0.524 0.04503 0.0
H1370 H 0.95416 0.50579 0.03935 0.0
H1371 H 0.06528 0.50694 0.02453 0.0
H1372 H 0.00833 0.51372 0.98694 0.0
H1373 H 0.03202 0.52918 1.0074 0.0
H1374 H 0.94817 0.46017 0.02422 0.0
H1375 H 0.92342 0.44603 1.00363 0.0
C1376 C 0.99754 0.51799 0.05216 0.0
C1377 C 0.03563 0.52383 0.05407 0.0
C1378 C 0.98375 0.50892 0.04041 0.0
C1379 C 0.00759 0.50491 0.03018 0.0
C1380 C 0.04584 0.51034 0.03211 0.0
C1381 C 0.05966 0.51989 0.04389 0.0
C1382 C 0.99473 0.50198 0.99501 0.0
C1383 C 0.96385 0.47863 0.99362 0.0
C1384 C 0.00865 0.51058 1.00679 0.0
C1385 C 0.99241 0.49577 1.01758 0.0
C1386 C 0.96124 0.47261 1.01619 0.0
C1387 C 0.94699 0.46437 1.00437 0.0
H1388 H 0.47794 0.52312 0.48787 0.0
H1389 H 0.59011 0.52147 0.50164 0.0
H1390 H 0.455 0.50792 0.50836 0.0
H1391 H 0.56709 0.50445 0.52226 0.0
H1392 H 0.51241 0.5102 0.56035 0.0
H1393 H 0.53556 0.52633 0.53987 0.0
H1394 H 0.4488 0.46106 0.52306 0.0
H1395 H 0.42464 0.44629 0.54366 0.0
C1396 C 0.49788 0.51916 0.49527 0.0
C1397 C 0.53602 0.52357 0.49305 0.0
C1398 C 0.48461 0.51007 0.50707 0.0
C1399 C 0.50901 0.50461 0.51707 0.0
C1400 C 0.54728 0.50892 0.51487 0.0
C1401 C 0.5606 0.5185 0.50302 0.0
C1402 C 0.49808 0.49941 0.55229 0.0
C1403 C 0.46652 0.47696 0.55367 0.0
C1404 C 0.51166 0.50841 0.54049 0.0
C1405 C 0.49437 0.49492 0.5297 0.0
C1406 C 0.46265 0.47254 0.5311 0.0
C1407 C 0.44875 0.46391 0.54293 0.0
H1408 H 0.5848 0.98311 0.10717 0.0
H1409 H 0.55601 0.92476 0.07345 0.0
H1410 H 0.64877 0.96274 0.1049 0.0
H1411 H 0.62005 0.90452 0.07121 0.0
H1412 H 0.74753 0.92357 0.06464 0.0
H1413 H 0.6815 0.93765 0.06678 0.0
H1414 H 0.6851 0.90315 0.10521 0.0
H1415 H 0.75065 0.88975 0.10317 0.0
C1416 C 0.59203 0.96557 0.09938 0.0
C1417 C 0.56542 0.95553 0.0905 0.0
C1418 C 0.62859 0.95389 0.09808 0.0
C1419 C 0.63927 0.93228 0.08783 0.0
C1420 C 0.61254 0.9215 0.07911 0.0
C1421 C 0.57586 0.9328 0.08048 0.0
C1422 C 0.73417 0.91916 0.07352 0.0
C1423 C 0.7543 0.90605 0.08377 0.0
C1424 C 0.6964 0.92681 0.07472 0.0
C1425 C 0.67841 0.9217 0.08619 0.0
C1426 C 0.69841 0.90771 0.09631 0.0
C1427 C 0.73587 0.8998 0.09509 0.0
H1428 H 0.28955 0.51306 0.34624 0.0
H1429 H 0.3587 0.47786 0.31585 0.0
H1430 H 0.27445 0.44951 0.351 0.0
H1431 H 0.34199 0.4133 0.32007 0.0
H1432 H 0.3328 0.30013 0.33843 0.0
H1433 H 0.35064 0.36412 0.33436 0.0
H1434 H 0.24019 0.3998 0.3441 0.0
H1435 H 0.22331 0.33669 0.3488 0.0
C1436 C 0.30056 0.49158 0.34034 0.0
C1437 C 0.32443 0.50019 0.3305 0.0
C1438 C 0.29197 0.45502 0.34305 0.0
C1439 C 0.30667 0.4261 0.33586 0.0
C1440 C 0.33048 0.43483 0.3259 0.0
C1441 C 0.33965 0.47166 0.32334 0.0
C1442 C 0.31266 0.32186 0.33991 0.0
C1443 C 0.27677 0.31343 0.34401 0.0
C1444 C 0.32269 0.35845 0.33742 0.0
C1445 C 0.29682 0.38721 0.33882 0.0
C1446 C 0.26113 0.3786 0.34312 0.0
C1447 C 0.25137 0.34227 0.34582 0.0
H1448 H 0.76348 0.13623 0.57837 0.0
H1449 H 0.73678 0.02012 0.58115 0.0
H1450 H 0.82864 0.12184 0.58176 0.0
H1451 H 0.80173 0.00563 0.58391 0.0
H1452 H 0.90825 0.99629 0.6053 0.0
H1453 H 0.84475 0.01433 0.60092 0.0
H1454 H 0.88348 0.09195 0.57328 0.0
H1455 H 0.94712 0.07456 0.57787 0.0
C1456 C 0.7717 0.10756 0.5793 0.0
C1457 C 0.74505 0.0793 0.57926 0.0
C1458 C 0.80897 0.09932 0.58125 0.0
C1459 C 0.82024 0.06265 0.58326 0.0
C1460 C 0.7938 0.03424 0.5826 0.0
C1461 C 0.75658 0.04248 0.5807 0.0
C1462 C 0.90325 0.01758 0.59842 0.0
C1463 C 0.93267 0.03384 0.59189 0.0
C1464 C 0.86686 0.02762 0.5958 0.0
C1465 C 0.85908 0.054 0.58656 0.0
C1466 C 0.88858 0.07154 0.58045 0.0
C1467 C 0.92505 0.06161 0.5831 0.0
H1468 H 0.14298 0.50205 0.85383 0.0
H1469 H 0.17534 0.50655 0.81517 0.0
H1470 H 0.16041 0.56656 0.85643 0.0
H1471 H 0.19297 0.57168 0.81783 0.0
H1472 H 0.18149 0.69752 0.82625 0.0
H1473 H 0.15977 0.63412 0.82352 0.0
H1474 H 0.22346 0.60005 0.85547 0.0
H1475 H 0.24562 0.66339 0.85818 0.0
C1476 C 0.15352 0.517 0.84584 0.0
C1477 C 0.15799 0.49938 0.83429 0.0
C1478 C 0.16372 0.55378 0.84738 0.0
C1479 C 0.17812 0.57385 0.83735 0.0
C1480 C 0.18178 0.55664 0.82568 0.0
C1481 C 0.17199 0.51948 0.82418 0.0
C1482 C 0.19048 0.67661 0.8328 0.0
C1483 C 0.2152 0.68534 0.84246 0.0
C1484 C 0.17833 0.64035 0.83114 0.0
C1485 C 0.19019 0.61238 0.83923 0.0
C1486 C 0.21389 0.62128 0.84913 0.0
C1487 C 0.22652 0.65743 0.85068 0.0
H1488 H 0.7483 0.10161 0.44356 0.0
H1489 H 0.74483 0.06908 0.48221 0.0
H1490 H 0.6832 0.08625 0.44134 0.0
H1491 H 0.67916 0.05328 0.47992 0.0
H1492 H 0.55334 0.06709 0.4726 0.0
H1493 H 0.61751 0.08674 0.47504 0.0
H1494 H 0.64732 0.02578 0.442 0.0
H1495 H 0.5832 0.00587 0.43956 0.0
C1496 C 0.73351 0.0914 0.45162 0.0
C1497 C 0.75165 0.08628 0.46305 0.0
C1498 C 0.69633 0.08236 0.4503 0.0
C1499 C 0.67633 0.06841 0.46043 0.0
C1500 C 0.69409 0.06411 0.47198 0.0
C1501 C 0.73161 0.0728 0.47326 0.0
C1502 C 0.57348 0.05828 0.46575 0.0
C1503 C 0.56327 0.035 0.45585 0.0
C1504 C 0.61022 0.06923 0.46725 0.0
C1505 C 0.63726 0.05756 0.45876 0.0
C1506 C 0.62689 0.03526 0.44865 0.0
C1507 C 0.59025 0.02389 0.44725 0.0
H1508 H 0.2482 0.33614 0.69202 0.0
H1509 H 0.16607 0.29792 0.71827 0.0
H1510 H 0.23006 0.39978 0.69613 0.0
H1511 H 0.14846 0.36173 0.72255 0.0
H1512 H 0.1064 0.48258 0.71646 0.0
H1513 H 0.12033 0.41714 0.71334 0.0
H1514 H 0.23712 0.44215 0.71362 0.0
H1515 H 0.22322 0.50734 0.71618 0.0
C1516 C 0.22602 0.3413 0.69857 0.0
C1517 C 0.20876 0.31203 0.70488 0.0
C1518 C 0.21592 0.37776 0.70103 0.0
C1519 C 0.18841 0.38575 0.70987 0.0
C1520 C 0.16979 0.35642 0.7157 0.0
C1521 C 0.17985 0.31987 0.71322 0.0
C1522 C 0.13504 0.47386 0.71613 0.0
C1523 C 0.16369 0.50002 0.71679 0.0
C1524 C 0.14301 0.43646 0.71434 0.0
C1525 C 0.17979 0.42463 0.71307 0.0
C1526 C 0.20846 0.45056 0.71436 0.0
C1527 C 0.20051 0.4879 0.71613 0.0
H1528 H 0.74904 0.89224 0.94187 0.0
H1529 H 0.7521 0.92449 0.98055 0.0
H1530 H 0.81398 0.90843 0.93966 0.0
H1531 H 0.81755 0.94111 0.97826 0.0
H1532 H 0.94355 0.93047 0.97087 0.0
H1533 H 0.87994 0.90895 0.97327 0.0
H1534 H 0.84843 0.96987 0.94041 0.0
H1535 H 0.91195 0.99166 0.93801 0.0
C1536 C 0.76371 0.90253 0.94994 0.0
C1537 C 0.74547 0.90743 0.96137 0.0
C1538 C 0.80079 0.91203 0.94863 0.0
C1539 C 0.82059 0.9262 0.95876 0.0
C1540 C 0.80278 0.93013 0.97032 0.0
C1541 C 0.76537 0.92097 0.9716 0.0
C1542 C 0.92317 0.93887 0.96405 0.0
C1543 C 0.93269 0.96271 0.95423 0.0
C1544 C 0.88675 0.92684 0.96552 0.0
C1545 C 0.85938 0.93796 0.95707 0.0
C1546 C 0.86913 0.96079 0.94702 0.0
C1547 C 0.90541 0.97325 0.94565 0.0
H1548 H 0.26061 0.66209 0.18865 0.0
H1549 H 0.31662 0.69308 0.2226 0.0
H1550 H 0.28058 0.59806 0.19161 0.0
H1551 H 0.33597 0.62898 0.22561 0.0
H1552 H 0.31199 0.50154 0.23272 0.0
H1553 H 0.29749 0.56733 0.22972 0.0
H1554 H 0.34396 0.5627 0.19276 0.0
H1555 H 0.35862 0.4975 0.19576 0.0
C1556 C 0.27753 0.65529 0.19664 0.0
C1557 C 0.28717 0.6825 0.20536 0.0
C1558 C 0.28889 0.61876 0.19834 0.0
C1559 C 0.30949 0.60878 0.20889 0.0
C1560 C 0.31981 0.63607 0.21747 0.0
C1561 C 0.30905 0.67272 0.21566 0.0
C1562 C 0.3191 0.51474 0.224 0.0
C1563 C 0.33629 0.49463 0.21446 0.0
C1564 C 0.31108 0.55224 0.22231 0.0
C1565 C 0.31961 0.5698 0.211 0.0
C1566 C 0.33699 0.54966 0.20153 0.0
C1567 C 0.34554 0.51251 0.20329 0.0
H1568 H 0.4114 0.00433 0.9386 0.0
H1569 H 0.44352 0.0674 0.97099 0.0
H1570 H 0.34783 0.02588 0.94105 0.0
H1571 H 0.37981 0.08869 0.97345 0.0
H1572 H 0.25178 0.07283 0.98095 0.0
H1573 H 0.3173 0.05626 0.97872 0.0
H1574 H 0.31359 0.08759 0.93999 0.0
H1575 H 0.24865 0.10376 0.94215 0.0
C1576 C 0.40495 0.02309 0.94614 0.0
C1577 C 0.43239 0.03428 0.95457 0.0
C1578 C 0.36864 0.0354 0.94755 0.0
C1579 C 0.35903 0.05873 0.95749 0.0
C1580 C 0.38654 0.07043 0.96579 0.0
C1581 C 0.42299 0.05855 0.96428 0.0
C1582 C 0.26506 0.07608 0.97199 0.0
C1583 C 0.24514 0.08926 0.96171 0.0
C1584 C 0.30249 0.06695 0.97073 0.0
C1585 C 0.32026 0.0705 0.95915 0.0
C1586 C 0.30042 0.0843 0.94898 0.0
C1587 C 0.26335 0.09378 0.95026 0.0
H1588 H 0.6815 0.69205 0.72253 0.0
H1589 H 0.73977 0.66272 0.68882 0.0
H1590 H 0.6601 0.62837 0.72463 0.0
H1591 H 0.71802 0.59904 0.69093 0.0
H1592 H 0.63934 0.49969 0.69269 0.0
H1593 H 0.6561 0.56462 0.69063 0.0
H1594 H 0.693 0.56588 0.72881 0.0
H1595 H 0.67596 0.5005 0.73092 0.0
C1596 C 0.6893 0.67215 0.71547 0.0
C1597 C 0.7123 0.68234 0.70549 0.0
C1598 C 0.67732 0.63569 0.71676 0.0
C1599 C 0.68764 0.60891 0.70799 0.0
C1600 C 0.7096 0.6193 0.69779 0.0
C1601 C 0.72203 0.65566 0.69659 0.0
C1602 C 0.65071 0.51389 0.70069 0.0
C1603 C 0.65662 0.49509 0.71195 0.0
C1604 C 0.66053 0.55092 0.69946 0.0
C1605 C 0.67598 0.57006 0.70953 0.0
C1606 C 0.68101 0.55163 0.72092 0.0
C1607 C 0.67158 0.51428 0.72211 0.0
H1608 H 0.08368 0.98586 0.43867 0.0
H1609 H 0.05301 0.93094 0.47286 0.0
H1610 H 0.14738 0.96454 0.44133 0.0
H1611 H 0.11678 0.91021 0.47556 0.0
H1612 H 0.24476 0.93163 0.48207 0.0
H1613 H 0.17913 0.94712 0.47936 0.0
H1614 H 0.18175 0.90083 0.44236 0.0
H1615 H 0.24685 0.88524 0.44507 0.0
C1616 C 0.09048 0.96891 0.44665 0.0
C1617 C 0.06346 0.95998 0.45553 0.0
C1618 C 0.12682 0.95675 0.44817 0.0
C1619 C 0.13681 0.93604 0.45869 0.0
C1620 C 0.10969 0.92643 0.46743 0.0
C1621 C 0.07321 0.93801 0.4658 0.0
C1622 C 0.23116 0.92478 0.47341 0.0
C1623 C 0.25071 0.90744 0.46377 0.0
C1624 C 0.19374 0.93335 0.47188 0.0
C1625 C 0.17567 0.92519 0.46064 0.0
C1626 C 0.1952 0.90755 0.45108 0.0
C1627 C 0.2323 0.89846 0.45267 0.0
H1628 H 0.8543 0.49581 0.19506 0.0
H1629 H 0.81379 0.49065 0.23282 0.0
H1630 H 0.83677 0.4315 0.19184 0.0
H1631 H 0.7963 0.42567 0.22957 0.0
H1632 H 0.81075 0.29981 0.22093 0.0
H1633 H 0.83162 0.36323 0.22431 0.0
H1634 H 0.77268 0.39822 0.19146 0.0
H1635 H 0.75124 0.33484 0.18812 0.0
C1636 C 0.84196 0.48073 0.20272 0.0
C1637 C 0.83532 0.49804 0.2142 0.0
C1638 C 0.83173 0.44409 0.20082 0.0
C1639 C 0.81517 0.42388 0.21043 0.0
C1640 C 0.8092 0.44083 0.22204 0.0
C1641 C 0.81896 0.47786 0.22388 0.0
C1642 C 0.80263 0.32092 0.21433 0.0
C1643 C 0.77945 0.31244 0.20423 0.0
C1644 C 0.81427 0.35719 0.21636 0.0
C1645 C 0.80349 0.38541 0.2082 0.0
C1646 C 0.78136 0.37679 0.19786 0.0
C1647 C 0.76917 0.34062 0.19595 0.0
H1648 H 0.25283 0.92503 0.56587 0.0
H1649 H 0.2483 0.89265 0.60452 0.0
H1650 H 0.31831 0.94133 0.56839 0.0
H1651 H 0.31322 0.90863 0.60698 0.0
H1652 H 0.41184 0.99145 0.60877 0.0
H1653 H 0.34816 0.97026 0.60621 0.0
H1654 H 0.3802 0.90787 0.57372 0.0
H1655 H 0.44395 0.92872 0.57629 0.0
C1656 C 0.2658 0.92142 0.57486 0.0
C1657 C 0.24554 0.90784 0.585 0.0
C1658 C 0.3032 0.93041 0.57628 0.0
C1659 C 0.32057 0.92634 0.58791 0.0
C1660 C 0.30035 0.91229 0.59796 0.0
C1661 C 0.26331 0.90292 0.59651 0.0
C1662 C 0.40538 0.97283 0.60119 0.0
C1663 C 0.43283 0.96169 0.59276 0.0
C1664 C 0.36901 0.96073 0.59972 0.0
C1665 C 0.35939 0.9377 0.58971 0.0
C1666 C 0.38693 0.92594 0.58143 0.0
C1667 C 0.42342 0.93758 0.583 0.0
H1668 H 0.89001 0.50997 0.3292 0.0
H1669 H 0.7729 0.48664 0.3297 0.0
H1670 H 0.87693 0.57557 0.33243 0.0
H1671 H 0.75986 0.55196 0.33241 0.0
H1672 H 0.75093 0.65704 0.35463 0.0
H1673 H 0.76844 0.59344 0.35021 0.0
H1674 H 0.84863 0.63172 0.32335 0.0
H1675 H 0.83156 0.69556 0.32791 0.0
C1676 C 0.86148 0.51904 0.3296 0.0
C1677 C 0.8325 0.49324 0.32898 0.0
C1678 C 0.85401 0.55652 0.33146 0.0
C1679 C 0.8174 0.56877 0.33285 0.0
C1680 C 0.78839 0.5432 0.33157 0.0
C1681 C 0.79585 0.5058 0.32972 0.0
C1682 C 0.77266 0.65196 0.34791 0.0
C1683 C 0.78964 0.68131 0.34155 0.0
C1684 C 0.78241 0.61552 0.34528 0.0
C1685 C 0.8093 0.60762 0.33622 0.0
C1686 C 0.82774 0.63699 0.33035 0.0
C1687 C 0.818 0.67354 0.33299 0.0
H1688 H 0.0556 0.07016 0.07329 0.0
H1689 H 0.08366 0.0169 0.10801 0.0
H1690 H 0.1201 0.08869 0.0706 0.0
H1691 H 0.14804 0.03596 0.10536 0.0
H1692 H 0.25034 0.11076 0.10139 0.0
H1693 H 0.18463 0.09795 0.10395 0.0
H1694 H 0.18135 0.0497 0.06724 0.0
H1695 H 0.24762 0.06248 0.06466 0.0
C1696 C 0.07538 0.06306 0.08046 0.0
C1697 C 0.06469 0.04215 0.09088 0.0
C1698 C 0.11227 0.07333 0.07884 0.0
C1699 C 0.13886 0.06348 0.08773 0.0
C1700 C 0.12792 0.04393 0.0984 0.0
C1701 C 0.09118 0.03308 0.09992 0.0
C1702 C 0.23555 0.09769 0.09382 0.0
C1703 C 0.25399 0.08737 0.08285 0.0
C1704 C 0.19807 0.09021 0.09533 0.0
C1705 C 0.17815 0.07282 0.08581 0.0
C1706 C 0.19625 0.06331 0.07469 0.0
C1707 C 0.23406 0.0703 0.07325 0.0
H1708 H 0.63455 0.50128 0.85227 0.0
H1709 H 0.68201 0.49912 0.8154 0.0
H1710 H 0.64818 0.43569 0.85477 0.0
H1711 H 0.69562 0.43303 0.81793 0.0
H1712 H 0.67694 0.30724 0.82384 0.0
H1713 H 0.6575 0.3715 0.82131 0.0
H1714 H 0.71052 0.39965 0.856 0.0
H1715 H 0.73049 0.33548 0.85849 0.0
C1716 C 0.64761 0.48663 0.84465 0.0
C1717 C 0.65747 0.50518 0.83366 0.0
C1718 C 0.65557 0.44923 0.84613 0.0
C1719 C 0.67297 0.42953 0.83656 0.0
C1720 C 0.68201 0.44775 0.82542 0.0
C1721 C 0.67454 0.48546 0.82401 0.0
C1722 C 0.68394 0.327 0.83103 0.0
C1723 C 0.70521 0.31643 0.84138 0.0
C1724 C 0.67312 0.36376 0.82951 0.0
C1725 C 0.68279 0.39035 0.83842 0.0
C1726 C 0.70269 0.37952 0.84902 0.0
C1727 C 0.71408 0.3429 0.85044 0.0
H1728 H 0.08978 0.49996 0.60437 0.0
H1729 H 0.05175 0.41985 0.57741 0.0
H1730 H 0.15346 0.48193 0.6002 0.0
H1731 H 0.11552 0.40242 0.57307 0.0
H1732 H 0.23542 0.35855 0.57904 0.0
H1733 H 0.17016 0.3731 0.58219 0.0
H1734 H 0.19669 0.48954 0.58297 0.0
H1735 H 0.26175 0.47495 0.58036 0.0
C1736 C 0.09497 0.47826 0.59765 0.0
C1737 C 0.06574 0.46149 0.59117 0.0
C1738 C 0.13147 0.46824 0.59515 0.0
C1739 C 0.1395 0.44128 0.58612 0.0
C1740 C 0.11019 0.42328 0.58007 0.0
C1741 C 0.07366 0.43327 0.58258 0.0
C1742 C 0.22709 0.38727 0.5796 0.0
C1743 C 0.25363 0.4156 0.57921 0.0
C1744 C 0.18978 0.3956 0.58142 0.0
C1745 C 0.17839 0.43244 0.58298 0.0
C1746 C 0.20473 0.46084 0.58199 0.0
C1747 C 0.24199 0.45251 0.58019 0.0
H1748 H 0.85378 0.00271 0.8532 0.0
H1749 H 0.81989 -0.00154 0.81469 0.0
H1750 H 0.83993 0.93732 0.8555 0.0
H1751 H 0.80554 0.9325 0.81708 0.0
H1752 H 0.8204 0.80694 0.82448 0.0
H1753 H 0.83979 0.87117 0.82191 0.0
H1754 H 0.77977 0.90099 0.85514 0.0
H1755 H 0.76015 0.83685 0.85772 0.0
C1756 C 0.84363 0.9877 0.84518 0.0
C1757 C 0.83759 0.00572 0.83377 0.0
C1758 C 0.83546 0.95034 0.84655 0.0
C1759 C 0.82147 0.93005 0.8365 0.0
C1760 C 0.81641 0.94766 0.82496 0.0
C1761 C 0.82425 0.98535 0.82362 0.0
C1762 C 0.81179 0.82709 0.83134 0.0
C1763 C 0.78882 0.81691 0.84133 0.0
C1764 C 0.82258 0.86386 0.82978 0.0
C1765 C 0.81106 0.89092 0.83828 0.0
C1766 C 0.78914 0.88054 0.84849 0.0
C1767 C 0.77793 0.84389 0.84997 0.0
H1768 H 0.25622 0.56409 0.06435 0.0
H1769 H 0.25225 0.60288 0.10233 0.0
H1770 H 0.32093 0.5454 0.06739 0.0
H1771 H 0.31634 0.58421 0.10534 0.0
H1772 H 0.41292 0.49858 0.10842 0.0
H1773 H 0.34948 0.52031 0.1054 0.0
H1774 H 0.38343 0.57966 0.07249 0.0
H1775 H 0.44681 0.55848 0.07553 0.0
C1776 C 0.26921 0.56859 0.0733 0.0
C1777 C 0.24946 0.58486 0.08309 0.0
C1778 C 0.30608 0.55815 0.07502 0.0
C1779 C 0.32332 0.56334 0.08661 0.0
C1780 C 0.30352 0.57973 0.09636 0.0
C1781 C 0.26702 0.59064 0.09458 0.0
C1782 C 0.40689 0.51662 0.10064 0.0
C1783 C 0.43476 0.52693 0.09225 0.0
C1784 C 0.3707 0.52899 0.09891 0.0
C1785 C 0.36177 0.55133 0.08866 0.0
C1786 C 0.38969 0.56212 0.08038 0.0
C1787 C 0.42595 0.55029 0.08222 0.0
H1788 H 0.73598 0.16163 0.35779 0.0
H1789 H 0.67402 0.19158 0.32493 0.0
H1790 H 0.71556 0.09765 0.3555 0.0
H1791 H 0.65388 0.12746 0.32262 0.0
H1792 H 0.67384 -0.00014 0.31548 0.0
H1793 H 0.68812 0.06588 0.31769 0.0
H1794 H 0.65491 0.06163 0.35624 0.0
H1795 H 0.64107 0.99615 0.35411 0.0
C1796 C 0.71764 0.15463 0.35019 0.0
C1797 C 0.70653 0.18156 0.34157 0.0
C1798 C 0.70597 0.11807 0.34887 0.0
C1799 C 0.68338 0.10773 0.33883 0.0
C1800 C 0.67159 0.13476 0.33037 0.0
C1801 C 0.68282 0.17145 0.33178 0.0
C1802 C 0.66971 0.01311 0.3244 0.0
C1803 C 0.65674 0.99286 0.33464 0.0
C1804 C 0.6775 0.05084 0.32564 0.0
C1805 C 0.67276 0.06862 0.33716 0.0
C1806 C 0.6591 0.04847 0.3473 0.0
C1807 C 0.65096 0.01106 0.34603 0.0
H1808 H 0.23309 0.63875 0.96816 0.0
H1809 H 0.25779 0.52193 0.96742 0.0
H1810 H 0.16781 0.62503 0.96465 0.0
H1811 H 0.19272 0.50821 0.96448 0.0
H1812 H 0.08783 0.49818 0.94222 0.0
H1813 H 0.15127 0.516 0.94681 0.0
H1814 H 0.11189 0.59666 0.97332 0.0
H1815 H 0.04831 0.5794 0.96856 0.0
C1816 C 0.22438 0.61013 0.96766 0.0
C1817 C 0.25049 0.58144 0.96829 0.0
C1818 C 0.18706 0.60228 0.96563 0.0
C1819 C 0.17526 0.56557 0.96411 0.0
C1820 C 0.20112 0.53682 0.9654 0.0
C1821 C 0.23838 0.54466 0.9674 0.0
C1822 C 0.09266 0.52009 0.94889 0.0
C1823 C 0.06308 0.53719 0.95509 0.0
C1824 C 0.12901 0.53001 0.95163 0.0
C1825 C 0.13655 0.55715 0.96063 0.0
C1826 C 0.10693 0.57561 0.96636 0.0
C1827 C 0.07052 0.56576 0.9636 0.0
H1828 H 0.63624 0.97902 0.23033 0.0
H1829 H 0.70236 0.01218 0.19893 0.0
H1830 H 0.65319 0.91427 0.2266 0.0
H1831 H 0.71776 0.94824 0.19467 0.0
H1832 H 0.77015 0.83585 0.19773 0.0
H1833 H 0.75305 0.89933 0.20181 0.0
H1834 H 0.64368 0.86382 0.21289 0.0
H1835 H 0.66175 0.79959 0.20943 0.0
C1836 C 0.65464 0.97231 0.22271 0.0
C1837 C 0.66889 0.00029 0.2151 0.0
C1838 C 0.66395 0.93535 0.22044 0.0
C1839 C 0.68699 0.92593 0.21034 0.0
C1840 C 0.70079 0.95433 0.20272 0.0
C1841 C 0.69202 0.99106 0.20513 0.0
C1842 C 0.74227 0.84154 0.20088 0.0
C1843 C 0.71725 0.81271 0.20323 0.0
C1844 C 0.73239 0.87808 0.20321 0.0
C1845 C 0.69696 0.88685 0.20772 0.0
C1846 C 0.67145 0.85805 0.20967 0.0
C1847 C 0.6816 0.82129 0.20753 0.0
H1848 H 0.41358 0.49055 0.43933 0.0
H1849 H 0.44513 0.42965 0.47225 0.0
H1850 H 0.35008 0.46876 0.44173 0.0
H1851 H 0.38153 0.40809 0.47465 0.0
H1852 H 0.25356 0.42332 0.48181 0.0
H1853 H 0.31905 0.43988 0.4796 0.0
H1854 H 0.31572 0.40747 0.44097 0.0
H1855 H 0.25076 0.3914 0.4431 0.0
C1856 C 0.40704 0.47221 0.44699 0.0
C1857 C 0.4343 0.46175 0.45558 0.0
C1858 C 0.37076 0.45974 0.44836 0.0
C1859 C 0.361 0.43696 0.45842 0.0
C1860 C 0.38834 0.42594 0.46689 0.0
C1861 C 0.42476 0.438 0.46543 0.0
C1862 C 0.2669 0.41985 0.47288 0.0
C1863 C 0.24705 0.40644 0.46262 0.0
C1864 C 0.30433 0.42896 0.47163 0.0
C1865 C 0.32221 0.42513 0.46008 0.0
C1866 C 0.30247 0.41102 0.44993 0.0
C1867 C 0.26537 0.40158 0.4512 0.0
H1868 H 0.75675 0.16251 0.68802 0.0
H1869 H 0.8126 0.19337 0.72201 0.0
H1870 H 0.77756 0.09866 0.69079 0.0
H1871 H 0.83281 0.12945 0.72482 0.0
H1872 H 0.81174 0.00151 0.73156 0.0
H1873 H 0.79576 0.06703 0.72879 0.0
H1874 H 0.84139 0.06429 0.6917 0.0
H1875 H 0.8575 -0.00067 0.69446 0.0
C1876 C 0.77378 0.15572 0.69599 0.0
C1877 C 0.78318 0.18285 0.70477 0.0
C1878 C 0.78562 0.11929 0.69757 0.0
C1879 C 0.80648 0.10931 0.70806 0.0
C1880 C 0.81646 0.13652 0.71672 0.0
C1881 C 0.80521 0.17308 0.71502 0.0
C1882 C 0.81832 0.01505 0.72286 0.0
C1883 C 0.83569 0.99552 0.71322 0.0
C1884 C 0.80946 0.05242 0.7213 0.0
C1885 C 0.81733 0.07044 0.71002 0.0
C1886 C 0.83489 0.05089 0.70044 0.0
C1887 C 0.84427 0.01387 0.70207 0.0
H1888 H 0.946 0.56841 0.47157 0.0
H1889 H 0.91498 0.50685 0.43874 0.0
H1890 H 0.88217 0.58945 0.47394 0.0
H1891 H 0.8513 0.52815 0.44109 0.0
H1892 H 0.7512 0.60453 0.44246 0.0
H1893 H 0.81641 0.58948 0.44034 0.0
H1894 H 0.81997 0.55622 0.47888 0.0
H1895 H 0.75421 0.57172 0.48109 0.0
C1896 C 0.9257 0.55988 0.46475 0.0
C1897 C 0.93542 0.53604 0.45494 0.0
C1898 C 0.88917 0.57161 0.46619 0.0
C1899 C 0.86194 0.56021 0.45774 0.0
C1900 C 0.8719 0.53744 0.4477 0.0
C1901 C 0.90827 0.52526 0.44636 0.0
C1902 C 0.76591 0.59436 0.45054 0.0
C1903 C 0.74758 0.58894 0.46193 0.0
C1904 C 0.80315 0.58553 0.44928 0.0
C1905 C 0.82302 0.57151 0.45941 0.0
C1906 C 0.80513 0.56711 0.47094 0.0
C1907 C 0.76755 0.57559 0.47217 0.0
H1908 H 0.16763 0.1958 0.22028 0.0
H1909 H 0.24483 0.16058 0.19195 0.0
H1910 H 0.15047 0.13162 0.22403 0.0
H1911 H 0.22707 0.09653 0.19553 0.0
H1912 H 0.22346 0.98688 0.21481 0.0
H1913 H 0.23703 0.05217 0.2123 0.0
H1914 H 0.12049 0.07739 0.21474 0.0
H1915 H 0.10702 0.01182 0.2178 0.0
C1916 C 0.18042 0.17445 0.21468 0.0
C1917 C 0.20785 0.18323 0.20589 0.0
C1918 C 0.17058 0.13768 0.21685 0.0
C1919 C 0.18794 0.10903 0.21025 0.0
C1920 C 0.21392 0.11799 0.20099 0.0
C1921 C 0.2238 0.1547 0.19885 0.0
C1922 C 0.20084 0.00637 0.21534 0.0
C1923 C 0.16422 0.9943 0.21681 0.0
C1924 C 0.20854 0.04377 0.2136 0.0
C1925 C 0.17977 0.06984 0.21314 0.0
C1926 C 0.14326 0.05797 0.2151 0.0
C1927 C 0.13555 0.0205 0.21686 0.0
H1928 H 0.54898 0.41841 0.96899 0.0
H1929 H 0.58677 0.49805 0.94183 0.0
H1930 H 0.61282 0.40158 0.97346 0.0
H1931 H 0.65051 0.48056 0.94609 0.0
H1932 H 0.75847 0.47573 0.966 0.0
H1933 H 0.69336 0.48936 0.96314 0.0
H1934 H 0.66808 0.37273 0.96493 0.0
H1935 H 0.73338 0.3592 0.96842 0.0
C1936 C 0.57086 0.43177 0.96378 0.0
C1937 C 0.56286 0.45978 0.95512 0.0
C1938 C 0.60745 0.42215 0.96637 0.0
C1939 C 0.63671 0.44026 0.96031 0.0
C1940 C 0.62858 0.46684 0.95117 0.0
C1941 C 0.59205 0.47656 0.94862 0.0
C1942 C 0.73899 0.45308 0.96635 0.0
C1943 C 0.75101 0.41641 0.96772 0.0
C1944 C 0.70168 0.46084 0.96439 0.0
C1945 C 0.67565 0.43207 0.9636 0.0
C1946 C 0.68742 0.39551 0.96553 0.0
C1947 C 0.72477 0.38777 0.96753 0.0
H1948 H 0.32703 0.79753 0.71837 0.0
H1949 H 0.24553 0.83804 0.69231 0.0
H1950 H 0.34407 0.86093 0.72348 0.0
H1951 H 0.26313 0.90131 0.69724 0.0
H1952 H 0.26975 0.0074 0.71801 0.0
H1953 H 0.25571 0.9424 0.71502 0.0
H1954 H 0.37242 0.91699 0.71502 0.0
H1955 H 0.38646 0.98216 0.71858 0.0
C1956 C 0.31326 0.81993 0.71355 0.0
C1957 C 0.28473 0.81279 0.70499 0.0
C1958 C 0.32298 0.85625 0.71651 0.0
C1959 C 0.30442 0.88608 0.71096 0.0
C1960 C 0.27722 0.87887 0.70194 0.0
C1961 C 0.26745 0.84262 0.699 0.0
C1962 C 0.2924 0.98788 0.71795 0.0
C1963 C 0.32923 -0.00016 0.71878 0.0
C1964 C 0.28437 0.95066 0.71592 0.0
C1965 C 0.31299 0.92469 0.71456 0.0
C1966 C 0.34976 0.93631 0.71606 0.0
C1967 C 0.35779 0.97358 0.71812 0.0
H1968 H 0.77034 0.37713 0.06949 0.0
H1969 H 0.7337 0.47184 0.09048 0.0
H1970 H 0.83468 0.39498 0.07317 0.0
H1971 H 0.79684 0.48827 0.09495 0.0
H1972 H 0.91251 0.52979 0.09253 0.0
H1973 H 0.85 0.51263 0.08719 0.0
H1974 H 0.88082 0.39701 0.08831 0.0
H1975 H 0.94464 0.41483 0.09276 0.0
C1976 C 0.77615 0.40196 0.07478 0.0
C1977 C 0.74716 0.42364 0.07945 0.0
C1978 C 0.8129 0.41191 0.07707 0.0
C1979 C 0.82119 0.44315 0.08438 0.0
C1980 C 0.79187 0.46467 0.089 0.0
C1981 C 0.75541 0.45524 0.08644 0.0
C1982 C 0.90587 0.50066 0.09179 0.0
C1983 C 0.93329 0.47356 0.0932 0.0
C1984 C 0.86987 0.49073 0.08874 0.0
C1985 C 0.86002 0.45334 0.08737 0.0
C1986 C 0.88742 0.42611 0.08905 0.0
C1987 C 0.92386 0.43619 0.09179 0.0
H1988 H 0.21932 0.16089 0.84555 0.0
H1989 H 0.33195 0.19616 0.83938 0.0
H1990 H 0.23607 0.09821 0.84029 0.0
H1991 H 0.34962 0.13232 0.83487 0.0
H1992 H 0.36237 0.01975 0.81607 0.0
H1993 H 0.34518 0.08429 0.82007 0.0
H1994 H 0.26651 0.04722 0.84775 0.0
H1995 H 0.28215 0.98386 0.84312 0.0
C1996 C 0.24799 0.15502 0.84339 0.0
C1997 C 0.27442 0.18338 0.84298 0.0
C1998 C 0.25767 0.11892 0.84038 0.0
C1999 C 0.2943 0.10997 0.83719 0.0
C2000 C 0.32102 0.13826 0.83706 0.0
C2001 C 0.31107 0.17473 0.83982 0.0
C2002 C 0.34075 0.02578 0.82274 0.0
C2003 C 0.32264 0.99703 0.829 0.0
C2004 C 0.33128 0.0626 0.8252 0.0
C2005 C 0.30424 0.07111 0.8342 0.0
C2006 C 0.28658 0.04197 0.84048 0.0
C2007 C 0.29548 0.00546 0.83783 0.0
H2008 H 0.74991 0.60724 0.60193 0.0
H2009 H 0.74578 0.56157 0.56484 0.0
H2010 H 0.68477 0.59243 0.60492 0.0
H2011 H 0.68002 0.54688 0.56785 0.0
H2012 H 0.55427 0.56607 0.57515 0.0
H2013 H 0.61839 0.58532 0.57211 0.0
H2014 H 0.64947 0.52907 0.60594 0.0
H2015 H 0.58542 0.50921 0.60893 0.0
C2016 C 0.7349 0.59432 0.59437 0.0
C2017 C 0.75274 0.5854 0.58316 0.0
C2018 C 0.69778 0.58568 0.59613 0.0
C2019 C 0.67763 0.56853 0.58663 0.0
C2020 C 0.69513 0.56029 0.57528 0.0
C2021 C 0.73261 0.56841 0.57359 0.0
C2022 C 0.57466 0.5583 0.58205 0.0
C2023 C 0.56493 0.53622 0.59231 0.0
C2024 C 0.61133 0.56899 0.58022 0.0
C2025 C 0.63866 0.55838 0.58874 0.0
C2026 C 0.62873 0.53758 0.59925 0.0
C2027 C 0.59219 0.5263 0.60097 0.0
H2028 H 0.22495 0.00757 0.33154 0.0
H2029 H 0.1095 0.97816 0.32873 0.0
H2030 H 0.24086 0.94317 0.33464 0.0
H2031 H 0.12526 0.91358 0.33257 0.0
H2032 H 0.17446 0.79618 0.32933 0.0
H2033 H 0.15575 0.85922 0.32454 0.0
H2034 H 0.23375 0.90046 0.35164 0.0
H2035 H 0.2533 0.83746 0.35615 0.0
C2036 C 0.20303 0.98729 0.33116 0.0
C2037 C 0.16599 0.9979 0.32959 0.0
C2038 C 0.21208 0.95037 0.33327 0.0
C2039 C 0.18426 0.92335 0.33407 0.0
C2040 C 0.14736 0.9337 0.33196 0.0
C2041 C 0.13833 0.97064 0.32976 0.0
C2042 C 0.18724 0.81867 0.3344 0.0
C2043 C 0.21558 0.81191 0.34305 0.0
C2044 C 0.17652 0.85481 0.33164 0.0
C2045 C 0.19376 0.88485 0.33753 0.0
C2046 C 0.22069 0.87793 0.34667 0.0
C2047 C 0.23158 0.84183 0.34937 0.0
H2048 H 0.32991 0.85188 0.17817 0.0
H2049 H 0.22729 0.89552 0.16406 0.0
H2050 H 0.36356 0.88227 0.1612 0.0
H2051 H 0.26067 0.9263 0.14718 0.0
H2052 H 0.32836 0.94476 0.11164 0.0
H2053 H 0.29594 0.91171 0.12821 0.0
H2054 H 0.37967 0.94596 0.15441 0.0
H2055 H 0.41173 0.97943 0.13782 0.0
C2056 C 0.31464 0.86798 0.17141 0.0
C2057 C 0.27614 0.87171 0.17245 0.0
C2058 C 0.33385 0.88556 0.16175 0.0
C2059 C 0.31485 0.90686 0.15284 0.0
C2060 C 0.27616 0.90991 0.15381 0.0
C2061 C 0.25705 0.89256 0.16352 0.0
C2062 C 0.33977 0.94522 0.12095 0.0
C2063 C 0.3727 0.96444 0.12342 0.0
C2064 C 0.32119 0.92636 0.13045 0.0
C2065 C 0.3352 0.92613 0.14265 0.0
C2066 C 0.3684 0.9451 0.14509 0.0
C2067 C 0.38682 0.96421 0.13558 0.0
H2068 H 0.32622 0.04531 0.43514 0.0
H2069 H 0.40903 0.01153 0.40861 0.0
H2070 H 0.29327 0.07865 0.41877 0.0
H2071 H 0.37647 0.04543 0.39221 0.0
H2072 H 0.32532 0.14055 0.36906 0.0
H2073 H 0.3597 0.1097 0.38578 0.0
H2074 H 0.25765 0.06375 0.3998 0.0
H2075 H 0.22354 0.09488 0.38316 0.0
C2076 C 0.33741 0.04513 0.4258 0.0
C2077 C 0.37031 0.02603 0.42317 0.0
C2078 C 0.31853 0.06416 0.41641 0.0
C2079 C 0.33221 0.06474 0.40417 0.0
C2080 C 0.36543 0.04598 0.40157 0.0
C2081 C 0.38415 0.02665 0.41096 0.0
C2082 C 0.31039 0.12391 0.37577 0.0
C2083 C 0.27192 0.11975 0.3748 0.0
C2084 C 0.33002 0.10607 0.38528 0.0
C2085 C 0.31145 0.08414 0.39411 0.0
C2086 C 0.27279 0.08063 0.39322 0.0
C2087 C 0.25327 0.09819 0.38366 0.0
H2088 H 0.096 0.07626 0.62124 0.0
H2089 H 0.15033 0.97581 0.63269 0.0
H2090 H 0.12745 0.11015 0.63792 0.0
H2091 H 0.1819 0.00939 0.6493 0.0
H2092 H 0.26431 0.08849 0.66749 0.0
H2093 H 0.23065 0.05621 0.65107 0.0
H2094 H 0.13143 0.11605 0.66081 0.0
H2095 H 0.16535 0.14815 0.67734 0.0
C2096 C 0.1145 0.06145 0.62739 0.0
C2097 C 0.12125 0.0236 0.62557 0.0
C2098 C 0.13247 0.08078 0.63695 0.0
C2099 C 0.15759 0.0626 0.64487 0.0
C2100 C 0.1634 0.02445 0.64321 0.0
C2101 C 0.14531 0.00517 0.63372 0.0
C2102 C 0.23524 0.09449 0.66617 0.0
C2103 C 0.21728 0.12038 0.6738 0.0
C2104 C 0.21592 0.07601 0.65677 0.0
C2105 C 0.17819 0.08322 0.65469 0.0
C2106 C 0.16048 0.10994 0.66212 0.0
C2107 C 0.17984 0.1283 0.67158 0.0
H2108 H 0.26891 0.90185 0.88178 0.0
H2109 H 0.16908 0.84848 0.86928 0.0
H2110 H 0.23403 0.93403 0.89797 0.0
H2111 H 0.13392 0.88032 0.88563 0.0
H2112 H 0.09453 0.91952 0.92515 0.0
H2113 H 0.12696 0.88479 0.90884 0.0
H2114 H 0.18654 0.98363 0.89857 0.0
H2115 H 0.15379 0.01817 0.91469 0.0
C2116 C 0.23941 0.89718 0.88249 0.0
C2117 C 0.22151 0.87338 0.87412 0.0
C2118 C 0.21941 0.91557 0.89175 0.0
C2119 C 0.18106 0.91018 0.89299 0.0
C2120 C 0.16341 0.88508 0.88494 0.0
C2121 C 0.18346 0.8669 0.87558 0.0
C2122 C 0.11431 0.93378 0.9193 0.0
C2123 C 0.12213 0.97136 0.92131 0.0
C2124 C 0.13288 0.91394 0.90998 0.0
C2125 C 0.15975 0.93131 0.90252 0.0
C2126 C 0.16664 0.9692 0.90432 0.0
C2127 C 0.14789 0.989 0.91354 0.0
H2128 H 0.66381 0.15217 0.87018 0.0
H2129 H 0.76403 0.09614 0.88094 0.0
H2130 H 0.62982 0.11913 0.88653 0.0
H2131 H 0.73029 0.06287 0.89714 0.0
H2132 H 0.65085 0.97864 0.91411 0.0
H2133 H 0.6825 0.01402 0.89794 0.0
H2134 H 0.62488 0.11267 0.90963 0.0
H2135 H 0.5935 0.07705 0.92594 0.0
C2136 C 0.67856 0.13297 0.87611 0.0
C2137 C 0.71637 0.12621 0.87419 0.0
C2138 C 0.65916 0.11407 0.88546 0.0
C2139 C 0.67723 0.08796 0.89303 0.0
C2140 C 0.71534 0.08215 0.8913 0.0
C2141 C 0.73469 0.10121 0.88204 0.0
C2142 C 0.64515 0.00794 0.91325 0.0
C2143 C 0.62024 0.02527 0.92139 0.0
C2144 C 0.66327 0.02823 0.90401 0.0
C2145 C 0.65659 0.06631 0.90258 0.0
C2146 C 0.63059 0.08339 0.91045 0.0
C2147 C 0.61264 0.06305 0.91978 0.0
H2148 H 0.69843 0.91773 0.68482 0.0
H2149 H 0.73405 0.83571 0.65828 0.0
H2150 H 0.66442 0.94998 0.66843 0.0
H2151 H 0.69945 0.86752 0.64189 0.0
H2152 H 0.60334 0.91668 0.61872 0.0
H2153 H 0.63464 0.88294 0.6355 0.0
H2154 H 0.67891 0.98585 0.64941 0.0
H2155 H 0.6474 0.01928 0.6327 0.0
C2156 C 0.69886 0.90656 0.67547 0.0
C2157 C 0.71866 0.87407 0.67284 0.0
C2158 C 0.67944 0.92503 0.66608 0.0
C2159 C 0.67917 0.91133 0.65384 0.0
C2160 C 0.69865 0.87853 0.65125 0.0
C2161 C 0.71838 0.86024 0.66063 0.0
C2162 C 0.61969 0.93192 0.62542 0.0
C2163 C 0.6233 0.97043 0.6244 0.0
C2164 C 0.63777 0.91267 0.63497 0.0
C2165 C 0.65939 0.93168 0.64378 0.0
C2166 C 0.66228 0.97038 0.64285 0.0
C2167 C 0.64449 0.98951 0.63325 0.0
H2168 H 0.7306 0.90056 0.38193 0.0
H2169 H 0.8307 0.84523 0.37063 0.0
H2170 H 0.76456 0.93294 0.39827 0.0
H2171 H 0.86491 0.87737 0.3871 0.0
H2172 H 0.90219 0.91698 0.42662 0.0
H2173 H 0.87044 0.88242 0.41015 0.0
H2174 H 0.81213 0.98166 0.39947 0.0
H2175 H 0.8441 0.01597 0.41581 0.0
C2176 C 0.75996 0.89548 0.38294 0.0
C2177 C 0.77817 0.8709 0.3749 0.0
C2178 C 0.77944 0.91402 0.39228 0.0
C2179 C 0.81758 0.90811 0.39391 0.0
C2180 C 0.83555 0.88248 0.38613 0.0
C2181 C 0.81602 0.8641 0.3767 0.0
C2182 C 0.88279 0.93133 0.42066 0.0
C2183 C 0.8751 0.96896 0.42261 0.0
C2184 C 0.86464 0.91161 0.41123 0.0
C2185 C 0.83836 0.92915 0.40359 0.0
C2186 C 0.83157 0.96708 0.40536 0.0
C2187 C 0.84987 0.98677 0.4147 0.0
H2188 H 0.84337 0.98229 0.13045 0.0
H2189 H 0.90099 0.08206 0.12013 0.0
H2190 H 0.80987 0.01615 0.14657 0.0
H2191 H 0.86799 0.11603 0.1365 0.0
H2192 H 0.82559 0.14981 0.17639 0.0
H2193 H 0.86126 0.11882 0.15999 0.0
H2194 H 0.76154 0.06603 0.14689 0.0
H2195 H 0.72605 0.09756 0.16309 0.0
C2196 C 0.84876 0.01154 0.13163 0.0
C2197 C 0.87426 0.02971 0.12391 0.0
C2198 C 0.82961 0.03094 0.14085 0.0
C2199 C 0.83593 0.06889 0.14272 0.0
C2200 C 0.86254 0.0868 0.1353 0.0
C2201 C 0.88144 0.0674 0.12596 0.0
C2202 C 0.81139 0.1318 0.16992 0.0
C2203 C 0.77327 0.12537 0.17115 0.0
C2204 C 0.83174 0.11411 0.16054 0.0
C2205 C 0.81432 0.08953 0.15226 0.0
C2206 C 0.77593 0.08415 0.15329 0.0
C2207 C 0.75561 0.10212 0.16256 0.0
H2208 H 0.83122 0.44419 0.61113 0.0
H2209 H 0.90899 0.48315 0.63854 0.0
H2210 H 0.79808 0.40981 0.62722 0.0
H2211 H 0.87619 0.44839 0.65468 0.0
H2212 H 0.82654 0.35348 0.67807 0.0
H2213 H 0.8616 0.38428 0.66149 0.0
H2214 H 0.7594 0.42353 0.64545 0.0
H2215 H 0.72467 0.39239 0.66194 0.0
C2216 C 0.84128 0.44525 0.62061 0.0
C2217 C 0.87283 0.46608 0.62357 0.0
C2218 C 0.82228 0.42564 0.62983 0.0
C2219 C 0.83446 0.4263 0.64226 0.0
C2220 C 0.86637 0.44682 0.64518 0.0
C2221 C 0.88522 0.46667 0.63594 0.0
C2222 C 0.81174 0.36857 0.67093 0.0
C2223 C 0.77303 0.37092 0.67129 0.0
C2224 C 0.83174 0.38639 0.6615 0.0
C2225 C 0.81334 0.40652 0.65216 0.0
C2226 C 0.77446 0.40806 0.65243 0.0
C2227 C 0.75456 0.39048 0.6619 0.0
H2228 H 0.7637 0.66344 0.88884 0.0
H2229 H 0.79804 0.58038 0.86248 0.0
H2230 H 0.79754 0.63125 0.90533 0.0
H2231 H 0.83137 0.5478 0.87895 0.0
H2232 H 0.84812 0.47878 0.9147 0.0
H2233 H 0.81687 0.51236 0.89797 0.0
H2234 H 0.86169 0.61504 0.91187 0.0
H2235 H 0.89263 0.58118 0.92868 0.0
C2236 C 0.77892 0.63857 0.88655 0.0
C2237 C 0.77849 0.62457 0.87436 0.0
C2238 C 0.79823 0.62007 0.89598 0.0
C2239 C 0.81718 0.5869 0.89347 0.0
C2240 C 0.81674 0.57302 0.88125 0.0
C2241 C 0.79772 0.59169 0.87181 0.0
C2242 C 0.85116 0.50854 0.91416 0.0
C2243 C 0.87242 0.52751 0.92302 0.0
C2244 C 0.83353 0.52776 0.90454 0.0
C2245 C 0.83668 0.56644 0.90359 0.0
C2246 C 0.85833 0.58533 0.91242 0.0
C2247 C 0.87623 0.566 0.92198 0.0
H2248 H 0.58901 0.50521 0.13914 0.0
H2249 H 0.66716 0.54527 0.11201 0.0
H2250 H 0.62124 0.5398 0.15544 0.0
H2251 H 0.69974 0.57943 0.12826 0.0
H2252 H 0.77205 0.59803 0.16306 0.0
H2253 H 0.73811 0.56623 0.14653 0.0
H2254 H 0.63501 0.60383 0.1624 0.0
H2255 H 0.6693 0.63525 0.17902 0.0
C2256 C 0.61273 0.52189 0.13664 0.0
C2257 C 0.62535 0.52289 0.12429 0.0
C2258 C 0.63128 0.54162 0.14597 0.0
C2259 C 0.66312 0.56243 0.14317 0.0
C2260 C 0.6756 0.56338 0.13078 0.0
C2261 C 0.65692 0.54389 0.12146 0.0
C2262 C 0.74213 0.59937 0.16298 0.0
C2263 C 0.72319 0.61865 0.17234 0.0
C2264 C 0.72267 0.58143 0.15349 0.0
C2265 C 0.68377 0.58234 0.15315 0.0
C2266 C 0.6649 0.60216 0.16247 0.0
C2267 C 0.68445 0.62034 0.17192 0.0
H2268 H 0.59611 0.41787 0.42596 0.0
H2269 H 0.65254 0.51743 0.41474 0.0
H2270 H 0.62722 0.38362 0.40927 0.0
H2271 H 0.68377 0.48348 0.39815 0.0
H2272 H 0.76503 0.40332 0.37997 0.0
H2273 H 0.73168 0.43572 0.39644 0.0
H2274 H 0.63154 0.37806 0.38633 0.0
H2275 H 0.66515 0.34583 0.36974 0.0
C2276 C 0.615 0.43241 0.41986 0.0
C2277 C 0.62242 0.47011 0.42175 0.0
C2278 C 0.63277 0.41287 0.4103 0.0
C2279 C 0.65838 0.43068 0.40246 0.0
C2280 C 0.66488 0.46869 0.40418 0.0
C2281 C 0.64698 0.48817 0.41367 0.0
C2282 C 0.73583 0.39781 0.38122 0.0
C2283 C 0.71753 0.3725 0.37347 0.0
C2284 C 0.71669 0.41636 0.39065 0.0
C2285 C 0.67879 0.40983 0.39264 0.0
C2286 C 0.66072 0.38364 0.3851 0.0
C2287 C 0.67991 0.36521 0.3756 0.0
H2288 H 0.17081 0.64823 0.37037 0.0
H2289 H 0.27117 0.59653 0.3832 0.0
H2290 H 0.13582 0.61627 0.38673 0.0
H2291 H 0.23639 0.56408 0.39936 0.0
H2292 H 0.15605 0.47872 0.41563 0.0
H2293 H 0.18885 0.51365 0.39961 0.0
H2294 H 0.12931 0.61226 0.41016 0.0
H2295 H 0.09698 0.5772 0.42641 0.0
C2296 C 0.18534 0.63015 0.37674 0.0
C2297 C 0.22348 0.62413 0.37537 0.0
C2298 C 0.16538 0.6119 0.3861 0.0
C2299 C 0.18324 0.58717 0.39422 0.0
C2300 C 0.22167 0.58227 0.39308 0.0
C2301 C 0.24158 0.60079 0.38383 0.0
C2302 C 0.1502 0.50792 0.41458 0.0
C2303 C 0.1245 0.52542 0.4224 0.0
C2304 C 0.16896 0.52794 0.40541 0.0
C2305 C 0.16204 0.56586 0.40371 0.0
C2306 C 0.13523 0.58308 0.41122 0.0
C2307 C 0.11672 0.56306 0.42051 0.0
H2308 H 0.10586 0.42327 0.11897 0.0
H2309 H 0.14858 0.52506 0.13404 0.0
H2310 H 0.13575 0.38857 0.1358 0.0
H2311 H 0.17888 0.49066 0.15078 0.0
H2312 H 0.19678 0.4207 0.1858 0.0
H2313 H 0.16397 0.45405 0.1694 0.0
H2314 H 0.19925 0.37222 0.14266 0.0
H2315 H 0.23245 0.33921 0.1591 0.0
C2316 C 0.12166 0.43812 0.12592 0.0
C2317 C 0.12535 0.47668 0.12518 0.0
C2318 C 0.13895 0.41833 0.13549 0.0
C2319 C 0.15988 0.4368 0.14462 0.0
C2320 C 0.1628 0.47556 0.14397 0.0
C2321 C 0.14573 0.49526 0.13435 0.0
C2322 C 0.19748 0.4099 0.17641 0.0
C2323 C 0.21689 0.37722 0.17374 0.0
C2324 C 0.17877 0.42902 0.16701 0.0
C2325 C 0.17893 0.41582 0.1547 0.0
C2326 C 0.1981 0.38286 0.15206 0.0
C2327 C 0.21704 0.36389 0.16147 0.0
H2328 H 0.34013 0.51743 0.91696 0.0
H2329 H 0.39773 0.41732 0.92686 0.0
H2330 H 0.30716 0.48435 0.90056 0.0
H2331 H 0.36484 0.38394 0.91038 0.0
H2332 H 0.32336 0.34836 0.87107 0.0
H2333 H 0.35834 0.37947 0.88757 0.0
H2334 H 0.25921 0.43687 0.89895 0.0
H2335 H 0.22454 0.40565 0.88253 0.0
C2336 C 0.34557 0.48824 0.91564 0.0
C2337 C 0.37104 0.46979 0.92329 0.0
C2338 C 0.32666 0.46925 0.90627 0.0
C2339 C 0.33299 0.43134 0.90424 0.0
C2340 C 0.3594 0.41314 0.91166 0.0
C2341 C 0.37821 0.43219 0.92109 0.0
C2342 C 0.30914 0.36746 0.87718 0.0
C2343 C 0.27144 0.37512 0.87542 0.0
C2344 C 0.3291 0.38523 0.88663 0.0
C2345 C 0.31171 0.41105 0.8945 0.0
C2346 C 0.27369 0.41781 0.8929 0.0
C2347 C 0.25379 0.39993 0.88351 0.0
H2348 H 0.32877 0.64956 0.67612 0.0
H2349 H 0.22971 0.59105 0.66565 0.0
H2350 H 0.36303 0.61778 0.6596 0.0
H2351 H 0.26367 0.55921 0.6492 0.0
H2352 H 0.34393 0.4787 0.6308 0.0
H2353 H 0.31158 0.51209 0.64728 0.0
H2354 H 0.36849 0.61243 0.63686 0.0
H2355 H 0.40079 0.57872 0.62032 0.0
C2356 C 0.31432 0.63006 0.67022 0.0
C2357 C 0.27675 0.62235 0.67226 0.0
C2358 C 0.33388 0.61189 0.66075 0.0
C2359 C 0.31624 0.58559 0.65314 0.0
C2360 C 0.27837 0.57865 0.65504 0.0
C2361 C 0.25887 0.5969 0.66445 0.0
C2362 C 0.34931 0.50795 0.632 0.0
C2363 C 0.37442 0.52627 0.62418 0.0
C2364 C 0.33076 0.52712 0.64142 0.0
C2365 C 0.33708 0.56509 0.64333 0.0
C2366 C 0.36307 0.58319 0.6357 0.0
C2367 C 0.38154 0.56395 0.62623 0.0
H2368 H 0.53025 0.13416 0.10415 0.0
H2369 H 0.42467 0.17102 0.08997 0.0
H2370 H 0.54941 0.19865 0.1066 0.0
H2371 H 0.44387 0.23472 0.09226 0.0
H2372 H 0.47663 0.34765 0.10503 0.0
H2373 H 0.45893 0.28285 0.10715 0.0
H2374 H 0.56512 0.24954 0.09256 0.0
H2375 H 0.58312 0.314 0.09067 0.0
C2376 C 0.51104 0.15589 0.10165 0.0
C2377 C 0.47596 0.1473 0.09683 0.0
C2378 C 0.52205 0.19282 0.10302 0.0
C2379 C 0.49813 0.22184 0.09964 0.0
C2380 C 0.46277 0.21314 0.09515 0.0
C2381 C 0.45186 0.17643 0.09375 0.0
C2382 C 0.49637 0.32651 0.10242 0.0
C2383 C 0.53114 0.33611 0.09755 0.0
C2384 C 0.48618 0.28937 0.10359 0.0
C2385 C 0.51052 0.26102 0.09993 0.0
C2386 C 0.54584 0.27062 0.09557 0.0
C2387 C 0.55602 0.30769 0.0944 0.0
H2388 H 0.88707 0.21727 0.35255 0.0
H2389 H 0.92259 0.32436 0.33926 0.0
H2390 H 0.95165 0.19861 0.35478 0.0
H2391 H 0.98663 0.30545 0.3412 0.0
H2392 H 0.10042 0.27139 0.35355 0.0
H2393 H 0.03567 0.28967 0.35547 0.0
H2394 H 0.00194 0.18369 0.34083 0.0
H2395 H 0.06622 0.16511 0.3392 0.0
C2396 C 0.90856 0.23688 0.35017 0.0
C2397 C 0.89957 0.2722 0.34564 0.0
C2398 C 0.94557 0.22614 0.35139 0.0
C2399 C 0.97435 0.25049 0.34813 0.0
C2400 C 0.96526 0.28615 0.34396 0.0
C2401 C 0.9284 0.29687 0.34275 0.0
C2402 C 0.07916 0.25187 0.35087 0.0
C2403 C 0.08859 0.21691 0.34613 0.0
C2404 C 0.04206 0.2624 0.35192 0.0
C2405 C 0.01359 0.2382 0.34825 0.0
C2406 C 0.02307 0.20285 0.34389 0.0
C2407 C 0.06006 0.19233 0.34285 0.0
H2408 H 0.92119 0.67383 0.58884 0.0
H2409 H 0.0265 0.64071 0.60424 0.0
H2410 H 0.93874 0.73819 0.59068 0.0
H2411 H 0.04393 0.70579 0.60625 0.0
H2412 H 0.07718 0.81992 0.58991 0.0
H2413 H 0.0596 0.75546 0.59182 0.0
H2414 H 0.95177 0.78821 0.60514 0.0
H2415 H 0.96918 0.8532 0.60302 0.0
C2416 C 0.94796 0.68021 0.59278 0.0
C2417 C 0.9725 0.65192 0.59634 0.0
C2418 C 0.9579 0.7173 0.59392 0.0
C2419 C 0.9927 0.7272 0.59862 0.0
C2420 C 0.01701 0.69903 0.60248 0.0
C2421 C 0.00699 0.66175 0.60137 0.0
C2422 C 0.04976 0.81354 0.59334 0.0
C2423 C 0.02446 0.84186 0.59621 0.0
C2424 C 0.03982 0.77645 0.59454 0.0
C2425 C 0.00429 0.76663 0.59862 0.0
C2426 C 0.97926 0.79489 0.60184 0.0
C2427 C 0.98925 0.83212 0.60066 0.0
H2428 H 0.6092 0.78401 0.85237 0.0
H2429 H 0.573 0.67567 0.84055 0.0
H2430 H 0.54452 0.80324 0.85437 0.0
H2431 H 0.50922 0.69489 0.84236 0.0
H2432 H 0.39632 0.72865 0.85474 0.0
H2433 H 0.46135 0.71211 0.85699 0.0
H2434 H 0.49302 0.81583 0.84015 0.0
H2435 H 0.42824 0.83274 0.83814 0.0
C2436 C 0.58758 0.76425 0.85029 0.0
C2437 C 0.59641 0.72833 0.84627 0.0
C2438 C 0.55056 0.77529 0.85139 0.0
C2439 C 0.5217 0.75055 0.84855 0.0
C2440 C 0.53066 0.71446 0.84483 0.0
C2441 C 0.56742 0.70353 0.8437 0.0
C2442 C 0.41714 0.74809 0.85164 0.0
C2443 C 0.40697 0.78184 0.84614 0.0
C2444 C 0.45442 0.73857 0.85289 0.0
C2445 C 0.48238 0.76255 0.84867 0.0
C2446 C 0.47224 0.79689 0.84362 0.0
C2447 C 0.435 0.80643 0.84237 0.0
H2448 H 0.47306 0.64261 0.44228 0.0
H2449 H 0.57858 0.67555 0.45756 0.0
H2450 H 0.45568 0.70757 0.44026 0.0
H2451 H 0.5609 0.74007 0.45579 0.0
H2452 H 0.42074 0.81972 0.45693 0.0
H2453 H 0.43964 0.75589 0.45485 0.0
H2454 H 0.54694 0.79115 0.44177 0.0
H2455 H 0.5281 0.8558 0.44407 0.0
C2456 C 0.49261 0.66362 0.44514 0.0
C2457 C 0.52706 0.65378 0.45019 0.0
C2458 C 0.48262 0.70085 0.44402 0.0
C2459 C 0.50684 0.72903 0.44792 0.0
C2460 C 0.54176 0.71916 0.45255 0.0
C2461 C 0.55174 0.68203 0.45367 0.0
C2462 C 0.4483 0.81411 0.45349 0.0
C2463 C 0.47297 0.84306 0.45073 0.0
C2464 C 0.45903 0.77731 0.4522 0.0
C2465 C 0.49477 0.76833 0.44812 0.0
C2466 C 0.51929 0.79719 0.44505 0.0
C2467 C 0.50847 0.83421 0.44633 0.0
H2468 H 0.56733 0.32521 0.70634 0.0
H2469 H 0.60201 0.21725 0.69362 0.0
H2470 H 0.50322 0.30646 0.70484 0.0
H2471 H 0.53722 0.19866 0.69184 0.0
H2472 H 0.4229 0.16705 0.70831 0.0
H2473 H 0.48725 0.18491 0.70613 0.0
H2474 H 0.45363 0.29018 0.69088 0.0
H2475 H 0.38885 0.27264 0.69335 0.0
C2476 C 0.56132 0.29755 0.70306 0.0
C2477 C 0.58997 0.27263 0.70019 0.0
C2478 C 0.52439 0.28691 0.7021 0.0
C2479 C 0.51499 0.25106 0.69822 0.0
C2480 C 0.54355 0.22637 0.695 0.0
C2481 C 0.58067 0.23706 0.69597 0.0
C2482 C 0.4291 0.19396 0.70441 0.0
C2483 C 0.4006 0.21859 0.70113 0.0
C2484 C 0.46613 0.20405 0.70306 0.0
C2485 C 0.47567 0.23902 0.69837 0.0
C2486 C 0.44721 0.26321 0.69469 0.0
C2487 C 0.41007 0.25312 0.69605 0.0
H2488 H 0.07616 0.17692 0.95709 0.0
H2489 H 0.97016 0.14429 0.94213 0.0
H2490 H 0.05828 0.24142 0.95568 0.0
H2491 H 0.95253 0.20931 0.94046 0.0
H2492 H 0.91863 0.32237 0.95705 0.0
H2493 H 0.93685 0.25815 0.95494 0.0
H2494 H 0.04441 0.29228 0.94176 0.0
H2495 H 0.0264 0.35703 0.94413 0.0
C2496 C 0.04916 0.18347 0.95335 0.0
C2497 C 0.02446 0.15529 0.94982 0.0
C2498 C 0.03903 0.2206 0.95244 0.0
C2499 C 0.00395 0.2306 0.94798 0.0
C2500 C 0.97961 0.20251 0.94409 0.0
C2501 C 0.98976 0.16525 0.945 0.0
C2502 C 0.94613 0.31634 0.95362 0.0
C2503 C 0.97117 0.34498 0.95086 0.0
C2504 C 0.95646 0.27938 0.9523 0.0
C2505 C 0.9921 0.26999 0.9482 0.0
C2506 C 0.01686 0.29859 0.94509 0.0
C2507 C 0.0065 0.33569 0.9464 0.0
H2508 H 0.92784 0.66704 0.20911 0.0
H2509 H 0.8935 0.77023 0.19242 0.0
H2510 H 0.99207 0.68548 0.20717 0.0
H2511 H 0.95822 0.7884 0.19026 0.0
H2512 H 0.07122 0.82585 0.2061 0.0
H2513 H 0.00717 0.8067 0.20439 0.0
H2514 H 0.04226 0.69791 0.19274 0.0
H2515 H 0.10684 0.71688 0.19471 0.0
C2516 C 0.93395 0.69352 0.20488 0.0
C2517 C 0.90538 0.71728 0.201 0.0
C2518 C 0.97091 0.70395 0.20368 0.0
C2519 C 0.98033 0.73842 0.19857 0.0
C2520 C 0.95186 0.76182 0.19437 0.0
C2521 C 0.91477 0.75136 0.19557 0.0
C2522 C 0.06543 0.79788 0.20307 0.0
C2523 C 0.09428 0.77278 0.20066 0.0
C2524 C 0.02857 0.78701 0.20199 0.0
C2525 C 0.01954 0.75075 0.19846 0.0
C2526 C 0.04833 0.72593 0.19563 0.0
C2527 C 0.08533 0.73684 0.19671 0.0
H2528 H 0.52491 0.6398 0.94429 0.0
H2529 H 0.41824 0.67385 0.95838 0.0
H2530 H 0.5426 0.70463 0.94198 0.0
H2531 H 0.43621 0.73818 0.95635 0.0
H2532 H 0.57588 0.81928 0.95727 0.0
H2533 H 0.55772 0.75491 0.95588 0.0
H2534 H 0.45055 0.78761 0.94197 0.0
H2535 H 0.46848 0.85257 0.94363 0.0
C2536 C 0.5052 0.66103 0.94684 0.0
C2537 C 0.47028 0.65155 0.95161 0.0
C2538 C 0.51538 0.69818 0.94557 0.0
C2539 C 0.49086 0.72663 0.94902 0.0
C2540 C 0.4556 0.71707 0.95344 0.0
C2541 C 0.44544 0.68005 0.95471 0.0
C2542 C 0.54848 0.81291 0.95382 0.0
C2543 C 0.52352 0.84123 0.95066 0.0
C2544 C 0.53819 0.77584 0.95293 0.0
C2545 C 0.50267 0.76602 0.94883 0.0
C2546 C 0.47799 0.79426 0.94532 0.0
C2547 C 0.48831 0.83149 0.94622 0.0
H2548 H 0.89194 0.72031 0.69241 0.0
H2549 H 0.92664 0.82597 0.70714 0.0
H2550 H 0.95672 0.70192 0.69037 0.0
H2551 H 0.99074 0.80742 0.70532 0.0
H2552 H 0.07075 0.66762 0.7065 0.0
H2553 H 0.00645 0.68592 0.70454 0.0
H2554 H 0.04047 0.79318 0.69107 0.0
H2555 H 0.1052 0.77515 0.69329 0.0
C2556 C 0.91328 0.73969 0.69513 0.0
C2557 C 0.90397 0.77454 0.69999 0.0
C2558 C 0.95039 0.72911 0.69401 0.0
C2559 C 0.97895 0.75319 0.6977 0.0
C2560 C 0.96956 0.78838 0.70221 0.0
C2561 C 0.93263 0.7989 0.70334 0.0
C2562 C 0.06465 0.69507 0.70303 0.0
C2563 C 0.09325 0.72007 0.70018 0.0
C2564 C 0.02766 0.70543 0.7018 0.0
C2565 C 0.01825 0.74105 0.69768 0.0
C2566 C 0.0468 0.76568 0.69443 0.0
C2567 C 0.0839 0.7553 0.69566 0.0
H2568 H 0.02608 0.14155 0.44309 0.0
H2569 H 0.92051 0.17433 0.45841 0.0
H2570 H 0.04345 0.20655 0.44113 0.0
H2571 H 0.93815 0.23886 0.45668 0.0
H2572 H 0.96966 0.35418 0.44438 0.0
H2573 H 0.95155 0.28932 0.44243 0.0
H2574 H 0.05939 0.25575 0.45548 0.0
H2575 H 0.07767 0.32003 0.4572 0.0
C2576 C 0.00652 0.16254 0.44598 0.0
C2577 C 0.97202 0.15263 0.45099 0.0
C2578 C 0.01652 0.19979 0.4449 0.0
C2579 C 0.99223 0.22793 0.44879 0.0
C2580 C 0.95734 0.21798 0.45344 0.0
C2581 C 0.94737 0.18085 0.45453 0.0
C2582 C 0.98958 0.33294 0.44672 0.0
C2583 C 0.02503 0.3424 0.45102 0.0
C2584 C 0.97917 0.29577 0.44565 0.0
C2585 C 0.00401 0.26733 0.44882 0.0
C2586 C 0.03973 0.27687 0.45279 0.0
C2587 C 0.0501 0.31387 0.45387 0.0
H2588 H 0.56612 0.16593 0.20671 0.0
H2589 H 0.59915 0.27194 0.19181 0.0
H2590 H 0.50156 0.18394 0.2051 0.0
H2591 H 0.53429 0.28964 0.18998 0.0
H2592 H 0.42284 0.32449 0.20724 0.0
H2593 H 0.48654 0.30513 0.20501 0.0
H2594 H 0.45036 0.19916 0.19105 0.0
H2595 H 0.38589 0.21846 0.19346 0.0
C2596 C 0.55965 0.19292 0.20293 0.0
C2597 C 0.58792 0.21766 0.19952 0.0
C2598 C 0.52253 0.20311 0.20191 0.0
C2599 C 0.51276 0.23828 0.19747 0.0
C2600 C 0.54095 0.26251 0.19361 0.0
C2601 C 0.57812 0.25231 0.19461 0.0
C2602 C 0.42824 0.29715 0.20358 0.0
C2603 C 0.39909 0.27299 0.20058 0.0
C2604 C 0.46493 0.28615 0.20221 0.0
C2605 C 0.47359 0.25064 0.19782 0.0
C2606 C 0.44455 0.22663 0.19455 0.0
C2607 C 0.40764 0.23773 0.19589 0.0
H2608 H 0.57817 0.17582 0.58962 0.0
H2609 H 0.47199 0.14267 0.60436 0.0
H2610 H 0.56037 0.24028 0.59139 0.0
H2611 H 0.45447 0.20762 0.60639 0.0
H2612 H 0.42078 0.32124 0.59016 0.0
H2613 H 0.43892 0.25694 0.59209 0.0
H2614 H 0.54634 0.2906 0.6055 0.0
H2615 H 0.52843 0.35541 0.6033 0.0
C2616 C 0.55114 0.18225 0.59339 0.0
C2617 C 0.52635 0.15395 0.59674 0.0
C2618 C 0.54107 0.21934 0.5945 0.0
C2619 C 0.50596 0.22918 0.599 0.0
C2620 C 0.48157 0.20095 0.60273 0.0
C2621 C 0.49166 0.16373 0.60162 0.0
C2622 C 0.44823 0.31508 0.59361 0.0
C2623 C 0.47328 0.3436 0.59646 0.0
C2624 C 0.4585 0.27807 0.59482 0.0
C2625 C 0.4941 0.26855 0.59893 0.0
C2626 C 0.51884 0.29702 0.60216 0.0
C2627 C 0.50853 0.33416 0.60095 0.0
H2628 H 0.42854 0.6655 0.33824 0.0
H2629 H 0.39674 0.77049 0.35422 0.0
H2630 H 0.49326 0.68282 0.33985 0.0
H2631 H 0.46179 0.78747 0.35606 0.0
H2632 H 0.57422 0.8227 0.33975 0.0
H2633 H 0.51013 0.80394 0.34147 0.0
H2634 H 0.54445 0.69578 0.35399 0.0
H2635 H 0.60922 0.71442 0.35205 0.0
C2636 C 0.43531 0.69213 0.34225 0.0
C2637 C 0.40732 0.71676 0.34599 0.0
C2638 C 0.47254 0.70192 0.34325 0.0
C2639 C 0.48273 0.73658 0.34804 0.0
C2640 C 0.45482 0.76075 0.35217 0.0
C2641 C 0.41753 0.75096 0.35116 0.0
C2642 C 0.56829 0.79495 0.34296 0.0
C2643 C 0.597 0.76999 0.3457 0.0
C2644 C 0.53139 0.7843 0.34404 0.0
C2645 C 0.5221 0.74839 0.34789 0.0
C2646 C 0.55073 0.72356 0.35089 0.0
C2647 C 0.58782 0.73428 0.34983 0.0
H2648 H 0.92449 0.82609 0.08946 0.0
H2649 H 0.03275 0.8616 0.10161 0.0
H2650 H 0.94347 0.7621 0.09122 0.0
H2651 H 0.05164 0.7969 0.10357 0.0
H2652 H 0.08212 0.68136 0.08755 0.0
H2653 H 0.06447 0.74595 0.08925 0.0
H2654 H 0.9605 0.71381 0.10581 0.0
H2655 H 0.97784 0.64884 0.1039 0.0
C2656 C 0.95228 0.8203 0.09265 0.0
C2657 C 0.97719 0.84911 0.09532 0.0
C2658 C 0.96306 0.78345 0.09375 0.0
C2659 C -0.00096 0.77434 0.09755 0.0
C2660 C 0.02379 0.80306 0.10051 0.0
C2661 C 0.01294 0.8401 0.09943 0.0
C2662 C 0.05557 0.68795 0.09164 0.0
C2663 C 0.03124 0.65981 0.09548 0.0
C2664 C 0.0456 0.7251 0.09271 0.0
C2665 C 0.01105 0.73506 0.09763 0.0
C2666 C 0.98714 0.707 0.10183 0.0
C2667 C 0.99713 0.66978 0.10077 0.0
H2668 H 0.09839 0.22585 0.85364 0.0
H2669 H 0.06613 0.33199 0.83866 0.0
H2670 H 0.03336 0.20852 0.8554 0.0
H2671 H 0.00148 0.31441 0.84023 0.0
H2672 H 0.88609 0.28217 0.85273 0.0
H2673 H 0.95098 0.30031 0.85464 0.0
H2674 H 0.98445 0.19346 0.84067 0.0
H2675 H 0.92018 0.17517 0.83895 0.0
C2676 C 0.0775 0.24555 0.85078 0.0
C2677 C 0.08755 0.2802 0.84593 0.0
C2678 C 0.04025 0.23557 0.85175 0.0
C2679 C 0.01224 0.26005 0.84791 0.0
C2680 C 0.0223 0.29508 0.84341 0.0
C2681 C 0.05947 0.30502 0.84242 0.0
C2682 C 0.90733 0.26247 0.85018 0.0
C2683 C 0.89785 0.22729 0.84564 0.0
C2684 C 0.94448 0.27291 0.85123 0.0
C2685 C 0.97288 0.24832 0.8478 0.0
C2686 C 0.96334 0.21288 0.84356 0.0
C2687 C 0.92635 0.20251 0.84248 0.0
loop_
_geom_bond_atom_site_label_1
_geom_bond_atom_site_label_2
_geom_bond_distance
_geom_bond_site_symmetry_2
_ccdc_geom_bond_type
Co0 O3 1.970 . S
Co0 N17 1.989 1_545 S
Co0 O25 1.967 . S
Co0 O32 1.920 . S
Co1 O4 1.966 . S
Co1 N10 2.022 . S
Co1 N18 1.993 1_545 S
Co1 O26 1.941 . S
C2 O3 1.258 . S
C2 O4 1.263 . S
O3 Co0 1.970 . S
O3 C2 1.258 . S
O4 Co1 1.966 . S
O4 C2 1.263 . S
C5 O6 1.235 . S
C5 O32 1.289 1_565 S
O6 C5 1.235 . S
C7 C9 1.400 . S
C7 N10 1.351 . S
C7 C12 1.501 1_545 S
C8 C9 1.387 . S
C8 N11 1.341 . S
C9 C7 1.400 . S
C9 C8 1.387 . S
N10 Co1 2.022 . S
N10 C7 1.351 . S
N10 N11 1.365 . S
N11 C8 1.341 . S
N11 N10 1.365 . S
N11 H31 0.862 . S
C12 C7 1.501 1_565 S
C12 H13 0.962 . S
C12 H14 0.961 . S
C12 H15 0.960 1_565 S
H13 C12 0.962 . S
H14 C12 0.961 . S
H15 C12 0.960 1_545 S
C16 N17 1.342 . S
C16 C20 1.401 . S
C16 C21 1.499 . S
N17 Co0 1.989 1_565 S
N17 C16 1.342 . S
N17 N18 1.388 . S
N18 Co1 1.993 1_565 S
N18 N17 1.388 . S
N18 C19 1.346 . S
C19 N18 1.346 . S
C19 C20 1.396 . S
C19 C29 1.510 . S
C20 C16 1.401 . S
C20 C19 1.396 . S
C21 C16 1.499 . S
C21 H22 0.959 . S
C21 H23 0.960 . S
C21 H24 0.961 . S
H22 C21 0.959 . S
H23 C21 0.960 . S
H24 C21 0.961 . S
O25 Co0 1.967 . S
O25 C33 1.258 . S
O26 Co1 1.941 . S
O26 C33 1.266 . S
H27 C29 0.959 . S
H28 C29 0.961 . S
C29 C19 1.510 . S
C29 H27 0.959 . S
C29 H28 0.961 . S
C29 H30 0.960 . S
H30 C29 0.960 . S
H31 N11 0.862 . S
O32 Co0 1.920 . S
O32 C5 1.289 1_545 S
C33 O25 1.258 . S
C33 O26 1.266 . S
Co34 O37 1.970 . S
Co34 N51 1.989 . S
Co34 O59 1.967 . S
Co34 O66 1.920 . S
Co35 O38 1.966 . S
Co35 N44 2.022 . S
Co35 N52 1.993 . S
Co35 O60 1.941 . S
C36 O37 1.258 . S
C36 O38 1.263 . S
O37 Co34 1.970 . S
O37 C36 1.258 . S
O38 Co35 1.966 . S
O38 C36 1.263 . S
C39 O40 1.235 . S
C39 O66 1.289 . S
O40 C39 1.235 . S
C41 C43 1.400 . S
C41 N44 1.351 . S
C41 C46 1.501 . S
C42 C43 1.387 . S
C42 N45 1.341 . S
C43 C41 1.400 . S
C43 C42 1.387 . S
N44 Co35 2.022 . S
N44 C41 1.351 . S
N44 N45 1.365 . S
N45 C42 1.341 . S
N45 N44 1.365 . S
N45 H65 0.862 . S
C46 C41 1.501 . S
C46 H47 0.961 . S
C46 H48 0.961 . S
C46 H49 0.960 . S
H47 C46 0.961 . S
H48 C46 0.961 . S
H49 C46 0.960 . S
C50 N51 1.342 . S
C50 C54 1.401 . S
C50 C55 1.499 . S
N51 Co34 1.989 . S
N51 C50 1.342 . S
N51 N52 1.388 . S
N52 Co35 1.993 . S
N52 N51 1.388 . S
N52 C53 1.346 . S
C53 N52 1.346 . S
C53 C54 1.396 . S
C53 C63 1.510 . S
C54 C50 1.401 . S
C54 C53 1.396 . S
C55 C50 1.499 . S
C55 H56 0.959 . S
C55 H57 0.960 . S
C55 H58 0.961 . S
H56 C55 0.959 . S
H57 C55 0.960 . S
H58 C55 0.961 . S
O59 Co34 1.967 . S
O59 C67 1.258 . S
O60 Co35 1.941 . S
O60 C67 1.266 . S
H61 C63 0.959 . S
H62 C63 0.961 . S
C63 C53 1.510 . S
C63 H61 0.959 . S
C63 H62 0.961 . S
C63 H64 0.960 . S
H64 C63 0.960 . S
H65 N45 0.862 . S
O66 Co34 1.920 . S
O66 C39 1.289 . S
C67 O59 1.258 . S
C67 O60 1.266 . S
Co68 O71 1.970 1_655 S
Co68 N85 1.989 1_665 S
Co68 O93 1.967 1_655 S
Co68 O100 1.920 . S
Co69 O72 1.966 . S
Co69 N78 2.022 . S
Co69 N86 1.993 1_565 S
Co69 O94 1.941 . S
C70 O71 1.258 . S
C70 O72 1.263 . S
O71 Co68 1.970 1_455 S
O71 C70 1.258 . S
O72 Co69 1.966 . S
O72 C70 1.263 . S
C73 O74 1.235 . S
C73 O100 1.289 1_545 S
O74 C73 1.235 . S
C75 C77 1.400 . S
C75 N78 1.351 . S
C75 C80 1.501 1_565 S
C76 C77 1.387 . S
C76 N79 1.341 . S
C77 C75 1.400 . S
C77 C76 1.387 . S
N78 Co69 2.022 . S
N78 C75 1.351 . S
N78 N79 1.365 . S
N79 C76 1.341 . S
N79 N78 1.365 . S
N79 H99 0.862 . S
C80 C75 1.501 1_545 S
C80 H81 0.962 . S
C80 H82 0.961 . S
C80 H83 0.960 1_545 S
H81 C80 0.962 . S
H82 C80 0.961 . S
H83 C80 0.960 1_565 S
C84 N85 1.342 . S
C84 C88 1.401 . S
C84 C89 1.499 1_455 S
N85 Co68 1.989 1_445 S
N85 C84 1.342 . S
N85 N86 1.388 . S
N86 Co69 1.993 1_545 S
N86 N85 1.388 . S
N86 C87 1.346 . S
C87 N86 1.346 . S
C87 C88 1.396 . S
C87 C97 1.510 . S
C88 C84 1.401 . S
C88 C87 1.396 . S
C89 C84 1.499 1_655 S
C89 H90 0.959 . S
C89 H91 0.960 . S
C89 H92 0.961 . S
H90 C89 0.959 . S
H91 C89 0.960 . S
H92 C89 0.961 . S
O93 Co68 1.967 1_455 S
O93 C101 1.258 . S
O94 Co69 1.941 . S
O94 C101 1.266 . S
H95 C97 0.959 . S
H96 C97 0.961 . S
C97 C87 1.510 . S
C97 H95 0.959 . S
C97 H96 0.961 . S
C97 H98 0.960 . S
H98 C97 0.960 . S
H99 N79 0.862 . S
O100 Co68 1.920 . S
O100 C73 1.289 1_565 S
C101 O93 1.258 . S
C101 O94 1.266 . S
Co102 O105 1.970 . S
Co102 N119 1.989 . S
Co102 O127 1.967 . S
Co102 O134 1.920 . S
Co103 O106 1.966 . S
Co103 N112 2.022 . S
Co103 N120 1.993 . S
Co103 O128 1.941 . S
C104 O105 1.258 . S
C104 O106 1.263 . S
O105 Co102 1.970 . S
O105 C104 1.258 . S
O106 Co103 1.966 . S
O106 C104 1.263 . S
C107 O108 1.235 . S
C107 O134 1.289 . S
O108 C107 1.235 . S
C109 C111 1.400 . S
C109 N112 1.351 . S
C109 C114 1.501 . S
C110 C111 1.387 . S
C110 N113 1.341 . S
C111 C109 1.400 . S
C111 C110 1.387 . S
N112 Co103 2.022 . S
N112 C109 1.351 . S
N112 N113 1.365 . S
N113 C110 1.341 . S
N113 N112 1.365 . S
N113 H133 0.862 . S
C114 C109 1.501 . S
C114 H115 0.961 . S
C114 H116 0.961 . S
C114 H117 0.960 . S
H115 C114 0.961 . S
H116 C114 0.961 . S
H117 C114 0.960 . S
C118 N119 1.342 . S
C118 C122 1.401 . S
C118 C123 1.499 . S
N119 Co102 1.989 . S
N119 C118 1.342 . S
N119 N120 1.388 . S
N120 Co103 1.993 . S
N120 N119 1.388 . S
N120 C121 1.346 . S
C121 N120 1.346 . S
C121 C122 1.396 . S
C121 C131 1.510 . S
C122 C118 1.401 . S
C122 C121 1.396 . S
C123 C118 1.499 . S
C123 H124 0.959 . S
C123 H125 0.960 . S
C123 H126 0.961 . S
H124 C123 0.959 . S
H125 C123 0.960 . S
H126 C123 0.961 . S
O127 Co102 1.967 . S
O127 C135 1.258 . S
O128 Co103 1.941 . S
O128 C135 1.266 . S
H129 C131 0.959 . S
H130 C131 0.961 . S
C131 C121 1.510 . S
C131 H129 0.959 . S
C131 H130 0.961 . S
C131 H132 0.960 . S
H132 C131 0.960 . S
H133 N113 0.862 . S
O134 Co102 1.920 . S
O134 C107 1.289 . S
C135 O127 1.258 . S
C135 O128 1.266 . S
Co136 O139 1.970 . S
Co136 N153 1.989 1_565 S
Co136 O161 1.967 . S
Co136 O168 1.920 . S
Co137 O140 1.966 . S
Co137 N146 2.022 . S
Co137 N154 1.993 1_565 S
Co137 O162 1.941 . S
C138 O139 1.258 . S
C138 O140 1.263 . S
O139 Co136 1.970 . S
O139 C138 1.258 . S
O140 Co137 1.966 . S
O140 C138 1.263 . S
C141 O142 1.235 . S
C141 O168 1.289 1_545 S
O142 C141 1.235 . S
C143 C145 1.400 . S
C143 N146 1.351 . S
C143 C148 1.501 1_565 S
C144 C145 1.387 . S
C144 N147 1.341 . S
C145 C143 1.400 . S
C145 C144 1.387 . S
N146 Co137 2.022 . S
N146 C143 1.351 . S
N146 N147 1.365 . S
N147 C144 1.341 . S
N147 N146 1.365 . S
N147 H167 0.862 . S
C148 C143 1.501 1_545 S
C148 H149 0.962 . S
C148 H150 0.961 . S
C148 H151 0.960 1_545 S
H149 C148 0.962 . S
H150 C148 0.961 . S
H151 C148 0.960 1_565 S
C152 N153 1.342 . S
C152 C156 1.401 . S
C152 C157 1.499 . S
N153 Co136 1.989 1_545 S
N153 C152 1.342 . S
N153 N154 1.388 . S
N154 Co137 1.993 1_545 S
N154 N153 1.388 . S
N154 C155 1.346 . S
C155 N154 1.346 . S
C155 C156 1.396 . S
C155 C165 1.510 . S
C156 C152 1.401 . S
C156 C155 1.396 . S
C157 C152 1.499 . S
C157 H158 0.959 . S
C157 H159 0.960 . S
C157 H160 0.961 . S
H158 C157 0.959 . S
H159 C157 0.960 . S
H160 C157 0.961 . S
O161 Co136 1.967 . S
O161 C169 1.258 . S
O162 Co137 1.941 . S
O162 C169 1.266 . S
H163 C165 0.959 . S
H164 C165 0.961 . S
C165 C155 1.510 . S
C165 H163 0.959 . S
C165 H164 0.961 . S
C165 H166 0.960 . S
H166 C165 0.960 . S
H167 N147 0.862 . S
O168 Co136 1.920 . S
O168 C141 1.289 1_565 S
C169 O161 1.258 . S
C169 O162 1.266 . S
Co170 O173 1.970 . S
Co170 N187 1.989 . S
Co170 O195 1.967 . S
Co170 O202 1.920 . S
Co171 O174 1.966 . S
Co171 N180 2.022 . S
Co171 N188 1.993 . S
Co171 O196 1.941 . S
C172 O173 1.258 . S
C172 O174 1.263 . S
O173 Co170 1.970 . S
O173 C172 1.258 . S
O174 Co171 1.966 . S
O174 C172 1.263 . S
C175 O176 1.235 . S
C175 O202 1.289 . S
O176 C175 1.235 . S
C177 C179 1.400 . S
C177 N180 1.351 . S
C177 C182 1.501 . S
C178 C179 1.387 . S
C178 N181 1.341 . S
C179 C177 1.400 . S
C179 C178 1.387 . S
N180 Co171 2.022 . S
N180 C177 1.351 . S
N180 N181 1.365 . S
N181 C178 1.341 . S
N181 N180 1.365 . S
N181 H201 0.862 . S
C182 C177 1.501 . S
C182 H183 0.961 . S
C182 H184 0.961 . S
C182 H185 0.960 . S
H183 C182 0.961 . S
H184 C182 0.961 . S
H185 C182 0.960 . S
C186 N187 1.342 . S
C186 C190 1.401 . S
C186 C191 1.499 . S
N187 Co170 1.989 . S
N187 C186 1.342 . S
N187 N188 1.388 . S
N188 Co171 1.993 . S
N188 N187 1.388 . S
N188 C189 1.346 . S
C189 N188 1.346 . S
C189 C190 1.396 . S
C189 C199 1.510 . S
C190 C186 1.401 . S
C190 C189 1.396 . S
C191 C186 1.499 . S
C191 H192 0.959 . S
C191 H193 0.960 . S
C191 H194 0.961 . S
H192 C191 0.959 . S
H193 C191 0.960 . S
H194 C191 0.961 . S
O195 Co170 1.967 . S
O195 C203 1.258 . S
O196 Co171 1.941 . S
O196 C203 1.266 . S
H197 C199 0.959 . S
H198 C199 0.961 . S
C199 C189 1.510 . S
C199 H197 0.959 . S
C199 H198 0.961 . S
C199 H200 0.960 . S
H200 C199 0.960 . S
H201 N181 0.862 . S
O202 Co170 1.920 . S
O202 C175 1.289 . S
C203 O195 1.258 . S
C203 O196 1.266 . S
Co204 O207 1.970 1_655 S
Co204 N221 1.989 1_645 S
Co204 O229 1.967 1_655 S
Co204 O236 1.920 . S
Co205 O208 1.966 . S
Co205 N214 2.022 . S
Co205 N222 1.993 1_545 S
Co205 O230 1.941 . S
C206 O207 1.258 . S
C206 O208 1.263 . S
O207 Co204 1.970 1_455 S
O207 C206 1.258 . S
O208 Co205 1.966 . S
O208 C206 1.263 . S
C209 O210 1.235 . S
C209 O236 1.289 1_565 S
O210 C209 1.235 . S
C211 C213 1.400 . S
C211 N214 1.351 . S
C211 C216 1.501 1_545 S
C212 C213 1.387 . S
C212 N215 1.341 . S
C213 C211 1.400 . S
C213 C212 1.387 . S
N214 Co205 2.022 . S
N214 C211 1.351 . S
N214 N215 1.365 . S
N215 C212 1.341 . S
N215 N214 1.365 . S
N215 H235 0.862 . S
C216 C211 1.501 1_565 S
C216 H217 0.962 . S
C216 H218 0.961 . S
C216 H219 0.960 1_565 S
H217 C216 0.962 . S
H218 C216 0.961 . S
H219 C216 0.960 1_545 S
C220 N221 1.342 . S
C220 C224 1.401 . S
C220 C225 1.499 1_455 S
N221 Co204 1.989 1_465 S
N221 C220 1.342 . S
N221 N222 1.388 . S
N222 Co205 1.993 1_565 S
N222 N221 1.388 . S
N222 C223 1.346 . S
C223 N222 1.346 . S
C223 C224 1.396 . S
C223 C233 1.510 . S
C224 C220 1.401 . S
C224 C223 1.396 . S
C225 C220 1.499 1_655 S
C225 H226 0.959 . S
C225 H227 0.960 . S
C225 H228 0.961 . S
H226 C225 0.959 . S
H227 C225 0.960 . S
H228 C225 0.961 . S
O229 Co204 1.967 1_455 S
O229 C237 1.258 . S
O230 Co205 1.941 . S
O230 C237 1.266 . S
H231 C233 0.959 . S
H232 C233 0.961 . S
C233 C223 1.510 . S
C233 H231 0.959 . S
C233 H232 0.961 . S
C233 H234 0.960 . S
H234 C233 0.960 . S
H235 N215 0.862 . S
O236 Co204 1.920 . S
O236 C209 1.289 1_545 S
C237 O229 1.258 . S
C237 O230 1.266 . S
Co238 O241 1.970 . S
Co238 N255 1.989 . S
Co238 O263 1.967 . S
Co238 O270 1.920 . S
Co239 O242 1.966 . S
Co239 N248 2.022 . S
Co239 N256 1.993 . S
Co239 O264 1.941 . S
C240 O241 1.258 . S
C240 O242 1.263 . S
O241 Co238 1.970 . S
O241 C240 1.258 . S
O242 Co239 1.966 . S
O242 C240 1.263 . S
C243 O244 1.235 . S
C243 O270 1.289 . S
O244 C243 1.235 . S
C245 C247 1.400 . S
C245 N248 1.351 . S
C245 C250 1.501 . S
C246 C247 1.387 . S
C246 N249 1.341 . S
C247 C245 1.400 . S
C247 C246 1.387 . S
N248 Co239 2.022 . S
N248 C245 1.351 . S
N248 N249 1.365 . S
N249 C246 1.341 . S
N249 N248 1.365 . S
N249 H269 0.862 . S
C250 C245 1.501 . S
C250 H251 0.961 . S
C250 H252 0.961 . S
C250 H253 0.960 . S
H251 C250 0.961 . S
H252 C250 0.961 . S
H253 C250 0.960 . S
C254 N255 1.342 . S
C254 C258 1.401 . S
C254 C259 1.499 . S
N255 Co238 1.989 . S
N255 C254 1.342 . S
N255 N256 1.388 . S
N256 Co239 1.993 . S
N256 N255 1.388 . S
N256 C257 1.346 . S
C257 N256 1.346 . S
C257 C258 1.396 . S
C257 C267 1.510 . S
C258 C254 1.401 . S
C258 C257 1.396 . S
C259 C254 1.499 . S
C259 H260 0.959 . S
C259 H261 0.960 . S
C259 H262 0.961 . S
H260 C259 0.959 . S
H261 C259 0.960 . S
H262 C259 0.961 . S
O263 Co238 1.967 . S
O263 C271 1.258 . S
O264 Co239 1.941 . S
O264 C271 1.266 . S
H265 C267 0.959 . S
H266 C267 0.961 . S
C267 C257 1.510 . S
C267 H265 0.959 . S
C267 H266 0.961 . S
C267 H268 0.960 . S
H268 C267 0.960 . S
H269 N249 0.862 . S
O270 Co238 1.920 . S
O270 C243 1.289 . S
C271 O263 1.258 . S
C271 O264 1.266 . S
Co272 O275 1.970 . S
Co272 N289 1.989 1_565 S
Co272 O297 1.967 . S
Co272 O304 1.920 . S
Co273 O276 1.966 . S
Co273 N282 2.022 . S
Co273 N290 1.993 1_565 S
Co273 O298 1.941 . S
C274 O275 1.258 . S
C274 O276 1.263 . S
O275 Co272 1.970 . S
O275 C274 1.258 . S
O276 Co273 1.966 . S
O276 C274 1.263 . S
C277 O278 1.235 . S
C277 O304 1.289 1_545 S
O278 C277 1.235 . S
C279 C281 1.400 . S
C279 N282 1.351 . S
C279 C284 1.501 1_565 S
C280 C281 1.387 . S
C280 N283 1.341 . S
C281 C279 1.400 . S
C281 C280 1.387 . S
N282 Co273 2.022 . S
N282 C279 1.351 . S
N282 N283 1.365 . S
N283 C280 1.341 . S
N283 N282 1.365 . S
N283 H303 0.862 . S
C284 C279 1.501 1_545 S
C284 H285 0.962 . S
C284 H286 0.961 . S
C284 H287 0.960 1_545 S
H285 C284 0.962 . S
H286 C284 0.961 . S
H287 C284 0.960 1_565 S
C288 N289 1.342 . S
C288 C292 1.401 . S
C288 C293 1.499 . S
N289 Co272 1.989 1_545 S
N289 C288 1.342 . S
N289 N290 1.388 . S
N290 Co273 1.993 1_545 S
N290 N289 1.388 . S
N290 C291 1.346 . S
C291 N290 1.346 . S
C291 C292 1.396 . S
C291 C301 1.510 . S
C292 C288 1.401 . S
C292 C291 1.396 . S
C293 C288 1.499 . S
C293 H294 0.959 . S
C293 H295 0.960 . S
C293 H296 0.961 . S
H294 C293 0.959 . S
H295 C293 0.960 . S
H296 C293 0.961 . S
O297 Co272 1.967 . S
O297 C305 1.258 . S
O298 Co273 1.941 . S
O298 C305 1.266 . S
H299 C301 0.959 . S
H300 C301 0.961 . S
C301 C291 1.510 . S
C301 H299 0.959 . S
C301 H300 0.961 . S
C301 H302 0.960 . S
H302 C301 0.960 . S
H303 N283 0.862 . S
O304 Co272 1.920 . S
O304 C277 1.289 1_565 S
C305 O297 1.258 . S
C305 O298 1.266 . S
Co306 O309 1.970 . S
Co306 N323 1.989 . S
Co306 O331 1.967 . S
Co306 O338 1.920 . S
Co307 O310 1.966 . S
Co307 N316 2.022 . S
Co307 N324 1.993 . S
Co307 O332 1.941 . S
C308 O309 1.258 . S
C308 O310 1.263 . S
O309 Co306 1.970 . S
O309 C308 1.258 . S
O310 Co307 1.966 . S
O310 C308 1.263 . S
C311 O312 1.235 . S
C311 O338 1.289 . S
O312 C311 1.235 . S
C313 C315 1.400 . S
C313 N316 1.351 . S
C313 C318 1.501 . S
C314 C315 1.387 . S
C314 N317 1.341 . S
C315 C313 1.400 . S
C315 C314 1.387 . S
N316 Co307 2.022 . S
N316 C313 1.351 . S
N316 N317 1.365 . S
N317 C314 1.341 . S
N317 N316 1.365 . S
N317 H337 0.862 . S
C318 C313 1.501 . S
C318 H319 0.961 . S
C318 H320 0.961 . S
C318 H321 0.960 . S
H319 C318 0.961 . S
H320 C318 0.961 . S
H321 C318 0.960 . S
C322 N323 1.342 . S
C322 C326 1.401 . S
C322 C327 1.499 . S
N323 Co306 1.989 . S
N323 C322 1.342 . S
N323 N324 1.388 . S
N324 Co307 1.993 . S
N324 N323 1.388 . S
N324 C325 1.346 . S
C325 N324 1.346 . S
C325 C326 1.396 . S
C325 C335 1.510 . S
C326 C322 1.401 . S
C326 C325 1.396 . S
C327 C322 1.499 . S
C327 H328 0.959 . S
C327 H329 0.960 . S
C327 H330 0.961 . S
H328 C327 0.959 . S
H329 C327 0.960 . S
H330 C327 0.961 . S
O331 Co306 1.967 . S
O331 C339 1.258 . S
O332 Co307 1.941 . S
O332 C339 1.266 . S
H333 C335 0.959 . S
H334 C335 0.961 . S
C335 C325 1.510 . S
C335 H333 0.959 . S
C335 H334 0.961 . S
C335 H336 0.960 . S
H336 C335 0.960 . S
H337 N317 0.862 . S
O338 Co306 1.920 . S
O338 C311 1.289 . S
C339 O331 1.258 . S
C339 O332 1.266 . S
Co340 O343 1.970 1_455 S
Co340 N357 1.989 1_445 S
Co340 O365 1.967 1_455 S
Co340 O372 1.920 . S
Co341 O344 1.966 . S
Co341 N350 2.022 . S
Co341 N358 1.993 1_545 S
Co341 O366 1.941 . S
C342 O343 1.258 . S
C342 O344 1.263 . S
O343 Co340 1.970 1_655 S
O343 C342 1.258 . S
O344 Co341 1.966 . S
O344 C342 1.263 . S
C345 O346 1.235 . S
C345 O372 1.289 1_565 S
O346 C345 1.235 . S
C347 C349 1.400 . S
C347 N350 1.351 . S
C347 C352 1.501 1_545 S
C348 C349 1.387 . S
C348 N351 1.341 . S
C349 C347 1.400 . S
C349 C348 1.387 . S
N350 Co341 2.022 . S
N350 C347 1.351 . S
N350 N351 1.365 . S
N351 C348 1.341 . S
N351 N350 1.365 . S
N351 H371 0.862 . S
C352 C347 1.501 1_565 S
C352 H353 0.962 . S
C352 H354 0.961 . S
C352 H355 0.960 1_565 S
H353 C352 0.962 . S
H354 C352 0.961 . S
H355 C352 0.960 1_545 S
C356 N357 1.342 . S
C356 C360 1.401 . S
C356 C361 1.499 1_655 S
N357 Co340 1.989 1_665 S
N357 C356 1.342 . S
N357 N358 1.388 . S
N358 Co341 1.993 1_565 S
N358 N357 1.388 . S
N358 C359 1.346 . S
C359 N358 1.346 . S
C359 C360 1.396 . S
C359 C369 1.510 . S
C360 C356 1.401 . S
C360 C359 1.396 . S
C361 C356 1.499 1_455 S
C361 H362 0.959 . S
C361 H363 0.960 . S
C361 H364 0.961 . S
H362 C361 0.959 . S
H363 C361 0.960 . S
H364 C361 0.961 . S
O365 Co340 1.967 1_655 S
O365 C373 1.258 . S
O366 Co341 1.941 . S
O366 C373 1.266 . S
H367 C369 0.959 . S
H368 C369 0.961 . S
C369 C359 1.510 . S
C369 H367 0.959 . S
C369 H368 0.961 . S
C369 H370 0.960 . S
H370 C369 0.960 . S
H371 N351 0.862 . S
O372 Co340 1.920 . S
O372 C345 1.289 1_545 S
C373 O365 1.258 . S
C373 O366 1.266 . S
Co374 O377 1.970 . S
Co374 N391 1.989 . S
Co374 O399 1.967 . S
Co374 O406 1.920 . S
Co375 O378 1.966 . S
Co375 N384 2.022 . S
Co375 N392 1.993 . S
Co375 O400 1.941 . S
C376 O377 1.258 . S
C376 O378 1.263 . S
O377 Co374 1.970 . S
O377 C376 1.258 . S
O378 Co375 1.966 . S
O378 C376 1.263 . S
C379 O380 1.235 . S
C379 O406 1.289 . S
O380 C379 1.235 . S
C381 C383 1.400 . S
C381 N384 1.351 . S
C381 C386 1.501 . S
C382 C383 1.387 . S
C382 N385 1.341 . S
C383 C381 1.400 . S
C383 C382 1.387 . S
N384 Co375 2.022 . S
N384 C381 1.351 . S
N384 N385 1.365 . S
N385 C382 1.341 . S
N385 N384 1.365 . S
N385 H405 0.862 . S
C386 C381 1.501 . S
C386 H387 0.961 . S
C386 H388 0.961 . S
C386 H389 0.960 . S
H387 C386 0.961 . S
H388 C386 0.961 . S
H389 C386 0.960 . S
C390 N391 1.342 . S
C390 C394 1.401 . S
C390 C395 1.499 . S
N391 Co374 1.989 . S
N391 C390 1.342 . S
N391 N392 1.388 . S
N392 Co375 1.993 . S
N392 N391 1.388 . S
N392 C393 1.346 . S
C393 N392 1.346 . S
C393 C394 1.396 . S
C393 C403 1.510 . S
C394 C390 1.401 . S
C394 C393 1.396 . S
C395 C390 1.499 . S
C395 H396 0.959 . S
C395 H397 0.960 . S
C395 H398 0.961 . S
H396 C395 0.959 . S
H397 C395 0.960 . S
H398 C395 0.961 . S
O399 Co374 1.967 . S
O399 C407 1.258 . S
O400 Co375 1.941 . S
O400 C407 1.266 . S
H401 C403 0.959 . S
H402 C403 0.961 . S
C403 C393 1.510 . S
C403 H401 0.959 . S
C403 H402 0.961 . S
C403 H404 0.960 . S
H404 C403 0.960 . S
H405 N385 0.862 . S
O406 Co374 1.920 . S
O406 C379 1.289 . S
C407 O399 1.258 . S
C407 O400 1.266 . S
Co408 O411 1.970 . S
Co408 N425 1.989 1_545 S
Co408 O433 1.967 . S
Co408 O440 1.920 . S
Co409 O412 1.966 . S
Co409 N418 2.022 . S
Co409 N426 1.993 1_545 S
Co409 O434 1.941 . S
C410 O411 1.258 . S
C410 O412 1.263 . S
O411 Co408 1.970 . S
O411 C410 1.258 . S
O412 Co409 1.966 . S
O412 C410 1.263 . S
C413 O414 1.235 . S
C413 O440 1.289 1_565 S
O414 C413 1.235 . S
C415 C417 1.400 . S
C415 N418 1.351 . S
C415 C420 1.501 1_545 S
C416 C417 1.387 . S
C416 N419 1.341 . S
C417 C415 1.400 . S
C417 C416 1.387 . S
N418 Co409 2.022 . S
N418 C415 1.351 . S
N418 N419 1.365 . S
N419 C416 1.341 . S
N419 N418 1.365 . S
N419 H439 0.862 . S
C420 C415 1.501 1_565 S
C420 H421 0.962 . S
C420 H422 0.961 . S
C420 H423 0.960 1_565 S
H421 C420 0.962 . S
H422 C420 0.961 . S
H423 C420 0.960 1_545 S
C424 N425 1.342 . S
C424 C428 1.401 . S
C424 C429 1.499 . S
N425 Co408 1.989 1_565 S
N425 C424 1.342 . S
N425 N426 1.388 . S
N426 Co409 1.993 1_565 S
N426 N425 1.388 . S
N426 C427 1.346 . S
C427 N426 1.346 . S
C427 C428 1.396 . S
C427 C437 1.510 . S
C428 C424 1.401 . S
C428 C427 1.396 . S
C429 C424 1.499 . S
C429 H430 0.959 . S
C429 H431 0.960 . S
C429 H432 0.961 . S
H430 C429 0.959 . S
H431 C429 0.960 . S
H432 C429 0.961 . S
O433 Co408 1.967 . S
O433 C441 1.258 . S
O434 Co409 1.941 . S
O434 C441 1.266 . S
H435 C437 0.959 . S
H436 C437 0.961 . S
C437 C427 1.510 . S
C437 H435 0.959 . S
C437 H436 0.961 . S
C437 H438 0.960 . S
H438 C437 0.960 . S
H439 N419 0.862 . S
O440 Co408 1.920 . S
O440 C413 1.289 1_545 S
C441 O433 1.258 . S
C441 O434 1.266 . S
Co442 O445 1.970 . S
Co442 N459 1.989 . S
Co442 O467 1.967 . S
Co442 O474 1.920 . S
Co443 O446 1.966 . S
Co443 N452 2.022 . S
Co443 N460 1.993 . S
Co443 O468 1.941 . S
C444 O445 1.258 . S
C444 O446 1.263 . S
O445 Co442 1.970 . S
O445 C444 1.258 . S
O446 Co443 1.966 . S
O446 C444 1.263 . S
C447 O448 1.235 . S
C447 O474 1.289 . S
O448 C447 1.235 . S
C449 C451 1.400 . S
C449 N452 1.351 . S
C449 C454 1.501 . S
C450 C451 1.387 . S
C450 N453 1.341 . S
C451 C449 1.400 . S
C451 C450 1.387 . S
N452 Co443 2.022 . S
N452 C449 1.351 . S
N452 N453 1.365 . S
N453 C450 1.341 . S
N453 N452 1.365 . S
N453 H473 0.862 . S
C454 C449 1.501 . S
C454 H455 0.961 . S
C454 H456 0.961 . S
C454 H457 0.960 . S
H455 C454 0.961 . S
H456 C454 0.961 . S
H457 C454 0.960 . S
C458 N459 1.342 . S
C458 C462 1.401 . S
C458 C463 1.499 . S
N459 Co442 1.989 . S
N459 C458 1.342 . S
N459 N460 1.388 . S
N460 Co443 1.993 . S
N460 N459 1.388 . S
N460 C461 1.346 . S
C461 N460 1.346 . S
C461 C462 1.396 . S
C461 C471 1.510 . S
C462 C458 1.401 . S
C462 C461 1.396 . S
C463 C458 1.499 . S
C463 H464 0.959 . S
C463 H465 0.960 . S
C463 H466 0.961 . S
H464 C463 0.959 . S
H465 C463 0.960 . S
H466 C463 0.961 . S
O467 Co442 1.967 . S
O467 C475 1.258 . S
O468 Co443 1.941 . S
O468 C475 1.266 . S
H469 C471 0.959 . S
H470 C471 0.961 . S
C471 C461 1.510 . S
C471 H469 0.959 . S
C471 H470 0.961 . S
C471 H472 0.960 . S
H472 C471 0.960 . S
H473 N453 0.862 . S
O474 Co442 1.920 . S
O474 C447 1.289 . S
C475 O467 1.258 . S
C475 O468 1.266 . S
Co476 O479 1.970 1_455 S
Co476 N493 1.989 1_465 S
Co476 O501 1.967 1_455 S
Co476 O508 1.920 . S
Co477 O480 1.966 . S
Co477 N486 2.022 . S
Co477 N494 1.993 1_565 S
Co477 O502 1.941 . S
C478 O479 1.258 . S
C478 O480 1.263 . S
O479 Co476 1.970 1_655 S
O479 C478 1.258 . S
O480 Co477 1.966 . S
O480 C478 1.263 . S
C481 O482 1.235 . S
C481 O508 1.289 1_545 S
O482 C481 1.235 . S
C483 C485 1.400 . S
C483 N486 1.351 . S
C483 C488 1.501 1_565 S
C484 C485 1.387 . S
C484 N487 1.341 . S
C485 C483 1.400 . S
C485 C484 1.387 . S
N486 Co477 2.022 . S
N486 C483 1.351 . S
N486 N487 1.365 . S
N487 C484 1.341 . S
N487 N486 1.365 . S
N487 H507 0.862 . S
C488 C483 1.501 1_545 S
C488 H489 0.962 . S
C488 H490 0.961 . S
C488 H491 0.960 1_545 S
H489 C488 0.962 . S
H490 C488 0.961 . S
H491 C488 0.960 1_565 S
C492 N493 1.342 . S
C492 C496 1.401 . S
C492 C497 1.499 1_655 S
N493 Co476 1.989 1_645 S
N493 C492 1.342 . S
N493 N494 1.388 . S
N494 Co477 1.993 1_545 S
N494 N493 1.388 . S
N494 C495 1.346 . S
C495 N494 1.346 . S
C495 C496 1.396 . S
C495 C505 1.510 . S
C496 C492 1.401 . S
C496 C495 1.396 . S
C497 C492 1.499 1_455 S
C497 H498 0.959 . S
C497 H499 0.960 . S
C497 H500 0.961 . S
H498 C497 0.959 . S
H499 C497 0.960 . S
H500 C497 0.961 . S
O501 Co476 1.967 1_655 S
O501 C509 1.258 . S
O502 Co477 1.941 . S
O502 C509 1.266 . S
H503 C505 0.959 . S
H504 C505 0.961 . S
C505 C495 1.510 . S
C505 H503 0.959 . S
C505 H504 0.961 . S
C505 H506 0.960 . S
H506 C505 0.960 . S
H507 N487 0.862 . S
O508 Co476 1.920 . S
O508 C481 1.289 1_565 S
C509 O501 1.258 . S
C509 O502 1.266 . S
Co510 O513 1.970 . S
Co510 N527 1.989 . S
Co510 O535 1.967 . S
Co510 O542 1.920 . S
Co511 O514 1.966 . S
Co511 N520 2.022 . S
Co511 N528 1.993 . S
Co511 O536 1.941 . S
C512 O513 1.258 . S
C512 O514 1.263 . S
O513 Co510 1.970 . S
O513 C512 1.258 . S
O514 Co511 1.966 . S
O514 C512 1.263 . S
C515 O516 1.235 . S
C515 O542 1.289 . S
O516 C515 1.235 . S
C517 C519 1.400 . S
C517 N520 1.351 . S
C517 C522 1.501 . S
C518 C519 1.387 . S
C518 N521 1.341 . S
C519 C517 1.400 . S
C519 C518 1.387 . S
N520 Co511 2.022 . S
N520 C517 1.351 . S
N520 N521 1.365 . S
N521 C518 1.341 . S
N521 N520 1.365 . S
N521 H541 0.862 . S
C522 C517 1.501 . S
C522 H523 0.961 . S
C522 H524 0.961 . S
C522 H525 0.960 . S
H523 C522 0.961 . S
H524 C522 0.961 . S
H525 C522 0.960 . S
C526 N527 1.342 . S
C526 C530 1.401 . S
C526 C531 1.499 . S
N527 Co510 1.989 . S
N527 C526 1.342 . S
N527 N528 1.388 . S
N528 Co511 1.993 . S
N528 N527 1.388 . S
N528 C529 1.346 . S
C529 N528 1.346 . S
C529 C530 1.396 . S
C529 C539 1.510 . S
C530 C526 1.401 . S
C530 C529 1.396 . S
C531 C526 1.499 . S
C531 H532 0.959 . S
C531 H533 0.960 . S
C531 H534 0.961 . S
H532 C531 0.959 . S
H533 C531 0.960 . S
H534 C531 0.961 . S
O535 Co510 1.967 . S
O535 C543 1.258 . S
O536 Co511 1.941 . S
O536 C543 1.266 . S
H537 C539 0.959 . S
H538 C539 0.961 . S
C539 C529 1.510 . S
C539 H537 0.959 . S
C539 H538 0.961 . S
C539 H540 0.960 . S
H540 C539 0.960 . S
H541 N521 0.862 . S
O542 Co510 1.920 . S
O542 C515 1.289 . S
C543 O535 1.258 . S
C543 O536 1.266 . S
Co544 O547 1.970 1_455 S
Co544 N561 1.989 1_455 S
Co544 O569 1.967 1_455 S
Co544 O576 1.920 . S
Co545 O548 1.966 . S
Co545 N554 2.022 . S
Co545 N562 1.993 . S
Co545 O570 1.941 . S
C546 O547 1.258 . S
C546 O548 1.263 . S
O547 Co544 1.970 1_655 S
O547 C546 1.258 . S
O548 Co545 1.966 . S
O548 C546 1.263 . S
C549 O550 1.235 . S
C549 O576 1.289 . S
O550 C549 1.235 . S
C551 C553 1.400 . S
C551 N554 1.351 . S
C551 C556 1.501 . S
C552 C553 1.387 . S
C552 N555 1.341 . S
C553 C551 1.400 . S
C553 C552 1.387 . S
N554 Co545 2.022 . S
N554 C551 1.351 . S
N554 N555 1.365 . S
N555 C552 1.341 . S
N555 N554 1.365 . S
N555 H575 0.862 . S
C556 C551 1.501 . S
C556 H557 0.961 . S
C556 H558 0.961 . S
C556 H559 0.960 . S
H557 C556 0.961 . S
H558 C556 0.961 . S
H559 C556 0.960 . S
C560 N561 1.342 . S
C560 C564 1.401 . S
C560 C565 1.499 1_655 S
N561 Co544 1.989 1_655 S
N561 C560 1.342 . S
N561 N562 1.388 . S
N562 Co545 1.993 . S
N562 N561 1.388 . S
N562 C563 1.346 . S
C563 N562 1.346 . S
C563 C564 1.396 . S
C563 C573 1.510 . S
C564 C560 1.401 . S
C564 C563 1.396 . S
C565 C560 1.499 1_455 S
C565 H566 0.959 . S
C565 H567 0.960 . S
C565 H568 0.961 . S
H566 C565 0.959 . S
H567 C565 0.960 . S
H568 C565 0.961 . S
O569 Co544 1.967 1_655 S
O569 C577 1.258 . S
O570 Co545 1.941 . S
O570 C577 1.266 . S
H571 C573 0.959 . S
H572 C573 0.961 . S
C573 C563 1.510 . S
C573 H571 0.959 . S
C573 H572 0.961 . S
C573 H574 0.960 . S
H574 C573 0.960 . S
H575 N555 0.862 . S
O576 Co544 1.920 . S
O576 C549 1.289 . S
C577 O569 1.258 . S
C577 O570 1.266 . S
Co578 O581 1.970 . S
Co578 N595 1.989 . S
Co578 O603 1.967 . S
Co578 O610 1.920 . S
Co579 O582 1.966 . S
Co579 N588 2.022 . S
Co579 N596 1.993 . S
Co579 O604 1.941 . S
C580 O581 1.258 . S
C580 O582 1.263 . S
O581 Co578 1.970 . S
O581 C580 1.258 . S
O582 Co579 1.966 . S
O582 C580 1.263 . S
C583 O584 1.235 . S
C583 O610 1.289 . S
O584 C583 1.235 . S
C585 C587 1.400 . S
C585 N588 1.351 . S
C585 C590 1.501 . S
C586 C587 1.387 . S
C586 N589 1.341 . S
C587 C585 1.400 . S
C587 C586 1.387 . S
N588 Co579 2.022 . S
N588 C585 1.351 . S
N588 N589 1.365 . S
N589 C586 1.341 . S
N589 N588 1.365 . S
N589 H609 0.862 . S
C590 C585 1.501 . S
C590 H591 0.961 . S
C590 H592 0.961 . S
C590 H593 0.960 . S
H591 C590 0.961 . S
H592 C590 0.961 . S
H593 C590 0.960 . S
C594 N595 1.342 . S
C594 C598 1.401 . S
C594 C599 1.499 . S
N595 Co578 1.989 . S
N595 C594 1.342 . S
N595 N596 1.388 . S
N596 Co579 1.993 . S
N596 N595 1.388 . S
N596 C597 1.346 . S
C597 N596 1.346 . S
C597 C598 1.396 . S
C597 C607 1.510 . S
C598 C594 1.401 . S
C598 C597 1.396 . S
C599 C594 1.499 . S
C599 H600 0.959 . S
C599 H601 0.960 . S
C599 H602 0.961 . S
H600 C599 0.959 . S
H601 C599 0.960 . S
H602 C599 0.961 . S
O603 Co578 1.967 . S
O603 C611 1.258 . S
O604 Co579 1.941 . S
O604 C611 1.266 . S
H605 C607 0.959 . S
H606 C607 0.961 . S
C607 C597 1.510 . S
C607 H605 0.959 . S
C607 H606 0.961 . S
C607 H608 0.960 . S
H608 C607 0.960 . S
H609 N589 0.862 . S
O610 Co578 1.920 . S
O610 C583 1.289 . S
C611 O603 1.258 . S
C611 O604 1.266 . S
Co612 O615 1.970 . S
Co612 N629 1.989 . S
Co612 O637 1.967 . S
Co612 O644 1.920 . S
Co613 O616 1.966 . S
Co613 N622 2.022 . S
Co613 N630 1.993 . S
Co613 O638 1.941 . S
C614 O615 1.258 . S
C614 O616 1.263 . S
O615 Co612 1.970 . S
O615 C614 1.258 . S
O616 Co613 1.966 . S
O616 C614 1.263 . S
C617 O618 1.235 . S
C617 O644 1.289 . S
O618 C617 1.235 . S
C619 C621 1.400 . S
C619 N622 1.351 . S
C619 C624 1.501 . S
C620 C621 1.387 . S
C620 N623 1.341 . S
C621 C619 1.400 . S
C621 C620 1.387 . S
N622 Co613 2.022 . S
N622 C619 1.351 . S
N622 N623 1.365 . S
N623 C620 1.341 . S
N623 N622 1.365 . S
N623 H643 0.862 . S
C624 C619 1.501 . S
C624 H625 0.961 . S
C624 H626 0.961 . S
C624 H627 0.960 . S
H625 C624 0.961 . S
H626 C624 0.961 . S
H627 C624 0.960 . S
C628 N629 1.342 . S
C628 C632 1.401 . S
C628 C633 1.499 . S
N629 Co612 1.989 . S
N629 C628 1.342 . S
N629 N630 1.388 . S
N630 Co613 1.993 . S
N630 N629 1.388 . S
N630 C631 1.346 . S
C631 N630 1.346 . S
C631 C632 1.396 . S
C631 C641 1.510 . S
C632 C628 1.401 . S
C632 C631 1.396 . S
C633 C628 1.499 . S
C633 H634 0.959 . S
C633 H635 0.960 . S
C633 H636 0.961 . S
H634 C633 0.959 . S
H635 C633 0.960 . S
H636 C633 0.961 . S
O637 Co612 1.967 . S
O637 C645 1.258 . S
O638 Co613 1.941 . S
O638 C645 1.266 . S
H639 C641 0.959 . S
H640 C641 0.961 . S
C641 C631 1.510 . S
C641 H639 0.959 . S
C641 H640 0.961 . S
C641 H642 0.960 . S
H642 C641 0.960 . S
H643 N623 0.862 . S
O644 Co612 1.920 . S
O644 C617 1.289 . S
C645 O637 1.258 . S
C645 O638 1.266 . S
Co646 O649 1.970 . S
Co646 N663 1.989 . S
Co646 O671 1.967 . S
Co646 O678 1.920 . S
Co647 O650 1.966 . S
Co647 N656 2.022 . S
Co647 N664 1.993 . S
Co647 O672 1.941 . S
C648 O649 1.258 . S
C648 O650 1.263 . S
O649 Co646 1.970 . S
O649 C648 1.258 . S
O650 Co647 1.966 . S
O650 C648 1.263 . S
C651 O652 1.235 . S
C651 O678 1.289 . S
O652 C651 1.235 . S
C653 C655 1.400 . S
C653 N656 1.351 . S
C653 C658 1.501 . S
C654 C655 1.387 . S
C654 N657 1.341 . S
C655 C653 1.400 . S
C655 C654 1.387 . S
N656 Co647 2.022 . S
N656 C653 1.351 . S
N656 N657 1.365 . S
N657 C654 1.341 . S
N657 N656 1.365 . S
N657 H677 0.862 . S
C658 C653 1.501 . S
C658 H659 0.961 . S
C658 H660 0.961 . S
C658 H661 0.960 . S
H659 C658 0.961 . S
H660 C658 0.961 . S
H661 C658 0.960 . S
C662 N663 1.342 . S
C662 C666 1.401 . S
C662 C667 1.499 . S
N663 Co646 1.989 . S
N663 C662 1.342 . S
N663 N664 1.388 . S
N664 Co647 1.993 . S
N664 N663 1.388 . S
N664 C665 1.346 . S
C665 N664 1.346 . S
C665 C666 1.396 . S
C665 C675 1.510 . S
C666 C662 1.401 . S
C666 C665 1.396 . S
C667 C662 1.499 . S
C667 H668 0.959 . S
C667 H669 0.960 . S
C667 H670 0.961 . S
H668 C667 0.959 . S
H669 C667 0.960 . S
H670 C667 0.961 . S
O671 Co646 1.967 . S
O671 C679 1.258 . S
O672 Co647 1.941 . S
O672 C679 1.266 . S
H673 C675 0.959 . S
H674 C675 0.961 . S
C675 C665 1.510 . S
C675 H673 0.959 . S
C675 H674 0.961 . S
C675 H676 0.960 . S
H676 C675 0.960 . S
H677 N657 0.862 . S
O678 Co646 1.920 . S
O678 C651 1.289 . S
C679 O671 1.258 . S
C679 O672 1.266 . S
Co680 O683 1.970 1_455 S
Co680 N697 1.989 1_455 S
Co680 O705 1.967 1_455 S
Co680 O712 1.920 . S
Co681 O684 1.966 . S
Co681 N690 2.022 . S
Co681 N698 1.993 . S
Co681 O706 1.941 . S
C682 O683 1.258 . S
C682 O684 1.263 . S
O683 Co680 1.970 1_655 S
O683 C682 1.258 . S
O684 Co681 1.966 . S
O684 C682 1.263 . S
C685 O686 1.235 . S
C685 O712 1.289 . S
O686 C685 1.235 . S
C687 C689 1.400 . S
C687 N690 1.351 . S
C687 C692 1.501 . S
C688 C689 1.387 . S
C688 N691 1.341 . S
C689 C687 1.400 . S
C689 C688 1.387 . S
N690 Co681 2.022 . S
N690 C687 1.351 . S
N690 N691 1.365 . S
N691 C688 1.341 . S
N691 N690 1.365 . S
N691 H711 0.862 . S
C692 C687 1.501 . S
C692 H693 0.961 . S
C692 H694 0.961 . S
C692 H695 0.960 . S
H693 C692 0.961 . S
H694 C692 0.961 . S
H695 C692 0.960 . S
C696 N697 1.342 . S
C696 C700 1.401 . S
C696 C701 1.499 1_655 S
N697 Co680 1.989 1_655 S
N697 C696 1.342 . S
N697 N698 1.388 . S
N698 Co681 1.993 . S
N698 N697 1.388 . S
N698 C699 1.346 . S
C699 N698 1.346 . S
C699 C700 1.396 . S
C699 C709 1.510 . S
C700 C696 1.401 . S
C700 C699 1.396 . S
C701 C696 1.499 1_455 S
C701 H702 0.959 . S
C701 H703 0.960 . S
C701 H704 0.961 . S
H702 C701 0.959 . S
H703 C701 0.960 . S
H704 C701 0.961 . S
O705 Co680 1.967 1_655 S
O705 C713 1.258 . S
O706 Co681 1.941 . S
O706 C713 1.266 . S
H707 C709 0.959 . S
H708 C709 0.961 . S
C709 C699 1.510 . S
C709 H707 0.959 . S
C709 H708 0.961 . S
C709 H710 0.960 . S
H710 C709 0.960 . S
H711 N691 0.862 . S
O712 Co680 1.920 . S
O712 C685 1.289 . S
C713 O705 1.258 . S
C713 O706 1.266 . S
Co714 O717 1.970 . S
Co714 N731 1.989 . S
Co714 O739 1.967 . S
Co714 O746 1.920 . S
Co715 O718 1.966 . S
Co715 N724 2.022 . S
Co715 N732 1.993 . S
Co715 O740 1.941 . S
C716 O717 1.258 . S
C716 O718 1.263 . S
O717 Co714 1.970 . S
O717 C716 1.258 . S
O718 Co715 1.966 . S
O718 C716 1.263 . S
C719 O720 1.235 . S
C719 O746 1.289 . S
O720 C719 1.235 . S
C721 C723 1.400 . S
C721 N724 1.351 . S
C721 C726 1.501 . S
C722 C723 1.387 . S
C722 N725 1.341 . S
C723 C721 1.400 . S
C723 C722 1.387 . S
N724 Co715 2.022 . S
N724 C721 1.351 . S
N724 N725 1.365 . S
N725 C722 1.341 . S
N725 N724 1.365 . S
N725 H745 0.862 . S
C726 C721 1.501 . S
C726 H727 0.961 . S
C726 H728 0.961 . S
C726 H729 0.960 . S
H727 C726 0.961 . S
H728 C726 0.961 . S
H729 C726 0.960 . S
C730 N731 1.342 . S
C730 C734 1.401 . S
C730 C735 1.499 . S
N731 Co714 1.989 . S
N731 C730 1.342 . S
N731 N732 1.388 . S
N732 Co715 1.993 . S
N732 N731 1.388 . S
N732 C733 1.346 . S
C733 N732 1.346 . S
C733 C734 1.396 . S
C733 C743 1.510 . S
C734 C730 1.401 . S
C734 C733 1.396 . S
C735 C730 1.499 . S
C735 H736 0.959 . S
C735 H737 0.960 . S
C735 H738 0.961 . S
H736 C735 0.959 . S
H737 C735 0.960 . S
H738 C735 0.961 . S
O739 Co714 1.967 . S
O739 C747 1.258 . S
O740 Co715 1.941 . S
O740 C747 1.266 . S
H741 C743 0.959 . S
H742 C743 0.961 . S
C743 C733 1.510 . S
C743 H741 0.959 . S
C743 H742 0.961 . S
C743 H744 0.960 . S
H744 C743 0.960 . S
H745 N725 0.862 . S
O746 Co714 1.920 . S
O746 C719 1.289 . S
C747 O739 1.258 . S
C747 O740 1.266 . S
Co748 O751 1.970 . S
Co748 N765 1.989 . S
Co748 O773 1.967 . S
Co748 O780 1.920 . S
Co749 O752 1.966 . S
Co749 N758 2.022 . S
Co749 N766 1.993 . S
Co749 O774 1.941 . S
C750 O751 1.258 . S
C750 O752 1.263 . S
O751 Co748 1.970 . S
O751 C750 1.258 . S
O752 Co749 1.966 . S
O752 C750 1.263 . S
C753 O754 1.235 . S
C753 O780 1.289 . S
O754 C753 1.235 . S
C755 C757 1.400 . S
C755 N758 1.351 . S
C755 C760 1.501 . S
C756 C757 1.387 . S
C756 N759 1.341 . S
C757 C755 1.400 . S
C757 C756 1.387 . S
N758 Co749 2.022 . S
N758 C755 1.351 . S
N758 N759 1.365 . S
N759 C756 1.341 . S
N759 N758 1.365 . S
N759 H779 0.862 . S
C760 C755 1.501 . S
C760 H761 0.961 . S
C760 H762 0.961 . S
C760 H763 0.960 . S
H761 C760 0.961 . S
H762 C760 0.961 . S
H763 C760 0.960 . S
C764 N765 1.342 . S
C764 C768 1.401 . S
C764 C769 1.499 . S
N765 Co748 1.989 . S
N765 C764 1.342 . S
N765 N766 1.388 . S
N766 Co749 1.993 . S
N766 N765 1.388 . S
N766 C767 1.346 . S
C767 N766 1.346 . S
C767 C768 1.396 . S
C767 C777 1.510 . S
C768 C764 1.401 . S
C768 C767 1.396 . S
C769 C764 1.499 . S
C769 H770 0.959 . S
C769 H771 0.960 . S
C769 H772 0.961 . S
H770 C769 0.959 . S
H771 C769 0.960 . S
H772 C769 0.961 . S
O773 Co748 1.967 . S
O773 C781 1.258 . S
O774 Co749 1.941 . S
O774 C781 1.266 . S
H775 C777 0.959 . S
H776 C777 0.961 . S
C777 C767 1.510 . S
C777 H775 0.959 . S
C777 H776 0.961 . S
C777 H778 0.960 . S
H778 C777 0.960 . S
H779 N759 0.862 . S
O780 Co748 1.920 . S
O780 C753 1.289 . S
C781 O773 1.258 . S
C781 O774 1.266 . S
Co782 O785 1.970 . S
Co782 N799 1.989 . S
Co782 O807 1.967 . S
Co782 O814 1.920 . S
Co783 O786 1.966 . S
Co783 N792 2.022 . S
Co783 N800 1.993 . S
Co783 O808 1.941 . S
C784 O785 1.258 . S
C784 O786 1.263 . S
O785 Co782 1.970 . S
O785 C784 1.258 . S
O786 Co783 1.966 . S
O786 C784 1.263 . S
C787 O788 1.235 . S
C787 O814 1.289 . S
O788 C787 1.235 . S
C789 C791 1.400 . S
C789 N792 1.351 . S
C789 C794 1.501 . S
C790 C791 1.387 . S
C790 N793 1.341 . S
C791 C789 1.400 . S
C791 C790 1.387 . S
N792 Co783 2.022 . S
N792 C789 1.351 . S
N792 N793 1.365 . S
N793 C790 1.341 . S
N793 N792 1.365 . S
N793 H813 0.862 . S
C794 C789 1.501 . S
C794 H795 0.961 . S
C794 H796 0.961 . S
C794 H797 0.960 . S
H795 C794 0.961 . S
H796 C794 0.961 . S
H797 C794 0.960 . S
C798 N799 1.342 . S
C798 C802 1.401 . S
C798 C803 1.499 . S
N799 Co782 1.989 . S
N799 C798 1.342 . S
N799 N800 1.388 . S
N800 Co783 1.993 . S
N800 N799 1.388 . S
N800 C801 1.346 . S
C801 N800 1.346 . S
C801 C802 1.396 . S
C801 C811 1.510 . S
C802 C798 1.401 . S
C802 C801 1.396 . S
C803 C798 1.499 . S
C803 H804 0.959 . S
C803 H805 0.960 . S
C803 H806 0.961 . S
H804 C803 0.959 . S
H805 C803 0.960 . S
H806 C803 0.961 . S
O807 Co782 1.967 . S
O807 C815 1.258 . S
O808 Co783 1.941 . S
O808 C815 1.266 . S
H809 C811 0.959 . S
H810 C811 0.961 . S
C811 C801 1.510 . S
C811 H809 0.959 . S
C811 H810 0.961 . S
C811 H812 0.960 . S
H812 C811 0.960 . S
H813 N793 0.862 . S
O814 Co782 1.920 . S
O814 C787 1.289 . S
C815 O807 1.258 . S
C815 O808 1.266 . S
Co816 O819 1.970 1_655 S
Co816 N833 1.989 1_655 S
Co816 O841 1.967 1_655 S
Co816 O848 1.920 . S
Co817 O820 1.966 . S
Co817 N826 2.022 . S
Co817 N834 1.993 . S
Co817 O842 1.941 . S
C818 O819 1.258 . S
C818 O820 1.263 . S
O819 Co816 1.970 1_455 S
O819 C818 1.258 . S
O820 Co817 1.966 . S
O820 C818 1.263 . S
C821 O822 1.235 . S
C821 O848 1.289 . S
O822 C821 1.235 . S
C823 C825 1.400 . S
C823 N826 1.351 . S
C823 C828 1.501 . S
C824 C825 1.387 . S
C824 N827 1.341 . S
C825 C823 1.400 . S
C825 C824 1.387 . S
N826 Co817 2.022 . S
N826 C823 1.351 . S
N826 N827 1.365 . S
N827 C824 1.341 . S
N827 N826 1.365 . S
N827 H847 0.862 . S
C828 C823 1.501 . S
C828 H829 0.961 . S
C828 H830 0.961 . S
C828 H831 0.960 . S
H829 C828 0.961 . S
H830 C828 0.961 . S
H831 C828 0.960 . S
C832 N833 1.342 . S
C832 C836 1.401 . S
C832 C837 1.499 1_455 S
N833 Co816 1.989 1_455 S
N833 C832 1.342 . S
N833 N834 1.388 . S
N834 Co817 1.993 . S
N834 N833 1.388 . S
N834 C835 1.346 . S
C835 N834 1.346 . S
C835 C836 1.396 . S
C835 C845 1.510 . S
C836 C832 1.401 . S
C836 C835 1.396 . S
C837 C832 1.499 1_655 S
C837 H838 0.959 . S
C837 H839 0.960 . S
C837 H840 0.961 . S
H838 C837 0.959 . S
H839 C837 0.960 . S
H840 C837 0.961 . S
O841 Co816 1.967 1_455 S
O841 C849 1.258 . S
O842 Co817 1.941 . S
O842 C849 1.266 . S
H843 C845 0.959 . S
H844 C845 0.961 . S
C845 C835 1.510 . S
C845 H843 0.959 . S
C845 H844 0.961 . S
C845 H846 0.960 . S
H846 C845 0.960 . S
H847 N827 0.862 . S
O848 Co816 1.920 . S
O848 C821 1.289 . S
C849 O841 1.258 . S
C849 O842 1.266 . S
Co850 O853 1.970 . S
Co850 N867 1.989 . S
Co850 O875 1.967 . S
Co850 O882 1.920 . S
Co851 O854 1.966 . S
Co851 N860 2.022 . S
Co851 N868 1.993 . S
Co851 O876 1.941 . S
C852 O853 1.258 . S
C852 O854 1.263 . S
O853 Co850 1.970 . S
O853 C852 1.258 . S
O854 Co851 1.966 . S
O854 C852 1.263 . S
C855 O856 1.235 . S
C855 O882 1.289 . S
O856 C855 1.235 . S
C857 C859 1.400 . S
C857 N860 1.351 . S
C857 C862 1.501 . S
C858 C859 1.387 . S
C858 N861 1.341 . S
C859 C857 1.400 . S
C859 C858 1.387 . S
N860 Co851 2.022 . S
N860 C857 1.351 . S
N860 N861 1.365 . S
N861 C858 1.341 . S
N861 N860 1.365 . S
N861 H881 0.862 . S
C862 C857 1.501 . S
C862 H863 0.961 . S
C862 H864 0.961 . S
C862 H865 0.960 . S
H863 C862 0.961 . S
H864 C862 0.961 . S
H865 C862 0.960 . S
C866 N867 1.342 . S
C866 C870 1.401 . S
C866 C871 1.499 . S
N867 Co850 1.989 . S
N867 C866 1.342 . S
N867 N868 1.388 . S
N868 Co851 1.993 . S
N868 N867 1.388 . S
N868 C869 1.346 . S
C869 N868 1.346 . S
C869 C870 1.396 . S
C869 C879 1.510 . S
C870 C866 1.401 . S
C870 C869 1.396 . S
C871 C866 1.499 . S
C871 H872 0.959 . S
C871 H873 0.960 . S
C871 H874 0.961 . S
H872 C871 0.959 . S
H873 C871 0.960 . S
H874 C871 0.961 . S
O875 Co850 1.967 . S
O875 C883 1.258 . S
O876 Co851 1.941 . S
O876 C883 1.266 . S
H877 C879 0.959 . S
H878 C879 0.961 . S
C879 C869 1.510 . S
C879 H877 0.959 . S
C879 H878 0.961 . S
C879 H880 0.960 . S
H880 C879 0.960 . S
H881 N861 0.862 . S
O882 Co850 1.920 . S
O882 C855 1.289 . S
C883 O875 1.258 . S
C883 O876 1.266 . S
Co884 O887 1.970 . S
Co884 N901 1.989 . S
Co884 O909 1.967 . S
Co884 O916 1.920 . S
Co885 O888 1.966 . S
Co885 N894 2.022 . S
Co885 N902 1.993 . S
Co885 O910 1.941 . S
C886 O887 1.258 . S
C886 O888 1.263 . S
O887 Co884 1.970 . S
O887 C886 1.258 . S
O888 Co885 1.966 . S
O888 C886 1.263 . S
C889 O890 1.235 . S
C889 O916 1.289 . S
O890 C889 1.235 . S
C891 C893 1.400 . S
C891 N894 1.351 . S
C891 C896 1.501 . S
C892 C893 1.387 . S
C892 N895 1.341 . S
C893 C891 1.400 . S
C893 C892 1.387 . S
N894 Co885 2.022 . S
N894 C891 1.351 . S
N894 N895 1.365 . S
N895 C892 1.341 . S
N895 N894 1.365 . S
N895 H915 0.862 . S
C896 C891 1.501 . S
C896 H897 0.961 . S
C896 H898 0.961 . S
C896 H899 0.960 . S
H897 C896 0.961 . S
H898 C896 0.961 . S
H899 C896 0.960 . S
C900 N901 1.342 . S
C900 C904 1.401 . S
C900 C905 1.499 . S
N901 Co884 1.989 . S
N901 C900 1.342 . S
N901 N902 1.388 . S
N902 Co885 1.993 . S
N902 N901 1.388 . S
N902 C903 1.346 . S
C903 N902 1.346 . S
C903 C904 1.396 . S
C903 C913 1.510 . S
C904 C900 1.401 . S
C904 C903 1.396 . S
C905 C900 1.499 . S
C905 H906 0.959 . S
C905 H907 0.960 . S
C905 H908 0.961 . S
H906 C905 0.959 . S
H907 C905 0.960 . S
H908 C905 0.961 . S
O909 Co884 1.967 . S
O909 C917 1.258 . S
O910 Co885 1.941 . S
O910 C917 1.266 . S
H911 C913 0.959 . S
H912 C913 0.961 . S
C913 C903 1.510 . S
C913 H911 0.959 . S
C913 H912 0.961 . S
C913 H914 0.960 . S
H914 C913 0.960 . S
H915 N895 0.862 . S
O916 Co884 1.920 . S
O916 C889 1.289 . S
C917 O909 1.258 . S
C917 O910 1.266 . S
Co918 O921 1.970 . S
Co918 N935 1.989 . S
Co918 O943 1.967 . S
Co918 O950 1.920 . S
Co919 O922 1.966 . S
Co919 N928 2.022 . S
Co919 N936 1.993 . S
Co919 O944 1.941 . S
C920 O921 1.258 . S
C920 O922 1.263 . S
O921 Co918 1.970 . S
O921 C920 1.258 . S
O922 Co919 1.966 . S
O922 C920 1.263 . S
C923 O924 1.235 . S
C923 O950 1.289 . S
O924 C923 1.235 . S
C925 C927 1.400 . S
C925 N928 1.351 . S
C925 C930 1.501 . S
C926 C927 1.387 . S
C926 N929 1.341 . S
C927 C925 1.400 . S
C927 C926 1.387 . S
N928 Co919 2.022 . S
N928 C925 1.351 . S
N928 N929 1.365 . S
N929 C926 1.341 . S
N929 N928 1.365 . S
N929 H949 0.862 . S
C930 C925 1.501 . S
C930 H931 0.961 . S
C930 H932 0.961 . S
C930 H933 0.960 . S
H931 C930 0.961 . S
H932 C930 0.961 . S
H933 C930 0.960 . S
C934 N935 1.342 . S
C934 C938 1.401 . S
C934 C939 1.499 . S
N935 Co918 1.989 . S
N935 C934 1.342 . S
N935 N936 1.388 . S
N936 Co919 1.993 . S
N936 N935 1.388 . S
N936 C937 1.346 . S
C937 N936 1.346 . S
C937 C938 1.396 . S
C937 C947 1.510 . S
C938 C934 1.401 . S
C938 C937 1.396 . S
C939 C934 1.499 . S
C939 H940 0.959 . S
C939 H941 0.960 . S
C939 H942 0.961 . S
H940 C939 0.959 . S
H941 C939 0.960 . S
H942 C939 0.961 . S
O943 Co918 1.967 . S
O943 C951 1.258 . S
O944 Co919 1.941 . S
O944 C951 1.266 . S
H945 C947 0.959 . S
H946 C947 0.961 . S
C947 C937 1.510 . S
C947 H945 0.959 . S
C947 H946 0.961 . S
C947 H948 0.960 . S
H948 C947 0.960 . S
H949 N929 0.862 . S
O950 Co918 1.920 . S
O950 C923 1.289 . S
C951 O943 1.258 . S
C951 O944 1.266 . S
Co952 O955 1.970 1_655 S
Co952 N969 1.989 1_655 S
Co952 O977 1.967 1_655 S
Co952 O984 1.920 . S
Co953 O956 1.966 . S
Co953 N962 2.022 . S
Co953 N970 1.993 . S
Co953 O978 1.941 . S
C954 O955 1.258 . S
C954 O956 1.263 . S
O955 Co952 1.970 1_455 S
O955 C954 1.258 . S
O956 Co953 1.966 . S
O956 C954 1.263 . S
C957 O958 1.235 . S
C957 O984 1.289 . S
O958 C957 1.235 . S
C959 C961 1.400 . S
C959 N962 1.351 . S
C959 C964 1.501 . S
C960 C961 1.387 . S
C960 N963 1.341 . S
C961 C959 1.400 . S
C961 C960 1.387 . S
N962 Co953 2.022 . S
N962 C959 1.351 . S
N962 N963 1.365 . S
N963 C960 1.341 . S
N963 N962 1.365 . S
N963 H983 0.862 . S
C964 C959 1.501 . S
C964 H965 0.961 . S
C964 H966 0.961 . S
C964 H967 0.960 . S
H965 C964 0.961 . S
H966 C964 0.961 . S
H967 C964 0.960 . S
C968 N969 1.342 . S
C968 C972 1.401 . S
C968 C973 1.499 1_455 S
N969 Co952 1.989 1_455 S
N969 C968 1.342 . S
N969 N970 1.388 . S
N970 Co953 1.993 . S
N970 N969 1.388 . S
N970 C971 1.346 . S
C971 N970 1.346 . S
C971 C972 1.396 . S
C971 C981 1.510 . S
C972 C968 1.401 . S
C972 C971 1.396 . S
C973 C968 1.499 1_655 S
C973 H974 0.959 . S
C973 H975 0.960 . S
C973 H976 0.961 . S
H974 C973 0.959 . S
H975 C973 0.960 . S
H976 C973 0.961 . S
O977 Co952 1.967 1_455 S
O977 C985 1.258 . S
O978 Co953 1.941 . S
O978 C985 1.266 . S
H979 C981 0.959 . S
H980 C981 0.961 . S
C981 C971 1.510 . S
C981 H979 0.959 . S
C981 H980 0.961 . S
C981 H982 0.960 . S
H982 C981 0.960 . S
H983 N963 0.862 . S
O984 Co952 1.920 . S
O984 C957 1.289 . S
C985 O977 1.258 . S
C985 O978 1.266 . S
Co986 O989 1.970 . S
Co986 N1003 1.989 . S
Co986 O1011 1.967 . S
Co986 O1018 1.920 . S
Co987 O990 1.966 . S
Co987 N996 2.022 . S
Co987 N1004 1.993 . S
Co987 O1012 1.941 . S
C988 O989 1.258 . S
C988 O990 1.263 . S
O989 Co986 1.970 . S
O989 C988 1.258 . S
O990 Co987 1.966 . S
O990 C988 1.263 . S
C991 O992 1.235 . S
C991 O1018 1.289 . S
O992 C991 1.235 . S
C993 C995 1.400 . S
C993 N996 1.351 . S
C993 C998 1.501 . S
C994 C995 1.387 . S
C994 N997 1.341 . S
C995 C993 1.400 . S
C995 C994 1.387 . S
N996 Co987 2.022 . S
N996 C993 1.351 . S
N996 N997 1.365 . S
N997 C994 1.341 . S
N997 N996 1.365 . S
N997 H1017 0.862 . S
C998 C993 1.501 . S
C998 H999 0.961 . S
C998 H1000 0.961 . S
C998 H1001 0.960 . S
H999 C998 0.961 . S
H1000 C998 0.961 . S
H1001 C998 0.960 . S
C1002 N1003 1.342 . S
C1002 C1006 1.401 . S
C1002 C1007 1.499 . S
N1003 Co986 1.989 . S
N1003 C1002 1.342 . S
N1003 N1004 1.388 . S
N1004 Co987 1.993 . S
N1004 N1003 1.388 . S
N1004 C1005 1.346 . S
C1005 N1004 1.346 . S
C1005 C1006 1.396 . S
C1005 C1015 1.510 . S
C1006 C1002 1.401 . S
C1006 C1005 1.396 . S
C1007 C1002 1.499 . S
C1007 H1008 0.959 . S
C1007 H1009 0.960 . S
C1007 H1010 0.961 . S
H1008 C1007 0.959 . S
H1009 C1007 0.960 . S
H1010 C1007 0.961 . S
O1011 Co986 1.967 . S
O1011 C1019 1.258 . S
O1012 Co987 1.941 . S
O1012 C1019 1.266 . S
H1013 C1015 0.959 . S
H1014 C1015 0.961 . S
C1015 C1005 1.510 . S
C1015 H1013 0.959 . S
C1015 H1014 0.961 . S
C1015 H1016 0.960 . S
H1016 C1015 0.960 . S
H1017 N997 0.862 . S
O1018 Co986 1.920 . S
O1018 C991 1.289 . S
C1019 O1011 1.258 . S
C1019 O1012 1.266 . S
Co1020 O1023 1.970 . S
Co1020 N1037 1.989 . S
Co1020 O1045 1.967 . S
Co1020 O1052 1.920 . S
Co1021 O1024 1.966 . S
Co1021 N1030 2.022 . S
Co1021 N1038 1.993 . S
Co1021 O1046 1.941 . S
C1022 O1023 1.258 . S
C1022 O1024 1.263 . S
O1023 Co1020 1.970 . S
O1023 C1022 1.258 . S
O1024 Co1021 1.966 . S
O1024 C1022 1.263 . S
C1025 O1026 1.235 . S
C1025 O1052 1.289 . S
O1026 C1025 1.235 . S
C1027 C1029 1.400 . S
C1027 N1030 1.351 . S
C1027 C1032 1.501 . S
C1028 C1029 1.387 . S
C1028 N1031 1.341 . S
C1029 C1027 1.400 . S
C1029 C1028 1.387 . S
N1030 Co1021 2.022 . S
N1030 C1027 1.351 . S
N1030 N1031 1.365 . S
N1031 C1028 1.341 . S
N1031 N1030 1.365 . S
N1031 H1051 0.862 . S
C1032 C1027 1.501 . S
C1032 H1033 0.961 . S
C1032 H1034 0.961 . S
C1032 H1035 0.960 . S
H1033 C1032 0.961 . S
H1034 C1032 0.961 . S
H1035 C1032 0.960 . S
C1036 N1037 1.342 . S
C1036 C1040 1.401 . S
C1036 C1041 1.499 . S
N1037 Co1020 1.989 . S
N1037 C1036 1.342 . S
N1037 N1038 1.388 . S
N1038 Co1021 1.993 . S
N1038 N1037 1.388 . S
N1038 C1039 1.346 . S
C1039 N1038 1.346 . S
C1039 C1040 1.396 . S
C1039 C1049 1.510 . S
C1040 C1036 1.401 . S
C1040 C1039 1.396 . S
C1041 C1036 1.499 . S
C1041 H1042 0.959 . S
C1041 H1043 0.960 . S
C1041 H1044 0.961 . S
H1042 C1041 0.959 . S
H1043 C1041 0.960 . S
H1044 C1041 0.961 . S
O1045 Co1020 1.967 . S
O1045 C1053 1.258 . S
O1046 Co1021 1.941 . S
O1046 C1053 1.266 . S
H1047 C1049 0.959 . S
H1048 C1049 0.961 . S
C1049 C1039 1.510 . S
C1049 H1047 0.959 . S
C1049 H1048 0.961 . S
C1049 H1050 0.960 . S
H1050 C1049 0.960 . S
H1051 N1031 0.862 . S
O1052 Co1020 1.920 . S
O1052 C1025 1.289 . S
C1053 O1045 1.258 . S
C1053 O1046 1.266 . S
Co1054 O1057 1.970 . S
Co1054 N1071 1.989 . S
Co1054 O1079 1.967 . S
Co1054 O1086 1.920 . S
Co1055 O1058 1.966 . S
Co1055 N1064 2.022 . S
Co1055 N1072 1.993 . S
Co1055 O1080 1.941 . S
C1056 O1057 1.258 . S
C1056 O1058 1.263 . S
O1057 Co1054 1.970 . S
O1057 C1056 1.258 . S
O1058 Co1055 1.966 . S
O1058 C1056 1.263 . S
C1059 O1060 1.235 . S
C1059 O1086 1.289 . S
O1060 C1059 1.235 . S
C1061 C1063 1.400 . S
C1061 N1064 1.351 . S
C1061 C1066 1.501 . S
C1062 C1063 1.387 . S
C1062 N1065 1.341 . S
C1063 C1061 1.400 . S
C1063 C1062 1.387 . S
N1064 Co1055 2.022 . S
N1064 C1061 1.351 . S
N1064 N1065 1.365 . S
N1065 C1062 1.341 . S
N1065 N1064 1.365 . S
N1065 H1085 0.862 . S
C1066 C1061 1.501 . S
C1066 H1067 0.961 . S
C1066 H1068 0.961 . S
C1066 H1069 0.960 . S
H1067 C1066 0.961 . S
H1068 C1066 0.961 . S
H1069 C1066 0.960 . S
C1070 N1071 1.342 . S
C1070 C1074 1.401 . S
C1070 C1075 1.499 . S
N1071 Co1054 1.989 . S
N1071 C1070 1.342 . S
N1071 N1072 1.388 . S
N1072 Co1055 1.993 . S
N1072 N1071 1.388 . S
N1072 C1073 1.346 . S
C1073 N1072 1.346 . S
C1073 C1074 1.396 . S
C1073 C1083 1.510 . S
C1074 C1070 1.401 . S
C1074 C1073 1.396 . S
C1075 C1070 1.499 . S
C1075 H1076 0.959 . S
C1075 H1077 0.960 . S
C1075 H1078 0.961 . S
H1076 C1075 0.959 . S
H1077 C1075 0.960 . S
H1078 C1075 0.961 . S
O1079 Co1054 1.967 . S
O1079 C1087 1.258 . S
O1080 Co1055 1.941 . S
O1080 C1087 1.266 . S
H1081 C1083 0.959 . S
H1082 C1083 0.961 . S
C1083 C1073 1.510 . S
C1083 H1081 0.959 . S
C1083 H1082 0.961 . S
C1083 H1084 0.960 . S
H1084 C1083 0.960 . S
H1085 N1065 0.862 . S
O1086 Co1054 1.920 . S
O1086 C1059 1.289 . S
C1087 O1079 1.258 . S
C1087 O1080 1.266 . S
H1088 C1096 0.950 . S
H1089 C1101 0.950 . S
H1090 C1098 0.950 . S
H1091 C1100 0.950 . S
H1092 C1102 0.950 . S
H1093 C1104 0.950 . S
H1094 C1106 0.950 . S
H1095 C1107 0.950 . S
C1096 H1088 0.950 . S
C1096 C1097 1.386 . S
C1096 C1098 1.391 . S
C1097 C1096 1.386 . S
C1097 C1101 1.393 1_545 S
C1098 H1090 0.950 . S
C1098 C1096 1.391 . S
C1098 C1099 1.419 . S
C1099 C1098 1.419 . S
C1099 C1100 1.381 1_545 S
C1099 C1105 1.490 1_544 S
C1100 H1091 0.950 . S
C1100 C1099 1.381 1_565 S
C1100 C1101 1.391 . S
C1101 H1089 0.950 . S
C1101 C1097 1.393 1_565 S
C1101 C1100 1.391 . S
C1102 H1092 0.950 . S
C1102 C1103 1.386 . S
C1102 C1104 1.391 . S
C1103 C1102 1.386 . S
C1103 C1107 1.393 1_565 S
C1104 H1093 0.950 . S
C1104 C1102 1.391 . S
C1104 C1105 1.419 . S
C1105 C1099 1.490 1_566 S
C1105 C1104 1.419 . S
C1105 C1106 1.381 1_565 S
C1106 H1094 0.950 . S
C1106 C1105 1.381 1_545 S
C1106 C1107 1.391 . S
C1107 H1095 0.950 . S
C1107 C1103 1.393 1_545 S
C1107 C1106 1.391 . S
H1108 C1116 0.950 . S
H1109 C1121 0.950 . S
H1110 C1118 0.950 . S
H1111 C1120 0.950 . S
H1112 C1122 0.950 . S
H1113 C1124 0.950 . S
H1114 C1126 0.950 . S
H1115 C1127 0.950 . S
C1116 H1108 0.950 . S
C1116 C1117 1.386 . S
C1116 C1118 1.391 . S
C1117 C1116 1.386 . S
C1117 C1121 1.393 . S
C1118 H1110 0.950 . S
C1118 C1116 1.391 . S
C1118 C1119 1.400 . S
C1119 C1118 1.400 . S
C1119 C1120 1.398 . S
C1119 C1125 1.491 . S
C1120 H1111 0.950 . S
C1120 C1119 1.398 . S
C1120 C1121 1.391 . S
C1121 H1109 0.950 . S
C1121 C1117 1.393 . S
C1121 C1120 1.391 . S
C1122 H1112 0.950 . S
C1122 C1123 1.386 . S
C1122 C1124 1.391 . S
C1123 C1122 1.386 . S
C1123 C1127 1.393 . S
C1124 H1113 0.950 . S
C1124 C1122 1.391 . S
C1124 C1125 1.400 . S
C1125 C1119 1.491 . S
C1125 C1124 1.400 . S
C1125 C1126 1.398 . S
C1126 H1114 0.950 . S
C1126 C1125 1.398 . S
C1126 C1127 1.391 . S
C1127 H1115 0.950 . S
C1127 C1123 1.393 . S
C1127 C1126 1.391 . S
H1128 C1136 0.950 . S
H1129 C1141 0.950 . S
H1130 C1138 0.950 . S
H1131 C1140 0.950 . S
H1132 C1142 0.950 . S
H1133 C1144 0.950 . S
H1134 C1146 0.950 . S
H1135 C1147 0.950 . S
C1136 H1128 0.950 . S
C1136 C1137 1.386 1_565 S
C1136 C1138 1.391 . S
C1137 C1136 1.386 1_545 S
C1137 C1141 1.393 1_655 S
C1138 H1130 0.950 . S
C1138 C1136 1.391 . S
C1138 C1139 1.392 1_565 S
C1139 C1138 1.392 1_545 S
C1139 C1140 1.407 1_655 S
C1139 C1145 1.490 1_645 S
C1140 H1131 0.950 . S
C1140 C1139 1.407 1_455 S
C1140 C1141 1.391 . S
C1141 H1129 0.950 . S
C1141 C1137 1.393 1_455 S
C1141 C1140 1.391 . S
C1142 H1132 0.950 . S
C1142 C1143 1.386 1_545 S
C1142 C1144 1.391 . S
C1143 C1142 1.386 1_565 S
C1143 C1147 1.393 1_455 S
C1144 H1133 0.950 . S
C1144 C1142 1.391 . S
C1144 C1145 1.392 1_545 S
C1145 C1139 1.490 1_465 S
C1145 C1144 1.392 1_565 S
C1145 C1146 1.407 1_455 S
C1146 H1134 0.950 . S
C1146 C1145 1.407 1_655 S
C1146 C1147 1.391 . S
C1147 H1135 0.950 . S
C1147 C1143 1.393 1_655 S
C1147 C1146 1.391 . S
H1148 C1156 0.950 . S
H1149 C1161 0.950 . S
H1150 C1158 0.950 . S
H1151 C1160 0.950 . S
H1152 C1162 0.950 . S
H1153 C1164 0.950 . S
H1154 C1166 0.950 . S
H1155 C1167 0.950 . S
C1156 H1148 0.950 . S
C1156 C1157 1.386 . S
C1156 C1158 1.391 . S
C1157 C1156 1.386 . S
C1157 C1161 1.393 . S
C1158 H1150 0.950 . S
C1158 C1156 1.391 . S
C1158 C1159 1.400 . S
C1159 C1158 1.400 . S
C1159 C1160 1.398 . S
C1159 C1165 1.491 . S
C1160 H1151 0.950 . S
C1160 C1159 1.398 . S
C1160 C1161 1.391 . S
C1161 H1149 0.950 . S
C1161 C1157 1.393 . S
C1161 C1160 1.391 . S
C1162 H1152 0.950 . S
C1162 C1163 1.386 . S
C1162 C1164 1.391 . S
C1163 C1162 1.386 . S
C1163 C1167 1.393 . S
C1164 H1153 0.950 . S
C1164 C1162 1.391 . S
C1164 C1165 1.400 . S
C1165 C1159 1.491 . S
C1165 C1164 1.400 . S
C1165 C1166 1.398 . S
C1166 H1154 0.950 . S
C1166 C1165 1.398 . S
C1166 C1167 1.391 . S
C1167 H1155 0.950 . S
C1167 C1163 1.393 . S
C1167 C1166 1.391 . S
H1168 C1176 0.950 . S
H1169 C1181 0.950 . S
H1170 C1178 0.950 . S
H1171 C1180 0.950 . S
H1172 C1182 0.950 . S
H1173 C1184 0.950 . S
H1174 C1186 0.950 . S
H1175 C1187 0.950 . S
C1176 H1168 0.950 . S
C1176 C1177 1.386 . S
C1176 C1178 1.391 . S
C1177 C1176 1.386 . S
C1177 C1181 1.393 1_545 S
C1178 H1170 0.950 . S
C1178 C1176 1.391 . S
C1178 C1179 1.400 . S
C1179 C1178 1.400 . S
C1179 C1180 1.398 1_545 S
C1179 C1185 1.491 1_545 S
C1180 H1171 0.950 . S
C1180 C1179 1.398 1_565 S
C1180 C1181 1.391 . S
C1181 H1169 0.950 . S
C1181 C1177 1.393 1_565 S
C1181 C1180 1.391 . S
C1182 H1172 0.950 . S
C1182 C1183 1.386 . S
C1182 C1184 1.391 . S
C1183 C1182 1.386 . S
C1183 C1187 1.393 1_565 S
C1184 H1173 0.950 . S
C1184 C1182 1.391 . S
C1184 C1185 1.400 . S
C1185 C1179 1.491 1_565 S
C1185 C1184 1.400 . S
C1185 C1186 1.398 1_565 S
C1186 H1174 0.950 . S
C1186 C1185 1.398 1_545 S
C1186 C1187 1.391 . S
C1187 H1175 0.950 . S
C1187 C1183 1.393 1_545 S
C1187 C1186 1.391 . S
H1188 C1196 0.950 . S
H1189 C1201 0.950 . S
H1190 C1198 0.950 . S
H1191 C1200 0.950 . S
H1192 C1202 0.950 . S
H1193 C1204 0.950 . S
H1194 C1206 0.950 . S
H1195 C1207 0.950 . S
C1196 H1188 0.950 . S
C1196 C1197 1.386 . S
C1196 C1198 1.391 . S
C1197 C1196 1.386 . S
C1197 C1201 1.393 . S
C1198 H1190 0.950 . S
C1198 C1196 1.391 . S
C1198 C1199 1.400 . S
C1199 C1198 1.400 . S
C1199 C1200 1.398 . S
C1199 C1205 1.491 . S
C1200 H1191 0.950 . S
C1200 C1199 1.398 . S
C1200 C1201 1.391 . S
C1201 H1189 0.950 . S
C1201 C1197 1.393 . S
C1201 C1200 1.391 . S
C1202 H1192 0.950 . S
C1202 C1203 1.386 . S
C1202 C1204 1.391 . S
C1203 C1202 1.386 . S
C1203 C1207 1.393 . S
C1204 H1193 0.950 . S
C1204 C1202 1.391 . S
C1204 C1205 1.400 . S
C1205 C1199 1.491 . S
C1205 C1204 1.400 . S
C1205 C1206 1.398 . S
C1206 H1194 0.950 . S
C1206 C1205 1.398 . S
C1206 C1207 1.391 . S
C1207 H1195 0.950 . S
C1207 C1203 1.393 . S
C1207 C1206 1.391 . S
H1208 C1216 0.950 . S
H1209 C1221 0.950 . S
H1210 C1218 0.950 . S
H1211 C1220 0.950 . S
H1212 C1222 0.950 . S
H1213 C1224 0.950 . S
H1214 C1226 0.950 . S
H1215 C1227 0.950 . S
C1216 H1208 0.950 . S
C1216 C1217 1.386 1_445 S
C1216 C1218 1.391 . S
C1217 C1216 1.386 1_665 S
C1217 C1221 1.393 . S
C1218 H1210 0.950 . S
C1218 C1216 1.391 . S
C1218 C1219 1.400 1_445 S
C1219 C1218 1.400 1_665 S
C1219 C1220 1.398 . S
C1219 C1225 1.491 1_664 S
C1220 H1211 0.950 . S
C1220 C1219 1.398 . S
C1220 C1221 1.391 . S
C1221 H1209 0.950 . S
C1221 C1217 1.393 . S
C1221 C1220 1.391 . S
C1222 H1212 0.950 . S
C1222 C1223 1.386 1_665 S
C1222 C1224 1.391 . S
C1223 C1222 1.386 1_445 S
C1223 C1227 1.393 . S
C1224 H1213 0.950 . S
C1224 C1222 1.391 . S
C1224 C1225 1.400 1_665 S
C1225 C1219 1.491 1_446 S
C1225 C1224 1.400 1_445 S
C1225 C1226 1.398 . S
C1226 H1214 0.950 . S
C1226 C1225 1.398 . S
C1226 C1227 1.391 . S
C1227 H1215 0.950 . S
C1227 C1223 1.393 . S
C1227 C1226 1.391 . S
H1228 C1236 0.950 . S
H1229 C1241 0.950 . S
H1230 C1238 0.950 . S
H1231 C1240 0.950 . S
H1232 C1242 0.950 . S
H1233 C1244 0.950 . S
H1234 C1246 0.950 . S
H1235 C1247 0.950 . S
C1236 H1228 0.950 . S
C1236 C1237 1.386 . S
C1236 C1238 1.391 . S
C1237 C1236 1.386 . S
C1237 C1241 1.393 . S
C1238 H1230 0.950 . S
C1238 C1236 1.391 . S
C1238 C1239 1.400 . S
C1239 C1238 1.400 . S
C1239 C1240 1.398 . S
C1239 C1245 1.491 . S
C1240 H1231 0.950 . S
C1240 C1239 1.398 . S
C1240 C1241 1.391 . S
C1241 H1229 0.950 . S
C1241 C1237 1.393 . S
C1241 C1240 1.391 . S
C1242 H1232 0.950 . S
C1242 C1243 1.386 . S
C1242 C1244 1.391 . S
C1243 C1242 1.386 . S
C1243 C1247 1.393 . S
C1244 H1233 0.950 . S
C1244 C1242 1.391 . S
C1244 C1245 1.400 . S
C1245 C1239 1.491 . S
C1245 C1244 1.400 . S
C1245 C1246 1.398 . S
C1246 H1234 0.950 . S
C1246 C1245 1.398 . S
C1246 C1247 1.391 . S
C1247 H1235 0.950 . S
C1247 C1243 1.393 . S
C1247 C1246 1.391 . S
H1248 C1256 0.950 . S
H1249 C1261 0.950 . S
H1250 C1258 0.950 . S
H1251 C1260 0.950 . S
H1252 C1262 0.950 . S
H1253 C1264 0.950 . S
H1254 C1266 0.950 . S
H1255 C1267 0.950 . S
C1256 H1248 0.950 . S
C1256 C1257 1.386 . S
C1256 C1258 1.391 . S
C1257 C1256 1.386 . S
C1257 C1261 1.393 . S
C1258 H1250 0.950 . S
C1258 C1256 1.391 . S
C1258 C1259 1.400 . S
C1259 C1258 1.400 . S
C1259 C1260 1.398 . S
C1259 C1265 1.491 . S
C1260 H1251 0.950 . S
C1260 C1259 1.398 . S
C1260 C1261 1.391 . S
C1261 H1249 0.950 . S
C1261 C1257 1.393 . S
C1261 C1260 1.391 . S
C1262 H1252 0.950 . S
C1262 C1263 1.386 . S
C1262 C1264 1.391 . S
C1263 C1262 1.386 . S
C1263 C1267 1.393 . S
C1264 H1253 0.950 . S
C1264 C1262 1.391 . S
C1264 C1265 1.400 . S
C1265 C1259 1.491 . S
C1265 C1264 1.400 . S
C1265 C1266 1.398 . S
C1266 H1254 0.950 . S
C1266 C1265 1.398 . S
C1266 C1267 1.391 . S
C1267 H1255 0.950 . S
C1267 C1263 1.393 . S
C1267 C1266 1.391 . S
H1268 C1276 0.950 . S
H1269 C1281 0.950 . S
H1270 C1278 0.950 . S
H1271 C1280 0.950 . S
H1272 C1282 0.950 . S
H1273 C1284 0.950 . S
H1274 C1286 0.950 . S
H1275 C1287 0.950 . S
C1276 H1268 0.950 . S
C1276 C1277 1.386 . S
C1276 C1278 1.391 . S
C1277 C1276 1.386 . S
C1277 C1281 1.393 . S
C1278 H1270 0.950 . S
C1278 C1276 1.391 . S
C1278 C1279 1.400 . S
C1279 C1278 1.400 . S
C1279 C1280 1.398 . S
C1279 C1285 1.491 . S
C1280 H1271 0.950 . S
C1280 C1279 1.398 . S
C1280 C1281 1.391 . S
C1281 H1269 0.950 . S
C1281 C1277 1.393 . S
C1281 C1280 1.391 . S
C1282 H1272 0.950 . S
C1282 C1283 1.386 . S
C1282 C1284 1.391 . S
C1283 C1282 1.386 . S
C1283 C1287 1.393 . S
C1284 H1273 0.950 . S
C1284 C1282 1.391 . S
C1284 C1285 1.400 . S
C1285 C1279 1.491 . S
C1285 C1284 1.400 . S
C1285 C1286 1.398 . S
C1286 H1274 0.950 . S
C1286 C1285 1.398 . S
C1286 C1287 1.391 . S
C1287 H1275 0.950 . S
C1287 C1283 1.393 . S
C1287 C1286 1.391 . S
H1288 C1296 0.950 . S
H1289 C1301 0.950 . S
H1290 C1298 0.950 . S
H1291 C1300 0.950 . S
H1292 C1302 0.950 . S
H1293 C1304 0.950 . S
H1294 C1306 0.950 . S
H1295 C1307 0.950 . S
C1296 H1288 0.950 . S
C1296 C1297 1.386 . S
C1296 C1298 1.391 . S
C1297 C1296 1.386 . S
C1297 C1301 1.393 . S
C1298 H1290 0.950 . S
C1298 C1296 1.391 . S
C1298 C1299 1.400 . S
C1299 C1298 1.400 . S
C1299 C1300 1.398 . S
C1299 C1305 1.491 . S
C1300 H1291 0.950 . S
C1300 C1299 1.398 . S
C1300 C1301 1.391 . S
C1301 H1289 0.950 . S
C1301 C1297 1.393 . S
C1301 C1300 1.391 . S
C1302 H1292 0.950 . S
C1302 C1303 1.386 . S
C1302 C1304 1.391 . S
C1303 C1302 1.386 . S
C1303 C1307 1.393 . S
C1304 H1293 0.950 . S
C1304 C1302 1.391 . S
C1304 C1305 1.400 . S
C1305 C1299 1.491 . S
C1305 C1304 1.400 . S
C1305 C1306 1.398 . S
C1306 H1294 0.950 . S
C1306 C1305 1.398 . S
C1306 C1307 1.391 . S
C1307 H1295 0.950 . S
C1307 C1303 1.393 . S
C1307 C1306 1.391 . S
H1308 C1316 0.950 . S
H1309 C1321 0.950 . S
H1310 C1318 0.950 . S
H1311 C1320 0.950 . S
H1312 C1322 0.950 . S
H1313 C1324 0.950 . S
H1314 C1326 0.950 . S
H1315 C1327 0.950 . S
C1316 H1308 0.950 . S
C1316 C1317 1.386 . S
C1316 C1318 1.391 . S
C1317 C1316 1.386 . S
C1317 C1321 1.393 . S
C1318 H1310 0.950 . S
C1318 C1316 1.391 . S
C1318 C1319 1.400 . S
C1319 C1318 1.400 . S
C1319 C1320 1.398 . S
C1319 C1325 1.491 . S
C1320 H1311 0.950 . S
C1320 C1319 1.398 . S
C1320 C1321 1.391 . S
C1321 H1309 0.950 . S
C1321 C1317 1.393 . S
C1321 C1320 1.391 . S
C1322 H1312 0.950 . S
C1322 C1323 1.386 . S
C1322 C1324 1.391 . S
C1323 C1322 1.386 . S
C1323 C1327 1.393 . S
C1324 H1313 0.950 . S
C1324 C1322 1.391 . S
C1324 C1325 1.400 . S
C1325 C1319 1.491 . S
C1325 C1324 1.400 . S
C1325 C1326 1.398 . S
C1326 H1314 0.950 . S
C1326 C1325 1.398 . S
C1326 C1327 1.391 . S
C1327 H1315 0.950 . S
C1327 C1323 1.393 . S
C1327 C1326 1.391 . S
H1328 C1336 0.950 . S
H1329 C1341 0.950 . S
H1330 C1338 0.950 . S
H1331 C1340 0.950 . S
H1332 C1342 0.950 . S
H1333 C1344 0.950 . S
H1334 C1346 0.950 . S
H1335 C1347 0.950 . S
C1336 H1328 0.950 . S
C1336 C1337 1.386 . S
C1336 C1338 1.391 1_655 S
C1337 C1336 1.386 . S
C1337 C1341 1.393 . S
C1338 H1330 0.950 . S
C1338 C1336 1.391 1_455 S
C1338 C1339 1.400 1_455 S
C1339 C1338 1.400 1_655 S
C1339 C1340 1.398 . S
C1339 C1345 1.491 1_655 S
C1340 H1331 0.950 . S
C1340 C1339 1.398 . S
C1340 C1341 1.391 . S
C1341 H1329 0.950 . S
C1341 C1337 1.393 . S
C1341 C1340 1.391 . S
C1342 H1332 0.950 . S
C1342 C1343 1.386 . S
C1342 C1344 1.391 1_455 S
C1343 C1342 1.386 . S
C1343 C1347 1.393 . S
C1344 H1333 0.950 . S
C1344 C1342 1.391 1_655 S
C1344 C1345 1.400 1_655 S
C1345 C1339 1.491 1_455 S
C1345 C1344 1.400 1_455 S
C1345 C1346 1.398 . S
C1346 H1334 0.950 . S
C1346 C1345 1.398 . S
C1346 C1347 1.391 . S
C1347 H1335 0.950 . S
C1347 C1343 1.393 . S
C1347 C1346 1.391 . S
H1348 C1356 0.950 . S
H1349 C1361 0.950 . S
H1350 C1358 0.950 . S
H1351 C1360 0.950 . S
H1352 C1362 0.950 . S
H1353 C1364 0.950 . S
H1354 C1366 0.950 . S
H1355 C1367 0.950 . S
C1356 H1348 0.950 . S
C1356 C1357 1.386 . S
C1356 C1358 1.391 . S
C1357 C1356 1.386 . S
C1357 C1361 1.393 . S
C1358 H1350 0.950 . S
C1358 C1356 1.391 . S
C1358 C1359 1.400 . S
C1359 C1358 1.400 . S
C1359 C1360 1.398 . S
C1359 C1365 1.491 1_556 S
C1360 H1351 0.950 . S
C1360 C1359 1.398 . S
C1360 C1361 1.391 . S
C1361 H1349 0.950 . S
C1361 C1357 1.393 . S
C1361 C1360 1.391 . S
C1362 H1352 0.950 . S
C1362 C1363 1.386 . S
C1362 C1364 1.391 . S
C1363 C1362 1.386 . S
C1363 C1367 1.393 . S
C1364 H1353 0.950 . S
C1364 C1362 1.391 . S
C1364 C1365 1.400 . S
C1365 C1359 1.491 1_554 S
C1365 C1364 1.400 . S
C1365 C1366 1.398 . S
C1366 H1354 0.950 . S
C1366 C1365 1.398 . S
C1366 C1367 1.391 . S
C1367 H1355 0.950 . S
C1367 C1363 1.393 . S
C1367 C1366 1.391 . S
H1368 C1376 0.950 . S
H1369 C1381 0.950 . S
H1370 C1378 0.950 . S
H1371 C1380 0.950 . S
H1372 C1382 0.950 . S
H1373 C1384 0.950 . S
H1374 C1386 0.950 . S
H1375 C1387 0.950 . S
C1376 H1368 0.950 . S
C1376 C1377 1.386 1_655 S
C1376 C1378 1.391 . S
C1377 C1376 1.386 1_455 S
C1377 C1381 1.393 . S
C1378 H1370 0.950 . S
C1378 C1376 1.391 . S
C1378 C1379 1.400 1_655 S
C1379 C1378 1.400 1_455 S
C1379 C1380 1.398 . S
C1379 C1385 1.491 1_454 S
C1380 H1371 0.950 . S
C1380 C1379 1.398 . S
C1380 C1381 1.391 . S
C1381 H1369 0.950 . S
C1381 C1377 1.393 . S
C1381 C1380 1.391 . S
C1382 H1372 0.950 . S
C1382 C1383 1.386 1_455 S
C1382 C1384 1.391 . S
C1383 C1382 1.386 1_655 S
C1383 C1387 1.393 . S
C1384 H1373 0.950 . S
C1384 C1382 1.391 . S
C1384 C1385 1.400 1_455 S
C1385 C1379 1.491 1_656 S
C1385 C1384 1.400 1_655 S
C1385 C1386 1.398 . S
C1386 H1374 0.950 . S
C1386 C1385 1.398 . S
C1386 C1387 1.391 . S
C1387 H1375 0.950 . S
C1387 C1383 1.393 . S
C1387 C1386 1.391 . S
H1388 C1396 0.950 . S
H1389 C1401 0.950 . S
H1390 C1398 0.950 . S
H1391 C1400 0.950 . S
H1392 C1402 0.950 . S
H1393 C1404 0.950 . S
H1394 C1406 0.950 . S
H1395 C1407 0.950 . S
C1396 H1388 0.950 . S
C1396 C1397 1.386 . S
C1396 C1398 1.391 . S
C1397 C1396 1.386 . S
C1397 C1401 1.393 . S
C1398 H1390 0.950 . S
C1398 C1396 1.391 . S
C1398 C1399 1.400 . S
C1399 C1398 1.400 . S
C1399 C1400 1.398 . S
C1399 C1405 1.491 . S
C1400 H1391 0.950 . S
C1400 C1399 1.398 . S
C1400 C1401 1.391 . S
C1401 H1389 0.950 . S
C1401 C1397 1.393 . S
C1401 C1400 1.391 . S
C1402 H1392 0.950 . S
C1402 C1403 1.386 . S
C1402 C1404 1.391 . S
C1403 C1402 1.386 . S
C1403 C1407 1.393 . S
C1404 H1393 0.950 . S
C1404 C1402 1.391 . S
C1404 C1405 1.400 . S
C1405 C1399 1.491 . S
C1405 C1404 1.400 . S
C1405 C1406 1.398 . S
C1406 H1394 0.950 . S
C1406 C1405 1.398 . S
C1406 C1407 1.391 . S
C1407 H1395 0.950 . S
C1407 C1403 1.393 . S
C1407 C1406 1.391 . S
H1408 C1416 0.950 . S
H1409 C1421 0.950 . S
H1410 C1418 0.950 . S
H1411 C1420 0.950 . S
H1412 C1422 0.950 . S
H1413 C1424 0.950 . S
H1414 C1426 0.950 . S
H1415 C1427 0.950 . S
C1416 H1408 0.950 . S
C1416 C1417 1.386 1_545 S
C1416 C1418 1.391 . S
C1417 C1416 1.386 1_565 S
C1417 C1421 1.393 . S
C1418 H1410 0.950 . S
C1418 C1416 1.391 . S
C1418 C1419 1.400 1_545 S
C1419 C1418 1.400 1_565 S
C1419 C1420 1.398 . S
C1419 C1425 1.491 . S
C1420 H1411 0.950 . S
C1420 C1419 1.398 . S
C1420 C1421 1.391 . S
C1421 H1409 0.950 . S
C1421 C1417 1.393 . S
C1421 C1420 1.391 . S
C1422 H1412 0.950 . S
C1422 C1423 1.386 . S
C1422 C1424 1.391 . S
C1423 C1422 1.386 . S
C1423 C1427 1.393 1_565 S
C1424 H1413 0.950 . S
C1424 C1422 1.391 . S
C1424 C1425 1.400 . S
C1425 C1419 1.491 . S
C1425 C1424 1.400 . S
C1425 C1426 1.398 1_565 S
C1426 H1414 0.950 . S
C1426 C1425 1.398 1_545 S
C1426 C1427 1.391 . S
C1427 H1415 0.950 . S
C1427 C1423 1.393 1_545 S
C1427 C1426 1.391 . S
H1428 C1436 0.950 . S
H1429 C1441 0.950 . S
H1430 C1438 0.950 . S
H1431 C1440 0.950 . S
H1432 C1442 0.950 . S
H1433 C1444 0.950 . S
H1434 C1446 0.950 . S
H1435 C1447 0.950 . S
C1436 H1428 0.950 . S
C1436 C1437 1.386 . S
C1436 C1438 1.391 . S
C1437 C1436 1.386 . S
C1437 C1441 1.393 . S
C1438 H1430 0.950 . S
C1438 C1436 1.391 . S
C1438 C1439 1.400 . S
C1439 C1438 1.400 . S
C1439 C1440 1.398 . S
C1439 C1445 1.491 . S
C1440 H1431 0.950 . S
C1440 C1439 1.398 . S
C1440 C1441 1.391 . S
C1441 H1429 0.950 . S
C1441 C1437 1.393 . S
C1441 C1440 1.391 . S
C1442 H1432 0.950 . S
C1442 C1443 1.386 . S
C1442 C1444 1.391 . S
C1443 C1442 1.386 . S
C1443 C1447 1.393 . S
C1444 H1433 0.950 . S
C1444 C1442 1.391 . S
C1444 C1445 1.400 . S
C1445 C1439 1.491 . S
C1445 C1444 1.400 . S
C1445 C1446 1.398 . S
C1446 H1434 0.950 . S
C1446 C1445 1.398 . S
C1446 C1447 1.391 . S
C1447 H1435 0.950 . S
C1447 C1443 1.393 . S
C1447 C1446 1.391 . S
H1448 C1456 0.950 . S
H1449 C1461 0.950 . S
H1450 C1458 0.950 . S
H1451 C1460 0.950 1_565 S
H1452 C1462 0.950 1_565 S
H1453 C1464 0.950 1_565 S
H1454 C1466 0.950 . S
H1455 C1467 0.950 . S
C1456 H1448 0.950 . S
C1456 C1457 1.386 . S
C1456 C1458 1.391 . S
C1457 C1456 1.386 . S
C1457 C1461 1.393 1_545 S
C1458 H1450 0.950 . S
C1458 C1456 1.391 . S
C1458 C1459 1.400 . S
C1459 C1458 1.400 . S
C1459 C1460 1.398 . S
C1459 C1465 1.491 . S
C1460 H1451 0.950 1_545 S
C1460 C1459 1.398 . S
C1460 C1461 1.391 1_545 S
C1461 H1449 0.950 . S
C1461 C1457 1.393 1_565 S
C1461 C1460 1.391 1_565 S
C1462 H1452 0.950 1_545 S
C1462 C1463 1.386 . S
C1462 C1464 1.391 . S
C1463 C1462 1.386 . S
C1463 C1467 1.393 . S
C1464 H1453 0.950 1_545 S
C1464 C1462 1.391 . S
C1464 C1465 1.400 . S
C1465 C1459 1.491 . S
C1465 C1464 1.400 . S
C1465 C1466 1.398 . S
C1466 H1454 0.950 . S
C1466 C1465 1.398 . S
C1466 C1467 1.391 . S
C1467 H1455 0.950 . S
C1467 C1463 1.393 . S
C1467 C1466 1.391 . S
H1468 C1476 0.950 . S
H1469 C1481 0.950 . S
H1470 C1478 0.950 . S
H1471 C1480 0.950 . S
H1472 C1482 0.950 . S
H1473 C1484 0.950 . S
H1474 C1486 0.950 . S
H1475 C1487 0.950 . S
C1476 H1468 0.950 . S
C1476 C1477 1.386 . S
C1476 C1478 1.391 . S
C1477 C1476 1.386 . S
C1477 C1481 1.393 . S
C1478 H1470 0.950 . S
C1478 C1476 1.391 . S
C1478 C1479 1.400 . S
C1479 C1478 1.400 . S
C1479 C1480 1.398 . S
C1479 C1485 1.491 . S
C1480 H1471 0.950 . S
C1480 C1479 1.398 . S
C1480 C1481 1.391 . S
C1481 H1469 0.950 . S
C1481 C1477 1.393 . S
C1481 C1480 1.391 . S
C1482 H1472 0.950 . S
C1482 C1483 1.386 . S
C1482 C1484 1.391 . S
C1483 C1482 1.386 . S
C1483 C1487 1.393 . S
C1484 H1473 0.950 . S
C1484 C1482 1.391 . S
C1484 C1485 1.400 . S
C1485 C1479 1.491 . S
C1485 C1484 1.400 . S
C1485 C1486 1.398 . S
C1486 H1474 0.950 . S
C1486 C1485 1.398 . S
C1486 C1487 1.391 . S
C1487 H1475 0.950 . S
C1487 C1483 1.393 . S
C1487 C1486 1.391 . S
H1488 C1496 0.950 . S
H1489 C1501 0.950 . S
H1490 C1498 0.950 . S
H1491 C1500 0.950 . S
H1492 C1502 0.950 . S
H1493 C1504 0.950 . S
H1494 C1506 0.950 . S
H1495 C1507 0.950 . S
C1496 H1488 0.950 . S
C1496 C1497 1.386 1_565 S
C1496 C1498 1.391 . S
C1497 C1496 1.386 1_545 S
C1497 C1501 1.393 . S
C1498 H1490 0.950 . S
C1498 C1496 1.391 . S
C1498 C1499 1.400 1_565 S
C1499 C1498 1.400 1_545 S
C1499 C1500 1.398 . S
C1499 C1505 1.491 . S
C1500 H1491 0.950 . S
C1500 C1499 1.398 . S
C1500 C1501 1.391 . S
C1501 H1489 0.950 . S
C1501 C1497 1.393 . S
C1501 C1500 1.391 . S
C1502 H1492 0.950 . S
C1502 C1503 1.386 . S
C1502 C1504 1.391 . S
C1503 C1502 1.386 . S
C1503 C1507 1.393 1_545 S
C1504 H1493 0.950 . S
C1504 C1502 1.391 . S
C1504 C1505 1.400 . S
C1505 C1499 1.491 . S
C1505 C1504 1.400 . S
C1505 C1506 1.398 1_545 S
C1506 H1494 0.950 . S
C1506 C1505 1.398 1_565 S
C1506 C1507 1.391 . S
C1507 H1495 0.950 . S
C1507 C1503 1.393 1_565 S
C1507 C1506 1.391 . S
H1508 C1516 0.950 . S
H1509 C1521 0.950 . S
H1510 C1518 0.950 . S
H1511 C1520 0.950 . S
H1512 C1522 0.950 . S
H1513 C1524 0.950 . S
H1514 C1526 0.950 . S
H1515 C1527 0.950 . S
C1516 H1508 0.950 . S
C1516 C1517 1.386 . S
C1516 C1518 1.391 . S
C1517 C1516 1.386 . S
C1517 C1521 1.393 . S
C1518 H1510 0.950 . S
C1518 C1516 1.391 . S
C1518 C1519 1.400 . S
C1519 C1518 1.400 . S
C1519 C1520 1.398 . S
C1519 C1525 1.491 . S
C1520 H1511 0.950 . S
C1520 C1519 1.398 . S
C1520 C1521 1.391 . S
C1521 H1509 0.950 . S
C1521 C1517 1.393 . S
C1521 C1520 1.391 . S
C1522 H1512 0.950 . S
C1522 C1523 1.386 . S
C1522 C1524 1.391 . S
C1523 C1522 1.386 . S
C1523 C1527 1.393 . S
C1524 H1513 0.950 . S
C1524 C1522 1.391 . S
C1524 C1525 1.400 . S
C1525 C1519 1.491 . S
C1525 C1524 1.400 . S
C1525 C1526 1.398 . S
C1526 H1514 0.950 . S
C1526 C1525 1.398 . S
C1526 C1527 1.391 . S
C1527 H1515 0.950 . S
C1527 C1523 1.393 . S
C1527 C1526 1.391 . S
H1528 C1536 0.950 . S
H1529 C1541 0.950 . S
H1530 C1538 0.950 . S
H1531 C1540 0.950 . S
H1532 C1542 0.950 . S
H1533 C1544 0.950 . S
H1534 C1546 0.950 . S
H1535 C1547 0.950 . S
C1536 H1528 0.950 . S
C1536 C1537 1.386 1_545 S
C1536 C1538 1.391 . S
C1537 C1536 1.386 1_565 S
C1537 C1541 1.393 . S
C1538 H1530 0.950 . S
C1538 C1536 1.391 . S
C1538 C1539 1.400 1_545 S
C1539 C1538 1.400 1_565 S
C1539 C1540 1.398 . S
C1539 C1545 1.491 . S
C1540 H1531 0.950 . S
C1540 C1539 1.398 . S
C1540 C1541 1.391 . S
C1541 H1529 0.950 . S
C1541 C1537 1.393 . S
C1541 C1540 1.391 . S
C1542 H1532 0.950 . S
C1542 C1543 1.386 . S
C1542 C1544 1.391 . S
C1543 C1542 1.386 . S
C1543 C1547 1.393 1_565 S
C1544 H1533 0.950 . S
C1544 C1542 1.391 . S
C1544 C1545 1.400 . S
C1545 C1539 1.491 . S
C1545 C1544 1.400 . S
C1545 C1546 1.398 1_565 S
C1546 H1534 0.950 . S
C1546 C1545 1.398 1_545 S
C1546 C1547 1.391 . S
C1547 H1535 0.950 . S
C1547 C1543 1.393 1_545 S
C1547 C1546 1.391 . S
H1548 C1556 0.950 . S
H1549 C1561 0.950 . S
H1550 C1558 0.950 . S
H1551 C1560 0.950 . S
H1552 C1562 0.950 . S
H1553 C1564 0.950 . S
H1554 C1566 0.950 . S
H1555 C1567 0.950 . S
C1556 H1548 0.950 . S
C1556 C1557 1.386 . S
C1556 C1558 1.391 . S
C1557 C1556 1.386 . S
C1557 C1561 1.393 . S
C1558 H1550 0.950 . S
C1558 C1556 1.391 . S
C1558 C1559 1.400 . S
C1559 C1558 1.400 . S
C1559 C1560 1.398 . S
C1559 C1565 1.491 . S
C1560 H1551 0.950 . S
C1560 C1559 1.398 . S
C1560 C1561 1.391 . S
C1561 H1549 0.950 . S
C1561 C1557 1.393 . S
C1561 C1560 1.391 . S
C1562 H1552 0.950 . S
C1562 C1563 1.386 . S
C1562 C1564 1.391 . S
C1563 C1562 1.386 . S
C1563 C1567 1.393 . S
C1564 H1553 0.950 . S
C1564 C1562 1.391 . S
C1564 C1565 1.400 . S
C1565 C1559 1.491 . S
C1565 C1564 1.400 . S
C1565 C1566 1.398 . S
C1566 H1554 0.950 . S
C1566 C1565 1.398 . S
C1566 C1567 1.391 . S
C1567 H1555 0.950 . S
C1567 C1563 1.393 . S
C1567 C1566 1.391 . S
H1568 C1576 0.950 . S
H1569 C1581 0.950 . S
H1570 C1578 0.950 . S
H1571 C1580 0.950 . S
H1572 C1582 0.950 . S
H1573 C1584 0.950 . S
H1574 C1586 0.950 . S
H1575 C1587 0.950 . S
C1576 H1568 0.950 . S
C1576 C1577 1.386 1_565 S
C1576 C1578 1.391 . S
C1577 C1576 1.386 1_545 S
C1577 C1581 1.393 . S
C1578 H1570 0.950 . S
C1578 C1576 1.391 . S
C1578 C1579 1.400 1_565 S
C1579 C1578 1.400 1_545 S
C1579 C1580 1.398 . S
C1579 C1585 1.491 . S
C1580 H1571 0.950 . S
C1580 C1579 1.398 . S
C1580 C1581 1.391 . S
C1581 H1569 0.950 . S
C1581 C1577 1.393 . S
C1581 C1580 1.391 . S
C1582 H1572 0.950 . S
C1582 C1583 1.386 . S
C1582 C1584 1.391 . S
C1583 C1582 1.386 . S
C1583 C1587 1.393 1_545 S
C1584 H1573 0.950 . S
C1584 C1582 1.391 . S
C1584 C1585 1.400 . S
C1585 C1579 1.491 . S
C1585 C1584 1.400 . S
C1585 C1586 1.398 1_545 S
C1586 H1574 0.950 . S
C1586 C1585 1.398 1_565 S
C1586 C1587 1.391 . S
C1587 H1575 0.950 . S
C1587 C1583 1.393 1_565 S
C1587 C1586 1.391 . S
H1588 C1596 0.950 . S
H1589 C1601 0.950 . S
H1590 C1598 0.950 . S
H1591 C1600 0.950 . S
H1592 C1602 0.950 . S
H1593 C1604 0.950 . S
H1594 C1606 0.950 . S
H1595 C1607 0.950 . S
C1596 H1588 0.950 . S
C1596 C1597 1.386 . S
C1596 C1598 1.391 . S
C1597 C1596 1.386 . S
C1597 C1601 1.393 . S
C1598 H1590 0.950 . S
C1598 C1596 1.391 . S
C1598 C1599 1.400 . S
C1599 C1598 1.400 . S
C1599 C1600 1.398 . S
C1599 C1605 1.491 . S
C1600 H1591 0.950 . S
C1600 C1599 1.398 . S
C1600 C1601 1.391 . S
C1601 H1589 0.950 . S
C1601 C1597 1.393 . S
C1601 C1600 1.391 . S
C1602 H1592 0.950 . S
C1602 C1603 1.386 . S
C1602 C1604 1.391 . S
C1603 C1602 1.386 . S
C1603 C1607 1.393 . S
C1604 H1593 0.950 . S
C1604 C1602 1.391 . S
C1604 C1605 1.400 . S
C1605 C1599 1.491 . S
C1605 C1604 1.400 . S
C1605 C1606 1.398 . S
C1606 H1594 0.950 . S
C1606 C1605 1.398 . S
C1606 C1607 1.391 . S
C1607 H1595 0.950 . S
C1607 C1603 1.393 . S
C1607 C1606 1.391 . S
H1608 C1616 0.950 . S
H1609 C1621 0.950 . S
H1610 C1618 0.950 . S
H1611 C1620 0.950 . S
H1612 C1622 0.950 . S
H1613 C1624 0.950 . S
H1614 C1626 0.950 . S
H1615 C1627 0.950 . S
C1616 H1608 0.950 . S
C1616 C1617 1.386 1_545 S
C1616 C1618 1.391 . S
C1617 C1616 1.386 1_565 S
C1617 C1621 1.393 . S
C1618 H1610 0.950 . S
C1618 C1616 1.391 . S
C1618 C1619 1.400 1_545 S
C1619 C1618 1.400 1_565 S
C1619 C1620 1.398 . S
C1619 C1625 1.491 . S
C1620 H1611 0.950 . S
C1620 C1619 1.398 . S
C1620 C1621 1.391 . S
C1621 H1609 0.950 . S
C1621 C1617 1.393 . S
C1621 C1620 1.391 . S
C1622 H1612 0.950 . S
C1622 C1623 1.386 . S
C1622 C1624 1.391 . S
C1623 C1622 1.386 . S
C1623 C1627 1.393 1_565 S
C1624 H1613 0.950 . S
C1624 C1622 1.391 . S
C1624 C1625 1.400 . S
C1625 C1619 1.491 . S
C1625 C1624 1.400 . S
C1625 C1626 1.398 1_565 S
C1626 H1614 0.950 . S
C1626 C1625 1.398 1_545 S
C1626 C1627 1.391 . S
C1627 H1615 0.950 . S
C1627 C1623 1.393 1_545 S
C1627 C1626 1.391 . S
H1628 C1636 0.950 . S
H1629 C1641 0.950 . S
H1630 C1638 0.950 . S
H1631 C1640 0.950 . S
H1632 C1642 0.950 . S
H1633 C1644 0.950 . S
H1634 C1646 0.950 . S
H1635 C1647 0.950 . S
C1636 H1628 0.950 . S
C1636 C1637 1.386 . S
C1636 C1638 1.391 . S
C1637 C1636 1.386 . S
C1637 C1641 1.393 . S
C1638 H1630 0.950 . S
C1638 C1636 1.391 . S
C1638 C1639 1.400 . S
C1639 C1638 1.400 . S
C1639 C1640 1.398 . S
C1639 C1645 1.491 . S
C1640 H1631 0.950 . S
C1640 C1639 1.398 . S
C1640 C1641 1.391 . S
C1641 H1629 0.950 . S
C1641 C1637 1.393 . S
C1641 C1640 1.391 . S
C1642 H1632 0.950 . S
C1642 C1643 1.386 . S
C1642 C1644 1.391 . S
C1643 C1642 1.386 . S
C1643 C1647 1.393 . S
C1644 H1633 0.950 . S
C1644 C1642 1.391 . S
C1644 C1645 1.400 . S
C1645 C1639 1.491 . S
C1645 C1644 1.400 . S
C1645 C1646 1.398 . S
C1646 H1634 0.950 . S
C1646 C1645 1.398 . S
C1646 C1647 1.391 . S
C1647 H1635 0.950 . S
C1647 C1643 1.393 . S
C1647 C1646 1.391 . S
H1648 C1656 0.950 . S
H1649 C1661 0.950 . S
H1650 C1658 0.950 . S
H1651 C1660 0.950 . S
H1652 C1662 0.950 . S
H1653 C1664 0.950 . S
H1654 C1666 0.950 . S
H1655 C1667 0.950 . S
C1656 H1648 0.950 . S
C1656 C1657 1.386 . S
C1656 C1658 1.391 . S
C1657 C1656 1.386 . S
C1657 C1661 1.393 1_565 S
C1658 H1650 0.950 . S
C1658 C1656 1.391 . S
C1658 C1659 1.400 . S
C1659 C1658 1.400 . S
C1659 C1660 1.398 1_565 S
C1659 C1665 1.491 . S
C1660 H1651 0.950 . S
C1660 C1659 1.398 1_545 S
C1660 C1661 1.391 . S
C1661 H1649 0.950 . S
C1661 C1657 1.393 1_545 S
C1661 C1660 1.391 . S
C1662 H1652 0.950 . S
C1662 C1663 1.386 1_545 S
C1662 C1664 1.391 . S
C1663 C1662 1.386 1_565 S
C1663 C1667 1.393 . S
C1664 H1653 0.950 . S
C1664 C1662 1.391 . S
C1664 C1665 1.400 1_545 S
C1665 C1659 1.491 . S
C1665 C1664 1.400 1_565 S
C1665 C1666 1.398 . S
C1666 H1654 0.950 . S
C1666 C1665 1.398 . S
C1666 C1667 1.391 . S
C1667 H1655 0.950 . S
C1667 C1663 1.393 . S
C1667 C1666 1.391 . S
H1668 C1676 0.950 . S
H1669 C1681 0.950 . S
H1670 C1678 0.950 . S
H1671 C1680 0.950 . S
H1672 C1682 0.950 . S
H1673 C1684 0.950 . S
H1674 C1686 0.950 . S
H1675 C1687 0.950 . S
C1676 H1668 0.950 . S
C1676 C1677 1.386 . S
C1676 C1678 1.391 . S
C1677 C1676 1.386 . S
C1677 C1681 1.393 . S
C1678 H1670 0.950 . S
C1678 C1676 1.391 . S
C1678 C1679 1.400 . S
C1679 C1678 1.400 . S
C1679 C1680 1.398 . S
C1679 C1685 1.491 . S
C1680 H1671 0.950 . S
C1680 C1679 1.398 . S
C1680 C1681 1.391 . S
C1681 H1669 0.950 . S
C1681 C1677 1.393 . S
C1681 C1680 1.391 . S
C1682 H1672 0.950 . S
C1682 C1683 1.386 . S
C1682 C1684 1.391 . S
C1683 C1682 1.386 . S
C1683 C1687 1.393 . S
C1684 H1673 0.950 . S
C1684 C1682 1.391 . S
C1684 C1685 1.400 . S
C1685 C1679 1.491 . S
C1685 C1684 1.400 . S
C1685 C1686 1.398 . S
C1686 H1674 0.950 . S
C1686 C1685 1.398 . S
C1686 C1687 1.391 . S
C1687 H1675 0.950 . S
C1687 C1683 1.393 . S
C1687 C1686 1.391 . S
H1688 C1696 0.950 . S
H1689 C1701 0.950 . S
H1690 C1698 0.950 . S
H1691 C1700 0.950 . S
H1692 C1702 0.950 . S
H1693 C1704 0.950 . S
H1694 C1706 0.950 . S
H1695 C1707 0.950 . S
C1696 H1688 0.950 . S
C1696 C1697 1.386 . S
C1696 C1698 1.391 . S
C1697 C1696 1.386 . S
C1697 C1701 1.393 1_545 S
C1698 H1690 0.950 . S
C1698 C1696 1.391 . S
C1698 C1699 1.400 . S
C1699 C1698 1.400 . S
C1699 C1700 1.398 1_545 S
C1699 C1705 1.491 . S
C1700 H1691 0.950 . S
C1700 C1699 1.398 1_565 S
C1700 C1701 1.391 . S
C1701 H1689 0.950 . S
C1701 C1697 1.393 1_565 S
C1701 C1700 1.391 . S
C1702 H1692 0.950 . S
C1702 C1703 1.386 1_565 S
C1702 C1704 1.391 . S
C1703 C1702 1.386 1_545 S
C1703 C1707 1.393 . S
C1704 H1693 0.950 . S
C1704 C1702 1.391 . S
C1704 C1705 1.400 1_565 S
C1705 C1699 1.491 . S
C1705 C1704 1.400 1_545 S
C1705 C1706 1.398 . S
C1706 H1694 0.950 . S
C1706 C1705 1.398 . S
C1706 C1707 1.391 . S
C1707 H1695 0.950 . S
C1707 C1703 1.393 . S
C1707 C1706 1.391 . S
H1708 C1716 0.950 . S
H1709 C1721 0.950 . S
H1710 C1718 0.950 . S
H1711 C1720 0.950 . S
H1712 C1722 0.950 . S
H1713 C1724 0.950 . S
H1714 C1726 0.950 . S
H1715 C1727 0.950 . S
C1716 H1708 0.950 . S
C1716 C1717 1.386 . S
C1716 C1718 1.391 . S
C1717 C1716 1.386 . S
C1717 C1721 1.393 . S
C1718 H1710 0.950 . S
C1718 C1716 1.391 . S
C1718 C1719 1.400 . S
C1719 C1718 1.400 . S
C1719 C1720 1.398 . S
C1719 C1725 1.491 . S
C1720 H1711 0.950 . S
C1720 C1719 1.398 . S
C1720 C1721 1.391 . S
C1721 H1709 0.950 . S
C1721 C1717 1.393 . S
C1721 C1720 1.391 . S
C1722 H1712 0.950 . S
C1722 C1723 1.386 . S
C1722 C1724 1.391 . S
C1723 C1722 1.386 . S
C1723 C1727 1.393 . S
C1724 H1713 0.950 . S
C1724 C1722 1.391 . S
C1724 C1725 1.400 . S
C1725 C1719 1.491 . S
C1725 C1724 1.400 . S
C1725 C1726 1.398 . S
C1726 H1714 0.950 . S
C1726 C1725 1.398 . S
C1726 C1727 1.391 . S
C1727 H1715 0.950 . S
C1727 C1723 1.393 . S
C1727 C1726 1.391 . S
H1728 C1736 0.950 . S
H1729 C1741 0.950 . S
H1730 C1738 0.950 . S
H1731 C1740 0.950 . S
H1732 C1742 0.950 . S
H1733 C1744 0.950 . S
H1734 C1746 0.950 . S
H1735 C1747 0.950 . S
C1736 H1728 0.950 . S
C1736 C1737 1.386 . S
C1736 C1738 1.391 . S
C1737 C1736 1.386 . S
C1737 C1741 1.393 . S
C1738 H1730 0.950 . S
C1738 C1736 1.391 . S
C1738 C1739 1.400 . S
C1739 C1738 1.400 . S
C1739 C1740 1.398 . S
C1739 C1745 1.491 . S
C1740 H1731 0.950 . S
C1740 C1739 1.398 . S
C1740 C1741 1.391 . S
C1741 H1729 0.950 . S
C1741 C1737 1.393 . S
C1741 C1740 1.391 . S
C1742 H1732 0.950 . S
C1742 C1743 1.386 . S
C1742 C1744 1.391 . S
C1743 C1742 1.386 . S
C1743 C1747 1.393 . S
C1744 H1733 0.950 . S
C1744 C1742 1.391 . S
C1744 C1745 1.400 . S
C1745 C1739 1.491 . S
C1745 C1744 1.400 . S
C1745 C1746 1.398 . S
C1746 H1734 0.950 . S
C1746 C1745 1.398 . S
C1746 C1747 1.391 . S
C1747 H1735 0.950 . S
C1747 C1743 1.393 . S
C1747 C1746 1.391 . S
H1748 C1756 0.950 . S
H1749 C1761 0.950 . S
H1750 C1758 0.950 . S
H1751 C1760 0.950 . S
H1752 C1762 0.950 . S
H1753 C1764 0.950 . S
H1754 C1766 0.950 . S
H1755 C1767 0.950 . S
C1756 H1748 0.950 . S
C1756 C1757 1.386 . S
C1756 C1758 1.391 1_545 S
C1757 C1756 1.386 . S
C1757 C1761 1.393 . S
C1758 H1750 0.950 . S
C1758 C1756 1.391 1_565 S
C1758 C1759 1.400 . S
C1759 C1758 1.400 . S
C1759 C1760 1.398 . S
C1759 C1765 1.491 . S
C1760 H1751 0.950 . S
C1760 C1759 1.398 . S
C1760 C1761 1.391 1_565 S
C1761 H1749 0.950 . S
C1761 C1757 1.393 . S
C1761 C1760 1.391 1_545 S
C1762 H1752 0.950 . S
C1762 C1763 1.386 . S
C1762 C1764 1.391 . S
C1763 C1762 1.386 . S
C1763 C1767 1.393 . S
C1764 H1753 0.950 . S
C1764 C1762 1.391 . S
C1764 C1765 1.400 . S
C1765 C1759 1.491 . S
C1765 C1764 1.400 . S
C1765 C1766 1.398 . S
C1766 H1754 0.950 . S
C1766 C1765 1.398 . S
C1766 C1767 1.391 . S
C1767 H1755 0.950 . S
C1767 C1763 1.393 . S
C1767 C1766 1.391 . S
H1768 C1776 0.950 . S
H1769 C1781 0.950 . S
H1770 C1778 0.950 . S
H1771 C1780 0.950 . S
H1772 C1782 0.950 . S
H1773 C1784 0.950 . S
H1774 C1786 0.950 . S
H1775 C1787 0.950 . S
C1776 H1768 0.950 . S
C1776 C1777 1.386 . S
C1776 C1778 1.391 . S
C1777 C1776 1.386 . S
C1777 C1781 1.393 . S
C1778 H1770 0.950 . S
C1778 C1776 1.391 . S
C1778 C1779 1.400 . S
C1779 C1778 1.400 . S
C1779 C1780 1.398 . S
C1779 C1785 1.491 . S
C1780 H1771 0.950 . S
C1780 C1779 1.398 . S
C1780 C1781 1.391 . S
C1781 H1769 0.950 . S
C1781 C1777 1.393 . S
C1781 C1780 1.391 . S
C1782 H1772 0.950 . S
C1782 C1783 1.386 . S
C1782 C1784 1.391 . S
C1783 C1782 1.386 . S
C1783 C1787 1.393 . S
C1784 H1773 0.950 . S
C1784 C1782 1.391 . S
C1784 C1785 1.400 . S
C1785 C1779 1.491 . S
C1785 C1784 1.400 . S
C1785 C1786 1.398 . S
C1786 H1774 0.950 . S
C1786 C1785 1.398 . S
C1786 C1787 1.391 . S
C1787 H1775 0.950 . S
C1787 C1783 1.393 . S
C1787 C1786 1.391 . S
H1788 C1796 0.950 . S
H1789 C1801 0.950 . S
H1790 C1798 0.950 . S
H1791 C1800 0.950 . S
H1792 C1802 0.950 . S
H1793 C1804 0.950 . S
H1794 C1806 0.950 . S
H1795 C1807 0.950 . S
C1796 H1788 0.950 . S
C1796 C1797 1.386 . S
C1796 C1798 1.391 . S
C1797 C1796 1.386 . S
C1797 C1801 1.393 . S
C1798 H1790 0.950 . S
C1798 C1796 1.391 . S
C1798 C1799 1.400 . S
C1799 C1798 1.400 . S
C1799 C1800 1.398 . S
C1799 C1805 1.491 . S
C1800 H1791 0.950 . S
C1800 C1799 1.398 . S
C1800 C1801 1.391 . S
C1801 H1789 0.950 . S
C1801 C1797 1.393 . S
C1801 C1800 1.391 . S
C1802 H1792 0.950 . S
C1802 C1803 1.386 . S
C1802 C1804 1.391 1_565 S
C1803 C1802 1.386 . S
C1803 C1807 1.393 . S
C1804 H1793 0.950 . S
C1804 C1802 1.391 1_545 S
C1804 C1805 1.400 . S
C1805 C1799 1.491 . S
C1805 C1804 1.400 . S
C1805 C1806 1.398 . S
C1806 H1794 0.950 . S
C1806 C1805 1.398 . S
C1806 C1807 1.391 1_545 S
C1807 H1795 0.950 . S
C1807 C1803 1.393 . S
C1807 C1806 1.391 1_565 S
H1808 C1816 0.950 . S
H1809 C1821 0.950 . S
H1810 C1818 0.950 . S
H1811 C1820 0.950 . S
H1812 C1822 0.950 . S
H1813 C1824 0.950 . S
H1814 C1826 0.950 . S
H1815 C1827 0.950 . S
C1816 H1808 0.950 . S
C1816 C1817 1.386 . S
C1816 C1818 1.391 . S
C1817 C1816 1.386 . S
C1817 C1821 1.393 . S
C1818 H1810 0.950 . S
C1818 C1816 1.391 . S
C1818 C1819 1.400 . S
C1819 C1818 1.400 . S
C1819 C1820 1.398 . S
C1819 C1825 1.491 . S
C1820 H1811 0.950 . S
C1820 C1819 1.398 . S
C1820 C1821 1.391 . S
C1821 H1809 0.950 . S
C1821 C1817 1.393 . S
C1821 C1820 1.391 . S
C1822 H1812 0.950 . S
C1822 C1823 1.386 . S
C1822 C1824 1.391 . S
C1823 C1822 1.386 . S
C1823 C1827 1.393 . S
C1824 H1813 0.950 . S
C1824 C1822 1.391 . S
C1824 C1825 1.400 . S
C1825 C1819 1.491 . S
C1825 C1824 1.400 . S
C1825 C1826 1.398 . S
C1826 H1814 0.950 . S
C1826 C1825 1.398 . S
C1826 C1827 1.391 . S
C1827 H1815 0.950 . S
C1827 C1823 1.393 . S
C1827 C1826 1.391 . S
H1828 C1836 0.950 . S
H1829 C1841 0.950 . S
H1830 C1838 0.950 . S
H1831 C1840 0.950 . S
H1832 C1842 0.950 . S
H1833 C1844 0.950 . S
H1834 C1846 0.950 . S
H1835 C1847 0.950 . S
C1836 H1828 0.950 . S
C1836 C1837 1.386 . S
C1836 C1838 1.391 1_545 S
C1837 C1836 1.386 . S
C1837 C1841 1.393 . S
C1838 H1830 0.950 . S
C1838 C1836 1.391 1_565 S
C1838 C1839 1.400 . S
C1839 C1838 1.400 . S
C1839 C1840 1.398 . S
C1839 C1845 1.491 . S
C1840 H1831 0.950 . S
C1840 C1839 1.398 . S
C1840 C1841 1.391 1_565 S
C1841 H1829 0.950 . S
C1841 C1837 1.393 . S
C1841 C1840 1.391 1_545 S
C1842 H1832 0.950 . S
C1842 C1843 1.386 . S
C1842 C1844 1.391 . S
C1843 C1842 1.386 . S
C1843 C1847 1.393 . S
C1844 H1833 0.950 . S
C1844 C1842 1.391 . S
C1844 C1845 1.400 . S
C1845 C1839 1.491 . S
C1845 C1844 1.400 . S
C1845 C1846 1.398 . S
C1846 H1834 0.950 . S
C1846 C1845 1.398 . S
C1846 C1847 1.391 . S
C1847 H1835 0.950 . S
C1847 C1843 1.393 . S
C1847 C1846 1.391 . S
H1848 C1856 0.950 . S
H1849 C1861 0.950 . S
H1850 C1858 0.950 . S
H1851 C1860 0.950 . S
H1852 C1862 0.950 . S
H1853 C1864 0.950 . S
H1854 C1866 0.950 . S
H1855 C1867 0.950 . S
C1856 H1848 0.950 . S
C1856 C1857 1.386 . S
C1856 C1858 1.391 . S
C1857 C1856 1.386 . S
C1857 C1861 1.393 . S
C1858 H1850 0.950 . S
C1858 C1856 1.391 . S
C1858 C1859 1.400 . S
C1859 C1858 1.400 . S
C1859 C1860 1.398 . S
C1859 C1865 1.491 . S
C1860 H1851 0.950 . S
C1860 C1859 1.398 . S
C1860 C1861 1.391 . S
C1861 H1849 0.950 . S
C1861 C1857 1.393 . S
C1861 C1860 1.391 . S
C1862 H1852 0.950 . S
C1862 C1863 1.386 . S
C1862 C1864 1.391 . S
C1863 C1862 1.386 . S
C1863 C1867 1.393 . S
C1864 H1853 0.950 . S
C1864 C1862 1.391 . S
C1864 C1865 1.400 . S
C1865 C1859 1.491 . S
C1865 C1864 1.400 . S
C1865 C1866 1.398 . S
C1866 H1854 0.950 . S
C1866 C1865 1.398 . S
C1866 C1867 1.391 . S
C1867 H1855 0.950 . S
C1867 C1863 1.393 . S
C1867 C1866 1.391 . S
H1868 C1876 0.950 . S
H1869 C1881 0.950 . S
H1870 C1878 0.950 . S
H1871 C1880 0.950 . S
H1872 C1882 0.950 . S
H1873 C1884 0.950 . S
H1874 C1886 0.950 . S
H1875 C1887 0.950 . S
C1876 H1868 0.950 . S
C1876 C1877 1.386 . S
C1876 C1878 1.391 . S
C1877 C1876 1.386 . S
C1877 C1881 1.393 . S
C1878 H1870 0.950 . S
C1878 C1876 1.391 . S
C1878 C1879 1.400 . S
C1879 C1878 1.400 . S
C1879 C1880 1.398 . S
C1879 C1885 1.491 . S
C1880 H1871 0.950 . S
C1880 C1879 1.398 . S
C1880 C1881 1.391 . S
C1881 H1869 0.950 . S
C1881 C1877 1.393 . S
C1881 C1880 1.391 . S
C1882 H1872 0.950 . S
C1882 C1883 1.386 . S
C1882 C1884 1.391 1_565 S
C1883 C1882 1.386 . S
C1883 C1887 1.393 . S
C1884 H1873 0.950 . S
C1884 C1882 1.391 1_545 S
C1884 C1885 1.400 . S
C1885 C1879 1.491 . S
C1885 C1884 1.400 . S
C1885 C1886 1.398 . S
C1886 H1874 0.950 . S
C1886 C1885 1.398 . S
C1886 C1887 1.391 1_545 S
C1887 H1875 0.950 . S
C1887 C1883 1.393 . S
C1887 C1886 1.391 1_565 S
H1888 C1896 0.950 . S
H1889 C1901 0.950 . S
H1890 C1898 0.950 . S
H1891 C1900 0.950 . S
H1892 C1902 0.950 . S
H1893 C1904 0.950 . S
H1894 C1906 0.950 . S
H1895 C1907 0.950 . S
C1896 H1888 0.950 . S
C1896 C1897 1.386 . S
C1896 C1898 1.391 . S
C1897 C1896 1.386 . S
C1897 C1901 1.393 . S
C1898 H1890 0.950 . S
C1898 C1896 1.391 . S
C1898 C1899 1.400 . S
C1899 C1898 1.400 . S
C1899 C1900 1.398 . S
C1899 C1905 1.491 . S
C1900 H1891 0.950 . S
C1900 C1899 1.398 . S
C1900 C1901 1.391 . S
C1901 H1889 0.950 . S
C1901 C1897 1.393 . S
C1901 C1900 1.391 . S
C1902 H1892 0.950 . S
C1902 C1903 1.386 . S
C1902 C1904 1.391 . S
C1903 C1902 1.386 . S
C1903 C1907 1.393 . S
C1904 H1893 0.950 . S
C1904 C1902 1.391 . S
C1904 C1905 1.400 . S
C1905 C1899 1.491 . S
C1905 C1904 1.400 . S
C1905 C1906 1.398 . S
C1906 H1894 0.950 . S
C1906 C1905 1.398 . S
C1906 C1907 1.391 . S
C1907 H1895 0.950 . S
C1907 C1903 1.393 . S
C1907 C1906 1.391 . S
H1908 C1916 0.950 . S
H1909 C1921 0.950 . S
H1910 C1918 0.950 . S
H1911 C1920 0.950 . S
H1912 C1922 0.950 . S
H1913 C1924 0.950 . S
H1914 C1926 0.950 . S
H1915 C1927 0.950 . S
C1916 H1908 0.950 . S
C1916 C1917 1.386 . S
C1916 C1918 1.391 . S
C1917 C1916 1.386 . S
C1917 C1921 1.393 . S
C1918 H1910 0.950 . S
C1918 C1916 1.391 . S
C1918 C1919 1.400 . S
C1919 C1918 1.400 . S
C1919 C1920 1.398 . S
C1919 C1925 1.491 . S
C1920 H1911 0.950 . S
C1920 C1919 1.398 . S
C1920 C1921 1.391 . S
C1921 H1909 0.950 . S
C1921 C1917 1.393 . S
C1921 C1920 1.391 . S
C1922 H1912 0.950 . S
C1922 C1923 1.386 . S
C1922 C1924 1.391 1_565 S
C1923 C1922 1.386 . S
C1923 C1927 1.393 . S
C1924 H1913 0.950 . S
C1924 C1922 1.391 1_545 S
C1924 C1925 1.400 . S
C1925 C1919 1.491 . S
C1925 C1924 1.400 . S
C1925 C1926 1.398 . S
C1926 H1914 0.950 . S
C1926 C1925 1.398 . S
C1926 C1927 1.391 1_545 S
C1927 H1915 0.950 . S
C1927 C1923 1.393 . S
C1927 C1926 1.391 1_565 S
H1928 C1936 0.950 . S
H1929 C1941 0.950 . S
H1930 C1938 0.950 . S
H1931 C1940 0.950 . S
H1932 C1942 0.950 . S
H1933 C1944 0.950 . S
H1934 C1946 0.950 . S
H1935 C1947 0.950 . S
C1936 H1928 0.950 . S
C1936 C1937 1.386 . S
C1936 C1938 1.391 . S
C1937 C1936 1.386 . S
C1937 C1941 1.393 . S
C1938 H1930 0.950 . S
C1938 C1936 1.391 . S
C1938 C1939 1.400 . S
C1939 C1938 1.400 . S
C1939 C1940 1.398 . S
C1939 C1945 1.491 . S
C1940 H1931 0.950 . S
C1940 C1939 1.398 . S
C1940 C1941 1.391 . S
C1941 H1929 0.950 . S
C1941 C1937 1.393 . S
C1941 C1940 1.391 . S
C1942 H1932 0.950 . S
C1942 C1943 1.386 . S
C1942 C1944 1.391 . S
C1943 C1942 1.386 . S
C1943 C1947 1.393 . S
C1944 H1933 0.950 . S
C1944 C1942 1.391 . S
C1944 C1945 1.400 . S
C1945 C1939 1.491 . S
C1945 C1944 1.400 . S
C1945 C1946 1.398 . S
C1946 H1934 0.950 . S
C1946 C1945 1.398 . S
C1946 C1947 1.391 . S
C1947 H1935 0.950 . S
C1947 C1943 1.393 . S
C1947 C1946 1.391 . S
H1948 C1956 0.950 . S
H1949 C1961 0.950 . S
H1950 C1958 0.950 . S
H1951 C1960 0.950 . S
H1952 C1962 0.950 . S
H1953 C1964 0.950 . S
H1954 C1966 0.950 . S
H1955 C1967 0.950 . S
C1956 H1948 0.950 . S
C1956 C1957 1.386 . S
C1956 C1958 1.391 . S
C1957 C1956 1.386 . S
C1957 C1961 1.393 . S
C1958 H1950 0.950 . S
C1958 C1956 1.391 . S
C1958 C1959 1.400 . S
C1959 C1958 1.400 . S
C1959 C1960 1.398 . S
C1959 C1965 1.491 . S
C1960 H1951 0.950 . S
C1960 C1959 1.398 . S
C1960 C1961 1.391 . S
C1961 H1949 0.950 . S
C1961 C1957 1.393 . S
C1961 C1960 1.391 . S
C1962 H1952 0.950 . S
C1962 C1963 1.386 . S
C1962 C1964 1.391 1_545 S
C1963 C1962 1.386 . S
C1963 C1967 1.393 . S
C1964 H1953 0.950 . S
C1964 C1962 1.391 1_565 S
C1964 C1965 1.400 . S
C1965 C1959 1.491 . S
C1965 C1964 1.400 . S
C1965 C1966 1.398 . S
C1966 H1954 0.950 . S
C1966 C1965 1.398 . S
C1966 C1967 1.391 1_565 S
C1967 H1955 0.950 . S
C1967 C1963 1.393 . S
C1967 C1966 1.391 1_545 S
H1968 C1976 0.950 . S
H1969 C1981 0.950 . S
H1970 C1978 0.950 . S
H1971 C1980 0.950 . S
H1972 C1982 0.950 . S
H1973 C1984 0.950 . S
H1974 C1986 0.950 . S
H1975 C1987 0.950 . S
C1976 H1968 0.950 . S
C1976 C1977 1.386 . S
C1976 C1978 1.391 . S
C1977 C1976 1.386 . S
C1977 C1981 1.393 . S
C1978 H1970 0.950 . S
C1978 C1976 1.391 . S
C1978 C1979 1.400 . S
C1979 C1978 1.400 . S
C1979 C1980 1.398 . S
C1979 C1985 1.491 . S
C1980 H1971 0.950 . S
C1980 C1979 1.398 . S
C1980 C1981 1.391 . S
C1981 H1969 0.950 . S
C1981 C1977 1.393 . S
C1981 C1980 1.391 . S
C1982 H1972 0.950 . S
C1982 C1983 1.386 . S
C1982 C1984 1.391 . S
C1983 C1982 1.386 . S
C1983 C1987 1.393 . S
C1984 H1973 0.950 . S
C1984 C1982 1.391 . S
C1984 C1985 1.400 . S
C1985 C1979 1.491 . S
C1985 C1984 1.400 . S
C1985 C1986 1.398 . S
C1986 H1974 0.950 . S
C1986 C1985 1.398 . S
C1986 C1987 1.391 . S
C1987 H1975 0.950 . S
C1987 C1983 1.393 . S
C1987 C1986 1.391 . S
H1988 C1996 0.950 . S
H1989 C2001 0.950 . S
H1990 C1998 0.950 . S
H1991 C2000 0.950 . S
H1992 C2002 0.950 . S
H1993 C2004 0.950 . S
H1994 C2006 0.950 . S
H1995 C2007 0.950 . S
C1996 H1988 0.950 . S
C1996 C1997 1.386 . S
C1996 C1998 1.391 . S
C1997 C1996 1.386 . S
C1997 C2001 1.393 . S
C1998 H1990 0.950 . S
C1998 C1996 1.391 . S
C1998 C1999 1.400 . S
C1999 C1998 1.400 . S
C1999 C2000 1.398 . S
C1999 C2005 1.491 . S
C2000 H1991 0.950 . S
C2000 C1999 1.398 . S
C2000 C2001 1.391 . S
C2001 H1989 0.950 . S
C2001 C1997 1.393 . S
C2001 C2000 1.391 . S
C2002 H1992 0.950 . S
C2002 C2003 1.386 . S
C2002 C2004 1.391 1_565 S
C2003 C2002 1.386 . S
C2003 C2007 1.393 . S
C2004 H1993 0.950 . S
C2004 C2002 1.391 1_545 S
C2004 C2005 1.400 . S
C2005 C1999 1.491 . S
C2005 C2004 1.400 . S
C2005 C2006 1.398 . S
C2006 H1994 0.950 . S
C2006 C2005 1.398 . S
C2006 C2007 1.391 1_545 S
C2007 H1995 0.950 . S
C2007 C2003 1.393 . S
C2007 C2006 1.391 1_565 S
H2008 C2016 0.950 . S
H2009 C2021 0.950 . S
H2010 C2018 0.950 . S
H2011 C2020 0.950 . S
H2012 C2022 0.950 . S
H2013 C2024 0.950 . S
H2014 C2026 0.950 . S
H2015 C2027 0.950 . S
C2016 H2008 0.950 . S
C2016 C2017 1.386 . S
C2016 C2018 1.391 . S
C2017 C2016 1.386 . S
C2017 C2021 1.393 . S
C2018 H2010 0.950 . S
C2018 C2016 1.391 . S
C2018 C2019 1.400 . S
C2019 C2018 1.400 . S
C2019 C2020 1.398 . S
C2019 C2025 1.491 . S
C2020 H2011 0.950 . S
C2020 C2019 1.398 . S
C2020 C2021 1.391 . S
C2021 H2009 0.950 . S
C2021 C2017 1.393 . S
C2021 C2020 1.391 . S
C2022 H2012 0.950 . S
C2022 C2023 1.386 . S
C2022 C2024 1.391 . S
C2023 C2022 1.386 . S
C2023 C2027 1.393 . S
C2024 H2013 0.950 . S
C2024 C2022 1.391 . S
C2024 C2025 1.400 . S
C2025 C2019 1.491 . S
C2025 C2024 1.400 . S
C2025 C2026 1.398 . S
C2026 H2014 0.950 . S
C2026 C2025 1.398 . S
C2026 C2027 1.391 . S
C2027 H2015 0.950 . S
C2027 C2023 1.393 . S
C2027 C2026 1.391 . S
H2028 C2036 0.950 . S
H2029 C2041 0.950 . S
H2030 C2038 0.950 . S
H2031 C2040 0.950 . S
H2032 C2042 0.950 . S
H2033 C2044 0.950 . S
H2034 C2046 0.950 . S
H2035 C2047 0.950 . S
C2036 H2028 0.950 . S
C2036 C2037 1.386 . S
C2036 C2038 1.391 1_545 S
C2037 C2036 1.386 . S
C2037 C2041 1.393 . S
C2038 H2030 0.950 . S
C2038 C2036 1.391 1_565 S
C2038 C2039 1.400 . S
C2039 C2038 1.400 . S
C2039 C2040 1.398 . S
C2039 C2045 1.491 . S
C2040 H2031 0.950 . S
C2040 C2039 1.398 . S
C2040 C2041 1.391 1_565 S
C2041 H2029 0.950 . S
C2041 C2037 1.393 . S
C2041 C2040 1.391 1_545 S
C2042 H2032 0.950 . S
C2042 C2043 1.386 . S
C2042 C2044 1.391 . S
C2043 C2042 1.386 . S
C2043 C2047 1.393 . S
C2044 H2033 0.950 . S
C2044 C2042 1.391 . S
C2044 C2045 1.400 . S
C2045 C2039 1.491 . S
C2045 C2044 1.400 . S
C2045 C2046 1.398 . S
C2046 H2034 0.950 . S
C2046 C2045 1.398 . S
C2046 C2047 1.391 . S
C2047 H2035 0.950 . S
C2047 C2043 1.393 . S
C2047 C2046 1.391 . S
H2048 C2056 0.950 . S
H2049 C2061 0.950 . S
H2050 C2058 0.950 . S
H2051 C2060 0.950 . S
H2052 C2062 0.950 . S
H2053 C2064 0.950 . S
H2054 C2066 0.950 . S
H2055 C2067 0.950 . S
C2056 H2048 0.950 . S
C2056 C2057 1.386 . S
C2056 C2058 1.391 . S
C2057 C2056 1.386 . S
C2057 C2061 1.393 . S
C2058 H2050 0.950 . S
C2058 C2056 1.391 . S
C2058 C2059 1.400 . S
C2059 C2058 1.400 . S
C2059 C2060 1.398 . S
C2059 C2065 1.491 . S
C2060 H2051 0.950 . S
C2060 C2059 1.398 . S
C2060 C2061 1.391 . S
C2061 H2049 0.950 . S
C2061 C2057 1.393 . S
C2061 C2060 1.391 . S
C2062 H2052 0.950 . S
C2062 C2063 1.386 . S
C2062 C2064 1.391 . S
C2063 C2062 1.386 . S
C2063 C2067 1.393 . S
C2064 H2053 0.950 . S
C2064 C2062 1.391 . S
C2064 C2065 1.400 . S
C2065 C2059 1.491 . S
C2065 C2064 1.400 . S
C2065 C2066 1.398 . S
C2066 H2054 0.950 . S
C2066 C2065 1.398 . S
C2066 C2067 1.391 . S
C2067 H2055 0.950 . S
C2067 C2063 1.393 . S
C2067 C2066 1.391 . S
H2068 C2076 0.950 . S
H2069 C2081 0.950 . S
H2070 C2078 0.950 . S
H2071 C2080 0.950 . S
H2072 C2082 0.950 . S
H2073 C2084 0.950 . S
H2074 C2086 0.950 . S
H2075 C2087 0.950 . S
C2076 H2068 0.950 . S
C2076 C2077 1.386 . S
C2076 C2078 1.391 . S
C2077 C2076 1.386 . S
C2077 C2081 1.393 . S
C2078 H2070 0.950 . S
C2078 C2076 1.391 . S
C2078 C2079 1.400 . S
C2079 C2078 1.400 . S
C2079 C2080 1.398 . S
C2079 C2085 1.491 . S
C2080 H2071 0.950 . S
C2080 C2079 1.398 . S
C2080 C2081 1.391 . S
C2081 H2069 0.950 . S
C2081 C2077 1.393 . S
C2081 C2080 1.391 . S
C2082 H2072 0.950 . S
C2082 C2083 1.386 . S
C2082 C2084 1.391 . S
C2083 C2082 1.386 . S
C2083 C2087 1.393 . S
C2084 H2073 0.950 . S
C2084 C2082 1.391 . S
C2084 C2085 1.400 . S
C2085 C2079 1.491 . S
C2085 C2084 1.400 . S
C2085 C2086 1.398 . S
C2086 H2074 0.950 . S
C2086 C2085 1.398 . S
C2086 C2087 1.391 . S
C2087 H2075 0.950 . S
C2087 C2083 1.393 . S
C2087 C2086 1.391 . S
H2088 C2096 0.950 . S
H2089 C2101 0.950 . S
H2090 C2098 0.950 . S
H2091 C2100 0.950 . S
H2092 C2102 0.950 . S
H2093 C2104 0.950 . S
H2094 C2106 0.950 . S
H2095 C2107 0.950 . S
C2096 H2088 0.950 . S
C2096 C2097 1.386 . S
C2096 C2098 1.391 . S
C2097 C2096 1.386 . S
C2097 C2101 1.393 . S
C2098 H2090 0.950 . S
C2098 C2096 1.391 . S
C2098 C2099 1.400 . S
C2099 C2098 1.400 . S
C2099 C2100 1.398 . S
C2099 C2105 1.491 . S
C2100 H2091 0.950 . S
C2100 C2099 1.398 . S
C2100 C2101 1.391 . S
C2101 H2089 0.950 . S
C2101 C2097 1.393 . S
C2101 C2100 1.391 . S
C2102 H2092 0.950 . S
C2102 C2103 1.386 . S
C2102 C2104 1.391 . S
C2103 C2102 1.386 . S
C2103 C2107 1.393 . S
C2104 H2093 0.950 . S
C2104 C2102 1.391 . S
C2104 C2105 1.400 . S
C2105 C2099 1.491 . S
C2105 C2104 1.400 . S
C2105 C2106 1.398 . S
C2106 H2094 0.950 . S
C2106 C2105 1.398 . S
C2106 C2107 1.391 . S
C2107 H2095 0.950 . S
C2107 C2103 1.393 . S
C2107 C2106 1.391 . S
H2108 C2116 0.950 . S
H2109 C2121 0.950 . S
H2110 C2118 0.950 . S
H2111 C2120 0.950 . S
H2112 C2122 0.950 . S
H2113 C2124 0.950 . S
H2114 C2126 0.950 . S
H2115 C2127 0.950 . S
C2116 H2108 0.950 . S
C2116 C2117 1.386 . S
C2116 C2118 1.391 . S
C2117 C2116 1.386 . S
C2117 C2121 1.393 . S
C2118 H2110 0.950 . S
C2118 C2116 1.391 . S
C2118 C2119 1.400 . S
C2119 C2118 1.400 . S
C2119 C2120 1.398 . S
C2119 C2125 1.491 . S
C2120 H2111 0.950 . S
C2120 C2119 1.398 . S
C2120 C2121 1.391 . S
C2121 H2109 0.950 . S
C2121 C2117 1.393 . S
C2121 C2120 1.391 . S
C2122 H2112 0.950 . S
C2122 C2123 1.386 . S
C2122 C2124 1.391 . S
C2123 C2122 1.386 . S
C2123 C2127 1.393 . S
C2124 H2113 0.950 . S
C2124 C2122 1.391 . S
C2124 C2125 1.400 . S
C2125 C2119 1.491 . S
C2125 C2124 1.400 . S
C2125 C2126 1.398 . S
C2126 H2114 0.950 . S
C2126 C2125 1.398 . S
C2126 C2127 1.391 . S
C2127 H2115 0.950 . S
C2127 C2123 1.393 . S
C2127 C2126 1.391 . S
H2128 C2136 0.950 . S
H2129 C2141 0.950 . S
H2130 C2138 0.950 . S
H2131 C2140 0.950 . S
H2132 C2142 0.950 . S
H2133 C2144 0.950 . S
H2134 C2146 0.950 . S
H2135 C2147 0.950 . S
C2136 H2128 0.950 . S
C2136 C2137 1.386 . S
C2136 C2138 1.391 . S
C2137 C2136 1.386 . S
C2137 C2141 1.393 . S
C2138 H2130 0.950 . S
C2138 C2136 1.391 . S
C2138 C2139 1.400 . S
C2139 C2138 1.400 . S
C2139 C2140 1.398 . S
C2139 C2145 1.491 . S
C2140 H2131 0.950 . S
C2140 C2139 1.398 . S
C2140 C2141 1.391 . S
C2141 H2129 0.950 . S
C2141 C2137 1.393 . S
C2141 C2140 1.391 . S
C2142 H2132 0.950 . S
C2142 C2143 1.386 . S
C2142 C2144 1.391 . S
C2143 C2142 1.386 . S
C2143 C2147 1.393 . S
C2144 H2133 0.950 . S
C2144 C2142 1.391 . S
C2144 C2145 1.400 . S
C2145 C2139 1.491 . S
C2145 C2144 1.400 . S
C2145 C2146 1.398 . S
C2146 H2134 0.950 . S
C2146 C2145 1.398 . S
C2146 C2147 1.391 . S
C2147 H2135 0.950 . S
C2147 C2143 1.393 . S
C2147 C2146 1.391 . S
H2148 C2156 0.950 . S
H2149 C2161 0.950 . S
H2150 C2158 0.950 . S
H2151 C2160 0.950 . S
H2152 C2162 0.950 . S
H2153 C2164 0.950 . S
H2154 C2166 0.950 . S
H2155 C2167 0.950 . S
C2156 H2148 0.950 . S
C2156 C2157 1.386 . S
C2156 C2158 1.391 . S
C2157 C2156 1.386 . S
C2157 C2161 1.393 . S
C2158 H2150 0.950 . S
C2158 C2156 1.391 . S
C2158 C2159 1.400 . S
C2159 C2158 1.400 . S
C2159 C2160 1.398 . S
C2159 C2165 1.491 . S
C2160 H2151 0.950 . S
C2160 C2159 1.398 . S
C2160 C2161 1.391 . S
C2161 H2149 0.950 . S
C2161 C2157 1.393 . S
C2161 C2160 1.391 . S
C2162 H2152 0.950 . S
C2162 C2163 1.386 . S
C2162 C2164 1.391 . S
C2163 C2162 1.386 . S
C2163 C2167 1.393 . S
C2164 H2153 0.950 . S
C2164 C2162 1.391 . S
C2164 C2165 1.400 . S
C2165 C2159 1.491 . S
C2165 C2164 1.400 . S
C2165 C2166 1.398 . S
C2166 H2154 0.950 . S
C2166 C2165 1.398 . S
C2166 C2167 1.391 . S
C2167 H2155 0.950 . S
C2167 C2163 1.393 . S
C2167 C2166 1.391 . S
H2168 C2176 0.950 . S
H2169 C2181 0.950 . S
H2170 C2178 0.950 . S
H2171 C2180 0.950 . S
H2172 C2182 0.950 . S
H2173 C2184 0.950 . S
H2174 C2186 0.950 . S
H2175 C2187 0.950 . S
C2176 H2168 0.950 . S
C2176 C2177 1.386 . S
C2176 C2178 1.391 . S
C2177 C2176 1.386 . S
C2177 C2181 1.393 . S
C2178 H2170 0.950 . S
C2178 C2176 1.391 . S
C2178 C2179 1.400 . S
C2179 C2178 1.400 . S
C2179 C2180 1.398 . S
C2179 C2185 1.491 . S
C2180 H2171 0.950 . S
C2180 C2179 1.398 . S
C2180 C2181 1.391 . S
C2181 H2169 0.950 . S
C2181 C2177 1.393 . S
C2181 C2180 1.391 . S
C2182 H2172 0.950 . S
C2182 C2183 1.386 . S
C2182 C2184 1.391 . S
C2183 C2182 1.386 . S
C2183 C2187 1.393 . S
C2184 H2173 0.950 . S
C2184 C2182 1.391 . S
C2184 C2185 1.400 . S
C2185 C2179 1.491 . S
C2185 C2184 1.400 . S
C2185 C2186 1.398 . S
C2186 H2174 0.950 . S
C2186 C2185 1.398 . S
C2186 C2187 1.391 . S
C2187 H2175 0.950 . S
C2187 C2183 1.393 . S
C2187 C2186 1.391 . S
H2188 C2196 0.950 . S
H2189 C2201 0.950 . S
H2190 C2198 0.950 . S
H2191 C2200 0.950 . S
H2192 C2202 0.950 . S
H2193 C2204 0.950 . S
H2194 C2206 0.950 . S
H2195 C2207 0.950 . S
C2196 H2188 0.950 . S
C2196 C2197 1.386 . S
C2196 C2198 1.391 . S
C2197 C2196 1.386 . S
C2197 C2201 1.393 . S
C2198 H2190 0.950 . S
C2198 C2196 1.391 . S
C2198 C2199 1.400 . S
C2199 C2198 1.400 . S
C2199 C2200 1.398 . S
C2199 C2205 1.491 . S
C2200 H2191 0.950 . S
C2200 C2199 1.398 . S
C2200 C2201 1.391 . S
C2201 H2189 0.950 . S
C2201 C2197 1.393 . S
C2201 C2200 1.391 . S
C2202 H2192 0.950 . S
C2202 C2203 1.386 . S
C2202 C2204 1.391 . S
C2203 C2202 1.386 . S
C2203 C2207 1.393 . S
C2204 H2193 0.950 . S
C2204 C2202 1.391 . S
C2204 C2205 1.400 . S
C2205 C2199 1.491 . S
C2205 C2204 1.400 . S
C2205 C2206 1.398 . S
C2206 H2194 0.950 . S
C2206 C2205 1.398 . S
C2206 C2207 1.391 . S
C2207 H2195 0.950 . S
C2207 C2203 1.393 . S
C2207 C2206 1.391 . S
H2208 C2216 0.950 . S
H2209 C2221 0.950 . S
H2210 C2218 0.950 . S
H2211 C2220 0.950 . S
H2212 C2222 0.950 . S
H2213 C2224 0.950 . S
H2214 C2226 0.950 . S
H2215 C2227 0.950 . S
C2216 H2208 0.950 . S
C2216 C2217 1.386 . S
C2216 C2218 1.391 . S
C2217 C2216 1.386 . S
C2217 C2221 1.393 . S
C2218 H2210 0.950 . S
C2218 C2216 1.391 . S
C2218 C2219 1.400 . S
C2219 C2218 1.400 . S
C2219 C2220 1.398 . S
C2219 C2225 1.491 . S
C2220 H2211 0.950 . S
C2220 C2219 1.398 . S
C2220 C2221 1.391 . S
C2221 H2209 0.950 . S
C2221 C2217 1.393 . S
C2221 C2220 1.391 . S
C2222 H2212 0.950 . S
C2222 C2223 1.386 . S
C2222 C2224 1.391 . S
C2223 C2222 1.386 . S
C2223 C2227 1.393 . S
C2224 H2213 0.950 . S
C2224 C2222 1.391 . S
C2224 C2225 1.400 . S
C2225 C2219 1.491 . S
C2225 C2224 1.400 . S
C2225 C2226 1.398 . S
C2226 H2214 0.950 . S
C2226 C2225 1.398 . S
C2226 C2227 1.391 . S
C2227 H2215 0.950 . S
C2227 C2223 1.393 . S
C2227 C2226 1.391 . S
H2228 C2236 0.950 . S
H2229 C2241 0.950 . S
H2230 C2238 0.950 . S
H2231 C2240 0.950 . S
H2232 C2242 0.950 . S
H2233 C2244 0.950 . S
H2234 C2246 0.950 . S
H2235 C2247 0.950 . S
C2236 H2228 0.950 . S
C2236 C2237 1.386 . S
C2236 C2238 1.391 . S
C2237 C2236 1.386 . S
C2237 C2241 1.393 . S
C2238 H2230 0.950 . S
C2238 C2236 1.391 . S
C2238 C2239 1.400 . S
C2239 C2238 1.400 . S
C2239 C2240 1.398 . S
C2239 C2245 1.491 . S
C2240 H2231 0.950 . S
C2240 C2239 1.398 . S
C2240 C2241 1.391 . S
C2241 H2229 0.950 . S
C2241 C2237 1.393 . S
C2241 C2240 1.391 . S
C2242 H2232 0.950 . S
C2242 C2243 1.386 . S
C2242 C2244 1.391 . S
C2243 C2242 1.386 . S
C2243 C2247 1.393 . S
C2244 H2233 0.950 . S
C2244 C2242 1.391 . S
C2244 C2245 1.400 . S
C2245 C2239 1.491 . S
C2245 C2244 1.400 . S
C2245 C2246 1.398 . S
C2246 H2234 0.950 . S
C2246 C2245 1.398 . S
C2246 C2247 1.391 . S
C2247 H2235 0.950 . S
C2247 C2243 1.393 . S
C2247 C2246 1.391 . S
H2248 C2256 0.950 . S
H2249 C2261 0.950 . S
H2250 C2258 0.950 . S
H2251 C2260 0.950 . S
H2252 C2262 0.950 . S
H2253 C2264 0.950 . S
H2254 C2266 0.950 . S
H2255 C2267 0.950 . S
C2256 H2248 0.950 . S
C2256 C2257 1.386 . S
C2256 C2258 1.391 . S
C2257 C2256 1.386 . S
C2257 C2261 1.393 . S
C2258 H2250 0.950 . S
C2258 C2256 1.391 . S
C2258 C2259 1.400 . S
C2259 C2258 1.400 . S
C2259 C2260 1.398 . S
C2259 C2265 1.491 . S
C2260 H2251 0.950 . S
C2260 C2259 1.398 . S
C2260 C2261 1.391 . S
C2261 H2249 0.950 . S
C2261 C2257 1.393 . S
C2261 C2260 1.391 . S
C2262 H2252 0.950 . S
C2262 C2263 1.386 . S
C2262 C2264 1.391 . S
C2263 C2262 1.386 . S
C2263 C2267 1.393 . S
C2264 H2253 0.950 . S
C2264 C2262 1.391 . S
C2264 C2265 1.400 . S
C2265 C2259 1.491 . S
C2265 C2264 1.400 . S
C2265 C2266 1.398 . S
C2266 H2254 0.950 . S
C2266 C2265 1.398 . S
C2266 C2267 1.391 . S
C2267 H2255 0.950 . S
C2267 C2263 1.393 . S
C2267 C2266 1.391 . S
H2268 C2276 0.950 . S
H2269 C2281 0.950 . S
H2270 C2278 0.950 . S
H2271 C2280 0.950 . S
H2272 C2282 0.950 . S
H2273 C2284 0.950 . S
H2274 C2286 0.950 . S
H2275 C2287 0.950 . S
C2276 H2268 0.950 . S
C2276 C2277 1.386 . S
C2276 C2278 1.391 . S
C2277 C2276 1.386 . S
C2277 C2281 1.393 . S
C2278 H2270 0.950 . S
C2278 C2276 1.391 . S
C2278 C2279 1.400 . S
C2279 C2278 1.400 . S
C2279 C2280 1.398 . S
C2279 C2285 1.491 . S
C2280 H2271 0.950 . S
C2280 C2279 1.398 . S
C2280 C2281 1.391 . S
C2281 H2269 0.950 . S
C2281 C2277 1.393 . S
C2281 C2280 1.391 . S
C2282 H2272 0.950 . S
C2282 C2283 1.386 . S
C2282 C2284 1.391 . S
C2283 C2282 1.386 . S
C2283 C2287 1.393 . S
C2284 H2273 0.950 . S
C2284 C2282 1.391 . S
C2284 C2285 1.400 . S
C2285 C2279 1.491 . S
C2285 C2284 1.400 . S
C2285 C2286 1.398 . S
C2286 H2274 0.950 . S
C2286 C2285 1.398 . S
C2286 C2287 1.391 . S
C2287 H2275 0.950 . S
C2287 C2283 1.393 . S
C2287 C2286 1.391 . S
H2288 C2296 0.950 . S
H2289 C2301 0.950 . S
H2290 C2298 0.950 . S
H2291 C2300 0.950 . S
H2292 C2302 0.950 . S
H2293 C2304 0.950 . S
H2294 C2306 0.950 . S
H2295 C2307 0.950 . S
C2296 H2288 0.950 . S
C2296 C2297 1.386 . S
C2296 C2298 1.391 . S
C2297 C2296 1.386 . S
C2297 C2301 1.393 . S
C2298 H2290 0.950 . S
C2298 C2296 1.391 . S
C2298 C2299 1.400 . S
C2299 C2298 1.400 . S
C2299 C2300 1.398 . S
C2299 C2305 1.491 . S
C2300 H2291 0.950 . S
C2300 C2299 1.398 . S
C2300 C2301 1.391 . S
C2301 H2289 0.950 . S
C2301 C2297 1.393 . S
C2301 C2300 1.391 . S
C2302 H2292 0.950 . S
C2302 C2303 1.386 . S
C2302 C2304 1.391 . S
C2303 C2302 1.386 . S
C2303 C2307 1.393 . S
C2304 H2293 0.950 . S
C2304 C2302 1.391 . S
C2304 C2305 1.400 . S
C2305 C2299 1.491 . S
C2305 C2304 1.400 . S
C2305 C2306 1.398 . S
C2306 H2294 0.950 . S
C2306 C2305 1.398 . S
C2306 C2307 1.391 . S
C2307 H2295 0.950 . S
C2307 C2303 1.393 . S
C2307 C2306 1.391 . S
H2308 C2316 0.950 . S
H2309 C2321 0.950 . S
H2310 C2318 0.950 . S
H2311 C2320 0.950 . S
H2312 C2322 0.950 . S
H2313 C2324 0.950 . S
H2314 C2326 0.950 . S
H2315 C2327 0.950 . S
C2316 H2308 0.950 . S
C2316 C2317 1.386 . S
C2316 C2318 1.391 . S
C2317 C2316 1.386 . S
C2317 C2321 1.393 . S
C2318 H2310 0.950 . S
C2318 C2316 1.391 . S
C2318 C2319 1.400 . S
C2319 C2318 1.400 . S
C2319 C2320 1.398 . S
C2319 C2325 1.491 . S
C2320 H2311 0.950 . S
C2320 C2319 1.398 . S
C2320 C2321 1.391 . S
C2321 H2309 0.950 . S
C2321 C2317 1.393 . S
C2321 C2320 1.391 . S
C2322 H2312 0.950 . S
C2322 C2323 1.386 . S
C2322 C2324 1.391 . S
C2323 C2322 1.386 . S
C2323 C2327 1.393 . S
C2324 H2313 0.950 . S
C2324 C2322 1.391 . S
C2324 C2325 1.400 . S
C2325 C2319 1.491 . S
C2325 C2324 1.400 . S
C2325 C2326 1.398 . S
C2326 H2314 0.950 . S
C2326 C2325 1.398 . S
C2326 C2327 1.391 . S
C2327 H2315 0.950 . S
C2327 C2323 1.393 . S
C2327 C2326 1.391 . S
H2328 C2336 0.950 . S
H2329 C2341 0.950 . S
H2330 C2338 0.950 . S
H2331 C2340 0.950 . S
H2332 C2342 0.950 . S
H2333 C2344 0.950 . S
H2334 C2346 0.950 . S
H2335 C2347 0.950 . S
C2336 H2328 0.950 . S
C2336 C2337 1.386 . S
C2336 C2338 1.391 . S
C2337 C2336 1.386 . S
C2337 C2341 1.393 . S
C2338 H2330 0.950 . S
C2338 C2336 1.391 . S
C2338 C2339 1.400 . S
C2339 C2338 1.400 . S
C2339 C2340 1.398 . S
C2339 C2345 1.491 . S
C2340 H2331 0.950 . S
C2340 C2339 1.398 . S
C2340 C2341 1.391 . S
C2341 H2329 0.950 . S
C2341 C2337 1.393 . S
C2341 C2340 1.391 . S
C2342 H2332 0.950 . S
C2342 C2343 1.386 . S
C2342 C2344 1.391 . S
C2343 C2342 1.386 . S
C2343 C2347 1.393 . S
C2344 H2333 0.950 . S
C2344 C2342 1.391 . S
C2344 C2345 1.400 . S
C2345 C2339 1.491 . S
C2345 C2344 1.400 . S
C2345 C2346 1.398 . S
C2346 H2334 0.950 . S
C2346 C2345 1.398 . S
C2346 C2347 1.391 . S
C2347 H2335 0.950 . S
C2347 C2343 1.393 . S
C2347 C2346 1.391 . S
H2348 C2356 0.950 . S
H2349 C2361 0.950 . S
H2350 C2358 0.950 . S
H2351 C2360 0.950 . S
H2352 C2362 0.950 . S
H2353 C2364 0.950 . S
H2354 C2366 0.950 . S
H2355 C2367 0.950 . S
C2356 H2348 0.950 . S
C2356 C2357 1.386 . S
C2356 C2358 1.391 . S
C2357 C2356 1.386 . S
C2357 C2361 1.393 . S
C2358 H2350 0.950 . S
C2358 C2356 1.391 . S
C2358 C2359 1.400 . S
C2359 C2358 1.400 . S
C2359 C2360 1.398 . S
C2359 C2365 1.491 . S
C2360 H2351 0.950 . S
C2360 C2359 1.398 . S
C2360 C2361 1.391 . S
C2361 H2349 0.950 . S
C2361 C2357 1.393 . S
C2361 C2360 1.391 . S
C2362 H2352 0.950 . S
C2362 C2363 1.386 . S
C2362 C2364 1.391 . S
C2363 C2362 1.386 . S
C2363 C2367 1.393 . S
C2364 H2353 0.950 . S
C2364 C2362 1.391 . S
C2364 C2365 1.400 . S
C2365 C2359 1.491 . S
C2365 C2364 1.400 . S
C2365 C2366 1.398 . S
C2366 H2354 0.950 . S
C2366 C2365 1.398 . S
C2366 C2367 1.391 . S
C2367 H2355 0.950 . S
C2367 C2363 1.393 . S
C2367 C2366 1.391 . S
H2368 C2376 0.950 . S
H2369 C2381 0.950 . S
H2370 C2378 0.950 . S
H2371 C2380 0.950 . S
H2372 C2382 0.950 . S
H2373 C2384 0.950 . S
H2374 C2386 0.950 . S
H2375 C2387 0.950 . S
C2376 H2368 0.950 . S
C2376 C2377 1.386 . S
C2376 C2378 1.391 . S
C2377 C2376 1.386 . S
C2377 C2381 1.393 . S
C2378 H2370 0.950 . S
C2378 C2376 1.391 . S
C2378 C2379 1.400 . S
C2379 C2378 1.400 . S
C2379 C2380 1.398 . S
C2379 C2385 1.491 . S
C2380 H2371 0.950 . S
C2380 C2379 1.398 . S
C2380 C2381 1.391 . S
C2381 H2369 0.950 . S
C2381 C2377 1.393 . S
C2381 C2380 1.391 . S
C2382 H2372 0.950 . S
C2382 C2383 1.386 . S
C2382 C2384 1.391 . S
C2383 C2382 1.386 . S
C2383 C2387 1.393 . S
C2384 H2373 0.950 . S
C2384 C2382 1.391 . S
C2384 C2385 1.400 . S
C2385 C2379 1.491 . S
C2385 C2384 1.400 . S
C2385 C2386 1.398 . S
C2386 H2374 0.950 . S
C2386 C2385 1.398 . S
C2386 C2387 1.391 . S
C2387 H2375 0.950 . S
C2387 C2383 1.393 . S
C2387 C2386 1.391 . S
H2388 C2396 0.950 . S
H2389 C2401 0.950 . S
H2390 C2398 0.950 . S
H2391 C2400 0.950 . S
H2392 C2402 0.950 . S
H2393 C2404 0.950 . S
H2394 C2406 0.950 . S
H2395 C2407 0.950 . S
C2396 H2388 0.950 . S
C2396 C2397 1.386 . S
C2396 C2398 1.391 . S
C2397 C2396 1.386 . S
C2397 C2401 1.393 . S
C2398 H2390 0.950 . S
C2398 C2396 1.391 . S
C2398 C2399 1.400 . S
C2399 C2398 1.400 . S
C2399 C2400 1.398 . S
C2399 C2405 1.491 1_655 S
C2400 H2391 0.950 . S
C2400 C2399 1.398 . S
C2400 C2401 1.391 . S
C2401 H2389 0.950 . S
C2401 C2397 1.393 . S
C2401 C2400 1.391 . S
C2402 H2392 0.950 . S
C2402 C2403 1.386 . S
C2402 C2404 1.391 . S
C2403 C2402 1.386 . S
C2403 C2407 1.393 . S
C2404 H2393 0.950 . S
C2404 C2402 1.391 . S
C2404 C2405 1.400 . S
C2405 C2399 1.491 1_455 S
C2405 C2404 1.400 . S
C2405 C2406 1.398 . S
C2406 H2394 0.950 . S
C2406 C2405 1.398 . S
C2406 C2407 1.391 . S
C2407 H2395 0.950 . S
C2407 C2403 1.393 . S
C2407 C2406 1.391 . S
H2408 C2416 0.950 . S
H2409 C2421 0.950 . S
H2410 C2418 0.950 . S
H2411 C2420 0.950 . S
H2412 C2422 0.950 . S
H2413 C2424 0.950 . S
H2414 C2426 0.950 . S
H2415 C2427 0.950 . S
C2416 H2408 0.950 . S
C2416 C2417 1.386 . S
C2416 C2418 1.391 . S
C2417 C2416 1.386 . S
C2417 C2421 1.393 1_655 S
C2418 H2410 0.950 . S
C2418 C2416 1.391 . S
C2418 C2419 1.400 . S
C2419 C2418 1.400 . S
C2419 C2420 1.398 1_655 S
C2419 C2425 1.491 1_655 S
C2420 H2411 0.950 . S
C2420 C2419 1.398 1_455 S
C2420 C2421 1.391 . S
C2421 H2409 0.950 . S
C2421 C2417 1.393 1_455 S
C2421 C2420 1.391 . S
C2422 H2412 0.950 . S
C2422 C2423 1.386 . S
C2422 C2424 1.391 . S
C2423 C2422 1.386 . S
C2423 C2427 1.393 1_455 S
C2424 H2413 0.950 . S
C2424 C2422 1.391 . S
C2424 C2425 1.400 . S
C2425 C2419 1.491 1_455 S
C2425 C2424 1.400 . S
C2425 C2426 1.398 1_455 S
C2426 H2414 0.950 . S
C2426 C2425 1.398 1_655 S
C2426 C2427 1.391 . S
C2427 H2415 0.950 . S
C2427 C2423 1.393 1_655 S
C2427 C2426 1.391 . S
H2428 C2436 0.950 . S
H2429 C2441 0.950 . S
H2430 C2438 0.950 . S
H2431 C2440 0.950 . S
H2432 C2442 0.950 . S
H2433 C2444 0.950 . S
H2434 C2446 0.950 . S
H2435 C2447 0.950 . S
C2436 H2428 0.950 . S
C2436 C2437 1.386 . S
C2436 C2438 1.391 . S
C2437 C2436 1.386 . S
C2437 C2441 1.393 . S
C2438 H2430 0.950 . S
C2438 C2436 1.391 . S
C2438 C2439 1.400 . S
C2439 C2438 1.400 . S
C2439 C2440 1.398 . S
C2439 C2445 1.491 . S
C2440 H2431 0.950 . S
C2440 C2439 1.398 . S
C2440 C2441 1.391 . S
C2441 H2429 0.950 . S
C2441 C2437 1.393 . S
C2441 C2440 1.391 . S
C2442 H2432 0.950 . S
C2442 C2443 1.386 . S
C2442 C2444 1.391 . S
C2443 C2442 1.386 . S
C2443 C2447 1.393 . S
C2444 H2433 0.950 . S
C2444 C2442 1.391 . S
C2444 C2445 1.400 . S
C2445 C2439 1.491 . S
C2445 C2444 1.400 . S
C2445 C2446 1.398 . S
C2446 H2434 0.950 . S
C2446 C2445 1.398 . S
C2446 C2447 1.391 . S
C2447 H2435 0.950 . S
C2447 C2443 1.393 . S
C2447 C2446 1.391 . S
H2448 C2456 0.950 . S
H2449 C2461 0.950 . S
H2450 C2458 0.950 . S
H2451 C2460 0.950 . S
H2452 C2462 0.950 . S
H2453 C2464 0.950 . S
H2454 C2466 0.950 . S
H2455 C2467 0.950 . S
C2456 H2448 0.950 . S
C2456 C2457 1.386 . S
C2456 C2458 1.391 . S
C2457 C2456 1.386 . S
C2457 C2461 1.393 . S
C2458 H2450 0.950 . S
C2458 C2456 1.391 . S
C2458 C2459 1.400 . S
C2459 C2458 1.400 . S
C2459 C2460 1.398 . S
C2459 C2465 1.491 . S
C2460 H2451 0.950 . S
C2460 C2459 1.398 . S
C2460 C2461 1.391 . S
C2461 H2449 0.950 . S
C2461 C2457 1.393 . S
C2461 C2460 1.391 . S
C2462 H2452 0.950 . S
C2462 C2463 1.386 . S
C2462 C2464 1.391 . S
C2463 C2462 1.386 . S
C2463 C2467 1.393 . S
C2464 H2453 0.950 . S
C2464 C2462 1.391 . S
C2464 C2465 1.400 . S
C2465 C2459 1.491 . S
C2465 C2464 1.400 . S
C2465 C2466 1.398 . S
C2466 H2454 0.950 . S
C2466 C2465 1.398 . S
C2466 C2467 1.391 . S
C2467 H2455 0.950 . S
C2467 C2463 1.393 . S
C2467 C2466 1.391 . S
H2468 C2476 0.950 . S
H2469 C2481 0.950 . S
H2470 C2478 0.950 . S
H2471 C2480 0.950 . S
H2472 C2482 0.950 . S
H2473 C2484 0.950 . S
H2474 C2486 0.950 . S
H2475 C2487 0.950 . S
C2476 H2468 0.950 . S
C2476 C2477 1.386 . S
C2476 C2478 1.391 . S
C2477 C2476 1.386 . S
C2477 C2481 1.393 . S
C2478 H2470 0.950 . S
C2478 C2476 1.391 . S
C2478 C2479 1.400 . S
C2479 C2478 1.400 . S
C2479 C2480 1.398 . S
C2479 C2485 1.491 . S
C2480 H2471 0.950 . S
C2480 C2479 1.398 . S
C2480 C2481 1.391 . S
C2481 H2469 0.950 . S
C2481 C2477 1.393 . S
C2481 C2480 1.391 . S
C2482 H2472 0.950 . S
C2482 C2483 1.386 . S
C2482 C2484 1.391 . S
C2483 C2482 1.386 . S
C2483 C2487 1.393 . S
C2484 H2473 0.950 . S
C2484 C2482 1.391 . S
C2484 C2485 1.400 . S
C2485 C2479 1.491 . S
C2485 C2484 1.400 . S
C2485 C2486 1.398 . S
C2486 H2474 0.950 . S
C2486 C2485 1.398 . S
C2486 C2487 1.391 . S
C2487 H2475 0.950 . S
C2487 C2483 1.393 . S
C2487 C2486 1.391 . S
H2488 C2496 0.950 . S
H2489 C2501 0.950 . S
H2490 C2498 0.950 . S
H2491 C2500 0.950 . S
H2492 C2502 0.950 . S
H2493 C2504 0.950 . S
H2494 C2506 0.950 . S
H2495 C2507 0.950 . S
C2496 H2488 0.950 . S
C2496 C2497 1.386 . S
C2496 C2498 1.391 . S
C2497 C2496 1.386 . S
C2497 C2501 1.393 1_455 S
C2498 H2490 0.950 . S
C2498 C2496 1.391 . S
C2498 C2499 1.400 . S
C2499 C2498 1.400 . S
C2499 C2500 1.398 1_455 S
C2499 C2505 1.491 1_455 S
C2500 H2491 0.950 . S
C2500 C2499 1.398 1_655 S
C2500 C2501 1.391 . S
C2501 H2489 0.950 . S
C2501 C2497 1.393 1_655 S
C2501 C2500 1.391 . S
C2502 H2492 0.950 . S
C2502 C2503 1.386 . S
C2502 C2504 1.391 . S
C2503 C2502 1.386 . S
C2503 C2507 1.393 1_655 S
C2504 H2493 0.950 . S
C2504 C2502 1.391 . S
C2504 C2505 1.400 . S
C2505 C2499 1.491 1_655 S
C2505 C2504 1.400 . S
C2505 C2506 1.398 1_655 S
C2506 H2494 0.950 . S
C2506 C2505 1.398 1_455 S
C2506 C2507 1.391 . S
C2507 H2495 0.950 . S
C2507 C2503 1.393 1_455 S
C2507 C2506 1.391 . S
H2508 C2516 0.950 . S
H2509 C2521 0.950 . S
H2510 C2518 0.950 . S
H2511 C2520 0.950 . S
H2512 C2522 0.950 . S
H2513 C2524 0.950 . S
H2514 C2526 0.950 . S
H2515 C2527 0.950 . S
C2516 H2508 0.950 . S
C2516 C2517 1.386 . S
C2516 C2518 1.391 . S
C2517 C2516 1.386 . S
C2517 C2521 1.393 . S
C2518 H2510 0.950 . S
C2518 C2516 1.391 . S
C2518 C2519 1.400 . S
C2519 C2518 1.400 . S
C2519 C2520 1.398 . S
C2519 C2525 1.491 1_655 S
C2520 H2511 0.950 . S
C2520 C2519 1.398 . S
C2520 C2521 1.391 . S
C2521 H2509 0.950 . S
C2521 C2517 1.393 . S
C2521 C2520 1.391 . S
C2522 H2512 0.950 . S
C2522 C2523 1.386 . S
C2522 C2524 1.391 . S
C2523 C2522 1.386 . S
C2523 C2527 1.393 . S
C2524 H2513 0.950 . S
C2524 C2522 1.391 . S
C2524 C2525 1.400 . S
C2525 C2519 1.491 1_455 S
C2525 C2524 1.400 . S
C2525 C2526 1.398 . S
C2526 H2514 0.950 . S
C2526 C2525 1.398 . S
C2526 C2527 1.391 . S
C2527 H2515 0.950 . S
C2527 C2523 1.393 . S
C2527 C2526 1.391 . S
H2528 C2536 0.950 . S
H2529 C2541 0.950 . S
H2530 C2538 0.950 . S
H2531 C2540 0.950 . S
H2532 C2542 0.950 . S
H2533 C2544 0.950 . S
H2534 C2546 0.950 . S
H2535 C2547 0.950 . S
C2536 H2528 0.950 . S
C2536 C2537 1.386 . S
C2536 C2538 1.391 . S
C2537 C2536 1.386 . S
C2537 C2541 1.393 . S
C2538 H2530 0.950 . S
C2538 C2536 1.391 . S
C2538 C2539 1.400 . S
C2539 C2538 1.400 . S
C2539 C2540 1.398 . S
C2539 C2545 1.491 . S
C2540 H2531 0.950 . S
C2540 C2539 1.398 . S
C2540 C2541 1.391 . S
C2541 H2529 0.950 . S
C2541 C2537 1.393 . S
C2541 C2540 1.391 . S
C2542 H2532 0.950 . S
C2542 C2543 1.386 . S
C2542 C2544 1.391 . S
C2543 C2542 1.386 . S
C2543 C2547 1.393 . S
C2544 H2533 0.950 . S
C2544 C2542 1.391 . S
C2544 C2545 1.400 . S
C2545 C2539 1.491 . S
C2545 C2544 1.400 . S
C2545 C2546 1.398 . S
C2546 H2534 0.950 . S
C2546 C2545 1.398 . S
C2546 C2547 1.391 . S
C2547 H2535 0.950 . S
C2547 C2543 1.393 . S
C2547 C2546 1.391 . S
H2548 C2556 0.950 . S
H2549 C2561 0.950 . S
H2550 C2558 0.950 . S
H2551 C2560 0.950 . S
H2552 C2562 0.950 . S
H2553 C2564 0.950 . S
H2554 C2566 0.950 . S
H2555 C2567 0.950 . S
C2556 H2548 0.950 . S
C2556 C2557 1.386 . S
C2556 C2558 1.391 . S
C2557 C2556 1.386 . S
C2557 C2561 1.393 . S
C2558 H2550 0.950 . S
C2558 C2556 1.391 . S
C2558 C2559 1.400 . S
C2559 C2558 1.400 . S
C2559 C2560 1.398 . S
C2559 C2565 1.491 1_655 S
C2560 H2551 0.950 . S
C2560 C2559 1.398 . S
C2560 C2561 1.391 . S
C2561 H2549 0.950 . S
C2561 C2557 1.393 . S
C2561 C2560 1.391 . S
C2562 H2552 0.950 . S
C2562 C2563 1.386 . S
C2562 C2564 1.391 . S
C2563 C2562 1.386 . S
C2563 C2567 1.393 . S
C2564 H2553 0.950 . S
C2564 C2562 1.391 . S
C2564 C2565 1.400 . S
C2565 C2559 1.491 1_455 S
C2565 C2564 1.400 . S
C2565 C2566 1.398 . S
C2566 H2554 0.950 . S
C2566 C2565 1.398 . S
C2566 C2567 1.391 . S
C2567 H2555 0.950 . S
C2567 C2563 1.393 . S
C2567 C2566 1.391 . S
H2568 C2576 0.950 . S
H2569 C2581 0.950 . S
H2570 C2578 0.950 . S
H2571 C2580 0.950 . S
H2572 C2582 0.950 . S
H2573 C2584 0.950 . S
H2574 C2586 0.950 . S
H2575 C2587 0.950 . S
C2576 H2568 0.950 . S
C2576 C2577 1.386 1_455 S
C2576 C2578 1.391 . S
C2577 C2576 1.386 1_655 S
C2577 C2581 1.393 . S
C2578 H2570 0.950 . S
C2578 C2576 1.391 . S
C2578 C2579 1.400 1_455 S
C2579 C2578 1.400 1_655 S
C2579 C2580 1.398 . S
C2579 C2585 1.491 1_655 S
C2580 H2571 0.950 . S
C2580 C2579 1.398 . S
C2580 C2581 1.391 . S
C2581 H2569 0.950 . S
C2581 C2577 1.393 . S
C2581 C2580 1.391 . S
C2582 H2572 0.950 . S
C2582 C2583 1.386 1_655 S
C2582 C2584 1.391 . S
C2583 C2582 1.386 1_455 S
C2583 C2587 1.393 . S
C2584 H2573 0.950 . S
C2584 C2582 1.391 . S
C2584 C2585 1.400 1_655 S
C2585 C2579 1.491 1_455 S
C2585 C2584 1.400 1_455 S
C2585 C2586 1.398 . S
C2586 H2574 0.950 . S
C2586 C2585 1.398 . S
C2586 C2587 1.391 . S
C2587 H2575 0.950 . S
C2587 C2583 1.393 . S
C2587 C2586 1.391 . S
H2588 C2596 0.950 . S
H2589 C2601 0.950 . S
H2590 C2598 0.950 . S
H2591 C2600 0.950 . S
H2592 C2602 0.950 . S
H2593 C2604 0.950 . S
H2594 C2606 0.950 . S
H2595 C2607 0.950 . S
C2596 H2588 0.950 . S
C2596 C2597 1.386 . S
C2596 C2598 1.391 . S
C2597 C2596 1.386 . S
C2597 C2601 1.393 . S
C2598 H2590 0.950 . S
C2598 C2596 1.391 . S
C2598 C2599 1.400 . S
C2599 C2598 1.400 . S
C2599 C2600 1.398 . S
C2599 C2605 1.491 . S
C2600 H2591 0.950 . S
C2600 C2599 1.398 . S
C2600 C2601 1.391 . S
C2601 H2589 0.950 . S
C2601 C2597 1.393 . S
C2601 C2600 1.391 . S
C2602 H2592 0.950 . S
C2602 C2603 1.386 . S
C2602 C2604 1.391 . S
C2603 C2602 1.386 . S
C2603 C2607 1.393 . S
C2604 H2593 0.950 . S
C2604 C2602 1.391 . S
C2604 C2605 1.400 . S
C2605 C2599 1.491 . S
C2605 C2604 1.400 . S
C2605 C2606 1.398 . S
C2606 H2594 0.950 . S
C2606 C2605 1.398 . S
C2606 C2607 1.391 . S
C2607 H2595 0.950 . S
C2607 C2603 1.393 . S
C2607 C2606 1.391 . S
H2608 C2616 0.950 . S
H2609 C2621 0.950 . S
H2610 C2618 0.950 . S
H2611 C2620 0.950 . S
H2612 C2622 0.950 . S
H2613 C2624 0.950 . S
H2614 C2626 0.950 . S
H2615 C2627 0.950 . S
C2616 H2608 0.950 . S
C2616 C2617 1.386 . S
C2616 C2618 1.391 . S
C2617 C2616 1.386 . S
C2617 C2621 1.393 . S
C2618 H2610 0.950 . S
C2618 C2616 1.391 . S
C2618 C2619 1.400 . S
C2619 C2618 1.400 . S
C2619 C2620 1.398 . S
C2619 C2625 1.491 . S
C2620 H2611 0.950 . S
C2620 C2619 1.398 . S
C2620 C2621 1.391 . S
C2621 H2609 0.950 . S
C2621 C2617 1.393 . S
C2621 C2620 1.391 . S
C2622 H2612 0.950 . S
C2622 C2623 1.386 . S
C2622 C2624 1.391 . S
C2623 C2622 1.386 . S
C2623 C2627 1.393 . S
C2624 H2613 0.950 . S
C2624 C2622 1.391 . S
C2624 C2625 1.400 . S
C2625 C2619 1.491 . S
C2625 C2624 1.400 . S
C2625 C2626 1.398 . S
C2626 H2614 0.950 . S
C2626 C2625 1.398 . S
C2626 C2627 1.391 . S
C2627 H2615 0.950 . S
C2627 C2623 1.393 . S
C2627 C2626 1.391 . S
H2628 C2636 0.950 . S
H2629 C2641 0.950 . S
H2630 C2638 0.950 . S
H2631 C2640 0.950 . S
H2632 C2642 0.950 . S
H2633 C2644 0.950 . S
H2634 C2646 0.950 . S
H2635 C2647 0.950 . S
C2636 H2628 0.950 . S
C2636 C2637 1.386 . S
C2636 C2638 1.391 . S
C2637 C2636 1.386 . S
C2637 C2641 1.393 . S
C2638 H2630 0.950 . S
C2638 C2636 1.391 . S
C2638 C2639 1.400 . S
C2639 C2638 1.400 . S
C2639 C2640 1.398 . S
C2639 C2645 1.491 . S
C2640 H2631 0.950 . S
C2640 C2639 1.398 . S
C2640 C2641 1.391 . S
C2641 H2629 0.950 . S
C2641 C2637 1.393 . S
C2641 C2640 1.391 . S
C2642 H2632 0.950 . S
C2642 C2643 1.386 . S
C2642 C2644 1.391 . S
C2643 C2642 1.386 . S
C2643 C2647 1.393 . S
C2644 H2633 0.950 . S
C2644 C2642 1.391 . S
C2644 C2645 1.400 . S
C2645 C2639 1.491 . S
C2645 C2644 1.400 . S
C2645 C2646 1.398 . S
C2646 H2634 0.950 . S
C2646 C2645 1.398 . S
C2646 C2647 1.391 . S
C2647 H2635 0.950 . S
C2647 C2643 1.393 . S
C2647 C2646 1.391 . S
H2648 C2656 0.950 . S
H2649 C2661 0.950 . S
H2650 C2658 0.950 . S
H2651 C2660 0.950 . S
H2652 C2662 0.950 . S
H2653 C2664 0.950 . S
H2654 C2666 0.950 . S
H2655 C2667 0.950 . S
C2656 H2648 0.950 . S
C2656 C2657 1.386 . S
C2656 C2658 1.391 . S
C2657 C2656 1.386 . S
C2657 C2661 1.393 1_655 S
C2658 H2650 0.950 . S
C2658 C2656 1.391 . S
C2658 C2659 1.400 . S
C2659 C2658 1.400 . S
C2659 C2660 1.398 1_655 S
C2659 C2665 1.491 1_655 S
C2660 H2651 0.950 . S
C2660 C2659 1.398 1_455 S
C2660 C2661 1.391 . S
C2661 H2649 0.950 . S
C2661 C2657 1.393 1_455 S
C2661 C2660 1.391 . S
C2662 H2652 0.950 . S
C2662 C2663 1.386 . S
C2662 C2664 1.391 . S
C2663 C2662 1.386 . S
C2663 C2667 1.393 1_455 S
C2664 H2653 0.950 . S
C2664 C2662 1.391 . S
C2664 C2665 1.400 . S
C2665 C2659 1.491 1_455 S
C2665 C2664 1.400 . S
C2665 C2666 1.398 1_455 S
C2666 H2654 0.950 . S
C2666 C2665 1.398 1_655 S
C2666 C2667 1.391 . S
C2667 H2655 0.950 . S
C2667 C2663 1.393 1_655 S
C2667 C2666 1.391 . S
H2668 C2676 0.950 . S
H2669 C2681 0.950 . S
H2670 C2678 0.950 . S
H2671 C2680 0.950 . S
H2672 C2682 0.950 . S
H2673 C2684 0.950 . S
H2674 C2686 0.950 . S
H2675 C2687 0.950 . S
C2676 H2668 0.950 . S
C2676 C2677 1.386 . S
C2676 C2678 1.391 . S
C2677 C2676 1.386 . S
C2677 C2681 1.393 . S
C2678 H2670 0.950 . S
C2678 C2676 1.391 . S
C2678 C2679 1.400 . S
C2679 C2678 1.400 . S
C2679 C2680 1.398 . S
C2679 C2685 1.491 1_455 S
C2680 H2671 0.950 . S
C2680 C2679 1.398 . S
C2680 C2681 1.391 . S
C2681 H2669 0.950 . S
C2681 C2677 1.393 . S
C2681 C2680 1.391 . S
C2682 H2672 0.950 . S
C2682 C2683 1.386 . S
C2682 C2684 1.391 . S
C2683 C2682 1.386 . S
C2683 C2687 1.393 . S
C2684 H2673 0.950 . S
C2684 C2682 1.391 . S
C2684 C2685 1.400 . S
C2685 C2679 1.491 1_655 S
C2685 C2684 1.400 . S
C2685 C2686 1.398 . S
C2686 H2674 0.950 . S
C2686 C2685 1.398 . S
C2686 C2687 1.391 . S
C2687 H2675 0.950 . S
C2687 C2683 1.393 . S
C2687 C2686 1.391 . S
C1097 C2 1.520 . S
C1103 C274 1.520 . S
C1117 C36 1.518 . S
C1123 C852 1.518 . S
C1137 C342 1.520 . S
C1143 C70 1.520 . S
C1157 C920 1.526 . S
C1163 C104 1.526 . S
C1177 C410 1.526 . S
C1183 C138 1.526 . S
C1197 C172 1.526 . S
C1203 C988 1.526 . S
C1217 C478 1.519 . S
C1223 C206 1.519 . S
C1237 C1056 1.526 . S
C1243 C240 1.526 . S
C1257 C308 1.522 . S
C1263 C580 1.522 . S
C1277 C376 1.520 . S
C1283 C648 1.520 . S
C1297 C716 1.519 . S
C1303 C444 1.519 . S
C1317 C512 1.524 . S
C1323 C784 1.524 . S
C1337 C546 1.526 . S
C1343 C818 1.526 . S
C1357 C886 1.523 . S
C1363 C614 1.523 . S
C1377 C954 1.524 . S
C1383 C682 1.524 . S
C1397 C750 1.525 . S
C1403 C1022 1.525 . S
C1417 C5 0.794 . S
C1423 C485 0.779 . S
C1437 C1063 0.779 . S
C1443 C39 0.794 . S
C1457 C417 0.734 . S
C1463 C73 0.768 . S
C1477 C995 0.792 . S
C1483 C107 0.797 . S
C1497 C349 0.805 . S
C1503 C141 0.792 . S
C1517 C175 0.763 . S
C1523 C927 0.774 . S
C1537 C281 0.804 . S
C1543 C209 0.795 . S
C1557 C243 0.797 . S
C1563 C859 0.792 . S
C1577 C277 0.763 . S
C1583 C213 0.774 . S
C1597 C311 0.792 . S
C1603 C791 0.805 . S
C1617 C345 0.761 . S
C1623 C145 0.731 . S
C1637 C723 0.739 . S
C1643 C379 0.754 . S
C1657 C77 0.788 . S
C1663 C413 0.796 . S
C1677 C655 0.775 . S
C1683 C447 0.764 . S
C1697 C481 0.793 . S
C1703 C9 0.805 . S
C1717 C587 0.732 . S
C1723 C515 0.765 . S
C1737 C549 0.778 . S
C1743 C1029 0.797 . S
C1757 C519 0.785 . S
C1763 C583 0.796 . S
C1777 C961 0.734 . S
C1783 C617 0.756 . S
C1797 C651 0.796 . S
C1803 C451 0.800 . S
C1817 C893 0.733 . S
C1823 C685 0.767 . S
C1837 C383 0.772 . S
C1843 C719 0.762 . S
C1857 C753 0.796 . S
C1863 C825 0.802 . S
C1877 C787 0.785 . S
C1883 C315 0.803 . S
C1897 C821 0.787 . S
C1903 C757 0.804 . S
C1917 C855 0.765 . S
C1923 C247 0.777 . S
C1937 C889 0.783 . S
C1943 C689 0.802 . S
C1957 C923 0.775 . S
C1963 C179 0.793 . S
C1977 C621 0.780 . S
C1983 C957 0.795 . S
C1997 C991 0.759 . S
C2003 C111 0.765 . S
C2017 C553 0.736 . S
C2023 C1025 0.755 . S
C2037 C43 0.734 . S
C2043 C1059 0.768 . S
C2057 C258 1.787 . S
C2063 C20 1.783 . S
C2077 C156 1.780 . S
C2083 C54 1.775 . S
C2097 C88 1.789 . S
C2103 C190 1.789 . S
C2117 C122 1.773 . S
C2123 C224 1.773 . S
C2137 C530 1.773 . S
C2143 C292 1.773 . S
C2157 C326 1.779 . S
C2163 C428 1.785 . S
C2177 C462 1.788 . S
C2183 C360 1.789 . S
C2197 C496 1.789 . S
C2203 C394 1.788 . S
C2217 C564 1.783 . S
C2223 C802 1.777 . S
C2237 C598 1.779 . S
C2243 C700 1.784 . S
C2257 C632 1.778 . S
C2263 C734 1.783 . S
C2277 C768 1.785 . S
C2283 C666 1.789 . S
C2297 C1074 1.773 . S
C2303 C836 1.773 . S
C2317 C972 1.780 . S
C2323 C870 1.786 . S
C2337 C904 1.789 . S
C2343 C1006 1.787 . S
C2357 C938 1.773 . S
C2363 C1040 1.773 . S
C2377 C33 2.200 . S
C2383 C645 2.202 . S
C2397 C679 2.200 . S
C2403 C67 2.202 . S
C2417 C577 2.202 . S
C2423 C101 2.200 . S
C2437 C611 2.200 . S
C2443 C135 2.203 . S
C2457 C781 2.201 . S
C2463 C169 2.202 . S
C2477 C815 2.202 . S
C2483 C203 2.199 . S
C2497 C237 2.202 . S
C2503 C713 2.200 . S
C2517 C747 2.203 . S
C2523 C271 2.200 . S
C2537 C917 2.201 . S
C2543 C305 2.200 . S
C2557 C339 2.200 . S
C2563 C951 2.200 . S
C2577 C373 2.201 . S
C2583 C849 2.200 . S
C2597 C407 2.200 . S
C2603 C883 2.203 . S
C2617 C441 2.201 . S
C2623 C1053 2.202 . S
C2637 C1087 2.201 . S
C2643 C475 2.202 . S
C2657 C509 2.199 . S
C2663 C985 2.202 . S
C2677 C1019 2.201 . S
C2683 C543 2.200 . S
