# Generated by pormake.
# Topology vbj, (5)-cn, num edge types: 1
# Building blocks:
#     Node 0, Type 0, BuildingBlock: BEQFEK_clean_sbu_0, # of connection points: 5
#     Node 1, Type 0, BuildingBlock: BEQFEK_clean_sbu_0, # of connection points: 5
#     Node 2, Type 0, BuildingBlock: BEQFEK_clean_sbu_0, # of connection points: 5
#     Node 3, Type 0, BuildingBlock: BEQFEK_clean_sbu_0, # of connection points: 5
#     Node 4, Type 0, BuildingBlock: BEQFEK_clean_sbu_0, # of connection points: 5
#     Node 5, Type 0, BuildingBlock: BEQFEK_clean_sbu_0, # of connection points: 5
#     Node 6, Type 0, BuildingBlock: BEQFEK_clean_sbu_0, # of connection points: 5
#     Node 7, Type 0, BuildingBlock: BEQFEK_clean_sbu_0, # of connection points: 5
#     Node 8, Type 0, BuildingBlock: BEQFEK_clean_sbu_0, # of connection points: 5
#     Node 9, Type 0, BuildingBlock: BEQFEK_clean_sbu_0, # of connection points: 5
#     Node 10, Type 0, BuildingBlock: BEQFEK_clean_sbu_0, # of connection points: 5
#     Node 11, Type 0, BuildingBlock: BEQFEK_clean_sbu_0, # of connection points: 5
#     Node 12, Type 0, BuildingBlock: BEQFEK_clean_sbu_0, # of connection points: 5
#     Node 13, Type 0, BuildingBlock: BEQFEK_clean_sbu_0, # of connection points: 5
#     Node 14, Type 0, BuildingBlock: BEQFEK_clean_sbu_0, # of connection points: 5
#     Node 15, Type 0, BuildingBlock: BEQFEK_clean_sbu_0, # of connection points: 5
#     Edge 16, Type (0, 0), BuildingBlock: UVAHIK_clean_linker_0, # of connection points: 2
#     Edge 17, Type (0, 0), BuildingBlock: UVAHIK_clean_linker_0, # of connection points: 2
#     Edge 18, Type (0, 0), BuildingBlock: UVAHIK_clean_linker_0, # of connection points: 2
#     Edge 19, Type (0, 0), BuildingBlock: UVAHIK_clean_linker_0, # of connection points: 2
#     Edge 20, Type (0, 0), BuildingBlock: UVAHIK_clean_linker_0, # of connection points: 2
#     Edge 21, Type (0, 0), BuildingBlock: UVAHIK_clean_linker_0, # of connection points: 2
#     Edge 22, Type (0, 0), BuildingBlock: UVAHIK_clean_linker_0, # of connection points: 2
#     Edge 23, Type (0, 0), BuildingBlock: UVAHIK_clean_linker_0, # of connection points: 2
#     Edge 24, Type (0, 0), BuildingBlock: UVAHIK_clean_linker_0, # of connection points: 2
#     Edge 25, Type (0, 0), BuildingBlock: UVAHIK_clean_linker_0, # of connection points: 2
#     Edge 26, Type (0, 0), BuildingBlock: UVAHIK_clean_linker_0, # of connection points: 2
#     Edge 27, Type (0, 0), BuildingBlock: UVAHIK_clean_linker_0, # of connection points: 2
#     Edge 28, Type (0, 0), BuildingBlock: UVAHIK_clean_linker_0, # of connection points: 2
#     Edge 29, Type (0, 0), BuildingBlock: UVAHIK_clean_linker_0, # of connection points: 2
#     Edge 30, Type (0, 0), BuildingBlock: UVAHIK_clean_linker_0, # of connection points: 2
#     Edge 31, Type (0, 0), BuildingBlock: UVAHIK_clean_linker_0, # of connection points: 2
#     Edge 32, Type (0, 0), BuildingBlock: UVAHIK_clean_linker_0, # of connection points: 2
#     Edge 33, Type (0, 0), BuildingBlock: UVAHIK_clean_linker_0, # of connection points: 2
#     Edge 34, Type (0, 0), BuildingBlock: UVAHIK_clean_linker_0, # of connection points: 2
#     Edge 35, Type (0, 0), BuildingBlock: UVAHIK_clean_linker_0, # of connection points: 2
#     Edge 36, Type (0, 0), BuildingBlock: UVAHIK_clean_linker_0, # of connection points: 2
#     Edge 37, Type (0, 0), BuildingBlock: UVAHIK_clean_linker_0, # of connection points: 2
#     Edge 38, Type (0, 0), BuildingBlock: UVAHIK_clean_linker_0, # of connection points: 2
#     Edge 39, Type (0, 0), BuildingBlock: UVAHIK_clean_linker_0, # of connection points: 2
#     Edge 40, Type (0, 0), BuildingBlock: UVAHIK_clean_linker_0, # of connection points: 2
#     Edge 41, Type (0, 0), BuildingBlock: UVAHIK_clean_linker_0, # of connection points: 2
#     Edge 42, Type (0, 0), BuildingBlock: UVAHIK_clean_linker_0, # of connection points: 2
#     Edge 43, Type (0, 0), BuildingBlock: UVAHIK_clean_linker_0, # of connection points: 2
#     Edge 44, Type (0, 0), BuildingBlock: UVAHIK_clean_linker_0, # of connection points: 2
#     Edge 45, Type (0, 0), BuildingBlock: UVAHIK_clean_linker_0, # of connection points: 2
#     Edge 46, Type (0, 0), BuildingBlock: UVAHIK_clean_linker_0, # of connection points: 2
#     Edge 47, Type (0, 0), BuildingBlock: UVAHIK_clean_linker_0, # of connection points: 2
#     Edge 48, Type (0, 0), BuildingBlock: UVAHIK_clean_linker_0, # of connection points: 2
#     Edge 49, Type (0, 0), BuildingBlock: UVAHIK_clean_linker_0, # of connection points: 2
#     Edge 50, Type (0, 0), BuildingBlock: UVAHIK_clean_linker_0, # of connection points: 2
#     Edge 51, Type (0, 0), BuildingBlock: UVAHIK_clean_linker_0, # of connection points: 2
#     Edge 52, Type (0, 0), BuildingBlock: UVAHIK_clean_linker_0, # of connection points: 2
#     Edge 53, Type (0, 0), BuildingBlock: UVAHIK_clean_linker_0, # of connection points: 2
#     Edge 54, Type (0, 0), BuildingBlock: UVAHIK_clean_linker_0, # of connection points: 2
#     Edge 55, Type (0, 0), BuildingBlock: UVAHIK_clean_linker_0, # of connection points: 2
# Relax obj value: 0.124
# Max RMSD: 0.142
# Mean RMSD: 0.142
data_MOF--net-vbj--node1-BEQFEK_clean_sbu_0--edge1-UVAHIK_clean_linker_0
_symmetry_space_group_name_H-M    P1
_symmetry_Int_Tables_number       1
_symmetry_cell_setting            triclinic
loop_
_symmetry_equiv_pos_as_xyz
'x, y, z'
_cell_length_a     32.518139
_cell_length_b     89.335239
_cell_length_c     57.854933
_cell_angle_alpha  90.013881
_cell_angle_beta   89.9635
_cell_angle_gamma 90.013184
loop_
_atom_site_label
_atom_site_type_symbol
_atom_site_fract_x
_atom_site_fract_y
_atom_site_fract_z
_atom_type_partial_charge
Co0 Co 0.0912 0.15014 0.0895 0.0
Co1 Co 0.10873 0.11661 0.07614 0.0
C2 C 0.05853 0.12444 0.11754 0.0
O3 O 0.06237 0.13834 0.11324 0.0
O4 O 0.07529 0.11454 0.10478 0.0
C5 C 0.07474 0.17667 0.11668 0.0
O6 O 0.07039 0.16724 0.13393 0.0
C7 C 0.14349 0.08621 0.0799 0.0
C8 C 0.14745 0.07973 0.0431 0.0
C9 C 0.15657 0.07486 0.06524 0.0
N10 N 0.12768 0.0973 0.06695 0.0
N11 N 0.12958 0.09324 0.045 0.0
C12 C 0.14922 0.08717 0.10551 0.0
H13 H 0.14902 0.09903 0.11123 0.0
H14 H 0.17846 0.08172 0.11072 0.0
H15 H 0.12348 0.08123 0.11416 0.0
C16 C 0.18233 0.15131 0.08879 0.0
N17 N 0.1465 0.14384 0.08705 0.0
N18 N 0.15393 0.12986 0.08112 0.0
C19 C 0.19483 0.12805 0.07862 0.0
C20 C 0.21425 0.14153 0.08366 0.0
C21 C 0.18553 0.16756 0.09472 0.0
H22 H 0.16615 0.16999 0.11005 0.0
H23 H 0.21778 0.17086 0.09837 0.0
H24 H 0.17357 0.1743 0.08009 0.0
O25 O 0.06276 0.14772 0.05971 0.0
O26 O 0.0741 0.12403 0.05034 0.0
H27 H 0.19621 0.11032 0.05369 0.0
H28 H 0.24623 0.11635 0.06269 0.0
C29 C 0.21436 0.11429 0.06866 0.0
H30 H 0.21485 0.10536 0.08197 0.0
H31 H 0.11989 0.09992 0.03126 0.0
O32 O 0.08581 0.17175 0.097 0.0
C33 C 0.05824 0.13673 0.04598 0.0
Co34 Co 0.40696 0.85596 0.10852 0.0
Co35 Co 0.3998 0.89056 0.09813 0.0
C36 C 0.4166 0.87899 0.14579 0.0
O37 O 0.41519 0.86543 0.13905 0.0
O38 O 0.41195 0.88981 0.1317 0.0
C39 C 0.4149 0.82704 0.13051 0.0
O40 O 0.41721 0.8349 0.14964 0.0
C41 C 0.36549 0.92147 0.09934 0.0
C42 C 0.39235 0.93063 0.06724 0.0
C43 C 0.36689 0.9343 0.08562 0.0
N44 N 0.3887 0.9108 0.08925 0.0
N45 N 0.40475 0.91642 0.07015 0.0
C46 C 0.34399 0.91944 0.122 0.0
H47 H 0.35763 0.91006 0.13186 0.0
H48 H 0.31118 0.91674 0.11885 0.0
H49 H 0.34567 0.92987 0.13239 0.0
C50 C 0.32335 0.8564 0.08774 0.0
N51 N 0.35773 0.86331 0.09514 0.0
N52 N 0.35502 0.87773 0.09057 0.0
C53 C 0.31917 0.8804 0.07971 0.0
C54 C 0.29763 0.86702 0.07783 0.0
C55 C 0.31571 0.83997 0.09008 0.0
H56 H 0.32552 0.83614 0.10746 0.0
H57 H 0.28276 0.83722 0.08743 0.0
H58 H 0.33447 0.83391 0.07706 0.0
O59 O 0.45404 0.86023 0.08783 0.0
O60 O 0.44836 0.88443 0.08008 0.0
H61 H 0.33555 0.89987 0.06012 0.0
H62 H 0.28358 0.89383 0.05564 0.0
C63 C 0.30819 0.89506 0.06875 0.0
H64 H 0.29761 0.90294 0.0823 0.0
H65 H 0.42396 0.91051 0.05898 0.0
O66 O 0.4077 0.83372 0.11152 0.0
C67 C 0.46657 0.87195 0.07753 0.0
Co68 Co 0.58348 0.85358 0.40608 0.0
Co69 Co 0.60114 0.88753 0.41648 0.0
C70 C 0.54982 0.87799 0.3762 0.0
O71 O 0.55411 0.86425 0.38143 0.0
O72 O 0.56644 0.88828 0.38823 0.0
C73 C 0.57399 0.82631 0.37995 0.0
O74 O 0.57862 0.83506 0.3619 0.0
C75 C 0.63795 0.91722 0.40836 0.0
C76 C 0.62745 0.92833 0.44199 0.0
C77 C 0.64376 0.93058 0.42016 0.0
N78 N 0.61928 0.90748 0.42266 0.0
N79 N 0.61311 0.9142 0.44273 0.0
C80 C 0.647 0.91411 0.38346 0.0
H81 H 0.63726 0.90262 0.37868 0.0
H82 H 0.68037 0.91533 0.38007 0.0
H83 H 0.63072 0.92241 0.3725 0.0
C84 C 0.67438 0.8524 0.40671 0.0
N85 N 0.63873 0.86002 0.40759 0.0
N86 N 0.64641 0.87421 0.41216 0.0
C87 C 0.68735 0.876 0.41446 0.0
C88 C 0.70638 0.86231 0.41076 0.0
C89 C 0.67728 0.83585 0.40318 0.0
H90 H 0.66047 0.83005 0.41728 0.0
H91 H 0.66218 0.83284 0.38664 0.0
H92 H 0.70971 0.83199 0.40282 0.0
O93 O 0.55602 0.85711 0.43584 0.0
O94 O 0.56797 0.88103 0.44362 0.0
H95 H 0.68814 0.89534 0.43653 0.0
H96 H 0.73831 0.88768 0.43053 0.0
C97 C 0.70752 0.89 0.42311 0.0
H98 H 0.71138 0.89791 0.40853 0.0
H99 H 0.59878 0.90918 0.45688 0.0
O100 O 0.5776 0.83181 0.40012 0.0
C101 C 0.55221 0.86845 0.44897 0.0
Co102 Co 0.90158 0.14702 0.37923 0.0
Co103 Co 0.89248 0.1129 0.392 0.0
C104 C 0.9101 0.12301 0.34356 0.0
O105 O 0.90882 0.13675 0.34933 0.0
O106 O 0.90528 0.11264 0.35841 0.0
C107 C 0.9209 0.1748 0.35719 0.0
O108 O 0.93311 0.1659 0.34046 0.0
C109 C 0.85358 0.08309 0.39127 0.0
C110 C 0.88668 0.07163 0.41954 0.0
C111 C 0.85699 0.06951 0.40272 0.0
N112 N 0.87998 0.09284 0.40098 0.0
N113 N 0.89956 0.08592 0.41791 0.0
C114 C 0.82825 0.08641 0.37032 0.0
H115 H 0.83767 0.07887 0.35602 0.0
H116 H 0.83211 0.09825 0.36493 0.0
H117 H 0.79533 0.08422 0.37399 0.0
C118 C 0.81934 0.1481 0.40106 0.0
N119 N 0.85231 0.1405 0.39332 0.0
N120 N 0.8481 0.12621 0.39851 0.0
C121 C 0.81222 0.12432 0.4098 0.0
C122 C 0.79274 0.13808 0.41155 0.0
C123 C 0.81453 0.16471 0.39926 0.0
H124 H 0.83812 0.17021 0.4102 0.0
H125 H 0.81998 0.16826 0.38113 0.0
H126 H 0.78346 0.16836 0.40486 0.0
O127 O 0.94814 0.14289 0.40001 0.0
O128 O 0.9411 0.11912 0.41029 0.0
H129 H 0.82568 0.10458 0.42953 0.0
H130 H 0.77463 0.11194 0.43415 0.0
C131 C 0.79901 0.11001 0.42106 0.0
H132 H 0.78676 0.10233 0.40769 0.0
H133 H 0.9222 0.09087 0.42812 0.0
O134 O 0.90364 0.16914 0.37489 0.0
C135 C 0.95995 0.13158 0.41156 0.0
Co136 Co 0.90975 0.85758 0.88552 0.0
Co137 Co 0.89977 0.89234 0.89357 0.0
C138 C 0.91936 0.87942 0.8469 0.0
O139 O 0.91955 0.86611 0.85471 0.0
O140 O 0.9121 0.89058 0.85997 0.0
C141 C 0.91813 0.82821 0.86513 0.0
O142 O 0.91728 0.83557 0.84548 0.0
C143 C 0.85764 0.92155 0.88944 0.0
C144 C 0.89204 0.93516 0.91479 0.0
C145 C 0.86028 0.93581 0.89889 0.0
N146 N 0.88637 0.91286 0.89947 0.0
N147 N 0.9068 0.92109 0.91459 0.0
C148 C 0.83044 0.91651 0.87009 0.0
H149 H 0.84078 0.90554 0.86322 0.0
H150 H 0.79843 0.9153 0.87641 0.0
H151 H 0.83037 0.92502 0.85611 0.0
C152 C 0.82621 0.85765 0.90609 0.0
N153 N 0.8596 0.86482 0.89791 0.0
N154 N 0.85607 0.87926 0.90217 0.0
C155 C 0.82086 0.88166 0.91386 0.0
C156 C 0.80042 0.86809 0.91641 0.0
C157 C 0.81993 0.8411 0.90444 0.0
H158 H 0.83053 0.83703 0.88733 0.0
H159 H 0.78712 0.83809 0.90693 0.0
H160 H 0.83868 0.8355 0.91792 0.0
O161 O 0.95522 0.86304 0.90634 0.0
O162 O 0.94869 0.88744 0.91257 0.0
H163 H 0.79115 0.89419 0.94119 0.0
H164 H 0.79249 0.90325 0.91348 0.0
C165 C 0.8102 0.89612 0.92556 0.0
H166 H 0.8385 0.90211 0.9308 0.0
H167 H 0.93103 0.91713 0.92468 0.0
O168 O 0.91252 0.83531 0.88393 0.0
C169 C 0.96717 0.87507 0.91598 0.0
Co170 Co 0.58919 0.15123 0.89929 0.0
Co171 Co 0.60175 0.11693 0.91005 0.0
C172 C 0.55436 0.1275 0.86866 0.0
O173 O 0.56 0.14116 0.87398 0.0
O174 O 0.56894 0.11696 0.88098 0.0
C175 C 0.57787 0.17917 0.87477 0.0
O176 O 0.57588 0.17062 0.85633 0.0
C177 C 0.63654 0.08676 0.90253 0.0
C178 C 0.61876 0.0753 0.93486 0.0
C179 C 0.63855 0.07311 0.91394 0.0
N180 N 0.61668 0.09658 0.91619 0.0
N181 N 0.6062 0.08965 0.93549 0.0
C182 C 0.65031 0.09011 0.8784 0.0
H183 H 0.63736 0.08165 0.86636 0.0
H184 H 0.64051 0.1015 0.87312 0.0
H185 H 0.68427 0.08937 0.87729 0.0
C186 C 0.68028 0.1507 0.90151 0.0
N187 N 0.64352 0.14377 0.90186 0.0
N188 N 0.64883 0.12956 0.90721 0.0
C189 C 0.68913 0.12711 0.91106 0.0
C190 C 0.7105 0.14036 0.90722 0.0
C191 C 0.68583 0.16698 0.8964 0.0
H192 H 0.66625 0.1702 0.88152 0.0
H193 H 0.71841 0.16965 0.89244 0.0
H194 H 0.67574 0.17362 0.91159 0.0
O195 O 0.55929 0.1479 0.92848 0.0
O196 O 0.5677 0.12382 0.93648 0.0
H197 H 0.73414 0.11542 0.93188 0.0
H198 H 0.7141 0.10508 0.90774 0.0
C199 C 0.70602 0.1131 0.92164 0.0
H200 H 0.68293 0.1079 0.93319 0.0
H201 H 0.59005 0.09466 0.94901 0.0
O202 O 0.58616 0.17326 0.89423 0.0
C203 C 0.55319 0.13665 0.94149 0.0
Co204 Co 0.39891 0.15203 0.6038 0.0
Co205 Co 0.39095 0.11766 0.59229 0.0
C206 C 0.40839 0.12824 0.64022 0.0
O207 O 0.40796 0.14188 0.63377 0.0
O208 O 0.40247 0.11759 0.62595 0.0
C209 C 0.40676 0.18056 0.62719 0.0
O210 O 0.40662 0.17245 0.64612 0.0
C211 C 0.35482 0.08727 0.59228 0.0
C212 C 0.37676 0.07876 0.55859 0.0
C213 C 0.35259 0.07506 0.57746 0.0
N214 N 0.37895 0.09773 0.58246 0.0
N215 N 0.39244 0.09246 0.5625 0.0
C216 C 0.33167 0.08957 0.61433 0.0
H217 H 0.32858 0.1017 0.61814 0.0
H218 H 0.30081 0.0843 0.61331 0.0
H219 H 0.34888 0.08423 0.62868 0.0
C220 C 0.31527 0.15234 0.58347 0.0
N221 N 0.34937 0.14514 0.59054 0.0
N222 N 0.34631 0.13083 0.58524 0.0
C223 C 0.31031 0.12854 0.57428 0.0
C224 C 0.28923 0.14205 0.57301 0.0
C225 C 0.30833 0.16877 0.58651 0.0
H226 H 0.3271 0.17495 0.57364 0.0
H227 H 0.31856 0.17226 0.60399 0.0
H228 H 0.27545 0.17172 0.58415 0.0
O229 O 0.4446 0.14806 0.58224 0.0
O230 O 0.44045 0.12377 0.57482 0.0
H231 H 0.32573 0.10944 0.55363 0.0
H232 H 0.27381 0.11566 0.54988 0.0
C233 C 0.29871 0.11413 0.56273 0.0
H234 H 0.28835 0.10601 0.57599 0.0
H235 H 0.41129 0.09842 0.55117 0.0
O236 O 0.40078 0.17418 0.60782 0.0
C237 C 0.45781 0.1364 0.57208 0.0
Co238 Co 0.08565 0.8563 0.58618 0.0
Co239 Co 0.10305 0.89032 0.57527 0.0
C240 C 0.04825 0.88138 0.61393 0.0
O241 O 0.05216 0.86761 0.60873 0.0
O242 O 0.06724 0.89161 0.60293 0.0
C243 C 0.06835 0.82965 0.61271 0.0
O244 O 0.06541 0.83901 0.63015 0.0
C245 C 0.13607 0.92133 0.5801 0.0
C246 C 0.13631 0.92834 0.5435 0.0
C247 C 0.14588 0.93328 0.56557 0.0
N248 N 0.1218 0.90995 0.56704 0.0
N249 N 0.12198 0.91429 0.54522 0.0
C250 C 0.13853 0.92081 0.60592 0.0
H251 H 0.11877 0.9118 0.61292 0.0
H252 H 0.17065 0.91843 0.61118 0.0
H253 H 0.12922 0.93173 0.61343 0.0
C254 C 0.17673 0.85583 0.58918 0.0
N255 N 0.14077 0.86309 0.58648 0.0
N256 N 0.14815 0.87717 0.58106 0.0
C257 C 0.18911 0.87924 0.57977 0.0
C258 C 0.20866 0.86584 0.58515 0.0
C259 C 0.18006 0.83954 0.59479 0.0
H260 H 0.15835 0.83672 0.60893 0.0
H261 H 0.21178 0.83649 0.60006 0.0
H262 H 0.17119 0.83289 0.57937 0.0
O263 O 0.06254 0.85882 0.55508 0.0
O264 O 0.07037 0.88311 0.54844 0.0
H265 H 0.19093 0.89735 0.55548 0.0
H266 H 0.24078 0.89114 0.56453 0.0
C267 C 0.2088 0.89314 0.5704 0.0
H268 H 0.20911 0.90186 0.58402 0.0
H269 H 0.11242 0.90761 0.53144 0.0
O270 O 0.07949 0.83458 0.59305 0.0
C271 C 0.05759 0.87024 0.54231 0.0
Co272 Co 0.60701 0.65201 0.10247 0.0
Co273 Co 0.61994 0.6179 0.09088 0.0
C274 C 0.57715 0.6279 0.13407 0.0
O275 O 0.58129 0.64164 0.12877 0.0
O276 O 0.59105 0.61756 0.1211 0.0
C277 C 0.59502 0.67988 0.12708 0.0
O278 O 0.59209 0.67128 0.14541 0.0
C279 C 0.65602 0.58785 0.09639 0.0
C280 C 0.63059 0.57616 0.06591 0.0
C281 C 0.65442 0.57405 0.08544 0.0
N282 N 0.63413 0.59769 0.08382 0.0
N283 N 0.61926 0.59064 0.06555 0.0
C284 C 0.67487 0.59132 0.11933 0.0
H285 H 0.66315 0.58335 0.1325 0.0
H286 H 0.66782 0.60298 0.12463 0.0
H287 H 0.7087 0.58987 0.1183 0.0
C288 C 0.6972 0.65223 0.09522 0.0
N289 N 0.66126 0.6449 0.09742 0.0
N290 N 0.66651 0.63078 0.09157 0.0
C291 C 0.7057 0.62879 0.0847 0.0
C292 C 0.72672 0.64228 0.08702 0.0
C293 C 0.7023 0.66859 0.09997 0.0
H294 H 0.68905 0.67508 0.08542 0.0
H295 H 0.68522 0.67164 0.11589 0.0
H296 H 0.73521 0.6716 0.10205 0.0
O297 O 0.57333 0.64864 0.07453 0.0
O298 O 0.58216 0.62462 0.06629 0.0
H299 H 0.69508 0.60978 0.06268 0.0
H300 H 0.74566 0.61764 0.0601 0.0
C301 C 0.72056 0.61503 0.07244 0.0
H302 H 0.73226 0.6069 0.08534 0.0
H303 H 0.60048 0.59562 0.05314 0.0
O304 O 0.60399 0.67402 0.10768 0.0
C305 C 0.56623 0.6373 0.06186 0.0
Co306 Co 0.88876 0.35238 0.10088 0.0
Co307 Co 0.87679 0.38695 0.093 0.0
C308 C 0.91658 0.37495 0.13575 0.0
O309 O 0.91237 0.36154 0.12873 0.0
O310 O 0.90416 0.38599 0.12371 0.0
C311 C 0.89453 0.32351 0.12338 0.0
O312 O 0.89247 0.33122 0.14268 0.0
C313 C 0.84212 0.41714 0.10046 0.0
C314 C 0.86314 0.4288 0.06889 0.0
C315 C 0.84182 0.43091 0.08934 0.0
N316 N 0.8626 0.40733 0.08709 0.0
N317 N 0.875 0.41438 0.06825 0.0
C318 C 0.826 0.41365 0.12408 0.0
H319 H 0.83498 0.40218 0.12942 0.0
H320 H 0.79199 0.41447 0.12415 0.0
H321 H 0.83794 0.42197 0.13666 0.0
C322 C 0.79959 0.3525 0.09163 0.0
N323 N 0.83518 0.35972 0.09559 0.0
N324 N 0.82995 0.37416 0.09195 0.0
C325 C 0.79081 0.37651 0.08526 0.0
C326 C 0.77024 0.3629 0.08517 0.0
C327 C 0.79531 0.33583 0.09147 0.0
H328 H 0.81573 0.33108 0.07795 0.0
H329 H 0.80547 0.33129 0.10837 0.0
H330 H 0.76309 0.33235 0.08809 0.0
O331 O 0.92388 0.35674 0.07402 0.0
O332 O 0.91566 0.38108 0.06817 0.0
H333 H 0.79751 0.39603 0.06403 0.0
H334 H 0.74492 0.38971 0.06727 0.0
C335 C 0.77489 0.39109 0.07618 0.0
H336 H 0.77062 0.39895 0.09079 0.0
H337 H 0.89204 0.4094 0.05505 0.0
O338 O 0.89088 0.33029 0.10417 0.0
C339 C 0.93163 0.36858 0.06264 0.0
Co340 Co 0.11465 0.34838 0.39492 0.0
Co341 Co 0.12574 0.38285 0.4052 0.0
C342 C 0.08915 0.37216 0.36099 0.0
O343 O 0.09329 0.35857 0.36721 0.0
O344 O 0.10015 0.38292 0.37405 0.0
C345 C 0.10898 0.32024 0.37026 0.0
O346 O 0.11245 0.32852 0.3516 0.0
C347 C 0.1546 0.41461 0.40239 0.0
C348 C 0.14575 0.42141 0.43877 0.0
C349 C 0.15871 0.4267 0.41747 0.0
N350 N 0.14012 0.4028 0.41441 0.0
N351 N 0.13497 0.407 0.43611 0.0
C352 C 0.16278 0.41438 0.37694 0.0
H353 H 0.14607 0.40509 0.36849 0.0
H354 H 0.19615 0.41266 0.37397 0.0
H355 H 0.15366 0.42518 0.36896 0.0
C356 C 0.20281 0.3483 0.4068 0.0
N357 N 0.16759 0.35554 0.40202 0.0
N358 N 0.17262 0.36997 0.40585 0.0
C359 C 0.21154 0.37235 0.4129 0.0
C360 C 0.23193 0.3587 0.41374 0.0
C361 C 0.20695 0.33163 0.40691 0.0
H362 H 0.18629 0.32688 0.42031 0.0
H363 H 0.19701 0.32712 0.38994 0.0
H364 H 0.2391 0.32812 0.41042 0.0
O365 O 0.07817 0.35184 0.42128 0.0
O366 O 0.08487 0.37606 0.42854 0.0
H367 H 0.20808 0.39051 0.43689 0.0
H368 H 0.25965 0.38642 0.42729 0.0
C369 C 0.227 0.38703 0.42187 0.0
H370 H 0.22388 0.39564 0.40821 0.0
H371 H 0.1239 0.40002 0.44916 0.0
O372 O 0.11222 0.32638 0.39 0.0
C373 C 0.06916 0.36335 0.43311 0.0
Co374 Co 0.37112 0.65281 0.38425 0.0
Co375 Co 0.35698 0.61908 0.39807 0.0
C376 C 0.38802 0.62738 0.35142 0.0
O377 O 0.38633 0.64124 0.35653 0.0
O378 O 0.37819 0.61728 0.36596 0.0
C379 C 0.39434 0.6799 0.36078 0.0
O380 O 0.40901 0.67063 0.3452 0.0
C381 C 0.32453 0.58807 0.39806 0.0
C382 C 0.32765 0.58276 0.43532 0.0
C383 C 0.31586 0.57694 0.41414 0.0
N384 N 0.34052 0.59989 0.40933 0.0
N385 N 0.34266 0.59656 0.43155 0.0
C386 C 0.31488 0.58802 0.37279 0.0
H387 H 0.30954 0.59962 0.3666 0.0
H388 H 0.28744 0.58101 0.36917 0.0
H389 H 0.34148 0.58332 0.3632 0.0
C390 C 0.28407 0.65489 0.39815 0.0
N391 N 0.31844 0.64696 0.39404 0.0
N392 N 0.31191 0.63279 0.39921 0.0
C393 C 0.27276 0.63127 0.40648 0.0
C394 C 0.2539 0.6452 0.406 0.0
C395 C 0.28113 0.67152 0.39568 0.0
H396 H 0.30263 0.6769 0.40804 0.0
H397 H 0.29079 0.67478 0.37799 0.0
H398 H 0.2494 0.67558 0.39895 0.0
O399 O 0.41081 0.64947 0.40919 0.0
O400 O 0.40148 0.62579 0.41923 0.0
H401 H 0.27308 0.61362 0.43141 0.0
H402 H 0.22245 0.61837 0.42113 0.0
C403 C 0.25512 0.61708 0.41603 0.0
H404 H 0.25749 0.60811 0.40285 0.0
H405 H 0.35365 0.60385 0.44421 0.0
O406 O 0.37474 0.67467 0.37801 0.0
C407 C 0.41968 0.63829 0.42179 0.0
Co408 Co 0.38433 0.35387 0.89692 0.0
Co409 Co 0.37551 0.38818 0.90893 0.0
C410 C 0.42016 0.37767 0.86671 0.0
O411 O 0.41368 0.36399 0.87161 0.0
O412 O 0.40663 0.38817 0.87948 0.0
C413 C 0.39541 0.32598 0.87218 0.0
O414 O 0.40043 0.33463 0.85404 0.0
C415 C 0.3428 0.41874 0.90297 0.0
C416 C 0.36594 0.42992 0.93446 0.0
C417 C 0.34395 0.4324 0.91434 0.0
N418 N 0.36304 0.4086 0.91587 0.0
N419 N 0.37667 0.41537 0.93469 0.0
C420 C 0.32584 0.41563 0.87943 0.0
H421 H 0.33284 0.40398 0.87402 0.0
H422 H 0.29205 0.41727 0.87949 0.0
H423 H 0.33912 0.42366 0.86682 0.0
C424 C 0.2938 0.35534 0.90152 0.0
N425 N 0.33096 0.36194 0.90071 0.0
N426 N 0.32728 0.37611 0.90672 0.0
C427 C 0.28772 0.37885 0.91214 0.0
C428 C 0.26503 0.36584 0.90872 0.0
C429 C 0.28671 0.33911 0.89653 0.0
H430 H 0.29761 0.33237 0.91142 0.0
H431 H 0.30477 0.33574 0.88111 0.0
H432 H 0.25363 0.33676 0.8935 0.0
O433 O 0.41568 0.35646 0.92575 0.0
O434 O 0.4111 0.38063 0.93412 0.0
H435 H 0.29823 0.39757 0.93478 0.0
H436 H 0.24648 0.39055 0.93537 0.0
C437 C 0.27329 0.39281 0.92404 0.0
H438 H 0.26403 0.40116 0.91088 0.0
H439 H 0.39393 0.41011 0.94753 0.0
O440 O 0.3853 0.33185 0.8914 0.0
C441 C 0.42421 0.36754 0.93869 0.0
Co442 Co 0.11044 0.65375 0.89392 0.0
Co443 Co 0.11663 0.61912 0.90381 0.0
C444 C 0.07873 0.63117 0.86034 0.0
O445 O 0.08521 0.6446 0.86662 0.0
O446 O 0.08953 0.62016 0.87292 0.0
C447 C 0.10455 0.68218 0.8705 0.0
O448 O 0.10315 0.67391 0.85173 0.0
C449 C 0.15082 0.58879 0.89737 0.0
C450 C 0.12428 0.57681 0.92728 0.0
C451 C 0.1492 0.57489 0.90809 0.0
N452 N 0.12811 0.59848 0.90979 0.0
N453 N 0.11232 0.59123 0.92763 0.0
C454 C 0.17094 0.59254 0.87485 0.0
H455 H 0.16175 0.60389 0.86898 0.0
H456 H 0.20482 0.59222 0.87679 0.0
H457 H 0.16239 0.58409 0.86163 0.0
C458 C 0.19987 0.65185 0.9023 0.0
N459 N 0.16281 0.6454 0.89956 0.0
N460 N 0.16538 0.63107 0.90476 0.0
C461 C 0.20405 0.62807 0.91172 0.0
C462 C 0.22736 0.64107 0.91006 0.0
C463 C 0.20803 0.66812 0.89831 0.0
H464 H 0.19191 0.67186 0.88244 0.0
H465 H 0.24145 0.67037 0.89657 0.0
H466 H 0.19566 0.67464 0.91309 0.0
O467 O 0.07456 0.65037 0.92081 0.0
O468 O 0.07806 0.62604 0.9282 0.0
H469 H 0.24146 0.61584 0.9362 0.0
H470 H 0.22846 0.60586 0.91027 0.0
C471 C 0.21669 0.61382 0.92339 0.0
H472 H 0.19019 0.60871 0.93246 0.0
H473 H 0.09314 0.5961 0.93997 0.0
O474 O 0.11077 0.67589 0.88991 0.0
C475 C 0.06426 0.63905 0.9328 0.0
Co476 Co 0.8721 0.65563 0.60151 0.0
Co477 Co 0.86825 0.62093 0.5918 0.0
C478 C 0.89703 0.63303 0.63718 0.0
O479 O 0.89177 0.64649 0.63058 0.0
O480 O 0.88925 0.62203 0.62389 0.0
C481 C 0.87693 0.68465 0.62376 0.0
O482 O 0.87931 0.67691 0.643 0.0
C483 C 0.83788 0.58989 0.59645 0.0
C484 C 0.86572 0.57926 0.56568 0.0
C485 C 0.84164 0.57634 0.58489 0.0
N486 N 0.85864 0.60037 0.58449 0.0
N487 N 0.87511 0.59393 0.56611 0.0
C488 C 0.81739 0.59262 0.61922 0.0
H489 H 0.82362 0.60414 0.62544 0.0
H490 H 0.7837 0.59113 0.61741 0.0
H491 H 0.8284 0.58431 0.63207 0.0
C492 C 0.78553 0.65356 0.58645 0.0
N493 N 0.82125 0.64715 0.59273 0.0
N494 N 0.81978 0.63271 0.58811 0.0
C495 C 0.78317 0.62956 0.5784 0.0
C496 C 0.7602 0.64262 0.57719 0.0
C497 C 0.77838 0.6701 0.58635 0.0
H498 H 0.79931 0.67538 0.57358 0.0
H499 H 0.78593 0.67476 0.60361 0.0
H500 H 0.74607 0.67285 0.58187 0.0
O501 O 0.91199 0.65243 0.57637 0.0
O502 O 0.91069 0.62798 0.56986 0.0
H503 H 0.79726 0.61082 0.55665 0.0
H504 H 0.74294 0.61517 0.55828 0.0
C505 C 0.77213 0.61469 0.56816 0.0
H506 H 0.76842 0.60642 0.58224 0.0
H507 H 0.89326 0.59951 0.55399 0.0
O508 O 0.87054 0.67782 0.60481 0.0
C509 C 0.92442 0.64098 0.56535 0.0
Co510 Co 0.61407 0.35372 0.61154 0.0
Co511 Co 0.6216 0.38801 0.59905 0.0
C512 C 0.59762 0.37774 0.64639 0.0
O513 O 0.60028 0.36402 0.64062 0.0
O514 O 0.60444 0.38819 0.63194 0.0
C515 C 0.59831 0.32566 0.63427 0.0
O516 O 0.5887 0.33429 0.65183 0.0
C517 C 0.65757 0.4183 0.60114 0.0
C518 C 0.62854 0.42908 0.5709 0.0
C519 C 0.65503 0.43173 0.58917 0.0
N520 N 0.63382 0.40815 0.59032 0.0
N521 N 0.61665 0.41468 0.57223 0.0
C522 C 0.67961 0.41546 0.62341 0.0
H523 H 0.67265 0.4041 0.63007 0.0
H524 H 0.71326 0.41642 0.62073 0.0
H525 H 0.67055 0.42403 0.63635 0.0
C526 C 0.69975 0.35378 0.5947 0.0
N527 N 0.66482 0.36093 0.60045 0.0
N528 N 0.66779 0.37515 0.59455 0.0
C529 C 0.70454 0.37738 0.58438 0.0
C530 C 0.72607 0.36398 0.58442 0.0
C531 C 0.70579 0.33725 0.5969 0.0
H532 H 0.68438 0.33143 0.58497 0.0
H533 H 0.69807 0.33369 0.61476 0.0
H534 H 0.73786 0.33396 0.59273 0.0
O535 O 0.57175 0.35719 0.58785 0.0
O536 O 0.57571 0.38131 0.5791 0.0
H537 H 0.69187 0.39625 0.56262 0.0
H538 H 0.74497 0.39017 0.56201 0.0
C539 C 0.71751 0.39171 0.57313 0.0
H540 H 0.72522 0.39999 0.58671 0.0
H541 H 0.59631 0.40936 0.56098 0.0
O542 O 0.61294 0.33157 0.61602 0.0
C543 C 0.55964 0.36846 0.5763 0.0
C544 C 0.52719 0.12752 0.97983 0.0
C545 C 0.52801 0.13858 0.96257 0.0
C546 C 0.50203 0.12922 -0.00073 0.0
C547 C 0.4355 0.15694 0.0304 0.0
H548 H 0.37428 0.12141 0.04756 0.0
C549 C 0.26954 0.15621 0.06423 0.0
C550 C 0.25812 0.14499 0.07992 0.0
C551 C 0.31014 0.15717 0.05647 0.0
C552 C 0.3917 0.13139 0.04339 0.0
H553 H 0.50373 0.16023 0.95241 0.0
H554 H 0.45887 0.16289 0.98562 0.0
H555 H 0.43142 0.11927 0.02082 0.0
H556 H 0.2802 0.12695 0.10155 0.0
H557 H 0.3513 0.12851 0.0878 0.0
H558 H 0.39347 0.16914 0.05191 0.0
C559 C 0.47841 0.1531 0.98464 0.0
C560 C 0.4246 0.13017 0.02803 0.0
C561 C 0.5039 0.1515 0.96541 0.0
C562 C 0.28843 0.13561 0.08927 0.0
C563 C 0.32894 0.13648 0.08139 0.0
C564 C 0.40218 0.15818 0.04556 0.0
C565 C 0.47674 0.14191 0.00171 0.0
C566 C 0.44618 0.14298 0.0208 0.0
C567 C 0.33976 0.14686 0.06419 0.0
C568 C 0.37934 0.14546 0.05172 0.0
H569 H 0.54582 0.11752 0.97829 0.0
H570 H 0.50206 0.12048 0.01224 0.0
H571 H 0.45204 0.167 0.02564 0.0
H572 H 0.24657 0.16348 0.05666 0.0
H573 H 0.31752 0.16521 0.04308 0.0
C574 C 0.00663 0.88545 0.94949 0.0
C575 C 0.00157 0.87432 0.9326 0.0
C576 C 0.03683 0.88397 0.96651 0.0
C577 C 0.10398 0.85542 0.99424 0.0
H578 H 0.16214 0.89037 0.01676 0.0
C579 C 0.25526 0.85439 0.04753 0.0
C580 C 0.25829 0.86479 0.06562 0.0
C581 C 0.2206 0.85429 0.03324 0.0
C582 C 0.14576 0.88053 0.01082 0.0
H583 H 0.02516 0.85318 0.91973 0.0
H584 H 0.07881 0.85089 0.94876 0.0
H585 H 0.11012 0.89327 0.98689 0.0
H586 H 0.22675 0.88239 0.08425 0.0
H587 H 0.16629 0.88235 0.05913 0.0
H588 H 0.14108 0.84268 0.01775 0.0
C589 C 0.05863 0.86052 0.94944 0.0
C590 C 0.11588 0.88218 0.99373 0.0
C591 C 0.0281 0.8619 0.93263 0.0
C592 C 0.22514 0.87439 0.0702 0.0
C593 C 0.19074 0.8744 0.05583 0.0
C594 C 0.13431 0.85375 0.01115 0.0
C595 C 0.06301 0.87142 0.9668 0.0
C596 C 0.09462 0.86965 0.98518 0.0
C597 C 0.18873 0.86467 0.0368 0.0
C598 C 0.15541 0.86631 0.0196 0.0
H599 H 0.98639 0.89508 0.95004 0.0
H600 H 0.0389 0.89249 0.97976 0.0
H601 H 0.08769 0.84554 0.9884 0.0
H602 H 0.28065 0.84696 0.04359 0.0
H603 H 0.21982 0.84672 0.01862 0.0
C604 C 0.76019 0.84999 0.43444 0.0
C605 C 0.7498 0.85881 0.41534 0.0
C606 C 0.80104 0.84894 0.44157 0.0
C607 C 0.89066 0.84557 0.45253 0.0
H608 H 0.94897 0.88337 0.45018 0.0
C609 C 0.03234 0.85467 0.50942 0.0
C610 C 0.03412 0.86858 0.52067 0.0
C611 C 0.00613 0.85255 0.49059 0.0
C612 C 0.93309 0.87274 0.45111 0.0
H613 H 0.77323 0.87273 0.38777 0.0
H614 H 0.84521 0.87035 0.39944 0.0
H615 H 0.88575 0.88041 0.42858 0.0
H616 H 0.01143 0.89137 0.52052 0.0
H617 H 0.96415 0.88755 0.48862 0.0
H618 H 0.93569 0.83839 0.47682 0.0
C619 C 0.82193 0.86459 0.40943 0.0
C620 C 0.89705 0.87092 0.43832 0.0
C621 C 0.78089 0.86585 0.40257 0.0
C622 C 0.01072 0.88053 0.51211 0.0
C623 C 0.9838 0.87833 0.49363 0.0
C624 C 0.92619 0.8475 0.46572 0.0
C625 C 0.83239 0.85657 0.42954 0.0
C626 C 0.87454 0.85748 0.43951 0.0
C627 C 0.98035 0.8642 0.48298 0.0
C628 C 0.94711 0.8613 0.46582 0.0
H629 H 0.73642 0.84466 0.44468 0.0
H630 H 0.80749 0.84288 0.45736 0.0
H631 H 0.87487 0.83491 0.45339 0.0
H632 H 0.05061 0.84532 0.51547 0.0
H633 H 0.00528 0.84164 0.48246 0.0
C634 C 0.71774 0.13524 0.41824 0.0
C635 C 0.7555 0.14134 0.42501 0.0
C636 C 0.68345 0.13648 0.43264 0.0
C637 C 0.62615 0.13045 0.47229 0.0
H638 H 0.61029 0.16326 0.51519 0.0
C639 C 0.5149 0.12505 0.54898 0.0
C640 C 0.49254 0.13775 0.55576 0.0
C641 C 0.54648 0.12626 0.53273 0.0
C642 C 0.61383 0.15408 0.50315 0.0
H643 H 0.78767 0.1537 0.45152 0.0
H644 H 0.72839 0.15543 0.47726 0.0
H645 H 0.66347 0.16504 0.48582 0.0
H646 H 0.48557 0.16168 0.55078 0.0
H647 H 0.53946 0.16372 0.52183 0.0
H648 H 0.57543 0.11976 0.48888 0.0
C649 C 0.72443 0.15011 0.4606 0.0
C650 C 0.64482 0.15501 0.48647 0.0
C651 C 0.75848 0.1491 0.44596 0.0
C652 C 0.50254 0.1517 0.54607 0.0
C653 C 0.53363 0.15287 0.52951 0.0
C654 C 0.59476 0.12963 0.48869 0.0
C655 C 0.68665 0.14353 0.45435 0.0
C656 C 0.65174 0.14313 0.471 0.0
C657 C 0.55592 0.14016 0.52254 0.0
C658 C 0.58853 0.14133 0.50457 0.0
H659 H 0.71506 0.12919 0.40207 0.0
H660 H 0.6547 0.13161 0.42694 0.0
H661 H 0.63082 0.12095 0.46099 0.0
H662 H 0.50806 0.11416 0.55628 0.0
H663 H 0.56357 0.11627 0.52824 0.0
C664 C 0.72861 0.87514 0.92647 0.0
C665 C 0.76227 0.86555 0.92969 0.0
C666 C 0.69503 0.87454 0.94142 0.0
C667 C 0.64033 0.85217 0.9845 0.0
H668 H 0.61497 0.89072 0.01189 0.0
C669 C 0.52727 0.85826 0.06117 0.0
C670 C 0.5015 0.87089 0.06127 0.0
C671 C 0.55918 0.85705 0.04507 0.0
C672 C 0.6211 0.87989 0.00419 0.0
H673 H 0.78653 0.84728 0.95018 0.0
H674 H 0.72702 0.84596 0.97611 0.0
H675 H 0.66811 0.88895 0.98245 0.0
H676 H 0.48871 0.89207 0.04441 0.0
H677 H 0.5433 0.88978 0.01602 0.0
H678 H 0.59268 0.84313 0.00587 0.0
C679 C 0.72681 0.85397 0.96205 0.0
C680 C 0.65165 0.87889 0.98736 0.0
C681 C 0.7607 0.85468 0.94719 0.0
C682 C 0.50832 0.88228 0.04499 0.0
C683 C 0.5398 0.88098 0.02874 0.0
C684 C 0.60925 0.85319 0.00116 0.0
C685 C 0.69433 0.86422 0.95971 0.0
C686 C 0.66146 0.86505 0.97732 0.0
C687 C 0.56569 0.86837 0.02857 0.0
C688 C 0.5992 0.86709 0.01117 0.0
H689 H 0.72901 0.88349 0.9129 0.0
H690 H 0.67006 0.88242 0.93907 0.0
H691 H 0.64735 0.84137 0.97694 0.0
H692 H 0.52287 0.84931 0.07356 0.0
H693 H 0.5789 0.84729 0.0457 0.0
C694 C 0.78415 0.13296 0.90381 0.0
C695 C 0.75447 0.14303 0.91207 0.0
C696 C 0.82458 0.13369 0.91181 0.0
C697 C 0.89914 0.15652 0.94502 0.0
H698 H 0.9317 0.11826 0.97078 0.0
C699 C 0.00778 0.15145 0.02262 0.0
C700 C 0.03251 0.13866 0.02512 0.0
C701 C 0.98081 0.15277 0.00399 0.0
C702 C 0.92386 0.12898 0.96326 0.0
H703 H 0.74396 0.16229 0.93403 0.0
H704 H 0.81476 0.16372 0.94784 0.0
H705 H 0.87219 0.11963 0.94562 0.0
H706 H 0.05012 0.11761 0.00924 0.0
H707 H 0.00367 0.12007 0.97639 0.0
H708 H 0.95037 0.16593 0.96312 0.0
C709 C 0.80695 0.15531 0.93509 0.0
C710 C 0.8896 0.12976 0.94882 0.0
C711 C 0.76643 0.15452 0.92718 0.0
C712 C 0.03107 0.12752 0.00798 0.0
C713 C 0.00435 0.12892 0.98918 0.0
C714 C 0.93373 0.15572 0.9593 0.0
C715 C 0.83604 0.14457 0.92812 0.0
C716 C 0.8762 0.14359 0.94009 0.0
C717 C 0.97819 0.1414 0.98725 0.0
C718 C 0.94574 0.142 0.96918 0.0
H719 H 0.77558 0.12409 0.89198 0.0
H720 H 0.8465 0.12538 0.90596 0.0
H721 H 0.8897 0.16731 0.9383 0.0
H722 H 0.00811 0.16025 0.03551 0.0
H723 H 0.96075 0.16244 0.00333 0.0
C724 C 0.01996 0.14608 0.42671 0.0
C725 C 0.99442 0.1334 0.42797 0.0
C726 C 0.05047 0.14848 0.44325 0.0
C727 C 0.07768 0.13965 0.50298 0.0
H728 H 0.18875 0.14974 0.48422 0.0
C729 C 0.21656 0.13543 0.56414 0.0
C730 C 0.25045 0.14484 0.5605 0.0
C731 C 0.18255 0.13611 0.54949 0.0
C732 C 0.15772 0.14727 0.48984 0.0
H733 H 0.98119 0.11321 0.44745 0.0
H734 H 0.03452 0.11748 0.47645 0.0
H735 H 0.1358 0.14628 0.45499 0.0
H736 H 0.27448 0.16309 0.53993 0.0
H737 H 0.21426 0.16479 0.51484 0.0
H738 H 0.09938 0.14071 0.53784 0.0
C739 C 0.0307 0.12556 0.46266 0.0
C740 C 0.12748 0.14518 0.47304 0.0
C741 C 0.00047 0.12305 0.44594 0.0
C742 C 0.24861 0.15573 0.54309 0.0
C743 C 0.21439 0.15654 0.52854 0.0
C744 C 0.10782 0.14191 0.51982 0.0
C745 C 0.05577 0.13835 0.46154 0.0
C746 C 0.08735 0.14114 0.47943 0.0
C747 C 0.18159 0.14637 0.53106 0.0
C748 C 0.14839 0.14552 0.51345 0.0
H749 H 0.01609 0.15427 0.41307 0.0
H750 H 0.06931 0.15846 0.44204 0.0
H751 H 0.04676 0.13678 0.50837 0.0
H752 H 0.2173 0.12701 0.57761 0.0
H753 H 0.15811 0.12803 0.5519 0.0
C754 C 0.28209 0.87234 0.59246 0.0
C755 C 0.25298 0.86265 0.58262 0.0
C756 C 0.32334 0.87151 0.58584 0.0
C757 C 0.40046 0.84931 0.55354 0.0
H758 H 0.43078 0.88762 0.52702 0.0
C759 C 0.5039 0.85405 0.47412 0.0
C760 C 0.52781 0.86693 0.47043 0.0
C761 C 0.47857 0.85289 0.49348 0.0
C762 C 0.42367 0.8769 0.53479 0.0
H763 H 0.24426 0.84373 0.55974 0.0
H764 H 0.31644 0.84205 0.5485 0.0
H765 H 0.37182 0.88602 0.5526 0.0
H766 H 0.54557 0.88838 0.48489 0.0
H767 H 0.50191 0.88622 0.51906 0.0
H768 H 0.45175 0.84011 0.53526 0.0
C769 C 0.30754 0.8503 0.56129 0.0
C770 C 0.38972 0.87599 0.54948 0.0
C771 C 0.26622 0.85124 0.56773 0.0
C772 C 0.52712 0.87839 0.48709 0.0
C773 C 0.50202 0.87715 0.50665 0.0
C774 C 0.4348 0.85025 0.53907 0.0
C775 C 0.33611 0.86084 0.56951 0.0
C776 C 0.37689 0.8621 0.55829 0.0
C777 C 0.47678 0.86451 0.50984 0.0
C778 C 0.44579 0.86396 0.52875 0.0
H779 H 0.27248 0.88114 0.60415 0.0
H780 H 0.34484 0.87968 0.59258 0.0
H781 H 0.39142 0.83849 0.56032 0.0
H782 H 0.50363 0.845 0.46165 0.0
H783 H 0.45907 0.84311 0.49503 0.0
C784 C 0.8008 0.63578 0.08162 0.0
C785 C 0.76807 0.6457 0.07776 0.0
C786 C 0.83745 0.63725 0.06922 0.0
C787 C 0.87235 0.65297 0.01359 0.0
H788 H 0.97915 0.63891 0.03399 0.0
C789 C 0.01387 0.6548 0.95451 0.0
C790 C 0.035 0.64115 0.95211 0.0
C791 C 0.98487 0.65672 0.97202 0.0
C792 C 0.94943 0.64285 0.02813 0.0
H793 H 0.74899 0.6656 0.05923 0.0
H794 H 0.8137 0.6688 0.0388 0.0
H795 H 0.9228 0.64097 0.06186 0.0
H796 H 0.04327 0.61899 0.96676 0.0
H797 H 0.99247 0.62244 -0.00245 0.0
H798 H 0.89901 0.6549 0.97995 0.0
C799 C 0.81068 0.6595 0.05068 0.0
C800 C 0.91714 0.64401 0.04403 0.0
C801 C 0.77378 0.65785 0.06273 0.0
C802 C 0.02734 0.62961 0.96807 0.0
C803 C -0.00145 0.6316 0.98578 0.0
C804 C 0.90467 0.65201 -0.00214 0.0
C805 C 0.84229 0.64884 0.05298 0.0
C806 C 0.87801 0.64892 0.03688 0.0
C807 C 0.97663 0.6451 0.98765 0.0
C808 C 0.94335 0.64678 0.00489 0.0
H809 H 0.79719 0.6264 0.0933 0.0
H810 H 0.8609 0.62877 0.07143 0.0
H811 H 0.84252 0.65641 0.00722 0.0
H812 H 0.01909 0.66395 0.94259 0.0
H813 H 0.96858 0.66727 0.97321 0.0
C814 C 0.72987 0.35743 0.04996 0.0
C815 C 0.73081 0.35983 0.07385 0.0
C816 C 0.69237 0.35586 0.03857 0.0
C817 C 0.61023 0.34667 0.0193 0.0
H818 H 0.52517 0.37541 0.03476 0.0
C819 C 0.463 0.35058 0.96528 0.0
C820 C 0.45152 0.36516 0.95878 0.0
C821 C 0.49176 0.34831 0.98281 0.0
C822 C 0.54862 0.36731 0.03026 0.0
H823 H 0.69449 0.36219 0.10492 0.0
H824 H 0.62826 0.35918 0.08506 0.0
H825 H 0.58699 0.37393 0.05848 0.0
H826 H 0.45979 0.38876 0.96634 0.0
H827 H 0.51069 0.38481 -0.00345 0.0
H828 H 0.57317 0.34064 0.99033 0.0
C829 C 0.65638 0.35867 0.07505 0.0
C830 C 0.58381 0.36633 0.04401 0.0
C831 C 0.69405 0.36029 0.08643 0.0
C832 C 0.46805 0.37739 0.97089 0.0
C833 C 0.49703 0.37511 0.98834 0.0
C834 C 0.57519 0.34769 0.00551 0.0
C835 C 0.65515 0.35663 0.05094 0.0
C836 C 0.61546 0.35626 0.03833 0.0
C837 C 0.50987 0.36056 0.99415 0.0
C838 C 0.54441 0.35826 0.01052 0.0
H839 H 0.75814 0.3572 0.04004 0.0
H840 H 0.69255 0.3546 0.01996 0.0
H841 H 0.63378 0.33864 0.01467 0.0
H842 H 0.45044 0.3409 0.95651 0.0
H843 H 0.50042 0.33695 0.98717 0.0
C844 C 0.26769 0.34931 0.4486 0.0
C845 C 0.27001 0.35574 0.42658 0.0
C846 C 0.30239 0.34882 0.46272 0.0
C847 C 0.38244 0.34479 0.488 0.0
H848 H 0.45109 0.38026 0.48646 0.0
C849 C 0.51983 0.35187 0.54978 0.0
C850 C 0.52784 0.36628 0.55842 0.0
C851 C 0.49104 0.34974 0.53223 0.0
C852 C 0.43199 0.37034 0.4873 0.0
H853 H 0.30993 0.36604 0.40131 0.0
H854 H 0.3715 0.36463 0.42556 0.0
H855 H 0.39652 0.37736 0.45824 0.0
H856 H 0.5116 0.38974 0.55569 0.0
H857 H 0.45993 0.38598 0.52576 0.0
H858 H 0.41609 0.33825 0.51798 0.0
C859 C 0.34276 0.36032 0.43228 0.0
C860 C 0.40112 0.36853 0.47078 0.0
C861 C 0.30781 0.36099 0.41829 0.0
C862 C 0.50617 0.37851 0.54931 0.0
C863 C 0.47683 0.37635 0.53199 0.0
C864 C 0.41288 0.34672 0.50472 0.0
C865 C 0.34019 0.35463 0.45494 0.0
C866 C 0.3756 0.35581 0.47109 0.0
C867 C 0.46905 0.36194 0.52315 0.0
C868 C 0.43777 0.3596 0.50475 0.0
H869 H 0.23851 0.34539 0.45535 0.0
H870 H 0.29893 0.34458 0.48014 0.0
H871 H 0.36384 0.33475 0.48857 0.0
H872 H 0.53642 0.34223 0.55625 0.0
H873 H 0.48652 0.33853 0.52559 0.0
C874 C 0.21483 0.6568 0.43809 0.0
C875 C 0.21467 0.64911 0.41702 0.0
C876 C 0.17861 0.65826 0.45081 0.0
C877 C 0.09636 0.66341 0.4733 0.0
H878 H 0.02929 0.62754 0.47432 0.0
C879 C 0.96004 0.65714 0.53632 0.0
C880 C 0.95429 0.64297 0.54638 0.0
C881 C 0.98757 0.65903 0.51805 0.0
C882 C 0.04785 0.6376 0.47439 0.0
H883 H 0.17709 0.63771 0.39174 0.0
H884 H 0.11301 0.64078 0.41346 0.0
H885 H 0.08493 0.6296 0.44661 0.0
H886 H 0.973 0.6197 0.54529 0.0
H887 H 0.02237 0.62308 0.51412 0.0
H888 H 0.06118 0.67093 0.50221 0.0
C889 C 0.14115 0.64532 0.4206 0.0
C890 C 0.07936 0.63893 0.45815 0.0
C891 C 0.17757 0.64368 0.40805 0.0
C892 C 0.97667 0.63074 0.53783 0.0
C893 C 0.0047 0.63267 0.51979 0.0
C894 C 0.06523 0.66199 0.48978 0.0
C895 C 0.14148 0.65218 0.44252 0.0
C896 C 0.10459 0.65172 0.4577 0.0
C897 C 0.01045 0.64684 0.50963 0.0
C898 C 0.04113 0.64893 0.49083 0.0
H899 H 0.2434 0.66092 0.44533 0.0
H900 H 0.18035 0.66341 0.46773 0.0
H901 H 0.11466 0.67354 0.47319 0.0
H902 H 0.94281 0.66676 0.54235 0.0
H903 H 0.99062 0.67004 0.51042 0.0
C904 C 0.19155 0.37371 0.91001 0.0
C905 C 0.22209 0.36333 0.91604 0.0
C906 C 0.15304 0.37322 0.92066 0.0
C907 C 0.08408 0.35064 0.95758 0.0
H908 H 0.06001 0.38866 0.98698 0.0
C909 C 0.98399 0.35491 0.03908 0.0
C910 C 0.95949 0.36767 0.0425 0.0
C911 C 0.01064 0.35402 0.02023 0.0
C912 C 0.06553 0.37803 0.97856 0.0
H913 H 0.23582 0.34377 0.93675 0.0
H914 H 0.16826 0.3427 0.95503 0.0
H915 H 0.11465 0.38715 0.95844 0.0
H916 H 0.94286 0.38935 0.02844 0.0
H917 H 0.98874 0.38766 0.99521 0.0
H918 H 0.0353 0.34145 0.97795 0.0
C919 C 0.17395 0.35119 0.94205 0.0
C920 C 0.09693 0.37717 0.96218 0.0
C921 C 0.21259 0.35177 0.93155 0.0
C922 C 0.96168 0.37943 0.02642 0.0
C923 C 0.98805 0.37847 0.0074 0.0
C924 C 0.05232 0.35152 0.97381 0.0
C925 C 0.14439 0.36225 0.93735 0.0
C926 C 0.10714 0.3634 0.95194 0.0
C927 C 0.01313 0.3658 0.00418 0.0
C928 C 0.04339 0.36516 0.98494 0.0
H929 H 0.19822 0.38267 0.89795 0.0
H930 H 0.13062 0.38178 0.91655 0.0
H931 H 0.09115 0.33992 0.94978 0.0
H932 H 0.98315 0.34567 0.05119 0.0
H933 H 0.03006 0.34423 0.01861 0.0
C934 C 0.30044 0.63286 0.91275 0.0
C935 C 0.26971 0.64321 0.91862 0.0
C936 C 0.3387 0.63336 0.92365 0.0
C937 C 0.40697 0.65632 0.9604 0.0
H938 H 0.43592 0.61819 0.98793 0.0
C939 C 0.51325 0.65153 0.03953 0.0
C940 C 0.53841 0.63884 0.04181 0.0
C941 C 0.48551 0.65267 0.02121 0.0
C942 C 0.42899 0.62887 0.98002 0.0
H943 H 0.25515 0.66256 0.93964 0.0
H944 H 0.32224 0.66361 0.95846 0.0
H945 H 0.37933 0.6195 0.96065 0.0
H946 H 0.55554 0.61768 0.02611 0.0
H947 H 0.50787 0.61983 0.99383 0.0
H948 H 0.45636 0.66575 0.98003 0.0
C949 C 0.31693 0.65517 0.94534 0.0
C950 C 0.39645 0.62962 0.96437 0.0
C951 C 0.27857 0.6546 0.93455 0.0
C952 C 0.53619 0.62752 0.02499 0.0
C953 C 0.50876 0.62874 0.00653 0.0
C954 C 0.43983 0.65557 0.97592 0.0
C955 C 0.3469 0.64428 0.9405 0.0
C956 C 0.38461 0.64338 0.95476 0.0
C957 C 0.4826 0.64121 0.00461 0.0
C958 C 0.45067 0.64187 0.98628 0.0
H959 H 0.29431 0.62404 0.90037 0.0
H960 H 0.36143 0.62493 0.91942 0.0
H961 H 0.39866 0.66706 0.95306 0.0
H962 H 0.51415 0.66044 0.05223 0.0
H963 H 0.46542 0.66233 0.02052 0.0
C964 C 0.46934 0.65416 0.44388 0.0
C965 C 0.45148 0.64005 0.43987 0.0
C966 C 0.4998 0.65592 0.46061 0.0
C967 C 0.54679 0.63806 0.51186 0.0
H968 H 0.64205 0.66157 0.4942 0.0
C969 C 0.72651 0.64393 0.53889 0.0
C970 C 0.72339 0.64498 0.56297 0.0
C971 C 0.69147 0.64502 0.52517 0.0
C972 C 0.61564 0.65499 0.49939 0.0
H973 H 0.45112 0.61679 0.45065 0.0
H974 H 0.505 0.61984 0.47962 0.0
H975 H 0.58393 0.65965 0.4679 0.0
H976 H 0.68226 0.64836 0.59186 0.0
H977 H 0.62024 0.65034 0.56775 0.0
H978 H 0.5794 0.63296 0.54304 0.0
C979 C 0.49494 0.62956 0.47 0.0
C980 C 0.58216 0.654 0.48443 0.0
C981 C 0.46431 0.6278 0.45327 0.0
C982 C 0.68501 0.64752 0.57325 0.0
C983 C 0.64974 0.64855 0.5595 0.0
C984 C 0.58034 0.63907 0.52687 0.0
C985 C 0.51327 0.64362 0.47368 0.0
C986 C 0.5476 0.64536 0.49034 0.0
C987 C 0.65263 0.64718 0.53532 0.0
C988 C 0.61538 0.64734 0.5206 0.0
H989 H 0.45991 0.66389 0.43406 0.0
H990 H 0.51285 0.66694 0.46329 0.0
H991 H 0.52038 0.63147 0.51701 0.0
H992 H 0.75603 0.64193 0.53074 0.0
H993 H 0.69464 0.64372 0.50664 0.0
C994 C 0.02511 0.34758 0.4588 0.0
C995 C 0.03956 0.36182 0.45236 0.0
C996 C 0.99563 0.34606 0.47614 0.0
C997 C 0.94383 0.36592 0.5242 0.0
H998 H 0.8527 0.33974 0.50878 0.0
C999 C 0.76302 0.36001 0.54754 0.0
C1000 C 0.76402 0.36073 0.57169 0.0
C1001 C 0.79932 0.35814 0.53508 0.0
C1002 C 0.878 0.34705 0.51336 0.0
H1003 H 0.03548 0.38559 0.45972 0.0
H1004 H 0.98327 0.38294 0.48973 0.0
H1005 H 0.91236 0.3408 0.48343 0.0
H1006 H 0.80255 0.35978 0.60209 0.0
H1007 H 0.86677 0.35648 0.58021 0.0
H1008 H 0.9084 0.37263 0.55366 0.0
C1009 C 0.99519 0.37294 0.48153 0.0
C1010 C 0.91236 0.34756 0.49898 0.0
C1011 C 0.02486 0.37447 0.4642 0.0
C1012 C 0.80147 0.35922 0.58339 0.0
C1013 C 0.83798 0.35742 0.57091 0.0
C1014 C 0.9094 0.36539 0.53865 0.0
C1015 C 0.97978 0.35873 0.48739 0.0
C1016 C 0.9453 0.35721 0.50399 0.0
C1017 C 0.83724 0.35701 0.54661 0.0
C1018 C 0.87578 0.35619 0.53306 0.0
H1019 H 0.03618 0.33757 0.45026 0.0
H1020 H 0.98487 0.33494 0.48055 0.0
H1021 H 0.96898 0.37334 0.52864 0.0
H1022 H 0.73422 0.36125 0.53832 0.0
H1023 H 0.79783 0.35808 0.51638 0.0
C1024 C 0.21294 0.05686 0.05714 0.0
C1025 C 0.17926 0.06102 0.07083 0.0
C1026 C 0.2334 0.0434 0.06112 0.0
C1027 C 0.24565 0.01218 0.10339 0.0
H1028 H 0.28662 0.99165 0.04897 0.0
C1029 C 0.30777 0.95052 0.09935 0.0
C1030 C 0.34617 0.94902 0.08832 0.0
C1031 C 0.28737 0.96433 0.0996 0.0
C1032 C 0.27548 0.9973 0.06432 0.0
H1033 H 0.14035 0.05444 0.09945 0.0
H1034 H 0.17523 0.03054 0.10602 0.0
H1035 H 0.25027 0.01523 0.04463 0.0
H1036 H 0.3933 0.96102 0.06925 0.0
H1037 H 0.35718 0.98488 0.0692 0.0
H1038 H 0.27008 0.99371 0.12286 0.0
C1039 C 0.1867 0.03788 0.0926 0.0
C1040 C 0.25487 0.01088 0.0619 0.0
C1041 C 0.16663 0.05155 0.08884 0.0
C1042 C 0.36378 0.96171 0.07786 0.0
C1043 C 0.34317 0.9754 0.07782 0.0
C1044 C 0.26578 0.99839 0.10576 0.0
C1045 C 0.22005 0.03354 0.07855 0.0
C1046 C 0.2403 0.01867 0.0814 0.0
C1047 C 0.30456 0.97679 0.08841 0.0
C1048 C 0.28141 0.99098 0.08624 0.0
H1049 H 0.22355 0.06407 0.04329 0.0
H1050 H 0.25967 0.04072 0.05038 0.0
H1051 H 0.23516 0.01787 0.11882 0.0
H1052 H 0.29238 0.94098 0.10685 0.0
H1053 H 0.25733 0.96511 0.10762 0.0
C1054 C 0.64482 0.95834 0.4162 0.0
C1055 C 0.66378 0.94447 0.41219 0.0
C1056 C 0.66523 0.97166 0.41082 0.0
C1057 C 0.76805 0.98698 0.40814 0.0
H1058 H 0.71779 0.02048 0.37627 0.0
C1059 C 0.85698 0.042 0.39614 0.0
C1060 C 0.83487 0.05539 0.39841 0.0
C1061 C 0.83637 0.02834 0.3942 0.0
C1062 C 0.73217 0.01131 0.38544 0.0
H1063 H 0.71911 0.93357 0.3999 0.0
H1064 H 0.75503 0.95689 0.39062 0.0
H1065 H 0.68059 0.9968 0.37953 0.0
H1066 H 0.7741 0.06511 0.40079 0.0
H1067 H 0.73786 0.04126 0.39818 0.0
H1068 H 0.81861 1.00147 0.41522 0.0
C1069 C 0.72407 0.95744 0.3975 0.0
C1070 C 0.71091 0.99773 0.38715 0.0
C1071 C 0.70337 0.9441 0.40253 0.0
C1072 C 0.79177 0.05495 0.39846 0.0
C1073 C 0.77108 0.04125 0.39696 0.0
C1074 C 0.78902 1.0006 0.40677 0.0
C1075 C 0.70535 0.97134 0.40182 0.0
C1076 C 0.72861 0.98546 0.39861 0.0
C1077 C 0.79312 0.02771 0.39513 0.0
C1078 C 0.77134 0.013 0.39549 0.0
H1079 H 0.61442 0.95887 0.42384 0.0
H1080 H 0.65029 0.98223 0.41457 0.0
H1081 H 0.78214 0.97778 0.4174 0.0
H1082 H 0.8903 0.04211 0.39604 0.0
H1083 H 0.85449 0.01825 0.39226 0.0
C1084 C 0.69811 0.05854 0.8982 0.0
C1085 C 0.6575 0.05891 0.90635 0.0
C1086 C 0.71739 0.04484 0.89363 0.0
C1087 C 0.70882 0.00448 0.90881 0.0
H1088 H 0.79453 1.00016 0.86267 0.0
C1089 C 0.79191 0.94826 0.89312 0.0
C1090 C 0.83498 0.94921 0.89412 0.0
C1091 C 0.76807 0.96125 0.89133 0.0
C1092 C 0.77059 1.00122 0.8756 0.0
H1093 H 0.60464 0.04543 0.91545 0.0
H1094 H 0.63735 0.02157 0.90652 0.0
H1095 H 0.75602 0.02358 0.86517 0.0
H1096 H 0.88696 0.96436 0.89353 0.0
H1097 H 0.84537 0.98705 0.88996 0.0
H1098 H 0.72335 0.98207 0.91908 0.0
C1099 C 0.65501 0.03174 0.90427 0.0
C1100 C 0.74865 0.01467 0.87715 0.0
C1101 C 0.63606 0.04541 0.9092 0.0
C1102 C 0.8538 0.96333 0.89264 0.0
C1103 C 0.83003 0.97629 0.89049 0.0
C1104 C 0.73033 0.99099 0.90702 0.0
C1105 C 0.69628 0.03122 0.89692 0.0
C1106 C 0.71782 0.01657 0.89401 0.0
C1107 C 0.7869 0.97541 0.89026 0.0
C1108 C 0.76182 0.98929 0.89062 0.0
H1109 H 0.71571 0.06877 0.89648 0.0
H1110 H 0.74938 0.04495 0.88845 0.0
H1111 H 0.68603 0.00554 0.92236 0.0
H1112 H 0.77652 0.93758 0.89484 0.0
H1113 H 0.73487 0.96026 0.8912 0.0
C1114 C 0.15525 0.96018 0.55545 0.0
C1115 C 0.16303 0.94833 0.57084 0.0
C1116 C 0.17406 0.97407 0.55845 0.0
C1117 C 0.22349 0.99936 0.59913 0.0
H1118 H 0.28184 0.0137 0.54503 0.0
C1119 C 0.32592 0.05295 0.59978 0.0
C1120 C 0.32729 0.06138 0.57932 0.0
C1121 C 0.30481 0.03926 0.60038 0.0
C1122 C 0.26515 0.01005 0.56022 0.0
H1123 H 0.19746 0.942 0.60149 0.0
H1124 H 0.22894 0.96652 0.60719 0.0
H1125 H 0.246 0.98987 0.54348 0.0
H1126 H 0.3063 0.06261 0.54388 0.0
H1127 H 0.26813 0.03925 0.54511 0.0
H1128 H 0.24164 0.01978 0.6157 0.0
C1129 C 0.20787 0.96493 0.5929 0.0
C1130 C 0.24485 0.99632 0.55933 0.0
C1131 C 0.18942 0.95089 0.58972 0.0
C1132 C 0.30609 0.05622 0.5598 0.0
C1133 C 0.28449 0.04275 0.56049 0.0
C1134 C 0.24336 0.01328 0.59993 0.0
C1135 C 0.20096 0.97653 0.577 0.0
C1136 C 0.22354 0.99089 0.57867 0.0
C1137 C 0.28436 0.03387 0.58058 0.0
C1138 C 0.2641 0.01888 0.58037 0.0
H1139 H 0.13506 0.95866 0.54075 0.0
H1140 H 0.16798 0.98288 0.54604 0.0
H1141 H 0.20717 0.99539 0.61427 0.0
H1142 H 0.34249 0.05662 0.61499 0.0
H1143 H 0.30573 0.0327 0.6161 0.0
C1144 C 0.78136 0.44561 0.10344 0.0
C1145 C 0.82277 0.44512 0.09666 0.0
C1146 C 0.76198 0.45937 0.10723 0.0
C1147 C 0.7787 0.49941 0.11844 0.0
H1148 H 0.68198 0.50525 0.08041 0.0
C1149 C 0.71399 0.55821 0.09761 0.0
C1150 C 0.67189 0.55963 0.09292 0.0
C1151 C 0.73106 0.5441 0.1019 0.0
C1152 C 0.7083 0.50382 0.09163 0.0
H1153 H 0.87684 0.45841 0.08919 0.0
H1154 H 0.84322 0.48249 0.09632 0.0
H1155 H 0.71392 0.48074 0.08222 0.0
H1156 H 0.61413 0.54777 0.09009 0.0
H1157 H 0.64317 0.52329 0.0988 0.0
H1158 H 0.77302 0.52245 0.12805 0.0
C1159 C 0.82578 0.47227 0.09874 0.0
C1160 C 0.7267 0.48972 0.09255 0.0
C1161 C 0.84492 0.45854 0.09456 0.0
C1162 C 0.64679 0.54689 0.09354 0.0
C1163 C 0.6636 0.53285 0.09832 0.0
C1164 C 0.75985 0.51349 0.11786 0.0
C1165 C 0.78389 0.47283 0.10457 0.0
C1166 C 0.76239 0.48743 0.10568 0.0
C1167 C 0.70617 0.53117 0.10192 0.0
C1168 C 0.7247 0.51595 0.10415 0.0
H1169 H 0.76335 0.43545 0.10461 0.0
H1170 H 0.72961 0.45953 0.11165 0.0
H1171 H 0.80614 0.49789 0.12878 0.0
H1172 H 0.73403 0.56788 0.0968 0.0
H1173 H 0.76401 0.5433 0.10421 0.0
C1174 C 0.26861 0.55681 0.42731 0.0
C1175 C 0.29662 0.56211 0.41079 0.0
C1176 C 0.2527 0.54235 0.42574 0.0
C1177 C 0.24054 0.50953 0.38677 0.0
H1178 H 0.22818 0.48865 0.44513 0.0
C1179 C 0.20309 0.44573 0.39669 0.0
C1180 C 0.17263 0.44229 0.41315 0.0
C1181 C 0.21774 0.46041 0.3944 0.0
C1182 C 0.23119 0.49436 0.4287 0.0
H1183 H 0.33002 0.55645 0.37958 0.0
H1184 H 0.30272 0.53097 0.37698 0.0
H1185 H 0.2548 0.51404 0.44479 0.0
H1186 H 0.1334 0.45165 0.43983 0.0
H1187 H 0.15925 0.47708 0.43601 0.0
H1188 H 0.21748 0.48949 0.3708 0.0
C1189 C 0.29227 0.53814 0.39088 0.0
C1190 C 0.24628 0.50897 0.42849 0.0
C1191 C 0.30788 0.55274 0.39233 0.0
C1192 C 0.15696 0.45387 0.42703 0.0
C1193 C 0.17178 0.46845 0.42488 0.0
C1194 C 0.22573 0.49479 0.38699 0.0
C1195 C 0.26502 0.53268 0.40783 0.0
C1196 C 0.25053 0.51686 0.40758 0.0
C1197 C 0.2027 0.47185 0.40878 0.0
C1198 C 0.22032 0.48716 0.40802 0.0
H1199 H 0.25916 0.56384 0.44162 0.0
H1200 H 0.23097 0.53871 0.43877 0.0
H1201 H 0.24323 0.51529 0.37037 0.0
H1202 H 0.21693 0.43706 0.38624 0.0
H1203 H 0.24196 0.46271 0.38203 0.0
C1204 C 0.35093 0.45985 0.90819 0.0
C1205 C 0.32655 0.44693 0.90718 0.0
C1206 C 0.33388 0.4739 0.90367 0.0
C1207 C 0.23891 0.49301 0.88159 0.0
H1208 H 0.279 0.52548 0.91996 0.0
C1209 C 0.14837 0.54722 0.90266 0.0
C1210 C 0.17004 0.5608 0.90171 0.0
C1211 C 0.16873 0.53363 0.89921 0.0
C1212 C 0.26785 0.51658 0.90889 0.0
H1213 H 0.26527 0.43843 0.90089 0.0
H1214 H 0.23487 0.46295 0.8938 0.0
H1215 H 0.31201 0.50114 0.922 0.0
H1216 H 0.23 0.57086 0.89669 0.0
H1217 H 0.2658 0.54704 0.89091 0.0
H1218 H 0.19316 0.50848 0.86957 0.0
C1219 C 0.26756 0.46232 0.89717 0.0
C1220 C 0.28689 0.50259 0.90994 0.0
C1221 C 0.28491 0.44822 0.90124 0.0
C1222 C 0.21236 0.56058 0.89691 0.0
C1223 C 0.2329 0.54696 0.89387 0.0
C1224 C 0.21942 0.50697 0.88085 0.0
C1225 C 0.29169 0.4754 0.89867 0.0
C1226 C 0.27259 0.49054 0.89642 0.0
C1227 C 0.21135 0.53334 0.89528 0.0
C1228 C 0.23359 0.51886 0.89459 0.0
H1229 H 0.3832 0.45909 0.91268 0.0
H1230 H 0.35378 0.4836 0.90443 0.0
H1231 H 0.2274 0.48415 0.87059 0.0
H1232 H 0.11576 0.54712 0.90651 0.0
H1233 H 0.15146 0.52329 0.90064 0.0
C1234 C 0.78261 0.55988 0.59607 0.0
C1235 C 0.82454 0.56157 0.59102 0.0
C1236 C 0.76584 0.54561 0.59934 0.0
C1237 C 0.78771 0.50573 0.5856 0.0
H1238 H 0.69408 0.49854 0.62563 0.0
C1239 C 0.71777 0.44688 0.5982 0.0
C1240 C 0.67525 0.44615 0.59421 0.0
C1241 C 0.73726 0.46074 0.60075 0.0
C1242 C 0.72026 0.50042 0.6144 0.0
H1243 H 0.88215 0.5499 0.58608 0.0
H1244 H 0.85355 0.52505 0.5928 0.0
H1245 H 0.7266 0.5232 0.62526 0.0
H1246 H 0.6196 0.45917 0.59006 0.0
H1247 H 0.65354 0.48342 0.59497 0.0
H1248 H 0.78146 0.48288 0.57497 0.0
C1249 C 0.83313 0.53461 0.59359 0.0
C1250 C 0.73879 0.51456 0.61406 0.0
C1251 C 0.84966 0.54884 0.58993 0.0
C1252 C 0.65241 0.45947 0.59328 0.0
C1253 C 0.67175 0.4733 0.5962 0.0
C1254 C 0.76958 0.49156 0.58622 0.0
C1255 C 0.79079 0.53275 0.59783 0.0
C1256 C 0.77248 0.51746 0.59943 0.0
C1257 C 0.71447 0.47409 0.59959 0.0
C1258 C 0.73539 0.48882 0.6004 0.0
H1259 H 0.76238 0.5695 0.59637 0.0
H1260 H 0.73303 0.54467 0.60212 0.0
H1261 H 0.81293 0.50755 0.57371 0.0
H1262 H 0.73625 0.4368 0.59835 0.0
H1263 H 0.77025 0.46104 0.6033 0.0
C1264 C 0.91394 0.30009 0.14475 0.0
C1265 C 0.90764 0.30763 0.12371 0.0
C1266 C 0.93136 0.28576 0.14504 0.0
C1267 C 0.00029 0.26215 0.11081 0.0
H1268 H 0.95939 0.22943 0.14832 0.0
C1269 C 0.05895 0.20178 0.09966 0.0
C1270 C 0.06131 0.19243 0.11916 0.0
C1271 C 0.0419 0.21608 0.10137 0.0
C1272 C 0.97167 0.23851 0.13804 0.0
H1273 H 0.91297 0.30571 0.08641 0.0
H1274 H 0.94338 0.2808 0.08699 0.0
H1275 H 0.92409 0.25355 0.14905 0.0
H1276 H 0.04919 0.19106 0.15596 0.0
H1277 H 0.02043 0.2162 0.15907 0.0
H1278 H 0.04813 0.24732 0.09999 0.0
C1279 C 0.93526 0.28604 0.10326 0.0
C1280 C 0.95127 0.25231 0.13839 0.0
C1281 C 0.91755 0.30027 0.10295 0.0
C1282 C 0.04765 0.19795 0.14058 0.0
C1283 C 0.03082 0.21232 0.14232 0.0
C1284 C 0.02089 0.24844 0.11062 0.0
C1285 C 0.94312 0.27876 0.12431 0.0
C1286 C 0.9651 0.2642 0.12455 0.0
C1287 C 0.02709 0.22148 0.12265 0.0
C1288 C 0.0066 0.23637 0.12402 0.0
H1289 H 0.90659 0.30542 0.16105 0.0
H1290 H 0.93711 0.28041 0.16153 0.0
H1291 H 0.01214 0.27122 0.10031 0.0
H1292 H 0.06901 0.19788 0.08286 0.0
H1293 H 0.03909 0.2227 0.08577 0.0
C1294 C 0.43488 0.80355 0.10956 0.0
C1295 C 0.42748 0.81108 0.1305 0.0
C1296 C 0.45225 0.78923 0.10951 0.0
C1297 C 0.47193 0.75591 0.14552 0.0
H1298 H 0.56347 0.74969 0.1036 0.0
C1299 C 0.5705 0.70224 0.14945 0.0
C1300 C 0.58175 0.69575 0.12823 0.0
C1301 C 0.55331 0.71659 0.15021 0.0
C1302 C 0.53769 0.75115 0.11524 0.0
H1303 H 0.43065 0.80914 0.16783 0.0
H1304 H 0.46056 0.78409 0.16772 0.0
H1305 H 0.52726 0.77357 0.10355 0.0
H1306 H 0.58497 0.69948 0.09122 0.0
H1307 H 0.55449 0.72432 0.09248 0.0
H1308 H 0.48185 0.73344 0.157 0.0
C1309 C 0.45306 0.7893 0.15135 0.0
C1310 C 0.51691 0.76485 0.11519 0.0
C1311 C 0.436 0.80367 0.1514 0.0
C1312 C 0.57679 0.70415 0.10788 0.0
C1313 C 0.55939 0.71845 0.10862 0.0
C1314 C 0.49251 0.74216 0.14546 0.0
C1315 C 0.46225 0.78206 0.13039 0.0
C1316 C 0.48376 0.76738 0.13029 0.0
C1317 C 0.54678 0.72477 0.12975 0.0
C1318 C 0.52566 0.73958 0.13029 0.0
H1319 H 0.42864 0.8089 0.09314 0.0
H1320 H 0.45837 0.78383 0.0931 0.0
H1321 H 0.44628 0.75748 0.15723 0.0
H1322 H 0.57409 0.69611 0.16547 0.0
H1323 H 0.54479 0.72121 0.16684 0.0
C1324 C 0.55687 0.80419 0.35496 0.0
C1325 C 0.55907 0.81075 0.37702 0.0
C1326 C 0.53881 0.79009 0.35201 0.0
C1327 C 0.4619 0.76556 0.37821 0.0
H1328 H 0.51303 0.73387 0.34261 0.0
C1329 C 0.40165 0.70487 0.38002 0.0
C1330 C 0.40634 0.69589 0.36026 0.0
C1331 C 0.41806 0.71933 0.38067 0.0
C1332 C 0.49787 0.74267 0.35225 0.0
H1333 H 0.54504 0.80746 0.41336 0.0
H1334 H 0.51328 0.78298 0.40811 0.0
H1335 H 0.54772 0.75795 0.34648 0.0
H1336 H 0.42992 0.69534 0.32521 0.0
H1337 H 0.45726 0.72074 0.32602 0.0
H1338 H 0.41175 0.75051 0.38373 0.0
C1339 C 0.52537 0.78877 0.39312 0.0
C1340 C 0.51794 0.75644 0.35455 0.0
C1341 C 0.54386 0.80274 0.39612 0.0
C1342 C 0.42606 0.70194 0.34077 0.0
C1343 C 0.44209 0.71647 0.34132 0.0
C1344 C 0.44158 0.75188 0.37567 0.0
C1345 C 0.52213 0.78239 0.37101 0.0
C1346 C 0.50038 0.76795 0.3678 0.0
C1347 C 0.43915 0.72523 0.36147 0.0
C1348 C 0.4595 0.74017 0.36289 0.0
H1349 H 0.56834 0.81006 0.3399 0.0
H1350 H 0.53666 0.78543 0.33476 0.0
H1351 H 0.44733 0.77435 0.3882 0.0
H1352 H 0.38682 0.70053 0.3954 0.0
H1353 H 0.41557 0.72562 0.39661 0.0
C1354 C 0.08178 0.29678 0.38843 0.0
C1355 C 0.09445 0.30455 0.36851 0.0
C1356 C 0.06287 0.28278 0.38662 0.0
C1357 C 0.04843 0.25027 0.34854 0.0
H1358 H 0.94749 0.24473 0.38326 0.0
C1359 C 0.9501 0.19718 0.33698 0.0
C1360 C 0.93353 0.19073 0.35708 0.0
C1361 C 0.96731 0.21152 0.33757 0.0
C1362 C 0.97585 0.24599 0.37365 0.0
H1363 H 0.09887 0.30335 0.33114 0.0
H1364 H 0.06635 0.27877 0.32806 0.0
H1365 H 0.98503 0.26826 0.38637 0.0
H1366 H 0.92068 0.1945 0.39341 0.0
H1367 H 0.95142 0.21933 0.39459 0.0
H1368 H 0.03996 0.22793 0.3362 0.0
C1369 C 0.07088 0.28359 0.34505 0.0
C1370 C -0.00266 0.2595 0.37542 0.0
C1371 C 0.08947 0.29768 0.34682 0.0
C1372 C 0.93301 0.19917 0.37758 0.0
C1373 C 0.9506 0.21346 0.37823 0.0
C1374 C 0.02716 0.23671 0.34693 0.0
C1375 C 0.05657 0.27615 0.36489 0.0
C1376 C 0.03392 0.26177 0.36294 0.0
C1377 C 0.96874 0.2197 0.35833 0.0
C1378 C 0.99059 0.23437 0.35949 0.0
H1379 H 0.08518 0.30172 0.40543 0.0
H1380 H 0.05274 0.2772 0.40225 0.0
H1381 H 0.07672 0.25166 0.33888 0.0
H1382 H 0.95068 0.19101 0.32086 0.0
H1383 H 0.98004 0.21609 0.32178 0.0
C1384 C 0.94044 0.80475 0.84491 0.0
C1385 C 0.93209 0.81241 0.86561 0.0
C1386 C 0.95854 0.79055 0.84529 0.0
C1387 C 0.98163 0.7582 0.88355 0.0
H1388 H 0.06778 0.75049 0.83869 0.0
C1389 C 0.08607 0.7063 0.89013 0.0
C1390 C 0.09182 0.69811 0.86962 0.0
C1391 C 0.06842 0.72056 0.88956 0.0
C1392 C 0.0436 0.75243 0.85122 0.0
H1393 H 0.93486 0.81088 0.90301 0.0
H1394 H 0.96677 0.78624 0.90367 0.0
H1395 H 0.03084 0.77424 0.83775 0.0
H1396 H 0.08536 0.69883 0.83231 0.0
H1397 H 0.05475 0.72374 0.83134 0.0
H1398 H 0.99465 0.73643 0.89711 0.0
C1399 C 0.95901 0.79112 0.88711 0.0
C1400 C 0.02227 0.76602 0.85063 0.0
C1401 C 0.94077 0.80529 0.88673 0.0
C1402 C 0.08136 0.70482 0.84844 0.0
C1403 C 0.06388 0.71912 0.84787 0.0
C1404 C 0.00308 0.74465 0.88419 0.0
C1405 C 0.96883 0.78368 0.86639 0.0
C1406 C 0.99097 0.76908 0.86678 0.0
C1407 C 0.05632 0.72701 0.86847 0.0
C1408 C 0.03431 0.7416 0.86804 0.0
H1409 H 0.93395 0.80986 0.82833 0.0
H1410 H 0.96486 0.78502 0.82901 0.0
H1411 H 0.95734 0.76007 0.89603 0.0
H1412 H 0.09389 0.7015 0.90675 0.0
H1413 H 0.06368 0.72647 0.9057 0.0
C1414 C 0.55558 0.20175 0.85221 0.0
C1415 C 0.56443 0.19502 0.87359 0.0
C1416 C 0.53843 0.21611 0.85126 0.0
C1417 C 0.51816 0.25014 0.88697 0.0
H1418 H 0.43293 0.25737 0.84144 0.0
C1419 C 0.41261 0.30175 0.8918 0.0
C1420 C 0.40843 0.31007 0.8713 0.0
C1421 C 0.43046 0.28752 0.89145 0.0
C1422 C 0.45686 0.25554 0.85415 0.0
H1423 H 0.56315 0.19828 0.91074 0.0
H1424 H 0.53258 0.22306 0.90914 0.0
H1425 H 0.46867 0.23335 0.84192 0.0
H1426 H 0.41783 0.30959 0.83418 0.0
H1427 H 0.44847 0.28462 0.83357 0.0
H1428 H 0.50562 0.27223 0.89946 0.0
C1429 C 0.53949 0.21744 0.89302 0.0
C1430 C 0.47756 0.2418 0.85437 0.0
C1431 C 0.55694 0.20315 0.89396 0.0
C1432 C 0.42063 0.3035 0.85029 0.0
C1433 C 0.43814 0.28918 0.84992 0.0
C1434 C 0.49718 0.26379 0.88688 0.0
C1435 C 0.52943 0.22404 0.87168 0.0
C1436 C 0.50842 0.23889 0.87084 0.0
C1437 C 0.44415 0.2812 0.87057 0.0
C1438 C 0.46619 0.26663 0.87054 0.0
H1439 H 0.56115 0.19583 0.83617 0.0
H1440 H 0.53192 0.22094 0.83449 0.0
H1441 H 0.54224 0.24846 0.89962 0.0
H1442 H 0.4035 0.30644 0.9083 0.0
H1443 H 0.4341 0.28153 0.9076 0.0
C1444 C 0.43173 0.20387 0.60755 0.0
C1445 C 0.4209 0.19633 0.62799 0.0
C1446 C 0.45048 0.21795 0.60843 0.0
C1447 C 0.51034 0.24211 0.64835 0.0
H1448 H 0.49126 0.27228 0.60142 0.0
C1449 C 0.56997 0.30314 0.65459 0.0
C1450 C 0.58518 0.30977 0.63427 0.0
C1451 C 0.55206 0.28891 0.65403 0.0
C1452 C 0.49725 0.26389 0.6145 0.0
H1453 H 0.4193 0.19805 0.66537 0.0
H1454 H 0.45078 0.22279 0.6669 0.0
H1455 H 0.45252 0.24894 0.60032 0.0
H1456 H 0.59503 0.30634 0.59754 0.0
H1457 H 0.56369 0.2815 0.59659 0.0
H1458 H 0.55458 0.25727 0.66272 0.0
C1459 C 0.44596 0.21764 0.65017 0.0
C1460 C 0.47503 0.2505 0.61389 0.0
C1461 C 0.4275 0.2035 0.64929 0.0
C1462 C 0.58362 0.30157 0.61352 0.0
C1463 C 0.56534 0.2874 0.61292 0.0
C1464 C 0.5323 0.25557 0.64906 0.0
C1465 C 0.45855 0.22491 0.62978 0.0
C1466 C 0.48132 0.2394 0.63078 0.0
C1467 C 0.54866 0.28104 0.63308 0.0
C1468 C 0.52609 0.26659 0.63211 0.0
H1469 H 0.42728 0.19865 0.59083 0.0
H1470 H 0.46006 0.22309 0.59236 0.0
H1471 H 0.51669 0.23373 0.66138 0.0
H1472 H 0.57071 0.30914 0.67086 0.0
H1473 H 0.53935 0.28434 0.66983 0.0
C1474 C 0.8978 0.70823 0.64422 0.0
C1475 C 0.88918 0.70065 0.62349 0.0
C1476 C 0.91491 0.72261 0.64386 0.0
C1477 C 0.93658 0.75512 0.60519 0.0
H1478 H 0.02313 0.76322 0.64958 0.0
C1479 C 0.0468 0.8052 0.59522 0.0
C1480 C 0.05269 0.81413 0.61497 0.0
C1481 C 0.02716 0.79132 0.59691 0.0
C1482 C -0.00119 0.76116 0.63719 0.0
H1483 H 0.89033 0.7025 0.5861 0.0
H1484 H 0.92075 0.72733 0.58545 0.0
H1485 H 0.98566 0.73959 0.65142 0.0
H1486 H 0.04417 0.81514 0.65213 0.0
H1487 H 0.01036 0.79079 0.65507 0.0
H1488 H 0.95051 0.77659 0.59068 0.0
C1489 C 0.91381 0.72233 0.60205 0.0
C1490 C 0.97713 0.74765 0.6383 0.0
C1491 C 0.89644 0.70802 0.60241 0.0
C1492 C 0.04009 0.80855 0.63658 0.0
C1493 C 0.02078 0.79459 0.63828 0.0
C1494 C 0.95852 0.76856 0.60397 0.0
C1495 C 0.92405 0.72971 0.62275 0.0
C1496 C 0.94581 0.74441 0.62225 0.0
C1497 C 0.01332 0.78598 0.61839 0.0
C1498 C 0.99001 0.7717 0.61988 0.0
H1499 H 0.89237 0.70292 0.66077 0.0
H1500 H 0.92151 0.72806 0.66015 0.0
H1501 H 0.91222 0.75317 0.5928 0.0
H1502 H 0.05614 0.80912 0.5783 0.0
H1503 H 0.02241 0.78482 0.58133 0.0
C1504 C 0.00915 0.13043 0.14914 0.0
C1505 C 0.03459 0.11992 0.13811 0.0
C1506 C 0.98846 0.12674 0.16941 0.0
C1507 C 0.93447 0.11478 0.20727 0.0
H1508 H 0.00284 0.09871 0.25623 0.0
C1509 C 0.9129 0.13015 0.30191 0.0
C1510 C 0.91726 0.11913 0.31906 0.0
C1511 C 0.9207 0.12677 0.27882 0.0
C1512 C 0.98303 0.10288 0.24264 0.0
H1513 H 0.05739 0.09711 0.13936 0.0
H1514 H 0.02121 0.09067 0.17521 0.0
H1515 H 0.02823 0.09874 0.21648 0.0
H1516 H 0.93264 0.09585 0.32537 0.0
H1517 H 0.94719 0.09005 0.28477 0.0
H1518 H 0.89027 0.1197 0.23361 0.0
C1519 C 0.01743 0.10178 0.168 0.0
C1520 C -0.00248 0.10289 0.21988 0.0
C1521 C 0.03798 0.10545 0.14749 0.0
C1522 C 0.92906 0.10458 0.31254 0.0
C1523 C 0.93743 0.10125 0.28936 0.0
C1524 C 0.92009 0.11483 0.22998 0.0
C1525 C 0.99276 0.11245 0.17926 0.0
C1526 C 0.97405 0.1094 0.20214 0.0
C1527 C 0.93341 0.11235 0.27232 0.0
C1528 C 0.94492 0.10943 0.24799 0.0
H1529 H 0.00568 0.14165 0.14233 0.0
H1530 H 0.97027 0.1353 0.17785 0.0
H1531 H 0.91537 0.11959 0.19386 0.0
H1532 H 0.90367 0.14144 0.30632 0.0
H1533 H 0.91796 0.13562 0.2661 0.0
C1534 C 0.41957 0.87061 0.18692 0.0
C1535 C 0.42309 0.88218 0.17059 0.0
C1536 C 0.42585 0.87345 0.21033 0.0
C1537 C 0.48164 0.89783 0.24928 0.0
H1538 H 0.41301 0.87885 0.29565 0.0
C1539 C 0.52816 0.89632 0.34561 0.0
C1540 C 0.52637 0.88186 0.35516 0.0
C1541 C 0.50879 0.89941 0.32455 0.0
C1542 C 0.43239 0.88427 0.28292 0.0
H1543 H 0.43556 0.90587 0.16609 0.0
H1544 H 0.44731 0.91076 0.20721 0.0
H1545 H 0.39167 0.87858 0.25523 0.0
H1546 H 0.50138 0.85951 0.35063 0.0
H1547 H 0.46813 0.86485 0.31409 0.0
H1548 H 0.52343 0.90284 0.27677 0.0
C1549 C 0.43948 0.89952 0.20173 0.0
C1550 C 0.42016 0.88412 0.25982 0.0
C1551 C 0.43272 0.89671 0.17825 0.0
C1552 C 0.50352 0.87075 0.34373 0.0
C1553 C 0.48408 0.87386 0.32284 0.0
C1554 C 0.494 0.89792 0.27241 0.0
C1555 C 0.4361 0.8879 0.21796 0.0
C1556 C 0.44537 0.89043 0.24269 0.0
C1557 C 0.48701 0.88814 0.31281 0.0
C1558 C 0.4702 0.89066 0.28932 0.0
H1559 H 0.41197 0.85931 0.18165 0.0
H1560 H 0.42367 0.86423 0.22242 0.0
H1561 H 0.50173 0.90272 0.23639 0.0
H1562 H 0.54551 0.90512 0.35402 0.0
H1563 H 0.51136 0.91055 0.31727 0.0
C1564 C 0.9149 0.89496 0.81084 0.0
C1565 C 0.92747 0.88178 0.82207 0.0
C1566 C 0.92117 0.8967 0.78705 0.0
C1567 C 0.94385 0.87422 0.73447 0.0
H1568 H 0.97759 0.91224 0.70838 0.0
C1569 C 0.98799 0.87696 0.63947 0.0
C1570 C 0.02339 0.88526 0.63429 0.0
C1571 C 0.96785 0.87894 0.66053 0.0
C1572 C 0.96837 0.90151 0.71539 0.0
H1573 H 0.95781 0.86037 0.81743 0.0
H1574 H 0.97009 0.8636 0.77643 0.0
H1575 H 0.9612 0.91059 0.74941 0.0
H1576 H 0.06453 0.90265 0.64631 0.0
H1577 H 0.03105 0.90552 0.68371 0.0
H1578 H 0.95385 0.8648 0.70122 0.0
C1579 C 0.95398 0.87238 0.78563 0.0
C1580 C 0.95843 0.90062 0.73889 0.0
C1581 C 0.94724 0.87057 0.80922 0.0
C1582 C 0.03712 0.89616 0.64994 0.0
C1583 C 0.01769 0.89784 0.67134 0.0
C1584 C 0.95441 0.87505 0.71119 0.0
C1585 C 0.9405 0.88535 0.77413 0.0
C1586 C 0.94701 0.88686 0.74881 0.0
C1587 C 0.98358 0.88888 0.67723 0.0
C1588 C 0.96755 0.88863 0.70136 0.0
H1589 H 0.89941 0.90377 0.82032 0.0
H1590 H 0.91017 0.90679 0.77873 0.0
H1591 H 0.93413 0.86351 0.74135 0.0
H1592 H 0.97651 0.86864 0.62746 0.0
H1593 H 0.94085 0.87222 0.66404 0.0
C1594 C 0.53144 0.10954 0.83778 0.0
C1595 C 0.53099 0.12399 0.84742 0.0
C1596 C 0.51128 0.10668 0.81686 0.0
C1597 C 0.43336 0.12236 0.77685 0.0
H1598 H 0.49825 0.10357 0.72864 0.0
C1599 C 0.41351 0.13628 0.68143 0.0
C1600 C 0.41576 0.12481 0.66487 0.0
C1601 C 0.4213 0.13329 0.70465 0.0
C1602 C 0.47936 0.10855 0.74202 0.0
H1603 H 0.50791 0.14663 0.84309 0.0
H1604 H 0.47319 0.14167 0.80683 0.0
H1605 H 0.52306 0.10331 0.76848 0.0
H1606 H 0.42738 0.10111 0.65976 0.0
H1607 H 0.44173 0.09595 0.70056 0.0
H1608 H 0.39066 0.12822 0.75024 0.0
C1609 C 0.48873 0.1325 0.81541 0.0
C1610 C 0.49354 0.10839 0.76483 0.0
C1611 C 0.50901 0.13538 0.83612 0.0
C1612 C 0.42548 0.1102 0.67212 0.0
C1613 C 0.43376 0.10724 0.69541 0.0
C1614 C 0.4193 0.12255 0.75409 0.0
C1615 C 0.48998 0.11818 0.8054 0.0
C1616 C 0.47139 0.11578 0.78231 0.0
C1617 C 0.43181 0.11878 0.71187 0.0
C1618 C 0.44288 0.11613 0.73634 0.0
H1619 H 0.54813 0.10053 0.84608 0.0
H1620 H 0.51263 0.09553 0.80955 0.0
H1621 H 0.41523 0.12787 0.79006 0.0
H1622 H 0.40588 0.14763 0.67649 0.0
H1623 H 0.42018 0.14246 0.71689 0.0
C1624 C 0.40093 0.63397 0.31029 0.0
C1625 C 0.40131 0.62316 0.3279 0.0
C1626 C 0.41449 0.63041 0.28816 0.0
C1627 C 0.48561 0.60676 0.25737 0.0
H1628 H 0.429 0.62325 0.20414 0.0
C1629 C 0.55575 0.60941 0.16453 0.0
C1630 C 0.55438 0.62398 0.15531 0.0
C1631 C 0.53352 0.60588 0.18454 0.0
C1632 C 0.44499 0.61846 0.21881 0.0
H1633 H 0.41568 0.60004 0.33605 0.0
H1634 H 0.44042 0.59388 0.29706 0.0
H1635 H 0.39462 0.62279 0.24161 0.0
H1636 H 0.52852 0.64621 0.15977 0.0
H1637 H 0.48981 0.64001 0.19435 0.0
H1638 H 0.53678 0.60312 0.23463 0.0
C1639 C 0.42925 0.60508 0.30058 0.0
C1640 C 0.42535 0.61819 0.2402 0.0
C1641 C 0.41506 0.6086 0.3228 0.0
C1642 C 0.53032 0.63489 0.16641 0.0
C1643 C 0.50782 0.63131 0.18611 0.0
C1644 C 0.50531 0.60701 0.23586 0.0
C1645 C 0.42907 0.61599 0.28309 0.0
C1646 C 0.44614 0.61296 0.25987 0.0
C1647 C 0.50908 0.61679 0.19534 0.0
C1648 C 0.48575 0.61348 0.21666 0.0
H1649 H 0.3903 0.64526 0.31358 0.0
H1650 H 0.41463 0.63912 0.27513 0.0
H1651 H 0.50233 0.60271 0.2723 0.0
H1652 H 0.57414 0.60078 0.15639 0.0
H1653 H 0.53506 0.59461 0.19142 0.0
C1654 C 0.06448 0.39007 0.33041 0.0
C1655 C 0.07252 0.37533 0.33772 0.0
C1656 C 0.05005 0.39283 0.308 0.0
C1657 C 0.0503 0.37621 0.25031 0.0
H1658 H 0.94933 0.39806 0.23873 0.0
C1659 C 0.95414 0.36547 0.1703 0.0
C1660 C 0.93673 0.37757 0.15829 0.0
C1661 C 0.97357 0.3677 0.19143 0.0
C1662 C 0.97801 0.39219 0.24165 0.0
H1663 H 0.07107 0.35196 0.32731 0.0
H1664 H 0.04645 0.35682 0.2885 0.0
H1665 H 0.97854 0.39761 0.27782 0.0
H1666 H 0.92564 0.40153 0.15926 0.0
H1667 H 0.9598 0.40539 0.19656 0.0
H1668 H 0.04945 0.37041 0.21451 0.0
C1669 C 0.05153 0.36623 0.29998 0.0
C1670 C 0.99464 0.39193 0.26396 0.0
C1671 C 0.06543 0.36345 0.3223 0.0
C1672 C 0.93891 0.39198 0.16805 0.0
C1673 C 0.95829 0.3942 0.1894 0.0
C1674 C 0.03386 0.37651 0.22812 0.0
C1675 C 0.04408 0.38092 0.29254 0.0
C1676 C 0.03011 0.38348 0.26857 0.0
C1677 C 0.97609 0.38207 0.20116 0.0
C1678 C -0.00323 0.38403 0.22373 0.0
H1679 H 0.06953 0.39946 0.34191 0.0
H1680 H 0.04439 0.40426 0.30261 0.0
H1681 H 0.07813 0.36985 0.25338 0.0
H1682 H 0.95292 0.35421 0.16339 0.0
H1683 H 0.98625 0.35808 0.20033 0.0
C1684 C 0.46725 0.37004 0.83483 0.0
C1685 C 0.44465 0.38133 0.84597 0.0
C1686 C 0.49038 0.37329 0.81521 0.0
C1687 C 0.49432 0.39816 0.76599 0.0
H1688 H 0.60041 0.3792 0.75681 0.0
C1689 C 0.57562 0.39613 0.67682 0.0
C1690 C 0.58689 0.38149 0.67051 0.0
C1691 C 0.56431 0.39937 0.69962 0.0
C1692 C 0.57095 0.38465 0.75917 0.0
H1693 H 0.42872 0.40492 0.84536 0.0
H1694 H 0.46893 0.41054 0.81059 0.0
H1695 H 0.56894 0.37907 0.7951 0.0
H1696 H 0.59647 0.35891 0.68331 0.0
H1697 H 0.57675 0.36454 0.72278 0.0
H1698 H 0.49545 0.40307 0.72976 0.0
C1699 C 0.46876 0.39922 0.81727 0.0
C1700 C 0.55298 0.38458 0.78104 0.0
C1701 C 0.44586 0.39599 0.83713 0.0
C1702 C 0.58767 0.37028 0.68752 0.0
C1703 C 0.57681 0.37354 0.71023 0.0
C1704 C 0.51233 0.39822 0.74405 0.0
C1705 C 0.49125 0.38788 0.80617 0.0
C1706 C 0.51376 0.39077 0.78442 0.0
C1707 C 0.56471 0.38807 0.7165 0.0
C1708 C 0.54999 0.39091 0.74029 0.0
H1709 H 0.46711 0.35865 0.84122 0.0
H1710 H 0.50682 0.36427 0.80676 0.0
H1711 H 0.46399 0.40297 0.76813 0.0
H1712 H 0.57485 0.40502 0.6641 0.0
H1713 H 0.55512 0.41067 0.70405 0.0
C1714 C 0.05395 0.61412 0.8286 0.0
C1715 C 0.05715 0.62854 0.83822 0.0
C1716 C 0.03303 0.61193 0.80771 0.0
C1717 C 0.95502 0.62958 0.77054 0.0
H1718 H 0.00792 0.60884 0.7197 0.0
C1719 C 0.91585 0.64208 0.67662 0.0
C1720 C 0.9121 0.63018 0.66089 0.0
C1721 C 0.92985 0.63954 0.69902 0.0
C1722 C 0.99242 0.61442 0.73386 0.0
H1723 H 0.04087 0.65193 0.83343 0.0
H1724 H 0.00478 0.64808 0.79731 0.0
H1725 H 0.03939 0.60837 0.75814 0.0
H1726 H 0.92027 0.60623 0.65639 0.0
H1727 H 0.94525 0.60185 0.69572 0.0
H1728 H 0.90885 0.63607 0.74626 0.0
C1729 C 0.018 0.63846 0.80593 0.0
C1730 C 0.0104 0.61414 0.75583 0.0
C1731 C 0.03905 0.64067 0.82657 0.0
C1732 C 0.9228 0.61565 0.6681 0.0
C1733 C 0.93719 0.61313 0.69055 0.0
C1734 C 0.93714 0.62987 0.74868 0.0
C1735 C 0.01459 0.62409 0.79632 0.0
C1736 C 0.99252 0.62216 0.77416 0.0
C1737 C 0.94063 0.62506 0.70624 0.0
C1738 C 0.95636 0.62271 0.72996 0.0
H1739 H 0.06767 0.60456 0.83715 0.0
H1740 H 0.03086 0.60074 0.8006 0.0
H1741 H 0.94016 0.6356 0.7845 0.0
H1742 H 0.90794 0.65341 0.67169 0.0
H1743 H 0.93286 0.649 0.71062 0.0
loop_
_geom_bond_atom_site_label_1
_geom_bond_atom_site_label_2
_geom_bond_distance
_geom_bond_site_symmetry_2
_ccdc_geom_bond_type
Co0 O3 1.970 . S
Co0 N17 1.989 . S
Co0 O25 1.967 . S
Co0 O32 1.920 . S
Co1 O4 1.966 . S
Co1 N10 2.022 . S
Co1 N18 1.993 . S
Co1 O26 1.941 . S
C2 O3 1.258 . S
C2 O4 1.263 . S
O3 Co0 1.970 . S
O3 C2 1.258 . S
O4 Co1 1.966 . S
O4 C2 1.263 . S
C5 O6 1.235 . S
C5 O32 1.289 . S
O6 C5 1.235 . S
C7 C9 1.400 . S
C7 N10 1.351 . S
C7 C12 1.501 . S
C8 C9 1.387 . S
C8 N11 1.341 . S
C9 C7 1.400 . S
C9 C8 1.387 . S
N10 Co1 2.022 . S
N10 C7 1.351 . S
N10 N11 1.365 . S
N11 C8 1.341 . S
N11 N10 1.365 . S
N11 H31 0.862 . S
C12 C7 1.501 . S
C12 H13 0.961 . S
C12 H14 0.961 . S
C12 H15 0.960 . S
H13 C12 0.961 . S
H14 C12 0.961 . S
H15 C12 0.960 . S
C16 N17 1.342 . S
C16 C20 1.401 . S
C16 C21 1.499 . S
N17 Co0 1.989 . S
N17 C16 1.342 . S
N17 N18 1.388 . S
N18 Co1 1.993 . S
N18 N17 1.388 . S
N18 C19 1.346 . S
C19 N18 1.346 . S
C19 C20 1.396 . S
C19 C29 1.510 . S
C20 C16 1.401 . S
C20 C19 1.396 . S
C21 C16 1.499 . S
C21 H22 0.959 . S
C21 H23 0.960 . S
C21 H24 0.961 . S
H22 C21 0.959 . S
H23 C21 0.960 . S
H24 C21 0.961 . S
O25 Co0 1.967 . S
O25 C33 1.258 . S
O26 Co1 1.941 . S
O26 C33 1.266 . S
H27 C29 0.959 . S
H28 C29 0.961 . S
C29 C19 1.510 . S
C29 H27 0.959 . S
C29 H28 0.961 . S
C29 H30 0.960 . S
H30 C29 0.960 . S
H31 N11 0.862 . S
O32 Co0 1.920 . S
O32 C5 1.289 . S
C33 O25 1.258 . S
C33 O26 1.266 . S
Co34 O37 1.970 . S
Co34 N51 1.989 . S
Co34 O59 1.967 . S
Co34 O66 1.920 . S
Co35 O38 1.966 . S
Co35 N44 2.022 . S
Co35 N52 1.993 . S
Co35 O60 1.941 . S
C36 O37 1.258 . S
C36 O38 1.263 . S
O37 Co34 1.970 . S
O37 C36 1.258 . S
O38 Co35 1.966 . S
O38 C36 1.263 . S
C39 O40 1.235 . S
C39 O66 1.289 . S
O40 C39 1.235 . S
C41 C43 1.400 . S
C41 N44 1.351 . S
C41 C46 1.501 . S
C42 C43 1.387 . S
C42 N45 1.341 . S
C43 C41 1.400 . S
C43 C42 1.387 . S
N44 Co35 2.022 . S
N44 C41 1.351 . S
N44 N45 1.365 . S
N45 C42 1.341 . S
N45 N44 1.365 . S
N45 H65 0.862 . S
C46 C41 1.501 . S
C46 H47 0.961 . S
C46 H48 0.961 . S
C46 H49 0.960 . S
H47 C46 0.961 . S
H48 C46 0.961 . S
H49 C46 0.960 . S
C50 N51 1.342 . S
C50 C54 1.401 . S
C50 C55 1.499 . S
N51 Co34 1.989 . S
N51 C50 1.342 . S
N51 N52 1.388 . S
N52 Co35 1.993 . S
N52 N51 1.388 . S
N52 C53 1.346 . S
C53 N52 1.346 . S
C53 C54 1.396 . S
C53 C63 1.510 . S
C54 C50 1.401 . S
C54 C53 1.396 . S
C55 C50 1.499 . S
C55 H56 0.959 . S
C55 H57 0.960 . S
C55 H58 0.961 . S
H56 C55 0.959 . S
H57 C55 0.960 . S
H58 C55 0.961 . S
O59 Co34 1.967 . S
O59 C67 1.258 . S
O60 Co35 1.941 . S
O60 C67 1.266 . S
H61 C63 0.959 . S
H62 C63 0.961 . S
C63 C53 1.510 . S
C63 H61 0.959 . S
C63 H62 0.961 . S
C63 H64 0.960 . S
H64 C63 0.960 . S
H65 N45 0.862 . S
O66 Co34 1.920 . S
O66 C39 1.289 . S
C67 O59 1.258 . S
C67 O60 1.266 . S
Co68 O71 1.970 . S
Co68 N85 1.989 . S
Co68 O93 1.967 . S
Co68 O100 1.920 . S
Co69 O72 1.966 . S
Co69 N78 2.022 . S
Co69 N86 1.993 . S
Co69 O94 1.941 . S
C70 O71 1.258 . S
C70 O72 1.263 . S
O71 Co68 1.970 . S
O71 C70 1.258 . S
O72 Co69 1.966 . S
O72 C70 1.263 . S
C73 O74 1.235 . S
C73 O100 1.289 . S
O74 C73 1.235 . S
C75 C77 1.400 . S
C75 N78 1.351 . S
C75 C80 1.501 . S
C76 C77 1.387 . S
C76 N79 1.341 . S
C77 C75 1.400 . S
C77 C76 1.387 . S
N78 Co69 2.022 . S
N78 C75 1.351 . S
N78 N79 1.365 . S
N79 C76 1.341 . S
N79 N78 1.365 . S
N79 H99 0.862 . S
C80 C75 1.501 . S
C80 H81 0.961 . S
C80 H82 0.961 . S
C80 H83 0.960 . S
H81 C80 0.961 . S
H82 C80 0.961 . S
H83 C80 0.960 . S
C84 N85 1.342 . S
C84 C88 1.401 . S
C84 C89 1.499 . S
N85 Co68 1.989 . S
N85 C84 1.342 . S
N85 N86 1.388 . S
N86 Co69 1.993 . S
N86 N85 1.388 . S
N86 C87 1.346 . S
C87 N86 1.346 . S
C87 C88 1.396 . S
C87 C97 1.510 . S
C88 C84 1.401 . S
C88 C87 1.396 . S
C89 C84 1.499 . S
C89 H90 0.959 . S
C89 H91 0.960 . S
C89 H92 0.961 . S
H90 C89 0.959 . S
H91 C89 0.960 . S
H92 C89 0.961 . S
O93 Co68 1.967 . S
O93 C101 1.258 . S
O94 Co69 1.941 . S
O94 C101 1.266 . S
H95 C97 0.959 . S
H96 C97 0.961 . S
C97 C87 1.510 . S
C97 H95 0.959 . S
C97 H96 0.961 . S
C97 H98 0.960 . S
H98 C97 0.960 . S
H99 N79 0.862 . S
O100 Co68 1.920 . S
O100 C73 1.289 . S
C101 O93 1.258 . S
C101 O94 1.266 . S
Co102 O105 1.970 . S
Co102 N119 1.989 . S
Co102 O127 1.967 . S
Co102 O134 1.920 . S
Co103 O106 1.966 . S
Co103 N112 2.022 . S
Co103 N120 1.993 . S
Co103 O128 1.941 . S
C104 O105 1.258 . S
C104 O106 1.263 . S
O105 Co102 1.970 . S
O105 C104 1.258 . S
O106 Co103 1.966 . S
O106 C104 1.263 . S
C107 O108 1.235 . S
C107 O134 1.289 . S
O108 C107 1.235 . S
C109 C111 1.400 . S
C109 N112 1.351 . S
C109 C114 1.501 . S
C110 C111 1.387 . S
C110 N113 1.341 . S
C111 C109 1.400 . S
C111 C110 1.387 . S
N112 Co103 2.022 . S
N112 C109 1.351 . S
N112 N113 1.365 . S
N113 C110 1.341 . S
N113 N112 1.365 . S
N113 H133 0.862 . S
C114 C109 1.501 . S
C114 H115 0.961 . S
C114 H116 0.961 . S
C114 H117 0.960 . S
H115 C114 0.961 . S
H116 C114 0.961 . S
H117 C114 0.960 . S
C118 N119 1.342 . S
C118 C122 1.401 . S
C118 C123 1.499 . S
N119 Co102 1.989 . S
N119 C118 1.342 . S
N119 N120 1.388 . S
N120 Co103 1.993 . S
N120 N119 1.388 . S
N120 C121 1.346 . S
C121 N120 1.346 . S
C121 C122 1.396 . S
C121 C131 1.510 . S
C122 C118 1.401 . S
C122 C121 1.396 . S
C123 C118 1.499 . S
C123 H124 0.959 . S
C123 H125 0.960 . S
C123 H126 0.961 . S
H124 C123 0.959 . S
H125 C123 0.960 . S
H126 C123 0.961 . S
O127 Co102 1.967 . S
O127 C135 1.258 . S
O128 Co103 1.941 . S
O128 C135 1.266 . S
H129 C131 0.959 . S
H130 C131 0.961 . S
C131 C121 1.510 . S
C131 H129 0.959 . S
C131 H130 0.961 . S
C131 H132 0.960 . S
H132 C131 0.960 . S
H133 N113 0.862 . S
O134 Co102 1.920 . S
O134 C107 1.289 . S
C135 O127 1.258 . S
C135 O128 1.266 . S
Co136 O139 1.970 . S
Co136 N153 1.989 . S
Co136 O161 1.967 . S
Co136 O168 1.920 . S
Co137 O140 1.966 . S
Co137 N146 2.022 . S
Co137 N154 1.993 . S
Co137 O162 1.941 . S
C138 O139 1.258 . S
C138 O140 1.263 . S
O139 Co136 1.970 . S
O139 C138 1.258 . S
O140 Co137 1.966 . S
O140 C138 1.263 . S
C141 O142 1.235 . S
C141 O168 1.289 . S
O142 C141 1.235 . S
C143 C145 1.400 . S
C143 N146 1.351 . S
C143 C148 1.501 . S
C144 C145 1.387 . S
C144 N147 1.341 . S
C145 C143 1.400 . S
C145 C144 1.387 . S
N146 Co137 2.022 . S
N146 C143 1.351 . S
N146 N147 1.365 . S
N147 C144 1.341 . S
N147 N146 1.365 . S
N147 H167 0.862 . S
C148 C143 1.501 . S
C148 H149 0.961 . S
C148 H150 0.961 . S
C148 H151 0.960 . S
H149 C148 0.961 . S
H150 C148 0.961 . S
H151 C148 0.960 . S
C152 N153 1.342 . S
C152 C156 1.401 . S
C152 C157 1.499 . S
N153 Co136 1.989 . S
N153 C152 1.342 . S
N153 N154 1.388 . S
N154 Co137 1.993 . S
N154 N153 1.388 . S
N154 C155 1.346 . S
C155 N154 1.346 . S
C155 C156 1.396 . S
C155 C165 1.510 . S
C156 C152 1.401 . S
C156 C155 1.396 . S
C157 C152 1.499 . S
C157 H158 0.959 . S
C157 H159 0.960 . S
C157 H160 0.961 . S
H158 C157 0.959 . S
H159 C157 0.960 . S
H160 C157 0.961 . S
O161 Co136 1.967 . S
O161 C169 1.258 . S
O162 Co137 1.941 . S
O162 C169 1.266 . S
H163 C165 0.959 . S
H164 C165 0.961 . S
C165 C155 1.510 . S
C165 H163 0.959 . S
C165 H164 0.961 . S
C165 H166 0.960 . S
H166 C165 0.960 . S
H167 N147 0.862 . S
O168 Co136 1.920 . S
O168 C141 1.289 . S
C169 O161 1.258 . S
C169 O162 1.266 . S
Co170 O173 1.970 . S
Co170 N187 1.989 . S
Co170 O195 1.967 . S
Co170 O202 1.920 . S
Co171 O174 1.966 . S
Co171 N180 2.022 . S
Co171 N188 1.993 . S
Co171 O196 1.941 . S
C172 O173 1.258 . S
C172 O174 1.263 . S
O173 Co170 1.970 . S
O173 C172 1.258 . S
O174 Co171 1.966 . S
O174 C172 1.263 . S
C175 O176 1.235 . S
C175 O202 1.289 . S
O176 C175 1.235 . S
C177 C179 1.400 . S
C177 N180 1.351 . S
C177 C182 1.501 . S
C178 C179 1.387 . S
C178 N181 1.341 . S
C179 C177 1.400 . S
C179 C178 1.387 . S
N180 Co171 2.022 . S
N180 C177 1.351 . S
N180 N181 1.365 . S
N181 C178 1.341 . S
N181 N180 1.365 . S
N181 H201 0.862 . S
C182 C177 1.501 . S
C182 H183 0.961 . S
C182 H184 0.961 . S
C182 H185 0.960 . S
H183 C182 0.961 . S
H184 C182 0.961 . S
H185 C182 0.960 . S
C186 N187 1.342 . S
C186 C190 1.401 . S
C186 C191 1.499 . S
N187 Co170 1.989 . S
N187 C186 1.342 . S
N187 N188 1.388 . S
N188 Co171 1.993 . S
N188 N187 1.388 . S
N188 C189 1.346 . S
C189 N188 1.346 . S
C189 C190 1.396 . S
C189 C199 1.510 . S
C190 C186 1.401 . S
C190 C189 1.396 . S
C191 C186 1.499 . S
C191 H192 0.959 . S
C191 H193 0.960 . S
C191 H194 0.961 . S
H192 C191 0.959 . S
H193 C191 0.960 . S
H194 C191 0.961 . S
O195 Co170 1.967 . S
O195 C203 1.258 . S
O196 Co171 1.941 . S
O196 C203 1.266 . S
H197 C199 0.959 . S
H198 C199 0.961 . S
C199 C189 1.510 . S
C199 H197 0.959 . S
C199 H198 0.961 . S
C199 H200 0.960 . S
H200 C199 0.960 . S
H201 N181 0.862 . S
O202 Co170 1.920 . S
O202 C175 1.289 . S
C203 O195 1.258 . S
C203 O196 1.266 . S
Co204 O207 1.970 . S
Co204 N221 1.989 . S
Co204 O229 1.967 . S
Co204 O236 1.920 . S
Co205 O208 1.966 . S
Co205 N214 2.022 . S
Co205 N222 1.993 . S
Co205 O230 1.941 . S
C206 O207 1.258 . S
C206 O208 1.263 . S
O207 Co204 1.970 . S
O207 C206 1.258 . S
O208 Co205 1.966 . S
O208 C206 1.263 . S
C209 O210 1.235 . S
C209 O236 1.289 . S
O210 C209 1.235 . S
C211 C213 1.400 . S
C211 N214 1.351 . S
C211 C216 1.501 . S
C212 C213 1.387 . S
C212 N215 1.341 . S
C213 C211 1.400 . S
C213 C212 1.387 . S
N214 Co205 2.022 . S
N214 C211 1.351 . S
N214 N215 1.365 . S
N215 C212 1.341 . S
N215 N214 1.365 . S
N215 H235 0.862 . S
C216 C211 1.501 . S
C216 H217 0.961 . S
C216 H218 0.961 . S
C216 H219 0.960 . S
H217 C216 0.961 . S
H218 C216 0.961 . S
H219 C216 0.960 . S
C220 N221 1.342 . S
C220 C224 1.401 . S
C220 C225 1.499 . S
N221 Co204 1.989 . S
N221 C220 1.342 . S
N221 N222 1.388 . S
N222 Co205 1.993 . S
N222 N221 1.388 . S
N222 C223 1.346 . S
C223 N222 1.346 . S
C223 C224 1.396 . S
C223 C233 1.510 . S
C224 C220 1.401 . S
C224 C223 1.396 . S
C225 C220 1.499 . S
C225 H226 0.959 . S
C225 H227 0.960 . S
C225 H228 0.961 . S
H226 C225 0.959 . S
H227 C225 0.960 . S
H228 C225 0.961 . S
O229 Co204 1.967 . S
O229 C237 1.258 . S
O230 Co205 1.941 . S
O230 C237 1.266 . S
H231 C233 0.959 . S
H232 C233 0.961 . S
C233 C223 1.510 . S
C233 H231 0.959 . S
C233 H232 0.961 . S
C233 H234 0.960 . S
H234 C233 0.960 . S
H235 N215 0.862 . S
O236 Co204 1.920 . S
O236 C209 1.289 . S
C237 O229 1.258 . S
C237 O230 1.266 . S
Co238 O241 1.970 . S
Co238 N255 1.989 . S
Co238 O263 1.967 . S
Co238 O270 1.920 . S
Co239 O242 1.966 . S
Co239 N248 2.022 . S
Co239 N256 1.993 . S
Co239 O264 1.941 . S
C240 O241 1.258 . S
C240 O242 1.263 . S
O241 Co238 1.970 . S
O241 C240 1.258 . S
O242 Co239 1.966 . S
O242 C240 1.263 . S
C243 O244 1.235 . S
C243 O270 1.289 . S
O244 C243 1.235 . S
C245 C247 1.400 . S
C245 N248 1.351 . S
C245 C250 1.501 . S
C246 C247 1.387 . S
C246 N249 1.341 . S
C247 C245 1.400 . S
C247 C246 1.387 . S
N248 Co239 2.022 . S
N248 C245 1.351 . S
N248 N249 1.365 . S
N249 C246 1.341 . S
N249 N248 1.365 . S
N249 H269 0.862 . S
C250 C245 1.501 . S
C250 H251 0.961 . S
C250 H252 0.961 . S
C250 H253 0.960 . S
H251 C250 0.961 . S
H252 C250 0.961 . S
H253 C250 0.960 . S
C254 N255 1.342 . S
C254 C258 1.401 . S
C254 C259 1.499 . S
N255 Co238 1.989 . S
N255 C254 1.342 . S
N255 N256 1.388 . S
N256 Co239 1.993 . S
N256 N255 1.388 . S
N256 C257 1.346 . S
C257 N256 1.346 . S
C257 C258 1.396 . S
C257 C267 1.510 . S
C258 C254 1.401 . S
C258 C257 1.396 . S
C259 C254 1.499 . S
C259 H260 0.959 . S
C259 H261 0.960 . S
C259 H262 0.961 . S
H260 C259 0.959 . S
H261 C259 0.960 . S
H262 C259 0.961 . S
O263 Co238 1.967 . S
O263 C271 1.258 . S
O264 Co239 1.941 . S
O264 C271 1.266 . S
H265 C267 0.959 . S
H266 C267 0.961 . S
C267 C257 1.510 . S
C267 H265 0.959 . S
C267 H266 0.961 . S
C267 H268 0.960 . S
H268 C267 0.960 . S
H269 N249 0.862 . S
O270 Co238 1.920 . S
O270 C243 1.289 . S
C271 O263 1.258 . S
C271 O264 1.266 . S
Co272 O275 1.970 . S
Co272 N289 1.989 . S
Co272 O297 1.967 . S
Co272 O304 1.920 . S
Co273 O276 1.966 . S
Co273 N282 2.022 . S
Co273 N290 1.993 . S
Co273 O298 1.941 . S
C274 O275 1.258 . S
C274 O276 1.263 . S
O275 Co272 1.970 . S
O275 C274 1.258 . S
O276 Co273 1.966 . S
O276 C274 1.263 . S
C277 O278 1.235 . S
C277 O304 1.289 . S
O278 C277 1.235 . S
C279 C281 1.400 . S
C279 N282 1.351 . S
C279 C284 1.501 . S
C280 C281 1.387 . S
C280 N283 1.341 . S
C281 C279 1.400 . S
C281 C280 1.387 . S
N282 Co273 2.022 . S
N282 C279 1.351 . S
N282 N283 1.365 . S
N283 C280 1.341 . S
N283 N282 1.365 . S
N283 H303 0.862 . S
C284 C279 1.501 . S
C284 H285 0.961 . S
C284 H286 0.961 . S
C284 H287 0.960 . S
H285 C284 0.961 . S
H286 C284 0.961 . S
H287 C284 0.960 . S
C288 N289 1.342 . S
C288 C292 1.401 . S
C288 C293 1.499 . S
N289 Co272 1.989 . S
N289 C288 1.342 . S
N289 N290 1.388 . S
N290 Co273 1.993 . S
N290 N289 1.388 . S
N290 C291 1.346 . S
C291 N290 1.346 . S
C291 C292 1.396 . S
C291 C301 1.510 . S
C292 C288 1.401 . S
C292 C291 1.396 . S
C293 C288 1.499 . S
C293 H294 0.959 . S
C293 H295 0.960 . S
C293 H296 0.961 . S
H294 C293 0.959 . S
H295 C293 0.960 . S
H296 C293 0.961 . S
O297 Co272 1.967 . S
O297 C305 1.258 . S
O298 Co273 1.941 . S
O298 C305 1.266 . S
H299 C301 0.959 . S
H300 C301 0.961 . S
C301 C291 1.510 . S
C301 H299 0.959 . S
C301 H300 0.961 . S
C301 H302 0.960 . S
H302 C301 0.960 . S
H303 N283 0.862 . S
O304 Co272 1.920 . S
O304 C277 1.289 . S
C305 O297 1.258 . S
C305 O298 1.266 . S
Co306 O309 1.970 . S
Co306 N323 1.989 . S
Co306 O331 1.967 . S
Co306 O338 1.920 . S
Co307 O310 1.966 . S
Co307 N316 2.022 . S
Co307 N324 1.993 . S
Co307 O332 1.941 . S
C308 O309 1.258 . S
C308 O310 1.263 . S
O309 Co306 1.970 . S
O309 C308 1.258 . S
O310 Co307 1.966 . S
O310 C308 1.263 . S
C311 O312 1.235 . S
C311 O338 1.289 . S
O312 C311 1.235 . S
C313 C315 1.400 . S
C313 N316 1.351 . S
C313 C318 1.501 . S
C314 C315 1.387 . S
C314 N317 1.341 . S
C315 C313 1.400 . S
C315 C314 1.387 . S
N316 Co307 2.022 . S
N316 C313 1.351 . S
N316 N317 1.365 . S
N317 C314 1.341 . S
N317 N316 1.365 . S
N317 H337 0.862 . S
C318 C313 1.501 . S
C318 H319 0.961 . S
C318 H320 0.961 . S
C318 H321 0.960 . S
H319 C318 0.961 . S
H320 C318 0.961 . S
H321 C318 0.960 . S
C322 N323 1.342 . S
C322 C326 1.401 . S
C322 C327 1.499 . S
N323 Co306 1.989 . S
N323 C322 1.342 . S
N323 N324 1.388 . S
N324 Co307 1.993 . S
N324 N323 1.388 . S
N324 C325 1.346 . S
C325 N324 1.346 . S
C325 C326 1.396 . S
C325 C335 1.510 . S
C326 C322 1.401 . S
C326 C325 1.396 . S
C327 C322 1.499 . S
C327 H328 0.959 . S
C327 H329 0.960 . S
C327 H330 0.961 . S
H328 C327 0.959 . S
H329 C327 0.960 . S
H330 C327 0.961 . S
O331 Co306 1.967 . S
O331 C339 1.258 . S
O332 Co307 1.941 . S
O332 C339 1.266 . S
H333 C335 0.959 . S
H334 C335 0.961 . S
C335 C325 1.510 . S
C335 H333 0.959 . S
C335 H334 0.961 . S
C335 H336 0.960 . S
H336 C335 0.960 . S
H337 N317 0.862 . S
O338 Co306 1.920 . S
O338 C311 1.289 . S
C339 O331 1.258 . S
C339 O332 1.266 . S
Co340 O343 1.970 . S
Co340 N357 1.989 . S
Co340 O365 1.967 . S
Co340 O372 1.920 . S
Co341 O344 1.966 . S
Co341 N350 2.022 . S
Co341 N358 1.993 . S
Co341 O366 1.941 . S
C342 O343 1.258 . S
C342 O344 1.263 . S
O343 Co340 1.970 . S
O343 C342 1.258 . S
O344 Co341 1.966 . S
O344 C342 1.263 . S
C345 O346 1.235 . S
C345 O372 1.289 . S
O346 C345 1.235 . S
C347 C349 1.400 . S
C347 N350 1.351 . S
C347 C352 1.501 . S
C348 C349 1.387 . S
C348 N351 1.341 . S
C349 C347 1.400 . S
C349 C348 1.387 . S
N350 Co341 2.022 . S
N350 C347 1.351 . S
N350 N351 1.365 . S
N351 C348 1.341 . S
N351 N350 1.365 . S
N351 H371 0.862 . S
C352 C347 1.501 . S
C352 H353 0.961 . S
C352 H354 0.961 . S
C352 H355 0.960 . S
H353 C352 0.961 . S
H354 C352 0.961 . S
H355 C352 0.960 . S
C356 N357 1.342 . S
C356 C360 1.401 . S
C356 C361 1.499 . S
N357 Co340 1.989 . S
N357 C356 1.342 . S
N357 N358 1.388 . S
N358 Co341 1.993 . S
N358 N357 1.388 . S
N358 C359 1.346 . S
C359 N358 1.346 . S
C359 C360 1.396 . S
C359 C369 1.510 . S
C360 C356 1.401 . S
C360 C359 1.396 . S
C361 C356 1.499 . S
C361 H362 0.959 . S
C361 H363 0.960 . S
C361 H364 0.961 . S
H362 C361 0.959 . S
H363 C361 0.960 . S
H364 C361 0.961 . S
O365 Co340 1.967 . S
O365 C373 1.258 . S
O366 Co341 1.941 . S
O366 C373 1.266 . S
H367 C369 0.959 . S
H368 C369 0.961 . S
C369 C359 1.510 . S
C369 H367 0.959 . S
C369 H368 0.961 . S
C369 H370 0.960 . S
H370 C369 0.960 . S
H371 N351 0.862 . S
O372 Co340 1.920 . S
O372 C345 1.289 . S
C373 O365 1.258 . S
C373 O366 1.266 . S
Co374 O377 1.970 . S
Co374 N391 1.989 . S
Co374 O399 1.967 . S
Co374 O406 1.920 . S
Co375 O378 1.966 . S
Co375 N384 2.022 . S
Co375 N392 1.993 . S
Co375 O400 1.941 . S
C376 O377 1.258 . S
C376 O378 1.263 . S
O377 Co374 1.970 . S
O377 C376 1.258 . S
O378 Co375 1.966 . S
O378 C376 1.263 . S
C379 O380 1.235 . S
C379 O406 1.289 . S
O380 C379 1.235 . S
C381 C383 1.400 . S
C381 N384 1.351 . S
C381 C386 1.501 . S
C382 C383 1.387 . S
C382 N385 1.341 . S
C383 C381 1.400 . S
C383 C382 1.387 . S
N384 Co375 2.022 . S
N384 C381 1.351 . S
N384 N385 1.365 . S
N385 C382 1.341 . S
N385 N384 1.365 . S
N385 H405 0.862 . S
C386 C381 1.501 . S
C386 H387 0.961 . S
C386 H388 0.961 . S
C386 H389 0.960 . S
H387 C386 0.961 . S
H388 C386 0.961 . S
H389 C386 0.960 . S
C390 N391 1.342 . S
C390 C394 1.401 . S
C390 C395 1.499 . S
N391 Co374 1.989 . S
N391 C390 1.342 . S
N391 N392 1.388 . S
N392 Co375 1.993 . S
N392 N391 1.388 . S
N392 C393 1.346 . S
C393 N392 1.346 . S
C393 C394 1.396 . S
C393 C403 1.510 . S
C394 C390 1.401 . S
C394 C393 1.396 . S
C395 C390 1.499 . S
C395 H396 0.959 . S
C395 H397 0.960 . S
C395 H398 0.961 . S
H396 C395 0.959 . S
H397 C395 0.960 . S
H398 C395 0.961 . S
O399 Co374 1.967 . S
O399 C407 1.258 . S
O400 Co375 1.941 . S
O400 C407 1.266 . S
H401 C403 0.959 . S
H402 C403 0.961 . S
C403 C393 1.510 . S
C403 H401 0.959 . S
C403 H402 0.961 . S
C403 H404 0.960 . S
H404 C403 0.960 . S
H405 N385 0.862 . S
O406 Co374 1.920 . S
O406 C379 1.289 . S
C407 O399 1.258 . S
C407 O400 1.266 . S
Co408 O411 1.970 . S
Co408 N425 1.989 . S
Co408 O433 1.967 . S
Co408 O440 1.920 . S
Co409 O412 1.966 . S
Co409 N418 2.022 . S
Co409 N426 1.993 . S
Co409 O434 1.941 . S
C410 O411 1.258 . S
C410 O412 1.263 . S
O411 Co408 1.970 . S
O411 C410 1.258 . S
O412 Co409 1.966 . S
O412 C410 1.263 . S
C413 O414 1.235 . S
C413 O440 1.289 . S
O414 C413 1.235 . S
C415 C417 1.400 . S
C415 N418 1.351 . S
C415 C420 1.501 . S
C416 C417 1.387 . S
C416 N419 1.341 . S
C417 C415 1.400 . S
C417 C416 1.387 . S
N418 Co409 2.022 . S
N418 C415 1.351 . S
N418 N419 1.365 . S
N419 C416 1.341 . S
N419 N418 1.365 . S
N419 H439 0.862 . S
C420 C415 1.501 . S
C420 H421 0.961 . S
C420 H422 0.961 . S
C420 H423 0.960 . S
H421 C420 0.961 . S
H422 C420 0.961 . S
H423 C420 0.960 . S
C424 N425 1.342 . S
C424 C428 1.401 . S
C424 C429 1.499 . S
N425 Co408 1.989 . S
N425 C424 1.342 . S
N425 N426 1.388 . S
N426 Co409 1.993 . S
N426 N425 1.388 . S
N426 C427 1.346 . S
C427 N426 1.346 . S
C427 C428 1.396 . S
C427 C437 1.510 . S
C428 C424 1.401 . S
C428 C427 1.396 . S
C429 C424 1.499 . S
C429 H430 0.959 . S
C429 H431 0.960 . S
C429 H432 0.961 . S
H430 C429 0.959 . S
H431 C429 0.960 . S
H432 C429 0.961 . S
O433 Co408 1.967 . S
O433 C441 1.258 . S
O434 Co409 1.941 . S
O434 C441 1.266 . S
H435 C437 0.959 . S
H436 C437 0.961 . S
C437 C427 1.510 . S
C437 H435 0.959 . S
C437 H436 0.961 . S
C437 H438 0.960 . S
H438 C437 0.960 . S
H439 N419 0.862 . S
O440 Co408 1.920 . S
O440 C413 1.289 . S
C441 O433 1.258 . S
C441 O434 1.266 . S
Co442 O445 1.970 . S
Co442 N459 1.989 . S
Co442 O467 1.967 . S
Co442 O474 1.920 . S
Co443 O446 1.966 . S
Co443 N452 2.022 . S
Co443 N460 1.993 . S
Co443 O468 1.941 . S
C444 O445 1.258 . S
C444 O446 1.263 . S
O445 Co442 1.970 . S
O445 C444 1.258 . S
O446 Co443 1.966 . S
O446 C444 1.263 . S
C447 O448 1.235 . S
C447 O474 1.289 . S
O448 C447 1.235 . S
C449 C451 1.400 . S
C449 N452 1.351 . S
C449 C454 1.501 . S
C450 C451 1.387 . S
C450 N453 1.341 . S
C451 C449 1.400 . S
C451 C450 1.387 . S
N452 Co443 2.022 . S
N452 C449 1.351 . S
N452 N453 1.365 . S
N453 C450 1.341 . S
N453 N452 1.365 . S
N453 H473 0.862 . S
C454 C449 1.501 . S
C454 H455 0.961 . S
C454 H456 0.961 . S
C454 H457 0.960 . S
H455 C454 0.961 . S
H456 C454 0.961 . S
H457 C454 0.960 . S
C458 N459 1.342 . S
C458 C462 1.401 . S
C458 C463 1.499 . S
N459 Co442 1.989 . S
N459 C458 1.342 . S
N459 N460 1.388 . S
N460 Co443 1.993 . S
N460 N459 1.388 . S
N460 C461 1.346 . S
C461 N460 1.346 . S
C461 C462 1.396 . S
C461 C471 1.510 . S
C462 C458 1.401 . S
C462 C461 1.396 . S
C463 C458 1.499 . S
C463 H464 0.959 . S
C463 H465 0.960 . S
C463 H466 0.961 . S
H464 C463 0.959 . S
H465 C463 0.960 . S
H466 C463 0.961 . S
O467 Co442 1.967 . S
O467 C475 1.258 . S
O468 Co443 1.941 . S
O468 C475 1.266 . S
H469 C471 0.959 . S
H470 C471 0.961 . S
C471 C461 1.510 . S
C471 H469 0.959 . S
C471 H470 0.961 . S
C471 H472 0.960 . S
H472 C471 0.960 . S
H473 N453 0.862 . S
O474 Co442 1.920 . S
O474 C447 1.289 . S
C475 O467 1.258 . S
C475 O468 1.266 . S
Co476 O479 1.970 . S
Co476 N493 1.989 . S
Co476 O501 1.967 . S
Co476 O508 1.920 . S
Co477 O480 1.966 . S
Co477 N486 2.022 . S
Co477 N494 1.993 . S
Co477 O502 1.941 . S
C478 O479 1.258 . S
C478 O480 1.263 . S
O479 Co476 1.970 . S
O479 C478 1.258 . S
O480 Co477 1.966 . S
O480 C478 1.263 . S
C481 O482 1.235 . S
C481 O508 1.289 . S
O482 C481 1.235 . S
C483 C485 1.400 . S
C483 N486 1.351 . S
C483 C488 1.501 . S
C484 C485 1.387 . S
C484 N487 1.341 . S
C485 C483 1.400 . S
C485 C484 1.387 . S
N486 Co477 2.022 . S
N486 C483 1.351 . S
N486 N487 1.365 . S
N487 C484 1.341 . S
N487 N486 1.365 . S
N487 H507 0.862 . S
C488 C483 1.501 . S
C488 H489 0.961 . S
C488 H490 0.961 . S
C488 H491 0.960 . S
H489 C488 0.961 . S
H490 C488 0.961 . S
H491 C488 0.960 . S
C492 N493 1.342 . S
C492 C496 1.401 . S
C492 C497 1.499 . S
N493 Co476 1.989 . S
N493 C492 1.342 . S
N493 N494 1.388 . S
N494 Co477 1.993 . S
N494 N493 1.388 . S
N494 C495 1.346 . S
C495 N494 1.346 . S
C495 C496 1.396 . S
C495 C505 1.510 . S
C496 C492 1.401 . S
C496 C495 1.396 . S
C497 C492 1.499 . S
C497 H498 0.959 . S
C497 H499 0.960 . S
C497 H500 0.961 . S
H498 C497 0.959 . S
H499 C497 0.960 . S
H500 C497 0.961 . S
O501 Co476 1.967 . S
O501 C509 1.258 . S
O502 Co477 1.941 . S
O502 C509 1.266 . S
H503 C505 0.959 . S
H504 C505 0.961 . S
C505 C495 1.510 . S
C505 H503 0.959 . S
C505 H504 0.961 . S
C505 H506 0.960 . S
H506 C505 0.960 . S
H507 N487 0.862 . S
O508 Co476 1.920 . S
O508 C481 1.289 . S
C509 O501 1.258 . S
C509 O502 1.266 . S
Co510 O513 1.970 . S
Co510 N527 1.989 . S
Co510 O535 1.967 . S
Co510 O542 1.920 . S
Co511 O514 1.966 . S
Co511 N520 2.022 . S
Co511 N528 1.993 . S
Co511 O536 1.941 . S
C512 O513 1.258 . S
C512 O514 1.263 . S
O513 Co510 1.970 . S
O513 C512 1.258 . S
O514 Co511 1.966 . S
O514 C512 1.263 . S
C515 O516 1.235 . S
C515 O542 1.289 . S
O516 C515 1.235 . S
C517 C519 1.400 . S
C517 N520 1.351 . S
C517 C522 1.501 . S
C518 C519 1.387 . S
C518 N521 1.341 . S
C519 C517 1.400 . S
C519 C518 1.387 . S
N520 Co511 2.022 . S
N520 C517 1.351 . S
N520 N521 1.365 . S
N521 C518 1.341 . S
N521 N520 1.365 . S
N521 H541 0.862 . S
C522 C517 1.501 . S
C522 H523 0.961 . S
C522 H524 0.961 . S
C522 H525 0.960 . S
H523 C522 0.961 . S
H524 C522 0.961 . S
H525 C522 0.960 . S
C526 N527 1.342 . S
C526 C530 1.401 . S
C526 C531 1.499 . S
N527 Co510 1.989 . S
N527 C526 1.342 . S
N527 N528 1.388 . S
N528 Co511 1.993 . S
N528 N527 1.388 . S
N528 C529 1.346 . S
C529 N528 1.346 . S
C529 C530 1.396 . S
C529 C539 1.510 . S
C530 C526 1.401 . S
C530 C529 1.396 . S
C531 C526 1.499 . S
C531 H532 0.959 . S
C531 H533 0.960 . S
C531 H534 0.961 . S
H532 C531 0.959 . S
H533 C531 0.960 . S
H534 C531 0.961 . S
O535 Co510 1.967 . S
O535 C543 1.258 . S
O536 Co511 1.941 . S
O536 C543 1.266 . S
H537 C539 0.959 . S
H538 C539 0.961 . S
C539 C529 1.510 . S
C539 H537 0.959 . S
C539 H538 0.961 . S
C539 H540 0.960 . S
H540 C539 0.960 . S
H541 N521 0.862 . S
O542 Co510 1.920 . S
O542 C515 1.289 . S
C543 O535 1.258 . S
C543 O536 1.266 . S
C544 C545 1.349 . S
C544 C546 1.327 . S
C544 H569 0.950 . S
C545 C544 1.349 . S
C545 C561 1.349 . S
C546 C544 1.327 . S
C546 C565 1.429 . S
C546 H570 0.950 . S
C547 C564 1.574 . S
C547 C566 1.368 . S
C547 H571 0.949 . S
H548 C552 0.949 . S
C549 C550 1.349 . S
C549 C551 1.327 . S
C549 H572 0.950 . S
C550 C549 1.349 . S
C550 C562 1.349 . S
C551 C549 1.327 . S
C551 C567 1.429 . S
C551 H573 0.950 . S
C552 H548 0.949 . S
C552 C560 1.574 . S
C552 C568 1.368 . S
H553 C561 0.950 . S
H554 C559 0.950 . S
H555 C560 0.949 . S
H556 C562 0.950 . S
H557 C563 0.950 . S
H558 C564 0.949 . S
C559 H554 0.950 . S
C559 C561 1.327 . S
C559 C565 1.429 . S
C560 C552 1.574 . S
C560 H555 0.949 . S
C560 C566 1.368 1_554 S
C561 C545 1.349 . S
C561 H553 0.950 . S
C561 C559 1.327 . S
C562 C550 1.349 . S
C562 H556 0.950 . S
C562 C563 1.327 . S
C563 H557 0.950 . S
C563 C562 1.327 . S
C563 C567 1.429 . S
C564 C547 1.574 . S
C564 H558 0.949 . S
C564 C568 1.368 1_556 S
C565 C546 1.429 . S
C565 C559 1.429 . S
C565 C566 1.523 . S
C566 C547 1.368 . S
C566 C560 1.368 1_556 S
C566 C565 1.523 . S
C567 C551 1.429 . S
C567 C563 1.429 . S
C567 C568 1.523 . S
C568 C552 1.368 . S
C568 C564 1.368 1_554 S
C568 C567 1.523 . S
H569 C544 0.950 . S
H570 C546 0.950 . S
H571 C547 0.949 . S
H572 C549 0.950 . S
H573 C551 0.950 . S
C574 C575 1.349 1_455 S
C574 C576 1.327 . S
C574 H599 0.950 1_455 S
C575 C574 1.349 1_655 S
C575 C591 1.349 1_655 S
C576 C574 1.327 . S
C576 C595 1.429 . S
C576 H600 0.950 . S
C577 C594 1.574 . S
C577 C596 1.368 . S
C577 H601 0.949 . S
H578 C582 0.949 . S
C579 C580 1.349 . S
C579 C581 1.327 . S
C579 H602 0.950 . S
C580 C579 1.349 . S
C580 C592 1.349 . S
C581 C579 1.327 . S
C581 C597 1.429 . S
C581 H603 0.950 . S
C582 H578 0.949 . S
C582 C590 1.574 1_554 S
C582 C598 1.368 . S
H583 C591 0.950 . S
H584 C589 0.950 . S
H585 C590 0.949 1_554 S
H586 C592 0.950 . S
H587 C593 0.950 . S
H588 C594 0.949 . S
C589 H584 0.950 . S
C589 C591 1.327 . S
C589 C595 1.429 . S
C590 C582 1.574 1_556 S
C590 H585 0.949 1_556 S
C590 C596 1.368 . S
C591 C575 1.349 1_455 S
C591 H583 0.950 . S
C591 C589 1.327 . S
C592 C580 1.349 . S
C592 H586 0.950 . S
C592 C593 1.327 . S
C593 H587 0.950 . S
C593 C592 1.327 . S
C593 C597 1.429 . S
C594 C577 1.574 . S
C594 H588 0.949 . S
C594 C598 1.368 1_556 S
C595 C576 1.429 . S
C595 C589 1.429 . S
C595 C596 1.523 . S
C596 C577 1.368 . S
C596 C590 1.368 . S
C596 C595 1.523 . S
C597 C581 1.429 . S
C597 C593 1.429 . S
C597 C598 1.523 . S
C598 C582 1.368 . S
C598 C594 1.368 1_554 S
C598 C597 1.523 . S
H599 C574 0.950 1_655 S
H600 C576 0.950 . S
H601 C577 0.949 . S
H602 C579 0.950 . S
H603 C581 0.950 . S
C604 C605 1.349 . S
C604 C606 1.327 . S
C604 H629 0.950 . S
C605 C604 1.349 . S
C605 C621 1.349 . S
C606 C604 1.327 . S
C606 C625 1.429 . S
C606 H630 0.950 . S
C607 C624 1.574 . S
C607 C626 1.368 . S
C607 H631 0.949 . S
H608 C612 0.949 . S
C609 C610 1.349 1_655 S
C609 C611 1.327 . S
C609 H632 0.950 1_655 S
C610 C609 1.349 1_455 S
C610 C622 1.349 1_455 S
C611 C609 1.327 . S
C611 C627 1.429 . S
C611 H633 0.950 . S
C612 H608 0.949 . S
C612 C620 1.574 . S
C612 C628 1.368 . S
H613 C621 0.950 . S
H614 C619 0.950 . S
H615 C620 0.949 . S
H616 C622 0.950 . S
H617 C623 0.950 . S
H618 C624 0.949 . S
C619 H614 0.950 . S
C619 C621 1.327 . S
C619 C625 1.429 . S
C620 C612 1.574 . S
C620 H615 0.949 . S
C620 C626 1.368 . S
C621 C605 1.349 . S
C621 H613 0.950 . S
C621 C619 1.327 . S
C622 C610 1.349 1_655 S
C622 H616 0.950 . S
C622 C623 1.327 . S
C623 H617 0.950 . S
C623 C622 1.327 . S
C623 C627 1.429 . S
C624 C607 1.574 . S
C624 H618 0.949 . S
C624 C628 1.368 . S
C625 C606 1.429 . S
C625 C619 1.429 . S
C625 C626 1.523 . S
C626 C607 1.368 . S
C626 C620 1.368 . S
C626 C625 1.523 . S
C627 C611 1.429 . S
C627 C623 1.429 . S
C627 C628 1.523 . S
C628 C612 1.368 . S
C628 C624 1.368 . S
C628 C627 1.523 . S
H629 C604 0.950 . S
H630 C606 0.950 . S
H631 C607 0.949 . S
H632 C609 0.950 1_455 S
H633 C611 0.950 . S
C634 C635 1.349 . S
C634 C636 1.327 . S
C634 H659 0.950 . S
C635 C634 1.349 . S
C635 C651 1.349 . S
C636 C634 1.327 . S
C636 C655 1.429 . S
C636 H660 0.950 . S
C637 C654 1.574 . S
C637 C656 1.368 . S
C637 H661 0.949 . S
H638 C642 0.949 . S
C639 C640 1.349 . S
C639 C641 1.327 . S
C639 H662 0.950 . S
C640 C639 1.349 . S
C640 C652 1.349 . S
C641 C639 1.327 . S
C641 C657 1.429 . S
C641 H663 0.950 . S
C642 H638 0.949 . S
C642 C650 1.574 . S
C642 C658 1.368 . S
H643 C651 0.950 . S
H644 C649 0.950 . S
H645 C650 0.949 . S
H646 C652 0.950 . S
H647 C653 0.950 . S
H648 C654 0.949 . S
C649 H644 0.950 . S
C649 C651 1.327 . S
C649 C655 1.429 . S
C650 C642 1.574 . S
C650 H645 0.949 . S
C650 C656 1.368 . S
C651 C635 1.349 . S
C651 H643 0.950 . S
C651 C649 1.327 . S
C652 C640 1.349 . S
C652 H646 0.950 . S
C652 C653 1.327 . S
C653 H647 0.950 . S
C653 C652 1.327 . S
C653 C657 1.429 . S
C654 C637 1.574 . S
C654 H648 0.949 . S
C654 C658 1.368 . S
C655 C636 1.429 . S
C655 C649 1.429 . S
C655 C656 1.523 . S
C656 C637 1.368 . S
C656 C650 1.368 . S
C656 C655 1.523 . S
C657 C641 1.429 . S
C657 C653 1.429 . S
C657 C658 1.523 . S
C658 C642 1.368 . S
C658 C654 1.368 . S
C658 C657 1.523 . S
H659 C634 0.950 . S
H660 C636 0.950 . S
H661 C637 0.949 . S
H662 C639 0.950 . S
H663 C641 0.950 . S
C664 C665 1.349 . S
C664 C666 1.327 . S
C664 H689 0.950 . S
C665 C664 1.349 . S
C665 C681 1.349 . S
C666 C664 1.327 . S
C666 C685 1.429 . S
C666 H690 0.950 . S
C667 C684 1.574 . S
C667 C686 1.368 1_554 S
C667 H691 0.949 . S
H668 C672 0.951 . S
C669 C670 1.349 . S
C669 C671 1.327 . S
C669 H692 0.950 . S
C670 C669 1.349 . S
C670 C682 1.349 . S
C671 C669 1.327 . S
C671 C687 1.429 . S
C671 H693 0.950 . S
C672 H668 0.951 . S
C672 C680 1.574 1_554 S
C672 C688 1.368 . S
H673 C681 0.950 . S
H674 C679 0.950 . S
H675 C680 0.949 . S
H676 C682 0.950 . S
H677 C683 0.950 . S
H678 C684 0.949 . S
C679 H674 0.950 . S
C679 C681 1.327 . S
C679 C685 1.429 . S
C680 C672 1.574 1_556 S
C680 H675 0.949 . S
C680 C686 1.368 . S
C681 C665 1.349 . S
C681 H673 0.950 . S
C681 C679 1.327 . S
C682 C670 1.349 . S
C682 H676 0.950 . S
C682 C683 1.327 . S
C683 H677 0.950 . S
C683 C682 1.327 . S
C683 C687 1.429 . S
C684 C667 1.574 . S
C684 H678 0.949 . S
C684 C688 1.368 . S
C685 C666 1.429 . S
C685 C679 1.429 . S
C685 C686 1.523 . S
C686 C667 1.368 1_556 S
C686 C680 1.368 . S
C686 C685 1.523 . S
C687 C671 1.429 . S
C687 C683 1.429 . S
C687 C688 1.523 . S
C688 C672 1.368 . S
C688 C684 1.368 . S
C688 C687 1.523 . S
H689 C664 0.950 . S
H690 C666 0.950 . S
H691 C667 0.949 . S
H692 C669 0.950 . S
H693 C671 0.950 . S
C694 C695 1.349 . S
C694 C696 1.327 . S
C694 H719 0.950 . S
C695 C694 1.349 . S
C695 C711 1.349 . S
C696 C694 1.327 . S
C696 C715 1.429 . S
C696 H720 0.950 . S
C697 C714 1.574 . S
C697 C716 1.368 1_554 S
C697 H721 0.949 . S
H698 C702 0.949 . S
C699 C700 1.349 1_655 S
C699 C701 1.327 . S
C699 H722 0.950 . S
C700 C699 1.349 1_455 S
C700 C712 1.349 1_455 S
C701 C699 1.327 . S
C701 C717 1.429 . S
C701 H723 0.950 . S
C702 H698 0.949 . S
C702 C710 1.574 1_554 S
C702 C718 1.368 . S
H703 C711 0.950 . S
H704 C709 0.950 . S
H705 C710 0.949 . S
H706 C712 0.950 1_455 S
H707 C713 0.950 . S
H708 C714 0.949 . S
C709 H704 0.950 . S
C709 C711 1.327 . S
C709 C715 1.429 . S
C710 C702 1.574 1_556 S
C710 H705 0.949 . S
C710 C716 1.368 . S
C711 C695 1.349 . S
C711 H703 0.950 . S
C711 C709 1.327 . S
C712 C700 1.349 1_655 S
C712 H706 0.950 1_655 S
C712 C713 1.327 . S
C713 H707 0.950 . S
C713 C712 1.327 . S
C713 C717 1.429 . S
C714 C697 1.574 . S
C714 H708 0.949 . S
C714 C718 1.368 . S
C715 C696 1.429 . S
C715 C709 1.429 . S
C715 C716 1.523 . S
C716 C697 1.368 1_556 S
C716 C710 1.368 . S
C716 C715 1.523 . S
C717 C701 1.429 . S
C717 C713 1.429 . S
C717 C718 1.523 . S
C718 C702 1.368 . S
C718 C714 1.368 . S
C718 C717 1.523 . S
H719 C694 0.950 . S
H720 C696 0.950 . S
H721 C697 0.949 . S
H722 C699 0.950 . S
H723 C701 0.950 . S
C724 C725 1.349 1_455 S
C724 C726 1.327 . S
C724 H749 0.950 . S
C725 C724 1.349 1_655 S
C725 C741 1.349 . S
C726 C724 1.327 . S
C726 C745 1.429 . S
C726 H750 0.950 . S
C727 C744 1.574 . S
C727 C746 1.368 . S
C727 H751 0.949 . S
H728 C732 0.949 . S
C729 C730 1.349 . S
C729 C731 1.327 . S
C729 H752 0.950 . S
C730 C729 1.349 . S
C730 C742 1.349 . S
C731 C729 1.327 . S
C731 C747 1.429 . S
C731 H753 0.950 . S
C732 H728 0.949 . S
C732 C740 1.574 . S
C732 C748 1.368 . S
H733 C741 0.950 . S
H734 C739 0.950 . S
H735 C740 0.949 . S
H736 C742 0.950 . S
H737 C743 0.950 . S
H738 C744 0.949 . S
C739 H734 0.950 . S
C739 C741 1.327 1_455 S
C739 C745 1.429 . S
C740 C732 1.574 . S
C740 H735 0.949 . S
C740 C746 1.368 . S
C741 C725 1.349 . S
C741 H733 0.950 . S
C741 C739 1.327 1_655 S
C742 C730 1.349 . S
C742 H736 0.950 . S
C742 C743 1.327 . S
C743 H737 0.950 . S
C743 C742 1.327 . S
C743 C747 1.429 . S
C744 C727 1.574 . S
C744 H738 0.949 . S
C744 C748 1.368 . S
C745 C726 1.429 . S
C745 C739 1.429 . S
C745 C746 1.523 . S
C746 C727 1.368 . S
C746 C740 1.368 . S
C746 C745 1.523 . S
C747 C731 1.429 . S
C747 C743 1.429 . S
C747 C748 1.523 . S
C748 C732 1.368 . S
C748 C744 1.368 . S
C748 C747 1.523 . S
H749 C724 0.950 . S
H750 C726 0.950 . S
H751 C727 0.949 . S
H752 C729 0.950 . S
H753 C731 0.950 . S
C754 C755 1.349 . S
C754 C756 1.327 . S
C754 H779 0.950 . S
C755 C754 1.349 . S
C755 C771 1.349 . S
C756 C754 1.327 . S
C756 C775 1.429 . S
C756 H780 0.950 . S
C757 C774 1.574 . S
C757 C776 1.368 . S
C757 H781 0.949 . S
H758 C762 0.949 . S
C759 C760 1.349 . S
C759 C761 1.327 . S
C759 H782 0.950 . S
C760 C759 1.349 . S
C760 C772 1.349 . S
C761 C759 1.327 . S
C761 C777 1.429 . S
C761 H783 0.950 . S
C762 H758 0.949 . S
C762 C770 1.574 . S
C762 C778 1.368 . S
H763 C771 0.950 . S
H764 C769 0.950 . S
H765 C770 0.949 . S
H766 C772 0.950 . S
H767 C773 0.950 . S
H768 C774 0.949 . S
C769 H764 0.950 . S
C769 C771 1.327 . S
C769 C775 1.429 . S
C770 C762 1.574 . S
C770 H765 0.949 . S
C770 C776 1.368 . S
C771 C755 1.349 . S
C771 H763 0.950 . S
C771 C769 1.327 . S
C772 C760 1.349 . S
C772 H766 0.950 . S
C772 C773 1.327 . S
C773 H767 0.950 . S
C773 C772 1.327 . S
C773 C777 1.429 . S
C774 C757 1.574 . S
C774 H768 0.949 . S
C774 C778 1.368 . S
C775 C756 1.429 . S
C775 C769 1.429 . S
C775 C776 1.523 . S
C776 C757 1.368 . S
C776 C770 1.368 . S
C776 C775 1.523 . S
C777 C761 1.429 . S
C777 C773 1.429 . S
C777 C778 1.523 . S
C778 C762 1.368 . S
C778 C774 1.368 . S
C778 C777 1.523 . S
H779 C754 0.950 . S
H780 C756 0.950 . S
H781 C757 0.949 . S
H782 C759 0.950 . S
H783 C761 0.950 . S
C784 C785 1.349 . S
C784 C786 1.327 . S
C784 H809 0.950 . S
C785 C784 1.349 . S
C785 C801 1.349 . S
C786 C784 1.327 . S
C786 C805 1.429 . S
C786 H810 0.950 . S
C787 C804 1.574 . S
C787 C806 1.368 1_556 S
C787 H811 0.949 . S
H788 C792 0.949 . S
C789 C790 1.349 1_655 S
C789 C791 1.327 . S
C789 H812 0.950 . S
C790 C789 1.349 1_455 S
C790 C802 1.349 . S
C791 C789 1.327 . S
C791 C807 1.429 . S
C791 H813 0.950 . S
C792 H788 0.949 . S
C792 C800 1.574 . S
C792 C808 1.368 1_554 S
H793 C801 0.950 . S
H794 C799 0.944 . S
H795 C800 0.949 . S
H796 C802 0.950 . S
H797 C803 0.950 . S
H798 C804 0.949 . S
C799 H794 0.944 . S
C799 C801 1.327 . S
C799 C805 1.429 . S
C800 C792 1.574 . S
C800 H795 0.949 . S
C800 C806 1.368 . S
C801 C785 1.349 . S
C801 H793 0.950 . S
C801 C799 1.327 . S
C802 C790 1.349 . S
C802 H796 0.950 . S
C802 C803 1.327 1_455 S
C803 H797 0.950 . S
C803 C802 1.327 1_655 S
C803 C807 1.429 . S
C804 C787 1.574 . S
C804 H798 0.949 . S
C804 C808 1.368 . S
C805 C786 1.429 . S
C805 C799 1.429 . S
C805 C806 1.523 . S
C806 C787 1.368 1_554 S
C806 C800 1.368 . S
C806 C805 1.523 . S
C807 C791 1.429 . S
C807 C803 1.429 . S
C807 C808 1.523 . S
C808 C792 1.368 1_556 S
C808 C804 1.368 . S
C808 C807 1.523 . S
H809 C784 0.950 . S
H810 C786 0.950 . S
H811 C787 0.949 . S
H812 C789 0.950 . S
H813 C791 0.950 . S
C814 C815 1.349 . S
C814 C816 1.327 . S
C814 H839 0.950 . S
C815 C814 1.349 . S
C815 C831 1.349 . S
C816 C814 1.327 . S
C816 C835 1.429 . S
C816 H840 0.950 . S
C817 C834 1.574 1_554 S
C817 C836 1.368 . S
C817 H841 0.949 . S
H818 C822 0.949 . S
C819 C820 1.349 . S
C819 C821 1.327 . S
C819 H842 0.950 . S
C820 C819 1.349 . S
C820 C832 1.349 . S
C821 C819 1.327 . S
C821 C837 1.429 . S
C821 H843 0.950 . S
C822 H818 0.949 . S
C822 C830 1.574 1_556 S
C822 C838 1.368 . S
H823 C831 0.950 . S
H824 C829 0.950 . S
H825 C830 0.949 . S
H826 C832 0.950 . S
H827 C833 0.950 . S
H828 C834 0.949 . S
C829 H824 0.950 . S
C829 C831 1.327 . S
C829 C835 1.429 . S
C830 C822 1.574 1_554 S
C830 H825 0.949 . S
C830 C836 1.368 . S
C831 C815 1.349 . S
C831 H823 0.950 . S
C831 C829 1.327 . S
C832 C820 1.349 . S
C832 H826 0.950 . S
C832 C833 1.327 . S
C833 H827 0.950 . S
C833 C832 1.327 . S
C833 C837 1.429 . S
C834 C817 1.574 1_556 S
C834 H828 0.949 . S
C834 C838 1.368 . S
C835 C816 1.429 . S
C835 C829 1.429 . S
C835 C836 1.523 . S
C836 C817 1.368 . S
C836 C830 1.368 . S
C836 C835 1.523 . S
C837 C821 1.429 . S
C837 C833 1.429 . S
C837 C838 1.523 . S
C838 C822 1.368 . S
C838 C834 1.368 . S
C838 C837 1.523 . S
H839 C814 0.950 . S
H840 C816 0.950 . S
H841 C817 0.949 . S
H842 C819 0.950 . S
H843 C821 0.950 . S
C844 C845 1.349 . S
C844 C846 1.327 . S
C844 H869 0.950 . S
C845 C844 1.349 . S
C845 C861 1.349 . S
C846 C844 1.327 . S
C846 C865 1.429 . S
C846 H870 0.950 . S
C847 C864 1.574 . S
C847 C866 1.368 . S
C847 H871 0.949 . S
H848 C852 0.949 . S
C849 C850 1.349 . S
C849 C851 1.327 . S
C849 H872 0.950 . S
C850 C849 1.349 . S
C850 C862 1.349 . S
C851 C849 1.327 . S
C851 C867 1.429 . S
C851 H873 0.950 . S
C852 H848 0.949 . S
C852 C860 1.574 . S
C852 C868 1.368 . S
H853 C861 0.950 . S
H854 C859 0.950 . S
H855 C860 0.949 . S
H856 C862 0.950 . S
H857 C863 0.950 . S
H858 C864 0.949 . S
C859 H854 0.950 . S
C859 C861 1.327 . S
C859 C865 1.429 . S
C860 C852 1.574 . S
C860 H855 0.949 . S
C860 C866 1.368 . S
C861 C845 1.349 . S
C861 H853 0.950 . S
C861 C859 1.327 . S
C862 C850 1.349 . S
C862 H856 0.950 . S
C862 C863 1.327 . S
C863 H857 0.950 . S
C863 C862 1.327 . S
C863 C867 1.429 . S
C864 C847 1.574 . S
C864 H858 0.949 . S
C864 C868 1.368 . S
C865 C846 1.429 . S
C865 C859 1.429 . S
C865 C866 1.523 . S
C866 C847 1.368 . S
C866 C860 1.368 . S
C866 C865 1.523 . S
C867 C851 1.429 . S
C867 C863 1.429 . S
C867 C868 1.523 . S
C868 C852 1.368 . S
C868 C864 1.368 . S
C868 C867 1.523 . S
H869 C844 0.950 . S
H870 C846 0.950 . S
H871 C847 0.949 . S
H872 C849 0.950 . S
H873 C851 0.950 . S
C874 C875 1.349 . S
C874 C876 1.327 . S
C874 H899 0.950 . S
C875 C874 1.349 . S
C875 C891 1.349 . S
C876 C874 1.327 . S
C876 C895 1.429 . S
C876 H900 0.950 . S
C877 C894 1.574 . S
C877 C896 1.368 . S
C877 H901 0.949 . S
H878 C882 0.949 . S
C879 C880 1.349 1_455 S
C879 C881 1.327 . S
C879 H902 0.950 1_455 S
C880 C879 1.349 1_655 S
C880 C892 1.349 1_655 S
C881 C879 1.327 . S
C881 C897 1.429 . S
C881 H903 0.950 . S
C882 H878 0.949 . S
C882 C890 1.574 . S
C882 C898 1.368 . S
H883 C891 0.950 . S
H884 C889 0.950 . S
H885 C890 0.949 . S
H886 C892 0.950 . S
H887 C893 0.950 . S
H888 C894 0.949 . S
C889 H884 0.950 . S
C889 C891 1.327 . S
C889 C895 1.429 . S
C890 C882 1.574 . S
C890 H885 0.949 . S
C890 C896 1.368 . S
C891 C875 1.349 . S
C891 H883 0.950 . S
C891 C889 1.327 . S
C892 C880 1.349 1_455 S
C892 H886 0.950 . S
C892 C893 1.327 . S
C893 H887 0.950 . S
C893 C892 1.327 . S
C893 C897 1.429 . S
C894 C877 1.574 . S
C894 H888 0.949 . S
C894 C898 1.368 . S
C895 C876 1.429 . S
C895 C889 1.429 . S
C895 C896 1.523 . S
C896 C877 1.368 . S
C896 C890 1.368 . S
C896 C895 1.523 . S
C897 C881 1.429 . S
C897 C893 1.429 . S
C897 C898 1.523 . S
C898 C882 1.368 . S
C898 C894 1.368 . S
C898 C897 1.523 . S
H899 C874 0.950 . S
H900 C876 0.950 . S
H901 C877 0.949 . S
H902 C879 0.950 1_655 S
H903 C881 0.950 . S
C904 C905 1.349 . S
C904 C906 1.327 . S
C904 H929 0.950 . S
C905 C904 1.349 . S
C905 C921 1.349 . S
C906 C904 1.327 . S
C906 C925 1.429 . S
C906 H930 0.950 . S
C907 C924 1.574 . S
C907 C926 1.368 1_554 S
C907 H931 0.949 . S
H908 C912 0.949 . S
C909 C910 1.349 1_455 S
C909 C911 1.327 . S
C909 H932 0.950 . S
C910 C909 1.349 1_655 S
C910 C922 1.349 . S
C911 C909 1.327 . S
C911 C927 1.429 . S
C911 H933 0.950 . S
C912 H908 0.949 . S
C912 C920 1.574 . S
C912 C928 1.368 1_556 S
H913 C921 0.950 . S
H914 C919 0.991 . S
H915 C920 0.949 . S
H916 C922 0.950 . S
H917 C923 0.950 . S
H918 C924 0.949 . S
C919 H914 0.991 . S
C919 C921 1.327 . S
C919 C925 1.429 . S
C920 C912 1.574 . S
C920 H915 0.949 . S
C920 C926 1.368 . S
C921 C905 1.349 . S
C921 H913 0.950 . S
C921 C919 1.327 . S
C922 C910 1.349 . S
C922 H916 0.950 . S
C922 C923 1.327 1_655 S
C923 H917 0.950 . S
C923 C922 1.327 1_455 S
C923 C927 1.429 . S
C924 C907 1.574 . S
C924 H918 0.949 . S
C924 C928 1.368 . S
C925 C906 1.429 . S
C925 C919 1.429 . S
C925 C926 1.523 . S
C926 C907 1.368 1_556 S
C926 C920 1.368 . S
C926 C925 1.523 . S
C927 C911 1.429 . S
C927 C923 1.429 . S
C927 C928 1.523 . S
C928 C912 1.368 1_554 S
C928 C924 1.368 . S
C928 C927 1.523 . S
H929 C904 0.950 . S
H930 C906 0.950 . S
H931 C907 0.949 . S
H932 C909 0.950 . S
H933 C911 0.950 . S
C934 C935 1.349 . S
C934 C936 1.327 . S
C934 H959 0.950 . S
C935 C934 1.349 . S
C935 C951 1.349 . S
C936 C934 1.327 . S
C936 C955 1.429 . S
C936 H960 0.950 . S
C937 C954 1.574 . S
C937 C956 1.368 1_554 S
C937 H961 0.949 . S
H938 C942 0.944 1_556 S
C939 C940 1.349 . S
C939 C941 1.327 . S
C939 H962 0.950 . S
C940 C939 1.349 . S
C940 C952 1.349 . S
C941 C939 1.327 . S
C941 C957 1.429 . S
C941 H963 0.950 . S
C942 H938 0.944 1_554 S
C942 C950 1.553 1_554 S
C942 C958 1.396 . S
H943 C951 0.950 . S
H944 C949 0.950 . S
H945 C950 0.949 . S
H946 C952 0.950 . S
H947 C953 0.950 . S
H948 C954 0.949 . S
C949 H944 0.950 . S
C949 C951 1.327 . S
C949 C955 1.429 . S
C950 C942 1.553 1_556 S
C950 H945 0.949 . S
C950 C956 1.368 . S
C951 C935 1.349 . S
C951 H943 0.950 . S
C951 C949 1.327 . S
C952 C940 1.349 . S
C952 H946 0.950 . S
C952 C953 1.327 . S
C953 H947 0.950 . S
C953 C952 1.327 . S
C953 C957 1.429 . S
C954 C937 1.574 . S
C954 H948 0.949 . S
C954 C958 1.368 . S
C955 C936 1.429 . S
C955 C949 1.429 . S
C955 C956 1.523 . S
C956 C937 1.368 1_556 S
C956 C950 1.368 . S
C956 C955 1.523 . S
C957 C941 1.429 . S
C957 C953 1.429 . S
C957 C958 1.523 . S
C958 C942 1.396 . S
C958 C954 1.368 . S
C958 C957 1.523 . S
H959 C934 0.950 . S
H960 C936 0.950 . S
H961 C937 0.949 . S
H962 C939 0.950 . S
H963 C941 0.950 . S
C964 C965 1.349 . S
C964 C966 1.327 . S
C964 H989 0.950 . S
C965 C964 1.349 . S
C965 C981 1.349 . S
C966 C964 1.327 . S
C966 C985 1.429 . S
C966 H990 0.950 . S
C967 C984 1.574 . S
C967 C986 1.368 . S
C967 H991 0.949 . S
H968 C972 0.949 . S
C969 C970 1.349 . S
C969 C971 1.327 . S
C969 H992 0.950 . S
C970 C969 1.349 . S
C970 C982 1.349 . S
C971 C969 1.327 . S
C971 C987 1.429 . S
C971 H993 0.950 . S
C972 H968 0.949 . S
C972 C980 1.574 . S
C972 C988 1.368 . S
H973 C981 0.950 . S
H974 C979 0.950 . S
H975 C980 0.949 . S
H976 C982 0.950 . S
H977 C983 0.950 . S
H978 C984 0.949 . S
C979 H974 0.950 . S
C979 C981 1.327 . S
C979 C985 1.429 . S
C980 C972 1.574 . S
C980 H975 0.949 . S
C980 C986 1.368 . S
C981 C965 1.349 . S
C981 H973 0.950 . S
C981 C979 1.327 . S
C982 C970 1.349 . S
C982 H976 0.950 . S
C982 C983 1.327 . S
C983 H977 0.950 . S
C983 C982 1.327 . S
C983 C987 1.429 . S
C984 C967 1.574 . S
C984 H978 0.949 . S
C984 C988 1.368 . S
C985 C966 1.429 . S
C985 C979 1.429 . S
C985 C986 1.523 . S
C986 C967 1.368 . S
C986 C980 1.368 . S
C986 C985 1.523 . S
C987 C971 1.429 . S
C987 C983 1.429 . S
C987 C988 1.523 . S
C988 C972 1.368 . S
C988 C984 1.368 . S
C988 C987 1.523 . S
H989 C964 0.950 . S
H990 C966 0.950 . S
H991 C967 0.949 . S
H992 C969 0.950 . S
H993 C971 0.950 . S
C994 C995 1.349 1_655 S
C994 C996 1.327 . S
C994 H1019 0.950 1_655 S
C995 C994 1.349 1_455 S
C995 C1011 1.349 1_455 S
C996 C994 1.327 . S
C996 C1015 1.429 . S
C996 H1020 0.950 . S
C997 C1014 1.574 . S
C997 C1016 1.368 . S
C997 H1021 0.949 . S
H998 C1002 0.949 . S
C999 C1000 1.349 . S
C999 C1001 1.327 . S
C999 H1022 0.950 . S
C1000 C999 1.349 . S
C1000 C1012 1.349 . S
C1001 C999 1.327 . S
C1001 C1017 1.429 . S
C1001 H1023 0.950 . S
C1002 H998 0.949 . S
C1002 C1010 1.574 . S
C1002 C1018 1.368 . S
H1003 C1011 0.950 . S
H1004 C1009 0.950 . S
H1005 C1010 0.949 . S
H1006 C1012 0.950 . S
H1007 C1013 0.950 . S
H1008 C1014 0.949 . S
C1009 H1004 0.950 . S
C1009 C1011 1.327 . S
C1009 C1015 1.429 . S
C1010 C1002 1.574 . S
C1010 H1005 0.949 . S
C1010 C1016 1.368 . S
C1011 C995 1.349 1_655 S
C1011 H1003 0.950 . S
C1011 C1009 1.327 . S
C1012 C1000 1.349 . S
C1012 H1006 0.950 . S
C1012 C1013 1.327 . S
C1013 H1007 0.950 . S
C1013 C1012 1.327 . S
C1013 C1017 1.429 . S
C1014 C997 1.574 . S
C1014 H1008 0.949 . S
C1014 C1018 1.368 . S
C1015 C996 1.429 . S
C1015 C1009 1.429 . S
C1015 C1016 1.523 . S
C1016 C997 1.368 . S
C1016 C1010 1.368 . S
C1016 C1015 1.523 . S
C1017 C1001 1.429 . S
C1017 C1013 1.429 . S
C1017 C1018 1.523 . S
C1018 C1002 1.368 . S
C1018 C1014 1.368 . S
C1018 C1017 1.523 . S
H1019 C994 0.950 1_455 S
H1020 C996 0.950 . S
H1021 C997 0.949 . S
H1022 C999 0.950 . S
H1023 C1001 0.950 . S
C1024 C1025 1.349 . S
C1024 C1026 1.327 . S
C1024 H1049 0.950 . S
C1025 C1024 1.349 . S
C1025 C1041 1.349 . S
C1026 C1024 1.327 . S
C1026 C1045 1.429 . S
C1026 H1050 0.950 . S
C1027 C1044 1.574 1_545 S
C1027 C1046 1.368 . S
C1027 H1051 0.949 . S
H1028 C1032 0.949 . S
C1029 C1030 1.349 . S
C1029 C1031 1.327 . S
C1029 H1052 0.950 . S
C1030 C1029 1.349 . S
C1030 C1042 1.349 . S
C1031 C1029 1.327 . S
C1031 C1047 1.429 . S
C1031 H1053 0.950 . S
C1032 H1028 0.949 . S
C1032 C1040 1.574 1_565 S
C1032 C1048 1.368 . S
H1033 C1041 0.950 . S
H1034 C1039 0.950 . S
H1035 C1040 0.949 . S
H1036 C1042 0.950 . S
H1037 C1043 0.950 . S
H1038 C1044 0.949 . S
C1039 H1034 0.950 . S
C1039 C1041 1.327 . S
C1039 C1045 1.429 . S
C1040 C1032 1.574 1_545 S
C1040 H1035 0.949 . S
C1040 C1046 1.368 . S
C1041 C1025 1.349 . S
C1041 H1033 0.950 . S
C1041 C1039 1.327 . S
C1042 C1030 1.349 . S
C1042 H1036 0.950 . S
C1042 C1043 1.327 . S
C1043 H1037 0.950 . S
C1043 C1042 1.327 . S
C1043 C1047 1.429 . S
C1044 C1027 1.574 1_565 S
C1044 H1038 0.949 . S
C1044 C1048 1.368 . S
C1045 C1026 1.429 . S
C1045 C1039 1.429 . S
C1045 C1046 1.523 . S
C1046 C1027 1.368 . S
C1046 C1040 1.368 . S
C1046 C1045 1.523 . S
C1047 C1031 1.429 . S
C1047 C1043 1.429 . S
C1047 C1048 1.523 . S
C1048 C1032 1.368 . S
C1048 C1044 1.368 . S
C1048 C1047 1.523 . S
H1049 C1024 0.950 . S
H1050 C1026 0.950 . S
H1051 C1027 0.949 . S
H1052 C1029 0.950 . S
H1053 C1031 0.950 . S
C1054 C1055 1.349 . S
C1054 C1056 1.327 . S
C1054 H1079 0.950 . S
C1055 C1054 1.349 . S
C1055 C1071 1.349 . S
C1056 C1054 1.327 . S
C1056 C1075 1.429 . S
C1056 H1080 0.950 . S
C1057 C1074 1.574 1_565 S
C1057 C1076 1.368 . S
C1057 H1081 0.949 . S
H1058 C1062 0.949 . S
C1059 C1060 1.349 . S
C1059 C1061 1.327 . S
C1059 H1082 0.950 . S
C1060 C1059 1.349 . S
C1060 C1072 1.349 . S
C1061 C1059 1.327 . S
C1061 C1077 1.429 . S
C1061 H1083 0.950 . S
C1062 H1058 0.949 . S
C1062 C1070 1.574 1_545 S
C1062 C1078 1.368 . S
H1063 C1071 0.950 . S
H1064 C1069 0.950 . S
H1065 C1070 0.949 . S
H1066 C1072 0.950 . S
H1067 C1073 0.950 . S
H1068 C1074 0.949 . S
C1069 H1064 0.950 . S
C1069 C1071 1.327 . S
C1069 C1075 1.429 . S
C1070 C1062 1.574 1_565 S
C1070 H1065 0.949 . S
C1070 C1076 1.368 . S
C1071 C1055 1.349 . S
C1071 H1063 0.950 . S
C1071 C1069 1.327 . S
C1072 C1060 1.349 . S
C1072 H1066 0.950 . S
C1072 C1073 1.327 . S
C1073 H1067 0.950 . S
C1073 C1072 1.327 . S
C1073 C1077 1.429 . S
C1074 C1057 1.574 1_545 S
C1074 H1068 0.949 . S
C1074 C1078 1.368 . S
C1075 C1056 1.429 . S
C1075 C1069 1.429 . S
C1075 C1076 1.523 . S
C1076 C1057 1.368 . S
C1076 C1070 1.368 . S
C1076 C1075 1.523 . S
C1077 C1061 1.429 . S
C1077 C1073 1.429 . S
C1077 C1078 1.523 . S
C1078 C1062 1.368 . S
C1078 C1074 1.368 . S
C1078 C1077 1.523 . S
H1079 C1054 0.950 . S
H1080 C1056 0.950 . S
H1081 C1057 0.949 . S
H1082 C1059 0.950 . S
H1083 C1061 0.950 . S
C1084 C1085 1.349 . S
C1084 C1086 1.327 . S
C1084 H1109 0.950 . S
C1085 C1084 1.349 . S
C1085 C1101 1.349 . S
C1086 C1084 1.327 . S
C1086 C1105 1.429 . S
C1086 H1110 0.950 . S
C1087 C1104 1.574 1_545 S
C1087 C1106 1.368 . S
C1087 H1111 0.949 . S
H1088 C1092 0.949 . S
C1089 C1090 1.349 . S
C1089 C1091 1.327 . S
C1089 H1112 0.950 . S
C1090 C1089 1.349 . S
C1090 C1102 1.349 . S
C1091 C1089 1.327 . S
C1091 C1107 1.429 . S
C1091 H1113 0.950 . S
C1092 H1088 0.949 . S
C1092 C1100 1.574 1_565 S
C1092 C1108 1.368 . S
H1093 C1101 0.950 . S
H1094 C1099 0.950 . S
H1095 C1100 0.949 . S
H1096 C1102 0.950 . S
H1097 C1103 0.950 . S
H1098 C1104 0.949 . S
C1099 H1094 0.950 . S
C1099 C1101 1.327 . S
C1099 C1105 1.429 . S
C1100 C1092 1.574 1_545 S
C1100 H1095 0.949 . S
C1100 C1106 1.368 . S
C1101 C1085 1.349 . S
C1101 H1093 0.950 . S
C1101 C1099 1.327 . S
C1102 C1090 1.349 . S
C1102 H1096 0.950 . S
C1102 C1103 1.327 . S
C1103 H1097 0.950 . S
C1103 C1102 1.327 . S
C1103 C1107 1.429 . S
C1104 C1087 1.574 1_565 S
C1104 H1098 0.949 . S
C1104 C1108 1.368 . S
C1105 C1086 1.429 . S
C1105 C1099 1.429 . S
C1105 C1106 1.523 . S
C1106 C1087 1.368 . S
C1106 C1100 1.368 . S
C1106 C1105 1.523 . S
C1107 C1091 1.429 . S
C1107 C1103 1.429 . S
C1107 C1108 1.523 . S
C1108 C1092 1.368 . S
C1108 C1104 1.368 . S
C1108 C1107 1.523 . S
H1109 C1084 0.950 . S
H1110 C1086 0.950 . S
H1111 C1087 0.949 . S
H1112 C1089 0.950 . S
H1113 C1091 0.950 . S
C1114 C1115 1.349 . S
C1114 C1116 1.327 . S
C1114 H1139 0.950 . S
C1115 C1114 1.349 . S
C1115 C1131 1.349 . S
C1116 C1114 1.327 . S
C1116 C1135 1.429 . S
C1116 H1140 0.950 . S
C1117 C1134 1.574 1_565 S
C1117 C1136 1.368 . S
C1117 H1141 0.949 . S
H1118 C1122 0.949 . S
C1119 C1120 1.349 . S
C1119 C1121 1.327 . S
C1119 H1142 0.950 . S
C1120 C1119 1.349 . S
C1120 C1132 1.349 . S
C1121 C1119 1.327 . S
C1121 C1137 1.429 . S
C1121 H1143 0.950 . S
C1122 H1118 0.949 . S
C1122 C1130 1.574 1_545 S
C1122 C1138 1.368 . S
H1123 C1131 0.950 . S
H1124 C1129 0.950 . S
H1125 C1130 0.949 . S
H1126 C1132 0.950 . S
H1127 C1133 0.950 . S
H1128 C1134 0.949 . S
C1129 H1124 0.950 . S
C1129 C1131 1.327 . S
C1129 C1135 1.429 . S
C1130 C1122 1.574 1_565 S
C1130 H1125 0.949 . S
C1130 C1136 1.368 . S
C1131 C1115 1.349 . S
C1131 H1123 0.950 . S
C1131 C1129 1.327 . S
C1132 C1120 1.349 . S
C1132 H1126 0.950 . S
C1132 C1133 1.327 . S
C1133 H1127 0.950 . S
C1133 C1132 1.327 . S
C1133 C1137 1.429 . S
C1134 C1117 1.574 1_545 S
C1134 H1128 0.949 . S
C1134 C1138 1.368 . S
C1135 C1116 1.429 . S
C1135 C1129 1.429 . S
C1135 C1136 1.523 . S
C1136 C1117 1.368 . S
C1136 C1130 1.368 . S
C1136 C1135 1.523 . S
C1137 C1121 1.429 . S
C1137 C1133 1.429 . S
C1137 C1138 1.523 . S
C1138 C1122 1.368 . S
C1138 C1134 1.368 . S
C1138 C1137 1.523 . S
H1139 C1114 0.950 . S
H1140 C1116 0.950 . S
H1141 C1117 0.949 . S
H1142 C1119 0.950 . S
H1143 C1121 0.950 . S
C1144 C1145 1.349 . S
C1144 C1146 1.327 . S
C1144 H1169 0.950 . S
C1145 C1144 1.349 . S
C1145 C1161 1.349 . S
C1146 C1144 1.327 . S
C1146 C1165 1.429 . S
C1146 H1170 0.950 . S
C1147 C1164 1.574 . S
C1147 C1166 1.368 . S
C1147 H1171 0.949 . S
H1148 C1152 0.949 . S
C1149 C1150 1.349 . S
C1149 C1151 1.327 . S
C1149 H1172 0.950 . S
C1150 C1149 1.349 . S
C1150 C1162 1.349 . S
C1151 C1149 1.327 . S
C1151 C1167 1.429 . S
C1151 H1173 0.950 . S
C1152 H1148 0.949 . S
C1152 C1160 1.574 . S
C1152 C1168 1.368 . S
H1153 C1161 0.950 . S
H1154 C1159 0.950 . S
H1155 C1160 0.949 . S
H1156 C1162 0.950 . S
H1157 C1163 0.950 . S
H1158 C1164 0.949 . S
C1159 H1154 0.950 . S
C1159 C1161 1.327 . S
C1159 C1165 1.429 . S
C1160 C1152 1.574 . S
C1160 H1155 0.949 . S
C1160 C1166 1.368 . S
C1161 C1145 1.349 . S
C1161 H1153 0.950 . S
C1161 C1159 1.327 . S
C1162 C1150 1.349 . S
C1162 H1156 0.950 . S
C1162 C1163 1.327 . S
C1163 H1157 0.950 . S
C1163 C1162 1.327 . S
C1163 C1167 1.429 . S
C1164 C1147 1.574 . S
C1164 H1158 0.949 . S
C1164 C1168 1.368 . S
C1165 C1146 1.429 . S
C1165 C1159 1.429 . S
C1165 C1166 1.523 . S
C1166 C1147 1.368 . S
C1166 C1160 1.368 . S
C1166 C1165 1.523 . S
C1167 C1151 1.429 . S
C1167 C1163 1.429 . S
C1167 C1168 1.523 . S
C1168 C1152 1.368 . S
C1168 C1164 1.368 . S
C1168 C1167 1.523 . S
H1169 C1144 0.950 . S
H1170 C1146 0.950 . S
H1171 C1147 0.949 . S
H1172 C1149 0.950 . S
H1173 C1151 0.950 . S
C1174 C1175 1.349 . S
C1174 C1176 1.327 . S
C1174 H1199 0.950 . S
C1175 C1174 1.349 . S
C1175 C1191 1.349 . S
C1176 C1174 1.327 . S
C1176 C1195 1.429 . S
C1176 H1200 0.950 . S
C1177 C1194 1.574 . S
C1177 C1196 1.368 . S
C1177 H1201 0.949 . S
H1178 C1182 0.949 . S
C1179 C1180 1.349 . S
C1179 C1181 1.327 . S
C1179 H1202 0.950 . S
C1180 C1179 1.349 . S
C1180 C1192 1.349 . S
C1181 C1179 1.327 . S
C1181 C1197 1.429 . S
C1181 H1203 0.950 . S
C1182 H1178 0.949 . S
C1182 C1190 1.574 . S
C1182 C1198 1.368 . S
H1183 C1191 0.950 . S
H1184 C1189 0.950 . S
H1185 C1190 0.949 . S
H1186 C1192 0.950 . S
H1187 C1193 0.950 . S
H1188 C1194 0.949 . S
C1189 H1184 0.950 . S
C1189 C1191 1.327 . S
C1189 C1195 1.429 . S
C1190 C1182 1.574 . S
C1190 H1185 0.949 . S
C1190 C1196 1.368 . S
C1191 C1175 1.349 . S
C1191 H1183 0.950 . S
C1191 C1189 1.327 . S
C1192 C1180 1.349 . S
C1192 H1186 0.950 . S
C1192 C1193 1.327 . S
C1193 H1187 0.950 . S
C1193 C1192 1.327 . S
C1193 C1197 1.429 . S
C1194 C1177 1.574 . S
C1194 H1188 0.949 . S
C1194 C1198 1.368 . S
C1195 C1176 1.429 . S
C1195 C1189 1.429 . S
C1195 C1196 1.523 . S
C1196 C1177 1.368 . S
C1196 C1190 1.368 . S
C1196 C1195 1.523 . S
C1197 C1181 1.429 . S
C1197 C1193 1.429 . S
C1197 C1198 1.523 . S
C1198 C1182 1.368 . S
C1198 C1194 1.368 . S
C1198 C1197 1.523 . S
H1199 C1174 0.950 . S
H1200 C1176 0.950 . S
H1201 C1177 0.949 . S
H1202 C1179 0.950 . S
H1203 C1181 0.950 . S
C1204 C1205 1.349 . S
C1204 C1206 1.327 . S
C1204 H1229 0.950 . S
C1205 C1204 1.349 . S
C1205 C1221 1.349 . S
C1206 C1204 1.327 . S
C1206 C1225 1.429 . S
C1206 H1230 0.950 . S
C1207 C1224 1.574 . S
C1207 C1226 1.368 . S
C1207 H1231 0.949 . S
H1208 C1212 0.949 . S
C1209 C1210 1.349 . S
C1209 C1211 1.327 . S
C1209 H1232 0.950 . S
C1210 C1209 1.349 . S
C1210 C1222 1.349 . S
C1211 C1209 1.327 . S
C1211 C1227 1.429 . S
C1211 H1233 0.950 . S
C1212 H1208 0.949 . S
C1212 C1220 1.574 . S
C1212 C1228 1.368 . S
H1213 C1221 0.950 . S
H1214 C1219 0.950 . S
H1215 C1220 0.949 . S
H1216 C1222 0.950 . S
H1217 C1223 0.950 . S
H1218 C1224 0.949 . S
C1219 H1214 0.950 . S
C1219 C1221 1.327 . S
C1219 C1225 1.429 . S
C1220 C1212 1.574 . S
C1220 H1215 0.949 . S
C1220 C1226 1.368 . S
C1221 C1205 1.349 . S
C1221 H1213 0.950 . S
C1221 C1219 1.327 . S
C1222 C1210 1.349 . S
C1222 H1216 0.950 . S
C1222 C1223 1.327 . S
C1223 H1217 0.950 . S
C1223 C1222 1.327 . S
C1223 C1227 1.429 . S
C1224 C1207 1.574 . S
C1224 H1218 0.949 . S
C1224 C1228 1.368 . S
C1225 C1206 1.429 . S
C1225 C1219 1.429 . S
C1225 C1226 1.523 . S
C1226 C1207 1.368 . S
C1226 C1220 1.368 . S
C1226 C1225 1.523 . S
C1227 C1211 1.429 . S
C1227 C1223 1.429 . S
C1227 C1228 1.523 . S
C1228 C1212 1.368 . S
C1228 C1224 1.368 . S
C1228 C1227 1.523 . S
H1229 C1204 0.950 . S
H1230 C1206 0.950 . S
H1231 C1207 0.949 . S
H1232 C1209 0.950 . S
H1233 C1211 0.950 . S
C1234 C1235 1.349 . S
C1234 C1236 1.327 . S
C1234 H1259 0.950 . S
C1235 C1234 1.349 . S
C1235 C1251 1.349 . S
C1236 C1234 1.327 . S
C1236 C1255 1.429 . S
C1236 H1260 0.950 . S
C1237 C1254 1.574 . S
C1237 C1256 1.368 . S
C1237 H1261 0.949 . S
H1238 C1242 0.949 . S
C1239 C1240 1.349 . S
C1239 C1241 1.327 . S
C1239 H1262 0.950 . S
C1240 C1239 1.349 . S
C1240 C1252 1.349 . S
C1241 C1239 1.327 . S
C1241 C1257 1.429 . S
C1241 H1263 0.950 . S
C1242 H1238 0.949 . S
C1242 C1250 1.574 . S
C1242 C1258 1.368 . S
H1243 C1251 0.950 . S
H1244 C1249 0.950 . S
H1245 C1250 0.949 . S
H1246 C1252 0.950 . S
H1247 C1253 0.950 . S
H1248 C1254 0.949 . S
C1249 H1244 0.950 . S
C1249 C1251 1.327 . S
C1249 C1255 1.429 . S
C1250 C1242 1.574 . S
C1250 H1245 0.949 . S
C1250 C1256 1.368 . S
C1251 C1235 1.349 . S
C1251 H1243 0.950 . S
C1251 C1249 1.327 . S
C1252 C1240 1.349 . S
C1252 H1246 0.950 . S
C1252 C1253 1.327 . S
C1253 H1247 0.950 . S
C1253 C1252 1.327 . S
C1253 C1257 1.429 . S
C1254 C1237 1.574 . S
C1254 H1248 0.949 . S
C1254 C1258 1.368 . S
C1255 C1236 1.429 . S
C1255 C1249 1.429 . S
C1255 C1256 1.523 . S
C1256 C1237 1.368 . S
C1256 C1250 1.368 . S
C1256 C1255 1.523 . S
C1257 C1241 1.429 . S
C1257 C1253 1.429 . S
C1257 C1258 1.523 . S
C1258 C1242 1.368 . S
C1258 C1254 1.368 . S
C1258 C1257 1.523 . S
H1259 C1234 0.950 . S
H1260 C1236 0.950 . S
H1261 C1237 0.949 . S
H1262 C1239 0.950 . S
H1263 C1241 0.950 . S
C1264 C1265 1.349 . S
C1264 C1266 1.327 . S
C1264 H1289 0.950 . S
C1265 C1264 1.349 . S
C1265 C1281 1.349 . S
C1266 C1264 1.327 . S
C1266 C1285 1.429 . S
C1266 H1290 0.950 . S
C1267 C1284 1.574 . S
C1267 C1286 1.368 1_455 S
C1267 H1291 0.949 . S
H1268 C1272 0.949 . S
C1269 C1270 1.349 . S
C1269 C1271 1.327 . S
C1269 H1292 0.950 . S
C1270 C1269 1.349 . S
C1270 C1282 1.349 . S
C1271 C1269 1.327 . S
C1271 C1287 1.429 . S
C1271 H1293 0.950 . S
C1272 H1268 0.949 . S
C1272 C1280 1.574 . S
C1272 C1288 1.368 1_655 S
H1273 C1281 0.950 . S
H1274 C1279 0.950 . S
H1275 C1280 0.949 . S
H1276 C1282 0.950 . S
H1277 C1283 0.950 . S
H1278 C1284 0.949 . S
C1279 H1274 0.950 . S
C1279 C1281 1.327 . S
C1279 C1285 1.429 . S
C1280 C1272 1.574 . S
C1280 H1275 0.949 . S
C1280 C1286 1.368 . S
C1281 C1265 1.349 . S
C1281 H1273 0.950 . S
C1281 C1279 1.327 . S
C1282 C1270 1.349 . S
C1282 H1276 0.950 . S
C1282 C1283 1.327 . S
C1283 H1277 0.950 . S
C1283 C1282 1.327 . S
C1283 C1287 1.429 . S
C1284 C1267 1.574 . S
C1284 H1278 0.949 . S
C1284 C1288 1.368 . S
C1285 C1266 1.429 . S
C1285 C1279 1.429 . S
C1285 C1286 1.523 . S
C1286 C1267 1.368 1_655 S
C1286 C1280 1.368 . S
C1286 C1285 1.523 . S
C1287 C1271 1.429 . S
C1287 C1283 1.429 . S
C1287 C1288 1.523 . S
C1288 C1272 1.368 1_455 S
C1288 C1284 1.368 . S
C1288 C1287 1.523 . S
H1289 C1264 0.950 . S
H1290 C1266 0.950 . S
H1291 C1267 0.949 . S
H1292 C1269 0.950 . S
H1293 C1271 0.950 . S
C1294 C1295 1.349 . S
C1294 C1296 1.327 . S
C1294 H1319 0.950 . S
C1295 C1294 1.349 . S
C1295 C1311 1.349 . S
C1296 C1294 1.327 . S
C1296 C1315 1.429 . S
C1296 H1320 0.950 . S
C1297 C1314 1.574 . S
C1297 C1316 1.368 . S
C1297 H1321 0.949 . S
H1298 C1302 0.949 . S
C1299 C1300 1.349 . S
C1299 C1301 1.327 . S
C1299 H1322 0.950 . S
C1300 C1299 1.349 . S
C1300 C1312 1.349 . S
C1301 C1299 1.327 . S
C1301 C1317 1.429 . S
C1301 H1323 0.950 . S
C1302 H1298 0.949 . S
C1302 C1310 1.574 . S
C1302 C1318 1.368 . S
H1303 C1311 0.950 . S
H1304 C1309 0.950 . S
H1305 C1310 0.949 . S
H1306 C1312 0.950 . S
H1307 C1313 0.950 . S
H1308 C1314 0.949 . S
C1309 H1304 0.950 . S
C1309 C1311 1.327 . S
C1309 C1315 1.429 . S
C1310 C1302 1.574 . S
C1310 H1305 0.949 . S
C1310 C1316 1.368 . S
C1311 C1295 1.349 . S
C1311 H1303 0.950 . S
C1311 C1309 1.327 . S
C1312 C1300 1.349 . S
C1312 H1306 0.950 . S
C1312 C1313 1.327 . S
C1313 H1307 0.950 . S
C1313 C1312 1.327 . S
C1313 C1317 1.429 . S
C1314 C1297 1.574 . S
C1314 H1308 0.949 . S
C1314 C1318 1.368 . S
C1315 C1296 1.429 . S
C1315 C1309 1.429 . S
C1315 C1316 1.523 . S
C1316 C1297 1.368 . S
C1316 C1310 1.368 . S
C1316 C1315 1.523 . S
C1317 C1301 1.429 . S
C1317 C1313 1.429 . S
C1317 C1318 1.523 . S
C1318 C1302 1.368 . S
C1318 C1314 1.368 . S
C1318 C1317 1.523 . S
H1319 C1294 0.950 . S
H1320 C1296 0.950 . S
H1321 C1297 0.949 . S
H1322 C1299 0.950 . S
H1323 C1301 0.950 . S
C1324 C1325 1.349 . S
C1324 C1326 1.327 . S
C1324 H1349 0.950 . S
C1325 C1324 1.349 . S
C1325 C1341 1.349 . S
C1326 C1324 1.327 . S
C1326 C1345 1.429 . S
C1326 H1350 0.950 . S
C1327 C1344 1.574 . S
C1327 C1346 1.368 . S
C1327 H1351 0.949 . S
H1328 C1332 0.949 . S
C1329 C1330 1.349 . S
C1329 C1331 1.327 . S
C1329 H1352 0.950 . S
C1330 C1329 1.349 . S
C1330 C1342 1.349 . S
C1331 C1329 1.327 . S
C1331 C1347 1.429 . S
C1331 H1353 0.950 . S
C1332 H1328 0.949 . S
C1332 C1340 1.574 . S
C1332 C1348 1.368 . S
H1333 C1341 0.950 . S
H1334 C1339 0.950 . S
H1335 C1340 0.949 . S
H1336 C1342 0.950 . S
H1337 C1343 0.950 . S
H1338 C1344 0.949 . S
C1339 H1334 0.950 . S
C1339 C1341 1.327 . S
C1339 C1345 1.429 . S
C1340 C1332 1.574 . S
C1340 H1335 0.949 . S
C1340 C1346 1.368 . S
C1341 C1325 1.349 . S
C1341 H1333 0.950 . S
C1341 C1339 1.327 . S
C1342 C1330 1.349 . S
C1342 H1336 0.950 . S
C1342 C1343 1.327 . S
C1343 H1337 0.950 . S
C1343 C1342 1.327 . S
C1343 C1347 1.429 . S
C1344 C1327 1.574 . S
C1344 H1338 0.949 . S
C1344 C1348 1.368 . S
C1345 C1326 1.429 . S
C1345 C1339 1.429 . S
C1345 C1346 1.523 . S
C1346 C1327 1.368 . S
C1346 C1340 1.368 . S
C1346 C1345 1.523 . S
C1347 C1331 1.429 . S
C1347 C1343 1.429 . S
C1347 C1348 1.523 . S
C1348 C1332 1.368 . S
C1348 C1344 1.368 . S
C1348 C1347 1.523 . S
H1349 C1324 0.950 . S
H1350 C1326 0.950 . S
H1351 C1327 0.949 . S
H1352 C1329 0.950 . S
H1353 C1331 0.950 . S
C1354 C1355 1.349 . S
C1354 C1356 1.327 . S
C1354 H1379 0.950 . S
C1355 C1354 1.349 . S
C1355 C1371 1.349 . S
C1356 C1354 1.327 . S
C1356 C1375 1.429 . S
C1356 H1380 0.950 . S
C1357 C1374 1.574 . S
C1357 C1376 1.368 . S
C1357 H1381 0.949 . S
H1358 C1362 0.949 . S
C1359 C1360 1.349 . S
C1359 C1361 1.327 . S
C1359 H1382 0.950 . S
C1360 C1359 1.349 . S
C1360 C1372 1.349 . S
C1361 C1359 1.327 . S
C1361 C1377 1.429 . S
C1361 H1383 0.950 . S
C1362 H1358 0.949 . S
C1362 C1370 1.574 . S
C1362 C1378 1.368 . S
H1363 C1371 0.950 . S
H1364 C1369 0.950 . S
H1365 C1370 0.949 . S
H1366 C1372 0.950 . S
H1367 C1373 0.950 . S
H1368 C1374 0.949 . S
C1369 H1364 0.950 . S
C1369 C1371 1.327 . S
C1369 C1375 1.429 . S
C1370 C1362 1.574 . S
C1370 H1365 0.949 . S
C1370 C1376 1.368 1_655 S
C1371 C1355 1.349 . S
C1371 H1363 0.950 . S
C1371 C1369 1.327 . S
C1372 C1360 1.349 . S
C1372 H1366 0.950 . S
C1372 C1373 1.327 . S
C1373 H1367 0.950 . S
C1373 C1372 1.327 . S
C1373 C1377 1.429 . S
C1374 C1357 1.574 . S
C1374 H1368 0.949 . S
C1374 C1378 1.368 1_455 S
C1375 C1356 1.429 . S
C1375 C1369 1.429 . S
C1375 C1376 1.523 . S
C1376 C1357 1.368 . S
C1376 C1370 1.368 1_455 S
C1376 C1375 1.523 . S
C1377 C1361 1.429 . S
C1377 C1373 1.429 . S
C1377 C1378 1.523 . S
C1378 C1362 1.368 . S
C1378 C1374 1.368 1_655 S
C1378 C1377 1.523 . S
H1379 C1354 0.950 . S
H1380 C1356 0.950 . S
H1381 C1357 0.949 . S
H1382 C1359 0.950 . S
H1383 C1361 0.950 . S
C1384 C1385 1.349 . S
C1384 C1386 1.327 . S
C1384 H1409 0.950 . S
C1385 C1384 1.349 . S
C1385 C1401 1.349 . S
C1386 C1384 1.327 . S
C1386 C1405 1.429 . S
C1386 H1410 0.950 . S
C1387 C1404 1.574 . S
C1387 C1406 1.368 . S
C1387 H1411 0.949 . S
H1388 C1392 0.949 . S
C1389 C1390 1.349 . S
C1389 C1391 1.327 . S
C1389 H1412 0.950 . S
C1390 C1389 1.349 . S
C1390 C1402 1.349 . S
C1391 C1389 1.327 . S
C1391 C1407 1.429 . S
C1391 H1413 0.950 . S
C1392 H1388 0.949 . S
C1392 C1400 1.574 . S
C1392 C1408 1.368 . S
H1393 C1401 0.950 . S
H1394 C1399 0.950 . S
H1395 C1400 0.949 . S
H1396 C1402 0.950 . S
H1397 C1403 0.950 . S
H1398 C1404 0.949 . S
C1399 H1394 0.950 . S
C1399 C1401 1.327 . S
C1399 C1405 1.429 . S
C1400 C1392 1.574 . S
C1400 H1395 0.949 . S
C1400 C1406 1.368 1_455 S
C1401 C1385 1.349 . S
C1401 H1393 0.950 . S
C1401 C1399 1.327 . S
C1402 C1390 1.349 . S
C1402 H1396 0.950 . S
C1402 C1403 1.327 . S
C1403 H1397 0.950 . S
C1403 C1402 1.327 . S
C1403 C1407 1.429 . S
C1404 C1387 1.574 . S
C1404 H1398 0.949 . S
C1404 C1408 1.368 1_655 S
C1405 C1386 1.429 . S
C1405 C1399 1.429 . S
C1405 C1406 1.523 . S
C1406 C1387 1.368 . S
C1406 C1400 1.368 1_655 S
C1406 C1405 1.523 . S
C1407 C1391 1.429 . S
C1407 C1403 1.429 . S
C1407 C1408 1.523 . S
C1408 C1392 1.368 . S
C1408 C1404 1.368 1_455 S
C1408 C1407 1.523 . S
H1409 C1384 0.950 . S
H1410 C1386 0.950 . S
H1411 C1387 0.949 . S
H1412 C1389 0.950 . S
H1413 C1391 0.950 . S
C1414 C1415 1.349 . S
C1414 C1416 1.327 . S
C1414 H1439 0.950 . S
C1415 C1414 1.349 . S
C1415 C1431 1.349 . S
C1416 C1414 1.327 . S
C1416 C1435 1.429 . S
C1416 H1440 0.950 . S
C1417 C1434 1.574 . S
C1417 C1436 1.368 . S
C1417 H1441 0.949 . S
H1418 C1422 0.949 . S
C1419 C1420 1.349 . S
C1419 C1421 1.327 . S
C1419 H1442 0.950 . S
C1420 C1419 1.349 . S
C1420 C1432 1.349 . S
C1421 C1419 1.327 . S
C1421 C1437 1.429 . S
C1421 H1443 0.950 . S
C1422 H1418 0.949 . S
C1422 C1430 1.574 . S
C1422 C1438 1.368 . S
H1423 C1431 0.950 . S
H1424 C1429 0.950 . S
H1425 C1430 0.949 . S
H1426 C1432 0.950 . S
H1427 C1433 0.950 . S
H1428 C1434 0.949 . S
C1429 H1424 0.950 . S
C1429 C1431 1.327 . S
C1429 C1435 1.429 . S
C1430 C1422 1.574 . S
C1430 H1425 0.949 . S
C1430 C1436 1.368 . S
C1431 C1415 1.349 . S
C1431 H1423 0.950 . S
C1431 C1429 1.327 . S
C1432 C1420 1.349 . S
C1432 H1426 0.950 . S
C1432 C1433 1.327 . S
C1433 H1427 0.950 . S
C1433 C1432 1.327 . S
C1433 C1437 1.429 . S
C1434 C1417 1.574 . S
C1434 H1428 0.949 . S
C1434 C1438 1.368 . S
C1435 C1416 1.429 . S
C1435 C1429 1.429 . S
C1435 C1436 1.523 . S
C1436 C1417 1.368 . S
C1436 C1430 1.368 . S
C1436 C1435 1.523 . S
C1437 C1421 1.429 . S
C1437 C1433 1.429 . S
C1437 C1438 1.523 . S
C1438 C1422 1.368 . S
C1438 C1434 1.368 . S
C1438 C1437 1.523 . S
H1439 C1414 0.950 . S
H1440 C1416 0.950 . S
H1441 C1417 0.949 . S
H1442 C1419 0.950 . S
H1443 C1421 0.950 . S
C1444 C1445 1.349 . S
C1444 C1446 1.327 . S
C1444 H1469 0.950 . S
C1445 C1444 1.349 . S
C1445 C1461 1.349 . S
C1446 C1444 1.327 . S
C1446 C1465 1.429 . S
C1446 H1470 0.950 . S
C1447 C1464 1.574 . S
C1447 C1466 1.368 . S
C1447 H1471 0.949 . S
H1448 C1452 0.949 . S
C1449 C1450 1.349 . S
C1449 C1451 1.327 . S
C1449 H1472 0.950 . S
C1450 C1449 1.349 . S
C1450 C1462 1.349 . S
C1451 C1449 1.327 . S
C1451 C1467 1.429 . S
C1451 H1473 0.950 . S
C1452 H1448 0.949 . S
C1452 C1460 1.574 . S
C1452 C1468 1.368 . S
H1453 C1461 0.950 . S
H1454 C1459 0.950 . S
H1455 C1460 0.949 . S
H1456 C1462 0.950 . S
H1457 C1463 0.950 . S
H1458 C1464 0.949 . S
C1459 H1454 0.950 . S
C1459 C1461 1.327 . S
C1459 C1465 1.429 . S
C1460 C1452 1.574 . S
C1460 H1455 0.949 . S
C1460 C1466 1.368 . S
C1461 C1445 1.349 . S
C1461 H1453 0.950 . S
C1461 C1459 1.327 . S
C1462 C1450 1.349 . S
C1462 H1456 0.950 . S
C1462 C1463 1.327 . S
C1463 H1457 0.950 . S
C1463 C1462 1.327 . S
C1463 C1467 1.429 . S
C1464 C1447 1.574 . S
C1464 H1458 0.949 . S
C1464 C1468 1.368 . S
C1465 C1446 1.429 . S
C1465 C1459 1.429 . S
C1465 C1466 1.523 . S
C1466 C1447 1.368 . S
C1466 C1460 1.368 . S
C1466 C1465 1.523 . S
C1467 C1451 1.429 . S
C1467 C1463 1.429 . S
C1467 C1468 1.523 . S
C1468 C1452 1.368 . S
C1468 C1464 1.368 . S
C1468 C1467 1.523 . S
H1469 C1444 0.950 . S
H1470 C1446 0.950 . S
H1471 C1447 0.949 . S
H1472 C1449 0.950 . S
H1473 C1451 0.950 . S
C1474 C1475 1.349 . S
C1474 C1476 1.327 . S
C1474 H1499 0.950 . S
C1475 C1474 1.349 . S
C1475 C1491 1.349 . S
C1476 C1474 1.327 . S
C1476 C1495 1.429 . S
C1476 H1500 0.950 . S
C1477 C1494 1.574 . S
C1477 C1496 1.368 . S
C1477 H1501 0.949 . S
H1478 C1482 0.949 . S
C1479 C1480 1.349 . S
C1479 C1481 1.327 . S
C1479 H1502 0.950 . S
C1480 C1479 1.349 . S
C1480 C1492 1.349 . S
C1481 C1479 1.327 . S
C1481 C1497 1.429 . S
C1481 H1503 0.950 . S
C1482 H1478 0.949 . S
C1482 C1490 1.574 . S
C1482 C1498 1.368 . S
H1483 C1491 0.950 . S
H1484 C1489 0.950 . S
H1485 C1490 0.949 . S
H1486 C1492 0.950 . S
H1487 C1493 0.950 . S
H1488 C1494 0.949 . S
C1489 H1484 0.950 . S
C1489 C1491 1.327 . S
C1489 C1495 1.429 . S
C1490 C1482 1.574 . S
C1490 H1485 0.949 . S
C1490 C1496 1.368 1_455 S
C1491 C1475 1.349 . S
C1491 H1483 0.950 . S
C1491 C1489 1.327 . S
C1492 C1480 1.349 . S
C1492 H1486 0.950 . S
C1492 C1493 1.327 . S
C1493 H1487 0.950 . S
C1493 C1492 1.327 . S
C1493 C1497 1.429 . S
C1494 C1477 1.574 . S
C1494 H1488 0.949 . S
C1494 C1498 1.368 1_655 S
C1495 C1476 1.429 . S
C1495 C1489 1.429 . S
C1495 C1496 1.523 . S
C1496 C1477 1.368 . S
C1496 C1490 1.368 1_655 S
C1496 C1495 1.523 . S
C1497 C1481 1.429 . S
C1497 C1493 1.429 . S
C1497 C1498 1.523 . S
C1498 C1482 1.368 . S
C1498 C1494 1.368 1_455 S
C1498 C1497 1.523 . S
H1499 C1474 0.950 . S
H1500 C1476 0.950 . S
H1501 C1477 0.949 . S
H1502 C1479 0.950 . S
H1503 C1481 0.950 . S
C1504 C1505 1.349 . S
C1504 C1506 1.327 . S
C1504 H1529 0.950 . S
C1505 C1504 1.349 . S
C1505 C1521 1.349 . S
C1506 C1504 1.327 . S
C1506 C1525 1.429 . S
C1506 H1530 0.950 . S
C1507 C1524 1.574 . S
C1507 C1526 1.368 1_655 S
C1507 H1531 0.949 . S
H1508 C1512 0.949 . S
C1509 C1510 1.349 . S
C1509 C1511 1.327 . S
C1509 H1532 0.950 . S
C1510 C1509 1.349 . S
C1510 C1522 1.349 . S
C1511 C1509 1.327 . S
C1511 C1527 1.429 . S
C1511 H1533 0.950 . S
C1512 H1508 0.949 . S
C1512 C1520 1.574 . S
C1512 C1528 1.368 1_455 S
H1513 C1521 0.950 . S
H1514 C1519 0.950 1_655 S
H1515 C1520 0.949 . S
H1516 C1522 0.950 . S
H1517 C1523 0.950 1_455 S
H1518 C1524 0.949 . S
C1519 H1514 0.950 1_455 S
C1519 C1521 1.327 . S
C1519 C1525 1.429 . S
C1520 C1512 1.574 . S
C1520 H1515 0.949 . S
C1520 C1526 1.368 . S
C1521 C1505 1.349 . S
C1521 H1513 0.950 . S
C1521 C1519 1.327 . S
C1522 C1510 1.349 . S
C1522 H1516 0.950 . S
C1522 C1523 1.327 . S
C1523 H1517 0.950 1_655 S
C1523 C1522 1.327 . S
C1523 C1527 1.429 . S
C1524 C1507 1.574 . S
C1524 H1518 0.949 . S
C1524 C1528 1.368 . S
C1525 C1506 1.429 . S
C1525 C1519 1.429 . S
C1525 C1526 1.523 . S
C1526 C1507 1.368 1_455 S
C1526 C1520 1.368 . S
C1526 C1525 1.523 . S
C1527 C1511 1.429 . S
C1527 C1523 1.429 . S
C1527 C1528 1.523 . S
C1528 C1512 1.368 1_655 S
C1528 C1524 1.368 . S
C1528 C1527 1.523 . S
H1529 C1504 0.950 . S
H1530 C1506 0.950 . S
H1531 C1507 0.949 . S
H1532 C1509 0.950 . S
H1533 C1511 0.950 . S
C1534 C1535 1.349 . S
C1534 C1536 1.327 . S
C1534 H1559 0.950 . S
C1535 C1534 1.349 . S
C1535 C1551 1.349 . S
C1536 C1534 1.327 . S
C1536 C1555 1.429 . S
C1536 H1560 0.950 . S
C1537 C1554 1.574 . S
C1537 C1556 1.368 . S
C1537 H1561 0.949 . S
H1538 C1542 0.949 . S
C1539 C1540 1.349 . S
C1539 C1541 1.327 . S
C1539 H1562 0.950 . S
C1540 C1539 1.349 . S
C1540 C1552 1.349 . S
C1541 C1539 1.327 . S
C1541 C1557 1.429 . S
C1541 H1563 0.950 . S
C1542 H1538 0.949 . S
C1542 C1550 1.574 . S
C1542 C1558 1.368 . S
H1543 C1551 0.950 . S
H1544 C1549 0.950 . S
H1545 C1550 0.949 . S
H1546 C1552 0.950 . S
H1547 C1553 0.950 . S
H1548 C1554 0.949 . S
C1549 H1544 0.950 . S
C1549 C1551 1.327 . S
C1549 C1555 1.429 . S
C1550 C1542 1.574 . S
C1550 H1545 0.949 . S
C1550 C1556 1.368 . S
C1551 C1535 1.349 . S
C1551 H1543 0.950 . S
C1551 C1549 1.327 . S
C1552 C1540 1.349 . S
C1552 H1546 0.950 . S
C1552 C1553 1.327 . S
C1553 H1547 0.950 . S
C1553 C1552 1.327 . S
C1553 C1557 1.429 . S
C1554 C1537 1.574 . S
C1554 H1548 0.949 . S
C1554 C1558 1.368 . S
C1555 C1536 1.429 . S
C1555 C1549 1.429 . S
C1555 C1556 1.523 . S
C1556 C1537 1.368 . S
C1556 C1550 1.368 . S
C1556 C1555 1.523 . S
C1557 C1541 1.429 . S
C1557 C1553 1.429 . S
C1557 C1558 1.523 . S
C1558 C1542 1.368 . S
C1558 C1554 1.368 . S
C1558 C1557 1.523 . S
H1559 C1534 0.950 . S
H1560 C1536 0.950 . S
H1561 C1537 0.949 . S
H1562 C1539 0.950 . S
H1563 C1541 0.950 . S
C1564 C1565 1.349 . S
C1564 C1566 1.327 . S
C1564 H1589 0.950 . S
C1565 C1564 1.349 . S
C1565 C1581 1.349 . S
C1566 C1564 1.327 . S
C1566 C1585 1.429 . S
C1566 H1590 0.950 1_655 S
C1567 C1584 1.574 . S
C1567 C1586 1.368 . S
C1567 H1591 0.949 . S
H1568 C1572 0.949 . S
C1569 C1570 1.349 . S
C1569 C1571 1.327 . S
C1569 H1592 0.950 . S
C1570 C1569 1.349 . S
C1570 C1582 1.349 . S
C1571 C1569 1.327 . S
C1571 C1587 1.429 . S
C1571 H1593 0.950 1_455 S
C1572 H1568 0.949 . S
C1572 C1580 1.574 . S
C1572 C1588 1.368 . S
H1573 C1581 0.950 . S
H1574 C1579 0.950 . S
H1575 C1580 0.949 . S
H1576 C1582 0.950 . S
H1577 C1583 0.950 . S
H1578 C1584 0.949 . S
C1579 H1574 0.950 . S
C1579 C1581 1.327 . S
C1579 C1585 1.429 . S
C1580 C1572 1.574 . S
C1580 H1575 0.949 . S
C1580 C1586 1.368 1_455 S
C1581 C1565 1.349 . S
C1581 H1573 0.950 . S
C1581 C1579 1.327 . S
C1582 C1570 1.349 . S
C1582 H1576 0.950 . S
C1582 C1583 1.327 . S
C1583 H1577 0.950 . S
C1583 C1582 1.327 . S
C1583 C1587 1.429 . S
C1584 C1567 1.574 . S
C1584 H1578 0.949 . S
C1584 C1588 1.368 1_655 S
C1585 C1566 1.429 . S
C1585 C1579 1.429 . S
C1585 C1586 1.523 . S
C1586 C1567 1.368 . S
C1586 C1580 1.368 1_655 S
C1586 C1585 1.523 . S
C1587 C1571 1.429 . S
C1587 C1583 1.429 . S
C1587 C1588 1.523 . S
C1588 C1572 1.368 . S
C1588 C1584 1.368 1_455 S
C1588 C1587 1.523 . S
H1589 C1564 0.950 . S
H1590 C1566 0.950 1_455 S
H1591 C1567 0.949 . S
H1592 C1569 0.950 . S
H1593 C1571 0.950 1_655 S
C1594 C1595 1.349 . S
C1594 C1596 1.327 . S
C1594 H1619 0.950 . S
C1595 C1594 1.349 . S
C1595 C1611 1.349 . S
C1596 C1594 1.327 . S
C1596 C1615 1.429 . S
C1596 H1620 0.950 . S
C1597 C1614 1.574 . S
C1597 C1616 1.368 . S
C1597 H1621 0.949 . S
H1598 C1602 0.949 . S
C1599 C1600 1.349 . S
C1599 C1601 1.327 . S
C1599 H1622 0.950 . S
C1600 C1599 1.349 . S
C1600 C1612 1.349 . S
C1601 C1599 1.327 . S
C1601 C1617 1.429 . S
C1601 H1623 0.950 . S
C1602 H1598 0.949 . S
C1602 C1610 1.574 . S
C1602 C1618 1.368 . S
H1603 C1611 0.950 . S
H1604 C1609 0.950 . S
H1605 C1610 0.949 . S
H1606 C1612 0.950 . S
H1607 C1613 0.950 . S
H1608 C1614 0.949 . S
C1609 H1604 0.950 . S
C1609 C1611 1.327 . S
C1609 C1615 1.429 . S
C1610 C1602 1.574 . S
C1610 H1605 0.949 . S
C1610 C1616 1.368 . S
C1611 C1595 1.349 . S
C1611 H1603 0.950 . S
C1611 C1609 1.327 . S
C1612 C1600 1.349 . S
C1612 H1606 0.950 . S
C1612 C1613 1.327 . S
C1613 H1607 0.950 . S
C1613 C1612 1.327 . S
C1613 C1617 1.429 . S
C1614 C1597 1.574 . S
C1614 H1608 0.949 . S
C1614 C1618 1.368 . S
C1615 C1596 1.429 . S
C1615 C1609 1.429 . S
C1615 C1616 1.523 . S
C1616 C1597 1.368 . S
C1616 C1610 1.368 . S
C1616 C1615 1.523 . S
C1617 C1601 1.429 . S
C1617 C1613 1.429 . S
C1617 C1618 1.523 . S
C1618 C1602 1.368 . S
C1618 C1614 1.368 . S
C1618 C1617 1.523 . S
H1619 C1594 0.950 . S
H1620 C1596 0.950 . S
H1621 C1597 0.949 . S
H1622 C1599 0.950 . S
H1623 C1601 0.950 . S
C1624 C1625 1.349 . S
C1624 C1626 1.327 . S
C1624 H1649 0.950 . S
C1625 C1624 1.349 . S
C1625 C1641 1.349 . S
C1626 C1624 1.327 . S
C1626 C1645 1.429 . S
C1626 H1650 0.950 . S
C1627 C1644 1.574 . S
C1627 C1646 1.368 . S
C1627 H1651 0.949 . S
H1628 C1632 0.949 . S
C1629 C1630 1.349 . S
C1629 C1631 1.327 . S
C1629 H1652 0.950 . S
C1630 C1629 1.349 . S
C1630 C1642 1.349 . S
C1631 C1629 1.327 . S
C1631 C1647 1.429 . S
C1631 H1653 0.950 . S
C1632 H1628 0.949 . S
C1632 C1640 1.574 . S
C1632 C1648 1.368 . S
H1633 C1641 0.950 . S
H1634 C1639 0.950 . S
H1635 C1640 0.949 . S
H1636 C1642 0.950 . S
H1637 C1643 0.950 . S
H1638 C1644 0.949 . S
C1639 H1634 0.950 . S
C1639 C1641 1.327 . S
C1639 C1645 1.429 . S
C1640 C1632 1.574 . S
C1640 H1635 0.949 . S
C1640 C1646 1.368 . S
C1641 C1625 1.349 . S
C1641 H1633 0.950 . S
C1641 C1639 1.327 . S
C1642 C1630 1.349 . S
C1642 H1636 0.950 . S
C1642 C1643 1.327 . S
C1643 H1637 0.950 . S
C1643 C1642 1.327 . S
C1643 C1647 1.429 . S
C1644 C1627 1.574 . S
C1644 H1638 0.949 . S
C1644 C1648 1.368 . S
C1645 C1626 1.429 . S
C1645 C1639 1.429 . S
C1645 C1646 1.523 . S
C1646 C1627 1.368 . S
C1646 C1640 1.368 . S
C1646 C1645 1.523 . S
C1647 C1631 1.429 . S
C1647 C1643 1.429 . S
C1647 C1648 1.523 . S
C1648 C1632 1.368 . S
C1648 C1644 1.368 . S
C1648 C1647 1.523 . S
H1649 C1624 0.950 . S
H1650 C1626 0.950 . S
H1651 C1627 0.949 . S
H1652 C1629 0.950 . S
H1653 C1631 0.950 . S
C1654 C1655 1.349 . S
C1654 C1656 1.327 . S
C1654 H1679 0.950 . S
C1655 C1654 1.349 . S
C1655 C1671 1.349 . S
C1656 C1654 1.327 . S
C1656 C1675 1.429 . S
C1656 H1680 0.950 . S
C1657 C1674 1.574 . S
C1657 C1676 1.368 1_655 S
C1657 H1681 0.949 . S
H1658 C1662 0.949 . S
C1659 C1660 1.349 . S
C1659 C1661 1.327 . S
C1659 H1682 0.950 . S
C1660 C1659 1.349 . S
C1660 C1672 1.349 . S
C1661 C1659 1.327 . S
C1661 C1677 1.429 . S
C1661 H1683 0.950 . S
C1662 H1658 0.949 . S
C1662 C1670 1.574 . S
C1662 C1678 1.368 1_455 S
H1663 C1671 0.950 . S
H1664 C1669 0.950 1_655 S
H1665 C1670 0.949 . S
H1666 C1672 0.950 . S
H1667 C1673 0.950 1_455 S
H1668 C1674 0.949 . S
C1669 H1664 0.950 1_455 S
C1669 C1671 1.327 . S
C1669 C1675 1.429 . S
C1670 C1662 1.574 . S
C1670 H1665 0.949 . S
C1670 C1676 1.368 . S
C1671 C1655 1.349 . S
C1671 H1663 0.950 . S
C1671 C1669 1.327 . S
C1672 C1660 1.349 . S
C1672 H1666 0.950 . S
C1672 C1673 1.327 . S
C1673 H1667 0.950 1_655 S
C1673 C1672 1.327 . S
C1673 C1677 1.429 . S
C1674 C1657 1.574 . S
C1674 H1668 0.949 . S
C1674 C1678 1.368 . S
C1675 C1656 1.429 . S
C1675 C1669 1.429 . S
C1675 C1676 1.523 . S
C1676 C1657 1.368 1_455 S
C1676 C1670 1.368 . S
C1676 C1675 1.523 . S
C1677 C1661 1.429 . S
C1677 C1673 1.429 . S
C1677 C1678 1.523 . S
C1678 C1662 1.368 1_655 S
C1678 C1674 1.368 . S
C1678 C1677 1.523 . S
H1679 C1654 0.950 . S
H1680 C1656 0.950 . S
H1681 C1657 0.949 . S
H1682 C1659 0.950 . S
H1683 C1661 0.950 . S
C1684 C1685 1.349 . S
C1684 C1686 1.327 . S
C1684 H1709 0.950 . S
C1685 C1684 1.349 . S
C1685 C1701 1.349 . S
C1686 C1684 1.327 . S
C1686 C1705 1.429 . S
C1686 H1710 0.950 . S
C1687 C1704 1.574 . S
C1687 C1706 1.368 . S
C1687 H1711 0.949 . S
H1688 C1692 0.949 . S
C1689 C1690 1.349 . S
C1689 C1691 1.327 . S
C1689 H1712 0.950 . S
C1690 C1689 1.349 . S
C1690 C1702 1.349 . S
C1691 C1689 1.327 . S
C1691 C1707 1.429 . S
C1691 H1713 0.950 . S
C1692 H1688 0.949 . S
C1692 C1700 1.574 . S
C1692 C1708 1.368 . S
H1693 C1701 0.950 . S
H1694 C1699 0.950 . S
H1695 C1700 0.949 . S
H1696 C1702 0.950 . S
H1697 C1703 0.950 . S
H1698 C1704 0.949 . S
C1699 H1694 0.950 . S
C1699 C1701 1.327 . S
C1699 C1705 1.429 . S
C1700 C1692 1.574 . S
C1700 H1695 0.949 . S
C1700 C1706 1.368 . S
C1701 C1685 1.349 . S
C1701 H1693 0.950 . S
C1701 C1699 1.327 . S
C1702 C1690 1.349 . S
C1702 H1696 0.950 . S
C1702 C1703 1.327 . S
C1703 H1697 0.950 . S
C1703 C1702 1.327 . S
C1703 C1707 1.429 . S
C1704 C1687 1.574 . S
C1704 H1698 0.949 . S
C1704 C1708 1.368 . S
C1705 C1686 1.429 . S
C1705 C1699 1.429 . S
C1705 C1706 1.523 . S
C1706 C1687 1.368 . S
C1706 C1700 1.368 . S
C1706 C1705 1.523 . S
C1707 C1691 1.429 . S
C1707 C1703 1.429 . S
C1707 C1708 1.523 . S
C1708 C1692 1.368 . S
C1708 C1704 1.368 . S
C1708 C1707 1.523 . S
H1709 C1684 0.950 . S
H1710 C1686 0.950 . S
H1711 C1687 0.949 . S
H1712 C1689 0.950 . S
H1713 C1691 0.950 . S
C1714 C1715 1.349 . S
C1714 C1716 1.327 . S
C1714 H1739 0.950 . S
C1715 C1714 1.349 . S
C1715 C1731 1.349 . S
C1716 C1714 1.327 . S
C1716 C1735 1.429 . S
C1716 H1740 0.950 1_455 S
C1717 C1734 1.574 . S
C1717 C1736 1.368 . S
C1717 H1741 0.949 . S
H1718 C1722 0.949 . S
C1719 C1720 1.349 . S
C1719 C1721 1.327 . S
C1719 H1742 0.950 . S
C1720 C1719 1.349 . S
C1720 C1732 1.349 . S
C1721 C1719 1.327 . S
C1721 C1737 1.429 . S
C1721 H1743 0.950 1_655 S
C1722 H1718 0.949 . S
C1722 C1730 1.574 . S
C1722 C1738 1.368 . S
H1723 C1731 0.950 . S
H1724 C1729 0.950 . S
H1725 C1730 0.949 . S
H1726 C1732 0.950 . S
H1727 C1733 0.950 . S
H1728 C1734 0.949 . S
C1729 H1724 0.950 . S
C1729 C1731 1.327 . S
C1729 C1735 1.429 . S
C1730 C1722 1.574 . S
C1730 H1725 0.949 . S
C1730 C1736 1.368 1_655 S
C1731 C1715 1.349 . S
C1731 H1723 0.950 . S
C1731 C1729 1.327 . S
C1732 C1720 1.349 . S
C1732 H1726 0.950 . S
C1732 C1733 1.327 . S
C1733 H1727 0.950 . S
C1733 C1732 1.327 . S
C1733 C1737 1.429 . S
C1734 C1717 1.574 . S
C1734 H1728 0.949 . S
C1734 C1738 1.368 1_455 S
C1735 C1716 1.429 . S
C1735 C1729 1.429 . S
C1735 C1736 1.523 . S
C1736 C1717 1.368 . S
C1736 C1730 1.368 1_455 S
C1736 C1735 1.523 . S
C1737 C1721 1.429 . S
C1737 C1733 1.429 . S
C1737 C1738 1.523 . S
C1738 C1722 1.368 . S
C1738 C1734 1.368 1_655 S
C1738 C1737 1.523 . S
H1739 C1714 0.950 . S
H1740 C1716 0.950 1_655 S
H1741 C1717 0.949 . S
H1742 C1719 0.950 . S
H1743 C1721 0.950 1_455 S
C545 C203 0.999 . S
C550 C20 0.998 . S
C575 C169 0.999 . S
C580 C54 0.998 . S
C605 C88 0.998 . S
C610 C271 0.999 . S
C635 C122 0.998 . S
C640 C237 0.999 . S
C665 C156 0.998 . S
C670 C67 0.999 . S
C695 C190 0.998 . S
C700 C33 0.999 . S
C725 C135 0.999 . S
C730 C224 0.998 . S
C755 C258 0.998 . S
C760 C101 0.999 . S
C785 C292 0.998 . S
C790 C475 0.999 . S
C815 C326 0.998 . S
C820 C441 0.999 . S
C845 C360 0.998 . S
C850 C543 0.999 . S
C875 C394 0.998 . S
C880 C509 0.999 . S
C905 C428 0.998 . S
C910 C339 0.999 . S
C935 C462 0.998 . S
C940 C305 0.999 . S
C965 C407 0.999 . S
C970 C496 0.998 . S
C995 C373 0.999 . S
C1000 C530 0.998 . S
C1025 C9 1.434 . S
C1030 C43 1.434 . S
C1055 C77 1.434 . S
C1060 C111 1.434 . S
C1085 C179 1.434 . S
C1090 C145 1.434 . S
C1115 C247 1.434 . S
C1120 C213 1.434 . S
C1145 C315 1.434 . S
C1150 C281 1.434 . S
C1175 C383 1.434 . S
C1180 C349 1.434 . S
C1205 C417 1.434 . S
C1210 C451 1.434 . S
C1235 C485 1.434 . S
C1240 C519 1.434 . S
C1265 C311 1.578 . S
C1270 C5 1.578 . S
C1295 C39 1.578 . S
C1300 C277 1.578 . S
C1325 C73 1.578 . S
C1330 C379 1.578 . S
C1355 C345 1.578 . S
C1360 C107 1.578 . S
C1385 C141 1.578 . S
C1390 C447 1.578 . S
C1415 C175 1.578 . S
C1420 C413 1.578 . S
C1445 C209 1.578 . S
C1450 C515 1.578 . S
C1475 C481 1.578 . S
C1480 C243 1.578 . S
C1505 C2 1.373 . S
C1510 C104 1.373 . S
C1535 C36 1.373 . S
C1540 C70 1.373 . S
C1565 C138 1.373 . S
C1570 C240 1.373 . S
C1595 C172 1.373 . S
C1600 C206 1.373 . S
C1625 C376 1.373 . S
C1630 C274 1.373 . S
C1655 C342 1.373 . S
C1660 C308 1.373 . S
C1685 C410 1.373 . S
C1690 C512 1.373 . S
C1715 C444 1.373 . S
C1720 C478 1.373 . S
