# Generated by pormake.
# Topology uon, (4)-cn, num edge types: 1
# Building blocks:
#     Node 0, Type 0, BuildingBlock: MUDLON_clean_sbu_0, # of connection points: 4
#     Node 1, Type 0, BuildingBlock: MUDLON_clean_sbu_0, # of connection points: 4
#     Node 2, Type 0, BuildingBlock: MUDLON_clean_sbu_0, # of connection points: 4
#     Node 3, Type 0, BuildingBlock: MUDLON_clean_sbu_0, # of connection points: 4
#     Node 4, Type 0, BuildingBlock: MUDLON_clean_sbu_0, # of connection points: 4
#     Node 5, Type 0, BuildingBlock: MUDLON_clean_sbu_0, # of connection points: 4
#     Edge 6, Type (0, 0), BuildingBlock: TEMPAE_clean_linker_10, # of connection points: 2
#     Edge 7, Type (0, 0), BuildingBlock: TEMPAE_clean_linker_10, # of connection points: 2
#     Edge 8, Type (0, 0), BuildingBlock: TEMPAE_clean_linker_10, # of connection points: 2
#     Edge 9, Type (0, 0), BuildingBlock: TEMPAE_clean_linker_10, # of connection points: 2
#     Edge 10, Type (0, 0), BuildingBlock: TEMPAE_clean_linker_10, # of connection points: 2
#     Edge 11, Type (0, 0), BuildingBlock: TEMPAE_clean_linker_10, # of connection points: 2
#     Edge 12, Type (0, 0), BuildingBlock: TEMPAE_clean_linker_10, # of connection points: 2
#     Edge 13, Type (0, 0), BuildingBlock: TEMPAE_clean_linker_10, # of connection points: 2
#     Edge 14, Type (0, 0), BuildingBlock: TEMPAE_clean_linker_10, # of connection points: 2
#     Edge 15, Type (0, 0), BuildingBlock: TEMPAE_clean_linker_10, # of connection points: 2
#     Edge 16, Type (0, 0), BuildingBlock: TEMPAE_clean_linker_10, # of connection points: 2
#     Edge 17, Type (0, 0), BuildingBlock: TEMPAE_clean_linker_10, # of connection points: 2
# Relax obj value: 0.184
# Max RMSD: 0.128
# Mean RMSD: 0.128
data_MOF--net-uon--node1-MUDLON_clean_sbu_0--edge1-TEMPAE_clean_linker_10
_symmetry_space_group_name_H-M    P1
_symmetry_Int_Tables_number       1
_symmetry_cell_setting            triclinic
loop_
_symmetry_equiv_pos_as_xyz
'x, y, z'
_cell_length_a     38.596395
_cell_length_b     38.67458
_cell_length_c     17.163721
_cell_angle_alpha  89.720842
_cell_angle_beta   89.506379
_cell_angle_gamma 120.02965
loop_
_atom_site_label
_atom_site_type_symbol
_atom_site_fract_x
_atom_site_fract_y
_atom_site_fract_z
_atom_type_partial_charge
Mg0 Mg 0.24977 0.45637 0.97294 0.0
C1 C 0.31831 0.52821 0.92294 0.0
O2 O 0.33006 0.50677 0.96231 0.0
C3 C 0.16818 0.39223 0.01551 0.0
O4 O 0.1911 0.37787 0.03738 0.0
C5 C 0.29403 0.40888 0.95761 0.0
O6 O 0.30829 0.42411 0.02614 0.0
O7 O 0.26921 0.4167 0.92527 0.0
O8 O 0.28121 0.51261 0.9079 0.0
O9 O 0.27297 0.48126 0.08668 0.0
C10 C 0.24999 0.48592 0.13356 0.0
O11 O 0.21134 0.46081 0.13015 0.0
O12 O 0.18452 0.42607 0.98096 0.0
Mg13 Mg 0.81408 0.23447 0.33299 0.0
C14 C 0.79575 0.28458 0.22083 0.0
O15 O 0.82936 0.29167 0.18702 0.0
C16 C 0.79322 0.15544 0.39842 0.0
O17 O 0.82424 0.18039 0.43954 0.0
C18 C 0.88317 0.25291 0.22248 0.0
O19 O 0.85342 0.22603 0.18123 0.0
O20 O 0.87562 0.26176 0.28942 0.0
O21 O 0.78076 0.25841 0.27479 0.0
O22 O 0.80988 0.25275 0.44966 0.0
C23 C 0.80679 0.28384 0.45607 0.0
O24 O 0.82768 0.31394 0.40803 0.0
O25 O 0.78245 0.16945 0.34231 0.0
Mg26 Mg 0.57187 0.80848 0.72933 0.0
C27 C 0.48848 0.78856 0.69409 0.0
O28 O 0.49978 0.81871 0.7416 0.0
C29 C 0.61814 0.77662 0.81234 0.0
O30 O 0.6222 0.8053 0.85872 0.0
C31 C 0.60892 0.89143 0.66101 0.0
O32 O 0.58257 0.8916 0.70976 0.0
O33 O 0.61153 0.85999 0.65622 0.0
O34 O 0.5132 0.77731 0.67496 0.0
O35 O 0.56513 0.83051 0.8425 0.0
C36 C 0.53708 0.81439 0.89346 0.0
O37 O 0.53922 0.83505 0.9556 0.0
O38 O 0.59862 0.77082 0.74966 0.0
Mg39 Mg 0.79269 0.57684 0.0114 0.0
C40 C 0.736 0.4962 0.95979 0.0
O41 O 0.72199 0.49923 0.02764 0.0
C42 C 0.87373 0.64256 0.05124 0.0
O43 O 0.85021 0.65288 0.08756 0.0
C44 C 0.72939 0.60153 0.9878 0.0
O45 O 0.70497 0.56414 0.00798 0.0
O46 O 0.76694 0.61476 0.98745 0.0
O47 O 0.76696 0.5264 0.9311 0.0
O48 O 0.77731 0.54567 0.12404 0.0
C49 C 0.8039 0.54121 0.15845 0.0
O50 O 0.84164 0.5659 0.14084 0.0
O51 O 0.85782 0.61214 0.00743 0.0
Mg52 Mg 0.23527 0.78801 0.31254 0.0
C53 C 0.25099 0.73828 0.19849 0.0
O54 O 0.21536 0.72977 0.17454 0.0
C55 C 0.25271 0.86403 0.38318 0.0
O56 O 0.21815 0.83794 0.41483 0.0
C57 C 0.14563 0.73608 0.28191 0.0
O58 O 0.14827 0.71339 0.33602 0.0
O59 O 0.1768 0.76859 0.26235 0.0
O60 O 0.26852 0.76573 0.24821 0.0
O61 O 0.235 0.76458 0.42722 0.0
C62 C 0.23823 0.73353 0.43369 0.0
O63 O 0.22663 0.7082 0.37581 0.0
O64 O 0.2679 0.85209 0.33117 0.0
Mg65 Mg 0.4587 0.22309 0.65496 0.0
C66 C 0.53113 0.22752 0.60505 0.0
O67 O 0.5123 0.19644 0.65186 0.0
C68 C 0.39647 0.24309 0.6976 0.0
O69 O 0.38044 0.20555 0.71981 0.0
C70 C 0.41329 0.13133 0.64363 0.0
O71 O 0.43334 0.1334 0.70658 0.0
O72 O 0.4174 0.16331 0.61365 0.0
O73 O 0.51339 0.24647 0.58538 0.0
O74 O 0.48634 0.2277 0.76706 0.0
C75 C 0.49223 0.25651 0.8108 0.0
O76 O 0.46785 0.27084 0.8059 0.0
O77 O 0.43002 0.25925 0.66168 0.0
C78 C 0.29451 0.37016 0.8412 0.0
C79 C 0.30801 0.38431 0.91646 0.0
C80 C 0.3081 0.34763 0.80076 0.0
C81 C 0.33579 0.33888 0.83642 0.0
C82 C 0.34952 0.35302 0.91236 0.0
C83 C 0.33551 0.37558 0.95141 0.0
C84 C 0.29278 0.33314 0.71989 0.0
C85 C 0.37893 0.34417 0.95253 0.0
C86 C 0.3434 0.2493 0.77011 0.0
C87 C 0.37896 0.26738 0.72568 0.0
C88 C 0.32861 0.27214 0.80505 0.0
C89 C 0.34977 0.31415 0.79519 0.0
C90 C 0.38492 0.33252 0.74817 0.0
C91 C 0.39913 0.30892 0.714 0.0
C92 C 0.29098 0.25138 0.8546 0.0
C93 C 0.40817 0.37722 0.73586 0.0
H94 H 0.27335 0.37681 0.81352 0.0
H95 H 0.34617 0.38639 0.00943 0.0
H96 H 0.31822 0.34431 0.67789 0.0
H97 H 0.27712 0.30003 0.71874 0.0
H98 H 0.27181 0.34304 0.69983 0.0
H99 H 0.387 0.35767 0.01128 0.0
H100 H 0.36603 0.3114 0.95866 0.0
H101 H 0.40668 0.35571 0.91676 0.0
H102 H 0.32751 0.21724 0.77943 0.0
H103 H 0.42664 0.32318 0.67988 0.0
H104 H 0.26875 0.25946 0.83407 0.0
H105 H 0.29802 0.26142 0.91581 0.0
H106 H 0.27708 0.21835 0.85367 0.0
H107 H 0.38819 0.38788 0.71368 0.0
H108 H 0.43358 0.38665 0.69417 0.0
H109 H 0.42012 0.39216 0.79228 0.0
C110 C 0.93242 0.26459 0.115 0.0
C111 C 0.92461 0.27372 0.18987 0.0
C112 C 0.97133 0.28416 0.08294 0.0
C113 C 1.00335 0.31361 0.12673 0.0
C114 C 0.99565 0.32318 0.20212 0.0
C115 C 0.95642 0.30316 0.23275 0.0
C116 C 0.97826 0.27305 0.00242 0.0
C117 C 0.02897 0.35432 0.25081 0.0
C118 C 0.10896 0.33517 0.08143 0.0
C119 C 0.12524 0.37125 0.03922 0.0
C120 C 0.06935 0.31605 0.10958 0.0
C121 C 0.04513 0.33324 0.09502 0.0
C122 C 0.06104 0.36926 0.05118 0.0
C123 C 0.10092 0.38788 0.02387 0.0
C124 C 0.05363 0.27773 0.1561 0.0
C125 C 0.03609 0.38842 0.03416 0.0
H126 H 0.90809 0.242 0.08122 0.0
H127 H 0.95073 0.31055 0.29052 0.0
H128 H 0.99278 0.29999 0.96428 0.0
H129 H 0.99885 0.26088 0.00555 0.0
H130 H 0.95002 0.25046 0.97492 0.0
H131 H 1.0179 0.35912 0.30739 0.0
H132 H 0.0514 0.34506 0.26255 0.0
H133 H 0.0446 0.38317 0.21853 0.0
H134 H 0.12741 0.32202 0.09373 0.0
H135 H 0.11321 0.41577 0.99149 0.0
H136 H 0.02645 0.25357 0.12842 0.0
H137 H 0.04485 0.28182 0.21557 0.0
H138 H 0.07607 0.26787 0.1612 0.0
H139 H 1.0083 0.36696 0.00396 0.0
H140 H 0.05245 0.41578 -0.00258 0.0
H141 H 0.02698 0.39645 0.08956 0.0
C142 C 0.73213 0.08714 0.38843 0.0
C143 C 0.76838 0.11318 0.42472 0.0
C144 C 0.70629 0.04876 0.41948 0.0
C145 C 0.71684 0.03624 0.48864 0.0
C146 C 0.75419 0.06172 0.52336 0.0
C147 C 0.7795 0.09971 0.4909 0.0
C148 C 0.66693 0.02231 0.38019 0.0
C149 C 0.76664 0.04967 0.59719 0.0
C150 C 0.63485 0.96327 0.62649 0.0
C151 C 0.63557 0.92779 0.61409 0.0
C152 C 0.66055 0.99841 0.58489 0.0
C153 C 0.68758 0.9982 0.52885 0.0
C154 C 0.68791 0.9623 0.51467 0.0
C155 C 0.66202 0.92755 0.55769 0.0
C156 C 0.65937 0.03607 0.60231 0.0
C157 C 0.71605 0.96078 0.45497 0.0
H158 H 0.72331 0.09716 0.33716 0.0
H159 H 0.8075 0.11943 0.51926 0.0
H160 H 0.66248 0.99191 0.37209 0.0
H161 H 0.642 0.0193 0.41772 0.0
H162 H 0.66508 0.03446 0.32257 0.0
H163 H 0.79782 0.07159 0.61367 0.0
H164 H 0.74628 0.04704 0.6458 0.0
H165 H 0.76414 0.02001 0.5903 0.0
H166 H 0.61454 0.96383 0.6698 0.0
H167 H 0.66267 0.90026 0.54736 0.0
H168 H 0.6539 0.04826 0.54813 0.0
H169 H 0.68873 0.05916 0.62499 0.0
H170 H 0.63577 0.03097 0.64584 0.0
H171 H 0.71247 0.97212 0.39786 0.0
H172 H 0.71091 0.93007 0.44733 0.0
H173 H 0.74747 0.98046 0.473 0.0
C174 C 0.73834 0.66432 0.92523 0.0
C175 C 0.71323 0.62729 0.96154 0.0
C176 C 0.72315 0.68838 0.89785 0.0
C177 C 0.68194 0.67536 0.90778 0.0
C178 C 0.65647 0.63809 0.94461 0.0
C179 C 0.67237 0.61443 0.97065 0.0
C180 C 0.75125 0.72777 0.85838 0.0
C181 C 0.61246 0.62335 0.95721 0.0
C182 C 0.6508 0.75432 0.90993 0.0
C183 C 0.63474 0.75078 0.83536 0.0
C184 C 0.6661 0.72992 0.9341 0.0
C185 C 0.66575 0.7014 0.8823 0.0
C186 C 0.64983 0.69777 0.80671 0.0
C187 C 0.63431 0.72237 0.78425 0.0
C188 C 0.68242 0.73452 0.01543 0.0
C189 C 0.64923 0.66793 0.74959 0.0
H190 H 0.7699 0.67441 0.9174 0.0
H191 H 0.65273 0.58589 -0.00137 0.0
H192 H 0.74023 0.72877 0.79938 0.0
H193 H 0.75214 0.75263 0.89199 0.0
H194 H 0.7822 0.73298 0.8528 0.0
H195 H 0.59659 0.59348 0.98597 0.0
H196 H 0.6086 0.64478 0.99384 0.0
H197 H 0.59802 0.62157 0.90061 0.0
H198 H 0.65112 0.77601 0.95009 0.0
H199 H 0.622 0.71944 0.72655 0.0
H200 H 0.71427 0.74237 0.01263 0.0
H201 H 0.66578 0.70579 0.04788 0.0
H202 H 0.68028 0.75793 0.04881 0.0
H203 H 0.68009 0.6736 0.73949 0.0
H204 H 0.6364 0.6692 0.69268 0.0
H205 H 0.63137 0.63726 0.77405 0.0
C206 C 0.94087 0.64695 0.04275 0.0
C207 C 0.91638 0.66088 0.07372 0.0
C208 C 0.97954 0.66047 0.07148 0.0
C209 C 0.99396 0.68838 0.13292 0.0
C210 C 0.96999 0.70368 0.16229 0.0
C211 C 0.93163 0.6899 0.13213 0.0
C212 C 1.00439 0.6438 0.03802 0.0
C213 C 0.98417 0.73339 0.2279 0.0
C214 C 0.07182 0.68961 0.26905 0.0
C215 C 0.10695 0.72366 0.24311 0.0
C216 C 0.03497 0.67763 0.23321 0.0
C217 C 0.03318 0.70008 0.16948 0.0
C218 C 0.06859 0.73423 0.14242 0.0
C219 C 0.105 0.74569 0.1797 0.0
C220 C 0.99784 0.64118 0.26418 0.0
C221 C 0.06795 0.75879 0.07439 0.0
H222 H 0.92941 0.62457 -0.00241 0.0
H223 H 0.91304 0.70093 0.15648 0.0
H224 H 0.03456 0.66843 0.02089 0.0
H225 H 1.00855 0.62553 0.08299 0.0
H226 H 0.99026 0.62484 0.9864 0.0
H227 H 0.96285 0.744 0.24132 0.0
H228 H 0.98804 0.71943 0.28127 0.0
H229 H 1.01373 0.75961 0.21295 0.0
H230 H 0.07298 0.67239 0.31794 0.0
H231 H 0.13199 0.77194 0.15893 0.0
H232 H 0.98362 0.61903 0.21712 0.0
H233 H 0.97573 0.64964 0.28433 0.0
H234 H 1.00437 0.62665 0.31342 0.0
H235 H 0.05518 0.73957 0.02266 0.0
H236 H 0.09827 0.78376 0.05884 0.0
H237 H 0.04842 0.7714 0.0885 0.0
C238 C 0.38632 0.05756 0.6332 0.0
C239 C 0.38826 0.09253 0.60455 0.0
C240 C 0.36413 0.02101 0.59477 0.0
C241 C 0.34326 0.01931 0.52608 0.0
C242 C 0.34481 0.0544 0.4972 0.0
C243 C 0.36728 0.09056 0.53671 0.0
C244 C 0.36315 0.98421 0.6275 0.0
C245 C 0.32283 0.05378 0.42437 0.0
C246 C 0.31496 0.93129 0.39171 0.0
C247 C 0.27509 0.90517 0.41428 0.0
C248 C 0.33733 0.96887 0.42658 0.0
C249 C 0.31937 0.98063 0.4852 0.0
C250 C 0.27882 0.95489 0.50651 0.0
C251 C 0.25722 0.91752 0.47089 0.0
C252 C 0.3805 0.99556 0.40218 0.0
C253 C 0.25848 0.96639 0.5684 0.0
H254 H 0.40246 0.05876 0.68541 0.0
H255 H 0.36856 0.11739 0.51402 0.0
H256 H 0.33183 0.96095 0.64126 0.0
H257 H 0.37484 0.9716 0.58345 0.0
H258 H 0.38114 0.99057 0.6812 0.0
H259 H 0.32705 0.08365 0.40952 0.0
H260 H 0.33344 0.04328 0.37444 0.0
H261 H 0.29034 0.03246 0.43204 0.0
H262 H 0.32904 0.92199 0.34815 0.0
H263 H 0.22639 0.89764 0.48858 0.0
H264 H 0.40025 1.00023 0.4524 0.0
H265 H 0.3856 0.02532 0.38391 0.0
H266 H 0.38953 0.98281 0.35348 0.0
H267 H 0.27354 0.97003 0.62501 0.0
H268 H 0.2263 0.94375 0.57589 0.0
H269 H 0.26104 0.99551 0.55334 0.0
C270 C 0.28958 0.70531 0.23997 0.0
C271 C 0.26482 0.70928 0.18543 0.0
C272 C 0.29556 0.67235 0.23848 0.0
C273 C 0.27676 0.64303 0.18054 0.0
C274 C 0.25467 0.64879 0.12144 0.0
C275 C 0.24864 0.68164 0.12503 0.0
C276 C 0.31988 0.66772 0.30173 0.0
C277 C 0.23542 0.61898 0.05683 0.0
C278 C 0.29809 0.55966 0.13413 0.0
C279 C 0.26338 0.52641 0.16437 0.0
C280 C 0.30476 0.59855 0.14393 0.0
C281 C 0.27624 0.6043 0.18552 0.0
C282 C 0.24362 0.57132 0.22352 0.0
C283 C 0.23753 0.53276 0.2123 0.0
C284 C 0.34044 0.63259 0.10341 0.0
C285 C 0.21313 0.57624 0.27046 0.0
H286 H 0.30223 0.72654 0.287 0.0
H287 H 0.22985 0.68479 0.08229 0.0
H288 H 0.2995 0.64431 0.34383 0.0
H289 H 0.34034 0.65813 0.27689 0.0
H290 H 0.3378 0.69594 0.33394 0.0
H291 H 0.22211 0.62946 0.01193 0.0
H292 H 0.25785 0.61314 0.0282 0.0
H293 H 0.21144 0.59021 0.08153 0.0
H294 H 0.31858 0.55528 0.09755 0.0
H295 H 0.21097 0.50731 0.23686 0.0
H296 H 0.34949 0.66182 0.13056 0.0
H297 H 0.33287 0.63396 0.04164 0.0
H298 H 0.36638 0.62762 0.1039 0.0
H299 H 0.22821 0.60147 0.31145 0.0
H300 H 0.19263 0.5488 0.30424 0.0
H301 H 0.19494 0.58327 0.23061 0.0
C302 C 0.59625 0.23296 0.63589 0.0
C303 C 0.5735 0.24188 0.585 0.0
C304 C 0.63602 0.24432 0.61843 0.0
C305 C 0.65322 0.2639 0.54686 0.0
C306 C 0.63065 0.2737 0.49558 0.0
C307 C 0.59118 0.26329 0.51618 0.0
C308 C 0.65926 0.23427 0.67576 0.0
C309 C 0.64768 0.29464 0.41861 0.0
C310 C 0.76601 0.31012 0.51956 0.0
C311 C 0.76832 0.27847 0.4855 0.0
C312 C 0.72871 0.30599 0.54017 0.0
C313 C 0.6931 0.26998 0.52326 0.0
C314 C 0.69542 0.23829 0.48752 0.0
C315 C 0.73294 0.24268 0.47029 0.0
C316 C 0.72732 0.3402 0.57891 0.0
C317 C 0.65818 0.19985 0.46639 0.0
H318 H 0.58293 0.217 0.68997 0.0
H319 H 0.57372 0.27049 0.47712 0.0
H320 H 0.66581 0.21182 0.65025 0.0
H321 H 0.68834 0.26131 0.68828 0.0
H322 H 0.64266 0.22206 0.73161 0.0
H323 H 0.62375 0.29062 0.37788 0.0
H324 H 0.66688 0.32708 0.42903 0.0
H325 H 0.66629 0.28375 0.39008 0.0
H326 H 0.79334 0.33805 0.52986 0.0
H327 H 0.73449 0.21852 0.44181 0.0
H328 H 0.71034 0.32998 0.63481 0.0
H329 H 0.71135 0.3509 0.54116 0.0
H330 H 0.75769 0.36566 0.59056 0.0
H331 H 0.64079 0.18456 0.51991 0.0
H332 H 0.66514 0.17902 0.43479 0.0
H333 H 0.63875 0.20645 0.42923 0.0
C334 C 0.50472 0.74445 0.84221 0.0
C335 C 0.50184 0.77394 0.88383 0.0
C336 C 0.47192 0.70557 0.83664 0.0
C337 C 0.43561 0.69552 0.87595 0.0
C338 C 0.432 0.72562 0.91561 0.0
C339 C 0.46519 0.76436 0.91927 0.0
C340 C 0.47684 0.67473 0.79203 0.0
C341 C 0.39424 0.71677 0.95903 0.0
C342 C 0.34272 0.59294 0.84844 0.0
C343 C 0.34725 0.57106 0.90884 0.0
C344 C 0.37145 0.63353 0.83593 0.0
C345 C 0.40448 0.65271 0.88671 0.0
C346 C 0.4084 0.6308 0.94881 0.0
C347 C 0.38017 0.59029 0.9583 0.0
C348 C 0.36636 0.65596 0.76909 0.0
C349 C 0.44232 0.65022 0.00596 0.0
H350 H 0.53292 0.75131 0.81593 0.0
H351 H 0.46256 0.78706 0.95132 0.0
H352 H 0.47849 0.65354 0.83355 0.0
H353 H 0.45063 0.65724 0.75425 0.0
H354 H 0.50444 0.68852 0.75521 0.0
H355 H 0.39083 0.74362 0.9613 0.0
H356 H 0.3671 0.69205 0.93252 0.0
H357 H 0.39617 0.70808 0.01981 0.0
H358 H 0.31724 0.5782 0.81028 0.0
H359 H 0.38354 0.57377 0.00601 0.0
H360 H 0.39454 0.67216 0.73444 0.0
H361 H 0.3595 0.67853 0.79257 0.0
H362 H 0.34177 0.6359 0.72993 0.0
H363 H 0.47141 0.66141 0.97506 0.0
H364 H 0.44008 0.62932 0.05297 0.0
H365 H 0.44245 0.67626 0.03317 0.0
C366 C 0.75435 0.46882 0.18438 0.0
C367 C 0.79302 0.50174 0.19295 0.0
C368 C 0.74697 0.42959 0.19449 0.0
C369 C 0.77885 0.42337 0.21562 0.0
C370 C 0.81664 0.45658 0.23329 0.0
C371 C 0.8233 0.49533 0.2215 0.0
C372 C 0.70543 0.39513 0.17996 0.0
C373 C 0.85102 0.45129 0.25931 0.0
C374 C 0.76594 0.32329 0.2776 0.0
C375 C 0.78252 0.31432 0.21298 0.0
C376 C 0.76265 0.35783 0.2783 0.0
C377 C 0.77463 0.38299 0.21174 0.0
C378 C 0.78734 0.37173 0.14353 0.0
C379 C 0.79194 0.33795 0.14548 0.0
C380 C 0.74949 0.36908 0.35222 0.0
C381 C 0.79836 0.39672 0.06993 0.0
H382 H 0.73035 0.47345 0.16493 0.0
H383 H 0.85305 0.52057 0.23007 0.0
H384 H 0.70625 0.36968 0.15238 0.0
H385 H 0.68923 0.38441 0.23647 0.0
H386 H 0.68791 0.40421 0.14264 0.0
H387 H 0.87658 0.47961 0.28057 0.0
H388 H 0.84112 0.42845 0.30646 0.0
H389 H 0.8617 0.44065 0.20971 0.0
H390 H 0.75834 0.30502 0.3299 0.0
H391 H 0.80428 0.33084 0.09511 0.0
H392 H 0.72602 0.37678 0.33982 0.0
H393 H 0.77525 0.39585 0.37757 0.0
H394 H 0.73779 0.34464 0.39617 0.0
H395 H 0.77469 0.40396 0.05573 0.0
H396 H 0.80266 0.38132 0.01945 0.0
H397 H 0.82656 0.42534 0.0788 0.0
C398 C 0.29824 0.77106 0.51614 0.0
C399 C 0.26782 0.73424 0.48891 0.0
C400 C 0.33172 0.77416 0.55368 0.0
C401 C 0.33411 0.7393 0.56777 0.0
C402 C 0.30218 0.7016 0.54533 0.0
C403 C 0.26978 0.69962 0.50455 0.0
C404 C 0.36574 0.8152 0.57362 0.0
C405 C 0.3027 0.66346 0.56111 0.0
C406 C 0.44071 0.75992 0.58448 0.0
C407 C 0.44756 0.76879 0.66364 0.0
C408 C 0.40303 0.74806 0.55263 0.0
C409 C 0.37129 0.74345 0.60203 0.0
C410 C 0.37731 0.74863 0.6833 0.0
C411 C 0.41568 0.76219 0.71294 0.0
C412 C 0.39783 0.74245 0.46572 0.0
C413 C 0.3436 0.74141 0.73844 0.0
H414 H 0.29735 0.79809 0.50339 0.0
H415 H 0.24648 0.6711 0.48326 0.0
H416 H 0.37146 0.81721 0.63707 0.0
H417 H 0.39357 0.82059 0.54331 0.0
H418 H 0.3596 0.83937 0.55672 0.0
H419 H 0.27181 0.63756 0.56611 0.0
H420 H 0.31782 0.65771 0.51177 0.0
H421 H 0.319 0.66526 0.61526 0.0
H422 H 0.46546 0.76483 0.54669 0.0
H423 H 0.42094 0.76835 0.77458 0.0
H424 H 0.38436 0.75966 0.44159 0.0
H425 H 0.37722 0.71046 0.45356 0.0
H426 H 0.42661 0.75185 0.43465 0.0
H427 H 0.33539 0.76484 0.72995 0.0
H428 H 0.35184 0.74164 0.8004 0.0
H429 H 0.31667 0.7122 0.72599 0.0
C430 C 0.53928 0.31298 0.89373 0.0
C431 C 0.53299 0.28312 0.84056 0.0
C432 C 0.57797 0.34442 0.90864 0.0
C433 C 0.61119 0.34646 0.86835 0.0
C434 C 0.60531 0.31498 0.81847 0.0
C435 C 0.56626 0.2835 0.8057 0.0
C436 C 0.58304 0.37663 0.96459 0.0
C437 C 0.63939 0.31503 0.77457 0.0
C438 C 0.69283 0.45456 0.85249 0.0
C439 C 0.7144 0.45785 0.91972 0.0
C440 C 0.66119 0.4172 0.82994 0.0
C441 C 0.65121 0.38288 0.87615 0.0
C442 C 0.67634 0.38562 0.93806 0.0
C443 C 0.70737 0.42328 0.95985 0.0
C444 C 0.63621 0.41497 0.761 0.0
C445 C 0.66834 0.34951 0.98594 0.0
H446 H 0.51373 0.31271 0.92114 0.0
H447 H 0.56178 0.26062 0.76437 0.0
H448 H 0.60571 0.3813 0.0089 0.0
H449 H 0.59399 0.40526 0.9324 0.0
H450 H 0.55461 0.36922 0.99509 0.0
H451 H 0.63592 0.28477 0.77677 0.0
H452 H 0.63828 0.32241 0.71236 0.0
H453 H 0.66925 0.33666 0.79753 0.0
H454 H 0.69825 0.48143 0.8218 0.0
H455 H 0.72443 0.42603 0.01163 0.0
H456 H 0.60683 0.41023 0.78189 0.0
H457 H 0.63043 0.38925 0.72385 0.0
H458 H 0.65094 0.44273 0.72498 0.0
H459 H 0.64601 0.34441 0.03232 0.0
H460 H 0.69608 0.35397 0.01407 0.0
H461 H 0.65614 0.32229 0.94975 0.0
loop_
_geom_bond_atom_site_label_1
_geom_bond_atom_site_label_2
_geom_bond_distance
_geom_bond_site_symmetry_2
_ccdc_geom_bond_type
Mg0 O7 2.141 . S
Mg0 O8 2.048 . S
Mg0 O9 2.048 1_556 S
Mg0 O12 2.141 1_556 S
C1 O2 1.313 1_556 S
C1 O8 1.195 . S
O2 C1 1.313 1_554 S
C3 O4 1.245 . S
C3 O12 1.289 . S
O4 C3 1.245 . S
C5 O6 1.245 1_556 S
C5 O7 1.289 . S
O6 C5 1.245 1_554 S
O7 Mg0 2.141 . S
O7 C5 1.289 . S
O8 Mg0 2.048 . S
O8 C1 1.195 . S
O9 Mg0 2.048 1_554 S
O9 C10 1.195 . S
C10 O9 1.195 . S
C10 O11 1.313 . S
O11 C10 1.313 . S
O12 Mg0 2.141 1_554 S
O12 C3 1.289 . S
Mg13 O20 2.141 . S
Mg13 O21 2.048 . S
Mg13 O22 2.048 . S
Mg13 O25 2.141 . S
C14 O15 1.313 . S
C14 O21 1.195 . S
O15 C14 1.313 . S
C16 O17 1.245 . S
C16 O25 1.289 . S
O17 C16 1.245 . S
C18 O19 1.245 . S
C18 O20 1.289 . S
O19 C18 1.245 . S
O20 Mg13 2.141 . S
O20 C18 1.289 . S
O21 Mg13 2.048 . S
O21 C14 1.195 . S
O22 Mg13 2.048 . S
O22 C23 1.195 . S
C23 O22 1.195 . S
C23 O24 1.313 . S
O24 C23 1.313 . S
O25 Mg13 2.141 . S
O25 C16 1.289 . S
Mg26 O33 2.141 . S
Mg26 O34 2.048 . S
Mg26 O35 2.048 . S
Mg26 O38 2.141 . S
C27 O28 1.313 . S
C27 O34 1.195 . S
O28 C27 1.313 . S
C29 O30 1.245 . S
C29 O38 1.289 . S
O30 C29 1.245 . S
C31 O32 1.245 . S
C31 O33 1.289 . S
O32 C31 1.245 . S
O33 Mg26 2.141 . S
O33 C31 1.289 . S
O34 Mg26 2.048 . S
O34 C27 1.195 . S
O35 Mg26 2.048 . S
O35 C36 1.195 . S
C36 O35 1.195 . S
C36 O37 1.313 . S
O37 C36 1.313 . S
O38 Mg26 2.141 . S
O38 C29 1.289 . S
Mg39 O46 2.141 . S
Mg39 O47 2.048 . S
Mg39 O48 2.048 1_556 S
Mg39 O51 2.141 1_556 S
C40 O41 1.313 1_556 S
C40 O47 1.195 . S
O41 C40 1.313 1_554 S
C42 O43 1.245 . S
C42 O51 1.289 . S
O43 C42 1.245 . S
C44 O45 1.245 1_556 S
C44 O46 1.289 . S
O45 C44 1.245 1_554 S
O46 Mg39 2.141 . S
O46 C44 1.289 . S
O47 Mg39 2.048 . S
O47 C40 1.195 . S
O48 Mg39 2.048 1_554 S
O48 C49 1.195 . S
C49 O48 1.195 . S
C49 O50 1.313 . S
O50 C49 1.313 . S
O51 Mg39 2.141 1_554 S
O51 C42 1.289 . S
Mg52 O59 2.141 . S
Mg52 O60 2.048 . S
Mg52 O61 2.048 . S
Mg52 O64 2.141 . S
C53 O54 1.313 . S
C53 O60 1.195 . S
O54 C53 1.313 . S
C55 O56 1.245 . S
C55 O64 1.289 . S
O56 C55 1.245 . S
C57 O58 1.245 . S
C57 O59 1.289 . S
O58 C57 1.245 . S
O59 Mg52 2.141 . S
O59 C57 1.289 . S
O60 Mg52 2.048 . S
O60 C53 1.195 . S
O61 Mg52 2.048 . S
O61 C62 1.195 . S
C62 O61 1.195 . S
C62 O63 1.313 . S
O63 C62 1.313 . S
O64 Mg52 2.141 . S
O64 C55 1.289 . S
Mg65 O72 2.141 . S
Mg65 O73 2.048 . S
Mg65 O74 2.048 . S
Mg65 O77 2.141 . S
C66 O67 1.313 . S
C66 O73 1.195 . S
O67 C66 1.313 . S
C68 O69 1.245 . S
C68 O77 1.289 . S
O69 C68 1.245 . S
C70 O71 1.245 . S
C70 O72 1.289 . S
O71 C70 1.245 . S
O72 Mg65 2.141 . S
O72 C70 1.289 . S
O73 Mg65 2.048 . S
O73 C66 1.195 . S
O74 Mg65 2.048 . S
O74 C75 1.195 . S
C75 O74 1.195 . S
C75 O76 1.313 . S
O76 C75 1.313 . S
O77 Mg65 2.141 . S
O77 C68 1.289 . S
C78 C79 1.391 . S
C78 C80 1.394 . S
C78 H94 0.931 . S
C79 C78 1.391 . S
C79 C83 1.376 . S
C80 C78 1.394 . S
C80 C81 1.369 . S
C80 C84 1.531 . S
C81 C80 1.369 . S
C81 C82 1.410 . S
C81 C89 1.503 . S
C82 C81 1.410 . S
C82 C83 1.392 . S
C82 C85 1.511 . S
C83 C79 1.376 . S
C83 C82 1.392 . S
C83 H95 0.929 1_556 S
C84 C80 1.531 . S
C84 H96 0.960 . S
C84 H97 0.962 . S
C84 H98 0.960 . S
C85 C82 1.511 . S
C85 H99 0.961 1_556 S
C85 H100 0.961 . S
C85 H101 0.961 . S
C86 C87 1.370 . S
C86 C88 1.363 . S
C86 H102 0.931 . S
C87 C86 1.370 . S
C87 C91 1.408 . S
C88 C86 1.363 . S
C88 C89 1.370 . S
C88 C92 1.524 . S
C89 C81 1.503 . S
C89 C88 1.370 . S
C89 C90 1.403 . S
C90 C89 1.403 . S
C90 C91 1.404 . S
C90 C93 1.539 . S
C91 C87 1.408 . S
C91 C90 1.404 . S
C91 H103 0.930 . S
C92 C88 1.524 . S
C92 H104 0.956 . S
C92 H105 0.961 . S
C92 H106 0.961 . S
C93 C90 1.539 . S
C93 H107 0.958 . S
C93 H108 0.961 . S
C93 H109 0.960 . S
H94 C78 0.931 . S
H95 C83 0.929 1_554 S
H96 C84 0.960 . S
H97 C84 0.962 . S
H98 C84 0.960 . S
H99 C85 0.961 1_554 S
H100 C85 0.961 . S
H101 C85 0.961 . S
H102 C86 0.931 . S
H103 C91 0.930 . S
H104 C92 0.956 . S
H105 C92 0.961 . S
H106 C92 0.961 . S
H107 C93 0.958 . S
H108 C93 0.961 . S
H109 C93 0.960 . S
C110 C111 1.391 . S
C110 C112 1.394 . S
C110 H126 0.931 . S
C111 C110 1.391 . S
C111 C115 1.376 . S
C112 C110 1.394 . S
C112 C113 1.369 . S
C112 C116 1.531 . S
C113 C112 1.369 . S
C113 C114 1.410 . S
C113 C121 1.503 1_655 S
C114 C113 1.410 . S
C114 C115 1.392 . S
C114 C117 1.511 . S
C115 C111 1.376 . S
C115 C114 1.392 . S
C115 H127 0.929 . S
C116 C112 1.531 . S
C116 H128 0.960 1_655 S
C116 H129 0.962 1_655 S
C116 H130 0.960 . S
C117 C114 1.511 . S
C117 H131 0.961 . S
C117 H132 0.961 . S
C117 H133 0.961 . S
C118 C119 1.370 . S
C118 C120 1.363 . S
C118 H134 0.931 . S
C119 C118 1.370 . S
C119 C123 1.408 . S
C120 C118 1.363 . S
C120 C121 1.370 . S
C120 C124 1.524 . S
C121 C113 1.503 1_455 S
C121 C120 1.370 . S
C121 C122 1.403 . S
C122 C121 1.403 . S
C122 C123 1.404 . S
C122 C125 1.539 1_455 S
C123 C119 1.408 . S
C123 C122 1.404 . S
C123 H135 0.930 . S
C124 C120 1.524 . S
C124 H136 0.956 . S
C124 H137 0.961 . S
C124 H138 0.961 . S
C125 C122 1.539 1_655 S
C125 H139 0.958 . S
C125 H140 0.961 1_654 S
C125 H141 0.960 . S
H126 C110 0.931 . S
H127 C115 0.929 . S
H128 C116 0.960 1_455 S
H129 C116 0.962 1_455 S
H130 C116 0.960 . S
H131 C117 0.961 . S
H132 C117 0.961 . S
H133 C117 0.961 . S
H134 C118 0.931 . S
H135 C123 0.930 . S
H136 C124 0.956 . S
H137 C124 0.961 . S
H138 C124 0.961 . S
H139 C125 0.958 . S
H140 C125 0.961 1_456 S
H141 C125 0.960 . S
C142 C143 1.391 . S
C142 C144 1.394 . S
C142 H158 0.931 . S
C143 C142 1.391 . S
C143 C147 1.376 . S
C144 C142 1.394 . S
C144 C145 1.369 . S
C144 C148 1.531 1_545 S
C145 C144 1.369 . S
C145 C146 1.410 . S
C145 C153 1.503 1_545 S
C146 C145 1.410 . S
C146 C147 1.392 . S
C146 C149 1.511 . S
C147 C143 1.376 . S
C147 C146 1.392 . S
C147 H159 0.929 . S
C148 C144 1.531 1_565 S
C148 H160 0.958 . S
C148 H161 0.970 . S
C148 H162 0.961 1_565 S
C149 C146 1.511 . S
C149 H163 0.961 . S
C149 H164 0.961 . S
C149 H165 0.961 . S
C150 C151 1.370 . S
C150 C152 1.363 . S
C150 H166 0.931 . S
C151 C150 1.370 . S
C151 C155 1.408 . S
C152 C150 1.363 . S
C152 C153 1.370 . S
C152 C156 1.524 1_565 S
C153 C145 1.503 1_565 S
C153 C152 1.370 . S
C153 C154 1.403 . S
C154 C153 1.403 . S
C154 C155 1.404 . S
C154 C157 1.539 . S
C155 C151 1.408 . S
C155 C154 1.404 . S
C155 H167 0.930 . S
C156 C152 1.524 1_545 S
C156 H168 0.956 . S
C156 H169 0.961 . S
C156 H170 0.961 1_545 S
C157 C154 1.539 . S
C157 H171 0.958 . S
C157 H172 0.961 . S
C157 H173 0.960 . S
H158 C142 0.931 . S
H159 C147 0.929 . S
H160 C148 0.958 . S
H161 C148 0.970 . S
H162 C148 0.961 1_545 S
H163 C149 0.961 . S
H164 C149 0.961 . S
H165 C149 0.961 . S
H166 C150 0.931 . S
H167 C155 0.930 . S
H168 C156 0.956 . S
H169 C156 0.961 . S
H170 C156 0.961 1_565 S
H171 C157 0.958 . S
H172 C157 0.961 . S
H173 C157 0.960 . S
C174 C175 1.391 . S
C174 C176 1.394 . S
C174 H190 0.931 . S
C175 C174 1.391 . S
C175 C179 1.376 . S
C176 C174 1.394 . S
C176 C177 1.369 . S
C176 C180 1.531 . S
C177 C176 1.369 . S
C177 C178 1.410 . S
C177 C185 1.503 . S
C178 C177 1.410 . S
C178 C179 1.392 . S
C178 C181 1.511 . S
C179 C175 1.376 . S
C179 C178 1.392 . S
C179 H191 0.929 . S
C180 C176 1.531 . S
C180 H192 0.960 . S
C180 H193 0.962 . S
C180 H194 0.960 . S
C181 C178 1.511 . S
C181 H195 0.961 . S
C181 H196 0.961 . S
C181 H197 0.961 . S
C182 C183 1.370 . S
C182 C184 1.363 . S
C182 H198 0.931 . S
C183 C182 1.370 . S
C183 C187 1.408 . S
C184 C182 1.363 . S
C184 C185 1.370 . S
C184 C188 1.524 . S
C185 C177 1.503 . S
C185 C184 1.370 . S
C185 C186 1.403 . S
C186 C185 1.403 . S
C186 C187 1.404 . S
C186 C189 1.539 . S
C187 C183 1.408 . S
C187 C186 1.404 . S
C187 H199 0.930 . S
C188 C184 1.524 . S
C188 H200 0.956 . S
C188 H201 0.961 . S
C188 H202 0.961 . S
C189 C186 1.539 . S
C189 H203 0.958 . S
C189 H204 0.961 . S
C189 H205 0.960 . S
H190 C174 0.931 . S
H191 C179 0.929 . S
H192 C180 0.960 . S
H193 C180 0.962 . S
H194 C180 0.960 . S
H195 C181 0.961 . S
H196 C181 0.961 . S
H197 C181 0.961 . S
H198 C182 0.931 . S
H199 C187 0.930 . S
H200 C188 0.956 . S
H201 C188 0.961 . S
H202 C188 0.961 . S
H203 C189 0.958 . S
H204 C189 0.961 . S
H205 C189 0.960 . S
C206 C207 1.391 . S
C206 C208 1.394 . S
C206 H222 0.931 . S
C207 C206 1.391 . S
C207 C211 1.376 . S
C208 C206 1.394 . S
C208 C209 1.369 . S
C208 C212 1.538 . S
C209 C208 1.369 . S
C209 C210 1.410 . S
C209 C217 1.503 1_655 S
C210 C209 1.410 . S
C210 C211 1.392 . S
C210 C213 1.511 . S
C211 C207 1.376 . S
C211 C210 1.392 . S
C211 H223 0.929 . S
C212 C208 1.538 . S
C212 H224 0.955 1_655 S
C212 H225 0.959 1_655 S
C212 H226 0.961 . S
C213 C210 1.511 . S
C213 H227 0.961 . S
C213 H228 0.961 . S
C213 H229 0.961 . S
C214 C215 1.370 . S
C214 C216 1.363 . S
C214 H230 0.931 . S
C215 C214 1.370 . S
C215 C219 1.408 . S
C216 C214 1.363 . S
C216 C217 1.370 . S
C216 C220 1.524 1_455 S
C217 C209 1.503 1_455 S
C217 C216 1.370 . S
C217 C218 1.403 . S
C218 C217 1.403 . S
C218 C219 1.404 . S
C218 C221 1.539 . S
C219 C215 1.408 . S
C219 C218 1.404 . S
C219 H231 0.930 . S
C220 C216 1.524 1_655 S
C220 H232 0.956 . S
C220 H233 0.961 . S
C220 H234 0.961 1_655 S
C221 C218 1.539 . S
C221 H235 0.958 . S
C221 H236 0.961 . S
C221 H237 0.960 . S
H222 C206 0.931 . S
H223 C211 0.929 . S
H224 C212 0.955 1_455 S
H225 C212 0.959 1_455 S
H226 C212 0.961 . S
H227 C213 0.961 . S
H228 C213 0.961 . S
H229 C213 0.961 . S
H230 C214 0.931 . S
H231 C219 0.930 . S
H232 C220 0.956 . S
H233 C220 0.961 . S
H234 C220 0.961 1_455 S
H235 C221 0.958 . S
H236 C221 0.961 . S
H237 C221 0.960 . S
C238 C239 1.391 . S
C238 C240 1.394 . S
C238 H254 0.931 . S
C239 C238 1.391 . S
C239 C243 1.376 . S
C240 C238 1.394 . S
C240 C241 1.369 . S
C240 C244 1.531 1_545 S
C241 C240 1.369 . S
C241 C242 1.410 . S
C241 C249 1.503 1_545 S
C242 C241 1.410 . S
C242 C243 1.392 . S
C242 C245 1.511 . S
C243 C239 1.376 . S
C243 C242 1.392 . S
C243 H255 0.929 . S
C244 C240 1.531 1_565 S
C244 H256 0.960 . S
C244 H257 0.962 . S
C244 H258 0.960 1_565 S
C245 C242 1.511 . S
C245 H259 0.961 . S
C245 H260 0.961 . S
C245 H261 0.961 . S
C246 C247 1.370 . S
C246 C248 1.363 . S
C246 H262 0.931 . S
C247 C246 1.370 . S
C247 C251 1.408 . S
C248 C246 1.363 . S
C248 C249 1.370 . S
C248 C252 1.524 . S
C249 C241 1.503 1_565 S
C249 C248 1.370 . S
C249 C250 1.403 . S
C250 C249 1.403 . S
C250 C251 1.404 . S
C250 C253 1.539 . S
C251 C247 1.408 . S
C251 C250 1.404 . S
C251 H263 0.930 . S
C252 C248 1.524 . S
C252 H264 0.956 1_565 S
C252 H265 0.961 1_565 S
C252 H266 0.961 . S
C253 C250 1.539 . S
C253 H267 0.958 . S
C253 H268 0.961 . S
C253 H269 0.960 . S
H254 C238 0.931 . S
H255 C243 0.929 . S
H256 C244 0.960 . S
H257 C244 0.962 . S
H258 C244 0.960 1_545 S
H259 C245 0.961 . S
H260 C245 0.961 . S
H261 C245 0.961 . S
H262 C246 0.931 . S
H263 C251 0.930 . S
H264 C252 0.956 1_545 S
H265 C252 0.961 1_545 S
H266 C252 0.961 . S
H267 C253 0.958 . S
H268 C253 0.961 . S
H269 C253 0.960 . S
C270 C271 1.391 . S
C270 C272 1.394 . S
C270 H286 0.931 . S
C271 C270 1.391 . S
C271 C275 1.376 . S
C272 C270 1.394 . S
C272 C273 1.369 . S
C272 C276 1.531 . S
C273 C272 1.369 . S
C273 C274 1.410 . S
C273 C281 1.503 . S
C274 C273 1.410 . S
C274 C275 1.392 . S
C274 C277 1.511 . S
C275 C271 1.376 . S
C275 C274 1.392 . S
C275 H287 0.929 . S
C276 C272 1.531 . S
C276 H288 0.960 . S
C276 H289 0.962 . S
C276 H290 0.960 . S
C277 C274 1.511 . S
C277 H291 0.961 . S
C277 H292 0.961 . S
C277 H293 0.961 . S
C278 C279 1.370 . S
C278 C280 1.363 . S
C278 H294 0.931 . S
C279 C278 1.370 . S
C279 C283 1.408 . S
C280 C278 1.363 . S
C280 C281 1.370 . S
C280 C284 1.524 . S
C281 C273 1.503 . S
C281 C280 1.370 . S
C281 C282 1.403 . S
C282 C281 1.403 . S
C282 C283 1.404 . S
C282 C285 1.539 . S
C283 C279 1.408 . S
C283 C282 1.404 . S
C283 H295 0.930 . S
C284 C280 1.524 . S
C284 H296 0.956 . S
C284 H297 0.961 . S
C284 H298 0.961 . S
C285 C282 1.539 . S
C285 H299 0.958 . S
C285 H300 0.961 . S
C285 H301 0.960 . S
H286 C270 0.931 . S
H287 C275 0.929 . S
H288 C276 0.960 . S
H289 C276 0.962 . S
H290 C276 0.960 . S
H291 C277 0.961 . S
H292 C277 0.961 . S
H293 C277 0.961 . S
H294 C278 0.931 . S
H295 C283 0.930 . S
H296 C284 0.956 . S
H297 C284 0.961 . S
H298 C284 0.961 . S
H299 C285 0.958 . S
H300 C285 0.961 . S
H301 C285 0.960 . S
C302 C303 1.391 . S
C302 C304 1.394 . S
C302 H318 0.931 . S
C303 C302 1.391 . S
C303 C307 1.376 . S
C304 C302 1.394 . S
C304 C305 1.369 . S
C304 C308 1.531 . S
C305 C304 1.369 . S
C305 C306 1.410 . S
C305 C313 1.503 . S
C306 C305 1.410 . S
C306 C307 1.392 . S
C306 C309 1.511 . S
C307 C303 1.376 . S
C307 C306 1.392 . S
C307 H319 0.929 . S
C308 C304 1.531 . S
C308 H320 0.960 . S
C308 H321 0.962 . S
C308 H322 0.960 . S
C309 C306 1.511 . S
C309 H323 0.961 . S
C309 H324 0.961 . S
C309 H325 0.961 . S
C310 C311 1.370 . S
C310 C312 1.363 . S
C310 H326 0.931 . S
C311 C310 1.370 . S
C311 C315 1.408 . S
C312 C310 1.363 . S
C312 C313 1.370 . S
C312 C316 1.524 . S
C313 C305 1.503 . S
C313 C312 1.370 . S
C313 C314 1.403 . S
C314 C313 1.403 . S
C314 C315 1.404 . S
C314 C317 1.539 . S
C315 C311 1.408 . S
C315 C314 1.404 . S
C315 H327 0.930 . S
C316 C312 1.524 . S
C316 H328 0.956 . S
C316 H329 0.961 . S
C316 H330 0.961 . S
C317 C314 1.539 . S
C317 H331 0.958 . S
C317 H332 0.961 . S
C317 H333 0.960 . S
H318 C302 0.931 . S
H319 C307 0.929 . S
H320 C308 0.960 . S
H321 C308 0.962 . S
H322 C308 0.960 . S
H323 C309 0.961 . S
H324 C309 0.961 . S
H325 C309 0.961 . S
H326 C310 0.931 . S
H327 C315 0.930 . S
H328 C316 0.956 . S
H329 C316 0.961 . S
H330 C316 0.961 . S
H331 C317 0.958 . S
H332 C317 0.961 . S
H333 C317 0.960 . S
C334 C335 1.391 . S
C334 C336 1.394 . S
C334 H350 0.931 . S
C335 C334 1.391 . S
C335 C339 1.376 . S
C336 C334 1.394 . S
C336 C337 1.369 . S
C336 C340 1.531 . S
C337 C336 1.369 . S
C337 C338 1.410 . S
C337 C345 1.503 . S
C338 C337 1.410 . S
C338 C339 1.392 . S
C338 C341 1.511 . S
C339 C335 1.376 . S
C339 C338 1.392 . S
C339 H351 0.929 . S
C340 C336 1.531 . S
C340 H352 0.960 . S
C340 H353 0.962 . S
C340 H354 0.960 . S
C341 C338 1.511 . S
C341 H355 0.961 . S
C341 H356 0.961 . S
C341 H357 0.961 1_556 S
C342 C343 1.370 . S
C342 C344 1.363 . S
C342 H358 0.931 . S
C343 C342 1.370 . S
C343 C347 1.408 . S
C344 C342 1.363 . S
C344 C345 1.370 . S
C344 C348 1.524 . S
C345 C337 1.503 . S
C345 C344 1.370 . S
C345 C346 1.403 . S
C346 C345 1.403 . S
C346 C347 1.404 . S
C346 C349 1.539 . S
C347 C343 1.408 . S
C347 C346 1.404 . S
C347 H359 0.930 1_556 S
C348 C344 1.524 . S
C348 H360 0.956 . S
C348 H361 0.961 . S
C348 H362 0.961 . S
C349 C346 1.539 . S
C349 H363 0.958 . S
C349 H364 0.961 1_556 S
C349 H365 0.960 . S
H350 C334 0.931 . S
H351 C339 0.929 . S
H352 C340 0.960 . S
H353 C340 0.962 . S
H354 C340 0.960 . S
H355 C341 0.961 . S
H356 C341 0.961 . S
H357 C341 0.961 1_554 S
H358 C342 0.931 . S
H359 C347 0.930 1_554 S
H360 C348 0.956 . S
H361 C348 0.961 . S
H362 C348 0.961 . S
H363 C349 0.958 . S
H364 C349 0.961 1_554 S
H365 C349 0.960 . S
C366 C367 1.391 . S
C366 C368 1.394 . S
C366 H382 0.931 . S
C367 C366 1.391 . S
C367 C371 1.376 . S
C368 C366 1.394 . S
C368 C369 1.369 . S
C368 C372 1.531 . S
C369 C368 1.369 . S
C369 C370 1.410 . S
C369 C377 1.503 . S
C370 C369 1.410 . S
C370 C371 1.392 . S
C370 C373 1.511 . S
C371 C367 1.376 . S
C371 C370 1.392 . S
C371 H383 0.929 . S
C372 C368 1.531 . S
C372 H384 0.960 . S
C372 H385 0.962 . S
C372 H386 0.960 . S
C373 C370 1.511 . S
C373 H387 0.961 . S
C373 H388 0.961 . S
C373 H389 0.961 . S
C374 C375 1.370 . S
C374 C376 1.363 . S
C374 H390 0.931 . S
C375 C374 1.370 . S
C375 C379 1.408 . S
C376 C374 1.363 . S
C376 C377 1.370 . S
C376 C380 1.524 . S
C377 C369 1.503 . S
C377 C376 1.370 . S
C377 C378 1.403 . S
C378 C377 1.403 . S
C378 C379 1.404 . S
C378 C381 1.539 . S
C379 C375 1.408 . S
C379 C378 1.404 . S
C379 H391 0.930 . S
C380 C376 1.524 . S
C380 H392 0.956 . S
C380 H393 0.961 . S
C380 H394 0.961 . S
C381 C378 1.539 . S
C381 H395 0.958 . S
C381 H396 0.961 . S
C381 H397 0.960 . S
H382 C366 0.931 . S
H383 C371 0.929 . S
H384 C372 0.960 . S
H385 C372 0.962 . S
H386 C372 0.960 . S
H387 C373 0.961 . S
H388 C373 0.961 . S
H389 C373 0.961 . S
H390 C374 0.931 . S
H391 C379 0.930 . S
H392 C380 0.956 . S
H393 C380 0.961 . S
H394 C380 0.961 . S
H395 C381 0.958 . S
H396 C381 0.961 . S
H397 C381 0.960 . S
C398 C399 1.391 . S
C398 C400 1.394 . S
C398 H414 0.931 . S
C399 C398 1.391 . S
C399 C403 1.376 . S
C400 C398 1.394 . S
C400 C401 1.369 . S
C400 C404 1.531 . S
C401 C400 1.369 . S
C401 C402 1.410 . S
C401 C409 1.503 . S
C402 C401 1.410 . S
C402 C403 1.392 . S
C402 C405 1.511 . S
C403 C399 1.376 . S
C403 C402 1.392 . S
C403 H415 0.929 . S
C404 C400 1.531 . S
C404 H416 0.960 . S
C404 H417 0.962 . S
C404 H418 0.960 . S
C405 C402 1.511 . S
C405 H419 0.961 . S
C405 H420 0.961 . S
C405 H421 0.961 . S
C406 C407 1.370 . S
C406 C408 1.363 . S
C406 H422 0.931 . S
C407 C406 1.370 . S
C407 C411 1.408 . S
C408 C406 1.363 . S
C408 C409 1.370 . S
C408 C412 1.524 . S
C409 C401 1.503 . S
C409 C408 1.370 . S
C409 C410 1.403 . S
C410 C409 1.403 . S
C410 C411 1.404 . S
C410 C413 1.539 . S
C411 C407 1.408 . S
C411 C410 1.404 . S
C411 H423 0.930 . S
C412 C408 1.524 . S
C412 H424 0.956 . S
C412 H425 0.961 . S
C412 H426 0.961 . S
C413 C410 1.539 . S
C413 H427 0.958 . S
C413 H428 0.961 . S
C413 H429 0.960 . S
H414 C398 0.931 . S
H415 C403 0.929 . S
H416 C404 0.960 . S
H417 C404 0.962 . S
H418 C404 0.960 . S
H419 C405 0.961 . S
H420 C405 0.961 . S
H421 C405 0.961 . S
H422 C406 0.931 . S
H423 C411 0.930 . S
H424 C412 0.956 . S
H425 C412 0.961 . S
H426 C412 0.961 . S
H427 C413 0.958 . S
H428 C413 0.961 . S
H429 C413 0.960 . S
C430 C431 1.391 . S
C430 C432 1.394 . S
C430 H446 0.931 . S
C431 C430 1.391 . S
C431 C435 1.376 . S
C432 C430 1.394 . S
C432 C433 1.369 . S
C432 C436 1.531 . S
C433 C432 1.369 . S
C433 C434 1.410 . S
C433 C441 1.503 . S
C434 C433 1.410 . S
C434 C435 1.392 . S
C434 C437 1.511 . S
C435 C431 1.376 . S
C435 C434 1.392 . S
C435 H447 0.929 . S
C436 C432 1.531 . S
C436 H448 0.960 . S
C436 H449 0.962 . S
C436 H450 0.960 . S
C437 C434 1.511 . S
C437 H451 0.961 . S
C437 H452 0.961 . S
C437 H453 0.961 . S
C438 C439 1.370 . S
C438 C440 1.363 . S
C438 H454 0.931 . S
C439 C438 1.370 . S
C439 C443 1.408 . S
C440 C438 1.363 . S
C440 C441 1.370 . S
C440 C444 1.524 . S
C441 C433 1.503 . S
C441 C440 1.370 . S
C441 C442 1.403 . S
C442 C441 1.403 . S
C442 C443 1.404 . S
C442 C445 1.539 1_556 S
C443 C439 1.408 . S
C443 C442 1.404 . S
C443 H455 0.930 1_556 S
C444 C440 1.524 . S
C444 H456 0.956 . S
C444 H457 0.961 . S
C444 H458 0.961 . S
C445 C442 1.539 1_554 S
C445 H459 0.958 . S
C445 H460 0.961 . S
C445 H461 0.960 1_554 S
H446 C430 0.931 . S
H447 C435 0.929 . S
H448 C436 0.960 . S
H449 C436 0.962 . S
H450 C436 0.960 . S
H451 C437 0.961 . S
H452 C437 0.961 . S
H453 C437 0.961 . S
H454 C438 0.931 . S
H455 C443 0.930 1_554 S
H456 C444 0.956 . S
H457 C444 0.961 . S
H458 C444 0.961 . S
H459 C445 0.958 . S
H460 C445 0.961 . S
H461 C445 0.960 1_556 S
C79 C5 1.372 . S
C87 C68 1.403 . S
C111 C18 1.408 . S
C119 C3 1.413 . S
C143 C16 1.420 . S
C151 C31 1.399 . S
C175 C44 1.388 . S
C183 C29 1.407 . S
C207 C42 1.420 . S
C215 C57 1.399 . S
C239 C70 1.392 . S
C247 C55 1.409 . S
C271 C53 1.495 . S
C279 C10 1.497 . S
C303 C66 1.516 . S
C311 C23 1.503 . S
C335 C36 1.499 . S
C343 C1 1.505 . S
C367 C49 1.505 . S
C375 C14 1.512 . S
C399 C62 1.493 . S
C407 C27 1.503 . S
C431 C75 1.475 . S
C439 C40 1.500 . S
