# Generated by pormake.
# Topology wka, (5)-cn, num edge types: 1
# Building blocks:
#     Node 0, Type 0, BuildingBlock: BEQFEK_clean_sbu_0, # of connection points: 5
#     Node 1, Type 0, BuildingBlock: BEQFEK_clean_sbu_0, # of connection points: 5
#     Node 2, Type 0, BuildingBlock: BEQFEK_clean_sbu_0, # of connection points: 5
#     Node 3, Type 0, BuildingBlock: BEQFEK_clean_sbu_0, # of connection points: 5
#     Node 4, Type 0, BuildingBlock: BEQFEK_clean_sbu_0, # of connection points: 5
#     Node 5, Type 0, BuildingBlock: BEQFEK_clean_sbu_0, # of connection points: 5
#     Node 6, Type 0, BuildingBlock: BEQFEK_clean_sbu_0, # of connection points: 5
#     Node 7, Type 0, BuildingBlock: BEQFEK_clean_sbu_0, # of connection points: 5
#     Node 8, Type 0, BuildingBlock: BEQFEK_clean_sbu_0, # of connection points: 5
#     Node 9, Type 0, BuildingBlock: BEQFEK_clean_sbu_0, # of connection points: 5
#     Node 10, Type 0, BuildingBlock: BEQFEK_clean_sbu_0, # of connection points: 5
#     Node 11, Type 0, BuildingBlock: BEQFEK_clean_sbu_0, # of connection points: 5
#     Edge 12, Type (0, 0), BuildingBlock: OJICUG_clean_linker_0, # of connection points: 2
#     Edge 13, Type (0, 0), BuildingBlock: OJICUG_clean_linker_0, # of connection points: 2
#     Edge 14, Type (0, 0), BuildingBlock: OJICUG_clean_linker_0, # of connection points: 2
#     Edge 15, Type (0, 0), BuildingBlock: OJICUG_clean_linker_0, # of connection points: 2
#     Edge 16, Type (0, 0), BuildingBlock: OJICUG_clean_linker_0, # of connection points: 2
#     Edge 17, Type (0, 0), BuildingBlock: OJICUG_clean_linker_0, # of connection points: 2
#     Edge 18, Type (0, 0), BuildingBlock: OJICUG_clean_linker_0, # of connection points: 2
#     Edge 19, Type (0, 0), BuildingBlock: OJICUG_clean_linker_0, # of connection points: 2
#     Edge 20, Type (0, 0), BuildingBlock: OJICUG_clean_linker_0, # of connection points: 2
#     Edge 21, Type (0, 0), BuildingBlock: OJICUG_clean_linker_0, # of connection points: 2
#     Edge 22, Type (0, 0), BuildingBlock: OJICUG_clean_linker_0, # of connection points: 2
#     Edge 23, Type (0, 0), BuildingBlock: OJICUG_clean_linker_0, # of connection points: 2
#     Edge 24, Type (0, 0), BuildingBlock: OJICUG_clean_linker_0, # of connection points: 2
#     Edge 25, Type (0, 0), BuildingBlock: OJICUG_clean_linker_0, # of connection points: 2
#     Edge 26, Type (0, 0), BuildingBlock: OJICUG_clean_linker_0, # of connection points: 2
#     Edge 27, Type (0, 0), BuildingBlock: OJICUG_clean_linker_0, # of connection points: 2
#     Edge 28, Type (0, 0), BuildingBlock: OJICUG_clean_linker_0, # of connection points: 2
#     Edge 29, Type (0, 0), BuildingBlock: OJICUG_clean_linker_0, # of connection points: 2
#     Edge 30, Type (0, 0), BuildingBlock: OJICUG_clean_linker_0, # of connection points: 2
#     Edge 31, Type (0, 0), BuildingBlock: OJICUG_clean_linker_0, # of connection points: 2
#     Edge 32, Type (0, 0), BuildingBlock: OJICUG_clean_linker_0, # of connection points: 2
#     Edge 33, Type (0, 0), BuildingBlock: OJICUG_clean_linker_0, # of connection points: 2
#     Edge 34, Type (0, 0), BuildingBlock: OJICUG_clean_linker_0, # of connection points: 2
#     Edge 35, Type (0, 0), BuildingBlock: OJICUG_clean_linker_0, # of connection points: 2
#     Edge 36, Type (0, 0), BuildingBlock: OJICUG_clean_linker_0, # of connection points: 2
#     Edge 37, Type (0, 0), BuildingBlock: OJICUG_clean_linker_0, # of connection points: 2
#     Edge 38, Type (0, 0), BuildingBlock: OJICUG_clean_linker_0, # of connection points: 2
#     Edge 39, Type (0, 0), BuildingBlock: OJICUG_clean_linker_0, # of connection points: 2
#     Edge 40, Type (0, 0), BuildingBlock: OJICUG_clean_linker_0, # of connection points: 2
#     Edge 41, Type (0, 0), BuildingBlock: OJICUG_clean_linker_0, # of connection points: 2
# Relax obj value: 0.440
# Max RMSD: 0.252
# Mean RMSD: 0.252
data_MOF--net-wka--node1-BEQFEK_clean_sbu_0--edge1-OJICUG_clean_linker_0
_symmetry_space_group_name_H-M    P1
_symmetry_Int_Tables_number       1
_symmetry_cell_setting            triclinic
loop_
_symmetry_equiv_pos_as_xyz
'x, y, z'
_cell_length_a     50.022563
_cell_length_b     50.062726
_cell_length_c     14.00811
_cell_angle_alpha  90.011625
_cell_angle_beta   90.011946
_cell_angle_gamma 120.05525
loop_
_atom_site_label
_atom_site_type_symbol
_atom_site_fract_x
_atom_site_fract_y
_atom_site_fract_z
_atom_type_partial_charge
Co0 Co 0.11846 0.44913 0.95423 0.0
Co1 Co 0.08138 0.43147 0.1458 0.0
C2 C 0.04971 0.4047 0.96253 0.0
O3 O 0.07535 0.42178 0.92246 0.0
O4 O 0.04757 0.40399 0.0533 0.0
C5 C 0.12463 0.42388 0.78852 0.0
O6 O 0.11136 0.39916 0.84275 0.0
C7 C 0.06712 0.40623 0.34166 0.0
C8 C 0.06233 0.4434 0.4091 0.0
C9 C 0.06706 0.41901 0.4298 0.0
N10 N 0.06512 0.42393 0.27283 0.0
N11 N 0.06041 0.44494 0.314 0.0
C12 C 0.07114 0.37899 0.32292 0.0
H13 H 0.07879 0.37922 0.24849 0.0
H14 H 0.0873 0.37781 0.3746 0.0
H15 H 0.04845 0.3577 0.33261 0.0
C16 C 0.15923 0.43414 0.06463 0.0
N17 N 0.13213 0.43348 0.05423 0.0
N18 N 0.11896 0.42981 0.13843 0.0
C19 C 0.13881 0.4308 0.20583 0.0
C20 C 0.16395 0.43183 0.16102 0.0
C21 C 0.18165 0.44068 0.98513 0.0
H22 H 0.19132 0.46497 0.9617 0.0
H23 H 0.16949 0.42557 0.92343 0.0
H24 H 0.20075 0.43685 0.0075 0.0
O25 O 0.12351 0.49005 0.992 0.0
O26 O 0.09411 0.47494 0.12238 0.0
H27 H 0.16384 0.45956 0.32538 0.0
H28 H 0.13342 0.42228 0.35692 0.0
C29 C 0.13992 0.44157 0.30648 0.0
H30 H 0.12498 0.45184 0.31528 0.0
H31 H 0.05937 0.46255 0.27737 0.0
O32 O 0.13702 0.45026 0.82888 0.0
C33 C 0.11129 0.49585 0.06336 0.0
Co34 Co 0.66657 0.11807 0.10396 0.0
Co35 Co 0.6491 0.07954 0.29254 0.0
C36 C 0.64866 0.05071 0.10925 0.0
O37 O 0.65413 0.07584 0.07152 0.0
O38 O 0.64819 0.04806 0.19983 0.0
C39 C 0.69811 0.12689 0.9362 0.0
O40 O 0.71212 0.116 0.98945 0.0
C41 C 0.66239 0.06788 0.48932 0.0
C42 C 0.61809 0.05688 0.55576 0.0
C43 C 0.64848 0.06577 0.57727 0.0
N44 N 0.64175 0.06303 0.41989 0.0
N45 N 0.61488 0.05466 0.46051 0.0
C46 C 0.69555 0.07761 0.47131 0.0
H47 H 0.71112 0.09661 0.51969 0.0
H48 H 0.69893 0.05777 0.48693 0.0
H49 H 0.7018 0.08431 0.39561 0.0
C50 C 0.72044 0.16153 0.21612 0.0
N51 N 0.69547 0.13335 0.20438 0.0
N52 N 0.68524 0.12039 0.28835 0.0
C53 C 0.70148 0.14158 0.35649 0.0
C54 C 0.72516 0.16764 0.31311 0.0
C55 C 0.73619 0.18387 0.13639 0.0
H56 H 0.71882 0.18667 0.09508 0.0
H57 H 0.74675 0.17438 0.08725 0.0
H58 H 0.75428 0.20673 0.1632 0.0
O59 O 0.62881 0.11937 0.14428 0.0
O60 O 0.61382 0.08533 0.26369 0.0
H61 H 0.66648 0.12115 0.46572 0.0
H62 H 0.68901 0.16161 0.47161 0.0
C63 C 0.6902 0.14057 0.4563 0.0
H64 H 0.70643 0.13984 0.50862 0.0
H65 H 0.59519 0.05088 0.42341 0.0
O66 O 0.68255 0.13734 0.97788 0.0
C67 C 0.60932 0.10287 0.20841 0.0
Co68 Co 0.53906 0.66321 0.27057 0.0
Co69 Co 0.5624 0.64879 0.4609 0.0
C70 C 0.59043 0.6462 0.28243 0.0
O71 O 0.57153 0.65264 0.24253 0.0
O72 O 0.59111 0.6441 0.37309 0.0
C73 C 0.56103 0.69538 0.10386 0.0
O74 O 0.58622 0.71251 0.15353 0.0
C75 C 0.58358 0.65336 0.66583 0.0
C76 C 0.53958 0.61611 0.72373 0.0
C77 C 0.56776 0.64065 0.75107 0.0
N78 N 0.56442 0.63814 0.59247 0.0
N79 N 0.53887 0.61501 0.6285 0.0
C80 C 0.61801 0.67205 0.65514 0.0
H81 H 0.62459 0.67504 0.57853 0.0
H82 H 0.62771 0.69488 0.68974 0.0
H83 H 0.62858 0.65982 0.6911 0.0
C84 C 0.54525 0.71504 0.38706 0.0
N85 N 0.55016 0.69127 0.37275 0.0
N86 N 0.56434 0.6881 0.4472 0.0
C87 C 0.57106 0.71147 0.50818 0.0
C88 C 0.55827 0.72882 0.47441 0.0
C89 C 0.52556 0.72175 0.3222 0.0
H90 H 0.51041 0.70116 0.27833 0.0
H91 H 0.54064 0.74087 0.27335 0.0
H92 H 0.51109 0.7286 0.36387 0.0
O93 O 0.50019 0.62552 0.29859 0.0
O94 O 0.51894 0.61647 0.42981 0.0
H95 H 0.58082 0.70581 0.65219 0.0
H96 H 0.6041 0.74464 0.60747 0.0
C97 C 0.59321 0.71981 0.58899 0.0
H98 H 0.6118 0.71531 0.56725 0.0
H99 H 0.5199 0.5993 0.58875 0.0
O100 O 0.53559 0.68023 0.14834 0.0
C101 C 0.49686 0.60909 0.37146 0.0
Co102 Co 0.87704 0.54322 0.44011 0.0
Co103 Co 0.9131 0.56083 0.63311 0.0
C104 C 0.94522 0.58912 0.45128 0.0
O105 O 0.92004 0.57148 0.40963 0.0
O106 O 0.94676 0.58964 0.54215 0.0
C107 C 0.87037 0.56835 0.2753 0.0
O108 O 0.8829 0.59289 0.33046 0.0
C109 C 0.92761 0.58666 0.82862 0.0
C110 C 0.93366 0.55035 0.89673 0.0
C111 C 0.9286 0.57457 0.91705 0.0
N112 N 0.92939 0.56872 0.76015 0.0
N113 N 0.93486 0.54825 0.80157 0.0
C114 C 0.92222 0.61303 0.80958 0.0
H115 H 0.90647 0.61405 0.86324 0.0
H116 H 0.94464 0.63484 0.81581 0.0
H117 H 0.91334 0.61175 0.7362 0.0
C118 C 0.83494 0.5569 0.54831 0.0
N119 N 0.8622 0.5578 0.53992 0.0
N120 N 0.87447 0.56061 0.62519 0.0
C121 C 0.85366 0.55836 0.69112 0.0
C122 C 0.82869 0.55733 0.64446 0.0
C123 C 0.81332 0.55099 0.46686 0.0
H124 H 0.80952 0.53017 0.42735 0.0
H125 H 0.82401 0.5708 0.4168 0.0
H126 H 0.79078 0.54766 0.49167 0.0
O127 O 0.87293 0.50263 0.47698 0.0
O128 O 0.90194 0.51783 0.60832 0.0
H129 H 0.87075 0.54247 0.80625 0.0
H130 H 0.8313 0.53127 0.81649 0.0
C131 C 0.85405 0.55042 0.79408 0.0
H132 H 0.85902 0.57044 0.83974 0.0
H133 H 0.93605 0.53067 0.76533 0.0
O134 O 0.85855 0.54187 0.31463 0.0
C135 C 0.88527 0.49698 0.54833 0.0
Co136 Co 0.32889 0.88394 0.62912 0.0
Co137 Co 0.3477 0.92115 0.82074 0.0
C138 C 0.35007 0.95195 0.63811 0.0
O139 O 0.34221 0.9264 0.59868 0.0
O140 O 0.35212 0.95446 0.72876 0.0
C141 C 0.29699 0.87614 0.46277 0.0
O142 O 0.28436 0.88842 0.5163 0.0
C143 C 0.3357 0.93424 0.01656 0.0
C144 C 0.37856 0.94129 0.08416 0.0
C145 C 0.34886 0.93502 0.10475 0.0
N146 N 0.35587 0.93734 0.94783 0.0
N147 N 0.38205 0.94336 0.98906 0.0
C148 C 0.30373 0.92841 0.99759 0.0
H149 H 0.29675 0.92094 0.92275 0.0
H150 H 0.28676 0.91138 0.04831 0.0
H151 H 0.30367 0.95032 0.0086 0.0
C152 C 0.27448 0.8411 0.74106 0.0
N153 N 0.30006 0.8689 0.73019 0.0
N154 N 0.30946 0.88222 0.81426 0.0
C155 C 0.29148 0.86185 0.88201 0.0
C156 C 0.26795 0.83604 0.83766 0.0
C157 C 0.25898 0.81859 0.66151 0.0
H158 H 0.25612 0.83055 0.59919 0.0
H159 H 0.23601 0.79942 0.68348 0.0
H160 H 0.2738 0.80902 0.63933 0.0
O161 O 0.36658 0.88188 0.66436 0.0
O162 O 0.38031 0.91101 0.79541 0.0
H163 H 0.29724 0.83795 0.00093 0.0
H164 H 0.28842 0.86696 0.03332 0.0
C165 C 0.30183 0.86144 0.98226 0.0
H166 H 0.32692 0.87748 0.99038 0.0
H167 H 0.40116 0.94543 0.95248 0.0
O168 O 0.31189 0.86487 0.50388 0.0
C169 C 0.3849 0.89487 0.73461 0.0
Co170 Co 0.45831 0.33501 0.77515 0.0
Co171 Co 0.43784 0.3513 0.96742 0.0
C172 C 0.40754 0.35272 0.79271 0.0
O173 O 0.42577 0.34575 0.75089 0.0
O174 O 0.40805 0.35554 0.88334 0.0
C175 C 0.43453 0.3028 0.60913 0.0
O176 O 0.40941 0.28626 0.65965 0.0
C177 C 0.41664 0.34851 0.1714 0.0
C178 C 0.46218 0.38126 0.23247 0.0
C179 C 0.43235 0.35961 0.25774 0.0
N180 N 0.43709 0.36179 0.09948 0.0
N181 N 0.4638 0.38228 0.13733 0.0
C182 C 0.38231 0.33122 0.15757 0.0
H183 H 0.37646 0.32713 0.08049 0.0
H184 H 0.3712 0.30902 0.19646 0.0
H185 H 0.37263 0.34514 0.18728 0.0
C186 C 0.4526 0.28344 0.89299 0.0
N187 N 0.44814 0.30751 0.87847 0.0
N188 N 0.4354 0.31182 0.95458 0.0
C189 C 0.42935 0.28913 0.01753 0.0
C190 C 0.44094 0.27086 0.98269 0.0
C191 C 0.47064 0.27527 0.82576 0.0
H192 H 0.48544 0.29519 0.77908 0.0
H193 H 0.45438 0.2558 0.77981 0.0
H194 H 0.4853 0.26825 0.86563 0.0
O195 O 0.49768 0.37285 0.79901 0.0
O196 O 0.48088 0.38351 0.93171 0.0
H197 H 0.42377 0.29798 0.16267 0.0
H198 H 0.3987 0.25839 0.12633 0.0
C199 C 0.40954 0.28284 0.10354 0.0
H200 H 0.39076 0.28747 0.08569 0.0
H201 H 0.48398 0.39579 0.09903 0.0
O202 O 0.46026 0.31722 0.65258 0.0
C203 C 0.5021 0.39009 0.87071 0.0
Co204 Co 0.54036 0.87802 0.87959 0.0
Co205 Co 0.56107 0.91376 0.68751 0.0
C206 C 0.59308 0.946 0.85762 0.0
O207 O 0.57416 0.92115 0.89997 0.0
O208 O 0.59255 0.94821 0.76689 0.0
C209 C 0.56488 0.86999 0.04379 0.0
O210 O 0.58941 0.87772 0.99119 0.0
C211 C 0.58142 0.93281 0.4824 0.0
C212 C 0.53447 0.90918 0.42075 0.0
C213 C 0.56529 0.9248 0.39617 0.0
N214 N 0.56061 0.92147 0.5541 0.0
N215 N 0.53276 0.90807 0.51575 0.0
C216 C 0.61564 0.95178 0.49604 0.0
H217 H 0.62157 0.95464 0.57316 0.0
H218 H 0.62755 0.94105 0.45948 0.0
H219 H 0.62411 0.97481 0.46314 0.0
C220 C 0.54522 0.83104 0.76387 0.0
N221 N 0.54949 0.85951 0.77791 0.0
N222 N 0.56253 0.87654 0.70223 0.0
C223 C 0.56892 0.86009 0.63973 0.0
C224 C 0.55732 0.8302 0.67465 0.0
C225 C 0.52726 0.80491 0.83146 0.0
H226 H 0.51244 0.81006 0.87797 0.0
H227 H 0.54355 0.80185 0.87764 0.0
H228 H 0.51263 0.78315 0.79184 0.0
O229 O 0.50156 0.87788 0.85646 0.0
O230 O 0.51899 0.90591 0.72505 0.0
H231 H 0.57422 0.87341 0.49317 0.0
H232 H 0.60086 0.8613 0.5335 0.0
C233 C 0.58874 0.87393 0.55369 0.0
H234 H 0.60639 0.89807 0.56962 0.0
H235 H 0.51235 0.89555 0.55375 0.0
O236 O 0.53878 0.85891 0.00269 0.0
C237 C 0.49773 0.89175 0.78647 0.0
Co238 Co 0.66906 0.55124 0.03907 0.0
Co239 Co 0.65041 0.56992 0.84789 0.0
C240 C 0.64634 0.59697 0.0304 0.0
O241 O 0.65417 0.57922 0.06949 0.0
O242 O 0.64523 0.59824 0.93971 0.0
C243 C 0.70056 0.57634 0.20488 0.0
O244 O 0.7125 0.60102 0.15034 0.0
C245 C 0.6616 0.59498 0.65173 0.0
C246 C 0.61921 0.55823 0.58456 0.0
C247 C 0.64852 0.58235 0.56366 0.0
N248 N 0.6418 0.57747 0.7207 0.0
N249 N 0.61585 0.55672 0.67971 0.0
C250 C 0.69318 0.62185 0.67025 0.0
H251 H 0.70076 0.62125 0.74422 0.0
H252 H 0.71022 0.62289 0.61763 0.0
H253 H 0.69218 0.64337 0.66195 0.0
C254 C 0.72423 0.56449 0.92847 0.0
N255 N 0.69832 0.56613 0.93895 0.0
N256 N 0.68912 0.57027 0.85485 0.0
C257 C 0.70764 0.56869 0.78738 0.0
C258 C 0.73124 0.56666 0.83209 0.0
C259 C 0.73954 0.55721 0.00788 0.0
H260 H 0.72457 0.53278 0.02962 0.0
H261 H 0.74239 0.57193 0.0705 0.0
H262 H 0.76248 0.56092 0.98606 0.0
O263 O 0.63241 0.51082 0.00229 0.0
O264 O 0.61852 0.52686 0.87318 0.0
H265 H 0.70336 0.54026 0.66635 0.0
H266 H 0.71101 0.57792 0.63677 0.0
C267 C 0.69789 0.55846 0.68639 0.0
H268 H 0.67271 0.54865 0.67762 0.0
H269 H 0.59705 0.53931 0.71646 0.0
O270 O 0.68619 0.54994 0.16483 0.0
C271 C 0.61415 0.50568 0.93201 0.0
Co272 Co 0.12209 0.66565 0.22863 0.0
Co273 Co 0.08694 0.64654 0.03467 0.0
C274 C 0.05423 0.6447 0.21395 0.0
O275 O 0.0792 0.65296 0.25837 0.0
O276 O 0.05311 0.64196 0.12332 0.0
C277 C 0.13101 0.69727 0.39697 0.0
O278 O 0.12165 0.71331 0.34734 0.0
C279 C 0.06979 0.65461 0.83896 0.0
C280 C 0.06847 0.61406 0.7722 0.0
C281 C 0.0696 0.64164 0.75033 0.0
N282 N 0.07139 0.63665 0.90761 0.0
N283 N 0.06897 0.61173 0.86721 0.0
C284 C 0.06644 0.68214 0.85986 0.0
H285 H 0.08919 0.70276 0.87367 0.0
H286 H 0.05503 0.68689 0.79956 0.0
H287 H 0.05248 0.67782 0.92564 0.0
C288 C 0.16501 0.721 0.1186 0.0
N289 N 0.13789 0.69446 0.12695 0.0
N290 N 0.12528 0.6853 0.04185 0.0
C291 C 0.14551 0.70463 0.97588 0.0
C292 C 0.17069 0.72835 0.02267 0.0
C293 C 0.18685 0.73665 0.19966 0.0
H294 H 0.18994 0.71942 0.24061 0.0
H295 H 0.17679 0.74672 0.24853 0.0
H296 H 0.20966 0.75523 0.17421 0.0
O297 O 0.12524 0.62821 0.19709 0.0
O298 O 0.09785 0.61494 0.06311 0.0
H299 H 0.12854 0.6731 0.85704 0.0
H300 H 0.16683 0.70397 0.84232 0.0
C301 C 0.14392 0.69791 0.87109 0.0
H302 H 0.13635 0.71213 0.83171 0.0
H303 H 0.07035 0.59431 0.90375 0.0
O304 O 0.14186 0.68265 0.35229 0.0
C305 C 0.11349 0.6103 0.12543 0.0
Co306 Co 0.4605 0.12403 0.39276 0.0
Co307 Co 0.43506 0.08498 0.20712 0.0
C308 C 0.40621 0.05569 0.38163 0.0
O309 O 0.42686 0.08078 0.41929 0.0
O310 O 0.40395 0.05246 0.29102 0.0
C311 C 0.43887 0.1341 0.56029 0.0
O312 O 0.41364 0.12612 0.51098 0.0
C313 C 0.41654 0.06897 -0.0008 0.0
C314 C 0.46311 0.08295 0.94459 0.0
C315 C 0.43371 0.07496 0.91518 0.0
N316 N 0.43577 0.07501 0.07413 0.0
N317 N 0.46318 0.08213 0.03977 0.0
C318 C 0.38204 0.05241 0.0074 0.0
H319 H 0.37488 0.04761 0.08339 0.0
H320 H 0.37229 0.06577 0.97476 0.0
H321 H 0.37219 0.03024 0.96788 0.0
C322 C 0.4551 0.17001 0.27532 0.0
N323 N 0.44995 0.14134 0.29152 0.0
N324 N 0.43536 0.12352 0.21848 0.0
C325 C 0.42852 0.13979 0.15648 0.0
C326 C 0.44173 0.17024 0.18798 0.0
C327 C 0.47507 0.19676 0.33872 0.0
H328 H 0.49006 0.19136 0.38352 0.0
H329 H 0.46019 0.20134 0.38681 0.0
H330 H 0.48968 0.21776 0.2958 0.0
O331 O 0.49912 0.12491 0.36273 0.0
O332 O 0.47609 0.09103 0.24686 0.0
H333 H 0.41827 0.1241 0.01274 0.0
H334 H 0.39446 0.13874 0.05941 0.0
C335 C 0.406 0.12535 0.07681 0.0
H336 H 0.38802 0.10194 0.09882 0.0
H337 H 0.48295 0.08883 0.08042 0.0
O338 O 0.46426 0.14434 0.51554 0.0
C339 C 0.49946 0.10696 0.29954 0.0
Co340 Co 0.33037 0.4496 0.55467 0.0
Co341 Co 0.34773 0.43007 0.36262 0.0
C342 C 0.35128 0.40261 0.54545 0.0
O343 O 0.34433 0.42093 0.58511 0.0
O344 O 0.35197 0.4012 0.45471 0.0
C345 C 0.29846 0.42497 0.71996 0.0
O346 O 0.28581 0.40046 0.66471 0.0
C347 C 0.33583 0.4043 0.16676 0.0
C348 C 0.37877 0.43996 0.09922 0.0
C349 C 0.34915 0.41638 0.07847 0.0
N350 N 0.35581 0.42174 0.23554 0.0
N351 N 0.38206 0.44176 0.1944 0.0
C352 C 0.30375 0.37837 0.18548 0.0
H353 H 0.2961 0.38 0.25847 0.0
H354 H 0.28724 0.37755 0.13115 0.0
H355 H 0.30386 0.35631 0.18036 0.0
C356 C 0.27509 0.43715 0.4463 0.0
N357 N 0.30087 0.4352 0.45517 0.0
N358 N 0.30997 0.43162 0.37022 0.0
C359 C 0.29185 0.43445 0.30389 0.0
C360 C 0.26849 0.43664 0.3501 0.0
C361 C 0.26009 0.4442 0.5272 0.0
H362 H 0.27771 0.465 0.56564 0.0
H363 H 0.2505 0.42468 0.57838 0.0
H364 H 0.24131 0.44814 0.50198 0.0
O365 O 0.36754 0.48954 0.51662 0.0
O366 O 0.38049 0.47269 0.38724 0.0
H367 H 0.32497 0.44964 0.18925 0.0
H368 H 0.29713 0.46131 0.1774 0.0
C369 C 0.30036 0.44204 0.20087 0.0
H370 H 0.28512 0.42198 0.15558 0.0
H371 H 0.40111 0.45895 0.23091 0.0
O372 O 0.31367 0.45142 0.68066 0.0
C373 C 0.38547 0.49412 0.44584 0.0
Co374 Co 0.87476 0.32805 0.72063 0.0
Co375 Co 0.912 0.34732 0.52913 0.0
C376 C 0.94333 0.35136 0.7124 0.0
O377 O 0.91773 0.34299 0.75249 0.0
O378 O 0.94551 0.35298 0.62166 0.0
C379 C 0.86793 0.29641 0.88652 0.0
O380 O 0.88086 0.28454 0.83257 0.0
C381 C 0.9258 0.33592 0.33327 0.0
C382 C 0.93141 0.37819 0.26579 0.0
C383 C 0.92606 0.34884 0.24511 0.0
N384 N 0.92829 0.35583 0.40209 0.0
N385 N 0.93347 0.38171 0.36088 0.0
C386 C 0.92105 0.30437 0.35209 0.0
H387 H 0.90439 0.28712 0.30116 0.0
H388 H 0.9434 0.30514 0.34124 0.0
H389 H 0.91366 0.29721 0.42685 0.0
C390 C 0.83327 0.27267 0.60839 0.0
N391 N 0.86058 0.29888 0.61977 0.0
N392 N 0.87393 0.30852 0.53588 0.0
C393 C 0.85404 0.29014 0.46781 0.0
C394 C 0.82864 0.26602 0.51166 0.0
C395 C 0.81071 0.25657 0.68736 0.0
H396 H 0.80019 0.2706 0.7087 0.0
H397 H 0.82288 0.25437 0.75031 0.0
H398 H 0.79222 0.23329 0.66511 0.0
O399 O 0.87088 0.36473 0.68389 0.0
O400 O 0.90019 0.37864 0.55328 0.0
H401 H 0.86849 0.32567 0.36023 0.0
H402 H 0.82939 0.29502 0.34931 0.0
C403 C 0.85319 0.30045 0.36783 0.0
H404 H 0.85936 0.28768 0.31628 0.0
H405 H 0.93491 0.40054 0.39751 0.0
O406 O 0.85593 0.3107 0.84584 0.0
C407 C 0.88342 0.38279 0.61279 0.0
C408 C 0.1166 0.56523 0.18906 0.0
C409 C 0.1176 0.58338 0.11158 0.0
H410 H 0.11345 0.52285 0.23391 0.0
C411 C 0.11964 0.57402 0.01832 0.0
H412 H 0.11492 0.57189 0.26143 0.0
C413 C 0.11942 0.54635 0.00247 0.0
C414 C 0.11636 0.52719 0.07952 0.0
H415 H 0.12063 0.58779 0.95728 0.0
H416 H 0.12002 0.53922 0.92985 0.0
C417 C 0.11559 0.53715 0.17307 0.0
C418 C 0.55678 0.13339 0.27819 0.0
C419 C 0.52791 0.10613 0.27908 0.0
H420 H 0.60542 0.15387 0.25048 0.0
C421 C 0.52595 0.07822 0.25175 0.0
H422 H 0.55873 0.15525 0.29754 0.0
C423 C 0.5525 0.0774 0.22635 0.0
C424 C 0.58126 0.10465 0.22428 0.0
H425 H 0.50389 0.05695 0.25113 0.0
H426 H 0.55061 0.05546 0.20843 0.0
C427 C 0.58327 0.13271 0.24974 0.0
C428 C 0.42291 0.53372 0.33336 0.0
C429 C 0.41248 0.52488 0.42769 0.0
H430 H 0.45755 0.56769 0.24159 0.0
C431 C 0.42896 0.54489 0.50289 0.0
H432 H 0.41045 0.51883 0.27382 0.0
C433 C 0.45624 0.5726 0.48429 0.0
C434 C 0.46705 0.58098 0.39014 0.0
H435 H 0.42138 0.53866 0.57606 0.0
H436 H 0.46891 0.58746 0.54356 0.0
C437 C 0.44975 0.56169 0.31469 0.0
C438 C 0.87862 0.41948 0.5036 0.0
C439 C 0.87927 0.40963 0.59732 0.0
H440 H 0.87921 0.45463 0.41439 0.0
C441 C 0.87898 0.42729 0.67442 0.0
H442 H 0.87871 0.40612 0.44283 0.0
C443 C 0.88001 0.45534 0.65797 0.0
C444 C 0.88051 0.46576 0.5642 0.0
H445 H 0.87963 0.42028 0.74715 0.0
H446 H 0.8811 0.46926 0.71873 0.0
C447 C 0.87881 0.44712 0.48717 0.0
C448 C 0.42278 0.89033 0.83956 0.0
C449 C 0.41244 0.8917 0.74721 0.0
H450 H 0.4576 0.88857 0.92441 0.0
C451 C 0.42969 0.89199 0.66815 0.0
H452 H 0.40977 0.89004 0.90182 0.0
C453 C 0.4574 0.89205 0.68128 0.0
C454 C 0.46796 0.89092 0.77353 0.0
H455 H 0.42233 0.89328 0.59638 0.0
H456 H 0.47045 0.89295 0.61888 0.0
C457 C 0.45006 0.88946 0.85256 0.0
C458 C 0.57221 0.45464 0.99275 0.0
C459 C 0.58713 0.47471 0.91618 0.0
H460 H 0.53342 0.41188 0.03781 0.0
C461 C 0.57501 0.46566 0.82343 0.0
H462 H 0.58108 0.46097 0.06475 0.0
C463 C 0.54801 0.4375 0.80792 0.0
C464 C 0.53225 0.41822 0.88512 0.0
H465 H 0.58624 0.48055 0.76279 0.0
H466 H 0.53882 0.43137 0.73617 0.0
C467 C 0.54482 0.42675 0.9774 0.0
C468 C 0.99234 0.37149 0.93686 0.0
C469 C 0.02234 0.38741 0.89965 0.0
H470 H 0.94405 0.34765 0.90686 0.0
C471 C 0.02618 0.38884 0.79944 0.0
H472 H 0.98847 0.36988 0.01326 0.0
C473 C 0.0007 0.37594 0.738 0.0
C474 C 0.97069 0.36138 0.77521 0.0
H475 H 0.04897 0.40095 0.76795 0.0
H476 H 0.00457 0.37845 0.66162 0.0
C477 C 0.96686 0.3587 0.8754 0.0
C478 C 0.62585 0.00314 0.88225 0.0
C479 C 0.61325 0.97311 0.91803 0.0
H480 H 0.64708 0.05105 0.91454 0.0
C481 C 0.61673 0.96913 0.0161 0.0
H482 H 0.62387 0.00712 0.80722 0.0
C483 C 0.62969 0.99434 0.07868 0.0
C484 C 0.63996 0.02418 0.04397 0.0
H485 H 0.60829 0.94634 0.04528 0.0
H486 H 0.63038 0.99027 0.15435 0.0
C487 C 0.63909 0.02835 0.94443 0.0
C488 C 0.61131 0.64423 0.12105 0.0
C489 C 0.60946 0.63829 0.22004 0.0
H490 H 0.62419 0.63588 0.98271 0.0
C491 C 0.62322 0.62198 0.25626 0.0
H492 H 0.60178 0.65757 0.09122 0.0
C493 C 0.63645 0.61 0.19433 0.0
C494 C 0.63631 0.61397 0.09449 0.0
H495 H 0.62243 0.61712 0.3319 0.0
H496 H 0.64556 0.59634 0.22495 0.0
C497 C 0.62439 0.63204 0.05874 0.0
C498 C 0.97034 0.6034 0.29004 0.0
C499 C 0.97289 0.60725 0.39023 0.0
H500 H 0.99375 0.61228 0.15564 0.0
C501 C 0.00209 0.62682 0.42967 0.0
H502 H 0.94818 0.58866 0.25661 0.0
C503 C 0.02823 0.64072 0.37091 0.0
C504 C 0.0259 0.63502 0.27167 0.0
H505 H 0.00491 0.63067 0.50602 0.0
H506 H 0.05048 0.65516 0.40389 0.0
C507 C 0.99649 0.61706 0.23155 0.0
C508 C 0.38704 0.03416 0.54556 0.0
C509 C 0.38684 0.02946 0.44615 0.0
H510 H 0.37572 0.01362 0.6851 0.0
C511 C 0.37067 -0.00077 0.41103 0.0
H512 H 0.39846 0.05721 0.57469 0.0
C513 C 0.35722 0.97431 0.4741 0.0
C514 C 0.35958 0.97889 0.57398 0.0
H515 H 0.36978 0.99467 0.33513 0.0
H516 H 0.34632 0.95132 0.44411 0.0
C517 C 0.37373 0.00918 0.60899 0.0
C518 C 0.37508 0.37744 0.76954 0.0
C519 C 0.38806 0.36054 0.7322 0.0
H520 H 0.35328 0.40372 0.74 0.0
C521 C 0.38517 0.35408 0.63344 0.0
H522 H 0.37664 0.38268 0.84508 0.0
C523 C 0.37202 0.36647 0.57218 0.0
C524 C 0.36103 0.38522 0.60882 0.0
H525 H 0.39401 0.34024 0.60286 0.0
H526 H 0.37153 0.36229 0.49615 0.0
C527 C 0.36172 0.38958 0.70867 0.0
C528 C 0.18683 0.41081 0.27479 0.0
C529 C 0.1911 0.43386 0.20943 0.0
H530 H 0.2084 0.3938 0.37029 0.0
C531 C 0.22078 0.45921 0.19544 0.0
H532 H 0.16396 0.39136 0.28782 0.0
C533 C 0.24601 0.46097 0.24432 0.0
C534 C 0.24191 0.43709 0.30605 0.0
H535 H 0.22435 0.47778 0.14792 0.0
H536 H 0.26862 0.48103 0.23408 0.0
C537 C 0.21207 0.41232 0.32231 0.0
C538 C 0.7814 0.20018 0.34319 0.0
C539 C 0.75134 0.19432 0.36044 0.0
H540 H 0.82937 0.22746 0.37892 0.0
C541 C 0.74675 0.21282 0.42643 0.0
H542 H 0.78551 0.1863 0.29241 0.0
C543 C 0.77172 0.23587 0.4775 0.0
C544 C 0.80164 0.24106 0.4619 0.0
H545 H 0.72405 0.20985 0.4378 0.0
H546 H 0.76776 0.24999 0.52769 0.0
C547 C 0.80635 0.22345 0.39309 0.0
C548 C 0.55703 0.77967 0.67429 0.0
C549 C 0.55618 0.80344 0.62387 0.0
H550 H 0.55515 0.73628 0.66789 0.0
C551 C 0.55436 0.80153 0.52354 0.0
H552 H 0.55878 0.78019 0.75119 0.0
C553 C 0.55586 0.77796 0.47494 0.0
C554 C 0.55673 0.7542 0.52535 0.0
H555 H 0.55199 0.81833 0.4816 0.0
H556 H 0.55664 0.77874 0.39789 0.0
C557 C 0.55609 0.75483 0.62583 0.0
C558 C 0.75888 0.53749 0.79857 0.0
C559 C 0.75569 0.56346 0.78376 0.0
H560 H 0.7834 0.5141 0.76101 0.0
C561 C 0.77505 0.58604 0.718 0.0
H562 H 0.74342 0.51927 0.84641 0.0
C563 C 0.79824 0.58345 0.67094 0.0
C564 C 0.80218 0.55805 0.68803 0.0
H565 H 0.77254 0.60598 0.70437 0.0
H566 H 0.81356 0.60163 0.62267 0.0
C567 C 0.78179 0.53464 0.75016 0.0
C568 C 0.24025 0.77902 0.86859 0.0
C569 C 0.24375 0.80819 0.8861 0.0
H570 H 0.21529 0.7308 0.9027 0.0
C571 C 0.22469 0.81117 0.95362 0.0
H572 H 0.25545 0.77641 0.81923 0.0
C573 C 0.20142 0.78514 -0.00033 0.0
C574 C 0.19713 0.75581 0.97966 0.0
H575 H 0.2274 0.8336 0.96925 0.0
H576 H 0.18633 0.78782 0.04939 0.0
C577 C 0.21727 0.75302 0.91592 0.0
C578 C 0.44276 0.19722 0.03495 0.0
C579 C 0.44303 0.19681 0.13552 0.0
H580 H 0.43907 0.21893 0.90856 0.0
C581 C 0.44447 0.22194 0.18455 0.0
H582 H 0.44329 0.17925 0.99372 0.0
C583 C 0.44557 0.24659 0.1346 0.0
C584 C 0.44274 0.24577 0.03446 0.0
H585 H 0.44437 0.22263 0.26159 0.0
H586 H 0.44828 0.26614 0.17531 0.0
C587 C 0.44146 0.22074 0.98531 0.0
C588 C 0.07616 0.39152 0.56548 0.0
C589 C 0.08402 0.41876 0.51587 0.0
H590 H 0.08364 0.37159 0.69064 0.0
C591 C 0.10871 0.44685 0.54907 0.0
H592 H 0.05747 0.36958 0.54055 0.0
C593 C 0.12383 0.4481 0.63384 0.0
C594 C 0.11453 0.42129 0.68785 0.0
H595 H 0.11593 0.46814 0.51048 0.0
H596 H 0.14173 0.47038 0.65947 0.0
C597 C 0.09138 0.39275 0.65083 0.0
C598 C 0.66894 0.12071 0.78519 0.0
C599 C 0.69025 0.11582 0.83622 0.0
H600 H 0.6391 0.10855 0.66439 0.0
C601 C 0.69981 0.09597 0.79696 0.0
H602 H 0.66114 0.13587 0.81266 0.0
C603 C 0.68681 0.07992 0.71175 0.0
C604 C 0.66407 0.08345 0.66456 0.0
H605 H 0.71617 0.0916 0.83446 0.0
H606 H 0.69369 0.06398 0.68477 0.0
C607 C 0.65596 0.10465 0.70076 0.0
C608 C 0.5882 0.68742 0.85882 0.0
C609 C 0.57181 0.65513 0.84644 0.0
H610 H 0.59763 0.7256 0.95069 0.0
C611 C 0.55308 0.63662 0.92166 0.0
H612 H 0.60212 0.70269 0.8025 0.0
C613 C 0.5489 0.6499 0.00334 0.0
C614 C 0.56443 0.68209 0.01413 0.0
H615 H 0.54022 0.6117 0.9153 0.0
H616 H 0.53378 0.63485 0.05887 0.0
C617 C 0.58498 0.70073 0.94288 0.0
C618 C 0.92 0.60159 0.05495 0.0
C619 C 0.91159 0.5746 0.00307 0.0
H620 H 0.91286 0.62097 0.18203 0.0
C621 C 0.88634 0.54657 0.03405 0.0
H622 H 0.93911 0.62349 0.0316 0.0
C623 C 0.87113 0.54503 0.11885 0.0
C624 C 0.8809 0.57151 0.17503 0.0
H625 H 0.87878 0.52551 0.99366 0.0
H626 H 0.85275 0.52277 0.14273 0.0
C627 C 0.90472 0.60007 0.14042 0.0
C628 C 0.32361 0.87876 0.30969 0.0
C629 C 0.30452 0.88639 0.36225 0.0
H630 H 0.35254 0.88834 0.18781 0.0
C631 C 0.29744 0.90823 0.32411 0.0
H632 H 0.32934 0.86191 0.33619 0.0
C633 C 0.31123 0.92384 0.23908 0.0
C634 C 0.3321 0.9177 0.1909 0.0
H635 H 0.28277 0.91466 0.36278 0.0
H636 H 0.30659 0.94151 0.21326 0.0
C637 C 0.33728 0.89428 0.22528 0.0
C638 C 0.41136 0.29857 0.4474 0.0
C639 C 0.4313 0.31672 0.5206 0.0
H640 H 0.39597 0.29763 0.30497 0.0
C641 C 0.44685 0.34898 0.51221 0.0
H642 H 0.39872 0.27365 0.45339 0.0
C643 C 0.44361 0.36284 0.43039 0.0
C644 C 0.42587 0.34483 0.35298 0.0
H645 H 0.46151 0.36361 0.56927 0.0
H646 H 0.45678 0.38778 0.42511 0.0
C647 C 0.40909 0.31248 0.36331 0.0
C648 C 0.55442 0.90524 0.14014 0.0
C649 C 0.56927 0.88785 0.13145 0.0
H650 H 0.54428 0.93344 0.22988 0.0
C651 C 0.5891 0.88914 0.2043 0.0
H652 H 0.53993 0.90563 0.08327 0.0
C653 C 0.59137 0.90495 0.28922 0.0
C654 C 0.57458 0.92043 0.30046 0.0
H655 H 0.60127 0.87641 0.19788 0.0
H656 H 0.60391 0.90256 0.34828 0.0
C657 C 0.55758 0.92185 0.22295 0.0
C658 C 0.69861 0.60788 0.3415 0.0
C659 C 0.6931 0.57922 0.30535 0.0
H660 H 0.68821 0.6314 0.45132 0.0
C661 C 0.67559 0.55257 0.3601 0.0
H662 H 0.71201 0.62891 0.30106 0.0
C663 C 0.66191 0.5541 0.44493 0.0
C664 C 0.66549 0.5823 0.47743 0.0
H665 H 0.67109 0.53021 0.33509 0.0
H666 H 0.64784 0.53293 0.48418 0.0
C667 C 0.68483 0.60938 0.42695 0.0
C668 C 0.11391 0.70259 0.56056 0.0
C669 C 0.11498 0.68399 0.4876 0.0
H670 H 0.09921 0.70441 0.70182 0.0
C671 C 0.0978 0.65182 0.49721 0.0
H672 H 0.12648 0.72749 0.55351 0.0
C673 C 0.0805 0.63845 0.57908 0.0
C674 C 0.08102 0.65681 0.65596 0.0
H675 H 0.09722 0.63684 0.44037 0.0
H676 H 0.06781 0.61349 0.58364 0.0
C677 C 0.09757 0.68917 0.64492 0.0
C678 C 0.45169 0.10156 0.66232 0.0
C679 C 0.43553 0.11755 0.65035 0.0
H680 H 0.46125 0.07305 0.75228 0.0
C681 C 0.41443 0.11504 0.72063 0.0
H682 H 0.46721 0.10204 0.60756 0.0
C683 C 0.41139 0.09876 0.80514 0.0
C684 C 0.42858 0.08377 0.81885 0.0
H685 H 0.40127 0.12669 0.71184 0.0
H686 H 0.39716 0.0998 0.86109 0.0
C687 C 0.44772 0.08437 0.74445 0.0
C688 C 0.29958 0.3925 0.85508 0.0
C689 C 0.30559 0.42147 0.82029 0.0
H690 H 0.30922 0.3681 0.9639 0.0
C691 C 0.32324 0.44778 0.87635 0.0
H692 H 0.28607 0.37171 0.8136 0.0
C693 C 0.33654 0.44561 0.96119 0.0
C694 C 0.33246 0.41709 0.99236 0.0
H695 H 0.32811 0.47036 0.85238 0.0
H696 H 0.35074 0.46653 0.00147 0.0
C697 C 0.31299 0.39035 0.94053 0.0
C698 C 0.91608 0.31178 0.11 0.0
C699 C 0.90893 0.33179 0.15901 0.0
H700 H 0.90792 0.28392 0.9854 0.0
C701 C 0.88476 0.33592 0.12523 0.0
H702 H 0.93435 0.30795 0.13534 0.0
C703 C 0.86947 0.32212 0.04056 0.0
C704 C 0.8781 0.30395 0.98716 0.0
H705 H 0.87806 0.35049 0.16334 0.0
H706 H 0.85201 0.32706 0.01454 0.0
C707 C 0.90071 0.29787 0.02472 0.0
loop_
_geom_bond_atom_site_label_1
_geom_bond_atom_site_label_2
_geom_bond_distance
_geom_bond_site_symmetry_2
_ccdc_geom_bond_type
Co0 O3 1.970 . S
Co0 N17 1.989 1_556 S
Co0 O25 1.967 . S
Co0 O32 1.920 . S
Co1 O4 1.966 . S
Co1 N10 2.022 . S
Co1 N18 1.993 . S
Co1 O26 1.941 . S
C2 O3 1.258 1_554 S
C2 O4 1.263 . S
O3 Co0 1.970 . S
O3 C2 1.258 1_556 S
O4 Co1 1.966 . S
O4 C2 1.263 . S
C5 O6 1.235 . S
C5 O32 1.289 . S
O6 C5 1.235 . S
C7 C9 1.400 . S
C7 N10 1.351 . S
C7 C12 1.501 . S
C8 C9 1.387 . S
C8 N11 1.341 . S
C9 C7 1.400 . S
C9 C8 1.387 . S
N10 Co1 2.022 . S
N10 C7 1.351 . S
N10 N11 1.365 . S
N11 C8 1.341 . S
N11 N10 1.365 . S
N11 H31 0.862 . S
C12 C7 1.501 . S
C12 H13 0.961 . S
C12 H14 0.961 . S
C12 H15 0.960 . S
H13 C12 0.961 . S
H14 C12 0.961 . S
H15 C12 0.960 . S
C16 N17 1.342 . S
C16 C20 1.401 . S
C16 C21 1.499 1_554 S
N17 Co0 1.989 1_554 S
N17 C16 1.342 . S
N17 N18 1.388 . S
N18 Co1 1.993 . S
N18 N17 1.388 . S
N18 C19 1.346 . S
C19 N18 1.346 . S
C19 C20 1.396 . S
C19 C29 1.510 . S
C20 C16 1.401 . S
C20 C19 1.396 . S
C21 C16 1.499 1_556 S
C21 H22 0.959 . S
C21 H23 0.960 . S
C21 H24 0.961 . S
H22 C21 0.959 . S
H23 C21 0.960 . S
H24 C21 0.961 . S
O25 Co0 1.967 . S
O25 C33 1.258 1_556 S
O26 Co1 1.941 . S
O26 C33 1.266 . S
H27 C29 0.959 . S
H28 C29 0.961 . S
C29 C19 1.510 . S
C29 H27 0.959 . S
C29 H28 0.961 . S
C29 H30 0.960 . S
H30 C29 0.960 . S
H31 N11 0.862 . S
O32 Co0 1.920 . S
O32 C5 1.289 . S
C33 O25 1.258 1_554 S
C33 O26 1.266 . S
Co34 O37 1.970 . S
Co34 N51 1.989 . S
Co34 O59 1.967 . S
Co34 O66 1.920 1_554 S
Co35 O38 1.966 . S
Co35 N44 2.022 . S
Co35 N52 1.993 . S
Co35 O60 1.941 . S
C36 O37 1.258 . S
C36 O38 1.263 . S
O37 Co34 1.970 . S
O37 C36 1.258 . S
O38 Co35 1.966 . S
O38 C36 1.263 . S
C39 O40 1.235 . S
C39 O66 1.289 . S
O40 C39 1.235 . S
C41 C43 1.400 . S
C41 N44 1.351 . S
C41 C46 1.501 . S
C42 C43 1.387 . S
C42 N45 1.341 . S
C43 C41 1.400 . S
C43 C42 1.387 . S
N44 Co35 2.022 . S
N44 C41 1.351 . S
N44 N45 1.365 . S
N45 C42 1.341 . S
N45 N44 1.365 . S
N45 H65 0.862 . S
C46 C41 1.501 . S
C46 H47 0.961 . S
C46 H48 0.961 . S
C46 H49 0.960 . S
H47 C46 0.961 . S
H48 C46 0.961 . S
H49 C46 0.960 . S
C50 N51 1.342 . S
C50 C54 1.401 . S
C50 C55 1.499 . S
N51 Co34 1.989 . S
N51 C50 1.342 . S
N51 N52 1.388 . S
N52 Co35 1.993 . S
N52 N51 1.388 . S
N52 C53 1.346 . S
C53 N52 1.346 . S
C53 C54 1.396 . S
C53 C63 1.510 . S
C54 C50 1.401 . S
C54 C53 1.396 . S
C55 C50 1.499 . S
C55 H56 0.959 . S
C55 H57 0.960 . S
C55 H58 0.961 . S
H56 C55 0.959 . S
H57 C55 0.960 . S
H58 C55 0.961 . S
O59 Co34 1.967 . S
O59 C67 1.258 . S
O60 Co35 1.941 . S
O60 C67 1.266 . S
H61 C63 0.959 . S
H62 C63 0.961 . S
C63 C53 1.510 . S
C63 H61 0.959 . S
C63 H62 0.961 . S
C63 H64 0.960 . S
H64 C63 0.960 . S
H65 N45 0.862 . S
O66 Co34 1.920 1_556 S
O66 C39 1.289 . S
C67 O59 1.258 . S
C67 O60 1.266 . S
Co68 O71 1.970 . S
Co68 N85 1.989 . S
Co68 O93 1.967 . S
Co68 O100 1.920 . S
Co69 O72 1.966 . S
Co69 N78 2.022 . S
Co69 N86 1.993 . S
Co69 O94 1.941 . S
C70 O71 1.258 . S
C70 O72 1.263 . S
O71 Co68 1.970 . S
O71 C70 1.258 . S
O72 Co69 1.966 . S
O72 C70 1.263 . S
C73 O74 1.235 . S
C73 O100 1.289 . S
O74 C73 1.235 . S
C75 C77 1.400 . S
C75 N78 1.351 . S
C75 C80 1.501 . S
C76 C77 1.387 . S
C76 N79 1.341 . S
C77 C75 1.400 . S
C77 C76 1.387 . S
N78 Co69 2.022 . S
N78 C75 1.351 . S
N78 N79 1.365 . S
N79 C76 1.341 . S
N79 N78 1.365 . S
N79 H99 0.862 . S
C80 C75 1.501 . S
C80 H81 0.961 . S
C80 H82 0.961 . S
C80 H83 0.960 . S
H81 C80 0.961 . S
H82 C80 0.961 . S
H83 C80 0.960 . S
C84 N85 1.342 . S
C84 C88 1.401 . S
C84 C89 1.499 . S
N85 Co68 1.989 . S
N85 C84 1.342 . S
N85 N86 1.388 . S
N86 Co69 1.993 . S
N86 N85 1.388 . S
N86 C87 1.346 . S
C87 N86 1.346 . S
C87 C88 1.396 . S
C87 C97 1.510 . S
C88 C84 1.401 . S
C88 C87 1.396 . S
C89 C84 1.499 . S
C89 H90 0.959 . S
C89 H91 0.960 . S
C89 H92 0.961 . S
H90 C89 0.959 . S
H91 C89 0.960 . S
H92 C89 0.961 . S
O93 Co68 1.967 . S
O93 C101 1.258 . S
O94 Co69 1.941 . S
O94 C101 1.266 . S
H95 C97 0.959 . S
H96 C97 0.961 . S
C97 C87 1.510 . S
C97 H95 0.959 . S
C97 H96 0.961 . S
C97 H98 0.960 . S
H98 C97 0.960 . S
H99 N79 0.862 . S
O100 Co68 1.920 . S
O100 C73 1.289 . S
C101 O93 1.258 . S
C101 O94 1.266 . S
Co102 O105 1.970 . S
Co102 N119 1.989 . S
Co102 O127 1.967 . S
Co102 O134 1.920 . S
Co103 O106 1.966 . S
Co103 N112 2.022 . S
Co103 N120 1.993 . S
Co103 O128 1.941 . S
C104 O105 1.258 . S
C104 O106 1.263 . S
O105 Co102 1.970 . S
O105 C104 1.258 . S
O106 Co103 1.966 . S
O106 C104 1.263 . S
C107 O108 1.235 . S
C107 O134 1.289 . S
O108 C107 1.235 . S
C109 C111 1.400 . S
C109 N112 1.351 . S
C109 C114 1.501 . S
C110 C111 1.387 . S
C110 N113 1.341 . S
C111 C109 1.400 . S
C111 C110 1.387 . S
N112 Co103 2.022 . S
N112 C109 1.351 . S
N112 N113 1.365 . S
N113 C110 1.341 . S
N113 N112 1.365 . S
N113 H133 0.862 . S
C114 C109 1.501 . S
C114 H115 0.961 . S
C114 H116 0.961 . S
C114 H117 0.960 . S
H115 C114 0.961 . S
H116 C114 0.961 . S
H117 C114 0.960 . S
C118 N119 1.342 . S
C118 C122 1.401 . S
C118 C123 1.499 . S
N119 Co102 1.989 . S
N119 C118 1.342 . S
N119 N120 1.388 . S
N120 Co103 1.993 . S
N120 N119 1.388 . S
N120 C121 1.346 . S
C121 N120 1.346 . S
C121 C122 1.396 . S
C121 C131 1.510 . S
C122 C118 1.401 . S
C122 C121 1.396 . S
C123 C118 1.499 . S
C123 H124 0.959 . S
C123 H125 0.960 . S
C123 H126 0.961 . S
H124 C123 0.959 . S
H125 C123 0.960 . S
H126 C123 0.961 . S
O127 Co102 1.967 . S
O127 C135 1.258 . S
O128 Co103 1.941 . S
O128 C135 1.266 . S
H129 C131 0.959 . S
H130 C131 0.961 . S
C131 C121 1.510 . S
C131 H129 0.959 . S
C131 H130 0.961 . S
C131 H132 0.960 . S
H132 C131 0.960 . S
H133 N113 0.862 . S
O134 Co102 1.920 . S
O134 C107 1.289 . S
C135 O127 1.258 . S
C135 O128 1.266 . S
Co136 O139 1.970 . S
Co136 N153 1.989 . S
Co136 O161 1.967 . S
Co136 O168 1.920 . S
Co137 O140 1.966 . S
Co137 N146 2.022 . S
Co137 N154 1.993 . S
Co137 O162 1.941 . S
C138 O139 1.258 . S
C138 O140 1.263 . S
O139 Co136 1.970 . S
O139 C138 1.258 . S
O140 Co137 1.966 . S
O140 C138 1.263 . S
C141 O142 1.235 . S
C141 O168 1.289 . S
O142 C141 1.235 . S
C143 C145 1.400 . S
C143 N146 1.351 1_554 S
C143 C148 1.501 1_554 S
C144 C145 1.387 . S
C144 N147 1.341 . S
C145 C143 1.400 . S
C145 C144 1.387 . S
N146 Co137 2.022 . S
N146 C143 1.351 1_556 S
N146 N147 1.365 1_556 S
N147 C144 1.341 . S
N147 N146 1.365 1_554 S
N147 H167 0.862 . S
C148 C143 1.501 1_556 S
C148 H149 0.961 . S
C148 H150 0.961 . S
C148 H151 0.960 1_556 S
H149 C148 0.961 . S
H150 C148 0.961 . S
H151 C148 0.960 1_554 S
C152 N153 1.342 . S
C152 C156 1.401 . S
C152 C157 1.499 . S
N153 Co136 1.989 . S
N153 C152 1.342 . S
N153 N154 1.388 . S
N154 Co137 1.993 . S
N154 N153 1.388 . S
N154 C155 1.346 . S
C155 N154 1.346 . S
C155 C156 1.396 . S
C155 C165 1.510 . S
C156 C152 1.401 . S
C156 C155 1.396 . S
C157 C152 1.499 . S
C157 H158 0.959 . S
C157 H159 0.960 . S
C157 H160 0.961 . S
H158 C157 0.959 . S
H159 C157 0.960 . S
H160 C157 0.961 . S
O161 Co136 1.967 . S
O161 C169 1.258 . S
O162 Co137 1.941 . S
O162 C169 1.266 . S
H163 C165 0.959 . S
H164 C165 0.961 . S
C165 C155 1.510 . S
C165 H163 0.959 . S
C165 H164 0.961 . S
C165 H166 0.960 . S
H166 C165 0.960 . S
H167 N147 0.862 . S
O168 Co136 1.920 . S
O168 C141 1.289 . S
C169 O161 1.258 . S
C169 O162 1.266 . S
Co170 O173 1.970 . S
Co170 N187 1.989 . S
Co170 O195 1.967 . S
Co170 O202 1.920 . S
Co171 O174 1.966 1_554 S
Co171 N180 2.022 . S
Co171 N188 1.993 1_554 S
Co171 O196 1.941 1_554 S
C172 O173 1.258 . S
C172 O174 1.263 . S
O173 Co170 1.970 . S
O173 C172 1.258 . S
O174 Co171 1.966 1_556 S
O174 C172 1.263 . S
C175 O176 1.235 . S
C175 O202 1.289 . S
O176 C175 1.235 . S
C177 C179 1.400 . S
C177 N180 1.351 . S
C177 C182 1.501 . S
C178 C179 1.387 . S
C178 N181 1.341 . S
C179 C177 1.400 . S
C179 C178 1.387 . S
N180 Co171 2.022 . S
N180 C177 1.351 . S
N180 N181 1.365 . S
N181 C178 1.341 . S
N181 N180 1.365 . S
N181 H201 0.862 . S
C182 C177 1.501 . S
C182 H183 0.961 . S
C182 H184 0.961 . S
C182 H185 0.960 . S
H183 C182 0.961 . S
H184 C182 0.961 . S
H185 C182 0.960 . S
C186 N187 1.342 . S
C186 C190 1.401 . S
C186 C191 1.499 . S
N187 Co170 1.989 . S
N187 C186 1.342 . S
N187 N188 1.388 . S
N188 Co171 1.993 1_556 S
N188 N187 1.388 . S
N188 C189 1.346 1_556 S
C189 N188 1.346 1_554 S
C189 C190 1.396 1_554 S
C189 C199 1.510 . S
C190 C186 1.401 . S
C190 C189 1.396 1_556 S
C191 C186 1.499 . S
C191 H192 0.959 . S
C191 H193 0.960 . S
C191 H194 0.961 . S
H192 C191 0.959 . S
H193 C191 0.960 . S
H194 C191 0.961 . S
O195 Co170 1.967 . S
O195 C203 1.258 . S
O196 Co171 1.941 1_556 S
O196 C203 1.266 . S
H197 C199 0.959 . S
H198 C199 0.961 . S
C199 C189 1.510 . S
C199 H197 0.959 . S
C199 H198 0.961 . S
C199 H200 0.960 . S
H200 C199 0.960 . S
H201 N181 0.862 . S
O202 Co170 1.920 . S
O202 C175 1.289 . S
C203 O195 1.258 . S
C203 O196 1.266 . S
Co204 O207 1.970 . S
Co204 N221 1.989 . S
Co204 O229 1.967 . S
Co204 O236 1.920 1_556 S
Co205 O208 1.966 . S
Co205 N214 2.022 . S
Co205 N222 1.993 . S
Co205 O230 1.941 . S
C206 O207 1.258 . S
C206 O208 1.263 . S
O207 Co204 1.970 . S
O207 C206 1.258 . S
O208 Co205 1.966 . S
O208 C206 1.263 . S
C209 O210 1.235 . S
C209 O236 1.289 . S
O210 C209 1.235 . S
C211 C213 1.400 . S
C211 N214 1.351 . S
C211 C216 1.501 . S
C212 C213 1.387 . S
C212 N215 1.341 . S
C213 C211 1.400 . S
C213 C212 1.387 . S
N214 Co205 2.022 . S
N214 C211 1.351 . S
N214 N215 1.365 . S
N215 C212 1.341 . S
N215 N214 1.365 . S
N215 H235 0.862 . S
C216 C211 1.501 . S
C216 H217 0.961 . S
C216 H218 0.961 . S
C216 H219 0.960 . S
H217 C216 0.961 . S
H218 C216 0.961 . S
H219 C216 0.960 . S
C220 N221 1.342 . S
C220 C224 1.401 . S
C220 C225 1.499 . S
N221 Co204 1.989 . S
N221 C220 1.342 . S
N221 N222 1.388 . S
N222 Co205 1.993 . S
N222 N221 1.388 . S
N222 C223 1.346 . S
C223 N222 1.346 . S
C223 C224 1.396 . S
C223 C233 1.510 . S
C224 C220 1.401 . S
C224 C223 1.396 . S
C225 C220 1.499 . S
C225 H226 0.959 . S
C225 H227 0.960 . S
C225 H228 0.961 . S
H226 C225 0.959 . S
H227 C225 0.960 . S
H228 C225 0.961 . S
O229 Co204 1.967 . S
O229 C237 1.258 . S
O230 Co205 1.941 . S
O230 C237 1.266 . S
H231 C233 0.959 . S
H232 C233 0.961 . S
C233 C223 1.510 . S
C233 H231 0.959 . S
C233 H232 0.961 . S
C233 H234 0.960 . S
H234 C233 0.960 . S
H235 N215 0.862 . S
O236 Co204 1.920 1_554 S
O236 C209 1.289 . S
C237 O229 1.258 . S
C237 O230 1.266 . S
Co238 O241 1.970 . S
Co238 N255 1.989 1_554 S
Co238 O263 1.967 . S
Co238 O270 1.920 . S
Co239 O242 1.966 . S
Co239 N248 2.022 . S
Co239 N256 1.993 . S
Co239 O264 1.941 . S
C240 O241 1.258 1_556 S
C240 O242 1.263 . S
O241 Co238 1.970 . S
O241 C240 1.258 1_554 S
O242 Co239 1.966 . S
O242 C240 1.263 . S
C243 O244 1.235 . S
C243 O270 1.289 . S
O244 C243 1.235 . S
C245 C247 1.400 . S
C245 N248 1.351 . S
C245 C250 1.501 . S
C246 C247 1.387 . S
C246 N249 1.341 . S
C247 C245 1.400 . S
C247 C246 1.387 . S
N248 Co239 2.022 . S
N248 C245 1.351 . S
N248 N249 1.365 . S
N249 C246 1.341 . S
N249 N248 1.365 . S
N249 H269 0.862 . S
C250 C245 1.501 . S
C250 H251 0.961 . S
C250 H252 0.961 . S
C250 H253 0.960 . S
H251 C250 0.961 . S
H252 C250 0.961 . S
H253 C250 0.960 . S
C254 N255 1.342 . S
C254 C258 1.401 . S
C254 C259 1.499 1_556 S
N255 Co238 1.989 1_556 S
N255 C254 1.342 . S
N255 N256 1.388 . S
N256 Co239 1.993 . S
N256 N255 1.388 . S
N256 C257 1.346 . S
C257 N256 1.346 . S
C257 C258 1.396 . S
C257 C267 1.510 . S
C258 C254 1.401 . S
C258 C257 1.396 . S
C259 C254 1.499 1_554 S
C259 H260 0.959 . S
C259 H261 0.960 . S
C259 H262 0.961 . S
H260 C259 0.959 . S
H261 C259 0.960 . S
H262 C259 0.961 . S
O263 Co238 1.967 . S
O263 C271 1.258 1_554 S
O264 Co239 1.941 . S
O264 C271 1.266 . S
H265 C267 0.959 . S
H266 C267 0.961 . S
C267 C257 1.510 . S
C267 H265 0.959 . S
C267 H266 0.961 . S
C267 H268 0.960 . S
H268 C267 0.960 . S
H269 N249 0.862 . S
O270 Co238 1.920 . S
O270 C243 1.289 . S
C271 O263 1.258 1_556 S
C271 O264 1.266 . S
Co272 O275 1.970 . S
Co272 N289 1.989 . S
Co272 O297 1.967 . S
Co272 O304 1.920 . S
Co273 O276 1.966 1_556 S
Co273 N282 2.022 . S
Co273 N290 1.993 1_556 S
Co273 O298 1.941 1_556 S
C274 O275 1.258 . S
C274 O276 1.263 . S
O275 Co272 1.970 . S
O275 C274 1.258 . S
O276 Co273 1.966 1_554 S
O276 C274 1.263 . S
C277 O278 1.235 . S
C277 O304 1.289 . S
O278 C277 1.235 . S
C279 C281 1.400 . S
C279 N282 1.351 . S
C279 C284 1.501 . S
C280 C281 1.387 . S
C280 N283 1.341 . S
C281 C279 1.400 . S
C281 C280 1.387 . S
N282 Co273 2.022 . S
N282 C279 1.351 . S
N282 N283 1.365 . S
N283 C280 1.341 . S
N283 N282 1.365 . S
N283 H303 0.862 . S
C284 C279 1.501 . S
C284 H285 0.961 . S
C284 H286 0.961 . S
C284 H287 0.960 . S
H285 C284 0.961 . S
H286 C284 0.961 . S
H287 C284 0.960 . S
C288 N289 1.342 . S
C288 C292 1.401 . S
C288 C293 1.499 . S
N289 Co272 1.989 . S
N289 C288 1.342 . S
N289 N290 1.388 . S
N290 Co273 1.993 1_554 S
N290 N289 1.388 . S
N290 C291 1.346 1_554 S
C291 N290 1.346 1_556 S
C291 C292 1.396 1_556 S
C291 C301 1.510 . S
C292 C288 1.401 . S
C292 C291 1.396 1_554 S
C293 C288 1.499 . S
C293 H294 0.959 . S
C293 H295 0.960 . S
C293 H296 0.961 . S
H294 C293 0.959 . S
H295 C293 0.960 . S
H296 C293 0.961 . S
O297 Co272 1.967 . S
O297 C305 1.258 . S
O298 Co273 1.941 1_554 S
O298 C305 1.266 . S
H299 C301 0.959 . S
H300 C301 0.961 . S
C301 C291 1.510 . S
C301 H299 0.959 . S
C301 H300 0.961 . S
C301 H302 0.960 . S
H302 C301 0.960 . S
H303 N283 0.862 . S
O304 Co272 1.920 . S
O304 C277 1.289 . S
C305 O297 1.258 . S
C305 O298 1.266 . S
Co306 O309 1.970 . S
Co306 N323 1.989 . S
Co306 O331 1.967 . S
Co306 O338 1.920 . S
Co307 O310 1.966 . S
Co307 N316 2.022 . S
Co307 N324 1.993 . S
Co307 O332 1.941 . S
C308 O309 1.258 . S
C308 O310 1.263 . S
O309 Co306 1.970 . S
O309 C308 1.258 . S
O310 Co307 1.966 . S
O310 C308 1.263 . S
C311 O312 1.235 . S
C311 O338 1.289 . S
O312 C311 1.235 . S
C313 C315 1.400 . S
C313 N316 1.351 1_556 S
C313 C318 1.501 1_556 S
C314 C315 1.387 . S
C314 N317 1.341 . S
C315 C313 1.400 . S
C315 C314 1.387 . S
N316 Co307 2.022 . S
N316 C313 1.351 1_554 S
N316 N317 1.365 1_554 S
N317 C314 1.341 . S
N317 N316 1.365 1_556 S
N317 H337 0.862 . S
C318 C313 1.501 1_554 S
C318 H319 0.961 . S
C318 H320 0.961 . S
C318 H321 0.960 1_554 S
H319 C318 0.961 . S
H320 C318 0.961 . S
H321 C318 0.960 1_556 S
C322 N323 1.342 . S
C322 C326 1.401 . S
C322 C327 1.499 . S
N323 Co306 1.989 . S
N323 C322 1.342 . S
N323 N324 1.388 . S
N324 Co307 1.993 . S
N324 N323 1.388 . S
N324 C325 1.346 . S
C325 N324 1.346 . S
C325 C326 1.396 . S
C325 C335 1.510 . S
C326 C322 1.401 . S
C326 C325 1.396 . S
C327 C322 1.499 . S
C327 H328 0.959 . S
C327 H329 0.960 . S
C327 H330 0.961 . S
H328 C327 0.959 . S
H329 C327 0.960 . S
H330 C327 0.961 . S
O331 Co306 1.967 . S
O331 C339 1.258 . S
O332 Co307 1.941 . S
O332 C339 1.266 . S
H333 C335 0.959 . S
H334 C335 0.961 . S
C335 C325 1.510 . S
C335 H333 0.959 . S
C335 H334 0.961 . S
C335 H336 0.960 . S
H336 C335 0.960 . S
H337 N317 0.862 . S
O338 Co306 1.920 . S
O338 C311 1.289 . S
C339 O331 1.258 . S
C339 O332 1.266 . S
Co340 O343 1.970 . S
Co340 N357 1.989 . S
Co340 O365 1.967 . S
Co340 O372 1.920 . S
Co341 O344 1.966 . S
Co341 N350 2.022 . S
Co341 N358 1.993 . S
Co341 O366 1.941 . S
C342 O343 1.258 . S
C342 O344 1.263 . S
O343 Co340 1.970 . S
O343 C342 1.258 . S
O344 Co341 1.966 . S
O344 C342 1.263 . S
C345 O346 1.235 . S
C345 O372 1.289 . S
O346 C345 1.235 . S
C347 C349 1.400 . S
C347 N350 1.351 . S
C347 C352 1.501 . S
C348 C349 1.387 . S
C348 N351 1.341 . S
C349 C347 1.400 . S
C349 C348 1.387 . S
N350 Co341 2.022 . S
N350 C347 1.351 . S
N350 N351 1.365 . S
N351 C348 1.341 . S
N351 N350 1.365 . S
N351 H371 0.862 . S
C352 C347 1.501 . S
C352 H353 0.961 . S
C352 H354 0.961 . S
C352 H355 0.960 . S
H353 C352 0.961 . S
H354 C352 0.961 . S
H355 C352 0.960 . S
C356 N357 1.342 . S
C356 C360 1.401 . S
C356 C361 1.499 . S
N357 Co340 1.989 . S
N357 C356 1.342 . S
N357 N358 1.388 . S
N358 Co341 1.993 . S
N358 N357 1.388 . S
N358 C359 1.346 . S
C359 N358 1.346 . S
C359 C360 1.396 . S
C359 C369 1.510 . S
C360 C356 1.401 . S
C360 C359 1.396 . S
C361 C356 1.499 . S
C361 H362 0.959 . S
C361 H363 0.960 . S
C361 H364 0.961 . S
H362 C361 0.959 . S
H363 C361 0.960 . S
H364 C361 0.961 . S
O365 Co340 1.967 . S
O365 C373 1.258 . S
O366 Co341 1.941 . S
O366 C373 1.266 . S
H367 C369 0.959 . S
H368 C369 0.961 . S
C369 C359 1.510 . S
C369 H367 0.959 . S
C369 H368 0.961 . S
C369 H370 0.960 . S
H370 C369 0.960 . S
H371 N351 0.862 . S
O372 Co340 1.920 . S
O372 C345 1.289 . S
C373 O365 1.258 . S
C373 O366 1.266 . S
Co374 O377 1.970 . S
Co374 N391 1.989 . S
Co374 O399 1.967 . S
Co374 O406 1.920 . S
Co375 O378 1.966 . S
Co375 N384 2.022 . S
Co375 N392 1.993 . S
Co375 O400 1.941 . S
C376 O377 1.258 . S
C376 O378 1.263 . S
O377 Co374 1.970 . S
O377 C376 1.258 . S
O378 Co375 1.966 . S
O378 C376 1.263 . S
C379 O380 1.235 . S
C379 O406 1.289 . S
O380 C379 1.235 . S
C381 C383 1.400 . S
C381 N384 1.351 . S
C381 C386 1.501 . S
C382 C383 1.387 . S
C382 N385 1.341 . S
C383 C381 1.400 . S
C383 C382 1.387 . S
N384 Co375 2.022 . S
N384 C381 1.351 . S
N384 N385 1.365 . S
N385 C382 1.341 . S
N385 N384 1.365 . S
N385 H405 0.862 . S
C386 C381 1.501 . S
C386 H387 0.961 . S
C386 H388 0.961 . S
C386 H389 0.960 . S
H387 C386 0.961 . S
H388 C386 0.961 . S
H389 C386 0.960 . S
C390 N391 1.342 . S
C390 C394 1.401 . S
C390 C395 1.499 . S
N391 Co374 1.989 . S
N391 C390 1.342 . S
N391 N392 1.388 . S
N392 Co375 1.993 . S
N392 N391 1.388 . S
N392 C393 1.346 . S
C393 N392 1.346 . S
C393 C394 1.396 . S
C393 C403 1.510 . S
C394 C390 1.401 . S
C394 C393 1.396 . S
C395 C390 1.499 . S
C395 H396 0.959 . S
C395 H397 0.960 . S
C395 H398 0.961 . S
H396 C395 0.959 . S
H397 C395 0.960 . S
H398 C395 0.961 . S
O399 Co374 1.967 . S
O399 C407 1.258 . S
O400 Co375 1.941 . S
O400 C407 1.266 . S
H401 C403 0.959 . S
H402 C403 0.961 . S
C403 C393 1.510 . S
C403 H401 0.959 . S
C403 H402 0.961 . S
C403 H404 0.960 . S
H404 C403 0.960 . S
H405 N385 0.862 . S
O406 Co374 1.920 . S
O406 C379 1.289 . S
C407 O399 1.258 . S
C407 O400 1.266 . S
C408 C409 1.387 . S
C408 H412 0.950 . S
C408 C417 1.390 . S
C409 C408 1.387 . S
C409 C411 1.387 . S
H410 C417 0.950 . S
C411 C409 1.387 . S
C411 C413 1.390 1_554 S
C411 H415 0.950 1_554 S
H412 C408 0.950 . S
C413 C411 1.390 1_556 S
C413 C414 1.387 1_556 S
C413 H416 0.950 . S
C414 C413 1.387 1_554 S
C414 C417 1.387 . S
H415 C411 0.950 1_556 S
H416 C413 0.950 . S
C417 C408 1.390 . S
C417 H410 0.950 . S
C417 C414 1.387 . S
C418 C419 1.387 . S
C418 H422 0.950 . S
C418 C427 1.390 . S
C419 C418 1.387 . S
C419 C421 1.387 . S
H420 C427 0.950 . S
C421 C419 1.387 . S
C421 C423 1.390 . S
C421 H425 0.950 . S
H422 C418 0.950 . S
C423 C421 1.390 . S
C423 C424 1.387 . S
C423 H426 0.950 . S
C424 C423 1.387 . S
C424 C427 1.387 . S
H425 C421 0.950 . S
H426 C423 0.950 . S
C427 C418 1.390 . S
C427 H420 0.950 . S
C427 C424 1.387 . S
C428 C429 1.387 . S
C428 H432 0.950 . S
C428 C437 1.390 . S
C429 C428 1.387 . S
C429 C431 1.387 . S
H430 C437 0.950 . S
C431 C429 1.387 . S
C431 C433 1.390 . S
C431 H435 0.950 . S
H432 C428 0.950 . S
C433 C431 1.390 . S
C433 C434 1.387 . S
C433 H436 0.950 . S
C434 C433 1.387 . S
C434 C437 1.387 . S
H435 C431 0.950 . S
H436 C433 0.950 . S
C437 C428 1.390 . S
C437 H430 0.950 . S
C437 C434 1.387 . S
C438 C439 1.387 . S
C438 H442 0.950 . S
C438 C447 1.390 . S
C439 C438 1.387 . S
C439 C441 1.387 . S
H440 C447 0.950 . S
C441 C439 1.387 . S
C441 C443 1.390 . S
C441 H445 0.950 . S
H442 C438 0.950 . S
C443 C441 1.390 . S
C443 C444 1.387 . S
C443 H446 0.950 . S
C444 C443 1.387 . S
C444 C447 1.387 . S
H445 C441 0.950 . S
H446 C443 0.950 . S
C447 C438 1.390 . S
C447 H440 0.950 . S
C447 C444 1.387 . S
C448 C449 1.387 . S
C448 H452 0.950 . S
C448 C457 1.390 . S
C449 C448 1.387 . S
C449 C451 1.387 . S
H450 C457 0.950 . S
C451 C449 1.387 . S
C451 C453 1.390 . S
C451 H455 0.950 . S
H452 C448 0.950 . S
C453 C451 1.390 . S
C453 C454 1.387 . S
C453 H456 0.950 . S
C454 C453 1.387 . S
C454 C457 1.387 . S
H455 C451 0.950 . S
H456 C453 0.950 . S
C457 C448 1.390 . S
C457 H450 0.950 . S
C457 C454 1.387 . S
C458 C459 1.387 1_554 S
C458 H462 0.950 . S
C458 C467 1.390 1_554 S
C459 C458 1.387 1_556 S
C459 C461 1.387 . S
H460 C467 0.950 1_554 S
C461 C459 1.387 . S
C461 C463 1.390 . S
C461 H465 0.950 . S
H462 C458 0.950 . S
C463 C461 1.390 . S
C463 C464 1.387 . S
C463 H466 0.950 . S
C464 C463 1.387 . S
C464 C467 1.387 . S
H465 C461 0.950 . S
H466 C463 0.950 . S
C467 C458 1.390 1_556 S
C467 H460 0.950 1_556 S
C467 C464 1.387 . S
C468 C469 1.387 1_655 S
C468 H472 0.950 . S
C468 C477 1.390 . S
C469 C468 1.387 1_455 S
C469 C471 1.387 . S
H470 C477 0.950 . S
C471 C469 1.387 . S
C471 C473 1.390 . S
C471 H475 0.950 . S
H472 C468 0.950 . S
C473 C471 1.390 . S
C473 C474 1.387 1_455 S
C473 H476 0.950 . S
C474 C473 1.387 1_655 S
C474 C477 1.387 . S
H475 C471 0.950 . S
H476 C473 0.950 . S
C477 C468 1.390 . S
C477 H470 0.950 . S
C477 C474 1.387 . S
C478 C479 1.387 . S
C478 H482 0.950 . S
C478 C487 1.390 1_566 S
C479 C478 1.387 . S
C479 C481 1.387 . S
H480 C487 0.950 . S
C481 C479 1.387 . S
C481 C483 1.390 1_566 S
C481 H485 0.950 . S
H482 C478 0.950 . S
C483 C481 1.390 1_544 S
C483 C484 1.387 . S
C483 H486 0.950 . S
C484 C483 1.387 . S
C484 C487 1.387 . S
H485 C481 0.950 . S
H486 C483 0.950 . S
C487 C478 1.390 1_544 S
C487 H480 0.950 . S
C487 C484 1.387 . S
C488 C489 1.387 . S
C488 H492 0.950 . S
C488 C497 1.390 . S
C489 C488 1.387 . S
C489 C491 1.387 . S
H490 C497 0.950 . S
C491 C489 1.387 . S
C491 C493 1.390 . S
C491 H495 0.950 . S
H492 C488 0.950 . S
C493 C491 1.390 . S
C493 C494 1.387 . S
C493 H496 0.950 . S
C494 C493 1.387 . S
C494 C497 1.387 . S
H495 C491 0.950 . S
H496 C493 0.950 . S
C497 C488 1.390 . S
C497 H490 0.950 . S
C497 C494 1.387 . S
C498 C499 1.387 . S
C498 H502 0.950 . S
C498 C507 1.391 . S
C499 C498 1.387 . S
C499 C501 1.388 1_655 S
H500 C507 0.954 . S
C501 C499 1.388 1_455 S
C501 C503 1.391 . S
C501 H505 0.954 . S
H502 C498 0.950 . S
C503 C501 1.391 . S
C503 C504 1.387 . S
C503 H506 0.950 . S
C504 C503 1.387 . S
C504 C507 1.388 1_455 S
H505 C501 0.954 . S
H506 C503 0.950 . S
C507 C498 1.391 . S
C507 H500 0.954 . S
C507 C504 1.388 1_655 S
C508 C509 1.387 . S
C508 H512 0.950 . S
C508 C517 1.390 1_545 S
C509 C508 1.387 . S
C509 C511 1.387 . S
H510 C517 0.950 . S
C511 C509 1.387 . S
C511 C513 1.390 1_545 S
C511 H515 0.950 . S
H512 C508 0.950 . S
C513 C511 1.390 1_565 S
C513 C514 1.387 . S
C513 H516 0.950 . S
C514 C513 1.387 . S
C514 C517 1.387 . S
H515 C511 0.950 . S
H516 C513 0.950 . S
C517 C508 1.390 1_565 S
C517 H510 0.950 . S
C517 C514 1.387 . S
C518 C519 1.387 . S
C518 H522 0.950 . S
C518 C527 1.390 . S
C519 C518 1.387 . S
C519 C521 1.387 . S
H520 C527 0.950 . S
C521 C519 1.387 . S
C521 C523 1.390 . S
C521 H525 0.950 . S
H522 C518 0.950 . S
C523 C521 1.390 . S
C523 C524 1.387 . S
C523 H526 0.950 . S
C524 C523 1.387 . S
C524 C527 1.387 . S
H525 C521 0.950 . S
H526 C523 0.950 . S
C527 C518 1.390 . S
C527 H520 0.950 . S
C527 C524 1.387 . S
C528 C529 1.387 . S
C528 H532 0.950 . S
C528 C537 1.390 . S
C529 C528 1.387 . S
C529 C531 1.387 . S
H530 C537 0.950 . S
C531 C529 1.387 . S
C531 C533 1.390 . S
C531 H535 0.950 . S
H532 C528 0.950 . S
C533 C531 1.390 . S
C533 C534 1.387 . S
C533 H536 0.950 . S
C534 C533 1.387 . S
C534 C537 1.387 . S
H535 C531 0.950 . S
H536 C533 0.950 . S
C537 C528 1.390 . S
C537 H530 0.950 . S
C537 C534 1.387 . S
C538 C539 1.387 . S
C538 H542 0.950 . S
C538 C547 1.390 . S
C539 C538 1.387 . S
C539 C541 1.387 . S
H540 C547 0.950 . S
C541 C539 1.387 . S
C541 C543 1.390 . S
C541 H545 0.950 . S
H542 C538 0.950 . S
C543 C541 1.390 . S
C543 C544 1.387 . S
C543 H546 0.950 . S
C544 C543 1.387 . S
C544 C547 1.387 . S
H545 C541 0.950 . S
H546 C543 0.950 . S
C547 C538 1.390 . S
C547 H540 0.950 . S
C547 C544 1.387 . S
C548 C549 1.387 . S
C548 H552 0.950 . S
C548 C557 1.390 . S
C549 C548 1.387 . S
C549 C551 1.387 . S
H550 C557 0.950 . S
C551 C549 1.387 . S
C551 C553 1.390 . S
C551 H555 0.950 . S
H552 C548 0.950 . S
C553 C551 1.390 . S
C553 C554 1.387 . S
C553 H556 0.950 . S
C554 C553 1.387 . S
C554 C557 1.387 . S
H555 C551 0.950 . S
H556 C553 0.950 . S
C557 C548 1.390 . S
C557 H550 0.950 . S
C557 C554 1.387 . S
C558 C559 1.387 . S
C558 H562 0.950 . S
C558 C567 1.390 . S
C559 C558 1.387 . S
C559 C561 1.387 . S
H560 C567 0.950 . S
C561 C559 1.387 . S
C561 C563 1.390 . S
C561 H565 0.950 . S
H562 C558 0.950 . S
C563 C561 1.390 . S
C563 C564 1.387 . S
C563 H566 0.950 . S
C564 C563 1.387 . S
C564 C567 1.387 . S
H565 C561 0.950 . S
H566 C563 0.950 . S
C567 C558 1.390 . S
C567 H560 0.950 . S
C567 C564 1.387 . S
C568 C569 1.387 . S
C568 H572 0.950 . S
C568 C577 1.390 . S
C569 C568 1.387 . S
C569 C571 1.387 . S
H570 C577 0.950 . S
C571 C569 1.387 . S
C571 C573 1.390 1_556 S
C571 H575 0.950 . S
H572 C568 0.950 . S
C573 C571 1.390 1_554 S
C573 C574 1.387 1_554 S
C573 H576 0.950 . S
C574 C573 1.387 1_556 S
C574 C577 1.387 . S
H575 C571 0.950 . S
H576 C573 0.950 . S
C577 C568 1.390 . S
C577 H570 0.950 . S
C577 C574 1.387 . S
C578 C579 1.387 . S
C578 H582 0.950 . S
C578 C587 1.390 1_554 S
C579 C578 1.387 . S
C579 C581 1.387 . S
H580 C587 0.950 . S
C581 C579 1.387 . S
C581 C583 1.390 . S
C581 H585 0.950 . S
H582 C578 0.950 . S
C583 C581 1.390 . S
C583 C584 1.387 . S
C583 H586 0.950 . S
C584 C583 1.387 . S
C584 C587 1.387 1_554 S
H585 C581 0.950 . S
H586 C583 0.950 . S
C587 C578 1.390 1_556 S
C587 H580 0.950 . S
C587 C584 1.387 1_556 S
C588 C589 1.387 . S
C588 H592 0.950 . S
C588 C597 1.390 . S
C589 C588 1.387 . S
C589 C591 1.387 . S
H590 C597 0.950 . S
C591 C589 1.387 . S
C591 C593 1.390 . S
C591 H595 0.950 . S
H592 C588 0.950 . S
C593 C591 1.390 . S
C593 C594 1.387 . S
C593 H596 0.950 . S
C594 C593 1.387 . S
C594 C597 1.387 . S
H595 C591 0.950 . S
H596 C593 0.950 . S
C597 C588 1.390 . S
C597 H590 0.950 . S
C597 C594 1.387 . S
C598 C599 1.387 . S
C598 H602 0.950 . S
C598 C607 1.390 . S
C599 C598 1.387 . S
C599 C601 1.387 . S
H600 C607 0.950 . S
C601 C599 1.387 . S
C601 C603 1.390 . S
C601 H605 0.950 . S
H602 C598 0.950 . S
C603 C601 1.390 . S
C603 C604 1.387 . S
C603 H606 0.950 . S
C604 C603 1.387 . S
C604 C607 1.387 . S
H605 C601 0.950 . S
H606 C603 0.950 . S
C607 C598 1.390 . S
C607 H600 0.950 . S
C607 C604 1.387 . S
C608 C609 1.387 . S
C608 H612 0.950 . S
C608 C617 1.390 . S
C609 C608 1.387 . S
C609 C611 1.387 . S
H610 C617 0.950 . S
C611 C609 1.387 . S
C611 C613 1.390 1_556 S
C611 H615 0.950 . S
H612 C608 0.950 . S
C613 C611 1.390 1_554 S
C613 C614 1.387 . S
C613 H616 0.950 . S
C614 C613 1.387 . S
C614 C617 1.387 1_554 S
H615 C611 0.950 . S
H616 C613 0.950 . S
C617 C608 1.390 . S
C617 H610 0.950 . S
C617 C614 1.387 1_556 S
C618 C619 1.387 . S
C618 H622 0.950 . S
C618 C627 1.390 . S
C619 C618 1.387 . S
C619 C621 1.387 . S
H620 C627 0.950 . S
C621 C619 1.387 . S
C621 C623 1.390 . S
C621 H625 0.950 1_554 S
H622 C618 0.950 . S
C623 C621 1.390 . S
C623 C624 1.387 . S
C623 H626 0.950 . S
C624 C623 1.387 . S
C624 C627 1.387 . S
H625 C621 0.950 1_556 S
H626 C623 0.950 . S
C627 C618 1.390 . S
C627 H620 0.950 . S
C627 C624 1.387 . S
C628 C629 1.387 . S
C628 H632 0.950 . S
C628 C637 1.390 . S
C629 C628 1.387 . S
C629 C631 1.387 . S
H630 C637 0.950 . S
C631 C629 1.387 . S
C631 C633 1.390 . S
C631 H635 0.950 . S
H632 C628 0.950 . S
C633 C631 1.390 . S
C633 C634 1.387 . S
C633 H636 0.950 . S
C634 C633 1.387 . S
C634 C637 1.387 . S
H635 C631 0.950 . S
H636 C633 0.950 . S
C637 C628 1.390 . S
C637 H630 0.950 . S
C637 C634 1.387 . S
C638 C639 1.387 . S
C638 H642 0.950 . S
C638 C647 1.390 . S
C639 C638 1.387 . S
C639 C641 1.387 . S
H640 C647 0.950 . S
C641 C639 1.387 . S
C641 C643 1.390 . S
C641 H645 0.950 . S
H642 C638 0.950 . S
C643 C641 1.390 . S
C643 C644 1.387 . S
C643 H646 0.950 . S
C644 C643 1.387 . S
C644 C647 1.387 . S
H645 C641 0.950 . S
H646 C643 0.950 . S
C647 C638 1.390 . S
C647 H640 0.950 . S
C647 C644 1.387 . S
C648 C649 1.387 . S
C648 H652 0.950 . S
C648 C657 1.390 . S
C649 C648 1.387 . S
C649 C651 1.387 . S
H650 C657 0.950 . S
C651 C649 1.387 . S
C651 C653 1.390 . S
C651 H655 0.950 . S
H652 C648 0.950 . S
C653 C651 1.390 . S
C653 C654 1.387 . S
C653 H656 0.950 . S
C654 C653 1.387 . S
C654 C657 1.387 . S
H655 C651 0.950 . S
H656 C653 0.950 . S
C657 C648 1.390 . S
C657 H650 0.950 . S
C657 C654 1.387 . S
C658 C659 1.387 . S
C658 H662 0.950 . S
C658 C667 1.390 . S
C659 C658 1.387 . S
C659 C661 1.387 . S
H660 C667 0.950 . S
C661 C659 1.387 . S
C661 C663 1.390 . S
C661 H665 0.950 . S
H662 C658 0.950 . S
C663 C661 1.390 . S
C663 C664 1.387 . S
C663 H666 0.950 . S
C664 C663 1.387 . S
C664 C667 1.387 . S
H665 C661 0.950 . S
H666 C663 0.950 . S
C667 C658 1.390 . S
C667 H660 0.950 . S
C667 C664 1.387 . S
C668 C669 1.387 . S
C668 H672 0.950 . S
C668 C677 1.390 . S
C669 C668 1.387 . S
C669 C671 1.387 . S
H670 C677 0.950 . S
C671 C669 1.387 . S
C671 C673 1.390 . S
C671 H675 0.950 . S
H672 C668 0.950 . S
C673 C671 1.390 . S
C673 C674 1.387 . S
C673 H676 0.950 . S
C674 C673 1.387 . S
C674 C677 1.387 . S
H675 C671 0.950 . S
H676 C673 0.950 . S
C677 C668 1.390 . S
C677 H670 0.950 . S
C677 C674 1.387 . S
C678 C679 1.387 . S
C678 H682 0.950 . S
C678 C687 1.390 . S
C679 C678 1.387 . S
C679 C681 1.387 . S
H680 C687 0.950 . S
C681 C679 1.387 . S
C681 C683 1.390 . S
C681 H685 0.950 . S
H682 C678 0.950 . S
C683 C681 1.390 . S
C683 C684 1.387 . S
C683 H686 0.950 . S
C684 C683 1.387 . S
C684 C687 1.387 . S
H685 C681 0.950 . S
H686 C683 0.950 . S
C687 C678 1.390 . S
C687 H680 0.950 . S
C687 C684 1.387 . S
C688 C689 1.387 . S
C688 H692 0.950 . S
C688 C697 1.390 . S
C689 C688 1.387 . S
C689 C691 1.387 . S
H690 C697 0.950 . S
C691 C689 1.387 . S
C691 C693 1.390 . S
C691 H695 0.950 . S
H692 C688 0.950 . S
C693 C691 1.390 . S
C693 C694 1.387 . S
C693 H696 0.950 1_556 S
C694 C693 1.387 . S
C694 C697 1.387 . S
H695 C691 0.950 . S
H696 C693 0.950 1_554 S
C697 C688 1.390 . S
C697 H690 0.950 . S
C697 C694 1.387 . S
C698 C699 1.387 . S
C698 H702 0.950 . S
C698 C707 1.390 . S
C699 C698 1.387 . S
C699 C701 1.387 . S
H700 C707 0.950 . S
C701 C699 1.387 . S
C701 C703 1.390 1_554 S
C701 H705 0.950 . S
H702 C698 0.950 . S
C703 C701 1.390 1_556 S
C703 C704 1.387 . S
C703 H706 0.950 . S
C704 C703 1.387 . S
C704 C707 1.387 1_556 S
H705 C701 0.950 . S
H706 C703 0.950 . S
C707 C698 1.390 . S
C707 H700 0.950 . S
C707 C704 1.387 1_554 S
C409 C305 1.544 . S
C414 C33 1.544 . S
C419 C339 1.544 . S
C424 C67 1.544 . S
C429 C373 1.544 . S
C434 C101 1.545 . S
C439 C407 1.544 . S
C444 C135 1.545 . S
C449 C169 1.544 . S
C454 C237 1.544 . S
C459 C271 1.545 . S
C464 C203 1.544 . S
C469 C2 1.830 1_556 S
C474 C376 1.830 . S
C479 C206 1.834 . S
C484 C36 1.834 . S
C489 C70 1.833 . S
C494 C240 1.833 1_554 S
C499 C104 1.833 . S
C504 C274 1.833 . S
C509 C308 1.833 . S
C514 C138 1.833 . S
C519 C172 1.833 . S
C524 C342 1.833 . S
C529 C20 1.643 . S
C534 C360 1.643 . S
C539 C54 1.644 . S
C544 C394 1.644 . S
C549 C224 1.644 . S
C554 C88 1.645 . S
C559 C258 1.646 . S
C564 C122 1.646 . S
C569 C156 1.645 . S
C574 C292 1.645 1_556 S
C579 C326 1.645 . S
C584 C190 1.644 1_554 S
C589 C9 1.121 . S
C594 C5 1.278 . S
C599 C39 1.274 . S
C604 C43 1.118 . S
C609 C77 1.125 . S
C614 C73 1.280 . S
C619 C111 1.122 1_554 S
C624 C107 1.279 . S
C629 C141 1.274 . S
C634 C145 1.117 . S
C639 C175 1.280 . S
C644 C179 1.125 . S
C649 C209 1.275 . S
C654 C213 1.117 . S
C659 C243 1.277 . S
C664 C247 1.119 . S
C669 C277 1.278 . S
C674 C281 1.124 . S
C679 C311 1.274 . S
C684 C315 1.118 . S
C689 C345 1.276 . S
C694 C349 1.118 1_556 S
C699 C383 1.125 . S
C704 C379 1.280 . S
