# Generated by pormake.
# Topology ana, (4)-cn, num edge types: 1
# Building blocks:
#     Node 0, Type 0, BuildingBlock: QUQFOY_clean_sbu_3, # of connection points: 4
#     Node 1, Type 0, BuildingBlock: QUQFOY_clean_sbu_3, # of connection points: 4
#     Node 2, Type 0, BuildingBlock: QUQFOY_clean_sbu_3, # of connection points: 4
#     Node 3, Type 0, BuildingBlock: QUQFOY_clean_sbu_3, # of connection points: 4
#     Node 4, Type 0, BuildingBlock: QUQFOY_clean_sbu_3, # of connection points: 4
#     Node 5, Type 0, BuildingBlock: QUQFOY_clean_sbu_3, # of connection points: 4
#     Node 6, Type 0, BuildingBlock: QUQFOY_clean_sbu_3, # of connection points: 4
#     Node 7, Type 0, BuildingBlock: QUQFOY_clean_sbu_3, # of connection points: 4
#     Node 8, Type 0, BuildingBlock: QUQFOY_clean_sbu_3, # of connection points: 4
#     Node 9, Type 0, BuildingBlock: QUQFOY_clean_sbu_3, # of connection points: 4
#     Node 10, Type 0, BuildingBlock: QUQFOY_clean_sbu_3, # of connection points: 4
#     Node 11, Type 0, BuildingBlock: QUQFOY_clean_sbu_3, # of connection points: 4
#     Node 12, Type 0, BuildingBlock: QUQFOY_clean_sbu_3, # of connection points: 4
#     Node 13, Type 0, BuildingBlock: QUQFOY_clean_sbu_3, # of connection points: 4
#     Node 14, Type 0, BuildingBlock: QUQFOY_clean_sbu_3, # of connection points: 4
#     Node 15, Type 0, BuildingBlock: QUQFOY_clean_sbu_3, # of connection points: 4
#     Node 16, Type 0, BuildingBlock: QUQFOY_clean_sbu_3, # of connection points: 4
#     Node 17, Type 0, BuildingBlock: QUQFOY_clean_sbu_3, # of connection points: 4
#     Node 18, Type 0, BuildingBlock: QUQFOY_clean_sbu_3, # of connection points: 4
#     Node 19, Type 0, BuildingBlock: QUQFOY_clean_sbu_3, # of connection points: 4
#     Node 20, Type 0, BuildingBlock: QUQFOY_clean_sbu_3, # of connection points: 4
#     Node 21, Type 0, BuildingBlock: QUQFOY_clean_sbu_3, # of connection points: 4
#     Node 22, Type 0, BuildingBlock: QUQFOY_clean_sbu_3, # of connection points: 4
#     Node 23, Type 0, BuildingBlock: QUQFOY_clean_sbu_3, # of connection points: 4
#     Node 24, Type 0, BuildingBlock: QUQFOY_clean_sbu_3, # of connection points: 4
#     Node 25, Type 0, BuildingBlock: QUQFOY_clean_sbu_3, # of connection points: 4
#     Node 26, Type 0, BuildingBlock: QUQFOY_clean_sbu_3, # of connection points: 4
#     Node 27, Type 0, BuildingBlock: QUQFOY_clean_sbu_3, # of connection points: 4
#     Node 28, Type 0, BuildingBlock: QUQFOY_clean_sbu_3, # of connection points: 4
#     Node 29, Type 0, BuildingBlock: QUQFOY_clean_sbu_3, # of connection points: 4
#     Node 30, Type 0, BuildingBlock: QUQFOY_clean_sbu_3, # of connection points: 4
#     Node 31, Type 0, BuildingBlock: QUQFOY_clean_sbu_3, # of connection points: 4
#     Node 32, Type 0, BuildingBlock: QUQFOY_clean_sbu_3, # of connection points: 4
#     Node 33, Type 0, BuildingBlock: QUQFOY_clean_sbu_3, # of connection points: 4
#     Node 34, Type 0, BuildingBlock: QUQFOY_clean_sbu_3, # of connection points: 4
#     Node 35, Type 0, BuildingBlock: QUQFOY_clean_sbu_3, # of connection points: 4
#     Node 36, Type 0, BuildingBlock: QUQFOY_clean_sbu_3, # of connection points: 4
#     Node 37, Type 0, BuildingBlock: QUQFOY_clean_sbu_3, # of connection points: 4
#     Node 38, Type 0, BuildingBlock: QUQFOY_clean_sbu_3, # of connection points: 4
#     Node 39, Type 0, BuildingBlock: QUQFOY_clean_sbu_3, # of connection points: 4
#     Node 40, Type 0, BuildingBlock: QUQFOY_clean_sbu_3, # of connection points: 4
#     Node 41, Type 0, BuildingBlock: QUQFOY_clean_sbu_3, # of connection points: 4
#     Node 42, Type 0, BuildingBlock: QUQFOY_clean_sbu_3, # of connection points: 4
#     Node 43, Type 0, BuildingBlock: QUQFOY_clean_sbu_3, # of connection points: 4
#     Node 44, Type 0, BuildingBlock: QUQFOY_clean_sbu_3, # of connection points: 4
#     Node 45, Type 0, BuildingBlock: QUQFOY_clean_sbu_3, # of connection points: 4
#     Node 46, Type 0, BuildingBlock: QUQFOY_clean_sbu_3, # of connection points: 4
#     Node 47, Type 0, BuildingBlock: QUQFOY_clean_sbu_3, # of connection points: 4
#     Edge 48, Type (0, 0), BuildingBlock: KIFKEQ_clean_linker_1, # of connection points: 2
#     Edge 49, Type (0, 0), BuildingBlock: KIFKEQ_clean_linker_1, # of connection points: 2
#     Edge 50, Type (0, 0), BuildingBlock: KIFKEQ_clean_linker_1, # of connection points: 2
#     Edge 51, Type (0, 0), BuildingBlock: KIFKEQ_clean_linker_1, # of connection points: 2
#     Edge 52, Type (0, 0), BuildingBlock: KIFKEQ_clean_linker_1, # of connection points: 2
#     Edge 53, Type (0, 0), BuildingBlock: KIFKEQ_clean_linker_1, # of connection points: 2
#     Edge 54, Type (0, 0), BuildingBlock: KIFKEQ_clean_linker_1, # of connection points: 2
#     Edge 55, Type (0, 0), BuildingBlock: KIFKEQ_clean_linker_1, # of connection points: 2
#     Edge 56, Type (0, 0), BuildingBlock: KIFKEQ_clean_linker_1, # of connection points: 2
#     Edge 57, Type (0, 0), BuildingBlock: KIFKEQ_clean_linker_1, # of connection points: 2
#     Edge 58, Type (0, 0), BuildingBlock: KIFKEQ_clean_linker_1, # of connection points: 2
#     Edge 59, Type (0, 0), BuildingBlock: KIFKEQ_clean_linker_1, # of connection points: 2
#     Edge 60, Type (0, 0), BuildingBlock: KIFKEQ_clean_linker_1, # of connection points: 2
#     Edge 61, Type (0, 0), BuildingBlock: KIFKEQ_clean_linker_1, # of connection points: 2
#     Edge 62, Type (0, 0), BuildingBlock: KIFKEQ_clean_linker_1, # of connection points: 2
#     Edge 63, Type (0, 0), BuildingBlock: KIFKEQ_clean_linker_1, # of connection points: 2
#     Edge 64, Type (0, 0), BuildingBlock: KIFKEQ_clean_linker_1, # of connection points: 2
#     Edge 65, Type (0, 0), BuildingBlock: KIFKEQ_clean_linker_1, # of connection points: 2
#     Edge 66, Type (0, 0), BuildingBlock: KIFKEQ_clean_linker_1, # of connection points: 2
#     Edge 67, Type (0, 0), BuildingBlock: KIFKEQ_clean_linker_1, # of connection points: 2
#     Edge 68, Type (0, 0), BuildingBlock: KIFKEQ_clean_linker_1, # of connection points: 2
#     Edge 69, Type (0, 0), BuildingBlock: KIFKEQ_clean_linker_1, # of connection points: 2
#     Edge 70, Type (0, 0), BuildingBlock: KIFKEQ_clean_linker_1, # of connection points: 2
#     Edge 71, Type (0, 0), BuildingBlock: KIFKEQ_clean_linker_1, # of connection points: 2
#     Edge 72, Type (0, 0), BuildingBlock: KIFKEQ_clean_linker_1, # of connection points: 2
#     Edge 73, Type (0, 0), BuildingBlock: KIFKEQ_clean_linker_1, # of connection points: 2
#     Edge 74, Type (0, 0), BuildingBlock: KIFKEQ_clean_linker_1, # of connection points: 2
#     Edge 75, Type (0, 0), BuildingBlock: KIFKEQ_clean_linker_1, # of connection points: 2
#     Edge 76, Type (0, 0), BuildingBlock: KIFKEQ_clean_linker_1, # of connection points: 2
#     Edge 77, Type (0, 0), BuildingBlock: KIFKEQ_clean_linker_1, # of connection points: 2
#     Edge 78, Type (0, 0), BuildingBlock: KIFKEQ_clean_linker_1, # of connection points: 2
#     Edge 79, Type (0, 0), BuildingBlock: KIFKEQ_clean_linker_1, # of connection points: 2
#     Edge 80, Type (0, 0), BuildingBlock: KIFKEQ_clean_linker_1, # of connection points: 2
#     Edge 81, Type (0, 0), BuildingBlock: KIFKEQ_clean_linker_1, # of connection points: 2
#     Edge 82, Type (0, 0), BuildingBlock: KIFKEQ_clean_linker_1, # of connection points: 2
#     Edge 83, Type (0, 0), BuildingBlock: KIFKEQ_clean_linker_1, # of connection points: 2
#     Edge 84, Type (0, 0), BuildingBlock: KIFKEQ_clean_linker_1, # of connection points: 2
#     Edge 85, Type (0, 0), BuildingBlock: KIFKEQ_clean_linker_1, # of connection points: 2
#     Edge 86, Type (0, 0), BuildingBlock: KIFKEQ_clean_linker_1, # of connection points: 2
#     Edge 87, Type (0, 0), BuildingBlock: KIFKEQ_clean_linker_1, # of connection points: 2
#     Edge 88, Type (0, 0), BuildingBlock: KIFKEQ_clean_linker_1, # of connection points: 2
#     Edge 89, Type (0, 0), BuildingBlock: KIFKEQ_clean_linker_1, # of connection points: 2
#     Edge 90, Type (0, 0), BuildingBlock: KIFKEQ_clean_linker_1, # of connection points: 2
#     Edge 91, Type (0, 0), BuildingBlock: KIFKEQ_clean_linker_1, # of connection points: 2
#     Edge 92, Type (0, 0), BuildingBlock: KIFKEQ_clean_linker_1, # of connection points: 2
#     Edge 93, Type (0, 0), BuildingBlock: KIFKEQ_clean_linker_1, # of connection points: 2
#     Edge 94, Type (0, 0), BuildingBlock: KIFKEQ_clean_linker_1, # of connection points: 2
#     Edge 95, Type (0, 0), BuildingBlock: KIFKEQ_clean_linker_1, # of connection points: 2
#     Edge 96, Type (0, 0), BuildingBlock: KIFKEQ_clean_linker_1, # of connection points: 2
#     Edge 97, Type (0, 0), BuildingBlock: KIFKEQ_clean_linker_1, # of connection points: 2
#     Edge 98, Type (0, 0), BuildingBlock: KIFKEQ_clean_linker_1, # of connection points: 2
#     Edge 99, Type (0, 0), BuildingBlock: KIFKEQ_clean_linker_1, # of connection points: 2
#     Edge 100, Type (0, 0), BuildingBlock: KIFKEQ_clean_linker_1, # of connection points: 2
#     Edge 101, Type (0, 0), BuildingBlock: KIFKEQ_clean_linker_1, # of connection points: 2
#     Edge 102, Type (0, 0), BuildingBlock: KIFKEQ_clean_linker_1, # of connection points: 2
#     Edge 103, Type (0, 0), BuildingBlock: KIFKEQ_clean_linker_1, # of connection points: 2
#     Edge 104, Type (0, 0), BuildingBlock: KIFKEQ_clean_linker_1, # of connection points: 2
#     Edge 105, Type (0, 0), BuildingBlock: KIFKEQ_clean_linker_1, # of connection points: 2
#     Edge 106, Type (0, 0), BuildingBlock: KIFKEQ_clean_linker_1, # of connection points: 2
#     Edge 107, Type (0, 0), BuildingBlock: KIFKEQ_clean_linker_1, # of connection points: 2
#     Edge 108, Type (0, 0), BuildingBlock: KIFKEQ_clean_linker_1, # of connection points: 2
#     Edge 109, Type (0, 0), BuildingBlock: KIFKEQ_clean_linker_1, # of connection points: 2
#     Edge 110, Type (0, 0), BuildingBlock: KIFKEQ_clean_linker_1, # of connection points: 2
#     Edge 111, Type (0, 0), BuildingBlock: KIFKEQ_clean_linker_1, # of connection points: 2
#     Edge 112, Type (0, 0), BuildingBlock: KIFKEQ_clean_linker_1, # of connection points: 2
#     Edge 113, Type (0, 0), BuildingBlock: KIFKEQ_clean_linker_1, # of connection points: 2
#     Edge 114, Type (0, 0), BuildingBlock: KIFKEQ_clean_linker_1, # of connection points: 2
#     Edge 115, Type (0, 0), BuildingBlock: KIFKEQ_clean_linker_1, # of connection points: 2
#     Edge 116, Type (0, 0), BuildingBlock: KIFKEQ_clean_linker_1, # of connection points: 2
#     Edge 117, Type (0, 0), BuildingBlock: KIFKEQ_clean_linker_1, # of connection points: 2
#     Edge 118, Type (0, 0), BuildingBlock: KIFKEQ_clean_linker_1, # of connection points: 2
#     Edge 119, Type (0, 0), BuildingBlock: KIFKEQ_clean_linker_1, # of connection points: 2
#     Edge 120, Type (0, 0), BuildingBlock: KIFKEQ_clean_linker_1, # of connection points: 2
#     Edge 121, Type (0, 0), BuildingBlock: KIFKEQ_clean_linker_1, # of connection points: 2
#     Edge 122, Type (0, 0), BuildingBlock: KIFKEQ_clean_linker_1, # of connection points: 2
#     Edge 123, Type (0, 0), BuildingBlock: KIFKEQ_clean_linker_1, # of connection points: 2
#     Edge 124, Type (0, 0), BuildingBlock: KIFKEQ_clean_linker_1, # of connection points: 2
#     Edge 125, Type (0, 0), BuildingBlock: KIFKEQ_clean_linker_1, # of connection points: 2
#     Edge 126, Type (0, 0), BuildingBlock: KIFKEQ_clean_linker_1, # of connection points: 2
#     Edge 127, Type (0, 0), BuildingBlock: KIFKEQ_clean_linker_1, # of connection points: 2
#     Edge 128, Type (0, 0), BuildingBlock: KIFKEQ_clean_linker_1, # of connection points: 2
#     Edge 129, Type (0, 0), BuildingBlock: KIFKEQ_clean_linker_1, # of connection points: 2
#     Edge 130, Type (0, 0), BuildingBlock: KIFKEQ_clean_linker_1, # of connection points: 2
#     Edge 131, Type (0, 0), BuildingBlock: KIFKEQ_clean_linker_1, # of connection points: 2
#     Edge 132, Type (0, 0), BuildingBlock: KIFKEQ_clean_linker_1, # of connection points: 2
#     Edge 133, Type (0, 0), BuildingBlock: KIFKEQ_clean_linker_1, # of connection points: 2
#     Edge 134, Type (0, 0), BuildingBlock: KIFKEQ_clean_linker_1, # of connection points: 2
#     Edge 135, Type (0, 0), BuildingBlock: KIFKEQ_clean_linker_1, # of connection points: 2
#     Edge 136, Type (0, 0), BuildingBlock: KIFKEQ_clean_linker_1, # of connection points: 2
#     Edge 137, Type (0, 0), BuildingBlock: KIFKEQ_clean_linker_1, # of connection points: 2
#     Edge 138, Type (0, 0), BuildingBlock: KIFKEQ_clean_linker_1, # of connection points: 2
#     Edge 139, Type (0, 0), BuildingBlock: KIFKEQ_clean_linker_1, # of connection points: 2
#     Edge 140, Type (0, 0), BuildingBlock: KIFKEQ_clean_linker_1, # of connection points: 2
#     Edge 141, Type (0, 0), BuildingBlock: KIFKEQ_clean_linker_1, # of connection points: 2
#     Edge 142, Type (0, 0), BuildingBlock: KIFKEQ_clean_linker_1, # of connection points: 2
#     Edge 143, Type (0, 0), BuildingBlock: KIFKEQ_clean_linker_1, # of connection points: 2
# Relax obj value: 0.102
# Max RMSD: 0.128
# Mean RMSD: 0.114
data_MOF--net-ana--node1-QUQFOY_clean_sbu_3--edge1-KIFKEQ_clean_linker_1
_symmetry_space_group_name_H-M    P1
_symmetry_Int_Tables_number       1
_symmetry_cell_setting            triclinic
loop_
_symmetry_equiv_pos_as_xyz
'x, y, z'
_cell_length_a     66.557284
_cell_length_b     67.698973
_cell_length_c     67.636403
_cell_angle_alpha  90.259604
_cell_angle_beta   90.360974
_cell_angle_gamma 90.860996
loop_
_atom_site_label
_atom_site_type_symbol
_atom_site_fract_x
_atom_site_fract_y
_atom_site_fract_z
_atom_type_partial_charge
C0 C 0.14133 0.11964 0.36354 0.0
O1 O 0.12674 0.10741 0.36488 0.0
Cd2 Cd 0.0946 0.11673 0.37841 0.0
O3 O 0.13941 0.1374 0.36934 0.0
Cd4 Cd 0.11483 0.1595 0.38374 0.0
C5 C 0.10661 0.13245 0.42508 0.0
O6 O 0.08527 0.14834 0.36499 0.0
O7 O 0.08069 0.16933 0.38866 0.0
O8 O 0.126 0.18805 0.36492 0.0
C9 C 0.07325 0.15907 0.37466 0.0
O10 O 0.09804 0.11919 0.41444 0.0
C11 C 0.132 0.19784 0.37996 0.0
O12 O 0.1147 0.14767 0.41736 0.0
O13 O 0.13042 0.18951 0.39665 0.0
C14 C 0.07579 0.88744 0.68854 0.0
O15 O 0.05741 0.89094 0.68506 0.0
Cd16 Cd 0.03973 0.88269 0.65542 0.0
O17 O 0.08651 0.87864 0.67575 0.0
Cd18 Cd 0.08139 0.86452 0.64207 0.0
C19 C 0.06893 0.90892 0.62319 0.0
O20 O 0.04926 0.84928 0.64946 0.0
O21 O 0.05719 0.84872 0.61872 0.0
O22 O 0.10452 0.83812 0.64988 0.0
C23 C 0.0452 0.84324 0.63219 0.0
O24 O 0.05193 0.90688 0.63152 0.0
C25 C 0.11455 0.83971 0.63404 0.0
O26 O 0.08249 0.89609 0.62547 0.0
O27 O 0.10977 0.85359 0.62244 0.0
C28 C 0.32829 0.86229 0.88283 0.0
O29 O 0.34231 0.87516 0.88123 0.0
Cd30 Cd 0.37783 0.8679 0.88478 0.0
O31 O 0.33229 0.84437 0.88655 0.0
Cd32 Cd 0.36039 0.82252 0.89267 0.0
C33 C 0.37879 0.84967 0.93181 0.0
O34 O 0.38203 0.83704 0.86796 0.0
O35 O 0.39425 0.81243 0.88384 0.0
O36 O 0.34076 0.79552 0.87784 0.0
C37 C 0.39686 0.82596 0.87121 0.0
O38 O 0.38443 0.86333 0.9201 0.0
C39 C 0.34274 0.78417 0.89263 0.0
O40 O 0.36909 0.83458 0.92543 0.0
O41 O 0.35267 0.79091 0.90735 0.0
C42 C 0.40974 0.11304 0.19935 0.0
O43 O 0.42779 0.10832 0.19598 0.0
Cd44 Cd 0.44307 0.10834 0.16432 0.0
O45 O 0.39815 0.11865 0.18544 0.0
Cd46 Cd 0.4011 0.12513 0.14934 0.0
C47 C 0.41051 0.07732 0.13928 0.0
O48 O 0.43386 0.14016 0.15296 0.0
O49 O 0.42494 0.13533 0.12279 0.0
O50 O 0.3786 0.15256 0.15442 0.0
C51 C 0.43764 0.14266 0.1349 0.0
O52 O 0.42828 0.08045 0.14576 0.0
C53 C 0.36826 0.14952 0.13883 0.0
O54 O 0.39739 0.09074 0.14006 0.0
O55 O 0.37268 0.13452 0.1285 0.0
C56 C 0.09486 0.87814 0.11707 0.0
O57 O 0.10906 0.87676 0.12959 0.0
Cd58 Cd 0.13977 0.86012 0.12158 0.0
O59 O 0.09678 0.87119 0.09969 0.0
Cd60 Cd 0.12129 0.85435 0.07894 0.0
C61 C 0.12079 0.81456 0.10864 0.0
O62 O 0.15162 0.87204 0.09011 0.0
O63 O 0.15573 0.84619 0.07183 0.0
O64 O 0.10933 0.87355 0.05104 0.0
C65 C 0.16349 0.86099 0.08067 0.0
O66 O 0.13119 0.82473 0.12099 0.0
C67 C 0.10706 0.85873 0.03961 0.0
O68 O 0.11431 0.82227 0.09278 0.0
O69 O 0.11101 0.84189 0.0467 0.0
C70 C 0.44671 0.86055 0.32536 0.0
O71 O 0.44409 0.84811 0.3114 0.0
Cd72 Cd 0.41244 0.83573 0.3 0.0
O73 O 0.4318 0.86803 0.33436 0.0
Cd74 Cd 0.39442 0.86843 0.334 0.0
C75 C 0.39336 0.81957 0.34505 0.0
O76 O 0.39515 0.86578 0.2993 0.0
O77 O 0.36528 0.86969 0.31044 0.0
O78 O 0.40182 0.90228 0.34289 0.0
C79 C 0.3766 0.86683 0.29574 0.0
O80 O 0.40097 0.81634 0.32812 0.0
C81 C 0.3872 0.90417 0.35467 0.0
O82 O 0.38941 0.83699 0.3509 0.0
O83 O 0.3759 0.8891 0.35722 0.0
C84 C 0.39685 0.10604 0.62462 0.0
O85 O 0.38524 0.10766 0.63931 0.0
Cd86 Cd 0.35493 0.12599 0.63649 0.0
O87 O 0.39172 0.11291 0.60788 0.0
Cd88 Cd 0.36246 0.12951 0.59344 0.0
C89 C 0.37313 0.17008 0.6194 0.0
O90 O 0.33411 0.11335 0.60975 0.0
O91 O 0.32895 0.14251 0.59801 0.0
O92 O 0.36223 0.1091 0.56372 0.0
C93 C 0.32173 0.12643 0.60457 0.0
O94 O 0.36505 0.16105 0.63388 0.0
C95 C 0.36296 0.12356 0.55184 0.0
O96 O 0.37533 0.16138 0.60292 0.0
O97 O 0.36424 0.14072 0.5594 0.0
C98 C 0.03209 0.13607 0.82609 0.0
O99 O 0.03345 0.14199 0.80835 0.0
Cd100 Cd 0.06382 0.14539 0.79061 0.0
O101 O 0.04758 0.1307 0.83581 0.0
Cd102 Cd 0.08423 0.12596 0.82998 0.0
C103 C 0.09074 0.17496 0.82365 0.0
O104 O 0.07771 0.1141 0.79721 0.0
O105 O 0.10902 0.11861 0.80356 0.0
O106 O 0.07914 0.09799 0.85186 0.0
C107 C 0.09561 0.11272 0.79145 0.0
O108 O 0.08182 0.17276 0.80705 0.0
C109 C 0.09684 0.09832 0.85895 0.0
O110 O 0.09295 0.16042 0.83529 0.0
O111 O 0.10853 0.11209 0.85319 0.0
C112 C 0.21065 0.41622 0.1141 0.0
O113 O 0.20884 0.43195 0.10413 0.0
Cd114 Cd 0.17792 0.44823 0.09877 0.0
O115 O 0.19548 0.40821 0.12246 0.0
Cd116 Cd 0.15916 0.41439 0.12725 0.0
C117 C 0.15016 0.40928 0.07864 0.0
O118 O 0.16374 0.44941 0.13076 0.0
O119 O 0.13293 0.44015 0.12721 0.0
O120 O 0.16477 0.40379 0.16086 0.0
C121 C 0.14548 0.45413 0.13021 0.0
O122 O 0.15845 0.42628 0.07699 0.0
C123 C 0.14936 0.39258 0.16185 0.0
O124 O 0.14944 0.40058 0.09527 0.0
O125 O 0.13846 0.39113 0.1464 0.0
C126 C 0.68767 0.08219 0.888 0.0
O127 O 0.68138 0.0655 0.89407 0.0
Cd128 Cd 0.64854 0.05271 0.88731 0.0
O129 O 0.67666 0.09292 0.87706 0.0
Cd130 Cd 0.64292 0.09121 0.86146 0.0
C131 C 0.62246 0.09144 0.90666 0.0
O132 O 0.64491 0.05715 0.85259 0.0
O133 O 0.61501 0.06853 0.85094 0.0
O134 O 0.65723 0.10636 0.83224 0.0
C135 C 0.6268 0.05441 0.8475 0.0
O136 O 0.62654 0.07315 0.90755 0.0
C137 C 0.64306 0.11845 0.82969 0.0
O138 O 0.62791 0.10186 0.892 0.0
O139 O 0.62923 0.11847 0.84255 0.0
C140 C 0.80369 0.89843 0.38593 0.0
O141 O 0.80994 0.9145 0.39372 0.0
Cd142 Cd 0.84242 0.92845 0.38909 0.0
O143 O 0.815 0.88838 0.37464 0.0
Cd144 Cd 0.84975 0.89117 0.36152 0.0
C145 C 0.86877 0.88965 0.40762 0.0
O146 O 0.84625 0.92521 0.35435 0.0
O147 O 0.87689 0.91602 0.35374 0.0
O148 O 0.83712 0.87647 0.33099 0.0
C149 C 0.86426 0.92947 0.35041 0.0
O150 O 0.86456 0.90788 0.40901 0.0
C151 C 0.85215 0.86547 0.32827 0.0
O152 O 0.86367 0.87957 0.39245 0.0
O153 O 0.8657 0.86577 0.34157 0.0
C154 C 0.82038 0.02283 0.13254 0.0
O155 O 0.80304 0.02536 0.13976 0.0
Cd156 Cd 0.78693 0.05638 0.14244 0.0
O157 O 0.83067 0.03745 0.12606 0.0
Cd158 Cd 0.82676 0.07376 0.12222 0.0
C159 C 0.82154 0.08171 0.17112 0.0
O160 O 0.79214 0.07108 0.11087 0.0
O161 O 0.80284 0.10062 0.11667 0.0
O162 O 0.84768 0.06964 0.09305 0.0
C163 C 0.78874 0.08939 0.11053 0.0
O164 O 0.80402 0.07407 0.16937 0.0
C165 C 0.857 0.08602 0.09511 0.0
O166 O 0.83346 0.08233 0.15649 0.0
O167 O 0.85273 0.09639 0.11013 0.0
C168 C 0.31243 0.51658 0.62876 0.0
O169 O 0.29487 0.51984 0.63518 0.0
Cd170 Cd 0.279 0.55139 0.63651 0.0
O171 O 0.32337 0.53049 0.62177 0.0
Cd172 Cd 0.32109 0.56629 0.61479 0.0
C173 C 0.31452 0.57786 0.66327 0.0
O174 O 0.28656 0.56378 0.60468 0.0
O175 O 0.29852 0.59341 0.60456 0.0
O176 O 0.34096 0.56117 0.58522 0.0
C177 C 0.28363 0.58188 0.60156 0.0
O178 O 0.29669 0.57078 0.66211 0.0
C179 C 0.35333 0.57524 0.58879 0.0
O180 O 0.32644 0.57692 0.64867 0.0
O181 O 0.35096 0.5848 0.60479 0.0
C182 C 0.15556 0.55152 0.35601 0.0
O183 O 0.17356 0.55422 0.35036 0.0
Cd184 Cd 0.19202 0.58443 0.35362 0.0
O185 O 0.14571 0.5656 0.3637 0.0
Cd186 Cd 0.15214 0.60093 0.37175 0.0
C187 C 0.16226 0.61248 0.32438 0.0
O188 O 0.18398 0.59354 0.3868 0.0
O189 O 0.17826 0.62455 0.38387 0.0
O190 O 0.12723 0.59554 0.39742 0.0
C191 C 0.18911 0.61109 0.39101 0.0
O192 O 0.17972 0.60551 0.327 0.0
C193 C 0.12085 0.61312 0.39715 0.0
O194 O 0.1491 0.6114 0.33787 0.0
O195 O 0.12823 0.62463 0.38426 0.0
C196 C 0.30815 0.40597 0.87803 0.0
O197 O 0.31232 0.42364 0.88311 0.0
Cd198 Cd 0.34565 0.43618 0.8843 0.0
O199 O 0.3217 0.39437 0.87181 0.0
Cd200 Cd 0.35805 0.39528 0.86303 0.0
C201 C 0.36786 0.3988 0.91152 0.0
O202 O 0.35619 0.42819 0.85184 0.0
O203 O 0.38654 0.41873 0.85568 0.0
O204 O 0.34635 0.37743 0.83418 0.0
C205 C 0.37465 0.43195 0.84978 0.0
O206 O 0.36166 0.41648 0.91026 0.0
C207 C 0.36161 0.36656 0.83256 0.0
O208 O 0.36767 0.38741 0.8965 0.0
O209 O 0.37513 0.36839 0.84583 0.0
C210 C 0.84251 0.84684 0.59562 0.0
O211 O 0.85856 0.85638 0.59989 0.0
Cd212 Cd 0.89152 0.84478 0.59265 0.0
O213 O 0.8432 0.82964 0.58794 0.0
Cd214 Cd 0.86735 0.80417 0.57781 0.0
C215 C 0.88449 0.83534 0.54262 0.0
O216 O 0.89166 0.81138 0.6034 0.0
O217 O 0.90145 0.79109 0.58103 0.0
O218 O 0.84399 0.78147 0.59336 0.0
C219 C 0.90549 0.80061 0.59676 0.0
O220 O 0.89216 0.84577 0.55655 0.0
C221 C 0.84445 0.76845 0.57982 0.0
O222 O 0.87415 0.81976 0.54615 0.0
O223 O 0.85517 0.77234 0.56479 0.0
C224 C 0.8582 0.14513 0.38222 0.0
O225 O 0.86417 0.1346 0.3965 0.0
Cd226 Cd 0.8854 0.10681 0.3905 0.0
O227 O 0.86324 0.14101 0.3646 0.0
Cd228 Cd 0.88282 0.11635 0.34678 0.0
C229 C 0.92566 0.1298 0.36913 0.0
O230 O 0.87273 0.08605 0.3639 0.0
O231 O 0.89917 0.08476 0.34551 0.0
O232 O 0.85715 0.11688 0.3211 0.0
C233 C 0.88586 0.07565 0.35535 0.0
O234 O 0.91891 0.1203 0.38394 0.0
C235 C 0.86938 0.11909 0.30694 0.0
O236 O 0.91486 0.13209 0.35377 0.0
O237 O 0.88789 0.1206 0.31139 0.0
C238 C 0.64719 0.13751 0.09444 0.0
O239 O 0.63246 0.12657 0.09952 0.0
Cd240 Cd 0.59849 0.13532 0.0916 0.0
O241 O 0.6442 0.15432 0.08671 0.0
Cd242 Cd 0.61754 0.17741 0.07797 0.0
C243 C 0.60451 0.14554 0.04181 0.0
O244 O 0.59283 0.16833 0.10264 0.0
O245 O 0.58236 0.18647 0.07863 0.0
O246 O 0.63766 0.20121 0.09631 0.0
C247 C 0.57844 0.17748 0.09458 0.0
O248 O 0.59799 0.13438 0.05555 0.0
C249 C 0.63736 0.21455 0.08321 0.0
O250 O 0.61311 0.16208 0.04565 0.0
O251 O 0.62806 0.21049 0.06717 0.0
C252 C 0.60742 0.84235 0.86397 0.0
O253 O 0.6035 0.85433 0.87786 0.0
Cd254 Cd 0.58428 0.88346 0.87109 0.0
O255 O 0.60157 0.84581 0.84641 0.0
Cd256 Cd 0.58415 0.87042 0.82666 0.0
C257 C 0.54105 0.86344 0.85098 0.0
O258 O 0.59901 0.89926 0.84284 0.0
O259 O 0.57416 0.9047 0.82298 0.0
O260 O 0.60937 0.86321 0.80207 0.0
C261 C 0.58824 0.91162 0.83377 0.0
O262 O 0.54925 0.87333 0.86501 0.0
C263 C 0.59719 0.86203 0.7876 0.0
O264 O 0.55097 0.85877 0.8357 0.0
O265 O 0.57869 0.86432 0.79138 0.0
C266 C 0.89387 0.14216 0.88477 0.0
O267 O 0.87869 0.14345 0.87341 0.0
Cd268 Cd 0.84492 0.1479 0.88456 0.0
O269 O 0.89203 0.14348 0.90345 0.0
Cd270 Cd 0.86521 0.14882 0.92768 0.0
C271 C 0.85212 0.19261 0.90771 0.0
O272 O 0.84057 0.12699 0.91248 0.0
O273 O 0.8294 0.14615 0.93537 0.0
O274 O 0.87989 0.12478 0.94955 0.0
C275 C 0.82609 0.132 0.92338 0.0
O276 O 0.84346 0.18261 0.89403 0.0
C277 C 0.88199 0.13637 0.96423 0.0
O278 O 0.86241 0.18412 0.92108 0.0
O279 O 0.87687 0.1542 0.96176 0.0
C280 C 0.61855 0.10226 0.63721 0.0
O281 O 0.63163 0.11561 0.63361 0.0
Cd282 Cd 0.62542 0.1501 0.64126 0.0
O283 O 0.60135 0.10685 0.64366 0.0
Cd284 Cd 0.58029 0.13451 0.65235 0.0
C285 C 0.61224 0.14556 0.69018 0.0
O286 O 0.59283 0.15883 0.62887 0.0
O287 O 0.57263 0.16906 0.65151 0.0
O288 O 0.55352 0.11724 0.63467 0.0
C289 C 0.58359 0.17312 0.63678 0.0
O290 O 0.62486 0.15174 0.67744 0.0
C291 C 0.54136 0.11721 0.64906 0.0
O292 O 0.59553 0.1377 0.68485 0.0
O293 O 0.54732 0.12543 0.66504 0.0
C294 C 0.58848 0.86841 0.37019 0.0
O295 O 0.6028 0.87002 0.35797 0.0
Cd296 Cd 0.63517 0.85652 0.36466 0.0
O297 O 0.59131 0.86056 0.38703 0.0
Cd298 Cd 0.61819 0.8467 0.40758 0.0
C299 C 0.62024 0.80869 0.37592 0.0
O300 O 0.6455 0.86797 0.39659 0.0
O301 O 0.65402 0.8417 0.41238 0.0
O302 O 0.60449 0.86678 0.43363 0.0
C303 C 0.65928 0.85788 0.40446 0.0
O304 O 0.62917 0.82076 0.3644 0.0
C305 C 0.6056 0.85377 0.447 0.0
O306 O 0.61346 0.8144 0.39251 0.0
O307 O 0.61184 0.83686 0.44186 0.0
C308 C 0.87322 0.88444 0.13497 0.0
O309 O 0.86129 0.86974 0.13262 0.0
Cd310 Cd 0.86943 0.83571 0.13918 0.0
O311 O 0.89123 0.882 0.14086 0.0
Cd312 Cd 0.91469 0.85598 0.15032 0.0
C313 C 0.88378 0.8411 0.18796 0.0
O314 O 0.90241 0.83239 0.12636 0.0
O315 O 0.92647 0.82223 0.14485 0.0
O316 O 0.94066 0.87635 0.13522 0.0
C317 C 0.91356 0.81831 0.13151 0.0
O318 O 0.87132 0.83407 0.17528 0.0
C319 C 0.95279 0.87531 0.14975 0.0
O320 O 0.89971 0.85023 0.18258 0.0
O321 O 0.947 0.86549 0.16469 0.0
C322 C 0.86641 0.60522 0.8457 0.0
O323 O 0.8802 0.60316 0.85857 0.0
Cd324 Cd 0.87554 0.58952 0.8908 0.0
O325 O 0.84835 0.60004 0.84937 0.0
Cd326 Cd 0.82888 0.58546 0.87676 0.0
C327 C 0.85697 0.54397 0.87668 0.0
O328 O 0.84557 0.60387 0.9029 0.0
O329 O 0.82534 0.58081 0.9126 0.0
O330 O 0.80087 0.6067 0.86907 0.0
C331 C 0.83734 0.59486 0.91713 0.0
O332 O 0.87101 0.55417 0.8848 0.0
C333 C 0.78821 0.59273 0.86622 0.0
O334 O 0.84061 0.55196 0.87136 0.0
O335 O 0.79454 0.57523 0.86813 0.0
C336 C 0.37762 0.86508 0.07719 0.0
O337 O 0.37507 0.84989 0.08786 0.0
Cd338 Cd 0.35613 0.85157 0.11792 0.0
O339 O 0.37148 0.8818 0.08303 0.0
Cd340 Cd 0.35542 0.89701 0.11168 0.0
C341 C 0.31267 0.87277 0.10093 0.0
O342 O 0.36838 0.8777 0.13904 0.0
O343 O 0.34123 0.89408 0.14445 0.0
O344 O 0.38059 0.9231 0.1142 0.0
C345 C 0.3554 0.88374 0.15126 0.0
O346 O 0.32138 0.85764 0.10787 0.0
C347 C 0.36859 0.93712 0.11096 0.0
O348 O 0.32205 0.88919 0.0994 0.0
O349 O 0.35029 0.93248 0.10773 0.0
C350 C 0.11158 0.12013 0.57258 0.0
O351 O 0.11341 0.13431 0.58481 0.0
Cd352 Cd 0.126 0.12911 0.6178 0.0
O353 O 0.1159 0.10263 0.57758 0.0
Cd354 Cd 0.12777 0.08404 0.6061 0.0
C355 C 0.17152 0.10936 0.60619 0.0
O356 O 0.11062 0.10063 0.6333 0.0
O357 O 0.13483 0.08091 0.64072 0.0
O358 O 0.10319 0.05853 0.59763 0.0
C359 C 0.12082 0.09193 0.64654 0.0
O360 O 0.16173 0.12391 0.61292 0.0
C361 C 0.11578 0.04466 0.59682 0.0
O362 O 0.16277 0.09316 0.60149 0.0
O363 O 0.1341 0.0492 0.60007 0.0
C364 C 0.12008 0.88524 0.89671 0.0
O365 O 0.11999 0.87156 0.8838 0.0
Cd366 Cd 0.13391 0.877 0.85155 0.0
O367 O 0.12693 0.90237 0.89259 0.0
Cd368 Cd 0.14095 0.92188 0.86534 0.0
C369 C 0.18186 0.89331 0.86354 0.0
O370 O 0.11984 0.9072 0.83994 0.0
O371 O 0.14423 0.92571 0.82948 0.0
O372 O 0.1194 0.94853 0.87528 0.0
C373 C 0.12862 0.91541 0.82552 0.0
O374 O 0.17039 0.87996 0.85606 0.0
C375 C 0.13333 0.96135 0.87751 0.0
O376 O 0.1748 0.90972 0.86925 0.0
O377 O 0.15115 0.95579 0.87422 0.0
C378 C 0.63472 0.38574 0.4005 0.0
O379 O 0.63235 0.37229 0.38752 0.0
Cd380 Cd 0.64022 0.37821 0.35324 0.0
O381 O 0.64062 0.40297 0.39558 0.0
Cd382 Cd 0.64939 0.42285 0.36668 0.0
C383 C 0.68936 0.39481 0.35683 0.0
O384 O 0.62462 0.40847 0.34397 0.0
O385 O 0.64727 0.42755 0.33114 0.0
O386 O 0.63043 0.44862 0.38264 0.0
C387 C 0.63154 0.41702 0.32876 0.0
O388 O 0.67681 0.38167 0.35082 0.0
C389 C 0.6437 0.46208 0.38051 0.0
O390 O 0.68341 0.41077 0.36474 0.0
O391 O 0.65994 0.4572 0.37212 0.0
C392 C 0.88691 0.37186 0.64334 0.0
O393 O 0.90294 0.37396 0.63346 0.0
Cd394 Cd 0.9029 0.3916 0.60246 0.0
O395 O 0.87057 0.37905 0.63708 0.0
Cd396 Cd 0.85778 0.39783 0.6092 0.0
C397 C 0.88858 0.43684 0.61845 0.0
O398 O 0.87486 0.38099 0.58189 0.0
O399 O 0.85836 0.40749 0.57507 0.0
O400 O 0.82782 0.37742 0.61247 0.0
C401 C 0.86787 0.39263 0.56894 0.0
O402 O 0.90251 0.42667 0.61085 0.0
C403 C 0.8157 0.39168 0.61323 0.0
O404 O 0.87111 0.42938 0.62084 0.0
O405 O 0.82322 0.40901 0.61235 0.0
C406 C 0.61249 0.62009 0.07066 0.0
O407 O 0.61337 0.63505 0.08202 0.0
Cd408 Cd 0.62897 0.63253 0.11405 0.0
O409 O 0.61841 0.60341 0.07669 0.0
Cd410 Cd 0.63126 0.58728 0.10625 0.0
C411 C 0.67438 0.61255 0.10183 0.0
O412 O 0.61507 0.60551 0.13294 0.0
O413 O 0.64066 0.58758 0.14053 0.0
O414 O 0.60621 0.56142 0.10102 0.0
C415 C 0.62634 0.59827 0.14623 0.0
O416 O 0.66461 0.62753 0.10759 0.0
C417 C 0.61863 0.54739 0.10084 0.0
O418 O 0.66574 0.59586 0.09913 0.0
O419 O 0.63711 0.55197 0.10297 0.0
C420 C 0.64295 0.62487 0.86446 0.0
O421 O 0.62835 0.61266 0.86559 0.0
Cd422 Cd 0.59521 0.62229 0.87621 0.0
O423 O 0.64092 0.64274 0.86984 0.0
Cd424 Cd 0.61491 0.66311 0.88449 0.0
C425 C 0.60591 0.63408 0.92375 0.0
O426 O 0.58612 0.65417 0.86311 0.0
O427 O 0.58006 0.67024 0.89002 0.0
O428 O 0.62943 0.69237 0.86889 0.0
C429 C 0.57356 0.66315 0.87382 0.0
O430 O 0.59533 0.62303 0.91236 0.0
C431 C 0.63045 0.70237 0.88482 0.0
O432 O 0.61637 0.64827 0.9168 0.0
O433 O 0.6247 0.69386 0.90051 0.0
C434 C 0.57681 0.38538 0.19304 0.0
O435 O 0.55842 0.38864 0.18937 0.0
Cd436 Cd 0.54212 0.38205 0.15865 0.0
O437 O 0.58809 0.37776 0.17995 0.0
Cd438 Cd 0.58429 0.36541 0.14536 0.0
C439 C 0.57187 0.41068 0.1289 0.0
O440 O 0.55246 0.34915 0.15122 0.0
O441 O 0.5607 0.35082 0.12063 0.0
O442 O 0.60793 0.33923 0.15233 0.0
C443 C 0.54878 0.3441 0.13357 0.0
O444 O 0.5547 0.40802 0.13673 0.0
C445 C 0.61795 0.34153 0.13656 0.0
O446 O 0.58547 0.39783 0.13067 0.0
O447 O 0.61296 0.35573 0.12546 0.0
C448 C 0.83532 0.36341 0.36449 0.0
O449 O 0.84952 0.37614 0.36382 0.0
Cd450 Cd 0.88313 0.36971 0.37605 0.0
O451 O 0.83827 0.34643 0.37181 0.0
Cd452 Cd 0.86444 0.32704 0.38733 0.0
C453 C 0.87174 0.36032 0.42428 0.0
O454 O 0.89254 0.33697 0.36652 0.0
O455 O 0.89959 0.3202 0.39269 0.0
O456 O 0.85237 0.29695 0.3713 0.0
C457 C 0.90574 0.32872 0.37717 0.0
O458 O 0.88138 0.37117 0.41213 0.0
C459 C 0.84864 0.28786 0.38729 0.0
O460 O 0.86276 0.34453 0.41862 0.0
O461 O 0.85207 0.29716 0.40334 0.0
C462 C 0.90801 0.62537 0.70593 0.0
O463 O 0.92664 0.62215 0.70394 0.0
Cd464 Cd 0.94358 0.61728 0.67361 0.0
O465 O 0.8964 0.62702 0.69096 0.0
Cd466 Cd 0.89971 0.62788 0.65426 0.0
C467 C 0.91372 0.58005 0.65336 0.0
O468 O 0.93152 0.64481 0.65595 0.0
O469 O 0.92301 0.63583 0.62661 0.0
O470 O 0.87524 0.65392 0.65543 0.0
C471 C 0.93559 0.6447 0.63778 0.0
O472 O 0.9306 0.58568 0.66057 0.0
C473 C 0.86548 0.64835 0.64016 0.0
O474 O 0.89971 0.59231 0.65044 0.0
O475 O 0.87113 0.63255 0.63181 0.0
C476 C 0.59271 0.37792 0.62039 0.0
O477 O 0.60476 0.3769 0.63496 0.0
Cd478 Cd 0.63668 0.36103 0.63242 0.0
O479 O 0.59777 0.37142 0.60347 0.0
Cd480 Cd 0.62696 0.3565 0.58734 0.0
C481 C 0.62157 0.31558 0.61493 0.0
O482 O 0.65407 0.37472 0.60443 0.0
O483 O 0.66245 0.34917 0.58733 0.0
O484 O 0.62073 0.37626 0.55794 0.0
C485 C 0.6679 0.36418 0.59736 0.0
O486 O 0.62901 0.32552 0.62931 0.0
C487 C 0.62088 0.36165 0.54608 0.0
O488 O 0.61829 0.32369 0.59834 0.0
O489 O 0.62353 0.34472 0.55353 0.0
C490 C 0.94616 0.35279 0.83868 0.0
O491 O 0.9463 0.33757 0.82762 0.0
Cd492 Cd 0.91841 0.32529 0.8091 0.0
O493 O 0.93035 0.36298 0.84081 0.0
Cd494 Cd 0.89473 0.36335 0.82944 0.0
C495 C 0.88722 0.31796 0.84922 0.0
O496 O 0.90506 0.35509 0.79678 0.0
O497 O 0.87317 0.35886 0.79949 0.0
O498 O 0.90082 0.39852 0.83233 0.0
C499 C 0.88802 0.35508 0.78852 0.0
O500 O 0.89862 0.31154 0.83568 0.0
C501 C 0.88429 0.40246 0.84059 0.0
O502 O 0.88306 0.3362 0.85062 0.0
O503 O 0.87227 0.38805 0.84368 0.0
C504 C 0.89599 0.61207 0.13721 0.0
O505 O 0.8839 0.61804 0.15028 0.0
Cd506 Cd 0.85325 0.63423 0.14153 0.0
O507 O 0.89235 0.61499 0.11898 0.0
Cd508 Cd 0.8662 0.63182 0.10009 0.0
C509 C 0.87351 0.67554 0.1218 0.0
O510 O 0.83581 0.61775 0.11455 0.0
O511 O 0.83256 0.64544 0.09914 0.0
O512 O 0.86862 0.60875 0.0724 0.0
C513 C 0.82436 0.6301 0.10635 0.0
O514 O 0.86173 0.66896 0.13507 0.0
C515 C 0.87085 0.62211 0.05945 0.0
O516 O 0.87965 0.66422 0.10816 0.0
O517 O 0.87188 0.63982 0.06562 0.0
C518 C 0.52944 0.62984 0.32399 0.0
O519 O 0.531 0.63811 0.30724 0.0
Cd520 Cd 0.56188 0.64369 0.29059 0.0
O521 O 0.54495 0.62392 0.33328 0.0
Cd522 Cd 0.5819 0.62212 0.32926 0.0
C523 C 0.58629 0.67179 0.32643 0.0
O524 O 0.57783 0.613 0.29548 0.0
O525 O 0.6086 0.61813 0.30395 0.0
O526 O 0.57792 0.59134 0.34681 0.0
C527 C 0.59609 0.61295 0.29064 0.0
O528 O 0.57838 0.67038 0.30927 0.0
C529 C 0.59386 0.59313 0.35709 0.0
O530 O 0.58835 0.65663 0.33728 0.0
O531 O 0.60417 0.60891 0.35488 0.0
C532 C 0.709 0.91406 0.60258 0.0
O533 O 0.7071 0.92976 0.59258 0.0
Cd534 Cd 0.67729 0.94882 0.59101 0.0
O535 O 0.69449 0.90736 0.61293 0.0
Cd536 Cd 0.65965 0.91682 0.62109 0.0
C537 C 0.64385 0.91345 0.57378 0.0
O538 O 0.66733 0.95174 0.62463 0.0
O539 O 0.63581 0.94414 0.62439 0.0
O540 O 0.66509 0.90518 0.65462 0.0
C541 C 0.6494 0.95731 0.62651 0.0
O542 O 0.65317 0.92977 0.57098 0.0
C543 C 0.64945 0.89421 0.65507 0.0
O544 O 0.64485 0.90476 0.59038 0.0
O545 O 0.6387 0.89351 0.63951 0.0
C546 C 0.34506 0.35279 0.10583 0.0
O547 O 0.36133 0.36241 0.10881 0.0
Cd548 Cd 0.39322 0.35078 0.09776 0.0
O549 O 0.34517 0.33594 0.09741 0.0
Cd550 Cd 0.36812 0.31133 0.08374 0.0
C551 C 0.38142 0.34382 0.04828 0.0
O552 O 0.39471 0.31703 0.10747 0.0
O553 O 0.40256 0.29888 0.08257 0.0
O554 O 0.34655 0.28796 0.10066 0.0
C555 C 0.40784 0.30684 0.09882 0.0
O556 O 0.39114 0.3532 0.06174 0.0
C557 C 0.34579 0.27535 0.08674 0.0
O558 O 0.37082 0.32856 0.05237 0.0
O559 O 0.35495 0.27978 0.07088 0.0
C560 C 0.35853 0.64524 0.87042 0.0
O561 O 0.36387 0.63465 0.88489 0.0
Cd562 Cd 0.38909 0.61032 0.87997 0.0
O563 O 0.36512 0.64169 0.85316 0.0
Cd564 Cd 0.38536 0.61736 0.83532 0.0
C565 C 0.42693 0.63584 0.85611 0.0
O566 O 0.37871 0.58757 0.85435 0.0
O567 O 0.40438 0.58709 0.83484 0.0
O568 O 0.35813 0.61173 0.81211 0.0
C569 C 0.39244 0.57773 0.84607 0.0
O570 O 0.42026 0.62812 0.87195 0.0
C571 C 0.36789 0.61674 0.79685 0.0
O572 O 0.41698 0.63473 0.84003 0.0
O573 O 0.38595 0.62255 0.79946 0.0
C574 C 0.14327 0.63333 0.58478 0.0
O575 O 0.1282 0.62187 0.58715 0.0
Cd576 Cd 0.09402 0.63205 0.58266 0.0
O577 O 0.14093 0.65137 0.58024 0.0
Cd578 Cd 0.11422 0.67525 0.57382 0.0
C579 C 0.09761 0.64832 0.53461 0.0
O580 O 0.09017 0.6636 0.59815 0.0
O581 O 0.07956 0.68503 0.5771 0.0
O582 O 0.13423 0.69829 0.59344 0.0
C583 C 0.07591 0.67422 0.59192 0.0
O584 O 0.09108 0.6357 0.54702 0.0
C585 C 0.13404 0.71213 0.58085 0.0
O586 O 0.10745 0.66368 0.54019 0.0
O587 O 0.12496 0.70865 0.56458 0.0
C588 C 0.11862 0.34052 0.37321 0.0
O589 O 0.11428 0.35101 0.38814 0.0
Cd590 Cd 0.09635 0.38125 0.38426 0.0
O591 O 0.11316 0.34559 0.35593 0.0
Cd592 Cd 0.09514 0.37195 0.33889 0.0
C593 C 0.05234 0.36369 0.36411 0.0
O594 O 0.11191 0.39851 0.35709 0.0
O595 O 0.08764 0.40713 0.33779 0.0
O596 O 0.11831 0.36492 0.31223 0.0
C597 C 0.10214 0.41224 0.34899 0.0
O598 O 0.06112 0.37172 0.37894 0.0
C599 C 0.10516 0.36518 0.29858 0.0
O600 O 0.06174 0.36097 0.34805 0.0
O601 O 0.0872 0.36846 0.30371 0.0
C602 C 0.39491 0.63268 0.38836 0.0
O603 O 0.37885 0.63311 0.37816 0.0
Cd604 Cd 0.34789 0.64471 0.39156 0.0
O605 O 0.39489 0.63765 0.40653 0.0
Cd606 Cd 0.37201 0.64839 0.43262 0.0
C607 C 0.36471 0.69047 0.40784 0.0
O608 O 0.34342 0.62855 0.42243 0.0
O609 O 0.33694 0.6518 0.44316 0.0
O610 O 0.3892 0.62518 0.45362 0.0
C611 C 0.33067 0.63697 0.43328 0.0
O612 O 0.35333 0.68025 0.39639 0.0
C613 C 0.39084 0.63671 0.46841 0.0
O614 O 0.37474 0.68239 0.42162 0.0
O615 O 0.38443 0.65417 0.46625 0.0
C616 C 0.11521 0.59872 0.12875 0.0
O617 O 0.12884 0.61127 0.12441 0.0
Cd618 Cd 0.12684 0.64524 0.13532 0.0
O619 O 0.09949 0.60412 0.13771 0.0
Cd620 Cd 0.08249 0.63292 0.15075 0.0
C621 C 0.11938 0.63816 0.18503 0.0
O622 O 0.0941 0.65796 0.12766 0.0
O623 O 0.07867 0.66801 0.15386 0.0
O624 O 0.0517 0.62191 0.13496 0.0
C625 C 0.08745 0.67227 0.13782 0.0
O626 O 0.13126 0.64336 0.17123 0.0
C627 C 0.042 0.61937 0.15088 0.0
O628 O 0.10122 0.63309 0.18146 0.0
O629 O 0.05114 0.62346 0.16698 0.0
C630 C 0.08736 0.37106 0.87642 0.0
O631 O 0.09883 0.3753 0.86209 0.0
Cd632 Cd 0.13227 0.36238 0.86193 0.0
O633 O 0.09411 0.3617 0.89122 0.0
Cd634 Cd 0.12529 0.34875 0.90501 0.0
C635 C 0.12215 0.31305 0.87124 0.0
O636 O 0.14993 0.37197 0.8916 0.0
O637 O 0.161 0.34369 0.90137 0.0
O638 O 0.11571 0.36709 0.93381 0.0
C639 C 0.16479 0.36104 0.89537 0.0
O640 O 0.12811 0.32633 0.85923 0.0
C641 C 0.11933 0.35364 0.94626 0.0
O642 O 0.11853 0.31731 0.88921 0.0
O643 O 0.12563 0.33731 0.93953 0.0
C644 C 0.36656 0.37887 0.63801 0.0
O645 O 0.35529 0.36358 0.63873 0.0
Cd646 Cd 0.36685 0.33061 0.64527 0.0
O647 O 0.38534 0.3778 0.6414 0.0
Cd648 Cd 0.41003 0.35294 0.65092 0.0
C649 C 0.38445 0.33858 0.6921 0.0
O650 O 0.39842 0.32654 0.62905 0.0
O651 O 0.42146 0.31905 0.65009 0.0
O652 O 0.43569 0.37072 0.63218 0.0
C653 C 0.40988 0.31353 0.63614 0.0
O654 O 0.37187 0.32949 0.68094 0.0
C655 C 0.44798 0.37219 0.64659 0.0
O656 O 0.39852 0.3492 0.68483 0.0
O657 O 0.44236 0.36502 0.663 0.0
C658 C 0.36377 0.09892 0.34005 0.0
O659 O 0.37644 0.09936 0.35418 0.0
Cd660 Cd 0.36902 0.09231 0.3882 0.0
O661 O 0.34547 0.09411 0.343 0.0
Cd662 Cd 0.32405 0.08339 0.37057 0.0
C663 C 0.3537 0.04431 0.38163 0.0
O664 O 0.33729 0.10682 0.39486 0.0
O665 O 0.31601 0.08525 0.40558 0.0
O666 O 0.29636 0.09974 0.35404 0.0
C667 C 0.32749 0.09989 0.40931 0.0
O668 O 0.36637 0.05641 0.3893 0.0
C669 C 0.28418 0.08519 0.35552 0.0
O670 O 0.338 0.05043 0.37286 0.0
O671 O 0.29075 0.06967 0.36363 0.0
H672 H 0.11875 0.31722 0.40596 0.0
H673 H 0.14079 0.32072 0.34614 0.0
H674 H 0.12896 0.28295 0.4077 0.0
H675 H 0.15197 0.2867 0.34814 0.0
H676 H 0.12971 0.2214 0.34759 0.0
H677 H 0.13319 0.25703 0.3468 0.0
H678 H 0.15271 0.25727 0.40794 0.0
H679 H 0.14835 0.22145 0.4089 0.0
C680 C 0.12638 0.31083 0.39342 0.0
C681 C 0.12858 0.32142 0.37578 0.0
C682 C 0.13239 0.29119 0.39443 0.0
C683 C 0.14099 0.28192 0.37791 0.0
C684 C 0.1449 0.29321 0.36094 0.0
C685 C 0.13857 0.31271 0.35981 0.0
C686 C 0.13516 0.229 0.36074 0.0
C687 C 0.13836 0.21871 0.37841 0.0
C688 C 0.13733 0.24949 0.36028 0.0
C689 C 0.14298 0.26011 0.37742 0.0
C690 C 0.14789 0.24959 0.39461 0.0
C691 C 0.14549 0.22907 0.39514 0.0
H692 H 0.01733 0.83017 0.65852 0.0
H693 H 0.02964 0.83326 0.59595 0.0
H694 H 0.98418 0.8161 0.65131 0.0
H695 H -0.00371 0.81954 0.58872 0.0
H696 H 0.91891 0.82273 0.62801 0.0
H697 H 0.95362 0.82987 0.63734 0.0
H698 H 0.974 0.79039 0.59153 0.0
H699 H 0.93916 0.78345 0.58194 0.0
C700 C 0.01299 0.82772 0.6432 0.0
C701 C 0.02598 0.83304 0.62774 0.0
C702 C -0.00601 0.81972 0.63911 0.0
C703 C 0.98756 0.81689 0.61947 0.0
C704 C 0.00089 0.82139 0.60402 0.0
C705 C 0.01995 0.82938 0.60812 0.0
C706 C 0.93077 0.81534 0.62011 0.0
C707 C 0.92633 0.80268 0.60413 0.0
C708 C 0.95067 0.81935 0.62552 0.0
C709 C 0.96654 0.81077 0.61508 0.0
C710 C 0.96207 0.79742 0.59966 0.0
C711 C 0.94214 0.79337 0.59426 0.0
H712 H 0.31939 0.76589 0.86435 0.0
H713 H 0.35049 0.75551 0.91951 0.0
H714 H 0.31392 0.73039 0.86021 0.0
H715 H 0.34593 0.72027 0.91501 0.0
H716 H 0.34099 0.65747 0.90487 0.0
H717 H 0.32793 0.69023 0.91181 0.0
H718 H 0.33715 0.70639 0.8507 0.0
H719 H 0.34921 0.67366 0.84367 0.0
C720 C 0.32475 0.75604 0.87574 0.0
C721 C 0.33579 0.7634 0.892 0.0
C722 C 0.32168 0.73571 0.87335 0.0
C723 C 0.32987 0.72239 0.88703 0.0
C724 C 0.33927 0.72997 0.9042 0.0
C725 C 0.3421 0.75026 0.9067 0.0
C726 C 0.33969 0.66789 0.89283 0.0
C727 C 0.34664 0.66317 0.87384 0.0
C728 C 0.33227 0.68668 0.89682 0.0
C729 C 0.33193 0.70115 0.88195 0.0
C730 C 0.33706 0.6957 0.86256 0.0
C731 C 0.34423 0.67689 0.85854 0.0
H732 H 0.4672 0.15776 0.15859 0.0
H733 H 0.45267 0.14541 0.09734 0.0
H734 H 0.50086 0.16835 0.14918 0.0
H735 H 0.48663 0.15586 0.08794 0.0
H736 H 0.54444 0.19158 0.07726 0.0
H737 H 0.50971 0.1852 0.08699 0.0
H738 H 0.53055 0.151 0.13663 0.0
H739 H 0.56525 0.15751 0.12705 0.0
C740 C 0.47117 0.1574 0.14308 0.0
C741 C 0.45736 0.15059 0.1287 0.0
C742 C 0.49048 0.16339 0.13773 0.0
C743 C 0.49642 0.16274 0.11788 0.0
C744 C 0.4824 0.15662 0.10336 0.0
C745 C 0.46301 0.15057 0.10873 0.0
C746 C 0.54161 0.18285 0.09037 0.0
C747 C 0.55756 0.175 0.10139 0.0
C748 C 0.52173 0.17911 0.09584 0.0
C749 C 0.51744 0.16756 0.11251 0.0
C750 C 0.53341 0.16013 0.12382 0.0
C751 C 0.55328 0.16379 0.1183 0.0
H752 H 0.10567 0.68653 0.1045 0.0
H753 H 0.079 0.70493 0.15959 0.0
H754 H 0.11417 0.721 0.09711 0.0
H755 H 0.08745 0.73918 0.15217 0.0
H756 H 0.12722 0.79413 0.14285 0.0
H757 H 0.11921 0.75946 0.14928 0.0
H758 H 0.09611 0.75278 0.08979 0.0
H759 H 0.10414 0.78737 0.08325 0.0
C760 C 0.10153 0.69791 0.11495 0.0
C761 C 0.09171 0.69304 0.13262 0.0
C762 C 0.10636 0.71761 0.11071 0.0
C763 C 0.10159 0.73268 0.12416 0.0
C764 C 0.09156 0.7278 0.14169 0.0
C765 C 0.0866 0.7082 0.14585 0.0
C766 C 0.12047 0.78527 0.13113 0.0
C767 C 0.11624 0.79353 0.11258 0.0
C768 C 0.11582 0.76546 0.13484 0.0
C769 C 0.10701 0.7535 0.12003 0.0
C770 C 0.10304 0.76165 0.1014 0.0
C771 C 0.10753 0.78149 0.09773 0.0
H772 H 0.45875 0.88337 0.35698 0.0
H773 H 0.4815 0.85076 0.30696 0.0
H774 H 0.49319 0.89089 0.36763 0.0
H775 H 0.51566 0.85805 0.31773 0.0
H776 H 0.57571 0.88139 0.33403 0.0
H777 H 0.54103 0.88446 0.32275 0.0
H778 H 0.52009 0.87014 0.38137 0.0
H779 H 0.55464 0.8674 0.39276 0.0
C780 C 0.47106 0.87795 0.34818 0.0
C781 C 0.4674 0.86627 0.33125 0.0
C782 C 0.49074 0.88225 0.35429 0.0
C783 C 0.50709 0.87508 0.3435 0.0
C784 C 0.50338 0.86405 0.32619 0.0
C785 C 0.48377 0.85967 0.32015 0.0
C786 C 0.56373 0.87932 0.34462 0.0
C787 C 0.56791 0.87378 0.3642 0.0
C788 C 0.54388 0.88101 0.33813 0.0
C789 C 0.52789 0.87725 0.35111 0.0
C790 C 0.5321 0.87321 0.37104 0.0
C791 C 0.55192 0.8715 0.37752 0.0
H792 H 0.37696 0.19203 0.65335 0.0
H793 H 0.384 0.19531 0.58992 0.0
H794 H 0.38735 0.2267 0.65628 0.0
H795 H 0.39433 0.22987 0.59294 0.0
H796 H 0.38543 0.29685 0.60787 0.0
H797 H 0.37748 0.26175 0.60332 0.0
H798 H 0.41898 0.2474 0.65024 0.0
H799 H 0.42702 0.28238 0.6548 0.0
C800 C 0.38075 0.20011 0.64007 0.0
C801 C 0.37966 0.19093 0.62142 0.0
C802 C 0.3868 0.21989 0.64175 0.0
C803 C 0.39165 0.23088 0.62482 0.0
C804 C 0.39055 0.22174 0.6062 0.0
C805 C 0.38472 0.20193 0.60452 0.0
C806 C 0.39303 0.28618 0.61702 0.0
C807 C 0.40675 0.29236 0.63174 0.0
C808 C 0.38851 0.26612 0.61441 0.0
C809 C 0.39749 0.25195 0.62658 0.0
C810 C 0.41166 0.25808 0.64087 0.0
C811 C 0.41633 0.27808 0.64335 0.0
H812 H -0.0035 0.12918 0.80756 0.0
H813 H 0.02273 0.14056 0.86511 0.0
H814 H 0.96319 0.12857 0.82194 0.0
H815 H 0.98921 0.14124 0.87951 0.0
H816 H 0.92698 0.12668 0.9025 0.0
H817 H 0.96043 0.12327 0.88854 0.0
H818 H 0.93972 0.15017 0.83433 0.0
H819 H 0.90617 0.15242 0.84792 0.0
C820 C -0.00493 0.13173 0.82331 0.0
C821 C 0.01212 0.13508 0.83523 0.0
C822 C 0.97595 0.13153 0.83156 0.0
C823 C 0.97339 0.13516 0.85187 0.0
C824 C 0.99057 0.13815 0.86386 0.0
C825 C 0.00978 0.1379 0.85563 0.0
C826 C 0.92963 0.13171 0.88755 0.0
C827 C 0.914 0.13974 0.87625 0.0
C828 C 0.94882 0.1299 0.87958 0.0
C829 C 0.95286 0.13643 0.86027 0.0
C830 C 0.93714 0.14453 0.84906 0.0
C831 C 0.91789 0.14596 0.85688 0.0
H832 H 0.37175 0.10476 0.21219 0.0
H833 H 0.43145 0.12055 0.23258 0.0
H834 H 0.36051 0.10227 0.24637 0.0
H835 H 0.4201 0.11952 0.26659 0.0
H836 H 0.40101 0.09348 0.32497 0.0
H837 H 0.4116 0.09751 0.29095 0.0
H838 H 0.35245 0.1185 0.27544 0.0
H839 H 0.34159 0.11311 0.30936 0.0
C840 C 0.38235 0.10799 0.22403 0.0
C841 C 0.40248 0.11259 0.21984 0.0
C842 C 0.37592 0.10673 0.24363 0.0
C843 C 0.38941 0.11055 0.25939 0.0
C844 C 0.40939 0.11589 0.25498 0.0
C845 C 0.4159 0.11662 0.23546 0.0
C846 C 0.39034 0.09907 0.31429 0.0
C847 C 0.3705 0.10296 0.31975 0.0
C848 C 0.39642 0.10152 0.29475 0.0
C849 C 0.38293 0.10841 0.2803 0.0
C850 C 0.36317 0.11279 0.28599 0.0
C851 C 0.35697 0.10987 0.30546 0.0
H852 H 0.10675 0.09915 0.44766 0.0
H853 H 0.10429 0.16272 0.45123 0.0
H854 H 0.10577 0.09722 0.4836 0.0
H855 H 0.10177 0.16093 0.48698 0.0
H856 H 0.12228 0.15217 0.55084 0.0
H857 H 0.12003 0.15544 0.51515 0.0
H858 H 0.08678 0.10004 0.51175 0.0
H859 H 0.09048 0.09625 0.54736 0.0
C860 C 0.10577 0.11268 0.45619 0.0
C861 C 0.10585 0.13106 0.44677 0.0
C862 C 0.10496 0.11162 0.4768 0.0
C863 C 0.10364 0.12894 0.48837 0.0
C864 C 0.10325 0.1473 0.47873 0.0
C865 C 0.10462 0.14835 0.4582 0.0
C866 C 0.1142 0.14091 0.54244 0.0
C867 C 0.10664 0.12394 0.55175 0.0
C868 C 0.11284 0.14276 0.52192 0.0
C869 C 0.10343 0.12787 0.51036 0.0
C870 C 0.09469 0.11151 0.52 0.0
C871 C 0.09655 0.10943 0.54044 0.0
H872 H 0.09423 0.89662 0.81372 0.0
H873 H 0.14704 0.92664 0.79117 0.0
H874 H 0.0823 0.89085 0.78008 0.0
H875 H 0.13494 0.92086 0.75733 0.0
H876 H 0.11477 0.88377 0.70135 0.0
H877 H 0.12824 0.8915 0.73426 0.0
H878 H 0.06992 0.91176 0.75232 0.0
H879 H 0.0564 0.90401 0.7197 0.0
C880 C 0.10328 0.90202 0.80157 0.0
C881 C 0.12154 0.91213 0.80506 0.0
C882 C 0.09639 0.8988 0.78232 0.0
C883 C 0.10766 0.90551 0.76615 0.0
C884 C 0.12603 0.91546 0.76957 0.0
C885 C 0.13288 0.91884 0.7889 0.0
C886 C 0.10486 0.88997 0.71231 0.0
C887 C 0.08447 0.89311 0.70795 0.0
C888 C 0.11261 0.89449 0.73109 0.0
C889 C 0.10006 0.90207 0.74582 0.0
C890 C 0.07984 0.90566 0.7413 0.0
C891 C 0.07214 0.90128 0.72257 0.0
H892 H 0.36686 0.82453 0.96097 0.0
H893 H 0.40127 0.87822 0.95101 0.0
H894 H 0.3724 0.82795 -0.00375 0.0
H895 H 0.40733 0.88134 0.98654 0.0
H896 H 0.38184 0.89405 0.04957 0.0
H897 H 0.38684 0.88968 0.01437 0.0
H898 H 0.39603 0.82726 0.02322 0.0
H899 H 0.39033 0.83152 0.05855 0.0
C900 C 0.37586 0.83694 0.96628 0.0
C901 C 0.3834 0.85125 0.95317 0.0
C902 C 0.37925 0.83878 0.98655 0.0
C903 C 0.39036 0.8549 -0.00576 0.0
C904 C 0.39853 0.86886 0.98108 0.0
C905 C 0.39506 0.86706 0.96074 0.0
C906 C 0.38532 0.87943 0.04412 0.0
C907 C 0.38522 0.86304 0.05681 0.0
C908 C 0.38834 0.87695 0.02389 0.0
C909 C 0.39147 0.85806 0.01593 0.0
C910 C 0.39317 0.84194 0.02887 0.0
C911 C 0.39003 0.8444 0.04912 0.0
H912 H 0.34711 0.88828 0.27837 0.0
H913 H 0.38965 0.84211 0.26741 0.0
H914 H 0.33996 0.89021 0.24297 0.0
H915 H 0.38163 0.8429 0.23231 0.0
H916 H 0.3878 0.8709 0.17177 0.0
H917 H 0.39011 0.86428 0.20692 0.0
H918 H 0.32697 0.87712 0.21328 0.0
H919 H 0.32507 0.88484 0.17814 0.0
C920 C 0.3544 0.87811 0.26839 0.0
C921 C 0.36909 0.86525 0.27539 0.0
C922 C 0.35029 0.87913 0.24812 0.0
C923 C 0.36054 0.86697 0.23468 0.0
C924 C 0.37397 0.85295 0.24211 0.0
C925 C 0.37844 0.85233 0.26222 0.0
C926 C 0.37441 0.87218 0.18068 0.0
C927 C 0.35631 0.87847 0.17231 0.0
C928 C 0.37564 0.86821 0.20084 0.0
C929 C 0.35867 0.87004 0.21302 0.0
C930 C 0.3404 0.87584 0.20445 0.0
C931 C 0.33928 0.88017 0.18431 0.0
H932 H 0.36237 0.15188 0.5232 0.0
H933 H 0.35794 0.08875 0.53194 0.0
H934 H 0.35405 0.1473 0.48824 0.0
H935 H 0.3499 0.08421 0.49702 0.0
H936 H 0.35612 0.12637 0.42241 0.0
H937 H 0.36645 0.1326 0.45668 0.0
H938 H 0.32006 0.09228 0.47675 0.0
H939 H 0.30988 0.08591 0.44269 0.0
C940 C 0.35992 0.13701 0.5176 0.0
C941 C 0.36063 0.12067 0.53033 0.0
C942 C 0.35521 0.13441 0.49759 0.0
C943 C 0.35104 0.11544 0.49002 0.0
C944 C 0.35264 0.09905 0.50258 0.0
C945 C 0.35739 0.10163 0.52253 0.0
C946 C 0.34801 0.11902 0.43418 0.0
C947 C 0.3323 0.10554 0.42989 0.0
C948 C 0.35393 0.12258 0.45376 0.0
C949 C 0.34426 0.11267 0.46931 0.0
C950 C 0.32807 0.09978 0.46501 0.0
C951 C 0.32215 0.09627 0.44552 0.0
H952 H 0.1322 0.11309 0.7731 0.0
H953 H 0.06876 0.10271 0.76261 0.0
H954 H 0.13859 0.10827 0.73784 0.0
H955 H 0.07519 0.09772 0.72761 0.0
H956 H 0.09146 0.11368 0.66399 0.0
H957 H 0.08596 0.11843 0.69937 0.0
H958 H 0.13684 0.0817 0.71239 0.0
H959 H 0.14249 0.07712 0.67715 0.0
C960 C 0.11968 0.10962 0.76331 0.0
C961 C 0.09999 0.10838 0.77057 0.0
C962 C 0.12333 0.10684 0.74317 0.0
C963 C 0.10733 0.10282 0.73 0.0
C964 C 0.08774 0.10116 0.73737 0.0
C965 C 0.08411 0.10387 0.75744 0.0
C966 C 0.10146 0.10666 0.67442 0.0
C967 C 0.11735 0.095 0.66782 0.0
C968 C 0.09827 0.1093 0.69464 0.0
C969 C 0.11097 0.10039 0.70859 0.0
C970 C 0.12696 0.08889 0.70197 0.0
C971 C 0.13009 0.08619 0.68179 0.0
H972 H 0.11158 0.83185 0.01 0.0
H973 H 0.09153 0.89115 0.02166 0.0
H974 H 0.10983 0.83799 0.97468 0.0
H975 H 0.08881 0.89705 0.98623 0.0
H976 H 0.10148 0.8517 0.91074 0.0
H977 H 0.09211 0.84471 0.94488 0.0
H978 H 0.11394 0.90272 0.96241 0.0
H979 H 0.1225 0.9099 0.9285 0.0
C980 C 0.10622 0.84602 0.00498 0.0
C981 C 0.10208 0.86117 0.01853 0.0
C982 C 0.10508 0.84951 0.9847 0.0
C983 C 0.09952 0.86815 0.9776 0.0
C984 C 0.09368 0.88271 0.99122 0.0
C985 C 0.09513 0.87931 0.01151 0.0
C986 C 0.10401 0.86301 0.92189 0.0
C987 C 0.11291 0.88127 0.91695 0.0
C988 C 0.09868 0.859 0.94145 0.0
C989 C 0.1023 0.87312 0.95643 0.0
C990 C 0.11055 0.89161 0.95127 0.0
C991 C 0.11569 0.89566 0.93177 0.0
H992 H 0.33828 0.39003 0.12001 0.0
H993 H 0.30785 0.33545 0.10352 0.0
H994 H 0.30584 0.40544 0.12533 0.0
H995 H 0.27556 0.35096 0.10856 0.0
H996 H 0.22012 0.38115 0.13166 0.0
H997 H 0.25304 0.36578 0.13332 0.0
H998 H 0.27908 0.41539 0.10216 0.0
H999 H 0.24641 0.43086 0.10069 0.0
C1000 C 0.32471 0.38126 0.11772 0.0
C1001 C 0.32563 0.36159 0.11112 0.0
C1002 C 0.30616 0.39011 0.12069 0.0
C1003 C 0.28821 0.37944 0.1172 0.0
C1004 C 0.28915 0.35951 0.11152 0.0
C1005 C 0.30767 0.35068 0.10849 0.0
C1006 C 0.2329 0.38883 0.12529 0.0
C1007 C 0.23062 0.40716 0.11591 0.0
C1008 C 0.25172 0.38001 0.12622 0.0
C1009 C 0.2686 0.38941 0.11788 0.0
C1010 C 0.26639 0.40793 0.10896 0.0
C1011 C 0.24761 0.4167 0.10796 0.0
H1012 H 0.71809 0.0606 0.90373 0.0
H1013 H 0.70294 0.11976 0.88561 0.0
H1014 H 0.75155 0.07233 0.91357 0.0
H1015 H 0.73642 0.13141 0.89557 0.0
H1016 H 0.79055 0.14696 0.93612 0.0
H1017 H 0.7567 0.13462 0.92821 0.0
H1018 H 0.78195 0.08656 0.89485 0.0
H1019 H 0.81575 0.09889 0.9026 0.0
C1020 C 0.72188 0.0761 0.90189 0.0
C1021 C 0.70791 0.08926 0.89386 0.0
C1022 C 0.74103 0.08276 0.90746 0.0
C1023 C 0.74645 0.10274 0.90536 0.0
C1024 C 0.73248 0.11596 0.8975 0.0
C1025 C 0.71341 0.10925 0.89168 0.0
C1026 C 0.78885 0.13368 0.92724 0.0
C1027 C 0.80573 0.1239 0.91991 0.0
C1028 C 0.76953 0.12672 0.92263 0.0
C1029 C 0.76682 0.10972 0.91089 0.0
C1030 C 0.78369 0.09964 0.90403 0.0
C1031 C 0.80299 0.10674 0.90841 0.0
H1032 H 0.10902 0.46949 0.11996 0.0
H1033 H 0.16945 0.48603 0.13779 0.0
H1034 H 0.10087 0.50438 0.11626 0.0
H1035 H 0.16122 0.52069 0.13464 0.0
H1036 H 0.14759 0.58072 0.1119 0.0
H1037 H 0.1539 0.54535 0.11015 0.0
H1038 H 0.09602 0.53329 0.13648 0.0
H1039 H 0.08945 0.56842 0.13765 0.0
C1040 C 0.12048 0.48058 0.12325 0.0
C1041 C 0.13985 0.47507 0.12915 0.0
C1042 C 0.11583 0.50053 0.12112 0.0
C1043 C 0.13047 0.5153 0.12495 0.0
C1044 C 0.14974 0.5097 0.1311 0.0
C1045 C 0.15439 0.48982 0.13312 0.0
C1046 C 0.13609 0.5705 0.117 0.0
C1047 C 0.11814 0.57741 0.12513 0.0
C1048 C 0.13975 0.55025 0.11614 0.0
C1049 C 0.12557 0.53654 0.12345 0.0
C1050 C 0.10721 0.54343 0.13061 0.0
C1051 C 0.10351 0.56362 0.13139 0.0
H1052 H 0.67453 0.89276 0.39091 0.0
H1053 H 0.69208 0.8359 0.41353 0.0
H1054 H 0.70982 0.90204 0.38695 0.0
H1055 H 0.72742 0.84526 0.40955 0.0
H1056 H 0.7859 0.86307 0.37563 0.0
H1057 H 0.75092 0.85292 0.38078 0.0
H1058 H 0.7395 0.90865 0.40958 0.0
H1059 H 0.77427 0.91887 0.40448 0.0
C1060 C 0.68592 0.88228 0.39508 0.0
C1061 C 0.68059 0.86362 0.40253 0.0
C1062 C 0.70609 0.88762 0.39288 0.0
C1063 C 0.72127 0.87435 0.39796 0.0
C1064 C 0.71596 0.85568 0.40539 0.0
C1065 C 0.69577 0.85039 0.40777 0.0
C1066 C 0.77594 0.87311 0.38312 0.0
C1067 C 0.78283 0.89179 0.38958 0.0
C1068 C 0.75599 0.86726 0.38614 0.0
C1069 C 0.74258 0.88007 0.39549 0.0
C1070 C 0.74951 0.89861 0.40213 0.0
C1071 C 0.76945 0.90439 0.39929 0.0
H1072 H 0.83573 0.89581 0.12312 0.0
H1073 H 0.89431 0.91907 0.13982 0.0
H1074 H 0.82325 0.92938 0.12049 0.0
H1075 H 0.8817 0.95251 0.13762 0.0
H1076 H 0.85624 0.01109 0.11692 0.0
H1077 H 0.86913 0.97756 0.11504 0.0
H1078 H 0.8157 0.95549 0.144 0.0
H1079 H 0.80266 0.98875 0.14555 0.0
C1080 C 0.84597 0.90805 0.12613 0.0
C1081 C 0.86597 0.90474 0.13184 0.0
C1082 C 0.83879 0.92728 0.12473 0.0
C1083 C 0.85145 0.94358 0.12901 0.0
C1084 C 0.87162 0.94028 0.13405 0.0
C1085 C 0.8788 0.92108 0.13543 0.0
C1086 C 0.84724 -0.00093 0.12285 0.0
C1087 C 0.82844 0.00262 0.13142 0.0
C1088 C 0.85465 0.97988 0.12181 0.0
C1089 C 0.84339 0.96388 0.1293 0.0
C1090 C 0.82458 0.96744 0.13778 0.0
C1091 C 0.81719 0.98657 0.13882 0.0
H1092 H 0.17731 0.65416 0.59426 0.0
H1093 H 0.15551 0.59538 0.58002 0.0
H1094 H 0.21122 0.64172 0.59792 0.0
H1095 H 0.18956 0.58302 0.58245 0.0
H1096 H 0.24831 0.56286 0.60885 0.0
H1097 H 0.21459 0.57538 0.6049 0.0
H1098 H 0.23911 0.62987 0.58127 0.0
H1099 H 0.27302 0.61761 0.58646 0.0
C1100 C 0.17984 0.63858 0.59172 0.0
C1101 C 0.16379 0.6257 0.58698 0.0
C1102 C 0.19932 0.63145 0.59364 0.0
C1103 C 0.20326 0.61133 0.59045 0.0
C1104 C 0.18713 0.59852 0.58544 0.0
C1105 C 0.16758 0.60559 0.58395 0.0
C1106 C 0.24647 0.57749 0.60275 0.0
C1107 C 0.26325 0.5893 0.59798 0.0
C1108 C 0.22709 0.58466 0.60034 0.0
C1109 C 0.22399 0.60367 0.5927 0.0
C1110 C 0.24086 0.61532 0.58756 0.0
C1111 C 0.26031 0.60827 0.59036 0.0
H1112 H 0.13489 0.42666 0.36886 0.0
H1113 H 0.08326 0.4449 0.33479 0.0
H1114 H 0.14666 0.46086 0.37084 0.0
H1115 H 0.09517 0.47923 0.3368 0.0
H1116 H 0.11653 0.54031 0.36324 0.0
H1117 H 0.1023 0.50676 0.36241 0.0
H1118 H 0.15984 0.48423 0.3447 0.0
H1119 H 0.17407 0.51749 0.34549 0.0
C1120 C 0.12597 0.43799 0.36193 0.0
C1121 C 0.10825 0.43311 0.35153 0.0
C1122 C 0.13276 0.45753 0.36299 0.0
C1123 C 0.1219 0.47258 0.3538 0.0
C1124 C 0.10376 0.46786 0.34405 0.0
C1125 C 0.09703 0.44825 0.34284 0.0
C1126 C 0.1261 0.5282 0.35908 0.0
C1127 C 0.14645 0.53155 0.35451 0.0
C1128 C 0.11794 0.50905 0.35857 0.0
C1129 C 0.13006 0.49297 0.35369 0.0
C1130 C 0.15027 0.49637 0.34881 0.0
C1131 C 0.15836 0.51545 0.34914 0.0
H1132 H 0.3657 0.55361 0.86469 0.0
H1133 H 0.42093 0.55299 0.83135 0.0
H1134 H 0.36453 0.51765 0.86407 0.0
H1135 H 0.4197 0.51676 0.83092 0.0
H1136 H 0.41111 0.44991 0.85825 0.0
H1137 H 0.41834 0.48565 0.8574 0.0
H1138 H 0.35981 0.49539 0.83173 0.0
H1139 H 0.35263 0.46012 0.8324 0.0
C1140 C 0.37773 0.54581 0.85748 0.0
C1141 C 0.39326 0.55609 0.84785 0.0
C1142 C 0.37702 0.52526 0.85708 0.0
C1143 C 0.3919 0.51462 0.84722 0.0
C1144 C 0.40808 0.52476 0.83857 0.0
C1145 C 0.40871 0.54541 0.83878 0.0
C1146 C 0.40006 0.45969 0.85198 0.0
C1147 C 0.38119 0.45236 0.84571 0.0
C1148 C 0.40417 0.48004 0.85155 0.0
C1149 C 0.38941 0.4931 0.84492 0.0
C1150 C 0.37123 0.48557 0.83728 0.0
C1151 C 0.36718 0.4654 0.83762 0.0
H1152 H 0.84856 0.64518 0.60321 0.0
H1153 H 0.84908 0.68125 0.65605 0.0
H1154 H 0.83242 0.67175 0.58504 0.0
H1155 H 0.83365 0.70779 0.63801 0.0
H1156 H 0.81562 0.75782 0.60637 0.0
H1157 H 0.80955 0.72459 0.61894 0.0
H1158 H 0.84875 0.70123 0.57406 0.0
H1159 H 0.85397 0.7342 0.56107 0.0
C1160 C 0.84466 0.65853 0.6111 0.0
C1161 C 0.85059 0.6614 0.6309 0.0
C1162 C 0.83551 0.6738 0.60066 0.0
C1163 C 0.83219 0.69213 0.60987 0.0
C1164 C 0.83589 0.69394 0.63032 0.0
C1165 C 0.84497 0.67873 0.64071 0.0
C1166 C 0.82229 0.74545 0.59876 0.0
C1167 C 0.83575 0.74859 0.58314 0.0
C1168 C 0.81888 0.72642 0.60599 0.0
C1169 C 0.82922 0.7103 0.59799 0.0
C1170 C 0.84054 0.71322 0.5807 0.0
C1171 C 0.84368 0.73222 0.57327 0.0
H1172 H 0.9479 0.14243 0.33768 0.0
H1173 H 0.95088 0.1335 0.4009 0.0
H1174 H 0.98347 0.1519 0.33763 0.0
H1175 H 0.98635 0.14298 0.40076 0.0
H1176 H 0.04464 0.17757 0.39611 0.0
H1177 H 0.00835 0.17294 0.39379 0.0
H1178 H 0.01582 0.133 0.34452 0.0
H1179 H 0.0523 0.13758 0.34679 0.0
C1180 C 0.95607 0.14271 0.35159 0.0
C1181 C 0.94662 0.13716 0.3693 0.0
C1182 C 0.97642 0.14801 0.35151 0.0
C1183 C 0.98758 0.14812 0.36917 0.0
C1184 C 0.978 0.14318 0.38696 0.0
C1185 C 0.95774 0.13766 0.38702 0.0
C1186 C 0.03857 0.16795 0.38463 0.0
C1187 C 0.05131 0.15777 0.37173 0.0
C1188 C 0.01781 0.16528 0.38337 0.0
C1189 C 0.00937 0.15252 0.3691 0.0
C1190 C 0.022 0.14301 0.3556 0.0
C1191 C 0.04284 0.14557 0.35695 0.0
H1192 H 0.62962 0.2486 0.06337 0.0
H1193 H 0.6624 0.22579 0.1134 0.0
H1194 H 0.63452 0.28196 0.07597 0.0
H1195 H 0.66799 0.25932 0.12573 0.0
H1196 H 0.62931 0.3084 0.15608 0.0
H1197 H 0.64332 0.27912 0.14124 0.0
H1198 H 0.65286 0.31085 0.08668 0.0
H1199 H 0.63821 0.34018 0.10151 0.0
C1200 C 0.63854 0.25079 0.07667 0.0
C1201 C 0.64514 0.2346 0.08769 0.0
C1202 C 0.6415 0.26998 0.08387 0.0
C1203 C 0.65129 0.27331 0.10214 0.0
C1204 C 0.65995 0.25722 0.11189 0.0
C1205 C 0.65679 0.23802 0.10479 0.0
C1206 C 0.63497 0.30935 0.14113 0.0
C1207 C 0.63211 0.32639 0.12978 0.0
C1208 C 0.64319 0.29254 0.1326 0.0
C1209 C 0.6488 0.29248 0.11257 0.0
C1210 C 0.64823 0.3103 0.102 0.0
C1211 C 0.63993 0.32713 0.11053 0.0
H1212 H 0.42875 0.80148 0.86901 0.0
H1213 H 0.41081 0.8615 0.85779 0.0
H1214 H 0.46362 0.81062 0.86185 0.0
H1215 H 0.4458 0.87067 0.85097 0.0
H1216 H 0.51237 0.88008 0.87402 0.0
H1217 H 0.47678 0.87097 0.87574 0.0
H1218 H 0.48571 0.8248 0.8326 0.0
H1219 H 0.52133 0.83406 0.83058 0.0
C1220 C 0.43224 0.81654 0.86471 0.0
C1221 C 0.41716 0.83081 0.86402 0.0
C1222 C 0.45213 0.82173 0.86058 0.0
C1223 C 0.45729 0.84135 0.85603 0.0
C1224 C 0.44212 0.85547 0.85459 0.0
C1225 C 0.42215 0.85019 0.85836 0.0
C1226 C 0.50675 0.868 0.86489 0.0
C1227 C 0.51962 0.85775 0.8522 0.0
C1228 C 0.48639 0.86292 0.86575 0.0
C1229 C 0.4786 0.8473 0.85419 0.0
C1230 C 0.49143 0.83693 0.84161 0.0
C1231 C 0.51175 0.84224 0.84047 0.0
H1232 H 0.87575 0.219 0.92841 0.0
H1233 H 0.82874 0.21557 0.88406 0.0
H1234 H 0.88145 0.25373 0.92042 0.0
H1235 H 0.83457 0.2502 0.87609 0.0
H1236 H 0.84951 0.31435 0.8651 0.0
H1237 H 0.83719 0.28709 0.886 0.0
H1238 H 0.89694 0.26304 0.88749 0.0
H1239 H 0.90893 0.28972 0.86656 0.0
C1240 C 0.86623 0.22576 0.91739 0.0
C1241 C 0.85218 0.21441 0.90648 0.0
C1242 C 0.86949 0.24566 0.91285 0.0
C1243 C 0.85864 0.25453 0.89746 0.0
C1244 C 0.8431 0.24376 0.88807 0.0
C1245 C 0.83993 0.22385 0.89251 0.0
C1246 C 0.85997 0.30341 0.87034 0.0
C1247 C 0.88005 0.30385 0.86411 0.0
C1248 C 0.85297 0.28789 0.88223 0.0
C1249 C 0.86615 0.27304 0.88841 0.0
C1250 C 0.8865 0.27441 0.88323 0.0
C1251 C 0.89333 0.28954 0.87106 0.0
H1252 H 0.41361 0.09109 0.65839 0.0
H1253 H 0.4271 0.10542 0.59763 0.0
H1254 H 0.44933 0.08705 0.66513 0.0
H1255 H 0.46261 0.10212 0.6045 0.0
H1256 H 0.51006 0.12123 0.67445 0.0
H1257 H 0.4752 0.11163 0.66874 0.0
H1258 H 0.49155 0.08407 0.61344 0.0
H1259 H 0.52641 0.09441 0.61887 0.0
C1260 C 0.42414 0.09299 0.64638 0.0
C1261 C 0.41756 0.09901 0.62759 0.0
C1262 C 0.44462 0.0908 0.65027 0.0
C1263 C 0.45888 0.0947 0.63549 0.0
C1264 C 0.4521 0.09891 0.61625 0.0
C1265 C 0.43166 0.10095 0.61233 0.0
C1266 C 0.50626 0.11287 0.66122 0.0
C1267 C 0.52086 0.10891 0.64693 0.0
C1268 C 0.48627 0.10716 0.65802 0.0
C1269 C 0.48051 0.0972 0.64053 0.0
C1270 C 0.49542 0.09205 0.62688 0.0
C1271 C 0.51538 0.09795 0.63 0.0
H1272 H 0.63223 0.79166 0.34136 0.0
H1273 H 0.60116 0.77879 0.39589 0.0
H1274 H 0.62553 0.75808 0.3299 0.0
H1275 H 0.59423 0.74522 0.38421 0.0
H1276 H 0.60122 0.6812 0.36318 0.0
H1277 H 0.61099 0.71386 0.37567 0.0
H1278 H 0.59537 0.7394 0.31932 0.0
H1279 H 0.58588 0.70687 0.30672 0.0
C1280 C 0.62402 0.78167 0.35094 0.0
C1281 C 0.61711 0.78796 0.3695 0.0
C1282 C 0.62012 0.76245 0.34432 0.0
C1283 C 0.60924 0.74909 0.3561 0.0
C1284 C 0.60279 0.75517 0.37488 0.0
C1285 C 0.60667 0.77443 0.38151 0.0
C1286 C 0.59997 0.69377 0.35342 0.0
C1287 C 0.59275 0.69143 0.33395 0.0
C1288 C 0.60547 0.71247 0.36062 0.0
C1289 C 0.60396 0.72915 0.34846 0.0
C1290 C 0.59695 0.72677 0.32895 0.0
C1291 C 0.59139 0.70813 0.32178 0.0
H1292 H 0.08274 0.8895 0.15412 0.0
H1293 H 0.06225 0.88413 0.09353 0.0
H1294 H 0.04841 0.89619 0.16449 0.0
H1295 H 0.02819 0.89004 0.10385 0.0
H1296 H 0.98464 0.86719 0.1737 0.0
H1297 H 0.01979 0.87481 0.16745 0.0
H1298 H 0.00275 0.91004 0.11705 0.0
H1299 H 0.96755 0.90162 0.12285 0.0
C1300 C 0.07101 0.89009 0.14298 0.0
C1301 C 0.07515 0.88589 0.12306 0.0
C1302 C 0.05132 0.89382 0.14893 0.0
C1303 C 0.03546 0.89338 0.13507 0.0
C1304 C 0.03997 0.89071 0.11496 0.0
C1305 C 0.05957 0.88709 0.10903 0.0
C1306 C 0.98837 0.87691 0.16153 0.0
C1307 C 0.97343 0.88343 0.14848 0.0
C1308 C 0.00856 0.88143 0.15803 0.0
C1309 C 0.01416 0.89277 0.14151 0.0
C1310 C -0.00101 0.90086 0.1296 0.0
C1311 C 0.97882 0.89609 0.13295 0.0
H1312 H 0.617 0.86957 0.66035 0.0
H1313 H 0.66798 0.89581 0.69104 0.0
H1314 H 0.60478 0.856 0.69149 0.0
H1315 H 0.65554 0.88284 0.7221 0.0
H1316 H 0.63489 0.85253 0.77569 0.0
H1317 H 0.6484 0.85482 0.74236 0.0
H1318 H 0.58966 0.87034 0.72023 0.0
H1319 H 0.57607 0.86737 0.7534 0.0
C1320 C 0.62571 0.87226 0.6737 0.0
C1321 C 0.64333 0.88393 0.6733 0.0
C1322 C 0.61866 0.86455 0.69155 0.0
C1323 C 0.62909 0.86844 0.70932 0.0
C1324 C 0.64725 0.8793 0.70869 0.0
C1325 C 0.65432 0.8869 0.69087 0.0
C1326 C 0.6248 0.85603 0.76362 0.0
C1327 C 0.6045 0.86007 0.76716 0.0
C1328 C 0.63255 0.85743 0.74455 0.0
C1329 C 0.6202 0.86309 0.72868 0.0
C1330 C 0.59959 0.8658 0.73206 0.0
C1331 C 0.59179 0.86421 0.75111 0.0
H1332 H 0.8862 0.8128 0.50913 0.0
H1333 H 0.88786 0.87315 0.52997 0.0
H1334 H 0.88821 0.82433 0.47509 0.0
H1335 H 0.88828 0.88483 0.4962 0.0
H1336 H 0.89498 0.90463 0.43514 0.0
H1337 H 0.90398 0.88986 0.4667 0.0
H1338 H 0.86812 0.83801 0.45148 0.0
H1339 H 0.86066 0.85222 0.4195 0.0
C1340 C 0.88693 0.82854 0.50636 0.0
C1341 C 0.88677 0.8421 0.52209 0.0
C1342 C 0.88796 0.8352 0.48686 0.0
C1343 C 0.88825 0.85558 0.48269 0.0
C1344 C 0.88855 0.86905 0.49862 0.0
C1345 C 0.88809 0.86238 0.51808 0.0
C1346 C 0.88952 0.88986 0.43846 0.0
C1347 C 0.87704 0.8796 0.42503 0.0
C1348 C 0.89445 0.88144 0.45662 0.0
C1349 C 0.88641 0.86287 0.462 0.0
C1350 C 0.87485 0.8522 0.44796 0.0
C1351 C 0.87044 0.86039 0.42958 0.0
H1352 H 0.80381 0.07614 0.20691 0.0
H1353 H 0.85416 0.10559 0.17899 0.0
H1354 H 0.81528 0.08824 0.23893 0.0
H1355 H 0.86526 0.1184 0.21105 0.0
H1356 H 0.89212 0.11339 0.27411 0.0
H1357 H 0.88019 0.10667 0.24065 0.0
H1358 H 0.81913 0.11652 0.25939 0.0
H1359 H 0.83106 0.12237 0.29306 0.0
C1360 C 0.81719 0.08543 0.20758 0.0
C1361 C 0.82815 0.0898 0.19044 0.0
C1362 C 0.82369 0.09253 0.22595 0.0
C1363 C 0.84117 0.10438 0.22759 0.0
C1364 C 0.85189 0.1091 0.21036 0.0
C1365 C 0.8455 0.1018 0.19198 0.0
C1366 C 0.87618 0.1144 0.271 0.0
C1367 C 0.86248 0.11816 0.28621 0.0
C1368 C 0.86933 0.11063 0.25178 0.0
C1369 C 0.84865 0.1108 0.24736 0.0
C1370 C 0.8351 0.11578 0.26239 0.0
C1371 C 0.84193 0.11928 0.28165 0.0
H1372 H 0.597 0.07551 0.93393 0.0
H1373 H 0.62911 0.12918 0.91888 0.0
H1374 H 0.58759 0.09002 0.96552 0.0
H1375 H 0.62115 0.14318 0.95084 0.0
H1376 H 0.60155 0.16783 0.00839 0.0
H1377 H 0.60015 0.15606 0.97426 0.0
H1378 H 0.60377 0.0958 -0.00493 0.0
H1379 H 0.60369 0.1076 0.0289 0.0
C1380 C 0.60188 0.09048 0.93736 0.0
C1381 C 0.6139 0.10117 0.9241 0.0
C1382 C 0.5967 0.09876 0.95554 0.0
C1383 C 0.60398 0.11765 0.96106 0.0
C1384 C 0.61503 0.12872 0.94718 0.0
C1385 C 0.61972 0.12064 0.92881 0.0
C1386 C 0.6018 0.15207 0.00554 0.0
C1387 C 0.60283 0.13862 0.0212 0.0
C1388 C 0.60109 0.14529 0.986 0.0
C1389 C 0.60195 0.12493 0.98174 0.0
C1390 C 0.60259 0.11154 -0.00241 0.0
C1391 C 0.60278 0.1183 0.01707 0.0
H1392 H 0.66918 0.11934 0.79882 0.0
H1393 H 0.61271 0.14286 0.81864 0.0
H1394 H 0.66236 0.1312 0.76562 0.0
H1395 H 0.60608 0.15511 0.78541 0.0
H1396 H 0.58814 0.13602 0.72127 0.0
H1397 H 0.59709 0.13552 0.75609 0.0
H1398 H 0.65638 0.15822 0.74238 0.0
H1399 H 0.64753 0.15844 0.7073 0.0
C1400 C 0.65559 0.12756 0.79622 0.0
C1401 C 0.64129 0.12982 0.81122 0.0
C1402 C 0.65173 0.13447 0.77719 0.0
C1403 C 0.63351 0.14378 0.77284 0.0
C1404 C 0.62007 0.14763 0.78828 0.0
C1405 C 0.62392 0.14071 0.80732 0.0
C1406 C 0.60303 0.14111 0.72564 0.0
C1407 C 0.6172 0.14701 0.71147 0.0
C1408 C 0.60809 0.14104 0.74566 0.0
C1409 C 0.62745 0.14686 0.75198 0.0
C1410 C 0.6414 0.15352 0.73791 0.0
C1411 C 0.63631 0.15365 0.71784 0.0
H1412 H 0.61865 0.83406 0.47966 0.0
H1413 H 0.58661 0.88601 0.46149 0.0
H1414 H 0.62249 0.84785 0.51281 0.0
H1415 H 0.5899 0.89956 0.4948 0.0
H1416 H 0.6362 0.92915 0.53755 0.0
H1417 H 0.62057 0.91296 0.50925 0.0
H1418 H 0.60963 0.86062 0.54414 0.0
H1419 H 0.6257 0.8768 0.57262 0.0
C1420 C 0.61177 0.84808 0.48295 0.0
C1421 C 0.60275 0.85919 0.46792 0.0
C1422 C 0.61391 0.85598 0.50199 0.0
C1423 C 0.60692 0.87502 0.50627 0.0
C1424 C 0.59591 0.88508 0.49178 0.0
C1425 C 0.59393 0.87728 0.47274 0.0
C1426 C 0.63028 0.91427 0.53932 0.0
C1427 C 0.63244 0.90419 0.55727 0.0
C1428 C 0.62108 0.90504 0.52311 0.0
C1429 C 0.6138 0.88549 0.52445 0.0
C1430 C 0.61521 0.87564 0.54264 0.0
C1431 C 0.62439 0.88493 0.55893 0.0
H1432 H 0.88453 0.84405 0.3167 0.0
H1433 H 0.82623 0.86347 0.29693 0.0
H1434 H 0.89195 0.83281 0.28325 0.0
H1435 H 0.83379 0.85259 0.26351 0.0
H1436 H 0.9077 0.85244 0.21905 0.0
H1437 H 0.89918 0.85271 0.2539 0.0
H1438 H 0.84142 0.82585 0.24025 0.0
H1439 H 0.8498 0.82584 0.20517 0.0
C1440 C 0.87313 0.84553 0.30532 0.0
C1441 C 0.85492 0.85493 0.30936 0.0
C1442 C 0.87744 0.8392 0.28615 0.0
C1443 C 0.86359 0.84211 0.2707 0.0
C1444 C 0.84474 0.85004 0.2751 0.0
C1445 C 0.84045 0.85639 0.29425 0.0
C1446 C 0.89326 0.84638 0.22345 0.0
C1447 C 0.87933 0.83936 0.20928 0.0
C1448 C 0.88845 0.84634 0.24348 0.0
C1449 C 0.8696 0.83931 0.24982 0.0
C1450 C 0.85598 0.83152 0.23577 0.0
C1451 C 0.86082 0.8315 0.21569 0.0
H1452 H 0.89535 0.1573 -0.00339 0.0
H1453 H 0.88089 0.09825 0.97619 0.0
H1454 H 0.89839 0.14511 0.03036 0.0
H1455 H 0.88228 0.0863 0.00965 0.0
H1456 H 0.88015 0.06529 0.06944 0.0
H1457 H 0.89548 0.07772 0.03923 0.0
H1458 H 0.87599 0.13666 0.05424 0.0
H1459 H 0.86247 0.12436 0.08499 0.0
C1460 C 0.89303 0.14168 -0.00065 0.0
C1461 C 0.88756 0.12878 0.98388 0.0
C1462 C 0.89459 0.13467 0.01871 0.0
C1463 C 0.89008 0.11474 0.02304 0.0
C1464 C 0.88611 0.10167 0.00718 0.0
C1465 C 0.8851 0.10858 0.98784 0.0
C1466 C 0.87979 0.08099 0.06645 0.0
C1467 C 0.8699 0.09384 0.0793 0.0
C1468 C 0.88837 0.08814 0.04904 0.0
C1469 C 0.88645 0.10815 0.04377 0.0
C1470 C 0.87799 0.1212 0.0576 0.0
C1471 C 0.87004 0.11413 0.07529 0.0
H1472 H 0.76946 0.62802 0.86857 0.0
H1473 H 0.75894 0.56656 0.85391 0.0
H1474 H 0.73403 0.63448 0.86409 0.0
H1475 H 0.72337 0.57316 0.84845 0.0
H1476 H 0.65919 0.58859 0.87024 0.0
H1477 H 0.69447 0.58003 0.86714 0.0
H1478 H 0.70717 0.6375 0.84203 0.0
H1479 H 0.67214 0.64634 0.84626 0.0
C1480 C 0.7596 0.61595 0.86401 0.0
C1481 C 0.76695 0.59677 0.86173 0.0
C1482 C 0.73924 0.61967 0.86124 0.0
C1483 C 0.72574 0.60435 0.85582 0.0
C1484 C 0.73325 0.58525 0.85289 0.0
C1485 C 0.75365 0.58148 0.85592 0.0
C1486 C 0.6695 0.59921 0.8637 0.0
C1487 C 0.66307 0.61821 0.85876 0.0
C1488 C 0.68973 0.5943 0.86185 0.0
C1489 C 0.70381 0.60822 0.85469 0.0
C1490 C 0.69691 0.62664 0.8482 0.0
C1491 C 0.67681 0.63166 0.85044 0.0
H1492 H 0.28864 0.83974 0.0998 0.0
H1493 H 0.28798 0.9028 0.08992 0.0
H1494 H 0.25269 0.83784 0.09316 0.0
H1495 H 0.25197 0.90079 0.08305 0.0
H1496 H 0.18472 0.89025 0.09986 0.0
H1497 H 0.22121 0.89366 0.10279 0.0
H1498 H 0.22825 0.842 0.06589 0.0
H1499 H 0.19188 0.83844 0.06312 0.0
C1500 C 0.28088 0.85317 0.09603 0.0
C1501 C 0.29116 0.87143 0.09547 0.0
C1502 C 0.2603 0.85206 0.09212 0.0
C1503 C 0.24955 0.86918 0.08763 0.0
C1504 C 0.25987 0.88739 0.08668 0.0
C1505 C 0.28049 0.8885 0.0905 0.0
C1506 C 0.19408 0.87973 0.09226 0.0
C1507 C 0.18546 0.864 0.0814 0.0
C1508 C 0.21494 0.88174 0.09385 0.0
C1509 C 0.22753 0.86802 0.08465 0.0
C1510 C 0.21889 0.85262 0.07335 0.0
C1511 C 0.19807 0.85065 0.07172 0.0
H1512 H 0.89026 0.52239 0.88511 0.0
H1513 H 0.83066 0.51737 0.85953 0.0
H1514 H 0.89607 0.48784 0.87732 0.0
H1515 H 0.83669 0.48278 0.85151 0.0
H1516 H 0.84963 0.41603 0.8572 0.0
H1517 H 0.84233 0.44999 0.86708 0.0
H1518 H 0.90091 0.46886 0.84671 0.0
H1519 H 0.90828 0.4351 0.83711 0.0
C1520 C 0.87836 0.51392 0.87787 0.0
C1521 C 0.86004 0.5227 0.87282 0.0
C1522 C 0.88175 0.49414 0.87333 0.0
C1523 C 0.86689 0.48266 0.86367 0.0
C1524 C 0.84836 0.49124 0.85908 0.0
C1525 C 0.84497 0.51108 0.86358 0.0
C1526 C 0.86092 0.42746 0.85487 0.0
C1527 C 0.87954 0.4229 0.84642 0.0
C1528 C 0.85671 0.44688 0.86044 0.0
C1529 C 0.8711 0.46204 0.85776 0.0
C1530 C 0.88965 0.45744 0.84925 0.0
C1531 C 0.89382 0.43811 0.84363 0.0
H1532 H 0.19337 0.14147 0.59499 0.0
H1533 H 0.19884 0.08125 0.61465 0.0
H1534 H 0.22977 0.14498 0.59417 0.0
H1535 H 0.23525 0.08505 0.61552 0.0
H1536 H 0.3009 0.09207 0.5991 0.0
H1537 H 0.26455 0.0875 0.59819 0.0
H1538 H 0.25748 0.14912 0.61383 0.0
H1539 H 0.29374 0.15379 0.61301 0.0
C1540 C 0.20248 0.12904 0.59927 0.0
C1541 C 0.19346 0.1111 0.60482 0.0
C1542 C 0.22335 0.13107 0.59905 0.0
C1543 C 0.23564 0.11539 0.60504 0.0
C1544 C 0.22643 0.09737 0.61047 0.0
C1545 C 0.20555 0.09517 0.61008 0.0
C1546 C 0.29145 0.10454 0.60241 0.0
C1547 C 0.29995 0.12327 0.60606 0.0
C1548 C 0.27061 0.10195 0.60199 0.0
C1549 C 0.25788 0.11796 0.6058 0.0
C1550 C 0.26663 0.13655 0.6102 0.0
C1551 C 0.28743 0.13923 0.60999 0.0
H1552 H 0.09671 0.97835 0.87688 0.0
H1553 H 0.15941 0.99114 0.88867 0.0
H1554 H 0.08926 0.01303 0.87941 0.0
H1555 H 0.15183 0.02614 0.89244 0.0
H1556 H 0.1348 0.0843 0.86017 0.0
H1557 H 0.14463 0.05178 0.87114 0.0
H1558 H 0.08553 0.04238 0.89606 0.0
H1559 H 0.07537 0.07447 0.88361 0.0
C1560 C 0.10885 0.98858 0.88056 0.0
C1561 C 0.12869 0.98208 0.88222 0.0
C1562 C 0.10455 0.00858 0.88226 0.0
C1563 C 0.11995 0.02262 0.88602 0.0
C1564 C 0.13964 0.01587 0.88909 0.0
C1565 C 0.144 -0.00419 0.88703 0.0
C1566 C 0.1241 0.07547 0.86846 0.0
C1567 C 0.10422 0.08164 0.87069 0.0
C1568 C 0.12975 0.05677 0.87488 0.0
C1569 C 0.11571 0.04408 0.88403 0.0
C1570 C 0.09653 0.0514 0.88838 0.0
C1571 C 0.09073 0.06986 0.88146 0.0
H1572 H 0.82083 0.39987 0.35459 0.0
H1573 H 0.80299 0.33857 0.36106 0.0
H1574 H 0.7857 0.40854 0.34918 0.0
H1575 H 0.76817 0.34726 0.35623 0.0
H1576 H 0.70745 0.36535 0.33611 0.0
H1577 H 0.74323 0.35897 0.33359 0.0
H1578 H 0.75628 0.41004 0.3703 0.0
H1579 H 0.72052 0.41677 0.37235 0.0
C1580 C 0.80949 0.38823 0.35459 0.0
C1581 C 0.81468 0.36857 0.35845 0.0
C1582 C 0.78937 0.39321 0.35164 0.0
C1583 C 0.77413 0.37861 0.35243 0.0
C1584 C 0.77951 0.35885 0.3553 0.0
C1585 C 0.79952 0.35389 0.35824 0.0
C1586 C 0.71795 0.37529 0.34354 0.0
C1587 C 0.71112 0.39144 0.35463 0.0
C1588 C 0.73846 0.37162 0.34211 0.0
C1589 C 0.7526 0.38392 0.35184 0.0
C1590 C 0.7458 0.40042 0.36241 0.0
C1591 C 0.72528 0.40417 0.36374 0.0
H1592 H 0.92341 0.45826 0.61392 0.0
H1593 H 0.8628 0.46247 0.63605 0.0
H1594 H 0.92959 0.49282 0.62248 0.0
H1595 H 0.86916 0.49688 0.64496 0.0
H1596 H 0.88022 0.56303 0.63657 0.0
H1597 H 0.87448 0.52836 0.62843 0.0
H1598 H 0.9334 0.51454 0.65119 0.0
H1599 H 0.93937 0.54932 0.65899 0.0
C1600 C 0.91145 0.4665 0.62073 0.0
C1601 C 0.89259 0.45762 0.62423 0.0
C1602 C 0.91503 0.48628 0.62572 0.0
C1603 C 0.89984 0.49758 0.63434 0.0
C1604 C 0.88107 0.48864 0.63806 0.0
C1605 C 0.87747 0.46888 0.63305 0.0
C1606 C 0.89198 0.55262 0.63985 0.0
C1607 C 0.91026 0.55896 0.64843 0.0
C1608 C 0.88863 0.53272 0.63528 0.0
C1609 C 0.90346 0.51871 0.63922 0.0
C1610 C 0.92177 0.52503 0.64777 0.0
C1611 C 0.92514 0.54495 0.65233 0.0
H1612 H 0.58105 0.53361 0.09146 0.0
H1613 H 0.64055 0.51437 0.10745 0.0
H1614 H 0.56867 0.4996 0.09308 0.0
H1615 H 0.6281 0.48054 0.10982 0.0
H1616 H 0.60415 0.41937 0.10561 0.0
H1617 H 0.61478 0.45178 0.09377 0.0
H1618 H 0.56176 0.47737 0.11944 0.0
H1619 H 0.55082 0.44493 0.13059 0.0
C1620 C 0.59151 0.52208 0.09517 0.0
C1621 C 0.61171 0.52664 0.09954 0.0
C1622 C 0.5844 0.50261 0.09619 0.0
C1623 C 0.59732 0.48735 0.10178 0.0
C1624 C 0.61776 0.49185 0.10522 0.0
C1625 C 0.6249 0.51129 0.10401 0.0
C1626 C 0.5946 0.43188 0.10841 0.0
C1627 C 0.57677 0.42965 0.11925 0.0
C1628 C 0.60074 0.45046 0.10171 0.0
C1629 C 0.58928 0.46723 0.10589 0.0
C1630 C 0.57088 0.46477 0.11576 0.0
C1631 C 0.56464 0.44616 0.12228 0.0
H1632 H 0.62146 0.72965 0.91284 0.0
H1633 H 0.6509 0.72292 0.85655 0.0
H1634 H 0.62242 0.76524 0.90912 0.0
H1635 H 0.65304 0.75874 0.85328 0.0
H1636 H 0.6234 0.82955 0.89917 0.0
H1637 H 0.63698 0.79695 0.90608 0.0
H1638 H 0.62755 0.7804 0.84482 0.0
H1639 H 0.61503 0.81285 0.83786 0.0
C1640 C 0.6288 0.73584 0.89998 0.0
C1641 C 0.63563 0.72358 0.88472 0.0
C1642 C 0.62951 0.75632 0.8979 0.0
C1643 C 0.63737 0.76491 0.88065 0.0
C1644 C 0.64627 0.7526 0.86645 0.0
C1645 C 0.64516 0.73209 0.86834 0.0
C1646 C 0.62462 0.81901 0.88716 0.0
C1647 C 0.61782 0.82367 0.86805 0.0
C1648 C 0.63235 0.80032 0.89111 0.0
C1649 C 0.63324 0.78592 0.87607 0.0
C1650 C 0.62747 0.79109 0.85677 0.0
C1651 C 0.61999 0.80973 0.8528 0.0
H1652 H 0.52237 0.32654 0.15865 0.0
H1653 H 0.53226 0.33866 0.09676 0.0
H1654 H 0.48909 0.3132 0.15083 0.0
H1655 H 0.49867 0.3257 0.08898 0.0
H1656 H 0.44036 0.29171 0.07976 0.0
H1657 H 0.47577 0.29673 0.08846 0.0
H1658 H 0.45846 0.32946 0.14048 0.0
H1659 H 0.42326 0.32421 0.13201 0.0
C1660 C 0.51748 0.32621 0.14335 0.0
C1661 C 0.52976 0.33391 0.12834 0.0
C1662 C 0.49841 0.31861 0.13889 0.0
C1663 C 0.49118 0.31865 0.11935 0.0
C1664 C 0.50389 0.32535 0.10417 0.0
C1665 C 0.52306 0.33288 0.10863 0.0
C1666 C 0.44416 0.29971 0.09321 0.0
C1667 C 0.42907 0.3077 0.10515 0.0
C1668 C 0.46441 0.30266 0.09811 0.0
C1669 C 0.46988 0.31354 0.11509 0.0
C1670 C 0.45474 0.32079 0.12743 0.0
C1671 C 0.43455 0.31789 0.12252 0.0
H1672 H 0.86081 0.16832 0.41514 0.0
H1673 H 0.83271 0.16431 0.35754 0.0
H1674 H 0.85172 0.20284 0.41745 0.0
H1675 H 0.82252 0.19863 0.36022 0.0
H1676 H 0.847 0.26275 0.35584 0.0
H1677 H 0.84218 0.22726 0.35647 0.0
H1678 H 0.83014 0.22999 0.41921 0.0
H1679 H 0.83593 0.26567 0.41864 0.0
C1680 C 0.85196 0.17463 0.40332 0.0
C1681 C 0.84785 0.16383 0.38598 0.0
C1682 C 0.84664 0.19446 0.40465 0.0
C1683 C 0.8368 0.20372 0.38878 0.0
C1684 C 0.83067 0.19216 0.37243 0.0
C1685 C 0.83636 0.17246 0.37094 0.0
C1686 C 0.84298 0.25584 0.36971 0.0
C1687 C 0.84221 0.26692 0.38724 0.0
C1688 C 0.84 0.23543 0.37007 0.0
C1689 C 0.83591 0.22564 0.38795 0.0
C1690 C 0.83366 0.23698 0.40525 0.0
C1691 C 0.8369 0.25742 0.40492 0.0
H1692 H 0.94942 0.64575 0.59974 0.0
H1693 H 0.96689 0.65827 0.66024 0.0
H1694 H 0.98345 0.6544 0.58894 0.0
H1695 H 0.0007 0.66688 0.64943 0.0
H1696 H 0.06356 0.65306 0.62398 0.0
H1697 H 0.02909 0.64737 0.635 0.0
H1698 H 0.00724 0.68406 0.58767 0.0
H1699 H 0.04166 0.68978 0.57662 0.0
C1700 C 0.96045 0.6505 0.61068 0.0
C1701 C 0.95554 0.65123 0.63082 0.0
C1702 C 0.97987 0.6555 0.6045 0.0
C1703 C -0.00532 0.66117 0.6184 0.0
C1704 C 0.98962 0.66232 0.63846 0.0
C1705 C 0.97023 0.65749 0.6446 0.0
C1706 C 0.05141 0.66003 0.61604 0.0
C1707 C 0.05529 0.67183 0.59944 0.0
C1708 C 0.03171 0.65683 0.62236 0.0
C1709 C 0.01555 0.66525 0.61212 0.0
C1710 C 0.01943 0.67725 0.59569 0.0
C1711 C 0.03913 0.68061 0.58947 0.0
H1712 H 0.61172 0.28868 0.58611 0.0
H1713 H 0.61986 0.29464 0.64935 0.0
H1714 H 0.60221 0.254 0.59028 0.0
H1715 H 0.61036 0.25995 0.65342 0.0
H1716 H 0.56869 0.20592 0.65432 0.0
H1717 H 0.57819 0.24019 0.64837 0.0
H1718 H 0.61798 0.22182 0.60181 0.0
H1719 H 0.60849 0.18726 0.60777 0.0
C1720 C 0.61153 0.2826 0.60089 0.0
C1721 C 0.61645 0.29443 0.61743 0.0
C1722 C 0.60619 0.26273 0.60323 0.0
C1723 C 0.60546 0.25438 0.62216 0.0
C1724 C 0.61058 0.26612 0.63867 0.0
C1725 C 0.61612 0.28594 0.63633 0.0
C1726 C 0.57936 0.20914 0.6427 0.0
C1727 C 0.58795 0.19388 0.63158 0.0
C1728 C 0.58488 0.22876 0.6394 0.0
C1729 C 0.59898 0.23359 0.62481 0.0
C1730 C 0.60704 0.21845 0.61315 0.0
C1731 C 0.60163 0.19871 0.61656 0.0
H1732 H 0.06681 0.38992 0.84688 0.0
H1733 H 0.05857 0.36054 0.90299 0.0
H1734 H 0.03039 0.3896 0.84181 0.0
H1735 H 0.02237 0.36006 0.89765 0.0
H1736 H 0.97413 0.32883 0.85424 0.0
H1737 H 0.00705 0.33827 0.86753 0.0
H1738 H -0.00612 0.39977 0.85812 0.0
H1739 H 0.9604 0.3903 0.84527 0.0
C1740 C 0.05726 0.38387 0.85834 0.0
C1741 C 0.0656 0.37486 0.87512 0.0
C1742 C 0.03644 0.38383 0.85549 0.0
C1743 C 0.02376 0.37465 0.86929 0.0
C1744 C 0.03195 0.36714 0.8868 0.0
C1745 C 0.05268 0.36738 0.88977 0.0
C1746 C 0.97812 0.34437 0.85536 0.0
C1747 C 0.96488 0.35885 0.84872 0.0
C1748 C -0.00315 0.34977 0.86306 0.0
C1749 C 0.00283 0.36972 0.86385 0.0
C1750 C 0.98944 0.38431 0.85769 0.0
C1751 C 0.9704 0.37891 0.85043 0.0
H1752 H 0.90586 0.69215 0.10331 0.0
H1753 H 0.85524 0.70631 0.14024 0.0
H1754 H 0.91603 0.72701 0.10303 0.0
H1755 H 0.86532 0.74118 0.13966 0.0
H1756 H 0.87843 0.80354 0.11612 0.0
H1757 H 0.86883 0.76871 0.11225 0.0
H1758 H 0.92817 0.7517 0.13106 0.0
H1759 H 0.93773 0.78648 0.13528 0.0
C1760 C 0.89688 0.70271 0.1113 0.0
C1761 C 0.87978 0.69653 0.12186 0.0
C1762 C 0.90272 0.72259 0.11114 0.0
C1763 C 0.89136 0.73668 0.1212 0.0
C1764 C 0.87418 0.73057 0.1316 0.0
C1765 C 0.86853 0.71063 0.13207 0.0
C1766 C 0.88952 0.79238 0.11911 0.0
C1767 C 0.90878 0.79766 0.12612 0.0
C1768 C 0.88398 0.7725 0.11702 0.0
C1769 C 0.89774 0.75764 0.12152 0.0
C1770 C 0.91734 0.76293 0.12746 0.0
C1771 C 0.92277 0.78279 0.12989 0.0
H1772 H 0.432 0.6319 0.40562 0.0
H1773 H 0.40137 0.62241 0.34971 0.0
H1774 H 0.46413 0.62811 0.38943 0.0
H1775 H 0.43369 0.61806 0.33357 0.0
H1776 H 0.51962 0.6096 0.35758 0.0
H1777 H 0.48653 0.6061 0.37252 0.0
H1778 H 0.46093 0.64061 0.32529 0.0
H1779 H 0.49378 0.64367 0.3101 0.0
C1780 C 0.4321 0.62865 0.38992 0.0
C1781 C 0.41413 0.62773 0.3789 0.0
C1782 C 0.45055 0.62632 0.38067 0.0
C1783 C 0.45146 0.62293 0.3602 0.0
C1784 C 0.43346 0.62099 0.34933 0.0
C1785 C 0.41496 0.62339 0.35859 0.0
C1786 C 0.5069 0.61633 0.35033 0.0
C1787 C 0.50935 0.62707 0.33276 0.0
C1788 C 0.48796 0.61434 0.35889 0.0
C1789 C 0.47113 0.62311 0.35011 0.0
C1790 C 0.47353 0.63341 0.33227 0.0
C1791 C 0.49242 0.63533 0.32366 0.0
H1792 H 0.90369 0.60819 0.82966 0.0
H1793 H 0.841 0.61811 0.81666 0.0
H1794 H 0.91226 0.6163 0.79593 0.0
H1795 H 0.8497 0.62724 0.78288 0.0
H1796 H 0.87114 0.61334 0.71905 0.0
H1797 H 0.86006 0.61177 0.75335 0.0
H1798 H 0.91542 0.64075 0.77206 0.0
H1799 H 0.92683 0.64112 0.73799 0.0
C1800 C 0.89176 0.61255 0.81969 0.0
C1801 C 0.87166 0.61238 0.82579 0.0
C1802 C 0.89669 0.61736 0.80031 0.0
C1803 C 0.88167 0.62247 0.7866 0.0
C1804 C 0.86161 0.62307 0.79293 0.0
C1805 C 0.85663 0.61795 0.81231 0.0
C1806 C 0.88076 0.61955 0.73054 0.0
C1807 C 0.89995 0.62701 0.72603 0.0
C1808 C 0.8744 0.61878 0.75019 0.0
C1809 C 0.887 0.62584 0.76557 0.0
C1810 C 0.90559 0.63461 0.76071 0.0
C1811 C 0.9121 0.63494 0.74119 0.0
H1812 H 0.60502 0.65416 0.0504 0.0
H1813 H 0.60664 0.59066 0.04353 0.0
H1814 H 0.60059 0.65755 0.01474 0.0
H1815 H 0.60263 0.59412 0.00799 0.0
H1816 H 0.62644 0.65525 0.95187 0.0
H1817 H 0.62421 0.65218 0.98752 0.0
H1818 H 0.58085 0.60448 0.98057 0.0
H1819 H 0.58327 0.60732 0.94466 0.0
C1820 C 0.60412 0.64093 0.04135 0.0
C1821 C 0.60648 0.62217 0.04974 0.0
C1822 C 0.60172 0.64288 0.02093 0.0
C1823 C 0.60158 0.62611 0.00858 0.0
C1824 C 0.60261 0.60731 0.01712 0.0
C1825 C 0.60503 0.60535 0.0375 0.0
C1826 C 0.61644 0.64406 0.95788 0.0
C1827 C 0.60509 0.63147 0.9454 0.0
C1828 C 0.61499 0.64247 0.97834 0.0
C1829 C 0.60217 0.62825 0.98683 0.0
C1830 C 0.59089 0.61555 0.97441 0.0
C1831 C 0.59231 0.61715 0.95387 0.0
H1832 H 0.61597 0.38404 0.20564 0.0
H1833 H 0.55607 0.39793 0.22528 0.0
H1834 H 0.62911 0.392 0.23857 0.0
H1835 H 0.56927 0.40598 0.258 0.0
H1836 H 0.59776 0.3956 0.31924 0.0
H1837 H 0.58469 0.388 0.28623 0.0
H1838 H 0.63333 0.42184 0.26042 0.0
H1839 H 0.6465 0.42937 0.29339 0.0
C1840 C 0.60563 0.38881 0.21693 0.0
C1841 C 0.58498 0.39033 0.21284 0.0
C1842 C 0.61316 0.39346 0.23574 0.0
C1843 C 0.60018 0.39957 0.25081 0.0
C1844 C 0.57957 0.40109 0.24671 0.0
C1845 C 0.57206 0.39658 0.22792 0.0
C1846 C 0.60561 0.40148 0.30652 0.0
C1847 C 0.62314 0.41307 0.30888 0.0
C1848 C 0.5981 0.39718 0.28765 0.0
C1849 C 0.60805 0.4043 0.2708 0.0
C1850 C 0.62551 0.41597 0.27316 0.0
C1851 C 0.63295 0.42038 0.29203 0.0
H1852 H 0.84378 0.40637 0.53974 0.0
H1853 H 0.89512 0.36938 0.55018 0.0
H1854 H 0.84516 0.39862 0.50445 0.0
H1855 H 0.89674 0.36213 0.5146 0.0
H1856 H 0.89977 0.38197 0.4449 0.0
H1857 H 0.89972 0.38979 0.48036 0.0
H1858 H 0.84292 0.359 0.48649 0.0
H1859 H 0.84311 0.35065 0.45123 0.0
C1860 C 0.85547 0.39675 0.53446 0.0
C1861 C 0.86935 0.38844 0.54764 0.0
C1862 C 0.85619 0.39231 0.51435 0.0
C1863 C 0.87105 0.37986 0.50705 0.0
C1864 C 0.88521 0.37183 0.52006 0.0
C1865 C 0.88423 0.37592 0.54031 0.0
C1866 C 0.88726 0.37692 0.45382 0.0
C1867 C 0.87142 0.36574 0.44538 0.0
C1868 C 0.88733 0.38128 0.47403 0.0
C1869 C 0.87135 0.3749 0.4859 0.0
C1870 C 0.85538 0.364 0.47747 0.0
C1871 C 0.85552 0.35925 0.45739 0.0
H1872 H 0.91481 0.33751 0.76429 0.0
H1873 H 0.85706 0.36574 0.76435 0.0
H1874 H 0.91398 0.33599 0.72832 0.0
H1875 H 0.85656 0.36508 0.72834 0.0
H1876 H 0.85531 0.35624 0.66363 0.0
H1877 H 0.8546 0.34699 0.69836 0.0
H1878 H 0.91841 0.35938 0.7029 0.0
H1879 H 0.91919 0.3678 0.668 0.0
C1880 C 0.90186 0.34328 0.75656 0.0
C1881 C 0.88609 0.35195 0.76704 0.0
C1882 C 0.90144 0.3425 0.73596 0.0
C1883 C 0.88536 0.35066 0.72538 0.0
C1884 C 0.86909 0.35844 0.73596 0.0
C1885 C 0.86939 0.35895 0.75662 0.0
C1886 C 0.86926 0.35657 0.67198 0.0
C1887 C 0.88728 0.36295 0.66319 0.0
C1888 C 0.86882 0.35141 0.69192 0.0
C1889 C 0.88636 0.35276 0.70355 0.0
C1890 C 0.90463 0.35797 0.69439 0.0
C1891 C 0.9051 0.36287 0.67437 0.0
H1892 H 0.8666 0.62039 0.93024 0.0
H1893 H 0.82237 0.57785 0.95054 0.0
H1894 H 0.87769 0.62605 0.96423 0.0
H1895 H 0.83311 0.58388 0.98458 0.0
H1896 H 0.86744 0.58579 0.0419 0.0
H1897 H 0.86119 0.57871 0.00699 0.0
H1898 H 0.86524 0.64111 -0.00589 0.0
H1899 H 0.87198 0.64813 0.02884 0.0
C1900 C 0.85917 0.61233 0.94198 0.0
C1901 C 0.84359 0.5987 0.93776 0.0
C1902 C 0.86551 0.6156 0.96145 0.0
C1903 C 0.85634 0.60536 0.97708 0.0
C1904 C 0.84073 0.59174 0.97282 0.0
C1905 C 0.83444 0.58842 0.95335 0.0
C1906 C 0.86734 0.59795 0.03155 0.0
C1907 C 0.87006 0.61752 0.03812 0.0
C1908 C 0.86359 0.59391 0.01159 0.0
C1909 C 0.86245 0.60937 -0.00216 0.0
C1910 C 0.86616 0.62885 0.0043 0.0
C1911 C 0.86996 0.63288 0.02423 0.0
H1912 H 0.5714 0.60301 0.26009 0.0
H1913 H 0.6334 0.61739 0.27409 0.0
H1914 H 0.5797 0.60067 0.22528 0.0
H1915 H 0.64169 0.61527 0.23891 0.0
H1916 H 0.59609 0.61898 0.16334 0.0
H1917 H 0.58994 0.62335 0.19862 0.0
H1918 H 0.64304 0.58994 0.21219 0.0
H1919 H 0.64938 0.58581 0.177 0.0
C1920 C 0.58683 0.60568 0.25572 0.0
C1921 C 0.60176 0.61046 0.26979 0.0
C1922 C 0.59153 0.6045 0.23575 0.0
C1923 C 0.61126 0.60805 0.22939 0.0
C1924 C 0.62634 0.61243 0.24346 0.0
C1925 C 0.62162 0.61365 0.26354 0.0
C1926 C 0.6065 0.6127 0.17386 0.0
C1927 C 0.62309 0.60192 0.16744 0.0
C1928 C 0.60295 0.61513 0.19402 0.0
C1929 C 0.61595 0.60685 0.2081 0.0
C1930 C 0.63287 0.5966 0.20167 0.0
C1931 C 0.6364 0.59413 0.18152 0.0
H1932 H 0.61054 0.395 0.52621 0.0
H1933 H 0.62772 0.33434 0.51725 0.0
H1934 H 0.61103 0.40027 0.49061 0.0
H1935 H 0.62897 0.33977 0.48172 0.0
H1936 H 0.61734 0.35258 0.41674 0.0
H1937 H 0.61076 0.34638 0.4517 0.0
H1938 H 0.63691 0.4034 0.46662 0.0
H1939 H 0.64285 0.40981 0.43194 0.0
C1940 C 0.61434 0.38278 0.51662 0.0
C1941 C 0.61928 0.36433 0.5245 0.0
C1942 C 0.61474 0.38581 0.49623 0.0
C1943 C 0.62032 0.37051 0.48332 0.0
C1944 C 0.62444 0.35182 0.4912 0.0
C1945 C 0.62385 0.34874 0.51158 0.0
C1946 C 0.62159 0.36379 0.42752 0.0
C1947 C 0.63062 0.38168 0.42156 0.0
C1948 C 0.61787 0.36023 0.44753 0.0
C1949 C 0.6232 0.37444 0.46195 0.0
C1950 C 0.63219 0.39231 0.45591 0.0
C1951 C 0.63577 0.39591 0.43598 0.0
H1952 H 0.71783 0.87825 0.61898 0.0
H1953 H 0.74417 0.92665 0.58606 0.0
H1954 H 0.75018 0.86164 0.619 0.0
H1955 H 0.77629 0.90999 0.58602 0.0
H1956 H 0.83525 0.88475 0.60732 0.0
H1957 H 0.80278 0.90062 0.61034 0.0
H1958 H 0.77276 0.84591 0.59398 0.0
H1959 H 0.8052 0.8299 0.59109 0.0
C1960 C 0.73048 0.88534 0.61175 0.0
C1961 C 0.72842 0.90377 0.60251 0.0
C1962 C 0.74896 0.87579 0.61172 0.0
C1963 C 0.76573 0.88459 0.6026 0.0
C1964 C 0.76367 0.903 0.59341 0.0
C1965 C 0.74522 0.91246 0.59331 0.0
C1966 C 0.82174 0.87604 0.60452 0.0
C1967 C 0.82282 0.85609 0.59882 0.0
C1968 C 0.80316 0.88517 0.60616 0.0
C1969 C 0.78529 0.87452 0.60226 0.0
C1970 C 0.78631 0.85442 0.5972 0.0
C1971 C 0.80489 0.84531 0.59543 0.0
H1972 H 0.2132 0.58475 0.40926 0.0
H1973 H 0.20817 0.64691 0.39612 0.0
H1974 H 0.24645 0.59074 0.42337 0.0
H1975 H 0.24176 0.65285 0.40998 0.0
H1976 H 0.29894 0.65803 0.44728 0.0
H1977 H 0.26324 0.65183 0.44047 0.0
H1978 H 0.27831 0.59945 0.40731 0.0
H1979 H 0.31374 0.60548 0.41424 0.0
C1980 C 0.21916 0.59973 0.4095 0.0
C1981 C 0.20825 0.61533 0.40131 0.0
C1982 C 0.2382 0.60314 0.41756 0.0
C1983 C 0.24676 0.6222 0.41754 0.0
C1984 C 0.23545 0.63801 0.41029 0.0
C1985 C 0.21631 0.63461 0.40224 0.0
C1986 C 0.29455 0.64505 0.43879 0.0
C1987 C 0.30909 0.63228 0.43119 0.0
C1988 C 0.27417 0.64158 0.43481 0.0
C1989 C 0.26804 0.6252 0.42335 0.0
C1990 C 0.28257 0.61207 0.4164 0.0
C1991 C 0.30288 0.61559 0.42026 0.0
H1992 H 0.65168 0.08579 0.61998 0.0
H1993 H 0.59579 0.07081 0.64893 0.0
H1994 H 0.65896 0.05066 0.61661 0.0
H1995 H 0.60335 0.03605 0.64622 0.0
H1996 H 0.61289 0.97465 0.62189 0.0
H1997 H 0.60561 0.0098 0.62305 0.0
H1998 H 0.66805 0.02282 0.63636 0.0
H1999 H 0.67542 0.98774 0.63446 0.0
C2000 C 0.641 0.07504 0.62565 0.0
C2001 C 0.62316 0.08111 0.63466 0.0
C2002 C 0.6452 0.05492 0.62384 0.0
C2003 C 0.63172 0.04052 0.63114 0.0
C2004 C 0.61389 0.04668 0.6401 0.0
C2005 C 0.60963 0.06668 0.64176 0.0
C2006 C 0.62503 0.98503 0.6251 0.0
C2007 C 0.6447 0.97847 0.62811 0.0
C2008 C 0.62087 0.00518 0.62582 0.0
C2009 C 0.63626 0.01915 0.62979 0.0
C2010 C 0.65592 0.01251 0.63292 0.0
C2011 C 0.6601 0.99239 0.63202 0.0
H2012 H 0.1959 0.33851 0.88363 0.0
H2013 H 0.18013 0.39829 0.8986 0.0
H2014 H 0.23034 0.34917 0.87749 0.0
H2015 H 0.21487 0.40889 0.8941 0.0
H2016 H 0.27474 0.42682 0.86985 0.0
H2017 H 0.23993 0.41573 0.87211 0.0
H2018 H 0.25981 0.35868 0.89259 0.0
H2019 H 0.29461 0.36949 0.88868 0.0
C2020 C 0.19995 0.35393 0.88581 0.0
C2021 C 0.1855 0.36762 0.89157 0.0
C2022 C 0.21973 0.36005 0.88246 0.0
C2023 C 0.22559 0.37992 0.88539 0.0
C2024 C 0.21096 0.39357 0.89123 0.0
C2025 C 0.19105 0.38752 0.894 0.0
C2026 C 0.27155 0.41187 0.87469 0.0
C2027 C 0.28722 0.39898 0.87913 0.0
C2028 C 0.25161 0.40552 0.87617 0.0
C2029 C 0.24689 0.38632 0.88273 0.0
C2030 C 0.26273 0.37343 0.88711 0.0
C2031 C 0.2827 0.37962 0.88504 0.0
H2032 H 0.32924 0.3912 0.64796 0.0
H2033 H 0.3843 0.41049 0.62022 0.0
H2034 H 0.31609 0.4244 0.64529 0.0
H2035 H 0.37075 0.44341 0.61615 0.0
H2036 H 0.35133 0.50519 0.63234 0.0
H2037 H 0.36392 0.47168 0.63367 0.0
H2038 H 0.30332 0.44876 0.62554 0.0
H2039 H 0.29077 0.48232 0.62566 0.0
C2040 C 0.33832 0.40249 0.64086 0.0
C2041 C 0.35779 0.39836 0.63438 0.0
C2042 C 0.33077 0.42155 0.63921 0.0
C2043 C 0.34235 0.43679 0.63058 0.0
C2044 C 0.36156 0.4323 0.62338 0.0
C2045 C 0.36929 0.41338 0.6255 0.0
C2046 C 0.34076 0.49293 0.63088 0.0
C2047 C 0.3201 0.49629 0.62904 0.0
C2048 C 0.34796 0.47367 0.63145 0.0
C2049 C 0.33469 0.45734 0.62966 0.0
C2050 C 0.314 0.46085 0.62741 0.0
C2051 C 0.30678 0.4801 0.62736 0.0
H2052 H 0.77573 0.12724 0.11444 0.0
H2053 H 0.75571 0.06825 0.09843 0.0
H2054 H 0.74146 0.13894 0.11083 0.0
H2055 H 0.72153 0.08004 0.09433 0.0
H2056 H 0.68169 0.15637 0.08306 0.0
H2057 H 0.71595 0.1448 0.08603 0.0
H2058 H 0.69431 0.09182 0.11483 0.0
H2059 H 0.65986 0.10317 0.11142 0.0
C2060 C 0.76405 0.11683 0.10993 0.0
C2061 C 0.76837 0.09683 0.10679 0.0
C2062 C 0.74443 0.12353 0.1078 0.0
C2063 C 0.72876 0.11038 0.10241 0.0
C2064 C 0.73321 0.09046 0.09884 0.0
C2065 C 0.75281 0.08375 0.10103 0.0
C2066 C 0.6842 0.14226 0.09007 0.0
C2067 C 0.66802 0.13067 0.09699 0.0
C2068 C 0.70387 0.13568 0.09185 0.0
C2069 C 0.70784 0.11739 0.10064 0.0
C2070 C 0.6917 0.10585 0.10771 0.0
C2071 C 0.67198 0.11242 0.10589 0.0
H2072 H 0.64949 0.02353 0.83646 0.0
H2073 H 0.58794 0.04018 0.84655 0.0
H2074 H 0.63882 0.98932 0.83209 0.0
H2075 H 0.57723 0.00559 0.84236 0.0
H2076 H 0.56759 0.94159 0.81629 0.0
H2077 H 0.57572 0.97697 0.81772 0.0
H2078 H 0.6258 0.96507 0.85658 0.0
H2079 H 0.6179 0.92992 0.85504 0.0
C2080 C 0.63363 0.01989 0.83758 0.0
C2081 C 0.61957 0.03444 0.84213 0.0
C2082 C 0.62755 0.00029 0.83517 0.0
C2083 C 0.60728 -0.0052 0.83729 0.0
C2084 C 0.59298 0.00948 0.84069 0.0
C2085 C 0.59909 0.02922 0.8431 0.0
C2086 C 0.58028 0.94659 0.82519 0.0
C2087 C 0.59222 0.93301 0.83543 0.0
C2088 C 0.58485 0.96679 0.82605 0.0
C2089 C 0.60151 0.97366 0.83704 0.0
C2090 C 0.6131 0.96011 0.84767 0.0
C2091 C 0.6085 0.94 0.84688 0.0
H2092 H 0.91278 0.05014 0.33944 0.0
H2093 H 0.85687 0.05208 0.37155 0.0
H2094 H 0.90943 0.01422 0.33673 0.0
H2095 H 0.85367 0.01626 0.36892 0.0
H2096 H 0.8402 0.95877 0.3383 0.0
H2097 H 0.8472 -0.00593 0.33957 0.0
H2098 H 0.90821 0.9829 0.35799 0.0
H2099 H 0.90121 0.94721 0.35663 0.0
C2100 C 0.8999 0.04288 0.3461 0.0
C2101 C 0.88496 0.0539 0.35555 0.0
C2102 C 0.89806 0.02235 0.34458 0.0
C2103 C 0.88117 0.01258 0.35236 0.0
C2104 C 0.86666 0.02353 0.36248 0.0
C2105 C 0.86855 0.044 0.36409 0.0
C2106 C 0.85521 0.9638 0.34236 0.0
C2107 C 0.8701 0.9503 0.34764 0.0
C2108 C 0.85915 0.984 0.34321 0.0
C2109 C 0.87807 0.99114 0.34935 0.0
C2110 C 0.89345 0.97769 0.35332 0.0
C2111 C 0.88948 0.95733 0.35248 0.0
H2112 H 0.32038 0.2636 0.11603 0.0
H2113 H 0.35302 0.24184 0.06565 0.0
H2114 H 0.31542 0.22987 0.12765 0.0
H2115 H 0.34885 0.20831 0.07758 0.0
H2116 H 0.35629 0.18273 0.1579 0.0
H2117 H 0.34105 0.21128 0.14298 0.0
H2118 H 0.33237 0.1787 0.08836 0.0
H2119 H 0.34829 0.1501 0.10331 0.0
C2120 C 0.32601 0.25156 0.10716 0.0
C2121 C 0.33757 0.25533 0.09024 0.0
C2122 C 0.32324 0.23224 0.11385 0.0
C2123 C 0.33228 0.21642 0.10392 0.0
C2124 C 0.34167 0.22007 0.08567 0.0
C2125 C 0.34419 0.23937 0.07884 0.0
C2126 C 0.35063 0.18144 0.14289 0.0
C2127 C 0.35399 0.16438 0.13161 0.0
C2128 C 0.34166 0.19781 0.13432 0.0
C2129 C 0.3358 0.19745 0.11429 0.0
C2130 C 0.33711 0.17959 0.10369 0.0
C2131 C 0.34615 0.16318 0.11229 0.0
H2132 H 0.55456 0.662 0.83786 0.0
H2133 H 0.54378 0.66211 0.9007 0.0
H2134 H 0.51838 0.65994 0.83164 0.0
H2135 H 0.5081 0.65842 0.89481 0.0
H2136 H 0.44354 0.66088 0.88327 0.0
H2137 H 0.47854 0.67167 0.88553 0.0
H2138 H 0.49142 0.63868 0.83216 0.0
H2139 H 0.45605 0.62963 0.82916 0.0
C2140 C 0.54439 0.66146 0.8503 0.0
C2141 C 0.55185 0.66225 0.86971 0.0
C2142 C 0.52366 0.66016 0.8468 0.0
C2143 C 0.51008 0.65902 0.8627 0.0
C2144 C 0.5178 0.65986 0.88211 0.0
C2145 C 0.53838 0.66175 0.88555 0.0
C2146 C 0.45389 0.65639 0.87185 0.0
C2147 C 0.44729 0.64442 0.85611 0.0
C2148 C 0.47401 0.66233 0.87321 0.0
C2149 C 0.48812 0.65567 0.85931 0.0
C2150 C 0.48115 0.64435 0.84307 0.0
C2151 C 0.46087 0.63902 0.84136 0.0
H2152 H 0.12781 0.7465 0.56107 0.0
H2153 H 0.15734 0.7228 0.61262 0.0
H2154 H 0.13253 0.77967 0.57413 0.0
H2155 H 0.16279 0.75617 0.62546 0.0
H2156 H 0.12423 0.80631 0.65402 0.0
H2157 H 0.13814 0.77667 0.63982 0.0
H2158 H 0.15077 0.80809 0.58568 0.0
H2159 H 0.13614 0.83776 0.5998 0.0
C2160 C 0.13596 0.74844 0.57487 0.0
C2161 C 0.1417 0.73206 0.58608 0.0
C2162 C 0.13885 0.76753 0.58233 0.0
C2163 C 0.14769 0.7706 0.60109 0.0
C2164 C 0.15548 0.75429 0.6112 0.0
C2165 C 0.15241 0.73517 0.60382 0.0
C2166 C 0.13053 0.8071 0.63931 0.0
C2167 C 0.12854 0.82418 0.62782 0.0
C2168 C 0.13869 0.79007 0.63115 0.0
C2169 C 0.14515 0.78984 0.61138 0.0
C2170 C 0.14544 0.80765 0.60077 0.0
C2171 C 0.13715 0.82468 0.6089 0.0
H2172 H 0.02858 0.36356 0.39691 0.0
H2173 H 0.02777 0.35001 0.33435 0.0
H2174 H -0.00672 0.3538 0.39903 0.0
H2175 H 0.99246 0.34011 0.3366 0.0
H2176 H 0.92373 0.34875 0.34685 0.0
H2177 H 0.95952 0.35632 0.34313 0.0
H2178 H 0.97241 0.3231 0.39596 0.0
H2179 H 0.93674 0.31563 0.39978 0.0
C2180 C 0.0209 0.35846 0.38363 0.0
C2181 C 0.03099 0.35757 0.36547 0.0
C2182 C 0.00072 0.35275 0.38487 0.0
C2183 C 0.99017 0.34615 0.36798 0.0
C2184 C 0.00021 0.34528 0.34981 0.0
C2185 C 0.02044 0.35086 0.34858 0.0
C2186 C 0.93424 0.34291 0.35754 0.0
C2187 C 0.92742 0.33172 0.37367 0.0
C2188 C 0.95471 0.34719 0.35538 0.0
C2189 C 0.96868 0.34044 0.36937 0.0
C2190 C 0.96192 0.32874 0.38514 0.0
C2191 C 0.94151 0.32439 0.38724 0.0
H2192 H 0.41435 0.7857 0.34693 0.0
H2193 H 0.36354 0.81529 0.37242 0.0
H2194 H 0.40694 0.75654 0.36681 0.0
H2195 H 0.3558 0.78567 0.39203 0.0
H2196 H 0.39719 0.71375 0.41724 0.0
H2197 H 0.40412 0.74735 0.40569 0.0
H2198 H 0.34563 0.74869 0.37789 0.0
H2199 H 0.33877 0.71496 0.38903 0.0
C2200 C 0.40166 0.78597 0.35688 0.0
C2201 C 0.38942 0.80264 0.35809 0.0
C2202 C 0.39755 0.76939 0.36835 0.0
C2203 C 0.38089 0.76902 0.38094 0.0
C2204 C 0.36878 0.78575 0.38244 0.0
C2205 C 0.3732 0.8026 0.37128 0.0
C2206 C 0.38565 0.72137 0.40904 0.0
C2207 C 0.36754 0.71171 0.40383 0.0
C2208 C 0.38963 0.74053 0.40244 0.0
C2209 C 0.37539 0.75045 0.39094 0.0
C2210 C 0.35675 0.74133 0.38689 0.0
C2211 C 0.35291 0.72203 0.39313 0.0
H2212 H 0.01784 0.61483 0.11866 0.0
H2213 H 0.0185 0.60839 0.18218 0.0
H2214 H 0.98235 0.60666 0.11786 0.0
H2215 H 0.98284 0.5993 0.18137 0.0
H2216 H 0.91667 0.62005 0.17121 0.0
H2217 H 0.95255 0.61637 0.1763 0.0
H2218 H 0.95619 0.58339 0.12155 0.0
H2219 H 0.92038 0.58811 0.11598 0.0
C2220 C 0.01045 0.61128 0.13244 0.0
C2221 C 0.02087 0.61253 0.1505 0.0
C2222 C 0.99007 0.60633 0.13199 0.0
C2223 C 0.97964 0.60226 0.14957 0.0
C2224 C 0.99033 0.6026 0.16758 0.0
C2225 C 0.01075 0.60778 0.16805 0.0
C2226 C 0.92504 0.61152 0.16056 0.0
C2227 C 0.91589 0.60475 0.14299 0.0
C2228 C 0.94566 0.60933 0.1635 0.0
C2229 C 0.9574 0.60004 0.14905 0.0
C2230 C 0.94771 0.59122 0.13263 0.0
C2231 C 0.92718 0.59376 0.12951 0.0
H2232 H 0.1081 0.28131 0.89213 0.0
H2233 H 0.12962 0.29827 0.83435 0.0
H2234 H 0.10226 0.24774 0.88019 0.0
H2235 H 0.12416 0.26455 0.82257 0.0
H2236 H 0.08663 0.20969 0.80369 0.0
H2237 H 0.09566 0.24278 0.81513 0.0
H2238 H 0.11991 0.21849 0.86905 0.0
H2239 H 0.1105 0.18535 0.85783 0.0
C2240 C 0.11173 0.27786 0.87693 0.0
C2241 C 0.11923 0.29251 0.86417 0.0
C2242 C 0.10852 0.25857 0.87013 0.0
C2243 C 0.11276 0.2535 0.85044 0.0
C2244 C 0.12052 0.26807 0.83775 0.0
C2245 C 0.12371 0.28737 0.84454 0.0
C2246 C 0.09402 0.21136 0.81793 0.0
C2247 C 0.09771 0.19487 0.82991 0.0
C2248 C 0.0993 0.23033 0.82443 0.0
C2249 C 0.10841 0.23324 0.84303 0.0
C2250 C 0.11262 0.21673 0.85477 0.0
C2251 C 0.10733 0.19774 0.84829 0.0
H2252 H 0.56146 0.37594 0.59419 0.0
H2253 H 0.57681 0.39478 0.65361 0.0
H2254 H 0.52622 0.38059 0.60111 0.0
H2255 H 0.54137 0.40027 0.66034 0.0
H2256 H 0.47926 0.37046 0.67258 0.0
H2257 H 0.51432 0.37806 0.66613 0.0
H2258 H 0.49827 0.40032 0.6084 0.0
H2259 H 0.46313 0.39184 0.61462 0.0
C2260 C 0.55736 0.38161 0.60859 0.0
C2261 C 0.57192 0.38459 0.62348 0.0
C2262 C 0.53708 0.38446 0.61253 0.0
C2263 C 0.53087 0.39057 0.6314 0.0
C2264 C 0.5456 0.39512 0.64579 0.0
C2265 C 0.56592 0.39206 0.64191 0.0
C2266 C 0.48316 0.3773 0.65864 0.0
C2267 C 0.46852 0.38019 0.64395 0.0
C2268 C 0.5033 0.38184 0.65498 0.0
C2269 C 0.50922 0.38959 0.63662 0.0
C2270 C 0.4943 0.39394 0.62253 0.0
C2271 C 0.47416 0.38917 0.62611 0.0
H2272 H 0.08207 0.37263 0.26605 0.0
H2273 H 0.14104 0.35331 0.2838 0.0
H2274 H 0.0931 0.37437 0.23184 0.0
H2275 H 0.15191 0.35437 0.24948 0.0
H2276 H 0.17047 0.39321 0.19635 0.0
H2277 H 0.15947 0.3817 0.22843 0.0
H2278 H 0.10468 0.35835 0.20209 0.0
H2279 H 0.11556 0.37045 0.16981 0.0
C2280 C 0.09725 0.3683 0.26257 0.0
C2281 C 0.11081 0.36319 0.27762 0.0
C2282 C 0.10355 0.36915 0.24292 0.0
C2283 C 0.12348 0.36475 0.23796 0.0
C2284 C 0.13658 0.35827 0.25288 0.0
C2285 C 0.13034 0.3576 0.27253 0.0
C2286 C 0.1562 0.38538 0.19731 0.0
C2287 C 0.14377 0.38296 0.1806 0.0
C2288 C 0.14995 0.3786 0.21572 0.0
C2289 C 0.13114 0.36916 0.21787 0.0
C2290 C 0.11914 0.36581 0.20095 0.0
C2291 C 0.12541 0.37264 0.18247 0.0
H2292 H 0.37857 0.36102 0.92056 0.0
H2293 H 0.37012 0.41868 0.94675 0.0
H2294 H 0.38442 0.34728 0.9533 0.0
H2295 H 0.37568 0.40483 0.97943 0.0
H2296 H 0.40118 0.37662 0.0345 0.0
H2297 H 0.40096 0.38959 0.00097 0.0
H2298 H 0.36272 0.34086 0.98209 0.0
H2299 H 0.36314 0.32767 0.01553 0.0
C2300 C 0.37816 0.37081 0.93325 0.0
C2301 C 0.37371 0.39093 0.93105 0.0
C2302 C 0.38139 0.3629 0.95201 0.0
C2303 C 0.38034 0.37494 0.96892 0.0
C2304 C 0.37675 0.3952 0.96666 0.0
C2305 C 0.37346 0.40312 0.94792 0.0
C2306 C 0.39284 0.36857 0.02318 0.0
C2307 C 0.38208 0.35115 0.02773 0.0
C2308 C 0.39266 0.37606 0.004 0.0
C2309 C 0.3818 0.36627 0.98893 0.0
C2310 C 0.37144 0.3486 -0.00665 0.0
C2311 C 0.37157 0.34113 0.01255 0.0
H2312 H 0.29201 0.59129 0.69402 0.0
H2313 H 0.35333 0.58466 0.67479 0.0
H2314 H 0.30404 0.60445 0.72559 0.0
H2315 H 0.36539 0.5969 0.7066 0.0
H2316 H 0.38306 0.6299 0.76168 0.0
H2317 H 0.36919 0.62391 0.72865 0.0
H2318 H 0.31911 0.59191 0.75433 0.0
H2319 H 0.33246 0.59866 0.78712 0.0
C2320 C 0.30806 0.59261 0.69657 0.0
C2321 C 0.32172 0.58678 0.68201 0.0
C2322 C 0.31497 0.60008 0.71468 0.0
C2323 C 0.3357 0.60158 0.71875 0.0
C2324 C 0.34934 0.59625 0.70392 0.0
C2325 C 0.34242 0.58906 0.68571 0.0
C2326 C 0.36895 0.62183 0.7602 0.0
C2327 C 0.3589 0.61466 0.77695 0.0
C2328 C 0.36106 0.61828 0.74129 0.0
C2329 C 0.34308 0.60731 0.73878 0.0
C2330 C 0.33279 0.60069 0.75564 0.0
C2331 C 0.34054 0.60443 0.7745 0.0
H2332 H 0.09598 0.61261 0.51655 0.0
H2333 H 0.09237 0.67509 0.50502 0.0
H2334 H 0.0949 0.60572 0.48148 0.0
H2335 H 0.08955 0.66828 0.46965 0.0
H2336 H 0.12144 0.65024 0.41205 0.0
H2337 H 0.11013 0.66007 0.44444 0.0
H2338 H 0.08023 0.60325 0.45122 0.0
H2339 H 0.09334 0.59291 0.4193 0.0
C2340 C 0.0944 0.62485 0.50642 0.0
C2341 C 0.09461 0.64438 0.51339 0.0
C2342 C 0.0935 0.62093 0.4862 0.0
C2343 C 0.09223 0.63643 0.47244 0.0
C2344 C 0.09108 0.65595 0.47964 0.0
C2345 C 0.09261 0.6599 0.49991 0.0
C2346 C 0.112 0.64005 0.42026 0.0
C2347 C 0.10861 0.62069 0.41344 0.0
C2348 C 0.10537 0.64571 0.43893 0.0
C2349 C 0.09472 0.63227 0.45093 0.0
C2350 C 0.08915 0.61373 0.44285 0.0
C2351 C 0.09639 0.60785 0.42444 0.0
H2352 H 0.09878 0.64815 0.2179 0.0
H2353 H 0.15641 0.62769 0.19819 0.0
H2354 H 0.11003 0.64619 0.2521 0.0
H2355 H 0.16733 0.62416 0.23243 0.0
H2356 H 0.18676 0.62789 0.29581 0.0
H2357 H 0.17709 0.63786 0.26249 0.0
H2358 H 0.11521 0.62236 0.27537 0.0
H2359 H 0.12473 0.61382 0.30875 0.0
C2360 C 0.11385 0.6431 0.22098 0.0
C2361 C 0.1267 0.6379 0.20555 0.0
C2362 C 0.12029 0.64183 0.24057 0.0
C2363 C 0.13951 0.63469 0.24518 0.0
C2364 C 0.15254 0.62999 0.22957 0.0
C2365 C 0.14627 0.63183 0.20992 0.0
C2366 C 0.17106 0.62697 0.2915 0.0
C2367 C 0.1565 0.62011 0.30483 0.0
C2368 C 0.16551 0.63251 0.27237 0.0
C2369 C 0.14535 0.63084 0.26607 0.0
C2370 C 0.1308 0.62433 0.27967 0.0
C2371 C 0.13628 0.61927 0.29886 0.0
H2372 H 0.1379 0.37057 0.07403 0.0
H2373 H 0.14348 0.42595 0.04278 0.0
H2374 H 0.12586 0.35446 0.04358 0.0
H2375 H 0.13176 0.40993 0.01267 0.0
H2376 H 0.09844 0.38286 0.96385 0.0
H2377 H 0.10174 0.39436 -0.00213 0.0
H2378 H 0.14125 0.34598 0.0108 0.0
H2379 H 0.13754 0.33414 0.97672 0.0
C2380 C 0.13639 0.37933 0.06075 0.0
C2381 C 0.14173 0.39952 0.06078 0.0
C2382 C 0.12957 0.37009 0.04335 0.0
C2383 C 0.12775 0.38096 0.02581 0.0
C2384 C 0.13265 0.40122 0.02603 0.0
C2385 C 0.13957 0.41037 0.04328 0.0
C2386 C 0.10747 0.37442 0.97407 0.0
C2387 C 0.11805 0.35784 0.9676 0.0
C2388 C 0.10939 0.38103 -0.00648 0.0
C2389 C 0.1221 0.37132 0.00684 0.0
C2390 C 0.13133 0.35375 0.00084 0.0
C2391 C 0.12926 0.34701 0.98134 0.0
H2392 H 0.39612 0.34913 0.82007 0.0
H2393 H 0.33383 0.35743 0.80421 0.0
H2394 H 0.40265 0.33657 0.78683 0.0
H2395 H 0.34039 0.34524 0.77109 0.0
H2396 H 0.35547 0.3187 0.71297 0.0
H2397 H 0.35061 0.31883 0.74868 0.0
H2398 H 0.40381 0.35556 0.75592 0.0
H2399 H 0.40889 0.3552 0.72039 0.0
C2400 C 0.38372 0.34777 0.80967 0.0
C2401 C 0.36455 0.35457 0.81459 0.0
C2402 C 0.38749 0.34071 0.79062 0.0
C2403 C 0.37211 0.34025 0.77627 0.0
C2404 C 0.35255 0.34534 0.78181 0.0
C2405 C 0.34881 0.35245 0.80078 0.0
C2406 C 0.36628 0.32659 0.7222 0.0
C2407 C 0.3824 0.33719 0.7138 0.0
C2408 C 0.36348 0.32664 0.74265 0.0
C2409 C 0.37679 0.33723 0.7551 0.0
C2410 C 0.39344 0.34702 0.74676 0.0
C2411 C 0.39622 0.34701 0.72635 0.0
H2412 H 0.38656 0.65468 0.50424 0.0
H2413 H 0.40782 0.60125 0.47679 0.0
H2414 H 0.38592 0.63829 0.53604 0.0
H2415 H 0.40787 0.58494 0.50884 0.0
H2416 H 0.36003 0.55886 0.55265 0.0
H2417 H 0.37832 0.57369 0.52552 0.0
H2418 H 0.39891 0.62101 0.5641 0.0
H2419 H 0.38 0.60632 0.59127 0.0
C2420 C 0.39188 0.63966 0.50514 0.0
C2421 C 0.39666 0.62906 0.48797 0.0
C2422 C 0.39164 0.63025 0.52345 0.0
C2423 C 0.39635 0.6101 0.52491 0.0
C2424 C 0.40363 0.60031 0.5081 0.0
C2425 C 0.40368 0.60968 0.48976 0.0
C2426 C 0.36885 0.57216 0.5555 0.0
C2427 C 0.36818 0.58168 0.57394 0.0
C2428 C 0.37955 0.58061 0.53995 0.0
C2429 C 0.38989 0.59874 0.54255 0.0
C2430 C 0.3908 0.60724 0.56154 0.0
C2431 C 0.38001 0.59879 0.57711 0.0
H2432 H 0.15292 0.08233 0.35261 0.0
H2433 H 0.1747 0.14259 0.35832 0.0
H2434 H 0.18688 0.07179 0.34447 0.0
H2435 H 0.20834 0.1321 0.35095 0.0
H2436 H 0.26727 0.11326 0.3322 0.0
H2437 H 0.23156 0.11961 0.32797 0.0
H2438 H 0.21731 0.0681 0.36307 0.0
H2439 H 0.25292 0.06131 0.36646 0.0
C2440 C 0.16487 0.09334 0.35193 0.0
C2441 C 0.16115 0.11325 0.35636 0.0
C2442 C 0.18433 0.0873 0.34734 0.0
C2443 C 0.20039 0.10106 0.34714 0.0
C2444 C 0.19636 0.12109 0.35063 0.0
C2445 C 0.17701 0.1271 0.35511 0.0
C2446 C 0.25646 0.10307 0.33861 0.0
C2447 C 0.26284 0.08701 0.34996 0.0
C2448 C 0.23601 0.10674 0.33627 0.0
C2449 C 0.22155 0.09462 0.34555 0.0
C2450 C 0.22797 0.07769 0.35561 0.0
C2451 C 0.24842 0.07386 0.35769 0.0
H2452 H 0.7961 0.35646 0.61789 0.0
H2453 H 0.78588 0.41887 0.61029 0.0
H2454 H 0.76005 0.35003 0.6162 0.0
H2455 H 0.74976 0.41236 0.60813 0.0
H2456 H 0.68425 0.39411 0.61989 0.0
H2457 H 0.71991 0.40092 0.62624 0.0
H2458 H 0.73537 0.35095 0.58968 0.0
H2459 H 0.69995 0.34394 0.58369 0.0
C2460 C 0.78614 0.36882 0.61595 0.0
C2461 C 0.79381 0.38814 0.61403 0.0
C2462 C 0.7655 0.36512 0.61489 0.0
C2463 C 0.7521 0.38066 0.61178 0.0
C2464 C 0.75971 0.4001 0.61066 0.0
C2465 C 0.78039 0.40381 0.6118 0.0
C2466 C 0.69531 0.38457 0.61329 0.0
C2467 C 0.68933 0.36848 0.60132 0.0
C2468 C 0.71569 0.38851 0.61686 0.0
C2469 C 0.73043 0.3764 0.60856 0.0
C2470 C 0.72438 0.36033 0.59661 0.0
C2471 C 0.70407 0.3564 0.59305 0.0
H2472 H 0.41147 0.9368 0.35552 0.0
H2473 H 0.35313 0.91521 0.37399 0.0
H2474 H 0.40284 0.96993 0.36614 0.0
H2475 H 0.34453 0.94855 0.38483 0.0
H2476 H 0.32969 0.01407 0.36784 0.0
H2477 H 0.33783 0.97919 0.36576 0.0
H2478 H 0.39476 0.99109 0.39478 0.0
H2479 H 0.3868 0.02606 0.39669 0.0
C2480 C 0.39692 0.93908 0.36217 0.0
C2481 C 0.38289 0.92347 0.36374 0.0
C2482 C 0.39203 0.95805 0.36839 0.0
C2483 C 0.37297 0.96183 0.37622 0.0
C2484 C 0.35926 0.94605 0.37866 0.0
C2485 C 0.36422 0.92699 0.37256 0.0
C2486 C 0.34386 0.00925 0.37398 0.0
C2487 C 0.35772 0.0229 0.38218 0.0
C2488 C 0.34843 0.98922 0.37294 0.0
C2489 C 0.36697 0.98246 0.38003 0.0
C2490 C 0.38045 -0.00405 0.38901 0.0
C2491 C 0.37585 0.01597 0.39012 0.0
H2492 H 0.80402 0.59545 0.10145 0.0
H2493 H 0.79583 0.6581 0.10899 0.0
H2494 H 0.76789 0.59064 0.09768 0.0
H2495 H 0.7596 0.65335 0.10704 0.0
H2496 H 0.69618 0.64355 0.08754 0.0
H2497 H 0.73263 0.64716 0.08694 0.0
H2498 H 0.73797 0.58941 0.11367 0.0
H2499 H 0.70169 0.58536 0.11254 0.0
C2500 C 0.79435 0.60812 0.10269 0.0
C2501 C 0.80253 0.62711 0.10554 0.0
C2502 C 0.77361 0.60541 0.10064 0.0
C2503 C 0.76061 0.62159 0.10203 0.0
C2504 C 0.769 0.64057 0.10531 0.0
C2505 C 0.78976 0.64332 0.1067 0.0
C2506 C 0.70529 0.63158 0.09296 0.0
C2507 C 0.69628 0.61419 0.10002 0.0
C2508 C 0.72618 0.63368 0.09287 0.0
C2509 C 0.73844 0.6187 0.10052 0.0
C2510 C 0.72923 0.60116 0.1073 0.0
C2511 C 0.70838 0.59883 0.10677 0.0
H2512 H 0.63065 0.58931 0.37495 0.0
H2513 H 0.57348 0.55937 0.36621 0.0
H2514 H 0.64461 0.55902 0.38855 0.0
H2515 H 0.58739 0.52923 0.37923 0.0
H2516 H 0.61278 0.47587 0.40265 0.0
H2517 H 0.60178 0.50997 0.4051 0.0
H2518 H 0.65357 0.52899 0.37153 0.0
H2519 H 0.66488 0.49506 0.36971 0.0
C2520 C 0.62095 0.57642 0.37636 0.0
C2521 C 0.60109 0.57657 0.36918 0.0
C2522 C 0.62896 0.55906 0.38405 0.0
C2523 C 0.61722 0.54163 0.38472 0.0
C2524 C 0.59686 0.54238 0.37912 0.0
C2525 C 0.5889 0.55966 0.37145 0.0
C2526 C 0.62207 0.48743 0.39625 0.0
C2527 C 0.63944 0.4828 0.3856 0.0
C2528 C 0.61575 0.50694 0.39761 0.0
C2529 C 0.62656 0.52215 0.38816 0.0
C2530 C 0.64492 0.51769 0.37908 0.0
C2531 C 0.65134 0.49819 0.37789 0.0
H2532 H 0.21058 0.91733 0.88069 0.0
H2533 H 0.20239 0.86094 0.85121 0.0
H2534 H 0.24622 0.91057 0.88519 0.0
H2535 H 0.23799 0.85444 0.85536 0.0
H2536 H 0.31311 0.89829 0.87216 0.0
H2537 H 0.27782 0.90649 0.86686 0.0
H2538 H 0.2603 0.84696 0.8827 0.0
H2539 H 0.29526 0.83866 0.8876 0.0
C2540 C 0.21639 0.90356 0.87506 0.0
C2541 C 0.2036 0.8896 0.86572 0.0
C2542 C 0.23683 0.89976 0.87754 0.0
C2543 C 0.24487 0.88193 0.87074 0.0
C2544 C 0.23216 0.86817 0.86107 0.0
C2545 C 0.21176 0.87194 0.85862 0.0
C2546 C 0.3017 0.88699 0.87452 0.0
C2547 C 0.30703 0.86781 0.88018 0.0
C2548 C 0.2815 0.8917 0.87156 0.0
C2549 C 0.26631 0.87731 0.8742 0.0
C2550 C 0.27167 0.85826 0.88016 0.0
C2551 C 0.29175 0.85356 0.88308 0.0
H2552 H 0.349 0.96978 0.09782 0.0
H2553 H 0.40378 0.95129 0.12635 0.0
H2554 H 0.35982 0.00422 0.10121 0.0
H2555 H 0.41415 0.98555 0.13069 0.0
H2556 H 0.43517 0.04816 0.12625 0.0
H2557 H 0.42557 0.01479 0.11593 0.0
H2558 H 0.36314 0.02825 0.12614 0.0
H2559 H 0.3727 0.06178 0.13542 0.0
C2560 C 0.36335 0.9731 0.10481 0.0
C2561 C 0.37551 0.95789 0.11189 0.0
C2562 C 0.36951 0.99283 0.10687 0.0
C2563 C 0.38783 -0.00225 0.11634 0.0
C2564 C 0.40014 0.98241 0.12301 0.0
C2565 C 0.39412 0.96272 0.12066 0.0
C2566 C 0.41939 0.044 0.12607 0.0
C2567 C 0.4047 0.05753 0.13176 0.0
C2568 C 0.41387 0.02485 0.12026 0.0
C2569 C 0.39357 0.0187 0.12037 0.0
C2570 C 0.37888 0.03247 0.12556 0.0
C2571 C 0.38437 0.05171 0.13103 0.0
H2572 H 0.10147 0.91675 0.59986 0.0
H2573 H 0.04749 0.94295 0.62276 0.0
H2574 H 0.11225 0.94881 0.58718 0.0
H2575 H 0.05857 0.97499 0.61082 0.0
H2576 H 0.07883 0.03118 0.5848 0.0
H2577 H 0.06647 -0.0029 0.58481 0.0
H2578 H 0.12523 0.9776 0.60327 0.0
H2579 H 0.13769 0.01148 0.60247 0.0
C2580 C 0.09178 0.9293 0.60197 0.0
C2581 C 0.07378 0.92739 0.61258 0.0
C2582 C 0.09801 0.94768 0.59478 0.0
C2583 C 0.08646 0.96455 0.59825 0.0
C2584 C 0.06779 0.96232 0.60769 0.0
C2585 C 0.06147 0.94392 0.61468 0.0
C2586 C 0.08918 0.01953 0.58847 0.0
C2587 C 0.10914 0.02398 0.59391 0.0
C2588 C 0.08208 2e-05 0.58856 0.0
C2589 C 0.09476 0.98462 0.59431 0.0
C2590 C 0.11507 0.98902 0.59855 0.0
C2591 C 0.12221 0.00849 0.59825 0.0
loop_
_geom_bond_atom_site_label_1
_geom_bond_atom_site_label_2
_geom_bond_distance
_geom_bond_site_symmetry_2
_ccdc_geom_bond_type
C0 O1 1.306 . S
C0 O3 1.160 . S
O1 C0 1.306 . S
O1 Cd2 2.228 . S
Cd2 O1 2.228 . S
Cd2 O6 2.273 . S
Cd2 O10 2.277 . S
O3 C0 1.160 . S
O3 Cd4 2.203 . S
Cd4 O3 2.203 . S
Cd4 O6 2.411 . S
Cd4 O7 2.333 . S
Cd4 O8 2.352 . S
Cd4 O12 2.277 . S
Cd4 O13 2.356 . S
C5 O10 1.209 . S
C5 O12 1.226 . S
O6 Cd2 2.273 . S
O6 Cd4 2.411 . S
O6 C9 1.320 . S
O7 Cd4 2.333 . S
O7 C9 1.214 . S
O8 Cd4 2.352 . S
O8 C11 1.258 . S
C9 O6 1.320 . S
C9 O7 1.214 . S
O10 Cd2 2.277 . S
O10 C5 1.209 . S
C11 O8 1.258 . S
C11 O13 1.282 . S
O12 Cd4 2.277 . S
O12 C5 1.226 . S
O13 Cd4 2.356 . S
O13 C11 1.282 . S
C14 O15 1.306 . S
C14 O17 1.160 . S
O15 C14 1.306 . S
O15 Cd16 2.228 . S
Cd16 O15 2.228 . S
Cd16 O20 2.273 . S
Cd16 O24 2.277 . S
O17 C14 1.160 . S
O17 Cd18 2.203 . S
Cd18 O17 2.203 . S
Cd18 O20 2.411 . S
Cd18 O21 2.333 . S
Cd18 O22 2.352 . S
Cd18 O26 2.277 . S
Cd18 O27 2.356 . S
C19 O24 1.209 . S
C19 O26 1.226 . S
O20 Cd16 2.273 . S
O20 Cd18 2.411 . S
O20 C23 1.320 . S
O21 Cd18 2.333 . S
O21 C23 1.214 . S
O22 Cd18 2.352 . S
O22 C25 1.258 . S
C23 O20 1.320 . S
C23 O21 1.214 . S
O24 Cd16 2.277 . S
O24 C19 1.209 . S
C25 O22 1.258 . S
C25 O27 1.282 . S
O26 Cd18 2.277 . S
O26 C19 1.226 . S
O27 Cd18 2.356 . S
O27 C25 1.282 . S
C28 O29 1.306 . S
C28 O31 1.160 . S
O29 C28 1.306 . S
O29 Cd30 2.228 . S
Cd30 O29 2.228 . S
Cd30 O34 2.273 . S
Cd30 O38 2.277 . S
O31 C28 1.160 . S
O31 Cd32 2.203 . S
Cd32 O31 2.203 . S
Cd32 O34 2.411 . S
Cd32 O35 2.333 . S
Cd32 O36 2.352 . S
Cd32 O40 2.277 . S
Cd32 O41 2.356 . S
C33 O38 1.209 . S
C33 O40 1.226 . S
O34 Cd30 2.273 . S
O34 Cd32 2.411 . S
O34 C37 1.320 . S
O35 Cd32 2.333 . S
O35 C37 1.214 . S
O36 Cd32 2.352 . S
O36 C39 1.258 . S
C37 O34 1.320 . S
C37 O35 1.214 . S
O38 Cd30 2.277 . S
O38 C33 1.209 . S
C39 O36 1.258 . S
C39 O41 1.282 . S
O40 Cd32 2.277 . S
O40 C33 1.226 . S
O41 Cd32 2.356 . S
O41 C39 1.282 . S
C42 O43 1.306 . S
C42 O45 1.160 . S
O43 C42 1.306 . S
O43 Cd44 2.228 . S
Cd44 O43 2.228 . S
Cd44 O48 2.273 . S
Cd44 O52 2.277 . S
O45 C42 1.160 . S
O45 Cd46 2.203 . S
Cd46 O45 2.203 . S
Cd46 O48 2.411 . S
Cd46 O49 2.333 . S
Cd46 O50 2.352 . S
Cd46 O54 2.277 . S
Cd46 O55 2.356 . S
C47 O52 1.209 . S
C47 O54 1.226 . S
O48 Cd44 2.273 . S
O48 Cd46 2.411 . S
O48 C51 1.320 . S
O49 Cd46 2.333 . S
O49 C51 1.214 . S
O50 Cd46 2.352 . S
O50 C53 1.258 . S
C51 O48 1.320 . S
C51 O49 1.214 . S
O52 Cd44 2.277 . S
O52 C47 1.209 . S
C53 O50 1.258 . S
C53 O55 1.282 . S
O54 Cd46 2.277 . S
O54 C47 1.226 . S
O55 Cd46 2.356 . S
O55 C53 1.282 . S
C56 O57 1.306 . S
C56 O59 1.160 . S
O57 C56 1.306 . S
O57 Cd58 2.228 . S
Cd58 O57 2.228 . S
Cd58 O62 2.273 . S
Cd58 O66 2.277 . S
O59 C56 1.160 . S
O59 Cd60 2.203 . S
Cd60 O59 2.203 . S
Cd60 O62 2.411 . S
Cd60 O63 2.333 . S
Cd60 O64 2.352 . S
Cd60 O68 2.277 . S
Cd60 O69 2.356 . S
C61 O66 1.209 . S
C61 O68 1.226 . S
O62 Cd58 2.273 . S
O62 Cd60 2.411 . S
O62 C65 1.320 . S
O63 Cd60 2.333 . S
O63 C65 1.214 . S
O64 Cd60 2.352 . S
O64 C67 1.258 . S
C65 O62 1.320 . S
C65 O63 1.214 . S
O66 Cd58 2.277 . S
O66 C61 1.209 . S
C67 O64 1.258 . S
C67 O69 1.282 . S
O68 Cd60 2.277 . S
O68 C61 1.226 . S
O69 Cd60 2.356 . S
O69 C67 1.282 . S
C70 O71 1.306 . S
C70 O73 1.160 . S
O71 C70 1.306 . S
O71 Cd72 2.228 . S
Cd72 O71 2.228 . S
Cd72 O76 2.273 . S
Cd72 O80 2.277 . S
O73 C70 1.160 . S
O73 Cd74 2.203 . S
Cd74 O73 2.203 . S
Cd74 O76 2.411 . S
Cd74 O77 2.333 . S
Cd74 O78 2.352 . S
Cd74 O82 2.277 . S
Cd74 O83 2.356 . S
C75 O80 1.209 . S
C75 O82 1.226 . S
O76 Cd72 2.273 . S
O76 Cd74 2.411 . S
O76 C79 1.320 . S
O77 Cd74 2.333 . S
O77 C79 1.214 . S
O78 Cd74 2.352 . S
O78 C81 1.258 . S
C79 O76 1.320 . S
C79 O77 1.214 . S
O80 Cd72 2.277 . S
O80 C75 1.209 . S
C81 O78 1.258 . S
C81 O83 1.282 . S
O82 Cd74 2.277 . S
O82 C75 1.226 . S
O83 Cd74 2.356 . S
O83 C81 1.282 . S
C84 O85 1.306 . S
C84 O87 1.160 . S
O85 C84 1.306 . S
O85 Cd86 2.228 . S
Cd86 O85 2.228 . S
Cd86 O90 2.273 . S
Cd86 O94 2.277 . S
O87 C84 1.160 . S
O87 Cd88 2.203 . S
Cd88 O87 2.203 . S
Cd88 O90 2.411 . S
Cd88 O91 2.333 . S
Cd88 O92 2.352 . S
Cd88 O96 2.277 . S
Cd88 O97 2.356 . S
C89 O94 1.209 . S
C89 O96 1.226 . S
O90 Cd86 2.273 . S
O90 Cd88 2.411 . S
O90 C93 1.320 . S
O91 Cd88 2.333 . S
O91 C93 1.214 . S
O92 Cd88 2.352 . S
O92 C95 1.258 . S
C93 O90 1.320 . S
C93 O91 1.214 . S
O94 Cd86 2.277 . S
O94 C89 1.209 . S
C95 O92 1.258 . S
C95 O97 1.282 . S
O96 Cd88 2.277 . S
O96 C89 1.226 . S
O97 Cd88 2.356 . S
O97 C95 1.282 . S
C98 O99 1.306 . S
C98 O101 1.160 . S
O99 C98 1.306 . S
O99 Cd100 2.228 . S
Cd100 O99 2.228 . S
Cd100 O104 2.273 . S
Cd100 O108 2.277 . S
O101 C98 1.160 . S
O101 Cd102 2.203 . S
Cd102 O101 2.203 . S
Cd102 O104 2.411 . S
Cd102 O105 2.333 . S
Cd102 O106 2.352 . S
Cd102 O110 2.277 . S
Cd102 O111 2.356 . S
C103 O108 1.209 . S
C103 O110 1.226 . S
O104 Cd100 2.273 . S
O104 Cd102 2.411 . S
O104 C107 1.320 . S
O105 Cd102 2.333 . S
O105 C107 1.214 . S
O106 Cd102 2.352 . S
O106 C109 1.258 . S
C107 O104 1.320 . S
C107 O105 1.214 . S
O108 Cd100 2.277 . S
O108 C103 1.209 . S
C109 O106 1.258 . S
C109 O111 1.282 . S
O110 Cd102 2.277 . S
O110 C103 1.226 . S
O111 Cd102 2.356 . S
O111 C109 1.282 . S
C112 O113 1.306 . S
C112 O115 1.160 . S
O113 C112 1.306 . S
O113 Cd114 2.228 . S
Cd114 O113 2.228 . S
Cd114 O118 2.273 . S
Cd114 O122 2.277 . S
O115 C112 1.160 . S
O115 Cd116 2.203 . S
Cd116 O115 2.203 . S
Cd116 O118 2.411 . S
Cd116 O119 2.333 . S
Cd116 O120 2.352 . S
Cd116 O124 2.277 . S
Cd116 O125 2.356 . S
C117 O122 1.209 . S
C117 O124 1.226 . S
O118 Cd114 2.273 . S
O118 Cd116 2.411 . S
O118 C121 1.320 . S
O119 Cd116 2.333 . S
O119 C121 1.214 . S
O120 Cd116 2.352 . S
O120 C123 1.258 . S
C121 O118 1.320 . S
C121 O119 1.214 . S
O122 Cd114 2.277 . S
O122 C117 1.209 . S
C123 O120 1.258 . S
C123 O125 1.282 . S
O124 Cd116 2.277 . S
O124 C117 1.226 . S
O125 Cd116 2.356 . S
O125 C123 1.282 . S
C126 O127 1.306 . S
C126 O129 1.160 . S
O127 C126 1.306 . S
O127 Cd128 2.228 . S
Cd128 O127 2.228 . S
Cd128 O132 2.273 . S
Cd128 O136 2.277 . S
O129 C126 1.160 . S
O129 Cd130 2.203 . S
Cd130 O129 2.203 . S
Cd130 O132 2.411 . S
Cd130 O133 2.333 . S
Cd130 O134 2.352 . S
Cd130 O138 2.277 . S
Cd130 O139 2.356 . S
C131 O136 1.209 . S
C131 O138 1.226 . S
O132 Cd128 2.273 . S
O132 Cd130 2.411 . S
O132 C135 1.320 . S
O133 Cd130 2.333 . S
O133 C135 1.214 . S
O134 Cd130 2.352 . S
O134 C137 1.258 . S
C135 O132 1.320 . S
C135 O133 1.214 . S
O136 Cd128 2.277 . S
O136 C131 1.209 . S
C137 O134 1.258 . S
C137 O139 1.282 . S
O138 Cd130 2.277 . S
O138 C131 1.226 . S
O139 Cd130 2.356 . S
O139 C137 1.282 . S
C140 O141 1.306 . S
C140 O143 1.160 . S
O141 C140 1.306 . S
O141 Cd142 2.228 . S
Cd142 O141 2.228 . S
Cd142 O146 2.273 . S
Cd142 O150 2.277 . S
O143 C140 1.160 . S
O143 Cd144 2.203 . S
Cd144 O143 2.203 . S
Cd144 O146 2.411 . S
Cd144 O147 2.333 . S
Cd144 O148 2.352 . S
Cd144 O152 2.277 . S
Cd144 O153 2.356 . S
C145 O150 1.209 . S
C145 O152 1.226 . S
O146 Cd142 2.273 . S
O146 Cd144 2.411 . S
O146 C149 1.320 . S
O147 Cd144 2.333 . S
O147 C149 1.214 . S
O148 Cd144 2.352 . S
O148 C151 1.258 . S
C149 O146 1.320 . S
C149 O147 1.214 . S
O150 Cd142 2.277 . S
O150 C145 1.209 . S
C151 O148 1.258 . S
C151 O153 1.282 . S
O152 Cd144 2.277 . S
O152 C145 1.226 . S
O153 Cd144 2.356 . S
O153 C151 1.282 . S
C154 O155 1.306 . S
C154 O157 1.160 . S
O155 C154 1.306 . S
O155 Cd156 2.228 . S
Cd156 O155 2.228 . S
Cd156 O160 2.273 . S
Cd156 O164 2.277 . S
O157 C154 1.160 . S
O157 Cd158 2.203 . S
Cd158 O157 2.203 . S
Cd158 O160 2.411 . S
Cd158 O161 2.333 . S
Cd158 O162 2.352 . S
Cd158 O166 2.277 . S
Cd158 O167 2.356 . S
C159 O164 1.209 . S
C159 O166 1.226 . S
O160 Cd156 2.273 . S
O160 Cd158 2.411 . S
O160 C163 1.320 . S
O161 Cd158 2.333 . S
O161 C163 1.214 . S
O162 Cd158 2.352 . S
O162 C165 1.258 . S
C163 O160 1.320 . S
C163 O161 1.214 . S
O164 Cd156 2.277 . S
O164 C159 1.209 . S
C165 O162 1.258 . S
C165 O167 1.282 . S
O166 Cd158 2.277 . S
O166 C159 1.226 . S
O167 Cd158 2.356 . S
O167 C165 1.282 . S
C168 O169 1.306 . S
C168 O171 1.160 . S
O169 C168 1.306 . S
O169 Cd170 2.228 . S
Cd170 O169 2.228 . S
Cd170 O174 2.273 . S
Cd170 O178 2.277 . S
O171 C168 1.160 . S
O171 Cd172 2.203 . S
Cd172 O171 2.203 . S
Cd172 O174 2.411 . S
Cd172 O175 2.333 . S
Cd172 O176 2.352 . S
Cd172 O180 2.277 . S
Cd172 O181 2.356 . S
C173 O178 1.209 . S
C173 O180 1.226 . S
O174 Cd170 2.273 . S
O174 Cd172 2.411 . S
O174 C177 1.320 . S
O175 Cd172 2.333 . S
O175 C177 1.214 . S
O176 Cd172 2.352 . S
O176 C179 1.258 . S
C177 O174 1.320 . S
C177 O175 1.214 . S
O178 Cd170 2.277 . S
O178 C173 1.209 . S
C179 O176 1.258 . S
C179 O181 1.282 . S
O180 Cd172 2.277 . S
O180 C173 1.226 . S
O181 Cd172 2.356 . S
O181 C179 1.282 . S
C182 O183 1.306 . S
C182 O185 1.160 . S
O183 C182 1.306 . S
O183 Cd184 2.228 . S
Cd184 O183 2.228 . S
Cd184 O188 2.273 . S
Cd184 O192 2.277 . S
O185 C182 1.160 . S
O185 Cd186 2.203 . S
Cd186 O185 2.203 . S
Cd186 O188 2.411 . S
Cd186 O189 2.333 . S
Cd186 O190 2.352 . S
Cd186 O194 2.277 . S
Cd186 O195 2.356 . S
C187 O192 1.209 . S
C187 O194 1.226 . S
O188 Cd184 2.273 . S
O188 Cd186 2.411 . S
O188 C191 1.320 . S
O189 Cd186 2.333 . S
O189 C191 1.214 . S
O190 Cd186 2.352 . S
O190 C193 1.258 . S
C191 O188 1.320 . S
C191 O189 1.214 . S
O192 Cd184 2.277 . S
O192 C187 1.209 . S
C193 O190 1.258 . S
C193 O195 1.282 . S
O194 Cd186 2.277 . S
O194 C187 1.226 . S
O195 Cd186 2.356 . S
O195 C193 1.282 . S
C196 O197 1.306 . S
C196 O199 1.160 . S
O197 C196 1.306 . S
O197 Cd198 2.228 . S
Cd198 O197 2.228 . S
Cd198 O202 2.273 . S
Cd198 O206 2.277 . S
O199 C196 1.160 . S
O199 Cd200 2.203 . S
Cd200 O199 2.203 . S
Cd200 O202 2.411 . S
Cd200 O203 2.333 . S
Cd200 O204 2.352 . S
Cd200 O208 2.277 . S
Cd200 O209 2.356 . S
C201 O206 1.209 . S
C201 O208 1.226 . S
O202 Cd198 2.273 . S
O202 Cd200 2.411 . S
O202 C205 1.320 . S
O203 Cd200 2.333 . S
O203 C205 1.214 . S
O204 Cd200 2.352 . S
O204 C207 1.258 . S
C205 O202 1.320 . S
C205 O203 1.214 . S
O206 Cd198 2.277 . S
O206 C201 1.209 . S
C207 O204 1.258 . S
C207 O209 1.282 . S
O208 Cd200 2.277 . S
O208 C201 1.226 . S
O209 Cd200 2.356 . S
O209 C207 1.282 . S
C210 O211 1.306 . S
C210 O213 1.160 . S
O211 C210 1.306 . S
O211 Cd212 2.228 . S
Cd212 O211 2.228 . S
Cd212 O216 2.273 . S
Cd212 O220 2.277 . S
O213 C210 1.160 . S
O213 Cd214 2.203 . S
Cd214 O213 2.203 . S
Cd214 O216 2.411 . S
Cd214 O217 2.333 . S
Cd214 O218 2.352 . S
Cd214 O222 2.277 . S
Cd214 O223 2.356 . S
C215 O220 1.209 . S
C215 O222 1.226 . S
O216 Cd212 2.273 . S
O216 Cd214 2.411 . S
O216 C219 1.320 . S
O217 Cd214 2.333 . S
O217 C219 1.214 . S
O218 Cd214 2.352 . S
O218 C221 1.258 . S
C219 O216 1.320 . S
C219 O217 1.214 . S
O220 Cd212 2.277 . S
O220 C215 1.209 . S
C221 O218 1.258 . S
C221 O223 1.282 . S
O222 Cd214 2.277 . S
O222 C215 1.226 . S
O223 Cd214 2.356 . S
O223 C221 1.282 . S
C224 O225 1.306 . S
C224 O227 1.160 . S
O225 C224 1.306 . S
O225 Cd226 2.228 . S
Cd226 O225 2.228 . S
Cd226 O230 2.273 . S
Cd226 O234 2.277 . S
O227 C224 1.160 . S
O227 Cd228 2.203 . S
Cd228 O227 2.203 . S
Cd228 O230 2.411 . S
Cd228 O231 2.333 . S
Cd228 O232 2.352 . S
Cd228 O236 2.277 . S
Cd228 O237 2.356 . S
C229 O234 1.209 . S
C229 O236 1.226 . S
O230 Cd226 2.273 . S
O230 Cd228 2.411 . S
O230 C233 1.320 . S
O231 Cd228 2.333 . S
O231 C233 1.214 . S
O232 Cd228 2.352 . S
O232 C235 1.258 . S
C233 O230 1.320 . S
C233 O231 1.214 . S
O234 Cd226 2.277 . S
O234 C229 1.209 . S
C235 O232 1.258 . S
C235 O237 1.282 . S
O236 Cd228 2.277 . S
O236 C229 1.226 . S
O237 Cd228 2.356 . S
O237 C235 1.282 . S
C238 O239 1.306 . S
C238 O241 1.160 . S
O239 C238 1.306 . S
O239 Cd240 2.228 . S
Cd240 O239 2.228 . S
Cd240 O244 2.273 . S
Cd240 O248 2.277 . S
O241 C238 1.160 . S
O241 Cd242 2.203 . S
Cd242 O241 2.203 . S
Cd242 O244 2.411 . S
Cd242 O245 2.333 . S
Cd242 O246 2.352 . S
Cd242 O250 2.277 . S
Cd242 O251 2.356 . S
C243 O248 1.209 . S
C243 O250 1.226 . S
O244 Cd240 2.273 . S
O244 Cd242 2.411 . S
O244 C247 1.320 . S
O245 Cd242 2.333 . S
O245 C247 1.214 . S
O246 Cd242 2.352 . S
O246 C249 1.258 . S
C247 O244 1.320 . S
C247 O245 1.214 . S
O248 Cd240 2.277 . S
O248 C243 1.209 . S
C249 O246 1.258 . S
C249 O251 1.282 . S
O250 Cd242 2.277 . S
O250 C243 1.226 . S
O251 Cd242 2.356 . S
O251 C249 1.282 . S
C252 O253 1.306 . S
C252 O255 1.160 . S
O253 C252 1.306 . S
O253 Cd254 2.228 . S
Cd254 O253 2.228 . S
Cd254 O258 2.273 . S
Cd254 O262 2.277 . S
O255 C252 1.160 . S
O255 Cd256 2.203 . S
Cd256 O255 2.203 . S
Cd256 O258 2.411 . S
Cd256 O259 2.333 . S
Cd256 O260 2.352 . S
Cd256 O264 2.277 . S
Cd256 O265 2.356 . S
C257 O262 1.209 . S
C257 O264 1.226 . S
O258 Cd254 2.273 . S
O258 Cd256 2.411 . S
O258 C261 1.320 . S
O259 Cd256 2.333 . S
O259 C261 1.214 . S
O260 Cd256 2.352 . S
O260 C263 1.258 . S
C261 O258 1.320 . S
C261 O259 1.214 . S
O262 Cd254 2.277 . S
O262 C257 1.209 . S
C263 O260 1.258 . S
C263 O265 1.282 . S
O264 Cd256 2.277 . S
O264 C257 1.226 . S
O265 Cd256 2.356 . S
O265 C263 1.282 . S
C266 O267 1.306 . S
C266 O269 1.160 . S
O267 C266 1.306 . S
O267 Cd268 2.228 . S
Cd268 O267 2.228 . S
Cd268 O272 2.273 . S
Cd268 O276 2.277 . S
O269 C266 1.160 . S
O269 Cd270 2.203 . S
Cd270 O269 2.203 . S
Cd270 O272 2.411 . S
Cd270 O273 2.333 . S
Cd270 O274 2.352 . S
Cd270 O278 2.277 . S
Cd270 O279 2.356 . S
C271 O276 1.209 . S
C271 O278 1.226 . S
O272 Cd268 2.273 . S
O272 Cd270 2.411 . S
O272 C275 1.320 . S
O273 Cd270 2.333 . S
O273 C275 1.214 . S
O274 Cd270 2.352 . S
O274 C277 1.258 . S
C275 O272 1.320 . S
C275 O273 1.214 . S
O276 Cd268 2.277 . S
O276 C271 1.209 . S
C277 O274 1.258 . S
C277 O279 1.282 . S
O278 Cd270 2.277 . S
O278 C271 1.226 . S
O279 Cd270 2.356 . S
O279 C277 1.282 . S
C280 O281 1.306 . S
C280 O283 1.160 . S
O281 C280 1.306 . S
O281 Cd282 2.228 . S
Cd282 O281 2.228 . S
Cd282 O286 2.273 . S
Cd282 O290 2.277 . S
O283 C280 1.160 . S
O283 Cd284 2.203 . S
Cd284 O283 2.203 . S
Cd284 O286 2.411 . S
Cd284 O287 2.333 . S
Cd284 O288 2.352 . S
Cd284 O292 2.277 . S
Cd284 O293 2.356 . S
C285 O290 1.209 . S
C285 O292 1.226 . S
O286 Cd282 2.273 . S
O286 Cd284 2.411 . S
O286 C289 1.320 . S
O287 Cd284 2.333 . S
O287 C289 1.214 . S
O288 Cd284 2.352 . S
O288 C291 1.258 . S
C289 O286 1.320 . S
C289 O287 1.214 . S
O290 Cd282 2.277 . S
O290 C285 1.209 . S
C291 O288 1.258 . S
C291 O293 1.282 . S
O292 Cd284 2.277 . S
O292 C285 1.226 . S
O293 Cd284 2.356 . S
O293 C291 1.282 . S
C294 O295 1.306 . S
C294 O297 1.160 . S
O295 C294 1.306 . S
O295 Cd296 2.228 . S
Cd296 O295 2.228 . S
Cd296 O300 2.273 . S
Cd296 O304 2.277 . S
O297 C294 1.160 . S
O297 Cd298 2.203 . S
Cd298 O297 2.203 . S
Cd298 O300 2.411 . S
Cd298 O301 2.333 . S
Cd298 O302 2.352 . S
Cd298 O306 2.277 . S
Cd298 O307 2.356 . S
C299 O304 1.209 . S
C299 O306 1.226 . S
O300 Cd296 2.273 . S
O300 Cd298 2.411 . S
O300 C303 1.320 . S
O301 Cd298 2.333 . S
O301 C303 1.214 . S
O302 Cd298 2.352 . S
O302 C305 1.258 . S
C303 O300 1.320 . S
C303 O301 1.214 . S
O304 Cd296 2.277 . S
O304 C299 1.209 . S
C305 O302 1.258 . S
C305 O307 1.282 . S
O306 Cd298 2.277 . S
O306 C299 1.226 . S
O307 Cd298 2.356 . S
O307 C305 1.282 . S
C308 O309 1.306 . S
C308 O311 1.160 . S
O309 C308 1.306 . S
O309 Cd310 2.228 . S
Cd310 O309 2.228 . S
Cd310 O314 2.273 . S
Cd310 O318 2.277 . S
O311 C308 1.160 . S
O311 Cd312 2.203 . S
Cd312 O311 2.203 . S
Cd312 O314 2.411 . S
Cd312 O315 2.333 . S
Cd312 O316 2.352 . S
Cd312 O320 2.277 . S
Cd312 O321 2.356 . S
C313 O318 1.209 . S
C313 O320 1.226 . S
O314 Cd310 2.273 . S
O314 Cd312 2.411 . S
O314 C317 1.320 . S
O315 Cd312 2.333 . S
O315 C317 1.214 . S
O316 Cd312 2.352 . S
O316 C319 1.258 . S
C317 O314 1.320 . S
C317 O315 1.214 . S
O318 Cd310 2.277 . S
O318 C313 1.209 . S
C319 O316 1.258 . S
C319 O321 1.282 . S
O320 Cd312 2.277 . S
O320 C313 1.226 . S
O321 Cd312 2.356 . S
O321 C319 1.282 . S
C322 O323 1.306 . S
C322 O325 1.160 . S
O323 C322 1.306 . S
O323 Cd324 2.228 . S
Cd324 O323 2.228 . S
Cd324 O328 2.273 . S
Cd324 O332 2.277 . S
O325 C322 1.160 . S
O325 Cd326 2.203 . S
Cd326 O325 2.203 . S
Cd326 O328 2.411 . S
Cd326 O329 2.333 . S
Cd326 O330 2.352 . S
Cd326 O334 2.277 . S
Cd326 O335 2.356 . S
C327 O332 1.209 . S
C327 O334 1.226 . S
O328 Cd324 2.273 . S
O328 Cd326 2.411 . S
O328 C331 1.320 . S
O329 Cd326 2.333 . S
O329 C331 1.214 . S
O330 Cd326 2.352 . S
O330 C333 1.258 . S
C331 O328 1.320 . S
C331 O329 1.214 . S
O332 Cd324 2.277 . S
O332 C327 1.209 . S
C333 O330 1.258 . S
C333 O335 1.282 . S
O334 Cd326 2.277 . S
O334 C327 1.226 . S
O335 Cd326 2.356 . S
O335 C333 1.282 . S
C336 O337 1.306 . S
C336 O339 1.160 . S
O337 C336 1.306 . S
O337 Cd338 2.228 . S
Cd338 O337 2.228 . S
Cd338 O342 2.273 . S
Cd338 O346 2.277 . S
O339 C336 1.160 . S
O339 Cd340 2.203 . S
Cd340 O339 2.203 . S
Cd340 O342 2.411 . S
Cd340 O343 2.333 . S
Cd340 O344 2.352 . S
Cd340 O348 2.277 . S
Cd340 O349 2.356 . S
C341 O346 1.209 . S
C341 O348 1.226 . S
O342 Cd338 2.273 . S
O342 Cd340 2.411 . S
O342 C345 1.320 . S
O343 Cd340 2.333 . S
O343 C345 1.214 . S
O344 Cd340 2.352 . S
O344 C347 1.258 . S
C345 O342 1.320 . S
C345 O343 1.214 . S
O346 Cd338 2.277 . S
O346 C341 1.209 . S
C347 O344 1.258 . S
C347 O349 1.282 . S
O348 Cd340 2.277 . S
O348 C341 1.226 . S
O349 Cd340 2.356 . S
O349 C347 1.282 . S
C350 O351 1.306 . S
C350 O353 1.160 . S
O351 C350 1.306 . S
O351 Cd352 2.228 . S
Cd352 O351 2.228 . S
Cd352 O356 2.273 . S
Cd352 O360 2.277 . S
O353 C350 1.160 . S
O353 Cd354 2.203 . S
Cd354 O353 2.203 . S
Cd354 O356 2.411 . S
Cd354 O357 2.333 . S
Cd354 O358 2.352 . S
Cd354 O362 2.277 . S
Cd354 O363 2.356 . S
C355 O360 1.209 . S
C355 O362 1.226 . S
O356 Cd352 2.273 . S
O356 Cd354 2.411 . S
O356 C359 1.320 . S
O357 Cd354 2.333 . S
O357 C359 1.214 . S
O358 Cd354 2.352 . S
O358 C361 1.258 . S
C359 O356 1.320 . S
C359 O357 1.214 . S
O360 Cd352 2.277 . S
O360 C355 1.209 . S
C361 O358 1.258 . S
C361 O363 1.282 . S
O362 Cd354 2.277 . S
O362 C355 1.226 . S
O363 Cd354 2.356 . S
O363 C361 1.282 . S
C364 O365 1.306 . S
C364 O367 1.160 . S
O365 C364 1.306 . S
O365 Cd366 2.228 . S
Cd366 O365 2.228 . S
Cd366 O370 2.273 . S
Cd366 O374 2.277 . S
O367 C364 1.160 . S
O367 Cd368 2.203 . S
Cd368 O367 2.203 . S
Cd368 O370 2.411 . S
Cd368 O371 2.333 . S
Cd368 O372 2.352 . S
Cd368 O376 2.277 . S
Cd368 O377 2.356 . S
C369 O374 1.209 . S
C369 O376 1.226 . S
O370 Cd366 2.273 . S
O370 Cd368 2.411 . S
O370 C373 1.320 . S
O371 Cd368 2.333 . S
O371 C373 1.214 . S
O372 Cd368 2.352 . S
O372 C375 1.258 . S
C373 O370 1.320 . S
C373 O371 1.214 . S
O374 Cd366 2.277 . S
O374 C369 1.209 . S
C375 O372 1.258 . S
C375 O377 1.282 . S
O376 Cd368 2.277 . S
O376 C369 1.226 . S
O377 Cd368 2.356 . S
O377 C375 1.282 . S
C378 O379 1.306 . S
C378 O381 1.160 . S
O379 C378 1.306 . S
O379 Cd380 2.228 . S
Cd380 O379 2.228 . S
Cd380 O384 2.273 . S
Cd380 O388 2.277 . S
O381 C378 1.160 . S
O381 Cd382 2.203 . S
Cd382 O381 2.203 . S
Cd382 O384 2.411 . S
Cd382 O385 2.333 . S
Cd382 O386 2.352 . S
Cd382 O390 2.277 . S
Cd382 O391 2.356 . S
C383 O388 1.209 . S
C383 O390 1.226 . S
O384 Cd380 2.273 . S
O384 Cd382 2.411 . S
O384 C387 1.320 . S
O385 Cd382 2.333 . S
O385 C387 1.214 . S
O386 Cd382 2.352 . S
O386 C389 1.258 . S
C387 O384 1.320 . S
C387 O385 1.214 . S
O388 Cd380 2.277 . S
O388 C383 1.209 . S
C389 O386 1.258 . S
C389 O391 1.282 . S
O390 Cd382 2.277 . S
O390 C383 1.226 . S
O391 Cd382 2.356 . S
O391 C389 1.282 . S
C392 O393 1.306 . S
C392 O395 1.160 . S
O393 C392 1.306 . S
O393 Cd394 2.228 . S
Cd394 O393 2.228 . S
Cd394 O398 2.273 . S
Cd394 O402 2.277 . S
O395 C392 1.160 . S
O395 Cd396 2.203 . S
Cd396 O395 2.203 . S
Cd396 O398 2.411 . S
Cd396 O399 2.333 . S
Cd396 O400 2.352 . S
Cd396 O404 2.277 . S
Cd396 O405 2.356 . S
C397 O402 1.209 . S
C397 O404 1.226 . S
O398 Cd394 2.273 . S
O398 Cd396 2.411 . S
O398 C401 1.320 . S
O399 Cd396 2.333 . S
O399 C401 1.214 . S
O400 Cd396 2.352 . S
O400 C403 1.258 . S
C401 O398 1.320 . S
C401 O399 1.214 . S
O402 Cd394 2.277 . S
O402 C397 1.209 . S
C403 O400 1.258 . S
C403 O405 1.282 . S
O404 Cd396 2.277 . S
O404 C397 1.226 . S
O405 Cd396 2.356 . S
O405 C403 1.282 . S
C406 O407 1.306 . S
C406 O409 1.160 . S
O407 C406 1.306 . S
O407 Cd408 2.228 . S
Cd408 O407 2.228 . S
Cd408 O412 2.273 . S
Cd408 O416 2.277 . S
O409 C406 1.160 . S
O409 Cd410 2.203 . S
Cd410 O409 2.203 . S
Cd410 O412 2.411 . S
Cd410 O413 2.333 . S
Cd410 O414 2.352 . S
Cd410 O418 2.277 . S
Cd410 O419 2.356 . S
C411 O416 1.209 . S
C411 O418 1.226 . S
O412 Cd408 2.273 . S
O412 Cd410 2.411 . S
O412 C415 1.320 . S
O413 Cd410 2.333 . S
O413 C415 1.214 . S
O414 Cd410 2.352 . S
O414 C417 1.258 . S
C415 O412 1.320 . S
C415 O413 1.214 . S
O416 Cd408 2.277 . S
O416 C411 1.209 . S
C417 O414 1.258 . S
C417 O419 1.282 . S
O418 Cd410 2.277 . S
O418 C411 1.226 . S
O419 Cd410 2.356 . S
O419 C417 1.282 . S
C420 O421 1.306 . S
C420 O423 1.160 . S
O421 C420 1.306 . S
O421 Cd422 2.228 . S
Cd422 O421 2.228 . S
Cd422 O426 2.273 . S
Cd422 O430 2.277 . S
O423 C420 1.160 . S
O423 Cd424 2.203 . S
Cd424 O423 2.203 . S
Cd424 O426 2.411 . S
Cd424 O427 2.333 . S
Cd424 O428 2.352 . S
Cd424 O432 2.277 . S
Cd424 O433 2.356 . S
C425 O430 1.209 . S
C425 O432 1.226 . S
O426 Cd422 2.273 . S
O426 Cd424 2.411 . S
O426 C429 1.320 . S
O427 Cd424 2.333 . S
O427 C429 1.214 . S
O428 Cd424 2.352 . S
O428 C431 1.258 . S
C429 O426 1.320 . S
C429 O427 1.214 . S
O430 Cd422 2.277 . S
O430 C425 1.209 . S
C431 O428 1.258 . S
C431 O433 1.282 . S
O432 Cd424 2.277 . S
O432 C425 1.226 . S
O433 Cd424 2.356 . S
O433 C431 1.282 . S
C434 O435 1.306 . S
C434 O437 1.160 . S
O435 C434 1.306 . S
O435 Cd436 2.228 . S
Cd436 O435 2.228 . S
Cd436 O440 2.273 . S
Cd436 O444 2.277 . S
O437 C434 1.160 . S
O437 Cd438 2.203 . S
Cd438 O437 2.203 . S
Cd438 O440 2.411 . S
Cd438 O441 2.333 . S
Cd438 O442 2.352 . S
Cd438 O446 2.277 . S
Cd438 O447 2.356 . S
C439 O444 1.209 . S
C439 O446 1.226 . S
O440 Cd436 2.273 . S
O440 Cd438 2.411 . S
O440 C443 1.320 . S
O441 Cd438 2.333 . S
O441 C443 1.214 . S
O442 Cd438 2.352 . S
O442 C445 1.258 . S
C443 O440 1.320 . S
C443 O441 1.214 . S
O444 Cd436 2.277 . S
O444 C439 1.209 . S
C445 O442 1.258 . S
C445 O447 1.282 . S
O446 Cd438 2.277 . S
O446 C439 1.226 . S
O447 Cd438 2.356 . S
O447 C445 1.282 . S
C448 O449 1.306 . S
C448 O451 1.160 . S
O449 C448 1.306 . S
O449 Cd450 2.228 . S
Cd450 O449 2.228 . S
Cd450 O454 2.273 . S
Cd450 O458 2.277 . S
O451 C448 1.160 . S
O451 Cd452 2.203 . S
Cd452 O451 2.203 . S
Cd452 O454 2.411 . S
Cd452 O455 2.333 . S
Cd452 O456 2.352 . S
Cd452 O460 2.277 . S
Cd452 O461 2.356 . S
C453 O458 1.209 . S
C453 O460 1.226 . S
O454 Cd450 2.273 . S
O454 Cd452 2.411 . S
O454 C457 1.320 . S
O455 Cd452 2.333 . S
O455 C457 1.214 . S
O456 Cd452 2.352 . S
O456 C459 1.258 . S
C457 O454 1.320 . S
C457 O455 1.214 . S
O458 Cd450 2.277 . S
O458 C453 1.209 . S
C459 O456 1.258 . S
C459 O461 1.282 . S
O460 Cd452 2.277 . S
O460 C453 1.226 . S
O461 Cd452 2.356 . S
O461 C459 1.282 . S
C462 O463 1.306 . S
C462 O465 1.160 . S
O463 C462 1.306 . S
O463 Cd464 2.228 . S
Cd464 O463 2.228 . S
Cd464 O468 2.273 . S
Cd464 O472 2.277 . S
O465 C462 1.160 . S
O465 Cd466 2.203 . S
Cd466 O465 2.203 . S
Cd466 O468 2.411 . S
Cd466 O469 2.333 . S
Cd466 O470 2.352 . S
Cd466 O474 2.277 . S
Cd466 O475 2.356 . S
C467 O472 1.209 . S
C467 O474 1.226 . S
O468 Cd464 2.273 . S
O468 Cd466 2.411 . S
O468 C471 1.320 . S
O469 Cd466 2.333 . S
O469 C471 1.214 . S
O470 Cd466 2.352 . S
O470 C473 1.258 . S
C471 O468 1.320 . S
C471 O469 1.214 . S
O472 Cd464 2.277 . S
O472 C467 1.209 . S
C473 O470 1.258 . S
C473 O475 1.282 . S
O474 Cd466 2.277 . S
O474 C467 1.226 . S
O475 Cd466 2.356 . S
O475 C473 1.282 . S
C476 O477 1.306 . S
C476 O479 1.160 . S
O477 C476 1.306 . S
O477 Cd478 2.228 . S
Cd478 O477 2.228 . S
Cd478 O482 2.273 . S
Cd478 O486 2.277 . S
O479 C476 1.160 . S
O479 Cd480 2.203 . S
Cd480 O479 2.203 . S
Cd480 O482 2.411 . S
Cd480 O483 2.333 . S
Cd480 O484 2.352 . S
Cd480 O488 2.277 . S
Cd480 O489 2.356 . S
C481 O486 1.209 . S
C481 O488 1.226 . S
O482 Cd478 2.273 . S
O482 Cd480 2.411 . S
O482 C485 1.320 . S
O483 Cd480 2.333 . S
O483 C485 1.214 . S
O484 Cd480 2.352 . S
O484 C487 1.258 . S
C485 O482 1.320 . S
C485 O483 1.214 . S
O486 Cd478 2.277 . S
O486 C481 1.209 . S
C487 O484 1.258 . S
C487 O489 1.282 . S
O488 Cd480 2.277 . S
O488 C481 1.226 . S
O489 Cd480 2.356 . S
O489 C487 1.282 . S
C490 O491 1.306 . S
C490 O493 1.160 . S
O491 C490 1.306 . S
O491 Cd492 2.228 . S
Cd492 O491 2.228 . S
Cd492 O496 2.273 . S
Cd492 O500 2.277 . S
O493 C490 1.160 . S
O493 Cd494 2.203 . S
Cd494 O493 2.203 . S
Cd494 O496 2.411 . S
Cd494 O497 2.333 . S
Cd494 O498 2.352 . S
Cd494 O502 2.277 . S
Cd494 O503 2.356 . S
C495 O500 1.209 . S
C495 O502 1.226 . S
O496 Cd492 2.273 . S
O496 Cd494 2.411 . S
O496 C499 1.320 . S
O497 Cd494 2.333 . S
O497 C499 1.214 . S
O498 Cd494 2.352 . S
O498 C501 1.258 . S
C499 O496 1.320 . S
C499 O497 1.214 . S
O500 Cd492 2.277 . S
O500 C495 1.209 . S
C501 O498 1.258 . S
C501 O503 1.282 . S
O502 Cd494 2.277 . S
O502 C495 1.226 . S
O503 Cd494 2.356 . S
O503 C501 1.282 . S
C504 O505 1.306 . S
C504 O507 1.160 . S
O505 C504 1.306 . S
O505 Cd506 2.228 . S
Cd506 O505 2.228 . S
Cd506 O510 2.273 . S
Cd506 O514 2.277 . S
O507 C504 1.160 . S
O507 Cd508 2.203 . S
Cd508 O507 2.203 . S
Cd508 O510 2.411 . S
Cd508 O511 2.333 . S
Cd508 O512 2.352 . S
Cd508 O516 2.277 . S
Cd508 O517 2.356 . S
C509 O514 1.209 . S
C509 O516 1.226 . S
O510 Cd506 2.273 . S
O510 Cd508 2.411 . S
O510 C513 1.320 . S
O511 Cd508 2.333 . S
O511 C513 1.214 . S
O512 Cd508 2.352 . S
O512 C515 1.258 . S
C513 O510 1.320 . S
C513 O511 1.214 . S
O514 Cd506 2.277 . S
O514 C509 1.209 . S
C515 O512 1.258 . S
C515 O517 1.282 . S
O516 Cd508 2.277 . S
O516 C509 1.226 . S
O517 Cd508 2.356 . S
O517 C515 1.282 . S
C518 O519 1.306 . S
C518 O521 1.160 . S
O519 C518 1.306 . S
O519 Cd520 2.228 . S
Cd520 O519 2.228 . S
Cd520 O524 2.273 . S
Cd520 O528 2.277 . S
O521 C518 1.160 . S
O521 Cd522 2.203 . S
Cd522 O521 2.203 . S
Cd522 O524 2.411 . S
Cd522 O525 2.333 . S
Cd522 O526 2.352 . S
Cd522 O530 2.277 . S
Cd522 O531 2.356 . S
C523 O528 1.209 . S
C523 O530 1.226 . S
O524 Cd520 2.273 . S
O524 Cd522 2.411 . S
O524 C527 1.320 . S
O525 Cd522 2.333 . S
O525 C527 1.214 . S
O526 Cd522 2.352 . S
O526 C529 1.258 . S
C527 O524 1.320 . S
C527 O525 1.214 . S
O528 Cd520 2.277 . S
O528 C523 1.209 . S
C529 O526 1.258 . S
C529 O531 1.282 . S
O530 Cd522 2.277 . S
O530 C523 1.226 . S
O531 Cd522 2.356 . S
O531 C529 1.282 . S
C532 O533 1.306 . S
C532 O535 1.160 . S
O533 C532 1.306 . S
O533 Cd534 2.228 . S
Cd534 O533 2.228 . S
Cd534 O538 2.273 . S
Cd534 O542 2.277 . S
O535 C532 1.160 . S
O535 Cd536 2.203 . S
Cd536 O535 2.203 . S
Cd536 O538 2.411 . S
Cd536 O539 2.333 . S
Cd536 O540 2.352 . S
Cd536 O544 2.277 . S
Cd536 O545 2.356 . S
C537 O542 1.209 . S
C537 O544 1.226 . S
O538 Cd534 2.273 . S
O538 Cd536 2.411 . S
O538 C541 1.320 . S
O539 Cd536 2.333 . S
O539 C541 1.214 . S
O540 Cd536 2.352 . S
O540 C543 1.258 . S
C541 O538 1.320 . S
C541 O539 1.214 . S
O542 Cd534 2.277 . S
O542 C537 1.209 . S
C543 O540 1.258 . S
C543 O545 1.282 . S
O544 Cd536 2.277 . S
O544 C537 1.226 . S
O545 Cd536 2.356 . S
O545 C543 1.282 . S
C546 O547 1.306 . S
C546 O549 1.160 . S
O547 C546 1.306 . S
O547 Cd548 2.228 . S
Cd548 O547 2.228 . S
Cd548 O552 2.273 . S
Cd548 O556 2.277 . S
O549 C546 1.160 . S
O549 Cd550 2.203 . S
Cd550 O549 2.203 . S
Cd550 O552 2.411 . S
Cd550 O553 2.333 . S
Cd550 O554 2.352 . S
Cd550 O558 2.277 . S
Cd550 O559 2.356 . S
C551 O556 1.209 . S
C551 O558 1.226 . S
O552 Cd548 2.273 . S
O552 Cd550 2.411 . S
O552 C555 1.320 . S
O553 Cd550 2.333 . S
O553 C555 1.214 . S
O554 Cd550 2.352 . S
O554 C557 1.258 . S
C555 O552 1.320 . S
C555 O553 1.214 . S
O556 Cd548 2.277 . S
O556 C551 1.209 . S
C557 O554 1.258 . S
C557 O559 1.282 . S
O558 Cd550 2.277 . S
O558 C551 1.226 . S
O559 Cd550 2.356 . S
O559 C557 1.282 . S
C560 O561 1.306 . S
C560 O563 1.160 . S
O561 C560 1.306 . S
O561 Cd562 2.228 . S
Cd562 O561 2.228 . S
Cd562 O566 2.273 . S
Cd562 O570 2.277 . S
O563 C560 1.160 . S
O563 Cd564 2.203 . S
Cd564 O563 2.203 . S
Cd564 O566 2.411 . S
Cd564 O567 2.333 . S
Cd564 O568 2.352 . S
Cd564 O572 2.277 . S
Cd564 O573 2.356 . S
C565 O570 1.209 . S
C565 O572 1.226 . S
O566 Cd562 2.273 . S
O566 Cd564 2.411 . S
O566 C569 1.320 . S
O567 Cd564 2.333 . S
O567 C569 1.214 . S
O568 Cd564 2.352 . S
O568 C571 1.258 . S
C569 O566 1.320 . S
C569 O567 1.214 . S
O570 Cd562 2.277 . S
O570 C565 1.209 . S
C571 O568 1.258 . S
C571 O573 1.282 . S
O572 Cd564 2.277 . S
O572 C565 1.226 . S
O573 Cd564 2.356 . S
O573 C571 1.282 . S
C574 O575 1.306 . S
C574 O577 1.160 . S
O575 C574 1.306 . S
O575 Cd576 2.228 . S
Cd576 O575 2.228 . S
Cd576 O580 2.273 . S
Cd576 O584 2.277 . S
O577 C574 1.160 . S
O577 Cd578 2.203 . S
Cd578 O577 2.203 . S
Cd578 O580 2.411 . S
Cd578 O581 2.333 . S
Cd578 O582 2.352 . S
Cd578 O586 2.277 . S
Cd578 O587 2.356 . S
C579 O584 1.209 . S
C579 O586 1.226 . S
O580 Cd576 2.273 . S
O580 Cd578 2.411 . S
O580 C583 1.320 . S
O581 Cd578 2.333 . S
O581 C583 1.214 . S
O582 Cd578 2.352 . S
O582 C585 1.258 . S
C583 O580 1.320 . S
C583 O581 1.214 . S
O584 Cd576 2.277 . S
O584 C579 1.209 . S
C585 O582 1.258 . S
C585 O587 1.282 . S
O586 Cd578 2.277 . S
O586 C579 1.226 . S
O587 Cd578 2.356 . S
O587 C585 1.282 . S
C588 O589 1.306 . S
C588 O591 1.160 . S
O589 C588 1.306 . S
O589 Cd590 2.228 . S
Cd590 O589 2.228 . S
Cd590 O594 2.273 . S
Cd590 O598 2.277 . S
O591 C588 1.160 . S
O591 Cd592 2.203 . S
Cd592 O591 2.203 . S
Cd592 O594 2.411 . S
Cd592 O595 2.333 . S
Cd592 O596 2.352 . S
Cd592 O600 2.277 . S
Cd592 O601 2.356 . S
C593 O598 1.209 . S
C593 O600 1.226 . S
O594 Cd590 2.273 . S
O594 Cd592 2.411 . S
O594 C597 1.320 . S
O595 Cd592 2.333 . S
O595 C597 1.214 . S
O596 Cd592 2.352 . S
O596 C599 1.258 . S
C597 O594 1.320 . S
C597 O595 1.214 . S
O598 Cd590 2.277 . S
O598 C593 1.209 . S
C599 O596 1.258 . S
C599 O601 1.282 . S
O600 Cd592 2.277 . S
O600 C593 1.226 . S
O601 Cd592 2.356 . S
O601 C599 1.282 . S
C602 O603 1.306 . S
C602 O605 1.160 . S
O603 C602 1.306 . S
O603 Cd604 2.228 . S
Cd604 O603 2.228 . S
Cd604 O608 2.273 . S
Cd604 O612 2.277 . S
O605 C602 1.160 . S
O605 Cd606 2.203 . S
Cd606 O605 2.203 . S
Cd606 O608 2.411 . S
Cd606 O609 2.333 . S
Cd606 O610 2.352 . S
Cd606 O614 2.277 . S
Cd606 O615 2.356 . S
C607 O612 1.209 . S
C607 O614 1.226 . S
O608 Cd604 2.273 . S
O608 Cd606 2.411 . S
O608 C611 1.320 . S
O609 Cd606 2.333 . S
O609 C611 1.214 . S
O610 Cd606 2.352 . S
O610 C613 1.258 . S
C611 O608 1.320 . S
C611 O609 1.214 . S
O612 Cd604 2.277 . S
O612 C607 1.209 . S
C613 O610 1.258 . S
C613 O615 1.282 . S
O614 Cd606 2.277 . S
O614 C607 1.226 . S
O615 Cd606 2.356 . S
O615 C613 1.282 . S
C616 O617 1.306 . S
C616 O619 1.160 . S
O617 C616 1.306 . S
O617 Cd618 2.228 . S
Cd618 O617 2.228 . S
Cd618 O622 2.273 . S
Cd618 O626 2.277 . S
O619 C616 1.160 . S
O619 Cd620 2.203 . S
Cd620 O619 2.203 . S
Cd620 O622 2.411 . S
Cd620 O623 2.333 . S
Cd620 O624 2.352 . S
Cd620 O628 2.277 . S
Cd620 O629 2.356 . S
C621 O626 1.209 . S
C621 O628 1.226 . S
O622 Cd618 2.273 . S
O622 Cd620 2.411 . S
O622 C625 1.320 . S
O623 Cd620 2.333 . S
O623 C625 1.214 . S
O624 Cd620 2.352 . S
O624 C627 1.258 . S
C625 O622 1.320 . S
C625 O623 1.214 . S
O626 Cd618 2.277 . S
O626 C621 1.209 . S
C627 O624 1.258 . S
C627 O629 1.282 . S
O628 Cd620 2.277 . S
O628 C621 1.226 . S
O629 Cd620 2.356 . S
O629 C627 1.282 . S
C630 O631 1.306 . S
C630 O633 1.160 . S
O631 C630 1.306 . S
O631 Cd632 2.228 . S
Cd632 O631 2.228 . S
Cd632 O636 2.273 . S
Cd632 O640 2.277 . S
O633 C630 1.160 . S
O633 Cd634 2.203 . S
Cd634 O633 2.203 . S
Cd634 O636 2.411 . S
Cd634 O637 2.333 . S
Cd634 O638 2.352 . S
Cd634 O642 2.277 . S
Cd634 O643 2.356 . S
C635 O640 1.209 . S
C635 O642 1.226 . S
O636 Cd632 2.273 . S
O636 Cd634 2.411 . S
O636 C639 1.320 . S
O637 Cd634 2.333 . S
O637 C639 1.214 . S
O638 Cd634 2.352 . S
O638 C641 1.258 . S
C639 O636 1.320 . S
C639 O637 1.214 . S
O640 Cd632 2.277 . S
O640 C635 1.209 . S
C641 O638 1.258 . S
C641 O643 1.282 . S
O642 Cd634 2.277 . S
O642 C635 1.226 . S
O643 Cd634 2.356 . S
O643 C641 1.282 . S
C644 O645 1.306 . S
C644 O647 1.160 . S
O645 C644 1.306 . S
O645 Cd646 2.228 . S
Cd646 O645 2.228 . S
Cd646 O650 2.273 . S
Cd646 O654 2.277 . S
O647 C644 1.160 . S
O647 Cd648 2.203 . S
Cd648 O647 2.203 . S
Cd648 O650 2.411 . S
Cd648 O651 2.333 . S
Cd648 O652 2.352 . S
Cd648 O656 2.277 . S
Cd648 O657 2.356 . S
C649 O654 1.209 . S
C649 O656 1.226 . S
O650 Cd646 2.273 . S
O650 Cd648 2.411 . S
O650 C653 1.320 . S
O651 Cd648 2.333 . S
O651 C653 1.214 . S
O652 Cd648 2.352 . S
O652 C655 1.258 . S
C653 O650 1.320 . S
C653 O651 1.214 . S
O654 Cd646 2.277 . S
O654 C649 1.209 . S
C655 O652 1.258 . S
C655 O657 1.282 . S
O656 Cd648 2.277 . S
O656 C649 1.226 . S
O657 Cd648 2.356 . S
O657 C655 1.282 . S
C658 O659 1.306 . S
C658 O661 1.160 . S
O659 C658 1.306 . S
O659 Cd660 2.228 . S
Cd660 O659 2.228 . S
Cd660 O664 2.273 . S
Cd660 O668 2.277 . S
O661 C658 1.160 . S
O661 Cd662 2.203 . S
Cd662 O661 2.203 . S
Cd662 O664 2.411 . S
Cd662 O665 2.333 . S
Cd662 O666 2.352 . S
Cd662 O670 2.277 . S
Cd662 O671 2.356 . S
C663 O668 1.209 . S
C663 O670 1.226 . S
O664 Cd660 2.273 . S
O664 Cd662 2.411 . S
O664 C667 1.320 . S
O665 Cd662 2.333 . S
O665 C667 1.214 . S
O666 Cd662 2.352 . S
O666 C669 1.258 . S
C667 O664 1.320 . S
C667 O665 1.214 . S
O668 Cd660 2.277 . S
O668 C663 1.209 . S
C669 O666 1.258 . S
C669 O671 1.282 . S
O670 Cd662 2.277 . S
O670 C663 1.226 . S
O671 Cd662 2.356 . S
O671 C669 1.282 . S
H672 C680 0.950 . S
H673 C685 0.950 . S
H674 C682 0.950 . S
H675 C684 0.950 . S
H676 C686 0.950 . S
H677 C688 0.950 . S
H678 C690 0.950 . S
H679 C691 0.950 . S
C680 H672 0.950 . S
C680 C681 1.386 . S
C680 C682 1.391 . S
C681 C680 1.386 . S
C681 C685 1.393 . S
C682 H674 0.950 . S
C682 C680 1.391 . S
C682 C683 1.400 . S
C683 C682 1.400 . S
C683 C684 1.398 . S
C683 C689 1.491 . S
C684 H675 0.950 . S
C684 C683 1.398 . S
C684 C685 1.391 . S
C685 H673 0.950 . S
C685 C681 1.393 . S
C685 C684 1.391 . S
C686 H676 0.950 . S
C686 C687 1.386 . S
C686 C688 1.391 . S
C687 C686 1.386 . S
C687 C691 1.393 . S
C688 H677 0.950 . S
C688 C686 1.391 . S
C688 C689 1.400 . S
C689 C683 1.491 . S
C689 C688 1.400 . S
C689 C690 1.398 . S
C690 H678 0.950 . S
C690 C689 1.398 . S
C690 C691 1.391 . S
C691 H679 0.950 . S
C691 C687 1.393 . S
C691 C690 1.391 . S
H692 C700 0.950 . S
H693 C705 0.950 . S
H694 C702 0.950 . S
H695 C704 0.950 1_655 S
H696 C706 0.950 . S
H697 C708 0.950 . S
H698 C710 0.950 . S
H699 C711 0.950 . S
C700 H692 0.950 . S
C700 C701 1.386 . S
C700 C702 1.391 . S
C701 C700 1.386 . S
C701 C705 1.393 . S
C702 H694 0.950 . S
C702 C700 1.391 . S
C702 C703 1.400 1_455 S
C703 C702 1.400 1_655 S
C703 C704 1.398 1_655 S
C703 C709 1.491 . S
C704 H695 0.950 1_455 S
C704 C703 1.398 1_455 S
C704 C705 1.391 . S
C705 H693 0.950 . S
C705 C701 1.393 . S
C705 C704 1.391 . S
C706 H696 0.950 . S
C706 C707 1.386 . S
C706 C708 1.391 . S
C707 C706 1.386 . S
C707 C711 1.393 . S
C708 H697 0.950 . S
C708 C706 1.391 . S
C708 C709 1.400 . S
C709 C703 1.491 . S
C709 C708 1.400 . S
C709 C710 1.398 . S
C710 H698 0.950 . S
C710 C709 1.398 . S
C710 C711 1.391 . S
C711 H699 0.950 . S
C711 C707 1.393 . S
C711 C710 1.391 . S
H712 C720 0.950 . S
H713 C725 0.950 . S
H714 C722 0.950 . S
H715 C724 0.950 . S
H716 C726 0.950 . S
H717 C728 0.950 . S
H718 C730 0.950 . S
H719 C731 0.950 . S
C720 H712 0.950 . S
C720 C721 1.386 . S
C720 C722 1.391 . S
C721 C720 1.386 . S
C721 C725 1.393 . S
C722 H714 0.950 . S
C722 C720 1.391 . S
C722 C723 1.400 . S
C723 C722 1.400 . S
C723 C724 1.398 . S
C723 C729 1.491 . S
C724 H715 0.950 . S
C724 C723 1.398 . S
C724 C725 1.391 . S
C725 H713 0.950 . S
C725 C721 1.393 . S
C725 C724 1.391 . S
C726 H716 0.950 . S
C726 C727 1.386 . S
C726 C728 1.391 . S
C727 C726 1.386 . S
C727 C731 1.393 . S
C728 H717 0.950 . S
C728 C726 1.391 . S
C728 C729 1.400 . S
C729 C723 1.491 . S
C729 C728 1.400 . S
C729 C730 1.398 . S
C730 H718 0.950 . S
C730 C729 1.398 . S
C730 C731 1.391 . S
C731 H719 0.950 . S
C731 C727 1.393 . S
C731 C730 1.391 . S
H732 C740 0.950 . S
H733 C745 0.950 . S
H734 C742 0.950 . S
H735 C744 0.950 . S
H736 C746 0.950 . S
H737 C748 0.950 . S
H738 C750 0.950 . S
H739 C751 0.950 . S
C740 H732 0.950 . S
C740 C741 1.386 . S
C740 C742 1.391 . S
C741 C740 1.386 . S
C741 C745 1.393 . S
C742 H734 0.950 . S
C742 C740 1.391 . S
C742 C743 1.400 . S
C743 C742 1.400 . S
C743 C744 1.398 . S
C743 C749 1.491 . S
C744 H735 0.950 . S
C744 C743 1.398 . S
C744 C745 1.391 . S
C745 H733 0.950 . S
C745 C741 1.393 . S
C745 C744 1.391 . S
C746 H736 0.950 . S
C746 C747 1.386 . S
C746 C748 1.391 . S
C747 C746 1.386 . S
C747 C751 1.393 . S
C748 H737 0.950 . S
C748 C746 1.391 . S
C748 C749 1.400 . S
C749 C743 1.491 . S
C749 C748 1.400 . S
C749 C750 1.398 . S
C750 H738 0.950 . S
C750 C749 1.398 . S
C750 C751 1.391 . S
C751 H739 0.950 . S
C751 C747 1.393 . S
C751 C750 1.391 . S
H752 C760 0.950 . S
H753 C765 0.950 . S
H754 C762 0.950 . S
H755 C764 0.950 . S
H756 C766 0.950 . S
H757 C768 0.950 . S
H758 C770 0.950 . S
H759 C771 0.950 . S
C760 H752 0.950 . S
C760 C761 1.386 . S
C760 C762 1.391 . S
C761 C760 1.386 . S
C761 C765 1.393 . S
C762 H754 0.950 . S
C762 C760 1.391 . S
C762 C763 1.400 . S
C763 C762 1.400 . S
C763 C764 1.398 . S
C763 C769 1.491 . S
C764 H755 0.950 . S
C764 C763 1.398 . S
C764 C765 1.391 . S
C765 H753 0.950 . S
C765 C761 1.393 . S
C765 C764 1.391 . S
C766 H756 0.950 . S
C766 C767 1.386 . S
C766 C768 1.391 . S
C767 C766 1.386 . S
C767 C771 1.393 . S
C768 H757 0.950 . S
C768 C766 1.391 . S
C768 C769 1.400 . S
C769 C763 1.491 . S
C769 C768 1.400 . S
C769 C770 1.398 . S
C770 H758 0.950 . S
C770 C769 1.398 . S
C770 C771 1.391 . S
C771 H759 0.950 . S
C771 C767 1.393 . S
C771 C770 1.391 . S
H772 C780 0.950 . S
H773 C785 0.950 . S
H774 C782 0.950 . S
H775 C784 0.950 . S
H776 C786 0.950 . S
H777 C788 0.950 . S
H778 C790 0.950 . S
H779 C791 0.950 . S
C780 H772 0.950 . S
C780 C781 1.386 . S
C780 C782 1.391 . S
C781 C780 1.386 . S
C781 C785 1.393 . S
C782 H774 0.950 . S
C782 C780 1.391 . S
C782 C783 1.400 . S
C783 C782 1.400 . S
C783 C784 1.398 . S
C783 C789 1.491 . S
C784 H775 0.950 . S
C784 C783 1.398 . S
C784 C785 1.391 . S
C785 H773 0.950 . S
C785 C781 1.393 . S
C785 C784 1.391 . S
C786 H776 0.950 . S
C786 C787 1.386 . S
C786 C788 1.391 . S
C787 C786 1.386 . S
C787 C791 1.393 . S
C788 H777 0.950 . S
C788 C786 1.391 . S
C788 C789 1.400 . S
C789 C783 1.491 . S
C789 C788 1.400 . S
C789 C790 1.398 . S
C790 H778 0.950 . S
C790 C789 1.398 . S
C790 C791 1.391 . S
C791 H779 0.950 . S
C791 C787 1.393 . S
C791 C790 1.391 . S
H792 C800 0.950 . S
H793 C805 0.950 . S
H794 C802 0.950 . S
H795 C804 0.950 . S
H796 C806 0.950 . S
H797 C808 0.950 . S
H798 C810 0.950 . S
H799 C811 0.950 . S
C800 H792 0.950 . S
C800 C801 1.386 . S
C800 C802 1.391 . S
C801 C800 1.386 . S
C801 C805 1.393 . S
C802 H794 0.950 . S
C802 C800 1.391 . S
C802 C803 1.400 . S
C803 C802 1.400 . S
C803 C804 1.398 . S
C803 C809 1.491 . S
C804 H795 0.950 . S
C804 C803 1.398 . S
C804 C805 1.391 . S
C805 H793 0.950 . S
C805 C801 1.393 . S
C805 C804 1.391 . S
C806 H796 0.950 . S
C806 C807 1.386 . S
C806 C808 1.391 . S
C807 C806 1.386 . S
C807 C811 1.393 . S
C808 H797 0.950 . S
C808 C806 1.391 . S
C808 C809 1.400 . S
C809 C803 1.491 . S
C809 C808 1.400 . S
C809 C810 1.398 . S
C810 H798 0.950 . S
C810 C809 1.398 . S
C810 C811 1.391 . S
C811 H799 0.950 . S
C811 C807 1.393 . S
C811 C810 1.391 . S
H812 C820 0.950 . S
H813 C825 0.950 . S
H814 C822 0.950 1_655 S
H815 C824 0.950 . S
H816 C826 0.950 . S
H817 C828 0.950 . S
H818 C830 0.950 . S
H819 C831 0.950 . S
C820 H812 0.950 . S
C820 C821 1.386 . S
C820 C822 1.391 . S
C821 C820 1.386 . S
C821 C825 1.393 . S
C822 H814 0.950 1_455 S
C822 C820 1.391 . S
C822 C823 1.400 1_455 S
C823 C822 1.400 1_655 S
C823 C824 1.398 1_655 S
C823 C829 1.491 . S
C824 H815 0.950 . S
C824 C823 1.398 1_455 S
C824 C825 1.391 . S
C825 H813 0.950 . S
C825 C821 1.393 . S
C825 C824 1.391 . S
C826 H816 0.950 . S
C826 C827 1.386 . S
C826 C828 1.391 . S
C827 C826 1.386 . S
C827 C831 1.393 . S
C828 H817 0.950 . S
C828 C826 1.391 . S
C828 C829 1.400 . S
C829 C823 1.491 . S
C829 C828 1.400 . S
C829 C830 1.398 . S
C830 H818 0.950 . S
C830 C829 1.398 . S
C830 C831 1.391 . S
C831 H819 0.950 . S
C831 C827 1.393 . S
C831 C830 1.391 . S
H832 C840 0.950 . S
H833 C845 0.950 . S
H834 C842 0.950 . S
H835 C844 0.950 . S
H836 C846 0.950 . S
H837 C848 0.950 . S
H838 C850 0.950 . S
H839 C851 0.950 . S
C840 H832 0.950 . S
C840 C841 1.386 . S
C840 C842 1.391 . S
C841 C840 1.386 . S
C841 C845 1.393 . S
C842 H834 0.950 . S
C842 C840 1.391 . S
C842 C843 1.400 . S
C843 C842 1.400 . S
C843 C844 1.398 . S
C843 C849 1.491 . S
C844 H835 0.950 . S
C844 C843 1.398 . S
C844 C845 1.391 . S
C845 H833 0.950 . S
C845 C841 1.393 . S
C845 C844 1.391 . S
C846 H836 0.950 . S
C846 C847 1.386 . S
C846 C848 1.391 . S
C847 C846 1.386 . S
C847 C851 1.393 . S
C848 H837 0.950 . S
C848 C846 1.391 . S
C848 C849 1.400 . S
C849 C843 1.491 . S
C849 C848 1.400 . S
C849 C850 1.398 . S
C850 H838 0.950 . S
C850 C849 1.398 . S
C850 C851 1.391 . S
C851 H839 0.950 . S
C851 C847 1.393 . S
C851 C850 1.391 . S
H852 C860 0.950 . S
H853 C865 0.950 . S
H854 C862 0.950 . S
H855 C864 0.950 . S
H856 C866 0.950 . S
H857 C868 0.950 . S
H858 C870 0.950 . S
H859 C871 0.950 . S
C860 H852 0.950 . S
C860 C861 1.386 . S
C860 C862 1.391 . S
C861 C860 1.386 . S
C861 C865 1.393 . S
C862 H854 0.950 . S
C862 C860 1.391 . S
C862 C863 1.400 . S
C863 C862 1.400 . S
C863 C864 1.398 . S
C863 C869 1.491 . S
C864 H855 0.950 . S
C864 C863 1.398 . S
C864 C865 1.391 . S
C865 H853 0.950 . S
C865 C861 1.393 . S
C865 C864 1.391 . S
C866 H856 0.950 . S
C866 C867 1.386 . S
C866 C868 1.391 . S
C867 C866 1.386 . S
C867 C871 1.393 . S
C868 H857 0.950 . S
C868 C866 1.391 . S
C868 C869 1.400 . S
C869 C863 1.491 . S
C869 C868 1.400 . S
C869 C870 1.398 . S
C870 H858 0.950 . S
C870 C869 1.398 . S
C870 C871 1.391 . S
C871 H859 0.950 . S
C871 C867 1.393 . S
C871 C870 1.391 . S
H872 C880 0.950 . S
H873 C885 0.950 . S
H874 C882 0.950 . S
H875 C884 0.950 . S
H876 C886 0.950 . S
H877 C888 0.950 . S
H878 C890 0.950 . S
H879 C891 0.950 . S
C880 H872 0.950 . S
C880 C881 1.386 . S
C880 C882 1.391 . S
C881 C880 1.386 . S
C881 C885 1.393 . S
C882 H874 0.950 . S
C882 C880 1.391 . S
C882 C883 1.400 . S
C883 C882 1.400 . S
C883 C884 1.398 . S
C883 C889 1.491 . S
C884 H875 0.950 . S
C884 C883 1.398 . S
C884 C885 1.391 . S
C885 H873 0.950 . S
C885 C881 1.393 . S
C885 C884 1.391 . S
C886 H876 0.950 . S
C886 C887 1.386 . S
C886 C888 1.391 . S
C887 C886 1.386 . S
C887 C891 1.393 . S
C888 H877 0.950 . S
C888 C886 1.391 . S
C888 C889 1.400 . S
C889 C883 1.491 . S
C889 C888 1.400 . S
C889 C890 1.398 . S
C890 H878 0.950 . S
C890 C889 1.398 . S
C890 C891 1.391 . S
C891 H879 0.950 . S
C891 C887 1.393 . S
C891 C890 1.391 . S
H892 C900 0.950 . S
H893 C905 0.950 . S
H894 C902 0.948 1_554 S
H895 C904 0.950 . S
H896 C906 0.950 . S
H897 C908 0.950 . S
H898 C910 0.950 . S
H899 C911 0.950 . S
C900 H892 0.950 . S
C900 C901 1.386 . S
C900 C902 1.393 . S
C901 C900 1.386 . S
C901 C905 1.393 . S
C902 H894 0.948 1_556 S
C902 C900 1.393 . S
C902 C903 1.400 1_556 S
C903 C902 1.400 1_554 S
C903 C904 1.398 1_554 S
C903 C909 1.491 . S
C904 H895 0.950 . S
C904 C903 1.398 1_556 S
C904 C905 1.391 . S
C905 H893 0.950 . S
C905 C901 1.393 . S
C905 C904 1.391 . S
C906 H896 0.950 . S
C906 C907 1.386 . S
C906 C908 1.391 . S
C907 C906 1.386 . S
C907 C911 1.393 . S
C908 H897 0.950 . S
C908 C906 1.391 . S
C908 C909 1.400 . S
C909 C903 1.491 . S
C909 C908 1.400 . S
C909 C910 1.398 . S
C910 H898 0.950 . S
C910 C909 1.398 . S
C910 C911 1.391 . S
C911 H899 0.950 . S
C911 C907 1.393 . S
C911 C910 1.391 . S
H912 C920 0.950 . S
H913 C925 0.950 . S
H914 C922 0.950 . S
H915 C924 0.950 . S
H916 C926 0.950 . S
H917 C928 0.950 . S
H918 C930 0.950 . S
H919 C931 0.950 . S
C920 H912 0.950 . S
C920 C921 1.386 . S
C920 C922 1.391 . S
C921 C920 1.386 . S
C921 C925 1.393 . S
C922 H914 0.950 . S
C922 C920 1.391 . S
C922 C923 1.400 . S
C923 C922 1.400 . S
C923 C924 1.398 . S
C923 C929 1.491 . S
C924 H915 0.950 . S
C924 C923 1.398 . S
C924 C925 1.391 . S
C925 H913 0.950 . S
C925 C921 1.393 . S
C925 C924 1.391 . S
C926 H916 0.950 . S
C926 C927 1.386 . S
C926 C928 1.391 . S
C927 C926 1.386 . S
C927 C931 1.393 . S
C928 H917 0.950 . S
C928 C926 1.391 . S
C928 C929 1.400 . S
C929 C923 1.491 . S
C929 C928 1.400 . S
C929 C930 1.398 . S
C930 H918 0.950 . S
C930 C929 1.398 . S
C930 C931 1.391 . S
C931 H919 0.950 . S
C931 C927 1.393 . S
C931 C930 1.391 . S
H932 C940 0.950 . S
H933 C945 0.950 . S
H934 C942 0.950 . S
H935 C944 0.950 . S
H936 C946 0.950 . S
H937 C948 0.950 . S
H938 C950 0.950 . S
H939 C951 0.950 . S
C940 H932 0.950 . S
C940 C941 1.386 . S
C940 C942 1.391 . S
C941 C940 1.386 . S
C941 C945 1.393 . S
C942 H934 0.950 . S
C942 C940 1.391 . S
C942 C943 1.400 . S
C943 C942 1.400 . S
C943 C944 1.398 . S
C943 C949 1.491 . S
C944 H935 0.950 . S
C944 C943 1.398 . S
C944 C945 1.391 . S
C945 H933 0.950 . S
C945 C941 1.393 . S
C945 C944 1.391 . S
C946 H936 0.950 . S
C946 C947 1.386 . S
C946 C948 1.391 . S
C947 C946 1.386 . S
C947 C951 1.393 . S
C948 H937 0.950 . S
C948 C946 1.391 . S
C948 C949 1.400 . S
C949 C943 1.491 . S
C949 C948 1.400 . S
C949 C950 1.398 . S
C950 H938 0.950 . S
C950 C949 1.398 . S
C950 C951 1.391 . S
C951 H939 0.950 . S
C951 C947 1.393 . S
C951 C950 1.391 . S
H952 C960 0.950 . S
H953 C965 0.950 . S
H954 C962 0.950 . S
H955 C964 0.950 . S
H956 C966 0.950 . S
H957 C968 0.950 . S
H958 C970 0.950 . S
H959 C971 0.950 . S
C960 H952 0.950 . S
C960 C961 1.386 . S
C960 C962 1.391 . S
C961 C960 1.386 . S
C961 C965 1.393 . S
C962 H954 0.950 . S
C962 C960 1.391 . S
C962 C963 1.400 . S
C963 C962 1.400 . S
C963 C964 1.398 . S
C963 C969 1.491 . S
C964 H955 0.950 . S
C964 C963 1.398 . S
C964 C965 1.391 . S
C965 H953 0.950 . S
C965 C961 1.393 . S
C965 C964 1.391 . S
C966 H956 0.950 . S
C966 C967 1.386 . S
C966 C968 1.391 . S
C967 C966 1.386 . S
C967 C971 1.393 . S
C968 H957 0.950 . S
C968 C966 1.391 . S
C968 C969 1.400 . S
C969 C963 1.491 . S
C969 C968 1.400 . S
C969 C970 1.398 . S
C970 H958 0.950 . S
C970 C969 1.398 . S
C970 C971 1.391 . S
C971 H959 0.950 . S
C971 C967 1.393 . S
C971 C970 1.391 . S
H972 C980 0.950 . S
H973 C985 0.950 . S
H974 C982 0.950 1_556 S
H975 C984 0.926 1_556 S
H976 C986 0.950 . S
H977 C988 0.950 . S
H978 C990 0.950 . S
H979 C991 0.950 . S
C980 H972 0.950 . S
C980 C981 1.386 . S
C980 C982 1.391 . S
C981 C980 1.386 . S
C981 C985 1.393 . S
C982 H974 0.950 1_554 S
C982 C980 1.391 . S
C982 C983 1.400 1_554 S
C983 C982 1.400 1_556 S
C983 C984 1.380 1_556 S
C983 C989 1.491 . S
C984 H975 0.926 1_554 S
C984 C983 1.380 1_554 S
C984 C985 1.433 . S
C985 H973 0.950 . S
C985 C981 1.393 . S
C985 C984 1.433 . S
C986 H976 0.950 . S
C986 C987 1.386 . S
C986 C988 1.391 . S
C987 C986 1.386 . S
C987 C991 1.393 . S
C988 H977 0.950 . S
C988 C986 1.391 . S
C988 C989 1.400 . S
C989 C983 1.491 . S
C989 C988 1.400 . S
C989 C990 1.398 . S
C990 H978 0.950 . S
C990 C989 1.398 . S
C990 C991 1.391 . S
C991 H979 0.950 . S
C991 C987 1.393 . S
C991 C990 1.391 . S
H992 C1000 0.950 . S
H993 C1005 0.950 . S
H994 C1002 0.950 . S
H995 C1004 0.950 . S
H996 C1006 0.950 . S
H997 C1008 0.950 . S
H998 C1010 0.950 . S
H999 C1011 0.950 . S
C1000 H992 0.950 . S
C1000 C1001 1.386 . S
C1000 C1002 1.391 . S
C1001 C1000 1.386 . S
C1001 C1005 1.393 . S
C1002 H994 0.950 . S
C1002 C1000 1.391 . S
C1002 C1003 1.400 . S
C1003 C1002 1.400 . S
C1003 C1004 1.398 . S
C1003 C1009 1.491 . S
C1004 H995 0.950 . S
C1004 C1003 1.398 . S
C1004 C1005 1.391 . S
C1005 H993 0.950 . S
C1005 C1001 1.393 . S
C1005 C1004 1.391 . S
C1006 H996 0.950 . S
C1006 C1007 1.386 . S
C1006 C1008 1.391 . S
C1007 C1006 1.386 . S
C1007 C1011 1.393 . S
C1008 H997 0.950 . S
C1008 C1006 1.391 . S
C1008 C1009 1.400 . S
C1009 C1003 1.491 . S
C1009 C1008 1.400 . S
C1009 C1010 1.398 . S
C1010 H998 0.950 . S
C1010 C1009 1.398 . S
C1010 C1011 1.391 . S
C1011 H999 0.950 . S
C1011 C1007 1.393 . S
C1011 C1010 1.391 . S
H1012 C1020 0.950 . S
H1013 C1025 0.950 . S
H1014 C1022 0.950 . S
H1015 C1024 0.950 . S
H1016 C1026 0.950 . S
H1017 C1028 0.950 . S
H1018 C1030 0.950 . S
H1019 C1031 0.950 . S
C1020 H1012 0.950 . S
C1020 C1021 1.386 . S
C1020 C1022 1.391 . S
C1021 C1020 1.386 . S
C1021 C1025 1.393 . S
C1022 H1014 0.950 . S
C1022 C1020 1.391 . S
C1022 C1023 1.400 . S
C1023 C1022 1.400 . S
C1023 C1024 1.398 . S
C1023 C1029 1.491 . S
C1024 H1015 0.950 . S
C1024 C1023 1.398 . S
C1024 C1025 1.391 . S
C1025 H1013 0.950 . S
C1025 C1021 1.393 . S
C1025 C1024 1.391 . S
C1026 H1016 0.950 . S
C1026 C1027 1.386 . S
C1026 C1028 1.391 . S
C1027 C1026 1.386 . S
C1027 C1031 1.393 . S
C1028 H1017 0.950 . S
C1028 C1026 1.391 . S
C1028 C1029 1.400 . S
C1029 C1023 1.491 . S
C1029 C1028 1.400 . S
C1029 C1030 1.398 . S
C1030 H1018 0.950 . S
C1030 C1029 1.398 . S
C1030 C1031 1.391 . S
C1031 H1019 0.950 . S
C1031 C1027 1.393 . S
C1031 C1030 1.391 . S
H1032 C1040 0.950 . S
H1033 C1045 0.950 . S
H1034 C1042 0.950 . S
H1035 C1044 0.950 . S
H1036 C1046 0.950 . S
H1037 C1048 0.950 . S
H1038 C1050 0.950 . S
H1039 C1051 0.950 . S
C1040 H1032 0.950 . S
C1040 C1041 1.386 . S
C1040 C1042 1.391 . S
C1041 C1040 1.386 . S
C1041 C1045 1.393 . S
C1042 H1034 0.950 . S
C1042 C1040 1.391 . S
C1042 C1043 1.400 . S
C1043 C1042 1.400 . S
C1043 C1044 1.398 . S
C1043 C1049 1.491 . S
C1044 H1035 0.950 . S
C1044 C1043 1.398 . S
C1044 C1045 1.391 . S
C1045 H1033 0.950 . S
C1045 C1041 1.393 . S
C1045 C1044 1.391 . S
C1046 H1036 0.950 . S
C1046 C1047 1.386 . S
C1046 C1048 1.391 . S
C1047 C1046 1.386 . S
C1047 C1051 1.393 . S
C1048 H1037 0.950 . S
C1048 C1046 1.391 . S
C1048 C1049 1.400 . S
C1049 C1043 1.491 . S
C1049 C1048 1.400 . S
C1049 C1050 1.398 . S
C1050 H1038 0.950 . S
C1050 C1049 1.398 . S
C1050 C1051 1.391 . S
C1051 H1039 0.950 . S
C1051 C1047 1.393 . S
C1051 C1050 1.391 . S
H1052 C1060 0.950 . S
H1053 C1065 0.950 . S
H1054 C1062 0.950 . S
H1055 C1064 0.950 . S
H1056 C1066 0.950 . S
H1057 C1068 0.950 . S
H1058 C1070 0.950 . S
H1059 C1071 0.950 . S
C1060 H1052 0.950 . S
C1060 C1061 1.386 . S
C1060 C1062 1.391 . S
C1061 C1060 1.386 . S
C1061 C1065 1.393 . S
C1062 H1054 0.950 . S
C1062 C1060 1.391 . S
C1062 C1063 1.400 . S
C1063 C1062 1.400 . S
C1063 C1064 1.398 . S
C1063 C1069 1.491 . S
C1064 H1055 0.950 . S
C1064 C1063 1.398 . S
C1064 C1065 1.391 . S
C1065 H1053 0.950 . S
C1065 C1061 1.393 . S
C1065 C1064 1.391 . S
C1066 H1056 0.950 . S
C1066 C1067 1.386 . S
C1066 C1068 1.391 . S
C1067 C1066 1.386 . S
C1067 C1071 1.393 . S
C1068 H1057 0.950 . S
C1068 C1066 1.391 . S
C1068 C1069 1.400 . S
C1069 C1063 1.491 . S
C1069 C1068 1.400 . S
C1069 C1070 1.398 . S
C1070 H1058 0.950 . S
C1070 C1069 1.398 . S
C1070 C1071 1.391 . S
C1071 H1059 0.950 . S
C1071 C1067 1.393 . S
C1071 C1070 1.391 . S
H1072 C1080 0.950 . S
H1073 C1085 0.950 . S
H1074 C1082 0.950 . S
H1075 C1084 0.950 . S
H1076 C1086 0.950 . S
H1077 C1088 0.950 . S
H1078 C1090 0.966 . S
H1079 C1091 0.950 . S
C1080 H1072 0.950 . S
C1080 C1081 1.386 . S
C1080 C1082 1.391 . S
C1081 C1080 1.386 . S
C1081 C1085 1.393 . S
C1082 H1074 0.950 . S
C1082 C1080 1.391 . S
C1082 C1083 1.400 . S
C1083 C1082 1.400 . S
C1083 C1084 1.398 . S
C1083 C1089 1.491 . S
C1084 H1075 0.950 . S
C1084 C1083 1.398 . S
C1084 C1085 1.391 . S
C1085 H1073 0.950 . S
C1085 C1081 1.393 . S
C1085 C1084 1.391 . S
C1086 H1076 0.950 . S
C1086 C1087 1.386 . S
C1086 C1088 1.391 . S
C1087 C1086 1.386 . S
C1087 C1091 1.393 . S
C1088 H1077 0.950 . S
C1088 C1086 1.391 . S
C1088 C1089 1.400 1_545 S
C1089 C1083 1.491 . S
C1089 C1088 1.400 1_565 S
C1089 C1090 1.408 . S
C1090 H1078 0.966 . S
C1090 C1089 1.408 . S
C1090 C1091 1.366 1_565 S
C1091 H1079 0.950 . S
C1091 C1087 1.393 . S
C1091 C1090 1.366 1_545 S
H1092 C1100 0.950 . S
H1093 C1105 0.950 . S
H1094 C1102 0.950 . S
H1095 C1104 0.950 . S
H1096 C1106 0.950 . S
H1097 C1108 0.950 . S
H1098 C1110 0.950 . S
H1099 C1111 0.950 . S
C1100 H1092 0.950 . S
C1100 C1101 1.386 . S
C1100 C1102 1.391 . S
C1101 C1100 1.386 . S
C1101 C1105 1.393 . S
C1102 H1094 0.950 . S
C1102 C1100 1.391 . S
C1102 C1103 1.400 . S
C1103 C1102 1.400 . S
C1103 C1104 1.398 . S
C1103 C1109 1.491 . S
C1104 H1095 0.950 . S
C1104 C1103 1.398 . S
C1104 C1105 1.391 . S
C1105 H1093 0.950 . S
C1105 C1101 1.393 . S
C1105 C1104 1.391 . S
C1106 H1096 0.950 . S
C1106 C1107 1.386 . S
C1106 C1108 1.391 . S
C1107 C1106 1.386 . S
C1107 C1111 1.393 . S
C1108 H1097 0.950 . S
C1108 C1106 1.391 . S
C1108 C1109 1.400 . S
C1109 C1103 1.491 . S
C1109 C1108 1.400 . S
C1109 C1110 1.398 . S
C1110 H1098 0.950 . S
C1110 C1109 1.398 . S
C1110 C1111 1.391 . S
C1111 H1099 0.950 . S
C1111 C1107 1.393 . S
C1111 C1110 1.391 . S
H1112 C1120 0.950 . S
H1113 C1125 0.950 . S
H1114 C1122 0.950 . S
H1115 C1124 0.950 . S
H1116 C1126 0.950 . S
H1117 C1128 0.950 . S
H1118 C1130 0.950 . S
H1119 C1131 0.950 . S
C1120 H1112 0.950 . S
C1120 C1121 1.386 . S
C1120 C1122 1.391 . S
C1121 C1120 1.386 . S
C1121 C1125 1.393 . S
C1122 H1114 0.950 . S
C1122 C1120 1.391 . S
C1122 C1123 1.400 . S
C1123 C1122 1.400 . S
C1123 C1124 1.398 . S
C1123 C1129 1.491 . S
C1124 H1115 0.950 . S
C1124 C1123 1.398 . S
C1124 C1125 1.391 . S
C1125 H1113 0.950 . S
C1125 C1121 1.393 . S
C1125 C1124 1.391 . S
C1126 H1116 0.950 . S
C1126 C1127 1.386 . S
C1126 C1128 1.391 . S
C1127 C1126 1.386 . S
C1127 C1131 1.393 . S
C1128 H1117 0.950 . S
C1128 C1126 1.391 . S
C1128 C1129 1.400 . S
C1129 C1123 1.491 . S
C1129 C1128 1.400 . S
C1129 C1130 1.398 . S
C1130 H1118 0.950 . S
C1130 C1129 1.398 . S
C1130 C1131 1.391 . S
C1131 H1119 0.950 . S
C1131 C1127 1.393 . S
C1131 C1130 1.391 . S
H1132 C1140 0.950 . S
H1133 C1145 0.950 . S
H1134 C1142 0.950 . S
H1135 C1144 0.950 . S
H1136 C1146 0.950 . S
H1137 C1148 0.950 . S
H1138 C1150 0.950 . S
H1139 C1151 0.950 . S
C1140 H1132 0.950 . S
C1140 C1141 1.386 . S
C1140 C1142 1.391 . S
C1141 C1140 1.386 . S
C1141 C1145 1.393 . S
C1142 H1134 0.950 . S
C1142 C1140 1.391 . S
C1142 C1143 1.400 . S
C1143 C1142 1.400 . S
C1143 C1144 1.398 . S
C1143 C1149 1.491 . S
C1144 H1135 0.950 . S
C1144 C1143 1.398 . S
C1144 C1145 1.391 . S
C1145 H1133 0.950 . S
C1145 C1141 1.393 . S
C1145 C1144 1.391 . S
C1146 H1136 0.950 . S
C1146 C1147 1.386 . S
C1146 C1148 1.391 . S
C1147 C1146 1.386 . S
C1147 C1151 1.393 . S
C1148 H1137 0.950 . S
C1148 C1146 1.391 . S
C1148 C1149 1.400 . S
C1149 C1143 1.491 . S
C1149 C1148 1.400 . S
C1149 C1150 1.398 . S
C1150 H1138 0.950 . S
C1150 C1149 1.398 . S
C1150 C1151 1.391 . S
C1151 H1139 0.950 . S
C1151 C1147 1.393 . S
C1151 C1150 1.391 . S
H1152 C1160 0.950 . S
H1153 C1165 0.950 . S
H1154 C1162 0.950 . S
H1155 C1164 0.950 . S
H1156 C1166 0.950 . S
H1157 C1168 0.950 . S
H1158 C1170 0.950 . S
H1159 C1171 0.950 . S
C1160 H1152 0.950 . S
C1160 C1161 1.386 . S
C1160 C1162 1.391 . S
C1161 C1160 1.386 . S
C1161 C1165 1.393 . S
C1162 H1154 0.950 . S
C1162 C1160 1.391 . S
C1162 C1163 1.400 . S
C1163 C1162 1.400 . S
C1163 C1164 1.398 . S
C1163 C1169 1.491 . S
C1164 H1155 0.950 . S
C1164 C1163 1.398 . S
C1164 C1165 1.391 . S
C1165 H1153 0.950 . S
C1165 C1161 1.393 . S
C1165 C1164 1.391 . S
C1166 H1156 0.950 . S
C1166 C1167 1.386 . S
C1166 C1168 1.391 . S
C1167 C1166 1.386 . S
C1167 C1171 1.393 . S
C1168 H1157 0.950 . S
C1168 C1166 1.391 . S
C1168 C1169 1.400 . S
C1169 C1163 1.491 . S
C1169 C1168 1.400 . S
C1169 C1170 1.398 . S
C1170 H1158 0.950 . S
C1170 C1169 1.398 . S
C1170 C1171 1.391 . S
C1171 H1159 0.950 . S
C1171 C1167 1.393 . S
C1171 C1170 1.391 . S
H1172 C1180 0.950 . S
H1173 C1185 0.950 . S
H1174 C1182 0.950 1_455 S
H1175 C1184 0.950 . S
H1176 C1186 0.950 . S
H1177 C1188 0.950 . S
H1178 C1190 0.950 . S
H1179 C1191 0.950 . S
C1180 H1172 0.950 . S
C1180 C1181 1.386 . S
C1180 C1182 1.391 . S
C1181 C1180 1.386 . S
C1181 C1185 1.393 . S
C1182 H1174 0.950 1_655 S
C1182 C1180 1.391 . S
C1182 C1183 1.382 1_655 S
C1183 C1182 1.382 1_455 S
C1183 C1184 1.366 1_455 S
C1183 C1189 1.540 . S
C1184 H1175 0.950 . S
C1184 C1183 1.366 1_655 S
C1184 C1185 1.391 . S
C1185 H1173 0.950 . S
C1185 C1181 1.393 . S
C1185 C1184 1.391 . S
C1186 H1176 0.950 . S
C1186 C1187 1.386 . S
C1186 C1188 1.391 . S
C1187 C1186 1.386 . S
C1187 C1191 1.393 . S
C1188 H1177 0.950 . S
C1188 C1186 1.391 . S
C1188 C1189 1.400 . S
C1189 C1183 1.540 . S
C1189 C1188 1.400 . S
C1189 C1190 1.398 . S
C1190 H1178 0.950 . S
C1190 C1189 1.398 . S
C1190 C1191 1.391 . S
C1191 H1179 0.950 . S
C1191 C1187 1.393 . S
C1191 C1190 1.391 . S
H1192 C1200 0.950 . S
H1193 C1205 0.950 . S
H1194 C1202 0.950 . S
H1195 C1204 0.950 . S
H1196 C1206 0.950 . S
H1197 C1208 0.950 . S
H1198 C1210 0.950 . S
H1199 C1211 0.950 . S
C1200 H1192 0.950 . S
C1200 C1201 1.386 . S
C1200 C1202 1.391 . S
C1201 C1200 1.386 . S
C1201 C1205 1.393 . S
C1202 H1194 0.950 . S
C1202 C1200 1.391 . S
C1202 C1203 1.400 . S
C1203 C1202 1.400 . S
C1203 C1204 1.398 . S
C1203 C1209 1.491 . S
C1204 H1195 0.950 . S
C1204 C1203 1.398 . S
C1204 C1205 1.391 . S
C1205 H1193 0.950 . S
C1205 C1201 1.393 . S
C1205 C1204 1.391 . S
C1206 H1196 0.950 . S
C1206 C1207 1.386 . S
C1206 C1208 1.391 . S
C1207 C1206 1.386 . S
C1207 C1211 1.393 . S
C1208 H1197 0.950 . S
C1208 C1206 1.391 . S
C1208 C1209 1.400 . S
C1209 C1203 1.491 . S
C1209 C1208 1.400 . S
C1209 C1210 1.398 . S
C1210 H1198 0.950 . S
C1210 C1209 1.398 . S
C1210 C1211 1.391 . S
C1211 H1199 0.950 . S
C1211 C1207 1.393 . S
C1211 C1210 1.391 . S
H1212 C1220 0.950 . S
H1213 C1225 0.950 . S
H1214 C1222 0.950 . S
H1215 C1224 0.950 . S
H1216 C1226 0.950 . S
H1217 C1228 0.950 . S
H1218 C1230 0.950 . S
H1219 C1231 0.950 . S
C1220 H1212 0.950 . S
C1220 C1221 1.386 . S
C1220 C1222 1.391 . S
C1221 C1220 1.386 . S
C1221 C1225 1.393 . S
C1222 H1214 0.950 . S
C1222 C1220 1.391 . S
C1222 C1223 1.400 . S
C1223 C1222 1.400 . S
C1223 C1224 1.398 . S
C1223 C1229 1.491 . S
C1224 H1215 0.950 . S
C1224 C1223 1.398 . S
C1224 C1225 1.391 . S
C1225 H1213 0.950 . S
C1225 C1221 1.393 . S
C1225 C1224 1.391 . S
C1226 H1216 0.950 . S
C1226 C1227 1.386 . S
C1226 C1228 1.391 . S
C1227 C1226 1.386 . S
C1227 C1231 1.393 . S
C1228 H1217 0.950 . S
C1228 C1226 1.391 . S
C1228 C1229 1.400 . S
C1229 C1223 1.491 . S
C1229 C1228 1.400 . S
C1229 C1230 1.398 . S
C1230 H1218 0.950 . S
C1230 C1229 1.398 . S
C1230 C1231 1.391 . S
C1231 H1219 0.950 . S
C1231 C1227 1.393 . S
C1231 C1230 1.391 . S
H1232 C1240 0.950 . S
H1233 C1245 0.950 . S
H1234 C1242 0.950 . S
H1235 C1244 0.950 . S
H1236 C1246 0.950 . S
H1237 C1248 0.950 . S
H1238 C1250 0.950 . S
H1239 C1251 0.950 . S
C1240 H1232 0.950 . S
C1240 C1241 1.386 . S
C1240 C1242 1.391 . S
C1241 C1240 1.386 . S
C1241 C1245 1.393 . S
C1242 H1234 0.950 . S
C1242 C1240 1.391 . S
C1242 C1243 1.400 . S
C1243 C1242 1.400 . S
C1243 C1244 1.398 . S
C1243 C1249 1.491 . S
C1244 H1235 0.950 . S
C1244 C1243 1.398 . S
C1244 C1245 1.391 . S
C1245 H1233 0.950 . S
C1245 C1241 1.393 . S
C1245 C1244 1.391 . S
C1246 H1236 0.950 . S
C1246 C1247 1.386 . S
C1246 C1248 1.391 . S
C1247 C1246 1.386 . S
C1247 C1251 1.393 . S
C1248 H1237 0.950 . S
C1248 C1246 1.391 . S
C1248 C1249 1.400 . S
C1249 C1243 1.491 . S
C1249 C1248 1.400 . S
C1249 C1250 1.398 . S
C1250 H1238 0.950 . S
C1250 C1249 1.398 . S
C1250 C1251 1.391 . S
C1251 H1239 0.950 . S
C1251 C1247 1.393 . S
C1251 C1250 1.391 . S
H1252 C1260 0.950 . S
H1253 C1265 0.950 . S
H1254 C1262 0.950 . S
H1255 C1264 0.950 . S
H1256 C1266 0.950 . S
H1257 C1268 0.950 . S
H1258 C1270 0.950 . S
H1259 C1271 0.950 . S
C1260 H1252 0.950 . S
C1260 C1261 1.386 . S
C1260 C1262 1.391 . S
C1261 C1260 1.386 . S
C1261 C1265 1.393 . S
C1262 H1254 0.950 . S
C1262 C1260 1.391 . S
C1262 C1263 1.400 . S
C1263 C1262 1.400 . S
C1263 C1264 1.398 . S
C1263 C1269 1.491 . S
C1264 H1255 0.950 . S
C1264 C1263 1.398 . S
C1264 C1265 1.391 . S
C1265 H1253 0.950 . S
C1265 C1261 1.393 . S
C1265 C1264 1.391 . S
C1266 H1256 0.950 . S
C1266 C1267 1.386 . S
C1266 C1268 1.391 . S
C1267 C1266 1.386 . S
C1267 C1271 1.393 . S
C1268 H1257 0.950 . S
C1268 C1266 1.391 . S
C1268 C1269 1.400 . S
C1269 C1263 1.491 . S
C1269 C1268 1.400 . S
C1269 C1270 1.398 . S
C1270 H1258 0.950 . S
C1270 C1269 1.398 . S
C1270 C1271 1.391 . S
C1271 H1259 0.950 . S
C1271 C1267 1.393 . S
C1271 C1270 1.391 . S
H1272 C1280 0.950 . S
H1273 C1285 0.950 . S
H1274 C1282 0.950 . S
H1275 C1284 0.950 . S
H1276 C1286 0.950 . S
H1277 C1288 0.950 . S
H1278 C1290 0.950 . S
H1279 C1291 0.950 . S
C1280 H1272 0.950 . S
C1280 C1281 1.386 . S
C1280 C1282 1.391 . S
C1281 C1280 1.386 . S
C1281 C1285 1.393 . S
C1282 H1274 0.950 . S
C1282 C1280 1.391 . S
C1282 C1283 1.400 . S
C1283 C1282 1.400 . S
C1283 C1284 1.398 . S
C1283 C1289 1.491 . S
C1284 H1275 0.950 . S
C1284 C1283 1.398 . S
C1284 C1285 1.391 . S
C1285 H1273 0.950 . S
C1285 C1281 1.393 . S
C1285 C1284 1.391 . S
C1286 H1276 0.950 . S
C1286 C1287 1.386 . S
C1286 C1288 1.391 . S
C1287 C1286 1.386 . S
C1287 C1291 1.393 . S
C1288 H1277 0.950 . S
C1288 C1286 1.391 . S
C1288 C1289 1.400 . S
C1289 C1283 1.491 . S
C1289 C1288 1.400 . S
C1289 C1290 1.398 . S
C1290 H1278 0.950 . S
C1290 C1289 1.398 . S
C1290 C1291 1.391 . S
C1291 H1279 0.950 . S
C1291 C1287 1.393 . S
C1291 C1290 1.391 . S
H1292 C1300 0.950 . S
H1293 C1305 0.950 . S
H1294 C1302 0.950 . S
H1295 C1304 0.950 . S
H1296 C1306 0.950 . S
H1297 C1308 0.950 1_455 S
H1298 C1310 0.950 . S
H1299 C1311 0.950 . S
C1300 H1292 0.950 . S
C1300 C1301 1.386 . S
C1300 C1302 1.391 . S
C1301 C1300 1.386 . S
C1301 C1305 1.393 . S
C1302 H1294 0.950 . S
C1302 C1300 1.391 . S
C1302 C1303 1.400 . S
C1303 C1302 1.400 . S
C1303 C1304 1.398 . S
C1303 C1309 1.491 . S
C1304 H1295 0.950 . S
C1304 C1303 1.398 . S
C1304 C1305 1.391 . S
C1305 H1293 0.950 . S
C1305 C1301 1.393 . S
C1305 C1304 1.391 . S
C1306 H1296 0.950 . S
C1306 C1307 1.386 . S
C1306 C1308 1.391 . S
C1307 C1306 1.386 . S
C1307 C1311 1.393 . S
C1308 H1297 0.950 1_655 S
C1308 C1306 1.391 . S
C1308 C1309 1.400 1_655 S
C1309 C1303 1.491 . S
C1309 C1308 1.400 1_455 S
C1309 C1310 1.398 . S
C1310 H1298 0.950 . S
C1310 C1309 1.398 . S
C1310 C1311 1.391 1_455 S
C1311 H1299 0.950 . S
C1311 C1307 1.393 . S
C1311 C1310 1.391 1_655 S
H1312 C1320 0.950 . S
H1313 C1325 0.950 . S
H1314 C1322 0.950 . S
H1315 C1324 0.950 . S
H1316 C1326 0.950 . S
H1317 C1328 0.950 . S
H1318 C1330 0.950 . S
H1319 C1331 0.950 . S
C1320 H1312 0.950 . S
C1320 C1321 1.386 . S
C1320 C1322 1.391 . S
C1321 C1320 1.386 . S
C1321 C1325 1.393 . S
C1322 H1314 0.950 . S
C1322 C1320 1.391 . S
C1322 C1323 1.400 . S
C1323 C1322 1.400 . S
C1323 C1324 1.398 . S
C1323 C1329 1.491 . S
C1324 H1315 0.950 . S
C1324 C1323 1.398 . S
C1324 C1325 1.391 . S
C1325 H1313 0.950 . S
C1325 C1321 1.393 . S
C1325 C1324 1.391 . S
C1326 H1316 0.950 . S
C1326 C1327 1.386 . S
C1326 C1328 1.391 . S
C1327 C1326 1.386 . S
C1327 C1331 1.393 . S
C1328 H1317 0.950 . S
C1328 C1326 1.391 . S
C1328 C1329 1.400 . S
C1329 C1323 1.491 . S
C1329 C1328 1.400 . S
C1329 C1330 1.398 . S
C1330 H1318 0.950 . S
C1330 C1329 1.398 . S
C1330 C1331 1.391 . S
C1331 H1319 0.950 . S
C1331 C1327 1.393 . S
C1331 C1330 1.391 . S
H1332 C1340 0.950 . S
H1333 C1345 0.950 . S
H1334 C1342 0.950 . S
H1335 C1344 0.950 . S
H1336 C1346 0.950 . S
H1337 C1348 0.950 . S
H1338 C1350 0.950 . S
H1339 C1351 0.950 . S
C1340 H1332 0.950 . S
C1340 C1341 1.386 . S
C1340 C1342 1.391 . S
C1341 C1340 1.386 . S
C1341 C1345 1.393 . S
C1342 H1334 0.950 . S
C1342 C1340 1.391 . S
C1342 C1343 1.400 . S
C1343 C1342 1.400 . S
C1343 C1344 1.398 . S
C1343 C1349 1.491 . S
C1344 H1335 0.950 . S
C1344 C1343 1.398 . S
C1344 C1345 1.391 . S
C1345 H1333 0.950 . S
C1345 C1341 1.393 . S
C1345 C1344 1.391 . S
C1346 H1336 0.950 . S
C1346 C1347 1.386 . S
C1346 C1348 1.391 . S
C1347 C1346 1.386 . S
C1347 C1351 1.393 . S
C1348 H1337 0.950 . S
C1348 C1346 1.391 . S
C1348 C1349 1.400 . S
C1349 C1343 1.491 . S
C1349 C1348 1.400 . S
C1349 C1350 1.398 . S
C1350 H1338 0.950 . S
C1350 C1349 1.398 . S
C1350 C1351 1.391 . S
C1351 H1339 0.950 . S
C1351 C1347 1.393 . S
C1351 C1350 1.391 . S
H1352 C1360 0.950 . S
H1353 C1365 0.950 . S
H1354 C1362 0.950 . S
H1355 C1364 0.950 . S
H1356 C1366 0.950 . S
H1357 C1368 0.950 . S
H1358 C1370 0.950 . S
H1359 C1371 0.950 . S
C1360 H1352 0.950 . S
C1360 C1361 1.386 . S
C1360 C1362 1.391 . S
C1361 C1360 1.386 . S
C1361 C1365 1.393 . S
C1362 H1354 0.950 . S
C1362 C1360 1.391 . S
C1362 C1363 1.400 . S
C1363 C1362 1.400 . S
C1363 C1364 1.398 . S
C1363 C1369 1.491 . S
C1364 H1355 0.950 . S
C1364 C1363 1.398 . S
C1364 C1365 1.391 . S
C1365 H1353 0.950 . S
C1365 C1361 1.393 . S
C1365 C1364 1.391 . S
C1366 H1356 0.950 . S
C1366 C1367 1.386 . S
C1366 C1368 1.391 . S
C1367 C1366 1.386 . S
C1367 C1371 1.393 . S
C1368 H1357 0.950 . S
C1368 C1366 1.391 . S
C1368 C1369 1.400 . S
C1369 C1363 1.491 . S
C1369 C1368 1.400 . S
C1369 C1370 1.398 . S
C1370 H1358 0.950 . S
C1370 C1369 1.398 . S
C1370 C1371 1.391 . S
C1371 H1359 0.950 . S
C1371 C1367 1.393 . S
C1371 C1370 1.391 . S
H1372 C1380 0.950 . S
H1373 C1385 0.950 . S
H1374 C1382 0.950 . S
H1375 C1384 0.950 . S
H1376 C1386 0.950 . S
H1377 C1388 0.950 . S
H1378 C1390 0.937 1_556 S
H1379 C1391 0.950 . S
C1380 H1372 0.950 . S
C1380 C1381 1.386 . S
C1380 C1382 1.391 . S
C1381 C1380 1.386 . S
C1381 C1385 1.393 . S
C1382 H1374 0.950 . S
C1382 C1380 1.391 . S
C1382 C1383 1.400 . S
C1383 C1382 1.400 . S
C1383 C1384 1.398 . S
C1383 C1389 1.491 . S
C1384 H1375 0.950 . S
C1384 C1383 1.398 . S
C1384 C1385 1.391 . S
C1385 H1373 0.950 . S
C1385 C1381 1.393 . S
C1385 C1384 1.391 . S
C1386 H1376 0.950 . S
C1386 C1387 1.386 . S
C1386 C1388 1.391 . S
C1387 C1386 1.386 . S
C1387 C1391 1.393 . S
C1388 H1377 0.950 . S
C1388 C1386 1.391 . S
C1388 C1389 1.400 1_554 S
C1389 C1383 1.491 . S
C1389 C1388 1.400 1_556 S
C1389 C1390 1.398 1_556 S
C1390 H1378 0.937 1_554 S
C1390 C1389 1.398 1_554 S
C1390 C1391 1.391 . S
C1391 H1379 0.950 . S
C1391 C1387 1.393 . S
C1391 C1390 1.391 . S
H1392 C1400 0.950 . S
H1393 C1405 0.950 . S
H1394 C1402 0.950 . S
H1395 C1404 0.950 . S
H1396 C1406 0.950 . S
H1397 C1408 0.950 . S
H1398 C1410 0.950 . S
H1399 C1411 0.950 . S
C1400 H1392 0.950 . S
C1400 C1401 1.386 . S
C1400 C1402 1.391 . S
C1401 C1400 1.386 . S
C1401 C1405 1.393 . S
C1402 H1394 0.950 . S
C1402 C1400 1.391 . S
C1402 C1403 1.400 . S
C1403 C1402 1.400 . S
C1403 C1404 1.398 . S
C1403 C1409 1.491 . S
C1404 H1395 0.950 . S
C1404 C1403 1.398 . S
C1404 C1405 1.391 . S
C1405 H1393 0.950 . S
C1405 C1401 1.393 . S
C1405 C1404 1.391 . S
C1406 H1396 0.950 . S
C1406 C1407 1.386 . S
C1406 C1408 1.391 . S
C1407 C1406 1.386 . S
C1407 C1411 1.393 . S
C1408 H1397 0.950 . S
C1408 C1406 1.391 . S
C1408 C1409 1.400 . S
C1409 C1403 1.491 . S
C1409 C1408 1.400 . S
C1409 C1410 1.398 . S
C1410 H1398 0.950 . S
C1410 C1409 1.398 . S
C1410 C1411 1.391 . S
C1411 H1399 0.950 . S
C1411 C1407 1.393 . S
C1411 C1410 1.391 . S
H1412 C1420 0.950 . S
H1413 C1425 0.950 . S
H1414 C1422 0.950 . S
H1415 C1424 0.950 . S
H1416 C1426 0.950 . S
H1417 C1428 0.950 . S
H1418 C1430 0.950 . S
H1419 C1431 0.950 . S
C1420 H1412 0.950 . S
C1420 C1421 1.386 . S
C1420 C1422 1.391 . S
C1421 C1420 1.386 . S
C1421 C1425 1.393 . S
C1422 H1414 0.950 . S
C1422 C1420 1.391 . S
C1422 C1423 1.400 . S
C1423 C1422 1.400 . S
C1423 C1424 1.398 . S
C1423 C1429 1.491 . S
C1424 H1415 0.950 . S
C1424 C1423 1.398 . S
C1424 C1425 1.391 . S
C1425 H1413 0.950 . S
C1425 C1421 1.393 . S
C1425 C1424 1.391 . S
C1426 H1416 0.950 . S
C1426 C1427 1.386 . S
C1426 C1428 1.391 . S
C1427 C1426 1.386 . S
C1427 C1431 1.393 . S
C1428 H1417 0.950 . S
C1428 C1426 1.391 . S
C1428 C1429 1.400 . S
C1429 C1423 1.491 . S
C1429 C1428 1.400 . S
C1429 C1430 1.398 . S
C1430 H1418 0.950 . S
C1430 C1429 1.398 . S
C1430 C1431 1.391 . S
C1431 H1419 0.950 . S
C1431 C1427 1.393 . S
C1431 C1430 1.391 . S
H1432 C1440 0.950 . S
H1433 C1445 0.950 . S
H1434 C1442 0.950 . S
H1435 C1444 0.950 . S
H1436 C1446 0.950 . S
H1437 C1448 0.950 . S
H1438 C1450 0.950 . S
H1439 C1451 0.950 . S
C1440 H1432 0.950 . S
C1440 C1441 1.386 . S
C1440 C1442 1.391 . S
C1441 C1440 1.386 . S
C1441 C1445 1.393 . S
C1442 H1434 0.950 . S
C1442 C1440 1.391 . S
C1442 C1443 1.400 . S
C1443 C1442 1.400 . S
C1443 C1444 1.398 . S
C1443 C1449 1.491 . S
C1444 H1435 0.950 . S
C1444 C1443 1.398 . S
C1444 C1445 1.391 . S
C1445 H1433 0.950 . S
C1445 C1441 1.393 . S
C1445 C1444 1.391 . S
C1446 H1436 0.950 . S
C1446 C1447 1.386 . S
C1446 C1448 1.391 . S
C1447 C1446 1.386 . S
C1447 C1451 1.393 . S
C1448 H1437 0.950 . S
C1448 C1446 1.391 . S
C1448 C1449 1.400 . S
C1449 C1443 1.491 . S
C1449 C1448 1.400 . S
C1449 C1450 1.398 . S
C1450 H1438 0.950 . S
C1450 C1449 1.398 . S
C1450 C1451 1.391 . S
C1451 H1439 0.950 . S
C1451 C1447 1.393 . S
C1451 C1450 1.391 . S
H1452 C1460 0.950 . S
H1453 C1465 0.950 . S
H1454 C1462 0.950 1_554 S
H1455 C1464 0.950 . S
H1456 C1466 0.950 . S
H1457 C1468 0.950 . S
H1458 C1470 0.950 . S
H1459 C1471 0.950 . S
C1460 H1452 0.950 . S
C1460 C1461 1.386 . S
C1460 C1462 1.391 . S
C1461 C1460 1.386 . S
C1461 C1465 1.393 . S
C1462 H1454 0.950 1_556 S
C1462 C1460 1.391 . S
C1462 C1463 1.400 1_556 S
C1463 C1462 1.400 1_554 S
C1463 C1464 1.398 1_554 S
C1463 C1469 1.491 . S
C1464 H1455 0.950 . S
C1464 C1463 1.398 1_556 S
C1464 C1465 1.391 . S
C1465 H1453 0.950 . S
C1465 C1461 1.393 . S
C1465 C1464 1.391 . S
C1466 H1456 0.950 . S
C1466 C1467 1.386 . S
C1466 C1468 1.391 . S
C1467 C1466 1.386 . S
C1467 C1471 1.393 . S
C1468 H1457 0.950 . S
C1468 C1466 1.391 . S
C1468 C1469 1.400 . S
C1469 C1463 1.491 . S
C1469 C1468 1.400 . S
C1469 C1470 1.398 . S
C1470 H1458 0.950 . S
C1470 C1469 1.398 . S
C1470 C1471 1.391 . S
C1471 H1459 0.950 . S
C1471 C1467 1.393 . S
C1471 C1470 1.391 . S
H1472 C1480 0.950 . S
H1473 C1485 0.950 . S
H1474 C1482 0.950 . S
H1475 C1484 0.950 . S
H1476 C1486 0.950 . S
H1477 C1488 0.950 . S
H1478 C1490 0.950 . S
H1479 C1491 0.950 . S
C1480 H1472 0.950 . S
C1480 C1481 1.386 . S
C1480 C1482 1.391 . S
C1481 C1480 1.386 . S
C1481 C1485 1.393 . S
C1482 H1474 0.950 . S
C1482 C1480 1.391 . S
C1482 C1483 1.400 . S
C1483 C1482 1.400 . S
C1483 C1484 1.398 . S
C1483 C1489 1.491 . S
C1484 H1475 0.950 . S
C1484 C1483 1.398 . S
C1484 C1485 1.391 . S
C1485 H1473 0.950 . S
C1485 C1481 1.393 . S
C1485 C1484 1.391 . S
C1486 H1476 0.950 . S
C1486 C1487 1.386 . S
C1486 C1488 1.391 . S
C1487 C1486 1.386 . S
C1487 C1491 1.393 . S
C1488 H1477 0.950 . S
C1488 C1486 1.391 . S
C1488 C1489 1.400 . S
C1489 C1483 1.491 . S
C1489 C1488 1.400 . S
C1489 C1490 1.398 . S
C1490 H1478 0.950 . S
C1490 C1489 1.398 . S
C1490 C1491 1.391 . S
C1491 H1479 0.950 . S
C1491 C1487 1.393 . S
C1491 C1490 1.391 . S
H1492 C1500 0.950 . S
H1493 C1505 0.950 . S
H1494 C1502 0.950 . S
H1495 C1504 0.950 . S
H1496 C1506 0.950 . S
H1497 C1508 0.950 . S
H1498 C1510 0.950 . S
H1499 C1511 0.950 . S
C1500 H1492 0.950 . S
C1500 C1501 1.386 . S
C1500 C1502 1.391 . S
C1501 C1500 1.386 . S
C1501 C1505 1.393 . S
C1502 H1494 0.950 . S
C1502 C1500 1.391 . S
C1502 C1503 1.400 . S
C1503 C1502 1.400 . S
C1503 C1504 1.398 . S
C1503 C1509 1.491 . S
C1504 H1495 0.950 . S
C1504 C1503 1.398 . S
C1504 C1505 1.391 . S
C1505 H1493 0.950 . S
C1505 C1501 1.393 . S
C1505 C1504 1.391 . S
C1506 H1496 0.950 . S
C1506 C1507 1.386 . S
C1506 C1508 1.391 . S
C1507 C1506 1.386 . S
C1507 C1511 1.393 . S
C1508 H1497 0.950 . S
C1508 C1506 1.391 . S
C1508 C1509 1.400 . S
C1509 C1503 1.491 . S
C1509 C1508 1.400 . S
C1509 C1510 1.398 . S
C1510 H1498 0.950 . S
C1510 C1509 1.398 . S
C1510 C1511 1.391 . S
C1511 H1499 0.950 . S
C1511 C1507 1.393 . S
C1511 C1510 1.391 . S
H1512 C1520 0.950 . S
H1513 C1525 0.950 . S
H1514 C1522 0.950 . S
H1515 C1524 0.950 . S
H1516 C1526 0.950 . S
H1517 C1528 0.950 . S
H1518 C1530 0.950 . S
H1519 C1531 0.950 . S
C1520 H1512 0.950 . S
C1520 C1521 1.386 . S
C1520 C1522 1.391 . S
C1521 C1520 1.386 . S
C1521 C1525 1.393 . S
C1522 H1514 0.950 . S
C1522 C1520 1.391 . S
C1522 C1523 1.400 . S
C1523 C1522 1.400 . S
C1523 C1524 1.398 . S
C1523 C1529 1.491 . S
C1524 H1515 0.950 . S
C1524 C1523 1.398 . S
C1524 C1525 1.391 . S
C1525 H1513 0.950 . S
C1525 C1521 1.393 . S
C1525 C1524 1.391 . S
C1526 H1516 0.950 . S
C1526 C1527 1.386 . S
C1526 C1528 1.391 . S
C1527 C1526 1.386 . S
C1527 C1531 1.393 . S
C1528 H1517 0.950 . S
C1528 C1526 1.391 . S
C1528 C1529 1.400 . S
C1529 C1523 1.491 . S
C1529 C1528 1.400 . S
C1529 C1530 1.398 . S
C1530 H1518 0.950 . S
C1530 C1529 1.398 . S
C1530 C1531 1.391 . S
C1531 H1519 0.950 . S
C1531 C1527 1.393 . S
C1531 C1530 1.391 . S
H1532 C1540 0.950 . S
H1533 C1545 0.950 . S
H1534 C1542 0.950 . S
H1535 C1544 0.950 . S
H1536 C1546 0.950 . S
H1537 C1548 0.950 . S
H1538 C1550 0.950 . S
H1539 C1551 0.950 . S
C1540 H1532 0.950 . S
C1540 C1541 1.386 . S
C1540 C1542 1.391 . S
C1541 C1540 1.386 . S
C1541 C1545 1.393 . S
C1542 H1534 0.950 . S
C1542 C1540 1.391 . S
C1542 C1543 1.400 . S
C1543 C1542 1.400 . S
C1543 C1544 1.398 . S
C1543 C1549 1.491 . S
C1544 H1535 0.950 . S
C1544 C1543 1.398 . S
C1544 C1545 1.391 . S
C1545 H1533 0.950 . S
C1545 C1541 1.393 . S
C1545 C1544 1.391 . S
C1546 H1536 0.950 . S
C1546 C1547 1.386 . S
C1546 C1548 1.391 . S
C1547 C1546 1.386 . S
C1547 C1551 1.393 . S
C1548 H1537 0.950 . S
C1548 C1546 1.391 . S
C1548 C1549 1.400 . S
C1549 C1543 1.491 . S
C1549 C1548 1.400 . S
C1549 C1550 1.398 . S
C1550 H1538 0.950 . S
C1550 C1549 1.398 . S
C1550 C1551 1.391 . S
C1551 H1539 0.950 . S
C1551 C1547 1.393 . S
C1551 C1550 1.391 . S
H1552 C1560 0.950 . S
H1553 C1565 0.950 . S
H1554 C1562 0.948 . S
H1555 C1564 0.950 . S
H1556 C1566 0.950 . S
H1557 C1568 0.950 . S
H1558 C1570 0.950 . S
H1559 C1571 0.950 . S
C1560 H1552 0.950 . S
C1560 C1561 1.386 . S
C1560 C1562 1.391 . S
C1561 C1560 1.386 . S
C1561 C1565 1.393 . S
C1562 H1554 0.948 . S
C1562 C1560 1.391 . S
C1562 C1563 1.400 1_565 S
C1563 C1562 1.400 1_545 S
C1563 C1564 1.398 . S
C1563 C1569 1.491 . S
C1564 H1555 0.950 . S
C1564 C1563 1.398 . S
C1564 C1565 1.391 1_545 S
C1565 H1553 0.950 . S
C1565 C1561 1.393 . S
C1565 C1564 1.391 1_565 S
C1566 H1556 0.950 . S
C1566 C1567 1.386 . S
C1566 C1568 1.391 . S
C1567 C1566 1.386 . S
C1567 C1571 1.393 . S
C1568 H1557 0.950 . S
C1568 C1566 1.391 . S
C1568 C1569 1.400 . S
C1569 C1563 1.491 . S
C1569 C1568 1.400 . S
C1569 C1570 1.398 . S
C1570 H1558 0.950 . S
C1570 C1569 1.398 . S
C1570 C1571 1.391 . S
C1571 H1559 0.950 . S
C1571 C1567 1.393 . S
C1571 C1570 1.391 . S
H1572 C1580 0.950 . S
H1573 C1585 0.950 . S
H1574 C1582 0.950 . S
H1575 C1584 0.950 . S
H1576 C1586 0.950 . S
H1577 C1588 0.950 . S
H1578 C1590 0.950 . S
H1579 C1591 0.950 . S
C1580 H1572 0.950 . S
C1580 C1581 1.386 . S
C1580 C1582 1.391 . S
C1581 C1580 1.386 . S
C1581 C1585 1.393 . S
C1582 H1574 0.950 . S
C1582 C1580 1.391 . S
C1582 C1583 1.400 . S
C1583 C1582 1.400 . S
C1583 C1584 1.398 . S
C1583 C1589 1.491 . S
C1584 H1575 0.950 . S
C1584 C1583 1.398 . S
C1584 C1585 1.391 . S
C1585 H1573 0.950 . S
C1585 C1581 1.393 . S
C1585 C1584 1.391 . S
C1586 H1576 0.950 . S
C1586 C1587 1.386 . S
C1586 C1588 1.391 . S
C1587 C1586 1.386 . S
C1587 C1591 1.393 . S
C1588 H1577 0.950 . S
C1588 C1586 1.391 . S
C1588 C1589 1.400 . S
C1589 C1583 1.491 . S
C1589 C1588 1.400 . S
C1589 C1590 1.398 . S
C1590 H1578 0.950 . S
C1590 C1589 1.398 . S
C1590 C1591 1.391 . S
C1591 H1579 0.950 . S
C1591 C1587 1.393 . S
C1591 C1590 1.391 . S
H1592 C1600 0.950 . S
H1593 C1605 0.950 . S
H1594 C1602 0.950 . S
H1595 C1604 0.950 . S
H1596 C1606 0.950 . S
H1597 C1608 0.950 . S
H1598 C1610 0.950 . S
H1599 C1611 0.950 . S
C1600 H1592 0.950 . S
C1600 C1601 1.386 . S
C1600 C1602 1.391 . S
C1601 C1600 1.386 . S
C1601 C1605 1.393 . S
C1602 H1594 0.950 . S
C1602 C1600 1.391 . S
C1602 C1603 1.400 . S
C1603 C1602 1.400 . S
C1603 C1604 1.398 . S
C1603 C1609 1.491 . S
C1604 H1595 0.950 . S
C1604 C1603 1.398 . S
C1604 C1605 1.391 . S
C1605 H1593 0.950 . S
C1605 C1601 1.393 . S
C1605 C1604 1.391 . S
C1606 H1596 0.950 . S
C1606 C1607 1.386 . S
C1606 C1608 1.391 . S
C1607 C1606 1.386 . S
C1607 C1611 1.393 . S
C1608 H1597 0.950 . S
C1608 C1606 1.391 . S
C1608 C1609 1.400 . S
C1609 C1603 1.491 . S
C1609 C1608 1.400 . S
C1609 C1610 1.398 . S
C1610 H1598 0.950 . S
C1610 C1609 1.398 . S
C1610 C1611 1.391 . S
C1611 H1599 0.950 . S
C1611 C1607 1.393 . S
C1611 C1610 1.391 . S
H1612 C1620 0.950 . S
H1613 C1625 0.950 . S
H1614 C1622 0.950 . S
H1615 C1624 0.950 . S
H1616 C1626 0.950 . S
H1617 C1628 0.950 . S
H1618 C1630 0.950 . S
H1619 C1631 0.950 . S
C1620 H1612 0.950 . S
C1620 C1621 1.386 . S
C1620 C1622 1.391 . S
C1621 C1620 1.386 . S
C1621 C1625 1.393 . S
C1622 H1614 0.950 . S
C1622 C1620 1.391 . S
C1622 C1623 1.400 . S
C1623 C1622 1.400 . S
C1623 C1624 1.398 . S
C1623 C1629 1.491 . S
C1624 H1615 0.950 . S
C1624 C1623 1.398 . S
C1624 C1625 1.391 . S
C1625 H1613 0.950 . S
C1625 C1621 1.393 . S
C1625 C1624 1.391 . S
C1626 H1616 0.950 . S
C1626 C1627 1.386 . S
C1626 C1628 1.391 . S
C1627 C1626 1.386 . S
C1627 C1631 1.393 . S
C1628 H1617 0.950 . S
C1628 C1626 1.391 . S
C1628 C1629 1.400 . S
C1629 C1623 1.491 . S
C1629 C1628 1.400 . S
C1629 C1630 1.398 . S
C1630 H1618 0.950 . S
C1630 C1629 1.398 . S
C1630 C1631 1.391 . S
C1631 H1619 0.950 . S
C1631 C1627 1.393 . S
C1631 C1630 1.391 . S
H1632 C1640 0.950 . S
H1633 C1645 0.950 . S
H1634 C1642 0.950 . S
H1635 C1644 0.950 . S
H1636 C1646 0.950 . S
H1637 C1648 0.950 . S
H1638 C1650 0.950 . S
H1639 C1651 0.950 . S
C1640 H1632 0.950 . S
C1640 C1641 1.386 . S
C1640 C1642 1.391 . S
C1641 C1640 1.386 . S
C1641 C1645 1.393 . S
C1642 H1634 0.950 . S
C1642 C1640 1.391 . S
C1642 C1643 1.400 . S
C1643 C1642 1.400 . S
C1643 C1644 1.398 . S
C1643 C1649 1.491 . S
C1644 H1635 0.950 . S
C1644 C1643 1.398 . S
C1644 C1645 1.391 . S
C1645 H1633 0.950 . S
C1645 C1641 1.393 . S
C1645 C1644 1.391 . S
C1646 H1636 0.950 . S
C1646 C1647 1.386 . S
C1646 C1648 1.391 . S
C1647 C1646 1.386 . S
C1647 C1651 1.393 . S
C1648 H1637 0.950 . S
C1648 C1646 1.391 . S
C1648 C1649 1.400 . S
C1649 C1643 1.491 . S
C1649 C1648 1.400 . S
C1649 C1650 1.398 . S
C1650 H1638 0.950 . S
C1650 C1649 1.398 . S
C1650 C1651 1.391 . S
C1651 H1639 0.950 . S
C1651 C1647 1.393 . S
C1651 C1650 1.391 . S
H1652 C1660 0.950 . S
H1653 C1665 0.950 . S
H1654 C1662 0.950 . S
H1655 C1664 0.950 . S
H1656 C1666 0.950 . S
H1657 C1668 0.950 . S
H1658 C1670 0.950 . S
H1659 C1671 0.950 . S
C1660 H1652 0.950 . S
C1660 C1661 1.386 . S
C1660 C1662 1.391 . S
C1661 C1660 1.386 . S
C1661 C1665 1.393 . S
C1662 H1654 0.950 . S
C1662 C1660 1.391 . S
C1662 C1663 1.400 . S
C1663 C1662 1.400 . S
C1663 C1664 1.398 . S
C1663 C1669 1.491 . S
C1664 H1655 0.950 . S
C1664 C1663 1.398 . S
C1664 C1665 1.391 . S
C1665 H1653 0.950 . S
C1665 C1661 1.393 . S
C1665 C1664 1.391 . S
C1666 H1656 0.950 . S
C1666 C1667 1.386 . S
C1666 C1668 1.391 . S
C1667 C1666 1.386 . S
C1667 C1671 1.393 . S
C1668 H1657 0.950 . S
C1668 C1666 1.391 . S
C1668 C1669 1.400 . S
C1669 C1663 1.491 . S
C1669 C1668 1.400 . S
C1669 C1670 1.398 . S
C1670 H1658 0.950 . S
C1670 C1669 1.398 . S
C1670 C1671 1.391 . S
C1671 H1659 0.950 . S
C1671 C1667 1.393 . S
C1671 C1670 1.391 . S
H1672 C1680 0.950 . S
H1673 C1685 0.950 . S
H1674 C1682 0.950 . S
H1675 C1684 0.950 . S
H1676 C1686 0.950 . S
H1677 C1688 0.950 . S
H1678 C1690 0.950 . S
H1679 C1691 0.950 . S
C1680 H1672 0.950 . S
C1680 C1681 1.386 . S
C1680 C1682 1.391 . S
C1681 C1680 1.386 . S
C1681 C1685 1.393 . S
C1682 H1674 0.950 . S
C1682 C1680 1.391 . S
C1682 C1683 1.400 . S
C1683 C1682 1.400 . S
C1683 C1684 1.398 . S
C1683 C1689 1.491 . S
C1684 H1675 0.950 . S
C1684 C1683 1.398 . S
C1684 C1685 1.391 . S
C1685 H1673 0.950 . S
C1685 C1681 1.393 . S
C1685 C1684 1.391 . S
C1686 H1676 0.950 . S
C1686 C1687 1.386 . S
C1686 C1688 1.391 . S
C1687 C1686 1.386 . S
C1687 C1691 1.393 . S
C1688 H1677 0.950 . S
C1688 C1686 1.391 . S
C1688 C1689 1.400 . S
C1689 C1683 1.491 . S
C1689 C1688 1.400 . S
C1689 C1690 1.398 . S
C1690 H1678 0.950 . S
C1690 C1689 1.398 . S
C1690 C1691 1.391 . S
C1691 H1679 0.950 . S
C1691 C1687 1.393 . S
C1691 C1690 1.391 . S
H1692 C1700 0.950 . S
H1693 C1705 0.950 . S
H1694 C1702 0.950 1_455 S
H1695 C1704 0.950 1_455 S
H1696 C1706 0.950 . S
H1697 C1708 0.950 . S
H1698 C1710 0.950 . S
H1699 C1711 0.950 . S
C1700 H1692 0.950 . S
C1700 C1701 1.386 . S
C1700 C1702 1.391 . S
C1701 C1700 1.386 . S
C1701 C1705 1.393 . S
C1702 H1694 0.950 1_655 S
C1702 C1700 1.391 . S
C1702 C1703 1.400 1_655 S
C1703 C1702 1.400 1_455 S
C1703 C1704 1.398 1_455 S
C1703 C1709 1.491 . S
C1704 H1695 0.950 1_655 S
C1704 C1703 1.398 1_655 S
C1704 C1705 1.391 . S
C1705 H1693 0.950 . S
C1705 C1701 1.393 . S
C1705 C1704 1.391 . S
C1706 H1696 0.950 . S
C1706 C1707 1.386 . S
C1706 C1708 1.391 . S
C1707 C1706 1.386 . S
C1707 C1711 1.393 . S
C1708 H1697 0.950 . S
C1708 C1706 1.391 . S
C1708 C1709 1.400 . S
C1709 C1703 1.491 . S
C1709 C1708 1.400 . S
C1709 C1710 1.398 . S
C1710 H1698 0.950 . S
C1710 C1709 1.398 . S
C1710 C1711 1.391 . S
C1711 H1699 0.950 . S
C1711 C1707 1.393 . S
C1711 C1710 1.391 . S
H1712 C1720 0.950 . S
H1713 C1725 0.950 . S
H1714 C1722 0.950 . S
H1715 C1724 0.950 . S
H1716 C1726 0.950 . S
H1717 C1728 0.950 . S
H1718 C1730 0.950 . S
H1719 C1731 0.950 . S
C1720 H1712 0.950 . S
C1720 C1721 1.386 . S
C1720 C1722 1.391 . S
C1721 C1720 1.386 . S
C1721 C1725 1.393 . S
C1722 H1714 0.950 . S
C1722 C1720 1.391 . S
C1722 C1723 1.400 . S
C1723 C1722 1.400 . S
C1723 C1724 1.398 . S
C1723 C1729 1.491 . S
C1724 H1715 0.950 . S
C1724 C1723 1.398 . S
C1724 C1725 1.391 . S
C1725 H1713 0.950 . S
C1725 C1721 1.393 . S
C1725 C1724 1.391 . S
C1726 H1716 0.950 . S
C1726 C1727 1.386 . S
C1726 C1728 1.391 . S
C1727 C1726 1.386 . S
C1727 C1731 1.393 . S
C1728 H1717 0.950 . S
C1728 C1726 1.391 . S
C1728 C1729 1.400 . S
C1729 C1723 1.491 . S
C1729 C1728 1.400 . S
C1729 C1730 1.398 . S
C1730 H1718 0.950 . S
C1730 C1729 1.398 . S
C1730 C1731 1.391 . S
C1731 H1719 0.950 . S
C1731 C1727 1.393 . S
C1731 C1730 1.391 . S
H1732 C1740 0.950 . S
H1733 C1745 0.950 . S
H1734 C1742 0.950 . S
H1735 C1744 0.950 . S
H1736 C1746 0.950 . S
H1737 C1748 0.950 . S
H1738 C1750 0.915 1_455 S
H1739 C1751 0.950 . S
C1740 H1732 0.950 . S
C1740 C1741 1.386 . S
C1740 C1742 1.391 . S
C1741 C1740 1.386 . S
C1741 C1745 1.393 . S
C1742 H1734 0.950 . S
C1742 C1740 1.391 . S
C1742 C1743 1.400 . S
C1743 C1742 1.400 . S
C1743 C1744 1.398 . S
C1743 C1749 1.491 . S
C1744 H1735 0.950 . S
C1744 C1743 1.398 . S
C1744 C1745 1.391 . S
C1745 H1733 0.950 . S
C1745 C1741 1.393 . S
C1745 C1744 1.391 . S
C1746 H1736 0.950 . S
C1746 C1747 1.386 . S
C1746 C1748 1.391 . S
C1747 C1746 1.386 . S
C1747 C1751 1.393 . S
C1748 H1737 0.950 . S
C1748 C1746 1.391 . S
C1748 C1749 1.400 1_655 S
C1749 C1743 1.491 . S
C1749 C1748 1.400 1_455 S
C1749 C1750 1.381 1_455 S
C1750 H1738 0.915 1_655 S
C1750 C1749 1.381 1_655 S
C1750 C1751 1.444 . S
C1751 H1739 0.950 . S
C1751 C1747 1.393 . S
C1751 C1750 1.444 . S
H1752 C1760 0.950 . S
H1753 C1765 0.950 . S
H1754 C1762 0.950 . S
H1755 C1764 0.950 . S
H1756 C1766 0.950 . S
H1757 C1768 0.950 . S
H1758 C1770 0.950 . S
H1759 C1771 0.950 . S
C1760 H1752 0.950 . S
C1760 C1761 1.386 . S
C1760 C1762 1.391 . S
C1761 C1760 1.386 . S
C1761 C1765 1.393 . S
C1762 H1754 0.950 . S
C1762 C1760 1.391 . S
C1762 C1763 1.400 . S
C1763 C1762 1.400 . S
C1763 C1764 1.398 . S
C1763 C1769 1.491 . S
C1764 H1755 0.950 . S
C1764 C1763 1.398 . S
C1764 C1765 1.391 . S
C1765 H1753 0.950 . S
C1765 C1761 1.393 . S
C1765 C1764 1.391 . S
C1766 H1756 0.950 . S
C1766 C1767 1.386 . S
C1766 C1768 1.391 . S
C1767 C1766 1.386 . S
C1767 C1771 1.393 . S
C1768 H1757 0.950 . S
C1768 C1766 1.391 . S
C1768 C1769 1.400 . S
C1769 C1763 1.491 . S
C1769 C1768 1.400 . S
C1769 C1770 1.398 . S
C1770 H1758 0.950 . S
C1770 C1769 1.398 . S
C1770 C1771 1.391 . S
C1771 H1759 0.950 . S
C1771 C1767 1.393 . S
C1771 C1770 1.391 . S
H1772 C1780 0.950 . S
H1773 C1785 0.950 . S
H1774 C1782 0.950 . S
H1775 C1784 0.950 . S
H1776 C1786 0.950 . S
H1777 C1788 0.950 . S
H1778 C1790 0.950 . S
H1779 C1791 0.950 . S
C1780 H1772 0.950 . S
C1780 C1781 1.386 . S
C1780 C1782 1.391 . S
C1781 C1780 1.386 . S
C1781 C1785 1.393 . S
C1782 H1774 0.950 . S
C1782 C1780 1.391 . S
C1782 C1783 1.400 . S
C1783 C1782 1.400 . S
C1783 C1784 1.398 . S
C1783 C1789 1.491 . S
C1784 H1775 0.950 . S
C1784 C1783 1.398 . S
C1784 C1785 1.391 . S
C1785 H1773 0.950 . S
C1785 C1781 1.393 . S
C1785 C1784 1.391 . S
C1786 H1776 0.950 . S
C1786 C1787 1.386 . S
C1786 C1788 1.391 . S
C1787 C1786 1.386 . S
C1787 C1791 1.393 . S
C1788 H1777 0.950 . S
C1788 C1786 1.391 . S
C1788 C1789 1.400 . S
C1789 C1783 1.491 . S
C1789 C1788 1.400 . S
C1789 C1790 1.398 . S
C1790 H1778 0.950 . S
C1790 C1789 1.398 . S
C1790 C1791 1.391 . S
C1791 H1779 0.950 . S
C1791 C1787 1.393 . S
C1791 C1790 1.391 . S
H1792 C1800 0.950 . S
H1793 C1805 0.950 . S
H1794 C1802 0.950 . S
H1795 C1804 0.950 . S
H1796 C1806 0.950 . S
H1797 C1808 0.950 . S
H1798 C1810 0.950 . S
H1799 C1811 0.950 . S
C1800 H1792 0.950 . S
C1800 C1801 1.386 . S
C1800 C1802 1.391 . S
C1801 C1800 1.386 . S
C1801 C1805 1.393 . S
C1802 H1794 0.950 . S
C1802 C1800 1.391 . S
C1802 C1803 1.400 . S
C1803 C1802 1.400 . S
C1803 C1804 1.398 . S
C1803 C1809 1.491 . S
C1804 H1795 0.950 . S
C1804 C1803 1.398 . S
C1804 C1805 1.391 . S
C1805 H1793 0.950 . S
C1805 C1801 1.393 . S
C1805 C1804 1.391 . S
C1806 H1796 0.950 . S
C1806 C1807 1.386 . S
C1806 C1808 1.391 . S
C1807 C1806 1.386 . S
C1807 C1811 1.393 . S
C1808 H1797 0.950 . S
C1808 C1806 1.391 . S
C1808 C1809 1.400 . S
C1809 C1803 1.491 . S
C1809 C1808 1.400 . S
C1809 C1810 1.398 . S
C1810 H1798 0.950 . S
C1810 C1809 1.398 . S
C1810 C1811 1.391 . S
C1811 H1799 0.950 . S
C1811 C1807 1.393 . S
C1811 C1810 1.391 . S
H1812 C1820 0.950 . S
H1813 C1825 0.950 . S
H1814 C1822 0.950 . S
H1815 C1824 0.950 . S
H1816 C1826 0.950 . S
H1817 C1828 0.948 1_554 S
H1818 C1830 0.950 1_554 S
H1819 C1831 0.950 . S
C1820 H1812 0.950 . S
C1820 C1821 1.386 . S
C1820 C1822 1.391 . S
C1821 C1820 1.386 . S
C1821 C1825 1.393 . S
C1822 H1814 0.950 . S
C1822 C1820 1.391 . S
C1822 C1823 1.400 . S
C1823 C1822 1.400 . S
C1823 C1824 1.398 . S
C1823 C1829 1.491 . S
C1824 H1815 0.950 . S
C1824 C1823 1.398 . S
C1824 C1825 1.391 . S
C1825 H1813 0.950 . S
C1825 C1821 1.393 . S
C1825 C1824 1.391 . S
C1826 H1816 0.950 . S
C1826 C1827 1.386 . S
C1826 C1828 1.391 . S
C1827 C1826 1.386 . S
C1827 C1831 1.393 . S
C1828 H1817 0.948 1_556 S
C1828 C1826 1.391 . S
C1828 C1829 1.400 1_556 S
C1829 C1823 1.491 . S
C1829 C1828 1.400 1_554 S
C1829 C1830 1.398 1_554 S
C1830 H1818 0.950 1_556 S
C1830 C1829 1.398 1_556 S
C1830 C1831 1.391 . S
C1831 H1819 0.950 . S
C1831 C1827 1.393 . S
C1831 C1830 1.391 . S
H1832 C1840 0.950 . S
H1833 C1845 0.950 . S
H1834 C1842 0.950 . S
H1835 C1844 0.950 . S
H1836 C1846 0.950 . S
H1837 C1848 0.950 . S
H1838 C1850 0.950 . S
H1839 C1851 0.950 . S
C1840 H1832 0.950 . S
C1840 C1841 1.386 . S
C1840 C1842 1.391 . S
C1841 C1840 1.386 . S
C1841 C1845 1.393 . S
C1842 H1834 0.950 . S
C1842 C1840 1.391 . S
C1842 C1843 1.400 . S
C1843 C1842 1.400 . S
C1843 C1844 1.398 . S
C1843 C1849 1.491 . S
C1844 H1835 0.950 . S
C1844 C1843 1.398 . S
C1844 C1845 1.391 . S
C1845 H1833 0.950 . S
C1845 C1841 1.393 . S
C1845 C1844 1.391 . S
C1846 H1836 0.950 . S
C1846 C1847 1.386 . S
C1846 C1848 1.391 . S
C1847 C1846 1.386 . S
C1847 C1851 1.393 . S
C1848 H1837 0.950 . S
C1848 C1846 1.391 . S
C1848 C1849 1.400 . S
C1849 C1843 1.491 . S
C1849 C1848 1.400 . S
C1849 C1850 1.398 . S
C1850 H1838 0.950 . S
C1850 C1849 1.398 . S
C1850 C1851 1.391 . S
C1851 H1839 0.950 . S
C1851 C1847 1.393 . S
C1851 C1850 1.391 . S
H1852 C1860 0.950 . S
H1853 C1865 0.950 . S
H1854 C1862 0.950 . S
H1855 C1864 0.950 . S
H1856 C1866 0.950 . S
H1857 C1868 0.950 . S
H1858 C1870 0.950 . S
H1859 C1871 0.950 . S
C1860 H1852 0.950 . S
C1860 C1861 1.386 . S
C1860 C1862 1.391 . S
C1861 C1860 1.386 . S
C1861 C1865 1.393 . S
C1862 H1854 0.950 . S
C1862 C1860 1.391 . S
C1862 C1863 1.400 . S
C1863 C1862 1.400 . S
C1863 C1864 1.398 . S
C1863 C1869 1.491 . S
C1864 H1855 0.950 . S
C1864 C1863 1.398 . S
C1864 C1865 1.391 . S
C1865 H1853 0.950 . S
C1865 C1861 1.393 . S
C1865 C1864 1.391 . S
C1866 H1856 0.950 . S
C1866 C1867 1.386 . S
C1866 C1868 1.391 . S
C1867 C1866 1.386 . S
C1867 C1871 1.393 . S
C1868 H1857 0.950 . S
C1868 C1866 1.391 . S
C1868 C1869 1.400 . S
C1869 C1863 1.491 . S
C1869 C1868 1.400 . S
C1869 C1870 1.398 . S
C1870 H1858 0.950 . S
C1870 C1869 1.398 . S
C1870 C1871 1.391 . S
C1871 H1859 0.950 . S
C1871 C1867 1.393 . S
C1871 C1870 1.391 . S
H1872 C1880 0.950 . S
H1873 C1885 0.950 . S
H1874 C1882 0.950 . S
H1875 C1884 0.950 . S
H1876 C1886 0.950 . S
H1877 C1888 0.950 . S
H1878 C1890 0.950 . S
H1879 C1891 0.950 . S
C1880 H1872 0.950 . S
C1880 C1881 1.386 . S
C1880 C1882 1.391 . S
C1881 C1880 1.386 . S
C1881 C1885 1.393 . S
C1882 H1874 0.950 . S
C1882 C1880 1.391 . S
C1882 C1883 1.400 . S
C1883 C1882 1.400 . S
C1883 C1884 1.398 . S
C1883 C1889 1.491 . S
C1884 H1875 0.950 . S
C1884 C1883 1.398 . S
C1884 C1885 1.391 . S
C1885 H1873 0.950 . S
C1885 C1881 1.393 . S
C1885 C1884 1.391 . S
C1886 H1876 0.950 . S
C1886 C1887 1.386 . S
C1886 C1888 1.391 . S
C1887 C1886 1.386 . S
C1887 C1891 1.393 . S
C1888 H1877 0.950 . S
C1888 C1886 1.391 . S
C1888 C1889 1.400 . S
C1889 C1883 1.491 . S
C1889 C1888 1.400 . S
C1889 C1890 1.398 . S
C1890 H1878 0.950 . S
C1890 C1889 1.398 . S
C1890 C1891 1.391 . S
C1891 H1879 0.950 . S
C1891 C1887 1.393 . S
C1891 C1890 1.391 . S
H1892 C1900 0.950 . S
H1893 C1905 0.950 . S
H1894 C1902 0.950 . S
H1895 C1904 0.950 . S
H1896 C1906 0.950 . S
H1897 C1908 0.950 1_556 S
H1898 C1910 0.950 . S
H1899 C1911 0.950 . S
C1900 H1892 0.950 . S
C1900 C1901 1.386 . S
C1900 C1902 1.391 . S
C1901 C1900 1.386 . S
C1901 C1905 1.393 . S
C1902 H1894 0.950 . S
C1902 C1900 1.391 . S
C1902 C1903 1.400 . S
C1903 C1902 1.400 . S
C1903 C1904 1.398 . S
C1903 C1909 1.491 . S
C1904 H1895 0.950 . S
C1904 C1903 1.398 . S
C1904 C1905 1.391 . S
C1905 H1893 0.950 . S
C1905 C1901 1.393 . S
C1905 C1904 1.391 . S
C1906 H1896 0.950 . S
C1906 C1907 1.386 . S
C1906 C1908 1.391 . S
C1907 C1906 1.386 . S
C1907 C1911 1.393 . S
C1908 H1897 0.950 1_554 S
C1908 C1906 1.391 . S
C1908 C1909 1.400 1_554 S
C1909 C1903 1.491 . S
C1909 C1908 1.400 1_556 S
C1909 C1910 1.398 . S
C1910 H1898 0.950 . S
C1910 C1909 1.398 . S
C1910 C1911 1.391 1_556 S
C1911 H1899 0.950 . S
C1911 C1907 1.393 . S
C1911 C1910 1.391 1_554 S
H1912 C1920 0.950 . S
H1913 C1925 0.950 . S
H1914 C1922 0.950 . S
H1915 C1924 0.950 . S
H1916 C1926 0.950 . S
H1917 C1928 0.950 . S
H1918 C1930 0.950 . S
H1919 C1931 0.950 . S
C1920 H1912 0.950 . S
C1920 C1921 1.386 . S
C1920 C1922 1.391 . S
C1921 C1920 1.386 . S
C1921 C1925 1.393 . S
C1922 H1914 0.950 . S
C1922 C1920 1.391 . S
C1922 C1923 1.400 . S
C1923 C1922 1.400 . S
C1923 C1924 1.398 . S
C1923 C1929 1.491 . S
C1924 H1915 0.950 . S
C1924 C1923 1.398 . S
C1924 C1925 1.391 . S
C1925 H1913 0.950 . S
C1925 C1921 1.393 . S
C1925 C1924 1.391 . S
C1926 H1916 0.950 . S
C1926 C1927 1.386 . S
C1926 C1928 1.391 . S
C1927 C1926 1.386 . S
C1927 C1931 1.393 . S
C1928 H1917 0.950 . S
C1928 C1926 1.391 . S
C1928 C1929 1.400 . S
C1929 C1923 1.491 . S
C1929 C1928 1.400 . S
C1929 C1930 1.398 . S
C1930 H1918 0.950 . S
C1930 C1929 1.398 . S
C1930 C1931 1.391 . S
C1931 H1919 0.950 . S
C1931 C1927 1.393 . S
C1931 C1930 1.391 . S
H1932 C1940 0.950 . S
H1933 C1945 0.950 . S
H1934 C1942 0.950 . S
H1935 C1944 0.950 . S
H1936 C1946 0.950 . S
H1937 C1948 0.950 . S
H1938 C1950 0.950 . S
H1939 C1951 0.950 . S
C1940 H1932 0.950 . S
C1940 C1941 1.386 . S
C1940 C1942 1.391 . S
C1941 C1940 1.386 . S
C1941 C1945 1.393 . S
C1942 H1934 0.950 . S
C1942 C1940 1.391 . S
C1942 C1943 1.400 . S
C1943 C1942 1.400 . S
C1943 C1944 1.398 . S
C1943 C1949 1.491 . S
C1944 H1935 0.950 . S
C1944 C1943 1.398 . S
C1944 C1945 1.391 . S
C1945 H1933 0.950 . S
C1945 C1941 1.393 . S
C1945 C1944 1.391 . S
C1946 H1936 0.950 . S
C1946 C1947 1.386 . S
C1946 C1948 1.391 . S
C1947 C1946 1.386 . S
C1947 C1951 1.393 . S
C1948 H1937 0.950 . S
C1948 C1946 1.391 . S
C1948 C1949 1.400 . S
C1949 C1943 1.491 . S
C1949 C1948 1.400 . S
C1949 C1950 1.398 . S
C1950 H1938 0.950 . S
C1950 C1949 1.398 . S
C1950 C1951 1.391 . S
C1951 H1939 0.950 . S
C1951 C1947 1.393 . S
C1951 C1950 1.391 . S
H1952 C1960 0.950 . S
H1953 C1965 0.950 . S
H1954 C1962 0.950 . S
H1955 C1964 0.950 . S
H1956 C1966 0.950 . S
H1957 C1968 0.950 . S
H1958 C1970 0.950 . S
H1959 C1971 0.950 . S
C1960 H1952 0.950 . S
C1960 C1961 1.386 . S
C1960 C1962 1.391 . S
C1961 C1960 1.386 . S
C1961 C1965 1.393 . S
C1962 H1954 0.950 . S
C1962 C1960 1.391 . S
C1962 C1963 1.400 . S
C1963 C1962 1.400 . S
C1963 C1964 1.398 . S
C1963 C1969 1.491 . S
C1964 H1955 0.950 . S
C1964 C1963 1.398 . S
C1964 C1965 1.391 . S
C1965 H1953 0.950 . S
C1965 C1961 1.393 . S
C1965 C1964 1.391 . S
C1966 H1956 0.950 . S
C1966 C1967 1.386 . S
C1966 C1968 1.391 . S
C1967 C1966 1.386 . S
C1967 C1971 1.393 . S
C1968 H1957 0.950 . S
C1968 C1966 1.391 . S
C1968 C1969 1.400 . S
C1969 C1963 1.491 . S
C1969 C1968 1.400 . S
C1969 C1970 1.398 . S
C1970 H1958 0.950 . S
C1970 C1969 1.398 . S
C1970 C1971 1.391 . S
C1971 H1959 0.950 . S
C1971 C1967 1.393 . S
C1971 C1970 1.391 . S
H1972 C1980 0.950 . S
H1973 C1985 0.950 . S
H1974 C1982 0.950 . S
H1975 C1984 0.950 . S
H1976 C1986 0.950 . S
H1977 C1988 0.950 . S
H1978 C1990 0.950 . S
H1979 C1991 0.950 . S
C1980 H1972 0.950 . S
C1980 C1981 1.386 . S
C1980 C1982 1.391 . S
C1981 C1980 1.386 . S
C1981 C1985 1.393 . S
C1982 H1974 0.950 . S
C1982 C1980 1.391 . S
C1982 C1983 1.400 . S
C1983 C1982 1.400 . S
C1983 C1984 1.398 . S
C1983 C1989 1.491 . S
C1984 H1975 0.950 . S
C1984 C1983 1.398 . S
C1984 C1985 1.391 . S
C1985 H1973 0.950 . S
C1985 C1981 1.393 . S
C1985 C1984 1.391 . S
C1986 H1976 0.950 . S
C1986 C1987 1.386 . S
C1986 C1988 1.391 . S
C1987 C1986 1.386 . S
C1987 C1991 1.393 . S
C1988 H1977 0.950 . S
C1988 C1986 1.391 . S
C1988 C1989 1.400 . S
C1989 C1983 1.491 . S
C1989 C1988 1.400 . S
C1989 C1990 1.398 . S
C1990 H1978 0.950 . S
C1990 C1989 1.398 . S
C1990 C1991 1.391 . S
C1991 H1979 0.950 . S
C1991 C1987 1.393 . S
C1991 C1990 1.391 . S
H1992 C2000 0.950 . S
H1993 C2005 0.950 . S
H1994 C2002 0.950 . S
H1995 C2004 0.950 . S
H1996 C2006 0.950 . S
H1997 C2008 0.950 . S
H1998 C2010 0.950 . S
H1999 C2011 0.950 . S
C2000 H1992 0.950 . S
C2000 C2001 1.386 . S
C2000 C2002 1.391 . S
C2001 C2000 1.386 . S
C2001 C2005 1.393 . S
C2002 H1994 0.950 . S
C2002 C2000 1.391 . S
C2002 C2003 1.400 . S
C2003 C2002 1.400 . S
C2003 C2004 1.398 . S
C2003 C2009 1.491 . S
C2004 H1995 0.950 . S
C2004 C2003 1.398 . S
C2004 C2005 1.391 . S
C2005 H1993 0.950 . S
C2005 C2001 1.393 . S
C2005 C2004 1.391 . S
C2006 H1996 0.950 . S
C2006 C2007 1.386 . S
C2006 C2008 1.391 . S
C2007 C2006 1.386 . S
C2007 C2011 1.393 . S
C2008 H1997 0.950 . S
C2008 C2006 1.391 . S
C2008 C2009 1.400 1_565 S
C2009 C2003 1.491 . S
C2009 C2008 1.400 1_545 S
C2009 C2010 1.398 . S
C2010 H1998 0.950 . S
C2010 C2009 1.398 . S
C2010 C2011 1.391 1_545 S
C2011 H1999 0.950 . S
C2011 C2007 1.393 . S
C2011 C2010 1.391 1_565 S
H2012 C2020 0.950 . S
H2013 C2025 0.950 . S
H2014 C2022 0.950 . S
H2015 C2024 0.950 . S
H2016 C2026 0.950 . S
H2017 C2028 0.950 . S
H2018 C2030 0.950 . S
H2019 C2031 0.950 . S
C2020 H2012 0.950 . S
C2020 C2021 1.386 . S
C2020 C2022 1.391 . S
C2021 C2020 1.386 . S
C2021 C2025 1.393 . S
C2022 H2014 0.950 . S
C2022 C2020 1.391 . S
C2022 C2023 1.400 . S
C2023 C2022 1.400 . S
C2023 C2024 1.398 . S
C2023 C2029 1.491 . S
C2024 H2015 0.950 . S
C2024 C2023 1.398 . S
C2024 C2025 1.391 . S
C2025 H2013 0.950 . S
C2025 C2021 1.393 . S
C2025 C2024 1.391 . S
C2026 H2016 0.950 . S
C2026 C2027 1.386 . S
C2026 C2028 1.391 . S
C2027 C2026 1.386 . S
C2027 C2031 1.393 . S
C2028 H2017 0.950 . S
C2028 C2026 1.391 . S
C2028 C2029 1.400 . S
C2029 C2023 1.491 . S
C2029 C2028 1.400 . S
C2029 C2030 1.398 . S
C2030 H2018 0.950 . S
C2030 C2029 1.398 . S
C2030 C2031 1.391 . S
C2031 H2019 0.950 . S
C2031 C2027 1.393 . S
C2031 C2030 1.391 . S
H2032 C2040 0.950 . S
H2033 C2045 0.950 . S
H2034 C2042 0.950 . S
H2035 C2044 0.950 . S
H2036 C2046 0.950 . S
H2037 C2048 0.950 . S
H2038 C2050 0.950 . S
H2039 C2051 0.950 . S
C2040 H2032 0.950 . S
C2040 C2041 1.386 . S
C2040 C2042 1.391 . S
C2041 C2040 1.386 . S
C2041 C2045 1.393 . S
C2042 H2034 0.950 . S
C2042 C2040 1.391 . S
C2042 C2043 1.400 . S
C2043 C2042 1.400 . S
C2043 C2044 1.398 . S
C2043 C2049 1.491 . S
C2044 H2035 0.950 . S
C2044 C2043 1.398 . S
C2044 C2045 1.391 . S
C2045 H2033 0.950 . S
C2045 C2041 1.393 . S
C2045 C2044 1.391 . S
C2046 H2036 0.950 . S
C2046 C2047 1.386 . S
C2046 C2048 1.391 . S
C2047 C2046 1.386 . S
C2047 C2051 1.393 . S
C2048 H2037 0.950 . S
C2048 C2046 1.391 . S
C2048 C2049 1.400 . S
C2049 C2043 1.491 . S
C2049 C2048 1.400 . S
C2049 C2050 1.398 . S
C2050 H2038 0.950 . S
C2050 C2049 1.398 . S
C2050 C2051 1.391 . S
C2051 H2039 0.950 . S
C2051 C2047 1.393 . S
C2051 C2050 1.391 . S
H2052 C2060 0.950 . S
H2053 C2065 0.950 . S
H2054 C2062 0.950 . S
H2055 C2064 0.950 . S
H2056 C2066 0.950 . S
H2057 C2068 0.950 . S
H2058 C2070 0.950 . S
H2059 C2071 0.950 . S
C2060 H2052 0.950 . S
C2060 C2061 1.386 . S
C2060 C2062 1.391 . S
C2061 C2060 1.386 . S
C2061 C2065 1.393 . S
C2062 H2054 0.950 . S
C2062 C2060 1.391 . S
C2062 C2063 1.400 . S
C2063 C2062 1.400 . S
C2063 C2064 1.398 . S
C2063 C2069 1.491 . S
C2064 H2055 0.950 . S
C2064 C2063 1.398 . S
C2064 C2065 1.391 . S
C2065 H2053 0.950 . S
C2065 C2061 1.393 . S
C2065 C2064 1.391 . S
C2066 H2056 0.950 . S
C2066 C2067 1.386 . S
C2066 C2068 1.391 . S
C2067 C2066 1.386 . S
C2067 C2071 1.393 . S
C2068 H2057 0.950 . S
C2068 C2066 1.391 . S
C2068 C2069 1.400 . S
C2069 C2063 1.491 . S
C2069 C2068 1.400 . S
C2069 C2070 1.398 . S
C2070 H2058 0.950 . S
C2070 C2069 1.398 . S
C2070 C2071 1.391 . S
C2071 H2059 0.950 . S
C2071 C2067 1.393 . S
C2071 C2070 1.391 . S
H2072 C2080 0.950 . S
H2073 C2085 0.950 . S
H2074 C2082 0.950 1_565 S
H2075 C2084 0.950 . S
H2076 C2086 0.950 . S
H2077 C2088 0.950 . S
H2078 C2090 0.950 . S
H2079 C2091 0.950 . S
C2080 H2072 0.950 . S
C2080 C2081 1.386 . S
C2080 C2082 1.391 . S
C2081 C2080 1.386 . S
C2081 C2085 1.393 . S
C2082 H2074 0.950 1_545 S
C2082 C2080 1.391 . S
C2082 C2083 1.389 1_545 S
C2083 C2082 1.389 1_565 S
C2083 C2084 1.372 1_565 S
C2083 C2089 1.527 . S
C2084 H2075 0.950 . S
C2084 C2083 1.372 1_545 S
C2084 C2085 1.391 . S
C2085 H2073 0.950 . S
C2085 C2081 1.393 . S
C2085 C2084 1.391 . S
C2086 H2076 0.950 . S
C2086 C2087 1.386 . S
C2086 C2088 1.391 . S
C2087 C2086 1.386 . S
C2087 C2091 1.393 . S
C2088 H2077 0.950 . S
C2088 C2086 1.391 . S
C2088 C2089 1.400 . S
C2089 C2083 1.527 . S
C2089 C2088 1.400 . S
C2089 C2090 1.398 . S
C2090 H2078 0.950 . S
C2090 C2089 1.398 . S
C2090 C2091 1.391 . S
C2091 H2079 0.950 . S
C2091 C2087 1.393 . S
C2091 C2090 1.391 . S
H2092 C2100 0.950 . S
H2093 C2105 0.950 . S
H2094 C2102 0.950 . S
H2095 C2104 0.950 . S
H2096 C2106 0.950 . S
H2097 C2108 0.950 1_545 S
H2098 C2110 0.950 . S
H2099 C2111 0.950 . S
C2100 H2092 0.950 . S
C2100 C2101 1.386 . S
C2100 C2102 1.391 . S
C2101 C2100 1.386 . S
C2101 C2105 1.393 . S
C2102 H2094 0.950 . S
C2102 C2100 1.391 . S
C2102 C2103 1.400 . S
C2103 C2102 1.400 . S
C2103 C2104 1.398 . S
C2103 C2109 1.491 . S
C2104 H2095 0.950 . S
C2104 C2103 1.398 . S
C2104 C2105 1.391 . S
C2105 H2093 0.950 . S
C2105 C2101 1.393 . S
C2105 C2104 1.391 . S
C2106 H2096 0.950 . S
C2106 C2107 1.386 . S
C2106 C2108 1.391 . S
C2107 C2106 1.386 . S
C2107 C2111 1.393 . S
C2108 H2097 0.950 1_565 S
C2108 C2106 1.391 . S
C2108 C2109 1.400 1_565 S
C2109 C2103 1.491 . S
C2109 C2108 1.400 1_545 S
C2109 C2110 1.398 1_545 S
C2110 H2098 0.950 . S
C2110 C2109 1.398 1_565 S
C2110 C2111 1.391 . S
C2111 H2099 0.950 . S
C2111 C2107 1.393 . S
C2111 C2110 1.391 . S
H2112 C2120 0.950 . S
H2113 C2125 0.950 . S
H2114 C2122 0.950 . S
H2115 C2124 0.950 . S
H2116 C2126 0.950 . S
H2117 C2128 0.950 . S
H2118 C2130 0.950 . S
H2119 C2131 0.950 . S
C2120 H2112 0.950 . S
C2120 C2121 1.386 . S
C2120 C2122 1.391 . S
C2121 C2120 1.386 . S
C2121 C2125 1.393 . S
C2122 H2114 0.950 . S
C2122 C2120 1.391 . S
C2122 C2123 1.400 . S
C2123 C2122 1.400 . S
C2123 C2124 1.398 . S
C2123 C2129 1.491 . S
C2124 H2115 0.950 . S
C2124 C2123 1.398 . S
C2124 C2125 1.391 . S
C2125 H2113 0.950 . S
C2125 C2121 1.393 . S
C2125 C2124 1.391 . S
C2126 H2116 0.950 . S
C2126 C2127 1.386 . S
C2126 C2128 1.391 . S
C2127 C2126 1.386 . S
C2127 C2131 1.393 . S
C2128 H2117 0.950 . S
C2128 C2126 1.391 . S
C2128 C2129 1.400 . S
C2129 C2123 1.491 . S
C2129 C2128 1.400 . S
C2129 C2130 1.398 . S
C2130 H2118 0.950 . S
C2130 C2129 1.398 . S
C2130 C2131 1.391 . S
C2131 H2119 0.950 . S
C2131 C2127 1.393 . S
C2131 C2130 1.391 . S
H2132 C2140 0.950 . S
H2133 C2145 0.950 . S
H2134 C2142 0.950 . S
H2135 C2144 0.950 . S
H2136 C2146 0.950 . S
H2137 C2148 0.950 . S
H2138 C2150 0.950 . S
H2139 C2151 0.950 . S
C2140 H2132 0.950 . S
C2140 C2141 1.386 . S
C2140 C2142 1.391 . S
C2141 C2140 1.386 . S
C2141 C2145 1.393 . S
C2142 H2134 0.950 . S
C2142 C2140 1.391 . S
C2142 C2143 1.400 . S
C2143 C2142 1.400 . S
C2143 C2144 1.398 . S
C2143 C2149 1.491 . S
C2144 H2135 0.950 . S
C2144 C2143 1.398 . S
C2144 C2145 1.391 . S
C2145 H2133 0.950 . S
C2145 C2141 1.393 . S
C2145 C2144 1.391 . S
C2146 H2136 0.950 . S
C2146 C2147 1.386 . S
C2146 C2148 1.391 . S
C2147 C2146 1.386 . S
C2147 C2151 1.393 . S
C2148 H2137 0.950 . S
C2148 C2146 1.391 . S
C2148 C2149 1.400 . S
C2149 C2143 1.491 . S
C2149 C2148 1.400 . S
C2149 C2150 1.398 . S
C2150 H2138 0.950 . S
C2150 C2149 1.398 . S
C2150 C2151 1.391 . S
C2151 H2139 0.950 . S
C2151 C2147 1.393 . S
C2151 C2150 1.391 . S
H2152 C2160 0.950 . S
H2153 C2165 0.950 . S
H2154 C2162 0.950 . S
H2155 C2164 0.950 . S
H2156 C2166 0.950 . S
H2157 C2168 0.950 . S
H2158 C2170 0.950 . S
H2159 C2171 0.950 . S
C2160 H2152 0.950 . S
C2160 C2161 1.386 . S
C2160 C2162 1.391 . S
C2161 C2160 1.386 . S
C2161 C2165 1.393 . S
C2162 H2154 0.950 . S
C2162 C2160 1.391 . S
C2162 C2163 1.400 . S
C2163 C2162 1.400 . S
C2163 C2164 1.398 . S
C2163 C2169 1.491 . S
C2164 H2155 0.950 . S
C2164 C2163 1.398 . S
C2164 C2165 1.391 . S
C2165 H2153 0.950 . S
C2165 C2161 1.393 . S
C2165 C2164 1.391 . S
C2166 H2156 0.950 . S
C2166 C2167 1.386 . S
C2166 C2168 1.391 . S
C2167 C2166 1.386 . S
C2167 C2171 1.393 . S
C2168 H2157 0.950 . S
C2168 C2166 1.391 . S
C2168 C2169 1.400 . S
C2169 C2163 1.491 . S
C2169 C2168 1.400 . S
C2169 C2170 1.398 . S
C2170 H2158 0.950 . S
C2170 C2169 1.398 . S
C2170 C2171 1.391 . S
C2171 H2159 0.950 . S
C2171 C2167 1.393 . S
C2171 C2170 1.391 . S
H2172 C2180 0.950 . S
H2173 C2185 0.950 . S
H2174 C2182 0.950 . S
H2175 C2184 0.925 1_655 S
H2176 C2186 0.950 . S
H2177 C2188 0.950 . S
H2178 C2190 0.950 . S
H2179 C2191 0.950 . S
C2180 H2172 0.950 . S
C2180 C2181 1.386 . S
C2180 C2182 1.391 . S
C2181 C2180 1.386 . S
C2181 C2185 1.393 . S
C2182 H2174 0.950 . S
C2182 C2180 1.391 . S
C2182 C2183 1.400 1_455 S
C2183 C2182 1.400 1_655 S
C2183 C2184 1.387 1_655 S
C2183 C2189 1.491 . S
C2184 H2175 0.925 1_455 S
C2184 C2183 1.387 1_455 S
C2184 C2185 1.427 . S
C2185 H2173 0.950 . S
C2185 C2181 1.393 . S
C2185 C2184 1.427 . S
C2186 H2176 0.950 . S
C2186 C2187 1.386 . S
C2186 C2188 1.391 . S
C2187 C2186 1.386 . S
C2187 C2191 1.393 . S
C2188 H2177 0.950 . S
C2188 C2186 1.391 . S
C2188 C2189 1.400 . S
C2189 C2183 1.491 . S
C2189 C2188 1.400 . S
C2189 C2190 1.398 . S
C2190 H2178 0.950 . S
C2190 C2189 1.398 . S
C2190 C2191 1.391 . S
C2191 H2179 0.950 . S
C2191 C2187 1.393 . S
C2191 C2190 1.391 . S
H2192 C2200 0.950 . S
H2193 C2205 0.950 . S
H2194 C2202 0.950 . S
H2195 C2204 0.950 . S
H2196 C2206 0.950 . S
H2197 C2208 0.950 . S
H2198 C2210 0.950 . S
H2199 C2211 0.950 . S
C2200 H2192 0.950 . S
C2200 C2201 1.386 . S
C2200 C2202 1.391 . S
C2201 C2200 1.386 . S
C2201 C2205 1.393 . S
C2202 H2194 0.950 . S
C2202 C2200 1.391 . S
C2202 C2203 1.400 . S
C2203 C2202 1.400 . S
C2203 C2204 1.398 . S
C2203 C2209 1.491 . S
C2204 H2195 0.950 . S
C2204 C2203 1.398 . S
C2204 C2205 1.391 . S
C2205 H2193 0.950 . S
C2205 C2201 1.393 . S
C2205 C2204 1.391 . S
C2206 H2196 0.950 . S
C2206 C2207 1.386 . S
C2206 C2208 1.391 . S
C2207 C2206 1.386 . S
C2207 C2211 1.393 . S
C2208 H2197 0.950 . S
C2208 C2206 1.391 . S
C2208 C2209 1.400 . S
C2209 C2203 1.491 . S
C2209 C2208 1.400 . S
C2209 C2210 1.398 . S
C2210 H2198 0.950 . S
C2210 C2209 1.398 . S
C2210 C2211 1.391 . S
C2211 H2199 0.950 . S
C2211 C2207 1.393 . S
C2211 C2210 1.391 . S
H2212 C2220 0.950 . S
H2213 C2225 0.950 . S
H2214 C2222 0.935 1_655 S
H2215 C2224 0.950 1_655 S
H2216 C2226 0.950 . S
H2217 C2228 0.950 . S
H2218 C2230 0.950 . S
H2219 C2231 0.950 . S
C2220 H2212 0.950 . S
C2220 C2221 1.386 . S
C2220 C2222 1.391 . S
C2221 C2220 1.386 . S
C2221 C2225 1.393 . S
C2222 H2214 0.935 1_455 S
C2222 C2220 1.391 . S
C2222 C2223 1.400 1_455 S
C2223 C2222 1.400 1_655 S
C2223 C2224 1.398 1_655 S
C2223 C2229 1.491 . S
C2224 H2215 0.950 1_455 S
C2224 C2223 1.398 1_455 S
C2224 C2225 1.391 . S
C2225 H2213 0.950 . S
C2225 C2221 1.393 . S
C2225 C2224 1.391 . S
C2226 H2216 0.950 . S
C2226 C2227 1.386 . S
C2226 C2228 1.391 . S
C2227 C2226 1.386 . S
C2227 C2231 1.393 . S
C2228 H2217 0.950 . S
C2228 C2226 1.391 . S
C2228 C2229 1.400 . S
C2229 C2223 1.491 . S
C2229 C2228 1.400 . S
C2229 C2230 1.398 . S
C2230 H2218 0.950 . S
C2230 C2229 1.398 . S
C2230 C2231 1.391 . S
C2231 H2219 0.950 . S
C2231 C2227 1.393 . S
C2231 C2230 1.391 . S
H2232 C2240 0.950 . S
H2233 C2245 0.950 . S
H2234 C2242 0.950 . S
H2235 C2244 0.950 . S
H2236 C2246 0.950 . S
H2237 C2248 0.950 . S
H2238 C2250 0.950 . S
H2239 C2251 0.950 . S
C2240 H2232 0.950 . S
C2240 C2241 1.386 . S
C2240 C2242 1.391 . S
C2241 C2240 1.386 . S
C2241 C2245 1.393 . S
C2242 H2234 0.950 . S
C2242 C2240 1.391 . S
C2242 C2243 1.400 . S
C2243 C2242 1.400 . S
C2243 C2244 1.398 . S
C2243 C2249 1.491 . S
C2244 H2235 0.950 . S
C2244 C2243 1.398 . S
C2244 C2245 1.391 . S
C2245 H2233 0.950 . S
C2245 C2241 1.393 . S
C2245 C2244 1.391 . S
C2246 H2236 0.950 . S
C2246 C2247 1.386 . S
C2246 C2248 1.391 . S
C2247 C2246 1.386 . S
C2247 C2251 1.393 . S
C2248 H2237 0.950 . S
C2248 C2246 1.391 . S
C2248 C2249 1.400 . S
C2249 C2243 1.491 . S
C2249 C2248 1.400 . S
C2249 C2250 1.398 . S
C2250 H2238 0.950 . S
C2250 C2249 1.398 . S
C2250 C2251 1.391 . S
C2251 H2239 0.950 . S
C2251 C2247 1.393 . S
C2251 C2250 1.391 . S
H2252 C2260 0.950 . S
H2253 C2265 0.950 . S
H2254 C2262 0.950 . S
H2255 C2264 0.950 . S
H2256 C2266 0.950 . S
H2257 C2268 0.950 . S
H2258 C2270 0.950 . S
H2259 C2271 0.950 . S
C2260 H2252 0.950 . S
C2260 C2261 1.386 . S
C2260 C2262 1.391 . S
C2261 C2260 1.386 . S
C2261 C2265 1.393 . S
C2262 H2254 0.950 . S
C2262 C2260 1.391 . S
C2262 C2263 1.400 . S
C2263 C2262 1.400 . S
C2263 C2264 1.398 . S
C2263 C2269 1.491 . S
C2264 H2255 0.950 . S
C2264 C2263 1.398 . S
C2264 C2265 1.391 . S
C2265 H2253 0.950 . S
C2265 C2261 1.393 . S
C2265 C2264 1.391 . S
C2266 H2256 0.950 . S
C2266 C2267 1.386 . S
C2266 C2268 1.391 . S
C2267 C2266 1.386 . S
C2267 C2271 1.393 . S
C2268 H2257 0.950 . S
C2268 C2266 1.391 . S
C2268 C2269 1.400 . S
C2269 C2263 1.491 . S
C2269 C2268 1.400 . S
C2269 C2270 1.398 . S
C2270 H2258 0.950 . S
C2270 C2269 1.398 . S
C2270 C2271 1.391 . S
C2271 H2259 0.950 . S
C2271 C2267 1.393 . S
C2271 C2270 1.391 . S
H2272 C2280 0.950 . S
H2273 C2285 0.950 . S
H2274 C2282 0.950 . S
H2275 C2284 0.950 . S
H2276 C2286 0.950 . S
H2277 C2288 0.950 . S
H2278 C2290 0.950 . S
H2279 C2291 0.950 . S
C2280 H2272 0.950 . S
C2280 C2281 1.386 . S
C2280 C2282 1.391 . S
C2281 C2280 1.386 . S
C2281 C2285 1.393 . S
C2282 H2274 0.950 . S
C2282 C2280 1.391 . S
C2282 C2283 1.400 . S
C2283 C2282 1.400 . S
C2283 C2284 1.398 . S
C2283 C2289 1.491 . S
C2284 H2275 0.950 . S
C2284 C2283 1.398 . S
C2284 C2285 1.391 . S
C2285 H2273 0.950 . S
C2285 C2281 1.393 . S
C2285 C2284 1.391 . S
C2286 H2276 0.950 . S
C2286 C2287 1.386 . S
C2286 C2288 1.391 . S
C2287 C2286 1.386 . S
C2287 C2291 1.393 . S
C2288 H2277 0.950 . S
C2288 C2286 1.391 . S
C2288 C2289 1.400 . S
C2289 C2283 1.491 . S
C2289 C2288 1.400 . S
C2289 C2290 1.398 . S
C2290 H2278 0.950 . S
C2290 C2289 1.398 . S
C2290 C2291 1.391 . S
C2291 H2279 0.950 . S
C2291 C2287 1.393 . S
C2291 C2290 1.391 . S
H2292 C2300 0.950 . S
H2293 C2305 0.950 . S
H2294 C2302 0.950 . S
H2295 C2304 0.950 . S
H2296 C2306 0.950 . S
H2297 C2308 0.950 1_556 S
H2298 C2310 0.950 . S
H2299 C2311 0.950 . S
C2300 H2292 0.950 . S
C2300 C2301 1.386 . S
C2300 C2302 1.391 . S
C2301 C2300 1.386 . S
C2301 C2305 1.393 . S
C2302 H2294 0.950 . S
C2302 C2300 1.391 . S
C2302 C2303 1.400 . S
C2303 C2302 1.400 . S
C2303 C2304 1.398 . S
C2303 C2309 1.491 . S
C2304 H2295 0.950 . S
C2304 C2303 1.398 . S
C2304 C2305 1.391 . S
C2305 H2293 0.950 . S
C2305 C2301 1.393 . S
C2305 C2304 1.391 . S
C2306 H2296 0.950 . S
C2306 C2307 1.386 . S
C2306 C2308 1.391 . S
C2307 C2306 1.386 . S
C2307 C2311 1.393 . S
C2308 H2297 0.950 1_554 S
C2308 C2306 1.391 . S
C2308 C2309 1.400 1_554 S
C2309 C2303 1.491 . S
C2309 C2308 1.400 1_556 S
C2309 C2310 1.398 1_556 S
C2310 H2298 0.950 . S
C2310 C2309 1.398 1_554 S
C2310 C2311 1.391 . S
C2311 H2299 0.950 . S
C2311 C2307 1.393 . S
C2311 C2310 1.391 . S
H2312 C2320 0.950 . S
H2313 C2325 0.950 . S
H2314 C2322 0.950 . S
H2315 C2324 0.950 . S
H2316 C2326 0.950 . S
H2317 C2328 0.950 . S
H2318 C2330 0.950 . S
H2319 C2331 0.950 . S
C2320 H2312 0.950 . S
C2320 C2321 1.386 . S
C2320 C2322 1.391 . S
C2321 C2320 1.386 . S
C2321 C2325 1.393 . S
C2322 H2314 0.950 . S
C2322 C2320 1.391 . S
C2322 C2323 1.400 . S
C2323 C2322 1.400 . S
C2323 C2324 1.398 . S
C2323 C2329 1.491 . S
C2324 H2315 0.950 . S
C2324 C2323 1.398 . S
C2324 C2325 1.391 . S
C2325 H2313 0.950 . S
C2325 C2321 1.393 . S
C2325 C2324 1.391 . S
C2326 H2316 0.950 . S
C2326 C2327 1.386 . S
C2326 C2328 1.391 . S
C2327 C2326 1.386 . S
C2327 C2331 1.393 . S
C2328 H2317 0.950 . S
C2328 C2326 1.391 . S
C2328 C2329 1.400 . S
C2329 C2323 1.491 . S
C2329 C2328 1.400 . S
C2329 C2330 1.398 . S
C2330 H2318 0.950 . S
C2330 C2329 1.398 . S
C2330 C2331 1.391 . S
C2331 H2319 0.950 . S
C2331 C2327 1.393 . S
C2331 C2330 1.391 . S
H2332 C2340 0.950 . S
H2333 C2345 0.950 . S
H2334 C2342 0.950 . S
H2335 C2344 0.950 . S
H2336 C2346 0.950 . S
H2337 C2348 0.950 . S
H2338 C2350 0.950 . S
H2339 C2351 0.950 . S
C2340 H2332 0.950 . S
C2340 C2341 1.386 . S
C2340 C2342 1.391 . S
C2341 C2340 1.386 . S
C2341 C2345 1.393 . S
C2342 H2334 0.950 . S
C2342 C2340 1.391 . S
C2342 C2343 1.400 . S
C2343 C2342 1.400 . S
C2343 C2344 1.398 . S
C2343 C2349 1.491 . S
C2344 H2335 0.950 . S
C2344 C2343 1.398 . S
C2344 C2345 1.391 . S
C2345 H2333 0.950 . S
C2345 C2341 1.393 . S
C2345 C2344 1.391 . S
C2346 H2336 0.950 . S
C2346 C2347 1.386 . S
C2346 C2348 1.391 . S
C2347 C2346 1.386 . S
C2347 C2351 1.393 . S
C2348 H2337 0.950 . S
C2348 C2346 1.391 . S
C2348 C2349 1.400 . S
C2349 C2343 1.491 . S
C2349 C2348 1.400 . S
C2349 C2350 1.398 . S
C2350 H2338 0.950 . S
C2350 C2349 1.398 . S
C2350 C2351 1.391 . S
C2351 H2339 0.950 . S
C2351 C2347 1.393 . S
C2351 C2350 1.391 . S
H2352 C2360 0.950 . S
H2353 C2365 0.950 . S
H2354 C2362 0.950 . S
H2355 C2364 0.950 . S
H2356 C2366 0.950 . S
H2357 C2368 0.950 . S
H2358 C2370 0.950 . S
H2359 C2371 0.950 . S
C2360 H2352 0.950 . S
C2360 C2361 1.386 . S
C2360 C2362 1.391 . S
C2361 C2360 1.386 . S
C2361 C2365 1.393 . S
C2362 H2354 0.950 . S
C2362 C2360 1.391 . S
C2362 C2363 1.400 . S
C2363 C2362 1.400 . S
C2363 C2364 1.398 . S
C2363 C2369 1.491 . S
C2364 H2355 0.950 . S
C2364 C2363 1.398 . S
C2364 C2365 1.391 . S
C2365 H2353 0.950 . S
C2365 C2361 1.393 . S
C2365 C2364 1.391 . S
C2366 H2356 0.950 . S
C2366 C2367 1.386 . S
C2366 C2368 1.391 . S
C2367 C2366 1.386 . S
C2367 C2371 1.393 . S
C2368 H2357 0.950 . S
C2368 C2366 1.391 . S
C2368 C2369 1.400 . S
C2369 C2363 1.491 . S
C2369 C2368 1.400 . S
C2369 C2370 1.398 . S
C2370 H2358 0.950 . S
C2370 C2369 1.398 . S
C2370 C2371 1.391 . S
C2371 H2359 0.950 . S
C2371 C2367 1.393 . S
C2371 C2370 1.391 . S
H2372 C2380 0.950 . S
H2373 C2385 0.950 . S
H2374 C2382 0.950 . S
H2375 C2384 0.950 . S
H2376 C2386 0.950 . S
H2377 C2388 0.950 . S
H2378 C2390 0.950 1_554 S
H2379 C2391 0.950 . S
C2380 H2372 0.950 . S
C2380 C2381 1.386 . S
C2380 C2382 1.391 . S
C2381 C2380 1.386 . S
C2381 C2385 1.393 . S
C2382 H2374 0.950 . S
C2382 C2380 1.391 . S
C2382 C2383 1.400 . S
C2383 C2382 1.400 . S
C2383 C2384 1.398 . S
C2383 C2389 1.491 . S
C2384 H2375 0.950 . S
C2384 C2383 1.398 . S
C2384 C2385 1.391 . S
C2385 H2373 0.950 . S
C2385 C2381 1.393 . S
C2385 C2384 1.391 . S
C2386 H2376 0.950 . S
C2386 C2387 1.386 . S
C2386 C2388 1.391 . S
C2387 C2386 1.386 . S
C2387 C2391 1.393 . S
C2388 H2377 0.950 . S
C2388 C2386 1.391 . S
C2388 C2389 1.400 1_556 S
C2389 C2383 1.491 . S
C2389 C2388 1.400 1_554 S
C2389 C2390 1.398 1_554 S
C2390 H2378 0.950 1_556 S
C2390 C2389 1.398 1_556 S
C2390 C2391 1.391 . S
C2391 H2379 0.950 . S
C2391 C2387 1.393 . S
C2391 C2390 1.391 . S
H2392 C2400 0.950 . S
H2393 C2405 0.950 . S
H2394 C2402 0.950 . S
H2395 C2404 0.950 . S
H2396 C2406 0.950 . S
H2397 C2408 0.950 . S
H2398 C2410 0.950 . S
H2399 C2411 0.950 . S
C2400 H2392 0.950 . S
C2400 C2401 1.386 . S
C2400 C2402 1.391 . S
C2401 C2400 1.386 . S
C2401 C2405 1.393 . S
C2402 H2394 0.950 . S
C2402 C2400 1.391 . S
C2402 C2403 1.400 . S
C2403 C2402 1.400 . S
C2403 C2404 1.398 . S
C2403 C2409 1.491 . S
C2404 H2395 0.950 . S
C2404 C2403 1.398 . S
C2404 C2405 1.391 . S
C2405 H2393 0.950 . S
C2405 C2401 1.393 . S
C2405 C2404 1.391 . S
C2406 H2396 0.950 . S
C2406 C2407 1.386 . S
C2406 C2408 1.391 . S
C2407 C2406 1.386 . S
C2407 C2411 1.393 . S
C2408 H2397 0.950 . S
C2408 C2406 1.391 . S
C2408 C2409 1.400 . S
C2409 C2403 1.491 . S
C2409 C2408 1.400 . S
C2409 C2410 1.398 . S
C2410 H2398 0.950 . S
C2410 C2409 1.398 . S
C2410 C2411 1.391 . S
C2411 H2399 0.950 . S
C2411 C2407 1.393 . S
C2411 C2410 1.391 . S
H2412 C2420 0.950 . S
H2413 C2425 0.950 . S
H2414 C2422 0.950 . S
H2415 C2424 0.950 . S
H2416 C2426 0.950 . S
H2417 C2428 0.950 . S
H2418 C2430 0.950 . S
H2419 C2431 0.950 . S
C2420 H2412 0.950 . S
C2420 C2421 1.386 . S
C2420 C2422 1.391 . S
C2421 C2420 1.386 . S
C2421 C2425 1.393 . S
C2422 H2414 0.950 . S
C2422 C2420 1.391 . S
C2422 C2423 1.400 . S
C2423 C2422 1.400 . S
C2423 C2424 1.398 . S
C2423 C2429 1.491 . S
C2424 H2415 0.950 . S
C2424 C2423 1.398 . S
C2424 C2425 1.391 . S
C2425 H2413 0.950 . S
C2425 C2421 1.393 . S
C2425 C2424 1.391 . S
C2426 H2416 0.950 . S
C2426 C2427 1.386 . S
C2426 C2428 1.391 . S
C2427 C2426 1.386 . S
C2427 C2431 1.393 . S
C2428 H2417 0.950 . S
C2428 C2426 1.391 . S
C2428 C2429 1.400 . S
C2429 C2423 1.491 . S
C2429 C2428 1.400 . S
C2429 C2430 1.398 . S
C2430 H2418 0.950 . S
C2430 C2429 1.398 . S
C2430 C2431 1.391 . S
C2431 H2419 0.950 . S
C2431 C2427 1.393 . S
C2431 C2430 1.391 . S
H2432 C2440 0.950 . S
H2433 C2445 0.950 . S
H2434 C2442 0.950 . S
H2435 C2444 0.950 . S
H2436 C2446 0.950 . S
H2437 C2448 0.950 . S
H2438 C2450 0.950 . S
H2439 C2451 0.950 . S
C2440 H2432 0.950 . S
C2440 C2441 1.386 . S
C2440 C2442 1.391 . S
C2441 C2440 1.386 . S
C2441 C2445 1.393 . S
C2442 H2434 0.950 . S
C2442 C2440 1.391 . S
C2442 C2443 1.400 . S
C2443 C2442 1.400 . S
C2443 C2444 1.398 . S
C2443 C2449 1.491 . S
C2444 H2435 0.950 . S
C2444 C2443 1.398 . S
C2444 C2445 1.391 . S
C2445 H2433 0.950 . S
C2445 C2441 1.393 . S
C2445 C2444 1.391 . S
C2446 H2436 0.950 . S
C2446 C2447 1.386 . S
C2446 C2448 1.391 . S
C2447 C2446 1.386 . S
C2447 C2451 1.393 . S
C2448 H2437 0.950 . S
C2448 C2446 1.391 . S
C2448 C2449 1.400 . S
C2449 C2443 1.491 . S
C2449 C2448 1.400 . S
C2449 C2450 1.398 . S
C2450 H2438 0.950 . S
C2450 C2449 1.398 . S
C2450 C2451 1.391 . S
C2451 H2439 0.950 . S
C2451 C2447 1.393 . S
C2451 C2450 1.391 . S
H2452 C2460 0.950 . S
H2453 C2465 0.950 . S
H2454 C2462 0.950 . S
H2455 C2464 0.950 . S
H2456 C2466 0.950 . S
H2457 C2468 0.950 . S
H2458 C2470 0.950 . S
H2459 C2471 0.950 . S
C2460 H2452 0.950 . S
C2460 C2461 1.386 . S
C2460 C2462 1.391 . S
C2461 C2460 1.386 . S
C2461 C2465 1.393 . S
C2462 H2454 0.950 . S
C2462 C2460 1.391 . S
C2462 C2463 1.400 . S
C2463 C2462 1.400 . S
C2463 C2464 1.398 . S
C2463 C2469 1.491 . S
C2464 H2455 0.950 . S
C2464 C2463 1.398 . S
C2464 C2465 1.391 . S
C2465 H2453 0.950 . S
C2465 C2461 1.393 . S
C2465 C2464 1.391 . S
C2466 H2456 0.950 . S
C2466 C2467 1.386 . S
C2466 C2468 1.391 . S
C2467 C2466 1.386 . S
C2467 C2471 1.393 . S
C2468 H2457 0.950 . S
C2468 C2466 1.391 . S
C2468 C2469 1.400 . S
C2469 C2463 1.491 . S
C2469 C2468 1.400 . S
C2469 C2470 1.398 . S
C2470 H2458 0.950 . S
C2470 C2469 1.398 . S
C2470 C2471 1.391 . S
C2471 H2459 0.950 . S
C2471 C2467 1.393 . S
C2471 C2470 1.391 . S
H2472 C2480 0.950 . S
H2473 C2485 0.950 . S
H2474 C2482 0.950 . S
H2475 C2484 0.950 . S
H2476 C2486 0.950 . S
H2477 C2488 0.950 1_565 S
H2478 C2490 0.950 . S
H2479 C2491 0.950 . S
C2480 H2472 0.950 . S
C2480 C2481 1.386 . S
C2480 C2482 1.391 . S
C2481 C2480 1.386 . S
C2481 C2485 1.393 . S
C2482 H2474 0.950 . S
C2482 C2480 1.391 . S
C2482 C2483 1.400 . S
C2483 C2482 1.400 . S
C2483 C2484 1.398 . S
C2483 C2489 1.491 . S
C2484 H2475 0.950 . S
C2484 C2483 1.398 . S
C2484 C2485 1.391 . S
C2485 H2473 0.950 . S
C2485 C2481 1.393 . S
C2485 C2484 1.391 . S
C2486 H2476 0.950 . S
C2486 C2487 1.386 . S
C2486 C2488 1.391 . S
C2487 C2486 1.386 . S
C2487 C2491 1.393 . S
C2488 H2477 0.950 1_545 S
C2488 C2486 1.391 . S
C2488 C2489 1.400 1_545 S
C2489 C2483 1.491 . S
C2489 C2488 1.400 1_565 S
C2489 C2490 1.398 1_565 S
C2490 H2478 0.950 . S
C2490 C2489 1.398 1_545 S
C2490 C2491 1.391 . S
C2491 H2479 0.950 . S
C2491 C2487 1.393 . S
C2491 C2490 1.391 . S
H2492 C2500 0.950 . S
H2493 C2505 0.950 . S
H2494 C2502 0.950 . S
H2495 C2504 0.950 . S
H2496 C2506 0.950 . S
H2497 C2508 0.950 . S
H2498 C2510 0.950 . S
H2499 C2511 0.950 . S
C2500 H2492 0.950 . S
C2500 C2501 1.386 . S
C2500 C2502 1.391 . S
C2501 C2500 1.386 . S
C2501 C2505 1.393 . S
C2502 H2494 0.950 . S
C2502 C2500 1.391 . S
C2502 C2503 1.400 . S
C2503 C2502 1.400 . S
C2503 C2504 1.398 . S
C2503 C2509 1.491 . S
C2504 H2495 0.950 . S
C2504 C2503 1.398 . S
C2504 C2505 1.391 . S
C2505 H2493 0.950 . S
C2505 C2501 1.393 . S
C2505 C2504 1.391 . S
C2506 H2496 0.950 . S
C2506 C2507 1.386 . S
C2506 C2508 1.391 . S
C2507 C2506 1.386 . S
C2507 C2511 1.393 . S
C2508 H2497 0.950 . S
C2508 C2506 1.391 . S
C2508 C2509 1.400 . S
C2509 C2503 1.491 . S
C2509 C2508 1.400 . S
C2509 C2510 1.398 . S
C2510 H2498 0.950 . S
C2510 C2509 1.398 . S
C2510 C2511 1.391 . S
C2511 H2499 0.950 . S
C2511 C2507 1.393 . S
C2511 C2510 1.391 . S
H2512 C2520 0.950 . S
H2513 C2525 0.950 . S
H2514 C2522 0.950 . S
H2515 C2524 0.950 . S
H2516 C2526 0.950 . S
H2517 C2528 0.950 . S
H2518 C2530 0.950 . S
H2519 C2531 0.950 . S
C2520 H2512 0.950 . S
C2520 C2521 1.386 . S
C2520 C2522 1.391 . S
C2521 C2520 1.386 . S
C2521 C2525 1.393 . S
C2522 H2514 0.950 . S
C2522 C2520 1.391 . S
C2522 C2523 1.400 . S
C2523 C2522 1.400 . S
C2523 C2524 1.398 . S
C2523 C2529 1.491 . S
C2524 H2515 0.950 . S
C2524 C2523 1.398 . S
C2524 C2525 1.391 . S
C2525 H2513 0.950 . S
C2525 C2521 1.393 . S
C2525 C2524 1.391 . S
C2526 H2516 0.950 . S
C2526 C2527 1.386 . S
C2526 C2528 1.391 . S
C2527 C2526 1.386 . S
C2527 C2531 1.393 . S
C2528 H2517 0.950 . S
C2528 C2526 1.391 . S
C2528 C2529 1.400 . S
C2529 C2523 1.491 . S
C2529 C2528 1.400 . S
C2529 C2530 1.398 . S
C2530 H2518 0.950 . S
C2530 C2529 1.398 . S
C2530 C2531 1.391 . S
C2531 H2519 0.950 . S
C2531 C2527 1.393 . S
C2531 C2530 1.391 . S
H2532 C2540 0.950 . S
H2533 C2545 0.950 . S
H2534 C2542 0.950 . S
H2535 C2544 0.950 . S
H2536 C2546 0.950 . S
H2537 C2548 0.950 . S
H2538 C2550 0.950 . S
H2539 C2551 0.950 . S
C2540 H2532 0.950 . S
C2540 C2541 1.386 . S
C2540 C2542 1.391 . S
C2541 C2540 1.386 . S
C2541 C2545 1.393 . S
C2542 H2534 0.950 . S
C2542 C2540 1.391 . S
C2542 C2543 1.400 . S
C2543 C2542 1.400 . S
C2543 C2544 1.398 . S
C2543 C2549 1.491 . S
C2544 H2535 0.950 . S
C2544 C2543 1.398 . S
C2544 C2545 1.391 . S
C2545 H2533 0.950 . S
C2545 C2541 1.393 . S
C2545 C2544 1.391 . S
C2546 H2536 0.950 . S
C2546 C2547 1.386 . S
C2546 C2548 1.391 . S
C2547 C2546 1.386 . S
C2547 C2551 1.393 . S
C2548 H2537 0.950 . S
C2548 C2546 1.391 . S
C2548 C2549 1.400 . S
C2549 C2543 1.491 . S
C2549 C2548 1.400 . S
C2549 C2550 1.398 . S
C2550 H2538 0.950 . S
C2550 C2549 1.398 . S
C2550 C2551 1.391 . S
C2551 H2539 0.950 . S
C2551 C2547 1.393 . S
C2551 C2550 1.391 . S
H2552 C2560 0.950 . S
H2553 C2565 0.950 . S
H2554 C2562 0.950 1_545 S
H2555 C2564 0.950 . S
H2556 C2566 0.950 . S
H2557 C2568 0.950 . S
H2558 C2570 0.950 . S
H2559 C2571 0.950 . S
C2560 H2552 0.950 . S
C2560 C2561 1.386 . S
C2560 C2562 1.391 . S
C2561 C2560 1.386 . S
C2561 C2565 1.393 . S
C2562 H2554 0.950 1_565 S
C2562 C2560 1.391 . S
C2562 C2563 1.400 1_565 S
C2563 C2562 1.400 1_545 S
C2563 C2564 1.398 1_545 S
C2563 C2569 1.491 . S
C2564 H2555 0.950 . S
C2564 C2563 1.398 1_565 S
C2564 C2565 1.391 . S
C2565 H2553 0.950 . S
C2565 C2561 1.393 . S
C2565 C2564 1.391 . S
C2566 H2556 0.950 . S
C2566 C2567 1.386 . S
C2566 C2568 1.391 . S
C2567 C2566 1.386 . S
C2567 C2571 1.393 . S
C2568 H2557 0.950 . S
C2568 C2566 1.391 . S
C2568 C2569 1.400 . S
C2569 C2563 1.491 . S
C2569 C2568 1.400 . S
C2569 C2570 1.398 . S
C2570 H2558 0.950 . S
C2570 C2569 1.398 . S
C2570 C2571 1.391 . S
C2571 H2559 0.950 . S
C2571 C2567 1.393 . S
C2571 C2570 1.391 . S
H2572 C2580 0.950 . S
H2573 C2585 0.950 . S
H2574 C2582 0.950 . S
H2575 C2584 0.950 . S
H2576 C2586 0.950 . S
H2577 C2588 0.950 . S
H2578 C2590 0.950 1_565 S
H2579 C2591 0.950 . S
C2580 H2572 0.950 . S
C2580 C2581 1.386 . S
C2580 C2582 1.391 . S
C2581 C2580 1.386 . S
C2581 C2585 1.393 . S
C2582 H2574 0.950 . S
C2582 C2580 1.391 . S
C2582 C2583 1.400 . S
C2583 C2582 1.400 . S
C2583 C2584 1.398 . S
C2583 C2589 1.491 . S
C2584 H2575 0.950 . S
C2584 C2583 1.398 . S
C2584 C2585 1.391 . S
C2585 H2573 0.950 . S
C2585 C2581 1.393 . S
C2585 C2584 1.391 . S
C2586 H2576 0.950 . S
C2586 C2587 1.386 . S
C2586 C2588 1.391 . S
C2587 C2586 1.386 . S
C2587 C2591 1.393 . S
C2588 H2577 0.950 . S
C2588 C2586 1.391 . S
C2588 C2589 1.400 1_545 S
C2589 C2583 1.491 . S
C2589 C2588 1.400 1_565 S
C2589 C2590 1.398 1_565 S
C2590 H2578 0.950 1_545 S
C2590 C2589 1.398 1_545 S
C2590 C2591 1.391 . S
C2591 H2579 0.950 . S
C2591 C2587 1.393 . S
C2591 C2590 1.391 . S
C681 C588 1.326 . S
C687 C11 1.338 . S
C701 C23 1.409 . S
C707 C219 1.377 . S
C721 C39 1.352 . S
C727 C560 1.362 . S
C741 C51 1.391 . S
C747 C247 1.362 . S
C761 C625 1.380 . S
C767 C61 1.410 . S
C781 C70 1.380 . S
C787 C294 1.392 . S
C801 C89 1.410 . S
C807 C653 1.394 . S
C821 C98 1.380 . S
C827 C266 1.367 . S
C841 C42 1.384 . S
C847 C658 1.396 . S
C861 C5 1.417 . S
C867 C350 1.406 . S
C881 C373 1.356 . S
C887 C14 1.375 . S
C901 C33 1.408 . S
C907 C336 1.386 . S
C921 C79 1.363 . S
C927 C345 1.347 . S
C941 C95 1.341 . S
C947 C667 1.318 . S
C961 C107 1.379 . S
C967 C359 1.372 . S
C981 C67 1.336 . S
C987 C364 1.337 . S
C1001 C546 1.351 . S
C1007 C112 1.349 . S
C1021 C126 1.421 . S
C1027 C275 1.391 . S
C1041 C121 1.359 . S
C1047 C616 1.364 . S
C1061 C303 1.357 . S
C1067 C140 1.390 . S
C1081 C308 1.374 . S
C1087 C154 1.384 . S
C1101 C574 1.358 . S
C1107 C177 1.365 . S
C1121 C597 1.336 . S
C1127 C182 1.370 . S
C1141 C569 1.336 . S
C1147 C205 1.377 . S
C1161 C473 1.399 . S
C1167 C221 1.392 . S
C1181 C229 1.359 . S
C1187 C9 1.351 . S
C1201 C249 1.353 . S
C1207 C445 1.368 . S
C1221 C37 1.371 . S
C1227 C257 1.379 . S
C1241 C271 1.415 . S
C1247 C495 1.408 . S
C1261 C84 1.315 . S
C1267 C291 1.301 . S
C1281 C299 1.399 . S
C1287 C523 1.383 . S
C1301 C56 1.327 . S
C1307 C319 1.316 . S
C1321 C543 1.309 . S
C1327 C263 1.294 . S
C1341 C215 1.440 . S
C1347 C145 1.440 . S
C1361 C159 1.360 . S
C1367 C235 1.364 . S
C1381 C131 1.466 . S
C1387 C243 1.477 . S
C1401 C137 1.398 . S
C1407 C285 1.405 . S
C1421 C305 1.351 . S
C1427 C537 1.352 . S
C1441 C151 1.359 . S
C1447 C313 1.357 . S
C1461 C277 1.292 . S
C1467 C165 1.306 . S
C1481 C333 1.293 . S
C1487 C420 1.302 . S
C1501 C341 1.353 . S
C1507 C65 1.323 . S
C1521 C327 1.343 . S
C1527 C501 1.332 . S
C1541 C355 1.391 . S
C1547 C93 1.357 . S
C1561 C375 1.311 . S
C1567 C109 1.309 . S
C1581 C448 1.378 . S
C1587 C383 1.377 . S
C1601 C397 1.436 . S
C1607 C467 1.421 . S
C1621 C417 1.381 . S
C1627 C439 1.377 . S
C1641 C431 1.334 . S
C1647 C252 1.338 . S
C1661 C443 1.402 . S
C1667 C555 1.370 . S
C1681 C224 1.379 . S
C1687 C459 1.380 . S
C1701 C471 1.385 . S
C1707 C583 1.367 . S
C1721 C481 1.389 . S
C1727 C289 1.361 . S
C1741 C630 1.346 . S
C1747 C490 1.356 . S
C1761 C509 1.407 . S
C1767 C317 1.387 . S
C1781 C602 1.386 . S
C1787 C518 1.375 . S
C1801 C322 1.385 . S
C1807 C462 1.400 . S
C1821 C406 1.396 . S
C1827 C425 1.412 . S
C1841 C434 1.379 . S
C1847 C387 1.372 . S
C1861 C401 1.402 . S
C1867 C453 1.435 . S
C1881 C499 1.373 . S
C1887 C392 1.354 . S
C1901 C331 1.333 . S
C1907 C515 1.361 . S
C1921 C527 1.376 . S
C1927 C415 1.362 . S
C1941 C487 1.320 . S
C1947 C378 1.320 . S
C1961 C532 1.361 . S
C1967 C210 1.371 . S
C1981 C191 1.415 . S
C1987 C611 1.366 . S
C2001 C280 1.360 . S
C2007 C541 1.380 . S
C2021 C639 1.356 . S
C2027 C196 1.359 . S
C2041 C644 1.371 . S
C2047 C168 1.380 . S
C2061 C163 1.364 . S
C2067 C238 1.352 . S
C2081 C135 1.403 . S
C2087 C261 1.361 . S
C2101 C233 1.364 . S
C2107 C149 1.380 . S
C2121 C557 1.352 . S
C2127 C53 1.366 . S
C2141 C429 1.359 . S
C2147 C565 1.369 . S
C2161 C585 1.327 . S
C2167 C25 1.349 . S
C2181 C593 1.357 . S
C2187 C457 1.326 . S
C2201 C75 1.400 . S
C2207 C607 1.408 . S
C2221 C627 1.343 . S
C2227 C504 1.347 . S
C2241 C635 1.399 . S
C2247 C103 1.395 . S
C2261 C476 1.293 . S
C2267 C655 1.300 . S
C2281 C599 1.263 . S
C2287 C123 1.267 . S
C2301 C201 1.434 . S
C2307 C551 1.441 . S
C2321 C173 1.356 . S
C2327 C571 1.362 . S
C2341 C579 1.407 . S
C2347 C193 1.408 . S
C2361 C621 1.448 . S
C2367 C187 1.447 . S
C2381 C117 1.337 . S
C2387 C641 1.331 . S
C2401 C207 1.357 . S
C2407 C649 1.353 . S
C2421 C613 1.339 . S
C2427 C179 1.354 . S
C2441 C0 1.302 . S
C2447 C669 1.285 . S
C2461 C403 1.295 . S
C2467 C485 1.271 . S
C2481 C81 1.356 . S
C2487 C663 1.367 . S
C2501 C513 1.380 . S
C2507 C411 1.395 . S
C2521 C529 1.311 . S
C2527 C389 1.296 . S
C2541 C369 1.362 . S
C2547 C28 1.349 . S
C2561 C347 1.335 . S
C2567 C47 1.347 . S
C2581 C19 1.387 . S
C2587 C361 1.376 . S
