# Generated by pormake.
# Topology afi, (4)-cn, num edge types: 1
# Building blocks:
#     Node 0, Type 0, BuildingBlock: NAHDIM_clean_sbu_0, # of connection points: 4
#     Node 1, Type 0, BuildingBlock: NAHDIM_clean_sbu_0, # of connection points: 4
#     Node 2, Type 0, BuildingBlock: NAHDIM_clean_sbu_0, # of connection points: 4
#     Node 3, Type 0, BuildingBlock: NAHDIM_clean_sbu_0, # of connection points: 4
#     Node 4, Type 0, BuildingBlock: NAHDIM_clean_sbu_0, # of connection points: 4
#     Node 5, Type 0, BuildingBlock: NAHDIM_clean_sbu_0, # of connection points: 4
#     Node 6, Type 0, BuildingBlock: NAHDIM_clean_sbu_0, # of connection points: 4
#     Node 7, Type 0, BuildingBlock: NAHDIM_clean_sbu_0, # of connection points: 4
#     Node 8, Type 0, BuildingBlock: NAHDIM_clean_sbu_0, # of connection points: 4
#     Node 9, Type 0, BuildingBlock: NAHDIM_clean_sbu_0, # of connection points: 4
#     Node 10, Type 0, BuildingBlock: NAHDIM_clean_sbu_0, # of connection points: 4
#     Node 11, Type 0, BuildingBlock: NAHDIM_clean_sbu_0, # of connection points: 4
#     Node 12, Type 0, BuildingBlock: NAHDIM_clean_sbu_0, # of connection points: 4
#     Node 13, Type 0, BuildingBlock: NAHDIM_clean_sbu_0, # of connection points: 4
#     Node 14, Type 0, BuildingBlock: NAHDIM_clean_sbu_0, # of connection points: 4
#     Node 15, Type 0, BuildingBlock: NAHDIM_clean_sbu_0, # of connection points: 4
#     Node 16, Type 0, BuildingBlock: NAHDIM_clean_sbu_0, # of connection points: 4
#     Node 17, Type 0, BuildingBlock: NAHDIM_clean_sbu_0, # of connection points: 4
#     Node 18, Type 0, BuildingBlock: NAHDIM_clean_sbu_0, # of connection points: 4
#     Node 19, Type 0, BuildingBlock: NAHDIM_clean_sbu_0, # of connection points: 4
#     Node 20, Type 0, BuildingBlock: NAHDIM_clean_sbu_0, # of connection points: 4
#     Node 21, Type 0, BuildingBlock: NAHDIM_clean_sbu_0, # of connection points: 4
#     Node 22, Type 0, BuildingBlock: NAHDIM_clean_sbu_0, # of connection points: 4
#     Node 23, Type 0, BuildingBlock: NAHDIM_clean_sbu_0, # of connection points: 4
#     Edge 24, Type (0, 0), BuildingBlock: ZUJKAS_clean_linker_0, # of connection points: 2
#     Edge 25, Type (0, 0), BuildingBlock: ZUJKAS_clean_linker_0, # of connection points: 2
#     Edge 26, Type (0, 0), BuildingBlock: ZUJKAS_clean_linker_0, # of connection points: 2
#     Edge 27, Type (0, 0), BuildingBlock: ZUJKAS_clean_linker_0, # of connection points: 2
#     Edge 28, Type (0, 0), BuildingBlock: ZUJKAS_clean_linker_0, # of connection points: 2
#     Edge 29, Type (0, 0), BuildingBlock: ZUJKAS_clean_linker_0, # of connection points: 2
#     Edge 30, Type (0, 0), BuildingBlock: ZUJKAS_clean_linker_0, # of connection points: 2
#     Edge 31, Type (0, 0), BuildingBlock: ZUJKAS_clean_linker_0, # of connection points: 2
#     Edge 32, Type (0, 0), BuildingBlock: ZUJKAS_clean_linker_0, # of connection points: 2
#     Edge 33, Type (0, 0), BuildingBlock: ZUJKAS_clean_linker_0, # of connection points: 2
#     Edge 34, Type (0, 0), BuildingBlock: ZUJKAS_clean_linker_0, # of connection points: 2
#     Edge 35, Type (0, 0), BuildingBlock: ZUJKAS_clean_linker_0, # of connection points: 2
#     Edge 36, Type (0, 0), BuildingBlock: ZUJKAS_clean_linker_0, # of connection points: 2
#     Edge 37, Type (0, 0), BuildingBlock: ZUJKAS_clean_linker_0, # of connection points: 2
#     Edge 38, Type (0, 0), BuildingBlock: ZUJKAS_clean_linker_0, # of connection points: 2
#     Edge 39, Type (0, 0), BuildingBlock: ZUJKAS_clean_linker_0, # of connection points: 2
#     Edge 40, Type (0, 0), BuildingBlock: ZUJKAS_clean_linker_0, # of connection points: 2
#     Edge 41, Type (0, 0), BuildingBlock: ZUJKAS_clean_linker_0, # of connection points: 2
#     Edge 42, Type (0, 0), BuildingBlock: ZUJKAS_clean_linker_0, # of connection points: 2
#     Edge 43, Type (0, 0), BuildingBlock: ZUJKAS_clean_linker_0, # of connection points: 2
#     Edge 44, Type (0, 0), BuildingBlock: ZUJKAS_clean_linker_0, # of connection points: 2
#     Edge 45, Type (0, 0), BuildingBlock: ZUJKAS_clean_linker_0, # of connection points: 2
#     Edge 46, Type (0, 0), BuildingBlock: ZUJKAS_clean_linker_0, # of connection points: 2
#     Edge 47, Type (0, 0), BuildingBlock: ZUJKAS_clean_linker_0, # of connection points: 2
#     Edge 48, Type (0, 0), BuildingBlock: ZUJKAS_clean_linker_0, # of connection points: 2
#     Edge 49, Type (0, 0), BuildingBlock: ZUJKAS_clean_linker_0, # of connection points: 2
#     Edge 50, Type (0, 0), BuildingBlock: ZUJKAS_clean_linker_0, # of connection points: 2
#     Edge 51, Type (0, 0), BuildingBlock: ZUJKAS_clean_linker_0, # of connection points: 2
#     Edge 52, Type (0, 0), BuildingBlock: ZUJKAS_clean_linker_0, # of connection points: 2
#     Edge 53, Type (0, 0), BuildingBlock: ZUJKAS_clean_linker_0, # of connection points: 2
#     Edge 54, Type (0, 0), BuildingBlock: ZUJKAS_clean_linker_0, # of connection points: 2
#     Edge 55, Type (0, 0), BuildingBlock: ZUJKAS_clean_linker_0, # of connection points: 2
#     Edge 56, Type (0, 0), BuildingBlock: ZUJKAS_clean_linker_0, # of connection points: 2
#     Edge 57, Type (0, 0), BuildingBlock: ZUJKAS_clean_linker_0, # of connection points: 2
#     Edge 58, Type (0, 0), BuildingBlock: ZUJKAS_clean_linker_0, # of connection points: 2
#     Edge 59, Type (0, 0), BuildingBlock: ZUJKAS_clean_linker_0, # of connection points: 2
#     Edge 60, Type (0, 0), BuildingBlock: ZUJKAS_clean_linker_0, # of connection points: 2
#     Edge 61, Type (0, 0), BuildingBlock: ZUJKAS_clean_linker_0, # of connection points: 2
#     Edge 62, Type (0, 0), BuildingBlock: ZUJKAS_clean_linker_0, # of connection points: 2
#     Edge 63, Type (0, 0), BuildingBlock: ZUJKAS_clean_linker_0, # of connection points: 2
#     Edge 64, Type (0, 0), BuildingBlock: ZUJKAS_clean_linker_0, # of connection points: 2
#     Edge 65, Type (0, 0), BuildingBlock: ZUJKAS_clean_linker_0, # of connection points: 2
#     Edge 66, Type (0, 0), BuildingBlock: ZUJKAS_clean_linker_0, # of connection points: 2
#     Edge 67, Type (0, 0), BuildingBlock: ZUJKAS_clean_linker_0, # of connection points: 2
#     Edge 68, Type (0, 0), BuildingBlock: ZUJKAS_clean_linker_0, # of connection points: 2
#     Edge 69, Type (0, 0), BuildingBlock: ZUJKAS_clean_linker_0, # of connection points: 2
#     Edge 70, Type (0, 0), BuildingBlock: ZUJKAS_clean_linker_0, # of connection points: 2
#     Edge 71, Type (0, 0), BuildingBlock: ZUJKAS_clean_linker_0, # of connection points: 2
# Relax obj value: 0.071
# Max RMSD: 0.082
# Mean RMSD: 0.082
data_MOF--net-afi--node1-NAHDIM_clean_sbu_0--edge1-ZUJKAS_clean_linker_0
_symmetry_space_group_name_H-M    P1
_symmetry_Int_Tables_number       1
_symmetry_cell_setting            triclinic
loop_
_symmetry_equiv_pos_as_xyz
'x, y, z'
_cell_length_a     88.233121
_cell_length_b     88.222947
_cell_length_c     51.052637
_cell_angle_alpha  90.027338
_cell_angle_beta   89.981246
_cell_angle_gamma 119.98172
loop_
_atom_site_label
_atom_site_type_symbol
_atom_site_fract_x
_atom_site_fract_y
_atom_site_fract_z
_atom_type_partial_charge
C0 C 0.45508 0.15312 0.19566 0.0
O1 O 0.46914 0.15599 0.18267 0.0
O2 O 0.46987 0.1216 0.20164 0.0
Zn3 Zn 0.44741 0.11848 0.18667 0.0
O4 O 0.44908 0.12003 0.14751 0.0
C5 C 0.42726 0.08844 0.21905 0.0
O6 O 0.43948 0.09797 0.23615 0.0
O7 O 0.44328 0.13743 0.20023 0.0
C8 C 0.43654 0.1195 0.13454 0.0
O9 O 0.42294 0.11814 0.1472 0.0
C10 C 0.47692 0.11341 0.19173 0.0
O11 O 0.46945 0.10312 0.1715 0.0
O12 O 0.42769 0.09475 0.19653 0.0
C13 C 0.2897 0.43641 0.19151 0.0
O14 O 0.2892 0.42655 0.17185 0.0
O15 O 0.34649 0.47443 0.2002 0.0
Zn16 Zn 0.32717 0.45153 0.18655 0.0
O17 O 0.32726 0.45231 0.1471 0.0
C18 C 0.32995 0.42798 0.22285 0.0
O19 O 0.32481 0.43565 0.23989 0.0
O20 O 0.30441 0.4478 0.20073 0.0
C21 C 0.33424 0.44523 0.13377 0.0
O22 O 0.34116 0.43705 0.146 0.0
C23 C 0.36229 0.47912 0.19478 0.0
O24 O 0.36562 0.46887 0.18017 0.0
O25 O 0.33146 0.43242 0.19892 0.0
C26 C 0.83359 0.30327 0.19875 0.0
O27 O 0.83043 0.31337 0.1835 0.0
O28 O 0.86458 0.35053 0.20425 0.0
Zn29 Zn 0.86793 0.33104 0.19047 0.0
O30 O 0.86604 0.32978 0.15126 0.0
C31 C 0.90488 0.34527 0.18674 0.0
O32 O 0.90241 0.35185 0.16515 0.0
O33 O 0.8493 0.3082 0.2051 0.0
C34 C 0.86847 0.31847 0.13952 0.0
O35 O 0.87185 0.30798 0.15344 0.0
C36 C 0.87014 0.36476 0.19167 0.0
O37 O 0.87788 0.36658 0.16896 0.0
O38 O 0.89181 0.3356 0.20114 0.0
C39 C 0.53363 0.83539 0.18571 0.0
O40 O 0.52337 0.8338 0.16598 0.0
O41 O 0.51025 0.86042 0.20286 0.0
Zn42 Zn 0.53464 0.86795 0.18974 0.0
O43 O 0.53595 0.87073 0.15048 0.0
C44 C 0.54674 0.90096 0.21544 0.0
O45 O 0.53005 0.89603 0.21386 0.0
O46 O 0.54037 0.84933 0.19926 0.0
C47 C 0.53924 0.88492 0.13928 0.0
O48 O 0.54189 0.89839 0.15363 0.0
C49 C 0.49859 0.86084 0.18877 0.0
O50 O 0.50215 0.86586 0.16424 0.0
O51 O 0.55199 0.89091 0.20655 0.0
C52 C 0.69047 0.53474 0.20032 0.0
O53 O 0.67863 0.51969 0.19037 0.0
O54 O 0.64474 0.52071 0.20512 0.0
Zn55 Zn 0.66385 0.54325 0.18994 0.0
O56 O 0.66273 0.54191 0.15055 0.0
C57 C 0.66163 0.56641 0.22696 0.0
O58 O 0.66522 0.5572 0.24343 0.0
O59 O 0.6871 0.54712 0.20205 0.0
C60 C 0.65528 0.54856 0.13734 0.0
O61 O 0.64826 0.55663 0.14965 0.0
C62 C 0.62891 0.51525 0.19882 0.0
O63 O 0.62535 0.52448 0.18234 0.0
O64 O 0.6606 0.56294 0.20266 0.0
C65 C 0.14129 0.68656 0.22238 0.0
O66 O 0.13235 0.67299 0.23774 0.0
O67 O 0.12466 0.64288 0.19692 0.0
Zn68 Zn 0.12037 0.66179 0.1831 0.0
O69 O 0.12189 0.66285 0.14387 0.0
C70 C 0.08314 0.64456 0.18212 0.0
O71 O 0.08559 0.63595 0.16313 0.0
O72 O 0.13831 0.6849 0.19791 0.0
C73 C 0.1181 0.6731 0.13181 0.0
O74 O 0.11365 0.68293 0.1454 0.0
C75 C 0.12122 0.6294 0.18348 0.0
O76 O 0.11494 0.62783 0.15969 0.0
O77 O 0.09636 0.65658 0.19396 0.0
C78 C 0.84635 0.54455 0.30249 0.0
O79 O 0.84426 0.5331 0.32061 0.0
O80 O 0.87797 0.52837 0.2919 0.0
Zn81 Zn 0.88108 0.55101 0.30617 0.0
O82 O 0.88086 0.55055 0.34546 0.0
C83 C 0.90746 0.57314 0.26945 0.0
O84 O 0.89493 0.56394 0.25257 0.0
O85 O 0.86152 0.55432 0.29303 0.0
C86 C 0.894 0.55219 0.35809 0.0
O87 O 0.90776 0.55421 0.34511 0.0
C88 C 0.87064 0.51407 0.30458 0.0
O89 O 0.86464 0.51374 0.32825 0.0
O90 O 0.9043 0.57031 0.29378 0.0
C91 C 0.2944 0.84247 0.3067 0.0
O92 O 0.30216 0.84275 0.3288 0.0
O93 O 0.34391 0.86807 0.28618 0.0
Zn94 Zn 0.3264 0.8745 0.29962 0.0
O95 O 0.32837 0.87772 0.33869 0.0
C96 C 0.34668 0.90822 0.27643 0.0
O97 O 0.35896 0.90407 0.27931 0.0
O98 O 0.30225 0.85505 0.29063 0.0
C99 C 0.3428 0.88723 0.35039 0.0
O100 O 0.35729 0.89538 0.33665 0.0
C101 C 0.34908 0.85922 0.29917 0.0
O102 O 0.34266 0.85357 0.32266 0.0
O103 O 0.33112 0.89727 0.28332 0.0
C104 C 0.4539 0.30398 0.29665 0.0
O105 O 0.46564 0.31277 0.31476 0.0
O106 O 0.46939 0.35245 0.29171 0.0
Zn107 Zn 0.44724 0.3318 0.30511 0.0
O108 O 0.44824 0.32993 0.34416 0.0
C109 C 0.42651 0.34769 0.30863 0.0
O110 O 0.43833 0.35639 0.32669 0.0
O111 O 0.44403 0.30969 0.28874 0.0
C112 C 0.43544 0.31732 0.35584 0.0
O113 O 0.42199 0.30592 0.34199 0.0
C114 C 0.48403 0.35874 0.3034 0.0
O115 O 0.48507 0.35149 0.32529 0.0
O116 O 0.42728 0.33565 0.29611 0.0
C117 C 0.14476 0.44735 0.29414 0.0
O118 O 0.14851 0.45894 0.31282 0.0
O119 O 0.11534 0.46749 0.2846 0.0
Zn120 Zn 0.11124 0.44453 0.29909 0.0
O121 O 0.11224 0.44534 0.3384 0.0
C122 C 0.08314 0.42447 0.26382 0.0
O123 O 0.09475 0.43505 0.24672 0.0
O124 O 0.12932 0.43929 0.28496 0.0
C125 C 0.09937 0.44404 0.35142 0.0
O126 O 0.08561 0.44231 0.33882 0.0
C127 C 0.12365 0.48192 0.29685 0.0
O128 O 0.13018 0.48217 0.32008 0.0
O129 O 0.08739 0.42581 0.28782 0.0
C130 C 0.68454 0.14747 0.29473 0.0
O131 O 0.67434 0.14979 0.311 0.0
O132 O 0.63756 0.11421 0.29025 0.0
Zn133 Zn 0.65821 0.11261 0.30352 0.0
O134 O 0.65989 0.11488 0.34268 0.0
C135 C 0.64358 0.07605 0.30686 0.0
O136 O 0.63602 0.07891 0.32694 0.0
O137 O 0.6803 0.13199 0.28793 0.0
C138 C 0.67243 0.11449 0.35427 0.0
O139 O 0.68394 0.1127 0.34029 0.0
C140 C 0.63 0.12083 0.30325 0.0
O141 O 0.63585 0.12726 0.32668 0.0
O142 O 0.6545 0.089 0.29328 0.0
C143 C 0.54436 0.68489 0.26241 0.0
O144 O 0.53786 0.67102 0.24723 0.0
O145 O 0.523 0.64099 0.28559 0.0
Zn146 Zn 0.54523 0.66101 0.29971 0.0
O147 O 0.54397 0.66098 0.33893 0.0
C148 C 0.57887 0.66239 0.30136 0.0
O149 O 0.58152 0.67178 0.32264 0.0
O150 O 0.5487 0.68376 0.28574 0.0
C151 C 0.54106 0.64738 0.35155 0.0
O152 O 0.53888 0.63357 0.33854 0.0
C153 C 0.50788 0.63775 0.29275 0.0
O154 O 0.50645 0.64804 0.30995 0.0
O155 O 0.56476 0.65708 0.28856 0.0
C156 C 0.53176 0.84299 0.79838 0.0
O157 O 0.51779 0.83886 0.81254 0.0
O158 O 0.51272 0.87099 0.7916 0.0
Zn159 Zn 0.53633 0.87691 0.80587 0.0
O160 O 0.53606 0.87681 0.84527 0.0
C161 C 0.54942 0.91153 0.78574 0.0
O162 O 0.53277 0.90677 0.7874 0.0
O163 O 0.54217 0.85896 0.79297 0.0
C164 C 0.53618 0.8892 0.85815 0.0
O165 O 0.53639 0.90224 0.84544 0.0
C166 C 0.49848 0.86354 0.80443 0.0
O167 O 0.49855 0.85875 0.82877 0.0
O168 O 0.55433 0.90082 0.79272 0.0
C169 C 0.6819 0.54371 0.7659 0.0
O170 O 0.66797 0.53746 0.75087 0.0
O171 O 0.63834 0.52314 0.78946 0.0
Zn172 Zn 0.65857 0.54524 0.80374 0.0
O173 O 0.65914 0.54389 0.84301 0.0
C174 C 0.6546 0.57602 0.80844 0.0
O175 O 0.65633 0.57435 0.83365 0.0
O176 O 0.68099 0.54813 0.78928 0.0
C177 C 0.6452 0.53695 0.8566 0.0
O178 O 0.63001 0.5304 0.84469 0.0
C179 C 0.63597 0.50809 0.79513 0.0
O180 O 0.647 0.50681 0.81099 0.0
O181 O 0.6555 0.56542 0.7925 0.0
C182 C 0.14424 0.68851 0.79535 0.0
O183 O 0.14694 0.68134 0.81605 0.0
O184 O 0.11377 0.63805 0.78414 0.0
Zn185 Zn 0.11097 0.65762 0.79895 0.0
O186 O 0.1132 0.65831 0.83816 0.0
C187 C 0.07418 0.64133 0.8028 0.0
O188 O 0.07737 0.63298 0.82133 0.0
O189 O 0.12943 0.68062 0.78406 0.0
C190 C 0.11057 0.66921 0.85077 0.0
O191 O 0.10651 0.67953 0.83776 0.0
C192 C 0.12442 0.63373 0.79349 0.0
O193 O 0.13417 0.64236 0.81366 0.0
O194 O 0.08692 0.65309 0.7898 0.0
C195 C 0.456 0.14677 0.79405 0.0
O196 O 0.46906 0.14964 0.80954 0.0
O197 O 0.47142 0.11505 0.78739 0.0
Zn198 Zn 0.44897 0.11225 0.80199 0.0
O199 O 0.45004 0.11414 0.84121 0.0
C200 C 0.42821 0.07545 0.80414 0.0
O201 O 0.4395 0.07819 0.8229 0.0
O202 O 0.44507 0.13114 0.78752 0.0
C203 C 0.43725 0.11361 0.85343 0.0
O204 O 0.42376 0.11188 0.84004 0.0
C205 C 0.48549 0.1211 0.80055 0.0
O206 O 0.4857 0.12591 0.82496 0.0
O207 O 0.42939 0.0885 0.79181 0.0
C208 C 0.30411 0.45853 0.79966 0.0
O209 O 0.31197 0.46868 0.81987 0.0
O210 O 0.35362 0.47985 0.78642 0.0
Zn211 Zn 0.33519 0.45649 0.80045 0.0
O212 O 0.33494 0.4564 0.83982 0.0
C213 C 0.35607 0.44202 0.78319 0.0
O214 O 0.36848 0.45835 0.78645 0.0
O215 O 0.31164 0.45152 0.7876 0.0
C216 C 0.34851 0.46093 0.85367 0.0
O217 O 0.36361 0.46616 0.84205 0.0
C218 C 0.35914 0.49439 0.79814 0.0
O219 O 0.35241 0.49477 0.82091 0.0
O220 O 0.3403 0.43785 0.78787 0.0
C221 C 0.85737 0.29798 0.78952 0.0
O222 O 0.86947 0.29624 0.80186 0.0
O223 O 0.87713 0.35534 0.79524 0.0
Zn224 Zn 0.8778 0.33393 0.80671 0.0
O225 O 0.87438 0.3312 0.84576 0.0
C226 C 0.9145 0.34926 0.8092 0.0
O227 O 0.9119 0.35817 0.82754 0.0
O228 O 0.85849 0.3129 0.78873 0.0
C229 C 0.88015 0.32298 0.85904 0.0
O230 O 0.8885 0.31616 0.84701 0.0
C231 C 0.86343 0.35656 0.79725 0.0
O232 O 0.84919 0.34346 0.80729 0.0
O233 O 0.90137 0.33735 0.79703 0.0
C234 C 0.14462 0.44954 0.71882 0.0
O235 O 0.13889 0.45783 0.73355 0.0
O236 O 0.12384 0.47213 0.69546 0.0
Zn237 Zn 0.11848 0.44807 0.68408 0.0
O238 O 0.11721 0.4467 0.6447 0.0
C239 C 0.09068 0.43263 0.72191 0.0
O240 O 0.10127 0.4468 0.73516 0.0
O241 O 0.13767 0.44388 0.69653 0.0
C242 C 0.10272 0.44063 0.63264 0.0
O243 O 0.0882 0.43489 0.64617 0.0
C244 C 0.11375 0.47793 0.68914 0.0
O245 O 0.09995 0.46818 0.67461 0.0
O246 O 0.09542 0.43013 0.69959 0.0
C247 C 0.69673 0.15547 0.69315 0.0
O248 O 0.68745 0.15911 0.67687 0.0
O249 O 0.64854 0.12656 0.70022 0.0
Zn250 Zn 0.66723 0.12179 0.68686 0.0
O251 O 0.6681 0.12285 0.64758 0.0
C252 C 0.65011 0.08462 0.68566 0.0
O253 O 0.64345 0.0873 0.66434 0.0
O254 O 0.6906 0.1398 0.70088 0.0
C255 C 0.67979 0.12136 0.63526 0.0
O256 O 0.69137 0.11929 0.64856 0.0
C257 C 0.63505 0.12267 0.68653 0.0
O258 O 0.63367 0.11599 0.66306 0.0
O259 O 0.66124 0.09773 0.69879 0.0
C260 C 0.53964 0.69836 0.68712 0.0
O261 O 0.52711 0.6887 0.67052 0.0
O262 O 0.5233 0.65053 0.69878 0.0
Zn263 Zn 0.54567 0.66959 0.68298 0.0
O264 O 0.54427 0.66814 0.64373 0.0
C265 C 0.56916 0.66682 0.71888 0.0
O266 O 0.56058 0.67082 0.736 0.0
O267 O 0.54971 0.69294 0.69519 0.0
C268 C 0.54222 0.65437 0.63257 0.0
O269 O 0.54105 0.64151 0.64705 0.0
C270 C 0.50863 0.64396 0.68712 0.0
O271 O 0.50779 0.64982 0.66383 0.0
O272 O 0.56527 0.66594 0.69477 0.0
C273 C 0.83521 0.53864 0.68605 0.0
O274 O 0.83457 0.52936 0.66551 0.0
O275 O 0.86497 0.51938 0.70199 0.0
Zn276 Zn 0.86932 0.54287 0.68946 0.0
O277 O 0.87173 0.54403 0.65021 0.0
C278 C 0.89537 0.56125 0.72922 0.0
O279 O 0.88402 0.54848 0.74415 0.0
O280 O 0.84908 0.54594 0.69976 0.0
C281 C 0.88648 0.54959 0.63913 0.0
O282 O 0.90053 0.55479 0.65361 0.0
C283 C 0.87743 0.51606 0.70195 0.0
O284 O 0.89292 0.52807 0.69359 0.0
O285 O 0.8916 0.56179 0.70536 0.0
C286 C 0.29636 0.84538 0.71357 0.0
O287 O 0.30953 0.85126 0.73006 0.0
O288 O 0.34063 0.86477 0.69515 0.0
Zn289 Zn 0.32313 0.87101 0.68105 0.0
O290 O 0.32537 0.87313 0.64177 0.0
C291 C 0.33481 0.89859 0.71934 0.0
O292 O 0.33816 0.88795 0.73289 0.0
O293 O 0.29893 0.85204 0.69081 0.0
C294 C 0.33379 0.88795 0.63059 0.0
O295 O 0.34097 0.90221 0.64496 0.0
C296 C 0.35631 0.87245 0.6869 0.0
O297 O 0.361 0.88434 0.66846 0.0
O298 O 0.32798 0.89395 0.69675 0.0
C299 C 0.45754 0.29935 0.69531 0.0
O300 O 0.47064 0.3094 0.67977 0.0
O301 O 0.47457 0.34634 0.69985 0.0
Zn302 Zn 0.45106 0.32721 0.68751 0.0
O303 O 0.4509 0.32591 0.64826 0.0
C304 C 0.42768 0.34098 0.68545 0.0
O305 O 0.43451 0.34577 0.66197 0.0
O306 O 0.44682 0.30431 0.70195 0.0
C307 C 0.43805 0.31331 0.63663 0.0
O308 O 0.42513 0.3013 0.65063 0.0
C309 C 0.48136 0.36155 0.68991 0.0
O310 O 0.47293 0.36454 0.67126 0.0
O311 O 0.43252 0.33248 0.69998 0.0
H312 H 0.39953 0.06561 0.18889 0.0
H313 H 0.37985 0.03438 0.19671 0.0
H314 H 0.40628 0.03827 0.26961 0.0
H315 H 0.42569 0.06949 0.26227 0.0
H316 H 0.38961 0.01032 0.19972 0.0
H317 H 0.35594 0.00893 0.29163 0.0
H318 H 0.36791 0.02859 0.27235 0.0
H319 H 0.37921 0.0221 0.29515 0.0
C320 C 0.40094 0.05988 0.20682 0.0
C321 C 0.4142 0.07002 0.22494 0.0
C322 C 0.38968 0.04204 0.21126 0.0
C323 C 0.39143 0.03403 0.23391 0.0
C324 C 0.40437 0.04424 0.25233 0.0
H325 H 0.37868 0.93423 0.26059 0.0
H326 H 0.38686 0.96389 0.24751 0.0
C327 C 0.41557 0.06208 0.24799 0.0
C328 C 0.38107 0.01477 0.23706 0.0
H329 H 0.35718 0.98272 0.28154 0.0
C330 C 0.38223 0.00426 0.21741 0.0
C331 C 0.37118 0.0068 0.25989 0.0
C332 C 0.36832 0.0172 0.2808 0.0
C333 C 0.37472 0.98614 0.22071 0.0
C334 C 0.36616 0.97841 0.24452 0.0
C335 C 0.36399 0.98872 0.26345 0.0
C336 C 0.36071 0.96004 0.25106 0.0
C337 C 0.37633 0.97551 0.19886 0.0
C338 C 0.34333 0.94809 0.25788 0.0
C339 C 0.3386 0.93106 0.26559 0.0
C340 C 0.35124 0.9258 0.26681 0.0
C341 C 0.36859 0.9378 0.25975 0.0
C342 C 0.37328 0.95476 0.25207 0.0
H343 H 0.3777 0.98187 0.17954 0.0
H344 H 0.38821 0.97446 0.20206 0.0
H345 H 0.3648 0.9621 0.19818 0.0
H346 H 0.33347 0.95197 0.25742 0.0
H347 H 0.32513 0.92214 0.27099 0.0
H348 H 0.40032 0.33272 0.27209 0.0
H349 H 0.3805 0.34312 0.25815 0.0
H350 H 0.40333 0.38457 0.3153 0.0
H351 H 0.42314 0.37434 0.32945 0.0
H352 H 0.3561 0.35148 0.29159 0.0
H353 H 0.41066 0.40719 0.23862 0.0
H354 H 0.41119 0.38758 0.24707 0.0
H355 H 0.41496 0.40354 0.2718 0.0
C356 C 0.40099 0.34393 0.2819 0.0
C357 C 0.41342 0.35282 0.3017 0.0
C358 C 0.38963 0.3498 0.27396 0.0
C359 C 0.3906 0.36464 0.28563 0.0
C360 C 0.4025 0.37312 0.30604 0.0
H361 H 0.33084 0.41733 0.27293 0.0
H362 H 0.34358 0.39972 0.2876 0.0
C363 C 0.4138 0.36726 0.31405 0.0
C364 C 0.3801 0.37208 0.2753 0.0
H365 H 0.38385 0.40696 0.24109 0.0
C366 C 0.36208 0.36356 0.28045 0.0
C367 C 0.388 0.38772 0.26059 0.0
C368 C 0.40725 0.39705 0.25396 0.0
C369 C 0.35177 0.37058 0.27165 0.0
C370 C 0.3598 0.3865 0.25754 0.0
C371 C 0.37775 0.39477 0.25197 0.0
C372 C 0.35002 0.39511 0.2486 0.0
C373 C 0.33241 0.3609 0.27732 0.0
C374 C 0.34938 0.39828 0.22183 0.0
C375 C 0.34221 0.4084 0.21339 0.0
C376 C 0.33567 0.41566 0.23163 0.0
C377 C 0.33576 0.41193 0.25839 0.0
C378 C 0.34293 0.40177 0.26681 0.0
H379 H 0.32761 0.34701 0.28262 0.0
H380 H 0.32974 0.36727 0.29404 0.0
H381 H 0.3249 0.36131 0.26016 0.0
H382 H 0.35488 0.39331 0.2075 0.0
H383 H 0.34231 0.41097 0.19263 0.0
H384 H 0.915 0.33586 0.23173 0.0
H385 H 0.9449 0.34505 0.24584 0.0
H386 H 0.96502 0.37412 0.17411 0.0
H387 H 0.93525 0.36494 0.15973 0.0
H388 H 0.98089 0.35366 0.19032 0.0
H389 H 0.97895 0.39626 0.26925 0.0
H390 H 0.96161 0.37382 0.26936 0.0
H391 H 0.9632 0.38795 0.24292 0.0
C392 C 0.92578 0.34411 0.21888 0.0
C393 C 0.92277 0.34981 0.19472 0.0
C394 C 0.94283 0.34937 0.227 0.0
C395 C 0.95711 0.36042 0.21113 0.0
C396 C 0.95413 0.36562 0.18664 0.0
H397 H 0.06883 0.42087 0.21516 0.0
H398 H 0.0381 0.40294 0.2029 0.0
C399 C 0.93711 0.36041 0.17851 0.0
C400 C 0.97524 0.36724 0.22039 0.0
H401 H 0.00498 0.39539 0.26457 0.0
C402 C 0.98617 0.36269 0.20667 0.0
C403 C 0.98201 0.37899 0.24173 0.0
C404 C 0.97093 0.3847 0.25663 0.0
C405 C 0.00382 0.36972 0.21364 0.0
C406 C 0.01071 0.38186 0.23451 0.0
C407 C -0.00036 0.38605 0.24861 0.0
C408 C 0.02956 0.3912 0.24122 0.0
C409 C 0.01488 0.36405 0.19865 0.0
C410 C 0.03494 0.39068 0.26689 0.0
C411 C 0.05248 0.40107 0.27405 0.0
C412 C 0.06494 0.41224 0.25566 0.0
C413 C 0.05958 0.41236 0.22977 0.0
C414 C 0.04203 0.40201 0.22266 0.0
H415 H 0.00671 0.35102 0.1894 0.0
H416 H 0.02196 0.37362 0.18281 0.0
H417 H 0.02469 0.36345 0.21158 0.0
H418 H 0.02549 0.3825 0.28155 0.0
H419 H 0.05618 0.40066 0.29415 0.0
H420 H 0.58246 0.91633 0.21921 0.0
H421 H 0.60307 0.94597 0.23471 0.0
H422 H 0.56 0.9546 0.25091 0.0
H423 H 0.53939 0.9252 0.23538 0.0
H424 H 0.58756 0.98106 0.22026 0.0
H425 H 0.61167 0.96519 0.31116 0.0
H426 H 0.61231 0.95456 0.28143 0.0
H427 H 0.59161 0.94953 0.29521 0.0
C428 C 0.57738 0.9245 0.22628 0.0
C429 C 0.55929 0.91842 0.22603 0.0
C430 C 0.58916 0.94138 0.23521 0.0
C431 C 0.58301 0.95238 0.24409 0.0
C432 C 0.56498 0.94627 0.24414 0.0
H433 H 0.6199 0.04583 0.33105 0.0
H434 H 0.60802 0.01597 0.31491 0.0
C435 C 0.55322 0.92945 0.23527 0.0
C436 C 0.59522 0.97056 0.25235 0.0
H437 H 0.62308 0.99505 0.30133 0.0
C438 C 0.59549 0.98418 0.23781 0.0
C439 C 0.60545 0.97447 0.27531 0.0
C440 C 0.60526 0.96022 0.29188 0.0
C441 C 0.60533 0.00162 0.24605 0.0
C442 C 0.61537 0.00554 0.26924 0.0
C443 C 0.61547 0.99197 0.28343 0.0
C444 C 0.62436 0.02342 0.28034 0.0
C445 C 0.60421 0.01561 0.23055 0.0
C446 C 0.63788 0.03744 0.26662 0.0
C447 C 0.64465 0.05459 0.27571 0.0
C448 C 0.63804 0.05792 0.29873 0.0
C449 C 0.62518 0.04373 0.31314 0.0
C450 C 0.61842 0.02664 0.30402 0.0
H451 H 0.59339 0.00997 0.21602 0.0
H452 H 0.60223 0.02446 0.24378 0.0
H453 H 0.61666 0.02358 0.21977 0.0
H454 H 0.64281 0.03517 0.24849 0.0
H455 H 0.65467 0.06523 0.26429 0.0
H456 H 0.60907 0.66877 0.32628 0.0
H457 H 0.62746 0.65597 0.31592 0.0
H458 H 0.59475 0.62948 0.2494 0.0
H459 H 0.57637 0.64213 0.25943 0.0
H460 H 0.60036 0.60807 0.28986 0.0
H461 H 0.66128 0.66464 0.25022 0.0
H462 H 0.65163 0.66766 0.27948 0.0
H463 H 0.64041 0.66381 0.24883 0.0
C464 C 0.60595 0.66044 0.30922 0.0
C465 C 0.59119 0.65638 0.29377 0.0
C466 C 0.6165 0.65319 0.30332 0.0
C467 C 0.61243 0.64185 0.2819 0.0
C468 C 0.59808 0.63825 0.26599 0.0
H469 H 0.65413 0.58786 0.19798 0.0
H470 H 0.64434 0.60765 0.21403 0.0
C471 C 0.58759 0.64549 0.27179 0.0
C472 C 0.62213 0.63252 0.27706 0.0
H473 H 0.65995 0.63726 0.25126 0.0
C474 C 0.61347 0.61445 0.28171 0.0
C475 C 0.63916 0.64096 0.26634 0.0
C476 C 0.64876 0.66033 0.26075 0.0
C477 C 0.62125 0.60444 0.27531 0.0
C478 C 0.6382 0.61281 0.2642 0.0
C479 C 0.64701 0.63097 0.25999 0.0
C480 C 0.64625 0.60258 0.25498 0.0
C481 C 0.61102 0.58489 0.2795 0.0
C482 C 0.65096 0.59355 0.27279 0.0
C483 C 0.65653 0.58219 0.2637 0.0
C484 C 0.65745 0.5797 0.23666 0.0
C485 C 0.65346 0.5894 0.21893 0.0
C486 C 0.64793 0.60077 0.22804 0.0
H487 H 0.59706 0.58017 0.2842 0.0
H488 H 0.61164 0.57791 0.26179 0.0
H489 H 0.61684 0.58139 0.29603 0.0
H490 H 0.64987 0.59493 0.29368 0.0
H491 H 0.65962 0.575 0.27786 0.0
H492 H 0.07341 0.66116 0.21804 0.0
H493 H 0.04368 0.65233 0.23277 0.0
H494 H 0.02276 0.60863 0.17941 0.0
H495 H 0.05234 0.61733 0.16441 0.0
H496 H 0.01065 0.6434 0.19657 0.0
H497 H 0.00782 0.5907 0.26008 0.0
H498 H 0.02826 0.6097 0.25081 0.0
H499 H 0.0163 0.59268 0.22738 0.0
C500 C 0.06248 0.64973 0.20931 0.0
C501 C 0.06523 0.63987 0.19017 0.0
C502 C 0.04554 0.64478 0.21767 0.0
C503 C 0.03116 0.62985 0.20716 0.0
C504 C 0.03378 0.6202 0.1877 0.0
H505 H 0.9193 0.58059 0.21894 0.0
H506 H 0.94975 0.59686 0.20431 0.0
C507 C 0.05068 0.62519 0.1792 0.0
C508 C 0.01342 0.62373 0.21746 0.0
H509 H 0.98192 0.59206 0.25585 0.0
C510 C 0.00434 0.63224 0.20964 0.0
C511 C 0.00542 0.6093 0.23465 0.0
C512 C 0.0149 0.60004 0.24395 0.0
C513 C 0.98715 0.62636 0.2182 0.0
C514 C 0.97896 0.61158 0.23481 0.0
C515 C 0.98825 0.60338 0.24308 0.0
C516 C 0.96057 0.60396 0.24337 0.0
C517 C 0.9779 0.63597 0.20952 0.0
C518 C 0.95659 0.60268 0.27015 0.0
C519 C 0.93923 0.59334 0.27859 0.0
C520 C 0.92554 0.58497 0.26036 0.0
C521 C 0.92954 0.58689 0.23347 0.0
C522 C 0.94692 0.59627 0.22505 0.0
H523 H 0.98727 0.64936 0.20242 0.0
H524 H 0.96885 0.62866 0.19321 0.0
H525 H 0.97005 0.63692 0.22577 0.0
H526 H 0.96697 0.60847 0.28457 0.0
H527 H 0.93662 0.59216 0.29944 0.0
H528 H 0.54268 0.93685 0.76886 0.0
H529 H 0.56353 0.96603 0.75289 0.0
H530 H 0.60588 0.95567 0.76506 0.0
H531 H 0.58501 0.92621 0.78085 0.0
H532 H 0.59225 0.99264 0.77988 0.0
H533 H 0.61238 0.97302 0.68848 0.0
H534 H 0.59305 0.9581 0.70667 0.0
H535 H 0.6143 0.96336 0.7184 0.0
C536 C 0.55641 0.9407 0.76809 0.0
C537 C 0.56218 0.92918 0.77606 0.0
C538 C 0.56831 0.9574 0.75899 0.0
C539 C 0.58619 0.96292 0.75758 0.0
C540 C 0.59208 0.95154 0.76562 0.0
H541 H 0.66042 0.07434 0.72961 0.0
H542 H 0.64736 0.04474 0.74773 0.0
C543 C 0.58015 0.93476 0.77474 0.0
C544 C 0.59854 0.98075 0.74804 0.0
H545 H 0.62538 0.00323 0.69695 0.0
C546 C 0.59965 0.99501 0.76189 0.0
C547 C 0.60804 0.9837 0.72448 0.0
C548 C 0.60686 0.96877 0.70845 0.0
C549 C 0.60965 0.01215 0.75246 0.0
C550 C 0.61904 0.01511 0.72877 0.0
C551 C 0.61827 0.00089 0.71522 0.0
C552 C 0.62838 0.03266 0.7166 0.0
C553 C 0.60942 0.02684 0.76731 0.0
C554 C 0.6225 0.0355 0.69259 0.0
C555 C 0.62998 0.05233 0.68211 0.0
C556 C 0.64351 0.06663 0.69547 0.0
C557 C 0.64992 0.06362 0.71896 0.0
C558 C 0.64244 0.04674 0.7294 0.0
H559 H 0.59881 0.0219 0.78217 0.0
H560 H 0.62209 0.03466 0.77762 0.0
H561 H 0.6077 0.03568 0.7537 0.0
H562 H 0.61169 0.02477 0.68239 0.0
H563 H 0.6248 0.05417 0.66391 0.0
H564 H 0.64484 0.59583 0.83736 0.0
H565 H 0.63385 0.6146 0.82099 0.0
H566 H 0.64313 0.60455 0.74161 0.0
H567 H 0.65375 0.58544 0.75773 0.0
H568 H 0.64778 0.64436 0.78912 0.0
H569 H 0.5909 0.58775 0.742 0.0
H570 H 0.60501 0.58514 0.76486 0.0
H571 H 0.61174 0.59109 0.7314 0.0
C572 C 0.6447 0.59774 0.81642 0.0
C573 C 0.64992 0.58895 0.79881 0.0
C574 C 0.63844 0.60849 0.80712 0.0
C575 C 0.63735 0.61065 0.7801 0.0
C576 C 0.64349 0.60271 0.76253 0.0
H577 H 0.58831 0.65703 0.68851 0.0
H578 H 0.60699 0.64557 0.70321 0.0
C579 C 0.64961 0.59185 0.77178 0.0
C580 C 0.62892 0.62043 0.77029 0.0
H581 H 0.59413 0.6156 0.73451 0.0
C582 C 0.63606 0.63811 0.77716 0.0
C583 C 0.61356 0.61217 0.75484 0.0
C584 C 0.60473 0.59296 0.74801 0.0
C585 C 0.62834 0.64784 0.76865 0.0
C586 C 0.61303 0.63957 0.75316 0.0
C587 C 0.60596 0.62193 0.74623 0.0
C588 C 0.60366 0.64866 0.74448 0.0
C589 C 0.6367 0.6669 0.77605 0.0
C590 C 0.59577 0.65437 0.76285 0.0
C591 C 0.58505 0.66091 0.75453 0.0
C592 C 0.58196 0.66173 0.72769 0.0
C593 C 0.59038 0.65654 0.70933 0.0
C594 C 0.60107 0.65001 0.71767 0.0
H595 H 0.65055 0.67234 0.7821 0.0
H596 H 0.63617 0.67478 0.75948 0.0
H597 H 0.62944 0.6683 0.79276 0.0
H598 H 0.59733 0.65312 0.78365 0.0
H599 H 0.57874 0.66477 0.76916 0.0
H600 H 0.90968 0.56054 0.77638 0.0
H601 H 0.94015 0.57856 0.78995 0.0
H602 H 0.95178 0.60779 0.71787 0.0
H603 H 0.92141 0.5896 0.70388 0.0
H604 H 0.9736 0.5951 0.7266 0.0
H605 H 0.96952 0.62833 0.81613 0.0
H606 H 0.95527 0.60507 0.81724 0.0
H607 H 0.95165 0.61781 0.79314 0.0
C608 C 0.91863 0.57101 0.76362 0.0
C609 C 0.91314 0.57358 0.739 0.0
C610 C 0.93603 0.58139 0.7715 0.0
C611 C 0.94819 0.59466 0.75506 0.0
C612 C 0.94258 0.59768 0.7309 0.0
H613 H 0.06272 0.65445 0.76376 0.0
H614 H 0.03236 0.64504 0.75204 0.0
C615 C 0.92522 0.58726 0.72295 0.0
C616 C 0.96704 0.60406 0.76177 0.0
H617 H -0.00373 0.62786 0.80979 0.0
C618 C 0.97861 0.6025 0.74459 0.0
C619 C 0.97351 0.61364 0.7853 0.0
C620 C 0.96186 0.61647 0.80389 0.0
C621 C -0.00362 0.6097 0.75076 0.0
C622 C 0.00275 0.61888 0.77459 0.0
C623 C 0.99129 0.62079 0.79154 0.0
C624 C 0.02108 0.62569 0.78284 0.0
C625 C 0.00804 0.60681 0.73224 0.0
C626 C 0.02472 0.61826 0.80447 0.0
C627 C 0.042 0.62359 0.81123 0.0
C628 C 0.05596 0.63652 0.79652 0.0
C629 C 0.05226 0.64438 0.77538 0.0
C630 C 0.03495 0.639 0.76861 0.0
H631 H 0.00041 0.59667 0.71728 0.0
H632 H 0.01682 0.61922 0.7219 0.0
H633 H 0.01634 0.6028 0.74317 0.0
H634 H 0.01417 0.60798 0.8157 0.0
H635 H 0.04439 0.61735 0.82772 0.0
H636 H 0.42282 0.045 0.82625 0.0
H637 H 0.40269 0.01516 0.81167 0.0
H638 H 0.38361 0.03503 0.75058 0.0
H639 H 0.40388 0.06502 0.76483 0.0
H640 H 0.36542 -0.00345 0.80536 0.0
H641 H 0.40107 0.00562 0.71143 0.0
H642 H 0.41039 0.02074 0.73841 0.0
H643 H 0.39394 0.02108 0.71813 0.0
C644 C 0.41429 0.04305 0.8098 0.0
C645 C 0.41508 0.05739 0.79651 0.0
C646 C 0.40276 0.02599 0.80156 0.0
C647 C 0.39186 0.02294 0.77987 0.0
C648 C 0.39213 0.03716 0.76713 0.0
H649 H 0.33092 0.92426 0.69562 0.0
H650 H 0.3421 0.95431 0.7108 0.0
C651 C 0.40368 0.05427 0.77535 0.0
C652 C 0.38082 0.00489 0.77006 0.0
H653 H 0.37668 0.97791 0.71931 0.0
C654 C 0.36775 0.99247 0.78646 0.0
C655 C 0.38392 -0.00033 0.74538 0.0
C656 C 0.39816 0.01239 0.72732 0.0
C657 C 0.35783 0.97484 0.77895 0.0
C658 C 0.36133 0.96952 0.75465 0.0
C659 C 0.37402 0.98206 0.73792 0.0
C660 C 0.35291 0.95089 0.74685 0.0
C661 C 0.34372 0.9621 0.79713 0.0
C662 C 0.35525 0.93901 0.76215 0.0
C663 C 0.34888 0.92184 0.75358 0.0
C664 C 0.3402 0.91629 0.7294 0.0
C665 C 0.33755 0.92812 0.71435 0.0
C666 C 0.34391 0.94529 0.72298 0.0
H667 H 0.33897 0.96885 0.81033 0.0
H668 H 0.33243 0.95183 0.786 0.0
H669 H 0.34915 0.95562 0.80955 0.0
H670 H 0.36253 0.94316 0.78034 0.0
H671 H 0.3512 0.91309 0.76559 0.0
H672 H 0.33412 0.40666 0.77742 0.0
H673 H 0.34202 0.38486 0.7637 0.0
H674 H 0.39581 0.42566 0.75509 0.0
H675 H 0.38816 0.44739 0.76912 0.0
H676 H 0.35682 0.38226 0.71755 0.0
H677 H 0.40003 0.39039 0.8012 0.0
H678 H 0.38515 0.39886 0.80149 0.0
H679 H 0.40614 0.41089 0.78568 0.0
C680 C 0.34764 0.41096 0.7727 0.0
C681 C 0.36054 0.42874 0.77454 0.0
C682 C 0.35212 0.3985 0.76488 0.0
C683 C 0.36956 0.40362 0.75891 0.0
C684 C 0.38236 0.42138 0.76028 0.0
H685 H 0.4187 0.36319 0.66215 0.0
H686 H 0.40154 0.37523 0.6808 0.0
C687 C 0.37793 0.4338 0.76815 0.0
C688 C 0.37447 0.3906 0.75043 0.0
H689 H 0.40393 0.37717 0.76244 0.0
C690 C 0.36692 0.3809 0.72756 0.0
C691 C 0.38735 0.38855 0.76385 0.0
C692 C 0.39499 0.39759 0.78958 0.0
C693 C 0.3727 0.37001 0.71687 0.0
C694 C 0.38663 0.36914 0.7291 0.0
C695 C 0.39341 0.378 0.75284 0.0
C696 C 0.39534 0.36028 0.71677 0.0
C697 C 0.36394 0.35972 0.69244 0.0
C698 C 0.39779 0.34802 0.7309 0.0
C699 C 0.40787 0.34131 0.72043 0.0
C700 C 0.4157 0.34676 0.69564 0.0
C701 C 0.41278 0.35864 0.68123 0.0
C702 C 0.40282 0.36543 0.69178 0.0
H703 H 0.35016 0.35679 0.69116 0.0
H704 H 0.37097 0.36761 0.67499 0.0
H705 H 0.36408 0.34721 0.69176 0.0
H706 H 0.39223 0.34396 0.75029 0.0
H707 H 0.40985 0.33215 0.732 0.0
H708 H 0.06555 0.40205 0.6997 0.0
H709 H 0.03547 0.38324 0.71483 0.0
H710 H 0.0455 0.41701 0.78149 0.0
H711 H 0.07563 0.43571 0.76684 0.0
H712 H 0.02607 0.3811 0.79367 0.0
H713 H -0.00154 0.39811 0.70799 0.0
H714 H 0.01227 0.38914 0.70031 0.0
H715 H 0.02144 0.41012 0.71604 0.0
C716 C 0.0614 0.4054 0.71769 0.0
C717 C 0.07293 0.42047 0.73194 0.0
C718 C 0.0442 0.39468 0.72624 0.0
C719 C 0.03822 0.39892 0.74902 0.0
C720 C 0.04987 0.41356 0.76379 0.0
H721 H 0.945 0.37347 0.83218 0.0
H722 H 0.97477 0.38283 0.81785 0.0
C723 C 0.06707 0.42425 0.75534 0.0
C724 C 0.01965 0.38862 0.75703 0.0
H725 H 0.97847 0.37876 0.73897 0.0
C726 C 0.01563 0.38046 0.78165 0.0
C727 C 0.00608 0.3878 0.74125 0.0
C728 C 0.00971 0.39686 0.71501 0.0
C729 C -0.00161 0.37171 0.79111 0.0
C730 C 0.98492 0.37136 0.77568 0.0
C731 C 0.98885 0.37902 0.75071 0.0
C732 C 0.96692 0.36439 0.78575 0.0
C733 C -0.00524 0.363 0.8176 0.0
C734 C 0.95262 0.35101 0.77229 0.0
C735 C 0.93553 0.34569 0.78035 0.0
C736 C 0.93249 0.3538 0.80185 0.0
C737 C 0.94688 0.36694 0.81558 0.0
C738 C 0.96393 0.37222 0.80755 0.0
H739 H 0.00501 0.35979 0.82316 0.0
H740 H -0.00533 0.37206 0.8326 0.0
H741 H 0.98182 0.35081 0.81794 0.0
H742 H 0.95468 0.34492 0.75528 0.0
H743 H 0.92472 0.33553 0.76935 0.0
H744 H 0.42686 0.15178 0.22024 0.0
H745 H 0.4239 0.17644 0.23572 0.0
H746 H 0.47597 0.21244 0.2081 0.0
H747 H 0.47894 0.18796 0.19215 0.0
H748 H 0.44356 0.20107 0.27227 0.0
H749 H 0.44775 0.2329 0.17697 0.0
H750 H 0.44408 0.2109 0.17945 0.0
H751 H 0.46585 0.22938 0.18241 0.0
C752 C 0.43764 0.16496 0.21731 0.0
C753 C 0.45312 0.16793 0.20488 0.0
C754 C 0.43591 0.17901 0.22615 0.0
C755 C 0.44959 0.19626 0.22264 0.0
C756 C 0.46509 0.19925 0.21041 0.0
H757 H 0.47388 0.28925 0.30822 0.0
H758 H 0.47128 0.26239 0.29033 0.0
C759 C 0.46681 0.18523 0.20148 0.0
C760 C 0.44804 0.21113 0.23287 0.0
H761 H 0.45179 0.25019 0.21534 0.0
C762 C 0.44517 0.21173 0.25979 0.0
C763 C 0.44987 0.22488 0.21648 0.0
C764 C 0.45188 0.22443 0.18718 0.0
C765 C 0.44476 0.22605 0.27095 0.0
C766 C 0.44764 0.24027 0.25479 0.0
C767 C 0.44981 0.23936 0.22772 0.0
C768 C 0.44901 0.25644 0.26573 0.0
C769 C 0.44125 0.22581 0.29992 0.0
C770 C 0.43765 0.26225 0.25727 0.0
C771 C 0.4392 0.27771 0.26729 0.0
C772 C 0.4522 0.28765 0.28586 0.0
C773 C 0.46365 0.28185 0.29409 0.0
C774 C 0.46211 0.26643 0.28402 0.0
H775 H 0.43423 0.21223 0.30771 0.0
H776 H 0.45388 0.23307 0.31049 0.0
H777 H 0.43337 0.23216 0.30421 0.0
H778 H 0.42753 0.25477 0.243 0.0
H779 H 0.4302 0.28185 0.26052 0.0
H780 H 0.179 0.46255 0.30909 0.0
H781 H 0.20167 0.45739 0.29094 0.0
H782 H 0.16406 0.41911 0.23772 0.0
H783 H 0.1413 0.4243 0.25552 0.0
H784 H 0.2025 0.42562 0.28804 0.0
H785 H 0.20407 0.45332 0.18949 0.0
H786 H 0.19379 0.45708 0.21736 0.0
H787 H 0.18297 0.43645 0.20053 0.0
C788 C 0.17553 0.45303 0.29352 0.0
C789 C 0.15838 0.44392 0.28363 0.0
C790 C 0.18849 0.45009 0.28321 0.0
C791 C 0.18456 0.43804 0.26279 0.0
C792 C 0.1674 0.42868 0.25318 0.0
H793 H 0.25609 0.41551 0.17414 0.0
H794 H 0.22938 0.41367 0.19181 0.0
C795 C 0.15441 0.43162 0.26346 0.0
C796 C 0.19853 0.43541 0.25158 0.0
H797 H 0.22268 0.44169 0.19624 0.0
C798 C 0.20687 0.42905 0.26794 0.0
C799 C 0.2041 0.43981 0.22531 0.0
C800 C 0.1959 0.44718 0.20713 0.0
C801 C 0.22084 0.42717 0.25879 0.0
C802 C 0.22674 0.43206 0.23277 0.0
C803 C 0.21807 0.43794 0.21618 0.0
C804 C 0.24265 0.43237 0.22291 0.0
C805 C 0.22917 0.42001 0.27707 0.0
C806 C 0.2589 0.44357 0.23446 0.0
C807 C 0.27413 0.44469 0.22443 0.0
C808 C 0.27341 0.43467 0.20254 0.0
C809 C 0.25708 0.42336 0.19107 0.0
C810 C 0.24182 0.42229 0.20111 0.0
H811 H 0.22014 0.41222 0.29315 0.0
H812 H 0.23323 0.41165 0.26637 0.0
H813 H 0.24099 0.43106 0.28604 0.0
H814 H 0.25985 0.45173 0.25096 0.0
H815 H 0.28649 0.45357 0.23371 0.0
H816 H 0.70967 0.14732 0.26337 0.0
H817 H 0.73656 0.17269 0.24735 0.0
H818 H 0.72264 0.20721 0.28696 0.0
H819 H 0.69597 0.18203 0.30339 0.0
H820 H 0.74036 0.19979 0.21615 0.0
H821 H 0.77248 0.22495 0.31213 0.0
H822 H 0.75385 0.20327 0.3081 0.0
H823 H 0.75081 0.22192 0.31082 0.0
C824 C 0.71238 0.16031 0.26876 0.0
C825 C 0.70074 0.16267 0.28477 0.0
C826 C 0.72774 0.17477 0.2596 0.0
C827 C 0.73173 0.19179 0.26638 0.0
C828 C 0.72002 0.19417 0.28205 0.0
H829 H 0.79861 0.28988 0.19068 0.0
H830 H 0.77459 0.26208 0.20644 0.0
C831 C 0.70472 0.17975 0.29128 0.0
C832 C 0.74781 0.20714 0.25635 0.0
H833 H 0.78432 0.2446 0.2758 0.0
C834 C 0.75007 0.20951 0.22917 0.0
C835 C 0.7606 0.21965 0.27338 0.0
C836 C 0.75944 0.21726 0.30272 0.0
C837 C 0.76447 0.22442 0.21854 0.0
C838 C 0.7767 0.23741 0.2356 0.0
C839 C 0.7748 0.23471 0.26277 0.0
C840 C 0.79132 0.2541 0.22572 0.0
C841 C 0.76645 0.22608 0.18915 0.0
C842 C 0.80868 0.25905 0.23195 0.0
C843 C 0.82245 0.27504 0.2232 0.0
C844 C 0.81907 0.28637 0.20814 0.0
C845 C 0.80166 0.28141 0.20209 0.0
C846 C 0.78791 0.26546 0.21092 0.0
H847 H 0.75929 0.21311 0.17939 0.0
H848 H 0.76093 0.23417 0.18189 0.0
H849 H 0.78043 0.23252 0.18331 0.0
H850 H 0.81156 0.25051 0.24353 0.0
H851 H 0.83572 0.27849 0.22822 0.0
H852 H 0.52184 0.80435 0.15994 0.0
H853 H 0.52591 0.77985 0.17244 0.0
H854 H 0.55655 0.80908 0.23915 0.0
H855 H 0.5525 0.83365 0.22694 0.0
H856 H 0.55814 0.77917 0.18088 0.0
H857 H 0.51651 0.76256 0.26998 0.0
H858 H 0.51597 0.77629 0.24421 0.0
H859 H 0.53368 0.78498 0.26732 0.0
C860 C 0.52949 0.8056 0.17725 0.0
C861 C 0.53674 0.82089 0.19258 0.0
C862 C 0.53182 0.79161 0.1843 0.0
C863 C 0.54134 0.79262 0.20685 0.0
C864 C 0.54895 0.808 0.22186 0.0
H865 H 0.5586 0.71624 0.28805 0.0
H866 H 0.5594 0.74302 0.27355 0.0
C867 C 0.54667 0.82202 0.2148 0.0
C868 C 0.54298 0.77743 0.21495 0.0
H869 H 0.53087 0.74645 0.26267 0.0
C870 C 0.5522 0.77198 0.19875 0.0
C871 C 0.5352 0.76817 0.23828 0.0
C872 C 0.52465 0.77315 0.25591 0.0
C873 C 0.55403 0.75755 0.20544 0.0
C874 C 0.5461 0.74817 0.22866 0.0
C875 C 0.53697 0.75371 0.24491 0.0
C876 C 0.54678 0.73235 0.23637 0.0
C877 C 0.56465 0.75265 0.18784 0.0
C878 C 0.53944 0.71748 0.22023 0.0
C879 C 0.53902 0.70216 0.22841 0.0
C880 C 0.54576 0.7014 0.25301 0.0
C881 C 0.55328 0.71639 0.269 0.0
C882 C 0.55375 0.73171 0.26076 0.0
H883 H 0.5738 0.76381 0.17534 0.0
H884 H 0.57231 0.74815 0.19944 0.0
H885 H 0.55569 0.74181 0.17474 0.0
H886 H 0.53363 0.71757 0.20159 0.0
H887 H 0.53305 0.69081 0.2157 0.0
H888 H 0.71788 0.56437 0.22101 0.0
H889 H 0.74565 0.5682 0.23725 0.0
H890 H 0.72893 0.5145 0.21798 0.0
H891 H 0.70124 0.5106 0.20134 0.0
H892 H 0.75093 0.55038 0.27748 0.0
H893 H 0.7772 0.54118 0.18386 0.0
H894 H 0.75902 0.54514 0.18524 0.0
H895 H 0.75564 0.52359 0.19137 0.0
C896 C 0.72015 0.5534 0.22006 0.0
C897 C 0.70738 0.53719 0.20978 0.0
C898 C 0.73602 0.55562 0.22936 0.0
C899 C 0.73943 0.54171 0.22845 0.0
C900 C 0.72669 0.5255 0.21833 0.0
H901 H 0.81223 0.52477 0.31755 0.0
H902 H 0.78691 0.52554 0.29995 0.0
C903 C 0.71083 0.52327 0.20897 0.0
C904 C 0.75604 0.54395 0.23899 0.0
H905 H 0.79169 0.54043 0.2229 0.0
C906 C 0.75993 0.54835 0.26552 0.0
C907 C 0.76785 0.54154 0.22323 0.0
C908 C 0.76484 0.53777 0.19428 0.0
C909 C 0.77508 0.54987 0.27694 0.0
C910 C 0.78645 0.54661 0.26148 0.0
C911 C 0.78285 0.54276 0.23476 0.0
C912 C 0.80191 0.54665 0.27276 0.0
C913 C 0.77881 0.55501 0.30541 0.0
C914 C 0.8187 0.55806 0.26296 0.0
C915 C 0.83321 0.55757 0.27285 0.0
C916 C 0.83114 0.54558 0.29262 0.0
C917 C 0.81429 0.53422 0.30244 0.0
C918 C 0.7998 0.53471 0.29252 0.0
H919 H 0.77184 0.56186 0.31222 0.0
H920 H 0.77424 0.54305 0.31748 0.0
H921 H 0.79305 0.56364 0.30885 0.0
H922 H 0.82055 0.5673 0.24759 0.0
H923 H 0.84601 0.56647 0.26484 0.0
H924 H 0.15336 0.69359 0.27278 0.0
H925 H 0.17757 0.72093 0.28988 0.0
H926 H 0.18506 0.74459 0.21358 0.0
H927 H 0.16087 0.71741 0.19632 0.0
H928 H 0.21238 0.73709 0.27034 0.0
H929 H 0.18463 0.78125 0.26358 0.0
H930 H 0.17118 0.75769 0.26304 0.0
H931 H 0.18279 0.76929 0.23412 0.0
C932 C 0.16002 0.70467 0.2597 0.0
C933 C 0.15521 0.70332 0.23318 0.0
C934 C 0.17384 0.72026 0.26951 0.0
C935 C 0.18292 0.7348 0.25306 0.0
C936 C 0.17799 0.7336 0.2267 0.0
H937 H 0.2763 0.83592 0.26063 0.0
H938 H 0.24871 0.80976 0.24905 0.0
C939 C 0.16424 0.71801 0.21684 0.0
C940 C 0.19839 0.75082 0.26289 0.0
H941 H 0.21527 0.79472 0.27158 0.0
C942 C 0.21298 0.74967 0.27089 0.0
C943 C 0.19909 0.76718 0.26338 0.0
C944 C 0.18354 0.76898 0.25579 0.0
C945 C 0.22851 0.76458 0.27869 0.0
C946 C 0.22929 0.78099 0.27901 0.0
C947 C 0.2146 0.78211 0.27131 0.0
C948 C 0.2454 0.7972 0.28668 0.0
C949 C 0.24413 0.76272 0.28564 0.0
C950 C 0.25243 0.79895 0.31187 0.0
C951 C 0.26822 0.8138 0.3185 0.0
C952 C 0.27718 0.82726 0.30012 0.0
C953 C 0.26976 0.82575 0.2752 0.0
C954 C 0.254 0.81084 0.26855 0.0
H955 H 0.24276 0.75027 0.27815 0.0
H956 H 0.25638 0.77377 0.27761 0.0
H957 H 0.2454 0.76278 0.30726 0.0
H958 H 0.24578 0.78872 0.32631 0.0
H959 H 0.27349 0.81464 0.33794 0.0
H960 H 0.51843 0.712 0.67731 0.0
H961 H 0.52047 0.73844 0.69595 0.0
H962 H 0.56692 0.74864 0.73832 0.0
H963 H 0.5648 0.72198 0.72015 0.0
H964 H 0.54327 0.75117 0.76937 0.0
H965 H 0.55366 0.78942 0.67856 0.0
H966 H 0.53469 0.768 0.67671 0.0
H967 H 0.55605 0.77027 0.67972 0.0
C968 C 0.52919 0.71994 0.69039 0.0
C969 C 0.54147 0.7149 0.69723 0.0
C970 C 0.5304 0.73512 0.70089 0.0
C971 C 0.54401 0.74565 0.71817 0.0
C972 C 0.55638 0.74074 0.72488 0.0
H973 H 0.55998 0.84705 0.77026 0.0
H974 H 0.56466 0.82402 0.75219 0.0
C975 C 0.55514 0.72551 0.71447 0.0
C976 C 0.54468 0.76118 0.73042 0.0
H977 H 0.54462 0.79896 0.71643 0.0
C978 C 0.54377 0.76173 0.75783 0.0
C979 C 0.54561 0.77507 0.71535 0.0
C980 C 0.54774 0.77579 0.68597 0.0
C981 C 0.54306 0.77546 0.77053 0.0
C982 C 0.5429 0.78878 0.75534 0.0
C983 C 0.54452 0.78861 0.72801 0.0
C984 C 0.54046 0.8027 0.76732 0.0
C985 C 0.5425 0.77555 0.80006 0.0
C986 C 0.52525 0.79832 0.78168 0.0
C987 C 0.52257 0.81142 0.79212 0.0
C988 C 0.53496 0.82916 0.78812 0.0
C989 C 0.55019 0.83351 0.77371 0.0
C990 C 0.55289 0.82038 0.76336 0.0
H991 H 0.54812 0.76787 0.80866 0.0
H992 H 0.54976 0.7891 0.8079 0.0
H993 H 0.52868 0.76949 0.80659 0.0
H994 H 0.51529 0.78476 0.78443 0.0
H995 H 0.51064 0.80762 0.80296 0.0
H996 H 0.71331 0.55743 0.79119 0.0
H997 H 0.73991 0.55813 0.77599 0.0
H998 H 0.71398 0.53289 0.70401 0.0
H999 H 0.68739 0.5324 0.71884 0.0
H1000 H 0.74332 0.52961 0.76376 0.0
H1001 H 0.75999 0.57366 0.67782 0.0
H1002 H 0.74449 0.57182 0.70249 0.0
H1003 H 0.73805 0.55542 0.67742 0.0
C1004 C 0.7133 0.55218 0.772 0.0
C1005 C 0.69824 0.54487 0.7562 0.0
C1006 C 0.72851 0.55259 0.76336 0.0
C1007 C 0.72898 0.54577 0.73875 0.0
C1008 C 0.71402 0.53857 0.72283 0.0
H1009 H 0.80414 0.52568 0.65993 0.0
H1010 H 0.77848 0.52769 0.67281 0.0
C1011 C 0.6988 0.53821 0.73141 0.0
C1012 C 0.74481 0.54528 0.73047 0.0
H1013 H 0.77605 0.55876 0.68279 0.0
C1014 C 0.75055 0.53607 0.74615 0.0
C1015 C 0.75414 0.55368 0.70743 0.0
C1016 C 0.74898 0.56434 0.69042 0.0
C1017 C 0.76526 0.53482 0.73922 0.0
C1018 C 0.77456 0.54319 0.71618 0.0
C1019 C 0.76883 0.55237 0.70045 0.0
C1020 C 0.79028 0.54248 0.70812 0.0
C1021 C 0.77053 0.52426 0.7563 0.0
C1022 C 0.80545 0.55038 0.72355 0.0
C1023 C 0.82013 0.54927 0.71628 0.0
C1024 C 0.81987 0.54026 0.69339 0.0
C1025 C 0.80473 0.53264 0.67773 0.0
C1026 C 0.79008 0.5338 0.685 0.0
H1027 H 0.75985 0.51551 0.76984 0.0
H1028 H 0.77427 0.5162 0.74417 0.0
H1029 H 0.78204 0.5333 0.76828 0.0
H1030 H 0.80592 0.55736 0.74127 0.0
H1031 H 0.83161 0.55536 0.7287 0.0
H1032 H 0.26637 0.82978 0.68417 0.0
H1033 H 0.23806 0.80472 0.69637 0.0
H1034 H 0.25898 0.80253 0.77171 0.0
H1035 H 0.28716 0.82766 0.75993 0.0
H1036 H 0.23142 0.77164 0.70932 0.0
H1037 H 0.2133 0.8003 0.79166 0.0
H1038 H 0.23032 0.81354 0.76853 0.0
H1039 H 0.23478 0.80313 0.79538 0.0
C1040 C 0.26489 0.82408 0.70345 0.0
C1041 C 0.27901 0.83073 0.72112 0.0
C1042 C 0.24871 0.80977 0.71036 0.0
C1043 C 0.24635 0.80197 0.73509 0.0
C1044 C 0.26039 0.80863 0.75277 0.0
H1045 H 0.17628 0.70944 0.81721 0.0
H1046 H 0.19976 0.73733 0.80074 0.0
C1047 C 0.27654 0.82293 0.74592 0.0
C1048 C 0.22962 0.78616 0.74193 0.0
H1049 H 0.19806 0.7689 0.78917 0.0
C1050 C 0.22394 0.77109 0.72652 0.0
C1051 C 0.21989 0.78553 0.76434 0.0
C1052 C 0.22478 0.80155 0.78078 0.0
C1053 C 0.20926 0.75515 0.7337 0.0
C1054 C 0.2 0.75438 0.75671 0.0
C1055 C 0.2053 0.76957 0.77161 0.0
C1056 C 0.18546 0.73768 0.76657 0.0
C1057 C 0.20423 0.73908 0.71732 0.0
C1058 C 0.1696 0.72876 0.75287 0.0
C1059 C 0.1561 0.71279 0.76224 0.0
C1060 C 0.15831 0.70551 0.78545 0.0
C1061 C 0.17418 0.71463 0.79922 0.0
C1062 C 0.1876 0.73059 0.7899 0.0
H1063 H 0.21438 0.7413 0.70255 0.0
H1064 H 0.202 0.72791 0.72998 0.0
H1065 H 0.19183 0.73533 0.70684 0.0
H1066 H 0.16767 0.73417 0.73496 0.0
H1067 H 0.14401 0.70611 0.75124 0.0
H1068 H 0.47925 0.28613 0.68697 0.0
H1069 H 0.47601 0.25869 0.70343 0.0
H1070 H 0.42777 0.2471 0.74159 0.0
H1071 H 0.43105 0.27473 0.72556 0.0
H1072 H 0.44973 0.24208 0.77371 0.0
H1073 H 0.44262 0.20917 0.67839 0.0
H1074 H 0.46186 0.2304 0.6799 0.0
H1075 H 0.44059 0.22845 0.68173 0.0
C1076 C 0.46789 0.27772 0.69874 0.0
C1077 C 0.45538 0.28259 0.70491 0.0
C1078 C 0.466 0.26198 0.70798 0.0
C1079 C 0.45149 0.25072 0.72331 0.0
C1080 C 0.439 0.25556 0.72961 0.0
H1081 H 0.42971 0.14538 0.76378 0.0
H1082 H 0.42697 0.17002 0.74764 0.0
C1083 C 0.4409 0.27134 0.72044 0.0
C1084 C 0.44982 0.23431 0.73372 0.0
H1085 H 0.44925 0.19683 0.71541 0.0
C1086 C 0.44944 0.23209 0.76097 0.0
C1087 C 0.44914 0.22117 0.71706 0.0
C1088 C 0.44839 0.2223 0.68764 0.0
C1089 C 0.4491 0.21738 0.77205 0.0
C1090 C 0.44951 0.20477 0.75539 0.0
C1091 C 0.44917 0.20663 0.72813 0.0
C1092 C 0.45087 0.18985 0.76581 0.0
C1093 C 0.44832 0.21549 0.80147 0.0
C1094 C 0.46532 0.19287 0.78112 0.0
C1095 C 0.4669 0.17885 0.79042 0.0
C1096 C 0.45415 0.16155 0.78435 0.0
C1097 C 0.43975 0.15855 0.76883 0.0
C1098 C 0.43815 0.1726 0.75959 0.0
H1099 H 0.44276 0.22305 0.81072 0.0
H1100 H 0.44031 0.20156 0.80739 0.0
H1101 H 0.46177 0.22063 0.8092 0.0
H1102 H 0.4755 0.20609 0.7856 0.0
H1103 H 0.47822 0.18161 0.80217 0.0
H1104 H 0.16004 0.43359 0.69287 0.0
H1105 H 0.18565 0.43176 0.70657 0.0
H1106 H 0.1888 0.45963 0.77765 0.0
H1107 H 0.16311 0.46131 0.76437 0.0
H1108 H 0.21869 0.45972 0.71616 0.0
H1109 H 0.19269 0.41824 0.80472 0.0
H1110 H 0.17868 0.42005 0.78064 0.0
H1111 H 0.1895 0.4368 0.80504 0.0
C1112 C 0.16606 0.43916 0.71156 0.0
C1113 C 0.15953 0.44759 0.72755 0.0
C1114 C 0.18069 0.4381 0.71934 0.0
C1115 C 0.18895 0.44533 0.74328 0.0
C1116 C 0.18238 0.45361 0.75937 0.0
H1117 H 0.28426 0.47073 0.82234 0.0
H1118 H 0.25597 0.46627 0.80759 0.0
C1119 C 0.16776 0.45467 0.75165 0.0
C1120 C 0.20514 0.44529 0.75069 0.0
H1121 H 0.22382 0.43378 0.79956 0.0
C1122 C 0.21977 0.45386 0.73422 0.0
C1123 C 0.20647 0.43762 0.77427 0.0
C1124 C 0.19095 0.42751 0.79207 0.0
C1125 C 0.23592 0.45556 0.74119 0.0
C1126 C 0.23736 0.44828 0.76509 0.0
C1127 C 0.22264 0.43938 0.78129 0.0
C1128 C 0.25423 0.45044 0.77412 0.0
C1129 C 0.25148 0.46567 0.72344 0.0
C1130 C 0.26247 0.4428 0.76032 0.0
C1131 C 0.27865 0.44532 0.76867 0.0
C1132 C 0.28682 0.4555 0.79101 0.0
C1133 C 0.27836 0.46288 0.805 0.0
C1134 C 0.26219 0.46033 0.79666 0.0
H1135 H 0.24902 0.47334 0.7085 0.0
H1136 H 0.26323 0.47476 0.73499 0.0
H1137 H 0.25444 0.45639 0.71307 0.0
H1138 H 0.25638 0.43492 0.74308 0.0
H1139 H 0.28478 0.43938 0.75755 0.0
H1140 H 0.83171 0.29761 0.75916 0.0
H1141 H 0.80561 0.27205 0.74183 0.0
H1142 H 0.82221 0.23808 0.7761 0.0
H1143 H 0.84842 0.26357 0.79356 0.0
H1144 H 0.80381 0.24361 0.70812 0.0
H1145 H 0.77154 0.22157 0.80544 0.0
H1146 H 0.78905 0.24366 0.79966 0.0
H1147 H 0.79379 0.22619 0.80271 0.0
C1148 C 0.82987 0.28471 0.76294 0.0
C1149 C 0.84209 0.2826 0.77785 0.0
C1150 C 0.81497 0.27015 0.75299 0.0
C1151 C 0.81197 0.25325 0.75795 0.0
C1152 C 0.82427 0.25106 0.77234 0.0
H1153 H 0.7199 0.15211 0.72481 0.0
H1154 H 0.74863 0.17528 0.7395 0.0
C1155 C 0.83925 0.26563 0.78219 0.0
C1156 C 0.79575 0.23793 0.74841 0.0
H1157 H 0.75639 0.20441 0.76888 0.0
C1158 C 0.79344 0.23497 0.72135 0.0
C1159 C 0.78236 0.22672 0.76582 0.0
C1160 C 0.78414 0.22966 0.79504 0.0
C1161 C 0.77798 0.22101 0.71116 0.0
C1162 C 0.76437 0.21006 0.72853 0.0
C1163 C 0.76685 0.21285 0.75564 0.0
C1164 C 0.74723 0.19599 0.71898 0.0
C1165 C 0.77644 0.21804 0.68194 0.0
C1166 C 0.73686 0.20002 0.70285 0.0
C1167 C 0.72048 0.18684 0.69438 0.0
C1168 C 0.71409 0.16939 0.70212 0.0
C1169 C 0.72445 0.16541 0.71848 0.0
C1170 C 0.74087 0.17862 0.72688 0.0
H1171 H 0.7895 0.22398 0.67244 0.0
H1172 H 0.76908 0.20386 0.67721 0.0
H1173 H 0.76931 0.22425 0.67337 0.0
H1174 H 0.74134 0.21342 0.69706 0.0
H1175 H 0.71278 0.19036 0.68192 0.0
H1176 H 0.46253 0.12193 0.10255 0.0
H1177 H 0.46299 0.12198 0.05466 0.0
H1178 H 0.41216 0.11779 0.05314 0.0
H1179 H 0.41164 0.11793 0.10102 0.0
H1180 H 0.43889 0.09568 0.02135 0.0
H1181 H 0.44121 0.15891 0.0036 0.0
H1182 H 0.4461 0.15307 0.0351 0.0
H1183 H 0.42377 0.14414 0.02473 0.0
C1184 C 0.45149 0.12114 0.09205 0.0
C1185 C 0.43706 0.11997 0.10559 0.0
C1186 C 0.45178 0.12116 0.0647 0.0
C1187 C 0.43772 0.12012 0.05041 0.0
C1188 C 0.4233 0.11895 0.06383 0.0
H1189 H 0.41193 0.11261 0.88546 0.0
H1190 H 0.41217 0.11403 0.93333 0.0
C1191 C 0.42299 0.11894 0.09119 0.0
C1192 C 0.43784 0.11954 0.02146 0.0
H1193 H 0.43652 0.14086 0.96648 0.0
C1194 C 0.43847 0.1056 0.00932 0.0
C1195 C 0.43723 0.13248 0.0059 0.0
C1196 C 0.43719 0.14809 0.01793 0.0
C1197 C 0.43821 0.10407 0.98196 0.0
C1198 C 0.43761 0.11701 0.9664 0.0
C1199 C 0.43697 0.13096 0.97852 0.0
C1200 C 0.43762 0.1163 0.93746 0.0
C1201 C 0.4382 0.08843 0.96995 0.0
C1202 C 0.45197 0.11735 0.92399 0.0
C1203 C 0.45188 0.11652 0.89666 0.0
C1204 C 0.43746 0.11472 0.88234 0.0
C1205 C 0.42321 0.11393 0.89591 0.0
C1206 C 0.42332 0.11476 0.92324 0.0
H1207 H 0.43429 0.07766 0.98434 0.0
H1208 H 0.42918 0.08338 0.95292 0.0
H1209 H 0.45157 0.09238 0.96294 0.0
H1210 H 0.46327 0.11887 0.93461 0.0
H1211 H 0.46311 0.11727 0.8868 0.0
H1212 H 0.31915 0.45034 0.88335 0.0
H1213 H 0.31674 0.44836 0.93105 0.0
H1214 H 0.37209 0.46722 0.93713 0.0
H1215 H 0.3747 0.46941 0.88937 0.0
H1216 H 0.32533 0.42823 0.96412 0.0
H1217 H 0.36404 0.49914 0.98752 0.0
H1218 H 0.35565 0.49112 0.95512 0.0
H1219 H 0.3749 0.49114 0.96662 0.0
C1220 C 0.33085 0.45417 0.8948 0.0
C1221 C 0.34714 0.46007 0.88256 0.0
C1222 C 0.32943 0.45301 0.92205 0.0
C1223 C 0.34426 0.45783 0.93757 0.0
C1224 C 0.36054 0.46373 0.92548 0.0
H1225 H 0.34771 0.4311 0.09976 0.0
H1226 H 0.3497 0.43395 0.05209 0.0
C1227 C 0.36199 0.46488 0.89819 0.0
C1228 C 0.34252 0.45611 0.96638 0.0
H1229 H 0.3556 0.47943 0.02336 0.0
C1230 C 0.33191 0.43941 0.9771 0.0
C1231 C 0.35097 0.47077 0.98317 0.0
C1232 C 0.36192 0.48909 0.9726 0.0
C1233 C 0.32973 0.43693 0.00427 0.0
C1234 C 0.33857 0.45152 0.02108 0.0
C1235 C 0.34896 0.46826 0.01036 0.0
C1236 C 0.3372 0.44967 0.0499 0.0
C1237 C 0.31783 0.41876 0.01476 0.0
C1238 C 0.32976 0.4578 0.06443 0.0
C1239 C 0.32863 0.45624 0.0917 0.0
C1240 C 0.33505 0.44661 0.10488 0.0
C1241 C 0.34257 0.43854 0.09021 0.0
C1242 C 0.34366 0.44009 0.06296 0.0
H1243 H 0.30885 0.40987 -0.00058 0.0
H1244 H 0.32588 0.41318 0.02194 0.0
H1245 H 0.30991 0.41909 0.03141 0.0
H1246 H 0.32477 0.46531 0.05465 0.0
H1247 H 0.32281 0.46265 0.10242 0.0
H1248 H 0.88938 0.3049 0.89273 0.0
H1249 H 0.88586 0.30267 0.94032 0.0
H1250 H 0.86257 0.33554 0.938 0.0
H1251 H 0.86572 0.33759 0.89038 0.0
H1252 H 0.9001 0.32932 0.97635 0.0
H1253 H 0.82762 0.29444 0.98205 0.0
H1254 H 0.8392 0.29603 0.95208 0.0
H1255 H 0.83674 0.3141 0.96286 0.0
C1256 C 0.88339 0.31156 0.90231 0.0
C1257 C 0.87777 0.32138 0.88776 0.0
C1258 C 0.8814 0.31027 0.92949 0.0
C1259 C 0.87371 0.31871 0.94262 0.0
C1260 C 0.86816 0.32858 0.92819 0.0
H1261 H 0.86039 0.33712 0.10511 0.0
H1262 H 0.86146 0.33666 0.05721 0.0
C1263 C 0.87008 0.32983 0.90099 0.0
C1264 C 0.87224 0.31784 0.97152 0.0
H1265 H 0.8431 0.30618 0.02198 0.0
C1266 C 0.88763 0.32414 0.98634 0.0
C1267 C 0.85595 0.31109 0.98446 0.0
C1268 C 0.83891 0.30337 0.96957 0.0
C1269 C 0.88719 0.32419 0.01379 0.0
C1270 C 0.87093 0.31761 0.02668 0.0
C1271 C 0.85553 0.31125 0.01193 0.0
C1272 C 0.86971 0.31736 0.05553 0.0
C1273 C 0.90415 0.33161 0.02884 0.0
C1274 C 0.87372 0.30642 0.07029 0.0
C1275 C 0.87307 0.3066 0.09761 0.0
C1276 C 0.86841 0.31774 0.1106 0.0
C1277 C 0.86409 0.32844 0.09569 0.0
C1278 C 0.86466 0.32819 0.06836 0.0
H1279 H 0.91571 0.33926 0.01605 0.0
H1280 H 0.90441 0.34017 0.04499 0.0
H1281 H 0.90527 0.32072 0.03765 0.0
H1282 H 0.87743 0.29782 0.06065 0.0
H1283 H 0.87642 0.29816 0.10852 0.0
H1284 H 0.535 0.85973 0.1041 0.0
H1285 H 0.53491 0.86138 0.05633 0.0
H1286 H 0.54341 0.91388 0.0612 0.0
H1287 H 0.5438 0.91248 0.10902 0.0
H1288 H 0.51245 0.86684 0.02485 0.0
H1289 H 0.58142 0.91924 0.0101 0.0
H1290 H 0.57361 0.90769 0.04074 0.0
H1291 H 0.56921 0.92489 0.03225 0.0
C1292 C 0.53696 0.87169 0.09504 0.0
C1293 C 0.53948 0.88601 0.11037 0.0
C1294 C 0.53689 0.87259 0.06774 0.0
C1295 C 0.53939 0.88783 0.05525 0.0
C1296 C 0.54182 0.90212 0.07046 0.0
H1297 H 0.53875 0.91462 0.89154 0.0
H1298 H 0.53899 0.91425 0.93948 0.0
C1299 C 0.54194 0.90126 0.09779 0.0
C1300 C 0.53887 0.88849 0.02632 0.0
H1301 H 0.56309 0.91018 0.97263 0.0
C1302 C 0.52353 0.87628 0.01341 0.0
C1303 C 0.55335 0.90086 0.01151 0.0
C1304 C 0.5704 0.91383 0.02429 0.0
C1305 C 0.52222 0.87619 0.98602 0.0
C1306 C 0.53671 0.88849 0.97123 0.0
C1307 C 0.552 0.9008 0.98411 0.0
C1308 C 0.53637 0.88858 0.94228 0.0
C1309 C 0.50526 0.8631 0.97315 0.0
C1310 C 0.53498 0.87433 0.92808 0.0
C1311 C 0.53487 0.8745 0.90073 0.0
C1312 C 0.53619 0.88897 0.88711 0.0
C1313 C 0.53765 0.90326 0.90144 0.0
C1314 C 0.53782 0.90309 0.9288 0.0
H1315 H 0.4942 0.85751 0.98728 0.0
H1316 H 0.50198 0.86922 0.95674 0.0
H1317 H 0.50665 0.85219 0.96505 0.0
H1318 H 0.53413 0.86313 0.93817 0.0
H1319 H 0.53378 0.86331 0.89029 0.0
H1320 H 0.66864 0.53296 0.10582 0.0
H1321 H 0.6672 0.53069 0.05803 0.0
H1322 H 0.63823 0.55813 0.05576 0.0
H1323 H 0.63976 0.56067 0.10348 0.0
H1324 H 0.6376 0.5149 0.02556 0.0
H1325 H 0.67881 0.58589 0.00467 0.0
H1326 H 0.67798 0.57666 0.03655 0.0
H1327 H 0.66071 0.5805 0.02621 0.0
C1328 C 0.66201 0.53858 0.09517 0.0
C1329 C 0.6544 0.5471 0.10845 0.0
C1330 C 0.66118 0.53723 0.06787 0.0
C1331 C 0.65282 0.54445 0.05339 0.0
C1332 C 0.64503 0.55277 0.06657 0.0
H1333 H 0.61811 0.52406 0.89164 0.0
H1334 H 0.61997 0.52522 0.93948 0.0
C1335 C 0.64586 0.55413 0.09386 0.0
C1336 C 0.65205 0.54307 0.02448 0.0
H1337 H 0.66406 0.56744 0.96849 0.0
C1338 C 0.64342 0.52637 0.01304 0.0
C1339 C 0.65985 0.55806 0.00827 0.0
C1340 C 0.67001 0.5763 0.01948 0.0
C1341 C 0.64212 0.52427 0.98573 0.0
C1342 C 0.64945 0.53928 0.96955 0.0
C1343 C 0.65833 0.55596 0.98099 0.0
C1344 C 0.64823 0.53801 0.94064 0.0
C1345 C 0.63316 0.50602 0.97443 0.0
C1346 C 0.66352 0.54505 0.92549 0.0
C1347 C 0.66252 0.5445 0.89818 0.0
C1348 C 0.64619 0.53698 0.88552 0.0
C1349 C 0.63088 0.52988 0.90078 0.0
C1350 C 0.63191 0.53044 0.92812 0.0
H1351 H 0.63223 0.49622 0.98896 0.0
H1352 H 0.61967 0.50239 0.96842 0.0
H1353 H 0.64022 0.50533 0.95687 0.0
H1354 H 0.67624 0.55102 0.93482 0.0
H1355 H 0.67457 0.55012 0.88702 0.0
H1356 H 0.10467 0.69022 0.88353 0.0
H1357 H 0.10692 0.69175 0.93132 0.0
H1358 H 0.12168 0.65195 0.93112 0.0
H1359 H 0.11963 0.65041 0.88332 0.0
H1360 H 0.08821 0.66414 0.96728 0.0
H1361 H 0.16001 0.69152 0.97566 0.0
H1362 H 0.1496 0.69208 0.94551 0.0
H1363 H 0.14893 0.67225 0.95564 0.0
C1364 C 0.10849 0.68185 0.89362 0.0
C1365 C 0.11203 0.67023 0.87963 0.0
C1366 C 0.10975 0.68274 0.92091 0.0
C1367 C 0.1147 0.67214 0.93465 0.0
C1368 C 0.11816 0.66047 0.9208 0.0
H1369 H 0.12577 0.65382 0.09801 0.0
H1370 H 0.12482 0.65388 0.05014 0.0
C1371 C 0.11688 0.65955 0.89351 0.0
C1372 C 0.11567 0.67288 0.96357 0.0
H1373 H 0.14358 0.68192 0.01506 0.0
C1374 C 0.10032 0.66812 0.97777 0.0
C1375 C 0.1315 0.67805 0.97709 0.0
C1376 C 0.1485 0.68392 0.96275 0.0
C1377 C 0.10029 0.66804 0.00524 0.0
C1378 C 0.11611 0.67317 0.01877 0.0
C1379 C 0.13148 0.67799 0.00457 0.0
C1380 C 0.11694 0.67345 0.04771 0.0
C1381 C 0.08325 0.66207 0.01954 0.0
C1382 C 0.1131 0.68465 0.06213 0.0
C1383 C 0.11361 0.68464 0.08947 0.0
C1384 C 0.11808 0.6735 0.10286 0.0
C1385 C 0.12224 0.66253 0.08831 0.0
C1386 C 0.12172 0.66255 0.06096 0.0
H1387 H 0.07177 0.65458 0.00654 0.0
H1388 H 0.08209 0.65375 0.03661 0.0
H1389 H 0.08282 0.67368 0.0269 0.0
H1390 H 0.10971 0.6934 0.05221 0.0
H1391 H 0.11042 0.69332 0.10009 0.0
H1392 H 0.91546 0.55847 0.60924 0.0
H1393 H 0.91753 0.55945 0.56139 0.0
H1394 H 0.86266 0.54293 0.55587 0.0
H1395 H 0.86043 0.54195 0.60364 0.0
H1396 H 0.89731 0.531 0.52524 0.0
H1397 H 0.88772 0.58806 0.51044 0.0
H1398 H 0.89396 0.58317 0.54162 0.0
H1399 H 0.87164 0.57094 0.53078 0.0
C1400 C 0.90384 0.5551 0.59786 0.0
C1401 C 0.88779 0.5502 0.61024 0.0
C1402 C 0.90505 0.55565 0.57055 0.0
C1403 C 0.8903 0.55147 0.55521 0.0
C1404 C 0.87425 0.54646 0.56745 0.0
H1405 H 0.86688 0.54608 0.39047 0.0
H1406 H 0.86654 0.54566 0.43832 0.0
C1407 C 0.87299 0.54584 0.59473 0.0
C1408 C 0.89158 0.55201 0.52633 0.0
H1409 H 0.88737 0.57244 0.47243 0.0
C1410 C 0.89525 0.54011 0.51363 0.0
C1411 C 0.88885 0.56392 0.51139 0.0
C1412 C 0.88547 0.57737 0.52418 0.0
C1413 C 0.89582 0.53949 0.4862 0.0
C1414 C 0.89299 0.55134 0.47122 0.0
C1415 C 0.8895 0.56336 0.48398 0.0
C1416 C 0.89329 0.55132 0.44224 0.0
C1417 C 0.89893 0.52583 0.4735 0.0
C1418 C 0.9085 0.55479 0.4286 0.0
C1419 C 0.90873 0.55497 0.40123 0.0
C1420 C 0.89378 0.55186 0.38704 0.0
C1421 C 0.87861 0.54852 0.4008 0.0
C1422 C 0.87839 0.54828 0.42814 0.0
H1423 H 0.89638 0.51506 0.48728 0.0
H1424 H 0.8905 0.52014 0.45597 0.0
H1425 H 0.91279 0.532 0.46715 0.0
H1426 H 0.92026 0.55754 0.43913 0.0
H1427 H 0.92065 0.55769 0.39122 0.0
H1428 H 0.32204 0.86102 0.59544 0.0
H1429 H 0.32574 0.86302 0.54789 0.0
H1430 H 0.354 0.91934 0.55296 0.0
H1431 H 0.35026 0.91751 0.60057 0.0
H1432 H 0.32769 0.90575 0.51425 0.0
H1433 H 0.37128 0.87742 0.507 0.0
H1434 H 0.35155 0.86419 0.5252 0.0
H1435 H 0.36743 0.88538 0.53744 0.0
C1436 C 0.32908 0.87384 0.58648 0.0
C1437 C 0.3359 0.88911 0.6018 0.0
C1438 C 0.33128 0.87495 0.55933 0.0
C1439 C 0.34038 0.89132 0.54702 0.0
C1440 C 0.34704 0.90659 0.56217 0.0
H1441 H 0.37138 0.90528 0.3821 0.0
H1442 H 0.37171 0.90781 0.42993 0.0
C1443 C 0.34488 0.9055 0.58935 0.0
C1444 C 0.34245 0.89246 0.51823 0.0
H1445 H 0.35885 0.88021 0.46705 0.0
C1446 C 0.33462 0.90031 0.50391 0.0
C1447 C 0.35172 0.88557 0.50488 0.0
C1448 C 0.36113 0.87781 0.5194 0.0
C1449 C 0.33528 0.90087 0.47646 0.0
C1450 C 0.34381 0.8932 0.46308 0.0
C1451 C 0.35219 0.88593 0.47741 0.0
C1452 C 0.34362 0.89201 0.43418 0.0
C1453 C 0.32683 0.90964 0.462 0.0
C1454 C 0.32774 0.88213 0.42088 0.0
C1455 C 0.32749 0.88062 0.39366 0.0
C1456 C 0.34316 0.88894 0.37922 0.0
C1457 C 0.35908 0.89877 0.39264 0.0
C1458 C 0.35931 0.90022 0.41993 0.0
H1459 H 0.32511 0.91884 0.47484 0.0
H1460 H 0.33472 0.91691 0.44467 0.0
H1461 H 0.3137 0.89951 0.45505 0.0
H1462 H 0.31552 0.87541 0.4316 0.0
H1463 H 0.31501 0.87288 0.38396 0.0
H1464 H 0.46259 0.33608 0.60221 0.0
H1465 H 0.46132 0.33503 0.55438 0.0
H1466 H 0.41123 0.28758 0.55769 0.0
H1467 H 0.41228 0.28858 0.60559 0.0
H1468 H 0.45796 0.30789 0.52045 0.0
H1469 H 0.40238 0.32041 0.51057 0.0
H1470 H 0.41466 0.32453 0.54058 0.0
H1471 H 0.39856 0.30256 0.53171 0.0
C1472 C 0.45129 0.32542 0.5928 0.0
C1473 C 0.43748 0.31246 0.6077 0.0
C1474 C 0.4506 0.32483 0.56548 0.0
C1475 C 0.43608 0.31136 0.55258 0.0
C1476 C 0.4224 0.29825 0.56734 0.0
H1477 H 0.40999 0.29227 0.38686 0.0
H1478 H 0.41019 0.2898 0.43458 0.0
C1479 C 0.42307 0.29881 0.59469 0.0
C1480 C 0.43536 0.31105 0.52364 0.0
H1481 H 0.41299 0.31453 0.47165 0.0
C1482 C 0.44813 0.30933 0.50973 0.0
C1483 C 0.42248 0.31288 0.50983 0.0
C1484 C 0.4088 0.31534 0.52385 0.0
C1485 C 0.44834 0.30934 0.48226 0.0
C1486 C 0.43563 0.31144 0.46844 0.0
C1487 C 0.42271 0.31291 0.48235 0.0
C1488 C 0.43579 0.31265 0.43955 0.0
C1489 C 0.46205 0.3069 0.46827 0.0
C1490 C 0.45006 0.32642 0.42662 0.0
C1491 C 0.45 0.32787 0.3994 0.0
C1492 C 0.43561 0.31563 0.38462 0.0
C1493 C 0.4213 0.30188 0.39766 0.0
C1494 C 0.42137 0.30045 0.42491 0.0
H1495 H 0.46759 0.30074 0.48116 0.0
H1496 H 0.45654 0.29869 0.45048 0.0
H1497 H 0.47292 0.31987 0.46211 0.0
H1498 H 0.46115 0.33618 0.43764 0.0
H1499 H 0.46119 0.33866 0.38997 0.0
H1500 H 0.07452 0.4317 0.60094 0.0
H1501 H 0.07396 0.43208 0.55302 0.0
H1502 H 0.12918 0.44978 0.55091 0.0
H1503 H 0.12992 0.44943 0.5988 0.0
H1504 H 0.09523 0.46221 0.51969 0.0
H1505 H 0.10613 0.40621 0.50158 0.0
H1506 H 0.09858 0.40968 0.53269 0.0
H1507 H 0.12122 0.42268 0.52377 0.0
C1508 C 0.08654 0.43558 0.5903 0.0
C1509 C 0.10226 0.44049 0.60368 0.0
C1510 C 0.08618 0.43582 0.56295 0.0
C1511 C 0.10148 0.44078 0.54853 0.0
C1512 C 0.11719 0.44567 0.56176 0.0
H1513 H 0.12662 0.44972 0.38328 0.0
H1514 H 0.12709 0.44955 0.43116 0.0
C1515 C 0.11759 0.44553 0.58911 0.0
C1516 C 0.10111 0.44129 0.51961 0.0
H1517 H 0.10653 0.42256 0.46459 0.0
C1518 C 0.09762 0.45351 0.50758 0.0
C1519 C 0.10433 0.42996 0.50402 0.0
C1520 C 0.10765 0.41628 0.51607 0.0
C1521 C 0.09756 0.45492 0.48021 0.0
C1522 C 0.10069 0.44352 0.46456 0.0
C1523 C 0.10416 0.43128 0.47665 0.0
C1524 C 0.10042 0.44404 0.43558 0.0
C1525 C 0.09458 0.46888 0.46834 0.0
C1526 C 0.08521 0.44086 0.42221 0.0
C1527 C 0.08492 0.44104 0.39485 0.0
C1528 C 0.09978 0.44419 0.38038 0.0
C1529 C 0.11496 0.44726 0.39385 0.0
C1530 C 0.11525 0.44716 0.4212 0.0
H1531 H 0.09725 0.47943 0.48263 0.0
H1532 H 0.10299 0.47482 0.45086 0.0
H1533 H 0.08071 0.46292 0.46213 0.0
H1534 H 0.07349 0.43803 0.43292 0.0
H1535 H 0.07299 0.4385 0.38507 0.0
H1536 H 0.69699 0.11307 0.3852 0.0
H1537 H 0.69878 0.11434 0.43306 0.0
H1538 H 0.65312 0.12018 0.43641 0.0
H1539 H 0.65107 0.11871 0.38865 0.0
H1540 H 0.70221 0.141 0.4671 0.0
H1541 H 0.64056 0.07861 0.48522 0.0
H1542 H 0.65104 0.08436 0.45354 0.0
H1543 H 0.63804 0.09364 0.46446 0.0
C1544 C 0.6873 0.11459 0.39611 0.0
C1545 C 0.67381 0.11566 0.38314 0.0
C1546 C 0.68837 0.11534 0.42343 0.0
C1547 C 0.67593 0.11707 0.43823 0.0
C1548 C 0.66264 0.11847 0.42534 0.0
H1549 H 0.65723 0.12461 0.60224 0.0
H1550 H 0.65719 0.12413 0.55438 0.0
C1551 C 0.66155 0.11772 0.39804 0.0
C1552 C 0.67693 0.11761 0.46716 0.0
H1553 H 0.65414 0.0967 0.52223 0.0
C1554 C 0.69177 0.13128 0.4792 0.0
C1555 C 0.66328 0.10486 0.4828 0.0
C1556 C 0.64739 0.08944 0.4709 0.0
C1557 C 0.69313 0.1328 0.50658 0.0
C1558 C 0.67938 0.12016 0.5222 0.0
C1559 C 0.66462 0.1064 0.51014 0.0
C1560 C 0.67992 0.12101 0.55113 0.0
C1561 C 0.70904 0.14813 0.51856 0.0
C1562 C 0.69269 0.11932 0.5651 0.0
C1563 C 0.69277 0.1196 0.59248 0.0
C1564 C 0.68001 0.12148 0.60631 0.0
C1565 C 0.66726 0.12318 0.59219 0.0
C1566 C 0.66719 0.12289 0.56485 0.0
H1567 H 0.71634 0.15872 0.50406 0.0
H1568 H 0.70529 0.1536 0.53532 0.0
H1569 H 0.71799 0.14368 0.52599 0.0
H1570 H 0.70243 0.11754 0.55484 0.0
H1571 H 0.70272 0.11818 0.60277 0.0
H1572 H 0.54473 0.67361 0.3841 0.0
H1573 H 0.54409 0.67346 0.43198 0.0
H1574 H 0.53499 0.62068 0.43241 0.0
H1575 H 0.53577 0.62073 0.3845 0.0
H1576 H 0.51667 0.65011 0.46578 0.0
H1577 H 0.5778 0.64761 0.48077 0.0
H1578 H 0.5723 0.65348 0.44978 0.0
H1579 H 0.56185 0.63095 0.45971 0.0
C1580 C 0.54262 0.66197 0.39435 0.0
C1581 C 0.54039 0.64721 0.38049 0.0
C1582 C 0.54224 0.66191 0.42169 0.0
C1583 C 0.53972 0.64715 0.43567 0.0
C1584 C 0.53726 0.63231 0.42195 0.0
H1585 H 0.53769 0.62666 0.60271 0.0
H1586 H 0.5361 0.62425 0.55493 0.0
C1587 C 0.53762 0.63234 0.39458 0.0
C1588 C 0.53953 0.64729 0.46463 0.0
H1589 H 0.56148 0.64566 0.5186 0.0
C1590 C 0.52646 0.64915 0.47737 0.0
C1591 C 0.5523 0.64597 0.4796 0.0
C1592 C 0.56696 0.64453 0.46685 0.0
C1593 C 0.52574 0.64962 0.50479 0.0
C1594 C 0.53865 0.64854 0.51976 0.0
C1595 C 0.55161 0.64648 0.50702 0.0
C1596 C 0.53919 0.64989 0.54868 0.0
C1597 C 0.51105 0.65102 0.51749 0.0
C1598 C 0.54163 0.66519 0.56092 0.0
C1599 C 0.54253 0.66662 0.5882 0.0
C1600 C 0.54113 0.65281 0.6037 0.0
C1601 C 0.53878 0.63753 0.59134 0.0
C1602 C 0.53788 0.63612 0.56406 0.0
H1603 H 0.4998 0.64689 0.50395 0.0
H1604 H 0.50638 0.6429 0.53549 0.0
H1605 H 0.51585 0.66485 0.52306 0.0
H1606 H 0.54305 0.67612 0.54937 0.0
H1607 H 0.54443 0.6786 0.59709 0.0
H1608 H 0.49426 0.13156 0.23568 0.0
H1609 H 0.5209 0.13412 0.25471 0.0
H1610 H 0.52285 0.10181 0.19291 0.0
H1611 H 0.49628 0.09922 0.17364 0.0
H1612 H 0.52591 0.10588 0.27163 0.0
H1613 H 0.57239 0.14575 0.19307 0.0
H1614 H 0.55112 0.1438 0.19679 0.0
H1615 H 0.5531 0.12639 0.18196 0.0
C1616 C 0.5004 0.12507 0.22603 0.0
C1617 C 0.49318 0.11523 0.20308 0.0
C1618 C 0.5156 0.12654 0.23697 0.0
C1619 C 0.52392 0.11834 0.22502 0.0
C1620 C 0.51676 0.10848 0.20216 0.0
H1621 H 0.61341 0.10661 0.25696 0.0
H1622 H 0.58764 0.10637 0.23899 0.0
C1623 C 0.50153 0.10695 0.19127 0.0
C1624 C 0.53981 0.11962 0.2369 0.0
H1625 H 0.58304 0.13414 0.22546 0.0
C1626 C 0.53845 0.11216 0.26167 0.0
C1627 C 0.55609 0.12779 0.22376 0.0
C1628 C 0.55839 0.13653 0.19751 0.0
C1629 C 0.55287 0.11224 0.2734 0.0
C1630 C 0.56915 0.12033 0.26019 0.0
C1631 C 0.57054 0.12795 0.23553 0.0
C1632 C 0.58482 0.12065 0.2713 0.0
C1633 C 0.55041 0.10318 0.29942 0.0
C1634 C 0.59192 0.12896 0.29529 0.0
C1635 C 0.60662 0.12905 0.30571 0.0
C1636 C 0.61458 0.12098 0.29217 0.0
C1637 C 0.60759 0.11292 0.26793 0.0
C1638 C 0.59287 0.11278 0.2576 0.0
H1639 H 0.53638 0.09393 0.30362 0.0
H1640 H 0.55762 0.09586 0.29998 0.0
H1641 H 0.55559 0.11313 0.31525 0.0
H1642 H 0.58613 0.13544 0.30591 0.0
H1643 H 0.61175 0.13548 0.32432 0.0
H1644 H 0.50672 0.61388 0.25759 0.0
H1645 H 0.48094 0.58756 0.24154 0.0
H1646 H 0.44773 0.59966 0.28851 0.0
H1647 H 0.4735 0.62619 0.30461 0.0
H1648 H 0.45625 0.55951 0.27286 0.0
H1649 H 0.42534 0.59021 0.2148 0.0
H1650 H 0.44796 0.60215 0.22501 0.0
H1651 H 0.43084 0.5976 0.24809 0.0
C1652 C 0.49394 0.61105 0.26441 0.0
C1653 C 0.49216 0.62215 0.28238 0.0
C1654 C 0.47923 0.59599 0.25521 0.0
C1655 C 0.46245 0.59178 0.26365 0.0
C1656 C 0.46057 0.60285 0.28145 0.0
H1657 H 0.35999 0.50262 0.2272 0.0
H1658 H 0.38405 0.52985 0.24485 0.0
C1659 C 0.47531 0.61795 0.29071 0.0
C1660 C 0.44707 0.5754 0.25452 0.0
H1661 H 0.40965 0.55936 0.21829 0.0
C1662 C 0.44605 0.55946 0.26092 0.0
C1663 C 0.43377 0.57543 0.2391 0.0
C1664 C 0.4345 0.59224 0.23112 0.0
C1665 C 0.43205 0.54347 0.25232 0.0
C1666 C 0.41893 0.5435 0.23646 0.0
C1667 C 0.41978 0.55942 0.2304 0.0
C1668 C 0.40439 0.52712 0.22554 0.0
C1669 C 0.43134 0.5267 0.26057 0.0
C1670 C 0.40787 0.51673 0.20853 0.0
C1671 C 0.39418 0.50116 0.19848 0.0
C1672 C 0.37674 0.49577 0.2051 0.0
C1673 C 0.37328 0.50638 0.22179 0.0
C1674 C 0.387 0.52194 0.23187 0.0
H1675 H 0.43945 0.52862 0.27825 0.0
H1676 H 0.41769 0.5163 0.26473 0.0
H1677 H 0.43649 0.52209 0.24447 0.0
H1678 H 0.42119 0.5207 0.20296 0.0
H1679 H 0.39729 0.49337 0.18553 0.0
H1680 H 0.88183 0.51048 0.25627 0.0
H1681 H 0.87991 0.48418 0.23724 0.0
H1682 H 0.85416 0.45508 0.30696 0.0
H1683 H 0.85618 0.48141 0.32636 0.0
H1684 H 0.88191 0.45062 0.29007 0.0
H1685 H 0.83656 0.44093 0.20821 0.0
H1686 H 0.85536 0.46251 0.20968 0.0
H1687 H 0.83955 0.45501 0.23576 0.0
C1688 C 0.87565 0.49847 0.26753 0.0
C1689 C 0.86911 0.49803 0.29283 0.0
C1690 C 0.87447 0.48343 0.25654 0.0
C1691 C 0.86664 0.46763 0.27053 0.0
C1692 C 0.86014 0.46713 0.29579 0.0
H1693 H 0.85506 0.3653 0.23823 0.0
H1694 H 0.85353 0.38985 0.25764 0.0
C1695 C 0.86131 0.48219 0.30683 0.0
C1696 C 0.86595 0.45185 0.25921 0.0
H1697 H 0.85072 0.42397 0.20699 0.0
C1698 C 0.87497 0.44468 0.27203 0.0
C1699 C 0.85691 0.4442 0.23564 0.0
C1700 C 0.84641 0.45094 0.22161 0.0
C1701 C 0.8756 0.4303 0.26155 0.0
C1702 C 0.86671 0.42275 0.23784 0.0
C1703 C 0.85754 0.42982 0.22514 0.0
C1704 C 0.86702 0.40768 0.2257 0.0
C1705 C 0.8862 0.42364 0.2755 0.0
C1706 C 0.87465 0.40944 0.20097 0.0
C1707 C 0.87548 0.39542 0.18974 0.0
C1708 C 0.8686 0.37936 0.20303 0.0
C1709 C 0.86059 0.37753 0.22756 0.0
C1710 C 0.85977 0.39156 0.23875 0.0
H1711 H 0.8955 0.43334 0.28977 0.0
H1712 H 0.87724 0.41154 0.28641 0.0
H1713 H 0.8937 0.4204 0.2613 0.0
H1714 H 0.88024 0.42177 0.19054 0.0
H1715 H 0.88168 0.39726 0.17079 0.0
H1716 H 0.47286 0.86503 0.16618 0.0
H1717 H 0.44622 0.86133 0.18676 0.0
H1718 H 0.45934 0.84439 0.25817 0.0
H1719 H 0.48626 0.84844 0.23794 0.0
H1720 H 0.41777 0.83276 0.20904 0.0
H1721 H 0.4535 0.88495 0.28309 0.0
H1722 H 0.46428 0.88187 0.25526 0.0
H1723 H 0.45875 0.86774 0.28328 0.0
C1724 C 0.47006 0.86044 0.18623 0.0
C1725 C 0.48178 0.85721 0.20051 0.0
C1726 C 0.45482 0.85832 0.19795 0.0
C1727 C 0.45098 0.85291 0.22413 0.0
C1728 C 0.46227 0.84898 0.23813 0.0
H1729 H 0.36659 0.84499 0.32394 0.0
H1730 H 0.39041 0.84134 0.30628 0.0
C1731 C 0.47759 0.8512 0.22648 0.0
C1732 C 0.43537 0.85182 0.23683 0.0
H1733 H 0.42269 0.86952 0.28574 0.0
C1734 C 0.41883 0.84074 0.22587 0.0
C1735 C 0.4368 0.86226 0.2588 0.0
C1736 C 0.45428 0.875 0.27071 0.0
C1737 C 0.40369 0.83992 0.23619 0.0
C1738 C 0.40519 0.85057 0.25784 0.0
C1739 C 0.42163 0.86132 0.2692 0.0
C1740 C 0.39004 0.85163 0.26798 0.0
C1741 C 0.38622 0.82772 0.22383 0.0
C1742 C 0.38206 0.85868 0.25229 0.0
C1743 C 0.36856 0.86089 0.26232 0.0
C1744 C 0.3628 0.85607 0.28827 0.0
C1745 C 0.37068 0.84877 0.30385 0.0
C1746 C 0.38428 0.84668 0.29382 0.0
H1747 H 0.38665 0.81732 0.21211 0.0
H1748 H 0.37586 0.82146 0.23897 0.0
H1749 H 0.38254 0.83531 0.21054 0.0
H1750 H 0.38654 0.86287 0.23244 0.0
H1751 H 0.3628 0.86657 0.24981 0.0
H1752 H 0.59414 0.49884 0.18659 0.0
H1753 H 0.57056 0.4717 0.20516 0.0
H1754 H 0.60773 0.46719 0.25458 0.0
H1755 H 0.63145 0.49436 0.23616 0.0
H1756 H 0.5685 0.43755 0.20583 0.0
H1757 H 0.56875 0.46357 0.30527 0.0
H1758 H 0.57847 0.47765 0.27723 0.0
H1759 H 0.58951 0.46764 0.29277 0.0
C1760 C 0.59732 0.49212 0.20144 0.0
C1761 C 0.61467 0.49879 0.20996 0.0
C1762 C 0.58384 0.47661 0.21199 0.0
C1763 C 0.58742 0.46759 0.23139 0.0
C1764 C 0.6047 0.47412 0.23985 0.0
H1765 H 0.51777 0.37423 0.32128 0.0
H1766 H 0.54343 0.40003 0.30336 0.0
C1767 C 0.61823 0.48959 0.22923 0.0
C1768 C 0.57303 0.45122 0.24247 0.0
H1769 H 0.54933 0.4335 0.29819 0.0
C1770 C 0.56429 0.43662 0.22602 0.0
C1771 C 0.56771 0.45009 0.26885 0.0
C1772 C 0.57647 0.46557 0.28711 0.0
C1773 C 0.55032 0.42082 0.23529 0.0
C1774 C 0.54471 0.41979 0.26153 0.0
C1775 C 0.55365 0.43434 0.27808 0.0
C1776 C 0.52925 0.40393 0.27198 0.0
C1777 C 0.54187 0.40534 0.21698 0.0
C1778 C 0.51275 0.3977 0.26045 0.0
C1779 C 0.49811 0.38295 0.27054 0.0
C1780 C 0.49963 0.37424 0.29257 0.0
C1781 C 0.51615 0.38061 0.30426 0.0
C1782 C 0.53083 0.39535 0.29406 0.0
H1783 H 0.55083 0.40657 0.20077 0.0
H1784 H 0.53784 0.3929 0.22756 0.0
H1785 H 0.53004 0.40463 0.20814 0.0
H1786 H 0.51116 0.40439 0.24381 0.0
H1787 H 0.48556 0.37848 0.2612 0.0
H1788 H 0.13474 0.62894 0.23153 0.0
H1789 H 0.13784 0.60527 0.25084 0.0
H1790 H 0.11598 0.57432 0.18105 0.0
H1791 H 0.1131 0.598 0.1614 0.0
H1792 H 0.1116 0.57179 0.26136 0.0
H1793 H 0.15957 0.57053 0.19256 0.0
H1794 H 0.15539 0.58856 0.19402 0.0
H1795 H 0.14073 0.56892 0.17649 0.0
C1796 C 0.13074 0.61716 0.22017 0.0
C1797 C 0.12371 0.61537 0.19488 0.0
C1798 C 0.13253 0.60366 0.23125 0.0
C1799 C 0.1274 0.58815 0.21723 0.0
C1800 C 0.12041 0.58634 0.19198 0.0
H1801 H 0.11243 0.48589 0.2488 0.0
H1802 H 0.11433 0.51237 0.23043 0.0
C1803 C 0.11866 0.59985 0.18084 0.0
C1804 C 0.12842 0.57349 0.22957 0.0
H1805 H 0.14484 0.54602 0.22129 0.0
C1806 C 0.11902 0.56626 0.25278 0.0
C1807 C 0.13811 0.56633 0.21829 0.0
C1808 C 0.14917 0.57408 0.19411 0.0
C1809 C 0.11859 0.55169 0.26458 0.0
C1810 C 0.128 0.54433 0.25302 0.0
C1811 C 0.13762 0.5517 0.23004 0.0
C1812 C 0.12751 0.52858 0.26403 0.0
C1813 C 0.10762 0.54394 0.28885 0.0
C1814 C 0.13455 0.52904 0.28885 0.0
C1815 C 0.13349 0.51393 0.29944 0.0
C1816 C 0.1254 0.49811 0.28534 0.0
C1817 C 0.11868 0.49783 0.26024 0.0
C1818 C 0.11978 0.51294 0.24967 0.0
H1819 H 0.09839 0.54888 0.29211 0.0
H1820 H 0.1 0.52944 0.28752 0.0
H1821 H 0.11633 0.54749 0.30617 0.0
H1822 H 0.1408 0.54108 0.30006 0.0
H1823 H 0.13887 0.51461 0.31876 0.0
H1824 H 0.46552 0.84777 0.82559 0.0
H1825 H 0.43899 0.84513 0.80588 0.0
H1826 H 0.46827 0.87172 0.73668 0.0
H1827 H 0.49466 0.87413 0.7559 0.0
H1828 H 0.43375 0.87189 0.79085 0.0
H1829 H 0.42574 0.82995 0.70533 0.0
H1830 H 0.43996 0.8325 0.73245 0.0
H1831 H 0.44725 0.84877 0.707 0.0
C1832 C 0.46626 0.85287 0.80605 0.0
C1833 C 0.4822 0.86112 0.79229 0.0
C1834 C 0.45109 0.85134 0.79483 0.0
C1835 C 0.45159 0.85795 0.76964 0.0
C1836 C 0.46747 0.86611 0.75585 0.0
H1837 H 0.39021 0.88493 0.6718 0.0
H1838 H 0.41212 0.87971 0.69276 0.0
C1839 C 0.48259 0.86759 0.76698 0.0
C1840 C 0.43589 0.85748 0.75838 0.0
H1841 H 0.41026 0.84591 0.70363 0.0
C1842 C 0.42842 0.86597 0.77198 0.0
C1843 C 0.42897 0.84973 0.73375 0.0
C1844 C 0.43579 0.83957 0.71891 0.0
C1845 C 0.41471 0.86759 0.76107 0.0
C1846 C 0.40824 0.8604 0.73606 0.0
C1847 C 0.41535 0.85148 0.72276 0.0
C1848 C 0.39464 0.86274 0.72288 0.0
C1849 C 0.40768 0.87759 0.77588 0.0
C1850 C 0.37751 0.85466 0.73268 0.0
C1851 C 0.36494 0.85758 0.72073 0.0
C1852 C 0.36933 0.86864 0.69879 0.0
C1853 C 0.38643 0.8764 0.68873 0.0
C1854 C 0.39895 0.87341 0.70062 0.0
H1855 H 0.41605 0.8848 0.79289 0.0
H1856 H 0.40664 0.88706 0.76277 0.0
H1857 H 0.39437 0.86829 0.78326 0.0
H1858 H 0.37392 0.84622 0.74969 0.0
H1859 H 0.35187 0.85136 0.72893 0.0
H1860 H 0.61214 0.5065 0.75949 0.0
H1861 H 0.58692 0.48036 0.74163 0.0
H1862 H 0.60031 0.44771 0.78748 0.0
H1863 H 0.62561 0.47381 0.80561 0.0
H1864 H 0.58681 0.45162 0.71369 0.0
H1865 H 0.54827 0.43098 0.80619 0.0
H1866 H 0.5664 0.45287 0.80134 0.0
H1867 H 0.5704 0.4352 0.80805 0.0
C1868 C 0.60974 0.49377 0.76584 0.0
C1869 C 0.62084 0.49223 0.78409 0.0
C1870 C 0.59534 0.47887 0.75556 0.0
C1871 C 0.59169 0.46216 0.76346 0.0
C1872 C 0.60281 0.46052 0.78143 0.0
H1873 H 0.50297 0.35945 0.72639 0.0
H1874 H 0.53059 0.38332 0.74328 0.0
C1875 C 0.61728 0.47544 0.79168 0.0
C1876 C 0.57621 0.4465 0.75275 0.0
H1877 H 0.53596 0.41271 0.76942 0.0
C1878 C 0.57569 0.44306 0.72584 0.0
C1879 C 0.56182 0.43537 0.76874 0.0
C1880 C 0.56158 0.43877 0.79767 0.0
C1881 C 0.56109 0.42873 0.71443 0.0
C1882 C 0.5465 0.41782 0.7303 0.0
C1883 C 0.54717 0.4211 0.75731 0.0
C1884 C 0.53017 0.40328 0.71919 0.0
C1885 C 0.56153 0.42532 0.68555 0.0
C1886 C 0.52073 0.40662 0.70018 0.0
C1887 C 0.50499 0.39302 0.69041 0.0
C1888 C 0.4983 0.37584 0.6997 0.0
C1889 C 0.50777 0.37253 0.7188 0.0
C1890 C 0.52355 0.38615 0.72848 0.0
H1891 H 0.57516 0.43133 0.67812 0.0
H1892 H 0.55469 0.41106 0.68132 0.0
H1893 H 0.55485 0.43116 0.67457 0.0
H1894 H 0.52538 0.41981 0.6932 0.0
H1895 H 0.49797 0.39603 0.67585 0.0
H1896 H 0.14578 0.621 0.80835 0.0
H1897 H 0.14699 0.59605 0.7897 0.0
H1898 H 0.10652 0.58776 0.73459 0.0
H1899 H 0.10537 0.61275 0.75277 0.0
H1900 H 0.12023 0.5616 0.78723 0.0
H1901 H 0.14361 0.58742 0.68746 0.0
H1902 H 0.14481 0.60125 0.7144 0.0
H1903 H 0.12459 0.58853 0.69693 0.0
C1904 C 0.13723 0.61395 0.79212 0.0
C1905 C 0.12552 0.6189 0.78199 0.0
C1906 C 0.13795 0.59971 0.7815 0.0
C1907 C 0.12706 0.59025 0.76048 0.0
C1908 C 0.11534 0.59514 0.75039 0.0
H1909 H 0.0956 0.49466 0.67748 0.0
H1910 H 0.10026 0.52243 0.69519 0.0
C1911 C 0.11462 0.60936 0.76095 0.0
C1912 C 0.12724 0.57471 0.74992 0.0
H1913 H 0.13163 0.5566 0.69333 0.0
C1914 C 0.12295 0.56057 0.76679 0.0
C1915 C 0.1308 0.57344 0.72323 0.0
C1916 C 0.13638 0.58854 0.7045 0.0
C1917 C 0.12144 0.54491 0.75745 0.0
C1918 C 0.12453 0.54349 0.73063 0.0
C1919 C 0.12921 0.55775 0.71387 0.0
C1920 C 0.12228 0.52703 0.7194 0.0
C1921 C 0.11595 0.52979 0.77612 0.0
C1922 C 0.13332 0.52061 0.72687 0.0
C1923 C 0.13072 0.50475 0.71677 0.0
C1924 C 0.11702 0.49507 0.699 0.0
C1925 C 0.10622 0.50175 0.6912 0.0
C1926 C 0.10887 0.51762 0.70125 0.0
H1927 H 0.11083 0.53186 0.79485 0.0
H1928 H 0.10574 0.5174 0.76711 0.0
H1929 H 0.12742 0.52825 0.78062 0.0
H1930 H 0.14389 0.52784 0.74059 0.0
H1931 H 0.13931 0.5 0.72312 0.0
H1932 H 0.60419 0.11481 0.66285 0.0
H1933 H 0.57958 0.11636 0.68188 0.0
H1934 H 0.60823 0.13595 0.75408 0.0
H1935 H 0.63301 0.13464 0.73515 0.0
H1936 H 0.56088 0.09832 0.72648 0.0
H1937 H 0.59046 0.17012 0.73942 0.0
H1938 H 0.59997 0.16059 0.71844 0.0
H1939 H 0.60292 0.16107 0.75331 0.0
C1940 C 0.60536 0.11963 0.68269 0.0
C1941 C 0.62058 0.12461 0.69749 0.0
C1942 C 0.59127 0.1205 0.69352 0.0
C1943 C 0.59217 0.12645 0.71926 0.0
C1944 C 0.60741 0.13164 0.734 0.0
H1945 H 0.51742 0.13231 0.82343 0.0
H1946 H 0.54333 0.13361 0.80365 0.0
C1947 C 0.62152 0.13078 0.72319 0.0
C1948 C 0.57676 0.12623 0.73117 0.0
H1949 H 0.56265 0.15219 0.75899 0.0
C1950 C 0.56122 0.1101 0.73347 0.0
C1951 C 0.57732 0.14162 0.74039 0.0
C1952 C 0.5935 0.15937 0.73761 0.0
C1953 C 0.54625 0.10889 0.74506 0.0
C1954 C 0.54676 0.12429 0.75417 0.0
C1955 C 0.56232 0.14042 0.75198 0.0
C1956 C 0.53122 0.12388 0.76588 0.0
C1957 C 0.53012 0.0911 0.74795 0.0
C1958 C 0.51596 0.11826 0.75103 0.0
C1959 C 0.50114 0.11745 0.76226 0.0
C1960 C 0.50135 0.12238 0.78853 0.0
C1961 C 0.5168 0.12836 0.80319 0.0
C1962 C 0.53162 0.12914 0.79192 0.0
H1963 H 0.53324 0.0804 0.74633 0.0
H1964 H 0.52361 0.08991 0.76708 0.0
H1965 H 0.5207 0.08926 0.73217 0.0
H1966 H 0.5155 0.11448 0.73073 0.0
H1967 H 0.48951 0.11291 0.75034 0.0
H1968 H 0.376 0.52736 0.81928 0.0
H1969 H 0.40082 0.55366 0.80076 0.0
H1970 H 0.39967 0.52432 0.73246 0.0
H1971 H 0.37511 0.49796 0.75091 0.0
H1972 H 0.43259 0.54366 0.75369 0.0
H1973 H 0.40162 0.58459 0.74044 0.0
H1974 H 0.39986 0.57614 0.77299 0.0
H1975 H 0.38907 0.56132 0.74628 0.0
C1976 C 0.38094 0.52654 0.80022 0.0
C1977 C 0.37357 0.51056 0.78657 0.0
C1978 C 0.39505 0.5416 0.78961 0.0
C1979 C 0.40193 0.54097 0.7651 0.0
C1980 C 0.39451 0.52509 0.75136 0.0
H1981 H 0.47564 0.62582 0.66651 0.0
H1982 H 0.44981 0.60107 0.68608 0.0
C1983 C 0.38046 0.51004 0.76195 0.0
C1984 C 0.41739 0.55661 0.7542 0.0
H1985 H 0.43228 0.59848 0.7333 0.0
C1986 C 0.43253 0.55565 0.74921 0.0
C1987 C 0.41719 0.57215 0.74813 0.0
C1988 C 0.40102 0.57364 0.75199 0.0
C1989 C 0.44753 0.56984 0.73845 0.0
C1990 C 0.44748 0.58553 0.73299 0.0
C1991 C 0.43231 0.58647 0.73776 0.0
C1992 C 0.46298 0.60097 0.72176 0.0
C1993 C 0.46317 0.56779 0.73251 0.0
C1994 C 0.47883 0.60929 0.73558 0.0
C1995 C 0.49363 0.62338 0.72444 0.0
C1996 C 0.49279 0.62948 0.69933 0.0
C1997 C 0.47675 0.6214 0.68584 0.0
C1998 C 0.46197 0.60728 0.69699 0.0
H1999 H 0.45959 0.5538 0.73167 0.0
H2000 H 0.46927 0.57408 0.71358 0.0
H2001 H 0.47309 0.57421 0.74818 0.0
H2002 H 0.47978 0.60482 0.75494 0.0
H2003 H 0.50574 0.62939 0.73544 0.0
H2004 H 0.89078 0.38579 0.77577 0.0
H2005 H 0.89099 0.41201 0.75999 0.0
H2006 H 0.8367 0.38972 0.78141 0.0
H2007 H 0.83637 0.36343 0.79757 0.0
H2008 H 0.86976 0.41395 0.7204 0.0
H2009 H 0.86032 0.43847 0.81593 0.0
H2010 H 0.86685 0.42211 0.81364 0.0
H2011 H 0.84446 0.4162 0.80809 0.0
C2012 C 0.87888 0.38646 0.77727 0.0
C2013 C 0.86356 0.37252 0.78801 0.0
C2014 C 0.87904 0.40145 0.76821 0.0
C2015 C 0.86393 0.40287 0.76981 0.0
C2016 C 0.84858 0.389 0.78043 0.0
H2017 H 0.84736 0.48866 0.7219 0.0
H2018 H 0.843 0.46051 0.73756 0.0
C2019 C 0.8484 0.37396 0.78953 0.0
C2020 C 0.86425 0.41874 0.75966 0.0
H2021 H 0.86124 0.45434 0.77813 0.0
C2022 C 0.86786 0.42277 0.73299 0.0
C2023 C 0.86167 0.43014 0.77615 0.0
C2024 C 0.85824 0.42666 0.8051 0.0
C2025 C 0.86909 0.43799 0.72236 0.0
C2026 C 0.86693 0.44961 0.73896 0.0
C2027 C 0.86291 0.44539 0.7655 0.0
C2028 C 0.86949 0.46655 0.72932 0.0
C2029 C 0.8726 0.44148 0.69343 0.0
C2030 C 0.88589 0.47931 0.71984 0.0
C2031 C 0.88843 0.49537 0.71091 0.0
C2032 C 0.87463 0.499 0.7114 0.0
C2033 C 0.85824 0.48624 0.72116 0.0
C2034 C 0.85572 0.47017 0.73014 0.0
H2035 H 0.86914 0.4293 0.68241 0.0
H2036 H 0.86512 0.44741 0.68514 0.0
H2037 H 0.88674 0.45077 0.69038 0.0
H2038 H 0.89677 0.47689 0.71954 0.0
H2039 H 0.90124 0.50494 0.70367 0.0
loop_
_geom_bond_atom_site_label_1
_geom_bond_atom_site_label_2
_geom_bond_distance
_geom_bond_site_symmetry_2
_ccdc_geom_bond_type
C0 O1 1.160 . S
C0 O7 1.185 . S
O1 C0 1.160 . S
O2 Zn3 1.899 . S
O2 C10 1.284 . S
Zn3 O2 1.899 . S
Zn3 O4 2.032 . S
Zn3 O7 2.086 . S
Zn3 O12 1.977 . S
O4 Zn3 2.032 . S
O4 C8 1.278 . S
C5 O6 1.203 . S
C5 O12 1.267 . S
O6 C5 1.203 . S
O7 C0 1.185 . S
O7 Zn3 2.086 . S
C8 O4 1.278 . S
C8 O9 1.211 . S
O9 C8 1.211 . S
C10 O2 1.284 . S
C10 O11 1.273 . S
O11 C10 1.273 . S
O12 Zn3 1.977 . S
O12 C5 1.267 . S
C13 O14 1.160 . S
C13 O20 1.185 . S
O14 C13 1.160 . S
O15 Zn16 1.899 . S
O15 C23 1.284 . S
Zn16 O15 1.899 . S
Zn16 O17 2.032 . S
Zn16 O20 2.086 . S
Zn16 O25 1.977 . S
O17 Zn16 2.032 . S
O17 C21 1.278 . S
C18 O19 1.203 . S
C18 O25 1.267 . S
O19 C18 1.203 . S
O20 C13 1.185 . S
O20 Zn16 2.086 . S
C21 O17 1.278 . S
C21 O22 1.211 . S
O22 C21 1.211 . S
C23 O15 1.284 . S
C23 O24 1.273 . S
O24 C23 1.273 . S
O25 Zn16 1.977 . S
O25 C18 1.267 . S
C26 O27 1.160 . S
C26 O33 1.185 . S
O27 C26 1.160 . S
O28 Zn29 1.899 . S
O28 C36 1.284 . S
Zn29 O28 1.899 . S
Zn29 O30 2.032 . S
Zn29 O33 2.086 . S
Zn29 O38 1.977 . S
O30 Zn29 2.032 . S
O30 C34 1.278 . S
C31 O32 1.203 . S
C31 O38 1.267 . S
O32 C31 1.203 . S
O33 C26 1.185 . S
O33 Zn29 2.086 . S
C34 O30 1.278 . S
C34 O35 1.211 . S
O35 C34 1.211 . S
C36 O28 1.284 . S
C36 O37 1.273 . S
O37 C36 1.273 . S
O38 Zn29 1.977 . S
O38 C31 1.267 . S
C39 O40 1.160 . S
C39 O46 1.185 . S
O40 C39 1.160 . S
O41 Zn42 1.899 . S
O41 C49 1.284 . S
Zn42 O41 1.899 . S
Zn42 O43 2.032 . S
Zn42 O46 2.086 . S
Zn42 O51 1.977 . S
O43 Zn42 2.032 . S
O43 C47 1.278 . S
C44 O45 1.203 . S
C44 O51 1.267 . S
O45 C44 1.203 . S
O46 C39 1.185 . S
O46 Zn42 2.086 . S
C47 O43 1.278 . S
C47 O48 1.211 . S
O48 C47 1.211 . S
C49 O41 1.284 . S
C49 O50 1.273 . S
O50 C49 1.273 . S
O51 Zn42 1.977 . S
O51 C44 1.267 . S
C52 O53 1.160 . S
C52 O59 1.185 . S
O53 C52 1.160 . S
O54 Zn55 1.899 . S
O54 C62 1.284 . S
Zn55 O54 1.899 . S
Zn55 O56 2.032 . S
Zn55 O59 2.086 . S
Zn55 O64 1.977 . S
O56 Zn55 2.032 . S
O56 C60 1.278 . S
C57 O58 1.203 . S
C57 O64 1.267 . S
O58 C57 1.203 . S
O59 C52 1.185 . S
O59 Zn55 2.086 . S
C60 O56 1.278 . S
C60 O61 1.211 . S
O61 C60 1.211 . S
C62 O54 1.284 . S
C62 O63 1.273 . S
O63 C62 1.273 . S
O64 Zn55 1.977 . S
O64 C57 1.267 . S
C65 O66 1.160 . S
C65 O72 1.185 . S
O66 C65 1.160 . S
O67 Zn68 1.899 . S
O67 C75 1.284 . S
Zn68 O67 1.899 . S
Zn68 O69 2.032 . S
Zn68 O72 2.086 . S
Zn68 O77 1.977 . S
O69 Zn68 2.032 . S
O69 C73 1.278 . S
C70 O71 1.203 . S
C70 O77 1.267 . S
O71 C70 1.203 . S
O72 C65 1.185 . S
O72 Zn68 2.086 . S
C73 O69 1.278 . S
C73 O74 1.211 . S
O74 C73 1.211 . S
C75 O67 1.284 . S
C75 O76 1.273 . S
O76 C75 1.273 . S
O77 Zn68 1.977 . S
O77 C70 1.267 . S
C78 O79 1.160 . S
C78 O85 1.185 . S
O79 C78 1.160 . S
O80 Zn81 1.899 . S
O80 C88 1.284 . S
Zn81 O80 1.899 . S
Zn81 O82 2.032 . S
Zn81 O85 2.086 . S
Zn81 O90 1.977 . S
O82 Zn81 2.032 . S
O82 C86 1.278 . S
C83 O84 1.203 . S
C83 O90 1.267 . S
O84 C83 1.203 . S
O85 C78 1.185 . S
O85 Zn81 2.086 . S
C86 O82 1.278 . S
C86 O87 1.211 . S
O87 C86 1.211 . S
C88 O80 1.284 . S
C88 O89 1.273 . S
O89 C88 1.273 . S
O90 Zn81 1.977 . S
O90 C83 1.267 . S
C91 O92 1.160 . S
C91 O98 1.185 . S
O92 C91 1.160 . S
O93 Zn94 1.899 . S
O93 C101 1.284 . S
Zn94 O93 1.899 . S
Zn94 O95 2.032 . S
Zn94 O98 2.086 . S
Zn94 O103 1.977 . S
O95 Zn94 2.032 . S
O95 C99 1.278 . S
C96 O97 1.203 . S
C96 O103 1.267 . S
O97 C96 1.203 . S
O98 C91 1.185 . S
O98 Zn94 2.086 . S
C99 O95 1.278 . S
C99 O100 1.211 . S
O100 C99 1.211 . S
C101 O93 1.284 . S
C101 O102 1.273 . S
O102 C101 1.273 . S
O103 Zn94 1.977 . S
O103 C96 1.267 . S
C104 O105 1.160 . S
C104 O111 1.185 . S
O105 C104 1.160 . S
O106 Zn107 1.899 . S
O106 C114 1.284 . S
Zn107 O106 1.899 . S
Zn107 O108 2.032 . S
Zn107 O111 2.086 . S
Zn107 O116 1.977 . S
O108 Zn107 2.032 . S
O108 C112 1.278 . S
C109 O110 1.203 . S
C109 O116 1.267 . S
O110 C109 1.203 . S
O111 C104 1.185 . S
O111 Zn107 2.086 . S
C112 O108 1.278 . S
C112 O113 1.211 . S
O113 C112 1.211 . S
C114 O106 1.284 . S
C114 O115 1.273 . S
O115 C114 1.273 . S
O116 Zn107 1.977 . S
O116 C109 1.267 . S
C117 O118 1.160 . S
C117 O124 1.185 . S
O118 C117 1.160 . S
O119 Zn120 1.899 . S
O119 C127 1.284 . S
Zn120 O119 1.899 . S
Zn120 O121 2.032 . S
Zn120 O124 2.086 . S
Zn120 O129 1.977 . S
O121 Zn120 2.032 . S
O121 C125 1.278 . S
C122 O123 1.203 . S
C122 O129 1.267 . S
O123 C122 1.203 . S
O124 C117 1.185 . S
O124 Zn120 2.086 . S
C125 O121 1.278 . S
C125 O126 1.211 . S
O126 C125 1.211 . S
C127 O119 1.284 . S
C127 O128 1.273 . S
O128 C127 1.273 . S
O129 Zn120 1.977 . S
O129 C122 1.267 . S
C130 O131 1.160 . S
C130 O137 1.185 . S
O131 C130 1.160 . S
O132 Zn133 1.899 . S
O132 C140 1.284 . S
Zn133 O132 1.899 . S
Zn133 O134 2.032 . S
Zn133 O137 2.086 . S
Zn133 O142 1.977 . S
O134 Zn133 2.032 . S
O134 C138 1.278 . S
C135 O136 1.203 . S
C135 O142 1.267 . S
O136 C135 1.203 . S
O137 C130 1.185 . S
O137 Zn133 2.086 . S
C138 O134 1.278 . S
C138 O139 1.211 . S
O139 C138 1.211 . S
C140 O132 1.284 . S
C140 O141 1.273 . S
O141 C140 1.273 . S
O142 Zn133 1.977 . S
O142 C135 1.267 . S
C143 O144 1.160 . S
C143 O150 1.185 . S
O144 C143 1.160 . S
O145 Zn146 1.899 . S
O145 C153 1.284 . S
Zn146 O145 1.899 . S
Zn146 O147 2.032 . S
Zn146 O150 2.086 . S
Zn146 O155 1.977 . S
O147 Zn146 2.032 . S
O147 C151 1.278 . S
C148 O149 1.203 . S
C148 O155 1.267 . S
O149 C148 1.203 . S
O150 C143 1.185 . S
O150 Zn146 2.086 . S
C151 O147 1.278 . S
C151 O152 1.211 . S
O152 C151 1.211 . S
C153 O145 1.284 . S
C153 O154 1.273 . S
O154 C153 1.273 . S
O155 Zn146 1.977 . S
O155 C148 1.267 . S
C156 O157 1.160 . S
C156 O163 1.185 . S
O157 C156 1.160 . S
O158 Zn159 1.899 . S
O158 C166 1.284 . S
Zn159 O158 1.899 . S
Zn159 O160 2.032 . S
Zn159 O163 2.086 . S
Zn159 O168 1.977 . S
O160 Zn159 2.032 . S
O160 C164 1.278 . S
C161 O162 1.203 . S
C161 O168 1.267 . S
O162 C161 1.203 . S
O163 C156 1.185 . S
O163 Zn159 2.086 . S
C164 O160 1.278 . S
C164 O165 1.211 . S
O165 C164 1.211 . S
C166 O158 1.284 . S
C166 O167 1.273 . S
O167 C166 1.273 . S
O168 Zn159 1.977 . S
O168 C161 1.267 . S
C169 O170 1.160 . S
C169 O176 1.185 . S
O170 C169 1.160 . S
O171 Zn172 1.899 . S
O171 C179 1.284 . S
Zn172 O171 1.899 . S
Zn172 O173 2.032 . S
Zn172 O176 2.086 . S
Zn172 O181 1.977 . S
O173 Zn172 2.032 . S
O173 C177 1.278 . S
C174 O175 1.203 . S
C174 O181 1.267 . S
O175 C174 1.203 . S
O176 C169 1.185 . S
O176 Zn172 2.086 . S
C177 O173 1.278 . S
C177 O178 1.211 . S
O178 C177 1.211 . S
C179 O171 1.284 . S
C179 O180 1.273 . S
O180 C179 1.273 . S
O181 Zn172 1.977 . S
O181 C174 1.267 . S
C182 O183 1.160 . S
C182 O189 1.185 . S
O183 C182 1.160 . S
O184 Zn185 1.899 . S
O184 C192 1.284 . S
Zn185 O184 1.899 . S
Zn185 O186 2.032 . S
Zn185 O189 2.086 . S
Zn185 O194 1.977 . S
O186 Zn185 2.032 . S
O186 C190 1.278 . S
C187 O188 1.203 . S
C187 O194 1.267 . S
O188 C187 1.203 . S
O189 C182 1.185 . S
O189 Zn185 2.086 . S
C190 O186 1.278 . S
C190 O191 1.211 . S
O191 C190 1.211 . S
C192 O184 1.284 . S
C192 O193 1.273 . S
O193 C192 1.273 . S
O194 Zn185 1.977 . S
O194 C187 1.267 . S
C195 O196 1.160 . S
C195 O202 1.185 . S
O196 C195 1.160 . S
O197 Zn198 1.899 . S
O197 C205 1.284 . S
Zn198 O197 1.899 . S
Zn198 O199 2.032 . S
Zn198 O202 2.086 . S
Zn198 O207 1.977 . S
O199 Zn198 2.032 . S
O199 C203 1.278 . S
C200 O201 1.203 . S
C200 O207 1.267 . S
O201 C200 1.203 . S
O202 C195 1.185 . S
O202 Zn198 2.086 . S
C203 O199 1.278 . S
C203 O204 1.211 . S
O204 C203 1.211 . S
C205 O197 1.284 . S
C205 O206 1.273 . S
O206 C205 1.273 . S
O207 Zn198 1.977 . S
O207 C200 1.267 . S
C208 O209 1.160 . S
C208 O215 1.185 . S
O209 C208 1.160 . S
O210 Zn211 1.899 . S
O210 C218 1.284 . S
Zn211 O210 1.899 . S
Zn211 O212 2.032 . S
Zn211 O215 2.086 . S
Zn211 O220 1.977 . S
O212 Zn211 2.032 . S
O212 C216 1.278 . S
C213 O214 1.203 . S
C213 O220 1.267 . S
O214 C213 1.203 . S
O215 C208 1.185 . S
O215 Zn211 2.086 . S
C216 O212 1.278 . S
C216 O217 1.211 . S
O217 C216 1.211 . S
C218 O210 1.284 . S
C218 O219 1.273 . S
O219 C218 1.273 . S
O220 Zn211 1.977 . S
O220 C213 1.267 . S
C221 O222 1.160 . S
C221 O228 1.185 . S
O222 C221 1.160 . S
O223 Zn224 1.899 . S
O223 C231 1.284 . S
Zn224 O223 1.899 . S
Zn224 O225 2.032 . S
Zn224 O228 2.086 . S
Zn224 O233 1.977 . S
O225 Zn224 2.032 . S
O225 C229 1.278 . S
C226 O227 1.203 . S
C226 O233 1.267 . S
O227 C226 1.203 . S
O228 C221 1.185 . S
O228 Zn224 2.086 . S
C229 O225 1.278 . S
C229 O230 1.211 . S
O230 C229 1.211 . S
C231 O223 1.284 . S
C231 O232 1.273 . S
O232 C231 1.273 . S
O233 Zn224 1.977 . S
O233 C226 1.267 . S
C234 O235 1.160 . S
C234 O241 1.185 . S
O235 C234 1.160 . S
O236 Zn237 1.899 . S
O236 C244 1.284 . S
Zn237 O236 1.899 . S
Zn237 O238 2.032 . S
Zn237 O241 2.086 . S
Zn237 O246 1.977 . S
O238 Zn237 2.032 . S
O238 C242 1.278 . S
C239 O240 1.203 . S
C239 O246 1.267 . S
O240 C239 1.203 . S
O241 C234 1.185 . S
O241 Zn237 2.086 . S
C242 O238 1.278 . S
C242 O243 1.211 . S
O243 C242 1.211 . S
C244 O236 1.284 . S
C244 O245 1.273 . S
O245 C244 1.273 . S
O246 Zn237 1.977 . S
O246 C239 1.267 . S
C247 O248 1.160 . S
C247 O254 1.185 . S
O248 C247 1.160 . S
O249 Zn250 1.899 . S
O249 C257 1.284 . S
Zn250 O249 1.899 . S
Zn250 O251 2.032 . S
Zn250 O254 2.086 . S
Zn250 O259 1.977 . S
O251 Zn250 2.032 . S
O251 C255 1.278 . S
C252 O253 1.203 . S
C252 O259 1.267 . S
O253 C252 1.203 . S
O254 C247 1.185 . S
O254 Zn250 2.086 . S
C255 O251 1.278 . S
C255 O256 1.211 . S
O256 C255 1.211 . S
C257 O249 1.284 . S
C257 O258 1.273 . S
O258 C257 1.273 . S
O259 Zn250 1.977 . S
O259 C252 1.267 . S
C260 O261 1.160 . S
C260 O267 1.185 . S
O261 C260 1.160 . S
O262 Zn263 1.899 . S
O262 C270 1.284 . S
Zn263 O262 1.899 . S
Zn263 O264 2.032 . S
Zn263 O267 2.086 . S
Zn263 O272 1.977 . S
O264 Zn263 2.032 . S
O264 C268 1.278 . S
C265 O266 1.203 . S
C265 O272 1.267 . S
O266 C265 1.203 . S
O267 C260 1.185 . S
O267 Zn263 2.086 . S
C268 O264 1.278 . S
C268 O269 1.211 . S
O269 C268 1.211 . S
C270 O262 1.284 . S
C270 O271 1.273 . S
O271 C270 1.273 . S
O272 Zn263 1.977 . S
O272 C265 1.267 . S
C273 O274 1.160 . S
C273 O280 1.185 . S
O274 C273 1.160 . S
O275 Zn276 1.899 . S
O275 C283 1.284 . S
Zn276 O275 1.899 . S
Zn276 O277 2.032 . S
Zn276 O280 2.086 . S
Zn276 O285 1.977 . S
O277 Zn276 2.032 . S
O277 C281 1.278 . S
C278 O279 1.203 . S
C278 O285 1.267 . S
O279 C278 1.203 . S
O280 C273 1.185 . S
O280 Zn276 2.086 . S
C281 O277 1.278 . S
C281 O282 1.211 . S
O282 C281 1.211 . S
C283 O275 1.284 . S
C283 O284 1.273 . S
O284 C283 1.273 . S
O285 Zn276 1.977 . S
O285 C278 1.267 . S
C286 O287 1.160 . S
C286 O293 1.185 . S
O287 C286 1.160 . S
O288 Zn289 1.899 . S
O288 C296 1.284 . S
Zn289 O288 1.899 . S
Zn289 O290 2.032 . S
Zn289 O293 2.086 . S
Zn289 O298 1.977 . S
O290 Zn289 2.032 . S
O290 C294 1.278 . S
C291 O292 1.203 . S
C291 O298 1.267 . S
O292 C291 1.203 . S
O293 C286 1.185 . S
O293 Zn289 2.086 . S
C294 O290 1.278 . S
C294 O295 1.211 . S
O295 C294 1.211 . S
C296 O288 1.284 . S
C296 O297 1.273 . S
O297 C296 1.273 . S
O298 Zn289 1.977 . S
O298 C291 1.267 . S
C299 O300 1.160 . S
C299 O306 1.185 . S
O300 C299 1.160 . S
O301 Zn302 1.899 . S
O301 C309 1.284 . S
Zn302 O301 1.899 . S
Zn302 O303 2.032 . S
Zn302 O306 2.086 . S
Zn302 O311 1.977 . S
O303 Zn302 2.032 . S
O303 C307 1.278 . S
C304 O305 1.203 . S
C304 O311 1.267 . S
O305 C304 1.203 . S
O306 C299 1.185 . S
O306 Zn302 2.086 . S
C307 O303 1.278 . S
C307 O308 1.211 . S
O308 C307 1.211 . S
C309 O301 1.284 . S
C309 O310 1.273 . S
O310 C309 1.273 . S
O311 Zn302 1.977 . S
O311 C304 1.267 . S
H312 C320 0.929 . S
H313 C322 0.930 . S
H314 C324 0.930 . S
H315 C327 0.929 . S
H316 C330 0.930 . S
H317 C332 0.960 . S
H318 C332 0.960 . S
H319 C332 0.960 . S
C320 H312 0.929 . S
C320 C321 1.377 . S
C320 C322 1.384 . S
C321 C320 1.377 . S
C321 C327 1.390 . S
C322 H313 0.930 . S
C322 C320 1.384 . S
C322 C323 1.372 . S
C323 C322 1.372 . S
C323 C324 1.400 . S
C323 C328 1.490 . S
C324 H314 0.930 . S
C324 C323 1.400 . S
C324 C327 1.386 . S
H325 C341 0.930 . S
H326 C342 0.931 . S
C327 H315 0.929 . S
C327 C321 1.390 . S
C327 C324 1.386 . S
C328 C323 1.490 . S
C328 C330 1.395 . S
C328 C331 1.403 . S
H329 C335 0.930 . S
C330 H316 0.930 . S
C330 C328 1.395 . S
C330 C333 1.403 1_545 S
C331 C328 1.403 . S
C331 C332 1.524 . S
C331 C335 1.400 1_545 S
C332 H317 0.960 . S
C332 H318 0.960 . S
C332 H319 0.960 . S
C332 C331 1.524 . S
C333 C330 1.403 1_565 S
C333 C334 1.392 . S
C333 C337 1.495 . S
C334 C333 1.392 . S
C334 C335 1.385 . S
C334 C336 1.478 . S
C335 H329 0.930 . S
C335 C331 1.400 1_565 S
C335 C334 1.385 . S
C336 C334 1.478 . S
C336 C338 1.381 . S
C336 C342 1.383 . S
C337 C333 1.495 . S
C337 H343 0.959 . S
C337 H344 0.961 . S
C337 H345 0.960 . S
C338 C336 1.381 . S
C338 C339 1.394 . S
C338 H346 0.930 . S
C339 C338 1.394 . S
C339 C340 1.383 . S
C339 H347 0.929 . S
C340 C339 1.383 . S
C340 C341 1.377 . S
C341 H325 0.930 . S
C341 C340 1.377 . S
C341 C342 1.379 . S
C342 H326 0.931 . S
C342 C336 1.383 . S
C342 C341 1.379 . S
H343 C337 0.959 . S
H344 C337 0.961 . S
H345 C337 0.960 . S
H346 C338 0.930 . S
H347 C339 0.929 . S
H348 C356 0.929 . S
H349 C358 0.930 . S
H350 C360 0.930 . S
H351 C363 0.929 . S
H352 C366 0.930 . S
H353 C368 0.960 . S
H354 C368 0.960 . S
H355 C368 0.960 . S
C356 H348 0.929 . S
C356 C357 1.377 . S
C356 C358 1.384 . S
C357 C356 1.377 . S
C357 C363 1.390 . S
C358 H349 0.930 . S
C358 C356 1.384 . S
C358 C359 1.372 . S
C359 C358 1.372 . S
C359 C360 1.400 . S
C359 C364 1.490 . S
C360 H350 0.930 . S
C360 C359 1.400 . S
C360 C363 1.386 . S
H361 C377 0.930 . S
H362 C378 0.931 . S
C363 H351 0.929 . S
C363 C357 1.390 . S
C363 C360 1.386 . S
C364 C359 1.490 . S
C364 C366 1.395 . S
C364 C367 1.403 . S
H365 C371 0.930 . S
C366 H352 0.930 . S
C366 C364 1.395 . S
C366 C369 1.403 . S
C367 C364 1.403 . S
C367 C368 1.524 . S
C367 C371 1.400 . S
C368 H353 0.960 . S
C368 H354 0.960 . S
C368 H355 0.960 . S
C368 C367 1.524 . S
C369 C366 1.403 . S
C369 C370 1.392 . S
C369 C373 1.495 . S
C370 C369 1.392 . S
C370 C371 1.385 . S
C370 C372 1.478 . S
C371 H365 0.930 . S
C371 C367 1.400 . S
C371 C370 1.385 . S
C372 C370 1.478 . S
C372 C374 1.381 . S
C372 C378 1.383 . S
C373 C369 1.495 . S
C373 H379 0.959 . S
C373 H380 0.961 . S
C373 H381 0.960 . S
C374 C372 1.381 . S
C374 C375 1.394 . S
C374 H382 0.930 . S
C375 C374 1.394 . S
C375 C376 1.383 . S
C375 H383 0.929 . S
C376 C375 1.383 . S
C376 C377 1.377 . S
C377 H361 0.930 . S
C377 C376 1.377 . S
C377 C378 1.379 . S
C378 H362 0.931 . S
C378 C372 1.383 . S
C378 C377 1.379 . S
H379 C373 0.959 . S
H380 C373 0.961 . S
H381 C373 0.960 . S
H382 C374 0.930 . S
H383 C375 0.929 . S
H384 C392 0.929 . S
H385 C394 0.930 . S
H386 C396 0.930 . S
H387 C399 0.929 . S
H388 C402 0.930 . S
H389 C404 0.960 . S
H390 C404 0.960 . S
H391 C404 0.960 . S
C392 H384 0.929 . S
C392 C393 1.377 . S
C392 C394 1.384 . S
C393 C392 1.377 . S
C393 C399 1.390 . S
C394 H385 0.930 . S
C394 C392 1.384 . S
C394 C395 1.372 . S
C395 C394 1.372 . S
C395 C396 1.400 . S
C395 C400 1.490 . S
C396 H386 0.930 . S
C396 C395 1.400 . S
C396 C399 1.386 . S
H397 C413 0.930 . S
H398 C414 0.931 . S
C399 H387 0.929 . S
C399 C393 1.390 . S
C399 C396 1.386 . S
C400 C395 1.490 . S
C400 C402 1.395 . S
C400 C403 1.403 . S
H401 C407 0.930 . S
C402 H388 0.930 . S
C402 C400 1.395 . S
C402 C405 1.403 1_655 S
C403 C400 1.403 . S
C403 C404 1.524 . S
C403 C407 1.400 1_655 S
C404 H389 0.960 . S
C404 H390 0.960 . S
C404 H391 0.960 . S
C404 C403 1.524 . S
C405 C402 1.403 1_455 S
C405 C406 1.392 . S
C405 C409 1.495 . S
C406 C405 1.392 . S
C406 C407 1.385 . S
C406 C408 1.478 . S
C407 H401 0.930 . S
C407 C403 1.400 1_455 S
C407 C406 1.385 . S
C408 C406 1.478 . S
C408 C410 1.381 . S
C408 C414 1.383 . S
C409 C405 1.495 . S
C409 H415 0.959 . S
C409 H416 0.961 . S
C409 H417 0.960 . S
C410 C408 1.381 . S
C410 C411 1.394 . S
C410 H418 0.930 . S
C411 C410 1.394 . S
C411 C412 1.383 . S
C411 H419 0.929 . S
C412 C411 1.383 . S
C412 C413 1.377 . S
C413 H397 0.930 . S
C413 C412 1.377 . S
C413 C414 1.379 . S
C414 H398 0.931 . S
C414 C408 1.383 . S
C414 C413 1.379 . S
H415 C409 0.959 . S
H416 C409 0.961 . S
H417 C409 0.960 . S
H418 C410 0.930 . S
H419 C411 0.929 . S
H420 C428 0.929 . S
H421 C430 0.930 . S
H422 C432 0.930 . S
H423 C435 0.929 . S
H424 C438 0.930 . S
H425 C440 0.960 . S
H426 C440 0.960 . S
H427 C440 0.960 . S
C428 H420 0.929 . S
C428 C429 1.377 . S
C428 C430 1.384 . S
C429 C428 1.377 . S
C429 C435 1.390 . S
C430 H421 0.930 . S
C430 C428 1.384 . S
C430 C431 1.372 . S
C431 C430 1.372 . S
C431 C432 1.400 . S
C431 C436 1.490 . S
C432 H422 0.930 . S
C432 C431 1.400 . S
C432 C435 1.386 . S
H433 C449 0.930 . S
H434 C450 0.931 . S
C435 H423 0.929 . S
C435 C429 1.390 . S
C435 C432 1.386 . S
C436 C431 1.490 . S
C436 C438 1.395 . S
C436 C439 1.403 . S
H437 C443 0.930 . S
C438 H424 0.930 . S
C438 C436 1.395 . S
C438 C441 1.403 1_565 S
C439 C436 1.403 . S
C439 C440 1.524 . S
C439 C443 1.400 1_565 S
C440 H425 0.960 . S
C440 H426 0.960 . S
C440 H427 0.960 . S
C440 C439 1.524 . S
C441 C438 1.403 1_545 S
C441 C442 1.392 . S
C441 C445 1.495 . S
C442 C441 1.392 . S
C442 C443 1.385 . S
C442 C444 1.478 . S
C443 H437 0.930 . S
C443 C439 1.400 1_545 S
C443 C442 1.385 . S
C444 C442 1.478 . S
C444 C446 1.381 . S
C444 C450 1.383 . S
C445 C441 1.495 . S
C445 H451 0.959 . S
C445 H452 0.961 . S
C445 H453 0.960 . S
C446 C444 1.381 . S
C446 C447 1.394 . S
C446 H454 0.930 . S
C447 C446 1.394 . S
C447 C448 1.383 . S
C447 H455 0.929 . S
C448 C447 1.383 . S
C448 C449 1.377 . S
C449 H433 0.930 . S
C449 C448 1.377 . S
C449 C450 1.379 . S
C450 H434 0.931 . S
C450 C444 1.383 . S
C450 C449 1.379 . S
H451 C445 0.959 . S
H452 C445 0.961 . S
H453 C445 0.960 . S
H454 C446 0.930 . S
H455 C447 0.929 . S
H456 C464 0.929 . S
H457 C466 0.930 . S
H458 C468 0.930 . S
H459 C471 0.929 . S
H460 C474 0.930 . S
H461 C476 0.960 . S
H462 C476 0.960 . S
H463 C476 0.960 . S
C464 H456 0.929 . S
C464 C465 1.377 . S
C464 C466 1.384 . S
C465 C464 1.377 . S
C465 C471 1.390 . S
C466 H457 0.930 . S
C466 C464 1.384 . S
C466 C467 1.372 . S
C467 C466 1.372 . S
C467 C468 1.400 . S
C467 C472 1.490 . S
C468 H458 0.930 . S
C468 C467 1.400 . S
C468 C471 1.386 . S
H469 C485 0.930 . S
H470 C486 0.931 . S
C471 H459 0.929 . S
C471 C465 1.390 . S
C471 C468 1.386 . S
C472 C467 1.490 . S
C472 C474 1.395 . S
C472 C475 1.403 . S
H473 C479 0.930 . S
C474 H460 0.930 . S
C474 C472 1.395 . S
C474 C477 1.403 . S
C475 C472 1.403 . S
C475 C476 1.524 . S
C475 C479 1.400 . S
C476 H461 0.960 . S
C476 H462 0.960 . S
C476 H463 0.960 . S
C476 C475 1.524 . S
C477 C474 1.403 . S
C477 C478 1.392 . S
C477 C481 1.495 . S
C478 C477 1.392 . S
C478 C479 1.385 . S
C478 C480 1.478 . S
C479 H473 0.930 . S
C479 C475 1.400 . S
C479 C478 1.385 . S
C480 C478 1.478 . S
C480 C482 1.381 . S
C480 C486 1.383 . S
C481 C477 1.495 . S
C481 H487 0.959 . S
C481 H488 0.961 . S
C481 H489 0.960 . S
C482 C480 1.381 . S
C482 C483 1.394 . S
C482 H490 0.930 . S
C483 C482 1.394 . S
C483 C484 1.383 . S
C483 H491 0.929 . S
C484 C483 1.383 . S
C484 C485 1.377 . S
C485 H469 0.930 . S
C485 C484 1.377 . S
C485 C486 1.379 . S
C486 H470 0.931 . S
C486 C480 1.383 . S
C486 C485 1.379 . S
H487 C481 0.959 . S
H488 C481 0.961 . S
H489 C481 0.960 . S
H490 C482 0.930 . S
H491 C483 0.929 . S
H492 C500 0.929 . S
H493 C502 0.930 . S
H494 C504 0.930 . S
H495 C507 0.929 . S
H496 C510 0.930 . S
H497 C512 0.960 . S
H498 C512 0.960 . S
H499 C512 0.960 . S
C500 H492 0.929 . S
C500 C501 1.377 . S
C500 C502 1.384 . S
C501 C500 1.377 . S
C501 C507 1.390 . S
C502 H493 0.930 . S
C502 C500 1.384 . S
C502 C503 1.372 . S
C503 C502 1.372 . S
C503 C504 1.400 . S
C503 C508 1.490 . S
C504 H494 0.930 . S
C504 C503 1.400 . S
C504 C507 1.386 . S
H505 C521 0.930 . S
H506 C522 0.931 . S
C507 H495 0.929 . S
C507 C501 1.390 . S
C507 C504 1.386 . S
C508 C503 1.490 . S
C508 C510 1.395 . S
C508 C511 1.403 . S
H509 C515 0.930 . S
C510 H496 0.930 . S
C510 C508 1.395 . S
C510 C513 1.403 1_455 S
C511 C508 1.403 . S
C511 C512 1.524 . S
C511 C515 1.400 1_455 S
C512 H497 0.960 . S
C512 H498 0.960 . S
C512 H499 0.960 . S
C512 C511 1.524 . S
C513 C510 1.403 1_655 S
C513 C514 1.392 . S
C513 C517 1.495 . S
C514 C513 1.392 . S
C514 C515 1.385 . S
C514 C516 1.478 . S
C515 H509 0.930 . S
C515 C511 1.400 1_655 S
C515 C514 1.385 . S
C516 C514 1.478 . S
C516 C518 1.381 . S
C516 C522 1.383 . S
C517 C513 1.495 . S
C517 H523 0.959 . S
C517 H524 0.961 . S
C517 H525 0.960 . S
C518 C516 1.381 . S
C518 C519 1.394 . S
C518 H526 0.930 . S
C519 C518 1.394 . S
C519 C520 1.383 . S
C519 H527 0.929 . S
C520 C519 1.383 . S
C520 C521 1.377 . S
C521 H505 0.930 . S
C521 C520 1.377 . S
C521 C522 1.379 . S
C522 H506 0.931 . S
C522 C516 1.383 . S
C522 C521 1.379 . S
H523 C517 0.959 . S
H524 C517 0.961 . S
H525 C517 0.960 . S
H526 C518 0.930 . S
H527 C519 0.929 . S
H528 C536 0.929 . S
H529 C538 0.930 . S
H530 C540 0.930 . S
H531 C543 0.929 . S
H532 C546 0.930 . S
H533 C548 0.960 . S
H534 C548 0.960 . S
H535 C548 0.960 . S
C536 H528 0.929 . S
C536 C537 1.377 . S
C536 C538 1.384 . S
C537 C536 1.377 . S
C537 C543 1.390 . S
C538 H529 0.930 . S
C538 C536 1.384 . S
C538 C539 1.372 . S
C539 C538 1.372 . S
C539 C540 1.400 . S
C539 C544 1.490 . S
C540 H530 0.930 . S
C540 C539 1.400 . S
C540 C543 1.386 . S
H541 C557 0.930 . S
H542 C558 0.931 . S
C543 H531 0.929 . S
C543 C537 1.390 . S
C543 C540 1.386 . S
C544 C539 1.490 . S
C544 C546 1.395 . S
C544 C547 1.403 . S
H545 C551 0.930 . S
C546 H532 0.930 . S
C546 C544 1.395 . S
C546 C549 1.403 1_565 S
C547 C544 1.403 . S
C547 C548 1.524 . S
C547 C551 1.400 1_565 S
C548 H533 0.960 . S
C548 H534 0.960 . S
C548 H535 0.960 . S
C548 C547 1.524 . S
C549 C546 1.403 1_545 S
C549 C550 1.392 . S
C549 C553 1.495 . S
C550 C549 1.392 . S
C550 C551 1.385 . S
C550 C552 1.478 . S
C551 H545 0.930 . S
C551 C547 1.400 1_545 S
C551 C550 1.385 . S
C552 C550 1.478 . S
C552 C554 1.381 . S
C552 C558 1.383 . S
C553 C549 1.495 . S
C553 H559 0.959 . S
C553 H560 0.961 . S
C553 H561 0.960 . S
C554 C552 1.381 . S
C554 C555 1.394 . S
C554 H562 0.930 . S
C555 C554 1.394 . S
C555 C556 1.383 . S
C555 H563 0.929 . S
C556 C555 1.383 . S
C556 C557 1.377 . S
C557 H541 0.930 . S
C557 C556 1.377 . S
C557 C558 1.379 . S
C558 H542 0.931 . S
C558 C552 1.383 . S
C558 C557 1.379 . S
H559 C553 0.959 . S
H560 C553 0.961 . S
H561 C553 0.960 . S
H562 C554 0.930 . S
H563 C555 0.929 . S
H564 C572 0.929 . S
H565 C574 0.930 . S
H566 C576 0.930 . S
H567 C579 0.929 . S
H568 C582 0.930 . S
H569 C584 0.960 . S
H570 C584 0.960 . S
H571 C584 0.960 . S
C572 H564 0.929 . S
C572 C573 1.377 . S
C572 C574 1.384 . S
C573 C572 1.377 . S
C573 C579 1.390 . S
C574 H565 0.930 . S
C574 C572 1.384 . S
C574 C575 1.372 . S
C575 C574 1.372 . S
C575 C576 1.400 . S
C575 C580 1.490 . S
C576 H566 0.930 . S
C576 C575 1.400 . S
C576 C579 1.386 . S
H577 C593 0.930 . S
H578 C594 0.931 . S
C579 H567 0.929 . S
C579 C573 1.390 . S
C579 C576 1.386 . S
C580 C575 1.490 . S
C580 C582 1.395 . S
C580 C583 1.403 . S
H581 C587 0.930 . S
C582 H568 0.930 . S
C582 C580 1.395 . S
C582 C585 1.403 . S
C583 C580 1.403 . S
C583 C584 1.524 . S
C583 C587 1.400 . S
C584 H569 0.960 . S
C584 H570 0.960 . S
C584 H571 0.960 . S
C584 C583 1.524 . S
C585 C582 1.403 . S
C585 C586 1.392 . S
C585 C589 1.495 . S
C586 C585 1.392 . S
C586 C587 1.385 . S
C586 C588 1.478 . S
C587 H581 0.930 . S
C587 C583 1.400 . S
C587 C586 1.385 . S
C588 C586 1.478 . S
C588 C590 1.381 . S
C588 C594 1.383 . S
C589 C585 1.495 . S
C589 H595 0.959 . S
C589 H596 0.961 . S
C589 H597 0.960 . S
C590 C588 1.381 . S
C590 C591 1.394 . S
C590 H598 0.930 . S
C591 C590 1.394 . S
C591 C592 1.383 . S
C591 H599 0.929 . S
C592 C591 1.383 . S
C592 C593 1.377 . S
C593 H577 0.930 . S
C593 C592 1.377 . S
C593 C594 1.379 . S
C594 H578 0.931 . S
C594 C588 1.383 . S
C594 C593 1.379 . S
H595 C589 0.959 . S
H596 C589 0.961 . S
H597 C589 0.960 . S
H598 C590 0.930 . S
H599 C591 0.929 . S
H600 C608 0.929 . S
H601 C610 0.930 . S
H602 C612 0.930 . S
H603 C615 0.929 . S
H604 C618 0.930 . S
H605 C620 0.960 . S
H606 C620 0.960 . S
H607 C620 0.960 . S
C608 H600 0.929 . S
C608 C609 1.377 . S
C608 C610 1.384 . S
C609 C608 1.377 . S
C609 C615 1.390 . S
C610 H601 0.930 . S
C610 C608 1.384 . S
C610 C611 1.372 . S
C611 C610 1.372 . S
C611 C612 1.400 . S
C611 C616 1.490 . S
C612 H602 0.930 . S
C612 C611 1.400 . S
C612 C615 1.386 . S
H613 C629 0.930 . S
H614 C630 0.931 . S
C615 H603 0.929 . S
C615 C609 1.390 . S
C615 C612 1.386 . S
C616 C611 1.490 . S
C616 C618 1.395 . S
C616 C619 1.403 . S
H617 C623 0.930 . S
C618 H604 0.930 . S
C618 C616 1.395 . S
C618 C621 1.403 1_655 S
C619 C616 1.403 . S
C619 C620 1.524 . S
C619 C623 1.400 1_655 S
C620 H605 0.960 . S
C620 H606 0.960 . S
C620 H607 0.960 . S
C620 C619 1.524 . S
C621 C618 1.403 1_455 S
C621 C622 1.392 . S
C621 C625 1.495 . S
C622 C621 1.392 . S
C622 C623 1.385 . S
C622 C624 1.478 . S
C623 H617 0.930 . S
C623 C619 1.400 1_455 S
C623 C622 1.385 . S
C624 C622 1.478 . S
C624 C626 1.381 . S
C624 C630 1.383 . S
C625 C621 1.495 . S
C625 H631 0.959 . S
C625 H632 0.961 . S
C625 H633 0.960 . S
C626 C624 1.381 . S
C626 C627 1.394 . S
C626 H634 0.930 . S
C627 C626 1.394 . S
C627 C628 1.383 . S
C627 H635 0.929 . S
C628 C627 1.383 . S
C628 C629 1.377 . S
C629 H613 0.930 . S
C629 C628 1.377 . S
C629 C630 1.379 . S
C630 H614 0.931 . S
C630 C624 1.383 . S
C630 C629 1.379 . S
H631 C625 0.959 . S
H632 C625 0.961 . S
H633 C625 0.960 . S
H634 C626 0.930 . S
H635 C627 0.929 . S
H636 C644 0.929 . S
H637 C646 0.930 . S
H638 C648 0.930 . S
H639 C651 0.929 . S
H640 C654 0.930 . S
H641 C656 0.960 . S
H642 C656 0.960 . S
H643 C656 0.960 . S
C644 H636 0.929 . S
C644 C645 1.377 . S
C644 C646 1.384 . S
C645 C644 1.377 . S
C645 C651 1.390 . S
C646 H637 0.930 . S
C646 C644 1.384 . S
C646 C647 1.372 . S
C647 C646 1.372 . S
C647 C648 1.400 . S
C647 C652 1.490 . S
C648 H638 0.930 . S
C648 C647 1.400 . S
C648 C651 1.386 . S
H649 C665 0.930 . S
H650 C666 0.931 . S
C651 H639 0.929 . S
C651 C645 1.390 . S
C651 C648 1.386 . S
C652 C647 1.490 . S
C652 C654 1.395 . S
C652 C655 1.403 . S
H653 C659 0.930 . S
C654 H640 0.930 . S
C654 C652 1.395 . S
C654 C657 1.403 1_545 S
C655 C652 1.403 . S
C655 C656 1.524 . S
C655 C659 1.400 1_545 S
C656 H641 0.960 . S
C656 H642 0.960 . S
C656 H643 0.960 . S
C656 C655 1.524 . S
C657 C654 1.403 1_565 S
C657 C658 1.392 . S
C657 C661 1.495 . S
C658 C657 1.392 . S
C658 C659 1.385 . S
C658 C660 1.478 . S
C659 H653 0.930 . S
C659 C655 1.400 1_565 S
C659 C658 1.385 . S
C660 C658 1.478 . S
C660 C662 1.381 . S
C660 C666 1.383 . S
C661 C657 1.495 . S
C661 H667 0.959 . S
C661 H668 0.961 . S
C661 H669 0.960 . S
C662 C660 1.381 . S
C662 C663 1.394 . S
C662 H670 0.930 . S
C663 C662 1.394 . S
C663 C664 1.383 . S
C663 H671 0.929 . S
C664 C663 1.383 . S
C664 C665 1.377 . S
C665 H649 0.930 . S
C665 C664 1.377 . S
C665 C666 1.379 . S
C666 H650 0.931 . S
C666 C660 1.383 . S
C666 C665 1.379 . S
H667 C661 0.959 . S
H668 C661 0.961 . S
H669 C661 0.960 . S
H670 C662 0.930 . S
H671 C663 0.929 . S
H672 C680 0.929 . S
H673 C682 0.930 . S
H674 C684 0.930 . S
H675 C687 0.929 . S
H676 C690 0.930 . S
H677 C692 0.960 . S
H678 C692 0.960 . S
H679 C692 0.960 . S
C680 H672 0.929 . S
C680 C681 1.377 . S
C680 C682 1.384 . S
C681 C680 1.377 . S
C681 C687 1.390 . S
C682 H673 0.930 . S
C682 C680 1.384 . S
C682 C683 1.372 . S
C683 C682 1.372 . S
C683 C684 1.400 . S
C683 C688 1.490 . S
C684 H674 0.930 . S
C684 C683 1.400 . S
C684 C687 1.386 . S
H685 C701 0.930 . S
H686 C702 0.931 . S
C687 H675 0.929 . S
C687 C681 1.390 . S
C687 C684 1.386 . S
C688 C683 1.490 . S
C688 C690 1.395 . S
C688 C691 1.403 . S
H689 C695 0.930 . S
C690 H676 0.930 . S
C690 C688 1.395 . S
C690 C693 1.403 . S
C691 C688 1.403 . S
C691 C692 1.524 . S
C691 C695 1.400 . S
C692 H677 0.960 . S
C692 H678 0.960 . S
C692 H679 0.960 . S
C692 C691 1.524 . S
C693 C690 1.403 . S
C693 C694 1.392 . S
C693 C697 1.495 . S
C694 C693 1.392 . S
C694 C695 1.385 . S
C694 C696 1.478 . S
C695 H689 0.930 . S
C695 C691 1.400 . S
C695 C694 1.385 . S
C696 C694 1.478 . S
C696 C698 1.381 . S
C696 C702 1.383 . S
C697 C693 1.495 . S
C697 H703 0.959 . S
C697 H704 0.961 . S
C697 H705 0.960 . S
C698 C696 1.381 . S
C698 C699 1.394 . S
C698 H706 0.930 . S
C699 C698 1.394 . S
C699 C700 1.383 . S
C699 H707 0.929 . S
C700 C699 1.383 . S
C700 C701 1.377 . S
C701 H685 0.930 . S
C701 C700 1.377 . S
C701 C702 1.379 . S
C702 H686 0.931 . S
C702 C696 1.383 . S
C702 C701 1.379 . S
H703 C697 0.959 . S
H704 C697 0.961 . S
H705 C697 0.960 . S
H706 C698 0.930 . S
H707 C699 0.929 . S
H708 C716 0.929 . S
H709 C718 0.930 . S
H710 C720 0.930 . S
H711 C723 0.929 . S
H712 C726 0.930 . S
H713 C728 0.960 1_655 S
H714 C728 0.960 . S
H715 C728 0.960 . S
C716 H708 0.929 . S
C716 C717 1.377 . S
C716 C718 1.384 . S
C717 C716 1.377 . S
C717 C723 1.390 . S
C718 H709 0.930 . S
C718 C716 1.384 . S
C718 C719 1.372 . S
C719 C718 1.372 . S
C719 C720 1.400 . S
C719 C724 1.490 . S
C720 H710 0.930 . S
C720 C719 1.400 . S
C720 C723 1.386 . S
H721 C737 0.930 . S
H722 C738 0.931 . S
C723 H711 0.929 . S
C723 C717 1.390 . S
C723 C720 1.386 . S
C724 C719 1.490 . S
C724 C726 1.395 . S
C724 C727 1.403 . S
H725 C731 0.930 . S
C726 H712 0.930 . S
C726 C724 1.395 . S
C726 C729 1.403 1_455 S
C727 C724 1.403 . S
C727 C728 1.524 . S
C727 C731 1.400 1_455 S
C728 H713 0.960 1_455 S
C728 H714 0.960 . S
C728 H715 0.960 . S
C728 C727 1.524 . S
C729 C726 1.403 1_655 S
C729 C730 1.392 . S
C729 C733 1.495 . S
C730 C729 1.392 . S
C730 C731 1.385 . S
C730 C732 1.478 . S
C731 H725 0.930 . S
C731 C727 1.400 1_655 S
C731 C730 1.385 . S
C732 C730 1.478 . S
C732 C734 1.381 . S
C732 C738 1.383 . S
C733 C729 1.495 . S
C733 H739 0.959 1_655 S
C733 H740 0.961 . S
C733 H741 0.960 . S
C734 C732 1.381 . S
C734 C735 1.394 . S
C734 H742 0.930 . S
C735 C734 1.394 . S
C735 C736 1.383 . S
C735 H743 0.929 . S
C736 C735 1.383 . S
C736 C737 1.377 . S
C737 H721 0.930 . S
C737 C736 1.377 . S
C737 C738 1.379 . S
C738 H722 0.931 . S
C738 C732 1.383 . S
C738 C737 1.379 . S
H739 C733 0.959 1_455 S
H740 C733 0.961 . S
H741 C733 0.960 . S
H742 C734 0.930 . S
H743 C735 0.929 . S
H744 C752 0.929 . S
H745 C754 0.930 . S
H746 C756 0.930 . S
H747 C759 0.929 . S
H748 C762 0.930 . S
H749 C764 0.960 . S
H750 C764 0.960 . S
H751 C764 0.960 . S
C752 H744 0.929 . S
C752 C753 1.377 . S
C752 C754 1.384 . S
C753 C752 1.377 . S
C753 C759 1.390 . S
C754 H745 0.930 . S
C754 C752 1.384 . S
C754 C755 1.372 . S
C755 C754 1.372 . S
C755 C756 1.400 . S
C755 C760 1.490 . S
C756 H746 0.930 . S
C756 C755 1.400 . S
C756 C759 1.386 . S
H757 C773 0.930 . S
H758 C774 0.931 . S
C759 H747 0.929 . S
C759 C753 1.390 . S
C759 C756 1.386 . S
C760 C755 1.490 . S
C760 C762 1.395 . S
C760 C763 1.403 . S
H761 C767 0.930 . S
C762 H748 0.930 . S
C762 C760 1.395 . S
C762 C765 1.403 . S
C763 C760 1.403 . S
C763 C764 1.524 . S
C763 C767 1.400 . S
C764 H749 0.960 . S
C764 H750 0.960 . S
C764 H751 0.960 . S
C764 C763 1.524 . S
C765 C762 1.403 . S
C765 C766 1.392 . S
C765 C769 1.495 . S
C766 C765 1.392 . S
C766 C767 1.385 . S
C766 C768 1.478 . S
C767 H761 0.930 . S
C767 C763 1.400 . S
C767 C766 1.385 . S
C768 C766 1.478 . S
C768 C770 1.381 . S
C768 C774 1.383 . S
C769 C765 1.495 . S
C769 H775 0.959 . S
C769 H776 0.961 . S
C769 H777 0.960 . S
C770 C768 1.381 . S
C770 C771 1.394 . S
C770 H778 0.930 . S
C771 C770 1.394 . S
C771 C772 1.383 . S
C771 H779 0.929 . S
C772 C771 1.383 . S
C772 C773 1.377 . S
C773 H757 0.930 . S
C773 C772 1.377 . S
C773 C774 1.379 . S
C774 H758 0.931 . S
C774 C768 1.383 . S
C774 C773 1.379 . S
H775 C769 0.959 . S
H776 C769 0.961 . S
H777 C769 0.960 . S
H778 C770 0.930 . S
H779 C771 0.929 . S
H780 C788 0.929 . S
H781 C790 0.930 . S
H782 C792 0.930 . S
H783 C795 0.929 . S
H784 C798 0.930 . S
H785 C800 0.960 . S
H786 C800 0.960 . S
H787 C800 0.960 . S
C788 H780 0.929 . S
C788 C789 1.377 . S
C788 C790 1.384 . S
C789 C788 1.377 . S
C789 C795 1.390 . S
C790 H781 0.930 . S
C790 C788 1.384 . S
C790 C791 1.372 . S
C791 C790 1.372 . S
C791 C792 1.400 . S
C791 C796 1.490 . S
C792 H782 0.930 . S
C792 C791 1.400 . S
C792 C795 1.386 . S
H793 C809 0.930 . S
H794 C810 0.931 . S
C795 H783 0.929 . S
C795 C789 1.390 . S
C795 C792 1.386 . S
C796 C791 1.490 . S
C796 C798 1.395 . S
C796 C799 1.403 . S
H797 C803 0.930 . S
C798 H784 0.930 . S
C798 C796 1.395 . S
C798 C801 1.403 . S
C799 C796 1.403 . S
C799 C800 1.524 . S
C799 C803 1.400 . S
C800 H785 0.960 . S
C800 H786 0.960 . S
C800 H787 0.960 . S
C800 C799 1.524 . S
C801 C798 1.403 . S
C801 C802 1.392 . S
C801 C805 1.495 . S
C802 C801 1.392 . S
C802 C803 1.385 . S
C802 C804 1.478 . S
C803 H797 0.930 . S
C803 C799 1.400 . S
C803 C802 1.385 . S
C804 C802 1.478 . S
C804 C806 1.381 . S
C804 C810 1.383 . S
C805 C801 1.495 . S
C805 H811 0.959 . S
C805 H812 0.961 . S
C805 H813 0.960 . S
C806 C804 1.381 . S
C806 C807 1.394 . S
C806 H814 0.930 . S
C807 C806 1.394 . S
C807 C808 1.383 . S
C807 H815 0.929 . S
C808 C807 1.383 . S
C808 C809 1.377 . S
C809 H793 0.930 . S
C809 C808 1.377 . S
C809 C810 1.379 . S
C810 H794 0.931 . S
C810 C804 1.383 . S
C810 C809 1.379 . S
H811 C805 0.959 . S
H812 C805 0.961 . S
H813 C805 0.960 . S
H814 C806 0.930 . S
H815 C807 0.929 . S
H816 C824 0.929 . S
H817 C826 0.930 . S
H818 C828 0.930 . S
H819 C831 0.929 . S
H820 C834 0.930 . S
H821 C836 0.960 . S
H822 C836 0.960 . S
H823 C836 0.960 . S
C824 H816 0.929 . S
C824 C825 1.377 . S
C824 C826 1.384 . S
C825 C824 1.377 . S
C825 C831 1.390 . S
C826 H817 0.930 . S
C826 C824 1.384 . S
C826 C827 1.372 . S
C827 C826 1.372 . S
C827 C828 1.400 . S
C827 C832 1.490 . S
C828 H818 0.930 . S
C828 C827 1.400 . S
C828 C831 1.386 . S
H829 C845 0.930 . S
H830 C846 0.931 . S
C831 H819 0.929 . S
C831 C825 1.390 . S
C831 C828 1.386 . S
C832 C827 1.490 . S
C832 C834 1.395 . S
C832 C835 1.403 . S
H833 C839 0.930 . S
C834 H820 0.930 . S
C834 C832 1.395 . S
C834 C837 1.403 . S
C835 C832 1.403 . S
C835 C836 1.524 . S
C835 C839 1.400 . S
C836 H821 0.960 . S
C836 H822 0.960 . S
C836 H823 0.960 . S
C836 C835 1.524 . S
C837 C834 1.403 . S
C837 C838 1.392 . S
C837 C841 1.495 . S
C838 C837 1.392 . S
C838 C839 1.385 . S
C838 C840 1.478 . S
C839 H833 0.930 . S
C839 C835 1.400 . S
C839 C838 1.385 . S
C840 C838 1.478 . S
C840 C842 1.381 . S
C840 C846 1.383 . S
C841 C837 1.495 . S
C841 H847 0.959 . S
C841 H848 0.961 . S
C841 H849 0.960 . S
C842 C840 1.381 . S
C842 C843 1.394 . S
C842 H850 0.930 . S
C843 C842 1.394 . S
C843 C844 1.383 . S
C843 H851 0.929 . S
C844 C843 1.383 . S
C844 C845 1.377 . S
C845 H829 0.930 . S
C845 C844 1.377 . S
C845 C846 1.379 . S
C846 H830 0.931 . S
C846 C840 1.383 . S
C846 C845 1.379 . S
H847 C841 0.959 . S
H848 C841 0.961 . S
H849 C841 0.960 . S
H850 C842 0.930 . S
H851 C843 0.929 . S
H852 C860 0.929 . S
H853 C862 0.930 . S
H854 C864 0.930 . S
H855 C867 0.929 . S
H856 C870 0.930 . S
H857 C872 0.960 . S
H858 C872 0.960 . S
H859 C872 0.960 . S
C860 H852 0.929 . S
C860 C861 1.377 . S
C860 C862 1.384 . S
C861 C860 1.377 . S
C861 C867 1.390 . S
C862 H853 0.930 . S
C862 C860 1.384 . S
C862 C863 1.372 . S
C863 C862 1.372 . S
C863 C864 1.400 . S
C863 C868 1.490 . S
C864 H854 0.930 . S
C864 C863 1.400 . S
C864 C867 1.386 . S
H865 C881 0.930 . S
H866 C882 0.931 . S
C867 H855 0.929 . S
C867 C861 1.390 . S
C867 C864 1.386 . S
C868 C863 1.490 . S
C868 C870 1.395 . S
C868 C871 1.403 . S
H869 C875 0.930 . S
C870 H856 0.930 . S
C870 C868 1.395 . S
C870 C873 1.403 . S
C871 C868 1.403 . S
C871 C872 1.524 . S
C871 C875 1.400 . S
C872 H857 0.960 . S
C872 H858 0.960 . S
C872 H859 0.960 . S
C872 C871 1.524 . S
C873 C870 1.403 . S
C873 C874 1.392 . S
C873 C877 1.495 . S
C874 C873 1.392 . S
C874 C875 1.385 . S
C874 C876 1.478 . S
C875 H869 0.930 . S
C875 C871 1.400 . S
C875 C874 1.385 . S
C876 C874 1.478 . S
C876 C878 1.381 . S
C876 C882 1.383 . S
C877 C873 1.495 . S
C877 H883 0.959 . S
C877 H884 0.961 . S
C877 H885 0.960 . S
C878 C876 1.381 . S
C878 C879 1.394 . S
C878 H886 0.930 . S
C879 C878 1.394 . S
C879 C880 1.383 . S
C879 H887 0.929 . S
C880 C879 1.383 . S
C880 C881 1.377 . S
C881 H865 0.930 . S
C881 C880 1.377 . S
C881 C882 1.379 . S
C882 H866 0.931 . S
C882 C876 1.383 . S
C882 C881 1.379 . S
H883 C877 0.959 . S
H884 C877 0.961 . S
H885 C877 0.960 . S
H886 C878 0.930 . S
H887 C879 0.929 . S
H888 C896 0.929 . S
H889 C898 0.930 . S
H890 C900 0.930 . S
H891 C903 0.929 . S
H892 C906 0.930 . S
H893 C908 0.960 . S
H894 C908 0.960 . S
H895 C908 0.960 . S
C896 H888 0.929 . S
C896 C897 1.377 . S
C896 C898 1.384 . S
C897 C896 1.377 . S
C897 C903 1.390 . S
C898 H889 0.930 . S
C898 C896 1.384 . S
C898 C899 1.372 . S
C899 C898 1.372 . S
C899 C900 1.400 . S
C899 C904 1.490 . S
C900 H890 0.930 . S
C900 C899 1.400 . S
C900 C903 1.386 . S
H901 C917 0.930 . S
H902 C918 0.931 . S
C903 H891 0.929 . S
C903 C897 1.390 . S
C903 C900 1.386 . S
C904 C899 1.490 . S
C904 C906 1.395 . S
C904 C907 1.403 . S
H905 C911 0.930 . S
C906 H892 0.930 . S
C906 C904 1.395 . S
C906 C909 1.403 . S
C907 C904 1.403 . S
C907 C908 1.524 . S
C907 C911 1.400 . S
C908 H893 0.960 . S
C908 H894 0.960 . S
C908 H895 0.960 . S
C908 C907 1.524 . S
C909 C906 1.403 . S
C909 C910 1.392 . S
C909 C913 1.495 . S
C910 C909 1.392 . S
C910 C911 1.385 . S
C910 C912 1.478 . S
C911 H905 0.930 . S
C911 C907 1.400 . S
C911 C910 1.385 . S
C912 C910 1.478 . S
C912 C914 1.381 . S
C912 C918 1.383 . S
C913 C909 1.495 . S
C913 H919 0.959 . S
C913 H920 0.961 . S
C913 H921 0.960 . S
C914 C912 1.381 . S
C914 C915 1.394 . S
C914 H922 0.930 . S
C915 C914 1.394 . S
C915 C916 1.383 . S
C915 H923 0.929 . S
C916 C915 1.383 . S
C916 C917 1.377 . S
C917 H901 0.930 . S
C917 C916 1.377 . S
C917 C918 1.379 . S
C918 H902 0.931 . S
C918 C912 1.383 . S
C918 C917 1.379 . S
H919 C913 0.959 . S
H920 C913 0.961 . S
H921 C913 0.960 . S
H922 C914 0.930 . S
H923 C915 0.929 . S
H924 C932 0.929 . S
H925 C934 0.930 . S
H926 C936 0.930 . S
H927 C939 0.929 . S
H928 C942 0.930 . S
H929 C944 0.960 . S
H930 C944 0.960 . S
H931 C944 0.960 . S
C932 H924 0.929 . S
C932 C933 1.377 . S
C932 C934 1.384 . S
C933 C932 1.377 . S
C933 C939 1.390 . S
C934 H925 0.930 . S
C934 C932 1.384 . S
C934 C935 1.372 . S
C935 C934 1.372 . S
C935 C936 1.400 . S
C935 C940 1.490 . S
C936 H926 0.930 . S
C936 C935 1.400 . S
C936 C939 1.386 . S
H937 C953 0.930 . S
H938 C954 0.931 . S
C939 H927 0.929 . S
C939 C933 1.390 . S
C939 C936 1.386 . S
C940 C935 1.490 . S
C940 C942 1.395 . S
C940 C943 1.403 . S
H941 C947 0.930 . S
C942 H928 0.930 . S
C942 C940 1.395 . S
C942 C945 1.403 . S
C943 C940 1.403 . S
C943 C944 1.524 . S
C943 C947 1.400 . S
C944 H929 0.960 . S
C944 H930 0.960 . S
C944 H931 0.960 . S
C944 C943 1.524 . S
C945 C942 1.403 . S
C945 C946 1.392 . S
C945 C949 1.495 . S
C946 C945 1.392 . S
C946 C947 1.385 . S
C946 C948 1.478 . S
C947 H941 0.930 . S
C947 C943 1.400 . S
C947 C946 1.385 . S
C948 C946 1.478 . S
C948 C950 1.381 . S
C948 C954 1.383 . S
C949 C945 1.495 . S
C949 H955 0.959 . S
C949 H956 0.961 . S
C949 H957 0.960 . S
C950 C948 1.381 . S
C950 C951 1.394 . S
C950 H958 0.930 . S
C951 C950 1.394 . S
C951 C952 1.383 . S
C951 H959 0.929 . S
C952 C951 1.383 . S
C952 C953 1.377 . S
C953 H937 0.930 . S
C953 C952 1.377 . S
C953 C954 1.379 . S
C954 H938 0.931 . S
C954 C948 1.383 . S
C954 C953 1.379 . S
H955 C949 0.959 . S
H956 C949 0.961 . S
H957 C949 0.960 . S
H958 C950 0.930 . S
H959 C951 0.929 . S
H960 C968 0.929 . S
H961 C970 0.930 . S
H962 C972 0.930 . S
H963 C975 0.929 . S
H964 C978 0.930 . S
H965 C980 0.960 . S
H966 C980 0.960 . S
H967 C980 0.960 . S
C968 H960 0.929 . S
C968 C969 1.377 . S
C968 C970 1.384 . S
C969 C968 1.377 . S
C969 C975 1.390 . S
C970 H961 0.930 . S
C970 C968 1.384 . S
C970 C971 1.372 . S
C971 C970 1.372 . S
C971 C972 1.400 . S
C971 C976 1.490 . S
C972 H962 0.930 . S
C972 C971 1.400 . S
C972 C975 1.386 . S
H973 C989 0.930 . S
H974 C990 0.931 . S
C975 H963 0.929 . S
C975 C969 1.390 . S
C975 C972 1.386 . S
C976 C971 1.490 . S
C976 C978 1.395 . S
C976 C979 1.403 . S
H977 C983 0.930 . S
C978 H964 0.930 . S
C978 C976 1.395 . S
C978 C981 1.403 . S
C979 C976 1.403 . S
C979 C980 1.524 . S
C979 C983 1.400 . S
C980 H965 0.960 . S
C980 H966 0.960 . S
C980 H967 0.960 . S
C980 C979 1.524 . S
C981 C978 1.403 . S
C981 C982 1.392 . S
C981 C985 1.495 . S
C982 C981 1.392 . S
C982 C983 1.385 . S
C982 C984 1.478 . S
C983 H977 0.930 . S
C983 C979 1.400 . S
C983 C982 1.385 . S
C984 C982 1.478 . S
C984 C986 1.381 . S
C984 C990 1.383 . S
C985 C981 1.495 . S
C985 H991 0.959 . S
C985 H992 0.961 . S
C985 H993 0.960 . S
C986 C984 1.381 . S
C986 C987 1.394 . S
C986 H994 0.930 . S
C987 C986 1.394 . S
C987 C988 1.383 . S
C987 H995 0.929 . S
C988 C987 1.383 . S
C988 C989 1.377 . S
C989 H973 0.930 . S
C989 C988 1.377 . S
C989 C990 1.379 . S
C990 H974 0.931 . S
C990 C984 1.383 . S
C990 C989 1.379 . S
H991 C985 0.959 . S
H992 C985 0.961 . S
H993 C985 0.960 . S
H994 C986 0.930 . S
H995 C987 0.929 . S
H996 C1004 0.929 . S
H997 C1006 0.930 . S
H998 C1008 0.930 . S
H999 C1011 0.929 . S
H1000 C1014 0.930 . S
H1001 C1016 0.960 . S
H1002 C1016 0.960 . S
H1003 C1016 0.960 . S
C1004 H996 0.929 . S
C1004 C1005 1.377 . S
C1004 C1006 1.384 . S
C1005 C1004 1.377 . S
C1005 C1011 1.390 . S
C1006 H997 0.930 . S
C1006 C1004 1.384 . S
C1006 C1007 1.372 . S
C1007 C1006 1.372 . S
C1007 C1008 1.400 . S
C1007 C1012 1.490 . S
C1008 H998 0.930 . S
C1008 C1007 1.400 . S
C1008 C1011 1.386 . S
H1009 C1025 0.930 . S
H1010 C1026 0.931 . S
C1011 H999 0.929 . S
C1011 C1005 1.390 . S
C1011 C1008 1.386 . S
C1012 C1007 1.490 . S
C1012 C1014 1.395 . S
C1012 C1015 1.403 . S
H1013 C1019 0.930 . S
C1014 H1000 0.930 . S
C1014 C1012 1.395 . S
C1014 C1017 1.403 . S
C1015 C1012 1.403 . S
C1015 C1016 1.524 . S
C1015 C1019 1.400 . S
C1016 H1001 0.960 . S
C1016 H1002 0.960 . S
C1016 H1003 0.960 . S
C1016 C1015 1.524 . S
C1017 C1014 1.403 . S
C1017 C1018 1.392 . S
C1017 C1021 1.495 . S
C1018 C1017 1.392 . S
C1018 C1019 1.385 . S
C1018 C1020 1.478 . S
C1019 H1013 0.930 . S
C1019 C1015 1.400 . S
C1019 C1018 1.385 . S
C1020 C1018 1.478 . S
C1020 C1022 1.381 . S
C1020 C1026 1.383 . S
C1021 C1017 1.495 . S
C1021 H1027 0.959 . S
C1021 H1028 0.961 . S
C1021 H1029 0.960 . S
C1022 C1020 1.381 . S
C1022 C1023 1.394 . S
C1022 H1030 0.930 . S
C1023 C1022 1.394 . S
C1023 C1024 1.383 . S
C1023 H1031 0.929 . S
C1024 C1023 1.383 . S
C1024 C1025 1.377 . S
C1025 H1009 0.930 . S
C1025 C1024 1.377 . S
C1025 C1026 1.379 . S
C1026 H1010 0.931 . S
C1026 C1020 1.383 . S
C1026 C1025 1.379 . S
H1027 C1021 0.959 . S
H1028 C1021 0.961 . S
H1029 C1021 0.960 . S
H1030 C1022 0.930 . S
H1031 C1023 0.929 . S
H1032 C1040 0.929 . S
H1033 C1042 0.930 . S
H1034 C1044 0.930 . S
H1035 C1047 0.929 . S
H1036 C1050 0.930 . S
H1037 C1052 0.960 . S
H1038 C1052 0.960 . S
H1039 C1052 0.960 . S
C1040 H1032 0.929 . S
C1040 C1041 1.377 . S
C1040 C1042 1.384 . S
C1041 C1040 1.377 . S
C1041 C1047 1.390 . S
C1042 H1033 0.930 . S
C1042 C1040 1.384 . S
C1042 C1043 1.372 . S
C1043 C1042 1.372 . S
C1043 C1044 1.400 . S
C1043 C1048 1.490 . S
C1044 H1034 0.930 . S
C1044 C1043 1.400 . S
C1044 C1047 1.386 . S
H1045 C1061 0.930 . S
H1046 C1062 0.931 . S
C1047 H1035 0.929 . S
C1047 C1041 1.390 . S
C1047 C1044 1.386 . S
C1048 C1043 1.490 . S
C1048 C1050 1.395 . S
C1048 C1051 1.403 . S
H1049 C1055 0.930 . S
C1050 H1036 0.930 . S
C1050 C1048 1.395 . S
C1050 C1053 1.403 . S
C1051 C1048 1.403 . S
C1051 C1052 1.524 . S
C1051 C1055 1.400 . S
C1052 H1037 0.960 . S
C1052 H1038 0.960 . S
C1052 H1039 0.960 . S
C1052 C1051 1.524 . S
C1053 C1050 1.403 . S
C1053 C1054 1.392 . S
C1053 C1057 1.495 . S
C1054 C1053 1.392 . S
C1054 C1055 1.385 . S
C1054 C1056 1.478 . S
C1055 H1049 0.930 . S
C1055 C1051 1.400 . S
C1055 C1054 1.385 . S
C1056 C1054 1.478 . S
C1056 C1058 1.381 . S
C1056 C1062 1.383 . S
C1057 C1053 1.495 . S
C1057 H1063 0.959 . S
C1057 H1064 0.961 . S
C1057 H1065 0.960 . S
C1058 C1056 1.381 . S
C1058 C1059 1.394 . S
C1058 H1066 0.930 . S
C1059 C1058 1.394 . S
C1059 C1060 1.383 . S
C1059 H1067 0.929 . S
C1060 C1059 1.383 . S
C1060 C1061 1.377 . S
C1061 H1045 0.930 . S
C1061 C1060 1.377 . S
C1061 C1062 1.379 . S
C1062 H1046 0.931 . S
C1062 C1056 1.383 . S
C1062 C1061 1.379 . S
H1063 C1057 0.959 . S
H1064 C1057 0.961 . S
H1065 C1057 0.960 . S
H1066 C1058 0.930 . S
H1067 C1059 0.929 . S
H1068 C1076 0.929 . S
H1069 C1078 0.930 . S
H1070 C1080 0.930 . S
H1071 C1083 0.929 . S
H1072 C1086 0.930 . S
H1073 C1088 0.960 . S
H1074 C1088 0.960 . S
H1075 C1088 0.960 . S
C1076 H1068 0.929 . S
C1076 C1077 1.377 . S
C1076 C1078 1.384 . S
C1077 C1076 1.377 . S
C1077 C1083 1.390 . S
C1078 H1069 0.930 . S
C1078 C1076 1.384 . S
C1078 C1079 1.372 . S
C1079 C1078 1.372 . S
C1079 C1080 1.400 . S
C1079 C1084 1.490 . S
C1080 H1070 0.930 . S
C1080 C1079 1.400 . S
C1080 C1083 1.386 . S
H1081 C1097 0.930 . S
H1082 C1098 0.931 . S
C1083 H1071 0.929 . S
C1083 C1077 1.390 . S
C1083 C1080 1.386 . S
C1084 C1079 1.490 . S
C1084 C1086 1.395 . S
C1084 C1087 1.403 . S
H1085 C1091 0.930 . S
C1086 H1072 0.930 . S
C1086 C1084 1.395 . S
C1086 C1089 1.403 . S
C1087 C1084 1.403 . S
C1087 C1088 1.524 . S
C1087 C1091 1.400 . S
C1088 H1073 0.960 . S
C1088 H1074 0.960 . S
C1088 H1075 0.960 . S
C1088 C1087 1.524 . S
C1089 C1086 1.403 . S
C1089 C1090 1.392 . S
C1089 C1093 1.495 . S
C1090 C1089 1.392 . S
C1090 C1091 1.385 . S
C1090 C1092 1.478 . S
C1091 H1085 0.930 . S
C1091 C1087 1.400 . S
C1091 C1090 1.385 . S
C1092 C1090 1.478 . S
C1092 C1094 1.381 . S
C1092 C1098 1.383 . S
C1093 C1089 1.495 . S
C1093 H1099 0.959 . S
C1093 H1100 0.961 . S
C1093 H1101 0.960 . S
C1094 C1092 1.381 . S
C1094 C1095 1.394 . S
C1094 H1102 0.930 . S
C1095 C1094 1.394 . S
C1095 C1096 1.383 . S
C1095 H1103 0.929 . S
C1096 C1095 1.383 . S
C1096 C1097 1.377 . S
C1097 H1081 0.930 . S
C1097 C1096 1.377 . S
C1097 C1098 1.379 . S
C1098 H1082 0.931 . S
C1098 C1092 1.383 . S
C1098 C1097 1.379 . S
H1099 C1093 0.959 . S
H1100 C1093 0.961 . S
H1101 C1093 0.960 . S
H1102 C1094 0.930 . S
H1103 C1095 0.929 . S
H1104 C1112 0.929 . S
H1105 C1114 0.930 . S
H1106 C1116 0.930 . S
H1107 C1119 0.929 . S
H1108 C1122 0.930 . S
H1109 C1124 0.960 . S
H1110 C1124 0.960 . S
H1111 C1124 0.960 . S
C1112 H1104 0.929 . S
C1112 C1113 1.377 . S
C1112 C1114 1.384 . S
C1113 C1112 1.377 . S
C1113 C1119 1.390 . S
C1114 H1105 0.930 . S
C1114 C1112 1.384 . S
C1114 C1115 1.372 . S
C1115 C1114 1.372 . S
C1115 C1116 1.400 . S
C1115 C1120 1.490 . S
C1116 H1106 0.930 . S
C1116 C1115 1.400 . S
C1116 C1119 1.386 . S
H1117 C1133 0.930 . S
H1118 C1134 0.931 . S
C1119 H1107 0.929 . S
C1119 C1113 1.390 . S
C1119 C1116 1.386 . S
C1120 C1115 1.490 . S
C1120 C1122 1.395 . S
C1120 C1123 1.403 . S
H1121 C1127 0.930 . S
C1122 H1108 0.930 . S
C1122 C1120 1.395 . S
C1122 C1125 1.403 . S
C1123 C1120 1.403 . S
C1123 C1124 1.524 . S
C1123 C1127 1.400 . S
C1124 H1109 0.960 . S
C1124 H1110 0.960 . S
C1124 H1111 0.960 . S
C1124 C1123 1.524 . S
C1125 C1122 1.403 . S
C1125 C1126 1.392 . S
C1125 C1129 1.495 . S
C1126 C1125 1.392 . S
C1126 C1127 1.385 . S
C1126 C1128 1.478 . S
C1127 H1121 0.930 . S
C1127 C1123 1.400 . S
C1127 C1126 1.385 . S
C1128 C1126 1.478 . S
C1128 C1130 1.381 . S
C1128 C1134 1.383 . S
C1129 C1125 1.495 . S
C1129 H1135 0.959 . S
C1129 H1136 0.961 . S
C1129 H1137 0.960 . S
C1130 C1128 1.381 . S
C1130 C1131 1.394 . S
C1130 H1138 0.930 . S
C1131 C1130 1.394 . S
C1131 C1132 1.383 . S
C1131 H1139 0.929 . S
C1132 C1131 1.383 . S
C1132 C1133 1.377 . S
C1133 H1117 0.930 . S
C1133 C1132 1.377 . S
C1133 C1134 1.379 . S
C1134 H1118 0.931 . S
C1134 C1128 1.383 . S
C1134 C1133 1.379 . S
H1135 C1129 0.959 . S
H1136 C1129 0.961 . S
H1137 C1129 0.960 . S
H1138 C1130 0.930 . S
H1139 C1131 0.929 . S
H1140 C1148 0.929 . S
H1141 C1150 0.930 . S
H1142 C1152 0.930 . S
H1143 C1155 0.929 . S
H1144 C1158 0.930 . S
H1145 C1160 0.960 . S
H1146 C1160 0.960 . S
H1147 C1160 0.960 . S
C1148 H1140 0.929 . S
C1148 C1149 1.377 . S
C1148 C1150 1.384 . S
C1149 C1148 1.377 . S
C1149 C1155 1.390 . S
C1150 H1141 0.930 . S
C1150 C1148 1.384 . S
C1150 C1151 1.372 . S
C1151 C1150 1.372 . S
C1151 C1152 1.400 . S
C1151 C1156 1.490 . S
C1152 H1142 0.930 . S
C1152 C1151 1.400 . S
C1152 C1155 1.386 . S
H1153 C1169 0.930 . S
H1154 C1170 0.931 . S
C1155 H1143 0.929 . S
C1155 C1149 1.390 . S
C1155 C1152 1.386 . S
C1156 C1151 1.490 . S
C1156 C1158 1.395 . S
C1156 C1159 1.403 . S
H1157 C1163 0.930 . S
C1158 H1144 0.930 . S
C1158 C1156 1.395 . S
C1158 C1161 1.403 . S
C1159 C1156 1.403 . S
C1159 C1160 1.524 . S
C1159 C1163 1.400 . S
C1160 H1145 0.960 . S
C1160 H1146 0.960 . S
C1160 H1147 0.960 . S
C1160 C1159 1.524 . S
C1161 C1158 1.403 . S
C1161 C1162 1.392 . S
C1161 C1165 1.495 . S
C1162 C1161 1.392 . S
C1162 C1163 1.385 . S
C1162 C1164 1.478 . S
C1163 H1157 0.930 . S
C1163 C1159 1.400 . S
C1163 C1162 1.385 . S
C1164 C1162 1.478 . S
C1164 C1166 1.381 . S
C1164 C1170 1.383 . S
C1165 C1161 1.495 . S
C1165 H1171 0.959 . S
C1165 H1172 0.961 . S
C1165 H1173 0.960 . S
C1166 C1164 1.381 . S
C1166 C1167 1.394 . S
C1166 H1174 0.930 . S
C1167 C1166 1.394 . S
C1167 C1168 1.383 . S
C1167 H1175 0.929 . S
C1168 C1167 1.383 . S
C1168 C1169 1.377 . S
C1169 H1153 0.930 . S
C1169 C1168 1.377 . S
C1169 C1170 1.379 . S
C1170 H1154 0.931 . S
C1170 C1164 1.383 . S
C1170 C1169 1.379 . S
H1171 C1165 0.959 . S
H1172 C1165 0.961 . S
H1173 C1165 0.960 . S
H1174 C1166 0.930 . S
H1175 C1167 0.929 . S
H1176 C1184 0.929 . S
H1177 C1186 0.930 . S
H1178 C1188 0.930 . S
H1179 C1191 0.929 . S
H1180 C1194 0.930 . S
H1181 C1196 0.960 . S
H1182 C1196 0.960 . S
H1183 C1196 0.960 . S
C1184 H1176 0.929 . S
C1184 C1185 1.377 . S
C1184 C1186 1.384 . S
C1185 C1184 1.377 . S
C1185 C1191 1.390 . S
C1186 H1177 0.930 . S
C1186 C1184 1.384 . S
C1186 C1187 1.372 . S
C1187 C1186 1.372 . S
C1187 C1188 1.400 . S
C1187 C1192 1.490 . S
C1188 H1178 0.930 . S
C1188 C1187 1.400 . S
C1188 C1191 1.386 . S
H1189 C1205 0.930 . S
H1190 C1206 0.931 . S
C1191 H1179 0.929 . S
C1191 C1185 1.390 . S
C1191 C1188 1.386 . S
C1192 C1187 1.490 . S
C1192 C1194 1.395 . S
C1192 C1195 1.403 . S
H1193 C1199 0.930 . S
C1194 H1180 0.930 . S
C1194 C1192 1.395 . S
C1194 C1197 1.403 1_554 S
C1195 C1192 1.403 . S
C1195 C1196 1.524 . S
C1195 C1199 1.400 1_554 S
C1196 H1181 0.960 . S
C1196 H1182 0.960 . S
C1196 H1183 0.960 . S
C1196 C1195 1.524 . S
C1197 C1194 1.403 1_556 S
C1197 C1198 1.392 . S
C1197 C1201 1.495 . S
C1198 C1197 1.392 . S
C1198 C1199 1.385 . S
C1198 C1200 1.478 . S
C1199 H1193 0.930 . S
C1199 C1195 1.400 1_556 S
C1199 C1198 1.385 . S
C1200 C1198 1.478 . S
C1200 C1202 1.381 . S
C1200 C1206 1.383 . S
C1201 C1197 1.495 . S
C1201 H1207 0.959 . S
C1201 H1208 0.961 . S
C1201 H1209 0.960 . S
C1202 C1200 1.381 . S
C1202 C1203 1.394 . S
C1202 H1210 0.930 . S
C1203 C1202 1.394 . S
C1203 C1204 1.383 . S
C1203 H1211 0.929 . S
C1204 C1203 1.383 . S
C1204 C1205 1.377 . S
C1205 H1189 0.930 . S
C1205 C1204 1.377 . S
C1205 C1206 1.379 . S
C1206 H1190 0.931 . S
C1206 C1200 1.383 . S
C1206 C1205 1.379 . S
H1207 C1201 0.959 . S
H1208 C1201 0.961 . S
H1209 C1201 0.960 . S
H1210 C1202 0.930 . S
H1211 C1203 0.929 . S
H1212 C1220 0.929 . S
H1213 C1222 0.930 . S
H1214 C1224 0.930 . S
H1215 C1227 0.929 . S
H1216 C1230 0.930 . S
H1217 C1232 0.960 . S
H1218 C1232 0.960 . S
H1219 C1232 0.960 . S
C1220 H1212 0.929 . S
C1220 C1221 1.377 . S
C1220 C1222 1.384 . S
C1221 C1220 1.377 . S
C1221 C1227 1.390 . S
C1222 H1213 0.930 . S
C1222 C1220 1.384 . S
C1222 C1223 1.372 . S
C1223 C1222 1.372 . S
C1223 C1224 1.400 . S
C1223 C1228 1.490 . S
C1224 H1214 0.930 . S
C1224 C1223 1.400 . S
C1224 C1227 1.386 . S
H1225 C1241 0.930 . S
H1226 C1242 0.931 . S
C1227 H1215 0.929 . S
C1227 C1221 1.390 . S
C1227 C1224 1.386 . S
C1228 C1223 1.490 . S
C1228 C1230 1.395 . S
C1228 C1231 1.403 . S
H1229 C1235 0.930 . S
C1230 H1216 0.930 . S
C1230 C1228 1.395 . S
C1230 C1233 1.403 1_556 S
C1231 C1228 1.403 . S
C1231 C1232 1.524 . S
C1231 C1235 1.400 1_556 S
C1232 H1217 0.960 . S
C1232 H1218 0.960 . S
C1232 H1219 0.960 . S
C1232 C1231 1.524 . S
C1233 C1230 1.403 1_554 S
C1233 C1234 1.392 . S
C1233 C1237 1.495 . S
C1234 C1233 1.392 . S
C1234 C1235 1.385 . S
C1234 C1236 1.478 . S
C1235 H1229 0.930 . S
C1235 C1231 1.400 1_554 S
C1235 C1234 1.385 . S
C1236 C1234 1.478 . S
C1236 C1238 1.381 . S
C1236 C1242 1.383 . S
C1237 C1233 1.495 . S
C1237 H1243 0.959 . S
C1237 H1244 0.961 . S
C1237 H1245 0.960 . S
C1238 C1236 1.381 . S
C1238 C1239 1.394 . S
C1238 H1246 0.930 . S
C1239 C1238 1.394 . S
C1239 C1240 1.383 . S
C1239 H1247 0.929 . S
C1240 C1239 1.383 . S
C1240 C1241 1.377 . S
C1241 H1225 0.930 . S
C1241 C1240 1.377 . S
C1241 C1242 1.379 . S
C1242 H1226 0.931 . S
C1242 C1236 1.383 . S
C1242 C1241 1.379 . S
H1243 C1237 0.959 . S
H1244 C1237 0.961 . S
H1245 C1237 0.960 . S
H1246 C1238 0.930 . S
H1247 C1239 0.929 . S
H1248 C1256 0.929 . S
H1249 C1258 0.930 . S
H1250 C1260 0.930 . S
H1251 C1263 0.929 . S
H1252 C1266 0.930 . S
H1253 C1268 0.960 . S
H1254 C1268 0.960 . S
H1255 C1268 0.960 . S
C1256 H1248 0.929 . S
C1256 C1257 1.377 . S
C1256 C1258 1.384 . S
C1257 C1256 1.377 . S
C1257 C1263 1.390 . S
C1258 H1249 0.930 . S
C1258 C1256 1.384 . S
C1258 C1259 1.372 . S
C1259 C1258 1.372 . S
C1259 C1260 1.400 . S
C1259 C1264 1.490 . S
C1260 H1250 0.930 . S
C1260 C1259 1.400 . S
C1260 C1263 1.386 . S
H1261 C1277 0.930 . S
H1262 C1278 0.931 . S
C1263 H1251 0.929 . S
C1263 C1257 1.390 . S
C1263 C1260 1.386 . S
C1264 C1259 1.490 . S
C1264 C1266 1.395 . S
C1264 C1267 1.403 . S
H1265 C1271 0.930 . S
C1266 H1252 0.930 . S
C1266 C1264 1.395 . S
C1266 C1269 1.403 1_556 S
C1267 C1264 1.403 . S
C1267 C1268 1.524 . S
C1267 C1271 1.400 1_556 S
C1268 H1253 0.960 . S
C1268 H1254 0.960 . S
C1268 H1255 0.960 . S
C1268 C1267 1.524 . S
C1269 C1266 1.403 1_554 S
C1269 C1270 1.392 . S
C1269 C1273 1.495 . S
C1270 C1269 1.392 . S
C1270 C1271 1.385 . S
C1270 C1272 1.478 . S
C1271 H1265 0.930 . S
C1271 C1267 1.400 1_554 S
C1271 C1270 1.385 . S
C1272 C1270 1.478 . S
C1272 C1274 1.381 . S
C1272 C1278 1.383 . S
C1273 C1269 1.495 . S
C1273 H1279 0.959 . S
C1273 H1280 0.961 . S
C1273 H1281 0.960 . S
C1274 C1272 1.381 . S
C1274 C1275 1.394 . S
C1274 H1282 0.930 . S
C1275 C1274 1.394 . S
C1275 C1276 1.383 . S
C1275 H1283 0.929 . S
C1276 C1275 1.383 . S
C1276 C1277 1.377 . S
C1277 H1261 0.930 . S
C1277 C1276 1.377 . S
C1277 C1278 1.379 . S
C1278 H1262 0.931 . S
C1278 C1272 1.383 . S
C1278 C1277 1.379 . S
H1279 C1273 0.959 . S
H1280 C1273 0.961 . S
H1281 C1273 0.960 . S
H1282 C1274 0.930 . S
H1283 C1275 0.929 . S
H1284 C1292 0.929 . S
H1285 C1294 0.930 . S
H1286 C1296 0.930 . S
H1287 C1299 0.929 . S
H1288 C1302 0.930 . S
H1289 C1304 0.960 . S
H1290 C1304 0.960 . S
H1291 C1304 0.960 . S
C1292 H1284 0.929 . S
C1292 C1293 1.377 . S
C1292 C1294 1.384 . S
C1293 C1292 1.377 . S
C1293 C1299 1.390 . S
C1294 H1285 0.930 . S
C1294 C1292 1.384 . S
C1294 C1295 1.372 . S
C1295 C1294 1.372 . S
C1295 C1296 1.400 . S
C1295 C1300 1.490 . S
C1296 H1286 0.930 . S
C1296 C1295 1.400 . S
C1296 C1299 1.386 . S
H1297 C1313 0.930 . S
H1298 C1314 0.931 . S
C1299 H1287 0.929 . S
C1299 C1293 1.390 . S
C1299 C1296 1.386 . S
C1300 C1295 1.490 . S
C1300 C1302 1.395 . S
C1300 C1303 1.403 . S
H1301 C1307 0.930 . S
C1302 H1288 0.930 . S
C1302 C1300 1.395 . S
C1302 C1305 1.403 1_554 S
C1303 C1300 1.403 . S
C1303 C1304 1.524 . S
C1303 C1307 1.400 1_554 S
C1304 H1289 0.960 . S
C1304 H1290 0.960 . S
C1304 H1291 0.960 . S
C1304 C1303 1.524 . S
C1305 C1302 1.403 1_556 S
C1305 C1306 1.392 . S
C1305 C1309 1.495 . S
C1306 C1305 1.392 . S
C1306 C1307 1.385 . S
C1306 C1308 1.478 . S
C1307 H1301 0.930 . S
C1307 C1303 1.400 1_556 S
C1307 C1306 1.385 . S
C1308 C1306 1.478 . S
C1308 C1310 1.381 . S
C1308 C1314 1.383 . S
C1309 C1305 1.495 . S
C1309 H1315 0.959 . S
C1309 H1316 0.961 . S
C1309 H1317 0.960 . S
C1310 C1308 1.381 . S
C1310 C1311 1.394 . S
C1310 H1318 0.930 . S
C1311 C1310 1.394 . S
C1311 C1312 1.383 . S
C1311 H1319 0.929 . S
C1312 C1311 1.383 . S
C1312 C1313 1.377 . S
C1313 H1297 0.930 . S
C1313 C1312 1.377 . S
C1313 C1314 1.379 . S
C1314 H1298 0.931 . S
C1314 C1308 1.383 . S
C1314 C1313 1.379 . S
H1315 C1309 0.959 . S
H1316 C1309 0.961 . S
H1317 C1309 0.960 . S
H1318 C1310 0.930 . S
H1319 C1311 0.929 . S
H1320 C1328 0.929 . S
H1321 C1330 0.930 . S
H1322 C1332 0.930 . S
H1323 C1335 0.929 . S
H1324 C1338 0.930 . S
H1325 C1340 0.960 . S
H1326 C1340 0.960 . S
H1327 C1340 0.960 . S
C1328 H1320 0.929 . S
C1328 C1329 1.377 . S
C1328 C1330 1.384 . S
C1329 C1328 1.377 . S
C1329 C1335 1.390 . S
C1330 H1321 0.930 . S
C1330 C1328 1.384 . S
C1330 C1331 1.372 . S
C1331 C1330 1.372 . S
C1331 C1332 1.400 . S
C1331 C1336 1.490 . S
C1332 H1322 0.930 . S
C1332 C1331 1.400 . S
C1332 C1335 1.386 . S
H1333 C1349 0.930 . S
H1334 C1350 0.931 . S
C1335 H1323 0.929 . S
C1335 C1329 1.390 . S
C1335 C1332 1.386 . S
C1336 C1331 1.490 . S
C1336 C1338 1.395 . S
C1336 C1339 1.403 . S
H1337 C1343 0.930 . S
C1338 H1324 0.930 . S
C1338 C1336 1.395 . S
C1338 C1341 1.403 1_554 S
C1339 C1336 1.403 . S
C1339 C1340 1.524 . S
C1339 C1343 1.400 1_554 S
C1340 H1325 0.960 . S
C1340 H1326 0.960 . S
C1340 H1327 0.960 . S
C1340 C1339 1.524 . S
C1341 C1338 1.403 1_556 S
C1341 C1342 1.392 . S
C1341 C1345 1.495 . S
C1342 C1341 1.392 . S
C1342 C1343 1.385 . S
C1342 C1344 1.478 . S
C1343 H1337 0.930 . S
C1343 C1339 1.400 1_556 S
C1343 C1342 1.385 . S
C1344 C1342 1.478 . S
C1344 C1346 1.381 . S
C1344 C1350 1.383 . S
C1345 C1341 1.495 . S
C1345 H1351 0.959 . S
C1345 H1352 0.961 . S
C1345 H1353 0.960 . S
C1346 C1344 1.381 . S
C1346 C1347 1.394 . S
C1346 H1354 0.930 . S
C1347 C1346 1.394 . S
C1347 C1348 1.383 . S
C1347 H1355 0.929 . S
C1348 C1347 1.383 . S
C1348 C1349 1.377 . S
C1349 H1333 0.930 . S
C1349 C1348 1.377 . S
C1349 C1350 1.379 . S
C1350 H1334 0.931 . S
C1350 C1344 1.383 . S
C1350 C1349 1.379 . S
H1351 C1345 0.959 . S
H1352 C1345 0.961 . S
H1353 C1345 0.960 . S
H1354 C1346 0.930 . S
H1355 C1347 0.929 . S
H1356 C1364 0.929 . S
H1357 C1366 0.930 . S
H1358 C1368 0.930 . S
H1359 C1371 0.929 . S
H1360 C1374 0.930 . S
H1361 C1376 0.960 . S
H1362 C1376 0.960 . S
H1363 C1376 0.960 . S
C1364 H1356 0.929 . S
C1364 C1365 1.377 . S
C1364 C1366 1.384 . S
C1365 C1364 1.377 . S
C1365 C1371 1.390 . S
C1366 H1357 0.930 . S
C1366 C1364 1.384 . S
C1366 C1367 1.372 . S
C1367 C1366 1.372 . S
C1367 C1368 1.400 . S
C1367 C1372 1.490 . S
C1368 H1358 0.930 . S
C1368 C1367 1.400 . S
C1368 C1371 1.386 . S
H1369 C1385 0.930 . S
H1370 C1386 0.931 . S
C1371 H1359 0.929 . S
C1371 C1365 1.390 . S
C1371 C1368 1.386 . S
C1372 C1367 1.490 . S
C1372 C1374 1.395 . S
C1372 C1375 1.403 . S
H1373 C1379 0.930 . S
C1374 H1360 0.930 . S
C1374 C1372 1.395 . S
C1374 C1377 1.403 1_556 S
C1375 C1372 1.403 . S
C1375 C1376 1.524 . S
C1375 C1379 1.400 1_556 S
C1376 H1361 0.960 . S
C1376 H1362 0.960 . S
C1376 H1363 0.960 . S
C1376 C1375 1.524 . S
C1377 C1374 1.403 1_554 S
C1377 C1378 1.392 . S
C1377 C1381 1.495 . S
C1378 C1377 1.392 . S
C1378 C1379 1.385 . S
C1378 C1380 1.478 . S
C1379 H1373 0.930 . S
C1379 C1375 1.400 1_554 S
C1379 C1378 1.385 . S
C1380 C1378 1.478 . S
C1380 C1382 1.381 . S
C1380 C1386 1.383 . S
C1381 C1377 1.495 . S
C1381 H1387 0.959 . S
C1381 H1388 0.961 . S
C1381 H1389 0.960 . S
C1382 C1380 1.381 . S
C1382 C1383 1.394 . S
C1382 H1390 0.930 . S
C1383 C1382 1.394 . S
C1383 C1384 1.383 . S
C1383 H1391 0.929 . S
C1384 C1383 1.383 . S
C1384 C1385 1.377 . S
C1385 H1369 0.930 . S
C1385 C1384 1.377 . S
C1385 C1386 1.379 . S
C1386 H1370 0.931 . S
C1386 C1380 1.383 . S
C1386 C1385 1.379 . S
H1387 C1381 0.959 . S
H1388 C1381 0.961 . S
H1389 C1381 0.960 . S
H1390 C1382 0.930 . S
H1391 C1383 0.929 . S
H1392 C1400 0.929 . S
H1393 C1402 0.930 . S
H1394 C1404 0.930 . S
H1395 C1407 0.929 . S
H1396 C1410 0.930 . S
H1397 C1412 0.960 . S
H1398 C1412 0.960 . S
H1399 C1412 0.960 . S
C1400 H1392 0.929 . S
C1400 C1401 1.377 . S
C1400 C1402 1.384 . S
C1401 C1400 1.377 . S
C1401 C1407 1.390 . S
C1402 H1393 0.930 . S
C1402 C1400 1.384 . S
C1402 C1403 1.372 . S
C1403 C1402 1.372 . S
C1403 C1404 1.400 . S
C1403 C1408 1.490 . S
C1404 H1394 0.930 . S
C1404 C1403 1.400 . S
C1404 C1407 1.386 . S
H1405 C1421 0.930 . S
H1406 C1422 0.931 . S
C1407 H1395 0.929 . S
C1407 C1401 1.390 . S
C1407 C1404 1.386 . S
C1408 C1403 1.490 . S
C1408 C1410 1.395 . S
C1408 C1411 1.403 . S
H1409 C1415 0.930 . S
C1410 H1396 0.930 . S
C1410 C1408 1.395 . S
C1410 C1413 1.403 . S
C1411 C1408 1.403 . S
C1411 C1412 1.524 . S
C1411 C1415 1.400 . S
C1412 H1397 0.960 . S
C1412 H1398 0.960 . S
C1412 H1399 0.960 . S
C1412 C1411 1.524 . S
C1413 C1410 1.403 . S
C1413 C1414 1.392 . S
C1413 C1417 1.495 . S
C1414 C1413 1.392 . S
C1414 C1415 1.385 . S
C1414 C1416 1.478 . S
C1415 H1409 0.930 . S
C1415 C1411 1.400 . S
C1415 C1414 1.385 . S
C1416 C1414 1.478 . S
C1416 C1418 1.381 . S
C1416 C1422 1.383 . S
C1417 C1413 1.495 . S
C1417 H1423 0.959 . S
C1417 H1424 0.961 . S
C1417 H1425 0.960 . S
C1418 C1416 1.381 . S
C1418 C1419 1.394 . S
C1418 H1426 0.930 . S
C1419 C1418 1.394 . S
C1419 C1420 1.383 . S
C1419 H1427 0.929 . S
C1420 C1419 1.383 . S
C1420 C1421 1.377 . S
C1421 H1405 0.930 . S
C1421 C1420 1.377 . S
C1421 C1422 1.379 . S
C1422 H1406 0.931 . S
C1422 C1416 1.383 . S
C1422 C1421 1.379 . S
H1423 C1417 0.959 . S
H1424 C1417 0.961 . S
H1425 C1417 0.960 . S
H1426 C1418 0.930 . S
H1427 C1419 0.929 . S
H1428 C1436 0.929 . S
H1429 C1438 0.930 . S
H1430 C1440 0.930 . S
H1431 C1443 0.929 . S
H1432 C1446 0.930 . S
H1433 C1448 0.960 . S
H1434 C1448 0.960 . S
H1435 C1448 0.960 . S
C1436 H1428 0.929 . S
C1436 C1437 1.377 . S
C1436 C1438 1.384 . S
C1437 C1436 1.377 . S
C1437 C1443 1.390 . S
C1438 H1429 0.930 . S
C1438 C1436 1.384 . S
C1438 C1439 1.372 . S
C1439 C1438 1.372 . S
C1439 C1440 1.400 . S
C1439 C1444 1.490 . S
C1440 H1430 0.930 . S
C1440 C1439 1.400 . S
C1440 C1443 1.386 . S
H1441 C1457 0.930 . S
H1442 C1458 0.931 . S
C1443 H1431 0.929 . S
C1443 C1437 1.390 . S
C1443 C1440 1.386 . S
C1444 C1439 1.490 . S
C1444 C1446 1.395 . S
C1444 C1447 1.403 . S
H1445 C1451 0.930 . S
C1446 H1432 0.930 . S
C1446 C1444 1.395 . S
C1446 C1449 1.403 . S
C1447 C1444 1.403 . S
C1447 C1448 1.524 . S
C1447 C1451 1.400 . S
C1448 H1433 0.960 . S
C1448 H1434 0.960 . S
C1448 H1435 0.960 . S
C1448 C1447 1.524 . S
C1449 C1446 1.403 . S
C1449 C1450 1.392 . S
C1449 C1453 1.495 . S
C1450 C1449 1.392 . S
C1450 C1451 1.385 . S
C1450 C1452 1.478 . S
C1451 H1445 0.930 . S
C1451 C1447 1.400 . S
C1451 C1450 1.385 . S
C1452 C1450 1.478 . S
C1452 C1454 1.381 . S
C1452 C1458 1.383 . S
C1453 C1449 1.495 . S
C1453 H1459 0.959 . S
C1453 H1460 0.961 . S
C1453 H1461 0.960 . S
C1454 C1452 1.381 . S
C1454 C1455 1.394 . S
C1454 H1462 0.930 . S
C1455 C1454 1.394 . S
C1455 C1456 1.383 . S
C1455 H1463 0.929 . S
C1456 C1455 1.383 . S
C1456 C1457 1.377 . S
C1457 H1441 0.930 . S
C1457 C1456 1.377 . S
C1457 C1458 1.379 . S
C1458 H1442 0.931 . S
C1458 C1452 1.383 . S
C1458 C1457 1.379 . S
H1459 C1453 0.959 . S
H1460 C1453 0.961 . S
H1461 C1453 0.960 . S
H1462 C1454 0.930 . S
H1463 C1455 0.929 . S
H1464 C1472 0.929 . S
H1465 C1474 0.930 . S
H1466 C1476 0.930 . S
H1467 C1479 0.929 . S
H1468 C1482 0.930 . S
H1469 C1484 0.960 . S
H1470 C1484 0.960 . S
H1471 C1484 0.960 . S
C1472 H1464 0.929 . S
C1472 C1473 1.377 . S
C1472 C1474 1.384 . S
C1473 C1472 1.377 . S
C1473 C1479 1.390 . S
C1474 H1465 0.930 . S
C1474 C1472 1.384 . S
C1474 C1475 1.372 . S
C1475 C1474 1.372 . S
C1475 C1476 1.400 . S
C1475 C1480 1.490 . S
C1476 H1466 0.930 . S
C1476 C1475 1.400 . S
C1476 C1479 1.386 . S
H1477 C1493 0.930 . S
H1478 C1494 0.931 . S
C1479 H1467 0.929 . S
C1479 C1473 1.390 . S
C1479 C1476 1.386 . S
C1480 C1475 1.490 . S
C1480 C1482 1.395 . S
C1480 C1483 1.403 . S
H1481 C1487 0.930 . S
C1482 H1468 0.930 . S
C1482 C1480 1.395 . S
C1482 C1485 1.403 . S
C1483 C1480 1.403 . S
C1483 C1484 1.524 . S
C1483 C1487 1.400 . S
C1484 H1469 0.960 . S
C1484 H1470 0.960 . S
C1484 H1471 0.960 . S
C1484 C1483 1.524 . S
C1485 C1482 1.403 . S
C1485 C1486 1.392 . S
C1485 C1489 1.495 . S
C1486 C1485 1.392 . S
C1486 C1487 1.385 . S
C1486 C1488 1.478 . S
C1487 H1481 0.930 . S
C1487 C1483 1.400 . S
C1487 C1486 1.385 . S
C1488 C1486 1.478 . S
C1488 C1490 1.381 . S
C1488 C1494 1.383 . S
C1489 C1485 1.495 . S
C1489 H1495 0.959 . S
C1489 H1496 0.961 . S
C1489 H1497 0.960 . S
C1490 C1488 1.381 . S
C1490 C1491 1.394 . S
C1490 H1498 0.930 . S
C1491 C1490 1.394 . S
C1491 C1492 1.383 . S
C1491 H1499 0.929 . S
C1492 C1491 1.383 . S
C1492 C1493 1.377 . S
C1493 H1477 0.930 . S
C1493 C1492 1.377 . S
C1493 C1494 1.379 . S
C1494 H1478 0.931 . S
C1494 C1488 1.383 . S
C1494 C1493 1.379 . S
H1495 C1489 0.959 . S
H1496 C1489 0.961 . S
H1497 C1489 0.960 . S
H1498 C1490 0.930 . S
H1499 C1491 0.929 . S
H1500 C1508 0.929 . S
H1501 C1510 0.930 . S
H1502 C1512 0.930 . S
H1503 C1515 0.929 . S
H1504 C1518 0.930 . S
H1505 C1520 0.960 . S
H1506 C1520 0.960 . S
H1507 C1520 0.960 . S
C1508 H1500 0.929 . S
C1508 C1509 1.377 . S
C1508 C1510 1.384 . S
C1509 C1508 1.377 . S
C1509 C1515 1.390 . S
C1510 H1501 0.930 . S
C1510 C1508 1.384 . S
C1510 C1511 1.372 . S
C1511 C1510 1.372 . S
C1511 C1512 1.400 . S
C1511 C1516 1.490 . S
C1512 H1502 0.930 . S
C1512 C1511 1.400 . S
C1512 C1515 1.386 . S
H1513 C1529 0.930 . S
H1514 C1530 0.931 . S
C1515 H1503 0.929 . S
C1515 C1509 1.390 . S
C1515 C1512 1.386 . S
C1516 C1511 1.490 . S
C1516 C1518 1.395 . S
C1516 C1519 1.403 . S
H1517 C1523 0.930 . S
C1518 H1504 0.930 . S
C1518 C1516 1.395 . S
C1518 C1521 1.403 . S
C1519 C1516 1.403 . S
C1519 C1520 1.524 . S
C1519 C1523 1.400 . S
C1520 H1505 0.960 . S
C1520 H1506 0.960 . S
C1520 H1507 0.960 . S
C1520 C1519 1.524 . S
C1521 C1518 1.403 . S
C1521 C1522 1.392 . S
C1521 C1525 1.495 . S
C1522 C1521 1.392 . S
C1522 C1523 1.385 . S
C1522 C1524 1.478 . S
C1523 H1517 0.930 . S
C1523 C1519 1.400 . S
C1523 C1522 1.385 . S
C1524 C1522 1.478 . S
C1524 C1526 1.381 . S
C1524 C1530 1.383 . S
C1525 C1521 1.495 . S
C1525 H1531 0.959 . S
C1525 H1532 0.961 . S
C1525 H1533 0.960 . S
C1526 C1524 1.381 . S
C1526 C1527 1.394 . S
C1526 H1534 0.930 . S
C1527 C1526 1.394 . S
C1527 C1528 1.383 . S
C1527 H1535 0.929 . S
C1528 C1527 1.383 . S
C1528 C1529 1.377 . S
C1529 H1513 0.930 . S
C1529 C1528 1.377 . S
C1529 C1530 1.379 . S
C1530 H1514 0.931 . S
C1530 C1524 1.383 . S
C1530 C1529 1.379 . S
H1531 C1525 0.959 . S
H1532 C1525 0.961 . S
H1533 C1525 0.960 . S
H1534 C1526 0.930 . S
H1535 C1527 0.929 . S
H1536 C1544 0.929 . S
H1537 C1546 0.930 . S
H1538 C1548 0.930 . S
H1539 C1551 0.929 . S
H1540 C1554 0.930 . S
H1541 C1556 0.960 . S
H1542 C1556 0.960 . S
H1543 C1556 0.960 . S
C1544 H1536 0.929 . S
C1544 C1545 1.377 . S
C1544 C1546 1.384 . S
C1545 C1544 1.377 . S
C1545 C1551 1.390 . S
C1546 H1537 0.930 . S
C1546 C1544 1.384 . S
C1546 C1547 1.372 . S
C1547 C1546 1.372 . S
C1547 C1548 1.400 . S
C1547 C1552 1.490 . S
C1548 H1538 0.930 . S
C1548 C1547 1.400 . S
C1548 C1551 1.386 . S
H1549 C1565 0.930 . S
H1550 C1566 0.931 . S
C1551 H1539 0.929 . S
C1551 C1545 1.390 . S
C1551 C1548 1.386 . S
C1552 C1547 1.490 . S
C1552 C1554 1.395 . S
C1552 C1555 1.403 . S
H1553 C1559 0.930 . S
C1554 H1540 0.930 . S
C1554 C1552 1.395 . S
C1554 C1557 1.403 . S
C1555 C1552 1.403 . S
C1555 C1556 1.524 . S
C1555 C1559 1.400 . S
C1556 H1541 0.960 . S
C1556 H1542 0.960 . S
C1556 H1543 0.960 . S
C1556 C1555 1.524 . S
C1557 C1554 1.403 . S
C1557 C1558 1.392 . S
C1557 C1561 1.495 . S
C1558 C1557 1.392 . S
C1558 C1559 1.385 . S
C1558 C1560 1.478 . S
C1559 H1553 0.930 . S
C1559 C1555 1.400 . S
C1559 C1558 1.385 . S
C1560 C1558 1.478 . S
C1560 C1562 1.381 . S
C1560 C1566 1.383 . S
C1561 C1557 1.495 . S
C1561 H1567 0.959 . S
C1561 H1568 0.961 . S
C1561 H1569 0.960 . S
C1562 C1560 1.381 . S
C1562 C1563 1.394 . S
C1562 H1570 0.930 . S
C1563 C1562 1.394 . S
C1563 C1564 1.383 . S
C1563 H1571 0.929 . S
C1564 C1563 1.383 . S
C1564 C1565 1.377 . S
C1565 H1549 0.930 . S
C1565 C1564 1.377 . S
C1565 C1566 1.379 . S
C1566 H1550 0.931 . S
C1566 C1560 1.383 . S
C1566 C1565 1.379 . S
H1567 C1561 0.959 . S
H1568 C1561 0.961 . S
H1569 C1561 0.960 . S
H1570 C1562 0.930 . S
H1571 C1563 0.929 . S
H1572 C1580 0.929 . S
H1573 C1582 0.930 . S
H1574 C1584 0.930 . S
H1575 C1587 0.929 . S
H1576 C1590 0.930 . S
H1577 C1592 0.960 . S
H1578 C1592 0.960 . S
H1579 C1592 0.960 . S
C1580 H1572 0.929 . S
C1580 C1581 1.377 . S
C1580 C1582 1.384 . S
C1581 C1580 1.377 . S
C1581 C1587 1.390 . S
C1582 H1573 0.930 . S
C1582 C1580 1.384 . S
C1582 C1583 1.372 . S
C1583 C1582 1.372 . S
C1583 C1584 1.400 . S
C1583 C1588 1.490 . S
C1584 H1574 0.930 . S
C1584 C1583 1.400 . S
C1584 C1587 1.386 . S
H1585 C1601 0.930 . S
H1586 C1602 0.931 . S
C1587 H1575 0.929 . S
C1587 C1581 1.390 . S
C1587 C1584 1.386 . S
C1588 C1583 1.490 . S
C1588 C1590 1.395 . S
C1588 C1591 1.403 . S
H1589 C1595 0.930 . S
C1590 H1576 0.930 . S
C1590 C1588 1.395 . S
C1590 C1593 1.403 . S
C1591 C1588 1.403 . S
C1591 C1592 1.524 . S
C1591 C1595 1.400 . S
C1592 H1577 0.960 . S
C1592 H1578 0.960 . S
C1592 H1579 0.960 . S
C1592 C1591 1.524 . S
C1593 C1590 1.403 . S
C1593 C1594 1.392 . S
C1593 C1597 1.495 . S
C1594 C1593 1.392 . S
C1594 C1595 1.385 . S
C1594 C1596 1.478 . S
C1595 H1589 0.930 . S
C1595 C1591 1.400 . S
C1595 C1594 1.385 . S
C1596 C1594 1.478 . S
C1596 C1598 1.381 . S
C1596 C1602 1.383 . S
C1597 C1593 1.495 . S
C1597 H1603 0.959 . S
C1597 H1604 0.961 . S
C1597 H1605 0.960 . S
C1598 C1596 1.381 . S
C1598 C1599 1.394 . S
C1598 H1606 0.930 . S
C1599 C1598 1.394 . S
C1599 C1600 1.383 . S
C1599 H1607 0.929 . S
C1600 C1599 1.383 . S
C1600 C1601 1.377 . S
C1601 H1585 0.930 . S
C1601 C1600 1.377 . S
C1601 C1602 1.379 . S
C1602 H1586 0.931 . S
C1602 C1596 1.383 . S
C1602 C1601 1.379 . S
H1603 C1597 0.959 . S
H1604 C1597 0.961 . S
H1605 C1597 0.960 . S
H1606 C1598 0.930 . S
H1607 C1599 0.929 . S
H1608 C1616 0.929 . S
H1609 C1618 0.930 . S
H1610 C1620 0.930 . S
H1611 C1623 0.929 . S
H1612 C1626 0.930 . S
H1613 C1628 0.960 . S
H1614 C1628 0.960 . S
H1615 C1628 0.960 . S
C1616 H1608 0.929 . S
C1616 C1617 1.377 . S
C1616 C1618 1.384 . S
C1617 C1616 1.377 . S
C1617 C1623 1.390 . S
C1618 H1609 0.930 . S
C1618 C1616 1.384 . S
C1618 C1619 1.372 . S
C1619 C1618 1.372 . S
C1619 C1620 1.400 . S
C1619 C1624 1.490 . S
C1620 H1610 0.930 . S
C1620 C1619 1.400 . S
C1620 C1623 1.386 . S
H1621 C1637 0.930 . S
H1622 C1638 0.931 . S
C1623 H1611 0.929 . S
C1623 C1617 1.390 . S
C1623 C1620 1.386 . S
C1624 C1619 1.490 . S
C1624 C1626 1.395 . S
C1624 C1627 1.403 . S
H1625 C1631 0.930 . S
C1626 H1612 0.930 . S
C1626 C1624 1.395 . S
C1626 C1629 1.403 . S
C1627 C1624 1.403 . S
C1627 C1628 1.524 . S
C1627 C1631 1.400 . S
C1628 H1613 0.960 . S
C1628 H1614 0.960 . S
C1628 H1615 0.960 . S
C1628 C1627 1.524 . S
C1629 C1626 1.403 . S
C1629 C1630 1.392 . S
C1629 C1633 1.495 . S
C1630 C1629 1.392 . S
C1630 C1631 1.385 . S
C1630 C1632 1.478 . S
C1631 H1625 0.930 . S
C1631 C1627 1.400 . S
C1631 C1630 1.385 . S
C1632 C1630 1.478 . S
C1632 C1634 1.381 . S
C1632 C1638 1.383 . S
C1633 C1629 1.495 . S
C1633 H1639 0.959 . S
C1633 H1640 0.961 . S
C1633 H1641 0.960 . S
C1634 C1632 1.381 . S
C1634 C1635 1.394 . S
C1634 H1642 0.930 . S
C1635 C1634 1.394 . S
C1635 C1636 1.383 . S
C1635 H1643 0.929 . S
C1636 C1635 1.383 . S
C1636 C1637 1.377 . S
C1637 H1621 0.930 . S
C1637 C1636 1.377 . S
C1637 C1638 1.379 . S
C1638 H1622 0.931 . S
C1638 C1632 1.383 . S
C1638 C1637 1.379 . S
H1639 C1633 0.959 . S
H1640 C1633 0.961 . S
H1641 C1633 0.960 . S
H1642 C1634 0.930 . S
H1643 C1635 0.929 . S
H1644 C1652 0.929 . S
H1645 C1654 0.930 . S
H1646 C1656 0.930 . S
H1647 C1659 0.929 . S
H1648 C1662 0.930 . S
H1649 C1664 0.960 . S
H1650 C1664 0.960 . S
H1651 C1664 0.960 . S
C1652 H1644 0.929 . S
C1652 C1653 1.377 . S
C1652 C1654 1.384 . S
C1653 C1652 1.377 . S
C1653 C1659 1.390 . S
C1654 H1645 0.930 . S
C1654 C1652 1.384 . S
C1654 C1655 1.372 . S
C1655 C1654 1.372 . S
C1655 C1656 1.400 . S
C1655 C1660 1.490 . S
C1656 H1646 0.930 . S
C1656 C1655 1.400 . S
C1656 C1659 1.386 . S
H1657 C1673 0.930 . S
H1658 C1674 0.931 . S
C1659 H1647 0.929 . S
C1659 C1653 1.390 . S
C1659 C1656 1.386 . S
C1660 C1655 1.490 . S
C1660 C1662 1.395 . S
C1660 C1663 1.403 . S
H1661 C1667 0.930 . S
C1662 H1648 0.930 . S
C1662 C1660 1.395 . S
C1662 C1665 1.403 . S
C1663 C1660 1.403 . S
C1663 C1664 1.524 . S
C1663 C1667 1.400 . S
C1664 H1649 0.960 . S
C1664 H1650 0.960 . S
C1664 H1651 0.960 . S
C1664 C1663 1.524 . S
C1665 C1662 1.403 . S
C1665 C1666 1.392 . S
C1665 C1669 1.495 . S
C1666 C1665 1.392 . S
C1666 C1667 1.385 . S
C1666 C1668 1.478 . S
C1667 H1661 0.930 . S
C1667 C1663 1.400 . S
C1667 C1666 1.385 . S
C1668 C1666 1.478 . S
C1668 C1670 1.381 . S
C1668 C1674 1.383 . S
C1669 C1665 1.495 . S
C1669 H1675 0.959 . S
C1669 H1676 0.961 . S
C1669 H1677 0.960 . S
C1670 C1668 1.381 . S
C1670 C1671 1.394 . S
C1670 H1678 0.930 . S
C1671 C1670 1.394 . S
C1671 C1672 1.383 . S
C1671 H1679 0.929 . S
C1672 C1671 1.383 . S
C1672 C1673 1.377 . S
C1673 H1657 0.930 . S
C1673 C1672 1.377 . S
C1673 C1674 1.379 . S
C1674 H1658 0.931 . S
C1674 C1668 1.383 . S
C1674 C1673 1.379 . S
H1675 C1669 0.959 . S
H1676 C1669 0.961 . S
H1677 C1669 0.960 . S
H1678 C1670 0.930 . S
H1679 C1671 0.929 . S
H1680 C1688 0.929 . S
H1681 C1690 0.930 . S
H1682 C1692 0.930 . S
H1683 C1695 0.929 . S
H1684 C1698 0.930 . S
H1685 C1700 0.960 . S
H1686 C1700 0.960 . S
H1687 C1700 0.960 . S
C1688 H1680 0.929 . S
C1688 C1689 1.377 . S
C1688 C1690 1.384 . S
C1689 C1688 1.377 . S
C1689 C1695 1.390 . S
C1690 H1681 0.930 . S
C1690 C1688 1.384 . S
C1690 C1691 1.372 . S
C1691 C1690 1.372 . S
C1691 C1692 1.400 . S
C1691 C1696 1.490 . S
C1692 H1682 0.930 . S
C1692 C1691 1.400 . S
C1692 C1695 1.386 . S
H1693 C1709 0.930 . S
H1694 C1710 0.931 . S
C1695 H1683 0.929 . S
C1695 C1689 1.390 . S
C1695 C1692 1.386 . S
C1696 C1691 1.490 . S
C1696 C1698 1.395 . S
C1696 C1699 1.403 . S
H1697 C1703 0.930 . S
C1698 H1684 0.930 . S
C1698 C1696 1.395 . S
C1698 C1701 1.403 . S
C1699 C1696 1.403 . S
C1699 C1700 1.524 . S
C1699 C1703 1.400 . S
C1700 H1685 0.960 . S
C1700 H1686 0.960 . S
C1700 H1687 0.960 . S
C1700 C1699 1.524 . S
C1701 C1698 1.403 . S
C1701 C1702 1.392 . S
C1701 C1705 1.495 . S
C1702 C1701 1.392 . S
C1702 C1703 1.385 . S
C1702 C1704 1.478 . S
C1703 H1697 0.930 . S
C1703 C1699 1.400 . S
C1703 C1702 1.385 . S
C1704 C1702 1.478 . S
C1704 C1706 1.381 . S
C1704 C1710 1.383 . S
C1705 C1701 1.495 . S
C1705 H1711 0.959 . S
C1705 H1712 0.961 . S
C1705 H1713 0.960 . S
C1706 C1704 1.381 . S
C1706 C1707 1.394 . S
C1706 H1714 0.930 . S
C1707 C1706 1.394 . S
C1707 C1708 1.383 . S
C1707 H1715 0.929 . S
C1708 C1707 1.383 . S
C1708 C1709 1.377 . S
C1709 H1693 0.930 . S
C1709 C1708 1.377 . S
C1709 C1710 1.379 . S
C1710 H1694 0.931 . S
C1710 C1704 1.383 . S
C1710 C1709 1.379 . S
H1711 C1705 0.959 . S
H1712 C1705 0.961 . S
H1713 C1705 0.960 . S
H1714 C1706 0.930 . S
H1715 C1707 0.929 . S
H1716 C1724 0.929 . S
H1717 C1726 0.930 . S
H1718 C1728 0.930 . S
H1719 C1731 0.929 . S
H1720 C1734 0.930 . S
H1721 C1736 0.960 . S
H1722 C1736 0.960 . S
H1723 C1736 0.960 . S
C1724 H1716 0.929 . S
C1724 C1725 1.377 . S
C1724 C1726 1.384 . S
C1725 C1724 1.377 . S
C1725 C1731 1.390 . S
C1726 H1717 0.930 . S
C1726 C1724 1.384 . S
C1726 C1727 1.372 . S
C1727 C1726 1.372 . S
C1727 C1728 1.400 . S
C1727 C1732 1.490 . S
C1728 H1718 0.930 . S
C1728 C1727 1.400 . S
C1728 C1731 1.386 . S
H1729 C1745 0.930 . S
H1730 C1746 0.931 . S
C1731 H1719 0.929 . S
C1731 C1725 1.390 . S
C1731 C1728 1.386 . S
C1732 C1727 1.490 . S
C1732 C1734 1.395 . S
C1732 C1735 1.403 . S
H1733 C1739 0.930 . S
C1734 H1720 0.930 . S
C1734 C1732 1.395 . S
C1734 C1737 1.403 . S
C1735 C1732 1.403 . S
C1735 C1736 1.524 . S
C1735 C1739 1.400 . S
C1736 H1721 0.960 . S
C1736 H1722 0.960 . S
C1736 H1723 0.960 . S
C1736 C1735 1.524 . S
C1737 C1734 1.403 . S
C1737 C1738 1.392 . S
C1737 C1741 1.495 . S
C1738 C1737 1.392 . S
C1738 C1739 1.385 . S
C1738 C1740 1.478 . S
C1739 H1733 0.930 . S
C1739 C1735 1.400 . S
C1739 C1738 1.385 . S
C1740 C1738 1.478 . S
C1740 C1742 1.381 . S
C1740 C1746 1.383 . S
C1741 C1737 1.495 . S
C1741 H1747 0.959 . S
C1741 H1748 0.961 . S
C1741 H1749 0.960 . S
C1742 C1740 1.381 . S
C1742 C1743 1.394 . S
C1742 H1750 0.930 . S
C1743 C1742 1.394 . S
C1743 C1744 1.383 . S
C1743 H1751 0.929 . S
C1744 C1743 1.383 . S
C1744 C1745 1.377 . S
C1745 H1729 0.930 . S
C1745 C1744 1.377 . S
C1745 C1746 1.379 . S
C1746 H1730 0.931 . S
C1746 C1740 1.383 . S
C1746 C1745 1.379 . S
H1747 C1741 0.959 . S
H1748 C1741 0.961 . S
H1749 C1741 0.960 . S
H1750 C1742 0.930 . S
H1751 C1743 0.929 . S
H1752 C1760 0.929 . S
H1753 C1762 0.930 . S
H1754 C1764 0.930 . S
H1755 C1767 0.929 . S
H1756 C1770 0.930 . S
H1757 C1772 0.960 . S
H1758 C1772 0.960 . S
H1759 C1772 0.960 . S
C1760 H1752 0.929 . S
C1760 C1761 1.377 . S
C1760 C1762 1.384 . S
C1761 C1760 1.377 . S
C1761 C1767 1.390 . S
C1762 H1753 0.930 . S
C1762 C1760 1.384 . S
C1762 C1763 1.372 . S
C1763 C1762 1.372 . S
C1763 C1764 1.400 . S
C1763 C1768 1.490 . S
C1764 H1754 0.930 . S
C1764 C1763 1.400 . S
C1764 C1767 1.386 . S
H1765 C1781 0.930 . S
H1766 C1782 0.931 . S
C1767 H1755 0.929 . S
C1767 C1761 1.390 . S
C1767 C1764 1.386 . S
C1768 C1763 1.490 . S
C1768 C1770 1.395 . S
C1768 C1771 1.403 . S
H1769 C1775 0.930 . S
C1770 H1756 0.930 . S
C1770 C1768 1.395 . S
C1770 C1773 1.403 . S
C1771 C1768 1.403 . S
C1771 C1772 1.524 . S
C1771 C1775 1.400 . S
C1772 H1757 0.960 . S
C1772 H1758 0.960 . S
C1772 H1759 0.960 . S
C1772 C1771 1.524 . S
C1773 C1770 1.403 . S
C1773 C1774 1.392 . S
C1773 C1777 1.495 . S
C1774 C1773 1.392 . S
C1774 C1775 1.385 . S
C1774 C1776 1.478 . S
C1775 H1769 0.930 . S
C1775 C1771 1.400 . S
C1775 C1774 1.385 . S
C1776 C1774 1.478 . S
C1776 C1778 1.381 . S
C1776 C1782 1.383 . S
C1777 C1773 1.495 . S
C1777 H1783 0.959 . S
C1777 H1784 0.961 . S
C1777 H1785 0.960 . S
C1778 C1776 1.381 . S
C1778 C1779 1.394 . S
C1778 H1786 0.930 . S
C1779 C1778 1.394 . S
C1779 C1780 1.383 . S
C1779 H1787 0.929 . S
C1780 C1779 1.383 . S
C1780 C1781 1.377 . S
C1781 H1765 0.930 . S
C1781 C1780 1.377 . S
C1781 C1782 1.379 . S
C1782 H1766 0.931 . S
C1782 C1776 1.383 . S
C1782 C1781 1.379 . S
H1783 C1777 0.959 . S
H1784 C1777 0.961 . S
H1785 C1777 0.960 . S
H1786 C1778 0.930 . S
H1787 C1779 0.929 . S
H1788 C1796 0.929 . S
H1789 C1798 0.930 . S
H1790 C1800 0.930 . S
H1791 C1803 0.929 . S
H1792 C1806 0.930 . S
H1793 C1808 0.960 . S
H1794 C1808 0.960 . S
H1795 C1808 0.960 . S
C1796 H1788 0.929 . S
C1796 C1797 1.377 . S
C1796 C1798 1.384 . S
C1797 C1796 1.377 . S
C1797 C1803 1.390 . S
C1798 H1789 0.930 . S
C1798 C1796 1.384 . S
C1798 C1799 1.372 . S
C1799 C1798 1.372 . S
C1799 C1800 1.400 . S
C1799 C1804 1.490 . S
C1800 H1790 0.930 . S
C1800 C1799 1.400 . S
C1800 C1803 1.386 . S
H1801 C1817 0.930 . S
H1802 C1818 0.931 . S
C1803 H1791 0.929 . S
C1803 C1797 1.390 . S
C1803 C1800 1.386 . S
C1804 C1799 1.490 . S
C1804 C1806 1.395 . S
C1804 C1807 1.403 . S
H1805 C1811 0.930 . S
C1806 H1792 0.930 . S
C1806 C1804 1.395 . S
C1806 C1809 1.403 . S
C1807 C1804 1.403 . S
C1807 C1808 1.524 . S
C1807 C1811 1.400 . S
C1808 H1793 0.960 . S
C1808 H1794 0.960 . S
C1808 H1795 0.960 . S
C1808 C1807 1.524 . S
C1809 C1806 1.403 . S
C1809 C1810 1.392 . S
C1809 C1813 1.495 . S
C1810 C1809 1.392 . S
C1810 C1811 1.385 . S
C1810 C1812 1.478 . S
C1811 H1805 0.930 . S
C1811 C1807 1.400 . S
C1811 C1810 1.385 . S
C1812 C1810 1.478 . S
C1812 C1814 1.381 . S
C1812 C1818 1.383 . S
C1813 C1809 1.495 . S
C1813 H1819 0.959 . S
C1813 H1820 0.961 . S
C1813 H1821 0.960 . S
C1814 C1812 1.381 . S
C1814 C1815 1.394 . S
C1814 H1822 0.930 . S
C1815 C1814 1.394 . S
C1815 C1816 1.383 . S
C1815 H1823 0.929 . S
C1816 C1815 1.383 . S
C1816 C1817 1.377 . S
C1817 H1801 0.930 . S
C1817 C1816 1.377 . S
C1817 C1818 1.379 . S
C1818 H1802 0.931 . S
C1818 C1812 1.383 . S
C1818 C1817 1.379 . S
H1819 C1813 0.959 . S
H1820 C1813 0.961 . S
H1821 C1813 0.960 . S
H1822 C1814 0.930 . S
H1823 C1815 0.929 . S
H1824 C1832 0.929 . S
H1825 C1834 0.930 . S
H1826 C1836 0.930 . S
H1827 C1839 0.929 . S
H1828 C1842 0.930 . S
H1829 C1844 0.960 . S
H1830 C1844 0.960 . S
H1831 C1844 0.960 . S
C1832 H1824 0.929 . S
C1832 C1833 1.377 . S
C1832 C1834 1.384 . S
C1833 C1832 1.377 . S
C1833 C1839 1.390 . S
C1834 H1825 0.930 . S
C1834 C1832 1.384 . S
C1834 C1835 1.372 . S
C1835 C1834 1.372 . S
C1835 C1836 1.400 . S
C1835 C1840 1.490 . S
C1836 H1826 0.930 . S
C1836 C1835 1.400 . S
C1836 C1839 1.386 . S
H1837 C1853 0.930 . S
H1838 C1854 0.931 . S
C1839 H1827 0.929 . S
C1839 C1833 1.390 . S
C1839 C1836 1.386 . S
C1840 C1835 1.490 . S
C1840 C1842 1.395 . S
C1840 C1843 1.403 . S
H1841 C1847 0.930 . S
C1842 H1828 0.930 . S
C1842 C1840 1.395 . S
C1842 C1845 1.403 . S
C1843 C1840 1.403 . S
C1843 C1844 1.524 . S
C1843 C1847 1.400 . S
C1844 H1829 0.960 . S
C1844 H1830 0.960 . S
C1844 H1831 0.960 . S
C1844 C1843 1.524 . S
C1845 C1842 1.403 . S
C1845 C1846 1.392 . S
C1845 C1849 1.495 . S
C1846 C1845 1.392 . S
C1846 C1847 1.385 . S
C1846 C1848 1.478 . S
C1847 H1841 0.930 . S
C1847 C1843 1.400 . S
C1847 C1846 1.385 . S
C1848 C1846 1.478 . S
C1848 C1850 1.381 . S
C1848 C1854 1.383 . S
C1849 C1845 1.495 . S
C1849 H1855 0.959 . S
C1849 H1856 0.961 . S
C1849 H1857 0.960 . S
C1850 C1848 1.381 . S
C1850 C1851 1.394 . S
C1850 H1858 0.930 . S
C1851 C1850 1.394 . S
C1851 C1852 1.383 . S
C1851 H1859 0.929 . S
C1852 C1851 1.383 . S
C1852 C1853 1.377 . S
C1853 H1837 0.930 . S
C1853 C1852 1.377 . S
C1853 C1854 1.379 . S
C1854 H1838 0.931 . S
C1854 C1848 1.383 . S
C1854 C1853 1.379 . S
H1855 C1849 0.959 . S
H1856 C1849 0.961 . S
H1857 C1849 0.960 . S
H1858 C1850 0.930 . S
H1859 C1851 0.929 . S
H1860 C1868 0.929 . S
H1861 C1870 0.930 . S
H1862 C1872 0.930 . S
H1863 C1875 0.929 . S
H1864 C1878 0.930 . S
H1865 C1880 0.960 . S
H1866 C1880 0.960 . S
H1867 C1880 0.960 . S
C1868 H1860 0.929 . S
C1868 C1869 1.377 . S
C1868 C1870 1.384 . S
C1869 C1868 1.377 . S
C1869 C1875 1.390 . S
C1870 H1861 0.930 . S
C1870 C1868 1.384 . S
C1870 C1871 1.372 . S
C1871 C1870 1.372 . S
C1871 C1872 1.400 . S
C1871 C1876 1.490 . S
C1872 H1862 0.930 . S
C1872 C1871 1.400 . S
C1872 C1875 1.386 . S
H1873 C1889 0.930 . S
H1874 C1890 0.931 . S
C1875 H1863 0.929 . S
C1875 C1869 1.390 . S
C1875 C1872 1.386 . S
C1876 C1871 1.490 . S
C1876 C1878 1.395 . S
C1876 C1879 1.403 . S
H1877 C1883 0.930 . S
C1878 H1864 0.930 . S
C1878 C1876 1.395 . S
C1878 C1881 1.403 . S
C1879 C1876 1.403 . S
C1879 C1880 1.524 . S
C1879 C1883 1.400 . S
C1880 H1865 0.960 . S
C1880 H1866 0.960 . S
C1880 H1867 0.960 . S
C1880 C1879 1.524 . S
C1881 C1878 1.403 . S
C1881 C1882 1.392 . S
C1881 C1885 1.495 . S
C1882 C1881 1.392 . S
C1882 C1883 1.385 . S
C1882 C1884 1.478 . S
C1883 H1877 0.930 . S
C1883 C1879 1.400 . S
C1883 C1882 1.385 . S
C1884 C1882 1.478 . S
C1884 C1886 1.381 . S
C1884 C1890 1.383 . S
C1885 C1881 1.495 . S
C1885 H1891 0.959 . S
C1885 H1892 0.961 . S
C1885 H1893 0.960 . S
C1886 C1884 1.381 . S
C1886 C1887 1.394 . S
C1886 H1894 0.930 . S
C1887 C1886 1.394 . S
C1887 C1888 1.383 . S
C1887 H1895 0.929 . S
C1888 C1887 1.383 . S
C1888 C1889 1.377 . S
C1889 H1873 0.930 . S
C1889 C1888 1.377 . S
C1889 C1890 1.379 . S
C1890 H1874 0.931 . S
C1890 C1884 1.383 . S
C1890 C1889 1.379 . S
H1891 C1885 0.959 . S
H1892 C1885 0.961 . S
H1893 C1885 0.960 . S
H1894 C1886 0.930 . S
H1895 C1887 0.929 . S
H1896 C1904 0.929 . S
H1897 C1906 0.930 . S
H1898 C1908 0.930 . S
H1899 C1911 0.929 . S
H1900 C1914 0.930 . S
H1901 C1916 0.960 . S
H1902 C1916 0.960 . S
H1903 C1916 0.960 . S
C1904 H1896 0.929 . S
C1904 C1905 1.377 . S
C1904 C1906 1.384 . S
C1905 C1904 1.377 . S
C1905 C1911 1.390 . S
C1906 H1897 0.930 . S
C1906 C1904 1.384 . S
C1906 C1907 1.372 . S
C1907 C1906 1.372 . S
C1907 C1908 1.400 . S
C1907 C1912 1.490 . S
C1908 H1898 0.930 . S
C1908 C1907 1.400 . S
C1908 C1911 1.386 . S
H1909 C1925 0.930 . S
H1910 C1926 0.931 . S
C1911 H1899 0.929 . S
C1911 C1905 1.390 . S
C1911 C1908 1.386 . S
C1912 C1907 1.490 . S
C1912 C1914 1.395 . S
C1912 C1915 1.403 . S
H1913 C1919 0.930 . S
C1914 H1900 0.930 . S
C1914 C1912 1.395 . S
C1914 C1917 1.403 . S
C1915 C1912 1.403 . S
C1915 C1916 1.524 . S
C1915 C1919 1.400 . S
C1916 H1901 0.960 . S
C1916 H1902 0.960 . S
C1916 H1903 0.960 . S
C1916 C1915 1.524 . S
C1917 C1914 1.403 . S
C1917 C1918 1.392 . S
C1917 C1921 1.495 . S
C1918 C1917 1.392 . S
C1918 C1919 1.385 . S
C1918 C1920 1.478 . S
C1919 H1913 0.930 . S
C1919 C1915 1.400 . S
C1919 C1918 1.385 . S
C1920 C1918 1.478 . S
C1920 C1922 1.381 . S
C1920 C1926 1.383 . S
C1921 C1917 1.495 . S
C1921 H1927 0.959 . S
C1921 H1928 0.961 . S
C1921 H1929 0.960 . S
C1922 C1920 1.381 . S
C1922 C1923 1.394 . S
C1922 H1930 0.930 . S
C1923 C1922 1.394 . S
C1923 C1924 1.383 . S
C1923 H1931 0.929 . S
C1924 C1923 1.383 . S
C1924 C1925 1.377 . S
C1925 H1909 0.930 . S
C1925 C1924 1.377 . S
C1925 C1926 1.379 . S
C1926 H1910 0.931 . S
C1926 C1920 1.383 . S
C1926 C1925 1.379 . S
H1927 C1921 0.959 . S
H1928 C1921 0.961 . S
H1929 C1921 0.960 . S
H1930 C1922 0.930 . S
H1931 C1923 0.929 . S
H1932 C1940 0.929 . S
H1933 C1942 0.930 . S
H1934 C1944 0.930 . S
H1935 C1947 0.929 . S
H1936 C1950 0.930 . S
H1937 C1952 0.960 . S
H1938 C1952 0.960 . S
H1939 C1952 0.960 . S
C1940 H1932 0.929 . S
C1940 C1941 1.377 . S
C1940 C1942 1.384 . S
C1941 C1940 1.377 . S
C1941 C1947 1.390 . S
C1942 H1933 0.930 . S
C1942 C1940 1.384 . S
C1942 C1943 1.372 . S
C1943 C1942 1.372 . S
C1943 C1944 1.400 . S
C1943 C1948 1.490 . S
C1944 H1934 0.930 . S
C1944 C1943 1.400 . S
C1944 C1947 1.386 . S
H1945 C1961 0.930 . S
H1946 C1962 0.931 . S
C1947 H1935 0.929 . S
C1947 C1941 1.390 . S
C1947 C1944 1.386 . S
C1948 C1943 1.490 . S
C1948 C1950 1.395 . S
C1948 C1951 1.403 . S
H1949 C1955 0.930 . S
C1950 H1936 0.930 . S
C1950 C1948 1.395 . S
C1950 C1953 1.403 . S
C1951 C1948 1.403 . S
C1951 C1952 1.524 . S
C1951 C1955 1.400 . S
C1952 H1937 0.960 . S
C1952 H1938 0.960 . S
C1952 H1939 0.960 . S
C1952 C1951 1.524 . S
C1953 C1950 1.403 . S
C1953 C1954 1.392 . S
C1953 C1957 1.495 . S
C1954 C1953 1.392 . S
C1954 C1955 1.385 . S
C1954 C1956 1.478 . S
C1955 H1949 0.930 . S
C1955 C1951 1.400 . S
C1955 C1954 1.385 . S
C1956 C1954 1.478 . S
C1956 C1958 1.381 . S
C1956 C1962 1.383 . S
C1957 C1953 1.495 . S
C1957 H1963 0.959 . S
C1957 H1964 0.961 . S
C1957 H1965 0.960 . S
C1958 C1956 1.381 . S
C1958 C1959 1.394 . S
C1958 H1966 0.930 . S
C1959 C1958 1.394 . S
C1959 C1960 1.383 . S
C1959 H1967 0.929 . S
C1960 C1959 1.383 . S
C1960 C1961 1.377 . S
C1961 H1945 0.930 . S
C1961 C1960 1.377 . S
C1961 C1962 1.379 . S
C1962 H1946 0.931 . S
C1962 C1956 1.383 . S
C1962 C1961 1.379 . S
H1963 C1957 0.959 . S
H1964 C1957 0.961 . S
H1965 C1957 0.960 . S
H1966 C1958 0.930 . S
H1967 C1959 0.929 . S
H1968 C1976 0.929 . S
H1969 C1978 0.930 . S
H1970 C1980 0.930 . S
H1971 C1983 0.929 . S
H1972 C1986 0.930 . S
H1973 C1988 0.960 . S
H1974 C1988 0.960 . S
H1975 C1988 0.960 . S
C1976 H1968 0.929 . S
C1976 C1977 1.377 . S
C1976 C1978 1.384 . S
C1977 C1976 1.377 . S
C1977 C1983 1.390 . S
C1978 H1969 0.930 . S
C1978 C1976 1.384 . S
C1978 C1979 1.372 . S
C1979 C1978 1.372 . S
C1979 C1980 1.400 . S
C1979 C1984 1.490 . S
C1980 H1970 0.930 . S
C1980 C1979 1.400 . S
C1980 C1983 1.386 . S
H1981 C1997 0.930 . S
H1982 C1998 0.931 . S
C1983 H1971 0.929 . S
C1983 C1977 1.390 . S
C1983 C1980 1.386 . S
C1984 C1979 1.490 . S
C1984 C1986 1.395 . S
C1984 C1987 1.403 . S
H1985 C1991 0.930 . S
C1986 H1972 0.930 . S
C1986 C1984 1.395 . S
C1986 C1989 1.403 . S
C1987 C1984 1.403 . S
C1987 C1988 1.524 . S
C1987 C1991 1.400 . S
C1988 H1973 0.960 . S
C1988 H1974 0.960 . S
C1988 H1975 0.960 . S
C1988 C1987 1.524 . S
C1989 C1986 1.403 . S
C1989 C1990 1.392 . S
C1989 C1993 1.495 . S
C1990 C1989 1.392 . S
C1990 C1991 1.385 . S
C1990 C1992 1.478 . S
C1991 H1985 0.930 . S
C1991 C1987 1.400 . S
C1991 C1990 1.385 . S
C1992 C1990 1.478 . S
C1992 C1994 1.381 . S
C1992 C1998 1.383 . S
C1993 C1989 1.495 . S
C1993 H1999 0.959 . S
C1993 H2000 0.961 . S
C1993 H2001 0.960 . S
C1994 C1992 1.381 . S
C1994 C1995 1.394 . S
C1994 H2002 0.930 . S
C1995 C1994 1.394 . S
C1995 C1996 1.383 . S
C1995 H2003 0.929 . S
C1996 C1995 1.383 . S
C1996 C1997 1.377 . S
C1997 H1981 0.930 . S
C1997 C1996 1.377 . S
C1997 C1998 1.379 . S
C1998 H1982 0.931 . S
C1998 C1992 1.383 . S
C1998 C1997 1.379 . S
H1999 C1993 0.959 . S
H2000 C1993 0.961 . S
H2001 C1993 0.960 . S
H2002 C1994 0.930 . S
H2003 C1995 0.929 . S
H2004 C2012 0.929 . S
H2005 C2014 0.930 . S
H2006 C2016 0.930 . S
H2007 C2019 0.929 . S
H2008 C2022 0.930 . S
H2009 C2024 0.960 . S
H2010 C2024 0.960 . S
H2011 C2024 0.960 . S
C2012 H2004 0.929 . S
C2012 C2013 1.377 . S
C2012 C2014 1.384 . S
C2013 C2012 1.377 . S
C2013 C2019 1.390 . S
C2014 H2005 0.930 . S
C2014 C2012 1.384 . S
C2014 C2015 1.372 . S
C2015 C2014 1.372 . S
C2015 C2016 1.400 . S
C2015 C2020 1.490 . S
C2016 H2006 0.930 . S
C2016 C2015 1.400 . S
C2016 C2019 1.386 . S
H2017 C2033 0.930 . S
H2018 C2034 0.931 . S
C2019 H2007 0.929 . S
C2019 C2013 1.390 . S
C2019 C2016 1.386 . S
C2020 C2015 1.490 . S
C2020 C2022 1.395 . S
C2020 C2023 1.403 . S
H2021 C2027 0.930 . S
C2022 H2008 0.930 . S
C2022 C2020 1.395 . S
C2022 C2025 1.403 . S
C2023 C2020 1.403 . S
C2023 C2024 1.524 . S
C2023 C2027 1.400 . S
C2024 H2009 0.960 . S
C2024 H2010 0.960 . S
C2024 H2011 0.960 . S
C2024 C2023 1.524 . S
C2025 C2022 1.403 . S
C2025 C2026 1.392 . S
C2025 C2029 1.495 . S
C2026 C2025 1.392 . S
C2026 C2027 1.385 . S
C2026 C2028 1.478 . S
C2027 H2021 0.930 . S
C2027 C2023 1.400 . S
C2027 C2026 1.385 . S
C2028 C2026 1.478 . S
C2028 C2030 1.381 . S
C2028 C2034 1.383 . S
C2029 C2025 1.495 . S
C2029 H2035 0.959 . S
C2029 H2036 0.961 . S
C2029 H2037 0.960 . S
C2030 C2028 1.381 . S
C2030 C2031 1.394 . S
C2030 H2038 0.930 . S
C2031 C2030 1.394 . S
C2031 C2032 1.383 . S
C2031 H2039 0.929 . S
C2032 C2031 1.383 . S
C2032 C2033 1.377 . S
C2033 H2017 0.930 . S
C2033 C2032 1.377 . S
C2033 C2034 1.379 . S
C2034 H2018 0.931 . S
C2034 C2028 1.383 . S
C2034 C2033 1.379 . S
H2035 C2029 0.959 . S
H2036 C2029 0.961 . S
H2037 C2029 0.960 . S
H2038 C2030 0.930 . S
H2039 C2031 0.929 . S
C321 C5 1.180 . S
C340 C96 1.158 . S
C357 C109 1.170 . S
C376 C18 1.206 . S
C393 C31 1.174 . S
C412 C122 1.203 . S
C429 C44 1.179 . S
C448 C135 1.179 . S
C465 C148 1.175 . S
C484 C57 1.134 . S
C501 C70 1.175 . S
C520 C83 1.200 . S
C537 C161 1.167 . S
C556 C252 1.173 . S
C573 C174 1.165 . S
C592 C265 1.203 . S
C609 C278 1.171 . S
C628 C187 1.150 . S
C645 C200 1.171 . S
C664 C291 1.149 . S
C681 C213 1.177 . S
C700 C304 1.178 . S
C717 C239 1.176 . S
C736 C226 1.180 . S
C753 C0 1.168 . S
C772 C104 1.190 . S
C789 C117 1.161 . S
C808 C13 1.185 . S
C825 C130 1.169 . S
C844 C26 1.186 . S
C861 C39 1.159 . S
C880 C143 1.153 . S
C897 C52 1.168 . S
C916 C78 1.189 . S
C933 C65 1.163 . S
C952 C91 1.133 . S
C969 C260 1.163 . S
C988 C156 1.158 . S
C1005 C169 1.170 . S
C1024 C273 1.144 . S
C1041 C286 1.169 . S
C1060 C182 1.151 . S
C1077 C299 1.164 . S
C1096 C195 1.155 . S
C1113 C234 1.171 . S
C1132 C208 1.138 . S
C1149 C221 1.159 . S
C1168 C247 1.191 . S
C1185 C8 1.495 . S
C1204 C203 1.470 . S
C1221 C216 1.496 . S
C1240 C21 1.483 . S
C1257 C229 1.492 . S
C1276 C34 1.471 . S
C1293 C47 1.493 . S
C1312 C164 1.502 . S
C1329 C60 1.492 . S
C1348 C177 1.506 . S
C1365 C190 1.491 . S
C1384 C73 1.474 . S
C1401 C281 1.489 . S
C1420 C86 1.481 . S
C1437 C294 1.496 . S
C1456 C99 1.477 . S
C1473 C307 1.491 . S
C1492 C112 1.508 . S
C1509 C242 1.489 . S
C1528 C125 1.486 . S
C1545 C138 1.488 . S
C1564 C255 1.503 . S
C1581 C151 1.489 . S
C1600 C268 1.508 . S
C1617 C10 1.523 . S
C1636 C140 1.507 . S
C1653 C153 1.525 . S
C1672 C23 1.514 . S
C1689 C88 1.524 . S
C1708 C36 1.526 . S
C1725 C49 1.522 . S
C1744 C101 1.532 . S
C1761 C62 1.522 . S
C1780 C114 1.532 . S
C1797 C75 1.523 . S
C1816 C127 1.507 . S
C1833 C166 1.525 . S
C1852 C296 1.531 . S
C1869 C179 1.521 . S
C1888 C309 1.510 . S
C1905 C192 1.525 . S
C1924 C244 1.532 . S
C1941 C257 1.522 . S
C1960 C205 1.518 . S
C1977 C218 1.522 . S
C1996 C270 1.519 . S
C2013 C231 1.521 . S
C2032 C283 1.508 . S
