# Generated by pormake.
# Topology wlk, (5)-cn, num edge types: 1
# Building blocks:
#     Node 0, Type 0, BuildingBlock: BEQFEK_clean_sbu_0, # of connection points: 5
#     Node 1, Type 0, BuildingBlock: BEQFEK_clean_sbu_0, # of connection points: 5
#     Node 2, Type 0, BuildingBlock: BEQFEK_clean_sbu_0, # of connection points: 5
#     Node 3, Type 0, BuildingBlock: BEQFEK_clean_sbu_0, # of connection points: 5
#     Node 4, Type 0, BuildingBlock: BEQFEK_clean_sbu_0, # of connection points: 5
#     Node 5, Type 0, BuildingBlock: BEQFEK_clean_sbu_0, # of connection points: 5
#     Node 6, Type 0, BuildingBlock: BEQFEK_clean_sbu_0, # of connection points: 5
#     Node 7, Type 0, BuildingBlock: BEQFEK_clean_sbu_0, # of connection points: 5
#     Node 8, Type 0, BuildingBlock: BEQFEK_clean_sbu_0, # of connection points: 5
#     Node 9, Type 0, BuildingBlock: BEQFEK_clean_sbu_0, # of connection points: 5
#     Node 10, Type 0, BuildingBlock: BEQFEK_clean_sbu_0, # of connection points: 5
#     Node 11, Type 0, BuildingBlock: BEQFEK_clean_sbu_0, # of connection points: 5
#     Node 12, Type 0, BuildingBlock: BEQFEK_clean_sbu_0, # of connection points: 5
#     Node 13, Type 0, BuildingBlock: BEQFEK_clean_sbu_0, # of connection points: 5
#     Node 14, Type 0, BuildingBlock: BEQFEK_clean_sbu_0, # of connection points: 5
#     Node 15, Type 0, BuildingBlock: BEQFEK_clean_sbu_0, # of connection points: 5
#     Node 16, Type 0, BuildingBlock: BEQFEK_clean_sbu_0, # of connection points: 5
#     Node 17, Type 0, BuildingBlock: BEQFEK_clean_sbu_0, # of connection points: 5
#     Edge 18, Type (0, 0), BuildingBlock: UVAHIK_clean_linker_0, # of connection points: 2
#     Edge 19, Type (0, 0), BuildingBlock: UVAHIK_clean_linker_0, # of connection points: 2
#     Edge 20, Type (0, 0), BuildingBlock: UVAHIK_clean_linker_0, # of connection points: 2
#     Edge 21, Type (0, 0), BuildingBlock: UVAHIK_clean_linker_0, # of connection points: 2
#     Edge 22, Type (0, 0), BuildingBlock: UVAHIK_clean_linker_0, # of connection points: 2
#     Edge 23, Type (0, 0), BuildingBlock: UVAHIK_clean_linker_0, # of connection points: 2
#     Edge 24, Type (0, 0), BuildingBlock: UVAHIK_clean_linker_0, # of connection points: 2
#     Edge 25, Type (0, 0), BuildingBlock: UVAHIK_clean_linker_0, # of connection points: 2
#     Edge 26, Type (0, 0), BuildingBlock: UVAHIK_clean_linker_0, # of connection points: 2
#     Edge 27, Type (0, 0), BuildingBlock: UVAHIK_clean_linker_0, # of connection points: 2
#     Edge 28, Type (0, 0), BuildingBlock: UVAHIK_clean_linker_0, # of connection points: 2
#     Edge 29, Type (0, 0), BuildingBlock: UVAHIK_clean_linker_0, # of connection points: 2
#     Edge 30, Type (0, 0), BuildingBlock: UVAHIK_clean_linker_0, # of connection points: 2
#     Edge 31, Type (0, 0), BuildingBlock: UVAHIK_clean_linker_0, # of connection points: 2
#     Edge 32, Type (0, 0), BuildingBlock: UVAHIK_clean_linker_0, # of connection points: 2
#     Edge 33, Type (0, 0), BuildingBlock: UVAHIK_clean_linker_0, # of connection points: 2
#     Edge 34, Type (0, 0), BuildingBlock: UVAHIK_clean_linker_0, # of connection points: 2
#     Edge 35, Type (0, 0), BuildingBlock: UVAHIK_clean_linker_0, # of connection points: 2
#     Edge 36, Type (0, 0), BuildingBlock: UVAHIK_clean_linker_0, # of connection points: 2
#     Edge 37, Type (0, 0), BuildingBlock: UVAHIK_clean_linker_0, # of connection points: 2
#     Edge 38, Type (0, 0), BuildingBlock: UVAHIK_clean_linker_0, # of connection points: 2
#     Edge 39, Type (0, 0), BuildingBlock: UVAHIK_clean_linker_0, # of connection points: 2
#     Edge 40, Type (0, 0), BuildingBlock: UVAHIK_clean_linker_0, # of connection points: 2
#     Edge 41, Type (0, 0), BuildingBlock: UVAHIK_clean_linker_0, # of connection points: 2
#     Edge 42, Type (0, 0), BuildingBlock: UVAHIK_clean_linker_0, # of connection points: 2
#     Edge 43, Type (0, 0), BuildingBlock: UVAHIK_clean_linker_0, # of connection points: 2
#     Edge 44, Type (0, 0), BuildingBlock: UVAHIK_clean_linker_0, # of connection points: 2
#     Edge 45, Type (0, 0), BuildingBlock: UVAHIK_clean_linker_0, # of connection points: 2
#     Edge 46, Type (0, 0), BuildingBlock: UVAHIK_clean_linker_0, # of connection points: 2
#     Edge 47, Type (0, 0), BuildingBlock: UVAHIK_clean_linker_0, # of connection points: 2
#     Edge 48, Type (0, 0), BuildingBlock: UVAHIK_clean_linker_0, # of connection points: 2
#     Edge 49, Type (0, 0), BuildingBlock: UVAHIK_clean_linker_0, # of connection points: 2
#     Edge 50, Type (0, 0), BuildingBlock: UVAHIK_clean_linker_0, # of connection points: 2
#     Edge 51, Type (0, 0), BuildingBlock: UVAHIK_clean_linker_0, # of connection points: 2
#     Edge 52, Type (0, 0), BuildingBlock: UVAHIK_clean_linker_0, # of connection points: 2
#     Edge 53, Type (0, 0), BuildingBlock: UVAHIK_clean_linker_0, # of connection points: 2
#     Edge 54, Type (0, 0), BuildingBlock: UVAHIK_clean_linker_0, # of connection points: 2
#     Edge 55, Type (0, 0), BuildingBlock: UVAHIK_clean_linker_0, # of connection points: 2
#     Edge 56, Type (0, 0), BuildingBlock: UVAHIK_clean_linker_0, # of connection points: 2
#     Edge 57, Type (0, 0), BuildingBlock: UVAHIK_clean_linker_0, # of connection points: 2
#     Edge 58, Type (0, 0), BuildingBlock: UVAHIK_clean_linker_0, # of connection points: 2
#     Edge 59, Type (0, 0), BuildingBlock: UVAHIK_clean_linker_0, # of connection points: 2
#     Edge 60, Type (0, 0), BuildingBlock: UVAHIK_clean_linker_0, # of connection points: 2
#     Edge 61, Type (0, 0), BuildingBlock: UVAHIK_clean_linker_0, # of connection points: 2
#     Edge 62, Type (0, 0), BuildingBlock: UVAHIK_clean_linker_0, # of connection points: 2
# Relax obj value: 0.045
# Max RMSD: 0.100
# Mean RMSD: 0.100
data_MOF--net-wlk--node1-BEQFEK_clean_sbu_0--edge1-UVAHIK_clean_linker_0
_symmetry_space_group_name_H-M    P1
_symmetry_Int_Tables_number       1
_symmetry_cell_setting            triclinic
loop_
_symmetry_equiv_pos_as_xyz
'x, y, z'
_cell_length_a     81.664379
_cell_length_b     81.64484
_cell_length_c     39.310343
_cell_angle_alpha  89.991988
_cell_angle_beta   90.00099
_cell_angle_gamma 119.99927
loop_
_atom_site_label
_atom_site_type_symbol
_atom_site_fract_x
_atom_site_fract_y
_atom_site_fract_z
_atom_type_partial_charge
Co0 Co 0.21438 0.26467 0.15595 0.0
Co1 Co 0.18314 0.26297 0.10714 0.0
C2 C 0.19282 0.23218 0.1078 0.0
O3 O 0.20507 0.24058 0.13102 0.0
O4 O 0.1831 0.23918 0.09609 0.0
C5 C 0.22967 0.25037 0.20561 0.0
O6 O 0.21623 0.23391 0.19455 0.0
C7 C 0.14646 0.2487 0.07304 0.0
C8 C 0.14972 0.27484 0.04982 0.0
C9 C 0.13746 0.25553 0.05225 0.0
N10 N 0.16326 0.26336 0.08242 0.0
N11 N 0.16504 0.27895 0.0687 0.0
C12 C 0.14038 0.22853 0.08098 0.0
H13 H 0.14736 0.22353 0.06286 0.0
H14 H 0.145 0.22748 0.10706 0.0
H15 H 0.12489 0.21922 0.07859 0.0
C16 C 0.19269 0.27317 0.2056 0.0
N17 N 0.19439 0.26715 0.17463 0.0
N18 N 0.18103 0.26614 0.15455 0.0
C19 C 0.17029 0.27142 0.17225 0.0
C20 C 0.17734 0.27614 0.2052 0.0
C21 C 0.20741 0.27897 0.2328 0.0
H22 H 0.22161 0.28819 0.22163 0.0
H23 H 0.20713 0.26617 0.24307 0.0
H24 H 0.20522 0.28665 0.25392 0.0
O25 O 0.22939 0.28591 0.12435 0.0
O26 O 0.20706 0.2847 0.09035 0.0
H27 H 0.16059 0.28567 0.13947 0.0
H28 H 0.14618 0.27554 0.17703 0.0
C29 C 0.15457 0.27341 0.1571 0.0
H30 H 0.14511 0.26054 0.14229 0.0
H31 H 0.17696 0.29232 0.07148 0.0
O32 O 0.23139 0.26544 0.19272 0.0
C33 C 0.22433 0.29225 0.09927 0.0
Co34 Co 0.73496 0.9503 0.15638 0.0
Co35 Co 0.73877 0.92147 0.10905 0.0
C36 C 0.76958 0.96168 0.11347 0.0
O37 O 0.76013 0.96503 0.13532 0.0
O38 O 0.76314 0.94529 0.10053 0.0
C39 C 0.74614 0.975 0.21361 0.0
O40 O 0.76076 0.97238 0.21332 0.0
C41 C 0.7531 0.89812 0.07814 0.0
C42 C 0.72675 0.87444 0.05729 0.0
C43 C 0.746 0.88123 0.06022 0.0
N44 N 0.73867 0.90108 0.0853 0.0
N45 N 0.72299 0.8869 0.07265 0.0
C46 C 0.77287 0.91063 0.0905 0.0
H47 H 0.77279 0.91815 0.11397 0.0
H48 H 0.77994 0.90228 0.09562 0.0
H49 H 0.781 0.92136 0.07071 0.0
C50 C 0.72428 0.91936 0.20586 0.0
N51 N 0.73138 0.9275 0.17554 0.0
N52 N 0.73363 0.91561 0.15622 0.0
C53 C 0.72823 0.89954 0.17393 0.0
C54 C 0.72209 0.90137 0.20595 0.0
C55 C 0.717 0.92752 0.23195 0.0
H56 H 0.71044 0.93494 0.21924 0.0
H57 H 0.729 0.9379 0.24767 0.0
H58 H 0.70639 0.91645 0.24892 0.0
O59 O 0.71528 0.94476 0.12184 0.0
O60 O 0.71783 0.92401 0.08899 0.0
H61 H 0.71614 0.87541 0.14126 0.0
H62 H 0.72591 0.87213 0.18021 0.0
C63 C 0.72789 0.88236 0.15981 0.0
H64 H 0.74135 0.88655 0.14638 0.0
H65 H 0.70969 0.88569 0.0747 0.0
O66 O 0.73318 0.96665 0.19157 0.0
C67 C 0.70998 0.93368 0.09632 0.0
Co68 Co 0.0489 0.7853 0.15769 0.0
Co69 Co 0.07803 0.8168 0.10865 0.0
C70 C 0.03771 0.80737 0.11125 0.0
O71 O 0.0342 0.79495 0.13395 0.0
O72 O 0.05423 0.8172 0.09877 0.0
C73 C 0.01882 0.76873 0.20634 0.0
O74 O 0.01505 0.78158 0.19481 0.0
C75 C 0.101 0.85409 0.07669 0.0
C76 C 0.1227 0.85025 0.05011 0.0
C77 C 0.11649 0.86305 0.05512 0.0
N78 N 0.09825 0.8368 0.08402 0.0
N79 N 0.11136 0.83467 0.06829 0.0
C80 C 0.08768 0.86073 0.08722 0.0
H81 H 0.0756 0.85495 0.06922 0.0
H82 H 0.08202 0.85528 0.11299 0.0
H83 H 0.09456 0.87635 0.0869 0.0
C84 C 0.07915 0.80665 0.20694 0.0
N85 N 0.07137 0.80517 0.17616 0.0
N86 N 0.0838 0.81844 0.15602 0.0
C87 C 0.10005 0.82875 0.17349 0.0
C88 C 0.09766 0.82151 0.20632 0.0
C89 C 0.06952 0.79294 0.2354 0.0
H90 H 0.05564 0.79182 0.24052 0.0
H91 H 0.07805 0.79743 0.25908 0.0
H92 H 0.06692 0.77876 0.2277 0.0
O93 O 0.05508 0.77056 0.12533 0.0
O94 O 0.07538 0.79294 0.09048 0.0
H95 H 0.12229 0.8362 0.13752 0.0
H96 H 0.12984 0.84983 0.17636 0.0
C97 C 0.11824 0.84313 0.15746 0.0
H98 H 0.11624 0.85421 0.14505 0.0
H99 H 0.11225 0.82236 0.06924 0.0
O100 O 0.03281 0.76788 0.19422 0.0
C101 C 0.06594 0.77565 0.09948 0.0
Co102 Co 0.78524 0.73392 0.83979 0.0
Co103 Co 0.81667 0.73748 0.89013 0.0
C104 C 0.80567 0.76713 0.88734 0.0
O105 O 0.79357 0.75793 0.86432 0.0
O106 O 0.81602 0.76108 0.89988 0.0
C107 C 0.77061 0.74775 0.78851 0.0
O108 O 0.78462 0.76416 0.7985 0.0
C109 C 0.85361 0.75278 0.92368 0.0
C110 C 0.85043 0.72747 0.95023 0.0
C111 C 0.86276 0.74663 0.94559 0.0
N112 N 0.83667 0.73788 0.91575 0.0
N113 N 0.83492 0.72279 0.93148 0.0
C114 C 0.8598 0.77263 0.91309 0.0
H115 H 0.85363 0.77865 0.93088 0.0
H116 H 0.85443 0.77269 0.88717 0.0
H117 H 0.87538 0.78171 0.91372 0.0
C118 C 0.80803 0.72619 0.79166 0.0
N119 N 0.80585 0.73226 0.82222 0.0
N120 N 0.81924 0.73389 0.84294 0.0
C121 C 0.83047 0.72893 0.82603 0.0
C122 C 0.82374 0.72384 0.79296 0.0
C123 C 0.79344 0.71972 0.76409 0.0
H124 H 0.77921 0.7105 0.77516 0.0
H125 H 0.79355 0.73223 0.75278 0.0
H126 H 0.79592 0.71182 0.74375 0.0
O127 O 0.77054 0.71255 0.87125 0.0
O128 O 0.79288 0.71562 0.90724 0.0
H129 H 0.84052 0.71578 0.86071 0.0
H130 H 0.85483 0.72512 0.8228 0.0
C131 C 0.84636 0.72757 0.84208 0.0
H132 H 0.85571 0.74085 0.85596 0.0
H133 H 0.82293 0.70937 0.93008 0.0
O134 O 0.7683 0.7327 0.80247 0.0
C135 C 0.77569 0.70711 0.89748 0.0
Co136 Co 0.26601 0.05168 0.84371 0.0
Co137 Co 0.26225 0.07989 0.89294 0.0
C138 C 0.23269 0.03908 0.89073 0.0
O139 O 0.24191 0.03613 0.86783 0.0
O140 O 0.23874 0.05551 0.90321 0.0
C141 C 0.2529 0.02252 0.79362 0.0
O142 O 0.23625 0.01939 0.80368 0.0
C143 C 0.24627 0.10149 0.92414 0.0
C144 C 0.27177 0.12626 0.94491 0.0
C145 C 0.25234 0.11828 0.94187 0.0
N146 N 0.2614 0.09968 0.91717 0.0
N147 N 0.27658 0.11448 0.92982 0.0
C148 C 0.22676 0.0881 0.91155 0.0
H149 H 0.22745 0.08103 0.88791 0.0
H150 H 0.21882 0.09561 0.90666 0.0
H151 H 0.2191 0.07706 0.93112 0.0
C152 C 0.27343 0.08153 0.79434 0.0
N153 N 0.26755 0.07367 0.82524 0.0
N154 N 0.26588 0.08561 0.8454 0.0
C155 C 0.27063 0.10155 0.82772 0.0
C156 C 0.27561 0.09952 0.79478 0.0
C157 C 0.27982 0.07311 0.76717 0.0
H158 H 0.28941 0.06861 0.77842 0.0
H159 H 0.26734 0.06035 0.75673 0.0
H160 H 0.28732 0.08315 0.74615 0.0
O161 O 0.28721 0.05878 0.87568 0.0
O162 O 0.28426 0.07845 0.91088 0.0
H163 H 0.28385 0.12543 0.86088 0.0
H164 H 0.27391 0.12944 0.82282 0.0
C165 C 0.27184 0.11895 0.84276 0.0
H166 H 0.25867 0.1151 0.85692 0.0
H167 H 0.29026 0.11662 0.92781 0.0
O168 O 0.26772 0.03586 0.80714 0.0
C169 C 0.29271 0.06963 0.90155 0.0
Co170 Co 0.94822 0.21397 0.84061 0.0
Co171 Co 0.92161 0.18201 0.89128 0.0
C172 C 0.96212 0.19324 0.88506 0.0
O173 O 0.96444 0.20556 0.86287 0.0
O174 O 0.94601 0.18259 0.89846 0.0
C175 C 0.97298 0.22696 0.78367 0.0
O176 O 0.97181 0.21039 0.78693 0.0
C177 C 0.90072 0.1452 0.9261 0.0
C178 C 0.87835 0.14816 0.95219 0.0
C179 C 0.88551 0.13607 0.94823 0.0
N180 N 0.9024 0.16192 0.91744 0.0
N181 N 0.8889 0.16351 0.93291 0.0
C182 C 0.91464 0.13926 0.91595 0.0
H183 H 0.92743 0.14683 0.93211 0.0
H184 H 0.919 0.14335 0.88911 0.0
H185 H 0.90883 0.12386 0.91923 0.0
C186 C 0.91697 0.19118 0.79355 0.0
N187 N 0.92575 0.19341 0.82358 0.0
N188 N 0.9145 0.1798 0.84446 0.0
C189 C 0.89816 0.16832 0.82813 0.0
C190 C 0.89917 0.17515 0.7953 0.0
C191 C 0.92432 0.20584 0.76602 0.0
H192 H 0.93092 0.22016 0.77744 0.0
H193 H 0.93529 0.20468 0.75133 0.0
H194 H 0.91299 0.20413 0.74836 0.0
O195 O 0.94185 0.22828 0.87333 0.0
O196 O 0.92406 0.20569 0.91028 0.0
H197 H 0.87517 0.15733 0.86334 0.0
H198 H 0.87053 0.14319 0.82532 0.0
C199 C 0.88142 0.15196 0.84443 0.0
H200 H 0.88602 0.14304 0.85801 0.0
H201 H 0.88719 0.17532 0.93095 0.0
O202 O 0.96358 0.23136 0.80373 0.0
C203 C 0.93213 0.22288 0.90058 0.0
Co204 Co 0.87917 0.59634 0.48886 0.0
Co205 Co 0.84728 0.59389 0.44082 0.0
C206 C 0.85741 0.56343 0.44173 0.0
O207 O 0.86971 0.57214 0.46469 0.0
O208 O 0.84751 0.57014 0.42967 0.0
C209 C 0.89565 0.58268 0.53728 0.0
O210 O 0.88227 0.56608 0.52662 0.0
C211 C 0.80987 0.57862 0.4094 0.0
C212 C 0.81082 0.60447 0.38999 0.0
C213 C 0.79935 0.585 0.39193 0.0
N214 N 0.82676 0.59361 0.41722 0.0
N215 N 0.82726 0.60902 0.40543 0.0
C216 C 0.80367 0.55887 0.42074 0.0
H217 H 0.81096 0.55912 0.44472 0.0
H218 H 0.78813 0.55071 0.4246 0.0
H219 H 0.80755 0.55172 0.40095 0.0
C220 C 0.85786 0.60479 0.53914 0.0
N221 N 0.8593 0.59867 0.50812 0.0
N222 N 0.84566 0.59738 0.48847 0.0
C223 C 0.835 0.60261 0.50661 0.0
C224 C 0.8424 0.60755 0.53931 0.0
C225 C 0.87291 0.61085 0.5658 0.0
H226 H 0.88694 0.62023 0.55416 0.0
H227 H 0.87298 0.59819 0.57585 0.0
H228 H 0.87078 0.61846 0.58715 0.0
O229 O 0.89352 0.61728 0.45646 0.0
O230 O 0.87085 0.61573 0.42296 0.0
H231 H 0.82472 0.61662 0.47456 0.0
H232 H 0.81075 0.6064 0.51249 0.0
C233 C 0.819 0.60437 0.49215 0.0
H234 H 0.80948 0.59144 0.47755 0.0
H235 H 0.83881 0.62265 0.40811 0.0
O236 O 0.89683 0.59759 0.52479 0.0
C237 C 0.88821 0.62341 0.43143 0.0
Co238 Co 0.40055 0.28256 0.49165 0.0
Co239 Co 0.40413 0.25433 0.44198 0.0
C240 C 0.43381 0.29513 0.44458 0.0
O241 O 0.42471 0.29807 0.46771 0.0
O242 O 0.42762 0.27874 0.43183 0.0
C243 C 0.41404 0.31134 0.54253 0.0
O244 O 0.43061 0.31429 0.53227 0.0
C245 C 0.41857 0.23128 0.40939 0.0
C246 C 0.39348 0.21125 0.37976 0.0
C247 C 0.41215 0.21653 0.38614 0.0
N248 N 0.4043 0.23456 0.41627 0.0
N249 N 0.38931 0.22238 0.39871 0.0
C250 C 0.43817 0.24281 0.42323 0.0
H251 H 0.44013 0.25585 0.4356 0.0
H252 H 0.44063 0.23438 0.44259 0.0
H253 H 0.44871 0.24642 0.40259 0.0
C254 C 0.39261 0.25213 0.54022 0.0
N255 N 0.39872 0.26023 0.50956 0.0
N256 N 0.40044 0.24838 0.48921 0.0
C257 C 0.3954 0.23224 0.50642 0.0
C258 C 0.39027 0.23407 0.53937 0.0
C259 C 0.38618 0.26043 0.56755 0.0
H260 H 0.37688 0.26529 0.55629 0.0
H261 H 0.39869 0.27294 0.57856 0.0
H262 H 0.37836 0.25019 0.58813 0.0
O263 O 0.37949 0.27615 0.45948 0.0
O264 O 0.3822 0.25606 0.42499 0.0
H265 H 0.38252 0.20919 0.4714 0.0
H266 H 0.39101 0.20385 0.51007 0.0
C267 C 0.39396 0.21488 0.49072 0.0
H268 H 0.40742 0.21864 0.47765 0.0
H269 H 0.37636 0.22202 0.39893 0.0
O270 O 0.39912 0.29825 0.5288 0.0
C271 C 0.37391 0.26509 0.43389 0.0
Co272 Co 0.71622 0.11866 0.491 0.0
Co273 Co 0.74571 0.15022 0.44263 0.0
C274 C 0.7052 0.14028 0.44309 0.0
O275 O 0.70135 0.12785 0.46598 0.0
O276 O 0.72195 0.15022 0.43169 0.0
C277 C 0.686 0.10231 0.53954 0.0
O278 O 0.68217 0.11507 0.52771 0.0
C279 C 0.768 0.18722 0.40959 0.0
C280 C 0.79059 0.18409 0.38484 0.0
C281 C 0.78359 0.19635 0.38833 0.0
N282 N 0.76592 0.17034 0.41821 0.0
N283 N 0.77958 0.16865 0.40363 0.0
C284 C 0.75403 0.19328 0.41861 0.0
H285 H 0.74236 0.18727 0.39973 0.0
H286 H 0.74791 0.18773 0.4441 0.0
H287 H 0.76054 0.20887 0.41826 0.0
C288 C 0.74611 0.1403 0.54106 0.0
N289 N 0.73851 0.13869 0.51001 0.0
N290 N 0.75091 0.15212 0.49011 0.0
C291 C 0.76686 0.16283 0.50803 0.0
C292 C 0.7644 0.15567 0.54094 0.0
C293 C 0.7371 0.12542 0.56801 0.0
H294 H 0.73239 0.11131 0.55667 0.0
H295 H 0.72441 0.12546 0.57795 0.0
H296 H 0.74683 0.12761 0.58938 0.0
O297 O 0.72288 0.10396 0.4595 0.0
O298 O 0.74358 0.12641 0.42521 0.0
H299 H 0.7908 0.17268 0.47519 0.0
H300 H 0.79513 0.18683 0.51313 0.0
C301 C 0.78461 0.17861 0.49311 0.0
H302 H 0.78125 0.18822 0.47863 0.0
H303 H 0.78102 0.15668 0.40564 0.0
O304 O 0.69997 0.1014 0.52751 0.0
C305 C 0.73411 0.10911 0.43417 0.0
Co306 Co 0.45211 0.06786 0.17664 0.0
Co307 Co 0.48466 0.07239 0.22497 0.0
C308 C 0.47368 0.10205 0.22141 0.0
O309 O 0.46121 0.09245 0.19918 0.0
O310 O 0.48413 0.09615 0.23411 0.0
C311 C 0.43849 0.07987 0.12103 0.0
O312 O 0.45521 0.09513 0.12369 0.0
C313 C 0.52227 0.08835 0.25631 0.0
C314 C 0.52151 0.06271 0.27642 0.0
C315 C 0.53293 0.08216 0.27388 0.0
N316 N 0.50536 0.07325 0.24896 0.0
N317 N 0.50497 0.05798 0.26121 0.0
C318 C 0.52838 0.10797 0.24434 0.0
H319 H 0.5209 0.10748 0.22045 0.0
H320 H 0.54389 0.11609 0.24008 0.0
H321 H 0.52466 0.11533 0.26396 0.0
C322 C 0.47381 0.05925 0.12723 0.0
N323 N 0.47217 0.06572 0.15779 0.0
N324 N 0.48615 0.06797 0.17758 0.0
C325 C 0.49729 0.06316 0.15992 0.0
C326 C 0.48983 0.05744 0.12744 0.0
C327 C 0.45863 0.05202 0.10064 0.0
H328 H 0.44453 0.04443 0.11292 0.0
H329 H 0.45964 0.06418 0.08625 0.0
H330 H 0.45988 0.04229 0.08254 0.0
O331 O 0.43827 0.04727 0.20975 0.0
O332 O 0.46134 0.05079 0.24428 0.0
H333 H 0.509 0.0508 0.19273 0.0
H334 H 0.52251 0.06102 0.15437 0.0
C335 C 0.51399 0.06274 0.17455 0.0
H336 H 0.52304 0.07607 0.18851 0.0
H337 H 0.49346 0.04431 0.25888 0.0
O338 O 0.43418 0.06607 0.14103 0.0
C339 C 0.44396 0.04222 0.23575 0.0
Co340 Co 0.93066 0.38148 0.17743 0.0
Co341 Co 0.92654 0.41048 0.22356 0.0
C342 C 0.89581 0.37037 0.21959 0.0
O343 O 0.90538 0.367 0.19808 0.0
O344 O 0.90217 0.38678 0.23234 0.0
C345 C 0.92113 0.35858 0.11774 0.0
O346 O 0.90922 0.36473 0.11268 0.0
C347 C 0.91177 0.43377 0.25278 0.0
C348 C 0.93778 0.45761 0.27428 0.0
C349 C 0.91853 0.45068 0.27051 0.0
N350 N 0.92637 0.43094 0.24653 0.0
N351 N 0.94184 0.44521 0.25956 0.0
C352 C 0.89219 0.42113 0.23967 0.0
H353 H 0.89264 0.41359 0.2165 0.0
H354 H 0.8851 0.42938 0.23379 0.0
H355 H 0.88385 0.41042 0.25935 0.0
C356 C 0.94219 0.41254 0.1275 0.0
N357 N 0.93462 0.4043 0.15756 0.0
N358 N 0.93187 0.41608 0.1763 0.0
C359 C 0.93721 0.43205 0.15832 0.0
C360 C 0.94396 0.43035 0.12682 0.0
C361 C 0.95053 0.40491 0.10247 0.0
H362 H 0.95523 0.39595 0.11556 0.0
H363 H 0.93968 0.39625 0.08323 0.0
H364 H 0.9628 0.41651 0.08902 0.0
O365 O 0.95008 0.3871 0.21246 0.0
O366 O 0.94744 0.40809 0.24447 0.0
H367 H 0.94832 0.45636 0.1905 0.0
H368 H 0.93859 0.45897 0.15093 0.0
C369 C 0.93678 0.44899 0.17168 0.0
H370 H 0.92311 0.44444 0.18459 0.0
H371 H 0.95521 0.44652 0.25822 0.0
O372 O 0.932 0.36434 0.14346 0.0
C373 C 0.95527 0.39833 0.23777 0.0
Co374 Co 0.61623 0.54862 0.17567 0.0
Co375 Co 0.58678 0.51623 0.22262 0.0
C376 C 0.62726 0.52613 0.22121 0.0
O377 O 0.63107 0.53882 0.19886 0.0
O378 O 0.61056 0.51612 0.23279 0.0
C379 C 0.64192 0.56197 0.1199 0.0
O380 O 0.64002 0.54505 0.12203 0.0
C381 C 0.56426 0.479 0.2552 0.0
C382 C 0.54122 0.48196 0.27848 0.0
C383 C 0.54831 0.46975 0.27562 0.0
N384 N 0.56644 0.49591 0.24643 0.0
N385 N 0.55253 0.4975 0.26018 0.0
C386 C 0.57837 0.47299 0.24701 0.0
H387 H 0.59019 0.47964 0.26551 0.0
H388 H 0.58426 0.478 0.22119 0.0
H389 H 0.57208 0.45745 0.24864 0.0
C390 C 0.5859 0.52781 0.12523 0.0
N391 N 0.59375 0.52903 0.15595 0.0
N392 N 0.58159 0.51506 0.17529 0.0
C393 C 0.56567 0.50436 0.15731 0.0
C394 C 0.56783 0.5121 0.12499 0.0
C395 C 0.59436 0.5431 0.0989 0.0
H396 H 0.60119 0.55716 0.11139 0.0
H397 H 0.60534 0.54175 0.0846 0.0
H398 H 0.58362 0.54228 0.08067 0.0
O399 O 0.60994 0.56291 0.20882 0.0
O400 O 0.58877 0.5397 0.24134 0.0
H401 H 0.54146 0.49313 0.18975 0.0
H402 H 0.53798 0.47961 0.15129 0.0
C403 C 0.54823 0.4879 0.17164 0.0
H404 H 0.55209 0.47855 0.1857 0.0
H405 H 0.55107 0.50944 0.25784 0.0
O406 O 0.6328 0.5665 0.14037 0.0
C407 C 0.59844 0.55718 0.23375 0.0
Co408 Co 0.54679 0.93113 0.82468 0.0
Co409 Co 0.51511 0.92796 0.77536 0.0
C410 C 0.52526 0.89763 0.77855 0.0
O411 O 0.5375 0.9067 0.80142 0.0
O412 O 0.51532 0.90408 0.76567 0.0
C413 C 0.56242 0.91774 0.8751 0.0
O414 O 0.5486 0.90115 0.86544 0.0
C415 C 0.47799 0.91277 0.74256 0.0
C416 C 0.48109 0.93811 0.71629 0.0
C417 C 0.46879 0.91895 0.72085 0.0
N418 N 0.49495 0.92765 0.75042 0.0
N419 N 0.49664 0.94278 0.7349 0.0
C420 C 0.47184 0.89288 0.75291 0.0
H421 H 0.47778 0.88684 0.73469 0.0
H422 H 0.47742 0.89276 0.7786 0.0
H423 H 0.45624 0.88387 0.75272 0.0
C424 C 0.52495 0.93981 0.87348 0.0
N425 N 0.52673 0.93354 0.84282 0.0
N426 N 0.51315 0.93192 0.82262 0.0
C427 C 0.50219 0.93706 0.83996 0.0
C428 C 0.50931 0.94227 0.8728 0.0
C429 C 0.5398 0.9462 0.90058 0.0
H430 H 0.55395 0.95514 0.88904 0.0
H431 H 0.53953 0.93363 0.91198 0.0
H432 H 0.53773 0.95438 0.92092 0.0
O433 O 0.56139 0.95181 0.79196 0.0
O434 O 0.5388 0.94961 0.7575 0.0
H435 H 0.49172 0.95013 0.80601 0.0
H436 H 0.47776 0.94069 0.84427 0.0
C437 C 0.4861 0.93832 0.82459 0.0
H438 H 0.47668 0.92504 0.81077 0.0
H439 H 0.50865 0.95619 0.73625 0.0
O440 O 0.56417 0.93262 0.86133 0.0
C441 C 0.55612 0.95754 0.7663 0.0
Co442 Co 0.06698 0.61649 0.82239 0.0
Co443 Co 0.0715 0.58791 0.77561 0.0
C444 C 0.10166 0.62836 0.77926 0.0
O445 O 0.09203 0.63152 0.80101 0.0
O446 O 0.09556 0.61194 0.76664 0.0
C447 C 0.07805 0.64148 0.87905 0.0
O448 O 0.09291 0.63924 0.87837 0.0
C449 C 0.08634 0.56479 0.74549 0.0
C450 C 0.06011 0.54067 0.72522 0.0
C451 C 0.07941 0.54772 0.72818 0.0
N452 N 0.07176 0.56757 0.75232 0.0
N453 N 0.05616 0.55315 0.73999 0.0
C454 C 0.10607 0.57759 0.75771 0.0
H455 H 0.10591 0.58538 0.78074 0.0
H456 H 0.11326 0.56943 0.7635 0.0
H457 H 0.11414 0.58808 0.73755 0.0
C458 C 0.05711 0.58597 0.87244 0.0
N459 N 0.06396 0.594 0.84194 0.0
N460 N 0.0666 0.58227 0.8229 0.0
C461 C 0.06179 0.56646 0.84102 0.0
C462 C 0.05555 0.56824 0.87299 0.0
C463 C 0.04951 0.59392 0.89832 0.0
H464 H 0.04277 0.60113 0.88544 0.0
H465 H 0.06136 0.60445 0.91414 0.0
H466 H 0.03895 0.58276 0.91522 0.0
O467 O 0.04714 0.6104 0.78794 0.0
O468 O 0.05023 0.58987 0.7554 0.0
H469 H 0.05052 0.54206 0.80902 0.0
H470 H 0.06081 0.5397 0.84811 0.0
C471 C 0.06225 0.54958 0.82742 0.0
H472 H 0.07579 0.55422 0.81396 0.0
H473 H 0.04278 0.55175 0.74194 0.0
O474 O 0.06495 0.63279 0.85738 0.0
C475 C 0.04206 0.59926 0.76253 0.0
Co476 Co 0.38309 0.45322 0.8225 0.0
Co477 Co 0.41237 0.4846 0.77355 0.0
C478 C 0.37169 0.47441 0.77471 0.0
O479 O 0.36797 0.46228 0.7981 0.0
O480 O 0.38834 0.48412 0.76277 0.0
C481 C 0.35335 0.43691 0.87191 0.0
O482 O 0.34944 0.44968 0.86042 0.0
C483 C 0.43402 0.52195 0.74184 0.0
C484 C 0.45732 0.52007 0.71701 0.0
C485 C 0.44989 0.53191 0.72147 0.0
N486 N 0.43226 0.50505 0.74916 0.0
N487 N 0.44628 0.50406 0.73441 0.0
C488 C 0.41957 0.52728 0.7515 0.0
H489 H 0.41462 0.52252 0.77788 0.0
H490 H 0.42503 0.54266 0.74923 0.0
H491 H 0.4072 0.51985 0.73432 0.0
C492 C 0.4133 0.47509 0.87198 0.0
N493 N 0.40549 0.47332 0.84108 0.0
N494 N 0.41772 0.48674 0.82094 0.0
C495 C 0.43374 0.49761 0.83856 0.0
C496 C 0.43154 0.49055 0.87149 0.0
C497 C 0.40455 0.46031 0.89916 0.0
H498 H 0.39985 0.44617 0.88797 0.0
H499 H 0.39187 0.46031 0.90934 0.0
H500 H 0.41444 0.46267 0.92033 0.0
O501 O 0.38951 0.43857 0.79043 0.0
O502 O 0.41066 0.46092 0.75643 0.0
H503 H 0.45744 0.50766 0.80506 0.0
H504 H 0.46198 0.52174 0.84316 0.0
C505 C 0.45133 0.51349 0.82335 0.0
H506 H 0.44777 0.52307 0.80929 0.0
H507 H 0.44808 0.49229 0.73567 0.0
O508 O 0.36718 0.43595 0.85931 0.0
C509 C 0.40092 0.44364 0.76536 0.0
Co510 Co 0.11851 0.40047 0.50922 0.0
Co511 Co 0.15021 0.40367 0.55849 0.0
C512 C 0.13918 0.4334 0.55707 0.0
O513 O 0.12705 0.4244 0.534 0.0
O514 O 0.14947 0.42717 0.56925 0.0
C515 C 0.10247 0.41406 0.45999 0.0
O516 O 0.116 0.43062 0.47047 0.0
C517 C 0.18765 0.41953 0.58989 0.0
C518 C 0.18692 0.39404 0.61069 0.0
C519 C 0.19833 0.41348 0.60775 0.0
N520 N 0.17075 0.40438 0.58276 0.0
N521 N 0.17036 0.3892 0.5954 0.0
C522 C 0.19375 0.43906 0.57734 0.0
H523 H 0.18612 0.43837 0.55354 0.0
H524 H 0.20923 0.44708 0.57273 0.0
H525 H 0.19021 0.44664 0.59681 0.0
C526 C 0.1409 0.39303 0.45977 0.0
N527 N 0.13895 0.39891 0.49068 0.0
N528 N 0.15244 0.40036 0.51092 0.0
C529 C 0.16353 0.39548 0.49327 0.0
C530 C 0.15656 0.3906 0.46029 0.0
C531 C 0.12613 0.38681 0.43255 0.0
H532 H 0.11203 0.37719 0.44369 0.0
H533 H 0.12589 0.39937 0.42239 0.0
H534 H 0.12869 0.37942 0.41136 0.0
O535 O 0.10424 0.37905 0.54067 0.0
O536 O 0.12665 0.38159 0.57598 0.0
H537 H 0.17382 0.3819 0.5264 0.0
H538 H 0.18795 0.39188 0.48853 0.0
C539 C 0.17954 0.39399 0.50842 0.0
H540 H 0.18892 0.40707 0.52276 0.0
H541 H 0.15885 0.37551 0.59331 0.0
O542 O 0.10106 0.39911 0.47279 0.0
C543 C 0.10943 0.37329 0.56642 0.0
Co544 Co 0.59735 0.71672 0.50986 0.0
Co545 Co 0.59484 0.746 0.55808 0.0
C546 C 0.56436 0.70551 0.55699 0.0
O547 O 0.57312 0.70185 0.5342 0.0
O548 O 0.57104 0.72217 0.56878 0.0
C549 C 0.58337 0.68734 0.46005 0.0
O550 O 0.56689 0.68463 0.47028 0.0
C551 C 0.58011 0.76836 0.59076 0.0
C552 C 0.60585 0.79105 0.61531 0.0
C553 C 0.58661 0.78408 0.6117 0.0
N554 N 0.59488 0.76619 0.5824 0.0
N555 N 0.61024 0.77989 0.5969 0.0
C556 C 0.56008 0.75442 0.58164 0.0
H557 H 0.55953 0.74846 0.55601 0.0
H558 H 0.55098 0.76091 0.5823 0.0
H559 H 0.55445 0.74263 0.60025 0.0
C560 C 0.60585 0.74683 0.45996 0.0
N561 N 0.59975 0.73909 0.49089 0.0
N562 N 0.59826 0.75127 0.51068 0.0
C563 C 0.60324 0.76718 0.4928 0.0
C564 C 0.60832 0.76496 0.46005 0.0
C565 C 0.61212 0.73813 0.43312 0.0
H566 H 0.621 0.73289 0.44485 0.0
H567 H 0.5995 0.72581 0.42192 0.0
H568 H 0.62032 0.74824 0.4126 0.0
O569 O 0.61837 0.72308 0.54199 0.0
O570 O 0.61659 0.74405 0.57558 0.0
H571 H 0.61651 0.79123 0.52559 0.0
H572 H 0.60641 0.79501 0.48747 0.0
C573 C 0.60446 0.78464 0.50757 0.0
H574 H 0.59132 0.78081 0.52186 0.0
H575 H 0.62363 0.7813 0.59498 0.0
O576 O 0.59839 0.70047 0.47344 0.0
C577 C 0.62438 0.73447 0.56709 0.0
Co578 Co 0.28353 0.88141 0.51104 0.0
Co579 Co 0.25407 0.8496 0.55896 0.0
C580 C 0.29429 0.85841 0.55527 0.0
O581 O 0.29798 0.87098 0.53279 0.0
O582 O 0.27783 0.84894 0.56816 0.0
C583 C 0.31087 0.89597 0.45782 0.0
O584 O 0.31067 0.87991 0.46204 0.0
C585 C 0.23139 0.81226 0.59096 0.0
C586 C 0.20933 0.81575 0.61698 0.0
C587 C 0.2159 0.8032 0.6125 0.0
N588 N 0.23381 0.82937 0.58316 0.0
N589 N 0.22047 0.83128 0.59853 0.0
C590 C 0.24504 0.80592 0.58105 0.0
H591 H 0.25705 0.812 0.59921 0.0
H592 H 0.25073 0.81127 0.55525 0.0
H593 H 0.23842 0.79032 0.5817 0.0
C594 C 0.25293 0.8612 0.46144 0.0
N595 N 0.26076 0.86218 0.492 0.0
N596 N 0.24831 0.84863 0.5117 0.0
C597 C 0.23204 0.8386 0.49415 0.0
C598 C 0.23442 0.84633 0.46175 0.0
C599 C 0.2626 0.87524 0.43346 0.0
H600 H 0.27573 0.87527 0.4263 0.0
H601 H 0.25357 0.87184 0.4105 0.0
H602 H 0.26658 0.88961 0.44267 0.0
O603 O 0.27803 0.89592 0.54498 0.0
O604 O 0.25676 0.87327 0.57826 0.0
H605 H 0.20959 0.83063 0.52981 0.0
H606 H 0.20239 0.81721 0.49076 0.0
C607 C 0.21388 0.82393 0.50983 0.0
H608 H 0.21604 0.81292 0.52212 0.0
H609 H 0.21934 0.84344 0.59726 0.0
O610 O 0.29998 0.89939 0.47577 0.0
C611 C 0.26683 0.89067 0.57035 0.0
C612 C 0.25459 0.26833 0.24941 0.0
C613 C 0.24307 0.25137 0.23186 0.0
C614 C 0.26773 0.26939 0.27338 0.0
C615 C 0.29682 0.24859 0.29356 0.0
H616 H 0.30124 0.26983 0.38358 0.0
C617 C 0.34794 0.2471 0.39209 0.0
C618 C 0.3577 0.26285 0.4135 0.0
C619 C 0.33313 0.24525 0.37167 0.0
C620 C 0.30039 0.2641 0.35839 0.0
H621 H 0.23611 0.22217 0.22593 0.0
H622 H 0.25933 0.22416 0.26735 0.0
H623 H 0.27699 0.26774 0.34452 0.0
H624 H 0.3595 0.28895 0.43055 0.0
H625 H 0.33409 0.28611 0.39399 0.0
H626 H 0.32049 0.24548 0.30655 0.0
C627 C 0.25812 0.23658 0.26261 0.0
C628 C 0.28644 0.26284 0.33613 0.0
C629 C 0.24479 0.23544 0.23904 0.0
C630 C 0.35217 0.2766 0.41442 0.0
C631 C 0.33752 0.2749 0.39357 0.0
C632 C 0.31091 0.25009 0.31556 0.0
C633 C 0.26978 0.25359 0.27983 0.0
C634 C 0.28449 0.25498 0.30359 0.0
C635 C 0.32791 0.25927 0.37169 0.0
C636 C 0.31284 0.25776 0.34836 0.0
H637 H 0.25351 0.28082 0.24453 0.0
H638 H 0.27664 0.28269 0.28622 0.0
H639 H 0.29579 0.24274 0.26839 0.0
H640 H 0.35171 0.23614 0.39112 0.0
H641 H 0.32578 0.23279 0.35586 0.0
C642 C 0.7299 0.99154 0.2376 0.0
C643 C 0.74479 0.98761 0.23907 0.0
C644 C 0.72886 0.00385 0.26101 0.0
C645 C 0.75837 0.04279 0.31978 0.0
H646 H 0.70984 0.03301 0.35447 0.0
C647 C 0.72534 0.07542 0.42286 0.0
C648 C 0.73602 0.09471 0.41437 0.0
C649 C 0.72679 0.06184 0.40353 0.0
C650 C 0.72353 0.03586 0.34533 0.0
H651 H 0.77007 0.99323 0.26672 0.0
H652 H 0.76811 0.01454 0.3079 0.0
H653 H 0.71142 0.0098 0.31778 0.0
H654 H 0.7568 0.11482 0.37905 0.0
H655 H 0.75914 0.09112 0.34522 0.0
H656 H 0.77049 0.06877 0.34765 0.0
C657 C 0.75741 0.00834 0.28826 0.0
C658 C 0.72441 0.02266 0.32396 0.0
C659 C 0.75848 0.99606 0.26476 0.0
C660 C 0.74836 0.1001 0.38636 0.0
C661 C 0.74981 0.08651 0.36707 0.0
C662 C 0.75749 0.056 0.34118 0.0
C663 C 0.74264 0.01247 0.28653 0.0
C664 C 0.74182 0.02605 0.31066 0.0
C665 C 0.73897 0.06722 0.3753 0.0
C666 C 0.74004 0.05277 0.35394 0.0
H667 H 0.71915 0.98531 0.21806 0.0
H668 H 0.71746 0.00693 0.25861 0.0
H669 H 0.77199 0.04594 0.30976 0.0
H670 H 0.71574 0.07077 0.44433 0.0
H671 H 0.71842 0.04711 0.41079 0.0
C672 C 0.98864 0.75266 0.23929 0.0
C673 C 0.00661 0.7551 0.23251 0.0
C674 C 0.97674 0.73929 0.26307 0.0
C675 C 0.9692 0.69611 0.30806 0.0
H676 H 0.93481 0.70503 0.36253 0.0
C677 C 0.92176 0.64492 0.41347 0.0
C678 C 0.90253 0.63956 0.41134 0.0
C679 C 0.93518 0.65972 0.39352 0.0
C680 C 0.94432 0.70236 0.34738 0.0
H681 H 0.02649 0.74591 0.24607 0.0
H682 H 0.00598 0.72298 0.2884 0.0
H683 H 0.95738 0.72989 0.32501 0.0
H684 H 0.88238 0.64583 0.38724 0.0
H685 H 0.90593 0.67189 0.35281 0.0
H686 H 0.95622 0.66863 0.33099 0.0
C687 C 0.00081 0.73098 0.27465 0.0
C688 C 0.9572 0.71654 0.32576 0.0
C689 C 0.01262 0.7442 0.25052 0.0
C690 C 0.89707 0.64957 0.38937 0.0
C691 C 0.91054 0.66455 0.36982 0.0
C692 C 0.95649 0.68203 0.33002 0.0
C693 C 0.98263 0.72821 0.281 0.0
C694 C 0.96965 0.71352 0.30548 0.0
C695 C 0.92969 0.66964 0.37148 0.0
C696 C 0.9438 0.68495 0.34958 0.0
H697 H 0.98357 0.76078 0.22566 0.0
H698 H 0.96275 0.73735 0.26677 0.0
H699 H 0.97831 0.69311 0.29245 0.0
H700 H 0.92641 0.63747 0.4301 0.0
H701 H 0.94989 0.66346 0.3954 0.0
C702 C 0.6509 0.75241 0.60802 0.0
C703 C 0.64058 0.73649 0.58724 0.0
C704 C 0.66588 0.75414 0.62781 0.0
C705 C 0.69797 0.73434 0.63951 0.0
H706 H 0.70504 0.75713 0.7288 0.0
C707 C 0.74475 0.7298 0.74623 0.0
C708 C 0.75708 0.7469 0.76267 0.0
C709 C 0.73139 0.72889 0.72293 0.0
C710 C 0.70331 0.75088 0.70381 0.0
H711 H 0.63788 0.7099 0.57082 0.0
H712 H 0.66353 0.71253 0.60629 0.0
H713 H 0.67987 0.75462 0.69215 0.0
H714 H 0.76527 0.77651 0.76729 0.0
H715 H 0.74167 0.7748 0.72707 0.0
H716 H 0.72111 0.73004 0.6521 0.0
C717 C 0.66045 0.72397 0.60666 0.0
C718 C 0.68895 0.74951 0.68267 0.0
C719 C 0.64565 0.72239 0.58644 0.0
C720 C 0.75597 0.76313 0.75501 0.0
C721 C 0.74242 0.76215 0.73215 0.0
C722 C 0.71216 0.73546 0.66093 0.0
C723 C 0.67072 0.73983 0.62776 0.0
C724 C 0.68611 0.74129 0.65016 0.0
C725 C 0.72994 0.745 0.71608 0.0
C726 C 0.71499 0.74381 0.6932 0.0
H727 H 0.64747 0.76362 0.6089 0.0
H728 H 0.67371 0.76676 0.64307 0.0
H729 H 0.69644 0.72821 0.61449 0.0
H730 H 0.74535 0.71708 0.75152 0.0
H731 H 0.72185 0.71549 0.71097 0.0
C732 C 0.23863 0.99249 0.7602 0.0
C733 C 0.25436 0.01019 0.76777 0.0
C734 C 0.24015 0.98041 0.7369 0.0
C735 C 0.27584 0.97175 0.69486 0.0
H736 H 0.23318 0.93831 0.63817 0.0
C737 C 0.27972 0.92415 0.58961 0.0
C738 C 0.26547 0.90504 0.59111 0.0
C739 C 0.27856 0.93765 0.60973 0.0
C740 C 0.24517 0.94755 0.65395 0.0
H741 H 0.28386 0.02943 0.75608 0.0
H742 H 0.28639 0.00866 0.7145 0.0
H743 H 0.2309 0.96115 0.67497 0.0
H744 H 0.23868 0.88515 0.61444 0.0
H745 H 0.23655 0.90883 0.64912 0.0
H746 H 0.29015 0.95826 0.67316 0.0
C747 C 0.273 0.0038 0.7273 0.0
C748 C 0.24387 0.96057 0.67517 0.0
C749 C 0.27154 0.01577 0.75099 0.0
C750 C 0.24992 0.89975 0.6128 0.0
C751 C 0.24863 0.9133 0.63248 0.0
C752 C 0.27722 0.9589 0.67326 0.0
C753 C 0.25738 0.98587 0.72021 0.0
C754 C 0.25911 0.9727 0.69623 0.0
C755 C 0.26299 0.93234 0.63128 0.0
C756 C 0.26182 0.94655 0.65292 0.0
H757 H 0.22523 0.98774 0.7729 0.0
H758 H 0.2279 0.96661 0.73262 0.0
H759 H 0.28775 0.98058 0.71109 0.0
H760 H 0.29189 0.92867 0.57321 0.0
H761 H 0.28976 0.95228 0.60825 0.0
C762 C 0.99609 0.23591 0.73565 0.0
C763 C 0.98565 0.24066 0.75793 0.0
C764 C 0.00874 0.2492 0.71245 0.0
C765 C 0.04311 0.28356 0.68286 0.0
H766 H 0.03138 0.31865 0.63761 0.0
C767 C 0.10003 0.35122 0.61627 0.0
C768 C 0.09508 0.35684 0.58599 0.0
C769 C 0.08635 0.33611 0.63532 0.0
C770 C 0.03482 0.30884 0.64972 0.0
H771 H 0.98008 0.26299 0.77297 0.0
H772 H 0.0023 0.28619 0.73295 0.0
H773 H 0.0076 0.29369 0.67324 0.0
H774 H 0.07188 0.35063 0.55158 0.0
H775 H 0.04812 0.32413 0.58455 0.0
H776 H 0.07024 0.29856 0.65895 0.0
C777 C 0.00055 0.27214 0.733 0.0
C778 C 0.02126 0.29466 0.6705 0.0
C779 C 0.98788 0.25886 0.75611 0.0
C780 C 0.07618 0.34678 0.57491 0.0
C781 C 0.06252 0.33163 0.5939 0.0
C782 C 0.05667 0.29772 0.66203 0.0
C783 C 0.01124 0.26752 0.71107 0.0
C784 C 0.0253 0.28197 0.68757 0.0
C785 C 0.06741 0.32621 0.62447 0.0
C786 C 0.05274 0.31063 0.64545 0.0
H787 H 0.99464 0.22198 0.73629 0.0
H788 H 0.01656 0.2451 0.69558 0.0
H789 H 0.04677 0.27414 0.6959 0.0
H790 H 0.11444 0.35867 0.62561 0.0
H791 H 0.09056 0.33247 0.65897 0.0
C792 C 0.91196 0.5683 0.56872 0.0
C793 C 0.90967 0.58398 0.56247 0.0
C794 C 0.92581 0.56973 0.59131 0.0
C795 C 0.9545 0.59606 0.66429 0.0
H796 H 0.98915 0.57985 0.63283 0.0
C797 C 0.02067 0.61081 0.74141 0.0
C798 C 0.02639 0.5972 0.74068 0.0
C799 C 0.00613 0.60904 0.72023 0.0
C800 C 0.97943 0.58415 0.64232 0.0
H801 H 0.91967 0.61328 0.57567 0.0
H802 H 0.94371 0.61564 0.61571 0.0
H803 H 0.96392 0.57669 0.59552 0.0
H804 H 0.02105 0.57081 0.71776 0.0
H805 H 0.9953 0.56736 0.68175 0.0
H806 H 0.96962 0.60311 0.71137 0.0
C807 C 0.93485 0.60232 0.60288 0.0
C808 C 0.96503 0.58241 0.62083 0.0
C809 C 0.92119 0.60099 0.57987 0.0
C810 C 0.0171 0.58164 0.71868 0.0
C811 C 0.00239 0.57973 0.69786 0.0
C812 C 0.96874 0.59756 0.68601 0.0
C813 C 0.93743 0.58676 0.60849 0.0
C814 C 0.95248 0.5884 0.63157 0.0
C815 C 0.9968 0.59348 0.69815 0.0
C816 C 0.98145 0.59168 0.67526 0.0
H817 H 0.90331 0.55501 0.55566 0.0
H818 H 0.92743 0.55749 0.59542 0.0
H819 H 0.94487 0.60062 0.67326 0.0
H820 H 0.02765 0.62303 0.75793 0.0
H821 H 0.00247 0.62009 0.72077 0.0
C822 C 0.41819 0.43429 0.72415 0.0
C823 C 0.40262 0.42911 0.74572 0.0
C824 C 0.41955 0.42062 0.70494 0.0
C825 C 0.39075 0.37495 0.66473 0.0
H826 H 0.43696 0.37255 0.66204 0.0
C827 C 0.39574 0.31806 0.58591 0.0
C828 C 0.41282 0.3236 0.5688 0.0
C829 C 0.39448 0.33 0.60995 0.0
C830 C 0.42402 0.37316 0.66212 0.0
H831 H 0.3763 0.40552 0.76412 0.0
H832 H 0.37856 0.38172 0.72995 0.0
H833 H 0.43496 0.39546 0.69907 0.0
H834 H 0.442 0.34592 0.56348 0.0
H835 H 0.43967 0.36701 0.60434 0.0
H836 H 0.37997 0.35327 0.62693 0.0
C837 C 0.38972 0.39635 0.72816 0.0
C838 C 0.42288 0.38623 0.68348 0.0
C839 C 0.3885 0.40996 0.7478 0.0
C840 C 0.42866 0.34121 0.57642 0.0
C841 C 0.42735 0.35326 0.60007 0.0
C842 C 0.39197 0.36207 0.643 0.0
C843 C 0.40524 0.40157 0.70652 0.0
C844 C 0.40626 0.38728 0.68487 0.0
C845 C 0.41022 0.34787 0.61706 0.0
C846 C 0.40866 0.36106 0.64127 0.0
H847 H 0.42933 0.44891 0.72208 0.0
H848 H 0.43159 0.42502 0.68824 0.0
H849 H 0.37784 0.37564 0.66508 0.0
H850 H 0.38334 0.30447 0.5808 0.0
H851 H 0.38117 0.32518 0.62298 0.0
C852 C 0.56485 0.98332 0.72352 0.0
C853 C 0.57041 0.9736 0.74598 0.0
C854 C 0.57827 0.99826 0.70383 0.0
C855 C 0.62436 0.01606 0.66456 0.0
H856 H 0.62459 0.06358 0.65839 0.0
C857 C 0.68003 0.07811 0.58426 0.0
C858 C 0.67386 0.08879 0.56592 0.0
C859 C 0.66831 0.06497 0.60856 0.0
C860 C 0.62458 0.05033 0.65946 0.0
H861 H 0.5944 0.97193 0.76543 0.0
H862 H 0.61781 0.99786 0.73045 0.0
H863 H 0.60218 0.03877 0.69618 0.0
H864 H 0.65064 0.09415 0.55869 0.0
H865 H 0.62996 0.07082 0.60011 0.0
H866 H 0.64619 0.02717 0.62701 0.0
C867 C 0.60306 0.99393 0.72832 0.0
C868 C 0.61181 0.03617 0.68124 0.0
C869 C 0.58968 0.97917 0.74842 0.0
C870 C 0.65583 0.0862 0.57257 0.0
C871 C 0.64401 0.07289 0.59652 0.0
C872 C 0.63697 0.03011 0.64242 0.0
C873 C 0.59747 0.00359 0.70584 0.0
C874 C 0.61152 0.01889 0.68385 0.0
C875 C 0.65006 0.06203 0.61476 0.0
C876 C 0.63718 0.04739 0.63942 0.0
H877 H 0.55012 0.97941 0.72114 0.0
H878 H 0.57358 0.0054 0.68648 0.0
H879 H 0.62427 0.00277 0.66584 0.0
H880 H 0.69395 0.07995 0.57993 0.0
H881 H 0.6736 0.05715 0.62254 0.0
C882 C 0.40642 0.06299 0.09411 0.0
C883 C 0.42466 0.0789 0.09564 0.0
C884 C 0.39312 0.06234 0.07102 0.0
C885 C 0.38177 0.09328 0.02 0.0
H886 H 0.34686 0.0463 0.97501 0.0
C887 C 0.31916 0.06289 0.91098 0.0
C888 C 0.30903 0.07174 0.92157 0.0
C889 C 0.33418 0.0644 0.9304 0.0
C890 C 0.35662 0.0596 0.98706 0.0
H891 H 0.44336 0.10645 0.07359 0.0
H892 H 0.4202 0.1052 0.03295 0.0
H893 H 0.37166 0.0476 0.01125 0.0
H894 H 0.30696 0.08934 0.96078 0.0
H895 H 0.33294 0.09171 0.99487 0.0
H896 H 0.36689 0.10535 0.99542 0.0
C897 C 0.41609 0.09336 0.05002 0.0
C898 C 0.3707 0.06027 0.00818 0.0
C899 C 0.4294 0.09402 0.07318 0.0
C900 C 0.31446 0.08236 0.95181 0.0
C901 C 0.32945 0.08382 0.97128 0.0
C902 C 0.3677 0.09261 0.99883 0.0
C903 C 0.39775 0.07756 0.04883 0.0
C904 C 0.38334 0.07708 0.02513 0.0
C905 C 0.33941 0.07476 0.96092 0.0
C906 C 0.35487 0.07572 0.98232 0.0
H907 H 0.4023 0.05111 0.1111 0.0
H908 H 0.37905 0.05007 0.07111 0.0
H909 H 0.39116 0.10641 0.03293 0.0
H910 H 0.31545 0.0547 0.88771 0.0
H911 H 0.34174 0.05748 0.92143 0.0
C912 C 0.91613 0.34395 0.05999 0.0
C913 C 0.92183 0.34496 0.09402 0.0
C914 C 0.91684 0.33098 0.03766 0.0
C915 C 0.91233 0.28521 0.03344 0.0
H916 H 0.94579 0.30235 0.95533 0.0
C917 C 0.9266 0.23372 0.9566 0.0
C918 C 0.93027 0.23684 0.92162 0.0
C919 C 0.92512 0.24701 0.97671 0.0
C920 C 0.93606 0.29723 0.97658 0.0
H921 H 0.93248 0.33314 0.13156 0.0
H922 H 0.93306 0.31002 0.09272 0.0
H923 H 0.9435 0.3254 0.99156 0.0
H924 H 0.93485 0.25609 0.88003 0.0
H925 H 0.93135 0.27887 0.91468 0.0
H926 H 0.90425 0.25708 0.01827 0.0
C927 C 0.92835 0.31946 0.08333 0.0
C928 C 0.93489 0.31048 0.99739 0.0
C929 C 0.92808 0.33271 0.10541 0.0
C930 C 0.93219 0.2534 0.90702 0.0
C931 C 0.9303 0.26653 0.927 0.0
C932 C 0.91316 0.27192 0.01226 0.0
C933 C 0.9228 0.31855 0.04931 0.0
C934 C 0.9232 0.30456 0.02617 0.0
C935 C 0.92685 0.26358 0.9622 0.0
C936 C 0.92525 0.27774 0.98379 0.0
H937 H 0.91134 0.35331 0.05056 0.0
H938 H 0.91249 0.33045 0.01146 0.0
H939 H 0.9031 0.28038 0.05545 0.0
H940 H 0.92524 0.22115 0.96861 0.0
H941 H 0.92293 0.24437 0.00377 0.0
C942 C 0.65709 0.59398 0.09274 0.0
C943 C 0.65457 0.57566 0.09412 0.0
C944 C 0.6694 0.6071 0.06902 0.0
C945 C 0.71066 0.61783 0.01559 0.0
H946 H 0.69841 0.653 0.97212 0.0
C947 C 0.76668 0.68516 0.94738 0.0
C948 C 0.76143 0.69079 0.91744 0.0
C949 C 0.7532 0.67013 0.96679 0.0
C950 C 0.70197 0.64315 0.98372 0.0
H951 H 0.66275 0.55664 0.07121 0.0
H952 H 0.68408 0.5795 0.02954 0.0
H953 H 0.67525 0.62831 0.00907 0.0
H954 H 0.73786 0.68473 0.88413 0.0
H955 H 0.71437 0.65834 0.91785 0.0
H956 H 0.73729 0.63253 0.98995 0.0
C957 C 0.67674 0.5838 0.04716 0.0
C958 C 0.68878 0.62914 0.00524 0.0
C959 C 0.66444 0.57067 0.07094 0.0
C960 C 0.74239 0.68084 0.90714 0.0
C961 C 0.7289 0.66577 0.92655 0.0
C962 C 0.72384 0.63182 0.99404 0.0
C963 C 0.67945 0.60221 0.04606 0.0
C964 C 0.69305 0.61644 0.02172 0.0
C965 C 0.73413 0.66031 0.95672 0.0
C966 C 0.71973 0.64478 0.97814 0.0
H967 H 0.64972 0.5983 0.11025 0.0
H968 H 0.67134 0.62124 0.06921 0.0
H969 H 0.71447 0.60838 0.0281 0.0
H970 H 0.78121 0.69251 0.95614 0.0
H971 H 0.75767 0.66648 0.99013 0.0
C972 C 0.57825 0.90316 0.90743 0.0
C973 C 0.57642 0.91904 0.90031 0.0
C974 C 0.59222 0.90461 0.92972 0.0
C975 C 0.62237 0.93169 0.00063 0.0
H976 H 0.6558 0.91413 0.96835 0.0
C977 C 0.68906 0.94584 0.07541 0.0
C978 C 0.69435 0.9319 0.07475 0.0
C979 C 0.67444 0.94423 0.05464 0.0
C980 C 0.64643 0.91882 0.97808 0.0
H981 H 0.58735 0.94871 0.91177 0.0
H982 H 0.61159 0.9511 0.95134 0.0
H983 H 0.6302 0.91096 0.93208 0.0
H984 H 0.68817 0.90512 0.05239 0.0
H985 H 0.66227 0.90195 0.01717 0.0
H986 H 0.63818 0.93911 0.04697 0.0
C987 C 0.60228 0.93762 0.93939 0.0
C988 C 0.63182 0.91707 0.95719 0.0
C989 C 0.58849 0.93626 0.91666 0.0
C990 C 0.68456 0.91621 0.05322 0.0
C991 C 0.66976 0.91446 0.03285 0.0
C992 C 0.63681 0.93319 0.02179 0.0
C993 C 0.60442 0.92186 0.94573 0.0
C994 C 0.6197 0.92353 0.96823 0.0
C995 C 0.66458 0.92851 0.03309 0.0
C996 C 0.64907 0.92681 0.01075 0.0
H997 H 0.56917 0.88971 0.89519 0.0
H998 H 0.59351 0.89222 0.93443 0.0
H999 H 0.61308 0.93664 0.0098 0.0
H1000 H 0.69643 0.95816 0.09158 0.0
H1001 H 0.6711 0.9555 0.05512 0.0
C1002 C 0.09074 0.66324 0.92923 0.0
C1003 C 0.07662 0.65406 0.90447 0.0
C1004 C 0.08961 0.67552 0.95262 0.0
C1005 C 0.05617 0.68874 0.99017 0.0
H1006 H 0.10179 0.7361 0.01005 0.0
C1007 C 0.07921 0.76653 0.05025 0.0
C1008 C 0.06759 0.76122 0.07926 0.0
C1009 C 0.08058 0.75296 0.0308 0.0
C1010 C 0.08891 0.72297 0.00464 0.0
H1011 H 0.05011 0.65042 0.88511 0.0
H1012 H 0.0483 0.67204 0.92551 0.0
H1013 H 0.10337 0.71323 0.97242 0.0
H1014 H 0.04846 0.73743 0.11075 0.0
H1015 H 0.05102 0.71377 0.07695 0.0
H1016 H 0.0416 0.69876 0.0215 0.0
C1017 C 0.06012 0.66955 0.92722 0.0
C1018 C 0.08985 0.70976 0.9834 0.0
C1019 C 0.06122 0.65724 0.90389 0.0
C1020 C 0.05748 0.74202 0.0885 0.0
C1021 C 0.05887 0.72843 0.06903 0.0
C1022 C 0.05522 0.70197 0.01139 0.0
C1023 C 0.07434 0.67892 0.95174 0.0
C1024 C 0.07347 0.69255 0.97567 0.0
C1025 C 0.07039 0.73374 0.03989 0.0
C1026 C 0.07155 0.71931 0.01863 0.0
H1027 H 0.10273 0.66101 0.93048 0.0
H1028 H 0.10067 0.68232 0.97149 0.0
H1029 H 0.04333 0.67553 0.98506 0.0
H1030 H 0.08717 0.78119 0.04231 0.0
H1031 H 0.08937 0.7575 0.00824 0.0
C1032 C 0.258 0.31381 0.08178 0.0
C1033 C 0.23879 0.30853 0.07962 0.0
C1034 C 0.27149 0.32868 0.06201 0.0
C1035 C 0.28067 0.37146 0.01604 0.0
H1036 H 0.31419 0.362 0.96013 0.0
C1037 C 0.32358 0.42102 0.90611 0.0
C1038 C 0.34148 0.42348 0.89863 0.0
C1039 C 0.31203 0.40783 0.93045 0.0
C1040 C 0.30522 0.36507 0.97602 0.0
H1041 H 0.21876 0.31505 0.05574 0.0
H1042 H 0.24239 0.34119 0.02168 0.0
H1043 H 0.29247 0.3377 0.99934 0.0
H1044 H 0.36161 0.4145 0.91154 0.0
H1045 H 0.34171 0.39189 0.95481 0.0
H1046 H 0.29346 0.39887 0.99319 0.0
C1047 C 0.24695 0.33375 0.03854 0.0
C1048 C 0.29273 0.35108 0.99839 0.0
C1049 C 0.23343 0.31871 0.05789 0.0
C1050 C 0.34778 0.41277 0.91651 0.0
C1051 C 0.33632 0.39974 0.9412 0.0
C1052 C 0.29332 0.38555 0.99401 0.0
C1053 C 0.26607 0.33875 0.04017 0.0
C1054 C 0.28017 0.35406 0.01825 0.0
C1055 C 0.31821 0.39696 0.94826 0.0
C1056 C 0.30558 0.38244 0.97333 0.0
H1057 H 0.26257 0.30622 0.09824 0.0
H1058 H 0.28617 0.33235 0.06383 0.0
H1059 H 0.27127 0.37418 0.0314 0.0
H1060 H 0.31829 0.429 0.8926 0.0
H1061 H 0.29806 0.40587 0.93469 0.0
C1062 C 0.97618 0.38628 0.25923 0.0
C1063 C 0.97078 0.40014 0.25978 0.0
C1064 C 0.99074 0.38793 0.28021 0.0
C1065 C 0.01842 0.4132 0.3571 0.0
H1066 H 0.05213 0.39586 0.32524 0.0
C1067 C 0.08637 0.42866 0.42854 0.0
C1068 C 0.08843 0.41285 0.43494 0.0
C1069 C 0.07241 0.42729 0.40631 0.0
C1070 C 0.04274 0.40066 0.33447 0.0
H1071 H 0.97666 0.42679 0.2823 0.0
H1072 H 0.00245 0.43002 0.31797 0.0
H1073 H 0.02712 0.39342 0.28795 0.0
H1074 H 0.07789 0.38338 0.42232 0.0
H1075 H 0.05366 0.38112 0.38289 0.0
H1076 H 0.03445 0.42085 0.40332 0.0
C1077 C 0.9951 0.41756 0.30213 0.0
C1078 C 0.02835 0.39919 0.31322 0.0
C1079 C 0.98037 0.41577 0.28152 0.0
C1080 C 0.07657 0.39578 0.41798 0.0
C1081 C 0.06279 0.3945 0.39533 0.0
C1082 C 0.03298 0.41491 0.37811 0.0
C1083 C 0.00043 0.40362 0.3019 0.0
C1084 C 0.01594 0.40538 0.32431 0.0
C1085 C 0.06043 0.41018 0.38964 0.0
C1086 C 0.04522 0.4086 0.36704 0.0
H1087 H 0.96897 0.37399 0.24293 0.0
H1088 H 0.99418 0.37673 0.27975 0.0
H1089 H 0.00894 0.41775 0.36684 0.0
H1090 H 0.09528 0.442 0.44126 0.0
H1091 H 0.07097 0.43963 0.40211 0.0
C1092 C 0.6015 0.67995 0.41734 0.0
C1093 C 0.58442 0.67477 0.43422 0.0
C1094 C 0.60259 0.66772 0.39377 0.0
C1095 C 0.5814 0.61777 0.37376 0.0
H1096 H 0.60365 0.63451 0.28436 0.0
C1097 C 0.5804 0.56509 0.27564 0.0
C1098 C 0.59632 0.57105 0.25468 0.0
C1099 C 0.57853 0.57804 0.2961 0.0
C1100 C 0.59764 0.62965 0.30939 0.0
H1101 H 0.55505 0.65283 0.43943 0.0
H1102 H 0.55709 0.63133 0.3987 0.0
H1103 H 0.60143 0.65679 0.32287 0.0
H1104 H 0.62276 0.59528 0.23865 0.0
H1105 H 0.61986 0.61778 0.27525 0.0
H1106 H 0.57812 0.59087 0.36113 0.0
C1107 C 0.56958 0.64488 0.40366 0.0
C1108 C 0.5963 0.64241 0.33133 0.0
C1109 C 0.56841 0.65722 0.42681 0.0
C1110 C 0.61027 0.59028 0.2544 0.0
C1111 C 0.60854 0.6032 0.27527 0.0
C1112 C 0.58297 0.60509 0.35207 0.0
C1113 C 0.5867 0.64998 0.38707 0.0
C1114 C 0.5881 0.63655 0.36364 0.0
C1115 C 0.59268 0.59723 0.29652 0.0
C1116 C 0.59104 0.61082 0.31953 0.0
H1117 H 0.61405 0.69344 0.42241 0.0
H1118 H 0.61598 0.67192 0.38142 0.0
H1119 H 0.57526 0.61298 0.39876 0.0
H1120 H 0.56929 0.5504 0.27614 0.0
H1121 H 0.56592 0.57296 0.31148 0.0
C1122 C 0.33502 0.90591 0.41142 0.0
C1123 C 0.3237 0.91 0.43268 0.0
C1124 C 0.34751 0.91939 0.38832 0.0
C1125 C 0.35784 0.96374 0.34441 0.0
H1126 H 0.40785 0.96997 0.33381 0.0
C1127 C 0.4111 0.01541 0.24623 0.0
C1128 C 0.43006 0.02618 0.25667 0.0
C1129 C 0.39792 0.00049 0.26627 0.0
C1130 C 0.39398 0.9685 0.33664 0.0
H1131 H 0.31649 0.93139 0.44621 0.0
H1132 H 0.33848 0.95498 0.40644 0.0
H1133 H 0.38515 0.94557 0.37172 0.0
H1134 H 0.45002 0.02963 0.29636 0.0
H1135 H 0.42696 0.00387 0.33156 0.0
H1136 H 0.36688 0.98709 0.31029 0.0
C1137 C 0.33751 0.94127 0.40715 0.0
C1138 C 0.38088 0.95434 0.35804 0.0
C1139 C 0.32498 0.92777 0.43012 0.0
C1140 C 0.43555 0.0216 0.28749 0.0
C1141 C 0.42235 0.00673 0.30759 0.0
C1142 C 0.37096 0.97793 0.32312 0.0
C1143 C 0.34899 0.93727 0.38607 0.0
C1144 C 0.36269 0.95187 0.36234 0.0
C1145 C 0.40336 0.99604 0.29728 0.0
C1146 C 0.38923 0.98055 0.31912 0.0
H1147 H 0.3343 0.89231 0.41264 0.0
H1148 H 0.35594 0.91576 0.37211 0.0
H1149 H 0.34387 0.96207 0.34681 0.0
H1150 H 0.4064 0.01846 0.22254 0.0
H1151 H 0.38347 0.99236 0.25732 0.0
C1152 C 0.16051 0.36323 0.444 0.0
C1153 C 0.16114 0.38015 0.43488 0.0
C1154 C 0.1627 0.35216 0.41933 0.0
C1155 C 0.17963 0.35306 0.33164 0.0
H1156 H 0.14512 0.29892 0.33556 0.0
C1157 C 0.17391 0.30379 0.22178 0.0
C1158 C 0.17309 0.28676 0.23078 0.0
C1159 C 0.17188 0.31492 0.24654 0.0
C1160 C 0.15499 0.31398 0.33428 0.0
H1161 H 0.16495 0.39908 0.39332 0.0
H1162 H 0.1687 0.3797 0.3499 0.0
H1163 H 0.14376 0.31931 0.37941 0.0
H1164 H 0.16912 0.26771 0.27224 0.0
H1165 H 0.16568 0.28721 0.31582 0.0
H1166 H 0.19087 0.34773 0.28651 0.0
C1167 C 0.16671 0.37504 0.37613 0.0
C1168 C 0.15423 0.32568 0.35945 0.0
C1169 C 0.16452 0.38611 0.40087 0.0
C1170 C 0.16972 0.28078 0.26478 0.0
C1171 C 0.16769 0.29191 0.28961 0.0
C1172 C 0.18039 0.34136 0.30648 0.0
C1173 C 0.16552 0.35777 0.385 0.0
C1174 C 0.16655 0.34536 0.35844 0.0
C1175 C 0.16904 0.30926 0.28085 0.0
C1176 C 0.16806 0.32168 0.30747 0.0
H1177 H 0.15771 0.35824 0.47005 0.0
H1178 H 0.16198 0.33908 0.42709 0.0
H1179 H 0.18948 0.36813 0.33035 0.0
H1180 H 0.17671 0.3088 0.19574 0.0
H1181 H 0.17272 0.32806 0.23885 0.0
C1182 C 0.63512 0.7966 0.44353 0.0
C1183 C 0.61867 0.77986 0.43435 0.0
C1184 C 0.64607 0.80987 0.41878 0.0
C1185 C 0.64536 0.82457 0.32982 0.0
H1186 H 0.69981 0.84736 0.33729 0.0
C1187 C 0.69561 0.86934 0.22171 0.0
C1188 C 0.71159 0.88638 0.23141 0.0
C1189 C 0.6845 0.85597 0.24623 0.0
C1190 C 0.68465 0.84124 0.335 0.0
H1191 H 0.60044 0.76391 0.39253 0.0
H1192 H 0.6197 0.78697 0.34895 0.0
H1193 H 0.67949 0.82521 0.38075 0.0
H1194 H 0.7288 0.90278 0.2739 0.0
H1195 H 0.7094 0.87942 0.31697 0.0
H1196 H 0.65056 0.84056 0.28394 0.0
C1197 C 0.62405 0.79003 0.3753 0.0
C1198 C 0.67299 0.82859 0.35995 0.0
C1199 C 0.61307 0.77679 0.40013 0.0
C1200 C 0.71657 0.88967 0.2659 0.0
C1201 C 0.70551 0.87628 0.29044 0.0
C1202 C 0.65703 0.83719 0.30481 0.0
C1203 C 0.64085 0.8066 0.38428 0.0
C1204 C 0.6532 0.82013 0.35773 0.0
C1205 C 0.68919 0.8594 0.28092 0.0
C1206 C 0.6768 0.84569 0.30715 0.0
H1207 H 0.63986 0.79918 0.46973 0.0
H1208 H 0.65875 0.82261 0.42666 0.0
H1209 H 0.6302 0.81851 0.32755 0.0
H1210 H 0.69134 0.86661 0.19527 0.0
H1211 H 0.67215 0.84302 0.23805 0.0
C1212 C 0.12315 0.84231 0.24728 0.0
C1213 C 0.11257 0.82478 0.23111 0.0
C1214 C 0.13649 0.8448 0.27215 0.0
C1215 C 0.1486 0.81739 0.33188 0.0
H1216 H 0.19702 0.86367 0.33743 0.0
C1217 C 0.2091 0.82573 0.42038 0.0
C1218 C 0.21952 0.84316 0.43698 0.0
C1219 C 0.19575 0.8233 0.39558 0.0
C1220 C 0.18347 0.85073 0.33645 0.0
H1221 H 0.10797 0.79635 0.22684 0.0
H1222 H 0.13133 0.80066 0.26988 0.0
H1223 H 0.17465 0.86018 0.293 0.0
H1224 H 0.22383 0.87144 0.44207 0.0
H1225 H 0.2005 0.86725 0.399 0.0
H1226 H 0.15744 0.80793 0.37528 0.0
C1227 C 0.12912 0.81239 0.26414 0.0
C1228 C 0.17065 0.84874 0.31099 0.0
C1229 C 0.11583 0.80993 0.2394 0.0
C1230 C 0.21609 0.85795 0.42917 0.0
C1231 C 0.20282 0.85556 0.40444 0.0
C1232 C 0.16143 0.81937 0.35731 0.0
C1233 C 0.13946 0.82977 0.28113 0.0
C1234 C 0.15307 0.83204 0.30837 0.0
C1235 C 0.19264 0.83828 0.38706 0.0
C1236 C 0.17901 0.83607 0.35991 0.0
H1237 H 0.1208 0.85392 0.2412 0.0
H1238 H 0.14413 0.85833 0.28492 0.0
H1239 H 0.13505 0.80445 0.33094 0.0
H1240 H 0.21157 0.81416 0.42608 0.0
H1241 H 0.18822 0.80985 0.3825 0.0
C1242 C 0.82797 0.6965 0.77767 0.0
C1243 C 0.82856 0.71334 0.76807 0.0
C1244 C 0.83014 0.68526 0.75332 0.0
C1245 C 0.84659 0.68539 0.66544 0.0
H1246 H 0.81173 0.63136 0.67063 0.0
C1247 C 0.83918 0.63531 0.55592 0.0
C1248 C 0.83838 0.6183 0.56497 0.0
C1249 C 0.83752 0.64664 0.58074 0.0
C1250 C 0.82169 0.64638 0.669 0.0
H1251 H 0.83238 0.73201 0.72603 0.0
H1252 H 0.83609 0.71234 0.68321 0.0
H1253 H 0.81094 0.65215 0.71432 0.0
H1254 H 0.83479 0.59947 0.60658 0.0
H1255 H 0.83196 0.6193 0.65027 0.0
H1256 H 0.85729 0.67963 0.62007 0.0
C1257 C 0.83414 0.70786 0.70955 0.0
C1258 C 0.82128 0.65831 0.69409 0.0
C1259 C 0.83197 0.7191 0.73395 0.0
C1260 C 0.83536 0.61252 0.59909 0.0
C1261 C 0.83369 0.62384 0.62398 0.0
C1262 C 0.84699 0.67347 0.64036 0.0
C1263 C 0.8329 0.69063 0.71887 0.0
C1264 C 0.83371 0.67796 0.69259 0.0
C1265 C 0.83506 0.64119 0.61515 0.0
C1266 C 0.83452 0.65383 0.64179 0.0
H1267 H 0.82514 0.69167 0.8038 0.0
H1268 H 0.82939 0.67222 0.76142 0.0
H1269 H 0.85652 0.70042 0.66378 0.0
H1270 H 0.84171 0.64017 0.52978 0.0
H1271 H 0.83836 0.65977 0.57302 0.0
C1272 C 0.30267 0.13095 0.77801 0.0
C1273 C 0.28583 0.11451 0.76918 0.0
C1274 C 0.31366 0.14406 0.75306 0.0
C1275 C 0.3231 0.14718 0.66089 0.0
H1276 H 0.34926 0.20124 0.67726 0.0
C1277 C 0.36301 0.20264 0.55563 0.0
C1278 C 0.37992 0.21896 0.56469 0.0
C1279 C 0.35189 0.18947 0.58042 0.0
C1280 C 0.34225 0.18617 0.67246 0.0
H1281 H 0.26686 0.09904 0.72788 0.0
H1282 H 0.28592 0.12208 0.68407 0.0
H1283 H 0.32828 0.17967 0.72076 0.0
H1284 H 0.39886 0.23414 0.60619 0.0
H1285 H 0.37957 0.21101 0.64969 0.0
H1286 H 0.33706 0.1537 0.61258 0.0
C1287 C 0.29081 0.12475 0.71017 0.0
C1288 C 0.33018 0.17381 0.69736 0.0
C1289 C 0.27982 0.11165 0.73519 0.0
C1290 C 0.38586 0.22162 0.59871 0.0
C1291 C 0.37474 0.20848 0.62355 0.0
C1292 C 0.33516 0.15955 0.63598 0.0
C1293 C 0.30803 0.14095 0.71874 0.0
C1294 C 0.32046 0.15416 0.69189 0.0
C1295 C 0.35746 0.19242 0.61478 0.0
C1296 C 0.34491 0.17919 0.64149 0.0
H1297 H 0.30774 0.13329 0.80401 0.0
H1298 H 0.32694 0.15625 0.76049 0.0
H1299 H 0.3161 0.13211 0.6561 0.0
H1300 H 0.35799 0.20046 0.52961 0.0
H1301 H 0.33858 0.17737 0.57285 0.0
C1302 C 0.77627 0.16286 0.60081 0.0
C1303 C 0.77915 0.15983 0.56675 0.0
C1304 C 0.78913 0.16448 0.62591 0.0
C1305 C 0.82554 0.15122 0.64261 0.0
H1306 H 0.83926 0.1864 0.71781 0.0
C1307 C 0.88626 0.16693 0.73634 0.0
C1308 C 0.88364 0.16975 0.77064 0.0
C1309 C 0.87274 0.16452 0.71203 0.0
C1310 C 0.83537 0.17631 0.69721 0.0
H1311 H 0.79783 0.15653 0.5319 0.0
H1312 H 0.82063 0.15992 0.57546 0.0
H1313 H 0.81795 0.18585 0.67379 0.0
H1314 H 0.86478 0.17184 0.80681 0.0
H1315 H 0.8409 0.16726 0.76447 0.0
H1316 H 0.84309 0.1418 0.66592 0.0
C1317 C 0.80829 0.16073 0.583 0.0
C1318 C 0.82318 0.17603 0.67194 0.0
C1319 C 0.7954 0.15907 0.55797 0.0
C1320 C 0.86699 0.16946 0.78052 0.0
C1321 C 0.85347 0.1671 0.75623 0.0
C1322 C 0.83776 0.15154 0.66784 0.0
C1323 C 0.80514 0.16311 0.61737 0.0
C1324 C 0.81817 0.16352 0.64427 0.0
C1325 C 0.85637 0.16497 0.72161 0.0
C1326 C 0.84284 0.16411 0.6954 0.0
H1327 H 0.76376 0.16342 0.6081 0.0
H1328 H 0.78618 0.16616 0.65214 0.0
H1329 H 0.82168 0.14115 0.62202 0.0
H1330 H 0.89909 0.16724 0.72819 0.0
H1331 H 0.87548 0.16308 0.68557 0.0
C1332 C 0.49677 0.05251 0.06766 0.0
C1333 C 0.49464 0.04719 0.10201 0.0
C1334 C 0.49885 0.04139 0.04291 0.0
C1335 C 0.48748 0.99235 0.02778 0.0
H1336 H 0.52191 0.01394 0.9516 0.0
C1337 C 0.50189 0.94708 0.93236 0.0
C1338 C 0.50468 0.95271 0.89815 0.0
C1339 C 0.49993 0.95828 0.9571 0.0
C1340 C 0.51202 0.00769 0.97246 0.0
H1341 H 0.49333 0.02639 0.13775 0.0
H1342 H 0.49734 0.0071 0.09465 0.0
H1343 H 0.52119 0.03469 0.99544 0.0
H1344 H 0.50717 0.9741 0.86263 0.0
H1345 H 0.50319 0.99344 0.9056 0.0
H1346 H 0.47823 0.96536 0.00476 0.0
C1347 C 0.49723 0.01975 0.08671 0.0
C1348 C 0.51167 0.01959 0.99764 0.0
C1349 C 0.4952 0.0309 0.11143 0.0
C1350 C 0.50482 0.96937 0.88884 0.0
C1351 C 0.50282 0.98055 0.91352 0.0
C1352 C 0.48779 0.98045 0.00256 0.0
C1353 C 0.49874 0.02468 0.05211 0.0
C1354 C 0.49941 0.01206 0.02561 0.0
C1355 C 0.50072 0.97533 0.94804 0.0
C1356 C 0.50007 0.98797 0.97459 0.0
H1357 H 0.49625 0.06498 0.05988 0.0
H1358 H 0.49983 0.0455 0.01647 0.0
H1359 H 0.47762 0.98613 0.04871 0.0
H1360 H 0.50182 0.9343 0.94006 0.0
H1361 H 0.4985 0.95391 0.98346 0.0
C1362 C 0.03038 0.53571 0.88961 0.0
C1363 C 0.04564 0.55337 0.89893 0.0
C1364 C 0.0198 0.5223 0.91444 0.0
C1365 C 0.00716 0.51863 0.00511 0.0
H1366 H 0.98903 0.46521 0.99179 0.0
C1367 C 0.96944 0.4629 0.11082 0.0
C1368 C 0.9543 0.44525 0.10111 0.0
C1369 C 0.98036 0.47631 0.08622 0.0
C1370 C 0.99378 0.48006 0.99571 0.0
H1371 H 0.06216 0.5708 0.94114 0.0
H1372 H 0.04375 0.5473 0.98476 0.0
H1373 H 0.00928 0.48792 0.94893 0.0
H1374 H 0.93842 0.4278 0.05844 0.0
H1375 H 0.95734 0.45131 0.01528 0.0
H1376 H 0.99161 0.51077 0.05182 0.0
C1377 C 0.03981 0.54387 0.9583 0.0
C1378 C 0.00543 0.49307 0.97118 0.0
C1379 C 0.05041 0.55726 0.93342 0.0
C1380 C 0.95005 0.44134 0.06646 0.0
C1381 C 0.96096 0.45474 0.04184 0.0
C1382 C 0.9955 0.50561 0.02963 0.0
C1383 C 0.02423 0.52633 0.94912 0.0
C1384 C 0.01224 0.51251 0.97558 0.0
C1385 C 0.97639 0.4723 0.05141 0.0
C1386 C 0.98864 0.48617 0.02519 0.0
H1387 H 0.02618 0.53252 0.86321 0.0
H1388 H 0.00774 0.50904 0.90654 0.0
H1389 H 0.01191 0.53348 0.009 0.0
H1390 H 0.97325 0.46609 0.13737 0.0
H1391 H 0.9923 0.48958 0.09446 0.0
C1392 C 0.44392 0.49812 0.93102 0.0
C1393 C 0.44653 0.49494 0.8969 0.0
C1394 C 0.45723 0.5003 0.95564 0.0
C1395 C 0.49494 0.4887 0.97122 0.0
H1396 H 0.50845 0.52437 0.04555 0.0
C1397 C 0.55603 0.50557 0.06508 0.0
C1398 C 0.55294 0.50781 0.09943 0.0
C1399 C 0.54274 0.5034 0.04043 0.0
C1400 C 0.50465 0.51419 0.02516 0.0
H1401 H 0.46509 0.49182 0.86147 0.0
H1402 H 0.48864 0.49621 0.90416 0.0
H1403 H 0.4864 0.52277 0.00205 0.0
H1404 H 0.53365 0.50945 0.13521 0.0
H1405 H 0.51024 0.50532 0.0923 0.0
H1406 H 0.51329 0.48021 0.99427 0.0
C1407 C 0.47621 0.49672 0.91213 0.0
C1408 C 0.49203 0.51328 0.00021 0.0
C1409 C 0.46288 0.49448 0.88759 0.0
C1410 C 0.53621 0.50748 0.10889 0.0
C1411 C 0.52296 0.50537 0.08429 0.0
C1412 C 0.50761 0.48965 0.99611 0.0
C1413 C 0.47341 0.49935 0.94655 0.0
C1414 C 0.48702 0.50053 0.97293 0.0
C1415 C 0.52618 0.50355 0.04972 0.0
C1416 C 0.51259 0.50239 0.02339 0.0
H1417 H 0.43135 0.49845 0.93872 0.0
H1418 H 0.45453 0.50213 0.98194 0.0
H1419 H 0.49113 0.47846 0.95092 0.0
H1420 H 0.56891 0.50591 0.05726 0.0
H1421 H 0.54572 0.50219 0.01399 0.0
C1422 C 0.18258 0.2086 0.06015 0.0
C1423 C 0.19141 0.21506 0.09193 0.0
C1424 C 0.18404 0.19444 0.04269 0.0
C1425 C 0.1981 0.1578 0.05151 0.0
H1426 H 0.21666 0.17225 0.95929 0.0
C1427 C 0.24892 0.14638 0.95382 0.0
C1428 C 0.2412 0.12669 0.95489 0.0
C1429 C 0.23913 0.15472 0.96775 0.0
C1430 C 0.21139 0.16796 0.98493 0.0
H1431 H 0.20748 0.21074 0.13135 0.0
H1432 H 0.20997 0.18614 0.10101 0.0
H1433 H 0.20519 0.19037 0.99039 0.0
H1434 H 0.21734 0.1003 0.9721 0.0
H1435 H 0.20014 0.11491 0.99646 0.0
H1436 H 0.20511 0.1359 0.0465 0.0
C1437 C 0.20194 0.19197 0.08951 0.0
C1438 C 0.20463 0.17821 0.00263 0.0
C1439 C 0.20061 0.20619 0.10682 0.0
C1440 C 0.22344 0.11547 0.97016 0.0
C1441 C 0.21369 0.12384 0.98444 0.0
C1442 C 0.20476 0.14747 0.03371 0.0
C1443 C 0.19417 0.18634 0.05681 0.0
C1444 C 0.19839 0.17357 0.03644 0.0
C1445 C 0.2215 0.14358 0.98351 0.0
C1446 C 0.21197 0.15278 0.00057 0.0
H1447 H 0.17533 0.21508 0.04799 0.0
H1448 H 0.17773 0.19023 0.01768 0.0
H1449 H 0.19323 0.15379 0.07743 0.0
H1450 H 0.26264 0.15537 0.94236 0.0
H1451 H 0.24567 0.16999 0.96713 0.0
C1452 C 0.8755 0.1175 0.00179 0.0
C1453 C 0.87864 0.11806 0.96665 0.0
C1454 C 0.86715 0.10033 0.01925 0.0
C1455 C 0.85317 0.04951 0.01329 0.0
H1456 H 0.8147 0.04397 0.07753 0.0
C1457 C 0.79365 0.97773 0.06726 0.0
C1458 C 0.78729 0.97787 0.10044 0.0
C1459 C 0.80789 0.99447 0.05256 0.0
C1460 C 0.82562 0.04533 0.06018 0.0
H1461 H 0.87549 0.10123 0.92198 0.0
H1462 H 0.86062 0.071 0.95244 0.0
H1463 H 0.83349 0.07384 0.04854 0.0
H1464 H 0.79216 0.99508 0.14543 0.0
H1465 H 0.81721 0.02401 0.12021 0.0
H1466 H 0.84475 0.02062 0.02462 0.0
C1467 C 0.86509 0.0839 0.96671 0.0
C1468 C 0.83643 0.06252 0.04349 0.0
C1469 C 0.87363 0.10118 0.94926 0.0
C1470 C 0.79654 0.9946 0.1196 0.0
C1471 C 0.81082 0.01121 0.10507 0.0
C1472 C 0.84226 0.0322 0.03006 0.0
C1473 C 0.8614 0.08325 0.00182 0.0
C1474 C 0.85037 0.06488 0.01989 0.0
C1475 C 0.81606 0.01155 0.07091 0.0
C1476 C 0.82839 0.02995 0.05377 0.0
H1477 H 0.87929 0.13036 0.01572 0.0
H1478 H 0.86486 0.1004 0.04637 0.0
H1479 H 0.86387 0.05091 0.99537 0.0
H1480 H 0.78678 0.96504 0.05188 0.0
H1481 H 0.8116 0.99425 0.02618 0.0
C1482 C 0.00492 0.80184 0.11603 0.0
C1483 C 0.02164 0.80867 0.09702 0.0
C1484 C 0.98836 0.7992 0.10081 0.0
C1485 C 0.96736 0.80783 0.02403 0.0
H1486 H 0.92576 0.75784 0.04543 0.0
C1487 C 0.89774 0.76914 0.94527 0.0
C1488 C 0.88098 0.75772 0.96333 0.0
C1489 C 0.91517 0.77799 0.96218 0.0
C1490 C 0.93708 0.77197 0.03953 0.0
H1491 H 0.03451 0.81955 0.04783 0.0
H1492 H 0.00534 0.81463 0.02092 0.0
H1493 H 0.95576 0.76947 0.07426 0.0
H1494 H 0.86906 0.74693 0.01302 0.0
H1495 H 0.8993 0.76268 0.04273 0.0
H1496 H 0.94849 0.81008 0.98881 0.0
C1497 C 0.00512 0.81143 0.04771 0.0
C1498 C 0.95433 0.77866 0.05611 0.0
C1499 C 0.02182 0.81424 0.06311 0.0
C1500 C 0.88183 0.75566 0.99857 0.0
C1501 C 0.89916 0.7646 0.01549 0.0
C1502 C 0.94996 0.80112 0.00741 0.0
C1503 C 0.98806 0.80314 0.0661 0.0
C1504 C 0.96967 0.79667 0.04871 0.0
C1505 C 0.9161 0.77552 0.99743 0.0
C1506 C 0.9346 0.78311 0.01509 0.0
H1507 H 0.0044 0.79773 0.14238 0.0
H1508 H 0.97556 0.79327 0.11591 0.0
H1509 H 0.97893 0.82177 0.01781 0.0
H1510 H 0.89745 0.77054 0.91791 0.0
H1511 H 0.92795 0.78609 0.94743 0.0
C1512 C 0.77412 0.88201 0.032 0.0
C1513 C 0.75592 0.87171 0.04623 0.0
C1514 C 0.78232 0.87261 0.01566 0.0
C1515 C 0.76794 0.82837 0.97004 0.0
H1516 H 0.82018 0.84074 0.97923 0.0
C1517 C 0.81346 0.79059 0.93466 0.0
C1518 C 0.80599 0.78399 0.90204 0.0
C1519 C 0.81037 0.80406 0.95102 0.0
C1520 C 0.80557 0.83716 0.97645 0.0
H1521 H 0.73234 0.84354 0.05542 0.0
H1522 H 0.74662 0.82722 0.02713 0.0
H1523 H 0.80847 0.8582 0.01256 0.0
H1524 H 0.79106 0.78768 0.85975 0.0
H1525 H 0.78601 0.81129 0.88794 0.0
H1526 H 0.76475 0.80718 0.93464 0.0
C1527 C 0.75449 0.84253 0.02827 0.0
C1528 C 0.79891 0.84721 0.99534 0.0
C1529 C 0.74634 0.85188 0.04456 0.0
C1530 C 0.79673 0.79222 0.8851 0.0
C1531 C 0.79376 0.8057 0.90131 0.0
C1532 C 0.77458 0.81846 0.95113 0.0
C1533 C 0.77239 0.85278 0.01299 0.0
C1534 C 0.77994 0.84274 0.99257 0.0
C1535 C 0.79984 0.81119 0.93496 0.0
C1536 C 0.79343 0.82266 0.95415 0.0
H1537 H 0.78167 0.8973 0.03202 0.0
H1538 H 0.79605 0.88089 0.0038 0.0
H1539 H 0.75333 0.82476 0.96696 0.0
H1540 H 0.8207 0.78456 0.94836 0.0
H1541 H 0.81523 0.80799 0.97696 0.0
C1542 C 0.20974 0.02276 0.93849 0.0
C1543 C 0.21569 0.02256 0.905 0.0
C1544 C 0.19603 0.00596 0.95391 0.0
C1545 C 0.17884 0.95509 0.94705 0.0
H1546 H 0.14035 0.94917 0.01159 0.0
C1547 C 0.1277 0.88247 0.00259 0.0
C1548 C 0.12424 0.88145 0.03767 0.0
C1549 C 0.13663 0.89989 0.98599 0.0
C1550 C 0.15113 0.95067 0.99377 0.0
H1551 H 0.21067 0.00504 0.86039 0.0
H1552 H 0.18659 0.97602 0.88685 0.0
H1553 H 0.15949 0.97958 0.98271 0.0
H1554 H 0.12757 0.8978 0.08314 0.0
H1555 H 0.14333 0.92846 0.05411 0.0
H1556 H 0.17091 0.92651 0.95827 0.0
C1557 C 0.19289 0.98894 0.90166 0.0
C1558 C 0.16206 0.96806 0.97723 0.0
C1559 C 0.20663 0.00561 0.88642 0.0
C1560 C 0.12962 0.89818 0.05588 0.0
C1561 C 0.13868 0.91572 0.03926 0.0
C1562 C 0.168 0.93783 0.9635 0.0
C1563 C 0.188 0.98874 0.93598 0.0
C1564 C 0.17597 0.9704 0.95351 0.0
C1565 C 0.1426 0.91677 0.00421 0.0
C1566 C 0.15394 0.93533 0.98691 0.0
H1567 H 0.21646 0.03562 0.95345 0.0
H1568 H 0.19256 0.00628 0.9804 0.0
H1569 H 0.18979 0.95653 0.92969 0.0
H1570 H 0.12367 0.86974 0.98802 0.0
H1571 H 0.13912 0.90016 0.95887 0.0
C1572 C 0.11908 0.24854 0.99861 0.0
C1573 C 0.11953 0.24496 0.03338 0.0
C1574 C 0.10203 0.23984 0.98078 0.0
C1575 C 0.05192 0.20125 0.9842 0.0
H1576 H 0.04473 0.23446 0.92325 0.0
C1577 C 0.97918 0.18603 0.93054 0.0
C1578 C 0.97904 0.19303 0.89791 0.0
C1579 C 0.99622 0.18936 0.94519 0.0
C1580 C 0.04658 0.22485 0.93967 0.0
H1581 H 0.10257 0.2298 0.07708 0.0
H1582 H 0.07258 0.21457 0.04595 0.0
H1583 H 0.0746 0.24621 0.9527 0.0
H1584 H 0.99628 0.20732 0.85381 0.0
H1585 H 0.02577 0.21269 0.87896 0.0
H1586 H 0.02355 0.17999 0.97146 0.0
C1587 C 0.08549 0.2237 0.03221 0.0
C1588 C 0.06375 0.23161 0.95662 0.0
C1589 C 0.10264 0.23236 0.05003 0.0
C1590 C 0.99596 0.20202 0.87922 0.0
C1591 C 0.01289 0.2052 0.89371 0.0
C1592 C 0.03463 0.19445 0.96717 0.0
C1593 C 0.08497 0.22758 0.99747 0.0
C1594 C 0.06667 0.21993 0.97908 0.0
C1595 C 0.01336 0.19963 0.92737 0.0
C1596 C 0.0318 0.2062 0.94466 0.0
H1597 H 0.13194 0.25822 0.98524 0.0
H1598 H 0.10218 0.24291 0.95394 0.0
H1599 H 0.05377 0.19185 0.00117 0.0
H1600 H 0.96636 0.17903 0.94557 0.0
H1601 H 0.99609 0.18489 0.97118 0.0
C1602 C 0.84982 0.54078 0.39308 0.0
C1603 C 0.85643 0.54639 0.42648 0.0
C1604 C 0.85278 0.52733 0.37634 0.0
C1605 C 0.85739 0.4941 0.35001 0.0
H1606 H 0.90921 0.5058 0.36327 0.0
C1607 C 0.88986 0.44962 0.29686 0.0
C1608 C 0.9083 0.46006 0.28367 0.0
C1609 C 0.8813 0.45887 0.31246 0.0
C1610 C 0.89473 0.5024 0.35915 0.0
H1611 H 0.86946 0.54083 0.4697 0.0
H1612 H 0.87431 0.51727 0.44082 0.0
H1613 H 0.89719 0.52293 0.39544 0.0
H1614 H 0.93194 0.48832 0.27558 0.0
H1615 H 0.91707 0.50437 0.30275 0.0
H1616 H 0.8552 0.47365 0.31316 0.0
C1617 C 0.86735 0.52363 0.42718 0.0
C1618 C 0.88775 0.51204 0.37793 0.0
C1619 C 0.8645 0.53708 0.44377 0.0
C1620 C 0.91777 0.47988 0.28563 0.0
C1621 C 0.90926 0.48908 0.30124 0.0
C1622 C 0.86438 0.48428 0.3313 0.0
C1623 C 0.86232 0.51923 0.39284 0.0
C1624 C 0.86903 0.50807 0.37357 0.0
C1625 C 0.89111 0.47867 0.31547 0.0
C1626 C 0.8832 0.48851 0.33548 0.0
H1627 H 0.8435 0.54768 0.37911 0.0
H1628 H 0.84874 0.52421 0.34987 0.0
H1629 H 0.8429 0.49075 0.34616 0.0
H1630 H 0.88237 0.43433 0.29667 0.0
H1631 H 0.86737 0.45049 0.32356 0.0
C1632 C 0.53632 0.43485 0.27677 0.0
C1633 C 0.54089 0.45166 0.29398 0.0
C1634 C 0.52752 0.41753 0.29409 0.0
C1635 C 0.49766 0.39578 0.36956 0.0
H1636 H 0.50751 0.35462 0.35342 0.0
C1637 C 0.45972 0.32871 0.44855 0.0
C1638 C 0.45082 0.31164 0.43028 0.0
C1639 C 0.47343 0.34532 0.43313 0.0
C1640 C 0.50459 0.36599 0.35805 0.0
H1641 H 0.54041 0.46382 0.34261 0.0
H1642 H 0.52551 0.4338 0.37307 0.0
H1643 H 0.52638 0.38485 0.3238 0.0
H1644 H 0.45037 0.29833 0.38227 0.0
H1645 H 0.47425 0.32757 0.35505 0.0
H1646 H 0.47583 0.3771 0.40333 0.0
C1647 C 0.52835 0.4338 0.34616 0.0
C1648 C 0.51535 0.38327 0.34108 0.0
C1649 C 0.53697 0.451 0.32882 0.0
C1650 C 0.45695 0.31128 0.39699 0.0
C1651 C 0.47065 0.32802 0.38142 0.0
C1652 C 0.48702 0.37865 0.38648 0.0
C1653 C 0.52312 0.41679 0.32888 0.0
C1654 C 0.51203 0.39839 0.34679 0.0
C1655 C 0.47848 0.34533 0.39897 0.0
C1656 C 0.49038 0.36357 0.38111 0.0
H1657 H 0.5388 0.43498 0.24968 0.0
H1658 H 0.52346 0.40468 0.27994 0.0
H1659 H 0.49434 0.40691 0.37389 0.0
H1660 H 0.45555 0.32941 0.47442 0.0
H1661 H 0.47957 0.35835 0.44762 0.0
C1662 C 0.55872 0.11076 0.30337 0.0
C1663 C 0.55239 0.09323 0.28734 0.0
C1664 C 0.57671 0.12037 0.31819 0.0
C1665 C 0.60883 0.12862 0.36812 0.0
H1666 H 0.65182 0.12921 0.32493 0.0
C1667 C 0.6713 0.13208 0.44156 0.0
C1668 C 0.6895 0.14169 0.4272 0.0
C1669 C 0.65584 0.13087 0.42415 0.0
C1670 C 0.64008 0.12948 0.33716 0.0
H1671 H 0.55985 0.07205 0.27395 0.0
H1672 H 0.59122 0.08879 0.2996 0.0
H1673 H 0.62249 0.11809 0.29316 0.0
H1674 H 0.70588 0.15859 0.38416 0.0
H1675 H 0.67877 0.15639 0.35367 0.0
H1676 H 0.62627 0.1395 0.41248 0.0
C1677 C 0.58243 0.09526 0.30045 0.0
C1678 C 0.62322 0.12292 0.31907 0.0
C1679 C 0.56443 0.0856 0.286 0.0
C1680 C 0.69205 0.15101 0.3959 0.0
C1681 C 0.67652 0.14967 0.37833 0.0
C1682 C 0.62567 0.13507 0.38631 0.0
C1683 C 0.58871 0.11265 0.31701 0.0
C1684 C 0.60728 0.12198 0.33461 0.0
C1685 C 0.65818 0.13916 0.39189 0.0
C1686 C 0.64133 0.13515 0.37128 0.0
H1687 H 0.54958 0.11677 0.30552 0.0
H1688 H 0.58117 0.13373 0.33082 0.0
H1689 H 0.59676 0.12798 0.38084 0.0
H1690 H 0.66884 0.12482 0.46571 0.0
H1691 H 0.64189 0.12254 0.43519 0.0
C1692 C 0.46582 0.12778 0.21651 0.0
C1693 C 0.4743 0.11925 0.23498 0.0
C1694 C 0.46281 0.1415 0.23155 0.0
C1695 C 0.47314 0.17321 0.30573 0.0
H1696 H 0.42142 0.16142 0.29089 0.0
C1697 C 0.4354 0.20479 0.38587 0.0
C1698 C 0.42274 0.20873 0.36846 0.0
C1699 C 0.44404 0.19597 0.36902 0.0
C1700 C 0.436 0.16517 0.29494 0.0
H1701 H 0.48766 0.11952 0.28283 0.0
H1702 H 0.48211 0.14344 0.3094 0.0
H1703 H 0.43317 0.14321 0.26183 0.0
H1704 H 0.40972 0.20724 0.31969 0.0
H1705 H 0.42501 0.1923 0.29019 0.0
H1706 H 0.47576 0.19515 0.33927 0.0
C1707 C 0.47789 0.13953 0.28318 0.0
C1708 C 0.44276 0.1547 0.27823 0.0
C1709 C 0.48105 0.12582 0.26798 0.0
C1710 C 0.41929 0.2042 0.33381 0.0
C1711 C 0.42801 0.19558 0.31696 0.0
C1712 C 0.46636 0.1838 0.32247 0.0
C1713 C 0.46804 0.14692 0.26554 0.0
C1714 C 0.46141 0.15863 0.28321 0.0
C1715 C 0.44016 0.19096 0.33449 0.0
C1716 C 0.44772 0.17994 0.31708 0.0
H1717 H 0.46075 0.12325 0.19083 0.0
H1718 H 0.45563 0.14731 0.21699 0.0
H1719 H 0.48758 0.17655 0.31007 0.0
H1720 H 0.43801 0.20774 0.41276 0.0
H1721 H 0.45316 0.1924 0.38336 0.0
C1722 C 0.79369 0.21467 0.33447 0.0
C1723 C 0.79058 0.21428 0.3696 0.0
C1724 C 0.80167 0.23171 0.31663 0.0
C1725 C 0.81408 0.28213 0.32156 0.0
H1726 H 0.85242 0.2885 0.2563 0.0
C1727 C 0.87193 0.35427 0.26602 0.0
C1728 C 0.87817 0.35416 0.23273 0.0
C1729 C 0.85799 0.33746 0.281 0.0
C1730 C 0.84152 0.28689 0.27394 0.0
H1731 H 0.79352 0.23129 0.41389 0.0
H1732 H 0.80774 0.26128 0.38276 0.0
H1733 H 0.83466 0.25871 0.28608 0.0
H1734 H 0.8733 0.33689 0.18782 0.0
H1735 H 0.84875 0.30782 0.21354 0.0
H1736 H 0.82151 0.31072 0.30977 0.0
C1737 C 0.80351 0.24834 0.36879 0.0
C1738 C 0.83131 0.26975 0.29108 0.0
C1739 C 0.79536 0.2312 0.38662 0.0
C1740 C 0.86901 0.33736 0.21371 0.0
C1741 C 0.85502 0.32068 0.22853 0.0
C1742 C 0.8244 0.2994 0.30437 0.0
C1743 C 0.80705 0.24882 0.33365 0.0
C1744 C 0.81745 0.26711 0.31508 0.0
C1745 C 0.85 0.32034 0.26282 0.0
C1746 C 0.83821 0.30193 0.2803 0.0
H1747 H 0.79007 0.20176 0.32082 0.0
H1748 H 0.80387 0.23149 0.2895 0.0
H1749 H 0.80341 0.2805 0.33975 0.0
H1750 H 0.87874 0.36701 0.28129 0.0
H1751 H 0.85443 0.33768 0.30747 0.0
C1752 C 0.6406 0.51522 0.26776 0.0
C1753 C 0.64302 0.52463 0.23659 0.0
C1754 C 0.65623 0.51671 0.2852 0.0
C1755 C 0.70729 0.53217 0.27735 0.0
H1756 H 0.70998 0.54883 0.37063 0.0
C1757 C 0.76792 0.58157 0.37899 0.0
C1758 C 0.78004 0.57404 0.37776 0.0
C1759 C 0.75004 0.57195 0.36405 0.0
C1760 C 0.7094 0.5441 0.34468 0.0
H1761 H 0.66354 0.54173 0.19807 0.0
H1762 H 0.69068 0.54427 0.2284 0.0
H1763 H 0.68067 0.53738 0.33865 0.0
H1764 H 0.78316 0.55075 0.35914 0.0
H1765 H 0.75179 0.53384 0.33305 0.0
H1766 H 0.73631 0.53967 0.28303 0.0
C1767 C 0.67676 0.53578 0.23944 0.0
C1768 C 0.69255 0.53735 0.32646 0.0
C1769 C 0.66119 0.53441 0.22214 0.0
C1770 C 0.77394 0.55667 0.36125 0.0
C1771 C 0.75608 0.5471 0.34597 0.0
C1772 C 0.72412 0.53881 0.29567 0.0
C1773 C 0.67454 0.52747 0.27166 0.0
C1774 C 0.69145 0.53176 0.29232 0.0
C1775 C 0.74397 0.55469 0.34711 0.0
C1776 C 0.72549 0.54532 0.32923 0.0
H1777 H 0.62679 0.5075 0.27956 0.0
H1778 H 0.65406 0.50996 0.30981 0.0
H1779 H 0.70682 0.52783 0.25117 0.0
H1780 H 0.77233 0.595 0.39137 0.0
H1781 H 0.74116 0.57832 0.36488 0.0
C1782 C 0.57838 0.7947 0.66488 0.0
C1783 C 0.57574 0.79134 0.6298 0.0
C1784 C 0.56949 0.80304 0.68209 0.0
C1785 C 0.53211 0.81622 0.67558 0.0
H1786 H 0.56429 0.8547 0.74046 0.0
C1787 C 0.5183 0.87452 0.73099 0.0
C1788 C 0.52431 0.88036 0.76457 0.0
C1789 C 0.52126 0.86071 0.71569 0.0
C1790 C 0.55496 0.84379 0.72288 0.0
H1791 H 0.56197 0.79417 0.58496 0.0
H1792 H 0.54651 0.80906 0.61499 0.0
H1793 H 0.57604 0.83652 0.7113 0.0
H1794 H 0.53625 0.87494 0.80955 0.0
H1795 H 0.54099 0.85068 0.78324 0.0
H1796 H 0.51119 0.82404 0.68686 0.0
C1797 C 0.55503 0.80475 0.62941 0.0
C1798 C 0.56172 0.83334 0.70611 0.0
C1799 C 0.56384 0.79622 0.6122 0.0
C1800 C 0.53178 0.87099 0.78344 0.0
C1801 C 0.53458 0.85715 0.76831 0.0
C1802 C 0.52534 0.8268 0.69239 0.0
C1803 C 0.55803 0.80856 0.66447 0.0
C1804 C 0.55039 0.81936 0.68236 0.0
C1805 C 0.53015 0.85246 0.73386 0.0
C1806 C 0.53669 0.84064 0.71636 0.0
H1807 H 0.58748 0.79101 0.67896 0.0
H1808 H 0.57183 0.80544 0.7092 0.0
H1809 H 0.523 0.80549 0.65754 0.0
H1810 H 0.51248 0.88148 0.71583 0.0
H1811 H 0.51768 0.85738 0.6891 0.0
C1812 C 0.20356 0.7682 0.61326 0.0
C1813 C 0.20865 0.78507 0.63073 0.0
C1814 C 0.19503 0.7509 0.63066 0.0
C1815 C 0.16659 0.72931 0.70757 0.0
H1816 H 0.17582 0.68795 0.68906 0.0
C1817 C 0.12808 0.6616 0.78474 0.0
C1818 C 0.11911 0.64473 0.7659 0.0
C1819 C 0.14204 0.67829 0.76988 0.0
C1820 C 0.17307 0.69937 0.69439 0.0
H1821 H 0.2093 0.79732 0.67989 0.0
H1822 H 0.1948 0.76732 0.71039 0.0
H1823 H 0.1944 0.7182 0.65942 0.0
H1824 H 0.11877 0.63179 0.71755 0.0
H1825 H 0.14301 0.66114 0.69126 0.0
H1826 H 0.14514 0.71063 0.74191 0.0
C1827 C 0.19708 0.76727 0.68326 0.0
C1828 C 0.18367 0.71667 0.67739 0.0
C1829 C 0.20546 0.78446 0.66587 0.0
C1830 C 0.12543 0.64459 0.73269 0.0
C1831 C 0.13933 0.6614 0.71765 0.0
C1832 C 0.15608 0.71214 0.72448 0.0
C1833 C 0.19138 0.75022 0.66578 0.0
C1834 C 0.18056 0.73185 0.68389 0.0
C1835 C 0.14722 0.67857 0.73569 0.0
C1836 C 0.15918 0.69696 0.71822 0.0
H1837 H 0.20543 0.76827 0.58598 0.0
H1838 H 0.19057 0.73801 0.61636 0.0
H1839 H 0.16345 0.74049 0.71257 0.0
H1840 H 0.12372 0.6621 0.81057 0.0
H1841 H 0.14822 0.69117 0.78478 0.0
C1842 C 0.22988 0.4171 0.62015 0.0
C1843 C 0.21781 0.42469 0.62106 0.0
C1844 C 0.24796 0.427 0.63427 0.0
C1845 C 0.28883 0.45504 0.65166 0.0
H1846 H 0.29249 0.47314 0.74412 0.0
C1847 C 0.3582 0.48451 0.72711 0.0
C1848 C 0.3559 0.47567 0.75886 0.0
C1849 C 0.34254 0.4829 0.70962 0.0
C1850 C 0.29172 0.46829 0.71821 0.0
H1851 H 0.21499 0.4484 0.63822 0.0
H1852 H 0.24671 0.46579 0.66286 0.0
H1853 H 0.26273 0.46097 0.71303 0.0
H1854 H 0.33554 0.45944 0.79823 0.0
H1855 H 0.30836 0.45668 0.76783 0.0
H1856 H 0.31752 0.46156 0.65728 0.0
C1857 C 0.24222 0.45226 0.65083 0.0
C1858 C 0.27473 0.46146 0.70032 0.0
C1859 C 0.22416 0.44241 0.63639 0.0
C1860 C 0.33782 0.46631 0.77373 0.0
C1861 C 0.32222 0.46484 0.75638 0.0
C1862 C 0.30583 0.46198 0.66945 0.0
C1863 C 0.25428 0.44461 0.65003 0.0
C1864 C 0.27296 0.45427 0.6672 0.0
C1865 C 0.32431 0.4726 0.72369 0.0
C1866 C 0.30731 0.4682 0.70324 0.0
H1867 H 0.2253 0.40342 0.60867 0.0
H1868 H 0.25679 0.42057 0.63375 0.0
H1869 H 0.28794 0.44979 0.62603 0.0
H1870 H 0.37194 0.49188 0.71497 0.0
H1871 H 0.34461 0.48922 0.68462 0.0
C1872 C 0.08005 0.51836 0.71401 0.0
C1873 C 0.08949 0.5382 0.71495 0.0
C1874 C 0.08831 0.50896 0.69831 0.0
C1875 C 0.1327 0.51347 0.66577 0.0
H1876 H 0.09861 0.4734 0.60508 0.0
C1877 C 0.1307 0.45881 0.55521 0.0
C1878 C 0.13966 0.45026 0.57212 0.0
C1879 C 0.1278 0.47228 0.57163 0.0
C1880 C 0.10841 0.48467 0.62161 0.0
H1881 H 0.11514 0.56376 0.70019 0.0
H1882 H 0.12971 0.54724 0.67302 0.0
H1883 H 0.08715 0.49102 0.6372 0.0
H1884 H 0.15398 0.45029 0.61861 0.0
H1885 H 0.14866 0.47376 0.64757 0.0
H1886 H 0.15397 0.50693 0.64991 0.0
C1887 C 0.116 0.53901 0.68497 0.0
C1888 C 0.10175 0.49461 0.64038 0.0
C1889 C 0.10768 0.54847 0.70071 0.0
C1890 C 0.14697 0.45657 0.60494 0.0
C1891 C 0.14396 0.47005 0.62151 0.0
C1892 C 0.13937 0.50337 0.64705 0.0
C1893 C 0.10618 0.51916 0.68294 0.0
C1894 C 0.11375 0.50902 0.66284 0.0
C1895 C 0.13368 0.47746 0.60544 0.0
C1896 C 0.12726 0.48887 0.62472 0.0
H1897 H 0.06607 0.51005 0.72493 0.0
H1898 H 0.08053 0.49364 0.69764 0.0
H1899 H 0.14224 0.5245 0.68296 0.0
H1900 H 0.12518 0.45451 0.52971 0.0
H1901 H 0.12025 0.47809 0.55828 0.0
C1902 C 0.4604 0.56647 0.72441 0.0
C1903 C 0.45719 0.55061 0.70532 0.0
C1904 C 0.46828 0.58429 0.70906 0.0
C1905 C 0.47839 0.60804 0.62477 0.0
H1906 H 0.51995 0.64982 0.67203 0.0
C1907 C 0.53845 0.67174 0.55651 0.0
C1908 C 0.54707 0.68965 0.57204 0.0
C1909 C 0.52394 0.65603 0.5729 0.0
C1910 C 0.50811 0.63844 0.65873 0.0
H1911 H 0.4599 0.54084 0.65559 0.0
H1912 H 0.47382 0.57189 0.62879 0.0
H1913 H 0.50129 0.61969 0.70112 0.0
H1914 H 0.54639 0.70527 0.61615 0.0
H1915 H 0.52097 0.67769 0.64489 0.0
H1916 H 0.4857 0.62662 0.58194 0.0
C1917 C 0.46985 0.57059 0.65537 0.0
C1918 C 0.49741 0.62114 0.67541 0.0
C1919 C 0.46205 0.55284 0.67074 0.0
C1920 C 0.5401 0.69166 0.60354 0.0
C1921 C 0.52562 0.67586 0.6201 0.0
C1922 C 0.48909 0.62533 0.60809 0.0
C1923 C 0.47317 0.58656 0.67437 0.0
C1924 C 0.48277 0.60559 0.6583 0.0
C1925 C 0.51772 0.6578 0.6053 0.0
C1926 C 0.50441 0.64056 0.62457 0.0
H1927 H 0.45734 0.56522 0.7514 0.0
H1928 H 0.47069 0.59631 0.7244 0.0
H1929 H 0.46695 0.59644 0.61112 0.0
H1930 H 0.54339 0.66969 0.53217 0.0
H1931 H 0.51829 0.64231 0.56091 0.0
C1932 C 0.31007 0.85103 0.60286 0.0
C1933 C 0.3102 0.85667 0.56901 0.0
C1934 C 0.32676 0.85365 0.61798 0.0
C1935 C 0.37751 0.88628 0.60909 0.0
H1936 H 0.38334 0.85514 0.677 0.0
C1937 C 0.44991 0.90983 0.66765 0.0
C1938 C 0.45064 0.90782 0.70293 0.0
C1939 C 0.43265 0.90076 0.65051 0.0
C1940 C 0.38188 0.86402 0.65822 0.0
H1941 H 0.32727 0.86748 0.52343 0.0
H1942 H 0.3561 0.87157 0.54944 0.0
H1943 H 0.35293 0.84329 0.64784 0.0
H1944 H 0.43403 0.89495 0.7482 0.0
H1945 H 0.40365 0.87921 0.7183 0.0
H1946 H 0.40603 0.90719 0.6198 0.0
C1947 C 0.34335 0.86574 0.56469 0.0
C1948 C 0.3645 0.85722 0.6415 0.0
C1949 C 0.32681 0.8633 0.54973 0.0
C1950 C 0.43384 0.89633 0.72082 0.0
C1951 C 0.41647 0.88736 0.70369 0.0
C1952 C 0.39475 0.89306 0.62577 0.0
C1953 C 0.34375 0.86181 0.59939 0.0
C1954 C 0.36218 0.86828 0.61664 0.0
C1955 C 0.41566 0.88977 0.66839 0.0
C1956 C 0.39721 0.88204 0.65047 0.0
H1957 H 0.29746 0.84587 0.61833 0.0
H1958 H 0.3266 0.85046 0.64476 0.0
H1959 H 0.37607 0.89541 0.5908 0.0
H1960 H 0.46272 0.9186 0.65333 0.0
H1961 H 0.43261 0.90264 0.62324 0.0
loop_
_geom_bond_atom_site_label_1
_geom_bond_atom_site_label_2
_geom_bond_distance
_geom_bond_site_symmetry_2
_ccdc_geom_bond_type
Co0 O3 1.970 . S
Co0 N17 1.989 . S
Co0 O25 1.967 . S
Co0 O32 1.920 . S
Co1 O4 1.966 . S
Co1 N10 2.022 . S
Co1 N18 1.993 . S
Co1 O26 1.941 . S
C2 O3 1.258 . S
C2 O4 1.263 . S
O3 Co0 1.970 . S
O3 C2 1.258 . S
O4 Co1 1.966 . S
O4 C2 1.263 . S
C5 O6 1.235 . S
C5 O32 1.289 . S
O6 C5 1.235 . S
C7 C9 1.400 . S
C7 N10 1.351 . S
C7 C12 1.501 . S
C8 C9 1.387 . S
C8 N11 1.341 . S
C9 C7 1.400 . S
C9 C8 1.387 . S
N10 Co1 2.022 . S
N10 C7 1.351 . S
N10 N11 1.365 . S
N11 C8 1.341 . S
N11 N10 1.365 . S
N11 H31 0.862 . S
C12 C7 1.501 . S
C12 H13 0.961 . S
C12 H14 0.961 . S
C12 H15 0.960 . S
H13 C12 0.961 . S
H14 C12 0.961 . S
H15 C12 0.960 . S
C16 N17 1.342 . S
C16 C20 1.401 . S
C16 C21 1.499 . S
N17 Co0 1.989 . S
N17 C16 1.342 . S
N17 N18 1.388 . S
N18 Co1 1.993 . S
N18 N17 1.388 . S
N18 C19 1.346 . S
C19 N18 1.346 . S
C19 C20 1.396 . S
C19 C29 1.510 . S
C20 C16 1.401 . S
C20 C19 1.396 . S
C21 C16 1.499 . S
C21 H22 0.959 . S
C21 H23 0.960 . S
C21 H24 0.961 . S
H22 C21 0.959 . S
H23 C21 0.960 . S
H24 C21 0.961 . S
O25 Co0 1.967 . S
O25 C33 1.258 . S
O26 Co1 1.941 . S
O26 C33 1.266 . S
H27 C29 0.959 . S
H28 C29 0.961 . S
C29 C19 1.510 . S
C29 H27 0.959 . S
C29 H28 0.961 . S
C29 H30 0.960 . S
H30 C29 0.960 . S
H31 N11 0.862 . S
O32 Co0 1.920 . S
O32 C5 1.289 . S
C33 O25 1.258 . S
C33 O26 1.266 . S
Co34 O37 1.970 . S
Co34 N51 1.989 . S
Co34 O59 1.967 . S
Co34 O66 1.920 . S
Co35 O38 1.966 . S
Co35 N44 2.022 . S
Co35 N52 1.993 . S
Co35 O60 1.941 . S
C36 O37 1.258 . S
C36 O38 1.263 . S
O37 Co34 1.970 . S
O37 C36 1.258 . S
O38 Co35 1.966 . S
O38 C36 1.263 . S
C39 O40 1.235 . S
C39 O66 1.289 . S
O40 C39 1.235 . S
C41 C43 1.400 . S
C41 N44 1.351 . S
C41 C46 1.501 . S
C42 C43 1.387 . S
C42 N45 1.341 . S
C43 C41 1.400 . S
C43 C42 1.387 . S
N44 Co35 2.022 . S
N44 C41 1.351 . S
N44 N45 1.365 . S
N45 C42 1.341 . S
N45 N44 1.365 . S
N45 H65 0.862 . S
C46 C41 1.501 . S
C46 H47 0.961 . S
C46 H48 0.961 . S
C46 H49 0.960 . S
H47 C46 0.961 . S
H48 C46 0.961 . S
H49 C46 0.960 . S
C50 N51 1.342 . S
C50 C54 1.401 . S
C50 C55 1.499 . S
N51 Co34 1.989 . S
N51 C50 1.342 . S
N51 N52 1.388 . S
N52 Co35 1.993 . S
N52 N51 1.388 . S
N52 C53 1.346 . S
C53 N52 1.346 . S
C53 C54 1.396 . S
C53 C63 1.510 . S
C54 C50 1.401 . S
C54 C53 1.396 . S
C55 C50 1.499 . S
C55 H56 0.959 . S
C55 H57 0.960 . S
C55 H58 0.961 . S
H56 C55 0.959 . S
H57 C55 0.960 . S
H58 C55 0.961 . S
O59 Co34 1.967 . S
O59 C67 1.258 . S
O60 Co35 1.941 . S
O60 C67 1.266 . S
H61 C63 0.959 . S
H62 C63 0.961 . S
C63 C53 1.510 . S
C63 H61 0.959 . S
C63 H62 0.961 . S
C63 H64 0.960 . S
H64 C63 0.960 . S
H65 N45 0.862 . S
O66 Co34 1.920 . S
O66 C39 1.289 . S
C67 O59 1.258 . S
C67 O60 1.266 . S
Co68 O71 1.970 . S
Co68 N85 1.989 . S
Co68 O93 1.967 . S
Co68 O100 1.920 . S
Co69 O72 1.966 . S
Co69 N78 2.022 . S
Co69 N86 1.993 . S
Co69 O94 1.941 . S
C70 O71 1.258 . S
C70 O72 1.263 . S
O71 Co68 1.970 . S
O71 C70 1.258 . S
O72 Co69 1.966 . S
O72 C70 1.263 . S
C73 O74 1.235 . S
C73 O100 1.289 . S
O74 C73 1.235 . S
C75 C77 1.400 . S
C75 N78 1.351 . S
C75 C80 1.501 . S
C76 C77 1.387 . S
C76 N79 1.341 . S
C77 C75 1.400 . S
C77 C76 1.387 . S
N78 Co69 2.022 . S
N78 C75 1.351 . S
N78 N79 1.365 . S
N79 C76 1.341 . S
N79 N78 1.365 . S
N79 H99 0.862 . S
C80 C75 1.501 . S
C80 H81 0.961 . S
C80 H82 0.961 . S
C80 H83 0.960 . S
H81 C80 0.961 . S
H82 C80 0.961 . S
H83 C80 0.960 . S
C84 N85 1.342 . S
C84 C88 1.401 . S
C84 C89 1.499 . S
N85 Co68 1.989 . S
N85 C84 1.342 . S
N85 N86 1.388 . S
N86 Co69 1.993 . S
N86 N85 1.388 . S
N86 C87 1.346 . S
C87 N86 1.346 . S
C87 C88 1.396 . S
C87 C97 1.510 . S
C88 C84 1.401 . S
C88 C87 1.396 . S
C89 C84 1.499 . S
C89 H90 0.959 . S
C89 H91 0.960 . S
C89 H92 0.961 . S
H90 C89 0.959 . S
H91 C89 0.960 . S
H92 C89 0.961 . S
O93 Co68 1.967 . S
O93 C101 1.258 . S
O94 Co69 1.941 . S
O94 C101 1.266 . S
H95 C97 0.959 . S
H96 C97 0.961 . S
C97 C87 1.510 . S
C97 H95 0.959 . S
C97 H96 0.961 . S
C97 H98 0.960 . S
H98 C97 0.960 . S
H99 N79 0.862 . S
O100 Co68 1.920 . S
O100 C73 1.289 . S
C101 O93 1.258 . S
C101 O94 1.266 . S
Co102 O105 1.970 . S
Co102 N119 1.989 . S
Co102 O127 1.967 . S
Co102 O134 1.920 . S
Co103 O106 1.966 . S
Co103 N112 2.022 . S
Co103 N120 1.993 . S
Co103 O128 1.941 . S
C104 O105 1.258 . S
C104 O106 1.263 . S
O105 Co102 1.970 . S
O105 C104 1.258 . S
O106 Co103 1.966 . S
O106 C104 1.263 . S
C107 O108 1.235 . S
C107 O134 1.289 . S
O108 C107 1.235 . S
C109 C111 1.400 . S
C109 N112 1.351 . S
C109 C114 1.501 . S
C110 C111 1.387 . S
C110 N113 1.341 . S
C111 C109 1.400 . S
C111 C110 1.387 . S
N112 Co103 2.022 . S
N112 C109 1.351 . S
N112 N113 1.365 . S
N113 C110 1.341 . S
N113 N112 1.365 . S
N113 H133 0.862 . S
C114 C109 1.501 . S
C114 H115 0.961 . S
C114 H116 0.961 . S
C114 H117 0.960 . S
H115 C114 0.961 . S
H116 C114 0.961 . S
H117 C114 0.960 . S
C118 N119 1.342 . S
C118 C122 1.401 . S
C118 C123 1.499 . S
N119 Co102 1.989 . S
N119 C118 1.342 . S
N119 N120 1.388 . S
N120 Co103 1.993 . S
N120 N119 1.388 . S
N120 C121 1.346 . S
C121 N120 1.346 . S
C121 C122 1.396 . S
C121 C131 1.510 . S
C122 C118 1.401 . S
C122 C121 1.396 . S
C123 C118 1.499 . S
C123 H124 0.959 . S
C123 H125 0.960 . S
C123 H126 0.961 . S
H124 C123 0.959 . S
H125 C123 0.960 . S
H126 C123 0.961 . S
O127 Co102 1.967 . S
O127 C135 1.258 . S
O128 Co103 1.941 . S
O128 C135 1.266 . S
H129 C131 0.959 . S
H130 C131 0.961 . S
C131 C121 1.510 . S
C131 H129 0.959 . S
C131 H130 0.961 . S
C131 H132 0.960 . S
H132 C131 0.960 . S
H133 N113 0.862 . S
O134 Co102 1.920 . S
O134 C107 1.289 . S
C135 O127 1.258 . S
C135 O128 1.266 . S
Co136 O139 1.970 . S
Co136 N153 1.989 . S
Co136 O161 1.967 . S
Co136 O168 1.920 . S
Co137 O140 1.966 . S
Co137 N146 2.022 . S
Co137 N154 1.993 . S
Co137 O162 1.941 . S
C138 O139 1.258 . S
C138 O140 1.263 . S
O139 Co136 1.970 . S
O139 C138 1.258 . S
O140 Co137 1.966 . S
O140 C138 1.263 . S
C141 O142 1.235 . S
C141 O168 1.289 . S
O142 C141 1.235 . S
C143 C145 1.400 . S
C143 N146 1.351 . S
C143 C148 1.501 . S
C144 C145 1.387 . S
C144 N147 1.341 . S
C145 C143 1.400 . S
C145 C144 1.387 . S
N146 Co137 2.022 . S
N146 C143 1.351 . S
N146 N147 1.365 . S
N147 C144 1.341 . S
N147 N146 1.365 . S
N147 H167 0.862 . S
C148 C143 1.501 . S
C148 H149 0.961 . S
C148 H150 0.961 . S
C148 H151 0.960 . S
H149 C148 0.961 . S
H150 C148 0.961 . S
H151 C148 0.960 . S
C152 N153 1.342 . S
C152 C156 1.401 . S
C152 C157 1.499 . S
N153 Co136 1.989 . S
N153 C152 1.342 . S
N153 N154 1.388 . S
N154 Co137 1.993 . S
N154 N153 1.388 . S
N154 C155 1.346 . S
C155 N154 1.346 . S
C155 C156 1.396 . S
C155 C165 1.510 . S
C156 C152 1.401 . S
C156 C155 1.396 . S
C157 C152 1.499 . S
C157 H158 0.959 . S
C157 H159 0.960 . S
C157 H160 0.961 . S
H158 C157 0.959 . S
H159 C157 0.960 . S
H160 C157 0.961 . S
O161 Co136 1.967 . S
O161 C169 1.258 . S
O162 Co137 1.941 . S
O162 C169 1.266 . S
H163 C165 0.959 . S
H164 C165 0.961 . S
C165 C155 1.510 . S
C165 H163 0.959 . S
C165 H164 0.961 . S
C165 H166 0.960 . S
H166 C165 0.960 . S
H167 N147 0.862 . S
O168 Co136 1.920 . S
O168 C141 1.289 . S
C169 O161 1.258 . S
C169 O162 1.266 . S
Co170 O173 1.970 . S
Co170 N187 1.989 . S
Co170 O195 1.967 . S
Co170 O202 1.920 . S
Co171 O174 1.966 . S
Co171 N180 2.022 . S
Co171 N188 1.993 . S
Co171 O196 1.941 . S
C172 O173 1.258 . S
C172 O174 1.263 . S
O173 Co170 1.970 . S
O173 C172 1.258 . S
O174 Co171 1.966 . S
O174 C172 1.263 . S
C175 O176 1.235 . S
C175 O202 1.289 . S
O176 C175 1.235 . S
C177 C179 1.400 . S
C177 N180 1.351 . S
C177 C182 1.501 . S
C178 C179 1.387 . S
C178 N181 1.341 . S
C179 C177 1.400 . S
C179 C178 1.387 . S
N180 Co171 2.022 . S
N180 C177 1.351 . S
N180 N181 1.365 . S
N181 C178 1.341 . S
N181 N180 1.365 . S
N181 H201 0.862 . S
C182 C177 1.501 . S
C182 H183 0.961 . S
C182 H184 0.961 . S
C182 H185 0.960 . S
H183 C182 0.961 . S
H184 C182 0.961 . S
H185 C182 0.960 . S
C186 N187 1.342 . S
C186 C190 1.401 . S
C186 C191 1.499 . S
N187 Co170 1.989 . S
N187 C186 1.342 . S
N187 N188 1.388 . S
N188 Co171 1.993 . S
N188 N187 1.388 . S
N188 C189 1.346 . S
C189 N188 1.346 . S
C189 C190 1.396 . S
C189 C199 1.510 . S
C190 C186 1.401 . S
C190 C189 1.396 . S
C191 C186 1.499 . S
C191 H192 0.959 . S
C191 H193 0.960 . S
C191 H194 0.961 . S
H192 C191 0.959 . S
H193 C191 0.960 . S
H194 C191 0.961 . S
O195 Co170 1.967 . S
O195 C203 1.258 . S
O196 Co171 1.941 . S
O196 C203 1.266 . S
H197 C199 0.959 . S
H198 C199 0.961 . S
C199 C189 1.510 . S
C199 H197 0.959 . S
C199 H198 0.961 . S
C199 H200 0.960 . S
H200 C199 0.960 . S
H201 N181 0.862 . S
O202 Co170 1.920 . S
O202 C175 1.289 . S
C203 O195 1.258 . S
C203 O196 1.266 . S
Co204 O207 1.970 . S
Co204 N221 1.989 . S
Co204 O229 1.967 . S
Co204 O236 1.920 . S
Co205 O208 1.966 . S
Co205 N214 2.022 . S
Co205 N222 1.993 . S
Co205 O230 1.941 . S
C206 O207 1.258 . S
C206 O208 1.263 . S
O207 Co204 1.970 . S
O207 C206 1.258 . S
O208 Co205 1.966 . S
O208 C206 1.263 . S
C209 O210 1.235 . S
C209 O236 1.289 . S
O210 C209 1.235 . S
C211 C213 1.400 . S
C211 N214 1.351 . S
C211 C216 1.501 . S
C212 C213 1.387 . S
C212 N215 1.341 . S
C213 C211 1.400 . S
C213 C212 1.387 . S
N214 Co205 2.022 . S
N214 C211 1.351 . S
N214 N215 1.365 . S
N215 C212 1.341 . S
N215 N214 1.365 . S
N215 H235 0.862 . S
C216 C211 1.501 . S
C216 H217 0.961 . S
C216 H218 0.961 . S
C216 H219 0.960 . S
H217 C216 0.961 . S
H218 C216 0.961 . S
H219 C216 0.960 . S
C220 N221 1.342 . S
C220 C224 1.401 . S
C220 C225 1.499 . S
N221 Co204 1.989 . S
N221 C220 1.342 . S
N221 N222 1.388 . S
N222 Co205 1.993 . S
N222 N221 1.388 . S
N222 C223 1.346 . S
C223 N222 1.346 . S
C223 C224 1.396 . S
C223 C233 1.510 . S
C224 C220 1.401 . S
C224 C223 1.396 . S
C225 C220 1.499 . S
C225 H226 0.959 . S
C225 H227 0.960 . S
C225 H228 0.961 . S
H226 C225 0.959 . S
H227 C225 0.960 . S
H228 C225 0.961 . S
O229 Co204 1.967 . S
O229 C237 1.258 . S
O230 Co205 1.941 . S
O230 C237 1.266 . S
H231 C233 0.959 . S
H232 C233 0.961 . S
C233 C223 1.510 . S
C233 H231 0.959 . S
C233 H232 0.961 . S
C233 H234 0.960 . S
H234 C233 0.960 . S
H235 N215 0.862 . S
O236 Co204 1.920 . S
O236 C209 1.289 . S
C237 O229 1.258 . S
C237 O230 1.266 . S
Co238 O241 1.970 . S
Co238 N255 1.989 . S
Co238 O263 1.967 . S
Co238 O270 1.920 . S
Co239 O242 1.966 . S
Co239 N248 2.022 . S
Co239 N256 1.993 . S
Co239 O264 1.941 . S
C240 O241 1.258 . S
C240 O242 1.263 . S
O241 Co238 1.970 . S
O241 C240 1.258 . S
O242 Co239 1.966 . S
O242 C240 1.263 . S
C243 O244 1.235 . S
C243 O270 1.289 . S
O244 C243 1.235 . S
C245 C247 1.400 . S
C245 N248 1.351 . S
C245 C250 1.501 . S
C246 C247 1.387 . S
C246 N249 1.341 . S
C247 C245 1.400 . S
C247 C246 1.387 . S
N248 Co239 2.022 . S
N248 C245 1.351 . S
N248 N249 1.365 . S
N249 C246 1.341 . S
N249 N248 1.365 . S
N249 H269 0.862 . S
C250 C245 1.501 . S
C250 H251 0.961 . S
C250 H252 0.961 . S
C250 H253 0.960 . S
H251 C250 0.961 . S
H252 C250 0.961 . S
H253 C250 0.960 . S
C254 N255 1.342 . S
C254 C258 1.401 . S
C254 C259 1.499 . S
N255 Co238 1.989 . S
N255 C254 1.342 . S
N255 N256 1.388 . S
N256 Co239 1.993 . S
N256 N255 1.388 . S
N256 C257 1.346 . S
C257 N256 1.346 . S
C257 C258 1.396 . S
C257 C267 1.510 . S
C258 C254 1.401 . S
C258 C257 1.396 . S
C259 C254 1.499 . S
C259 H260 0.959 . S
C259 H261 0.960 . S
C259 H262 0.961 . S
H260 C259 0.959 . S
H261 C259 0.960 . S
H262 C259 0.961 . S
O263 Co238 1.967 . S
O263 C271 1.258 . S
O264 Co239 1.941 . S
O264 C271 1.266 . S
H265 C267 0.959 . S
H266 C267 0.961 . S
C267 C257 1.510 . S
C267 H265 0.959 . S
C267 H266 0.961 . S
C267 H268 0.960 . S
H268 C267 0.960 . S
H269 N249 0.862 . S
O270 Co238 1.920 . S
O270 C243 1.289 . S
C271 O263 1.258 . S
C271 O264 1.266 . S
Co272 O275 1.970 . S
Co272 N289 1.989 . S
Co272 O297 1.967 . S
Co272 O304 1.920 . S
Co273 O276 1.966 . S
Co273 N282 2.022 . S
Co273 N290 1.993 . S
Co273 O298 1.941 . S
C274 O275 1.258 . S
C274 O276 1.263 . S
O275 Co272 1.970 . S
O275 C274 1.258 . S
O276 Co273 1.966 . S
O276 C274 1.263 . S
C277 O278 1.235 . S
C277 O304 1.289 . S
O278 C277 1.235 . S
C279 C281 1.400 . S
C279 N282 1.351 . S
C279 C284 1.501 . S
C280 C281 1.387 . S
C280 N283 1.341 . S
C281 C279 1.400 . S
C281 C280 1.387 . S
N282 Co273 2.022 . S
N282 C279 1.351 . S
N282 N283 1.365 . S
N283 C280 1.341 . S
N283 N282 1.365 . S
N283 H303 0.862 . S
C284 C279 1.501 . S
C284 H285 0.961 . S
C284 H286 0.961 . S
C284 H287 0.960 . S
H285 C284 0.961 . S
H286 C284 0.961 . S
H287 C284 0.960 . S
C288 N289 1.342 . S
C288 C292 1.401 . S
C288 C293 1.499 . S
N289 Co272 1.989 . S
N289 C288 1.342 . S
N289 N290 1.388 . S
N290 Co273 1.993 . S
N290 N289 1.388 . S
N290 C291 1.346 . S
C291 N290 1.346 . S
C291 C292 1.396 . S
C291 C301 1.510 . S
C292 C288 1.401 . S
C292 C291 1.396 . S
C293 C288 1.499 . S
C293 H294 0.959 . S
C293 H295 0.960 . S
C293 H296 0.961 . S
H294 C293 0.959 . S
H295 C293 0.960 . S
H296 C293 0.961 . S
O297 Co272 1.967 . S
O297 C305 1.258 . S
O298 Co273 1.941 . S
O298 C305 1.266 . S
H299 C301 0.959 . S
H300 C301 0.961 . S
C301 C291 1.510 . S
C301 H299 0.959 . S
C301 H300 0.961 . S
C301 H302 0.960 . S
H302 C301 0.960 . S
H303 N283 0.862 . S
O304 Co272 1.920 . S
O304 C277 1.289 . S
C305 O297 1.258 . S
C305 O298 1.266 . S
Co306 O309 1.970 . S
Co306 N323 1.989 . S
Co306 O331 1.967 . S
Co306 O338 1.920 . S
Co307 O310 1.966 . S
Co307 N316 2.022 . S
Co307 N324 1.993 . S
Co307 O332 1.941 . S
C308 O309 1.258 . S
C308 O310 1.263 . S
O309 Co306 1.970 . S
O309 C308 1.258 . S
O310 Co307 1.966 . S
O310 C308 1.263 . S
C311 O312 1.235 . S
C311 O338 1.289 . S
O312 C311 1.235 . S
C313 C315 1.400 . S
C313 N316 1.351 . S
C313 C318 1.501 . S
C314 C315 1.387 . S
C314 N317 1.341 . S
C315 C313 1.400 . S
C315 C314 1.387 . S
N316 Co307 2.022 . S
N316 C313 1.351 . S
N316 N317 1.365 . S
N317 C314 1.341 . S
N317 N316 1.365 . S
N317 H337 0.862 . S
C318 C313 1.501 . S
C318 H319 0.961 . S
C318 H320 0.961 . S
C318 H321 0.960 . S
H319 C318 0.961 . S
H320 C318 0.961 . S
H321 C318 0.960 . S
C322 N323 1.342 . S
C322 C326 1.401 . S
C322 C327 1.499 . S
N323 Co306 1.989 . S
N323 C322 1.342 . S
N323 N324 1.388 . S
N324 Co307 1.993 . S
N324 N323 1.388 . S
N324 C325 1.346 . S
C325 N324 1.346 . S
C325 C326 1.396 . S
C325 C335 1.510 . S
C326 C322 1.401 . S
C326 C325 1.396 . S
C327 C322 1.499 . S
C327 H328 0.959 . S
C327 H329 0.960 . S
C327 H330 0.961 . S
H328 C327 0.959 . S
H329 C327 0.960 . S
H330 C327 0.961 . S
O331 Co306 1.967 . S
O331 C339 1.258 . S
O332 Co307 1.941 . S
O332 C339 1.266 . S
H333 C335 0.959 . S
H334 C335 0.961 . S
C335 C325 1.510 . S
C335 H333 0.959 . S
C335 H334 0.961 . S
C335 H336 0.960 . S
H336 C335 0.960 . S
H337 N317 0.862 . S
O338 Co306 1.920 . S
O338 C311 1.289 . S
C339 O331 1.258 . S
C339 O332 1.266 . S
Co340 O343 1.970 . S
Co340 N357 1.989 . S
Co340 O365 1.967 . S
Co340 O372 1.920 . S
Co341 O344 1.966 . S
Co341 N350 2.022 . S
Co341 N358 1.993 . S
Co341 O366 1.941 . S
C342 O343 1.258 . S
C342 O344 1.263 . S
O343 Co340 1.970 . S
O343 C342 1.258 . S
O344 Co341 1.966 . S
O344 C342 1.263 . S
C345 O346 1.235 . S
C345 O372 1.289 . S
O346 C345 1.235 . S
C347 C349 1.400 . S
C347 N350 1.351 . S
C347 C352 1.501 . S
C348 C349 1.387 . S
C348 N351 1.341 . S
C349 C347 1.400 . S
C349 C348 1.387 . S
N350 Co341 2.022 . S
N350 C347 1.351 . S
N350 N351 1.365 . S
N351 C348 1.341 . S
N351 N350 1.365 . S
N351 H371 0.862 . S
C352 C347 1.501 . S
C352 H353 0.961 . S
C352 H354 0.961 . S
C352 H355 0.960 . S
H353 C352 0.961 . S
H354 C352 0.961 . S
H355 C352 0.960 . S
C356 N357 1.342 . S
C356 C360 1.401 . S
C356 C361 1.499 . S
N357 Co340 1.989 . S
N357 C356 1.342 . S
N357 N358 1.388 . S
N358 Co341 1.993 . S
N358 N357 1.388 . S
N358 C359 1.346 . S
C359 N358 1.346 . S
C359 C360 1.396 . S
C359 C369 1.510 . S
C360 C356 1.401 . S
C360 C359 1.396 . S
C361 C356 1.499 . S
C361 H362 0.959 . S
C361 H363 0.960 . S
C361 H364 0.961 . S
H362 C361 0.959 . S
H363 C361 0.960 . S
H364 C361 0.961 . S
O365 Co340 1.967 . S
O365 C373 1.258 . S
O366 Co341 1.941 . S
O366 C373 1.266 . S
H367 C369 0.959 . S
H368 C369 0.961 . S
C369 C359 1.510 . S
C369 H367 0.959 . S
C369 H368 0.961 . S
C369 H370 0.960 . S
H370 C369 0.960 . S
H371 N351 0.862 . S
O372 Co340 1.920 . S
O372 C345 1.289 . S
C373 O365 1.258 . S
C373 O366 1.266 . S
Co374 O377 1.970 . S
Co374 N391 1.989 . S
Co374 O399 1.967 . S
Co374 O406 1.920 . S
Co375 O378 1.966 . S
Co375 N384 2.022 . S
Co375 N392 1.993 . S
Co375 O400 1.941 . S
C376 O377 1.258 . S
C376 O378 1.263 . S
O377 Co374 1.970 . S
O377 C376 1.258 . S
O378 Co375 1.966 . S
O378 C376 1.263 . S
C379 O380 1.235 . S
C379 O406 1.289 . S
O380 C379 1.235 . S
C381 C383 1.400 . S
C381 N384 1.351 . S
C381 C386 1.501 . S
C382 C383 1.387 . S
C382 N385 1.341 . S
C383 C381 1.400 . S
C383 C382 1.387 . S
N384 Co375 2.022 . S
N384 C381 1.351 . S
N384 N385 1.365 . S
N385 C382 1.341 . S
N385 N384 1.365 . S
N385 H405 0.862 . S
C386 C381 1.501 . S
C386 H387 0.961 . S
C386 H388 0.961 . S
C386 H389 0.960 . S
H387 C386 0.961 . S
H388 C386 0.961 . S
H389 C386 0.960 . S
C390 N391 1.342 . S
C390 C394 1.401 . S
C390 C395 1.499 . S
N391 Co374 1.989 . S
N391 C390 1.342 . S
N391 N392 1.388 . S
N392 Co375 1.993 . S
N392 N391 1.388 . S
N392 C393 1.346 . S
C393 N392 1.346 . S
C393 C394 1.396 . S
C393 C403 1.510 . S
C394 C390 1.401 . S
C394 C393 1.396 . S
C395 C390 1.499 . S
C395 H396 0.959 . S
C395 H397 0.960 . S
C395 H398 0.961 . S
H396 C395 0.959 . S
H397 C395 0.960 . S
H398 C395 0.961 . S
O399 Co374 1.967 . S
O399 C407 1.258 . S
O400 Co375 1.941 . S
O400 C407 1.266 . S
H401 C403 0.959 . S
H402 C403 0.961 . S
C403 C393 1.510 . S
C403 H401 0.959 . S
C403 H402 0.961 . S
C403 H404 0.960 . S
H404 C403 0.960 . S
H405 N385 0.862 . S
O406 Co374 1.920 . S
O406 C379 1.289 . S
C407 O399 1.258 . S
C407 O400 1.266 . S
Co408 O411 1.970 . S
Co408 N425 1.989 . S
Co408 O433 1.967 . S
Co408 O440 1.920 . S
Co409 O412 1.966 . S
Co409 N418 2.022 . S
Co409 N426 1.993 . S
Co409 O434 1.941 . S
C410 O411 1.258 . S
C410 O412 1.263 . S
O411 Co408 1.970 . S
O411 C410 1.258 . S
O412 Co409 1.966 . S
O412 C410 1.263 . S
C413 O414 1.235 . S
C413 O440 1.289 . S
O414 C413 1.235 . S
C415 C417 1.400 . S
C415 N418 1.351 . S
C415 C420 1.501 . S
C416 C417 1.387 . S
C416 N419 1.341 . S
C417 C415 1.400 . S
C417 C416 1.387 . S
N418 Co409 2.022 . S
N418 C415 1.351 . S
N418 N419 1.365 . S
N419 C416 1.341 . S
N419 N418 1.365 . S
N419 H439 0.862 . S
C420 C415 1.501 . S
C420 H421 0.961 . S
C420 H422 0.961 . S
C420 H423 0.960 . S
H421 C420 0.961 . S
H422 C420 0.961 . S
H423 C420 0.960 . S
C424 N425 1.342 . S
C424 C428 1.401 . S
C424 C429 1.499 . S
N425 Co408 1.989 . S
N425 C424 1.342 . S
N425 N426 1.388 . S
N426 Co409 1.993 . S
N426 N425 1.388 . S
N426 C427 1.346 . S
C427 N426 1.346 . S
C427 C428 1.396 . S
C427 C437 1.510 . S
C428 C424 1.401 . S
C428 C427 1.396 . S
C429 C424 1.499 . S
C429 H430 0.959 . S
C429 H431 0.960 . S
C429 H432 0.961 . S
H430 C429 0.959 . S
H431 C429 0.960 . S
H432 C429 0.961 . S
O433 Co408 1.967 . S
O433 C441 1.258 . S
O434 Co409 1.941 . S
O434 C441 1.266 . S
H435 C437 0.959 . S
H436 C437 0.961 . S
C437 C427 1.510 . S
C437 H435 0.959 . S
C437 H436 0.961 . S
C437 H438 0.960 . S
H438 C437 0.960 . S
H439 N419 0.862 . S
O440 Co408 1.920 . S
O440 C413 1.289 . S
C441 O433 1.258 . S
C441 O434 1.266 . S
Co442 O445 1.970 . S
Co442 N459 1.989 . S
Co442 O467 1.967 . S
Co442 O474 1.920 . S
Co443 O446 1.966 . S
Co443 N452 2.022 . S
Co443 N460 1.993 . S
Co443 O468 1.941 . S
C444 O445 1.258 . S
C444 O446 1.263 . S
O445 Co442 1.970 . S
O445 C444 1.258 . S
O446 Co443 1.966 . S
O446 C444 1.263 . S
C447 O448 1.235 . S
C447 O474 1.289 . S
O448 C447 1.235 . S
C449 C451 1.400 . S
C449 N452 1.351 . S
C449 C454 1.501 . S
C450 C451 1.387 . S
C450 N453 1.341 . S
C451 C449 1.400 . S
C451 C450 1.387 . S
N452 Co443 2.022 . S
N452 C449 1.351 . S
N452 N453 1.365 . S
N453 C450 1.341 . S
N453 N452 1.365 . S
N453 H473 0.862 . S
C454 C449 1.501 . S
C454 H455 0.961 . S
C454 H456 0.961 . S
C454 H457 0.960 . S
H455 C454 0.961 . S
H456 C454 0.961 . S
H457 C454 0.960 . S
C458 N459 1.342 . S
C458 C462 1.401 . S
C458 C463 1.499 . S
N459 Co442 1.989 . S
N459 C458 1.342 . S
N459 N460 1.388 . S
N460 Co443 1.993 . S
N460 N459 1.388 . S
N460 C461 1.346 . S
C461 N460 1.346 . S
C461 C462 1.396 . S
C461 C471 1.510 . S
C462 C458 1.401 . S
C462 C461 1.396 . S
C463 C458 1.499 . S
C463 H464 0.959 . S
C463 H465 0.960 . S
C463 H466 0.961 . S
H464 C463 0.959 . S
H465 C463 0.960 . S
H466 C463 0.961 . S
O467 Co442 1.967 . S
O467 C475 1.258 . S
O468 Co443 1.941 . S
O468 C475 1.266 . S
H469 C471 0.959 . S
H470 C471 0.961 . S
C471 C461 1.510 . S
C471 H469 0.959 . S
C471 H470 0.961 . S
C471 H472 0.960 . S
H472 C471 0.960 . S
H473 N453 0.862 . S
O474 Co442 1.920 . S
O474 C447 1.289 . S
C475 O467 1.258 . S
C475 O468 1.266 . S
Co476 O479 1.970 . S
Co476 N493 1.989 . S
Co476 O501 1.967 . S
Co476 O508 1.920 . S
Co477 O480 1.966 . S
Co477 N486 2.022 . S
Co477 N494 1.993 . S
Co477 O502 1.941 . S
C478 O479 1.258 . S
C478 O480 1.263 . S
O479 Co476 1.970 . S
O479 C478 1.258 . S
O480 Co477 1.966 . S
O480 C478 1.263 . S
C481 O482 1.235 . S
C481 O508 1.289 . S
O482 C481 1.235 . S
C483 C485 1.400 . S
C483 N486 1.351 . S
C483 C488 1.501 . S
C484 C485 1.387 . S
C484 N487 1.341 . S
C485 C483 1.400 . S
C485 C484 1.387 . S
N486 Co477 2.022 . S
N486 C483 1.351 . S
N486 N487 1.365 . S
N487 C484 1.341 . S
N487 N486 1.365 . S
N487 H507 0.862 . S
C488 C483 1.501 . S
C488 H489 0.961 . S
C488 H490 0.961 . S
C488 H491 0.960 . S
H489 C488 0.961 . S
H490 C488 0.961 . S
H491 C488 0.960 . S
C492 N493 1.342 . S
C492 C496 1.401 . S
C492 C497 1.499 . S
N493 Co476 1.989 . S
N493 C492 1.342 . S
N493 N494 1.388 . S
N494 Co477 1.993 . S
N494 N493 1.388 . S
N494 C495 1.346 . S
C495 N494 1.346 . S
C495 C496 1.396 . S
C495 C505 1.510 . S
C496 C492 1.401 . S
C496 C495 1.396 . S
C497 C492 1.499 . S
C497 H498 0.959 . S
C497 H499 0.960 . S
C497 H500 0.961 . S
H498 C497 0.959 . S
H499 C497 0.960 . S
H500 C497 0.961 . S
O501 Co476 1.967 . S
O501 C509 1.258 . S
O502 Co477 1.941 . S
O502 C509 1.266 . S
H503 C505 0.959 . S
H504 C505 0.961 . S
C505 C495 1.510 . S
C505 H503 0.959 . S
C505 H504 0.961 . S
C505 H506 0.960 . S
H506 C505 0.960 . S
H507 N487 0.862 . S
O508 Co476 1.920 . S
O508 C481 1.289 . S
C509 O501 1.258 . S
C509 O502 1.266 . S
Co510 O513 1.970 . S
Co510 N527 1.989 . S
Co510 O535 1.967 . S
Co510 O542 1.920 . S
Co511 O514 1.966 . S
Co511 N520 2.022 . S
Co511 N528 1.993 . S
Co511 O536 1.941 . S
C512 O513 1.258 . S
C512 O514 1.263 . S
O513 Co510 1.970 . S
O513 C512 1.258 . S
O514 Co511 1.966 . S
O514 C512 1.263 . S
C515 O516 1.235 . S
C515 O542 1.289 . S
O516 C515 1.235 . S
C517 C519 1.400 . S
C517 N520 1.351 . S
C517 C522 1.501 . S
C518 C519 1.387 . S
C518 N521 1.341 . S
C519 C517 1.400 . S
C519 C518 1.387 . S
N520 Co511 2.022 . S
N520 C517 1.351 . S
N520 N521 1.365 . S
N521 C518 1.341 . S
N521 N520 1.365 . S
N521 H541 0.862 . S
C522 C517 1.501 . S
C522 H523 0.961 . S
C522 H524 0.961 . S
C522 H525 0.960 . S
H523 C522 0.961 . S
H524 C522 0.961 . S
H525 C522 0.960 . S
C526 N527 1.342 . S
C526 C530 1.401 . S
C526 C531 1.499 . S
N527 Co510 1.989 . S
N527 C526 1.342 . S
N527 N528 1.388 . S
N528 Co511 1.993 . S
N528 N527 1.388 . S
N528 C529 1.346 . S
C529 N528 1.346 . S
C529 C530 1.396 . S
C529 C539 1.510 . S
C530 C526 1.401 . S
C530 C529 1.396 . S
C531 C526 1.499 . S
C531 H532 0.959 . S
C531 H533 0.960 . S
C531 H534 0.961 . S
H532 C531 0.959 . S
H533 C531 0.960 . S
H534 C531 0.961 . S
O535 Co510 1.967 . S
O535 C543 1.258 . S
O536 Co511 1.941 . S
O536 C543 1.266 . S
H537 C539 0.959 . S
H538 C539 0.961 . S
C539 C529 1.510 . S
C539 H537 0.959 . S
C539 H538 0.961 . S
C539 H540 0.960 . S
H540 C539 0.960 . S
H541 N521 0.862 . S
O542 Co510 1.920 . S
O542 C515 1.289 . S
C543 O535 1.258 . S
C543 O536 1.266 . S
Co544 O547 1.970 . S
Co544 N561 1.989 . S
Co544 O569 1.967 . S
Co544 O576 1.920 . S
Co545 O548 1.966 . S
Co545 N554 2.022 . S
Co545 N562 1.993 . S
Co545 O570 1.941 . S
C546 O547 1.258 . S
C546 O548 1.263 . S
O547 Co544 1.970 . S
O547 C546 1.258 . S
O548 Co545 1.966 . S
O548 C546 1.263 . S
C549 O550 1.235 . S
C549 O576 1.289 . S
O550 C549 1.235 . S
C551 C553 1.400 . S
C551 N554 1.351 . S
C551 C556 1.501 . S
C552 C553 1.387 . S
C552 N555 1.341 . S
C553 C551 1.400 . S
C553 C552 1.387 . S
N554 Co545 2.022 . S
N554 C551 1.351 . S
N554 N555 1.365 . S
N555 C552 1.341 . S
N555 N554 1.365 . S
N555 H575 0.862 . S
C556 C551 1.501 . S
C556 H557 0.961 . S
C556 H558 0.961 . S
C556 H559 0.960 . S
H557 C556 0.961 . S
H558 C556 0.961 . S
H559 C556 0.960 . S
C560 N561 1.342 . S
C560 C564 1.401 . S
C560 C565 1.499 . S
N561 Co544 1.989 . S
N561 C560 1.342 . S
N561 N562 1.388 . S
N562 Co545 1.993 . S
N562 N561 1.388 . S
N562 C563 1.346 . S
C563 N562 1.346 . S
C563 C564 1.396 . S
C563 C573 1.510 . S
C564 C560 1.401 . S
C564 C563 1.396 . S
C565 C560 1.499 . S
C565 H566 0.959 . S
C565 H567 0.960 . S
C565 H568 0.961 . S
H566 C565 0.959 . S
H567 C565 0.960 . S
H568 C565 0.961 . S
O569 Co544 1.967 . S
O569 C577 1.258 . S
O570 Co545 1.941 . S
O570 C577 1.266 . S
H571 C573 0.959 . S
H572 C573 0.961 . S
C573 C563 1.510 . S
C573 H571 0.959 . S
C573 H572 0.961 . S
C573 H574 0.960 . S
H574 C573 0.960 . S
H575 N555 0.862 . S
O576 Co544 1.920 . S
O576 C549 1.289 . S
C577 O569 1.258 . S
C577 O570 1.266 . S
Co578 O581 1.970 . S
Co578 N595 1.989 . S
Co578 O603 1.967 . S
Co578 O610 1.920 . S
Co579 O582 1.966 . S
Co579 N588 2.022 . S
Co579 N596 1.993 . S
Co579 O604 1.941 . S
C580 O581 1.258 . S
C580 O582 1.263 . S
O581 Co578 1.970 . S
O581 C580 1.258 . S
O582 Co579 1.966 . S
O582 C580 1.263 . S
C583 O584 1.235 . S
C583 O610 1.289 . S
O584 C583 1.235 . S
C585 C587 1.400 . S
C585 N588 1.351 . S
C585 C590 1.501 . S
C586 C587 1.387 . S
C586 N589 1.341 . S
C587 C585 1.400 . S
C587 C586 1.387 . S
N588 Co579 2.022 . S
N588 C585 1.351 . S
N588 N589 1.365 . S
N589 C586 1.341 . S
N589 N588 1.365 . S
N589 H609 0.862 . S
C590 C585 1.501 . S
C590 H591 0.961 . S
C590 H592 0.961 . S
C590 H593 0.960 . S
H591 C590 0.961 . S
H592 C590 0.961 . S
H593 C590 0.960 . S
C594 N595 1.342 . S
C594 C598 1.401 . S
C594 C599 1.499 . S
N595 Co578 1.989 . S
N595 C594 1.342 . S
N595 N596 1.388 . S
N596 Co579 1.993 . S
N596 N595 1.388 . S
N596 C597 1.346 . S
C597 N596 1.346 . S
C597 C598 1.396 . S
C597 C607 1.510 . S
C598 C594 1.401 . S
C598 C597 1.396 . S
C599 C594 1.499 . S
C599 H600 0.959 . S
C599 H601 0.960 . S
C599 H602 0.961 . S
H600 C599 0.959 . S
H601 C599 0.960 . S
H602 C599 0.961 . S
O603 Co578 1.967 . S
O603 C611 1.258 . S
O604 Co579 1.941 . S
O604 C611 1.266 . S
H605 C607 0.959 . S
H606 C607 0.961 . S
C607 C597 1.510 . S
C607 H605 0.959 . S
C607 H606 0.961 . S
C607 H608 0.960 . S
H608 C607 0.960 . S
H609 N589 0.862 . S
O610 Co578 1.920 . S
O610 C583 1.289 . S
C611 O603 1.258 . S
C611 O604 1.266 . S
C612 C613 1.349 . S
C612 C614 1.327 . S
C612 H637 0.950 . S
C613 C612 1.349 . S
C613 C629 1.349 . S
C614 C612 1.327 . S
C614 C633 1.429 . S
C614 H638 0.950 . S
C615 C632 1.574 . S
C615 C634 1.368 . S
C615 H639 0.949 . S
H616 C620 0.949 . S
C617 C618 1.349 . S
C617 C619 1.327 . S
C617 H640 0.950 . S
C618 C617 1.349 . S
C618 C630 1.349 . S
C619 C617 1.327 . S
C619 C635 1.429 . S
C619 H641 0.950 . S
C620 H616 0.949 . S
C620 C628 1.574 . S
C620 C636 1.368 . S
H621 C629 0.950 . S
H622 C627 0.950 . S
H623 C628 0.949 . S
H624 C630 0.950 . S
H625 C631 0.950 . S
H626 C632 0.949 . S
C627 H622 0.950 . S
C627 C629 1.327 . S
C627 C633 1.429 . S
C628 C620 1.574 . S
C628 H623 0.949 . S
C628 C634 1.368 . S
C629 C613 1.349 . S
C629 H621 0.950 . S
C629 C627 1.327 . S
C630 C618 1.349 . S
C630 H624 0.950 . S
C630 C631 1.327 . S
C631 H625 0.950 . S
C631 C630 1.327 . S
C631 C635 1.429 . S
C632 C615 1.574 . S
C632 H626 0.949 . S
C632 C636 1.368 . S
C633 C614 1.429 . S
C633 C627 1.429 . S
C633 C634 1.523 . S
C634 C615 1.368 . S
C634 C628 1.368 . S
C634 C633 1.523 . S
C635 C619 1.429 . S
C635 C631 1.429 . S
C635 C636 1.523 . S
C636 C620 1.368 . S
C636 C632 1.368 . S
C636 C635 1.523 . S
H637 C612 0.950 . S
H638 C614 0.950 . S
H639 C615 0.949 . S
H640 C617 0.950 . S
H641 C619 0.950 . S
C642 C643 1.356 1_545 S
C642 C644 1.321 . S
C642 H667 0.948 . S
C643 C642 1.356 1_565 S
C643 C659 1.349 . S
C644 C642 1.321 . S
C644 C663 1.429 . S
C644 H668 0.950 . S
C645 C662 1.574 . S
C645 C664 1.368 . S
C645 H669 0.949 . S
H646 C650 0.949 . S
C647 C648 1.349 . S
C647 C649 1.327 . S
C647 H670 0.950 . S
C648 C647 1.349 . S
C648 C660 1.349 . S
C649 C647 1.327 . S
C649 C665 1.429 . S
C649 H671 0.950 . S
C650 H646 0.949 . S
C650 C658 1.574 . S
C650 C666 1.368 . S
H651 C659 0.950 . S
H652 C657 0.950 . S
H653 C658 0.949 . S
H654 C660 0.950 . S
H655 C661 0.950 . S
H656 C662 0.949 . S
C657 H652 0.950 . S
C657 C659 1.327 . S
C657 C663 1.429 1_565 S
C658 C650 1.574 . S
C658 H653 0.949 . S
C658 C664 1.368 . S
C659 C643 1.349 . S
C659 H651 0.950 . S
C659 C657 1.327 . S
C660 C648 1.349 . S
C660 H654 0.950 . S
C660 C661 1.327 . S
C661 H655 0.950 . S
C661 C660 1.327 . S
C661 C665 1.429 . S
C662 C645 1.574 . S
C662 H656 0.949 . S
C662 C666 1.368 . S
C663 C644 1.429 . S
C663 C657 1.429 1_545 S
C663 C664 1.523 . S
C664 C645 1.368 . S
C664 C658 1.368 . S
C664 C663 1.523 . S
C665 C649 1.429 . S
C665 C661 1.429 . S
C665 C666 1.523 . S
C666 C650 1.368 . S
C666 C662 1.368 . S
C666 C665 1.523 . S
H667 C642 0.948 . S
H668 C644 0.950 . S
H669 C645 0.949 . S
H670 C647 0.950 . S
H671 C649 0.950 . S
C672 C673 1.349 . S
C672 C674 1.327 1_455 S
C672 H697 0.950 . S
C673 C672 1.349 . S
C673 C689 1.349 . S
C674 C672 1.327 1_655 S
C674 C693 1.429 . S
C674 H698 0.950 . S
C675 C692 1.574 . S
C675 C694 1.368 . S
C675 H699 0.949 . S
H676 C680 0.949 . S
C677 C678 1.349 . S
C677 C679 1.327 . S
C677 H700 0.950 . S
C678 C677 1.349 . S
C678 C690 1.349 . S
C679 C677 1.327 . S
C679 C695 1.429 . S
C679 H701 0.950 . S
C680 H676 0.949 . S
C680 C688 1.574 . S
C680 C696 1.368 . S
H681 C689 0.950 . S
H682 C687 0.925 . S
H683 C688 0.949 . S
H684 C690 0.950 . S
H685 C691 0.950 . S
H686 C692 0.949 . S
C687 H682 0.925 . S
C687 C689 1.306 1_655 S
C687 C693 1.477 . S
C688 C680 1.574 . S
C688 H683 0.949 . S
C688 C694 1.368 . S
C689 C673 1.349 . S
C689 H681 0.950 . S
C689 C687 1.306 1_455 S
C690 C678 1.349 . S
C690 H684 0.950 . S
C690 C691 1.327 . S
C691 H685 0.950 . S
C691 C690 1.327 . S
C691 C695 1.429 . S
C692 C675 1.574 . S
C692 H686 0.949 . S
C692 C696 1.368 . S
C693 C674 1.429 . S
C693 C687 1.477 . S
C693 C694 1.523 . S
C694 C675 1.368 . S
C694 C688 1.368 . S
C694 C693 1.523 . S
C695 C679 1.429 . S
C695 C691 1.429 . S
C695 C696 1.523 . S
C696 C680 1.368 . S
C696 C692 1.368 . S
C696 C695 1.523 . S
H697 C672 0.950 . S
H698 C674 0.950 . S
H699 C675 0.949 . S
H700 C677 0.950 . S
H701 C679 0.950 . S
C702 C703 1.349 . S
C702 C704 1.327 . S
C702 H727 0.950 . S
C703 C702 1.349 . S
C703 C719 1.349 . S
C704 C702 1.327 . S
C704 C723 1.429 . S
C704 H728 0.950 . S
C705 C722 1.574 . S
C705 C724 1.368 . S
C705 H729 0.949 . S
H706 C710 0.949 . S
C707 C708 1.349 . S
C707 C709 1.327 . S
C707 H730 0.950 . S
C708 C707 1.349 . S
C708 C720 1.349 . S
C709 C707 1.327 . S
C709 C725 1.429 . S
C709 H731 0.950 . S
C710 H706 0.949 . S
C710 C718 1.574 . S
C710 C726 1.368 . S
H711 C719 0.950 . S
H712 C717 0.950 . S
H713 C718 0.949 . S
H714 C720 0.950 . S
H715 C721 0.950 . S
H716 C722 0.949 . S
C717 H712 0.950 . S
C717 C719 1.327 . S
C717 C723 1.429 . S
C718 C710 1.574 . S
C718 H713 0.949 . S
C718 C724 1.368 . S
C719 C703 1.349 . S
C719 H711 0.950 . S
C719 C717 1.327 . S
C720 C708 1.349 . S
C720 H714 0.950 . S
C720 C721 1.327 . S
C721 H715 0.950 . S
C721 C720 1.327 . S
C721 C725 1.429 . S
C722 C705 1.574 . S
C722 H716 0.949 . S
C722 C726 1.368 . S
C723 C704 1.429 . S
C723 C717 1.429 . S
C723 C724 1.523 . S
C724 C705 1.368 . S
C724 C718 1.368 . S
C724 C723 1.523 . S
C725 C709 1.429 . S
C725 C721 1.429 . S
C725 C726 1.523 . S
C726 C710 1.368 . S
C726 C722 1.368 . S
C726 C725 1.523 . S
H727 C702 0.950 . S
H728 C704 0.950 . S
H729 C705 0.949 . S
H730 C707 0.950 . S
H731 C709 0.950 . S
C732 C733 1.349 . S
C732 C734 1.327 1_545 S
C732 H757 0.950 . S
C733 C732 1.349 . S
C733 C749 1.349 . S
C734 C732 1.327 1_565 S
C734 C753 1.429 . S
C734 H758 0.950 . S
C735 C752 1.574 . S
C735 C754 1.368 . S
C735 H759 0.949 . S
H736 C740 0.949 . S
C737 C738 1.349 . S
C737 C739 1.327 . S
C737 H760 0.950 . S
C738 C737 1.349 . S
C738 C750 1.349 . S
C739 C737 1.327 . S
C739 C755 1.429 . S
C739 H761 0.950 . S
C740 H736 0.949 . S
C740 C748 1.574 . S
C740 C756 1.368 . S
H741 C749 0.950 . S
H742 C747 0.950 . S
H743 C748 0.949 . S
H744 C750 0.950 . S
H745 C751 0.950 . S
H746 C752 0.949 . S
C747 H742 0.950 . S
C747 C749 1.327 1_565 S
C747 C753 1.429 . S
C748 C740 1.574 . S
C748 H743 0.949 . S
C748 C754 1.368 . S
C749 C733 1.349 . S
C749 H741 0.950 . S
C749 C747 1.327 1_545 S
C750 C738 1.349 . S
C750 H744 0.950 . S
C750 C751 1.327 . S
C751 H745 0.950 . S
C751 C750 1.327 . S
C751 C755 1.429 . S
C752 C735 1.574 . S
C752 H746 0.949 . S
C752 C756 1.368 . S
C753 C734 1.429 . S
C753 C747 1.429 . S
C753 C754 1.523 . S
C754 C735 1.368 . S
C754 C748 1.368 . S
C754 C753 1.523 . S
C755 C739 1.429 . S
C755 C751 1.429 . S
C755 C756 1.523 . S
C756 C740 1.368 . S
C756 C752 1.368 . S
C756 C755 1.523 . S
H757 C732 0.950 . S
H758 C734 0.950 . S
H759 C735 0.949 . S
H760 C737 0.950 . S
H761 C739 0.950 . S
C762 C763 1.349 . S
C762 C764 1.327 . S
C762 H787 0.950 . S
C763 C762 1.349 . S
C763 C779 1.349 1_655 S
C764 C762 1.327 . S
C764 C783 1.429 1_655 S
C764 H788 0.950 . S
C765 C782 1.574 . S
C765 C784 1.368 . S
C765 H789 0.949 . S
H766 C770 0.949 . S
C767 C768 1.349 . S
C767 C769 1.327 . S
C767 H790 0.950 . S
C768 C767 1.349 . S
C768 C780 1.349 . S
C769 C767 1.327 . S
C769 C785 1.429 . S
C769 H791 0.950 . S
C770 H766 0.949 . S
C770 C778 1.574 . S
C770 C786 1.368 . S
H771 C779 0.950 . S
H772 C777 0.950 . S
H773 C778 0.949 . S
H774 C780 0.950 . S
H775 C781 0.950 . S
H776 C782 0.949 . S
C777 H772 0.950 . S
C777 C779 1.327 . S
C777 C783 1.429 . S
C778 C770 1.574 . S
C778 H773 0.949 . S
C778 C784 1.368 . S
C779 C763 1.349 1_455 S
C779 H771 0.950 . S
C779 C777 1.327 . S
C780 C768 1.349 . S
C780 H774 0.950 . S
C780 C781 1.327 . S
C781 H775 0.950 . S
C781 C780 1.327 . S
C781 C785 1.429 . S
C782 C765 1.574 . S
C782 H776 0.949 . S
C782 C786 1.368 . S
C783 C764 1.429 1_455 S
C783 C777 1.429 . S
C783 C784 1.523 . S
C784 C765 1.368 . S
C784 C778 1.368 . S
C784 C783 1.523 . S
C785 C769 1.429 . S
C785 C781 1.429 . S
C785 C786 1.523 . S
C786 C770 1.368 . S
C786 C782 1.368 . S
C786 C785 1.523 . S
H787 C762 0.950 . S
H788 C764 0.950 . S
H789 C765 0.949 . S
H790 C767 0.950 . S
H791 C769 0.950 . S
C792 C793 1.349 . S
C792 C794 1.327 . S
C792 H817 0.950 . S
C793 C792 1.349 . S
C793 C809 1.349 . S
C794 C792 1.327 . S
C794 C813 1.429 . S
C794 H818 0.950 . S
C795 C812 1.574 . S
C795 C814 1.368 . S
C795 H819 0.949 . S
H796 C800 0.949 . S
C797 C798 1.349 . S
C797 C799 1.327 . S
C797 H820 0.950 . S
C798 C797 1.349 . S
C798 C810 1.349 . S
C799 C797 1.327 . S
C799 C815 1.429 . S
C799 H821 0.950 . S
C800 H796 0.949 . S
C800 C808 1.574 . S
C800 C816 1.368 . S
H801 C809 0.950 . S
H802 C807 0.950 . S
H803 C808 0.949 . S
H804 C810 0.950 . S
H805 C811 0.950 . S
H806 C812 0.949 . S
C807 H802 0.950 . S
C807 C809 1.327 . S
C807 C813 1.429 . S
C808 C800 1.574 . S
C808 H803 0.949 . S
C808 C814 1.368 . S
C809 C793 1.349 . S
C809 H801 0.950 . S
C809 C807 1.327 . S
C810 C798 1.349 . S
C810 H804 0.950 . S
C810 C811 1.327 . S
C811 H805 0.950 . S
C811 C810 1.327 . S
C811 C815 1.429 . S
C812 C795 1.574 . S
C812 H806 0.949 . S
C812 C816 1.368 . S
C813 C794 1.429 . S
C813 C807 1.429 . S
C813 C814 1.523 . S
C814 C795 1.368 . S
C814 C808 1.368 . S
C814 C813 1.523 . S
C815 C799 1.429 . S
C815 C811 1.429 . S
C815 C816 1.523 1_455 S
C816 C800 1.368 . S
C816 C812 1.368 . S
C816 C815 1.523 1_655 S
H817 C792 0.950 . S
H818 C794 0.950 . S
H819 C795 0.949 . S
H820 C797 0.950 . S
H821 C799 0.950 . S
C822 C823 1.349 . S
C822 C824 1.327 . S
C822 H847 0.950 . S
C823 C822 1.349 . S
C823 C839 1.349 . S
C824 C822 1.327 . S
C824 C843 1.429 . S
C824 H848 0.950 . S
C825 C842 1.574 . S
C825 C844 1.368 . S
C825 H849 0.949 . S
H826 C830 0.949 . S
C827 C828 1.349 . S
C827 C829 1.327 . S
C827 H850 0.950 . S
C828 C827 1.349 . S
C828 C840 1.349 . S
C829 C827 1.327 . S
C829 C845 1.429 . S
C829 H851 0.950 . S
C830 H826 0.949 . S
C830 C838 1.574 . S
C830 C846 1.368 . S
H831 C839 0.950 . S
H832 C837 0.950 . S
H833 C838 0.949 . S
H834 C840 0.950 . S
H835 C841 0.950 . S
H836 C842 0.949 . S
C837 H832 0.950 . S
C837 C839 1.327 . S
C837 C843 1.429 . S
C838 C830 1.574 . S
C838 H833 0.949 . S
C838 C844 1.368 . S
C839 C823 1.349 . S
C839 H831 0.950 . S
C839 C837 1.327 . S
C840 C828 1.349 . S
C840 H834 0.950 . S
C840 C841 1.327 . S
C841 H835 0.950 . S
C841 C840 1.327 . S
C841 C845 1.429 . S
C842 C825 1.574 . S
C842 H836 0.949 . S
C842 C846 1.368 . S
C843 C824 1.429 . S
C843 C837 1.429 . S
C843 C844 1.523 . S
C844 C825 1.368 . S
C844 C838 1.368 . S
C844 C843 1.523 . S
C845 C829 1.429 . S
C845 C841 1.429 . S
C845 C846 1.523 . S
C846 C830 1.368 . S
C846 C842 1.368 . S
C846 C845 1.523 . S
H847 C822 0.950 . S
H848 C824 0.950 . S
H849 C825 0.949 . S
H850 C827 0.950 . S
H851 C829 0.950 . S
C852 C853 1.349 . S
C852 C854 1.326 . S
C852 H877 0.950 . S
C853 C852 1.349 . S
C853 C869 1.349 . S
C854 C852 1.326 . S
C854 C873 1.427 . S
C854 H878 0.952 1_565 S
C855 C872 1.574 . S
C855 C874 1.368 . S
C855 H879 0.949 1_545 S
H856 C860 0.949 . S
C857 C858 1.349 . S
C857 C859 1.327 . S
C857 H880 0.950 . S
C858 C857 1.349 . S
C858 C870 1.349 . S
C859 C857 1.327 . S
C859 C875 1.429 . S
C859 H881 0.950 . S
C860 H856 0.949 . S
C860 C868 1.574 . S
C860 C876 1.368 . S
H861 C869 0.950 . S
H862 C867 0.950 . S
H863 C868 0.949 . S
H864 C870 0.950 . S
H865 C871 0.950 . S
H866 C872 0.949 . S
C867 H862 0.950 . S
C867 C869 1.327 . S
C867 C873 1.429 . S
C868 C860 1.574 . S
C868 H863 0.949 . S
C868 C874 1.368 . S
C869 C853 1.349 . S
C869 H861 0.950 . S
C869 C867 1.327 . S
C870 C858 1.349 . S
C870 H864 0.950 . S
C870 C871 1.327 . S
C871 H865 0.950 . S
C871 C870 1.327 . S
C871 C875 1.429 . S
C872 C855 1.574 . S
C872 H866 0.949 . S
C872 C876 1.368 . S
C873 C854 1.427 . S
C873 C867 1.429 . S
C873 C874 1.523 1_565 S
C874 C855 1.368 . S
C874 C868 1.368 . S
C874 C873 1.523 1_545 S
C875 C859 1.429 . S
C875 C871 1.429 . S
C875 C876 1.523 . S
C876 C860 1.368 . S
C876 C872 1.368 . S
C876 C875 1.523 . S
H877 C852 0.950 . S
H878 C854 0.952 1_545 S
H879 C855 0.949 1_565 S
H880 C857 0.950 . S
H881 C859 0.950 . S
C882 C883 1.349 . S
C882 C884 1.327 . S
C882 H907 0.950 . S
C883 C882 1.349 . S
C883 C899 1.349 . S
C884 C882 1.327 . S
C884 C903 1.429 . S
C884 H908 0.950 . S
C885 C902 1.574 1_554 S
C885 C904 1.368 . S
C885 H909 0.949 . S
H886 C890 0.949 . S
C887 C888 1.349 . S
C887 C889 1.327 . S
C887 H910 0.950 . S
C888 C887 1.349 . S
C888 C900 1.349 . S
C889 C887 1.327 . S
C889 C905 1.429 . S
C889 H911 0.950 . S
C890 H886 0.949 . S
C890 C898 1.574 . S
C890 C906 1.368 . S
H891 C899 0.950 . S
H892 C897 0.950 . S
H893 C898 0.949 . S
H894 C900 0.950 . S
H895 C901 0.950 . S
H896 C902 0.949 . S
C897 H892 0.950 . S
C897 C899 1.327 . S
C897 C903 1.429 . S
C898 C890 1.574 . S
C898 H893 0.949 . S
C898 C904 1.368 . S
C899 C883 1.349 . S
C899 H891 0.950 . S
C899 C897 1.327 . S
C900 C888 1.349 . S
C900 H894 0.950 . S
C900 C901 1.327 . S
C901 H895 0.950 . S
C901 C900 1.327 . S
C901 C905 1.429 . S
C902 C885 1.574 1_556 S
C902 H896 0.949 . S
C902 C906 1.368 1_556 S
C903 C884 1.429 . S
C903 C897 1.429 . S
C903 C904 1.523 . S
C904 C885 1.368 . S
C904 C898 1.368 . S
C904 C903 1.523 . S
C905 C889 1.429 . S
C905 C901 1.429 . S
C905 C906 1.523 1_556 S
C906 C890 1.368 . S
C906 C902 1.368 1_554 S
C906 C905 1.523 1_554 S
H907 C882 0.950 . S
H908 C884 0.950 . S
H909 C885 0.949 . S
H910 C887 0.950 . S
H911 C889 0.950 . S
C912 C913 1.349 . S
C912 C914 1.327 . S
C912 H937 0.950 . S
C913 C912 1.349 . S
C913 C929 1.349 . S
C914 C912 1.327 . S
C914 C933 1.429 . S
C914 H938 0.950 . S
C915 C932 1.574 . S
C915 C934 1.368 . S
C915 H939 0.949 . S
H916 C920 0.949 . S
C917 C918 1.349 . S
C917 C919 1.327 . S
C917 H940 0.950 . S
C918 C917 1.349 . S
C918 C930 1.349 . S
C919 C917 1.327 . S
C919 C935 1.429 . S
C919 H941 0.950 1_556 S
C920 H916 0.949 . S
C920 C928 1.574 1_556 S
C920 C936 1.368 1_556 S
H921 C929 0.950 . S
H922 C927 0.950 . S
H923 C928 0.949 . S
H924 C930 0.950 . S
H925 C931 0.950 . S
H926 C932 0.949 . S
C927 H922 0.950 . S
C927 C929 1.327 . S
C927 C933 1.429 . S
C928 C920 1.574 1_554 S
C928 H923 0.949 . S
C928 C934 1.368 . S
C929 C913 1.349 . S
C929 H921 0.950 . S
C929 C927 1.327 . S
C930 C918 1.349 . S
C930 H924 0.950 . S
C930 C931 1.327 . S
C931 H925 0.950 . S
C931 C930 1.327 . S
C931 C935 1.429 . S
C932 C915 1.574 . S
C932 H926 0.949 . S
C932 C936 1.368 . S
C933 C914 1.429 . S
C933 C927 1.429 . S
C933 C934 1.523 . S
C934 C915 1.368 . S
C934 C928 1.368 . S
C934 C933 1.523 . S
C935 C919 1.429 . S
C935 C931 1.429 . S
C935 C936 1.523 1_556 S
C936 C920 1.368 1_554 S
C936 C932 1.368 . S
C936 C935 1.523 1_554 S
H937 C912 0.950 . S
H938 C914 0.950 . S
H939 C915 0.949 . S
H940 C917 0.950 . S
H941 C919 0.950 1_554 S
C942 C943 1.349 . S
C942 C944 1.327 . S
C942 H967 0.950 . S
C943 C942 1.349 . S
C943 C959 1.349 . S
C944 C942 1.327 . S
C944 C963 1.429 . S
C944 H968 0.950 . S
C945 C962 1.574 . S
C945 C964 1.368 . S
C945 H969 0.949 . S
H946 C950 0.949 . S
C947 C948 1.349 . S
C947 C949 1.327 . S
C947 H970 0.950 . S
C948 C947 1.349 . S
C948 C960 1.349 . S
C949 C947 1.327 . S
C949 C965 1.429 . S
C949 H971 0.950 . S
C950 H946 0.949 . S
C950 C958 1.574 1_556 S
C950 C966 1.368 1_556 S
H951 C959 0.950 . S
H952 C957 0.950 . S
H953 C958 0.949 . S
H954 C960 0.950 . S
H955 C961 0.950 . S
H956 C962 0.949 . S
C957 H952 0.950 . S
C957 C959 1.327 . S
C957 C963 1.429 . S
C958 C950 1.574 1_554 S
C958 H953 0.949 . S
C958 C964 1.368 . S
C959 C943 1.349 . S
C959 H951 0.950 . S
C959 C957 1.327 . S
C960 C948 1.349 . S
C960 H954 0.950 . S
C960 C961 1.327 . S
C961 H955 0.950 . S
C961 C960 1.327 . S
C961 C965 1.429 . S
C962 C945 1.574 . S
C962 H956 0.949 . S
C962 C966 1.368 . S
C963 C944 1.429 . S
C963 C957 1.429 . S
C963 C964 1.523 . S
C964 C945 1.368 . S
C964 C958 1.368 . S
C964 C963 1.523 . S
C965 C949 1.429 . S
C965 C961 1.429 . S
C965 C966 1.523 1_556 S
C966 C950 1.368 1_554 S
C966 C962 1.368 . S
C966 C965 1.523 1_554 S
H967 C942 0.950 . S
H968 C944 0.950 . S
H969 C945 0.949 . S
H970 C947 0.950 . S
H971 C949 0.950 . S
C972 C973 1.349 . S
C972 C974 1.327 . S
C972 H997 0.950 . S
C973 C972 1.349 . S
C973 C989 1.349 . S
C974 C972 1.327 . S
C974 C993 1.429 . S
C974 H998 0.950 . S
C975 C992 1.574 1_556 S
C975 C994 1.368 . S
C975 H999 0.949 . S
H976 C980 0.949 . S
C977 C978 1.349 . S
C977 C979 1.327 . S
C977 H1000 0.950 . S
C978 C977 1.349 . S
C978 C990 1.349 . S
C979 C977 1.327 . S
C979 C995 1.429 . S
C979 H1001 0.950 . S
C980 H976 0.949 . S
C980 C988 1.574 . S
C980 C996 1.368 . S
H981 C989 0.950 . S
H982 C987 0.950 . S
H983 C988 0.949 . S
H984 C990 0.950 . S
H985 C991 0.950 . S
H986 C992 0.949 . S
C987 H982 0.950 . S
C987 C989 1.327 . S
C987 C993 1.429 . S
C988 C980 1.574 . S
C988 H983 0.949 . S
C988 C994 1.368 . S
C989 C973 1.349 . S
C989 H981 0.950 . S
C989 C987 1.327 . S
C990 C978 1.349 . S
C990 H984 0.950 . S
C990 C991 1.327 . S
C991 H985 0.950 . S
C991 C990 1.327 . S
C991 C995 1.429 . S
C992 C975 1.574 1_554 S
C992 H986 0.949 . S
C992 C996 1.368 1_554 S
C993 C974 1.429 . S
C993 C987 1.429 . S
C993 C994 1.523 . S
C994 C975 1.368 . S
C994 C988 1.368 . S
C994 C993 1.523 . S
C995 C979 1.429 . S
C995 C991 1.429 . S
C995 C996 1.523 1_554 S
C996 C980 1.368 . S
C996 C992 1.368 1_556 S
C996 C995 1.523 1_556 S
H997 C972 0.950 . S
H998 C974 0.950 . S
H999 C975 0.949 . S
H1000 C977 0.950 . S
H1001 C979 0.950 . S
C1002 C1003 1.349 . S
C1002 C1004 1.327 . S
C1002 H1027 0.950 . S
C1003 C1002 1.349 . S
C1003 C1019 1.349 . S
C1004 C1002 1.327 . S
C1004 C1023 1.429 . S
C1004 H1028 0.950 . S
C1005 C1022 1.574 . S
C1005 C1024 1.368 . S
C1005 H1029 0.949 . S
H1006 C1010 0.949 . S
C1007 C1008 1.349 . S
C1007 C1009 1.327 . S
C1007 H1030 0.950 . S
C1008 C1007 1.349 . S
C1008 C1020 1.349 . S
C1009 C1007 1.327 . S
C1009 C1025 1.429 . S
C1009 H1031 0.950 1_554 S
C1010 H1006 0.949 . S
C1010 C1018 1.574 1_554 S
C1010 C1026 1.368 1_554 S
H1011 C1019 0.950 . S
H1012 C1017 0.950 . S
H1013 C1018 0.949 . S
H1014 C1020 0.950 . S
H1015 C1021 0.950 . S
H1016 C1022 0.949 . S
C1017 H1012 0.950 . S
C1017 C1019 1.327 . S
C1017 C1023 1.429 . S
C1018 C1010 1.574 1_556 S
C1018 H1013 0.949 . S
C1018 C1024 1.368 . S
C1019 C1003 1.349 . S
C1019 H1011 0.950 . S
C1019 C1017 1.327 . S
C1020 C1008 1.349 . S
C1020 H1014 0.950 . S
C1020 C1021 1.327 . S
C1021 H1015 0.950 . S
C1021 C1020 1.327 . S
C1021 C1025 1.429 . S
C1022 C1005 1.574 . S
C1022 H1016 0.949 . S
C1022 C1026 1.368 . S
C1023 C1004 1.429 . S
C1023 C1017 1.429 . S
C1023 C1024 1.523 . S
C1024 C1005 1.368 . S
C1024 C1018 1.368 . S
C1024 C1023 1.523 . S
C1025 C1009 1.429 . S
C1025 C1021 1.429 . S
C1025 C1026 1.523 1_554 S
C1026 C1010 1.368 1_556 S
C1026 C1022 1.368 . S
C1026 C1025 1.523 1_556 S
H1027 C1002 0.950 . S
H1028 C1004 0.950 . S
H1029 C1005 0.949 . S
H1030 C1007 0.950 . S
H1031 C1009 0.950 1_556 S
C1032 C1033 1.349 . S
C1032 C1034 1.327 . S
C1032 H1057 0.950 . S
C1033 C1032 1.349 . S
C1033 C1049 1.349 . S
C1034 C1032 1.327 . S
C1034 C1053 1.429 . S
C1034 H1058 0.950 . S
C1035 C1052 1.574 1_554 S
C1035 C1054 1.368 1_554 S
C1035 H1059 0.949 . S
H1036 C1040 0.949 . S
C1037 C1038 1.349 . S
C1037 C1039 1.327 . S
C1037 H1060 0.950 . S
C1038 C1037 1.349 . S
C1038 C1050 1.349 . S
C1039 C1037 1.327 . S
C1039 C1055 1.429 . S
C1039 H1061 0.950 . S
C1040 H1036 0.949 . S
C1040 C1048 1.574 . S
C1040 C1056 1.368 . S
H1041 C1049 0.950 . S
H1042 C1047 0.950 . S
H1043 C1048 0.949 . S
H1044 C1050 0.950 . S
H1045 C1051 0.950 . S
H1046 C1052 0.949 . S
C1047 H1042 0.950 . S
C1047 C1049 1.327 . S
C1047 C1053 1.429 . S
C1048 C1040 1.574 . S
C1048 H1043 0.949 . S
C1048 C1054 1.368 . S
C1049 C1033 1.349 . S
C1049 H1041 0.950 . S
C1049 C1047 1.327 . S
C1050 C1038 1.349 . S
C1050 H1044 0.950 . S
C1050 C1051 1.327 . S
C1051 H1045 0.950 . S
C1051 C1050 1.327 . S
C1051 C1055 1.429 . S
C1052 C1035 1.574 1_556 S
C1052 H1046 0.949 . S
C1052 C1056 1.368 . S
C1053 C1034 1.429 . S
C1053 C1047 1.429 . S
C1053 C1054 1.523 1_554 S
C1054 C1035 1.368 1_556 S
C1054 C1048 1.368 . S
C1054 C1053 1.523 1_556 S
C1055 C1039 1.429 . S
C1055 C1051 1.429 . S
C1055 C1056 1.523 . S
C1056 C1040 1.368 . S
C1056 C1052 1.368 . S
C1056 C1055 1.523 . S
H1057 C1032 0.950 . S
H1058 C1034 0.950 . S
H1059 C1035 0.949 . S
H1060 C1037 0.950 . S
H1061 C1039 0.950 . S
C1062 C1063 1.349 . S
C1062 C1064 1.327 . S
C1062 H1087 0.950 . S
C1063 C1062 1.349 . S
C1063 C1079 1.349 . S
C1064 C1062 1.327 . S
C1064 C1083 1.429 . S
C1064 H1088 0.950 . S
C1065 C1082 1.574 . S
C1065 C1084 1.368 . S
C1065 H1089 0.949 . S
H1066 C1070 0.949 . S
C1067 C1068 1.349 . S
C1067 C1069 1.327 . S
C1067 H1090 0.950 . S
C1068 C1067 1.349 . S
C1068 C1080 1.349 . S
C1069 C1067 1.327 . S
C1069 C1085 1.429 . S
C1069 H1091 0.950 . S
C1070 H1066 0.949 . S
C1070 C1078 1.574 . S
C1070 C1086 1.368 . S
H1071 C1079 0.950 . S
H1072 C1077 0.950 . S
H1073 C1078 0.949 . S
H1074 C1080 0.950 . S
H1075 C1081 0.950 . S
H1076 C1082 0.949 . S
C1077 H1072 0.950 . S
C1077 C1079 1.327 . S
C1077 C1083 1.429 . S
C1078 C1070 1.574 . S
C1078 H1073 0.949 . S
C1078 C1084 1.368 . S
C1079 C1063 1.349 . S
C1079 H1071 0.950 . S
C1079 C1077 1.327 . S
C1080 C1068 1.349 . S
C1080 H1074 0.950 . S
C1080 C1081 1.327 . S
C1081 H1075 0.950 . S
C1081 C1080 1.327 . S
C1081 C1085 1.429 . S
C1082 C1065 1.574 . S
C1082 H1076 0.949 . S
C1082 C1086 1.368 . S
C1083 C1064 1.429 . S
C1083 C1077 1.429 . S
C1083 C1084 1.523 1_655 S
C1084 C1065 1.368 . S
C1084 C1078 1.368 . S
C1084 C1083 1.523 1_455 S
C1085 C1069 1.429 . S
C1085 C1081 1.429 . S
C1085 C1086 1.523 . S
C1086 C1070 1.368 . S
C1086 C1082 1.368 . S
C1086 C1085 1.523 . S
H1087 C1062 0.950 . S
H1088 C1064 0.950 . S
H1089 C1065 0.949 . S
H1090 C1067 0.950 . S
H1091 C1069 0.950 . S
C1092 C1093 1.349 . S
C1092 C1094 1.327 . S
C1092 H1117 0.950 . S
C1093 C1092 1.349 . S
C1093 C1109 1.349 . S
C1094 C1092 1.327 . S
C1094 C1113 1.429 . S
C1094 H1118 0.950 . S
C1095 C1112 1.574 . S
C1095 C1114 1.368 . S
C1095 H1119 0.949 . S
H1096 C1100 0.949 . S
C1097 C1098 1.349 . S
C1097 C1099 1.327 . S
C1097 H1120 0.950 . S
C1098 C1097 1.349 . S
C1098 C1110 1.349 . S
C1099 C1097 1.327 . S
C1099 C1115 1.429 . S
C1099 H1121 0.950 . S
C1100 H1096 0.949 . S
C1100 C1108 1.574 . S
C1100 C1116 1.368 . S
H1101 C1109 0.950 . S
H1102 C1107 0.950 . S
H1103 C1108 0.949 . S
H1104 C1110 0.950 . S
H1105 C1111 0.950 . S
H1106 C1112 0.949 . S
C1107 H1102 0.950 . S
C1107 C1109 1.327 . S
C1107 C1113 1.429 . S
C1108 C1100 1.574 . S
C1108 H1103 0.949 . S
C1108 C1114 1.368 . S
C1109 C1093 1.349 . S
C1109 H1101 0.950 . S
C1109 C1107 1.327 . S
C1110 C1098 1.349 . S
C1110 H1104 0.950 . S
C1110 C1111 1.327 . S
C1111 H1105 0.950 . S
C1111 C1110 1.327 . S
C1111 C1115 1.429 . S
C1112 C1095 1.574 . S
C1112 H1106 0.949 . S
C1112 C1116 1.368 . S
C1113 C1094 1.429 . S
C1113 C1107 1.429 . S
C1113 C1114 1.523 . S
C1114 C1095 1.368 . S
C1114 C1108 1.368 . S
C1114 C1113 1.523 . S
C1115 C1099 1.429 . S
C1115 C1111 1.429 . S
C1115 C1116 1.523 . S
C1116 C1100 1.368 . S
C1116 C1112 1.368 . S
C1116 C1115 1.523 . S
H1117 C1092 0.950 . S
H1118 C1094 0.950 . S
H1119 C1095 0.949 . S
H1120 C1097 0.950 . S
H1121 C1099 0.950 . S
C1122 C1123 1.349 . S
C1122 C1124 1.327 . S
C1122 H1147 0.950 . S
C1123 C1122 1.349 . S
C1123 C1139 1.349 . S
C1124 C1122 1.327 . S
C1124 C1143 1.429 . S
C1124 H1148 0.950 . S
C1125 C1142 1.574 . S
C1125 C1144 1.368 . S
C1125 H1149 0.949 . S
H1126 C1130 0.949 . S
C1127 C1128 1.349 . S
C1127 C1129 1.327 . S
C1127 H1150 0.950 . S
C1128 C1127 1.349 . S
C1128 C1140 1.349 . S
C1129 C1127 1.327 . S
C1129 C1145 1.429 . S
C1129 H1151 0.950 . S
C1130 H1126 0.949 . S
C1130 C1138 1.574 . S
C1130 C1146 1.368 . S
H1131 C1139 0.950 . S
H1132 C1137 0.950 . S
H1133 C1138 0.949 . S
H1134 C1140 0.950 . S
H1135 C1141 0.950 . S
H1136 C1142 0.949 . S
C1137 H1132 0.950 . S
C1137 C1139 1.327 . S
C1137 C1143 1.429 . S
C1138 C1130 1.574 . S
C1138 H1133 0.949 . S
C1138 C1144 1.368 . S
C1139 C1123 1.349 . S
C1139 H1131 0.950 . S
C1139 C1137 1.327 . S
C1140 C1128 1.349 . S
C1140 H1134 0.950 . S
C1140 C1141 1.327 . S
C1141 H1135 0.950 . S
C1141 C1140 1.327 . S
C1141 C1145 1.429 . S
C1142 C1125 1.574 . S
C1142 H1136 0.949 . S
C1142 C1146 1.368 . S
C1143 C1124 1.429 . S
C1143 C1137 1.429 . S
C1143 C1144 1.523 . S
C1144 C1125 1.368 . S
C1144 C1138 1.368 . S
C1144 C1143 1.523 . S
C1145 C1129 1.429 . S
C1145 C1141 1.429 . S
C1145 C1146 1.523 1_545 S
C1146 C1130 1.368 . S
C1146 C1142 1.368 . S
C1146 C1145 1.523 1_565 S
H1147 C1122 0.950 . S
H1148 C1124 0.950 . S
H1149 C1125 0.949 . S
H1150 C1127 0.950 . S
H1151 C1129 0.950 . S
C1152 C1153 1.349 . S
C1152 C1154 1.327 . S
C1152 H1177 0.950 . S
C1153 C1152 1.349 . S
C1153 C1169 1.349 . S
C1154 C1152 1.327 . S
C1154 C1173 1.429 . S
C1154 H1178 0.950 . S
C1155 C1172 1.574 . S
C1155 C1174 1.368 . S
C1155 H1179 0.949 . S
H1156 C1160 0.949 . S
C1157 C1158 1.349 . S
C1157 C1159 1.327 . S
C1157 H1180 0.950 . S
C1158 C1157 1.349 . S
C1158 C1170 1.349 . S
C1159 C1157 1.327 . S
C1159 C1175 1.429 . S
C1159 H1181 0.950 . S
C1160 H1156 0.949 . S
C1160 C1168 1.574 . S
C1160 C1176 1.368 . S
H1161 C1169 0.950 . S
H1162 C1167 0.950 . S
H1163 C1168 0.949 . S
H1164 C1170 0.950 . S
H1165 C1171 0.950 . S
H1166 C1172 0.949 . S
C1167 H1162 0.950 . S
C1167 C1169 1.327 . S
C1167 C1173 1.429 . S
C1168 C1160 1.574 . S
C1168 H1163 0.949 . S
C1168 C1174 1.368 . S
C1169 C1153 1.349 . S
C1169 H1161 0.950 . S
C1169 C1167 1.327 . S
C1170 C1158 1.349 . S
C1170 H1164 0.950 . S
C1170 C1171 1.327 . S
C1171 H1165 0.950 . S
C1171 C1170 1.327 . S
C1171 C1175 1.429 . S
C1172 C1155 1.574 . S
C1172 H1166 0.949 . S
C1172 C1176 1.368 . S
C1173 C1154 1.429 . S
C1173 C1167 1.429 . S
C1173 C1174 1.523 . S
C1174 C1155 1.368 . S
C1174 C1168 1.368 . S
C1174 C1173 1.523 . S
C1175 C1159 1.429 . S
C1175 C1171 1.429 . S
C1175 C1176 1.523 . S
C1176 C1160 1.368 . S
C1176 C1172 1.368 . S
C1176 C1175 1.523 . S
H1177 C1152 0.950 . S
H1178 C1154 0.950 . S
H1179 C1155 0.949 . S
H1180 C1157 0.950 . S
H1181 C1159 0.950 . S
C1182 C1183 1.349 . S
C1182 C1184 1.327 . S
C1182 H1207 0.950 . S
C1183 C1182 1.349 . S
C1183 C1199 1.349 . S
C1184 C1182 1.327 . S
C1184 C1203 1.429 . S
C1184 H1208 0.950 . S
C1185 C1202 1.574 . S
C1185 C1204 1.368 . S
C1185 H1209 0.949 . S
H1186 C1190 0.949 . S
C1187 C1188 1.349 . S
C1187 C1189 1.327 . S
C1187 H1210 0.950 . S
C1188 C1187 1.349 . S
C1188 C1200 1.349 . S
C1189 C1187 1.327 . S
C1189 C1205 1.429 . S
C1189 H1211 0.950 . S
C1190 H1186 0.949 . S
C1190 C1198 1.574 . S
C1190 C1206 1.368 . S
H1191 C1199 0.950 . S
H1192 C1197 0.950 . S
H1193 C1198 0.949 . S
H1194 C1200 0.950 . S
H1195 C1201 0.950 . S
H1196 C1202 0.949 . S
C1197 H1192 0.950 . S
C1197 C1199 1.327 . S
C1197 C1203 1.429 . S
C1198 C1190 1.574 . S
C1198 H1193 0.949 . S
C1198 C1204 1.368 . S
C1199 C1183 1.349 . S
C1199 H1191 0.950 . S
C1199 C1197 1.327 . S
C1200 C1188 1.349 . S
C1200 H1194 0.950 . S
C1200 C1201 1.327 . S
C1201 H1195 0.950 . S
C1201 C1200 1.327 . S
C1201 C1205 1.429 . S
C1202 C1185 1.574 . S
C1202 H1196 0.949 . S
C1202 C1206 1.368 . S
C1203 C1184 1.429 . S
C1203 C1197 1.429 . S
C1203 C1204 1.523 . S
C1204 C1185 1.368 . S
C1204 C1198 1.368 . S
C1204 C1203 1.523 . S
C1205 C1189 1.429 . S
C1205 C1201 1.429 . S
C1205 C1206 1.523 . S
C1206 C1190 1.368 . S
C1206 C1202 1.368 . S
C1206 C1205 1.523 . S
H1207 C1182 0.950 . S
H1208 C1184 0.950 . S
H1209 C1185 0.949 . S
H1210 C1187 0.950 . S
H1211 C1189 0.950 . S
C1212 C1213 1.349 . S
C1212 C1214 1.327 . S
C1212 H1237 0.950 . S
C1213 C1212 1.349 . S
C1213 C1229 1.349 . S
C1214 C1212 1.327 . S
C1214 C1233 1.429 . S
C1214 H1238 0.950 . S
C1215 C1232 1.574 . S
C1215 C1234 1.368 . S
C1215 H1239 0.949 . S
H1216 C1220 0.949 . S
C1217 C1218 1.349 . S
C1217 C1219 1.327 . S
C1217 H1240 0.950 . S
C1218 C1217 1.349 . S
C1218 C1230 1.349 . S
C1219 C1217 1.327 . S
C1219 C1235 1.429 . S
C1219 H1241 0.950 . S
C1220 H1216 0.949 . S
C1220 C1228 1.574 . S
C1220 C1236 1.368 . S
H1221 C1229 0.950 . S
H1222 C1227 0.950 . S
H1223 C1228 0.949 . S
H1224 C1230 0.950 . S
H1225 C1231 0.950 . S
H1226 C1232 0.949 . S
C1227 H1222 0.950 . S
C1227 C1229 1.327 . S
C1227 C1233 1.429 . S
C1228 C1220 1.574 . S
C1228 H1223 0.949 . S
C1228 C1234 1.368 . S
C1229 C1213 1.349 . S
C1229 H1221 0.950 . S
C1229 C1227 1.327 . S
C1230 C1218 1.349 . S
C1230 H1224 0.950 . S
C1230 C1231 1.327 . S
C1231 H1225 0.950 . S
C1231 C1230 1.327 . S
C1231 C1235 1.429 . S
C1232 C1215 1.574 . S
C1232 H1226 0.949 . S
C1232 C1236 1.368 . S
C1233 C1214 1.429 . S
C1233 C1227 1.429 . S
C1233 C1234 1.523 . S
C1234 C1215 1.368 . S
C1234 C1228 1.368 . S
C1234 C1233 1.523 . S
C1235 C1219 1.429 . S
C1235 C1231 1.429 . S
C1235 C1236 1.523 . S
C1236 C1220 1.368 . S
C1236 C1232 1.368 . S
C1236 C1235 1.523 . S
H1237 C1212 0.950 . S
H1238 C1214 0.950 . S
H1239 C1215 0.949 . S
H1240 C1217 0.950 . S
H1241 C1219 0.950 . S
C1242 C1243 1.349 . S
C1242 C1244 1.327 . S
C1242 H1267 0.950 . S
C1243 C1242 1.349 . S
C1243 C1259 1.349 . S
C1244 C1242 1.327 . S
C1244 C1263 1.429 . S
C1244 H1268 0.950 . S
C1245 C1262 1.574 . S
C1245 C1264 1.368 . S
C1245 H1269 0.949 . S
H1246 C1250 0.949 . S
C1247 C1248 1.349 . S
C1247 C1249 1.327 . S
C1247 H1270 0.950 . S
C1248 C1247 1.349 . S
C1248 C1260 1.349 . S
C1249 C1247 1.327 . S
C1249 C1265 1.429 . S
C1249 H1271 0.950 . S
C1250 H1246 0.949 . S
C1250 C1258 1.574 . S
C1250 C1266 1.368 . S
H1251 C1259 0.950 . S
H1252 C1257 0.950 . S
H1253 C1258 0.949 . S
H1254 C1260 0.950 . S
H1255 C1261 0.950 . S
H1256 C1262 0.949 . S
C1257 H1252 0.950 . S
C1257 C1259 1.327 . S
C1257 C1263 1.429 . S
C1258 C1250 1.574 . S
C1258 H1253 0.949 . S
C1258 C1264 1.368 . S
C1259 C1243 1.349 . S
C1259 H1251 0.950 . S
C1259 C1257 1.327 . S
C1260 C1248 1.349 . S
C1260 H1254 0.950 . S
C1260 C1261 1.327 . S
C1261 H1255 0.950 . S
C1261 C1260 1.327 . S
C1261 C1265 1.429 . S
C1262 C1245 1.574 . S
C1262 H1256 0.949 . S
C1262 C1266 1.368 . S
C1263 C1244 1.429 . S
C1263 C1257 1.429 . S
C1263 C1264 1.523 . S
C1264 C1245 1.368 . S
C1264 C1258 1.368 . S
C1264 C1263 1.523 . S
C1265 C1249 1.429 . S
C1265 C1261 1.429 . S
C1265 C1266 1.523 . S
C1266 C1250 1.368 . S
C1266 C1262 1.368 . S
C1266 C1265 1.523 . S
H1267 C1242 0.950 . S
H1268 C1244 0.950 . S
H1269 C1245 0.949 . S
H1270 C1247 0.950 . S
H1271 C1249 0.950 . S
C1272 C1273 1.349 . S
C1272 C1274 1.327 . S
C1272 H1297 0.950 . S
C1273 C1272 1.349 . S
C1273 C1289 1.349 . S
C1274 C1272 1.327 . S
C1274 C1293 1.429 . S
C1274 H1298 0.950 . S
C1275 C1292 1.574 . S
C1275 C1294 1.368 . S
C1275 H1299 0.949 . S
H1276 C1280 0.949 . S
C1277 C1278 1.349 . S
C1277 C1279 1.327 . S
C1277 H1300 0.950 . S
C1278 C1277 1.349 . S
C1278 C1290 1.349 . S
C1279 C1277 1.327 . S
C1279 C1295 1.429 . S
C1279 H1301 0.950 . S
C1280 H1276 0.949 . S
C1280 C1288 1.574 . S
C1280 C1296 1.368 . S
H1281 C1289 0.950 . S
H1282 C1287 0.950 . S
H1283 C1288 0.949 . S
H1284 C1290 0.950 . S
H1285 C1291 0.950 . S
H1286 C1292 0.949 . S
C1287 H1282 0.950 . S
C1287 C1289 1.327 . S
C1287 C1293 1.429 . S
C1288 C1280 1.574 . S
C1288 H1283 0.949 . S
C1288 C1294 1.368 . S
C1289 C1273 1.349 . S
C1289 H1281 0.950 . S
C1289 C1287 1.327 . S
C1290 C1278 1.349 . S
C1290 H1284 0.950 . S
C1290 C1291 1.327 . S
C1291 H1285 0.950 . S
C1291 C1290 1.327 . S
C1291 C1295 1.429 . S
C1292 C1275 1.574 . S
C1292 H1286 0.949 . S
C1292 C1296 1.368 . S
C1293 C1274 1.429 . S
C1293 C1287 1.429 . S
C1293 C1294 1.523 . S
C1294 C1275 1.368 . S
C1294 C1288 1.368 . S
C1294 C1293 1.523 . S
C1295 C1279 1.429 . S
C1295 C1291 1.429 . S
C1295 C1296 1.523 . S
C1296 C1280 1.368 . S
C1296 C1292 1.368 . S
C1296 C1295 1.523 . S
H1297 C1272 0.950 . S
H1298 C1274 0.950 . S
H1299 C1275 0.949 . S
H1300 C1277 0.950 . S
H1301 C1279 0.950 . S
C1302 C1303 1.349 . S
C1302 C1304 1.327 . S
C1302 H1327 0.950 . S
C1303 C1302 1.349 . S
C1303 C1319 1.349 . S
C1304 C1302 1.327 . S
C1304 C1323 1.429 . S
C1304 H1328 0.950 . S
C1305 C1322 1.574 . S
C1305 C1324 1.368 . S
C1305 H1329 0.949 . S
H1306 C1310 0.949 . S
C1307 C1308 1.349 . S
C1307 C1309 1.327 . S
C1307 H1330 0.950 . S
C1308 C1307 1.349 . S
C1308 C1320 1.349 . S
C1309 C1307 1.327 . S
C1309 C1325 1.429 . S
C1309 H1331 0.950 . S
C1310 H1306 0.949 . S
C1310 C1318 1.574 . S
C1310 C1326 1.368 . S
H1311 C1319 0.950 . S
H1312 C1317 0.950 . S
H1313 C1318 0.949 . S
H1314 C1320 0.950 . S
H1315 C1321 0.950 . S
H1316 C1322 0.949 . S
C1317 H1312 0.950 . S
C1317 C1319 1.327 . S
C1317 C1323 1.429 . S
C1318 C1310 1.574 . S
C1318 H1313 0.949 . S
C1318 C1324 1.368 . S
C1319 C1303 1.349 . S
C1319 H1311 0.950 . S
C1319 C1317 1.327 . S
C1320 C1308 1.349 . S
C1320 H1314 0.950 . S
C1320 C1321 1.327 . S
C1321 H1315 0.950 . S
C1321 C1320 1.327 . S
C1321 C1325 1.429 . S
C1322 C1305 1.574 . S
C1322 H1316 0.949 . S
C1322 C1326 1.368 . S
C1323 C1304 1.429 . S
C1323 C1317 1.429 . S
C1323 C1324 1.523 . S
C1324 C1305 1.368 . S
C1324 C1318 1.368 . S
C1324 C1323 1.523 . S
C1325 C1309 1.429 . S
C1325 C1321 1.429 . S
C1325 C1326 1.523 . S
C1326 C1310 1.368 . S
C1326 C1322 1.368 . S
C1326 C1325 1.523 . S
H1327 C1302 0.950 . S
H1328 C1304 0.950 . S
H1329 C1305 0.949 . S
H1330 C1307 0.950 . S
H1331 C1309 0.950 . S
C1332 C1333 1.349 . S
C1332 C1334 1.327 . S
C1332 H1357 0.950 . S
C1333 C1332 1.349 . S
C1333 C1349 1.349 . S
C1334 C1332 1.327 . S
C1334 C1353 1.429 . S
C1334 H1358 0.950 . S
C1335 C1352 1.574 1_554 S
C1335 C1354 1.368 1_565 S
C1335 H1359 0.949 . S
H1336 C1340 0.949 . S
C1337 C1338 1.349 . S
C1337 C1339 1.327 . S
C1337 H1360 0.950 . S
C1338 C1337 1.349 . S
C1338 C1350 1.349 . S
C1339 C1337 1.327 . S
C1339 C1355 1.429 . S
C1339 H1361 0.950 . S
C1340 H1336 0.949 . S
C1340 C1348 1.574 1_556 S
C1340 C1356 1.368 1_545 S
H1341 C1349 0.950 . S
H1342 C1347 1.005 . S
H1343 C1348 0.949 . S
H1344 C1350 0.950 . S
H1345 C1351 1.005 . S
H1346 C1352 0.949 . S
C1347 H1342 1.005 . S
C1347 C1349 1.327 . S
C1347 C1353 1.429 . S
C1348 C1340 1.574 1_554 S
C1348 H1343 0.949 . S
C1348 C1354 1.368 . S
C1349 C1333 1.349 . S
C1349 H1341 0.950 . S
C1349 C1347 1.327 . S
C1350 C1338 1.349 . S
C1350 H1344 0.950 . S
C1350 C1351 1.327 . S
C1351 H1345 1.005 . S
C1351 C1350 1.327 . S
C1351 C1355 1.429 . S
C1352 C1335 1.574 1_556 S
C1352 H1346 0.949 . S
C1352 C1356 1.368 . S
C1353 C1334 1.429 . S
C1353 C1347 1.429 . S
C1353 C1354 1.523 . S
C1354 C1335 1.368 1_545 S
C1354 C1348 1.368 . S
C1354 C1353 1.523 . S
C1355 C1339 1.429 . S
C1355 C1351 1.429 . S
C1355 C1356 1.523 . S
C1356 C1340 1.368 1_565 S
C1356 C1352 1.368 . S
C1356 C1355 1.523 . S
H1357 C1332 0.950 . S
H1358 C1334 0.950 . S
H1359 C1335 0.949 . S
H1360 C1337 0.950 . S
H1361 C1339 0.950 . S
C1362 C1363 1.349 . S
C1362 C1364 1.327 . S
C1362 H1387 0.950 . S
C1363 C1362 1.349 . S
C1363 C1379 1.349 . S
C1364 C1362 1.327 . S
C1364 C1383 1.429 . S
C1364 H1388 0.950 . S
C1365 C1382 1.574 1_456 S
C1365 C1384 1.368 . S
C1365 H1389 0.949 . S
H1366 C1370 0.949 . S
C1367 C1368 1.349 . S
C1367 C1369 1.327 . S
C1367 H1390 0.950 . S
C1368 C1367 1.349 . S
C1368 C1380 1.349 . S
C1369 C1367 1.327 . S
C1369 C1385 1.429 . S
C1369 H1391 0.950 . S
C1370 H1366 0.949 . S
C1370 C1378 1.574 1_654 S
C1370 C1386 1.368 . S
H1371 C1379 0.950 . S
H1372 C1377 0.950 . S
H1373 C1378 0.949 . S
H1374 C1380 0.950 . S
H1375 C1381 0.950 . S
H1376 C1382 0.949 . S
C1377 H1372 0.950 . S
C1377 C1379 1.327 . S
C1377 C1383 1.429 . S
C1378 C1370 1.574 1_456 S
C1378 H1373 0.949 . S
C1378 C1384 1.368 . S
C1379 C1363 1.349 . S
C1379 H1371 0.950 . S
C1379 C1377 1.327 . S
C1380 C1368 1.349 . S
C1380 H1374 0.950 . S
C1380 C1381 1.327 . S
C1381 H1375 0.950 . S
C1381 C1380 1.327 . S
C1381 C1385 1.429 . S
C1382 C1365 1.574 1_654 S
C1382 H1376 0.949 . S
C1382 C1386 1.368 . S
C1383 C1364 1.429 . S
C1383 C1377 1.429 . S
C1383 C1384 1.523 . S
C1384 C1365 1.368 . S
C1384 C1378 1.368 . S
C1384 C1383 1.523 . S
C1385 C1369 1.429 . S
C1385 C1381 1.429 . S
C1385 C1386 1.523 . S
C1386 C1370 1.368 . S
C1386 C1382 1.368 . S
C1386 C1385 1.523 . S
H1387 C1362 0.950 . S
H1388 C1364 0.950 . S
H1389 C1365 0.949 . S
H1390 C1367 0.950 . S
H1391 C1369 0.950 . S
C1392 C1393 1.349 . S
C1392 C1394 1.327 . S
C1392 H1417 0.950 . S
C1393 C1392 1.349 . S
C1393 C1409 1.349 . S
C1394 C1392 1.327 . S
C1394 C1413 1.429 . S
C1394 H1418 0.950 . S
C1395 C1412 1.574 1_556 S
C1395 C1414 1.368 . S
C1395 H1419 0.949 . S
H1396 C1400 0.949 . S
C1397 C1398 1.349 . S
C1397 C1399 1.327 . S
C1397 H1420 0.950 . S
C1398 C1397 1.349 . S
C1398 C1410 1.349 . S
C1399 C1397 1.327 . S
C1399 C1415 1.429 . S
C1399 H1421 0.950 . S
C1400 H1396 0.949 . S
C1400 C1408 1.574 1_554 S
C1400 C1416 1.368 . S
H1401 C1409 0.950 . S
H1402 C1407 0.950 . S
H1403 C1408 0.949 . S
H1404 C1410 0.950 . S
H1405 C1411 0.950 . S
H1406 C1412 0.949 . S
C1407 H1402 0.950 . S
C1407 C1409 1.327 . S
C1407 C1413 1.429 . S
C1408 C1400 1.574 1_556 S
C1408 H1403 0.949 . S
C1408 C1414 1.368 . S
C1409 C1393 1.349 . S
C1409 H1401 0.950 . S
C1409 C1407 1.327 . S
C1410 C1398 1.349 . S
C1410 H1404 0.950 . S
C1410 C1411 1.327 . S
C1411 H1405 0.950 . S
C1411 C1410 1.327 . S
C1411 C1415 1.429 . S
C1412 C1395 1.574 1_554 S
C1412 H1406 0.949 . S
C1412 C1416 1.368 . S
C1413 C1394 1.429 . S
C1413 C1407 1.429 . S
C1413 C1414 1.523 . S
C1414 C1395 1.368 . S
C1414 C1408 1.368 . S
C1414 C1413 1.523 . S
C1415 C1399 1.429 . S
C1415 C1411 1.429 . S
C1415 C1416 1.523 . S
C1416 C1400 1.368 . S
C1416 C1412 1.368 . S
C1416 C1415 1.523 . S
H1417 C1392 0.950 . S
H1418 C1394 0.950 . S
H1419 C1395 0.949 . S
H1420 C1397 0.950 . S
H1421 C1399 0.950 . S
C1422 C1423 1.349 . S
C1422 C1424 1.327 . S
C1422 H1447 0.950 . S
C1423 C1422 1.349 . S
C1423 C1439 1.349 . S
C1424 C1422 1.327 . S
C1424 C1443 1.429 . S
C1424 H1448 0.950 . S
C1425 C1442 1.574 . S
C1425 C1444 1.368 . S
C1425 H1449 0.949 . S
H1426 C1430 0.949 . S
C1427 C1428 1.349 . S
C1427 C1429 1.327 . S
C1427 H1450 0.950 . S
C1428 C1427 1.349 . S
C1428 C1440 1.349 . S
C1429 C1427 1.327 . S
C1429 C1445 1.429 . S
C1429 H1451 0.950 . S
C1430 H1426 0.949 . S
C1430 C1438 1.574 . S
C1430 C1446 1.368 . S
H1431 C1439 0.950 . S
H1432 C1437 0.950 . S
H1433 C1438 0.949 . S
H1434 C1440 0.950 . S
H1435 C1441 0.950 . S
H1436 C1442 0.949 1_556 S
C1437 H1432 0.950 . S
C1437 C1439 1.327 . S
C1437 C1443 1.429 . S
C1438 C1430 1.574 . S
C1438 H1433 0.949 . S
C1438 C1444 1.368 . S
C1439 C1423 1.349 . S
C1439 H1431 0.950 . S
C1439 C1437 1.327 . S
C1440 C1428 1.349 . S
C1440 H1434 0.950 . S
C1440 C1441 1.327 . S
C1441 H1435 0.950 . S
C1441 C1440 1.327 . S
C1441 C1445 1.429 . S
C1442 C1425 1.574 . S
C1442 H1436 0.949 1_554 S
C1442 C1446 1.368 . S
C1443 C1424 1.429 . S
C1443 C1437 1.429 . S
C1443 C1444 1.523 . S
C1444 C1425 1.368 . S
C1444 C1438 1.368 . S
C1444 C1443 1.523 . S
C1445 C1429 1.429 . S
C1445 C1441 1.429 . S
C1445 C1446 1.523 1_556 S
C1446 C1430 1.368 . S
C1446 C1442 1.368 . S
C1446 C1445 1.523 1_554 S
H1447 C1422 0.950 . S
H1448 C1424 0.950 . S
H1449 C1425 0.949 . S
H1450 C1427 0.950 . S
H1451 C1429 0.950 . S
C1452 C1453 1.349 . S
C1452 C1454 1.327 . S
C1452 H1477 0.950 . S
C1453 C1452 1.349 . S
C1453 C1469 1.349 . S
C1454 C1452 1.327 . S
C1454 C1473 1.429 . S
C1454 H1478 0.950 1_556 S
C1455 C1472 1.574 1_556 S
C1455 C1474 1.368 1_556 S
C1455 H1479 0.949 . S
H1456 C1460 0.949 . S
C1457 C1458 1.349 . S
C1457 C1459 1.327 . S
C1457 H1480 0.950 . S
C1458 C1457 1.349 . S
C1458 C1470 1.349 . S
C1459 C1457 1.327 . S
C1459 C1475 1.429 1_565 S
C1459 H1481 0.950 . S
C1460 H1456 0.949 . S
C1460 C1468 1.574 . S
C1460 C1476 1.368 . S
H1461 C1469 0.950 . S
H1462 C1467 0.950 . S
H1463 C1468 0.949 . S
H1464 C1470 0.950 . S
H1465 C1471 0.950 . S
H1466 C1472 0.949 . S
C1467 H1462 0.950 . S
C1467 C1469 1.327 . S
C1467 C1473 1.429 . S
C1468 C1460 1.574 . S
C1468 H1463 0.949 . S
C1468 C1474 1.368 . S
C1469 C1453 1.349 . S
C1469 H1461 0.950 . S
C1469 C1467 1.327 . S
C1470 C1458 1.349 . S
C1470 H1464 0.950 . S
C1470 C1471 1.327 1_565 S
C1471 H1465 0.950 . S
C1471 C1470 1.327 1_545 S
C1471 C1475 1.429 . S
C1472 C1455 1.574 1_554 S
C1472 H1466 0.949 . S
C1472 C1476 1.368 . S
C1473 C1454 1.429 . S
C1473 C1467 1.429 . S
C1473 C1474 1.523 1_556 S
C1474 C1455 1.368 1_554 S
C1474 C1468 1.368 . S
C1474 C1473 1.523 1_554 S
C1475 C1459 1.429 1_545 S
C1475 C1471 1.429 . S
C1475 C1476 1.523 . S
C1476 C1460 1.368 . S
C1476 C1472 1.368 . S
C1476 C1475 1.523 . S
H1477 C1452 0.950 . S
H1478 C1454 0.950 1_554 S
H1479 C1455 0.949 . S
H1480 C1457 0.950 . S
H1481 C1459 0.950 . S
C1482 C1483 1.349 . S
C1482 C1484 1.327 1_455 S
C1482 H1507 0.950 . S
C1483 C1482 1.349 . S
C1483 C1499 1.349 . S
C1484 C1482 1.327 1_655 S
C1484 C1503 1.429 . S
C1484 H1508 0.950 . S
C1485 C1502 1.574 1_554 S
C1485 C1504 1.368 . S
C1485 H1509 0.946 1_554 S
H1486 C1490 0.949 . S
C1487 C1488 1.349 . S
C1487 C1489 1.327 . S
C1487 H1510 0.950 . S
C1488 C1487 1.349 . S
C1488 C1500 1.349 . S
C1489 C1487 1.327 . S
C1489 C1505 1.429 . S
C1489 H1511 0.950 . S
C1490 H1486 0.949 . S
C1490 C1498 1.574 . S
C1490 C1506 1.368 . S
H1491 C1499 0.950 . S
H1492 C1497 0.950 . S
H1493 C1498 0.949 . S
H1494 C1500 0.950 . S
H1495 C1501 0.950 1_554 S
H1496 C1502 0.949 . S
C1497 H1492 0.950 . S
C1497 C1499 1.327 . S
C1497 C1503 1.429 1_455 S
C1498 C1490 1.574 . S
C1498 H1493 0.949 . S
C1498 C1504 1.368 . S
C1499 C1483 1.349 . S
C1499 H1491 0.950 . S
C1499 C1497 1.327 . S
C1500 C1488 1.349 . S
C1500 H1494 0.950 . S
C1500 C1501 1.327 . S
C1501 H1495 0.950 1_556 S
C1501 C1500 1.327 . S
C1501 C1505 1.429 . S
C1502 C1485 1.574 1_556 S
C1502 H1496 0.949 . S
C1502 C1506 1.368 1_556 S
C1503 C1484 1.429 . S
C1503 C1497 1.429 1_655 S
C1503 C1504 1.523 . S
C1504 C1485 1.368 . S
C1504 C1498 1.368 . S
C1504 C1503 1.523 . S
C1505 C1489 1.429 . S
C1505 C1501 1.429 . S
C1505 C1506 1.523 1_556 S
C1506 C1490 1.368 . S
C1506 C1502 1.368 1_554 S
C1506 C1505 1.523 1_554 S
H1507 C1482 0.950 . S
H1508 C1484 0.950 . S
H1509 C1485 0.946 1_556 S
H1510 C1487 0.950 . S
H1511 C1489 0.950 . S
C1512 C1513 1.349 . S
C1512 C1514 1.327 . S
C1512 H1537 0.950 . S
C1513 C1512 1.349 . S
C1513 C1529 1.349 . S
C1514 C1512 1.327 . S
C1514 C1533 1.429 . S
C1514 H1538 0.950 . S
C1515 C1532 1.574 1_554 S
C1515 C1534 1.368 1_554 S
C1515 H1539 0.949 . S
H1516 C1520 0.949 . S
C1517 C1518 1.349 . S
C1517 C1519 1.327 . S
C1517 H1540 0.950 . S
C1518 C1517 1.349 . S
C1518 C1530 1.349 . S
C1519 C1517 1.327 . S
C1519 C1535 1.429 . S
C1519 H1541 0.950 . S
C1520 H1516 0.949 . S
C1520 C1528 1.574 . S
C1520 C1536 1.368 . S
H1521 C1529 0.950 . S
H1522 C1527 0.950 . S
H1523 C1528 0.949 . S
H1524 C1530 0.950 . S
H1525 C1531 0.950 . S
H1526 C1532 0.949 . S
C1527 H1522 0.950 . S
C1527 C1529 1.327 . S
C1527 C1533 1.429 . S
C1528 C1520 1.574 . S
C1528 H1523 0.949 . S
C1528 C1534 1.368 . S
C1529 C1513 1.349 . S
C1529 H1521 0.950 . S
C1529 C1527 1.327 . S
C1530 C1518 1.349 . S
C1530 H1524 0.950 . S
C1530 C1531 1.327 . S
C1531 H1525 0.950 . S
C1531 C1530 1.327 . S
C1531 C1535 1.429 . S
C1532 C1515 1.574 1_556 S
C1532 H1526 0.949 . S
C1532 C1536 1.368 . S
C1533 C1514 1.429 . S
C1533 C1527 1.429 . S
C1533 C1534 1.523 1_554 S
C1534 C1515 1.368 1_556 S
C1534 C1528 1.368 . S
C1534 C1533 1.523 1_556 S
C1535 C1519 1.429 . S
C1535 C1531 1.429 . S
C1535 C1536 1.523 . S
C1536 C1520 1.368 . S
C1536 C1532 1.368 . S
C1536 C1535 1.523 . S
H1537 C1512 0.950 . S
H1538 C1514 0.950 . S
H1539 C1515 0.949 . S
H1540 C1517 0.950 . S
H1541 C1519 0.950 . S
C1542 C1543 1.349 . S
C1542 C1544 1.327 . S
C1542 H1567 0.950 . S
C1543 C1542 1.349 . S
C1543 C1559 1.349 . S
C1544 C1542 1.327 . S
C1544 C1563 1.429 1_545 S
C1544 H1568 0.950 . S
C1545 C1562 1.574 . S
C1545 C1564 1.368 . S
C1545 H1569 0.949 . S
H1546 C1550 0.949 . S
C1547 C1548 1.349 . S
C1547 C1549 1.327 . S
C1547 H1570 0.950 . S
C1548 C1547 1.349 . S
C1548 C1560 1.349 . S
C1549 C1547 1.327 . S
C1549 C1565 1.429 . S
C1549 H1571 0.950 . S
C1550 H1546 0.949 . S
C1550 C1558 1.574 1_554 S
C1550 C1566 1.368 1_554 S
H1551 C1559 0.950 . S
H1552 C1557 0.950 . S
H1553 C1558 0.949 . S
H1554 C1560 0.950 . S
H1555 C1561 0.950 . S
H1556 C1562 0.949 . S
C1557 H1552 0.950 . S
C1557 C1559 1.327 1_565 S
C1557 C1563 1.429 . S
C1558 C1550 1.574 1_556 S
C1558 H1553 0.949 . S
C1558 C1564 1.368 . S
C1559 C1543 1.349 . S
C1559 H1551 0.950 . S
C1559 C1557 1.327 1_545 S
C1560 C1548 1.349 . S
C1560 H1554 0.950 . S
C1560 C1561 1.327 . S
C1561 H1555 0.950 . S
C1561 C1560 1.327 . S
C1561 C1565 1.429 . S
C1562 C1545 1.574 . S
C1562 H1556 0.949 . S
C1562 C1566 1.368 . S
C1563 C1544 1.429 1_565 S
C1563 C1557 1.429 . S
C1563 C1564 1.523 . S
C1564 C1545 1.368 . S
C1564 C1558 1.368 . S
C1564 C1563 1.523 . S
C1565 C1549 1.429 . S
C1565 C1561 1.429 . S
C1565 C1566 1.523 1_554 S
C1566 C1550 1.368 1_556 S
C1566 C1562 1.368 . S
C1566 C1565 1.523 1_556 S
H1567 C1542 0.950 . S
H1568 C1544 0.950 . S
H1569 C1545 0.949 . S
H1570 C1547 0.950 . S
H1571 C1549 0.950 . S
C1572 C1573 1.349 . S
C1572 C1574 1.327 . S
C1572 H1597 0.950 . S
C1573 C1572 1.349 . S
C1573 C1589 1.349 . S
C1574 C1572 1.327 . S
C1574 C1593 1.429 . S
C1574 H1598 0.950 1_554 S
C1575 C1592 1.574 1_554 S
C1575 C1594 1.368 1_554 S
C1575 H1599 0.949 . S
H1576 C1580 0.949 . S
C1577 C1578 1.349 . S
C1577 C1579 1.327 . S
C1577 H1600 0.950 . S
C1578 C1577 1.349 . S
C1578 C1590 1.349 . S
C1579 C1577 1.327 . S
C1579 C1595 1.429 1_655 S
C1579 H1601 0.950 . S
C1580 H1576 0.949 . S
C1580 C1588 1.574 . S
C1580 C1596 1.368 . S
H1581 C1589 0.950 . S
H1582 C1587 0.950 . S
H1583 C1588 0.949 . S
H1584 C1590 0.950 . S
H1585 C1591 0.950 . S
H1586 C1592 0.949 1_554 S
C1587 H1582 0.950 . S
C1587 C1589 1.327 . S
C1587 C1593 1.429 . S
C1588 C1580 1.574 . S
C1588 H1583 0.949 . S
C1588 C1594 1.368 . S
C1589 C1573 1.349 . S
C1589 H1581 0.950 . S
C1589 C1587 1.327 . S
C1590 C1578 1.349 . S
C1590 H1584 0.950 . S
C1590 C1591 1.327 1_655 S
C1591 H1585 0.950 . S
C1591 C1590 1.327 1_455 S
C1591 C1595 1.429 . S
C1592 C1575 1.574 1_556 S
C1592 H1586 0.949 1_556 S
C1592 C1596 1.368 . S
C1593 C1574 1.429 . S
C1593 C1587 1.429 . S
C1593 C1594 1.523 1_554 S
C1594 C1575 1.368 1_556 S
C1594 C1588 1.368 . S
C1594 C1593 1.523 1_556 S
C1595 C1579 1.429 1_455 S
C1595 C1591 1.429 . S
C1595 C1596 1.523 . S
C1596 C1580 1.368 . S
C1596 C1592 1.368 . S
C1596 C1595 1.523 . S
H1597 C1572 0.950 . S
H1598 C1574 0.950 1_556 S
H1599 C1575 0.949 . S
H1600 C1577 0.950 . S
H1601 C1579 0.950 . S
C1602 C1603 1.349 . S
C1602 C1604 1.327 . S
C1602 H1627 0.950 . S
C1603 C1602 1.349 . S
C1603 C1619 1.349 . S
C1604 C1602 1.327 . S
C1604 C1623 1.429 . S
C1604 H1628 0.950 . S
C1605 C1622 1.574 . S
C1605 C1624 1.368 . S
C1605 H1629 0.949 . S
H1606 C1610 0.949 . S
C1607 C1608 1.349 . S
C1607 C1609 1.327 . S
C1607 H1630 0.950 . S
C1608 C1607 1.349 . S
C1608 C1620 1.349 . S
C1609 C1607 1.327 . S
C1609 C1625 1.429 . S
C1609 H1631 0.950 . S
C1610 H1606 0.949 . S
C1610 C1618 1.574 . S
C1610 C1626 1.368 . S
H1611 C1619 0.950 . S
H1612 C1617 0.950 . S
H1613 C1618 0.949 . S
H1614 C1620 0.950 . S
H1615 C1621 0.950 . S
H1616 C1622 0.949 . S
C1617 H1612 0.950 . S
C1617 C1619 1.327 . S
C1617 C1623 1.429 . S
C1618 C1610 1.574 . S
C1618 H1613 0.949 . S
C1618 C1624 1.368 . S
C1619 C1603 1.349 . S
C1619 H1611 0.950 . S
C1619 C1617 1.327 . S
C1620 C1608 1.349 . S
C1620 H1614 0.950 . S
C1620 C1621 1.327 . S
C1621 H1615 0.950 . S
C1621 C1620 1.327 . S
C1621 C1625 1.429 . S
C1622 C1605 1.574 . S
C1622 H1616 0.949 . S
C1622 C1626 1.368 . S
C1623 C1604 1.429 . S
C1623 C1617 1.429 . S
C1623 C1624 1.523 . S
C1624 C1605 1.368 . S
C1624 C1618 1.368 . S
C1624 C1623 1.523 . S
C1625 C1609 1.429 . S
C1625 C1621 1.429 . S
C1625 C1626 1.523 . S
C1626 C1610 1.368 . S
C1626 C1622 1.368 . S
C1626 C1625 1.523 . S
H1627 C1602 0.950 . S
H1628 C1604 0.950 . S
H1629 C1605 0.949 . S
H1630 C1607 0.950 . S
H1631 C1609 0.950 . S
C1632 C1633 1.349 . S
C1632 C1634 1.327 . S
C1632 H1657 0.950 . S
C1633 C1632 1.349 . S
C1633 C1649 1.349 . S
C1634 C1632 1.327 . S
C1634 C1653 1.429 . S
C1634 H1658 0.950 . S
C1635 C1652 1.574 . S
C1635 C1654 1.368 . S
C1635 H1659 0.949 . S
H1636 C1640 0.949 . S
C1637 C1638 1.349 . S
C1637 C1639 1.327 . S
C1637 H1660 0.950 . S
C1638 C1637 1.349 . S
C1638 C1650 1.349 . S
C1639 C1637 1.327 . S
C1639 C1655 1.429 . S
C1639 H1661 0.950 . S
C1640 H1636 0.949 . S
C1640 C1648 1.574 . S
C1640 C1656 1.368 . S
H1641 C1649 0.950 . S
H1642 C1647 0.950 . S
H1643 C1648 0.949 . S
H1644 C1650 0.950 . S
H1645 C1651 0.950 . S
H1646 C1652 0.949 . S
C1647 H1642 0.950 . S
C1647 C1649 1.327 . S
C1647 C1653 1.429 . S
C1648 C1640 1.574 . S
C1648 H1643 0.949 . S
C1648 C1654 1.368 . S
C1649 C1633 1.349 . S
C1649 H1641 0.950 . S
C1649 C1647 1.327 . S
C1650 C1638 1.349 . S
C1650 H1644 0.950 . S
C1650 C1651 1.327 . S
C1651 H1645 0.950 . S
C1651 C1650 1.327 . S
C1651 C1655 1.429 . S
C1652 C1635 1.574 . S
C1652 H1646 0.949 . S
C1652 C1656 1.368 . S
C1653 C1634 1.429 . S
C1653 C1647 1.429 . S
C1653 C1654 1.523 . S
C1654 C1635 1.368 . S
C1654 C1648 1.368 . S
C1654 C1653 1.523 . S
C1655 C1639 1.429 . S
C1655 C1651 1.429 . S
C1655 C1656 1.523 . S
C1656 C1640 1.368 . S
C1656 C1652 1.368 . S
C1656 C1655 1.523 . S
H1657 C1632 0.950 . S
H1658 C1634 0.950 . S
H1659 C1635 0.949 . S
H1660 C1637 0.950 . S
H1661 C1639 0.950 . S
C1662 C1663 1.349 . S
C1662 C1664 1.327 . S
C1662 H1687 0.950 . S
C1663 C1662 1.349 . S
C1663 C1679 1.349 . S
C1664 C1662 1.327 . S
C1664 C1683 1.429 . S
C1664 H1688 0.950 . S
C1665 C1682 1.574 . S
C1665 C1684 1.368 . S
C1665 H1689 0.949 . S
H1666 C1670 0.949 . S
C1667 C1668 1.349 . S
C1667 C1669 1.327 . S
C1667 H1690 0.950 . S
C1668 C1667 1.349 . S
C1668 C1680 1.349 . S
C1669 C1667 1.327 . S
C1669 C1685 1.429 . S
C1669 H1691 0.950 . S
C1670 H1666 0.949 . S
C1670 C1678 1.574 . S
C1670 C1686 1.368 . S
H1671 C1679 0.950 . S
H1672 C1677 0.950 . S
H1673 C1678 0.949 . S
H1674 C1680 0.950 . S
H1675 C1681 0.950 . S
H1676 C1682 0.949 . S
C1677 H1672 0.950 . S
C1677 C1679 1.327 . S
C1677 C1683 1.429 . S
C1678 C1670 1.574 . S
C1678 H1673 0.949 . S
C1678 C1684 1.368 . S
C1679 C1663 1.349 . S
C1679 H1671 0.950 . S
C1679 C1677 1.327 . S
C1680 C1668 1.349 . S
C1680 H1674 0.950 . S
C1680 C1681 1.327 . S
C1681 H1675 0.950 . S
C1681 C1680 1.327 . S
C1681 C1685 1.429 . S
C1682 C1665 1.574 . S
C1682 H1676 0.949 . S
C1682 C1686 1.368 . S
C1683 C1664 1.429 . S
C1683 C1677 1.429 . S
C1683 C1684 1.523 . S
C1684 C1665 1.368 . S
C1684 C1678 1.368 . S
C1684 C1683 1.523 . S
C1685 C1669 1.429 . S
C1685 C1681 1.429 . S
C1685 C1686 1.523 . S
C1686 C1670 1.368 . S
C1686 C1682 1.368 . S
C1686 C1685 1.523 . S
H1687 C1662 0.950 . S
H1688 C1664 0.950 . S
H1689 C1665 0.949 . S
H1690 C1667 0.950 . S
H1691 C1669 0.950 . S
C1692 C1693 1.349 . S
C1692 C1694 1.327 . S
C1692 H1717 0.950 . S
C1693 C1692 1.349 . S
C1693 C1709 1.349 . S
C1694 C1692 1.327 . S
C1694 C1713 1.429 . S
C1694 H1718 0.950 . S
C1695 C1712 1.574 . S
C1695 C1714 1.368 . S
C1695 H1719 0.949 . S
H1696 C1700 0.949 . S
C1697 C1698 1.349 . S
C1697 C1699 1.327 . S
C1697 H1720 0.950 . S
C1698 C1697 1.349 . S
C1698 C1710 1.349 . S
C1699 C1697 1.327 . S
C1699 C1715 1.429 . S
C1699 H1721 0.950 . S
C1700 H1696 0.949 . S
C1700 C1708 1.574 . S
C1700 C1716 1.368 . S
H1701 C1709 0.950 . S
H1702 C1707 0.950 . S
H1703 C1708 0.949 . S
H1704 C1710 0.950 . S
H1705 C1711 0.950 . S
H1706 C1712 0.949 . S
C1707 H1702 0.950 . S
C1707 C1709 1.327 . S
C1707 C1713 1.429 . S
C1708 C1700 1.574 . S
C1708 H1703 0.949 . S
C1708 C1714 1.368 . S
C1709 C1693 1.349 . S
C1709 H1701 0.950 . S
C1709 C1707 1.327 . S
C1710 C1698 1.349 . S
C1710 H1704 0.950 . S
C1710 C1711 1.327 . S
C1711 H1705 0.950 . S
C1711 C1710 1.327 . S
C1711 C1715 1.429 . S
C1712 C1695 1.574 . S
C1712 H1706 0.949 . S
C1712 C1716 1.368 . S
C1713 C1694 1.429 . S
C1713 C1707 1.429 . S
C1713 C1714 1.523 . S
C1714 C1695 1.368 . S
C1714 C1708 1.368 . S
C1714 C1713 1.523 . S
C1715 C1699 1.429 . S
C1715 C1711 1.429 . S
C1715 C1716 1.523 . S
C1716 C1700 1.368 . S
C1716 C1712 1.368 . S
C1716 C1715 1.523 . S
H1717 C1692 0.950 . S
H1718 C1694 0.950 . S
H1719 C1695 0.949 . S
H1720 C1697 0.950 . S
H1721 C1699 0.950 . S
C1722 C1723 1.349 . S
C1722 C1724 1.327 . S
C1722 H1747 0.950 . S
C1723 C1722 1.349 . S
C1723 C1739 1.349 . S
C1724 C1722 1.327 . S
C1724 C1743 1.429 . S
C1724 H1748 0.950 . S
C1725 C1742 1.574 . S
C1725 C1744 1.368 . S
C1725 H1749 0.949 . S
H1726 C1730 0.949 . S
C1727 C1728 1.349 . S
C1727 C1729 1.327 . S
C1727 H1750 0.950 . S
C1728 C1727 1.349 . S
C1728 C1740 1.349 . S
C1729 C1727 1.327 . S
C1729 C1745 1.429 . S
C1729 H1751 0.950 . S
C1730 H1726 0.949 . S
C1730 C1738 1.574 . S
C1730 C1746 1.368 . S
H1731 C1739 0.950 . S
H1732 C1737 0.950 . S
H1733 C1738 0.949 . S
H1734 C1740 0.950 . S
H1735 C1741 0.950 . S
H1736 C1742 0.949 . S
C1737 H1732 0.950 . S
C1737 C1739 1.327 . S
C1737 C1743 1.429 . S
C1738 C1730 1.574 . S
C1738 H1733 0.949 . S
C1738 C1744 1.368 . S
C1739 C1723 1.349 . S
C1739 H1731 0.950 . S
C1739 C1737 1.327 . S
C1740 C1728 1.349 . S
C1740 H1734 0.950 . S
C1740 C1741 1.327 . S
C1741 H1735 0.950 . S
C1741 C1740 1.327 . S
C1741 C1745 1.429 . S
C1742 C1725 1.574 . S
C1742 H1736 0.949 . S
C1742 C1746 1.368 . S
C1743 C1724 1.429 . S
C1743 C1737 1.429 . S
C1743 C1744 1.523 . S
C1744 C1725 1.368 . S
C1744 C1738 1.368 . S
C1744 C1743 1.523 . S
C1745 C1729 1.429 . S
C1745 C1741 1.429 . S
C1745 C1746 1.523 . S
C1746 C1730 1.368 . S
C1746 C1742 1.368 . S
C1746 C1745 1.523 . S
H1747 C1722 0.950 . S
H1748 C1724 0.950 . S
H1749 C1725 0.949 . S
H1750 C1727 0.950 . S
H1751 C1729 0.950 . S
C1752 C1753 1.349 . S
C1752 C1754 1.327 . S
C1752 H1777 0.950 . S
C1753 C1752 1.349 . S
C1753 C1769 1.349 . S
C1754 C1752 1.327 . S
C1754 C1773 1.429 . S
C1754 H1778 0.950 . S
C1755 C1772 1.574 . S
C1755 C1774 1.368 . S
C1755 H1779 0.949 . S
H1756 C1760 0.949 . S
C1757 C1758 1.349 . S
C1757 C1759 1.327 . S
C1757 H1780 0.950 . S
C1758 C1757 1.349 . S
C1758 C1770 1.349 . S
C1759 C1757 1.327 . S
C1759 C1775 1.429 . S
C1759 H1781 0.950 . S
C1760 H1756 0.949 . S
C1760 C1768 1.574 . S
C1760 C1776 1.368 . S
H1761 C1769 0.950 . S
H1762 C1767 0.950 . S
H1763 C1768 0.949 . S
H1764 C1770 0.950 . S
H1765 C1771 0.950 . S
H1766 C1772 0.949 . S
C1767 H1762 0.950 . S
C1767 C1769 1.327 . S
C1767 C1773 1.429 . S
C1768 C1760 1.574 . S
C1768 H1763 0.949 . S
C1768 C1774 1.368 . S
C1769 C1753 1.349 . S
C1769 H1761 0.950 . S
C1769 C1767 1.327 . S
C1770 C1758 1.349 . S
C1770 H1764 0.950 . S
C1770 C1771 1.327 . S
C1771 H1765 0.950 . S
C1771 C1770 1.327 . S
C1771 C1775 1.429 . S
C1772 C1755 1.574 . S
C1772 H1766 0.949 . S
C1772 C1776 1.368 . S
C1773 C1754 1.429 . S
C1773 C1767 1.429 . S
C1773 C1774 1.523 . S
C1774 C1755 1.368 . S
C1774 C1768 1.368 . S
C1774 C1773 1.523 . S
C1775 C1759 1.429 . S
C1775 C1771 1.429 . S
C1775 C1776 1.523 . S
C1776 C1760 1.368 . S
C1776 C1772 1.368 . S
C1776 C1775 1.523 . S
H1777 C1752 0.950 . S
H1778 C1754 0.950 . S
H1779 C1755 0.949 . S
H1780 C1757 0.950 . S
H1781 C1759 0.950 . S
C1782 C1783 1.349 . S
C1782 C1784 1.327 . S
C1782 H1807 0.950 . S
C1783 C1782 1.349 . S
C1783 C1799 1.349 . S
C1784 C1782 1.327 . S
C1784 C1803 1.429 . S
C1784 H1808 0.950 . S
C1785 C1802 1.574 . S
C1785 C1804 1.368 . S
C1785 H1809 0.949 . S
H1786 C1790 0.949 . S
C1787 C1788 1.349 . S
C1787 C1789 1.327 . S
C1787 H1810 0.950 . S
C1788 C1787 1.349 . S
C1788 C1800 1.349 . S
C1789 C1787 1.327 . S
C1789 C1805 1.429 . S
C1789 H1811 0.950 . S
C1790 H1786 0.949 . S
C1790 C1798 1.574 . S
C1790 C1806 1.368 . S
H1791 C1799 0.950 . S
H1792 C1797 0.950 . S
H1793 C1798 0.949 . S
H1794 C1800 0.950 . S
H1795 C1801 0.950 . S
H1796 C1802 0.949 . S
C1797 H1792 0.950 . S
C1797 C1799 1.327 . S
C1797 C1803 1.429 . S
C1798 C1790 1.574 . S
C1798 H1793 0.949 . S
C1798 C1804 1.368 . S
C1799 C1783 1.349 . S
C1799 H1791 0.950 . S
C1799 C1797 1.327 . S
C1800 C1788 1.349 . S
C1800 H1794 0.950 . S
C1800 C1801 1.327 . S
C1801 H1795 0.950 . S
C1801 C1800 1.327 . S
C1801 C1805 1.429 . S
C1802 C1785 1.574 . S
C1802 H1796 0.949 . S
C1802 C1806 1.368 . S
C1803 C1784 1.429 . S
C1803 C1797 1.429 . S
C1803 C1804 1.523 . S
C1804 C1785 1.368 . S
C1804 C1798 1.368 . S
C1804 C1803 1.523 . S
C1805 C1789 1.429 . S
C1805 C1801 1.429 . S
C1805 C1806 1.523 . S
C1806 C1790 1.368 . S
C1806 C1802 1.368 . S
C1806 C1805 1.523 . S
H1807 C1782 0.950 . S
H1808 C1784 0.950 . S
H1809 C1785 0.949 . S
H1810 C1787 0.950 . S
H1811 C1789 0.950 . S
C1812 C1813 1.349 . S
C1812 C1814 1.327 . S
C1812 H1837 0.950 . S
C1813 C1812 1.349 . S
C1813 C1829 1.349 . S
C1814 C1812 1.327 . S
C1814 C1833 1.429 . S
C1814 H1838 0.950 . S
C1815 C1832 1.574 . S
C1815 C1834 1.368 . S
C1815 H1839 0.949 . S
H1816 C1820 0.949 . S
C1817 C1818 1.349 . S
C1817 C1819 1.327 . S
C1817 H1840 0.950 . S
C1818 C1817 1.349 . S
C1818 C1830 1.349 . S
C1819 C1817 1.327 . S
C1819 C1835 1.429 . S
C1819 H1841 0.950 . S
C1820 H1816 0.949 . S
C1820 C1828 1.574 . S
C1820 C1836 1.368 . S
H1821 C1829 0.950 . S
H1822 C1827 0.950 . S
H1823 C1828 0.949 . S
H1824 C1830 0.950 . S
H1825 C1831 0.950 . S
H1826 C1832 0.949 . S
C1827 H1822 0.950 . S
C1827 C1829 1.327 . S
C1827 C1833 1.429 . S
C1828 C1820 1.574 . S
C1828 H1823 0.949 . S
C1828 C1834 1.368 . S
C1829 C1813 1.349 . S
C1829 H1821 0.950 . S
C1829 C1827 1.327 . S
C1830 C1818 1.349 . S
C1830 H1824 0.950 . S
C1830 C1831 1.327 . S
C1831 H1825 0.950 . S
C1831 C1830 1.327 . S
C1831 C1835 1.429 . S
C1832 C1815 1.574 . S
C1832 H1826 0.949 . S
C1832 C1836 1.368 . S
C1833 C1814 1.429 . S
C1833 C1827 1.429 . S
C1833 C1834 1.523 . S
C1834 C1815 1.368 . S
C1834 C1828 1.368 . S
C1834 C1833 1.523 . S
C1835 C1819 1.429 . S
C1835 C1831 1.429 . S
C1835 C1836 1.523 . S
C1836 C1820 1.368 . S
C1836 C1832 1.368 . S
C1836 C1835 1.523 . S
H1837 C1812 0.950 . S
H1838 C1814 0.950 . S
H1839 C1815 0.949 . S
H1840 C1817 0.950 . S
H1841 C1819 0.950 . S
C1842 C1843 1.349 . S
C1842 C1844 1.327 . S
C1842 H1867 0.950 . S
C1843 C1842 1.349 . S
C1843 C1859 1.349 . S
C1844 C1842 1.327 . S
C1844 C1863 1.429 . S
C1844 H1868 0.950 . S
C1845 C1862 1.574 . S
C1845 C1864 1.368 . S
C1845 H1869 0.949 . S
H1846 C1850 0.949 . S
C1847 C1848 1.349 . S
C1847 C1849 1.327 . S
C1847 H1870 0.950 . S
C1848 C1847 1.349 . S
C1848 C1860 1.349 . S
C1849 C1847 1.327 . S
C1849 C1865 1.429 . S
C1849 H1871 0.950 . S
C1850 H1846 0.949 . S
C1850 C1858 1.574 . S
C1850 C1866 1.368 . S
H1851 C1859 0.950 . S
H1852 C1857 0.950 . S
H1853 C1858 0.949 . S
H1854 C1860 0.950 . S
H1855 C1861 0.950 . S
H1856 C1862 0.949 . S
C1857 H1852 0.950 . S
C1857 C1859 1.327 . S
C1857 C1863 1.429 . S
C1858 C1850 1.574 . S
C1858 H1853 0.949 . S
C1858 C1864 1.368 . S
C1859 C1843 1.349 . S
C1859 H1851 0.950 . S
C1859 C1857 1.327 . S
C1860 C1848 1.349 . S
C1860 H1854 0.950 . S
C1860 C1861 1.327 . S
C1861 H1855 0.950 . S
C1861 C1860 1.327 . S
C1861 C1865 1.429 . S
C1862 C1845 1.574 . S
C1862 H1856 0.949 . S
C1862 C1866 1.368 . S
C1863 C1844 1.429 . S
C1863 C1857 1.429 . S
C1863 C1864 1.523 . S
C1864 C1845 1.368 . S
C1864 C1858 1.368 . S
C1864 C1863 1.523 . S
C1865 C1849 1.429 . S
C1865 C1861 1.429 . S
C1865 C1866 1.523 . S
C1866 C1850 1.368 . S
C1866 C1862 1.368 . S
C1866 C1865 1.523 . S
H1867 C1842 0.950 . S
H1868 C1844 0.950 . S
H1869 C1845 0.949 . S
H1870 C1847 0.950 . S
H1871 C1849 0.950 . S
C1872 C1873 1.349 . S
C1872 C1874 1.327 . S
C1872 H1897 0.950 . S
C1873 C1872 1.349 . S
C1873 C1889 1.349 . S
C1874 C1872 1.327 . S
C1874 C1893 1.429 . S
C1874 H1898 0.950 . S
C1875 C1892 1.574 . S
C1875 C1894 1.368 . S
C1875 H1899 0.949 . S
H1876 C1880 0.949 . S
C1877 C1878 1.349 . S
C1877 C1879 1.327 . S
C1877 H1900 0.950 . S
C1878 C1877 1.349 . S
C1878 C1890 1.349 . S
C1879 C1877 1.327 . S
C1879 C1895 1.429 . S
C1879 H1901 0.950 . S
C1880 H1876 0.949 . S
C1880 C1888 1.574 . S
C1880 C1896 1.368 . S
H1881 C1889 0.950 . S
H1882 C1887 0.950 . S
H1883 C1888 0.949 . S
H1884 C1890 0.950 . S
H1885 C1891 0.950 . S
H1886 C1892 0.949 . S
C1887 H1882 0.950 . S
C1887 C1889 1.327 . S
C1887 C1893 1.429 . S
C1888 C1880 1.574 . S
C1888 H1883 0.949 . S
C1888 C1894 1.368 . S
C1889 C1873 1.349 . S
C1889 H1881 0.950 . S
C1889 C1887 1.327 . S
C1890 C1878 1.349 . S
C1890 H1884 0.950 . S
C1890 C1891 1.327 . S
C1891 H1885 0.950 . S
C1891 C1890 1.327 . S
C1891 C1895 1.429 . S
C1892 C1875 1.574 . S
C1892 H1886 0.949 . S
C1892 C1896 1.368 . S
C1893 C1874 1.429 . S
C1893 C1887 1.429 . S
C1893 C1894 1.523 . S
C1894 C1875 1.368 . S
C1894 C1888 1.368 . S
C1894 C1893 1.523 . S
C1895 C1879 1.429 . S
C1895 C1891 1.429 . S
C1895 C1896 1.523 . S
C1896 C1880 1.368 . S
C1896 C1892 1.368 . S
C1896 C1895 1.523 . S
H1897 C1872 0.950 . S
H1898 C1874 0.950 . S
H1899 C1875 0.949 . S
H1900 C1877 0.950 . S
H1901 C1879 0.950 . S
C1902 C1903 1.349 . S
C1902 C1904 1.327 . S
C1902 H1927 0.950 . S
C1903 C1902 1.349 . S
C1903 C1919 1.349 . S
C1904 C1902 1.327 . S
C1904 C1923 1.429 . S
C1904 H1928 0.950 . S
C1905 C1922 1.574 . S
C1905 C1924 1.368 . S
C1905 H1929 0.949 . S
H1906 C1910 0.949 . S
C1907 C1908 1.349 . S
C1907 C1909 1.327 . S
C1907 H1930 0.950 . S
C1908 C1907 1.349 . S
C1908 C1920 1.349 . S
C1909 C1907 1.327 . S
C1909 C1925 1.429 . S
C1909 H1931 0.950 . S
C1910 H1906 0.949 . S
C1910 C1918 1.574 . S
C1910 C1926 1.368 . S
H1911 C1919 0.950 . S
H1912 C1917 0.950 . S
H1913 C1918 0.949 . S
H1914 C1920 0.950 . S
H1915 C1921 0.950 . S
H1916 C1922 0.949 . S
C1917 H1912 0.950 . S
C1917 C1919 1.327 . S
C1917 C1923 1.429 . S
C1918 C1910 1.574 . S
C1918 H1913 0.949 . S
C1918 C1924 1.368 . S
C1919 C1903 1.349 . S
C1919 H1911 0.950 . S
C1919 C1917 1.327 . S
C1920 C1908 1.349 . S
C1920 H1914 0.950 . S
C1920 C1921 1.327 . S
C1921 H1915 0.950 . S
C1921 C1920 1.327 . S
C1921 C1925 1.429 . S
C1922 C1905 1.574 . S
C1922 H1916 0.949 . S
C1922 C1926 1.368 . S
C1923 C1904 1.429 . S
C1923 C1917 1.429 . S
C1923 C1924 1.523 . S
C1924 C1905 1.368 . S
C1924 C1918 1.368 . S
C1924 C1923 1.523 . S
C1925 C1909 1.429 . S
C1925 C1921 1.429 . S
C1925 C1926 1.523 . S
C1926 C1910 1.368 . S
C1926 C1922 1.368 . S
C1926 C1925 1.523 . S
H1927 C1902 0.950 . S
H1928 C1904 0.950 . S
H1929 C1905 0.949 . S
H1930 C1907 0.950 . S
H1931 C1909 0.950 . S
C1932 C1933 1.349 . S
C1932 C1934 1.327 . S
C1932 H1957 0.950 . S
C1933 C1932 1.349 . S
C1933 C1949 1.349 . S
C1934 C1932 1.327 . S
C1934 C1953 1.429 . S
C1934 H1958 0.950 . S
C1935 C1952 1.574 . S
C1935 C1954 1.368 . S
C1935 H1959 0.949 . S
H1936 C1940 0.949 . S
C1937 C1938 1.349 . S
C1937 C1939 1.327 . S
C1937 H1960 0.950 . S
C1938 C1937 1.349 . S
C1938 C1950 1.349 . S
C1939 C1937 1.327 . S
C1939 C1955 1.429 . S
C1939 H1961 0.950 . S
C1940 H1936 0.949 . S
C1940 C1948 1.574 . S
C1940 C1956 1.368 . S
H1941 C1949 0.950 . S
H1942 C1947 0.950 . S
H1943 C1948 0.949 . S
H1944 C1950 0.950 . S
H1945 C1951 0.950 . S
H1946 C1952 0.949 . S
C1947 H1942 0.950 . S
C1947 C1949 1.327 . S
C1947 C1953 1.429 . S
C1948 C1940 1.574 . S
C1948 H1943 0.949 . S
C1948 C1954 1.368 . S
C1949 C1933 1.349 . S
C1949 H1941 0.950 . S
C1949 C1947 1.327 . S
C1950 C1938 1.349 . S
C1950 H1944 0.950 . S
C1950 C1951 1.327 . S
C1951 H1945 0.950 . S
C1951 C1950 1.327 . S
C1951 C1955 1.429 . S
C1952 C1935 1.574 . S
C1952 H1946 0.949 . S
C1952 C1956 1.368 . S
C1953 C1934 1.429 . S
C1953 C1947 1.429 . S
C1953 C1954 1.523 . S
C1954 C1935 1.368 . S
C1954 C1948 1.368 . S
C1954 C1953 1.523 . S
C1955 C1939 1.429 . S
C1955 C1951 1.429 . S
C1955 C1956 1.523 . S
C1956 C1940 1.368 . S
C1956 C1952 1.368 . S
C1956 C1955 1.523 . S
H1957 C1932 0.950 . S
H1958 C1934 0.950 . S
H1959 C1935 0.949 . S
H1960 C1937 0.950 . S
H1961 C1939 0.950 . S
C613 C5 1.318 . S
C618 C271 1.335 . S
C643 C39 1.318 . S
C648 C305 1.335 . S
C673 C73 1.318 . S
C678 C237 1.335 . S
C703 C577 1.335 . S
C708 C107 1.318 . S
C733 C141 1.318 . S
C738 C611 1.335 . S
C763 C175 1.318 . S
C768 C543 1.335 . S
C793 C209 1.318 . S
C798 C475 1.335 . S
C823 C509 1.335 . S
C828 C243 1.318 . S
C853 C441 1.335 . S
C858 C277 1.318 . S
C883 C311 1.318 . S
C888 C169 1.335 . S
C913 C345 1.318 . S
C918 C203 1.335 . S
C943 C379 1.318 . S
C948 C135 1.335 . S
C973 C413 1.318 . S
C978 C67 1.335 . S
C1003 C447 1.318 . S
C1008 C101 1.335 . S
C1033 C33 1.335 . S
C1038 C481 1.318 . S
C1063 C373 1.335 . S
C1068 C515 1.318 . S
C1093 C549 1.318 . S
C1098 C407 1.335 . S
C1123 C583 1.318 . S
C1128 C339 1.335 . S
C1153 C530 1.619 . S
C1158 C20 1.619 . S
C1183 C564 1.618 . S
C1188 C54 1.618 . S
C1213 C88 1.619 . S
C1218 C598 1.619 . S
C1243 C122 1.619 . S
C1248 C224 1.619 . S
C1273 C156 1.618 . S
C1278 C258 1.618 . S
C1303 C292 1.619 . S
C1308 C190 1.619 . S
C1333 C326 1.619 . S
C1338 C428 1.619 . S
C1363 C462 1.618 . S
C1368 C360 1.618 . S
C1393 C496 1.619 . S
C1398 C394 1.619 . S
C1423 C2 1.462 . S
C1428 C145 1.420 . S
C1453 C179 1.420 . S
C1458 C36 1.462 . S
C1483 C70 1.462 . S
C1488 C111 1.420 . S
C1513 C43 1.420 . S
C1518 C104 1.462 . S
C1543 C138 1.462 . S
C1548 C77 1.420 . S
C1573 C9 1.420 . S
C1578 C172 1.462 . S
C1603 C206 1.462 . S
C1608 C349 1.420 . S
C1633 C383 1.420 . S
C1638 C240 1.462 . S
C1663 C315 1.420 . S
C1668 C274 1.462 . S
C1693 C308 1.462 . S
C1698 C247 1.420 . S
C1723 C281 1.420 . S
C1728 C342 1.462 . S
C1753 C376 1.462 . S
C1758 C213 1.420 . S
C1783 C553 1.420 . S
C1788 C410 1.462 . S
C1813 C587 1.420 . S
C1818 C444 1.462 . S
C1843 C519 1.420 . S
C1848 C478 1.462 . S
C1873 C451 1.420 . S
C1878 C512 1.462 . S
C1903 C485 1.420 . S
C1908 C546 1.462 . S
C1933 C580 1.462 . S
C1938 C417 1.420 . S
