# Generated by pormake.
# Topology tfs, (6)-cn, num edge types: 1
# Building blocks:
#     Node 0, Type 0, BuildingBlock: JUFBIX_clean_sbu_0, # of connection points: 6
#     Node 1, Type 0, BuildingBlock: JUFBIX_clean_sbu_0, # of connection points: 6
#     Node 2, Type 0, BuildingBlock: JUFBIX_clean_sbu_0, # of connection points: 6
#     Node 3, Type 0, BuildingBlock: JUFBIX_clean_sbu_0, # of connection points: 6
#     Node 4, Type 0, BuildingBlock: JUFBIX_clean_sbu_0, # of connection points: 6
#     Node 5, Type 0, BuildingBlock: JUFBIX_clean_sbu_0, # of connection points: 6
#     Edge 6, Type (0, 0), BuildingBlock: TEMPAE_clean_linker_10, # of connection points: 2
#     Edge 7, Type (0, 0), BuildingBlock: TEMPAE_clean_linker_10, # of connection points: 2
#     Edge 8, Type (0, 0), BuildingBlock: TEMPAE_clean_linker_10, # of connection points: 2
#     Edge 9, Type (0, 0), BuildingBlock: TEMPAE_clean_linker_10, # of connection points: 2
#     Edge 10, Type (0, 0), BuildingBlock: TEMPAE_clean_linker_10, # of connection points: 2
#     Edge 11, Type (0, 0), BuildingBlock: TEMPAE_clean_linker_10, # of connection points: 2
#     Edge 12, Type (0, 0), BuildingBlock: TEMPAE_clean_linker_10, # of connection points: 2
#     Edge 13, Type (0, 0), BuildingBlock: TEMPAE_clean_linker_10, # of connection points: 2
#     Edge 14, Type (0, 0), BuildingBlock: TEMPAE_clean_linker_10, # of connection points: 2
#     Edge 15, Type (0, 0), BuildingBlock: TEMPAE_clean_linker_10, # of connection points: 2
#     Edge 16, Type (0, 0), BuildingBlock: TEMPAE_clean_linker_10, # of connection points: 2
#     Edge 17, Type (0, 0), BuildingBlock: TEMPAE_clean_linker_10, # of connection points: 2
#     Edge 18, Type (0, 0), BuildingBlock: TEMPAE_clean_linker_10, # of connection points: 2
#     Edge 19, Type (0, 0), BuildingBlock: TEMPAE_clean_linker_10, # of connection points: 2
#     Edge 20, Type (0, 0), BuildingBlock: TEMPAE_clean_linker_10, # of connection points: 2
#     Edge 21, Type (0, 0), BuildingBlock: TEMPAE_clean_linker_10, # of connection points: 2
#     Edge 22, Type (0, 0), BuildingBlock: TEMPAE_clean_linker_10, # of connection points: 2
#     Edge 23, Type (0, 0), BuildingBlock: TEMPAE_clean_linker_10, # of connection points: 2
# Relax obj value: 0.288
# Max RMSD: 0.225
# Mean RMSD: 0.177
data_MOF--net-tfs--node1-JUFBIX_clean_sbu_0--edge1-TEMPAE_clean_linker_10
_symmetry_space_group_name_H-M    P1
_symmetry_Int_Tables_number       1
_symmetry_cell_setting            triclinic
loop_
_symmetry_equiv_pos_as_xyz
'x, y, z'
_cell_length_a     43.866997
_cell_length_b     47.567003
_cell_length_c     15.125888
_cell_angle_alpha  90.228396
_cell_angle_beta   92.319544
_cell_angle_gamma 112.89537
loop_
_atom_site_label
_atom_site_type_symbol
_atom_site_fract_x
_atom_site_fract_y
_atom_site_fract_z
_atom_type_partial_charge
Co0 Co 0.24642 0.40426 1.00167 0.0
C1 C 0.21564 0.38885 0.16469 0.0
Co2 Co 0.19257 0.3753 0.99391 0.0
C3 C 0.30659 0.45885 0.99347 0.0
C4 C 0.31355 0.42401 0.07042 0.0
N5 N 0.29089 0.4297 0.01873 0.0
N6 N 0.33793 0.47166 0.02822 0.0
C7 C 0.34246 0.44966 0.07609 0.0
H8 H 0.29503 0.47069 0.95189 0.0
H9 H 0.3089 0.40302 0.10523 0.0
C10 C 0.22335 0.39106 0.8308 0.0
N11 N 0.14798 0.3492 0.97652 0.0
C12 C 0.11958 0.34944 0.00809 0.0
C13 C 0.13794 0.32484 0.92046 0.0
N14 N 0.09239 0.3263 0.97279 0.0
C15 C 0.10407 0.31084 0.91802 0.0
C16 C 0.20594 0.43722 0.99099 0.0
O17 O 0.24994 0.40494 0.87702 0.0
O18 O 0.19644 0.37714 0.86895 0.0
O19 O 0.18168 0.41126 0.99012 0.0
O20 O 0.23524 0.43821 0.99691 0.0
O21 O 0.18932 0.37393 0.11851 0.0
H22 H 0.15427 0.31788 0.88245 0.0
H23 H 0.1188 0.36665 0.05394 0.0
O24 O 0.24241 0.40341 0.12656 0.0
O25 O 0.25738 0.37011 0.00509 0.0
O26 O 0.20468 0.34 0.99836 0.0
C27 C 0.23499 0.34346 1.00261 0.0
H28 H 0.36452 0.45234 0.11589 0.0
H29 H 0.08914 0.29074 0.8788 0.0
Co30 Co 0.78019 0.22781 0.03436 0.0
C31 C 0.78766 0.25762 0.20093 0.0
Co32 Co 0.78917 0.27712 0.03225 0.0
C33 C 0.74698 0.16092 0.01197 0.0
C34 C 0.78816 0.17583 0.10631 0.0
N35 N 0.77123 0.18637 0.04807 0.0
N36 N 0.74806 0.13509 0.0467 0.0
C37 C 0.77404 0.14454 0.1057 0.0
H38 H 0.72832 0.16136 0.96353 0.0
H39 H 0.80911 0.19008 0.14819 0.0
C40 C 0.78072 0.24673 0.86557 0.0
N41 N 0.80041 0.31909 0.01635 0.0
C42 C 0.79817 0.34208 0.06573 0.0
C43 C 0.81892 0.33336 0.94819 0.0
N44 N 0.81496 0.36978 0.03059 0.0
C45 C 0.82765 0.36411 0.95649 0.0
C46 C 0.84689 0.26473 0.03358 0.0
O47 O 0.77902 0.22339 0.909 0.0
O48 O 0.78403 0.27107 0.90694 0.0
O49 O 0.83496 0.28507 0.0289 0.0
O50 O 0.82711 0.23694 0.03829 0.0
O51 O 0.79362 0.28205 0.15806 0.0
H52 H 0.82714 0.32232 0.89714 0.0
H53 H 0.78601 0.33876 0.12795 0.0
O54 O 0.78127 0.23258 0.15921 0.0
O55 O 0.73371 0.21968 0.03091 0.0
O56 O 0.7431 0.26868 0.03616 0.0
C57 C 0.72268 0.24085 0.03446 0.0
H58 H 0.78227 0.1298 0.14582 0.0
H59 H 0.8428 0.38117 0.91206 0.0
Co60 Co 0.57454 0.76818 0.97833 0.0
C61 C 0.58889 0.7979 0.81528 0.0
Co62 Co 0.60298 0.81825 0.98653 0.0
C63 C 0.52241 0.70685 0.99314 0.0
C64 C 0.55893 0.70985 0.89979 0.0
N65 N 0.55093 0.7265 0.96021 0.0
N66 N 0.51232 0.67882 0.95434 0.0
C67 C 0.53536 0.6807 0.89606 0.0
H68 H 0.50873 0.71323 0.04193 0.0
H69 H 0.58021 0.71859 0.85907 0.0
C70 C 0.588 0.78865 0.14955 0.0
N71 N 0.62816 0.86008 0.00378 0.0
C72 C 0.62684 0.88557 0.96685 0.0
C73 C 0.6548 0.87056 0.06092 0.0
N74 N 0.65207 0.91121 0.9981 0.0
C75 C 0.66951 0.9017 0.05723 0.0
C76 C 0.53473 0.80101 0.98531 0.0
O77 O 0.5759 0.76393 0.10375 0.0
O78 O 0.60019 0.81402 0.11085 0.0
O79 O 0.56185 0.82445 0.98271 0.0
O80 O 0.5351 0.77446 0.98512 0.0
O81 O 0.60526 0.8219 0.86132 0.0
H82 H 0.66323 0.85635 0.10258 0.0
H83 H 0.60833 0.88531 0.91695 0.0
O84 O 0.57332 0.77307 0.85385 0.0
O85 O 0.61412 0.76199 0.97209 0.0
O86 O 0.64352 0.81088 0.99089 0.0
C87 C 0.64212 0.78386 0.98072 0.0
H88 H 0.53508 0.66227 0.85333 0.0
H89 H 0.69133 0.91637 0.09565 0.0
Co90 Co 0.8312 0.64084 0.06435 0.0
C91 C 0.80105 0.6219 0.2266 0.0
Co92 Co 0.77872 0.60794 0.05496 0.0
C93 C 0.90363 0.67198 0.04886 0.0
C94 C 0.88272 0.69379 0.13837 0.0
N95 N 0.87451 0.66967 0.08197 0.0
N96 N 0.92953 0.69649 0.0834 0.0
C97 C 0.91626 0.71019 0.13943 0.0
H98 H 0.90588 0.65563 1.00232 0.0
H99 H 0.86535 0.69898 0.17735 0.0
C100 C 0.80898 0.6264 0.89275 0.0
N101 N 0.73539 0.57993 0.0368 0.0
C102 C 0.72156 0.55049 0.06131 0.0
C103 C 0.71216 0.58388 0.98295 0.0
N104 N 0.69089 0.53589 0.02361 0.0
C105 C 0.68485 0.55693 0.97481 0.0
C106 C 0.78438 0.66767 0.05715 0.0
O107 O 0.83459 0.64279 0.93942 0.0
O108 O 0.78273 0.61005 0.93038 0.0
O109 O 0.76399 0.6401 0.05422 0.0
O110 O 0.8153 0.67355 0.06061 0.0
O111 O 0.77524 0.60598 0.17986 0.0
H112 H 0.71541 0.60469 0.9486 0.0
H113 H 0.73436 0.53955 0.10227 0.0
O114 O 0.82727 0.63834 0.189 0.0
O115 O 0.84606 0.60744 0.06789 0.0
O116 O 0.79362 0.57607 0.05637 0.0
C117 C 0.82397 0.58033 0.06322 0.0
H118 H 0.92987 0.7307 0.17858 0.0
H119 H 0.66246 0.553 0.93491 0.0
Co120 Co 0.22829 0.73762 0.02003 0.0
C121 C 0.23904 0.76879 0.18708 0.0
Co122 Co 0.24106 0.78767 0.01857 0.0
C123 C 0.21782 0.67206 1.00097 0.0
C124 C 0.19058 0.6825 0.10135 0.0
N125 N 0.21235 0.69555 0.03822 0.0
N126 N 0.20054 0.64524 0.03986 0.0
C127 C 0.18347 0.65186 0.10277 0.0
H128 H 0.23462 0.67465 0.94826 0.0
H129 H 0.18055 0.6946 0.14459 0.0
C130 C 0.2308 0.75632 0.85165 0.0
N131 N 0.25758 0.83009 1.00251 0.0
C132 C 0.25732 0.8541 0.05095 0.0
C133 C 0.27704 0.84311 0.9348 0.0
N134 N 0.2753 0.8812 0.01421 0.0
C135 C 0.2876 0.87411 0.94136 0.0
C136 C 0.29488 0.76816 0.02019 0.0
O137 O 0.22351 0.73181 0.89466 0.0
O138 O 0.23867 0.78156 0.89333 0.0
O139 O 0.28573 0.79045 0.02324 0.0
O140 O 0.27298 0.74099 0.01729 0.0
O141 O 0.24297 0.79278 0.14399 0.0
H142 H 0.28449 0.83099 0.88514 0.0
H143 H 0.24471 0.85181 0.11219 0.0
O144 O 0.23353 0.74397 0.14529 0.0
O145 O 0.18412 0.73504 0.02201 0.0
O146 O 0.19586 0.78418 0.01403 0.0
C147 C 0.17438 0.75692 0.01826 0.0
H148 H 0.16701 0.6356 0.14683 0.0
H149 H 0.3043 0.89034 0.89767 0.0
Co150 Co 0.41677 0.19492 0.09676 0.0
C151 C 0.43361 0.22406 0.93418 0.0
Co152 Co 0.44796 0.24449 0.1059 0.0
C153 C 0.38723 0.1279 0.12181 0.0
C154 C 0.36258 0.14452 0.02265 0.0
N155 N 0.38905 0.15373 0.08045 0.0
N156 N 0.36023 0.10337 0.09271 0.0
C157 C 0.34487 0.11384 0.03032 0.0
H158 H 0.40466 0.12724 0.1737 0.0
H159 H 0.35612 0.15939 0.97855 0.0
C160 C 0.43176 0.21515 0.26854 0.0
N161 N 0.47349 0.28584 0.12333 0.0
C162 C 0.50064 0.30525 0.084 0.0
C163 C 0.467 0.30309 0.18493 0.0
N164 N 0.51099 0.33393 0.11865 0.0
C165 C 0.48986 0.33243 0.18232 0.0
C166 C 0.38086 0.23229 0.10145 0.0
O167 O 0.41467 0.19145 0.22219 0.0
O168 O 0.44824 0.23978 0.23032 0.0
O169 O 0.40959 0.25315 0.10954 0.0
O170 O 0.37792 0.20476 0.09336 0.0
O171 O 0.44755 0.24855 0.98028 0.0
H172 H 0.44683 0.29479 0.22945 0.0
H173 H 0.51224 0.29857 0.03052 0.0
O174 O 0.4194 0.19888 0.97248 0.0
O175 O 0.45635 0.18613 0.09903 0.0
O176 O 0.48618 0.23574 0.10183 0.0
C177 C 0.48453 0.20848 0.09942 0.0
H178 H 0.32242 0.10012 0.99258 0.0
H179 H 0.49107 0.35117 0.2251 0.0
C180 C 0.35439 0.26853 0.13548 0.0
C181 C 0.35177 0.2408 0.09692 0.0
C182 C 0.32933 0.27961 0.1219 0.0
C183 C 0.30104 0.26282 0.06702 0.0
C184 C 0.29733 0.23392 0.03193 0.0
C185 C 0.32271 0.22311 0.04784 0.0
C186 C 0.33417 0.31029 0.16197 0.0
C187 C 0.26767 0.21538 0.97288 0.0
C188 C 0.23465 0.29566 0.07171 0.0
C189 C 0.2453 0.31747 0.00568 0.0
C190 C 0.251 0.27581 0.08884 0.0
C191 C 0.27816 0.27774 0.03781 0.0
C192 C 0.28681 0.29792 0.96591 0.0
C193 C 0.27055 0.31778 0.95154 0.0
C194 C 0.24107 0.25474 0.16619 0.0
C195 C 0.31514 0.30044 0.90862 0.0
H196 H 0.37664 0.28211 0.1744 0.0
H197 H 0.32061 0.20167 0.01777 0.0
H198 H 0.33857 0.32727 0.10885 0.0
H199 H 0.31158 0.30893 0.1953 0.0
H200 H 0.35554 0.31876 0.2108 0.0
H201 H 0.26566 0.19154 0.96327 0.0
H202 H 0.24448 0.21494 1.00066 0.0
H203 H 0.2699 0.2261 0.90715 0.0
H204 H 0.21535 0.29571 0.1142 0.0
H205 H 0.2787 0.3347 0.9004 0.0
H206 H 0.25926 0.26452 0.2225 0.0
H207 H 0.24117 0.23207 0.14923 0.0
H208 H 0.21612 0.25165 0.18818 0.0
H209 H 0.33896 0.31177 0.94714 0.0
H210 H 0.31564 0.31393 0.84851 0.0
H211 H 0.31343 0.27746 0.88786 0.0
C212 C 0.03427 0.30704 0.91611 0.0
C213 C 0.05781 0.31936 0.98625 0.0
C214 C 1.00028 0.29821 0.92805 0.0
C215 C 0.98925 0.30156 0.0126 0.0
C216 C 0.01287 0.31431 0.08372 0.0
C217 C 0.04692 0.32327 0.06955 0.0
C218 C 0.97614 0.28529 0.84989 0.0
C219 C 1.00211 0.31813 0.17493 0.0
C220 C 0.90377 0.30431 0.01434 0.0
C221 C 0.88341 0.27394 0.0322 0.0
C222 C 0.93824 0.31372 0.01022 0.0
C223 C 0.95302 0.29239 0.025 0.0
C224 C 0.93276 0.26185 0.04516 0.0
C225 C 0.89818 0.25294 0.04806 0.0
C226 C 0.95873 0.34637 0.98741 0.0
C227 C 0.94757 0.23845 0.06199 0.0
H228 H 0.04255 0.30443 0.85123 0.0
H229 H 0.06497 0.33253 0.12405 0.0
H230 H 0.95841 0.26193 0.8643 0.0
H231 H 0.9615 0.29948 0.83773 0.0
H232 H 0.98875 0.28426 0.78845 0.0
H233 H 0.02345 0.32823 0.2233 0.0
H234 H 0.98791 0.33299 0.17235 0.0
H235 H 0.98538 0.29564 0.19916 0.0
H236 H 0.89271 0.32079 1.00191 0.0
H237 H 0.88273 0.22951 0.06246 0.0
H238 H 0.97039 0.34692 0.92335 0.0
H239 H 0.97902 0.35691 0.0383 0.0
H240 H 0.94371 0.36052 0.98215 0.0
H241 H 0.95856 0.23442 1.00087 0.0
H242 H 0.92889 0.21632 0.08309 0.0
H243 H 0.96783 0.24706 0.11387 0.0
C244 C 0.71471 0.09313 0.94176 0.0
C245 C 0.72624 0.10369 0.02836 0.0
C246 C 0.69764 0.06165 0.92262 0.0
C247 C 0.69184 0.04039 0.99186 0.0
C248 C 0.7015 0.0513 0.08008 0.0
C249 C 0.71858 0.08268 0.09703 0.0
C250 C 0.68762 0.05107 0.82782 0.0
C251 C 0.69561 0.02968 0.15636 0.0
C252 C 0.63635 0.95554 0.97887 0.0
C253 C 0.66012 0.94268 0.97612 0.0
C254 C 0.64586 0.98751 0.97745 0.0
C255 C 0.67985 1.00683 0.97267 0.0
C256 C 0.70341 0.9936 0.96243 0.0
C257 C 0.69326 0.9618 0.9647 0.0
C258 C 0.61989 1.00058 0.9878 0.0
C259 C 0.73983 0.01308 0.95616 0.0
H260 H 0.72058 0.1093 0.88851 0.0
H261 H 0.72683 0.09082 0.16429 0.0
H262 H 0.70457 0.0409 0.80283 0.0
H263 H 0.66217 0.03314 0.8229 0.0
H264 H 0.68869 0.07017 0.78433 0.0
H265 H 0.70173 0.04189 0.22154 0.0
H266 H 0.66936 0.01338 0.15471 0.0
H267 H 0.71114 0.01615 0.15047 0.0
H268 H 0.61075 0.94078 0.98819 0.0
H269 H 0.71157 0.95177 0.9618 0.0
H270 H 0.62407 0.02002 0.94303 0.0
H271 H 0.62153 0.00935 0.05666 0.0
H272 H 0.59448 0.98314 0.97402 0.0
H273 H 0.74358 0.03104 0.90637 0.0
H274 H 0.75429 0.9994 0.93804 0.0
H275 H 0.74993 0.0247 0.02095 0.0
C276 C 0.74129 0.68693 0.09398 0.0
C277 C 0.77145 0.6921 0.05545 0.0
C278 C 0.72586 0.70763 0.08414 0.0
C279 C 0.74053 0.73389 0.03254 0.0
C280 C 0.77187 0.74004 0.99705 0.0
C281 C 0.78718 0.71914 0.00971 0.0
C282 C 0.69282 0.70038 0.12484 0.0
C283 C 0.78817 0.76757 0.94098 0.0
C284 C 0.67278 0.75398 0.92458 0.0
C285 C 0.67202 0.77679 0.98212 0.0
C286 C 0.69709 0.74185 0.93549 0.0
C287 C 0.72072 0.75221 0.00734 0.0
C288 C 0.72145 0.77678 0.06207 0.0
C289 C 0.69715 0.78904 0.04824 0.0
C290 C 0.69573 0.71618 0.87425 0.0
C291 C 0.74602 0.78835 0.13971 0.0
H292 H 0.72928 0.66619 0.13034 0.0
H293 H 0.81048 0.72311 0.97963 0.0
H294 H 0.69271 0.72068 0.16102 0.0
H295 H 0.67296 0.69417 0.0718 0.0
H296 H 0.68674 0.68114 0.17134 0.0
H297 H 0.81449 0.77179 0.9304 0.0
H298 H 0.77473 0.76389 0.87545 0.0
H299 H 0.78693 0.78827 0.97185 0.0
H300 H 0.6534 0.74465 0.87307 0.0
H301 H 0.69637 0.80654 0.09318 0.0
H302 H 0.68631 0.69432 0.90995 0.0
H303 H 0.72084 0.71988 0.85262 0.0
H304 H 0.6792 0.7139 0.81467 0.0
H305 H 0.73835 0.77171 0.1939 0.0
H306 H 0.74745 0.81078 0.1653 0.0
H307 H 0.77107 0.79057 0.12138 0.0
C308 C 0.12483 0.77158 0.00391 0.0
C309 C 0.13824 0.74966 0.02096 0.0
C310 C 0.09044 0.76401 0.00727 0.0
C311 C 0.06913 0.73398 0.02928 0.0
C312 C 0.08261 0.71182 0.04591 0.0
C313 C 0.11679 0.71986 0.04114 0.0
C314 C 0.07693 0.78819 0.98832 0.0
C315 C 0.06101 0.67968 0.07099 0.0
C316 C 0.98794 0.71971 0.13759 0.0
C317 C 0.96439 0.70589 0.06848 0.0
C318 C 0.02201 0.72962 0.12496 0.0
C319 C 0.03305 0.7259 0.04076 0.0
C320 C 1.00945 0.71228 0.97022 0.0
C321 C 0.97537 0.70221 0.98512 0.0
C322 C 0.04617 0.74338 0.20257 0.0
C323 C 0.02023 0.70811 0.87932 0.0
H324 H 0.14115 0.79457 0.98785 0.0
H325 H 0.12676 0.70266 0.05476 0.0
H326 H 0.05678 0.77988 0.93607 0.0
H327 H 0.06606 0.79304 0.0486 0.0
H328 H 0.09633 0.80983 0.96669 0.0
H329 H 0.07524 0.66491 0.0794 0.0
H330 H 0.04908 0.6802 0.13393 0.0
H331 H 0.04094 0.66911 0.01958 0.0
H332 H 0.97964 0.72222 0.20251 0.0
H333 H 0.95729 0.69187 0.93133 0.0
H334 H 0.06453 0.76618 0.18564 0.0
H335 H 0.06007 0.72876 0.21829 0.0
H336 H 0.03364 0.74584 0.26276 0.0
H337 H 0.03817 0.73021 0.85591 0.0
H338 H 0.99901 0.69904 0.83018 0.0
H339 H 0.03306 0.6921 0.88224 0.0
C340 C 0.28634 0.93474 0.98307 0.0
C341 C 0.28272 0.91199 0.04518 0.0
C342 C 0.29895 0.96567 0.008 0.0
C343 C 0.30798 0.97435 0.09799 0.0
C344 C 0.30283 0.95143 0.16212 0.0
C345 C 0.29026 0.92041 0.13488 0.0
C346 C 0.30357 0.98913 0.93714 0.0
C347 C 0.31168 0.95972 0.25878 0.0
C348 C 0.37037 0.05636 0.11437 0.0
C349 C 0.34921 0.07198 0.11826 0.0
C350 C 0.35765 0.02424 0.1159 0.0
C351 C 0.32307 0.00756 0.12254 0.0
C352 C 0.30228 0.02355 0.1357 0.0
C353 C 0.31556 0.05553 0.13248 0.0
C354 C 0.38074 0.00816 0.10168 0.0
C355 C 0.26547 1.00689 0.14478 0.0
H356 H 0.28006 0.92824 0.9139 0.0
H357 H 0.28774 0.90291 0.18296 0.0
H358 H 0.28959 1.00347 0.95233 0.0
H359 H 0.33013 1.00448 0.93542 0.0
H360 H 0.29512 0.97852 0.87029 0.0
H361 H 0.30253 0.93938 0.30128 0.0
H362 H 0.33899 0.97088 0.26889 0.0
H363 H 0.30126 0.9763 0.28069 0.0
H364 H 0.39633 0.06911 0.10283 0.0
H365 H 0.29929 0.06773 0.13612 0.0
H366 H 0.37671 0.99867 0.03305 0.0
H367 H 0.37554 0.98881 0.14729 0.0
H368 H 0.40715 0.02386 0.11161 0.0
H369 H 0.25349 0.99789 0.07891 0.0
H370 H 0.254 0.02213 0.17109 0.0
H371 H 0.2602 0.98717 0.18906 0.0
C372 C 0.19692 0.60321 0.93782 0.0
C373 C 0.20078 0.6155 0.02379 0.0
C374 C 0.19418 0.57302 0.92337 0.0
C375 C 0.19614 0.55513 0.9966 0.0
C376 C 0.2004 0.56774 0.08336 0.0
C377 C 0.20237 0.5976 0.09577 0.0
C378 C 0.18945 0.56029 0.82999 0.0
C379 C 0.2036 0.54993 0.1632 0.0
C380 C 0.17073 0.46868 0.98935 0.0
C381 C 0.20166 0.46666 0.98451 0.0
C382 C 0.16813 0.49735 0.98869 0.0
C383 C 0.19712 0.52443 0.98326 0.0
C384 C 0.22806 0.52228 0.97435 0.0
C385 C 0.22991 0.49361 0.97519 0.0
C386 C 0.1346 0.49876 0.99688 0.0
C387 C 0.25974 0.55034 0.96898 0.0
H388 H 0.19522 0.61697 0.8824 0.0
H389 H 0.2055 0.60724 0.16219 0.0
H390 H 0.2113 0.55548 0.8127 0.0
H391 H 0.16756 0.53835 0.82466 0.0
H392 H 0.18603 0.57626 0.78093 0.0
H393 H 0.20567 0.56269 0.22634 0.0
H394 H 0.18185 0.52795 0.16496 0.0
H395 H 0.22591 0.54449 0.15874 0.0
H396 H 0.14876 0.44803 0.99579 0.0
H397 H 0.25399 0.49253 0.97035 0.0
H398 H 0.13063 0.51388 0.94597 0.0
H399 H 0.13344 0.50867 0.06256 0.0
H400 H 0.11417 0.47585 0.98978 0.0
H401 H 0.25645 0.56705 0.9227 0.0
H402 H 0.28052 0.54462 0.94692 0.0
H403 H 0.26676 0.56164 0.03528 0.0
C404 C 0.52706 0.20332 0.00538 0.0
C405 C 0.51553 0.20387 0.09006 0.0
C406 C 0.55992 0.2066 0.9938 0.0
C407 C 0.58173 0.21056 0.06889 0.0
C408 C 0.56956 0.20961 0.15478 0.0
C409 C 0.53666 0.2066 0.16428 0.0
C410 C 0.5718 0.2077 0.90112 0.0
C411 C 0.59179 0.21347 0.23661 0.0
C412 C 0.66415 0.20241 0.04332 0.0
C413 C 0.68646 0.23302 0.03991 0.0
C414 C 0.63004 0.19472 0.05219 0.0
C415 C 0.61778 0.21814 0.05761 0.0
C416 C 0.6401 0.24905 0.05312 0.0
C417 C 0.67409 0.25609 0.04447 0.0
C418 C 0.60715 0.16153 0.05677 0.0
C419 C 0.62811 0.27477 0.0582 0.0
H420 H 0.51085 0.20201 0.94803 0.0
H421 H 0.52785 0.20776 0.22964 0.0
H422 H 0.58981 0.23109 0.88815 0.0
H423 H 0.58483 0.19203 0.89378 0.0
H424 H 0.55114 0.20146 0.85023 0.0
H425 H 0.5778 0.20909 0.29812 0.0
H426 H 0.60493 0.19775 0.23333 0.0
H427 H 0.61089 0.23709 0.2405 0.0
H428 H 0.67337 0.18436 0.03999 0.0
H429 H 0.69102 0.27979 0.04193 0.0
H430 H 0.58743 0.15574 0.00345 0.0
H431 H 0.59476 0.15726 0.12073 0.0
H432 H 0.62044 0.14601 0.05026 0.0
H433 H 0.60896 0.27188 0.00483 0.0
H434 H 0.64848 0.29753 0.05207 0.0
H435 H 0.61641 0.27423 0.12218 0.0
C436 C 0.46655 0.63267 0.89655 0.0
C437 C 0.48287 0.65218 0.96833 0.0
C438 C 0.44043 0.60462 0.90921 0.0
C439 C 0.43053 0.5957 0.996 0.0
C440 C 0.44562 0.61606 0.06841 0.0
C441 C 0.47163 0.64423 0.05364 0.0
C442 C 0.42426 0.58402 0.82998 0.0
C443 C 0.43507 0.60756 0.16158 0.0
C444 C 0.34958 0.52659 0.01253 0.0
C445 C 0.36095 0.50291 0.02205 0.0
C446 C 0.37187 0.55713 0.00759 0.0
C447 C 0.40637 0.5641 0.01081 0.0
C448 C 0.41796 0.54034 0.02185 0.0
C449 C 0.39514 0.5101 0.02747 0.0
C450 C 0.35814 0.58155 0.99628 0.0
C451 C 0.45454 0.54676 0.02556 0.0
H452 H 0.47474 0.63917 0.83031 0.0
H453 H 0.48418 0.65937 0.10906 0.0
H454 H 0.4291 0.56283 0.83453 0.0
H455 H 0.39702 0.57726 0.82915 0.0
H456 H 0.43353 0.5951 0.7665 0.0
H457 H 0.44755 0.62671 0.20972 0.0
H458 H 0.40785 0.60048 0.1645 0.0
H459 H 0.441 0.58781 0.18194 0.0
H460 H 0.32321 0.52131 0.00988 0.0
H461 H 0.40407 0.49191 0.03425 0.0
H462 H 0.35318 0.58385 0.92471 0.0
H463 H 0.37553 0.6041 0.02292 0.0
H464 H 0.33437 0.57526 0.02971 0.0
H465 H 0.46523 0.55604 0.96153 0.0
H466 H 0.45954 0.52599 0.0393 0.0
H467 H 0.46761 0.56428 0.07768 0.0
C468 C 0.82235 0.53301 0.99239 0.0
C469 C 0.83206 0.55312 0.06547 0.0
C470 C 0.8219 0.50344 0.99824 0.0
C471 C 0.83062 0.49347 0.08002 0.0
C472 C 0.84134 0.51407 0.15364 0.0
C473 C 0.84202 0.5438 0.14538 0.0
C474 C 0.81091 0.48252 0.91754 0.0
C475 C 0.85048 0.50425 0.24208 0.0
C476 C 0.79408 0.40677 0.09228 0.0
C477 C 0.82035 0.39995 0.06308 0.0
C478 C 0.79772 0.43734 0.1045 0.0
C479 C 0.82833 0.46142 0.08704 0.0
C480 C 0.85559 0.45441 0.06462 0.0
C481 C 0.85126 0.42382 0.05323 0.0
C482 C 0.76816 0.44386 0.12984 0.0
C483 C 0.88864 0.47918 0.04553 0.0
H484 H 0.8139 0.54011 0.93132 0.0
H485 H 0.84846 0.55913 0.20263 0.0
H486 H 0.82996 0.47342 0.9028 0.0
H487 H 0.78772 0.46274 0.9305 0.0
H488 H 0.80641 0.49425 0.85808 0.0
H489 H 0.86082 0.52361 0.29059 0.0
H490 H 0.82815 0.48659 0.2694 0.0
H491 H 0.86889 0.49382 0.23443 0.0
H492 H 0.77019 0.38836 0.09977 0.0
H493 H 0.87176 0.41851 0.03205 0.0
H494 H 0.7585 0.45247 0.07159 0.0
H495 H 0.77541 0.46185 0.18253 0.0
H496 H 0.74788 0.42314 0.15329 0.0
H497 H 0.88634 0.49009 0.98225 0.0
H498 H 0.90834 0.47014 0.03997 0.0
H499 H 0.89646 0.49722 0.09811 0.0
C500 C 0.34175 0.7518 0.99227 0.0
C501 C 0.33077 0.77448 0.01809 0.0
C502 C 0.37576 0.75829 0.98642 0.0
C503 C 0.39937 0.78806 0.00816 0.0
C504 C 0.3884 0.81091 0.03523 0.0
C505 C 0.35431 0.80392 0.03928 0.0
C506 C 0.38645 0.73334 0.95654 0.0
C507 C 0.4127 0.84274 0.06052 0.0
C508 C 0.48608 0.79344 0.07322 0.0
C509 C 0.50269 0.80353 0.99511 0.0
C510 C 0.45283 0.78947 0.07945 0.0
C511 C 0.43555 0.79502 0.00486 0.0
C512 C 0.45262 0.80611 0.92644 0.0
C513 C 0.48615 0.81036 0.92263 0.0
C514 C 0.43586 0.77815 0.16476 0.0
C515 C 0.43503 0.81202 0.84526 0.0
H516 H 0.32375 0.72908 0.97521 0.0
H517 H 0.34609 0.82161 0.0596 0.0
H518 H 0.40172 0.74071 0.89771 0.0
H519 H 0.4021 0.72884 0.00953 0.0
H520 H 0.36505 0.71169 0.93954 0.0
H521 H 0.40015 0.85794 0.08009 0.0
H522 H 0.42937 0.84176 0.11651 0.0
H523 H 0.42848 0.85304 0.00427 0.0
H524 H 0.4989 0.78771 0.12867 0.0
H525 H 0.49892 0.81744 0.86163 0.0
H526 H 0.41648 0.75487 0.15394 0.0
H527 H 0.42337 0.79309 0.18673 0.0
H528 H 0.45346 0.77736 0.21866 0.0
H529 H 0.41544 0.79025 0.82027 0.0
H530 H 0.45218 0.82218 0.79137 0.0
H531 H 0.42266 0.82759 0.86207 0.0
C532 C 0.64832 0.48877 0.9579 0.0
C533 C 0.66947 0.50416 0.02995 0.0
C534 C 0.62507 0.45878 0.9653 0.0
C535 C 0.62267 0.4439 0.0471 0.0
C536 C 0.64522 0.45869 0.11861 0.0
C537 C 0.66849 0.48864 0.109 0.0
C538 C 0.60186 0.44369 0.88704 0.0
C539 C 0.64337 0.44367 0.20704 0.0
C540 C 0.537 0.38971 0.10625 0.0
C541 C 0.53851 0.36102 0.09462 0.0
C542 C 0.56417 0.41666 0.09068 0.0
C543 C 0.59371 0.41504 0.06164 0.0
C544 C 0.59523 0.38617 0.04707 0.0
C545 C 0.56754 0.35942 0.06378 0.0
C546 C 0.56134 0.44693 0.10654 0.0
C547 C 0.62624 0.3836 0.01533 0.0
H548 H 0.6496 0.50042 0.89592 0.0
H549 H 0.68482 0.50045 0.16472 0.0
H550 H 0.60016 0.42002 0.8766 0.0
H551 H 0.57663 0.44233 0.90019 0.0
H552 H 0.60987 0.45649 0.82517 0.0
H553 H 0.66505 0.45652 0.2521 0.0
H554 H 0.62054 0.44228 0.23919 0.0
H555 H 0.64192 0.42002 0.19829 0.0
H556 H 0.51441 0.39112 0.12802 0.0
H557 H 0.56889 0.33732 0.0551 0.0
H558 H 0.56576 0.46011 0.0447 0.0
H559 H 0.5805 0.46068 0.15691 0.0
H560 H 0.53663 0.44418 0.12965 0.0
H561 H 0.63353 0.39613 0.95286 0.0
H562 H 0.623 0.35949 0.00389 0.0
H563 H 0.64698 0.39429 0.06491 0.0
C564 C 0.24826 0.38784 0.68752 0.0
C565 C 0.22299 0.39156 0.7335 0.0
C566 C 0.2469 0.38668 0.59452 0.0
C567 C 0.22032 0.39056 0.547 0.0
C568 C 0.19523 0.39515 0.5936 0.0
C569 C 0.19655 0.39499 0.68635 0.0
C570 C 0.27353 0.38077 0.54716 0.0
C571 C 0.16717 0.40051 0.54559 0.0
C572 C 0.23449 0.41629 0.30948 0.0
C573 C 0.21569 0.38933 0.26202 0.0
C574 C 0.23572 0.41714 0.40229 0.0
C575 C 0.21879 0.39006 0.44854 0.0
C576 C 0.20008 0.36265 0.40067 0.0
C577 C 0.19824 0.36276 0.30772 0.0
C578 C 0.2549 0.44706 0.45078 0.0
C579 C 0.18254 0.33312 0.44757 0.0
H580 H 0.2685 0.38489 0.72433 0.0
H581 H 0.17714 0.39809 0.72228 0.0
H582 H 0.26212 0.36037 0.50281 0.0
H583 H 0.28697 0.40036 0.50503 0.0
H584 H 0.29175 0.37704 0.59383 0.0
H585 H 0.15052 0.4051 0.59182 0.0
H586 H 0.17723 0.42019 0.50109 0.0
H587 H 0.15224 0.38028 0.50358 0.0
H588 H 0.24785 0.43686 0.2738 0.0
H589 H 0.18405 0.34185 0.27071 0.0
H590 H 0.27543 0.44523 0.49232 0.0
H591 H 0.2385 0.45252 0.49579 0.0
H592 H 0.26547 0.46628 0.40487 0.0
H593 H 0.20052 0.32794 0.49139 0.0
H594 H 0.17022 0.31357 0.4006 0.0
H595 H 0.16358 0.33533 0.49017 0.0
C596 C 0.79623 0.23153 0.72111 0.0
C597 C 0.77996 0.24658 0.76797 0.0
C598 C 0.79843 0.23407 0.62876 0.0
C599 C 0.783 0.2512 0.58228 0.0
C600 C 0.76568 0.26565 0.6294 0.0
C601 C 0.76489 0.26361 0.72183 0.0
C602 C 0.81784 0.21898 0.58116 0.0
C603 C 0.74786 0.28316 0.58219 0.0
C604 C 0.80929 0.28043 0.35173 0.0
C605 C 0.78621 0.2572 0.29818 0.0
C606 C 0.80895 0.27856 0.44458 0.0
C607 C 0.78422 0.25341 0.48416 0.0
C608 C 0.7603 0.23041 0.42988 0.0
C609 C 0.76197 0.23233 0.33765 0.0
C610 C 0.8354 0.3031 0.50027 0.0
C611 C 0.73282 0.20384 0.46915 0.0
H612 H 0.8083 0.21874 0.75705 0.0
H613 H 0.75225 0.27523 0.75821 0.0
H614 H 0.80138 0.20182 0.53216 0.0
H615 H 0.83761 0.23627 0.54405 0.0
H616 H 0.8294 0.20747 0.62728 0.0
H617 H 0.73447 0.29206 0.62827 0.0
H618 H 0.7658 0.30267 0.54725 0.0
H619 H 0.72977 0.26823 0.53142 0.0
H620 H 0.82819 0.2995 0.32103 0.0
H621 H 0.74393 0.21446 0.29604 0.0
H622 H 0.84901 0.29271 0.54363 0.0
H623 H 0.82389 0.31459 0.54402 0.0
H624 H 0.85344 0.32061 0.45934 0.0
H625 H 0.74341 0.19014 0.50956 0.0
H626 H 0.71535 0.18862 0.41762 0.0
H627 H 0.71869 0.21235 0.51382 0.0
C628 C 0.61653 0.81539 0.67279 0.0
C629 C 0.58825 0.79798 0.71772 0.0
C630 C 0.61686 0.81319 0.58013 0.0
C631 C 0.58787 0.7939 0.5315 0.0
C632 C 0.55898 0.77697 0.57675 0.0
C633 C 0.55971 0.77883 0.66942 0.0
C634 C 0.64838 0.83102 0.53442 0.0
C635 C 0.52724 0.75701 0.5273 0.0
C636 C 0.58022 0.81186 0.28946 0.0
C637 C 0.58678 0.78874 0.24678 0.0
C638 C 0.5799 0.81343 0.38192 0.0
C639 C 0.58745 0.79196 0.43314 0.0
C640 C 0.59426 0.76859 0.39029 0.0
C641 C 0.59327 0.76694 0.29724 0.0
C642 C 0.57134 0.83801 0.42472 0.0
C643 C 0.60322 0.74575 0.44275 0.0
H644 H 0.63873 0.82988 0.71034 0.0
H645 H 0.5378 0.76542 0.7043 0.0
H646 H 0.65587 0.81524 0.49494 0.0
H647 H 0.64421 0.84723 0.48777 0.0
H648 H 0.6691 0.84408 0.582 0.0
H649 H 0.50664 0.7462 0.57226 0.0
H650 H 0.51967 0.77074 0.47863 0.0
H651 H 0.53116 0.73874 0.48964 0.0
H652 H 0.57491 0.82858 0.25018 0.0
H653 H 0.59861 0.74924 0.26404 0.0
H654 H 0.59266 0.85327 0.46699 0.0
H655 H 0.55023 0.82754 0.46822 0.0
H656 H 0.56466 0.85209 0.37521 0.0
H657 H 0.6252 0.75789 0.48748 0.0
H658 H 0.60876 0.72956 0.39951 0.0
H659 H 0.5826 0.7325 0.48496 0.0
C660 C 0.82385 0.65261 0.7487 0.0
C661 C 0.80923 0.62568 0.79549 0.0
C662 C 0.82191 0.65215 0.65568 0.0
C663 C 0.80608 0.62392 0.60895 0.0
C664 C 0.79217 0.59658 0.65638 0.0
C665 C 0.79335 0.59788 0.74914 0.0
C666 C 0.83618 0.68187 0.60746 0.0
C667 C 0.77622 0.56593 0.60922 0.0
C668 C 0.77464 0.62192 0.36979 0.0
C669 C 0.80139 0.62117 0.32391 0.0
C670 C 0.77605 0.62338 0.46279 0.0
C671 C 0.80435 0.6229 0.51045 0.0
C672 C 0.83097 0.62121 0.46397 0.0
C673 C 0.82942 0.62096 0.37119 0.0
C674 C 0.7476 0.62606 0.50997 0.0
C675 C 0.86101 0.61949 0.51216 0.0
H676 H 0.83579 0.67412 0.78488 0.0
H677 H 0.78222 0.57704 0.7857 0.0
H678 H 0.85608 0.68171 0.5648 0.0
H679 H 0.81667 0.68461 0.56354 0.0
H680 H 0.84656 0.70191 0.65358 0.0
H681 H 0.76801 0.54673 0.656 0.0
H682 H 0.75443 0.56508 0.56778 0.0
H683 H 0.79394 0.56254 0.56427 0.0
H684 H 0.75314 0.62239 0.33289 0.0
H685 H 0.85 0.62017 0.33535 0.0
H686 H 0.75679 0.64687 0.55317 0.0
H687 H 0.73643 0.60623 0.55325 0.0
H688 H 0.72795 0.62721 0.46318 0.0
H689 H 0.874 0.64051 0.55302 0.0
H690 H 0.87881 0.61675 0.46608 0.0
H691 H 0.85326 0.59997 0.55777 0.0
C692 C 0.22671 0.78629 0.33278 0.0
C693 C 0.23984 0.76872 0.2848 0.0
C694 C 0.22427 0.78361 0.42511 0.0
C695 C 0.23623 0.76362 0.47044 0.0
C696 C 0.25043 0.74657 0.42224 0.0
C697 C 0.25156 0.74896 0.32993 0.0
C698 C 0.2083 0.80166 0.47393 0.0
C699 C 0.26454 0.72585 0.46814 0.0
C700 C 0.25891 0.77961 0.71562 0.0
C701 C 0.23239 0.75662 0.75442 0.0
C702 C 0.26068 0.78182 0.62345 0.0
C703 C 0.23473 0.76109 0.56854 0.0
C704 C 0.20778 0.73778 0.60746 0.0
C705 C 0.2072 0.7355 0.70025 0.0
C706 C 0.29042 0.8063 0.58493 0.0
C707 C 0.17928 0.71568 0.55114 0.0
H708 H 0.21722 0.80124 0.29773 0.0
H709 H 0.26181 0.7354 0.29281 0.0
H710 H 0.18708 0.78594 0.51033 0.0
H711 H 0.22625 0.81727 0.52366 0.0
H712 H 0.19928 0.81539 0.42871 0.0
H713 H 0.27577 0.71499 0.42131 0.0
H714 H 0.28374 0.73901 0.51921 0.0
H715 H 0.24478 0.70761 0.50253 0.0
H716 H 0.27858 0.79575 0.75768 0.0
H717 H 0.18657 0.71791 0.73047 0.0
H718 H 0.2825 0.82204 0.54531 0.0
H719 H 0.30248 0.79579 0.53965 0.0
H720 H 0.30904 0.81988 0.63684 0.0
H721 H 0.168 0.72845 0.50899 0.0
H722 H 0.1598 0.69944 0.59159 0.0
H723 H 0.18836 0.70246 0.5062 0.0
C724 C 0.43999 0.20008 0.79416 0.0
C725 C 0.43486 0.22393 0.83703 0.0
C726 C 0.44016 0.19847 0.70166 0.0
C727 C 0.43388 0.22068 0.6507 0.0
C728 C 0.42852 0.2448 0.6938 0.0
C729 C 0.42967 0.24645 0.78684 0.0
C730 C 0.44719 0.17305 0.65857 0.0
C731 C 0.42093 0.26847 0.64164 0.0
C732 C 0.46149 0.23302 0.4143 0.0
C733 C 0.43244 0.2149 0.36605 0.0
C734 C 0.46243 0.23472 0.507 0.0
C735 C 0.43327 0.21873 0.55234 0.0
C736 C 0.40378 0.20047 0.50378 0.0
C737 C 0.40387 0.19836 0.41105 0.0
C738 C 0.49466 0.25354 0.55635 0.0
C739 C 0.372 0.18369 0.54965 0.0
H740 H 0.44429 0.18281 0.8333 0.0
H741 H 0.42542 0.26472 0.82027 0.0
H742 H 0.42543 0.15845 0.6165 0.0
H743 H 0.46836 0.18274 0.61482 0.0
H744 H 0.45308 0.15845 0.7079 0.0
H745 H 0.41639 0.2852 0.68507 0.0
H746 H 0.44181 0.28103 0.59936 0.0
H747 H 0.39871 0.25711 0.59698 0.0
H748 H 0.48364 0.24573 0.37933 0.0
H749 H 0.38131 0.18467 0.37353 0.0
H750 H 0.50132 0.23918 0.60482 0.0
H751 H 0.49188 0.27234 0.59422 0.0
H752 H 0.51539 0.26356 0.51129 0.0
H753 H 0.3753 0.167 0.59606 0.0
H754 H 0.35097 0.17132 0.50214 0.0
H755 H 0.36551 0.20006 0.58941 0.0
loop_
_geom_bond_atom_site_label_1
_geom_bond_atom_site_label_2
_geom_bond_distance
_geom_bond_site_symmetry_2
_ccdc_geom_bond_type
Co0 N5 2.057 . S
Co0 O17 2.021 1_554 S
Co0 O20 2.062 . S
Co0 O24 2.117 . S
Co0 O25 2.020 . S
C1 O21 1.259 . S
C1 O24 1.258 . S
Co2 N11 2.057 1_554 S
Co2 O18 2.117 1_554 S
Co2 O19 2.020 . S
Co2 O21 2.021 . S
Co2 O26 2.062 . S
C3 N5 1.316 1_556 S
C3 N6 1.347 1_556 S
C3 H8 0.931 . S
C4 N5 1.375 . S
C4 C7 1.350 . S
C4 H9 0.930 . S
N5 Co0 2.057 . S
N5 C3 1.316 1_554 S
N5 C4 1.375 . S
N6 C3 1.347 1_554 S
N6 C7 1.373 . S
C7 C4 1.350 . S
C7 N6 1.373 . S
C7 H28 0.931 . S
H8 C3 0.931 . S
H9 C4 0.930 . S
C10 O17 1.259 . S
C10 O18 1.258 . S
N11 Co2 2.057 1_556 S
N11 C12 1.316 1_556 S
N11 C13 1.375 . S
C12 N11 1.316 1_554 S
C12 N14 1.347 . S
C12 H23 0.931 . S
C13 N11 1.375 . S
C13 C15 1.350 . S
C13 H22 0.930 . S
N14 C12 1.347 . S
N14 C15 1.373 1_554 S
C15 C13 1.350 . S
C15 N14 1.373 1_556 S
C15 H29 0.931 . S
C16 O19 1.256 . S
C16 O20 1.255 . S
O17 Co0 2.021 1_556 S
O17 C10 1.259 . S
O18 Co2 2.117 1_556 S
O18 C10 1.258 . S
O19 Co2 2.020 . S
O19 C16 1.256 . S
O20 Co0 2.062 . S
O20 C16 1.255 . S
O21 C1 1.259 . S
O21 Co2 2.021 . S
H22 C13 0.930 . S
H23 C12 0.931 . S
O24 Co0 2.117 . S
O24 C1 1.258 . S
O25 Co0 2.020 . S
O25 C27 1.256 . S
O26 Co2 2.062 . S
O26 C27 1.255 . S
C27 O25 1.256 . S
C27 O26 1.255 . S
H28 C7 0.931 . S
H29 C15 0.931 . S
Co30 N35 2.057 . S
Co30 O47 2.021 1_554 S
Co30 O50 2.062 . S
Co30 O54 2.117 . S
Co30 O55 2.020 . S
C31 O51 1.259 . S
C31 O54 1.258 . S
Co32 N41 2.057 . S
Co32 O48 2.117 1_554 S
Co32 O49 2.020 . S
Co32 O51 2.021 . S
Co32 O56 2.062 . S
C33 N35 1.316 . S
C33 N36 1.347 . S
C33 H38 0.931 1_554 S
C34 N35 1.375 . S
C34 C37 1.350 . S
C34 H39 0.930 . S
N35 Co30 2.057 . S
N35 C33 1.316 . S
N35 C34 1.375 . S
N36 C33 1.347 . S
N36 C37 1.373 . S
C37 C34 1.350 . S
C37 N36 1.373 . S
C37 H58 0.931 . S
H38 C33 0.931 1_556 S
H39 C34 0.930 . S
C40 O47 1.259 . S
C40 O48 1.258 . S
N41 Co32 2.057 . S
N41 C42 1.316 . S
N41 C43 1.375 1_554 S
C42 N41 1.316 . S
C42 N44 1.347 . S
C42 H53 0.931 . S
C43 N41 1.375 1_556 S
C43 C45 1.350 . S
C43 H52 0.930 . S
N44 C42 1.347 . S
N44 C45 1.373 1_554 S
C45 C43 1.350 . S
C45 N44 1.373 1_556 S
C45 H59 0.931 . S
C46 O49 1.256 . S
C46 O50 1.255 . S
O47 Co30 2.021 1_556 S
O47 C40 1.259 . S
O48 Co32 2.117 1_556 S
O48 C40 1.258 . S
O49 Co32 2.020 . S
O49 C46 1.256 . S
O50 Co30 2.062 . S
O50 C46 1.255 . S
O51 C31 1.259 . S
O51 Co32 2.021 . S
H52 C43 0.930 . S
H53 C42 0.931 . S
O54 Co30 2.117 . S
O54 C31 1.258 . S
O55 Co30 2.020 . S
O55 C57 1.256 . S
O56 Co32 2.062 . S
O56 C57 1.255 . S
C57 O55 1.256 . S
C57 O56 1.255 . S
H58 C37 0.931 . S
H59 C45 0.931 . S
Co60 N65 2.057 1_554 S
Co60 O77 2.021 . S
Co60 O80 2.062 . S
Co60 O84 2.117 1_554 S
Co60 O85 2.020 . S
C61 O81 1.259 . S
C61 O84 1.258 . S
Co62 N71 2.057 1_556 S
Co62 O78 2.117 1_556 S
Co62 O79 2.020 . S
Co62 O81 2.021 . S
Co62 O86 2.062 . S
C63 N65 1.316 1_554 S
C63 N66 1.347 1_554 S
C63 H68 0.931 . S
C64 N65 1.375 . S
C64 C67 1.350 . S
C64 H69 0.930 . S
N65 Co60 2.057 1_556 S
N65 C63 1.316 1_556 S
N65 C64 1.375 . S
N66 C63 1.347 1_556 S
N66 C67 1.373 . S
C67 C64 1.350 . S
C67 N66 1.373 . S
C67 H88 0.931 . S
H68 C63 0.931 . S
H69 C64 0.930 . S
C70 O77 1.259 . S
C70 O78 1.258 . S
N71 Co62 2.057 1_554 S
N71 C72 1.316 1_554 S
N71 C73 1.375 . S
C72 N71 1.316 1_556 S
C72 N74 1.347 1_556 S
C72 H83 0.931 . S
C73 N71 1.375 . S
C73 C75 1.350 . S
C73 H82 0.930 . S
N74 C72 1.347 1_554 S
N74 C75 1.373 . S
C75 C73 1.350 . S
C75 N74 1.373 . S
C75 H89 0.931 . S
C76 O79 1.256 1_554 S
C76 O80 1.255 . S
O77 Co60 2.021 . S
O77 C70 1.259 . S
O78 Co62 2.117 1_554 S
O78 C70 1.258 . S
O79 Co62 2.020 . S
O79 C76 1.256 1_556 S
O80 Co60 2.062 . S
O80 C76 1.255 . S
O81 C61 1.259 . S
O81 Co62 2.021 . S
H82 C73 0.930 . S
H83 C72 0.931 . S
O84 Co60 2.117 1_556 S
O84 C61 1.258 . S
O85 Co60 2.020 . S
O85 C87 1.256 . S
O86 Co62 2.062 . S
O86 C87 1.255 1_556 S
C87 O85 1.256 . S
C87 O86 1.255 1_554 S
H88 C67 0.931 . S
H89 C75 0.931 . S
Co90 N95 2.057 . S
Co90 O107 2.021 1_554 S
Co90 O110 2.062 . S
Co90 O114 2.117 . S
Co90 O115 2.020 . S
C91 O111 1.259 . S
C91 O114 1.258 . S
Co92 N101 2.057 . S
Co92 O108 2.117 1_554 S
Co92 O109 2.020 . S
Co92 O111 2.021 . S
Co92 O116 2.062 . S
C93 N95 1.316 . S
C93 N96 1.347 . S
C93 H98 0.931 1_554 S
C94 N95 1.375 . S
C94 C97 1.350 . S
C94 H99 0.930 . S
N95 Co90 2.057 . S
N95 C93 1.316 . S
N95 C94 1.375 . S
N96 C93 1.347 . S
N96 C97 1.373 . S
C97 C94 1.350 . S
C97 N96 1.373 . S
C97 H118 0.931 . S
H98 C93 0.931 1_556 S
H99 C94 0.930 . S
C100 O107 1.259 . S
C100 O108 1.258 . S
N101 Co92 2.057 . S
N101 C102 1.316 . S
N101 C103 1.375 1_554 S
C102 N101 1.316 . S
C102 N104 1.347 . S
C102 H113 0.931 . S
C103 N101 1.375 1_556 S
C103 C105 1.350 . S
C103 H112 0.930 . S
N104 C102 1.347 . S
N104 C105 1.373 1_554 S
C105 C103 1.350 . S
C105 N104 1.373 1_556 S
C105 H119 0.931 . S
C106 O109 1.256 . S
C106 O110 1.255 . S
O107 Co90 2.021 1_556 S
O107 C100 1.259 . S
O108 Co92 2.117 1_556 S
O108 C100 1.258 . S
O109 Co92 2.020 . S
O109 C106 1.256 . S
O110 Co90 2.062 . S
O110 C106 1.255 . S
O111 C91 1.259 . S
O111 Co92 2.021 . S
H112 C103 0.930 . S
H113 C102 0.931 . S
O114 Co90 2.117 . S
O114 C91 1.258 . S
O115 Co90 2.020 . S
O115 C117 1.256 . S
O116 Co92 2.062 . S
O116 C117 1.255 . S
C117 O115 1.256 . S
C117 O116 1.255 . S
H118 C97 0.931 . S
H119 C105 0.931 . S
Co120 N125 2.057 . S
Co120 O137 2.021 1_554 S
Co120 O140 2.062 . S
Co120 O144 2.117 . S
Co120 O145 2.020 . S
C121 O141 1.259 . S
C121 O144 1.258 . S
Co122 N131 2.057 1_554 S
Co122 O138 2.117 1_554 S
Co122 O139 2.020 . S
Co122 O141 2.021 . S
Co122 O146 2.062 . S
C123 N125 1.316 1_556 S
C123 N126 1.347 1_556 S
C123 H128 0.931 . S
C124 N125 1.375 . S
C124 C127 1.350 . S
C124 H129 0.930 . S
N125 Co120 2.057 . S
N125 C123 1.316 1_554 S
N125 C124 1.375 . S
N126 C123 1.347 1_554 S
N126 C127 1.373 . S
C127 C124 1.350 . S
C127 N126 1.373 . S
C127 H148 0.931 . S
H128 C123 0.931 . S
H129 C124 0.930 . S
C130 O137 1.259 . S
C130 O138 1.258 . S
N131 Co122 2.057 1_556 S
N131 C132 1.316 1_556 S
N131 C133 1.375 . S
C132 N131 1.316 1_554 S
C132 N134 1.347 . S
C132 H143 0.931 . S
C133 N131 1.375 . S
C133 C135 1.350 . S
C133 H142 0.930 . S
N134 C132 1.347 . S
N134 C135 1.373 1_554 S
C135 C133 1.350 . S
C135 N134 1.373 1_556 S
C135 H149 0.931 . S
C136 O139 1.256 . S
C136 O140 1.255 . S
O137 Co120 2.021 1_556 S
O137 C130 1.259 . S
O138 Co122 2.117 1_556 S
O138 C130 1.258 . S
O139 Co122 2.020 . S
O139 C136 1.256 . S
O140 Co120 2.062 . S
O140 C136 1.255 . S
O141 C121 1.259 . S
O141 Co122 2.021 . S
H142 C133 0.930 . S
H143 C132 0.931 . S
O144 Co120 2.117 . S
O144 C121 1.258 . S
O145 Co120 2.020 . S
O145 C147 1.256 . S
O146 Co122 2.062 . S
O146 C147 1.255 . S
C147 O145 1.256 . S
C147 O146 1.255 . S
H148 C127 0.931 . S
H149 C135 0.931 . S
Co150 N155 2.057 . S
Co150 O167 2.021 . S
Co150 O170 2.062 . S
Co150 O174 2.117 1_554 S
Co150 O175 2.020 . S
C151 O171 1.259 . S
C151 O174 1.258 . S
Co152 N161 2.057 . S
Co152 O168 2.117 . S
Co152 O169 2.020 . S
Co152 O171 2.021 1_554 S
Co152 O176 2.062 . S
C153 N155 1.316 . S
C153 N156 1.347 . S
C153 H158 0.931 . S
C154 N155 1.375 1_556 S
C154 C157 1.350 . S
C154 H159 0.930 . S
N155 Co150 2.057 . S
N155 C153 1.316 . S
N155 C154 1.375 1_554 S
N156 C153 1.347 . S
N156 C157 1.373 1_554 S
C157 C154 1.350 . S
C157 N156 1.373 1_556 S
C157 H178 0.931 . S
H158 C153 0.931 . S
H159 C154 0.930 . S
C160 O167 1.259 . S
C160 O168 1.258 . S
N161 Co152 2.057 . S
N161 C162 1.316 . S
N161 C163 1.375 . S
C162 N161 1.316 . S
C162 N164 1.347 . S
C162 H173 0.931 1_554 S
C163 N161 1.375 . S
C163 C165 1.350 . S
C163 H172 0.930 . S
N164 C162 1.347 . S
N164 C165 1.373 . S
C165 C163 1.350 . S
C165 N164 1.373 . S
C165 H179 0.931 . S
C166 O169 1.256 . S
C166 O170 1.255 . S
O167 Co150 2.021 . S
O167 C160 1.259 . S
O168 Co152 2.117 . S
O168 C160 1.258 . S
O169 Co152 2.020 . S
O169 C166 1.256 . S
O170 Co150 2.062 . S
O170 C166 1.255 . S
O171 C151 1.259 . S
O171 Co152 2.021 1_556 S
H172 C163 0.930 . S
H173 C162 0.931 1_556 S
O174 Co150 2.117 1_556 S
O174 C151 1.258 . S
O175 Co150 2.020 . S
O175 C177 1.256 . S
O176 Co152 2.062 . S
O176 C177 1.255 . S
C177 O175 1.256 . S
C177 O176 1.255 . S
H178 C157 0.931 . S
H179 C165 0.931 . S
C180 C181 1.391 . S
C180 C182 1.394 . S
C180 H196 0.931 . S
C181 C180 1.391 . S
C181 C185 1.376 . S
C182 C180 1.394 . S
C182 C183 1.369 . S
C182 C186 1.531 . S
C183 C182 1.369 . S
C183 C184 1.410 1_554 S
C183 C191 1.503 . S
C184 C183 1.410 1_556 S
C184 C185 1.392 1_556 S
C184 C187 1.511 . S
C185 C181 1.376 . S
C185 C184 1.392 1_554 S
C185 H197 0.929 1_554 S
C186 C182 1.531 . S
C186 H198 0.960 . S
C186 H199 0.962 . S
C186 H200 0.960 . S
C187 C184 1.511 . S
C187 H201 0.961 . S
C187 H202 0.961 . S
C187 H203 0.961 . S
C188 C189 1.370 . S
C188 C190 1.363 . S
C188 H204 0.931 . S
C189 C188 1.370 . S
C189 C193 1.408 1_554 S
C190 C188 1.363 . S
C190 C191 1.370 . S
C190 C194 1.524 . S
C191 C183 1.503 . S
C191 C190 1.370 . S
C191 C192 1.403 1_554 S
C192 C191 1.403 1_556 S
C192 C193 1.404 . S
C192 C195 1.539 . S
C193 C189 1.408 1_556 S
C193 C192 1.404 . S
C193 H205 0.930 . S
C194 C190 1.524 . S
C194 H206 0.956 . S
C194 H207 0.961 . S
C194 H208 0.961 . S
C195 C192 1.539 . S
C195 H209 0.958 . S
C195 H210 0.961 . S
C195 H211 0.960 . S
H196 C180 0.931 . S
H197 C185 0.929 1_556 S
H198 C186 0.960 . S
H199 C186 0.962 . S
H200 C186 0.960 . S
H201 C187 0.961 . S
H202 C187 0.961 . S
H203 C187 0.961 . S
H204 C188 0.931 . S
H205 C193 0.930 . S
H206 C194 0.956 . S
H207 C194 0.961 . S
H208 C194 0.961 . S
H209 C195 0.958 . S
H210 C195 0.961 . S
H211 C195 0.960 . S
C212 C213 1.391 . S
C212 C214 1.394 1_455 S
C212 H228 0.931 . S
C213 C212 1.391 . S
C213 C217 1.376 . S
C214 C212 1.394 1_655 S
C214 C215 1.369 . S
C214 C218 1.531 . S
C215 C214 1.369 . S
C215 C216 1.410 . S
C215 C223 1.503 . S
C216 C215 1.410 . S
C216 C217 1.392 1_655 S
C216 C219 1.511 . S
C217 C213 1.376 . S
C217 C216 1.392 1_455 S
C217 H229 0.929 . S
C218 C214 1.531 . S
C218 H230 0.960 . S
C218 H231 0.962 . S
C218 H232 0.960 . S
C219 C216 1.511 . S
C219 H233 0.961 1_655 S
C219 H234 0.961 . S
C219 H235 0.961 . S
C220 C221 1.370 1_556 S
C220 C222 1.363 . S
C220 H236 0.931 . S
C221 C220 1.370 1_554 S
C221 C225 1.408 . S
C222 C220 1.363 . S
C222 C223 1.370 1_556 S
C222 C226 1.524 . S
C223 C215 1.503 . S
C223 C222 1.370 1_554 S
C223 C224 1.403 . S
C224 C223 1.403 . S
C224 C225 1.404 . S
C224 C227 1.539 . S
C225 C221 1.408 . S
C225 C224 1.404 . S
C225 H237 0.930 . S
C226 C222 1.524 . S
C226 H238 0.956 . S
C226 H239 0.961 . S
C226 H240 0.961 . S
C227 C224 1.539 . S
C227 H241 0.958 . S
C227 H242 0.961 . S
C227 H243 0.960 . S
H228 C212 0.931 . S
H229 C217 0.929 . S
H230 C218 0.960 . S
H231 C218 0.962 . S
H232 C218 0.960 . S
H233 C219 0.961 1_455 S
H234 C219 0.961 . S
H235 C219 0.961 . S
H236 C220 0.931 . S
H237 C225 0.930 . S
H238 C226 0.956 . S
H239 C226 0.961 . S
H240 C226 0.961 . S
H241 C227 0.958 . S
H242 C227 0.961 . S
H243 C227 0.960 . S
C244 C245 1.391 1_556 S
C244 C246 1.394 . S
C244 H260 0.931 . S
C245 C244 1.391 1_554 S
C245 C249 1.376 . S
C246 C244 1.394 . S
C246 C247 1.369 1_556 S
C246 C250 1.531 . S
C247 C246 1.369 1_554 S
C247 C248 1.410 . S
C247 C255 1.503 1_545 S
C248 C247 1.410 . S
C248 C249 1.392 . S
C248 C251 1.511 . S
C249 C245 1.376 . S
C249 C248 1.392 . S
C249 H261 0.929 . S
C250 C246 1.531 . S
C250 H262 0.960 . S
C250 H263 0.962 . S
C250 H264 0.960 . S
C251 C248 1.511 . S
C251 H265 0.961 . S
C251 H266 0.961 1_545 S
C251 H267 0.961 . S
C252 C253 1.370 1_556 S
C252 C254 1.363 . S
C252 H268 0.931 . S
C253 C252 1.370 1_554 S
C253 C257 1.408 . S
C254 C252 1.363 . S
C254 C255 1.370 1_556 S
C254 C258 1.524 . S
C255 C247 1.503 1_565 S
C255 C254 1.370 1_554 S
C255 C256 1.403 . S
C256 C255 1.403 . S
C256 C257 1.404 . S
C256 C259 1.539 . S
C257 C253 1.408 . S
C257 C256 1.404 . S
C257 H269 0.930 . S
C258 C254 1.524 . S
C258 H270 0.956 1_565 S
C258 H271 0.961 1_565 S
C258 H272 0.961 . S
C259 C256 1.539 . S
C259 H273 0.958 . S
C259 H274 0.961 . S
C259 H275 0.960 1_565 S
H260 C244 0.931 . S
H261 C249 0.929 . S
H262 C250 0.960 . S
H263 C250 0.962 . S
H264 C250 0.960 . S
H265 C251 0.961 . S
H266 C251 0.961 1_565 S
H267 C251 0.961 . S
H268 C252 0.931 . S
H269 C257 0.930 . S
H270 C258 0.956 1_545 S
H271 C258 0.961 1_545 S
H272 C258 0.961 . S
H273 C259 0.958 . S
H274 C259 0.961 . S
H275 C259 0.960 1_545 S
C276 C277 1.391 . S
C276 C278 1.394 . S
C276 H292 0.931 . S
C277 C276 1.391 . S
C277 C281 1.376 1_554 S
C278 C276 1.394 . S
C278 C279 1.369 . S
C278 C282 1.531 . S
C279 C278 1.369 . S
C279 C280 1.410 1_554 S
C279 C287 1.503 . S
C280 C279 1.410 1_556 S
C280 C281 1.392 . S
C280 C283 1.511 . S
C281 C277 1.376 1_556 S
C281 C280 1.392 . S
C281 H293 0.929 . S
C282 C278 1.531 . S
C282 H294 0.960 . S
C282 H295 0.962 . S
C282 H296 0.960 . S
C283 C280 1.511 . S
C283 H297 0.961 . S
C283 H298 0.961 . S
C283 H299 0.961 . S
C284 C285 1.370 1_556 S
C284 C286 1.363 . S
C284 H300 0.931 . S
C285 C284 1.370 1_554 S
C285 C289 1.408 . S
C286 C284 1.363 . S
C286 C287 1.370 1_556 S
C286 C290 1.524 . S
C287 C279 1.503 . S
C287 C286 1.370 1_554 S
C287 C288 1.403 . S
C288 C287 1.403 . S
C288 C289 1.404 . S
C288 C291 1.539 . S
C289 C285 1.408 . S
C289 C288 1.404 . S
C289 H301 0.930 . S
C290 C286 1.524 . S
C290 H302 0.956 . S
C290 H303 0.961 . S
C290 H304 0.961 . S
C291 C288 1.539 . S
C291 H305 0.958 . S
C291 H306 0.961 . S
C291 H307 0.960 . S
H292 C276 0.931 . S
H293 C281 0.929 . S
H294 C282 0.960 . S
H295 C282 0.962 . S
H296 C282 0.960 . S
H297 C283 0.961 . S
H298 C283 0.961 . S
H299 C283 0.961 . S
H300 C284 0.931 . S
H301 C289 0.930 . S
H302 C290 0.956 . S
H303 C290 0.961 . S
H304 C290 0.961 . S
H305 C291 0.958 . S
H306 C291 0.961 . S
H307 C291 0.960 . S
C308 C309 1.391 1_556 S
C308 C310 1.394 . S
C308 H324 0.931 . S
C309 C308 1.391 1_554 S
C309 C313 1.376 . S
C310 C308 1.394 . S
C310 C311 1.369 1_556 S
C310 C314 1.531 . S
C311 C310 1.369 1_554 S
C311 C312 1.410 . S
C311 C319 1.503 . S
C312 C311 1.410 . S
C312 C313 1.392 . S
C312 C315 1.511 . S
C313 C309 1.376 . S
C313 C312 1.392 . S
C313 H325 0.929 . S
C314 C310 1.531 . S
C314 H326 0.960 . S
C314 H327 0.962 . S
C314 H328 0.960 . S
C315 C312 1.511 . S
C315 H329 0.961 . S
C315 H330 0.961 . S
C315 H331 0.961 . S
C316 C317 1.370 . S
C316 C318 1.363 1_655 S
C316 H332 0.931 . S
C317 C316 1.370 . S
C317 C321 1.408 1_554 S
C318 C316 1.363 1_455 S
C318 C319 1.370 . S
C318 C322 1.524 . S
C319 C311 1.503 . S
C319 C318 1.370 . S
C319 C320 1.401 1_554 S
C320 C319 1.401 1_556 S
C320 C321 1.407 1_455 S
C320 C323 1.538 . S
C321 C317 1.408 1_556 S
C321 C320 1.407 1_655 S
C321 H333 0.930 . S
C322 C318 1.524 . S
C322 H334 0.956 . S
C322 H335 0.961 . S
C322 H336 0.961 . S
C323 C320 1.538 . S
C323 H337 0.958 . S
C323 H338 0.961 1_455 S
C323 H339 0.960 . S
H324 C308 0.931 . S
H325 C313 0.929 . S
H326 C314 0.960 . S
H327 C314 0.962 . S
H328 C314 0.960 . S
H329 C315 0.961 . S
H330 C315 0.961 . S
H331 C315 0.961 . S
H332 C316 0.931 . S
H333 C321 0.930 . S
H334 C322 0.956 . S
H335 C322 0.961 . S
H336 C322 0.961 . S
H337 C323 0.958 . S
H338 C323 0.961 1_655 S
H339 C323 0.960 . S
C340 C341 1.391 1_556 S
C340 C342 1.394 . S
C340 H356 0.931 . S
C341 C340 1.391 1_554 S
C341 C345 1.376 . S
C342 C340 1.394 . S
C342 C343 1.369 1_556 S
C342 C346 1.531 . S
C343 C342 1.369 1_554 S
C343 C344 1.410 . S
C343 C351 1.503 1_565 S
C344 C343 1.410 . S
C344 C345 1.392 . S
C344 C347 1.511 . S
C345 C341 1.376 . S
C345 C344 1.392 . S
C345 H357 0.929 . S
C346 C342 1.531 . S
C346 H358 0.960 . S
C346 H359 0.962 . S
C346 H360 0.960 . S
C347 C344 1.511 . S
C347 H361 0.961 . S
C347 H362 0.961 . S
C347 H363 0.961 . S
C348 C349 1.370 . S
C348 C350 1.363 . S
C348 H364 0.931 1_554 S
C349 C348 1.370 . S
C349 C353 1.408 . S
C350 C348 1.363 . S
C350 C351 1.370 . S
C350 C354 1.524 1_554 S
C351 C343 1.503 1_545 S
C351 C350 1.370 . S
C351 C352 1.403 . S
C352 C351 1.403 . S
C352 C353 1.404 . S
C352 C355 1.539 . S
C353 C349 1.408 . S
C353 C352 1.404 . S
C353 H365 0.930 . S
C354 C350 1.524 1_556 S
C354 H366 0.957 . S
C354 H367 0.961 1_546 S
C354 H368 0.961 . S
C355 C352 1.539 . S
C355 H369 0.958 . S
C355 H370 0.961 . S
C355 H371 0.960 1_545 S
H356 C340 0.931 . S
H357 C345 0.929 . S
H358 C346 0.960 . S
H359 C346 0.962 . S
H360 C346 0.960 . S
H361 C347 0.961 . S
H362 C347 0.961 . S
H363 C347 0.961 . S
H364 C348 0.931 1_556 S
H365 C353 0.930 . S
H366 C354 0.957 . S
H367 C354 0.961 1_564 S
H368 C354 0.961 . S
H369 C355 0.958 . S
H370 C355 0.961 . S
H371 C355 0.960 1_565 S
C372 C373 1.391 . S
C372 C374 1.394 . S
C372 H388 0.931 . S
C373 C372 1.391 . S
C373 C377 1.376 1_556 S
C374 C372 1.394 . S
C374 C375 1.369 . S
C374 C378 1.531 . S
C375 C374 1.369 . S
C375 C376 1.410 1_556 S
C375 C383 1.503 . S
C376 C375 1.410 1_554 S
C376 C377 1.392 . S
C376 C379 1.511 . S
C377 C373 1.376 1_554 S
C377 C376 1.392 . S
C377 H389 0.929 . S
C378 C374 1.531 . S
C378 H390 0.960 . S
C378 H391 0.962 . S
C378 H392 0.960 . S
C379 C376 1.511 . S
C379 H393 0.961 . S
C379 H394 0.961 . S
C379 H395 0.961 . S
C380 C381 1.370 . S
C380 C382 1.363 . S
C380 H396 0.931 . S
C381 C380 1.370 . S
C381 C385 1.408 1_554 S
C382 C380 1.363 . S
C382 C383 1.371 1_554 S
C382 C386 1.524 . S
C383 C375 1.503 . S
C383 C382 1.371 1_556 S
C383 C384 1.402 . S
C384 C383 1.402 . S
C384 C385 1.404 . S
C384 C387 1.539 . S
C385 C381 1.408 1_556 S
C385 C384 1.404 . S
C385 H397 0.930 . S
C386 C382 1.524 . S
C386 H398 0.956 1_554 S
C386 H399 0.961 . S
C386 H400 0.961 . S
C387 C384 1.539 . S
C387 H401 0.958 . S
C387 H402 0.961 . S
C387 H403 0.960 . S
H388 C372 0.931 . S
H389 C377 0.929 . S
H390 C378 0.960 . S
H391 C378 0.962 . S
H392 C378 0.960 . S
H393 C379 0.961 . S
H394 C379 0.961 . S
H395 C379 0.961 . S
H396 C380 0.931 . S
H397 C385 0.930 . S
H398 C386 0.956 1_556 S
H399 C386 0.961 . S
H400 C386 0.961 . S
H401 C387 0.958 . S
H402 C387 0.961 . S
H403 C387 0.960 . S
C404 C405 1.391 1_556 S
C404 C406 1.394 . S
C404 H420 0.931 . S
C405 C404 1.391 1_554 S
C405 C409 1.376 . S
C406 C404 1.394 . S
C406 C407 1.369 1_556 S
C406 C410 1.531 . S
C407 C406 1.369 1_554 S
C407 C408 1.410 . S
C407 C415 1.503 . S
C408 C407 1.410 . S
C408 C409 1.392 . S
C408 C411 1.511 . S
C409 C405 1.376 . S
C409 C408 1.392 . S
C409 H421 0.929 . S
C410 C406 1.531 . S
C410 H422 0.960 . S
C410 H423 0.962 . S
C410 H424 0.960 . S
C411 C408 1.511 . S
C411 H425 0.961 . S
C411 H426 0.961 . S
C411 H427 0.961 . S
C412 C413 1.370 . S
C412 C414 1.363 . S
C412 H428 0.931 . S
C413 C412 1.370 . S
C413 C417 1.408 . S
C414 C412 1.363 . S
C414 C415 1.370 . S
C414 C418 1.528 . S
C415 C407 1.503 . S
C415 C414 1.370 . S
C415 C416 1.403 . S
C416 C415 1.403 . S
C416 C417 1.404 . S
C416 C419 1.539 . S
C417 C413 1.408 . S
C417 C416 1.404 . S
C417 H429 0.930 . S
C418 C414 1.528 . S
C418 H430 0.945 1_554 S
C418 H431 0.971 . S
C418 H432 0.958 1_554 S
C419 C416 1.539 . S
C419 H433 0.958 . S
C419 H434 0.961 . S
C419 H435 0.960 . S
H420 C404 0.931 . S
H421 C409 0.929 . S
H422 C410 0.960 . S
H423 C410 0.962 . S
H424 C410 0.960 . S
H425 C411 0.961 . S
H426 C411 0.961 . S
H427 C411 0.961 . S
H428 C412 0.931 . S
H429 C417 0.930 . S
H430 C418 0.945 1_556 S
H431 C418 0.971 . S
H432 C418 0.958 1_556 S
H433 C419 0.958 . S
H434 C419 0.961 . S
H435 C419 0.960 . S
C436 C437 1.385 1_556 S
C436 C438 1.394 . S
C436 H452 0.931 . S
C437 C436 1.385 1_554 S
C437 C441 1.382 . S
C438 C436 1.394 . S
C438 C439 1.369 . S
C438 C442 1.531 . S
C439 C438 1.369 . S
C439 C440 1.410 1_556 S
C439 C447 1.504 . S
C440 C439 1.410 1_554 S
C440 C441 1.392 . S
C440 C443 1.511 . S
C441 C437 1.382 . S
C441 C440 1.392 . S
C441 H453 0.929 . S
C442 C438 1.531 . S
C442 H454 0.960 . S
C442 H455 0.962 . S
C442 H456 0.960 . S
C443 C440 1.511 . S
C443 H457 0.961 . S
C443 H458 0.961 . S
C443 H459 0.961 . S
C444 C445 1.370 . S
C444 C446 1.363 . S
C444 H460 0.931 . S
C445 C444 1.370 . S
C445 C449 1.408 1_554 S
C446 C444 1.363 . S
C446 C447 1.366 1_554 S
C446 C450 1.524 . S
C447 C439 1.504 . S
C447 C446 1.366 1_556 S
C447 C448 1.407 . S
C448 C447 1.407 . S
C448 C449 1.404 . S
C448 C451 1.539 . S
C449 C445 1.408 1_556 S
C449 C448 1.404 . S
C449 H461 0.930 . S
C450 C446 1.524 . S
C450 H462 0.956 . S
C450 H463 0.961 . S
C450 H464 0.961 . S
C451 C448 1.539 . S
C451 H465 0.958 . S
C451 H466 0.961 . S
C451 H467 0.960 . S
H452 C436 0.931 . S
H453 C441 0.929 . S
H454 C442 0.960 . S
H455 C442 0.962 . S
H456 C442 0.960 . S
H457 C443 0.961 . S
H458 C443 0.961 . S
H459 C443 0.961 . S
H460 C444 0.931 . S
H461 C449 0.930 . S
H462 C450 0.956 . S
H463 C450 0.961 . S
H464 C450 0.961 . S
H465 C451 0.958 . S
H466 C451 0.961 . S
H467 C451 0.960 . S
C468 C469 1.391 1_556 S
C468 C470 1.394 . S
C468 H484 0.931 . S
C469 C468 1.391 1_554 S
C469 C473 1.376 . S
C470 C468 1.394 . S
C470 C471 1.369 1_556 S
C470 C474 1.531 . S
C471 C470 1.369 1_554 S
C471 C472 1.410 . S
C471 C479 1.503 . S
C472 C471 1.410 . S
C472 C473 1.392 . S
C472 C475 1.511 . S
C473 C469 1.376 . S
C473 C472 1.392 . S
C473 H485 0.929 . S
C474 C470 1.531 . S
C474 H486 0.960 . S
C474 H487 0.962 . S
C474 H488 0.960 . S
C475 C472 1.511 . S
C475 H489 0.961 . S
C475 H490 0.961 . S
C475 H491 0.961 . S
C476 C477 1.370 . S
C476 C478 1.363 . S
C476 H492 0.931 . S
C477 C476 1.370 . S
C477 C481 1.408 1_554 S
C478 C476 1.363 . S
C478 C479 1.370 . S
C478 C482 1.524 . S
C479 C471 1.503 . S
C479 C478 1.370 . S
C479 C480 1.403 1_554 S
C480 C479 1.403 1_556 S
C480 C481 1.404 . S
C480 C483 1.539 . S
C481 C477 1.408 1_556 S
C481 C480 1.404 . S
C481 H493 0.930 . S
C482 C478 1.524 . S
C482 H494 0.956 . S
C482 H495 0.961 . S
C482 H496 0.961 . S
C483 C480 1.539 . S
C483 H497 0.958 . S
C483 H498 0.961 . S
C483 H499 0.960 . S
H484 C468 0.931 . S
H485 C473 0.929 . S
H486 C474 0.960 . S
H487 C474 0.962 . S
H488 C474 0.960 . S
H489 C475 0.961 . S
H490 C475 0.961 . S
H491 C475 0.961 . S
H492 C476 0.931 . S
H493 C481 0.930 . S
H494 C482 0.956 . S
H495 C482 0.961 . S
H496 C482 0.961 . S
H497 C483 0.958 . S
H498 C483 0.961 . S
H499 C483 0.960 . S
C500 C501 1.391 1_556 S
C500 C502 1.394 . S
C500 H516 0.931 . S
C501 C500 1.391 1_554 S
C501 C505 1.376 . S
C502 C500 1.394 . S
C502 C503 1.369 . S
C502 C506 1.531 . S
C503 C502 1.369 . S
C503 C504 1.410 1_556 S
C503 C511 1.503 . S
C504 C503 1.410 1_554 S
C504 C505 1.392 . S
C504 C507 1.511 . S
C505 C501 1.376 . S
C505 C504 1.392 . S
C505 H517 0.929 . S
C506 C502 1.531 . S
C506 H518 0.960 . S
C506 H519 0.962 . S
C506 H520 0.960 . S
C507 C504 1.511 . S
C507 H521 0.961 . S
C507 H522 0.961 . S
C507 H523 0.961 . S
C508 C509 1.370 . S
C508 C510 1.363 . S
C508 H524 0.931 . S
C509 C508 1.370 . S
C509 C513 1.408 1_554 S
C510 C508 1.363 . S
C510 C511 1.370 1_554 S
C510 C514 1.524 . S
C511 C503 1.503 . S
C511 C510 1.370 1_556 S
C511 C512 1.403 . S
C512 C511 1.403 . S
C512 C513 1.404 . S
C512 C515 1.539 . S
C513 C509 1.408 1_556 S
C513 C512 1.404 . S
C513 H525 0.930 . S
C514 C510 1.524 . S
C514 H526 0.956 . S
C514 H527 0.961 . S
C514 H528 0.961 . S
C515 C512 1.539 . S
C515 H529 0.958 . S
C515 H530 0.961 . S
C515 H531 0.960 . S
H516 C500 0.931 . S
H517 C505 0.929 . S
H518 C506 0.960 . S
H519 C506 0.962 . S
H520 C506 0.960 . S
H521 C507 0.961 . S
H522 C507 0.961 . S
H523 C507 0.961 . S
H524 C508 0.931 . S
H525 C513 0.930 . S
H526 C514 0.956 . S
H527 C514 0.961 . S
H528 C514 0.961 . S
H529 C515 0.958 . S
H530 C515 0.961 . S
H531 C515 0.960 . S
C532 C533 1.391 1_556 S
C532 C534 1.394 . S
C532 H548 0.931 . S
C533 C532 1.391 1_554 S
C533 C537 1.376 . S
C534 C532 1.394 . S
C534 C535 1.369 1_556 S
C534 C538 1.531 . S
C535 C534 1.369 1_554 S
C535 C536 1.410 . S
C535 C543 1.503 . S
C536 C535 1.410 . S
C536 C537 1.392 . S
C536 C539 1.511 . S
C537 C533 1.376 . S
C537 C536 1.392 . S
C537 H549 0.929 . S
C538 C534 1.531 . S
C538 H550 0.960 . S
C538 H551 0.962 . S
C538 H552 0.960 . S
C539 C536 1.511 . S
C539 H553 0.961 . S
C539 H554 0.961 . S
C539 H555 0.961 . S
C540 C541 1.370 . S
C540 C542 1.363 . S
C540 H556 0.931 . S
C541 C540 1.370 . S
C541 C545 1.408 . S
C542 C540 1.363 . S
C542 C543 1.370 . S
C542 C546 1.524 . S
C543 C535 1.503 . S
C543 C542 1.370 . S
C543 C544 1.403 1_554 S
C544 C543 1.403 1_556 S
C544 C545 1.404 1_556 S
C544 C547 1.539 . S
C545 C541 1.408 . S
C545 C544 1.404 1_554 S
C545 H557 0.930 1_554 S
C546 C542 1.524 . S
C546 H558 0.956 . S
C546 H559 0.961 . S
C546 H560 0.961 . S
C547 C544 1.539 . S
C547 H561 0.958 . S
C547 H562 0.961 . S
C547 H563 0.960 . S
H548 C532 0.931 . S
H549 C537 0.929 . S
H550 C538 0.960 . S
H551 C538 0.962 . S
H552 C538 0.960 . S
H553 C539 0.961 . S
H554 C539 0.961 . S
H555 C539 0.961 . S
H556 C540 0.931 . S
H557 C545 0.930 1_556 S
H558 C546 0.956 . S
H559 C546 0.961 . S
H560 C546 0.961 . S
H561 C547 0.958 . S
H562 C547 0.961 . S
H563 C547 0.960 . S
C564 C565 1.391 . S
C564 C566 1.394 . S
C564 H580 0.931 . S
C565 C564 1.391 . S
C565 C569 1.376 . S
C566 C564 1.394 . S
C566 C567 1.369 . S
C566 C570 1.531 . S
C567 C566 1.369 . S
C567 C568 1.410 . S
C567 C575 1.503 . S
C568 C567 1.410 . S
C568 C569 1.392 . S
C568 C571 1.511 . S
C569 C565 1.376 . S
C569 C568 1.392 . S
C569 H581 0.929 . S
C570 C566 1.531 . S
C570 H582 0.960 . S
C570 H583 0.962 . S
C570 H584 0.960 . S
C571 C568 1.511 . S
C571 H585 0.961 . S
C571 H586 0.961 . S
C571 H587 0.961 . S
C572 C573 1.370 . S
C572 C574 1.363 . S
C572 H588 0.931 . S
C573 C572 1.370 . S
C573 C577 1.408 . S
C574 C572 1.363 . S
C574 C575 1.370 . S
C574 C578 1.524 . S
C575 C567 1.503 . S
C575 C574 1.370 . S
C575 C576 1.403 . S
C576 C575 1.403 . S
C576 C577 1.404 . S
C576 C579 1.539 . S
C577 C573 1.408 . S
C577 C576 1.404 . S
C577 H589 0.930 . S
C578 C574 1.524 . S
C578 H590 0.956 . S
C578 H591 0.961 . S
C578 H592 0.961 . S
C579 C576 1.539 . S
C579 H593 0.958 . S
C579 H594 0.961 . S
C579 H595 0.960 . S
H580 C564 0.931 . S
H581 C569 0.929 . S
H582 C570 0.960 . S
H583 C570 0.962 . S
H584 C570 0.960 . S
H585 C571 0.961 . S
H586 C571 0.961 . S
H587 C571 0.961 . S
H588 C572 0.931 . S
H589 C577 0.930 . S
H590 C578 0.956 . S
H591 C578 0.961 . S
H592 C578 0.961 . S
H593 C579 0.958 . S
H594 C579 0.961 . S
H595 C579 0.960 . S
C596 C597 1.391 . S
C596 C598 1.394 . S
C596 H612 0.931 . S
C597 C596 1.391 . S
C597 C601 1.376 . S
C598 C596 1.394 . S
C598 C599 1.369 . S
C598 C602 1.531 . S
C599 C598 1.369 . S
C599 C600 1.410 . S
C599 C607 1.503 . S
C600 C599 1.410 . S
C600 C601 1.392 . S
C600 C603 1.511 . S
C601 C597 1.376 . S
C601 C600 1.392 . S
C601 H613 0.929 . S
C602 C598 1.531 . S
C602 H614 0.960 . S
C602 H615 0.962 . S
C602 H616 0.960 . S
C603 C600 1.511 . S
C603 H617 0.961 . S
C603 H618 0.961 . S
C603 H619 0.961 . S
C604 C605 1.370 . S
C604 C606 1.363 . S
C604 H620 0.931 . S
C605 C604 1.370 . S
C605 C609 1.408 . S
C606 C604 1.363 . S
C606 C607 1.370 . S
C606 C610 1.524 . S
C607 C599 1.503 . S
C607 C606 1.370 . S
C607 C608 1.403 . S
C608 C607 1.403 . S
C608 C609 1.404 . S
C608 C611 1.539 . S
C609 C605 1.408 . S
C609 C608 1.404 . S
C609 H621 0.930 . S
C610 C606 1.524 . S
C610 H622 0.956 . S
C610 H623 0.961 . S
C610 H624 0.961 . S
C611 C608 1.539 . S
C611 H625 0.958 . S
C611 H626 0.961 . S
C611 H627 0.960 . S
H612 C596 0.931 . S
H613 C601 0.929 . S
H614 C602 0.960 . S
H615 C602 0.962 . S
H616 C602 0.960 . S
H617 C603 0.961 . S
H618 C603 0.961 . S
H619 C603 0.961 . S
H620 C604 0.931 . S
H621 C609 0.930 . S
H622 C610 0.956 . S
H623 C610 0.961 . S
H624 C610 0.961 . S
H625 C611 0.958 . S
H626 C611 0.961 . S
H627 C611 0.960 . S
C628 C629 1.391 . S
C628 C630 1.394 . S
C628 H644 0.931 . S
C629 C628 1.391 . S
C629 C633 1.376 . S
C630 C628 1.394 . S
C630 C631 1.369 . S
C630 C634 1.531 . S
C631 C630 1.369 . S
C631 C632 1.410 . S
C631 C639 1.503 . S
C632 C631 1.410 . S
C632 C633 1.392 . S
C632 C635 1.511 . S
C633 C629 1.376 . S
C633 C632 1.392 . S
C633 H645 0.929 . S
C634 C630 1.531 . S
C634 H646 0.960 . S
C634 H647 0.962 . S
C634 H648 0.960 . S
C635 C632 1.511 . S
C635 H649 0.961 . S
C635 H650 0.961 . S
C635 H651 0.961 . S
C636 C637 1.370 . S
C636 C638 1.363 . S
C636 H652 0.931 . S
C637 C636 1.370 . S
C637 C641 1.408 . S
C638 C636 1.363 . S
C638 C639 1.370 . S
C638 C642 1.524 . S
C639 C631 1.503 . S
C639 C638 1.370 . S
C639 C640 1.403 . S
C640 C639 1.403 . S
C640 C641 1.404 . S
C640 C643 1.539 . S
C641 C637 1.408 . S
C641 C640 1.404 . S
C641 H653 0.930 . S
C642 C638 1.524 . S
C642 H654 0.956 . S
C642 H655 0.961 . S
C642 H656 0.961 . S
C643 C640 1.539 . S
C643 H657 0.958 . S
C643 H658 0.961 . S
C643 H659 0.960 . S
H644 C628 0.931 . S
H645 C633 0.929 . S
H646 C634 0.960 . S
H647 C634 0.962 . S
H648 C634 0.960 . S
H649 C635 0.961 . S
H650 C635 0.961 . S
H651 C635 0.961 . S
H652 C636 0.931 . S
H653 C641 0.930 . S
H654 C642 0.956 . S
H655 C642 0.961 . S
H656 C642 0.961 . S
H657 C643 0.958 . S
H658 C643 0.961 . S
H659 C643 0.960 . S
C660 C661 1.391 . S
C660 C662 1.394 . S
C660 H676 0.931 . S
C661 C660 1.391 . S
C661 C665 1.376 . S
C662 C660 1.394 . S
C662 C663 1.369 . S
C662 C666 1.531 . S
C663 C662 1.369 . S
C663 C664 1.410 . S
C663 C671 1.503 . S
C664 C663 1.410 . S
C664 C665 1.392 . S
C664 C667 1.511 . S
C665 C661 1.376 . S
C665 C664 1.392 . S
C665 H677 0.929 . S
C666 C662 1.531 . S
C666 H678 0.960 . S
C666 H679 0.962 . S
C666 H680 0.960 . S
C667 C664 1.511 . S
C667 H681 0.961 . S
C667 H682 0.961 . S
C667 H683 0.961 . S
C668 C669 1.370 . S
C668 C670 1.363 . S
C668 H684 0.931 . S
C669 C668 1.370 . S
C669 C673 1.408 . S
C670 C668 1.363 . S
C670 C671 1.370 . S
C670 C674 1.524 . S
C671 C663 1.503 . S
C671 C670 1.370 . S
C671 C672 1.403 . S
C672 C671 1.403 . S
C672 C673 1.404 . S
C672 C675 1.539 . S
C673 C669 1.408 . S
C673 C672 1.404 . S
C673 H685 0.930 . S
C674 C670 1.524 . S
C674 H686 0.956 . S
C674 H687 0.961 . S
C674 H688 0.961 . S
C675 C672 1.539 . S
C675 H689 0.958 . S
C675 H690 0.961 . S
C675 H691 0.960 . S
H676 C660 0.931 . S
H677 C665 0.929 . S
H678 C666 0.960 . S
H679 C666 0.962 . S
H680 C666 0.960 . S
H681 C667 0.961 . S
H682 C667 0.961 . S
H683 C667 0.961 . S
H684 C668 0.931 . S
H685 C673 0.930 . S
H686 C674 0.956 . S
H687 C674 0.961 . S
H688 C674 0.961 . S
H689 C675 0.958 . S
H690 C675 0.961 . S
H691 C675 0.960 . S
C692 C693 1.391 . S
C692 C694 1.394 . S
C692 H708 0.931 . S
C693 C692 1.391 . S
C693 C697 1.376 . S
C694 C692 1.394 . S
C694 C695 1.369 . S
C694 C698 1.531 . S
C695 C694 1.369 . S
C695 C696 1.410 . S
C695 C703 1.503 . S
C696 C695 1.410 . S
C696 C697 1.392 . S
C696 C699 1.511 . S
C697 C693 1.376 . S
C697 C696 1.392 . S
C697 H709 0.929 . S
C698 C694 1.531 . S
C698 H710 0.960 . S
C698 H711 0.962 . S
C698 H712 0.960 . S
C699 C696 1.511 . S
C699 H713 0.961 . S
C699 H714 0.961 . S
C699 H715 0.961 . S
C700 C701 1.370 . S
C700 C702 1.363 . S
C700 H716 0.931 . S
C701 C700 1.370 . S
C701 C705 1.408 . S
C702 C700 1.363 . S
C702 C703 1.370 . S
C702 C706 1.524 . S
C703 C695 1.503 . S
C703 C702 1.370 . S
C703 C704 1.403 . S
C704 C703 1.403 . S
C704 C705 1.404 . S
C704 C707 1.539 . S
C705 C701 1.408 . S
C705 C704 1.404 . S
C705 H717 0.930 . S
C706 C702 1.524 . S
C706 H718 0.956 . S
C706 H719 0.961 . S
C706 H720 0.961 . S
C707 C704 1.539 . S
C707 H721 0.958 . S
C707 H722 0.961 . S
C707 H723 0.960 . S
H708 C692 0.931 . S
H709 C697 0.929 . S
H710 C698 0.960 . S
H711 C698 0.962 . S
H712 C698 0.960 . S
H713 C699 0.961 . S
H714 C699 0.961 . S
H715 C699 0.961 . S
H716 C700 0.931 . S
H717 C705 0.930 . S
H718 C706 0.956 . S
H719 C706 0.961 . S
H720 C706 0.961 . S
H721 C707 0.958 . S
H722 C707 0.961 . S
H723 C707 0.960 . S
C724 C725 1.391 . S
C724 C726 1.394 . S
C724 H740 0.931 . S
C725 C724 1.391 . S
C725 C729 1.376 . S
C726 C724 1.394 . S
C726 C727 1.369 . S
C726 C730 1.531 . S
C727 C726 1.369 . S
C727 C728 1.410 . S
C727 C735 1.503 . S
C728 C727 1.410 . S
C728 C729 1.392 . S
C728 C731 1.511 . S
C729 C725 1.376 . S
C729 C728 1.392 . S
C729 H741 0.929 . S
C730 C726 1.531 . S
C730 H742 0.960 . S
C730 H743 0.962 . S
C730 H744 0.960 . S
C731 C728 1.511 . S
C731 H745 0.961 . S
C731 H746 0.961 . S
C731 H747 0.961 . S
C732 C733 1.370 . S
C732 C734 1.363 . S
C732 H748 0.931 . S
C733 C732 1.370 . S
C733 C737 1.408 . S
C734 C732 1.363 . S
C734 C735 1.370 . S
C734 C738 1.524 . S
C735 C727 1.503 . S
C735 C734 1.370 . S
C735 C736 1.403 . S
C736 C735 1.403 . S
C736 C737 1.404 . S
C736 C739 1.539 . S
C737 C733 1.408 . S
C737 C736 1.404 . S
C737 H749 0.930 . S
C738 C734 1.524 . S
C738 H750 0.956 . S
C738 H751 0.961 . S
C738 H752 0.961 . S
C739 C736 1.539 . S
C739 H753 0.958 . S
C739 H754 0.961 . S
C739 H755 0.960 . S
H740 C724 0.931 . S
H741 C729 0.929 . S
H742 C730 0.960 . S
H743 C730 0.962 . S
H744 C730 0.960 . S
H745 C731 0.961 . S
H746 C731 0.961 . S
H747 C731 0.961 . S
H748 C732 0.931 . S
H749 C737 0.930 . S
H750 C738 0.956 . S
H751 C738 0.961 . S
H752 C738 0.961 . S
H753 C739 0.958 . S
H754 C739 0.961 . S
H755 C739 0.960 . S
C181 C166 0.947 . S
C189 C27 0.950 . S
C213 N14 1.537 . S
C221 C46 1.688 . S
C245 N36 1.642 . S
C253 N74 1.587 . S
C277 C106 0.986 . S
C285 C87 0.974 . S
C309 C147 1.682 . S
C317 N96 1.512 . S
C341 N134 1.663 . S
C349 N156 1.600 . S
C373 N126 1.495 1_556 S
C381 C16 1.497 . S
C405 C177 1.899 . S
C413 C57 1.923 . S
C437 N66 1.231 1_554 S
C445 N6 1.259 . S
C469 C117 1.512 . S
C477 N44 1.472 . S
C501 C136 1.918 . S
C509 C76 1.916 . S
C533 N104 1.226 . S
C541 N164 1.261 . S
C565 C10 1.497 . S
C573 C1 1.489 . S
C597 C40 1.486 . S
C605 C31 1.499 . S
C629 C61 1.499 . S
C637 C70 1.491 . S
C661 C100 1.479 . S
C669 C91 1.497 . S
C693 C121 1.499 . S
C701 C130 1.494 . S
C725 C151 1.493 . S
C733 C160 1.494 . S
