# Generated by pormake.
# Topology uov, (4)-cn, num edge types: 1
# Building blocks:
#     Node 0, Type 0, BuildingBlock: CEKHIL_clean_sbu_0, # of connection points: 4
#     Node 1, Type 0, BuildingBlock: CEKHIL_clean_sbu_0, # of connection points: 4
#     Node 2, Type 0, BuildingBlock: CEKHIL_clean_sbu_0, # of connection points: 4
#     Node 3, Type 0, BuildingBlock: CEKHIL_clean_sbu_0, # of connection points: 4
#     Node 4, Type 0, BuildingBlock: CEKHIL_clean_sbu_0, # of connection points: 4
#     Node 5, Type 0, BuildingBlock: CEKHIL_clean_sbu_0, # of connection points: 4
#     Node 6, Type 0, BuildingBlock: CEKHIL_clean_sbu_0, # of connection points: 4
#     Node 7, Type 0, BuildingBlock: CEKHIL_clean_sbu_0, # of connection points: 4
#     Edge 8, Type (0, 0), BuildingBlock: UVAHIK_clean_linker_0, # of connection points: 2
#     Edge 9, Type (0, 0), BuildingBlock: UVAHIK_clean_linker_0, # of connection points: 2
#     Edge 10, Type (0, 0), BuildingBlock: UVAHIK_clean_linker_0, # of connection points: 2
#     Edge 11, Type (0, 0), BuildingBlock: UVAHIK_clean_linker_0, # of connection points: 2
#     Edge 12, Type (0, 0), BuildingBlock: UVAHIK_clean_linker_0, # of connection points: 2
#     Edge 13, Type (0, 0), BuildingBlock: UVAHIK_clean_linker_0, # of connection points: 2
#     Edge 14, Type (0, 0), BuildingBlock: UVAHIK_clean_linker_0, # of connection points: 2
#     Edge 15, Type (0, 0), BuildingBlock: UVAHIK_clean_linker_0, # of connection points: 2
#     Edge 16, Type (0, 0), BuildingBlock: UVAHIK_clean_linker_0, # of connection points: 2
#     Edge 17, Type (0, 0), BuildingBlock: UVAHIK_clean_linker_0, # of connection points: 2
#     Edge 18, Type (0, 0), BuildingBlock: UVAHIK_clean_linker_0, # of connection points: 2
#     Edge 19, Type (0, 0), BuildingBlock: UVAHIK_clean_linker_0, # of connection points: 2
#     Edge 20, Type (0, 0), BuildingBlock: UVAHIK_clean_linker_0, # of connection points: 2
#     Edge 21, Type (0, 0), BuildingBlock: UVAHIK_clean_linker_0, # of connection points: 2
#     Edge 22, Type (0, 0), BuildingBlock: UVAHIK_clean_linker_0, # of connection points: 2
#     Edge 23, Type (0, 0), BuildingBlock: UVAHIK_clean_linker_0, # of connection points: 2
# Relax obj value: 0.153
# Max RMSD: 0.151
# Mean RMSD: 0.151
data_MOF--net-uov--node1-CEKHIL_clean_sbu_0--edge1-UVAHIK_clean_linker_0
_symmetry_space_group_name_H-M    P1
_symmetry_Int_Tables_number       1
_symmetry_cell_setting            triclinic
loop_
_symmetry_equiv_pos_as_xyz
'x, y, z'
_cell_length_a     38.461209
_cell_length_b     38.433361
_cell_length_c     54.106838
_cell_angle_alpha  90.057106
_cell_angle_beta   90.039234
_cell_angle_gamma 90.04632
loop_
_atom_site_label
_atom_site_type_symbol
_atom_site_fract_x
_atom_site_fract_y
_atom_site_fract_z
_atom_type_partial_charge
Co0 Co 0.01677 0.25945 0.61569 0.0
O1 O 0.99345 0.29536 0.63398 0.0
O2 O 0.04123 0.30302 0.61176 0.0
C3 C 0.96918 0.23651 0.5975 0.0
O4 O 0.04709 0.22886 0.59379 0.0
Co5 Co 0.00109 0.18177 0.62765 0.0
O6 O 0.03007 0.17311 0.59795 0.0
C7 C 0.04429 0.22309 0.66158 0.0
C8 C 0.01723 0.31637 0.6258 0.0
C9 C 0.04872 0.19648 0.58772 0.0
O10 O 0.04602 0.24766 0.64552 0.0
O11 O 0.02476 0.19632 0.65908 0.0
O12 O 0.98366 0.2643 0.58853 0.0
O13 O 0.98137 0.22615 0.61849 0.0
Co14 Co 0.26258 0.98304 0.38184 0.0
O15 O 0.29333 0.00345 0.35789 0.0
O16 O 0.3039 0.95497 0.37869 0.0
C17 C 0.25119 0.03263 0.40266 0.0
O18 O 0.23819 0.95501 0.40872 0.0
Co19 Co 0.18511 0.0054 0.38604 0.0
O20 O 0.18845 0.98228 0.41873 0.0
C21 C 0.20673 0.95571 0.34692 0.0
C22 C 0.31465 0.97832 0.36306 0.0
C23 C 0.21168 0.9594 0.42289 0.0
O24 O 0.23809 0.95527 0.3553 0.0
O25 O 0.1829 0.97545 0.35571 0.0
O26 O 0.27953 0.01535 0.40699 0.0
O27 O 0.23263 0.02134 0.38444 0.0
Co28 Co 0.97526 0.7372 0.60681 0.0
O29 O 0.99426 0.70545 0.63082 0.0
O30 O 0.94956 0.69423 0.60621 0.0
C31 C 0.02665 0.75351 0.59038 0.0
O32 O 0.94926 0.76175 0.57907 0.0
Co33 Co 0.99194 0.81623 0.60644 0.0
O34 O 0.97376 0.81389 0.57218 0.0
C35 C 0.93936 0.78836 0.64137 0.0
C36 C 0.97115 0.68335 0.62299 0.0
C37 C 0.9533 0.78934 0.56594 0.0
O38 O 0.94265 0.75755 0.63226 0.0
O39 O 0.95779 0.81435 0.63441 0.0
O40 O 0.01201 0.72457 0.58358 0.0
O41 O 0.01142 0.76995 0.60816 0.0
Co42 Co 0.73306 0.01785 0.37905 0.0
O43 O 0.69921 0.00118 0.35578 0.0
O44 O 0.69085 0.04485 0.38187 0.0
C45 C 0.74882 0.96526 0.39364 0.0
O46 O 0.76155 0.04111 0.40629 0.0
Co47 Co 0.811 0.99761 0.37313 0.0
O48 O 0.81379 0.01471 0.40775 0.0
C49 C 0.77959 0.04963 0.33992 0.0
C50 C 0.67842 0.02459 0.3647 0.0
C51 C 0.79098 0.03508 0.41684 0.0
O52 O 0.75228 0.05098 0.35359 0.0
O53 O 0.80427 0.02777 0.34322 0.0
O54 O 0.72097 0.9804 0.40189 0.0
O55 O 0.76386 0.9806 0.37532 0.0
Co56 Co 0.98104 0.25969 0.11253 0.0
O57 O 0.00281 0.29414 0.13312 0.0
O58 O 0.956 0.30309 0.1101 0.0
C59 C 0.0303 0.24008 0.09485 0.0
O60 O 0.95231 0.23098 0.08824 0.0
Co61 Co 0.99757 0.18109 0.11957 0.0
O62 O 0.97439 0.17677 0.08688 0.0
C63 C 0.95236 0.21748 0.15523 0.0
C64 C 0.97933 0.31558 0.12512 0.0
C65 C 0.95431 0.20042 0.07857 0.0
O66 O 0.95088 0.24412 0.14091 0.0
O67 O 0.97206 0.19123 0.15117 0.0
O68 O 0.01543 0.26814 0.0867 0.0
O69 O 0.01694 0.22694 0.11465 0.0
Co70 Co 0.26404 0.02085 0.87935 0.0
O71 O 0.29522 0.00389 0.85423 0.0
O72 O 0.30718 0.04637 0.88061 0.0
C73 C 0.24757 0.96832 0.89401 0.0
O74 O 0.23976 0.04443 0.90835 0.0
Co75 Co 0.18495 0.00356 0.87928 0.0
O76 O 0.18764 0.01923 0.91416 0.0
C77 C 0.21218 0.06011 0.84728 0.0
C78 C 0.31756 0.02628 0.86274 0.0
C79 C 0.21212 0.03923 0.92125 0.0
O80 O 0.24327 0.05586 0.85566 0.0
O81 O 0.18647 0.04077 0.85344 0.0
O82 O 0.27683 0.98211 0.90097 0.0
O83 O 0.23133 0.98486 0.87677 0.0
Co84 Co 0.01926 0.73714 0.10999 0.0
O85 O 0.00068 0.70245 0.13182 0.0
O86 O 0.04812 0.69604 0.10905 0.0
C87 C 0.96827 0.7507 0.09181 0.0
O88 O 0.04528 0.76647 0.08462 0.0
Co89 Co 0.99534 0.81432 0.11363 0.0
O90 O 0.01712 0.81745 0.08045 0.0
C91 C 0.04332 0.78523 0.15098 0.0
C92 C 0.02593 0.6826 0.12449 0.0
C93 C 0.03972 0.79539 0.0733 0.0
O94 O 0.0476 0.75761 0.13787 0.0
O95 O 0.02143 0.80915 0.14556 0.0
O96 O 0.98576 0.72368 0.08452 0.0
O97 O 0.9805 0.76647 0.11101 0.0
Co98 Co 0.73335 0.97405 0.88069 0.0
O99 O 0.70301 0.99598 0.85701 0.0
O100 O 0.68949 0.94981 0.87953 0.0
C101 C 0.75101 0.02342 0.89962 0.0
O102 O 0.75645 0.94511 0.90765 0.0
Co103 Co 0.81288 0.9883 0.88235 0.0
O104 O 0.80884 0.96825 0.91597 0.0
C105 C 0.78416 0.93908 0.84532 0.0
C106 C 0.67994 0.97298 0.8634 0.0
C107 C 0.78378 0.94791 0.92124 0.0
O108 O 0.7533 0.94275 0.8542 0.0
O109 O 0.81056 0.95615 0.85321 0.0
O110 O 0.72135 0.00937 0.90529 0.0
O111 O 0.76723 0.00918 0.88133 0.0
C112 C 0.9977 0.63455 0.64704 0.0
C113 C 0.97205 0.64646 0.6306 0.0
C114 C 0.00194 0.59894 0.65132 0.0
C115 C 0.02192 0.52401 0.6407 0.0
H116 H 0.94468 0.45922 0.64216 0.0
C117 C 0.03692 0.3777 0.61862 0.0
C118 C 0.01565 0.35399 0.63129 0.0
C119 C 0.03282 0.41351 0.6222 0.0
C120 C 0.96661 0.47692 0.64214 0.0
H121 H 0.92958 0.63055 0.60673 0.0
H122 H 0.93714 0.56857 0.61398 0.0
H123 H 0.93335 0.52149 0.64324 0.0
H124 H 0.97465 0.34903 0.65858 0.0
H125 H 0.968 0.41132 0.66519 0.0
H126 H 0.05518 0.4794 0.63967 0.0
C127 C 0.95383 0.58663 0.62377 0.0
C128 C 0.96006 0.51265 0.64246 0.0
C129 C 0.94957 0.62221 0.61953 0.0
C130 C 0.99122 0.36668 0.64835 0.0
C131 C 0.98726 0.4024 0.65204 0.0
C132 C 0.02848 0.48825 0.64042 0.0
C133 C 0.98061 0.57453 0.63925 0.0
C134 C 0.98761 0.53663 0.64136 0.0
C135 C 0.00749 0.42629 0.63864 0.0
C136 C 0.00087 0.46428 0.64078 0.0
H137 H 0.01533 0.65262 0.65595 0.0
H138 H 0.02241 0.59049 0.66368 0.0
H139 H 0.04375 0.54175 0.63955 0.0
H140 H 0.05593 0.36868 0.60532 0.0
H141 H 0.04862 0.43118 0.61139 0.0
C142 C 0.61713 0.04493 0.37069 0.0
C143 C 0.64152 0.02555 0.35717 0.0
C144 C 0.58159 0.04154 0.36575 0.0
C145 C 0.52019 0.97742 0.34048 0.0
H146 H 0.45378 0.05251 0.34772 0.0
C147 C 0.36219 0.00609 0.33858 0.0
C148 C 0.35097 0.97914 0.35422 0.0
C149 C 0.39755 0.01087 0.3338 0.0
C150 C 0.47197 0.0313 0.34524 0.0
H151 H 0.64806 0.98926 0.32678 0.0
H152 H 0.58622 0.98384 0.31791 0.0
H153 H 0.51585 0.06535 0.34845 0.0
H154 H 0.36779 0.93473 0.3758 0.0
H155 H 0.42949 0.94317 0.36759 0.0
H156 H 0.47634 0.94334 0.33746 0.0
C157 C 0.59441 0.001 0.33271 0.0
C158 C 0.50755 0.03864 0.34596 0.0
C159 C 0.62986 0.00428 0.3377 0.0
C160 C 0.37562 0.95572 0.36367 0.0
C161 C 0.411 0.96053 0.3589 0.0
C162 C 0.48463 0.97008 0.33977 0.0
C163 C 0.5698 0.01881 0.34712 0.0
C164 C 0.53207 0.01171 0.344 0.0
C165 C 0.42243 0.98881 0.34454 0.0
C166 C 0.46011 0.99686 0.34256 0.0
H167 H 0.62534 0.06148 0.38583 0.0
H168 H 0.56331 0.05545 0.37732 0.0
H169 H 0.53836 0.95598 0.33917 0.0
H170 H 0.34379 0.02444 0.33087 0.0
H171 H 0.40548 0.03249 0.32227 0.0
C172 C 0.95948 0.37707 0.11925 0.0
C173 C 0.98125 0.35302 0.13115 0.0
C174 C 0.9644 0.41279 0.1227 0.0
C175 C 0.03296 0.47529 0.13959 0.0
H176 H 0.95646 0.54079 0.14157 0.0
C177 C 0.00316 0.63254 0.14892 0.0
C178 C 0.02673 0.64543 0.13133 0.0
C179 C -0.0003 0.59679 0.15268 0.0
C180 C 0.97816 0.52286 0.14139 0.0
H181 H 0.02407 0.34743 0.15698 0.0
H182 H 0.03226 0.40967 0.16326 0.0
H183 H 0.94439 0.47858 0.14176 0.0
H184 H 0.06653 0.63113 0.10487 0.0
H185 H 0.06024 0.56859 0.11122 0.0
H186 H 0.06673 0.51961 0.13923 0.0
C187 C 0.01188 0.401 0.15088 0.0
C188 C 0.9712 0.4872 0.14119 0.0
C189 C 0.007 0.36533 0.1474 0.0
C190 C 0.04819 0.62196 0.11858 0.0
C191 C 0.04462 0.58612 0.12228 0.0
C192 C 0.03993 0.51098 0.13979 0.0
C193 C 0.99113 0.42515 0.13817 0.0
C194 C -0.00151 0.46301 0.14002 0.0
C195 C 0.01962 0.57313 0.13887 0.0
C196 C 0.0126 0.53518 0.14044 0.0
H197 H 0.93947 0.36837 0.10657 0.0
H198 H 0.94814 0.43072 0.11247 0.0
H199 H 0.05459 0.45735 0.1384 0.0
H200 H 0.98647 0.65002 0.15921 0.0
H201 H 0.98076 0.58765 0.16599 0.0
C202 C 0.37918 0.04648 0.86656 0.0
C203 C 0.35415 0.02611 0.85436 0.0
C204 C 0.4145 0.04237 0.86127 0.0
C205 C 0.48807 0.03698 0.84152 0.0
H206 H 0.51819 0.94087 0.83725 0.0
C207 C 0.63346 0.0019 0.83839 0.0
C208 C 0.64356 0.97534 0.85472 0.0
C209 C 0.59834 0.00726 0.83292 0.0
C210 C 0.51022 0.96785 0.83839 0.0
H211 H 0.34629 0.9871 0.8259 0.0
H212 H 0.4079 0.98035 0.81638 0.0
H213 H 0.45634 0.95424 0.8378 0.0
H214 H 0.62494 0.93246 0.87712 0.0
H215 H 0.56377 0.94201 0.86785 0.0
H216 H 0.54195 0.05044 0.84346 0.0
C217 C 0.40031 -0.00104 0.83042 0.0
C218 C 0.47473 0.97558 0.83839 0.0
C219 C 0.36499 0.003 0.83576 0.0
C220 C 0.61801 0.95314 0.86446 0.0
C221 C 0.5829 0.95853 0.85903 0.0
C222 C 0.52357 0.02924 0.84157 0.0
C223 C 0.42555 0.01789 0.8436 0.0
C224 C 0.4632 0.01019 0.8405 0.0
C225 C 0.57257 0.98619 0.84367 0.0
C226 C 0.53506 0.99452 0.84054 0.0
H227 H 0.37166 0.0645 0.881 0.0
H228 H 0.4332 0.05716 0.87196 0.0
H229 H 0.48009 0.06393 0.84285 0.0
H230 H 0.65258 0.01933 0.83046 0.0
H231 H 0.59132 0.02841 0.82068 0.0
C232 C 0.25566 0.06629 0.44215 0.0
C233 C 0.23768 0.05877 0.42019 0.0
C234 C 0.24074 0.08785 0.46006 0.0
C235 C 0.1686 0.15028 0.47162 0.0
H236 H 0.17072 0.11115 0.53762 0.0
C237 C 0.09298 0.20972 0.55471 0.0
C238 C 0.07398 0.18531 0.56861 0.0
C239 C 0.11704 0.19863 0.53695 0.0
C240 C 0.16998 0.12248 0.5193 0.0
H241 H 0.19087 0.06936 0.39913 0.0
H242 H 0.16468 0.10649 0.43044 0.0
H243 H 0.20606 0.08522 0.50521 0.0
H244 H 0.06556 0.13004 0.57466 0.0
H245 H 0.10715 0.11098 0.54386 0.0
H246 H 0.13118 0.18659 0.48563 0.0
C247 C 0.19041 0.09609 0.43381 0.0
C248 C 0.19055 0.10788 0.50078 0.0
C249 C 0.20532 0.07457 0.41593 0.0
C250 C 0.07965 0.14965 0.56436 0.0
C251 C 0.10377 0.13865 0.54682 0.0
C252 C 0.14804 0.16498 0.49021 0.0
C253 C 0.20758 0.10232 0.45632 0.0
C254 C 0.18946 0.12105 0.47658 0.0
C255 C 0.12279 0.16295 0.53297 0.0
C256 C 0.14784 0.15059 0.51407 0.0
H257 H 0.28076 0.05465 0.44588 0.0
H258 H 0.25482 0.09253 0.47709 0.0
H259 H 0.16751 0.16126 0.4532 0.0
H260 H 0.08925 0.23738 0.5575 0.0
H261 H 0.13142 0.21792 0.52655 0.0
C262 C 0.21631 0.9003 0.44205 0.0
C263 C 0.20595 0.93528 0.4437 0.0
C264 C 0.20613 0.87641 0.46018 0.0
C265 C 0.17285 0.8676 0.52352 0.0
H266 H 0.1154 0.79326 0.49733 0.0
C267 C 0.0656 0.80374 0.58109 0.0
C268 C 0.05562 0.76923 0.57639 0.0
C269 C 0.09103 0.81979 0.56668 0.0
C270 C 0.13202 0.81321 0.5051 0.0
H271 H 0.17902 0.97326 0.4663 0.0
H272 H 0.16207 0.93177 0.49822 0.0
H273 H 0.14944 0.82908 0.46924 0.0
H274 H 0.06561 0.72384 0.5537 0.0
H275 H 0.11093 0.7515 0.52895 0.0
H276 H 0.15538 0.85212 0.55936 0.0
C277 C 0.17768 0.92272 0.48284 0.0
C278 C 0.15147 0.8338 0.48894 0.0
C279 C 0.18717 0.94639 0.46451 0.0
C280 C 0.07258 0.7506 0.5576 0.0
C281 C 0.09841 0.76654 0.54334 0.0
C282 C 0.15385 0.84668 0.53975 0.0
C283 C 0.18621 0.88736 0.4805 0.0
C284 C 0.17114 0.86186 0.49794 0.0
C285 C 0.10753 0.80158 0.54741 0.0
C286 C 0.13217 0.82001 0.53068 0.0
H287 H 0.23068 0.89104 0.42614 0.0
H288 H 0.21304 0.84925 0.45802 0.0
H289 H 0.18812 0.88891 0.53091 0.0
H290 H 0.05304 0.81882 0.59544 0.0
H291 H 0.09673 0.84695 0.57014 0.0
C292 C 0.79996 0.92723 0.40222 0.0
C293 C 0.76516 0.93597 0.40686 0.0
C294 C 0.81678 0.9023 0.41663 0.0
C295 C 0.8099 0.86102 0.47826 0.0
H296 H 0.89096 0.81088 0.45487 0.0
C297 C 0.89731 0.7805 0.54325 0.0
C298 C 0.93108 0.79449 0.54402 0.0
C299 C 0.87458 0.78945 0.52411 0.0
C300 C 0.86814 0.82446 0.46153 0.0
H301 H 0.71984 0.92376 0.42897 0.0
H302 H 0.74862 0.87896 0.45341 0.0
H303 H 0.85363 0.84091 0.42526 0.0
H304 H 0.96836 0.82679 0.52464 0.0
H305 H 0.9289 0.84161 0.49082 0.0
H306 H 0.82461 0.84433 0.51453 0.0
C307 C 0.76348 0.89234 0.43933 0.0
C308 C 0.8469 0.84195 0.44467 0.0
C309 C 0.74686 0.91784 0.42522 0.0
C310 C 0.9424 0.81582 0.52455 0.0
C311 C 0.91996 0.8241 0.50516 0.0
C312 C 0.83071 0.84291 0.49501 0.0
C313 C 0.79897 0.88491 0.4357 0.0
C314 C 0.81818 0.86153 0.45291 0.0
C315 C 0.88559 0.81177 0.50515 0.0
C316 C 0.86057 0.82542 0.48687 0.0
H317 H 0.81474 0.94064 0.38813 0.0
H318 H 0.8442 0.8979 0.41343 0.0
H319 H 0.78844 0.87612 0.48548 0.0
H320 H 0.88788 0.76409 0.55808 0.0
H321 H 0.84815 0.7797 0.52444 0.0
C322 C 0.79224 0.08924 0.44252 0.0
C323 C 0.80013 0.05382 0.43973 0.0
C324 C 0.80558 0.10804 0.46258 0.0
C325 C 0.87745 0.10257 0.50866 0.0
H326 H 0.83431 0.18589 0.53496 0.0
C327 C 0.93729 0.18098 0.58904 0.0
C328 C 0.94383 0.21594 0.58309 0.0
C329 C 0.9158 0.16066 0.57398 0.0
C330 C 0.84652 0.16259 0.52778 0.0
H331 H 0.82564 0.00955 0.45648 0.0
H332 H 0.84702 0.04155 0.49221 0.0
H333 H 0.8028 0.15022 0.50493 0.0
H334 H 0.93175 0.25755 0.55746 0.0
H335 H 0.89344 0.22214 0.53146 0.0
H336 H 0.92087 0.11478 0.5319 0.0
C337 C 0.83216 0.05551 0.47842 0.0
C338 C 0.82864 0.14223 0.51045 0.0
C339 C 0.81963 0.03701 0.45807 0.0
C340 C 0.92727 0.23062 0.56243 0.0
C341 C 0.90523 0.21047 0.54764 0.0
C342 C 0.89494 0.1225 0.5263 0.0
C343 C 0.82643 0.09158 0.48054 0.0
C344 C 0.84405 0.11214 0.50039 0.0
C345 C 0.89988 0.17514 0.55302 0.0
C346 C 0.87986 0.1529 0.53578 0.0
H347 H 0.77741 0.10281 0.4285 0.0
H348 H 0.80079 0.13577 0.4633 0.0
H349 H 0.89076 0.08023 0.50101 0.0
H350 H 0.94962 0.16896 0.60486 0.0
H351 H 0.91194 0.13348 0.57853 0.0
C352 C 0.80313 0.05785 0.91224 0.0
C353 C 0.76781 0.04987 0.91549 0.0
C354 C 0.82004 0.0806 0.92837 0.0
C355 C 0.81204 0.11843 0.99132 0.0
H356 H 0.89293 0.1706 0.96984 0.0
C357 C 0.89732 0.20446 0.05628 0.0
C358 C 0.9314 0.19142 0.05762 0.0
C359 C 0.87466 0.19294 0.03771 0.0
C360 C 0.8702 0.15638 0.976 0.0
H361 H 0.72204 0.06072 0.93749 0.0
H362 H 0.75116 0.10171 0.96511 0.0
H363 H 0.8568 0.14099 0.93928 0.0
H364 H 0.96908 0.15754 0.0401 0.0
H365 H 0.92988 0.13847 0.00715 0.0
H366 H 0.82562 0.13446 0.02809 0.0
C367 C 0.76619 0.08949 0.9506 0.0
C368 C 0.84964 0.13909 0.95858 0.0
C369 C 0.74938 0.06618 0.93466 0.0
C370 C 0.94289 0.16788 0.03952 0.0
C371 C 0.92059 0.15711 0.02065 0.0
C372 C 0.83223 0.13637 0.00868 0.0
C373 C 0.80194 0.09658 0.94792 0.0
C374 C 0.8209 0.11893 0.96606 0.0
C375 C 0.88613 0.16904 0.01985 0.0
C376 C 0.86197 0.15467 0.0012 0.0
H377 H 0.81811 0.04574 0.89766 0.0
H378 H 0.84767 0.08466 0.92589 0.0
H379 H 0.79049 0.10291 -0.00206 0.0
H380 H 0.88779 0.22247 0.07011 0.0
H381 H 0.84814 0.2024 0.03741 0.0
C382 C 0.21964 0.09391 0.94576 0.0
C383 C 0.20647 0.05989 0.94388 0.0
C384 C 0.2093 0.11554 0.96521 0.0
C385 C 0.16972 0.11856 0.02677 0.0
H386 H 0.11983 0.19922 0.00253 0.0
C387 C 0.06529 0.18716 0.08499 0.0
C388 C 0.05814 0.22248 0.08092 0.0
C389 C 0.08977 0.1698 0.07048 0.0
C390 C 0.13434 0.17744 0.00987 0.0
H391 H 0.17442 0.0209 0.96174 0.0
H392 H 0.15713 0.05843 0.99606 0.0
H393 H 0.15376 0.1642 0.97401 0.0
H394 H 0.07228 0.26793 0.05953 0.0
H395 H 0.11627 0.2382 0.03498 0.0
H396 H 0.15056 0.13166 0.06266 0.0
C397 C 0.17507 0.06846 0.98237 0.0
C398 C 0.15371 0.15729 0.99342 0.0
C399 C 0.18479 0.04709 0.96268 0.0
C400 C 0.077 0.24053 0.06282 0.0
C401 C 0.10206 0.22338 0.04865 0.0
C402 C 0.1509 0.13911 0.04337 0.0
C403 C 0.18633 0.10318 0.98336 0.0
C404 C 0.1708 0.12721 0.0016 0.0
C405 C 0.10827 0.18756 0.0519 0.0
C406 C 0.13209 0.16827 0.03501 0.0
H407 H 0.23629 0.10447 0.93147 0.0
H408 H 0.21832 0.14224 0.96565 0.0
H409 H 0.18289 0.09553 0.03349 0.0
H410 H 0.05113 0.17255 0.0988 0.0
H411 H 0.0932 0.14214 0.07332 0.0
C412 C 0.047 0.8241 0.03244 0.0
C413 C 0.06141 0.80472 0.05184 0.0
C414 C 0.06792 0.8362 0.01324 0.0
C415 C 0.15714 0.83047 0.98567 0.0
H416 H 0.13234 0.92198 0.96121 0.0
C417 C 0.2456 0.927 0.92992 0.0
C418 C 0.22987 0.94122 0.90875 0.0
C419 C 0.22659 0.9053 0.94572 0.0
C420 C 0.13941 0.8963 0.96776 0.0
H421 H 0.10871 0.7818 0.06614 0.0
H422 H 0.14583 0.80441 0.03324 0.0
H423 H 0.09604 0.89426 0.99211 0.0
H424 H 0.18272 0.94197 0.88667 0.0
H425 H 0.1495 0.905 0.91457 0.0
H426 H 0.20175 0.83395 0.96184 0.0
C427 C 0.11818 0.80948 0.03235 0.0
C428 C 0.11846 0.88017 0.98535 0.0
C429 C 0.09698 0.79661 0.0513 0.0
C430 C 0.1955 0.9318 0.90298 0.0
C431 C 0.17643 0.91064 0.9189 0.0
C432 C 0.17854 0.84703 0.96833 0.0
C433 C 0.10402 0.8301 0.01332 0.0
C434 C 0.12676 0.84687 0.99442 0.0
C435 C 0.19153 0.8979 0.94069 0.0
C436 C 0.1696 0.87993 0.95911 0.0
H437 H 0.0195 0.83023 0.03225 0.0
H438 H 0.05575 0.85088 -0.00147 0.0
H439 H 0.16426 0.80473 0.99199 0.0
H440 H 0.27209 0.93371 0.93479 0.0
H441 H 0.23869 0.8958 0.96249 0.0
C442 C 0.80692 0.93588 0.96333 0.0
C443 C 0.78821 0.92452 0.94255 0.0
C444 C 0.8156 0.91257 0.98209 0.0
C445 C 0.84217 0.82485 0.98898 0.0
H446 H 0.83531 0.84251 0.05936 0.0
C447 C 0.92376 0.74565 0.0582 0.0
C448 C 0.93894 0.76492 0.07745 0.0
C449 C 0.89732 0.76014 0.04375 0.0
C450 C 0.83769 0.83727 0.03977 0.0
H451 H 0.76272 0.88034 0.9254 0.0
H452 H 0.77916 0.83907 0.95798 0.0
H453 H 0.80224 0.87828 0.03044 0.0
H454 H 0.93779 0.81409 0.09709 0.0
H455 H 0.89325 0.83994 0.07135 0.0
H456 H 0.87963 0.78589 -0.00219 0.0
C457 C 0.78646 0.86618 0.95985 0.0
C458 C 0.81845 0.85755 0.02329 0.0
C459 C 0.77701 0.88975 0.94133 0.0
C460 C 0.92663 0.79857 0.08238 0.0
C461 C 0.90069 0.81327 0.06772 0.0
C462 C 0.86194 0.80501 0.0054 0.0
C463 C 0.80637 0.87734 0.98013 0.0
C464 C 0.82123 0.85205 -0.00225 0.0
C465 C 0.8859 0.79444 0.04801 0.0
C466 C 0.86078 0.81166 0.03098 0.0
H467 H 0.81574 0.9626 0.96472 0.0
H468 H 0.83124 0.9217 -0.00255 0.0
H469 H 0.84502 0.82041 0.96931 0.0
H470 H 0.93251 0.71947 0.05417 0.0
H471 H 0.88617 0.74458 0.02906 0.0
C472 C 0.10213 0.23588 0.68083 0.0
C473 C 0.06765 0.22412 0.68318 0.0
C474 C 0.12578 0.2314 0.70028 0.0
C475 C 0.13276 0.21288 0.76683 0.0
H476 H 0.20569 0.14762 0.7495 0.0
C477 C 0.17028 0.10215 0.82913 0.0
C478 C 0.20456 0.08974 0.83067 0.0
C479 C 0.1618 0.12925 0.81325 0.0
C480 C 0.18625 0.16665 0.75468 0.0
H481 H 0.03021 0.20072 0.708 0.0
H482 H 0.07104 0.19396 0.74213 0.0
H483 H 0.17451 0.1786 0.71688 0.0
H484 H 0.25715 0.09685 0.81718 0.0
H485 H 0.24195 0.14427 0.78861 0.0
H486 H 0.14307 0.19963 0.80449 0.0
C487 C 0.07996 0.20628 0.72529 0.0
C488 C 0.16836 0.18435 0.73599 0.0
C489 C 0.05665 0.20993 0.70573 0.0
C490 C 0.23048 0.10578 0.8163 0.0
C491 C 0.22181 0.13285 0.8 0.0
C492 C 0.1508 0.19549 0.78546 0.0
C493 C 0.11495 0.21605 0.72253 0.0
C494 C 0.1402 0.20609 0.74191 0.0
C495 C 0.18727 0.14471 0.79828 0.0
C496 C 0.17626 0.1706 0.7795 0.0
H497 H 0.11128 0.24669 0.66353 0.0
H498 H 0.15267 0.23899 0.69772 0.0
H499 H 0.11143 0.22987 0.77183 0.0
H500 H 0.14969 0.09076 0.84013 0.0
H501 H 0.13483 0.13721 0.81206 0.0
C502 C 0.09942 0.77839 0.17434 0.0
C503 C 0.06495 0.79052 0.17322 0.0
C504 C 0.12061 0.78689 0.19457 0.0
C505 C 0.11729 0.81668 0.25918 0.0
H506 H 0.19971 0.8712 0.24466 0.0
C507 C 0.1612 0.92639 0.32145 0.0
C508 C 0.19658 0.93085 0.32719 0.0
C509 C 0.15073 0.90188 0.30403 0.0
C510 C 0.17727 0.85534 0.24908 0.0
H511 H 0.02515 0.81944 0.19275 0.0
H512 H 0.06165 0.83349 0.22808 0.0
H513 H 0.17059 0.83899 0.21142 0.0
H514 H 0.24881 0.91318 0.31865 0.0
H515 H 0.23022 0.87043 0.28753 0.0
H516 H 0.12278 0.83426 0.29648 0.0
C517 C 0.07247 0.81771 0.21337 0.0
C518 C 0.16065 0.8369 0.23009 0.0
C519 C 0.05164 0.80988 0.19306 0.0
C520 C 0.22135 0.9104 0.31468 0.0
C521 C 0.21077 0.88595 0.2969 0.0
C522 C 0.13387 0.83495 0.27808 0.0
C523 C 0.10729 0.80681 0.21418 0.0
C524 C 0.12961 0.81875 0.23482 0.0
C525 C 0.17527 0.88121 0.29169 0.0
C526 C 0.16304 0.85578 0.27299 0.0
H527 H 0.11034 0.76355 0.15919 0.0
H528 H 0.14742 0.77826 0.19479 0.0
H529 H 0.09369 0.80245 0.26336 0.0
H530 H 0.14129 0.94152 0.33065 0.0
H531 H 0.12323 0.89937 0.30002 0.0
C532 C 0.90117 0.82893 0.66496 0.0
C533 C 0.9127 0.79479 0.66058 0.0
C534 C 0.8774 0.83595 0.68372 0.0
C535 C 0.81699 0.84346 0.71887 0.0
H536 H 0.84566 0.8096 0.78317 0.0
C537 C 0.76322 0.90224 0.8097 0.0
C538 C 0.79023 0.91343 0.82535 0.0
C539 C 0.77022 0.87959 0.78998 0.0
C540 C 0.83701 0.81893 0.76531 0.0
H541 H 0.90735 0.74098 0.67201 0.0
H542 H 0.86602 0.75348 0.7054 0.0
H543 H 0.8718 0.78509 0.74595 0.0
H544 H 0.84528 0.90813 0.83339 0.0
H545 H 0.85731 0.86896 0.79934 0.0
H546 H 0.78391 0.87891 0.7383 0.0
C547 C 0.87546 0.77471 0.69409 0.0
C548 C 0.85176 0.80468 0.74399 0.0
C549 C 0.89905 0.76758 0.675 0.0
C550 C 0.82393 0.90037 0.82154 0.0
C551 C 0.83077 0.87751 0.80217 0.0
C552 C 0.80214 0.85761 0.74019 0.0
C553 C 0.86468 0.80907 0.69877 0.0
C554 C 0.84308 0.81794 0.72061 0.0
C555 C 0.80419 0.86726 0.78592 0.0
C556 C 0.81321 0.8466 0.76365 0.0
H557 H 0.91084 0.85049 0.65406 0.0
H558 H 0.87009 0.86276 0.68707 0.0
H559 H 0.80944 0.85382 0.70104 0.0
H560 H 0.73697 0.91177 0.81223 0.0
H561 H 0.74923 0.87208 0.77772 0.0
C562 C 0.79945 0.06544 0.2977 0.0
C563 C 0.7839 0.07541 0.32005 0.0
C564 C 0.80752 0.0903 0.27985 0.0
C565 C 0.84065 0.17526 0.27528 0.0
H566 H 0.82258 0.16493 0.2051 0.0
C567 C 0.89442 0.2281 0.17482 0.0
C568 C 0.92867 0.21561 0.17659 0.0
C569 C 0.87042 0.22118 0.19363 0.0
C570 C 0.82729 0.16872 0.22466 0.0
H571 H 0.76372 0.11885 0.34117 0.0
H572 H 0.77943 0.16287 0.31013 0.0
H573 H 0.78837 0.13145 0.23492 0.0
H574 H 0.96545 0.18844 0.19996 0.0
H575 H 0.9239 0.17736 0.23312 0.0
H576 H 0.88172 0.21009 0.2649 0.0
C577 C 0.78449 0.13566 0.30632 0.0
C578 C 0.80784 0.14952 0.24166 0.0
C579 C 0.7755 0.11057 0.32396 0.0
C580 C 0.93916 0.19822 0.19813 0.0
C581 C 0.91548 0.19211 0.21715 0.0
C582 C 0.86057 0.19394 0.25826 0.0
C583 C 0.80096 0.12567 0.28428 0.0
C584 C 0.81518 0.15177 0.26702 0.0
C585 C 0.88068 0.20259 0.21474 0.0
C586 C 0.85481 0.18989 0.23278 0.0
H587 H 0.80611 0.03848 0.29427 0.0
H588 H 0.82059 0.08206 0.2631 0.0
H589 H 0.84695 0.17714 0.29476 0.0
H590 H 0.88568 0.24142 0.15831 0.0
H591 H 0.84366 0.22935 0.19138 0.0
loop_
_geom_bond_atom_site_label_1
_geom_bond_atom_site_label_2
_geom_bond_distance
_geom_bond_site_symmetry_2
_ccdc_geom_bond_type
Co0 O1 2.216 . S
Co0 O2 2.091 . S
Co0 O4 2.004 . S
Co0 O10 2.021 . S
Co0 O12 2.137 . S
Co0 O13 2.244 . S
O1 Co0 2.216 . S
O1 C8 1.247 . S
O2 Co0 2.091 . S
O2 C8 1.261 . S
C3 O12 1.247 . S
C3 O13 1.272 . S
O4 Co0 2.004 . S
O4 C9 1.259 . S
Co5 O6 2.061 . S
Co5 O11 2.052 . S
Co5 O13 2.135 . S
O6 Co5 2.061 . S
O6 C9 1.235 . S
C7 O10 1.238 . S
C7 O11 1.241 . S
C8 O1 1.247 . S
C8 O2 1.261 . S
C9 O4 1.259 . S
C9 O6 1.235 . S
O10 Co0 2.021 . S
O10 C7 1.238 . S
O11 Co5 2.052 . S
O11 C7 1.241 . S
O12 Co0 2.137 . S
O12 C3 1.247 . S
O13 Co0 2.244 . S
O13 C3 1.272 . S
O13 Co5 2.135 . S
Co14 O15 2.216 . S
Co14 O16 2.091 . S
Co14 O18 2.004 . S
Co14 O24 2.021 . S
Co14 O26 2.137 . S
Co14 O27 2.244 . S
O15 Co14 2.216 . S
O15 C22 1.247 . S
O16 Co14 2.091 . S
O16 C22 1.261 . S
C17 O26 1.247 . S
C17 O27 1.272 . S
O18 Co14 2.004 . S
O18 C23 1.259 . S
Co19 O20 2.061 . S
Co19 O25 2.052 . S
Co19 O27 2.135 . S
O20 Co19 2.061 . S
O20 C23 1.235 . S
C21 O24 1.238 . S
C21 O25 1.241 . S
C22 O15 1.247 . S
C22 O16 1.261 . S
C23 O18 1.259 . S
C23 O20 1.235 . S
O24 Co14 2.021 . S
O24 C21 1.238 . S
O25 Co19 2.052 . S
O25 C21 1.241 . S
O26 Co14 2.137 . S
O26 C17 1.247 . S
O27 Co14 2.244 . S
O27 C17 1.272 . S
O27 Co19 2.135 . S
Co28 O29 2.216 . S
Co28 O30 2.091 . S
Co28 O32 2.004 . S
Co28 O38 2.021 . S
Co28 O40 2.137 . S
Co28 O41 2.244 . S
O29 Co28 2.216 . S
O29 C36 1.247 . S
O30 Co28 2.091 . S
O30 C36 1.261 . S
C31 O40 1.247 . S
C31 O41 1.272 . S
O32 Co28 2.004 . S
O32 C37 1.259 . S
Co33 O34 2.061 . S
Co33 O39 2.052 . S
Co33 O41 2.135 . S
O34 Co33 2.061 . S
O34 C37 1.235 . S
C35 O38 1.238 . S
C35 O39 1.241 . S
C36 O29 1.247 . S
C36 O30 1.261 . S
C37 O32 1.259 . S
C37 O34 1.235 . S
O38 Co28 2.021 . S
O38 C35 1.238 . S
O39 Co33 2.052 . S
O39 C35 1.241 . S
O40 Co28 2.137 . S
O40 C31 1.247 . S
O41 Co28 2.244 . S
O41 C31 1.272 . S
O41 Co33 2.135 . S
Co42 O43 2.216 . S
Co42 O44 2.091 . S
Co42 O46 2.004 . S
Co42 O52 2.021 . S
Co42 O54 2.137 . S
Co42 O55 2.244 . S
O43 Co42 2.216 . S
O43 C50 1.247 . S
O44 Co42 2.091 . S
O44 C50 1.261 . S
C45 O54 1.247 . S
C45 O55 1.272 . S
O46 Co42 2.004 . S
O46 C51 1.259 . S
Co47 O48 2.061 . S
Co47 O53 2.052 . S
Co47 O55 2.135 . S
O48 Co47 2.061 . S
O48 C51 1.235 . S
C49 O52 1.238 . S
C49 O53 1.241 . S
C50 O43 1.247 . S
C50 O44 1.261 . S
C51 O46 1.259 . S
C51 O48 1.235 . S
O52 Co42 2.021 . S
O52 C49 1.238 . S
O53 Co47 2.052 . S
O53 C49 1.241 . S
O54 Co42 2.137 . S
O54 C45 1.247 . S
O55 Co42 2.244 . S
O55 C45 1.272 . S
O55 Co47 2.135 . S
Co56 O57 2.216 . S
Co56 O58 2.091 . S
Co56 O60 2.004 . S
Co56 O66 2.021 . S
Co56 O68 2.137 . S
Co56 O69 2.244 . S
O57 Co56 2.216 . S
O57 C64 1.247 . S
O58 Co56 2.091 . S
O58 C64 1.261 . S
C59 O68 1.247 . S
C59 O69 1.272 . S
O60 Co56 2.004 . S
O60 C65 1.259 . S
Co61 O62 2.061 . S
Co61 O67 2.052 . S
Co61 O69 2.135 . S
O62 Co61 2.061 . S
O62 C65 1.235 . S
C63 O66 1.238 . S
C63 O67 1.241 . S
C64 O57 1.247 . S
C64 O58 1.261 . S
C65 O60 1.259 . S
C65 O62 1.235 . S
O66 Co56 2.021 . S
O66 C63 1.238 . S
O67 Co61 2.052 . S
O67 C63 1.241 . S
O68 Co56 2.137 . S
O68 C59 1.247 . S
O69 Co56 2.244 . S
O69 C59 1.272 . S
O69 Co61 2.135 . S
Co70 O71 2.216 . S
Co70 O72 2.091 . S
Co70 O74 2.004 . S
Co70 O80 2.021 . S
Co70 O82 2.137 . S
Co70 O83 2.244 . S
O71 Co70 2.216 . S
O71 C78 1.247 . S
O72 Co70 2.091 . S
O72 C78 1.261 . S
C73 O82 1.247 . S
C73 O83 1.272 . S
O74 Co70 2.004 . S
O74 C79 1.259 . S
Co75 O76 2.061 . S
Co75 O81 2.052 . S
Co75 O83 2.135 . S
O76 Co75 2.061 . S
O76 C79 1.235 . S
C77 O80 1.238 . S
C77 O81 1.241 . S
C78 O71 1.247 . S
C78 O72 1.261 . S
C79 O74 1.259 . S
C79 O76 1.235 . S
O80 Co70 2.021 . S
O80 C77 1.238 . S
O81 Co75 2.052 . S
O81 C77 1.241 . S
O82 Co70 2.137 . S
O82 C73 1.247 . S
O83 Co70 2.244 . S
O83 C73 1.272 . S
O83 Co75 2.135 . S
Co84 O85 2.216 . S
Co84 O86 2.091 . S
Co84 O88 2.004 . S
Co84 O94 2.021 . S
Co84 O96 2.137 . S
Co84 O97 2.244 . S
O85 Co84 2.216 . S
O85 C92 1.247 . S
O86 Co84 2.091 . S
O86 C92 1.261 . S
C87 O96 1.247 . S
C87 O97 1.272 . S
O88 Co84 2.004 . S
O88 C93 1.259 . S
Co89 O90 2.061 . S
Co89 O95 2.052 . S
Co89 O97 2.135 . S
O90 Co89 2.061 . S
O90 C93 1.235 . S
C91 O94 1.238 . S
C91 O95 1.241 . S
C92 O85 1.247 . S
C92 O86 1.261 . S
C93 O88 1.259 . S
C93 O90 1.235 . S
O94 Co84 2.021 . S
O94 C91 1.238 . S
O95 Co89 2.052 . S
O95 C91 1.241 . S
O96 Co84 2.137 . S
O96 C87 1.247 . S
O97 Co84 2.244 . S
O97 C87 1.272 . S
O97 Co89 2.135 . S
Co98 O99 2.216 . S
Co98 O100 2.091 . S
Co98 O102 2.004 . S
Co98 O108 2.021 . S
Co98 O110 2.137 . S
Co98 O111 2.244 . S
O99 Co98 2.216 . S
O99 C106 1.247 . S
O100 Co98 2.091 . S
O100 C106 1.261 . S
C101 O110 1.247 . S
C101 O111 1.272 . S
O102 Co98 2.004 . S
O102 C107 1.259 . S
Co103 O104 2.061 . S
Co103 O109 2.052 . S
Co103 O111 2.135 . S
O104 Co103 2.061 . S
O104 C107 1.235 . S
C105 O108 1.238 . S
C105 O109 1.241 . S
C106 O99 1.247 . S
C106 O100 1.261 . S
C107 O102 1.259 . S
C107 O104 1.235 . S
O108 Co98 2.021 . S
O108 C105 1.238 . S
O109 Co103 2.052 . S
O109 C105 1.241 . S
O110 Co98 2.137 . S
O110 C101 1.247 . S
O111 Co98 2.244 . S
O111 C101 1.272 . S
O111 Co103 2.135 . S
C112 C113 1.349 . S
C112 C114 1.327 . S
C112 H137 0.950 . S
C113 C112 1.349 . S
C113 C129 1.349 . S
C114 C112 1.327 . S
C114 C133 1.429 . S
C114 H138 0.950 . S
C115 C132 1.574 . S
C115 C134 1.368 1_455 S
C115 H139 0.949 . S
H116 C120 0.949 . S
C117 C118 1.349 . S
C117 C119 1.327 . S
C117 H140 0.950 . S
C118 C117 1.349 . S
C118 C130 1.349 . S
C119 C117 1.327 . S
C119 C135 1.429 . S
C119 H141 0.950 . S
C120 H116 0.949 . S
C120 C128 1.574 . S
C120 C136 1.368 1_655 S
H121 C129 0.950 . S
H122 C127 0.950 . S
H123 C128 0.949 . S
H124 C130 0.950 . S
H125 C131 0.950 . S
H126 C132 0.949 . S
C127 H122 0.950 . S
C127 C129 1.327 . S
C127 C133 1.429 . S
C128 C120 1.574 . S
C128 H123 0.949 . S
C128 C134 1.368 . S
C129 C113 1.349 . S
C129 H121 0.950 . S
C129 C127 1.327 . S
C130 C118 1.349 . S
C130 H124 0.950 . S
C130 C131 1.327 . S
C131 H125 0.950 . S
C131 C130 1.327 . S
C131 C135 1.429 . S
C132 C115 1.574 . S
C132 H126 0.949 . S
C132 C136 1.368 . S
C133 C114 1.429 . S
C133 C127 1.429 . S
C133 C134 1.523 . S
C134 C115 1.368 1_655 S
C134 C128 1.368 . S
C134 C133 1.523 . S
C135 C119 1.429 . S
C135 C131 1.429 . S
C135 C136 1.523 . S
C136 C120 1.368 1_455 S
C136 C132 1.368 . S
C136 C135 1.523 . S
H137 C112 0.950 . S
H138 C114 0.950 . S
H139 C115 0.949 . S
H140 C117 0.950 . S
H141 C119 0.950 . S
C142 C143 1.349 . S
C142 C144 1.327 . S
C142 H167 0.950 . S
C143 C142 1.349 . S
C143 C159 1.349 . S
C144 C142 1.327 . S
C144 C163 1.429 . S
C144 H168 0.950 . S
C145 C162 1.574 . S
C145 C164 1.368 1_565 S
C145 H169 0.949 . S
H146 C150 0.949 . S
C147 C148 1.349 . S
C147 C149 1.327 . S
C147 H170 0.950 . S
C148 C147 1.349 . S
C148 C160 1.349 . S
C149 C147 1.327 . S
C149 C165 1.429 . S
C149 H171 0.950 . S
C150 H146 0.949 . S
C150 C158 1.574 . S
C150 C166 1.368 1_545 S
H151 C159 0.950 . S
H152 C157 0.950 . S
H153 C158 0.949 . S
H154 C160 0.950 . S
H155 C161 0.950 . S
H156 C162 0.949 . S
C157 H152 0.950 . S
C157 C159 1.327 . S
C157 C163 1.429 . S
C158 C150 1.574 . S
C158 H153 0.949 . S
C158 C164 1.368 . S
C159 C143 1.349 . S
C159 H151 0.950 . S
C159 C157 1.327 . S
C160 C148 1.349 . S
C160 H154 0.950 . S
C160 C161 1.327 . S
C161 H155 0.950 . S
C161 C160 1.327 . S
C161 C165 1.429 . S
C162 C145 1.574 . S
C162 H156 0.949 . S
C162 C166 1.368 . S
C163 C144 1.429 . S
C163 C157 1.429 . S
C163 C164 1.523 . S
C164 C145 1.368 1_545 S
C164 C158 1.368 . S
C164 C163 1.523 . S
C165 C149 1.429 . S
C165 C161 1.429 . S
C165 C166 1.523 . S
C166 C150 1.368 1_565 S
C166 C162 1.368 . S
C166 C165 1.523 . S
H167 C142 0.950 . S
H168 C144 0.950 . S
H169 C145 0.949 . S
H170 C147 0.950 . S
H171 C149 0.950 . S
C172 C173 1.349 . S
C172 C174 1.327 . S
C172 H197 0.950 . S
C173 C172 1.349 . S
C173 C189 1.349 . S
C174 C172 1.327 . S
C174 C193 1.429 . S
C174 H198 0.950 . S
C175 C192 1.574 . S
C175 C194 1.368 1_455 S
C175 H199 0.949 . S
H176 C180 0.949 . S
C177 C178 1.349 . S
C177 C179 1.327 . S
C177 H200 0.950 . S
C178 C177 1.349 . S
C178 C190 1.349 . S
C179 C177 1.327 . S
C179 C195 1.429 . S
C179 H201 0.950 . S
C180 H176 0.949 . S
C180 C188 1.574 . S
C180 C196 1.368 1_655 S
H181 C189 0.950 . S
H182 C187 0.950 . S
H183 C188 0.949 . S
H184 C190 0.950 . S
H185 C191 0.950 . S
H186 C192 0.949 . S
C187 H182 0.950 . S
C187 C189 1.327 . S
C187 C193 1.429 . S
C188 C180 1.574 . S
C188 H183 0.949 . S
C188 C194 1.368 . S
C189 C173 1.349 . S
C189 H181 0.950 . S
C189 C187 1.327 . S
C190 C178 1.349 . S
C190 H184 0.950 . S
C190 C191 1.327 . S
C191 H185 0.950 . S
C191 C190 1.327 . S
C191 C195 1.429 . S
C192 C175 1.574 . S
C192 H186 0.949 . S
C192 C196 1.368 . S
C193 C174 1.429 . S
C193 C187 1.429 . S
C193 C194 1.523 . S
C194 C175 1.368 1_655 S
C194 C188 1.368 . S
C194 C193 1.523 . S
C195 C179 1.429 . S
C195 C191 1.429 . S
C195 C196 1.523 . S
C196 C180 1.368 1_455 S
C196 C192 1.368 . S
C196 C195 1.523 . S
H197 C172 0.950 . S
H198 C174 0.950 . S
H199 C175 0.949 . S
H200 C177 0.950 . S
H201 C179 0.950 . S
C202 C203 1.349 . S
C202 C204 1.327 . S
C202 H227 0.950 . S
C203 C202 1.349 . S
C203 C219 1.349 . S
C204 C202 1.327 . S
C204 C223 1.429 . S
C204 H228 0.950 . S
C205 C222 1.574 . S
C205 C224 1.368 . S
C205 H229 0.949 . S
H206 C210 0.949 . S
C207 C208 1.349 . S
C207 C209 1.327 . S
C207 H230 0.950 . S
C208 C207 1.349 . S
C208 C220 1.349 . S
C209 C207 1.327 . S
C209 C225 1.429 . S
C209 H231 0.950 . S
C210 H206 0.949 . S
C210 C218 1.574 . S
C210 C226 1.368 . S
H211 C219 0.950 . S
H212 C217 0.950 . S
H213 C218 0.949 . S
H214 C220 0.950 . S
H215 C221 0.950 . S
H216 C222 0.949 . S
C217 H212 0.950 . S
C217 C219 1.327 . S
C217 C223 1.429 . S
C218 C210 1.574 . S
C218 H213 0.949 . S
C218 C224 1.368 1_565 S
C219 C203 1.349 . S
C219 H211 0.950 . S
C219 C217 1.327 . S
C220 C208 1.349 . S
C220 H214 0.950 . S
C220 C221 1.327 . S
C221 H215 0.950 . S
C221 C220 1.327 . S
C221 C225 1.429 . S
C222 C205 1.574 . S
C222 H216 0.949 . S
C222 C226 1.368 1_545 S
C223 C204 1.429 . S
C223 C217 1.429 . S
C223 C224 1.523 . S
C224 C205 1.368 . S
C224 C218 1.368 1_545 S
C224 C223 1.523 . S
C225 C209 1.429 . S
C225 C221 1.429 . S
C225 C226 1.523 . S
C226 C210 1.368 . S
C226 C222 1.368 1_565 S
C226 C225 1.523 . S
H227 C202 0.950 . S
H228 C204 0.950 . S
H229 C205 0.949 . S
H230 C207 0.950 . S
H231 C209 0.950 . S
C232 C233 1.349 . S
C232 C234 1.327 1_565 S
C232 H257 0.950 . S
C233 C232 1.349 . S
C233 C249 1.349 . S
C234 C232 1.327 1_545 S
C234 C253 1.429 . S
C234 H258 0.950 . S
C235 C252 1.574 . S
C235 C254 1.368 . S
C235 H259 0.949 . S
H236 C240 0.949 . S
C237 C238 1.349 . S
C237 C239 1.327 . S
C237 H260 0.950 . S
C238 C237 1.349 . S
C238 C250 1.349 . S
C239 C237 1.327 . S
C239 C255 1.429 . S
C239 H261 0.950 . S
C240 H236 0.949 . S
C240 C248 1.574 . S
C240 C256 1.368 . S
H241 C249 0.950 . S
H242 C247 0.950 . S
H243 C248 0.949 . S
H244 C250 0.950 . S
H245 C251 0.950 . S
H246 C252 0.949 . S
C247 H242 0.950 . S
C247 C249 1.327 1_545 S
C247 C253 1.429 . S
C248 C240 1.574 . S
C248 H243 0.949 . S
C248 C254 1.368 . S
C249 C233 1.349 . S
C249 H241 0.950 . S
C249 C247 1.327 1_565 S
C250 C238 1.349 . S
C250 H244 0.950 . S
C250 C251 1.327 . S
C251 H245 0.950 . S
C251 C250 1.327 . S
C251 C255 1.429 . S
C252 C235 1.574 . S
C252 H246 0.949 . S
C252 C256 1.368 . S
C253 C234 1.429 . S
C253 C247 1.429 . S
C253 C254 1.523 . S
C254 C235 1.368 . S
C254 C248 1.368 . S
C254 C253 1.523 . S
C255 C239 1.429 . S
C255 C251 1.429 . S
C255 C256 1.523 . S
C256 C240 1.368 . S
C256 C252 1.368 . S
C256 C255 1.523 . S
H257 C232 0.950 . S
H258 C234 0.950 . S
H259 C235 0.949 . S
H260 C237 0.950 . S
H261 C239 0.950 . S
C262 C263 1.349 . S
C262 C264 1.327 . S
C262 H287 0.950 . S
C263 C262 1.349 . S
C263 C279 1.349 . S
C264 C262 1.327 . S
C264 C283 1.429 . S
C264 H288 0.950 . S
C265 C282 1.574 . S
C265 C284 1.368 . S
C265 H289 0.949 . S
H266 C270 0.949 . S
C267 C268 1.349 . S
C267 C269 1.327 1_655 S
C267 H290 0.950 . S
C268 C267 1.349 . S
C268 C280 1.349 . S
C269 C267 1.327 1_455 S
C269 C285 1.429 . S
C269 H291 0.950 . S
C270 H266 0.949 . S
C270 C278 1.574 . S
C270 C286 1.368 . S
H271 C279 0.950 . S
H272 C277 0.950 . S
H273 C278 0.949 . S
H274 C280 0.950 . S
H275 C281 0.950 . S
H276 C282 0.949 . S
C277 H272 0.950 . S
C277 C279 1.327 . S
C277 C283 1.429 . S
C278 C270 1.574 . S
C278 H273 0.949 . S
C278 C284 1.368 . S
C279 C263 1.349 . S
C279 H271 0.950 . S
C279 C277 1.327 . S
C280 C268 1.349 . S
C280 H274 0.950 . S
C280 C281 1.327 1_655 S
C281 H275 0.950 . S
C281 C280 1.327 1_455 S
C281 C285 1.429 . S
C282 C265 1.574 . S
C282 H276 0.949 . S
C282 C286 1.368 . S
C283 C264 1.429 . S
C283 C277 1.429 . S
C283 C284 1.523 . S
C284 C265 1.368 . S
C284 C278 1.368 . S
C284 C283 1.523 . S
C285 C269 1.429 . S
C285 C281 1.429 . S
C285 C286 1.523 . S
C286 C270 1.368 . S
C286 C282 1.368 . S
C286 C285 1.523 . S
H287 C262 0.950 . S
H288 C264 0.950 . S
H289 C265 0.949 . S
H290 C267 0.950 . S
H291 C269 0.950 . S
C292 C293 1.349 1_565 S
C292 C294 1.327 . S
C292 H317 0.950 . S
C293 C292 1.349 1_545 S
C293 C309 1.349 . S
C294 C292 1.327 . S
C294 C313 1.429 . S
C294 H318 0.950 . S
C295 C312 1.574 . S
C295 C314 1.368 . S
C295 H319 0.949 . S
H296 C300 0.949 . S
C297 C298 1.349 . S
C297 C299 1.327 . S
C297 H320 0.950 . S
C298 C297 1.349 . S
C298 C310 1.349 . S
C299 C297 1.327 . S
C299 C315 1.429 . S
C299 H321 0.950 . S
C300 H296 0.949 . S
C300 C308 1.574 . S
C300 C316 1.368 . S
H301 C309 0.950 . S
H302 C307 0.950 . S
H303 C308 0.949 . S
H304 C310 0.950 . S
H305 C311 0.950 . S
H306 C312 0.949 . S
C307 H302 0.950 . S
C307 C309 1.327 1_565 S
C307 C313 1.429 . S
C308 C300 1.574 . S
C308 H303 0.949 . S
C308 C314 1.368 . S
C309 C293 1.349 . S
C309 H301 0.950 . S
C309 C307 1.327 1_545 S
C310 C298 1.349 . S
C310 H304 0.950 . S
C310 C311 1.327 . S
C311 H305 0.950 . S
C311 C310 1.327 . S
C311 C315 1.429 . S
C312 C295 1.574 . S
C312 H306 0.949 . S
C312 C316 1.368 . S
C313 C294 1.429 . S
C313 C307 1.429 . S
C313 C314 1.523 . S
C314 C295 1.368 . S
C314 C308 1.368 . S
C314 C313 1.523 . S
C315 C299 1.429 . S
C315 C311 1.429 . S
C315 C316 1.523 . S
C316 C300 1.368 . S
C316 C312 1.368 . S
C316 C315 1.523 . S
H317 C292 0.950 . S
H318 C294 0.950 . S
H319 C295 0.949 . S
H320 C297 0.950 . S
H321 C299 0.950 . S
C322 C323 1.349 . S
C322 C324 1.327 . S
C322 H347 0.950 . S
C323 C322 1.349 . S
C323 C339 1.349 . S
C324 C322 1.327 . S
C324 C343 1.429 . S
C324 H348 0.950 . S
C325 C342 1.574 . S
C325 C344 1.368 . S
C325 H349 0.949 . S
H326 C330 0.949 . S
C327 C328 1.349 . S
C327 C329 1.327 1_455 S
C327 H350 0.950 . S
C328 C327 1.349 . S
C328 C340 1.349 1_455 S
C329 C327 1.327 1_655 S
C329 C345 1.429 . S
C329 H351 0.950 . S
C330 H326 0.949 . S
C330 C338 1.574 . S
C330 C346 1.368 . S
H331 C339 0.950 . S
H332 C337 0.950 . S
H333 C338 0.949 . S
H334 C340 0.950 . S
H335 C341 0.950 . S
H336 C342 0.949 . S
C337 H332 0.950 . S
C337 C339 1.327 . S
C337 C343 1.429 . S
C338 C330 1.574 . S
C338 H333 0.949 . S
C338 C344 1.368 . S
C339 C323 1.349 . S
C339 H331 0.950 . S
C339 C337 1.327 . S
C340 C328 1.349 1_655 S
C340 H334 0.950 . S
C340 C341 1.327 . S
C341 H335 0.950 . S
C341 C340 1.327 . S
C341 C345 1.429 . S
C342 C325 1.574 . S
C342 H336 0.949 . S
C342 C346 1.368 . S
C343 C324 1.429 . S
C343 C337 1.429 . S
C343 C344 1.523 . S
C344 C325 1.368 . S
C344 C338 1.368 . S
C344 C343 1.523 . S
C345 C329 1.429 . S
C345 C341 1.429 . S
C345 C346 1.523 . S
C346 C330 1.368 . S
C346 C342 1.368 . S
C346 C345 1.523 . S
H347 C322 0.950 . S
H348 C324 0.950 . S
H349 C325 0.949 . S
H350 C327 0.950 . S
H351 C329 0.950 . S
C352 C353 1.349 1_545 S
C352 C354 1.327 . S
C352 H377 0.950 . S
C353 C352 1.349 1_565 S
C353 C369 1.349 . S
C354 C352 1.327 . S
C354 C373 1.429 . S
C354 H378 0.950 . S
C355 C372 1.574 . S
C355 C374 1.368 1_554 S
C355 H379 0.949 . S
H356 C360 0.949 . S
C357 C358 1.349 . S
C357 C359 1.327 . S
C357 H380 0.950 . S
C358 C357 1.349 . S
C358 C370 1.349 . S
C359 C357 1.327 . S
C359 C375 1.429 . S
C359 H381 0.950 . S
C360 H356 0.949 . S
C360 C368 1.574 . S
C360 C376 1.368 1_556 S
H361 C369 0.950 . S
H362 C367 0.950 1_565 S
H363 C368 0.949 . S
H364 C370 0.950 . S
H365 C371 0.950 . S
H366 C372 0.949 . S
C367 H362 0.950 1_545 S
C367 C369 1.327 1_545 S
C367 C373 1.429 . S
C368 C360 1.574 . S
C368 H363 0.949 . S
C368 C374 1.368 . S
C369 C353 1.349 . S
C369 H361 0.950 . S
C369 C367 1.327 1_565 S
C370 C358 1.349 . S
C370 H364 0.950 . S
C370 C371 1.327 . S
C371 H365 0.950 . S
C371 C370 1.327 . S
C371 C375 1.429 . S
C372 C355 1.574 . S
C372 H366 0.949 . S
C372 C376 1.368 . S
C373 C354 1.429 . S
C373 C367 1.429 . S
C373 C374 1.523 . S
C374 C355 1.368 1_556 S
C374 C368 1.368 . S
C374 C373 1.523 . S
C375 C359 1.429 . S
C375 C371 1.429 . S
C375 C376 1.523 . S
C376 C360 1.368 1_554 S
C376 C372 1.368 . S
C376 C375 1.523 . S
H377 C352 0.950 . S
H378 C354 0.950 . S
H379 C355 0.949 . S
H380 C357 0.950 . S
H381 C359 0.950 . S
C382 C383 1.349 . S
C382 C384 1.327 . S
C382 H407 0.950 . S
C383 C382 1.349 . S
C383 C399 1.349 . S
C384 C382 1.327 . S
C384 C403 1.429 . S
C384 H408 0.950 . S
C385 C402 1.574 . S
C385 C404 1.368 1_554 S
C385 H409 0.949 . S
H386 C390 0.949 . S
C387 C388 1.349 1_455 S
C387 C389 1.327 . S
C387 H410 0.950 . S
C388 C387 1.349 1_655 S
C388 C400 1.349 . S
C389 C387 1.327 . S
C389 C405 1.429 . S
C389 H411 0.950 . S
C390 H386 0.949 . S
C390 C398 1.574 . S
C390 C406 1.368 1_556 S
H391 C399 0.950 . S
H392 C397 0.950 1_554 S
H393 C398 0.949 . S
H394 C400 0.950 . S
H395 C401 0.950 . S
H396 C402 0.949 . S
C397 H392 0.950 1_556 S
C397 C399 1.327 . S
C397 C403 1.429 . S
C398 C390 1.574 . S
C398 H393 0.949 . S
C398 C404 1.368 . S
C399 C383 1.349 . S
C399 H391 0.950 . S
C399 C397 1.327 . S
C400 C388 1.349 . S
C400 H394 0.950 . S
C400 C401 1.327 1_655 S
C401 H395 0.950 . S
C401 C400 1.327 1_455 S
C401 C405 1.429 . S
C402 C385 1.574 . S
C402 H396 0.949 . S
C402 C406 1.368 . S
C403 C384 1.429 . S
C403 C397 1.429 . S
C403 C404 1.523 . S
C404 C385 1.368 1_556 S
C404 C398 1.368 . S
C404 C403 1.523 . S
C405 C389 1.429 . S
C405 C401 1.429 . S
C405 C406 1.523 . S
C406 C390 1.368 1_554 S
C406 C402 1.368 . S
C406 C405 1.523 . S
H407 C382 0.950 . S
H408 C384 0.950 . S
H409 C385 0.949 . S
H410 C387 0.950 . S
H411 C389 0.950 . S
C412 C413 1.349 . S
C412 C414 1.327 . S
C412 H437 0.950 . S
C413 C412 1.349 . S
C413 C429 1.349 . S
C414 C412 1.327 . S
C414 C433 1.429 . S
C414 H438 0.950 . S
C415 C432 1.574 . S
C415 C434 1.368 1_556 S
C415 H439 0.949 . S
H416 C420 0.949 1_554 S
C417 C418 1.349 1_565 S
C417 C419 1.327 . S
C417 H440 0.950 . S
C418 C417 1.349 1_545 S
C418 C430 1.349 . S
C419 C417 1.327 . S
C419 C435 1.429 . S
C419 H441 0.950 . S
C420 H416 0.949 1_556 S
C420 C428 1.574 1_556 S
C420 C436 1.368 . S
H421 C429 0.950 . S
H422 C427 0.950 . S
H423 C428 0.949 . S
H424 C430 0.950 . S
H425 C431 0.947 1_545 S
H426 C432 0.949 . S
C427 H422 0.950 . S
C427 C429 1.327 . S
C427 C433 1.429 . S
C428 C420 1.574 1_554 S
C428 H423 0.949 . S
C428 C434 1.368 . S
C429 C413 1.349 . S
C429 H421 0.950 . S
C429 C427 1.327 . S
C430 C418 1.349 . S
C430 H424 0.950 . S
C430 C431 1.327 1_545 S
C431 H425 0.947 1_565 S
C431 C430 1.327 1_565 S
C431 C435 1.429 . S
C432 C415 1.574 . S
C432 H426 0.949 . S
C432 C436 1.368 . S
C433 C414 1.429 . S
C433 C427 1.429 . S
C433 C434 1.523 . S
C434 C415 1.368 1_554 S
C434 C428 1.368 . S
C434 C433 1.523 . S
C435 C419 1.429 . S
C435 C431 1.429 . S
C435 C436 1.523 . S
C436 C420 1.368 . S
C436 C432 1.368 . S
C436 C435 1.523 . S
H437 C412 0.950 . S
H438 C414 0.950 . S
H439 C415 0.949 . S
H440 C417 0.950 . S
H441 C419 0.950 . S
C442 C443 1.349 . S
C442 C444 1.327 . S
C442 H467 0.950 . S
C443 C442 1.349 . S
C443 C459 1.349 . S
C444 C442 1.327 . S
C444 C463 1.429 . S
C444 H468 0.950 . S
C445 C462 1.574 . S
C445 C464 1.368 . S
C445 H469 0.949 . S
H446 C450 0.949 . S
C447 C448 1.349 . S
C447 C449 1.327 1_455 S
C447 H470 0.950 . S
C448 C447 1.349 . S
C448 C460 1.349 . S
C449 C447 1.327 1_655 S
C449 C465 1.429 . S
C449 H471 0.950 . S
C450 H446 0.949 . S
C450 C458 1.574 . S
C450 C466 1.368 . S
H451 C459 0.950 . S
H452 C457 0.950 . S
H453 C458 0.949 . S
H454 C460 0.950 . S
H455 C461 0.950 . S
H456 C462 0.949 . S
C457 H452 0.950 . S
C457 C459 1.327 . S
C457 C463 1.429 . S
C458 C450 1.574 . S
C458 H453 0.949 . S
C458 C464 1.368 1_554 S
C459 C443 1.349 . S
C459 H451 0.950 . S
C459 C457 1.327 . S
C460 C448 1.349 . S
C460 H454 0.950 . S
C460 C461 1.327 1_455 S
C461 H455 0.950 . S
C461 C460 1.327 1_655 S
C461 C465 1.429 . S
C462 C445 1.574 . S
C462 H456 0.949 . S
C462 C466 1.368 1_556 S
C463 C444 1.429 . S
C463 C457 1.429 . S
C463 C464 1.523 . S
C464 C445 1.368 . S
C464 C458 1.368 1_556 S
C464 C463 1.523 . S
C465 C449 1.429 . S
C465 C461 1.429 . S
C465 C466 1.523 . S
C466 C450 1.368 . S
C466 C462 1.368 1_554 S
C466 C465 1.523 . S
H467 C442 0.950 . S
H468 C444 0.950 . S
H469 C445 0.949 . S
H470 C447 0.950 . S
H471 C449 0.950 . S
C472 C473 1.349 . S
C472 C474 1.327 . S
C472 H497 0.950 . S
C473 C472 1.349 . S
C473 C489 1.349 . S
C474 C472 1.327 . S
C474 C493 1.429 . S
C474 H498 0.950 . S
C475 C492 1.574 . S
C475 C494 1.368 . S
C475 H499 0.949 . S
H476 C480 0.949 . S
C477 C478 1.349 . S
C477 C479 1.327 . S
C477 H500 0.950 . S
C478 C477 1.349 . S
C478 C490 1.349 . S
C479 C477 1.327 . S
C479 C495 1.429 . S
C479 H501 0.950 . S
C480 H476 0.949 . S
C480 C488 1.574 . S
C480 C496 1.368 . S
H481 C489 0.950 . S
H482 C487 0.950 . S
H483 C488 0.949 . S
H484 C490 0.950 . S
H485 C491 0.950 . S
H486 C492 0.949 . S
C487 H482 0.950 . S
C487 C489 1.327 . S
C487 C493 1.429 . S
C488 C480 1.574 . S
C488 H483 0.949 . S
C488 C494 1.368 . S
C489 C473 1.349 . S
C489 H481 0.950 . S
C489 C487 1.327 . S
C490 C478 1.349 . S
C490 H484 0.950 . S
C490 C491 1.327 . S
C491 H485 0.950 . S
C491 C490 1.327 . S
C491 C495 1.429 . S
C492 C475 1.574 . S
C492 H486 0.949 . S
C492 C496 1.368 . S
C493 C474 1.429 . S
C493 C487 1.429 . S
C493 C494 1.523 . S
C494 C475 1.368 . S
C494 C488 1.368 . S
C494 C493 1.523 . S
C495 C479 1.429 . S
C495 C491 1.429 . S
C495 C496 1.523 . S
C496 C480 1.368 . S
C496 C492 1.368 . S
C496 C495 1.523 . S
H497 C472 0.950 . S
H498 C474 0.950 . S
H499 C475 0.949 . S
H500 C477 0.950 . S
H501 C479 0.950 . S
C502 C503 1.349 . S
C502 C504 1.327 . S
C502 H527 0.950 . S
C503 C502 1.349 . S
C503 C519 1.349 . S
C504 C502 1.327 . S
C504 C523 1.429 . S
C504 H528 0.950 . S
C505 C522 1.574 . S
C505 C524 1.368 . S
C505 H529 0.949 . S
H506 C510 0.949 . S
C507 C508 1.349 . S
C507 C509 1.327 . S
C507 H530 0.950 . S
C508 C507 1.349 . S
C508 C520 1.349 . S
C509 C507 1.327 . S
C509 C525 1.429 . S
C509 H531 0.950 . S
C510 H506 0.949 . S
C510 C518 1.574 . S
C510 C526 1.368 . S
H511 C519 0.950 . S
H512 C517 0.950 . S
H513 C518 0.949 . S
H514 C520 0.950 . S
H515 C521 0.950 . S
H516 C522 0.949 . S
C517 H512 0.950 . S
C517 C519 1.327 . S
C517 C523 1.429 . S
C518 C510 1.574 . S
C518 H513 0.949 . S
C518 C524 1.368 . S
C519 C503 1.349 . S
C519 H511 0.950 . S
C519 C517 1.327 . S
C520 C508 1.349 . S
C520 H514 0.950 . S
C520 C521 1.327 . S
C521 H515 0.950 . S
C521 C520 1.327 . S
C521 C525 1.429 . S
C522 C505 1.574 . S
C522 H516 0.949 . S
C522 C526 1.368 . S
C523 C504 1.429 . S
C523 C517 1.429 . S
C523 C524 1.523 . S
C524 C505 1.368 . S
C524 C518 1.368 . S
C524 C523 1.523 . S
C525 C509 1.429 . S
C525 C521 1.429 . S
C525 C526 1.523 . S
C526 C510 1.368 . S
C526 C522 1.368 . S
C526 C525 1.523 . S
H527 C502 0.950 . S
H528 C504 0.950 . S
H529 C505 0.949 . S
H530 C507 0.950 . S
H531 C509 0.950 . S
C532 C533 1.349 . S
C532 C534 1.327 . S
C532 H557 0.950 . S
C533 C532 1.349 . S
C533 C549 1.349 . S
C534 C532 1.327 . S
C534 C553 1.429 . S
C534 H558 0.950 . S
C535 C552 1.574 . S
C535 C554 1.368 . S
C535 H559 0.949 . S
H536 C540 0.949 . S
C537 C538 1.349 . S
C537 C539 1.327 . S
C537 H560 0.950 . S
C538 C537 1.349 . S
C538 C550 1.349 . S
C539 C537 1.327 . S
C539 C555 1.429 . S
C539 H561 0.950 . S
C540 H536 0.949 . S
C540 C548 1.574 . S
C540 C556 1.368 . S
H541 C549 0.950 . S
H542 C547 0.950 . S
H543 C548 0.949 . S
H544 C550 0.950 . S
H545 C551 0.950 . S
H546 C552 0.949 . S
C547 H542 0.950 . S
C547 C549 1.327 . S
C547 C553 1.429 . S
C548 C540 1.574 . S
C548 H543 0.949 . S
C548 C554 1.368 . S
C549 C533 1.349 . S
C549 H541 0.950 . S
C549 C547 1.327 . S
C550 C538 1.349 . S
C550 H544 0.950 . S
C550 C551 1.327 . S
C551 H545 0.950 . S
C551 C550 1.327 . S
C551 C555 1.429 . S
C552 C535 1.574 . S
C552 H546 0.949 . S
C552 C556 1.368 . S
C553 C534 1.429 . S
C553 C547 1.429 . S
C553 C554 1.523 . S
C554 C535 1.368 . S
C554 C548 1.368 . S
C554 C553 1.523 . S
C555 C539 1.429 . S
C555 C551 1.429 . S
C555 C556 1.523 . S
C556 C540 1.368 . S
C556 C552 1.368 . S
C556 C555 1.523 . S
H557 C532 0.950 . S
H558 C534 0.950 . S
H559 C535 0.949 . S
H560 C537 0.950 . S
H561 C539 0.950 . S
C562 C563 1.349 . S
C562 C564 1.327 . S
C562 H587 0.950 . S
C563 C562 1.349 . S
C563 C579 1.349 . S
C564 C562 1.327 . S
C564 C583 1.429 . S
C564 H588 0.950 . S
C565 C582 1.574 . S
C565 C584 1.368 . S
C565 H589 0.949 . S
H566 C570 0.949 . S
C567 C568 1.349 . S
C567 C569 1.327 . S
C567 H590 0.950 . S
C568 C567 1.349 . S
C568 C580 1.349 . S
C569 C567 1.327 . S
C569 C585 1.429 . S
C569 H591 0.950 . S
C570 H566 0.949 . S
C570 C578 1.574 . S
C570 C586 1.368 . S
H571 C579 0.950 . S
H572 C577 0.950 . S
H573 C578 0.949 . S
H574 C580 0.950 . S
H575 C581 0.950 . S
H576 C582 0.949 . S
C577 H572 0.950 . S
C577 C579 1.327 . S
C577 C583 1.429 . S
C578 C570 1.574 . S
C578 H573 0.949 . S
C578 C584 1.368 . S
C579 C563 1.349 . S
C579 H571 0.950 . S
C579 C577 1.327 . S
C580 C568 1.349 . S
C580 H574 0.950 . S
C580 C581 1.327 . S
C581 H575 0.950 . S
C581 C580 1.327 . S
C581 C585 1.429 . S
C582 C565 1.574 . S
C582 H576 0.949 . S
C582 C586 1.368 . S
C583 C564 1.429 . S
C583 C577 1.429 . S
C583 C584 1.523 . S
C584 C565 1.368 . S
C584 C578 1.368 . S
C584 C583 1.523 . S
C585 C569 1.429 . S
C585 C581 1.429 . S
C585 C586 1.523 . S
C586 C570 1.368 . S
C586 C582 1.368 . S
C586 C585 1.523 . S
H587 C562 0.950 . S
H588 C564 0.950 . S
H589 C565 0.949 . S
H590 C567 0.950 . S
H591 C569 0.950 . S
C113 C36 1.423 . S
C118 C8 1.423 . S
C143 C50 1.423 . S
C148 C22 1.423 . S
C173 C64 1.423 . S
C178 C92 1.423 . S
C203 C78 1.423 . S
C208 C106 1.423 . S
C233 C17 0.969 . S
C238 C9 0.936 . S
C263 C23 0.936 . S
C268 C31 0.969 . S
C293 C45 0.969 . S
C298 C37 0.936 . S
C323 C51 0.936 . S
C328 C3 0.969 . S
C353 C101 0.969 . S
C358 C65 0.936 . S
C383 C79 0.936 . S
C388 C59 0.969 . S
C413 C93 0.936 . S
C418 C73 0.969 . S
C443 C107 0.936 . S
C448 C87 0.969 . S
C473 C7 1.666 . S
C478 C77 1.666 . S
C503 C91 1.666 . S
C508 C21 1.666 . S
C533 C35 1.666 . S
C538 C105 1.666 . S
C563 C49 1.666 . S
C568 C63 1.666 . S
