# Generated by pormake.
# Topology unn, (4)-cn, num edge types: 1
# Building blocks:
#     Node 0, Type 0, BuildingBlock: CEKHIL_clean_sbu_0, # of connection points: 4
#     Node 1, Type 0, BuildingBlock: CEKHIL_clean_sbu_0, # of connection points: 4
#     Node 2, Type 0, BuildingBlock: CEKHIL_clean_sbu_0, # of connection points: 4
#     Node 3, Type 0, BuildingBlock: CEKHIL_clean_sbu_0, # of connection points: 4
#     Node 4, Type 0, BuildingBlock: CEKHIL_clean_sbu_0, # of connection points: 4
#     Node 5, Type 0, BuildingBlock: CEKHIL_clean_sbu_0, # of connection points: 4
#     Node 6, Type 0, BuildingBlock: CEKHIL_clean_sbu_0, # of connection points: 4
#     Node 7, Type 0, BuildingBlock: CEKHIL_clean_sbu_0, # of connection points: 4
#     Node 8, Type 0, BuildingBlock: CEKHIL_clean_sbu_0, # of connection points: 4
#     Node 9, Type 0, BuildingBlock: CEKHIL_clean_sbu_0, # of connection points: 4
#     Node 10, Type 0, BuildingBlock: CEKHIL_clean_sbu_0, # of connection points: 4
#     Node 11, Type 0, BuildingBlock: CEKHIL_clean_sbu_0, # of connection points: 4
#     Node 12, Type 0, BuildingBlock: CEKHIL_clean_sbu_0, # of connection points: 4
#     Node 13, Type 0, BuildingBlock: CEKHIL_clean_sbu_0, # of connection points: 4
#     Node 14, Type 0, BuildingBlock: CEKHIL_clean_sbu_0, # of connection points: 4
#     Node 15, Type 0, BuildingBlock: CEKHIL_clean_sbu_0, # of connection points: 4
#     Node 16, Type 0, BuildingBlock: CEKHIL_clean_sbu_0, # of connection points: 4
#     Node 17, Type 0, BuildingBlock: CEKHIL_clean_sbu_0, # of connection points: 4
#     Edge 18, Type (0, 0), BuildingBlock: XUDNAN_clean_linker_2, # of connection points: 2
#     Edge 19, Type (0, 0), BuildingBlock: XUDNAN_clean_linker_2, # of connection points: 2
#     Edge 20, Type (0, 0), BuildingBlock: XUDNAN_clean_linker_2, # of connection points: 2
#     Edge 21, Type (0, 0), BuildingBlock: XUDNAN_clean_linker_2, # of connection points: 2
#     Edge 22, Type (0, 0), BuildingBlock: XUDNAN_clean_linker_2, # of connection points: 2
#     Edge 23, Type (0, 0), BuildingBlock: XUDNAN_clean_linker_2, # of connection points: 2
#     Edge 24, Type (0, 0), BuildingBlock: XUDNAN_clean_linker_2, # of connection points: 2
#     Edge 25, Type (0, 0), BuildingBlock: XUDNAN_clean_linker_2, # of connection points: 2
#     Edge 26, Type (0, 0), BuildingBlock: XUDNAN_clean_linker_2, # of connection points: 2
#     Edge 27, Type (0, 0), BuildingBlock: XUDNAN_clean_linker_2, # of connection points: 2
#     Edge 28, Type (0, 0), BuildingBlock: XUDNAN_clean_linker_2, # of connection points: 2
#     Edge 29, Type (0, 0), BuildingBlock: XUDNAN_clean_linker_2, # of connection points: 2
#     Edge 30, Type (0, 0), BuildingBlock: XUDNAN_clean_linker_2, # of connection points: 2
#     Edge 31, Type (0, 0), BuildingBlock: XUDNAN_clean_linker_2, # of connection points: 2
#     Edge 32, Type (0, 0), BuildingBlock: XUDNAN_clean_linker_2, # of connection points: 2
#     Edge 33, Type (0, 0), BuildingBlock: XUDNAN_clean_linker_2, # of connection points: 2
#     Edge 34, Type (0, 0), BuildingBlock: XUDNAN_clean_linker_2, # of connection points: 2
#     Edge 35, Type (0, 0), BuildingBlock: XUDNAN_clean_linker_2, # of connection points: 2
#     Edge 36, Type (0, 0), BuildingBlock: XUDNAN_clean_linker_2, # of connection points: 2
#     Edge 37, Type (0, 0), BuildingBlock: XUDNAN_clean_linker_2, # of connection points: 2
#     Edge 38, Type (0, 0), BuildingBlock: XUDNAN_clean_linker_2, # of connection points: 2
#     Edge 39, Type (0, 0), BuildingBlock: XUDNAN_clean_linker_2, # of connection points: 2
#     Edge 40, Type (0, 0), BuildingBlock: XUDNAN_clean_linker_2, # of connection points: 2
#     Edge 41, Type (0, 0), BuildingBlock: XUDNAN_clean_linker_2, # of connection points: 2
#     Edge 42, Type (0, 0), BuildingBlock: XUDNAN_clean_linker_2, # of connection points: 2
#     Edge 43, Type (0, 0), BuildingBlock: XUDNAN_clean_linker_2, # of connection points: 2
#     Edge 44, Type (0, 0), BuildingBlock: XUDNAN_clean_linker_2, # of connection points: 2
#     Edge 45, Type (0, 0), BuildingBlock: XUDNAN_clean_linker_2, # of connection points: 2
#     Edge 46, Type (0, 0), BuildingBlock: XUDNAN_clean_linker_2, # of connection points: 2
#     Edge 47, Type (0, 0), BuildingBlock: XUDNAN_clean_linker_2, # of connection points: 2
#     Edge 48, Type (0, 0), BuildingBlock: XUDNAN_clean_linker_2, # of connection points: 2
#     Edge 49, Type (0, 0), BuildingBlock: XUDNAN_clean_linker_2, # of connection points: 2
#     Edge 50, Type (0, 0), BuildingBlock: XUDNAN_clean_linker_2, # of connection points: 2
#     Edge 51, Type (0, 0), BuildingBlock: XUDNAN_clean_linker_2, # of connection points: 2
#     Edge 52, Type (0, 0), BuildingBlock: XUDNAN_clean_linker_2, # of connection points: 2
#     Edge 53, Type (0, 0), BuildingBlock: XUDNAN_clean_linker_2, # of connection points: 2
# Relax obj value: 0.130
# Max RMSD: 0.232
# Mean RMSD: 0.225
data_MOF--net-unn--node1-CEKHIL_clean_sbu_0--edge1-XUDNAN_clean_linker_2
_symmetry_space_group_name_H-M    P1
_symmetry_Int_Tables_number       1
_symmetry_cell_setting            triclinic
loop_
_symmetry_equiv_pos_as_xyz
'x, y, z'
_cell_length_a     46.335646
_cell_length_b     46.471954
_cell_length_c     37.470981
_cell_angle_alpha  90.239091
_cell_angle_beta   89.850022
_cell_angle_gamma 120.34036
loop_
_atom_site_label
_atom_site_type_symbol
_atom_site_fract_x
_atom_site_fract_y
_atom_site_fract_z
_atom_type_partial_charge
Co0 Co 0.99651 0.72821 0.25895 0.0
O1 O 0.95177 0.69411 0.24667 0.0
O2 O 0.97429 0.74585 0.2282 0.0
C3 C 0.99462 0.71759 0.3171 0.0
O4 O 0.04371 0.76904 0.26989 0.0
Co5 Co 0.04148 0.69962 0.28429 0.0
O6 O 0.07249 0.74706 0.29595 0.0
C7 C 0.02582 0.69735 0.20879 0.0
C8 C 0.94861 0.7155 0.22781 0.0
C9 C 0.06983 0.77193 0.28637 0.0
O10 O 1.01359 0.71626 0.21526 0.0
O11 O 0.03537 0.68499 0.2333 0.0
O12 O 0.98215 0.73535 0.30549 0.0
O13 O 1.00192 0.70252 0.29289 0.0
Co14 Co 0.29214 0.26085 0.2651 0.0
O15 O 0.27475 0.29053 0.27173 0.0
O16 O 0.24487 0.23638 0.28008 0.0
C17 C 0.3172 0.28255 0.21336 0.0
O18 O 0.30445 0.22373 0.25848 0.0
Co19 Co 0.36965 0.29441 0.26569 0.0
O20 O 0.36016 0.25047 0.24741 0.0
C21 C 0.33183 0.29626 0.32741 0.0
C22 C 0.24649 0.26529 0.28101 0.0
C23 C 0.33158 0.22399 0.24865 0.0
O24 O 0.30699 0.26908 0.31582 0.0
O25 O 0.35911 0.31227 0.30976 0.0
O26 O 0.28566 0.25986 0.21397 0.0
O27 O 0.3313 0.29344 0.24391 0.0
Co28 Co 0.78228 0.02168 0.20247 0.0
O29 O 0.75001 0.97568 0.2115 0.0
O30 O 0.80315 0.99858 0.22591 0.0
C31 C 0.76693 0.0237 0.14695 0.0
O32 O 0.82166 0.06989 0.19317 0.0
Co33 Co 0.75093 0.06657 0.19299 0.0
O34 O 0.7962 0.09787 0.17437 0.0
C35 C 0.75413 0.04387 0.26407 0.0
C36 C 0.77326 0.97213 0.22586 0.0
C37 C 0.82234 0.09575 0.17887 0.0
O38 O 0.77292 0.03362 0.25089 0.0
O39 O 0.74007 0.05604 0.24496 0.0
O40 O 0.7866 0.01193 0.15312 0.0
O41 O 0.75321 0.0286 0.17461 0.0
Co42 Co 0.01526 0.30789 0.76727 0.0
O43 O 0.06192 0.3382 0.77486 0.0
O44 O 0.03747 0.28619 0.79211 0.0
C45 C 0.01417 0.32308 0.71158 0.0
O46 O 0.96512 0.27174 0.75977 0.0
Co47 Co 0.9781 0.3475 0.75899 0.0
O48 O 0.94065 0.30221 0.74652 0.0
C49 C 0.01498 0.35139 0.8224 0.0
C50 C 0.06463 0.3156 0.79148 0.0
C51 C 0.93964 0.27428 0.74925 0.0
O52 O 1.0059 0.32122 0.81448 0.0
O53 O 1.00825 0.36903 0.80171 0.0
O54 O 0.02303 0.30108 0.71784 0.0
O55 O 1.01117 0.33799 0.73913 0.0
Co56 Co 0.74486 0.69738 0.7454 0.0
O57 O 0.76342 0.66987 0.73225 0.0
O58 O 0.77702 0.7173 0.70588 0.0
C59 C 0.74916 0.69544 0.80444 0.0
O60 O 0.72953 0.73188 0.75454 0.0
Co61 Co 0.67746 0.66267 0.78714 0.0
O62 O 0.69058 0.70947 0.7982 0.0
C63 C 0.67617 0.65564 0.70969 0.0
C64 C 0.78048 0.69113 0.70758 0.0
C65 C 0.71045 0.734 0.77872 0.0
O66 O 0.70818 0.67371 0.70984 0.0
O67 O 0.65833 0.64725 0.73802 0.0
O68 O 0.7752 0.71602 0.78582 0.0
O69 O 0.72377 0.67358 0.78628 0.0
Co70 Co 0.32238 0.06411 0.72613 0.0
O71 O 0.34963 0.10923 0.70966 0.0
O72 O 0.29581 0.07871 0.69836 0.0
C73 C 0.34322 0.07563 0.7814 0.0
O74 O 0.28766 0.01577 0.74271 0.0
Co75 Co 0.36169 0.02897 0.74643 0.0
O76 O 0.31753 0.99279 0.76298 0.0
C77 C 0.35922 0.04709 0.67276 0.0
C78 C 0.32364 0.10721 0.69484 0.0
C79 C 0.28979 0.99164 0.75773 0.0
O80 O 0.33279 0.04778 0.68127 0.0
O81 O 0.37723 0.04324 0.69593 0.0
O82 O 0.31895 0.08053 0.77257 0.0
O83 O 0.35593 0.06691 0.75575 0.0
Co84 Co 0.67463 0.0716 0.57005 0.0
O85 O 0.63329 0.04277 0.54518 0.0
O86 O 0.65757 0.09734 0.54498 0.0
C87 C 0.65561 0.04194 0.62045 0.0
O88 O 0.71808 0.10825 0.59578 0.0
Co89 Co 0.71505 0.03967 0.59752 0.0
O90 O 0.74475 0.08332 0.61959 0.0
C91 C 0.71208 0.05086 0.52052 0.0
C92 C 0.63207 0.06865 0.53555 0.0
C93 C 0.74228 0.10903 0.61437 0.0
O94 O 0.70029 0.07019 0.5271 0.0
O95 O 0.71636 0.03404 0.54475 0.0
O96 O 0.64953 0.06566 0.61358 0.0
O97 O 0.6717 0.03597 0.59617 0.0
Co98 Co 0.97168 0.59547 0.57325 0.0
O99 O 1.00357 0.5812 0.56543 0.0
O100 O 0.96124 0.56794 0.52946 0.0
C101 C 0.96406 0.58337 0.63119 0.0
O102 O 0.93437 0.60786 0.57643 0.0
Co103 Co 0.99719 0.65646 0.62579 0.0
O104 O 0.94983 0.64476 0.62238 0.0
C105 C 0.02122 0.66781 0.5522 0.0
C106 C 0.98803 0.56639 0.53656 0.0
C107 C 0.92885 0.62615 0.59873 0.0
O108 O 1.00074 0.6369 0.54514 0.0
O109 O 0.02544 0.68051 0.58344 0.0
O110 O 0.94714 0.55973 0.60824 0.0
O111 O 0.98709 0.61123 0.61837 0.0
Co112 Co 0.44271 0.40434 0.57379 0.0
O113 O 0.46766 0.45072 0.56069 0.0
O114 O 0.46952 0.41068 0.53071 0.0
C115 C 0.45403 0.41175 0.63199 0.0
O116 O 0.41945 0.35314 0.58193 0.0
Co117 Co 0.3819 0.38277 0.62501 0.0
O118 O 0.38572 0.34227 0.62982 0.0
C119 C 0.37498 0.39385 0.54959 0.0
C120 C 0.47918 0.44228 0.53371 0.0
C121 C 0.4001 0.33339 0.60686 0.0
O122 O 0.40442 0.39851 0.54388 0.0
O123 O 0.36157 0.38875 0.58053 0.0
O124 O 0.4755 0.41064 0.61041 0.0
O125 O 0.42925 0.41227 0.61722 0.0
Co126 Co 0.65947 0.62961 0.09551 0.0
O127 O 0.61317 0.61361 0.08466 0.0
O128 O 0.64149 0.59172 0.06163 0.0
C129 C 0.65797 0.63378 0.15462 0.0
O130 O 0.70907 0.64205 0.10365 0.0
Co131 Co 0.6971 0.7023 0.12565 0.0
O132 O 0.73282 0.69153 0.13296 0.0
C133 C 0.68525 0.69281 0.04952 0.0
C134 C 0.61341 0.5919 0.06327 0.0
C135 C 0.73407 0.6666 0.12048 0.0
O136 O 0.67311 0.66142 0.05441 0.0
O137 O 0.69449 0.71398 0.07499 0.0
O138 O 0.64803 0.60482 0.14005 0.0
O139 O 0.66141 0.65684 0.13292 0.0
Co140 Co 0.40843 0.02949 0.08142 0.0
O141 O 0.42126 1.00384 0.05154 0.0
O142 O 0.45729 0.04899 0.08088 0.0
C143 C 0.36835 0.98476 0.11012 0.0
O144 O 0.40219 0.06174 0.11554 0.0
Co145 Co 0.33499 0.01577 0.07409 0.0
O146 O 0.34783 0.04808 0.11347 0.0
C147 C 0.38691 0.05725 0.02105 0.0
C148 C 0.45202 0.02431 0.05991 0.0
C149 C 0.37742 0.06565 0.12553 0.0
O150 O 0.40997 0.0562 0.03885 0.0
O151 O 0.35588 0.04139 0.0294 0.0
O152 O 0.39923 0.99874 0.12039 0.0
O153 O 0.36281 0.99656 0.08158 0.0
Co154 Co 1.00928 0.39364 0.06409 0.0
O155 O 0.03147 0.44052 0.05311 0.0
O156 O 0.99502 0.4014 0.01729 0.0
C157 C 0.99807 0.39976 0.12038 0.0
O158 O 0.9814 0.34178 0.07037 0.0
Co159 Co 0.04529 0.37372 0.12017 0.0
O160 O 1.0023 0.33059 0.11954 0.0
C161 C 0.07309 0.39204 0.04886 0.0
C162 C 0.01598 0.43307 0.02301 0.0
C163 C 0.98035 0.32149 0.09498 0.0
O164 O 0.04591 0.3908 0.03957 0.0
O165 O 0.07985 0.38828 0.08096 0.0
O166 O 0.97791 0.39796 0.09528 0.0
O167 O 0.0253 0.40095 0.11032 0.0
Co168 Co 0.33106 0.37773 0.92149 0.0
O169 O 0.28566 0.34875 0.90498 0.0
O170 O 0.31447 0.4027 0.8948 0.0
C171 C 0.32291 0.35932 0.97732 0.0
O172 O 0.37896 0.41465 0.93673 0.0
Co173 Co 0.37048 0.34297 0.94659 0.0
O174 O 0.40312 0.38854 0.9634 0.0
C175 C 0.3635 0.3511 0.87014 0.0
C176 C 0.28629 0.37454 0.89137 0.0
C177 C 0.40341 0.41513 0.95431 0.0
O178 O 0.34949 0.36841 0.8771 0.0
O179 O 0.37071 0.33611 0.89397 0.0
O180 O 0.31511 0.3815 0.96839 0.0
O181 O 0.33086 0.34614 0.95167 0.0
Co182 Co 0.61097 0.92941 0.89314 0.0
O183 O 0.59229 0.95655 0.90708 0.0
O184 O 0.58557 0.91335 0.93801 0.0
C185 C 0.59705 0.92528 0.83578 0.0
O186 O 0.62684 0.89549 0.88265 0.0
Co187 Co 0.67127 0.96382 0.83985 0.0
O188 O 0.66465 0.91835 0.83774 0.0
C189 C 0.68032 0.98572 0.91374 0.0
C190 C 0.57985 0.93803 0.93489 0.0
C191 C 0.64644 0.8942 0.85851 0.0
O192 O 0.6523 0.9595 0.92124 0.0
O193 O 0.69157 0.99391 0.88199 0.0
O194 O 0.5747 0.90555 0.85865 0.0
O195 O 0.62462 0.94875 0.84901 0.0
Co196 Co 0.10283 0.69903 0.88984 0.0
O197 O 0.07572 0.65318 0.90436 0.0
O198 O 0.13052 0.68022 0.9066 0.0
C199 C 0.07356 0.6892 0.83911 0.0
O200 O 0.13731 0.74817 0.87529 0.0
Co201 Co 0.06605 0.73798 0.88411 0.0
O202 O 0.10713 0.77212 0.86005 0.0
C203 C 0.07627 0.71629 0.95376 0.0
C204 C 0.10233 0.65256 0.91228 0.0
C205 C 0.13483 0.77268 0.8619 0.0
O206 O 0.09926 0.71262 0.9393 0.0
O207 O 0.05773 0.72408 0.93585 0.0
O208 O 0.09961 0.68572 0.84071 0.0
O209 O 0.06552 0.69786 0.86866 0.0
Co210 Co 0.36327 0.96376 0.39559 0.0
O211 O 0.4115 0.9855 0.39715 0.0
O212 O 0.37821 0.94914 0.43714 0.0
C213 C 0.35536 0.95121 0.33793 0.0
O214 O 0.31126 0.93614 0.39866 0.0
Co215 Co 0.33639 1.00308 0.35363 0.0
O216 O 0.2938 0.96014 0.35807 0.0
C217 C 0.36671 0.02782 0.42235 0.0
C218 C 0.40872 0.97035 0.42689 0.0
C219 C 0.28812 0.93651 0.37932 0.0
O220 O 0.36577 1.00007 0.42647 0.0
O221 O 0.358 0.03607 0.39363 0.0
O222 O 0.36062 0.93238 0.35941 0.0
O223 O 0.36121 0.97948 0.35102 0.0
Co224 Co 0.06328 0.35729 0.40429 0.0
O225 O 0.06962 0.32146 0.38866 0.0
O226 O 0.10247 0.37318 0.3718 0.0
C227 C 0.05685 0.34438 0.46208 0.0
O228 O 0.06045 0.39935 0.41788 0.0
Co229 Co 0.99123 0.33053 0.43687 0.0
O230 O 1.01054 0.3787 0.44638 0.0
C231 C 1.00244 0.34321 0.36003 0.0
C232 C 0.09525 0.34212 0.37035 0.0
C233 C 0.03777 0.40309 0.43452 0.0
O234 O 0.03297 0.35035 0.36311 0.0
O235 O 0.98128 0.33317 0.38557 0.0
O236 O 0.08669 0.36165 0.44883 0.0
O237 O 0.03287 0.33115 0.43927 0.0
Co238 Co 0.68633 0.73132 0.41568 0.0
O239 O 0.7123 0.77835 0.4043 0.0
O240 O 0.66728 0.74197 0.37486 0.0
C241 C 0.68367 0.73446 0.47498 0.0
O242 O 0.65314 0.68049 0.42193 0.0
Co243 Co 0.72314 0.70213 0.45832 0.0
O244 O 0.67777 0.66225 0.46044 0.0
C245 C 0.73691 0.71409 0.38291 0.0
C246 C 0.69224 0.77251 0.37772 0.0
C247 C 0.65263 0.65741 0.44191 0.0
O248 O 0.71428 0.72226 0.38171 0.0
O249 O 0.74617 0.70661 0.41175 0.0
O250 O 0.66361 0.73944 0.45508 0.0
O251 O 0.70794 0.73416 0.45825 0.0
H252 H 1.00981 0.72013 0.14893 0.0
H253 H 0.05503 0.66264 0.18351 0.0
H254 H 0.06993 0.65889 0.12123 0.0
H255 H 0.97727 0.67626 0.06291 0.0
H256 H 0.9862 0.71406 0.04033 0.0
H257 H 0.97585 0.70911 0.08715 0.0
H258 H 0.031 0.76408 0.10068 0.0
H259 H 0.04177 0.76901 0.05406 0.0
H260 H 0.07024 0.76852 0.08641 0.0
H261 H 0.08504 0.66623 0.05719 0.0
H262 H 0.09661 0.68114 -0.00613 0.0
H263 H 0.04112 0.73348 0.00017 0.0
C264 C 0.02233 0.70623 0.14343 0.0
C265 C 0.03134 0.69177 0.17119 0.0
C266 C 0.04784 0.67393 0.16276 0.0
C267 C 0.0564 0.67164 0.12746 0.0
C268 C 0.04803 0.68704 0.10096 0.0
C269 C 0.03102 0.70364 0.10838 0.0
C270 C 0.0265 0.71942 0.07518 0.0
C271 C 0.98924 0.70377 0.06584 0.0
C272 C 0.04339 0.75751 0.07935 0.0
C273 C 0.04458 0.70995 0.04813 0.0
C274 C 0.05661 0.69112 0.06362 0.0
C275 C 0.07549 0.68068 0.04464 0.0
C276 C 0.08216 0.68958 0.00873 0.0
C277 C 0.06991 0.70868 -0.00789 0.0
C278 C 0.05071 0.71881 0.01211 0.0
H279 H 0.30992 0.30166 0.00782 0.0
H280 H 0.35175 0.40716 0.02858 0.0
H281 H 0.36655 0.39962 0.08991 0.0
H282 H 0.26923 0.27581 0.08839 0.0
H283 H 0.27522 0.24059 0.09328 0.0
H284 H 0.27439 0.25579 0.04956 0.0
H285 H 0.33259 0.26269 0.03636 0.0
H286 H 0.33381 0.2481 0.08056 0.0
H287 H 0.36723 0.28795 0.0656 0.0
H288 H 0.37286 0.38008 0.14928 0.0
H289 H 0.35931 0.34896 0.20592 0.0
H290 H 0.30879 0.25563 0.14749 0.0
C291 C 0.32258 0.32313 0.0253 0.0
C292 C 0.32981 0.35488 0.01407 0.0
C293 C 0.34582 0.38257 0.0373 0.0
C294 C 0.35483 0.37861 0.07176 0.0
C295 C 0.34735 0.34682 0.08223 0.0
C296 C 0.33096 0.31944 0.05991 0.0
C297 C 0.32081 0.28728 0.07923 0.0
C298 C 0.28266 0.2635 0.07753 0.0
C299 C 0.33975 0.27053 0.06456 0.0
C300 C 0.3324 0.30066 0.11641 0.0
C301 C 0.34909 0.33516 0.11724 0.0
C302 C 0.36023 0.35312 0.14898 0.0
C303 C 0.35255 0.3353 0.18092 0.0
C304 C 0.33306 0.30012 0.18053 0.0
C305 C 0.32398 0.28259 0.14804 0.0
H306 H 0.71036 0.01719 0.11804 0.0
H307 H 0.81373 0.04874 0.09482 0.0
H308 H 0.80473 0.05598 0.03144 0.0
H309 H 0.67912 0.96529 0.04977 0.0
H310 H 0.64505 0.97194 0.03893 0.0
H311 H 0.66154 0.97989 0.08337 0.0
H312 H 0.67289 0.04045 0.07995 0.0
H313 H 0.65608 0.03246 0.0353 0.0
H314 H 0.69752 0.06702 0.04375 0.0
H315 H 0.7827 0.04878 0.97052 0.0
H316 H 0.74852 0.0234 0.91658 0.0
H317 H 0.65845 0.99284 0.97852 0.0
C318 C 0.73129 0.02701 0.0997 0.0
C319 C 0.76271 0.0328 0.11088 0.0
C320 C 0.78949 0.04438 0.08639 0.0
C321 C 0.78469 0.04889 0.05051 0.0
C322 C 0.75292 0.04148 0.03969 0.0
C323 C 0.72659 0.03077 0.06359 0.0
C324 C 0.69365 0.01798 0.04438 0.0
C325 C 0.66841 0.98163 0.05472 0.0
C326 C 0.6792 0.04086 0.05125 0.0
C327 C 0.70524 0.02065 0.00616 0.0
C328 C 0.73964 0.03563 0.00391 0.0
C329 C 0.75582 0.03773 0.97176 0.0
C330 C 0.73625 0.02318 0.94131 0.0
C331 C 0.70099 1.00609 0.94368 0.0
C332 C 0.68545 1.00585 0.97616 0.0
H333 H 0.70388 0.07813 0.45831 0.0
H334 H 0.73982 0.0142 0.49866 0.0
H335 H 0.75274 1.00513 0.43774 0.0
H336 H 0.66578 0.03051 0.37816 0.0
H337 H 0.67801 0.06653 0.35053 0.0
H338 H 0.67114 0.06845 0.39762 0.0
H339 H 0.73079 0.11964 0.40412 0.0
H340 H 0.73779 0.11795 0.35704 0.0
H341 H 0.7662 0.11674 0.38895 0.0
H342 H 0.76181 1.00222 0.37399 0.0
H343 H 0.76853 1.00712 0.30906 0.0
H344 H 0.72743 0.07309 0.30757 0.0
C345 C 0.71459 0.06236 0.45432 0.0
C346 C 0.72079 0.04693 0.48347 0.0
C347 C 0.73475 0.02636 0.47699 0.0
C348 C 0.74219 0.02094 0.44239 0.0
C349 C 0.73561 0.03625 0.4144 0.0
C350 C 0.72228 0.05663 0.41974 0.0
C351 C 0.71809 0.07013 0.3845 0.0
C352 C 0.68105 0.05819 0.37729 0.0
C353 C 0.7395 0.10839 0.38361 0.0
C354 C 0.73133 0.05419 0.35877 0.0
C355 C 0.74113 0.0347 0.37683 0.0
C356 C 0.75439 0.01751 0.35944 0.0
C357 C 0.75819 0.02059 0.32248 0.0
C358 C 0.74878 0.04075 0.30312 0.0
C359 C 0.73485 0.05752 0.32158 0.0
H360 H 0.03821 0.65276 0.48866 0.0
H361 H 0.03456 0.73183 0.54631 0.0
H362 H 0.03817 0.75997 0.48953 0.0
H363 H 0.09107 0.70787 0.40782 0.0
H364 H 0.06711 0.67305 0.37833 0.0
H365 H 0.07668 0.66599 0.42294 0.0
H366 H 1.01354 0.62582 0.43393 0.0
H367 H 1.00346 0.63357 0.39022 0.0
H368 H 0.98479 0.64096 0.42883 0.0
H369 H 0.0237 0.76903 0.42875 0.0
H370 H 1.00187 0.76357 0.36749 0.0
H371 H 0.01519 0.67882 0.349 0.0
C372 C 0.04012 0.67697 0.48929 0.0
C373 C 0.03602 0.69016 0.52155 0.0
C374 C 0.03807 0.72156 0.52178 0.0
C375 C 0.03999 0.73766 0.48961 0.0
C376 C 0.04074 0.72235 0.45782 0.0
C377 C 0.04211 0.69326 0.45744 0.0
C378 C 0.03746 0.67899 0.42016 0.0
C379 C 0.07003 0.68165 0.4065 0.0
C380 C 1.00807 0.64273 0.41822 0.0
C381 C 0.0298 0.70255 0.40037 0.0
C382 C 0.03261 0.72788 0.42224 0.0
C383 C 0.02254 0.75003 0.41102 0.0
C384 C 1.00966 0.7464 0.37646 0.0
C385 C 1.00685 0.72071 0.35378 0.0
C386 C 0.01743 0.69887 0.36579 0.0
H387 H 0.39646 0.42238 0.48527 0.0
H388 H 0.30787 0.35092 0.54249 0.0
H389 H 0.28078 0.3245 0.48566 0.0
H390 H 0.35159 0.41897 0.39427 0.0
H391 H 0.38708 0.42212 0.37081 0.0
H392 H 0.39305 0.44415 0.41238 0.0
H393 H 0.42474 0.41595 0.43685 0.0
H394 H 0.41773 0.39263 0.39651 0.0
H395 H 0.40388 0.37104 0.43849 0.0
H396 H 0.27188 0.29487 0.42842 0.0
H397 H 0.27873 0.26895 0.37394 0.0
H398 H 0.37481 0.35786 0.35452 0.0
C399 C 0.37058 0.4025 0.48545 0.0
C400 C 0.35427 0.38846 0.5179 0.0
C401 C 0.32063 0.36222 0.51773 0.0
C402 C 0.30511 0.34695 0.48549 0.0
C403 C 0.32347 0.35877 0.45399 0.0
C404 C 0.3552 0.38677 0.45357 0.0
C405 C 0.37254 0.39045 0.41821 0.0
C406 C 0.37626 0.42071 0.39769 0.0
C407 C 0.40668 0.39259 0.42285 0.0
C408 C 0.34734 0.35827 0.40047 0.0
C409 C 0.31867 0.34093 0.42079 0.0
C410 C 0.29372 0.3087 0.41173 0.0
C411 C 0.29809 0.29397 0.38105 0.0
C412 C 0.32753 0.31127 0.36024 0.0
C413 C 0.35209 0.34395 0.36994 0.0
H414 H 0.03018 0.31922 0.87285 0.0
H415 H 0.04997 0.41752 0.84247 0.0
H416 H 0.08816 0.44183 0.89392 0.0
H417 H 0.02058 0.32554 0.95947 0.0
H418 H 0.04001 0.30238 0.97413 0.0
H419 H 0.02221 0.29531 0.93047 0.0
H420 H 0.07957 0.3086 0.90365 0.0
H421 H 0.09741 0.31653 0.94785 0.0
H422 H 0.11651 0.34786 0.91372 0.0
H423 H 0.11546 0.45398 0.95253 0.0
H424 H 0.11465 0.45069 0.01783 0.0
H425 H 0.07745 0.34497 0.01171 0.0
C426 C 0.043 0.34598 0.8766 0.0
C427 C 0.03701 0.36646 0.8537 0.0
C428 C 0.05402 0.40129 0.85976 0.0
C429 C 0.07632 0.41537 0.88849 0.0
C430 C 0.0817 0.39439 0.91058 0.0
C431 C 0.06515 0.36032 0.90508 0.0
C432 C 0.07009 0.34238 0.93594 0.0
C433 C 0.03623 0.31486 0.95089 0.0
C434 C 0.09221 0.328 0.92461 0.0
C435 C 0.08849 0.37122 0.96175 0.0
C436 C 0.0971 0.40134 0.94559 0.0
C437 C 0.10963 0.43078 0.96523 0.0
C438 C 0.10964 0.42882 0.00248 0.0
C439 C 0.09602 0.39752 0.01942 0.0
C440 C 0.08884 0.36917 -0.00097 0.0
H441 H 0.65587 0.65737 0.98953 0.0
H442 H 0.734 0.75436 0.02639 0.0
H443 H 0.7573 0.76775 0.96534 0.0
H444 H 0.70452 0.63945 0.93995 0.0
H445 H 0.67574 0.61861 0.90376 0.0
H446 H 0.66005 0.61938 0.94743 0.0
H447 H 0.6272 0.64639 0.9224 0.0
H448 H 0.64176 0.64461 0.87824 0.0
H449 H 0.64873 0.68375 0.89594 0.0
H450 H 0.77793 0.76588 0.90345 0.0
H451 H 0.78964 0.75187 0.84335 0.0
H452 H 0.6987 0.65536 0.84904 0.0
C453 C 0.67712 0.68194 0.98447 0.0
C454 C 0.69319 0.70481 0.01254 0.0
C455 C 0.7211 0.73661 0.00509 0.0
C456 C 0.73463 0.74435 0.97056 0.0
C457 C 0.71955 0.72017 0.94399 0.0
C458 C 0.69087 0.68993 0.95039 0.0
C459 C 0.68127 0.66686 0.91858 0.0
C460 C 0.68037 0.63417 0.92803 0.0
C461 C 0.64775 0.66002 0.90286 0.0
C462 C 0.70995 0.68811 0.89393 0.0
C463 C 0.73159 0.71894 0.90871 0.0
C464 C 0.76083 0.74204 0.89135 0.0
C465 C 0.76752 0.73369 0.85752 0.0
C466 C 0.74508 0.7025 0.84176 0.0
C467 C 0.71625 0.67941 0.86047 0.0
H468 H 0.40928 0.04409 0.96021 0.0
H469 H 0.38057 0.11075 0.00822 0.0
H470 H 0.37897 0.13247 0.94881 0.0
H471 H 0.45488 0.09899 0.87667 0.0
H472 H 0.43792 0.06198 0.84933 0.0
H473 H 0.44894 0.06061 0.89517 0.0
H474 H 0.38902 0.01152 0.90645 0.0
H475 H 0.37745 0.0132 0.86122 0.0
H476 H 0.35378 0.01686 0.89741 0.0
H477 H 0.36419 0.13443 0.88745 0.0
H478 H 0.3415 0.12028 0.82656 0.0
H479 H 0.37877 0.05183 0.81579 0.0
C480 C 0.40474 0.06471 0.95801 0.0
C481 C 0.39581 0.07653 0.98825 0.0
C482 C 0.38814 0.10215 0.98503 0.0
C483 C 0.38726 0.1146 0.95147 0.0
C484 C 0.39396 0.10093 0.92162 0.0
C485 C 0.40317 0.07692 0.92448 0.0
C486 C 0.40265 0.06178 0.8884 0.0
C487 C 0.43822 0.07143 0.8767 0.0
C488 C 0.37932 0.02361 0.88841 0.0
C489 C 0.38886 0.07881 0.86554 0.0
C490 C 0.38493 0.10193 0.88509 0.0
C491 C 0.36821 0.11732 0.87147 0.0
C492 C 0.355 0.10878 0.83708 0.0
C493 C 0.35865 0.08512 0.81674 0.0
C494 C 0.37639 0.07051 0.83076 0.0
H495 H 0.32221 0.04605 0.61567 0.0
H496 H 0.41912 0.05961 0.64414 0.0
H497 H 0.43612 0.06982 0.5808 0.0
H498 H 0.31132 0.99985 0.53963 0.0
H499 H 0.29026 0.01701 0.5148 0.0
H500 H 0.28837 0.01615 0.56264 0.0
H501 H 0.31183 0.08005 0.56328 0.0
H502 H 0.3145 0.08108 0.51523 0.0
H503 H 0.35109 0.10736 0.5416 0.0
H504 H 0.44009 0.07171 0.51498 0.0
H505 H 0.42791 0.05688 0.45142 0.0
H506 H 0.32875 0.04248 0.4652 0.0
C507 C 0.34722 0.05164 0.60874 0.0
C508 C 0.3694 0.05214 0.63488 0.0
C509 C 0.40168 0.05902 0.62456 0.0
C510 C 0.41171 0.06532 0.58874 0.0
C511 C 0.38925 0.06485 0.5637 0.0
C512 C 0.35754 0.05782 0.57321 0.0
C513 C 0.33664 0.05454 0.54084 0.0
C514 C 0.3048 0.01983 0.53939 0.0
C515 C 0.32802 0.08243 0.54021 0.0
C516 C 0.36096 0.05906 0.51137 0.0
C517 C 0.39157 0.06608 0.52521 0.0
C518 C 0.41669 0.06725 0.50372 0.0
C519 C 0.4097 0.05911 0.4676 0.0
C520 C 0.37784 0.04976 0.45352 0.0
C521 C 0.35377 0.05122 0.47517 0.0
H522 H 0.98536 0.28355 0.65437 0.0
H523 H 0.04292 0.38666 0.68833 0.0
H524 H 0.05457 0.40455 0.62536 0.0
H525 H 0.03435 0.28464 0.59093 0.0
H526 H 1.00356 0.25897 0.55809 0.0
H527 H 0.9924 0.25432 0.60448 0.0
H528 H 0.94408 0.26566 0.5919 0.0
H529 H 0.95414 0.26896 0.54503 0.0
H530 H 0.95239 0.3024 0.56752 0.0
H531 H 0.0724 0.40911 0.5625 0.0
H532 H 0.08598 0.40156 0.50058 0.0
H533 H 1.01248 0.29617 0.50599 0.0
C534 C 0.99913 0.30993 0.64822 0.0
C535 C 1.01336 0.33389 0.67549 0.0
C536 C 0.03161 0.36819 0.66731 0.0
C537 C 0.03835 0.37849 0.63176 0.0
C538 C 0.02554 0.3541 0.60521 0.0
C539 C 1.00518 0.32059 0.6129 0.0
C540 C 0.99698 0.29923 0.57977 0.0
C541 C 1.00748 0.27277 0.58358 0.0
C542 C 0.95968 0.28312 0.5705 0.0
C543 C 0.01844 0.3256 0.55294 0.0
C544 C 0.03449 0.35713 0.56806 0.0
C545 C 0.05911 0.38481 0.54993 0.0
C546 C 0.06707 0.38022 0.51517 0.0
C547 C 0.05015 0.34829 0.49915 0.0
C548 C 0.02532 0.32081 0.51794 0.0
H549 H 0.71474 0.71 0.51557 0.0
H550 H 0.62995 0.7255 0.51539 0.0
H551 H 0.61101 0.69539 0.57296 0.0
H552 H 0.66789 0.62515 0.55145 0.0
H553 H 0.70339 0.63006 0.57627 0.0
H554 H 0.70957 0.65199 0.53478 0.0
H555 H 0.74795 0.7088 0.56597 0.0
H556 H 0.74318 0.68708 0.60698 0.0
H557 H 0.73299 0.71971 0.60529 0.0
H558 H 0.60574 0.66892 0.63379 0.0
H559 H 0.61775 0.65391 0.69289 0.0
H560 H 0.70099 0.64865 0.64737 0.0
C561 C 0.692 0.70691 0.52731 0.0
C562 C 0.67377 0.71999 0.51097 0.0
C563 C 0.64438 0.71572 0.52759 0.0
C564 C 0.63321 0.69827 0.55997 0.0
C565 C 0.65124 0.68457 0.57462 0.0
C566 C 0.67997 0.68869 0.5586 0.0
C567 C 0.69578 0.67279 0.57985 0.0
C568 C 0.69406 0.64323 0.55937 0.0
C569 C 0.73208 0.69863 0.59015 0.0
C570 C 0.67281 0.66101 0.61179 0.0
C571 C 0.64684 0.6674 0.6082 0.0
C572 C 0.62539 0.66296 0.63656 0.0
C573 C 0.63214 0.65406 0.66999 0.0
C574 C 0.66023 0.65004 0.67446 0.0
C575 C 0.67908 0.65112 0.64444 0.0
H576 H 0.36896 0.39327 0.81697 0.0
H577 H 0.3891 0.31385 0.84186 0.0
H578 H 0.41996 0.32422 0.785 0.0
H579 H 0.35765 0.37837 0.72226 0.0
H580 H 0.37744 0.42225 0.71243 0.0
H581 H 0.35583 0.40661 0.75411 0.0
H582 H 0.40989 0.44904 0.78767 0.0
H583 H 0.43198 0.46391 0.74605 0.0
H584 H 0.44806 0.4485 0.78012 0.0
H585 H 0.44989 0.34474 0.7254 0.0
H586 H 0.4696 0.36889 0.66517 0.0
H587 H 0.43123 0.43562 0.68281 0.0
C588 C 0.37925 0.37754 0.81033 0.0
C589 C 0.37658 0.35275 0.83386 0.0
C590 C 0.39082 0.33303 0.82417 0.0
C591 C 0.40862 0.33889 0.79211 0.0
C592 C 0.41207 0.36466 0.77036 0.0
C593 C 0.39735 0.3833 0.77891 0.0
C594 C 0.40453 0.40955 0.7513 0.0
C595 C 0.37193 0.40383 0.73399 0.0
C596 C 0.42482 0.44483 0.76726 0.0
C597 C 0.42531 0.40259 0.72556 0.0
C598 C 0.42976 0.37685 0.73697 0.0
C599 C 0.4469 0.36518 0.71638 0.0
C600 C 0.45841 0.37928 0.68252 0.0
C601 C 0.45226 0.40434 0.67 0.0
C602 C 0.43666 0.41685 0.69225 0.0
H603 H 0.67539 1.00402 0.6558 0.0
H604 H 0.59491 0.02558 0.6478 0.0
H605 H 0.56308 0.98328 0.69372 0.0
H606 H 0.62294 0.91285 0.67985 0.0
H607 H 0.65373 0.91614 0.71147 0.0
H608 H 0.66669 0.9418 0.67202 0.0
H609 H 0.69786 0.99518 0.7111 0.0
H610 H 0.68576 0.96959 0.75021 0.0
H611 H 0.67543 1.00202 0.74639 0.0
H612 H 0.54344 0.94497 0.74489 0.0
H613 H 0.54338 0.92368 0.80521 0.0
H614 H 0.63765 0.92933 0.78236 0.0
C615 C 0.65076 0.9992 0.66334 0.0
C616 C 0.63739 0.01767 0.64849 0.0
C617 C 0.60553 0.01161 0.65925 0.0
C618 C 0.58704 0.98724 0.68475 0.0
C619 C 0.60089 0.96936 0.69918 0.0
C620 C 0.63232 0.97548 0.6893 0.0
C621 C 0.6443 0.95773 0.71343 0.0
C622 C 0.64706 0.93051 0.69296 0.0
C623 C 0.67777 0.98262 0.73135 0.0
C624 C 0.61575 0.94262 0.73985 0.0
C625 C 0.59015 0.94813 0.73015 0.0
C626 C 0.56288 0.93978 0.75245 0.0
C627 C 0.56289 0.92753 0.78652 0.0
C628 C 0.59043 0.92482 0.79779 0.0
C629 C 0.61613 0.9307 0.77373 0.0
H630 H 0.07323 0.64464 0.79224 0.0
H631 H 0.0157 0.69014 0.82588 0.0
H632 H 0.97068 0.65356 0.78364 0.0
H633 H 0.05699 0.63976 0.70331 0.0
H634 H 0.05508 0.60033 0.6971 0.0
H635 H 0.07925 0.62727 0.73297 0.0
H636 H 0.04546 0.57862 0.77732 0.0
H637 H 0.02025 0.55204 0.74126 0.0
H638 H 1.00056 0.55919 0.7791 0.0
H639 H 0.93676 0.61821 0.73213 0.0
H640 H 0.92192 0.59436 0.67147 0.0
H641 H 0.99962 0.56919 0.6754 0.0
C642 C 0.05116 0.64698 0.7909 0.0
C643 C 0.04798 0.6704 0.81197 0.0
C644 C 0.01861 0.67244 0.80962 0.0
C645 C 0.99277 0.65142 0.78623 0.0
C646 C 0.99651 0.62803 0.76632 0.0
C647 C 0.0251 0.62585 0.76851 0.0
C648 C 0.02493 0.6013 0.74201 0.0
C649 C 0.05584 0.61819 0.71739 0.0
C650 C 0.02266 0.57099 0.76108 0.0
C651 C 0.99295 0.59182 0.7224 0.0
C652 C 0.9762 0.60655 0.73754 0.0
C653 C 0.94899 0.60572 0.72069 0.0
C654 C 0.94049 0.59189 0.68637 0.0
C655 C 0.95939 0.57958 0.66958 0.0
C656 C 0.98412 0.5773 0.68866 0.0
H657 H 0.74521 0.74694 0.32121 0.0
H658 H 0.74701 0.66261 0.36723 0.0
H659 H 0.73538 0.63564 0.30818 0.0
H660 H 0.67871 0.70719 0.27847 0.0
H661 H 0.68796 0.73059 0.23761 0.0
H662 H 0.71076 0.75064 0.27738 0.0
H663 H 0.76731 0.76801 0.24699 0.0
H664 H 0.74513 0.74976 0.20598 0.0
H665 H 0.77313 0.7372 0.22388 0.0
H666 H 0.70553 0.61058 0.25165 0.0
H667 H 0.67054 0.59375 0.19742 0.0
H668 H 0.68523 0.6934 0.18934 0.0
C669 C 0.74544 0.72386 0.31818 0.0
C670 C 0.74686 0.70673 0.34843 0.0
C671 C 0.74643 0.67629 0.34416 0.0
C672 C 0.73954 0.66066 0.3107 0.0
C673 C 0.73405 0.67634 0.28202 0.0
C674 C 0.73829 0.70797 0.28506 0.0
C675 C 0.72536 0.71698 0.25242 0.0
C676 C 0.69914 0.72688 0.26209 0.0
C677 C 0.75447 0.74462 0.23105 0.0
C678 C 0.70985 0.68424 0.23256 0.0
C679 C 0.71602 0.66147 0.24935 0.0
C680 C 0.7015 0.62855 0.23761 0.0
C681 C 0.68115 0.61906 0.20721 0.0
C682 C 0.67523 0.64234 0.18926 0.0
C683 C 0.68951 0.67516 0.20242 0.0
H684 H 0.32696 0.99349 0.15255 0.0
H685 H 0.35492 0.92189 0.1199 0.0
H686 H 0.33152 0.89051 0.17526 0.0
H687 H 0.35841 0.01056 0.22354 0.0
H688 H 0.32893 0.0137 0.25249 0.0
H689 H 0.32666 0.01813 0.20557 0.0
H690 H 0.26537 0.97066 0.20454 0.0
H691 H 0.26685 0.96586 0.25216 0.0
H692 H 0.25395 0.93053 0.22297 0.0
H693 H 0.33047 0.88276 0.23853 0.0
H694 H 0.34922 0.89784 0.30071 0.0
H695 H 0.32712 0.97778 0.29602 0.0
C696 C 0.32545 0.96971 0.15622 0.0
C697 C 0.34189 0.9595 0.1323 0.0
C698 C 0.34156 0.92941 0.1379 0.0
C699 C 0.32823 0.91145 0.16935 0.0
C700 C 0.31579 0.92428 0.19496 0.0
C701 C 0.31321 0.95232 0.18827 0.0
C702 C 0.30794 0.96644 0.22261 0.0
C703 C 0.332 1.0044 0.22623 0.0
C704 C 0.27135 0.95784 0.22575 0.0
C705 C 0.31527 0.94678 0.2494 0.0
C706 C 0.31684 0.92076 0.23324 0.0
C707 C 0.32817 0.90229 0.25164 0.0
C708 C 0.33928 0.91134 0.2868 0.0
C709 C 0.33991 0.93922 0.30275 0.0
C710 C 0.32666 0.95626 0.2843 0.0
H711 H 0.96511 0.30972 0.30161 0.0
H712 H 0.02424 0.4076 0.3491 0.0
H713 H 0.01845 0.43367 0.2944 0.0
H714 H 1.00336 0.33147 0.2232 0.0
H715 H 0.96855 0.30664 0.19443 0.0
H716 H 0.96797 0.29381 0.23977 0.0
H717 H 0.9125 0.2928 0.25286 0.0
H718 H 0.91085 0.30578 0.20779 0.0
H719 H 0.90978 0.32957 0.24516 0.0
H720 H 0.01771 0.44917 0.23172 0.0
H721 H 0.02102 0.45236 0.16571 0.0
H722 H 0.96007 0.3452 0.15892 0.0
C723 C 0.97565 0.33649 0.30067 0.0
C724 C 0.99488 0.35686 0.32899 0.0
C725 C 1.00933 0.39185 0.32717 0.0
C726 C 1.00592 0.4068 0.29648 0.0
C727 C 0.9877 0.38624 0.26816 0.0
C728 C 0.97252 0.35182 0.27009 0.0
C729 C 0.95915 0.33585 0.23427 0.0
C730 C 0.97565 0.31572 0.22222 0.0
C731 C 0.9208 0.31468 0.23507 0.0
C732 C 0.97055 0.36646 0.2116 0.0
C733 C 0.98657 0.39539 0.23167 0.0
C734 C 1.00406 0.42677 0.21581 0.0
C735 C 1.00588 0.42841 0.17849 0.0
C736 C 0.99002 0.39891 0.15796 0.0
C737 C 0.9713 0.36786 0.1745 0.0
H738 H 0.26286 0.88647 0.33069 0.0
H739 H 0.23478 0.92642 0.41998 0.0
H740 H 0.17511 0.89202 0.40255 0.0
H741 H 0.20695 0.88763 0.26957 0.0
H742 H 0.19732 0.84953 0.24688 0.0
H743 H 0.23713 0.87404 0.26866 0.0
H744 H 0.22681 0.82333 0.30682 0.0
H745 H 0.18758 0.79833 0.28416 0.0
H746 H 0.18865 0.80105 0.33219 0.0
H747 H 0.11807 0.85586 0.37143 0.0
H748 H 0.0691 0.81464 0.33623 0.0
H749 H 0.13505 0.79929 0.26703 0.0
C750 C 0.24394 0.8866 0.34764 0.0
C751 C 0.25335 0.90796 0.37775 0.0
C752 C 0.22803 0.90909 0.39788 0.0
C753 C 0.19412 0.89009 0.38769 0.0
C754 C 0.18583 0.87028 0.35697 0.0
C755 C 0.21006 0.8679 0.33772 0.0
C756 C 0.19503 0.84569 0.30517 0.0
C757 C 0.21001 0.8654 0.27053 0.0
C758 C 0.19978 0.81529 0.30723 0.0
C759 C 0.15848 0.83567 0.30911 0.0
C760 C 0.15364 0.85044 0.33885 0.0
C761 C 0.12173 0.84435 0.34803 0.0
C762 C 0.09402 0.82137 0.32745 0.0
C763 C 0.09826 0.80461 0.29806 0.0
C764 C 0.13111 0.81262 0.2885 0.0
H765 H 0.25119 0.3232 0.30568 0.0
H766 H 0.17879 0.21976 0.28238 0.0
H767 H 0.13295 0.23036 0.29822 0.0
H768 H 0.20774 0.33019 0.3825 0.0
H769 H 0.2194 0.3728 0.37352 0.0
H770 H 0.24614 0.35724 0.3592 0.0
H771 H 0.24369 0.37512 0.29447 0.0
H772 H 0.21658 0.39035 0.30851 0.0
H773 H 0.20367 0.35984 0.27321 0.0
H774 H 0.09521 0.25238 0.3155 0.0
H775 H 0.06762 0.28145 0.33999 0.0
H776 H 0.16406 0.37108 0.3551 0.0
C777 C 0.22565 0.30274 0.3038 0.0
C778 C 0.21856 0.27056 0.29242 0.0
C779 C 0.18486 0.24447 0.29095 0.0
C780 C 0.15869 0.2504 0.29971 0.0
C781 C 0.16657 0.28248 0.31032 0.0
C782 C 0.19927 0.30813 0.31296 0.0
C783 C 0.20096 0.33988 0.32681 0.0
C784 C 0.21966 0.35066 0.36263 0.0
C785 C 0.21719 0.36796 0.29909 0.0
C786 C 0.16399 0.32819 0.3315 0.0
C787 C 0.14476 0.29505 0.32138 0.0
C788 C 0.11007 0.27823 0.32355 0.0
C789 C 0.09462 0.29514 0.33747 0.0
C790 C 0.11349 0.3287 0.34943 0.0
C791 C 0.1488 0.3457 0.34566 0.0
H792 H 0.79013 0.95696 0.29185 0.0
H793 H 0.73286 0.91244 0.19555 0.0
H794 H 0.70634 0.85695 0.22351 0.0
H795 H 0.80192 0.88564 0.31639 0.0
H796 H 0.79708 0.89035 0.36342 0.0
H797 H 0.81424 0.92621 0.3346 0.0
H798 H 0.76874 0.93899 0.35626 0.0
H799 H 0.75113 0.90286 0.38467 0.0
H800 H 0.72526 0.90743 0.35198 0.0
H801 H 0.68174 0.80672 0.26338 0.0
H802 H 0.665 0.76444 0.31091 0.0
H803 H 0.73792 0.84001 0.38201 0.0
C804 C 0.77298 0.93533 0.2763 0.0
C805 C 0.76412 0.93902 0.24113 0.0
C806 C 0.74044 0.9102 0.22225 0.0
C807 C 0.72505 0.87852 0.238 0.0
C808 C 0.73334 0.87573 0.27298 0.0
C809 C 0.75708 0.90321 0.29185 0.0
C810 C 0.76009 0.89317 0.32968 0.0
C811 C 0.79544 0.8992 0.33641 0.0
C812 C 0.75075 0.91172 0.35727 0.0
C813 C 0.73429 0.85603 0.32904 0.0
C814 C 0.71905 0.84657 0.29608 0.0
C815 C 0.69372 0.81381 0.28924 0.0
C816 C 0.68415 0.78995 0.31652 0.0
C817 C 0.69998 0.79871 0.35029 0.0
C818 C 0.72527 0.83238 0.35651 0.0
H819 H 0.84681 0.15956 0.19933 0.0
H820 H 0.86529 0.0988 0.12569 0.0
H821 H 0.90536 0.14986 0.09225 0.0
H822 H 0.84668 0.21557 0.13783 0.0
H823 H 0.86762 0.25151 0.16662 0.0
H824 H 0.84287 0.21061 0.18562 0.0
H825 H 0.89354 0.21702 0.22239 0.0
H826 H 0.91634 0.25852 0.20538 0.0
H827 H 0.933 0.23124 0.19995 0.0
H828 H 0.94093 0.21009 0.06418 0.0
H829 H 0.97358 0.27085 0.05121 0.0
H830 H 0.93005 0.29007 0.144 0.0
C831 C 0.8602 0.15708 0.17689 0.0
C832 C 0.85366 0.12525 0.16583 0.0
C833 C 0.87082 0.123 0.13553 0.0
C834 C 0.89314 0.1519 0.11597 0.0
C835 C 0.89797 0.18291 0.12698 0.0
C836 C 0.88224 0.18541 0.15721 0.0
C837 C 0.89135 0.22104 0.1643 0.0
C838 C 0.86027 0.22488 0.16354 0.0
C839 C 0.90971 0.2326 0.20013 0.0
C840 C 0.91436 0.23874 0.13302 0.0
C841 C 0.91783 0.21644 0.11145 0.0
C842 C 0.93817 0.22752 0.08102 0.0
C843 C 0.95624 0.2621 0.07342 0.0
C844 C 0.95388 0.28542 0.09596 0.0
C845 C 0.9321 0.27314 0.12576 0.0
H846 H 0.79427 0.72091 0.13817 0.0
H847 H 0.74661 0.61395 0.12209 0.0
H848 H 0.79821 0.61599 0.144 0.0
H849 H 0.87979 0.74262 0.11403 0.0
H850 H 0.8981 0.77458 0.14786 0.0
H851 H 0.85899 0.76486 0.12749 0.0
H852 H 0.83157 0.75422 0.18991 0.0
H853 H 0.87032 0.7634 0.21062 0.0
H854 H 0.83282 0.72407 0.21898 0.0
H855 H 0.85339 0.62955 0.1732 0.0
H856 H 0.90701 0.65244 0.20486 0.0
H857 H 0.91899 0.75122 0.20219 0.0
C858 C 0.79464 0.6978 0.13856 0.0
C859 C 0.76609 0.66713 0.12808 0.0
C860 C 0.76804 0.63773 0.12937 0.0
C861 C 0.79727 0.63872 0.14202 0.0
C862 C 0.82445 0.66933 0.15303 0.0
C863 C 0.8234 0.69838 0.15106 0.0
C864 C 0.85508 0.72786 0.16619 0.0
C865 C 0.87412 0.75403 0.13716 0.0
C866 C 0.84695 0.74328 0.19833 0.0
C867 C 0.87427 0.71094 0.17764 0.0
C868 C 0.85612 0.67717 0.16967 0.0
C869 C 0.86779 0.65595 0.17913 0.0
C870 C 0.8984 0.66931 0.1973 0.0
C871 C 0.91754 0.70378 0.20604 0.0
C872 C 0.90536 0.72493 0.19555 0.0
H873 H 0.33591 0.2059 0.18076 0.0
H874 H 0.33192 0.17606 0.29069 0.0
H875 H 0.34905 0.13549 0.27191 0.0
H876 H 0.30464 0.12279 0.14044 0.0
H877 H 0.33185 0.13989 0.10231 0.0
H878 H 0.31714 0.16421 0.12512 0.0
H879 H 0.37853 0.21153 0.13336 0.0
H880 H 0.39349 0.18683 0.11179 0.0
H881 H 0.40761 0.20298 0.15611 0.0
H882 H 0.37135 0.10072 0.24023 0.0
H883 H 0.38602 0.06854 0.19822 0.0
H884 H 0.37378 0.1205 0.10939 0.0
C885 C 0.33732 0.18982 0.20067 0.0
C886 C 0.33136 0.19325 0.23708 0.0
C887 C 0.33506 0.17292 0.26256 0.0
C888 C 0.34537 0.15024 0.25212 0.0
C889 C 0.35209 0.14823 0.21605 0.0
C890 C 0.34741 0.16701 0.19065 0.0
C891 C 0.35634 0.16049 0.15365 0.0
C892 C 0.32566 0.14596 0.12893 0.0
C893 C 0.38573 0.19236 0.13781 0.0
C894 C 0.36661 0.13495 0.16197 0.0
C895 C 0.36461 0.12854 0.19816 0.0
C896 C 0.37286 0.10563 0.21188 0.0
C897 C 0.38162 0.0877 0.1879 0.0
C898 C 0.38171 0.09242 0.15062 0.0
C899 C 0.37491 0.11703 0.13782 0.0
H900 H 0.81019 0.13575 0.61214 0.0
H901 H 0.73319 0.14945 0.66118 0.0
H902 H 0.77505 0.18966 0.70405 0.0
H903 H 0.8535 0.13834 0.68945 0.0
H904 H 0.89501 0.16188 0.67095 0.0
H905 H 0.86007 0.13621 0.64229 0.0
H906 H 0.87406 0.18696 0.60229 0.0
H907 H 0.90974 0.21238 0.63016 0.0
H908 H 0.87894 0.22447 0.62243 0.0
H909 H 0.82429 0.22391 0.74545 0.0
H910 H 0.87899 0.25906 0.77433 0.0
H911 H 0.92583 0.22603 0.69694 0.0
C912 C 0.8024 0.14812 0.63115 0.0
C913 C 0.76836 0.13984 0.63283 0.0
C914 C 0.75909 0.15597 0.65866 0.0
C915 C 0.78269 0.17847 0.68349 0.0
C916 C 0.81569 0.185 0.68194 0.0
C917 C 0.82581 0.17113 0.65566 0.0
C918 C 0.86291 0.1827 0.65953 0.0
C919 C 0.86816 0.153 0.66593 0.0
C920 C 0.88257 0.20283 0.62665 0.0
C921 C 0.87207 0.2048 0.69256 0.0
C922 C 0.84425 0.20535 0.70524 0.0
C923 C 0.84615 0.22374 0.73551 0.0
C924 C 0.87737 0.24333 0.75209 0.0
C925 C 0.90678 0.24486 0.73863 0.0
C926 C 0.9038 0.22463 0.70877 0.0
H927 H 0.87721 0.59817 0.64554 0.0
H928 H 0.91471 0.66377 0.55443 0.0
H929 H 0.87777 0.68625 0.56978 0.0
H930 H 0.7892 0.58398 0.64504 0.0
H931 H 0.78834 0.58431 0.69313 0.0
H932 H 0.81214 0.56901 0.67008 0.0
H933 H 0.86478 0.61092 0.70558 0.0
H934 H 0.84153 0.62706 0.72794 0.0
H935 H 0.87885 0.65481 0.70338 0.0
H936 H 0.84324 0.70841 0.60226 0.0
H937 H 0.81066 0.72285 0.64406 0.0
H938 H 0.79734 0.64296 0.71401 0.0
C939 C 0.87618 0.61582 0.62763 0.0
C940 C 0.89794 0.62822 0.59793 0.0
C941 C 0.89718 0.65277 0.57631 0.0
C942 C 0.87663 0.6661 0.58526 0.0
C943 C 0.85684 0.65461 0.61599 0.0
C944 C 0.85595 0.62938 0.63634 0.0
C945 C 0.83521 0.62336 0.66982 0.0
C946 C 0.80439 0.58807 0.66949 0.0
C947 C 0.85637 0.62941 0.70365 0.0
C948 C 0.82527 0.64966 0.6658 0.0
C949 C 0.83775 0.66746 0.63459 0.0
C950 C 0.83299 0.69418 0.62646 0.0
C951 C 0.81467 0.70244 0.6505 0.0
C952 C 0.80134 0.68412 0.68241 0.0
C953 C 0.80691 0.65744 0.68982 0.0
H954 H 0.35766 0.17113 0.7178 0.0
H955 H 0.3005 0.11067 0.62777 0.0
H956 H 0.31734 0.1623 0.59282 0.0
H957 H 0.33781 0.23719 0.7058 0.0
H958 H 0.37868 0.26915 0.72045 0.0
H959 H 0.3609 0.22736 0.73729 0.0
H960 H 0.41366 0.22633 0.71608 0.0
H961 H 0.43111 0.26778 0.69828 0.0
H962 H 0.42585 0.23411 0.6698 0.0
H963 H 0.34476 0.22275 0.56675 0.0
H964 H 0.37109 0.28374 0.55616 0.0
H965 H 0.40758 0.30296 0.66486 0.0
C966 C 0.34808 0.16875 0.69093 0.0
C967 C 0.32739 0.13689 0.67562 0.0
C968 C 0.31574 0.13479 0.64028 0.0
C969 C 0.3256 0.16404 0.62015 0.0
C970 C 0.34683 0.19517 0.63588 0.0
C971 C 0.35722 0.19751 0.67087 0.0
C972 C 0.37928 0.23356 0.68228 0.0
C973 C 0.3632 0.24233 0.71327 0.0
C974 C 0.41456 0.24085 0.69219 0.0
C975 C 0.37992 0.25144 0.64833 0.0
C976 C 0.36158 0.22906 0.62153 0.0
C977 C 0.35905 0.24029 0.5877 0.0
C978 C 0.37449 0.27501 0.58169 0.0
C979 C 0.39194 0.29811 0.60944 0.0
C980 C 0.39495 0.28593 0.64292 0.0
H981 H 0.25274 0.92654 0.73322 0.0
H982 H 0.26439 0.9906 0.82288 0.0
H983 H 0.23022 0.94096 0.86028 0.0
H984 H 0.16384 0.8616 0.75506 0.0
H985 H 0.16958 0.82802 0.73968 0.0
H986 H 0.19318 0.86869 0.71973 0.0
H987 H 0.24782 0.86882 0.73424 0.0
H988 H 0.22443 0.82866 0.75532 0.0
H989 H 0.2567 0.86353 0.77978 0.0
H990 H 0.2005 0.88439 0.89001 0.0
H991 H 0.16543 0.82508 0.90655 0.0
H992 H 0.16775 0.79608 0.7971 0.0
C993 C 0.24676 0.93004 0.76026 0.0
C994 C 0.26041 0.96267 0.77478 0.0
C995 C 0.25325 0.96607 0.81078 0.0
C996 C 0.23432 0.93792 0.83242 0.0
C997 C 0.2222 0.90619 0.81771 0.0
C998 C 0.22705 0.90201 0.78209 0.0
C999 C 0.21048 0.86497 0.77293 0.0
C1000 C 0.18261 0.85524 0.74521 0.0
C1001 C 0.23642 0.85598 0.75978 0.0
C1002 C 0.19615 0.84905 0.80905 0.0
C1003 C 0.20387 0.87343 0.8346 0.0
C1004 C 0.19416 0.86517 0.87011 0.0
C1005 C 0.17468 0.83131 0.87944 0.0
C1006 C 0.16466 0.80574 0.85352 0.0
C1007 C 0.17597 0.81488 0.81784 0.0
H1008 H 0.09849 0.28071 0.80946 0.0
H1009 H 0.10357 0.37633 0.81947 0.0
H1010 H 0.15971 0.4011 0.84469 0.0
H1011 H 0.14555 0.29046 0.89386 0.0
H1012 H 0.16712 0.2704 0.87592 0.0
H1013 H 0.126 0.25882 0.85986 0.0
H1014 H 0.1488 0.27173 0.79526 0.0
H1015 H 0.19008 0.28373 0.8111 0.0
H1016 H 0.18362 0.31242 0.78488 0.0
H1017 H 0.21778 0.41833 0.86277 0.0
H1018 H 0.27137 0.42409 0.88242 0.0
H1019 H 0.23038 0.318 0.86569 0.0
C1020 C 0.11122 0.30662 0.8176 0.0
C1021 C 0.0964 0.32652 0.8118 0.0
C1022 C 0.11425 0.36047 0.82286 0.0
C1023 C 0.14639 0.37499 0.83732 0.0
C1024 C 0.16093 0.35542 0.84125 0.0
C1025 C 0.14385 0.32181 0.83258 0.0
C1026 C 0.16595 0.3069 0.84012 0.0
C1027 C 0.15022 0.28005 0.86917 0.0
C1028 C 0.17249 0.29286 0.80579 0.0
C1029 C 0.19792 0.33748 0.85351 0.0
C1030 C 0.19442 0.36522 0.85357 0.0
C1031 C 0.22073 0.39667 0.86333 0.0
C1032 C 0.25125 0.39982 0.87418 0.0
C1033 C 0.25526 0.37164 0.87574 0.0
C1034 C 0.22814 0.34008 0.86497 0.0
H1035 H 0.72566 0.77668 0.83558 0.0
H1036 H 0.68077 0.75379 0.73044 0.0
H1037 H 0.65473 0.78792 0.74324 0.0
H1038 H 0.66017 0.7751 0.8829 0.0
H1039 H 0.68515 0.81048 0.91136 0.0
H1040 H 0.70251 0.78636 0.89365 0.0
H1041 H 0.75173 0.83912 0.86537 0.0
H1042 H 0.73524 0.86363 0.88414 0.0
H1043 H 0.74314 0.86505 0.83686 0.0
H1044 H 0.62754 0.81794 0.77041 0.0
H1045 H 0.61368 0.85576 0.80267 0.0
H1046 H 0.68035 0.865 0.88847 0.0
C1047 C 0.71162 0.7802 0.8147 0.0
C1048 C 0.70596 0.76331 0.78154 0.0
C1049 C 0.68636 0.76739 0.75542 0.0
C1050 C 0.67095 0.78622 0.76279 0.0
C1051 C 0.67582 0.80134 0.79626 0.0
C1052 C 0.69681 0.79977 0.82128 0.0
C1053 C 0.6985 0.81931 0.85477 0.0
C1054 C 0.68583 0.79644 0.8876 0.0
C1055 C 0.73427 0.84852 0.86062 0.0
C1056 C 0.6747 0.83163 0.84491 0.0
C1057 C 0.66132 0.82015 0.81135 0.0
C1058 C 0.63812 0.8273 0.79653 0.0
C1059 C 0.62989 0.84833 0.8154 0.0
C1060 C 0.64509 0.8626 0.84858 0.0
C1061 C 0.66737 0.85356 0.86384 0.0
H1062 H 0.54745 0.4762 0.52805 0.0
H1063 H 0.45815 0.46904 0.48322 0.0
H1064 H 0.49277 0.5213 0.44959 0.0
H1065 H 0.58945 0.56115 0.54363 0.0
H1066 H 0.63037 0.56797 0.53272 0.0
H1067 H 0.59846 0.52785 0.54828 0.0
H1068 H 0.60688 0.5009 0.49119 0.0
H1069 H 0.63848 0.54145 0.47569 0.0
H1070 H 0.60291 0.51536 0.44792 0.0
H1071 H 0.5378 0.57904 0.42673 0.0
H1072 H 0.58823 0.63445 0.41605 0.0
H1073 H 0.64735 0.60313 0.47656 0.0
C1074 C 0.5354 0.4849 0.50985 0.0
C1075 C 0.50022 0.468 0.50717 0.0
C1076 C 0.48514 0.48107 0.48464 0.0
C1077 C 0.50464 0.51089 0.46564 0.0
C1078 C 0.53934 0.5276 0.46954 0.0
C1079 C 0.55458 0.51476 0.4908 0.0
C1080 C 0.59196 0.53871 0.4929 0.0
C1081 C 0.60317 0.54956 0.53168 0.0
C1082 C 0.61119 0.52318 0.47591 0.0
C1083 C 0.59525 0.56744 0.47064 0.0
C1084 C 0.56482 0.5606 0.45696 0.0
C1085 C 0.56184 0.58439 0.43696 0.0
C1086 C 0.59064 0.61588 0.43098 0.0
C1087 C 0.62203 0.62351 0.44521 0.0
C1088 C 0.62399 0.59849 0.46496 0.0
H1089 H 0.60531 0.05226 0.46763 0.0
H1090 H 0.58405 0.06913 0.57575 0.0
H1091 H 0.52409 0.04371 0.56061 0.0
H1092 H 0.54241 0.07012 0.42493 0.0
H1093 H 0.53254 0.03916 0.39069 0.0
H1094 H 0.5739 0.06102 0.40971 0.0
H1095 H 0.56851 1.00437 0.42561 0.0
H1096 H 0.52678 0.98234 0.40763 0.0
H1097 H 0.53416 0.97528 0.4531 0.0
H1098 H 0.46496 0.00937 0.53551 0.0
H1099 H 0.41324 0.97972 0.4993 0.0
H1100 H 0.47284 0.98939 0.40593 0.0
C1101 C 0.58821 0.05195 0.48759 0.0
C1102 C 0.59957 0.06372 0.52264 0.0
C1103 C 0.57614 0.06145 0.54846 0.0
C1104 C 0.5419 0.04655 0.54021 0.0
C1105 C 0.5313 0.0343 0.50574 0.0
C1106 C 0.55392 0.03787 0.47947 0.0
C1107 C 0.53592 0.02278 0.44446 0.0
C1108 C 0.54683 0.04989 0.41575 0.0
C1109 C 0.5417 0.99452 0.43198 0.0
C1110 C 0.49967 0.00934 0.45539 0.0
C1111 C 0.49749 0.01583 0.491 0.0
C1112 C 0.46649 1.00455 0.50749 0.0
C1113 C 0.43714 0.98727 0.48685 0.0
C1114 C 0.43885 0.98182 0.44989 0.0
C1115 C 0.47065 0.99289 0.43419 0.0
H1116 H 0.98712 0.41612 0.4321 0.0
H1117 H 0.09373 0.46431 0.45165 0.0
H1118 H 0.09322 0.51489 0.47288 0.0
H1119 H 0.98379 0.49188 0.4059 0.0
H1120 H 0.9443 0.47707 0.42828 0.0
H1121 H 0.95457 0.44774 0.409 0.0
H1122 H 0.94414 0.41829 0.47011 0.0
H1123 H 0.9342 0.44762 0.48968 0.0
H1124 H 0.96681 0.4422 0.50877 0.0
H1125 H 0.07883 0.55652 0.50009 0.0
H1126 H 0.05343 0.58584 0.52958 0.0
H1127 H 0.95532 0.50977 0.4931 0.0
C1128 C 1.01065 0.43765 0.43994 0.0
C1129 C 0.04062 0.43628 0.43999 0.0
C1130 C 0.07068 0.4649 0.45074 0.0
C1131 C 0.07046 0.49362 0.46304 0.0
C1132 C 0.04006 0.49341 0.46401 0.0
C1133 C 1.01077 0.46619 0.45228 0.0
C1134 C 0.98084 0.47067 0.45887 0.0
C1135 C 0.96494 0.47192 0.4234 0.0
C1136 C 0.955 0.44306 0.48331 0.0
C1137 C 0.99748 0.50432 0.47745 0.0
C1138 C 0.03173 0.51718 0.47971 0.0
C1139 C 0.05219 0.5468 0.4979 0.0
C1140 C 0.0374 0.56325 0.5147 0.0
C1141 C 1.00232 0.5503 0.51352 0.0
C1142 C 0.98221 0.52073 0.49388 0.0
H1143 H 0.46306 0.42374 0.97914 0.0
H1144 H 0.41354 0.47943 0.95441 0.0
H1145 H 0.46357 0.5311 0.976 0.0
H1146 H 0.50148 0.4655 0.05934 0.0
H1147 H 0.53942 0.46444 0.05219 0.0
H1148 H 0.50074 0.43262 0.03292 0.0
H1149 H 0.52796 0.44615 0.97021 0.0
H1150 H 0.56679 0.47806 0.98928 0.0
H1151 H 0.5474 0.48826 0.95373 0.0
H1152 H 0.51772 0.57585 0.00464 0.0
H1153 H 0.57108 0.61017 0.03625 0.0
H1154 H 0.58648 0.52567 0.04082 0.0
C1155 C 0.46258 0.44676 0.97791 0.0
C1156 C 0.43396 0.44726 0.96498 0.0
C1157 C 0.43493 0.47819 0.96395 0.0
C1158 C 0.46331 0.50769 0.97624 0.0
C1159 C 0.49078 0.50603 0.98916 0.0
C1160 C 0.49068 0.47632 0.98979 0.0
C1161 C 0.52293 0.48089 0.00577 0.0
C1162 C 0.5157 0.4596 0.03956 0.0
C1163 C 0.54242 0.47286 0.97809 0.0
C1164 C 0.54123 0.51784 0.01476 0.0
C1165 C 0.52218 0.53183 0.00487 0.0
C1166 C 0.53285 0.56514 0.01206 0.0
C1167 C 0.56328 0.58444 0.03013 0.0
C1168 C 0.58325 0.5708 0.04082 0.0
C1169 C 0.57221 0.53706 0.03244 0.0
H1170 H 0.53185 0.95352 0.92106 0.0
H1171 H 0.58805 0.94435 0.00791 0.0
H1172 H 0.56476 0.9695 0.04938 0.0
H1173 H 0.53975 0.03066 0.94612 0.0
H1174 H 0.49782 0.01939 0.93343 0.0
H1175 H 0.51861 1.00046 0.91114 0.0
H1176 H 0.46989 0.94159 0.92733 0.0
H1177 H 0.44862 0.96034 0.94889 0.0
H1178 H 0.45695 0.93194 0.97325 0.0
H1179 H 0.53745 1.0004 0.08019 0.0
H1180 H 0.50163 0.0234 0.09924 0.0
H1181 H 0.46043 1.00753 -0.00737 0.0
C1182 C 0.5387 0.95617 0.949 0.0
C1183 C 0.56146 0.94664 0.96142 0.0
C1184 C 0.57016 0.95086 -0.00197 0.0
C1185 C 0.55733 0.96552 0.02162 0.0
C1186 C 0.53541 0.97533 0.00826 0.0
C1187 C 0.52557 0.96996 0.97289 0.0
C1188 C 0.50092 0.98151 0.96506 0.0
C1189 C 0.51514 0.00967 0.93729 0.0
C1190 C 0.46709 0.95209 0.95293 0.0
C1191 C 0.4983 0.99434 0.00147 0.0
C1192 C 0.51888 0.99132 0.02599 0.0
C1193 C 0.52111 1.00253 0.06116 0.0
C1194 C 0.50098 0.01595 0.0717 0.0
C1195 C 0.47847 0.01748 0.04736 0.0
C1196 C 0.47758 1.00686 0.01176 0.0
H1197 H 0.06238 0.61673 0.96718 0.0
H1198 H 0.13099 0.61611 0.88901 0.0
H1199 H 0.11281 0.55747 0.90533 0.0
H1200 H 0.07446 0.56661 0.03452 0.0
H1201 H 0.0313 0.54633 0.04832 0.0
H1202 H 0.05127 0.58806 0.03081 0.0
H1203 H 1.00424 0.56842 0.9836 0.0
H1204 H 0.98474 0.52639 0.00022 0.0
H1205 H 0.99634 0.53463 0.95384 0.0
H1206 H 0.08223 0.49592 0.92777 0.0
H1207 H 0.05151 0.4429 0.96155 0.0
H1208 H 1.00595 0.48598 0.02717 0.0
C1209 C 0.07429 0.60455 0.95418 0.0
C1210 C 0.09858 0.6212 0.92723 0.0
C1211 C 0.11303 0.60418 0.91034 0.0
C1212 C 0.10241 0.57068 0.91912 0.0
C1213 C 0.07754 0.55464 0.94511 0.0
C1214 C 0.06439 0.57149 0.96303 0.0
C1215 C 0.0385 0.54926 0.99034 0.0
C1216 C 0.04955 0.5634 0.02824 0.0
C1217 C 1.00391 0.5444 0.98145 0.0
C1218 C 0.03889 0.51707 0.98518 0.0
C1219 C 0.06102 0.5203 0.95847 0.0
C1220 C 0.065 0.49339 0.94874 0.0
C1221 C 0.04707 0.46314 0.9677 0.0
C1222 C 0.02568 0.46002 -0.00365 0.0
C1223 C 0.0214 0.48732 0.00476 0.0
loop_
_geom_bond_atom_site_label_1
_geom_bond_atom_site_label_2
_geom_bond_distance
_geom_bond_site_symmetry_2
_ccdc_geom_bond_type
Co0 O1 2.216 1_455 S
Co0 O2 2.091 1_455 S
Co0 O4 2.004 . S
Co0 O10 2.021 . S
Co0 O12 2.137 1_455 S
Co0 O13 2.244 . S
O1 Co0 2.216 1_655 S
O1 C8 1.247 . S
O2 Co0 2.091 1_655 S
O2 C8 1.261 . S
C3 O12 1.247 . S
C3 O13 1.272 1_655 S
O4 Co0 2.004 . S
O4 C9 1.259 . S
Co5 O6 2.061 . S
Co5 O11 2.052 . S
Co5 O13 2.135 . S
O6 Co5 2.061 . S
O6 C9 1.235 . S
C7 O10 1.238 . S
C7 O11 1.241 . S
C8 O1 1.247 . S
C8 O2 1.261 . S
C9 O4 1.259 . S
C9 O6 1.235 . S
O10 Co0 2.021 . S
O10 C7 1.238 . S
O11 Co5 2.052 . S
O11 C7 1.241 . S
O12 Co0 2.137 1_655 S
O12 C3 1.247 . S
O13 Co0 2.244 . S
O13 C3 1.272 1_455 S
O13 Co5 2.135 . S
Co14 O15 2.216 . S
Co14 O16 2.091 . S
Co14 O18 2.004 . S
Co14 O24 2.021 . S
Co14 O26 2.137 . S
Co14 O27 2.244 . S
O15 Co14 2.216 . S
O15 C22 1.247 . S
O16 Co14 2.091 . S
O16 C22 1.261 . S
C17 O26 1.247 . S
C17 O27 1.272 . S
O18 Co14 2.004 . S
O18 C23 1.259 . S
Co19 O20 2.061 . S
Co19 O25 2.052 . S
Co19 O27 2.135 . S
O20 Co19 2.061 . S
O20 C23 1.235 . S
C21 O24 1.238 . S
C21 O25 1.241 . S
C22 O15 1.247 . S
C22 O16 1.261 . S
C23 O18 1.259 . S
C23 O20 1.235 . S
O24 Co14 2.021 . S
O24 C21 1.238 . S
O25 Co19 2.052 . S
O25 C21 1.241 . S
O26 Co14 2.137 . S
O26 C17 1.247 . S
O27 Co14 2.244 . S
O27 C17 1.272 . S
O27 Co19 2.135 . S
Co28 O29 2.216 1_545 S
Co28 O30 2.091 1_545 S
Co28 O32 2.004 . S
Co28 O38 2.021 . S
Co28 O40 2.137 1_545 S
Co28 O41 2.244 . S
O29 Co28 2.216 1_565 S
O29 C36 1.247 . S
O30 Co28 2.091 1_565 S
O30 C36 1.261 . S
C31 O40 1.247 . S
C31 O41 1.272 1_565 S
O32 Co28 2.004 . S
O32 C37 1.259 . S
Co33 O34 2.061 . S
Co33 O39 2.052 . S
Co33 O41 2.135 . S
O34 Co33 2.061 . S
O34 C37 1.235 . S
C35 O38 1.238 . S
C35 O39 1.241 . S
C36 O29 1.247 . S
C36 O30 1.261 . S
C37 O32 1.259 . S
C37 O34 1.235 . S
O38 Co28 2.021 . S
O38 C35 1.238 . S
O39 Co33 2.052 . S
O39 C35 1.241 . S
O40 Co28 2.137 1_565 S
O40 C31 1.247 . S
O41 Co28 2.244 . S
O41 C31 1.272 1_545 S
O41 Co33 2.135 . S
Co42 O43 2.216 . S
Co42 O44 2.091 . S
Co42 O46 2.004 1_455 S
Co42 O52 2.021 1_455 S
Co42 O54 2.137 . S
Co42 O55 2.244 . S
O43 Co42 2.216 . S
O43 C50 1.247 . S
O44 Co42 2.091 . S
O44 C50 1.261 . S
C45 O54 1.247 . S
C45 O55 1.272 . S
O46 Co42 2.004 1_655 S
O46 C51 1.259 . S
Co47 O48 2.061 . S
Co47 O53 2.052 . S
Co47 O55 2.135 1_655 S
O48 Co47 2.061 . S
O48 C51 1.235 . S
C49 O52 1.238 . S
C49 O53 1.241 . S
C50 O43 1.247 . S
C50 O44 1.261 . S
C51 O46 1.259 . S
C51 O48 1.235 . S
O52 Co42 2.021 1_655 S
O52 C49 1.238 . S
O53 Co47 2.052 . S
O53 C49 1.241 . S
O54 Co42 2.137 . S
O54 C45 1.247 . S
O55 Co42 2.244 . S
O55 C45 1.272 . S
O55 Co47 2.135 1_455 S
Co56 O57 2.216 . S
Co56 O58 2.091 . S
Co56 O60 2.004 . S
Co56 O66 2.021 . S
Co56 O68 2.137 . S
Co56 O69 2.244 . S
O57 Co56 2.216 . S
O57 C64 1.247 . S
O58 Co56 2.091 . S
O58 C64 1.261 . S
C59 O68 1.247 . S
C59 O69 1.272 . S
O60 Co56 2.004 . S
O60 C65 1.259 . S
Co61 O62 2.061 . S
Co61 O67 2.052 . S
Co61 O69 2.135 . S
O62 Co61 2.061 . S
O62 C65 1.235 . S
C63 O66 1.238 . S
C63 O67 1.241 . S
C64 O57 1.247 . S
C64 O58 1.261 . S
C65 O60 1.259 . S
C65 O62 1.235 . S
O66 Co56 2.021 . S
O66 C63 1.238 . S
O67 Co61 2.052 . S
O67 C63 1.241 . S
O68 Co56 2.137 . S
O68 C59 1.247 . S
O69 Co56 2.244 . S
O69 C59 1.272 . S
O69 Co61 2.135 . S
Co70 O71 2.216 . S
Co70 O72 2.091 . S
Co70 O74 2.004 1_545 S
Co70 O80 2.021 1_545 S
Co70 O82 2.137 . S
Co70 O83 2.244 . S
O71 Co70 2.216 . S
O71 C78 1.247 . S
O72 Co70 2.091 . S
O72 C78 1.261 . S
C73 O82 1.247 . S
C73 O83 1.272 . S
O74 Co70 2.004 1_565 S
O74 C79 1.259 . S
Co75 O76 2.061 . S
Co75 O81 2.052 . S
Co75 O83 2.135 1_565 S
O76 Co75 2.061 . S
O76 C79 1.235 . S
C77 O80 1.238 . S
C77 O81 1.241 . S
C78 O71 1.247 . S
C78 O72 1.261 . S
C79 O74 1.259 . S
C79 O76 1.235 . S
O80 Co70 2.021 1_565 S
O80 C77 1.238 . S
O81 Co75 2.052 . S
O81 C77 1.241 . S
O82 Co70 2.137 . S
O82 C73 1.247 . S
O83 Co70 2.244 . S
O83 C73 1.272 . S
O83 Co75 2.135 1_545 S
Co84 O85 2.216 . S
Co84 O86 2.091 . S
Co84 O88 2.004 . S
Co84 O94 2.021 . S
Co84 O96 2.137 . S
Co84 O97 2.244 . S
O85 Co84 2.216 . S
O85 C92 1.247 . S
O86 Co84 2.091 . S
O86 C92 1.261 . S
C87 O96 1.247 . S
C87 O97 1.272 . S
O88 Co84 2.004 . S
O88 C93 1.259 . S
Co89 O90 2.061 . S
Co89 O95 2.052 . S
Co89 O97 2.135 . S
O90 Co89 2.061 . S
O90 C93 1.235 . S
C91 O94 1.238 . S
C91 O95 1.241 . S
C92 O85 1.247 . S
C92 O86 1.261 . S
C93 O88 1.259 . S
C93 O90 1.235 . S
O94 Co84 2.021 . S
O94 C91 1.238 . S
O95 Co89 2.052 . S
O95 C91 1.241 . S
O96 Co84 2.137 . S
O96 C87 1.247 . S
O97 Co84 2.244 . S
O97 C87 1.272 . S
O97 Co89 2.135 . S
Co98 O99 2.216 . S
Co98 O100 2.091 . S
Co98 O102 2.004 . S
Co98 O108 2.021 . S
Co98 O110 2.137 . S
Co98 O111 2.244 . S
O99 Co98 2.216 . S
O99 C106 1.247 . S
O100 Co98 2.091 . S
O100 C106 1.261 . S
C101 O110 1.247 . S
C101 O111 1.272 . S
O102 Co98 2.004 . S
O102 C107 1.259 . S
Co103 O104 2.061 . S
Co103 O109 2.052 . S
Co103 O111 2.135 . S
O104 Co103 2.061 . S
O104 C107 1.235 . S
C105 O108 1.238 . S
C105 O109 1.241 . S
C106 O99 1.247 . S
C106 O100 1.261 . S
C107 O102 1.259 . S
C107 O104 1.235 . S
O108 Co98 2.021 . S
O108 C105 1.238 . S
O109 Co103 2.052 . S
O109 C105 1.241 . S
O110 Co98 2.137 . S
O110 C101 1.247 . S
O111 Co98 2.244 . S
O111 C101 1.272 . S
O111 Co103 2.135 . S
Co112 O113 2.216 . S
Co112 O114 2.091 . S
Co112 O116 2.004 . S
Co112 O122 2.021 . S
Co112 O124 2.137 . S
Co112 O125 2.244 . S
O113 Co112 2.216 . S
O113 C120 1.247 . S
O114 Co112 2.091 . S
O114 C120 1.261 . S
C115 O124 1.247 . S
C115 O125 1.272 . S
O116 Co112 2.004 . S
O116 C121 1.259 . S
Co117 O118 2.061 . S
Co117 O123 2.052 . S
Co117 O125 2.135 . S
O118 Co117 2.061 . S
O118 C121 1.235 . S
C119 O122 1.238 . S
C119 O123 1.241 . S
C120 O113 1.247 . S
C120 O114 1.261 . S
C121 O116 1.259 . S
C121 O118 1.235 . S
O122 Co112 2.021 . S
O122 C119 1.238 . S
O123 Co117 2.052 . S
O123 C119 1.241 . S
O124 Co112 2.137 . S
O124 C115 1.247 . S
O125 Co112 2.244 . S
O125 C115 1.272 . S
O125 Co117 2.135 . S
Co126 O127 2.216 . S
Co126 O128 2.091 . S
Co126 O130 2.004 . S
Co126 O136 2.021 . S
Co126 O138 2.137 . S
Co126 O139 2.244 . S
O127 Co126 2.216 . S
O127 C134 1.247 . S
O128 Co126 2.091 . S
O128 C134 1.261 . S
C129 O138 1.247 . S
C129 O139 1.272 . S
O130 Co126 2.004 . S
O130 C135 1.259 . S
Co131 O132 2.061 . S
Co131 O137 2.052 . S
Co131 O139 2.135 . S
O132 Co131 2.061 . S
O132 C135 1.235 . S
C133 O136 1.238 . S
C133 O137 1.241 . S
C134 O127 1.247 . S
C134 O128 1.261 . S
C135 O130 1.259 . S
C135 O132 1.235 . S
O136 Co126 2.021 . S
O136 C133 1.238 . S
O137 Co131 2.052 . S
O137 C133 1.241 . S
O138 Co126 2.137 . S
O138 C129 1.247 . S
O139 Co126 2.244 . S
O139 C129 1.272 . S
O139 Co131 2.135 . S
Co140 O141 2.216 . S
Co140 O142 2.091 . S
Co140 O144 2.004 . S
Co140 O150 2.021 . S
Co140 O152 2.137 . S
Co140 O153 2.244 . S
O141 Co140 2.216 . S
O141 C148 1.247 . S
O142 Co140 2.091 . S
O142 C148 1.261 . S
C143 O152 1.247 . S
C143 O153 1.272 . S
O144 Co140 2.004 . S
O144 C149 1.259 . S
Co145 O146 2.061 . S
Co145 O151 2.052 . S
Co145 O153 2.135 . S
O146 Co145 2.061 . S
O146 C149 1.235 . S
C147 O150 1.238 . S
C147 O151 1.241 . S
C148 O141 1.247 . S
C148 O142 1.261 . S
C149 O144 1.259 . S
C149 O146 1.235 . S
O150 Co140 2.021 . S
O150 C147 1.238 . S
O151 Co145 2.052 . S
O151 C147 1.241 . S
O152 Co140 2.137 . S
O152 C143 1.247 . S
O153 Co140 2.244 . S
O153 C143 1.272 . S
O153 Co145 2.135 . S
Co154 O155 2.216 . S
Co154 O156 2.091 . S
Co154 O158 2.004 . S
Co154 O164 2.021 . S
Co154 O166 2.137 . S
Co154 O167 2.244 . S
O155 Co154 2.216 . S
O155 C162 1.247 . S
O156 Co154 2.091 . S
O156 C162 1.261 . S
C157 O166 1.247 . S
C157 O167 1.272 . S
O158 Co154 2.004 . S
O158 C163 1.259 . S
Co159 O160 2.061 . S
Co159 O165 2.052 . S
Co159 O167 2.135 . S
O160 Co159 2.061 . S
O160 C163 1.235 . S
C161 O164 1.238 . S
C161 O165 1.241 . S
C162 O155 1.247 . S
C162 O156 1.261 . S
C163 O158 1.259 . S
C163 O160 1.235 . S
O164 Co154 2.021 . S
O164 C161 1.238 . S
O165 Co159 2.052 . S
O165 C161 1.241 . S
O166 Co154 2.137 . S
O166 C157 1.247 . S
O167 Co154 2.244 . S
O167 C157 1.272 . S
O167 Co159 2.135 . S
Co168 O169 2.216 . S
Co168 O170 2.091 . S
Co168 O172 2.004 . S
Co168 O178 2.021 . S
Co168 O180 2.137 . S
Co168 O181 2.244 . S
O169 Co168 2.216 . S
O169 C176 1.247 . S
O170 Co168 2.091 . S
O170 C176 1.261 . S
C171 O180 1.247 . S
C171 O181 1.272 . S
O172 Co168 2.004 . S
O172 C177 1.259 . S
Co173 O174 2.061 . S
Co173 O179 2.052 . S
Co173 O181 2.135 . S
O174 Co173 2.061 . S
O174 C177 1.235 . S
C175 O178 1.238 . S
C175 O179 1.241 . S
C176 O169 1.247 . S
C176 O170 1.261 . S
C177 O172 1.259 . S
C177 O174 1.235 . S
O178 Co168 2.021 . S
O178 C175 1.238 . S
O179 Co173 2.052 . S
O179 C175 1.241 . S
O180 Co168 2.137 . S
O180 C171 1.247 . S
O181 Co168 2.244 . S
O181 C171 1.272 . S
O181 Co173 2.135 . S
Co182 O183 2.216 . S
Co182 O184 2.091 . S
Co182 O186 2.004 . S
Co182 O192 2.021 . S
Co182 O194 2.137 . S
Co182 O195 2.244 . S
O183 Co182 2.216 . S
O183 C190 1.247 . S
O184 Co182 2.091 . S
O184 C190 1.261 . S
C185 O194 1.247 . S
C185 O195 1.272 . S
O186 Co182 2.004 . S
O186 C191 1.259 . S
Co187 O188 2.061 . S
Co187 O193 2.052 . S
Co187 O195 2.135 . S
O188 Co187 2.061 . S
O188 C191 1.235 . S
C189 O192 1.238 . S
C189 O193 1.241 . S
C190 O183 1.247 . S
C190 O184 1.261 . S
C191 O186 1.259 . S
C191 O188 1.235 . S
O192 Co182 2.021 . S
O192 C189 1.238 . S
O193 Co187 2.052 . S
O193 C189 1.241 . S
O194 Co182 2.137 . S
O194 C185 1.247 . S
O195 Co182 2.244 . S
O195 C185 1.272 . S
O195 Co187 2.135 . S
Co196 O197 2.216 . S
Co196 O198 2.091 . S
Co196 O200 2.004 . S
Co196 O206 2.021 . S
Co196 O208 2.137 . S
Co196 O209 2.244 . S
O197 Co196 2.216 . S
O197 C204 1.247 . S
O198 Co196 2.091 . S
O198 C204 1.261 . S
C199 O208 1.247 . S
C199 O209 1.272 . S
O200 Co196 2.004 . S
O200 C205 1.259 . S
Co201 O202 2.061 . S
Co201 O207 2.052 . S
Co201 O209 2.135 . S
O202 Co201 2.061 . S
O202 C205 1.235 . S
C203 O206 1.238 . S
C203 O207 1.241 . S
C204 O197 1.247 . S
C204 O198 1.261 . S
C205 O200 1.259 . S
C205 O202 1.235 . S
O206 Co196 2.021 . S
O206 C203 1.238 . S
O207 Co201 2.052 . S
O207 C203 1.241 . S
O208 Co196 2.137 . S
O208 C199 1.247 . S
O209 Co196 2.244 . S
O209 C199 1.272 . S
O209 Co201 2.135 . S
Co210 O211 2.216 . S
Co210 O212 2.091 . S
Co210 O214 2.004 . S
Co210 O220 2.021 . S
Co210 O222 2.137 . S
Co210 O223 2.244 . S
O211 Co210 2.216 . S
O211 C218 1.247 . S
O212 Co210 2.091 . S
O212 C218 1.261 . S
C213 O222 1.247 . S
C213 O223 1.272 . S
O214 Co210 2.004 . S
O214 C219 1.259 . S
Co215 O216 2.061 . S
Co215 O221 2.052 . S
Co215 O223 2.135 . S
O216 Co215 2.061 . S
O216 C219 1.235 . S
C217 O220 1.238 . S
C217 O221 1.241 . S
C218 O211 1.247 . S
C218 O212 1.261 . S
C219 O214 1.259 . S
C219 O216 1.235 . S
O220 Co210 2.021 . S
O220 C217 1.238 . S
O221 Co215 2.052 . S
O221 C217 1.241 . S
O222 Co210 2.137 . S
O222 C213 1.247 . S
O223 Co210 2.244 . S
O223 C213 1.272 . S
O223 Co215 2.135 . S
Co224 O225 2.216 . S
Co224 O226 2.091 . S
Co224 O228 2.004 . S
Co224 O234 2.021 . S
Co224 O236 2.137 . S
Co224 O237 2.244 . S
O225 Co224 2.216 . S
O225 C232 1.247 . S
O226 Co224 2.091 . S
O226 C232 1.261 . S
C227 O236 1.247 . S
C227 O237 1.272 . S
O228 Co224 2.004 . S
O228 C233 1.259 . S
Co229 O230 2.061 . S
Co229 O235 2.052 . S
Co229 O237 2.135 . S
O230 Co229 2.061 . S
O230 C233 1.235 . S
C231 O234 1.238 . S
C231 O235 1.241 . S
C232 O225 1.247 . S
C232 O226 1.261 . S
C233 O228 1.259 . S
C233 O230 1.235 . S
O234 Co224 2.021 . S
O234 C231 1.238 . S
O235 Co229 2.052 . S
O235 C231 1.241 . S
O236 Co224 2.137 . S
O236 C227 1.247 . S
O237 Co224 2.244 . S
O237 C227 1.272 . S
O237 Co229 2.135 . S
Co238 O239 2.216 . S
Co238 O240 2.091 . S
Co238 O242 2.004 . S
Co238 O248 2.021 . S
Co238 O250 2.137 . S
Co238 O251 2.244 . S
O239 Co238 2.216 . S
O239 C246 1.247 . S
O240 Co238 2.091 . S
O240 C246 1.261 . S
C241 O250 1.247 . S
C241 O251 1.272 . S
O242 Co238 2.004 . S
O242 C247 1.259 . S
Co243 O244 2.061 . S
Co243 O249 2.052 . S
Co243 O251 2.135 . S
O244 Co243 2.061 . S
O244 C247 1.235 . S
C245 O248 1.238 . S
C245 O249 1.241 . S
C246 O239 1.247 . S
C246 O240 1.261 . S
C247 O242 1.259 . S
C247 O244 1.235 . S
O248 Co238 2.021 . S
O248 C245 1.238 . S
O249 Co243 2.052 . S
O249 C245 1.241 . S
O250 Co238 2.137 . S
O250 C241 1.247 . S
O251 Co238 2.244 . S
O251 C241 1.272 . S
O251 Co243 2.135 . S
H252 C264 0.930 . S
H253 C266 0.930 . S
H254 C267 0.930 . S
H255 C271 0.959 . S
H256 C271 0.959 . S
H257 C271 0.961 . S
H258 C272 0.960 . S
H259 C272 0.961 . S
H260 C272 0.959 . S
H261 C275 0.929 . S
H262 C276 0.931 . S
H263 C278 0.913 1_556 S
C264 H252 0.930 . S
C264 C265 1.399 . S
C264 C269 1.399 . S
C265 C264 1.399 . S
C265 C266 1.376 . S
C266 H253 0.930 . S
C266 C265 1.376 . S
C266 C267 1.388 . S
C267 H254 0.930 . S
C267 C266 1.388 . S
C267 C268 1.390 . S
C268 C267 1.390 . S
C268 C269 1.394 . S
C268 C274 1.465 . S
C269 C264 1.399 . S
C269 C268 1.394 . S
C269 C270 1.516 . S
C270 C269 1.516 . S
C270 C271 1.502 . S
C270 C272 1.561 . S
C270 C273 1.526 . S
C271 H255 0.959 . S
C271 H256 0.959 . S
C271 H257 0.961 . S
C271 C270 1.502 . S
C272 H258 0.960 . S
C272 H259 0.961 . S
C272 H260 0.959 . S
C272 C270 1.561 . S
C273 C270 1.526 . S
C273 C274 1.396 . S
C273 C278 1.390 . S
C274 C268 1.465 . S
C274 C273 1.396 . S
C274 C275 1.399 . S
C275 H261 0.929 . S
C275 C274 1.399 . S
C275 C276 1.385 . S
C276 H262 0.931 . S
C276 C275 1.385 . S
C276 C277 1.389 . S
C277 C276 1.389 . S
C277 C278 1.387 . S
C278 H263 0.913 1_554 S
C278 C273 1.390 . S
C278 C277 1.387 . S
H279 C291 0.930 1_556 S
H280 C293 0.930 . S
H281 C294 0.930 . S
H282 C298 0.959 . S
H283 C298 0.959 . S
H284 C298 0.961 . S
H285 C299 0.960 . S
H286 C299 0.961 . S
H287 C299 0.959 . S
H288 C302 0.929 . S
H289 C303 0.931 . S
H290 C305 0.930 . S
C291 H279 0.930 1_554 S
C291 C292 1.399 . S
C291 C296 1.399 . S
C292 C291 1.399 . S
C292 C293 1.376 . S
C293 H280 0.930 . S
C293 C292 1.376 . S
C293 C294 1.388 . S
C294 H281 0.930 . S
C294 C293 1.388 . S
C294 C295 1.390 . S
C295 C294 1.390 . S
C295 C296 1.394 . S
C295 C301 1.465 . S
C296 C291 1.399 . S
C296 C295 1.394 . S
C296 C297 1.516 . S
C297 C296 1.516 . S
C297 C298 1.502 . S
C297 C299 1.561 . S
C297 C300 1.526 . S
C298 H282 0.959 . S
C298 H283 0.959 . S
C298 H284 0.961 . S
C298 C297 1.502 . S
C299 H285 0.960 . S
C299 H286 0.961 . S
C299 H287 0.959 . S
C299 C297 1.561 . S
C300 C297 1.526 . S
C300 C301 1.396 . S
C300 C305 1.390 . S
C301 C295 1.465 . S
C301 C300 1.396 . S
C301 C302 1.399 . S
C302 H288 0.929 . S
C302 C301 1.399 . S
C302 C303 1.385 . S
C303 H289 0.931 . S
C303 C302 1.385 . S
C303 C304 1.389 . S
C304 C303 1.389 . S
C304 C305 1.387 . S
C305 H290 0.930 . S
C305 C300 1.390 . S
C305 C304 1.387 . S
H306 C318 0.949 . S
H307 C320 0.930 . S
H308 C321 0.930 . S
H309 C325 0.959 1_565 S
H310 C325 0.959 . S
H311 C325 0.961 . S
H312 C326 0.960 . S
H313 C326 0.961 . S
H314 C326 0.959 . S
H315 C329 0.929 . S
H316 C330 0.931 1_556 S
H317 C332 0.930 . S
C318 H306 0.949 . S
C318 C319 1.384 1_545 S
C318 C323 1.395 1_545 S
C319 C318 1.384 1_565 S
C319 C320 1.376 . S
C320 H307 0.930 . S
C320 C319 1.376 . S
C320 C321 1.388 . S
C321 H308 0.930 . S
C321 C320 1.388 . S
C321 C322 1.390 . S
C322 C321 1.390 . S
C322 C323 1.394 . S
C322 C328 1.465 . S
C323 C318 1.395 1_565 S
C323 C322 1.394 . S
C323 C324 1.516 1_565 S
C324 C323 1.516 1_545 S
C324 C325 1.502 . S
C324 C326 1.561 . S
C324 C327 1.526 1_545 S
C325 H309 0.959 1_545 S
C325 H310 0.959 . S
C325 H311 0.961 . S
C325 C324 1.502 . S
C326 H312 0.960 . S
C326 H313 0.961 . S
C326 H314 0.959 . S
C326 C324 1.561 . S
C327 C324 1.526 1_565 S
C327 C328 1.396 . S
C327 C332 1.390 . S
C328 C322 1.465 . S
C328 C327 1.396 . S
C328 C329 1.399 . S
C329 H315 0.929 . S
C329 C328 1.399 . S
C329 C330 1.385 . S
C330 H316 0.931 1_554 S
C330 C329 1.385 . S
C330 C331 1.389 1_554 S
C331 C330 1.389 1_556 S
C331 C332 1.387 1_556 S
C332 H317 0.930 . S
C332 C327 1.390 . S
C332 C331 1.387 1_554 S
H333 C345 0.930 . S
H334 C347 0.930 . S
H335 C348 0.930 . S
H336 C352 0.959 . S
H337 C352 0.959 . S
H338 C352 0.961 . S
H339 C353 0.960 . S
H340 C353 0.961 . S
H341 C353 0.959 . S
H342 C356 0.929 1_565 S
H343 C357 0.931 1_565 S
H344 C359 0.930 . S
C345 H333 0.930 . S
C345 C346 1.399 . S
C345 C350 1.399 . S
C346 C345 1.399 . S
C346 C347 1.376 . S
C347 H334 0.930 . S
C347 C346 1.376 . S
C347 C348 1.388 . S
C348 H335 0.930 . S
C348 C347 1.388 . S
C348 C349 1.390 . S
C349 C348 1.390 . S
C349 C350 1.394 . S
C349 C355 1.465 . S
C350 C345 1.399 . S
C350 C349 1.394 . S
C350 C351 1.516 . S
C351 C350 1.516 . S
C351 C352 1.502 . S
C351 C353 1.561 . S
C351 C354 1.526 . S
C352 H336 0.959 . S
C352 H337 0.959 . S
C352 H338 0.961 . S
C352 C351 1.502 . S
C353 H339 0.960 . S
C353 H340 0.961 . S
C353 H341 0.959 . S
C353 C351 1.561 . S
C354 C351 1.526 . S
C354 C355 1.396 . S
C354 C359 1.390 . S
C355 C349 1.465 . S
C355 C354 1.396 . S
C355 C356 1.399 . S
C356 H342 0.929 1_545 S
C356 C355 1.399 . S
C356 C357 1.385 . S
C357 H343 0.931 1_545 S
C357 C356 1.385 . S
C357 C358 1.389 . S
C358 C357 1.389 . S
C358 C359 1.387 . S
C359 H344 0.930 . S
C359 C354 1.390 . S
C359 C358 1.387 . S
H360 C372 0.930 . S
H361 C374 0.930 . S
H362 C375 0.930 . S
H363 C379 0.959 1_455 S
H364 C379 0.959 . S
H365 C379 0.961 . S
H366 C380 0.960 . S
H367 C380 0.961 . S
H368 C380 0.959 . S
H369 C383 0.929 . S
H370 C384 0.931 . S
H371 C386 0.930 . S
C372 H360 0.930 . S
C372 C373 1.399 . S
C372 C377 1.399 . S
C373 C372 1.399 . S
C373 C374 1.376 . S
C374 H361 0.930 . S
C374 C373 1.376 . S
C374 C375 1.388 . S
C375 H362 0.930 . S
C375 C374 1.388 . S
C375 C376 1.390 . S
C376 C375 1.390 . S
C376 C377 1.394 . S
C376 C382 1.465 . S
C377 C372 1.399 . S
C377 C376 1.394 . S
C377 C378 1.516 . S
C378 C377 1.516 . S
C378 C379 1.502 . S
C378 C380 1.561 . S
C378 C381 1.526 . S
C379 H363 0.959 1_655 S
C379 H364 0.959 . S
C379 H365 0.961 . S
C379 C378 1.502 . S
C380 H366 0.960 . S
C380 H367 0.961 . S
C380 H368 0.959 . S
C380 C378 1.561 . S
C381 C378 1.526 . S
C381 C382 1.396 . S
C381 C386 1.390 . S
C382 C376 1.465 . S
C382 C381 1.396 . S
C382 C383 1.399 . S
C383 H369 0.929 . S
C383 C382 1.399 . S
C383 C384 1.385 . S
C384 H370 0.931 . S
C384 C383 1.385 . S
C384 C385 1.389 . S
C385 C384 1.389 . S
C385 C386 1.387 . S
C386 H371 0.930 . S
C386 C381 1.390 . S
C386 C385 1.387 . S
H387 C399 0.930 . S
H388 C401 0.930 . S
H389 C402 0.930 . S
H390 C406 0.959 . S
H391 C406 0.959 . S
H392 C406 0.961 . S
H393 C407 0.960 . S
H394 C407 0.961 . S
H395 C407 0.959 . S
H396 C410 0.929 . S
H397 C411 0.931 . S
H398 C413 0.930 . S
C399 H387 0.930 . S
C399 C400 1.399 . S
C399 C404 1.399 . S
C400 C399 1.399 . S
C400 C401 1.376 . S
C401 H388 0.930 . S
C401 C400 1.376 . S
C401 C402 1.388 . S
C402 H389 0.930 . S
C402 C401 1.388 . S
C402 C403 1.390 . S
C403 C402 1.390 . S
C403 C404 1.394 . S
C403 C409 1.465 . S
C404 C399 1.399 . S
C404 C403 1.394 . S
C404 C405 1.516 . S
C405 C404 1.516 . S
C405 C406 1.502 . S
C405 C407 1.561 . S
C405 C408 1.526 . S
C406 H390 0.959 . S
C406 H391 0.959 . S
C406 H392 0.961 . S
C406 C405 1.502 . S
C407 H393 0.960 . S
C407 H394 0.961 . S
C407 H395 0.959 . S
C407 C405 1.561 . S
C408 C405 1.526 . S
C408 C409 1.396 . S
C408 C413 1.390 . S
C409 C403 1.465 . S
C409 C408 1.396 . S
C409 C410 1.399 . S
C410 H396 0.929 . S
C410 C409 1.399 . S
C410 C411 1.385 . S
C411 H397 0.931 . S
C411 C410 1.385 . S
C411 C412 1.389 . S
C412 C411 1.389 . S
C412 C413 1.387 . S
C413 H398 0.930 . S
C413 C408 1.390 . S
C413 C412 1.387 . S
H414 C426 0.930 . S
H415 C428 0.930 . S
H416 C429 0.930 . S
H417 C433 0.959 . S
H418 C433 0.959 . S
H419 C433 0.961 . S
H420 C434 0.960 . S
H421 C434 0.961 . S
H422 C434 0.959 . S
H423 C437 0.929 1_455 S
H424 C438 0.931 1_554 S
H425 C440 0.930 . S
C426 H414 0.930 . S
C426 C427 1.399 . S
C426 C431 1.399 . S
C427 C426 1.399 . S
C427 C428 1.376 1_655 S
C428 H415 0.930 . S
C428 C427 1.376 1_455 S
C428 C429 1.388 . S
C429 H416 0.930 . S
C429 C428 1.388 . S
C429 C430 1.390 1_455 S
C430 C429 1.390 1_655 S
C430 C431 1.394 . S
C430 C436 1.465 . S
C431 C426 1.399 . S
C431 C430 1.394 . S
C431 C432 1.516 . S
C432 C431 1.516 . S
C432 C433 1.502 . S
C432 C434 1.561 . S
C432 C435 1.526 . S
C433 H417 0.959 . S
C433 H418 0.959 . S
C433 H419 0.961 . S
C433 C432 1.502 . S
C434 H420 0.960 . S
C434 H421 0.961 . S
C434 H422 0.959 . S
C434 C432 1.561 . S
C435 C432 1.526 . S
C435 C436 1.396 . S
C435 C440 1.390 . S
C436 C430 1.465 . S
C436 C435 1.396 . S
C436 C437 1.399 . S
C437 H423 0.929 1_655 S
C437 C436 1.399 . S
C437 C438 1.385 . S
C438 H424 0.931 1_556 S
C438 C437 1.385 . S
C438 C439 1.395 . S
C439 C438 1.395 . S
C439 C440 1.397 . S
C440 H425 0.930 . S
C440 C435 1.390 . S
C440 C439 1.397 . S
H441 C453 0.930 . S
H442 C455 0.930 . S
H443 C456 0.930 . S
H444 C460 0.959 . S
H445 C460 0.959 . S
H446 C460 0.961 . S
H447 C461 0.960 . S
H448 C461 0.961 . S
H449 C461 0.959 . S
H450 C464 0.929 . S
H451 C465 0.931 . S
H452 C467 0.930 . S
C453 H441 0.930 . S
C453 C454 1.399 1_556 S
C453 C458 1.399 . S
C454 C453 1.399 1_554 S
C454 C455 1.376 . S
C455 H442 0.930 . S
C455 C454 1.376 . S
C455 C456 1.388 1_554 S
C456 H443 0.930 . S
C456 C455 1.388 1_556 S
C456 C457 1.390 . S
C457 C456 1.390 . S
C457 C458 1.394 . S
C457 C463 1.465 . S
C458 C453 1.399 . S
C458 C457 1.394 . S
C458 C459 1.516 . S
C459 C458 1.516 . S
C459 C460 1.502 . S
C459 C461 1.561 . S
C459 C462 1.526 . S
C460 H444 0.959 . S
C460 H445 0.959 . S
C460 H446 0.961 . S
C460 C459 1.502 . S
C461 H447 0.960 . S
C461 H448 0.961 . S
C461 H449 0.959 . S
C461 C459 1.561 . S
C462 C459 1.526 . S
C462 C463 1.396 . S
C462 C467 1.390 . S
C463 C457 1.465 . S
C463 C462 1.396 . S
C463 C464 1.399 . S
C464 H450 0.929 . S
C464 C463 1.399 . S
C464 C465 1.385 . S
C465 H451 0.931 . S
C465 C464 1.385 . S
C465 C466 1.389 . S
C466 C465 1.389 . S
C466 C467 1.387 . S
C467 H452 0.930 . S
C467 C462 1.390 . S
C467 C466 1.387 . S
H468 C480 0.930 . S
H469 C482 0.930 1_554 S
H470 C483 0.930 . S
H471 C487 0.959 . S
H472 C487 0.959 1_565 S
H473 C487 0.961 . S
H474 C488 0.960 . S
H475 C488 0.961 . S
H476 C488 0.959 . S
H477 C491 0.929 . S
H478 C492 0.931 . S
H479 C494 0.916 1_565 S
C480 H468 0.930 . S
C480 C481 1.382 1_556 S
C480 C485 1.399 . S
C481 C480 1.382 1_554 S
C481 C482 1.371 1_554 S
C482 H469 0.930 1_556 S
C482 C481 1.371 1_556 S
C482 C483 1.388 . S
C483 H470 0.930 . S
C483 C482 1.388 . S
C483 C484 1.390 . S
C484 C483 1.390 . S
C484 C485 1.394 . S
C484 C490 1.465 . S
C485 C480 1.399 . S
C485 C484 1.394 . S
C485 C486 1.516 . S
C486 C485 1.516 . S
C486 C487 1.502 . S
C486 C488 1.561 1_545 S
C486 C489 1.526 . S
C487 H471 0.959 . S
C487 H472 0.959 1_545 S
C487 H473 0.961 . S
C487 C486 1.502 . S
C488 H474 0.960 . S
C488 H475 0.961 . S
C488 H476 0.959 . S
C488 C486 1.561 1_565 S
C489 C486 1.526 . S
C489 C490 1.396 . S
C489 C494 1.390 . S
C490 C484 1.465 . S
C490 C489 1.396 . S
C490 C491 1.399 . S
C491 H477 0.929 . S
C491 C490 1.399 . S
C491 C492 1.385 . S
C492 H478 0.931 . S
C492 C491 1.385 . S
C492 C493 1.389 . S
C493 C492 1.389 . S
C493 C494 1.387 . S
C494 H479 0.916 1_545 S
C494 C489 1.390 . S
C494 C493 1.387 . S
H495 C507 0.930 1_545 S
H496 C509 0.930 . S
H497 C510 0.930 . S
H498 C514 0.959 . S
H499 C514 0.959 . S
H500 C514 0.961 . S
H501 C515 0.960 . S
H502 C515 0.961 . S
H503 C515 0.959 . S
H504 C518 0.929 . S
H505 C519 0.931 . S
H506 C521 0.930 . S
C507 H495 0.930 1_565 S
C507 C508 1.399 . S
C507 C512 1.399 . S
C508 C507 1.399 . S
C508 C509 1.376 . S
C509 H496 0.930 . S
C509 C508 1.376 . S
C509 C510 1.388 . S
C510 H497 0.930 . S
C510 C509 1.388 . S
C510 C511 1.390 . S
C511 C510 1.390 . S
C511 C512 1.394 . S
C511 C517 1.465 . S
C512 C507 1.399 . S
C512 C511 1.394 . S
C512 C513 1.524 . S
C513 C512 1.524 . S
C513 C514 1.471 1_565 S
C513 C515 1.560 1_565 S
C513 C516 1.556 . S
C514 H498 0.959 . S
C514 H499 0.959 . S
C514 H500 0.961 . S
C514 C513 1.471 1_545 S
C515 H501 0.960 . S
C515 H502 0.961 . S
C515 H503 0.959 . S
C515 C513 1.560 1_545 S
C516 C513 1.556 . S
C516 C517 1.396 . S
C516 C521 1.390 . S
C517 C511 1.465 . S
C517 C516 1.396 . S
C517 C518 1.399 . S
C518 H504 0.929 . S
C518 C517 1.399 . S
C518 C519 1.385 . S
C519 H505 0.931 . S
C519 C518 1.385 . S
C519 C520 1.389 . S
C520 C519 1.389 . S
C520 C521 1.387 . S
C521 H506 0.930 . S
C521 C516 1.390 . S
C521 C520 1.387 . S
H522 C534 0.930 . S
H523 C536 0.930 . S
H524 C537 0.930 . S
H525 C541 0.959 . S
H526 C541 0.959 . S
H527 C541 0.961 . S
H528 C542 0.960 . S
H529 C542 0.961 . S
H530 C542 0.959 1_655 S
H531 C545 0.929 . S
H532 C546 0.931 . S
H533 C548 0.930 . S
C534 H522 0.930 . S
C534 C535 1.399 . S
C534 C539 1.399 . S
C535 C534 1.399 . S
C535 C536 1.376 . S
C536 H523 0.930 . S
C536 C535 1.376 . S
C536 C537 1.388 . S
C537 H524 0.930 . S
C537 C536 1.388 . S
C537 C538 1.390 . S
C538 C537 1.390 . S
C538 C539 1.394 . S
C538 C544 1.465 . S
C539 C534 1.399 . S
C539 C538 1.394 . S
C539 C540 1.516 . S
C540 C539 1.516 . S
C540 C541 1.502 . S
C540 C542 1.561 . S
C540 C543 1.526 . S
C541 H525 0.959 . S
C541 H526 0.959 . S
C541 H527 0.961 . S
C541 C540 1.502 . S
C542 H528 0.960 . S
C542 H529 0.961 . S
C542 H530 0.959 1_455 S
C542 C540 1.561 . S
C543 C540 1.526 . S
C543 C544 1.396 . S
C543 C548 1.390 . S
C544 C538 1.465 . S
C544 C543 1.396 . S
C544 C545 1.399 . S
C545 H531 0.929 . S
C545 C544 1.399 . S
C545 C546 1.385 . S
C546 H532 0.931 . S
C546 C545 1.385 . S
C546 C547 1.389 . S
C547 C546 1.389 . S
C547 C548 1.387 . S
C548 H533 0.930 . S
C548 C543 1.390 . S
C548 C547 1.387 . S
H549 C561 0.930 . S
H550 C563 0.930 . S
H551 C564 0.930 . S
H552 C568 0.959 . S
H553 C568 0.959 . S
H554 C568 0.961 . S
H555 C569 0.960 . S
H556 C569 0.961 . S
H557 C569 0.959 . S
H558 C572 0.929 . S
H559 C573 0.931 . S
H560 C575 0.930 . S
C561 H549 0.930 . S
C561 C562 1.399 . S
C561 C566 1.399 . S
C562 C561 1.399 . S
C562 C563 1.376 . S
C563 H550 0.930 . S
C563 C562 1.376 . S
C563 C564 1.388 . S
C564 H551 0.930 . S
C564 C563 1.388 . S
C564 C565 1.390 . S
C565 C564 1.390 . S
C565 C566 1.394 . S
C565 C571 1.465 . S
C566 C561 1.399 . S
C566 C565 1.394 . S
C566 C567 1.516 . S
C567 C566 1.516 . S
C567 C568 1.502 . S
C567 C569 1.561 . S
C567 C570 1.526 . S
C568 H552 0.959 . S
C568 H553 0.959 . S
C568 H554 0.961 . S
C568 C567 1.502 . S
C569 H555 0.960 . S
C569 H556 0.961 . S
C569 H557 0.959 . S
C569 C567 1.561 . S
C570 C567 1.526 . S
C570 C571 1.396 . S
C570 C575 1.390 . S
C571 C565 1.465 . S
C571 C570 1.396 . S
C571 C572 1.399 . S
C572 H558 0.929 . S
C572 C571 1.399 . S
C572 C573 1.385 . S
C573 H559 0.931 . S
C573 C572 1.385 . S
C573 C574 1.389 . S
C574 C573 1.389 . S
C574 C575 1.387 . S
C575 H560 0.930 . S
C575 C570 1.390 . S
C575 C574 1.387 . S
H576 C588 0.930 . S
H577 C590 0.930 . S
H578 C591 0.930 . S
H579 C595 0.959 . S
H580 C595 0.959 . S
H581 C595 0.961 . S
H582 C596 0.960 . S
H583 C596 0.961 . S
H584 C596 0.959 . S
H585 C599 0.929 . S
H586 C600 0.931 . S
H587 C602 0.930 . S
C588 H576 0.930 . S
C588 C589 1.399 . S
C588 C593 1.399 . S
C589 C588 1.399 . S
C589 C590 1.376 . S
C590 H577 0.930 . S
C590 C589 1.376 . S
C590 C591 1.388 . S
C591 H578 0.930 . S
C591 C590 1.388 . S
C591 C592 1.390 . S
C592 C591 1.390 . S
C592 C593 1.394 . S
C592 C598 1.465 . S
C593 C588 1.399 . S
C593 C592 1.394 . S
C593 C594 1.516 . S
C594 C593 1.516 . S
C594 C595 1.502 . S
C594 C596 1.561 . S
C594 C597 1.526 . S
C595 H579 0.959 . S
C595 H580 0.959 . S
C595 H581 0.961 . S
C595 C594 1.502 . S
C596 H582 0.960 . S
C596 H583 0.961 . S
C596 H584 0.959 . S
C596 C594 1.561 . S
C597 C594 1.526 . S
C597 C598 1.396 . S
C597 C602 1.390 . S
C598 C592 1.465 . S
C598 C597 1.396 . S
C598 C599 1.399 . S
C599 H585 0.929 . S
C599 C598 1.399 . S
C599 C600 1.385 . S
C600 H586 0.931 . S
C600 C599 1.385 . S
C600 C601 1.389 . S
C601 C600 1.389 . S
C601 C602 1.387 . S
C602 H587 0.930 . S
C602 C597 1.390 . S
C602 C601 1.387 . S
H603 C615 0.930 . S
H604 C617 0.930 . S
H605 C618 0.930 . S
H606 C622 0.959 . S
H607 C622 0.959 . S
H608 C622 0.961 . S
H609 C623 0.960 . S
H610 C623 0.961 1_565 S
H611 C623 0.959 . S
H612 C626 0.929 . S
H613 C627 0.931 . S
H614 C629 0.930 . S
C615 H603 0.930 . S
C615 C616 1.399 . S
C615 C620 1.399 . S
C616 C615 1.399 . S
C616 C617 1.376 . S
C617 H604 0.930 . S
C617 C616 1.376 . S
C617 C618 1.388 . S
C618 H605 0.930 . S
C618 C617 1.388 . S
C618 C619 1.390 . S
C619 C618 1.390 . S
C619 C620 1.394 . S
C619 C625 1.465 . S
C620 C615 1.399 . S
C620 C619 1.394 . S
C620 C621 1.516 1_545 S
C621 C620 1.516 1_565 S
C621 C622 1.502 . S
C621 C623 1.561 1_565 S
C621 C624 1.526 . S
C622 H606 0.959 . S
C622 H607 0.959 . S
C622 H608 0.961 . S
C622 C621 1.502 . S
C623 H609 0.960 . S
C623 H610 0.961 1_545 S
C623 H611 0.959 . S
C623 C621 1.561 1_545 S
C624 C621 1.526 . S
C624 C625 1.396 1_565 S
C624 C629 1.390 . S
C625 C619 1.465 . S
C625 C624 1.396 1_545 S
C625 C626 1.399 . S
C626 H612 0.929 . S
C626 C625 1.399 . S
C626 C627 1.385 1_545 S
C627 H613 0.931 . S
C627 C626 1.385 1_565 S
C627 C628 1.389 . S
C628 C627 1.389 . S
C628 C629 1.387 . S
C629 H614 0.930 . S
C629 C624 1.390 . S
C629 C628 1.387 . S
H630 C642 0.930 . S
H631 C644 0.930 . S
H632 C645 0.930 1_655 S
H633 C649 0.959 . S
H634 C649 0.959 . S
H635 C649 0.961 . S
H636 C650 0.960 . S
H637 C650 0.961 . S
H638 C650 0.959 . S
H639 C653 0.929 . S
H640 C654 0.931 . S
H641 C656 0.930 . S
C642 H630 0.930 . S
C642 C643 1.399 . S
C642 C647 1.399 . S
C643 C642 1.399 . S
C643 C644 1.376 . S
C644 H631 0.930 . S
C644 C643 1.376 . S
C644 C645 1.388 . S
C645 H632 0.930 1_455 S
C645 C644 1.388 . S
C645 C646 1.390 . S
C646 C645 1.390 . S
C646 C647 1.394 . S
C646 C652 1.465 1_455 S
C647 C642 1.399 . S
C647 C646 1.394 . S
C647 C648 1.516 . S
C648 C647 1.516 . S
C648 C649 1.502 . S
C648 C650 1.561 . S
C648 C651 1.526 . S
C649 H633 0.959 . S
C649 H634 0.959 . S
C649 H635 0.961 . S
C649 C648 1.502 . S
C650 H636 0.960 . S
C650 H637 0.961 . S
C650 H638 0.959 . S
C650 C648 1.561 . S
C651 C648 1.526 . S
C651 C652 1.396 1_455 S
C651 C656 1.390 . S
C652 C646 1.465 1_655 S
C652 C651 1.396 1_655 S
C652 C653 1.399 . S
C653 H639 0.929 . S
C653 C652 1.399 . S
C653 C654 1.385 . S
C654 H640 0.931 . S
C654 C653 1.385 . S
C654 C655 1.389 . S
C655 C654 1.389 . S
C655 C656 1.387 1_655 S
C656 H641 0.930 . S
C656 C651 1.390 . S
C656 C655 1.387 1_455 S
H657 C669 0.930 . S
H658 C671 0.930 . S
H659 C672 0.930 . S
H660 C676 0.959 . S
H661 C676 0.959 . S
H662 C676 0.961 . S
H663 C677 0.960 . S
H664 C677 0.961 . S
H665 C677 0.959 . S
H666 C680 0.929 . S
H667 C681 0.931 . S
H668 C683 0.930 . S
C669 H657 0.930 . S
C669 C670 1.399 . S
C669 C674 1.399 . S
C670 C669 1.399 . S
C670 C671 1.376 . S
C671 H658 0.930 . S
C671 C670 1.376 . S
C671 C672 1.388 . S
C672 H659 0.930 . S
C672 C671 1.388 . S
C672 C673 1.390 . S
C673 C672 1.390 . S
C673 C674 1.394 . S
C673 C679 1.465 . S
C674 C669 1.399 . S
C674 C673 1.394 . S
C674 C675 1.516 . S
C675 C674 1.516 . S
C675 C676 1.502 . S
C675 C677 1.561 . S
C675 C678 1.526 . S
C676 H660 0.959 . S
C676 H661 0.959 . S
C676 H662 0.961 . S
C676 C675 1.502 . S
C677 H663 0.960 . S
C677 H664 0.961 . S
C677 H665 0.959 . S
C677 C675 1.561 . S
C678 C675 1.526 . S
C678 C679 1.396 . S
C678 C683 1.390 . S
C679 C673 1.465 . S
C679 C678 1.396 . S
C679 C680 1.399 . S
C680 H666 0.929 . S
C680 C679 1.399 . S
C680 C681 1.385 . S
C681 H667 0.931 . S
C681 C680 1.385 . S
C681 C682 1.389 . S
C682 C681 1.389 . S
C682 C683 1.387 . S
C683 H668 0.930 . S
C683 C678 1.390 . S
C683 C682 1.387 . S
H684 C696 0.930 . S
H685 C698 0.930 . S
H686 C699 0.930 . S
H687 C703 0.959 . S
H688 C703 0.959 . S
H689 C703 0.961 . S
H690 C704 0.960 . S
H691 C704 0.961 . S
H692 C704 0.959 . S
H693 C707 0.929 . S
H694 C708 0.931 . S
H695 C710 0.930 1_545 S
C696 H684 0.930 . S
C696 C697 1.399 . S
C696 C701 1.399 . S
C697 C696 1.399 . S
C697 C698 1.376 . S
C698 H685 0.930 . S
C698 C697 1.376 . S
C698 C699 1.388 1_545 S
C699 H686 0.930 . S
C699 C698 1.388 1_565 S
C699 C700 1.390 1_565 S
C700 C699 1.390 1_545 S
C700 C701 1.394 . S
C700 C706 1.465 1_545 S
C701 C696 1.399 . S
C701 C700 1.394 . S
C701 C702 1.516 . S
C702 C701 1.516 . S
C702 C703 1.502 . S
C702 C704 1.561 . S
C702 C705 1.526 . S
C703 H687 0.959 . S
C703 H688 0.959 . S
C703 H689 0.961 . S
C703 C702 1.502 . S
C704 H690 0.960 . S
C704 H691 0.961 . S
C704 H692 0.959 . S
C704 C702 1.561 . S
C705 C702 1.526 . S
C705 C706 1.396 1_545 S
C705 C710 1.390 1_545 S
C706 C700 1.465 1_565 S
C706 C705 1.396 1_565 S
C706 C707 1.399 . S
C707 H693 0.929 . S
C707 C706 1.399 . S
C707 C708 1.385 . S
C708 H694 0.931 . S
C708 C707 1.385 . S
C708 C709 1.389 . S
C709 C708 1.389 . S
C709 C710 1.387 . S
C710 H695 0.930 1_565 S
C710 C705 1.390 1_565 S
C710 C709 1.387 . S
H711 C723 0.930 . S
H712 C725 0.930 . S
H713 C726 0.930 1_655 S
H714 C730 0.959 . S
H715 C730 0.959 . S
H716 C730 0.961 . S
H717 C731 0.960 . S
H718 C731 0.964 1_655 S
H719 C731 0.959 1_655 S
H720 C734 0.929 . S
H721 C735 0.931 . S
H722 C737 0.930 . S
C723 H711 0.930 . S
C723 C724 1.399 . S
C723 C728 1.399 . S
C724 C723 1.399 . S
C724 C725 1.376 . S
C725 H712 0.930 . S
C725 C724 1.376 . S
C725 C726 1.388 . S
C726 H713 0.930 1_455 S
C726 C725 1.388 . S
C726 C727 1.390 . S
C727 C726 1.390 . S
C727 C728 1.394 . S
C727 C733 1.465 1_455 S
C728 C723 1.399 . S
C728 C727 1.394 . S
C728 C729 1.516 . S
C729 C728 1.516 . S
C729 C730 1.502 . S
C729 C731 1.561 . S
C729 C732 1.494 1_455 S
C730 H714 0.959 . S
C730 H715 0.959 . S
C730 H716 0.961 . S
C730 C729 1.502 . S
C731 H717 0.960 . S
C731 H718 0.964 1_455 S
C731 H719 0.959 1_455 S
C731 C729 1.561 . S
C732 C729 1.494 1_655 S
C732 C733 1.421 . S
C732 C737 1.399 . S
C733 C727 1.465 1_655 S
C733 C732 1.421 . S
C733 C734 1.399 . S
C734 H720 0.929 . S
C734 C733 1.399 . S
C734 C735 1.385 . S
C735 H721 0.931 . S
C735 C734 1.385 . S
C735 C736 1.389 . S
C736 C735 1.389 . S
C736 C737 1.387 . S
C737 H722 0.930 . S
C737 C732 1.399 . S
C737 C736 1.387 . S
H738 C750 0.930 . S
H739 C752 0.930 . S
H740 C753 0.930 . S
H741 C757 0.959 . S
H742 C757 0.959 . S
H743 C757 0.961 . S
H744 C758 0.960 . S
H745 C758 0.961 . S
H746 C758 0.959 . S
H747 C761 0.929 . S
H748 C762 0.931 . S
H749 C764 0.930 . S
C750 H738 0.930 . S
C750 C751 1.399 . S
C750 C755 1.399 . S
C751 C750 1.399 . S
C751 C752 1.376 . S
C752 H739 0.930 . S
C752 C751 1.376 . S
C752 C753 1.388 . S
C753 H740 0.930 . S
C753 C752 1.388 . S
C753 C754 1.390 . S
C754 C753 1.390 . S
C754 C755 1.394 . S
C754 C760 1.465 . S
C755 C750 1.399 . S
C755 C754 1.394 . S
C755 C756 1.516 . S
C756 C755 1.516 . S
C756 C757 1.502 . S
C756 C758 1.561 . S
C756 C759 1.526 . S
C757 H741 0.959 . S
C757 H742 0.959 . S
C757 H743 0.961 . S
C757 C756 1.502 . S
C758 H744 0.960 . S
C758 H745 0.961 . S
C758 H746 0.959 . S
C758 C756 1.561 . S
C759 C756 1.526 . S
C759 C760 1.396 . S
C759 C764 1.390 . S
C760 C754 1.465 . S
C760 C759 1.396 . S
C760 C761 1.399 . S
C761 H747 0.929 . S
C761 C760 1.399 . S
C761 C762 1.385 . S
C762 H748 0.931 . S
C762 C761 1.385 . S
C762 C763 1.389 . S
C763 C762 1.389 . S
C763 C764 1.387 . S
C764 H749 0.930 . S
C764 C759 1.390 . S
C764 C763 1.387 . S
H765 C777 0.930 . S
H766 C779 0.930 . S
H767 C780 0.930 . S
H768 C784 0.959 . S
H769 C784 0.959 . S
H770 C784 0.961 . S
H771 C785 0.960 . S
H772 C785 0.961 . S
H773 C785 0.959 . S
H774 C788 0.929 . S
H775 C789 0.931 . S
H776 C791 0.930 . S
C777 H765 0.930 . S
C777 C778 1.399 . S
C777 C782 1.399 . S
C778 C777 1.399 . S
C778 C779 1.376 . S
C779 H766 0.930 . S
C779 C778 1.376 . S
C779 C780 1.388 . S
C780 H767 0.930 . S
C780 C779 1.388 . S
C780 C781 1.390 . S
C781 C780 1.390 . S
C781 C782 1.394 . S
C781 C787 1.465 . S
C782 C777 1.399 . S
C782 C781 1.394 . S
C782 C783 1.516 . S
C783 C782 1.516 . S
C783 C784 1.502 . S
C783 C785 1.561 . S
C783 C786 1.526 . S
C784 H768 0.959 . S
C784 H769 0.959 . S
C784 H770 0.961 . S
C784 C783 1.502 . S
C785 H771 0.960 . S
C785 H772 0.961 . S
C785 H773 0.959 . S
C785 C783 1.561 . S
C786 C783 1.526 . S
C786 C787 1.396 . S
C786 C791 1.390 . S
C787 C781 1.465 . S
C787 C786 1.396 . S
C787 C788 1.399 . S
C788 H774 0.929 . S
C788 C787 1.399 . S
C788 C789 1.385 . S
C789 H775 0.931 . S
C789 C788 1.385 . S
C789 C790 1.389 . S
C790 C789 1.389 . S
C790 C791 1.387 . S
C791 H776 0.930 . S
C791 C786 1.390 . S
C791 C790 1.387 . S
H792 C804 0.930 . S
H793 C806 0.930 . S
H794 C807 0.930 . S
H795 C811 0.959 . S
H796 C811 0.959 . S
H797 C811 0.961 . S
H798 C812 0.960 . S
H799 C812 0.961 . S
H800 C812 0.959 . S
H801 C815 0.929 . S
H802 C816 0.931 . S
H803 C818 0.930 . S
C804 H792 0.930 . S
C804 C805 1.399 . S
C804 C809 1.399 . S
C805 C804 1.399 . S
C805 C806 1.376 . S
C806 H793 0.930 . S
C806 C805 1.376 . S
C806 C807 1.388 . S
C807 H794 0.930 . S
C807 C806 1.388 . S
C807 C808 1.390 . S
C808 C807 1.390 . S
C808 C809 1.394 . S
C808 C814 1.465 . S
C809 C804 1.399 . S
C809 C808 1.394 . S
C809 C810 1.516 . S
C810 C809 1.516 . S
C810 C811 1.502 . S
C810 C812 1.561 . S
C810 C813 1.526 . S
C811 H795 0.959 . S
C811 H796 0.959 . S
C811 H797 0.961 . S
C811 C810 1.502 . S
C812 H798 0.960 . S
C812 H799 0.961 . S
C812 H800 0.959 . S
C812 C810 1.561 . S
C813 C810 1.526 . S
C813 C814 1.396 . S
C813 C818 1.390 . S
C814 C808 1.465 . S
C814 C813 1.396 . S
C814 C815 1.399 . S
C815 H801 0.929 . S
C815 C814 1.399 . S
C815 C816 1.385 . S
C816 H802 0.931 . S
C816 C815 1.385 . S
C816 C817 1.389 . S
C817 C816 1.389 . S
C817 C818 1.387 . S
C818 H803 0.930 . S
C818 C813 1.390 . S
C818 C817 1.387 . S
H819 C831 0.930 . S
H820 C833 0.930 . S
H821 C834 0.930 . S
H822 C838 0.959 . S
H823 C838 0.959 . S
H824 C838 0.961 . S
H825 C839 0.960 . S
H826 C839 0.961 . S
H827 C839 0.959 . S
H828 C842 0.929 . S
H829 C843 0.931 . S
H830 C845 0.930 . S
C831 H819 0.930 . S
C831 C832 1.399 . S
C831 C836 1.399 . S
C832 C831 1.399 . S
C832 C833 1.376 . S
C833 H820 0.930 . S
C833 C832 1.376 . S
C833 C834 1.388 . S
C834 H821 0.930 . S
C834 C833 1.388 . S
C834 C835 1.390 . S
C835 C834 1.390 . S
C835 C836 1.394 . S
C835 C841 1.465 . S
C836 C831 1.399 . S
C836 C835 1.394 . S
C836 C837 1.516 . S
C837 C836 1.516 . S
C837 C838 1.502 . S
C837 C839 1.561 . S
C837 C840 1.526 . S
C838 H822 0.959 . S
C838 H823 0.959 . S
C838 H824 0.961 . S
C838 C837 1.502 . S
C839 H825 0.960 . S
C839 H826 0.961 . S
C839 H827 0.959 . S
C839 C837 1.561 . S
C840 C837 1.526 . S
C840 C841 1.396 . S
C840 C845 1.390 . S
C841 C835 1.465 . S
C841 C840 1.396 . S
C841 C842 1.399 . S
C842 H828 0.929 . S
C842 C841 1.399 . S
C842 C843 1.385 . S
C843 H829 0.931 . S
C843 C842 1.385 . S
C843 C844 1.389 . S
C844 C843 1.389 . S
C844 C845 1.387 . S
C845 H830 0.930 . S
C845 C840 1.390 . S
C845 C844 1.387 . S
H846 C858 0.930 . S
H847 C860 0.930 . S
H848 C861 0.930 . S
H849 C865 0.959 . S
H850 C865 0.959 . S
H851 C865 0.961 . S
H852 C866 0.960 . S
H853 C866 0.961 . S
H854 C866 0.959 . S
H855 C869 0.929 . S
H856 C870 0.931 . S
H857 C872 0.930 . S
C858 H846 0.930 . S
C858 C859 1.399 . S
C858 C863 1.399 . S
C859 C858 1.399 . S
C859 C860 1.376 . S
C860 H847 0.930 . S
C860 C859 1.376 . S
C860 C861 1.388 . S
C861 H848 0.930 . S
C861 C860 1.388 . S
C861 C862 1.390 . S
C862 C861 1.390 . S
C862 C863 1.394 . S
C862 C868 1.465 . S
C863 C858 1.399 . S
C863 C862 1.394 . S
C863 C864 1.516 . S
C864 C863 1.516 . S
C864 C865 1.502 . S
C864 C866 1.561 . S
C864 C867 1.526 . S
C865 H849 0.959 . S
C865 H850 0.959 . S
C865 H851 0.961 . S
C865 C864 1.502 . S
C866 H852 0.960 . S
C866 H853 0.961 . S
C866 H854 0.959 . S
C866 C864 1.561 . S
C867 C864 1.526 . S
C867 C868 1.396 . S
C867 C872 1.390 . S
C868 C862 1.465 . S
C868 C867 1.396 . S
C868 C869 1.399 . S
C869 H855 0.929 . S
C869 C868 1.399 . S
C869 C870 1.385 . S
C870 H856 0.931 . S
C870 C869 1.385 . S
C870 C871 1.389 . S
C871 C870 1.389 . S
C871 C872 1.387 . S
C872 H857 0.930 . S
C872 C867 1.390 . S
C872 C871 1.387 . S
H873 C885 0.930 . S
H874 C887 0.930 . S
H875 C888 0.930 . S
H876 C892 0.959 . S
H877 C892 0.959 . S
H878 C892 0.961 . S
H879 C893 0.960 . S
H880 C893 0.961 . S
H881 C893 0.959 . S
H882 C896 0.929 . S
H883 C897 0.931 . S
H884 C899 0.930 . S
C885 H873 0.930 . S
C885 C886 1.399 . S
C885 C890 1.399 . S
C886 C885 1.399 . S
C886 C887 1.376 . S
C887 H874 0.930 . S
C887 C886 1.376 . S
C887 C888 1.388 . S
C888 H875 0.930 . S
C888 C887 1.388 . S
C888 C889 1.390 . S
C889 C888 1.390 . S
C889 C890 1.394 . S
C889 C895 1.465 . S
C890 C885 1.399 . S
C890 C889 1.394 . S
C890 C891 1.516 . S
C891 C890 1.516 . S
C891 C892 1.502 . S
C891 C893 1.561 . S
C891 C894 1.526 . S
C892 H876 0.959 . S
C892 H877 0.959 . S
C892 H878 0.961 . S
C892 C891 1.502 . S
C893 H879 0.960 . S
C893 H880 0.961 . S
C893 H881 0.959 . S
C893 C891 1.561 . S
C894 C891 1.526 . S
C894 C895 1.396 . S
C894 C899 1.390 . S
C895 C889 1.465 . S
C895 C894 1.396 . S
C895 C896 1.399 . S
C896 H882 0.929 . S
C896 C895 1.399 . S
C896 C897 1.385 . S
C897 H883 0.931 . S
C897 C896 1.385 . S
C897 C898 1.389 . S
C898 C897 1.389 . S
C898 C899 1.387 . S
C899 H884 0.930 . S
C899 C894 1.390 . S
C899 C898 1.387 . S
H900 C912 0.930 . S
H901 C914 0.930 . S
H902 C915 0.930 . S
H903 C919 0.959 . S
H904 C919 0.959 . S
H905 C919 0.961 . S
H906 C920 0.960 . S
H907 C920 0.961 . S
H908 C920 0.959 . S
H909 C923 0.929 . S
H910 C924 0.931 . S
H911 C926 0.930 . S
C912 H900 0.930 . S
C912 C913 1.399 . S
C912 C917 1.399 . S
C913 C912 1.399 . S
C913 C914 1.376 . S
C914 H901 0.930 . S
C914 C913 1.376 . S
C914 C915 1.388 . S
C915 H902 0.930 . S
C915 C914 1.388 . S
C915 C916 1.390 . S
C916 C915 1.390 . S
C916 C917 1.394 . S
C916 C922 1.465 . S
C917 C912 1.399 . S
C917 C916 1.394 . S
C917 C918 1.516 . S
C918 C917 1.516 . S
C918 C919 1.502 . S
C918 C920 1.561 . S
C918 C921 1.526 . S
C919 H903 0.959 . S
C919 H904 0.959 . S
C919 H905 0.961 . S
C919 C918 1.502 . S
C920 H906 0.960 . S
C920 H907 0.961 . S
C920 H908 0.959 . S
C920 C918 1.561 . S
C921 C918 1.526 . S
C921 C922 1.396 . S
C921 C926 1.390 . S
C922 C916 1.465 . S
C922 C921 1.396 . S
C922 C923 1.399 . S
C923 H909 0.929 . S
C923 C922 1.399 . S
C923 C924 1.385 . S
C924 H910 0.931 . S
C924 C923 1.385 . S
C924 C925 1.389 . S
C925 C924 1.389 . S
C925 C926 1.387 . S
C926 H911 0.930 . S
C926 C921 1.390 . S
C926 C925 1.387 . S
H927 C939 0.930 . S
H928 C941 0.930 . S
H929 C942 0.930 . S
H930 C946 0.959 . S
H931 C946 0.959 . S
H932 C946 0.961 . S
H933 C947 0.960 . S
H934 C947 0.961 . S
H935 C947 0.959 . S
H936 C950 0.929 . S
H937 C951 0.931 . S
H938 C953 0.930 . S
C939 H927 0.930 . S
C939 C940 1.399 . S
C939 C944 1.399 . S
C940 C939 1.399 . S
C940 C941 1.376 . S
C941 H928 0.930 . S
C941 C940 1.376 . S
C941 C942 1.388 . S
C942 H929 0.930 . S
C942 C941 1.388 . S
C942 C943 1.390 . S
C943 C942 1.390 . S
C943 C944 1.394 . S
C943 C949 1.465 . S
C944 C939 1.399 . S
C944 C943 1.394 . S
C944 C945 1.516 . S
C945 C944 1.516 . S
C945 C946 1.502 . S
C945 C947 1.561 . S
C945 C948 1.526 . S
C946 H930 0.959 . S
C946 H931 0.959 . S
C946 H932 0.961 . S
C946 C945 1.502 . S
C947 H933 0.960 . S
C947 H934 0.961 . S
C947 H935 0.959 . S
C947 C945 1.561 . S
C948 C945 1.526 . S
C948 C949 1.396 . S
C948 C953 1.390 . S
C949 C943 1.465 . S
C949 C948 1.396 . S
C949 C950 1.399 . S
C950 H936 0.929 . S
C950 C949 1.399 . S
C950 C951 1.385 . S
C951 H937 0.931 . S
C951 C950 1.385 . S
C951 C952 1.389 . S
C952 C951 1.389 . S
C952 C953 1.387 . S
C953 H938 0.930 . S
C953 C948 1.390 . S
C953 C952 1.387 . S
H954 C966 0.930 . S
H955 C968 0.930 . S
H956 C969 0.930 . S
H957 C973 0.959 . S
H958 C973 0.959 . S
H959 C973 0.961 . S
H960 C974 0.960 . S
H961 C974 0.961 . S
H962 C974 0.959 . S
H963 C977 0.929 . S
H964 C978 0.931 . S
H965 C980 0.930 . S
C966 H954 0.930 . S
C966 C967 1.399 . S
C966 C971 1.399 . S
C967 C966 1.399 . S
C967 C968 1.376 . S
C968 H955 0.930 . S
C968 C967 1.376 . S
C968 C969 1.388 . S
C969 H956 0.930 . S
C969 C968 1.388 . S
C969 C970 1.390 . S
C970 C969 1.390 . S
C970 C971 1.394 . S
C970 C976 1.465 . S
C971 C966 1.399 . S
C971 C970 1.394 . S
C971 C972 1.516 . S
C972 C971 1.516 . S
C972 C973 1.502 . S
C972 C974 1.561 . S
C972 C975 1.526 . S
C973 H957 0.959 . S
C973 H958 0.959 . S
C973 H959 0.961 . S
C973 C972 1.502 . S
C974 H960 0.960 . S
C974 H961 0.961 . S
C974 H962 0.959 . S
C974 C972 1.561 . S
C975 C972 1.526 . S
C975 C976 1.396 . S
C975 C980 1.390 . S
C976 C970 1.465 . S
C976 C975 1.396 . S
C976 C977 1.399 . S
C977 H963 0.929 . S
C977 C976 1.399 . S
C977 C978 1.385 . S
C978 H964 0.931 . S
C978 C977 1.385 . S
C978 C979 1.389 . S
C979 C978 1.389 . S
C979 C980 1.387 . S
C980 H965 0.930 . S
C980 C975 1.390 . S
C980 C979 1.387 . S
H981 C993 0.930 . S
H982 C995 0.930 . S
H983 C996 0.930 . S
H984 C1000 0.959 . S
H985 C1000 0.959 . S
H986 C1000 0.961 . S
H987 C1001 0.960 . S
H988 C1001 0.961 . S
H989 C1001 0.959 . S
H990 C1004 0.929 . S
H991 C1005 0.931 . S
H992 C1007 0.930 . S
C993 H981 0.930 . S
C993 C994 1.399 . S
C993 C998 1.399 . S
C994 C993 1.399 . S
C994 C995 1.376 . S
C995 H982 0.930 . S
C995 C994 1.376 . S
C995 C996 1.388 . S
C996 H983 0.930 . S
C996 C995 1.388 . S
C996 C997 1.390 . S
C997 C996 1.390 . S
C997 C998 1.394 . S
C997 C1003 1.465 . S
C998 C993 1.399 . S
C998 C997 1.394 . S
C998 C999 1.516 . S
C999 C998 1.516 . S
C999 C1000 1.502 . S
C999 C1001 1.561 . S
C999 C1002 1.526 . S
C1000 H984 0.959 . S
C1000 H985 0.959 . S
C1000 H986 0.961 . S
C1000 C999 1.502 . S
C1001 H987 0.960 . S
C1001 H988 0.961 . S
C1001 H989 0.959 . S
C1001 C999 1.561 . S
C1002 C999 1.526 . S
C1002 C1003 1.396 . S
C1002 C1007 1.390 . S
C1003 C997 1.465 . S
C1003 C1002 1.396 . S
C1003 C1004 1.399 . S
C1004 H990 0.929 . S
C1004 C1003 1.399 . S
C1004 C1005 1.385 . S
C1005 H991 0.931 . S
C1005 C1004 1.385 . S
C1005 C1006 1.389 . S
C1006 C1005 1.389 . S
C1006 C1007 1.387 . S
C1007 H992 0.930 . S
C1007 C1002 1.390 . S
C1007 C1006 1.387 . S
H1008 C1020 0.930 . S
H1009 C1022 0.930 . S
H1010 C1023 0.930 . S
H1011 C1027 0.959 . S
H1012 C1027 0.959 . S
H1013 C1027 0.961 . S
H1014 C1028 0.960 . S
H1015 C1028 0.961 . S
H1016 C1028 0.959 . S
H1017 C1031 0.929 . S
H1018 C1032 0.931 . S
H1019 C1034 0.930 . S
C1020 H1008 0.930 . S
C1020 C1021 1.399 . S
C1020 C1025 1.399 . S
C1021 C1020 1.399 . S
C1021 C1022 1.376 . S
C1022 H1009 0.930 . S
C1022 C1021 1.376 . S
C1022 C1023 1.388 . S
C1023 H1010 0.930 . S
C1023 C1022 1.388 . S
C1023 C1024 1.390 . S
C1024 C1023 1.390 . S
C1024 C1025 1.394 . S
C1024 C1030 1.465 . S
C1025 C1020 1.399 . S
C1025 C1024 1.394 . S
C1025 C1026 1.516 . S
C1026 C1025 1.516 . S
C1026 C1027 1.502 . S
C1026 C1028 1.561 . S
C1026 C1029 1.526 . S
C1027 H1011 0.959 . S
C1027 H1012 0.959 . S
C1027 H1013 0.961 . S
C1027 C1026 1.502 . S
C1028 H1014 0.960 . S
C1028 H1015 0.961 . S
C1028 H1016 0.959 . S
C1028 C1026 1.561 . S
C1029 C1026 1.526 . S
C1029 C1030 1.396 . S
C1029 C1034 1.390 . S
C1030 C1024 1.465 . S
C1030 C1029 1.396 . S
C1030 C1031 1.399 . S
C1031 H1017 0.929 . S
C1031 C1030 1.399 . S
C1031 C1032 1.385 . S
C1032 H1018 0.931 . S
C1032 C1031 1.385 . S
C1032 C1033 1.389 . S
C1033 C1032 1.389 . S
C1033 C1034 1.387 . S
C1034 H1019 0.930 . S
C1034 C1029 1.390 . S
C1034 C1033 1.387 . S
H1035 C1047 0.930 . S
H1036 C1049 0.930 . S
H1037 C1050 0.930 . S
H1038 C1054 0.959 . S
H1039 C1054 0.959 . S
H1040 C1054 0.961 . S
H1041 C1055 0.960 . S
H1042 C1055 0.961 . S
H1043 C1055 0.959 . S
H1044 C1058 0.929 . S
H1045 C1059 0.931 . S
H1046 C1061 0.930 . S
C1047 H1035 0.930 . S
C1047 C1048 1.399 . S
C1047 C1052 1.399 . S
C1048 C1047 1.399 . S
C1048 C1049 1.376 . S
C1049 H1036 0.930 . S
C1049 C1048 1.376 . S
C1049 C1050 1.388 . S
C1050 H1037 0.930 . S
C1050 C1049 1.388 . S
C1050 C1051 1.390 . S
C1051 C1050 1.390 . S
C1051 C1052 1.394 . S
C1051 C1057 1.465 . S
C1052 C1047 1.399 . S
C1052 C1051 1.394 . S
C1052 C1053 1.516 . S
C1053 C1052 1.516 . S
C1053 C1054 1.502 . S
C1053 C1055 1.561 . S
C1053 C1056 1.526 . S
C1054 H1038 0.959 . S
C1054 H1039 0.959 . S
C1054 H1040 0.961 . S
C1054 C1053 1.502 . S
C1055 H1041 0.960 . S
C1055 H1042 0.961 . S
C1055 H1043 0.959 . S
C1055 C1053 1.561 . S
C1056 C1053 1.526 . S
C1056 C1057 1.396 . S
C1056 C1061 1.390 . S
C1057 C1051 1.465 . S
C1057 C1056 1.396 . S
C1057 C1058 1.399 . S
C1058 H1044 0.929 . S
C1058 C1057 1.399 . S
C1058 C1059 1.385 . S
C1059 H1045 0.931 . S
C1059 C1058 1.385 . S
C1059 C1060 1.389 . S
C1060 C1059 1.389 . S
C1060 C1061 1.387 . S
C1061 H1046 0.930 . S
C1061 C1056 1.390 . S
C1061 C1060 1.387 . S
H1062 C1074 0.930 . S
H1063 C1076 0.930 . S
H1064 C1077 0.930 . S
H1065 C1081 0.959 . S
H1066 C1081 0.959 . S
H1067 C1081 0.961 . S
H1068 C1082 0.960 . S
H1069 C1082 0.961 . S
H1070 C1082 0.959 . S
H1071 C1085 0.929 . S
H1072 C1086 0.931 . S
H1073 C1088 0.930 . S
C1074 H1062 0.930 . S
C1074 C1075 1.399 . S
C1074 C1079 1.399 . S
C1075 C1074 1.399 . S
C1075 C1076 1.376 . S
C1076 H1063 0.930 . S
C1076 C1075 1.376 . S
C1076 C1077 1.388 . S
C1077 H1064 0.930 . S
C1077 C1076 1.388 . S
C1077 C1078 1.390 . S
C1078 C1077 1.390 . S
C1078 C1079 1.394 . S
C1078 C1084 1.465 . S
C1079 C1074 1.399 . S
C1079 C1078 1.394 . S
C1079 C1080 1.516 . S
C1080 C1079 1.516 . S
C1080 C1081 1.502 . S
C1080 C1082 1.561 . S
C1080 C1083 1.526 . S
C1081 H1065 0.959 . S
C1081 H1066 0.959 . S
C1081 H1067 0.961 . S
C1081 C1080 1.502 . S
C1082 H1068 0.960 . S
C1082 H1069 0.961 . S
C1082 H1070 0.959 . S
C1082 C1080 1.561 . S
C1083 C1080 1.526 . S
C1083 C1084 1.396 . S
C1083 C1088 1.390 . S
C1084 C1078 1.465 . S
C1084 C1083 1.396 . S
C1084 C1085 1.399 . S
C1085 H1071 0.929 . S
C1085 C1084 1.399 . S
C1085 C1086 1.385 . S
C1086 H1072 0.931 . S
C1086 C1085 1.385 . S
C1086 C1087 1.389 . S
C1087 C1086 1.389 . S
C1087 C1088 1.387 . S
C1088 H1073 0.930 . S
C1088 C1083 1.390 . S
C1088 C1087 1.387 . S
H1089 C1101 0.930 . S
H1090 C1103 0.930 . S
H1091 C1104 0.930 1_565 S
H1092 C1108 0.959 . S
H1093 C1108 0.959 . S
H1094 C1108 0.961 . S
H1095 C1109 0.960 . S
H1096 C1109 0.961 . S
H1097 C1109 0.959 . S
H1098 C1112 0.929 . S
H1099 C1113 0.931 . S
H1100 C1115 0.930 . S
C1101 H1089 0.930 . S
C1101 C1102 1.399 . S
C1101 C1106 1.399 . S
C1102 C1101 1.399 . S
C1102 C1103 1.376 . S
C1103 H1090 0.930 . S
C1103 C1102 1.376 . S
C1103 C1104 1.388 . S
C1104 H1091 0.930 1_545 S
C1104 C1103 1.388 . S
C1104 C1105 1.390 . S
C1105 C1104 1.390 . S
C1105 C1106 1.394 . S
C1105 C1111 1.465 1_545 S
C1106 C1101 1.399 . S
C1106 C1105 1.394 . S
C1106 C1107 1.516 . S
C1107 C1106 1.516 . S
C1107 C1108 1.502 . S
C1107 C1109 1.561 . S
C1107 C1110 1.526 1_545 S
C1108 H1092 0.959 . S
C1108 H1093 0.959 . S
C1108 H1094 0.961 . S
C1108 C1107 1.502 . S
C1109 H1095 0.960 . S
C1109 H1096 0.961 . S
C1109 H1097 0.959 . S
C1109 C1107 1.561 . S
C1110 C1107 1.526 1_565 S
C1110 C1111 1.396 . S
C1110 C1115 1.390 . S
C1111 C1105 1.465 1_565 S
C1111 C1110 1.396 . S
C1111 C1112 1.399 . S
C1112 H1098 0.929 . S
C1112 C1111 1.399 . S
C1112 C1113 1.385 . S
C1113 H1099 0.931 . S
C1113 C1112 1.385 . S
C1113 C1114 1.389 . S
C1114 C1113 1.389 . S
C1114 C1115 1.387 . S
C1115 H1100 0.930 . S
C1115 C1110 1.390 . S
C1115 C1114 1.387 . S
H1116 C1128 0.930 . S
H1117 C1130 0.930 . S
H1118 C1131 0.930 . S
H1119 C1135 0.959 . S
H1120 C1135 0.959 . S
H1121 C1135 0.961 . S
H1122 C1136 0.960 . S
H1123 C1136 0.961 . S
H1124 C1136 0.959 1_655 S
H1125 C1139 0.929 . S
H1126 C1140 0.931 . S
H1127 C1142 0.930 . S
C1128 H1116 0.930 . S
C1128 C1129 1.399 . S
C1128 C1133 1.399 . S
C1129 C1128 1.399 . S
C1129 C1130 1.376 . S
C1130 H1117 0.930 . S
C1130 C1129 1.376 . S
C1130 C1131 1.388 . S
C1131 H1118 0.930 . S
C1131 C1130 1.388 . S
C1131 C1132 1.390 . S
C1132 C1131 1.390 . S
C1132 C1133 1.394 . S
C1132 C1138 1.465 1_455 S
C1133 C1128 1.399 . S
C1133 C1132 1.394 . S
C1133 C1134 1.516 . S
C1134 C1133 1.516 . S
C1134 C1135 1.502 . S
C1134 C1136 1.561 . S
C1134 C1137 1.526 1_455 S
C1135 H1119 0.959 . S
C1135 H1120 0.959 . S
C1135 H1121 0.961 . S
C1135 C1134 1.502 . S
C1136 H1122 0.960 . S
C1136 H1123 0.961 . S
C1136 H1124 0.959 1_455 S
C1136 C1134 1.561 . S
C1137 C1134 1.526 1_655 S
C1137 C1138 1.396 . S
C1137 C1142 1.390 . S
C1138 C1132 1.465 1_655 S
C1138 C1137 1.396 . S
C1138 C1139 1.399 . S
C1139 H1125 0.929 . S
C1139 C1138 1.399 . S
C1139 C1140 1.385 . S
C1140 H1126 0.931 . S
C1140 C1139 1.385 . S
C1140 C1141 1.389 . S
C1141 C1140 1.389 . S
C1141 C1142 1.387 . S
C1142 H1127 0.930 . S
C1142 C1137 1.390 . S
C1142 C1141 1.387 . S
H1143 C1155 0.930 . S
H1144 C1157 0.930 . S
H1145 C1158 0.930 . S
H1146 C1162 0.959 . S
H1147 C1162 0.959 . S
H1148 C1162 0.961 . S
H1149 C1163 0.960 . S
H1150 C1163 0.961 . S
H1151 C1163 0.959 1_554 S
H1152 C1166 0.929 . S
H1153 C1167 0.931 . S
H1154 C1169 0.930 . S
C1155 H1143 0.930 . S
C1155 C1156 1.399 . S
C1155 C1160 1.399 . S
C1156 C1155 1.399 . S
C1156 C1157 1.376 . S
C1157 H1144 0.930 . S
C1157 C1156 1.376 . S
C1157 C1158 1.388 1_556 S
C1158 H1145 0.930 . S
C1158 C1157 1.388 1_554 S
C1158 C1159 1.390 . S
C1159 C1158 1.390 . S
C1159 C1160 1.394 1_554 S
C1159 C1165 1.465 . S
C1160 C1155 1.399 . S
C1160 C1159 1.394 1_556 S
C1160 C1161 1.516 . S
C1161 C1160 1.516 . S
C1161 C1162 1.502 . S
C1161 C1163 1.561 . S
C1161 C1164 1.526 1_556 S
C1162 H1146 0.959 . S
C1162 H1147 0.959 . S
C1162 H1148 0.961 . S
C1162 C1161 1.502 . S
C1163 H1149 0.960 . S
C1163 H1150 0.961 . S
C1163 H1151 0.959 1_556 S
C1163 C1161 1.561 . S
C1164 C1161 1.526 1_554 S
C1164 C1165 1.396 . S
C1164 C1169 1.390 . S
C1165 C1159 1.465 . S
C1165 C1164 1.396 . S
C1165 C1166 1.399 . S
C1166 H1152 0.929 . S
C1166 C1165 1.399 . S
C1166 C1167 1.385 . S
C1167 H1153 0.931 . S
C1167 C1166 1.385 . S
C1167 C1168 1.389 . S
C1168 C1167 1.389 . S
C1168 C1169 1.387 . S
C1169 H1154 0.930 . S
C1169 C1164 1.390 . S
C1169 C1168 1.387 . S
H1170 C1182 0.930 . S
H1171 C1184 0.930 1_554 S
H1172 C1185 0.930 . S
H1173 C1189 0.959 . S
H1174 C1189 0.959 . S
H1175 C1189 0.961 . S
H1176 C1190 0.960 . S
H1177 C1190 0.961 . S
H1178 C1190 0.959 1_565 S
H1179 C1193 0.929 1_565 S
H1180 C1194 0.931 . S
H1181 C1196 0.930 1_556 S
C1182 H1170 0.930 . S
C1182 C1183 1.399 . S
C1182 C1187 1.399 . S
C1183 C1182 1.399 . S
C1183 C1184 1.376 . S
C1184 H1171 0.930 1_556 S
C1184 C1183 1.376 . S
C1184 C1185 1.388 1_556 S
C1185 H1172 0.930 . S
C1185 C1184 1.388 1_554 S
C1185 C1186 1.390 . S
C1186 C1185 1.390 . S
C1186 C1187 1.394 1_554 S
C1186 C1192 1.465 1_565 S
C1187 C1182 1.399 . S
C1187 C1186 1.394 1_556 S
C1187 C1188 1.516 1_565 S
C1188 C1187 1.516 1_545 S
C1188 C1189 1.502 . S
C1188 C1190 1.561 . S
C1188 C1191 1.526 . S
C1189 H1173 0.959 . S
C1189 H1174 0.959 . S
C1189 H1175 0.961 . S
C1189 C1188 1.502 . S
C1190 H1176 0.960 . S
C1190 H1177 0.961 . S
C1190 H1178 0.959 1_545 S
C1190 C1188 1.561 . S
C1191 C1188 1.526 . S
C1191 C1192 1.396 1_556 S
C1191 C1196 1.390 1_556 S
C1192 C1186 1.465 1_545 S
C1192 C1191 1.396 1_554 S
C1192 C1193 1.399 . S
C1193 H1179 0.929 1_545 S
C1193 C1192 1.399 . S
C1193 C1194 1.385 . S
C1194 H1180 0.931 . S
C1194 C1193 1.385 . S
C1194 C1195 1.389 . S
C1195 C1194 1.389 . S
C1195 C1196 1.387 . S
C1196 H1181 0.930 1_554 S
C1196 C1191 1.390 1_554 S
C1196 C1195 1.387 . S
H1197 C1209 0.930 . S
H1198 C1211 0.930 . S
H1199 C1212 0.930 . S
H1200 C1216 0.959 . S
H1201 C1216 0.959 . S
H1202 C1216 0.961 . S
H1203 C1217 0.960 . S
H1204 C1217 0.961 . S
H1205 C1217 0.959 . S
H1206 C1220 0.929 . S
H1207 C1221 0.931 . S
H1208 C1223 0.930 . S
C1209 H1197 0.930 . S
C1209 C1210 1.399 . S
C1209 C1214 1.399 . S
C1210 C1209 1.399 . S
C1210 C1211 1.376 . S
C1211 H1198 0.930 . S
C1211 C1210 1.376 . S
C1211 C1212 1.388 1_556 S
C1212 H1199 0.930 . S
C1212 C1211 1.388 1_554 S
C1212 C1213 1.390 . S
C1213 C1212 1.390 . S
C1213 C1214 1.394 1_554 S
C1213 C1219 1.465 . S
C1214 C1209 1.399 . S
C1214 C1213 1.394 1_556 S
C1214 C1215 1.516 1_455 S
C1215 C1214 1.516 1_655 S
C1215 C1216 1.502 . S
C1215 C1217 1.561 . S
C1215 C1218 1.526 1_556 S
C1216 H1200 0.959 . S
C1216 H1201 0.959 . S
C1216 H1202 0.961 . S
C1216 C1215 1.502 . S
C1217 H1203 0.960 . S
C1217 H1204 0.961 . S
C1217 H1205 0.959 . S
C1217 C1215 1.561 . S
C1218 C1215 1.526 1_554 S
C1218 C1219 1.396 1_655 S
C1218 C1223 1.390 . S
C1219 C1213 1.465 . S
C1219 C1218 1.396 1_455 S
C1219 C1220 1.399 . S
C1220 H1206 0.929 . S
C1220 C1219 1.399 . S
C1220 C1221 1.385 1_455 S
C1221 H1207 0.931 . S
C1221 C1220 1.385 1_655 S
C1221 C1222 1.389 . S
C1222 C1221 1.389 . S
C1222 C1223 1.387 . S
C1223 H1208 0.930 . S
C1223 C1218 1.390 . S
C1223 C1222 1.387 . S
C265 C7 1.127 . S
C277 C203 1.179 1_554 S
C292 C171 1.113 1_554 S
C304 C17 1.132 . S
C319 C31 1.131 . S
C331 C189 1.124 . S
C346 C91 1.126 . S
C358 C35 1.170 . S
C373 C105 1.111 . S
C385 C3 1.132 . S
C400 C119 1.156 . S
C412 C21 1.142 . S
C427 C49 1.169 . S
C439 C161 1.138 1_556 S
C454 C133 1.112 . S
C466 C59 1.139 . S
C481 C147 1.141 . S
C493 C73 1.138 . S
C508 C77 1.126 . S
C520 C217 1.166 . S
C535 C45 1.131 . S
C547 C227 1.110 . S
C562 C241 1.151 . S
C574 C63 1.153 . S
C589 C175 1.099 . S
C601 C115 1.127 . S
C616 C87 1.111 . S
C628 C185 1.128 . S
C643 C199 1.124 . S
C655 C101 1.105 . S
C670 C245 1.106 . S
C682 C129 1.122 . S
C697 C143 1.131 . S
C709 C213 1.112 . S
C724 C231 1.098 . S
C736 C157 1.124 . S
C751 C219 1.547 . S
C763 C9 1.641 . S
C778 C22 1.715 . S
C790 C232 1.642 . S
C805 C36 1.707 . S
C817 C246 1.711 . S
C832 C37 1.617 . S
C844 C163 1.595 . S
C859 C135 1.551 . S
C871 C8 1.769 . S
C886 C23 1.576 . S
C898 C149 1.505 . S
C913 C93 1.500 . S
C925 C51 1.615 . S
C940 C107 1.509 . S
C952 C64 1.709 . S
C967 C78 1.714 . S
C979 C121 1.641 . S
C994 C79 1.567 . S
C1006 C205 1.616 . S
C1021 C50 1.650 . S
C1033 C176 1.730 . S
C1048 C65 1.629 . S
C1060 C191 1.517 . S
C1075 C120 1.745 . S
C1087 C247 1.556 . S
C1102 C92 1.695 . S
C1114 C218 1.760 . S
C1129 C233 1.487 . S
C1141 C106 1.702 . S
C1156 C177 1.541 . S
C1168 C134 1.699 . S
C1183 C190 1.707 . S
C1195 C148 1.663 . S
C1210 C204 1.783 . S
C1222 C162 1.706 . S
