# Generated by pormake.
# Topology rob, (6)-cn, num edge types: 1
# Building blocks:
#     Node 0, Type 0, BuildingBlock: PAMTUU_clean_sbu_0, # of connection points: 6
#     Node 1, Type 0, BuildingBlock: PAMTUU_clean_sbu_0, # of connection points: 6
#     Node 2, Type 0, BuildingBlock: PAMTUU_clean_sbu_0, # of connection points: 6
#     Node 3, Type 0, BuildingBlock: PAMTUU_clean_sbu_0, # of connection points: 6
#     Edge 4, Type (0, 0), BuildingBlock: FUNLAD_clean_linker_0, # of connection points: 2
#     Edge 5, Type (0, 0), BuildingBlock: FUNLAD_clean_linker_0, # of connection points: 2
#     Edge 6, Type (0, 0), BuildingBlock: FUNLAD_clean_linker_0, # of connection points: 2
#     Edge 7, Type (0, 0), BuildingBlock: FUNLAD_clean_linker_0, # of connection points: 2
#     Edge 8, Type (0, 0), BuildingBlock: FUNLAD_clean_linker_0, # of connection points: 2
#     Edge 9, Type (0, 0), BuildingBlock: FUNLAD_clean_linker_0, # of connection points: 2
#     Edge 10, Type (0, 0), BuildingBlock: FUNLAD_clean_linker_0, # of connection points: 2
#     Edge 11, Type (0, 0), BuildingBlock: FUNLAD_clean_linker_0, # of connection points: 2
#     Edge 12, Type (0, 0), BuildingBlock: FUNLAD_clean_linker_0, # of connection points: 2
#     Edge 13, Type (0, 0), BuildingBlock: FUNLAD_clean_linker_0, # of connection points: 2
#     Edge 14, Type (0, 0), BuildingBlock: FUNLAD_clean_linker_0, # of connection points: 2
#     Edge 15, Type (0, 0), BuildingBlock: FUNLAD_clean_linker_0, # of connection points: 2
# Relax obj value: 0.121
# Max RMSD: 0.199
# Mean RMSD: 0.199
data_MOF--net-rob--node1-PAMTUU_clean_sbu_0--edge1-FUNLAD_clean_linker_0
_symmetry_space_group_name_H-M    P1
_symmetry_Int_Tables_number       1
_symmetry_cell_setting            triclinic
loop_
_symmetry_equiv_pos_as_xyz
'x, y, z'
_cell_length_a     20.114166
_cell_length_b     29.087464
_cell_length_c     40.567476
_cell_angle_alpha  89.547549
_cell_angle_beta   58.483877
_cell_angle_gamma 90.229878
loop_
_atom_site_label
_atom_site_type_symbol
_atom_site_fract_x
_atom_site_fract_y
_atom_site_fract_z
_atom_type_partial_charge
Tb0 Tb 0.20063 0.25939 0.98756 0.0
Tb1 Tb 0.31378 0.1944 0.00504 0.0
C2 C 0.33886 0.30103 0.99203 0.0
C3 C 0.10128 0.30207 0.93881 0.0
C4 C 0.07261 0.29569 0.87796 0.0
C5 C 0.04682 0.33392 0.90256 0.0
C6 C 0.06103 0.33703 0.93276 0.0
C7 C 0.12727 0.26388 0.91438 0.0
C8 C 0.11287 0.26065 0.88428 0.0
C9 C 0.11776 0.30601 0.96995 0.0
O10 O 0.30529 0.24435 0.93292 0.0
O11 O 0.3419 0.17613 0.94739 0.0
O12 O 0.20879 0.15534 0.02107 0.0
O13 O 0.1776 0.18859 0.97971 0.0
O14 O 0.42522 0.17458 0.99229 0.0
O15 O 0.32146 0.14211 0.03872 0.0
O16 O 0.24722 0.23672 0.05553 0.0
O17 O 0.14115 0.25094 0.04995 0.0
O18 O 0.26597 0.30638 0.00178 0.0
O19 O 0.37198 0.26051 0.9836 0.0
C20 C 0.3423 0.20511 0.92231 0.0
O21 O 0.09059 0.27277 0.9956 0.0
O22 O 0.18968 0.31644 0.95876 0.0
C23 C 0.17325 0.154 0.00169 0.0
C24 C 0.42498 0.15298 0.04851 0.0
C25 C 0.46659 0.16165 0.10464 0.0
C26 C 0.47944 0.12029 0.08444 0.0
C27 C 0.45871 0.11602 0.05665 0.0
C28 C 0.41348 0.19466 0.0679 0.0
C29 C 0.43433 0.19902 0.09567 0.0
C30 C 0.39674 0.14667 0.022 0.0
C31 C 0.1743 0.249 0.07055 0.0
H32 H 0.01493 0.36122 0.89873 0.0
H33 H 0.04075 0.36677 0.95132 0.0
H34 H 0.15909 0.23672 0.91848 0.0
H35 H 0.13436 0.23107 0.86558 0.0
H36 H 0.50514 0.0911 0.09029 0.0
H37 H 0.46768 0.08357 0.04203 0.0
H38 H 0.38677 0.22345 0.06218 0.0
H39 H 0.42293 0.23114 0.11097 0.0
Tb40 Tb 0.69773 0.75735 0.9945 0.0
Tb41 Tb 0.82018 0.69359 0.00675 0.0
C42 C 0.84476 0.79875 0.99057 0.0
C43 C 0.58365 0.80009 0.9524 0.0
C44 C 0.54487 0.79708 0.8947 0.0
C45 C 0.51962 0.83352 0.92114 0.0
C46 C 0.53899 0.83501 0.94963 0.0
C47 C 0.60799 0.76326 0.92659 0.0
C48 C 0.58888 0.76176 0.89799 0.0
C49 C 0.60864 0.80389 0.98057 0.0
O50 O 0.76019 0.71536 0.94344 0.0
O51 O 0.8714 0.69944 0.94438 0.0
O52 O 0.75095 0.6457 0.99586 0.0
O53 O 0.6427 0.69086 0.01801 0.0
O54 O 0.93233 0.68271 -0.00297 0.0
O55 O 0.83663 0.63726 0.0344 0.0
O56 O 0.71836 0.70777 0.06272 0.0
O57 O 0.67737 0.77607 0.051 0.0
O58 O 0.80528 0.79617 0.97322 0.0
O59 O 0.84314 0.76505 0.01261 0.0
C60 C 0.83315 0.70212 0.92616 0.0
O61 O 0.58418 0.7719 0.00717 0.0
O62 O 0.6824 0.81276 0.96574 0.0
C63 C 0.67661 0.65057 0.00819 0.0
C64 C 0.92561 0.65476 0.05354 0.0
C65 C 0.95366 0.66296 0.11474 0.0
C66 C 0.97688 0.62347 0.09154 0.0
C67 C 0.96295 0.61944 0.06125 0.0
C68 C 0.90239 0.69426 0.0765 0.0
C69 C 0.91638 0.69837 0.10673 0.0
C70 C 0.90808 0.64952 0.0227 0.0
C71 C 0.68299 0.74733 0.07462 0.0
H72 H 0.48654 0.86158 0.91922 0.0
H73 H 0.52024 0.86392 0.96909 0.0
H74 H 0.64258 0.73596 0.92827 0.0
H75 H 0.60848 0.73289 0.87851 0.0
H76 H 0.0065 0.59579 0.09656 0.0
H77 H 0.98101 0.58863 0.04396 0.0
H78 H 0.87274 0.72175 0.07125 0.0
H79 H 0.89671 0.72895 0.12428 0.0
Tb80 Tb 0.32265 0.77532 0.5053 0.0
Tb81 Tb 0.20363 0.70713 0.49358 0.0
C82 C 0.18109 0.81456 0.50277 0.0
C83 C 0.4266 0.81881 0.55129 0.0
C84 C 0.45714 0.8129 0.61183 0.0
C85 C 0.48707 0.84974 0.585 0.0
C86 C 0.47187 0.85264 0.55505 0.0
C87 C 0.3965 0.782 0.57789 0.0
C88 C 0.41159 0.77905 0.60785 0.0
C89 C 0.40942 0.82241 0.52021 0.0
O90 O 0.21835 0.76253 0.5612 0.0
O91 O 0.17754 0.6926 0.552 0.0
O92 O 0.30807 0.66849 0.47843 0.0
O93 O 0.34278 0.70548 0.51672 0.0
O94 O 0.09131 0.6869 0.50702 0.0
O95 O 0.19362 0.65214 0.46327 0.0
O96 O 0.26723 0.74849 0.44145 0.0
O97 O 0.37691 0.76692 0.44301 0.0
O98 O 0.25453 0.82095 0.492 0.0
O99 O 0.14764 0.77366 0.51238 0.0
C100 C 0.18121 0.72321 0.57472 0.0
O101 O 0.43435 0.78877 0.49558 0.0
O102 O 0.33792 0.83326 0.53134 0.0
C103 C 0.34479 0.66928 0.49727 0.0
C104 C 0.09141 0.66019 0.45192 0.0
C105 C 0.05082 0.66222 0.39481 0.0
C106 C 0.03492 0.62306 0.41856 0.0
C107 C 0.05511 0.62209 0.44676 0.0
C108 C 0.10646 0.69964 0.4288 0.0
C109 C 0.08632 0.70067 0.40054 0.0
C110 C 0.11871 0.65699 0.47924 0.0
C111 C 0.3399 0.76282 0.42431 0.0
H112 H 0.52137 0.87677 0.58744 0.0
H113 H 0.49514 0.88147 0.53496 0.0
H114 H 0.36128 0.75551 0.57547 0.0
H115 H 0.38836 0.74991 0.62758 0.0
H116 H 0.00886 0.59256 0.41465 0.0
H117 H 0.04389 0.59114 0.464 0.0
H118 H 0.13488 0.72936 0.43222 0.0
H119 H 0.09869 0.73158 0.38314 0.0
Tb120 Tb 0.80827 0.27024 0.50545 0.0
Tb121 Tb 0.6973 0.20145 0.489 0.0
C122 C 0.67238 0.30732 0.49633 0.0
C123 C 0.91828 0.31574 0.54833 0.0
C124 C 0.96508 0.3093 0.60274 0.0
C125 C 0.98083 0.34935 0.58 0.0
C126 C 0.9575 0.35252 0.55308 0.0
C127 C 0.90366 0.27534 0.57032 0.0
C128 C 0.92685 0.27214 0.5973 0.0
C129 C 0.8886 0.32084 0.52225 0.0
O130 O 0.74108 0.22801 0.55684 0.0
O131 O 0.63592 0.21232 0.55097 0.0
O132 O 0.7628 0.15675 0.50471 0.0
O133 O 0.8676 0.2047 0.48684 0.0
O134 O 0.58722 0.18546 0.4978 0.0
O135 O 0.68671 0.14283 0.46216 0.0
O136 O 0.80257 0.21635 0.43396 0.0
O137 O 0.84076 0.28541 0.4464 0.0
O138 O 0.70627 0.30884 0.51654 0.0
O139 O 0.67625 0.27074 0.47677 0.0
C140 C 0.66827 0.21496 0.57186 0.0
O141 O 0.91856 0.2939 0.49239 0.0
O142 O 0.81298 0.32267 0.53934 0.0
C143 C 0.83528 0.16354 0.49537 0.0
C144 C 0.59667 0.15326 0.44263 0.0
C145 C 0.56315 0.15566 0.38326 0.0
C146 C 0.53338 0.12005 0.41121 0.0
C147 C 0.55002 0.11891 0.44063 0.0
C148 C 0.62667 0.18887 0.4149 0.0
C149 C 0.61005 0.19007 0.38547 0.0
C150 C 0.61443 0.15164 0.47341 0.0
C151 C 0.84161 0.25537 0.42219 0.0
H152 H 0.00913 0.37883 0.58379 0.0
H153 H 0.96867 0.38407 0.53654 0.0
H154 H 0.87322 0.2466 0.56703 0.0
H155 H 0.91462 0.24064 0.61399 0.0
H156 H 0.49812 0.09263 0.41003 0.0
H157 H 0.52677 0.09107 0.46172 0.0
H158 H 0.66288 0.21572 0.41606 0.0
H159 H 0.63321 0.21823 0.36471 0.0
C160 C 0.66579 0.56753 0.9954 0.0
C161 C 0.63053 0.61048 0.00877 0.0
C162 C 0.62333 0.53056 0.99352 0.0
C163 C 0.54432 0.53572 0.0053 0.0
C164 C 0.50916 0.57856 0.01888 0.0
C165 C 0.55155 0.61547 0.02075 0.0
C166 C 0.49749 0.49815 0.00234 0.0
C167 C 0.51429 0.45323 0.00148 0.0
C168 C 0.46807 0.41556 -0.00188 0.0
C169 C 0.50304 0.37246 0.98558 0.0
C170 C 0.46161 0.3356 0.98286 0.0
C171 C 0.38382 0.3409 0.99286 0.0
H172 H 0.35983 0.45304 0.01907 0.0
C173 C 0.34864 0.38403 0.00535 0.0
C174 C 0.3901 0.42094 0.00812 0.0
H175 H 0.28851 0.38915 0.0137 0.0
H176 H 0.72675 0.56264 0.98555 0.0
H177 H 0.65357 0.49863 0.98174 0.0
H178 H 0.44862 0.58362 0.02792 0.0
H179 H 0.52251 0.64812 0.03106 0.0
H180 H 0.44708 0.5084 0.00107 0.0
H181 H 0.56463 0.44312 0.00288 0.0
H182 H 0.56277 0.36719 0.9779 0.0
H183 H 0.49054 0.3028 0.9733 0.0
C184 C 0.38635 0.58746 0.47927 0.0
C185 C 0.38574 0.62767 0.49843 0.0
C186 C 0.42223 0.54763 0.48183 0.0
C187 C 0.45876 0.54726 0.50347 0.0
C188 C 0.45807 0.58749 0.52253 0.0
C189 C 0.42232 0.62726 0.51995 0.0
C190 C 0.49569 0.50551 0.50818 0.0
C191 C 0.52044 0.46971 0.48376 0.0
C192 C 0.55803 0.42828 0.48852 0.0
C193 C 0.55896 0.38762 0.46985 0.0
C194 C 0.59508 0.34817 0.47278 0.0
C195 C 0.63164 0.34856 0.49432 0.0
H196 H 0.59822 0.45955 0.52376 0.0
C197 C 0.63099 0.38925 0.51293 0.0
C198 C 0.595 0.42871 0.50995 0.0
H199 H 0.65934 0.39094 0.52941 0.0
H200 H 0.3581 0.58646 0.46273 0.0
H201 H 0.41923 0.51714 0.46758 0.0
H202 H 0.48527 0.58819 0.53958 0.0
H203 H 0.42273 0.65754 0.53523 0.0
H204 H 0.50314 0.50492 0.5328 0.0
H205 H 0.51276 0.47016 0.45921 0.0
H206 H 0.53156 0.38633 0.4529 0.0
H207 H 0.59475 0.31749 0.4579 0.0
C208 C 0.09781 0.1068 0.98046 0.0
C209 C 0.1299 0.11177 0.00381 0.0
C210 C 0.05946 0.06605 0.98161 0.0
C211 C 0.05266 0.02938 0.00611 0.0
C212 C 0.08309 0.03492 0.03005 0.0
C213 C 0.12161 0.07548 0.02881 0.0
C214 C 0.01314 -0.01478 0.00831 0.0
C215 C 1.00498 0.96915 0.97955 0.0
C216 C 0.96611 0.92458 0.98217 0.0
C217 C 0.93059 0.91883 0.96052 0.0
C218 C 0.8919 0.87781 0.96289 0.0
C219 C 0.88872 0.84139 0.98668 0.0
H220 H 0.99411 0.89003 0.02113 0.0
C221 C 0.92638 0.84658 0.00745 0.0
C222 C 0.96486 0.88766 0.00516 0.0
H223 H 0.92578 0.81903 0.02573 0.0
H224 H 0.10266 0.13425 0.9611 0.0
H225 H 0.03457 0.06384 0.96362 0.0
H226 H 0.07802 0.00746 0.04948 0.0
H227 H 0.14518 0.0782 0.04738 0.0
H228 H 0.99143 0.96486 0.03458 0.0
H229 H 0.02593 -0.01057 0.95331 0.0
H230 H 0.93156 0.94649 0.94221 0.0
H231 H 0.86396 0.87487 0.94628 0.0
C232 C 0.84783 0.07987 0.50623 0.0
C233 C 0.88107 0.12417 0.49594 0.0
C234 C 0.89045 0.04296 0.50776 0.0
C235 C 0.96769 0.04952 0.4987 0.0
C236 C 1.00056 0.09385 0.48867 0.0
C237 C 0.95797 0.13073 0.48716 0.0
C238 C 0.01505 0.01161 0.50056 0.0
C239 C 1.00133 0.96677 0.49807 0.0
C240 C 0.04861 0.92887 0.49999 0.0
C241 C 0.0153 0.88468 0.51052 0.0
C242 C 0.05786 0.84776 0.51198 0.0
C243 C 0.13519 0.85412 0.50261 0.0
H244 H 0.15514 0.96835 0.48094 0.0
C245 C 0.16884 0.8983 0.49186 0.0
C246 C 0.12619 0.93527 0.49043 0.0
H247 H 0.22855 0.90432 0.48405 0.0
H248 H 0.78845 0.07367 0.51357 0.0
H249 H 0.86172 0.00979 0.5169 0.0
H250 H 0.05963 0.10002 0.48186 0.0
H251 H 0.98535 0.16444 0.47932 0.0
H252 H 0.06348 0.02151 0.50372 0.0
H253 H 0.95292 0.95682 0.49492 0.0
H254 H 0.95595 0.87865 0.51772 0.0
H255 H 0.03016 0.81415 0.52014 0.0
C256 C 0.60378 0.16893 0.31378 0.0
C257 C 0.5457 0.15665 0.35185 0.0
C258 C 0.58787 0.16869 0.28408 0.0
C259 C 0.51319 0.15638 0.29185 0.0
C260 C 0.45527 0.1442 0.32987 0.0
C261 C 0.47112 0.14452 0.35954 0.0
C262 C 0.49446 0.15343 0.26096 0.0
C263 C 0.53417 0.17627 0.22686 0.0
C264 C 0.51558 0.17194 0.196 0.0
C265 C 0.53562 0.2081 0.16918 0.0
C266 C 0.51969 0.20493 0.13957 0.0
C267 C 0.48429 0.16518 0.13582 0.0
H268 H 0.46667 0.10272 0.21127 0.0
C269 C 0.46523 0.12873 0.16234 0.0
C270 C 0.48085 0.13196 0.192 0.0
H271 H 0.43745 0.09774 0.16043 0.0
H272 H 0.66227 0.17761 0.3067 0.0
H273 H 0.63492 0.17691 0.25502 0.0
H274 H 0.39735 0.13437 0.3367 0.0
H275 H 0.42472 0.13543 0.38859 0.0
H276 H 0.44397 0.13271 0.26735 0.0
H277 H 0.57989 0.2005 0.22175 0.0
H278 H 0.56329 0.23905 0.17127 0.0
H279 H 0.53598 0.23339 0.11931 0.0
C280 C 0.59953 0.79536 0.13354 0.0
C281 C 0.65281 0.75953 0.11535 0.0
C282 C 0.57109 0.80527 0.17247 0.0
C283 C 0.59623 0.7797 0.19358 0.0
C284 C 0.65171 0.74528 0.17479 0.0
C285 C 0.67912 0.73502 0.13634 0.0
C286 C 0.56464 0.78623 0.23545 0.0
C287 C 0.49142 0.8002 0.26026 0.0
C288 C 0.4539 0.79526 0.30285 0.0
C289 C 0.37324 0.78731 0.32502 0.0
C290 C 0.33645 0.77744 0.36446 0.0
C291 C 0.3794 0.77581 0.38286 0.0
H292 H 0.55853 0.8032 0.30556 0.0
C293 C 0.45961 0.78604 0.36114 0.0
C294 C 0.49659 0.79574 0.32148 0.0
H295 H 0.49412 0.78574 0.37455 0.0
H296 H 0.57906 0.81522 0.11794 0.0
H297 H 0.52979 0.8329 0.18581 0.0
H298 H 0.67255 0.72528 0.1902 0.0
H299 H 0.72117 0.70768 0.12313 0.0
H300 H 0.59934 0.773 0.24676 0.0
H301 H 0.45423 0.80947 0.24927 0.0
H302 H 0.33881 0.78712 0.31153 0.0
H303 H 0.2743 0.77043 0.38034 0.0
C304 C 0.58271 0.78266 0.82579 0.0
C305 C 0.52657 0.79648 0.86345 0.0
C306 C 0.5662 0.78325 0.79624 0.0
C307 C 0.49303 0.79796 0.80357 0.0
C308 C 0.43656 0.81088 0.84138 0.0
C309 C 0.45311 0.81035 0.87088 0.0
C310 C 0.47244 0.79942 0.77309 0.0
C311 C 0.52552 0.80122 0.73472 0.0
C312 C 0.50533 0.80406 0.70413 0.0
C313 C 0.56309 0.81883 0.66678 0.0
C314 C 0.54749 0.82178 0.63701 0.0
C315 C 0.47361 0.80974 0.64368 0.0
H316 H 0.3857 0.77872 0.73867 0.0
C317 C 0.41589 0.79444 0.68095 0.0
C318 C 0.4315 0.79148 0.71077 0.0
H319 H 0.35818 0.78509 0.68726 0.0
H320 H 0.64004 0.77196 0.81893 0.0
H321 H 0.61081 0.77167 0.76793 0.0
H322 H 0.37937 0.8218 0.84814 0.0
H323 H 0.40795 0.82047 0.89965 0.0
H324 H 0.4109 0.80148 0.78308 0.0
H325 H 0.58705 0.80294 0.72492 0.0
H326 H 0.62075 0.82828 0.66054 0.0
H327 H 0.59388 0.8329 0.60857 0.0
C328 C 0.65767 0.20157 0.63532 0.0
C329 C 0.62229 0.20213 0.61325 0.0
C330 C 0.61388 0.19154 0.67481 0.0
C331 C 0.53364 0.18162 0.69308 0.0
C332 C 0.49871 0.1812 0.67085 0.0
C333 C 0.54261 0.19111 0.63128 0.0
C334 C 0.48323 0.17727 0.73567 0.0
C335 C 0.51022 0.1673 0.75904 0.0
C336 C 0.46281 0.17444 0.80133 0.0
C337 C 0.4787 0.14914 0.82601 0.0
C338 C 0.43871 0.15828 0.86565 0.0
C339 C 0.3834 0.19357 0.88095 0.0
H340 H 0.39465 0.23069 0.7987 0.0
C341 C 0.36741 0.21865 0.8562 0.0
C342 C 0.40667 0.20931 0.8169 0.0
H343 H 0.32489 0.24596 0.86706 0.0
H344 H 0.71901 0.20986 0.62232 0.0
H345 H 0.64272 0.19362 0.69099 0.0
H346 H 0.43684 0.17417 0.68431 0.0
H347 H 0.51363 0.19113 0.61506 0.0
H348 H 0.42171 0.1847 0.74832 0.0
H349 H 0.5694 0.15515 0.74699 0.0
H350 H 0.52253 0.12255 0.81456 0.0
H351 H 0.45226 0.13846 0.88408 0.0
C352 C 0.95714 0.62926 0.17131 0.0
C353 C 0.96808 0.66719 0.14716 0.0
C354 C 0.97091 0.6332 0.20165 0.0
C355 C 0.99584 0.67532 0.20872 0.0
C356 C 0.00747 0.71303 0.18434 0.0
C357 C 0.99337 0.70915 0.15413 0.0
C358 C 0.01335 0.68084 0.24003 0.0
C359 C 0.98224 0.65383 0.27204 0.0
C360 C 0.99996 0.65873 0.30334 0.0
C361 C 0.94813 0.6391 0.33985 0.0
C362 C 0.9638 0.64098 0.36961 0.0
C363 C 0.03226 0.66227 0.36361 0.0
H364 H 0.1111 0.69479 0.26941 0.0
C365 C 0.08406 0.6822 0.32712 0.0
C366 C 0.06832 0.68037 0.29732 0.0
H367 H 0.1381 0.69809 0.32115 0.0
H368 H 0.93736 0.59647 0.16694 0.0
H369 H 0.96328 0.60288 0.21894 0.0
H370 H 0.02747 0.74577 0.18871 0.0
H371 H 1.00356 0.7389 0.1358 0.0
H372 H 0.0508 0.70952 0.23711 0.0
H373 H 0.93943 0.62778 0.27649 0.0
H374 H 0.89515 0.62207 0.34542 0.0
H375 H 0.92203 0.62574 0.39741 0.0
C376 C 0.87219 0.23897 0.35562 0.0
C377 C 0.88536 0.26576 0.38035 0.0
C378 C 0.91306 0.2479 0.31604 0.0
C379 C 0.96802 0.28401 0.30017 0.0
C380 C 0.98162 0.31075 0.32476 0.0
C381 C 0.94004 0.30201 0.36464 0.0
C382 C 0.01587 0.29159 0.25781 0.0
C383 C 0.98929 0.28108 0.23445 0.0
C384 C 0.03965 0.27847 0.19183 0.0
C385 C 1.00442 0.27847 0.16974 0.0
C386 C 0.04842 0.27009 0.1301 0.0
C387 C 0.12853 0.26104 0.11186 0.0
H388 H 0.14946 0.26913 0.18941 0.0
C389 C 0.16424 0.26221 0.13377 0.0
C390 C 0.12033 0.27073 0.17334 0.0
H391 H 0.22592 0.25544 0.1206 0.0
H392 H 0.83039 0.2108 0.36674 0.0
H393 H 0.90294 0.22547 0.2979 0.0
H394 H 0.02453 0.33833 0.31309 0.0
H395 H 0.95154 0.32316 0.38301 0.0
H396 H 0.07461 0.30508 0.2458 0.0
H397 H 0.92804 0.27222 0.24712 0.0
H398 H 0.94226 0.28389 0.18335 0.0
H399 H 0.01913 0.26952 0.11404 0.0
C400 C 0.93402 0.2876 0.66949 0.0
C401 C 0.98606 0.30706 0.63288 0.0
C402 C 0.95186 0.28754 0.69852 0.0
C403 C 0.02258 0.30672 0.69151 0.0
C404 C 0.07468 0.32587 0.65486 0.0
C405 C 0.05687 0.3259 0.62584 0.0
C406 C 0.04217 0.30975 0.72212 0.0
C407 C 0.01077 0.28207 0.75366 0.0
C408 C 0.02896 0.28633 0.78469 0.0
C409 C 0.01872 0.24778 0.80801 0.0
C410 C 0.0334 0.25068 0.83804 0.0
C411 C 0.05775 0.29245 0.84578 0.0
H412 H 0.05932 0.35912 0.77609 0.0
C413 C 0.06727 0.33119 0.82271 0.0
C414 C 0.05295 0.32824 0.79256 0.0
H415 H 0.08627 0.36383 0.82782 0.0
H416 H 0.87826 0.27366 0.67616 0.0
H417 H 0.90887 0.27375 0.72665 0.0
H418 H 0.1294 0.34105 0.64864 0.0
H419 H 0.09863 0.34075 0.59787 0.0
H420 H 0.08615 0.33497 0.71767 0.0
H421 H 0.97243 0.25398 0.75642 0.0
H422 H 0.99938 0.21522 0.80294 0.0
H423 H 0.02441 0.22036 0.85562 0.0
C424 C 0.09707 0.67538 0.63482 0.0
C425 C 0.1473 0.71314 0.61635 0.0
C426 C 0.06682 0.66651 0.67422 0.0
C427 C 0.08695 0.69514 0.69561 0.0
C428 C 0.1386 0.732 0.67678 0.0
C429 C 0.16789 0.74115 0.63781 0.0
C430 C 0.05508 0.68865 0.73762 0.0
C431 C 0.98456 0.66991 0.76217 0.0
C432 C 0.94706 0.67311 0.80478 0.0
C433 C 0.86576 0.67699 0.82741 0.0
C434 C 0.82883 0.68542 0.86694 0.0
C435 C 0.8724 0.68961 0.88488 0.0
H436 H 0.05308 0.67051 0.80666 0.0
C437 C 0.95342 0.68311 0.86268 0.0
C438 C 0.99047 0.6749 0.82299 0.0
H439 H 0.98852 0.68549 0.87571 0.0
H440 H 0.08095 0.65286 0.61893 0.0
H441 H 0.02859 0.63706 0.68761 0.0
H442 H 0.15549 0.75443 0.69244 0.0
H443 H 0.20735 0.77017 0.6245 0.0
H444 H 0.08707 0.70502 0.74922 0.0
H445 H 0.94905 0.6574 0.75111 0.0
H446 H 0.83085 0.67527 0.81422 0.0
H447 H 0.76611 0.68944 0.88325 0.0
loop_
_geom_bond_atom_site_label_1
_geom_bond_atom_site_label_2
_geom_bond_distance
_geom_bond_site_symmetry_2
_ccdc_geom_bond_type
Tb0 C9 2.764 . S
Tb0 O10 2.325 . S
Tb0 O13 2.303 1_556 S
Tb0 O17 2.322 1_556 S
Tb0 O18 2.349 . S
Tb0 O21 2.415 . S
Tb0 O22 2.399 . S
Tb1 O11 2.322 1_554 S
Tb1 O12 2.349 . S
Tb1 O14 2.415 . S
Tb1 O15 2.399 . S
Tb1 O16 2.325 . S
Tb1 O19 2.303 . S
Tb1 C30 2.764 . S
C2 O18 1.262 1_554 S
C2 O19 1.257 . S
C3 C6 1.358 . S
C3 C7 1.332 . S
C3 C9 1.504 . S
C4 C5 1.373 . S
C4 C8 1.308 . S
C5 C4 1.373 . S
C5 C6 1.429 . S
C5 H32 0.932 . S
C6 C3 1.358 . S
C6 C5 1.429 . S
C6 H33 0.930 . S
C7 C3 1.332 . S
C7 C8 1.394 . S
C7 H34 0.932 . S
C8 C4 1.308 . S
C8 C7 1.394 . S
C8 H35 0.929 . S
C9 Tb0 2.764 . S
C9 C3 1.504 . S
C9 O21 1.239 . S
C9 O22 1.263 . S
O10 Tb0 2.325 . S
O10 C20 1.236 . S
O11 Tb1 2.322 1_556 S
O11 C20 1.257 . S
O12 Tb1 2.349 . S
O12 C23 1.261 . S
O13 Tb0 2.303 1_554 S
O13 C23 1.257 . S
O14 Tb1 2.415 . S
O14 C30 1.239 . S
O15 Tb1 2.399 . S
O15 C30 1.263 . S
O16 Tb1 2.325 . S
O16 C31 1.236 . S
O17 Tb0 2.322 1_554 S
O17 C31 1.257 . S
O18 Tb0 2.349 . S
O18 C2 1.262 1_556 S
O19 Tb1 2.303 . S
O19 C2 1.257 . S
C20 O10 1.236 . S
C20 O11 1.257 . S
O21 Tb0 2.415 . S
O21 C9 1.239 . S
O22 Tb0 2.399 . S
O22 C9 1.263 . S
C23 O12 1.261 . S
C23 O13 1.257 . S
C24 C27 1.358 . S
C24 C28 1.332 . S
C24 C30 1.504 . S
C25 C26 1.373 . S
C25 C29 1.308 . S
C26 C25 1.373 . S
C26 C27 1.429 . S
C26 H36 0.932 . S
C27 C24 1.358 . S
C27 C26 1.429 . S
C27 H37 0.930 . S
C28 C24 1.332 . S
C28 C29 1.394 . S
C28 H38 0.932 . S
C29 C25 1.308 . S
C29 C28 1.394 . S
C29 H39 0.929 . S
C30 Tb1 2.764 . S
C30 O14 1.239 . S
C30 O15 1.263 . S
C30 C24 1.504 . S
C31 O16 1.236 . S
C31 O17 1.257 . S
H32 C5 0.932 . S
H33 C6 0.930 . S
H34 C7 0.932 . S
H35 C8 0.929 . S
H36 C26 0.932 . S
H37 C27 0.930 . S
H38 C28 0.932 . S
H39 C29 0.929 . S
Tb40 C49 2.764 . S
Tb40 O50 2.325 . S
Tb40 O53 2.303 1_556 S
Tb40 O57 2.322 1_556 S
Tb40 O58 2.349 . S
Tb40 O61 2.415 . S
Tb40 O62 2.399 . S
Tb41 O51 2.322 1_554 S
Tb41 O52 2.349 . S
Tb41 O54 2.415 . S
Tb41 O55 2.399 . S
Tb41 O56 2.325 . S
Tb41 O59 2.303 . S
Tb41 C70 2.764 . S
C42 O58 1.262 1_554 S
C42 O59 1.257 . S
C43 C46 1.358 . S
C43 C47 1.332 . S
C43 C49 1.504 . S
C44 C45 1.373 . S
C44 C48 1.308 . S
C45 C44 1.373 . S
C45 C46 1.429 . S
C45 H72 0.932 . S
C46 C43 1.358 . S
C46 C45 1.429 . S
C46 H73 0.930 . S
C47 C43 1.332 . S
C47 C48 1.394 . S
C47 H74 0.932 . S
C48 C44 1.308 . S
C48 C47 1.394 . S
C48 H75 0.929 . S
C49 Tb40 2.764 . S
C49 C43 1.504 . S
C49 O61 1.239 . S
C49 O62 1.263 . S
O50 Tb40 2.325 . S
O50 C60 1.236 . S
O51 Tb41 2.322 1_556 S
O51 C60 1.257 . S
O52 Tb41 2.349 . S
O52 C63 1.261 . S
O53 Tb40 2.303 1_554 S
O53 C63 1.257 . S
O54 Tb41 2.415 . S
O54 C70 1.239 . S
O55 Tb41 2.399 . S
O55 C70 1.263 . S
O56 Tb41 2.325 . S
O56 C71 1.236 . S
O57 Tb40 2.322 1_554 S
O57 C71 1.257 . S
O58 Tb40 2.349 . S
O58 C42 1.262 1_556 S
O59 Tb41 2.303 . S
O59 C42 1.257 . S
C60 O50 1.236 . S
C60 O51 1.257 . S
O61 Tb40 2.415 . S
O61 C49 1.239 . S
O62 Tb40 2.399 . S
O62 C49 1.263 . S
C63 O52 1.261 . S
C63 O53 1.257 . S
C64 C67 1.358 . S
C64 C68 1.332 . S
C64 C70 1.504 . S
C65 C66 1.373 . S
C65 C69 1.308 . S
C66 C65 1.373 . S
C66 C67 1.429 . S
C66 H76 0.932 . S
C67 C64 1.358 . S
C67 C66 1.429 . S
C67 H77 0.930 . S
C68 C64 1.332 . S
C68 C69 1.394 . S
C68 H78 0.932 . S
C69 C65 1.308 . S
C69 C68 1.394 . S
C69 H79 0.929 . S
C70 Tb41 2.764 . S
C70 O54 1.239 . S
C70 O55 1.263 . S
C70 C64 1.504 . S
C71 O56 1.236 . S
C71 O57 1.257 . S
H72 C45 0.932 . S
H73 C46 0.930 . S
H74 C47 0.932 . S
H75 C48 0.929 . S
H76 C66 0.932 . S
H77 C67 0.930 . S
H78 C68 0.932 . S
H79 C69 0.929 . S
Tb80 C89 2.764 . S
Tb80 O90 2.325 . S
Tb80 O93 2.303 . S
Tb80 O97 2.322 . S
Tb80 O98 2.349 . S
Tb80 O101 2.415 . S
Tb80 O102 2.399 . S
Tb81 O91 2.322 . S
Tb81 O92 2.349 . S
Tb81 O94 2.415 . S
Tb81 O95 2.399 . S
Tb81 O96 2.325 . S
Tb81 O99 2.303 . S
Tb81 C110 2.764 . S
C82 O98 1.261 . S
C82 O99 1.257 . S
C83 C86 1.358 . S
C83 C87 1.332 . S
C83 C89 1.504 . S
C84 C85 1.373 . S
C84 C88 1.308 . S
C85 C84 1.373 . S
C85 C86 1.429 . S
C85 H112 0.932 . S
C86 C83 1.358 . S
C86 C85 1.429 . S
C86 H113 0.930 . S
C87 C83 1.332 . S
C87 C88 1.394 . S
C87 H114 0.932 . S
C88 C84 1.308 . S
C88 C87 1.394 . S
C88 H115 0.929 . S
C89 Tb80 2.764 . S
C89 C83 1.504 . S
C89 O101 1.239 . S
C89 O102 1.263 . S
O90 Tb80 2.325 . S
O90 C100 1.236 . S
O91 Tb81 2.322 . S
O91 C100 1.257 . S
O92 Tb81 2.349 . S
O92 C103 1.261 . S
O93 Tb80 2.303 . S
O93 C103 1.257 . S
O94 Tb81 2.415 . S
O94 C110 1.239 . S
O95 Tb81 2.399 . S
O95 C110 1.263 . S
O96 Tb81 2.325 . S
O96 C111 1.236 . S
O97 Tb80 2.322 . S
O97 C111 1.257 . S
O98 Tb80 2.349 . S
O98 C82 1.261 . S
O99 Tb81 2.303 . S
O99 C82 1.257 . S
C100 O90 1.236 . S
C100 O91 1.257 . S
O101 Tb80 2.415 . S
O101 C89 1.239 . S
O102 Tb80 2.399 . S
O102 C89 1.263 . S
C103 O92 1.261 . S
C103 O93 1.257 . S
C104 C107 1.358 . S
C104 C108 1.332 . S
C104 C110 1.504 . S
C105 C106 1.373 . S
C105 C109 1.308 . S
C106 C105 1.373 . S
C106 C107 1.429 . S
C106 H116 0.932 . S
C107 C104 1.358 . S
C107 C106 1.429 . S
C107 H117 0.930 . S
C108 C104 1.332 . S
C108 C109 1.394 . S
C108 H118 0.932 . S
C109 C105 1.308 . S
C109 C108 1.394 . S
C109 H119 0.929 . S
C110 Tb81 2.764 . S
C110 O94 1.239 . S
C110 O95 1.263 . S
C110 C104 1.504 . S
C111 O96 1.236 . S
C111 O97 1.257 . S
H112 C85 0.932 . S
H113 C86 0.930 . S
H114 C87 0.932 . S
H115 C88 0.929 . S
H116 C106 0.932 . S
H117 C107 0.930 . S
H118 C108 0.932 . S
H119 C109 0.929 . S
Tb120 C129 2.764 . S
Tb120 O130 2.325 . S
Tb120 O133 2.303 . S
Tb120 O137 2.322 . S
Tb120 O138 2.349 . S
Tb120 O141 2.415 . S
Tb120 O142 2.399 . S
Tb121 O131 2.322 . S
Tb121 O132 2.349 . S
Tb121 O134 2.415 . S
Tb121 O135 2.399 . S
Tb121 O136 2.325 . S
Tb121 O139 2.303 . S
Tb121 C150 2.764 . S
C122 O138 1.261 . S
C122 O139 1.257 . S
C123 C126 1.358 . S
C123 C127 1.332 . S
C123 C129 1.504 . S
C124 C125 1.373 . S
C124 C128 1.308 . S
C125 C124 1.373 . S
C125 C126 1.429 . S
C125 H152 0.932 . S
C126 C123 1.358 . S
C126 C125 1.429 . S
C126 H153 0.930 . S
C127 C123 1.332 . S
C127 C128 1.394 . S
C127 H154 0.932 . S
C128 C124 1.308 . S
C128 C127 1.394 . S
C128 H155 0.929 . S
C129 Tb120 2.764 . S
C129 C123 1.504 . S
C129 O141 1.239 . S
C129 O142 1.263 . S
O130 Tb120 2.325 . S
O130 C140 1.236 . S
O131 Tb121 2.322 . S
O131 C140 1.257 . S
O132 Tb121 2.349 . S
O132 C143 1.261 . S
O133 Tb120 2.303 . S
O133 C143 1.257 . S
O134 Tb121 2.415 . S
O134 C150 1.239 . S
O135 Tb121 2.399 . S
O135 C150 1.263 . S
O136 Tb121 2.325 . S
O136 C151 1.236 . S
O137 Tb120 2.322 . S
O137 C151 1.257 . S
O138 Tb120 2.349 . S
O138 C122 1.261 . S
O139 Tb121 2.303 . S
O139 C122 1.257 . S
C140 O130 1.236 . S
C140 O131 1.257 . S
O141 Tb120 2.415 . S
O141 C129 1.239 . S
O142 Tb120 2.399 . S
O142 C129 1.263 . S
C143 O132 1.261 . S
C143 O133 1.257 . S
C144 C147 1.358 . S
C144 C148 1.332 . S
C144 C150 1.504 . S
C145 C146 1.373 . S
C145 C149 1.308 . S
C146 C145 1.373 . S
C146 C147 1.429 . S
C146 H156 0.932 . S
C147 C144 1.358 . S
C147 C146 1.429 . S
C147 H157 0.930 . S
C148 C144 1.332 . S
C148 C149 1.394 . S
C148 H158 0.932 . S
C149 C145 1.308 . S
C149 C148 1.394 . S
C149 H159 0.929 . S
C150 Tb121 2.764 . S
C150 O134 1.239 . S
C150 O135 1.263 . S
C150 C144 1.504 . S
C151 O136 1.236 . S
C151 O137 1.257 . S
H152 C125 0.932 . S
H153 C126 0.930 . S
H154 C127 0.932 . S
H155 C128 0.929 . S
H156 C146 0.932 . S
H157 C147 0.930 . S
H158 C148 0.932 . S
H159 C149 0.929 . S
C160 C161 1.386 . S
C160 C162 1.383 . S
C160 H176 0.951 . S
C161 C160 1.386 . S
C161 C165 1.383 1_554 S
C162 C160 1.383 . S
C162 C163 1.402 1_554 S
C162 H177 0.951 . S
C163 C162 1.402 1_556 S
C163 C164 1.375 . S
C163 C166 1.481 . S
C164 C163 1.375 . S
C164 C165 1.367 . S
C164 H178 0.951 . S
C165 C161 1.383 1_556 S
C165 C164 1.367 . S
C165 H179 0.950 . S
C166 C163 1.481 . S
C166 C167 1.297 1_556 S
C166 H180 0.950 . S
C167 C166 1.297 1_554 S
C167 C168 1.479 . S
C167 H181 0.950 . S
C168 C167 1.479 . S
C168 C169 1.375 . S
C168 C174 1.404 1_554 S
C169 C168 1.375 . S
C169 C170 1.369 . S
C169 H182 0.950 . S
C170 C169 1.369 . S
C170 C171 1.392 . S
C170 H183 0.951 . S
C171 C170 1.392 . S
C171 C173 1.384 1_554 S
H172 C174 0.949 . S
C173 C171 1.384 1_556 S
C173 C174 1.385 . S
C173 H175 0.950 . S
C174 C168 1.404 1_556 S
C174 H172 0.949 . S
C174 C173 1.385 . S
H175 C173 0.950 . S
H176 C160 0.951 . S
H177 C162 0.951 . S
H178 C164 0.951 . S
H179 C165 0.950 . S
H180 C166 0.950 . S
H181 C167 0.950 . S
H182 C169 0.950 . S
H183 C170 0.951 . S
C184 C185 1.386 . S
C184 C186 1.383 . S
C184 H200 0.951 . S
C185 C184 1.386 . S
C185 C189 1.383 . S
C186 C184 1.383 . S
C186 C187 1.402 . S
C186 H201 0.951 . S
C187 C186 1.402 . S
C187 C188 1.375 . S
C187 C190 1.481 . S
C188 C187 1.375 . S
C188 C189 1.367 . S
C188 H202 0.951 . S
C189 C185 1.383 . S
C189 C188 1.367 . S
C189 H203 0.950 . S
C190 C187 1.481 . S
C190 C191 1.297 . S
C190 H204 0.950 . S
C191 C190 1.297 . S
C191 C192 1.479 . S
C191 H205 0.950 . S
C192 C191 1.479 . S
C192 C193 1.375 . S
C192 C198 1.404 . S
C193 C192 1.375 . S
C193 C194 1.369 . S
C193 H206 0.950 . S
C194 C193 1.369 . S
C194 C195 1.392 . S
C194 H207 0.951 . S
C195 C194 1.392 . S
C195 C197 1.384 . S
H196 C198 0.949 . S
C197 C195 1.384 . S
C197 C198 1.385 . S
C197 H199 0.950 . S
C198 C192 1.404 . S
C198 H196 0.949 . S
C198 C197 1.385 . S
H199 C197 0.950 . S
H200 C184 0.951 . S
H201 C186 0.951 . S
H202 C188 0.951 . S
H203 C189 0.950 . S
H204 C190 0.950 . S
H205 C191 0.950 . S
H206 C193 0.950 . S
H207 C194 0.951 . S
C208 C209 1.386 1_556 S
C208 C210 1.383 . S
C208 H224 0.951 . S
C209 C208 1.386 1_554 S
C209 C213 1.383 . S
C210 C208 1.383 . S
C210 C211 1.402 1_556 S
C210 H225 0.951 . S
C211 C210 1.402 1_554 S
C211 C212 1.375 . S
C211 C214 1.481 1_545 S
C212 C211 1.375 . S
C212 C213 1.367 . S
C212 H226 0.951 . S
C213 C209 1.383 . S
C213 C212 1.367 . S
C213 H227 0.950 . S
C214 C211 1.481 1_565 S
C214 C215 1.297 1_554 S
C214 H228 0.950 . S
C215 C214 1.297 1_556 S
C215 C216 1.479 1_455 S
C215 H229 0.945 1_565 S
C216 C215 1.479 1_655 S
C216 C217 1.375 . S
C216 C222 1.404 1_556 S
C217 C216 1.375 . S
C217 C218 1.369 . S
C217 H230 0.950 . S
C218 C217 1.369 . S
C218 C219 1.392 . S
C218 H231 0.951 . S
C219 C218 1.392 . S
C219 C221 1.384 1_556 S
H220 C222 0.949 . S
C221 C219 1.384 1_554 S
C221 C222 1.385 . S
C221 H223 0.950 . S
C222 C216 1.404 1_554 S
C222 H220 0.949 . S
C222 C221 1.385 . S
H223 C221 0.950 . S
H224 C208 0.951 . S
H225 C210 0.951 . S
H226 C212 0.951 . S
H227 C213 0.950 . S
H228 C214 0.950 . S
H229 C215 0.945 1_545 S
H230 C217 0.950 . S
H231 C218 0.951 . S
C232 C233 1.386 . S
C232 C234 1.383 . S
C232 H248 0.951 . S
C233 C232 1.386 . S
C233 C237 1.383 . S
C234 C232 1.383 . S
C234 C235 1.402 . S
C234 H249 0.951 . S
C235 C234 1.402 . S
C235 C236 1.375 . S
C235 C238 1.481 1_655 S
C236 C235 1.375 . S
C236 C237 1.367 . S
C236 H250 0.951 . S
C237 C233 1.383 . S
C237 C236 1.367 . S
C237 H251 0.950 . S
C238 C235 1.481 1_455 S
C238 C239 1.297 1_545 S
C238 H252 0.950 . S
C239 C238 1.297 1_565 S
C239 C240 1.479 . S
C239 H253 0.950 . S
C240 C239 1.479 . S
C240 C241 1.375 . S
C240 C246 1.404 . S
C241 C240 1.375 . S
C241 C242 1.369 . S
C241 H254 0.950 . S
C242 C241 1.369 . S
C242 C243 1.392 . S
C242 H255 0.951 . S
C243 C242 1.392 . S
C243 C245 1.384 . S
H244 C246 0.949 . S
C245 C243 1.384 . S
C245 C246 1.385 . S
C245 H247 0.950 . S
C246 C240 1.404 . S
C246 H244 0.949 . S
C246 C245 1.385 . S
H247 C245 0.950 . S
H248 C232 0.951 . S
H249 C234 0.951 . S
H250 C236 0.951 . S
H251 C237 0.950 . S
H252 C238 0.950 . S
H253 C239 0.950 . S
H254 C241 0.950 . S
H255 C242 0.951 . S
C256 C257 1.386 . S
C256 C258 1.383 . S
C256 H272 0.951 . S
C257 C256 1.386 . S
C257 C261 1.383 . S
C258 C256 1.383 . S
C258 C259 1.402 . S
C258 H273 0.951 . S
C259 C258 1.402 . S
C259 C260 1.375 . S
C259 C262 1.481 . S
C260 C259 1.375 . S
C260 C261 1.367 . S
C260 H274 0.951 . S
C261 C257 1.383 . S
C261 C260 1.367 . S
C261 H275 0.950 . S
C262 C259 1.481 . S
C262 C263 1.297 . S
C262 H276 0.950 . S
C263 C262 1.297 . S
C263 C264 1.479 . S
C263 H277 0.950 . S
C264 C263 1.479 . S
C264 C265 1.375 . S
C264 C270 1.404 . S
C265 C264 1.375 . S
C265 C266 1.369 . S
C265 H278 0.950 . S
C266 C265 1.369 . S
C266 C267 1.392 . S
C266 H279 0.951 . S
C267 C266 1.392 . S
C267 C269 1.384 . S
H268 C270 0.949 . S
C269 C267 1.384 . S
C269 C270 1.385 . S
C269 H271 0.950 . S
C270 C264 1.404 . S
C270 H268 0.949 . S
C270 C269 1.385 . S
H271 C269 0.950 . S
H272 C256 0.951 . S
H273 C258 0.951 . S
H274 C260 0.951 . S
H275 C261 0.950 . S
H276 C262 0.950 . S
H277 C263 0.950 . S
H278 C265 0.950 . S
H279 C266 0.951 . S
C280 C281 1.386 . S
C280 C282 1.383 . S
C280 H296 0.951 . S
C281 C280 1.386 . S
C281 C285 1.383 . S
C282 C280 1.383 . S
C282 C283 1.402 . S
C282 H297 0.951 . S
C283 C282 1.402 . S
C283 C284 1.375 . S
C283 C286 1.481 . S
C284 C283 1.375 . S
C284 C285 1.367 . S
C284 H298 0.951 . S
C285 C281 1.383 . S
C285 C284 1.367 . S
C285 H299 0.950 . S
C286 C283 1.481 . S
C286 C287 1.297 . S
C286 H300 0.950 . S
C287 C286 1.297 . S
C287 C288 1.479 . S
C287 H301 0.950 . S
C288 C287 1.479 . S
C288 C289 1.375 . S
C288 C294 1.404 . S
C289 C288 1.375 . S
C289 C290 1.369 . S
C289 H302 0.950 . S
C290 C289 1.369 . S
C290 C291 1.392 . S
C290 H303 0.951 . S
C291 C290 1.392 . S
C291 C293 1.384 . S
H292 C294 0.949 . S
C293 C291 1.384 . S
C293 C294 1.385 . S
C293 H295 0.950 . S
C294 C288 1.404 . S
C294 H292 0.949 . S
C294 C293 1.385 . S
H295 C293 0.950 . S
H296 C280 0.951 . S
H297 C282 0.951 . S
H298 C284 0.951 . S
H299 C285 0.950 . S
H300 C286 0.950 . S
H301 C287 0.950 . S
H302 C289 0.950 . S
H303 C290 0.951 . S
C304 C305 1.386 . S
C304 C306 1.383 . S
C304 H320 0.951 . S
C305 C304 1.386 . S
C305 C309 1.383 . S
C306 C304 1.383 . S
C306 C307 1.402 . S
C306 H321 0.951 . S
C307 C306 1.402 . S
C307 C308 1.375 . S
C307 C310 1.481 . S
C308 C307 1.375 . S
C308 C309 1.367 . S
C308 H322 0.951 . S
C309 C305 1.383 . S
C309 C308 1.367 . S
C309 H323 0.950 . S
C310 C307 1.481 . S
C310 C311 1.297 . S
C310 H324 0.950 . S
C311 C310 1.297 . S
C311 C312 1.479 . S
C311 H325 0.950 . S
C312 C311 1.479 . S
C312 C313 1.375 . S
C312 C318 1.404 . S
C313 C312 1.375 . S
C313 C314 1.369 . S
C313 H326 0.950 . S
C314 C313 1.369 . S
C314 C315 1.392 . S
C314 H327 0.951 . S
C315 C314 1.392 . S
C315 C317 1.384 . S
H316 C318 0.949 . S
C317 C315 1.384 . S
C317 C318 1.385 . S
C317 H319 0.950 . S
C318 C312 1.404 . S
C318 H316 0.949 . S
C318 C317 1.385 . S
H319 C317 0.950 . S
H320 C304 0.951 . S
H321 C306 0.951 . S
H322 C308 0.951 . S
H323 C309 0.950 . S
H324 C310 0.950 . S
H325 C311 0.950 . S
H326 C313 0.950 . S
H327 C314 0.951 . S
C328 C329 1.386 . S
C328 C330 1.383 . S
C328 H344 0.951 . S
C329 C328 1.386 . S
C329 C333 1.383 . S
C330 C328 1.383 . S
C330 C331 1.402 . S
C330 H345 0.951 . S
C331 C330 1.402 . S
C331 C332 1.375 . S
C331 C334 1.481 . S
C332 C331 1.375 . S
C332 C333 1.367 . S
C332 H346 0.951 . S
C333 C329 1.383 . S
C333 C332 1.367 . S
C333 H347 0.950 . S
C334 C331 1.481 . S
C334 C335 1.297 . S
C334 H348 0.950 . S
C335 C334 1.297 . S
C335 C336 1.479 . S
C335 H349 0.950 . S
C336 C335 1.479 . S
C336 C337 1.375 . S
C336 C342 1.404 . S
C337 C336 1.375 . S
C337 C338 1.369 . S
C337 H350 0.950 . S
C338 C337 1.369 . S
C338 C339 1.392 . S
C338 H351 0.951 . S
C339 C338 1.392 . S
C339 C341 1.384 . S
H340 C342 0.949 . S
C341 C339 1.384 . S
C341 C342 1.385 . S
C341 H343 0.950 . S
C342 C336 1.404 . S
C342 H340 0.949 . S
C342 C341 1.385 . S
H343 C341 0.950 . S
H344 C328 0.951 . S
H345 C330 0.951 . S
H346 C332 0.951 . S
H347 C333 0.950 . S
H348 C334 0.950 . S
H349 C335 0.950 . S
H350 C337 0.950 . S
H351 C338 0.951 . S
C352 C353 1.386 . S
C352 C354 1.383 . S
C352 H368 0.951 . S
C353 C352 1.386 . S
C353 C357 1.383 . S
C354 C352 1.383 . S
C354 C355 1.402 1_655 S
C354 H369 0.951 1_655 S
C355 C354 1.402 1_455 S
C355 C356 1.375 1_455 S
C355 C358 1.481 . S
C356 C355 1.375 1_655 S
C356 C357 1.367 . S
C356 H370 0.947 1_655 S
C357 C353 1.383 . S
C357 C356 1.367 . S
C357 H371 0.950 . S
C358 C355 1.481 . S
C358 C359 1.297 . S
C358 H372 0.950 . S
C359 C358 1.297 . S
C359 C360 1.479 . S
C359 H373 0.950 . S
C360 C359 1.479 . S
C360 C361 1.375 . S
C360 C366 1.404 . S
C361 C360 1.375 . S
C361 C362 1.369 . S
C361 H374 0.950 . S
C362 C361 1.369 . S
C362 C363 1.392 . S
C362 H375 0.951 . S
C363 C362 1.392 . S
C363 C365 1.384 . S
H364 C366 0.949 . S
C365 C363 1.384 . S
C365 C366 1.385 . S
C365 H367 0.950 . S
C366 C360 1.404 . S
C366 H364 0.949 . S
C366 C365 1.385 . S
H367 C365 0.950 . S
H368 C352 0.951 . S
H369 C354 0.951 1_455 S
H370 C356 0.947 1_455 S
H371 C357 0.950 . S
H372 C358 0.950 . S
H373 C359 0.950 . S
H374 C361 0.950 . S
H375 C362 0.951 . S
C376 C377 1.386 . S
C376 C378 1.383 . S
C376 H392 0.951 . S
C377 C376 1.386 . S
C377 C381 1.383 . S
C378 C376 1.383 . S
C378 C379 1.402 . S
C378 H393 0.951 . S
C379 C378 1.402 . S
C379 C380 1.375 . S
C379 C382 1.481 1_655 S
C380 C379 1.375 . S
C380 C381 1.367 . S
C380 H394 0.951 1_655 S
C381 C377 1.383 . S
C381 C380 1.367 . S
C381 H395 0.950 . S
C382 C379 1.481 1_455 S
C382 C383 1.297 1_455 S
C382 H396 0.950 . S
C383 C382 1.297 1_655 S
C383 C384 1.479 1_655 S
C383 H397 0.950 . S
C384 C383 1.479 1_455 S
C384 C385 1.375 1_455 S
C384 C390 1.404 . S
C385 C384 1.375 1_655 S
C385 C386 1.369 1_655 S
C385 H398 0.950 . S
C386 C385 1.369 1_455 S
C386 C387 1.392 . S
C386 H399 0.951 . S
C387 C386 1.392 . S
C387 C389 1.384 . S
H388 C390 0.949 . S
C389 C387 1.384 . S
C389 C390 1.385 . S
C389 H391 0.950 . S
C390 C384 1.404 . S
C390 H388 0.949 . S
C390 C389 1.385 . S
H391 C389 0.950 . S
H392 C376 0.951 . S
H393 C378 0.951 . S
H394 C380 0.951 1_455 S
H395 C381 0.950 . S
H396 C382 0.950 . S
H397 C383 0.950 . S
H398 C385 0.950 . S
H399 C386 0.951 . S
C400 C401 1.386 . S
C400 C402 1.383 . S
C400 H416 0.951 . S
C401 C400 1.386 . S
C401 C405 1.383 1_655 S
C402 C400 1.383 . S
C402 C403 1.402 1_655 S
C402 H417 0.951 . S
C403 C402 1.402 1_455 S
C403 C404 1.375 . S
C403 C406 1.481 . S
C404 C403 1.375 . S
C404 C405 1.367 . S
C404 H418 0.951 . S
C405 C401 1.383 1_455 S
C405 C404 1.367 . S
C405 H419 0.950 . S
C406 C403 1.481 . S
C406 C407 1.297 . S
C406 H420 0.950 . S
C407 C406 1.297 . S
C407 C408 1.479 . S
C407 H421 0.950 1_455 S
C408 C407 1.479 . S
C408 C409 1.375 1_455 S
C408 C414 1.404 . S
C409 C408 1.375 1_655 S
C409 C410 1.369 . S
C409 H422 0.950 . S
C410 C409 1.369 . S
C410 C411 1.392 1_655 S
C410 H423 0.951 . S
C411 C410 1.392 1_455 S
C411 C413 1.384 . S
H412 C414 0.949 . S
C413 C411 1.384 . S
C413 C414 1.385 . S
C413 H415 0.950 . S
C414 C408 1.404 . S
C414 H412 0.949 . S
C414 C413 1.385 . S
H415 C413 0.950 . S
H416 C400 0.951 . S
H417 C402 0.951 . S
H418 C404 0.951 . S
H419 C405 0.950 . S
H420 C406 0.950 . S
H421 C407 0.950 1_655 S
H422 C409 0.950 . S
H423 C410 0.951 . S
C424 C425 1.386 . S
C424 C426 1.383 . S
C424 H440 0.951 . S
C425 C424 1.386 . S
C425 C429 1.383 . S
C426 C424 1.383 . S
C426 C427 1.402 . S
C426 H441 0.951 1_455 S
C427 C426 1.402 . S
C427 C428 1.375 . S
C427 C430 1.481 . S
C428 C427 1.375 . S
C428 C429 1.367 . S
C428 H442 0.951 . S
C429 C425 1.383 . S
C429 C428 1.367 . S
C429 H443 0.950 . S
C430 C427 1.481 . S
C430 C431 1.297 1_455 S
C430 H444 0.950 . S
C431 C430 1.297 1_655 S
C431 C432 1.479 . S
C431 H445 0.950 . S
C432 C431 1.479 . S
C432 C433 1.375 . S
C432 C438 1.404 . S
C433 C432 1.375 . S
C433 C434 1.369 . S
C433 H446 0.950 . S
C434 C433 1.369 . S
C434 C435 1.392 . S
C434 H447 0.951 . S
C435 C434 1.392 . S
C435 C437 1.384 . S
H436 C438 0.949 1_455 S
C437 C435 1.384 . S
C437 C438 1.385 . S
C437 H439 0.950 . S
C438 C432 1.404 . S
C438 H436 0.949 1_655 S
C438 C437 1.385 . S
H439 C437 0.950 . S
H440 C424 0.951 . S
H441 C426 0.951 1_655 S
H442 C428 0.951 . S
H443 C429 0.950 . S
H444 C430 0.950 . S
H445 C431 0.950 . S
H446 C433 0.950 . S
H447 C434 0.951 . S
C161 C63 1.569 . S
C171 C2 1.547 . S
C185 C103 1.569 . S
C195 C122 1.544 . S
C209 C23 1.551 . S
C219 C42 1.553 1_556 S
C233 C143 1.565 . S
C243 C82 1.557 . S
C257 C145 1.068 . S
C267 C25 1.083 . S
C281 C71 1.349 . S
C291 C111 1.332 . S
C305 C44 1.045 . S
C315 C84 0.998 . S
C329 C140 1.355 . S
C339 C20 1.337 . S
C353 C65 1.037 . S
C363 C105 0.997 . S
C377 C151 1.378 . S
C387 C31 1.380 . S
C401 C124 1.058 . S
C411 C4 0.983 . S
C425 C100 1.372 . S
C435 C60 1.375 . S
