# Generated by pormake.
# Topology whk, (6)-cn, num edge types: 1
# Building blocks:
#     Node 0, Type 0, BuildingBlock: IZENUY_clean_sbu_0, # of connection points: 6
#     Node 1, Type 0, BuildingBlock: IZENUY_clean_sbu_0, # of connection points: 6
#     Node 2, Type 0, BuildingBlock: IZENUY_clean_sbu_0, # of connection points: 6
#     Node 3, Type 0, BuildingBlock: IZENUY_clean_sbu_0, # of connection points: 6
#     Node 4, Type 0, BuildingBlock: IZENUY_clean_sbu_0, # of connection points: 6
#     Node 5, Type 0, BuildingBlock: IZENUY_clean_sbu_0, # of connection points: 6
#     Node 6, Type 0, BuildingBlock: IZENUY_clean_sbu_0, # of connection points: 6
#     Node 7, Type 0, BuildingBlock: IZENUY_clean_sbu_0, # of connection points: 6
#     Node 8, Type 0, BuildingBlock: IZENUY_clean_sbu_0, # of connection points: 6
#     Node 9, Type 0, BuildingBlock: IZENUY_clean_sbu_0, # of connection points: 6
#     Node 10, Type 0, BuildingBlock: IZENUY_clean_sbu_0, # of connection points: 6
#     Node 11, Type 0, BuildingBlock: IZENUY_clean_sbu_0, # of connection points: 6
#     Node 12, Type 0, BuildingBlock: IZENUY_clean_sbu_0, # of connection points: 6
#     Node 13, Type 0, BuildingBlock: IZENUY_clean_sbu_0, # of connection points: 6
#     Node 14, Type 0, BuildingBlock: IZENUY_clean_sbu_0, # of connection points: 6
#     Node 15, Type 0, BuildingBlock: IZENUY_clean_sbu_0, # of connection points: 6
#     Edge 16, Type (0, 0), BuildingBlock: XIVTED_clean_linker_0, # of connection points: 2
#     Edge 17, Type (0, 0), BuildingBlock: XIVTED_clean_linker_0, # of connection points: 2
#     Edge 18, Type (0, 0), BuildingBlock: XIVTED_clean_linker_0, # of connection points: 2
#     Edge 19, Type (0, 0), BuildingBlock: XIVTED_clean_linker_0, # of connection points: 2
#     Edge 20, Type (0, 0), BuildingBlock: XIVTED_clean_linker_0, # of connection points: 2
#     Edge 21, Type (0, 0), BuildingBlock: XIVTED_clean_linker_0, # of connection points: 2
#     Edge 22, Type (0, 0), BuildingBlock: XIVTED_clean_linker_0, # of connection points: 2
#     Edge 23, Type (0, 0), BuildingBlock: XIVTED_clean_linker_0, # of connection points: 2
#     Edge 24, Type (0, 0), BuildingBlock: XIVTED_clean_linker_0, # of connection points: 2
#     Edge 25, Type (0, 0), BuildingBlock: XIVTED_clean_linker_0, # of connection points: 2
#     Edge 26, Type (0, 0), BuildingBlock: XIVTED_clean_linker_0, # of connection points: 2
#     Edge 27, Type (0, 0), BuildingBlock: XIVTED_clean_linker_0, # of connection points: 2
#     Edge 28, Type (0, 0), BuildingBlock: XIVTED_clean_linker_0, # of connection points: 2
#     Edge 29, Type (0, 0), BuildingBlock: XIVTED_clean_linker_0, # of connection points: 2
#     Edge 30, Type (0, 0), BuildingBlock: XIVTED_clean_linker_0, # of connection points: 2
#     Edge 31, Type (0, 0), BuildingBlock: XIVTED_clean_linker_0, # of connection points: 2
#     Edge 32, Type (0, 0), BuildingBlock: XIVTED_clean_linker_0, # of connection points: 2
#     Edge 33, Type (0, 0), BuildingBlock: XIVTED_clean_linker_0, # of connection points: 2
#     Edge 34, Type (0, 0), BuildingBlock: XIVTED_clean_linker_0, # of connection points: 2
#     Edge 35, Type (0, 0), BuildingBlock: XIVTED_clean_linker_0, # of connection points: 2
#     Edge 36, Type (0, 0), BuildingBlock: XIVTED_clean_linker_0, # of connection points: 2
#     Edge 37, Type (0, 0), BuildingBlock: XIVTED_clean_linker_0, # of connection points: 2
#     Edge 38, Type (0, 0), BuildingBlock: XIVTED_clean_linker_0, # of connection points: 2
#     Edge 39, Type (0, 0), BuildingBlock: XIVTED_clean_linker_0, # of connection points: 2
#     Edge 40, Type (0, 0), BuildingBlock: XIVTED_clean_linker_0, # of connection points: 2
#     Edge 41, Type (0, 0), BuildingBlock: XIVTED_clean_linker_0, # of connection points: 2
#     Edge 42, Type (0, 0), BuildingBlock: XIVTED_clean_linker_0, # of connection points: 2
#     Edge 43, Type (0, 0), BuildingBlock: XIVTED_clean_linker_0, # of connection points: 2
#     Edge 44, Type (0, 0), BuildingBlock: XIVTED_clean_linker_0, # of connection points: 2
#     Edge 45, Type (0, 0), BuildingBlock: XIVTED_clean_linker_0, # of connection points: 2
#     Edge 46, Type (0, 0), BuildingBlock: XIVTED_clean_linker_0, # of connection points: 2
#     Edge 47, Type (0, 0), BuildingBlock: XIVTED_clean_linker_0, # of connection points: 2
#     Edge 48, Type (0, 0), BuildingBlock: XIVTED_clean_linker_0, # of connection points: 2
#     Edge 49, Type (0, 0), BuildingBlock: XIVTED_clean_linker_0, # of connection points: 2
#     Edge 50, Type (0, 0), BuildingBlock: XIVTED_clean_linker_0, # of connection points: 2
#     Edge 51, Type (0, 0), BuildingBlock: XIVTED_clean_linker_0, # of connection points: 2
#     Edge 52, Type (0, 0), BuildingBlock: XIVTED_clean_linker_0, # of connection points: 2
#     Edge 53, Type (0, 0), BuildingBlock: XIVTED_clean_linker_0, # of connection points: 2
#     Edge 54, Type (0, 0), BuildingBlock: XIVTED_clean_linker_0, # of connection points: 2
#     Edge 55, Type (0, 0), BuildingBlock: XIVTED_clean_linker_0, # of connection points: 2
#     Edge 56, Type (0, 0), BuildingBlock: XIVTED_clean_linker_0, # of connection points: 2
#     Edge 57, Type (0, 0), BuildingBlock: XIVTED_clean_linker_0, # of connection points: 2
#     Edge 58, Type (0, 0), BuildingBlock: XIVTED_clean_linker_0, # of connection points: 2
#     Edge 59, Type (0, 0), BuildingBlock: XIVTED_clean_linker_0, # of connection points: 2
#     Edge 60, Type (0, 0), BuildingBlock: XIVTED_clean_linker_0, # of connection points: 2
#     Edge 61, Type (0, 0), BuildingBlock: XIVTED_clean_linker_0, # of connection points: 2
#     Edge 62, Type (0, 0), BuildingBlock: XIVTED_clean_linker_0, # of connection points: 2
#     Edge 63, Type (0, 0), BuildingBlock: XIVTED_clean_linker_0, # of connection points: 2
# Relax obj value: 0.294
# Max RMSD: 0.220
# Mean RMSD: 0.220
data_MOF--net-whk--node1-IZENUY_clean_sbu_0--edge1-XIVTED_clean_linker_0
_symmetry_space_group_name_H-M    P1
_symmetry_Int_Tables_number       1
_symmetry_cell_setting            triclinic
loop_
_symmetry_equiv_pos_as_xyz
'x, y, z'
_cell_length_a     36.043875
_cell_length_b     35.952127
_cell_length_c     51.02297
_cell_angle_alpha  89.933495
_cell_angle_beta   89.979323
_cell_angle_gamma 89.965325
loop_
_atom_site_label
_atom_site_type_symbol
_atom_site_fract_x
_atom_site_fract_y
_atom_site_fract_z
_atom_type_partial_charge
Fe0 Fe 0.56575 0.14985 0.41002 0.0
Fe1 Fe 0.52157 0.20094 0.44703 0.0
O2 O 0.55242 0.19495 0.4205 0.0
Fe3 Fe 0.5708 0.23463 0.40448 0.0
O4 O 0.61618 0.22211 0.41539 0.0
O5 O 0.61387 0.16388 0.40195 0.0
O6 O 0.58348 0.13795 0.44182 0.0
C7 C 0.56781 0.1416 0.46366 0.0
C8 C 0.56506 0.18174 0.36247 0.0
O9 O 0.53817 0.16036 0.46595 0.0
C10 C 0.49947 0.25609 0.40957 0.0
O11 O 0.52023 0.12836 0.41657 0.0
O12 O 0.48596 0.17484 0.43072 0.0
O13 O 0.57847 0.2112 0.3724 0.0
O14 O 0.54922 0.15862 0.37716 0.0
C15 C 0.5684 0.25829 0.45752 0.0
O16 O 0.49992 0.24271 0.43269 0.0
O17 O 0.52532 0.24914 0.39352 0.0
C18 C 0.48877 0.14319 0.42044 0.0
O19 O 0.55508 0.22789 0.46528 0.0
O20 O 0.56847 0.26602 0.43327 0.0
C21 C 0.63187 0.19164 0.41054 0.0
Fe22 Fe 0.29739 0.5282 0.44115 0.0
Fe23 Fe 0.26597 0.57305 0.39548 0.0
O24 O 0.30491 0.55607 0.41308 0.0
Fe25 Fe 0.3505 0.56778 0.40287 0.0
O26 O 0.36172 0.58778 0.43419 0.0
O27 O 0.33771 0.54508 0.45976 0.0
O28 O 0.27103 0.56482 0.45709 0.0
C29 C 0.24145 0.57803 0.4479 0.0
C30 C 0.35499 0.49135 0.41724 0.0
O31 O 0.23384 0.57385 0.42385 0.0
C32 C 0.3202 0.56417 0.35475 0.0
O33 O 0.25568 0.50605 0.42743 0.0
O34 O 0.25173 0.52652 0.38672 0.0
O35 O 0.37041 0.52205 0.41144 0.0
O36 O 0.32306 0.49026 0.42722 0.0
C37 C 0.30929 0.63439 0.39924 0.0
O38 O 0.29019 0.57751 0.36365 0.0
O39 O 0.34291 0.54937 0.37028 0.0
C40 C 0.24392 0.50262 0.40405 0.0
O41 O 0.27837 0.61953 0.40388 0.0
O42 O 0.33775 0.61559 0.393 0.0
C43 C 0.35711 0.57403 0.45658 0.0
Fe44 Fe 0.92765 0.26884 0.39958 0.0
Fe45 Fe 0.9328 0.35372 0.40554 0.0
O46 O 0.94569 0.3084 0.4159 0.0
Fe47 Fe 0.97578 0.30217 0.44283 0.0
O48 O 0.94146 0.27573 0.46061 0.0
O49 O 0.92861 0.23748 0.42859 0.0
O50 O 0.88187 0.28159 0.40943 0.0
C51 C 0.86656 0.31217 0.40433 0.0
C52 C 0.99863 0.24692 0.40595 0.0
O53 O 0.88496 0.34016 0.39659 0.0
C54 C 0.00956 0.35979 0.41711 0.0
O55 O 0.92168 0.29251 0.36737 0.0
O56 O 0.95016 0.34554 0.37279 0.0
O57 O 0.99739 0.26019 0.42902 0.0
O58 O 0.97337 0.25385 0.38948 0.0
C59 C 0.9295 0.36128 0.45918 0.0
O60 O 0.97825 0.37485 0.41293 0.0
O61 O 0.01195 0.32781 0.42691 0.0
C62 C 0.93536 0.32214 0.35779 0.0
O63 O 0.91407 0.36497 0.43725 0.0
O64 O 0.95939 0.34299 0.46143 0.0
C65 C 0.92832 0.24529 0.45285 0.0
Fe66 Fe 0.20508 0.98315 0.44643 0.0
Fe67 Fe 0.2337 0.93118 0.40371 0.0
O68 O 0.19601 0.95044 0.42145 0.0
Fe69 Fe 0.14988 0.93586 0.41457 0.0
O70 O 0.1426 0.92032 0.44785 0.0
O71 O 0.16765 0.9677 0.46843 0.0
O72 O 0.23455 0.95111 0.464 0.0
C73 C 0.2638 0.93727 0.4548 0.0
C74 C 0.14377 0.01375 0.42286 0.0
O75 O 0.26838 0.93537 0.43025 0.0
C76 C 0.17594 0.93404 0.36494 0.0
O77 O 0.24432 0.00412 0.42885 0.0
O78 O 0.24674 0.97605 0.3904 0.0
O79 O 0.12891 0.98188 0.42079 0.0
O80 O 0.1766 0.0174 0.43073 0.0
C81 C 0.19228 0.87014 0.4146 0.0
O82 O 0.20663 0.92166 0.37352 0.0
O83 O 0.15364 0.94961 0.38045 0.0
C84 C 0.25492 1.00315 0.4051 0.0
O85 O 0.22298 0.88639 0.41681 0.0
O86 O 0.16334 0.88735 0.40731 0.0
C87 C 0.14955 0.93754 0.46871 0.0
Fe88 Fe 0.02473 0.79627 0.11745 0.0
Fe89 Fe 0.07917 0.7738 0.16115 0.0
O90 O 0.05833 0.80837 0.14122 0.0
Fe91 Fe 0.07214 0.85553 0.14418 0.0
O92 O 0.06343 0.86777 0.10989 0.0
O93 O 0.05385 0.81434 0.09098 0.0
O94 O 0.0442 0.75069 0.11006 0.0
C95 C 0.07605 0.73697 0.11357 0.0
C96 C 0.99691 0.86198 0.14033 0.0
O97 O 0.09614 0.74788 0.13242 0.0
C98 C 0.07414 0.83023 0.19698 0.0
O99 O 0.99424 0.77625 0.14209 0.0
O100 O 0.03754 0.74481 0.16303 0.0
O101 O 0.02545 0.86907 0.15387 0.0
O102 O 0.99879 0.83991 0.12098 0.0
C103 C 0.13838 0.81922 0.1462 0.0
O104 O 0.06491 0.79709 0.1915 0.0
O105 O 0.0836 0.85262 0.17905 0.0
C106 C 0.00376 0.74991 0.15713 0.0
O107 O 0.1239 0.79693 0.16233 0.0
O108 O 0.11935 0.84352 0.13442 0.0
C109 C 0.0666 0.84695 0.09013 0.0
Fe110 Fe 0.70408 0.02594 0.11879 0.0
Fe111 Fe 0.73818 0.07146 0.16327 0.0
O112 O 0.69838 0.0552 0.14632 0.0
Fe113 Fe 0.65338 0.06875 0.15678 0.0
O114 O 0.64251 0.08877 0.12539 0.0
O115 O 0.66379 0.044 0.10037 0.0
O116 O 0.73137 0.06046 0.10174 0.0
C117 C 0.76147 0.07352 0.11015 0.0
C118 C 0.64576 0.99229 0.14398 0.0
O119 O 0.76932 0.07143 0.13435 0.0
C120 C 0.68431 0.06437 0.2046 0.0
O121 O 0.74552 1.00282 0.13215 0.0
O122 O 0.75201 0.02466 0.17227 0.0
O123 O 0.63142 0.02384 0.14869 0.0
O124 O 0.67755 0.98956 0.13398 0.0
C125 C 0.69662 0.13407 0.15966 0.0
O126 O 0.71466 0.07674 0.19546 0.0
O127 O 0.66099 0.0502 0.18928 0.0
C128 C 0.75883 1.00016 0.15515 0.0
O129 O 0.72683 0.11816 0.15466 0.0
O130 O 0.66782 0.11618 0.16636 0.0
C131 C 0.64586 0.07406 0.1032 0.0
Fe132 Fe 0.43658 0.65159 0.14655 0.0
Fe133 Fe 0.48328 0.70434 0.11225 0.0
O134 O 0.45008 0.69716 0.13719 0.0
Fe135 Fe 0.4294 0.73621 0.15266 0.0
O136 O 0.3855 0.72336 0.13922 0.0
O137 O 0.38741 0.66471 0.15183 0.0
O138 O 0.42273 0.63976 0.11388 0.0
C139 C 0.44052 0.64405 0.09295 0.0
C140 C 0.43203 0.68265 0.19435 0.0
O141 O 0.46938 0.66413 0.09205 0.0
C142 C 0.50087 0.75848 0.15142 0.0
O143 O 0.4831 0.63112 0.1424 0.0
O144 O 0.51772 0.67831 0.12983 0.0
O145 O 0.41882 0.71194 0.18402 0.0
O146 O 0.44927 0.65984 0.18028 0.0
C147 C 0.43642 0.76114 0.10026 0.0
O148 O 0.50275 0.74587 0.12816 0.0
O149 O 0.47344 0.75121 0.16606 0.0
C150 C 0.51457 0.64645 0.13976 0.0
O151 O 0.45109 0.73125 0.09278 0.0
O152 O 0.43417 0.76833 0.1245 0.0
C153 C 0.37013 0.69223 0.14205 0.0
Fe154 Fe 0.85288 0.43918 0.14549 0.0
Fe155 Fe 0.79752 0.48521 0.11258 0.0
O156 O 0.80669 0.45286 0.13788 0.0
Fe157 Fe 0.76891 0.43303 0.15525 0.0
O158 O 0.78055 0.38842 0.14226 0.0
O159 O 0.84003 0.39029 0.15241 0.0
O160 O 0.86166 0.42395 0.11239 0.0
C161 C 0.8547 0.44058 0.09127 0.0
C162 C 0.82567 0.4361 0.1947 0.0
O163 O 0.83547 0.47004 0.09093 0.0
C164 C 0.7471 0.50478 0.15364 0.0
O165 O 0.87306 0.48575 0.13968 0.0
O166 O 0.82519 0.52017 0.12813 0.0
O167 O 0.79536 0.42359 0.18568 0.0
O168 O 0.84785 0.45256 0.17958 0.0
C169 C 0.73959 0.43854 0.10396 0.0
O170 O 0.75777 0.50578 0.12988 0.0
O171 O 0.75522 0.47769 0.1684 0.0
C172 C 0.85774 0.51732 0.13671 0.0
O173 O 0.76886 0.45255 0.09498 0.0
O174 O 0.73457 0.4369 0.12847 0.0
C175 C 0.81145 0.3726 0.14495 0.0
Fe176 Fe 0.43672 0.85566 0.64755 0.0
Fe177 Fe 0.48233 0.80251 0.61295 0.0
O178 O 0.44915 0.80997 0.63782 0.0
Fe179 Fe 0.42732 0.7711 0.65277 0.0
O180 O 0.38392 0.78544 0.6392 0.0
O181 O 0.38714 0.84368 0.6525 0.0
O182 O 0.42337 0.86858 0.61496 0.0
C183 C 0.44109 0.86414 0.59402 0.0
C184 C 0.43089 0.8236 0.69497 0.0
O185 O 0.46957 0.8435 0.59308 0.0
C186 C 0.49822 0.74702 0.65168 0.0
O187 O 0.48384 0.87503 0.64373 0.0
O188 O 0.51729 0.82718 0.63083 0.0
O189 O 0.41698 0.79495 0.6843 0.0
O190 O 0.44895 0.84619 0.68122 0.0
C191 C 0.43424 0.74736 0.60018 0.0
O192 O 0.50065 0.76011 0.62855 0.0
O193 O 0.47081 0.7546 0.66625 0.0
C194 C 0.51497 0.85903 0.64082 0.0
O195 O 0.44959 0.77708 0.59315 0.0
O196 O 0.43165 0.73951 0.62431 0.0
C197 C 0.36926 0.81687 0.64232 0.0
Fe198 Fe 0.65377 0.43681 0.65512 0.0
Fe199 Fe 0.70139 0.48166 0.61641 0.0
O200 O 0.69781 0.45157 0.64363 0.0
Fe201 Fe 0.73881 0.43547 0.65916 0.0
O202 O 0.72788 0.38896 0.64981 0.0
O203 O 0.66995 0.38945 0.66385 0.0
O204 O 0.64168 0.41725 0.62384 0.0
C205 C 0.64367 0.43248 0.60171 0.0
C206 C 0.68719 0.4407 0.70207 0.0
O207 O 0.66053 0.46316 0.59881 0.0
C208 C 0.75786 0.50721 0.65168 0.0
O209 O 0.63029 0.48147 0.64807 0.0
O210 O 0.67501 0.51702 0.63276 0.0
O211 O 0.71702 0.42849 0.69194 0.0
O212 O 0.66289 0.4549 0.68751 0.0
C213 C 0.75942 0.43611 0.60545 0.0
O214 O 0.74313 0.50523 0.62905 0.0
O215 O 0.75208 0.48216 0.66863 0.0
C216 C 0.64376 0.51344 0.64342 0.0
O217 O 0.72829 0.44815 0.59827 0.0
O218 O 0.76854 0.43744 0.62945 0.0
C219 C 0.69833 0.37225 0.65546 0.0
Fe220 Fe 0.07322 0.6503 0.64115 0.0
Fe221 Fe 0.02476 0.71135 0.6174 0.0
O222 O 0.05849 0.69739 0.64049 0.0
Fe223 Fe 0.0787 0.73033 0.66192 0.0
O224 O 0.12373 0.70767 0.6624 0.0
O225 O 0.12026 0.66427 0.63211 0.0
O226 O 0.06499 0.64128 0.60614 0.0
C227 C 0.06719 0.66437 0.58754 0.0
C228 C 0.07446 0.67076 0.69513 0.0
O229 O 0.05448 0.69676 0.59035 0.0
C230 C 0.00288 0.75347 0.65887 0.0
O231 O 0.02671 0.63496 0.65002 0.0
O232 O 0.99976 0.66694 0.61856 0.0
O233 O 0.06445 0.70411 0.69102 0.0
O234 O 0.08434 0.65013 0.67625 0.0
C235 C 0.07514 0.77136 0.61618 0.0
O236 O 0.99382 0.72808 0.64294 0.0
O237 O 0.03662 0.75864 0.66487 0.0
C238 C 0.9981 0.64301 0.6368 0.0
O239 O 0.04325 0.75795 0.61241 0.0
O240 O 0.09555 0.75883 0.63436 0.0
C241 C 0.13875 0.68769 0.6451 0.0
Fe242 Fe 0.80207 0.02271 0.61499 0.0
Fe243 Fe 0.77111 0.0729 0.65801 0.0
O244 O 0.80977 0.05345 0.64143 0.0
Fe245 Fe 0.85545 0.06584 0.65107 0.0
O246 O 0.8666 0.08295 0.61888 0.0
O247 O 0.84196 0.03846 0.59517 0.0
O248 O 0.77516 0.05689 0.5973 0.0
C249 C 0.74531 0.07059 0.60558 0.0
C250 C 0.85998 0.98823 0.64035 0.0
O251 O 0.73864 0.07097 0.62994 0.0
C252 C 0.82503 0.06659 0.69921 0.0
O253 O 0.7607 1.00185 0.6303 0.0
O254 O 0.75616 0.02774 0.66945 0.0
O255 O 0.87547 0.01938 0.6446 0.0
O256 O 0.82804 0.98636 0.63059 0.0
C257 C 0.81504 0.13315 0.65093 0.0
O258 O 0.79562 0.0803 0.68954 0.0
O259 O 0.8477 0.05029 0.68441 0.0
C260 C 0.74833 1.00179 0.65368 0.0
O261 O 0.78412 0.11809 0.64672 0.0
O262 O 0.84281 0.11456 0.65889 0.0
C263 C 0.86134 0.06774 0.59704 0.0
Fe264 Fe 0.93307 0.15055 0.91747 0.0
Fe265 Fe 0.97989 0.21101 0.94326 0.0
O266 O 0.94651 0.19789 0.91964 0.0
Fe267 Fe 0.92558 0.23158 0.89904 0.0
O268 O 0.881 0.20808 0.89824 0.0
O269 O 0.8858 0.16258 0.92705 0.0
O270 O 0.94198 0.13953 0.95192 0.0
C271 C 0.93852 0.1609 0.97136 0.0
C272 C 0.9311 0.17391 0.86431 0.0
O273 O 0.95074 0.19369 0.96997 0.0
C274 C 1.00085 0.256 0.90282 0.0
O275 O 0.97987 0.13717 0.90797 0.0
O276 O 0.00603 0.16743 0.94054 0.0
O277 O 0.94014 0.20728 0.86918 0.0
O278 O 0.92154 0.1522 0.88261 0.0
C279 C 0.92835 0.27025 0.94581 0.0
O280 O 0.01038 0.23023 0.91834 0.0
O281 O 0.96709 0.26074 0.89671 0.0
C282 C 0.00829 0.14507 0.92139 0.0
O283 O 0.96017 0.25673 0.94976 0.0
O284 O 0.90835 0.25844 0.9272 0.0
C285 C 0.86665 0.18636 0.91483 0.0
Fe286 Fe 0.26532 0.93484 0.89724 0.0
Fe287 Fe 0.35021 0.93766 0.90244 0.0
O288 O 0.30555 0.95152 0.91342 0.0
Fe289 Fe 0.30059 0.98147 0.94065 0.0
O290 O 0.27348 0.94752 0.9585 0.0
O291 O 0.23484 0.93586 0.92646 0.0
O292 O 0.27683 0.8884 0.90648 0.0
C293 C 0.3069 0.87233 0.90124 0.0
C294 C 0.24521 0.00642 0.90449 0.0
O295 O 0.33534 0.89005 0.89361 0.0
C296 C 0.35853 0.01436 0.91439 0.0
O297 O 0.28791 0.92859 0.86484 0.0
O298 O 0.34164 0.95547 0.86984 0.0
O299 O 0.25897 0.00441 0.9274 0.0
O300 O 0.25152 0.98137 0.8877 0.0
C301 C 0.35919 0.93358 0.95595 0.0
O302 O 0.37253 0.98266 0.9097 0.0
O303 O 0.32698 0.01742 0.92474 0.0
C304 C 0.31781 0.94101 0.85505 0.0
O305 O 0.36197 0.91841 0.93388 0.0
O306 O 0.3412 0.96361 0.95879 0.0
C307 C 0.24317 0.93431 0.95058 0.0
Fe308 Fe 0.52261 0.30155 0.94476 0.0
Fe309 Fe 0.577 0.26941 0.90478 0.0
O310 O 0.5559 0.3086 0.91985 0.0
Fe311 Fe 0.56917 0.35413 0.91018 0.0
O312 O 0.58249 0.36676 0.94281 0.0
O313 O 0.53621 0.34201 0.9648 0.0
O314 O 0.55483 0.27504 0.96449 0.0
C315 C 0.56965 0.24509 0.95729 0.0
C316 C 0.49097 0.359 0.91689 0.0
O317 O 0.57206 0.23757 0.93312 0.0
C318 C 0.57505 0.32245 0.86267 0.0
O319 O 0.50343 0.25978 0.92898 0.0
O320 O 0.53316 0.25394 0.89125 0.0
O321 O 0.52238 0.37432 0.91382 0.0
O322 O 0.48805 0.32726 0.92704 0.0
C323 C 0.63581 0.31398 0.91554 0.0
O324 O 0.58802 0.29327 0.87331 0.0
O325 O 0.55712 0.34515 0.8764 0.0
C326 C 0.50557 0.24685 0.90581 0.0
O327 O 0.62063 0.28275 0.91841 0.0
O328 O 0.61852 0.34127 0.90544 0.0
C329 C 0.56479 0.36244 0.96377 0.0
Fe330 Fe 0.23492 0.57237 0.9022 0.0
Fe331 Fe 0.151 0.56657 0.91238 0.0
O332 O 0.19725 0.5532 0.92008 0.0
Fe333 Fe 0.20652 0.52182 0.94594 0.0
O334 O 0.23517 0.55517 0.96286 0.0
O335 O 0.26933 0.56969 0.92903 0.0
O336 O 0.22329 0.6175 0.91422 0.0
C337 C 0.1923 0.6331 0.91148 0.0
C338 C 0.25713 0.5008 0.90529 0.0
O339 O 0.16371 0.61515 0.90439 0.0
C340 C 0.14627 0.48885 0.9225 0.0
O341 O 0.20824 0.58041 0.87164 0.0
O342 O 0.15578 0.55164 0.87857 0.0
O343 O 0.24634 0.50063 0.92903 0.0
O344 O 0.24872 0.52719 0.88997 0.0
C345 C 0.14955 0.56736 0.96662 0.0
O346 O 0.13088 0.52031 0.91924 0.0
O347 O 0.17887 0.48625 0.93104 0.0
C348 C 0.178 0.56718 0.863 0.0
O349 O 0.14254 0.58322 0.94521 0.0
O350 O 0.16857 0.53776 0.96738 0.0
C351 C 0.26442 0.56882 0.95358 0.0
H352 H 0.53953 0.12241 0.33408 0.0
H353 H 0.71365 0.11926 0.23602 0.0
H354 H 0.62303 0.20832 0.3325 0.0
H355 H 0.62214 0.0422 0.23147 0.0
H356 H 0.68322 0.14985 0.27313 0.0
H357 H 0.56997 0.09227 0.29698 0.0
C358 C 0.56393 0.13535 0.32567 0.0
C359 C 0.57867 0.16803 0.3366 0.0
C360 C 0.66996 0.12604 0.26415 0.0
C361 C 0.61444 0.13289 0.29426 0.0
C362 C 0.68758 0.10819 0.24313 0.0
C363 C 0.67054 0.07794 0.23047 0.0
C364 C 0.63506 0.11354 0.27278 0.0
C365 C 0.63643 0.06534 0.24051 0.0
C366 C 0.58152 0.11789 0.30456 0.0
C367 C 0.6105 0.18328 0.32478 0.0
N368 N 0.61983 0.08323 0.2609 0.0
N369 N 0.6275 0.16541 0.30448 0.0
H370 H 0.37199 0.70769 0.22278 0.0
H371 H 0.38359 0.54276 0.32882 0.0
H372 H 0.45913 0.62536 0.22416 0.0
H373 H 0.28989 0.61695 0.32203 0.0
H374 H 0.41201 0.57315 0.29092 0.0
H375 H 0.34333 0.67722 0.26073 0.0
C376 C 0.38556 0.6837 0.23136 0.0
C377 C 0.41815 0.66919 0.22019 0.0
C378 C 0.38507 0.58258 0.29755 0.0
C379 C 0.38494 0.63359 0.26341 0.0
C380 C 0.36863 0.56499 0.31912 0.0
C381 C 0.33415 0.57714 0.32876 0.0
C382 C 0.36717 0.61288 0.28552 0.0
C383 C 0.31635 0.60635 0.31532 0.0
C384 C 0.36889 0.666 0.25285 0.0
C385 C 0.43404 0.6376 0.23203 0.0
N386 N 0.33317 0.62338 0.29461 0.0
N387 N 0.41726 0.62086 0.25283 0.0
H388 H 0.96345 0.38049 0.32933 0.0
H389 H 0.7952 0.38242 0.22657 0.0
H390 H 0.8795 0.29513 0.32625 0.0
H391 H 0.88953 0.45587 0.22085 0.0
H392 H 0.82374 0.35264 0.26468 0.0
H393 H 0.9364 0.40922 0.29028 0.0
C394 C 0.9397 0.36737 0.3202 0.0
C395 C 0.92384 0.33521 0.33123 0.0
C396 C 0.83812 0.37541 0.25519 0.0
C397 C 0.89198 0.36874 0.28665 0.0
C398 C 0.82162 0.39279 0.23354 0.0
C399 C 0.83984 0.42192 0.22035 0.0
C400 C 0.8731 0.38727 0.26401 0.0
C401 C 0.87431 0.43364 0.2303 0.0
C402 C 0.92408 0.38399 0.29796 0.0
C403 C 0.8929 0.31972 0.31848 0.0
N404 N 0.88977 0.4163 0.25143 0.0
N405 N 0.8778 0.33681 0.29711 0.0
H406 H 0.11797 0.9624 0.33619 0.0
H407 H 0.10894 0.79081 0.23617 0.0
H408 H 0.19999 0.87497 0.33528 0.0
H409 H 0.06006 0.8975 0.21905 0.0
H410 H 0.13411 0.81659 0.27719 0.0
H411 H 0.08965 0.93545 0.29684 0.0
C412 C 0.1303 0.9378 0.32757 0.0
C413 C 0.16165 0.92118 0.33905 0.0
C414 C 0.11741 0.83416 0.26461 0.0
C415 C 0.12851 0.88941 0.2944 0.0
C416 C 0.10256 0.81928 0.24143 0.0
C417 C 0.08205 0.84195 0.22432 0.0
C418 C 0.11124 0.8718 0.27088 0.0
C419 C 0.0755 0.879 0.23178 0.0
C420 C 0.11398 0.92231 0.30519 0.0
C421 C 0.17613 0.88905 0.32704 0.0
N422 N 0.08998 0.89273 0.25443 0.0
N423 N 0.15927 0.87405 0.30559 0.0
H424 H 0.28572 0.88784 0.82346 0.0
H425 H 0.46008 0.87847 0.72574 0.0
H426 H 0.38003 0.96151 0.82763 0.0
H427 H 0.3688 0.80106 0.72235 0.0
H428 H 0.43099 0.90864 0.76332 0.0
H429 H 0.314 0.85718 0.78553 0.0
C430 C 0.31198 0.89815 0.81612 0.0
C431 C 0.33045 0.92744 0.82891 0.0
C432 C 0.41739 0.88486 0.75455 0.0
C433 C 0.36343 0.89173 0.78567 0.0
C434 C 0.43418 0.86738 0.73317 0.0
C435 C 0.417 0.83703 0.7208 0.0
C436 C 0.38286 0.87223 0.76373 0.0
C437 C 0.3833 0.82411 0.73134 0.0
C438 C 0.32833 0.88028 0.7946 0.0
C439 C 0.36468 0.93911 0.81853 0.0
N440 N 0.36722 0.84194 0.75203 0.0
N441 N 0.38006 0.92115 0.79772 0.0
H442 H 0.63545 0.29671 0.83467 0.0
H443 H 0.62823 0.4652 0.73113 0.0
H444 H 0.54978 0.38054 0.83286 0.0
H445 H 0.71677 0.38444 0.73254 0.0
H446 H 0.60047 0.43501 0.76921 0.0
H447 H 0.66525 0.32696 0.79697 0.0
C448 C 0.62245 0.32099 0.82607 0.0
C449 C 0.58987 0.33594 0.83703 0.0
C450 C 0.62615 0.42399 0.7614 0.0
C451 C 0.62445 0.3713 0.79414 0.0
C452 C 0.64226 0.44148 0.73972 0.0
C453 C 0.67499 0.42745 0.72845 0.0
C454 C 0.64258 0.39188 0.77205 0.0
C455 C 0.69167 0.39645 0.74054 0.0
C456 C 0.63977 0.33854 0.80471 0.0
C457 C 0.57479 0.3679 0.82518 0.0
N458 N 0.67513 0.37952 0.76148 0.0
N459 N 0.59221 0.38447 0.80458 0.0
H460 H 0.10464 0.70996 0.73615 0.0
H461 H 0.12178 0.53654 0.83365 0.0
H462 H 0.06664 0.60056 0.71455 0.0
H463 H 0.20052 0.62687 0.83343 0.0
H464 H 0.09334 0.5625 0.79387 0.0
H465 H 0.13036 0.68377 0.77686 0.0
C466 C 0.10082 0.68066 0.7403 0.0
C467 C 0.08322 0.65745 0.72202 0.0
C468 C 0.11699 0.57646 0.80248 0.0
C469 C 0.11291 0.62725 0.76835 0.0
C470 C 0.13338 0.56156 0.8251 0.0
C471 C 0.16382 0.57932 0.83689 0.0
C472 C 0.13047 0.60993 0.79188 0.0
C473 C 0.17737 0.61195 0.82498 0.0
C474 C 0.11596 0.66563 0.76333 0.0
C475 C 0.07985 0.61946 0.72817 0.0
N476 N 0.16037 0.62639 0.80338 0.0
N477 N 0.09445 0.60558 0.75078 0.0
H478 H 0.79824 0.12441 0.72895 0.0
H479 H 0.94893 0.10744 0.84262 0.0
H480 H 0.88393 0.04054 0.72817 0.0
H481 H 0.89186 0.21002 0.8258 0.0
H482 H 0.92298 0.08032 0.8026 0.0
H483 H 0.82765 0.1528 0.76728 0.0
C484 C 0.82286 0.11152 0.73706 0.0
C485 C 0.83856 0.07991 0.72518 0.0
C486 C 0.9166 0.10897 0.80737 0.0
C487 C 0.8726 0.11267 0.7691 0.0
C488 C 0.93168 0.12456 0.83007 0.0
C489 C 0.92306 0.16124 0.83728 0.0
C490 C 0.89178 0.1298 0.79203 0.0
C491 C 0.89986 0.18193 0.82065 0.0
C492 C 0.83989 0.12808 0.75878 0.0
C493 C 0.87075 0.06481 0.73659 0.0
N494 N 0.88459 0.16576 0.799 0.0
N495 N 0.88661 0.08124 0.75787 0.0
H496 H 0.48037 0.07357 0.3983 0.0
H497 H 0.26142 0.07606 0.41738 0.0
H498 H 0.41791 0.16835 0.42593 0.0
H499 H 0.31816 0.98669 0.37783 0.0
H500 H 0.3183 0.11265 0.4162 0.0
H501 H 0.42169 0.04244 0.38752 0.0
C502 C 0.45444 0.08783 0.40208 0.0
C503 C 0.45414 0.1234 0.41342 0.0
C504 C 0.3183 0.08534 0.40728 0.0
C505 C 0.38714 0.08825 0.40089 0.0
C506 C 0.28571 0.06462 0.40778 0.0
C507 C 0.28521 0.02844 0.39769 0.0
C508 C 0.35093 0.06942 0.39717 0.0
C509 C 0.31742 0.01467 0.38563 0.0
C510 C 0.42099 0.07017 0.39576 0.0
C511 C 0.41969 0.14074 0.41757 0.0
N512 N 0.3493 0.03492 0.38617 0.0
N513 N 0.38774 0.12293 0.41148 0.0
H514 H 0.33177 0.42214 0.43164 0.0
H515 H 0.50946 0.31512 0.37615 0.0
H516 H 0.42239 0.47869 0.39307 0.0
H517 H 0.43193 0.26851 0.43165 0.0
H518 H 0.47229 0.37225 0.37485 0.0
H519 H 0.36331 0.36327 0.42503 0.0
C520 C 0.35838 0.42228 0.42178 0.0
C521 C 0.37463 0.45564 0.41316 0.0
C522 C 0.46322 0.34928 0.38701 0.0
C523 C 0.41089 0.38774 0.40536 0.0
C524 C 0.48415 0.31655 0.38756 0.0
C525 C 0.47382 0.28715 0.40419 0.0
C526 C 0.43163 0.35234 0.40297 0.0
C527 C 0.44101 0.29063 0.41874 0.0
C528 C 0.37635 0.3885 0.41797 0.0
C529 C 0.40903 0.45374 0.40029 0.0
N530 N 0.42123 0.32271 0.41791 0.0
N531 N 0.42612 0.4203 0.39683 0.0
H532 H 0.01924 0.42788 0.39296 0.0
H533 H 0.23413 0.435 0.42651 0.0
H534 H 0.07978 0.33695 0.42827 0.0
H535 H 0.18345 0.51184 0.37226 0.0
H536 H 0.17753 0.39791 0.42619 0.0
H537 H 0.07847 0.45959 0.38468 0.0
C538 C 0.04485 0.41461 0.39896 0.0
C539 C 0.04445 0.37992 0.4116 0.0
C540 C 0.17889 0.42254 0.41399 0.0
C541 C 0.11196 0.41572 0.40206 0.0
C542 C 0.21125 0.44359 0.41412 0.0
C543 C 0.21332 0.47643 0.39944 0.0
C544 C 0.14808 0.43486 0.39951 0.0
C545 C 0.18295 0.48649 0.38374 0.0
C546 C 0.07861 0.43256 0.39406 0.0
C547 C 0.07854 0.3638 0.41868 0.0
N548 N 0.15121 0.46609 0.38452 0.0
N549 N 0.11076 0.38193 0.41398 0.0
H550 H 0.07338 0.02087 0.40188 0.0
H551 H 0.06861 0.23946 0.42455 0.0
H552 H 0.1667 0.08518 0.42956 0.0
H553 H 0.98613 0.18325 0.37795 0.0
H554 H 0.10569 0.18274 0.42509 0.0
H555 H 0.04046 0.07925 0.39234 0.0
C556 C 0.08691 0.04712 0.40596 0.0
C557 C 0.12268 0.04804 0.41682 0.0
C558 C 0.07979 0.18285 0.41434 0.0
C559 C 0.0855 0.11458 0.4058 0.0
C560 C 0.05876 0.2153 0.41395 0.0
C561 C 0.0244 0.21593 0.4012 0.0
C562 C 0.06597 0.1505 0.40238 0.0
C563 C 0.01269 0.18389 0.38784 0.0
C564 C 0.06826 0.08037 0.40033 0.0
C565 C 0.13906 0.08289 0.42143 0.0
N566 N 0.03318 0.15214 0.38915 0.0
N567 N 0.12028 0.1146 0.41606 0.0
H568 H 0.98141 0.9166 0.17682 0.0
H569 H 0.77036 0.93473 0.12984 0.0
H570 H 0.93026 0.84907 0.11695 0.0
H571 H 0.81805 0.00589 0.18893 0.0
H572 H 0.82719 0.89809 0.12943 0.0
H573 H 0.921 0.94604 0.18509 0.0
C574 C 0.95758 0.90798 0.16542 0.0
C575 C 0.96109 0.88065 0.14591 0.0
C576 C 0.82521 0.92143 0.14275 0.0
C577 C 0.89198 0.91377 0.15551 0.0
C578 C 0.79263 0.94224 0.14309 0.0
C579 C 0.78958 0.97357 0.15927 0.0
C580 C 0.85533 0.93223 0.15848 0.0
C581 C 0.81923 0.9819 0.17615 0.0
C582 C 0.92311 0.92467 0.17023 0.0
C583 C 0.92916 0.87032 0.13194 0.0
N584 N 0.85116 0.96168 0.17503 0.0
N585 N 0.89614 0.88693 0.13696 0.0
H586 H 0.57295 0.76593 0.13732 0.0
H587 H 0.57567 0.98375 0.16515 0.0
H588 H 0.48551 0.82132 0.17981 0.0
H589 H 0.66903 0.92122 0.13546 0.0
H590 H 0.54277 0.92494 0.17291 0.0
H591 H 0.61017 0.82238 0.13971 0.0
C592 C 0.56196 0.78985 0.14766 0.0
C593 C 0.52617 0.78908 0.15832 0.0
C594 C 0.57057 0.92424 0.16487 0.0
C595 C 0.56805 0.8543 0.16046 0.0
C596 C 0.58925 0.95778 0.16029 0.0
C597 C 0.62499 0.95754 0.1493 0.0
C598 C 0.58777 0.89037 0.15833 0.0
C599 C 0.64138 0.92299 0.14367 0.0
C600 C 0.5831 0.82217 0.14893 0.0
C601 C 0.51313 0.82079 0.17148 0.0
N602 N 0.62259 0.89098 0.14809 0.0
N603 N 0.53383 0.85244 0.17178 0.0
H604 H 0.52256 0.57556 0.15997 0.0
H605 H 0.74062 0.57769 0.14116 0.0
H606 H 0.58523 0.673 0.13765 0.0
H607 H 0.6844 0.48866 0.18154 0.0
H608 H 0.68411 0.61485 0.14334 0.0
H609 H 0.58105 0.54395 0.17066 0.0
C610 C 0.54849 0.59033 0.15741 0.0
C611 C 0.54896 0.62675 0.14745 0.0
C612 C 0.68419 0.58749 0.15223 0.0
C613 C 0.61568 0.59101 0.15979 0.0
C614 C 0.71654 0.56642 0.15111 0.0
C615 C 0.71701 0.5302 0.16116 0.0
C616 C 0.65179 0.57183 0.16289 0.0
C617 C 0.68511 0.51666 0.17372 0.0
C618 C 0.58182 0.57239 0.16366 0.0
C619 C 0.58338 0.64472 0.14484 0.0
N620 N 0.65342 0.53723 0.17377 0.0
N621 N 0.61523 0.62658 0.15074 0.0
H622 H 0.01677 0.68504 0.18382 0.0
H623 H 0.83352 0.58831 0.12885 0.0
H624 H 0.93153 0.74294 0.14043 0.0
H625 H 0.92714 0.52649 0.15893 0.0
H626 H 0.86525 0.64595 0.13911 0.0
H627 H 0.97957 0.62847 0.18203 0.0
C628 C 0.98989 0.68616 0.17436 0.0
C629 C 0.97758 0.71882 0.16186 0.0
C630 C 0.87891 0.61985 0.14352 0.0
C631 C 0.93506 0.65379 0.15958 0.0
C632 C 0.86086 0.58673 0.1376 0.0
C633 C 0.87782 0.55225 0.14278 0.0
C634 C 0.9143 0.61883 0.15481 0.0
C635 C 0.91314 0.55234 0.15435 0.0
C636 C 0.96883 0.65367 0.1732 0.0
C637 C 0.94237 0.71845 0.15013 0.0
N638 N 0.93029 0.58516 0.15992 0.0
N639 N 0.92257 0.68633 0.14902 0.0
H640 H 0.68775 0.01559 0.6846 0.0
H641 H 0.58502 0.83128 0.63674 0.0
H642 H 0.73757 0.93172 0.63544 0.0
H643 H 0.52526 0.92949 0.66133 0.0
H644 H 0.64308 0.86263 0.64596 0.0
H645 H 0.63054 0.97862 0.68616 0.0
C646 C 0.68699 0.98892 0.67475 0.0
C647 C 0.71729 0.97663 0.65976 0.0
C648 C 0.6173 0.87732 0.64945 0.0
C649 C 0.65221 0.9347 0.66132 0.0
C650 C 0.58399 0.85949 0.64413 0.0
C651 C 0.55003 0.878 0.64781 0.0
C652 C 0.61698 0.91401 0.65862 0.0
C653 C 0.55076 0.91434 0.65788 0.0
C654 C 0.65426 0.96812 0.67543 0.0
C655 C 0.71473 0.94221 0.64709 0.0
N656 N 0.58381 0.93132 0.66279 0.0
N657 N 0.68267 0.92254 0.64805 0.0
H658 H 0.57258 0.52078 0.66328 0.0
H659 H 0.57072 0.73954 0.63887 0.0
H660 H 0.6673 0.58484 0.63767 0.0
H661 H 0.48134 0.68318 0.67862 0.0
H662 H 0.60774 0.68293 0.64135 0.0
H663 H 0.539 0.57926 0.67131 0.0
C664 C 0.58634 0.54699 0.65943 0.0
C665 C 0.62263 0.54779 0.6494 0.0
C666 C 0.58027 0.68293 0.64995 0.0
C667 C 0.58464 0.6145 0.6587 0.0
C668 C 0.55924 0.71534 0.64862 0.0
C669 C 0.52303 0.71593 0.65852 0.0
C670 C 0.5647 0.6505 0.66076 0.0
C671 C 0.50932 0.68385 0.67091 0.0
C672 C 0.56725 0.58033 0.66413 0.0
C673 C 0.63921 0.58262 0.64503 0.0
N674 N 0.52997 0.65212 0.67128 0.0
N675 N 0.62005 0.61438 0.64953 0.0
H676 H 0.98193 0.58782 0.67281 0.0
H677 H 0.77095 0.5715 0.62501 0.0
H678 H 0.93212 0.65531 0.61221 0.0
H679 H 0.81717 0.50129 0.6854 0.0
H680 H 0.82858 0.60677 0.62392 0.0
H681 H 0.9213 0.55858 0.68054 0.0
C682 C 0.95838 0.59641 0.66109 0.0
C683 C 0.96231 0.62381 0.64164 0.0
C684 C 0.8261 0.58393 0.63766 0.0
C685 C 0.89291 0.59092 0.65063 0.0
C686 C 0.79304 0.5639 0.63838 0.0
C687 C 0.7893 0.53322 0.65516 0.0
C688 C 0.85597 0.57305 0.65362 0.0
C689 C 0.81883 0.52477 0.67216 0.0
C690 C 0.92376 0.57986 0.66561 0.0
C691 C 0.93069 0.6341 0.62725 0.0
N692 N 0.85116 0.54426 0.6707 0.0
N693 N 0.89752 0.61764 0.632 0.0
H694 H 0.83551 0.91796 0.6301 0.0
H695 H 0.01474 0.81647 0.68782 0.0
H696 H 0.92771 0.977 0.66457 0.0
H697 H 0.93125 0.76159 0.64108 0.0
H698 H 0.97794 0.87339 0.68659 0.0
H699 H 0.86596 0.8594 0.64004 0.0
C700 C 0.86226 0.91872 0.63975 0.0
C701 C 0.87923 0.95271 0.64626 0.0
C702 C 0.96745 0.84875 0.67692 0.0
C703 C 0.91422 0.88509 0.65792 0.0
C704 C 0.98828 0.81605 0.67776 0.0
C705 C 0.97643 0.78419 0.66413 0.0
C706 C 0.93438 0.84965 0.66248 0.0
C707 C 0.94175 0.78545 0.65167 0.0
C708 C 0.87957 0.88509 0.64549 0.0
C709 C 0.91376 0.95158 0.65895 0.0
N710 N 0.92219 0.81778 0.65086 0.0
N711 N 0.93019 0.91828 0.6643 0.0
H712 H 0.07484 0.16094 0.94385 0.0
H713 H 0.1872 1.00112 0.86967 0.0
H714 H 0.02465 0.08946 0.88587 0.0
H715 H 0.2324 0.07122 0.93038 0.0
H716 H 0.13008 0.03814 0.87043 0.0
H717 H 0.13454 0.13249 0.93502 0.0
C718 C 0.07629 0.13907 0.9293 0.0
C719 C 0.04446 0.1272 0.91587 0.0
C720 C 0.15274 0.04572 0.88328 0.0
C721 C 0.11335 0.09446 0.90547 0.0
C722 C 0.18549 0.02483 0.8827 0.0
C723 C 0.21443 0.03288 0.90023 0.0
C724 C 0.14911 0.07483 0.90145 0.0
C725 C 0.21061 0.06376 0.91677 0.0
C726 C 0.11058 0.12294 0.92415 0.0
C727 C 0.04839 0.09919 0.89689 0.0
N728 N 0.17845 0.08333 0.91715 0.0
N729 N 0.08222 0.08354 0.89238 0.0
H730 H 0.42868 0.02199 0.89315 0.0
H731 H 0.43319 0.24028 0.9193 0.0
H732 H 0.33579 0.08581 0.92219 0.0
H733 H 0.52087 0.18326 0.87817 0.0
H734 H 0.39546 0.18416 0.91709 0.0
H735 H 0.46218 0.08036 0.88506 0.0
C736 C 0.41531 0.04816 0.89778 0.0
C737 C 0.37953 0.04888 0.9087 0.0
C738 C 0.4227 0.18393 0.90813 0.0
C739 C 0.41749 0.11558 0.89931 0.0
C740 C 0.44414 0.21607 0.90929 0.0
C741 C 0.48013 0.21631 0.89895 0.0
C742 C 0.43763 0.15144 0.89703 0.0
C743 C 0.4931 0.18422 0.88623 0.0
C744 C 0.43435 0.08145 0.89302 0.0
C745 C 0.36345 0.08367 0.91405 0.0
N746 N 0.47208 0.15277 0.88602 0.0
N747 N 0.3826 0.11544 0.90946 0.0
H748 H 0.48227 0.42976 0.89645 0.0
H749 H 0.26496 0.42877 0.91995 0.0
H750 H 0.42032 0.33266 0.92047 0.0
H751 H 0.31913 0.51591 0.87624 0.0
H752 H 0.32161 0.39179 0.91767 0.0
H753 H 0.42338 0.46149 0.88699 0.0
C754 C 0.45642 0.41507 0.89962 0.0
C755 C 0.45632 0.3787 0.90969 0.0
C756 C 0.32103 0.41869 0.9081 0.0
C757 C 0.38912 0.41463 0.8988 0.0
C758 C 0.28861 0.43967 0.90931 0.0
C759 C 0.28748 0.4753 0.89826 0.0
C760 C 0.35289 0.43385 0.89632 0.0
C761 C 0.31888 0.48835 0.88482 0.0
C762 C 0.42286 0.4331 0.89408 0.0
C763 C 0.42195 0.36088 0.91313 0.0
N764 N 0.35067 0.46789 0.88466 0.0
N765 N 0.38989 0.37911 0.90794 0.0
H766 H 0.17046 0.41799 0.93102 0.0
H767 H 0.98752 0.32071 0.876 0.0
H768 H 0.0771 0.47938 0.90012 0.0
H769 H 0.07325 0.263 0.91904 0.0
H770 H 0.02466 0.37733 0.87758 0.0
H771 H 0.13894 0.36019 0.92079 0.0
C772 C 0.14322 0.41943 0.92211 0.0
C773 C 0.12626 0.45382 0.91668 0.0
C774 C 0.03553 0.35216 0.88638 0.0
C775 C 0.09004 0.38712 0.90467 0.0
C776 C 0.0145 0.31963 0.88532 0.0
C777 C 0.02696 0.28703 0.89781 0.0
C778 C 0.06939 0.35211 0.89989 0.0
C779 C 0.06228 0.28746 0.90937 0.0
C780 C 0.12529 0.38624 0.9162 0.0
C781 C 0.09107 0.45359 0.90491 0.0
N782 N 0.08203 0.31961 0.9104 0.0
N783 N 0.07405 0.42071 0.89935 0.0
H784 H 0.67304 0.19266 0.36632 0.0
H785 H 0.81846 0.31731 0.44414 0.0
H786 H 0.67925 0.2006 0.4504 0.0
H787 H 0.82629 0.29844 0.36101 0.0
H788 H 0.7617 0.28053 0.44534 0.0
H789 H 0.72918 0.23068 0.36282 0.0
C790 C 0.68748 0.20076 0.38403 0.0
C791 C 0.67192 0.19372 0.40867 0.0
C792 C 0.77527 0.28508 0.42667 0.0
C793 C 0.73414 0.23857 0.40494 0.0
C794 C 0.80695 0.30702 0.4259 0.0
C795 C 0.82655 0.31083 0.40244 0.0
C796 C 0.7636 0.26682 0.40379 0.0
C797 C 0.8114 0.29626 0.37939 0.0
C798 C 0.71883 0.22327 0.38206 0.0
C799 C 0.69084 0.20541 0.43109 0.0
N800 N 0.78106 0.27405 0.38068 0.0
N801 N 0.72063 0.22801 0.42871 0.0
H802 H 0.32175 0.68137 0.43892 0.0
H803 H 0.18441 0.82676 0.37187 0.0
H804 H 0.29067 0.67607 0.35755 0.0
H805 H 0.21063 0.82478 0.4542 0.0
H806 H 0.22166 0.77052 0.36574 0.0
H807 H 0.28612 0.73868 0.44347 0.0
C808 C 0.30906 0.69359 0.42167 0.0
C809 C 0.30899 0.67451 0.39785 0.0
C810 C 0.21851 0.78184 0.38527 0.0
C811 C 0.26637 0.73803 0.40313 0.0
C812 C 0.19641 0.81322 0.38885 0.0
C813 C 0.19471 0.82998 0.41354 0.0
C814 C 0.2387 0.76767 0.40661 0.0
C815 C 0.21132 0.81222 0.43491 0.0
C816 C 0.28779 0.72558 0.42441 0.0
C817 C 0.29145 0.69055 0.37615 0.0
N818 N 0.23336 0.78232 0.43088 0.0
N819 N 0.26996 0.72112 0.37942 0.0
H820 H 0.32075 0.69018 0.18164 0.0
H821 H 0.16673 0.7971 0.09968 0.0
H822 H 0.33042 0.70086 0.09783 0.0
H823 H 0.1953 0.82042 0.17998 0.0
H824 H 0.22063 0.7554 0.09669 0.0
H825 H 0.26279 0.72548 0.18002 0.0
C826 C 0.30947 0.69817 0.16276 0.0
C827 C 0.32998 0.69285 0.13984 0.0
C828 C 0.21557 0.77048 0.11471 0.0
C829 C 0.26549 0.73462 0.13791 0.0
C830 C 0.18557 0.79499 0.11618 0.0
C831 C 0.17712 0.81229 0.14004 0.0
C832 C 0.23645 0.7633 0.13737 0.0
C833 C 0.20137 0.80776 0.1612 0.0
C834 C 0.27708 0.71919 0.16188 0.0
C835 C 0.31493 0.70448 0.11585 0.0
N836 N 0.22957 0.78304 0.15956 0.0
N837 N 0.28377 0.72563 0.11549 0.0
H838 H 0.81825 0.33 0.18826 0.0
H839 H 0.68561 0.18162 0.11998 0.0
H840 H 0.79508 0.32634 0.10549 0.0
H841 H 0.71698 0.17506 0.20127 0.0
H842 H 0.72076 0.23929 0.11581 0.0
H843 H 0.78268 0.27259 0.19411 0.0
C844 C 0.80735 0.31588 0.17116 0.0
C845 C 0.80953 0.33239 0.14636 0.0
C846 C 0.7193 0.2258 0.13477 0.0
C847 C 0.76732 0.26871 0.15297 0.0
C848 C 0.69833 0.19357 0.13729 0.0
C849 C 0.69832 0.17421 0.16103 0.0
C850 C 0.74045 0.23823 0.15616 0.0
C851 C 0.7161 0.18984 0.18276 0.0
C852 C 0.78621 0.2838 0.17456 0.0
C853 C 0.79412 0.31396 0.12485 0.0
N854 N 0.73719 0.22075 0.17971 0.0
N855 N 0.77296 0.28338 0.12871 0.0
H856 H 0.16631 0.71273 0.59891 0.0
H857 H 0.31964 0.81918 0.68179 0.0
H858 H 0.19567 0.68803 0.67891 0.0
H859 H 0.32955 0.81006 0.59792 0.0
H860 H 0.26147 0.78436 0.67979 0.0
H861 H 0.21931 0.75566 0.59631 0.0
C862 C 0.1851 0.7149 0.61542 0.0
C863 C 0.17718 0.6967 0.63907 0.0
C864 C 0.27584 0.79093 0.66171 0.0
C865 C 0.23544 0.74708 0.63687 0.0
C866 C 0.30837 0.8117 0.66282 0.0
C867 C 0.32907 0.81721 0.64 0.0
C868 C 0.26428 0.77597 0.63762 0.0
C869 C 0.31396 0.80625 0.61589 0.0
C870 C 0.21457 0.74008 0.61418 0.0
C871 C 0.20132 0.70136 0.66028 0.0
N872 N 0.28268 0.78528 0.6153 0.0
N873 N 0.22899 0.72669 0.65886 0.0
H874 H 0.81168 0.18043 0.61041 0.0
H875 H 0.70841 0.33079 0.69901 0.0
H876 H 0.81073 0.17492 0.6947 0.0
H877 H 0.70098 0.3253 0.61489 0.0
H878 H 0.74546 0.27363 0.69888 0.0
H879 H 0.77699 0.23858 0.61236 0.0
C880 C 0.80573 0.19265 0.62937 0.0
C881 C 0.81407 0.17339 0.65243 0.0
C882 C 0.73491 0.28439 0.6805 0.0
C883 C 0.77241 0.23808 0.65492 0.0
C884 C 0.71297 0.31633 0.68067 0.0
C885 C 0.7015 0.33213 0.65694 0.0
C886 C 0.7454 0.26877 0.65639 0.0
C887 C 0.70901 0.31338 0.63356 0.0
C888 C 0.78503 0.2252 0.63052 0.0
C889 C 0.80503 0.18949 0.67656 0.0
N890 N 0.73109 0.28293 0.6338 0.0
N891 N 0.78387 0.22071 0.67722 0.0
H892 H 0.83857 0.21048 0.96092 0.0
H893 H 0.68598 0.31512 0.87646 0.0
H894 H 0.80951 0.18351 0.88129 0.0
H895 H 0.67462 0.30703 0.96031 0.0
H896 H 0.74376 0.27968 0.87919 0.0
H897 H 0.78492 0.25263 0.96304 0.0
C898 C 0.81966 0.2119 0.94443 0.0
C899 C 0.82793 0.19346 0.92097 0.0
C900 C 0.72915 0.2866 0.89709 0.0
C901 C 0.76893 0.24291 0.9226 0.0
C902 C 0.69686 0.30771 0.89557 0.0
C903 C 0.6759 0.31373 0.9182 0.0
C904 C 0.74018 0.27183 0.92139 0.0
C905 C 0.69046 0.30284 0.94251 0.0
C906 C 0.78982 0.23665 0.94539 0.0
C907 C 0.80359 0.19709 0.89978 0.0
N908 N 0.72152 0.28157 0.94349 0.0
N909 N 0.77557 0.22207 0.90088 0.0
H910 H 0.31462 0.82484 0.94131 0.0
H911 H 0.18705 0.67646 0.8684 0.0
H912 H 0.28902 0.8314 0.85902 0.0
H913 H 0.20594 0.6788 0.95171 0.0
H914 H 0.22236 0.73428 0.86395 0.0
H915 H 0.27923 0.7672 0.94426 0.0
C916 C 0.30309 0.8129 0.92359 0.0
C917 C 0.30486 0.83221 0.89986 0.0
C918 C 0.21796 0.72268 0.8833 0.0
C919 C 0.26242 0.76821 0.90326 0.0
C920 C 0.19698 0.69034 0.88588 0.0
C921 C 0.19371 0.67335 0.91045 0.0
C922 C 0.23557 0.73755 0.90549 0.0
C923 C 0.20778 0.69154 0.9325 0.0
C924 C 0.282 0.78068 0.92537 0.0
C925 C 0.28859 0.81663 0.87754 0.0
N926 N 0.22881 0.72239 0.92946 0.0
N927 N 0.26731 0.78571 0.87985 0.0
H928 H 0.61754 0.08487 0.46409 0.0
H929 H 0.67786 0.10516 0.61428 0.0
H930 H 0.56227 0.16203 0.51577 0.0
H931 H 0.74615 0.05917 0.55276 0.0
H932 H 0.62981 0.1194 0.58142 0.0
H933 H 0.65787 0.06621 0.49988 0.0
C934 C 0.61349 0.09755 0.48313 0.0
C935 C 0.58662 0.12532 0.48683 0.0
C936 C 0.65537 0.10618 0.57526 0.0
C937 C 0.63347 0.10435 0.52808 0.0
C938 C 0.68279 0.09809 0.59395 0.0
C939 C 0.71617 0.08093 0.58632 0.0
C940 C 0.66124 0.09653 0.54891 0.0
C941 C 0.72103 0.07243 0.55969 0.0
C942 C 0.63676 0.08702 0.50357 0.0
C943 C 0.58256 0.14045 0.51208 0.0
N944 N 0.6939 0.08014 0.54209 0.0
N945 N 0.60606 0.13004 0.53175 0.0
H946 H 0.44358 0.75359 0.54737 0.0
H947 H 0.34264 0.56361 0.50927 0.0
H948 H 0.40063 0.6788 0.60632 0.0
H949 H 0.40673 0.63111 0.45582 0.0
H950 H 0.3626 0.604 0.54547 0.0
H951 H 0.42786 0.70862 0.51381 0.0
C952 C 0.4308 0.72765 0.55332 0.0
C953 C 0.42354 0.72001 0.57981 0.0
C954 C 0.37255 0.60959 0.52583 0.0
C955 C 0.40533 0.66793 0.5411 0.0
C956 C 0.36135 0.58646 0.50519 0.0
C957 C 0.37286 0.59404 0.4794 0.0
C958 C 0.39519 0.64053 0.52054 0.0
C959 C 0.39688 0.62422 0.47528 0.0
C960 C 0.42193 0.70181 0.53406 0.0
C961 C 0.40679 0.68584 0.58615 0.0
N962 N 0.40693 0.6464 0.49552 0.0
N963 N 0.39813 0.66104 0.5669 0.0
H964 H 0.94238 0.34692 0.51172 0.0
H965 H 0.75035 0.44017 0.55256 0.0
H966 H 0.87217 0.41054 0.45979 0.0
H967 H 0.83048 0.40762 0.61119 0.0
H968 H 0.79471 0.42502 0.51858 0.0
H969 H 0.90305 0.36622 0.5488 0.0
C970 C 0.91921 0.36543 0.50816 0.0
C971 C 0.91049 0.37692 0.48252 0.0
C972 C 0.80284 0.42125 0.53884 0.0
C973 C 0.86521 0.39839 0.52463 0.0
C974 C 0.77733 0.42976 0.55838 0.0
C975 C 0.78662 0.42534 0.58492 0.0
C976 C 0.83811 0.40777 0.5456 0.0
C977 C 0.82215 0.41157 0.591 0.0
C978 C 0.89669 0.37624 0.52929 0.0
C979 C 0.87992 0.40065 0.47908 0.0
N980 N 0.84665 0.40312 0.57146 0.0
N981 N 0.85834 0.41023 0.49976 0.0
H982 H 0.03057 0.81358 0.58536 0.0
H983 H 0.18663 0.93604 0.51574 0.0
H984 H 0.14567 0.80065 0.60707 0.0
H985 H 0.08599 0.89911 0.4783 0.0
H986 H 0.16975 0.89947 0.55497 0.0
H987 H 0.04838 0.85875 0.55241 0.0
C988 C 0.05971 0.8204 0.5834 0.0
C989 C 0.08672 0.80267 0.59889 0.0
C990 C 0.15127 0.89985 0.53824 0.0
C991 C 0.10726 0.85509 0.56078 0.0
C992 C 0.16061 0.92097 0.51602 0.0
C993 C 0.13746 0.92079 0.49384 0.0
C994 C 0.1182 0.87921 0.53837 0.0
C995 C 0.10453 0.90015 0.49497 0.0
C996 C 0.0698 0.84629 0.56446 0.0
C997 C 0.12393 0.81347 0.59553 0.0
N998 N 0.09586 0.88039 0.51683 0.0
N999 N 0.13321 0.83887 0.57664 0.0
H1000 H 0.2416 0.94938 1.00296 0.0
H1001 H 0.0772 0.8132 0.0419 0.0
H1002 H 0.18213 0.88922 0.9431 0.0
H1003 H 0.10565 0.91157 0.08599 0.0
H1004 H 0.11861 0.83446 1.00648 0.0
H1005 H 0.1962 0.92869 0.03522 0.0
C1006 C 0.21902 0.93171 0.99657 0.0
C1007 C 0.21564 0.92117 0.9702 0.0
C1008 C 0.11533 0.85144 1.02385 0.0
C1009 C 0.16347 0.89706 1.00731 0.0
C1010 C 0.09171 0.83939 0.04404 0.0
C1011 C 0.0878 0.86061 0.06702 0.0
C1012 C 0.13569 0.88448 1.02696 0.0
C1013 C 0.10755 0.89423 0.06872 0.0
C1014 C 0.19297 0.92006 1.01502 0.0
C1015 C 0.18565 0.89821 0.96318 0.0
N1016 N 0.13083 0.90482 0.04917 0.0
N1017 N 0.1608 0.88667 0.98168 0.0
H1018 H 0.59464 0.12967 0.10402 0.0
H1019 H 0.60467 0.17729 0.95072 0.0
H1020 H 0.66083 0.06473 0.05039 0.0
H1021 H 0.5585 0.24918 1.01013 0.0
H1022 H 0.62053 0.13193 0.9851 0.0
H1023 H 0.57477 0.16873 0.06783 0.0
C1024 C 0.60475 0.12332 0.08453 0.0
C1025 C 0.62968 0.09389 0.08034 0.0
C1026 C 0.60688 0.15764 0.99049 0.0
C1027 C 0.60719 0.13927 0.03849 0.0
C1028 C 0.59783 0.18355 0.97091 0.0
C1029 C 0.58019 0.21719 0.97748 0.0
C1030 C 0.59792 0.16532 1.01675 0.0
C1031 C 0.57207 0.22376 1.004 0.0
C1032 C 0.59347 0.14585 0.06382 0.0
C1033 C 0.64152 0.08703 0.05453 0.0
N1034 N 0.5809 0.19813 1.02252 0.0
N1035 N 0.63041 0.10977 0.03456 0.0
H1036 H 0.32828 0.60902 0.94367 0.0
H1037 H 0.40186 0.57972 0.09012 0.0
H1038 H 0.27007 0.55061 1.00518 0.0
H1039 H 0.44224 0.66973 0.042 0.0
H1040 H 0.36329 0.55878 0.05394 0.0
H1041 H 0.37807 0.6237 0.97515 0.0
C1042 C 0.326 0.59922 0.96369 0.0
C1043 C 0.29486 0.57868 0.97181 0.0
C1044 C 0.38089 0.58286 0.05108 0.0
C1045 C 0.35174 0.59467 1.0075 0.0
C1046 C 0.40315 0.59466 0.07169 0.0
C1047 C 0.42502 0.62669 0.06912 0.0
C1048 C 0.38009 0.60333 1.02766 0.0
C1049 C 0.42581 0.64482 0.04471 0.0
C1050 C 0.35437 0.60759 0.98156 0.0
C1051 C 0.29333 0.5667 0.99798 0.0
N1052 N 0.40313 0.6332 1.02494 0.0
N1053 N 0.32133 0.57475 1.01475 0.0
H1054 H 0.91994 0.40468 0.08306 0.0
H1055 H 0.85813 0.30141 0.95264 0.0
H1056 H 0.81845 0.43555 0.044 0.0
H1057 H 0.9716 0.30987 0.97914 0.0
H1058 H 0.84053 0.34861 0.98557 0.0
H1059 H 0.93747 0.3676 0.04505 0.0
C1060 C 0.90164 0.40413 0.06622 0.0
C1061 C 0.86793 0.42352 0.06656 0.0
C1062 C 0.8693 0.34028 0.98383 0.0
C1063 C 0.88724 0.38001 1.02307 0.0
C1064 C 0.87934 0.3134 0.96506 0.0
C1065 C 0.91634 0.30122 0.96324 0.0
C1066 C 0.89643 0.35468 1.00089 0.0
C1067 C 0.94263 0.31775 0.97993 0.0
C1068 C 0.91157 0.38285 0.04451 0.0
C1069 C 0.84501 0.42145 0.0443 0.0
N1070 N 0.93212 0.34316 0.99807 0.0
N1071 N 0.85481 0.3996 1.02354 0.0
H1072 H 0.40248 0.92861 0.59099 0.0
H1073 H 0.32752 0.8968 0.44517 0.0
H1074 H 0.44273 0.83832 0.54318 0.0
H1075 H 0.27023 0.95728 0.50604 0.0
H1076 H 0.37767 0.88291 0.47653 0.0
H1077 H 0.36361 0.94927 0.55483 0.0
C1078 C 0.40371 0.91357 0.57262 0.0
C1079 C 0.42563 0.88153 0.57015 0.0
C1080 C 0.35411 0.89932 0.48284 0.0
C1081 C 0.38035 0.90456 0.52872 0.0
C1082 C 0.32553 0.90724 0.46503 0.0
C1083 C 0.29452 0.9281 0.47301 0.0
C1084 C 0.35183 0.91298 0.50858 0.0
C1085 C 0.29337 0.94091 0.49896 0.0
C1086 C 0.38127 0.92521 0.55203 0.0
C1087 C 0.42629 0.86325 0.54583 0.0
N1088 N 0.32156 0.93324 0.51569 0.0
N1089 N 0.40345 0.87471 0.52607 0.0
H1090 H 0.59341 0.3761 0.60307 0.0
H1091 H 0.60039 0.32749 0.44991 0.0
H1092 H 0.65762 0.44184 0.54868 0.0
H1093 H 0.56109 0.25369 0.51068 0.0
H1094 H 0.61608 0.37362 0.48379 0.0
H1095 H 0.57414 0.33619 0.56726 0.0
C1096 C 0.60318 0.38247 0.58349 0.0
C1097 C 0.6274 0.41238 0.579 0.0
C1098 C 0.60401 0.3473 0.48958 0.0
C1099 C 0.60561 0.36597 0.53755 0.0
C1100 C 0.59507 0.32094 0.47029 0.0
C1101 C 0.57933 0.28655 0.47737 0.0
C1102 C 0.59678 0.33933 0.51608 0.0
C1103 C 0.57313 0.27967 0.50412 0.0
C1104 C 0.59226 0.35943 0.56299 0.0
C1105 C 0.63882 0.4192 0.55306 0.0
N1106 N 0.58171 0.30575 0.52234 0.0
N1107 N 0.62806 0.39596 0.5333 0.0
H1108 H 0.25386 0.62576 0.48836 0.0
H1109 H 0.06706 0.59738 0.56206 0.0
H1110 H 0.16643 0.56603 0.44909 0.0
H1111 H 0.11509 0.70711 0.55918 0.0
H1112 H 0.10728 0.57864 0.52536 0.0
H1113 H 0.20809 0.64982 0.51988 0.0
C1114 C 0.22499 0.61786 0.48637 0.0
C1115 C 0.21377 0.59405 0.4661 0.0
C1116 C 0.10856 0.60693 0.53259 0.0
C1117 C 0.16177 0.62053 0.50234 0.0
C1118 C 0.08572 0.61761 0.55346 0.0
C1119 C 0.08754 0.65393 0.56343 0.0
C1120 C 0.13436 0.63232 0.52236 0.0
C1121 C 0.11249 0.679 0.55179 0.0
C1122 C 0.19898 0.63167 0.50422 0.0
C1123 C 0.17606 0.58458 0.46434 0.0
N1124 N 0.13546 0.66753 0.53219 0.0
N1125 N 0.15144 0.59732 0.48252 0.0
H1126 H 0.84151 0.05842 0.54495 0.0
H1127 H 0.93466 0.2513 0.50587 0.0
H1128 H 0.91347 0.12237 0.59529 0.0
H1129 H 0.89862 0.17472 0.44591 0.0
H1130 H 0.92127 0.20482 0.53893 0.0
H1131 H 0.85843 0.0996 0.50816 0.0
C1132 C 0.8614 0.08052 0.54818 0.0
C1133 C 0.87589 0.08701 0.57336 0.0
C1134 C 0.91634 0.19795 0.51857 0.0
C1135 C 0.89455 0.13452 0.53164 0.0
C1136 C 0.9238 0.22468 0.49956 0.0
C1137 C 0.91797 0.21701 0.4729 0.0
C1138 C 0.90245 0.16304 0.51118 0.0
C1139 C 0.90366 0.18184 0.46621 0.0
C1140 C 0.87082 0.10413 0.52722 0.0
C1141 C 0.90125 0.11635 0.57638 0.0
N1142 N 0.89625 0.15612 0.48525 0.0
N1143 N 0.90936 0.13909 0.55595 0.0
H1144 H 0.9258 0.1966 1.01865 0.0
H1145 H 0.7647 0.05766 0.05804 0.0
H1146 H 0.90247 0.09484 0.9769 0.0
H1147 H 0.82168 0.11964 0.1182 0.0
H1148 H 0.81053 0.07855 1.02623 0.0
H1149 H 0.88454 0.17538 0.05422 0.0
C1150 C 0.91248 0.16969 1.01708 0.0
C1151 C 0.91767 0.14752 0.99468 0.0
C1152 C 0.81314 0.08754 0.0464 0.0
C1153 C 0.87003 0.1237 0.03484 0.0
C1154 C 0.78683 0.07579 0.06459 0.0
C1155 C 0.78939 0.08679 0.09091 0.0
C1156 C 0.84205 0.11112 0.05429 0.0
C1157 C 0.81884 0.1103 0.09814 0.0
C1158 C 0.88896 0.15768 0.03734 0.0
C1159 C 0.89947 0.11299 0.99369 0.0
N1160 N 0.84395 0.12197 0.07987 0.0
N1161 N 0.87624 0.10244 1.01324 0.0
H1162 H 0.41244 0.88001 0.95496 0.0
H1163 H 0.40082 0.82843 0.10749 0.0
H1164 H 0.34355 0.94185 1.0087 0.0
H1165 H 0.44838 0.75847 0.04748 0.0
H1166 H 0.38506 0.87455 0.07361 0.0
H1167 H 0.43289 0.84079 0.99091 0.0
C1168 C 0.40189 0.88567 0.97444 0.0
C1169 C 0.37599 0.91419 0.97873 0.0
C1170 C 0.399 0.8491 0.06798 0.0
C1171 C 0.39908 0.86863 1.02025 0.0
C1172 C 0.40799 0.82276 0.08727 0.0
C1173 C 0.42596 0.78944 0.08037 0.0
C1174 C 0.4084 0.84217 0.0417 0.0
C1175 C 0.43451 0.78362 0.05384 0.0
C1176 C 0.41348 0.86305 0.995 0.0
C1177 C 0.36361 0.92024 1.00451 0.0
N1178 N 0.42575 0.80966 0.03561 0.0
N1179 N 0.37501 0.89739 1.02432 0.0
H1180 H 0.67591 0.3979 0.11333 0.0
H1181 H 0.60391 0.42659 0.96638 0.0
H1182 H 0.73423 0.45739 0.05241 0.0
H1183 H 0.56259 0.33742 1.01489 0.0
H1184 H 0.64224 0.44779 1.00261 0.0
H1185 H 0.62659 0.38307 0.08156 0.0
C1186 C 0.6783 0.40792 0.09338 0.0
C1187 C 0.70935 0.4288 0.08551 0.0
C1188 C 0.6245 0.42384 1.00554 0.0
C1189 C 0.65298 0.41259 0.04945 0.0
C1190 C 0.60236 0.41188 0.9849 0.0
C1191 C 0.58027 0.38001 0.98756 0.0
C1192 C 0.62493 0.4037 1.02911 0.0
C1193 C 0.57918 0.3622 1.01208 0.0
C1194 C 0.65019 0.39947 0.07533 0.0
C1195 C 0.71103 0.44105 0.05942 0.0
N1196 N 0.60171 0.37398 0.0319 0.0
N1197 N 0.68328 0.43287 0.04245 0.0
H1198 H 0.14534 0.70313 0.10776 0.0
H1199 H 0.08594 0.60669 0.97368 0.0
H1200 H 0.03363 0.70204 0.07715 0.0
H1201 H 0.18425 0.57083 1.01466 0.0
H1202 H 0.06856 0.64422 1.01147 0.0
H1203 H 0.16288 0.65687 0.07413 0.0
C1204 C 0.12448 0.69301 0.09426 0.0
C1205 C 0.088 0.70688 0.09528 0.0
C1206 C 0.09374 0.62784 1.01247 0.0
C1207 C 0.1079 0.65445 0.05679 0.0
C1208 C 0.1036 0.6063 0.99086 0.0
C1209 C 0.13637 0.5853 0.9911 0.0
C1210 C 0.11717 0.62928 0.03448 0.0
C1211 C 0.15842 0.58618 1.01386 0.0
C1212 C 0.1345 0.66664 0.0751 0.0
C1213 C 0.0622 0.69273 0.07715 0.0
N1214 N 0.14869 0.60823 0.03456 0.0
N1215 N 0.0727 0.66775 0.05871 0.0
loop_
_geom_bond_atom_site_label_1
_geom_bond_atom_site_label_2
_geom_bond_distance
_geom_bond_site_symmetry_2
_ccdc_geom_bond_type
Fe0 O2 1.918 . S
Fe0 O5 1.997 . S
Fe0 O6 2.002 . S
Fe0 O11 1.976 . S
Fe0 O14 1.996 . S
Fe1 O2 1.918 . S
Fe1 O9 1.997 . S
Fe1 O12 1.996 . S
Fe1 O16 1.976 . S
Fe1 O19 2.002 . S
O2 Fe0 1.918 . S
O2 Fe1 1.918 . S
O2 Fe3 1.918 . S
Fe3 O2 1.918 . S
Fe3 O4 2.002 . S
Fe3 O13 1.976 . S
Fe3 O17 1.996 . S
Fe3 O20 1.997 . S
O4 Fe3 2.002 . S
O4 C21 1.295 . S
O5 Fe0 1.997 . S
O5 C21 1.235 . S
O6 Fe0 2.002 . S
O6 C7 1.295 . S
C7 O6 1.295 . S
C7 O9 1.235 . S
C8 O13 1.287 . S
C8 O14 1.255 . S
O9 Fe1 1.997 . S
O9 C7 1.235 . S
C10 O16 1.287 . S
C10 O17 1.255 . S
O11 Fe0 1.976 . S
O11 C18 1.287 . S
O12 Fe1 1.996 . S
O12 C18 1.255 . S
O13 Fe3 1.976 . S
O13 C8 1.287 . S
O14 Fe0 1.996 . S
O14 C8 1.255 . S
C15 O19 1.295 . S
C15 O20 1.235 . S
O16 Fe1 1.976 . S
O16 C10 1.287 . S
O17 Fe3 1.996 . S
O17 C10 1.255 . S
C18 O11 1.287 . S
C18 O12 1.255 . S
O19 Fe1 2.002 . S
O19 C15 1.295 . S
O20 Fe3 1.997 . S
O20 C15 1.235 . S
C21 O4 1.295 . S
C21 O5 1.235 . S
Fe22 O24 1.918 . S
Fe22 O27 1.997 . S
Fe22 O28 2.002 . S
Fe22 O33 1.976 . S
Fe22 O36 1.996 . S
Fe23 O24 1.918 . S
Fe23 O31 1.997 . S
Fe23 O34 1.996 . S
Fe23 O38 1.976 . S
Fe23 O41 2.002 . S
O24 Fe22 1.918 . S
O24 Fe23 1.918 . S
O24 Fe25 1.918 . S
Fe25 O24 1.918 . S
Fe25 O26 2.002 . S
Fe25 O35 1.976 . S
Fe25 O39 1.996 . S
Fe25 O42 1.997 . S
O26 Fe25 2.002 . S
O26 C43 1.295 . S
O27 Fe22 1.997 . S
O27 C43 1.235 . S
O28 Fe22 2.002 . S
O28 C29 1.295 . S
C29 O28 1.295 . S
C29 O31 1.235 . S
C30 O35 1.287 . S
C30 O36 1.255 . S
O31 Fe23 1.997 . S
O31 C29 1.235 . S
C32 O38 1.287 . S
C32 O39 1.255 . S
O33 Fe22 1.976 . S
O33 C40 1.287 . S
O34 Fe23 1.996 . S
O34 C40 1.255 . S
O35 Fe25 1.976 . S
O35 C30 1.287 . S
O36 Fe22 1.996 . S
O36 C30 1.255 . S
C37 O41 1.295 . S
C37 O42 1.235 . S
O38 Fe23 1.976 . S
O38 C32 1.287 . S
O39 Fe25 1.996 . S
O39 C32 1.255 . S
C40 O33 1.287 . S
C40 O34 1.255 . S
O41 Fe23 2.002 . S
O41 C37 1.295 . S
O42 Fe25 1.997 . S
O42 C37 1.235 . S
C43 O26 1.295 . S
C43 O27 1.235 . S
Fe44 O46 1.918 . S
Fe44 O49 1.997 . S
Fe44 O50 2.002 . S
Fe44 O55 1.976 . S
Fe44 O58 1.996 . S
Fe45 O46 1.918 . S
Fe45 O53 1.997 . S
Fe45 O56 1.996 . S
Fe45 O60 1.976 . S
Fe45 O63 2.002 . S
O46 Fe44 1.918 . S
O46 Fe45 1.918 . S
O46 Fe47 1.918 . S
Fe47 O46 1.918 . S
Fe47 O48 2.002 . S
Fe47 O57 1.977 . S
Fe47 O61 1.998 1_655 S
Fe47 O64 1.997 . S
O48 Fe47 2.002 . S
O48 C65 1.295 . S
O49 Fe44 1.997 . S
O49 C65 1.235 . S
O50 Fe44 2.002 . S
O50 C51 1.295 . S
C51 O50 1.295 . S
C51 O53 1.235 . S
C52 O57 1.287 . S
C52 O58 1.255 . S
O53 Fe45 1.997 . S
O53 C51 1.235 . S
C54 O60 1.287 . S
C54 O61 1.255 1_655 S
O55 Fe44 1.976 . S
O55 C62 1.287 . S
O56 Fe45 1.996 . S
O56 C62 1.255 . S
O57 Fe47 1.977 . S
O57 C52 1.287 . S
O58 Fe44 1.996 . S
O58 C52 1.255 . S
C59 O63 1.295 . S
C59 O64 1.235 . S
O60 Fe45 1.976 . S
O60 C54 1.287 . S
O61 Fe47 1.998 1_455 S
O61 C54 1.255 1_455 S
C62 O55 1.287 . S
C62 O56 1.255 . S
O63 Fe45 2.002 . S
O63 C59 1.295 . S
O64 Fe47 1.997 . S
O64 C59 1.235 . S
C65 O48 1.295 . S
C65 O49 1.235 . S
Fe66 O68 1.918 . S
Fe66 O71 1.997 . S
Fe66 O72 2.002 . S
Fe66 O77 1.977 . S
Fe66 O80 1.998 1_565 S
Fe67 O68 1.918 . S
Fe67 O75 1.997 . S
Fe67 O78 1.996 . S
Fe67 O82 1.976 . S
Fe67 O85 2.002 . S
O68 Fe66 1.918 . S
O68 Fe67 1.918 . S
O68 Fe69 1.918 . S
Fe69 O68 1.918 . S
Fe69 O70 2.002 . S
Fe69 O79 1.976 . S
Fe69 O83 1.996 . S
Fe69 O86 1.997 . S
O70 Fe69 2.002 . S
O70 C87 1.295 . S
O71 Fe66 1.997 . S
O71 C87 1.235 . S
O72 Fe66 2.002 . S
O72 C73 1.295 . S
C73 O72 1.295 . S
C73 O75 1.235 . S
C74 O79 1.287 . S
C74 O80 1.255 1_565 S
O75 Fe67 1.997 . S
O75 C73 1.235 . S
C76 O82 1.287 . S
C76 O83 1.255 . S
O77 Fe66 1.977 . S
O77 C84 1.287 . S
O78 Fe67 1.996 . S
O78 C84 1.255 . S
O79 Fe69 1.976 . S
O79 C74 1.287 . S
O80 Fe66 1.998 1_545 S
O80 C74 1.255 1_545 S
C81 O85 1.295 . S
C81 O86 1.235 . S
O82 Fe67 1.976 . S
O82 C76 1.287 . S
O83 Fe69 1.996 . S
O83 C76 1.255 . S
C84 O77 1.287 . S
C84 O78 1.255 . S
O85 Fe67 2.002 . S
O85 C81 1.295 . S
O86 Fe69 1.997 . S
O86 C81 1.235 . S
C87 O70 1.295 . S
C87 O71 1.235 . S
Fe88 O90 1.918 . S
Fe88 O93 1.997 . S
Fe88 O94 2.002 . S
Fe88 O99 1.977 . S
Fe88 O102 1.998 1_455 S
Fe89 O90 1.918 . S
Fe89 O97 1.997 . S
Fe89 O100 1.996 . S
Fe89 O104 1.976 . S
Fe89 O107 2.002 . S
O90 Fe88 1.918 . S
O90 Fe89 1.918 . S
O90 Fe91 1.918 . S
Fe91 O90 1.918 . S
Fe91 O92 2.002 . S
Fe91 O101 1.976 . S
Fe91 O105 1.996 . S
Fe91 O108 1.997 . S
O92 Fe91 2.002 . S
O92 C109 1.295 . S
O93 Fe88 1.997 . S
O93 C109 1.235 . S
O94 Fe88 2.002 . S
O94 C95 1.295 . S
C95 O94 1.295 . S
C95 O97 1.235 . S
C96 O101 1.287 . S
C96 O102 1.255 1_455 S
O97 Fe89 1.997 . S
O97 C95 1.235 . S
C98 O104 1.287 . S
C98 O105 1.255 . S
O99 Fe88 1.977 . S
O99 C106 1.287 . S
O100 Fe89 1.996 . S
O100 C106 1.255 . S
O101 Fe91 1.976 . S
O101 C96 1.287 . S
O102 Fe88 1.998 1_655 S
O102 C96 1.255 1_655 S
C103 O107 1.295 . S
C103 O108 1.235 . S
O104 Fe89 1.976 . S
O104 C98 1.287 . S
O105 Fe91 1.996 . S
O105 C98 1.255 . S
C106 O99 1.287 . S
C106 O100 1.255 . S
O107 Fe89 2.002 . S
O107 C103 1.295 . S
O108 Fe91 1.997 . S
O108 C103 1.235 . S
C109 O92 1.295 . S
C109 O93 1.235 . S
Fe110 O112 1.918 . S
Fe110 O115 1.997 . S
Fe110 O116 2.002 . S
Fe110 O121 1.977 . S
Fe110 O124 1.998 1_545 S
Fe111 O112 1.918 . S
Fe111 O119 1.997 . S
Fe111 O122 1.996 . S
Fe111 O126 1.976 . S
Fe111 O129 2.002 . S
O112 Fe110 1.918 . S
O112 Fe111 1.918 . S
O112 Fe113 1.918 . S
Fe113 O112 1.918 . S
Fe113 O114 2.002 . S
Fe113 O123 1.976 . S
Fe113 O127 1.996 . S
Fe113 O130 1.997 . S
O114 Fe113 2.002 . S
O114 C131 1.295 . S
O115 Fe110 1.997 . S
O115 C131 1.235 . S
O116 Fe110 2.002 . S
O116 C117 1.295 . S
C117 O116 1.295 . S
C117 O119 1.235 . S
C118 O123 1.287 . S
C118 O124 1.255 1_545 S
O119 Fe111 1.997 . S
O119 C117 1.235 . S
C120 O126 1.287 . S
C120 O127 1.255 . S
O121 Fe110 1.977 . S
O121 C128 1.287 . S
O122 Fe111 1.996 . S
O122 C128 1.255 . S
O123 Fe113 1.976 . S
O123 C118 1.287 . S
O124 Fe110 1.998 1_565 S
O124 C118 1.255 1_565 S
C125 O129 1.295 . S
C125 O130 1.235 . S
O126 Fe111 1.976 . S
O126 C120 1.287 . S
O127 Fe113 1.996 . S
O127 C120 1.255 . S
C128 O121 1.287 . S
C128 O122 1.255 . S
O129 Fe111 2.002 . S
O129 C125 1.295 . S
O130 Fe113 1.997 . S
O130 C125 1.235 . S
C131 O114 1.295 . S
C131 O115 1.235 . S
Fe132 O134 1.918 . S
Fe132 O137 1.997 . S
Fe132 O138 2.002 . S
Fe132 O143 1.976 . S
Fe132 O146 1.996 . S
Fe133 O134 1.918 . S
Fe133 O141 1.997 . S
Fe133 O144 1.996 . S
Fe133 O148 1.976 . S
Fe133 O151 2.002 . S
O134 Fe132 1.918 . S
O134 Fe133 1.918 . S
O134 Fe135 1.918 . S
Fe135 O134 1.918 . S
Fe135 O136 2.002 . S
Fe135 O145 1.976 . S
Fe135 O149 1.996 . S
Fe135 O152 1.997 . S
O136 Fe135 2.002 . S
O136 C153 1.295 . S
O137 Fe132 1.997 . S
O137 C153 1.235 . S
O138 Fe132 2.002 . S
O138 C139 1.295 . S
C139 O138 1.295 . S
C139 O141 1.235 . S
C140 O145 1.287 . S
C140 O146 1.255 . S
O141 Fe133 1.997 . S
O141 C139 1.235 . S
C142 O148 1.287 . S
C142 O149 1.255 . S
O143 Fe132 1.976 . S
O143 C150 1.287 . S
O144 Fe133 1.996 . S
O144 C150 1.255 . S
O145 Fe135 1.976 . S
O145 C140 1.287 . S
O146 Fe132 1.996 . S
O146 C140 1.255 . S
C147 O151 1.295 . S
C147 O152 1.235 . S
O148 Fe133 1.976 . S
O148 C142 1.287 . S
O149 Fe135 1.996 . S
O149 C142 1.255 . S
C150 O143 1.287 . S
C150 O144 1.255 . S
O151 Fe133 2.002 . S
O151 C147 1.295 . S
O152 Fe135 1.997 . S
O152 C147 1.235 . S
C153 O136 1.295 . S
C153 O137 1.235 . S
Fe154 O156 1.918 . S
Fe154 O159 1.997 . S
Fe154 O160 2.002 . S
Fe154 O165 1.976 . S
Fe154 O168 1.996 . S
Fe155 O156 1.918 . S
Fe155 O163 1.997 . S
Fe155 O166 1.996 . S
Fe155 O170 1.976 . S
Fe155 O173 2.002 . S
O156 Fe154 1.918 . S
O156 Fe155 1.918 . S
O156 Fe157 1.918 . S
Fe157 O156 1.918 . S
Fe157 O158 2.002 . S
Fe157 O167 1.976 . S
Fe157 O171 1.996 . S
Fe157 O174 1.997 . S
O158 Fe157 2.002 . S
O158 C175 1.295 . S
O159 Fe154 1.997 . S
O159 C175 1.235 . S
O160 Fe154 2.002 . S
O160 C161 1.295 . S
C161 O160 1.295 . S
C161 O163 1.235 . S
C162 O167 1.287 . S
C162 O168 1.255 . S
O163 Fe155 1.997 . S
O163 C161 1.235 . S
C164 O170 1.287 . S
C164 O171 1.255 . S
O165 Fe154 1.976 . S
O165 C172 1.287 . S
O166 Fe155 1.996 . S
O166 C172 1.255 . S
O167 Fe157 1.976 . S
O167 C162 1.287 . S
O168 Fe154 1.996 . S
O168 C162 1.255 . S
C169 O173 1.295 . S
C169 O174 1.235 . S
O170 Fe155 1.976 . S
O170 C164 1.287 . S
O171 Fe157 1.996 . S
O171 C164 1.255 . S
C172 O165 1.287 . S
C172 O166 1.255 . S
O173 Fe155 2.002 . S
O173 C169 1.295 . S
O174 Fe157 1.997 . S
O174 C169 1.235 . S
C175 O158 1.295 . S
C175 O159 1.235 . S
Fe176 O178 1.918 . S
Fe176 O181 1.997 . S
Fe176 O182 2.002 . S
Fe176 O187 1.976 . S
Fe176 O190 1.996 . S
Fe177 O178 1.918 . S
Fe177 O185 1.997 . S
Fe177 O188 1.996 . S
Fe177 O192 1.976 . S
Fe177 O195 2.002 . S
O178 Fe176 1.918 . S
O178 Fe177 1.918 . S
O178 Fe179 1.918 . S
Fe179 O178 1.918 . S
Fe179 O180 2.002 . S
Fe179 O189 1.976 . S
Fe179 O193 1.996 . S
Fe179 O196 1.997 . S
O180 Fe179 2.002 . S
O180 C197 1.295 . S
O181 Fe176 1.997 . S
O181 C197 1.235 . S
O182 Fe176 2.002 . S
O182 C183 1.295 . S
C183 O182 1.295 . S
C183 O185 1.235 . S
C184 O189 1.287 . S
C184 O190 1.255 . S
O185 Fe177 1.997 . S
O185 C183 1.235 . S
C186 O192 1.287 . S
C186 O193 1.255 . S
O187 Fe176 1.976 . S
O187 C194 1.287 . S
O188 Fe177 1.996 . S
O188 C194 1.255 . S
O189 Fe179 1.976 . S
O189 C184 1.287 . S
O190 Fe176 1.996 . S
O190 C184 1.255 . S
C191 O195 1.295 . S
C191 O196 1.235 . S
O192 Fe177 1.976 . S
O192 C186 1.287 . S
O193 Fe179 1.996 . S
O193 C186 1.255 . S
C194 O187 1.287 . S
C194 O188 1.255 . S
O195 Fe177 2.002 . S
O195 C191 1.295 . S
O196 Fe179 1.997 . S
O196 C191 1.235 . S
C197 O180 1.295 . S
C197 O181 1.235 . S
Fe198 O200 1.918 . S
Fe198 O203 1.997 . S
Fe198 O204 2.002 . S
Fe198 O209 1.976 . S
Fe198 O212 1.996 . S
Fe199 O200 1.918 . S
Fe199 O207 1.997 . S
Fe199 O210 1.996 . S
Fe199 O214 1.976 . S
Fe199 O217 2.002 . S
O200 Fe198 1.918 . S
O200 Fe199 1.918 . S
O200 Fe201 1.918 . S
Fe201 O200 1.918 . S
Fe201 O202 2.002 . S
Fe201 O211 1.976 . S
Fe201 O215 1.996 . S
Fe201 O218 1.997 . S
O202 Fe201 2.002 . S
O202 C219 1.295 . S
O203 Fe198 1.997 . S
O203 C219 1.235 . S
O204 Fe198 2.002 . S
O204 C205 1.295 . S
C205 O204 1.295 . S
C205 O207 1.235 . S
C206 O211 1.287 . S
C206 O212 1.255 . S
O207 Fe199 1.997 . S
O207 C205 1.235 . S
C208 O214 1.287 . S
C208 O215 1.255 . S
O209 Fe198 1.976 . S
O209 C216 1.287 . S
O210 Fe199 1.996 . S
O210 C216 1.255 . S
O211 Fe201 1.976 . S
O211 C206 1.287 . S
O212 Fe198 1.996 . S
O212 C206 1.255 . S
C213 O217 1.295 . S
C213 O218 1.235 . S
O214 Fe199 1.976 . S
O214 C208 1.287 . S
O215 Fe201 1.996 . S
O215 C208 1.255 . S
C216 O209 1.287 . S
C216 O210 1.255 . S
O217 Fe199 2.002 . S
O217 C213 1.295 . S
O218 Fe201 1.997 . S
O218 C213 1.235 . S
C219 O202 1.295 . S
C219 O203 1.235 . S
Fe220 O222 1.918 . S
Fe220 O225 1.997 . S
Fe220 O226 2.002 . S
Fe220 O231 1.976 . S
Fe220 O234 1.996 . S
Fe221 O222 1.918 . S
Fe221 O229 1.997 . S
Fe221 O232 1.998 1_455 S
Fe221 O236 1.977 . S
Fe221 O239 2.002 . S
O222 Fe220 1.918 . S
O222 Fe221 1.918 . S
O222 Fe223 1.918 . S
Fe223 O222 1.918 . S
Fe223 O224 2.002 . S
Fe223 O233 1.976 . S
Fe223 O237 1.996 . S
Fe223 O240 1.997 . S
O224 Fe223 2.002 . S
O224 C241 1.295 . S
O225 Fe220 1.997 . S
O225 C241 1.235 . S
O226 Fe220 2.002 . S
O226 C227 1.295 . S
C227 O226 1.295 . S
C227 O229 1.235 . S
C228 O233 1.287 . S
C228 O234 1.255 . S
O229 Fe221 1.997 . S
O229 C227 1.235 . S
C230 O236 1.287 . S
C230 O237 1.255 . S
O231 Fe220 1.976 . S
O231 C238 1.287 . S
O232 Fe221 1.998 1_655 S
O232 C238 1.255 1_655 S
O233 Fe223 1.976 . S
O233 C228 1.287 . S
O234 Fe220 1.996 . S
O234 C228 1.255 . S
C235 O239 1.295 . S
C235 O240 1.235 . S
O236 Fe221 1.977 . S
O236 C230 1.287 . S
O237 Fe223 1.996 . S
O237 C230 1.255 . S
C238 O231 1.287 . S
C238 O232 1.255 1_455 S
O239 Fe221 2.002 . S
O239 C235 1.295 . S
O240 Fe223 1.997 . S
O240 C235 1.235 . S
C241 O224 1.295 . S
C241 O225 1.235 . S
Fe242 O244 1.918 . S
Fe242 O247 1.997 . S
Fe242 O248 2.002 . S
Fe242 O253 1.977 . S
Fe242 O256 1.998 1_545 S
Fe243 O244 1.918 . S
Fe243 O251 1.997 . S
Fe243 O254 1.996 . S
Fe243 O258 1.976 . S
Fe243 O261 2.002 . S
O244 Fe242 1.918 . S
O244 Fe243 1.918 . S
O244 Fe245 1.918 . S
Fe245 O244 1.918 . S
Fe245 O246 2.002 . S
Fe245 O255 1.976 . S
Fe245 O259 1.996 . S
Fe245 O262 1.997 . S
O246 Fe245 2.002 . S
O246 C263 1.295 . S
O247 Fe242 1.997 . S
O247 C263 1.235 . S
O248 Fe242 2.002 . S
O248 C249 1.295 . S
C249 O248 1.295 . S
C249 O251 1.235 . S
C250 O255 1.287 . S
C250 O256 1.255 1_545 S
O251 Fe243 1.997 . S
O251 C249 1.235 . S
C252 O258 1.287 . S
C252 O259 1.255 . S
O253 Fe242 1.977 . S
O253 C260 1.287 . S
O254 Fe243 1.996 . S
O254 C260 1.255 . S
O255 Fe245 1.976 . S
O255 C250 1.287 . S
O256 Fe242 1.998 1_565 S
O256 C250 1.255 1_565 S
C257 O261 1.295 . S
C257 O262 1.235 . S
O258 Fe243 1.976 . S
O258 C252 1.287 . S
O259 Fe245 1.996 . S
O259 C252 1.255 . S
C260 O253 1.287 . S
C260 O254 1.255 . S
O261 Fe243 2.002 . S
O261 C257 1.295 . S
O262 Fe245 1.997 . S
O262 C257 1.235 . S
C263 O246 1.295 . S
C263 O247 1.235 . S
Fe264 O266 1.918 . S
Fe264 O269 1.997 . S
Fe264 O270 2.002 . S
Fe264 O275 1.976 . S
Fe264 O278 1.996 . S
Fe265 O266 1.918 . S
Fe265 O273 1.997 . S
Fe265 O276 1.998 1_655 S
Fe265 O280 1.977 . S
Fe265 O283 2.002 . S
O266 Fe264 1.918 . S
O266 Fe265 1.918 . S
O266 Fe267 1.918 . S
Fe267 O266 1.918 . S
Fe267 O268 2.002 . S
Fe267 O277 1.976 . S
Fe267 O281 1.996 . S
Fe267 O284 1.997 . S
O268 Fe267 2.002 . S
O268 C285 1.295 . S
O269 Fe264 1.997 . S
O269 C285 1.235 . S
O270 Fe264 2.002 . S
O270 C271 1.295 . S
C271 O270 1.295 . S
C271 O273 1.235 . S
C272 O277 1.287 . S
C272 O278 1.255 . S
O273 Fe265 1.997 . S
O273 C271 1.235 . S
C274 O280 1.287 . S
C274 O281 1.255 . S
O275 Fe264 1.976 . S
O275 C282 1.287 . S
O276 Fe265 1.998 1_455 S
O276 C282 1.255 1_455 S
O277 Fe267 1.976 . S
O277 C272 1.287 . S
O278 Fe264 1.996 . S
O278 C272 1.255 . S
C279 O283 1.295 . S
C279 O284 1.235 . S
O280 Fe265 1.977 . S
O280 C274 1.287 . S
O281 Fe267 1.996 . S
O281 C274 1.255 . S
C282 O275 1.287 . S
C282 O276 1.255 1_655 S
O283 Fe265 2.002 . S
O283 C279 1.295 . S
O284 Fe267 1.997 . S
O284 C279 1.235 . S
C285 O268 1.295 . S
C285 O269 1.235 . S
Fe286 O288 1.918 . S
Fe286 O291 1.997 . S
Fe286 O292 2.002 . S
Fe286 O297 1.976 . S
Fe286 O300 1.996 . S
Fe287 O288 1.918 . S
Fe287 O295 1.997 . S
Fe287 O298 1.996 . S
Fe287 O302 1.976 . S
Fe287 O305 2.002 . S
O288 Fe286 1.918 . S
O288 Fe287 1.918 . S
O288 Fe289 1.918 . S
Fe289 O288 1.918 . S
Fe289 O290 2.002 . S
Fe289 O299 1.977 . S
Fe289 O303 1.998 1_565 S
Fe289 O306 1.997 . S
O290 Fe289 2.002 . S
O290 C307 1.295 . S
O291 Fe286 1.997 . S
O291 C307 1.235 . S
O292 Fe286 2.002 . S
O292 C293 1.295 . S
C293 O292 1.295 . S
C293 O295 1.235 . S
C294 O299 1.287 . S
C294 O300 1.255 . S
O295 Fe287 1.997 . S
O295 C293 1.235 . S
C296 O302 1.287 . S
C296 O303 1.255 1_565 S
O297 Fe286 1.976 . S
O297 C304 1.287 . S
O298 Fe287 1.996 . S
O298 C304 1.255 . S
O299 Fe289 1.977 . S
O299 C294 1.287 . S
O300 Fe286 1.996 . S
O300 C294 1.255 . S
C301 O305 1.295 . S
C301 O306 1.235 . S
O302 Fe287 1.976 . S
O302 C296 1.287 . S
O303 Fe289 1.998 1_545 S
O303 C296 1.255 1_545 S
C304 O297 1.287 . S
C304 O298 1.255 . S
O305 Fe287 2.002 . S
O305 C301 1.295 . S
O306 Fe289 1.997 . S
O306 C301 1.235 . S
C307 O290 1.295 . S
C307 O291 1.235 . S
Fe308 O310 1.918 . S
Fe308 O313 1.997 . S
Fe308 O314 2.002 . S
Fe308 O319 1.976 . S
Fe308 O322 1.996 . S
Fe309 O310 1.918 . S
Fe309 O317 1.997 . S
Fe309 O320 1.996 . S
Fe309 O324 1.976 . S
Fe309 O327 2.002 . S
O310 Fe308 1.918 . S
O310 Fe309 1.918 . S
O310 Fe311 1.918 . S
Fe311 O310 1.918 . S
Fe311 O312 2.002 . S
Fe311 O321 1.976 . S
Fe311 O325 1.996 . S
Fe311 O328 1.997 . S
O312 Fe311 2.002 . S
O312 C329 1.295 . S
O313 Fe308 1.997 . S
O313 C329 1.235 . S
O314 Fe308 2.002 . S
O314 C315 1.295 . S
C315 O314 1.295 . S
C315 O317 1.235 . S
C316 O321 1.287 . S
C316 O322 1.255 . S
O317 Fe309 1.997 . S
O317 C315 1.235 . S
C318 O324 1.287 . S
C318 O325 1.255 . S
O319 Fe308 1.976 . S
O319 C326 1.287 . S
O320 Fe309 1.996 . S
O320 C326 1.255 . S
O321 Fe311 1.976 . S
O321 C316 1.287 . S
O322 Fe308 1.996 . S
O322 C316 1.255 . S
C323 O327 1.295 . S
C323 O328 1.235 . S
O324 Fe309 1.976 . S
O324 C318 1.287 . S
O325 Fe311 1.996 . S
O325 C318 1.255 . S
C326 O319 1.287 . S
C326 O320 1.255 . S
O327 Fe309 2.002 . S
O327 C323 1.295 . S
O328 Fe311 1.997 . S
O328 C323 1.235 . S
C329 O312 1.295 . S
C329 O313 1.235 . S
Fe330 O332 1.918 . S
Fe330 O335 1.997 . S
Fe330 O336 2.002 . S
Fe330 O341 1.976 . S
Fe330 O344 1.996 . S
Fe331 O332 1.918 . S
Fe331 O339 1.997 . S
Fe331 O342 1.996 . S
Fe331 O346 1.976 . S
Fe331 O349 2.002 . S
O332 Fe330 1.918 . S
O332 Fe331 1.918 . S
O332 Fe333 1.918 . S
Fe333 O332 1.918 . S
Fe333 O334 2.002 . S
Fe333 O343 1.976 . S
Fe333 O347 1.996 . S
Fe333 O350 1.997 . S
O334 Fe333 2.002 . S
O334 C351 1.295 . S
O335 Fe330 1.997 . S
O335 C351 1.235 . S
O336 Fe330 2.002 . S
O336 C337 1.295 . S
C337 O336 1.295 . S
C337 O339 1.235 . S
C338 O343 1.287 . S
C338 O344 1.255 . S
O339 Fe331 1.997 . S
O339 C337 1.235 . S
C340 O346 1.287 . S
C340 O347 1.255 . S
O341 Fe330 1.976 . S
O341 C348 1.287 . S
O342 Fe331 1.996 . S
O342 C348 1.255 . S
O343 Fe333 1.976 . S
O343 C338 1.287 . S
O344 Fe330 1.996 . S
O344 C338 1.255 . S
C345 O349 1.295 . S
C345 O350 1.235 . S
O346 Fe331 1.976 . S
O346 C340 1.287 . S
O347 Fe333 1.996 . S
O347 C340 1.255 . S
C348 O341 1.287 . S
C348 O342 1.255 . S
O349 Fe331 2.002 . S
O349 C345 1.295 . S
O350 Fe333 1.997 . S
O350 C345 1.235 . S
C351 O334 1.295 . S
C351 O335 1.235 . S
H352 C358 0.930 . S
H353 C362 0.930 . S
H354 C367 0.929 . S
H355 C365 0.929 . S
H356 C360 0.929 . S
H357 C366 0.929 . S
C358 H352 0.930 . S
C358 C359 1.367 . S
C358 C366 1.378 . S
C359 C358 1.367 . S
C359 C367 1.433 . S
C360 H356 0.929 . S
C360 C362 1.378 . S
C360 C364 1.350 . S
C361 C364 1.463 . S
C361 C366 1.350 . S
C361 N369 1.427 . S
C362 H353 0.930 . S
C362 C360 1.378 . S
C362 C363 1.367 . S
C363 C362 1.367 . S
C363 C365 1.433 . S
C364 C360 1.350 . S
C364 C361 1.463 . S
C364 N368 1.427 . S
C365 H355 0.929 . S
C365 C363 1.433 . S
C365 N368 1.384 . S
C366 H357 0.929 . S
C366 C358 1.378 . S
C366 C361 1.350 . S
C367 H354 0.929 . S
C367 C359 1.433 . S
C367 N369 1.384 . S
N368 C364 1.427 . S
N368 C365 1.384 . S
N369 C361 1.427 . S
N369 C367 1.384 . S
H370 C376 0.930 . S
H371 C380 0.930 . S
H372 C385 0.929 . S
H373 C383 0.929 . S
H374 C378 0.929 . S
H375 C384 0.929 . S
C376 H370 0.930 . S
C376 C377 1.367 . S
C376 C384 1.378 . S
C377 C376 1.367 . S
C377 C385 1.433 . S
C378 H374 0.929 . S
C378 C380 1.378 . S
C378 C382 1.350 . S
C379 C382 1.463 . S
C379 C384 1.350 . S
C379 N387 1.427 . S
C380 H371 0.930 . S
C380 C378 1.378 . S
C380 C381 1.367 . S
C381 C380 1.367 . S
C381 C383 1.433 . S
C382 C378 1.350 . S
C382 C379 1.463 . S
C382 N386 1.427 . S
C383 H373 0.929 . S
C383 C381 1.433 . S
C383 N386 1.384 . S
C384 H375 0.929 . S
C384 C376 1.378 . S
C384 C379 1.350 . S
C385 H372 0.929 . S
C385 C377 1.433 . S
C385 N387 1.384 . S
N386 C382 1.427 . S
N386 C383 1.384 . S
N387 C379 1.427 . S
N387 C385 1.384 . S
H388 C394 0.930 . S
H389 C398 0.930 . S
H390 C403 0.929 . S
H391 C401 0.929 . S
H392 C396 0.929 . S
H393 C402 0.929 . S
C394 H388 0.930 . S
C394 C395 1.367 . S
C394 C402 1.378 . S
C395 C394 1.367 . S
C395 C403 1.433 . S
C396 H392 0.929 . S
C396 C398 1.378 . S
C396 C400 1.350 . S
C397 C400 1.463 . S
C397 C402 1.350 . S
C397 N405 1.427 . S
C398 H389 0.930 . S
C398 C396 1.378 . S
C398 C399 1.367 . S
C399 C398 1.367 . S
C399 C401 1.433 . S
C400 C396 1.350 . S
C400 C397 1.463 . S
C400 N404 1.427 . S
C401 H391 0.929 . S
C401 C399 1.433 . S
C401 N404 1.384 . S
C402 H393 0.929 . S
C402 C394 1.378 . S
C402 C397 1.350 . S
C403 H390 0.929 . S
C403 C395 1.433 . S
C403 N405 1.384 . S
N404 C400 1.427 . S
N404 C401 1.384 . S
N405 C397 1.427 . S
N405 C403 1.384 . S
H406 C412 0.930 . S
H407 C416 0.930 . S
H408 C421 0.929 . S
H409 C419 0.929 . S
H410 C414 0.929 . S
H411 C420 0.929 . S
C412 H406 0.930 . S
C412 C413 1.367 . S
C412 C420 1.378 . S
C413 C412 1.367 . S
C413 C421 1.433 . S
C414 H410 0.929 . S
C414 C416 1.378 . S
C414 C418 1.350 . S
C415 C418 1.463 . S
C415 C420 1.350 . S
C415 N423 1.427 . S
C416 H407 0.930 . S
C416 C414 1.378 . S
C416 C417 1.367 . S
C417 C416 1.367 . S
C417 C419 1.433 . S
C418 C414 1.350 . S
C418 C415 1.463 . S
C418 N422 1.427 . S
C419 H409 0.929 . S
C419 C417 1.433 . S
C419 N422 1.384 . S
C420 H411 0.929 . S
C420 C412 1.378 . S
C420 C415 1.350 . S
C421 H408 0.929 . S
C421 C413 1.433 . S
C421 N423 1.384 . S
N422 C418 1.427 . S
N422 C419 1.384 . S
N423 C415 1.427 . S
N423 C421 1.384 . S
H424 C430 0.930 . S
H425 C434 0.930 . S
H426 C439 0.929 . S
H427 C437 0.929 . S
H428 C432 0.929 . S
H429 C438 0.929 . S
C430 H424 0.930 . S
C430 C431 1.367 . S
C430 C438 1.378 . S
C431 C430 1.367 . S
C431 C439 1.433 . S
C432 H428 0.929 . S
C432 C434 1.378 . S
C432 C436 1.350 . S
C433 C436 1.463 . S
C433 C438 1.350 . S
C433 N441 1.427 . S
C434 H425 0.930 . S
C434 C432 1.378 . S
C434 C435 1.367 . S
C435 C434 1.367 . S
C435 C437 1.433 . S
C436 C432 1.350 . S
C436 C433 1.463 . S
C436 N440 1.427 . S
C437 H427 0.929 . S
C437 C435 1.433 . S
C437 N440 1.384 . S
C438 H429 0.929 . S
C438 C430 1.378 . S
C438 C433 1.350 . S
C439 H426 0.929 . S
C439 C431 1.433 . S
C439 N441 1.384 . S
N440 C436 1.427 . S
N440 C437 1.384 . S
N441 C433 1.427 . S
N441 C439 1.384 . S
H442 C448 0.930 . S
H443 C452 0.930 . S
H444 C457 0.929 . S
H445 C455 0.929 . S
H446 C450 0.929 . S
H447 C456 0.929 . S
C448 H442 0.930 . S
C448 C449 1.367 . S
C448 C456 1.378 . S
C449 C448 1.367 . S
C449 C457 1.433 . S
C450 H446 0.929 . S
C450 C452 1.378 . S
C450 C454 1.350 . S
C451 C454 1.463 . S
C451 C456 1.350 . S
C451 N459 1.427 . S
C452 H443 0.930 . S
C452 C450 1.378 . S
C452 C453 1.367 . S
C453 C452 1.367 . S
C453 C455 1.433 . S
C454 C450 1.350 . S
C454 C451 1.463 . S
C454 N458 1.427 . S
C455 H445 0.929 . S
C455 C453 1.433 . S
C455 N458 1.384 . S
C456 H447 0.929 . S
C456 C448 1.378 . S
C456 C451 1.350 . S
C457 H444 0.929 . S
C457 C449 1.433 . S
C457 N459 1.384 . S
N458 C454 1.427 . S
N458 C455 1.384 . S
N459 C451 1.427 . S
N459 C457 1.384 . S
H460 C466 0.930 . S
H461 C470 0.930 . S
H462 C475 0.929 . S
H463 C473 0.929 . S
H464 C468 0.929 . S
H465 C474 0.929 . S
C466 H460 0.930 . S
C466 C467 1.367 . S
C466 C474 1.378 . S
C467 C466 1.367 . S
C467 C475 1.433 . S
C468 H464 0.929 . S
C468 C470 1.378 . S
C468 C472 1.350 . S
C469 C472 1.463 . S
C469 C474 1.350 . S
C469 N477 1.427 . S
C470 H461 0.930 . S
C470 C468 1.378 . S
C470 C471 1.367 . S
C471 C470 1.367 . S
C471 C473 1.433 . S
C472 C468 1.350 . S
C472 C469 1.463 . S
C472 N476 1.427 . S
C473 H463 0.929 . S
C473 C471 1.433 . S
C473 N476 1.384 . S
C474 H465 0.929 . S
C474 C466 1.378 . S
C474 C469 1.350 . S
C475 H462 0.929 . S
C475 C467 1.433 . S
C475 N477 1.384 . S
N476 C472 1.427 . S
N476 C473 1.384 . S
N477 C469 1.427 . S
N477 C475 1.384 . S
H478 C484 0.930 . S
H479 C488 0.930 . S
H480 C493 0.929 . S
H481 C491 0.929 . S
H482 C486 0.929 . S
H483 C492 0.929 . S
C484 H478 0.930 . S
C484 C485 1.367 . S
C484 C492 1.378 . S
C485 C484 1.367 . S
C485 C493 1.433 . S
C486 H482 0.929 . S
C486 C488 1.378 . S
C486 C490 1.350 . S
C487 C490 1.463 . S
C487 C492 1.350 . S
C487 N495 1.427 . S
C488 H479 0.930 . S
C488 C486 1.378 . S
C488 C489 1.367 . S
C489 C488 1.367 . S
C489 C491 1.433 . S
C490 C486 1.350 . S
C490 C487 1.463 . S
C490 N494 1.427 . S
C491 H481 0.929 . S
C491 C489 1.433 . S
C491 N494 1.384 . S
C492 H483 0.929 . S
C492 C484 1.378 . S
C492 C487 1.350 . S
C493 H480 0.929 . S
C493 C485 1.433 . S
C493 N495 1.384 . S
N494 C490 1.427 . S
N494 C491 1.384 . S
N495 C487 1.427 . S
N495 C493 1.384 . S
H496 C502 0.930 . S
H497 C506 0.930 . S
H498 C511 0.929 . S
H499 C509 0.929 . S
H500 C504 0.929 . S
H501 C510 0.929 . S
C502 H496 0.930 . S
C502 C503 1.367 . S
C502 C510 1.378 . S
C503 C502 1.367 . S
C503 C511 1.433 . S
C504 H500 0.929 . S
C504 C506 1.378 . S
C504 C508 1.350 . S
C505 C508 1.463 . S
C505 C510 1.350 . S
C505 N513 1.427 . S
C506 H497 0.930 . S
C506 C504 1.378 . S
C506 C507 1.367 . S
C507 C506 1.367 . S
C507 C509 1.433 . S
C508 C504 1.350 . S
C508 C505 1.463 . S
C508 N512 1.427 . S
C509 H499 0.929 . S
C509 C507 1.433 . S
C509 N512 1.384 . S
C510 H501 0.929 . S
C510 C502 1.378 . S
C510 C505 1.350 . S
C511 H498 0.929 . S
C511 C503 1.433 . S
C511 N513 1.384 . S
N512 C508 1.427 . S
N512 C509 1.384 . S
N513 C505 1.427 . S
N513 C511 1.384 . S
H514 C520 0.930 . S
H515 C524 0.930 . S
H516 C529 0.929 . S
H517 C527 0.929 . S
H518 C522 0.929 . S
H519 C528 0.929 . S
C520 H514 0.930 . S
C520 C521 1.367 . S
C520 C528 1.378 . S
C521 C520 1.367 . S
C521 C529 1.433 . S
C522 H518 0.929 . S
C522 C524 1.378 . S
C522 C526 1.350 . S
C523 C526 1.463 . S
C523 C528 1.350 . S
C523 N531 1.427 . S
C524 H515 0.930 . S
C524 C522 1.378 . S
C524 C525 1.367 . S
C525 C524 1.367 . S
C525 C527 1.433 . S
C526 C522 1.350 . S
C526 C523 1.463 . S
C526 N530 1.427 . S
C527 H517 0.929 . S
C527 C525 1.433 . S
C527 N530 1.384 . S
C528 H519 0.929 . S
C528 C520 1.378 . S
C528 C523 1.350 . S
C529 H516 0.929 . S
C529 C521 1.433 . S
C529 N531 1.384 . S
N530 C526 1.427 . S
N530 C527 1.384 . S
N531 C523 1.427 . S
N531 C529 1.384 . S
H532 C538 0.930 . S
H533 C542 0.930 . S
H534 C547 0.929 . S
H535 C545 0.929 . S
H536 C540 0.929 . S
H537 C546 0.929 . S
C538 H532 0.930 . S
C538 C539 1.367 . S
C538 C546 1.378 . S
C539 C538 1.367 . S
C539 C547 1.433 . S
C540 H536 0.929 . S
C540 C542 1.378 . S
C540 C544 1.350 . S
C541 C544 1.463 . S
C541 C546 1.350 . S
C541 N549 1.427 . S
C542 H533 0.930 . S
C542 C540 1.378 . S
C542 C543 1.367 . S
C543 C542 1.367 . S
C543 C545 1.433 . S
C544 C540 1.350 . S
C544 C541 1.463 . S
C544 N548 1.427 . S
C545 H535 0.929 . S
C545 C543 1.433 . S
C545 N548 1.384 . S
C546 H537 0.929 . S
C546 C538 1.378 . S
C546 C541 1.350 . S
C547 H534 0.929 . S
C547 C539 1.433 . S
C547 N549 1.384 . S
N548 C544 1.427 . S
N548 C545 1.384 . S
N549 C541 1.427 . S
N549 C547 1.384 . S
H550 C556 0.918 1_565 S
H551 C560 0.930 . S
H552 C565 0.929 . S
H553 C563 0.929 1_655 S
H554 C558 0.929 . S
H555 C564 0.929 . S
C556 H550 0.918 1_545 S
C556 C557 1.367 . S
C556 C564 1.378 . S
C557 C556 1.367 . S
C557 C565 1.433 . S
C558 H554 0.929 . S
C558 C560 1.378 . S
C558 C562 1.350 . S
C559 C562 1.463 . S
C559 C564 1.350 . S
C559 N567 1.427 . S
C560 H551 0.930 . S
C560 C558 1.378 . S
C560 C561 1.367 . S
C561 C560 1.367 . S
C561 C563 1.433 . S
C562 C558 1.350 . S
C562 C559 1.463 . S
C562 N566 1.427 . S
C563 H553 0.929 1_455 S
C563 C561 1.433 . S
C563 N566 1.384 . S
C564 H555 0.929 . S
C564 C556 1.378 . S
C564 C559 1.350 . S
C565 H552 0.929 . S
C565 C557 1.433 . S
C565 N567 1.384 . S
N566 C562 1.427 . S
N566 C563 1.384 . S
N567 C559 1.427 . S
N567 C565 1.384 . S
H568 C574 0.930 . S
H569 C578 0.930 1_545 S
H570 C583 0.929 . S
H571 C581 0.929 . S
H572 C576 0.929 . S
H573 C582 0.929 . S
C574 H568 0.930 . S
C574 C575 1.367 . S
C574 C582 1.378 . S
C575 C574 1.367 . S
C575 C583 1.433 . S
C576 H572 0.929 . S
C576 C578 1.378 . S
C576 C580 1.350 . S
C577 C580 1.463 . S
C577 C582 1.350 . S
C577 N585 1.427 . S
C578 H569 0.930 1_565 S
C578 C576 1.378 . S
C578 C579 1.367 . S
C579 C578 1.367 . S
C579 C581 1.433 . S
C580 C576 1.350 . S
C580 C577 1.463 . S
C580 N584 1.427 . S
C581 H571 0.929 . S
C581 C579 1.433 . S
C581 N584 1.384 . S
C582 H573 0.929 . S
C582 C574 1.378 . S
C582 C577 1.350 . S
C583 H570 0.929 . S
C583 C575 1.433 . S
C583 N585 1.384 . S
N584 C580 1.427 . S
N584 C581 1.384 . S
N585 C577 1.427 . S
N585 C583 1.384 . S
H586 C592 0.930 . S
H587 C596 0.930 . S
H588 C601 0.929 . S
H589 C599 0.929 . S
H590 C594 0.929 . S
H591 C600 0.929 . S
C592 H586 0.930 . S
C592 C593 1.367 . S
C592 C600 1.378 . S
C593 C592 1.367 . S
C593 C601 1.433 . S
C594 H590 0.929 . S
C594 C596 1.378 . S
C594 C598 1.350 . S
C595 C598 1.463 . S
C595 C600 1.350 . S
C595 N603 1.427 . S
C596 H587 0.930 . S
C596 C594 1.378 . S
C596 C597 1.367 . S
C597 C596 1.367 . S
C597 C599 1.433 . S
C598 C594 1.350 . S
C598 C595 1.463 . S
C598 N602 1.427 . S
C599 H589 0.929 . S
C599 C597 1.433 . S
C599 N602 1.384 . S
C600 H591 0.929 . S
C600 C592 1.378 . S
C600 C595 1.350 . S
C601 H588 0.929 . S
C601 C593 1.433 . S
C601 N603 1.384 . S
N602 C598 1.427 . S
N602 C599 1.384 . S
N603 C595 1.427 . S
N603 C601 1.384 . S
H604 C610 0.930 . S
H605 C614 0.930 . S
H606 C619 0.929 . S
H607 C617 0.929 . S
H608 C612 0.929 . S
H609 C618 0.929 . S
C610 H604 0.930 . S
C610 C611 1.367 . S
C610 C618 1.378 . S
C611 C610 1.367 . S
C611 C619 1.433 . S
C612 H608 0.929 . S
C612 C614 1.378 . S
C612 C616 1.350 . S
C613 C616 1.463 . S
C613 C618 1.350 . S
C613 N621 1.427 . S
C614 H605 0.930 . S
C614 C612 1.378 . S
C614 C615 1.367 . S
C615 C614 1.367 . S
C615 C617 1.433 . S
C616 C612 1.350 . S
C616 C613 1.463 . S
C616 N620 1.427 . S
C617 H607 0.929 . S
C617 C615 1.433 . S
C617 N620 1.384 . S
C618 H609 0.929 . S
C618 C610 1.378 . S
C618 C613 1.350 . S
C619 H606 0.929 . S
C619 C611 1.433 . S
C619 N621 1.384 . S
N620 C616 1.427 . S
N620 C617 1.384 . S
N621 C613 1.427 . S
N621 C619 1.384 . S
H622 C628 0.930 . S
H623 C632 0.930 . S
H624 C637 0.929 . S
H625 C635 0.929 . S
H626 C630 0.929 . S
H627 C636 0.929 . S
C628 H622 0.930 . S
C628 C629 1.367 . S
C628 C636 1.378 . S
C629 C628 1.367 . S
C629 C637 1.433 . S
C630 H626 0.929 . S
C630 C632 1.378 . S
C630 C634 1.350 . S
C631 C634 1.463 . S
C631 C636 1.350 . S
C631 N639 1.427 . S
C632 H623 0.930 . S
C632 C630 1.378 . S
C632 C633 1.367 . S
C633 C632 1.367 . S
C633 C635 1.433 . S
C634 C630 1.350 . S
C634 C631 1.463 . S
C634 N638 1.427 . S
C635 H625 0.929 . S
C635 C633 1.433 . S
C635 N638 1.384 . S
C636 H627 0.929 . S
C636 C628 1.378 . S
C636 C631 1.350 . S
C637 H624 0.929 . S
C637 C629 1.433 . S
C637 N639 1.384 . S
N638 C634 1.427 . S
N638 C635 1.384 . S
N639 C631 1.427 . S
N639 C637 1.384 . S
H640 C646 0.930 1_545 S
H641 C650 0.930 . S
H642 C655 0.929 . S
H643 C653 0.929 . S
H644 C648 0.929 . S
H645 C654 0.929 . S
C646 H640 0.930 1_565 S
C646 C647 1.367 . S
C646 C654 1.378 . S
C647 C646 1.367 . S
C647 C655 1.433 . S
C648 H644 0.929 . S
C648 C650 1.378 . S
C648 C652 1.350 . S
C649 C652 1.463 . S
C649 C654 1.350 . S
C649 N657 1.427 . S
C650 H641 0.930 . S
C650 C648 1.378 . S
C650 C651 1.367 . S
C651 C650 1.367 . S
C651 C653 1.433 . S
C652 C648 1.350 . S
C652 C649 1.463 . S
C652 N656 1.427 . S
C653 H643 0.929 . S
C653 C651 1.433 . S
C653 N656 1.384 . S
C654 H645 0.929 . S
C654 C646 1.378 . S
C654 C649 1.350 . S
C655 H642 0.929 . S
C655 C647 1.433 . S
C655 N657 1.384 . S
N656 C652 1.427 . S
N656 C653 1.384 . S
N657 C649 1.427 . S
N657 C655 1.384 . S
H658 C664 0.930 . S
H659 C668 0.930 . S
H660 C673 0.929 . S
H661 C671 0.929 . S
H662 C666 0.929 . S
H663 C672 0.929 . S
C664 H658 0.930 . S
C664 C665 1.367 . S
C664 C672 1.378 . S
C665 C664 1.367 . S
C665 C673 1.433 . S
C666 H662 0.929 . S
C666 C668 1.378 . S
C666 C670 1.350 . S
C667 C670 1.463 . S
C667 C672 1.350 . S
C667 N675 1.427 . S
C668 H659 0.930 . S
C668 C666 1.378 . S
C668 C669 1.367 . S
C669 C668 1.367 . S
C669 C671 1.433 . S
C670 C666 1.350 . S
C670 C667 1.463 . S
C670 N674 1.427 . S
C671 H661 0.929 . S
C671 C669 1.433 . S
C671 N674 1.384 . S
C672 H663 0.929 . S
C672 C664 1.378 . S
C672 C667 1.350 . S
C673 H660 0.929 . S
C673 C665 1.433 . S
C673 N675 1.384 . S
N674 C670 1.427 . S
N674 C671 1.384 . S
N675 C667 1.427 . S
N675 C673 1.384 . S
H676 C682 0.930 . S
H677 C686 0.930 . S
H678 C691 0.929 . S
H679 C689 0.929 . S
H680 C684 0.929 . S
H681 C690 0.929 . S
C682 H676 0.930 . S
C682 C683 1.367 . S
C682 C690 1.378 . S
C683 C682 1.367 . S
C683 C691 1.433 . S
C684 H680 0.929 . S
C684 C686 1.378 . S
C684 C688 1.350 . S
C685 C688 1.463 . S
C685 C690 1.350 . S
C685 N693 1.427 . S
C686 H677 0.930 . S
C686 C684 1.378 . S
C686 C687 1.367 . S
C687 C686 1.367 . S
C687 C689 1.433 . S
C688 C684 1.350 . S
C688 C685 1.463 . S
C688 N692 1.427 . S
C689 H679 0.929 . S
C689 C687 1.433 . S
C689 N692 1.384 . S
C690 H681 0.929 . S
C690 C682 1.378 . S
C690 C685 1.350 . S
C691 H678 0.929 . S
C691 C683 1.433 . S
C691 N693 1.384 . S
N692 C688 1.427 . S
N692 C689 1.384 . S
N693 C685 1.427 . S
N693 C691 1.384 . S
H694 C700 0.930 . S
H695 C704 0.931 1_455 S
H696 C709 0.929 . S
H697 C707 0.929 . S
H698 C702 0.929 . S
H699 C708 0.929 . S
C700 H694 0.930 . S
C700 C701 1.367 . S
C700 C708 1.378 . S
C701 C700 1.367 . S
C701 C709 1.433 . S
C702 H698 0.929 . S
C702 C704 1.378 . S
C702 C706 1.350 . S
C703 C706 1.463 . S
C703 C708 1.350 . S
C703 N711 1.427 . S
C704 H695 0.931 1_655 S
C704 C702 1.378 . S
C704 C705 1.367 . S
C705 C704 1.367 . S
C705 C707 1.433 . S
C706 C702 1.350 . S
C706 C703 1.463 . S
C706 N710 1.427 . S
C707 H697 0.929 . S
C707 C705 1.433 . S
C707 N710 1.384 . S
C708 H699 0.929 . S
C708 C700 1.378 . S
C708 C703 1.350 . S
C709 H696 0.929 . S
C709 C701 1.433 . S
C709 N711 1.384 . S
N710 C706 1.427 . S
N710 C707 1.384 . S
N711 C703 1.427 . S
N711 C709 1.384 . S
H712 C718 0.930 . S
H713 C722 0.930 . S
H714 C727 0.929 . S
H715 C725 0.929 . S
H716 C720 0.929 . S
H717 C726 0.929 . S
C718 H712 0.930 . S
C718 C719 1.367 . S
C718 C726 1.378 . S
C719 C718 1.367 . S
C719 C727 1.433 . S
C720 H716 0.929 . S
C720 C722 1.378 . S
C720 C724 1.350 . S
C721 C724 1.463 . S
C721 C726 1.350 . S
C721 N729 1.427 . S
C722 H713 0.930 . S
C722 C720 1.378 . S
C722 C723 1.367 . S
C723 C722 1.367 . S
C723 C725 1.433 . S
C724 C720 1.350 . S
C724 C721 1.463 . S
C724 N728 1.427 . S
C725 H715 0.929 . S
C725 C723 1.433 . S
C725 N728 1.384 . S
C726 H717 0.929 . S
C726 C718 1.378 . S
C726 C721 1.350 . S
C727 H714 0.929 . S
C727 C719 1.433 . S
C727 N729 1.384 . S
N728 C724 1.427 . S
N728 C725 1.384 . S
N729 C721 1.427 . S
N729 C727 1.384 . S
H730 C736 0.930 . S
H731 C740 0.930 . S
H732 C745 0.929 . S
H733 C743 0.929 . S
H734 C738 0.929 . S
H735 C744 0.929 . S
C736 H730 0.930 . S
C736 C737 1.367 . S
C736 C744 1.378 . S
C737 C736 1.367 . S
C737 C745 1.433 . S
C738 H734 0.929 . S
C738 C740 1.378 . S
C738 C742 1.350 . S
C739 C742 1.463 . S
C739 C744 1.350 . S
C739 N747 1.427 . S
C740 H731 0.930 . S
C740 C738 1.378 . S
C740 C741 1.367 . S
C741 C740 1.367 . S
C741 C743 1.433 . S
C742 C738 1.350 . S
C742 C739 1.463 . S
C742 N746 1.427 . S
C743 H733 0.929 . S
C743 C741 1.433 . S
C743 N746 1.384 . S
C744 H735 0.929 . S
C744 C736 1.378 . S
C744 C739 1.350 . S
C745 H732 0.929 . S
C745 C737 1.433 . S
C745 N747 1.384 . S
N746 C742 1.427 . S
N746 C743 1.384 . S
N747 C739 1.427 . S
N747 C745 1.384 . S
H748 C754 0.930 . S
H749 C758 0.930 . S
H750 C763 0.929 . S
H751 C761 0.929 . S
H752 C756 0.929 . S
H753 C762 0.929 . S
C754 H748 0.930 . S
C754 C755 1.367 . S
C754 C762 1.378 . S
C755 C754 1.367 . S
C755 C763 1.433 . S
C756 H752 0.929 . S
C756 C758 1.378 . S
C756 C760 1.350 . S
C757 C760 1.463 . S
C757 C762 1.350 . S
C757 N765 1.427 . S
C758 H749 0.930 . S
C758 C756 1.378 . S
C758 C759 1.367 . S
C759 C758 1.367 . S
C759 C761 1.433 . S
C760 C756 1.350 . S
C760 C757 1.463 . S
C760 N764 1.427 . S
C761 H751 0.929 . S
C761 C759 1.433 . S
C761 N764 1.384 . S
C762 H753 0.929 . S
C762 C754 1.378 . S
C762 C757 1.350 . S
C763 H750 0.929 . S
C763 C755 1.433 . S
C763 N765 1.384 . S
N764 C760 1.427 . S
N764 C761 1.384 . S
N765 C757 1.427 . S
N765 C763 1.384 . S
H766 C772 0.930 . S
H767 C776 0.930 1_655 S
H768 C781 0.929 . S
H769 C779 0.929 . S
H770 C774 0.929 . S
H771 C780 0.929 . S
C772 H766 0.930 . S
C772 C773 1.367 . S
C772 C780 1.378 . S
C773 C772 1.367 . S
C773 C781 1.433 . S
C774 H770 0.929 . S
C774 C776 1.378 . S
C774 C778 1.350 . S
C775 C778 1.463 . S
C775 C780 1.350 . S
C775 N783 1.427 . S
C776 H767 0.930 1_455 S
C776 C774 1.378 . S
C776 C777 1.367 . S
C777 C776 1.367 . S
C777 C779 1.433 . S
C778 C774 1.350 . S
C778 C775 1.463 . S
C778 N782 1.427 . S
C779 H769 0.929 . S
C779 C777 1.433 . S
C779 N782 1.384 . S
C780 H771 0.929 . S
C780 C772 1.378 . S
C780 C775 1.350 . S
C781 H768 0.929 . S
C781 C773 1.433 . S
C781 N783 1.384 . S
N782 C778 1.427 . S
N782 C779 1.384 . S
N783 C775 1.427 . S
N783 C781 1.384 . S
H784 C790 0.930 . S
H785 C794 0.930 . S
H786 C799 0.929 . S
H787 C797 0.929 . S
H788 C792 0.929 . S
H789 C798 0.929 . S
C790 H784 0.930 . S
C790 C791 1.367 . S
C790 C798 1.378 . S
C791 C790 1.367 . S
C791 C799 1.433 . S
C792 H788 0.929 . S
C792 C794 1.378 . S
C792 C796 1.350 . S
C793 C796 1.463 . S
C793 C798 1.350 . S
C793 N801 1.427 . S
C794 H785 0.930 . S
C794 C792 1.378 . S
C794 C795 1.367 . S
C795 C794 1.367 . S
C795 C797 1.433 . S
C796 C792 1.350 . S
C796 C793 1.463 . S
C796 N800 1.427 . S
C797 H787 0.929 . S
C797 C795 1.433 . S
C797 N800 1.384 . S
C798 H789 0.929 . S
C798 C790 1.378 . S
C798 C793 1.350 . S
C799 H786 0.929 . S
C799 C791 1.433 . S
C799 N801 1.384 . S
N800 C796 1.427 . S
N800 C797 1.384 . S
N801 C793 1.427 . S
N801 C799 1.384 . S
H802 C808 0.930 . S
H803 C812 0.930 . S
H804 C817 0.929 . S
H805 C815 0.929 . S
H806 C810 0.929 . S
H807 C816 0.929 . S
C808 H802 0.930 . S
C808 C809 1.367 . S
C808 C816 1.378 . S
C809 C808 1.367 . S
C809 C817 1.433 . S
C810 H806 0.929 . S
C810 C812 1.378 . S
C810 C814 1.350 . S
C811 C814 1.463 . S
C811 C816 1.350 . S
C811 N819 1.427 . S
C812 H803 0.930 . S
C812 C810 1.378 . S
C812 C813 1.367 . S
C813 C812 1.367 . S
C813 C815 1.433 . S
C814 C810 1.350 . S
C814 C811 1.463 . S
C814 N818 1.427 . S
C815 H805 0.929 . S
C815 C813 1.433 . S
C815 N818 1.384 . S
C816 H807 0.929 . S
C816 C808 1.378 . S
C816 C811 1.350 . S
C817 H804 0.929 . S
C817 C809 1.433 . S
C817 N819 1.384 . S
N818 C814 1.427 . S
N818 C815 1.384 . S
N819 C811 1.427 . S
N819 C817 1.384 . S
H820 C826 0.930 . S
H821 C830 0.930 . S
H822 C835 0.929 . S
H823 C833 0.929 . S
H824 C828 0.929 . S
H825 C834 0.929 . S
C826 H820 0.930 . S
C826 C827 1.367 . S
C826 C834 1.378 . S
C827 C826 1.367 . S
C827 C835 1.433 . S
C828 H824 0.929 . S
C828 C830 1.378 . S
C828 C832 1.350 . S
C829 C832 1.463 . S
C829 C834 1.350 . S
C829 N837 1.427 . S
C830 H821 0.930 . S
C830 C828 1.378 . S
C830 C831 1.367 . S
C831 C830 1.367 . S
C831 C833 1.433 . S
C832 C828 1.350 . S
C832 C829 1.463 . S
C832 N836 1.427 . S
C833 H823 0.929 . S
C833 C831 1.433 . S
C833 N836 1.384 . S
C834 H825 0.929 . S
C834 C826 1.378 . S
C834 C829 1.350 . S
C835 H822 0.929 . S
C835 C827 1.433 . S
C835 N837 1.384 . S
N836 C832 1.427 . S
N836 C833 1.384 . S
N837 C829 1.427 . S
N837 C835 1.384 . S
H838 C844 0.930 . S
H839 C848 0.930 . S
H840 C853 0.929 . S
H841 C851 0.929 . S
H842 C846 0.929 . S
H843 C852 0.929 . S
C844 H838 0.930 . S
C844 C845 1.367 . S
C844 C852 1.378 . S
C845 C844 1.367 . S
C845 C853 1.433 . S
C846 H842 0.929 . S
C846 C848 1.378 . S
C846 C850 1.350 . S
C847 C850 1.463 . S
C847 C852 1.350 . S
C847 N855 1.427 . S
C848 H839 0.930 . S
C848 C846 1.378 . S
C848 C849 1.367 . S
C849 C848 1.367 . S
C849 C851 1.433 . S
C850 C846 1.350 . S
C850 C847 1.463 . S
C850 N854 1.427 . S
C851 H841 0.929 . S
C851 C849 1.433 . S
C851 N854 1.384 . S
C852 H843 0.929 . S
C852 C844 1.378 . S
C852 C847 1.350 . S
C853 H840 0.929 . S
C853 C845 1.433 . S
C853 N855 1.384 . S
N854 C850 1.427 . S
N854 C851 1.384 . S
N855 C847 1.427 . S
N855 C853 1.384 . S
H856 C862 0.930 . S
H857 C866 0.930 . S
H858 C871 0.929 . S
H859 C869 0.929 . S
H860 C864 0.929 . S
H861 C870 0.929 . S
C862 H856 0.930 . S
C862 C863 1.367 . S
C862 C870 1.378 . S
C863 C862 1.367 . S
C863 C871 1.433 . S
C864 H860 0.929 . S
C864 C866 1.378 . S
C864 C868 1.350 . S
C865 C868 1.463 . S
C865 C870 1.350 . S
C865 N873 1.427 . S
C866 H857 0.930 . S
C866 C864 1.378 . S
C866 C867 1.367 . S
C867 C866 1.367 . S
C867 C869 1.433 . S
C868 C864 1.350 . S
C868 C865 1.463 . S
C868 N872 1.427 . S
C869 H859 0.929 . S
C869 C867 1.433 . S
C869 N872 1.384 . S
C870 H861 0.929 . S
C870 C862 1.378 . S
C870 C865 1.350 . S
C871 H858 0.929 . S
C871 C863 1.433 . S
C871 N873 1.384 . S
N872 C868 1.427 . S
N872 C869 1.384 . S
N873 C865 1.427 . S
N873 C871 1.384 . S
H874 C880 0.930 . S
H875 C884 0.930 . S
H876 C889 0.929 . S
H877 C887 0.929 . S
H878 C882 0.929 . S
H879 C888 0.929 . S
C880 H874 0.930 . S
C880 C881 1.367 . S
C880 C888 1.378 . S
C881 C880 1.367 . S
C881 C889 1.433 . S
C882 H878 0.929 . S
C882 C884 1.378 . S
C882 C886 1.350 . S
C883 C886 1.463 . S
C883 C888 1.350 . S
C883 N891 1.427 . S
C884 H875 0.930 . S
C884 C882 1.378 . S
C884 C885 1.367 . S
C885 C884 1.367 . S
C885 C887 1.433 . S
C886 C882 1.350 . S
C886 C883 1.463 . S
C886 N890 1.427 . S
C887 H877 0.929 . S
C887 C885 1.433 . S
C887 N890 1.384 . S
C888 H879 0.929 . S
C888 C880 1.378 . S
C888 C883 1.350 . S
C889 H876 0.929 . S
C889 C881 1.433 . S
C889 N891 1.384 . S
N890 C886 1.427 . S
N890 C887 1.384 . S
N891 C883 1.427 . S
N891 C889 1.384 . S
H892 C898 0.930 . S
H893 C902 0.930 . S
H894 C907 0.929 . S
H895 C905 0.929 . S
H896 C900 0.929 . S
H897 C906 0.929 . S
C898 H892 0.930 . S
C898 C899 1.367 . S
C898 C906 1.378 . S
C899 C898 1.367 . S
C899 C907 1.433 . S
C900 H896 0.929 . S
C900 C902 1.378 . S
C900 C904 1.350 . S
C901 C904 1.463 . S
C901 C906 1.350 . S
C901 N909 1.427 . S
C902 H893 0.930 . S
C902 C900 1.378 . S
C902 C903 1.367 . S
C903 C902 1.367 . S
C903 C905 1.433 . S
C904 C900 1.350 . S
C904 C901 1.463 . S
C904 N908 1.427 . S
C905 H895 0.929 . S
C905 C903 1.433 . S
C905 N908 1.384 . S
C906 H897 0.929 . S
C906 C898 1.378 . S
C906 C901 1.350 . S
C907 H894 0.929 . S
C907 C899 1.433 . S
C907 N909 1.384 . S
N908 C904 1.427 . S
N908 C905 1.384 . S
N909 C901 1.427 . S
N909 C907 1.384 . S
H910 C916 0.930 . S
H911 C920 0.930 . S
H912 C925 0.929 . S
H913 C923 0.929 . S
H914 C918 0.929 . S
H915 C924 0.929 . S
C916 H910 0.930 . S
C916 C917 1.367 . S
C916 C924 1.378 . S
C917 C916 1.367 . S
C917 C925 1.433 . S
C918 H914 0.929 . S
C918 C920 1.378 . S
C918 C922 1.350 . S
C919 C922 1.463 . S
C919 C924 1.350 . S
C919 N927 1.427 . S
C920 H911 0.930 . S
C920 C918 1.378 . S
C920 C921 1.367 . S
C921 C920 1.367 . S
C921 C923 1.433 . S
C922 C918 1.350 . S
C922 C919 1.463 . S
C922 N926 1.427 . S
C923 H913 0.929 . S
C923 C921 1.433 . S
C923 N926 1.384 . S
C924 H915 0.929 . S
C924 C916 1.378 . S
C924 C919 1.350 . S
C925 H912 0.929 . S
C925 C917 1.433 . S
C925 N927 1.384 . S
N926 C922 1.427 . S
N926 C923 1.384 . S
N927 C919 1.427 . S
N927 C925 1.384 . S
H928 C934 0.930 . S
H929 C938 0.930 . S
H930 C943 0.929 . S
H931 C941 0.929 . S
H932 C936 0.929 . S
H933 C942 0.929 . S
C934 H928 0.930 . S
C934 C935 1.367 . S
C934 C942 1.378 . S
C935 C934 1.367 . S
C935 C943 1.433 . S
C936 H932 0.929 . S
C936 C938 1.378 . S
C936 C940 1.350 . S
C937 C940 1.463 . S
C937 C942 1.350 . S
C937 N945 1.427 . S
C938 H929 0.930 . S
C938 C936 1.378 . S
C938 C939 1.367 . S
C939 C938 1.367 . S
C939 C941 1.433 . S
C940 C936 1.350 . S
C940 C937 1.463 . S
C940 N944 1.427 . S
C941 H931 0.929 . S
C941 C939 1.433 . S
C941 N944 1.384 . S
C942 H933 0.929 . S
C942 C934 1.378 . S
C942 C937 1.350 . S
C943 H930 0.929 . S
C943 C935 1.433 . S
C943 N945 1.384 . S
N944 C940 1.427 . S
N944 C941 1.384 . S
N945 C937 1.427 . S
N945 C943 1.384 . S
H946 C952 0.930 . S
H947 C956 0.930 . S
H948 C961 0.929 . S
H949 C959 0.929 . S
H950 C954 0.929 . S
H951 C960 0.929 . S
C952 H946 0.930 . S
C952 C953 1.367 . S
C952 C960 1.378 . S
C953 C952 1.367 . S
C953 C961 1.433 . S
C954 H950 0.929 . S
C954 C956 1.378 . S
C954 C958 1.350 . S
C955 C958 1.463 . S
C955 C960 1.350 . S
C955 N963 1.427 . S
C956 H947 0.930 . S
C956 C954 1.378 . S
C956 C957 1.367 . S
C957 C956 1.367 . S
C957 C959 1.433 . S
C958 C954 1.350 . S
C958 C955 1.463 . S
C958 N962 1.427 . S
C959 H949 0.929 . S
C959 C957 1.433 . S
C959 N962 1.384 . S
C960 H951 0.929 . S
C960 C952 1.378 . S
C960 C955 1.350 . S
C961 H948 0.929 . S
C961 C953 1.433 . S
C961 N963 1.384 . S
N962 C958 1.427 . S
N962 C959 1.384 . S
N963 C955 1.427 . S
N963 C961 1.384 . S
H964 C970 0.930 . S
H965 C974 0.930 . S
H966 C979 0.929 . S
H967 C977 0.929 . S
H968 C972 0.929 . S
H969 C978 0.929 . S
C970 H964 0.930 . S
C970 C971 1.367 . S
C970 C978 1.378 . S
C971 C970 1.367 . S
C971 C979 1.433 . S
C972 H968 0.929 . S
C972 C974 1.378 . S
C972 C976 1.350 . S
C973 C976 1.463 . S
C973 C978 1.350 . S
C973 N981 1.427 . S
C974 H965 0.930 . S
C974 C972 1.378 . S
C974 C975 1.367 . S
C975 C974 1.367 . S
C975 C977 1.433 . S
C976 C972 1.350 . S
C976 C973 1.463 . S
C976 N980 1.427 . S
C977 H967 0.929 . S
C977 C975 1.433 . S
C977 N980 1.384 . S
C978 H969 0.929 . S
C978 C970 1.378 . S
C978 C973 1.350 . S
C979 H966 0.929 . S
C979 C971 1.433 . S
C979 N981 1.384 . S
N980 C976 1.427 . S
N980 C977 1.384 . S
N981 C973 1.427 . S
N981 C979 1.384 . S
H982 C988 0.930 . S
H983 C992 0.930 . S
H984 C997 0.929 . S
H985 C995 0.929 . S
H986 C990 0.929 . S
H987 C996 0.929 . S
C988 H982 0.930 . S
C988 C989 1.367 . S
C988 C996 1.378 . S
C989 C988 1.367 . S
C989 C997 1.433 . S
C990 H986 0.929 . S
C990 C992 1.378 . S
C990 C994 1.350 . S
C991 C994 1.463 . S
C991 C996 1.350 . S
C991 N999 1.427 . S
C992 H983 0.930 . S
C992 C990 1.378 . S
C992 C993 1.367 . S
C993 C992 1.367 . S
C993 C995 1.433 . S
C994 C990 1.350 . S
C994 C991 1.463 . S
C994 N998 1.427 . S
C995 H985 0.929 . S
C995 C993 1.433 . S
C995 N998 1.384 . S
C996 H987 0.929 . S
C996 C988 1.378 . S
C996 C991 1.350 . S
C997 H984 0.929 . S
C997 C989 1.433 . S
C997 N999 1.384 . S
N998 C994 1.427 . S
N998 C995 1.384 . S
N999 C991 1.427 . S
N999 C997 1.384 . S
H1000 C1006 0.930 . S
H1001 C1010 0.930 . S
H1002 C1015 0.929 . S
H1003 C1013 0.929 . S
H1004 C1008 0.929 1_556 S
H1005 C1014 0.929 . S
C1006 H1000 0.930 . S
C1006 C1007 1.367 . S
C1006 C1014 1.378 . S
C1007 C1006 1.367 . S
C1007 C1015 1.433 . S
C1008 H1004 0.929 1_554 S
C1008 C1010 1.378 . S
C1008 C1012 1.350 . S
C1009 C1012 1.463 1_556 S
C1009 C1014 1.350 . S
C1009 N1017 1.427 . S
C1010 H1001 0.930 . S
C1010 C1008 1.378 . S
C1010 C1011 1.367 . S
C1011 C1010 1.367 . S
C1011 C1013 1.433 . S
C1012 C1008 1.350 . S
C1012 C1009 1.463 1_554 S
C1012 N1016 1.427 . S
C1013 H1003 0.929 . S
C1013 C1011 1.433 . S
C1013 N1016 1.384 . S
C1014 H1005 0.929 . S
C1014 C1006 1.378 . S
C1014 C1009 1.350 . S
C1015 H1002 0.929 . S
C1015 C1007 1.433 . S
C1015 N1017 1.384 . S
N1016 C1012 1.427 . S
N1016 C1013 1.384 . S
N1017 C1009 1.427 . S
N1017 C1015 1.384 . S
H1018 C1024 0.930 . S
H1019 C1028 0.930 . S
H1020 C1033 0.929 . S
H1021 C1031 0.929 . S
H1022 C1026 0.929 . S
H1023 C1032 0.929 . S
C1024 H1018 0.930 . S
C1024 C1025 1.367 . S
C1024 C1032 1.378 . S
C1025 C1024 1.367 . S
C1025 C1033 1.433 . S
C1026 H1022 0.929 . S
C1026 C1028 1.378 . S
C1026 C1030 1.350 . S
C1027 C1030 1.463 1_554 S
C1027 C1032 1.350 . S
C1027 N1035 1.427 . S
C1028 H1019 0.930 . S
C1028 C1026 1.378 . S
C1028 C1029 1.367 . S
C1029 C1028 1.367 . S
C1029 C1031 1.433 . S
C1030 C1026 1.350 . S
C1030 C1027 1.463 1_556 S
C1030 N1034 1.427 . S
C1031 H1021 0.929 . S
C1031 C1029 1.433 . S
C1031 N1034 1.384 . S
C1032 H1023 0.929 . S
C1032 C1024 1.378 . S
C1032 C1027 1.350 . S
C1033 H1020 0.929 . S
C1033 C1025 1.433 . S
C1033 N1035 1.384 . S
N1034 C1030 1.427 . S
N1034 C1031 1.384 . S
N1035 C1027 1.427 . S
N1035 C1033 1.384 . S
H1036 C1042 0.930 . S
H1037 C1046 0.930 . S
H1038 C1051 0.929 . S
H1039 C1049 0.929 . S
H1040 C1044 0.929 . S
H1041 C1050 0.929 . S
C1042 H1036 0.930 . S
C1042 C1043 1.367 . S
C1042 C1050 1.378 . S
C1043 C1042 1.367 . S
C1043 C1051 1.433 . S
C1044 H1040 0.929 . S
C1044 C1046 1.378 . S
C1044 C1048 1.350 . S
C1045 C1048 1.463 1_556 S
C1045 C1050 1.350 . S
C1045 N1053 1.427 . S
C1046 H1037 0.930 . S
C1046 C1044 1.378 . S
C1046 C1047 1.367 . S
C1047 C1046 1.367 . S
C1047 C1049 1.433 . S
C1048 C1044 1.350 . S
C1048 C1045 1.463 1_554 S
C1048 N1052 1.427 . S
C1049 H1039 0.929 . S
C1049 C1047 1.433 . S
C1049 N1052 1.384 . S
C1050 H1041 0.929 . S
C1050 C1042 1.378 . S
C1050 C1045 1.350 . S
C1051 H1038 0.929 . S
C1051 C1043 1.433 . S
C1051 N1053 1.384 . S
N1052 C1048 1.427 . S
N1052 C1049 1.384 . S
N1053 C1045 1.427 . S
N1053 C1051 1.384 . S
H1054 C1060 0.930 . S
H1055 C1064 0.930 . S
H1056 C1069 0.929 . S
H1057 C1067 0.929 . S
H1058 C1062 0.929 . S
H1059 C1068 0.929 . S
C1060 H1054 0.930 . S
C1060 C1061 1.367 . S
C1060 C1068 1.378 . S
C1061 C1060 1.367 . S
C1061 C1069 1.433 . S
C1062 H1058 0.929 . S
C1062 C1064 1.378 . S
C1062 C1066 1.350 . S
C1063 C1066 1.463 1_554 S
C1063 C1068 1.350 . S
C1063 N1071 1.427 . S
C1064 H1055 0.930 . S
C1064 C1062 1.378 . S
C1064 C1065 1.367 . S
C1065 C1064 1.367 . S
C1065 C1067 1.433 . S
C1066 C1062 1.350 . S
C1066 C1063 1.463 1_556 S
C1066 N1070 1.427 . S
C1067 H1057 0.929 . S
C1067 C1065 1.433 . S
C1067 N1070 1.384 . S
C1068 H1059 0.929 . S
C1068 C1060 1.378 . S
C1068 C1063 1.350 . S
C1069 H1056 0.929 . S
C1069 C1061 1.433 . S
C1069 N1071 1.384 . S
N1070 C1066 1.427 . S
N1070 C1067 1.384 . S
N1071 C1063 1.427 . S
N1071 C1069 1.384 . S
H1072 C1078 0.930 . S
H1073 C1082 0.930 . S
H1074 C1087 0.929 . S
H1075 C1085 0.929 . S
H1076 C1080 0.929 . S
H1077 C1086 0.929 . S
C1078 H1072 0.930 . S
C1078 C1079 1.367 . S
C1078 C1086 1.378 . S
C1079 C1078 1.367 . S
C1079 C1087 1.433 . S
C1080 H1076 0.929 . S
C1080 C1082 1.378 . S
C1080 C1084 1.350 . S
C1081 C1084 1.463 . S
C1081 C1086 1.350 . S
C1081 N1089 1.427 . S
C1082 H1073 0.930 . S
C1082 C1080 1.378 . S
C1082 C1083 1.367 . S
C1083 C1082 1.367 . S
C1083 C1085 1.433 . S
C1084 C1080 1.350 . S
C1084 C1081 1.463 . S
C1084 N1088 1.427 . S
C1085 H1075 0.929 . S
C1085 C1083 1.433 . S
C1085 N1088 1.384 . S
C1086 H1077 0.929 . S
C1086 C1078 1.378 . S
C1086 C1081 1.350 . S
C1087 H1074 0.929 . S
C1087 C1079 1.433 . S
C1087 N1089 1.384 . S
N1088 C1084 1.427 . S
N1088 C1085 1.384 . S
N1089 C1081 1.427 . S
N1089 C1087 1.384 . S
H1090 C1096 0.930 . S
H1091 C1100 0.930 . S
H1092 C1105 0.929 . S
H1093 C1103 0.929 . S
H1094 C1098 0.929 . S
H1095 C1104 0.929 . S
C1096 H1090 0.930 . S
C1096 C1097 1.367 . S
C1096 C1104 1.378 . S
C1097 C1096 1.367 . S
C1097 C1105 1.433 . S
C1098 H1094 0.929 . S
C1098 C1100 1.378 . S
C1098 C1102 1.350 . S
C1099 C1102 1.463 . S
C1099 C1104 1.350 . S
C1099 N1107 1.427 . S
C1100 H1091 0.930 . S
C1100 C1098 1.378 . S
C1100 C1101 1.367 . S
C1101 C1100 1.367 . S
C1101 C1103 1.433 . S
C1102 C1098 1.350 . S
C1102 C1099 1.463 . S
C1102 N1106 1.427 . S
C1103 H1093 0.929 . S
C1103 C1101 1.433 . S
C1103 N1106 1.384 . S
C1104 H1095 0.929 . S
C1104 C1096 1.378 . S
C1104 C1099 1.350 . S
C1105 H1092 0.929 . S
C1105 C1097 1.433 . S
C1105 N1107 1.384 . S
N1106 C1102 1.427 . S
N1106 C1103 1.384 . S
N1107 C1099 1.427 . S
N1107 C1105 1.384 . S
H1108 C1114 0.930 . S
H1109 C1118 0.930 . S
H1110 C1123 0.929 . S
H1111 C1121 0.929 . S
H1112 C1116 0.929 . S
H1113 C1122 0.929 . S
C1114 H1108 0.930 . S
C1114 C1115 1.367 . S
C1114 C1122 1.378 . S
C1115 C1114 1.367 . S
C1115 C1123 1.433 . S
C1116 H1112 0.929 . S
C1116 C1118 1.378 . S
C1116 C1120 1.350 . S
C1117 C1120 1.463 . S
C1117 C1122 1.350 . S
C1117 N1125 1.427 . S
C1118 H1109 0.930 . S
C1118 C1116 1.378 . S
C1118 C1119 1.367 . S
C1119 C1118 1.367 . S
C1119 C1121 1.433 . S
C1120 C1116 1.350 . S
C1120 C1117 1.463 . S
C1120 N1124 1.427 . S
C1121 H1111 0.929 . S
C1121 C1119 1.433 . S
C1121 N1124 1.384 . S
C1122 H1113 0.929 . S
C1122 C1114 1.378 . S
C1122 C1117 1.350 . S
C1123 H1110 0.929 . S
C1123 C1115 1.433 . S
C1123 N1125 1.384 . S
N1124 C1120 1.427 . S
N1124 C1121 1.384 . S
N1125 C1117 1.427 . S
N1125 C1123 1.384 . S
H1126 C1132 0.930 . S
H1127 C1136 0.930 . S
H1128 C1141 0.929 . S
H1129 C1139 0.929 . S
H1130 C1134 0.929 . S
H1131 C1140 0.929 . S
C1132 H1126 0.930 . S
C1132 C1133 1.367 . S
C1132 C1140 1.378 . S
C1133 C1132 1.367 . S
C1133 C1141 1.433 . S
C1134 H1130 0.929 . S
C1134 C1136 1.378 . S
C1134 C1138 1.350 . S
C1135 C1138 1.463 . S
C1135 C1140 1.350 . S
C1135 N1143 1.427 . S
C1136 H1127 0.930 . S
C1136 C1134 1.378 . S
C1136 C1137 1.367 . S
C1137 C1136 1.367 . S
C1137 C1139 1.433 . S
C1138 C1134 1.350 . S
C1138 C1135 1.463 . S
C1138 N1142 1.427 . S
C1139 H1129 0.929 . S
C1139 C1137 1.433 . S
C1139 N1142 1.384 . S
C1140 H1131 0.929 . S
C1140 C1132 1.378 . S
C1140 C1135 1.350 . S
C1141 H1128 0.929 . S
C1141 C1133 1.433 . S
C1141 N1143 1.384 . S
N1142 C1138 1.427 . S
N1142 C1139 1.384 . S
N1143 C1135 1.427 . S
N1143 C1141 1.384 . S
H1144 C1150 0.930 . S
H1145 C1154 0.930 . S
H1146 C1159 0.929 . S
H1147 C1157 0.929 . S
H1148 C1152 0.929 . S
H1149 C1158 0.929 . S
C1150 H1144 0.930 . S
C1150 C1151 1.367 . S
C1150 C1158 1.378 . S
C1151 C1150 1.367 . S
C1151 C1159 1.433 . S
C1152 H1148 0.929 . S
C1152 C1154 1.378 . S
C1152 C1156 1.350 . S
C1153 C1156 1.463 1_556 S
C1153 C1158 1.350 . S
C1153 N1161 1.427 . S
C1154 H1145 0.930 . S
C1154 C1152 1.378 . S
C1154 C1155 1.367 . S
C1155 C1154 1.367 . S
C1155 C1157 1.433 . S
C1156 C1152 1.350 . S
C1156 C1153 1.463 1_554 S
C1156 N1160 1.427 . S
C1157 H1147 0.929 . S
C1157 C1155 1.433 . S
C1157 N1160 1.384 . S
C1158 H1149 0.929 . S
C1158 C1150 1.378 . S
C1158 C1153 1.350 . S
C1159 H1146 0.929 . S
C1159 C1151 1.433 . S
C1159 N1161 1.384 . S
N1160 C1156 1.427 . S
N1160 C1157 1.384 . S
N1161 C1153 1.427 . S
N1161 C1159 1.384 . S
H1162 C1168 0.930 . S
H1163 C1172 0.930 . S
H1164 C1177 0.929 . S
H1165 C1175 0.929 . S
H1166 C1170 0.929 . S
H1167 C1176 0.929 . S
C1168 H1162 0.930 . S
C1168 C1169 1.367 . S
C1168 C1176 1.378 . S
C1169 C1168 1.367 . S
C1169 C1177 1.433 . S
C1170 H1166 0.929 . S
C1170 C1172 1.378 . S
C1170 C1174 1.350 . S
C1171 C1174 1.463 1_556 S
C1171 C1176 1.350 . S
C1171 N1179 1.427 . S
C1172 H1163 0.930 . S
C1172 C1170 1.378 . S
C1172 C1173 1.367 . S
C1173 C1172 1.367 . S
C1173 C1175 1.433 . S
C1174 C1170 1.350 . S
C1174 C1171 1.463 1_554 S
C1174 N1178 1.427 . S
C1175 H1165 0.929 . S
C1175 C1173 1.433 . S
C1175 N1178 1.384 . S
C1176 H1167 0.929 . S
C1176 C1168 1.378 . S
C1176 C1171 1.350 . S
C1177 H1164 0.929 . S
C1177 C1169 1.433 . S
C1177 N1179 1.384 . S
N1178 C1174 1.427 . S
N1178 C1175 1.384 . S
N1179 C1171 1.427 . S
N1179 C1177 1.384 . S
H1180 C1186 0.930 . S
H1181 C1190 0.930 . S
H1182 C1195 0.929 . S
H1183 C1193 0.929 . S
H1184 C1188 0.929 . S
H1185 C1194 0.929 . S
C1186 H1180 0.930 . S
C1186 C1187 1.367 . S
C1186 C1194 1.378 . S
C1187 C1186 1.367 . S
C1187 C1195 1.433 . S
C1188 H1184 0.929 . S
C1188 C1190 1.378 . S
C1188 C1192 1.350 . S
C1189 C1192 1.463 1_554 S
C1189 C1194 1.350 . S
C1189 N1197 1.427 . S
C1190 H1181 0.930 . S
C1190 C1188 1.378 . S
C1190 C1191 1.367 . S
C1191 C1190 1.367 . S
C1191 C1193 1.433 . S
C1192 C1188 1.350 . S
C1192 C1189 1.463 1_556 S
C1192 N1196 1.427 . S
C1193 H1183 0.929 . S
C1193 C1191 1.433 . S
C1193 N1196 1.384 . S
C1194 H1185 0.929 . S
C1194 C1186 1.378 . S
C1194 C1189 1.350 . S
C1195 H1182 0.929 . S
C1195 C1187 1.433 . S
C1195 N1197 1.384 . S
N1196 C1192 1.427 . S
N1196 C1193 1.384 . S
N1197 C1189 1.427 . S
N1197 C1195 1.384 . S
H1198 C1204 0.930 . S
H1199 C1208 0.930 . S
H1200 C1213 0.929 . S
H1201 C1211 0.929 . S
H1202 C1206 0.929 . S
H1203 C1212 0.929 . S
C1204 H1198 0.930 . S
C1204 C1205 1.367 . S
C1204 C1212 1.378 . S
C1205 C1204 1.367 . S
C1205 C1213 1.433 . S
C1206 H1202 0.929 . S
C1206 C1208 1.378 . S
C1206 C1210 1.350 . S
C1207 C1210 1.463 1_554 S
C1207 C1212 1.350 . S
C1207 N1215 1.427 . S
C1208 H1199 0.930 . S
C1208 C1206 1.378 . S
C1208 C1209 1.367 . S
C1209 C1208 1.367 . S
C1209 C1211 1.433 . S
C1210 C1206 1.350 . S
C1210 C1207 1.463 1_556 S
C1210 N1214 1.427 . S
C1211 H1201 0.929 . S
C1211 C1209 1.433 . S
C1211 N1214 1.384 . S
C1212 H1203 0.929 . S
C1212 C1204 1.378 . S
C1212 C1207 1.350 . S
C1213 H1200 0.929 . S
C1213 C1205 1.433 . S
C1213 N1215 1.384 . S
N1214 C1210 1.427 . S
N1214 C1211 1.384 . S
N1215 C1207 1.427 . S
N1215 C1213 1.384 . S
C359 C8 2.223 . S
C363 C120 2.221 . S
C377 C140 2.219 . S
C381 C32 2.220 . S
C395 C62 2.223 . S
C399 C162 2.222 . S
C413 C76 2.221 . S
C417 C98 2.220 . S
C431 C304 2.227 . S
C435 C184 2.229 . S
C449 C318 2.219 . S
C453 C206 2.219 . S
C467 C228 2.219 . S
C471 C348 2.219 . S
C485 C252 2.222 . S
C489 C272 2.223 . S
C503 C18 1.555 . S
C507 C84 1.521 1_545 S
C521 C30 1.552 . S
C525 C10 1.517 . S
C539 C54 1.554 1_455 S
C543 C40 1.519 . S
C557 C74 1.555 1_545 S
C561 C52 1.526 1_455 S
C575 C96 1.552 1_655 S
C579 C128 1.516 1_565 S
C593 C142 1.528 . S
C597 C118 1.554 1_565 S
C611 C150 1.555 . S
C615 C164 1.521 . S
C629 C106 1.527 1_655 S
C633 C172 1.553 . S
C647 C260 1.518 1_565 S
C651 C194 1.551 . S
C665 C216 1.553 . S
C669 C186 1.528 . S
C683 C238 1.555 1_655 S
C687 C208 1.522 . S
C701 C250 1.551 1_565 S
C705 C230 1.522 1_655 S
C719 C282 1.553 1_455 S
C723 C294 1.528 1_545 S
C737 C296 1.554 1_545 S
C741 C326 1.528 . S
C755 C316 1.554 . S
C759 C338 1.519 . S
C773 C340 1.552 . S
C777 C274 1.517 1_455 S
C791 C21 0.239 . S
C795 C51 0.245 . S
C809 C37 0.284 . S
C813 C81 0.279 . S
C827 C153 0.237 . S
C831 C103 0.242 . S
C845 C175 0.247 . S
C849 C125 0.255 . S
C863 C241 0.244 . S
C867 C197 0.238 . S
C881 C257 0.263 . S
C885 C219 0.255 . S
C899 C285 0.242 . S
C903 C323 0.237 . S
C917 C293 0.246 . S
C921 C337 0.239 . S
C935 C7 1.163 . S
C939 C249 1.158 . S
C953 C191 1.153 . S
C957 C43 1.161 . S
C971 C59 1.162 . S
C975 C213 1.153 . S
C989 C235 1.153 . S
C993 C87 1.163 . S
C1007 C307 1.154 . S
C1011 C109 1.160 . S
C1025 C131 1.159 . S
C1029 C315 1.160 . S
C1043 C351 1.159 . S
C1047 C139 1.163 . S
C1061 C161 1.159 . S
C1065 C279 1.159 . S
C1079 C183 1.159 . S
C1083 C73 1.158 . S
C1097 C205 1.161 . S
C1101 C15 1.161 . S
C1115 C29 1.155 . S
C1119 C227 1.164 . S
C1133 C263 1.163 . S
C1137 C65 1.154 . S
C1151 C271 1.159 . S
C1155 C117 1.157 . S
C1169 C301 1.160 . S
C1173 C147 1.161 . S
C1187 C169 1.160 . S
C1191 C329 1.160 . S
C1205 C95 1.160 . S
C1209 C345 1.160 . S
