# Generated by pormake.
# Topology qtz-x, (6)-cn, num edge types: 1
# Building blocks:
#     Node 0, Type 0, BuildingBlock: VOLQOD_clean_sbu_1, # of connection points: 6
#     Node 1, Type 0, BuildingBlock: VOLQOD_clean_sbu_1, # of connection points: 6
#     Node 2, Type 0, BuildingBlock: VOLQOD_clean_sbu_1, # of connection points: 6
#     Edge 3, Type (0, 0), BuildingBlock: MIFKUJ_clean_linker_0, # of connection points: 2
#     Edge 4, Type (0, 0), BuildingBlock: MIFKUJ_clean_linker_0, # of connection points: 2
#     Edge 5, Type (0, 0), BuildingBlock: MIFKUJ_clean_linker_0, # of connection points: 2
#     Edge 6, Type (0, 0), BuildingBlock: MIFKUJ_clean_linker_0, # of connection points: 2
#     Edge 7, Type (0, 0), BuildingBlock: MIFKUJ_clean_linker_0, # of connection points: 2
#     Edge 8, Type (0, 0), BuildingBlock: MIFKUJ_clean_linker_0, # of connection points: 2
#     Edge 9, Type (0, 0), BuildingBlock: MIFKUJ_clean_linker_0, # of connection points: 2
#     Edge 10, Type (0, 0), BuildingBlock: MIFKUJ_clean_linker_0, # of connection points: 2
#     Edge 11, Type (0, 0), BuildingBlock: MIFKUJ_clean_linker_0, # of connection points: 2
# Relax obj value: 0.240
# Max RMSD: 0.198
# Mean RMSD: 0.198
data_MOF--net-qtz-x--node1-VOLQOD_clean_sbu_1--edge1-MIFKUJ_clean_linker_0
_symmetry_space_group_name_H-M    P1
_symmetry_Int_Tables_number       1
_symmetry_cell_setting            triclinic
loop_
_symmetry_equiv_pos_as_xyz
'x, y, z'
_cell_length_a     21.963893
_cell_length_b     21.962151
_cell_length_c     48.58872
_cell_angle_alpha  90.42539
_cell_angle_beta   90.152403
_cell_angle_gamma 120.04289
loop_
_atom_site_label
_atom_site_type_symbol
_atom_site_fract_x
_atom_site_fract_y
_atom_site_fract_z
_atom_type_partial_charge
O0 O 0.08519 0.76375 0.14611 0.0
Zn1 Zn 0.10712 0.68565 0.13978 0.0
O2 O 0.03399 0.5959 0.15516 0.0
Zn3 Zn 0.99611 0.52217 0.1272 0.0
Zn4 Zn 0.95841 0.60944 0.17017 0.0
Zn5 Zn 0.07445 0.56402 0.18327 0.0
O6 O 1.00726 0.4384 0.13571 0.0
O7 O 0.05898 0.46613 0.1766 0.0
O8 O 0.11392 0.67601 0.09871 0.0
O9 O 0.04077 0.56199 0.09114 0.0
O10 O 0.89406 0.48635 0.12163 0.0
O11 O 0.86646 0.5496 0.14938 0.0
O12 O 0.9468 0.5871 0.21082 0.0
O13 O 0.20206 0.71681 0.15742 0.0
O14 O 0.03265 0.5641 0.2197 0.0
O15 O 0.17797 0.62883 0.18588 0.0
C16 C 0.03323 0.76566 0.15675 0.0
C17 C 0.03231 0.42319 0.15648 0.0
C18 C 0.84963 0.5021 0.13094 0.0
C19 C 0.0845 0.62307 0.08246 0.0
C20 C 0.98216 0.57252 0.22771 0.0
C21 C 0.22148 0.68704 0.17498 0.0
O22 O 0.98129 0.71047 0.16653 0.0
O23 O 0.70926 0.95752 0.47796 0.0
Zn24 Zn 0.60841 0.93517 0.47302 0.0
O25 O 0.5956 0.01266 0.48667 0.0
Zn26 Zn 0.55811 0.04536 0.45767 0.0
Zn27 Zn 0.68677 0.08999 0.49984 0.0
Zn28 Zn 0.52697 0.98036 0.51613 0.0
O29 O 0.46113 0.03044 0.4655 0.0
O30 O 0.44367 0.99364 0.50856 0.0
O31 O 0.58697 0.91945 0.43226 0.0
O32 O 0.55489 0.99786 0.422 0.0
O33 O 0.62163 0.14785 0.45189 0.0
O34 O 0.71425 0.18003 0.4792 0.0
O35 O 0.68312 0.10728 0.54051 0.0
O36 O 0.54548 0.84481 0.49339 0.0
O37 O 0.57292 0.0297 0.55143 0.0
O38 O 0.48879 0.87802 0.52212 0.0
C39 C 0.76521 0.0118 0.48646 0.0
C40 C 0.42356 0.01171 0.48708 0.0
C41 C 0.68149 0.19449 0.46105 0.0
C42 C 0.56756 0.94948 0.4148 0.0
C43 C 0.6344 0.07828 0.55824 0.0
C44 C 0.50022 0.83089 0.51224 0.0
O45 O 0.76414 0.06634 0.4949 0.0
O46 O 0.58265 0.54092 0.81971 0.0
Zn47 Zn 0.50773 0.44018 0.82668 0.0
O48 O 0.41328 0.42198 0.81759 0.0
Zn49 Zn 0.37344 0.35235 0.78785 0.0
Zn50 Zn 0.42196 0.51194 0.80657 0.0
Zn51 Zn 0.35071 0.38327 0.84919 0.0
O52 O 0.28062 0.26676 0.79779 0.0
O53 O 0.26656 0.28651 0.84151 0.0
O54 O 0.53366 0.37837 0.80474 0.0
O55 O 0.4403 0.31908 0.77761 0.0
O56 O 0.3598 0.39594 0.75391 0.0
O57 O 0.39591 0.50644 0.76652 0.0
O58 O 0.35792 0.53401 0.82883 0.0
O59 O 0.51297 0.42415 0.86686 0.0
O60 O 0.31064 0.44517 0.85817 0.0
O61 O 0.40428 0.38088 0.88283 0.0
C62 C 0.5803 0.59662 0.81495 0.0
C63 C 0.24528 0.24781 0.81995 0.0
C64 C 0.37193 0.45759 0.74835 0.0
C65 C 0.50125 0.33329 0.78569 0.0
C66 C 0.31686 0.50191 0.84871 0.0
C67 C 0.46911 0.40069 0.88654 0.0
O68 O 0.52183 0.59439 0.81099 0.0
H69 H 0.92388 0.78654 0.1701 0.0
H70 H 0.9222 0.8969 0.16995 0.0
H71 H 0.14001 1.00822 0.1457 0.0
H72 H 0.14155 0.89775 0.14504 0.0
H73 H 0.98795 0.0132 0.1982 0.0
H74 H 0.17311 0.14806 0.1062 0.0
H75 H 0.20873 0.11539 0.06297 0.0
H76 H 1.01175 0.92126 0.05949 0.0
H77 H 0.97459 0.9532 0.10248 0.0
H78 H 0.08918 0.37585 0.19543 0.0
H79 H 0.08701 0.26351 0.19603 0.0
H80 H 0.96759 0.2019 0.12019 0.0
H81 H 0.97089 0.31462 0.1191 0.0
H82 H 0.0659 0.16965 0.11713 0.0
H83 H 0.88982 0.13069 0.18421 0.0
H84 H 0.83935 0.15229 0.22595 0.0
H85 H 0.9959 0.1427 0.27585 0.0
H86 H 0.04734 0.12112 0.23441 0.0
C87 C 0.97148 0.83446 0.16471 0.0
C88 C 0.03274 0.83307 0.15742 0.0
C89 C 0.97048 0.89765 0.1647 0.0
C90 C 0.03069 0.96095 0.15749 0.0
C91 C 0.0924 0.95997 0.15079 0.0
C92 C 0.09328 0.89669 0.15053 0.0
C93 C 0.02872 0.02779 0.15703 0.0
C94 C 1.0051 0.04743 0.18047 0.0
C95 C 0.04999 0.07214 0.13377 0.0
C96 C 0.07144 0.05275 0.10772 0.0
C97 C 0.13732 0.09852 0.09615 0.0
C98 C 0.15778 0.08012 0.0717 0.0
C99 C 0.11263 0.01618 0.05854 0.0
C100 C 0.04679 0.97064 0.06976 0.0
C101 C 0.02603 0.98884 0.09418 0.0
C102 C 0.06229 0.33838 0.17889 0.0
C103 C 0.03023 0.35448 0.1572 0.0
C104 C 0.06074 0.27387 0.17935 0.0
C105 C 0.02645 0.22367 0.15831 0.0
C106 C 0.99443 0.23965 0.13666 0.0
C107 C 0.99627 0.30422 0.1361 0.0
C108 C 0.02548 0.15532 0.15839 0.0
C109 C 0.04885 0.13552 0.13489 0.0
C110 C 1.00245 0.11004 0.18136 0.0
C111 C 0.97282 0.12498 0.20619 0.0
C112 C 0.91386 0.13386 0.20406 0.0
C113 C 0.88495 0.14586 0.22767 0.0
C114 C 0.91458 0.14907 0.25351 0.0
C115 C 0.9731 0.14026 0.25581 0.0
C116 C 1.00203 0.12799 0.23229 0.0
H117 H 0.89214 0.15815 0.27178 0.0
H118 H 0.1286 1.002 0.03963 0.0
H119 H 0.35608 0.03225 0.44362 0.0
H120 H 0.24438 0.03126 0.44396 0.0
H121 H 0.22543 0.99002 0.53109 0.0
H122 H 0.33624 0.98913 0.5308 0.0
H123 H 0.10315 0.91202 0.50757 0.0
H124 H 0.27745 0.15635 0.50509 0.0
H125 H 0.38104 0.26274 0.48751 0.0
H126 H 0.27546 0.23727 0.41016 0.0
H127 H 0.17153 0.13016 0.42717 0.0
H128 H 0.89296 0.11338 0.50683 0.0
H129 H 1.00348 0.11215 0.50777 0.0
H130 H 0.90224 0.90952 0.46701 0.0
H131 H 0.791 0.90959 0.46651 0.0
H132 H 0.08571 0.1116 0.46933 0.0
H133 H 0.97875 0.81409 0.48814 0.0
H134 H 0.87913 0.71416 0.51107 0.0
H135 H 0.85498 0.85694 0.56459 0.0
H136 H 0.95542 0.95765 0.54245 0.0
C137 C 0.32825 0.02298 0.46289 0.0
C138 C 0.3555 0.01106 0.48721 0.0
C139 C 0.26438 0.0227 0.46306 0.0
C140 C 0.22671 0.0115 0.48763 0.0
C141 C 0.25338 0.99879 0.51187 0.0
C142 C 0.31699 0.99853 0.51168 0.0
C143 C 0.15961 0.01306 0.48808 0.0
C144 C 0.09935 0.95562 0.49914 0.0
C145 C 0.15463 0.07045 0.47759 0.0
C146 C 0.21699 0.13487 0.46731 0.0
C147 C 0.27653 0.17315 0.48426 0.0
C148 C 0.33527 0.23362 0.47441 0.0
C149 C 0.33491 0.25664 0.44771 0.0
C150 C 0.27571 0.21932 0.43083 0.0
C151 C 0.21685 0.15877 0.44057 0.0
C152 C 0.894 0.06841 0.49809 0.0
C153 C 0.83278 0.01144 0.48669 0.0
C154 C 0.95744 0.0679 0.49858 0.0
C155 C 0.96128 0.01047 0.48771 0.0
C156 C 0.9005 0.95392 0.47597 0.0
C157 C 0.83688 0.9542 0.4756 0.0
C158 C 0.02901 0.0102 0.48853 0.0
C159 C 0.08938 0.06784 0.47765 0.0
C160 C 0.03443 0.95375 0.49982 0.0
C161 C 0.9741 0.89347 0.51337 0.0
C162 C 0.95231 0.82417 0.50485 0.0
C163 C 0.89569 0.76738 0.5177 0.0
C164 C 0.86047 0.77921 0.53914 0.0
C165 C 0.88207 0.84786 0.54789 0.0
C166 C 0.93885 0.90482 0.53519 0.0
H167 H 0.8166 0.73517 0.54904 0.0
H168 H 0.38043 0.30348 0.44013 0.0
H169 H 0.60206 0.72647 0.82994 0.0
H170 H 0.71364 0.83776 0.83142 0.0
H171 H 0.82003 0.73293 0.79862 0.0
H172 H 0.70941 0.62102 0.79899 0.0
H173 H 0.89819 0.81398 0.83494 0.0
H174 H 0.77746 0.85209 0.76033 0.0
H175 H 0.68094 0.85888 0.73718 0.0
H176 H 0.70271 0.01761 0.79494 0.0
H177 H 0.79878 0.0112 0.81864 0.0
H178 H 0.2034 0.13156 0.78712 0.0
H179 H 0.08974 0.02174 0.78717 0.0
H180 H 0.01842 0.10321 0.85278 0.0
H181 H 0.13268 0.21241 0.85348 0.0
H182 H 0.9245 0.03788 0.8005 0.0
H183 H 0.04864 0.99611 0.87401 0.0
H184 H 0.14906 0.99026 0.89381 0.0
H185 H 0.12394 0.83755 0.83242 0.0
H186 H 0.02399 0.84336 0.81199 0.0
C187 C 0.64929 0.72741 0.82292 0.0
C188 C 0.64698 0.66505 0.81432 0.0
C189 C 0.71319 0.79127 0.82357 0.0
C190 C 0.77581 0.79471 0.81466 0.0
C191 C 0.77299 0.73226 0.80571 0.0
C192 C 0.70957 0.66817 0.80582 0.0
C193 C 0.84463 0.86239 0.81552 0.0
C194 C 0.90363 0.86247 0.82698 0.0
C195 C 0.8526 0.92673 0.80569 0.0
C196 C 0.7948 0.93059 0.79144 0.0
C197 C 0.76132 0.88808 0.76821 0.0
C198 C 0.70676 0.89194 0.75497 0.0
C199 C 0.68555 0.93846 0.76466 0.0
C200 C 0.7191 0.98149 0.7875 0.0
C201 C 0.77363 0.97781 0.80083 0.0
C202 C 0.16365 0.126 0.80164 0.0
C203 C 0.17715 0.18064 0.82036 0.0
C204 C 0.09881 0.06326 0.80164 0.0
C205 C 0.04576 0.05452 0.81994 0.0
C206 C 0.05873 0.10905 0.83849 0.0
C207 C 0.12413 0.17119 0.83895 0.0
C208 C 0.97671 0.98837 0.81961 0.0
C209 C 0.91819 0.98889 0.8083 0.0
C210 C 0.96938 0.92437 0.82902 0.0
C211 C 0.02941 0.92083 0.84128 0.0
C212 C 0.06503 0.96188 0.86455 0.0
C213 C 0.12174 0.95843 0.87593 0.0
C214 C 0.14301 0.91373 0.86433 0.0
C215 C 0.10749 0.87225 0.84136 0.0
C216 C 0.05078 0.87557 0.82988 0.0
H217 H 0.1869 0.91109 0.87318 0.0
H218 H 0.64315 0.94124 0.75451 0.0
H219 H 0.34069 0.63699 0.84551 0.0
H220 H 0.28685 0.68982 0.87401 0.0
H221 H 0.15209 0.48809 0.91092 0.0
H222 H 0.20463 0.43521 0.88259 0.0
H223 H 0.08495 0.56484 0.90549 0.0
H224 H 0.31547 0.6004 0.93874 0.0
H225 H 0.44319 0.64886 0.93308 0.0
H226 H 0.47167 0.8554 0.92204 0.0
H227 H 0.34393 0.80782 0.92743 0.0
H228 H 0.04614 0.51991 0.04391 0.0
H229 H 0.07117 0.53254 -0.00492 0.0
H230 H 0.1821 0.75859 0.00422 0.0
H231 H 0.15744 0.74624 0.05373 0.0
H232 H 0.2579 0.71675 0.97674 0.0
H233 H 0.02813 0.67584 0.96622 0.0
H234 H 0.90091 0.62196 0.97458 0.0
H235 H 0.86744 0.42363 0.94398 0.0
H236 H 0.99453 0.47571 0.9359 0.0
C237 C 0.2984 0.60368 0.85924 0.0
C238 C 0.27782 0.53225 0.86225 0.0
C239 C 0.26767 0.63391 0.87544 0.0
C240 C 0.216 0.59296 0.89473 0.0
C241 C 0.19173 0.52063 0.8961 0.0
C242 C 0.22244 0.4906 0.8801 0.0
C243 C 0.1945 0.62531 0.91662 0.0
C244 C 0.12247 0.59894 0.92097 0.0
C245 C 0.24386 0.67205 0.93621 0.0
C246 C 0.3204 0.70056 0.93315 0.0
C247 C 0.34906 0.65607 0.93498 0.0
C248 C 0.42136 0.68336 0.93183 0.0
C249 C 0.46549 0.75514 0.92711 0.0
C250 C 0.43741 0.7998 0.92562 0.0
C251 C 0.3651 0.77273 0.92872 0.0
C252 C 0.07505 0.57244 0.03559 0.0
C253 C 0.09974 0.63205 0.05272 0.0
C254 C 0.08872 0.57962 0.00753 0.0
C255 C 0.12699 0.64656 -0.00416 0.0
C256 C 0.15162 0.70646 0.01279 0.0
C257 C 0.13792 0.69929 0.04105 0.0
C258 C 0.14781 0.65215 0.96662 0.0
C259 C 0.21989 0.6858 0.96082 0.0
C260 C 0.09824 0.61189 0.94582 0.0
C261 C 0.02121 0.58 0.95031 0.0
C262 C 0.99376 0.62067 0.96132 0.0
C263 C 0.92159 0.59042 0.96601 0.0
C264 C 0.87609 0.51955 0.95965 0.0
C265 C 0.90271 0.47868 0.94869 0.0
C266 C 0.97485 0.50859 0.94402 0.0
H267 H 0.82026 0.49619 0.96336 0.0
H268 H 0.52146 0.77618 0.92467 0.0
H269 H 0.82116 0.29627 0.46294 0.0
H270 H 0.88098 0.39366 0.43064 0.0
H271 H 0.68107 0.3444 0.39538 0.0
H272 H 0.62079 0.24824 0.42761 0.0
H273 H 0.80577 0.32375 0.36539 0.0
H274 H 0.72783 0.47484 0.40885 0.0
H275 H 0.72124 0.54477 0.44744 0.0
H276 H 0.94656 0.67036 0.44968 0.0
H277 H 0.95446 0.60024 0.41133 0.0
H278 H 0.87393 0.57892 0.25315 0.0
H279 H 0.83329 0.54458 0.30043 0.0
H280 H 1.00568 0.50804 0.31591 0.0
H281 H 0.04645 0.54157 0.26896 0.0
H282 H 0.89809 0.58067 0.35786 0.0
H283 H 0.92783 0.3421 0.33693 0.0
H284 H 0.93674 0.27616 0.29726 0.0
H285 H 0.80157 0.32456 0.24971 0.0
H286 H 0.79162 0.39039 0.28917 0.0
C287 C 0.78976 0.30798 0.44908 0.0
C288 C 0.71637 0.26368 0.44744 0.0
C289 C 0.82402 0.36379 0.43075 0.0
C290 C 0.78519 0.37614 0.41086 0.0
C291 C 0.71168 0.33614 0.41089 0.0
C292 C 0.67746 0.28077 0.42919 0.0
C293 C 0.82034 0.41714 0.38623 0.0
C294 C 0.82623 0.37999 0.36382 0.0
C295 C 0.8464 0.4902 0.38428 0.0
C296 C 0.84174 0.53156 0.40755 0.0
C297 C 0.77599 0.51659 0.41785 0.0
C298 C 0.77201 0.55648 0.43959 0.0
C299 C 0.83345 0.61178 0.45107 0.0
C300 C 0.89902 0.62737 0.44081 0.0
C301 C 0.90327 0.58759 0.41907 0.0
C302 C 0.90401 0.56495 0.26678 0.0
C303 C 0.96268 0.56173 0.25712 0.0
C304 C 0.88112 0.54611 0.29384 0.0
C305 C 0.9165 0.52372 0.31147 0.0
C306 C 0.97787 0.52535 0.30252 0.0
C307 C 1.00072 0.54406 0.27559 0.0
C308 C 0.88302 0.48696 0.33714 0.0
C309 C 0.87781 0.52456 0.35962 0.0
C310 C 0.85667 0.41385 0.33924 0.0
C311 C 0.85954 0.37159 0.31587 0.0
C312 C 0.8997 0.33824 0.31805 0.0
C313 C 0.90508 0.30107 0.29559 0.0
C314 C 0.87004 0.29652 0.27093 0.0
C315 C 0.82899 0.32848 0.26877 0.0
C316 C 0.82355 0.36579 0.29115 0.0
H317 H 0.87451 0.26806 0.25353 0.0
H318 H 0.83019 0.64272 0.46783 0.0
H319 H 0.32024 0.3677 0.70388 0.0
H320 H 0.32426 0.39977 0.65545 0.0
H321 H 0.41104 0.61726 0.67934 0.0
H322 H 0.40721 0.58621 0.72759 0.0
H323 H 0.27137 0.47828 0.62457 0.0
H324 H 0.5572 0.70822 0.63973 0.0
H325 H 0.65891 0.73788 0.66995 0.0
H326 H 0.58568 0.51831 0.6814 0.0
H327 H 0.48508 0.4873 0.65048 0.0
H328 H 0.38464 0.77612 0.54482 0.0
H329 H 0.34359 0.67573 0.57498 0.0
H330 H 0.49416 0.62628 0.53986 0.0
H331 H 0.53686 0.72842 0.50975 0.0
H332 H 0.51305 0.64521 0.59286 0.0
H333 H 0.31461 0.50476 0.53707 0.0
H334 H 0.2113 0.47465 0.50779 0.0
H335 H 0.10874 0.51032 0.57597 0.0
H336 H 0.21175 0.54166 0.60559 0.0
C337 C 0.3391 0.42222 0.69887 0.0
C338 C 0.36428 0.47457 0.7196 0.0
C339 C 0.34106 0.44026 0.67121 0.0
C340 C 0.36882 0.51084 0.66395 0.0
C341 C 0.39008 0.56252 0.68464 0.0
C342 C 0.38779 0.54461 0.71221 0.0
C343 C 0.38154 0.53239 0.63487 0.0
C344 C 0.32405 0.5142 0.61735 0.0
C345 C 0.45062 0.57716 0.6254 0.0
C346 C 0.51323 0.59544 0.64289 0.0
C347 C 0.56328 0.66624 0.64839 0.0
C348 C 0.62082 0.6833 0.66564 0.0
C349 C 0.62889 0.63001 0.67754 0.0
C350 C 0.57966 0.55955 0.67207 0.0
C351 C 0.52238 0.54221 0.65466 0.0
C352 C 0.40793 0.74294 0.54295 0.0
C353 C 0.46496 0.761 0.52528 0.0
C354 C 0.38374 0.68485 0.56004 0.0
C355 C 0.41565 0.64324 0.55969 0.0
C356 C 0.46873 0.65767 0.54043 0.0
C357 C 0.49303 0.71599 0.52322 0.0
C358 C 0.40252 0.59445 0.58274 0.0
C359 C 0.46021 0.60761 0.59942 0.0
C360 C 0.33363 0.54476 0.59125 0.0
C361 C 0.27116 0.52568 0.57357 0.0
C362 C 0.27022 0.50659 0.5458 0.0
C363 C 0.21165 0.48924 0.52914 0.0
C364 C 0.1535 0.49058 0.54001 0.0
C365 C 0.15377 0.50919 0.56759 0.0
C366 C 0.21221 0.52659 0.58434 0.0
H367 H 0.10822 0.47716 0.52708 0.0
H368 H 0.67323 0.64329 0.69101 0.0
H369 H 0.39649 0.32006 0.93081 0.0
H370 H 0.44339 0.32299 0.97701 0.0
H371 H 0.64759 0.48897 0.95161 0.0
H372 H 0.60218 0.48366 0.90549 0.0
H373 H 0.66622 0.40355 0.97869 0.0
H374 H 0.52786 0.51494 -0.00661 0.0
H375 H 0.42007 0.52347 -0.00733 0.0
H376 H 0.31821 0.34517 0.04592 0.0
H377 H 0.42518 0.33508 0.04667 0.0
H378 H 0.77307 0.56606 0.12023 0.0
H379 H 0.68573 0.53245 0.08328 0.0
H380 H 0.68649 0.33802 0.07125 0.0
H381 H 0.77517 0.37228 0.10753 0.0
H382 H 0.55855 0.42946 0.06441 0.0
H383 H 0.71086 0.32152 0.00314 0.0
H384 H 0.82854 0.33315 0.00184 0.0
H385 H 0.91874 0.53839 0.03907 0.0
H386 H 0.80181 0.52844 0.04019 0.0
C387 C 0.4514 0.3569 0.93518 0.0
C388 C 0.4958 0.40125 0.91452 0.0
C389 C 0.47805 0.3589 0.96161 0.0
C390 C 0.54899 0.40665 0.96794 0.0
C391 C 0.59287 0.45125 0.94727 0.0
C392 C 0.56679 0.44818 0.92085 0.0
C393 C 0.57902 0.40999 -0.00428 0.0
C394 C 0.6422 0.40876 -0.00261 0.0
C395 C 0.54844 0.41768 0.02021 0.0
C396 C 0.48422 0.42379 0.01984 0.0
C397 C 0.48229 0.47726 0.00478 0.0
C398 C 0.42139 0.48243 0.00439 0.0
C399 C 0.36226 0.43477 0.01917 0.0
C400 C 0.364 0.38197 0.03444 0.0
C401 C 0.42476 0.37653 0.03487 0.0
C402 C 0.75247 0.51492 0.11045 0.0
C403 C 0.78162 0.47226 0.11634 0.0
C404 C 0.70266 0.49581 0.0893 0.0
C405 C 0.6812 0.43365 0.07406 0.0
C406 C 0.70352 0.38689 0.0824 0.0
C407 C 0.75397 0.4064 0.10318 0.0
C408 C 0.64553 0.42343 0.04709 0.0
C409 C 0.58162 0.42323 0.04564 0.0
C410 C 0.67674 0.41722 0.02254 0.0
C411 C 0.74735 0.42366 0.02216 0.0
C412 C 0.7558 0.36907 0.01108 0.0
C413 C 0.82235 0.37538 0.01037 0.0
C414 C 0.88096 0.43622 0.02055 0.0
C415 C 0.87321 0.49105 0.03139 0.0
C416 C 0.80678 0.48507 0.03208 0.0
H417 H 0.93238 0.441 0.01981 0.0
H418 H 0.31516 0.43886 0.01885 0.0
H419 H 0.30101 0.6299 0.18995 0.0
H420 H 0.40024 0.68242 0.22218 0.0
H421 H 0.39944 0.87836 0.21962 0.0
H422 H 0.30221 0.82685 0.1864 0.0
H423 H 0.52976 0.9005 0.23402 0.0
H424 H 0.28812 0.75268 0.26151 0.0
H425 H 0.17224 0.64428 0.26033 0.0
H426 H 0.26708 0.52451 0.2869 0.0
H427 H 0.38387 0.63227 0.28775 0.0
H428 H 0.54499 0.01381 0.37133 0.0
H429 H 0.52273 0.97447 0.32352 0.0
H430 H 0.54975 0.79839 0.34359 0.0
H431 H 0.57177 0.8372 0.39179 0.0
H432 H 0.42568 0.7596 0.31811 0.0
H433 H 0.66732 0.92673 0.30147 0.0
H434 H 0.77525 0.04286 0.30442 0.0
H435 H 0.67302 0.13548 0.26013 0.0
H436 H 0.56416 0.02013 0.25715 0.0
C437 C 0.32424 0.68512 0.19531 0.0
C438 C 0.29344 0.72412 0.18622 0.0
C439 C 0.38086 0.71507 0.2137 0.0
C440 C 0.40555 0.78348 0.22391 0.0
C441 C 0.38081 0.82529 0.21212 0.0
C442 C 0.32513 0.79579 0.19318 0.0
C443 C 0.44418 0.80542 0.25045 0.0
C444 C 0.50747 0.86974 0.25244 0.0
C445 C 0.41493 0.76496 0.27444 0.0
C446 C 0.34474 0.70027 0.27436 0.0
C447 C 0.28428 0.70313 0.26694 0.0
C448 C 0.21845 0.64183 0.26633 0.0
C449 C 0.2123 0.57747 0.27347 0.0
C450 C 0.27197 0.57437 0.28131 0.0
C451 C 0.33799 0.63552 0.28184 0.0
C452 C 0.54701 0.9671 0.36561 0.0
C453 C 0.55934 0.92814 0.38547 0.0
C454 C 0.53513 0.9452 0.33815 0.0
C455 C 0.53551 0.88405 0.32995 0.0
C456 C 0.54988 0.84612 0.34951 0.0
C457 C 0.56214 0.8682 0.37703 0.0
C458 C 0.51135 0.8551 0.30191 0.0
C459 C 0.44983 0.78946 0.29966 0.0
C460 C 0.54147 0.89539 0.27797 0.0
C461 C 0.60735 0.96469 0.27923 0.0
C462 C 0.66768 0.97189 0.29247 0.0
C463 C 0.72906 0.03758 0.29413 0.0
C464 C 0.73081 0.09648 0.28256 0.0
C465 C 0.67147 0.08976 0.2691 0.0
C466 C 0.60998 0.0242 0.26736 0.0
H467 H 0.77809 0.14734 0.28406 0.0
H468 H 0.1613 0.53004 0.27299 0.0
H469 H 0.63366 0.35296 0.795 0.0
H470 H 0.69676 0.31076 0.76606 0.0
H471 H 0.51384 0.20099 0.71374 0.0
H472 H 0.4501 0.24113 0.74248 0.0
H473 H 0.61796 0.13604 0.73552 0.0
H474 H 0.61854 0.32944 0.65879 0.0
H475 H 0.63611 0.44943 0.65698 0.0
H476 H 0.77893 0.51167 0.72571 0.0
H477 H 0.7635 0.39248 0.72743 0.0
H478 H 0.54382 0.02578 0.6013 0.0
H479 H 0.56302 0.06928 0.64837 0.0
H480 H 0.77651 0.22581 0.62898 0.0
H481 H 0.75721 0.18317 0.58124 0.0
H482 H 0.7118 0.28432 0.65255 0.0
H483 H 0.74539 0.09648 0.67762 0.0
H484 H 0.7241 0.97506 0.67728 0.0
H485 H 0.51855 0.9008 0.71096 0.0
H486 H 0.53829 0.0216 0.71136 0.0
C487 C 0.60647 0.31876 0.77762 0.0
C488 C 0.53703 0.30105 0.77088 0.0
C489 C 0.64264 0.29484 0.76116 0.0
C490 C 0.6099 0.25355 0.73773 0.0
C491 C 0.53976 0.23296 0.7318 0.0
C492 C 0.50353 0.25619 0.74823 0.0
C493 C 0.64894 0.23643 0.71747 0.0
C494 C 0.64039 0.16878 0.71758 0.0
C495 C 0.67928 0.28005 0.69446 0.0
C496 C 0.68918 0.3519 0.69345 0.0
C497 C 0.65381 0.36882 0.67346 0.0
C498 C 0.66345 0.4367 0.67244 0.0
C499 C 0.70833 0.48808 0.69132 0.0
C500 C 0.74391 0.47175 0.71119 0.0
C501 C 0.73469 0.40402 0.7122 0.0
C502 C 0.59527 0.06888 0.607 0.0
C503 C 0.64874 0.10149 0.58738 0.0
C504 C 0.60652 0.09311 0.63413 0.0
C505 C 0.67167 0.15002 0.64239 0.0
C506 C 0.72605 0.18136 0.6231 0.0
C507 C 0.71479 0.15714 0.59582 0.0
C508 C 0.67816 0.18231 0.66992 0.0
C509 C 0.6938 0.25252 0.67095 0.0
C510 C 0.65533 0.14117 0.69404 0.0
C511 C 0.64342 0.06832 0.6945 0.0
C512 C 0.69556 0.05426 0.6849 0.0
C513 C 0.68375 0.98551 0.68469 0.0
C514 C 0.61991 0.93023 0.69399 0.0
C515 C 0.56794 0.94367 0.70372 0.0
C516 C 0.57958 0.01237 0.70408 0.0
H517 H 0.61082 0.87702 0.69376 0.0
H518 H 0.71574 0.54061 0.69051 0.0
loop_
_geom_bond_atom_site_label_1
_geom_bond_atom_site_label_2
_geom_bond_distance
_geom_bond_site_symmetry_2
_ccdc_geom_bond_type
O0 Zn1 1.953 . S
O0 C16 1.225 . S
Zn1 O0 1.953 . S
Zn1 O2 1.949 . S
Zn1 O8 1.919 . S
Zn1 O13 1.924 . S
O2 Zn1 1.949 . S
O2 Zn3 1.923 1_455 S
O2 Zn4 1.950 1_455 S
O2 Zn5 1.945 . S
Zn3 O2 1.923 1_655 S
Zn3 O6 1.933 . S
Zn3 O9 1.941 1_655 S
Zn3 O10 1.965 . S
Zn4 O2 1.950 1_655 S
Zn4 O11 1.938 . S
Zn4 O12 1.906 . S
Zn4 O22 1.953 . S
Zn5 O2 1.945 . S
Zn5 O7 1.932 . S
Zn5 O14 1.977 1_455 S
Zn5 O15 1.910 . S
O6 Zn3 1.933 . S
O6 C17 1.226 1_655 S
O7 Zn5 1.932 . S
O7 C17 1.307 . S
O8 Zn1 1.919 . S
O8 C19 1.253 . S
O9 Zn3 1.941 1_455 S
O9 C19 1.283 . S
O10 Zn3 1.965 . S
O10 C18 1.303 . S
O11 Zn4 1.938 . S
O11 C18 1.247 . S
O12 Zn4 1.906 . S
O12 C20 1.304 . S
O13 Zn1 1.924 . S
O13 C21 1.311 . S
O14 Zn5 1.977 1_655 S
O14 C20 1.272 . S
O15 Zn5 1.910 . S
O15 C21 1.231 . S
C16 O0 1.225 . S
C16 O22 1.298 1_455 S
C17 O6 1.226 1_455 S
C17 O7 1.307 . S
C18 O10 1.303 . S
C18 O11 1.247 . S
C19 O8 1.253 . S
C19 O9 1.283 . S
C20 O12 1.304 . S
C20 O14 1.272 . S
C21 O13 1.311 . S
C21 O15 1.231 . S
O22 Zn4 1.953 . S
O22 C16 1.298 1_655 S
O23 Zn24 1.953 . S
O23 C39 1.225 1_565 S
Zn24 O23 1.953 . S
Zn24 O25 1.949 1_565 S
Zn24 O31 1.919 . S
Zn24 O36 1.924 . S
O25 Zn24 1.949 1_545 S
O25 Zn26 1.923 . S
O25 Zn27 1.950 . S
O25 Zn28 1.945 1_545 S
Zn26 O25 1.923 . S
Zn26 O29 1.933 . S
Zn26 O32 1.941 1_545 S
Zn26 O33 1.965 . S
Zn27 O25 1.950 . S
Zn27 O34 1.938 . S
Zn27 O35 1.906 . S
Zn27 O45 1.953 . S
Zn28 O25 1.945 1_565 S
Zn28 O30 1.932 . S
Zn28 O37 1.977 1_565 S
Zn28 O38 1.910 . S
O29 Zn26 1.933 . S
O29 C40 1.226 . S
O30 Zn28 1.932 . S
O30 C40 1.307 1_565 S
O31 Zn24 1.919 . S
O31 C42 1.253 . S
O32 Zn26 1.941 1_565 S
O32 C42 1.283 . S
O33 Zn26 1.965 . S
O33 C41 1.303 . S
O34 Zn27 1.938 . S
O34 C41 1.247 . S
O35 Zn27 1.906 . S
O35 C43 1.304 . S
O36 Zn24 1.924 . S
O36 C44 1.311 . S
O37 Zn28 1.977 1_545 S
O37 C43 1.272 . S
O38 Zn28 1.910 . S
O38 C44 1.231 . S
C39 O23 1.225 1_545 S
C39 O45 1.298 . S
C40 O29 1.226 . S
C40 O30 1.307 1_545 S
C41 O33 1.303 . S
C41 O34 1.247 . S
C42 O31 1.253 . S
C42 O32 1.283 . S
C43 O35 1.304 . S
C43 O37 1.272 . S
C44 O36 1.311 . S
C44 O38 1.231 . S
O45 Zn27 1.953 . S
O45 C39 1.298 . S
O46 Zn47 1.953 . S
O46 C62 1.225 . S
Zn47 O46 1.953 . S
Zn47 O48 1.949 . S
Zn47 O54 1.919 . S
Zn47 O59 1.924 . S
O48 Zn47 1.949 . S
O48 Zn49 1.923 . S
O48 Zn50 1.950 . S
O48 Zn51 1.945 . S
Zn49 O48 1.923 . S
Zn49 O52 1.933 . S
Zn49 O55 1.941 . S
Zn49 O56 1.965 . S
Zn50 O48 1.950 . S
Zn50 O57 1.938 . S
Zn50 O58 1.906 . S
Zn50 O68 1.953 . S
Zn51 O48 1.945 . S
Zn51 O53 1.932 . S
Zn51 O60 1.977 . S
Zn51 O61 1.910 . S
O52 Zn49 1.933 . S
O52 C63 1.226 . S
O53 Zn51 1.932 . S
O53 C63 1.307 . S
O54 Zn47 1.919 . S
O54 C65 1.253 . S
O55 Zn49 1.941 . S
O55 C65 1.283 . S
O56 Zn49 1.965 . S
O56 C64 1.303 . S
O57 Zn50 1.938 . S
O57 C64 1.247 . S
O58 Zn50 1.906 . S
O58 C66 1.304 . S
O59 Zn47 1.924 . S
O59 C67 1.311 . S
O60 Zn51 1.977 . S
O60 C66 1.272 . S
O61 Zn51 1.910 . S
O61 C67 1.231 . S
C62 O46 1.225 . S
C62 O68 1.298 . S
C63 O52 1.226 . S
C63 O53 1.307 . S
C64 O56 1.303 . S
C64 O57 1.247 . S
C65 O54 1.253 . S
C65 O55 1.283 . S
C66 O58 1.304 . S
C66 O60 1.272 . S
C67 O59 1.311 . S
C67 O61 1.231 . S
O68 Zn50 1.953 . S
O68 C62 1.298 . S
H69 C87 0.951 . S
H70 C89 0.951 . S
H71 C91 0.950 . S
H72 C92 0.950 . S
H73 C94 0.944 1_565 S
H74 C97 0.950 . S
H75 C98 0.950 . S
H76 C100 0.950 . S
H77 C101 0.950 . S
H78 C102 0.951 . S
H79 C104 0.951 . S
H80 C106 0.950 . S
H81 C107 0.950 . S
H82 C109 0.950 . S
H83 C112 0.950 . S
H84 C113 0.950 . S
H85 C115 0.950 . S
H86 C116 0.950 . S
C87 H69 0.951 . S
C87 C88 1.366 1_655 S
C87 C89 1.388 . S
C88 C87 1.366 1_455 S
C88 C92 1.385 . S
C89 H70 0.951 . S
C89 C87 1.388 . S
C89 C90 1.366 1_655 S
C90 C89 1.366 1_455 S
C90 C91 1.414 . S
C90 C93 1.499 . S
C91 H71 0.950 . S
C91 C90 1.414 . S
C91 C92 1.374 . S
C92 H72 0.950 . S
C92 C88 1.385 . S
C92 C91 1.374 . S
C93 C90 1.499 . S
C93 C94 1.367 1_565 S
C93 C95 1.389 1_455 S
C94 H73 0.944 1_545 S
C94 C93 1.367 1_545 S
C94 C110 1.389 . S
C95 C93 1.389 1_655 S
C95 C96 1.524 . S
C95 C109 1.377 1_565 S
C96 C95 1.524 . S
C96 C97 1.397 . S
C96 C101 1.363 . S
C97 H74 0.950 . S
C97 C96 1.397 . S
C97 C98 1.334 . S
C98 H75 0.950 . S
C98 C97 1.334 . S
C98 C99 1.287 . S
C99 C98 1.287 . S
C99 C100 1.524 . S
C99 H118 0.913 . S
C100 H76 0.950 . S
C100 C99 1.524 . S
C100 C101 1.415 . S
C101 H77 0.950 . S
C101 C96 1.363 . S
C101 C100 1.415 . S
C102 H78 0.951 . S
C102 C103 1.366 . S
C102 C104 1.388 . S
C103 C102 1.366 . S
C103 C107 1.385 1_455 S
C104 H79 0.951 . S
C104 C102 1.388 . S
C104 C105 1.366 . S
C105 C104 1.366 . S
C105 C106 1.414 1_455 S
C105 C108 1.499 . S
C106 H80 0.950 . S
C106 C105 1.414 1_655 S
C106 C107 1.374 . S
C107 H81 0.950 . S
C107 C103 1.385 1_655 S
C107 C106 1.374 . S
C108 C105 1.499 . S
C108 C109 1.373 1_455 S
C108 C110 1.389 . S
C109 H82 0.950 . S
C109 C95 1.377 1_545 S
C109 C108 1.373 1_655 S
C110 C94 1.389 . S
C110 C108 1.389 . S
C110 C111 1.524 . S
C111 C110 1.524 . S
C111 C112 1.397 . S
C111 C116 1.363 . S
C112 H83 0.950 . S
C112 C111 1.397 . S
C112 C113 1.334 . S
C113 H84 0.950 . S
C113 C112 1.334 . S
C113 C114 1.287 . S
C114 C113 1.287 . S
C114 C115 1.524 . S
C114 H117 0.999 . S
C115 H85 0.950 . S
C115 C114 1.524 . S
C115 C116 1.415 . S
C116 H86 0.950 . S
C116 C111 1.363 . S
C116 C115 1.415 . S
H117 C114 0.999 . S
H118 C99 0.913 . S
H119 C137 0.951 . S
H120 C139 0.951 . S
H121 C141 0.950 . S
H122 C142 0.950 . S
H123 C144 0.950 . S
H124 C147 0.950 . S
H125 C148 0.950 . S
H126 C150 0.950 . S
H127 C151 0.950 1_565 S
H128 C152 0.951 . S
H129 C154 0.951 . S
H130 C156 0.950 . S
H131 C157 0.950 . S
H132 C159 0.950 . S
H133 C162 0.950 . S
H134 C163 0.950 . S
H135 C165 0.950 . S
H136 C166 0.950 1_545 S
C137 H119 0.951 . S
C137 C138 1.367 . S
C137 C139 1.388 . S
C138 C137 1.367 . S
C138 C142 1.381 1_565 S
C139 H120 0.951 . S
C139 C137 1.388 . S
C139 C140 1.366 1_565 S
C140 C139 1.366 1_545 S
C140 C141 1.414 . S
C140 C143 1.499 . S
C141 H121 0.950 . S
C141 C140 1.414 . S
C141 C142 1.374 . S
C142 H122 0.950 . S
C142 C138 1.381 1_545 S
C142 C141 1.374 . S
C143 C140 1.499 . S
C143 C144 1.373 1_545 S
C143 C145 1.389 . S
C144 H123 0.950 . S
C144 C143 1.373 1_565 S
C144 C160 1.377 1_455 S
C145 C143 1.389 . S
C145 C146 1.524 . S
C145 C159 1.377 1_455 S
C146 C145 1.524 . S
C146 C147 1.397 . S
C146 C151 1.363 . S
C147 H124 0.950 . S
C147 C146 1.397 . S
C147 C148 1.334 . S
C148 H125 0.950 . S
C148 C147 1.334 . S
C148 C149 1.287 . S
C149 C148 1.287 . S
C149 C150 1.524 . S
C149 H168 0.913 . S
C150 H126 0.950 . S
C150 C149 1.524 . S
C150 C151 1.415 . S
C151 H127 0.950 1_545 S
C151 C146 1.363 . S
C151 C150 1.415 . S
C152 H128 0.951 . S
C152 C153 1.366 . S
C152 C154 1.388 . S
C153 C152 1.366 . S
C153 C157 1.385 1_545 S
C154 H129 0.951 . S
C154 C152 1.388 . S
C154 C155 1.366 1_545 S
C155 C154 1.366 1_565 S
C155 C156 1.414 . S
C155 C158 1.499 . S
C156 H130 0.950 . S
C156 C155 1.414 . S
C156 C157 1.374 . S
C157 H131 0.950 . S
C157 C153 1.385 1_565 S
C157 C156 1.374 . S
C158 C155 1.499 . S
C158 C159 1.373 1_565 S
C158 C160 1.389 . S
C159 H132 0.950 . S
C159 C145 1.377 1_655 S
C159 C158 1.373 1_545 S
C160 C144 1.377 1_655 S
C160 C158 1.389 . S
C160 C161 1.524 . S
C161 C160 1.524 . S
C161 C162 1.397 . S
C161 C166 1.363 . S
C162 H133 0.950 . S
C162 C161 1.397 . S
C162 C163 1.334 . S
C163 H134 0.950 . S
C163 C162 1.334 . S
C163 C164 1.287 . S
C164 C163 1.287 . S
C164 C165 1.524 . S
C164 H167 0.999 . S
C165 H135 0.950 . S
C165 C164 1.524 . S
C165 C166 1.415 . S
C166 H136 0.950 1_565 S
C166 C161 1.363 . S
C166 C165 1.415 . S
H167 C164 0.999 . S
H168 C149 0.913 . S
H169 C187 0.951 . S
H170 C189 0.951 . S
H171 C191 0.950 . S
H172 C192 0.950 . S
H173 C194 0.950 . S
H174 C197 0.950 . S
H175 C198 0.950 . S
H176 C200 0.950 . S
H177 C201 0.950 . S
H178 C202 0.951 . S
H179 C204 0.951 . S
H180 C206 0.950 . S
H181 C207 0.950 . S
H182 C209 0.950 . S
H183 C212 0.950 . S
H184 C213 0.950 . S
H185 C215 0.950 . S
H186 C216 0.950 . S
C187 H169 0.951 . S
C187 C188 1.366 . S
C187 C189 1.388 . S
C188 C187 1.366 . S
C188 C192 1.385 . S
C189 H170 0.951 . S
C189 C187 1.388 . S
C189 C190 1.366 . S
C190 C189 1.366 . S
C190 C191 1.414 . S
C190 C193 1.499 . S
C191 H171 0.950 . S
C191 C190 1.414 . S
C191 C192 1.374 . S
C192 H172 0.950 . S
C192 C188 1.385 . S
C192 C191 1.374 . S
C193 C190 1.499 . S
C193 C194 1.373 . S
C193 C195 1.389 1_565 S
C194 H173 0.950 . S
C194 C193 1.373 . S
C194 C210 1.377 1_665 S
C195 C193 1.389 1_545 S
C195 C196 1.524 . S
C195 C209 1.377 1_655 S
C196 C195 1.524 . S
C196 C197 1.397 1_545 S
C196 C201 1.363 . S
C197 H174 0.950 . S
C197 C196 1.397 1_565 S
C197 C198 1.334 . S
C198 H175 0.950 . S
C198 C197 1.334 . S
C198 C199 1.287 1_565 S
C199 C198 1.287 1_545 S
C199 C200 1.524 . S
C199 H218 0.913 . S
C200 H176 0.950 . S
C200 C199 1.524 . S
C200 C201 1.415 . S
C201 H177 0.950 . S
C201 C196 1.363 . S
C201 C200 1.415 . S
C202 H178 0.951 . S
C202 C203 1.366 . S
C202 C204 1.388 . S
C203 C202 1.366 . S
C203 C207 1.385 . S
C204 H179 0.951 . S
C204 C202 1.388 . S
C204 C205 1.366 . S
C205 C204 1.366 . S
C205 C206 1.414 . S
C205 C208 1.499 . S
C206 H180 0.950 . S
C206 C205 1.414 . S
C206 C207 1.374 . S
C207 H181 0.950 . S
C207 C203 1.385 . S
C207 C206 1.374 . S
C208 C205 1.499 . S
C208 C209 1.373 . S
C208 C210 1.389 . S
C209 H182 0.950 . S
C209 C195 1.377 1_455 S
C209 C208 1.373 . S
C210 C194 1.377 1_445 S
C210 C208 1.389 . S
C210 C211 1.524 1_545 S
C211 C210 1.524 1_565 S
C211 C212 1.397 1_565 S
C211 C216 1.363 . S
C212 H183 0.950 . S
C212 C211 1.397 1_545 S
C212 C213 1.334 . S
C213 H184 0.950 . S
C213 C212 1.334 . S
C213 C214 1.287 1_545 S
C214 C213 1.287 1_565 S
C214 C215 1.524 . S
C214 H217 0.999 . S
C215 H185 0.950 . S
C215 C214 1.524 . S
C215 C216 1.415 . S
C216 H186 0.950 . S
C216 C211 1.363 . S
C216 C215 1.415 . S
H217 C214 0.999 . S
H218 C199 0.913 . S
H219 C237 0.951 . S
H220 C239 0.951 . S
H221 C241 0.950 . S
H222 C242 0.950 . S
H223 C244 0.950 . S
H224 C247 0.950 . S
H225 C248 0.950 . S
H226 C250 0.950 . S
H227 C251 0.950 . S
H228 C252 0.951 . S
H229 C254 0.951 . S
H230 C256 0.950 . S
H231 C257 0.950 . S
H232 C259 0.950 . S
H233 C262 0.950 . S
H234 C263 0.950 . S
H235 C265 0.950 . S
H236 C266 0.950 . S
C237 H219 0.951 . S
C237 C238 1.366 . S
C237 C239 1.388 . S
C238 C237 1.366 . S
C238 C242 1.385 . S
C239 H220 0.951 . S
C239 C237 1.388 . S
C239 C240 1.366 . S
C240 C239 1.366 . S
C240 C241 1.414 . S
C240 C243 1.499 . S
C241 H221 0.950 . S
C241 C240 1.414 . S
C241 C242 1.374 . S
C242 H222 0.950 . S
C242 C238 1.385 . S
C242 C241 1.374 . S
C243 C240 1.499 . S
C243 C244 1.373 . S
C243 C245 1.389 . S
C244 H223 0.950 . S
C244 C243 1.373 . S
C244 C260 1.377 1_556 S
C245 C243 1.389 . S
C245 C246 1.524 . S
C245 C259 1.377 1_556 S
C246 C245 1.524 . S
C246 C247 1.397 . S
C246 C251 1.363 . S
C247 H224 0.950 . S
C247 C246 1.397 . S
C247 C248 1.334 . S
C248 H225 0.950 . S
C248 C247 1.334 . S
C248 C249 1.287 . S
C249 C248 1.287 . S
C249 C250 1.524 . S
C249 H268 0.913 . S
C250 H226 0.950 . S
C250 C249 1.524 . S
C250 C251 1.415 . S
C251 H227 0.950 . S
C251 C246 1.363 . S
C251 C250 1.415 . S
C252 H228 0.951 . S
C252 C253 1.366 . S
C252 C254 1.388 . S
C253 C252 1.366 . S
C253 C257 1.385 . S
C254 H229 0.951 . S
C254 C252 1.388 . S
C254 C255 1.366 . S
C255 C254 1.366 . S
C255 C256 1.414 . S
C255 C258 1.499 . S
C256 H230 0.950 . S
C256 C255 1.414 . S
C256 C257 1.374 . S
C257 H231 0.950 . S
C257 C253 1.385 . S
C257 C256 1.374 . S
C258 C255 1.499 . S
C258 C259 1.373 . S
C258 C260 1.389 . S
C259 H232 0.950 . S
C259 C245 1.377 1_554 S
C259 C258 1.373 . S
C260 C244 1.377 1_554 S
C260 C258 1.389 . S
C260 C261 1.524 . S
C261 C260 1.524 . S
C261 C262 1.397 . S
C261 C266 1.363 . S
C262 H233 0.950 . S
C262 C261 1.397 . S
C262 C263 1.334 . S
C263 H234 0.950 . S
C263 C262 1.334 . S
C263 C264 1.287 . S
C264 C263 1.287 . S
C264 C265 1.524 . S
C264 H267 0.999 . S
C265 H235 0.950 . S
C265 C264 1.524 . S
C265 C266 1.415 . S
C266 H236 0.950 . S
C266 C261 1.363 . S
C266 C265 1.415 . S
H267 C264 0.999 . S
H268 C249 0.913 . S
H269 C287 0.951 . S
H270 C289 0.951 . S
H271 C291 0.950 . S
H272 C292 0.950 . S
H273 C294 0.950 . S
H274 C297 0.950 . S
H275 C298 0.950 . S
H276 C300 0.950 . S
H277 C301 0.950 . S
H278 C302 0.951 . S
H279 C304 0.951 . S
H280 C306 0.950 . S
H281 C307 0.950 . S
H282 C309 0.950 . S
H283 C312 0.950 . S
H284 C313 0.950 . S
H285 C315 0.950 . S
H286 C316 0.950 . S
C287 H269 0.951 . S
C287 C288 1.366 . S
C287 C289 1.388 . S
C288 C287 1.366 . S
C288 C292 1.385 . S
C289 H270 0.951 . S
C289 C287 1.388 . S
C289 C290 1.366 . S
C290 C289 1.366 . S
C290 C291 1.414 . S
C290 C293 1.499 . S
C291 H271 0.950 . S
C291 C290 1.414 . S
C291 C292 1.374 . S
C292 H272 0.950 . S
C292 C288 1.385 . S
C292 C291 1.374 . S
C293 C290 1.499 . S
C293 C294 1.373 . S
C293 C295 1.389 . S
C294 H273 0.950 . S
C294 C293 1.373 . S
C294 C310 1.377 . S
C295 C293 1.389 . S
C295 C296 1.524 . S
C295 C309 1.377 . S
C296 C295 1.524 . S
C296 C297 1.397 . S
C296 C301 1.363 . S
C297 H274 0.950 . S
C297 C296 1.397 . S
C297 C298 1.334 . S
C298 H275 0.950 . S
C298 C297 1.334 . S
C298 C299 1.287 . S
C299 C298 1.287 . S
C299 C300 1.524 . S
C299 H318 0.913 . S
C300 H276 0.950 . S
C300 C299 1.524 . S
C300 C301 1.415 . S
C301 H277 0.950 . S
C301 C296 1.363 . S
C301 C300 1.415 . S
C302 H278 0.951 . S
C302 C303 1.366 . S
C302 C304 1.388 . S
C303 C302 1.366 . S
C303 C307 1.385 . S
C304 H279 0.951 . S
C304 C302 1.388 . S
C304 C305 1.366 . S
C305 C304 1.366 . S
C305 C306 1.414 . S
C305 C308 1.499 . S
C306 H280 0.950 . S
C306 C305 1.414 . S
C306 C307 1.374 . S
C307 H281 0.950 . S
C307 C303 1.385 . S
C307 C306 1.374 . S
C308 C305 1.499 . S
C308 C309 1.373 . S
C308 C310 1.389 . S
C309 H282 0.950 . S
C309 C295 1.377 . S
C309 C308 1.373 . S
C310 C294 1.377 . S
C310 C308 1.389 . S
C310 C311 1.524 . S
C311 C310 1.524 . S
C311 C312 1.397 . S
C311 C316 1.363 . S
C312 H283 0.950 . S
C312 C311 1.397 . S
C312 C313 1.334 . S
C313 H284 0.950 . S
C313 C312 1.334 . S
C313 C314 1.287 . S
C314 C313 1.287 . S
C314 C315 1.524 . S
C314 H317 0.999 . S
C315 H285 0.950 . S
C315 C314 1.524 . S
C315 C316 1.415 . S
C316 H286 0.950 . S
C316 C311 1.363 . S
C316 C315 1.415 . S
H317 C314 0.999 . S
H318 C299 0.913 . S
H319 C337 0.951 . S
H320 C339 0.951 . S
H321 C341 0.950 . S
H322 C342 0.950 . S
H323 C344 0.950 . S
H324 C347 0.950 . S
H325 C348 0.950 . S
H326 C350 0.950 . S
H327 C351 0.950 . S
H328 C352 0.951 . S
H329 C354 0.951 . S
H330 C356 0.950 . S
H331 C357 0.950 . S
H332 C359 0.950 . S
H333 C362 0.950 . S
H334 C363 0.950 . S
H335 C365 0.950 . S
H336 C366 0.950 . S
C337 H319 0.951 . S
C337 C338 1.366 . S
C337 C339 1.388 . S
C338 C337 1.366 . S
C338 C342 1.385 . S
C339 H320 0.951 . S
C339 C337 1.388 . S
C339 C340 1.366 . S
C340 C339 1.366 . S
C340 C341 1.414 . S
C340 C343 1.499 . S
C341 H321 0.950 . S
C341 C340 1.414 . S
C341 C342 1.374 . S
C342 H322 0.950 . S
C342 C338 1.385 . S
C342 C341 1.374 . S
C343 C340 1.499 . S
C343 C344 1.373 . S
C343 C345 1.389 . S
C344 H323 0.950 . S
C344 C343 1.373 . S
C344 C360 1.377 . S
C345 C343 1.389 . S
C345 C346 1.524 . S
C345 C359 1.377 . S
C346 C345 1.524 . S
C346 C347 1.397 . S
C346 C351 1.363 . S
C347 H324 0.950 . S
C347 C346 1.397 . S
C347 C348 1.334 . S
C348 H325 0.950 . S
C348 C347 1.334 . S
C348 C349 1.287 . S
C349 C348 1.287 . S
C349 C350 1.524 . S
C349 H368 0.913 . S
C350 H326 0.950 . S
C350 C349 1.524 . S
C350 C351 1.415 . S
C351 H327 0.950 . S
C351 C346 1.363 . S
C351 C350 1.415 . S
C352 H328 0.951 . S
C352 C353 1.366 . S
C352 C354 1.388 . S
C353 C352 1.366 . S
C353 C357 1.385 . S
C354 H329 0.951 . S
C354 C352 1.388 . S
C354 C355 1.366 . S
C355 C354 1.366 . S
C355 C356 1.414 . S
C355 C358 1.499 . S
C356 H330 0.950 . S
C356 C355 1.414 . S
C356 C357 1.374 . S
C357 H331 0.950 . S
C357 C353 1.385 . S
C357 C356 1.374 . S
C358 C355 1.499 . S
C358 C359 1.373 . S
C358 C360 1.389 . S
C359 H332 0.950 . S
C359 C345 1.377 . S
C359 C358 1.373 . S
C360 C344 1.377 . S
C360 C358 1.389 . S
C360 C361 1.524 . S
C361 C360 1.524 . S
C361 C362 1.397 . S
C361 C366 1.363 . S
C362 H333 0.950 . S
C362 C361 1.397 . S
C362 C363 1.334 . S
C363 H334 0.950 . S
C363 C362 1.334 . S
C363 C364 1.287 . S
C364 C363 1.287 . S
C364 C365 1.524 . S
C364 H367 0.999 . S
C365 H335 0.950 . S
C365 C364 1.524 . S
C365 C366 1.415 . S
C366 H336 0.950 . S
C366 C361 1.363 . S
C366 C365 1.415 . S
H367 C364 0.999 . S
H368 C349 0.913 . S
H369 C387 0.951 . S
H370 C389 0.951 . S
H371 C391 0.950 . S
H372 C392 0.950 . S
H373 C394 0.950 . S
H374 C397 0.950 . S
H375 C398 0.950 . S
H376 C400 0.950 . S
H377 C401 0.950 . S
H378 C402 0.951 . S
H379 C404 0.951 . S
H380 C406 0.950 . S
H381 C407 0.950 . S
H382 C409 0.950 . S
H383 C412 0.950 . S
H384 C413 0.950 . S
H385 C415 0.950 . S
H386 C416 0.950 . S
C387 H369 0.951 . S
C387 C388 1.366 . S
C387 C389 1.388 . S
C388 C387 1.366 . S
C388 C392 1.385 . S
C389 H370 0.951 . S
C389 C387 1.388 . S
C389 C390 1.366 . S
C390 C389 1.366 . S
C390 C391 1.414 . S
C390 C393 1.499 . S
C391 H371 0.950 . S
C391 C390 1.414 . S
C391 C392 1.374 . S
C392 H372 0.950 . S
C392 C388 1.385 . S
C392 C391 1.374 . S
C393 C390 1.499 . S
C393 C394 1.373 . S
C393 C395 1.389 . S
C394 H373 0.950 . S
C394 C393 1.373 . S
C394 C410 1.377 1_556 S
C395 C393 1.389 . S
C395 C396 1.524 . S
C395 C409 1.377 1_556 S
C396 C395 1.524 . S
C396 C397 1.397 . S
C396 C401 1.363 1_556 S
C397 H374 0.950 . S
C397 C396 1.397 . S
C397 C398 1.334 . S
C398 H375 0.950 . S
C398 C397 1.334 . S
C398 C399 1.287 . S
C399 C398 1.287 . S
C399 C400 1.524 1_556 S
C399 H418 0.913 . S
C400 H376 0.950 . S
C400 C399 1.524 1_554 S
C400 C401 1.415 . S
C401 H377 0.950 . S
C401 C396 1.363 1_554 S
C401 C400 1.415 . S
C402 H378 0.951 . S
C402 C403 1.366 . S
C402 C404 1.388 . S
C403 C402 1.366 . S
C403 C407 1.385 . S
C404 H379 0.951 . S
C404 C402 1.388 . S
C404 C405 1.366 . S
C405 C404 1.366 . S
C405 C406 1.414 . S
C405 C408 1.499 . S
C406 H380 0.950 . S
C406 C405 1.414 . S
C406 C407 1.374 . S
C407 H381 0.950 . S
C407 C403 1.385 . S
C407 C406 1.374 . S
C408 C405 1.499 . S
C408 C409 1.373 . S
C408 C410 1.389 . S
C409 H382 0.950 . S
C409 C395 1.377 1_554 S
C409 C408 1.373 . S
C410 C394 1.377 1_554 S
C410 C408 1.389 . S
C410 C411 1.524 . S
C411 C410 1.524 . S
C411 C412 1.397 . S
C411 C416 1.363 1_554 S
C412 H383 0.950 . S
C412 C411 1.397 . S
C412 C413 1.334 . S
C413 H384 0.950 . S
C413 C412 1.334 . S
C413 C414 1.287 . S
C414 C413 1.287 . S
C414 C415 1.524 1_554 S
C414 H417 0.999 . S
C415 H385 0.950 . S
C415 C414 1.524 1_556 S
C415 C416 1.415 . S
C416 H386 0.950 . S
C416 C411 1.363 1_556 S
C416 C415 1.415 . S
H417 C414 0.999 . S
H418 C399 0.913 . S
H419 C437 0.951 . S
H420 C439 0.951 . S
H421 C441 0.950 . S
H422 C442 0.950 . S
H423 C444 0.950 . S
H424 C447 0.950 . S
H425 C448 0.950 . S
H426 C450 0.950 . S
H427 C451 0.950 . S
H428 C452 0.951 . S
H429 C454 0.951 . S
H430 C456 0.950 . S
H431 C457 0.950 . S
H432 C459 0.950 . S
H433 C462 0.950 . S
H434 C463 0.950 . S
H435 C465 0.950 1_545 S
H436 C466 0.950 . S
C437 H419 0.951 . S
C437 C438 1.366 . S
C437 C439 1.388 . S
C438 C437 1.366 . S
C438 C442 1.385 . S
C439 H420 0.951 . S
C439 C437 1.388 . S
C439 C440 1.366 . S
C440 C439 1.366 . S
C440 C441 1.414 . S
C440 C443 1.499 . S
C441 H421 0.950 . S
C441 C440 1.414 . S
C441 C442 1.374 . S
C442 H422 0.950 . S
C442 C438 1.385 . S
C442 C441 1.374 . S
C443 C440 1.499 . S
C443 C444 1.373 . S
C443 C445 1.389 . S
C444 H423 0.950 . S
C444 C443 1.373 . S
C444 C460 1.377 . S
C445 C443 1.389 . S
C445 C446 1.524 . S
C445 C459 1.377 . S
C446 C445 1.524 . S
C446 C447 1.397 . S
C446 C451 1.363 . S
C447 H424 0.950 . S
C447 C446 1.397 . S
C447 C448 1.334 . S
C448 H425 0.950 . S
C448 C447 1.334 . S
C448 C449 1.287 . S
C449 C448 1.287 . S
C449 C450 1.524 . S
C449 H468 0.913 . S
C450 H426 0.950 . S
C450 C449 1.524 . S
C450 C451 1.415 . S
C451 H427 0.950 . S
C451 C446 1.363 . S
C451 C450 1.415 . S
C452 H428 0.951 . S
C452 C453 1.366 . S
C452 C454 1.388 . S
C453 C452 1.366 . S
C453 C457 1.385 . S
C454 H429 0.951 . S
C454 C452 1.388 . S
C454 C455 1.366 . S
C455 C454 1.366 . S
C455 C456 1.414 . S
C455 C458 1.499 . S
C456 H430 0.950 . S
C456 C455 1.414 . S
C456 C457 1.374 . S
C457 H431 0.950 . S
C457 C453 1.385 . S
C457 C456 1.374 . S
C458 C455 1.499 . S
C458 C459 1.373 . S
C458 C460 1.389 . S
C459 H432 0.950 . S
C459 C445 1.377 . S
C459 C458 1.373 . S
C460 C444 1.377 . S
C460 C458 1.389 . S
C460 C461 1.524 . S
C461 C460 1.524 . S
C461 C462 1.397 . S
C461 C466 1.363 . S
C462 H433 0.950 . S
C462 C461 1.397 . S
C462 C463 1.334 . S
C463 H434 0.950 . S
C463 C462 1.334 . S
C463 C464 1.287 1_565 S
C464 C463 1.287 1_545 S
C464 C465 1.524 1_545 S
C464 H467 0.999 . S
C465 H435 0.950 1_565 S
C465 C464 1.524 1_565 S
C465 C466 1.415 . S
C466 H436 0.950 . S
C466 C461 1.363 . S
C466 C465 1.415 . S
H467 C464 0.999 . S
H468 C449 0.913 . S
H469 C487 0.951 . S
H470 C489 0.951 . S
H471 C491 0.950 . S
H472 C492 0.950 . S
H473 C494 0.950 . S
H474 C497 0.950 . S
H475 C498 0.950 . S
H476 C500 0.950 . S
H477 C501 0.950 . S
H478 C502 0.951 . S
H479 C504 0.951 . S
H480 C506 0.950 . S
H481 C507 0.950 . S
H482 C509 0.950 . S
H483 C512 0.950 . S
H484 C513 0.950 . S
H485 C515 0.950 1_565 S
H486 C516 0.950 . S
C487 H469 0.951 . S
C487 C488 1.366 . S
C487 C489 1.388 . S
C488 C487 1.366 . S
C488 C492 1.385 . S
C489 H470 0.951 . S
C489 C487 1.388 . S
C489 C490 1.366 . S
C490 C489 1.366 . S
C490 C491 1.414 . S
C490 C493 1.499 . S
C491 H471 0.950 . S
C491 C490 1.414 . S
C491 C492 1.374 . S
C492 H472 0.950 . S
C492 C488 1.385 . S
C492 C491 1.374 . S
C493 C490 1.499 . S
C493 C494 1.373 . S
C493 C495 1.389 . S
C494 H473 0.950 . S
C494 C493 1.373 . S
C494 C510 1.377 . S
C495 C493 1.389 . S
C495 C496 1.524 . S
C495 C509 1.377 . S
C496 C495 1.524 . S
C496 C497 1.397 . S
C496 C501 1.363 . S
C497 H474 0.950 . S
C497 C496 1.397 . S
C497 C498 1.334 . S
C498 H475 0.950 . S
C498 C497 1.334 . S
C498 C499 1.287 . S
C499 C498 1.287 . S
C499 C500 1.524 . S
C499 H518 0.913 . S
C500 H476 0.950 . S
C500 C499 1.524 . S
C500 C501 1.415 . S
C501 H477 0.950 . S
C501 C496 1.363 . S
C501 C500 1.415 . S
C502 H478 0.951 . S
C502 C503 1.366 . S
C502 C504 1.388 . S
C503 C502 1.366 . S
C503 C507 1.385 . S
C504 H479 0.951 . S
C504 C502 1.388 . S
C504 C505 1.366 . S
C505 C504 1.366 . S
C505 C506 1.414 . S
C505 C508 1.499 . S
C506 H480 0.950 . S
C506 C505 1.414 . S
C506 C507 1.374 . S
C507 H481 0.950 . S
C507 C503 1.385 . S
C507 C506 1.374 . S
C508 C505 1.499 . S
C508 C509 1.373 . S
C508 C510 1.389 . S
C509 H482 0.950 . S
C509 C495 1.377 . S
C509 C508 1.373 . S
C510 C494 1.377 . S
C510 C508 1.389 . S
C510 C511 1.524 . S
C511 C510 1.524 . S
C511 C512 1.397 . S
C511 C516 1.363 . S
C512 H483 0.950 . S
C512 C511 1.397 . S
C512 C513 1.334 . S
C513 H484 0.950 . S
C513 C512 1.334 . S
C513 C514 1.290 . S
C514 C513 1.290 . S
C514 C515 1.535 . S
C514 H517 0.983 1_545 S
C515 H485 0.950 1_545 S
C515 C514 1.535 . S
C515 C516 1.415 . S
C516 H486 0.950 . S
C516 C511 1.363 . S
C516 C515 1.415 . S
H517 C514 0.983 1_565 S
H518 C499 0.913 . S
C88 C16 1.947 . S
C103 C17 1.946 . S
C138 C40 1.948 1_565 S
C153 C39 1.947 . S
C188 C62 1.947 . S
C203 C63 1.946 . S
C238 C66 0.665 . S
C253 C19 0.664 . S
C288 C41 0.695 . S
C303 C20 0.701 . S
C338 C64 0.674 . S
C353 C44 0.676 . S
C388 C67 0.672 . S
C403 C18 0.670 . S
C438 C21 0.630 . S
C453 C42 0.645 . S
C488 C65 0.662 . S
C503 C43 0.663 . S
