# Generated by pormake.
# Topology umo, (4)-cn, num edge types: 1
# Building blocks:
#     Node 0, Type 0, BuildingBlock: QUQFOY_clean_sbu_3, # of connection points: 4
#     Node 1, Type 0, BuildingBlock: QUQFOY_clean_sbu_3, # of connection points: 4
#     Node 2, Type 0, BuildingBlock: QUQFOY_clean_sbu_3, # of connection points: 4
#     Node 3, Type 0, BuildingBlock: QUQFOY_clean_sbu_3, # of connection points: 4
#     Node 4, Type 0, BuildingBlock: QUQFOY_clean_sbu_3, # of connection points: 4
#     Node 5, Type 0, BuildingBlock: QUQFOY_clean_sbu_3, # of connection points: 4
#     Node 6, Type 0, BuildingBlock: QUQFOY_clean_sbu_3, # of connection points: 4
#     Node 7, Type 0, BuildingBlock: QUQFOY_clean_sbu_3, # of connection points: 4
#     Node 8, Type 0, BuildingBlock: QUQFOY_clean_sbu_3, # of connection points: 4
#     Node 9, Type 0, BuildingBlock: QUQFOY_clean_sbu_3, # of connection points: 4
#     Node 10, Type 0, BuildingBlock: QUQFOY_clean_sbu_3, # of connection points: 4
#     Node 11, Type 0, BuildingBlock: QUQFOY_clean_sbu_3, # of connection points: 4
#     Edge 12, Type (0, 0), BuildingBlock: UVAHIK_clean_linker_0, # of connection points: 2
#     Edge 13, Type (0, 0), BuildingBlock: UVAHIK_clean_linker_0, # of connection points: 2
#     Edge 14, Type (0, 0), BuildingBlock: UVAHIK_clean_linker_0, # of connection points: 2
#     Edge 15, Type (0, 0), BuildingBlock: UVAHIK_clean_linker_0, # of connection points: 2
#     Edge 16, Type (0, 0), BuildingBlock: UVAHIK_clean_linker_0, # of connection points: 2
#     Edge 17, Type (0, 0), BuildingBlock: UVAHIK_clean_linker_0, # of connection points: 2
#     Edge 18, Type (0, 0), BuildingBlock: UVAHIK_clean_linker_0, # of connection points: 2
#     Edge 19, Type (0, 0), BuildingBlock: UVAHIK_clean_linker_0, # of connection points: 2
#     Edge 20, Type (0, 0), BuildingBlock: UVAHIK_clean_linker_0, # of connection points: 2
#     Edge 21, Type (0, 0), BuildingBlock: UVAHIK_clean_linker_0, # of connection points: 2
#     Edge 22, Type (0, 0), BuildingBlock: UVAHIK_clean_linker_0, # of connection points: 2
#     Edge 23, Type (0, 0), BuildingBlock: UVAHIK_clean_linker_0, # of connection points: 2
#     Edge 24, Type (0, 0), BuildingBlock: UVAHIK_clean_linker_0, # of connection points: 2
#     Edge 25, Type (0, 0), BuildingBlock: UVAHIK_clean_linker_0, # of connection points: 2
#     Edge 26, Type (0, 0), BuildingBlock: UVAHIK_clean_linker_0, # of connection points: 2
#     Edge 27, Type (0, 0), BuildingBlock: UVAHIK_clean_linker_0, # of connection points: 2
#     Edge 28, Type (0, 0), BuildingBlock: UVAHIK_clean_linker_0, # of connection points: 2
#     Edge 29, Type (0, 0), BuildingBlock: UVAHIK_clean_linker_0, # of connection points: 2
#     Edge 30, Type (0, 0), BuildingBlock: UVAHIK_clean_linker_0, # of connection points: 2
#     Edge 31, Type (0, 0), BuildingBlock: UVAHIK_clean_linker_0, # of connection points: 2
#     Edge 32, Type (0, 0), BuildingBlock: UVAHIK_clean_linker_0, # of connection points: 2
#     Edge 33, Type (0, 0), BuildingBlock: UVAHIK_clean_linker_0, # of connection points: 2
#     Edge 34, Type (0, 0), BuildingBlock: UVAHIK_clean_linker_0, # of connection points: 2
#     Edge 35, Type (0, 0), BuildingBlock: UVAHIK_clean_linker_0, # of connection points: 2
# Relax obj value: 0.166
# Max RMSD: 0.246
# Mean RMSD: 0.246
data_MOF--net-umo--node1-QUQFOY_clean_sbu_3--edge1-UVAHIK_clean_linker_0
_symmetry_space_group_name_H-M    P1
_symmetry_Int_Tables_number       1
_symmetry_cell_setting            triclinic
loop_
_symmetry_equiv_pos_as_xyz
'x, y, z'
_cell_length_a     67.36586
_cell_length_b     66.931193
_cell_length_c     50.383194
_cell_angle_alpha  89.764915
_cell_angle_beta   90.324482
_cell_angle_gamma 120.28531
loop_
_atom_site_label
_atom_site_type_symbol
_atom_site_fract_x
_atom_site_fract_y
_atom_site_fract_z
_atom_type_partial_charge
C0 C 0.15666 0.49996 0.34965 0.0
O1 O 0.16647 0.50349 0.37219 0.0
Cd2 Cd 0.15433 0.5136 0.41314 0.0
O3 O 0.13834 0.50091 0.34708 0.0
Cd4 Cd 0.11268 0.50828 0.37527 0.0
C5 C 0.15364 0.56219 0.39233 0.0
O6 O 0.11391 0.49206 0.41914 0.0
O7 O 0.09719 0.51237 0.41622 0.0
O8 O 0.07839 0.47633 0.35554 0.0
C9 C 0.10347 0.50103 0.43063 0.0
O10 O 0.161 0.55244 0.40812 0.0
C11 C 0.07025 0.4887 0.3472 0.0
O12 O 0.13782 0.55065 0.37537 0.0
O13 O 0.08243 0.5104 0.35091 0.0
C14 C 0.62622 0.16899 0.50753 0.0
O15 O 0.63575 0.17404 0.5302 0.0
Cd16 Cd 0.61043 0.16878 0.56717 0.0
O17 O 0.60443 0.15724 0.50597 0.0
Cd18 Cd 0.57231 0.13573 0.53727 0.0
C19 C 0.57236 0.18419 0.5425 0.0
O20 O 0.58148 0.13217 0.58506 0.0
O21 O 0.55145 0.13477 0.57505 0.0
O22 O 0.56678 0.09849 0.52483 0.0
C23 C 0.56298 0.13138 0.5926 0.0
O24 O 0.5894 0.18857 0.55744 0.0
C25 C 0.54657 0.0905 0.5157 0.0
O26 O 0.56243 0.16556 0.529 0.0
O27 O 0.53837 0.10397 0.51574 0.0
C28 C 0.41377 0.64178 0.67719 0.0
O29 O 0.41088 0.64846 0.69963 0.0
Cd30 Cd 0.39516 0.62222 0.73746 0.0
O31 O 0.41019 0.62134 0.67461 0.0
Cd32 Cd 0.39911 0.58723 0.70314 0.0
C33 C 0.34628 0.57743 0.7101 0.0
O34 O 0.41076 0.5984 0.7506 0.0
O35 O 0.38238 0.5642 0.74133 0.0
O36 O 0.4326 0.58498 0.69058 0.0
C37 C 0.39564 0.57828 0.75872 0.0
O38 O 0.35574 0.59336 0.72743 0.0
C39 C 0.42142 0.56498 0.68029 0.0
O40 O 0.35819 0.57268 0.69454 0.0
O41 O 0.39963 0.55545 0.67994 0.0
C42 C 0.74262 0.43874 0.84381 0.0
O43 O 0.73421 0.4363 0.86688 0.0
Cd44 Cd 0.74609 0.42135 0.90421 0.0
O45 O 0.7592 0.43515 0.84005 0.0
Cd46 Cd 0.78342 0.42476 0.86709 0.0
C47 C 0.74039 0.37169 0.87737 0.0
O48 O 0.78606 0.43747 0.91436 0.0
O49 O 0.79175 0.4092 0.90491 0.0
O50 O 0.81893 0.4582 0.85265 0.0
C51 C 0.79155 0.42272 0.92227 0.0
O52 O 0.73484 0.38158 0.89494 0.0
C53 C 0.827 0.44673 0.84176 0.0
O54 O 0.75635 0.38331 0.86072 0.0
O55 O 0.81433 0.42482 0.84179 0.0
C56 C 0.27122 0.75998 0.00872 0.0
O57 O 0.26482 0.75019 0.03119 0.0
Cd58 Cd 0.29086 0.76103 0.06908 0.0
O59 O 0.29129 0.77742 0.00613 0.0
Cd60 Cd 0.3248 0.80117 0.03517 0.0
C61 C 0.33651 0.75923 0.04199 0.0
O62 O 0.31328 0.8007 0.08257 0.0
O63 O 0.34751 0.80734 0.07364 0.0
O64 O 0.3272 0.8375 0.02325 0.0
C65 C 0.33333 0.80609 0.09088 0.0
O66 O 0.32051 0.75187 0.05912 0.0
C67 C 0.34705 0.84642 0.01299 0.0
O68 O 0.34079 0.77613 0.0267 0.0
O69 O 0.35628 0.83391 0.01223 0.0
C70 C 0.4786 0.29248 0.17779 0.0
O71 O 0.48153 0.28564 0.20027 0.0
Cd72 Cd 0.49397 0.30915 0.24047 0.0
O73 O 0.48105 0.31253 0.1754 0.0
Cd74 Cd 0.49029 0.34598 0.20426 0.0
C75 C 0.54334 0.35653 0.21806 0.0
O76 O 0.4749 0.33021 0.24921 0.0
O77 O 0.499 0.36692 0.24482 0.0
O78 O 0.45803 0.34867 0.18703 0.0
C79 C 0.48624 0.35016 0.25988 0.0
O80 O 0.53331 0.33967 0.2342 0.0
C81 C 0.47003 0.36928 0.17854 0.0
O82 O 0.53204 0.36155 0.20162 0.0
O83 O 0.49173 0.37875 0.18087 0.0
C84 C 0.41702 0.76644 0.4431 0.0
O85 O 0.41479 0.75782 0.42012 0.0
Cd86 Cd 0.39929 0.76876 0.38254 0.0
O87 O 0.41298 0.78286 0.44662 0.0
Cd88 Cd 0.40191 0.80672 0.4197 0.0
C89 C 0.34956 0.76157 0.41012 0.0
O90 O 0.41499 0.80901 0.37288 0.0
O91 O 0.38759 0.81602 0.38134 0.0
O92 O 0.43447 0.84232 0.43575 0.0
C93 C 0.40089 0.81506 0.36438 0.0
O94 O 0.35959 0.75597 0.3928 0.0
C95 C 0.4226 0.85012 0.44611 0.0
O96 O 0.36104 0.77844 0.42592 0.0
O97 O 0.40086 0.8373 0.44494 0.0
C98 C 0.61821 0.43837 0.61135 0.0
O99 O 0.62437 0.43431 0.5892 0.0
Cd100 Cd 0.59803 0.41713 0.55191 0.0
O101 O 0.59815 0.43551 0.61386 0.0
Cd102 Cd 0.56378 0.42424 0.58578 0.0
C103 C 0.55352 0.37031 0.58289 0.0
O104 O 0.57545 0.43388 0.53825 0.0
O105 O 0.54033 0.40803 0.5476 0.0
O106 O 0.56154 0.45828 0.59753 0.0
C107 C 0.55509 0.4198 0.53008 0.0
O108 O 0.56956 0.37847 0.5658 0.0
C109 C 0.54182 0.44702 0.60815 0.0
O110 O 0.54842 0.38331 0.59604 0.0
O111 O 0.53262 0.42514 0.60904 0.0
C112 C 0.1513 0.64291 0.76999 0.0
O113 O 0.16144 0.65019 0.74785 0.0
Cd114 Cd 0.15069 0.62776 0.70681 0.0
O115 O 0.1334 0.62295 0.77162 0.0
Cd116 Cd 0.1085 0.58979 0.74257 0.0
C117 C 0.15123 0.57927 0.7291 0.0
O118 O 0.11046 0.60695 0.69828 0.0
O119 O 0.09481 0.56973 0.70143 0.0
O120 O 0.07427 0.58795 0.76045 0.0
C121 C 0.10087 0.58729 0.68684 0.0
O122 O 0.15876 0.59685 0.7139 0.0
C123 C 0.06531 0.56724 0.76872 0.0
O124 O 0.13426 0.57366 0.74457 0.0
O125 O 0.07696 0.55724 0.76575 0.0
C126 C 0.47434 0.1706 0.94104 0.0
O127 O 0.47544 0.179 0.91811 0.0
Cd128 Cd 0.48964 0.16742 0.88003 0.0
O129 O 0.47878 0.15438 0.94401 0.0
Cd130 Cd 0.48885 0.13048 0.91646 0.0
C131 C 0.54067 0.17546 0.90484 0.0
O132 O 0.47452 0.12725 0.86972 0.0
O133 O 0.50224 0.12056 0.87844 0.0
O134 O 0.45615 0.09551 0.93307 0.0
C135 C 0.48848 0.12096 0.86151 0.0
O136 O 0.52971 0.18076 0.88829 0.0
C137 C 0.46776 0.08724 0.94326 0.0
O138 O 0.53006 0.15872 0.9211 0.0
O139 O 0.48954 0.09956 0.9418 0.0
C140 C 0.2754 0.4976 0.11348 0.0
O141 O 0.2677 0.49827 0.09064 0.0
Cd142 Cd 0.29251 0.51229 0.05173 0.0
O143 O 0.2961 0.50228 0.11605 0.0
Cd144 Cd 0.32948 0.5122 0.0874 0.0
C145 C 0.3365 0.56405 0.07506 0.0
O146 O 0.31731 0.49744 0.04103 0.0
O147 O 0.35183 0.52588 0.04854 0.0
O148 O 0.33243 0.4797 0.10343 0.0
C149 C 0.33728 0.5118 0.03207 0.0
O150 O 0.31978 0.5527 0.05913 0.0
C151 C 0.35247 0.4917 0.11319 0.0
O152 O 0.34292 0.55369 0.09127 0.0
O153 O 0.36169 0.51358 0.11184 0.0
C154 C 0.74996 0.29482 0.27617 0.0
O155 O 0.74327 0.28652 0.25311 0.0
Cd156 Cd 0.75196 0.31296 0.21575 0.0
O157 O 0.76415 0.31631 0.27892 0.0
Cd158 Cd 0.78753 0.35012 0.25029 0.0
C159 C 0.74113 0.35405 0.24155 0.0
O160 O 0.7908 0.34007 0.20321 0.0
O161 O 0.79392 0.37323 0.21225 0.0
O162 O 0.82287 0.35276 0.26519 0.0
C163 C 0.79494 0.35996 0.19514 0.0
O164 O 0.73619 0.33766 0.22527 0.0
C165 C 0.8315 0.3729 0.27502 0.0
O166 O 0.75864 0.36157 0.25677 0.0
O167 O 0.81919 0.38237 0.27426 0.0
C168 C 0.17372 0.60198 0.37315 0.0
C169 C 0.1635 0.58724 0.39487 0.0
C170 C 0.18752 0.62583 0.37719 0.0
C171 C 0.22412 0.66365 0.43065 0.0
H172 H 0.24141 0.71071 0.37642 0.0
C173 C 0.31204 0.74658 0.43407 0.0
C174 C 0.32424 0.74852 0.41077 0.0
C175 C 0.28811 0.73218 0.43464 0.0
C176 C 0.23656 0.69784 0.39194 0.0
H177 H 0.15729 0.58549 0.43714 0.0
H178 H 0.18032 0.62712 0.44408 0.0
H179 H 0.20491 0.67433 0.37251 0.0
H180 H 0.32097 0.73859 0.36932 0.0
H181 H 0.27958 0.71368 0.37033 0.0
H182 H 0.25619 0.68658 0.44936 0.0
C183 C 0.17863 0.62046 0.42413 0.0
C184 C 0.21575 0.67698 0.38963 0.0
C185 C 0.16535 0.59666 0.42018 0.0
C186 C 0.31205 0.73712 0.3877 0.0
C187 C 0.28826 0.72311 0.38816 0.0
C188 C 0.24477 0.68451 0.43303 0.0
C189 C 0.19092 0.63521 0.40296 0.0
C190 C 0.20982 0.65921 0.40831 0.0
C191 C 0.27608 0.71996 0.41177 0.0
C192 C 0.25172 0.70133 0.41304 0.0
H193 H 0.17251 0.59495 0.35349 0.0
H194 H 0.19684 0.63659 0.36041 0.0
H195 H 0.22038 0.65035 0.44532 0.0
H196 H 0.32105 0.75533 0.45207 0.0
H197 H 0.27908 0.73002 0.45311 0.0
C198 C 0.54355 0.19571 0.52833 0.0
C199 C 0.5624 0.19941 0.54414 0.0
C200 C 0.53283 0.20874 0.53257 0.0
C201 C 0.52413 0.24169 0.58437 0.0
H202 H 0.52653 0.28328 0.52917 0.0
C203 C 0.54677 0.33387 0.60348 0.0
C204 C 0.5399 0.3452 0.58549 0.0
C205 C 0.53897 0.31034 0.60036 0.0
C206 C 0.52495 0.27134 0.5447 0.0
H207 H 0.58499 0.22 0.5764 0.0
H208 H 0.56626 0.24225 0.58375 0.0
H209 H 0.53333 0.25188 0.51795 0.0
H210 H 0.5185 0.34115 0.55144 0.0
H211 H 0.50439 0.29979 0.5462 0.0
H212 H 0.51706 0.26185 0.61142 0.0
C213 C 0.55965 0.22922 0.56829 0.0
C214 C 0.52892 0.25339 0.5382 0.0
C215 C 0.57054 0.21662 0.56381 0.0
C216 C 0.52372 0.3325 0.56571 0.0
C217 C 0.51585 0.30895 0.56259 0.0
C218 C 0.52 0.25951 0.59085 0.0
C219 C 0.54054 0.2252 0.55304 0.0
C220 C 0.52978 0.23927 0.55824 0.0
C221 C 0.52433 0.29791 0.57903 0.0
C222 C 0.52166 0.27531 0.57133 0.0
H223 H 0.53688 0.18254 0.51305 0.0
H224 H 0.51827 0.20563 0.52035 0.0
H225 H 0.52444 0.23075 0.60008 0.0
H226 H 0.55962 0.34358 0.61852 0.0
H227 H 0.5461 0.30249 0.61319 0.0
C228 C 0.16377 0.5533 0.75016 0.0
C229 C 0.16253 0.56533 0.72792 0.0
C230 C 0.17739 0.54295 0.74937 0.0
C231 C 0.21188 0.52817 0.70411 0.0
H232 H 0.25747 0.55446 0.76016 0.0
C233 C 0.30775 0.56167 0.68866 0.0
C234 C 0.32119 0.56301 0.71061 0.0
C235 C 0.28398 0.552 0.69154 0.0
C236 C 0.24469 0.54633 0.74464 0.0
H237 H 0.17261 0.57416 0.68678 0.0
H238 H 0.19621 0.55637 0.68545 0.0
H239 H 0.22164 0.55422 0.76464 0.0
H240 H 0.32072 0.55353 0.75182 0.0
H241 H 0.27923 0.53579 0.75662 0.0
H242 H 0.23566 0.52153 0.68344 0.0
C243 C 0.18685 0.5548 0.70349 0.0
C244 C 0.22403 0.54618 0.74728 0.0
C245 C 0.17358 0.56532 0.70438 0.0
C246 C 0.31054 0.55284 0.73472 0.0
C247 C 0.28685 0.54281 0.73748 0.0
C248 C 0.23257 0.52828 0.70147 0.0
C249 C 0.18958 0.54421 0.72621 0.0
C250 C 0.20789 0.53812 0.72652 0.0
C251 C 0.27343 0.54332 0.71633 0.0
C252 C 0.24962 0.5383 0.72122 0.0
H253 H 0.15527 0.55295 0.76848 0.0
H254 H 0.17912 0.53479 0.76715 0.0
H255 H 0.19955 0.52154 0.68794 0.0
H256 H 0.31577 0.56955 0.66994 0.0
H257 H 0.27422 0.55285 0.67487 0.0
C258 C 0.71625 0.33255 0.8574 0.0
C259 C 0.72937 0.34645 0.87862 0.0
C260 C 0.70173 0.30875 0.86124 0.0
C261 C 0.66908 0.27093 0.9163 0.0
H262 H 0.64535 0.22422 0.86124 0.0
C263 C 0.57969 0.19003 0.92554 0.0
C264 C 0.56599 0.18839 0.90361 0.0
C265 C 0.60367 0.20395 0.92413 0.0
C266 C 0.65198 0.23699 0.87696 0.0
H267 H 0.73974 0.34671 0.91941 0.0
H268 H 0.71519 0.30514 0.92587 0.0
H269 H 0.68217 0.2598 0.85483 0.0
H270 H 0.56658 0.19851 0.86248 0.0
H271 H 0.60793 0.22262 0.86012 0.0
H272 H 0.63837 0.24884 0.93775 0.0
C273 C 0.71537 0.31245 0.90659 0.0
C274 C 0.67298 0.25738 0.87324 0.0
C275 C 0.72948 0.33618 0.90288 0.0
C276 C 0.57666 0.19973 0.87989 0.0
C277 C 0.60043 0.21329 0.87838 0.0
C278 C 0.64815 0.25058 0.92003 0.0
C279 C 0.70043 0.29864 0.88627 0.0
C280 C 0.68124 0.27501 0.89237 0.0
C281 C 0.6142 0.21602 0.90061 0.0
C282 C 0.63887 0.23392 0.89985 0.0
H283 H 0.71592 0.34027 0.83858 0.0
H284 H 0.69033 0.29867 0.84521 0.0
H285 H 0.67472 0.2842 0.93139 0.0
H286 H 0.57188 0.1813 0.94399 0.0
H287 H 0.61392 0.20578 0.94157 0.0
C288 C 0.36387 0.75181 0.06642 0.0
C289 C 0.35182 0.7497 0.04284 0.0
C290 C 0.37449 0.73877 0.07031 0.0
C291 C 0.38703 0.69605 0.03862 0.0
H292 H 0.3635 0.66328 0.10515 0.0
C293 C 0.34799 0.5997 0.04905 0.0
C294 C 0.34915 0.58949 0.07297 0.0
C295 C 0.35853 0.62359 0.04669 0.0
C296 C 0.37089 0.67259 0.08686 0.0
H297 H 0.34248 0.73378 0.0041 0.0
H298 H 0.36042 0.71019 0.01105 0.0
H299 H 0.36405 0.69929 0.09752 0.0
H300 H 0.36332 0.5963 0.11281 0.0
H301 H 0.38145 0.63857 0.10891 0.0
H302 H 0.39229 0.66825 0.02738 0.0
C303 C 0.36225 0.72233 0.02635 0.0
C304 C 0.37119 0.69331 0.0824 0.0
C305 C 0.35188 0.7357 0.02234 0.0
C306 C 0.36201 0.60376 0.09422 0.0
C307 C 0.3724 0.62786 0.09197 0.0
C308 C 0.38673 0.67529 0.0431 0.0
C309 C 0.37277 0.72298 0.05088 0.0
C310 C 0.37817 0.70465 0.05773 0.0
C311 C 0.3704 0.63794 0.06826 0.0
C312 C 0.37748 0.66276 0.0667 0.0
H313 H 0.36404 0.76269 0.08241 0.0
H314 H 0.38282 0.73999 0.08918 0.0
H315 H 0.39295 0.70464 0.01964 0.0
H316 H 0.33852 0.58919 0.03213 0.0
H317 H 0.35629 0.63071 0.02832 0.0
C318 C 0.72536 0.37696 0.26316 0.0
C319 C 0.72694 0.36511 0.24107 0.0
C320 C 0.71069 0.38612 0.2624 0.0
C321 C 0.67673 0.40122 0.21682 0.0
H322 H 0.6301 0.37495 0.27135 0.0
C323 C 0.58227 0.37268 0.1982 0.0
C324 C 0.56842 0.37067 0.21982 0.0
C325 C 0.60581 0.38135 0.20201 0.0
C326 C 0.6432 0.3831 0.25628 0.0
H327 H 0.71565 0.35481 0.20041 0.0
H328 H 0.69036 0.37072 0.19914 0.0
H329 H 0.66519 0.37367 0.27666 0.0
H330 H 0.56807 0.37806 0.26153 0.0
H331 H 0.60927 0.39429 0.26798 0.0
H332 H 0.65426 0.40977 0.19587 0.0
C333 C 0.70029 0.37299 0.21701 0.0
C334 C 0.66337 0.38232 0.25938 0.0
C335 C 0.71455 0.36357 0.2179 0.0
C336 C 0.57856 0.37932 0.24465 0.0
C337 C 0.60208 0.38843 0.24835 0.0
C338 C 0.6566 0.40219 0.21379 0.0
C339 C 0.69786 0.38398 0.23936 0.0
C340 C 0.67984 0.39042 0.23916 0.0
C341 C 0.61579 0.3884 0.22744 0.0
C342 C 0.63915 0.39221 0.23296 0.0
H343 H 0.73484 0.37849 0.2812 0.0
H344 H 0.70903 0.39448 0.27993 0.0
H345 H 0.68934 0.40785 0.20107 0.0
H346 H 0.57464 0.36591 0.17894 0.0
H347 H 0.61575 0.38087 0.18547 0.0
C348 C 0.12224 0.59329 0.64468 0.0
C349 C 0.10121 0.58436 0.65798 0.0
C350 C 0.12321 0.58452 0.61979 0.0
C351 C 0.089 0.531 0.57974 0.0
H352 H 0.1336 0.5655 0.52498 0.0
C353 C 0.08309 0.50022 0.47168 0.0
C354 C 0.10326 0.50356 0.4596 0.0
C355 C 0.0837 0.50827 0.49737 0.0
C356 C 0.12126 0.55561 0.5403 0.0
H357 H 0.06461 0.56055 0.65533 0.0
H358 H 0.06591 0.54645 0.61125 0.0
H359 H 0.13241 0.58543 0.56495 0.0
H360 H 0.13983 0.51755 0.46483 0.0
H361 H 0.14103 0.53209 0.50989 0.0
H362 H 0.07733 0.5014 0.55452 0.0
C363 C 0.08187 0.55946 0.62023 0.0
C364 C 0.12053 0.56702 0.56322 0.0
C365 C 0.081 0.56786 0.64526 0.0
C366 C 0.12396 0.51428 0.47402 0.0
C367 C 0.12469 0.52287 0.49958 0.0
C368 C 0.08953 0.51972 0.55671 0.0
C369 C 0.10309 0.56683 0.60768 0.0
C370 C 0.1042 0.55491 0.58316 0.0
C371 C 0.10464 0.52041 0.51121 0.0
C372 C 0.10555 0.53191 0.53669 0.0
H373 H 0.13813 0.60559 0.65447 0.0
H374 H 0.13989 0.59058 0.61092 0.0
H375 H 0.07665 0.52083 0.59492 0.0
H376 H 0.06703 0.4924 0.46071 0.0
H377 H 0.06803 0.50628 0.50575 0.0
C378 C 0.53767 0.13287 0.62728 0.0
C379 C 0.55526 0.1283 0.62059 0.0
C380 C 0.52952 0.12996 0.65315 0.0
C381 C 0.54421 0.12555 0.72281 0.0
H382 H 0.47932 0.10341 0.73355 0.0
C383 C 0.50485 0.10713 0.82692 0.0
C384 C 0.49128 0.11695 0.83323 0.0
C385 C 0.51101 0.10634 0.80077 0.0
C386 C 0.49749 0.10976 0.73084 0.0
H387 H 0.57819 0.11721 0.63606 0.0
H388 H 0.56354 0.11161 0.68167 0.0
H389 H 0.4938 0.10546 0.68875 0.0
H390 H 0.47248 0.13253 0.81677 0.0
H391 H 0.48315 0.13093 0.77056 0.0
H392 H 0.54777 0.12961 0.765 0.0
C393 C 0.55629 0.11775 0.66671 0.0
C394 C 0.50585 0.11097 0.70518 0.0
C395 C 0.56465 0.12087 0.64061 0.0
C396 C 0.48289 0.12481 0.81251 0.0
C397 C 0.48904 0.12393 0.78612 0.0
C398 C 0.5358 0.12413 0.74849 0.0
C399 C 0.53849 0.12216 0.67322 0.0
C400 C 0.52938 0.11918 0.70077 0.0
C401 C 0.50372 0.11526 0.78013 0.0
C402 C 0.51238 0.11638 0.75277 0.0
H403 H 0.53018 0.13893 0.6125 0.0
H404 H 0.51632 0.13418 0.65742 0.0
H405 H 0.56244 0.13228 0.72022 0.0
H406 H 0.51138 0.10064 0.84235 0.0
H407 H 0.52188 0.09909 0.79675 0.0
C408 C 0.3265 0.50436 -0.01654 0.0
C409 C 0.34323 0.51478 0.00348 0.0
C410 C 0.33252 0.5101 0.95669 0.0
C411 C 0.37541 0.55796 0.91588 0.0
H412 H 0.35576 0.51283 0.85933 0.0
C413 C 0.40702 0.58405 0.80724 0.0
C414 C 0.39095 0.57184 0.78712 0.0
C415 C 0.40191 0.57687 0.83382 0.0
C416 C 0.36117 0.52574 0.87481 0.0
H417 H 0.37958 0.53837 0.01097 0.0
H418 H 0.38982 0.54823 0.96477 0.0
H419 H 0.34433 0.49984 0.9049 0.0
H420 H 0.35661 0.54306 0.77922 0.0
H421 H 0.34757 0.53121 0.82496 0.0
H422 H 0.39179 0.58393 0.88592 0.0
C423 C 0.37207 0.53599 0.96962 0.0
C424 C 0.35462 0.51822 0.90093 0.0
C425 C 0.36615 0.53019 -0.00388 0.0
C426 C 0.3696 0.55269 0.79414 0.0
C427 C 0.36442 0.54573 0.82049 0.0
C428 C 0.38175 0.56551 0.88974 0.0
C429 C 0.35529 0.52643 0.94963 0.0
C430 C 0.3617 0.53425 0.92175 0.0
C431 C 0.38054 0.5575 0.84073 0.0
C432 C 0.37467 0.54951 0.8688 0.0
H433 H 0.30872 0.49248 -0.0115 0.0
H434 H 0.31923 0.50245 0.94162 0.0
H435 H 0.38093 0.57076 0.93153 0.0
H436 H 0.4236 0.59886 0.80242 0.0
H437 H 0.41483 0.58628 0.84886 0.0
C438 C 0.79555 0.35181 0.14626 0.0
C439 C 0.79836 0.36712 0.16687 0.0
C440 C 0.7967 0.35867 0.11965 0.0
C441 C 0.78776 0.39901 0.07861 0.0
H442 H 0.82234 0.3885 0.02485 0.0
C443 C 0.79533 0.43335 0.97092 0.0
C444 C 0.79444 0.41861 0.95061 0.0
C445 C 0.79737 0.4283 -0.00244 0.0
C446 C 0.81235 0.39135 0.03952 0.0
H447 H 0.80559 0.40195 0.17564 0.0
H448 H 0.80745 0.41363 0.12972 0.0
H449 H 0.82235 0.37598 0.07039 0.0
H450 H 0.7948 0.38693 0.94242 0.0
H451 H 0.79759 0.37795 -0.01181 0.0
H452 H 0.77722 0.41382 0.04783 0.0
C453 C 0.80406 0.3963 0.13397 0.0
C454 C 0.8124 0.38416 0.06562 0.0
C455 C 0.80309 0.38957 0.16033 0.0
C456 C 0.79566 0.39886 0.95747 0.0
C457 C 0.79746 0.39374 -0.01613 0.0
C458 C 0.78748 0.40597 0.05247 0.0
C459 C 0.80049 0.38086 0.11333 0.0
C460 C 0.80013 0.38793 0.08544 0.0
C461 C 0.79838 0.40834 0.00434 0.0
C462 C 0.7997 0.40215 0.03252 0.0
H463 H 0.79187 0.33442 0.15066 0.0
H464 H 0.79388 0.34641 0.10407 0.0
H465 H 0.77794 0.40195 0.09345 0.0
H466 H 0.79444 0.44869 0.96626 0.0
H467 H 0.79826 0.44009 0.01279 0.0
C468 C 0.3272 0.81117 0.13932 0.0
C469 C 0.33963 0.80776 0.11934 0.0
C470 C 0.33429 0.81325 0.16596 0.0
C471 C 0.38538 0.82484 0.20728 0.0
H472 H 0.34071 0.79804 0.26382 0.0
C473 C 0.40768 0.8118 0.3157 0.0
C474 C 0.39712 0.81759 0.33583 0.0
C475 C 0.40165 0.81194 0.289 0.0
C476 C 0.3534 0.80575 0.24823 0.0
H477 H 0.3687 0.80298 0.11176 0.0
H478 H 0.38039 0.80581 0.1576 0.0
H479 H 0.32753 0.79565 0.21814 0.0
H480 H 0.37275 0.82909 0.34356 0.0
H481 H 0.36237 0.82924 0.29743 0.0
H482 H 0.41119 0.83444 0.23746 0.0
C483 C 0.36576 0.80778 0.15297 0.0
C484 C 0.34584 0.80449 0.22205 0.0
C485 C 0.35889 0.80599 0.12656 0.0
C486 C 0.3811 0.8243 0.32863 0.0
C487 C 0.375 0.82428 0.30217 0.0
C488 C 0.39291 0.82586 0.23343 0.0
C489 C 0.35379 0.81172 0.17306 0.0
C490 C 0.36173 0.81394 0.20117 0.0
C491 C 0.38485 0.81771 0.28208 0.0
C492 C 0.377 0.81634 0.25419 0.0
H493 H 0.3123 0.81259 0.13434 0.0
H494 H 0.32471 0.81642 0.18089 0.0
H495 H 0.39818 0.83276 0.19185 0.0
H496 H 0.42004 0.80651 0.32061 0.0
H497 H 0.40953 0.80679 0.27387 0.0
C498 C 0.48932 0.33825 0.30632 0.0
C499 C 0.48815 0.354 0.28882 0.0
C500 C 0.49635 0.34462 0.33273 0.0
C501 C 0.52928 0.39767 0.37367 0.0
H502 H 0.50425 0.35532 0.43305 0.0
C503 C 0.56542 0.42236 0.48152 0.0
C504 C 0.54882 0.41445 0.50169 0.0
C505 C 0.55891 0.41491 0.45522 0.0
C506 C 0.51138 0.36741 0.41667 0.0
H507 H 0.49185 0.38797 0.2854 0.0
H508 H 0.503 0.39864 0.33146 0.0
H509 H 0.48953 0.34173 0.38846 0.0
H510 H 0.51231 0.39325 0.50984 0.0
H511 H 0.50111 0.38072 0.46448 0.0
H512 H 0.5506 0.42354 0.40203 0.0
C513 C 0.49941 0.38177 0.32481 0.0
C514 C 0.50308 0.35953 0.39106 0.0
C515 C 0.4927 0.37554 0.2985 0.0
C516 C 0.52562 0.39956 0.49489 0.0
C517 C 0.51917 0.39215 0.46884 0.0
C518 C 0.53753 0.40556 0.3993 0.0
C519 C 0.50213 0.36675 0.34206 0.0
C520 C 0.51165 0.37466 0.36926 0.0
C521 C 0.53571 0.39937 0.44872 0.0
C522 C 0.52841 0.39063 0.42117 0.0
H523 H 0.48622 0.32166 0.29921 0.0
H524 H 0.49829 0.33262 0.34544 0.0
H525 H 0.53669 0.4097 0.35729 0.0
H526 H 0.58343 0.43376 0.48615 0.0
H527 H 0.57209 0.4208 0.44015 0.0
C528 C 0.86763 0.37339 0.28744 0.0
C529 C 0.85541 0.3852 0.28498 0.0
C530 C 0.89094 0.38531 0.29401 0.0
C531 C 0.93762 0.44017 0.32183 0.0
H532 H -0.02353 0.4229 0.28343 0.0
C533 C 0.03653 0.49154 0.33118 0.0
C534 C 0.04687 0.4781 0.33578 0.0
C535 C 0.0135 0.48107 0.32336 0.0
C536 C -0.03417 0.42783 0.2944 0.0
H537 H 0.85783 0.41865 0.2883 0.0
H538 H 0.89873 0.43959 0.29948 0.0
H539 H 0.93531 0.40284 0.27436 0.0
H540 H 0.04146 0.4433 0.33481 0.0
H541 H 0.00133 0.42507 0.32102 0.0
H542 H -0.03174 0.46522 0.34183 0.0
C543 C 0.89021 0.42105 0.29659 0.0
C544 C 0.94223 0.41629 0.28931 0.0
C545 C 0.86679 0.40907 0.29014 0.0
C546 C 0.03399 0.45413 0.3314 0.0
C547 C 0.01102 0.44369 0.32342 0.0
C548 C -0.03874 0.45179 0.32685 0.0
C549 C 0.90263 0.40935 0.2981 0.0
C550 C 0.92781 0.42214 0.30316 0.0
C551 C 0.00042 0.45699 0.31978 0.0
C552 C -0.02443 0.44559 0.31335 0.0
H553 H 0.8593 0.35496 0.2838 0.0
H554 H 0.89987 0.37568 0.29564 0.0
H555 H 0.92697 0.44495 0.33303 0.0
H556 H 0.04601 0.51007 0.33439 0.0
H557 H 0.00584 0.49178 0.32037 0.0
C558 C 0.42073 0.88426 0.46303 0.0
C559 C 0.43369 0.87367 0.45738 0.0
C560 C 0.43164 0.90738 0.47111 0.0
C561 C 0.48548 0.95424 0.49955 0.0
H562 H 0.4698 -0.00493 0.46178 0.0
C563 C 0.54341 0.05269 0.50483 0.0
C564 C 0.53289 0.06616 0.50706 0.0
C565 C 0.53034 0.02915 0.4991 0.0
C566 C 0.47416 -0.01613 0.47279 0.0
H567 H 0.4681 0.87866 0.45671 0.0
H568 H 0.48707 0.91887 0.47105 0.0
H569 H 0.44817 0.95353 0.45304 0.0
H570 H 0.50051 0.06565 0.50443 0.0
H571 H 0.47754 0.02432 0.49475 0.0
H572 H 0.51142 -0.01559 0.51934 0.0
C573 C 0.46851 0.90935 0.46922 0.0
C574 C 0.46177 0.96009 0.46778 0.0
C575 C 0.45765 0.88635 0.4609 0.0
C576 C 0.5091 0.05572 0.50271 0.0
C577 C 0.49596 0.03206 0.49713 0.0
C578 C 0.49776 -0.02205 0.50467 0.0
C579 C 0.45566 0.9202 0.47399 0.0
C580 C 0.46753 0.9451 0.48085 0.0
C581 C 0.50641 0.01844 0.49567 0.0
C582 C 0.4925 -0.0069 0.49105 0.0
H583 H 0.40224 0.87492 0.46046 0.0
H584 H 0.42132 0.91528 0.47491 0.0
H585 H 0.49007 0.94304 0.51019 0.0
H586 H 0.56175 0.06027 0.50787 0.0
H587 H 0.53902 0.0193 0.49747 0.0
C588 C 0.4573 0.56505 0.66802 0.0
C589 C 0.43328 0.55297 0.67061 0.0
C590 C 0.46881 0.55344 0.66089 0.0
C591 C 0.45997 0.49854 0.63211 0.0
H592 H 0.51802 0.51678 0.66732 0.0
C593 C 0.50618 0.4459 0.62409 0.0
C594 C 0.52966 0.45876 0.61773 0.0
C595 C 0.49425 0.45711 0.6312 0.0
C596 C 0.50189 0.51161 0.65724 0.0
H597 H 0.40239 0.51933 0.66732 0.0
H598 H 0.4225 0.49891 0.65547 0.0
H599 H 0.49731 0.5369 0.67763 0.0
H600 H 0.5592 0.49339 0.61453 0.0
H601 H 0.53838 0.51294 0.62731 0.0
H602 H 0.46451 0.47296 0.61207 0.0
C603 C 0.43246 0.51744 0.65846 0.0
C604 C 0.49006 0.52318 0.66302 0.0
C605 C 0.42092 0.52912 0.66534 0.0
C606 C 0.54111 0.48301 0.61932 0.0
C607 C 0.52923 0.49421 0.62672 0.0
C608 C 0.47172 0.48682 0.62653 0.0
C609 C 0.45658 0.52942 0.65646 0.0
C610 C 0.46902 0.5169 0.6504 0.0
C611 C 0.50563 0.48137 0.63239 0.0
C612 C 0.49285 0.49333 0.63894 0.0
H613 H 0.46728 0.58348 0.67176 0.0
H614 H 0.48733 0.56331 0.65894 0.0
H615 H 0.44399 0.49345 0.62175 0.0
H616 H 0.49689 0.42719 0.623 0.0
H617 H 0.47611 0.44681 0.63574 0.0
C618 C 0.03015 0.53075 0.78303 0.0
C619 C 0.04168 0.55484 0.77931 0.0
C620 C 0.00693 0.5187 0.79008 0.0
C621 C -0.04485 0.52435 0.78723 0.0
H622 H 0.92979 0.4719 0.83529 0.0
C623 C 0.86348 0.48267 0.82973 0.0
C624 C 0.85066 0.45841 0.83126 0.0
C625 C 0.88652 0.49394 0.82216 0.0
C626 C 0.93661 0.48635 0.82158 0.0
H627 H 0.03828 0.58534 0.78129 0.0
H628 H -0.00199 0.56444 0.79425 0.0
H629 H -0.02901 0.49294 0.82632 0.0
H630 H 0.85175 0.42689 0.82546 0.0
H631 H 0.89213 0.44665 0.81222 0.0
H632 H 0.9208 0.51794 0.78282 0.0
C633 C 0.00667 0.55474 0.79103 0.0
C634 C -0.0398 0.49842 0.81646 0.0
C635 C 0.02981 0.56675 0.78382 0.0
C636 C 0.86119 0.44561 0.82443 0.0
C637 C 0.88432 0.4569 0.81705 0.0
C638 C 0.93162 0.51238 0.79247 0.0
C639 C -0.00518 0.53052 0.79369 0.0
C640 C -0.03024 0.51763 0.7993 0.0
C641 C 0.89727 0.48119 0.81613 0.0
C642 C 0.92211 0.49331 0.80976 0.0
H643 H 0.03881 0.52108 0.77959 0.0
H644 H -0.0017 0.50004 0.79176 0.0
H645 H -0.03815 0.53874 0.77345 0.0
H646 H 0.85585 0.49302 0.83489 0.0
H647 H 0.89612 0.51268 0.82183 0.0
C648 C 0.46856 0.05212 0.95893 0.0
C649 C 0.45624 0.06361 0.95437 0.0
C650 C 0.45704 0.02877 0.96624 0.0
C651 C 0.39925 -0.02332 0.96239 0.0
H652 H 0.42506 0.95072 0.0111 0.0
C653 C 0.34799 0.88346 0.00289 0.0
C654 C 0.35934 0.8707 0.00388 0.0
C655 C 0.36 0.90691 -0.00374 0.0
C656 C 0.41778 0.95773 -0.00275 0.0
H657 H 0.42245 0.06012 0.95533 0.0
H658 H 0.40248 0.01968 0.96883 0.0
H659 H 0.44575 -0.00769 0.00256 0.0
H660 H 0.39204 0.87237 -0.00174 0.0
H661 H 0.41304 0.91344 -0.01329 0.0
H662 H 0.37114 0.94212 0.95739 0.0
C663 C 0.42091 0.02842 0.96598 0.0
C664 C 0.42961 -0.01847 -0.00764 0.0
C665 C 0.43238 0.05165 0.95846 0.0
C666 C 0.38283 0.88175 -0.00238 0.0
C667 C 0.39489 0.90527 -0.00879 0.0
C668 C 0.38737 0.95294 0.96743 0.0
C669 C 0.43301 0.01654 0.96933 0.0
C670 C 0.42045 -0.00871 0.9749 0.0
C671 C 0.38362 0.91811 -0.00931 0.0
C672 C 0.3965 0.94323 -0.01508 0.0
H673 H 0.48696 0.06088 0.95583 0.0
H674 H 0.46687 0.02012 0.96847 0.0
H675 H 0.39193 -0.01648 0.94837 0.0
H676 H 0.3299 0.87543 0.00764 0.0
H677 H 0.35092 0.91644 -0.00381 0.0
C678 C 0.3887 0.49355 0.129 0.0
C679 C 0.36497 0.48053 0.1238 0.0
C680 C 0.40088 0.48251 0.13618 0.0
C681 C 0.39373 0.42768 0.16227 0.0
H682 H 0.45001 0.44512 0.12404 0.0
C683 C 0.43508 0.37099 0.16562 0.0
C684 C 0.45906 0.38224 0.16877 0.0
C685 C 0.42429 0.38361 0.15966 0.0
C686 C 0.43448 0.44022 0.13511 0.0
H687 H 0.33525 0.44587 0.12301 0.0
H688 H 0.35644 0.42669 0.13566 0.0
H689 H 0.43008 0.46667 0.11678 0.0
H690 H 0.49063 0.41545 0.16718 0.0
H691 H 0.47176 0.43757 0.15705 0.0
H692 H 0.39804 0.40128 0.18063 0.0
C693 C 0.36565 0.44539 0.13424 0.0
C694 C 0.42309 0.45259 0.13099 0.0
C695 C 0.35353 0.45638 0.12689 0.0
C696 C 0.47212 0.40628 0.16479 0.0
C697 C 0.46131 0.41895 0.15894 0.0
C698 C 0.40513 0.41539 0.16646 0.0
C699 C 0.38951 0.45829 0.13853 0.0
C700 C 0.40247 0.44628 0.14432 0.0
C701 C 0.43722 0.4078 0.15686 0.0
C702 C 0.42549 0.42132 0.15271 0.0
H703 H 0.39799 0.51219 0.12675 0.0
H704 H 0.41923 0.49289 0.13966 0.0
H705 H 0.37804 0.42264 0.1731 0.0
H706 H 0.42455 0.35245 0.16839 0.0
H707 H 0.40576 0.37443 0.15758 0.0
C708 C 0.15725 0.49346 0.30057 0.0
C709 C 0.16716 0.49584 0.32589 0.0
C710 C 0.16786 0.49108 0.27794 0.0
C711 C 0.22474 0.5034 0.25371 0.0
H712 H 0.18954 0.46422 0.19475 0.0
C713 C 0.26965 0.49219 0.16275 0.0
C714 C 0.26102 0.4931 0.13756 0.0
C715 C 0.25727 0.49026 0.18576 0.0
C716 C 0.19961 0.47539 0.21095 0.0
H717 H 0.19575 0.49687 0.34719 0.0
H718 H 0.21403 0.49241 0.3078 0.0
H719 H 0.16974 0.46488 0.23492 0.0
H720 H 0.23209 0.49188 0.1169 0.0
H721 H 0.21055 0.48867 0.15709 0.0
H722 H 0.25455 0.5141 0.22976 0.0
C723 C 0.19825 0.4928 0.30538 0.0
C724 C 0.18826 0.47578 0.23401 0.0
C725 C 0.18765 0.4952 0.32801 0.0
C726 C 0.23927 0.4912 0.13594 0.0
C727 C 0.22687 0.48928 0.15902 0.0
C728 C 0.23606 0.503 0.23071 0.0
C729 C 0.18865 0.49099 0.27998 0.0
C730 C 0.20067 0.48986 0.25569 0.0
C731 C 0.23591 0.48921 0.18426 0.0
C732 C 0.22368 0.48904 0.20897 0.0
H733 H 0.14152 0.4939 0.2981 0.0
H734 H 0.16006 0.48999 0.25874 0.0
H735 H 0.23486 0.51481 0.26972 0.0
H736 H 0.28625 0.49343 0.16481 0.0
H737 H 0.26458 0.48979 0.20479 0.0
C738 C 0.74165 0.29058 0.32487 0.0
C739 C 0.74001 0.28014 0.30014 0.0
C740 C 0.73056 0.27715 0.34716 0.0
C741 C 0.7078 0.22126 0.37902 0.0
H742 H 0.66413 0.23506 0.41192 0.0
C743 C 0.66407 0.18844 0.48319 0.0
C744 C 0.64 0.17837 0.48295 0.0
C745 C 0.67694 0.19901 0.46028 0.0
C746 C 0.67628 0.23103 0.40294 0.0
H747 H 0.72617 0.24725 0.2798 0.0
H748 H 0.70724 0.22366 0.31924 0.0
H749 H 0.68608 0.25738 0.37331 0.0
H750 H 0.61062 0.17113 0.4582 0.0
H751 H 0.63313 0.19007 0.41871 0.0
H752 H 0.69828 0.19521 0.40925 0.0
C753 C 0.71698 0.24233 0.32106 0.0
C754 C 0.68886 0.24383 0.38095 0.0
C755 C 0.72773 0.25583 0.29853 0.0
C756 C 0.6291 0.17865 0.45915 0.0
C757 C 0.64197 0.18957 0.43651 0.0
C758 C 0.69553 0.20874 0.40149 0.0
C759 C 0.71792 0.25293 0.34543 0.0
C760 C 0.70468 0.23904 0.36871 0.0
C761 C 0.66601 0.2001 0.43693 0.0
C762 C 0.67954 0.21344 0.41351 0.0
H763 H 0.7509 0.30924 0.32688 0.0
H764 H 0.73162 0.28572 0.36575 0.0
H765 H 0.71997 0.21732 0.36995 0.0
H766 H 0.67299 0.18849 0.50117 0.0
H767 H 0.69549 0.20711 0.4611 0.0
C768 C 0.42095 0.67863 0.65489 0.0
C769 C 0.41969 0.65703 0.65345 0.0
C770 C 0.42428 0.69184 0.63192 0.0
C771 C 0.41571 0.68491 0.55924 0.0
H772 H 0.45177 0.75191 0.55839 0.0
C773 C 0.4249 0.73668 0.46353 0.0
C774 C 0.4225 0.75626 0.46636 0.0
C775 C 0.42766 0.72575 0.48586 0.0
C776 C 0.4415 0.7332 0.55832 0.0
H777 H 0.42202 0.63295 0.62671 0.0
H778 H 0.42806 0.65603 0.58691 0.0
H779 H 0.45092 0.73082 0.59845 0.0
H780 H 0.42202 0.78014 0.49501 0.0
H781 H 0.42658 0.76101 0.53376 0.0
H782 H 0.40592 0.68722 0.51939 0.0
C783 C 0.42603 0.66259 0.6057 0.0
C784 C 0.44101 0.72111 0.58132 0.0
C785 C 0.4227 0.6494 0.62861 0.0
C786 C 0.4238 0.7651 0.49201 0.0
C787 C 0.42655 0.75418 0.51431 0.0
C788 C 0.41618 0.69699 0.5363 0.0
C789 C 0.42643 0.68378 0.60694 0.0
C790 C 0.42796 0.69679 0.58215 0.0
C791 C 0.42811 0.7341 0.5116 0.0
C792 C 0.42892 0.72131 0.53557 0.0
H793 H 0.41868 0.68505 0.67365 0.0
H794 H 0.42432 0.70798 0.63363 0.0
H795 H 0.40514 0.66623 0.55925 0.0
H796 H 0.42408 0.72943 0.44411 0.0
H797 H 0.42919 0.71056 0.48296 0.0
C798 C 0.71286 0.44673 0.824 0.0
C799 C 0.73219 0.44418 0.82078 0.0
C800 C 0.70191 0.44979 0.80192 0.0
C801 C 0.70919 0.46453 0.7297 0.0
H802 H 0.64258 0.42911 0.72889 0.0
C803 C 0.65477 0.44524 0.63346 0.0
C804 C 0.63352 0.44443 0.635 0.0
C805 C 0.66792 0.44836 0.65637 0.0
C806 C 0.66117 0.43943 0.72889 0.0
H807 H 0.75553 0.44359 0.79169 0.0
H808 H 0.73636 0.44861 0.75338 0.0
H809 H 0.66338 0.42897 0.76845 0.0
H810 H 0.61003 0.44734 0.66185 0.0
H811 H 0.63302 0.45299 0.7016 0.0
H812 H 0.70689 0.47458 0.68984 0.0
C813 C 0.72975 0.44853 0.77295 0.0
C814 C 0.67314 0.43937 0.75165 0.0
C815 C 0.7407 0.4455 0.795 0.0
C816 C 0.62622 0.44773 0.65988 0.0
C817 C 0.63934 0.45081 0.68275 0.0
C818 C 0.6972 0.46456 0.70688 0.0
C819 C 0.70999 0.45037 0.77605 0.0
C820 C 0.69732 0.45174 0.75232 0.0
C821 C 0.66015 0.45072 0.6814 0.0
C822 C 0.67303 0.45184 0.7061 0.0
H823 H 0.70587 0.44591 0.84354 0.0
H824 H 0.68696 0.45152 0.80513 0.0
H825 H 0.72779 0.47456 0.72959 0.0
H826 H 0.66094 0.44275 0.61467 0.0
H827 H 0.68376 0.44802 0.65457 0.0
C828 C 0.26395 0.75989 0.95972 0.0
C829 C 0.25607 0.75018 -0.01499 0.0
C830 C 0.25071 0.74949 0.93701 0.0
C831 C 0.20433 0.69278 0.91277 0.0
H832 H 0.20398 0.72856 0.85223 0.0
C833 C 0.15027 0.64857 0.81915 0.0
C834 C 0.16103 0.657 0.79447 0.0
C835 C 0.16027 0.66082 0.84255 0.0
C836 C 0.20403 0.71832 0.8689 0.0
H837 H 0.22754 0.7223 0.00619 0.0
H838 H 0.20428 0.70439 0.96663 0.0
H839 H 0.22387 0.74836 0.89296 0.0
H840 H 0.19052 0.6854 0.77515 0.0
H841 H 0.20801 0.7067 0.81599 0.0
H842 H 0.18471 0.66276 0.88869 0.0
C843 C 0.22095 0.71983 0.96431 0.0
C844 C 0.21545 0.72967 0.89228 0.0
C845 C 0.23422 0.73021 -0.01294 0.0
C846 C 0.18172 0.67838 0.79376 0.0
C847 C 0.19172 0.69066 0.8172 0.0
C848 C 0.19289 0.68144 0.88945 0.0
C849 C 0.22917 0.72911 0.93892 0.0
C850 C 0.21591 0.71706 0.91448 0.0
C851 C 0.1813 0.68186 0.84195 0.0
C852 C 0.19272 0.69405 0.86712 0.0
H853 H 0.2807 0.77523 0.95732 0.0
H854 H 0.25776 0.75703 0.91784 0.0
H855 H 0.20464 0.68247 0.92922 0.0
H856 H 0.13426 0.63225 0.82051 0.0
H857 H 0.15156 0.65371 0.86118 0.0
C858 C 0.47225 0.28592 0.12859 0.0
C859 C 0.47367 0.27768 0.15387 0.0
C860 C 0.4694 0.27282 0.1058 0.0
C861 C 0.47894 0.22623 0.08158 0.0
H862 H 0.44255 0.22542 0.02123 0.0
C863 C 0.46733 0.17033 -0.01008 0.0
C864 C 0.4696 0.18059 0.96485 0.0
C865 C 0.4653 0.18082 0.01286 0.0
C866 C 0.45293 0.22562 0.03783 0.0
H867 H 0.47236 0.24871 0.17493 0.0
H868 H 0.46707 0.22575 0.13526 0.0
H869 H 0.44341 0.24591 0.06165 0.0
H870 H 0.47062 0.20962 0.94429 0.0
H871 H 0.46726 0.22807 -0.01557 0.0
H872 H 0.48868 0.2062 0.05782 0.0
C873 C 0.46859 0.24257 0.13301 0.0
C874 C 0.45342 0.23737 0.06103 0.0
C875 C 0.47148 0.25569 0.15581 0.0
C876 C 0.46888 0.20121 0.96324 0.0
C877 C 0.46688 0.21176 -0.01372 0.0
C878 C 0.47842 0.21449 0.05846 0.0
C879 C 0.46786 0.2511 0.10764 0.0
C880 C 0.46651 0.23789 0.0832 0.0
C881 C 0.46554 0.20193 0.01145 0.0
C882 C 0.46547 0.21405 0.03624 0.0
H883 H 0.47389 0.30277 0.12628 0.0
H884 H 0.46916 0.28009 0.08664 0.0
H885 H 0.48959 0.22663 0.09798 0.0
H886 H 0.4676 0.15435 -0.00805 0.0
H887 H 0.4638 0.17248 0.03181 0.0
loop_
_geom_bond_atom_site_label_1
_geom_bond_atom_site_label_2
_geom_bond_distance
_geom_bond_site_symmetry_2
_ccdc_geom_bond_type
C0 O1 1.306 . S
C0 O3 1.160 . S
O1 C0 1.306 . S
O1 Cd2 2.228 . S
Cd2 O1 2.228 . S
Cd2 O6 2.273 . S
Cd2 O10 2.277 . S
O3 C0 1.160 . S
O3 Cd4 2.203 . S
Cd4 O3 2.203 . S
Cd4 O6 2.411 . S
Cd4 O7 2.333 . S
Cd4 O8 2.352 . S
Cd4 O12 2.277 . S
Cd4 O13 2.356 . S
C5 O10 1.209 . S
C5 O12 1.226 . S
O6 Cd2 2.273 . S
O6 Cd4 2.411 . S
O6 C9 1.320 . S
O7 Cd4 2.333 . S
O7 C9 1.214 . S
O8 Cd4 2.352 . S
O8 C11 1.258 . S
C9 O6 1.320 . S
C9 O7 1.214 . S
O10 Cd2 2.277 . S
O10 C5 1.209 . S
C11 O8 1.258 . S
C11 O13 1.282 . S
O12 Cd4 2.277 . S
O12 C5 1.226 . S
O13 Cd4 2.356 . S
O13 C11 1.282 . S
C14 O15 1.306 . S
C14 O17 1.160 . S
O15 C14 1.306 . S
O15 Cd16 2.228 . S
Cd16 O15 2.228 . S
Cd16 O20 2.273 . S
Cd16 O24 2.277 . S
O17 C14 1.160 . S
O17 Cd18 2.203 . S
Cd18 O17 2.203 . S
Cd18 O20 2.411 . S
Cd18 O21 2.333 . S
Cd18 O22 2.352 . S
Cd18 O26 2.277 . S
Cd18 O27 2.356 . S
C19 O24 1.209 . S
C19 O26 1.226 . S
O20 Cd16 2.273 . S
O20 Cd18 2.411 . S
O20 C23 1.320 . S
O21 Cd18 2.333 . S
O21 C23 1.214 . S
O22 Cd18 2.352 . S
O22 C25 1.258 . S
C23 O20 1.320 . S
C23 O21 1.214 . S
O24 Cd16 2.277 . S
O24 C19 1.209 . S
C25 O22 1.258 . S
C25 O27 1.282 . S
O26 Cd18 2.277 . S
O26 C19 1.226 . S
O27 Cd18 2.356 . S
O27 C25 1.282 . S
C28 O29 1.306 . S
C28 O31 1.160 . S
O29 C28 1.306 . S
O29 Cd30 2.228 . S
Cd30 O29 2.228 . S
Cd30 O34 2.273 . S
Cd30 O38 2.277 . S
O31 C28 1.160 . S
O31 Cd32 2.203 . S
Cd32 O31 2.203 . S
Cd32 O34 2.411 . S
Cd32 O35 2.333 . S
Cd32 O36 2.352 . S
Cd32 O40 2.277 . S
Cd32 O41 2.356 . S
C33 O38 1.209 . S
C33 O40 1.226 . S
O34 Cd30 2.273 . S
O34 Cd32 2.411 . S
O34 C37 1.320 . S
O35 Cd32 2.333 . S
O35 C37 1.214 . S
O36 Cd32 2.352 . S
O36 C39 1.258 . S
C37 O34 1.320 . S
C37 O35 1.214 . S
O38 Cd30 2.277 . S
O38 C33 1.209 . S
C39 O36 1.258 . S
C39 O41 1.282 . S
O40 Cd32 2.277 . S
O40 C33 1.226 . S
O41 Cd32 2.356 . S
O41 C39 1.282 . S
C42 O43 1.306 . S
C42 O45 1.160 . S
O43 C42 1.306 . S
O43 Cd44 2.228 . S
Cd44 O43 2.228 . S
Cd44 O48 2.273 . S
Cd44 O52 2.277 . S
O45 C42 1.160 . S
O45 Cd46 2.203 . S
Cd46 O45 2.203 . S
Cd46 O48 2.411 . S
Cd46 O49 2.333 . S
Cd46 O50 2.352 . S
Cd46 O54 2.277 . S
Cd46 O55 2.356 . S
C47 O52 1.209 . S
C47 O54 1.226 . S
O48 Cd44 2.273 . S
O48 Cd46 2.411 . S
O48 C51 1.320 . S
O49 Cd46 2.333 . S
O49 C51 1.214 . S
O50 Cd46 2.352 . S
O50 C53 1.258 . S
C51 O48 1.320 . S
C51 O49 1.214 . S
O52 Cd44 2.277 . S
O52 C47 1.209 . S
C53 O50 1.258 . S
C53 O55 1.282 . S
O54 Cd46 2.277 . S
O54 C47 1.226 . S
O55 Cd46 2.356 . S
O55 C53 1.282 . S
C56 O57 1.306 . S
C56 O59 1.160 . S
O57 C56 1.306 . S
O57 Cd58 2.228 . S
Cd58 O57 2.228 . S
Cd58 O62 2.273 . S
Cd58 O66 2.277 . S
O59 C56 1.160 . S
O59 Cd60 2.203 . S
Cd60 O59 2.203 . S
Cd60 O62 2.411 . S
Cd60 O63 2.333 . S
Cd60 O64 2.352 . S
Cd60 O68 2.277 . S
Cd60 O69 2.356 . S
C61 O66 1.209 . S
C61 O68 1.226 . S
O62 Cd58 2.273 . S
O62 Cd60 2.411 . S
O62 C65 1.320 . S
O63 Cd60 2.333 . S
O63 C65 1.214 . S
O64 Cd60 2.352 . S
O64 C67 1.258 . S
C65 O62 1.320 . S
C65 O63 1.214 . S
O66 Cd58 2.277 . S
O66 C61 1.209 . S
C67 O64 1.258 . S
C67 O69 1.282 . S
O68 Cd60 2.277 . S
O68 C61 1.226 . S
O69 Cd60 2.356 . S
O69 C67 1.282 . S
C70 O71 1.306 . S
C70 O73 1.160 . S
O71 C70 1.306 . S
O71 Cd72 2.228 . S
Cd72 O71 2.228 . S
Cd72 O76 2.273 . S
Cd72 O80 2.277 . S
O73 C70 1.160 . S
O73 Cd74 2.203 . S
Cd74 O73 2.203 . S
Cd74 O76 2.411 . S
Cd74 O77 2.333 . S
Cd74 O78 2.352 . S
Cd74 O82 2.277 . S
Cd74 O83 2.356 . S
C75 O80 1.209 . S
C75 O82 1.226 . S
O76 Cd72 2.273 . S
O76 Cd74 2.411 . S
O76 C79 1.320 . S
O77 Cd74 2.333 . S
O77 C79 1.214 . S
O78 Cd74 2.352 . S
O78 C81 1.258 . S
C79 O76 1.320 . S
C79 O77 1.214 . S
O80 Cd72 2.277 . S
O80 C75 1.209 . S
C81 O78 1.258 . S
C81 O83 1.282 . S
O82 Cd74 2.277 . S
O82 C75 1.226 . S
O83 Cd74 2.356 . S
O83 C81 1.282 . S
C84 O85 1.306 . S
C84 O87 1.160 . S
O85 C84 1.306 . S
O85 Cd86 2.228 . S
Cd86 O85 2.228 . S
Cd86 O90 2.273 . S
Cd86 O94 2.277 . S
O87 C84 1.160 . S
O87 Cd88 2.203 . S
Cd88 O87 2.203 . S
Cd88 O90 2.411 . S
Cd88 O91 2.333 . S
Cd88 O92 2.352 . S
Cd88 O96 2.277 . S
Cd88 O97 2.356 . S
C89 O94 1.209 . S
C89 O96 1.226 . S
O90 Cd86 2.273 . S
O90 Cd88 2.411 . S
O90 C93 1.320 . S
O91 Cd88 2.333 . S
O91 C93 1.214 . S
O92 Cd88 2.352 . S
O92 C95 1.258 . S
C93 O90 1.320 . S
C93 O91 1.214 . S
O94 Cd86 2.277 . S
O94 C89 1.209 . S
C95 O92 1.258 . S
C95 O97 1.282 . S
O96 Cd88 2.277 . S
O96 C89 1.226 . S
O97 Cd88 2.356 . S
O97 C95 1.282 . S
C98 O99 1.306 . S
C98 O101 1.160 . S
O99 C98 1.306 . S
O99 Cd100 2.228 . S
Cd100 O99 2.228 . S
Cd100 O104 2.273 . S
Cd100 O108 2.277 . S
O101 C98 1.160 . S
O101 Cd102 2.203 . S
Cd102 O101 2.203 . S
Cd102 O104 2.411 . S
Cd102 O105 2.333 . S
Cd102 O106 2.352 . S
Cd102 O110 2.277 . S
Cd102 O111 2.356 . S
C103 O108 1.209 . S
C103 O110 1.226 . S
O104 Cd100 2.273 . S
O104 Cd102 2.411 . S
O104 C107 1.320 . S
O105 Cd102 2.333 . S
O105 C107 1.214 . S
O106 Cd102 2.352 . S
O106 C109 1.258 . S
C107 O104 1.320 . S
C107 O105 1.214 . S
O108 Cd100 2.277 . S
O108 C103 1.209 . S
C109 O106 1.258 . S
C109 O111 1.282 . S
O110 Cd102 2.277 . S
O110 C103 1.226 . S
O111 Cd102 2.356 . S
O111 C109 1.282 . S
C112 O113 1.306 . S
C112 O115 1.160 . S
O113 C112 1.306 . S
O113 Cd114 2.228 . S
Cd114 O113 2.228 . S
Cd114 O118 2.273 . S
Cd114 O122 2.277 . S
O115 C112 1.160 . S
O115 Cd116 2.203 . S
Cd116 O115 2.203 . S
Cd116 O118 2.411 . S
Cd116 O119 2.333 . S
Cd116 O120 2.352 . S
Cd116 O124 2.277 . S
Cd116 O125 2.356 . S
C117 O122 1.209 . S
C117 O124 1.226 . S
O118 Cd114 2.273 . S
O118 Cd116 2.411 . S
O118 C121 1.320 . S
O119 Cd116 2.333 . S
O119 C121 1.214 . S
O120 Cd116 2.352 . S
O120 C123 1.258 . S
C121 O118 1.320 . S
C121 O119 1.214 . S
O122 Cd114 2.277 . S
O122 C117 1.209 . S
C123 O120 1.258 . S
C123 O125 1.282 . S
O124 Cd116 2.277 . S
O124 C117 1.226 . S
O125 Cd116 2.356 . S
O125 C123 1.282 . S
C126 O127 1.306 . S
C126 O129 1.160 . S
O127 C126 1.306 . S
O127 Cd128 2.228 . S
Cd128 O127 2.228 . S
Cd128 O132 2.273 . S
Cd128 O136 2.277 . S
O129 C126 1.160 . S
O129 Cd130 2.203 . S
Cd130 O129 2.203 . S
Cd130 O132 2.411 . S
Cd130 O133 2.333 . S
Cd130 O134 2.352 . S
Cd130 O138 2.277 . S
Cd130 O139 2.356 . S
C131 O136 1.209 . S
C131 O138 1.226 . S
O132 Cd128 2.273 . S
O132 Cd130 2.411 . S
O132 C135 1.320 . S
O133 Cd130 2.333 . S
O133 C135 1.214 . S
O134 Cd130 2.352 . S
O134 C137 1.258 . S
C135 O132 1.320 . S
C135 O133 1.214 . S
O136 Cd128 2.277 . S
O136 C131 1.209 . S
C137 O134 1.258 . S
C137 O139 1.282 . S
O138 Cd130 2.277 . S
O138 C131 1.226 . S
O139 Cd130 2.356 . S
O139 C137 1.282 . S
C140 O141 1.306 . S
C140 O143 1.160 . S
O141 C140 1.306 . S
O141 Cd142 2.228 . S
Cd142 O141 2.228 . S
Cd142 O146 2.273 . S
Cd142 O150 2.277 . S
O143 C140 1.160 . S
O143 Cd144 2.203 . S
Cd144 O143 2.203 . S
Cd144 O146 2.411 . S
Cd144 O147 2.333 . S
Cd144 O148 2.352 . S
Cd144 O152 2.277 . S
Cd144 O153 2.356 . S
C145 O150 1.209 . S
C145 O152 1.226 . S
O146 Cd142 2.273 . S
O146 Cd144 2.411 . S
O146 C149 1.320 . S
O147 Cd144 2.333 . S
O147 C149 1.214 . S
O148 Cd144 2.352 . S
O148 C151 1.258 . S
C149 O146 1.320 . S
C149 O147 1.214 . S
O150 Cd142 2.277 . S
O150 C145 1.209 . S
C151 O148 1.258 . S
C151 O153 1.282 . S
O152 Cd144 2.277 . S
O152 C145 1.226 . S
O153 Cd144 2.356 . S
O153 C151 1.282 . S
C154 O155 1.306 . S
C154 O157 1.160 . S
O155 C154 1.306 . S
O155 Cd156 2.228 . S
Cd156 O155 2.228 . S
Cd156 O160 2.273 . S
Cd156 O164 2.277 . S
O157 C154 1.160 . S
O157 Cd158 2.203 . S
Cd158 O157 2.203 . S
Cd158 O160 2.411 . S
Cd158 O161 2.333 . S
Cd158 O162 2.352 . S
Cd158 O166 2.277 . S
Cd158 O167 2.356 . S
C159 O164 1.209 . S
C159 O166 1.226 . S
O160 Cd156 2.273 . S
O160 Cd158 2.411 . S
O160 C163 1.320 . S
O161 Cd158 2.333 . S
O161 C163 1.214 . S
O162 Cd158 2.352 . S
O162 C165 1.258 . S
C163 O160 1.320 . S
C163 O161 1.214 . S
O164 Cd156 2.277 . S
O164 C159 1.209 . S
C165 O162 1.258 . S
C165 O167 1.282 . S
O166 Cd158 2.277 . S
O166 C159 1.226 . S
O167 Cd158 2.356 . S
O167 C165 1.282 . S
C168 C169 1.349 . S
C168 C170 1.327 . S
C168 H193 0.950 . S
C169 C168 1.349 . S
C169 C185 1.349 . S
C170 C168 1.327 . S
C170 C189 1.429 . S
C170 H194 0.950 . S
C171 C188 1.574 . S
C171 C190 1.368 . S
C171 H195 0.949 . S
H172 C176 0.949 . S
C173 C174 1.349 . S
C173 C175 1.327 . S
C173 H196 0.950 . S
C174 C173 1.349 . S
C174 C186 1.349 . S
C175 C173 1.327 . S
C175 C191 1.429 . S
C175 H197 0.950 . S
C176 H172 0.949 . S
C176 C184 1.574 . S
C176 C192 1.368 . S
H177 C185 0.950 . S
H178 C183 0.950 . S
H179 C184 0.949 . S
H180 C186 0.950 . S
H181 C187 0.950 . S
H182 C188 0.949 . S
C183 H178 0.950 . S
C183 C185 1.327 . S
C183 C189 1.429 . S
C184 C176 1.574 . S
C184 H179 0.949 . S
C184 C190 1.368 . S
C185 C169 1.349 . S
C185 H177 0.950 . S
C185 C183 1.327 . S
C186 C174 1.349 . S
C186 H180 0.950 . S
C186 C187 1.327 . S
C187 H181 0.950 . S
C187 C186 1.327 . S
C187 C191 1.429 . S
C188 C171 1.574 . S
C188 H182 0.949 . S
C188 C192 1.368 . S
C189 C170 1.429 . S
C189 C183 1.429 . S
C189 C190 1.523 . S
C190 C171 1.368 . S
C190 C184 1.368 . S
C190 C189 1.523 . S
C191 C175 1.429 . S
C191 C187 1.429 . S
C191 C192 1.523 . S
C192 C176 1.368 . S
C192 C188 1.368 . S
C192 C191 1.523 . S
H193 C168 0.950 . S
H194 C170 0.950 . S
H195 C171 0.949 . S
H196 C173 0.950 . S
H197 C175 0.950 . S
C198 C199 1.349 . S
C198 C200 1.327 . S
C198 H223 0.950 . S
C199 C198 1.349 . S
C199 C215 1.349 . S
C200 C198 1.327 . S
C200 C219 1.429 . S
C200 H224 0.950 . S
C201 C218 1.574 . S
C201 C220 1.368 . S
C201 H225 0.949 . S
H202 C206 0.949 . S
C203 C204 1.349 . S
C203 C205 1.327 . S
C203 H226 0.950 . S
C204 C203 1.349 . S
C204 C216 1.349 . S
C205 C203 1.327 . S
C205 C221 1.429 . S
C205 H227 0.950 . S
C206 H202 0.949 . S
C206 C214 1.574 . S
C206 C222 1.368 . S
H207 C215 0.950 . S
H208 C213 0.950 . S
H209 C214 0.949 . S
H210 C216 0.950 . S
H211 C217 0.950 . S
H212 C218 0.949 . S
C213 H208 0.950 . S
C213 C215 1.327 . S
C213 C219 1.429 . S
C214 C206 1.574 . S
C214 H209 0.949 . S
C214 C220 1.368 . S
C215 C199 1.349 . S
C215 H207 0.950 . S
C215 C213 1.327 . S
C216 C204 1.349 . S
C216 H210 0.950 . S
C216 C217 1.327 . S
C217 H211 0.950 . S
C217 C216 1.327 . S
C217 C221 1.429 . S
C218 C201 1.574 . S
C218 H212 0.949 . S
C218 C222 1.368 . S
C219 C200 1.429 . S
C219 C213 1.429 . S
C219 C220 1.523 . S
C220 C201 1.368 . S
C220 C214 1.368 . S
C220 C219 1.523 . S
C221 C205 1.429 . S
C221 C217 1.429 . S
C221 C222 1.523 . S
C222 C206 1.368 . S
C222 C218 1.368 . S
C222 C221 1.523 . S
H223 C198 0.950 . S
H224 C200 0.950 . S
H225 C201 0.949 . S
H226 C203 0.950 . S
H227 C205 0.950 . S
C228 C229 1.349 . S
C228 C230 1.327 . S
C228 H253 0.950 . S
C229 C228 1.349 . S
C229 C245 1.349 . S
C230 C228 1.327 . S
C230 C249 1.429 . S
C230 H254 0.950 . S
C231 C248 1.574 . S
C231 C250 1.368 . S
C231 H255 0.949 . S
H232 C236 0.949 . S
C233 C234 1.349 . S
C233 C235 1.327 . S
C233 H256 0.950 . S
C234 C233 1.349 . S
C234 C246 1.349 . S
C235 C233 1.327 . S
C235 C251 1.429 . S
C235 H257 0.950 . S
C236 H232 0.949 . S
C236 C244 1.574 . S
C236 C252 1.368 . S
H237 C245 0.950 . S
H238 C243 0.950 . S
H239 C244 0.949 . S
H240 C246 0.950 . S
H241 C247 0.950 . S
H242 C248 0.949 . S
C243 H238 0.950 . S
C243 C245 1.327 . S
C243 C249 1.429 . S
C244 C236 1.574 . S
C244 H239 0.949 . S
C244 C250 1.368 . S
C245 C229 1.349 . S
C245 H237 0.950 . S
C245 C243 1.327 . S
C246 C234 1.349 . S
C246 H240 0.950 . S
C246 C247 1.327 . S
C247 H241 0.950 . S
C247 C246 1.327 . S
C247 C251 1.429 . S
C248 C231 1.574 . S
C248 H242 0.949 . S
C248 C252 1.368 . S
C249 C230 1.429 . S
C249 C243 1.429 . S
C249 C250 1.523 . S
C250 C231 1.368 . S
C250 C244 1.368 . S
C250 C249 1.523 . S
C251 C235 1.429 . S
C251 C247 1.429 . S
C251 C252 1.523 . S
C252 C236 1.368 . S
C252 C248 1.368 . S
C252 C251 1.523 . S
H253 C228 0.950 . S
H254 C230 0.950 . S
H255 C231 0.949 . S
H256 C233 0.950 . S
H257 C235 0.950 . S
C258 C259 1.349 . S
C258 C260 1.327 . S
C258 H283 0.950 . S
C259 C258 1.349 . S
C259 C275 1.349 . S
C260 C258 1.327 . S
C260 C279 1.429 . S
C260 H284 0.950 . S
C261 C278 1.574 . S
C261 C280 1.368 . S
C261 H285 0.949 . S
H262 C266 0.949 . S
C263 C264 1.349 . S
C263 C265 1.327 . S
C263 H286 0.950 . S
C264 C263 1.349 . S
C264 C276 1.349 . S
C265 C263 1.327 . S
C265 C281 1.429 . S
C265 H287 0.950 . S
C266 H262 0.949 . S
C266 C274 1.574 . S
C266 C282 1.368 . S
H267 C275 0.950 . S
H268 C273 0.950 . S
H269 C274 0.949 . S
H270 C276 0.950 . S
H271 C277 0.950 . S
H272 C278 0.949 . S
C273 H268 0.950 . S
C273 C275 1.327 . S
C273 C279 1.429 . S
C274 C266 1.574 . S
C274 H269 0.949 . S
C274 C280 1.368 . S
C275 C259 1.349 . S
C275 H267 0.950 . S
C275 C273 1.327 . S
C276 C264 1.349 . S
C276 H270 0.950 . S
C276 C277 1.327 . S
C277 H271 0.950 . S
C277 C276 1.327 . S
C277 C281 1.429 . S
C278 C261 1.574 . S
C278 H272 0.949 . S
C278 C282 1.368 . S
C279 C260 1.429 . S
C279 C273 1.429 . S
C279 C280 1.523 . S
C280 C261 1.368 . S
C280 C274 1.368 . S
C280 C279 1.523 . S
C281 C265 1.429 . S
C281 C277 1.429 . S
C281 C282 1.523 . S
C282 C266 1.368 . S
C282 C278 1.368 . S
C282 C281 1.523 . S
H283 C258 0.950 . S
H284 C260 0.950 . S
H285 C261 0.949 . S
H286 C263 0.950 . S
H287 C265 0.950 . S
C288 C289 1.349 . S
C288 C290 1.327 . S
C288 H313 0.950 . S
C289 C288 1.349 . S
C289 C305 1.349 . S
C290 C288 1.327 . S
C290 C309 1.429 . S
C290 H314 0.950 . S
C291 C308 1.574 . S
C291 C310 1.368 . S
C291 H315 0.949 . S
H292 C296 0.949 . S
C293 C294 1.349 . S
C293 C295 1.327 . S
C293 H316 0.950 . S
C294 C293 1.349 . S
C294 C306 1.349 . S
C295 C293 1.327 . S
C295 C311 1.429 . S
C295 H317 0.950 . S
C296 H292 0.949 . S
C296 C304 1.574 . S
C296 C312 1.368 . S
H297 C305 0.950 . S
H298 C303 0.950 . S
H299 C304 0.949 . S
H300 C306 0.950 . S
H301 C307 0.950 . S
H302 C308 0.949 . S
C303 H298 0.950 . S
C303 C305 1.327 . S
C303 C309 1.429 . S
C304 C296 1.574 . S
C304 H299 0.949 . S
C304 C310 1.368 . S
C305 C289 1.349 . S
C305 H297 0.950 . S
C305 C303 1.327 . S
C306 C294 1.349 . S
C306 H300 0.950 . S
C306 C307 1.327 . S
C307 H301 0.950 . S
C307 C306 1.327 . S
C307 C311 1.429 . S
C308 C291 1.574 . S
C308 H302 0.949 . S
C308 C312 1.368 . S
C309 C290 1.429 . S
C309 C303 1.429 . S
C309 C310 1.523 . S
C310 C291 1.368 . S
C310 C304 1.368 . S
C310 C309 1.523 . S
C311 C295 1.429 . S
C311 C307 1.429 . S
C311 C312 1.523 . S
C312 C296 1.368 . S
C312 C308 1.368 . S
C312 C311 1.523 . S
H313 C288 0.950 . S
H314 C290 0.950 . S
H315 C291 0.949 . S
H316 C293 0.950 . S
H317 C295 0.950 . S
C318 C319 1.349 . S
C318 C320 1.327 . S
C318 H343 0.950 . S
C319 C318 1.349 . S
C319 C335 1.349 . S
C320 C318 1.327 . S
C320 C339 1.429 . S
C320 H344 0.950 . S
C321 C338 1.574 . S
C321 C340 1.368 . S
C321 H345 0.949 . S
H322 C326 0.949 . S
C323 C324 1.349 . S
C323 C325 1.327 . S
C323 H346 0.950 . S
C324 C323 1.349 . S
C324 C336 1.349 . S
C325 C323 1.327 . S
C325 C341 1.429 . S
C325 H347 0.950 . S
C326 H322 0.949 . S
C326 C334 1.574 . S
C326 C342 1.368 . S
H327 C335 0.950 . S
H328 C333 0.950 . S
H329 C334 0.949 . S
H330 C336 0.950 . S
H331 C337 0.950 . S
H332 C338 0.949 . S
C333 H328 0.950 . S
C333 C335 1.327 . S
C333 C339 1.429 . S
C334 C326 1.574 . S
C334 H329 0.949 . S
C334 C340 1.368 . S
C335 C319 1.349 . S
C335 H327 0.950 . S
C335 C333 1.327 . S
C336 C324 1.349 . S
C336 H330 0.950 . S
C336 C337 1.327 . S
C337 H331 0.950 . S
C337 C336 1.327 . S
C337 C341 1.429 . S
C338 C321 1.574 . S
C338 H332 0.949 . S
C338 C342 1.368 . S
C339 C320 1.429 . S
C339 C333 1.429 . S
C339 C340 1.523 . S
C340 C321 1.368 . S
C340 C334 1.368 . S
C340 C339 1.523 . S
C341 C325 1.429 . S
C341 C337 1.429 . S
C341 C342 1.523 . S
C342 C326 1.368 . S
C342 C338 1.368 . S
C342 C341 1.523 . S
H343 C318 0.950 . S
H344 C320 0.950 . S
H345 C321 0.949 . S
H346 C323 0.950 . S
H347 C325 0.950 . S
C348 C349 1.349 . S
C348 C350 1.327 . S
C348 H373 0.950 . S
C349 C348 1.349 . S
C349 C365 1.349 . S
C350 C348 1.327 . S
C350 C369 1.429 . S
C350 H374 0.950 . S
C351 C368 1.574 . S
C351 C370 1.368 . S
C351 H375 0.949 . S
H352 C356 0.949 . S
C353 C354 1.349 . S
C353 C355 1.327 . S
C353 H376 0.950 . S
C354 C353 1.349 . S
C354 C366 1.349 . S
C355 C353 1.327 . S
C355 C371 1.429 . S
C355 H377 0.950 . S
C356 H352 0.949 . S
C356 C364 1.574 . S
C356 C372 1.368 . S
H357 C365 0.950 . S
H358 C363 0.950 . S
H359 C364 0.949 . S
H360 C366 0.950 . S
H361 C367 0.950 . S
H362 C368 0.949 . S
C363 H358 0.950 . S
C363 C365 1.327 . S
C363 C369 1.429 . S
C364 C356 1.574 . S
C364 H359 0.949 . S
C364 C370 1.368 . S
C365 C349 1.349 . S
C365 H357 0.950 . S
C365 C363 1.327 . S
C366 C354 1.349 . S
C366 H360 0.950 . S
C366 C367 1.327 . S
C367 H361 0.950 . S
C367 C366 1.327 . S
C367 C371 1.429 . S
C368 C351 1.574 . S
C368 H362 0.949 . S
C368 C372 1.368 . S
C369 C350 1.429 . S
C369 C363 1.429 . S
C369 C370 1.523 . S
C370 C351 1.368 . S
C370 C364 1.368 . S
C370 C369 1.523 . S
C371 C355 1.429 . S
C371 C367 1.429 . S
C371 C372 1.523 . S
C372 C356 1.368 . S
C372 C368 1.368 . S
C372 C371 1.523 . S
H373 C348 0.950 . S
H374 C350 0.950 . S
H375 C351 0.949 . S
H376 C353 0.950 . S
H377 C355 0.950 . S
C378 C379 1.349 . S
C378 C380 1.327 . S
C378 H403 0.950 . S
C379 C378 1.349 . S
C379 C395 1.349 . S
C380 C378 1.327 . S
C380 C399 1.429 . S
C380 H404 0.950 . S
C381 C398 1.574 . S
C381 C400 1.368 . S
C381 H405 0.949 . S
H382 C386 0.949 . S
C383 C384 1.349 . S
C383 C385 1.327 . S
C383 H406 0.950 . S
C384 C383 1.349 . S
C384 C396 1.349 . S
C385 C383 1.327 . S
C385 C401 1.429 . S
C385 H407 0.950 . S
C386 H382 0.949 . S
C386 C394 1.574 . S
C386 C402 1.368 . S
H387 C395 0.950 . S
H388 C393 0.950 . S
H389 C394 0.949 . S
H390 C396 0.950 . S
H391 C397 0.950 . S
H392 C398 0.949 . S
C393 H388 0.950 . S
C393 C395 1.327 . S
C393 C399 1.429 . S
C394 C386 1.574 . S
C394 H389 0.949 . S
C394 C400 1.368 . S
C395 C379 1.349 . S
C395 H387 0.950 . S
C395 C393 1.327 . S
C396 C384 1.349 . S
C396 H390 0.950 . S
C396 C397 1.327 . S
C397 H391 0.950 . S
C397 C396 1.327 . S
C397 C401 1.429 . S
C398 C381 1.574 . S
C398 H392 0.949 . S
C398 C402 1.368 . S
C399 C380 1.429 . S
C399 C393 1.429 . S
C399 C400 1.523 . S
C400 C381 1.368 . S
C400 C394 1.368 . S
C400 C399 1.523 . S
C401 C385 1.429 . S
C401 C397 1.429 . S
C401 C402 1.523 . S
C402 C386 1.368 . S
C402 C398 1.368 . S
C402 C401 1.523 . S
H403 C378 0.950 . S
H404 C380 0.950 . S
H405 C381 0.949 . S
H406 C383 0.950 . S
H407 C385 0.950 . S
C408 C409 1.352 1_556 S
C408 C410 1.324 . S
C408 H433 0.950 1_556 S
C409 C408 1.352 1_554 S
C409 C425 1.349 . S
C410 C408 1.324 . S
C410 C429 1.429 . S
C410 H434 0.950 . S
C411 C428 1.574 . S
C411 C430 1.368 . S
C411 H435 0.949 . S
H412 C416 0.949 . S
C413 C414 1.349 . S
C413 C415 1.327 . S
C413 H436 0.950 . S
C414 C413 1.349 . S
C414 C426 1.349 . S
C415 C413 1.327 . S
C415 C431 1.429 . S
C415 H437 0.950 . S
C416 H412 0.949 . S
C416 C424 1.574 . S
C416 C432 1.368 . S
H417 C425 0.950 . S
H418 C423 0.950 . S
H419 C424 0.949 . S
H420 C426 0.950 . S
H421 C427 0.950 . S
H422 C428 0.949 . S
C423 H418 0.950 . S
C423 C425 1.327 1_556 S
C423 C429 1.429 . S
C424 C416 1.574 . S
C424 H419 0.949 . S
C424 C430 1.368 . S
C425 C409 1.349 . S
C425 H417 0.950 . S
C425 C423 1.327 1_554 S
C426 C414 1.349 . S
C426 H420 0.950 . S
C426 C427 1.327 . S
C427 H421 0.950 . S
C427 C426 1.327 . S
C427 C431 1.429 . S
C428 C411 1.574 . S
C428 H422 0.949 . S
C428 C432 1.368 . S
C429 C410 1.429 . S
C429 C423 1.429 . S
C429 C430 1.523 . S
C430 C411 1.368 . S
C430 C424 1.368 . S
C430 C429 1.523 . S
C431 C415 1.429 . S
C431 C427 1.429 . S
C431 C432 1.523 . S
C432 C416 1.368 . S
C432 C428 1.368 . S
C432 C431 1.523 . S
H433 C408 0.950 1_554 S
H434 C410 0.950 . S
H435 C411 0.949 . S
H436 C413 0.950 . S
H437 C415 0.950 . S
C438 C439 1.349 . S
C438 C440 1.327 . S
C438 H463 0.950 . S
C439 C438 1.349 . S
C439 C455 1.349 . S
C440 C438 1.327 . S
C440 C459 1.429 . S
C440 H464 0.950 . S
C441 C458 1.574 . S
C441 C460 1.368 . S
C441 H465 0.949 . S
H442 C446 0.949 . S
C443 C444 1.349 . S
C443 C445 1.327 1_556 S
C443 H466 0.950 . S
C444 C443 1.349 . S
C444 C456 1.349 . S
C445 C443 1.327 1_554 S
C445 C461 1.429 . S
C445 H467 0.950 . S
C446 H442 0.949 . S
C446 C454 1.574 . S
C446 C462 1.368 . S
H447 C455 0.950 . S
H448 C453 0.950 . S
H449 C454 0.949 . S
H450 C456 0.950 . S
H451 C457 0.950 . S
H452 C458 0.949 . S
C453 H448 0.950 . S
C453 C455 1.327 . S
C453 C459 1.429 . S
C454 C446 1.574 . S
C454 H449 0.949 . S
C454 C460 1.368 . S
C455 C439 1.349 . S
C455 H447 0.950 . S
C455 C453 1.327 . S
C456 C444 1.349 . S
C456 H450 0.950 . S
C456 C457 1.327 1_556 S
C457 H451 0.950 . S
C457 C456 1.327 1_554 S
C457 C461 1.429 . S
C458 C441 1.574 . S
C458 H452 0.949 . S
C458 C462 1.368 . S
C459 C440 1.429 . S
C459 C453 1.429 . S
C459 C460 1.523 . S
C460 C441 1.368 . S
C460 C454 1.368 . S
C460 C459 1.523 . S
C461 C445 1.429 . S
C461 C457 1.429 . S
C461 C462 1.523 . S
C462 C446 1.368 . S
C462 C458 1.368 . S
C462 C461 1.523 . S
H463 C438 0.950 . S
H464 C440 0.950 . S
H465 C441 0.949 . S
H466 C443 0.950 . S
H467 C445 0.950 . S
C468 C469 1.349 . S
C468 C470 1.327 . S
C468 H493 0.950 . S
C469 C468 1.349 . S
C469 C485 1.349 . S
C470 C468 1.327 . S
C470 C489 1.429 . S
C470 H494 0.950 . S
C471 C488 1.574 . S
C471 C490 1.368 . S
C471 H495 0.949 . S
H472 C476 0.949 . S
C473 C474 1.349 . S
C473 C475 1.327 . S
C473 H496 0.950 . S
C474 C473 1.349 . S
C474 C486 1.349 . S
C475 C473 1.327 . S
C475 C491 1.429 . S
C475 H497 0.950 . S
C476 H472 0.949 . S
C476 C484 1.574 . S
C476 C492 1.368 . S
H477 C485 0.950 . S
H478 C483 0.950 . S
H479 C484 0.949 . S
H480 C486 0.950 . S
H481 C487 0.950 . S
H482 C488 0.949 . S
C483 H478 0.950 . S
C483 C485 1.327 . S
C483 C489 1.429 . S
C484 C476 1.574 . S
C484 H479 0.949 . S
C484 C490 1.368 . S
C485 C469 1.349 . S
C485 H477 0.950 . S
C485 C483 1.327 . S
C486 C474 1.349 . S
C486 H480 0.950 . S
C486 C487 1.327 . S
C487 H481 0.950 . S
C487 C486 1.327 . S
C487 C491 1.429 . S
C488 C471 1.574 . S
C488 H482 0.949 . S
C488 C492 1.368 . S
C489 C470 1.429 . S
C489 C483 1.429 . S
C489 C490 1.523 . S
C490 C471 1.368 . S
C490 C484 1.368 . S
C490 C489 1.523 . S
C491 C475 1.429 . S
C491 C487 1.429 . S
C491 C492 1.523 . S
C492 C476 1.368 . S
C492 C488 1.368 . S
C492 C491 1.523 . S
H493 C468 0.950 . S
H494 C470 0.950 . S
H495 C471 0.949 . S
H496 C473 0.950 . S
H497 C475 0.950 . S
C498 C499 1.349 . S
C498 C500 1.327 . S
C498 H523 0.950 . S
C499 C498 1.349 . S
C499 C515 1.349 . S
C500 C498 1.327 . S
C500 C519 1.429 . S
C500 H524 0.950 . S
C501 C518 1.574 . S
C501 C520 1.368 . S
C501 H525 0.949 . S
H502 C506 0.949 . S
C503 C504 1.349 . S
C503 C505 1.327 . S
C503 H526 0.950 . S
C504 C503 1.349 . S
C504 C516 1.349 . S
C505 C503 1.327 . S
C505 C521 1.429 . S
C505 H527 0.950 . S
C506 H502 0.949 . S
C506 C514 1.574 . S
C506 C522 1.368 . S
H507 C515 0.950 . S
H508 C513 0.950 . S
H509 C514 0.949 . S
H510 C516 0.950 . S
H511 C517 0.950 . S
H512 C518 0.949 . S
C513 H508 0.950 . S
C513 C515 1.327 . S
C513 C519 1.429 . S
C514 C506 1.574 . S
C514 H509 0.949 . S
C514 C520 1.368 . S
C515 C499 1.349 . S
C515 H507 0.950 . S
C515 C513 1.327 . S
C516 C504 1.349 . S
C516 H510 0.950 . S
C516 C517 1.327 . S
C517 H511 0.950 . S
C517 C516 1.327 . S
C517 C521 1.429 . S
C518 C501 1.574 . S
C518 H512 0.949 . S
C518 C522 1.368 . S
C519 C500 1.429 . S
C519 C513 1.429 . S
C519 C520 1.523 . S
C520 C501 1.368 . S
C520 C514 1.368 . S
C520 C519 1.523 . S
C521 C505 1.429 . S
C521 C517 1.429 . S
C521 C522 1.523 . S
C522 C506 1.368 . S
C522 C518 1.368 . S
C522 C521 1.523 . S
H523 C498 0.950 . S
H524 C500 0.950 . S
H525 C501 0.949 . S
H526 C503 0.950 . S
H527 C505 0.950 . S
C528 C529 1.349 . S
C528 C530 1.327 . S
C528 H553 0.950 . S
C529 C528 1.349 . S
C529 C545 1.349 . S
C530 C528 1.327 . S
C530 C549 1.429 . S
C530 H554 0.950 . S
C531 C548 1.574 1_655 S
C531 C550 1.368 . S
C531 H555 0.949 . S
H532 C536 0.949 . S
C533 C534 1.349 . S
C533 C535 1.327 . S
C533 H556 0.950 . S
C534 C533 1.349 . S
C534 C546 1.349 . S
C535 C533 1.327 . S
C535 C551 1.429 . S
C535 H557 0.950 . S
C536 H532 0.949 . S
C536 C544 1.574 1_455 S
C536 C552 1.368 . S
H537 C545 0.950 . S
H538 C543 0.950 . S
H539 C544 0.949 . S
H540 C546 0.950 . S
H541 C547 0.950 . S
H542 C548 0.949 . S
C543 H538 0.950 . S
C543 C545 1.327 . S
C543 C549 1.429 . S
C544 C536 1.574 1_655 S
C544 H539 0.949 . S
C544 C550 1.368 . S
C545 C529 1.349 . S
C545 H537 0.950 . S
C545 C543 1.327 . S
C546 C534 1.349 . S
C546 H540 0.950 . S
C546 C547 1.327 . S
C547 H541 0.950 . S
C547 C546 1.327 . S
C547 C551 1.429 . S
C548 C531 1.574 1_455 S
C548 H542 0.949 . S
C548 C552 1.368 . S
C549 C530 1.429 . S
C549 C543 1.429 . S
C549 C550 1.523 . S
C550 C531 1.368 . S
C550 C544 1.368 . S
C550 C549 1.523 . S
C551 C535 1.429 . S
C551 C547 1.429 . S
C551 C552 1.523 . S
C552 C536 1.368 . S
C552 C548 1.368 . S
C552 C551 1.523 . S
H553 C528 0.950 . S
H554 C530 0.950 . S
H555 C531 0.949 . S
H556 C533 0.950 . S
H557 C535 0.950 . S
C558 C559 1.349 . S
C558 C560 1.327 . S
C558 H583 0.950 . S
C559 C558 1.349 . S
C559 C575 1.349 . S
C560 C558 1.327 . S
C560 C579 1.429 . S
C560 H584 0.950 . S
C561 C578 1.574 1_565 S
C561 C580 1.368 . S
C561 H585 0.949 . S
H562 C566 0.949 . S
C563 C564 1.349 . S
C563 C565 1.327 . S
C563 H586 0.950 . S
C564 C563 1.349 . S
C564 C576 1.349 . S
C565 C563 1.327 . S
C565 C581 1.429 . S
C565 H587 0.950 . S
C566 H562 0.949 . S
C566 C574 1.574 1_545 S
C566 C582 1.368 . S
H567 C575 0.950 . S
H568 C573 0.950 . S
H569 C574 0.949 . S
H570 C576 0.950 . S
H571 C577 0.950 . S
H572 C578 0.949 . S
C573 H568 0.950 . S
C573 C575 1.327 . S
C573 C579 1.429 . S
C574 C566 1.574 1_565 S
C574 H569 0.949 . S
C574 C580 1.368 . S
C575 C559 1.349 . S
C575 H567 0.950 . S
C575 C573 1.327 . S
C576 C564 1.349 . S
C576 H570 0.950 . S
C576 C577 1.327 . S
C577 H571 0.950 . S
C577 C576 1.327 . S
C577 C581 1.429 . S
C578 C561 1.574 1_545 S
C578 H572 0.949 . S
C578 C582 1.368 . S
C579 C560 1.429 . S
C579 C573 1.429 . S
C579 C580 1.523 . S
C580 C561 1.368 . S
C580 C574 1.368 . S
C580 C579 1.523 . S
C581 C565 1.429 . S
C581 C577 1.429 . S
C581 C582 1.523 . S
C582 C566 1.368 . S
C582 C578 1.368 . S
C582 C581 1.523 . S
H583 C558 0.950 . S
H584 C560 0.950 . S
H585 C561 0.949 . S
H586 C563 0.950 . S
H587 C565 0.950 . S
C588 C589 1.349 . S
C588 C590 1.327 . S
C588 H613 0.950 . S
C589 C588 1.349 . S
C589 C605 1.349 . S
C590 C588 1.327 . S
C590 C609 1.429 . S
C590 H614 0.950 . S
C591 C608 1.574 . S
C591 C610 1.368 . S
C591 H615 0.949 . S
H592 C596 0.949 . S
C593 C594 1.349 . S
C593 C595 1.327 . S
C593 H616 0.950 . S
C594 C593 1.349 . S
C594 C606 1.349 . S
C595 C593 1.327 . S
C595 C611 1.429 . S
C595 H617 0.950 . S
C596 H592 0.949 . S
C596 C604 1.574 . S
C596 C612 1.368 . S
H597 C605 0.950 . S
H598 C603 0.950 . S
H599 C604 0.949 . S
H600 C606 0.950 . S
H601 C607 0.950 . S
H602 C608 0.949 . S
C603 H598 0.950 . S
C603 C605 1.327 . S
C603 C609 1.429 . S
C604 C596 1.574 . S
C604 H599 0.949 . S
C604 C610 1.368 . S
C605 C589 1.349 . S
C605 H597 0.950 . S
C605 C603 1.327 . S
C606 C594 1.349 . S
C606 H600 0.950 . S
C606 C607 1.327 . S
C607 H601 0.950 . S
C607 C606 1.327 . S
C607 C611 1.429 . S
C608 C591 1.574 . S
C608 H602 0.949 . S
C608 C612 1.368 . S
C609 C590 1.429 . S
C609 C603 1.429 . S
C609 C610 1.523 . S
C610 C591 1.368 . S
C610 C604 1.368 . S
C610 C609 1.523 . S
C611 C595 1.429 . S
C611 C607 1.429 . S
C611 C612 1.523 . S
C612 C596 1.368 . S
C612 C608 1.368 . S
C612 C611 1.523 . S
H613 C588 0.950 . S
H614 C590 0.950 . S
H615 C591 0.949 . S
H616 C593 0.950 . S
H617 C595 0.950 . S
C618 C619 1.349 . S
C618 C620 1.327 . S
C618 H643 0.950 . S
C619 C618 1.349 . S
C619 C635 1.349 . S
C620 C618 1.327 . S
C620 C639 1.429 . S
C620 H644 0.950 . S
C621 C638 1.574 1_455 S
C621 C640 1.368 . S
C621 H645 0.949 . S
H622 C626 0.949 . S
C623 C624 1.349 . S
C623 C625 1.327 . S
C623 H646 0.950 . S
C624 C623 1.349 . S
C624 C636 1.349 . S
C625 C623 1.327 . S
C625 C641 1.429 . S
C625 H647 0.950 . S
C626 H622 0.949 . S
C626 C634 1.574 1_655 S
C626 C642 1.368 . S
H627 C635 0.950 . S
H628 C633 0.950 . S
H629 C634 0.949 . S
H630 C636 0.950 . S
H631 C637 0.950 . S
H632 C638 0.949 . S
C633 H628 0.950 . S
C633 C635 1.327 . S
C633 C639 1.429 . S
C634 C626 1.574 1_455 S
C634 H629 0.949 . S
C634 C640 1.368 . S
C635 C619 1.349 . S
C635 H627 0.950 . S
C635 C633 1.327 . S
C636 C624 1.349 . S
C636 H630 0.950 . S
C636 C637 1.327 . S
C637 H631 0.950 . S
C637 C636 1.327 . S
C637 C641 1.429 . S
C638 C621 1.574 1_655 S
C638 H632 0.949 . S
C638 C642 1.368 . S
C639 C620 1.429 . S
C639 C633 1.429 . S
C639 C640 1.523 . S
C640 C621 1.368 . S
C640 C634 1.368 . S
C640 C639 1.523 . S
C641 C625 1.429 . S
C641 C637 1.429 . S
C641 C642 1.523 . S
C642 C626 1.368 . S
C642 C638 1.368 . S
C642 C641 1.523 . S
H643 C618 0.950 . S
H644 C620 0.950 . S
H645 C621 0.949 . S
H646 C623 0.950 . S
H647 C625 0.950 . S
C648 C649 1.349 . S
C648 C650 1.327 . S
C648 H673 0.950 . S
C649 C648 1.349 . S
C649 C665 1.349 . S
C650 C648 1.327 . S
C650 C669 1.429 . S
C650 H674 0.950 . S
C651 C668 1.574 1_545 S
C651 C670 1.368 1_554 S
C651 H675 0.949 . S
H652 C656 0.949 . S
C653 C654 1.349 . S
C653 C655 1.327 . S
C653 H676 0.950 . S
C654 C653 1.349 . S
C654 C666 1.349 . S
C655 C653 1.327 . S
C655 C671 1.429 . S
C655 H677 0.950 . S
C656 H652 0.949 . S
C656 C664 1.574 1_565 S
C656 C672 1.368 1_556 S
H657 C665 0.950 . S
H658 C663 0.950 1_554 S
H659 C664 0.949 . S
H660 C666 0.950 . S
H661 C667 0.950 1_556 S
H662 C668 0.949 . S
C663 H658 0.950 1_556 S
C663 C665 1.327 . S
C663 C669 1.429 . S
C664 C656 1.574 1_545 S
C664 H659 0.949 . S
C664 C670 1.368 . S
C665 C649 1.349 . S
C665 H657 0.950 . S
C665 C663 1.327 . S
C666 C654 1.349 . S
C666 H660 0.950 . S
C666 C667 1.327 . S
C667 H661 0.950 1_554 S
C667 C666 1.327 . S
C667 C671 1.429 . S
C668 C651 1.574 1_565 S
C668 H662 0.949 . S
C668 C672 1.368 . S
C669 C650 1.429 . S
C669 C663 1.429 . S
C669 C670 1.523 . S
C670 C651 1.368 1_556 S
C670 C664 1.368 . S
C670 C669 1.523 . S
C671 C655 1.429 . S
C671 C667 1.429 . S
C671 C672 1.523 . S
C672 C656 1.368 1_554 S
C672 C668 1.368 . S
C672 C671 1.523 . S
H673 C648 0.950 . S
H674 C650 0.950 . S
H675 C651 0.949 . S
H676 C653 0.950 . S
H677 C655 0.950 . S
C678 C679 1.349 . S
C678 C680 1.327 . S
C678 H703 0.950 . S
C679 C678 1.349 . S
C679 C695 1.349 . S
C680 C678 1.327 . S
C680 C699 1.429 . S
C680 H704 0.950 . S
C681 C698 1.574 . S
C681 C700 1.368 . S
C681 H705 0.949 . S
H682 C686 0.949 . S
C683 C684 1.349 . S
C683 C685 1.327 . S
C683 H706 0.950 . S
C684 C683 1.349 . S
C684 C696 1.349 . S
C685 C683 1.327 . S
C685 C701 1.429 . S
C685 H707 0.950 . S
C686 H682 0.949 . S
C686 C694 1.574 . S
C686 C702 1.368 . S
H687 C695 0.950 . S
H688 C693 0.950 . S
H689 C694 0.949 . S
H690 C696 0.950 . S
H691 C697 0.950 . S
H692 C698 0.949 . S
C693 H688 0.950 . S
C693 C695 1.327 . S
C693 C699 1.429 . S
C694 C686 1.574 . S
C694 H689 0.949 . S
C694 C700 1.368 . S
C695 C679 1.349 . S
C695 H687 0.950 . S
C695 C693 1.327 . S
C696 C684 1.349 . S
C696 H690 0.950 . S
C696 C697 1.327 . S
C697 H691 0.950 . S
C697 C696 1.327 . S
C697 C701 1.429 . S
C698 C681 1.574 . S
C698 H692 0.949 . S
C698 C702 1.368 . S
C699 C680 1.429 . S
C699 C693 1.429 . S
C699 C700 1.523 . S
C700 C681 1.368 . S
C700 C694 1.368 . S
C700 C699 1.523 . S
C701 C685 1.429 . S
C701 C697 1.429 . S
C701 C702 1.523 . S
C702 C686 1.368 . S
C702 C698 1.368 . S
C702 C701 1.523 . S
H703 C678 0.950 . S
H704 C680 0.950 . S
H705 C681 0.949 . S
H706 C683 0.950 . S
H707 C685 0.950 . S
C708 C709 1.349 . S
C708 C710 1.327 . S
C708 H733 0.950 . S
C709 C708 1.349 . S
C709 C725 1.349 . S
C710 C708 1.327 . S
C710 C729 1.429 . S
C710 H734 0.950 . S
C711 C728 1.574 . S
C711 C730 1.368 . S
C711 H735 0.949 . S
H712 C716 0.949 . S
C713 C714 1.349 . S
C713 C715 1.327 . S
C713 H736 0.950 . S
C714 C713 1.349 . S
C714 C726 1.349 . S
C715 C713 1.327 . S
C715 C731 1.429 . S
C715 H737 0.950 . S
C716 H712 0.949 . S
C716 C724 1.574 . S
C716 C732 1.368 . S
H717 C725 0.950 . S
H718 C723 0.950 . S
H719 C724 0.949 . S
H720 C726 0.950 . S
H721 C727 0.950 . S
H722 C728 0.949 . S
C723 H718 0.950 . S
C723 C725 1.327 . S
C723 C729 1.429 . S
C724 C716 1.574 . S
C724 H719 0.949 . S
C724 C730 1.368 . S
C725 C709 1.349 . S
C725 H717 0.950 . S
C725 C723 1.327 . S
C726 C714 1.349 . S
C726 H720 0.950 . S
C726 C727 1.327 . S
C727 H721 0.950 . S
C727 C726 1.327 . S
C727 C731 1.429 . S
C728 C711 1.574 . S
C728 H722 0.949 . S
C728 C732 1.368 . S
C729 C710 1.429 . S
C729 C723 1.429 . S
C729 C730 1.523 . S
C730 C711 1.368 . S
C730 C724 1.368 . S
C730 C729 1.523 . S
C731 C715 1.429 . S
C731 C727 1.429 . S
C731 C732 1.523 . S
C732 C716 1.368 . S
C732 C728 1.368 . S
C732 C731 1.523 . S
H733 C708 0.950 . S
H734 C710 0.950 . S
H735 C711 0.949 . S
H736 C713 0.950 . S
H737 C715 0.950 . S
C738 C739 1.349 . S
C738 C740 1.327 . S
C738 H763 0.950 . S
C739 C738 1.349 . S
C739 C755 1.349 . S
C740 C738 1.327 . S
C740 C759 1.429 . S
C740 H764 0.950 . S
C741 C758 1.574 . S
C741 C760 1.368 . S
C741 H765 0.949 . S
H742 C746 0.949 . S
C743 C744 1.349 . S
C743 C745 1.327 . S
C743 H766 0.950 . S
C744 C743 1.349 . S
C744 C756 1.349 . S
C745 C743 1.327 . S
C745 C761 1.429 . S
C745 H767 0.950 . S
C746 H742 0.949 . S
C746 C754 1.574 . S
C746 C762 1.368 . S
H747 C755 0.950 . S
H748 C753 0.950 . S
H749 C754 0.949 . S
H750 C756 0.950 . S
H751 C757 0.950 . S
H752 C758 0.949 . S
C753 H748 0.950 . S
C753 C755 1.327 . S
C753 C759 1.429 . S
C754 C746 1.574 . S
C754 H749 0.949 . S
C754 C760 1.368 . S
C755 C739 1.349 . S
C755 H747 0.950 . S
C755 C753 1.327 . S
C756 C744 1.349 . S
C756 H750 0.950 . S
C756 C757 1.327 . S
C757 H751 0.950 . S
C757 C756 1.327 . S
C757 C761 1.429 . S
C758 C741 1.574 . S
C758 H752 0.949 . S
C758 C762 1.368 . S
C759 C740 1.429 . S
C759 C753 1.429 . S
C759 C760 1.523 . S
C760 C741 1.368 . S
C760 C754 1.368 . S
C760 C759 1.523 . S
C761 C745 1.429 . S
C761 C757 1.429 . S
C761 C762 1.523 . S
C762 C746 1.368 . S
C762 C758 1.368 . S
C762 C761 1.523 . S
H763 C738 0.950 . S
H764 C740 0.950 . S
H765 C741 0.949 . S
H766 C743 0.950 . S
H767 C745 0.950 . S
C768 C769 1.349 . S
C768 C770 1.327 . S
C768 H793 0.950 . S
C769 C768 1.349 . S
C769 C785 1.349 . S
C770 C768 1.327 . S
C770 C789 1.429 . S
C770 H794 0.950 . S
C771 C788 1.574 . S
C771 C790 1.368 . S
C771 H795 0.949 . S
H772 C776 0.949 . S
C773 C774 1.349 . S
C773 C775 1.327 . S
C773 H796 0.950 . S
C774 C773 1.349 . S
C774 C786 1.349 . S
C775 C773 1.327 . S
C775 C791 1.429 . S
C775 H797 0.950 . S
C776 H772 0.949 . S
C776 C784 1.574 . S
C776 C792 1.368 . S
H777 C785 0.950 . S
H778 C783 0.950 . S
H779 C784 0.949 . S
H780 C786 0.950 . S
H781 C787 0.950 . S
H782 C788 0.949 . S
C783 H778 0.950 . S
C783 C785 1.327 . S
C783 C789 1.429 . S
C784 C776 1.574 . S
C784 H779 0.949 . S
C784 C790 1.368 . S
C785 C769 1.349 . S
C785 H777 0.950 . S
C785 C783 1.327 . S
C786 C774 1.349 . S
C786 H780 0.950 . S
C786 C787 1.327 . S
C787 H781 0.950 . S
C787 C786 1.327 . S
C787 C791 1.429 . S
C788 C771 1.574 . S
C788 H782 0.949 . S
C788 C792 1.368 . S
C789 C770 1.429 . S
C789 C783 1.429 . S
C789 C790 1.523 . S
C790 C771 1.368 . S
C790 C784 1.368 . S
C790 C789 1.523 . S
C791 C775 1.429 . S
C791 C787 1.429 . S
C791 C792 1.523 . S
C792 C776 1.368 . S
C792 C788 1.368 . S
C792 C791 1.523 . S
H793 C768 0.950 . S
H794 C770 0.950 . S
H795 C771 0.949 . S
H796 C773 0.950 . S
H797 C775 0.950 . S
C798 C799 1.349 . S
C798 C800 1.327 . S
C798 H823 0.950 . S
C799 C798 1.349 . S
C799 C815 1.349 . S
C800 C798 1.327 . S
C800 C819 1.429 . S
C800 H824 0.950 . S
C801 C818 1.574 . S
C801 C820 1.368 . S
C801 H825 0.949 . S
H802 C806 0.949 . S
C803 C804 1.349 . S
C803 C805 1.327 . S
C803 H826 0.950 . S
C804 C803 1.349 . S
C804 C816 1.349 . S
C805 C803 1.327 . S
C805 C821 1.429 . S
C805 H827 0.950 . S
C806 H802 0.949 . S
C806 C814 1.574 . S
C806 C822 1.368 . S
H807 C815 0.950 . S
H808 C813 0.950 . S
H809 C814 0.949 . S
H810 C816 0.950 . S
H811 C817 0.950 . S
H812 C818 0.949 . S
C813 H808 0.950 . S
C813 C815 1.327 . S
C813 C819 1.429 . S
C814 C806 1.574 . S
C814 H809 0.949 . S
C814 C820 1.368 . S
C815 C799 1.349 . S
C815 H807 0.950 . S
C815 C813 1.327 . S
C816 C804 1.349 . S
C816 H810 0.950 . S
C816 C817 1.327 . S
C817 H811 0.950 . S
C817 C816 1.327 . S
C817 C821 1.429 . S
C818 C801 1.574 . S
C818 H812 0.949 . S
C818 C822 1.368 . S
C819 C800 1.429 . S
C819 C813 1.429 . S
C819 C820 1.523 . S
C820 C801 1.368 . S
C820 C814 1.368 . S
C820 C819 1.523 . S
C821 C805 1.429 . S
C821 C817 1.429 . S
C821 C822 1.523 . S
C822 C806 1.368 . S
C822 C818 1.368 . S
C822 C821 1.523 . S
H823 C798 0.950 . S
H824 C800 0.950 . S
H825 C801 0.949 . S
H826 C803 0.950 . S
H827 C805 0.950 . S
C828 C829 1.349 1_556 S
C828 C830 1.327 . S
C828 H853 0.959 . S
C829 C828 1.349 1_554 S
C829 C845 1.349 . S
C830 C828 1.327 . S
C830 C849 1.429 . S
C830 H854 0.950 . S
C831 C848 1.574 . S
C831 C850 1.368 . S
C831 H855 0.949 . S
H832 C836 0.949 . S
C833 C834 1.349 . S
C833 C835 1.327 . S
C833 H856 0.950 . S
C834 C833 1.349 . S
C834 C846 1.349 . S
C835 C833 1.327 . S
C835 C851 1.429 . S
C835 H857 0.950 . S
C836 H832 0.949 . S
C836 C844 1.574 . S
C836 C852 1.368 . S
H837 C845 0.950 . S
H838 C843 0.950 . S
H839 C844 0.949 . S
H840 C846 0.950 . S
H841 C847 0.950 . S
H842 C848 0.949 . S
C843 H838 0.950 . S
C843 C845 1.327 1_556 S
C843 C849 1.429 . S
C844 C836 1.574 . S
C844 H839 0.949 . S
C844 C850 1.368 . S
C845 C829 1.349 . S
C845 H837 0.950 . S
C845 C843 1.327 1_554 S
C846 C834 1.349 . S
C846 H840 0.950 . S
C846 C847 1.327 . S
C847 H841 0.950 . S
C847 C846 1.327 . S
C847 C851 1.429 . S
C848 C831 1.574 . S
C848 H842 0.949 . S
C848 C852 1.368 . S
C849 C830 1.429 . S
C849 C843 1.429 . S
C849 C850 1.523 . S
C850 C831 1.368 . S
C850 C844 1.368 . S
C850 C849 1.523 . S
C851 C835 1.429 . S
C851 C847 1.429 . S
C851 C852 1.523 . S
C852 C836 1.368 . S
C852 C848 1.368 . S
C852 C851 1.523 . S
H853 C828 0.959 . S
H854 C830 0.950 . S
H855 C831 0.949 . S
H856 C833 0.950 . S
H857 C835 0.950 . S
C858 C859 1.349 . S
C858 C860 1.327 . S
C858 H883 0.950 . S
C859 C858 1.349 . S
C859 C875 1.349 . S
C860 C858 1.327 . S
C860 C879 1.429 . S
C860 H884 0.950 . S
C861 C878 1.574 . S
C861 C880 1.368 . S
C861 H885 0.949 . S
H862 C866 0.949 . S
C863 C864 1.349 1_554 S
C863 C865 1.327 . S
C863 H886 0.950 . S
C864 C863 1.349 1_556 S
C864 C876 1.349 . S
C865 C863 1.327 . S
C865 C881 1.429 . S
C865 H887 0.950 . S
C866 H862 0.949 . S
C866 C874 1.574 . S
C866 C882 1.368 . S
H867 C875 0.950 . S
H868 C873 0.950 . S
H869 C874 0.949 . S
H870 C876 0.950 . S
H871 C877 0.950 . S
H872 C878 0.949 . S
C873 H868 0.950 . S
C873 C875 1.327 . S
C873 C879 1.429 . S
C874 C866 1.574 . S
C874 H869 0.949 . S
C874 C880 1.368 . S
C875 C859 1.349 . S
C875 H867 0.950 . S
C875 C873 1.327 . S
C876 C864 1.349 . S
C876 H870 0.950 . S
C876 C877 1.327 1_556 S
C877 H871 0.950 . S
C877 C876 1.327 1_554 S
C877 C881 1.429 . S
C878 C861 1.574 . S
C878 H872 0.949 . S
C878 C882 1.368 . S
C879 C860 1.429 . S
C879 C873 1.429 . S
C879 C880 1.523 . S
C880 C861 1.368 . S
C880 C874 1.368 . S
C880 C879 1.523 . S
C881 C865 1.429 . S
C881 C877 1.429 . S
C881 C882 1.523 . S
C882 C866 1.368 . S
C882 C878 1.368 . S
C882 C881 1.523 . S
H883 C858 0.950 . S
H884 C860 0.950 . S
H885 C861 0.949 . S
H886 C863 0.950 . S
H887 C865 0.950 . S
C169 C5 0.545 . S
C174 C89 0.545 . S
C199 C19 0.545 . S
C204 C103 0.545 . S
C229 C117 0.545 . S
C234 C33 0.545 . S
C259 C47 0.545 . S
C264 C131 0.545 . S
C289 C61 0.545 . S
C294 C145 0.545 . S
C319 C159 0.545 . S
C324 C75 0.545 . S
C349 C121 1.319 . S
C354 C9 1.319 . S
C379 C23 1.319 . S
C384 C135 1.319 . S
C409 C149 1.319 . S
C414 C37 1.319 . S
C439 C163 1.319 . S
C444 C51 1.319 . S
C469 C65 1.319 . S
C474 C93 1.319 . S
C499 C79 1.319 . S
C504 C107 1.319 . S
C529 C165 1.295 . S
C534 C11 1.295 . S
C559 C95 1.295 . S
C564 C25 1.295 . S
C589 C39 1.295 . S
C594 C109 1.295 . S
C619 C123 1.295 . S
C624 C53 1.295 . S
C649 C137 1.295 . S
C654 C67 1.295 . S
C679 C151 1.295 . S
C684 C81 1.295 . S
C709 C0 1.452 . S
C714 C140 1.452 . S
C739 C154 1.452 . S
C744 C14 1.452 . S
C769 C28 1.452 . S
C774 C84 1.452 . S
C799 C42 1.452 . S
C804 C98 1.452 . S
C829 C56 1.452 . S
C834 C112 1.452 . S
C859 C70 1.452 . S
C864 C126 1.452 . S
