# Generated by pormake.
# Topology wmi, (6)-cn, num edge types: 1
# Building blocks:
#     Node 0, Type 0, BuildingBlock: VOLQOD_clean_sbu_1, # of connection points: 6
#     Node 1, Type 0, BuildingBlock: VOLQOD_clean_sbu_1, # of connection points: 6
#     Node 2, Type 0, BuildingBlock: VOLQOD_clean_sbu_1, # of connection points: 6
#     Node 3, Type 0, BuildingBlock: VOLQOD_clean_sbu_1, # of connection points: 6
#     Node 4, Type 0, BuildingBlock: VOLQOD_clean_sbu_1, # of connection points: 6
#     Node 5, Type 0, BuildingBlock: VOLQOD_clean_sbu_1, # of connection points: 6
#     Node 6, Type 0, BuildingBlock: VOLQOD_clean_sbu_1, # of connection points: 6
#     Node 7, Type 0, BuildingBlock: VOLQOD_clean_sbu_1, # of connection points: 6
#     Node 8, Type 0, BuildingBlock: VOLQOD_clean_sbu_1, # of connection points: 6
#     Node 9, Type 0, BuildingBlock: VOLQOD_clean_sbu_1, # of connection points: 6
#     Node 10, Type 0, BuildingBlock: VOLQOD_clean_sbu_1, # of connection points: 6
#     Node 11, Type 0, BuildingBlock: VOLQOD_clean_sbu_1, # of connection points: 6
#     Node 12, Type 0, BuildingBlock: VOLQOD_clean_sbu_1, # of connection points: 6
#     Node 13, Type 0, BuildingBlock: VOLQOD_clean_sbu_1, # of connection points: 6
#     Node 14, Type 0, BuildingBlock: VOLQOD_clean_sbu_1, # of connection points: 6
#     Node 15, Type 0, BuildingBlock: VOLQOD_clean_sbu_1, # of connection points: 6
#     Node 16, Type 0, BuildingBlock: VOLQOD_clean_sbu_1, # of connection points: 6
#     Node 17, Type 0, BuildingBlock: VOLQOD_clean_sbu_1, # of connection points: 6
#     Edge 18, Type (0, 0), BuildingBlock: XIVTED_clean_linker_0, # of connection points: 2
#     Edge 19, Type (0, 0), BuildingBlock: XIVTED_clean_linker_0, # of connection points: 2
#     Edge 20, Type (0, 0), BuildingBlock: XIVTED_clean_linker_0, # of connection points: 2
#     Edge 21, Type (0, 0), BuildingBlock: XIVTED_clean_linker_0, # of connection points: 2
#     Edge 22, Type (0, 0), BuildingBlock: XIVTED_clean_linker_0, # of connection points: 2
#     Edge 23, Type (0, 0), BuildingBlock: XIVTED_clean_linker_0, # of connection points: 2
#     Edge 24, Type (0, 0), BuildingBlock: XIVTED_clean_linker_0, # of connection points: 2
#     Edge 25, Type (0, 0), BuildingBlock: XIVTED_clean_linker_0, # of connection points: 2
#     Edge 26, Type (0, 0), BuildingBlock: XIVTED_clean_linker_0, # of connection points: 2
#     Edge 27, Type (0, 0), BuildingBlock: XIVTED_clean_linker_0, # of connection points: 2
#     Edge 28, Type (0, 0), BuildingBlock: XIVTED_clean_linker_0, # of connection points: 2
#     Edge 29, Type (0, 0), BuildingBlock: XIVTED_clean_linker_0, # of connection points: 2
#     Edge 30, Type (0, 0), BuildingBlock: XIVTED_clean_linker_0, # of connection points: 2
#     Edge 31, Type (0, 0), BuildingBlock: XIVTED_clean_linker_0, # of connection points: 2
#     Edge 32, Type (0, 0), BuildingBlock: XIVTED_clean_linker_0, # of connection points: 2
#     Edge 33, Type (0, 0), BuildingBlock: XIVTED_clean_linker_0, # of connection points: 2
#     Edge 34, Type (0, 0), BuildingBlock: XIVTED_clean_linker_0, # of connection points: 2
#     Edge 35, Type (0, 0), BuildingBlock: XIVTED_clean_linker_0, # of connection points: 2
#     Edge 36, Type (0, 0), BuildingBlock: XIVTED_clean_linker_0, # of connection points: 2
#     Edge 37, Type (0, 0), BuildingBlock: XIVTED_clean_linker_0, # of connection points: 2
#     Edge 38, Type (0, 0), BuildingBlock: XIVTED_clean_linker_0, # of connection points: 2
#     Edge 39, Type (0, 0), BuildingBlock: XIVTED_clean_linker_0, # of connection points: 2
#     Edge 40, Type (0, 0), BuildingBlock: XIVTED_clean_linker_0, # of connection points: 2
#     Edge 41, Type (0, 0), BuildingBlock: XIVTED_clean_linker_0, # of connection points: 2
#     Edge 42, Type (0, 0), BuildingBlock: XIVTED_clean_linker_0, # of connection points: 2
#     Edge 43, Type (0, 0), BuildingBlock: XIVTED_clean_linker_0, # of connection points: 2
#     Edge 44, Type (0, 0), BuildingBlock: XIVTED_clean_linker_0, # of connection points: 2
#     Edge 45, Type (0, 0), BuildingBlock: XIVTED_clean_linker_0, # of connection points: 2
#     Edge 46, Type (0, 0), BuildingBlock: XIVTED_clean_linker_0, # of connection points: 2
#     Edge 47, Type (0, 0), BuildingBlock: XIVTED_clean_linker_0, # of connection points: 2
#     Edge 48, Type (0, 0), BuildingBlock: XIVTED_clean_linker_0, # of connection points: 2
#     Edge 49, Type (0, 0), BuildingBlock: XIVTED_clean_linker_0, # of connection points: 2
#     Edge 50, Type (0, 0), BuildingBlock: XIVTED_clean_linker_0, # of connection points: 2
#     Edge 51, Type (0, 0), BuildingBlock: XIVTED_clean_linker_0, # of connection points: 2
#     Edge 52, Type (0, 0), BuildingBlock: XIVTED_clean_linker_0, # of connection points: 2
#     Edge 53, Type (0, 0), BuildingBlock: XIVTED_clean_linker_0, # of connection points: 2
#     Edge 54, Type (0, 0), BuildingBlock: XIVTED_clean_linker_0, # of connection points: 2
#     Edge 55, Type (0, 0), BuildingBlock: XIVTED_clean_linker_0, # of connection points: 2
#     Edge 56, Type (0, 0), BuildingBlock: XIVTED_clean_linker_0, # of connection points: 2
#     Edge 57, Type (0, 0), BuildingBlock: XIVTED_clean_linker_0, # of connection points: 2
#     Edge 58, Type (0, 0), BuildingBlock: XIVTED_clean_linker_0, # of connection points: 2
#     Edge 59, Type (0, 0), BuildingBlock: XIVTED_clean_linker_0, # of connection points: 2
#     Edge 60, Type (0, 0), BuildingBlock: XIVTED_clean_linker_0, # of connection points: 2
#     Edge 61, Type (0, 0), BuildingBlock: XIVTED_clean_linker_0, # of connection points: 2
#     Edge 62, Type (0, 0), BuildingBlock: XIVTED_clean_linker_0, # of connection points: 2
#     Edge 63, Type (0, 0), BuildingBlock: XIVTED_clean_linker_0, # of connection points: 2
#     Edge 64, Type (0, 0), BuildingBlock: XIVTED_clean_linker_0, # of connection points: 2
#     Edge 65, Type (0, 0), BuildingBlock: XIVTED_clean_linker_0, # of connection points: 2
#     Edge 66, Type (0, 0), BuildingBlock: XIVTED_clean_linker_0, # of connection points: 2
#     Edge 67, Type (0, 0), BuildingBlock: XIVTED_clean_linker_0, # of connection points: 2
#     Edge 68, Type (0, 0), BuildingBlock: XIVTED_clean_linker_0, # of connection points: 2
#     Edge 69, Type (0, 0), BuildingBlock: XIVTED_clean_linker_0, # of connection points: 2
#     Edge 70, Type (0, 0), BuildingBlock: XIVTED_clean_linker_0, # of connection points: 2
#     Edge 71, Type (0, 0), BuildingBlock: XIVTED_clean_linker_0, # of connection points: 2
# Relax obj value: 0.312
# Max RMSD: 0.231
# Mean RMSD: 0.231
data_MOF--net-wmi--node1-VOLQOD_clean_sbu_1--edge1-XIVTED_clean_linker_0
_symmetry_space_group_name_H-M    P1
_symmetry_Int_Tables_number       1
_symmetry_cell_setting            triclinic
loop_
_symmetry_equiv_pos_as_xyz
'x, y, z'
_cell_length_a     31.25792
_cell_length_b     31.385908
_cell_length_c     99.104133
_cell_angle_alpha  90.133786
_cell_angle_beta   90.107741
_cell_angle_gamma 120.47278
loop_
_atom_site_label
_atom_site_type_symbol
_atom_site_fract_x
_atom_site_fract_y
_atom_site_fract_z
_atom_type_partial_charge
O0 O 0.47041 0.0246 0.08982 0.0
Zn1 Zn 0.40094 0.96854 0.09123 0.0
O2 O 0.3573 0.97355 0.07809 0.0
Zn3 Zn 0.3019 0.97296 0.08754 0.0
Zn4 Zn 0.39468 0.03355 0.06798 0.0
Zn5 Zn 0.33362 0.91955 0.06533 0.0
O6 O 0.2366 0.91305 0.08223 0.0
O7 O 0.26139 0.87567 0.06773 0.0
O8 O 0.3779 0.96551 0.11011 0.0
O9 O 0.3082 0.96717 0.10746 0.0
O10 O 0.30237 0.03717 0.08483 0.0
O11 O 0.36975 0.0785 0.07207 0.0
O12 O 0.38921 0.02265 0.04812 0.0
O13 O 0.40874 0.91052 0.08745 0.0
O14 O 0.3453 0.94129 0.04608 0.0
O15 O 0.36856 0.88148 0.06807 0.0
C16 C 0.4917 0.05909 0.08126 0.0
C17 C 0.22737 0.87732 0.07432 0.0
C18 C 0.3332 0.07581 0.07843 0.0
C19 C 0.34006 0.96501 0.11498 0.0
C20 C 0.36873 0.98398 0.04083 0.0
C21 C 0.39652 0.88137 0.07741 0.0
O22 O 0.4671 0.06626 0.07222 0.0
O23 O 0.89017 0.4347 0.09242 0.0
Zn24 Zn 0.95145 0.4299 0.09412 0.0
O25 O 0.95757 0.39174 0.07955 0.0
Zn26 Zn 0.95364 0.33241 0.08676 0.0
Zn27 Zn 0.90583 0.37687 0.06676 0.0
Zn28 Zn 0.01902 0.43047 0.07024 0.0
O29 O 0.01423 0.32826 0.08159 0.0
O30 O 0.06426 0.40556 0.0745 0.0
O31 O 0.95661 0.40503 0.11231 0.0
O32 O 0.95754 0.33681 0.1069 0.0
O33 O 0.8878 0.2722 0.08165 0.0
O34 O 0.85508 0.30631 0.0686 0.0
O35 O 0.92902 0.3878 0.04759 0.0
O36 O 0.00412 0.50076 0.09251 0.0
O37 O 0.01047 0.42558 0.05024 0.0
O38 O 0.04808 0.50178 0.07483 0.0
C39 C 0.87034 0.43711 0.08143 0.0
C40 C 0.05671 0.36324 0.0779 0.0
C41 C 0.85247 0.26894 0.0744 0.0
C42 C 0.95908 0.36721 0.11568 0.0
C43 C 0.97243 0.40793 0.04265 0.0
C44 C 0.03824 0.52419 0.08392 0.0
O45 O 0.87622 0.41933 0.07049 0.0
O46 O 0.50049 0.45751 0.092 0.0
Zn47 Zn 0.50886 0.5254 0.09183 0.0
O48 O 0.5464 0.56196 0.07608 0.0
Zn49 Zn 0.60143 0.62638 0.08072 0.0
Zn50 Zn 0.57008 0.52521 0.06679 0.0
Zn51 Zn 0.50303 0.56737 0.06371 0.0
O52 O 0.59078 0.68071 0.07329 0.0
O53 O 0.5141 0.63466 0.06506 0.0
O54 O 0.54107 0.56349 0.10907 0.0
O55 O 0.60182 0.63394 0.1006 0.0
O56 O 0.66761 0.6308 0.07658 0.0
O57 O 0.63967 0.55125 0.07191 0.0
O58 O 0.57054 0.5335 0.04677 0.0
O59 O 0.43722 0.50785 0.09019 0.0
O60 O 0.51804 0.56064 0.04458 0.0
O61 O 0.43288 0.51832 0.06816 0.0
C62 C 0.50425 0.43308 0.08225 0.0
C63 C 0.55126 0.67647 0.06816 0.0
C64 C 0.6749 0.59482 0.07444 0.0
C65 C 0.57769 0.60738 0.11061 0.0
C66 C 0.54721 0.54811 0.03941 0.0
C67 C 0.41195 0.50074 0.07944 0.0
O68 O 0.52794 0.45434 0.07156 0.0
O69 O 0.10807 0.57137 0.89311 0.0
Zn70 Zn 0.04892 0.50238 0.89126 0.0
O71 O 0.04385 0.46126 0.90649 0.0
Zn72 Zn 0.05238 0.40718 0.90086 0.0
Zn73 Zn 0.09261 0.50189 0.91942 0.0
Zn74 Zn 0.98124 0.43572 0.91507 0.0
O75 O -0.00614 0.34119 0.90651 0.0
O76 O 0.93879 0.36555 0.90989 0.0
O77 O 0.0462 0.46876 0.87356 0.0
O78 O 0.04841 0.40297 0.88085 0.0
O79 O 0.12046 0.41994 0.90635 0.0
O80 O 0.14878 0.49031 0.91788 0.0
O81 O 0.06791 0.48597 0.93839 0.0
O82 O -0.00634 0.517 0.89195 0.0
O83 O 0.98722 0.43647 0.93517 0.0
O84 O 0.95176 0.47706 0.91025 0.0
C85 C 0.12315 0.59508 0.90423 0.0
C86 C 0.94941 0.33178 0.90812 0.0
C87 C 0.15491 0.45645 0.91285 0.0
C88 C 0.04547 0.42835 0.8713 0.0
C89 C 0.02444 0.45853 0.94302 0.0
C90 C 0.9602 0.50731 0.90069 0.0
O91 O 0.11567 0.57259 0.91543 0.0
O92 O 0.53663 0.59212 0.89546 0.0
Zn93 Zn 0.60469 0.60306 0.89267 0.0
O94 O 0.65192 0.65028 0.9058 0.0
Zn95 Zn 0.70702 0.70576 0.8963 0.0
Zn96 Zn 0.61861 0.67371 0.91738 0.0
Zn97 Zn 0.67626 0.61765 0.91732 0.0
O98 O 0.77257 0.70983 0.90035 0.0
O99 O 0.74816 0.64688 0.91455 0.0
O100 O 0.62576 0.62501 0.87364 0.0
O101 O 0.69744 0.69517 0.87637 0.0
O102 O 0.70863 0.77009 0.90006 0.0
O103 O 0.64611 0.74505 0.91454 0.0
O104 O 0.624 0.66258 0.93694 0.0
O105 O 0.59495 0.53543 0.8953 0.0
O106 O 0.66458 0.62189 0.93695 0.0
O107 O 0.64189 0.54545 0.91319 0.0
C108 C 0.51852 0.60695 0.90454 0.0
C109 C 0.78191 0.68268 0.90789 0.0
C110 C 0.68111 0.77882 0.90766 0.0
C111 C 0.66397 0.66246 0.86879 0.0
C112 C 0.64267 0.64065 0.94323 0.0
C113 C 0.6108 0.51785 0.90426 0.0
O114 O 0.5459 0.63793 0.9135 0.0
O115 O 0.51251 0.98865 0.89104 0.0
Zn116 Zn 0.50213 0.04663 0.89123 0.0
O117 O 0.46232 0.04314 0.90663 0.0
Zn118 Zn 0.40872 0.05356 0.90179 0.0
Zn119 Zn 0.43638 0.98083 0.91507 0.0
Zn120 Zn 0.50406 0.09066 0.91954 0.0
O121 O 0.42189 0.12057 0.90841 0.0
O122 O 0.49622 0.14889 0.91789 0.0
O123 O 0.47008 0.04998 0.87379 0.0
O124 O 0.40767 0.05719 0.88189 0.0
O125 O 0.34171 -0.00692 0.90627 0.0
O126 O 0.36702 0.93861 0.9091 0.0
O127 O 0.43383 0.98631 0.93511 0.0
O128 O 0.57302 0.10246 0.89351 0.0
O129 O 0.48521 0.06635 0.93838 0.0
O130 O 0.57407 0.10988 0.91585 0.0
C131 C 0.50585 0.95787 0.9003 0.0
C132 C 0.46118 0.15531 0.91392 0.0
C133 C 0.33283 0.94874 0.90728 0.0
C134 C 0.43224 0.05471 0.87203 0.0
C135 C 0.45573 0.02343 0.94295 0.0
C136 C 0.59663 0.11639 0.90469 0.0
O137 O 0.47882 0.95227 0.91051 0.0
O138 O 0.19936 0.40674 0.43382 0.0
Zn139 Zn 0.13407 0.34319 0.43323 0.0
O140 O 0.0941 0.33779 0.41756 0.0
Zn141 Zn 0.03259 0.33279 0.42352 0.0
Zn142 Zn 0.13155 0.39516 0.40669 0.0
Zn143 Zn 0.08119 0.28181 0.40663 0.0
O144 O 0.97399 0.2764 0.41395 0.0
O145 O 0.00881 0.23467 0.40592 0.0
O146 O 0.09616 0.33004 0.45041 0.0
O147 O 0.02275 0.31603 0.44321 0.0
O148 O 0.03543 0.39825 0.42102 0.0
O149 O 0.10519 0.43991 0.40917 0.0
O150 O 0.1297 0.38037 0.38701 0.0
O151 O 0.15559 0.2936 0.4319 0.0
O152 O 0.09957 0.29965 0.38737 0.0
O153 O 0.12028 0.25142 0.41313 0.0
C154 C 0.2237 0.43185 0.42363 0.0
C155 C 0.97089 0.23875 0.40807 0.0
C156 C 0.06741 0.43707 0.41487 0.0
C157 C 0.05122 0.31755 0.45264 0.0
C158 C 0.11717 0.34 0.38094 0.0
C159 C 0.14869 0.26065 0.42329 0.0
O160 O 0.20235 0.42849 0.41241 0.0
O161 O 0.61141 0.7975 0.42891 0.0
Zn162 Zn 0.67707 0.80816 0.42334 0.0
O163 O 0.67007 0.76197 0.40958 0.0
Zn164 Zn 0.6844 0.71379 0.41714 0.0
Zn165 Zn 0.60417 0.73372 0.40234 0.0
Zn166 Zn 0.71479 0.79593 0.39532 0.0
O167 O 0.73878 0.71194 0.40668 0.0
O168 O 0.77157 0.78498 0.39649 0.0
O169 O 0.713 0.80464 0.43955 0.0
O170 O 0.71387 0.73539 0.43568 0.0
O171 O 0.62101 0.64763 0.41873 0.0
O172 O 0.56662 0.66544 0.40947 0.0
O173 O 0.60186 0.7284 0.38185 0.0
O174 O 0.71261 0.87661 0.41594 0.0
O175 O 0.68277 0.76762 0.37783 0.0
O176 O 0.73697 0.86805 0.3956 0.0
C177 C 0.57735 0.79168 0.42078 0.0
C178 C 0.77392 0.74736 0.40015 0.0
C179 C 0.57694 0.63571 0.41535 0.0
C180 C 0.72427 0.77263 0.44309 0.0
C181 C 0.63815 0.74251 0.37376 0.0
C182 C 0.73315 0.8947 0.40467 0.0
O183 O 0.57312 0.77272 0.4091 0.0
O184 O 0.19568 0.81041 0.4365 0.0
Zn185 Zn 0.20037 0.87632 0.43686 0.0
O186 O 0.25523 0.92541 0.42617 0.0
Zn187 Zn 0.3046 0.97653 0.43792 0.0
Zn188 Zn 0.2822 0.89236 0.41612 0.0
Zn189 Zn 0.23153 0.95422 0.41332 0.0
O190 O 0.31972 0.04455 0.43219 0.0
O191 O 0.25659 0.02386 0.41803 0.0
O192 O 0.2018 0.89974 0.45577 0.0
O193 O 0.27511 0.96934 0.45621 0.0
O194 O 0.36672 0.97142 0.43905 0.0
O195 O 0.34769 0.91172 0.42385 0.0
O196 O 0.29246 0.91037 0.39644 0.0
O197 O 0.1365 0.86148 0.42838 0.0
O198 O 0.25733 0.95611 0.395 0.0
O199 O 0.15761 0.91558 0.41174 0.0
C200 C 0.20744 0.79203 0.42673 0.0
C201 C 0.29384 0.05598 0.42473 0.0
C202 C 0.37704 0.94275 0.43251 0.0
C203 C 0.23447 0.93848 0.46184 0.0
C204 C 0.2805 0.93703 0.38963 0.0
C205 C 0.12489 0.87889 0.41839 0.0
O206 O 0.23762 0.81928 0.41764 0.0
O207 O 0.74634 0.88019 0.22796 0.0
Zn208 Zn 0.689 0.81124 0.22435 0.0
O209 O 0.68143 0.76546 0.23852 0.0
Zn210 Zn 0.6953 0.71558 0.23212 0.0
Zn211 Zn 0.72468 0.80323 0.25272 0.0
Zn212 Zn 0.61568 0.73349 0.24557 0.0
O213 O 0.63711 0.64633 0.2359 0.0
O214 O 0.57818 0.66623 0.23783 0.0
O215 O 0.69101 0.78352 0.20616 0.0
O216 O 0.6969 0.71823 0.21197 0.0
O217 O 0.76252 0.72958 0.2392 0.0
O218 O 0.78292 0.79471 0.25242 0.0
O219 O 0.69319 0.77969 0.27064 0.0
O220 O 0.63219 0.82338 0.22494 0.0
O221 O 0.61429 0.72659 0.26581 0.0
O222 O 0.58472 0.77344 0.24122 0.0
C223 C 0.75759 0.90051 0.2396 0.0
C224 C 0.59156 0.63459 0.23589 0.0
C225 C 0.79299 0.76395 0.24709 0.0
C226 C 0.69362 0.74548 0.20301 0.0
C227 C 0.64929 0.74862 0.27434 0.0
C228 C 0.59513 0.8078 0.23278 0.0
O229 O 0.74692 0.87467 0.25029 0.0
O230 O 0.17744 0.89058 0.2415 0.0
Zn231 Zn 0.24442 0.89968 0.23931 0.0
O232 O 0.29116 0.94706 0.25214 0.0
Zn233 Zn 0.34481 0.002 0.24221 0.0
Zn234 Zn 0.25655 0.96901 0.2637 0.0
Zn235 Zn 0.31709 0.91558 0.26345 0.0
O236 O 0.41111 0.00879 0.24618 0.0
O237 O 0.38754 0.94201 0.25883 0.0
O238 O 0.26517 0.9178 0.22022 0.0
O239 O 0.33581 0.98919 0.22233 0.0
O240 O 0.34391 0.06491 0.24521 0.0
O241 O 0.27983 0.03864 0.25922 0.0
O242 O 0.27144 0.96711 0.28325 0.0
O243 O 0.23322 0.83266 0.24279 0.0
O244 O 0.31529 0.9296 0.28299 0.0
O245 O 0.27845 0.84183 0.26102 0.0
C246 C 0.15694 0.90096 0.25097 0.0
C247 C 0.42083 0.97955 0.25256 0.0
C248 C 0.31429 0.0725 0.2522 0.0
C249 C 0.3028 0.95475 0.21505 0.0
C250 C 0.29564 0.95042 0.28937 0.0
C251 C 0.24691 0.8145 0.25212 0.0
O252 O 0.18223 0.92882 0.26077 0.0
O253 O 0.14355 0.27544 0.22791 0.0
Zn254 Zn 0.14018 0.33735 0.2275 0.0
O255 O 0.1071 0.34225 0.24362 0.0
Zn256 Zn 0.05383 0.35434 0.23874 0.0
Zn257 Zn 0.08075 0.28302 0.25408 0.0
Zn258 Zn 0.15588 0.39373 0.25485 0.0
O259 O 0.06688 0.41965 0.24665 0.0
O260 O 0.14317 0.44899 0.25497 0.0
O261 O 0.1066 0.34105 0.21057 0.0
O262 O 0.05233 0.36038 0.21872 0.0
O263 O 0.98594 0.29485 0.24316 0.0
O264 O 0.00835 0.2434 0.25167 0.0
O265 O 0.09373 0.2954 0.2739 0.0
O266 O 0.21299 0.38931 0.22724 0.0
O267 O 0.1518 0.37445 0.27411 0.0
O268 O 0.22445 0.41595 0.24843 0.0
C269 C 0.13472 0.24499 0.23743 0.0
C270 C 0.1062 0.45401 0.25225 0.0
C271 C 0.97519 0.25269 0.24779 0.0
C272 C 0.07319 0.3524 0.20882 0.0
C273 C 0.12444 0.33422 0.28028 0.0
C274 C 0.24163 0.41339 0.23703 0.0
O275 O 0.11216 0.24519 0.24808 0.0
O276 O 0.83476 0.71434 0.74236 0.0
Zn277 Zn 0.76713 0.65946 0.74691 0.0
O278 O 0.71933 0.64885 0.73283 0.0
Zn279 Zn 0.66581 0.65531 0.74081 0.0
Zn280 Zn 0.75283 0.69644 0.71859 0.0
Zn281 Zn 0.69281 0.58406 0.72511 0.0
O282 O 0.59837 0.59474 0.73789 0.0
O283 O 0.6218 0.54353 0.72972 0.0
O284 O 0.74724 0.67097 0.76506 0.0
O285 O 0.67336 0.66194 0.7609 0.0
O286 O 0.67068 0.71833 0.73459 0.0
O287 O 0.73282 0.7474 0.71983 0.0
O288 O 0.73834 0.66488 0.70016 0.0
O289 O 0.77731 0.60213 0.74818 0.0
O290 O 0.69619 0.58496 0.70503 0.0
O291 O 0.73112 0.55259 0.73154 0.0
C292 C 0.8539 0.73634 0.73134 0.0
C293 C 0.58844 0.55205 0.73394 0.0
C294 C 0.70049 0.75182 0.72653 0.0
C295 C 0.70777 0.66916 0.76909 0.0
C296 C 0.71568 0.61973 0.69649 0.0
C297 C 0.7629 0.56376 0.74094 0.0
O298 O 0.8271 0.73117 0.72108 0.0
O299 O 0.24688 0.11574 0.75422 0.0
Zn300 Zn 0.30706 0.11088 0.75828 0.0
O301 O 0.32003 0.07517 0.74445 0.0
Zn302 Zn 0.30741 0.01179 0.75097 0.0
Zn303 Zn 0.28027 0.06915 0.72917 0.0
Zn304 Zn 0.3881 0.11193 0.7393 0.0
O305 O 0.36772 0.00356 0.74881 0.0
O306 O 0.42513 0.08361 0.74794 0.0
O307 O 0.30393 0.0816 0.77635 0.0
O308 O 0.3 0.01076 0.77106 0.0
O309 O 0.2443 0.95719 0.74243 0.0
O310 O 0.22765 -0.00157 0.72702 0.0
O311 O 0.32151 0.09402 0.71253 0.0
O312 O 0.36047 0.18208 0.7583 0.0
O313 O 0.39699 0.11279 0.71922 0.0
O314 O 0.41605 0.18237 0.74439 0.0
C315 C 0.23318 0.12131 0.74257 0.0
C316 C 0.41263 0.03874 0.74987 0.0
C317 C 0.21709 0.95831 0.73296 0.0
C318 C 0.30121 0.04122 0.77979 0.0
C319 C 0.36671 0.10834 0.70998 0.0
C320 C 0.40092 0.20514 0.75181 0.0
O321 O 0.24674 0.1086 0.73193 0.0
O322 O 0.85769 0.12531 0.75835 0.0
Zn323 Zn 0.86323 0.19185 0.7616 0.0
O324 O 0.893 0.23509 0.74584 0.0
Zn325 Zn 0.95401 0.29499 0.75041 0.0
Zn326 Zn 0.90702 0.20216 0.73187 0.0
Zn327 Zn 0.84708 0.25228 0.73856 0.0
O328 O 0.95197 0.35602 0.74491 0.0
O329 O 0.8699 0.32194 0.74271 0.0
O330 O 0.90077 0.22707 0.77881 0.0
O331 O 0.95922 0.29864 0.77026 0.0
O332 O 0.01453 0.2935 0.74374 0.0
O333 O 0.97898 0.2273 0.73045 0.0
O334 O 0.881 0.20664 0.71395 0.0
O335 O 0.79063 0.17097 0.76342 0.0
O336 O 0.84108 0.24646 0.71848 0.0
O337 O 0.77935 0.20663 0.74552 0.0
C338 C 0.85931 0.10625 0.74711 0.0
C339 C 0.91328 0.35952 0.74366 0.0
C340 C 0.01745 0.2632 0.73576 0.0
C341 C 0.93775 0.27086 0.78031 0.0
C342 C 0.85568 0.2258 0.71015 0.0
C343 C 0.76225 0.17716 0.75545 0.0
O344 O 0.87509 0.13185 0.73643 0.0
O345 O 0.34571 0.19499 0.56301 0.0
Zn346 Zn 0.28976 0.1349 0.57159 0.0
O347 O 0.31367 0.10378 0.5841 0.0
Zn348 Zn 0.29269 0.03648 0.57852 0.0
Zn349 Zn 0.38545 0.14128 0.58459 0.0
Zn350 Zn 0.2869 0.10175 0.60184 0.0
O351 O 0.24855 0.98734 0.59209 0.0
O352 O 0.23536 0.03233 0.60696 0.0
O353 O 0.24896 0.08797 0.55679 0.0
O354 O 0.25246 0.02073 0.56164 0.0
O355 O 0.34945 0.02592 0.57402 0.0
O356 O 0.4123 0.10328 0.57562 0.0
O357 O 0.41195 0.15658 0.60373 0.0
O358 O 0.25111 0.16018 0.58126 0.0
O359 O 0.34163 0.12869 0.61528 0.0
O360 O 0.25418 0.14244 0.60279 0.0
C361 C 0.39208 0.2186 0.56537 0.0
C362 C 0.22617 0.99056 0.6024 0.0
C363 C 0.39489 0.05826 0.57239 0.0
C364 C 0.23779 0.04375 0.55417 0.0
C365 C 0.38863 0.14903 0.61479 0.0
C366 C 0.24176 0.16246 0.59364 0.0
O367 O 0.41168 0.20339 0.57393 0.0
O368 O 0.7558 0.13877 0.55817 0.0
Zn369 Zn 0.82263 0.14763 0.56249 0.0
O370 O 0.85429 0.19172 0.57774 0.0
Zn371 Zn 0.91804 0.24654 0.57274 0.0
Zn372 Zn 0.81203 0.21589 0.58334 0.0
Zn373 Zn 0.86148 0.15745 0.59264 0.0
O374 O 0.97193 0.25383 0.58521 0.0
O375 O 0.93325 0.18387 0.59687 0.0
O376 O 0.86616 0.17071 0.54613 0.0
O377 O 0.93522 0.23509 0.55419 0.0
O378 O 0.91566 0.30903 0.57099 0.0
O379 O 0.83521 0.28057 0.57439 0.0
O380 O 0.8098 0.22223 0.60353 0.0
O381 O 0.80498 0.0789 0.56745 0.0
O382 O 0.83136 0.16713 0.60902 0.0
O383 O 0.82637 0.08519 0.58907 0.0
C384 C 0.72696 0.14247 0.5665 0.0
C385 C 0.97259 0.22396 0.59378 0.0
C386 C 0.878 0.31448 0.57061 0.0
C387 C 0.9109 0.20548 0.54461 0.0
C388 C 0.81475 0.19525 0.61222 0.0
C389 C 0.80596 0.05927 0.57859 0.0
O390 O 0.74312 0.16774 0.5773 0.0
O391 O 0.85311 0.63064 0.55113 0.0
Zn392 Zn 0.835 0.68069 0.5569 0.0
O393 O 0.77226 0.65032 0.56687 0.0
Zn394 Zn 0.72173 0.65663 0.55698 0.0
Zn395 Zn 0.74918 0.58111 0.56997 0.0
Zn396 Zn 0.78299 0.68321 0.58407 0.0
O397 O 0.69773 0.69519 0.56734 0.0
O398 O 0.74643 0.71946 0.58542 0.0
O399 O 0.83129 0.71517 0.5402 0.0
O400 O 0.75223 0.69593 0.54034 0.0
O401 O 0.66313 0.59068 0.5515 0.0
O402 O 0.68602 0.53993 0.56013 0.0
O403 O 0.73902 0.56216 0.58983 0.0
O404 O 0.89132 0.7273 0.56885 0.0
O405 O 0.76065 0.63522 0.5989 0.0
O406 O 0.85484 0.72976 0.58779 0.0
C407 C 0.83424 0.58555 0.55438 0.0
C408 C 0.71258 0.71954 0.57831 0.0
C409 C 0.65602 0.54746 0.55332 0.0
C410 C 0.79511 0.71726 0.535 0.0
C411 C 0.74512 0.58943 0.60003 0.0
C412 C 0.89369 0.74264 0.58088 0.0
O413 O 0.79624 0.56351 0.56189 0.0
H414 H 0.38606 0.82009 0.05639 0.0
H415 H 0.58465 0.75505 0.08548 0.0
H416 H 0.46423 0.87737 0.09414 0.0
H417 H 0.49981 0.69295 0.04898 0.0
H418 H 0.55088 0.81038 0.08712 0.0
H419 H 0.43398 0.77975 0.05243 0.0
C420 C 0.41293 0.82379 0.06392 0.0
C421 C 0.42088 0.85194 0.07566 0.0
C422 C 0.54043 0.78529 0.07862 0.0
C423 C 0.47657 0.8065 0.07106 0.0
C424 C 0.56025 0.75429 0.07759 0.0
C425 C 0.54444 0.71925 0.06717 0.0
C426 C 0.50482 0.78088 0.06914 0.0
C427 C 0.51237 0.71919 0.05726 0.0
C428 C 0.44065 0.80111 0.06159 0.0
C429 C 0.45659 0.85578 0.08499 0.0
N430 N 0.49307 0.74905 0.05859 0.0
N431 N 0.48313 0.83329 0.08249 0.0
H432 H 0.17904 0.81656 0.05326 0.0
H433 H 0.03411 0.58718 0.10246 0.0
H434 H 0.16772 0.83396 0.09604 0.0
H435 H 0.09094 0.58363 0.06301 0.0
H436 H 0.06335 0.67524 0.09928 0.0
H437 H 0.12037 0.72823 0.05539 0.0
C438 C 0.16263 0.80192 0.06302 0.0
C439 C 0.17878 0.83198 0.07454 0.0
C440 C 0.06915 0.65492 0.09135 0.0
C441 C 0.11374 0.73127 0.07716 0.0
C442 C 0.05306 0.60495 0.0932 0.0
C443 C 0.06072 0.57819 0.08305 0.0
C444 C 0.09231 0.67782 0.07922 0.0
C445 C 0.08487 0.60285 0.07119 0.0
C446 C 0.12973 0.75151 0.06427 0.0
C447 C 0.15633 0.81163 0.08695 0.0
N448 N 0.09968 0.6512 0.06961 0.0
N449 N 0.1258 0.76195 0.08803 0.0
H450 H 0.10794 0.36032 0.05646 0.0
H451 H 0.35104 0.4608 0.1015 0.0
H452 H 0.1052 0.35753 0.0999 0.0
H453 H 0.34852 0.46701 0.05798 0.0
H454 H 0.26036 0.4087 0.10135 0.0
H455 H 0.19438 0.38086 0.05701 0.0
C456 C 0.12526 0.3622 0.06611 0.0
C457 C 0.09992 0.35708 0.07814 0.0
C458 C 0.27984 0.42119 0.09185 0.0
C459 C 0.19922 0.38335 0.07895 0.0
C460 C 0.33151 0.4512 0.09193 0.0
C461 C 0.35736 0.46912 0.07975 0.0
C462 C 0.25404 0.40899 0.0795 0.0
C463 C 0.33022 0.4549 0.06764 0.0
C464 C 0.17473 0.37456 0.06645 0.0
C465 C 0.1238 0.36078 0.09042 0.0
N466 N 0.28014 0.426 0.06785 0.0
N467 N 0.17271 0.37482 0.09054 0.0
H468 H 0.90736 0.51534 0.92132 0.0
H469 H 0.83587 0.6921 0.88538 0.0
H470 H 0.96331 0.57206 0.88153 0.0
H471 H 0.83351 0.67388 0.92852 0.0
H472 H 0.88943 0.65636 0.88338 0.0
H473 H 0.88053 0.57518 0.92357 0.0
C474 C 0.91344 0.53995 0.91296 0.0
C475 C 0.93734 0.5384 0.90117 0.0
C476 C 0.87861 0.66182 0.89331 0.0
C477 C 0.90742 0.60797 0.90382 0.0
C478 C 0.84872 0.68291 0.89448 0.0
C479 C 0.82976 0.68493 0.90712 0.0
C480 C 0.88882 0.64266 0.90488 0.0
C481 C 0.84693 0.67213 0.91858 0.0
C482 C 0.89885 0.57477 0.91435 0.0
C483 C 0.94473 0.57181 0.89076 0.0
N484 N 0.87452 0.65032 0.91717 0.0
N485 N 0.92949 0.60514 0.89229 0.0
H486 H 0.42674 0.19938 0.8966 0.0
H487 H 0.63299 0.46717 0.9226 0.0
H488 H 0.51858 0.22711 0.93186 0.0
H489 H 0.53576 0.44523 0.88894 0.0
H490 H 0.58898 0.37851 0.92624 0.0
H491 H 0.46064 0.28873 0.89438 0.0
C492 C 0.45294 0.22416 0.90408 0.0
C493 C 0.47038 0.2061 0.91434 0.0
C494 C 0.57718 0.39295 0.91804 0.0
C495 C 0.50996 0.30767 0.9117 0.0
C496 C 0.60264 0.44368 0.91588 0.0
C497 C 0.58813 0.46377 0.90543 0.0
C498 C 0.53691 0.36179 0.90967 0.0
C499 C 0.54835 0.43134 0.89708 0.0
C500 C 0.47271 0.27509 0.90272 0.0
C501 C 0.50466 0.23966 0.9237 0.0
N502 N 0.52404 0.38185 0.89939 0.0
N503 N 0.52374 0.28882 0.92205 0.0
H504 H 0.65534 0.13348 0.92674 0.0
H505 H 0.90604 0.27849 0.88557 0.0
H506 H 0.66142 0.14571 0.88329 0.0
H507 H 0.89611 0.27436 0.92892 0.0
H508 H 0.81907 0.2119 0.88423 0.0
H509 H 0.74469 0.16892 0.92735 0.0
C510 C 0.67549 0.14379 0.9173 0.0
C511 C 0.65093 0.13766 0.90495 0.0
C512 C 0.83634 0.22435 0.89405 0.0
C513 C 0.75368 0.17815 0.90561 0.0
C514 C 0.88606 0.26173 0.8948 0.0
C515 C 0.90774 0.28125 0.90737 0.0
C516 C 0.80853 0.20725 0.90598 0.0
C517 C 0.88043 0.25968 0.91906 0.0
C518 C 0.72658 0.16366 0.91766 0.0
C519 C 0.67897 0.15057 0.89305 0.0
N520 N 0.83186 0.22428 0.91809 0.0
N521 N 0.72905 0.17086 0.89368 0.0
H522 H 0.30258 0.11146 0.40307 0.0
H523 H 0.20108 0.25758 0.44512 0.0
H524 H 0.29926 0.1112 0.44653 0.0
H525 H 0.16839 0.21362 0.40329 0.0
H526 H 0.25722 0.22444 0.44562 0.0
H527 H 0.27992 0.17523 0.40289 0.0
C528 C 0.29905 0.12649 0.41259 0.0
C529 C 0.30206 0.10605 0.42482 0.0
C530 C 0.23787 0.22242 0.43635 0.0
C531 C 0.27383 0.17664 0.42472 0.0
C532 C 0.20555 0.24081 0.43607 0.0
C533 C 0.17943 0.23756 0.4242 0.0
C534 C 0.24451 0.20142 0.42462 0.0
C535 C 0.18702 0.21609 0.41273 0.0
C536 C 0.28546 0.16228 0.41249 0.0
C537 C 0.2971 0.1263 0.43691 0.0
N538 N 0.21886 0.19885 0.41324 0.0
N539 N 0.28176 0.15978 0.43657 0.0
H540 H 0.88231 0.20218 0.42126 0.0
H541 H 0.78188 0.94795 0.38225 0.0
H542 H 0.95004 0.18022 0.38609 0.0
H543 H 0.73121 0.9628 0.42156 0.0
H544 H 0.82533 0.03757 0.37982 0.0
H545 H 0.80888 0.12028 0.41751 0.0
C546 C 0.881 0.1807 0.41253 0.0
C547 C 0.92241 0.19698 0.40415 0.0
C548 C 0.8041 0.02112 0.3889 0.0
C549 C 0.83958 0.10404 0.39988 0.0
C550 C 0.77947 0.96997 0.39032 0.0
C551 C 0.75422 0.948 0.40231 0.0
C552 C 0.80378 0.05043 0.39958 0.0
C553 C 0.75136 0.97829 0.41229 0.0
C554 C 0.83935 0.13399 0.41043 0.0
C555 C 0.91912 0.16816 0.39295 0.0
N556 N 0.77664 0.02811 0.4108 0.0
N557 N 0.87871 0.12267 0.39126 0.0
H558 H 0.08606 0.90009 0.39637 0.0
H559 H 0.80877 0.69715 0.4147 0.0
H560 H 0.04553 0.79805 0.42963 0.0
H561 H 0.84876 0.80418 0.3828 0.0
H562 H 0.89591 0.72096 0.41693 0.0
H563 H 8e-05 0.85542 0.38863 0.0
C564 C 0.05908 0.86842 0.40207 0.0
C565 C 0.07285 0.85331 0.41379 0.0
C566 C 0.88546 0.73853 0.40926 0.0
C567 C 0.97457 0.80165 0.4049 0.0
C568 C 0.83565 0.7246 0.40789 0.0
C569 C 0.8219 0.74975 0.39881 0.0
C570 C 0.92134 0.77783 0.4015 0.0
C571 C 0.85811 0.78478 0.39018 0.0
C572 C 0.01008 0.84265 0.39758 0.0
C573 C 0.03647 0.81147 0.42065 0.0
N574 N 0.90641 0.79852 0.39192 0.0
N575 N -0.01111 0.78733 0.41615 0.0
H576 H 0.47397 0.00045 0.2293 0.0
H577 H 0.52647 0.79584 0.2515 0.0
H578 H 0.47258 0.95991 0.27091 0.0
H579 H 0.60948 0.88772 0.21779 0.0
H580 H 0.5001 0.85422 0.25705 0.0
H581 H 0.52571 0.96472 0.22377 0.0
C582 C 0.48669 0.98634 0.23737 0.0
C583 C 0.46823 0.98179 0.25051 0.0
C584 C 0.52423 0.86171 0.24846 0.0
C585 C 0.52515 0.93989 0.24422 0.0
C586 C 0.5386 0.82791 0.24512 0.0
C587 C 0.57055 0.83703 0.23421 0.0
C588 C 0.54111 0.90461 0.24072 0.0
C589 C 0.5849 0.87935 0.22632 0.0
C590 C 0.5156 0.96542 0.23418 0.0
C591 C 0.48539 0.96306 0.26061 0.0
N592 N 0.56993 0.91176 0.22971 0.0
N593 N 0.51181 0.94141 0.25719 0.0
H594 H 0.26036 0.76036 0.27154 0.0
H595 H 0.06691 0.50091 0.23799 0.0
H596 H 0.17566 0.74517 0.23548 0.0
H597 H 0.1604 0.51817 0.27212 0.0
H598 H 0.09513 0.58934 0.23931 0.0
H599 H 0.21536 0.67063 0.27374 0.0
C600 C 0.23251 0.73819 0.26405 0.0
C601 C 0.22216 0.7603 0.25324 0.0
C602 C 0.10879 0.57352 0.24664 0.0
C603 C 0.17008 0.65767 0.25579 0.0
C604 C 0.0923 0.52307 0.24597 0.0
C605 C 0.11211 0.50275 0.25481 0.0
C606 C 0.14509 0.60326 0.25623 0.0
C607 C 0.145 0.53284 0.26495 0.0
C608 C 0.20655 0.68697 0.26537 0.0
C609 C 0.18522 0.72972 0.24392 0.0
N610 N 0.16098 0.58176 0.26528 0.0
N611 N 0.16064 0.67992 0.24539 0.0
H612 H 0.55123 0.56261 0.2547 0.0
H613 H 0.29614 0.43435 0.21369 0.0
H614 H 0.53903 0.59428 0.21309 0.0
H615 H 0.3103 0.44129 0.25711 0.0
H616 H 0.38659 0.47236 0.21193 0.0
H617 H 0.46522 0.49399 0.25393 0.0
C618 C 0.53109 0.55339 0.24522 0.0
C619 C 0.55178 0.58354 0.23392 0.0
C620 C 0.36965 0.46501 0.22182 0.0
C621 C 0.45338 0.5073 0.23311 0.0
C622 C 0.31819 0.44367 0.22283 0.0
C623 C 0.29583 0.43571 0.23556 0.0
C624 C 0.39862 0.47774 0.23362 0.0
C625 C 0.32604 0.44781 0.24708 0.0
C626 C 0.48185 0.51487 0.24482 0.0
C627 C 0.52406 0.57129 0.22195 0.0
N628 N 0.37584 0.46841 0.24583 0.0
N629 N 0.47576 0.53458 0.22191 0.0
H630 H 0.82123 0.56582 0.76188 0.0
H631 H 0.90791 0.40367 0.72111 0.0
H632 H 0.76745 0.50198 0.72241 0.0
H633 H 0.92054 0.41931 0.76435 0.0
H634 H 0.87818 0.46217 0.72036 0.0
H635 H 0.87412 0.52903 0.76216 0.0
C636 C 0.8202 0.54371 0.75334 0.0
C637 C 0.78959 0.53654 0.74214 0.0
C638 C 0.88877 0.45393 0.72999 0.0
C639 C 0.85094 0.49607 0.74225 0.0
C640 C 0.90655 0.42137 0.73037 0.0
C641 C 0.91688 0.40744 0.74279 0.0
C642 C 0.88072 0.47181 0.74214 0.0
C643 C 0.91341 0.43 0.75459 0.0
C644 C 0.85066 0.5232 0.75347 0.0
C645 C 0.78996 0.50795 0.73131 0.0
N646 N 0.89468 0.46066 0.75403 0.0
N647 N 0.82037 0.48895 0.73161 0.0
H648 H 0.53553 0.52144 0.75721 0.0
H649 H 0.47277 0.26353 0.73402 0.0
H650 H 0.53287 0.48351 0.71529 0.0
H651 H 0.38345 0.26978 0.76637 0.0
H652 H 0.50191 0.34943 0.72902 0.0
H653 H 0.4787 0.4337 0.76228 0.0
C654 C 0.52071 0.49497 0.74898 0.0
C655 C 0.53911 0.50902 0.73586 0.0
C656 C 0.47579 0.33197 0.7372 0.0
C657 C 0.4766 0.40993 0.7416 0.0
C658 C 0.45977 0.28311 0.74023 0.0
C659 C 0.42545 0.25929 0.75062 0.0
C660 C 0.45825 0.35778 0.74473 0.0
C661 C 0.40992 0.28683 0.75826 0.0
C662 C 0.48889 0.44501 0.7519 0.0
C663 C 0.51971 0.47366 0.72555 0.0
N664 N 0.42673 0.33504 0.75521 0.0
N665 N 0.49049 0.42535 0.72869 0.0
H666 H 0.45818 0.00648 0.73298 0.0
H667 H 0.70449 0.13512 0.77803 0.0
H668 H 0.46021 0.05522 0.77375 0.0
H669 H 0.69739 0.14225 0.73466 0.0
H670 H 0.61346 0.08019 0.77842 0.0
H671 H 0.54415 0.0259 0.73582 0.0
C672 C 0.47603 0.01891 0.74274 0.0
C673 C 0.45261 0.02929 0.75317 0.0
C674 C 0.63223 0.09349 0.76885 0.0
C675 C 0.55072 0.05333 0.75633 0.0
C676 C 0.68383 0.12497 0.76863 0.0
C677 C 0.70809 0.14418 0.75633 0.0
C678 C 0.60545 0.0803 0.75665 0.0
C679 C 0.67996 0.12936 0.7444 0.0
C680 C 0.52517 0.03066 0.74431 0.0
C681 C 0.47742 0.04661 0.76553 0.0
N682 N 0.63022 0.0984 0.74486 0.0
N683 N 0.52569 0.05908 0.76672 0.0
H684 H -0.01049 0.17429 0.6138 0.0
H685 H 0.23734 0.23471 0.57971 0.0
H686 H 0.06549 0.29266 0.58511 0.0
H687 H 0.18413 0.14709 0.61591 0.0
H688 H 0.1822 0.26678 0.58403 0.0
H689 H 0.06664 0.17457 0.61772 0.0
C690 C 0.02267 0.20106 0.60853 0.0
C691 C 0.02072 0.23239 0.59878 0.0
C692 C 0.18313 0.24125 0.59118 0.0
C693 C 0.1088 0.23245 0.60309 0.0
C694 C 0.21435 0.22265 0.58866 0.0
C695 C 0.21425 0.18732 0.59729 0.0
C696 C 0.15072 0.22342 0.60224 0.0
C697 C 0.1847 0.17378 0.6089 0.0
C698 C 0.06677 0.20129 0.61081 0.0
C699 C 0.06501 0.26706 0.59249 0.0
N700 N 0.15317 0.19103 0.61088 0.0
N701 N 0.10702 0.26533 0.59451 0.0
H702 H 0.7262 0.76985 0.60195 0.0
H703 H 0.74708 0.9911 0.55958 0.0
H704 H 0.66819 0.75485 0.56155 0.0
H705 H 0.80115 0.00399 0.60042 0.0
H706 H 0.7016 0.90145 0.56186 0.0
H707 H 0.73255 0.8502 0.60383 0.0
C708 C 0.71344 0.78285 0.59361 0.0
C709 C 0.6986 0.75671 0.58138 0.0
C710 C 0.72304 0.92391 0.57037 0.0
C711 C 0.70701 0.84889 0.5833 0.0
C712 C 0.74953 0.9751 0.56901 0.0
C713 C 0.77895 0.00504 0.57971 0.0
C714 C 0.72637 0.90252 0.58246 0.0
C715 C 0.77972 0.98233 0.59181 0.0
C716 C 0.71733 0.82888 0.59466 0.0
C717 C 0.68118 0.7745 0.57104 0.0
N718 N 0.75428 0.93238 0.5928 0.0
N719 N 0.68729 0.82034 0.57208 0.0
H720 H 0.14734 0.98272 0.61661 0.0
H721 H 0.98041 0.74841 0.57377 0.0
H722 H 0.20138 0.89498 0.59776 0.0
H723 H 0.91767 0.80346 0.60296 0.0
H724 H 0.06117 0.79764 0.58447 0.0
H725 H 0.06301 0.91212 0.61518 0.0
C726 C 0.14177 0.94807 0.61265 0.0
C727 C 0.18112 0.94521 0.6068 0.0
C728 C 0.02973 0.79865 0.58866 0.0
C729 C 0.08497 0.86505 0.60485 0.0
C730 C 0.98373 0.77107 0.58242 0.0
C731 C 0.94259 0.77271 0.58733 0.0
C732 C 0.03497 0.82897 0.59974 0.0
C733 C 0.94871 0.80173 0.59877 0.0
C734 C 0.09348 0.90784 0.61173 0.0
C735 C 0.17181 0.89923 0.60197 0.0
N736 N -0.00565 0.82948 0.60447 0.0
N737 N 0.12445 0.86131 0.60074 0.0
H738 H 0.33426 0.91007 0.02184 0.0
H739 H 0.49085 0.09513 0.96244 0.0
H740 H 0.421 0.0689 0.02629 0.0
H741 H 0.39342 0.93806 0.9565 0.0
H742 H 0.46672 0.0854 0.98607 0.0
H743 H 0.3549 0.91904 -0.00213 0.0
C744 C 0.35724 0.94684 0.01777 0.0
C745 C 0.37618 0.98879 0.02611 0.0
C746 C 0.45063 0.05303 0.9796 0.0
C747 C 0.4003 -0.0008 -0.00123 0.0
C748 C 0.4646 0.05851 0.96611 0.0
C749 C 0.44411 0.01734 0.95747 0.0
C750 C 0.41601 0.00604 0.98451 0.0
C751 C 0.41017 0.97083 0.96281 0.0
C752 C 0.36913 0.9519 0.00409 0.0
C753 C 0.40572 0.03549 0.02027 0.0
N754 N 0.39713 0.96644 0.97601 0.0
N755 N 0.41711 0.03939 0.00698 0.0
H756 H 0.0954 0.49505 0.96285 0.0
H757 H 0.90047 0.37341 0.02303 0.0
H758 H 0.93696 0.40509 0.95669 0.0
H759 H 0.0596 0.45335 0.02862 0.0
H760 H 0.91281 0.38497 -0.00131 0.0
H761 H 0.08265 0.48114 0.98706 0.0
C762 C 0.0579 0.47245 0.96658 0.0
C763 C 0.01718 0.45125 0.95772 0.0
C764 C 0.945 0.39983 0.00525 0.0
C765 C 0.00235 0.43507 0.98544 0.0
C766 C 0.93799 0.39323 0.01915 0.0
C767 C 0.97907 0.41257 0.02788 0.0
C768 C -0.0066 0.42609 7e-05 0.0
C769 C 0.02682 0.43785 0.02228 0.0
C770 C 0.05066 0.46441 0.98041 0.0
C771 C 0.96946 0.4222 0.96314 0.0
N772 N 0.03265 0.44402 0.00873 0.0
N773 N 0.96336 0.415 0.97667 0.0
H774 H 0.59108 0.66882 0.95961 0.0
H775 H 0.61052 0.52988 0.02469 0.0
H776 H 0.67244 0.59125 0.96006 0.0
H777 H 0.51091 0.58691 0.02114 0.0
H778 H 0.63669 0.55456 0.00139 0.0
H779 H 0.56694 0.64439 0.98292 0.0
C780 C 0.60434 0.64708 0.96465 0.0
C781 C 0.63358 0.63179 0.95783 0.0
C782 C 0.60888 0.56133 0.00571 0.0
C783 C 0.60549 0.60317 0.98449 0.0
C784 C 0.59372 0.54704 0.01898 0.0
C785 C 0.55858 0.5565 0.02489 0.0
C786 C 0.58896 0.58548 -0.00163 0.0
C787 C 0.53816 0.57893 0.01702 0.0
C788 C 0.59021 0.63283 0.97794 0.0
C789 C 0.64969 0.60372 0.9649 0.0
N790 N 0.55391 0.59295 0.00419 0.0
N791 N 0.63522 0.59009 0.97785 0.0
H792 H 0.16267 0.41935 0.36397 0.0
H793 H 0.07663 0.25445 0.29709 0.0
H794 H 0.08304 0.25964 0.36427 0.0
H795 H 0.17812 0.41232 0.29727 0.0
H796 H 0.07808 0.25536 0.32173 0.0
H797 H 0.16808 0.41746 0.33944 0.0
C798 C 0.14642 0.38389 0.35889 0.0
C799 C 0.12219 0.33959 0.36617 0.0
C800 C 0.10026 0.28972 0.31636 0.0
C801 C 0.12815 0.33717 0.33813 0.0
C802 C 0.0994 0.28924 0.3023 0.0
C803 C 0.12707 0.33341 0.29512 0.0
C804 C 0.1287 0.33473 0.32326 0.0
C805 C 0.15608 0.37738 0.30239 0.0
C806 C 0.14965 0.38284 0.34489 0.0
C807 C 0.10203 0.29472 0.35906 0.0
N808 N 0.15586 0.37696 0.31607 0.0
N809 N 0.10522 0.29466 0.34541 0.0
H810 H 0.69652 0.72405 0.35784 0.0
H811 H 0.56202 0.71485 0.28843 0.0
H812 H 0.56172 0.73019 0.35707 0.0
H813 H 0.71578 0.75657 0.2931 0.0
H814 H 0.55111 0.70174 0.31301 0.0
H815 H 0.69199 0.71409 0.33351 0.0
C816 C 0.66569 0.72299 0.35251 0.0
C817 C 0.63003 0.72906 0.35938 0.0
C818 C 0.58699 0.71339 0.30856 0.0
C819 C 0.625 0.7184 0.33144 0.0
C820 C 0.59322 0.72076 0.2946 0.0
C821 C 0.64002 0.73735 0.28881 0.0
C822 C 0.62765 0.72179 0.31658 0.0
C823 C 0.67926 0.74448 0.29717 0.0
C824 C 0.66313 0.71732 0.33861 0.0
C825 C 0.59018 0.72612 0.35204 0.0
N826 N 0.67216 0.73668 0.3106 0.0
N827 N 0.58911 0.72181 0.33834 0.0
H828 H 0.26773 0.00092 0.30625 0.0
H829 H 0.32074 0.89528 0.37339 0.0
H830 H 0.33411 0.90912 0.30622 0.0
H831 H 0.26541 -0.00346 0.37274 0.0
H832 H 0.33147 0.90389 0.3489 0.0
H833 H 0.27164 0.00351 0.33079 0.0
C834 C 0.28327 0.98141 0.31141 0.0
C835 C 0.30017 0.95436 0.30418 0.0
C836 C 0.31736 0.92448 0.35417 0.0
C837 C 0.30467 0.95706 0.3323 0.0
C838 C 0.31125 0.9196 0.36813 0.0
C839 C 0.29155 0.94471 0.37509 0.0
C840 C 0.30353 0.95457 0.34718 0.0
C841 C 0.28014 0.97595 0.36778 0.0
C842 C 0.28563 0.98301 0.32543 0.0
C843 C 0.3204 0.93021 0.31139 0.0
N844 N 0.28594 0.97967 0.35422 0.0
N845 N 0.32172 0.9318 0.32508 0.0
H846 H 0.64703 0.53684 0.68286 0.0
H847 H 0.81741 0.60823 0.61771 0.0
H848 H 0.7864 0.67306 0.67787 0.0
H849 H 0.65832 0.53315 0.61357 0.0
H850 H 0.8086 0.60681 0.64223 0.0
H851 H 0.65252 0.51463 0.65932 0.0
C852 C 0.67863 0.56203 0.6768 0.0
C853 C 0.71612 0.60709 0.68221 0.0
C854 C 0.77555 0.58927 0.63597 0.0
C855 C 0.72337 0.58106 0.65577 0.0
C856 C 0.78052 0.5894 0.62204 0.0
C857 C 0.73847 0.57044 0.61376 0.0
C858 C 0.72822 0.57031 0.64158 0.0
C859 C 0.69145 0.54749 0.61974 0.0
C860 C 0.68176 0.54922 0.66347 0.0
C861 C 0.7564 0.63834 0.67403 0.0
N862 N 0.68746 0.54869 0.6334 0.0
N863 N 0.75915 0.62454 0.66124 0.0
H864 H 0.4333 0.10537 0.62765 0.0
H865 H 0.34034 0.15952 0.69365 0.0
H866 H 0.39928 0.22175 0.63133 0.0
H867 H 0.43572 0.09749 0.69554 0.0
H868 H 0.36794 0.18662 0.67074 0.0
H869 H 0.44525 0.10778 0.65221 0.0
C870 C 0.43082 0.13306 0.63359 0.0
C871 C 0.41515 0.16329 0.62765 0.0
C872 C 0.38347 0.16764 0.67615 0.0
C873 C 0.42684 0.16512 0.65546 0.0
C874 C 0.36717 0.1516 0.68917 0.0
C875 C 0.38516 0.12551 0.69631 0.0
C876 C 0.417 0.1563 0.67005 0.0
C877 C 0.42071 0.11712 0.69022 0.0
C878 C 0.43722 0.13419 0.64758 0.0
C879 C 0.41128 0.19785 0.63566 0.0
N880 N 0.43478 0.13155 0.67724 0.0
N881 N 0.41604 0.19716 0.64922 0.0
H882 H 0.77802 0.11939 0.62973 0.0
H883 H 0.83181 0.2853 0.69559 0.0
H884 H 0.82555 0.27437 0.62702 0.0
H885 H 0.84401 0.1546 0.69258 0.0
H886 H 0.80768 0.27556 0.6716 0.0
H887 H 0.77583 0.12469 0.65417 0.0
C888 C 0.78729 0.15444 0.63432 0.0
C889 C 0.80314 0.19682 0.62646 0.0
C890 C 0.81535 0.24901 0.6763 0.0
C891 C 0.8016 0.20332 0.65437 0.0
C892 C 0.82913 0.25452 0.6899 0.0
C893 C 0.84052 0.22103 0.69595 0.0
C894 C 0.81195 0.20916 0.66895 0.0
C895 C 0.83635 0.18168 0.68824 0.0
C896 C 0.78614 0.15745 0.64825 0.0
C897 C 0.81367 0.24106 0.63283 0.0
N898 N 0.82235 0.17684 0.67515 0.0
N899 N 0.81371 0.24352 0.64654 0.0
H900 H 0.38764 0.01047 0.20065 0.0
H901 H 0.25485 0.93783 0.12899 0.0
H902 H 0.23113 0.90511 0.19597 0.0
H903 H 0.41044 0.9876 0.1344 0.0
H904 H 0.24534 0.93579 0.15352 0.0
H905 H 0.39662 0.01313 0.17612 0.0
C906 C 0.35516 0.98808 0.19446 0.0
C907 C 0.30859 0.95743 0.20031 0.0
C908 C 0.28148 0.947 0.14929 0.0
C909 C 0.3186 0.96054 0.17238 0.0
C910 C 0.28697 0.94835 0.13534 0.0
C911 C 0.33348 0.96283 0.12969 0.0
C912 C 0.32293 0.961 0.1576 0.0
C913 C 0.37386 0.97594 0.13836 0.0
C914 C 0.36037 0.98942 0.1805 0.0
C915 C 0.26775 0.929 0.19184 0.0
N916 N 0.36772 0.97501 0.15191 0.0
N917 N 0.27365 0.93141 0.17826 0.0
H918 H 0.95535 0.41722 0.13795 0.0
H919 H 0.09046 0.31686 0.18545 0.0
H920 H 0.98741 0.30419 0.12564 0.0
H921 H 0.01738 0.39238 0.20088 0.0
H922 H 0.05881 0.31766 0.16294 0.0
H923 H 0.98208 0.4129 0.16086 0.0
C924 C 0.96752 0.39117 0.14009 0.0
C925 C 0.9693 0.36115 0.12986 0.0
C926 C 0.04967 0.33395 0.17127 0.0
C927 C 0.00058 0.35663 0.15592 0.0
C928 C 0.06801 0.33383 0.18409 0.0
C929 C 0.0565 0.35455 0.19505 0.0
C930 C 0.02014 0.35544 0.16939 0.0
C931 C 0.02701 0.37582 0.19272 0.0
C932 C 0.98281 0.38878 0.15315 0.0
C933 C 0.98535 0.32802 0.1332 0.0
N934 N 0.00997 0.37586 0.18013 0.0
N935 N 0.00084 0.32701 0.14592 0.0
H936 H 0.67431 0.65559 0.19355 0.0
H937 H 0.63089 0.70471 0.11744 0.0
H938 H 0.69132 0.79447 0.18035 0.0
H939 H 0.5634 0.55846 0.13461 0.0
H940 H 0.66394 0.74008 0.13962 0.0
H941 H 0.64656 0.62202 0.17094 0.0
C942 C 0.67303 0.67938 0.18585 0.0
C943 C 0.68495 0.72796 0.18888 0.0
C944 C 0.64176 0.70029 0.13854 0.0
C945 C 0.65275 0.68935 0.16303 0.0
C946 C 0.62289 0.68001 0.12591 0.0
C947 C 0.59435 0.62852 0.12421 0.0
C948 C 0.63267 0.66888 0.14954 0.0
C949 C 0.58497 0.59832 0.13551 0.0
C950 C 0.65668 0.65991 0.17299 0.0
C951 C 0.68232 0.75681 0.17848 0.0
N952 N 0.60445 0.61899 0.14772 0.0
N953 N 0.66635 0.73699 0.166 0.0
H954 H 0.04955 0.47387 0.84731 0.0
H955 H 0.9169 0.22323 0.80488 0.0
H956 H 0.01718 0.33371 0.8641 0.0
H957 H -0.00106 0.36771 0.78662 0.0
H958 H 0.94671 0.26214 0.82711 0.0
H959 H 0.02496 0.43466 0.82506 0.0
C960 C 0.03771 0.43505 0.8463 0.0
C961 C 0.03551 0.40711 0.85756 0.0
C962 C 0.95826 0.28507 0.81818 0.0
C963 C 0.00659 0.36193 0.83227 0.0
C964 C 0.94115 0.26294 0.80553 0.0
C965 C 0.95549 0.29217 0.79388 0.0
C966 C -0.01085 0.3367 0.81911 0.0
C967 C 0.98706 0.34355 0.7953 0.0
C968 C 0.02367 0.41268 0.83362 0.0
C969 C 0.01974 0.35681 0.85568 0.0
N970 N 0.00252 0.36414 0.80767 0.0
N971 N 0.00543 0.33571 0.84329 0.0
H972 H 0.74862 0.72339 0.85487 0.0
H973 H 0.62117 0.64256 0.78233 0.0
H974 H 0.59381 0.61384 0.84917 0.0
H975 H 0.77851 0.70506 0.78892 0.0
H976 H 0.60986 0.64477 0.80667 0.0
H977 H 0.75918 0.72967 0.83041 0.0
C978 C 0.71678 0.70086 0.84848 0.0
C979 C 0.6703 0.66778 0.85405 0.0
C980 C 0.64682 0.65816 0.80275 0.0
C981 C 0.68219 0.67508 0.82613 0.0
C982 C 0.65339 0.65715 0.78888 0.0
C983 C 0.70084 0.67337 0.78362 0.0
C984 C 0.68808 0.67607 0.81137 0.0
C985 C 0.74124 0.6918 0.79257 0.0
C986 C 0.72292 0.70438 0.83454 0.0
C987 C 0.63036 0.63948 0.84529 0.0
N988 N 0.73393 0.69266 0.80603 0.0
N989 N 0.63722 0.64381 0.83173 0.0
H990 H 0.32747 0.97711 0.79019 0.0
H991 H 0.37374 0.09123 0.8643 0.0
H992 H 0.29491 0.09043 0.80181 0.0
H993 H 0.44639 0.01534 0.84889 0.0
H994 H 0.3346 0.08202 0.84238 0.0
H995 H 0.35817 0.97895 0.81297 0.0
C996 C 0.32571 0.00161 0.7976 0.0
C997 C 0.30902 0.03406 0.79407 0.0
C998 C 0.35925 0.06757 0.84377 0.0
C999 C 0.34475 0.03671 0.82001 0.0
C1000 C 0.38172 0.0729 0.85625 0.0
C1001 C 0.41341 0.05406 0.85838 0.0
C1002 C 0.36809 0.04276 0.83336 0.0
C1003 C 0.42252 0.03074 0.84761 0.0
C1004 C 0.34382 0.003 0.81054 0.0
C1005 C 0.30784 0.0651 0.80407 0.0
N1006 N 0.39963 0.02544 0.83554 0.0
N1007 N 0.32585 0.0659 0.81659 0.0
H1008 H 0.00891 0.26385 0.53823 0.0
H1009 H 0.95369 0.26901 0.46014 0.0
H1010 H 0.86439 0.17097 0.52028 0.0
H1011 H 0.10188 0.32713 0.47608 0.0
H1012 H 0.92015 0.23691 0.48245 0.0
H1013 H 0.04396 0.28969 0.51571 0.0
C1014 C 0.98465 0.24844 0.52954 0.0
C1015 C 0.93359 0.21548 0.53112 0.0
C1016 C 0.95999 0.25661 0.48105 0.0
C1017 C 0.97331 0.24548 0.50539 0.0
C1018 C 0.97921 0.27535 0.46835 0.0
C1019 C 0.03069 0.3009 0.46626 0.0
C1020 C -0.00751 0.26392 0.49175 0.0
C1021 C 0.06195 0.30764 0.47724 0.0
C1022 C 0.00469 0.26325 0.5167 0.0
C1023 C 0.90395 0.19648 0.51952 0.0
N1024 N 0.04232 0.28938 0.48955 0.0
N1025 N 0.92417 0.21224 0.50713 0.0
H1026 H 0.72924 0.83022 0.46445 0.0
H1027 H 0.85316 0.72221 0.51378 0.0
H1028 H 0.77434 0.72716 0.4517 0.0
H1029 H 0.74988 0.76693 0.52662 0.0
H1030 H 0.84901 0.74876 0.49075 0.0
H1031 H 0.76136 0.83123 0.48704 0.0
C1032 C 0.7465 0.80834 0.46635 0.0
C1033 C 0.74826 0.77777 0.45628 0.0
C1034 C 0.82813 0.75362 0.49871 0.0
C1035 C 0.7854 0.7793 0.48197 0.0
C1036 C 0.83069 0.73881 0.51181 0.0
C1037 C 0.80121 0.74182 0.52197 0.0
C1038 C 0.79657 0.77218 0.49593 0.0
C1039 C 0.77255 0.76336 0.51896 0.0
C1040 C 0.76478 0.80898 0.47922 0.0
C1041 C 0.77137 0.75048 0.45926 0.0
N1042 N 0.77063 0.77743 0.50617 0.0
N1043 N 0.78874 0.75158 0.4719 0.0
H1044 H 0.26826 0.03001 0.47217 0.0
H1045 H 0.19701 0.94715 0.54627 0.0
H1046 H 0.17439 0.87532 0.48158 0.0
H1047 H 0.22734 0.08987 0.53212 0.0
H1048 H 0.18199 0.91714 0.52299 0.0
H1049 H 0.25093 0.0514 0.49429 0.0
C1050 C 0.24407 0.00051 0.47895 0.0
C1051 C 0.22342 0.95082 0.4752 0.0
C1052 C 0.19065 0.9546 0.52504 0.0
C1053 C 0.20321 0.97506 0.5005 0.0
C1054 C 0.19929 0.97182 0.53831 0.0
C1055 C 0.21482 0.0215 0.54108 0.0
C1056 C 0.1985 0.98764 0.51454 0.0
C1057 C 0.21634 0.05155 0.53043 0.0
C1058 C 0.23363 0.01276 0.4915 0.0
C1059 C 0.19141 0.91407 0.48421 0.0
N1060 N 0.20958 0.03449 0.51756 0.0
N1061 N 0.18293 0.92693 0.49661 0.0
H1062 H 0.48845 0.37032 0.06138 0.0
H1063 H 0.33155 0.12312 0.10129 0.0
H1064 H 0.44887 0.37204 0.10306 0.0
H1065 H 0.33643 0.13339 0.05792 0.0
H1066 H 0.36627 0.21285 0.10272 0.0
H1067 H 0.4303 0.28226 0.06048 0.0
C1068 C 0.46792 0.35211 0.07042 0.0
C1069 C 0.47385 0.37867 0.08235 0.0
C1070 C 0.3581 0.19519 0.0929 0.0
C1071 C 0.4062 0.27731 0.0813 0.0
C1072 C 0.33764 0.14401 0.09209 0.0
C1073 C 0.33178 0.12147 0.07947 0.0
C1074 C 0.37284 0.22318 0.08098 0.0
C1075 C 0.3409 0.14984 0.06782 0.0
C1076 C 0.43405 0.30177 0.06983 0.0
C1077 C 0.44568 0.35289 0.09368 0.0
N1078 N 0.36199 0.19948 0.06886 0.0
N1079 N 0.41318 0.30339 0.09291 0.0
H1080 H 0.55767 0.05834 0.09943 0.0
H1081 H 0.78955 0.23281 0.05316 0.0
H1082 H 0.55003 0.12111 0.06137 0.0
H1083 H 0.80544 0.20284 0.09474 0.0
H1084 H 0.70086 0.17371 0.05443 0.0
H1085 H 0.64774 0.09781 0.09678 0.0
C1086 C 0.57491 0.08069 0.09058 0.0
C1087 C 0.54632 0.08677 0.08065 0.0
C1088 C 0.72376 0.17934 0.06323 0.0
C1089 C 0.64872 0.13067 0.07744 0.0
C1090 C 0.77438 0.21262 0.06246 0.0
C1091 C 0.80435 0.223 0.07392 0.0
C1092 C 0.70298 0.1569 0.07562 0.0
C1093 C 0.78328 0.19577 0.0857 0.0
C1094 C 0.62617 0.10279 0.08904 0.0
C1095 C 0.57053 0.11575 0.06935 0.0
N1096 N 0.73338 0.16453 0.08636 0.0
N1097 N 0.62028 0.13649 0.06805 0.0
H1098 H 0.73202 0.59642 0.05395 0.0
H1099 H 0.85205 0.4829 0.10244 0.0
H1100 H 0.72488 0.60014 0.09728 0.0
H1101 H 0.83652 0.46248 0.0592 0.0
H1102 H 0.82007 0.53954 0.10088 0.0
H1103 H 0.79032 0.56661 0.05583 0.0
C1104 C 0.74482 0.59326 0.06386 0.0
C1105 C 0.72425 0.60096 0.07548 0.0
C1106 C 0.82384 0.5227 0.09175 0.0
C1107 C 0.78814 0.56406 0.07777 0.0
C1108 C 0.84159 0.48997 0.09263 0.0
C1109 C 0.84643 0.46737 0.08095 0.0
C1110 C 0.81112 0.53307 0.07908 0.0
C1111 C 0.83291 0.47849 0.06851 0.0
C1112 C 0.77726 0.5753 0.06496 0.0
C1113 C 0.74067 0.59511 0.08811 0.0
N1114 N 0.81586 0.51047 0.06792 0.0
N1115 N 0.77093 0.57586 0.08895 0.0
H1116 H 0.4663 0.62282 0.92394 0.0
H1117 H 0.2001 0.42673 0.89449 0.0
H1118 H 0.44692 0.53575 0.88816 0.0
H1119 H 0.22472 0.50582 0.93206 0.0
H1120 H 0.28978 0.45982 0.89275 0.0
H1121 H 0.37708 0.5772 0.92726 0.0
C1122 C 0.44326 0.5944 0.9167 0.0
C1123 C 0.46417 0.58324 0.90573 0.0
C1124 C 0.27537 0.46919 0.90148 0.0
C1125 C 0.36168 0.53021 0.90959 0.0
C1126 C 0.22423 0.44988 0.90254 0.0
C1127 C 0.20532 0.46423 0.91333 0.0
C1128 C 0.30725 0.50289 0.91128 0.0
C1129 C 0.23802 0.49452 0.92346 0.0
C1130 C 0.39223 0.56797 0.91867 0.0
C1131 C 0.43235 0.54573 0.89673 0.0
N1132 N 0.28745 0.51336 0.9221 0.0
N1133 N 0.38257 0.52053 0.89885 0.0
H1134 H 0.56554 0.95682 0.8801 0.0
H1135 H 0.67341 0.8307 0.92835 0.0
H1136 H 0.51963 0.90959 0.92112 0.0
H1137 H 0.68679 0.83065 0.88507 0.0
H1138 H 0.63897 0.88482 0.92627 0.0
H1139 H 0.6257 0.9288 0.88201 0.0
C1140 C 0.56771 0.94015 0.88944 0.0
C1141 C 0.53713 0.93511 0.90043 0.0
C1142 C 0.65054 0.874 0.91723 0.0
C1143 C 0.60682 0.90492 0.90279 0.0
C1144 C 0.67089 0.84382 0.91844 0.0
C1145 C 0.68215 0.82588 0.90685 0.0
C1146 C 0.64076 0.88554 0.90434 0.0
C1147 C 0.67832 0.84376 0.89423 0.0
C1148 C 0.60237 0.92474 0.89055 0.0
C1149 C 0.54193 0.91378 0.91233 0.0
N1150 N 0.65657 0.87175 0.89325 0.0
N1151 N 0.57622 0.89969 0.91319 0.0
H1152 H 0.28354 0.90318 0.88441 0.0
H1153 H 0.14455 0.65492 0.92623 0.0
H1154 H 0.27229 0.8964 0.92772 0.0
H1155 H 0.15087 0.6588 0.88268 0.0
H1156 H 0.179 0.74376 0.92661 0.0
H1157 H 0.21986 0.81542 0.88312 0.0
C1158 C 0.26568 0.88364 0.8936 0.0
C1159 C 0.28248 0.90663 0.90618 0.0
C1160 C 0.17269 0.7253 0.91694 0.0
C1161 C 0.21201 0.80636 0.90489 0.0
C1162 C 0.15344 0.67448 0.91671 0.0
C1163 C 0.14564 0.64937 0.9044 0.0
C1164 C 0.18489 0.75163 0.90478 0.0
C1165 C 0.15695 0.67673 0.89241 0.0
C1166 C 0.23 0.83344 0.89289 0.0
C1167 C 0.25964 0.87979 0.91784 0.0
N1168 N 0.17653 0.72654 0.89291 0.0
N1169 N 0.22614 0.83073 0.91694 0.0
H1170 H 0.20846 0.74094 0.40465 0.0
H1171 H 0.04467 0.47566 0.43657 0.0
H1172 H 0.14417 0.72014 0.44437 0.0
H1173 H 0.08881 0.50275 0.39483 0.0
H1174 H 0.0708 0.56332 0.43926 0.0
H1175 H 0.15927 0.65263 0.40076 0.0
C1176 C 0.18429 0.71773 0.41263 0.0
C1177 C 0.18084 0.73797 0.42491 0.0
C1178 C 0.07347 0.54975 0.42943 0.0
C1179 C 0.12363 0.63632 0.42045 0.0
C1180 C 0.05801 0.49971 0.42786 0.0
C1181 C 0.06543 0.4826 0.41552 0.0
C1182 C 0.09644 0.58216 0.41856 0.0
C1183 C 0.08324 0.51498 0.40455 0.0
C1184 C 0.15565 0.66721 0.41033 0.0
C1185 C 0.14825 0.70599 0.43479 0.0
N1186 N 0.09896 0.56345 0.40639 0.0
N1187 N 0.12108 0.65653 0.43238 0.0
H1188 H 0.5229 0.56038 0.39829 0.0
H1189 H 0.28546 0.45572 0.44574 0.0
H1190 H 0.53386 0.60551 0.43982 0.0
H1191 H 0.28627 0.4654 0.40224 0.0
H1192 H 0.37595 0.49105 0.44534 0.0
H1193 H 0.43539 0.49926 0.40171 0.0
C1194 C 0.50723 0.55562 0.4083 0.0
C1195 C 0.53501 0.58751 0.41881 0.0
C1196 C 0.35595 0.48513 0.43594 0.0
C1197 C 0.43504 0.5203 0.42261 0.0
C1198 C 0.3046 0.46556 0.43615 0.0
C1199 C 0.27836 0.45819 0.42402 0.0
C1200 C 0.38066 0.4963 0.4235 0.0
C1201 C 0.30486 0.47099 0.41186 0.0
C1202 C 0.45724 0.52146 0.41021 0.0
C1203 C 0.51323 0.58099 0.43154 0.0
N1204 N 0.35442 0.4892 0.41193 0.0
N1205 N 0.46386 0.5487 0.43305 0.0
H1206 H 0.55593 0.81217 0.44588 0.0
H1207 H 0.4529 0.97684 0.41516 0.0
H1208 H 0.53659 0.8282 0.40341 0.0
H1209 H 0.40285 0.90575 0.45372 0.0
H1210 H 0.50961 0.94496 0.41359 0.0
H1211 H 0.51907 0.86325 0.45109 0.0
C1212 C 0.54346 0.82602 0.43767 0.0
C1213 C 0.54878 0.81564 0.42419 0.0
C1214 C 0.48732 0.93757 0.42259 0.0
C1215 C 0.50897 0.87528 0.43007 0.0
C1216 C 0.45577 0.95649 0.4236 0.0
C1217 C 0.42371 0.9439 0.4346 0.0
C1218 C 0.48618 0.90557 0.43262 0.0
C1219 C 0.42766 0.91652 0.44516 0.0
C1220 C 0.52295 0.85538 0.44066 0.0
C1221 C 0.5325 0.83471 0.41393 0.0
N1222 N 0.45779 0.89727 0.44381 0.0
N1223 N 0.51368 0.86397 0.41709 0.0
H1224 H 0.85302 0.8099 0.26858 0.0
H1225 H 0.09236 0.8376 0.23201 0.0
H1226 H 0.84729 0.73791 0.2309 0.0
H1227 H 0.09684 0.90867 0.26981 0.0
H1228 H 0.00218 0.79547 0.23232 0.0
H1229 H 0.94116 0.83853 0.27042 0.0
C1230 C 0.87027 0.7995 0.26077 0.0
C1231 C 0.84307 0.77208 0.24946 0.0
C1232 C 0.02284 0.82016 0.24056 0.0
C1233 C 0.94419 0.80544 0.25141 0.0
C1234 C 0.07444 0.84454 0.24037 0.0
C1235 C 0.10233 0.87709 0.25087 0.0
C1236 C -0.00121 0.82839 0.2513 0.0
C1237 C 0.07691 0.88422 0.26146 0.0
C1238 C 0.92065 0.81601 0.26181 0.0
C1239 C 0.86701 0.7591 0.23975 0.0
N1240 N 0.02653 0.86014 0.26138 0.0
N1241 N 0.91655 0.77657 0.24085 0.0
H1242 H 0.32656 0.12252 0.22874 0.0
H1243 H 0.12452 0.17647 0.25587 0.0
H1244 H 0.29266 0.12131 0.27095 0.0
H1245 H 0.2055 0.25104 0.21985 0.0
H1246 H 0.18206 0.14731 0.25966 0.0
H1247 H 0.28526 0.1697 0.224 0.0
C1248 C 0.31254 0.13424 0.23707 0.0
C1249 C 0.31185 0.11734 0.25021 0.0
C1250 C 0.18724 0.17007 0.25092 0.0
C1251 C 0.26355 0.16891 0.24484 0.0
C1252 C 0.15392 0.18606 0.24861 0.0
C1253 C 0.16061 0.21683 0.23763 0.0
C1254 C 0.22723 0.18434 0.24209 0.0
C1255 C 0.19914 0.22755 0.22849 0.0
C1256 C 0.28839 0.16043 0.23434 0.0
C1257 C 0.29301 0.13303 0.26066 0.0
N1258 N 0.23138 0.21145 0.23096 0.0
N1259 N 0.26838 0.15692 0.2577 0.0
H1260 H 0.77761 0.95423 0.26283 0.0
H1261 H 0.91628 0.21425 0.22565 0.0
H1262 H 0.7876 0.97025 0.21948 0.0
H1263 H 0.92227 0.19351 0.26841 0.0
H1264 H 0.85049 0.12731 0.22348 0.0
H1265 H 0.81416 0.04307 0.26512 0.0
C1266 C 0.78764 0.97642 0.25376 0.0
C1267 C 0.78038 0.95471 0.24093 0.0
C1268 C 0.86508 0.1422 0.2334 0.0
C1269 C 0.82211 0.05697 0.24352 0.0
C1270 C 0.90193 0.19195 0.23466 0.0
C1271 C 0.92441 0.2106 0.24723 0.0
C1272 C 0.85106 0.1115 0.24481 0.0
C1273 C 0.9056 0.18021 0.25856 0.0
C1274 C 0.8082 0.02724 0.25509 0.0
C1275 C 0.79326 0.98546 0.22957 0.0
N1276 N 0.87054 0.13189 0.25706 0.0
N1277 N 0.814 0.03517 0.23114 0.0
H1278 H 0.74529 0.8269 0.70841 0.0
H1279 H 0.78683 0.03304 0.76275 0.0
H1280 H 0.6722 0.79031 0.74712 0.0
H1281 H 0.87679 0.05728 0.72739 0.0
H1282 H 0.7368 0.94516 0.75659 0.0
H1283 H 0.78089 0.91422 0.71369 0.0
C1284 C 0.73565 0.83725 0.71787 0.0
C1285 C 0.70668 0.80142 0.72745 0.0
C1286 C 0.76772 0.96985 0.75026 0.0
C1287 C 0.7486 0.90115 0.73377 0.0
C1288 C 0.79669 0.0197 0.75388 0.0
C1289 C 0.83591 0.05237 0.74555 0.0
C1290 C 0.77817 0.95312 0.73823 0.0
C1291 C 0.84669 0.03343 0.73406 0.0
C1292 C 0.7565 0.88711 0.72097 0.0
C1293 C 0.69482 0.81683 0.73949 0.0
N1294 N 0.81778 0.9852 0.7307 0.0
N1295 N 0.71677 0.86577 0.74246 0.0
H1296 H 0.16636 0.87451 0.74822 0.0
H1297 H 0.9104 0.79311 0.71014 0.0
H1298 H 0.15527 0.94291 0.71164 0.0
H1299 H 0.92197 0.74379 0.74993 0.0
H1300 H 0.001 0.83802 0.70852 0.0
H1301 H 0.07793 0.81362 0.74644 0.0
C1302 C 0.14566 0.87605 0.73964 0.0
C1303 C 0.16799 0.91445 0.73021 0.0
C1304 C 0.98359 0.81719 0.71758 0.0
C1305 C 0.06678 0.84556 0.72827 0.0
C1306 C 0.93192 0.79179 0.71854 0.0
C1307 C 0.90854 0.76515 0.73025 0.0
C1308 C 0.01197 0.81569 0.72838 0.0
C1309 C 0.93831 0.76432 0.74077 0.0
C1310 C 0.09505 0.84155 0.7387 0.0
C1311 C 0.13933 0.91446 0.71928 0.0
N1312 N -0.01157 0.78932 0.73959 0.0
N1313 N 0.09001 0.88101 0.71872 0.0
H1314 H 0.21284 0.1699 0.76227 0.0
H1315 H 0.04872 0.23204 0.71434 0.0
H1316 H 0.19226 0.13472 0.71972 0.0
H1317 H 0.08964 0.28934 0.75485 0.0
H1318 H 0.10901 0.20465 0.71531 0.0
H1319 H 0.17218 0.2183 0.75942 0.0
C1320 C 0.19947 0.17202 0.75234 0.0
C1321 C 0.20549 0.14772 0.74124 0.0
C1322 C 0.1057 0.22417 0.72389 0.0
C1323 C 0.15967 0.20376 0.73788 0.0
C1324 C 0.0716 0.24019 0.7233 0.0
C1325 C 0.06394 0.26246 0.73459 0.0
C1326 C 0.13158 0.22965 0.73597 0.0
C1327 C 0.09447 0.27225 0.74593 0.0
C1328 C 0.17679 0.20017 0.7507 0.0
C1329 C 0.1881 0.15247 0.72859 0.0
N1330 N 0.12625 0.25472 0.74646 0.0
N1331 N 0.16575 0.1797 0.72728 0.0
H1332 H 0.41956 -0.00604 0.58309 0.0
H1333 H 0.6748 0.12527 0.54288 0.0
H1334 H 0.4504 0.09399 0.54996 0.0
H1335 H 0.65776 0.09135 0.58537 0.0
H1336 H 0.58369 0.08157 0.54059 0.0
H1337 H 0.49724 -0.00494 0.57837 0.0
C1338 C 0.44166 0.01431 0.57446 0.0
C1339 C 0.42959 0.04449 0.56699 0.0
C1340 C 0.60017 0.08287 0.55032 0.0
C1341 C 0.51753 0.04635 0.56166 0.0
C1342 C 0.6518 0.10794 0.55164 0.0
C1343 C 0.67322 0.11296 0.5644 0.0
C1344 C 0.57047 0.06194 0.56178 0.0
C1345 C 0.64232 0.08941 0.57544 0.0
C1346 C 0.48591 0.01519 0.57182 0.0
C1347 C 0.45925 0.07073 0.55599 0.0
N1348 N 0.5924 0.06517 0.5739 0.0
N1349 N 0.50254 0.07179 0.55377 0.0
H1350 H 0.95917 0.40852 0.57014 0.0
H1351 H 0.79359 0.507 0.53769 0.0
H1352 H 0.80748 0.32044 0.55645 0.0
H1353 H 0.92412 0.5989 0.56155 0.0
H1354 H 0.81718 0.44392 0.5366 0.0
H1355 H 0.96229 0.48217 0.56039 0.0
C1356 C 0.92681 0.40473 0.56499 0.0
C1357 C 0.88253 0.35893 0.56441 0.0
C1358 C 0.8415 0.47841 0.54177 0.0
C1359 C 0.88636 0.44166 0.55297 0.0
C1360 C 0.82821 0.5144 0.54228 0.0
C1361 C 0.85685 0.5574 0.54983 0.0
C1362 C 0.88262 0.48505 0.54928 0.0
C1363 C 0.90124 0.56576 0.55568 0.0
C1364 C 0.92872 0.44647 0.55938 0.0
C1365 C 0.84185 0.35544 0.55746 0.0
N1366 N 0.91225 0.52908 0.55561 0.0
N1367 N 0.84469 0.39632 0.55209 0.0
H1368 H 0.36725 0.28431 0.55505 0.0
H1369 H 0.56008 0.52768 0.55383 0.0
H1370 H 0.48952 0.25832 0.55946 0.0
H1371 H 0.65136 0.46814 0.54133 0.0
H1372 H 0.48653 0.44523 0.55156 0.0
H1373 H 0.42484 0.36666 0.54597 0.0
C1374 C 0.40611 0.29581 0.55396 0.0
C1375 C 0.42412 0.26526 0.55831 0.0
C1376 C 0.52228 0.45044 0.54873 0.0
C1377 C 0.48973 0.35871 0.54811 0.0
C1378 C 0.56424 0.49755 0.55005 0.0
C1379 C 0.61148 0.50397 0.54804 0.0
C1380 C 0.52834 0.41021 0.54536 0.0
C1381 C 0.61538 0.46413 0.54324 0.0
C1382 C 0.43893 0.34283 0.54888 0.0
C1383 C 0.47443 0.28132 0.55655 0.0
N1384 N 0.57441 0.41869 0.54233 0.0
N1385 N 0.50548 0.32705 0.55166 0.0
loop_
_geom_bond_atom_site_label_1
_geom_bond_atom_site_label_2
_geom_bond_distance
_geom_bond_site_symmetry_2
_ccdc_geom_bond_type
O0 Zn1 1.953 . S
O0 C16 1.225 . S
Zn1 O0 1.953 . S
Zn1 O2 1.949 . S
Zn1 O8 1.919 . S
Zn1 O13 1.924 1_545 S
O2 Zn1 1.949 . S
O2 Zn3 1.923 . S
O2 Zn4 1.950 . S
O2 Zn5 1.945 1_545 S
Zn3 O2 1.923 . S
Zn3 O6 1.933 1_545 S
Zn3 O9 1.941 . S
Zn3 O10 1.965 . S
Zn4 O2 1.950 . S
Zn4 O11 1.938 . S
Zn4 O12 1.906 . S
Zn4 O22 1.953 . S
Zn5 O2 1.945 1_565 S
Zn5 O7 1.932 . S
Zn5 O14 1.977 . S
Zn5 O15 1.910 . S
O6 Zn3 1.933 1_565 S
O6 C17 1.226 . S
O7 Zn5 1.932 . S
O7 C17 1.307 . S
O8 Zn1 1.919 . S
O8 C19 1.253 . S
O9 Zn3 1.941 . S
O9 C19 1.283 . S
O10 Zn3 1.965 . S
O10 C18 1.303 . S
O11 Zn4 1.938 . S
O11 C18 1.247 . S
O12 Zn4 1.906 . S
O12 C20 1.315 . S
O13 Zn1 1.924 1_565 S
O13 C21 1.311 . S
O14 Zn5 1.977 . S
O14 C20 1.260 1_565 S
O15 Zn5 1.910 . S
O15 C21 1.231 . S
C16 O0 1.225 . S
C16 O22 1.298 . S
C17 O6 1.226 . S
C17 O7 1.307 . S
C18 O10 1.303 . S
C18 O11 1.247 . S
C19 O8 1.253 . S
C19 O9 1.283 . S
C20 O12 1.315 . S
C20 O14 1.260 1_545 S
C21 O13 1.311 . S
C21 O15 1.231 . S
O22 Zn4 1.953 . S
O22 C16 1.298 . S
O23 Zn24 1.953 1_655 S
O23 C39 1.225 . S
Zn24 O23 1.953 1_455 S
Zn24 O25 1.949 . S
Zn24 O31 1.919 . S
Zn24 O36 1.924 . S
O25 Zn24 1.949 . S
O25 Zn26 1.923 . S
O25 Zn27 1.950 1_455 S
O25 Zn28 1.945 . S
Zn26 O25 1.923 . S
Zn26 O29 1.933 . S
Zn26 O32 1.941 . S
Zn26 O33 1.965 1_455 S
Zn27 O25 1.950 1_655 S
Zn27 O34 1.938 . S
Zn27 O35 1.906 . S
Zn27 O45 1.953 . S
Zn28 O25 1.945 . S
Zn28 O30 1.932 . S
Zn28 O37 1.977 . S
Zn28 O38 1.910 . S
O29 Zn26 1.933 . S
O29 C40 1.226 . S
O30 Zn28 1.932 . S
O30 C40 1.307 . S
O31 Zn24 1.919 . S
O31 C42 1.253 . S
O32 Zn26 1.941 . S
O32 C42 1.283 . S
O33 Zn26 1.965 1_655 S
O33 C41 1.303 . S
O34 Zn27 1.938 . S
O34 C41 1.247 . S
O35 Zn27 1.906 . S
O35 C43 1.304 1_655 S
O36 Zn24 1.924 . S
O36 C44 1.311 . S
O37 Zn28 1.977 . S
O37 C43 1.272 . S
O38 Zn28 1.910 . S
O38 C44 1.231 . S
C39 O23 1.225 . S
C39 O45 1.298 . S
C40 O29 1.226 . S
C40 O30 1.307 . S
C41 O33 1.303 . S
C41 O34 1.247 . S
C42 O31 1.253 . S
C42 O32 1.283 . S
C43 O35 1.304 1_455 S
C43 O37 1.272 . S
C44 O36 1.311 . S
C44 O38 1.231 . S
O45 Zn27 1.953 . S
O45 C39 1.298 . S
O46 Zn47 1.953 . S
O46 C62 1.225 . S
Zn47 O46 1.953 . S
Zn47 O48 1.949 . S
Zn47 O54 1.919 . S
Zn47 O59 1.924 . S
O48 Zn47 1.949 . S
O48 Zn49 1.923 . S
O48 Zn50 1.950 . S
O48 Zn51 1.945 . S
Zn49 O48 1.923 . S
Zn49 O52 1.933 . S
Zn49 O55 1.941 . S
Zn49 O56 1.965 . S
Zn50 O48 1.950 . S
Zn50 O57 1.938 . S
Zn50 O58 1.906 . S
Zn50 O68 1.953 . S
Zn51 O48 1.945 . S
Zn51 O53 1.932 . S
Zn51 O60 1.977 . S
Zn51 O61 1.910 . S
O52 Zn49 1.933 . S
O52 C63 1.226 . S
O53 Zn51 1.932 . S
O53 C63 1.307 . S
O54 Zn47 1.919 . S
O54 C65 1.253 . S
O55 Zn49 1.941 . S
O55 C65 1.283 . S
O56 Zn49 1.965 . S
O56 C64 1.303 . S
O57 Zn50 1.938 . S
O57 C64 1.247 . S
O58 Zn50 1.906 . S
O58 C66 1.304 . S
O59 Zn47 1.924 . S
O59 C67 1.311 . S
O60 Zn51 1.977 . S
O60 C66 1.272 . S
O61 Zn51 1.910 . S
O61 C67 1.231 . S
C62 O46 1.225 . S
C62 O68 1.298 . S
C63 O52 1.226 . S
C63 O53 1.307 . S
C64 O56 1.303 . S
C64 O57 1.247 . S
C65 O54 1.253 . S
C65 O55 1.283 . S
C66 O58 1.304 . S
C66 O60 1.272 . S
C67 O59 1.311 . S
C67 O61 1.231 . S
O68 Zn50 1.953 . S
O68 C62 1.298 . S
O69 Zn70 1.953 . S
O69 C85 1.225 . S
Zn70 O69 1.953 . S
Zn70 O71 1.949 . S
Zn70 O77 1.919 . S
Zn70 O82 1.924 1_455 S
O71 Zn70 1.949 . S
O71 Zn72 1.923 . S
O71 Zn73 1.950 . S
O71 Zn74 1.945 1_455 S
Zn72 O71 1.923 . S
Zn72 O75 1.933 1_455 S
Zn72 O78 1.941 . S
Zn72 O79 1.965 . S
Zn73 O71 1.950 . S
Zn73 O80 1.938 . S
Zn73 O81 1.906 . S
Zn73 O91 1.953 . S
Zn74 O71 1.945 1_655 S
Zn74 O76 1.932 . S
Zn74 O83 1.977 . S
Zn74 O84 1.910 . S
O75 Zn72 1.933 1_655 S
O75 C86 1.226 . S
O76 Zn74 1.932 . S
O76 C86 1.307 . S
O77 Zn70 1.919 . S
O77 C88 1.253 . S
O78 Zn72 1.941 . S
O78 C88 1.283 . S
O79 Zn72 1.965 . S
O79 C87 1.303 . S
O80 Zn73 1.938 . S
O80 C87 1.247 . S
O81 Zn73 1.906 . S
O81 C89 1.315 . S
O82 Zn70 1.924 1_655 S
O82 C90 1.311 . S
O83 Zn74 1.977 . S
O83 C89 1.260 1_655 S
O84 Zn74 1.910 . S
O84 C90 1.231 . S
C85 O69 1.225 . S
C85 O91 1.298 . S
C86 O75 1.226 . S
C86 O76 1.307 . S
C87 O79 1.303 . S
C87 O80 1.247 . S
C88 O77 1.253 . S
C88 O78 1.283 . S
C89 O81 1.315 . S
C89 O83 1.260 1_455 S
C90 O82 1.311 . S
C90 O84 1.231 . S
O91 Zn73 1.953 . S
O91 C85 1.298 . S
O92 Zn93 1.953 . S
O92 C108 1.225 . S
Zn93 O92 1.953 . S
Zn93 O94 1.949 . S
Zn93 O100 1.919 . S
Zn93 O105 1.924 . S
O94 Zn93 1.949 . S
O94 Zn95 1.923 . S
O94 Zn96 1.950 . S
O94 Zn97 1.945 . S
Zn95 O94 1.923 . S
Zn95 O98 1.933 . S
Zn95 O101 1.941 . S
Zn95 O102 1.965 . S
Zn96 O94 1.950 . S
Zn96 O103 1.938 . S
Zn96 O104 1.906 . S
Zn96 O114 1.953 . S
Zn97 O94 1.945 . S
Zn97 O99 1.932 . S
Zn97 O106 1.977 . S
Zn97 O107 1.910 . S
O98 Zn95 1.933 . S
O98 C109 1.226 . S
O99 Zn97 1.932 . S
O99 C109 1.307 . S
O100 Zn93 1.919 . S
O100 C111 1.253 . S
O101 Zn95 1.941 . S
O101 C111 1.283 . S
O102 Zn95 1.965 . S
O102 C110 1.303 . S
O103 Zn96 1.938 . S
O103 C110 1.247 . S
O104 Zn96 1.906 . S
O104 C112 1.304 . S
O105 Zn93 1.924 . S
O105 C113 1.311 . S
O106 Zn97 1.977 . S
O106 C112 1.272 . S
O107 Zn97 1.910 . S
O107 C113 1.231 . S
C108 O92 1.225 . S
C108 O114 1.298 . S
C109 O98 1.226 . S
C109 O99 1.307 . S
C110 O102 1.303 . S
C110 O103 1.247 . S
C111 O100 1.253 . S
C111 O101 1.283 . S
C112 O104 1.304 . S
C112 O106 1.272 . S
C113 O105 1.311 . S
C113 O107 1.231 . S
O114 Zn96 1.953 . S
O114 C108 1.298 . S
O115 Zn116 1.953 1_565 S
O115 C131 1.225 . S
Zn116 O115 1.953 1_545 S
Zn116 O117 1.949 . S
Zn116 O123 1.919 . S
Zn116 O128 1.924 . S
O117 Zn116 1.949 . S
O117 Zn118 1.923 . S
O117 Zn119 1.950 1_545 S
O117 Zn120 1.945 . S
Zn118 O117 1.923 . S
Zn118 O121 1.933 . S
Zn118 O124 1.941 . S
Zn118 O125 1.965 1_545 S
Zn119 O117 1.950 1_565 S
Zn119 O126 1.938 . S
Zn119 O127 1.906 . S
Zn119 O137 1.953 . S
Zn120 O117 1.945 . S
Zn120 O122 1.932 . S
Zn120 O129 1.977 . S
Zn120 O130 1.910 . S
O121 Zn118 1.933 . S
O121 C132 1.226 . S
O122 Zn120 1.932 . S
O122 C132 1.307 . S
O123 Zn116 1.919 . S
O123 C134 1.253 . S
O124 Zn118 1.941 . S
O124 C134 1.283 . S
O125 Zn118 1.965 1_565 S
O125 C133 1.303 . S
O126 Zn119 1.938 . S
O126 C133 1.247 . S
O127 Zn119 1.906 . S
O127 C135 1.304 1_565 S
O128 Zn116 1.924 . S
O128 C136 1.311 . S
O129 Zn120 1.977 . S
O129 C135 1.272 . S
O130 Zn120 1.910 . S
O130 C136 1.231 . S
C131 O115 1.225 . S
C131 O137 1.298 . S
C132 O121 1.226 . S
C132 O122 1.307 . S
C133 O125 1.303 . S
C133 O126 1.247 . S
C134 O123 1.253 . S
C134 O124 1.283 . S
C135 O127 1.304 1_545 S
C135 O129 1.272 . S
C136 O128 1.311 . S
C136 O130 1.231 . S
O137 Zn119 1.953 . S
O137 C131 1.298 . S
O138 Zn139 1.953 . S
O138 C154 1.225 . S
Zn139 O138 1.953 . S
Zn139 O140 1.949 . S
Zn139 O146 1.919 . S
Zn139 O151 1.924 . S
O140 Zn139 1.949 . S
O140 Zn141 1.923 . S
O140 Zn142 1.950 . S
O140 Zn143 1.945 . S
Zn141 O140 1.923 . S
Zn141 O144 1.933 . S
Zn141 O147 1.941 . S
Zn141 O148 1.965 . S
Zn142 O140 1.950 . S
Zn142 O149 1.938 . S
Zn142 O150 1.906 . S
Zn142 O160 1.953 . S
Zn143 O140 1.945 . S
Zn143 O145 1.932 . S
Zn143 O152 1.977 . S
Zn143 O153 1.910 . S
O144 Zn141 1.933 . S
O144 C155 1.226 1_455 S
O145 Zn143 1.932 . S
O145 C155 1.307 1_455 S
O146 Zn139 1.919 . S
O146 C157 1.253 . S
O147 Zn141 1.941 . S
O147 C157 1.283 . S
O148 Zn141 1.965 . S
O148 C156 1.303 . S
O149 Zn142 1.938 . S
O149 C156 1.247 . S
O150 Zn142 1.906 . S
O150 C158 1.304 . S
O151 Zn139 1.924 . S
O151 C159 1.311 . S
O152 Zn143 1.977 . S
O152 C158 1.272 . S
O153 Zn143 1.910 . S
O153 C159 1.231 . S
C154 O138 1.225 . S
C154 O160 1.298 . S
C155 O144 1.226 1_655 S
C155 O145 1.307 1_655 S
C156 O148 1.303 . S
C156 O149 1.247 . S
C157 O146 1.253 . S
C157 O147 1.283 . S
C158 O150 1.304 . S
C158 O152 1.272 . S
C159 O151 1.311 . S
C159 O153 1.231 . S
O160 Zn142 1.953 . S
O160 C154 1.298 . S
O161 Zn162 1.953 . S
O161 C177 1.225 . S
Zn162 O161 1.953 . S
Zn162 O163 1.949 . S
Zn162 O169 1.919 . S
Zn162 O174 1.924 . S
O163 Zn162 1.949 . S
O163 Zn164 1.923 . S
O163 Zn165 1.950 . S
O163 Zn166 1.945 . S
Zn164 O163 1.923 . S
Zn164 O167 1.933 . S
Zn164 O170 1.941 . S
Zn164 O171 1.965 . S
Zn165 O163 1.950 . S
Zn165 O172 1.938 . S
Zn165 O173 1.906 . S
Zn165 O183 1.953 . S
Zn166 O163 1.945 . S
Zn166 O168 1.932 . S
Zn166 O175 1.977 . S
Zn166 O176 1.910 . S
O167 Zn164 1.933 . S
O167 C178 1.226 . S
O168 Zn166 1.932 . S
O168 C178 1.307 . S
O169 Zn162 1.919 . S
O169 C180 1.253 . S
O170 Zn164 1.941 . S
O170 C180 1.283 . S
O171 Zn164 1.965 . S
O171 C179 1.303 . S
O172 Zn165 1.938 . S
O172 C179 1.247 . S
O173 Zn165 1.906 . S
O173 C181 1.304 . S
O174 Zn162 1.924 . S
O174 C182 1.311 . S
O175 Zn166 1.977 . S
O175 C181 1.272 . S
O176 Zn166 1.910 . S
O176 C182 1.231 . S
C177 O161 1.225 . S
C177 O183 1.298 . S
C178 O167 1.226 . S
C178 O168 1.307 . S
C179 O171 1.303 . S
C179 O172 1.247 . S
C180 O169 1.253 . S
C180 O170 1.283 . S
C181 O173 1.304 . S
C181 O175 1.272 . S
C182 O174 1.311 . S
C182 O176 1.231 . S
O183 Zn165 1.953 . S
O183 C177 1.298 . S
O184 Zn185 1.953 . S
O184 C200 1.225 . S
Zn185 O184 1.953 . S
Zn185 O186 1.949 . S
Zn185 O192 1.919 . S
Zn185 O197 1.924 . S
O186 Zn185 1.949 . S
O186 Zn187 1.923 . S
O186 Zn188 1.950 . S
O186 Zn189 1.945 . S
Zn187 O186 1.923 . S
Zn187 O190 1.933 1_565 S
Zn187 O193 1.941 . S
Zn187 O194 1.965 . S
Zn188 O186 1.950 . S
Zn188 O195 1.938 . S
Zn188 O196 1.906 . S
Zn188 O206 1.953 . S
Zn189 O186 1.945 . S
Zn189 O191 1.932 . S
Zn189 O198 1.977 . S
Zn189 O199 1.910 . S
O190 Zn187 1.933 1_545 S
O190 C201 1.226 . S
O191 Zn189 1.932 . S
O191 C201 1.307 1_565 S
O192 Zn185 1.919 . S
O192 C203 1.253 . S
O193 Zn187 1.941 . S
O193 C203 1.283 . S
O194 Zn187 1.965 . S
O194 C202 1.303 . S
O195 Zn188 1.938 . S
O195 C202 1.247 . S
O196 Zn188 1.906 . S
O196 C204 1.304 . S
O197 Zn185 1.924 . S
O197 C205 1.311 . S
O198 Zn189 1.977 . S
O198 C204 1.272 . S
O199 Zn189 1.910 . S
O199 C205 1.231 . S
C200 O184 1.225 . S
C200 O206 1.298 . S
C201 O190 1.226 . S
C201 O191 1.307 1_545 S
C202 O194 1.303 . S
C202 O195 1.247 . S
C203 O192 1.253 . S
C203 O193 1.283 . S
C204 O196 1.304 . S
C204 O198 1.272 . S
C205 O197 1.311 . S
C205 O199 1.231 . S
O206 Zn188 1.953 . S
O206 C200 1.298 . S
O207 Zn208 1.953 . S
O207 C223 1.225 . S
Zn208 O207 1.953 . S
Zn208 O209 1.949 . S
Zn208 O215 1.919 . S
Zn208 O220 1.924 . S
O209 Zn208 1.949 . S
O209 Zn210 1.923 . S
O209 Zn211 1.950 . S
O209 Zn212 1.945 . S
Zn210 O209 1.923 . S
Zn210 O213 1.933 . S
Zn210 O216 1.941 . S
Zn210 O217 1.965 . S
Zn211 O209 1.950 . S
Zn211 O218 1.938 . S
Zn211 O219 1.906 . S
Zn211 O229 1.953 . S
Zn212 O209 1.945 . S
Zn212 O214 1.932 . S
Zn212 O221 1.977 . S
Zn212 O222 1.910 . S
O213 Zn210 1.933 . S
O213 C224 1.226 . S
O214 Zn212 1.932 . S
O214 C224 1.307 . S
O215 Zn208 1.919 . S
O215 C226 1.253 . S
O216 Zn210 1.941 . S
O216 C226 1.283 . S
O217 Zn210 1.965 . S
O217 C225 1.303 . S
O218 Zn211 1.938 . S
O218 C225 1.247 . S
O219 Zn211 1.906 . S
O219 C227 1.304 . S
O220 Zn208 1.924 . S
O220 C228 1.311 . S
O221 Zn212 1.977 . S
O221 C227 1.272 . S
O222 Zn212 1.910 . S
O222 C228 1.231 . S
C223 O207 1.225 . S
C223 O229 1.298 . S
C224 O213 1.226 . S
C224 O214 1.307 . S
C225 O217 1.303 . S
C225 O218 1.247 . S
C226 O215 1.253 . S
C226 O216 1.283 . S
C227 O219 1.304 . S
C227 O221 1.272 . S
C228 O220 1.311 . S
C228 O222 1.231 . S
O229 Zn211 1.953 . S
O229 C223 1.298 . S
O230 Zn231 1.953 . S
O230 C246 1.225 . S
Zn231 O230 1.953 . S
Zn231 O232 1.949 . S
Zn231 O238 1.919 . S
Zn231 O243 1.924 . S
O232 Zn231 1.949 . S
O232 Zn233 1.923 . S
O232 Zn234 1.950 . S
O232 Zn235 1.945 . S
Zn233 O232 1.923 . S
Zn233 O236 1.933 . S
Zn233 O239 1.941 . S
Zn233 O240 1.965 1_565 S
Zn234 O232 1.950 . S
Zn234 O241 1.938 . S
Zn234 O242 1.906 . S
Zn234 O252 1.953 . S
Zn235 O232 1.945 . S
Zn235 O237 1.932 . S
Zn235 O244 1.977 . S
Zn235 O245 1.910 . S
O236 Zn233 1.933 . S
O236 C247 1.226 . S
O237 Zn235 1.932 . S
O237 C247 1.307 . S
O238 Zn231 1.919 . S
O238 C249 1.253 . S
O239 Zn233 1.941 . S
O239 C249 1.283 . S
O240 Zn233 1.965 1_545 S
O240 C248 1.303 . S
O241 Zn234 1.938 . S
O241 C248 1.247 1_565 S
O242 Zn234 1.906 . S
O242 C250 1.304 . S
O243 Zn231 1.924 . S
O243 C251 1.311 . S
O244 Zn235 1.977 . S
O244 C250 1.272 . S
O245 Zn235 1.910 . S
O245 C251 1.231 . S
C246 O230 1.225 . S
C246 O252 1.298 . S
C247 O236 1.226 . S
C247 O237 1.307 . S
C248 O240 1.303 . S
C248 O241 1.247 1_545 S
C249 O238 1.253 . S
C249 O239 1.283 . S
C250 O242 1.304 . S
C250 O244 1.272 . S
C251 O243 1.311 . S
C251 O245 1.231 . S
O252 Zn234 1.953 . S
O252 C246 1.298 . S
O253 Zn254 1.953 . S
O253 C269 1.225 . S
Zn254 O253 1.953 . S
Zn254 O255 1.949 . S
Zn254 O261 1.919 . S
Zn254 O266 1.924 . S
O255 Zn254 1.949 . S
O255 Zn256 1.923 . S
O255 Zn257 1.950 . S
O255 Zn258 1.945 . S
Zn256 O255 1.923 . S
Zn256 O259 1.933 . S
Zn256 O262 1.941 . S
Zn256 O263 1.965 . S
Zn257 O255 1.950 . S
Zn257 O264 1.938 . S
Zn257 O265 1.906 . S
Zn257 O275 1.953 . S
Zn258 O255 1.945 . S
Zn258 O260 1.932 . S
Zn258 O267 1.977 . S
Zn258 O268 1.910 . S
O259 Zn256 1.933 . S
O259 C270 1.226 . S
O260 Zn258 1.932 . S
O260 C270 1.307 . S
O261 Zn254 1.919 . S
O261 C272 1.253 . S
O262 Zn256 1.941 . S
O262 C272 1.283 . S
O263 Zn256 1.965 . S
O263 C271 1.303 . S
O264 Zn257 1.938 . S
O264 C271 1.247 . S
O265 Zn257 1.906 . S
O265 C273 1.304 . S
O266 Zn254 1.924 . S
O266 C274 1.311 . S
O267 Zn258 1.977 . S
O267 C273 1.272 . S
O268 Zn258 1.910 . S
O268 C274 1.231 . S
C269 O253 1.225 . S
C269 O275 1.298 . S
C270 O259 1.226 . S
C270 O260 1.307 . S
C271 O263 1.303 . S
C271 O264 1.247 . S
C272 O261 1.253 . S
C272 O262 1.283 . S
C273 O265 1.304 . S
C273 O267 1.272 . S
C274 O266 1.311 . S
C274 O268 1.231 . S
O275 Zn257 1.953 . S
O275 C269 1.298 . S
O276 Zn277 1.953 . S
O276 C292 1.225 . S
Zn277 O276 1.953 . S
Zn277 O278 1.949 . S
Zn277 O284 1.919 . S
Zn277 O289 1.924 . S
O278 Zn277 1.949 . S
O278 Zn279 1.923 . S
O278 Zn280 1.950 . S
O278 Zn281 1.945 . S
Zn279 O278 1.923 . S
Zn279 O282 1.933 . S
Zn279 O285 1.941 . S
Zn279 O286 1.965 . S
Zn280 O278 1.950 . S
Zn280 O287 1.938 . S
Zn280 O288 1.906 . S
Zn280 O298 1.953 . S
Zn281 O278 1.945 . S
Zn281 O283 1.932 . S
Zn281 O290 1.977 . S
Zn281 O291 1.910 . S
O282 Zn279 1.933 . S
O282 C293 1.226 . S
O283 Zn281 1.932 . S
O283 C293 1.307 . S
O284 Zn277 1.919 . S
O284 C295 1.253 . S
O285 Zn279 1.941 . S
O285 C295 1.283 . S
O286 Zn279 1.965 . S
O286 C294 1.303 . S
O287 Zn280 1.938 . S
O287 C294 1.247 . S
O288 Zn280 1.906 . S
O288 C296 1.304 . S
O289 Zn277 1.924 . S
O289 C297 1.311 . S
O290 Zn281 1.977 . S
O290 C296 1.272 . S
O291 Zn281 1.910 . S
O291 C297 1.231 . S
C292 O276 1.225 . S
C292 O298 1.298 . S
C293 O282 1.226 . S
C293 O283 1.307 . S
C294 O286 1.303 . S
C294 O287 1.247 . S
C295 O284 1.253 . S
C295 O285 1.283 . S
C296 O288 1.304 . S
C296 O290 1.272 . S
C297 O289 1.311 . S
C297 O291 1.231 . S
O298 Zn280 1.953 . S
O298 C292 1.298 . S
O299 Zn300 1.953 . S
O299 C315 1.225 . S
Zn300 O299 1.953 . S
Zn300 O301 1.949 . S
Zn300 O307 1.919 . S
Zn300 O312 1.924 . S
O301 Zn300 1.949 . S
O301 Zn302 1.923 . S
O301 Zn303 1.950 . S
O301 Zn304 1.945 . S
Zn302 O301 1.923 . S
Zn302 O305 1.933 . S
Zn302 O308 1.941 . S
Zn302 O309 1.965 . S
Zn303 O301 1.950 . S
Zn303 O310 1.938 . S
Zn303 O311 1.906 . S
Zn303 O321 1.953 . S
Zn304 O301 1.945 . S
Zn304 O306 1.932 . S
Zn304 O313 1.977 . S
Zn304 O314 1.910 . S
O305 Zn302 1.933 . S
O305 C316 1.226 . S
O306 Zn304 1.932 . S
O306 C316 1.307 . S
O307 Zn300 1.919 . S
O307 C318 1.253 . S
O308 Zn302 1.941 . S
O308 C318 1.283 . S
O309 Zn302 1.965 . S
O309 C317 1.303 . S
O310 Zn303 1.938 . S
O310 C317 1.247 . S
O311 Zn303 1.906 . S
O311 C319 1.304 . S
O312 Zn300 1.924 . S
O312 C320 1.311 . S
O313 Zn304 1.977 . S
O313 C319 1.272 . S
O314 Zn304 1.910 . S
O314 C320 1.231 . S
C315 O299 1.225 . S
C315 O321 1.298 . S
C316 O305 1.226 . S
C316 O306 1.307 . S
C317 O309 1.303 . S
C317 O310 1.247 . S
C318 O307 1.253 . S
C318 O308 1.283 . S
C319 O311 1.304 . S
C319 O313 1.272 . S
C320 O312 1.311 . S
C320 O314 1.231 . S
O321 Zn303 1.953 . S
O321 C315 1.298 . S
O322 Zn323 1.953 . S
O322 C338 1.225 . S
Zn323 O322 1.953 . S
Zn323 O324 1.949 . S
Zn323 O330 1.919 . S
Zn323 O335 1.924 . S
O324 Zn323 1.949 . S
O324 Zn325 1.923 . S
O324 Zn326 1.950 . S
O324 Zn327 1.945 . S
Zn325 O324 1.923 . S
Zn325 O328 1.933 . S
Zn325 O331 1.941 . S
Zn325 O332 1.965 1_655 S
Zn326 O324 1.950 . S
Zn326 O333 1.938 . S
Zn326 O334 1.906 . S
Zn326 O344 1.953 . S
Zn327 O324 1.945 . S
Zn327 O329 1.932 . S
Zn327 O336 1.977 . S
Zn327 O337 1.910 . S
O328 Zn325 1.933 . S
O328 C339 1.226 . S
O329 Zn327 1.932 . S
O329 C339 1.307 . S
O330 Zn323 1.919 . S
O330 C341 1.253 . S
O331 Zn325 1.941 . S
O331 C341 1.283 . S
O332 Zn325 1.965 1_455 S
O332 C340 1.303 . S
O333 Zn326 1.938 . S
O333 C340 1.247 1_655 S
O334 Zn326 1.906 . S
O334 C342 1.304 . S
O335 Zn323 1.924 . S
O335 C343 1.311 . S
O336 Zn327 1.977 . S
O336 C342 1.272 . S
O337 Zn327 1.910 . S
O337 C343 1.231 . S
C338 O322 1.225 . S
C338 O344 1.298 . S
C339 O328 1.226 . S
C339 O329 1.307 . S
C340 O332 1.303 . S
C340 O333 1.247 1_455 S
C341 O330 1.253 . S
C341 O331 1.283 . S
C342 O334 1.304 . S
C342 O336 1.272 . S
C343 O335 1.311 . S
C343 O337 1.231 . S
O344 Zn326 1.953 . S
O344 C338 1.298 . S
O345 Zn346 1.953 . S
O345 C361 1.225 . S
Zn346 O345 1.953 . S
Zn346 O347 1.949 . S
Zn346 O353 1.919 . S
Zn346 O358 1.924 . S
O347 Zn346 1.949 . S
O347 Zn348 1.923 . S
O347 Zn349 1.950 . S
O347 Zn350 1.945 . S
Zn348 O347 1.923 . S
Zn348 O351 1.933 . S
Zn348 O354 1.941 . S
Zn348 O355 1.965 . S
Zn349 O347 1.950 . S
Zn349 O356 1.938 . S
Zn349 O357 1.906 . S
Zn349 O367 1.953 . S
Zn350 O347 1.945 . S
Zn350 O352 1.932 . S
Zn350 O359 1.977 . S
Zn350 O360 1.910 . S
O351 Zn348 1.933 . S
O351 C362 1.226 1_545 S
O352 Zn350 1.932 . S
O352 C362 1.307 1_545 S
O353 Zn346 1.919 . S
O353 C364 1.253 . S
O354 Zn348 1.941 . S
O354 C364 1.283 . S
O355 Zn348 1.965 . S
O355 C363 1.303 . S
O356 Zn349 1.938 . S
O356 C363 1.247 . S
O357 Zn349 1.906 . S
O357 C365 1.304 . S
O358 Zn346 1.924 . S
O358 C366 1.311 . S
O359 Zn350 1.977 . S
O359 C365 1.272 . S
O360 Zn350 1.910 . S
O360 C366 1.231 . S
C361 O345 1.225 . S
C361 O367 1.298 . S
C362 O351 1.226 1_565 S
C362 O352 1.307 1_565 S
C363 O355 1.303 . S
C363 O356 1.247 . S
C364 O353 1.253 . S
C364 O354 1.283 . S
C365 O357 1.304 . S
C365 O359 1.272 . S
C366 O358 1.311 . S
C366 O360 1.231 . S
O367 Zn349 1.953 . S
O367 C361 1.298 . S
O368 Zn369 1.953 . S
O368 C384 1.225 . S
Zn369 O368 1.953 . S
Zn369 O370 1.949 . S
Zn369 O376 1.919 . S
Zn369 O381 1.924 . S
O370 Zn369 1.949 . S
O370 Zn371 1.923 . S
O370 Zn372 1.950 . S
O370 Zn373 1.945 . S
Zn371 O370 1.923 . S
Zn371 O374 1.933 1_655 S
Zn371 O377 1.941 . S
Zn371 O378 1.965 . S
Zn372 O370 1.950 . S
Zn372 O379 1.938 . S
Zn372 O380 1.906 . S
Zn372 O390 1.953 . S
Zn373 O370 1.945 . S
Zn373 O375 1.932 . S
Zn373 O382 1.977 . S
Zn373 O383 1.910 . S
O374 Zn371 1.933 1_455 S
O374 C385 1.226 . S
O375 Zn373 1.932 . S
O375 C385 1.307 1_655 S
O376 Zn369 1.919 . S
O376 C387 1.253 . S
O377 Zn371 1.941 . S
O377 C387 1.283 . S
O378 Zn371 1.965 . S
O378 C386 1.303 . S
O379 Zn372 1.938 . S
O379 C386 1.247 . S
O380 Zn372 1.906 . S
O380 C388 1.304 . S
O381 Zn369 1.924 . S
O381 C389 1.311 . S
O382 Zn373 1.977 . S
O382 C388 1.272 . S
O383 Zn373 1.910 . S
O383 C389 1.231 . S
C384 O368 1.225 . S
C384 O390 1.298 . S
C385 O374 1.226 . S
C385 O375 1.307 1_455 S
C386 O378 1.303 . S
C386 O379 1.247 . S
C387 O376 1.253 . S
C387 O377 1.283 . S
C388 O380 1.304 . S
C388 O382 1.272 . S
C389 O381 1.311 . S
C389 O383 1.231 . S
O390 Zn372 1.953 . S
O390 C384 1.298 . S
O391 Zn392 1.953 . S
O391 C407 1.225 . S
Zn392 O391 1.953 . S
Zn392 O393 1.949 . S
Zn392 O399 1.919 . S
Zn392 O404 1.924 . S
O393 Zn392 1.949 . S
O393 Zn394 1.923 . S
O393 Zn395 1.950 . S
O393 Zn396 1.945 . S
Zn394 O393 1.923 . S
Zn394 O397 1.933 . S
Zn394 O400 1.941 . S
Zn394 O401 1.965 . S
Zn395 O393 1.950 . S
Zn395 O402 1.938 . S
Zn395 O403 1.906 . S
Zn395 O413 1.953 . S
Zn396 O393 1.945 . S
Zn396 O398 1.932 . S
Zn396 O405 1.977 . S
Zn396 O406 1.910 . S
O397 Zn394 1.933 . S
O397 C408 1.226 . S
O398 Zn396 1.932 . S
O398 C408 1.307 . S
O399 Zn392 1.919 . S
O399 C410 1.253 . S
O400 Zn394 1.941 . S
O400 C410 1.283 . S
O401 Zn394 1.965 . S
O401 C409 1.303 . S
O402 Zn395 1.938 . S
O402 C409 1.247 . S
O403 Zn395 1.906 . S
O403 C411 1.304 . S
O404 Zn392 1.924 . S
O404 C412 1.311 . S
O405 Zn396 1.977 . S
O405 C411 1.272 . S
O406 Zn396 1.910 . S
O406 C412 1.231 . S
C407 O391 1.225 . S
C407 O413 1.298 . S
C408 O397 1.226 . S
C408 O398 1.307 . S
C409 O401 1.303 . S
C409 O402 1.247 . S
C410 O399 1.253 . S
C410 O400 1.283 . S
C411 O403 1.304 . S
C411 O405 1.272 . S
C412 O404 1.311 . S
C412 O406 1.231 . S
O413 Zn395 1.953 . S
O413 C407 1.298 . S
H414 C420 0.930 . S
H415 C424 0.930 . S
H416 C429 0.929 . S
H417 C427 0.929 . S
H418 C422 0.929 . S
H419 C428 0.929 . S
C420 H414 0.930 . S
C420 C421 1.367 . S
C420 C428 1.378 . S
C421 C420 1.367 . S
C421 C429 1.433 . S
C422 H418 0.929 . S
C422 C424 1.378 . S
C422 C426 1.350 . S
C423 C426 1.463 . S
C423 C428 1.350 . S
C423 N431 1.427 . S
C424 H415 0.930 . S
C424 C422 1.378 . S
C424 C425 1.367 . S
C425 C424 1.367 . S
C425 C427 1.433 . S
C426 C422 1.350 . S
C426 C423 1.463 . S
C426 N430 1.427 . S
C427 H417 0.929 . S
C427 C425 1.433 . S
C427 N430 1.384 . S
C428 H419 0.929 . S
C428 C420 1.378 . S
C428 C423 1.350 . S
C429 H416 0.929 . S
C429 C421 1.433 . S
C429 N431 1.384 . S
N430 C426 1.427 . S
N430 C427 1.384 . S
N431 C423 1.427 . S
N431 C429 1.384 . S
H432 C438 0.930 . S
H433 C442 0.930 . S
H434 C447 0.929 . S
H435 C445 0.929 . S
H436 C440 0.929 . S
H437 C446 0.929 . S
C438 H432 0.930 . S
C438 C439 1.367 . S
C438 C446 1.378 . S
C439 C438 1.367 . S
C439 C447 1.433 . S
C440 H436 0.929 . S
C440 C442 1.378 . S
C440 C444 1.350 . S
C441 C444 1.463 . S
C441 C446 1.350 . S
C441 N449 1.427 . S
C442 H433 0.930 . S
C442 C440 1.378 . S
C442 C443 1.367 . S
C443 C442 1.367 . S
C443 C445 1.433 . S
C444 C440 1.350 . S
C444 C441 1.463 . S
C444 N448 1.427 . S
C445 H435 0.929 . S
C445 C443 1.433 . S
C445 N448 1.384 . S
C446 H437 0.929 . S
C446 C438 1.378 . S
C446 C441 1.350 . S
C447 H434 0.929 . S
C447 C439 1.433 . S
C447 N449 1.384 . S
N448 C444 1.427 . S
N448 C445 1.384 . S
N449 C441 1.427 . S
N449 C447 1.384 . S
H450 C456 0.930 . S
H451 C460 0.930 . S
H452 C465 0.929 . S
H453 C463 0.929 . S
H454 C458 0.929 . S
H455 C464 0.929 . S
C456 H450 0.930 . S
C456 C457 1.367 . S
C456 C464 1.378 . S
C457 C456 1.367 . S
C457 C465 1.433 . S
C458 H454 0.929 . S
C458 C460 1.378 . S
C458 C462 1.350 . S
C459 C462 1.463 . S
C459 C464 1.350 . S
C459 N467 1.427 . S
C460 H451 0.930 . S
C460 C458 1.378 . S
C460 C461 1.367 . S
C461 C460 1.367 . S
C461 C463 1.433 . S
C462 C458 1.350 . S
C462 C459 1.463 . S
C462 N466 1.427 . S
C463 H453 0.929 . S
C463 C461 1.433 . S
C463 N466 1.384 . S
C464 H455 0.929 . S
C464 C456 1.378 . S
C464 C459 1.350 . S
C465 H452 0.929 . S
C465 C457 1.433 . S
C465 N467 1.384 . S
N466 C462 1.427 . S
N466 C463 1.384 . S
N467 C459 1.427 . S
N467 C465 1.384 . S
H468 C474 0.930 . S
H469 C478 0.930 . S
H470 C483 0.929 . S
H471 C481 0.929 . S
H472 C476 0.929 . S
H473 C482 0.929 . S
C474 H468 0.930 . S
C474 C475 1.367 . S
C474 C482 1.378 . S
C475 C474 1.367 . S
C475 C483 1.433 . S
C476 H472 0.929 . S
C476 C478 1.378 . S
C476 C480 1.350 . S
C477 C480 1.463 . S
C477 C482 1.350 . S
C477 N485 1.427 . S
C478 H469 0.930 . S
C478 C476 1.378 . S
C478 C479 1.367 . S
C479 C478 1.367 . S
C479 C481 1.433 . S
C480 C476 1.350 . S
C480 C477 1.463 . S
C480 N484 1.427 . S
C481 H471 0.929 . S
C481 C479 1.433 . S
C481 N484 1.384 . S
C482 H473 0.929 . S
C482 C474 1.378 . S
C482 C477 1.350 . S
C483 H470 0.929 . S
C483 C475 1.433 . S
C483 N485 1.384 . S
N484 C480 1.427 . S
N484 C481 1.384 . S
N485 C477 1.427 . S
N485 C483 1.384 . S
H486 C492 0.930 . S
H487 C496 0.930 . S
H488 C501 0.929 . S
H489 C499 0.929 . S
H490 C494 0.929 . S
H491 C500 0.929 . S
C492 H486 0.930 . S
C492 C493 1.367 . S
C492 C500 1.378 . S
C493 C492 1.367 . S
C493 C501 1.433 . S
C494 H490 0.929 . S
C494 C496 1.378 . S
C494 C498 1.350 . S
C495 C498 1.463 . S
C495 C500 1.350 . S
C495 N503 1.427 . S
C496 H487 0.930 . S
C496 C494 1.378 . S
C496 C497 1.367 . S
C497 C496 1.367 . S
C497 C499 1.433 . S
C498 C494 1.350 . S
C498 C495 1.463 . S
C498 N502 1.427 . S
C499 H489 0.929 . S
C499 C497 1.433 . S
C499 N502 1.384 . S
C500 H491 0.929 . S
C500 C492 1.378 . S
C500 C495 1.350 . S
C501 H488 0.929 . S
C501 C493 1.433 . S
C501 N503 1.384 . S
N502 C498 1.427 . S
N502 C499 1.384 . S
N503 C495 1.427 . S
N503 C501 1.384 . S
H504 C510 0.930 . S
H505 C514 0.930 . S
H506 C519 0.929 . S
H507 C517 0.929 . S
H508 C512 0.929 . S
H509 C518 0.929 . S
C510 H504 0.930 . S
C510 C511 1.367 . S
C510 C518 1.378 . S
C511 C510 1.367 . S
C511 C519 1.433 . S
C512 H508 0.929 . S
C512 C514 1.378 . S
C512 C516 1.350 . S
C513 C516 1.463 . S
C513 C518 1.350 . S
C513 N521 1.427 . S
C514 H505 0.930 . S
C514 C512 1.378 . S
C514 C515 1.367 . S
C515 C514 1.367 . S
C515 C517 1.433 . S
C516 C512 1.350 . S
C516 C513 1.463 . S
C516 N520 1.427 . S
C517 H507 0.929 . S
C517 C515 1.433 . S
C517 N520 1.384 . S
C518 H509 0.929 . S
C518 C510 1.378 . S
C518 C513 1.350 . S
C519 H506 0.929 . S
C519 C511 1.433 . S
C519 N521 1.384 . S
N520 C516 1.427 . S
N520 C517 1.384 . S
N521 C513 1.427 . S
N521 C519 1.384 . S
H522 C528 0.930 . S
H523 C532 0.930 . S
H524 C537 0.929 . S
H525 C535 0.929 . S
H526 C530 0.929 . S
H527 C536 0.929 . S
C528 H522 0.930 . S
C528 C529 1.367 . S
C528 C536 1.378 . S
C529 C528 1.367 . S
C529 C537 1.433 . S
C530 H526 0.929 . S
C530 C532 1.378 . S
C530 C534 1.350 . S
C531 C534 1.463 . S
C531 C536 1.350 . S
C531 N539 1.427 . S
C532 H523 0.930 . S
C532 C530 1.378 . S
C532 C533 1.367 . S
C533 C532 1.367 . S
C533 C535 1.433 . S
C534 C530 1.350 . S
C534 C531 1.463 . S
C534 N538 1.427 . S
C535 H525 0.929 . S
C535 C533 1.433 . S
C535 N538 1.384 . S
C536 H527 0.929 . S
C536 C528 1.378 . S
C536 C531 1.350 . S
C537 H524 0.929 . S
C537 C529 1.433 . S
C537 N539 1.384 . S
N538 C534 1.427 . S
N538 C535 1.384 . S
N539 C531 1.427 . S
N539 C537 1.384 . S
H540 C546 0.930 . S
H541 C550 0.930 . S
H542 C555 0.929 . S
H543 C553 0.929 . S
H544 C548 0.929 . S
H545 C554 0.929 . S
C546 H540 0.930 . S
C546 C547 1.367 . S
C546 C554 1.378 . S
C547 C546 1.367 . S
C547 C555 1.433 . S
C548 H544 0.929 . S
C548 C550 1.378 1_545 S
C548 C552 1.350 . S
C549 C552 1.463 . S
C549 C554 1.350 . S
C549 N557 1.427 . S
C550 H541 0.930 . S
C550 C548 1.378 1_565 S
C550 C551 1.367 . S
C551 C550 1.367 . S
C551 C553 1.433 . S
C552 C548 1.350 . S
C552 C549 1.463 . S
C552 N556 1.427 . S
C553 H543 0.929 . S
C553 C551 1.433 . S
C553 N556 1.384 1_565 S
C554 H545 0.929 . S
C554 C546 1.378 . S
C554 C549 1.350 . S
C555 H542 0.929 . S
C555 C547 1.433 . S
C555 N557 1.384 . S
N556 C552 1.427 . S
N556 C553 1.384 1_545 S
N557 C549 1.427 . S
N557 C555 1.384 . S
H558 C564 0.930 . S
H559 C568 0.930 . S
H560 C573 0.929 . S
H561 C571 0.929 . S
H562 C566 0.929 . S
H563 C572 0.929 . S
C564 H558 0.930 . S
C564 C565 1.367 . S
C564 C572 1.378 1_455 S
C565 C564 1.367 . S
C565 C573 1.433 . S
C566 H562 0.929 . S
C566 C568 1.378 . S
C566 C570 1.350 . S
C567 C570 1.463 . S
C567 C572 1.350 . S
C567 N575 1.427 . S
C568 H559 0.930 . S
C568 C566 1.378 . S
C568 C569 1.367 . S
C569 C568 1.367 . S
C569 C571 1.433 . S
C570 C566 1.350 . S
C570 C567 1.463 . S
C570 N574 1.427 . S
C571 H561 0.929 . S
C571 C569 1.433 . S
C571 N574 1.384 . S
C572 H563 0.929 . S
C572 C564 1.378 1_655 S
C572 C567 1.350 . S
C573 H560 0.929 . S
C573 C565 1.433 . S
C573 N575 1.384 1_455 S
N574 C570 1.427 . S
N574 C571 1.384 . S
N575 C567 1.427 . S
N575 C573 1.384 1_655 S
H576 C582 0.930 . S
H577 C586 0.930 . S
H578 C591 0.929 . S
H579 C589 0.929 . S
H580 C584 0.929 . S
H581 C590 0.929 . S
C582 H576 0.930 . S
C582 C583 1.367 . S
C582 C590 1.378 . S
C583 C582 1.367 . S
C583 C591 1.433 . S
C584 H580 0.929 . S
C584 C586 1.378 . S
C584 C588 1.350 . S
C585 C588 1.463 . S
C585 C590 1.350 . S
C585 N593 1.427 . S
C586 H577 0.930 . S
C586 C584 1.378 . S
C586 C587 1.367 . S
C587 C586 1.367 . S
C587 C589 1.433 . S
C588 C584 1.350 . S
C588 C585 1.463 . S
C588 N592 1.427 . S
C589 H579 0.929 . S
C589 C587 1.433 . S
C589 N592 1.384 . S
C590 H581 0.929 . S
C590 C582 1.378 . S
C590 C585 1.350 . S
C591 H578 0.929 . S
C591 C583 1.433 . S
C591 N593 1.384 . S
N592 C588 1.427 . S
N592 C589 1.384 . S
N593 C585 1.427 . S
N593 C591 1.384 . S
H594 C600 0.930 . S
H595 C604 0.930 . S
H596 C609 0.929 . S
H597 C607 0.929 . S
H598 C602 0.929 . S
H599 C608 0.929 . S
C600 H594 0.930 . S
C600 C601 1.367 . S
C600 C608 1.378 . S
C601 C600 1.367 . S
C601 C609 1.433 . S
C602 H598 0.929 . S
C602 C604 1.378 . S
C602 C606 1.350 . S
C603 C606 1.463 . S
C603 C608 1.350 . S
C603 N611 1.427 . S
C604 H595 0.930 . S
C604 C602 1.378 . S
C604 C605 1.367 . S
C605 C604 1.367 . S
C605 C607 1.433 . S
C606 C602 1.350 . S
C606 C603 1.463 . S
C606 N610 1.427 . S
C607 H597 0.929 . S
C607 C605 1.433 . S
C607 N610 1.384 . S
C608 H599 0.929 . S
C608 C600 1.378 . S
C608 C603 1.350 . S
C609 H596 0.929 . S
C609 C601 1.433 . S
C609 N611 1.384 . S
N610 C606 1.427 . S
N610 C607 1.384 . S
N611 C603 1.427 . S
N611 C609 1.384 . S
H612 C618 0.930 . S
H613 C622 0.930 . S
H614 C627 0.929 . S
H615 C625 0.929 . S
H616 C620 0.929 . S
H617 C626 0.929 . S
C618 H612 0.930 . S
C618 C619 1.367 . S
C618 C626 1.378 . S
C619 C618 1.367 . S
C619 C627 1.433 . S
C620 H616 0.929 . S
C620 C622 1.378 . S
C620 C624 1.350 . S
C621 C624 1.463 . S
C621 C626 1.350 . S
C621 N629 1.427 . S
C622 H613 0.930 . S
C622 C620 1.378 . S
C622 C623 1.367 . S
C623 C622 1.367 . S
C623 C625 1.433 . S
C624 C620 1.350 . S
C624 C621 1.463 . S
C624 N628 1.427 . S
C625 H615 0.929 . S
C625 C623 1.433 . S
C625 N628 1.384 . S
C626 H617 0.929 . S
C626 C618 1.378 . S
C626 C621 1.350 . S
C627 H614 0.929 . S
C627 C619 1.433 . S
C627 N629 1.384 . S
N628 C624 1.427 . S
N628 C625 1.384 . S
N629 C621 1.427 . S
N629 C627 1.384 . S
H630 C636 0.930 . S
H631 C640 0.930 . S
H632 C645 0.929 . S
H633 C643 0.929 . S
H634 C638 0.929 . S
H635 C644 0.929 . S
C636 H630 0.930 . S
C636 C637 1.367 . S
C636 C644 1.378 . S
C637 C636 1.367 . S
C637 C645 1.433 . S
C638 H634 0.929 . S
C638 C640 1.378 . S
C638 C642 1.350 . S
C639 C642 1.463 . S
C639 C644 1.350 . S
C639 N647 1.427 . S
C640 H631 0.930 . S
C640 C638 1.378 . S
C640 C641 1.367 . S
C641 C640 1.367 . S
C641 C643 1.433 . S
C642 C638 1.350 . S
C642 C639 1.463 . S
C642 N646 1.427 . S
C643 H633 0.929 . S
C643 C641 1.433 . S
C643 N646 1.384 . S
C644 H635 0.929 . S
C644 C636 1.378 . S
C644 C639 1.350 . S
C645 H632 0.929 . S
C645 C637 1.433 . S
C645 N647 1.384 . S
N646 C642 1.427 . S
N646 C643 1.384 . S
N647 C639 1.427 . S
N647 C645 1.384 . S
H648 C654 0.930 . S
H649 C658 0.930 . S
H650 C663 0.929 . S
H651 C661 0.929 . S
H652 C656 0.929 . S
H653 C662 0.929 . S
C654 H648 0.930 . S
C654 C655 1.367 . S
C654 C662 1.378 . S
C655 C654 1.367 . S
C655 C663 1.433 . S
C656 H652 0.929 . S
C656 C658 1.378 . S
C656 C660 1.350 . S
C657 C660 1.463 . S
C657 C662 1.350 . S
C657 N665 1.427 . S
C658 H649 0.930 . S
C658 C656 1.378 . S
C658 C659 1.367 . S
C659 C658 1.367 . S
C659 C661 1.433 . S
C660 C656 1.350 . S
C660 C657 1.463 . S
C660 N664 1.427 . S
C661 H651 0.929 . S
C661 C659 1.433 . S
C661 N664 1.384 . S
C662 H653 0.929 . S
C662 C654 1.378 . S
C662 C657 1.350 . S
C663 H650 0.929 . S
C663 C655 1.433 . S
C663 N665 1.384 . S
N664 C660 1.427 . S
N664 C661 1.384 . S
N665 C657 1.427 . S
N665 C663 1.384 . S
H666 C672 0.930 . S
H667 C676 0.930 . S
H668 C681 0.929 . S
H669 C679 0.929 . S
H670 C674 0.929 . S
H671 C680 0.929 . S
C672 H666 0.930 . S
C672 C673 1.367 . S
C672 C680 1.378 . S
C673 C672 1.367 . S
C673 C681 1.433 . S
C674 H670 0.929 . S
C674 C676 1.378 . S
C674 C678 1.350 . S
C675 C678 1.463 . S
C675 C680 1.350 . S
C675 N683 1.427 . S
C676 H667 0.930 . S
C676 C674 1.378 . S
C676 C677 1.367 . S
C677 C676 1.367 . S
C677 C679 1.433 . S
C678 C674 1.350 . S
C678 C675 1.463 . S
C678 N682 1.427 . S
C679 H669 0.929 . S
C679 C677 1.433 . S
C679 N682 1.384 . S
C680 H671 0.929 . S
C680 C672 1.378 . S
C680 C675 1.350 . S
C681 H668 0.929 . S
C681 C673 1.433 . S
C681 N683 1.384 . S
N682 C678 1.427 . S
N682 C679 1.384 . S
N683 C675 1.427 . S
N683 C681 1.384 . S
H684 C690 0.930 . S
H685 C694 0.930 . S
H686 C699 0.929 . S
H687 C697 0.929 . S
H688 C692 0.929 . S
H689 C698 0.929 . S
C690 H684 0.930 . S
C690 C691 1.367 . S
C690 C698 1.378 . S
C691 C690 1.367 . S
C691 C699 1.433 . S
C692 H688 0.929 . S
C692 C694 1.378 . S
C692 C696 1.350 . S
C693 C696 1.463 . S
C693 C698 1.350 . S
C693 N701 1.427 . S
C694 H685 0.930 . S
C694 C692 1.378 . S
C694 C695 1.367 . S
C695 C694 1.367 . S
C695 C697 1.433 . S
C696 C692 1.350 . S
C696 C693 1.463 . S
C696 N700 1.427 . S
C697 H687 0.929 . S
C697 C695 1.433 . S
C697 N700 1.384 . S
C698 H689 0.929 . S
C698 C690 1.378 . S
C698 C693 1.350 . S
C699 H686 0.929 . S
C699 C691 1.433 . S
C699 N701 1.384 . S
N700 C696 1.427 . S
N700 C697 1.384 . S
N701 C693 1.427 . S
N701 C699 1.384 . S
H702 C708 0.930 . S
H703 C712 0.930 . S
H704 C717 0.929 . S
H705 C715 0.929 . S
H706 C710 0.929 . S
H707 C716 0.929 . S
C708 H702 0.930 . S
C708 C709 1.367 . S
C708 C716 1.378 . S
C709 C708 1.367 . S
C709 C717 1.433 . S
C710 H706 0.929 . S
C710 C712 1.378 1_565 S
C710 C714 1.350 . S
C711 C714 1.463 . S
C711 C716 1.350 . S
C711 N719 1.427 . S
C712 H703 0.930 . S
C712 C710 1.378 1_545 S
C712 C713 1.367 . S
C713 C712 1.367 . S
C713 C715 1.433 . S
C714 C710 1.350 . S
C714 C711 1.463 . S
C714 N718 1.427 . S
C715 H705 0.929 . S
C715 C713 1.433 . S
C715 N718 1.384 1_545 S
C716 H707 0.929 . S
C716 C708 1.378 . S
C716 C711 1.350 . S
C717 H704 0.929 . S
C717 C709 1.433 . S
C717 N719 1.384 . S
N718 C714 1.427 . S
N718 C715 1.384 1_565 S
N719 C711 1.427 . S
N719 C717 1.384 . S
H720 C726 0.930 . S
H721 C730 0.930 . S
H722 C735 0.929 . S
H723 C733 0.929 . S
H724 C728 0.929 . S
H725 C734 0.929 . S
C726 H720 0.930 . S
C726 C727 1.367 . S
C726 C734 1.378 . S
C727 C726 1.367 . S
C727 C735 1.433 . S
C728 H724 0.929 . S
C728 C730 1.378 1_455 S
C728 C732 1.350 . S
C729 C732 1.463 . S
C729 C734 1.350 . S
C729 N737 1.427 . S
C730 H721 0.930 . S
C730 C728 1.378 1_655 S
C730 C731 1.367 . S
C731 C730 1.367 . S
C731 C733 1.433 . S
C732 C728 1.350 . S
C732 C729 1.463 . S
C732 N736 1.427 . S
C733 H723 0.929 . S
C733 C731 1.433 . S
C733 N736 1.384 1_655 S
C734 H725 0.929 . S
C734 C726 1.378 . S
C734 C729 1.350 . S
C735 H722 0.929 . S
C735 C727 1.433 . S
C735 N737 1.384 . S
N736 C732 1.427 . S
N736 C733 1.384 1_455 S
N737 C729 1.427 . S
N737 C735 1.384 . S
H738 C744 0.930 . S
H739 C748 0.930 . S
H740 C753 0.929 . S
H741 C751 0.929 . S
H742 C746 0.929 . S
H743 C752 0.929 . S
C744 H738 0.930 . S
C744 C745 1.368 . S
C744 C752 1.378 . S
C745 C744 1.368 . S
C745 C753 1.431 1_565 S
C746 H742 0.929 . S
C746 C748 1.378 . S
C746 C750 1.350 . S
C747 C750 1.463 1_554 S
C747 C752 1.350 1_545 S
C747 N755 1.427 . S
C748 H739 0.930 . S
C748 C746 1.378 . S
C748 C749 1.367 . S
C749 C748 1.367 . S
C749 C751 1.433 1_545 S
C750 C746 1.350 . S
C750 C747 1.463 1_556 S
C750 N754 1.427 1_545 S
C751 H741 0.929 . S
C751 C749 1.433 1_565 S
C751 N754 1.384 . S
C752 H743 0.929 . S
C752 C744 1.378 . S
C752 C747 1.350 1_565 S
C753 H740 0.929 . S
C753 C745 1.431 1_545 S
C753 N755 1.384 . S
N754 C750 1.427 1_565 S
N754 C751 1.384 . S
N755 C747 1.427 . S
N755 C753 1.384 . S
H756 C762 0.930 . S
H757 C766 0.930 . S
H758 C771 0.929 . S
H759 C769 0.929 . S
H760 C764 0.929 . S
H761 C770 0.929 . S
C762 H756 0.930 . S
C762 C763 1.367 . S
C762 C770 1.378 . S
C763 C762 1.367 . S
C763 C771 1.433 1_455 S
C764 H760 0.929 . S
C764 C766 1.378 . S
C764 C768 1.350 1_655 S
C765 C768 1.463 1_556 S
C765 C770 1.350 . S
C765 N773 1.427 1_455 S
C766 H757 0.930 . S
C766 C764 1.378 . S
C766 C767 1.367 1_655 S
C767 C766 1.367 1_455 S
C767 C769 1.433 . S
C768 C764 1.350 1_455 S
C768 C765 1.463 1_554 S
C768 N772 1.427 . S
C769 H759 0.929 . S
C769 C767 1.433 . S
C769 N772 1.384 . S
C770 H761 0.929 . S
C770 C762 1.378 . S
C770 C765 1.350 . S
C771 H758 0.929 . S
C771 C763 1.433 1_655 S
C771 N773 1.384 . S
N772 C768 1.427 . S
N772 C769 1.384 . S
N773 C765 1.427 1_655 S
N773 C771 1.384 . S
H774 C780 0.930 . S
H775 C784 0.930 . S
H776 C789 0.929 . S
H777 C787 0.929 . S
H778 C782 0.929 . S
H779 C788 0.929 . S
C780 H774 0.930 . S
C780 C781 1.367 . S
C780 C788 1.378 . S
C781 C780 1.367 . S
C781 C789 1.433 . S
C782 H778 0.929 . S
C782 C784 1.378 . S
C782 C786 1.350 . S
C783 C786 1.463 1_556 S
C783 C788 1.350 . S
C783 N791 1.427 . S
C784 H775 0.930 . S
C784 C782 1.378 . S
C784 C785 1.367 . S
C785 C784 1.367 . S
C785 C787 1.433 . S
C786 C782 1.350 . S
C786 C783 1.463 1_554 S
C786 N790 1.427 . S
C787 H777 0.929 . S
C787 C785 1.433 . S
C787 N790 1.384 . S
C788 H779 0.929 . S
C788 C780 1.378 . S
C788 C783 1.350 . S
C789 H776 0.929 . S
C789 C781 1.433 . S
C789 N791 1.384 . S
N790 C786 1.427 . S
N790 C787 1.384 . S
N791 C783 1.427 . S
N791 C789 1.384 . S
H792 C798 0.930 . S
H793 C802 0.930 . S
H794 C807 0.929 . S
H795 C805 0.929 . S
H796 C800 0.929 . S
H797 C806 0.929 . S
C798 H792 0.930 . S
C798 C799 1.367 . S
C798 C806 1.378 . S
C799 C798 1.367 . S
C799 C807 1.433 . S
C800 H796 0.929 . S
C800 C802 1.378 . S
C800 C804 1.350 . S
C801 C804 1.463 . S
C801 C806 1.350 . S
C801 N809 1.427 . S
C802 H793 0.930 . S
C802 C800 1.378 . S
C802 C803 1.367 . S
C803 C802 1.367 . S
C803 C805 1.433 . S
C804 C800 1.350 . S
C804 C801 1.463 . S
C804 N808 1.427 . S
C805 H795 0.929 . S
C805 C803 1.433 . S
C805 N808 1.384 . S
C806 H797 0.929 . S
C806 C798 1.378 . S
C806 C801 1.350 . S
C807 H794 0.929 . S
C807 C799 1.433 . S
C807 N809 1.384 . S
N808 C804 1.427 . S
N808 C805 1.384 . S
N809 C801 1.427 . S
N809 C807 1.384 . S
H810 C816 0.930 . S
H811 C820 0.930 . S
H812 C825 0.929 . S
H813 C823 0.929 . S
H814 C818 0.929 . S
H815 C824 0.929 . S
C816 H810 0.930 . S
C816 C817 1.367 . S
C816 C824 1.378 . S
C817 C816 1.367 . S
C817 C825 1.433 . S
C818 H814 0.929 . S
C818 C820 1.378 . S
C818 C822 1.350 . S
C819 C822 1.463 . S
C819 C824 1.350 . S
C819 N827 1.427 . S
C820 H811 0.930 . S
C820 C818 1.378 . S
C820 C821 1.367 . S
C821 C820 1.367 . S
C821 C823 1.433 . S
C822 C818 1.350 . S
C822 C819 1.463 . S
C822 N826 1.427 . S
C823 H813 0.929 . S
C823 C821 1.433 . S
C823 N826 1.384 . S
C824 H815 0.929 . S
C824 C816 1.378 . S
C824 C819 1.350 . S
C825 H812 0.929 . S
C825 C817 1.433 . S
C825 N827 1.384 . S
N826 C822 1.427 . S
N826 C823 1.384 . S
N827 C819 1.427 . S
N827 C825 1.384 . S
H828 C834 0.930 . S
H829 C838 0.930 . S
H830 C843 0.929 . S
H831 C841 0.929 . S
H832 C836 0.929 . S
H833 C842 0.929 . S
C834 H828 0.930 . S
C834 C835 1.367 . S
C834 C842 1.378 . S
C835 C834 1.367 . S
C835 C843 1.433 . S
C836 H832 0.929 . S
C836 C838 1.378 . S
C836 C840 1.350 . S
C837 C840 1.463 . S
C837 C842 1.350 . S
C837 N845 1.427 . S
C838 H829 0.930 . S
C838 C836 1.378 . S
C838 C839 1.367 . S
C839 C838 1.367 . S
C839 C841 1.433 . S
C840 C836 1.350 . S
C840 C837 1.463 . S
C840 N844 1.427 . S
C841 H831 0.929 . S
C841 C839 1.433 . S
C841 N844 1.384 . S
C842 H833 0.929 . S
C842 C834 1.378 . S
C842 C837 1.350 . S
C843 H830 0.929 . S
C843 C835 1.433 . S
C843 N845 1.384 . S
N844 C840 1.427 . S
N844 C841 1.384 . S
N845 C837 1.427 . S
N845 C843 1.384 . S
H846 C852 0.930 . S
H847 C856 0.930 . S
H848 C861 0.929 . S
H849 C859 0.929 . S
H850 C854 0.929 . S
H851 C860 0.929 . S
C852 H846 0.930 . S
C852 C853 1.367 . S
C852 C860 1.378 . S
C853 C852 1.367 . S
C853 C861 1.433 . S
C854 H850 0.929 . S
C854 C856 1.378 . S
C854 C858 1.350 . S
C855 C858 1.463 . S
C855 C860 1.350 . S
C855 N863 1.427 . S
C856 H847 0.930 . S
C856 C854 1.378 . S
C856 C857 1.367 . S
C857 C856 1.367 . S
C857 C859 1.433 . S
C858 C854 1.350 . S
C858 C855 1.463 . S
C858 N862 1.427 . S
C859 H849 0.929 . S
C859 C857 1.433 . S
C859 N862 1.384 . S
C860 H851 0.929 . S
C860 C852 1.378 . S
C860 C855 1.350 . S
C861 H848 0.929 . S
C861 C853 1.433 . S
C861 N863 1.384 . S
N862 C858 1.427 . S
N862 C859 1.384 . S
N863 C855 1.427 . S
N863 C861 1.384 . S
H864 C870 0.930 . S
H865 C874 0.930 . S
H866 C879 0.929 . S
H867 C877 0.929 . S
H868 C872 0.929 . S
H869 C878 0.929 . S
C870 H864 0.930 . S
C870 C871 1.367 . S
C870 C878 1.378 . S
C871 C870 1.367 . S
C871 C879 1.433 . S
C872 H868 0.929 . S
C872 C874 1.378 . S
C872 C876 1.350 . S
C873 C876 1.463 . S
C873 C878 1.350 . S
C873 N881 1.427 . S
C874 H865 0.930 . S
C874 C872 1.378 . S
C874 C875 1.367 . S
C875 C874 1.367 . S
C875 C877 1.433 . S
C876 C872 1.350 . S
C876 C873 1.463 . S
C876 N880 1.427 . S
C877 H867 0.929 . S
C877 C875 1.433 . S
C877 N880 1.384 . S
C878 H869 0.929 . S
C878 C870 1.378 . S
C878 C873 1.350 . S
C879 H866 0.929 . S
C879 C871 1.433 . S
C879 N881 1.384 . S
N880 C876 1.427 . S
N880 C877 1.384 . S
N881 C873 1.427 . S
N881 C879 1.384 . S
H882 C888 0.930 . S
H883 C892 0.930 . S
H884 C897 0.929 . S
H885 C895 0.929 . S
H886 C890 0.929 . S
H887 C896 0.929 . S
C888 H882 0.930 . S
C888 C889 1.367 . S
C888 C896 1.378 . S
C889 C888 1.367 . S
C889 C897 1.433 . S
C890 H886 0.929 . S
C890 C892 1.378 . S
C890 C894 1.350 . S
C891 C894 1.463 . S
C891 C896 1.350 . S
C891 N899 1.427 . S
C892 H883 0.930 . S
C892 C890 1.378 . S
C892 C893 1.367 . S
C893 C892 1.367 . S
C893 C895 1.433 . S
C894 C890 1.350 . S
C894 C891 1.463 . S
C894 N898 1.427 . S
C895 H885 0.929 . S
C895 C893 1.433 . S
C895 N898 1.384 . S
C896 H887 0.929 . S
C896 C888 1.378 . S
C896 C891 1.350 . S
C897 H884 0.929 . S
C897 C889 1.433 . S
C897 N899 1.384 . S
N898 C894 1.427 . S
N898 C895 1.384 . S
N899 C891 1.427 . S
N899 C897 1.384 . S
H900 C906 0.930 . S
H901 C910 0.930 . S
H902 C915 0.929 . S
H903 C913 0.929 . S
H904 C908 0.929 . S
H905 C914 0.929 . S
C906 H900 0.930 . S
C906 C907 1.367 . S
C906 C914 1.378 . S
C907 C906 1.367 . S
C907 C915 1.433 . S
C908 H904 0.929 . S
C908 C910 1.378 . S
C908 C912 1.350 . S
C909 C912 1.463 . S
C909 C914 1.350 . S
C909 N917 1.427 . S
C910 H901 0.930 . S
C910 C908 1.378 . S
C910 C911 1.367 . S
C911 C910 1.367 . S
C911 C913 1.433 1_565 S
C912 C908 1.350 . S
C912 C909 1.463 . S
C912 N916 1.427 . S
C913 H903 0.929 . S
C913 C911 1.433 1_545 S
C913 N916 1.384 1_545 S
C914 H905 0.929 . S
C914 C906 1.378 . S
C914 C909 1.350 . S
C915 H902 0.929 . S
C915 C907 1.433 . S
C915 N917 1.384 . S
N916 C912 1.427 . S
N916 C913 1.384 1_565 S
N917 C909 1.427 . S
N917 C915 1.384 . S
H918 C924 0.930 . S
H919 C928 0.930 . S
H920 C933 0.929 . S
H921 C931 0.929 . S
H922 C926 0.929 . S
H923 C932 0.929 . S
C924 H918 0.930 . S
C924 C925 1.367 . S
C924 C932 1.378 . S
C925 C924 1.367 . S
C925 C933 1.433 . S
C926 H922 0.929 . S
C926 C928 1.378 . S
C926 C930 1.350 . S
C927 C930 1.463 . S
C927 C932 1.350 . S
C927 N935 1.427 . S
C928 H919 0.930 . S
C928 C926 1.378 . S
C928 C929 1.367 . S
C929 C928 1.367 . S
C929 C931 1.433 . S
C930 C926 1.350 . S
C930 C927 1.463 . S
C930 N934 1.427 . S
C931 H921 0.929 . S
C931 C929 1.433 . S
C931 N934 1.384 . S
C932 H923 0.929 . S
C932 C924 1.378 . S
C932 C927 1.350 . S
C933 H920 0.929 . S
C933 C925 1.433 . S
C933 N935 1.384 . S
N934 C930 1.427 . S
N934 C931 1.384 . S
N935 C927 1.427 . S
N935 C933 1.384 . S
H936 C942 0.930 . S
H937 C946 0.930 . S
H938 C951 0.929 . S
H939 C949 0.929 . S
H940 C944 0.929 . S
H941 C950 0.929 . S
C942 H936 0.930 . S
C942 C943 1.367 . S
C942 C950 1.378 . S
C943 C942 1.367 . S
C943 C951 1.433 . S
C944 H940 0.929 . S
C944 C946 1.378 . S
C944 C948 1.350 . S
C945 C948 1.463 . S
C945 C950 1.350 . S
C945 N953 1.427 . S
C946 H937 0.930 . S
C946 C944 1.378 . S
C946 C947 1.367 . S
C947 C946 1.367 . S
C947 C949 1.433 . S
C948 C944 1.350 . S
C948 C945 1.463 . S
C948 N952 1.427 . S
C949 H939 0.929 . S
C949 C947 1.433 . S
C949 N952 1.384 . S
C950 H941 0.929 . S
C950 C942 1.378 . S
C950 C945 1.350 . S
C951 H938 0.929 . S
C951 C943 1.433 . S
C951 N953 1.384 . S
N952 C948 1.427 . S
N952 C949 1.384 . S
N953 C945 1.427 . S
N953 C951 1.384 . S
H954 C960 0.930 . S
H955 C964 0.930 . S
H956 C969 0.929 . S
H957 C967 0.929 . S
H958 C962 0.929 . S
H959 C968 0.929 . S
C960 H954 0.930 . S
C960 C961 1.367 1_455 S
C960 C968 1.378 . S
C961 C960 1.367 1_655 S
C961 C969 1.433 . S
C962 H958 0.929 . S
C962 C964 1.378 . S
C962 C966 1.350 . S
C963 C966 1.463 . S
C963 C968 1.350 1_655 S
C963 N971 1.427 . S
C964 H955 0.930 . S
C964 C962 1.378 . S
C964 C965 1.367 . S
C965 C964 1.367 . S
C965 C967 1.433 . S
C966 C962 1.350 . S
C966 C963 1.463 . S
C966 N970 1.427 . S
C967 H957 0.929 . S
C967 C965 1.433 . S
C967 N970 1.384 . S
C968 H959 0.929 . S
C968 C960 1.378 . S
C968 C963 1.350 1_455 S
C969 H956 0.929 . S
C969 C961 1.433 . S
C969 N971 1.384 . S
N970 C966 1.427 . S
N970 C967 1.384 . S
N971 C963 1.427 . S
N971 C969 1.384 . S
H972 C978 0.930 . S
H973 C982 0.930 . S
H974 C987 0.929 . S
H975 C985 0.929 . S
H976 C980 0.929 . S
H977 C986 0.929 . S
C978 H972 0.930 . S
C978 C979 1.367 . S
C978 C986 1.378 . S
C979 C978 1.367 . S
C979 C987 1.433 . S
C980 H976 0.929 . S
C980 C982 1.378 . S
C980 C984 1.350 . S
C981 C984 1.463 . S
C981 C986 1.350 . S
C981 N989 1.427 . S
C982 H973 0.930 . S
C982 C980 1.378 . S
C982 C983 1.367 . S
C983 C982 1.367 . S
C983 C985 1.433 . S
C984 C980 1.350 . S
C984 C981 1.463 . S
C984 N988 1.427 . S
C985 H975 0.929 . S
C985 C983 1.433 . S
C985 N988 1.384 . S
C986 H977 0.929 . S
C986 C978 1.378 . S
C986 C981 1.350 . S
C987 H974 0.929 . S
C987 C979 1.433 . S
C987 N989 1.384 . S
N988 C984 1.427 . S
N988 C985 1.384 . S
N989 C981 1.427 . S
N989 C987 1.384 . S
H990 C996 0.930 . S
H991 C1000 0.930 . S
H992 C1005 0.929 . S
H993 C1003 0.929 . S
H994 C998 0.929 . S
H995 C1004 0.929 . S
C996 H990 0.930 . S
C996 C997 1.367 . S
C996 C1004 1.378 . S
C997 C996 1.367 . S
C997 C1005 1.433 . S
C998 H994 0.929 . S
C998 C1000 1.378 . S
C998 C1002 1.350 . S
C999 C1002 1.463 . S
C999 C1004 1.350 . S
C999 N1007 1.427 . S
C1000 H991 0.930 . S
C1000 C998 1.378 . S
C1000 C1001 1.367 . S
C1001 C1000 1.367 . S
C1001 C1003 1.433 . S
C1002 C998 1.350 . S
C1002 C999 1.463 . S
C1002 N1006 1.427 . S
C1003 H993 0.929 . S
C1003 C1001 1.433 . S
C1003 N1006 1.384 . S
C1004 H995 0.929 . S
C1004 C996 1.378 . S
C1004 C999 1.350 . S
C1005 H992 0.929 . S
C1005 C997 1.433 . S
C1005 N1007 1.384 . S
N1006 C1002 1.427 . S
N1006 C1003 1.384 . S
N1007 C999 1.427 . S
N1007 C1005 1.384 . S
H1008 C1014 0.927 1_455 S
H1009 C1018 0.930 . S
H1010 C1023 0.929 . S
H1011 C1021 0.929 . S
H1012 C1016 0.930 1_655 S
H1013 C1022 0.929 . S
C1014 H1008 0.927 1_655 S
C1014 C1015 1.381 . S
C1014 C1022 1.368 1_655 S
C1015 C1014 1.381 . S
C1015 C1023 1.433 . S
C1016 H1012 0.930 1_455 S
C1016 C1018 1.377 . S
C1016 C1020 1.350 . S
C1017 C1020 1.462 . S
C1017 C1022 1.350 . S
C1017 N1025 1.428 1_455 S
C1018 H1009 0.930 . S
C1018 C1016 1.377 . S
C1018 C1019 1.367 . S
C1019 C1018 1.367 . S
C1019 C1021 1.433 . S
C1020 C1016 1.350 . S
C1020 C1017 1.462 . S
C1020 N1024 1.427 . S
C1021 H1011 0.929 . S
C1021 C1019 1.433 . S
C1021 N1024 1.384 . S
C1022 H1013 0.929 . S
C1022 C1014 1.368 1_455 S
C1022 C1017 1.350 . S
C1023 H1010 0.929 . S
C1023 C1015 1.433 . S
C1023 N1025 1.384 . S
N1024 C1020 1.427 . S
N1024 C1021 1.384 . S
N1025 C1017 1.428 1_655 S
N1025 C1023 1.384 . S
H1026 C1032 0.930 . S
H1027 C1036 0.930 . S
H1028 C1041 0.929 . S
H1029 C1039 0.929 . S
H1030 C1034 0.929 . S
H1031 C1040 0.929 . S
C1032 H1026 0.930 . S
C1032 C1033 1.367 . S
C1032 C1040 1.378 . S
C1033 C1032 1.367 . S
C1033 C1041 1.433 . S
C1034 H1030 0.929 . S
C1034 C1036 1.378 . S
C1034 C1038 1.350 . S
C1035 C1038 1.463 . S
C1035 C1040 1.350 . S
C1035 N1043 1.427 . S
C1036 H1027 0.930 . S
C1036 C1034 1.378 . S
C1036 C1037 1.367 . S
C1037 C1036 1.367 . S
C1037 C1039 1.433 . S
C1038 C1034 1.350 . S
C1038 C1035 1.463 . S
C1038 N1042 1.427 . S
C1039 H1029 0.929 . S
C1039 C1037 1.433 . S
C1039 N1042 1.384 . S
C1040 H1031 0.929 . S
C1040 C1032 1.378 . S
C1040 C1035 1.350 . S
C1041 H1028 0.929 . S
C1041 C1033 1.433 . S
C1041 N1043 1.384 . S
N1042 C1038 1.427 . S
N1042 C1039 1.384 . S
N1043 C1035 1.427 . S
N1043 C1041 1.384 . S
H1044 C1050 0.930 1_545 S
H1045 C1054 0.930 . S
H1046 C1059 0.929 . S
H1047 C1057 0.929 . S
H1048 C1052 0.929 1_565 S
H1049 C1058 0.929 . S
C1050 H1044 0.930 1_565 S
C1050 C1051 1.367 . S
C1050 C1058 1.378 1_565 S
C1051 C1050 1.367 . S
C1051 C1059 1.433 . S
C1052 H1048 0.929 1_545 S
C1052 C1054 1.378 . S
C1052 C1056 1.350 . S
C1053 C1056 1.462 1_565 S
C1053 C1058 1.349 1_565 S
C1053 N1061 1.429 . S
C1054 H1045 0.930 . S
C1054 C1052 1.378 . S
C1054 C1055 1.367 . S
C1055 C1054 1.367 . S
C1055 C1057 1.433 . S
C1056 C1052 1.350 . S
C1056 C1053 1.462 1_545 S
C1056 N1060 1.427 . S
C1057 H1047 0.929 . S
C1057 C1055 1.433 . S
C1057 N1060 1.384 . S
C1058 H1049 0.929 . S
C1058 C1050 1.378 1_545 S
C1058 C1053 1.349 1_545 S
C1059 H1046 0.929 . S
C1059 C1051 1.433 . S
C1059 N1061 1.384 . S
N1060 C1056 1.427 . S
N1060 C1057 1.384 . S
N1061 C1053 1.429 . S
N1061 C1059 1.384 . S
H1062 C1068 0.930 . S
H1063 C1072 0.930 . S
H1064 C1077 0.929 . S
H1065 C1075 0.929 . S
H1066 C1070 0.929 . S
H1067 C1076 0.929 . S
C1068 H1062 0.930 . S
C1068 C1069 1.367 . S
C1068 C1076 1.378 . S
C1069 C1068 1.367 . S
C1069 C1077 1.433 . S
C1070 H1066 0.929 . S
C1070 C1072 1.378 . S
C1070 C1074 1.350 . S
C1071 C1074 1.463 . S
C1071 C1076 1.350 . S
C1071 N1079 1.427 . S
C1072 H1063 0.930 . S
C1072 C1070 1.378 . S
C1072 C1073 1.367 . S
C1073 C1072 1.367 . S
C1073 C1075 1.433 . S
C1074 C1070 1.350 . S
C1074 C1071 1.463 . S
C1074 N1078 1.427 . S
C1075 H1065 0.929 . S
C1075 C1073 1.433 . S
C1075 N1078 1.384 . S
C1076 H1067 0.929 . S
C1076 C1068 1.378 . S
C1076 C1071 1.350 . S
C1077 H1064 0.929 . S
C1077 C1069 1.433 . S
C1077 N1079 1.384 . S
N1078 C1074 1.427 . S
N1078 C1075 1.384 . S
N1079 C1071 1.427 . S
N1079 C1077 1.384 . S
H1080 C1086 0.930 . S
H1081 C1090 0.930 . S
H1082 C1095 0.929 . S
H1083 C1093 0.929 . S
H1084 C1088 0.929 . S
H1085 C1094 0.929 . S
C1086 H1080 0.930 . S
C1086 C1087 1.367 . S
C1086 C1094 1.378 . S
C1087 C1086 1.367 . S
C1087 C1095 1.433 . S
C1088 H1084 0.929 . S
C1088 C1090 1.378 . S
C1088 C1092 1.350 . S
C1089 C1092 1.463 . S
C1089 C1094 1.350 . S
C1089 N1097 1.427 . S
C1090 H1081 0.930 . S
C1090 C1088 1.378 . S
C1090 C1091 1.367 . S
C1091 C1090 1.367 . S
C1091 C1093 1.433 . S
C1092 C1088 1.350 . S
C1092 C1089 1.463 . S
C1092 N1096 1.427 . S
C1093 H1083 0.929 . S
C1093 C1091 1.433 . S
C1093 N1096 1.384 . S
C1094 H1085 0.929 . S
C1094 C1086 1.378 . S
C1094 C1089 1.350 . S
C1095 H1082 0.929 . S
C1095 C1087 1.433 . S
C1095 N1097 1.384 . S
N1096 C1092 1.427 . S
N1096 C1093 1.384 . S
N1097 C1089 1.427 . S
N1097 C1095 1.384 . S
H1098 C1104 0.930 . S
H1099 C1108 0.930 . S
H1100 C1113 0.929 . S
H1101 C1111 0.929 . S
H1102 C1106 0.929 . S
H1103 C1112 0.929 . S
C1104 H1098 0.930 . S
C1104 C1105 1.367 . S
C1104 C1112 1.378 . S
C1105 C1104 1.367 . S
C1105 C1113 1.433 . S
C1106 H1102 0.929 . S
C1106 C1108 1.378 . S
C1106 C1110 1.350 . S
C1107 C1110 1.463 . S
C1107 C1112 1.350 . S
C1107 N1115 1.427 . S
C1108 H1099 0.930 . S
C1108 C1106 1.378 . S
C1108 C1109 1.367 . S
C1109 C1108 1.367 . S
C1109 C1111 1.433 . S
C1110 C1106 1.350 . S
C1110 C1107 1.463 . S
C1110 N1114 1.427 . S
C1111 H1101 0.929 . S
C1111 C1109 1.433 . S
C1111 N1114 1.384 . S
C1112 H1103 0.929 . S
C1112 C1104 1.378 . S
C1112 C1107 1.350 . S
C1113 H1100 0.929 . S
C1113 C1105 1.433 . S
C1113 N1115 1.384 . S
N1114 C1110 1.427 . S
N1114 C1111 1.384 . S
N1115 C1107 1.427 . S
N1115 C1113 1.384 . S
H1116 C1122 0.930 . S
H1117 C1126 0.930 . S
H1118 C1131 0.929 . S
H1119 C1129 0.929 . S
H1120 C1124 0.929 . S
H1121 C1130 0.929 . S
C1122 H1116 0.930 . S
C1122 C1123 1.367 . S
C1122 C1130 1.378 . S
C1123 C1122 1.367 . S
C1123 C1131 1.433 . S
C1124 H1120 0.929 . S
C1124 C1126 1.378 . S
C1124 C1128 1.350 . S
C1125 C1128 1.463 . S
C1125 C1130 1.350 . S
C1125 N1133 1.427 . S
C1126 H1117 0.930 . S
C1126 C1124 1.378 . S
C1126 C1127 1.367 . S
C1127 C1126 1.367 . S
C1127 C1129 1.433 . S
C1128 C1124 1.350 . S
C1128 C1125 1.463 . S
C1128 N1132 1.427 . S
C1129 H1119 0.929 . S
C1129 C1127 1.433 . S
C1129 N1132 1.384 . S
C1130 H1121 0.929 . S
C1130 C1122 1.378 . S
C1130 C1125 1.350 . S
C1131 H1118 0.929 . S
C1131 C1123 1.433 . S
C1131 N1133 1.384 . S
N1132 C1128 1.427 . S
N1132 C1129 1.384 . S
N1133 C1125 1.427 . S
N1133 C1131 1.384 . S
H1134 C1140 0.930 . S
H1135 C1144 0.930 . S
H1136 C1149 0.929 . S
H1137 C1147 0.929 . S
H1138 C1142 0.929 . S
H1139 C1148 0.929 . S
C1140 H1134 0.930 . S
C1140 C1141 1.367 . S
C1140 C1148 1.378 . S
C1141 C1140 1.367 . S
C1141 C1149 1.433 . S
C1142 H1138 0.929 . S
C1142 C1144 1.378 . S
C1142 C1146 1.350 . S
C1143 C1146 1.463 . S
C1143 C1148 1.350 . S
C1143 N1151 1.427 . S
C1144 H1135 0.930 . S
C1144 C1142 1.378 . S
C1144 C1145 1.367 . S
C1145 C1144 1.367 . S
C1145 C1147 1.433 . S
C1146 C1142 1.350 . S
C1146 C1143 1.463 . S
C1146 N1150 1.427 . S
C1147 H1137 0.929 . S
C1147 C1145 1.433 . S
C1147 N1150 1.384 . S
C1148 H1139 0.929 . S
C1148 C1140 1.378 . S
C1148 C1143 1.350 . S
C1149 H1136 0.929 . S
C1149 C1141 1.433 . S
C1149 N1151 1.384 . S
N1150 C1146 1.427 . S
N1150 C1147 1.384 . S
N1151 C1143 1.427 . S
N1151 C1149 1.384 . S
H1152 C1158 0.930 . S
H1153 C1162 0.930 . S
H1154 C1167 0.929 . S
H1155 C1165 0.929 . S
H1156 C1160 0.929 . S
H1157 C1166 0.929 . S
C1158 H1152 0.930 . S
C1158 C1159 1.367 . S
C1158 C1166 1.378 . S
C1159 C1158 1.367 . S
C1159 C1167 1.433 . S
C1160 H1156 0.929 . S
C1160 C1162 1.378 . S
C1160 C1164 1.350 . S
C1161 C1164 1.463 . S
C1161 C1166 1.350 . S
C1161 N1169 1.427 . S
C1162 H1153 0.930 . S
C1162 C1160 1.378 . S
C1162 C1163 1.367 . S
C1163 C1162 1.367 . S
C1163 C1165 1.433 . S
C1164 C1160 1.350 . S
C1164 C1161 1.463 . S
C1164 N1168 1.427 . S
C1165 H1155 0.929 . S
C1165 C1163 1.433 . S
C1165 N1168 1.384 . S
C1166 H1157 0.929 . S
C1166 C1158 1.378 . S
C1166 C1161 1.350 . S
C1167 H1154 0.929 . S
C1167 C1159 1.433 . S
C1167 N1169 1.384 . S
N1168 C1164 1.427 . S
N1168 C1165 1.384 . S
N1169 C1161 1.427 . S
N1169 C1167 1.384 . S
H1170 C1176 0.930 . S
H1171 C1180 0.930 . S
H1172 C1185 0.929 . S
H1173 C1183 0.929 . S
H1174 C1178 0.929 . S
H1175 C1184 0.929 . S
C1176 H1170 0.930 . S
C1176 C1177 1.367 . S
C1176 C1184 1.378 . S
C1177 C1176 1.367 . S
C1177 C1185 1.433 . S
C1178 H1174 0.929 . S
C1178 C1180 1.378 . S
C1178 C1182 1.350 . S
C1179 C1182 1.463 . S
C1179 C1184 1.350 . S
C1179 N1187 1.427 . S
C1180 H1171 0.930 . S
C1180 C1178 1.378 . S
C1180 C1181 1.367 . S
C1181 C1180 1.367 . S
C1181 C1183 1.433 . S
C1182 C1178 1.350 . S
C1182 C1179 1.463 . S
C1182 N1186 1.427 . S
C1183 H1173 0.929 . S
C1183 C1181 1.433 . S
C1183 N1186 1.384 . S
C1184 H1175 0.929 . S
C1184 C1176 1.378 . S
C1184 C1179 1.350 . S
C1185 H1172 0.929 . S
C1185 C1177 1.433 . S
C1185 N1187 1.384 . S
N1186 C1182 1.427 . S
N1186 C1183 1.384 . S
N1187 C1179 1.427 . S
N1187 C1185 1.384 . S
H1188 C1194 0.930 . S
H1189 C1198 0.930 . S
H1190 C1203 0.929 . S
H1191 C1201 0.929 . S
H1192 C1196 0.929 . S
H1193 C1202 0.929 . S
C1194 H1188 0.930 . S
C1194 C1195 1.367 . S
C1194 C1202 1.378 . S
C1195 C1194 1.367 . S
C1195 C1203 1.433 . S
C1196 H1192 0.929 . S
C1196 C1198 1.378 . S
C1196 C1200 1.350 . S
C1197 C1200 1.463 . S
C1197 C1202 1.350 . S
C1197 N1205 1.427 . S
C1198 H1189 0.930 . S
C1198 C1196 1.378 . S
C1198 C1199 1.367 . S
C1199 C1198 1.367 . S
C1199 C1201 1.433 . S
C1200 C1196 1.350 . S
C1200 C1197 1.463 . S
C1200 N1204 1.427 . S
C1201 H1191 0.929 . S
C1201 C1199 1.433 . S
C1201 N1204 1.384 . S
C1202 H1193 0.929 . S
C1202 C1194 1.378 . S
C1202 C1197 1.350 . S
C1203 H1190 0.929 . S
C1203 C1195 1.433 . S
C1203 N1205 1.384 . S
N1204 C1200 1.427 . S
N1204 C1201 1.384 . S
N1205 C1197 1.427 . S
N1205 C1203 1.384 . S
H1206 C1212 0.930 . S
H1207 C1216 0.930 . S
H1208 C1221 0.929 . S
H1209 C1219 0.929 . S
H1210 C1214 0.929 . S
H1211 C1220 0.929 . S
C1212 H1206 0.930 . S
C1212 C1213 1.367 . S
C1212 C1220 1.378 . S
C1213 C1212 1.367 . S
C1213 C1221 1.433 . S
C1214 H1210 0.929 . S
C1214 C1216 1.378 . S
C1214 C1218 1.350 . S
C1215 C1218 1.463 . S
C1215 C1220 1.350 . S
C1215 N1223 1.427 . S
C1216 H1207 0.930 . S
C1216 C1214 1.378 . S
C1216 C1217 1.367 . S
C1217 C1216 1.367 . S
C1217 C1219 1.433 . S
C1218 C1214 1.350 . S
C1218 C1215 1.463 . S
C1218 N1222 1.427 . S
C1219 H1209 0.929 . S
C1219 C1217 1.433 . S
C1219 N1222 1.384 . S
C1220 H1211 0.929 . S
C1220 C1212 1.378 . S
C1220 C1215 1.350 . S
C1221 H1208 0.929 . S
C1221 C1213 1.433 . S
C1221 N1223 1.384 . S
N1222 C1218 1.427 . S
N1222 C1219 1.384 . S
N1223 C1215 1.427 . S
N1223 C1221 1.384 . S
H1224 C1230 0.930 . S
H1225 C1234 0.930 . S
H1226 C1239 0.929 . S
H1227 C1237 0.929 . S
H1228 C1232 0.929 . S
H1229 C1238 0.929 . S
C1230 H1224 0.930 . S
C1230 C1231 1.367 . S
C1230 C1238 1.378 . S
C1231 C1230 1.367 . S
C1231 C1239 1.433 . S
C1232 H1228 0.929 . S
C1232 C1234 1.378 1_655 S
C1232 C1236 1.350 . S
C1233 C1236 1.463 . S
C1233 C1238 1.350 . S
C1233 N1241 1.427 . S
C1234 H1225 0.930 . S
C1234 C1232 1.378 1_455 S
C1234 C1235 1.367 . S
C1235 C1234 1.367 . S
C1235 C1237 1.433 . S
C1236 C1232 1.350 . S
C1236 C1233 1.463 . S
C1236 N1240 1.427 . S
C1237 H1227 0.929 . S
C1237 C1235 1.433 . S
C1237 N1240 1.384 1_455 S
C1238 H1229 0.929 . S
C1238 C1230 1.378 . S
C1238 C1233 1.350 . S
C1239 H1226 0.929 . S
C1239 C1231 1.433 . S
C1239 N1241 1.384 . S
N1240 C1236 1.427 . S
N1240 C1237 1.384 1_655 S
N1241 C1233 1.427 . S
N1241 C1239 1.384 . S
H1242 C1248 0.930 . S
H1243 C1252 0.930 . S
H1244 C1257 0.929 . S
H1245 C1255 0.929 . S
H1246 C1250 0.929 . S
H1247 C1256 0.929 . S
C1248 H1242 0.930 . S
C1248 C1249 1.367 . S
C1248 C1256 1.378 . S
C1249 C1248 1.367 . S
C1249 C1257 1.433 . S
C1250 H1246 0.929 . S
C1250 C1252 1.378 . S
C1250 C1254 1.350 . S
C1251 C1254 1.463 . S
C1251 C1256 1.350 . S
C1251 N1259 1.427 . S
C1252 H1243 0.930 . S
C1252 C1250 1.378 . S
C1252 C1253 1.367 . S
C1253 C1252 1.367 . S
C1253 C1255 1.433 . S
C1254 C1250 1.350 . S
C1254 C1251 1.463 . S
C1254 N1258 1.427 . S
C1255 H1245 0.929 . S
C1255 C1253 1.433 . S
C1255 N1258 1.384 . S
C1256 H1247 0.929 . S
C1256 C1248 1.378 . S
C1256 C1251 1.350 . S
C1257 H1244 0.929 . S
C1257 C1249 1.433 . S
C1257 N1259 1.384 . S
N1258 C1254 1.427 . S
N1258 C1255 1.384 . S
N1259 C1251 1.427 . S
N1259 C1257 1.384 . S
H1260 C1266 0.930 . S
H1261 C1270 0.930 1_455 S
H1262 C1275 0.929 . S
H1263 C1273 0.929 . S
H1264 C1268 0.929 . S
H1265 C1274 0.929 . S
C1266 H1260 0.930 . S
C1266 C1267 1.367 . S
C1266 C1274 1.378 1_565 S
C1267 C1266 1.367 . S
C1267 C1275 1.433 . S
C1268 H1264 0.929 . S
C1268 C1270 1.378 . S
C1268 C1272 1.350 . S
C1269 C1272 1.463 . S
C1269 C1274 1.350 . S
C1269 N1277 1.427 . S
C1270 H1261 0.930 1_655 S
C1270 C1268 1.378 . S
C1270 C1271 1.367 . S
C1271 C1270 1.367 . S
C1271 C1273 1.433 . S
C1272 C1268 1.350 . S
C1272 C1269 1.463 . S
C1272 N1276 1.427 . S
C1273 H1263 0.929 . S
C1273 C1271 1.433 . S
C1273 N1276 1.384 . S
C1274 H1265 0.929 . S
C1274 C1266 1.378 1_545 S
C1274 C1269 1.350 . S
C1275 H1262 0.929 . S
C1275 C1267 1.433 . S
C1275 N1277 1.384 1_565 S
N1276 C1272 1.427 . S
N1276 C1273 1.384 . S
N1277 C1269 1.427 . S
N1277 C1275 1.384 1_545 S
H1278 C1284 0.930 . S
H1279 C1288 0.930 . S
H1280 C1293 0.929 . S
H1281 C1291 0.929 . S
H1282 C1286 0.929 . S
H1283 C1292 0.929 . S
C1284 H1278 0.930 . S
C1284 C1285 1.367 . S
C1284 C1292 1.378 . S
C1285 C1284 1.367 . S
C1285 C1293 1.433 . S
C1286 H1282 0.929 . S
C1286 C1288 1.378 1_565 S
C1286 C1290 1.350 . S
C1287 C1290 1.463 . S
C1287 C1292 1.350 . S
C1287 N1295 1.427 . S
C1288 H1279 0.930 . S
C1288 C1286 1.378 1_545 S
C1288 C1289 1.367 . S
C1289 C1288 1.367 . S
C1289 C1291 1.433 . S
C1290 C1286 1.350 . S
C1290 C1287 1.463 . S
C1290 N1294 1.427 . S
C1291 H1281 0.929 . S
C1291 C1289 1.433 . S
C1291 N1294 1.384 1_545 S
C1292 H1283 0.929 . S
C1292 C1284 1.378 . S
C1292 C1287 1.350 . S
C1293 H1280 0.929 . S
C1293 C1285 1.433 . S
C1293 N1295 1.384 . S
N1294 C1290 1.427 . S
N1294 C1291 1.384 1_565 S
N1295 C1287 1.427 . S
N1295 C1293 1.384 . S
H1296 C1302 0.930 . S
H1297 C1306 0.930 . S
H1298 C1311 0.929 1_545 S
H1299 C1309 0.929 . S
H1300 C1304 0.929 . S
H1301 C1310 0.929 . S
C1302 H1296 0.930 . S
C1302 C1303 1.367 . S
C1302 C1310 1.378 . S
C1303 C1302 1.367 . S
C1303 C1311 1.433 . S
C1304 H1300 0.929 . S
C1304 C1306 1.378 1_455 S
C1304 C1308 1.350 . S
C1305 C1308 1.463 . S
C1305 C1310 1.350 . S
C1305 N1313 1.427 . S
C1306 H1297 0.930 . S
C1306 C1304 1.378 1_655 S
C1306 C1307 1.367 . S
C1307 C1306 1.367 . S
C1307 C1309 1.433 . S
C1308 C1304 1.350 . S
C1308 C1305 1.463 . S
C1308 N1312 1.427 . S
C1309 H1299 0.929 . S
C1309 C1307 1.433 . S
C1309 N1312 1.384 1_655 S
C1310 H1301 0.929 . S
C1310 C1302 1.378 . S
C1310 C1305 1.350 . S
C1311 H1298 0.929 1_565 S
C1311 C1303 1.433 . S
C1311 N1313 1.384 . S
N1312 C1308 1.427 . S
N1312 C1309 1.384 1_455 S
N1313 C1305 1.427 . S
N1313 C1311 1.384 . S
H1314 C1320 0.930 . S
H1315 C1324 0.930 . S
H1316 C1329 0.929 . S
H1317 C1327 0.929 . S
H1318 C1322 0.929 . S
H1319 C1328 0.929 . S
C1320 H1314 0.930 . S
C1320 C1321 1.367 . S
C1320 C1328 1.378 . S
C1321 C1320 1.367 . S
C1321 C1329 1.433 . S
C1322 H1318 0.929 . S
C1322 C1324 1.378 . S
C1322 C1326 1.350 . S
C1323 C1326 1.463 . S
C1323 C1328 1.350 . S
C1323 N1331 1.427 . S
C1324 H1315 0.930 . S
C1324 C1322 1.378 . S
C1324 C1325 1.367 . S
C1325 C1324 1.367 . S
C1325 C1327 1.433 . S
C1326 C1322 1.350 . S
C1326 C1323 1.463 . S
C1326 N1330 1.427 . S
C1327 H1317 0.929 . S
C1327 C1325 1.433 . S
C1327 N1330 1.384 . S
C1328 H1319 0.929 . S
C1328 C1320 1.378 . S
C1328 C1323 1.350 . S
C1329 H1316 0.929 . S
C1329 C1321 1.433 . S
C1329 N1331 1.384 . S
N1330 C1326 1.427 . S
N1330 C1327 1.384 . S
N1331 C1323 1.427 . S
N1331 C1329 1.384 . S
H1332 C1338 0.930 . S
H1333 C1342 0.930 . S
H1334 C1347 0.929 . S
H1335 C1345 0.929 . S
H1336 C1340 0.929 . S
H1337 C1346 0.929 . S
C1338 H1332 0.930 . S
C1338 C1339 1.367 . S
C1338 C1346 1.378 . S
C1339 C1338 1.367 . S
C1339 C1347 1.433 . S
C1340 H1336 0.929 . S
C1340 C1342 1.378 . S
C1340 C1344 1.350 . S
C1341 C1344 1.463 . S
C1341 C1346 1.350 . S
C1341 N1349 1.427 . S
C1342 H1333 0.930 . S
C1342 C1340 1.378 . S
C1342 C1343 1.367 . S
C1343 C1342 1.367 . S
C1343 C1345 1.433 . S
C1344 C1340 1.350 . S
C1344 C1341 1.463 . S
C1344 N1348 1.427 . S
C1345 H1335 0.929 . S
C1345 C1343 1.433 . S
C1345 N1348 1.384 . S
C1346 H1337 0.929 . S
C1346 C1338 1.378 . S
C1346 C1341 1.350 . S
C1347 H1334 0.929 . S
C1347 C1339 1.433 . S
C1347 N1349 1.384 . S
N1348 C1344 1.427 . S
N1348 C1345 1.384 . S
N1349 C1341 1.427 . S
N1349 C1347 1.384 . S
H1350 C1356 0.930 . S
H1351 C1360 0.930 . S
H1352 C1365 0.929 . S
H1353 C1363 0.929 . S
H1354 C1358 0.929 . S
H1355 C1364 0.929 . S
C1356 H1350 0.930 . S
C1356 C1357 1.367 . S
C1356 C1364 1.378 . S
C1357 C1356 1.367 . S
C1357 C1365 1.433 . S
C1358 H1354 0.929 . S
C1358 C1360 1.378 . S
C1358 C1362 1.350 . S
C1359 C1362 1.463 . S
C1359 C1364 1.350 . S
C1359 N1367 1.427 . S
C1360 H1351 0.930 . S
C1360 C1358 1.378 . S
C1360 C1361 1.367 . S
C1361 C1360 1.367 . S
C1361 C1363 1.433 . S
C1362 C1358 1.350 . S
C1362 C1359 1.463 . S
C1362 N1366 1.427 . S
C1363 H1353 0.929 . S
C1363 C1361 1.433 . S
C1363 N1366 1.384 . S
C1364 H1355 0.929 . S
C1364 C1356 1.378 . S
C1364 C1359 1.350 . S
C1365 H1352 0.929 . S
C1365 C1357 1.433 . S
C1365 N1367 1.384 . S
N1366 C1362 1.427 . S
N1366 C1363 1.384 . S
N1367 C1359 1.427 . S
N1367 C1365 1.384 . S
H1368 C1374 0.930 . S
H1369 C1378 0.930 . S
H1370 C1383 0.929 . S
H1371 C1381 0.929 . S
H1372 C1376 0.929 . S
H1373 C1382 0.929 . S
C1374 H1368 0.930 . S
C1374 C1375 1.367 . S
C1374 C1382 1.378 . S
C1375 C1374 1.367 . S
C1375 C1383 1.433 . S
C1376 H1372 0.929 . S
C1376 C1378 1.378 . S
C1376 C1380 1.350 . S
C1377 C1380 1.463 . S
C1377 C1382 1.350 . S
C1377 N1385 1.427 . S
C1378 H1369 0.930 . S
C1378 C1376 1.378 . S
C1378 C1379 1.367 . S
C1379 C1378 1.367 . S
C1379 C1381 1.433 . S
C1380 C1376 1.350 . S
C1380 C1377 1.463 . S
C1380 N1384 1.427 . S
C1381 H1371 0.929 . S
C1381 C1379 1.433 . S
C1381 N1384 1.384 . S
C1382 H1373 0.929 . S
C1382 C1374 1.378 . S
C1382 C1377 1.350 . S
C1383 H1370 0.929 . S
C1383 C1375 1.433 . S
C1383 N1385 1.384 . S
N1384 C1380 1.427 . S
N1384 C1381 1.384 . S
N1385 C1377 1.427 . S
N1385 C1383 1.384 . S
C421 C21 1.100 . S
C425 C63 1.084 . S
C439 C17 1.089 . S
C443 C44 1.099 . S
C457 C40 1.082 . S
C461 C67 1.104 . S
C475 C90 1.103 . S
C479 C109 1.081 . S
C493 C132 1.095 . S
C497 C113 1.091 . S
C511 C136 1.102 . S
C515 C86 1.082 . S
C529 C201 1.098 . S
C533 C159 1.091 . S
C547 C155 1.090 . S
C551 C182 1.095 . S
C565 C205 1.100 . S
C569 C178 1.083 . S
C583 C247 1.084 . S
C587 C228 1.101 . S
C601 C251 1.102 . S
C605 C270 1.082 . S
C619 C224 1.096 . S
C623 C274 1.093 . S
C637 C297 1.102 . S
C641 C339 1.086 . S
C655 C293 1.090 . S
C659 C320 1.095 . S
C673 C316 1.090 . S
C677 C343 1.098 . S
C691 C385 1.091 . S
C695 C366 1.097 . S
C709 C408 1.097 . S
C713 C389 1.091 . S
C727 C362 1.087 . S
C731 C412 1.100 . S
C745 C20 1.525 1_565 S
C749 C135 1.519 . S
C763 C89 1.516 . S
C767 C43 1.522 . S
C781 C112 1.518 . S
C785 C66 1.517 . S
C799 C158 1.521 . S
C803 C273 1.515 . S
C817 C181 1.517 . S
C821 C227 1.524 . S
C835 C250 1.520 . S
C839 C204 1.516 . S
C853 C296 1.524 . S
C857 C411 1.519 . S
C871 C365 1.524 . S
C875 C319 1.515 . S
C889 C388 1.521 . S
C893 C342 1.522 . S
C907 C249 1.545 . S
C911 C19 1.546 1_565 S
C925 C42 1.546 . S
C929 C272 1.544 . S
C943 C226 1.548 . S
C947 C65 1.544 . S
C961 C88 1.543 1_655 S
C965 C341 1.546 . S
C979 C111 1.547 . S
C983 C295 1.545 . S
C997 C318 1.547 . S
C1001 C134 1.545 . S
C1015 C387 1.544 . S
C1019 C157 1.547 . S
C1033 C180 1.545 . S
C1037 C410 1.544 . S
C1051 C203 1.548 . S
C1055 C364 1.543 . S
C1069 C62 0.993 . S
C1073 C18 0.993 . S
C1087 C16 0.997 . S
C1091 C41 0.981 . S
C1105 C64 0.984 . S
C1109 C39 0.997 . S
C1123 C108 0.992 . S
C1127 C87 0.991 . S
C1141 C131 0.996 . S
C1145 C110 0.987 . S
C1159 C133 0.987 . S
C1163 C85 0.993 . S
C1177 C200 0.993 . S
C1181 C156 0.993 . S
C1195 C179 0.984 . S
C1199 C154 0.997 . S
C1213 C177 0.996 . S
C1217 C202 0.980 . S
C1231 C225 0.980 . S
C1235 C246 0.996 . S
C1249 C248 0.993 . S
C1253 C269 0.994 . S
C1267 C223 0.992 . S
C1271 C271 0.990 1_655 S
C1285 C294 0.980 . S
C1289 C338 0.996 . S
C1303 C317 0.992 1_565 S
C1307 C292 0.994 . S
C1321 C315 0.997 . S
C1325 C340 0.981 . S
C1339 C363 0.985 . S
C1343 C384 0.997 . S
C1357 C386 0.992 . S
C1361 C407 0.995 . S
C1375 C361 0.995 . S
C1379 C409 0.981 . S
