# Generated by pormake.
# Topology tzs, (4)-cn, num edge types: 1
# Building blocks:
#     Node 0, Type 0, BuildingBlock: UXUYUI_clean_sbu_0, # of connection points: 4
#     Node 1, Type 0, BuildingBlock: UXUYUI_clean_sbu_0, # of connection points: 4
#     Node 2, Type 0, BuildingBlock: UXUYUI_clean_sbu_0, # of connection points: 4
#     Node 3, Type 0, BuildingBlock: UXUYUI_clean_sbu_0, # of connection points: 4
#     Node 4, Type 0, BuildingBlock: UXUYUI_clean_sbu_0, # of connection points: 4
#     Node 5, Type 0, BuildingBlock: UXUYUI_clean_sbu_0, # of connection points: 4
#     Node 6, Type 0, BuildingBlock: UXUYUI_clean_sbu_0, # of connection points: 4
#     Node 7, Type 0, BuildingBlock: UXUYUI_clean_sbu_0, # of connection points: 4
#     Node 8, Type 0, BuildingBlock: UXUYUI_clean_sbu_0, # of connection points: 4
#     Node 9, Type 0, BuildingBlock: UXUYUI_clean_sbu_0, # of connection points: 4
#     Node 10, Type 0, BuildingBlock: UXUYUI_clean_sbu_0, # of connection points: 4
#     Node 11, Type 0, BuildingBlock: UXUYUI_clean_sbu_0, # of connection points: 4
#     Node 12, Type 0, BuildingBlock: UXUYUI_clean_sbu_0, # of connection points: 4
#     Node 13, Type 0, BuildingBlock: UXUYUI_clean_sbu_0, # of connection points: 4
#     Node 14, Type 0, BuildingBlock: UXUYUI_clean_sbu_0, # of connection points: 4
#     Node 15, Type 0, BuildingBlock: UXUYUI_clean_sbu_0, # of connection points: 4
#     Edge 16, Type (0, 0), BuildingBlock: MIFKUJ_clean_linker_0, # of connection points: 2
#     Edge 17, Type (0, 0), BuildingBlock: MIFKUJ_clean_linker_0, # of connection points: 2
#     Edge 18, Type (0, 0), BuildingBlock: MIFKUJ_clean_linker_0, # of connection points: 2
#     Edge 19, Type (0, 0), BuildingBlock: MIFKUJ_clean_linker_0, # of connection points: 2
#     Edge 20, Type (0, 0), BuildingBlock: MIFKUJ_clean_linker_0, # of connection points: 2
#     Edge 21, Type (0, 0), BuildingBlock: MIFKUJ_clean_linker_0, # of connection points: 2
#     Edge 22, Type (0, 0), BuildingBlock: MIFKUJ_clean_linker_0, # of connection points: 2
#     Edge 23, Type (0, 0), BuildingBlock: MIFKUJ_clean_linker_0, # of connection points: 2
#     Edge 24, Type (0, 0), BuildingBlock: MIFKUJ_clean_linker_0, # of connection points: 2
#     Edge 25, Type (0, 0), BuildingBlock: MIFKUJ_clean_linker_0, # of connection points: 2
#     Edge 26, Type (0, 0), BuildingBlock: MIFKUJ_clean_linker_0, # of connection points: 2
#     Edge 27, Type (0, 0), BuildingBlock: MIFKUJ_clean_linker_0, # of connection points: 2
#     Edge 28, Type (0, 0), BuildingBlock: MIFKUJ_clean_linker_0, # of connection points: 2
#     Edge 29, Type (0, 0), BuildingBlock: MIFKUJ_clean_linker_0, # of connection points: 2
#     Edge 30, Type (0, 0), BuildingBlock: MIFKUJ_clean_linker_0, # of connection points: 2
#     Edge 31, Type (0, 0), BuildingBlock: MIFKUJ_clean_linker_0, # of connection points: 2
#     Edge 32, Type (0, 0), BuildingBlock: MIFKUJ_clean_linker_0, # of connection points: 2
#     Edge 33, Type (0, 0), BuildingBlock: MIFKUJ_clean_linker_0, # of connection points: 2
#     Edge 34, Type (0, 0), BuildingBlock: MIFKUJ_clean_linker_0, # of connection points: 2
#     Edge 35, Type (0, 0), BuildingBlock: MIFKUJ_clean_linker_0, # of connection points: 2
#     Edge 36, Type (0, 0), BuildingBlock: MIFKUJ_clean_linker_0, # of connection points: 2
#     Edge 37, Type (0, 0), BuildingBlock: MIFKUJ_clean_linker_0, # of connection points: 2
#     Edge 38, Type (0, 0), BuildingBlock: MIFKUJ_clean_linker_0, # of connection points: 2
#     Edge 39, Type (0, 0), BuildingBlock: MIFKUJ_clean_linker_0, # of connection points: 2
#     Edge 40, Type (0, 0), BuildingBlock: MIFKUJ_clean_linker_0, # of connection points: 2
#     Edge 41, Type (0, 0), BuildingBlock: MIFKUJ_clean_linker_0, # of connection points: 2
#     Edge 42, Type (0, 0), BuildingBlock: MIFKUJ_clean_linker_0, # of connection points: 2
#     Edge 43, Type (0, 0), BuildingBlock: MIFKUJ_clean_linker_0, # of connection points: 2
#     Edge 44, Type (0, 0), BuildingBlock: MIFKUJ_clean_linker_0, # of connection points: 2
#     Edge 45, Type (0, 0), BuildingBlock: MIFKUJ_clean_linker_0, # of connection points: 2
#     Edge 46, Type (0, 0), BuildingBlock: MIFKUJ_clean_linker_0, # of connection points: 2
#     Edge 47, Type (0, 0), BuildingBlock: MIFKUJ_clean_linker_0, # of connection points: 2
# Relax obj value: 0.120
# Max RMSD: 0.120
# Mean RMSD: 0.120
data_MOF--net-tzs--node1-UXUYUI_clean_sbu_0--edge1-MIFKUJ_clean_linker_0
_symmetry_space_group_name_H-M    P1
_symmetry_Int_Tables_number       1
_symmetry_cell_setting            triclinic
loop_
_symmetry_equiv_pos_as_xyz
'x, y, z'
_cell_length_a     84.413622
_cell_length_b     84.416909
_cell_length_c     72.737438
_cell_angle_alpha  89.989385
_cell_angle_beta   90.004996
_cell_angle_gamma 89.988692
loop_
_atom_site_label
_atom_site_type_symbol
_atom_site_fract_x
_atom_site_fract_y
_atom_site_fract_z
_atom_type_partial_charge
Li0 Li 0.155 0.34077 0.19049 0.0
Li1 Li 0.14957 0.36925 0.18959 0.0
Li2 Li 0.12864 0.34966 0.19011 0.0
Li3 Li 0.14524 0.35255 0.16254 0.0
C4 C 0.13615 0.35281 0.22533 0.0
N5 N 0.11802 0.35066 0.25691 0.0
C6 C 0.13404 0.36606 0.23659 0.0
C7 C 0.12935 0.33837 0.23043 0.0
C8 C 0.12477 0.36476 0.25242 0.0
C9 C 0.12012 0.33754 0.24634 0.0
C10 C 0.18067 0.36004 0.18065 0.0
C11 C 0.20814 0.36549 0.17411 0.0
N12 N 0.21129 0.36559 0.19245 0.0
C13 C 0.18419 0.36019 0.19945 0.0
C14 C 0.19274 0.36268 0.16787 0.0
C15 C 0.19974 0.36302 0.20513 0.0
C16 C 0.18055 0.31952 0.18769 0.0
N17 N 0.16942 0.32528 0.19942 0.0
C18 C 0.17956 0.30941 0.22391 0.0
C19 C 0.16877 0.32054 0.21725 0.0
C20 C 0.19119 0.30322 0.21211 0.0
C21 C 0.19159 0.3084 0.19376 0.0
H22 H 0.18086 0.32364 0.17361 0.0
H23 H 0.16001 0.32552 0.22638 0.0
C24 C 0.14189 0.39812 0.20497 0.0
N25 N 0.15433 0.39033 0.19731 0.0
C26 C 0.14374 0.41347 0.21167 0.0
C27 C 0.171 0.41294 0.20157 0.0
C28 C 0.16863 0.39754 0.1951 0.0
C29 C 0.15851 0.42101 0.21023 0.0
H30 H 0.13051 0.39229 0.206 0.0
H31 H 0.17822 0.39144 0.18834 0.0
C32 C 0.14212 0.31733 0.17259 0.0
N33 N 0.15228 0.2863 0.16942 0.0
C34 C 0.15048 0.31244 0.15701 0.0
C35 C 0.13873 0.30634 0.18644 0.0
C36 C 0.15556 0.29673 0.15568 0.0
C37 C 0.14404 0.29075 0.18462 0.0
C38 C 0.12986 0.38172 0.16312 0.0
C39 C 0.11546 0.38964 0.16084 0.0
C40 C 0.1435 0.38755 0.15457 0.0
C41 C 0.11493 0.40326 0.14995 0.0
C42 C 0.14247 0.4012 0.14379 0.0
N43 N 0.12833 0.40871 0.14172 0.0
C44 C 0.10031 0.35941 0.20616 0.0
C45 C 0.10045 0.33229 0.19767 0.0
C46 C 0.08524 0.35787 0.21378 0.0
N47 N 0.10763 0.34668 0.19855 0.0
C48 C 0.08534 0.33021 0.20512 0.0
C49 C 0.07761 0.34308 0.21347 0.0
H50 H 0.10634 0.37072 0.20658 0.0
H51 H 0.10656 0.32239 0.19147 0.0
C52 C 0.15954 0.3488 0.12784 0.0
N53 N 0.14573 0.35234 0.1365 0.0
C54 C 0.1602 0.34839 0.10868 0.0
C55 C 0.13254 0.35578 0.10775 0.0
C56 C 0.13235 0.35577 0.12693 0.0
C57 C 0.14658 0.35195 0.09831 0.0
H58 H 0.16996 0.34603 0.13586 0.0
H59 H 0.12154 0.35858 0.13422 0.0
O60 O 0.14498 0.35394 0.20956 0.0
O61 O 0.1656 0.35702 0.17466 0.0
O62 O 0.13738 0.33278 0.17432 0.0
O63 O 0.13053 0.36843 0.17386 0.0
H64 H 0.13962 0.37721 0.23328 0.0
H65 H 0.13097 0.32795 0.22204 0.0
H66 H 0.12298 0.37496 0.26118 0.0
H67 H 0.11462 0.32648 0.25027 0.0
H68 H 0.2176 0.36757 0.16436 0.0
H69 H 0.17505 0.35818 0.20959 0.0
H70 H 0.19023 0.36258 0.15328 0.0
H71 H 0.20262 0.36317 0.21962 0.0
H72 H 0.17901 0.30593 0.23822 0.0
H73 H 0.20028 0.30383 0.18417 0.0
H74 H 0.13368 0.41941 0.21785 0.0
H75 H 0.18256 0.41836 0.2001 0.0
H76 H 0.15315 0.32069 0.14611 0.0
H77 H 0.1322 0.30982 0.19854 0.0
H78 H 0.16213 0.29283 0.14374 0.0
H79 H 0.14161 0.28218 0.19532 0.0
H80 H 0.10482 0.3853 0.16744 0.0
H81 H 0.15477 0.38163 0.15622 0.0
H82 H 0.10386 0.40951 0.14805 0.0
H83 H 0.15293 0.40584 0.13708 0.0
H84 H 0.07961 0.36816 0.2198 0.0
H85 H 0.07994 0.31858 0.20471 0.0
H86 H 0.17122 0.34509 0.10211 0.0
H87 H 0.12181 0.35892 0.10044 0.0
Li88 Li 0.62755 0.14916 0.18887 0.0
Li89 Li 0.65493 0.15768 0.1902 0.0
Li90 Li 0.64441 0.14517 0.16201 0.0
Li91 Li 0.6492 0.12956 0.18976 0.0
C92 C 0.63367 0.18079 0.17842 0.0
N93 N 0.62536 0.21124 0.1885 0.0
C94 C 0.62946 0.18413 0.19658 0.0
C95 C 0.63359 0.19293 0.16535 0.0
C96 C 0.62531 0.19959 0.20142 0.0
C97 C 0.62937 0.20825 0.17073 0.0
C98 C 0.64887 0.14752 0.22588 0.0
C99 C 0.66997 0.14489 0.24802 0.0
N100 N 0.66091 0.15249 0.26072 0.0
C101 C 0.6397 0.15516 0.2392 0.0
C102 C 0.66407 0.14222 0.23035 0.0
C103 C 0.64603 0.15762 0.25672 0.0
C104 C 0.60222 0.14438 0.21243 0.0
N105 N 0.60665 0.15278 0.19737 0.0
C106 C 0.58145 0.16562 0.19617 0.0
C107 C 0.59663 0.16317 0.18907 0.0
C108 C 0.5766 0.15726 0.21191 0.0
C109 C 0.58718 0.14644 0.21998 0.0
H110 H 0.61042 0.13609 0.2186 0.0
H111 H 0.60046 0.16964 0.17703 0.0
C112 C 0.68291 0.17546 0.18927 0.0
N113 N 0.66933 0.1733 0.19897 0.0
C114 C 0.69415 0.18649 0.19513 0.0
C115 C 0.67703 0.19311 0.22064 0.0
C116 C 0.66616 0.18195 0.21431 0.0
C117 C 0.69128 0.19545 0.21106 0.0
H118 H 0.68503 0.16859 0.17697 0.0
H119 H 0.65524 0.18019 0.22172 0.0
C120 C 0.61664 0.12724 0.16353 0.0
N121 N 0.58949 0.12273 0.14297 0.0
C122 C 0.60938 0.11238 0.16302 0.0
C123 C 0.61009 0.13982 0.15359 0.0
C124 C 0.59566 0.11033 0.15254 0.0
C125 C 0.59637 0.1373 0.14328 0.0
C126 C 0.67835 0.13294 0.17186 0.0
C127 C 0.68038 0.1241 0.15579 0.0
C128 C 0.69048 0.1334 0.18493 0.0
C129 C 0.69437 0.11552 0.15328 0.0
C130 C 0.70429 0.12466 0.18192 0.0
N131 N 0.70593 0.11596 0.1663 0.0
C132 C 0.64903 0.15865 0.12718 0.0
C133 C 0.64236 0.13136 0.12667 0.0
C134 C 0.64966 0.15905 0.10801 0.0
N135 N 0.64535 0.14497 0.13603 0.0
C136 C 0.64289 0.13121 0.10749 0.0
C137 C 0.64653 0.1452 0.09792 0.0
H138 H 0.65152 0.16922 0.13504 0.0
H139 H 0.63955 0.12063 0.13411 0.0
C140 C 0.65048 0.10577 0.21661 0.0
N141 N 0.65474 0.1092 0.19903 0.0
C142 C 0.65367 0.09089 0.22405 0.0
C143 C 0.66525 0.08313 0.19504 0.0
C144 C 0.6618 0.09818 0.18814 0.0
C145 C 0.66116 0.07932 0.21324 0.0
H146 H 0.64428 0.11448 0.22477 0.0
H147 H 0.66448 0.10094 0.174 0.0
O148 O 0.6378 0.16574 0.17333 0.0
O149 O 0.64291 0.14513 0.20861 0.0
O150 O 0.63004 0.12939 0.1738 0.0
O151 O 0.66478 0.14152 0.17448 0.0
H152 H 0.62939 0.17489 0.20684 0.0
H153 H 0.63675 0.19055 0.15121 0.0
H154 H 0.62206 0.20233 0.21545 0.0
H155 H 0.62927 0.21777 0.16076 0.0
H156 H 0.68174 0.14089 0.25165 0.0
H157 H 0.62786 0.15924 0.23602 0.0
H158 H 0.67117 0.13601 0.22033 0.0
H159 H 0.6391 0.1636 0.26713 0.0
H160 H 0.57371 0.17413 0.1896 0.0
H161 H 0.58384 0.13952 0.23189 0.0
H162 H 0.70488 0.18809 0.18719 0.0
H163 H 0.67441 0.19966 0.23308 0.0
H164 H 0.61431 0.10253 0.17066 0.0
H165 H 0.61554 0.15141 0.15379 0.0
H166 H 0.58992 0.09889 0.15201 0.0
H167 H 0.59118 0.14692 0.13552 0.0
H168 H 0.6712 0.12374 0.14544 0.0
H169 H 0.68933 0.14054 0.19719 0.0
H170 H 0.69604 0.10852 0.14097 0.0
H171 H 0.71375 0.12486 0.19195 0.0
H172 H 0.65275 0.17002 0.10118 0.0
H173 H 0.64025 0.12032 0.10025 0.0
H174 H 0.64988 0.08834 0.23797 0.0
H175 H 0.671 0.07456 0.18619 0.0
Li176 Li 0.84126 0.65657 0.19252 0.0
Li177 Li 0.84957 0.62886 0.18942 0.0
Li178 Li 0.86988 0.65069 0.1905 0.0
Li179 Li 0.85323 0.64616 0.1635 0.0
C180 C 0.85353 0.6474 0.22782 0.0
N181 N 0.85186 0.65436 0.26491 0.0
C182 C 0.8449 0.63764 0.23969 0.0
C183 C 0.86155 0.66054 0.23491 0.0
C184 C 0.84412 0.64141 0.25837 0.0
C185 C 0.8605 0.6639 0.25367 0.0
C186 C 0.82044 0.62989 0.17528 0.0
C187 C 0.80846 0.60552 0.16498 0.0
N188 N 0.79555 0.60865 0.17557 0.0
C189 C 0.80702 0.63292 0.18595 0.0
C190 C 0.82114 0.61615 0.16459 0.0
C191 C 0.79457 0.62202 0.18594 0.0
C192 C 0.82237 0.68381 0.19254 0.0
N193 N 0.82593 0.67063 0.20244 0.0
C194 C 0.80771 0.67818 0.22599 0.0
C195 C 0.81871 0.66753 0.21875 0.0
C196 C 0.80402 0.69206 0.21623 0.0
C197 C 0.81143 0.69477 0.19924 0.0
H198 H 0.82813 0.68586 0.17947 0.0
H199 H 0.82131 0.65673 0.22605 0.0
C200 C 0.85735 0.59693 0.19388 0.0
N201 N 0.84582 0.60774 0.19742 0.0
C202 C 0.85595 0.58145 0.20034 0.0
C203 C 0.83065 0.58837 0.2137 0.0
C204 C 0.83263 0.6038 0.20715 0.0
C205 C 0.84251 0.57705 0.2105 0.0
H206 H 0.86781 0.60042 0.18634 0.0
H207 H 0.82381 0.61269 0.21015 0.0
C208 C 0.86328 0.68162 0.17775 0.0
N209 N 0.87489 0.71211 0.18077 0.0
C210 C 0.87041 0.68895 0.16264 0.0
C211 C 0.86185 0.68988 0.19431 0.0
C212 C 0.87627 0.70435 0.16447 0.0
C213 C 0.86784 0.70527 0.19559 0.0
C214 C 0.8773 0.62628 0.15966 0.0
C215 C 0.89221 0.63254 0.15556 0.0
C216 C 0.87073 0.61468 0.14827 0.0
C217 C 0.90023 0.62724 0.13992 0.0
C218 C 0.87911 0.60972 0.13274 0.0
N219 N 0.89355 0.61605 0.12891 0.0
C220 C 0.89529 0.64689 0.21415 0.0
C221 C 0.89973 0.66709 0.19211 0.0
C222 C 0.91018 0.64945 0.22188 0.0
N223 N 0.89032 0.65575 0.19967 0.0
C224 C 0.91475 0.67006 0.19941 0.0
C225 C 0.92013 0.66119 0.21453 0.0
H226 H 0.88767 0.63774 0.21964 0.0
H227 H 0.8957 0.6737 0.18031 0.0
C228 C 0.83949 0.64283 0.12836 0.0
N229 N 0.85276 0.64749 0.13744 0.0
C230 C 0.83899 0.64323 0.10919 0.0
C231 C 0.86576 0.65341 0.10909 0.0
C232 C 0.8657 0.65291 0.12826 0.0
C233 C 0.85229 0.64847 0.09931 0.0
H234 H 0.82932 0.63873 0.13599 0.0
H235 H 0.87603 0.65671 0.13584 0.0
O236 O 0.85448 0.6438 0.2095 0.0
O237 O 0.83278 0.6404 0.17517 0.0
O238 O 0.85751 0.66652 0.17617 0.0
O239 O 0.86916 0.6315 0.17474 0.0
H240 H 0.83875 0.62734 0.23452 0.0
H241 H 0.86869 0.66796 0.2261 0.0
H242 H 0.83737 0.63403 0.26766 0.0
H243 H 0.86663 0.67405 0.25931 0.0
H244 H 0.80888 0.59479 0.15688 0.0
H245 H 0.80623 0.64355 0.19419 0.0
H246 H 0.83141 0.61366 0.15619 0.0
H247 H 0.78413 0.62418 0.1942 0.0
H248 H 0.80201 0.67548 0.23895 0.0
H249 H 0.809 0.70537 0.19133 0.0
H250 H 0.8653 0.57301 0.1975 0.0
H251 H 0.82022 0.58547 0.2217 0.0
H252 H 0.87148 0.68281 0.14966 0.0
H253 H 0.856 0.68458 0.20598 0.0
H254 H 0.88191 0.71013 0.15292 0.0
H255 H 0.86682 0.71178 0.20834 0.0
H256 H 0.89748 0.64149 0.16427 0.0
H257 H 0.85926 0.60965 0.15133 0.0
H258 H 0.91173 0.63204 0.13651 0.0
H259 H 0.87412 0.60083 0.12372 0.0
H260 H 0.91397 0.6421 0.23326 0.0
H261 H 0.92203 0.67923 0.19333 0.0
H262 H 0.82841 0.63921 0.10217 0.0
H263 H 0.87619 0.65772 0.102 0.0
Li264 Li 0.37017 0.84971 0.18833 0.0
Li265 Li 0.3423 0.84255 0.19081 0.0
Li266 Li 0.35304 0.85468 0.16172 0.0
Li267 Li 0.34887 0.87066 0.18963 0.0
C268 C 0.36858 0.82197 0.16945 0.0
N269 N 0.38961 0.79779 0.16164 0.0
C270 C 0.36825 0.80795 0.17966 0.0
C271 C 0.37943 0.82358 0.15506 0.0
C272 C 0.37903 0.7959 0.17557 0.0
C273 C 0.39001 0.81126 0.15138 0.0
C274 C 0.34978 0.85114 0.22571 0.0
C275 C 0.32956 0.8527 0.24907 0.0
N276 N 0.33846 0.84327 0.26017 0.0
C277 C 0.35882 0.84163 0.23744 0.0
C278 C 0.33512 0.85687 0.23164 0.0
C279 C 0.35286 0.83772 0.25477 0.0
C280 C 0.40282 0.85509 0.19279 0.0
N281 N 0.39105 0.84451 0.19614 0.0
C282 C 0.40907 0.82741 0.21194 0.0
C283 C 0.39385 0.83087 0.20555 0.0
C284 C 0.42148 0.83808 0.20852 0.0
C285 C 0.41822 0.85204 0.19874 0.0
H286 H 0.40022 0.86608 0.18584 0.0
H287 H 0.38422 0.82281 0.20839 0.0
C288 C 0.31274 0.82749 0.1942 0.0
N289 N 0.32791 0.82744 0.20045 0.0
C290 C 0.30175 0.81668 0.20111 0.0
C291 C 0.32227 0.80581 0.22058 0.0
C292 C 0.33287 0.81679 0.21323 0.0
C293 C 0.30647 0.80569 0.21454 0.0
H294 H 0.30917 0.83593 0.18382 0.0
H295 H 0.34508 0.81677 0.21766 0.0
C296 C 0.37631 0.87817 0.1611 0.0
N297 N 0.39286 0.89547 0.13517 0.0
C298 C 0.37316 0.89429 0.15871 0.0
C299 C 0.38804 0.8709 0.15047 0.0
C300 C 0.38161 0.90282 0.14549 0.0
C301 C 0.39623 0.87983 0.13739 0.0
C302 C 0.31985 0.86864 0.17236 0.0
C303 C 0.31753 0.87653 0.15568 0.0
C304 C 0.30876 0.8704 0.18648 0.0
C305 C 0.30431 0.88633 0.15355 0.0
C306 C 0.29571 0.88032 0.18383 0.0
N307 N 0.29378 0.88803 0.16756 0.0
C308 C 0.3487 0.84 0.1275 0.0
C309 C 0.3535 0.86758 0.12538 0.0
C310 C 0.34762 0.83882 0.10839 0.0
N311 N 0.35174 0.8542 0.13557 0.0
C312 C 0.3527 0.86692 0.10625 0.0
C313 C 0.34972 0.85239 0.09746 0.0
H314 H 0.34704 0.82959 0.13594 0.0
H315 H 0.35538 0.87883 0.13205 0.0
C316 C 0.34838 0.8943 0.21662 0.0
N317 N 0.34388 0.89112 0.19906 0.0
C318 C 0.3454 0.90912 0.22435 0.0
C319 C 0.33338 0.91726 0.19571 0.0
C320 C 0.33663 0.90227 0.18852 0.0
C321 C 0.3378 0.92085 0.21386 0.0
H322 H 0.3545 0.88538 0.22456 0.0
H323 H 0.33362 0.89968 0.17443 0.0
O324 O 0.35819 0.83394 0.17335 0.0
O325 O 0.35532 0.85492 0.20858 0.0
O326 O 0.36807 0.86963 0.17392 0.0
O327 O 0.33274 0.859 0.17468 0.0
H328 H 0.35983 0.80643 0.19072 0.0
H329 H 0.3796 0.83417 0.14673 0.0
H330 H 0.37898 0.78504 0.18346 0.0
H331 H 0.3985 0.81238 0.14032 0.0
H332 H 0.31819 0.85699 0.25379 0.0
H333 H 0.37027 0.83724 0.23318 0.0
H334 H 0.32814 0.8645 0.22291 0.0
H335 H 0.35968 0.83028 0.26394 0.0
H336 H 0.41112 0.81653 0.21947 0.0
H337 H 0.42739 0.86074 0.19618 0.0
H338 H 0.28966 0.81705 0.19616 0.0
H339 H 0.32645 0.79735 0.23068 0.0
H340 H 0.36425 0.90016 0.16691 0.0
H341 H 0.39086 0.85853 0.15237 0.0
H342 H 0.37923 0.91529 0.14343 0.0
H343 H 0.40529 0.87433 0.12903 0.0
H344 H 0.32587 0.87521 0.14454 0.0
H345 H 0.31014 0.86411 0.19931 0.0
H346 H 0.30244 0.8926 0.14076 0.0
H347 H 0.28708 0.88184 0.19468 0.0
H348 H 0.34499 0.82742 0.1023 0.0
H349 H 0.35456 0.87769 0.09846 0.0
H350 H 0.34936 0.91147 0.23824 0.0
H351 H 0.32748 0.92593 0.18713 0.0
Li352 Li 0.12896 0.64984 0.30891 0.0
Li353 Li 0.14528 0.64473 0.33612 0.0
Li354 Li 0.15742 0.65639 0.30764 0.0
Li355 Li 0.14981 0.62841 0.30933 0.0
C356 C 0.13395 0.68006 0.32407 0.0
N357 N 0.12 0.70969 0.32397 0.0
C358 C 0.12632 0.68572 0.33982 0.0
C359 C 0.1347 0.68959 0.30839 0.0
C360 C 0.11927 0.70069 0.33946 0.0
C361 C 0.12753 0.7045 0.30858 0.0
C362 C 0.12177 0.62345 0.33806 0.0
C363 C 0.12025 0.60498 0.3633 0.0
N364 N 0.10535 0.61018 0.36709 0.0
C365 C 0.10639 0.6285 0.34208 0.0
C366 C 0.12871 0.61149 0.34862 0.0
C367 C 0.0983 0.62168 0.35685 0.0
C368 C 0.10401 0.64858 0.28372 0.0
N369 N 0.10846 0.6551 0.29999 0.0
C370 C 0.08321 0.6676 0.30322 0.0
C371 C 0.09841 0.6644 0.30983 0.0
C372 C 0.0783 0.66105 0.2864 0.0
C373 C 0.08895 0.65147 0.27659 0.0
H374 H 0.11211 0.64092 0.2764 0.0
H375 H 0.10203 0.66906 0.32298 0.0
C376 C 0.15914 0.64214 0.37127 0.0
N377 N 0.14539 0.64524 0.36224 0.0
C378 C 0.15958 0.64231 0.39045 0.0
C379 C 0.13173 0.64898 0.39067 0.0
C380 C 0.13186 0.64879 0.37149 0.0
C381 C 0.14572 0.6457 0.40038 0.0
H382 H 0.16978 0.63956 0.36359 0.0
H383 H 0.12116 0.65152 0.36397 0.0
C384 C 0.14667 0.64841 0.27186 0.0
N385 N 0.15057 0.65733 0.23558 0.0
C386 C 0.15587 0.63918 0.26 0.0
C387 C 0.13921 0.66201 0.26515 0.0
C388 C 0.15777 0.64394 0.24174 0.0
C389 C 0.14138 0.66637 0.2468 0.0
C390 C 0.17865 0.62977 0.32506 0.0
C391 C 0.19238 0.63318 0.31508 0.0
C392 C 0.17798 0.61605 0.3358 0.0
C393 C 0.20514 0.62266 0.31578 0.0
C394 C 0.19099 0.60582 0.33612 0.0
N395 N 0.20418 0.6093 0.32617 0.0
C396 C 0.17485 0.68475 0.30795 0.0
C397 C 0.181 0.66769 0.28308 0.0
C398 C 0.18571 0.69596 0.30164 0.0
N399 N 0.17256 0.67105 0.2985 0.0
C400 C 0.19197 0.67856 0.27626 0.0
C401 C 0.19437 0.69296 0.28552 0.0
H402 H 0.16821 0.68699 0.32038 0.0
H403 H 0.17943 0.65647 0.27622 0.0
C404 C 0.14327 0.59633 0.30316 0.0
N405 N 0.15447 0.60767 0.30064 0.0
C406 C 0.14568 0.58102 0.29651 0.0
C407 C 0.17118 0.5893 0.28485 0.0
C408 C 0.1682 0.6045 0.2916 0.0
C409 C 0.15979 0.57732 0.28718 0.0
H410 H 0.13231 0.59924 0.31006 0.0
H411 H 0.17678 0.6138 0.28942 0.0
O412 O 0.14085 0.66539 0.32418 0.0
O413 O 0.12994 0.63011 0.32378 0.0
O414 O 0.14468 0.64389 0.28979 0.0
O415 O 0.166 0.63989 0.32446 0.0
H416 H 0.12577 0.6786 0.35215 0.0
H417 H 0.14093 0.68561 0.29628 0.0
H418 H 0.11324 0.70517 0.35151 0.0
H419 H 0.128 0.71197 0.2965 0.0
H420 H 0.12552 0.59578 0.37166 0.0
H421 H 0.10079 0.63766 0.33398 0.0
H422 H 0.14051 0.60729 0.34555 0.0
H423 H 0.08642 0.62554 0.3602 0.0
H424 H 0.07539 0.67507 0.31122 0.0
H425 H 0.08555 0.64589 0.26377 0.0
H426 H 0.1706 0.63963 0.39743 0.0
H427 H 0.12085 0.65189 0.39781 0.0
H428 H 0.16159 0.62852 0.26488 0.0
H429 H 0.13164 0.66903 0.27393 0.0
H430 H 0.16497 0.63697 0.23246 0.0
H431 H 0.13571 0.6769 0.24146 0.0
H432 H 0.19317 0.64381 0.30685 0.0
H433 H 0.16753 0.61332 0.34376 0.0
H434 H 0.21581 0.62511 0.30805 0.0
H435 H 0.19059 0.59511 0.34428 0.0
H436 H 0.18716 0.70694 0.30916 0.0
H437 H 0.19867 0.67561 0.26403 0.0
H438 H 0.1364 0.5723 0.29828 0.0
H439 H 0.18227 0.587 0.27788 0.0
Li440 Li 0.34818 0.12852 0.31136 0.0
Li441 Li 0.35266 0.14568 0.33797 0.0
Li442 Li 0.34175 0.15699 0.30864 0.0
Li443 Li 0.3695 0.14914 0.31171 0.0
C444 C 0.31708 0.13538 0.32566 0.0
N445 N 0.28624 0.12436 0.32621 0.0
C446 C 0.31102 0.12812 0.34144 0.0
C447 C 0.30733 0.13729 0.31028 0.0
C448 C 0.29544 0.12255 0.34141 0.0
C449 C 0.29181 0.13158 0.31079 0.0
C450 C 0.37288 0.12168 0.3419 0.0
C451 C 0.3889 0.12028 0.36931 0.0
N452 N 0.38344 0.10537 0.37247 0.0
C453 C 0.36751 0.1063 0.34534 0.0
C454 C 0.38375 0.1287 0.35389 0.0
C455 C 0.37297 0.09826 0.3609 0.0
C456 C 0.35267 0.10221 0.2892 0.0
N457 N 0.34329 0.1078 0.30292 0.0
C458 C 0.32849 0.08368 0.30335 0.0
C459 C 0.33144 0.09886 0.31016 0.0
C460 C 0.3379 0.07764 0.28903 0.0
C461 C 0.35015 0.08713 0.28198 0.0
H462 H 0.36215 0.10952 0.2839 0.0
H463 H 0.32435 0.1034 0.32131 0.0
C464 C 0.35512 0.16034 0.37275 0.0
N465 N 0.3515 0.14657 0.36405 0.0
C466 C 0.35486 0.16114 0.39193 0.0
C467 C 0.34705 0.13359 0.39277 0.0
C468 C 0.34732 0.13338 0.3736 0.0
C469 C 0.35092 0.14759 0.40216 0.0
H470 H 0.3583 0.17069 0.36482 0.0
H471 H 0.34435 0.12262 0.36633 0.0
C472 C 0.3496 0.14256 0.27388 0.0
N473 N 0.3398 0.14009 0.23772 0.0
C474 C 0.35876 0.14906 0.25976 0.0
C475 C 0.33558 0.13458 0.26955 0.0
C476 C 0.35356 0.14776 0.24158 0.0
C477 C 0.33079 0.1335 0.25122 0.0
C478 C 0.36851 0.1782 0.32458 0.0
C479 C 0.36589 0.19071 0.31237 0.0
C480 C 0.38207 0.17817 0.33561 0.0
C481 C 0.37702 0.20292 0.31123 0.0
C482 C 0.39293 0.19058 0.33404 0.0
N483 N 0.39021 0.20259 0.32197 0.0
C484 C 0.31529 0.17689 0.30935 0.0
C485 C 0.3294 0.17762 0.2812 0.0
C486 C 0.30421 0.18771 0.30263 0.0
N487 N 0.32745 0.17196 0.29854 0.0
C488 C 0.31858 0.18841 0.27389 0.0
C489 C 0.30572 0.19354 0.28462 0.0
H490 H 0.31418 0.17235 0.3232 0.0
H491 H 0.33938 0.17383 0.27304 0.0
C492 C 0.40256 0.14486 0.30986 0.0
N493 N 0.39032 0.15369 0.30336 0.0
C494 C 0.41791 0.14747 0.30346 0.0
C495 C 0.4078 0.16824 0.28379 0.0
C496 C 0.39263 0.16523 0.29061 0.0
C497 C 0.42067 0.15922 0.29015 0.0
H498 H 0.40036 0.1356 0.31977 0.0
H499 H 0.38266 0.17202 0.28561 0.0
O500 O 0.33231 0.14097 0.32553 0.0
O501 O 0.36752 0.1298 0.32686 0.0
O502 O 0.35457 0.14372 0.29175 0.0
O503 O 0.35786 0.16603 0.3257 0.0
H504 H 0.31828 0.12671 0.35356 0.0
H505 H 0.31159 0.14328 0.29814 0.0
H506 H 0.29065 0.11681 0.35349 0.0
H507 H 0.28416 0.13295 0.29896 0.0
H508 H 0.39721 0.12561 0.37878 0.0
H509 H 0.35914 0.10066 0.33618 0.0
H510 H 0.38803 0.14058 0.35142 0.0
H511 H 0.36886 0.08638 0.36379 0.0
H512 H 0.31888 0.0768 0.30914 0.0
H513 H 0.35791 0.08285 0.27121 0.0
H514 H 0.35801 0.17214 0.39867 0.0
H515 H 0.34374 0.12296 0.40016 0.0
H516 H 0.36974 0.15511 0.26278 0.0
H517 H 0.32858 0.12906 0.28018 0.0
H518 H 0.36049 0.15283 0.23054 0.0
H519 H 0.31996 0.12737 0.2477 0.0
H520 H 0.35544 0.19094 0.30377 0.0
H521 H 0.38424 0.16859 0.34516 0.0
H522 H 0.3752 0.21264 0.30176 0.0
H523 H 0.40353 0.19065 0.34239 0.0
H524 H 0.29467 0.19156 0.31152 0.0
H525 H 0.32017 0.19251 0.25991 0.0
H526 H 0.42744 0.14006 0.3085 0.0
H527 H 0.40942 0.17749 0.27366 0.0
Li528 Li 0.86924 0.34765 0.31015 0.0
Li529 Li 0.85335 0.35239 0.33774 0.0
Li530 Li 0.84163 0.34116 0.3089 0.0
Li531 Li 0.84875 0.36917 0.31038 0.0
C532 C 0.86892 0.32012 0.32722 0.0
N533 N 0.89188 0.29696 0.33048 0.0
C534 C 0.87685 0.31797 0.3439 0.0
C535 C 0.87253 0.31037 0.31226 0.0
C536 C 0.88845 0.30621 0.34526 0.0
C537 C 0.88422 0.29877 0.31416 0.0
C538 C 0.87492 0.3788 0.33579 0.0
C539 C 0.87284 0.40371 0.35187 0.0
N540 N 0.88842 0.40273 0.35648 0.0
C541 C 0.89097 0.37816 0.34048 0.0
C542 C 0.86582 0.39177 0.34136 0.0
C543 C 0.89755 0.39032 0.35103 0.0
C544 C 0.89282 0.34274 0.28337 0.0
N545 N 0.88995 0.34265 0.30174 0.0
C546 C 0.91717 0.33721 0.30811 0.0
C547 C 0.9017 0.33988 0.31411 0.0
C548 C 0.92058 0.33753 0.2892 0.0
C549 C 0.90813 0.34016 0.27676 0.0
H550 H 0.88331 0.34521 0.27385 0.0
H551 H 0.8991 0.34 0.32865 0.0
C552 C 0.83945 0.34735 0.37232 0.0
N553 N 0.85312 0.35167 0.36381 0.0
C554 C 0.83869 0.34672 0.39147 0.0
C555 C 0.86621 0.35457 0.39272 0.0
C556 C 0.86642 0.35508 0.37355 0.0
C557 C 0.85219 0.3504 0.40193 0.0
H558 H 0.82913 0.3444 0.3642 0.0
H559 H 0.87725 0.35805 0.36646 0.0
C560 C 0.84712 0.3498 0.27436 0.0
N561 N 0.8327 0.3416 0.24161 0.0
C562 C 0.83674 0.36036 0.26575 0.0
C563 C 0.85031 0.33514 0.26621 0.0
C564 C 0.82955 0.35598 0.24922 0.0
C565 C 0.84285 0.33119 0.24969 0.0
C566 C 0.82083 0.36671 0.33254 0.0
C567 C 0.80551 0.36541 0.3254 0.0
C568 C 0.82371 0.37707 0.34716 0.0
C569 C 0.7934 0.37474 0.33276 0.0
C570 C 0.81128 0.38619 0.35414 0.0
N571 N 0.79651 0.38486 0.34684 0.0
C572 C 0.82816 0.31102 0.3028 0.0
C573 C 0.81413 0.33237 0.28928 0.0
C574 C 0.81733 0.30017 0.29563 0.0
N575 N 0.82643 0.32675 0.29942 0.0
C576 C 0.80305 0.32195 0.2818 0.0
C577 C 0.80459 0.3056 0.28491 0.0
H578 H 0.83794 0.30689 0.31111 0.0
H579 H 0.81301 0.34494 0.28684 0.0
C580 C 0.85771 0.39753 0.29488 0.0
N581 N 0.84476 0.38999 0.30166 0.0
C582 C 0.85645 0.41287 0.28796 0.0
C583 C 0.82846 0.41241 0.29497 0.0
C584 C 0.83027 0.39702 0.30171 0.0
C585 C 0.84168 0.42057 0.28802 0.0
H586 H 0.86905 0.39155 0.29482 0.0
H587 H 0.82008 0.39072 0.30685 0.0
O588 O 0.85765 0.33168 0.32556 0.0
O589 O 0.86834 0.367 0.32537 0.0
O590 O 0.85412 0.3538 0.29066 0.0
O591 O 0.83281 0.35761 0.32549 0.0
H592 H 0.87414 0.32534 0.35564 0.0
H593 H 0.86647 0.31185 0.29927 0.0
H594 H 0.89474 0.30447 0.35806 0.0
H595 H 0.88722 0.29123 0.30266 0.0
H596 H 0.86591 0.4138 0.35629 0.0
H597 H 0.89827 0.36833 0.33612 0.0
H598 H 0.85354 0.39277 0.33743 0.0
H599 H 0.90993 0.3899 0.35486 0.0
H600 H 0.92638 0.33508 0.31818 0.0
H601 H 0.91026 0.34078 0.26209 0.0
H602 H 0.82772 0.34318 0.398 0.0
H603 H 0.87687 0.35756 0.40023 0.0
H604 H 0.83416 0.37176 0.27184 0.0
H605 H 0.85835 0.32686 0.27266 0.0
H606 H 0.82142 0.364 0.24245 0.0
H607 H 0.84511 0.31985 0.2433 0.0
H608 H 0.80299 0.35733 0.31426 0.0
H609 H 0.83535 0.37794 0.35322 0.0
H610 H 0.78151 0.37391 0.32728 0.0
H611 H 0.81337 0.39427 0.36543 0.0
H612 H 0.81883 0.28769 0.29863 0.0
H613 H 0.79352 0.32664 0.27344 0.0
H614 H 0.8669 0.41855 0.28238 0.0
H615 H 0.81687 0.41791 0.29537 0.0
Li616 Li 0.64843 0.87115 0.30843 0.0
Li617 Li 0.64511 0.85313 0.33536 0.0
Li618 Li 0.65581 0.84355 0.30722 0.0
Li619 Li 0.62812 0.84982 0.30873 0.0
C620 C 0.68025 0.8558 0.32366 0.0
N621 N 0.71122 0.84528 0.32337 0.0
C622 C 0.68552 0.84523 0.33711 0.0
C623 C 0.69074 0.86116 0.31016 0.0
C624 C 0.70122 0.84002 0.33671 0.0
C625 C 0.70635 0.85566 0.31023 0.0
C626 C 0.61632 0.86988 0.33564 0.0
C627 C 0.5968 0.85798 0.35551 0.0
N628 N 0.58941 0.87223 0.35707 0.0
C629 C 0.60855 0.88441 0.33743 0.0
C630 C 0.61042 0.85654 0.34473 0.0
C631 C 0.59496 0.88536 0.34834 0.0
C632 C 0.64212 0.89844 0.28819 0.0
N633 N 0.65239 0.89203 0.30049 0.0
C634 C 0.66826 0.91543 0.30016 0.0
C635 C 0.66524 0.90014 0.30662 0.0
C636 C 0.65796 0.92232 0.28725 0.0
C637 C 0.64471 0.91363 0.28131 0.0
H638 H 0.63199 0.89164 0.28363 0.0
H639 H 0.6732 0.89468 0.31641 0.0
C640 C 0.64534 0.83837 0.37011 0.0
N641 N 0.64603 0.85251 0.36125 0.0
C642 C 0.64579 0.83782 0.38928 0.0
C643 C 0.64785 0.86641 0.38974 0.0
C644 C 0.64729 0.8664 0.37056 0.0
C645 C 0.64706 0.85198 0.39933 0.0
H646 H 0.64446 0.82753 0.36228 0.0
H647 H 0.64776 0.87745 0.36306 0.0
C648 C 0.64694 0.85697 0.27111 0.0
N649 N 0.65407 0.86009 0.2342 0.0
C650 C 0.63818 0.84869 0.25794 0.0
C651 C 0.65922 0.86698 0.26548 0.0
C652 C 0.642 0.85038 0.23935 0.0
C653 C 0.66267 0.86836 0.24676 0.0
C654 C 0.63524 0.81859 0.31598 0.0
C655 C 0.63517 0.81598 0.297 0.0
C656 C 0.63085 0.80633 0.32786 0.0
C657 C 0.63074 0.80116 0.29022 0.0
C658 C 0.62648 0.79167 0.32054 0.0
N659 N 0.62652 0.7894 0.30203 0.0
C660 C 0.67446 0.81598 0.3083 0.0
C661 C 0.67862 0.83129 0.28145 0.0
C662 C 0.68545 0.80474 0.30237 0.0
N663 N 0.67114 0.82887 0.29776 0.0
C664 C 0.68967 0.82035 0.27497 0.0
C665 C 0.69314 0.80682 0.28543 0.0
H666 H 0.66858 0.81445 0.32139 0.0
H667 H 0.67622 0.84175 0.27351 0.0
C668 C 0.60231 0.85438 0.28579 0.0
N669 N 0.60747 0.84531 0.29999 0.0
C670 C 0.58739 0.85179 0.27817 0.0
C671 C 0.58323 0.83071 0.30016 0.0
C672 C 0.59826 0.83372 0.30738 0.0
C673 C 0.57765 0.83975 0.28528 0.0
H674 H 0.60985 0.86364 0.28038 0.0
H675 H 0.60258 0.8268 0.31883 0.0
O676 O 0.6648 0.86064 0.3235 0.0
O677 O 0.62962 0.8688 0.32496 0.0
O678 O 0.64306 0.85576 0.28934 0.0
O679 O 0.63942 0.83304 0.32302 0.0
H680 H 0.6775 0.84093 0.34761 0.0
H681 H 0.68682 0.86933 0.29964 0.0
H682 H 0.70545 0.83174 0.34695 0.0
H683 H 0.71458 0.85961 0.29979 0.0
H684 H 0.5921 0.84775 0.36262 0.0
H685 H 0.61298 0.89484 0.33045 0.0
H686 H 0.61626 0.84519 0.34349 0.0
H687 H 0.58881 0.89653 0.34985 0.0
H688 H 0.67866 0.92169 0.30498 0.0
H689 H 0.63636 0.91859 0.27157 0.0
H690 H 0.64534 0.82645 0.39615 0.0
H691 H 0.64865 0.87759 0.39698 0.0
H692 H 0.62848 0.84107 0.26199 0.0
H693 H 0.66618 0.87344 0.27544 0.0
H694 H 0.63535 0.84401 0.22902 0.0
H695 H 0.6722 0.87598 0.24224 0.0
H696 H 0.63857 0.82525 0.2876 0.0
H697 H 0.63074 0.80815 0.34258 0.0
H698 H 0.63067 0.79899 0.27556 0.0
H699 H 0.62304 0.78209 0.32958 0.0
H700 H 0.68772 0.79443 0.31084 0.0
H701 H 0.69558 0.82259 0.26201 0.0
H702 H 0.58345 0.85927 0.26697 0.0
H703 H 0.57614 0.82128 0.30602 0.0
Li704 Li 0.84875 0.62882 0.81018 0.0
Li705 Li 0.85318 0.64436 0.83737 0.0
Li706 Li 0.84188 0.65628 0.81036 0.0
Li707 Li 0.86923 0.64878 0.81061 0.0
C708 C 0.82468 0.6284 0.83638 0.0
N709 N 0.80902 0.60654 0.85805 0.0
C710 C 0.83261 0.61493 0.84276 0.0
C711 C 0.80879 0.63073 0.84102 0.0
C712 C 0.82448 0.60402 0.8537 0.0
C713 C 0.80107 0.61955 0.85198 0.0
C714 C 0.88172 0.62755 0.8354 0.0
C715 C 0.90199 0.63832 0.85514 0.0
N716 N 0.90953 0.62407 0.85503 0.0
C717 C 0.88966 0.61303 0.83547 0.0
C718 C 0.88793 0.64032 0.8453 0.0
C719 C 0.9037 0.6115 0.84549 0.0
C720 C 0.85717 0.60147 0.79229 0.0
N721 N 0.84442 0.60858 0.80009 0.0
C722 C 0.82787 0.58669 0.79204 0.0
C723 C 0.82987 0.60166 0.79992 0.0
C724 C 0.84091 0.57895 0.78399 0.0
C725 C 0.85567 0.58666 0.78405 0.0
H726 H 0.86852 0.60743 0.79237 0.0
H727 H 0.81983 0.60772 0.80589 0.0
C728 C 0.84743 0.65764 0.87201 0.0
N729 N 0.85277 0.64435 0.86347 0.0
C730 C 0.84698 0.6584 0.89117 0.0
C731 C 0.85746 0.63175 0.89236 0.0
C732 C 0.85765 0.63149 0.87319 0.0
C733 C 0.85212 0.64535 0.90159 0.0
H734 H 0.84358 0.66766 0.86388 0.0
H735 H 0.86172 0.62101 0.86608 0.0
C736 C 0.84413 0.64203 0.77604 0.0
N737 N 0.82513 0.63654 0.74577 0.0
C738 C 0.85055 0.64265 0.75835 0.0
C739 C 0.82804 0.63861 0.77834 0.0
C740 C 0.84074 0.63984 0.74322 0.0
C741 C 0.81864 0.63588 0.76287 0.0
C742 C 0.86266 0.68003 0.8206 0.0
C743 C 0.86611 0.68301 0.80212 0.0
C744 C 0.86299 0.69248 0.83325 0.0
C745 C 0.86981 0.69842 0.79661 0.0
C746 C 0.86675 0.70773 0.8272 0.0
N747 N 0.87005 0.71036 0.80915 0.0
C748 C 0.81457 0.67522 0.8126 0.0
C749 C 0.82956 0.67883 0.78534 0.0
C750 C 0.80355 0.68651 0.80682 0.0
N751 N 0.82723 0.67163 0.80184 0.0
C752 C 0.8189 0.69022 0.77907 0.0
C753 C 0.80569 0.69419 0.78986 0.0
H754 H 0.81309 0.66933 0.8257 0.0
H755 H 0.83968 0.67572 0.777 0.0
C756 C 0.89443 0.64384 0.78712 0.0
N757 N 0.88993 0.65277 0.80173 0.0
C758 C 0.9097 0.64517 0.78003 0.0
C759 C 0.9154 0.66504 0.80306 0.0
C760 C 0.89999 0.66328 0.80975 0.0
C761 C 0.92045 0.65578 0.78811 0.0
H762 H 0.88615 0.63553 0.78112 0.0
H763 H 0.89614 0.67011 0.82151 0.0
O764 O 0.83234 0.63937 0.82575 0.0
O765 O 0.86803 0.62918 0.82552 0.0
O766 O 0.85367 0.64471 0.79093 0.0
O767 O 0.85892 0.66507 0.82641 0.0
H768 H 0.84487 0.61284 0.83926 0.0
H769 H 0.80248 0.6411 0.83619 0.0
H770 H 0.83048 0.59355 0.85872 0.0
H771 H 0.78877 0.62121 0.85568 0.0
H772 H 0.90693 0.6481 0.86286 0.0
H773 H 0.88502 0.60305 0.82783 0.0
H774 H 0.88197 0.65166 0.84541 0.0
H775 H 0.90998 0.60033 0.84566 0.0
H776 H 0.81629 0.58121 0.79246 0.0
H777 H 0.86598 0.58141 0.77761 0.0
H778 H 0.84291 0.66916 0.89775 0.0
H779 H 0.86131 0.62136 0.89987 0.0
H780 H 0.86298 0.64527 0.75634 0.0
H781 H 0.82283 0.63809 0.7919 0.0
H782 H 0.84555 0.64029 0.72944 0.0
H783 H 0.80618 0.63322 0.76445 0.0
H784 H 0.86596 0.67355 0.79211 0.0
H785 H 0.86036 0.69037 0.84761 0.0
H786 H 0.87249 0.70088 0.78235 0.0
H787 H 0.86704 0.71747 0.83685 0.0
H788 H 0.79359 0.68934 0.81561 0.0
H789 H 0.82086 0.69571 0.76581 0.0
H790 H 0.91306 0.63795 0.76835 0.0
H791 H 0.92339 0.67323 0.80979 0.0
Li792 Li 0.37058 0.84975 0.80862 0.0
Li793 Li 0.35337 0.85268 0.8355 0.0
Li794 Li 0.34423 0.84083 0.80745 0.0
Li795 Li 0.34974 0.86934 0.80836 0.0
C796 C 0.35647 0.81759 0.82601 0.0
N797 N 0.34572 0.78681 0.82947 0.0
C798 C 0.34748 0.81315 0.8413 0.0
C799 C 0.36012 0.80633 0.81257 0.0
C800 C 0.34213 0.79753 0.84278 0.0
C801 C 0.35453 0.79085 0.81453 0.0
C802 C 0.36866 0.8816 0.83587 0.0
C803 C 0.35531 0.90103 0.8546 0.0
N804 N 0.36945 0.90816 0.85803 0.0
C805 C 0.38306 0.88912 0.83957 0.0
C806 C 0.35466 0.88759 0.84342 0.0
C807 C 0.38321 0.90253 0.85081 0.0
C808 C 0.39935 0.85951 0.7937 0.0
N809 N 0.39179 0.84671 0.80085 0.0
C810 C 0.41399 0.83011 0.79429 0.0
C811 C 0.39881 0.83224 0.80154 0.0
C812 C 0.42192 0.84303 0.78629 0.0
C813 C 0.41448 0.85792 0.78625 0.0
H814 H 0.39344 0.87088 0.79342 0.0
H815 H 0.39251 0.82229 0.80737 0.0
C816 C 0.33832 0.85165 0.87009 0.0
N817 N 0.35255 0.85237 0.86143 0.0
C818 C 0.33761 0.85129 0.88926 0.0
C819 C 0.36623 0.8525 0.89014 0.0
C820 C 0.36638 0.85279 0.87097 0.0
C821 C 0.3517 0.85171 0.89954 0.0
H822 H 0.32754 0.85126 0.86209 0.0
H823 H 0.37751 0.85332 0.86363 0.0
C824 C 0.36422 0.85312 0.7734 0.0
N825 N 0.38384 0.85162 0.743 0.0
C826 C 0.36719 0.8667 0.76298 0.0
C827 C 0.371 0.8387 0.76813 0.0
C828 C 0.37718 0.86572 0.74771 0.0
C829 C 0.38096 0.83821 0.7528 0.0
C830 C 0.31843 0.86052 0.81603 0.0
C831 C 0.31526 0.85927 0.79719 0.0
C832 C 0.30627 0.8648 0.82808 0.0
C833 C 0.29996 0.86231 0.79078 0.0
C834 C 0.29114 0.86779 0.82111 0.0
N835 N 0.28832 0.86648 0.80276 0.0
C836 C 0.31821 0.82018 0.80952 0.0
C837 C 0.33154 0.81965 0.78082 0.0
C838 C 0.30713 0.80919 0.80324 0.0
N839 N 0.33006 0.82518 0.79828 0.0
C840 C 0.3208 0.80854 0.77403 0.0
C841 C 0.30834 0.80328 0.78525 0.0
H842 H 0.31729 0.82486 0.82331 0.0
H843 H 0.34089 0.82403 0.77208 0.0
C844 C 0.35852 0.89877 0.79519 0.0
N845 N 0.34539 0.89044 0.80006 0.0
C846 C 0.35716 0.9141 0.78824 0.0
C847 C 0.32878 0.91227 0.79184 0.0
C848 C 0.33071 0.89701 0.7989 0.0
C849 C 0.3421 0.92099 0.78619 0.0
H850 H 0.37008 0.89337 0.7965 0.0
H851 H 0.32042 0.89051 0.80329 0.0
O852 O 0.36148 0.83292 0.8241 0.0
O853 O 0.36839 0.86847 0.82484 0.0
O854 O 0.35471 0.85392 0.78863 0.0
O855 O 0.3332 0.85721 0.82281 0.0
H856 H 0.34451 0.82167 0.85182 0.0
H857 H 0.36702 0.80954 0.80062 0.0
H858 H 0.33509 0.79396 0.85449 0.0
H859 H 0.35716 0.78205 0.80415 0.0
H860 H 0.34457 0.90579 0.86054 0.0
H861 H 0.39399 0.88463 0.83379 0.0
H862 H 0.34339 0.88198 0.84069 0.0
H863 H 0.39427 0.90847 0.8538 0.0
H864 H 0.41927 0.81842 0.7945 0.0
H865 H 0.42028 0.86823 0.78049 0.0
H866 H 0.32616 0.85086 0.89595 0.0
H867 H 0.37737 0.85266 0.89752 0.0
H868 H 0.36179 0.87788 0.76655 0.0
H869 H 0.36887 0.82807 0.77602 0.0
H870 H 0.37964 0.87617 0.73959 0.0
H871 H 0.38645 0.82717 0.74874 0.0
H872 H 0.32446 0.85606 0.78758 0.0
H873 H 0.3085 0.86583 0.84268 0.0
H874 H 0.29735 0.86139 0.77626 0.0
H875 H 0.28163 0.87113 0.83029 0.0
H876 H 0.29774 0.80533 0.81234 0.0
H877 H 0.322 0.80442 0.76 0.0
H878 H 0.36782 0.92047 0.78453 0.0
H879 H 0.31692 0.91704 0.79048 0.0
Li880 Li 0.1487 0.37223 0.80826 0.0
Li881 Li 0.14594 0.35427 0.83655 0.0
Li882 Li 0.15704 0.34473 0.80789 0.0
Li883 Li 0.12953 0.35035 0.80942 0.0
C884 C 0.18132 0.35914 0.82272 0.0
N885 N 0.21317 0.35198 0.81989 0.0
C886 C 0.18911 0.35152 0.83719 0.0
C887 C 0.18977 0.36331 0.80693 0.0
C888 C 0.20521 0.34796 0.83547 0.0
C889 C 0.20585 0.35953 0.80572 0.0
C890 C 0.11462 0.37174 0.82851 0.0
C891 C 0.09007 0.36372 0.84268 0.0
N892 N 0.08233 0.37523 0.83315 0.0
C893 C 0.10645 0.38354 0.81893 0.0
C894 C 0.1064 0.36177 0.84054 0.0
C895 C 0.09012 0.38509 0.82145 0.0
C896 C 0.14186 0.39924 0.78754 0.0
N897 N 0.15245 0.39293 0.79953 0.0
C898 C 0.16892 0.41583 0.79728 0.0
C899 C 0.16575 0.40086 0.80457 0.0
C900 C 0.15822 0.42269 0.78477 0.0
C901 C 0.14447 0.41421 0.78003 0.0
H902 H 0.13148 0.39252 0.78365 0.0
H903 H 0.17401 0.39546 0.81406 0.0
C904 C 0.15463 0.34159 0.87091 0.0
N905 N 0.14661 0.35352 0.86249 0.0
C906 C 0.15522 0.3408 0.89008 0.0
C907 C 0.13882 0.36429 0.89147 0.0
C908 C 0.13884 0.36482 0.87229 0.0
C909 C 0.14714 0.3522 0.90052 0.0
H910 H 0.16054 0.33268 0.86271 0.0
H911 H 0.13259 0.37419 0.86521 0.0
C912 C 0.14653 0.35682 0.77124 0.0
N913 N 0.15136 0.35817 0.73368 0.0
C914 C 0.13755 0.34732 0.75943 0.0
C915 C 0.15789 0.36709 0.76391 0.0
C916 C 0.1402 0.34815 0.7405 0.0
C917 C 0.16017 0.36758 0.7449 0.0
C918 C 0.13775 0.31912 0.8185 0.0
C919 C 0.13716 0.31539 0.79981 0.0
C920 C 0.13493 0.30733 0.83157 0.0
C921 C 0.13368 0.29988 0.79447 0.0
C922 C 0.13148 0.29195 0.82569 0.0
N923 N 0.13093 0.28858 0.80741 0.0
C924 C 0.17884 0.3199 0.81108 0.0
C925 C 0.17691 0.32993 0.78073 0.0
C926 C 0.19013 0.30881 0.80553 0.0
N927 N 0.17253 0.3302 0.79871 0.0
C928 C 0.18797 0.3189 0.77454 0.0
C929 C 0.19471 0.30817 0.78701 0.0
H930 H 0.17506 0.32031 0.82529 0.0
H931 H 0.17188 0.33819 0.77111 0.0
C932 C 0.10353 0.35399 0.78658 0.0
N933 N 0.10901 0.345 0.80069 0.0
C934 C 0.08858 0.35116 0.77917 0.0
C935 C 0.08502 0.32999 0.80119 0.0
C936 C 0.1001 0.33323 0.80817 0.0
C937 C 0.07914 0.33897 0.78642 0.0
H938 H 0.11078 0.36347 0.78116 0.0
H939 H 0.10465 0.32643 0.81961 0.0
O940 O 0.16546 0.36234 0.82393 0.0
O941 O 0.13051 0.36965 0.82578 0.0
O942 O 0.14396 0.35629 0.78983 0.0
O943 O 0.14117 0.3342 0.82411 0.0
H944 H 0.18279 0.3483 0.84955 0.0
H945 H 0.18394 0.36924 0.79563 0.0
H946 H 0.21137 0.34197 0.84651 0.0
H947 H 0.2125 0.36256 0.79351 0.0
H948 H 0.08354 0.35602 0.85183 0.0
H949 H 0.11263 0.39133 0.80957 0.0
H950 H 0.11254 0.35247 0.8479 0.0
H951 H 0.08362 0.39412 0.81406 0.0
H952 H 0.17977 0.4218 0.80113 0.0
H953 H 0.13576 0.41909 0.77069 0.0
H954 H 0.16166 0.33127 0.89667 0.0
H955 H 0.13254 0.37331 0.89915 0.0
H956 H 0.1286 0.3394 0.76478 0.0
H957 H 0.16492 0.37457 0.77275 0.0
H958 H 0.13336 0.34084 0.73121 0.0
H959 H 0.16895 0.37544 0.73906 0.0
H960 H 0.13945 0.32433 0.78955 0.0
H961 H 0.13539 0.31004 0.84611 0.0
H962 H 0.1332 0.29683 0.78004 0.0
H963 H 0.12925 0.2827 0.83565 0.0
H964 H 0.195 0.30062 0.81552 0.0
H965 H 0.19134 0.31885 0.76016 0.0
H966 H 0.08438 0.3586 0.76807 0.0
H967 H 0.07811 0.32048 0.80716 0.0
Li968 Li 0.62865 0.14948 0.80929 0.0
Li969 Li 0.64595 0.14552 0.83583 0.0
Li970 Li 0.65594 0.15671 0.80726 0.0
Li971 Li 0.64883 0.12866 0.80929 0.0
C972 C 0.64461 0.1809 0.82563 0.0
N973 N 0.65623 0.21141 0.82825 0.0
C974 C 0.65283 0.18569 0.84136 0.0
C975 C 0.64221 0.19166 0.81128 0.0
C976 C 0.65861 0.20116 0.84242 0.0
C977 C 0.64823 0.20702 0.81285 0.0
C978 C 0.62289 0.12499 0.84055 0.0
C979 C 0.62269 0.10813 0.86732 0.0
N980 N 0.60858 0.11452 0.87247 0.0
C981 C 0.60836 0.13135 0.84606 0.0
C982 C 0.63009 0.11323 0.8512 0.0
C983 C 0.60132 0.1259 0.86226 0.0
C984 C 0.59849 0.14081 0.79773 0.0
N985 N 0.60757 0.15365 0.80167 0.0
C986 C 0.58649 0.17115 0.79346 0.0
C987 C 0.60191 0.16864 0.79982 0.0
C988 C 0.57686 0.15808 0.7892 0.0
C989 C 0.58302 0.14276 0.79146 0.0
H990 H 0.60338 0.12904 0.7993 0.0
H991 H 0.60938 0.17862 0.80315 0.0
C992 C 0.65995 0.14051 0.87069 0.0
N993 N 0.64702 0.14633 0.86186 0.0
C994 C 0.66065 0.14064 0.88985 0.0
C995 C 0.63481 0.15299 0.89044 0.0
C996 C 0.63467 0.15272 0.87127 0.0
C997 C 0.64791 0.14683 0.90001 0.0
H998 H 0.66973 0.13578 0.86285 0.0
H999 H 0.62463 0.15745 0.86384 0.0
C1000 C 0.63399 0.14362 0.7747 0.0
N1001 N 0.6125 0.14289 0.74605 0.0
C1002 C 0.62843 0.12913 0.76801 0.0
C1003 C 0.6287 0.15774 0.76674 0.0
C1004 C 0.61757 0.12901 0.75352 0.0
C1005 C 0.6178 0.15712 0.7523 0.0
C1006 C 0.67842 0.13032 0.82145 0.0
C1007 C 0.69077 0.13399 0.80938 0.0
C1008 C 0.67902 0.11631 0.83166 0.0
C1009 C 0.70349 0.12351 0.80765 0.0
C1010 C 0.69192 0.10611 0.82952 0.0
N1011 N 0.70379 0.10989 0.81766 0.0
C1012 C 0.68178 0.17757 0.80892 0.0
C1013 C 0.67014 0.17535 0.77936 0.0
C1014 C 0.69266 0.18865 0.8024 0.0
N1015 N 0.67074 0.17131 0.79742 0.0
C1016 C 0.68081 0.18637 0.77223 0.0
C1017 C 0.69223 0.19321 0.78383 0.0
H1018 H 0.68209 0.17394 0.82318 0.0
H1019 H 0.66135 0.17005 0.7705 0.0
C1020 C 0.6424 0.09637 0.80527 0.0
N1021 N 0.653 0.10782 0.8007 0.0
C1022 C 0.64401 0.08111 0.79821 0.0
C1023 C 0.66762 0.08958 0.78216 0.0
C1024 C 0.66537 0.10479 0.78924 0.0
C1025 C 0.65671 0.07762 0.78648 0.0
H1026 H 0.63245 0.09919 0.81401 0.0
H1027 H 0.6733 0.11425 0.7853 0.0
O1028 O 0.63912 0.16571 0.82418 0.0
O1029 O 0.63013 0.13038 0.82494 0.0
O1030 O 0.6443 0.144 0.78921 0.0
O1031 O 0.66584 0.14041 0.82329 0.0
H1032 H 0.65486 0.17751 0.85256 0.0
H1033 H 0.63606 0.18811 0.79891 0.0
H1034 H 0.66506 0.20501 0.85447 0.0
H1035 H 0.64659 0.21542 0.80178 0.0
H1036 H 0.62818 0.09912 0.87576 0.0
H1037 H 0.60267 0.14053 0.83806 0.0
H1038 H 0.64135 0.10821 0.84713 0.0
H1039 H 0.59011 0.13077 0.86674 0.0
H1040 H 0.58211 0.18314 0.79204 0.0
H1041 H 0.57605 0.13238 0.78811 0.0
H1042 H 0.67113 0.13607 0.89661 0.0
H1043 H 0.62465 0.15773 0.89767 0.0
H1044 H 0.63234 0.11809 0.77403 0.0
H1045 H 0.63271 0.16907 0.7719 0.0
H1046 H 0.61311 0.11789 0.74826 0.0
H1047 H 0.61349 0.16796 0.74613 0.0
H1048 H 0.6905 0.14474 0.8013 0.0
H1049 H 0.66953 0.11325 0.841 0.0
H1050 H 0.71311 0.12616 0.79831 0.0
H1051 H 0.69249 0.09518 0.83725 0.0
H1052 H 0.70144 0.19343 0.81173 0.0
H1053 H 0.68 0.18964 0.75787 0.0
H1054 H 0.63535 0.07214 0.80177 0.0
H1055 H 0.67743 0.08731 0.77292 0.0
Li1056 Li 0.87109 0.34857 0.69008 0.0
Li1057 Li 0.84303 0.34158 0.693 0.0
Li1058 Li 0.85432 0.35225 0.66381 0.0
Li1059 Li 0.85021 0.36982 0.68995 0.0
C1060 C 0.8689 0.31913 0.67777 0.0
N1061 N 0.88896 0.29341 0.68101 0.0
C1062 C 0.86512 0.30671 0.68969 0.0
C1063 C 0.8828 0.31839 0.66735 0.0
C1064 C 0.87544 0.29382 0.69117 0.0
C1065 C 0.89282 0.30532 0.66924 0.0
C1066 C 0.85185 0.35513 0.72798 0.0
C1067 C 0.83454 0.36417 0.75221 0.0
N1068 N 0.84345 0.35616 0.76471 0.0
C1069 C 0.86096 0.34717 0.74111 0.0
C1070 C 0.83863 0.36385 0.73361 0.0
C1071 C 0.85647 0.34776 0.75959 0.0
C1072 C 0.90397 0.35314 0.69277 0.0
N1073 N 0.89189 0.34371 0.69845 0.0
C1074 C 0.90963 0.32824 0.71673 0.0
C1075 C 0.89441 0.33143 0.71019 0.0
C1076 C 0.92235 0.33784 0.71115 0.0
C1077 C 0.91937 0.35038 0.69893 0.0
H1078 H 0.90162 0.36298 0.68368 0.0
H1079 H 0.88458 0.32416 0.71459 0.0
C1080 C 0.81649 0.32208 0.69133 0.0
N1081 N 0.8282 0.32697 0.70284 0.0
C1082 C 0.8051 0.31131 0.6974 0.0
C1083 C 0.81811 0.3107 0.72701 0.0
C1084 C 0.8293 0.32141 0.72033 0.0
C1085 C 0.80582 0.30553 0.71548 0.0
H1086 H 0.816 0.32662 0.67744 0.0
H1087 H 0.83895 0.32509 0.72905 0.0
C1088 C 0.87523 0.37496 0.65902 0.0
N1089 N 0.88618 0.38914 0.62723 0.0
C1090 C 0.87 0.3901 0.65415 0.0
C1091 C 0.88617 0.36711 0.64785 0.0
C1092 C 0.87565 0.39705 0.638 0.0
C1093 C 0.89152 0.37445 0.63179 0.0
C1094 C 0.81899 0.36384 0.67729 0.0
C1095 C 0.812 0.37131 0.66217 0.0
C1096 C 0.81039 0.36227 0.6936 0.0
C1097 C 0.79668 0.37742 0.66377 0.0
C1098 C 0.79509 0.36851 0.69467 0.0
N1099 N 0.78862 0.37592 0.67986 0.0
C1100 C 0.85795 0.33784 0.62897 0.0
C1101 C 0.84767 0.36397 0.62833 0.0
C1102 C 0.85753 0.33704 0.60981 0.0
N1103 N 0.85316 0.3512 0.63777 0.0
C1104 C 0.84701 0.36368 0.60917 0.0
C1105 C 0.85202 0.35009 0.59967 0.0
H1106 H 0.8621 0.3278 0.63682 0.0
H1107 H 0.84402 0.37447 0.63569 0.0
C1108 C 0.85388 0.39601 0.71275 0.0
N1109 N 0.84584 0.39083 0.69774 0.0
C1110 C 0.85188 0.41146 0.71905 0.0
C1111 C 0.83356 0.41616 0.69409 0.0
C1112 C 0.83585 0.40053 0.68834 0.0
C1113 C 0.84172 0.42184 0.7096 0.0
H1114 H 0.86196 0.38812 0.71977 0.0
H1115 H 0.82998 0.3963 0.67611 0.0
O1116 O 0.85902 0.33191 0.67626 0.0
O1117 O 0.85614 0.3547 0.70982 0.0
O1118 O 0.8696 0.36784 0.6746 0.0
O1119 O 0.83398 0.35775 0.67588 0.0
H1120 H 0.8544 0.30704 0.6978 0.0
H1121 H 0.8859 0.32788 0.65804 0.0
H1122 H 0.8727 0.28416 0.7004 0.0
H1123 H 0.90366 0.30465 0.66136 0.0
H1124 H 0.82432 0.37086 0.75672 0.0
H1125 H 0.87133 0.34054 0.7371 0.0
H1126 H 0.83172 0.37053 0.7238 0.0
H1127 H 0.86336 0.34156 0.76986 0.0
H1128 H 0.91143 0.31838 0.72602 0.0
H1129 H 0.92877 0.35825 0.69454 0.0
H1130 H 0.79575 0.30768 0.68812 0.0
H1131 H 0.81923 0.3063 0.74094 0.0
H1132 H 0.86158 0.39636 0.66266 0.0
H1133 H 0.89038 0.35541 0.65144 0.0
H1134 H 0.87163 0.40872 0.634 0.0
H1135 H 0.89989 0.36846 0.62294 0.0
H1136 H 0.81835 0.37246 0.64934 0.0
H1137 H 0.81535 0.35612 0.70527 0.0
H1138 H 0.79119 0.38333 0.65221 0.0
H1139 H 0.78834 0.36739 0.70724 0.0
H1140 H 0.8613 0.32626 0.60302 0.0
H1141 H 0.84288 0.37407 0.60187 0.0
H1142 H 0.85827 0.41523 0.7312 0.0
H1143 H 0.82585 0.42381 0.68618 0.0
Li1144 Li 0.65016 0.86906 0.68862 0.0
Li1145 Li 0.65746 0.84108 0.69022 0.0
Li1146 Li 0.64589 0.8522 0.66126 0.0
Li1147 Li 0.62979 0.84735 0.68862 0.0
C1148 C 0.6781 0.8671 0.66691 0.0
N1149 N 0.70194 0.88622 0.65324 0.0
C1150 C 0.69355 0.86569 0.67364 0.0
C1151 C 0.67485 0.87808 0.65303 0.0
C1152 C 0.70542 0.8755 0.66662 0.0
C1153 C 0.68704 0.88767 0.64635 0.0
C1154 C 0.65169 0.84977 0.72465 0.0
C1155 C 0.65577 0.83142 0.74962 0.0
N1156 N 0.66605 0.8418 0.75751 0.0
C1157 C 0.6622 0.86031 0.73306 0.0
C1158 C 0.64834 0.83526 0.73305 0.0
C1159 C 0.66937 0.85604 0.74966 0.0
C1160 C 0.64088 0.89773 0.70324 0.0
N1161 N 0.65398 0.88992 0.6973 0.0
C1162 C 0.67031 0.91218 0.70458 0.0
C1163 C 0.66857 0.89673 0.69802 0.0
C1164 C 0.65693 0.92062 0.71062 0.0
C1165 C 0.64207 0.91313 0.70997 0.0
H1166 H 0.62947 0.89191 0.70274 0.0
H1167 H 0.67888 0.89021 0.69363 0.0
C1168 C 0.67075 0.81101 0.69733 0.0
N1169 N 0.67264 0.82682 0.70006 0.0
C1170 C 0.68145 0.80027 0.70498 0.0
C1171 C 0.696 0.82231 0.71785 0.0
C1172 C 0.68501 0.83261 0.70995 0.0
C1173 C 0.69425 0.80589 0.71546 0.0
H1174 H 0.66093 0.80673 0.68921 0.0
H1175 H 0.68623 0.84524 0.7119 0.0
C1176 C 0.62376 0.87789 0.66236 0.0
N1177 N 0.60952 0.90053 0.64039 0.0
C1178 C 0.60806 0.87599 0.65665 0.0
C1179 C 0.63209 0.8915 0.65719 0.0
C1180 C 0.60111 0.8875 0.64545 0.0
C1181 C 0.62472 0.90275 0.64601 0.0
C1182 C 0.63064 0.81961 0.67189 0.0
C1183 C 0.62312 0.81679 0.65508 0.0
C1184 C 0.62689 0.81024 0.68713 0.0
C1185 C 0.6118 0.80477 0.65387 0.0
C1186 C 0.61549 0.79835 0.68537 0.0
N1187 N 0.60823 0.79589 0.66892 0.0
C1188 C 0.66034 0.84927 0.62646 0.0
C1189 C 0.63255 0.85322 0.62553 0.0
C1190 C 0.66107 0.84908 0.60729 0.0
N1191 N 0.64627 0.8516 0.63514 0.0
C1192 C 0.6327 0.85296 0.60635 0.0
C1193 C 0.64713 0.85099 0.59701 0.0
H1194 H 0.67102 0.84758 0.63443 0.0
H1195 H 0.62146 0.85454 0.63275 0.0
C1196 C 0.60612 0.84292 0.71533 0.0
N1197 N 0.60908 0.84221 0.69698 0.0
C1198 C 0.59087 0.84022 0.72201 0.0
C1199 C 0.582 0.83591 0.6908 0.0
C1200 C 0.59744 0.83869 0.68473 0.0
C1201 C 0.57853 0.83685 0.70966 0.0
H1202 H 0.61554 0.84597 0.72474 0.0
H1203 H 0.6001 0.83827 0.6702 0.0
O1204 O 0.66633 0.85761 0.67373 0.0
O1205 O 0.64473 0.85364 0.70827 0.0
O1206 O 0.6307 0.86676 0.67346 0.0
O1207 O 0.64164 0.83145 0.67339 0.0
H1208 H 0.69635 0.85714 0.68421 0.0
H1209 H 0.6631 0.87904 0.64726 0.0
H1210 H 0.7174 0.87459 0.67178 0.0
H1211 H 0.68466 0.89623 0.63562 0.0
H1212 H 0.65338 0.82018 0.75621 0.0
H1213 H 0.66491 0.87159 0.72678 0.0
H1214 H 0.64018 0.827 0.72678 0.0
H1215 H 0.6776 0.86404 0.75627 0.0
H1216 H 0.68198 0.9175 0.70474 0.0
H1217 H 0.63148 0.91902 0.71485 0.0
H1218 H 0.67982 0.78772 0.70254 0.0
H1219 H 0.7056 0.82714 0.72598 0.0
H1220 H 0.60134 0.86568 0.6607 0.0
H1221 H 0.64404 0.89349 0.66192 0.0
H1222 H 0.58901 0.88609 0.64082 0.0
H1223 H 0.63106 0.9133 0.64188 0.0
H1224 H 0.62597 0.82383 0.64311 0.0
H1225 H 0.63263 0.81223 0.70021 0.0
H1226 H 0.60584 0.80251 0.64097 0.0
H1227 H 0.61239 0.79109 0.69708 0.0
H1228 H 0.67238 0.84725 0.60059 0.0
H1229 H 0.62169 0.85446 0.59892 0.0
H1230 H 0.58867 0.84133 0.73662 0.0
H1231 H 0.57287 0.83321 0.68083 0.0
Li1232 Li 0.12892 0.64913 0.68987 0.0
Li1233 Li 0.15609 0.65794 0.69079 0.0
Li1234 Li 0.14555 0.64592 0.66232 0.0
Li1235 Li 0.15108 0.63006 0.6895 0.0
C1236 C 0.13494 0.68127 0.67926 0.0
N1237 N 0.12763 0.71209 0.68887 0.0
C1238 C 0.13002 0.68482 0.69712 0.0
C1239 C 0.13611 0.6934 0.66626 0.0
C1240 C 0.12639 0.70047 0.70173 0.0
C1241 C 0.13237 0.70891 0.67138 0.0
C1242 C 0.14964 0.64914 0.72633 0.0
C1243 C 0.17016 0.65104 0.74931 0.0
N1244 N 0.15976 0.65823 0.7609 0.0
C1245 C 0.13911 0.65642 0.73854 0.0
C1246 C 0.16525 0.64631 0.73182 0.0
C1247 C 0.14447 0.66097 0.75592 0.0
C1248 C 0.10336 0.64222 0.71237 0.0
N1249 N 0.10792 0.65192 0.69845 0.0
C1250 C 0.08247 0.66429 0.6979 0.0
C1251 C 0.09784 0.66273 0.69102 0.0
C1252 C 0.07746 0.65449 0.71239 0.0
C1253 C 0.08811 0.64332 0.71961 0.0
H1254 H 0.11164 0.63367 0.71788 0.0
H1255 H 0.10171 0.67011 0.67973 0.0
C1256 C 0.18415 0.6755 0.69032 0.0
N1257 N 0.17031 0.67375 0.69962 0.0
C1258 C 0.19542 0.68647 0.69622 0.0
C1259 C 0.17788 0.69382 0.72105 0.0
C1260 C 0.1669 0.68283 0.71455 0.0
C1261 C 0.19243 0.6957 0.71192 0.0
H1262 H 0.18647 0.66832 0.67831 0.0
H1263 H 0.15576 0.68145 0.72162 0.0
C1264 C 0.11809 0.62747 0.66417 0.0
N1265 N 0.0906 0.62258 0.64436 0.0
C1266 C 0.11122 0.61243 0.66354 0.0
C1267 C 0.11099 0.64004 0.65475 0.0
C1268 C 0.09732 0.61019 0.65344 0.0
C1269 C 0.09709 0.63732 0.64481 0.0
C1270 C 0.17888 0.63253 0.672 0.0
C1271 C 0.18008 0.62315 0.65623 0.0
C1272 C 0.19075 0.6318 0.68537 0.0
C1273 C 0.19299 0.61292 0.65429 0.0
C1274 C 0.20347 0.62142 0.68293 0.0
N1275 N 0.2043 0.61225 0.66758 0.0
C1276 C 0.14993 0.65961 0.62738 0.0
C1277 C 0.14251 0.63253 0.62694 0.0
C1278 C 0.15021 0.66006 0.60819 0.0
N1279 N 0.14601 0.64603 0.63628 0.0
C1280 C 0.14262 0.63243 0.60777 0.0
C1281 C 0.14646 0.64635 0.59814 0.0
H1282 H 0.15284 0.6701 0.63521 0.0
H1283 H 0.13971 0.62181 0.6344 0.0
C1284 C 0.15789 0.60636 0.71569 0.0
N1285 N 0.15726 0.60951 0.6974 0.0
C1286 C 0.16148 0.59115 0.72189 0.0
C1287 C 0.16368 0.58263 0.69027 0.0
C1288 C 0.15992 0.59801 0.68469 0.0
C1289 C 0.16438 0.579 0.70912 0.0
H1290 H 0.15515 0.61552 0.72553 0.0
H1291 H 0.15884 0.6007 0.67022 0.0
O1292 O 0.13864 0.66603 0.67447 0.0
O1293 O 0.14461 0.64467 0.70921 0.0
O1294 O 0.13167 0.6298 0.67408 0.0
O1295 O 0.16628 0.64254 0.6742 0.0
H1296 H 0.12906 0.67561 0.70735 0.0
H1297 H 0.13985 0.69089 0.65234 0.0
H1298 H 0.1226 0.70336 0.71553 0.0
H1299 H 0.13324 0.71842 0.66146 0.0
H1300 H 0.18224 0.649 0.75368 0.0
H1301 H 0.12694 0.6586 0.73463 0.0
H1302 H 0.17349 0.64053 0.72265 0.0
H1303 H 0.13647 0.66669 0.76546 0.0
H1304 H 0.07454 0.67289 0.69179 0.0
H1305 H 0.08477 0.63565 0.7309 0.0
H1306 H 0.20631 0.68773 0.68851 0.0
H1307 H 0.17509 0.70052 0.73332 0.0
H1308 H 0.11658 0.60259 0.67078 0.0
H1309 H 0.11613 0.65176 0.65507 0.0
H1310 H 0.09187 0.59861 0.65281 0.0
H1311 H 0.09147 0.64694 0.63745 0.0
H1312 H 0.17108 0.62364 0.64569 0.0
H1313 H 0.19021 0.63924 0.69744 0.0
H1314 H 0.19399 0.60549 0.64223 0.0
H1315 H 0.2127 0.62069 0.69321 0.0
H1316 H 0.15313 0.67106 0.60132 0.0
H1317 H 0.13994 0.62153 0.60057 0.0
H1318 H 0.16143 0.58885 0.73653 0.0
H1319 H 0.16585 0.57366 0.67993 0.0
Li1320 Li 0.34801 0.12991 0.69039 0.0
Li1321 Li 0.34237 0.15833 0.69249 0.0
Li1322 Li 0.35197 0.14735 0.66394 0.0
Li1323 Li 0.36874 0.14958 0.6913 0.0
C1324 C 0.31671 0.13921 0.68227 0.0
N1325 N 0.28623 0.13324 0.69429 0.0
C1326 C 0.31328 0.13913 0.70109 0.0
C1327 C 0.30463 0.13627 0.66959 0.0
C1328 C 0.29779 0.1361 0.70688 0.0
C1329 C 0.2893 0.13326 0.67593 0.0
C1330 C 0.36222 0.14549 0.72614 0.0
C1331 C 0.37803 0.16068 0.74744 0.0
N1332 N 0.38187 0.14712 0.7565 0.0
C1333 C 0.36615 0.13174 0.73584 0.0
C1334 C 0.36804 0.1601 0.73214 0.0
C1335 C 0.37615 0.1328 0.75109 0.0
C1336 C 0.35644 0.10016 0.70282 0.0
N1337 N 0.3435 0.10853 0.6974 0.0
C1338 C 0.32684 0.08604 0.70253 0.0
C1339 C 0.32891 0.1017 0.69678 0.0
C1340 C 0.33997 0.07728 0.70863 0.0
C1341 C 0.35495 0.08448 0.70856 0.0
H1342 H 0.36796 0.10578 0.70286 0.0
H1343 H 0.31884 0.10824 0.69178 0.0
C1344 C 0.31771 0.18077 0.69074 0.0
N1345 N 0.32803 0.1735 0.70233 0.0
C1346 C 0.30697 0.19191 0.69746 0.0
C1347 C 0.31737 0.18749 0.72801 0.0
C1348 C 0.32797 0.17651 0.72067 0.0
C1349 C 0.30671 0.19541 0.71635 0.0
H1350 H 0.31785 0.17791 0.67625 0.0
H1351 H 0.33599 0.17025 0.72965 0.0
C1352 C 0.36744 0.11841 0.66301 0.0
N1353 N 0.36876 0.09227 0.64021 0.0
C1354 C 0.38189 0.11086 0.65973 0.0
C1355 C 0.35364 0.11265 0.65473 0.0
C1356 C 0.38232 0.09766 0.64815 0.0
C1357 C 0.35456 0.09943 0.64324 0.0
C1358 C 0.35497 0.18225 0.67453 0.0
C1359 C 0.34742 0.18728 0.65845 0.0
C1360 C 0.3576 0.19308 0.68876 0.0
C1361 C 0.3424 0.20301 0.65699 0.0
C1362 C 0.35236 0.20869 0.68678 0.0
N1363 N 0.34493 0.21329 0.67108 0.0
C1364 C 0.33751 0.15038 0.6291 0.0
C1365 C 0.36528 0.14614 0.62861 0.0
C1366 C 0.33703 0.15074 0.60992 0.0
N1367 N 0.35149 0.14812 0.63796 0.0
C1368 C 0.36533 0.14624 0.60944 0.0
C1369 C 0.35107 0.14857 0.59987 0.0
H1370 H 0.32675 0.15197 0.63696 0.0
H1371 H 0.37623 0.14441 0.63609 0.0
C1372 C 0.39797 0.13975 0.70519 0.0
N1373 N 0.38982 0.15271 0.69943 0.0
C1374 C 0.4132 0.14139 0.71237 0.0
C1375 C 0.41146 0.16964 0.70721 0.0
C1376 C 0.39626 0.16745 0.70009 0.0
C1377 C 0.42009 0.15651 0.71362 0.0
H1378 H 0.39251 0.12818 0.70442 0.0
H1379 H 0.38948 0.17752 0.69538 0.0
O1380 O 0.33169 0.1425 0.67616 0.0
O1381 O 0.35272 0.14465 0.71089 0.0
O1382 O 0.36689 0.1313 0.6744 0.0
O1383 O 0.35974 0.16682 0.67633 0.0
H1384 H 0.32243 0.1413 0.71115 0.0
H1385 H 0.30706 0.1363 0.65498 0.0
H1386 H 0.29498 0.136 0.72138 0.0
H1387 H 0.27984 0.13095 0.66626 0.0
H1388 H 0.38276 0.1719 0.75206 0.0
H1389 H 0.36149 0.12038 0.73172 0.0
H1390 H 0.36507 0.17087 0.7249 0.0
H1391 H 0.37935 0.12224 0.75865 0.0
H1392 H 0.31514 0.08081 0.70204 0.0
H1393 H 0.36537 0.07817 0.71324 0.0
H1394 H 0.29906 0.19781 0.68794 0.0
H1395 H 0.31735 0.18954 0.74271 0.0
H1396 H 0.39266 0.11515 0.66609 0.0
H1397 H 0.34233 0.11829 0.65713 0.0
H1398 H 0.39342 0.09169 0.64549 0.0
H1399 H 0.34399 0.09485 0.63673 0.0
H1400 H 0.34536 0.17915 0.64726 0.0
H1401 H 0.36345 0.18946 0.70127 0.0
H1402 H 0.33646 0.20702 0.64466 0.0
H1403 H 0.35419 0.21714 0.69776 0.0
H1404 H 0.32579 0.15246 0.60303 0.0
H1405 H 0.37643 0.14469 0.60217 0.0
H1406 H 0.41951 0.13091 0.71686 0.0
H1407 H 0.41624 0.18152 0.70806 0.0
H1408 H 0.31121 0.21934 0.26265 0.0
H1409 H 0.29175 0.23769 0.24988 0.0
H1410 H 0.25423 0.21221 0.27723 0.0
H1411 H 0.27355 0.19336 0.28936 0.0
H1412 H 0.24594 0.21919 0.24301 0.0
H1413 H 0.2682 0.24773 0.29388 0.0
H1414 H 0.2896 0.25921 0.31271 0.0
H1415 H 0.30403 0.28831 0.26727 0.0
H1416 H 0.28284 0.27684 0.24808 0.0
H1417 H 0.18604 0.27785 0.2347 0.0
H1418 H 0.20566 0.25919 0.24667 0.0
H1419 H 0.24251 0.28358 0.21687 0.0
H1420 H 0.22302 0.30255 0.20524 0.0
H1421 H 0.25118 0.27721 0.25208 0.0
H1422 H 0.22847 0.24869 0.20139 0.0
H1423 H 0.20676 0.2373 0.18296 0.0
H1424 H 0.19285 0.20824 0.22864 0.0
H1425 H 0.21435 0.21963 0.24745 0.0
C1426 C 0.29881 0.21753 0.2658 0.0
C1427 C 0.29395 0.20489 0.27707 0.0
C1428 C 0.28771 0.22814 0.25866 0.0
C1429 C 0.27156 0.22644 0.26281 0.0
C1430 C 0.26665 0.21378 0.27391 0.0
C1431 C 0.27772 0.20311 0.28099 0.0
C1432 C 0.25976 0.23779 0.25543 0.0
C1433 C 0.24697 0.23187 0.2452 0.0
C1434 C 0.26131 0.25435 0.25795 0.0
C1435 C 0.27403 0.26131 0.26949 0.0
C1436 C 0.27601 0.25649 0.28786 0.0
C1437 C 0.28809 0.26301 0.2986 0.0
C1438 C 0.2982 0.27445 0.29118 0.0
C1439 C 0.29621 0.27943 0.273 0.0
C1440 C 0.28416 0.27293 0.26219 0.0
C1441 C 0.19834 0.27929 0.23078 0.0
C1442 C 0.20299 0.29165 0.21901 0.0
C1443 C 0.2095 0.26854 0.2375 0.0
C1444 C 0.2255 0.26992 0.2325 0.0
C1445 C 0.2302 0.28229 0.22083 0.0
C1446 C 0.21904 0.29303 0.21408 0.0
C1447 C 0.23738 0.2586 0.23969 0.0
C1448 C 0.25018 0.26454 0.24988 0.0
C1449 C 0.23581 0.24206 0.2372 0.0
C1450 C 0.22293 0.23513 0.22588 0.0
C1451 C 0.22071 0.23996 0.20756 0.0
C1452 C 0.20845 0.23349 0.19703 0.0
C1453 C 0.19841 0.22208 0.20464 0.0
C1454 C 0.20063 0.21709 0.22278 0.0
C1455 C 0.21285 0.22354 0.23337 0.0
H1456 H 0.18893 0.21709 0.19647 0.0
H1457 H 0.30754 0.27949 0.29952 0.0
H1458 H 0.81047 0.27664 0.26942 0.0
H1459 H 0.79127 0.258 0.25663 0.0
H1460 H 0.75334 0.2905 0.26923 0.0
H1461 H 0.7724 0.30894 0.28268 0.0
H1462 H 0.74563 0.26087 0.2787 0.0
H1463 H 0.76726 0.28651 0.2254 0.0
H1464 H 0.78852 0.29573 0.20475 0.0
H1465 H 0.80359 0.24769 0.19627 0.0
H1466 H 0.78255 0.2382 0.21708 0.0
H1467 H 0.68586 0.2252 0.2245 0.0
H1468 H 0.7053 0.24392 0.23667 0.0
H1469 H 0.74285 0.21075 0.22494 0.0
H1470 H 0.72346 0.19193 0.21279 0.0
H1471 H 0.75083 0.24061 0.21494 0.0
H1472 H 0.72921 0.21501 0.26828 0.0
H1473 H 0.70792 0.2058 0.28889 0.0
H1474 H 0.69283 0.25384 0.29729 0.0
H1475 H 0.7139 0.26332 0.27651 0.0
C1476 C 0.79803 0.27976 0.26963 0.0
C1477 C 0.79297 0.29429 0.27704 0.0
C1478 C 0.78709 0.26917 0.26214 0.0
C1479 C 0.7709 0.27296 0.26177 0.0
C1480 C 0.76579 0.28738 0.26931 0.0
C1481 C 0.77671 0.29796 0.27684 0.0
C1482 C 0.75926 0.26183 0.25369 0.0
C1483 C 0.74664 0.25661 0.26468 0.0
C1484 C 0.76082 0.25599 0.23554 0.0
C1485 C 0.77342 0.26166 0.22294 0.0
C1486 C 0.77518 0.27792 0.21924 0.0
C1487 C 0.78718 0.28319 0.20749 0.0
C1488 C 0.79742 0.27231 0.19924 0.0
C1489 C 0.79566 0.25612 0.20269 0.0
C1490 C 0.78369 0.25078 0.21445 0.0
C1491 C 0.69825 0.22186 0.22461 0.0
C1492 C 0.70312 0.20705 0.21779 0.0
C1493 C 0.70934 0.23257 0.23153 0.0
C1494 C 0.72549 0.22862 0.23192 0.0
C1495 C 0.73044 0.21401 0.22476 0.0
C1496 C 0.71935 0.2033 0.21779 0.0
C1497 C 0.73719 0.2397 0.23995 0.0
C1498 C 0.74983 0.24489 0.22896 0.0
C1499 C 0.73566 0.24552 0.2581 0.0
C1500 C 0.72304 0.23986 0.2707 0.0
C1501 C 0.72128 0.2236 0.27441 0.0
C1502 C 0.70926 0.21833 0.28614 0.0
C1503 C 0.699 0.22923 0.29436 0.0
C1504 C 0.70077 0.24541 0.2909 0.0
C1505 C 0.71275 0.25074 0.27916 0.0
H1506 H 0.68971 0.22513 0.30344 0.0
H1507 H 0.8067 0.27641 0.19014 0.0
H1508 H 0.78061 0.70779 0.19776 0.0
H1509 H 0.76204 0.72732 0.21006 0.0
H1510 H 0.7828 0.72202 0.26392 0.0
H1511 H 0.80144 0.70248 0.2517 0.0
H1512 H 0.75094 0.72245 0.26571 0.0
H1513 H 0.79146 0.754 0.23759 0.0
H1514 H 0.80922 0.76261 0.2126 0.0
H1515 H 0.769 0.7744 0.17914 0.0
H1516 H 0.75098 0.76564 0.20385 0.0
H1517 H 0.71616 0.79142 0.305 0.0
H1518 H 0.73506 0.77173 0.29366 0.0
H1519 H 0.71511 0.77575 0.23925 0.0
H1520 H 0.69616 0.79538 0.25049 0.0
H1521 H 0.74702 0.77614 0.2383 0.0
H1522 H 0.70652 0.7442 0.26635 0.0
H1523 H 0.68882 0.73562 0.2914 0.0
H1524 H 0.72911 0.72465 0.32512 0.0
H1525 H 0.74707 0.73339 0.30034 0.0
C1526 C 0.78129 0.71087 0.2122 0.0
C1527 C 0.79253 0.70366 0.22375 0.0
C1528 C 0.77067 0.72201 0.21921 0.0
C1529 C 0.77118 0.72625 0.23786 0.0
C1530 C 0.78221 0.7189 0.24949 0.0
C1531 C 0.79282 0.70772 0.2425 0.0
C1532 C 0.76019 0.73837 0.24521 0.0
C1533 C 0.75023 0.73426 0.2599 0.0
C1534 C 0.75907 0.75368 0.23736 0.0
C1535 C 0.76988 0.75903 0.22251 0.0
C1536 C 0.7864 0.75831 0.22485 0.0
C1537 C 0.79651 0.76324 0.21075 0.0
C1538 C 0.79024 0.76901 0.19428 0.0
C1539 C 0.77384 0.76991 0.1919 0.0
C1540 C 0.76367 0.76498 0.20596 0.0
C1541 C 0.71571 0.78799 0.29066 0.0
C1542 C 0.70465 0.79492 0.27864 0.0
C1543 C 0.72652 0.77677 0.2842 0.0
C1544 C 0.72638 0.77218 0.26565 0.0
C1545 C 0.71544 0.77916 0.2536 0.0
C1546 C 0.70465 0.7904 0.26003 0.0
C1547 C 0.7377 0.76019 0.25873 0.0
C1548 C 0.74774 0.76433 0.24413 0.0
C1549 C 0.7389 0.74493 0.26667 0.0
C1550 C 0.72813 0.7396 0.28155 0.0
C1551 C 0.7116 0.74008 0.27916 0.0
C1552 C 0.70153 0.73516 0.2933 0.0
C1553 C 0.70784 0.72963 0.30986 0.0
C1554 C 0.72424 0.72896 0.31229 0.0
C1555 C 0.73438 0.73388 0.2982 0.0
H1556 H 0.70001 0.72583 0.32079 0.0
H1557 H 0.79809 0.77281 0.18337 0.0
H1558 H 0.28444 0.78837 0.19576 0.0
H1559 H 0.26533 0.7695 0.20832 0.0
H1560 H 0.28344 0.77798 0.26291 0.0
H1561 H 0.30263 0.79685 0.25042 0.0
H1562 H 0.27919 0.74698 0.25696 0.0
H1563 H 0.24845 0.79422 0.249 0.0
H1564 H 0.23765 0.81711 0.23209 0.0
H1565 H 0.2149 0.78575 0.19384 0.0
H1566 H 0.22576 0.76266 0.21038 0.0
H1567 H 0.21571 0.71053 0.30517 0.0
H1568 H 0.23466 0.72994 0.29337 0.0
H1569 H 0.2183 0.72114 0.23812 0.0
H1570 H 0.19901 0.70203 0.24986 0.0
H1571 H 0.22159 0.75258 0.24495 0.0
H1572 H 0.2527 0.70536 0.25288 0.0
H1573 H 0.2635 0.68256 0.26998 0.0
H1574 H 0.28545 0.71412 0.30862 0.0
H1575 H 0.27459 0.73712 0.2919 0.0
C1576 C 0.28426 0.78631 0.21046 0.0
C1577 C 0.29498 0.79414 0.22212 0.0
C1578 C 0.27335 0.77552 0.21761 0.0
C1579 C 0.27284 0.7725 0.23658 0.0
C1580 C 0.28365 0.78015 0.24823 0.0
C1581 C 0.29461 0.79089 0.24108 0.0
C1582 C 0.26109 0.76125 0.24423 0.0
C1583 C 0.26657 0.74833 0.25457 0.0
C1584 C 0.24466 0.76284 0.24076 0.0
C1585 C 0.23805 0.77671 0.23084 0.0
C1586 C 0.24125 0.7922 0.2369 0.0
C1587 C 0.23509 0.80522 0.2274 0.0
C1588 C 0.22562 0.80289 0.21187 0.0
C1589 C 0.22225 0.78754 0.20586 0.0
C1590 C 0.22839 0.77448 0.2153 0.0
C1591 C 0.21605 0.71283 0.29052 0.0
C1592 C 0.2059 0.70472 0.27843 0.0
C1593 C 0.22698 0.72381 0.2838 0.0
C1594 C 0.22799 0.72684 0.26486 0.0
C1595 C 0.21774 0.71892 0.25278 0.0
C1596 C 0.20683 0.70792 0.25949 0.0
C1597 C 0.2397 0.7383 0.25762 0.0
C1598 C 0.2342 0.75126 0.24737 0.0
C1599 C 0.2561 0.73676 0.2612 0.0
C1600 C 0.2627 0.72295 0.27124 0.0
C1601 C 0.25973 0.70743 0.26511 0.0
C1602 C 0.26588 0.69447 0.27472 0.0
C1603 C 0.27512 0.69689 0.2904 0.0
C1604 C 0.27827 0.71227 0.29649 0.0
C1605 C 0.27213 0.72527 0.28694 0.0
H1606 H 0.27988 0.68684 0.29782 0.0
H1607 H 0.22087 0.81298 0.20453 0.0
H1608 H 0.72651 0.80866 0.71709 0.0
H1609 H 0.74537 0.79009 0.73071 0.0
H1610 H 0.7069 0.7591 0.74589 0.0
H1611 H 0.68791 0.77785 0.73278 0.0
H1612 H 0.72827 0.76231 0.77358 0.0
H1613 H 0.72943 0.75082 0.70886 0.0
H1614 H 0.73219 0.75716 0.67592 0.0
H1615 H 0.77968 0.77352 0.68522 0.0
H1616 H 0.77712 0.76748 0.71828 0.0
H1617 H 0.77336 0.69276 0.79105 0.0
H1618 H 0.75446 0.71228 0.77936 0.0
H1619 H 0.79317 0.74226 0.76228 0.0
H1620 H 0.81211 0.72274 0.77385 0.0
H1621 H 0.7717 0.7398 0.73576 0.0
H1622 H 0.77081 0.75107 0.80036 0.0
H1623 H 0.76814 0.74487 0.83334 0.0
H1624 H 0.72038 0.72914 0.82446 0.0
H1625 H 0.72283 0.73505 0.79136 0.0
C1626 C 0.72205 0.79797 0.72349 0.0
C1627 C 0.70572 0.79469 0.7238 0.0
C1628 C 0.73285 0.78731 0.73113 0.0
C1629 C 0.72754 0.77314 0.73911 0.0
C1630 C 0.71124 0.76995 0.73972 0.0
C1631 C 0.70043 0.7806 0.73209 0.0
C1632 C 0.73899 0.76159 0.74673 0.0
C1633 C 0.73765 0.75722 0.76527 0.0
C1634 C 0.75144 0.75527 0.73596 0.0
C1635 C 0.75303 0.75884 0.71607 0.0
C1636 C 0.74042 0.75588 0.70391 0.0
C1637 C 0.74195 0.7594 0.68521 0.0
C1638 C 0.75609 0.76578 0.67849 0.0
C1639 C 0.76873 0.76861 0.69045 0.0
C1640 C 0.76725 0.76512 0.70916 0.0
C1641 C 0.77783 0.7036 0.78499 0.0
C1642 C 0.79421 0.70623 0.78336 0.0
C1643 C 0.76703 0.71474 0.77832 0.0
C1644 C 0.77241 0.7288 0.7701 0.0
C1645 C 0.78876 0.73148 0.76854 0.0
C1646 C 0.79956 0.72031 0.77511 0.0
C1647 C 0.76102 0.74051 0.76265 0.0
C1648 C 0.76235 0.7449 0.74411 0.0
C1649 C 0.74859 0.74687 0.77344 0.0
C1650 C 0.74706 0.74336 0.79335 0.0
C1651 C 0.75978 0.74617 0.80541 0.0
C1652 C 0.75829 0.74273 0.82413 0.0
C1653 C 0.74411 0.73657 0.83099 0.0
C1654 C 0.73136 0.73389 0.81913 0.0
C1655 C 0.73279 0.7373 0.80039 0.0
H1656 H 0.74299 0.73392 0.84548 0.0
H1657 H 0.75726 0.76849 0.66401 0.0
H1658 H 0.18749 0.72501 0.72721 0.0
H1659 H 0.20723 0.74307 0.73979 0.0
H1660 H 0.24442 0.71065 0.72426 0.0
H1661 H 0.22469 0.69205 0.71269 0.0
H1662 H 0.24982 0.7213 0.75725 0.0
H1663 H 0.23638 0.74533 0.69964 0.0
H1664 H 0.21865 0.75628 0.67588 0.0
H1665 H 0.20241 0.79174 0.71377 0.0
H1666 H 0.21989 0.78086 0.73785 0.0
H1667 H 0.31367 0.77613 0.76583 0.0
H1668 H 0.29387 0.75782 0.75339 0.0
H1669 H 0.25648 0.7867 0.77599 0.0
H1670 H 0.27621 0.80512 0.78834 0.0
H1671 H 0.25142 0.77801 0.73938 0.0
H1672 H 0.26545 0.7535 0.79687 0.0
H1673 H 0.28387 0.74254 0.81991 0.0
H1674 H 0.29989 0.70788 0.78092 0.0
H1675 H 0.28173 0.71879 0.75755 0.0
C1676 C 0.19985 0.72162 0.72662 0.0
C1677 C 0.20447 0.70705 0.7189 0.0
C1678 C 0.21115 0.73207 0.73362 0.0
C1679 C 0.22734 0.72833 0.73272 0.0
C1680 C 0.232 0.71382 0.72503 0.0
C1681 C 0.2207 0.70327 0.71822 0.0
C1682 C 0.23939 0.73939 0.74016 0.0
C1683 C 0.2503 0.73364 0.75312 0.0
C1684 C 0.23983 0.75558 0.73507 0.0
C1685 C 0.22934 0.76218 0.7206 0.0
C1686 C 0.22894 0.75539 0.70295 0.0
C1687 C 0.21895 0.7616 0.68942 0.0
C1688 C 0.20938 0.77467 0.69333 0.0
C1689 C 0.20981 0.7816 0.71077 0.0
C1690 C 0.21977 0.77543 0.72436 0.0
C1691 C 0.30122 0.77857 0.76809 0.0
C1692 C 0.29645 0.792 0.77807 0.0
C1693 C 0.28995 0.76808 0.76109 0.0
C1694 C 0.27375 0.77089 0.76389 0.0
C1695 C 0.26895 0.78434 0.77374 0.0
C1696 C 0.28021 0.79476 0.78088 0.0
C1697 C 0.26178 0.75987 0.75637 0.0
C1698 C 0.25091 0.76564 0.74343 0.0
C1699 C 0.26147 0.74369 0.76133 0.0
C1700 C 0.27234 0.73707 0.7754 0.0
C1701 C 0.273 0.74363 0.79316 0.0
C1702 C 0.28337 0.73741 0.80629 0.0
C1703 C 0.29308 0.72455 0.80187 0.0
C1704 C 0.29239 0.71785 0.78432 0.0
C1705 C 0.28205 0.72404 0.77113 0.0
H1706 H 0.3011 0.71975 0.81205 0.0
H1707 H 0.20165 0.77946 0.68283 0.0
H1708 H 0.19206 0.28852 0.75752 0.0
H1709 H 0.21143 0.26907 0.74657 0.0
H1710 H 0.24289 0.28168 0.79095 0.0
H1711 H 0.22349 0.30114 0.80204 0.0
H1712 H 0.25738 0.28034 0.75529 0.0
H1713 H 0.22444 0.24882 0.79489 0.0
H1714 H 0.19911 0.23823 0.80645 0.0
H1715 H 0.18958 0.21753 0.75368 0.0
H1716 H 0.21475 0.22821 0.74171 0.0
H1717 H 0.31185 0.2174 0.74338 0.0
H1718 H 0.29291 0.23626 0.75619 0.0
H1719 H 0.25705 0.21929 0.71878 0.0
H1720 H 0.27569 0.19984 0.70653 0.0
H1721 H 0.24492 0.22297 0.75184 0.0
H1722 H 0.27663 0.25457 0.7115 0.0
H1723 H 0.3013 0.26559 0.69861 0.0
H1724 H 0.31245 0.28663 0.75077 0.0
H1725 H 0.28794 0.27555 0.76405 0.0
C1726 C 0.20313 0.28714 0.76491 0.0
C1727 C 0.20632 0.29629 0.78061 0.0
C1728 C 0.21411 0.27601 0.75871 0.0
C1729 C 0.22851 0.27394 0.76802 0.0
C1730 C 0.2318 0.28313 0.78363 0.0
C1731 C 0.22072 0.29414 0.78998 0.0
C1732 C 0.24018 0.26225 0.76129 0.0
C1733 C 0.2548 0.26776 0.75478 0.0
C1734 C 0.23653 0.24594 0.76017 0.0
C1735 C 0.22141 0.23945 0.76736 0.0
C1736 C 0.21688 0.24213 0.7857 0.0
C1737 C 0.20256 0.23609 0.79234 0.0
C1738 C 0.19272 0.22725 0.7808 0.0
C1739 C 0.1972 0.22439 0.7626 0.0
C1740 C 0.2115 0.23043 0.75589 0.0
C1741 C 0.29989 0.21756 0.738 0.0
C1742 C 0.2953 0.20712 0.7239 0.0
C1743 C 0.28912 0.22847 0.74519 0.0
C1744 C 0.27363 0.22933 0.73827 0.0
C1745 C 0.26898 0.21887 0.72428 0.0
C1746 C 0.2797 0.20788 0.71716 0.0
C1747 C 0.26221 0.24102 0.74573 0.0
C1748 C 0.24759 0.23553 0.75237 0.0
C1749 C 0.26579 0.25738 0.74677 0.0
C1750 C 0.28053 0.26409 0.73882 0.0
C1751 C 0.28441 0.26144 0.72026 0.0
C1752 C 0.29835 0.26771 0.71288 0.0
C1753 C 0.30845 0.27677 0.72388 0.0
C1754 C 0.30462 0.2796 0.74227 0.0
C1755 C 0.2907 0.27333 0.74973 0.0
H1756 H 0.31924 0.28162 0.71813 0.0
H1757 H 0.18164 0.22257 0.78596 0.0
H1758 H 0.70817 0.19239 0.7511 0.0
H1759 H 0.72714 0.21174 0.73929 0.0
H1760 H 0.72153 0.2397 0.78851 0.0
H1761 H 0.70214 0.22065 0.80016 0.0
H1762 H 0.72145 0.25807 0.7582 0.0
H1763 H 0.75381 0.21654 0.78284 0.0
H1764 H 0.76303 0.18904 0.7869 0.0
H1765 H 0.77495 0.18648 0.72959 0.0
H1766 H 0.76558 0.21391 0.72513 0.0
H1767 H 0.79031 0.30587 0.74842 0.0
H1768 H 0.7707 0.28683 0.75965 0.0
H1769 H 0.77467 0.26045 0.70907 0.0
H1770 H 0.79445 0.27934 0.69784 0.0
H1771 H 0.77556 0.24134 0.73989 0.0
H1772 H 0.74332 0.28323 0.71555 0.0
H1773 H 0.73434 0.31084 0.71192 0.0
H1774 H 0.72249 0.31286 0.76928 0.0
H1775 H 0.73163 0.28531 0.77332 0.0
C1776 C 0.71085 0.20274 0.75933 0.0
C1777 C 0.7037 0.20497 0.77659 0.0
C1778 C 0.7218 0.2137 0.75264 0.0
C1779 C 0.72588 0.22705 0.76313 0.0
C1780 C 0.71859 0.22944 0.78024 0.0
C1781 C 0.70763 0.21848 0.78694 0.0
C1782 C 0.73776 0.23851 0.75625 0.0
C1783 C 0.73335 0.25446 0.75442 0.0
C1784 C 0.75317 0.23371 0.75098 0.0
C1785 C 0.75884 0.21722 0.75362 0.0
C1786 C 0.75828 0.21007 0.77107 0.0
C1787 C 0.76355 0.1945 0.77345 0.0
C1788 C 0.76953 0.18601 0.7585 0.0
C1789 C 0.77029 0.19307 0.74115 0.0
C1790 C 0.76501 0.20863 0.73869 0.0
C1791 C 0.78705 0.29597 0.73974 0.0
C1792 C 0.79387 0.29409 0.72225 0.0
C1793 C 0.77578 0.28518 0.74611 0.0
C1794 C 0.77116 0.27233 0.73511 0.0
C1795 C 0.77806 0.27033 0.71772 0.0
C1796 C 0.78926 0.28117 0.71129 0.0
C1797 C 0.75924 0.26088 0.74184 0.0
C1798 C 0.76365 0.24494 0.74365 0.0
C1799 C 0.74386 0.2657 0.74717 0.0
C1800 C 0.73831 0.28225 0.74477 0.0
C1801 C 0.73893 0.2896 0.72743 0.0
C1802 C 0.73378 0.30523 0.72529 0.0
C1803 C 0.72789 0.31361 0.74037 0.0
C1804 C 0.72708 0.30636 0.75762 0.0
C1805 C 0.73223 0.29073 0.75983 0.0
H1806 H 0.7239 0.32572 0.73869 0.0
H1807 H 0.77361 0.17396 0.76037 0.0
H1808 H 0.17289 0.35156 0.92302 0.0
H1809 H 0.17315 0.35128 0.95668 0.0
H1810 H 0.12198 0.35029 0.95714 0.0
H1811 H 0.12178 0.35144 0.92351 0.0
H1812 H 0.13086 0.36946 0.9817 0.0
H1813 H 0.14653 0.3166 0.9667 0.0
H1814 H 0.16229 0.29567 0.9517 0.0
H1815 H 0.20424 0.31244 0.9788 0.0
H1816 H 0.18878 0.33362 0.99378 0.0
H1817 H 0.123 0.34265 0.07459 0.0
H1818 H 0.1235 0.34278 0.04104 0.0
H1819 H 0.17168 0.35963 0.04185 0.0
H1820 H 0.1711 0.3604 0.07542 0.0
H1821 H 0.16452 0.33228 0.0173 0.0
H1822 H 0.14695 0.38534 0.03241 0.0
H1823 H 0.12965 0.40467 0.04798 0.0
H1824 H 0.08901 0.38491 0.02087 0.0
H1825 H 0.10607 0.36529 0.00535 0.0
C1826 C 0.16174 0.35122 0.93039 0.0
C1827 C 0.14732 0.35149 0.9208 0.0
C1828 C 0.16187 0.35097 0.94959 0.0
C1829 C 0.14758 0.35048 0.95952 0.0
C1830 C 0.13317 0.35068 0.94985 0.0
C1831 C 0.13304 0.3513 0.93066 0.0
C1832 C 0.14761 0.35019 0.97996 0.0
C1833 C 0.13807 0.36115 0.98941 0.0
C1834 C 0.15718 0.33954 0.99017 0.0
C1835 C 0.16652 0.32679 0.98122 0.0
C1836 C 0.15914 0.3159 0.96935 0.0
C1837 C 0.16801 0.30398 0.96088 0.0
C1838 C 0.18426 0.30275 0.96426 0.0
C1839 C 0.19166 0.31342 0.97617 0.0
C1840 C 0.18284 0.32538 0.98467 0.0
C1841 C 0.13365 0.34664 0.06772 0.0
C1842 C 0.14699 0.35161 0.07783 0.0
C1843 C 0.13394 0.34655 0.04853 0.0
C1844 C 0.14762 0.35122 0.03906 0.0
C1845 C 0.16105 0.3559 0.04898 0.0
C1846 C 0.1607 0.35624 0.06818 0.0
C1847 C 0.14779 0.35145 0.01876 0.0
C1848 C 0.15734 0.34052 0.00943 0.0
C1849 C 0.13801 0.36187 0.00866 0.0
C1850 C 0.12777 0.37374 0.01787 0.0
C1851 C 0.13431 0.38502 0.0299 0.0
C1852 C 0.12455 0.39605 0.03869 0.0
C1853 C 0.10824 0.39599 0.03545 0.0
C1854 C 0.10165 0.38493 0.02338 0.0
C1855 C 0.11136 0.37386 0.01457 0.0
H1856 H 0.1007 0.40454 0.04227 0.0
H1857 H 0.19111 0.29351 0.95768 0.0
H1858 H 0.65939 0.12368 0.92283 0.0
H1859 H 0.65986 0.1236 0.95637 0.0
H1860 H 0.637 0.16931 0.95708 0.0
H1861 H 0.63722 0.16987 0.92351 0.0
H1862 H 0.66007 0.16839 0.98168 0.0
H1863 H 0.61635 0.13469 0.96559 0.0
H1864 H 0.60322 0.11239 0.94986 0.0
H1865 H 0.63426 0.07955 0.977 0.0
H1866 H 0.64772 0.10169 0.99271 0.0
H1867 H 0.63485 0.16786 0.07473 0.0
H1868 H 0.63571 0.16813 0.04114 0.0
H1869 H 0.66009 0.12321 0.04141 0.0
H1870 H 0.6593 0.12287 0.07502 0.0
H1871 H 0.63659 0.12357 0.01639 0.0
H1872 H 0.68002 0.15747 0.03284 0.0
H1873 H 0.69293 0.17988 0.0486 0.0
H1874 H 0.66209 0.2125 0.02083 0.0
H1875 H 0.64884 0.19025 0.00509 0.0
C1876 C 0.65465 0.13383 0.93009 0.0
C1877 C 0.64823 0.14677 0.92044 0.0
C1878 C 0.65475 0.13367 0.94928 0.0
C1879 C 0.64823 0.14634 0.95923 0.0
C1880 C 0.64202 0.15937 0.94967 0.0
C1881 C 0.64201 0.15959 0.93047 0.0
C1882 C 0.64791 0.14603 0.97962 0.0
C1883 C 0.65475 0.15869 0.98927 0.0
C1884 C 0.64129 0.13319 0.98952 0.0
C1885 C 0.63314 0.11986 0.98019 0.0
C1886 C 0.62045 0.12272 0.9681 0.0
C1887 C 0.61294 0.11011 0.95921 0.0
C1888 C 0.61793 0.09457 0.96239 0.0
C1889 C 0.63041 0.0916 0.97453 0.0
C1890 C 0.63798 0.10417 0.98345 0.0
C1891 C 0.64053 0.15812 0.06764 0.0
C1892 C 0.64705 0.14537 0.07753 0.0
C1893 C 0.641 0.15827 0.04846 0.0
C1894 C 0.64812 0.14577 0.03879 0.0
C1895 C 0.65453 0.13297 0.0486 0.0
C1896 C 0.65402 0.13278 0.0678 0.0
C1897 C 0.64872 0.14595 0.01843 0.0
C1898 C 0.64193 0.13326 0.00879 0.0
C1899 C 0.65534 0.15878 0.00854 0.0
C1900 C 0.66335 0.17218 0.01792 0.0
C1901 C 0.67591 0.16941 0.0302 0.0
C1902 C 0.68331 0.18208 0.03911 0.0
C1903 C 0.67831 0.1976 0.03575 0.0
C1904 C 0.66593 0.20047 0.02343 0.0
C1905 C 0.65849 0.18784 0.0145 0.0
H1906 H 0.68404 0.20739 0.04267 0.0
H1907 H 0.6121 0.08482 0.95549 0.0
H1908 H 0.82891 0.65708 0.92405 0.0
H1909 H 0.82879 0.65797 0.95766 0.0
H1910 H 0.87487 0.63586 0.95876 0.0
H1911 H 0.87504 0.6349 0.92517 0.0
H1912 H 0.85562 0.62256 0.98338 0.0
H1913 H 0.87041 0.67556 0.96677 0.0
H1914 H 0.86765 0.7012 0.95084 0.0
H1915 H 0.82316 0.70922 0.9779 0.0
H1916 H 0.82555 0.68351 0.99381 0.0
H1917 H 0.87574 0.63869 0.07606 0.0
H1918 H 0.87536 0.63854 0.04244 0.0
H1919 H 0.82815 0.6581 0.04289 0.0
H1920 H 0.82856 0.65857 0.07656 0.0
H1921 H 0.84748 0.67274 0.01763 0.0
H1922 H 0.83302 0.61972 0.0345 0.0
H1923 H 0.83607 0.59417 0.05055 0.0
H1924 H 0.88036 0.5863 0.02301 0.0
H1925 H 0.8777 0.61193 0.00699 0.0
C1926 C 0.83907 0.65253 0.93146 0.0
C1927 C 0.852 0.64595 0.92197 0.0
C1928 C 0.83898 0.65304 0.95065 0.0
C1929 C 0.8519 0.64713 0.96071 0.0
C1930 C 0.86477 0.64046 0.95127 0.0
C1931 C 0.86484 0.63988 0.93209 0.0
C1932 C 0.85194 0.64774 0.98108 0.0
C1933 C 0.85405 0.63356 0.99086 0.0
C1934 C 0.84952 0.66205 0.99084 0.0
C1935 C 0.84808 0.67754 0.98134 0.0
C1936 C 0.85998 0.68273 0.96921 0.0
C1937 C 0.85849 0.69729 0.96021 0.0
C1938 C 0.84522 0.70681 0.96331 0.0
C1939 C 0.83342 0.70182 0.97548 0.0
C1940 C 0.83484 0.68726 0.98451 0.0
C1941 C 0.86534 0.6431 0.069 0.0
C1942 C 0.85216 0.64861 0.07893 0.0
C1943 C 0.86509 0.64289 0.04981 0.0
C1944 C 0.85166 0.64816 0.04021 0.0
C1945 C 0.8386 0.65393 0.05007 0.0
C1946 C 0.83881 0.65408 0.06927 0.0
C1947 C 0.85125 0.64758 0.01987 0.0
C1948 C 0.84904 0.66174 0.01012 0.0
C1949 C 0.85363 0.63327 0.01013 0.0
C1950 C 0.85523 0.61782 0.01968 0.0
C1951 C 0.84348 0.61261 0.03198 0.0
C1952 C 0.84512 0.5981 0.04105 0.0
C1953 C 0.85842 0.58864 0.03783 0.0
C1954 C 0.87008 0.59365 0.0255 0.0
C1955 C 0.8685 0.60816 0.01641 0.0
H1956 H 0.85967 0.57741 0.04487 0.0
H1957 H 0.84409 0.71808 0.95633 0.0
H1958 H 0.36022 0.82841 0.07503 0.0
H1959 H 0.35946 0.82733 0.04153 0.0
H1960 H 0.33749 0.87346 0.04006 0.0
H1961 H 0.33722 0.87419 0.07354 0.0
H1962 H 0.32444 0.8556 0.01537 0.0
H1963 H 0.37817 0.86777 0.03252 0.0
H1964 H 0.4035 0.86345 0.04868 0.0
H1965 H 0.40918 0.81877 0.02125 0.0
H1966 H 0.38378 0.82274 0.0051 0.0
H1967 H 0.36949 0.86918 0.92352 0.0
H1968 H 0.36865 0.86867 0.9571 0.0
H1969 H 0.33214 0.83294 0.95525 0.0
H1970 H 0.33295 0.83336 0.92164 0.0
H1971 H 0.3745 0.8458 0.98147 0.0
H1972 H 0.30679 0.83899 0.99126 0.0
H1973 H 0.282 0.84596 0.97518 0.0
H1974 H 0.3054 0.88493 0.94869 0.0
H1975 H 0.33024 0.87833 0.96479 0.0
C1976 C 0.35496 0.83822 0.06763 0.0
C1977 C 0.3489 0.85146 0.07705 0.0
C1978 C 0.35472 0.83766 0.04843 0.0
C1979 C 0.3487 0.85044 0.03825 0.0
C1980 C 0.34228 0.86349 0.04761 0.0
C1981 C 0.34233 0.86397 0.06679 0.0
C1982 C 0.34935 0.85045 0.01786 0.0
C1983 C 0.33538 0.85341 0.00797 0.0
C1984 C 0.36367 0.84783 0.00817 0.0
C1985 C 0.37901 0.84549 0.01774 0.0
C1986 C 0.38478 0.85699 0.03002 0.0
C1987 C 0.39915 0.85461 0.03917 0.0
C1988 C 0.40793 0.84083 0.03602 0.0
C1989 C 0.40237 0.82943 0.02368 0.0
C1990 C 0.38799 0.83174 0.01452 0.0
C1991 C 0.36137 0.86112 0.93026 0.0
C1992 C 0.35125 0.85134 0.91992 0.0
C1993 C 0.36089 0.86086 0.94944 0.0
C1994 C 0.35025 0.85087 0.95866 0.0
C1995 C 0.34027 0.84094 0.9484 0.0
C1996 C 0.34072 0.84121 0.92921 0.0
C1997 C 0.34959 0.8509 0.97902 0.0
C1998 C 0.36355 0.84791 0.98889 0.0
C1999 C 0.33534 0.85386 0.98869 0.0
C2000 C 0.32041 0.85804 0.97908 0.0
C2001 C 0.30662 0.84907 0.98205 0.0
C2002 C 0.29256 0.85296 0.97293 0.0
C2003 C 0.29214 0.86584 0.96087 0.0
C2004 C 0.30576 0.87491 0.95797 0.0
C2005 C 0.31983 0.87109 0.96707 0.0
H2006 H 0.28125 0.86883 0.95382 0.0
H2007 H 0.41905 0.83901 0.04312 0.0
H2008 H 0.125 0.63271 0.57487 0.0
H2009 H 0.12532 0.63266 0.54128 0.0
H2010 H 0.16824 0.6604 0.54164 0.0
H2011 H 0.16803 0.66045 0.57528 0.0
H2012 H 0.1474 0.67156 0.51677 0.0
H2013 H 0.16953 0.62114 0.53243 0.0
H2014 H 0.17066 0.59518 0.54793 0.0
H2015 H 0.1278 0.58098 0.52075 0.0
H2016 H 0.12629 0.60696 0.50528 0.0
H2017 H 0.16794 0.65891 0.42301 0.0
H2018 H 0.16818 0.65911 0.45666 0.0
H2019 H 0.12408 0.6333 0.4574 0.0
H2020 H 0.1239 0.63283 0.42373 0.0
H2021 H 0.14598 0.62118 0.48164 0.0
H2022 H 0.12398 0.67196 0.46614 0.0
H2023 H 0.12323 0.69791 0.45061 0.0
H2024 H 0.16651 0.71136 0.47743 0.0
H2025 H 0.16763 0.68538 0.49293 0.0
C2026 C 0.13459 0.63868 0.56781 0.0
C2027 C 0.14654 0.64651 0.57774 0.0
C2028 C 0.13474 0.63866 0.54862 0.0
C2029 C 0.14691 0.64636 0.53897 0.0
C2030 C 0.15873 0.65439 0.54882 0.0
C2031 C 0.15858 0.65444 0.56803 0.0
C2032 C 0.14724 0.64608 0.51861 0.0
C2033 C 0.14732 0.66054 0.50908 0.0
C2034 C 0.14682 0.63171 0.5086 0.0
C2035 C 0.14771 0.61605 0.51784 0.0
C2036 C 0.16028 0.61253 0.52987 0.0
C2037 C 0.161 0.5978 0.53863 0.0
C2038 C 0.14929 0.58645 0.53536 0.0
C2039 C 0.13685 0.58979 0.52329 0.0
C2040 C 0.13606 0.60451 0.51451 0.0
C2041 C 0.15835 0.65319 0.43035 0.0
C2042 C 0.14588 0.64588 0.42076 0.0
C2043 C 0.15844 0.65342 0.44955 0.0
C2044 C 0.14608 0.64634 0.45949 0.0
C2045 C 0.13371 0.63887 0.44996 0.0
C2046 C 0.13356 0.63871 0.43076 0.0
C2047 C 0.14609 0.64664 0.47984 0.0
C2048 C 0.14608 0.63219 0.48935 0.0
C2049 C 0.14664 0.66101 0.48982 0.0
C2050 C 0.14597 0.67666 0.48055 0.0
C2051 C 0.13341 0.6804 0.46861 0.0
C2052 C 0.1329 0.69512 0.45983 0.0
C2053 C 0.14484 0.70626 0.46299 0.0
C2054 C 0.15728 0.70271 0.47497 0.0
C2055 C 0.15785 0.68799 0.48377 0.0
H2056 H 0.14442 0.71766 0.45619 0.0
H2057 H 0.14987 0.57506 0.54215 0.0
H2058 H 0.36562 0.12782 0.5766 0.0
H2059 H 0.3655 0.12814 0.54299 0.0
H2060 H 0.33612 0.16999 0.54358 0.0
H2061 H 0.33598 0.16954 0.57723 0.0
H2062 H 0.32576 0.15002 0.5186 0.0
H2063 H 0.37633 0.17181 0.53416 0.0
H2064 H 0.40237 0.1728 0.54948 0.0
H2065 H 0.41633 0.13001 0.52198 0.0
H2066 H 0.39028 0.12865 0.50667 0.0
H2067 H 0.33854 0.17043 0.4246 0.0
H2068 H 0.33855 0.17095 0.45828 0.0
H2069 H 0.36323 0.12621 0.4593 0.0
H2070 H 0.36343 0.12571 0.42564 0.0
H2071 H 0.37601 0.14837 0.48325 0.0
H2072 H 0.32481 0.12687 0.468 0.0
H2073 H 0.29883 0.12662 0.45252 0.0
H2074 H 0.28623 0.17014 0.47937 0.0
H2075 H 0.31225 0.17076 0.49481 0.0
C2076 C 0.35921 0.13714 0.56954 0.0
C2077 C 0.35087 0.1487 0.5795 0.0
C2078 C 0.35917 0.13732 0.55035 0.0
C2079 C 0.35101 0.14924 0.54076 0.0
C2080 C 0.34251 0.16069 0.55069 0.0
C2081 C 0.34242 0.16042 0.56989 0.0
C2082 C 0.35124 0.14966 0.52037 0.0
C2083 C 0.33676 0.1499 0.51089 0.0
C2084 C 0.36559 0.14923 0.51027 0.0
C2085 C 0.3813 0.15005 0.5194 0.0
C2086 C 0.38491 0.16255 0.53148 0.0
C2087 C 0.39968 0.16319 0.54015 0.0
C2088 C 0.41098 0.15146 0.53674 0.0
C2089 C 0.40755 0.13908 0.52462 0.0
C2090 C 0.39279 0.13838 0.51593 0.0
C2091 C 0.34405 0.16076 0.43202 0.0
C2092 C 0.35094 0.148 0.42252 0.0
C2093 C 0.34395 0.16102 0.45122 0.0
C2094 C 0.35078 0.14855 0.46124 0.0
C2095 C 0.35786 0.13592 0.4518 0.0
C2096 C 0.35787 0.13559 0.43261 0.0
C2097 C 0.35055 0.14867 0.48158 0.0
C2098 C 0.36503 0.14854 0.49102 0.0
C2099 C 0.33622 0.14934 0.49162 0.0
C2100 C 0.32054 0.14895 0.48241 0.0
C2101 C 0.31656 0.13646 0.47048 0.0
C2102 C 0.30181 0.13623 0.46174 0.0
C2103 C 0.2909 0.14838 0.46492 0.0
C2104 C 0.2947 0.16075 0.47689 0.0
C2105 C 0.30944 0.16104 0.48565 0.0
H2106 H 0.27949 0.14818 0.45814 0.0
H2107 H 0.42241 0.15197 0.54347 0.0
H2108 H 0.87468 0.33872 0.42539 0.0
H2109 H 0.87399 0.33833 0.45897 0.0
H2110 H 0.82774 0.36008 0.45815 0.0
H2111 H 0.82856 0.36098 0.42455 0.0
H2112 H 0.84684 0.37395 0.4831 0.0
H2113 H 0.83176 0.32091 0.46733 0.0
H2114 H 0.83441 0.29503 0.45194 0.0
H2115 H 0.8785 0.28691 0.47984 0.0
H2116 H 0.87623 0.31286 0.49522 0.0
H2117 H 0.82844 0.36058 0.57695 0.0
H2118 H 0.82799 0.36022 0.54335 0.0
H2119 H 0.87408 0.33811 0.54275 0.0
H2120 H 0.87459 0.33841 0.57637 0.0
H2121 H 0.85448 0.32427 0.51849 0.0
H2122 H 0.86985 0.37748 0.53373 0.0
H2123 H 0.86729 0.40338 0.54912 0.0
H2124 H 0.82273 0.41119 0.52212 0.0
H2125 H 0.82492 0.38522 0.50676 0.0
C2126 C 0.86441 0.34353 0.43236 0.0
C2127 C 0.85167 0.34987 0.42231 0.0
C2128 C 0.86396 0.34315 0.45154 0.0
C2129 C 0.85073 0.34902 0.46104 0.0
C2130 C 0.83803 0.35544 0.45107 0.0
C2131 C 0.83847 0.35582 0.43188 0.0
C2132 C 0.85028 0.34871 0.4814 0.0
C2133 C 0.84827 0.36305 0.49084 0.0
C2134 C 0.85252 0.33454 0.49147 0.0
C2135 C 0.85389 0.3189 0.48229 0.0
C2136 C 0.84209 0.31366 0.47008 0.0
C2137 C 0.84351 0.29897 0.46137 0.0
C2138 C 0.85664 0.28935 0.46487 0.0
C2139 C 0.86835 0.29438 0.47712 0.0
C2140 C 0.86699 0.30907 0.48585 0.0
C2141 C 0.83852 0.35574 0.56966 0.0
C2142 C 0.85159 0.34959 0.5793 0.0
C2143 C 0.83824 0.35552 0.55047 0.0
C2144 C 0.85109 0.34931 0.54055 0.0
C2145 C 0.86404 0.34294 0.55014 0.0
C2146 C 0.8643 0.34309 0.56934 0.0
C2147 C 0.85107 0.34952 0.52018 0.0
C2148 C 0.853 0.33515 0.51074 0.0
C2149 C 0.84878 0.36368 0.5101 0.0
C2150 C 0.84748 0.37934 0.51924 0.0
C2151 C 0.85945 0.38467 0.53118 0.0
C2152 C 0.85807 0.39937 0.53988 0.0
C2153 C 0.84483 0.40891 0.53664 0.0
C2154 C 0.83296 0.40378 0.52464 0.0
C2155 C 0.83427 0.38908 0.51592 0.0
H2156 H 0.84379 0.42028 0.54339 0.0
H2157 H 0.85772 0.27797 0.45812 0.0
H2158 H 0.62728 0.83545 0.57347 0.0
H2159 H 0.62797 0.83554 0.53983 0.0
H2160 H 0.66875 0.86631 0.54095 0.0
H2161 H 0.66802 0.86641 0.57463 0.0
H2162 H 0.64571 0.87609 0.51619 0.0
H2163 H 0.67399 0.82853 0.53141 0.0
H2164 H 0.67798 0.80274 0.54663 0.0
H2165 H 0.63726 0.78395 0.51878 0.0
H2166 H 0.63289 0.80971 0.50358 0.0
H2167 H 0.66652 0.86882 0.42212 0.0
H2168 H 0.66698 0.86856 0.45573 0.0
H2169 H 0.62899 0.83436 0.45615 0.0
H2170 H 0.62857 0.83448 0.42252 0.0
H2171 H 0.65114 0.82638 0.48033 0.0
H2172 H 0.62229 0.87366 0.46561 0.0
H2173 H 0.61768 0.89943 0.45056 0.0
H2174 H 0.65856 0.91876 0.47759 0.0
H2175 H 0.66355 0.89302 0.49262 0.0
C2176 C 0.63634 0.84229 0.56654 0.0
C2177 C 0.64761 0.85091 0.57665 0.0
C2178 C 0.63679 0.84224 0.54735 0.0
C2179 C 0.64849 0.85084 0.53794 0.0
C2180 C 0.65966 0.85957 0.54798 0.0
C2181 C 0.6593 0.85953 0.56718 0.0
C2182 C 0.64894 0.85082 0.51761 0.0
C2183 C 0.64713 0.86527 0.50831 0.0
C2184 C 0.65039 0.83663 0.50742 0.0
C2185 C 0.65302 0.8211 0.5165 0.0
C2186 C 0.66581 0.81894 0.52865 0.0
C2187 C 0.66815 0.80432 0.53725 0.0
C2188 C 0.65786 0.79173 0.53372 0.0
C2189 C 0.64521 0.79372 0.52153 0.0
C2190 C 0.64281 0.80833 0.5129 0.0
C2191 C 0.6582 0.86133 0.42939 0.0
C2192 C 0.64747 0.85172 0.4197 0.0
C2193 C 0.65847 0.86118 0.44859 0.0
C2194 C 0.64788 0.85159 0.45845 0.0
C2195 C 0.63728 0.84184 0.44881 0.0
C2196 C 0.63707 0.8419 0.42961 0.0
C2197 C 0.64786 0.85167 0.47884 0.0
C2198 C 0.64975 0.83723 0.48816 0.0
C2199 C 0.64638 0.86587 0.48906 0.0
C2200 C 0.64338 0.88137 0.48009 0.0
C2201 C 0.63037 0.88337 0.46824 0.0
C2202 C 0.62768 0.89798 0.45973 0.0
C2203 C 0.63785 0.91071 0.46308 0.0
C2204 C 0.65071 0.90888 0.47499 0.0
C2205 C 0.65347 0.89429 0.48351 0.0
H2206 H 0.63574 0.92201 0.45648 0.0
H2207 H 0.65969 0.78041 0.54039 0.0
H2208 H 0.17385 0.56925 0.25446 0.0
H2209 H 0.17682 0.54285 0.24126 0.0
H2210 H 0.15368 0.52256 0.28861 0.0
H2211 H 0.15148 0.5488 0.3024 0.0
H2212 H 0.17745 0.50443 0.27849 0.0
H2213 H 0.13377 0.5298 0.24748 0.0
H2214 H 0.12076 0.55087 0.22948 0.0
H2215 H 0.15339 0.54321 0.18507 0.0
H2216 H 0.16673 0.52221 0.20292 0.0
H2217 H 0.14806 0.43228 0.24321 0.0
H2218 H 0.15119 0.45895 0.25568 0.0
H2219 H 0.17754 0.47275 0.20745 0.0
H2220 H 0.17415 0.4461 0.19466 0.0
H2221 H 0.15477 0.4944 0.21664 0.0
H2222 H 0.19671 0.46688 0.24729 0.0
H2223 H 0.20872 0.44539 0.26554 0.0
H2224 H 0.17831 0.45669 0.311 0.0
H2225 H 0.16595 0.47811 0.29292 0.0
C2226 C 0.16966 0.55916 0.26225 0.0
C2227 C 0.16231 0.5612 0.27946 0.0
C2228 C 0.17121 0.54407 0.25457 0.0
C2229 C 0.16521 0.53075 0.26378 0.0
C2230 C 0.15832 0.53267 0.28119 0.0
C2231 C 0.1569 0.54773 0.28897 0.0
C2232 C 0.16568 0.51483 0.25514 0.0
C2233 C 0.17238 0.50222 0.26503 0.0
C2234 C 0.1594 0.512 0.23738 0.0
C2235 C 0.15135 0.52456 0.22661 0.0
C2236 C 0.13824 0.53269 0.23393 0.0
C2237 C 0.1308 0.5446 0.22374 0.0
C2238 C 0.13628 0.54841 0.20616 0.0
C2239 C 0.14918 0.54027 0.1987 0.0
C2240 C 0.15668 0.52835 0.20884 0.0
C2241 C 0.15447 0.44101 0.23521 0.0
C2242 C 0.16083 0.43711 0.21793 0.0
C2243 C 0.15638 0.45619 0.24244 0.0
C2244 C 0.16475 0.46777 0.23258 0.0
C2245 C 0.17111 0.46395 0.21531 0.0
C2246 C 0.16925 0.44871 0.20809 0.0
C2247 C 0.16634 0.484 0.24011 0.0
C2248 C 0.16001 0.49666 0.23001 0.0
C2249 C 0.17284 0.48684 0.25773 0.0
C2250 C 0.18032 0.47403 0.26869 0.0
C2251 C 0.1925 0.46471 0.26113 0.0
C2252 C 0.19939 0.45255 0.27145 0.0
C2253 C 0.19426 0.44965 0.2894 0.0
C2254 C 0.18226 0.45894 0.29709 0.0
C2255 C 0.17533 0.47111 0.28682 0.0
H2256 H 0.1996 0.44023 0.29737 0.0
H2257 H 0.1305 0.55764 0.1983 0.0
H2258 H 0.56866 0.15937 0.24825 0.0
H2259 H 0.54218 0.16165 0.26153 0.0
H2260 H 0.5219 0.16316 0.20713 0.0
H2261 H 0.54838 0.16067 0.19369 0.0
H2262 H 0.50814 0.1849 0.23083 0.0
H2263 H 0.521 0.12947 0.23025 0.0
H2264 H 0.53749 0.10598 0.23661 0.0
H2265 H 0.5345 0.11521 0.29456 0.0
H2266 H 0.51817 0.1389 0.28852 0.0
H2267 H 0.42887 0.16392 0.25419 0.0
H2268 H 0.45551 0.16598 0.24128 0.0
H2269 H 0.47552 0.16158 0.29563 0.0
H2270 H 0.44888 0.15955 0.30866 0.0
H2271 H 0.48959 0.14188 0.27205 0.0
H2272 H 0.47598 0.19693 0.27277 0.0
H2273 H 0.45954 0.22045 0.26639 0.0
H2274 H 0.46381 0.21207 0.20837 0.0
H2275 H 0.4801 0.18837 0.21442 0.0
C2276 C 0.55857 0.16012 0.23909 0.0
C2277 C 0.5606 0.15966 0.21991 0.0
C2278 C 0.54346 0.16149 0.24671 0.0
C2279 C 0.53009 0.16238 0.2353 0.0
C2280 C 0.53209 0.16249 0.21615 0.0
C2281 C 0.54722 0.1611 0.20851 0.0
C2282 C 0.51401 0.16257 0.24341 0.0
C2283 C 0.50398 0.17543 0.23968 0.0
C2284 C 0.50877 0.15034 0.25524 0.0
C2285 C 0.5185 0.13605 0.25892 0.0
C2286 C 0.52396 0.12656 0.24434 0.0
C2287 C 0.53326 0.1132 0.24789 0.0
C2288 C 0.53707 0.10913 0.26598 0.0
C2289 C 0.53156 0.11839 0.28056 0.0
C2290 C 0.52227 0.13178 0.27708 0.0
C2291 C 0.43893 0.16368 0.26344 0.0
C2292 C 0.43678 0.16155 0.28245 0.0
C2293 C 0.45415 0.16485 0.25603 0.0
C2294 C 0.4675 0.16405 0.26751 0.0
C2295 C 0.46538 0.16219 0.28652 0.0
C2296 C 0.45017 0.16098 0.29394 0.0
C2297 C 0.48367 0.16427 0.25959 0.0
C2298 C 0.49373 0.15143 0.26329 0.0
C2299 C 0.48891 0.17652 0.24775 0.0
C2300 C 0.47913 0.19078 0.24406 0.0
C2301 C 0.4733 0.20003 0.25866 0.0
C2302 C 0.46403 0.21341 0.2551 0.0
C2303 C 0.4606 0.21773 0.23699 0.0
C2304 C 0.46646 0.2087 0.2224 0.0
C2305 C 0.47573 0.1953 0.22588 0.0
H2306 H 0.45342 0.22809 0.23426 0.0
H2307 H 0.54427 0.09878 0.2687 0.0
H2308 H 0.81698 0.55709 0.20966 0.0
H2309 H 0.81523 0.53028 0.22244 0.0
H2310 H 0.86331 0.53412 0.24215 0.0
H2311 H 0.86521 0.56069 0.22905 0.0
H2312 H 0.85929 0.50662 0.22688 0.0
H2313 H 0.83015 0.53766 0.27093 0.0
H2314 H 0.8094 0.55619 0.28125 0.0
H2315 H 0.77343 0.52453 0.26145 0.0
H2316 H 0.794 0.50589 0.25078 0.0
H2317 H 0.86239 0.44522 0.29219 0.0
H2318 H 0.86082 0.47154 0.27843 0.0
H2319 H 0.8159 0.45957 0.25387 0.0
H2320 H 0.81753 0.43298 0.26723 0.0
H2321 H 0.81679 0.49021 0.26999 0.0
H2322 H 0.84673 0.45857 0.22751 0.0
H2323 H 0.86798 0.44012 0.21842 0.0
H2324 H 0.90306 0.47341 0.23667 0.0
H2325 H 0.88201 0.49197 0.24614 0.0
C2326 C 0.82713 0.5522 0.2168 0.0
C2327 C 0.84125 0.56091 0.21833 0.0
C2328 C 0.82611 0.53692 0.22413 0.0
C2329 C 0.83909 0.53024 0.23342 0.0
C2330 C 0.85317 0.53899 0.23498 0.0
C2331 C 0.85425 0.55415 0.22748 0.0
C2332 C 0.83824 0.51404 0.24129 0.0
C2333 C 0.85007 0.50312 0.23646 0.0
C2334 C 0.82599 0.5093 0.25343 0.0
C2335 C 0.81362 0.52046 0.25987 0.0
C2336 C 0.81782 0.5347 0.26864 0.0
C2337 C 0.80609 0.54522 0.27458 0.0
C2338 C 0.79011 0.54156 0.27196 0.0
C2339 C 0.78582 0.52736 0.26344 0.0
C2340 C 0.79751 0.51681 0.25746 0.0
C2341 C 0.85221 0.44811 0.28377 0.0
C2342 C 0.84017 0.43691 0.28065 0.0
C2343 C 0.8513 0.46319 0.27601 0.0
C2344 C 0.83833 0.4674 0.26499 0.0
C2345 C 0.82601 0.45651 0.26235 0.0
C2346 C 0.82694 0.44135 0.27004 0.0
C2347 C 0.83799 0.48303 0.25582 0.0
C2348 C 0.82592 0.49376 0.26034 0.0
C2349 C 0.85009 0.48768 0.24352 0.0
C2350 C 0.86278 0.4766 0.23767 0.0
C2351 C 0.85897 0.46191 0.22971 0.0
C2352 C 0.87098 0.45144 0.22447 0.0
C2353 C 0.88686 0.45557 0.227 0.0
C2354 C 0.89076 0.47021 0.23473 0.0
C2355 C 0.87879 0.48072 0.24002 0.0
H2356 H 0.89614 0.44745 0.22294 0.0
H2357 H 0.78104 0.54971 0.27657 0.0
H2358 H 0.56938 0.8397 0.24895 0.0
H2359 H 0.54289 0.83695 0.23584 0.0
H2360 H 0.52347 0.8302 0.29011 0.0
H2361 H 0.54994 0.83318 0.30342 0.0
H2362 H 0.51038 0.80971 0.2638 0.0
H2363 H 0.5207 0.86539 0.27142 0.0
H2364 H 0.53614 0.88998 0.26785 0.0
H2365 H 0.53295 0.88599 0.20912 0.0
H2366 H 0.51768 0.86122 0.21234 0.0
H2367 H 0.42982 0.82843 0.24303 0.0
H2368 H 0.45657 0.826 0.25567 0.0
H2369 H 0.47626 0.83865 0.2029 0.0
H2370 H 0.44952 0.84136 0.19032 0.0
H2371 H 0.48939 0.85556 0.22872 0.0
H2372 H 0.47848 0.80028 0.22073 0.0
H2373 H 0.46331 0.77549 0.22406 0.0
H2374 H 0.46765 0.77835 0.28278 0.0
H2375 H 0.48268 0.80329 0.27982 0.0
C2376 C 0.55948 0.83768 0.25812 0.0
C2377 C 0.56174 0.83686 0.27726 0.0
C2378 C 0.54437 0.83602 0.25059 0.0
C2379 C 0.53123 0.83356 0.26204 0.0
C2380 C 0.53349 0.83209 0.28106 0.0
C2381 C 0.54862 0.83377 0.28863 0.0
C2382 C 0.51506 0.83337 0.25417 0.0
C2383 C 0.50568 0.81978 0.25629 0.0
C2384 C 0.50911 0.8464 0.24409 0.0
C2385 C 0.51818 0.86137 0.24212 0.0
C2386 C 0.52339 0.86969 0.25774 0.0
C2387 C 0.5321 0.88367 0.25578 0.0
C2388 C 0.53556 0.88952 0.23827 0.0
C2389 C 0.53028 0.88143 0.22268 0.0
C2390 C 0.52159 0.86742 0.22456 0.0
C2391 C 0.43988 0.83041 0.23406 0.0
C2392 C 0.43762 0.83512 0.21571 0.0
C2393 C 0.45515 0.82901 0.24129 0.0
C2394 C 0.46844 0.83203 0.2302 0.0
C2395 C 0.46619 0.8363 0.21173 0.0
C2396 C 0.45093 0.83786 0.20456 0.0
C2397 C 0.48464 0.83181 0.23812 0.0
C2398 C 0.49405 0.84541 0.23611 0.0
C2399 C 0.49058 0.81875 0.24823 0.0
C2400 C 0.48158 0.80374 0.25006 0.0
C2401 C 0.47609 0.7957 0.23436 0.0
C2402 C 0.46754 0.7816 0.23618 0.0
C2403 C 0.46448 0.77537 0.25362 0.0
C2404 C 0.47001 0.7832 0.26928 0.0
C2405 C 0.47856 0.79731 0.26754 0.0
H2406 H 0.45786 0.76446 0.255 0.0
H2407 H 0.54231 0.90035 0.23678 0.0
H2408 H 0.81563 0.56688 0.76457 0.0
H2409 H 0.81338 0.54065 0.75043 0.0
H2410 H 0.86028 0.52888 0.76947 0.0
H2411 H 0.8624 0.55463 0.7844 0.0
H2412 H 0.85417 0.523 0.73076 0.0
H2413 H 0.83171 0.51368 0.79134 0.0
H2414 H 0.81281 0.51874 0.8165 0.0
H2415 H 0.77392 0.50856 0.78032 0.0
H2416 H 0.79262 0.50366 0.75485 0.0
H2417 H 0.86496 0.44149 0.72238 0.0
H2418 H 0.86232 0.46869 0.73299 0.0
H2419 H 0.8124 0.46777 0.72027 0.0
H2420 H 0.81479 0.44013 0.71042 0.0
H2421 H 0.81703 0.48146 0.75249 0.0
H2422 H 0.83856 0.48799 0.6928 0.0
H2423 H 0.85665 0.48335 0.66674 0.0
H2424 H 0.89593 0.49961 0.69914 0.0
H2425 H 0.87812 0.50414 0.7255 0.0
C2426 C 0.82538 0.55864 0.76603 0.0
C2427 C 0.83924 0.56296 0.77558 0.0
C2428 C 0.8241 0.54371 0.75782 0.0
C2429 C 0.8367 0.53293 0.75888 0.0
C2430 C 0.85049 0.53714 0.76839 0.0
C2431 C 0.8517 0.55192 0.77682 0.0
C2432 C 0.83569 0.51723 0.74999 0.0
C2433 C 0.84614 0.51385 0.73554 0.0
C2434 C 0.82476 0.50559 0.75583 0.0
C2435 C 0.81355 0.5085 0.77114 0.0
C2436 C 0.81913 0.51268 0.7887 0.0
C2437 C 0.80845 0.51548 0.80303 0.0
C2438 C 0.79217 0.51403 0.79999 0.0
C2439 C 0.78653 0.50972 0.78264 0.0
C2440 C 0.79716 0.50692 0.76826 0.0
C2441 C 0.85336 0.44697 0.72201 0.0
C2442 C 0.84007 0.43858 0.71561 0.0
C2443 C 0.85192 0.46263 0.72785 0.0
C2444 C 0.83721 0.47037 0.72714 0.0
C2445 C 0.82388 0.46206 0.72082 0.0
C2446 C 0.8253 0.44631 0.71506 0.0
C2447 C 0.83585 0.48701 0.7335 0.0
C2448 C 0.82494 0.49062 0.74746 0.0
C2449 C 0.84621 0.49896 0.72702 0.0
C2450 C 0.857 0.4963 0.71118 0.0
C2451 C 0.85107 0.49047 0.69442 0.0
C2452 C 0.86128 0.48787 0.67959 0.0
C2453 C 0.87743 0.49116 0.6813 0.0
C2454 C 0.88341 0.49707 0.69784 0.0
C2455 C 0.87326 0.49967 0.71273 0.0
H2456 H 0.88531 0.48914 0.6698 0.0
H2457 H 0.78393 0.5162 0.81111 0.0
H2458 H 0.55167 0.84907 0.69424 0.0
H2459 H 0.52475 0.84825 0.7065 0.0
H2460 H 0.54107 0.82078 0.75278 0.0
H2461 H 0.56803 0.82117 0.74033 0.0
H2462 H 0.51232 0.81019 0.73956 0.0
H2463 H 0.53597 0.85955 0.75767 0.0
H2464 H 0.54995 0.88483 0.75265 0.0
H2465 H 0.51231 0.90077 0.71749 0.0
H2466 H 0.49821 0.87547 0.72209 0.0
H2467 H 0.44717 0.82605 0.79942 0.0
H2468 H 0.47342 0.82331 0.78551 0.0
H2469 H 0.45867 0.85266 0.74005 0.0
H2470 H 0.43243 0.85541 0.75384 0.0
H2471 H 0.48678 0.86187 0.75298 0.0
H2472 H 0.46285 0.81268 0.73515 0.0
H2473 H 0.44888 0.78738 0.74005 0.0
H2474 H 0.4868 0.77109 0.77457 0.0
H2475 H 0.5009 0.7964 0.77008 0.0
C2476 C 0.5495 0.84259 0.70684 0.0
C2477 C 0.562 0.83525 0.71637 0.0
C2478 C 0.53413 0.84225 0.7139 0.0
C2479 C 0.53098 0.83464 0.73067 0.0
C2480 C 0.54329 0.82677 0.73986 0.0
C2481 C 0.55869 0.82712 0.73281 0.0
C2482 C 0.515 0.83555 0.73899 0.0
C2483 C 0.50678 0.82147 0.74271 0.0
C2484 C 0.50771 0.85029 0.74277 0.0
C2485 C 0.51611 0.86556 0.74008 0.0
C2486 C 0.53073 0.8684 0.74875 0.0
C2487 C 0.53867 0.88274 0.746 0.0
C2488 C 0.53204 0.89438 0.73472 0.0
C2489 C 0.51744 0.89173 0.72621 0.0
C2490 C 0.50947 0.8774 0.72889 0.0
C2491 C 0.44947 0.83177 0.78636 0.0
C2492 C 0.43775 0.841 0.77776 0.0
C2493 C 0.46447 0.83019 0.77843 0.0
C2494 C 0.46796 0.83769 0.76168 0.0
C2495 C 0.45625 0.84682 0.75302 0.0
C2496 C 0.44128 0.84843 0.76095 0.0
C2497 C 0.48398 0.8365 0.75345 0.0
C2498 C 0.49226 0.85057 0.7498 0.0
C2499 C 0.49129 0.82174 0.74975 0.0
C2500 C 0.48286 0.8065 0.75243 0.0
C2501 C 0.46815 0.80376 0.74391 0.0
C2502 C 0.46022 0.78941 0.74659 0.0
C2503 C 0.46693 0.77765 0.75765 0.0
C2504 C 0.48161 0.78021 0.76602 0.0
C2505 C 0.48958 0.79455 0.7634 0.0
H2506 H 0.46077 0.76655 0.7597 0.0
H2507 H 0.5382 0.90548 0.73261 0.0
H2508 H 0.1522 0.43266 0.74958 0.0
H2509 H 0.15619 0.45898 0.73669 0.0
H2510 H 0.17619 0.47479 0.78811 0.0
H2511 H 0.17133 0.44871 0.8015 0.0
H2512 H 0.15633 0.49579 0.77619 0.0
H2513 H 0.19943 0.46781 0.74907 0.0
H2514 H 0.21269 0.44627 0.73212 0.0
H2515 H 0.18525 0.45711 0.68403 0.0
H2516 H 0.17165 0.47858 0.70077 0.0
H2517 H 0.18167 0.5692 0.73895 0.0
H2518 H 0.18365 0.54236 0.7514 0.0
H2519 H 0.15575 0.52462 0.70623 0.0
H2520 H 0.15328 0.55143 0.69394 0.0
H2521 H 0.18196 0.50503 0.71572 0.0
H2522 H 0.13767 0.53175 0.74455 0.0
H2523 H 0.12511 0.55353 0.76181 0.0
H2524 H 0.15631 0.54505 0.80738 0.0
H2525 H 0.16923 0.52336 0.79026 0.0
C2526 C 0.15731 0.44175 0.75824 0.0
C2527 C 0.16137 0.43854 0.77663 0.0
C2528 C 0.15982 0.45676 0.75074 0.0
C2529 C 0.16672 0.46882 0.76133 0.0
C2530 C 0.17092 0.46564 0.77964 0.0
C2531 C 0.16827 0.45067 0.78722 0.0
C2532 C 0.1688 0.48495 0.75358 0.0
C2533 C 0.16222 0.49781 0.76314 0.0
C2534 C 0.17624 0.4876 0.73638 0.0
C2535 C 0.18442 0.47473 0.72623 0.0
C2536 C 0.19613 0.46553 0.73492 0.0
C2537 C 0.20373 0.45334 0.72534 0.0
C2538 C 0.19979 0.4503 0.70702 0.0
C2539 C 0.18828 0.45947 0.69822 0.0
C2540 C 0.18063 0.47166 0.70775 0.0
C2541 C 0.17595 0.5596 0.73165 0.0
C2542 C 0.16717 0.56252 0.71554 0.0
C2543 C 0.17719 0.54427 0.73872 0.0
C2544 C 0.16973 0.53158 0.72979 0.0
C2545 C 0.16163 0.53428 0.71327 0.0
C2546 C 0.16028 0.54962 0.70624 0.0
C2547 C 0.16943 0.51568 0.73832 0.0
C2548 C 0.17627 0.50293 0.72887 0.0
C2549 C 0.16237 0.51312 0.75569 0.0
C2550 C 0.15453 0.52606 0.76605 0.0
C2551 C 0.14194 0.53462 0.75819 0.0
C2552 C 0.13474 0.54693 0.76795 0.0
C2553 C 0.13994 0.5507 0.78566 0.0
C2554 C 0.15232 0.54213 0.79365 0.0
C2555 C 0.15958 0.52983 0.78393 0.0
H2556 H 0.13435 0.56024 0.7932 0.0
H2557 H 0.20569 0.44087 0.69963 0.0
H2558 H 0.44393 0.17616 0.70198 0.0
H2559 H 0.47035 0.1792 0.71528 0.0
H2560 H 0.45907 0.14418 0.75646 0.0
H2561 H 0.43244 0.14156 0.74373 0.0
H2562 H 0.47452 0.16845 0.77144 0.0
H2563 H 0.48131 0.13494 0.71839 0.0
H2564 H 0.47926 0.12783 0.6856 0.0
H2565 H 0.50745 0.16828 0.67109 0.0
H2566 H 0.5095 0.17574 0.70381 0.0
H2567 H 0.55022 0.14215 0.79964 0.0
H2568 H 0.52351 0.14476 0.78704 0.0
H2569 H 0.53973 0.18169 0.75062 0.0
H2570 H 0.56662 0.17893 0.76298 0.0
H2571 H 0.52207 0.15926 0.73279 0.0
H2572 H 0.51715 0.19122 0.78669 0.0
H2573 H 0.51944 0.19752 0.81968 0.0
H2574 H 0.48791 0.15925 0.83282 0.0
H2575 H 0.48561 0.15256 0.79992 0.0
C2576 C 0.447 0.16925 0.714 0.0
C2577 C 0.43611 0.15854 0.72172 0.0
C2578 C 0.46216 0.17089 0.72148 0.0
C2579 C 0.46675 0.16176 0.73672 0.0
C2580 C 0.4558 0.1513 0.74466 0.0
C2581 C 0.44064 0.14969 0.73724 0.0
C2582 C 0.48302 0.16288 0.74428 0.0
C2583 C 0.48491 0.16631 0.76303 0.0
C2584 C 0.49659 0.16049 0.73319 0.0
C2585 C 0.49541 0.15599 0.71352 0.0
C2586 C 0.48697 0.14238 0.7082 0.0
C2587 C 0.48582 0.13828 0.68963 0.0
C2588 C 0.49318 0.14762 0.67626 0.0
C2589 C 0.50174 0.16107 0.68145 0.0
C2590 C 0.5029 0.16524 0.70001 0.0
C2591 C 0.5481 0.15083 0.78895 0.0
C2592 C 0.5605 0.16032 0.78227 0.0
C2593 C 0.53282 0.1524 0.78188 0.0
C2594 C 0.52963 0.16352 0.76802 0.0
C2595 C 0.54195 0.17309 0.76138 0.0
C2596 C 0.55726 0.17158 0.76852 0.0
C2597 C 0.51354 0.16461 0.75999 0.0
C2598 C 0.51169 0.16158 0.74116 0.0
C2599 C 0.50001 0.16728 0.77103 0.0
C2600 C 0.5013 0.17131 0.79084 0.0
C2601 C 0.5108 0.18407 0.79662 0.0
C2602 C 0.51208 0.18772 0.81531 0.0
C2603 C 0.50385 0.17878 0.82834 0.0
C2604 C 0.49429 0.16617 0.82271 0.0
C2605 C 0.49297 0.16245 0.80404 0.0
H2606 H 0.50486 0.18163 0.8428 0.0
H2607 H 0.49228 0.14442 0.66189 0.0
H2608 H 0.63434 0.06197 0.76689 0.0
H2609 H 0.63606 0.03539 0.75376 0.0
H2610 H 0.68367 0.03069 0.77477 0.0
H2611 H 0.68218 0.0577 0.78722 0.0
H2612 H 0.68237 0.01809 0.74228 0.0
H2613 H 0.65088 0.01306 0.79639 0.0
H2614 H 0.62925 0.01944 0.81793 0.0
H2615 H 0.59487 0.00779 0.77658 0.0
H2616 H 0.6163 0.00155 0.75469 0.0
H2617 H 0.68045 0.93307 0.73234 0.0
H2618 H 0.68212 0.95993 0.74485 0.0
H2619 H 0.63823 0.97206 0.71798 0.0
H2620 H 0.63666 0.94544 0.705 0.0
H2621 H 0.63902 0.98 0.75524 0.0
H2622 H 0.67189 0.98565 0.70108 0.0
H2623 H 0.69424 0.97864 0.68083 0.0
H2624 H 0.72701 0.98799 0.72465 0.0
H2625 H 0.70482 0.99485 0.74525 0.0
C2626 C 0.64516 0.05524 0.76866 0.0
C2627 C 0.65807 0.06172 0.77819 0.0
C2628 C 0.64613 0.04004 0.76125 0.0
C2629 C 0.65985 0.03086 0.76368 0.0
C2630 C 0.67293 0.03751 0.77281 0.0
C2631 C 0.67208 0.05288 0.77993 0.0
C2632 C 0.66041 0.01432 0.75678 0.0
C2633 C 0.67301 0.0097 0.74537 0.0
C2634 C 0.64815 0.00335 0.76067 0.0
C2635 C 0.63521 0.00695 0.77385 0.0
C2636 C 0.63871 0.01195 0.79185 0.0
C2637 C 0.62648 0.01553 0.80413 0.0
C2638 C 0.6107 0.01405 0.79861 0.0
C2639 C 0.60711 0.00894 0.78083 0.0
C2640 C 0.61929 0.00536 0.76849 0.0
C2641 C 0.67129 0.94152 0.72883 0.0
C2642 C 0.65838 0.93706 0.71772 0.0
C2643 C 0.67224 0.95683 0.73606 0.0
C2644 C 0.6603 0.96794 0.73231 0.0
C2645 C 0.64751 0.9636 0.7211 0.0
C2646 C 0.6466 0.94836 0.71378 0.0
C2647 C 0.66078 0.98396 0.74053 0.0
C2648 C 0.64839 0.98842 0.75227 0.0
C2649 C 0.67335 0.99464 0.73717 0.0
C2650 C 0.68668 0.9906 0.72476 0.0
C2651 C 0.68385 0.98608 0.70644 0.0
C2652 C 0.69649 0.98216 0.69489 0.0
C2653 C 0.71203 0.98282 0.70146 0.0
C2654 C 0.71497 0.98746 0.71959 0.0
C2655 C 0.70236 0.99138 0.7312 0.0
H2656 H 0.7218 0.97978 0.6925 0.0
H2657 H 0.60125 0.01683 0.80814 0.0
H2658 H 0.93815 0.68251 0.78214 0.0
H2659 H 0.96527 0.68402 0.77021 0.0
H2660 H 0.96689 0.63305 0.76633 0.0
H2661 H 0.94001 0.63144 0.77859 0.0
H2662 H 0.99382 0.64512 0.78128 0.0
H2663 H 0.96046 0.65534 0.72859 0.0
H2664 H 0.93968 0.66949 0.71131 0.0
H2665 H 0.96598 0.71284 0.71592 0.0
H2666 H 0.98683 0.69898 0.73345 0.0
H2667 H 0.05729 0.63046 0.72138 0.0
H2668 H 0.03098 0.63255 0.73511 0.0
H2669 H 0.03455 0.68353 0.73431 0.0
H2670 H 0.06094 0.68152 0.72047 0.0
H2671 H 0.00564 0.67385 0.72335 0.0
H2672 H 0.03994 0.66342 0.77411 0.0
H2673 H 0.06083 0.64938 0.79133 0.0
H2674 H 0.03296 0.60684 0.79078 0.0
H2675 H 0.01199 0.62056 0.77332 0.0
C2676 C 0.94436 0.67163 0.77888 0.0
C2677 C 0.93693 0.65686 0.78118 0.0
C2678 C 0.95978 0.67252 0.77195 0.0
C2679 C 0.96801 0.65865 0.76723 0.0
C2680 C 0.96073 0.6439 0.76984 0.0
C2681 C 0.94532 0.643 0.7767 0.0
C2682 C 0.98419 0.65939 0.75943 0.0
C2683 C 0.99639 0.65129 0.76853 0.0
C2684 C 0.9876 0.66784 0.74309 0.0
C2685 C 0.97511 0.67616 0.73251 0.0
C2686 C 0.96174 0.66792 0.72605 0.0
C2687 C 0.94997 0.67588 0.71619 0.0
C2688 C 0.95148 0.69206 0.71257 0.0
C2689 C 0.9648 0.70031 0.71876 0.0
C2690 C 0.97661 0.69241 0.72865 0.0
C2691 C 0.05251 0.64212 0.72422 0.0
C2692 C 0.06123 0.65583 0.72 0.0
C2693 C 0.03748 0.64329 0.73206 0.0
C2694 C 0.03093 0.65819 0.73603 0.0
C2695 C 0.03942 0.67192 0.73141 0.0
C2696 C 0.05446 0.67075 0.72347 0.0
C2697 C 0.01523 0.65933 0.74503 0.0
C2698 C 0.00312 0.6678 0.73618 0.0
C2699 C 0.0119 0.65126 0.76165 0.0
C2700 C 0.02444 0.64299 0.77228 0.0
C2701 C 0.03831 0.65104 0.77755 0.0
C2702 C 0.05016 0.64314 0.78737 0.0
C2703 C 0.04824 0.62722 0.79211 0.0
C2704 C 0.03444 0.61917 0.78709 0.0
C2705 C 0.02256 0.62701 0.77724 0.0
H2706 H 0.05742 0.62113 0.79972 0.0
H2707 H 0.94235 0.69821 0.70493 0.0
H2708 H 0.35868 0.0517 0.70101 0.0
H2709 H 0.35648 0.02493 0.71359 0.0
H2710 H 0.3148 0.03881 0.7439 0.0
H2711 H 0.31709 0.06573 0.7316 0.0
H2712 H 0.33634 0.02293 0.76528 0.0
H2713 H 0.3109 0.01549 0.70711 0.0
H2714 H 0.30829 0.01706 0.6734 0.0
H2715 H 0.34959 0.98789 0.66694 0.0
H2716 H 0.35259 0.98632 0.70062 0.0
H2717 H 0.321 0.94443 0.79561 0.0
H2718 H 0.31808 0.97056 0.78161 0.0
H2719 H 0.35673 0.96027 0.74467 0.0
H2720 H 0.35908 0.93381 0.75778 0.0
H2721 H 0.33411 0.97454 0.72666 0.0
H2722 H 0.36114 0.98378 0.78407 0.0
H2723 H 0.36471 0.98252 0.81769 0.0
H2724 H 0.32154 0.00858 0.82548 0.0
H2725 H 0.31761 0.00982 0.79188 0.0
C2726 C 0.34904 0.04904 0.71034 0.0
C2727 C 0.33807 0.06081 0.71535 0.0
C2728 C 0.34772 0.03372 0.7174 0.0
C2729 C 0.3354 0.02987 0.72956 0.0
C2730 C 0.32435 0.04154 0.73448 0.0
C2731 C 0.32562 0.05687 0.72735 0.0
C2732 C 0.3345 0.01382 0.73771 0.0
C2733 C 0.33556 0.01234 0.75688 0.0
C2734 C 0.33386 4e-05 0.72668 0.0
C2735 C 0.33204 0.0009 0.7064 0.0
C2736 C 0.3195 0.00951 0.6985 0.0
C2737 C 0.31794 0.01038 0.6794 0.0
C2738 C 0.32878 0.00261 0.66803 0.0
C2739 C 0.3412 0.99391 0.67576 0.0
C2740 C 0.34283 0.99301 0.69486 0.0
C2741 C 0.32875 0.94763 0.78435 0.0
C2742 C 0.34035 0.93701 0.77792 0.0
C2743 C 0.32718 0.96266 0.7765 0.0
C2744 C 0.33735 0.96748 0.76227 0.0
C2745 C 0.34879 0.95685 0.75568 0.0
C2746 C 0.35025 0.94177 0.76337 0.0
C2747 C 0.3362 0.98361 0.75426 0.0
C2748 C 0.33475 0.98512 0.7351 0.0
C2749 C 0.33662 0.99742 0.76529 0.0
C2750 C 0.339 0.99674 0.78548 0.0
C2751 C 0.35235 0.98914 0.79296 0.0
C2752 C 0.35445 0.98844 0.812 0.0
C2753 C 0.34334 0.99542 0.82371 0.0
C2754 C 0.33013 0.00315 0.81639 0.0
C2755 C 0.32796 0.00386 0.79735 0.0
H2756 H 0.34498 0.99487 0.83846 0.0
H2757 H 0.32755 0.0033 0.65324 0.0
H2758 H 0.07059 0.3383 0.75024 0.0
H2759 H 0.04395 0.33568 0.73749 0.0
H2760 H 0.02494 0.33001 0.79214 0.0
H2761 H 0.05162 0.33275 0.80505 0.0
H2762 H 0.01099 0.30968 0.7668 0.0
H2763 H 0.0228 0.36511 0.77241 0.0
H2764 H 0.03878 0.38926 0.76799 0.0
H2765 H 0.03496 0.38416 0.70942 0.0
H2766 H 0.01915 0.35982 0.71349 0.0
H2767 H 0.93091 0.33078 0.7465 0.0
H2768 H 0.95769 0.32825 0.75893 0.0
H2769 H 0.97717 0.33664 0.70496 0.0
H2770 H 0.95041 0.33912 0.69241 0.0
H2771 H 0.99095 0.35506 0.73017 0.0
H2772 H 0.97843 0.29991 0.72455 0.0
H2773 H 0.96251 0.27573 0.72907 0.0
H2774 H 0.96743 0.28029 0.78759 0.0
H2775 H 0.98319 0.30463 0.78343 0.0
C2776 C 0.06075 0.33649 0.75956 0.0
C2777 C 0.06317 0.33593 0.77867 0.0
C2778 C 0.04556 0.33493 0.75225 0.0
C2779 C 0.03248 0.33288 0.7639 0.0
C2780 C 0.0349 0.3316 0.78293 0.0
C2781 C 0.05014 0.33314 0.79027 0.0
C2782 C 0.01623 0.33292 0.75624 0.0
C2783 C 0.0065 0.31966 0.75897 0.0
C2784 C 0.01054 0.34585 0.74575 0.0
C2785 C 0.01993 0.36056 0.74326 0.0
C2786 C 0.02547 0.36907 0.75859 0.0
C2787 C 0.03448 0.3828 0.75615 0.0
C2788 C 0.03791 0.38822 0.73844 0.0
C2789 C 0.03231 0.37994 0.72313 0.0
C2790 C 0.02331 0.36618 0.7255 0.0
C2791 C 0.94088 0.3318 0.73721 0.0
C2792 C 0.93854 0.33519 0.71847 0.0
C2793 C 0.95619 0.33036 0.74434 0.0
C2794 C 0.96942 0.33216 0.73285 0.0
C2795 C 0.96711 0.33525 0.71408 0.0
C2796 C 0.95183 0.33671 0.70695 0.0
C2797 C 0.98567 0.33175 0.74056 0.0
C2798 C 0.9954 0.34502 0.73792 0.0
C2799 C 0.99131 0.31884 0.75113 0.0
C2800 C 0.98186 0.30418 0.75368 0.0
C2801 C 0.976 0.29583 0.73839 0.0
C2802 C 0.96703 0.28208 0.74089 0.0
C2803 C 0.96393 0.2765 0.75861 0.0
C2804 C 0.96982 0.28464 0.77387 0.0
C2805 C 0.97879 0.2984 0.77145 0.0
H2806 H 0.95698 0.26585 0.76051 0.0
H2807 H 0.04489 0.39886 0.73658 0.0
H2808 H 0.3391 0.06798 0.25315 0.0
H2809 H 0.33634 0.0411 0.24125 0.0
H2810 H 0.32734 0.02386 0.29611 0.0
H2811 H 0.33075 0.05066 0.30824 0.0
H2812 H 0.34837 0.00574 0.27928 0.0
H2813 H 0.29748 0.02653 0.26406 0.0
H2814 H 0.2784 0.04559 0.25105 0.0
H2815 H 0.29759 0.03788 0.19712 0.0
H2816 H 0.31694 0.01893 0.20985 0.0
H2817 H 0.32815 0.92851 0.24869 0.0
H2818 H 0.32552 0.95496 0.26206 0.0
H2819 H 0.33844 0.97587 0.21008 0.0
H2820 H 0.34134 0.94949 0.19667 0.0
H2821 H 0.31354 0.99154 0.22684 0.0
H2822 H 0.36562 0.97231 0.24281 0.0
H2823 H 0.38462 0.95322 0.25594 0.0
H2824 H 0.3627 0.95807 0.30892 0.0
H2825 H 0.34341 0.97703 0.29602 0.0
C2826 C 0.33659 0.05847 0.26271 0.0
C2827 C 0.3352 0.06146 0.28166 0.0
C2828 C 0.33481 0.04313 0.25585 0.0
C2829 C 0.33145 0.03049 0.26777 0.0
C2830 C 0.32987 0.03345 0.28666 0.0
C2831 C 0.33169 0.0488 0.29355 0.0
C2832 C 0.33041 0.01409 0.26058 0.0
C2833 C 0.34052 0.00257 0.26805 0.0
C2834 C 0.32041 0.01003 0.24567 0.0
C2835 C 0.30875 0.0214 0.23794 0.0
C2836 C 0.29771 0.02898 0.24945 0.0
C2837 C 0.28683 0.03976 0.24212 0.0
C2838 C 0.28681 0.04297 0.22327 0.0
C2839 C 0.29763 0.03539 0.21171 0.0
C2840 C 0.30855 0.02462 0.21898 0.0
C2841 C 0.33047 0.93874 0.24011 0.0
C2842 C 0.33508 0.93688 0.22165 0.0
C2843 C 0.32889 0.95383 0.24775 0.0
C2844 C 0.33194 0.96734 0.23709 0.0
C2845 C 0.336 0.96557 0.21851 0.0
C2846 C 0.33761 0.95049 0.21086 0.0
C2847 C 0.33156 0.98331 0.24549 0.0
C2848 C 0.32123 0.99472 0.23821 0.0
C2849 C 0.34132 0.98728 0.26061 0.0
C2850 C 0.35297 0.97595 0.2684 0.0
C2851 C 0.36477 0.96921 0.25722 0.0
C2852 C 0.3756 0.95843 0.26463 0.0
C2853 C 0.37484 0.9544 0.28324 0.0
C2854 C 0.36326 0.96118 0.29449 0.0
C2855 C 0.35238 0.97195 0.28715 0.0
H2856 H 0.38324 0.94605 0.28895 0.0
H2857 H 0.27837 0.05132 0.21762 0.0
H2858 H 0.94726 0.35058 0.30417 0.0
H2859 H 0.97421 0.34973 0.29207 0.0
H2860 H 0.95833 0.32094 0.24668 0.0
H2861 H 0.93136 0.32128 0.25905 0.0
H2862 H 0.98689 0.3109 0.25998 0.0
H2863 H 0.96341 0.35996 0.24078 0.0
H2864 H 0.9494 0.38533 0.24508 0.0
H2865 H 0.98682 0.40186 0.28018 0.0
H2866 H 0.00094 0.37648 0.2763 0.0
H2867 H 0.05228 0.32631 0.20021 0.0
H2868 H 0.02597 0.32372 0.21399 0.0
H2869 H 0.04072 0.35291 0.25955 0.0
H2870 H 0.06707 0.35544 0.24596 0.0
H2871 H 0.01261 0.36236 0.24595 0.0
H2872 H 0.03633 0.31328 0.26473 0.0
H2873 H 0.05026 0.28789 0.26025 0.0
H2874 H 0.01251 0.27141 0.22562 0.0
H2875 H 0.99845 0.2968 0.22968 0.0
C2876 C 0.94953 0.34381 0.29181 0.0
C2877 C 0.93714 0.33606 0.28252 0.0
C2878 C 0.96492 0.34346 0.28482 0.0
C2879 C 0.96821 0.33548 0.26833 0.0
C2880 C 0.95602 0.32724 0.25937 0.0
C2881 C 0.9406 0.32756 0.26637 0.0
C2882 C 0.98424 0.33627 0.2601 0.0
C2883 C 0.99246 0.32213 0.25669 0.0
C2884 C 0.99157 0.35095 0.25612 0.0
C2885 C 0.98315 0.36626 0.25839 0.0
C2886 C 0.96859 0.36896 0.24953 0.0
C2887 C 0.96064 0.38335 0.25187 0.0
C2888 C 0.9672 0.39518 0.26293 0.0
C2889 C 0.98174 0.39267 0.27163 0.0
C2890 C 0.98973 0.37829 0.26936 0.0
C2891 C 0.04998 0.33201 0.21327 0.0
C2892 C 0.06174 0.34112 0.22196 0.0
C2893 C 0.03494 0.33053 0.22112 0.0
C2894 C 0.03143 0.33805 0.23785 0.0
C2895 C 0.04318 0.34706 0.2466 0.0
C2896 C 0.0582 0.34855 0.23877 0.0
C2897 C 0.01536 0.33699 0.24595 0.0
C2898 C 0.00708 0.35111 0.24927 0.0
C2899 C 0.008 0.32229 0.24979 0.0
C2900 C 0.01641 0.30701 0.24736 0.0
C2901 C 0.03106 0.30429 0.25603 0.0
C2902 C 0.03897 0.28989 0.25359 0.0
C2903 C 0.03229 0.27806 0.24262 0.0
C2904 C 0.01767 0.2806 0.2341 0.0
C2905 C 0.00972 0.29498 0.23647 0.0
H2906 H 0.03843 0.26692 0.24075 0.0
H2907 H 0.96103 0.40632 0.26473 0.0
H2908 H 0.65544 0.93243 0.2517 0.0
H2909 H 0.65906 0.95929 0.23993 0.0
H2910 H 0.67108 0.97551 0.29442 0.0
H2911 H 0.66711 0.94868 0.30639 0.0
H2912 H 0.64953 0.99459 0.27817 0.0
H2913 H 0.69951 0.97213 0.26211 0.0
H2914 H 0.71774 0.95245 0.24872 0.0
H2915 H 0.69821 0.96104 0.19513 0.0
H2916 H 0.67969 0.98062 0.20824 0.0
H2917 H 0.67134 0.07125 0.24774 0.0
H2918 H 0.67366 0.04468 0.26084 0.0
H2919 H 0.65981 0.02435 0.20888 0.0
H2920 H 0.65723 0.05087 0.19573 0.0
H2921 H 0.68425 0.00783 0.2253 0.0
H2922 H 0.63297 0.0285 0.24182 0.0
H2923 H 0.61455 0.04807 0.2551 0.0
H2924 H 0.6366 0.04258 0.30792 0.0
H2925 H 0.65532 0.02313 0.29488 0.0
C2926 C 0.65883 0.94172 0.26118 0.0
C2927 C 0.66094 0.93846 0.27998 0.0
C2928 C 0.66105 0.95703 0.25441 0.0
C2929 C 0.66549 0.96936 0.26627 0.0
C2930 C 0.66772 0.96613 0.28502 0.0
C2931 C 0.66555 0.9508 0.29181 0.0
C2932 C 0.66702 0.98575 0.2592 0.0
C2933 C 0.65736 0.99755 0.26685 0.0
C2934 C 0.67697 0.98951 0.24415 0.0
C2935 C 0.68811 0.97775 0.23619 0.0
C2936 C 0.69901 0.96973 0.24749 0.0
C2937 C 0.70941 0.95861 0.23995 0.0
C2938 C 0.70911 0.95547 0.22109 0.0
C2939 C 0.69842 0.96347 0.20973 0.0
C2940 C 0.68798 0.9746 0.21721 0.0
C2941 C 0.66878 0.06113 0.23909 0.0
C2942 C 0.66396 0.06319 0.22073 0.0
C2943 C 0.67018 0.04596 0.24658 0.0
C2944 C 0.66673 0.03258 0.23588 0.0
C2945 C 0.66255 0.03454 0.21735 0.0
C2946 C 0.66112 0.04971 0.20985 0.0
C2947 C 0.6667 0.01658 0.24421 0.0
C2948 C 0.67658 0.00486 0.23676 0.0
C2949 C 0.65695 0.01287 0.25944 0.0
C2950 C 0.64566 0.0245 0.26733 0.0
C2951 C 0.63398 0.03156 0.25623 0.0
C2952 C 0.62347 0.04262 0.26372 0.0
C2953 C 0.62444 0.0466 0.28233 0.0
C2954 C 0.63589 0.0395 0.2935 0.0
C2955 C 0.64644 0.02846 0.28607 0.0
H2956 H 0.61629 0.05516 0.28811 0.0
H2957 H 0.71718 0.94686 0.21528 0.0
H2958 H 0.0507 0.66103 0.30612 0.0
H2959 H 0.0237 0.6636 0.29442 0.0
H2960 H 0.0418 0.6688 0.23929 0.0
H2961 H 0.0689 0.66677 0.25097 0.0
H2962 H 0.01727 0.68896 0.24572 0.0
H2963 H 0.02815 0.63353 0.25363 0.0
H2964 H 0.03652 0.60966 0.27059 0.0
H2965 H 0.99896 0.61673 0.30955 0.0
H2966 H 0.99051 0.64079 0.29296 0.0
H2967 H 0.94786 0.66654 0.19599 0.0
H2968 H 0.97447 0.66914 0.20892 0.0
H2969 H 0.95536 0.66398 0.26359 0.0
H2970 H 0.9287 0.66155 0.25079 0.0
H2971 H 0.98024 0.64453 0.25791 0.0
H2972 H 0.96864 0.69956 0.24882 0.0
H2973 H 0.96033 0.72316 0.23134 0.0
H2974 H 0.99915 0.7166 0.19396 0.0
H2975 H 0.00756 0.6928 0.21108 0.0
C2976 C 0.04897 0.66301 0.29155 0.0
C2977 C 0.06195 0.6636 0.27946 0.0
C2978 C 0.03352 0.66434 0.28487 0.0
C2979 C 0.03075 0.66616 0.26596 0.0
C2980 C 0.04368 0.66733 0.25392 0.0
C2981 C 0.05914 0.66602 0.2606 0.0
C2982 C 0.01436 0.66619 0.25865 0.0
C2983 C 0.0092 0.67918 0.24821 0.0
C2984 C 0.00378 0.65355 0.2622 0.0
C2985 C 0.0088 0.63905 0.27216 0.0
C2986 C 0.02176 0.63006 0.2659 0.0
C2987 C 0.0265 0.61649 0.27543 0.0
C2988 C 0.01831 0.6117 0.29117 0.0
C2989 C 0.00532 0.62046 0.29738 0.0
C2990 C 0.00054 0.63406 0.28791 0.0
C2991 C 0.94928 0.66625 0.21078 0.0
C2992 C 0.93617 0.66379 0.22236 0.0
C2993 C 0.9645 0.66772 0.21815 0.0
C2994 C 0.96687 0.66683 0.23722 0.0
C2995 C 0.95378 0.66465 0.24883 0.0
C2996 C 0.93857 0.6632 0.24148 0.0
C2997 C 0.98308 0.66734 0.24502 0.0
C2998 C 0.98824 0.65438 0.25551 0.0
C2999 C 0.99365 0.67998 0.24143 0.0
C3000 C 0.98864 0.6943 0.23114 0.0
C3001 C 0.97533 0.70306 0.23679 0.0
C3002 C 0.97061 0.7165 0.22696 0.0
C3003 C 0.97918 0.72135 0.21152 0.0
C3004 C 0.99251 0.71281 0.20591 0.0
C3005 C 0.99727 0.69936 0.21568 0.0
H3006 H 0.97552 0.73176 0.20393 0.0
H3007 H 0.022 0.60119 0.29853 0.0
loop_
_geom_bond_atom_site_label_1
_geom_bond_atom_site_label_2
_geom_bond_distance
_geom_bond_site_symmetry_2
_ccdc_geom_bond_type
Li0 N17 1.990 . S
Li0 O60 1.956 . S
Li0 O61 1.970 . S
Li0 O62 1.961 . S
Li1 N25 1.990 . S
Li1 O60 1.970 . S
Li1 O61 1.956 . S
Li1 O63 1.961 . S
Li2 N47 1.990 . S
Li2 O60 1.961 . S
Li2 O62 1.956 . S
Li2 O63 1.970 . S
Li3 N53 1.990 . S
Li3 O61 1.961 . S
Li3 O62 1.970 . S
Li3 O63 1.956 . S
C4 C6 1.348 . S
C4 C7 1.356 . S
C4 O60 1.325 . S
N5 C8 1.314 . S
N5 C9 1.279 . S
C6 C4 1.348 . S
C6 C8 1.353 . S
C6 H64 0.929 . S
C7 C4 1.356 . S
C7 C9 1.358 . S
C7 H65 0.930 . S
C8 N5 1.314 . S
C8 C6 1.353 . S
C8 H66 0.930 . S
C9 N5 1.279 . S
C9 C7 1.358 . S
C9 H67 0.930 . S
C10 C13 1.348 . S
C10 C14 1.356 . S
C10 O61 1.325 . S
C11 N12 1.279 . S
C11 C14 1.358 . S
C11 H68 0.930 . S
N12 C11 1.279 . S
N12 C15 1.314 . S
C13 C10 1.348 . S
C13 C15 1.353 . S
C13 H69 0.929 . S
C14 C10 1.356 . S
C14 C11 1.358 . S
C14 H70 0.930 . S
C15 N12 1.314 . S
C15 C13 1.353 . S
C15 H71 0.930 . S
C16 N17 1.314 . S
C16 C21 1.353 . S
C16 H22 0.930 . S
N17 Li0 1.990 . S
N17 C16 1.314 . S
N17 C19 1.279 . S
C18 C19 1.358 . S
C18 C20 1.356 . S
C18 H72 0.930 . S
C19 N17 1.279 . S
C19 C18 1.358 . S
C19 H23 0.930 . S
C20 C18 1.356 . S
C20 C21 1.348 . S
C21 C16 1.353 . S
C21 C20 1.348 . S
C21 H73 0.929 . S
H22 C16 0.930 . S
H23 C19 0.930 . S
C24 N25 1.314 . S
C24 C26 1.353 . S
C24 H30 0.930 . S
N25 Li1 1.990 . S
N25 C24 1.314 . S
N25 C28 1.279 . S
C26 C24 1.353 . S
C26 C29 1.348 . S
C26 H74 0.929 . S
C27 C28 1.358 . S
C27 C29 1.356 . S
C27 H75 0.930 . S
C28 N25 1.279 . S
C28 C27 1.358 . S
C28 H31 0.930 . S
C29 C26 1.348 . S
C29 C27 1.356 . S
H30 C24 0.930 . S
H31 C28 0.930 . S
C32 C34 1.348 . S
C32 C35 1.356 . S
C32 O62 1.325 . S
N33 C36 1.314 . S
N33 C37 1.279 . S
C34 C32 1.348 . S
C34 C36 1.353 . S
C34 H76 0.929 . S
C35 C32 1.356 . S
C35 C37 1.358 . S
C35 H77 0.930 . S
C36 N33 1.314 . S
C36 C34 1.353 . S
C36 H78 0.930 . S
C37 N33 1.279 . S
C37 C35 1.358 . S
C37 H79 0.930 . S
C38 C39 1.348 . S
C38 C40 1.356 . S
C38 O63 1.325 . S
C39 C38 1.348 . S
C39 C41 1.353 . S
C39 H80 0.929 . S
C40 C38 1.356 . S
C40 C42 1.358 . S
C40 H81 0.930 . S
C41 C39 1.353 . S
C41 N43 1.314 . S
C41 H82 0.930 . S
C42 C40 1.358 . S
C42 N43 1.279 . S
C42 H83 0.930 . S
N43 C41 1.314 . S
N43 C42 1.279 . S
C44 C46 1.353 . S
C44 N47 1.314 . S
C44 H50 0.930 . S
C45 N47 1.279 . S
C45 C48 1.358 . S
C45 H51 0.930 . S
C46 C44 1.353 . S
C46 C49 1.348 . S
C46 H84 0.929 . S
N47 Li2 1.990 . S
N47 C44 1.314 . S
N47 C45 1.279 . S
C48 C45 1.358 . S
C48 C49 1.356 . S
C48 H85 0.930 . S
C49 C46 1.348 . S
C49 C48 1.356 . S
H50 C44 0.930 . S
H51 C45 0.930 . S
C52 N53 1.314 . S
C52 C54 1.353 . S
C52 H58 0.930 . S
N53 Li3 1.990 . S
N53 C52 1.314 . S
N53 C56 1.279 . S
C54 C52 1.353 . S
C54 C57 1.348 . S
C54 H86 0.929 . S
C55 C56 1.358 . S
C55 C57 1.356 . S
C55 H87 0.930 . S
C56 N53 1.279 . S
C56 C55 1.358 . S
C56 H59 0.930 . S
C57 C54 1.348 . S
C57 C55 1.356 . S
H58 C52 0.930 . S
H59 C56 0.930 . S
O60 Li0 1.956 . S
O60 Li1 1.970 . S
O60 Li2 1.961 . S
O60 C4 1.325 . S
O61 Li0 1.970 . S
O61 Li1 1.956 . S
O61 Li3 1.961 . S
O61 C10 1.325 . S
O62 Li0 1.961 . S
O62 Li2 1.956 . S
O62 Li3 1.970 . S
O62 C32 1.325 . S
O63 Li1 1.961 . S
O63 Li2 1.970 . S
O63 Li3 1.956 . S
O63 C38 1.325 . S
H64 C6 0.929 . S
H65 C7 0.930 . S
H66 C8 0.930 . S
H67 C9 0.930 . S
H68 C11 0.930 . S
H69 C13 0.929 . S
H70 C14 0.930 . S
H71 C15 0.930 . S
H72 C18 0.930 . S
H73 C21 0.929 . S
H74 C26 0.929 . S
H75 C27 0.930 . S
H76 C34 0.929 . S
H77 C35 0.930 . S
H78 C36 0.930 . S
H79 C37 0.930 . S
H80 C39 0.929 . S
H81 C40 0.930 . S
H82 C41 0.930 . S
H83 C42 0.930 . S
H84 C46 0.929 . S
H85 C48 0.930 . S
H86 C54 0.929 . S
H87 C55 0.930 . S
Li88 N105 1.990 . S
Li88 O148 1.956 . S
Li88 O149 1.970 . S
Li88 O150 1.961 . S
Li89 N113 1.990 . S
Li89 O148 1.970 . S
Li89 O149 1.956 . S
Li89 O151 1.961 . S
Li90 N135 1.990 . S
Li90 O148 1.961 . S
Li90 O150 1.956 . S
Li90 O151 1.970 . S
Li91 N141 1.990 . S
Li91 O149 1.961 . S
Li91 O150 1.970 . S
Li91 O151 1.956 . S
C92 C94 1.348 . S
C92 C95 1.356 . S
C92 O148 1.325 . S
N93 C96 1.314 . S
N93 C97 1.279 . S
C94 C92 1.348 . S
C94 C96 1.353 . S
C94 H152 0.929 . S
C95 C92 1.356 . S
C95 C97 1.358 . S
C95 H153 0.930 . S
C96 N93 1.314 . S
C96 C94 1.353 . S
C96 H154 0.930 . S
C97 N93 1.279 . S
C97 C95 1.358 . S
C97 H155 0.930 . S
C98 C101 1.348 . S
C98 C102 1.356 . S
C98 O149 1.325 . S
C99 N100 1.279 . S
C99 C102 1.358 . S
C99 H156 0.930 . S
N100 C99 1.279 . S
N100 C103 1.314 . S
C101 C98 1.348 . S
C101 C103 1.353 . S
C101 H157 0.929 . S
C102 C98 1.356 . S
C102 C99 1.358 . S
C102 H158 0.930 . S
C103 N100 1.314 . S
C103 C101 1.353 . S
C103 H159 0.930 . S
C104 N105 1.314 . S
C104 C109 1.353 . S
C104 H110 0.930 . S
N105 Li88 1.990 . S
N105 C104 1.314 . S
N105 C107 1.279 . S
C106 C107 1.358 . S
C106 C108 1.356 . S
C106 H160 0.930 . S
C107 N105 1.279 . S
C107 C106 1.358 . S
C107 H111 0.930 . S
C108 C106 1.356 . S
C108 C109 1.348 . S
C109 C104 1.353 . S
C109 C108 1.348 . S
C109 H161 0.929 . S
H110 C104 0.930 . S
H111 C107 0.930 . S
C112 N113 1.314 . S
C112 C114 1.353 . S
C112 H118 0.930 . S
N113 Li89 1.990 . S
N113 C112 1.314 . S
N113 C116 1.279 . S
C114 C112 1.353 . S
C114 C117 1.348 . S
C114 H162 0.929 . S
C115 C116 1.358 . S
C115 C117 1.356 . S
C115 H163 0.930 . S
C116 N113 1.279 . S
C116 C115 1.358 . S
C116 H119 0.930 . S
C117 C114 1.348 . S
C117 C115 1.356 . S
H118 C112 0.930 . S
H119 C116 0.930 . S
C120 C122 1.348 . S
C120 C123 1.356 . S
C120 O150 1.325 . S
N121 C124 1.314 . S
N121 C125 1.279 . S
C122 C120 1.348 . S
C122 C124 1.353 . S
C122 H164 0.929 . S
C123 C120 1.356 . S
C123 C125 1.358 . S
C123 H165 0.930 . S
C124 N121 1.314 . S
C124 C122 1.353 . S
C124 H166 0.930 . S
C125 N121 1.279 . S
C125 C123 1.358 . S
C125 H167 0.930 . S
C126 C127 1.348 . S
C126 C128 1.356 . S
C126 O151 1.325 . S
C127 C126 1.348 . S
C127 C129 1.353 . S
C127 H168 0.929 . S
C128 C126 1.356 . S
C128 C130 1.358 . S
C128 H169 0.930 . S
C129 C127 1.353 . S
C129 N131 1.314 . S
C129 H170 0.930 . S
C130 C128 1.358 . S
C130 N131 1.279 . S
C130 H171 0.930 . S
N131 C129 1.314 . S
N131 C130 1.279 . S
C132 C134 1.353 . S
C132 N135 1.314 . S
C132 H138 0.930 . S
C133 N135 1.279 . S
C133 C136 1.358 . S
C133 H139 0.930 . S
C134 C132 1.353 . S
C134 C137 1.348 . S
C134 H172 0.929 . S
N135 Li90 1.990 . S
N135 C132 1.314 . S
N135 C133 1.279 . S
C136 C133 1.358 . S
C136 C137 1.356 . S
C136 H173 0.930 . S
C137 C134 1.348 . S
C137 C136 1.356 . S
H138 C132 0.930 . S
H139 C133 0.930 . S
C140 N141 1.314 . S
C140 C142 1.353 . S
C140 H146 0.930 . S
N141 Li91 1.990 . S
N141 C140 1.314 . S
N141 C144 1.279 . S
C142 C140 1.353 . S
C142 C145 1.348 . S
C142 H174 0.929 . S
C143 C144 1.358 . S
C143 C145 1.356 . S
C143 H175 0.930 . S
C144 N141 1.279 . S
C144 C143 1.358 . S
C144 H147 0.930 . S
C145 C142 1.348 . S
C145 C143 1.356 . S
H146 C140 0.930 . S
H147 C144 0.930 . S
O148 Li88 1.956 . S
O148 Li89 1.970 . S
O148 Li90 1.961 . S
O148 C92 1.325 . S
O149 Li88 1.970 . S
O149 Li89 1.956 . S
O149 Li91 1.961 . S
O149 C98 1.325 . S
O150 Li88 1.961 . S
O150 Li90 1.956 . S
O150 Li91 1.970 . S
O150 C120 1.325 . S
O151 Li89 1.961 . S
O151 Li90 1.970 . S
O151 Li91 1.956 . S
O151 C126 1.325 . S
H152 C94 0.929 . S
H153 C95 0.930 . S
H154 C96 0.930 . S
H155 C97 0.930 . S
H156 C99 0.930 . S
H157 C101 0.929 . S
H158 C102 0.930 . S
H159 C103 0.930 . S
H160 C106 0.930 . S
H161 C109 0.929 . S
H162 C114 0.929 . S
H163 C115 0.930 . S
H164 C122 0.929 . S
H165 C123 0.930 . S
H166 C124 0.930 . S
H167 C125 0.930 . S
H168 C127 0.929 . S
H169 C128 0.930 . S
H170 C129 0.930 . S
H171 C130 0.930 . S
H172 C134 0.929 . S
H173 C136 0.930 . S
H174 C142 0.929 . S
H175 C143 0.930 . S
Li176 N193 1.990 . S
Li176 O236 1.956 . S
Li176 O237 1.970 . S
Li176 O238 1.961 . S
Li177 N201 1.990 . S
Li177 O236 1.970 . S
Li177 O237 1.956 . S
Li177 O239 1.961 . S
Li178 N223 1.990 . S
Li178 O236 1.961 . S
Li178 O238 1.956 . S
Li178 O239 1.970 . S
Li179 N229 1.990 . S
Li179 O237 1.961 . S
Li179 O238 1.970 . S
Li179 O239 1.956 . S
C180 C182 1.348 . S
C180 C183 1.356 . S
C180 O236 1.325 . S
N181 C184 1.314 . S
N181 C185 1.279 . S
C182 C180 1.348 . S
C182 C184 1.353 . S
C182 H240 0.929 . S
C183 C180 1.356 . S
C183 C185 1.358 . S
C183 H241 0.930 . S
C184 N181 1.314 . S
C184 C182 1.353 . S
C184 H242 0.930 . S
C185 N181 1.279 . S
C185 C183 1.358 . S
C185 H243 0.930 . S
C186 C189 1.348 . S
C186 C190 1.356 . S
C186 O237 1.325 . S
C187 N188 1.279 . S
C187 C190 1.358 . S
C187 H244 0.930 . S
N188 C187 1.279 . S
N188 C191 1.314 . S
C189 C186 1.348 . S
C189 C191 1.353 . S
C189 H245 0.929 . S
C190 C186 1.356 . S
C190 C187 1.358 . S
C190 H246 0.930 . S
C191 N188 1.314 . S
C191 C189 1.353 . S
C191 H247 0.930 . S
C192 N193 1.314 . S
C192 C197 1.353 . S
C192 H198 0.930 . S
N193 Li176 1.990 . S
N193 C192 1.314 . S
N193 C195 1.279 . S
C194 C195 1.358 . S
C194 C196 1.356 . S
C194 H248 0.930 . S
C195 N193 1.279 . S
C195 C194 1.358 . S
C195 H199 0.930 . S
C196 C194 1.356 . S
C196 C197 1.348 . S
C197 C192 1.353 . S
C197 C196 1.348 . S
C197 H249 0.929 . S
H198 C192 0.930 . S
H199 C195 0.930 . S
C200 N201 1.314 . S
C200 C202 1.353 . S
C200 H206 0.930 . S
N201 Li177 1.990 . S
N201 C200 1.314 . S
N201 C204 1.279 . S
C202 C200 1.353 . S
C202 C205 1.348 . S
C202 H250 0.929 . S
C203 C204 1.358 . S
C203 C205 1.356 . S
C203 H251 0.930 . S
C204 N201 1.279 . S
C204 C203 1.358 . S
C204 H207 0.930 . S
C205 C202 1.348 . S
C205 C203 1.356 . S
H206 C200 0.930 . S
H207 C204 0.930 . S
C208 C210 1.348 . S
C208 C211 1.356 . S
C208 O238 1.325 . S
N209 C212 1.314 . S
N209 C213 1.279 . S
C210 C208 1.348 . S
C210 C212 1.353 . S
C210 H252 0.929 . S
C211 C208 1.356 . S
C211 C213 1.358 . S
C211 H253 0.930 . S
C212 N209 1.314 . S
C212 C210 1.353 . S
C212 H254 0.930 . S
C213 N209 1.279 . S
C213 C211 1.358 . S
C213 H255 0.930 . S
C214 C215 1.348 . S
C214 C216 1.356 . S
C214 O239 1.325 . S
C215 C214 1.348 . S
C215 C217 1.353 . S
C215 H256 0.929 . S
C216 C214 1.356 . S
C216 C218 1.358 . S
C216 H257 0.930 . S
C217 C215 1.353 . S
C217 N219 1.314 . S
C217 H258 0.930 . S
C218 C216 1.358 . S
C218 N219 1.279 . S
C218 H259 0.930 . S
N219 C217 1.314 . S
N219 C218 1.279 . S
C220 C222 1.353 . S
C220 N223 1.314 . S
C220 H226 0.930 . S
C221 N223 1.279 . S
C221 C224 1.358 . S
C221 H227 0.930 . S
C222 C220 1.353 . S
C222 C225 1.348 . S
C222 H260 0.929 . S
N223 Li178 1.990 . S
N223 C220 1.314 . S
N223 C221 1.279 . S
C224 C221 1.358 . S
C224 C225 1.356 . S
C224 H261 0.930 . S
C225 C222 1.348 . S
C225 C224 1.356 . S
H226 C220 0.930 . S
H227 C221 0.930 . S
C228 N229 1.314 . S
C228 C230 1.353 . S
C228 H234 0.930 . S
N229 Li179 1.990 . S
N229 C228 1.314 . S
N229 C232 1.279 . S
C230 C228 1.353 . S
C230 C233 1.348 . S
C230 H262 0.929 . S
C231 C232 1.358 . S
C231 C233 1.356 . S
C231 H263 0.930 . S
C232 N229 1.279 . S
C232 C231 1.358 . S
C232 H235 0.930 . S
C233 C230 1.348 . S
C233 C231 1.356 . S
H234 C228 0.930 . S
H235 C232 0.930 . S
O236 Li176 1.956 . S
O236 Li177 1.970 . S
O236 Li178 1.961 . S
O236 C180 1.325 . S
O237 Li176 1.970 . S
O237 Li177 1.956 . S
O237 Li179 1.961 . S
O237 C186 1.325 . S
O238 Li176 1.961 . S
O238 Li178 1.956 . S
O238 Li179 1.970 . S
O238 C208 1.325 . S
O239 Li177 1.961 . S
O239 Li178 1.970 . S
O239 Li179 1.956 . S
O239 C214 1.325 . S
H240 C182 0.929 . S
H241 C183 0.930 . S
H242 C184 0.930 . S
H243 C185 0.930 . S
H244 C187 0.930 . S
H245 C189 0.929 . S
H246 C190 0.930 . S
H247 C191 0.930 . S
H248 C194 0.930 . S
H249 C197 0.929 . S
H250 C202 0.929 . S
H251 C203 0.930 . S
H252 C210 0.929 . S
H253 C211 0.930 . S
H254 C212 0.930 . S
H255 C213 0.930 . S
H256 C215 0.929 . S
H257 C216 0.930 . S
H258 C217 0.930 . S
H259 C218 0.930 . S
H260 C222 0.929 . S
H261 C224 0.930 . S
H262 C230 0.929 . S
H263 C231 0.930 . S
Li264 N281 1.990 . S
Li264 O324 1.956 . S
Li264 O325 1.970 . S
Li264 O326 1.961 . S
Li265 N289 1.990 . S
Li265 O324 1.970 . S
Li265 O325 1.956 . S
Li265 O327 1.961 . S
Li266 N311 1.990 . S
Li266 O324 1.961 . S
Li266 O326 1.956 . S
Li266 O327 1.970 . S
Li267 N317 1.990 . S
Li267 O325 1.961 . S
Li267 O326 1.970 . S
Li267 O327 1.956 . S
C268 C270 1.348 . S
C268 C271 1.356 . S
C268 O324 1.325 . S
N269 C272 1.314 . S
N269 C273 1.279 . S
C270 C268 1.348 . S
C270 C272 1.353 . S
C270 H328 0.929 . S
C271 C268 1.356 . S
C271 C273 1.358 . S
C271 H329 0.930 . S
C272 N269 1.314 . S
C272 C270 1.353 . S
C272 H330 0.930 . S
C273 N269 1.279 . S
C273 C271 1.358 . S
C273 H331 0.930 . S
C274 C277 1.348 . S
C274 C278 1.356 . S
C274 O325 1.325 . S
C275 N276 1.279 . S
C275 C278 1.358 . S
C275 H332 0.930 . S
N276 C275 1.279 . S
N276 C279 1.314 . S
C277 C274 1.348 . S
C277 C279 1.353 . S
C277 H333 0.929 . S
C278 C274 1.356 . S
C278 C275 1.358 . S
C278 H334 0.930 . S
C279 N276 1.314 . S
C279 C277 1.353 . S
C279 H335 0.930 . S
C280 N281 1.314 . S
C280 C285 1.353 . S
C280 H286 0.930 . S
N281 Li264 1.990 . S
N281 C280 1.314 . S
N281 C283 1.279 . S
C282 C283 1.358 . S
C282 C284 1.356 . S
C282 H336 0.930 . S
C283 N281 1.279 . S
C283 C282 1.358 . S
C283 H287 0.930 . S
C284 C282 1.356 . S
C284 C285 1.348 . S
C285 C280 1.353 . S
C285 C284 1.348 . S
C285 H337 0.929 . S
H286 C280 0.930 . S
H287 C283 0.930 . S
C288 N289 1.314 . S
C288 C290 1.353 . S
C288 H294 0.930 . S
N289 Li265 1.990 . S
N289 C288 1.314 . S
N289 C292 1.279 . S
C290 C288 1.353 . S
C290 C293 1.348 . S
C290 H338 0.929 . S
C291 C292 1.358 . S
C291 C293 1.356 . S
C291 H339 0.930 . S
C292 N289 1.279 . S
C292 C291 1.358 . S
C292 H295 0.930 . S
C293 C290 1.348 . S
C293 C291 1.356 . S
H294 C288 0.930 . S
H295 C292 0.930 . S
C296 C298 1.348 . S
C296 C299 1.356 . S
C296 O326 1.325 . S
N297 C300 1.314 . S
N297 C301 1.279 . S
C298 C296 1.348 . S
C298 C300 1.353 . S
C298 H340 0.929 . S
C299 C296 1.356 . S
C299 C301 1.358 . S
C299 H341 0.930 . S
C300 N297 1.314 . S
C300 C298 1.353 . S
C300 H342 0.930 . S
C301 N297 1.279 . S
C301 C299 1.358 . S
C301 H343 0.930 . S
C302 C303 1.348 . S
C302 C304 1.356 . S
C302 O327 1.325 . S
C303 C302 1.348 . S
C303 C305 1.353 . S
C303 H344 0.929 . S
C304 C302 1.356 . S
C304 C306 1.358 . S
C304 H345 0.930 . S
C305 C303 1.353 . S
C305 N307 1.314 . S
C305 H346 0.930 . S
C306 C304 1.358 . S
C306 N307 1.279 . S
C306 H347 0.930 . S
N307 C305 1.314 . S
N307 C306 1.279 . S
C308 C310 1.353 . S
C308 N311 1.314 . S
C308 H314 0.930 . S
C309 N311 1.279 . S
C309 C312 1.358 . S
C309 H315 0.930 . S
C310 C308 1.353 . S
C310 C313 1.348 . S
C310 H348 0.929 . S
N311 Li266 1.990 . S
N311 C308 1.314 . S
N311 C309 1.279 . S
C312 C309 1.358 . S
C312 C313 1.356 . S
C312 H349 0.930 . S
C313 C310 1.348 . S
C313 C312 1.356 . S
H314 C308 0.930 . S
H315 C309 0.930 . S
C316 N317 1.314 . S
C316 C318 1.353 . S
C316 H322 0.930 . S
N317 Li267 1.990 . S
N317 C316 1.314 . S
N317 C320 1.279 . S
C318 C316 1.353 . S
C318 C321 1.348 . S
C318 H350 0.929 . S
C319 C320 1.358 . S
C319 C321 1.356 . S
C319 H351 0.930 . S
C320 N317 1.279 . S
C320 C319 1.358 . S
C320 H323 0.930 . S
C321 C318 1.348 . S
C321 C319 1.356 . S
H322 C316 0.930 . S
H323 C320 0.930 . S
O324 Li264 1.956 . S
O324 Li265 1.970 . S
O324 Li266 1.961 . S
O324 C268 1.325 . S
O325 Li264 1.970 . S
O325 Li265 1.956 . S
O325 Li267 1.961 . S
O325 C274 1.325 . S
O326 Li264 1.961 . S
O326 Li266 1.956 . S
O326 Li267 1.970 . S
O326 C296 1.325 . S
O327 Li265 1.961 . S
O327 Li266 1.970 . S
O327 Li267 1.956 . S
O327 C302 1.325 . S
H328 C270 0.929 . S
H329 C271 0.930 . S
H330 C272 0.930 . S
H331 C273 0.930 . S
H332 C275 0.930 . S
H333 C277 0.929 . S
H334 C278 0.930 . S
H335 C279 0.930 . S
H336 C282 0.930 . S
H337 C285 0.929 . S
H338 C290 0.929 . S
H339 C291 0.930 . S
H340 C298 0.929 . S
H341 C299 0.930 . S
H342 C300 0.930 . S
H343 C301 0.930 . S
H344 C303 0.929 . S
H345 C304 0.930 . S
H346 C305 0.930 . S
H347 C306 0.930 . S
H348 C310 0.929 . S
H349 C312 0.930 . S
H350 C318 0.929 . S
H351 C319 0.930 . S
Li352 N369 1.990 . S
Li352 O412 1.956 . S
Li352 O413 1.970 . S
Li352 O414 1.961 . S
Li353 N377 1.990 . S
Li353 O412 1.970 . S
Li353 O413 1.956 . S
Li353 O415 1.961 . S
Li354 N399 1.990 . S
Li354 O412 1.961 . S
Li354 O414 1.956 . S
Li354 O415 1.970 . S
Li355 N405 1.990 . S
Li355 O413 1.961 . S
Li355 O414 1.970 . S
Li355 O415 1.956 . S
C356 C358 1.348 . S
C356 C359 1.356 . S
C356 O412 1.325 . S
N357 C360 1.314 . S
N357 C361 1.279 . S
C358 C356 1.348 . S
C358 C360 1.353 . S
C358 H416 0.929 . S
C359 C356 1.356 . S
C359 C361 1.358 . S
C359 H417 0.930 . S
C360 N357 1.314 . S
C360 C358 1.353 . S
C360 H418 0.930 . S
C361 N357 1.279 . S
C361 C359 1.358 . S
C361 H419 0.930 . S
C362 C365 1.348 . S
C362 C366 1.356 . S
C362 O413 1.325 . S
C363 N364 1.279 . S
C363 C366 1.358 . S
C363 H420 0.930 . S
N364 C363 1.279 . S
N364 C367 1.314 . S
C365 C362 1.348 . S
C365 C367 1.353 . S
C365 H421 0.929 . S
C366 C362 1.356 . S
C366 C363 1.358 . S
C366 H422 0.930 . S
C367 N364 1.314 . S
C367 C365 1.353 . S
C367 H423 0.930 . S
C368 N369 1.314 . S
C368 C373 1.353 . S
C368 H374 0.930 . S
N369 Li352 1.990 . S
N369 C368 1.314 . S
N369 C371 1.279 . S
C370 C371 1.358 . S
C370 C372 1.356 . S
C370 H424 0.930 . S
C371 N369 1.279 . S
C371 C370 1.358 . S
C371 H375 0.930 . S
C372 C370 1.356 . S
C372 C373 1.348 . S
C373 C368 1.353 . S
C373 C372 1.348 . S
C373 H425 0.929 . S
H374 C368 0.930 . S
H375 C371 0.930 . S
C376 N377 1.314 . S
C376 C378 1.353 . S
C376 H382 0.930 . S
N377 Li353 1.990 . S
N377 C376 1.314 . S
N377 C380 1.279 . S
C378 C376 1.353 . S
C378 C381 1.348 . S
C378 H426 0.929 . S
C379 C380 1.358 . S
C379 C381 1.356 . S
C379 H427 0.930 . S
C380 N377 1.279 . S
C380 C379 1.358 . S
C380 H383 0.930 . S
C381 C378 1.348 . S
C381 C379 1.356 . S
H382 C376 0.930 . S
H383 C380 0.930 . S
C384 C386 1.348 . S
C384 C387 1.356 . S
C384 O414 1.325 . S
N385 C388 1.314 . S
N385 C389 1.279 . S
C386 C384 1.348 . S
C386 C388 1.353 . S
C386 H428 0.929 . S
C387 C384 1.356 . S
C387 C389 1.358 . S
C387 H429 0.930 . S
C388 N385 1.314 . S
C388 C386 1.353 . S
C388 H430 0.930 . S
C389 N385 1.279 . S
C389 C387 1.358 . S
C389 H431 0.930 . S
C390 C391 1.348 . S
C390 C392 1.356 . S
C390 O415 1.325 . S
C391 C390 1.348 . S
C391 C393 1.353 . S
C391 H432 0.929 . S
C392 C390 1.356 . S
C392 C394 1.358 . S
C392 H433 0.930 . S
C393 C391 1.353 . S
C393 N395 1.314 . S
C393 H434 0.930 . S
C394 C392 1.358 . S
C394 N395 1.279 . S
C394 H435 0.930 . S
N395 C393 1.314 . S
N395 C394 1.279 . S
C396 C398 1.353 . S
C396 N399 1.314 . S
C396 H402 0.930 . S
C397 N399 1.279 . S
C397 C400 1.358 . S
C397 H403 0.930 . S
C398 C396 1.353 . S
C398 C401 1.348 . S
C398 H436 0.929 . S
N399 Li354 1.990 . S
N399 C396 1.314 . S
N399 C397 1.279 . S
C400 C397 1.358 . S
C400 C401 1.356 . S
C400 H437 0.930 . S
C401 C398 1.348 . S
C401 C400 1.356 . S
H402 C396 0.930 . S
H403 C397 0.930 . S
C404 N405 1.314 . S
C404 C406 1.353 . S
C404 H410 0.930 . S
N405 Li355 1.990 . S
N405 C404 1.314 . S
N405 C408 1.279 . S
C406 C404 1.353 . S
C406 C409 1.348 . S
C406 H438 0.929 . S
C407 C408 1.358 . S
C407 C409 1.356 . S
C407 H439 0.930 . S
C408 N405 1.279 . S
C408 C407 1.358 . S
C408 H411 0.930 . S
C409 C406 1.348 . S
C409 C407 1.356 . S
H410 C404 0.930 . S
H411 C408 0.930 . S
O412 Li352 1.956 . S
O412 Li353 1.970 . S
O412 Li354 1.961 . S
O412 C356 1.325 . S
O413 Li352 1.970 . S
O413 Li353 1.956 . S
O413 Li355 1.961 . S
O413 C362 1.325 . S
O414 Li352 1.961 . S
O414 Li354 1.956 . S
O414 Li355 1.970 . S
O414 C384 1.325 . S
O415 Li353 1.961 . S
O415 Li354 1.970 . S
O415 Li355 1.956 . S
O415 C390 1.325 . S
H416 C358 0.929 . S
H417 C359 0.930 . S
H418 C360 0.930 . S
H419 C361 0.930 . S
H420 C363 0.930 . S
H421 C365 0.929 . S
H422 C366 0.930 . S
H423 C367 0.930 . S
H424 C370 0.930 . S
H425 C373 0.929 . S
H426 C378 0.929 . S
H427 C379 0.930 . S
H428 C386 0.929 . S
H429 C387 0.930 . S
H430 C388 0.930 . S
H431 C389 0.930 . S
H432 C391 0.929 . S
H433 C392 0.930 . S
H434 C393 0.930 . S
H435 C394 0.930 . S
H436 C398 0.929 . S
H437 C400 0.930 . S
H438 C406 0.929 . S
H439 C407 0.930 . S
Li440 N457 1.990 . S
Li440 O500 1.956 . S
Li440 O501 1.970 . S
Li440 O502 1.961 . S
Li441 N465 1.990 . S
Li441 O500 1.970 . S
Li441 O501 1.956 . S
Li441 O503 1.961 . S
Li442 N487 1.990 . S
Li442 O500 1.961 . S
Li442 O502 1.956 . S
Li442 O503 1.970 . S
Li443 N493 1.990 . S
Li443 O501 1.961 . S
Li443 O502 1.970 . S
Li443 O503 1.956 . S
C444 C446 1.348 . S
C444 C447 1.356 . S
C444 O500 1.325 . S
N445 C448 1.314 . S
N445 C449 1.279 . S
C446 C444 1.348 . S
C446 C448 1.353 . S
C446 H504 0.929 . S
C447 C444 1.356 . S
C447 C449 1.358 . S
C447 H505 0.930 . S
C448 N445 1.314 . S
C448 C446 1.353 . S
C448 H506 0.930 . S
C449 N445 1.279 . S
C449 C447 1.358 . S
C449 H507 0.930 . S
C450 C453 1.348 . S
C450 C454 1.356 . S
C450 O501 1.325 . S
C451 N452 1.279 . S
C451 C454 1.358 . S
C451 H508 0.930 . S
N452 C451 1.279 . S
N452 C455 1.314 . S
C453 C450 1.348 . S
C453 C455 1.353 . S
C453 H509 0.929 . S
C454 C450 1.356 . S
C454 C451 1.358 . S
C454 H510 0.930 . S
C455 N452 1.314 . S
C455 C453 1.353 . S
C455 H511 0.930 . S
C456 N457 1.314 . S
C456 C461 1.353 . S
C456 H462 0.930 . S
N457 Li440 1.990 . S
N457 C456 1.314 . S
N457 C459 1.279 . S
C458 C459 1.358 . S
C458 C460 1.356 . S
C458 H512 0.930 . S
C459 N457 1.279 . S
C459 C458 1.358 . S
C459 H463 0.930 . S
C460 C458 1.356 . S
C460 C461 1.348 . S
C461 C456 1.353 . S
C461 C460 1.348 . S
C461 H513 0.929 . S
H462 C456 0.930 . S
H463 C459 0.930 . S
C464 N465 1.314 . S
C464 C466 1.353 . S
C464 H470 0.930 . S
N465 Li441 1.990 . S
N465 C464 1.314 . S
N465 C468 1.279 . S
C466 C464 1.353 . S
C466 C469 1.348 . S
C466 H514 0.929 . S
C467 C468 1.358 . S
C467 C469 1.356 . S
C467 H515 0.930 . S
C468 N465 1.279 . S
C468 C467 1.358 . S
C468 H471 0.930 . S
C469 C466 1.348 . S
C469 C467 1.356 . S
H470 C464 0.930 . S
H471 C468 0.930 . S
C472 C474 1.348 . S
C472 C475 1.356 . S
C472 O502 1.325 . S
N473 C476 1.314 . S
N473 C477 1.279 . S
C474 C472 1.348 . S
C474 C476 1.353 . S
C474 H516 0.929 . S
C475 C472 1.356 . S
C475 C477 1.358 . S
C475 H517 0.930 . S
C476 N473 1.314 . S
C476 C474 1.353 . S
C476 H518 0.930 . S
C477 N473 1.279 . S
C477 C475 1.358 . S
C477 H519 0.930 . S
C478 C479 1.348 . S
C478 C480 1.356 . S
C478 O503 1.325 . S
C479 C478 1.348 . S
C479 C481 1.353 . S
C479 H520 0.929 . S
C480 C478 1.356 . S
C480 C482 1.358 . S
C480 H521 0.930 . S
C481 C479 1.353 . S
C481 N483 1.314 . S
C481 H522 0.930 . S
C482 C480 1.358 . S
C482 N483 1.279 . S
C482 H523 0.930 . S
N483 C481 1.314 . S
N483 C482 1.279 . S
C484 C486 1.353 . S
C484 N487 1.314 . S
C484 H490 0.930 . S
C485 N487 1.279 . S
C485 C488 1.358 . S
C485 H491 0.930 . S
C486 C484 1.353 . S
C486 C489 1.348 . S
C486 H524 0.929 . S
N487 Li442 1.990 . S
N487 C484 1.314 . S
N487 C485 1.279 . S
C488 C485 1.358 . S
C488 C489 1.356 . S
C488 H525 0.930 . S
C489 C486 1.348 . S
C489 C488 1.356 . S
H490 C484 0.930 . S
H491 C485 0.930 . S
C492 N493 1.314 . S
C492 C494 1.353 . S
C492 H498 0.930 . S
N493 Li443 1.990 . S
N493 C492 1.314 . S
N493 C496 1.279 . S
C494 C492 1.353 . S
C494 C497 1.348 . S
C494 H526 0.929 . S
C495 C496 1.358 . S
C495 C497 1.356 . S
C495 H527 0.930 . S
C496 N493 1.279 . S
C496 C495 1.358 . S
C496 H499 0.930 . S
C497 C494 1.348 . S
C497 C495 1.356 . S
H498 C492 0.930 . S
H499 C496 0.930 . S
O500 Li440 1.956 . S
O500 Li441 1.970 . S
O500 Li442 1.961 . S
O500 C444 1.325 . S
O501 Li440 1.970 . S
O501 Li441 1.956 . S
O501 Li443 1.961 . S
O501 C450 1.325 . S
O502 Li440 1.961 . S
O502 Li442 1.956 . S
O502 Li443 1.970 . S
O502 C472 1.325 . S
O503 Li441 1.961 . S
O503 Li442 1.970 . S
O503 Li443 1.956 . S
O503 C478 1.325 . S
H504 C446 0.929 . S
H505 C447 0.930 . S
H506 C448 0.930 . S
H507 C449 0.930 . S
H508 C451 0.930 . S
H509 C453 0.929 . S
H510 C454 0.930 . S
H511 C455 0.930 . S
H512 C458 0.930 . S
H513 C461 0.929 . S
H514 C466 0.929 . S
H515 C467 0.930 . S
H516 C474 0.929 . S
H517 C475 0.930 . S
H518 C476 0.930 . S
H519 C477 0.930 . S
H520 C479 0.929 . S
H521 C480 0.930 . S
H522 C481 0.930 . S
H523 C482 0.930 . S
H524 C486 0.929 . S
H525 C488 0.930 . S
H526 C494 0.929 . S
H527 C495 0.930 . S
Li528 N545 1.990 . S
Li528 O588 1.956 . S
Li528 O589 1.970 . S
Li528 O590 1.961 . S
Li529 N553 1.990 . S
Li529 O588 1.970 . S
Li529 O589 1.956 . S
Li529 O591 1.961 . S
Li530 N575 1.990 . S
Li530 O588 1.961 . S
Li530 O590 1.956 . S
Li530 O591 1.970 . S
Li531 N581 1.990 . S
Li531 O589 1.961 . S
Li531 O590 1.970 . S
Li531 O591 1.956 . S
C532 C534 1.348 . S
C532 C535 1.356 . S
C532 O588 1.325 . S
N533 C536 1.314 . S
N533 C537 1.279 . S
C534 C532 1.348 . S
C534 C536 1.353 . S
C534 H592 0.929 . S
C535 C532 1.356 . S
C535 C537 1.358 . S
C535 H593 0.930 . S
C536 N533 1.314 . S
C536 C534 1.353 . S
C536 H594 0.930 . S
C537 N533 1.279 . S
C537 C535 1.358 . S
C537 H595 0.930 . S
C538 C541 1.348 . S
C538 C542 1.356 . S
C538 O589 1.325 . S
C539 N540 1.279 . S
C539 C542 1.358 . S
C539 H596 0.930 . S
N540 C539 1.279 . S
N540 C543 1.314 . S
C541 C538 1.348 . S
C541 C543 1.353 . S
C541 H597 0.929 . S
C542 C538 1.356 . S
C542 C539 1.358 . S
C542 H598 0.930 . S
C543 N540 1.314 . S
C543 C541 1.353 . S
C543 H599 0.930 . S
C544 N545 1.314 . S
C544 C549 1.353 . S
C544 H550 0.930 . S
N545 Li528 1.990 . S
N545 C544 1.314 . S
N545 C547 1.279 . S
C546 C547 1.358 . S
C546 C548 1.356 . S
C546 H600 0.930 . S
C547 N545 1.279 . S
C547 C546 1.358 . S
C547 H551 0.930 . S
C548 C546 1.356 . S
C548 C549 1.348 . S
C549 C544 1.353 . S
C549 C548 1.348 . S
C549 H601 0.929 . S
H550 C544 0.930 . S
H551 C547 0.930 . S
C552 N553 1.314 . S
C552 C554 1.353 . S
C552 H558 0.930 . S
N553 Li529 1.990 . S
N553 C552 1.314 . S
N553 C556 1.279 . S
C554 C552 1.353 . S
C554 C557 1.348 . S
C554 H602 0.929 . S
C555 C556 1.358 . S
C555 C557 1.356 . S
C555 H603 0.930 . S
C556 N553 1.279 . S
C556 C555 1.358 . S
C556 H559 0.930 . S
C557 C554 1.348 . S
C557 C555 1.356 . S
H558 C552 0.930 . S
H559 C556 0.930 . S
C560 C562 1.348 . S
C560 C563 1.356 . S
C560 O590 1.325 . S
N561 C564 1.314 . S
N561 C565 1.279 . S
C562 C560 1.348 . S
C562 C564 1.353 . S
C562 H604 0.929 . S
C563 C560 1.356 . S
C563 C565 1.358 . S
C563 H605 0.930 . S
C564 N561 1.314 . S
C564 C562 1.353 . S
C564 H606 0.930 . S
C565 N561 1.279 . S
C565 C563 1.358 . S
C565 H607 0.930 . S
C566 C567 1.348 . S
C566 C568 1.356 . S
C566 O591 1.325 . S
C567 C566 1.348 . S
C567 C569 1.353 . S
C567 H608 0.929 . S
C568 C566 1.356 . S
C568 C570 1.358 . S
C568 H609 0.930 . S
C569 C567 1.353 . S
C569 N571 1.314 . S
C569 H610 0.930 . S
C570 C568 1.358 . S
C570 N571 1.279 . S
C570 H611 0.930 . S
N571 C569 1.314 . S
N571 C570 1.279 . S
C572 C574 1.353 . S
C572 N575 1.314 . S
C572 H578 0.930 . S
C573 N575 1.279 . S
C573 C576 1.358 . S
C573 H579 0.930 . S
C574 C572 1.353 . S
C574 C577 1.348 . S
C574 H612 0.929 . S
N575 Li530 1.990 . S
N575 C572 1.314 . S
N575 C573 1.279 . S
C576 C573 1.358 . S
C576 C577 1.356 . S
C576 H613 0.930 . S
C577 C574 1.348 . S
C577 C576 1.356 . S
H578 C572 0.930 . S
H579 C573 0.930 . S
C580 N581 1.314 . S
C580 C582 1.353 . S
C580 H586 0.930 . S
N581 Li531 1.990 . S
N581 C580 1.314 . S
N581 C584 1.279 . S
C582 C580 1.353 . S
C582 C585 1.348 . S
C582 H614 0.929 . S
C583 C584 1.358 . S
C583 C585 1.356 . S
C583 H615 0.930 . S
C584 N581 1.279 . S
C584 C583 1.358 . S
C584 H587 0.930 . S
C585 C582 1.348 . S
C585 C583 1.356 . S
H586 C580 0.930 . S
H587 C584 0.930 . S
O588 Li528 1.956 . S
O588 Li529 1.970 . S
O588 Li530 1.961 . S
O588 C532 1.325 . S
O589 Li528 1.970 . S
O589 Li529 1.956 . S
O589 Li531 1.961 . S
O589 C538 1.325 . S
O590 Li528 1.961 . S
O590 Li530 1.956 . S
O590 Li531 1.970 . S
O590 C560 1.325 . S
O591 Li529 1.961 . S
O591 Li530 1.970 . S
O591 Li531 1.956 . S
O591 C566 1.325 . S
H592 C534 0.929 . S
H593 C535 0.930 . S
H594 C536 0.930 . S
H595 C537 0.930 . S
H596 C539 0.930 . S
H597 C541 0.929 . S
H598 C542 0.930 . S
H599 C543 0.930 . S
H600 C546 0.930 . S
H601 C549 0.929 . S
H602 C554 0.929 . S
H603 C555 0.930 . S
H604 C562 0.929 . S
H605 C563 0.930 . S
H606 C564 0.930 . S
H607 C565 0.930 . S
H608 C567 0.929 . S
H609 C568 0.930 . S
H610 C569 0.930 . S
H611 C570 0.930 . S
H612 C574 0.929 . S
H613 C576 0.930 . S
H614 C582 0.929 . S
H615 C583 0.930 . S
Li616 N633 1.990 . S
Li616 O676 1.956 . S
Li616 O677 1.970 . S
Li616 O678 1.961 . S
Li617 N641 1.990 . S
Li617 O676 1.970 . S
Li617 O677 1.956 . S
Li617 O679 1.961 . S
Li618 N663 1.990 . S
Li618 O676 1.961 . S
Li618 O678 1.956 . S
Li618 O679 1.970 . S
Li619 N669 1.990 . S
Li619 O677 1.961 . S
Li619 O678 1.970 . S
Li619 O679 1.956 . S
C620 C622 1.348 . S
C620 C623 1.356 . S
C620 O676 1.325 . S
N621 C624 1.314 . S
N621 C625 1.279 . S
C622 C620 1.348 . S
C622 C624 1.353 . S
C622 H680 0.929 . S
C623 C620 1.356 . S
C623 C625 1.358 . S
C623 H681 0.930 . S
C624 N621 1.314 . S
C624 C622 1.353 . S
C624 H682 0.930 . S
C625 N621 1.279 . S
C625 C623 1.358 . S
C625 H683 0.930 . S
C626 C629 1.348 . S
C626 C630 1.356 . S
C626 O677 1.325 . S
C627 N628 1.279 . S
C627 C630 1.358 . S
C627 H684 0.930 . S
N628 C627 1.279 . S
N628 C631 1.314 . S
C629 C626 1.348 . S
C629 C631 1.353 . S
C629 H685 0.929 . S
C630 C626 1.356 . S
C630 C627 1.358 . S
C630 H686 0.930 . S
C631 N628 1.314 . S
C631 C629 1.353 . S
C631 H687 0.930 . S
C632 N633 1.314 . S
C632 C637 1.353 . S
C632 H638 0.930 . S
N633 Li616 1.990 . S
N633 C632 1.314 . S
N633 C635 1.279 . S
C634 C635 1.358 . S
C634 C636 1.356 . S
C634 H688 0.930 . S
C635 N633 1.279 . S
C635 C634 1.358 . S
C635 H639 0.930 . S
C636 C634 1.356 . S
C636 C637 1.348 . S
C637 C632 1.353 . S
C637 C636 1.348 . S
C637 H689 0.929 . S
H638 C632 0.930 . S
H639 C635 0.930 . S
C640 N641 1.314 . S
C640 C642 1.353 . S
C640 H646 0.930 . S
N641 Li617 1.990 . S
N641 C640 1.314 . S
N641 C644 1.279 . S
C642 C640 1.353 . S
C642 C645 1.348 . S
C642 H690 0.929 . S
C643 C644 1.358 . S
C643 C645 1.356 . S
C643 H691 0.930 . S
C644 N641 1.279 . S
C644 C643 1.358 . S
C644 H647 0.930 . S
C645 C642 1.348 . S
C645 C643 1.356 . S
H646 C640 0.930 . S
H647 C644 0.930 . S
C648 C650 1.348 . S
C648 C651 1.356 . S
C648 O678 1.325 . S
N649 C652 1.314 . S
N649 C653 1.279 . S
C650 C648 1.348 . S
C650 C652 1.353 . S
C650 H692 0.929 . S
C651 C648 1.356 . S
C651 C653 1.358 . S
C651 H693 0.930 . S
C652 N649 1.314 . S
C652 C650 1.353 . S
C652 H694 0.930 . S
C653 N649 1.279 . S
C653 C651 1.358 . S
C653 H695 0.930 . S
C654 C655 1.348 . S
C654 C656 1.356 . S
C654 O679 1.325 . S
C655 C654 1.348 . S
C655 C657 1.353 . S
C655 H696 0.929 . S
C656 C654 1.356 . S
C656 C658 1.358 . S
C656 H697 0.930 . S
C657 C655 1.353 . S
C657 N659 1.314 . S
C657 H698 0.930 . S
C658 C656 1.358 . S
C658 N659 1.279 . S
C658 H699 0.930 . S
N659 C657 1.314 . S
N659 C658 1.279 . S
C660 C662 1.353 . S
C660 N663 1.314 . S
C660 H666 0.930 . S
C661 N663 1.279 . S
C661 C664 1.358 . S
C661 H667 0.930 . S
C662 C660 1.353 . S
C662 C665 1.348 . S
C662 H700 0.929 . S
N663 Li618 1.990 . S
N663 C660 1.314 . S
N663 C661 1.279 . S
C664 C661 1.358 . S
C664 C665 1.356 . S
C664 H701 0.930 . S
C665 C662 1.348 . S
C665 C664 1.356 . S
H666 C660 0.930 . S
H667 C661 0.930 . S
C668 N669 1.314 . S
C668 C670 1.353 . S
C668 H674 0.930 . S
N669 Li619 1.990 . S
N669 C668 1.314 . S
N669 C672 1.279 . S
C670 C668 1.353 . S
C670 C673 1.348 . S
C670 H702 0.929 . S
C671 C672 1.358 . S
C671 C673 1.356 . S
C671 H703 0.930 . S
C672 N669 1.279 . S
C672 C671 1.358 . S
C672 H675 0.930 . S
C673 C670 1.348 . S
C673 C671 1.356 . S
H674 C668 0.930 . S
H675 C672 0.930 . S
O676 Li616 1.956 . S
O676 Li617 1.970 . S
O676 Li618 1.961 . S
O676 C620 1.325 . S
O677 Li616 1.970 . S
O677 Li617 1.956 . S
O677 Li619 1.961 . S
O677 C626 1.325 . S
O678 Li616 1.961 . S
O678 Li618 1.956 . S
O678 Li619 1.970 . S
O678 C648 1.325 . S
O679 Li617 1.961 . S
O679 Li618 1.970 . S
O679 Li619 1.956 . S
O679 C654 1.325 . S
H680 C622 0.929 . S
H681 C623 0.930 . S
H682 C624 0.930 . S
H683 C625 0.930 . S
H684 C627 0.930 . S
H685 C629 0.929 . S
H686 C630 0.930 . S
H687 C631 0.930 . S
H688 C634 0.930 . S
H689 C637 0.929 . S
H690 C642 0.929 . S
H691 C643 0.930 . S
H692 C650 0.929 . S
H693 C651 0.930 . S
H694 C652 0.930 . S
H695 C653 0.930 . S
H696 C655 0.929 . S
H697 C656 0.930 . S
H698 C657 0.930 . S
H699 C658 0.930 . S
H700 C662 0.929 . S
H701 C664 0.930 . S
H702 C670 0.929 . S
H703 C671 0.930 . S
Li704 N721 1.990 . S
Li704 O764 1.956 . S
Li704 O765 1.970 . S
Li704 O766 1.961 . S
Li705 N729 1.990 . S
Li705 O764 1.970 . S
Li705 O765 1.956 . S
Li705 O767 1.961 . S
Li706 N751 1.990 . S
Li706 O764 1.961 . S
Li706 O766 1.956 . S
Li706 O767 1.970 . S
Li707 N757 1.990 . S
Li707 O765 1.961 . S
Li707 O766 1.970 . S
Li707 O767 1.956 . S
C708 C710 1.348 . S
C708 C711 1.356 . S
C708 O764 1.325 . S
N709 C712 1.314 . S
N709 C713 1.279 . S
C710 C708 1.348 . S
C710 C712 1.353 . S
C710 H768 0.929 . S
C711 C708 1.356 . S
C711 C713 1.358 . S
C711 H769 0.930 . S
C712 N709 1.314 . S
C712 C710 1.353 . S
C712 H770 0.930 . S
C713 N709 1.279 . S
C713 C711 1.358 . S
C713 H771 0.930 . S
C714 C717 1.348 . S
C714 C718 1.356 . S
C714 O765 1.325 . S
C715 N716 1.279 . S
C715 C718 1.358 . S
C715 H772 0.930 . S
N716 C715 1.279 . S
N716 C719 1.314 . S
C717 C714 1.348 . S
C717 C719 1.353 . S
C717 H773 0.929 . S
C718 C714 1.356 . S
C718 C715 1.358 . S
C718 H774 0.930 . S
C719 N716 1.314 . S
C719 C717 1.353 . S
C719 H775 0.930 . S
C720 N721 1.314 . S
C720 C725 1.353 . S
C720 H726 0.930 . S
N721 Li704 1.990 . S
N721 C720 1.314 . S
N721 C723 1.279 . S
C722 C723 1.358 . S
C722 C724 1.356 . S
C722 H776 0.930 . S
C723 N721 1.279 . S
C723 C722 1.358 . S
C723 H727 0.930 . S
C724 C722 1.356 . S
C724 C725 1.348 . S
C725 C720 1.353 . S
C725 C724 1.348 . S
C725 H777 0.929 . S
H726 C720 0.930 . S
H727 C723 0.930 . S
C728 N729 1.314 . S
C728 C730 1.353 . S
C728 H734 0.930 . S
N729 Li705 1.990 . S
N729 C728 1.314 . S
N729 C732 1.279 . S
C730 C728 1.353 . S
C730 C733 1.348 . S
C730 H778 0.929 . S
C731 C732 1.358 . S
C731 C733 1.356 . S
C731 H779 0.930 . S
C732 N729 1.279 . S
C732 C731 1.358 . S
C732 H735 0.930 . S
C733 C730 1.348 . S
C733 C731 1.356 . S
H734 C728 0.930 . S
H735 C732 0.930 . S
C736 C738 1.348 . S
C736 C739 1.356 . S
C736 O766 1.325 . S
N737 C740 1.314 . S
N737 C741 1.279 . S
C738 C736 1.348 . S
C738 C740 1.353 . S
C738 H780 0.929 . S
C739 C736 1.356 . S
C739 C741 1.358 . S
C739 H781 0.930 . S
C740 N737 1.314 . S
C740 C738 1.353 . S
C740 H782 0.930 . S
C741 N737 1.279 . S
C741 C739 1.358 . S
C741 H783 0.930 . S
C742 C743 1.348 . S
C742 C744 1.356 . S
C742 O767 1.325 . S
C743 C742 1.348 . S
C743 C745 1.353 . S
C743 H784 0.929 . S
C744 C742 1.356 . S
C744 C746 1.358 . S
C744 H785 0.930 . S
C745 C743 1.353 . S
C745 N747 1.314 . S
C745 H786 0.930 . S
C746 C744 1.358 . S
C746 N747 1.279 . S
C746 H787 0.930 . S
N747 C745 1.314 . S
N747 C746 1.279 . S
C748 C750 1.353 . S
C748 N751 1.314 . S
C748 H754 0.930 . S
C749 N751 1.279 . S
C749 C752 1.358 . S
C749 H755 0.930 . S
C750 C748 1.353 . S
C750 C753 1.348 . S
C750 H788 0.929 . S
N751 Li706 1.990 . S
N751 C748 1.314 . S
N751 C749 1.279 . S
C752 C749 1.358 . S
C752 C753 1.356 . S
C752 H789 0.930 . S
C753 C750 1.348 . S
C753 C752 1.356 . S
H754 C748 0.930 . S
H755 C749 0.930 . S
C756 N757 1.314 . S
C756 C758 1.353 . S
C756 H762 0.930 . S
N757 Li707 1.990 . S
N757 C756 1.314 . S
N757 C760 1.279 . S
C758 C756 1.353 . S
C758 C761 1.348 . S
C758 H790 0.929 . S
C759 C760 1.358 . S
C759 C761 1.356 . S
C759 H791 0.930 . S
C760 N757 1.279 . S
C760 C759 1.358 . S
C760 H763 0.930 . S
C761 C758 1.348 . S
C761 C759 1.356 . S
H762 C756 0.930 . S
H763 C760 0.930 . S
O764 Li704 1.956 . S
O764 Li705 1.970 . S
O764 Li706 1.961 . S
O764 C708 1.325 . S
O765 Li704 1.970 . S
O765 Li705 1.956 . S
O765 Li707 1.961 . S
O765 C714 1.325 . S
O766 Li704 1.961 . S
O766 Li706 1.956 . S
O766 Li707 1.970 . S
O766 C736 1.325 . S
O767 Li705 1.961 . S
O767 Li706 1.970 . S
O767 Li707 1.956 . S
O767 C742 1.325 . S
H768 C710 0.929 . S
H769 C711 0.930 . S
H770 C712 0.930 . S
H771 C713 0.930 . S
H772 C715 0.930 . S
H773 C717 0.929 . S
H774 C718 0.930 . S
H775 C719 0.930 . S
H776 C722 0.930 . S
H777 C725 0.929 . S
H778 C730 0.929 . S
H779 C731 0.930 . S
H780 C738 0.929 . S
H781 C739 0.930 . S
H782 C740 0.930 . S
H783 C741 0.930 . S
H784 C743 0.929 . S
H785 C744 0.930 . S
H786 C745 0.930 . S
H787 C746 0.930 . S
H788 C750 0.929 . S
H789 C752 0.930 . S
H790 C758 0.929 . S
H791 C759 0.930 . S
Li792 N809 1.990 . S
Li792 O852 1.956 . S
Li792 O853 1.970 . S
Li792 O854 1.961 . S
Li793 N817 1.990 . S
Li793 O852 1.970 . S
Li793 O853 1.956 . S
Li793 O855 1.961 . S
Li794 N839 1.990 . S
Li794 O852 1.961 . S
Li794 O854 1.956 . S
Li794 O855 1.970 . S
Li795 N845 1.990 . S
Li795 O853 1.961 . S
Li795 O854 1.970 . S
Li795 O855 1.956 . S
C796 C798 1.348 . S
C796 C799 1.356 . S
C796 O852 1.325 . S
N797 C800 1.314 . S
N797 C801 1.279 . S
C798 C796 1.348 . S
C798 C800 1.353 . S
C798 H856 0.929 . S
C799 C796 1.356 . S
C799 C801 1.358 . S
C799 H857 0.930 . S
C800 N797 1.314 . S
C800 C798 1.353 . S
C800 H858 0.930 . S
C801 N797 1.279 . S
C801 C799 1.358 . S
C801 H859 0.930 . S
C802 C805 1.348 . S
C802 C806 1.356 . S
C802 O853 1.325 . S
C803 N804 1.279 . S
C803 C806 1.358 . S
C803 H860 0.930 . S
N804 C803 1.279 . S
N804 C807 1.314 . S
C805 C802 1.348 . S
C805 C807 1.353 . S
C805 H861 0.929 . S
C806 C802 1.356 . S
C806 C803 1.358 . S
C806 H862 0.930 . S
C807 N804 1.314 . S
C807 C805 1.353 . S
C807 H863 0.930 . S
C808 N809 1.314 . S
C808 C813 1.353 . S
C808 H814 0.930 . S
N809 Li792 1.990 . S
N809 C808 1.314 . S
N809 C811 1.279 . S
C810 C811 1.358 . S
C810 C812 1.356 . S
C810 H864 0.930 . S
C811 N809 1.279 . S
C811 C810 1.358 . S
C811 H815 0.930 . S
C812 C810 1.356 . S
C812 C813 1.348 . S
C813 C808 1.353 . S
C813 C812 1.348 . S
C813 H865 0.929 . S
H814 C808 0.930 . S
H815 C811 0.930 . S
C816 N817 1.314 . S
C816 C818 1.353 . S
C816 H822 0.930 . S
N817 Li793 1.990 . S
N817 C816 1.314 . S
N817 C820 1.279 . S
C818 C816 1.353 . S
C818 C821 1.348 . S
C818 H866 0.929 . S
C819 C820 1.358 . S
C819 C821 1.356 . S
C819 H867 0.930 . S
C820 N817 1.279 . S
C820 C819 1.358 . S
C820 H823 0.930 . S
C821 C818 1.348 . S
C821 C819 1.356 . S
H822 C816 0.930 . S
H823 C820 0.930 . S
C824 C826 1.348 . S
C824 C827 1.356 . S
C824 O854 1.325 . S
N825 C828 1.314 . S
N825 C829 1.279 . S
C826 C824 1.348 . S
C826 C828 1.353 . S
C826 H868 0.929 . S
C827 C824 1.356 . S
C827 C829 1.358 . S
C827 H869 0.930 . S
C828 N825 1.314 . S
C828 C826 1.353 . S
C828 H870 0.930 . S
C829 N825 1.279 . S
C829 C827 1.358 . S
C829 H871 0.930 . S
C830 C831 1.348 . S
C830 C832 1.356 . S
C830 O855 1.325 . S
C831 C830 1.348 . S
C831 C833 1.353 . S
C831 H872 0.929 . S
C832 C830 1.356 . S
C832 C834 1.358 . S
C832 H873 0.930 . S
C833 C831 1.353 . S
C833 N835 1.314 . S
C833 H874 0.930 . S
C834 C832 1.358 . S
C834 N835 1.279 . S
C834 H875 0.930 . S
N835 C833 1.314 . S
N835 C834 1.279 . S
C836 C838 1.353 . S
C836 N839 1.314 . S
C836 H842 0.930 . S
C837 N839 1.279 . S
C837 C840 1.358 . S
C837 H843 0.930 . S
C838 C836 1.353 . S
C838 C841 1.348 . S
C838 H876 0.929 . S
N839 Li794 1.990 . S
N839 C836 1.314 . S
N839 C837 1.279 . S
C840 C837 1.358 . S
C840 C841 1.356 . S
C840 H877 0.930 . S
C841 C838 1.348 . S
C841 C840 1.356 . S
H842 C836 0.930 . S
H843 C837 0.930 . S
C844 N845 1.314 . S
C844 C846 1.353 . S
C844 H850 0.930 . S
N845 Li795 1.990 . S
N845 C844 1.314 . S
N845 C848 1.279 . S
C846 C844 1.353 . S
C846 C849 1.348 . S
C846 H878 0.929 . S
C847 C848 1.358 . S
C847 C849 1.356 . S
C847 H879 0.930 . S
C848 N845 1.279 . S
C848 C847 1.358 . S
C848 H851 0.930 . S
C849 C846 1.348 . S
C849 C847 1.356 . S
H850 C844 0.930 . S
H851 C848 0.930 . S
O852 Li792 1.956 . S
O852 Li793 1.970 . S
O852 Li794 1.961 . S
O852 C796 1.325 . S
O853 Li792 1.970 . S
O853 Li793 1.956 . S
O853 Li795 1.961 . S
O853 C802 1.325 . S
O854 Li792 1.961 . S
O854 Li794 1.956 . S
O854 Li795 1.970 . S
O854 C824 1.325 . S
O855 Li793 1.961 . S
O855 Li794 1.970 . S
O855 Li795 1.956 . S
O855 C830 1.325 . S
H856 C798 0.929 . S
H857 C799 0.930 . S
H858 C800 0.930 . S
H859 C801 0.930 . S
H860 C803 0.930 . S
H861 C805 0.929 . S
H862 C806 0.930 . S
H863 C807 0.930 . S
H864 C810 0.930 . S
H865 C813 0.929 . S
H866 C818 0.929 . S
H867 C819 0.930 . S
H868 C826 0.929 . S
H869 C827 0.930 . S
H870 C828 0.930 . S
H871 C829 0.930 . S
H872 C831 0.929 . S
H873 C832 0.930 . S
H874 C833 0.930 . S
H875 C834 0.930 . S
H876 C838 0.929 . S
H877 C840 0.930 . S
H878 C846 0.929 . S
H879 C847 0.930 . S
Li880 N897 1.990 . S
Li880 O940 1.956 . S
Li880 O941 1.970 . S
Li880 O942 1.961 . S
Li881 N905 1.990 . S
Li881 O940 1.970 . S
Li881 O941 1.956 . S
Li881 O943 1.961 . S
Li882 N927 1.990 . S
Li882 O940 1.961 . S
Li882 O942 1.956 . S
Li882 O943 1.970 . S
Li883 N933 1.990 . S
Li883 O941 1.961 . S
Li883 O942 1.970 . S
Li883 O943 1.956 . S
C884 C886 1.348 . S
C884 C887 1.356 . S
C884 O940 1.325 . S
N885 C888 1.314 . S
N885 C889 1.279 . S
C886 C884 1.348 . S
C886 C888 1.353 . S
C886 H944 0.929 . S
C887 C884 1.356 . S
C887 C889 1.358 . S
C887 H945 0.930 . S
C888 N885 1.314 . S
C888 C886 1.353 . S
C888 H946 0.930 . S
C889 N885 1.279 . S
C889 C887 1.358 . S
C889 H947 0.930 . S
C890 C893 1.348 . S
C890 C894 1.356 . S
C890 O941 1.325 . S
C891 N892 1.279 . S
C891 C894 1.358 . S
C891 H948 0.930 . S
N892 C891 1.279 . S
N892 C895 1.314 . S
C893 C890 1.348 . S
C893 C895 1.353 . S
C893 H949 0.929 . S
C894 C890 1.356 . S
C894 C891 1.358 . S
C894 H950 0.930 . S
C895 N892 1.314 . S
C895 C893 1.353 . S
C895 H951 0.930 . S
C896 N897 1.314 . S
C896 C901 1.353 . S
C896 H902 0.930 . S
N897 Li880 1.990 . S
N897 C896 1.314 . S
N897 C899 1.279 . S
C898 C899 1.358 . S
C898 C900 1.356 . S
C898 H952 0.930 . S
C899 N897 1.279 . S
C899 C898 1.358 . S
C899 H903 0.930 . S
C900 C898 1.356 . S
C900 C901 1.348 . S
C901 C896 1.353 . S
C901 C900 1.348 . S
C901 H953 0.929 . S
H902 C896 0.930 . S
H903 C899 0.930 . S
C904 N905 1.314 . S
C904 C906 1.353 . S
C904 H910 0.930 . S
N905 Li881 1.990 . S
N905 C904 1.314 . S
N905 C908 1.279 . S
C906 C904 1.353 . S
C906 C909 1.348 . S
C906 H954 0.929 . S
C907 C908 1.358 . S
C907 C909 1.356 . S
C907 H955 0.930 . S
C908 N905 1.279 . S
C908 C907 1.358 . S
C908 H911 0.930 . S
C909 C906 1.348 . S
C909 C907 1.356 . S
H910 C904 0.930 . S
H911 C908 0.930 . S
C912 C914 1.348 . S
C912 C915 1.356 . S
C912 O942 1.325 . S
N913 C916 1.314 . S
N913 C917 1.279 . S
C914 C912 1.348 . S
C914 C916 1.353 . S
C914 H956 0.929 . S
C915 C912 1.356 . S
C915 C917 1.358 . S
C915 H957 0.930 . S
C916 N913 1.314 . S
C916 C914 1.353 . S
C916 H958 0.930 . S
C917 N913 1.279 . S
C917 C915 1.358 . S
C917 H959 0.930 . S
C918 C919 1.348 . S
C918 C920 1.356 . S
C918 O943 1.325 . S
C919 C918 1.348 . S
C919 C921 1.353 . S
C919 H960 0.929 . S
C920 C918 1.356 . S
C920 C922 1.358 . S
C920 H961 0.930 . S
C921 C919 1.353 . S
C921 N923 1.314 . S
C921 H962 0.930 . S
C922 C920 1.358 . S
C922 N923 1.279 . S
C922 H963 0.930 . S
N923 C921 1.314 . S
N923 C922 1.279 . S
C924 C926 1.353 . S
C924 N927 1.314 . S
C924 H930 0.930 . S
C925 N927 1.279 . S
C925 C928 1.358 . S
C925 H931 0.930 . S
C926 C924 1.353 . S
C926 C929 1.348 . S
C926 H964 0.929 . S
N927 Li882 1.990 . S
N927 C924 1.314 . S
N927 C925 1.279 . S
C928 C925 1.358 . S
C928 C929 1.356 . S
C928 H965 0.930 . S
C929 C926 1.348 . S
C929 C928 1.356 . S
H930 C924 0.930 . S
H931 C925 0.930 . S
C932 N933 1.314 . S
C932 C934 1.353 . S
C932 H938 0.930 . S
N933 Li883 1.990 . S
N933 C932 1.314 . S
N933 C936 1.279 . S
C934 C932 1.353 . S
C934 C937 1.348 . S
C934 H966 0.929 . S
C935 C936 1.358 . S
C935 C937 1.356 . S
C935 H967 0.930 . S
C936 N933 1.279 . S
C936 C935 1.358 . S
C936 H939 0.930 . S
C937 C934 1.348 . S
C937 C935 1.356 . S
H938 C932 0.930 . S
H939 C936 0.930 . S
O940 Li880 1.956 . S
O940 Li881 1.970 . S
O940 Li882 1.961 . S
O940 C884 1.325 . S
O941 Li880 1.970 . S
O941 Li881 1.956 . S
O941 Li883 1.961 . S
O941 C890 1.325 . S
O942 Li880 1.961 . S
O942 Li882 1.956 . S
O942 Li883 1.970 . S
O942 C912 1.325 . S
O943 Li881 1.961 . S
O943 Li882 1.970 . S
O943 Li883 1.956 . S
O943 C918 1.325 . S
H944 C886 0.929 . S
H945 C887 0.930 . S
H946 C888 0.930 . S
H947 C889 0.930 . S
H948 C891 0.930 . S
H949 C893 0.929 . S
H950 C894 0.930 . S
H951 C895 0.930 . S
H952 C898 0.930 . S
H953 C901 0.929 . S
H954 C906 0.929 . S
H955 C907 0.930 . S
H956 C914 0.929 . S
H957 C915 0.930 . S
H958 C916 0.930 . S
H959 C917 0.930 . S
H960 C919 0.929 . S
H961 C920 0.930 . S
H962 C921 0.930 . S
H963 C922 0.930 . S
H964 C926 0.929 . S
H965 C928 0.930 . S
H966 C934 0.929 . S
H967 C935 0.930 . S
Li968 N985 1.990 . S
Li968 O1028 1.956 . S
Li968 O1029 1.970 . S
Li968 O1030 1.961 . S
Li969 N993 1.990 . S
Li969 O1028 1.970 . S
Li969 O1029 1.956 . S
Li969 O1031 1.961 . S
Li970 N1015 1.990 . S
Li970 O1028 1.961 . S
Li970 O1030 1.956 . S
Li970 O1031 1.970 . S
Li971 N1021 1.990 . S
Li971 O1029 1.961 . S
Li971 O1030 1.970 . S
Li971 O1031 1.956 . S
C972 C974 1.348 . S
C972 C975 1.356 . S
C972 O1028 1.325 . S
N973 C976 1.314 . S
N973 C977 1.279 . S
C974 C972 1.348 . S
C974 C976 1.353 . S
C974 H1032 0.929 . S
C975 C972 1.356 . S
C975 C977 1.358 . S
C975 H1033 0.930 . S
C976 N973 1.314 . S
C976 C974 1.353 . S
C976 H1034 0.930 . S
C977 N973 1.279 . S
C977 C975 1.358 . S
C977 H1035 0.930 . S
C978 C981 1.348 . S
C978 C982 1.356 . S
C978 O1029 1.325 . S
C979 N980 1.279 . S
C979 C982 1.358 . S
C979 H1036 0.930 . S
N980 C979 1.279 . S
N980 C983 1.314 . S
C981 C978 1.348 . S
C981 C983 1.353 . S
C981 H1037 0.929 . S
C982 C978 1.356 . S
C982 C979 1.358 . S
C982 H1038 0.930 . S
C983 N980 1.314 . S
C983 C981 1.353 . S
C983 H1039 0.930 . S
C984 N985 1.314 . S
C984 C989 1.353 . S
C984 H990 0.930 . S
N985 Li968 1.990 . S
N985 C984 1.314 . S
N985 C987 1.279 . S
C986 C987 1.358 . S
C986 C988 1.356 . S
C986 H1040 0.930 . S
C987 N985 1.279 . S
C987 C986 1.358 . S
C987 H991 0.930 . S
C988 C986 1.356 . S
C988 C989 1.348 . S
C989 C984 1.353 . S
C989 C988 1.348 . S
C989 H1041 0.929 . S
H990 C984 0.930 . S
H991 C987 0.930 . S
C992 N993 1.314 . S
C992 C994 1.353 . S
C992 H998 0.930 . S
N993 Li969 1.990 . S
N993 C992 1.314 . S
N993 C996 1.279 . S
C994 C992 1.353 . S
C994 C997 1.348 . S
C994 H1042 0.929 . S
C995 C996 1.358 . S
C995 C997 1.356 . S
C995 H1043 0.930 . S
C996 N993 1.279 . S
C996 C995 1.358 . S
C996 H999 0.930 . S
C997 C994 1.348 . S
C997 C995 1.356 . S
H998 C992 0.930 . S
H999 C996 0.930 . S
C1000 C1002 1.348 . S
C1000 C1003 1.356 . S
C1000 O1030 1.325 . S
N1001 C1004 1.314 . S
N1001 C1005 1.279 . S
C1002 C1000 1.348 . S
C1002 C1004 1.353 . S
C1002 H1044 0.929 . S
C1003 C1000 1.356 . S
C1003 C1005 1.358 . S
C1003 H1045 0.930 . S
C1004 N1001 1.314 . S
C1004 C1002 1.353 . S
C1004 H1046 0.930 . S
C1005 N1001 1.279 . S
C1005 C1003 1.358 . S
C1005 H1047 0.930 . S
C1006 C1007 1.348 . S
C1006 C1008 1.356 . S
C1006 O1031 1.325 . S
C1007 C1006 1.348 . S
C1007 C1009 1.353 . S
C1007 H1048 0.929 . S
C1008 C1006 1.356 . S
C1008 C1010 1.358 . S
C1008 H1049 0.930 . S
C1009 C1007 1.353 . S
C1009 N1011 1.314 . S
C1009 H1050 0.930 . S
C1010 C1008 1.358 . S
C1010 N1011 1.279 . S
C1010 H1051 0.930 . S
N1011 C1009 1.314 . S
N1011 C1010 1.279 . S
C1012 C1014 1.353 . S
C1012 N1015 1.314 . S
C1012 H1018 0.930 . S
C1013 N1015 1.279 . S
C1013 C1016 1.358 . S
C1013 H1019 0.930 . S
C1014 C1012 1.353 . S
C1014 C1017 1.348 . S
C1014 H1052 0.929 . S
N1015 Li970 1.990 . S
N1015 C1012 1.314 . S
N1015 C1013 1.279 . S
C1016 C1013 1.358 . S
C1016 C1017 1.356 . S
C1016 H1053 0.930 . S
C1017 C1014 1.348 . S
C1017 C1016 1.356 . S
H1018 C1012 0.930 . S
H1019 C1013 0.930 . S
C1020 N1021 1.314 . S
C1020 C1022 1.353 . S
C1020 H1026 0.930 . S
N1021 Li971 1.990 . S
N1021 C1020 1.314 . S
N1021 C1024 1.279 . S
C1022 C1020 1.353 . S
C1022 C1025 1.348 . S
C1022 H1054 0.929 . S
C1023 C1024 1.358 . S
C1023 C1025 1.356 . S
C1023 H1055 0.930 . S
C1024 N1021 1.279 . S
C1024 C1023 1.358 . S
C1024 H1027 0.930 . S
C1025 C1022 1.348 . S
C1025 C1023 1.356 . S
H1026 C1020 0.930 . S
H1027 C1024 0.930 . S
O1028 Li968 1.956 . S
O1028 Li969 1.970 . S
O1028 Li970 1.961 . S
O1028 C972 1.325 . S
O1029 Li968 1.970 . S
O1029 Li969 1.956 . S
O1029 Li971 1.961 . S
O1029 C978 1.325 . S
O1030 Li968 1.961 . S
O1030 Li970 1.956 . S
O1030 Li971 1.970 . S
O1030 C1000 1.325 . S
O1031 Li969 1.961 . S
O1031 Li970 1.970 . S
O1031 Li971 1.956 . S
O1031 C1006 1.325 . S
H1032 C974 0.929 . S
H1033 C975 0.930 . S
H1034 C976 0.930 . S
H1035 C977 0.930 . S
H1036 C979 0.930 . S
H1037 C981 0.929 . S
H1038 C982 0.930 . S
H1039 C983 0.930 . S
H1040 C986 0.930 . S
H1041 C989 0.929 . S
H1042 C994 0.929 . S
H1043 C995 0.930 . S
H1044 C1002 0.929 . S
H1045 C1003 0.930 . S
H1046 C1004 0.930 . S
H1047 C1005 0.930 . S
H1048 C1007 0.929 . S
H1049 C1008 0.930 . S
H1050 C1009 0.930 . S
H1051 C1010 0.930 . S
H1052 C1014 0.929 . S
H1053 C1016 0.930 . S
H1054 C1022 0.929 . S
H1055 C1023 0.930 . S
Li1056 N1073 1.990 . S
Li1056 O1116 1.956 . S
Li1056 O1117 1.970 . S
Li1056 O1118 1.961 . S
Li1057 N1081 1.990 . S
Li1057 O1116 1.970 . S
Li1057 O1117 1.956 . S
Li1057 O1119 1.961 . S
Li1058 N1103 1.990 . S
Li1058 O1116 1.961 . S
Li1058 O1118 1.956 . S
Li1058 O1119 1.970 . S
Li1059 N1109 1.990 . S
Li1059 O1117 1.961 . S
Li1059 O1118 1.970 . S
Li1059 O1119 1.956 . S
C1060 C1062 1.348 . S
C1060 C1063 1.356 . S
C1060 O1116 1.325 . S
N1061 C1064 1.314 . S
N1061 C1065 1.279 . S
C1062 C1060 1.348 . S
C1062 C1064 1.353 . S
C1062 H1120 0.929 . S
C1063 C1060 1.356 . S
C1063 C1065 1.358 . S
C1063 H1121 0.930 . S
C1064 N1061 1.314 . S
C1064 C1062 1.353 . S
C1064 H1122 0.930 . S
C1065 N1061 1.279 . S
C1065 C1063 1.358 . S
C1065 H1123 0.930 . S
C1066 C1069 1.348 . S
C1066 C1070 1.356 . S
C1066 O1117 1.325 . S
C1067 N1068 1.279 . S
C1067 C1070 1.358 . S
C1067 H1124 0.930 . S
N1068 C1067 1.279 . S
N1068 C1071 1.314 . S
C1069 C1066 1.348 . S
C1069 C1071 1.353 . S
C1069 H1125 0.929 . S
C1070 C1066 1.356 . S
C1070 C1067 1.358 . S
C1070 H1126 0.930 . S
C1071 N1068 1.314 . S
C1071 C1069 1.353 . S
C1071 H1127 0.930 . S
C1072 N1073 1.314 . S
C1072 C1077 1.353 . S
C1072 H1078 0.930 . S
N1073 Li1056 1.990 . S
N1073 C1072 1.314 . S
N1073 C1075 1.279 . S
C1074 C1075 1.358 . S
C1074 C1076 1.356 . S
C1074 H1128 0.930 . S
C1075 N1073 1.279 . S
C1075 C1074 1.358 . S
C1075 H1079 0.930 . S
C1076 C1074 1.356 . S
C1076 C1077 1.348 . S
C1077 C1072 1.353 . S
C1077 C1076 1.348 . S
C1077 H1129 0.929 . S
H1078 C1072 0.930 . S
H1079 C1075 0.930 . S
C1080 N1081 1.314 . S
C1080 C1082 1.353 . S
C1080 H1086 0.930 . S
N1081 Li1057 1.990 . S
N1081 C1080 1.314 . S
N1081 C1084 1.279 . S
C1082 C1080 1.353 . S
C1082 C1085 1.348 . S
C1082 H1130 0.929 . S
C1083 C1084 1.358 . S
C1083 C1085 1.356 . S
C1083 H1131 0.930 . S
C1084 N1081 1.279 . S
C1084 C1083 1.358 . S
C1084 H1087 0.930 . S
C1085 C1082 1.348 . S
C1085 C1083 1.356 . S
H1086 C1080 0.930 . S
H1087 C1084 0.930 . S
C1088 C1090 1.348 . S
C1088 C1091 1.356 . S
C1088 O1118 1.325 . S
N1089 C1092 1.314 . S
N1089 C1093 1.279 . S
C1090 C1088 1.348 . S
C1090 C1092 1.353 . S
C1090 H1132 0.929 . S
C1091 C1088 1.356 . S
C1091 C1093 1.358 . S
C1091 H1133 0.930 . S
C1092 N1089 1.314 . S
C1092 C1090 1.353 . S
C1092 H1134 0.930 . S
C1093 N1089 1.279 . S
C1093 C1091 1.358 . S
C1093 H1135 0.930 . S
C1094 C1095 1.348 . S
C1094 C1096 1.356 . S
C1094 O1119 1.325 . S
C1095 C1094 1.348 . S
C1095 C1097 1.353 . S
C1095 H1136 0.929 . S
C1096 C1094 1.356 . S
C1096 C1098 1.358 . S
C1096 H1137 0.930 . S
C1097 C1095 1.353 . S
C1097 N1099 1.314 . S
C1097 H1138 0.930 . S
C1098 C1096 1.358 . S
C1098 N1099 1.279 . S
C1098 H1139 0.930 . S
N1099 C1097 1.314 . S
N1099 C1098 1.279 . S
C1100 C1102 1.353 . S
C1100 N1103 1.314 . S
C1100 H1106 0.930 . S
C1101 N1103 1.279 . S
C1101 C1104 1.358 . S
C1101 H1107 0.930 . S
C1102 C1100 1.353 . S
C1102 C1105 1.348 . S
C1102 H1140 0.929 . S
N1103 Li1058 1.990 . S
N1103 C1100 1.314 . S
N1103 C1101 1.279 . S
C1104 C1101 1.358 . S
C1104 C1105 1.356 . S
C1104 H1141 0.930 . S
C1105 C1102 1.348 . S
C1105 C1104 1.356 . S
H1106 C1100 0.930 . S
H1107 C1101 0.930 . S
C1108 N1109 1.314 . S
C1108 C1110 1.353 . S
C1108 H1114 0.930 . S
N1109 Li1059 1.990 . S
N1109 C1108 1.314 . S
N1109 C1112 1.279 . S
C1110 C1108 1.353 . S
C1110 C1113 1.348 . S
C1110 H1142 0.929 . S
C1111 C1112 1.358 . S
C1111 C1113 1.356 . S
C1111 H1143 0.930 . S
C1112 N1109 1.279 . S
C1112 C1111 1.358 . S
C1112 H1115 0.930 . S
C1113 C1110 1.348 . S
C1113 C1111 1.356 . S
H1114 C1108 0.930 . S
H1115 C1112 0.930 . S
O1116 Li1056 1.956 . S
O1116 Li1057 1.970 . S
O1116 Li1058 1.961 . S
O1116 C1060 1.325 . S
O1117 Li1056 1.970 . S
O1117 Li1057 1.956 . S
O1117 Li1059 1.961 . S
O1117 C1066 1.325 . S
O1118 Li1056 1.961 . S
O1118 Li1058 1.956 . S
O1118 Li1059 1.970 . S
O1118 C1088 1.325 . S
O1119 Li1057 1.961 . S
O1119 Li1058 1.970 . S
O1119 Li1059 1.956 . S
O1119 C1094 1.325 . S
H1120 C1062 0.929 . S
H1121 C1063 0.930 . S
H1122 C1064 0.930 . S
H1123 C1065 0.930 . S
H1124 C1067 0.930 . S
H1125 C1069 0.929 . S
H1126 C1070 0.930 . S
H1127 C1071 0.930 . S
H1128 C1074 0.930 . S
H1129 C1077 0.929 . S
H1130 C1082 0.929 . S
H1131 C1083 0.930 . S
H1132 C1090 0.929 . S
H1133 C1091 0.930 . S
H1134 C1092 0.930 . S
H1135 C1093 0.930 . S
H1136 C1095 0.929 . S
H1137 C1096 0.930 . S
H1138 C1097 0.930 . S
H1139 C1098 0.930 . S
H1140 C1102 0.929 . S
H1141 C1104 0.930 . S
H1142 C1110 0.929 . S
H1143 C1111 0.930 . S
Li1144 N1161 1.990 . S
Li1144 O1204 1.956 . S
Li1144 O1205 1.970 . S
Li1144 O1206 1.961 . S
Li1145 N1169 1.990 . S
Li1145 O1204 1.970 . S
Li1145 O1205 1.956 . S
Li1145 O1207 1.961 . S
Li1146 N1191 1.990 . S
Li1146 O1204 1.961 . S
Li1146 O1206 1.956 . S
Li1146 O1207 1.970 . S
Li1147 N1197 1.990 . S
Li1147 O1205 1.961 . S
Li1147 O1206 1.970 . S
Li1147 O1207 1.956 . S
C1148 C1150 1.348 . S
C1148 C1151 1.356 . S
C1148 O1204 1.325 . S
N1149 C1152 1.314 . S
N1149 C1153 1.279 . S
C1150 C1148 1.348 . S
C1150 C1152 1.353 . S
C1150 H1208 0.929 . S
C1151 C1148 1.356 . S
C1151 C1153 1.358 . S
C1151 H1209 0.930 . S
C1152 N1149 1.314 . S
C1152 C1150 1.353 . S
C1152 H1210 0.930 . S
C1153 N1149 1.279 . S
C1153 C1151 1.358 . S
C1153 H1211 0.930 . S
C1154 C1157 1.348 . S
C1154 C1158 1.356 . S
C1154 O1205 1.325 . S
C1155 N1156 1.279 . S
C1155 C1158 1.358 . S
C1155 H1212 0.930 . S
N1156 C1155 1.279 . S
N1156 C1159 1.314 . S
C1157 C1154 1.348 . S
C1157 C1159 1.353 . S
C1157 H1213 0.929 . S
C1158 C1154 1.356 . S
C1158 C1155 1.358 . S
C1158 H1214 0.930 . S
C1159 N1156 1.314 . S
C1159 C1157 1.353 . S
C1159 H1215 0.930 . S
C1160 N1161 1.314 . S
C1160 C1165 1.353 . S
C1160 H1166 0.930 . S
N1161 Li1144 1.990 . S
N1161 C1160 1.314 . S
N1161 C1163 1.279 . S
C1162 C1163 1.358 . S
C1162 C1164 1.356 . S
C1162 H1216 0.930 . S
C1163 N1161 1.279 . S
C1163 C1162 1.358 . S
C1163 H1167 0.930 . S
C1164 C1162 1.356 . S
C1164 C1165 1.348 . S
C1165 C1160 1.353 . S
C1165 C1164 1.348 . S
C1165 H1217 0.929 . S
H1166 C1160 0.930 . S
H1167 C1163 0.930 . S
C1168 N1169 1.314 . S
C1168 C1170 1.353 . S
C1168 H1174 0.930 . S
N1169 Li1145 1.990 . S
N1169 C1168 1.314 . S
N1169 C1172 1.279 . S
C1170 C1168 1.353 . S
C1170 C1173 1.348 . S
C1170 H1218 0.929 . S
C1171 C1172 1.358 . S
C1171 C1173 1.356 . S
C1171 H1219 0.930 . S
C1172 N1169 1.279 . S
C1172 C1171 1.358 . S
C1172 H1175 0.930 . S
C1173 C1170 1.348 . S
C1173 C1171 1.356 . S
H1174 C1168 0.930 . S
H1175 C1172 0.930 . S
C1176 C1178 1.348 . S
C1176 C1179 1.356 . S
C1176 O1206 1.325 . S
N1177 C1180 1.314 . S
N1177 C1181 1.279 . S
C1178 C1176 1.348 . S
C1178 C1180 1.353 . S
C1178 H1220 0.929 . S
C1179 C1176 1.356 . S
C1179 C1181 1.358 . S
C1179 H1221 0.930 . S
C1180 N1177 1.314 . S
C1180 C1178 1.353 . S
C1180 H1222 0.930 . S
C1181 N1177 1.279 . S
C1181 C1179 1.358 . S
C1181 H1223 0.930 . S
C1182 C1183 1.348 . S
C1182 C1184 1.356 . S
C1182 O1207 1.325 . S
C1183 C1182 1.348 . S
C1183 C1185 1.353 . S
C1183 H1224 0.929 . S
C1184 C1182 1.356 . S
C1184 C1186 1.358 . S
C1184 H1225 0.930 . S
C1185 C1183 1.353 . S
C1185 N1187 1.314 . S
C1185 H1226 0.930 . S
C1186 C1184 1.358 . S
C1186 N1187 1.279 . S
C1186 H1227 0.930 . S
N1187 C1185 1.314 . S
N1187 C1186 1.279 . S
C1188 C1190 1.353 . S
C1188 N1191 1.314 . S
C1188 H1194 0.930 . S
C1189 N1191 1.279 . S
C1189 C1192 1.358 . S
C1189 H1195 0.930 . S
C1190 C1188 1.353 . S
C1190 C1193 1.348 . S
C1190 H1228 0.929 . S
N1191 Li1146 1.990 . S
N1191 C1188 1.314 . S
N1191 C1189 1.279 . S
C1192 C1189 1.358 . S
C1192 C1193 1.356 . S
C1192 H1229 0.930 . S
C1193 C1190 1.348 . S
C1193 C1192 1.356 . S
H1194 C1188 0.930 . S
H1195 C1189 0.930 . S
C1196 N1197 1.314 . S
C1196 C1198 1.353 . S
C1196 H1202 0.930 . S
N1197 Li1147 1.990 . S
N1197 C1196 1.314 . S
N1197 C1200 1.279 . S
C1198 C1196 1.353 . S
C1198 C1201 1.348 . S
C1198 H1230 0.929 . S
C1199 C1200 1.358 . S
C1199 C1201 1.356 . S
C1199 H1231 0.930 . S
C1200 N1197 1.279 . S
C1200 C1199 1.358 . S
C1200 H1203 0.930 . S
C1201 C1198 1.348 . S
C1201 C1199 1.356 . S
H1202 C1196 0.930 . S
H1203 C1200 0.930 . S
O1204 Li1144 1.956 . S
O1204 Li1145 1.970 . S
O1204 Li1146 1.961 . S
O1204 C1148 1.325 . S
O1205 Li1144 1.970 . S
O1205 Li1145 1.956 . S
O1205 Li1147 1.961 . S
O1205 C1154 1.325 . S
O1206 Li1144 1.961 . S
O1206 Li1146 1.956 . S
O1206 Li1147 1.970 . S
O1206 C1176 1.325 . S
O1207 Li1145 1.961 . S
O1207 Li1146 1.970 . S
O1207 Li1147 1.956 . S
O1207 C1182 1.325 . S
H1208 C1150 0.929 . S
H1209 C1151 0.930 . S
H1210 C1152 0.930 . S
H1211 C1153 0.930 . S
H1212 C1155 0.930 . S
H1213 C1157 0.929 . S
H1214 C1158 0.930 . S
H1215 C1159 0.930 . S
H1216 C1162 0.930 . S
H1217 C1165 0.929 . S
H1218 C1170 0.929 . S
H1219 C1171 0.930 . S
H1220 C1178 0.929 . S
H1221 C1179 0.930 . S
H1222 C1180 0.930 . S
H1223 C1181 0.930 . S
H1224 C1183 0.929 . S
H1225 C1184 0.930 . S
H1226 C1185 0.930 . S
H1227 C1186 0.930 . S
H1228 C1190 0.929 . S
H1229 C1192 0.930 . S
H1230 C1198 0.929 . S
H1231 C1199 0.930 . S
Li1232 N1249 1.990 . S
Li1232 O1292 1.956 . S
Li1232 O1293 1.970 . S
Li1232 O1294 1.961 . S
Li1233 N1257 1.990 . S
Li1233 O1292 1.970 . S
Li1233 O1293 1.956 . S
Li1233 O1295 1.961 . S
Li1234 N1279 1.990 . S
Li1234 O1292 1.961 . S
Li1234 O1294 1.956 . S
Li1234 O1295 1.970 . S
Li1235 N1285 1.990 . S
Li1235 O1293 1.961 . S
Li1235 O1294 1.970 . S
Li1235 O1295 1.956 . S
C1236 C1238 1.348 . S
C1236 C1239 1.356 . S
C1236 O1292 1.325 . S
N1237 C1240 1.314 . S
N1237 C1241 1.279 . S
C1238 C1236 1.348 . S
C1238 C1240 1.353 . S
C1238 H1296 0.929 . S
C1239 C1236 1.356 . S
C1239 C1241 1.358 . S
C1239 H1297 0.930 . S
C1240 N1237 1.314 . S
C1240 C1238 1.353 . S
C1240 H1298 0.930 . S
C1241 N1237 1.279 . S
C1241 C1239 1.358 . S
C1241 H1299 0.930 . S
C1242 C1245 1.348 . S
C1242 C1246 1.356 . S
C1242 O1293 1.325 . S
C1243 N1244 1.279 . S
C1243 C1246 1.358 . S
C1243 H1300 0.930 . S
N1244 C1243 1.279 . S
N1244 C1247 1.314 . S
C1245 C1242 1.348 . S
C1245 C1247 1.353 . S
C1245 H1301 0.929 . S
C1246 C1242 1.356 . S
C1246 C1243 1.358 . S
C1246 H1302 0.930 . S
C1247 N1244 1.314 . S
C1247 C1245 1.353 . S
C1247 H1303 0.930 . S
C1248 N1249 1.314 . S
C1248 C1253 1.353 . S
C1248 H1254 0.930 . S
N1249 Li1232 1.990 . S
N1249 C1248 1.314 . S
N1249 C1251 1.279 . S
C1250 C1251 1.358 . S
C1250 C1252 1.356 . S
C1250 H1304 0.930 . S
C1251 N1249 1.279 . S
C1251 C1250 1.358 . S
C1251 H1255 0.930 . S
C1252 C1250 1.356 . S
C1252 C1253 1.348 . S
C1253 C1248 1.353 . S
C1253 C1252 1.348 . S
C1253 H1305 0.929 . S
H1254 C1248 0.930 . S
H1255 C1251 0.930 . S
C1256 N1257 1.314 . S
C1256 C1258 1.353 . S
C1256 H1262 0.930 . S
N1257 Li1233 1.990 . S
N1257 C1256 1.314 . S
N1257 C1260 1.279 . S
C1258 C1256 1.353 . S
C1258 C1261 1.348 . S
C1258 H1306 0.929 . S
C1259 C1260 1.358 . S
C1259 C1261 1.356 . S
C1259 H1307 0.930 . S
C1260 N1257 1.279 . S
C1260 C1259 1.358 . S
C1260 H1263 0.930 . S
C1261 C1258 1.348 . S
C1261 C1259 1.356 . S
H1262 C1256 0.930 . S
H1263 C1260 0.930 . S
C1264 C1266 1.348 . S
C1264 C1267 1.356 . S
C1264 O1294 1.325 . S
N1265 C1268 1.314 . S
N1265 C1269 1.279 . S
C1266 C1264 1.348 . S
C1266 C1268 1.353 . S
C1266 H1308 0.929 . S
C1267 C1264 1.356 . S
C1267 C1269 1.358 . S
C1267 H1309 0.930 . S
C1268 N1265 1.314 . S
C1268 C1266 1.353 . S
C1268 H1310 0.930 . S
C1269 N1265 1.279 . S
C1269 C1267 1.358 . S
C1269 H1311 0.930 . S
C1270 C1271 1.348 . S
C1270 C1272 1.356 . S
C1270 O1295 1.325 . S
C1271 C1270 1.348 . S
C1271 C1273 1.353 . S
C1271 H1312 0.929 . S
C1272 C1270 1.356 . S
C1272 C1274 1.358 . S
C1272 H1313 0.930 . S
C1273 C1271 1.353 . S
C1273 N1275 1.314 . S
C1273 H1314 0.930 . S
C1274 C1272 1.358 . S
C1274 N1275 1.279 . S
C1274 H1315 0.930 . S
N1275 C1273 1.314 . S
N1275 C1274 1.279 . S
C1276 C1278 1.353 . S
C1276 N1279 1.314 . S
C1276 H1282 0.930 . S
C1277 N1279 1.279 . S
C1277 C1280 1.358 . S
C1277 H1283 0.930 . S
C1278 C1276 1.353 . S
C1278 C1281 1.348 . S
C1278 H1316 0.929 . S
N1279 Li1234 1.990 . S
N1279 C1276 1.314 . S
N1279 C1277 1.279 . S
C1280 C1277 1.358 . S
C1280 C1281 1.356 . S
C1280 H1317 0.930 . S
C1281 C1278 1.348 . S
C1281 C1280 1.356 . S
H1282 C1276 0.930 . S
H1283 C1277 0.930 . S
C1284 N1285 1.314 . S
C1284 C1286 1.353 . S
C1284 H1290 0.930 . S
N1285 Li1235 1.990 . S
N1285 C1284 1.314 . S
N1285 C1288 1.279 . S
C1286 C1284 1.353 . S
C1286 C1289 1.348 . S
C1286 H1318 0.929 . S
C1287 C1288 1.358 . S
C1287 C1289 1.356 . S
C1287 H1319 0.930 . S
C1288 N1285 1.279 . S
C1288 C1287 1.358 . S
C1288 H1291 0.930 . S
C1289 C1286 1.348 . S
C1289 C1287 1.356 . S
H1290 C1284 0.930 . S
H1291 C1288 0.930 . S
O1292 Li1232 1.956 . S
O1292 Li1233 1.970 . S
O1292 Li1234 1.961 . S
O1292 C1236 1.325 . S
O1293 Li1232 1.970 . S
O1293 Li1233 1.956 . S
O1293 Li1235 1.961 . S
O1293 C1242 1.325 . S
O1294 Li1232 1.961 . S
O1294 Li1234 1.956 . S
O1294 Li1235 1.970 . S
O1294 C1264 1.325 . S
O1295 Li1233 1.961 . S
O1295 Li1234 1.970 . S
O1295 Li1235 1.956 . S
O1295 C1270 1.325 . S
H1296 C1238 0.929 . S
H1297 C1239 0.930 . S
H1298 C1240 0.930 . S
H1299 C1241 0.930 . S
H1300 C1243 0.930 . S
H1301 C1245 0.929 . S
H1302 C1246 0.930 . S
H1303 C1247 0.930 . S
H1304 C1250 0.930 . S
H1305 C1253 0.929 . S
H1306 C1258 0.929 . S
H1307 C1259 0.930 . S
H1308 C1266 0.929 . S
H1309 C1267 0.930 . S
H1310 C1268 0.930 . S
H1311 C1269 0.930 . S
H1312 C1271 0.929 . S
H1313 C1272 0.930 . S
H1314 C1273 0.930 . S
H1315 C1274 0.930 . S
H1316 C1278 0.929 . S
H1317 C1280 0.930 . S
H1318 C1286 0.929 . S
H1319 C1287 0.930 . S
Li1320 N1337 1.990 . S
Li1320 O1380 1.956 . S
Li1320 O1381 1.970 . S
Li1320 O1382 1.961 . S
Li1321 N1345 1.990 . S
Li1321 O1380 1.970 . S
Li1321 O1381 1.956 . S
Li1321 O1383 1.961 . S
Li1322 N1367 1.990 . S
Li1322 O1380 1.961 . S
Li1322 O1382 1.956 . S
Li1322 O1383 1.970 . S
Li1323 N1373 1.990 . S
Li1323 O1381 1.961 . S
Li1323 O1382 1.970 . S
Li1323 O1383 1.956 . S
C1324 C1326 1.348 . S
C1324 C1327 1.356 . S
C1324 O1380 1.325 . S
N1325 C1328 1.314 . S
N1325 C1329 1.279 . S
C1326 C1324 1.348 . S
C1326 C1328 1.353 . S
C1326 H1384 0.929 . S
C1327 C1324 1.356 . S
C1327 C1329 1.358 . S
C1327 H1385 0.930 . S
C1328 N1325 1.314 . S
C1328 C1326 1.353 . S
C1328 H1386 0.930 . S
C1329 N1325 1.279 . S
C1329 C1327 1.358 . S
C1329 H1387 0.930 . S
C1330 C1333 1.348 . S
C1330 C1334 1.356 . S
C1330 O1381 1.325 . S
C1331 N1332 1.279 . S
C1331 C1334 1.358 . S
C1331 H1388 0.930 . S
N1332 C1331 1.279 . S
N1332 C1335 1.314 . S
C1333 C1330 1.348 . S
C1333 C1335 1.353 . S
C1333 H1389 0.929 . S
C1334 C1330 1.356 . S
C1334 C1331 1.358 . S
C1334 H1390 0.930 . S
C1335 N1332 1.314 . S
C1335 C1333 1.353 . S
C1335 H1391 0.930 . S
C1336 N1337 1.314 . S
C1336 C1341 1.353 . S
C1336 H1342 0.930 . S
N1337 Li1320 1.990 . S
N1337 C1336 1.314 . S
N1337 C1339 1.279 . S
C1338 C1339 1.358 . S
C1338 C1340 1.356 . S
C1338 H1392 0.930 . S
C1339 N1337 1.279 . S
C1339 C1338 1.358 . S
C1339 H1343 0.930 . S
C1340 C1338 1.356 . S
C1340 C1341 1.348 . S
C1341 C1336 1.353 . S
C1341 C1340 1.348 . S
C1341 H1393 0.929 . S
H1342 C1336 0.930 . S
H1343 C1339 0.930 . S
C1344 N1345 1.314 . S
C1344 C1346 1.353 . S
C1344 H1350 0.930 . S
N1345 Li1321 1.990 . S
N1345 C1344 1.314 . S
N1345 C1348 1.279 . S
C1346 C1344 1.353 . S
C1346 C1349 1.348 . S
C1346 H1394 0.929 . S
C1347 C1348 1.358 . S
C1347 C1349 1.356 . S
C1347 H1395 0.930 . S
C1348 N1345 1.279 . S
C1348 C1347 1.358 . S
C1348 H1351 0.930 . S
C1349 C1346 1.348 . S
C1349 C1347 1.356 . S
H1350 C1344 0.930 . S
H1351 C1348 0.930 . S
C1352 C1354 1.348 . S
C1352 C1355 1.356 . S
C1352 O1382 1.325 . S
N1353 C1356 1.314 . S
N1353 C1357 1.279 . S
C1354 C1352 1.348 . S
C1354 C1356 1.353 . S
C1354 H1396 0.929 . S
C1355 C1352 1.356 . S
C1355 C1357 1.358 . S
C1355 H1397 0.930 . S
C1356 N1353 1.314 . S
C1356 C1354 1.353 . S
C1356 H1398 0.930 . S
C1357 N1353 1.279 . S
C1357 C1355 1.358 . S
C1357 H1399 0.930 . S
C1358 C1359 1.348 . S
C1358 C1360 1.356 . S
C1358 O1383 1.325 . S
C1359 C1358 1.348 . S
C1359 C1361 1.353 . S
C1359 H1400 0.929 . S
C1360 C1358 1.356 . S
C1360 C1362 1.358 . S
C1360 H1401 0.930 . S
C1361 C1359 1.353 . S
C1361 N1363 1.314 . S
C1361 H1402 0.930 . S
C1362 C1360 1.358 . S
C1362 N1363 1.279 . S
C1362 H1403 0.930 . S
N1363 C1361 1.314 . S
N1363 C1362 1.279 . S
C1364 C1366 1.353 . S
C1364 N1367 1.314 . S
C1364 H1370 0.930 . S
C1365 N1367 1.279 . S
C1365 C1368 1.358 . S
C1365 H1371 0.930 . S
C1366 C1364 1.353 . S
C1366 C1369 1.348 . S
C1366 H1404 0.929 . S
N1367 Li1322 1.990 . S
N1367 C1364 1.314 . S
N1367 C1365 1.279 . S
C1368 C1365 1.358 . S
C1368 C1369 1.356 . S
C1368 H1405 0.930 . S
C1369 C1366 1.348 . S
C1369 C1368 1.356 . S
H1370 C1364 0.930 . S
H1371 C1365 0.930 . S
C1372 N1373 1.314 . S
C1372 C1374 1.353 . S
C1372 H1378 0.930 . S
N1373 Li1323 1.990 . S
N1373 C1372 1.314 . S
N1373 C1376 1.279 . S
C1374 C1372 1.353 . S
C1374 C1377 1.348 . S
C1374 H1406 0.929 . S
C1375 C1376 1.358 . S
C1375 C1377 1.356 . S
C1375 H1407 0.930 . S
C1376 N1373 1.279 . S
C1376 C1375 1.358 . S
C1376 H1379 0.930 . S
C1377 C1374 1.348 . S
C1377 C1375 1.356 . S
H1378 C1372 0.930 . S
H1379 C1376 0.930 . S
O1380 Li1320 1.956 . S
O1380 Li1321 1.970 . S
O1380 Li1322 1.961 . S
O1380 C1324 1.325 . S
O1381 Li1320 1.970 . S
O1381 Li1321 1.956 . S
O1381 Li1323 1.961 . S
O1381 C1330 1.325 . S
O1382 Li1320 1.961 . S
O1382 Li1322 1.956 . S
O1382 Li1323 1.970 . S
O1382 C1352 1.325 . S
O1383 Li1321 1.961 . S
O1383 Li1322 1.970 . S
O1383 Li1323 1.956 . S
O1383 C1358 1.325 . S
H1384 C1326 0.929 . S
H1385 C1327 0.930 . S
H1386 C1328 0.930 . S
H1387 C1329 0.930 . S
H1388 C1331 0.930 . S
H1389 C1333 0.929 . S
H1390 C1334 0.930 . S
H1391 C1335 0.930 . S
H1392 C1338 0.930 . S
H1393 C1341 0.929 . S
H1394 C1346 0.929 . S
H1395 C1347 0.930 . S
H1396 C1354 0.929 . S
H1397 C1355 0.930 . S
H1398 C1356 0.930 . S
H1399 C1357 0.930 . S
H1400 C1359 0.929 . S
H1401 C1360 0.930 . S
H1402 C1361 0.930 . S
H1403 C1362 0.930 . S
H1404 C1366 0.929 . S
H1405 C1368 0.930 . S
H1406 C1374 0.929 . S
H1407 C1375 0.930 . S
H1408 C1426 0.951 . S
H1409 C1428 0.951 . S
H1410 C1430 0.950 . S
H1411 C1431 0.950 . S
H1412 C1433 0.950 . S
H1413 C1436 0.950 . S
H1414 C1437 0.950 . S
H1415 C1439 0.950 . S
H1416 C1440 0.950 . S
H1417 C1441 0.951 . S
H1418 C1443 0.951 . S
H1419 C1445 0.950 . S
H1420 C1446 0.950 . S
H1421 C1448 0.950 . S
H1422 C1451 0.950 . S
H1423 C1452 0.950 . S
H1424 C1454 0.950 . S
H1425 C1455 0.950 . S
C1426 H1408 0.951 . S
C1426 C1427 1.366 . S
C1426 C1428 1.388 . S
C1427 C1426 1.366 . S
C1427 C1431 1.385 . S
C1428 H1409 0.951 . S
C1428 C1426 1.388 . S
C1428 C1429 1.366 . S
C1429 C1428 1.366 . S
C1429 C1430 1.414 . S
C1429 C1432 1.499 . S
C1430 H1410 0.950 . S
C1430 C1429 1.414 . S
C1430 C1431 1.374 . S
C1431 H1411 0.950 . S
C1431 C1427 1.385 . S
C1431 C1430 1.374 . S
C1432 C1429 1.499 . S
C1432 C1433 1.373 . S
C1432 C1434 1.389 . S
C1433 H1412 0.950 . S
C1433 C1432 1.373 . S
C1433 C1449 1.377 . S
C1434 C1432 1.389 . S
C1434 C1435 1.524 . S
C1434 C1448 1.377 . S
C1435 C1434 1.524 . S
C1435 C1436 1.397 . S
C1435 C1440 1.363 . S
C1436 H1413 0.950 . S
C1436 C1435 1.397 . S
C1436 C1437 1.334 . S
C1437 H1414 0.950 . S
C1437 C1436 1.334 . S
C1437 C1438 1.287 . S
C1438 C1437 1.287 . S
C1438 C1439 1.524 . S
C1438 H1457 0.913 . S
C1439 H1415 0.950 . S
C1439 C1438 1.524 . S
C1439 C1440 1.415 . S
C1440 H1416 0.950 . S
C1440 C1435 1.363 . S
C1440 C1439 1.415 . S
C1441 H1417 0.951 . S
C1441 C1442 1.366 . S
C1441 C1443 1.388 . S
C1442 C1441 1.366 . S
C1442 C1446 1.385 . S
C1443 H1418 0.951 . S
C1443 C1441 1.388 . S
C1443 C1444 1.366 . S
C1444 C1443 1.366 . S
C1444 C1445 1.414 . S
C1444 C1447 1.499 . S
C1445 H1419 0.950 . S
C1445 C1444 1.414 . S
C1445 C1446 1.374 . S
C1446 H1420 0.950 . S
C1446 C1442 1.385 . S
C1446 C1445 1.374 . S
C1447 C1444 1.499 . S
C1447 C1448 1.373 . S
C1447 C1449 1.389 . S
C1448 H1421 0.950 . S
C1448 C1434 1.377 . S
C1448 C1447 1.373 . S
C1449 C1433 1.377 . S
C1449 C1447 1.389 . S
C1449 C1450 1.524 . S
C1450 C1449 1.524 . S
C1450 C1451 1.397 . S
C1450 C1455 1.363 . S
C1451 H1422 0.950 . S
C1451 C1450 1.397 . S
C1451 C1452 1.334 . S
C1452 H1423 0.950 . S
C1452 C1451 1.334 . S
C1452 C1453 1.287 . S
C1453 C1452 1.287 . S
C1453 C1454 1.524 . S
C1453 H1456 0.999 . S
C1454 H1424 0.950 . S
C1454 C1453 1.524 . S
C1454 C1455 1.415 . S
C1455 H1425 0.950 . S
C1455 C1450 1.363 . S
C1455 C1454 1.415 . S
H1456 C1453 0.999 . S
H1457 C1438 0.913 . S
H1458 C1476 0.951 . S
H1459 C1478 0.951 . S
H1460 C1480 0.950 . S
H1461 C1481 0.950 . S
H1462 C1483 0.950 . S
H1463 C1486 0.950 . S
H1464 C1487 0.950 . S
H1465 C1489 0.950 . S
H1466 C1490 0.950 . S
H1467 C1491 0.951 . S
H1468 C1493 0.951 . S
H1469 C1495 0.950 . S
H1470 C1496 0.950 . S
H1471 C1498 0.950 . S
H1472 C1501 0.950 . S
H1473 C1502 0.950 . S
H1474 C1504 0.950 . S
H1475 C1505 0.950 . S
C1476 H1458 0.951 . S
C1476 C1477 1.366 . S
C1476 C1478 1.388 . S
C1477 C1476 1.366 . S
C1477 C1481 1.385 . S
C1478 H1459 0.951 . S
C1478 C1476 1.388 . S
C1478 C1479 1.366 . S
C1479 C1478 1.366 . S
C1479 C1480 1.414 . S
C1479 C1482 1.499 . S
C1480 H1460 0.950 . S
C1480 C1479 1.414 . S
C1480 C1481 1.374 . S
C1481 H1461 0.950 . S
C1481 C1477 1.385 . S
C1481 C1480 1.374 . S
C1482 C1479 1.499 . S
C1482 C1483 1.373 . S
C1482 C1484 1.389 . S
C1483 H1462 0.950 . S
C1483 C1482 1.373 . S
C1483 C1499 1.377 . S
C1484 C1482 1.389 . S
C1484 C1485 1.524 . S
C1484 C1498 1.377 . S
C1485 C1484 1.524 . S
C1485 C1486 1.397 . S
C1485 C1490 1.363 . S
C1486 H1463 0.950 . S
C1486 C1485 1.397 . S
C1486 C1487 1.334 . S
C1487 H1464 0.950 . S
C1487 C1486 1.334 . S
C1487 C1488 1.287 . S
C1488 C1487 1.287 . S
C1488 C1489 1.524 . S
C1488 H1507 0.913 . S
C1489 H1465 0.950 . S
C1489 C1488 1.524 . S
C1489 C1490 1.415 . S
C1490 H1466 0.950 . S
C1490 C1485 1.363 . S
C1490 C1489 1.415 . S
C1491 H1467 0.951 . S
C1491 C1492 1.366 . S
C1491 C1493 1.388 . S
C1492 C1491 1.366 . S
C1492 C1496 1.385 . S
C1493 H1468 0.951 . S
C1493 C1491 1.388 . S
C1493 C1494 1.366 . S
C1494 C1493 1.366 . S
C1494 C1495 1.414 . S
C1494 C1497 1.499 . S
C1495 H1469 0.950 . S
C1495 C1494 1.414 . S
C1495 C1496 1.374 . S
C1496 H1470 0.950 . S
C1496 C1492 1.385 . S
C1496 C1495 1.374 . S
C1497 C1494 1.499 . S
C1497 C1498 1.373 . S
C1497 C1499 1.389 . S
C1498 H1471 0.950 . S
C1498 C1484 1.377 . S
C1498 C1497 1.373 . S
C1499 C1483 1.377 . S
C1499 C1497 1.389 . S
C1499 C1500 1.524 . S
C1500 C1499 1.524 . S
C1500 C1501 1.397 . S
C1500 C1505 1.363 . S
C1501 H1472 0.950 . S
C1501 C1500 1.397 . S
C1501 C1502 1.334 . S
C1502 H1473 0.950 . S
C1502 C1501 1.334 . S
C1502 C1503 1.287 . S
C1503 C1502 1.287 . S
C1503 C1504 1.524 . S
C1503 H1506 0.999 . S
C1504 H1474 0.950 . S
C1504 C1503 1.524 . S
C1504 C1505 1.415 . S
C1505 H1475 0.950 . S
C1505 C1500 1.363 . S
C1505 C1504 1.415 . S
H1506 C1503 0.999 . S
H1507 C1488 0.913 . S
H1508 C1526 0.951 . S
H1509 C1528 0.951 . S
H1510 C1530 0.950 . S
H1511 C1531 0.950 . S
H1512 C1533 0.950 . S
H1513 C1536 0.950 . S
H1514 C1537 0.950 . S
H1515 C1539 0.950 . S
H1516 C1540 0.950 . S
H1517 C1541 0.951 . S
H1518 C1543 0.951 . S
H1519 C1545 0.950 . S
H1520 C1546 0.950 . S
H1521 C1548 0.950 . S
H1522 C1551 0.950 . S
H1523 C1552 0.950 . S
H1524 C1554 0.950 . S
H1525 C1555 0.950 . S
C1526 H1508 0.951 . S
C1526 C1527 1.366 . S
C1526 C1528 1.388 . S
C1527 C1526 1.366 . S
C1527 C1531 1.385 . S
C1528 H1509 0.951 . S
C1528 C1526 1.388 . S
C1528 C1529 1.366 . S
C1529 C1528 1.366 . S
C1529 C1530 1.414 . S
C1529 C1532 1.499 . S
C1530 H1510 0.950 . S
C1530 C1529 1.414 . S
C1530 C1531 1.374 . S
C1531 H1511 0.950 . S
C1531 C1527 1.385 . S
C1531 C1530 1.374 . S
C1532 C1529 1.499 . S
C1532 C1533 1.373 . S
C1532 C1534 1.389 . S
C1533 H1512 0.950 . S
C1533 C1532 1.373 . S
C1533 C1549 1.377 . S
C1534 C1532 1.389 . S
C1534 C1535 1.524 . S
C1534 C1548 1.377 . S
C1535 C1534 1.524 . S
C1535 C1536 1.397 . S
C1535 C1540 1.363 . S
C1536 H1513 0.950 . S
C1536 C1535 1.397 . S
C1536 C1537 1.334 . S
C1537 H1514 0.950 . S
C1537 C1536 1.334 . S
C1537 C1538 1.287 . S
C1538 C1537 1.287 . S
C1538 C1539 1.524 . S
C1538 H1557 0.913 . S
C1539 H1515 0.950 . S
C1539 C1538 1.524 . S
C1539 C1540 1.415 . S
C1540 H1516 0.950 . S
C1540 C1535 1.363 . S
C1540 C1539 1.415 . S
C1541 H1517 0.951 . S
C1541 C1542 1.366 . S
C1541 C1543 1.388 . S
C1542 C1541 1.366 . S
C1542 C1546 1.385 . S
C1543 H1518 0.951 . S
C1543 C1541 1.388 . S
C1543 C1544 1.366 . S
C1544 C1543 1.366 . S
C1544 C1545 1.414 . S
C1544 C1547 1.499 . S
C1545 H1519 0.950 . S
C1545 C1544 1.414 . S
C1545 C1546 1.374 . S
C1546 H1520 0.950 . S
C1546 C1542 1.385 . S
C1546 C1545 1.374 . S
C1547 C1544 1.499 . S
C1547 C1548 1.373 . S
C1547 C1549 1.389 . S
C1548 H1521 0.950 . S
C1548 C1534 1.377 . S
C1548 C1547 1.373 . S
C1549 C1533 1.377 . S
C1549 C1547 1.389 . S
C1549 C1550 1.524 . S
C1550 C1549 1.524 . S
C1550 C1551 1.397 . S
C1550 C1555 1.363 . S
C1551 H1522 0.950 . S
C1551 C1550 1.397 . S
C1551 C1552 1.334 . S
C1552 H1523 0.950 . S
C1552 C1551 1.334 . S
C1552 C1553 1.287 . S
C1553 C1552 1.287 . S
C1553 C1554 1.524 . S
C1553 H1556 0.999 . S
C1554 H1524 0.950 . S
C1554 C1553 1.524 . S
C1554 C1555 1.415 . S
C1555 H1525 0.950 . S
C1555 C1550 1.363 . S
C1555 C1554 1.415 . S
H1556 C1553 0.999 . S
H1557 C1538 0.913 . S
H1558 C1576 0.951 . S
H1559 C1578 0.951 . S
H1560 C1580 0.950 . S
H1561 C1581 0.950 . S
H1562 C1583 0.950 . S
H1563 C1586 0.950 . S
H1564 C1587 0.950 . S
H1565 C1589 0.950 . S
H1566 C1590 0.950 . S
H1567 C1591 0.951 . S
H1568 C1593 0.951 . S
H1569 C1595 0.950 . S
H1570 C1596 0.950 . S
H1571 C1598 0.950 . S
H1572 C1601 0.950 . S
H1573 C1602 0.950 . S
H1574 C1604 0.950 . S
H1575 C1605 0.950 . S
C1576 H1558 0.951 . S
C1576 C1577 1.366 . S
C1576 C1578 1.388 . S
C1577 C1576 1.366 . S
C1577 C1581 1.385 . S
C1578 H1559 0.951 . S
C1578 C1576 1.388 . S
C1578 C1579 1.366 . S
C1579 C1578 1.366 . S
C1579 C1580 1.414 . S
C1579 C1582 1.499 . S
C1580 H1560 0.950 . S
C1580 C1579 1.414 . S
C1580 C1581 1.374 . S
C1581 H1561 0.950 . S
C1581 C1577 1.385 . S
C1581 C1580 1.374 . S
C1582 C1579 1.499 . S
C1582 C1583 1.373 . S
C1582 C1584 1.389 . S
C1583 H1562 0.950 . S
C1583 C1582 1.373 . S
C1583 C1599 1.377 . S
C1584 C1582 1.389 . S
C1584 C1585 1.524 . S
C1584 C1598 1.377 . S
C1585 C1584 1.524 . S
C1585 C1586 1.397 . S
C1585 C1590 1.363 . S
C1586 H1563 0.950 . S
C1586 C1585 1.397 . S
C1586 C1587 1.334 . S
C1587 H1564 0.950 . S
C1587 C1586 1.334 . S
C1587 C1588 1.287 . S
C1588 C1587 1.287 . S
C1588 C1589 1.524 . S
C1588 H1607 0.913 . S
C1589 H1565 0.950 . S
C1589 C1588 1.524 . S
C1589 C1590 1.415 . S
C1590 H1566 0.950 . S
C1590 C1585 1.363 . S
C1590 C1589 1.415 . S
C1591 H1567 0.951 . S
C1591 C1592 1.366 . S
C1591 C1593 1.388 . S
C1592 C1591 1.366 . S
C1592 C1596 1.385 . S
C1593 H1568 0.951 . S
C1593 C1591 1.388 . S
C1593 C1594 1.366 . S
C1594 C1593 1.366 . S
C1594 C1595 1.414 . S
C1594 C1597 1.499 . S
C1595 H1569 0.950 . S
C1595 C1594 1.414 . S
C1595 C1596 1.374 . S
C1596 H1570 0.950 . S
C1596 C1592 1.385 . S
C1596 C1595 1.374 . S
C1597 C1594 1.499 . S
C1597 C1598 1.373 . S
C1597 C1599 1.389 . S
C1598 H1571 0.950 . S
C1598 C1584 1.377 . S
C1598 C1597 1.373 . S
C1599 C1583 1.377 . S
C1599 C1597 1.389 . S
C1599 C1600 1.524 . S
C1600 C1599 1.524 . S
C1600 C1601 1.397 . S
C1600 C1605 1.363 . S
C1601 H1572 0.950 . S
C1601 C1600 1.397 . S
C1601 C1602 1.334 . S
C1602 H1573 0.950 . S
C1602 C1601 1.334 . S
C1602 C1603 1.287 . S
C1603 C1602 1.287 . S
C1603 C1604 1.524 . S
C1603 H1606 0.999 . S
C1604 H1574 0.950 . S
C1604 C1603 1.524 . S
C1604 C1605 1.415 . S
C1605 H1575 0.950 . S
C1605 C1600 1.363 . S
C1605 C1604 1.415 . S
H1606 C1603 0.999 . S
H1607 C1588 0.913 . S
H1608 C1626 0.951 . S
H1609 C1628 0.951 . S
H1610 C1630 0.950 . S
H1611 C1631 0.950 . S
H1612 C1633 0.950 . S
H1613 C1636 0.950 . S
H1614 C1637 0.950 . S
H1615 C1639 0.950 . S
H1616 C1640 0.950 . S
H1617 C1641 0.951 . S
H1618 C1643 0.951 . S
H1619 C1645 0.950 . S
H1620 C1646 0.950 . S
H1621 C1648 0.950 . S
H1622 C1651 0.950 . S
H1623 C1652 0.950 . S
H1624 C1654 0.950 . S
H1625 C1655 0.950 . S
C1626 H1608 0.951 . S
C1626 C1627 1.366 . S
C1626 C1628 1.388 . S
C1627 C1626 1.366 . S
C1627 C1631 1.385 . S
C1628 H1609 0.951 . S
C1628 C1626 1.388 . S
C1628 C1629 1.366 . S
C1629 C1628 1.366 . S
C1629 C1630 1.414 . S
C1629 C1632 1.499 . S
C1630 H1610 0.950 . S
C1630 C1629 1.414 . S
C1630 C1631 1.374 . S
C1631 H1611 0.950 . S
C1631 C1627 1.385 . S
C1631 C1630 1.374 . S
C1632 C1629 1.499 . S
C1632 C1633 1.373 . S
C1632 C1634 1.389 . S
C1633 H1612 0.950 . S
C1633 C1632 1.373 . S
C1633 C1649 1.377 . S
C1634 C1632 1.389 . S
C1634 C1635 1.524 . S
C1634 C1648 1.377 . S
C1635 C1634 1.524 . S
C1635 C1636 1.397 . S
C1635 C1640 1.363 . S
C1636 H1613 0.950 . S
C1636 C1635 1.397 . S
C1636 C1637 1.334 . S
C1637 H1614 0.950 . S
C1637 C1636 1.334 . S
C1637 C1638 1.287 . S
C1638 C1637 1.287 . S
C1638 C1639 1.524 . S
C1638 H1657 0.913 . S
C1639 H1615 0.950 . S
C1639 C1638 1.524 . S
C1639 C1640 1.415 . S
C1640 H1616 0.950 . S
C1640 C1635 1.363 . S
C1640 C1639 1.415 . S
C1641 H1617 0.951 . S
C1641 C1642 1.366 . S
C1641 C1643 1.388 . S
C1642 C1641 1.366 . S
C1642 C1646 1.385 . S
C1643 H1618 0.951 . S
C1643 C1641 1.388 . S
C1643 C1644 1.366 . S
C1644 C1643 1.366 . S
C1644 C1645 1.414 . S
C1644 C1647 1.499 . S
C1645 H1619 0.950 . S
C1645 C1644 1.414 . S
C1645 C1646 1.374 . S
C1646 H1620 0.950 . S
C1646 C1642 1.385 . S
C1646 C1645 1.374 . S
C1647 C1644 1.499 . S
C1647 C1648 1.373 . S
C1647 C1649 1.389 . S
C1648 H1621 0.950 . S
C1648 C1634 1.377 . S
C1648 C1647 1.373 . S
C1649 C1633 1.377 . S
C1649 C1647 1.389 . S
C1649 C1650 1.524 . S
C1650 C1649 1.524 . S
C1650 C1651 1.397 . S
C1650 C1655 1.363 . S
C1651 H1622 0.950 . S
C1651 C1650 1.397 . S
C1651 C1652 1.334 . S
C1652 H1623 0.950 . S
C1652 C1651 1.334 . S
C1652 C1653 1.287 . S
C1653 C1652 1.287 . S
C1653 C1654 1.524 . S
C1653 H1656 0.999 . S
C1654 H1624 0.950 . S
C1654 C1653 1.524 . S
C1654 C1655 1.415 . S
C1655 H1625 0.950 . S
C1655 C1650 1.363 . S
C1655 C1654 1.415 . S
H1656 C1653 0.999 . S
H1657 C1638 0.913 . S
H1658 C1676 0.951 . S
H1659 C1678 0.951 . S
H1660 C1680 0.950 . S
H1661 C1681 0.950 . S
H1662 C1683 0.950 . S
H1663 C1686 0.950 . S
H1664 C1687 0.950 . S
H1665 C1689 0.950 . S
H1666 C1690 0.950 . S
H1667 C1691 0.951 . S
H1668 C1693 0.951 . S
H1669 C1695 0.950 . S
H1670 C1696 0.950 . S
H1671 C1698 0.950 . S
H1672 C1701 0.950 . S
H1673 C1702 0.950 . S
H1674 C1704 0.950 . S
H1675 C1705 0.950 . S
C1676 H1658 0.951 . S
C1676 C1677 1.366 . S
C1676 C1678 1.388 . S
C1677 C1676 1.366 . S
C1677 C1681 1.385 . S
C1678 H1659 0.951 . S
C1678 C1676 1.388 . S
C1678 C1679 1.366 . S
C1679 C1678 1.366 . S
C1679 C1680 1.414 . S
C1679 C1682 1.499 . S
C1680 H1660 0.950 . S
C1680 C1679 1.414 . S
C1680 C1681 1.374 . S
C1681 H1661 0.950 . S
C1681 C1677 1.385 . S
C1681 C1680 1.374 . S
C1682 C1679 1.499 . S
C1682 C1683 1.373 . S
C1682 C1684 1.389 . S
C1683 H1662 0.950 . S
C1683 C1682 1.373 . S
C1683 C1699 1.377 . S
C1684 C1682 1.389 . S
C1684 C1685 1.524 . S
C1684 C1698 1.377 . S
C1685 C1684 1.524 . S
C1685 C1686 1.397 . S
C1685 C1690 1.363 . S
C1686 H1663 0.950 . S
C1686 C1685 1.397 . S
C1686 C1687 1.334 . S
C1687 H1664 0.950 . S
C1687 C1686 1.334 . S
C1687 C1688 1.287 . S
C1688 C1687 1.287 . S
C1688 C1689 1.524 . S
C1688 H1707 0.913 . S
C1689 H1665 0.950 . S
C1689 C1688 1.524 . S
C1689 C1690 1.415 . S
C1690 H1666 0.950 . S
C1690 C1685 1.363 . S
C1690 C1689 1.415 . S
C1691 H1667 0.951 . S
C1691 C1692 1.366 . S
C1691 C1693 1.388 . S
C1692 C1691 1.366 . S
C1692 C1696 1.385 . S
C1693 H1668 0.951 . S
C1693 C1691 1.388 . S
C1693 C1694 1.366 . S
C1694 C1693 1.366 . S
C1694 C1695 1.414 . S
C1694 C1697 1.499 . S
C1695 H1669 0.950 . S
C1695 C1694 1.414 . S
C1695 C1696 1.374 . S
C1696 H1670 0.950 . S
C1696 C1692 1.385 . S
C1696 C1695 1.374 . S
C1697 C1694 1.499 . S
C1697 C1698 1.373 . S
C1697 C1699 1.389 . S
C1698 H1671 0.950 . S
C1698 C1684 1.377 . S
C1698 C1697 1.373 . S
C1699 C1683 1.377 . S
C1699 C1697 1.389 . S
C1699 C1700 1.524 . S
C1700 C1699 1.524 . S
C1700 C1701 1.397 . S
C1700 C1705 1.363 . S
C1701 H1672 0.950 . S
C1701 C1700 1.397 . S
C1701 C1702 1.334 . S
C1702 H1673 0.950 . S
C1702 C1701 1.334 . S
C1702 C1703 1.287 . S
C1703 C1702 1.287 . S
C1703 C1704 1.524 . S
C1703 H1706 0.999 . S
C1704 H1674 0.950 . S
C1704 C1703 1.524 . S
C1704 C1705 1.415 . S
C1705 H1675 0.950 . S
C1705 C1700 1.363 . S
C1705 C1704 1.415 . S
H1706 C1703 0.999 . S
H1707 C1688 0.913 . S
H1708 C1726 0.951 . S
H1709 C1728 0.951 . S
H1710 C1730 0.950 . S
H1711 C1731 0.950 . S
H1712 C1733 0.950 . S
H1713 C1736 0.950 . S
H1714 C1737 0.950 . S
H1715 C1739 0.950 . S
H1716 C1740 0.950 . S
H1717 C1741 0.951 . S
H1718 C1743 0.951 . S
H1719 C1745 0.950 . S
H1720 C1746 0.950 . S
H1721 C1748 0.950 . S
H1722 C1751 0.950 . S
H1723 C1752 0.950 . S
H1724 C1754 0.950 . S
H1725 C1755 0.950 . S
C1726 H1708 0.951 . S
C1726 C1727 1.366 . S
C1726 C1728 1.388 . S
C1727 C1726 1.366 . S
C1727 C1731 1.385 . S
C1728 H1709 0.951 . S
C1728 C1726 1.388 . S
C1728 C1729 1.366 . S
C1729 C1728 1.366 . S
C1729 C1730 1.414 . S
C1729 C1732 1.499 . S
C1730 H1710 0.950 . S
C1730 C1729 1.414 . S
C1730 C1731 1.374 . S
C1731 H1711 0.950 . S
C1731 C1727 1.385 . S
C1731 C1730 1.374 . S
C1732 C1729 1.499 . S
C1732 C1733 1.373 . S
C1732 C1734 1.389 . S
C1733 H1712 0.950 . S
C1733 C1732 1.373 . S
C1733 C1749 1.377 . S
C1734 C1732 1.389 . S
C1734 C1735 1.524 . S
C1734 C1748 1.377 . S
C1735 C1734 1.524 . S
C1735 C1736 1.397 . S
C1735 C1740 1.363 . S
C1736 H1713 0.950 . S
C1736 C1735 1.397 . S
C1736 C1737 1.334 . S
C1737 H1714 0.950 . S
C1737 C1736 1.334 . S
C1737 C1738 1.287 . S
C1738 C1737 1.287 . S
C1738 C1739 1.524 . S
C1738 H1757 0.913 . S
C1739 H1715 0.950 . S
C1739 C1738 1.524 . S
C1739 C1740 1.415 . S
C1740 H1716 0.950 . S
C1740 C1735 1.363 . S
C1740 C1739 1.415 . S
C1741 H1717 0.951 . S
C1741 C1742 1.366 . S
C1741 C1743 1.388 . S
C1742 C1741 1.366 . S
C1742 C1746 1.385 . S
C1743 H1718 0.951 . S
C1743 C1741 1.388 . S
C1743 C1744 1.366 . S
C1744 C1743 1.366 . S
C1744 C1745 1.414 . S
C1744 C1747 1.499 . S
C1745 H1719 0.950 . S
C1745 C1744 1.414 . S
C1745 C1746 1.374 . S
C1746 H1720 0.950 . S
C1746 C1742 1.385 . S
C1746 C1745 1.374 . S
C1747 C1744 1.499 . S
C1747 C1748 1.373 . S
C1747 C1749 1.389 . S
C1748 H1721 0.950 . S
C1748 C1734 1.377 . S
C1748 C1747 1.373 . S
C1749 C1733 1.377 . S
C1749 C1747 1.389 . S
C1749 C1750 1.524 . S
C1750 C1749 1.524 . S
C1750 C1751 1.397 . S
C1750 C1755 1.363 . S
C1751 H1722 0.950 . S
C1751 C1750 1.397 . S
C1751 C1752 1.334 . S
C1752 H1723 0.950 . S
C1752 C1751 1.334 . S
C1752 C1753 1.287 . S
C1753 C1752 1.287 . S
C1753 C1754 1.524 . S
C1753 H1756 0.999 . S
C1754 H1724 0.950 . S
C1754 C1753 1.524 . S
C1754 C1755 1.415 . S
C1755 H1725 0.950 . S
C1755 C1750 1.363 . S
C1755 C1754 1.415 . S
H1756 C1753 0.999 . S
H1757 C1738 0.913 . S
H1758 C1776 0.951 . S
H1759 C1778 0.951 . S
H1760 C1780 0.950 . S
H1761 C1781 0.950 . S
H1762 C1783 0.950 . S
H1763 C1786 0.950 . S
H1764 C1787 0.950 . S
H1765 C1789 0.950 . S
H1766 C1790 0.950 . S
H1767 C1791 0.951 . S
H1768 C1793 0.951 . S
H1769 C1795 0.950 . S
H1770 C1796 0.950 . S
H1771 C1798 0.950 . S
H1772 C1801 0.950 . S
H1773 C1802 0.950 . S
H1774 C1804 0.950 . S
H1775 C1805 0.950 . S
C1776 H1758 0.951 . S
C1776 C1777 1.366 . S
C1776 C1778 1.388 . S
C1777 C1776 1.366 . S
C1777 C1781 1.385 . S
C1778 H1759 0.951 . S
C1778 C1776 1.388 . S
C1778 C1779 1.366 . S
C1779 C1778 1.366 . S
C1779 C1780 1.414 . S
C1779 C1782 1.499 . S
C1780 H1760 0.950 . S
C1780 C1779 1.414 . S
C1780 C1781 1.374 . S
C1781 H1761 0.950 . S
C1781 C1777 1.385 . S
C1781 C1780 1.374 . S
C1782 C1779 1.499 . S
C1782 C1783 1.373 . S
C1782 C1784 1.389 . S
C1783 H1762 0.950 . S
C1783 C1782 1.373 . S
C1783 C1799 1.377 . S
C1784 C1782 1.389 . S
C1784 C1785 1.524 . S
C1784 C1798 1.377 . S
C1785 C1784 1.524 . S
C1785 C1786 1.397 . S
C1785 C1790 1.363 . S
C1786 H1763 0.950 . S
C1786 C1785 1.397 . S
C1786 C1787 1.334 . S
C1787 H1764 0.950 . S
C1787 C1786 1.334 . S
C1787 C1788 1.287 . S
C1788 C1787 1.287 . S
C1788 C1789 1.524 . S
C1788 H1807 0.913 . S
C1789 H1765 0.950 . S
C1789 C1788 1.524 . S
C1789 C1790 1.415 . S
C1790 H1766 0.950 . S
C1790 C1785 1.363 . S
C1790 C1789 1.415 . S
C1791 H1767 0.951 . S
C1791 C1792 1.366 . S
C1791 C1793 1.388 . S
C1792 C1791 1.366 . S
C1792 C1796 1.385 . S
C1793 H1768 0.951 . S
C1793 C1791 1.388 . S
C1793 C1794 1.366 . S
C1794 C1793 1.366 . S
C1794 C1795 1.414 . S
C1794 C1797 1.499 . S
C1795 H1769 0.950 . S
C1795 C1794 1.414 . S
C1795 C1796 1.374 . S
C1796 H1770 0.950 . S
C1796 C1792 1.385 . S
C1796 C1795 1.374 . S
C1797 C1794 1.499 . S
C1797 C1798 1.373 . S
C1797 C1799 1.389 . S
C1798 H1771 0.950 . S
C1798 C1784 1.377 . S
C1798 C1797 1.373 . S
C1799 C1783 1.377 . S
C1799 C1797 1.389 . S
C1799 C1800 1.524 . S
C1800 C1799 1.524 . S
C1800 C1801 1.397 . S
C1800 C1805 1.363 . S
C1801 H1772 0.950 . S
C1801 C1800 1.397 . S
C1801 C1802 1.334 . S
C1802 H1773 0.950 . S
C1802 C1801 1.334 . S
C1802 C1803 1.287 . S
C1803 C1802 1.287 . S
C1803 C1804 1.524 . S
C1803 H1806 0.999 . S
C1804 H1774 0.950 . S
C1804 C1803 1.524 . S
C1804 C1805 1.415 . S
C1805 H1775 0.950 . S
C1805 C1800 1.363 . S
C1805 C1804 1.415 . S
H1806 C1803 0.999 . S
H1807 C1788 0.913 . S
H1808 C1826 0.951 . S
H1809 C1828 0.951 . S
H1810 C1830 0.950 . S
H1811 C1831 0.950 . S
H1812 C1833 0.950 . S
H1813 C1836 0.950 . S
H1814 C1837 0.950 . S
H1815 C1839 0.950 . S
H1816 C1840 0.950 . S
H1817 C1841 0.951 . S
H1818 C1843 0.951 . S
H1819 C1845 0.950 . S
H1820 C1846 0.950 . S
H1821 C1848 0.950 . S
H1822 C1851 0.950 . S
H1823 C1852 0.950 . S
H1824 C1854 0.950 . S
H1825 C1855 0.950 . S
C1826 H1808 0.951 . S
C1826 C1827 1.366 . S
C1826 C1828 1.388 . S
C1827 C1826 1.366 . S
C1827 C1831 1.385 . S
C1828 H1809 0.951 . S
C1828 C1826 1.388 . S
C1828 C1829 1.366 . S
C1829 C1828 1.366 . S
C1829 C1830 1.414 . S
C1829 C1832 1.499 . S
C1830 H1810 0.950 . S
C1830 C1829 1.414 . S
C1830 C1831 1.374 . S
C1831 H1811 0.950 . S
C1831 C1827 1.385 . S
C1831 C1830 1.374 . S
C1832 C1829 1.499 . S
C1832 C1833 1.373 . S
C1832 C1834 1.389 . S
C1833 H1812 0.950 . S
C1833 C1832 1.373 . S
C1833 C1849 1.377 1_556 S
C1834 C1832 1.389 . S
C1834 C1835 1.524 . S
C1834 C1848 1.377 1_556 S
C1835 C1834 1.524 . S
C1835 C1836 1.397 . S
C1835 C1840 1.363 . S
C1836 H1813 0.950 . S
C1836 C1835 1.397 . S
C1836 C1837 1.334 . S
C1837 H1814 0.950 . S
C1837 C1836 1.334 . S
C1837 C1838 1.287 . S
C1838 C1837 1.287 . S
C1838 C1839 1.524 . S
C1838 H1857 0.913 . S
C1839 H1815 0.950 . S
C1839 C1838 1.524 . S
C1839 C1840 1.415 . S
C1840 H1816 0.950 . S
C1840 C1835 1.363 . S
C1840 C1839 1.415 . S
C1841 H1817 0.951 . S
C1841 C1842 1.366 . S
C1841 C1843 1.388 . S
C1842 C1841 1.366 . S
C1842 C1846 1.385 . S
C1843 H1818 0.951 . S
C1843 C1841 1.388 . S
C1843 C1844 1.366 . S
C1844 C1843 1.366 . S
C1844 C1845 1.414 . S
C1844 C1847 1.499 . S
C1845 H1819 0.950 . S
C1845 C1844 1.414 . S
C1845 C1846 1.374 . S
C1846 H1820 0.950 . S
C1846 C1842 1.385 . S
C1846 C1845 1.374 . S
C1847 C1844 1.499 . S
C1847 C1848 1.373 . S
C1847 C1849 1.389 . S
C1848 H1821 0.950 . S
C1848 C1834 1.377 1_554 S
C1848 C1847 1.373 . S
C1849 C1833 1.377 1_554 S
C1849 C1847 1.389 . S
C1849 C1850 1.524 . S
C1850 C1849 1.524 . S
C1850 C1851 1.397 . S
C1850 C1855 1.363 . S
C1851 H1822 0.950 . S
C1851 C1850 1.397 . S
C1851 C1852 1.334 . S
C1852 H1823 0.950 . S
C1852 C1851 1.334 . S
C1852 C1853 1.287 . S
C1853 C1852 1.287 . S
C1853 C1854 1.524 . S
C1853 H1856 0.999 . S
C1854 H1824 0.950 . S
C1854 C1853 1.524 . S
C1854 C1855 1.415 . S
C1855 H1825 0.950 . S
C1855 C1850 1.363 . S
C1855 C1854 1.415 . S
H1856 C1853 0.999 . S
H1857 C1838 0.913 . S
H1858 C1876 0.951 . S
H1859 C1878 0.951 . S
H1860 C1880 0.950 . S
H1861 C1881 0.950 . S
H1862 C1883 0.950 . S
H1863 C1886 0.950 . S
H1864 C1887 0.950 . S
H1865 C1889 0.950 . S
H1866 C1890 0.950 . S
H1867 C1891 0.951 . S
H1868 C1893 0.951 . S
H1869 C1895 0.950 . S
H1870 C1896 0.950 . S
H1871 C1898 0.950 . S
H1872 C1901 0.950 . S
H1873 C1902 0.950 . S
H1874 C1904 0.950 . S
H1875 C1905 0.950 . S
C1876 H1858 0.951 . S
C1876 C1877 1.366 . S
C1876 C1878 1.388 . S
C1877 C1876 1.366 . S
C1877 C1881 1.385 . S
C1878 H1859 0.951 . S
C1878 C1876 1.388 . S
C1878 C1879 1.366 . S
C1879 C1878 1.366 . S
C1879 C1880 1.414 . S
C1879 C1882 1.499 . S
C1880 H1860 0.950 . S
C1880 C1879 1.414 . S
C1880 C1881 1.374 . S
C1881 H1861 0.950 . S
C1881 C1877 1.385 . S
C1881 C1880 1.374 . S
C1882 C1879 1.499 . S
C1882 C1883 1.373 . S
C1882 C1884 1.389 . S
C1883 H1862 0.950 . S
C1883 C1882 1.373 . S
C1883 C1899 1.377 1_556 S
C1884 C1882 1.389 . S
C1884 C1885 1.524 . S
C1884 C1898 1.377 1_556 S
C1885 C1884 1.524 . S
C1885 C1886 1.397 . S
C1885 C1890 1.363 . S
C1886 H1863 0.950 . S
C1886 C1885 1.397 . S
C1886 C1887 1.334 . S
C1887 H1864 0.950 . S
C1887 C1886 1.334 . S
C1887 C1888 1.287 . S
C1888 C1887 1.287 . S
C1888 C1889 1.524 . S
C1888 H1907 0.913 . S
C1889 H1865 0.950 . S
C1889 C1888 1.524 . S
C1889 C1890 1.415 . S
C1890 H1866 0.950 . S
C1890 C1885 1.363 . S
C1890 C1889 1.415 . S
C1891 H1867 0.951 . S
C1891 C1892 1.366 . S
C1891 C1893 1.388 . S
C1892 C1891 1.366 . S
C1892 C1896 1.385 . S
C1893 H1868 0.951 . S
C1893 C1891 1.388 . S
C1893 C1894 1.366 . S
C1894 C1893 1.366 . S
C1894 C1895 1.414 . S
C1894 C1897 1.499 . S
C1895 H1869 0.950 . S
C1895 C1894 1.414 . S
C1895 C1896 1.374 . S
C1896 H1870 0.950 . S
C1896 C1892 1.385 . S
C1896 C1895 1.374 . S
C1897 C1894 1.499 . S
C1897 C1898 1.373 . S
C1897 C1899 1.389 . S
C1898 H1871 0.950 . S
C1898 C1884 1.377 1_554 S
C1898 C1897 1.373 . S
C1899 C1883 1.377 1_554 S
C1899 C1897 1.389 . S
C1899 C1900 1.524 . S
C1900 C1899 1.524 . S
C1900 C1901 1.397 . S
C1900 C1905 1.363 . S
C1901 H1872 0.950 . S
C1901 C1900 1.397 . S
C1901 C1902 1.334 . S
C1902 H1873 0.950 . S
C1902 C1901 1.334 . S
C1902 C1903 1.287 . S
C1903 C1902 1.287 . S
C1903 C1904 1.524 . S
C1903 H1906 0.999 . S
C1904 H1874 0.950 . S
C1904 C1903 1.524 . S
C1904 C1905 1.415 . S
C1905 H1875 0.950 . S
C1905 C1900 1.363 . S
C1905 C1904 1.415 . S
H1906 C1903 0.999 . S
H1907 C1888 0.913 . S
H1908 C1926 0.951 . S
H1909 C1928 0.951 . S
H1910 C1930 0.950 . S
H1911 C1931 0.950 . S
H1912 C1933 0.950 . S
H1913 C1936 0.950 . S
H1914 C1937 0.950 . S
H1915 C1939 0.950 . S
H1916 C1940 0.950 . S
H1917 C1941 0.951 . S
H1918 C1943 0.951 . S
H1919 C1945 0.950 . S
H1920 C1946 0.950 . S
H1921 C1948 0.950 . S
H1922 C1951 0.950 . S
H1923 C1952 0.950 . S
H1924 C1954 0.950 . S
H1925 C1955 0.950 . S
C1926 H1908 0.951 . S
C1926 C1927 1.366 . S
C1926 C1928 1.388 . S
C1927 C1926 1.366 . S
C1927 C1931 1.385 . S
C1928 H1909 0.951 . S
C1928 C1926 1.388 . S
C1928 C1929 1.366 . S
C1929 C1928 1.366 . S
C1929 C1930 1.414 . S
C1929 C1932 1.499 . S
C1930 H1910 0.950 . S
C1930 C1929 1.414 . S
C1930 C1931 1.374 . S
C1931 H1911 0.950 . S
C1931 C1927 1.385 . S
C1931 C1930 1.374 . S
C1932 C1929 1.499 . S
C1932 C1933 1.373 . S
C1932 C1934 1.389 . S
C1933 H1912 0.950 . S
C1933 C1932 1.373 . S
C1933 C1949 1.377 1_556 S
C1934 C1932 1.389 . S
C1934 C1935 1.524 . S
C1934 C1948 1.377 1_556 S
C1935 C1934 1.524 . S
C1935 C1936 1.397 . S
C1935 C1940 1.363 . S
C1936 H1913 0.950 . S
C1936 C1935 1.397 . S
C1936 C1937 1.334 . S
C1937 H1914 0.950 . S
C1937 C1936 1.334 . S
C1937 C1938 1.287 . S
C1938 C1937 1.287 . S
C1938 C1939 1.524 . S
C1938 H1957 0.913 . S
C1939 H1915 0.950 . S
C1939 C1938 1.524 . S
C1939 C1940 1.415 . S
C1940 H1916 0.950 . S
C1940 C1935 1.363 . S
C1940 C1939 1.415 . S
C1941 H1917 0.951 . S
C1941 C1942 1.366 . S
C1941 C1943 1.388 . S
C1942 C1941 1.366 . S
C1942 C1946 1.385 . S
C1943 H1918 0.951 . S
C1943 C1941 1.388 . S
C1943 C1944 1.366 . S
C1944 C1943 1.366 . S
C1944 C1945 1.414 . S
C1944 C1947 1.499 . S
C1945 H1919 0.950 . S
C1945 C1944 1.414 . S
C1945 C1946 1.374 . S
C1946 H1920 0.950 . S
C1946 C1942 1.385 . S
C1946 C1945 1.374 . S
C1947 C1944 1.499 . S
C1947 C1948 1.373 . S
C1947 C1949 1.389 . S
C1948 H1921 0.950 . S
C1948 C1934 1.377 1_554 S
C1948 C1947 1.373 . S
C1949 C1933 1.377 1_554 S
C1949 C1947 1.389 . S
C1949 C1950 1.524 . S
C1950 C1949 1.524 . S
C1950 C1951 1.397 . S
C1950 C1955 1.363 . S
C1951 H1922 0.950 . S
C1951 C1950 1.397 . S
C1951 C1952 1.334 . S
C1952 H1923 0.950 . S
C1952 C1951 1.334 . S
C1952 C1953 1.287 . S
C1953 C1952 1.287 . S
C1953 C1954 1.524 . S
C1953 H1956 0.999 . S
C1954 H1924 0.950 . S
C1954 C1953 1.524 . S
C1954 C1955 1.415 . S
C1955 H1925 0.950 . S
C1955 C1950 1.363 . S
C1955 C1954 1.415 . S
H1956 C1953 0.999 . S
H1957 C1938 0.913 . S
H1958 C1976 0.951 . S
H1959 C1978 0.951 . S
H1960 C1980 0.950 . S
H1961 C1981 0.950 . S
H1962 C1983 0.950 . S
H1963 C1986 0.950 . S
H1964 C1987 0.950 . S
H1965 C1989 0.950 . S
H1966 C1990 0.950 . S
H1967 C1991 0.951 . S
H1968 C1993 0.951 . S
H1969 C1995 0.950 . S
H1970 C1996 0.950 . S
H1971 C1998 0.950 . S
H1972 C2001 0.950 . S
H1973 C2002 0.950 . S
H1974 C2004 0.950 . S
H1975 C2005 0.950 . S
C1976 H1958 0.951 . S
C1976 C1977 1.366 . S
C1976 C1978 1.388 . S
C1977 C1976 1.366 . S
C1977 C1981 1.385 . S
C1978 H1959 0.951 . S
C1978 C1976 1.388 . S
C1978 C1979 1.366 . S
C1979 C1978 1.366 . S
C1979 C1980 1.414 . S
C1979 C1982 1.499 . S
C1980 H1960 0.950 . S
C1980 C1979 1.414 . S
C1980 C1981 1.374 . S
C1981 H1961 0.950 . S
C1981 C1977 1.385 . S
C1981 C1980 1.374 . S
C1982 C1979 1.499 . S
C1982 C1983 1.373 . S
C1982 C1984 1.389 . S
C1983 H1962 0.950 . S
C1983 C1982 1.373 . S
C1983 C1999 1.377 1_554 S
C1984 C1982 1.389 . S
C1984 C1985 1.524 . S
C1984 C1998 1.377 1_554 S
C1985 C1984 1.524 . S
C1985 C1986 1.397 . S
C1985 C1990 1.363 . S
C1986 H1963 0.950 . S
C1986 C1985 1.397 . S
C1986 C1987 1.334 . S
C1987 H1964 0.950 . S
C1987 C1986 1.334 . S
C1987 C1988 1.287 . S
C1988 C1987 1.287 . S
C1988 C1989 1.524 . S
C1988 H2007 0.913 . S
C1989 H1965 0.950 . S
C1989 C1988 1.524 . S
C1989 C1990 1.415 . S
C1990 H1966 0.950 . S
C1990 C1985 1.363 . S
C1990 C1989 1.415 . S
C1991 H1967 0.951 . S
C1991 C1992 1.366 . S
C1991 C1993 1.388 . S
C1992 C1991 1.366 . S
C1992 C1996 1.385 . S
C1993 H1968 0.951 . S
C1993 C1991 1.388 . S
C1993 C1994 1.366 . S
C1994 C1993 1.366 . S
C1994 C1995 1.414 . S
C1994 C1997 1.499 . S
C1995 H1969 0.950 . S
C1995 C1994 1.414 . S
C1995 C1996 1.374 . S
C1996 H1970 0.950 . S
C1996 C1992 1.385 . S
C1996 C1995 1.374 . S
C1997 C1994 1.499 . S
C1997 C1998 1.373 . S
C1997 C1999 1.389 . S
C1998 H1971 0.950 . S
C1998 C1984 1.377 1_556 S
C1998 C1997 1.373 . S
C1999 C1983 1.377 1_556 S
C1999 C1997 1.389 . S
C1999 C2000 1.524 . S
C2000 C1999 1.524 . S
C2000 C2001 1.397 . S
C2000 C2005 1.363 . S
C2001 H1972 0.950 . S
C2001 C2000 1.397 . S
C2001 C2002 1.334 . S
C2002 H1973 0.950 . S
C2002 C2001 1.334 . S
C2002 C2003 1.287 . S
C2003 C2002 1.287 . S
C2003 C2004 1.524 . S
C2003 H2006 0.999 . S
C2004 H1974 0.950 . S
C2004 C2003 1.524 . S
C2004 C2005 1.415 . S
C2005 H1975 0.950 . S
C2005 C2000 1.363 . S
C2005 C2004 1.415 . S
H2006 C2003 0.999 . S
H2007 C1988 0.913 . S
H2008 C2026 0.951 . S
H2009 C2028 0.951 . S
H2010 C2030 0.950 . S
H2011 C2031 0.950 . S
H2012 C2033 0.950 . S
H2013 C2036 0.950 . S
H2014 C2037 0.950 . S
H2015 C2039 0.950 . S
H2016 C2040 0.950 . S
H2017 C2041 0.951 . S
H2018 C2043 0.951 . S
H2019 C2045 0.950 . S
H2020 C2046 0.950 . S
H2021 C2048 0.950 . S
H2022 C2051 0.950 . S
H2023 C2052 0.950 . S
H2024 C2054 0.950 . S
H2025 C2055 0.950 . S
C2026 H2008 0.951 . S
C2026 C2027 1.366 . S
C2026 C2028 1.388 . S
C2027 C2026 1.366 . S
C2027 C2031 1.385 . S
C2028 H2009 0.951 . S
C2028 C2026 1.388 . S
C2028 C2029 1.366 . S
C2029 C2028 1.366 . S
C2029 C2030 1.414 . S
C2029 C2032 1.499 . S
C2030 H2010 0.950 . S
C2030 C2029 1.414 . S
C2030 C2031 1.374 . S
C2031 H2011 0.950 . S
C2031 C2027 1.385 . S
C2031 C2030 1.374 . S
C2032 C2029 1.499 . S
C2032 C2033 1.373 . S
C2032 C2034 1.389 . S
C2033 H2012 0.950 . S
C2033 C2032 1.373 . S
C2033 C2049 1.377 . S
C2034 C2032 1.389 . S
C2034 C2035 1.524 . S
C2034 C2048 1.377 . S
C2035 C2034 1.524 . S
C2035 C2036 1.397 . S
C2035 C2040 1.363 . S
C2036 H2013 0.950 . S
C2036 C2035 1.397 . S
C2036 C2037 1.334 . S
C2037 H2014 0.950 . S
C2037 C2036 1.334 . S
C2037 C2038 1.287 . S
C2038 C2037 1.287 . S
C2038 C2039 1.524 . S
C2038 H2057 0.913 . S
C2039 H2015 0.950 . S
C2039 C2038 1.524 . S
C2039 C2040 1.415 . S
C2040 H2016 0.950 . S
C2040 C2035 1.363 . S
C2040 C2039 1.415 . S
C2041 H2017 0.951 . S
C2041 C2042 1.366 . S
C2041 C2043 1.388 . S
C2042 C2041 1.366 . S
C2042 C2046 1.385 . S
C2043 H2018 0.951 . S
C2043 C2041 1.388 . S
C2043 C2044 1.366 . S
C2044 C2043 1.366 . S
C2044 C2045 1.414 . S
C2044 C2047 1.499 . S
C2045 H2019 0.950 . S
C2045 C2044 1.414 . S
C2045 C2046 1.374 . S
C2046 H2020 0.950 . S
C2046 C2042 1.385 . S
C2046 C2045 1.374 . S
C2047 C2044 1.499 . S
C2047 C2048 1.373 . S
C2047 C2049 1.389 . S
C2048 H2021 0.950 . S
C2048 C2034 1.377 . S
C2048 C2047 1.373 . S
C2049 C2033 1.377 . S
C2049 C2047 1.389 . S
C2049 C2050 1.524 . S
C2050 C2049 1.524 . S
C2050 C2051 1.397 . S
C2050 C2055 1.363 . S
C2051 H2022 0.950 . S
C2051 C2050 1.397 . S
C2051 C2052 1.334 . S
C2052 H2023 0.950 . S
C2052 C2051 1.334 . S
C2052 C2053 1.287 . S
C2053 C2052 1.287 . S
C2053 C2054 1.524 . S
C2053 H2056 0.999 . S
C2054 H2024 0.950 . S
C2054 C2053 1.524 . S
C2054 C2055 1.415 . S
C2055 H2025 0.950 . S
C2055 C2050 1.363 . S
C2055 C2054 1.415 . S
H2056 C2053 0.999 . S
H2057 C2038 0.913 . S
H2058 C2076 0.951 . S
H2059 C2078 0.951 . S
H2060 C2080 0.950 . S
H2061 C2081 0.950 . S
H2062 C2083 0.950 . S
H2063 C2086 0.950 . S
H2064 C2087 0.950 . S
H2065 C2089 0.950 . S
H2066 C2090 0.950 . S
H2067 C2091 0.951 . S
H2068 C2093 0.951 . S
H2069 C2095 0.950 . S
H2070 C2096 0.950 . S
H2071 C2098 0.950 . S
H2072 C2101 0.950 . S
H2073 C2102 0.950 . S
H2074 C2104 0.950 . S
H2075 C2105 0.950 . S
C2076 H2058 0.951 . S
C2076 C2077 1.366 . S
C2076 C2078 1.388 . S
C2077 C2076 1.366 . S
C2077 C2081 1.385 . S
C2078 H2059 0.951 . S
C2078 C2076 1.388 . S
C2078 C2079 1.366 . S
C2079 C2078 1.366 . S
C2079 C2080 1.414 . S
C2079 C2082 1.499 . S
C2080 H2060 0.950 . S
C2080 C2079 1.414 . S
C2080 C2081 1.374 . S
C2081 H2061 0.950 . S
C2081 C2077 1.385 . S
C2081 C2080 1.374 . S
C2082 C2079 1.499 . S
C2082 C2083 1.373 . S
C2082 C2084 1.389 . S
C2083 H2062 0.950 . S
C2083 C2082 1.373 . S
C2083 C2099 1.377 . S
C2084 C2082 1.389 . S
C2084 C2085 1.524 . S
C2084 C2098 1.377 . S
C2085 C2084 1.524 . S
C2085 C2086 1.397 . S
C2085 C2090 1.363 . S
C2086 H2063 0.950 . S
C2086 C2085 1.397 . S
C2086 C2087 1.334 . S
C2087 H2064 0.950 . S
C2087 C2086 1.334 . S
C2087 C2088 1.287 . S
C2088 C2087 1.287 . S
C2088 C2089 1.524 . S
C2088 H2107 0.913 . S
C2089 H2065 0.950 . S
C2089 C2088 1.524 . S
C2089 C2090 1.415 . S
C2090 H2066 0.950 . S
C2090 C2085 1.363 . S
C2090 C2089 1.415 . S
C2091 H2067 0.951 . S
C2091 C2092 1.366 . S
C2091 C2093 1.388 . S
C2092 C2091 1.366 . S
C2092 C2096 1.385 . S
C2093 H2068 0.951 . S
C2093 C2091 1.388 . S
C2093 C2094 1.366 . S
C2094 C2093 1.366 . S
C2094 C2095 1.414 . S
C2094 C2097 1.499 . S
C2095 H2069 0.950 . S
C2095 C2094 1.414 . S
C2095 C2096 1.374 . S
C2096 H2070 0.950 . S
C2096 C2092 1.385 . S
C2096 C2095 1.374 . S
C2097 C2094 1.499 . S
C2097 C2098 1.373 . S
C2097 C2099 1.389 . S
C2098 H2071 0.950 . S
C2098 C2084 1.377 . S
C2098 C2097 1.373 . S
C2099 C2083 1.377 . S
C2099 C2097 1.389 . S
C2099 C2100 1.524 . S
C2100 C2099 1.524 . S
C2100 C2101 1.397 . S
C2100 C2105 1.363 . S
C2101 H2072 0.950 . S
C2101 C2100 1.397 . S
C2101 C2102 1.334 . S
C2102 H2073 0.950 . S
C2102 C2101 1.334 . S
C2102 C2103 1.287 . S
C2103 C2102 1.287 . S
C2103 C2104 1.524 . S
C2103 H2106 0.999 . S
C2104 H2074 0.950 . S
C2104 C2103 1.524 . S
C2104 C2105 1.415 . S
C2105 H2075 0.950 . S
C2105 C2100 1.363 . S
C2105 C2104 1.415 . S
H2106 C2103 0.999 . S
H2107 C2088 0.913 . S
H2108 C2126 0.951 . S
H2109 C2128 0.951 . S
H2110 C2130 0.950 . S
H2111 C2131 0.950 . S
H2112 C2133 0.950 . S
H2113 C2136 0.950 . S
H2114 C2137 0.950 . S
H2115 C2139 0.950 . S
H2116 C2140 0.950 . S
H2117 C2141 0.951 . S
H2118 C2143 0.951 . S
H2119 C2145 0.950 . S
H2120 C2146 0.950 . S
H2121 C2148 0.950 . S
H2122 C2151 0.950 . S
H2123 C2152 0.950 . S
H2124 C2154 0.950 . S
H2125 C2155 0.950 . S
C2126 H2108 0.951 . S
C2126 C2127 1.366 . S
C2126 C2128 1.388 . S
C2127 C2126 1.366 . S
C2127 C2131 1.385 . S
C2128 H2109 0.951 . S
C2128 C2126 1.388 . S
C2128 C2129 1.366 . S
C2129 C2128 1.366 . S
C2129 C2130 1.414 . S
C2129 C2132 1.499 . S
C2130 H2110 0.950 . S
C2130 C2129 1.414 . S
C2130 C2131 1.374 . S
C2131 H2111 0.950 . S
C2131 C2127 1.385 . S
C2131 C2130 1.374 . S
C2132 C2129 1.499 . S
C2132 C2133 1.373 . S
C2132 C2134 1.389 . S
C2133 H2112 0.950 . S
C2133 C2132 1.373 . S
C2133 C2149 1.377 . S
C2134 C2132 1.389 . S
C2134 C2135 1.524 . S
C2134 C2148 1.377 . S
C2135 C2134 1.524 . S
C2135 C2136 1.397 . S
C2135 C2140 1.363 . S
C2136 H2113 0.950 . S
C2136 C2135 1.397 . S
C2136 C2137 1.334 . S
C2137 H2114 0.950 . S
C2137 C2136 1.334 . S
C2137 C2138 1.287 . S
C2138 C2137 1.287 . S
C2138 C2139 1.524 . S
C2138 H2157 0.913 . S
C2139 H2115 0.950 . S
C2139 C2138 1.524 . S
C2139 C2140 1.415 . S
C2140 H2116 0.950 . S
C2140 C2135 1.363 . S
C2140 C2139 1.415 . S
C2141 H2117 0.951 . S
C2141 C2142 1.366 . S
C2141 C2143 1.388 . S
C2142 C2141 1.366 . S
C2142 C2146 1.385 . S
C2143 H2118 0.951 . S
C2143 C2141 1.388 . S
C2143 C2144 1.366 . S
C2144 C2143 1.366 . S
C2144 C2145 1.414 . S
C2144 C2147 1.499 . S
C2145 H2119 0.950 . S
C2145 C2144 1.414 . S
C2145 C2146 1.374 . S
C2146 H2120 0.950 . S
C2146 C2142 1.385 . S
C2146 C2145 1.374 . S
C2147 C2144 1.499 . S
C2147 C2148 1.373 . S
C2147 C2149 1.389 . S
C2148 H2121 0.950 . S
C2148 C2134 1.377 . S
C2148 C2147 1.373 . S
C2149 C2133 1.377 . S
C2149 C2147 1.389 . S
C2149 C2150 1.524 . S
C2150 C2149 1.524 . S
C2150 C2151 1.397 . S
C2150 C2155 1.363 . S
C2151 H2122 0.950 . S
C2151 C2150 1.397 . S
C2151 C2152 1.334 . S
C2152 H2123 0.950 . S
C2152 C2151 1.334 . S
C2152 C2153 1.287 . S
C2153 C2152 1.287 . S
C2153 C2154 1.524 . S
C2153 H2156 0.999 . S
C2154 H2124 0.950 . S
C2154 C2153 1.524 . S
C2154 C2155 1.415 . S
C2155 H2125 0.950 . S
C2155 C2150 1.363 . S
C2155 C2154 1.415 . S
H2156 C2153 0.999 . S
H2157 C2138 0.913 . S
H2158 C2176 0.951 . S
H2159 C2178 0.951 . S
H2160 C2180 0.950 . S
H2161 C2181 0.950 . S
H2162 C2183 0.950 . S
H2163 C2186 0.950 . S
H2164 C2187 0.950 . S
H2165 C2189 0.950 . S
H2166 C2190 0.950 . S
H2167 C2191 0.951 . S
H2168 C2193 0.951 . S
H2169 C2195 0.950 . S
H2170 C2196 0.950 . S
H2171 C2198 0.950 . S
H2172 C2201 0.950 . S
H2173 C2202 0.950 . S
H2174 C2204 0.950 . S
H2175 C2205 0.950 . S
C2176 H2158 0.951 . S
C2176 C2177 1.366 . S
C2176 C2178 1.388 . S
C2177 C2176 1.366 . S
C2177 C2181 1.385 . S
C2178 H2159 0.951 . S
C2178 C2176 1.388 . S
C2178 C2179 1.366 . S
C2179 C2178 1.366 . S
C2179 C2180 1.414 . S
C2179 C2182 1.499 . S
C2180 H2160 0.950 . S
C2180 C2179 1.414 . S
C2180 C2181 1.374 . S
C2181 H2161 0.950 . S
C2181 C2177 1.385 . S
C2181 C2180 1.374 . S
C2182 C2179 1.499 . S
C2182 C2183 1.373 . S
C2182 C2184 1.389 . S
C2183 H2162 0.950 . S
C2183 C2182 1.373 . S
C2183 C2199 1.377 . S
C2184 C2182 1.389 . S
C2184 C2185 1.524 . S
C2184 C2198 1.377 . S
C2185 C2184 1.524 . S
C2185 C2186 1.397 . S
C2185 C2190 1.363 . S
C2186 H2163 0.950 . S
C2186 C2185 1.397 . S
C2186 C2187 1.334 . S
C2187 H2164 0.950 . S
C2187 C2186 1.334 . S
C2187 C2188 1.287 . S
C2188 C2187 1.287 . S
C2188 C2189 1.524 . S
C2188 H2207 0.913 . S
C2189 H2165 0.950 . S
C2189 C2188 1.524 . S
C2189 C2190 1.415 . S
C2190 H2166 0.950 . S
C2190 C2185 1.363 . S
C2190 C2189 1.415 . S
C2191 H2167 0.951 . S
C2191 C2192 1.366 . S
C2191 C2193 1.388 . S
C2192 C2191 1.366 . S
C2192 C2196 1.385 . S
C2193 H2168 0.951 . S
C2193 C2191 1.388 . S
C2193 C2194 1.366 . S
C2194 C2193 1.366 . S
C2194 C2195 1.414 . S
C2194 C2197 1.499 . S
C2195 H2169 0.950 . S
C2195 C2194 1.414 . S
C2195 C2196 1.374 . S
C2196 H2170 0.950 . S
C2196 C2192 1.385 . S
C2196 C2195 1.374 . S
C2197 C2194 1.499 . S
C2197 C2198 1.373 . S
C2197 C2199 1.389 . S
C2198 H2171 0.950 . S
C2198 C2184 1.377 . S
C2198 C2197 1.373 . S
C2199 C2183 1.377 . S
C2199 C2197 1.389 . S
C2199 C2200 1.524 . S
C2200 C2199 1.524 . S
C2200 C2201 1.397 . S
C2200 C2205 1.363 . S
C2201 H2172 0.950 . S
C2201 C2200 1.397 . S
C2201 C2202 1.334 . S
C2202 H2173 0.950 . S
C2202 C2201 1.334 . S
C2202 C2203 1.287 . S
C2203 C2202 1.287 . S
C2203 C2204 1.524 . S
C2203 H2206 0.999 . S
C2204 H2174 0.950 . S
C2204 C2203 1.524 . S
C2204 C2205 1.415 . S
C2205 H2175 0.950 . S
C2205 C2200 1.363 . S
C2205 C2204 1.415 . S
H2206 C2203 0.999 . S
H2207 C2188 0.913 . S
H2208 C2226 0.951 . S
H2209 C2228 0.951 . S
H2210 C2230 0.950 . S
H2211 C2231 0.950 . S
H2212 C2233 0.950 . S
H2213 C2236 0.950 . S
H2214 C2237 0.950 . S
H2215 C2239 0.950 . S
H2216 C2240 0.950 . S
H2217 C2241 0.951 . S
H2218 C2243 0.951 . S
H2219 C2245 0.950 . S
H2220 C2246 0.950 . S
H2221 C2248 0.950 . S
H2222 C2251 0.950 . S
H2223 C2252 0.950 . S
H2224 C2254 0.950 . S
H2225 C2255 0.950 . S
C2226 H2208 0.951 . S
C2226 C2227 1.366 . S
C2226 C2228 1.388 . S
C2227 C2226 1.366 . S
C2227 C2231 1.385 . S
C2228 H2209 0.951 . S
C2228 C2226 1.388 . S
C2228 C2229 1.366 . S
C2229 C2228 1.366 . S
C2229 C2230 1.414 . S
C2229 C2232 1.499 . S
C2230 H2210 0.950 . S
C2230 C2229 1.414 . S
C2230 C2231 1.374 . S
C2231 H2211 0.950 . S
C2231 C2227 1.385 . S
C2231 C2230 1.374 . S
C2232 C2229 1.499 . S
C2232 C2233 1.373 . S
C2232 C2234 1.389 . S
C2233 H2212 0.950 . S
C2233 C2232 1.373 . S
C2233 C2249 1.377 . S
C2234 C2232 1.389 . S
C2234 C2235 1.524 . S
C2234 C2248 1.377 . S
C2235 C2234 1.524 . S
C2235 C2236 1.397 . S
C2235 C2240 1.363 . S
C2236 H2213 0.950 . S
C2236 C2235 1.397 . S
C2236 C2237 1.334 . S
C2237 H2214 0.950 . S
C2237 C2236 1.334 . S
C2237 C2238 1.287 . S
C2238 C2237 1.287 . S
C2238 C2239 1.524 . S
C2238 H2257 0.913 . S
C2239 H2215 0.950 . S
C2239 C2238 1.524 . S
C2239 C2240 1.415 . S
C2240 H2216 0.950 . S
C2240 C2235 1.363 . S
C2240 C2239 1.415 . S
C2241 H2217 0.951 . S
C2241 C2242 1.366 . S
C2241 C2243 1.388 . S
C2242 C2241 1.366 . S
C2242 C2246 1.385 . S
C2243 H2218 0.951 . S
C2243 C2241 1.388 . S
C2243 C2244 1.366 . S
C2244 C2243 1.366 . S
C2244 C2245 1.414 . S
C2244 C2247 1.499 . S
C2245 H2219 0.950 . S
C2245 C2244 1.414 . S
C2245 C2246 1.374 . S
C2246 H2220 0.950 . S
C2246 C2242 1.385 . S
C2246 C2245 1.374 . S
C2247 C2244 1.499 . S
C2247 C2248 1.373 . S
C2247 C2249 1.389 . S
C2248 H2221 0.950 . S
C2248 C2234 1.377 . S
C2248 C2247 1.373 . S
C2249 C2233 1.377 . S
C2249 C2247 1.389 . S
C2249 C2250 1.524 . S
C2250 C2249 1.524 . S
C2250 C2251 1.397 . S
C2250 C2255 1.363 . S
C2251 H2222 0.950 . S
C2251 C2250 1.397 . S
C2251 C2252 1.334 . S
C2252 H2223 0.950 . S
C2252 C2251 1.334 . S
C2252 C2253 1.287 . S
C2253 C2252 1.287 . S
C2253 C2254 1.524 . S
C2253 H2256 0.999 . S
C2254 H2224 0.950 . S
C2254 C2253 1.524 . S
C2254 C2255 1.415 . S
C2255 H2225 0.950 . S
C2255 C2250 1.363 . S
C2255 C2254 1.415 . S
H2256 C2253 0.999 . S
H2257 C2238 0.913 . S
H2258 C2276 0.951 . S
H2259 C2278 0.951 . S
H2260 C2280 0.950 . S
H2261 C2281 0.950 . S
H2262 C2283 0.950 . S
H2263 C2286 0.950 . S
H2264 C2287 0.950 . S
H2265 C2289 0.950 . S
H2266 C2290 0.950 . S
H2267 C2291 0.951 . S
H2268 C2293 0.951 . S
H2269 C2295 0.950 . S
H2270 C2296 0.950 . S
H2271 C2298 0.950 . S
H2272 C2301 0.950 . S
H2273 C2302 0.950 . S
H2274 C2304 0.950 . S
H2275 C2305 0.950 . S
C2276 H2258 0.951 . S
C2276 C2277 1.366 . S
C2276 C2278 1.388 . S
C2277 C2276 1.366 . S
C2277 C2281 1.385 . S
C2278 H2259 0.951 . S
C2278 C2276 1.388 . S
C2278 C2279 1.366 . S
C2279 C2278 1.366 . S
C2279 C2280 1.414 . S
C2279 C2282 1.499 . S
C2280 H2260 0.950 . S
C2280 C2279 1.414 . S
C2280 C2281 1.374 . S
C2281 H2261 0.950 . S
C2281 C2277 1.385 . S
C2281 C2280 1.374 . S
C2282 C2279 1.499 . S
C2282 C2283 1.373 . S
C2282 C2284 1.389 . S
C2283 H2262 0.950 . S
C2283 C2282 1.373 . S
C2283 C2299 1.377 . S
C2284 C2282 1.389 . S
C2284 C2285 1.524 . S
C2284 C2298 1.377 . S
C2285 C2284 1.524 . S
C2285 C2286 1.397 . S
C2285 C2290 1.363 . S
C2286 H2263 0.950 . S
C2286 C2285 1.397 . S
C2286 C2287 1.334 . S
C2287 H2264 0.950 . S
C2287 C2286 1.334 . S
C2287 C2288 1.287 . S
C2288 C2287 1.287 . S
C2288 C2289 1.524 . S
C2288 H2307 0.913 . S
C2289 H2265 0.950 . S
C2289 C2288 1.524 . S
C2289 C2290 1.415 . S
C2290 H2266 0.950 . S
C2290 C2285 1.363 . S
C2290 C2289 1.415 . S
C2291 H2267 0.951 . S
C2291 C2292 1.366 . S
C2291 C2293 1.388 . S
C2292 C2291 1.366 . S
C2292 C2296 1.385 . S
C2293 H2268 0.951 . S
C2293 C2291 1.388 . S
C2293 C2294 1.366 . S
C2294 C2293 1.366 . S
C2294 C2295 1.414 . S
C2294 C2297 1.499 . S
C2295 H2269 0.950 . S
C2295 C2294 1.414 . S
C2295 C2296 1.374 . S
C2296 H2270 0.950 . S
C2296 C2292 1.385 . S
C2296 C2295 1.374 . S
C2297 C2294 1.499 . S
C2297 C2298 1.373 . S
C2297 C2299 1.389 . S
C2298 H2271 0.950 . S
C2298 C2284 1.377 . S
C2298 C2297 1.373 . S
C2299 C2283 1.377 . S
C2299 C2297 1.389 . S
C2299 C2300 1.524 . S
C2300 C2299 1.524 . S
C2300 C2301 1.397 . S
C2300 C2305 1.363 . S
C2301 H2272 0.950 . S
C2301 C2300 1.397 . S
C2301 C2302 1.334 . S
C2302 H2273 0.950 . S
C2302 C2301 1.334 . S
C2302 C2303 1.287 . S
C2303 C2302 1.287 . S
C2303 C2304 1.524 . S
C2303 H2306 0.999 . S
C2304 H2274 0.950 . S
C2304 C2303 1.524 . S
C2304 C2305 1.415 . S
C2305 H2275 0.950 . S
C2305 C2300 1.363 . S
C2305 C2304 1.415 . S
H2306 C2303 0.999 . S
H2307 C2288 0.913 . S
H2308 C2326 0.951 . S
H2309 C2328 0.951 . S
H2310 C2330 0.950 . S
H2311 C2331 0.950 . S
H2312 C2333 0.950 . S
H2313 C2336 0.950 . S
H2314 C2337 0.950 . S
H2315 C2339 0.950 . S
H2316 C2340 0.950 . S
H2317 C2341 0.951 . S
H2318 C2343 0.951 . S
H2319 C2345 0.950 . S
H2320 C2346 0.950 . S
H2321 C2348 0.950 . S
H2322 C2351 0.950 . S
H2323 C2352 0.950 . S
H2324 C2354 0.950 . S
H2325 C2355 0.950 . S
C2326 H2308 0.951 . S
C2326 C2327 1.366 . S
C2326 C2328 1.388 . S
C2327 C2326 1.366 . S
C2327 C2331 1.385 . S
C2328 H2309 0.951 . S
C2328 C2326 1.388 . S
C2328 C2329 1.366 . S
C2329 C2328 1.366 . S
C2329 C2330 1.414 . S
C2329 C2332 1.499 . S
C2330 H2310 0.950 . S
C2330 C2329 1.414 . S
C2330 C2331 1.374 . S
C2331 H2311 0.950 . S
C2331 C2327 1.385 . S
C2331 C2330 1.374 . S
C2332 C2329 1.499 . S
C2332 C2333 1.373 . S
C2332 C2334 1.389 . S
C2333 H2312 0.950 . S
C2333 C2332 1.373 . S
C2333 C2349 1.377 . S
C2334 C2332 1.389 . S
C2334 C2335 1.524 . S
C2334 C2348 1.377 . S
C2335 C2334 1.524 . S
C2335 C2336 1.397 . S
C2335 C2340 1.363 . S
C2336 H2313 0.950 . S
C2336 C2335 1.397 . S
C2336 C2337 1.334 . S
C2337 H2314 0.950 . S
C2337 C2336 1.334 . S
C2337 C2338 1.287 . S
C2338 C2337 1.287 . S
C2338 C2339 1.524 . S
C2338 H2357 0.913 . S
C2339 H2315 0.950 . S
C2339 C2338 1.524 . S
C2339 C2340 1.415 . S
C2340 H2316 0.950 . S
C2340 C2335 1.363 . S
C2340 C2339 1.415 . S
C2341 H2317 0.951 . S
C2341 C2342 1.366 . S
C2341 C2343 1.388 . S
C2342 C2341 1.366 . S
C2342 C2346 1.385 . S
C2343 H2318 0.951 . S
C2343 C2341 1.388 . S
C2343 C2344 1.366 . S
C2344 C2343 1.366 . S
C2344 C2345 1.414 . S
C2344 C2347 1.499 . S
C2345 H2319 0.950 . S
C2345 C2344 1.414 . S
C2345 C2346 1.374 . S
C2346 H2320 0.950 . S
C2346 C2342 1.385 . S
C2346 C2345 1.374 . S
C2347 C2344 1.499 . S
C2347 C2348 1.373 . S
C2347 C2349 1.389 . S
C2348 H2321 0.950 . S
C2348 C2334 1.377 . S
C2348 C2347 1.373 . S
C2349 C2333 1.377 . S
C2349 C2347 1.389 . S
C2349 C2350 1.524 . S
C2350 C2349 1.524 . S
C2350 C2351 1.397 . S
C2350 C2355 1.363 . S
C2351 H2322 0.950 . S
C2351 C2350 1.397 . S
C2351 C2352 1.334 . S
C2352 H2323 0.950 . S
C2352 C2351 1.334 . S
C2352 C2353 1.287 . S
C2353 C2352 1.287 . S
C2353 C2354 1.524 . S
C2353 H2356 0.999 . S
C2354 H2324 0.950 . S
C2354 C2353 1.524 . S
C2354 C2355 1.415 . S
C2355 H2325 0.950 . S
C2355 C2350 1.363 . S
C2355 C2354 1.415 . S
H2356 C2353 0.999 . S
H2357 C2338 0.913 . S
H2358 C2376 0.951 . S
H2359 C2378 0.951 . S
H2360 C2380 0.950 . S
H2361 C2381 0.950 . S
H2362 C2383 0.950 . S
H2363 C2386 0.950 . S
H2364 C2387 0.950 . S
H2365 C2389 0.950 . S
H2366 C2390 0.950 . S
H2367 C2391 0.951 . S
H2368 C2393 0.951 . S
H2369 C2395 0.950 . S
H2370 C2396 0.950 . S
H2371 C2398 0.950 . S
H2372 C2401 0.950 . S
H2373 C2402 0.950 . S
H2374 C2404 0.950 . S
H2375 C2405 0.950 . S
C2376 H2358 0.951 . S
C2376 C2377 1.366 . S
C2376 C2378 1.388 . S
C2377 C2376 1.366 . S
C2377 C2381 1.385 . S
C2378 H2359 0.951 . S
C2378 C2376 1.388 . S
C2378 C2379 1.366 . S
C2379 C2378 1.366 . S
C2379 C2380 1.414 . S
C2379 C2382 1.499 . S
C2380 H2360 0.950 . S
C2380 C2379 1.414 . S
C2380 C2381 1.374 . S
C2381 H2361 0.950 . S
C2381 C2377 1.385 . S
C2381 C2380 1.374 . S
C2382 C2379 1.499 . S
C2382 C2383 1.373 . S
C2382 C2384 1.389 . S
C2383 H2362 0.950 . S
C2383 C2382 1.373 . S
C2383 C2399 1.377 . S
C2384 C2382 1.389 . S
C2384 C2385 1.524 . S
C2384 C2398 1.377 . S
C2385 C2384 1.524 . S
C2385 C2386 1.397 . S
C2385 C2390 1.363 . S
C2386 H2363 0.950 . S
C2386 C2385 1.397 . S
C2386 C2387 1.334 . S
C2387 H2364 0.950 . S
C2387 C2386 1.334 . S
C2387 C2388 1.287 . S
C2388 C2387 1.287 . S
C2388 C2389 1.524 . S
C2388 H2407 0.913 . S
C2389 H2365 0.950 . S
C2389 C2388 1.524 . S
C2389 C2390 1.415 . S
C2390 H2366 0.950 . S
C2390 C2385 1.363 . S
C2390 C2389 1.415 . S
C2391 H2367 0.951 . S
C2391 C2392 1.366 . S
C2391 C2393 1.388 . S
C2392 C2391 1.366 . S
C2392 C2396 1.385 . S
C2393 H2368 0.951 . S
C2393 C2391 1.388 . S
C2393 C2394 1.366 . S
C2394 C2393 1.366 . S
C2394 C2395 1.414 . S
C2394 C2397 1.499 . S
C2395 H2369 0.950 . S
C2395 C2394 1.414 . S
C2395 C2396 1.374 . S
C2396 H2370 0.950 . S
C2396 C2392 1.385 . S
C2396 C2395 1.374 . S
C2397 C2394 1.499 . S
C2397 C2398 1.373 . S
C2397 C2399 1.389 . S
C2398 H2371 0.950 . S
C2398 C2384 1.377 . S
C2398 C2397 1.373 . S
C2399 C2383 1.377 . S
C2399 C2397 1.389 . S
C2399 C2400 1.524 . S
C2400 C2399 1.524 . S
C2400 C2401 1.397 . S
C2400 C2405 1.363 . S
C2401 H2372 0.950 . S
C2401 C2400 1.397 . S
C2401 C2402 1.334 . S
C2402 H2373 0.950 . S
C2402 C2401 1.334 . S
C2402 C2403 1.287 . S
C2403 C2402 1.287 . S
C2403 C2404 1.524 . S
C2403 H2406 0.999 . S
C2404 H2374 0.950 . S
C2404 C2403 1.524 . S
C2404 C2405 1.415 . S
C2405 H2375 0.950 . S
C2405 C2400 1.363 . S
C2405 C2404 1.415 . S
H2406 C2403 0.999 . S
H2407 C2388 0.913 . S
H2408 C2426 0.951 . S
H2409 C2428 0.951 . S
H2410 C2430 0.950 . S
H2411 C2431 0.950 . S
H2412 C2433 0.950 . S
H2413 C2436 0.950 . S
H2414 C2437 0.950 . S
H2415 C2439 0.950 . S
H2416 C2440 0.950 . S
H2417 C2441 0.951 . S
H2418 C2443 0.951 . S
H2419 C2445 0.950 . S
H2420 C2446 0.950 . S
H2421 C2448 0.950 . S
H2422 C2451 0.950 . S
H2423 C2452 0.950 . S
H2424 C2454 0.950 . S
H2425 C2455 0.950 . S
C2426 H2408 0.951 . S
C2426 C2427 1.366 . S
C2426 C2428 1.388 . S
C2427 C2426 1.366 . S
C2427 C2431 1.385 . S
C2428 H2409 0.951 . S
C2428 C2426 1.388 . S
C2428 C2429 1.366 . S
C2429 C2428 1.366 . S
C2429 C2430 1.414 . S
C2429 C2432 1.499 . S
C2430 H2410 0.950 . S
C2430 C2429 1.414 . S
C2430 C2431 1.374 . S
C2431 H2411 0.950 . S
C2431 C2427 1.385 . S
C2431 C2430 1.374 . S
C2432 C2429 1.499 . S
C2432 C2433 1.373 . S
C2432 C2434 1.389 . S
C2433 H2412 0.950 . S
C2433 C2432 1.373 . S
C2433 C2449 1.377 . S
C2434 C2432 1.389 . S
C2434 C2435 1.524 . S
C2434 C2448 1.377 . S
C2435 C2434 1.524 . S
C2435 C2436 1.397 . S
C2435 C2440 1.363 . S
C2436 H2413 0.950 . S
C2436 C2435 1.397 . S
C2436 C2437 1.334 . S
C2437 H2414 0.950 . S
C2437 C2436 1.334 . S
C2437 C2438 1.287 . S
C2438 C2437 1.287 . S
C2438 C2439 1.524 . S
C2438 H2457 0.913 . S
C2439 H2415 0.950 . S
C2439 C2438 1.524 . S
C2439 C2440 1.415 . S
C2440 H2416 0.950 . S
C2440 C2435 1.363 . S
C2440 C2439 1.415 . S
C2441 H2417 0.951 . S
C2441 C2442 1.366 . S
C2441 C2443 1.388 . S
C2442 C2441 1.366 . S
C2442 C2446 1.385 . S
C2443 H2418 0.951 . S
C2443 C2441 1.388 . S
C2443 C2444 1.366 . S
C2444 C2443 1.366 . S
C2444 C2445 1.414 . S
C2444 C2447 1.499 . S
C2445 H2419 0.950 . S
C2445 C2444 1.414 . S
C2445 C2446 1.374 . S
C2446 H2420 0.950 . S
C2446 C2442 1.385 . S
C2446 C2445 1.374 . S
C2447 C2444 1.499 . S
C2447 C2448 1.373 . S
C2447 C2449 1.389 . S
C2448 H2421 0.950 . S
C2448 C2434 1.377 . S
C2448 C2447 1.373 . S
C2449 C2433 1.377 . S
C2449 C2447 1.389 . S
C2449 C2450 1.524 . S
C2450 C2449 1.524 . S
C2450 C2451 1.397 . S
C2450 C2455 1.363 . S
C2451 H2422 0.950 . S
C2451 C2450 1.397 . S
C2451 C2452 1.334 . S
C2452 H2423 0.950 . S
C2452 C2451 1.334 . S
C2452 C2453 1.287 . S
C2453 C2452 1.287 . S
C2453 C2454 1.524 . S
C2453 H2456 0.999 . S
C2454 H2424 0.950 . S
C2454 C2453 1.524 . S
C2454 C2455 1.415 . S
C2455 H2425 0.950 . S
C2455 C2450 1.363 . S
C2455 C2454 1.415 . S
H2456 C2453 0.999 . S
H2457 C2438 0.913 . S
H2458 C2476 0.951 . S
H2459 C2478 0.951 . S
H2460 C2480 0.950 . S
H2461 C2481 0.950 . S
H2462 C2483 0.950 . S
H2463 C2486 0.950 . S
H2464 C2487 0.950 . S
H2465 C2489 0.950 . S
H2466 C2490 0.950 . S
H2467 C2491 0.951 . S
H2468 C2493 0.951 . S
H2469 C2495 0.950 . S
H2470 C2496 0.950 . S
H2471 C2498 0.950 . S
H2472 C2501 0.950 . S
H2473 C2502 0.950 . S
H2474 C2504 0.950 . S
H2475 C2505 0.950 . S
C2476 H2458 0.951 . S
C2476 C2477 1.366 . S
C2476 C2478 1.388 . S
C2477 C2476 1.366 . S
C2477 C2481 1.385 . S
C2478 H2459 0.951 . S
C2478 C2476 1.388 . S
C2478 C2479 1.366 . S
C2479 C2478 1.366 . S
C2479 C2480 1.414 . S
C2479 C2482 1.499 . S
C2480 H2460 0.950 . S
C2480 C2479 1.414 . S
C2480 C2481 1.374 . S
C2481 H2461 0.950 . S
C2481 C2477 1.385 . S
C2481 C2480 1.374 . S
C2482 C2479 1.499 . S
C2482 C2483 1.373 . S
C2482 C2484 1.389 . S
C2483 H2462 0.950 . S
C2483 C2482 1.373 . S
C2483 C2499 1.377 . S
C2484 C2482 1.389 . S
C2484 C2485 1.524 . S
C2484 C2498 1.377 . S
C2485 C2484 1.524 . S
C2485 C2486 1.397 . S
C2485 C2490 1.363 . S
C2486 H2463 0.950 . S
C2486 C2485 1.397 . S
C2486 C2487 1.334 . S
C2487 H2464 0.950 . S
C2487 C2486 1.334 . S
C2487 C2488 1.287 . S
C2488 C2487 1.287 . S
C2488 C2489 1.524 . S
C2488 H2507 0.913 . S
C2489 H2465 0.950 . S
C2489 C2488 1.524 . S
C2489 C2490 1.415 . S
C2490 H2466 0.950 . S
C2490 C2485 1.363 . S
C2490 C2489 1.415 . S
C2491 H2467 0.951 . S
C2491 C2492 1.366 . S
C2491 C2493 1.388 . S
C2492 C2491 1.366 . S
C2492 C2496 1.385 . S
C2493 H2468 0.951 . S
C2493 C2491 1.388 . S
C2493 C2494 1.366 . S
C2494 C2493 1.366 . S
C2494 C2495 1.414 . S
C2494 C2497 1.499 . S
C2495 H2469 0.950 . S
C2495 C2494 1.414 . S
C2495 C2496 1.374 . S
C2496 H2470 0.950 . S
C2496 C2492 1.385 . S
C2496 C2495 1.374 . S
C2497 C2494 1.499 . S
C2497 C2498 1.373 . S
C2497 C2499 1.389 . S
C2498 H2471 0.950 . S
C2498 C2484 1.377 . S
C2498 C2497 1.373 . S
C2499 C2483 1.377 . S
C2499 C2497 1.389 . S
C2499 C2500 1.524 . S
C2500 C2499 1.524 . S
C2500 C2501 1.397 . S
C2500 C2505 1.363 . S
C2501 H2472 0.950 . S
C2501 C2500 1.397 . S
C2501 C2502 1.334 . S
C2502 H2473 0.950 . S
C2502 C2501 1.334 . S
C2502 C2503 1.287 . S
C2503 C2502 1.287 . S
C2503 C2504 1.524 . S
C2503 H2506 0.999 . S
C2504 H2474 0.950 . S
C2504 C2503 1.524 . S
C2504 C2505 1.415 . S
C2505 H2475 0.950 . S
C2505 C2500 1.363 . S
C2505 C2504 1.415 . S
H2506 C2503 0.999 . S
H2507 C2488 0.913 . S
H2508 C2526 0.951 . S
H2509 C2528 0.951 . S
H2510 C2530 0.950 . S
H2511 C2531 0.950 . S
H2512 C2533 0.950 . S
H2513 C2536 0.950 . S
H2514 C2537 0.950 . S
H2515 C2539 0.950 . S
H2516 C2540 0.950 . S
H2517 C2541 0.951 . S
H2518 C2543 0.951 . S
H2519 C2545 0.950 . S
H2520 C2546 0.950 . S
H2521 C2548 0.950 . S
H2522 C2551 0.950 . S
H2523 C2552 0.950 . S
H2524 C2554 0.950 . S
H2525 C2555 0.950 . S
C2526 H2508 0.951 . S
C2526 C2527 1.366 . S
C2526 C2528 1.388 . S
C2527 C2526 1.366 . S
C2527 C2531 1.385 . S
C2528 H2509 0.951 . S
C2528 C2526 1.388 . S
C2528 C2529 1.366 . S
C2529 C2528 1.366 . S
C2529 C2530 1.414 . S
C2529 C2532 1.499 . S
C2530 H2510 0.950 . S
C2530 C2529 1.414 . S
C2530 C2531 1.374 . S
C2531 H2511 0.950 . S
C2531 C2527 1.385 . S
C2531 C2530 1.374 . S
C2532 C2529 1.499 . S
C2532 C2533 1.373 . S
C2532 C2534 1.389 . S
C2533 H2512 0.950 . S
C2533 C2532 1.373 . S
C2533 C2549 1.377 . S
C2534 C2532 1.389 . S
C2534 C2535 1.524 . S
C2534 C2548 1.377 . S
C2535 C2534 1.524 . S
C2535 C2536 1.397 . S
C2535 C2540 1.363 . S
C2536 H2513 0.950 . S
C2536 C2535 1.397 . S
C2536 C2537 1.334 . S
C2537 H2514 0.950 . S
C2537 C2536 1.334 . S
C2537 C2538 1.287 . S
C2538 C2537 1.287 . S
C2538 C2539 1.524 . S
C2538 H2557 0.913 . S
C2539 H2515 0.950 . S
C2539 C2538 1.524 . S
C2539 C2540 1.415 . S
C2540 H2516 0.950 . S
C2540 C2535 1.363 . S
C2540 C2539 1.415 . S
C2541 H2517 0.951 . S
C2541 C2542 1.366 . S
C2541 C2543 1.388 . S
C2542 C2541 1.366 . S
C2542 C2546 1.385 . S
C2543 H2518 0.951 . S
C2543 C2541 1.388 . S
C2543 C2544 1.366 . S
C2544 C2543 1.366 . S
C2544 C2545 1.414 . S
C2544 C2547 1.499 . S
C2545 H2519 0.950 . S
C2545 C2544 1.414 . S
C2545 C2546 1.374 . S
C2546 H2520 0.950 . S
C2546 C2542 1.385 . S
C2546 C2545 1.374 . S
C2547 C2544 1.499 . S
C2547 C2548 1.373 . S
C2547 C2549 1.389 . S
C2548 H2521 0.950 . S
C2548 C2534 1.377 . S
C2548 C2547 1.373 . S
C2549 C2533 1.377 . S
C2549 C2547 1.389 . S
C2549 C2550 1.524 . S
C2550 C2549 1.524 . S
C2550 C2551 1.397 . S
C2550 C2555 1.363 . S
C2551 H2522 0.950 . S
C2551 C2550 1.397 . S
C2551 C2552 1.334 . S
C2552 H2523 0.950 . S
C2552 C2551 1.334 . S
C2552 C2553 1.287 . S
C2553 C2552 1.287 . S
C2553 C2554 1.524 . S
C2553 H2556 0.999 . S
C2554 H2524 0.950 . S
C2554 C2553 1.524 . S
C2554 C2555 1.415 . S
C2555 H2525 0.950 . S
C2555 C2550 1.363 . S
C2555 C2554 1.415 . S
H2556 C2553 0.999 . S
H2557 C2538 0.913 . S
H2558 C2576 0.951 . S
H2559 C2578 0.951 . S
H2560 C2580 0.950 . S
H2561 C2581 0.950 . S
H2562 C2583 0.950 . S
H2563 C2586 0.950 . S
H2564 C2587 0.950 . S
H2565 C2589 0.950 . S
H2566 C2590 0.950 . S
H2567 C2591 0.951 . S
H2568 C2593 0.951 . S
H2569 C2595 0.950 . S
H2570 C2596 0.950 . S
H2571 C2598 0.950 . S
H2572 C2601 0.950 . S
H2573 C2602 0.950 . S
H2574 C2604 0.950 . S
H2575 C2605 0.950 . S
C2576 H2558 0.951 . S
C2576 C2577 1.366 . S
C2576 C2578 1.388 . S
C2577 C2576 1.366 . S
C2577 C2581 1.385 . S
C2578 H2559 0.951 . S
C2578 C2576 1.388 . S
C2578 C2579 1.366 . S
C2579 C2578 1.366 . S
C2579 C2580 1.414 . S
C2579 C2582 1.499 . S
C2580 H2560 0.950 . S
C2580 C2579 1.414 . S
C2580 C2581 1.374 . S
C2581 H2561 0.950 . S
C2581 C2577 1.385 . S
C2581 C2580 1.374 . S
C2582 C2579 1.499 . S
C2582 C2583 1.373 . S
C2582 C2584 1.389 . S
C2583 H2562 0.950 . S
C2583 C2582 1.373 . S
C2583 C2599 1.377 . S
C2584 C2582 1.389 . S
C2584 C2585 1.524 . S
C2584 C2598 1.377 . S
C2585 C2584 1.524 . S
C2585 C2586 1.397 . S
C2585 C2590 1.363 . S
C2586 H2563 0.950 . S
C2586 C2585 1.397 . S
C2586 C2587 1.334 . S
C2587 H2564 0.950 . S
C2587 C2586 1.334 . S
C2587 C2588 1.287 . S
C2588 C2587 1.287 . S
C2588 C2589 1.524 . S
C2588 H2607 0.913 . S
C2589 H2565 0.950 . S
C2589 C2588 1.524 . S
C2589 C2590 1.415 . S
C2590 H2566 0.950 . S
C2590 C2585 1.363 . S
C2590 C2589 1.415 . S
C2591 H2567 0.951 . S
C2591 C2592 1.366 . S
C2591 C2593 1.388 . S
C2592 C2591 1.366 . S
C2592 C2596 1.385 . S
C2593 H2568 0.951 . S
C2593 C2591 1.388 . S
C2593 C2594 1.366 . S
C2594 C2593 1.366 . S
C2594 C2595 1.414 . S
C2594 C2597 1.499 . S
C2595 H2569 0.950 . S
C2595 C2594 1.414 . S
C2595 C2596 1.374 . S
C2596 H2570 0.950 . S
C2596 C2592 1.385 . S
C2596 C2595 1.374 . S
C2597 C2594 1.499 . S
C2597 C2598 1.373 . S
C2597 C2599 1.389 . S
C2598 H2571 0.950 . S
C2598 C2584 1.377 . S
C2598 C2597 1.373 . S
C2599 C2583 1.377 . S
C2599 C2597 1.389 . S
C2599 C2600 1.524 . S
C2600 C2599 1.524 . S
C2600 C2601 1.397 . S
C2600 C2605 1.363 . S
C2601 H2572 0.950 . S
C2601 C2600 1.397 . S
C2601 C2602 1.334 . S
C2602 H2573 0.950 . S
C2602 C2601 1.334 . S
C2602 C2603 1.287 . S
C2603 C2602 1.287 . S
C2603 C2604 1.524 . S
C2603 H2606 0.999 . S
C2604 H2574 0.950 . S
C2604 C2603 1.524 . S
C2604 C2605 1.415 . S
C2605 H2575 0.950 . S
C2605 C2600 1.363 . S
C2605 C2604 1.415 . S
H2606 C2603 0.999 . S
H2607 C2588 0.913 . S
H2608 C2626 0.951 . S
H2609 C2628 0.951 . S
H2610 C2630 0.950 . S
H2611 C2631 0.950 . S
H2612 C2633 0.950 . S
H2613 C2636 0.950 . S
H2614 C2637 0.950 . S
H2615 C2639 0.950 . S
H2616 C2640 0.950 . S
H2617 C2641 0.951 . S
H2618 C2643 0.951 . S
H2619 C2645 0.950 . S
H2620 C2646 0.950 . S
H2621 C2648 0.950 . S
H2622 C2651 0.950 . S
H2623 C2652 0.950 . S
H2624 C2654 0.950 . S
H2625 C2655 0.950 . S
C2626 H2608 0.951 . S
C2626 C2627 1.366 . S
C2626 C2628 1.388 . S
C2627 C2626 1.366 . S
C2627 C2631 1.385 . S
C2628 H2609 0.951 . S
C2628 C2626 1.388 . S
C2628 C2629 1.366 . S
C2629 C2628 1.366 . S
C2629 C2630 1.414 . S
C2629 C2632 1.499 . S
C2630 H2610 0.950 . S
C2630 C2629 1.414 . S
C2630 C2631 1.374 . S
C2631 H2611 0.950 . S
C2631 C2627 1.385 . S
C2631 C2630 1.374 . S
C2632 C2629 1.499 . S
C2632 C2633 1.373 . S
C2632 C2634 1.389 . S
C2633 H2612 0.950 . S
C2633 C2632 1.373 . S
C2633 C2649 1.377 1_545 S
C2634 C2632 1.389 . S
C2634 C2635 1.524 . S
C2634 C2648 1.377 1_545 S
C2635 C2634 1.524 . S
C2635 C2636 1.397 . S
C2635 C2640 1.363 . S
C2636 H2613 0.950 . S
C2636 C2635 1.397 . S
C2636 C2637 1.334 . S
C2637 H2614 0.950 . S
C2637 C2636 1.334 . S
C2637 C2638 1.287 . S
C2638 C2637 1.287 . S
C2638 C2639 1.524 . S
C2638 H2657 0.913 . S
C2639 H2615 0.950 . S
C2639 C2638 1.524 . S
C2639 C2640 1.415 . S
C2640 H2616 0.950 . S
C2640 C2635 1.363 . S
C2640 C2639 1.415 . S
C2641 H2617 0.951 . S
C2641 C2642 1.366 . S
C2641 C2643 1.388 . S
C2642 C2641 1.366 . S
C2642 C2646 1.385 . S
C2643 H2618 0.951 . S
C2643 C2641 1.388 . S
C2643 C2644 1.366 . S
C2644 C2643 1.366 . S
C2644 C2645 1.414 . S
C2644 C2647 1.499 . S
C2645 H2619 0.950 . S
C2645 C2644 1.414 . S
C2645 C2646 1.374 . S
C2646 H2620 0.950 . S
C2646 C2642 1.385 . S
C2646 C2645 1.374 . S
C2647 C2644 1.499 . S
C2647 C2648 1.373 . S
C2647 C2649 1.389 . S
C2648 H2621 0.950 . S
C2648 C2634 1.377 1_565 S
C2648 C2647 1.373 . S
C2649 C2633 1.377 1_565 S
C2649 C2647 1.389 . S
C2649 C2650 1.524 . S
C2650 C2649 1.524 . S
C2650 C2651 1.397 . S
C2650 C2655 1.363 . S
C2651 H2622 0.950 . S
C2651 C2650 1.397 . S
C2651 C2652 1.334 . S
C2652 H2623 0.950 . S
C2652 C2651 1.334 . S
C2652 C2653 1.287 . S
C2653 C2652 1.287 . S
C2653 C2654 1.524 . S
C2653 H2656 0.999 . S
C2654 H2624 0.950 . S
C2654 C2653 1.524 . S
C2654 C2655 1.415 . S
C2655 H2625 0.950 . S
C2655 C2650 1.363 . S
C2655 C2654 1.415 . S
H2656 C2653 0.999 . S
H2657 C2638 0.913 . S
H2658 C2676 0.951 . S
H2659 C2678 0.951 . S
H2660 C2680 0.950 . S
H2661 C2681 0.950 . S
H2662 C2683 0.950 . S
H2663 C2686 0.950 . S
H2664 C2687 0.950 . S
H2665 C2689 0.950 . S
H2666 C2690 0.950 . S
H2667 C2691 0.951 . S
H2668 C2693 0.951 . S
H2669 C2695 0.950 . S
H2670 C2696 0.950 . S
H2671 C2698 0.950 . S
H2672 C2701 0.950 . S
H2673 C2702 0.950 . S
H2674 C2704 0.950 . S
H2675 C2705 0.950 . S
C2676 H2658 0.951 . S
C2676 C2677 1.366 . S
C2676 C2678 1.388 . S
C2677 C2676 1.366 . S
C2677 C2681 1.385 . S
C2678 H2659 0.951 . S
C2678 C2676 1.388 . S
C2678 C2679 1.366 . S
C2679 C2678 1.366 . S
C2679 C2680 1.414 . S
C2679 C2682 1.499 . S
C2680 H2660 0.950 . S
C2680 C2679 1.414 . S
C2680 C2681 1.374 . S
C2681 H2661 0.950 . S
C2681 C2677 1.385 . S
C2681 C2680 1.374 . S
C2682 C2679 1.499 . S
C2682 C2683 1.373 . S
C2682 C2684 1.389 . S
C2683 H2662 0.950 . S
C2683 C2682 1.373 . S
C2683 C2699 1.377 1_655 S
C2684 C2682 1.389 . S
C2684 C2685 1.524 . S
C2684 C2698 1.377 1_655 S
C2685 C2684 1.524 . S
C2685 C2686 1.397 . S
C2685 C2690 1.363 . S
C2686 H2663 0.950 . S
C2686 C2685 1.397 . S
C2686 C2687 1.334 . S
C2687 H2664 0.950 . S
C2687 C2686 1.334 . S
C2687 C2688 1.287 . S
C2688 C2687 1.287 . S
C2688 C2689 1.524 . S
C2688 H2707 0.913 . S
C2689 H2665 0.950 . S
C2689 C2688 1.524 . S
C2689 C2690 1.415 . S
C2690 H2666 0.950 . S
C2690 C2685 1.363 . S
C2690 C2689 1.415 . S
C2691 H2667 0.951 . S
C2691 C2692 1.366 . S
C2691 C2693 1.388 . S
C2692 C2691 1.366 . S
C2692 C2696 1.385 . S
C2693 H2668 0.951 . S
C2693 C2691 1.388 . S
C2693 C2694 1.366 . S
C2694 C2693 1.366 . S
C2694 C2695 1.414 . S
C2694 C2697 1.499 . S
C2695 H2669 0.950 . S
C2695 C2694 1.414 . S
C2695 C2696 1.374 . S
C2696 H2670 0.950 . S
C2696 C2692 1.385 . S
C2696 C2695 1.374 . S
C2697 C2694 1.499 . S
C2697 C2698 1.373 . S
C2697 C2699 1.389 . S
C2698 H2671 0.950 . S
C2698 C2684 1.377 1_455 S
C2698 C2697 1.373 . S
C2699 C2683 1.377 1_455 S
C2699 C2697 1.389 . S
C2699 C2700 1.524 . S
C2700 C2699 1.524 . S
C2700 C2701 1.397 . S
C2700 C2705 1.363 . S
C2701 H2672 0.950 . S
C2701 C2700 1.397 . S
C2701 C2702 1.334 . S
C2702 H2673 0.950 . S
C2702 C2701 1.334 . S
C2702 C2703 1.287 . S
C2703 C2702 1.287 . S
C2703 C2704 1.524 . S
C2703 H2706 0.999 . S
C2704 H2674 0.950 . S
C2704 C2703 1.524 . S
C2704 C2705 1.415 . S
C2705 H2675 0.950 . S
C2705 C2700 1.363 . S
C2705 C2704 1.415 . S
H2706 C2703 0.999 . S
H2707 C2688 0.913 . S
H2708 C2726 0.951 . S
H2709 C2728 0.951 . S
H2710 C2730 0.950 . S
H2711 C2731 0.950 . S
H2712 C2733 0.950 . S
H2713 C2736 0.950 . S
H2714 C2737 0.950 . S
H2715 C2739 0.950 . S
H2716 C2740 0.950 . S
H2717 C2741 0.951 . S
H2718 C2743 0.951 . S
H2719 C2745 0.950 . S
H2720 C2746 0.950 . S
H2721 C2748 0.950 . S
H2722 C2751 0.950 . S
H2723 C2752 0.950 . S
H2724 C2754 0.950 . S
H2725 C2755 0.950 . S
C2726 H2708 0.951 . S
C2726 C2727 1.366 . S
C2726 C2728 1.388 . S
C2727 C2726 1.366 . S
C2727 C2731 1.385 . S
C2728 H2709 0.951 . S
C2728 C2726 1.388 . S
C2728 C2729 1.366 . S
C2729 C2728 1.366 . S
C2729 C2730 1.414 . S
C2729 C2732 1.499 . S
C2730 H2710 0.950 . S
C2730 C2729 1.414 . S
C2730 C2731 1.374 . S
C2731 H2711 0.950 . S
C2731 C2727 1.385 . S
C2731 C2730 1.374 . S
C2732 C2729 1.499 . S
C2732 C2733 1.373 . S
C2732 C2734 1.389 . S
C2733 H2712 0.950 . S
C2733 C2732 1.373 . S
C2733 C2749 1.377 1_545 S
C2734 C2732 1.389 . S
C2734 C2735 1.524 . S
C2734 C2748 1.377 1_545 S
C2735 C2734 1.524 . S
C2735 C2736 1.397 . S
C2735 C2740 1.363 1_545 S
C2736 H2713 0.950 . S
C2736 C2735 1.397 . S
C2736 C2737 1.334 . S
C2737 H2714 0.950 . S
C2737 C2736 1.334 . S
C2737 C2738 1.287 . S
C2738 C2737 1.287 . S
C2738 C2739 1.524 1_545 S
C2738 H2757 0.913 . S
C2739 H2715 0.950 . S
C2739 C2738 1.524 1_565 S
C2739 C2740 1.415 . S
C2740 H2716 0.950 . S
C2740 C2735 1.363 1_565 S
C2740 C2739 1.415 . S
C2741 H2717 0.951 . S
C2741 C2742 1.366 . S
C2741 C2743 1.388 . S
C2742 C2741 1.366 . S
C2742 C2746 1.385 . S
C2743 H2718 0.951 . S
C2743 C2741 1.388 . S
C2743 C2744 1.366 . S
C2744 C2743 1.366 . S
C2744 C2745 1.414 . S
C2744 C2747 1.499 . S
C2745 H2719 0.950 . S
C2745 C2744 1.414 . S
C2745 C2746 1.374 . S
C2746 H2720 0.950 . S
C2746 C2742 1.385 . S
C2746 C2745 1.374 . S
C2747 C2744 1.499 . S
C2747 C2748 1.373 . S
C2747 C2749 1.389 . S
C2748 H2721 0.950 . S
C2748 C2734 1.377 1_565 S
C2748 C2747 1.373 . S
C2749 C2733 1.377 1_565 S
C2749 C2747 1.389 . S
C2749 C2750 1.524 . S
C2750 C2749 1.524 . S
C2750 C2751 1.397 . S
C2750 C2755 1.363 1_565 S
C2751 H2722 0.950 . S
C2751 C2750 1.397 . S
C2751 C2752 1.334 . S
C2752 H2723 0.950 . S
C2752 C2751 1.334 . S
C2752 C2753 1.287 . S
C2753 C2752 1.287 . S
C2753 C2754 1.524 1_565 S
C2753 H2756 0.999 . S
C2754 H2724 0.950 . S
C2754 C2753 1.524 1_545 S
C2754 C2755 1.415 . S
C2755 H2725 0.950 . S
C2755 C2750 1.363 1_545 S
C2755 C2754 1.415 . S
H2756 C2753 0.999 . S
H2757 C2738 0.913 . S
H2758 C2776 0.951 . S
H2759 C2778 0.951 . S
H2760 C2780 0.950 . S
H2761 C2781 0.950 . S
H2762 C2783 0.950 . S
H2763 C2786 0.950 . S
H2764 C2787 0.950 . S
H2765 C2789 0.950 . S
H2766 C2790 0.950 . S
H2767 C2791 0.951 . S
H2768 C2793 0.951 . S
H2769 C2795 0.950 . S
H2770 C2796 0.950 . S
H2771 C2798 0.950 . S
H2772 C2801 0.950 . S
H2773 C2802 0.950 . S
H2774 C2804 0.950 . S
H2775 C2805 0.950 . S
C2776 H2758 0.951 . S
C2776 C2777 1.366 . S
C2776 C2778 1.388 . S
C2777 C2776 1.366 . S
C2777 C2781 1.385 . S
C2778 H2759 0.951 . S
C2778 C2776 1.388 . S
C2778 C2779 1.366 . S
C2779 C2778 1.366 . S
C2779 C2780 1.414 . S
C2779 C2782 1.499 . S
C2780 H2760 0.950 . S
C2780 C2779 1.414 . S
C2780 C2781 1.374 . S
C2781 H2761 0.950 . S
C2781 C2777 1.385 . S
C2781 C2780 1.374 . S
C2782 C2779 1.499 . S
C2782 C2783 1.373 . S
C2782 C2784 1.389 . S
C2783 H2762 0.950 . S
C2783 C2782 1.373 . S
C2783 C2799 1.377 1_455 S
C2784 C2782 1.389 . S
C2784 C2785 1.524 . S
C2784 C2798 1.377 1_455 S
C2785 C2784 1.524 . S
C2785 C2786 1.397 . S
C2785 C2790 1.363 . S
C2786 H2763 0.950 . S
C2786 C2785 1.397 . S
C2786 C2787 1.334 . S
C2787 H2764 0.950 . S
C2787 C2786 1.334 . S
C2787 C2788 1.287 . S
C2788 C2787 1.287 . S
C2788 C2789 1.524 . S
C2788 H2807 0.913 . S
C2789 H2765 0.950 . S
C2789 C2788 1.524 . S
C2789 C2790 1.415 . S
C2790 H2766 0.950 . S
C2790 C2785 1.363 . S
C2790 C2789 1.415 . S
C2791 H2767 0.951 . S
C2791 C2792 1.366 . S
C2791 C2793 1.388 . S
C2792 C2791 1.366 . S
C2792 C2796 1.385 . S
C2793 H2768 0.951 . S
C2793 C2791 1.388 . S
C2793 C2794 1.366 . S
C2794 C2793 1.366 . S
C2794 C2795 1.414 . S
C2794 C2797 1.499 . S
C2795 H2769 0.950 . S
C2795 C2794 1.414 . S
C2795 C2796 1.374 . S
C2796 H2770 0.950 . S
C2796 C2792 1.385 . S
C2796 C2795 1.374 . S
C2797 C2794 1.499 . S
C2797 C2798 1.373 . S
C2797 C2799 1.389 . S
C2798 H2771 0.950 . S
C2798 C2784 1.377 1_655 S
C2798 C2797 1.373 . S
C2799 C2783 1.377 1_655 S
C2799 C2797 1.389 . S
C2799 C2800 1.524 . S
C2800 C2799 1.524 . S
C2800 C2801 1.397 . S
C2800 C2805 1.363 . S
C2801 H2772 0.950 . S
C2801 C2800 1.397 . S
C2801 C2802 1.334 . S
C2802 H2773 0.950 . S
C2802 C2801 1.334 . S
C2802 C2803 1.287 . S
C2803 C2802 1.287 . S
C2803 C2804 1.524 . S
C2803 H2806 0.999 . S
C2804 H2774 0.950 . S
C2804 C2803 1.524 . S
C2804 C2805 1.415 . S
C2805 H2775 0.950 . S
C2805 C2800 1.363 . S
C2805 C2804 1.415 . S
H2806 C2803 0.999 . S
H2807 C2788 0.913 . S
H2808 C2826 0.951 . S
H2809 C2828 0.951 . S
H2810 C2830 0.950 . S
H2811 C2831 0.950 . S
H2812 C2833 0.950 . S
H2813 C2836 0.950 . S
H2814 C2837 0.950 . S
H2815 C2839 0.950 . S
H2816 C2840 0.950 . S
H2817 C2841 0.951 . S
H2818 C2843 0.951 . S
H2819 C2845 0.950 . S
H2820 C2846 0.950 . S
H2821 C2848 0.950 . S
H2822 C2851 0.950 . S
H2823 C2852 0.950 . S
H2824 C2854 0.950 . S
H2825 C2855 0.950 . S
C2826 H2808 0.951 . S
C2826 C2827 1.366 . S
C2826 C2828 1.388 . S
C2827 C2826 1.366 . S
C2827 C2831 1.385 . S
C2828 H2809 0.951 . S
C2828 C2826 1.388 . S
C2828 C2829 1.366 . S
C2829 C2828 1.366 . S
C2829 C2830 1.414 . S
C2829 C2832 1.499 . S
C2830 H2810 0.950 . S
C2830 C2829 1.414 . S
C2830 C2831 1.374 . S
C2831 H2811 0.950 . S
C2831 C2827 1.385 . S
C2831 C2830 1.374 . S
C2832 C2829 1.499 . S
C2832 C2833 1.373 . S
C2832 C2834 1.389 . S
C2833 H2812 0.950 . S
C2833 C2832 1.373 . S
C2833 C2849 1.377 1_545 S
C2834 C2832 1.389 . S
C2834 C2835 1.524 . S
C2834 C2848 1.377 1_545 S
C2835 C2834 1.524 . S
C2835 C2836 1.397 . S
C2835 C2840 1.363 . S
C2836 H2813 0.950 . S
C2836 C2835 1.397 . S
C2836 C2837 1.334 . S
C2837 H2814 0.950 . S
C2837 C2836 1.334 . S
C2837 C2838 1.287 . S
C2838 C2837 1.287 . S
C2838 C2839 1.524 . S
C2838 H2857 0.913 . S
C2839 H2815 0.950 . S
C2839 C2838 1.524 . S
C2839 C2840 1.415 . S
C2840 H2816 0.950 . S
C2840 C2835 1.363 . S
C2840 C2839 1.415 . S
C2841 H2817 0.951 . S
C2841 C2842 1.366 . S
C2841 C2843 1.388 . S
C2842 C2841 1.366 . S
C2842 C2846 1.385 . S
C2843 H2818 0.951 . S
C2843 C2841 1.388 . S
C2843 C2844 1.366 . S
C2844 C2843 1.366 . S
C2844 C2845 1.414 . S
C2844 C2847 1.499 . S
C2845 H2819 0.950 . S
C2845 C2844 1.414 . S
C2845 C2846 1.374 . S
C2846 H2820 0.950 . S
C2846 C2842 1.385 . S
C2846 C2845 1.374 . S
C2847 C2844 1.499 . S
C2847 C2848 1.373 . S
C2847 C2849 1.389 . S
C2848 H2821 0.950 . S
C2848 C2834 1.377 1_565 S
C2848 C2847 1.373 . S
C2849 C2833 1.377 1_565 S
C2849 C2847 1.389 . S
C2849 C2850 1.524 . S
C2850 C2849 1.524 . S
C2850 C2851 1.397 . S
C2850 C2855 1.363 . S
C2851 H2822 0.950 . S
C2851 C2850 1.397 . S
C2851 C2852 1.334 . S
C2852 H2823 0.950 . S
C2852 C2851 1.334 . S
C2852 C2853 1.287 . S
C2853 C2852 1.287 . S
C2853 C2854 1.524 . S
C2853 H2856 0.999 . S
C2854 H2824 0.950 . S
C2854 C2853 1.524 . S
C2854 C2855 1.415 . S
C2855 H2825 0.950 . S
C2855 C2850 1.363 . S
C2855 C2854 1.415 . S
H2856 C2853 0.999 . S
H2857 C2838 0.913 . S
H2858 C2876 0.951 . S
H2859 C2878 0.951 . S
H2860 C2880 0.950 . S
H2861 C2881 0.950 . S
H2862 C2883 0.950 . S
H2863 C2886 0.950 . S
H2864 C2887 0.950 . S
H2865 C2889 0.950 . S
H2866 C2890 0.950 1_455 S
H2867 C2891 0.951 . S
H2868 C2893 0.951 . S
H2869 C2895 0.950 . S
H2870 C2896 0.950 . S
H2871 C2898 0.950 . S
H2872 C2901 0.950 . S
H2873 C2902 0.950 . S
H2874 C2904 0.950 . S
H2875 C2905 0.950 1_655 S
C2876 H2858 0.951 . S
C2876 C2877 1.366 . S
C2876 C2878 1.388 . S
C2877 C2876 1.366 . S
C2877 C2881 1.385 . S
C2878 H2859 0.951 . S
C2878 C2876 1.388 . S
C2878 C2879 1.366 . S
C2879 C2878 1.366 . S
C2879 C2880 1.414 . S
C2879 C2882 1.499 . S
C2880 H2860 0.950 . S
C2880 C2879 1.414 . S
C2880 C2881 1.374 . S
C2881 H2861 0.950 . S
C2881 C2877 1.385 . S
C2881 C2880 1.374 . S
C2882 C2879 1.499 . S
C2882 C2883 1.373 . S
C2882 C2884 1.389 . S
C2883 H2862 0.950 . S
C2883 C2882 1.373 . S
C2883 C2899 1.377 1_655 S
C2884 C2882 1.389 . S
C2884 C2885 1.524 . S
C2884 C2898 1.377 1_655 S
C2885 C2884 1.524 . S
C2885 C2886 1.397 . S
C2885 C2890 1.363 . S
C2886 H2863 0.950 . S
C2886 C2885 1.397 . S
C2886 C2887 1.334 . S
C2887 H2864 0.950 . S
C2887 C2886 1.334 . S
C2887 C2888 1.287 . S
C2888 C2887 1.287 . S
C2888 C2889 1.524 . S
C2888 H2907 0.913 . S
C2889 H2865 0.950 . S
C2889 C2888 1.524 . S
C2889 C2890 1.415 . S
C2890 H2866 0.950 1_655 S
C2890 C2885 1.363 . S
C2890 C2889 1.415 . S
C2891 H2867 0.951 . S
C2891 C2892 1.366 . S
C2891 C2893 1.388 . S
C2892 C2891 1.366 . S
C2892 C2896 1.385 . S
C2893 H2868 0.951 . S
C2893 C2891 1.388 . S
C2893 C2894 1.366 . S
C2894 C2893 1.366 . S
C2894 C2895 1.414 . S
C2894 C2897 1.499 . S
C2895 H2869 0.950 . S
C2895 C2894 1.414 . S
C2895 C2896 1.374 . S
C2896 H2870 0.950 . S
C2896 C2892 1.385 . S
C2896 C2895 1.374 . S
C2897 C2894 1.499 . S
C2897 C2898 1.373 . S
C2897 C2899 1.389 . S
C2898 H2871 0.950 . S
C2898 C2884 1.377 1_455 S
C2898 C2897 1.373 . S
C2899 C2883 1.377 1_455 S
C2899 C2897 1.389 . S
C2899 C2900 1.524 . S
C2900 C2899 1.524 . S
C2900 C2901 1.397 . S
C2900 C2905 1.363 . S
C2901 H2872 0.950 . S
C2901 C2900 1.397 . S
C2901 C2902 1.334 . S
C2902 H2873 0.950 . S
C2902 C2901 1.334 . S
C2902 C2903 1.287 . S
C2903 C2902 1.287 . S
C2903 C2904 1.524 . S
C2903 H2906 0.999 . S
C2904 H2874 0.950 . S
C2904 C2903 1.524 . S
C2904 C2905 1.415 . S
C2905 H2875 0.950 1_455 S
C2905 C2900 1.363 . S
C2905 C2904 1.415 . S
H2906 C2903 0.999 . S
H2907 C2888 0.913 . S
H2908 C2926 0.951 . S
H2909 C2928 0.951 . S
H2910 C2930 0.950 . S
H2911 C2931 0.950 . S
H2912 C2933 0.950 . S
H2913 C2936 0.950 . S
H2914 C2937 0.950 . S
H2915 C2939 0.950 . S
H2916 C2940 0.950 . S
H2917 C2941 0.951 . S
H2918 C2943 0.951 . S
H2919 C2945 0.950 . S
H2920 C2946 0.950 . S
H2921 C2948 0.950 . S
H2922 C2951 0.950 . S
H2923 C2952 0.950 . S
H2924 C2954 0.950 . S
H2925 C2955 0.950 . S
C2926 H2908 0.951 . S
C2926 C2927 1.366 . S
C2926 C2928 1.388 . S
C2927 C2926 1.366 . S
C2927 C2931 1.385 . S
C2928 H2909 0.951 . S
C2928 C2926 1.388 . S
C2928 C2929 1.366 . S
C2929 C2928 1.366 . S
C2929 C2930 1.414 . S
C2929 C2932 1.499 . S
C2930 H2910 0.950 . S
C2930 C2929 1.414 . S
C2930 C2931 1.374 . S
C2931 H2911 0.950 . S
C2931 C2927 1.385 . S
C2931 C2930 1.374 . S
C2932 C2929 1.499 . S
C2932 C2933 1.373 . S
C2932 C2934 1.389 . S
C2933 H2912 0.950 . S
C2933 C2932 1.373 . S
C2933 C2949 1.377 1_565 S
C2934 C2932 1.389 . S
C2934 C2935 1.524 . S
C2934 C2948 1.377 1_565 S
C2935 C2934 1.524 . S
C2935 C2936 1.397 . S
C2935 C2940 1.363 . S
C2936 H2913 0.950 . S
C2936 C2935 1.397 . S
C2936 C2937 1.334 . S
C2937 H2914 0.950 . S
C2937 C2936 1.334 . S
C2937 C2938 1.287 . S
C2938 C2937 1.287 . S
C2938 C2939 1.524 . S
C2938 H2957 0.913 . S
C2939 H2915 0.950 . S
C2939 C2938 1.524 . S
C2939 C2940 1.415 . S
C2940 H2916 0.950 . S
C2940 C2935 1.363 . S
C2940 C2939 1.415 . S
C2941 H2917 0.951 . S
C2941 C2942 1.366 . S
C2941 C2943 1.388 . S
C2942 C2941 1.366 . S
C2942 C2946 1.385 . S
C2943 H2918 0.951 . S
C2943 C2941 1.388 . S
C2943 C2944 1.366 . S
C2944 C2943 1.366 . S
C2944 C2945 1.414 . S
C2944 C2947 1.499 . S
C2945 H2919 0.950 . S
C2945 C2944 1.414 . S
C2945 C2946 1.374 . S
C2946 H2920 0.950 . S
C2946 C2942 1.385 . S
C2946 C2945 1.374 . S
C2947 C2944 1.499 . S
C2947 C2948 1.373 . S
C2947 C2949 1.389 . S
C2948 H2921 0.950 . S
C2948 C2934 1.377 1_545 S
C2948 C2947 1.373 . S
C2949 C2933 1.377 1_545 S
C2949 C2947 1.389 . S
C2949 C2950 1.524 . S
C2950 C2949 1.524 . S
C2950 C2951 1.397 . S
C2950 C2955 1.363 . S
C2951 H2922 0.950 . S
C2951 C2950 1.397 . S
C2951 C2952 1.334 . S
C2952 H2923 0.950 . S
C2952 C2951 1.334 . S
C2952 C2953 1.287 . S
C2953 C2952 1.287 . S
C2953 C2954 1.524 . S
C2953 H2956 0.999 . S
C2954 H2924 0.950 . S
C2954 C2953 1.524 . S
C2954 C2955 1.415 . S
C2955 H2925 0.950 . S
C2955 C2950 1.363 . S
C2955 C2954 1.415 . S
H2956 C2953 0.999 . S
H2957 C2938 0.913 . S
H2958 C2976 0.951 . S
H2959 C2978 0.951 . S
H2960 C2980 0.950 . S
H2961 C2981 0.950 . S
H2962 C2983 0.950 . S
H2963 C2986 0.950 . S
H2964 C2987 0.950 . S
H2965 C2989 0.918 1_655 S
H2966 C2990 0.919 1_655 S
H2967 C2991 0.951 . S
H2968 C2993 0.951 . S
H2969 C2995 0.950 . S
H2970 C2996 0.950 . S
H2971 C2998 0.950 . S
H2972 C3001 0.950 . S
H2973 C3002 0.950 . S
H2974 C3004 0.918 1_455 S
H2975 C3005 0.919 1_455 S
C2976 H2958 0.951 . S
C2976 C2977 1.366 . S
C2976 C2978 1.388 . S
C2977 C2976 1.366 . S
C2977 C2981 1.385 . S
C2978 H2959 0.951 . S
C2978 C2976 1.388 . S
C2978 C2979 1.366 . S
C2979 C2978 1.366 . S
C2979 C2980 1.414 . S
C2979 C2982 1.499 . S
C2980 H2960 0.950 . S
C2980 C2979 1.414 . S
C2980 C2981 1.374 . S
C2981 H2961 0.950 . S
C2981 C2977 1.385 . S
C2981 C2980 1.374 . S
C2982 C2979 1.499 . S
C2982 C2983 1.373 . S
C2982 C2984 1.389 . S
C2983 H2962 0.950 . S
C2983 C2982 1.373 . S
C2983 C2999 1.377 1_455 S
C2984 C2982 1.389 . S
C2984 C2985 1.524 . S
C2984 C2998 1.377 1_455 S
C2985 C2984 1.524 . S
C2985 C2986 1.397 . S
C2985 C2990 1.385 . S
C2986 H2963 0.950 . S
C2986 C2985 1.397 . S
C2986 C2987 1.334 . S
C2987 H2964 0.950 . S
C2987 C2986 1.334 . S
C2987 C2988 1.287 . S
C2988 C2987 1.287 . S
C2988 C2989 1.524 . S
C2988 H3007 0.913 . S
C2989 H2965 0.918 1_455 S
C2989 C2988 1.524 . S
C2989 C2990 1.425 . S
C2990 H2966 0.919 1_455 S
C2990 C2985 1.385 . S
C2990 C2989 1.425 . S
C2991 H2967 0.951 . S
C2991 C2992 1.366 . S
C2991 C2993 1.388 . S
C2992 C2991 1.366 . S
C2992 C2996 1.385 . S
C2993 H2968 0.951 . S
C2993 C2991 1.388 . S
C2993 C2994 1.366 . S
C2994 C2993 1.366 . S
C2994 C2995 1.414 . S
C2994 C2997 1.499 . S
C2995 H2969 0.950 . S
C2995 C2994 1.414 . S
C2995 C2996 1.374 . S
C2996 H2970 0.950 . S
C2996 C2992 1.385 . S
C2996 C2995 1.374 . S
C2997 C2994 1.499 . S
C2997 C2998 1.373 . S
C2997 C2999 1.389 . S
C2998 H2971 0.950 . S
C2998 C2984 1.377 1_655 S
C2998 C2997 1.373 . S
C2999 C2983 1.377 1_655 S
C2999 C2997 1.389 . S
C2999 C3000 1.524 . S
C3000 C2999 1.524 . S
C3000 C3001 1.397 . S
C3000 C3005 1.385 . S
C3001 H2972 0.950 . S
C3001 C3000 1.397 . S
C3001 C3002 1.334 . S
C3002 H2973 0.950 . S
C3002 C3001 1.334 . S
C3002 C3003 1.287 . S
C3003 C3002 1.287 . S
C3003 C3004 1.524 . S
C3003 H3006 0.999 . S
C3004 H2974 0.918 1_655 S
C3004 C3003 1.524 . S
C3004 C3005 1.425 . S
C3005 H2975 0.919 1_655 S
C3005 C3000 1.385 . S
C3005 C3004 1.425 . S
H3006 C3003 0.999 . S
H3007 C2988 0.913 . S
C1427 C489 0.844 . S
C1442 C20 0.844 . S
C1477 C577 0.844 . S
C1492 C117 0.844 . S
C1527 C196 0.844 . S
C1542 C665 0.844 . S
C1577 C293 0.844 . S
C1592 C401 0.844 . S
C1627 C1173 0.844 . S
C1642 C753 0.844 . S
C1677 C1261 0.844 . S
C1692 C841 0.844 . S
C1727 C929 0.844 . S
C1742 C1349 0.844 . S
C1777 C1017 0.844 . S
C1792 C1085 0.844 . S
C1827 C909 1.505 . S
C1842 C57 1.505 . S
C1877 C997 1.505 . S
C1892 C137 1.505 . S
C1927 C733 1.505 . S
C1942 C233 1.505 . S
C1977 C313 1.505 . S
C1992 C821 1.505 . S
C2027 C1281 1.505 . S
C2042 C381 1.505 . S
C2077 C1369 1.505 . S
C2092 C469 1.505 . S
C2127 C557 1.505 . S
C2142 C1105 1.505 . S
C2177 C1193 1.505 . S
C2192 C645 1.505 . S
C2227 C409 1.361 . S
C2242 C29 1.361 . S
C2277 C108 1.361 . S
C2292 C497 1.360 . S
C2327 C205 1.361 . S
C2342 C585 1.361 . S
C2377 C673 1.361 . S
C2392 C284 1.360 . S
C2427 C724 1.403 . S
C2442 C1113 1.403 . S
C2477 C1201 1.403 . S
C2492 C812 1.403 . S
C2527 C900 1.403 . S
C2542 C1289 1.403 . S
C2577 C1377 1.403 . S
C2592 C988 1.403 . S
C2627 C1025 1.361 . S
C2642 C1164 1.360 . S
C2677 C761 1.361 . S
C2692 C1252 1.361 . S
C2727 C1340 1.361 . S
C2742 C849 1.361 . S
C2777 C937 1.361 . S
C2792 C1076 1.360 . S
C2827 C460 1.403 . S
C2842 C321 1.403 . S
C2877 C548 1.403 . S
C2892 C49 1.403 . S
C2927 C636 1.403 . S
C2942 C145 1.403 . S
C2977 C372 1.403 . S
C2992 C225 1.403 . S
