# Generated by pormake.
# Topology loh, (5)-cn, num edge types: 1
# Building blocks:
#     Node 0, Type 0, BuildingBlock: XOMCOT_clean_sbu_0, # of connection points: 5
#     Node 1, Type 0, BuildingBlock: XOMCOT_clean_sbu_0, # of connection points: 5
#     Node 2, Type 0, BuildingBlock: XOMCOT_clean_sbu_0, # of connection points: 5
#     Node 3, Type 0, BuildingBlock: XOMCOT_clean_sbu_0, # of connection points: 5
#     Node 4, Type 0, BuildingBlock: XOMCOT_clean_sbu_0, # of connection points: 5
#     Node 5, Type 0, BuildingBlock: XOMCOT_clean_sbu_0, # of connection points: 5
#     Node 6, Type 0, BuildingBlock: XOMCOT_clean_sbu_0, # of connection points: 5
#     Node 7, Type 0, BuildingBlock: XOMCOT_clean_sbu_0, # of connection points: 5
#     Edge 8, Type (0, 0), BuildingBlock: TEMPAE_clean_linker_10, # of connection points: 2
#     Edge 9, Type (0, 0), BuildingBlock: TEMPAE_clean_linker_10, # of connection points: 2
#     Edge 10, Type (0, 0), BuildingBlock: TEMPAE_clean_linker_10, # of connection points: 2
#     Edge 11, Type (0, 0), BuildingBlock: TEMPAE_clean_linker_10, # of connection points: 2
#     Edge 12, Type (0, 0), BuildingBlock: TEMPAE_clean_linker_10, # of connection points: 2
#     Edge 13, Type (0, 0), BuildingBlock: TEMPAE_clean_linker_10, # of connection points: 2
#     Edge 14, Type (0, 0), BuildingBlock: TEMPAE_clean_linker_10, # of connection points: 2
#     Edge 15, Type (0, 0), BuildingBlock: TEMPAE_clean_linker_10, # of connection points: 2
#     Edge 16, Type (0, 0), BuildingBlock: TEMPAE_clean_linker_10, # of connection points: 2
#     Edge 17, Type (0, 0), BuildingBlock: TEMPAE_clean_linker_10, # of connection points: 2
#     Edge 18, Type (0, 0), BuildingBlock: TEMPAE_clean_linker_10, # of connection points: 2
#     Edge 19, Type (0, 0), BuildingBlock: TEMPAE_clean_linker_10, # of connection points: 2
#     Edge 20, Type (0, 0), BuildingBlock: TEMPAE_clean_linker_10, # of connection points: 2
#     Edge 21, Type (0, 0), BuildingBlock: TEMPAE_clean_linker_10, # of connection points: 2
#     Edge 22, Type (0, 0), BuildingBlock: TEMPAE_clean_linker_10, # of connection points: 2
#     Edge 23, Type (0, 0), BuildingBlock: TEMPAE_clean_linker_10, # of connection points: 2
#     Edge 24, Type (0, 0), BuildingBlock: TEMPAE_clean_linker_10, # of connection points: 2
#     Edge 25, Type (0, 0), BuildingBlock: TEMPAE_clean_linker_10, # of connection points: 2
#     Edge 26, Type (0, 0), BuildingBlock: TEMPAE_clean_linker_10, # of connection points: 2
#     Edge 27, Type (0, 0), BuildingBlock: TEMPAE_clean_linker_10, # of connection points: 2
# Relax obj value: 0.189
# Max RMSD: 0.132
# Mean RMSD: 0.132
data_MOF--net-loh--node1-XOMCOT_clean_sbu_0--edge1-TEMPAE_clean_linker_10
_symmetry_space_group_name_H-M    P1
_symmetry_Int_Tables_number       1
_symmetry_cell_setting            triclinic
loop_
_symmetry_equiv_pos_as_xyz
'x, y, z'
_cell_length_a     27.478978
_cell_length_b     24.533599
_cell_length_c     42.205877
_cell_angle_alpha  89.960465
_cell_angle_beta   89.90132
_cell_angle_gamma 90.097566
loop_
_atom_site_label
_atom_site_type_symbol
_atom_site_fract_x
_atom_site_fract_y
_atom_site_fract_z
_atom_type_partial_charge
Co0 Co 1.04111 0.26596 0.15642 0.0
C1 C 1.03851 0.15987 0.19225 0.0
C2 C 0.07453 0.15333 0.14728 0.0
C3 C 0.07375 0.10276 0.16119 0.0
N4 N 0.0525 0.18949 0.1666 0.0
N5 N 0.05105 0.10658 0.18942 0.0
H6 H 1.01867 0.17646 0.21218 0.0
H7 H 0.08967 0.16233 0.12424 0.0
C8 C 0.09127 0.28188 0.09217 0.0
O9 O 0.05295 0.30739 0.08101 0.0
N10 N 1.0305 0.34204 0.1465 0.0
C11 C 0.98909 0.37128 0.14773 0.0
C12 C 0.9986 0.4229 0.13672 0.0
C13 C 0.06502 0.37737 0.1369 0.0
N14 N 0.04633 0.42647 0.1293 0.0
C15 C 0.93931 0.25379 0.14253 0.0
C16 C 0.9473 0.21561 0.08131 0.0
C17 C 0.90123 0.2323 0.09218 0.0
C18 C 0.89757 0.24915 0.12382 0.0
C19 C 0.98837 0.22091 0.10104 0.0
N20 N 0.98464 0.24431 0.13038 0.0
H21 H 0.93495 0.26764 0.1666 0.0
H22 H 1.02306 0.20724 0.09218 0.0
H23 H 0.95402 0.35662 0.15536 0.0
H24 H 0.10284 0.36633 0.13418 0.0
O25 O 1.00834 0.27834 0.19672 0.0
O26 O 0.08699 0.28967 0.1885 0.0
O27 O 0.09062 0.26126 0.12014 0.0
C28 C 0.04998 0.29562 0.20744 0.0
H29 H 0.08911 0.06593 0.15126 0.0
H30 H 0.97146 0.4539 0.13235 0.0
H31 H 0.952 0.20032 0.05745 0.0
H32 H 0.86264 0.2596 0.13406 0.0
Co33 Co 0.52644 0.76335 0.65432 0.0
C34 C 0.53533 0.87566 0.68335 0.0
C35 C 0.46177 0.84798 0.67767 0.0
C36 C 0.46105 0.89613 0.69426 0.0
N37 N 0.50818 0.83494 0.67051 0.0
N38 N 0.50715 0.91361 0.69778 0.0
H39 H 0.57458 0.87606 0.68413 0.0
H40 H 0.43057 0.82254 0.67256 0.0
C41 C 0.45602 0.80698 0.60412 0.0
O42 O 0.4721 0.85697 0.60799 0.0
N43 N 0.54355 0.69192 0.63933 0.0
C44 C 0.58629 0.66614 0.64337 0.0
C45 C 0.58413 0.6169 0.62791 0.0
C46 C 0.51585 0.65812 0.62199 0.0
N47 N 0.53989 0.61217 0.61421 0.0
C48 C 0.62144 0.80642 0.63947 0.0
C49 C 0.6168 0.78444 0.57534 0.0
C50 C 0.66254 0.7962 0.5885 0.0
C51 C 0.66398 0.80916 0.62096 0.0
C52 C 0.57521 0.78249 0.59458 0.0
N53 N 0.57766 0.7923 0.62647 0.0
H54 H 0.62479 0.81117 0.66478 0.0
H55 H 0.54223 0.76743 0.58395 0.0
H56 H 0.61723 0.68257 0.65599 0.0
H57 H 0.4796 0.66795 0.6141 0.0
O58 O 0.56424 0.7488 0.69235 0.0
O59 O 0.48625 0.72933 0.68641 0.0
O60 O 0.47451 0.7677 0.61999 0.0
C61 C 0.52522 0.72554 0.70368 0.0
H62 H 0.42921 0.9158 0.70413 0.0
H63 H 0.61348 0.58772 0.6262 0.0
H64 H 0.61335 0.77268 0.55074 0.0
H65 H 0.69808 0.819 0.63243 0.0
Co66 Co 0.07162 0.78709 0.89324 0.0
C67 C 0.05875 0.89822 0.86327 0.0
C68 C 0.1324 0.88142 0.87672 0.0
C69 C 0.13091 0.93236 0.86321 0.0
N70 N 0.08701 0.86037 0.87787 0.0
N71 N 0.08475 0.94293 0.85472 0.0
H72 H 1.02054 0.89302 0.85816 0.0
H73 H 0.16496 0.86052 0.88428 0.0
C74 C 0.14193 0.82708 0.94448 0.0
O75 O 0.11872 0.87373 0.94661 0.0
N76 N 0.05687 0.7144 0.90773 0.0
C77 C 1.01249 0.69108 0.90829 0.0
C78 C 1.01455 0.64537 0.92708 0.0
C79 C 0.08553 0.68192 0.92526 0.0
N80 N 0.0604 0.64019 0.93814 0.0
C81 C 0.97943 0.83138 0.91368 0.0
C82 C 0.98901 0.79932 0.97616 0.0
C83 C 0.94282 0.81461 0.9654 0.0
C84 C 0.93875 0.8328 0.93394 0.0
C85 C 1.02853 0.79847 0.95528 0.0
N86 N 1.02364 0.8134 0.92416 0.0
H87 H 0.97396 0.83978 0.88888 0.0
H88 H 0.0616 0.78006 0.96373 0.0
H89 H 0.98002 0.7087 0.8981 0.0
H90 H 0.12323 0.69039 0.93008 0.0
O91 O 1.02939 0.77369 0.85713 0.0
O92 O 0.10829 0.75614 0.85862 0.0
O93 O 0.12736 0.79067 0.92495 0.0
C94 C 0.06728 0.75191 0.84348 0.0
H95 H 0.16176 0.9588 0.85869 0.0
H96 H 0.98361 0.62111 0.93447 0.0
H97 H 0.99416 0.785 1.00021 0.0
H98 H 0.90368 0.84409 0.92431 0.0
Co99 Co 0.55499 0.25169 0.3914 0.0
C100 C 0.55379 0.14364 0.35649 0.0
C101 C 0.58007 0.13682 0.40407 0.0
C102 C 0.58058 0.08609 0.39062 0.0
N103 N 0.56345 0.17356 0.38291 0.0
N104 N 0.56382 0.08978 0.36072 0.0
H105 H 0.53928 0.16063 0.33483 0.0
H106 H 0.59221 0.14578 0.42777 0.0
C107 C 0.49367 0.21195 0.4488 0.0
O108 O 0.53048 0.1872 0.46231 0.0
N109 N 0.54604 0.32829 0.39987 0.0
C110 C 0.5796 0.36802 0.39687 0.0
C111 C 0.56198 0.41432 0.41121 0.0
C112 C 0.50812 0.35125 0.41496 0.0
N113 N 0.5174 0.40324 0.42308 0.0
C114 C 0.65133 0.23377 0.41508 0.0
C115 C 0.6388 0.28035 0.47414 0.0
C116 C 0.6857 0.26276 0.46549 0.0
C117 C 0.69132 0.23894 0.43543 0.0
C118 C 0.59966 0.27434 0.45302 0.0
N119 N 0.6059 0.25033 0.42404 0.0
H120 H 0.65702 0.21725 0.39163 0.0
H121 H 0.56458 0.29048 0.45973 0.0
H122 H 0.61592 0.36238 0.38753 0.0
H123 H 0.47608 0.32933 0.4226 0.0
O124 O 0.59598 0.27143 0.35572 0.0
O125 O 0.51607 0.26193 0.35353 0.0
O126 O 0.49898 0.23511 0.42181 0.0
C127 C 0.55602 0.27822 0.33969 0.0
H128 H 0.59351 0.04935 0.40201 0.0
H129 H 0.5827 0.45102 0.41589 0.0
H130 H 0.63231 0.29918 0.49694 0.0
H131 H 0.72675 0.22608 0.42708 0.0
Co132 Co 0.5732 0.75375 0.15295 0.0
C133 C 0.5662 0.6459 0.18805 0.0
C134 C 0.58188 0.63622 0.1387 0.0
C135 C 0.57905 0.58557 0.15224 0.0
N136 N 0.57403 0.6747 0.16087 0.0
N137 N 0.56882 0.59103 0.18332 0.0
H138 H 0.55793 0.6645 0.21063 0.0
H139 H 0.58852 0.64346 0.11405 0.0
C140 C 0.6354 0.73443 0.09252 0.0
O141 O 0.59864 0.71418 0.07657 0.0
N142 N 0.57301 0.8318 0.14577 0.0
C143 C 0.53452 0.86517 0.14929 0.0
C144 C 0.54432 0.91323 0.13381 0.0
C145 C 0.60648 0.86097 0.12971 0.0
N146 N 0.5891 0.90994 0.12067 0.0
C147 C 0.4826 0.71483 0.12662 0.0
C148 C 0.4821 0.78286 0.07437 0.0
C149 C 0.44006 0.75221 0.08079 0.0
C150 C 0.44119 0.71697 0.10713 0.0
C151 C 0.52267 0.77901 0.09411 0.0
N152 N 0.52291 0.74561 0.12013 0.0
H153 H 0.48139 0.69009 0.14781 0.0
H154 H 0.55358 0.80448 0.08867 0.0
H155 H 0.49976 0.85323 0.15917 0.0
H156 H 0.64088 0.84473 0.12183 0.0
O157 O 0.53029 0.76588 0.18865 0.0
O158 O 0.61071 0.7678 0.19092 0.0
O159 O 0.6306 0.74697 0.12193 0.0
C160 C 0.56923 0.7778 0.20483 0.0
H161 H 0.58472 0.54753 0.13984 0.0
H162 H 0.51792 0.94489 0.12905 0.0
H163 H 0.48331 0.81171 0.05497 0.0
H164 H 0.41002 0.69199 0.11316 0.0
Co165 Co 0.05468 0.28396 0.65352 0.0
C166 C 0.05087 0.39111 0.68854 0.0
C167 C 0.07836 0.39978 0.64129 0.0
C168 C 0.07734 0.45025 0.65512 0.0
N169 N 0.06194 0.36212 0.66205 0.0
N170 N 0.05985 0.44526 0.68482 0.0
H171 H 1.03607 0.37326 0.70992 0.0
H172 H 0.0913 0.39168 0.61763 0.0
C173 C 0.99268 0.32312 0.59685 0.0
O174 O 1.02936 0.3489 0.58368 0.0
N175 N 0.04673 0.2072 0.64518 0.0
C176 C 0.08076 0.16809 0.64805 0.0
C177 C 0.06325 0.1212 0.63427 0.0
C178 C 1.00871 0.18335 0.63069 0.0
N179 N 1.01828 0.13132 0.6229 0.0
C180 C 0.15031 0.30396 0.62899 0.0
C181 C 0.13808 0.25571 0.57039 0.0
C182 C 0.18489 0.27402 0.57879 0.0
C183 C 0.19031 0.2988 0.60858 0.0
C184 C 0.09887 0.26179 0.59156 0.0
N185 N 0.10499 0.28647 0.62036 0.0
H186 H 0.15598 0.32103 0.65231 0.0
H187 H 0.06391 0.24499 0.5851 0.0
H188 H 0.11717 0.17447 0.65701 0.0
H189 H 0.97624 0.20458 0.62334 0.0
O190 O 0.09688 0.26543 0.68849 0.0
O191 O 1.01695 0.27285 0.69212 0.0
O192 O 0.99799 0.29935 0.62364 0.0
C193 C 0.05774 0.25803 0.70535 0.0
H194 H 0.08972 0.4877 0.64418 0.0
H195 H 0.08415 0.08466 0.62969 0.0
H196 H 0.13174 0.23615 0.54779 0.0
H197 H 0.22566 0.31229 0.61675 0.0
Co198 Co 0.53965 0.26033 0.89587 0.0
C199 C 0.53927 0.36575 0.85941 0.0
C200 C 0.57337 0.37286 0.9049 0.0
C201 C 0.57324 0.42328 0.8908 0.0
N202 N 0.55222 0.33644 0.88534 0.0
N203 N 0.55169 0.41912 0.86224 0.0
H204 H 0.52004 0.34893 0.83931 0.0
H205 H 0.58724 0.36413 0.92828 0.0
C206 C 0.59173 0.24036 0.95894 0.0
O207 O 0.5542 0.21211 0.96923 0.0
N208 N 0.52751 0.18466 0.90608 0.0
C209 C 0.48483 0.15815 0.90876 0.0
C210 C 0.49373 0.1068 0.92028 0.0
C211 C 0.56177 0.14787 0.91376 0.0
N212 N 0.54227 0.10062 0.92433 0.0
C213 C 0.43822 0.27941 0.90912 0.0
C214 C 0.44704 0.30763 0.97215 0.0
C215 C 0.40049 0.29775 0.9599 0.0
C216 C 0.39626 0.28578 0.92765 0.0
C217 C 0.48814 0.30196 0.95252 0.0
N218 N 0.48373 0.28346 0.92205 0.0
H219 H 0.43372 0.26799 0.88463 0.0
H220 H 0.52319 0.31186 0.96228 0.0
H221 H 0.44938 0.17498 0.90408 0.0
H222 H 0.6001 0.15769 0.91394 0.0
O223 O 0.50668 0.24774 0.85568 0.0
O224 O 0.58515 0.23551 0.86381 0.0
O225 O 0.58948 0.26485 0.93204 0.0
C226 C 0.54811 0.22977 0.84496 0.0
H227 H 0.58805 0.4603 0.90089 0.0
H228 H 0.46579 0.07837 0.92758 0.0
H229 H 0.45164 0.31916 0.99673 0.0
H230 H 0.36082 0.27916 0.9171 0.0
Co231 Co 1.02679 0.76254 0.39688 0.0
C232 C 1.03642 0.64993 0.36859 0.0
C233 C 0.96262 0.67653 0.37442 0.0
C234 C 0.9623 0.62813 0.35807 0.0
N235 N 1.00893 0.69038 0.38135 0.0
N236 N 1.00855 0.61133 0.35446 0.0
H237 H 0.07565 0.65022 0.36758 0.0
H238 H 0.93121 0.7016 0.37947 0.0
C239 C 0.95639 0.71964 0.44757 0.0
O240 O 0.97246 0.66961 0.44405 0.0
N241 N 0.04359 0.83449 0.41117 0.0
C242 C 0.0861 0.86068 0.40658 0.0
C243 C 0.08356 0.91058 0.42126 0.0
C244 C 1.01566 0.86867 0.42807 0.0
N245 N 1.03932 0.91532 0.43502 0.0
C246 C 0.12207 0.72087 0.41184 0.0
C247 C 0.11707 0.74334 0.47591 0.0
C248 C 0.16288 0.73165 0.46279 0.0
C249 C 0.16452 0.71854 0.43035 0.0
C250 C 0.07559 0.74496 0.45667 0.0
N251 N 0.07819 0.73478 0.42481 0.0
H252 H 0.12555 0.71588 0.38654 0.0
H253 H 0.04254 0.75993 0.46726 0.0
H254 H 0.1171 0.84419 0.39403 0.0
H255 H 0.97947 0.85871 0.43618 0.0
O256 O 0.0644 0.77655 0.35859 0.0
O257 O 0.98632 0.79532 0.36466 0.0
O258 O 0.97492 0.75862 0.43138 0.0
C259 C 1.02523 0.79918 0.34724 0.0
H260 H 0.93063 0.60785 0.34836 0.0
H261 H 0.11264 0.94029 0.42233 0.0
H262 H 0.11351 0.75524 0.50049 0.0
H263 H 0.19871 0.70882 0.41892 0.0
C264 C 0.32246 0.33973 0.97906 0.0
C265 C 0.35658 0.29749 0.98063 0.0
C266 C 0.27948 0.33829 0.99738 0.0
C267 C 0.26992 0.29301 1.01748 0.0
C268 C 0.30443 0.25008 1.01888 0.0
C269 C 0.34747 0.25313 1.00072 0.0
C270 C 0.24519 0.38612 0.99567 0.0
C271 C 0.29541 0.20028 0.03909 0.0
C272 C 0.1802 0.30273 0.08685 0.0
C273 C 0.13715 0.28243 0.07347 0.0
C274 C 0.22314 0.30784 0.06872 0.0
C275 C 0.22383 0.28997 0.03676 0.0
C276 C 0.18047 0.26856 1.02336 0.0
C277 C 0.13746 0.26622 0.04163 0.0
C278 C 0.26748 0.33361 0.08354 0.0
C279 C 0.17949 0.24828 0.98963 0.0
H280 H 0.32952 0.37406 0.96352 0.0
H281 H 0.37363 0.22012 1.00164 0.0
H282 H 0.2066 0.37288 0.99629 0.0
H283 H 0.2517 0.41271 1.01648 0.0
H284 H 0.25122 0.41083 0.97394 0.0
H285 H 0.32515 0.16986 0.03703 0.0
H286 H 0.29179 0.21223 0.06432 0.0
H287 H 0.26067 0.18066 0.03202 0.0
H288 H 0.17979 0.31646 0.11125 0.0
H289 H 0.10412 0.25095 0.03116 0.0
H290 H 0.27875 0.36971 0.06944 0.0
H291 H 0.2983 0.30449 0.08332 0.0
H292 H 0.26078 0.3467 0.10836 0.0
H293 H 0.18756 0.28241 0.97316 0.0
H294 H 0.14371 0.23036 0.98316 0.0
H295 H 0.20812 0.21698 0.98612 0.0
C296 C 0.41088 0.744 0.56731 0.0
C297 C 0.41556 0.79553 0.58147 0.0
C298 C 0.37198 0.73183 0.54674 0.0
C299 C 0.33581 0.77165 0.54067 0.0
C300 C 0.34061 0.82397 0.55469 0.0
C301 C 0.38059 0.83543 0.57457 0.0
C302 C 0.36944 0.67596 0.5319 0.0
C303 C 0.30287 0.8676 0.54923 0.0
C304 C 0.25136 0.75945 0.46883 0.0
C305 C 0.20852 0.73789 0.48226 0.0
C306 C 0.2932 0.76944 0.48731 0.0
C307 C 0.29247 0.75841 0.52029 0.0
C308 C 0.2498 0.73574 0.53391 0.0
C309 C 0.2087 0.7255 0.51483 0.0
C310 C 0.33805 0.79265 0.47158 0.0
C311 C 0.24723 0.72317 0.56889 0.0
H312 H 0.43801 0.7131 0.57206 0.0
H313 H 0.38372 0.87528 0.58546 0.0
H314 H 0.36051 0.67889 0.50633 0.0
H315 H 0.40424 0.65345 0.53447 0.0
H316 H 0.34017 0.65193 0.54349 0.0
H317 H 0.31199 0.90631 0.56152 0.0
H318 H 0.29928 0.87597 0.52351 0.0
H319 H 0.26687 0.8532 0.55781 0.0
H320 H 0.25194 0.77015 0.44394 0.0
H321 H 0.17645 0.70797 0.52558 0.0
H322 H 0.37 0.76648 0.47668 0.0
H323 H 0.34602 0.83366 0.48135 0.0
H324 H 0.33387 0.79621 0.44549 0.0
H325 H 0.2762 0.69379 0.57537 0.0
H326 H 0.21147 0.70577 0.57596 0.0
H327 H 0.25369 0.7609 0.58277 0.0
C328 C 0.39881 0.77188 0.02847 0.0
C329 C 0.3951 0.75943 0.06094 0.0
C330 C 0.3574 0.78315 1.01004 0.0
C331 C 0.31055 0.78069 0.024 0.0
C332 C 0.3062 0.76652 0.05645 0.0
C333 C 0.34837 0.75662 0.07454 0.0
C334 C 0.3639 0.79829 0.9756 0.0
C335 C 0.25692 0.76216 0.07212 0.0
C336 C 0.20648 0.85687 0.98333 0.0
C337 C 0.18458 0.81545 0.96535 0.0
C338 C 0.24728 0.84617 1.00259 0.0
C339 C 0.26622 0.7925 1.0045 0.0
C340 C 0.24365 0.75037 0.98692 0.0
C341 C 0.20381 0.76251 0.96729 0.0
C342 C 0.27064 0.89252 1.02052 0.0
C343 C 0.26187 0.69238 0.98853 0.0
H344 H 0.43429 0.77298 1.01727 0.0
H345 H 0.34459 0.74788 0.09958 0.0
H346 H 0.34505 0.76815 0.96034 0.0
H347 H 0.34712 0.83862 0.97094 0.0
H348 H 0.40282 0.80006 0.9685 0.0
H349 H 0.2595 0.74907 0.09727 0.0
H350 H 0.23816 0.80212 0.07119 0.0
H351 H 0.23387 0.73249 0.05914 0.0
H352 H 0.19225 0.89798 0.98198 0.0
H353 H 0.1878 0.73015 0.95346 0.0
H354 H 0.30908 0.89731 1.01287 0.0
H355 H 0.27098 0.88333 0.04625 0.0
H356 H 0.25145 0.93181 1.01677 0.0
H357 H 0.29834 0.68979 0.97734 0.0
H358 H 0.23713 0.6634 0.97628 0.0
H359 H 0.26582 0.67926 1.01356 0.0
C360 C 0.44247 0.2016 0.49823 0.0
C361 C 0.44661 0.21828 0.46647 0.0
C362 C 0.39939 0.21029 0.51576 0.0
C363 C 0.35898 0.23617 0.50133 0.0
C364 C 0.3627 0.25256 0.46918 0.0
C365 C 0.40625 0.24349 0.45223 0.0
C366 C 0.39742 0.19245 0.54997 0.0
C367 C 0.32082 0.28051 0.4528 0.0
C368 C 0.23363 0.21716 0.53992 0.0
C369 C 0.22826 0.26546 0.5575 0.0
C370 C 0.27543 0.20748 0.52126 0.0
C371 C 0.31324 0.24688 0.52002 0.0
C372 C 0.30764 0.29615 0.53719 0.0
C373 C 0.2655 0.30476 0.55562 0.0
C374 C 0.27952 0.1545 0.50331 0.0
C375 C 0.34683 0.33933 0.5369 0.0
H376 H 0.47327 0.18242 0.50969 0.0
H377 H 0.40873 0.25666 0.42776 0.0
H378 H 0.3916 0.22841 0.56543 0.0
H379 H 0.36622 0.16441 0.55375 0.0
H380 H 0.4313 0.17156 0.55754 0.0
H381 H 0.32882 0.28946 0.42751 0.0
H382 H 0.28774 0.25461 0.4541 0.0
H383 H 0.31236 0.31937 0.46504 0.0
H384 H 0.2057 0.18603 0.54137 0.0
H385 H 0.26178 0.34258 0.56864 0.0
H386 H 0.31112 0.13094 0.51219 0.0
H387 H 0.28606 0.16273 0.4778 0.0
H388 H 0.2463 0.12893 0.50566 0.0
H389 H 0.37848 0.32454 0.55071 0.0
H390 H 0.33426 0.37826 0.54754 0.0
H391 H 0.35961 0.34748 0.5124 0.0
C392 C 0.72042 0.77418 0.09019 0.0
C393 C 0.68185 0.74664 0.0753 0.0
C394 C 0.76313 0.78825 0.07341 0.0
C395 C 0.76786 0.77414 0.04096 0.0
C396 C 0.72906 0.74644 0.02584 0.0
C397 C 0.68674 0.73319 0.04307 0.0
C398 C 0.80315 0.81863 0.09034 0.0
C399 C 0.73223 0.7307 0.99132 0.0
C400 C 0.86099 0.84445 0.98682 0.0
C401 C 0.89882 0.80613 0.9859 0.0
C402 C 0.81892 0.83553 1.00535 0.0
C403 C 0.81388 0.78655 1.023 0.0
C404 C 0.85218 0.74796 1.02234 0.0
C405 C 0.89399 0.75822 1.00395 0.0
C406 C 0.77935 0.878 1.00509 0.0
C407 C 0.84853 0.69502 0.04047 0.0
H408 H 0.71712 0.78532 0.11494 0.0
H409 H 0.65726 0.71232 0.03109 0.0
H410 H 0.83715 0.79431 0.08989 0.0
H411 H 0.81081 0.85761 0.07792 0.0
H412 H 0.79367 0.82766 0.11539 0.0
H413 H 0.69918 0.70884 0.98305 0.0
H414 H 0.73724 0.76773 0.97657 0.0
H415 H 0.76433 0.70418 0.98734 0.0
H416 H 0.8643 0.88163 0.97309 0.0
H417 H 0.92247 0.72775 1.00302 0.0
H418 H 0.76303 0.88312 0.02896 0.0
H419 H 0.75022 0.86461 0.98868 0.0
H420 H 0.79304 0.91819 0.99679 0.0
H421 H 0.84129 0.70327 0.06589 0.0
H422 H 0.88218 0.6702 0.03854 0.0
H423 H 0.81752 0.67065 0.03135 0.0
C424 C 0.90562 0.29033 0.59285 0.0
C425 C 0.94589 0.31667 0.57902 0.0
C426 C 0.86228 0.28144 0.57571 0.0
C427 C 0.85876 0.29908 0.54379 0.0
C428 C 0.89911 0.32603 0.52977 0.0
C429 C 0.94193 0.33457 0.54749 0.0
C430 C 0.8204 0.25244 0.59165 0.0
C431 C 0.89732 0.34521 0.4958 0.0
C432 C 0.76622 0.23187 0.48835 0.0
C433 C 0.72888 0.27094 0.48688 0.0
C434 C 0.80809 0.2401 0.50702 0.0
C435 C 0.81326 0.2887 0.52488 0.0
C436 C 0.77536 0.32784 0.52404 0.0
C437 C 0.73386 0.31859 0.50511 0.0
C438 C 0.84743 0.19723 0.5069 0.0
C439 C 0.779 0.3801 0.54275 0.0
H440 H 0.90798 0.27622 0.61713 0.0
H441 H 0.97268 0.35464 0.53635 0.0
H442 H 0.78722 0.27809 0.59067 0.0
H443 H 0.81218 0.21401 0.57887 0.0
H444 H 0.82825 0.24253 0.61682 0.0
H445 H 0.93125 0.36653 0.48851 0.0
H446 H 0.89157 0.30987 0.47985 0.0
H447 H 0.86616 0.37329 0.49241 0.0
H448 H 0.76277 0.19452 0.47485 0.0
H449 H 0.70584 0.34955 0.50399 0.0
H450 H 0.85911 0.18751 0.53141 0.0
H451 H 0.87965 0.21319 0.49402 0.0
H452 H 0.83548 0.15896 0.49517 0.0
H453 H 0.78535 0.37087 0.56814 0.0
H454 H 0.74567 0.40542 0.54069 0.0
H455 H 0.81056 0.40434 0.53426 0.0
C456 C 0.82402 0.27696 0.0731 0.0
C457 C 0.85731 0.23361 0.07099 0.0
C458 C 0.78183 0.27876 0.05424 0.0
C459 C 0.77221 0.23629 0.03239 0.0
C460 C 0.80609 0.19288 0.02962 0.0
C461 C 0.84806 0.19204 0.04891 0.0
C462 C 0.7472 0.32606 0.05797 0.0
C463 C 0.79742 0.14615 1.00711 0.0
C464 C 0.63973 0.2145 1.00751 0.0
C465 C 0.63774 0.24082 0.97792 0.0
C466 C 0.68311 0.21242 0.02524 0.0
C467 C 0.72609 0.23689 1.0132 0.0
C468 C 0.72447 0.26323 0.98328 0.0
C469 C 0.68045 0.26504 0.9661 0.0
C470 C 0.68288 0.18429 0.05707 0.0
C471 C 0.76946 0.2892 0.9693 0.0
H472 H 0.83108 0.30997 0.08952 0.0
H473 H 0.87305 0.15805 0.04719 0.0
H474 H 0.74226 0.34697 0.03488 0.0
H475 H 0.71094 0.31093 0.06558 0.0
H476 H 0.76021 0.35634 0.0756 0.0
H477 H 0.8314 0.12313 1.00223 0.0
H478 H 0.77076 0.11767 1.01791 0.0
H479 H 0.78212 0.16059 0.98429 0.0
H480 H 0.60724 0.19531 1.01693 0.0
H481 H 0.67969 0.28502 0.9432 0.0
H482 H 0.64689 0.16622 0.0629 0.0
H483 H 0.69267 0.21383 0.07591 0.0
H484 H 0.71066 0.15154 0.05743 0.0
H485 H 0.78327 0.3214 0.98541 0.0
H486 H 0.76253 0.30759 0.94568 0.0
H487 H 0.79861 0.25821 0.96689 0.0
C488 C 0.70869 0.80212 0.53644 0.0
C489 C 0.70833 0.79007 0.56905 0.0
C490 C 0.74989 0.79179 0.51739 0.0
C491 C 0.79249 0.76946 0.5311 0.0
C492 C 0.79306 0.75886 0.56412 0.0
C493 C 0.75112 0.76885 0.58256 0.0
C494 C 0.74745 0.80384 0.48235 0.0
C495 C 0.83785 0.73607 0.57995 0.0
C496 C 0.88077 0.69161 0.4773 0.0
C497 C 0.91583 0.73144 0.47014 0.0
C498 C 0.84068 0.70339 0.49708 0.0
C499 C 0.83588 0.75596 0.51076 0.0
C500 C 0.87213 0.79575 0.50442 0.0
C501 C 0.91114 0.78327 0.48394 0.0
C502 C 0.80284 0.65979 0.50281 0.0
C503 C 0.86957 0.8519 0.51891 0.0
H504 H 0.67651 0.81942 0.52561 0.0
H505 H 0.75158 0.75839 0.60749 0.0
H506 H 0.77649 0.83317 0.4757 0.0
H507 H 0.7539 0.76592 0.46867 0.0
H508 H 0.71175 0.82107 0.47522 0.0
H509 H 0.83362 0.73306 0.60607 0.0
H510 H 0.84576 0.69486 0.57046 0.0
H511 H 0.86986 0.76217 0.57462 0.0
H512 H 0.88391 0.65156 0.46668 0.0
H513 H 0.93832 0.81413 0.47898 0.0
H514 H 0.7669 0.67401 0.4942 0.0
H515 H 0.79916 0.65181 0.52857 0.0
H516 H 0.81192 0.62091 0.49071 0.0
H517 H 0.84017 0.87552 0.50733 0.0
H518 H 0.90431 0.8746 0.51602 0.0
H519 H 0.86081 0.84938 0.54454 0.0
C520 C 1.01263 0.33761 0.25604 0.0
C521 C 0.05259 0.3323 0.23554 0.0
C522 C 1.01027 0.38023 0.27838 0.0
C523 C 0.04831 0.41932 0.27992 0.0
C524 C 0.08997 0.4123 0.26051 0.0
C525 C 0.09178 0.36872 0.23881 0.0
C526 C 0.96561 0.38524 0.29903 0.0
C527 C 0.13112 0.45312 0.2609 0.0
C528 C 1.00795 0.56222 0.30371 0.0
C529 C 1.02366 0.56582 0.3352 0.0
C530 C 1.01726 0.51564 0.28529 0.0
C531 C 0.04183 0.47058 0.29891 0.0
C532 C 0.05854 0.4744 0.33066 0.0
C533 C 0.04968 0.52228 0.34833 0.0
C534 C 0.99976 0.51427 0.2514 0.0
C535 C 0.08406 0.42716 0.34632 0.0
H536 H 0.98215 0.30979 0.25372 0.0
H537 H 0.12268 0.36543 0.22293 0.0
H538 H 0.97615 0.39307 0.32399 0.0
H539 H 0.94346 0.42037 0.29098 0.0
H540 H 0.94259 0.348 0.29819 0.0
H541 H 0.16333 0.43857 0.24742 0.0
H542 H 0.11856 0.49194 0.25018 0.0
H543 H 0.1424 0.46216 0.28556 0.0
H544 H 0.98777 0.59595 0.29366 0.0
H545 H 0.06118 0.52488 0.37283 0.0
H546 H 0.9715 0.48229 0.24867 0.0
H547 H 1.03027 0.50371 0.23528 0.0
H548 H 0.98415 0.55389 0.24375 0.0
H549 H 0.05869 0.39205 0.34814 0.0
H550 H 0.09723 0.43754 0.37045 0.0
H551 H 0.11547 0.41378 0.33175 0.0
C552 C 0.57202 0.67101 0.74372 0.0
C553 C 0.52715 0.68717 0.73099 0.0
C554 C 0.57502 0.62787 0.76568 0.0
C555 C 0.53212 0.60023 0.77534 0.0
C556 C 0.48655 0.61778 0.76349 0.0
C557 C 0.48463 0.66083 0.74146 0.0
C558 C 0.62435 0.61071 0.77777 0.0
C559 C 0.43985 0.59 0.77336 0.0
C560 C 0.54442 0.45492 0.80739 0.0
C561 C 0.54368 0.46356 0.84023 0.0
C562 C 0.54034 0.49889 0.78599 0.0
C563 C 0.53498 0.5528 0.79767 0.0
C564 C 0.53292 0.56148 0.83079 0.0
C565 C 0.53732 0.51696 0.85156 0.0
C566 C 0.54277 0.48779 0.75086 0.0
C567 C 0.52665 0.61799 0.84436 0.0
H568 H 0.60513 0.69064 0.73558 0.0
H569 H 0.44979 0.67278 0.73169 0.0
H570 H 0.62482 0.61164 0.80404 0.0
H571 H 0.6319 0.56814 0.77042 0.0
H572 H 0.65406 0.63732 0.76875 0.0
H573 H 0.40722 0.61011 0.7632 0.0
H574 H 0.44033 0.54686 0.7655 0.0
H575 H 0.43651 0.58985 0.79955 0.0
H576 H 0.54964 0.41398 0.79843 0.0
H577 H 0.53574 0.52402 0.87686 0.0
H578 H 0.57452 0.50932 0.74041 0.0
H579 H 0.50972 0.50381 0.73903 0.0
H580 H 0.54599 0.44361 0.74552 0.0
H581 H 0.55766 0.64421 0.83709 0.0
H582 H 0.52449 0.61776 0.87064 0.0
H583 H 0.49307 0.63692 0.83486 0.0
C584 C 0.04786 0.54329 0.69639 0.0
C585 C 0.05398 0.48953 0.70729 0.0
C586 C 0.04715 0.58778 0.71732 0.0
C587 C 0.05201 0.57873 0.75027 0.0
C588 C 0.05604 0.52446 0.76167 0.0
C589 C 0.05707 0.48055 0.74008 0.0
C590 C 0.04273 0.64473 0.70402 0.0
C591 C 0.06075 0.5129 0.79665 0.0
C592 C 0.10435 0.69226 0.8018 0.0
C593 C 0.06255 0.71379 0.81624 0.0
C594 C 0.10129 0.64906 0.77998 0.0
C595 C 0.05531 0.62621 0.77251 0.0
C596 C 1.01281 0.64889 0.78625 0.0
C597 C 1.01691 0.6925 0.80781 0.0
C598 C 0.14751 0.62687 0.76556 0.0
C599 C 0.9631 0.62579 0.77905 0.0
H600 H 0.04413 0.55085 0.67124 0.0
H601 H 0.06192 0.43942 0.74882 0.0
H602 H 1.01187 0.66638 0.71536 0.0
H603 H 0.07623 0.66826 0.7094 0.0
H604 H 1.03714 0.64481 0.67796 0.0
H605 H 0.06004 0.46854 0.80193 0.0
H606 H 0.09548 0.53013 0.80556 0.0
H607 H 1.03082 0.53294 0.8099 0.0
H608 H 0.13979 0.7082 0.80825 0.0
H609 H 0.98443 0.70826 0.81915 0.0
H610 H 0.14506 0.62775 0.73932 0.0
H611 H 0.15241 0.58371 0.77272 0.0
H612 H 0.1802 0.65032 0.77291 0.0
H613 H 0.95673 0.62543 0.75311 0.0
H614 H 0.93348 0.64933 0.7906 0.0
H615 H 0.96107 0.58292 0.78736 0.0
C616 C 0.51166 0.34433 0.30464 0.0
C617 C 0.55489 0.31683 0.31233 0.0
C618 C 0.5117 0.38934 0.28383 0.0
C619 C 0.55592 0.4071 0.26981 0.0
C620 C 0.5993 0.37797 0.2764 0.0
C621 C 0.59834 0.33366 0.29771 0.0
C622 C 0.46464 0.41923 0.27781 0.0
C623 C 0.64709 0.39447 0.26152 0.0
C624 C 0.55101 0.49358 0.19463 0.0
C625 C 0.56247 0.54627 0.20566 0.0
C626 C 0.54863 0.44844 0.21514 0.0
C627 C 0.55679 0.45559 0.24795 0.0
C628 C 0.56655 0.50882 0.2596 0.0
C629 C 0.56948 0.55339 0.23837 0.0
C630 C 0.53825 0.39272 0.20148 0.0
C631 C 0.57467 0.51855 0.29449 0.0
H632 H 0.47799 0.33248 0.31618 0.0
H633 H 0.63201 0.31315 0.30367 0.0
H634 H 0.4678 0.46181 0.28644 0.0
H635 H 0.45717 0.42121 0.25202 0.0
H636 H 0.43314 0.39957 0.28978 0.0
H637 H 0.67715 0.36636 0.26794 0.0
H638 H 0.64359 0.39534 0.23533 0.0
H639 H 0.65702 0.43623 0.26925 0.0
H640 H 0.54398 0.4872 0.16971 0.0
H641 H 0.57836 0.59351 0.24735 0.0
H642 H 0.50532 0.37501 0.21274 0.0
H643 H 0.56901 0.36487 0.20665 0.0
H644 H 0.53259 0.39388 0.17544 0.0
H645 H 0.54347 0.50239 0.30835 0.0
H646 H 0.57932 0.56248 0.30009 0.0
H647 H 0.60762 0.49633 0.30239 0.0
C648 C 0.60885 0.83668 0.2462 0.0
C649 C 0.56631 0.81532 0.23258 0.0
C650 C 0.60702 0.88084 0.26754 0.0
C651 C 0.5616 0.90467 0.27543 0.0
C652 C 0.51841 0.88187 0.26274 0.0
C653 C 0.52127 0.8375 0.24165 0.0
C654 C 0.65395 0.90315 0.28085 0.0
C655 C 0.46919 0.90571 0.27048 0.0
C656 C 0.55422 0.99089 0.35043 0.0
C657 C 0.5593 0.0444 0.33879 0.0
C658 C 0.55459 0.94546 0.33017 0.0
C659 C 0.55931 0.95315 0.29709 0.0
C660 C 0.56258 1.00705 0.28493 0.0
C661 C 0.56264 0.05198 0.30588 0.0
C662 C 0.55091 0.88901 0.34431 0.0
C663 C 0.56702 0.01718 0.24978 0.0
H664 H 0.64387 0.82032 0.23922 0.0
H665 H 0.48814 0.82186 0.23109 0.0
H666 H 0.65921 0.9458 0.27276 0.0
H667 H 0.65227 0.90385 0.30711 0.0
H668 H 0.68607 0.87881 0.27347 0.0
H669 H 0.43893 0.88204 0.25973 0.0
H670 H 0.4637 0.90707 0.2965 0.0
H671 H 0.46732 0.94828 0.26167 0.0
H672 H 0.55025 0.98424 0.37565 0.0
H673 H 0.5667 0.09286 0.29655 0.0
H674 H 0.58405 0.8653 0.33838 0.0
H675 H 0.51941 0.86692 0.33405 0.0
H676 H 0.54674 0.88989 0.37049 0.0
H677 H 0.60132 0.99903 0.24079 0.0
H678 H 0.56688 0.06132 0.2439 0.0
H679 H 0.53658 0.99707 0.23706 0.0
C680 C 0.05004 0.98647 0.80707 0.0
C681 C 0.06933 0.99085 0.83765 0.0
C682 C 0.04396 0.03305 0.78782 0.0
C683 C 0.0564 0.0854 0.79975 0.0
C684 C 0.07288 0.09005 0.83144 0.0
C685 C 0.07994 0.04272 0.84974 0.0
C686 C 1.02724 0.02579 0.75405 0.0
C687 C 0.08532 0.14481 0.84557 0.0
C688 C 0.101 0.19102 0.73993 0.0
C689 C 0.05872 0.22114 0.73349 0.0
C690 C 0.10071 0.14746 0.76162 0.0
C691 C 0.05735 0.13411 0.77813 0.0
C692 C 1.01521 0.16634 0.77316 0.0
C693 C 1.0162 0.20898 0.75064 0.0
C694 C 0.14641 0.11405 0.76569 0.0
C695 C 0.96863 0.15469 0.7909 0.0
H696 H 0.04261 0.94628 0.79758 0.0
H697 H 0.09505 0.04595 0.87337 0.0
H698 H 0.99638 0.05344 0.74886 0.0
H699 H 0.05731 0.0368 0.73764 0.0
H700 H 1.01579 0.98322 0.74902 0.0
H701 H 0.09089 0.14238 0.8716 0.0
H702 H 0.1192 0.16065 0.83457 0.0
H703 H 0.05601 0.17467 0.84062 0.0
H704 H 0.134 0.19947 0.7267 0.0
H705 H 0.98324 0.23168 0.74577 0.0
H706 H 0.13928 0.07122 0.75862 0.0
H707 H 0.15753 0.11359 0.79093 0.0
H708 H 0.17723 0.12992 0.75131 0.0
H709 H 0.95331 0.11516 0.78294 0.0
H710 H 0.94087 0.1869 0.78707 0.0
H711 H 0.97591 0.15116 0.81667 0.0
C712 C 0.5483 1.00279 0.70414 0.0
C713 C 0.52184 0.95928 0.7171 0.0
C714 C 0.55686 0.05074 0.72184 0.0
C715 C 0.53942 0.05464 0.75345 0.0
C716 C 0.51435 1.00963 0.7669 0.0
C717 C 0.50534 0.96301 0.74845 0.0
C718 C 0.58291 0.09793 0.70634 0.0
C719 C 0.49609 1.01106 0.80066 0.0
C720 C 0.58935 0.15608 0.8138 0.0
C721 C 0.55045 0.19281 0.81696 0.0
C722 C 0.58742 0.11249 0.79212 0.0
C723 C 0.54597 0.1058 0.77255 0.0
C724 C 0.50823 0.14515 0.774 0.0
C725 C 0.51066 0.18774 0.79638 0.0
C726 C 0.62819 0.07134 0.79189 0.0
C727 C 0.46386 0.14052 0.75315 0.0
H728 H 0.56041 1.00012 0.67974 0.0
H729 H 0.48484 0.9293 0.75839 0.0
H730 H 0.55782 0.1332 0.70453 0.0
H731 H 0.61423 0.11105 0.72104 0.0
H732 H 0.5963 0.08763 0.68223 0.0
H733 H 0.48002 0.97152 0.80818 0.0
H734 H 0.52632 0.02143 0.817 0.0
H735 H 0.46801 0.04319 0.80321 0.0
H736 H 0.62011 0.15917 0.82975 0.0
H737 H 0.48042 0.2158 0.7986 0.0
H738 H 0.63994 0.06247 0.76728 0.0
H739 H 0.61502 0.0325 0.80237 0.0
H740 H 0.66023 0.08548 0.80566 0.0
H741 H 0.47472 0.13267 0.72824 0.0
H742 H 0.44116 0.17793 0.75393 0.0
H743 H 0.44126 0.10554 0.76108 0.0
C744 C 0.04295 0.07026 0.24411 0.0
C745 C 0.04259 0.06195 0.21124 0.0
C746 C 1.03888 0.02603 0.26534 0.0
C747 C 1.03388 0.97219 0.25344 0.0
C748 C 1.03207 0.96386 0.22029 0.0
C749 C 1.03648 1.00864 0.1997 0.0
C750 C 1.04102 0.03677 0.30051 0.0
C751 C 1.02617 0.90744 0.20651 0.0
C752 C 0.07168 0.8541 0.30704 0.0
C753 C 1.0269 0.83734 0.31982 0.0
C754 C 0.0744 0.89736 0.28514 0.0
C755 C 1.03131 0.92449 0.27559 0.0
C756 C 0.98584 0.90625 0.28745 0.0
C757 C 0.98421 0.86309 0.30941 0.0
C758 C 0.12362 0.91526 0.27303 0.0
C759 C 0.93896 0.93347 0.27769 0.0
H760 H 0.04798 0.11115 0.25321 0.0
H761 H 1.03523 1.00186 0.17436 0.0
H762 H 1.00806 0.02011 0.31228 0.0
H763 H 0.07292 1.01561 0.31087 0.0
H764 H 0.04382 0.08093 0.30602 0.0
H765 H 1.02393 0.90798 0.18023 0.0
H766 H 0.0574 0.88155 0.21356 0.0
H767 H 0.99276 0.88794 0.21605 0.0
H768 H 0.10492 0.83492 0.31514 0.0
H769 H 0.94943 0.85066 0.31922 0.0
H770 H 0.13088 0.95782 0.28055 0.0
H771 H 0.12412 0.91467 0.24675 0.0
H772 H 0.15349 0.8889 0.28188 0.0
H773 H 0.939 0.97649 0.28577 0.0
H774 H 0.90644 0.91272 0.28773 0.0
H775 H 0.93577 0.93397 0.25149 0.0
C776 C 0.10988 0.62671 0.98635 0.0
C777 C 0.07503 0.60733 0.96472 0.0
C778 C 0.11785 0.60004 1.01525 0.0
C779 C 0.09001 0.55329 1.02268 0.0
C780 C 0.05733 0.53142 1.00006 0.0
C781 C 0.05054 0.55856 0.97126 0.0
C782 C 0.15434 0.62321 0.03835 0.0
C783 C 1.02715 0.48125 1.00704 0.0
C784 C 0.10654 0.45169 0.08829 0.0
C785 C 0.06793 0.46636 0.10845 0.0
C786 C 0.11825 0.4833 0.06174 0.0
C787 C 0.09035 0.53018 0.05508 0.0
C788 C 0.05571 0.54891 0.0774 0.0
C789 C 0.0454 0.51703 0.10411 0.0
C790 C 0.15679 0.46296 0.03921 0.0
C791 C 1.02559 0.59932 0.07139 0.0
H792 H 0.12903 0.66442 0.98166 0.0
H793 H 1.02446 0.54287 0.95433 0.0
H794 H 0.13642 0.63271 0.06125 0.0
H795 H 0.18295 0.5925 0.04325 0.0
H796 H 0.17201 0.66087 0.02926 0.0
H797 H 1.00502 0.46827 0.98636 0.0
H798 H 0.05099 0.44691 1.01409 0.0
H799 H 1.0022 0.48958 0.02717 0.0
H800 H 0.12513 0.41328 0.09144 0.0
H801 H 1.017 0.52984 0.12026 0.0
H802 H 0.17675 0.49721 0.02793 0.0
H803 H 0.13928 0.43878 1.02015 0.0
H804 H 0.18325 0.43618 0.05156 0.0
H805 H 0.04893 0.63363 0.06345 0.0
H806 H 1.00508 0.61225 0.0928 0.0
H807 H 0.99908 0.59084 0.05218 0.0
C808 C 0.55967 0.54431 0.57333 0.0
C809 C 0.52474 0.57278 0.59094 0.0
C810 C 0.5463 0.51301 0.54713 0.0
C811 C 0.49673 0.51041 0.53813 0.0
C812 C 0.46081 0.53599 0.55686 0.0
C813 C 0.47525 0.56663 0.58327 0.0
C814 C 0.58579 0.48544 0.52796 0.0
C815 C 0.40756 0.53282 0.54828 0.0
C816 C 0.49673 0.48799 0.45059 0.0
C817 C 0.49613 0.43108 0.44954 0.0
C818 C 0.49022 0.51541 0.47935 0.0
C819 C 0.48423 0.48473 0.50754 0.0
C820 C 0.47779 0.42767 0.50598 0.0
C821 C 0.48337 0.40146 0.47681 0.0
C822 C 0.49576 0.57663 0.48004 0.0
C823 C 0.47151 0.39357 0.5355 0.0
H824 H 0.59789 0.54872 0.57883 0.0
H825 H 0.44784 0.58712 0.59731 0.0
H826 H 0.57671 0.44187 0.5241 0.0
H827 H 0.58867 0.50508 0.50434 0.0
H828 H 0.62192 0.48781 0.53965 0.0
H829 H 0.40185 0.54849 0.5239 0.0
H830 H 0.39526 0.48977 0.54849 0.0
H831 H 0.38432 0.55645 0.56486 0.0
H832 H 0.5059 0.51067 0.42935 0.0
H833 H 0.48286 0.35732 0.47614 0.0
H834 H 0.53266 0.58722 0.48879 0.0
H835 H 0.46889 0.59521 0.49643 0.0
H836 H 0.49113 0.59487 0.45614 0.0
H837 H 0.50617 0.39296 0.54895 0.0
H838 H 0.46132 0.35082 0.52987 0.0
H839 H 0.44335 0.41138 0.55119 0.0
C840 C 0.53862 0.01787 0.95761 0.0
C841 C 0.56535 0.06197 0.94541 0.0
C842 C 0.55378 0.99057 0.98497 0.0
C843 C 0.59793 1.00612 0.99966 0.0
C844 C 0.62843 0.04506 0.98505 0.0
C845 C 0.61178 0.07269 0.9581 0.0
C846 C 0.52011 0.94889 0.9998 0.0
C847 C 0.67695 0.06045 0.99922 0.0
C848 C 0.58766 0.99314 0.08829 0.0
C849 C 0.60415 0.93978 0.09291 0.0
C850 C 0.58899 0.01716 0.0582 0.0
C851 C 0.60803 0.98722 0.03231 0.0
C852 C 0.62978 0.93592 0.0375 0.0
C853 C 0.62759 0.9127 0.06778 0.0
C854 C 0.56535 0.07215 0.05364 0.0
C855 C 0.65149 0.90352 1.0106 0.0
H856 H 0.50404 1.00694 0.94721 0.0
H857 H 0.63416 0.10499 0.94856 0.0
H858 H 0.54017 0.91112 1.00578 0.0
H859 H 0.50504 0.96548 1.02222 0.0
H860 H 0.48927 0.93807 0.98401 0.0
H861 H 0.6717 0.07677 1.02347 0.0
H862 H 0.70024 0.02375 1.00132 0.0
H863 H 0.69644 0.09152 0.98482 0.0
H864 H 0.57047 1.01455 0.10775 0.0
H865 H 0.64067 0.87148 0.07086 0.0
H866 H 0.52973 0.06658 0.04169 0.0
H867 H 0.58801 0.09866 0.03827 0.0
H868 H 0.55906 0.09339 0.07651 0.0
H869 H 0.62246 0.89083 0.99393 0.0
H870 H 0.67042 0.8663 1.01909 0.0
H871 H 0.67752 0.92912 0.99705 0.0
C872 C 0.05856 0.98583 0.47447 0.0
C873 C 1.02386 0.95567 0.45764 0.0
C874 C 0.04507 0.01809 0.50024 0.0
C875 C 0.99559 0.01996 0.50961 0.0
C876 C 0.95981 0.99276 0.49157 0.0
C877 C 0.97437 0.96119 0.46556 0.0
C878 C 0.0844 0.04741 0.51864 0.0
C879 C 0.90664 0.99514 0.50053 0.0
C880 C 0.99738 0.04534 0.59678 0.0
C881 C 0.99637 0.10226 0.59715 0.0
C882 C 0.99025 0.01681 0.56846 0.0
C883 C 0.98322 0.04641 0.54 0.0
C884 C 0.97624 0.10341 0.54098 0.0
C885 C 0.98246 0.13073 0.56975 0.0
C886 C 0.9964 0.95568 0.56841 0.0
C887 C 0.96871 0.13631 0.51116 0.0
H888 H 0.09678 0.98199 0.46875 0.0
H889 H 0.94708 0.93944 0.45208 0.0
H890 H 0.07472 0.09092 0.52193 0.0
H891 H 0.08795 0.02889 0.54252 0.0
H892 H 0.12039 0.04535 0.50667 0.0
H893 H 0.88353 0.97035 0.48445 0.0
H894 H 0.90146 0.98035 0.52516 0.0
H895 H 0.89374 0.03791 0.49982 0.0
H896 H 1.00741 0.02356 0.61814 0.0
H897 H 0.98156 0.17487 0.56993 0.0
H898 H 1.03323 0.9454 0.55939 0.0
H899 H 0.9694 0.93608 0.55255 0.0
H900 H 0.99246 0.9382 0.59257 0.0
H901 H 1.00257 0.13598 0.49679 0.0
H902 H 0.95926 0.17939 0.51641 0.0
H903 H 0.93948 0.11809 0.49651 0.0
loop_
_geom_bond_atom_site_label_1
_geom_bond_atom_site_label_2
_geom_bond_distance
_geom_bond_site_symmetry_2
_ccdc_geom_bond_type
Co0 N4 2.148 . S
Co0 N10 2.128 . S
Co0 N20 2.194 1_455 S
Co0 O25 2.351 1_455 S
Co0 O26 2.155 . S
Co0 O27 2.096 . S
C1 N4 1.301 . S
C1 N5 1.328 . S
C1 H6 0.930 1_455 S
C2 C3 1.333 . S
C2 N4 1.317 . S
C2 H7 0.930 . S
C3 C2 1.333 . S
C3 N5 1.350 . S
C3 H29 0.931 . S
N4 Co0 2.148 . S
N4 C1 1.301 . S
N4 C2 1.317 . S
N5 C1 1.328 . S
N5 C3 1.350 . S
H6 C1 0.930 1_655 S
H7 C2 0.930 . S
C8 O9 1.224 . S
C8 O27 1.247 . S
O9 C8 1.224 . S
N10 Co0 2.128 . S
N10 C11 1.355 1_455 S
N10 C13 1.311 . S
C11 N10 1.355 1_655 S
C11 C12 1.363 . S
C11 H23 0.929 . S
C12 C11 1.363 . S
C12 N14 1.375 1_655 S
C12 H30 0.931 . S
C13 N10 1.311 . S
C13 N14 1.347 . S
C13 H24 0.929 . S
N14 C12 1.375 1_455 S
N14 C13 1.347 . S
C15 C18 1.365 . S
C15 N20 1.328 . S
C15 H21 0.929 . S
C16 C17 1.362 . S
C16 C19 1.378 . S
C16 H31 0.929 . S
C17 C16 1.362 . S
C17 C18 1.366 . S
C18 C15 1.365 . S
C18 C17 1.366 . S
C18 H32 0.930 . S
C19 C16 1.378 . S
C19 N20 1.315 . S
C19 H22 0.930 . S
N20 Co0 2.194 1_655 S
N20 C15 1.328 . S
N20 C19 1.315 . S
H21 C15 0.929 . S
H22 C19 0.930 . S
H23 C11 0.929 . S
H24 C13 0.929 . S
O25 Co0 2.351 1_655 S
O25 C28 1.244 1_655 S
O26 Co0 2.155 . S
O26 C28 1.240 . S
O27 Co0 2.096 . S
O27 C8 1.247 . S
C28 O25 1.244 1_455 S
C28 O26 1.240 . S
H29 C3 0.931 . S
H30 C12 0.931 . S
H31 C16 0.929 . S
H32 C18 0.930 . S
Co33 N37 2.148 . S
Co33 N43 2.128 . S
Co33 N53 2.194 . S
Co33 O58 2.351 . S
Co33 O59 2.155 . S
Co33 O60 2.096 . S
C34 N37 1.301 . S
C34 N38 1.328 . S
C34 H39 0.930 . S
C35 C36 1.333 . S
C35 N37 1.317 . S
C35 H40 0.930 . S
C36 C35 1.333 . S
C36 N38 1.350 . S
C36 H62 0.931 . S
N37 Co33 2.148 . S
N37 C34 1.301 . S
N37 C35 1.317 . S
N38 C34 1.328 . S
N38 C36 1.350 . S
H39 C34 0.930 . S
H40 C35 0.930 . S
C41 O42 1.224 . S
C41 O60 1.247 . S
O42 C41 1.224 . S
N43 Co33 2.128 . S
N43 C44 1.355 . S
N43 C46 1.311 . S
C44 N43 1.355 . S
C44 C45 1.363 . S
C44 H56 0.929 . S
C45 C44 1.363 . S
C45 N47 1.375 . S
C45 H63 0.931 . S
C46 N43 1.311 . S
C46 N47 1.347 . S
C46 H57 0.929 . S
N47 C45 1.375 . S
N47 C46 1.347 . S
C48 C51 1.365 . S
C48 N53 1.328 . S
C48 H54 0.929 . S
C49 C50 1.362 . S
C49 C52 1.378 . S
C49 H64 0.929 . S
C50 C49 1.362 . S
C50 C51 1.366 . S
C51 C48 1.365 . S
C51 C50 1.366 . S
C51 H65 0.930 . S
C52 C49 1.378 . S
C52 N53 1.315 . S
C52 H55 0.930 . S
N53 Co33 2.194 . S
N53 C48 1.328 . S
N53 C52 1.315 . S
H54 C48 0.929 . S
H55 C52 0.930 . S
H56 C44 0.929 . S
H57 C46 0.929 . S
O58 Co33 2.351 . S
O58 C61 1.244 . S
O59 Co33 2.155 . S
O59 C61 1.240 . S
O60 Co33 2.096 . S
O60 C41 1.247 . S
C61 O58 1.244 . S
C61 O59 1.240 . S
H62 C36 0.931 . S
H63 C45 0.931 . S
H64 C49 0.929 . S
H65 C51 0.930 . S
Co66 N70 2.148 . S
Co66 N76 2.128 . S
Co66 N86 2.194 1_455 S
Co66 O91 2.351 1_455 S
Co66 O92 2.155 . S
Co66 O93 2.096 . S
C67 N70 1.301 . S
C67 N71 1.328 . S
C67 H72 0.930 1_455 S
C68 C69 1.333 . S
C68 N70 1.317 . S
C68 H73 0.930 . S
C69 C68 1.333 . S
C69 N71 1.350 . S
C69 H95 0.931 . S
N70 Co66 2.148 . S
N70 C67 1.301 . S
N70 C68 1.317 . S
N71 C67 1.328 . S
N71 C69 1.350 . S
H72 C67 0.930 1_655 S
H73 C68 0.930 . S
C74 O75 1.224 . S
C74 O93 1.247 . S
O75 C74 1.224 . S
N76 Co66 2.128 . S
N76 C77 1.355 1_455 S
N76 C79 1.311 . S
C77 N76 1.355 1_655 S
C77 C78 1.363 . S
C77 H89 0.929 . S
C78 C77 1.363 . S
C78 N80 1.375 1_655 S
C78 H96 0.931 . S
C79 N76 1.311 . S
C79 N80 1.347 . S
C79 H90 0.929 . S
N80 C78 1.375 1_455 S
N80 C79 1.347 . S
C81 C84 1.365 . S
C81 N86 1.328 . S
C81 H87 0.929 . S
C82 C83 1.362 . S
C82 C85 1.378 . S
C82 H97 0.929 . S
C83 C82 1.362 . S
C83 C84 1.366 . S
C84 C81 1.365 . S
C84 C83 1.366 . S
C84 H98 0.930 . S
C85 C82 1.378 . S
C85 N86 1.315 . S
C85 H88 0.930 . S
N86 Co66 2.194 1_655 S
N86 C81 1.328 . S
N86 C85 1.315 . S
H87 C81 0.929 . S
H88 C85 0.930 . S
H89 C77 0.929 . S
H90 C79 0.929 . S
O91 Co66 2.351 1_655 S
O91 C94 1.244 1_655 S
O92 Co66 2.155 . S
O92 C94 1.240 . S
O93 Co66 2.096 . S
O93 C74 1.247 . S
C94 O91 1.244 1_455 S
C94 O92 1.240 . S
H95 C69 0.931 . S
H96 C78 0.931 . S
H97 C82 0.929 . S
H98 C84 0.930 . S
Co99 N103 2.148 . S
Co99 N109 2.128 . S
Co99 N119 2.194 . S
Co99 O124 2.351 . S
Co99 O125 2.155 . S
Co99 O126 2.096 . S
C100 N103 1.301 . S
C100 N104 1.328 . S
C100 H105 0.930 . S
C101 C102 1.333 . S
C101 N103 1.317 . S
C101 H106 0.930 . S
C102 C101 1.333 . S
C102 N104 1.350 . S
C102 H128 0.931 . S
N103 Co99 2.148 . S
N103 C100 1.301 . S
N103 C101 1.317 . S
N104 C100 1.328 . S
N104 C102 1.350 . S
H105 C100 0.930 . S
H106 C101 0.930 . S
C107 O108 1.224 . S
C107 O126 1.247 . S
O108 C107 1.224 . S
N109 Co99 2.128 . S
N109 C110 1.355 . S
N109 C112 1.311 . S
C110 N109 1.355 . S
C110 C111 1.363 . S
C110 H122 0.929 . S
C111 C110 1.363 . S
C111 N113 1.375 . S
C111 H129 0.931 . S
C112 N109 1.311 . S
C112 N113 1.347 . S
C112 H123 0.929 . S
N113 C111 1.375 . S
N113 C112 1.347 . S
C114 C117 1.365 . S
C114 N119 1.328 . S
C114 H120 0.929 . S
C115 C116 1.362 . S
C115 C118 1.378 . S
C115 H130 0.929 . S
C116 C115 1.362 . S
C116 C117 1.366 . S
C117 C114 1.365 . S
C117 C116 1.366 . S
C117 H131 0.930 . S
C118 C115 1.378 . S
C118 N119 1.315 . S
C118 H121 0.930 . S
N119 Co99 2.194 . S
N119 C114 1.328 . S
N119 C118 1.315 . S
H120 C114 0.929 . S
H121 C118 0.930 . S
H122 C110 0.929 . S
H123 C112 0.929 . S
O124 Co99 2.351 . S
O124 C127 1.244 . S
O125 Co99 2.155 . S
O125 C127 1.240 . S
O126 Co99 2.096 . S
O126 C107 1.247 . S
C127 O124 1.244 . S
C127 O125 1.240 . S
H128 C102 0.931 . S
H129 C111 0.931 . S
H130 C115 0.929 . S
H131 C117 0.930 . S
Co132 N136 2.148 . S
Co132 N142 2.128 . S
Co132 N152 2.194 . S
Co132 O157 2.351 . S
Co132 O158 2.155 . S
Co132 O159 2.096 . S
C133 N136 1.301 . S
C133 N137 1.328 . S
C133 H138 0.930 . S
C134 C135 1.333 . S
C134 N136 1.317 . S
C134 H139 0.930 . S
C135 C134 1.333 . S
C135 N137 1.350 . S
C135 H161 0.931 . S
N136 Co132 2.148 . S
N136 C133 1.301 . S
N136 C134 1.317 . S
N137 C133 1.328 . S
N137 C135 1.350 . S
H138 C133 0.930 . S
H139 C134 0.930 . S
C140 O141 1.224 . S
C140 O159 1.247 . S
O141 C140 1.224 . S
N142 Co132 2.128 . S
N142 C143 1.355 . S
N142 C145 1.311 . S
C143 N142 1.355 . S
C143 C144 1.363 . S
C143 H155 0.929 . S
C144 C143 1.363 . S
C144 N146 1.375 . S
C144 H162 0.931 . S
C145 N142 1.311 . S
C145 N146 1.347 . S
C145 H156 0.929 . S
N146 C144 1.375 . S
N146 C145 1.347 . S
C147 C150 1.365 . S
C147 N152 1.328 . S
C147 H153 0.929 . S
C148 C149 1.362 . S
C148 C151 1.378 . S
C148 H163 0.929 . S
C149 C148 1.362 . S
C149 C150 1.366 . S
C150 C147 1.365 . S
C150 C149 1.366 . S
C150 H164 0.930 . S
C151 C148 1.378 . S
C151 N152 1.315 . S
C151 H154 0.930 . S
N152 Co132 2.194 . S
N152 C147 1.328 . S
N152 C151 1.315 . S
H153 C147 0.929 . S
H154 C151 0.930 . S
H155 C143 0.929 . S
H156 C145 0.929 . S
O157 Co132 2.351 . S
O157 C160 1.244 . S
O158 Co132 2.155 . S
O158 C160 1.240 . S
O159 Co132 2.096 . S
O159 C140 1.247 . S
C160 O157 1.244 . S
C160 O158 1.240 . S
H161 C135 0.931 . S
H162 C144 0.931 . S
H163 C148 0.929 . S
H164 C150 0.930 . S
Co165 N169 2.148 . S
Co165 N175 2.125 1_655 S
Co165 N185 2.194 1_655 S
Co165 O190 2.351 1_655 S
Co165 O191 2.155 . S
Co165 O192 2.096 . S
C166 N169 1.301 1_455 S
C166 N170 1.328 1_455 S
C166 H171 0.930 . S
C167 C168 1.333 . S
C167 N169 1.317 . S
C167 H172 0.930 . S
C168 C167 1.333 . S
C168 N170 1.350 . S
C168 H194 0.931 . S
N169 Co165 2.148 . S
N169 C166 1.301 1_655 S
N169 C167 1.317 . S
N170 C166 1.328 1_655 S
N170 C168 1.350 . S
H171 C166 0.930 . S
H172 C167 0.930 . S
C173 O174 1.224 . S
C173 O192 1.247 . S
O174 C173 1.224 . S
N175 Co165 2.125 1_455 S
N175 C176 1.372 . S
N175 C178 1.298 1_455 S
C176 N175 1.372 . S
C176 C177 1.363 . S
C176 H188 0.929 . S
C177 C176 1.363 . S
C177 N179 1.375 1_455 S
C177 H195 0.931 . S
C178 N175 1.298 1_655 S
C178 N179 1.347 . S
C178 H189 0.929 . S
N179 C177 1.375 1_655 S
N179 C178 1.347 . S
C180 C183 1.365 . S
C180 N185 1.328 . S
C180 H186 0.929 . S
C181 C182 1.362 . S
C181 C184 1.378 . S
C181 H196 0.929 . S
C182 C181 1.362 . S
C182 C183 1.366 . S
C183 C180 1.365 . S
C183 C182 1.366 . S
C183 H197 0.930 . S
C184 C181 1.378 . S
C184 N185 1.315 . S
C184 H187 0.930 . S
N185 Co165 2.194 1_455 S
N185 C180 1.328 . S
N185 C184 1.315 . S
H186 C180 0.929 . S
H187 C184 0.930 . S
H188 C176 0.929 . S
H189 C178 0.929 . S
O190 Co165 2.351 1_455 S
O190 C193 1.244 . S
O191 Co165 2.155 . S
O191 C193 1.240 1_655 S
O192 Co165 2.096 . S
O192 C173 1.247 . S
C193 O190 1.244 . S
C193 O191 1.240 1_455 S
H194 C168 0.931 . S
H195 C177 0.931 . S
H196 C181 0.929 . S
H197 C183 0.930 . S
Co198 N202 2.148 . S
Co198 N208 2.128 . S
Co198 N218 2.194 . S
Co198 O223 2.351 . S
Co198 O224 2.155 . S
Co198 O225 2.096 . S
C199 N202 1.301 . S
C199 N203 1.328 . S
C199 H204 0.930 . S
C200 C201 1.333 . S
C200 N202 1.317 . S
C200 H205 0.930 . S
C201 C200 1.333 . S
C201 N203 1.350 . S
C201 H227 0.931 . S
N202 Co198 2.148 . S
N202 C199 1.301 . S
N202 C200 1.317 . S
N203 C199 1.328 . S
N203 C201 1.350 . S
H204 C199 0.930 . S
H205 C200 0.930 . S
C206 O207 1.224 . S
C206 O225 1.247 . S
O207 C206 1.224 . S
N208 Co198 2.128 . S
N208 C209 1.355 . S
N208 C211 1.311 . S
C209 N208 1.355 . S
C209 C210 1.363 . S
C209 H221 0.929 . S
C210 C209 1.363 . S
C210 N212 1.375 . S
C210 H228 0.931 . S
C211 N208 1.311 . S
C211 N212 1.347 . S
C211 H222 0.929 . S
N212 C210 1.375 . S
N212 C211 1.347 . S
C213 C216 1.365 . S
C213 N218 1.328 . S
C213 H219 0.929 . S
C214 C215 1.362 . S
C214 C217 1.378 . S
C214 H229 0.929 . S
C215 C214 1.362 . S
C215 C216 1.366 . S
C216 C213 1.365 . S
C216 C215 1.366 . S
C216 H230 0.930 . S
C217 C214 1.378 . S
C217 N218 1.315 . S
C217 H220 0.930 . S
N218 Co198 2.194 . S
N218 C213 1.328 . S
N218 C217 1.315 . S
H219 C213 0.929 . S
H220 C217 0.930 . S
H221 C209 0.929 . S
H222 C211 0.929 . S
O223 Co198 2.351 . S
O223 C226 1.244 . S
O224 Co198 2.155 . S
O224 C226 1.240 . S
O225 Co198 2.096 . S
O225 C206 1.247 . S
C226 O223 1.244 . S
C226 O224 1.240 . S
H227 C201 0.931 . S
H228 C210 0.931 . S
H229 C214 0.929 . S
H230 C216 0.930 . S
Co231 N235 2.148 . S
Co231 N241 2.125 1_655 S
Co231 N251 2.194 1_655 S
Co231 O256 2.351 1_655 S
Co231 O257 2.155 . S
Co231 O258 2.096 . S
C232 N235 1.301 1_455 S
C232 N236 1.328 1_455 S
C232 H237 0.930 . S
C233 C234 1.333 . S
C233 N235 1.317 . S
C233 H238 0.930 . S
C234 C233 1.333 . S
C234 N236 1.350 . S
C234 H260 0.931 . S
N235 Co231 2.148 . S
N235 C232 1.301 1_655 S
N235 C233 1.317 . S
N236 C232 1.328 1_655 S
N236 C234 1.350 . S
H237 C232 0.930 . S
H238 C233 0.930 . S
C239 O240 1.224 . S
C239 O258 1.247 . S
O240 C239 1.224 . S
N241 Co231 2.125 1_455 S
N241 C242 1.372 . S
N241 C244 1.298 1_455 S
C242 N241 1.372 . S
C242 C243 1.363 . S
C242 H254 0.929 . S
C243 C242 1.363 . S
C243 N245 1.375 1_455 S
C243 H261 0.931 . S
C244 N241 1.298 1_655 S
C244 N245 1.347 . S
C244 H255 0.929 . S
N245 C243 1.375 1_655 S
N245 C244 1.347 . S
C246 C249 1.365 . S
C246 N251 1.328 . S
C246 H252 0.929 . S
C247 C248 1.362 . S
C247 C250 1.378 . S
C247 H262 0.929 . S
C248 C247 1.362 . S
C248 C249 1.366 . S
C249 C246 1.365 . S
C249 C248 1.366 . S
C249 H263 0.930 . S
C250 C247 1.378 . S
C250 N251 1.315 . S
C250 H253 0.930 . S
N251 Co231 2.194 1_455 S
N251 C246 1.328 . S
N251 C250 1.315 . S
H252 C246 0.929 . S
H253 C250 0.930 . S
H254 C242 0.929 . S
H255 C244 0.929 . S
O256 Co231 2.351 1_455 S
O256 C259 1.244 . S
O257 Co231 2.155 . S
O257 C259 1.240 1_655 S
O258 Co231 2.096 . S
O258 C239 1.247 . S
C259 O256 1.244 . S
C259 O257 1.240 1_455 S
H260 C234 0.931 . S
H261 C243 0.931 . S
H262 C247 0.929 . S
H263 C249 0.930 . S
C264 C265 1.391 . S
C264 C266 1.394 . S
C264 H280 0.931 . S
C265 C264 1.391 . S
C265 C269 1.376 . S
C266 C264 1.394 . S
C266 C267 1.369 . S
C266 C270 1.531 . S
C267 C266 1.369 . S
C267 C268 1.410 1_556 S
C267 C275 1.503 1_556 S
C268 C267 1.410 1_554 S
C268 C269 1.392 1_554 S
C268 C271 1.511 . S
C269 C265 1.376 . S
C269 C268 1.392 1_556 S
C269 H281 0.929 . S
C270 C266 1.531 . S
C270 H282 0.960 . S
C270 H283 0.962 . S
C270 H284 0.960 . S
C271 C268 1.511 . S
C271 H285 0.961 . S
C271 H286 0.961 . S
C271 H287 0.961 . S
C272 C273 1.370 . S
C272 C274 1.363 . S
C272 H288 0.931 . S
C273 C272 1.370 . S
C273 C277 1.408 . S
C274 C272 1.363 . S
C274 C275 1.370 . S
C274 C278 1.524 . S
C275 C267 1.503 1_554 S
C275 C274 1.370 . S
C275 C276 1.403 . S
C276 C275 1.403 . S
C276 C277 1.404 . S
C276 C279 1.539 1_554 S
C277 C273 1.408 . S
C277 C276 1.404 . S
C277 H289 0.930 . S
C278 C274 1.524 . S
C278 H290 0.956 . S
C278 H291 0.961 . S
C278 H292 0.961 . S
C279 C276 1.539 1_556 S
C279 H293 0.958 . S
C279 H294 0.961 1_556 S
C279 H295 0.960 . S
H280 C264 0.931 . S
H281 C269 0.929 . S
H282 C270 0.960 . S
H283 C270 0.962 . S
H284 C270 0.960 . S
H285 C271 0.961 . S
H286 C271 0.961 . S
H287 C271 0.961 . S
H288 C272 0.931 . S
H289 C277 0.930 . S
H290 C278 0.956 . S
H291 C278 0.961 . S
H292 C278 0.961 . S
H293 C279 0.958 . S
H294 C279 0.961 1_554 S
H295 C279 0.960 . S
C296 C297 1.391 . S
C296 C298 1.394 . S
C296 H312 0.931 . S
C297 C296 1.391 . S
C297 C301 1.376 . S
C298 C296 1.394 . S
C298 C299 1.369 . S
C298 C302 1.531 . S
C299 C298 1.369 . S
C299 C300 1.410 . S
C299 C307 1.503 . S
C300 C299 1.410 . S
C300 C301 1.392 . S
C300 C303 1.511 . S
C301 C297 1.376 . S
C301 C300 1.392 . S
C301 H313 0.929 . S
C302 C298 1.531 . S
C302 H314 0.960 . S
C302 H315 0.962 . S
C302 H316 0.960 . S
C303 C300 1.511 . S
C303 H317 0.961 . S
C303 H318 0.961 . S
C303 H319 0.961 . S
C304 C305 1.370 . S
C304 C306 1.363 . S
C304 H320 0.931 . S
C305 C304 1.370 . S
C305 C309 1.408 . S
C306 C304 1.363 . S
C306 C307 1.370 . S
C306 C310 1.524 . S
C307 C299 1.503 . S
C307 C306 1.370 . S
C307 C308 1.403 . S
C308 C307 1.403 . S
C308 C309 1.404 . S
C308 C311 1.539 . S
C309 C305 1.408 . S
C309 C308 1.404 . S
C309 H321 0.930 . S
C310 C306 1.524 . S
C310 H322 0.956 . S
C310 H323 0.961 . S
C310 H324 0.961 . S
C311 C308 1.539 . S
C311 H325 0.958 . S
C311 H326 0.961 . S
C311 H327 0.960 . S
H312 C296 0.931 . S
H313 C301 0.929 . S
H314 C302 0.960 . S
H315 C302 0.962 . S
H316 C302 0.960 . S
H317 C303 0.961 . S
H318 C303 0.961 . S
H319 C303 0.961 . S
H320 C304 0.931 . S
H321 C309 0.930 . S
H322 C310 0.956 . S
H323 C310 0.961 . S
H324 C310 0.961 . S
H325 C311 0.958 . S
H326 C311 0.961 . S
H327 C311 0.960 . S
C328 C329 1.391 . S
C328 C330 1.394 1_554 S
C328 H344 0.931 . S
C329 C328 1.391 . S
C329 C333 1.376 . S
C330 C328 1.394 1_556 S
C330 C331 1.369 1_556 S
C330 C334 1.531 . S
C331 C330 1.369 1_554 S
C331 C332 1.410 . S
C331 C339 1.503 1_554 S
C332 C331 1.410 . S
C332 C333 1.392 . S
C332 C335 1.511 . S
C333 C329 1.376 . S
C333 C332 1.392 . S
C333 H345 0.929 . S
C334 C330 1.531 . S
C334 H346 0.960 . S
C334 H347 0.962 . S
C334 H348 0.960 . S
C335 C332 1.511 . S
C335 H349 0.961 . S
C335 H350 0.961 . S
C335 H351 0.961 . S
C336 C337 1.370 . S
C336 C338 1.363 . S
C336 H352 0.931 . S
C337 C336 1.370 . S
C337 C341 1.408 . S
C338 C336 1.363 . S
C338 C339 1.370 . S
C338 C342 1.524 . S
C339 C331 1.503 1_556 S
C339 C338 1.370 . S
C339 C340 1.403 . S
C340 C339 1.403 . S
C340 C341 1.404 . S
C340 C343 1.539 . S
C341 C337 1.408 . S
C341 C340 1.404 . S
C341 H353 0.930 . S
C342 C338 1.524 . S
C342 H354 0.956 . S
C342 H355 0.961 1_556 S
C342 H356 0.961 . S
C343 C340 1.539 . S
C343 H357 0.958 . S
C343 H358 0.961 . S
C343 H359 0.960 1_556 S
H344 C328 0.931 . S
H345 C333 0.929 . S
H346 C334 0.960 . S
H347 C334 0.962 . S
H348 C334 0.960 . S
H349 C335 0.961 . S
H350 C335 0.961 . S
H351 C335 0.961 . S
H352 C336 0.931 . S
H353 C341 0.930 . S
H354 C342 0.956 . S
H355 C342 0.961 1_554 S
H356 C342 0.961 . S
H357 C343 0.958 . S
H358 C343 0.961 . S
H359 C343 0.960 1_554 S
C360 C361 1.391 . S
C360 C362 1.394 . S
C360 H376 0.931 . S
C361 C360 1.391 . S
C361 C365 1.376 . S
C362 C360 1.394 . S
C362 C363 1.369 . S
C362 C366 1.531 . S
C363 C362 1.369 . S
C363 C364 1.410 . S
C363 C371 1.503 . S
C364 C363 1.410 . S
C364 C365 1.392 . S
C364 C367 1.511 . S
C365 C361 1.376 . S
C365 C364 1.392 . S
C365 H377 0.929 . S
C366 C362 1.531 . S
C366 H378 0.960 . S
C366 H379 0.962 . S
C366 H380 0.960 . S
C367 C364 1.511 . S
C367 H381 0.961 . S
C367 H382 0.961 . S
C367 H383 0.961 . S
C368 C369 1.370 . S
C368 C370 1.363 . S
C368 H384 0.931 . S
C369 C368 1.370 . S
C369 C373 1.408 . S
C370 C368 1.363 . S
C370 C371 1.370 . S
C370 C374 1.524 . S
C371 C363 1.503 . S
C371 C370 1.370 . S
C371 C372 1.403 . S
C372 C371 1.403 . S
C372 C373 1.404 . S
C372 C375 1.539 . S
C373 C369 1.408 . S
C373 C372 1.404 . S
C373 H385 0.930 . S
C374 C370 1.524 . S
C374 H386 0.956 . S
C374 H387 0.961 . S
C374 H388 0.961 . S
C375 C372 1.539 . S
C375 H389 0.958 . S
C375 H390 0.961 . S
C375 H391 0.960 . S
H376 C360 0.931 . S
H377 C365 0.929 . S
H378 C366 0.960 . S
H379 C366 0.962 . S
H380 C366 0.960 . S
H381 C367 0.961 . S
H382 C367 0.961 . S
H383 C367 0.961 . S
H384 C368 0.931 . S
H385 C373 0.930 . S
H386 C374 0.956 . S
H387 C374 0.961 . S
H388 C374 0.961 . S
H389 C375 0.958 . S
H390 C375 0.961 . S
H391 C375 0.960 . S
C392 C393 1.391 . S
C392 C394 1.394 . S
C392 H408 0.931 . S
C393 C392 1.391 . S
C393 C397 1.376 . S
C394 C392 1.394 . S
C394 C395 1.369 . S
C394 C398 1.531 . S
C395 C394 1.369 . S
C395 C396 1.410 . S
C395 C403 1.503 1_554 S
C396 C395 1.410 . S
C396 C397 1.392 . S
C396 C399 1.511 1_554 S
C397 C393 1.376 . S
C397 C396 1.392 . S
C397 H409 0.929 . S
C398 C394 1.531 . S
C398 H410 0.960 . S
C398 H411 0.962 . S
C398 H412 0.960 . S
C399 C396 1.511 1_556 S
C399 H413 0.961 . S
C399 H414 0.961 . S
C399 H415 0.961 . S
C400 C401 1.370 . S
C400 C402 1.363 . S
C400 H416 0.931 . S
C401 C400 1.370 . S
C401 C405 1.408 . S
C402 C400 1.363 . S
C402 C403 1.370 . S
C402 C406 1.524 . S
C403 C395 1.503 1_556 S
C403 C402 1.370 . S
C403 C404 1.403 . S
C404 C403 1.403 . S
C404 C405 1.404 . S
C404 C407 1.539 . S
C405 C401 1.408 . S
C405 C404 1.404 . S
C405 H417 0.930 . S
C406 C402 1.524 . S
C406 H418 0.956 1_556 S
C406 H419 0.961 . S
C406 H420 0.961 . S
C407 C404 1.539 . S
C407 H421 0.958 1_556 S
C407 H422 0.961 . S
C407 H423 0.960 . S
H408 C392 0.931 . S
H409 C397 0.929 . S
H410 C398 0.960 . S
H411 C398 0.962 . S
H412 C398 0.960 . S
H413 C399 0.961 . S
H414 C399 0.961 . S
H415 C399 0.961 . S
H416 C400 0.931 . S
H417 C405 0.930 . S
H418 C406 0.956 1_554 S
H419 C406 0.961 . S
H420 C406 0.961 . S
H421 C407 0.958 1_554 S
H422 C407 0.961 . S
H423 C407 0.960 . S
C424 C425 1.391 . S
C424 C426 1.394 . S
C424 H440 0.931 . S
C425 C424 1.391 . S
C425 C429 1.376 . S
C426 C424 1.394 . S
C426 C427 1.369 . S
C426 C430 1.531 . S
C427 C426 1.369 . S
C427 C428 1.410 . S
C427 C435 1.503 . S
C428 C427 1.410 . S
C428 C429 1.392 . S
C428 C431 1.511 . S
C429 C425 1.376 . S
C429 C428 1.392 . S
C429 H441 0.929 . S
C430 C426 1.531 . S
C430 H442 0.960 . S
C430 H443 0.962 . S
C430 H444 0.960 . S
C431 C428 1.511 . S
C431 H445 0.961 . S
C431 H446 0.961 . S
C431 H447 0.961 . S
C432 C433 1.370 . S
C432 C434 1.363 . S
C432 H448 0.931 . S
C433 C432 1.370 . S
C433 C437 1.408 . S
C434 C432 1.363 . S
C434 C435 1.370 . S
C434 C438 1.524 . S
C435 C427 1.503 . S
C435 C434 1.370 . S
C435 C436 1.403 . S
C436 C435 1.403 . S
C436 C437 1.404 . S
C436 C439 1.539 . S
C437 C433 1.408 . S
C437 C436 1.404 . S
C437 H449 0.930 . S
C438 C434 1.524 . S
C438 H450 0.956 . S
C438 H451 0.961 . S
C438 H452 0.961 . S
C439 C436 1.539 . S
C439 H453 0.958 . S
C439 H454 0.961 . S
C439 H455 0.960 . S
H440 C424 0.931 . S
H441 C429 0.929 . S
H442 C430 0.960 . S
H443 C430 0.962 . S
H444 C430 0.960 . S
H445 C431 0.961 . S
H446 C431 0.961 . S
H447 C431 0.961 . S
H448 C432 0.931 . S
H449 C437 0.930 . S
H450 C438 0.956 . S
H451 C438 0.961 . S
H452 C438 0.961 . S
H453 C439 0.958 . S
H454 C439 0.961 . S
H455 C439 0.960 . S
C456 C457 1.391 . S
C456 C458 1.394 . S
C456 H472 0.931 . S
C457 C456 1.391 . S
C457 C461 1.376 . S
C458 C456 1.394 . S
C458 C459 1.369 . S
C458 C462 1.531 . S
C459 C458 1.369 . S
C459 C460 1.410 1_554 S
C459 C467 1.503 1_554 S
C460 C459 1.410 1_556 S
C460 C461 1.392 1_556 S
C460 C463 1.511 . S
C461 C457 1.376 . S
C461 C460 1.392 1_554 S
C461 H473 0.929 . S
C462 C458 1.531 . S
C462 H474 0.960 . S
C462 H475 0.962 . S
C462 H476 0.960 . S
C463 C460 1.511 . S
C463 H477 0.961 . S
C463 H478 0.961 . S
C463 H479 0.961 . S
C464 C465 1.370 . S
C464 C466 1.363 . S
C464 H480 0.931 . S
C465 C464 1.370 . S
C465 C469 1.408 . S
C466 C464 1.363 . S
C466 C467 1.370 . S
C466 C470 1.524 . S
C467 C459 1.503 1_556 S
C467 C466 1.370 . S
C467 C468 1.403 . S
C468 C467 1.403 . S
C468 C469 1.404 . S
C468 C471 1.539 . S
C469 C465 1.408 . S
C469 C468 1.404 . S
C469 H481 0.930 . S
C470 C466 1.524 . S
C470 H482 0.956 1_556 S
C470 H483 0.961 . S
C470 H484 0.961 . S
C471 C468 1.539 . S
C471 H485 0.958 . S
C471 H486 0.961 . S
C471 H487 0.960 . S
H472 C456 0.931 . S
H473 C461 0.929 . S
H474 C462 0.960 . S
H475 C462 0.962 . S
H476 C462 0.960 . S
H477 C463 0.961 . S
H478 C463 0.961 . S
H479 C463 0.961 . S
H480 C464 0.931 . S
H481 C469 0.930 . S
H482 C470 0.956 1_554 S
H483 C470 0.961 . S
H484 C470 0.961 . S
H485 C471 0.958 . S
H486 C471 0.961 . S
H487 C471 0.960 . S
C488 C489 1.391 . S
C488 C490 1.394 . S
C488 H504 0.931 . S
C489 C488 1.391 . S
C489 C493 1.376 . S
C490 C488 1.394 . S
C490 C491 1.369 . S
C490 C494 1.531 . S
C491 C490 1.369 . S
C491 C492 1.410 . S
C491 C499 1.503 . S
C492 C491 1.410 . S
C492 C493 1.392 . S
C492 C495 1.511 . S
C493 C489 1.376 . S
C493 C492 1.392 . S
C493 H505 0.929 . S
C494 C490 1.531 . S
C494 H506 0.960 . S
C494 H507 0.962 . S
C494 H508 0.960 . S
C495 C492 1.511 . S
C495 H509 0.961 . S
C495 H510 0.961 . S
C495 H511 0.961 . S
C496 C497 1.370 . S
C496 C498 1.363 . S
C496 H512 0.931 . S
C497 C496 1.370 . S
C497 C501 1.408 . S
C498 C496 1.363 . S
C498 C499 1.370 . S
C498 C502 1.524 . S
C499 C491 1.503 . S
C499 C498 1.370 . S
C499 C500 1.403 . S
C500 C499 1.403 . S
C500 C501 1.404 . S
C500 C503 1.539 . S
C501 C497 1.408 . S
C501 C500 1.404 . S
C501 H513 0.930 . S
C502 C498 1.524 . S
C502 H514 0.956 . S
C502 H515 0.961 . S
C502 H516 0.961 . S
C503 C500 1.539 . S
C503 H517 0.958 . S
C503 H518 0.961 . S
C503 H519 0.960 . S
H504 C488 0.931 . S
H505 C493 0.929 . S
H506 C494 0.960 . S
H507 C494 0.962 . S
H508 C494 0.960 . S
H509 C495 0.961 . S
H510 C495 0.961 . S
H511 C495 0.961 . S
H512 C496 0.931 . S
H513 C501 0.930 . S
H514 C502 0.956 . S
H515 C502 0.961 . S
H516 C502 0.961 . S
H517 C503 0.958 . S
H518 C503 0.961 . S
H519 C503 0.960 . S
C520 C521 1.391 1_655 S
C520 C522 1.394 . S
C520 H536 0.931 . S
C521 C520 1.391 1_455 S
C521 C525 1.376 . S
C522 C520 1.394 . S
C522 C523 1.369 1_655 S
C522 C526 1.531 . S
C523 C522 1.369 1_455 S
C523 C524 1.410 . S
C523 C531 1.503 . S
C524 C523 1.410 . S
C524 C525 1.392 . S
C524 C527 1.511 . S
C525 C521 1.376 . S
C525 C524 1.392 . S
C525 H537 0.929 . S
C526 C522 1.531 . S
C526 H538 0.960 . S
C526 H539 0.962 . S
C526 H540 0.960 . S
C527 C524 1.511 . S
C527 H541 0.961 . S
C527 H542 0.961 . S
C527 H543 0.961 . S
C528 C529 1.370 1_655 S
C528 C530 1.363 . S
C528 H544 0.931 . S
C529 C528 1.370 1_455 S
C529 C533 1.408 . S
C530 C528 1.363 . S
C530 C531 1.370 1_655 S
C530 C534 1.524 . S
C531 C523 1.503 . S
C531 C530 1.370 1_455 S
C531 C532 1.403 . S
C532 C531 1.403 . S
C532 C533 1.404 . S
C532 C535 1.539 . S
C533 C529 1.408 . S
C533 C532 1.404 . S
C533 H545 0.930 . S
C534 C530 1.524 . S
C534 H546 0.956 . S
C534 H547 0.961 . S
C534 H548 0.961 . S
C535 C532 1.539 . S
C535 H549 0.958 . S
C535 H550 0.961 . S
C535 H551 0.960 . S
H536 C520 0.931 . S
H537 C525 0.929 . S
H538 C526 0.960 . S
H539 C526 0.962 . S
H540 C526 0.960 . S
H541 C527 0.961 . S
H542 C527 0.961 . S
H543 C527 0.961 . S
H544 C528 0.931 . S
H545 C533 0.930 . S
H546 C534 0.956 . S
H547 C534 0.961 . S
H548 C534 0.961 . S
H549 C535 0.958 . S
H550 C535 0.961 . S
H551 C535 0.960 . S
C552 C553 1.391 . S
C552 C554 1.394 . S
C552 H568 0.931 . S
C553 C552 1.391 . S
C553 C557 1.376 . S
C554 C552 1.394 . S
C554 C555 1.369 . S
C554 C558 1.531 . S
C555 C554 1.369 . S
C555 C556 1.410 . S
C555 C563 1.503 . S
C556 C555 1.410 . S
C556 C557 1.392 . S
C556 C559 1.511 . S
C557 C553 1.376 . S
C557 C556 1.392 . S
C557 H569 0.929 . S
C558 C554 1.531 . S
C558 H570 0.960 . S
C558 H571 0.962 . S
C558 H572 0.960 . S
C559 C556 1.511 . S
C559 H573 0.961 . S
C559 H574 0.961 . S
C559 H575 0.961 . S
C560 C561 1.370 . S
C560 C562 1.363 . S
C560 H576 0.931 . S
C561 C560 1.370 . S
C561 C565 1.408 . S
C562 C560 1.363 . S
C562 C563 1.370 . S
C562 C566 1.524 . S
C563 C555 1.503 . S
C563 C562 1.370 . S
C563 C564 1.403 . S
C564 C563 1.403 . S
C564 C565 1.404 . S
C564 C567 1.539 . S
C565 C561 1.408 . S
C565 C564 1.404 . S
C565 H577 0.930 . S
C566 C562 1.524 . S
C566 H578 0.956 . S
C566 H579 0.961 . S
C566 H580 0.961 . S
C567 C564 1.539 . S
C567 H581 0.958 . S
C567 H582 0.961 . S
C567 H583 0.960 . S
H568 C552 0.931 . S
H569 C557 0.929 . S
H570 C558 0.960 . S
H571 C558 0.962 . S
H572 C558 0.960 . S
H573 C559 0.961 . S
H574 C559 0.961 . S
H575 C559 0.961 . S
H576 C560 0.931 . S
H577 C565 0.930 . S
H578 C566 0.956 . S
H579 C566 0.961 . S
H580 C566 0.961 . S
H581 C567 0.958 . S
H582 C567 0.961 . S
H583 C567 0.960 . S
C584 C585 1.391 . S
C584 C586 1.394 . S
C584 H600 0.931 . S
C585 C584 1.391 . S
C585 C589 1.376 1_455 S
C586 C584 1.394 . S
C586 C587 1.369 . S
C586 C590 1.531 . S
C587 C586 1.369 . S
C587 C588 1.410 1_455 S
C587 C595 1.503 . S
C588 C587 1.410 1_655 S
C588 C589 1.392 . S
C588 C591 1.511 . S
C589 C585 1.376 1_655 S
C589 C588 1.392 . S
C589 H601 0.929 . S
C590 C586 1.531 . S
C590 H602 0.960 . S
C590 H603 0.962 . S
C590 H604 0.960 . S
C591 C588 1.511 . S
C591 H605 0.961 . S
C591 H606 0.961 . S
C591 H607 0.961 . S
C592 C593 1.370 . S
C592 C594 1.363 . S
C592 H608 0.931 . S
C593 C592 1.370 . S
C593 C597 1.404 1_455 S
C594 C592 1.363 . S
C594 C595 1.370 . S
C594 C598 1.524 . S
C595 C587 1.503 . S
C595 C594 1.370 . S
C595 C596 1.403 1_455 S
C596 C595 1.403 1_655 S
C596 C597 1.405 . S
C596 C599 1.539 . S
C597 C593 1.404 1_655 S
C597 C596 1.405 . S
C597 H609 0.934 . S
C598 C594 1.524 . S
C598 H610 0.956 . S
C598 H611 0.961 1_455 S
C598 H612 0.961 . S
C599 C596 1.539 . S
C599 H613 0.958 1_655 S
C599 H614 0.961 . S
C599 H615 0.960 . S
H600 C584 0.931 . S
H601 C589 0.929 . S
H602 C590 0.960 . S
H603 C590 0.962 . S
H604 C590 0.960 . S
H605 C591 0.961 . S
H606 C591 0.961 . S
H607 C591 0.961 . S
H608 C592 0.931 . S
H609 C597 0.934 . S
H610 C598 0.956 . S
H611 C598 0.961 1_655 S
H612 C598 0.961 . S
H613 C599 0.958 1_455 S
H614 C599 0.961 . S
H615 C599 0.960 . S
C616 C617 1.391 . S
C616 C618 1.394 . S
C616 H632 0.931 . S
C617 C616 1.391 . S
C617 C621 1.376 . S
C618 C616 1.394 . S
C618 C619 1.369 . S
C618 C622 1.531 . S
C619 C618 1.369 . S
C619 C620 1.410 . S
C619 C627 1.503 . S
C620 C619 1.410 . S
C620 C621 1.392 . S
C620 C623 1.511 . S
C621 C617 1.376 . S
C621 C620 1.392 . S
C621 H633 0.929 . S
C622 C618 1.531 . S
C622 H634 0.960 . S
C622 H635 0.962 . S
C622 H636 0.960 . S
C623 C620 1.511 . S
C623 H637 0.961 . S
C623 H638 0.961 . S
C623 H639 0.961 . S
C624 C625 1.370 . S
C624 C626 1.363 . S
C624 H640 0.931 . S
C625 C624 1.370 . S
C625 C629 1.408 . S
C626 C624 1.363 . S
C626 C627 1.370 . S
C626 C630 1.524 . S
C627 C619 1.503 . S
C627 C626 1.370 . S
C627 C628 1.403 . S
C628 C627 1.403 . S
C628 C629 1.404 . S
C628 C631 1.539 . S
C629 C625 1.408 . S
C629 C628 1.404 . S
C629 H641 0.930 . S
C630 C626 1.524 . S
C630 H642 0.956 . S
C630 H643 0.961 . S
C630 H644 0.961 . S
C631 C628 1.539 . S
C631 H645 0.958 . S
C631 H646 0.961 . S
C631 H647 0.960 . S
H632 C616 0.931 . S
H633 C621 0.929 . S
H634 C622 0.960 . S
H635 C622 0.962 . S
H636 C622 0.960 . S
H637 C623 0.961 . S
H638 C623 0.961 . S
H639 C623 0.961 . S
H640 C624 0.931 . S
H641 C629 0.930 . S
H642 C630 0.956 . S
H643 C630 0.961 . S
H644 C630 0.961 . S
H645 C631 0.958 . S
H646 C631 0.961 . S
H647 C631 0.960 . S
C648 C649 1.391 . S
C648 C650 1.394 . S
C648 H664 0.931 . S
C649 C648 1.391 . S
C649 C653 1.376 . S
C650 C648 1.394 . S
C650 C651 1.369 . S
C650 C654 1.531 1_565 S
C651 C650 1.369 . S
C651 C652 1.410 . S
C651 C659 1.503 1_565 S
C652 C651 1.410 . S
C652 C653 1.392 . S
C652 C655 1.511 . S
C653 C649 1.376 . S
C653 C652 1.392 . S
C653 H665 0.929 . S
C654 C650 1.531 1_545 S
C654 H666 0.960 . S
C654 H667 0.962 . S
C654 H668 0.960 . S
C655 C652 1.511 . S
C655 H669 0.961 . S
C655 H670 0.961 . S
C655 H671 0.961 . S
C656 C657 1.370 . S
C656 C658 1.363 . S
C656 H672 0.931 . S
C657 C656 1.370 . S
C657 C661 1.408 . S
C658 C656 1.363 . S
C658 C659 1.370 . S
C658 C662 1.524 1_545 S
C659 C651 1.503 1_545 S
C659 C658 1.370 . S
C659 C660 1.403 . S
C660 C659 1.403 . S
C660 C661 1.404 . S
C660 C663 1.539 . S
C661 C657 1.408 . S
C661 C660 1.404 . S
C661 H673 0.930 . S
C662 C658 1.524 1_565 S
C662 H674 0.956 . S
C662 H675 0.961 . S
C662 H676 0.961 . S
C663 C660 1.539 . S
C663 H677 0.958 . S
C663 H678 0.961 . S
C663 H679 0.960 . S
H664 C648 0.931 . S
H665 C653 0.929 . S
H666 C654 0.960 . S
H667 C654 0.962 . S
H668 C654 0.960 . S
H669 C655 0.961 . S
H670 C655 0.961 . S
H671 C655 0.961 . S
H672 C656 0.931 . S
H673 C661 0.930 . S
H674 C662 0.956 . S
H675 C662 0.961 . S
H676 C662 0.961 . S
H677 C663 0.958 . S
H678 C663 0.961 . S
H679 C663 0.960 . S
C680 C681 1.391 1_655 S
C680 C682 1.394 . S
C680 H696 0.931 . S
C681 C680 1.391 1_455 S
C681 C685 1.376 . S
C682 C680 1.394 . S
C682 C683 1.369 . S
C682 C686 1.531 . S
C683 C682 1.369 . S
C683 C684 1.410 1_655 S
C683 C691 1.503 1_565 S
C684 C683 1.410 1_455 S
C684 C685 1.392 . S
C684 C687 1.511 1_565 S
C685 C681 1.376 . S
C685 C684 1.392 . S
C685 H697 0.929 . S
C686 C682 1.531 . S
C686 H698 0.960 . S
C686 H699 0.962 . S
C686 H700 0.960 . S
C687 C684 1.511 1_545 S
C687 H701 0.961 . S
C687 H702 0.961 . S
C687 H703 0.961 . S
C688 C689 1.370 . S
C688 C690 1.363 . S
C688 H704 0.931 . S
C689 C688 1.370 . S
C689 C693 1.408 1_455 S
C690 C688 1.363 . S
C690 C691 1.369 1_455 S
C690 C694 1.524 1_545 S
C691 C683 1.503 1_545 S
C691 C690 1.369 1_655 S
C691 C692 1.404 . S
C692 C691 1.404 . S
C692 C693 1.404 . S
C692 C695 1.539 . S
C693 C689 1.408 1_655 S
C693 C692 1.404 . S
C693 H705 0.930 . S
C694 C690 1.524 1_565 S
C694 H706 0.956 . S
C694 H707 0.961 . S
C694 H708 0.961 . S
C695 C692 1.539 . S
C695 H709 0.958 . S
C695 H710 0.961 . S
C695 H711 0.960 . S
H696 C680 0.931 . S
H697 C685 0.929 . S
H698 C686 0.960 . S
H699 C686 0.962 . S
H700 C686 0.960 . S
H701 C687 0.961 . S
H702 C687 0.961 . S
H703 C687 0.961 . S
H704 C688 0.931 . S
H705 C693 0.930 . S
H706 C694 0.956 . S
H707 C694 0.961 . S
H708 C694 0.961 . S
H709 C695 0.958 . S
H710 C695 0.961 . S
H711 C695 0.960 . S
C712 C713 1.391 . S
C712 C714 1.394 . S
C712 H728 0.931 . S
C713 C712 1.391 . S
C713 C717 1.376 . S
C714 C712 1.394 . S
C714 C715 1.369 . S
C714 C718 1.531 1_565 S
C715 C714 1.369 . S
C715 C716 1.410 . S
C715 C723 1.503 1_565 S
C716 C715 1.410 . S
C716 C717 1.392 . S
C716 C719 1.511 . S
C717 C713 1.376 . S
C717 C716 1.392 . S
C717 H729 0.929 . S
C718 C714 1.531 1_545 S
C718 H730 0.960 . S
C718 H731 0.962 . S
C718 H732 0.960 . S
C719 C716 1.511 . S
C719 H733 0.961 . S
C719 H734 0.961 . S
C719 H735 0.961 . S
C720 C721 1.370 . S
C720 C722 1.363 . S
C720 H736 0.931 . S
C721 C720 1.370 . S
C721 C725 1.408 . S
C722 C720 1.363 . S
C722 C723 1.370 . S
C722 C726 1.524 1_545 S
C723 C715 1.503 1_545 S
C723 C722 1.370 . S
C723 C724 1.403 . S
C724 C723 1.403 . S
C724 C725 1.404 . S
C724 C727 1.539 . S
C725 C721 1.408 . S
C725 C724 1.404 . S
C725 H737 0.930 . S
C726 C722 1.524 1_565 S
C726 H738 0.956 . S
C726 H739 0.961 . S
C726 H740 0.961 . S
C727 C724 1.539 . S
C727 H741 0.958 . S
C727 H742 0.961 . S
C727 H743 0.960 . S
H728 C712 0.931 . S
H729 C717 0.929 . S
H730 C718 0.960 . S
H731 C718 0.962 . S
H732 C718 0.960 . S
H733 C719 0.961 . S
H734 C719 0.961 . S
H735 C719 0.961 . S
H736 C720 0.931 . S
H737 C725 0.930 . S
H738 C726 0.956 . S
H739 C726 0.961 . S
H740 C726 0.961 . S
H741 C727 0.958 . S
H742 C727 0.961 . S
H743 C727 0.960 . S
C744 C745 1.391 . S
C744 C746 1.394 . S
C744 H760 0.931 . S
C745 C744 1.391 . S
C745 C749 1.376 1_455 S
C746 C744 1.394 . S
C746 C747 1.369 . S
C746 C750 1.531 . S
C747 C746 1.369 . S
C747 C748 1.410 1_455 S
C747 C755 1.503 1_545 S
C748 C747 1.410 1_655 S
C748 C749 1.392 . S
C748 C751 1.511 . S
C749 C745 1.376 1_655 S
C749 C748 1.392 . S
C749 H761 0.929 . S
C750 C746 1.531 . S
C750 H762 0.960 . S
C750 H763 0.962 . S
C750 H764 0.960 . S
C751 C748 1.511 . S
C751 H765 0.961 . S
C751 H766 0.961 1_545 S
C751 H767 0.961 . S
C752 C753 1.370 . S
C752 C754 1.363 . S
C752 H768 0.931 . S
C753 C752 1.370 . S
C753 C757 1.408 1_455 S
C754 C752 1.363 . S
C754 C755 1.370 . S
C754 C758 1.524 . S
C755 C747 1.503 1_565 S
C755 C754 1.370 . S
C755 C756 1.403 1_455 S
C756 C755 1.403 1_655 S
C756 C757 1.404 . S
C756 C759 1.539 1_565 S
C757 C753 1.408 1_655 S
C757 C756 1.404 . S
C757 H769 0.930 . S
C758 C754 1.524 . S
C758 H770 0.956 . S
C758 H771 0.961 . S
C758 H772 0.961 . S
C759 C756 1.539 1_545 S
C759 H773 0.958 1_655 S
C759 H774 0.961 . S
C759 H775 0.960 . S
H760 C744 0.931 . S
H761 C749 0.929 . S
H762 C750 0.960 . S
H763 C750 0.962 . S
H764 C750 0.960 . S
H765 C751 0.961 . S
H766 C751 0.961 1_565 S
H767 C751 0.961 . S
H768 C752 0.931 . S
H769 C757 0.930 . S
H770 C758 0.956 . S
H771 C758 0.961 . S
H772 C758 0.961 . S
H773 C759 0.958 1_455 S
H774 C759 0.961 . S
H775 C759 0.960 . S
C776 C777 1.391 . S
C776 C778 1.394 . S
C776 H792 0.931 . S
C777 C776 1.391 . S
C777 C781 1.376 1_455 S
C778 C776 1.394 . S
C778 C779 1.369 . S
C778 C782 1.531 1_556 S
C779 C778 1.369 . S
C779 C780 1.410 1_455 S
C779 C787 1.503 1_556 S
C780 C779 1.410 1_655 S
C780 C781 1.392 . S
C780 C783 1.511 . S
C781 C777 1.376 1_655 S
C781 C780 1.392 . S
C781 H793 0.929 . S
C782 C778 1.531 1_554 S
C782 H794 0.960 . S
C782 H795 0.962 1_554 S
C782 H796 0.960 . S
C783 C780 1.511 . S
C783 H797 0.961 . S
C783 H798 0.961 . S
C783 H799 0.961 1_556 S
C784 C785 1.370 . S
C784 C786 1.363 . S
C784 H800 0.931 . S
C785 C784 1.370 . S
C785 C789 1.408 . S
C786 C784 1.363 . S
C786 C787 1.370 . S
C786 C790 1.524 1_554 S
C787 C779 1.503 1_554 S
C787 C786 1.370 . S
C787 C788 1.403 . S
C788 C787 1.403 . S
C788 C789 1.404 . S
C788 C791 1.539 . S
C789 C785 1.408 . S
C789 C788 1.404 . S
C789 H801 0.930 . S
C790 C786 1.524 1_556 S
C790 H802 0.956 . S
C790 H803 0.961 . S
C790 H804 0.961 . S
C791 C788 1.539 . S
C791 H805 0.958 . S
C791 H806 0.961 1_455 S
C791 H807 0.960 1_455 S
H792 C776 0.931 . S
H793 C781 0.929 . S
H794 C782 0.960 . S
H795 C782 0.962 1_556 S
H796 C782 0.960 . S
H797 C783 0.961 . S
H798 C783 0.961 . S
H799 C783 0.961 1_554 S
H800 C784 0.931 . S
H801 C789 0.930 . S
H802 C790 0.956 . S
H803 C790 0.961 . S
H804 C790 0.961 . S
H805 C791 0.958 . S
H806 C791 0.961 1_655 S
H807 C791 0.960 1_655 S
C808 C809 1.391 . S
C808 C810 1.394 . S
C808 H824 0.931 . S
C809 C808 1.391 . S
C809 C813 1.376 . S
C810 C808 1.394 . S
C810 C811 1.369 . S
C810 C814 1.531 . S
C811 C810 1.369 . S
C811 C812 1.410 . S
C811 C819 1.503 . S
C812 C811 1.410 . S
C812 C813 1.392 . S
C812 C815 1.511 . S
C813 C809 1.376 . S
C813 C812 1.392 . S
C813 H825 0.929 . S
C814 C810 1.531 . S
C814 H826 0.960 . S
C814 H827 0.962 . S
C814 H828 0.960 . S
C815 C812 1.511 . S
C815 H829 0.961 . S
C815 H830 0.961 . S
C815 H831 0.961 . S
C816 C817 1.370 . S
C816 C818 1.363 . S
C816 H832 0.931 . S
C817 C816 1.370 . S
C817 C821 1.408 . S
C818 C816 1.363 . S
C818 C819 1.370 . S
C818 C822 1.524 . S
C819 C811 1.503 . S
C819 C818 1.370 . S
C819 C820 1.403 . S
C820 C819 1.403 . S
C820 C821 1.404 . S
C820 C823 1.539 . S
C821 C817 1.408 . S
C821 C820 1.404 . S
C821 H833 0.930 . S
C822 C818 1.524 . S
C822 H834 0.956 . S
C822 H835 0.961 . S
C822 H836 0.961 . S
C823 C820 1.539 . S
C823 H837 0.958 . S
C823 H838 0.961 . S
C823 H839 0.960 . S
H824 C808 0.931 . S
H825 C813 0.929 . S
H826 C814 0.960 . S
H827 C814 0.962 . S
H828 C814 0.960 . S
H829 C815 0.961 . S
H830 C815 0.961 . S
H831 C815 0.961 . S
H832 C816 0.931 . S
H833 C821 0.930 . S
H834 C822 0.956 . S
H835 C822 0.961 . S
H836 C822 0.961 . S
H837 C823 0.958 . S
H838 C823 0.961 . S
H839 C823 0.960 . S
C840 C841 1.391 . S
C840 C842 1.394 . S
C840 H856 0.931 . S
C841 C840 1.391 . S
C841 C845 1.376 . S
C842 C840 1.394 . S
C842 C843 1.369 . S
C842 C846 1.531 1_545 S
C843 C842 1.369 . S
C843 C844 1.410 . S
C843 C851 1.503 1_546 S
C844 C843 1.410 . S
C844 C845 1.392 . S
C844 C847 1.511 1_556 S
C845 C841 1.376 . S
C845 C844 1.392 . S
C845 H857 0.929 . S
C846 C842 1.531 1_565 S
C846 H858 0.960 . S
C846 H859 0.962 . S
C846 H860 0.960 . S
C847 C844 1.511 1_554 S
C847 H861 0.961 . S
C847 H862 0.961 . S
C847 H863 0.961 1_554 S
C848 C849 1.370 . S
C848 C850 1.363 . S
C848 H864 0.931 . S
C849 C848 1.370 . S
C849 C853 1.408 . S
C850 C848 1.363 . S
C850 C851 1.370 . S
C850 C854 1.524 1_565 S
C851 C843 1.503 1_564 S
C851 C850 1.370 . S
C851 C852 1.397 1_554 S
C852 C851 1.397 1_556 S
C852 C853 1.387 1_556 S
C852 C855 1.561 . S
C853 C849 1.408 . S
C853 C852 1.387 1_554 S
C853 H865 0.930 . S
C854 C850 1.524 1_545 S
C854 H866 0.956 . S
C854 H867 0.961 . S
C854 H868 0.961 . S
C855 C852 1.561 . S
C855 H869 0.958 . S
C855 H870 0.961 . S
C855 H871 0.960 . S
H856 C840 0.931 . S
H857 C845 0.929 . S
H858 C846 0.960 . S
H859 C846 0.962 . S
H860 C846 0.960 . S
H861 C847 0.961 . S
H862 C847 0.961 . S
H863 C847 0.961 1_556 S
H864 C848 0.931 . S
H865 C853 0.930 . S
H866 C854 0.956 . S
H867 C854 0.961 . S
H868 C854 0.961 . S
H869 C855 0.958 . S
H870 C855 0.961 . S
H871 C855 0.960 . S
C872 C873 1.391 1_455 S
C872 C874 1.394 . S
C872 H888 0.931 . S
C873 C872 1.391 1_655 S
C873 C877 1.376 . S
C874 C872 1.394 . S
C874 C875 1.369 1_455 S
C874 C878 1.531 1_565 S
C875 C874 1.369 1_655 S
C875 C876 1.410 . S
C875 C883 1.503 1_565 S
C876 C875 1.410 . S
C876 C877 1.392 . S
C876 C879 1.511 . S
C877 C873 1.376 . S
C877 C876 1.392 . S
C877 H889 0.929 . S
C878 C874 1.531 1_545 S
C878 H890 0.960 . S
C878 H891 0.963 . S
C878 H892 0.960 . S
C879 C876 1.511 . S
C879 H893 0.961 . S
C879 H894 0.961 . S
C879 H895 0.961 . S
C880 C881 1.370 . S
C880 C882 1.363 . S
C880 H896 0.931 1_655 S
C881 C880 1.370 . S
C881 C885 1.408 . S
C882 C880 1.363 . S
C882 C883 1.370 . S
C882 C886 1.524 1_645 S
C883 C875 1.503 1_545 S
C883 C882 1.370 . S
C883 C884 1.403 . S
C884 C883 1.403 . S
C884 C885 1.404 . S
C884 C887 1.539 . S
C885 C881 1.408 . S
C885 C884 1.404 . S
C885 H897 0.930 . S
C886 C882 1.524 1_465 S
C886 H898 0.956 . S
C886 H899 0.961 1_455 S
C886 H900 0.961 . S
C887 C884 1.539 . S
C887 H901 0.958 . S
C887 H902 0.961 . S
C887 H903 0.960 . S
H888 C872 0.931 . S
H889 C877 0.929 . S
H890 C878 0.960 . S
H891 C878 0.963 . S
H892 C878 0.960 . S
H893 C879 0.961 . S
H894 C879 0.961 . S
H895 C879 0.961 . S
H896 C880 0.931 1_455 S
H897 C885 0.930 . S
H898 C886 0.956 . S
H899 C886 0.961 1_655 S
H900 C886 0.961 . S
H901 C887 0.958 . S
H902 C887 0.961 . S
H903 C887 0.960 . S
C265 C215 1.791 . S
C273 C8 1.817 . S
C297 C41 1.801 . S
C305 C248 1.812 . S
C329 C149 1.823 . S
C337 C74 1.804 . S
C361 C107 1.791 . S
C369 C182 1.817 . S
C393 C140 1.824 . S
C401 C83 1.802 . S
C425 C173 1.823 . S
C433 C116 1.803 . S
C457 C17 1.787 . S
C465 C206 1.819 . S
C489 C50 1.822 . S
C497 C239 1.805 . S
C521 C28 1.952 . S
C529 N236 1.936 1_455 S
C553 C61 1.951 . S
C561 N203 1.937 . S
C585 N170 1.914 1_455 S
C593 C94 1.954 . S
C617 C127 1.932 . S
C625 N137 1.931 . S
C649 C160 1.936 . S
C657 N104 1.929 . S
C681 N71 1.935 . S
C689 C193 1.952 . S
C713 N38 1.910 . S
C721 C226 1.953 . S
C745 N5 1.943 . S
C753 C259 1.942 . S
C777 N80 0.654 . S
C785 N14 0.588 . S
C809 N47 0.647 . S
C817 N113 0.641 . S
C841 N212 0.626 . S
C849 N146 0.641 . S
C873 N245 0.616 . S
C881 N179 0.639 . S
