# Generated by pormake.
# Topology umq, (4)-cn, num edge types: 1
# Building blocks:
#     Node 0, Type 0, BuildingBlock: QUQFOY_clean_sbu_3, # of connection points: 4
#     Node 1, Type 0, BuildingBlock: QUQFOY_clean_sbu_3, # of connection points: 4
#     Node 2, Type 0, BuildingBlock: QUQFOY_clean_sbu_3, # of connection points: 4
#     Node 3, Type 0, BuildingBlock: QUQFOY_clean_sbu_3, # of connection points: 4
#     Node 4, Type 0, BuildingBlock: QUQFOY_clean_sbu_3, # of connection points: 4
#     Node 5, Type 0, BuildingBlock: QUQFOY_clean_sbu_3, # of connection points: 4
#     Node 6, Type 0, BuildingBlock: QUQFOY_clean_sbu_3, # of connection points: 4
#     Node 7, Type 0, BuildingBlock: QUQFOY_clean_sbu_3, # of connection points: 4
#     Node 8, Type 0, BuildingBlock: QUQFOY_clean_sbu_3, # of connection points: 4
#     Node 9, Type 0, BuildingBlock: QUQFOY_clean_sbu_3, # of connection points: 4
#     Node 10, Type 0, BuildingBlock: QUQFOY_clean_sbu_3, # of connection points: 4
#     Node 11, Type 0, BuildingBlock: QUQFOY_clean_sbu_3, # of connection points: 4
#     Node 12, Type 0, BuildingBlock: QUQFOY_clean_sbu_3, # of connection points: 4
#     Node 13, Type 0, BuildingBlock: QUQFOY_clean_sbu_3, # of connection points: 4
#     Node 14, Type 0, BuildingBlock: QUQFOY_clean_sbu_3, # of connection points: 4
#     Node 15, Type 0, BuildingBlock: QUQFOY_clean_sbu_3, # of connection points: 4
#     Node 16, Type 0, BuildingBlock: QUQFOY_clean_sbu_3, # of connection points: 4
#     Node 17, Type 0, BuildingBlock: QUQFOY_clean_sbu_3, # of connection points: 4
#     Node 18, Type 0, BuildingBlock: QUQFOY_clean_sbu_3, # of connection points: 4
#     Node 19, Type 0, BuildingBlock: QUQFOY_clean_sbu_3, # of connection points: 4
#     Node 20, Type 0, BuildingBlock: QUQFOY_clean_sbu_3, # of connection points: 4
#     Node 21, Type 0, BuildingBlock: QUQFOY_clean_sbu_3, # of connection points: 4
#     Node 22, Type 0, BuildingBlock: QUQFOY_clean_sbu_3, # of connection points: 4
#     Node 23, Type 0, BuildingBlock: QUQFOY_clean_sbu_3, # of connection points: 4
#     Node 24, Type 0, BuildingBlock: QUQFOY_clean_sbu_3, # of connection points: 4
#     Node 25, Type 0, BuildingBlock: QUQFOY_clean_sbu_3, # of connection points: 4
#     Node 26, Type 0, BuildingBlock: QUQFOY_clean_sbu_3, # of connection points: 4
#     Node 27, Type 0, BuildingBlock: QUQFOY_clean_sbu_3, # of connection points: 4
#     Node 28, Type 0, BuildingBlock: QUQFOY_clean_sbu_3, # of connection points: 4
#     Node 29, Type 0, BuildingBlock: QUQFOY_clean_sbu_3, # of connection points: 4
#     Node 30, Type 0, BuildingBlock: QUQFOY_clean_sbu_3, # of connection points: 4
#     Node 31, Type 0, BuildingBlock: QUQFOY_clean_sbu_3, # of connection points: 4
#     Edge 32, Type (0, 0), BuildingBlock: ZUJKAS_clean_linker_0, # of connection points: 2
#     Edge 33, Type (0, 0), BuildingBlock: ZUJKAS_clean_linker_0, # of connection points: 2
#     Edge 34, Type (0, 0), BuildingBlock: ZUJKAS_clean_linker_0, # of connection points: 2
#     Edge 35, Type (0, 0), BuildingBlock: ZUJKAS_clean_linker_0, # of connection points: 2
#     Edge 36, Type (0, 0), BuildingBlock: ZUJKAS_clean_linker_0, # of connection points: 2
#     Edge 37, Type (0, 0), BuildingBlock: ZUJKAS_clean_linker_0, # of connection points: 2
#     Edge 38, Type (0, 0), BuildingBlock: ZUJKAS_clean_linker_0, # of connection points: 2
#     Edge 39, Type (0, 0), BuildingBlock: ZUJKAS_clean_linker_0, # of connection points: 2
#     Edge 40, Type (0, 0), BuildingBlock: ZUJKAS_clean_linker_0, # of connection points: 2
#     Edge 41, Type (0, 0), BuildingBlock: ZUJKAS_clean_linker_0, # of connection points: 2
#     Edge 42, Type (0, 0), BuildingBlock: ZUJKAS_clean_linker_0, # of connection points: 2
#     Edge 43, Type (0, 0), BuildingBlock: ZUJKAS_clean_linker_0, # of connection points: 2
#     Edge 44, Type (0, 0), BuildingBlock: ZUJKAS_clean_linker_0, # of connection points: 2
#     Edge 45, Type (0, 0), BuildingBlock: ZUJKAS_clean_linker_0, # of connection points: 2
#     Edge 46, Type (0, 0), BuildingBlock: ZUJKAS_clean_linker_0, # of connection points: 2
#     Edge 47, Type (0, 0), BuildingBlock: ZUJKAS_clean_linker_0, # of connection points: 2
#     Edge 48, Type (0, 0), BuildingBlock: ZUJKAS_clean_linker_0, # of connection points: 2
#     Edge 49, Type (0, 0), BuildingBlock: ZUJKAS_clean_linker_0, # of connection points: 2
#     Edge 50, Type (0, 0), BuildingBlock: ZUJKAS_clean_linker_0, # of connection points: 2
#     Edge 51, Type (0, 0), BuildingBlock: ZUJKAS_clean_linker_0, # of connection points: 2
#     Edge 52, Type (0, 0), BuildingBlock: ZUJKAS_clean_linker_0, # of connection points: 2
#     Edge 53, Type (0, 0), BuildingBlock: ZUJKAS_clean_linker_0, # of connection points: 2
#     Edge 54, Type (0, 0), BuildingBlock: ZUJKAS_clean_linker_0, # of connection points: 2
#     Edge 55, Type (0, 0), BuildingBlock: ZUJKAS_clean_linker_0, # of connection points: 2
#     Edge 56, Type (0, 0), BuildingBlock: ZUJKAS_clean_linker_0, # of connection points: 2
#     Edge 57, Type (0, 0), BuildingBlock: ZUJKAS_clean_linker_0, # of connection points: 2
#     Edge 58, Type (0, 0), BuildingBlock: ZUJKAS_clean_linker_0, # of connection points: 2
#     Edge 59, Type (0, 0), BuildingBlock: ZUJKAS_clean_linker_0, # of connection points: 2
#     Edge 60, Type (0, 0), BuildingBlock: ZUJKAS_clean_linker_0, # of connection points: 2
#     Edge 61, Type (0, 0), BuildingBlock: ZUJKAS_clean_linker_0, # of connection points: 2
#     Edge 62, Type (0, 0), BuildingBlock: ZUJKAS_clean_linker_0, # of connection points: 2
#     Edge 63, Type (0, 0), BuildingBlock: ZUJKAS_clean_linker_0, # of connection points: 2
#     Edge 64, Type (0, 0), BuildingBlock: ZUJKAS_clean_linker_0, # of connection points: 2
#     Edge 65, Type (0, 0), BuildingBlock: ZUJKAS_clean_linker_0, # of connection points: 2
#     Edge 66, Type (0, 0), BuildingBlock: ZUJKAS_clean_linker_0, # of connection points: 2
#     Edge 67, Type (0, 0), BuildingBlock: ZUJKAS_clean_linker_0, # of connection points: 2
#     Edge 68, Type (0, 0), BuildingBlock: ZUJKAS_clean_linker_0, # of connection points: 2
#     Edge 69, Type (0, 0), BuildingBlock: ZUJKAS_clean_linker_0, # of connection points: 2
#     Edge 70, Type (0, 0), BuildingBlock: ZUJKAS_clean_linker_0, # of connection points: 2
#     Edge 71, Type (0, 0), BuildingBlock: ZUJKAS_clean_linker_0, # of connection points: 2
#     Edge 72, Type (0, 0), BuildingBlock: ZUJKAS_clean_linker_0, # of connection points: 2
#     Edge 73, Type (0, 0), BuildingBlock: ZUJKAS_clean_linker_0, # of connection points: 2
#     Edge 74, Type (0, 0), BuildingBlock: ZUJKAS_clean_linker_0, # of connection points: 2
#     Edge 75, Type (0, 0), BuildingBlock: ZUJKAS_clean_linker_0, # of connection points: 2
#     Edge 76, Type (0, 0), BuildingBlock: ZUJKAS_clean_linker_0, # of connection points: 2
#     Edge 77, Type (0, 0), BuildingBlock: ZUJKAS_clean_linker_0, # of connection points: 2
#     Edge 78, Type (0, 0), BuildingBlock: ZUJKAS_clean_linker_0, # of connection points: 2
#     Edge 79, Type (0, 0), BuildingBlock: ZUJKAS_clean_linker_0, # of connection points: 2
#     Edge 80, Type (0, 0), BuildingBlock: ZUJKAS_clean_linker_0, # of connection points: 2
#     Edge 81, Type (0, 0), BuildingBlock: ZUJKAS_clean_linker_0, # of connection points: 2
#     Edge 82, Type (0, 0), BuildingBlock: ZUJKAS_clean_linker_0, # of connection points: 2
#     Edge 83, Type (0, 0), BuildingBlock: ZUJKAS_clean_linker_0, # of connection points: 2
#     Edge 84, Type (0, 0), BuildingBlock: ZUJKAS_clean_linker_0, # of connection points: 2
#     Edge 85, Type (0, 0), BuildingBlock: ZUJKAS_clean_linker_0, # of connection points: 2
#     Edge 86, Type (0, 0), BuildingBlock: ZUJKAS_clean_linker_0, # of connection points: 2
#     Edge 87, Type (0, 0), BuildingBlock: ZUJKAS_clean_linker_0, # of connection points: 2
#     Edge 88, Type (0, 0), BuildingBlock: ZUJKAS_clean_linker_0, # of connection points: 2
#     Edge 89, Type (0, 0), BuildingBlock: ZUJKAS_clean_linker_0, # of connection points: 2
#     Edge 90, Type (0, 0), BuildingBlock: ZUJKAS_clean_linker_0, # of connection points: 2
#     Edge 91, Type (0, 0), BuildingBlock: ZUJKAS_clean_linker_0, # of connection points: 2
#     Edge 92, Type (0, 0), BuildingBlock: ZUJKAS_clean_linker_0, # of connection points: 2
#     Edge 93, Type (0, 0), BuildingBlock: ZUJKAS_clean_linker_0, # of connection points: 2
#     Edge 94, Type (0, 0), BuildingBlock: ZUJKAS_clean_linker_0, # of connection points: 2
#     Edge 95, Type (0, 0), BuildingBlock: ZUJKAS_clean_linker_0, # of connection points: 2
# Relax obj value: 0.065
# Max RMSD: 0.052
# Mean RMSD: 0.052
data_MOF--net-umq--node1-QUQFOY_clean_sbu_3--edge1-ZUJKAS_clean_linker_0
_symmetry_space_group_name_H-M    P1
_symmetry_Int_Tables_number       1
_symmetry_cell_setting            triclinic
loop_
_symmetry_equiv_pos_as_xyz
'x, y, z'
_cell_length_a     87.911329
_cell_length_b     87.925272
_cell_length_c     59.67222
_cell_angle_alpha  89.963062
_cell_angle_beta   90.018641
_cell_angle_gamma 90.007309
loop_
_atom_site_label
_atom_site_type_symbol
_atom_site_fract_x
_atom_site_fract_y
_atom_site_fract_z
_atom_type_partial_charge
C0 C 0.21962 0.08892 0.10374 0.0
O1 O 0.21144 0.10069 0.10644 0.0
Cd2 Cd 0.20965 0.11547 0.13979 0.0
O3 O 0.22744 0.08351 0.11989 0.0
Cd4 Cd 0.23137 0.08899 0.1605 0.0
C5 C 0.2478 0.12293 0.14823 0.0
O6 O 0.20562 0.09705 0.16824 0.0
O7 O 0.22142 0.10099 0.19506 0.0
O8 O 0.22989 0.06186 0.16773 0.0
C9 C 0.20785 0.1018 0.18795 0.0
O10 O 0.23449 0.12773 0.1436 0.0
C11 C 0.24225 0.06104 0.17866 0.0
O12 O 0.25001 0.10911 0.1538 0.0
O13 O 0.24979 0.07328 0.18086 0.0
C14 C 0.89549 0.22026 0.10547 0.0
O15 O 0.88355 0.21233 0.10808 0.0
Cd16 Cd 0.8699 0.20876 0.14218 0.0
O17 O 0.90167 0.22698 0.12208 0.0
Cd18 Cd 0.89722 0.22891 0.16326 0.0
C19 C 0.86314 0.24627 0.15566 0.0
O20 O 0.88905 0.20288 0.16884 0.0
O21 O 0.88588 0.21749 0.19729 0.0
O22 O 0.92442 0.22653 0.16946 0.0
C23 C 0.88482 0.20426 0.18899 0.0
O24 O 0.85799 0.23326 0.15011 0.0
C25 C 0.92571 0.23849 0.18122 0.0
O26 O 0.8772 0.24811 0.16006 0.0
O27 O 0.91371 0.24626 0.1843 0.0
C28 C 0.76654 0.89831 0.10381 0.0
O29 O 0.77457 0.88636 0.10571 0.0
Cd30 Cd 0.77657 0.87086 0.13833 0.0
O31 O 0.75901 0.90344 0.12043 0.0
Cd32 Cd 0.7556 0.89704 0.16086 0.0
C33 C 0.73851 0.86359 0.14776 0.0
O34 O 0.78143 0.88867 0.16732 0.0
O35 O 0.76607 0.88431 0.19455 0.0
O36 O 0.75752 0.92402 0.16897 0.0
C37 C 0.77951 0.8836 0.18694 0.0
O38 O 0.75169 0.85874 0.14248 0.0
C39 C 0.74538 0.9248 0.18044 0.0
O40 O 0.73657 0.87732 0.15395 0.0
O41 O 0.73776 0.91261 0.18257 0.0
C42 C 0.09073 0.76957 0.10373 0.0
O43 O 0.10247 0.77785 0.10592 0.0
Cd44 Cd 0.11755 0.77961 0.13898 0.0
O45 O 0.08565 0.76187 0.12022 0.0
Cd46 Cd 0.09187 0.75862 0.16073 0.0
C47 C 0.12515 0.74156 0.14789 0.0
O48 O 0.09983 0.78459 0.16823 0.0
O49 O 0.10552 0.76829 0.19383 0.0
O50 O 0.065 0.76104 0.1691 0.0
C51 C 0.10525 0.78206 0.18752 0.0
O52 O 0.12997 0.75482 0.14298 0.0
C53 C 0.06398 0.74892 0.18056 0.0
O54 O 0.11138 0.73947 0.15374 0.0
O55 O 0.07599 0.74099 0.18251 0.0
C56 C 0.2209 0.8966 0.37627 0.0
O57 O 0.21255 0.885 0.37315 0.0
Cd58 Cd 0.21019 0.8713 0.3389 0.0
O59 O 0.22858 0.90227 0.36018 0.0
Cd60 Cd 0.23194 0.89732 0.31934 0.0
C61 C 0.24798 0.86304 0.32936 0.0
O62 O 0.20582 0.89021 0.3111 0.0
O63 O 0.22204 0.88516 0.28515 0.0
O64 O 0.23063 0.92452 0.31257 0.0
C65 C 0.20827 0.88539 0.29146 0.0
O66 O 0.23457 0.85836 0.33366 0.0
C67 C 0.24291 0.92534 0.30145 0.0
O68 O 0.25046 0.87699 0.32494 0.0
O69 O 0.25035 0.91308 0.29895 0.0
C70 C 0.09351 0.22046 0.37707 0.0
O71 O 0.1056 0.21271 0.37468 0.0
Cd72 Cd 0.12009 0.21068 0.34109 0.0
O73 O 0.08773 0.22759 0.36052 0.0
Cd74 Cd 0.09304 0.23071 0.31974 0.0
C75 C 0.12626 0.24877 0.33086 0.0
O76 O 0.10178 0.20498 0.31302 0.0
O77 O 0.10532 0.22049 0.28566 0.0
O78 O 0.06601 0.22778 0.31283 0.0
C79 C 0.10631 0.20703 0.29313 0.0
O80 O 0.13155 0.23574 0.33598 0.0
C81 C 0.06454 0.23981 0.30127 0.0
O82 O 0.11235 0.25037 0.32536 0.0
O83 O 0.07637 0.24791 0.29861 0.0
C84 C 0.76627 0.09185 0.37587 0.0
O85 O 0.77424 0.10368 0.37254 0.0
Cd86 Cd 0.77684 0.11694 0.33791 0.0
O87 O 0.75897 0.08565 0.35981 0.0
Cd88 Cd 0.75576 0.08981 0.31874 0.0
C89 C 0.73905 0.12417 0.32698 0.0
O90 O 0.78176 0.09741 0.31139 0.0
O91 O 0.76643 0.1005 0.28373 0.0
O92 O 0.75726 0.06245 0.31342 0.0
C93 C 0.77991 0.10135 0.2912 0.0
O94 O 0.75228 0.12919 0.33159 0.0
C95 C 0.74507 0.06134 0.30211 0.0
O96 O 0.73693 0.11011 0.32286 0.0
O97 O 0.73761 0.07351 0.29887 0.0
C98 C 0.8964 0.77066 0.37684 0.0
O99 O 0.88429 0.77823 0.37358 0.0
Cd100 Cd 0.87022 0.77929 0.3395 0.0
O101 O 0.9025 0.76312 0.36095 0.0
Cd102 Cd 0.89787 0.75889 0.32017 0.0
C103 C 0.86449 0.74093 0.33083 0.0
O104 O 0.88902 0.78434 0.31192 0.0
O105 O 0.88606 0.76832 0.28512 0.0
O106 O 0.925 0.76159 0.31361 0.0
C107 C 0.88477 0.78189 0.29201 0.0
O108 O 0.85902 0.75402 0.33518 0.0
C109 C 0.92652 0.7492 0.30293 0.0
O110 O 0.87851 0.73933 0.32596 0.0
O111 O 0.91469 0.74105 0.30063 0.0
C112 C 0.76655 0.89707 0.87835 0.0
O113 O 0.77444 0.88505 0.87644 0.0
Cd114 Cd 0.77613 0.86976 0.84361 0.0
O115 O 0.75918 0.90234 0.86165 0.0
Cd116 Cd 0.75592 0.89596 0.82123 0.0
C117 C 0.73792 0.86321 0.83436 0.0
O118 O 0.78163 0.88708 0.81408 0.0
O119 O 0.76526 0.88175 0.78844 0.0
O120 O 0.75905 0.92265 0.81214 0.0
C121 C 0.77899 0.88151 0.79493 0.0
O122 O 0.75103 0.85805 0.83944 0.0
C123 C 0.7468 0.9239 0.80101 0.0
O124 O 0.73623 0.877 0.82833 0.0
O125 O 0.73855 0.91208 0.79948 0.0
C126 C 0.09102 0.76683 0.87669 0.0
O127 O 0.10296 0.77474 0.87397 0.0
Cd128 Cd 0.11747 0.77626 0.84036 0.0
O129 O 0.08539 0.75926 0.86047 0.0
Cd130 Cd 0.09097 0.75558 0.81988 0.0
C131 C 0.12423 0.73808 0.83164 0.0
O132 O 0.09935 0.78128 0.8116 0.0
O133 O 0.10441 0.76473 0.78618 0.0
O134 O 0.06406 0.7582 0.81167 0.0
C135 C 0.10458 0.77854 0.79228 0.0
O136 O 0.12938 0.75128 0.83609 0.0
C137 C 0.06285 0.74585 0.80081 0.0
O138 O 0.1103 0.73619 0.82647 0.0
O139 O 0.07476 0.73775 0.79909 0.0
C140 C 0.22042 0.09222 0.87604 0.0
O141 O 0.21252 0.10417 0.87336 0.0
Cd142 Cd 0.20974 0.11801 0.83922 0.0
O143 O 0.22749 0.08626 0.85958 0.0
Cd144 Cd 0.23029 0.0911 0.81865 0.0
C145 C 0.24742 0.12515 0.82751 0.0
O146 O 0.20427 0.09909 0.81195 0.0
O147 O 0.21951 0.10245 0.78424 0.0
O148 O 0.22822 0.06392 0.81236 0.0
C149 C 0.20608 0.10331 0.79187 0.0
O150 O 0.23429 0.13019 0.8326 0.0
C151 C 0.24035 0.06272 0.80095 0.0
O152 O 0.24939 0.11114 0.82294 0.0
O153 O 0.24807 0.07478 0.79809 0.0
C154 C 0.89471 0.22107 0.87788 0.0
O155 O 0.8831 0.21265 0.87542 0.0
Cd156 Cd 0.86883 0.21011 0.84173 0.0
O157 O 0.90008 0.22857 0.86138 0.0
Cd158 Cd 0.89463 0.23111 0.82051 0.0
C159 C 0.86092 0.2479 0.83107 0.0
O160 O 0.88736 0.20478 0.81375 0.0
O161 O 0.88199 0.22046 0.78722 0.0
O162 O 0.92198 0.22996 0.81513 0.0
C163 C 0.88236 0.20683 0.7941 0.0
O164 O 0.85618 0.23462 0.83602 0.0
C165 C 0.92269 0.241 0.80146 0.0
O166 O 0.87482 0.25016 0.82606 0.0
O167 O 0.9103 0.24778 0.79697 0.0
C168 C 0.76854 0.09079 0.60498 0.0
O169 O 0.77688 0.1024 0.60803 0.0
Cd170 Cd 0.77883 0.11627 0.6422 0.0
O171 O 0.76082 0.08519 0.62107 0.0
Cd172 Cd 0.75751 0.09007 0.66192 0.0
C173 C 0.74087 0.12398 0.65166 0.0
O174 O 0.78351 0.09756 0.67021 0.0
O175 O 0.76715 0.10254 0.69601 0.0
O176 O 0.75959 0.06296 0.66865 0.0
C177 C 0.78094 0.1024 0.68982 0.0
O178 O 0.75421 0.12882 0.64725 0.0
C179 C 0.74732 0.06175 0.67973 0.0
O180 O 0.7386 0.11003 0.6563 0.0
O181 O 0.7395 0.07377 0.68223 0.0
C182 C 0.89498 0.76848 0.60656 0.0
O183 O 0.88298 0.77609 0.61037 0.0
Cd184 Cd 0.86975 0.77725 0.6453 0.0
O185 O 0.90124 0.76076 0.62211 0.0
Cd186 Cd 0.89666 0.75592 0.66259 0.0
C187 C 0.86297 0.73906 0.65226 0.0
O188 O 0.88879 0.78145 0.67281 0.0
O189 O 0.88381 0.76418 0.69726 0.0
O190 O 0.92379 0.7581 0.66913 0.0
C191 C 0.88385 0.77817 0.69212 0.0
O192 O 0.85757 0.75245 0.65043 0.0
C193 C 0.92513 0.74565 0.67972 0.0
O194 O 0.87718 0.73683 0.65469 0.0
O195 O 0.91318 0.73767 0.68199 0.0
C196 C 0.2198 0.89689 0.60445 0.0
O197 O 0.21159 0.88514 0.60707 0.0
Cd198 Cd 0.20999 0.87042 0.64052 0.0
O199 O 0.22755 0.90224 0.62071 0.0
Cd200 Cd 0.23104 0.89659 0.66134 0.0
C201 C 0.24815 0.86319 0.64954 0.0
O202 O 0.20527 0.8883 0.66955 0.0
O203 O 0.22192 0.88308 0.69486 0.0
O204 O 0.22832 0.92345 0.66946 0.0
C205 C 0.20809 0.88296 0.6888 0.0
O206 O 0.23488 0.85828 0.64493 0.0
C207 C 0.24066 0.92474 0.68035 0.0
O208 O 0.25026 0.87707 0.65479 0.0
O209 O 0.24882 0.91287 0.68213 0.0
C210 C 0.09076 0.22002 0.60462 0.0
O211 O 0.10252 0.21185 0.60744 0.0
Cd212 Cd 0.11655 0.20956 0.64141 0.0
O213 O 0.08503 0.22749 0.62087 0.0
Cd214 Cd 0.08964 0.23068 0.66188 0.0
C215 C 0.12353 0.24765 0.6516 0.0
O216 O 0.09737 0.20464 0.66844 0.0
O217 O 0.10065 0.21958 0.69644 0.0
O218 O 0.0621 0.22991 0.66497 0.0
C219 C 0.10158 0.20624 0.68855 0.0
O220 O 0.12848 0.23444 0.64671 0.0
C221 C 0.06107 0.24085 0.67876 0.0
O222 O 0.1096 0.2497 0.65667 0.0
O223 O 0.07339 0.24733 0.68447 0.0
C224 C 0.72036 0.58804 0.60044 0.0
O225 O 0.71242 0.60008 0.60133 0.0
Cd226 Cd 0.7111 0.6167 0.63264 0.0
O227 O 0.72768 0.58336 0.61758 0.0
Cd228 Cd 0.73033 0.59063 0.65791 0.0
C229 C 0.74926 0.62261 0.64313 0.0
O230 O 0.70476 0.60038 0.66311 0.0
O231 O 0.72011 0.60453 0.6905 0.0
O232 O 0.72667 0.56411 0.66779 0.0
C233 C 0.70679 0.60572 0.68256 0.0
O234 O 0.73663 0.62757 0.63563 0.0
C235 C 0.73883 0.56283 0.67912 0.0
O236 O 0.75032 0.60944 0.65185 0.0
O237 O 0.74726 0.57453 0.68044 0.0
C238 C 0.39578 0.71933 0.60319 0.0
O239 O 0.38389 0.71132 0.60591 0.0
Cd240 Cd 0.36964 0.70919 0.63974 0.0
O241 O 0.40151 0.72675 0.61949 0.0
Cd242 Cd 0.39637 0.72993 0.6603 0.0
C243 C 0.36254 0.74709 0.65021 0.0
O244 O 0.38819 0.70404 0.66767 0.0
O245 O 0.38453 0.71974 0.6947 0.0
O246 O 0.42348 0.7277 0.66726 0.0
C247 C 0.38372 0.7062 0.68755 0.0
O248 O 0.35753 0.73391 0.64529 0.0
C249 C 0.42465 0.73987 0.67857 0.0
O250 O 0.37651 0.74908 0.65512 0.0
O251 O 0.41263 0.74772 0.68099 0.0
C252 C 0.26752 0.39515 0.60446 0.0
O253 O 0.27542 0.38319 0.60708 0.0
Cd254 Cd 0.27742 0.36896 0.64092 0.0
O255 O 0.2602 0.40088 0.62085 0.0
Cd256 Cd 0.25702 0.39546 0.66163 0.0
C257 C 0.23941 0.36209 0.65091 0.0
O258 O 0.28295 0.38736 0.66903 0.0
O259 O 0.26685 0.38241 0.69521 0.0
O260 O 0.25964 0.42245 0.6692 0.0
C261 C 0.28056 0.38241 0.68863 0.0
O262 O 0.25257 0.35693 0.64615 0.0
C263 C 0.24747 0.42369 0.6805 0.0
O264 O 0.23757 0.37604 0.6559 0.0
O265 O 0.23946 0.41176 0.68273 0.0
C266 C 0.59231 0.26602 0.60341 0.0
O267 O 0.60396 0.27432 0.60636 0.0
Cd268 Cd 0.61757 0.27704 0.64063 0.0
O269 O 0.58654 0.2586 0.6197 0.0
Cd270 Cd 0.59138 0.25584 0.66068 0.0
C271 C 0.62552 0.23934 0.65147 0.0
O272 O 0.59861 0.28202 0.66811 0.0
O273 O 0.60365 0.26613 0.69454 0.0
O274 O 0.56424 0.25779 0.66739 0.0
C275 C 0.60337 0.27982 0.68786 0.0
O276 O 0.63029 0.25265 0.64678 0.0
C277 C 0.56314 0.24568 0.67886 0.0
O278 O 0.61154 0.23701 0.65588 0.0
O279 O 0.57523 0.23797 0.68153 0.0
C280 C 0.7178 0.39593 0.87639 0.0
O281 O 0.70937 0.38438 0.87341 0.0
Cd282 Cd 0.70714 0.37052 0.83927 0.0
O283 O 0.72545 0.40152 0.86022 0.0
Cd284 Cd 0.72846 0.39672 0.81931 0.0
C285 C 0.74505 0.36275 0.8293 0.0
O286 O 0.70241 0.38925 0.81134 0.0
O287 O 0.71862 0.38428 0.78533 0.0
O288 O 0.7263 0.42384 0.81272 0.0
C289 C 0.70487 0.38439 0.79171 0.0
O290 O 0.73172 0.35797 0.83389 0.0
C291 C 0.73847 0.42509 0.80144 0.0
O292 O 0.74735 0.3767 0.82464 0.0
O293 O 0.7463 0.41309 0.79876 0.0
C294 C 0.59114 0.71837 0.87669 0.0
O295 O 0.60321 0.71073 0.87361 0.0
Cd296 Cd 0.61733 0.70959 0.83954 0.0
O297 O 0.58516 0.72588 0.86066 0.0
Cd298 Cd 0.59014 0.73 0.81997 0.0
C299 C 0.62345 0.74786 0.83113 0.0
O300 O 0.59894 0.70448 0.81129 0.0
O301 O 0.60227 0.72098 0.78514 0.0
O302 O 0.56308 0.7273 0.81288 0.0
C303 C 0.60333 0.70727 0.79152 0.0
O304 O 0.62883 0.73472 0.8354 0.0
C305 C 0.56165 0.7397 0.80218 0.0
O306 O 0.60946 0.74955 0.82617 0.0
O307 O 0.57349 0.74788 0.80016 0.0
C308 C 0.26752 0.59026 0.87789 0.0
O309 O 0.27544 0.60223 0.87536 0.0
Cd310 Cd 0.27763 0.61671 0.84176 0.0
O311 O 0.26025 0.58453 0.86144 0.0
Cd312 Cd 0.25706 0.58976 0.82063 0.0
C313 C 0.23955 0.62331 0.83168 0.0
O314 O 0.28282 0.59827 0.81374 0.0
O315 O 0.26732 0.60191 0.78642 0.0
O316 O 0.25955 0.5627 0.81365 0.0
C317 C 0.28079 0.60287 0.79389 0.0
O318 O 0.25267 0.62843 0.83672 0.0
C319 C 0.2474 0.56143 0.80229 0.0
O320 O 0.23775 0.60941 0.82627 0.0
O321 O 0.23946 0.57339 0.79978 0.0
C322 C 0.39664 0.26695 0.87638 0.0
O323 O 0.38485 0.27504 0.87337 0.0
Cd324 Cd 0.37101 0.27729 0.83922 0.0
O325 O 0.40247 0.25949 0.8602 0.0
Cd326 Cd 0.39751 0.25632 0.81931 0.0
C327 C 0.36363 0.23939 0.82905 0.0
O328 O 0.38975 0.28229 0.81143 0.0
O329 O 0.3849 0.2661 0.78537 0.0
O330 O 0.42456 0.2586 0.81203 0.0
C331 C 0.38489 0.27983 0.7918 0.0
O332 O 0.35868 0.25265 0.83359 0.0
C333 C 0.42576 0.24632 0.80101 0.0
O334 O 0.37764 0.23724 0.82456 0.0
O335 O 0.41377 0.23839 0.79884 0.0
C336 C 0.26835 0.39923 0.37646 0.0
O337 O 0.2765 0.38749 0.37339 0.0
Cd338 Cd 0.2775 0.37307 0.33964 0.0
O339 O 0.26036 0.4047 0.36055 0.0
Cd340 Cd 0.2562 0.39933 0.32 0.0
C341 C 0.23926 0.36585 0.33207 0.0
O342 O 0.28182 0.39119 0.31065 0.0
O343 O 0.26485 0.3861 0.28585 0.0
O344 O 0.25828 0.42636 0.31224 0.0
C345 C 0.27875 0.38593 0.29146 0.0
O346 O 0.25258 0.36085 0.33614 0.0
C347 C 0.24574 0.42746 0.30182 0.0
O348 O 0.23714 0.37977 0.32702 0.0
O349 O 0.23785 0.41542 0.30006 0.0
C350 C 0.59054 0.26677 0.37486 0.0
O351 O 0.60219 0.27507 0.37191 0.0
Cd352 Cd 0.61613 0.27723 0.33783 0.0
O353 O 0.58489 0.25918 0.35868 0.0
Cd354 Cd 0.58975 0.25615 0.31776 0.0
C355 C 0.6236 0.23929 0.32756 0.0
O356 O 0.59749 0.28213 0.30987 0.0
O357 O 0.60245 0.2659 0.28391 0.0
O358 O 0.56267 0.25857 0.31094 0.0
C359 C 0.60245 0.27964 0.29031 0.0
O360 O 0.62849 0.25257 0.33219 0.0
C361 C 0.56133 0.24637 0.29976 0.0
O362 O 0.60961 0.23708 0.323 0.0
O363 O 0.57327 0.23842 0.29721 0.0
C364 C 0.7226 0.59079 0.3768 0.0
O365 O 0.71458 0.60275 0.3752 0.0
Cd366 Cd 0.71256 0.61819 0.34255 0.0
O367 O 0.72986 0.58571 0.35989 0.0
Cd368 Cd 0.73259 0.59226 0.31941 0.0
C369 C 0.75073 0.62482 0.33265 0.0
O370 O 0.70664 0.60094 0.31311 0.0
O371 O 0.72263 0.60638 0.287 0.0
O372 O 0.73017 0.56517 0.31255 0.0
C373 C 0.70899 0.60652 0.29386 0.0
O374 O 0.73764 0.62988 0.33799 0.0
C375 C 0.74123 0.56426 0.29896 0.0
O376 O 0.75244 0.61107 0.32644 0.0
O377 O 0.74858 0.57642 0.2951 0.0
C378 C 0.39579 0.71977 0.37466 0.0
O379 O 0.38418 0.71144 0.37153 0.0
Cd380 Cd 0.37061 0.709 0.33718 0.0
O381 O 0.40155 0.72737 0.35855 0.0
Cd382 Cd 0.39674 0.73057 0.31761 0.0
C383 C 0.36249 0.74677 0.3273 0.0
O384 O 0.3896 0.70444 0.3096 0.0
O385 O 0.3846 0.72054 0.28346 0.0
O386 O 0.42398 0.72923 0.31116 0.0
C387 C 0.38479 0.7068 0.28992 0.0
O388 O 0.35775 0.7334 0.33163 0.0
C389 C 0.42484 0.74145 0.29991 0.0
O390 O 0.37647 0.74918 0.32296 0.0
O391 O 0.41258 0.74886 0.29715 0.0
C392 C 0.26724 0.59083 0.10494 0.0
O393 O 0.27563 0.60248 0.10735 0.0
Cd394 Cd 0.27758 0.61725 0.14067 0.0
O395 O 0.25943 0.58572 0.1213 0.0
Cd396 Cd 0.25601 0.59172 0.16182 0.0
C397 C 0.23967 0.62549 0.14939 0.0
O398 O 0.28212 0.59903 0.16944 0.0
O399 O 0.26605 0.60468 0.19533 0.0
O400 O 0.2574 0.56464 0.16939 0.0
C401 C 0.27979 0.60426 0.18888 0.0
O402 O 0.25303 0.63014 0.14473 0.0
C403 C 0.24523 0.56396 0.1808 0.0
O404 O 0.23733 0.61169 0.15493 0.0
O405 O 0.23783 0.57626 0.18319 0.0
C406 C 0.39548 0.26812 0.10395 0.0
O407 O 0.38358 0.27616 0.10618 0.0
Cd408 Cd 0.36849 0.27763 0.13927 0.0
O409 O 0.40074 0.2605 0.12041 0.0
Cd410 Cd 0.39467 0.25701 0.1609 0.0
C411 C 0.36164 0.23942 0.1481 0.0
O412 O 0.38612 0.28275 0.16856 0.0
O413 O 0.38085 0.26628 0.1941 0.0
O414 O 0.42148 0.25981 0.16948 0.0
C415 C 0.38071 0.28005 0.18781 0.0
O416 O 0.35655 0.25259 0.14328 0.0
C417 C 0.42271 0.24749 0.18043 0.0
O418 O 0.37547 0.23758 0.15386 0.0
O419 O 0.41082 0.23934 0.18211 0.0
C420 C 0.72132 0.39327 0.10529 0.0
O421 O 0.71324 0.38151 0.1086 0.0
Cd422 Cd 0.71068 0.36862 0.14348 0.0
O423 O 0.72852 0.39948 0.12142 0.0
Cd424 Cd 0.73125 0.39571 0.16267 0.0
C425 C 0.74863 0.36193 0.1549 0.0
O426 O 0.70507 0.38817 0.16976 0.0
O427 O 0.72064 0.3842 0.19691 0.0
O428 O 0.72999 0.42326 0.16507 0.0
C429 C 0.70707 0.38386 0.18977 0.0
O430 O 0.73544 0.35676 0.15039 0.0
C431 C 0.74088 0.42465 0.17889 0.0
O432 O 0.75064 0.37604 0.1587 0.0
O433 O 0.74754 0.41251 0.18499 0.0
C434 C 0.5901 0.71871 0.10551 0.0
O435 O 0.60191 0.71069 0.10871 0.0
Cd436 Cd 0.61638 0.71002 0.14245 0.0
O437 O 0.58458 0.72678 0.12129 0.0
Cd438 Cd 0.58999 0.73136 0.16178 0.0
C439 C 0.62337 0.74839 0.14922 0.0
O440 O 0.59819 0.70579 0.17133 0.0
O441 O 0.60325 0.72289 0.19598 0.0
O442 O 0.56295 0.72921 0.16939 0.0
C443 C 0.60337 0.70894 0.19055 0.0
O444 O 0.62844 0.73506 0.14542 0.0
C445 C 0.56181 0.74172 0.17986 0.0
O446 O 0.60946 0.75047 0.15429 0.0
O447 O 0.57383 0.74964 0.18169 0.0
H448 H 0.3316 0.23918 0.13629 0.0
H449 H 0.31429 0.21748 0.13563 0.0
H450 H 0.35068 0.18791 0.15685 0.0
H451 H 0.36813 0.2096 0.15782 0.0
H452 H 0.31679 0.19013 0.11068 0.0
H453 H 0.3165 0.17966 0.20269 0.0
H454 H 0.32347 0.19715 0.19061 0.0
H455 H 0.33488 0.18024 0.18953 0.0
C456 C 0.33597 0.22808 0.14085 0.0
C457 C 0.35125 0.22616 0.14723 0.0
C458 C 0.32605 0.21569 0.14042 0.0
C459 C 0.33117 0.20115 0.14645 0.0
C460 C 0.34646 0.1991 0.15251 0.0
H461 H 0.27772 0.11737 0.15854 0.0
H462 H 0.299 0.13533 0.15698 0.0
C463 C 0.35642 0.2115 0.15294 0.0
C464 C 0.32042 0.18821 0.14626 0.0
H465 H 0.30183 0.16315 0.18033 0.0
C466 C 0.31357 0.18417 0.12588 0.0
C467 C 0.31633 0.18043 0.16611 0.0
C468 C 0.32306 0.18461 0.18854 0.0
C469 C 0.30255 0.17266 0.12485 0.0
C470 C 0.2981 0.16521 0.1448 0.0
C471 C 0.30528 0.16892 0.16508 0.0
C472 C 0.28538 0.15419 0.1452 0.0
C473 C 0.29574 0.1686 0.10242 0.0
C474 C 0.27068 0.15893 0.13935 0.0
C475 C 0.25852 0.14875 0.14025 0.0
C476 C 0.2608 0.13362 0.14713 0.0
C477 C 0.27557 0.12892 0.15309 0.0
C478 C 0.28774 0.13915 0.15223 0.0
H479 H 0.3033 0.17202 0.08838 0.0
H480 H 0.29351 0.15619 0.10122 0.0
H481 H 0.28477 0.17467 0.10037 0.0
H482 H 0.26857 0.17059 0.13434 0.0
H483 H 0.24731 0.1528 0.13563 0.0
H484 H 0.86982 0.27611 0.16511 0.0
H485 H 0.85199 0.29748 0.16752 0.0
H486 H 0.81482 0.2674 0.1515 0.0
H487 H 0.8324 0.24603 0.14918 0.0
H488 H 0.83166 0.30843 0.1336 0.0
H489 H 0.80086 0.2889 0.20938 0.0
H490 H 0.81925 0.28149 0.20147 0.0
H491 H 0.8023 0.27464 0.18796 0.0
C492 C 0.85784 0.27403 0.16218 0.0
C493 C 0.85254 0.25933 0.15706 0.0
C494 C 0.84769 0.28626 0.16355 0.0
C495 C 0.83209 0.28394 0.16004 0.0
C496 C 0.82679 0.26935 0.1547 0.0
H497 H 0.74831 0.33124 0.14794 0.0
H498 H 0.76966 0.31359 0.14996 0.0
C499 C 0.83689 0.25716 0.15326 0.0
C500 C 0.82124 0.29677 0.16135 0.0
H501 H 0.78875 0.30825 0.1876 0.0
C502 C 0.8224 0.30856 0.14559 0.0
C503 C 0.80923 0.29686 0.17709 0.0
C504 C 0.80788 0.28487 0.19508 0.0
C505 C 0.81135 0.32007 0.14442 0.0
C506 C 0.79902 0.31983 0.15962 0.0
C507 C 0.79819 0.30834 0.17589 0.0
C508 C 0.78632 0.33082 0.15812 0.0
C509 C 0.81257 0.33201 0.12633 0.0
C510 C 0.78863 0.34637 0.16215 0.0
C511 C 0.77642 0.35654 0.16099 0.0
C512 C 0.76169 0.3513 0.15587 0.0
C513 C 0.75948 0.33569 0.1519 0.0
C514 C 0.77166 0.32556 0.15307 0.0
H515 H 0.82116 0.32895 0.11344 0.0
H516 H 0.80141 0.3337 0.11795 0.0
H517 H 0.81598 0.34299 0.13397 0.0
H518 H 0.79984 0.3506 0.16642 0.0
H519 H 0.77851 0.36848 0.16423 0.0
H520 H 0.65347 0.74819 0.13772 0.0
H521 H 0.67099 0.76971 0.13662 0.0
H522 H 0.63479 0.7999 0.15651 0.0
H523 H 0.61711 0.77839 0.15787 0.0
H524 H 0.66869 0.79702 0.11082 0.0
H525 H 0.66904 0.80804 0.20269 0.0
H526 H 0.66207 0.79047 0.19088 0.0
H527 H 0.65068 0.80739 0.18942 0.0
C528 C 0.64919 0.75939 0.14189 0.0
C529 C 0.63388 0.76154 0.14801 0.0
C530 C 0.65923 0.77167 0.14121 0.0
C531 C 0.65421 0.78633 0.14674 0.0
C532 C 0.63892 0.78861 0.15253 0.0
H533 H 0.70872 0.86945 0.15849 0.0
H534 H 0.68722 0.85174 0.15703 0.0
C535 C 0.62883 0.77632 0.15319 0.0
C536 C 0.66511 0.79916 0.14637 0.0
H537 H 0.684 0.82415 0.18014 0.0
C538 C 0.67199 0.80303 0.12594 0.0
C539 C 0.66929 0.80699 0.16612 0.0
C540 C 0.6625 0.803 0.18859 0.0
C541 C 0.68313 0.81442 0.12477 0.0
C542 C 0.68769 0.8219 0.14464 0.0
C543 C 0.68048 0.81836 0.16496 0.0
C544 C 0.70054 0.83278 0.14491 0.0
C545 C 0.68993 0.81832 0.10227 0.0
C546 C 0.71515 0.8279 0.13883 0.0
C547 C 0.72743 0.83794 0.13964 0.0
C548 C 0.72537 0.85306 0.1467 0.0
C549 C 0.7107 0.8579 0.15291 0.0
C550 C 0.69841 0.84781 0.1521 0.0
H551 H 0.68224 0.81503 0.08831 0.0
H552 H 0.6924 0.83068 0.10098 0.0
H553 H 0.70076 0.81201 0.10015 0.0
H554 H 0.7171 0.81624 0.13372 0.0
H555 H 0.73857 0.83378 0.13486 0.0
H556 H 0.24047 0.65557 0.13783 0.0
H557 H 0.21934 0.67356 0.13696 0.0
H558 H 0.18851 0.63809 0.15766 0.0
H559 H 0.20962 0.61997 0.15882 0.0
H560 H 0.19207 0.6719 0.11156 0.0
H561 H 0.18098 0.6725 0.20337 0.0
H562 H 0.19834 0.66503 0.19156 0.0
H563 H 0.18112 0.65409 0.1903 0.0
C564 C 0.22922 0.65155 0.14224 0.0
C565 C 0.22677 0.63632 0.14851 0.0
C566 C 0.21715 0.66186 0.1417 0.0
C567 C 0.20242 0.65719 0.14751 0.0
C568 C 0.19985 0.64197 0.15348 0.0
H569 H 0.11941 0.7117 0.15831 0.0
H570 H 0.13727 0.69034 0.15707 0.0
C571 C 0.21193 0.63162 0.15403 0.0
C572 C 0.1898 0.66832 0.1471 0.0
H573 H 0.16481 0.68736 0.18068 0.0
C574 C 0.18606 0.67525 0.12664 0.0
C575 C 0.18195 0.67258 0.1668 0.0
C576 C 0.18582 0.66578 0.18932 0.0
C577 C 0.17475 0.68646 0.12538 0.0
C578 C 0.16719 0.69103 0.14518 0.0
C579 C 0.17064 0.68382 0.16555 0.0
C580 C 0.15625 0.70382 0.14532 0.0
C581 C 0.17096 0.6933 0.10286 0.0
C582 C 0.16107 0.71848 0.13937 0.0
C583 C 0.15094 0.73068 0.14007 0.0
C584 C 0.13578 0.7285 0.14687 0.0
C585 C 0.13099 0.71378 0.15292 0.0
C586 C 0.14116 0.70156 0.15224 0.0
H587 H 0.1744 0.68568 0.0889 0.0
H588 H 0.1586 0.69569 0.10141 0.0
H589 H 0.1772 0.70419 0.1009 0.0
H590 H 0.17276 0.72051 0.13445 0.0
H591 H 0.15506 0.74186 0.1354 0.0
H592 H 0.2467 0.8325 0.3377 0.0
H593 H 0.26755 0.8142 0.33674 0.0
H594 H 0.29891 0.85005 0.31944 0.0
H595 H 0.27812 0.86856 0.32056 0.0
H596 H 0.28652 0.80774 0.29957 0.0
H597 H 0.31954 0.82853 0.373 0.0
H598 H 0.29997 0.83383 0.36821 0.0
H599 H 0.31488 0.84254 0.35214 0.0
C600 C 0.25803 0.83656 0.33382 0.0
C601 C 0.26073 0.85203 0.32925 0.0
C602 C 0.26993 0.82606 0.33325 0.0
C603 C 0.28477 0.83081 0.32825 0.0
C604 C 0.28756 0.84621 0.3237 0.0
H605 H 0.36824 0.77693 0.31897 0.0
H606 H 0.34986 0.79786 0.31804 0.0
C607 C 0.27565 0.85675 0.32425 0.0
C608 C 0.29715 0.81945 0.32712 0.0
H609 H 0.33004 0.80808 0.35256 0.0
C610 C 0.29606 0.80782 0.31111 0.0
C611 C 0.30961 0.81969 0.34211 0.0
C612 C 0.3111 0.83173 0.35998 0.0
C613 C 0.30705 0.79631 0.30981 0.0
C614 C 0.31929 0.7963 0.32519 0.0
C615 C 0.32061 0.80813 0.34083 0.0
C616 C 0.33045 0.78372 0.3259 0.0
C617 C 0.3055 0.78428 0.29193 0.0
C618 C 0.32562 0.76891 0.33099 0.0
C619 C 0.33605 0.75695 0.33154 0.0
C620 C 0.35155 0.75958 0.32711 0.0
C621 C 0.35639 0.7745 0.32237 0.0
C622 C 0.34592 0.78648 0.32185 0.0
H623 H 0.29817 0.78819 0.27789 0.0
H624 H 0.31678 0.78102 0.2851 0.0
H625 H 0.30018 0.77399 0.29932 0.0
H626 H 0.31377 0.76662 0.33461 0.0
H627 H 0.33192 0.74564 0.33538 0.0
H628 H 0.23958 0.33571 0.34321 0.0
H629 H 0.21819 0.31802 0.3436 0.0
H630 H 0.1879 0.35412 0.32355 0.0
H631 H 0.20929 0.37196 0.32289 0.0
H632 H 0.19068 0.31995 0.36886 0.0
H633 H 0.18038 0.32015 0.27677 0.0
H634 H 0.1978 0.32719 0.28899 0.0
H635 H 0.18076 0.33839 0.29037 0.0
C636 C 0.22839 0.33993 0.33886 0.0
C637 C 0.22617 0.35525 0.3329 0.0
C638 C 0.21617 0.3298 0.33914 0.0
C639 C 0.20153 0.33474 0.33335 0.0
C640 C 0.19918 0.35005 0.32772 0.0
H641 H 0.11952 0.27842 0.32026 0.0
H642 H 0.13661 0.30042 0.32184 0.0
C643 C 0.2114 0.36023 0.32746 0.0
C644 C 0.1888 0.32374 0.33332 0.0
H645 H 0.16445 0.30464 0.29877 0.0
C646 C 0.18486 0.31666 0.35357 0.0
C647 C 0.1812 0.31958 0.31335 0.0
C648 C 0.18526 0.32661 0.29106 0.0
C649 C 0.17369 0.3053 0.35434 0.0
C650 C 0.16648 0.30073 0.33425 0.0
C651 C 0.17003 0.30817 0.31412 0.0
C652 C 0.15602 0.28756 0.33357 0.0
C653 C 0.16974 0.29822 0.37664 0.0
C654 C 0.16137 0.27305 0.3393 0.0
C655 C 0.1517 0.2605 0.33839 0.0
C656 C 0.13646 0.26218 0.3316 0.0
C657 C 0.13116 0.27673 0.32563 0.0
C658 C 0.14089 0.28931 0.32652 0.0
H659 H 0.17277 0.30584 0.3908 0.0
H660 H 0.15742 0.2955 0.37765 0.0
H661 H 0.17623 0.28749 0.37868 0.0
H662 H 0.1731 0.27142 0.34431 0.0
H663 H 0.1562 0.24946 0.343 0.0
H664 H 0.7396 0.15477 0.3347 0.0
H665 H 0.71833 0.17255 0.33362 0.0
H666 H 0.68783 0.13593 0.3166 0.0
H667 H 0.70907 0.11792 0.31785 0.0
H668 H 0.699 0.17862 0.29671 0.0
H669 H 0.66698 0.15683 0.37053 0.0
H670 H 0.68665 0.15201 0.36547 0.0
H671 H 0.67187 0.14306 0.34945 0.0
C672 C 0.72838 0.15043 0.33081 0.0
C673 C 0.72605 0.13489 0.32642 0.0
C674 C 0.71624 0.16064 0.33019 0.0
C675 C 0.70151 0.15552 0.32528 0.0
C676 C 0.69909 0.14005 0.32079 0.0
H677 H 0.61756 0.20924 0.31871 0.0
H678 H 0.63581 0.18821 0.3169 0.0
C679 C 0.71125 0.1298 0.3214 0.0
C680 C 0.68884 0.16659 0.32435 0.0
H681 H 0.65618 0.17744 0.35084 0.0
C682 C 0.68959 0.17833 0.30847 0.0
C683 C 0.67656 0.16609 0.33964 0.0
C684 C 0.67543 0.15391 0.35737 0.0
C685 C 0.67849 0.18976 0.30766 0.0
C686 C 0.66648 0.18955 0.3234 0.0
C687 C 0.66545 0.17756 0.33885 0.0
C688 C 0.65536 0.20214 0.32481 0.0
C689 C 0.67972 0.20197 0.28998 0.0
C690 C 0.66031 0.21684 0.33028 0.0
C691 C 0.64997 0.22884 0.33136 0.0
C692 C 0.63442 0.22638 0.32708 0.0
C693 C 0.62945 0.21155 0.32202 0.0
C694 C 0.63984 0.19952 0.32098 0.0
H695 H 0.68687 0.19824 0.27564 0.0
H696 H 0.66832 0.20523 0.28356 0.0
H697 H 0.68509 0.21222 0.29742 0.0
H698 H 0.67221 0.21902 0.33373 0.0
H699 H 0.6542 0.24007 0.33543 0.0
H700 H 0.78033 0.61868 0.32107 0.0
H701 H 0.80205 0.63614 0.32222 0.0
H702 H 0.77287 0.67177 0.347 0.0
H703 H 0.75121 0.65448 0.34615 0.0
H704 H 0.80517 0.664 0.29946 0.0
H705 H 0.80842 0.67216 0.39137 0.0
H706 H 0.79801 0.65668 0.3787 0.0
H707 H 0.78969 0.67535 0.38034 0.0
C708 C 0.77856 0.6302 0.32692 0.0
C709 C 0.76402 0.63516 0.3336 0.0
C710 C 0.79098 0.64015 0.32755 0.0
C711 C 0.7891 0.65515 0.33505 0.0
C712 C 0.77462 0.66013 0.34163 0.0
H713 H 0.83442 0.74012 0.34224 0.0
H714 H 0.81758 0.71808 0.34312 0.0
C715 C 0.76223 0.65024 0.34099 0.0
C716 C 0.80204 0.66591 0.33513 0.0
H717 H 0.82132 0.69066 0.36877 0.0
C718 C 0.80891 0.66967 0.31464 0.0
C719 C 0.80688 0.67322 0.35499 0.0
C720 C 0.80047 0.66905 0.37763 0.0
C721 C 0.81996 0.68117 0.31331 0.0
C722 C 0.82433 0.68891 0.33305 0.0
C723 C 0.81787 0.68474 0.35365 0.0
C724 C 0.8348 0.70206 0.33252 0.0
C725 C 0.82636 0.68545 0.29071 0.0
C726 C 0.85011 0.7003 0.32644 0.0
C727 C 0.85982 0.71291 0.32591 0.0
C728 C 0.85436 0.72747 0.3315 0.0
C729 C 0.83902 0.7291 0.33777 0.0
C730 C 0.82937 0.71652 0.33833 0.0
H731 H 0.81987 0.6802 0.27673 0.0
H732 H 0.82629 0.69799 0.2885 0.0
H733 H 0.83833 0.68153 0.2896 0.0
H734 H 0.85456 0.68918 0.3222 0.0
H735 H 0.87158 0.71124 0.32109 0.0
H736 H 0.70832 0.8696 0.82314 0.0
H737 H 0.68651 0.85226 0.82418 0.0
H738 H 0.71557 0.81628 0.84826 0.0
H739 H 0.73734 0.83346 0.84752 0.0
H740 H 0.68323 0.82463 0.80095 0.0
H741 H 0.68008 0.81569 0.89273 0.0
H742 H 0.69055 0.83123 0.88029 0.0
H743 H 0.69877 0.8125 0.88157 0.0
C744 C 0.71005 0.85803 0.82882 0.0
C745 C 0.72458 0.85294 0.83533 0.0
C746 C 0.69758 0.84815 0.82938 0.0
C747 C 0.6994 0.83309 0.83664 0.0
C748 C 0.71387 0.82797 0.84308 0.0
H749 H 0.65351 0.74839 0.8426 0.0
H750 H 0.67049 0.77031 0.84382 0.0
C751 C 0.72632 0.8378 0.8425 0.0
C752 C 0.68641 0.8224 0.83657 0.0
H753 H 0.66698 0.79751 0.86985 0.0
C754 C 0.67948 0.81886 0.81604 0.0
C755 C 0.68154 0.81495 0.85632 0.0
C756 C 0.68801 0.81888 0.87901 0.0
C757 C 0.66834 0.80746 0.81455 0.0
C758 C 0.66394 0.79959 0.83417 0.0
C759 C 0.67046 0.80353 0.85482 0.0
C760 C 0.65337 0.78652 0.83344 0.0
C761 C 0.66188 0.80341 0.79189 0.0
C762 C 0.63807 0.78842 0.82736 0.0
C763 C 0.62829 0.77588 0.82662 0.0
C764 C 0.63366 0.76124 0.832 0.0
C765 C 0.64898 0.75947 0.83828 0.0
C766 C 0.65871 0.77199 0.83904 0.0
H767 H 0.6684 0.80872 0.77798 0.0
H768 H 0.66184 0.79089 0.78948 0.0
H769 H 0.64995 0.80745 0.79085 0.0
H770 H 0.6337 0.7996 0.82328 0.0
H771 H 0.61654 0.77766 0.82181 0.0
H772 H 0.15435 0.73792 0.84287 0.0
H773 H 0.17171 0.71627 0.84333 0.0
H774 H 0.13524 0.68659 0.82277 0.0
H775 H 0.11773 0.70825 0.82204 0.0
H776 H 0.16914 0.68885 0.8686 0.0
H777 H 0.16941 0.67846 0.77655 0.0
H778 H 0.16257 0.696 0.78861 0.0
H779 H 0.15109 0.67914 0.78989 0.0
C780 C 0.14998 0.72681 0.83841 0.0
C781 C 0.13465 0.72485 0.83231 0.0
C782 C 0.15992 0.71445 0.83872 0.0
C783 C 0.15478 0.6999 0.83285 0.0
C784 C 0.13947 0.6978 0.82702 0.0
H785 H 0.20984 0.61699 0.82088 0.0
H786 H 0.1881 0.63443 0.82214 0.0
C787 C 0.12947 0.71018 0.82672 0.0
C788 C 0.16557 0.68699 0.83301 0.0
H789 H 0.18452 0.6623 0.79883 0.0
C790 C 0.17244 0.68296 0.85338 0.0
C791 C 0.16974 0.6793 0.81313 0.0
C792 C 0.16293 0.68345 0.79073 0.0
C793 C 0.18362 0.67161 0.85436 0.0
C794 C 0.18821 0.66432 0.83437 0.0
C795 C 0.18096 0.66796 0.81411 0.0
C796 C 0.20121 0.65365 0.83392 0.0
C797 C 0.19049 0.66758 0.87677 0.0
C798 C 0.21577 0.65878 0.8398 0.0
C799 C 0.22818 0.64891 0.83907 0.0
C800 C 0.2263 0.6337 0.83232 0.0
C801 C 0.21169 0.62861 0.82623 0.0
C802 C 0.19926 0.63854 0.82693 0.0
H803 H 0.18283 0.67076 0.89082 0.0
H804 H 0.19298 0.65522 0.87788 0.0
H805 H 0.20132 0.6739 0.87892 0.0
H806 H 0.21757 0.67049 0.84477 0.0
H807 H 0.23926 0.65325 0.84377 0.0
H808 H 0.3331 0.23999 0.8374 0.0
H809 H 0.31518 0.21883 0.83592 0.0
H810 H 0.35159 0.18832 0.81803 0.0
H811 H 0.36973 0.20944 0.81964 0.0
H812 H 0.3092 0.20011 0.7981 0.0
H813 H 0.33025 0.16681 0.87119 0.0
H814 H 0.33518 0.18654 0.86691 0.0
H815 H 0.34417 0.17201 0.85048 0.0
C816 C 0.33736 0.22878 0.83327 0.0
C817 C 0.35288 0.22642 0.82868 0.0
C818 C 0.32709 0.2167 0.83242 0.0
C819 C 0.3321 0.20201 0.82708 0.0
C820 C 0.34755 0.19955 0.82252 0.0
H821 H 0.27735 0.11874 0.81824 0.0
H822 H 0.29865 0.1367 0.81662 0.0
C823 C 0.35788 0.21164 0.82336 0.0
C824 C 0.32093 0.18947 0.82563 0.0
H825 H 0.30959 0.15655 0.85101 0.0
C826 C 0.30932 0.19054 0.80959 0.0
C827 C 0.32122 0.17696 0.84054 0.0
C828 C 0.33329 0.17548 0.85839 0.0
C829 C 0.2978 0.17955 0.80828 0.0
C830 C 0.29778 0.16734 0.82369 0.0
C831 C 0.30966 0.16597 0.83927 0.0
C832 C 0.28501 0.15641 0.82473 0.0
C833 C 0.28572 0.18115 0.79046 0.0
C834 C 0.27038 0.16154 0.83019 0.0
C835 C 0.25822 0.15137 0.83115 0.0
C836 C 0.26046 0.13581 0.82677 0.0
C837 C 0.27521 0.13065 0.82161 0.0
C838 C 0.2874 0.14088 0.8207 0.0
H839 H 0.28966 0.18837 0.77633 0.0
H840 H 0.28232 0.16986 0.78377 0.0
H841 H 0.27551 0.1866 0.79786 0.0
H842 H 0.26837 0.17345 0.8338 0.0
H843 H 0.24705 0.15574 0.8353 0.0
H844 H 0.86661 0.27787 0.82122 0.0
H845 H 0.84828 0.29883 0.82006 0.0
H846 H 0.81239 0.26806 0.83933 0.0
H847 H 0.8305 0.24705 0.84036 0.0
H848 H 0.80566 0.28664 0.80166 0.0
H849 H 0.82761 0.32032 0.8737 0.0
H850 H 0.84129 0.31521 0.85262 0.0
H851 H 0.83263 0.30062 0.86937 0.0
C852 C 0.85483 0.27557 0.82534 0.0
C853 C 0.85004 0.26077 0.83092 0.0
C854 C 0.8444 0.28758 0.82476 0.0
C855 C 0.82904 0.285 0.82984 0.0
C856 C 0.82423 0.27028 0.83543 0.0
H857 H 0.74413 0.33229 0.83821 0.0
H858 H 0.76514 0.31419 0.8373 0.0
C859 C 0.83461 0.25829 0.83603 0.0
C860 C 0.81777 0.29746 0.82866 0.0
H861 H 0.80685 0.33062 0.8537 0.0
C862 C 0.80594 0.29628 0.81298 0.0
C863 C 0.81826 0.31006 0.84336 0.0
C864 C 0.83055 0.31166 0.86086 0.0
C865 C 0.79445 0.3073 0.81175 0.0
C866 C 0.79467 0.31967 0.82689 0.0
C867 C 0.80672 0.32109 0.84217 0.0
C868 C 0.78209 0.33082 0.82777 0.0
C869 C 0.78218 0.30563 0.79423 0.0
C870 C 0.78476 0.34626 0.82333 0.0
C871 C 0.77276 0.3567 0.82393 0.0
C872 C 0.75791 0.35186 0.82914 0.0
C873 C 0.75538 0.33641 0.83399 0.0
C874 C 0.76736 0.32601 0.83337 0.0
H875 H 0.78591 0.2982 0.78021 0.0
H876 H 0.77199 0.30037 0.80199 0.0
H877 H 0.77883 0.31687 0.7873 0.0
H878 H 0.79609 0.35019 0.81914 0.0
H879 H 0.77511 0.36852 0.82019 0.0
H880 H 0.61976 0.20926 0.66047 0.0
H881 H 0.63816 0.18834 0.66195 0.0
H882 H 0.67426 0.21944 0.64484 0.0
H883 H 0.6561 0.24038 0.6435 0.0
H884 H 0.65816 0.17781 0.62771 0.0
H885 H 0.68968 0.19848 0.70223 0.0
H886 H 0.67105 0.2055 0.69475 0.0
H887 H 0.68767 0.2125 0.68054 0.0
C888 C 0.63162 0.21166 0.65706 0.0
C889 C 0.63646 0.22653 0.652 0.0
C890 C 0.64209 0.19969 0.6579 0.0
C891 C 0.65757 0.20242 0.65387 0.0
C892 C 0.6624 0.21717 0.64846 0.0
H893 H 0.74171 0.15448 0.64293 0.0
H894 H 0.72061 0.17249 0.6437 0.0
C895 C 0.65197 0.22912 0.64758 0.0
C896 C 0.66876 0.18988 0.65493 0.0
H897 H 0.70156 0.17889 0.68086 0.0
C898 C 0.66756 0.17791 0.63948 0.0
C899 C 0.68095 0.19007 0.67038 0.0
C900 C 0.68238 0.20224 0.68807 0.0
C901 C 0.67866 0.16644 0.63843 0.0
C902 C 0.6911 0.1669 0.65345 0.0
C903 C 0.69204 0.17864 0.66929 0.0
C904 C 0.70363 0.1557 0.65244 0.0
C905 C 0.67731 0.15426 0.62074 0.0
C906 C 0.70106 0.14029 0.65719 0.0
C907 C 0.71312 0.12991 0.65676 0.0
C908 C 0.72797 0.13481 0.65166 0.0
C909 C 0.73044 0.15029 0.64689 0.0
C910 C 0.7184 0.16062 0.64734 0.0
H911 H 0.6688 0.15726 0.60769 0.0
H912 H 0.68846 0.15226 0.61251 0.0
H913 H 0.67369 0.14345 0.62874 0.0
H914 H 0.68977 0.13632 0.66153 0.0
H915 H 0.71082 0.11809 0.66061 0.0
H916 H 0.75781 0.64099 0.60883 0.0
H917 H 0.77934 0.65859 0.60787 0.0
H918 H 0.79148 0.64527 0.67523 0.0
H919 H 0.77069 0.62679 0.67541 0.0
H920 H 0.78363 0.68222 0.62959 0.0
H921 H 0.8325 0.6454 0.64987 0.0
H922 H 0.81402 0.63768 0.64343 0.0
H923 H 0.81846 0.64394 0.67148 0.0
C924 C 0.76531 0.64164 0.62322 0.0
C925 C 0.76272 0.63253 0.64213 0.0
C926 C 0.77758 0.65171 0.62271 0.0
C927 C 0.78727 0.65316 0.64135 0.0
C928 C 0.78461 0.64402 0.6603 0.0
H929 H 0.83428 0.73747 0.66884 0.0
H930 H 0.81651 0.71619 0.66624 0.0
C931 C 0.77262 0.63357 0.66051 0.0
C932 C 0.79924 0.66513 0.6416 0.0
H933 H 0.83613 0.67227 0.65611 0.0
C934 C 0.79517 0.67993 0.63508 0.0
C935 C 0.81442 0.66223 0.64835 0.0
C936 C 0.82013 0.64641 0.65341 0.0
C937 C 0.80567 0.69192 0.63556 0.0
C938 C 0.82047 0.68928 0.64408 0.0
C939 C 0.8247 0.67441 0.65003 0.0
C940 C 0.83167 0.7018 0.647 0.0
C941 C 0.80076 0.70718 0.62643 0.0
C942 C 0.84649 0.70046 0.63838 0.0
C943 C 0.85687 0.71242 0.64066 0.0
C944 C 0.85249 0.726 0.6512 0.0
C945 C 0.83782 0.7272 0.66027 0.0
C946 C 0.82762 0.7151 0.65859 0.0
H947 H 0.79172 0.70588 0.61356 0.0
H948 H 0.79597 0.71414 0.64024 0.0
H949 H 0.81043 0.71343 0.61879 0.0
H950 H 0.84995 0.69028 0.62954 0.0
H951 H 0.86815 0.71124 0.63355 0.0
H952 H 0.27812 0.86916 0.6591 0.0
H953 H 0.29926 0.85102 0.66003 0.0
H954 H 0.2688 0.81497 0.64041 0.0
H955 H 0.24763 0.83288 0.63958 0.0
H956 H 0.28726 0.80843 0.67841 0.0
H957 H 0.3211 0.83041 0.60649 0.0
H958 H 0.31573 0.84406 0.62749 0.0
H959 H 0.30133 0.83527 0.61055 0.0
C960 C 0.27593 0.8574 0.65482 0.0
C961 C 0.26116 0.85248 0.64926 0.0
C962 C 0.28804 0.84707 0.65527 0.0
C963 C 0.28559 0.83171 0.65008 0.0
C964 C 0.27091 0.8268 0.6444 0.0
H965 H 0.3321 0.74675 0.6411 0.0
H966 H 0.31435 0.76803 0.64223 0.0
C967 C 0.25883 0.83708 0.64393 0.0
C968 C 0.2981 0.8205 0.65138 0.0
H969 H 0.33123 0.8095 0.62631 0.0
C970 C 0.29691 0.80869 0.66709 0.0
C971 C 0.31072 0.82098 0.6367 0.0
C972 C 0.31234 0.83328 0.61922 0.0
C973 C 0.3079 0.79718 0.6683 0.0
C974 C 0.32024 0.79735 0.65312 0.0
C975 C 0.32171 0.80941 0.63787 0.0
C976 C 0.33123 0.78464 0.65205 0.0
C977 C 0.30619 0.7849 0.68581 0.0
C978 C 0.3467 0.78704 0.6566 0.0
C979 C 0.35695 0.77487 0.6559 0.0
C980 C 0.35188 0.76014 0.65047 0.0
C981 C 0.3364 0.7579 0.64549 0.0
C982 C 0.3262 0.77004 0.64622 0.0
H983 H 0.29881 0.78865 0.69987 0.0
H984 H 0.30084 0.77475 0.67804 0.0
H985 H 0.31742 0.78147 0.69266 0.0
H986 H 0.35079 0.79827 0.66098 0.0
H987 H 0.3688 0.777 0.65974 0.0
H988 H 0.1176 0.27748 0.66207 0.0
H989 H 0.13539 0.29894 0.66096 0.0
H990 H 0.1712 0.26884 0.63935 0.0
H991 H 0.15361 0.24742 0.64021 0.0
H992 H 0.16322 0.30225 0.68469 0.0
H993 H 0.1722 0.30332 0.59277 0.0
H994 H 0.15643 0.29348 0.60567 0.0
H995 H 0.17498 0.28487 0.60499 0.0
C996 C 0.12925 0.27543 0.65699 0.0
C997 C 0.13415 0.26073 0.65112 0.0
C998 C 0.13938 0.2877 0.65638 0.0
C999 C 0.15451 0.28549 0.64971 0.0
C1000 C 0.15947 0.27083 0.64409 0.0
H1001 H 0.2392 0.33186 0.64036 0.0
H1002 H 0.21752 0.31453 0.64031 0.0
C1003 C 0.1494 0.25858 0.64472 0.0
C1004 C 0.16537 0.29834 0.64923 0.0
H1005 H 0.19023 0.31701 0.61498 0.0
C1006 C 0.16899 0.30566 0.66943 0.0
C1007 C 0.17281 0.30275 0.62925 0.0
C1008 C 0.16882 0.2958 0.60689 0.0
C1009 C 0.18043 0.31679 0.67037 0.0
C1010 C 0.18824 0.3208 0.65051 0.0
C1011 C 0.18425 0.31384 0.63019 0.0
C1012 C 0.2012 0.33154 0.65061 0.0
C1013 C 0.18454 0.32368 0.69272 0.0
C1014 C 0.19914 0.34689 0.65624 0.0
C1015 C 0.21154 0.35687 0.65631 0.0
C1016 C 0.22618 0.35165 0.65067 0.0
C1017 C 0.22811 0.33627 0.64484 0.0
C1018 C 0.21573 0.32634 0.64476 0.0
H1019 H 0.17949 0.31727 0.70694 0.0
H1020 H 0.19708 0.32403 0.69491 0.0
H1021 H 0.18024 0.33554 0.69341 0.0
H1022 H 0.18795 0.35116 0.66046 0.0
H1023 H 0.20963 0.36865 0.66079 0.0
H1024 H 0.20015 0.09339 0.06898 0.0
H1025 H 0.20259 0.08419 0.03076 0.0
H1026 H 0.24315 0.05947 0.04889 0.0
H1027 H 0.24081 0.06875 0.08757 0.0
H1028 H 0.24689 0.07879 0.01243 0.0
H1029 H 0.1958 0.04349 -0.00017 0.0
H1030 H 0.19091 0.06111 0.01309 0.0
H1031 H 0.20319 0.04785 0.02737 0.0
C1032 C 0.20947 0.0858 0.06501 0.0
C1033 C 0.22034 0.08187 0.08128 0.0
C1034 C 0.21075 0.0804 0.04317 0.0
C1035 C 0.22289 0.07093 0.03708 0.0
C1036 C 0.23358 0.06661 0.05337 0.0
H1037 H 0.23961 0.06952 0.89053 0.0
H1038 H 0.24207 0.05958 0.92886 0.0
C1039 C 0.23223 0.07193 0.0754 0.0
C1040 C 0.22521 0.06739 0.0131 0.0
H1041 H 0.2049 0.05738 0.96673 0.0
C1042 C 0.238 0.0736 0.0024 0.0
C1043 C 0.21366 0.06051 0.00011 0.0
C1044 C 0.2002 0.05272 0.01077 0.0
C1045 C 0.2387 0.07464 0.97895 0.0
C1046 C 0.22634 0.06922 0.96608 0.0
C1047 C 0.2143 0.06164 0.9767 0.0
C1048 C 0.22435 0.07391 0.9425 0.0
C1049 C 0.25193 0.08279 0.9682 0.0
C1050 C 0.21342 0.085 0.93756 0.0
C1051 C 0.21203 0.09072 0.9159 0.0
C1052 C 0.22151 0.08539 0.89865 0.0
C1053 C 0.23217 0.07389 0.90347 0.0
C1054 C 0.23361 0.06821 0.92531 0.0
H1055 H 0.26033 0.08688 0.98073 0.0
H1056 H 0.2578 0.075 0.95641 0.0
H1057 H 0.24775 0.09268 0.95839 0.0
H1058 H 0.20619 0.08955 0.95067 0.0
H1059 H 0.20362 0.09948 0.91278 0.0
H1060 H 0.9147 0.24273 0.89328 0.0
H1061 H 0.92453 0.24539 0.93165 0.0
H1062 H 0.90038 0.20478 0.95112 0.0
H1063 H 0.89058 0.20205 0.91324 0.0
H1064 H 0.90566 0.24876 0.96954 0.0
H1065 H 0.9424 0.19836 0.97925 0.0
H1066 H 0.93735 0.20605 0.95213 0.0
H1067 H 0.92459 0.19336 0.96659 0.0
C1068 C 0.91171 0.23425 0.90569 0.0
C1069 C 0.90181 0.22222 0.90027 0.0
C1070 C 0.91735 0.23578 0.92754 0.0
C1071 C 0.91341 0.22513 0.94407 0.0
C1072 C 0.90387 0.21292 0.93848 0.0
H1073 H 0.88811 0.20382 0.06847 0.0
H1074 H 0.89734 0.20721 0.03037 0.0
C1075 C 0.89814 0.21147 0.91685 0.0
C1076 C 0.91757 0.22741 0.96784 0.0
H1077 H 0.92927 0.20694 0.01321 0.0
C1078 C 0.91134 0.23994 0.97911 0.0
C1079 C 0.92508 0.21593 0.9802 0.0
C1080 C 0.93288 0.20275 0.96885 0.0
C1081 C 0.91087 0.24039 0.00261 0.0
C1082 C 0.91691 0.22806 0.01493 0.0
C1083 C 0.92454 0.21633 0.00367 0.0
C1084 C 0.91269 0.22561 0.0386 0.0
C1085 C 0.90266 0.25329 0.01407 0.0
C1086 C 0.91846 0.23473 0.05591 0.0
C1087 C 0.91318 0.23281 0.07789 0.0
C1088 C 0.902 0.22182 0.08273 0.0
C1089 C 0.89662 0.21248 0.06534 0.0
C1090 C 0.90194 0.21434 0.04355 0.0
H1091 H 0.89819 0.26179 0.00196 0.0
H1092 H 0.89301 0.24876 0.02408 0.0
H1093 H 0.91053 0.25914 0.02578 0.0
H1094 H 0.92683 0.24344 0.05235 0.0
H1095 H 0.91758 0.24016 0.09094 0.0
H1096 H 0.78418 0.89158 0.9149 0.0
H1097 H 0.78134 0.90198 0.95243 0.0
H1098 H 0.74412 0.93003 0.92988 0.0
H1099 H 0.74683 0.91955 0.89191 0.0
H1100 H 0.78127 0.93347 0.96886 0.0
H1101 H 0.72639 0.90258 0.98107 0.0
H1102 H 0.73915 0.89757 0.95857 0.0
H1103 H 0.72864 0.91503 0.95732 0.0
C1104 C 0.77545 0.90005 0.91777 0.0
C1105 C 0.76561 0.9046 0.90047 0.0
C1106 C 0.77391 0.90605 0.93923 0.0
C1107 C 0.76247 0.91667 0.94391 0.0
C1108 C 0.75296 0.92175 0.92656 0.0
H1109 H 0.74519 0.91876 0.08883 0.0
H1110 H 0.74281 0.92913 0.05073 0.0
C1111 C 0.75454 0.91578 0.90492 0.0
C1112 C 0.76006 0.92124 0.96746 0.0
H1113 H 0.73936 0.9106 0.01315 0.0
C1114 C 0.77186 0.92891 0.97853 0.0
C1115 C 0.7477 0.91542 0.97996 0.0
C1116 C 0.73471 0.90715 0.96877 0.0
C1117 C 0.77232 0.92966 0.00198 0.0
C1118 C 0.76083 0.92233 0.01454 0.0
C1119 C 0.74821 0.91612 0.00344 0.0
C1120 C 0.76318 0.9182 0.03832 0.0
C1121 C 0.78559 0.93746 0.01312 0.0
C1122 C 0.77539 0.90865 0.04387 0.0
C1123 C 0.77668 0.90261 0.06535 0.0
C1124 C 0.76576 0.90598 0.0818 0.0
C1125 C 0.7538 0.916 0.07651 0.0
C1126 C 0.75243 0.92195 0.05481 0.0
H1127 H 0.78989 0.94698 0.00263 0.0
H1128 H 0.78244 0.94194 0.02989 0.0
H1129 H 0.79501 0.92918 0.01523 0.0
H1130 H 0.7836 0.9053 0.03126 0.0
H1131 H 0.78605 0.89499 0.06889 0.0
H1132 H 0.09736 0.78487 0.91248 0.0
H1133 H 0.08765 0.78263 0.9505 0.0
H1134 H 0.05901 0.74525 0.93033 0.0
H1135 H 0.06879 0.74734 0.89187 0.0
H1136 H 0.05634 0.78306 0.96785 0.0
H1137 H 0.08711 0.72827 0.98143 0.0
H1138 H 0.09191 0.74064 0.95834 0.0
H1139 H 0.07443 0.73015 0.95788 0.0
C1140 C 0.08892 0.77622 0.91598 0.0
C1141 C 0.08398 0.76617 0.89919 0.0
C1142 C 0.08331 0.77502 0.93772 0.0
C1143 C 0.0727 0.76372 0.9432 0.0
C1144 C 0.06728 0.75398 0.9264 0.0
H1145 H 0.07044 0.74811 0.08867 0.0
H1146 H 0.06045 0.74543 0.05042 0.0
C1147 C 0.07285 0.75522 0.90447 0.0
C1148 C 0.06844 0.76177 0.96697 0.0
H1149 H 0.07918 0.74164 0.0132 0.0
C1150 C 0.06092 0.77378 0.97776 0.0
C1151 C 0.07429 0.74957 0.9798 0.0
C1152 C 0.08243 0.73639 0.96893 0.0
C1153 C 0.06026 0.77455 0.0012 0.0
C1154 C 0.06754 0.76317 0.01405 0.0
C1155 C 0.07368 0.7504 0.00326 0.0
C1156 C 0.07153 0.76568 0.03784 0.0
C1157 C 0.05254 0.78799 0.012 0.0
C1158 C 0.08104 0.77793 0.04336 0.0
C1159 C 0.08685 0.77939 0.06496 0.0
C1160 C 0.0833 0.76862 0.08155 0.0
C1161 C 0.07334 0.75662 0.07625 0.0
C1162 C 0.06761 0.75508 0.05446 0.0
H1163 H 0.04307 0.79226 0.00138 0.0
H1164 H 0.04801 0.78504 0.02882 0.0
H1165 H 0.06089 0.79737 0.01392 0.0
H1166 H 0.08453 0.78603 0.03067 0.0
H1167 H 0.09445 0.78879 0.06848 0.0
H1168 H 0.24072 0.91842 0.39178 0.0
H1169 H 0.24311 0.92776 0.43042 0.0
H1170 H 0.20575 0.89905 0.4505 0.0
H1171 H 0.20321 0.88976 0.41229 0.0
H1172 H 0.20539 0.93023 0.46815 0.0
H1173 H 0.26022 0.89943 0.48113 0.0
H1174 H 0.25831 0.91219 0.45768 0.0
H1175 H 0.24778 0.89473 0.4581 0.0
C1176 C 0.23293 0.91422 0.40441 0.0
C1177 C 0.22187 0.90323 0.39901 0.0
C1178 C 0.23434 0.91955 0.42643 0.0
C1179 C 0.22467 0.914 0.44325 0.0
C1180 C 0.21331 0.90348 0.43771 0.0
H1181 H 0.20045 0.89259 0.5695 0.0
H1182 H 0.20295 0.90211 0.53141 0.0
C1183 C 0.21193 0.89812 0.41586 0.0
C1184 C 0.22669 0.91815 0.46705 0.0
H1185 H 0.24709 0.90751 0.51305 0.0
C1186 C 0.21472 0.92566 0.47796 0.0
C1187 C 0.23896 0.91231 0.47973 0.0
C1188 C 0.25208 0.90417 0.46872 0.0
C1189 C 0.21408 0.92636 0.50141 0.0
C1190 C 0.22556 0.91914 0.51413 0.0
C1191 C 0.23827 0.91296 0.50321 0.0
C1192 C 0.22325 0.91531 0.53802 0.0
C1193 C 0.20069 0.93408 0.51235 0.0
C1194 C 0.23392 0.91949 0.55441 0.0
C1195 C 0.23252 0.914 0.57636 0.0
C1196 C 0.22061 0.90403 0.58205 0.0
C1197 C 0.20978 0.9002 0.56567 0.0
C1198 C 0.2111 0.90578 0.54391 0.0
H1199 H 0.19627 0.94344 0.50168 0.0
H1200 H 0.19139 0.92568 0.51461 0.0
H1201 H 0.20378 0.93875 0.52904 0.0
H1202 H 0.24348 0.92668 0.55008 0.0
H1203 H 0.24107 0.91711 0.58861 0.0
H1204 H 0.07044 0.24114 0.58853 0.0
H1205 H 0.06108 0.24352 0.54987 0.0
H1206 H 0.08646 0.20349 0.53132 0.0
H1207 H 0.09579 0.20103 0.5695 0.0
H1208 H 0.08038 0.24742 0.51279 0.0
H1209 H 0.04519 0.19607 0.50157 0.0
H1210 H 0.04963 0.20377 0.5289 0.0
H1211 H 0.06294 0.19149 0.51477 0.0
C1212 C 0.0738 0.23271 0.57626 0.0
C1213 C 0.08391 0.22094 0.58202 0.0
C1214 C 0.06843 0.23408 0.55424 0.0
C1215 C 0.07286 0.22352 0.53787 0.0
C1216 C 0.08259 0.21155 0.54381 0.0
H1217 H 0.10026 0.20334 0.41372 0.0
H1218 H 0.0903 0.20604 0.45155 0.0
C1219 C 0.08806 0.21026 0.56562 0.0
C1220 C 0.06904 0.22574 0.51396 0.0
H1221 H 0.05859 0.20515 0.4681 0.0
C1222 C 0.0751 0.23848 0.50297 0.0
C1223 C 0.06205 0.2141 0.50129 0.0
C1224 C 0.05444 0.20067 0.51231 0.0
C1225 C 0.07592 0.23904 0.4795 0.0
C1226 C 0.07039 0.2266 0.46691 0.0
C1227 C 0.06293 0.21461 0.47785 0.0
C1228 C 0.07493 0.22442 0.4433 0.0
C1229 C 0.08397 0.2522 0.46842 0.0
C1230 C 0.06935 0.23373 0.42606 0.0
C1231 C 0.07506 0.23222 0.40425 0.0
C1232 C 0.08646 0.22143 0.39952 0.0
C1233 C 0.09159 0.21185 0.41679 0.0
C1234 C 0.08585 0.21331 0.43841 0.0
H1235 H 0.08828 0.26062 0.48077 0.0
H1236 H 0.09371 0.24797 0.45834 0.0
H1237 H 0.07603 0.25809 0.45685 0.0
H1238 H 0.06084 0.24231 0.42956 0.0
H1239 H 0.07084 0.23974 0.39128 0.0
H1240 H 0.74742 0.07054 0.58879 0.0
H1241 H 0.74489 0.06146 0.55005 0.0
H1242 H 0.7848 0.08704 0.53145 0.0
H1243 H 0.78742 0.09608 0.56975 0.0
H1244 H 0.74071 0.08085 0.51329 0.0
H1245 H 0.79224 0.04604 0.50117 0.0
H1246 H 0.78473 0.0504 0.52863 0.0
H1247 H 0.79677 0.06382 0.51426 0.0
C1248 C 0.75579 0.074 0.5765 0.0
C1249 C 0.76759 0.08408 0.5823 0.0
C1250 C 0.75433 0.06879 0.55442 0.0
C1251 C 0.76481 0.07336 0.53801 0.0
C1252 C 0.7768 0.08307 0.54397 0.0
H1253 H 0.78347 0.09975 0.41193 0.0
H1254 H 0.78119 0.09065 0.45029 0.0
C1255 C 0.77819 0.08836 0.56586 0.0
C1256 C 0.76249 0.06966 0.51408 0.0
H1257 H 0.78265 0.05914 0.46784 0.0
C1258 C 0.7496 0.07562 0.50332 0.0
C1259 C 0.77405 0.06272 0.50121 0.0
C1260 C 0.78765 0.05524 0.51198 0.0
C1261 C 0.74877 0.0763 0.47986 0.0
C1262 C 0.76109 0.07075 0.46702 0.0
C1263 C 0.77327 0.06348 0.47778 0.0
C1264 C 0.76286 0.07496 0.44321 0.0
C1265 C 0.73542 0.08417 0.46899 0.0
C1266 C 0.75341 0.06895 0.42646 0.0
C1267 C 0.75468 0.07416 0.40435 0.0
C1268 C 0.76536 0.08549 0.39879 0.0
C1269 C 0.77504 0.09112 0.41561 0.0
C1270 C 0.77382 0.08587 0.43755 0.0
H1271 H 0.72715 0.08857 0.48149 0.0
H1272 H 0.73946 0.09382 0.45854 0.0
H1273 H 0.72941 0.07608 0.45779 0.0
H1274 H 0.74495 0.06044 0.43056 0.0
H1275 H 0.74709 0.06957 0.39175 0.0
H1276 H 0.88635 0.78599 0.5711 0.0
H1277 H 0.89541 0.78459 0.53261 0.0
H1278 H 0.92715 0.74939 0.55119 0.0
H1279 H 0.91807 0.75062 0.59005 0.0
H1280 H 0.92627 0.7876 0.51436 0.0
H1281 H 0.89984 0.73062 0.50067 0.0
H1282 H 0.89443 0.74245 0.52406 0.0
H1283 H 0.9126 0.7332 0.52398 0.0
C1284 C 0.89532 0.77799 0.56713 0.0
C1285 C 0.90138 0.7683 0.58363 0.0
C1286 C 0.90054 0.77727 0.54512 0.0
C1287 C 0.91185 0.76682 0.53909 0.0
C1288 C 0.91831 0.75744 0.55555 0.0
H1289 H 0.91777 0.75093 0.39373 0.0
H1290 H 0.92673 0.74931 0.43266 0.0
C1291 C 0.91313 0.75819 0.57771 0.0
C1292 C 0.91597 0.76538 0.51519 0.0
H1293 H 0.90736 0.74431 0.46894 0.0
C1294 C 0.92252 0.77797 0.50443 0.0
C1295 C 0.9112 0.75274 0.50237 0.0
C1296 C 0.90407 0.73896 0.5132 0.0
C1297 C 0.92336 0.77872 0.481 0.0
C1298 C 0.91724 0.7667 0.46812 0.0
C1299 C 0.91198 0.75353 0.47891 0.0
C1300 C 0.91366 0.76865 0.44407 0.0
C1301 C 0.93009 0.7927 0.47023 0.0
C1302 C 0.90336 0.78003 0.43769 0.0
C1303 C 0.89815 0.78091 0.4157 0.0
C1304 C 0.90309 0.77038 0.39957 0.0
C1305 C 0.91379 0.75924 0.40578 0.0
C1306 C 0.91893 0.7583 0.42796 0.0
H1307 H 0.93894 0.79787 0.48114 0.0
H1308 H 0.9352 0.79003 0.45368 0.0
H1309 H 0.921 0.8013 0.46775 0.0
H1310 H 0.89885 0.78791 0.44997 0.0
H1311 H 0.88995 0.78965 0.41149 0.0
H1312 H 0.70084 0.58984 0.56533 0.0
H1313 H 0.70406 0.57926 0.52803 0.0
H1314 H 0.74558 0.55729 0.54893 0.0
H1315 H 0.74242 0.56796 0.58671 0.0
H1316 H 0.74896 0.57568 0.51168 0.0
H1317 H 0.69991 0.53779 0.49869 0.0
H1318 H 0.69378 0.5553 0.51113 0.0
H1319 H 0.70656 0.543 0.52633 0.0
C1320 C 0.71052 0.58252 0.56219 0.0
C1321 C 0.72144 0.57983 0.5789 0.0
C1322 C 0.71225 0.57632 0.54089 0.0
C1323 C 0.72492 0.56726 0.5358 0.0
C1324 C 0.73561 0.56408 0.55264 0.0
H1325 H 0.74261 0.56837 0.38972 0.0
H1326 H 0.74535 0.55726 0.42733 0.0
C1327 C 0.7338 0.57019 0.57416 0.0
C1328 C 0.72782 0.56332 0.51209 0.0
H1329 H 0.70833 0.55228 0.46547 0.0
C1330 C 0.74042 0.57002 0.50155 0.0
C1331 C 0.71675 0.5558 0.49896 0.0
C1332 C 0.70359 0.54743 0.50945 0.0
C1333 C 0.74122 0.57108 0.47812 0.0
C1334 C 0.72917 0.56515 0.46509 0.0
C1335 C 0.71748 0.55694 0.47555 0.0
C1336 C 0.72685 0.57019 0.44172 0.0
C1337 C 0.75411 0.57987 0.46756 0.0
C1338 C 0.71536 0.58083 0.43739 0.0
C1339 C 0.71381 0.58721 0.41617 0.0
C1340 C 0.72369 0.58301 0.39873 0.0
C1341 C 0.73485 0.57186 0.40284 0.0
C1342 C 0.73646 0.56552 0.42427 0.0
H1343 H 0.76233 0.58419 0.4802 0.0
H1344 H 0.76032 0.57245 0.45563 0.0
H1345 H 0.74953 0.58968 0.45796 0.0
H1346 H 0.70787 0.58459 0.4507 0.0
H1347 H 0.70501 0.59565 0.41356 0.0
H1348 H 0.38871 0.7023 0.41083 0.0
H1349 H 0.39784 0.70499 0.4491 0.0
H1350 H 0.42685 0.74209 0.42889 0.0
H1351 H 0.41765 0.73955 0.39017 0.0
H1352 H 0.42888 0.70447 0.46704 0.0
H1353 H 0.39854 0.75963 0.47918 0.0
H1354 H 0.39383 0.74714 0.4562 0.0
H1355 H 0.41138 0.75752 0.45588 0.0
C1356 C 0.3971 0.711 0.41438 0.0
C1357 C 0.40233 0.72082 0.39746 0.0
C1358 C 0.40236 0.71246 0.43627 0.0
C1359 C 0.41292 0.72379 0.44179 0.0
C1360 C 0.4186 0.73335 0.42492 0.0
H1361 H 0.41625 0.74034 0.58725 0.0
H1362 H 0.42572 0.74268 0.54865 0.0
C1363 C 0.41336 0.73185 0.40285 0.0
C1364 C 0.41701 0.72588 0.46561 0.0
H1365 H 0.40639 0.74656 0.51132 0.0
C1366 C 0.42437 0.71389 0.47671 0.0
C1367 C 0.41124 0.73825 0.47811 0.0
C1368 C 0.40326 0.7514 0.46689 0.0
C1369 C 0.42496 0.71333 0.50017 0.0
C1370 C 0.41781 0.72493 0.5127 0.0
C1371 C 0.4118 0.73765 0.5016 0.0
C1372 C 0.41388 0.72274 0.53658 0.0
C1373 C 0.43247 0.6999 0.51134 0.0
C1374 C 0.40408 0.7108 0.54244 0.0
C1375 C 0.39856 0.70953 0.56422 0.0
C1376 C 0.40271 0.72019 0.58065 0.0
C1377 C 0.41289 0.73192 0.57496 0.0
C1378 C 0.41832 0.73327 0.55297 0.0
H1379 H 0.44176 0.69524 0.50074 0.0
H1380 H 0.43721 0.70303 0.52797 0.0
H1381 H 0.42393 0.69075 0.51376 0.0
H1382 H 0.40022 0.70275 0.52992 0.0
H1383 H 0.39078 0.70033 0.56805 0.0
H1384 H 0.24744 0.4195 0.39311 0.0
H1385 H 0.24534 0.42854 0.43192 0.0
H1386 H 0.28573 0.40331 0.44937 0.0
H1387 H 0.28793 0.39434 0.41098 0.0
H1388 H 0.24155 0.40903 0.46814 0.0
H1389 H 0.29303 0.44379 0.48075 0.0
H1390 H 0.28551 0.43962 0.45322 0.0
H1391 H 0.29767 0.42616 0.46731 0.0
C1392 C 0.25603 0.41615 0.40515 0.0
C1393 C 0.26781 0.40614 0.39902 0.0
C1394 C 0.25482 0.42133 0.42727 0.0
C1395 C 0.26553 0.41681 0.4434 0.0
C1396 C 0.27755 0.40726 0.43707 0.0
H1397 H 0.28488 0.38836 0.56809 0.0
H1398 H 0.28255 0.39837 0.53023 0.0
C1399 C 0.2787 0.40199 0.41514 0.0
C1400 C 0.26333 0.42023 0.46745 0.0
H1401 H 0.28375 0.43005 0.51381 0.0
C1402 C 0.2505 0.41412 0.47817 0.0
C1403 C 0.27496 0.42698 0.48043 0.0
C1404 C 0.28848 0.43465 0.46976 0.0
C1405 C 0.2498 0.41307 0.50161 0.0
C1406 C 0.2622 0.41841 0.51449 0.0
C1407 C 0.27432 0.42586 0.50384 0.0
C1408 C 0.26413 0.41378 0.53812 0.0
C1409 C 0.23651 0.40501 0.51235 0.0
C1410 C 0.25467 0.41933 0.55518 0.0
C1411 C 0.25596 0.41359 0.57701 0.0
C1412 C 0.26669 0.40217 0.58195 0.0
C1413 C 0.27641 0.39704 0.56486 0.0
C1414 C 0.27516 0.40281 0.54322 0.0
H1415 H 0.22821 0.40076 0.49979 0.0
H1416 H 0.24061 0.39525 0.5225 0.0
H1417 H 0.23052 0.41294 0.52381 0.0
H1418 H 0.24615 0.42788 0.55153 0.0
H1419 H 0.24834 0.41781 0.58983 0.0
H1420 H 0.57041 0.24614 0.58829 0.0
H1421 H 0.56099 0.24349 0.5497 0.0
H1422 H 0.58991 0.2805 0.52887 0.0
H1423 H 0.59929 0.28328 0.567 0.0
H1424 H 0.55843 0.28093 0.51168 0.0
H1425 H 0.58913 0.22604 0.49875 0.0
H1426 H 0.57663 0.22816 0.52246 0.0
H1427 H 0.59412 0.23862 0.52149 0.0
C1428 C 0.57465 0.25379 0.5755 0.0
C1429 C 0.5857 0.26484 0.58067 0.0
C1430 C 0.56927 0.25223 0.55351 0.0
C1431 C 0.57485 0.26175 0.53651 0.0
C1432 C 0.58547 0.27307 0.54181 0.0
H1433 H 0.59549 0.28582 0.40996 0.0
H1434 H 0.5864 0.28318 0.44825 0.0
C1435 C 0.59087 0.27458 0.56362 0.0
C1436 C 0.57055 0.25965 0.51278 0.0
H1437 H 0.58101 0.23918 0.46679 0.0
C1438 C 0.56296 0.27158 0.50188 0.0
C1439 C 0.57634 0.24737 0.50012 0.0
C1440 C 0.58455 0.23428 0.51115 0.0
C1441 C 0.56215 0.27217 0.47844 0.0
C1442 C 0.56933 0.26068 0.46571 0.0
C1443 C 0.57558 0.24801 0.47664 0.0
C1444 C 0.57303 0.26298 0.44178 0.0
C1445 C 0.55437 0.28553 0.46748 0.0
C1446 C 0.56864 0.25239 0.42543 0.0
C1447 C 0.57387 0.25386 0.40336 0.0
C1448 C 0.5838 0.26578 0.39751 0.0
C1449 C 0.5879 0.27649 0.4139 0.0
C1450 C 0.58257 0.27509 0.43577 0.0
H1451 H 0.54509 0.29001 0.47825 0.0
H1452 H 0.56276 0.29481 0.46501 0.0
H1453 H 0.54956 0.28239 0.4509 0.0
H1454 H 0.56144 0.24285 0.42985 0.0
H1455 H 0.57056 0.2454 0.3911 0.0
H1456 H 0.69906 0.39075 0.91182 0.0
H1457 H 0.70209 0.39954 0.95018 0.0
H1458 H 0.74218 0.42473 0.93123 0.0
H1459 H 0.73925 0.41588 0.89243 0.0
H1460 H 0.74644 0.40509 0.96758 0.0
H1461 H 0.69541 0.44033 0.9813 0.0
H1462 H 0.69052 0.42271 0.96801 0.0
H1463 H 0.7026 0.43608 0.95361 0.0
C1464 C 0.70842 0.39833 0.91565 0.0
C1465 C 0.71896 0.40256 0.89909 0.0
C1466 C 0.71004 0.40349 0.93758 0.0
C1467 C 0.7222 0.41301 0.94346 0.0
C1468 C 0.73261 0.41755 0.92692 0.0
H1469 H 0.74049 0.41564 0.08968 0.0
H1470 H 0.74263 0.42499 0.05097 0.0
C1471 C 0.73092 0.41247 0.90482 0.0
C1472 C 0.72477 0.4165 0.96739 0.0
H1473 H 0.70506 0.42672 0.0142 0.0
C1474 C 0.73768 0.41031 0.9778 0.0
C1475 C 0.71338 0.42342 0.98062 0.0
C1476 C 0.69978 0.43116 0.97024 0.0
C1477 C 0.73868 0.40939 0.00124 0.0
C1478 C 0.72651 0.41489 0.01439 0.0
C1479 C 0.71432 0.4224 0.00401 0.0
C1480 C 0.72485 0.41041 0.0381 0.0
C1481 C 0.75204 0.4013 0.01173 0.0
C1482 C 0.71401 0.39934 0.04357 0.0
C1483 C 0.7128 0.39396 0.06543 0.0
C1484 C 0.72236 0.39961 0.08237 0.0
C1485 C 0.73299 0.41103 0.07699 0.0
C1486 C 0.73425 0.41637 0.05494 0.0
H1487 H 0.7603 0.39717 -0.00097 0.0
H1488 H 0.75804 0.40914 0.02332 0.0
H1489 H 0.74799 0.39144 0.02172 0.0
H1490 H 0.70669 0.39459 0.03074 0.0
H1491 H 0.70443 0.38524 0.06898 0.0
H1492 H 0.56932 0.73904 0.08857 0.0
H1493 H 0.55998 0.74054 0.04983 0.0
H1494 H 0.58602 0.70058 0.03299 0.0
H1495 H 0.59528 0.69896 0.07131 0.0
H1496 H 0.57908 0.74436 0.01314 0.0
H1497 H 0.54541 0.69194 0.00264 0.0
H1498 H 0.5497 0.69987 0.02987 0.0
H1499 H 0.56331 0.68791 0.01576 0.0
C1500 C 0.5728 0.73042 0.07668 0.0
C1501 C 0.5831 0.71893 0.08297 0.0
C1502 C 0.56745 0.73128 0.0546 0.0
C1503 C 0.5721 0.72052 0.03866 0.0
C1504 C 0.58198 0.70879 0.04514 0.0
H1505 H 0.59864 0.70078 0.91258 0.0
H1506 H 0.5893 0.70289 0.95084 0.0
C1507 C 0.5874 0.70798 0.06703 0.0
C1508 C 0.5684 0.72235 0.01463 0.0
H1509 H 0.55834 0.7013 0.969 0.0
C1510 C 0.57407 0.73521 0.00346 0.0
C1511 C 0.56175 0.71044 0.0021 0.0
C1512 C 0.55455 0.69684 0.01328 0.0
C1513 C 0.57475 0.73571 0.97997 0.0
C1514 C 0.56946 0.7231 0.96751 0.0
C1515 C 0.56249 0.7109 0.97864 0.0
C1516 C 0.57357 0.72117 0.94368 0.0
C1517 C 0.58234 0.74909 0.96874 0.0
C1518 C 0.56757 0.73059 0.92688 0.0
C1519 C 0.57292 0.72943 0.90483 0.0
C1520 C 0.58438 0.71888 0.89938 0.0
C1521 C 0.58991 0.70912 0.91619 0.0
C1522 C 0.58453 0.71025 0.93807 0.0
H1523 H 0.58685 0.75745 0.98102 0.0
H1524 H 0.59186 0.74512 0.958 0.0
H1525 H 0.57401 0.75499 0.95779 0.0
H1526 H 0.55901 0.73902 0.93091 0.0
H1527 H 0.56839 0.73707 0.89224 0.0
H1528 H 0.24584 0.57061 0.0895 0.0
H1529 H 0.24352 0.56051 0.05126 0.0
H1530 H 0.28429 0.58455 0.03221 0.0
H1531 H 0.28669 0.59459 0.06999 0.0
H1532 H 0.2402 0.57911 0.01356 0.0
H1533 H 0.29087 0.54279 0.0039 0.0
H1534 H 0.28324 0.54787 0.03103 0.0
H1535 H 0.29582 0.56065 0.0164 0.0
C1536 C 0.25444 0.5735 0.07723 0.0
C1537 C 0.26641 0.58346 0.08271 0.0
C1538 C 0.25311 0.5677 0.05545 0.0
C1539 C 0.26388 0.57156 0.03905 0.0
C1540 C 0.27606 0.58112 0.04475 0.0
H1541 H 0.28497 0.59676 0.91429 0.0
H1542 H 0.28209 0.58719 0.95231 0.0
C1543 C 0.27732 0.587 0.06632 0.0
C1544 C 0.26167 0.56741 0.01527 0.0
H1545 H 0.28219 0.55587 0.9699 0.0
C1546 C 0.24907 0.57353 0.00399 0.0
C1547 C 0.27321 0.56 0.00291 0.0
C1548 C 0.28646 0.55231 0.01426 0.0
C1549 C 0.24859 0.574 0.98049 0.0
C1550 C 0.26096 0.56805 0.96816 0.0
C1551 C 0.27278 0.56053 0.97944 0.0
C1552 C 0.2633 0.57222 0.94444 0.0
C1553 C 0.23561 0.58213 0.96908 0.0
C1554 C 0.25384 0.56672 0.92733 0.0
C1555 C 0.25546 0.57221 0.9054 0.0
C1556 C 0.2665 0.58331 0.90042 0.0
C1557 C 0.27626 0.58833 0.91754 0.0
C1558 C 0.27469 0.5828 0.93928 0.0
H1559 H 0.22728 0.58684 0.98124 0.0
H1560 H 0.24005 0.59158 0.9586 0.0
H1561 H 0.22954 0.57411 0.95784 0.0
H1562 H 0.24505 0.55847 0.93102 0.0
H1563 H 0.24779 0.56809 0.89255 0.0
H1564 H 0.41871 0.24737 0.89185 0.0
H1565 H 0.42806 0.245 0.93051 0.0
H1566 H 0.39894 0.28201 0.95064 0.0
H1567 H 0.38965 0.28452 0.91242 0.0
H1568 H 0.4301 0.28263 0.96846 0.0
H1569 H 0.39977 0.22749 0.981 0.0
H1570 H 0.41257 0.22962 0.95764 0.0
H1571 H 0.39498 0.23994 0.95799 0.0
C1572 C 0.41443 0.25509 0.90449 0.0
C1573 C 0.40331 0.26603 0.89911 0.0
C1574 C 0.41976 0.25369 0.92653 0.0
C1575 C 0.41409 0.26327 0.94337 0.0
C1576 C 0.40346 0.27453 0.93784 0.0
H1577 H 0.39143 0.28737 0.0688 0.0
H1578 H 0.40143 0.28488 0.031 0.0
C1579 C 0.3981 0.27588 0.91598 0.0
C1580 C 0.41821 0.26124 0.96718 0.0
H1581 H 0.40741 0.24076 0.01304 0.0
C1582 C 0.42556 0.27326 0.97821 0.0
C1583 C 0.4124 0.24891 0.97979 0.0
C1584 C 0.40444 0.23572 0.96865 0.0
C1585 C 0.42607 0.27392 0.00166 0.0
C1586 C 0.41884 0.2624 0.01428 0.0
C1587 C 0.41287 0.24962 0.00327 0.0
C1588 C 0.41474 0.26473 0.03806 0.0
C1589 C 0.43359 0.28738 0.01272 0.0
C1590 C 0.41882 0.25413 0.05461 0.0
C1591 C 0.41306 0.25552 0.0764 0.0
C1592 C 0.40291 0.26735 0.08176 0.0
C1593 C 0.39918 0.2781 0.06523 0.0
C1594 C 0.40502 0.2768 0.04364 0.0
H1595 H 0.44302 0.29186 0.00223 0.0
H1596 H 0.42511 0.29662 0.01475 0.0
H1597 H 0.43813 0.28436 0.02952 0.0
H1598 H 0.42614 0.24463 0.05052 0.0
H1599 H 0.4161 0.24703 0.08877 0.0
H1600 H 0.26792 0.05583 0.20359 0.0
H1601 H 0.27476 0.03241 0.22352 0.0
H1602 H 0.23422 0.01071 0.19826 0.0
H1603 H 0.2275 0.03382 0.17803 0.0
H1604 H 0.25878 0.01911 0.2565 0.0
H1605 H 0.26547 0.97806 0.18736 0.0
H1606 H 0.26517 -0.00164 0.18272 0.0
H1607 H 0.24765 0.98783 0.18505 0.0
C1608 C 0.26061 0.04597 0.20199 0.0
C1609 C 0.24717 0.04666 0.18923 0.0
C1610 C 0.26454 0.03261 0.21338 0.0
C1611 C 0.25514 0.01973 0.21207 0.0
C1612 C 0.24187 0.02035 0.19902 0.0
H1613 H 0.22835 0.95265 0.30283 0.0
H1614 H 0.23488 0.97579 0.28256 0.0
C1615 C 0.23797 0.03364 0.18761 0.0
C1616 C 0.25827 0.00609 0.2259 0.0
H1617 H 0.2585 0.96734 0.22351 0.0
C1618 C 0.25906 0.0078 0.24926 0.0
C1619 C 0.25898 0.99135 0.21649 0.0
C1620 C 0.25945 0.98881 0.1915 0.0
C1621 C 0.25936 -0.00489 0.2635 0.0
C1622 C 0.25848 0.98036 0.25412 0.0
C1623 C 0.25891 0.97865 0.23074 0.0
C1624 C 0.25555 0.96672 0.26805 0.0
C1625 C 0.26022 -0.00235 0.28847 0.0
C1626 C 0.26487 0.95381 0.26638 0.0
C1627 C 0.26105 0.94044 0.2778 0.0
C1628 C 0.24779 0.93976 0.29095 0.0
C1629 C 0.23869 0.95282 0.29295 0.0
C1630 C 0.24248 0.96612 0.28151 0.0
H1631 H 0.26634 0.00838 0.29241 0.0
H1632 H 0.24853 -0.00135 0.29532 0.0
H1633 H 0.26606 0.98808 0.29707 0.0
H1634 H 0.27494 0.954 0.25592 0.0
H1635 H 0.26828 0.93055 0.2759 0.0
H1636 H 0.95213 0.22235 0.18052 0.0
H1637 H 0.97558 0.22782 0.20081 0.0
H1638 H 0.9561 0.26952 0.22579 0.0
H1639 H 0.93234 0.26392 0.20591 0.0
H1640 H -0.00426 0.25157 0.19944 0.0
H1641 H 0.96808 0.2475 0.28311 0.0
H1642 H 0.95864 0.24164 0.25771 0.0
H1643 H 0.96027 0.2615 0.26443 0.0
C1644 C 0.95284 0.23274 0.19021 0.0
C1645 C 0.94033 0.24263 0.19181 0.0
C1646 C 0.96627 0.23587 0.20176 0.0
C1647 C 0.96749 0.24894 0.2151 0.0
C1648 C 0.95527 0.2592 0.21597 0.0
H1649 H 0.05755 0.26512 0.27642 0.0
H1650 H 0.03377 0.27026 0.2563 0.0
C1651 C 0.94175 0.25602 0.20451 0.0
C1652 C 0.9814 0.25131 0.22866 0.0
H1653 H -0.00555 0.25157 0.28254 0.0
C1654 C -0.00451 0.25177 0.21762 0.0
C1655 C 0.98098 0.25145 0.25237 0.0
C1656 C 0.96622 0.25038 0.26519 0.0
C1657 C 0.00921 0.25173 0.22962 0.0
C1658 C 0.0088 0.25159 0.25333 0.0
C1659 C -0.0053 0.25177 0.26437 0.0
C1660 C 0.02274 0.24946 0.26691 0.0
C1661 C 0.024 0.25097 0.21682 0.0
C1662 C 0.02416 0.23639 0.28024 0.0
C1663 C 0.0376 0.23352 0.29191 0.0
C1664 C 0.04991 0.24366 0.29045 0.0
C1665 C 0.0483 0.25703 0.27772 0.0
C1666 C 0.03476 0.25995 0.26613 0.0
H1667 H 0.02221 0.2481 0.19888 0.0
H1668 H 0.02975 0.26218 0.21763 0.0
H1669 H 0.03173 0.24235 0.22428 0.0
H1670 H 0.015 0.22816 0.28112 0.0
H1671 H 0.03846 0.22314 0.30162 0.0
H1672 H 0.71964 0.05543 0.27705 0.0
H1673 H 0.71324 0.03166 0.25779 0.0
H1674 H 0.75376 0.01078 0.28457 0.0
H1675 H 0.76003 0.03425 0.30418 0.0
H1676 H 0.72961 0.01839 0.22557 0.0
H1677 H 0.72307 0.97768 0.29526 0.0
H1678 H 0.72308 -0.002 0.2996 0.0
H1679 H 0.74075 0.98769 0.29763 0.0
C1680 C 0.72702 0.04567 0.27915 0.0
C1681 C 0.74034 0.0467 0.29214 0.0
C1682 C 0.72335 0.03211 0.26814 0.0
C1683 C 0.73288 0.01937 0.27003 0.0
C1684 C 0.746 0.02032 0.28336 0.0
H1685 H 0.76035 0.9519 0.17981 0.0
H1686 H 0.75404 0.97496 0.20039 0.0
C1687 C 0.74964 0.0338 0.29442 0.0
C1688 C 0.73011 0.00557 0.25638 0.0
H1689 H 0.73031 0.96683 0.25933 0.0
C1690 C 0.72943 0.00712 0.23298 0.0
C1691 C 0.72955 0.99087 0.266 0.0
C1692 C 0.72898 0.98847 0.29102 0.0
C1693 C 0.72934 -0.00565 0.21893 0.0
C1694 C 0.73031 0.97967 0.22854 0.0
C1695 C 0.72983 0.97809 0.25194 0.0
C1696 C 0.7333 0.96597 0.21479 0.0
C1697 C 0.72855 -0.00327 0.19392 0.0
C1698 C 0.72388 0.95312 0.21636 0.0
C1699 C 0.72757 0.93979 0.20476 0.0
C1700 C 0.74079 0.93911 0.19152 0.0
C1701 C 0.75005 0.95208 0.18975 0.0
C1702 C 0.74638 0.96534 0.20137 0.0
H1703 H 0.72246 0.00744 0.18975 0.0
H1704 H 0.74027 -0.00233 0.18713 0.0
H1705 H 0.72273 0.98711 0.18544 0.0
H1706 H 0.7138 0.95334 0.22679 0.0
H1707 H 0.72024 0.92997 0.20649 0.0
H1708 H 0.03747 0.76487 0.1808 0.0
H1709 H 0.01447 0.75937 0.20208 0.0
H1710 H 0.03475 0.71804 0.2271 0.0
H1711 H 0.05809 0.72366 0.20614 0.0
H1712 H -0.00536 0.73513 0.20151 0.0
H1713 H 0.02319 0.74057 0.28442 0.0
H1714 H 0.0322 0.74642 0.25867 0.0
H1715 H 0.03096 0.72659 0.26569 0.0
C1716 C 0.03705 0.75456 0.19072 0.0
C1717 C 0.04965 0.74477 0.19196 0.0
C1718 C 0.02387 0.75141 0.20284 0.0
C1719 C 0.02299 0.73842 0.21642 0.0
C1720 C 0.03531 0.72828 0.21705 0.0
H1721 H 0.93352 0.72315 0.27992 0.0
H1722 H 0.95726 0.71743 0.2601 0.0
C1723 C 0.04859 0.73146 0.20498 0.0
C1724 C 0.00927 0.73601 0.23039 0.0
H1725 H -0.00321 0.7367 0.28454 0.0
C1726 C -0.00492 0.73525 0.21968 0.0
C1727 C 0.00995 0.73628 0.25407 0.0
C1728 C 0.02485 0.73762 0.26649 0.0
C1729 C 0.98148 0.73544 0.23197 0.0
C1730 C 0.98215 0.73607 0.25565 0.0
C1731 C -0.00365 0.73614 0.26639 0.0
C1732 C 0.96833 0.73849 0.26938 0.0
C1733 C 0.96656 0.7359 0.21945 0.0
C1734 C 0.96695 0.75191 0.28193 0.0
C1735 C 0.95353 0.75512 0.29343 0.0
C1736 C 0.94119 0.74498 0.29257 0.0
C1737 C 0.94279 0.73124 0.28073 0.0
C1738 C 0.9563 0.72799 0.26931 0.0
H1739 H 0.96816 0.73835 0.20133 0.0
H1740 H 0.96083 0.72471 0.22098 0.0
H1741 H 0.95891 0.74469 0.22662 0.0
H1742 H 0.97611 0.76015 0.28225 0.0
H1743 H 0.95268 0.76577 0.30246 0.0
H1744 H 0.72108 0.93039 0.77681 0.0
H1745 H 0.71542 0.9539 0.75628 0.0
H1746 H 0.75793 0.97312 0.77871 0.0
H1747 H 0.76348 0.94994 0.79957 0.0
H1748 H 0.73412 0.99344 0.78117 0.0
H1749 H 0.73642 0.96535 0.69764 0.0
H1750 H 0.72288 0.95775 0.71722 0.0
H1751 H 0.74287 0.95605 0.72286 0.0
C1752 C 0.72915 0.93968 0.77747 0.0
C1753 C 0.74278 0.93828 0.78967 0.0
C1754 C 0.72594 0.95306 0.76565 0.0
C1755 C 0.73637 0.96515 0.76571 0.0
C1756 C 0.74974 0.96391 0.77842 0.0
H1757 H 0.76312 0.03514 0.67914 0.0
H1758 H 0.75732 0.01178 0.6994 0.0
C1759 C 0.75291 0.95063 0.79029 0.0
C1760 C 0.73383 0.97899 0.75209 0.0
H1761 H 0.73319 0.99182 0.6981 0.0
C1762 C 0.73369 0.99312 0.763 0.0
C1763 C 0.73336 0.97847 0.7284 0.0
C1764 C 0.734 0.96363 0.71574 0.0
C1765 C 0.73382 0.00679 0.75087 0.0
C1766 C 0.73374 0.00627 0.72717 0.0
C1767 C 0.73316 0.99215 0.71627 0.0
C1768 C 0.73621 0.0201 0.71347 0.0
C1769 C 0.73498 0.02161 0.76352 0.0
C1770 C 0.72607 0.03242 0.71423 0.0
C1771 C 0.72944 0.0459 0.70277 0.0
C1772 C 0.74292 0.04717 0.69023 0.0
C1773 C 0.75268 0.03456 0.68872 0.0
C1774 C 0.74935 0.02117 0.70025 0.0
H1775 H 0.73781 0.01984 0.78148 0.0
H1776 H 0.7438 0.02907 0.75597 0.0
H1777 H 0.72392 0.02766 0.76263 0.0
H1778 H 0.71571 0.03171 0.72399 0.0
H1779 H 0.72164 0.0554 0.70409 0.0
H1780 H 0.93166 0.71975 0.70349 0.0
H1781 H 0.95535 0.71383 0.7234 0.0
H1782 H 0.97501 0.75581 0.69968 0.0
H1783 H 0.95164 0.76162 0.67942 0.0
H1784 H -0.00482 0.73182 0.69814 0.0
H1785 H 0.96679 0.73562 0.78136 0.0
H1786 H 0.95915 0.72183 0.7622 0.0
H1787 H 0.95762 0.74175 0.75586 0.0
C1788 C 0.94111 0.72762 0.70234 0.0
C1789 C 0.93975 0.74122 0.69007 0.0
C1790 C 0.95458 0.72426 0.71381 0.0
C1791 C 0.96682 0.73452 0.71332 0.0
C1792 C 0.96568 0.74777 0.70032 0.0
H1793 H 0.03651 0.7621 0.79985 0.0
H1794 H 0.01334 0.75629 0.77911 0.0
C1795 C 0.95229 0.75108 0.68879 0.0
C1796 C 0.98061 0.73206 0.7271 0.0
H1797 H 0.99323 0.73224 0.7812 0.0
C1798 C -0.00522 0.73168 0.7163 0.0
C1799 C 0.98 0.73199 0.7508 0.0
C1800 C 0.96511 0.73293 0.76333 0.0
C1801 C 0.00841 0.73193 0.72855 0.0
C1802 C 0.00779 0.73226 0.75224 0.0
C1803 C 0.99362 0.73192 0.76304 0.0
C1804 C 0.02157 0.73487 0.76599 0.0
C1805 C 0.0233 0.73279 0.71601 0.0
C1806 C 0.03377 0.72458 0.76587 0.0
C1807 C 0.04714 0.72794 0.77762 0.0
C1808 C 0.04841 0.74157 0.7898 0.0
C1809 C 0.03592 0.75153 0.79057 0.0
C1810 C 0.02265 0.74821 0.77877 0.0
H1811 H 0.02162 0.73529 0.69792 0.0
H1812 H 0.03076 0.74171 0.72327 0.0
H1813 H 0.02929 0.72173 0.71743 0.0
H1814 H 0.03305 0.71408 0.75645 0.0
H1815 H 0.05654 0.72 0.77685 0.0
H1816 H 0.26647 0.93127 0.70434 0.0
H1817 H 0.27221 0.95485 0.72461 0.0
H1818 H 0.22983 0.97417 0.70182 0.0
H1819 H 0.2242 0.95093 0.68121 0.0
H1820 H 0.25359 -0.00555 0.69954 0.0
H1821 H 0.25109 0.96632 0.78308 0.0
H1822 H 0.26471 0.95874 0.76361 0.0
H1823 H 0.24473 0.95701 0.75783 0.0
C1824 C 0.25845 0.94061 0.70352 0.0
C1825 C 0.24482 0.93921 0.69133 0.0
C1826 C 0.26171 0.95402 0.7152 0.0
C1827 C 0.25132 0.96615 0.715 0.0
C1828 C 0.23798 0.96493 0.70223 0.0
H1829 H 0.22453 0.03611 0.80167 0.0
H1830 H 0.23029 0.01275 0.7814 0.0
C1831 C 0.23477 0.95161 0.69049 0.0
C1832 C 0.25383 0.97999 0.72863 0.0
H1833 H 0.25434 0.99279 0.78262 0.0
C1834 C 0.25398 -0.00588 0.71771 0.0
C1835 C 0.25424 0.97945 0.75232 0.0
C1836 C 0.25358 0.9646 0.765 0.0
C1837 C 0.2538 0.00779 0.72983 0.0
C1838 C 0.25383 0.00726 0.75353 0.0
C1839 C 0.2544 0.99312 0.76445 0.0
C1840 C 0.25137 0.02108 0.76722 0.0
C1841 C 0.25264 0.02261 0.71716 0.0
C1842 C 0.26151 0.0334 0.76642 0.0
C1843 C 0.25817 0.04687 0.77786 0.0
C1844 C 0.24471 0.04814 0.79047 0.0
C1845 C 0.23496 0.03553 0.79204 0.0
C1846 C 0.23825 0.02214 0.78051 0.0
H1847 H 0.24979 0.02084 0.69921 0.0
H1848 H 0.24385 0.03008 0.72472 0.0
H1849 H 0.26371 0.02864 0.718 0.0
H1850 H 0.27185 0.03269 0.75662 0.0
H1851 H 0.26596 0.05637 0.77649 0.0
H1852 H 0.92668 0.25925 0.76478 0.0
H1853 H 0.95007 0.26255 0.74296 0.0
H1854 H 0.97456 0.23513 0.79084 0.0
H1855 H 0.95122 0.23146 0.81239 0.0
H1856 H 0.97942 0.27349 0.75181 0.0
H1857 H 0.97979 0.21186 0.73219 0.0
H1858 H 0.96364 0.22118 0.74479 0.0
H1859 H 0.97969 0.21572 0.76171 0.0
C1860 C 0.9371 0.25409 0.7708 0.0
C1861 C 0.93709 0.2449 0.79009 0.0
C1862 C 0.95043 0.256 0.75834 0.0
C1863 C 0.96393 0.2488 0.76505 0.0
C1864 C 0.96416 0.24048 0.78511 0.0
H1865 H 0.05603 0.25777 0.71642 0.0
H1866 H 0.0318 0.2615 0.73576 0.0
C1867 C 0.95083 0.23844 0.79744 0.0
C1868 C 0.97751 0.2491 0.75041 0.0
H1869 H 0.00189 0.22579 0.72229 0.0
C1870 C 0.98432 0.2631 0.74521 0.0
C1871 C 0.98365 0.23554 0.74144 0.0
C1872 C 0.97624 0.22024 0.7451 0.0
C1873 C -0.00257 0.26385 0.73177 0.0
C1874 C 0.00399 0.2502 0.72374 0.0
C1875 C -0.00308 0.23626 0.72854 0.0
C1876 C 0.01833 0.24985 0.71068 0.0
C1877 C 0.00399 0.27923 0.7261 0.0
C1878 C 0.01886 0.24203 0.69019 0.0
C1879 C 0.03271 0.23961 0.67937 0.0
C1880 C 0.04631 0.24506 0.68877 0.0
C1881 C 0.04571 0.25352 0.70872 0.0
C1882 C 0.03185 0.25576 0.71971 0.0
H1883 H -0.00478 0.2883 0.72723 0.0
H1884 H 0.01314 0.282 0.73823 0.0
H1885 H 0.00892 0.27934 0.70897 0.0
H1886 H 0.00857 0.23735 0.68292 0.0
H1887 H 0.03282 0.23311 0.66395 0.0
H1888 H 0.72173 0.53707 0.68121 0.0
H1889 H 0.72704 0.51393 0.70234 0.0
H1890 H 0.76985 0.53274 0.72427 0.0
H1891 H 0.76445 0.55619 0.70346 0.0
H1892 H 0.75063 0.49338 0.6997 0.0
H1893 H 0.74903 0.52157 0.78318 0.0
H1894 H 0.74254 0.5309 0.758 0.0
H1895 H 0.76255 0.52906 0.76346 0.0
C1896 C 0.73231 0.5363 0.69046 0.0
C1897 C 0.74262 0.54851 0.69083 0.0
C1898 C 0.73534 0.52305 0.70248 0.0
C1899 C 0.74874 0.52171 0.7151 0.0
C1900 C 0.75931 0.53367 0.71497 0.0
H1901 H 0.76389 0.43151 0.77653 0.0
H1902 H 0.76956 0.45521 0.7565 0.0
C1903 C 0.75624 0.54701 0.703 0.0
C1904 C 0.75121 0.50786 0.72874 0.0
H1905 H 0.75227 0.49508 0.78275 0.0
C1906 C 0.7512 0.49372 0.71786 0.0
C1907 C 0.75186 0.5084 0.75242 0.0
C1908 C 0.75139 0.52326 0.76505 0.0
C1909 C 0.75114 0.48006 0.73002 0.0
C1910 C 0.75144 0.4806 0.75371 0.0
C1911 C 0.75213 0.49474 0.76458 0.0
C1912 C 0.74915 0.46678 0.76749 0.0
C1913 C 0.74984 0.46523 0.71742 0.0
C1914 C 0.73615 0.46568 0.78102 0.0
C1915 C 0.73298 0.45228 0.79261 0.0
C1916 C 0.74274 0.43969 0.79088 0.0
C1917 C 0.7561 0.44099 0.77804 0.0
C1918 C 0.75931 0.45448 0.76651 0.0
H1919 H 0.7468 0.46699 0.69953 0.0
H1920 H 0.76091 0.45919 0.71804 0.0
H1921 H 0.74111 0.45777 0.7252 0.0
H1922 H 0.72818 0.47505 0.78204 0.0
H1923 H 0.72264 0.45167 0.80243 0.0
H1924 H 0.53548 0.72315 0.80133 0.0
H1925 H 0.51226 0.72869 0.78052 0.0
H1926 H 0.53137 0.77129 0.75825 0.0
H1927 H 0.5549 0.76565 0.77868 0.0
H1928 H 0.49166 0.75222 0.78223 0.0
H1929 H 0.52083 0.7501 0.69951 0.0
H1930 H 0.52989 0.74383 0.72501 0.0
H1931 H 0.52808 0.76379 0.71913 0.0
C1932 C 0.53474 0.73376 0.79215 0.0
C1933 C 0.54709 0.74389 0.79145 0.0
C1934 C 0.52143 0.73692 0.7803 0.0
C1935 C 0.52019 0.75028 0.76756 0.0
C1936 C 0.53223 0.76077 0.76762 0.0
H1937 H 0.43082 0.76531 0.70353 0.0
H1938 H 0.45423 0.77091 0.72428 0.0
C1939 C 0.54562 0.75757 0.77939 0.0
C1940 C 0.50649 0.75267 0.75357 0.0
H1941 H 0.49436 0.75343 0.69923 0.0
C1942 C 0.49221 0.7527 0.76409 0.0
C1943 C 0.50731 0.75318 0.72989 0.0
C1944 C 0.52232 0.75261 0.71762 0.0
C1945 C 0.4787 0.75256 0.75157 0.0
C1946 C 0.47953 0.75275 0.72789 0.0
C1947 C 0.4938 0.75338 0.71739 0.0
C1948 C 0.46588 0.75044 0.71375 0.0
C1949 C 0.46372 0.75132 0.76378 0.0
C1950 C 0.46493 0.73742 0.70024 0.0
C1951 C 0.45169 0.73429 0.68822 0.0
C1952 C 0.43912 0.74411 0.68951 0.0
C1953 C 0.44028 0.75747 0.70235 0.0
C1954 C 0.45361 0.76065 0.7143 0.0
H1955 H 0.46526 0.74834 0.78174 0.0
H1956 H 0.4577 0.7624 0.76293 0.0
H1957 H 0.45634 0.74258 0.75588 0.0
H1958 H 0.47429 0.72942 0.69954 0.0
H1959 H 0.45118 0.72393 0.67843 0.0
H1960 H 0.26381 0.44998 0.68086 0.0
H1961 H 0.25831 0.47321 0.70158 0.0
H1962 H 0.21626 0.45372 0.72532 0.0
H1963 H 0.22188 0.43016 0.70496 0.0
H1964 H 0.23453 0.49346 0.70002 0.0
H1965 H 0.23793 0.4651 0.78331 0.0
H1966 H 0.24401 0.45588 0.75786 0.0
H1967 H 0.2241 0.45752 0.76417 0.0
C1968 C 0.25334 0.45063 0.69037 0.0
C1969 C 0.24335 0.43818 0.69146 0.0
C1970 C 0.25019 0.46394 0.70217 0.0
C1971 C 0.23699 0.4651 0.71526 0.0
C1972 C 0.22666 0.45293 0.71568 0.0
H1973 H 0.22184 0.55491 0.77776 0.0
H1974 H 0.21623 0.5313 0.75754 0.0
C1975 C 0.22985 0.43953 0.70395 0.0
C1976 C 0.23458 0.4789 0.72902 0.0
H1977 H 0.23434 0.49154 0.78309 0.0
C1978 C 0.23427 0.49307 0.71819 0.0
C1979 C 0.23436 0.4783 0.75271 0.0
C1980 C 0.23523 0.46342 0.76529 0.0
C1981 C 0.23443 0.5067 0.7304 0.0
C1982 C 0.23454 0.5061 0.7541 0.0
C1983 C 0.23417 0.49193 0.76492 0.0
C1984 C 0.2369 0.5199 0.76787 0.0
C1985 C 0.23538 0.52157 0.71782 0.0
C1986 C 0.25004 0.52106 0.78109 0.0
C1987 C 0.25318 0.53441 0.79281 0.0
C1988 C 0.24324 0.54689 0.79151 0.0
C1989 C 0.22978 0.54552 0.77893 0.0
C1990 C 0.22659 0.53209 0.76728 0.0
H1991 H 0.23817 0.51988 0.69983 0.0
H1992 H 0.22425 0.52748 0.7188 0.0
H1993 H 0.24413 0.52911 0.72535 0.0
H1994 H 0.25813 0.51178 0.78181 0.0
H1995 H 0.26362 0.53507 0.80241 0.0
H1996 H 0.45213 0.26252 0.8003 0.0
H1997 H 0.47533 0.25671 0.77967 0.0
H1998 H 0.45568 0.21446 0.75703 0.0
H1999 H 0.43215 0.22039 0.77728 0.0
H2000 H 0.49556 0.23301 0.78162 0.0
H2001 H 0.46692 0.23539 0.69846 0.0
H2002 H 0.45776 0.24173 0.72382 0.0
H2003 H 0.45944 0.22176 0.718 0.0
C2004 C 0.45274 0.25193 0.79106 0.0
C2005 C 0.44025 0.24199 0.79022 0.0
C2006 C 0.46604 0.24861 0.77931 0.0
C2007 C 0.46714 0.23527 0.76654 0.0
C2008 C 0.45494 0.22497 0.76642 0.0
H2009 H 0.55698 0.22021 0.70382 0.0
H2010 H 0.53345 0.21445 0.72422 0.0
C2011 C 0.44155 0.22834 0.77809 0.0
C2012 C 0.4809 0.2327 0.75274 0.0
H2013 H 0.49337 0.23191 0.69858 0.0
C2014 C 0.49511 0.23255 0.76346 0.0
C2015 C 0.48022 0.2322 0.72906 0.0
C2016 C 0.4653 0.23289 0.71656 0.0
C2017 C 0.5087 0.23263 0.75114 0.0
C2018 C 0.50802 0.2325 0.72745 0.0
C2019 C 0.49382 0.23193 0.71675 0.0
C2020 C 0.52176 0.23487 0.71352 0.0
C2021 C 0.52361 0.2338 0.76359 0.0
C2022 C 0.52273 0.24789 0.70001 0.0
C2023 C 0.53602 0.2511 0.68818 0.0
C2024 C 0.54864 0.24136 0.68966 0.0
C2025 C 0.54747 0.22799 0.7025 0.0
C2026 C 0.53409 0.22473 0.71426 0.0
H2027 H 0.52196 0.23675 0.78153 0.0
H2028 H 0.52959 0.22271 0.76279 0.0
H2029 H 0.53106 0.24253 0.75582 0.0
H2030 H 0.51333 0.25585 0.69916 0.0
H2031 H 0.53653 0.26147 0.67838 0.0
H2032 H 0.2595 0.53652 0.17903 0.0
H2033 H 0.25293 0.51339 0.19929 0.0
H2034 H 0.21354 0.53561 0.2273 0.0
H2035 H 0.22023 0.55904 0.20728 0.0
H2036 H 0.23034 0.52171 0.25908 0.0
H2037 H 0.22068 0.48145 0.18968 0.0
H2038 H 0.23857 0.49096 0.18634 0.0
H2039 H 0.22116 0.50178 0.18544 0.0
C2040 C 0.24931 0.53646 0.18923 0.0
C2041 C 0.24039 0.54962 0.19157 0.0
C2042 C 0.24549 0.52316 0.20067 0.0
C2043 C 0.23259 0.52268 0.21447 0.0
C2044 C 0.22347 0.53571 0.21655 0.0
H2045 H 0.21976 0.43328 0.2779 0.0
H2046 H 0.21297 0.45695 0.25858 0.0
C2047 C 0.22731 0.54907 0.20512 0.0
C2048 C 0.22961 0.50898 0.22824 0.0
H2049 H 0.2286 0.47027 0.22511 0.0
C2050 C 0.22961 0.51048 0.25166 0.0
C2051 C 0.22832 0.49434 0.2186 0.0
C2052 C 0.22701 0.49206 0.19362 0.0
C2053 C 0.22958 0.49766 0.26565 0.0
C2054 C 0.22988 0.483 0.25592 0.0
C2055 C 0.22864 0.48151 0.23257 0.0
C2056 C 0.23304 0.46918 0.26936 0.0
C2057 C 0.2296 0.49997 0.2907 0.0
C2058 C 0.24656 0.46823 0.28179 0.0
C2059 C 0.25043 0.4548 0.29284 0.0
C2060 C 0.24095 0.44197 0.29147 0.0
C2061 C 0.22728 0.44299 0.27929 0.0
C2062 C 0.22339 0.45649 0.26826 0.0
H2063 H 0.22386 0.51078 0.2953 0.0
H2064 H 0.22386 0.49044 0.29951 0.0
H2065 H 0.24153 0.50066 0.29671 0.0
H2066 H 0.25439 0.47773 0.28237 0.0
H2067 H 0.26107 0.45436 0.30198 0.0
H2068 H 0.55469 0.22085 0.2752 0.0
H2069 H 0.53087 0.21518 0.25547 0.0
H2070 H 0.51139 0.25687 0.28049 0.0
H2071 H 0.53488 0.26242 0.30057 0.0
H2072 H 0.49128 0.23286 0.28201 0.0
H2073 H 0.51877 0.23748 0.19822 0.0
H2074 H 0.52662 0.22351 0.21693 0.0
H2075 H 0.52821 0.24336 0.22362 0.0
C2076 C 0.54527 0.22872 0.27664 0.0
C2077 C 0.5467 0.24215 0.28926 0.0
C2078 C 0.53171 0.22551 0.26528 0.0
C2079 C 0.51947 0.23574 0.26623 0.0
C2080 C 0.52071 0.24884 0.2795 0.0
H2081 H 0.44894 0.26389 0.18151 0.0
H2082 H 0.47225 0.25802 0.20187 0.0
C2083 C 0.53418 0.25201 0.29092 0.0
C2084 C 0.50554 0.2334 0.25272 0.0
H2085 H 0.49234 0.23404 0.19893 0.0
C2086 C 0.49148 0.23289 0.26383 0.0
C2087 C 0.5059 0.23354 0.22901 0.0
C2088 C 0.52065 0.23461 0.21615 0.0
C2089 C 0.47772 0.23323 0.25191 0.0
C2090 C 0.47809 0.23378 0.22822 0.0
C2091 C 0.49214 0.23355 0.21709 0.0
C2092 C 0.46417 0.23649 0.21483 0.0
C2093 C 0.46297 0.23395 0.26481 0.0
C2094 C 0.45197 0.22618 0.21502 0.0
C2095 C 0.43853 0.22957 0.20349 0.0
C2096 C 0.43716 0.24326 0.19145 0.0
C2097 C 0.44961 0.25327 0.19067 0.0
C2098 C 0.46296 0.24992 0.20226 0.0
H2099 H 0.46483 0.23629 0.2829 0.0
H2100 H 0.45542 0.24291 0.25787 0.0
H2101 H 0.45698 0.22288 0.26334 0.0
H2102 H 0.45279 0.21561 0.22429 0.0
H2103 H 0.42916 0.22159 0.20426 0.0
H2104 H 0.75954 0.56007 0.2624 0.0
H2105 H 0.76251 0.5367 0.24041 0.0
H2106 H 0.73397 0.51268 0.28737 0.0
H2107 H 0.73063 0.53599 0.30904 0.0
H2108 H 0.77291 0.50741 0.24952 0.0
H2109 H 0.71156 0.5073 0.22821 0.0
H2110 H 0.72079 0.52341 0.24105 0.0
H2111 H 0.71493 0.50744 0.25785 0.0
C2112 C 0.75403 0.54976 0.26814 0.0
C2113 C 0.74467 0.54989 0.28724 0.0
C2114 C 0.75574 0.53644 0.25558 0.0
C2115 C 0.74817 0.52308 0.26201 0.0
C2116 C 0.73959 0.52298 0.28182 0.0
H2117 H 0.75747 0.43046 0.21664 0.0
H2118 H 0.76099 0.45505 0.23502 0.0
C2119 C 0.73775 0.53629 0.29423 0.0
C2120 C 0.74854 0.50944 0.24749 0.0
H2121 H 0.72538 0.48482 0.21955 0.0
C2122 C 0.76256 0.5025 0.24279 0.0
C2123 C 0.73504 0.50328 0.23834 0.0
C2124 C 0.71975 0.51082 0.2414 0.0
C2125 C 0.76336 0.48922 0.22975 0.0
C2126 C 0.74975 0.4826 0.22166 0.0
C2127 C 0.73581 0.48983 0.22587 0.0
C2128 C 0.74945 0.468 0.20922 0.0
C2129 C 0.77877 0.48254 0.2246 0.0
C2130 C 0.74173 0.46706 0.18867 0.0
C2131 C 0.73941 0.45299 0.17841 0.0
C2132 C 0.74488 0.4396 0.18842 0.0
C2133 C 0.75321 0.44061 0.20846 0.0
C2134 C 0.75534 0.45468 0.21891 0.0
H2135 H 0.78784 0.49133 0.22544 0.0
H2136 H 0.78148 0.47367 0.23722 0.0
H2137 H 0.77899 0.47723 0.20773 0.0
H2138 H 0.73706 0.47718 0.18091 0.0
H2139 H 0.73301 0.45257 0.1629 0.0
H2140 H 0.45221 0.72704 0.30201 0.0
H2141 H 0.47552 0.73362 0.28218 0.0
H2142 H 0.45373 0.77339 0.25454 0.0
H2143 H 0.43013 0.76669 0.27408 0.0
H2144 H 0.46754 0.7568 0.22266 0.0
H2145 H 0.50775 0.76544 0.29248 0.0
H2146 H 0.4981 0.74759 0.29537 0.0
H2147 H 0.4874 0.76505 0.2966 0.0
C2148 C 0.45241 0.73732 0.29199 0.0
C2149 C 0.43932 0.74634 0.28959 0.0
C2150 C 0.46581 0.74114 0.28081 0.0
C2151 C 0.46646 0.75415 0.26721 0.0
C2152 C 0.4535 0.76337 0.26512 0.0
H2153 H 0.55597 0.76744 0.20431 0.0
H2154 H 0.53231 0.77399 0.22379 0.0
C2155 C 0.44004 0.75953 0.27629 0.0
C2156 C 0.48022 0.75712 0.25358 0.0
H2157 H 0.51894 0.75789 0.25692 0.0
C2158 C 0.47877 0.75738 0.23016 0.0
C2159 C 0.49485 0.75821 0.26332 0.0
C2160 C 0.4971 0.75923 0.28834 0.0
C2161 C 0.49161 0.75751 0.21623 0.0
C2162 C 0.50626 0.75704 0.22602 0.0
C2163 C 0.50771 0.75799 0.24941 0.0
C2164 C 0.52008 0.75403 0.21256 0.0
C2165 C 0.48935 0.75778 0.19117 0.0
C2166 C 0.52105 0.74065 0.19982 0.0
C2167 C 0.53448 0.73692 0.18869 0.0
C2168 C 0.5473 0.7464 0.19026 0.0
C2169 C 0.54627 0.75993 0.20275 0.0
C2170 C 0.53278 0.76368 0.21388 0.0
H2171 H 0.47854 0.76357 0.18665 0.0
H2172 H 0.49889 0.76363 0.18255 0.0
H2173 H 0.48868 0.74592 0.18487 0.0
H2174 H 0.51155 0.73282 0.19906 0.0
H2175 H 0.53491 0.72638 0.17931 0.0
H2176 H 0.1793 0.10876 0.17338 0.0
H2177 H 0.16085 0.12563 0.19121 0.0
H2178 H 0.19116 0.13156 0.24739 0.0
H2179 H 0.20985 0.11489 0.22944 0.0
H2180 H 0.14593 0.12472 0.232 0.0
H2181 H 0.18378 0.1751 0.22598 0.0
H2182 H 0.18763 0.15757 0.21135 0.0
H2183 H 0.19204 0.1593 0.24067 0.0
C2184 C 0.18201 0.11356 0.18961 0.0
C2185 C 0.1961 0.11064 0.19991 0.0
C2186 C 0.17144 0.12318 0.19977 0.0
C2187 C 0.17478 0.13006 0.22038 0.0
C2188 C 0.18853 0.12662 0.23122 0.0
H2189 H 0.11351 0.17863 0.30811 0.0
H2190 H 0.1292 0.15959 0.2894 0.0
C2191 C 0.19915 0.11703 0.22102 0.0
C2192 C 0.16402 0.14118 0.23015 0.0
H2193 H 0.16091 0.17822 0.24649 0.0
C2194 C 0.14916 0.13643 0.23515 0.0
C2195 C 0.16822 0.15651 0.23379 0.0
C2196 C 0.18373 0.1625 0.22748 0.0
C2197 C 0.13845 0.14656 0.24413 0.0
C2198 C 0.14283 0.16175 0.24857 0.0
C2199 C 0.15761 0.16655 0.24319 0.0
C2200 C 0.13241 0.17283 0.25919 0.0
C2201 C 0.12249 0.14097 0.24845 0.0
C2202 C 0.12916 0.18669 0.24852 0.0
C2203 C 0.12031 0.19769 0.25928 0.0
C2204 C 0.11463 0.19502 0.28093 0.0
C2205 C 0.11766 0.181 0.29138 0.0
C2206 C 0.12655 0.17005 0.28065 0.0
H2207 H 0.11978 0.13078 0.2382 0.0
H2208 H 0.1214 0.13774 0.26636 0.0
H2209 H 0.11397 0.14996 0.24478 0.0
H2210 H 0.13364 0.18908 0.23198 0.0
H2211 H 0.11817 0.20838 0.25081 0.0
H2212 H 0.87787 0.17617 0.17254 0.0
H2213 H 0.86121 0.15707 0.1894 0.0
H2214 H 0.85571 0.18544 0.24776 0.0
H2215 H 0.8722 0.20476 0.23088 0.0
H2216 H 0.86241 0.14088 0.22977 0.0
H2217 H 0.81198 0.1788 0.22565 0.0
H2218 H 0.82947 0.18293 0.21103 0.0
H2219 H 0.82787 0.18673 0.24054 0.0
C2220 C 0.87322 0.17831 0.18906 0.0
C2221 C 0.8762 0.19205 0.20029 0.0
C2222 C 0.86372 0.16737 0.19865 0.0
C2223 C 0.85702 0.17 0.21961 0.0
C2224 C 0.86054 0.18337 0.23135 0.0
H2225 H 0.80858 0.10787 0.30571 0.0
H2226 H 0.82774 0.12336 0.28686 0.0
C2227 C 0.87002 0.19434 0.22174 0.0
C2228 C 0.84592 0.15898 0.22876 0.0
H2229 H 0.8089 0.15547 0.24507 0.0
C2230 C 0.8507 0.14403 0.23308 0.0
C2231 C 0.83058 0.16306 0.2326 0.0
C2232 C 0.82459 0.17871 0.22703 0.0
C2233 C 0.84059 0.13313 0.24168 0.0
C2234 C 0.82541 0.1374 0.24636 0.0
C2235 C 0.82057 0.15225 0.24157 0.0
C2236 C 0.81438 0.12683 0.25681 0.0
C2237 C 0.84621 0.11711 0.24543 0.0
C2238 C 0.80046 0.12372 0.24624 0.0
C2239 C 0.7894 0.11497 0.25707 0.0
C2240 C 0.79207 0.10927 0.27872 0.0
C2241 C 0.8062 0.11205 0.289 0.0
C2242 C 0.81721 0.12083 0.27819 0.0
H2243 H 0.85639 0.11459 0.23503 0.0
H2244 H 0.84948 0.11574 0.26328 0.0
H2245 H 0.83722 0.10865 0.24151 0.0
H2246 H 0.79804 0.12831 0.22977 0.0
H2247 H 0.77863 0.11302 0.24873 0.0
H2248 H 0.87289 0.77947 0.24977 0.0
H2249 H 0.85682 0.798 0.23028 0.0
H2250 H 0.86072 0.82865 0.28641 0.0
H2251 H 0.87699 0.81039 0.30575 0.0
H2252 H 0.82934 0.8083 0.24465 0.0
H2253 H 0.86889 0.85682 0.23403 0.0
H2254 H 0.87534 0.83796 0.24129 0.0
H2255 H 0.86772 0.85034 0.2625 0.0
C2256 C 0.87051 0.79026 0.25779 0.0
C2257 C 0.8762 0.79348 0.27928 0.0
C2258 C 0.86133 0.80082 0.24666 0.0
C2259 C 0.85773 0.81477 0.25679 0.0
C2260 C 0.86363 0.81811 0.27807 0.0
H2261 H 0.77834 0.87013 0.22826 0.0
H2262 H 0.79767 0.85384 0.24552 0.0
C2263 C 0.87285 0.80761 0.28916 0.0
C2264 C 0.84691 0.82535 0.24591 0.0
H2265 H 0.84245 0.86209 0.22856 0.0
C2266 C 0.83224 0.82003 0.24097 0.0
C2267 C 0.85076 0.84061 0.24096 0.0
C2268 C 0.86658 0.84675 0.24476 0.0
C2269 C 0.8212 0.82963 0.23161 0.0
C2270 C 0.82485 0.84505 0.22755 0.0
C2271 C 0.83962 0.85031 0.23203 0.0
C2272 C 0.81361 0.85578 0.21802 0.0
C2273 C 0.80581 0.82309 0.22584 0.0
C2274 C 0.81646 0.86277 0.19732 0.0
C2275 C 0.80553 0.87219 0.18755 0.0
C2276 C 0.79155 0.8748 0.19834 0.0
C2277 C 0.78895 0.86824 0.21947 0.0
C2278 C 0.79993 0.85886 0.22928 0.0
H2279 H 0.80618 0.8105 0.22445 0.0
H2280 H 0.7976 0.82606 0.23926 0.0
H2281 H 0.8015 0.82783 0.20979 0.0
H2282 H 0.82699 0.86062 0.18843 0.0
H2283 H 0.8079 0.87713 0.17128 0.0
H2284 H 0.21166 0.86576 0.25637 0.0
H2285 H 0.19186 0.85059 0.23836 0.0
H2286 H 0.15782 0.87228 0.27949 0.0
H2287 H 0.17768 0.88706 0.29819 0.0
H2288 H 0.15417 0.84277 0.28025 0.0
H2289 H 0.16074 0.86038 0.19191 0.0
H2290 H 0.17841 0.85363 0.20313 0.0
H2291 H 0.16975 0.87049 0.21462 0.0
C2292 C 0.19993 0.86748 0.26132 0.0
C2293 C 0.1962 0.87758 0.27869 0.0
C2294 C 0.1886 0.85886 0.25091 0.0
C2295 C 0.17331 0.86046 0.25731 0.0
C2296 C 0.16953 0.87089 0.27423 0.0
H2297 H 0.10327 0.81265 0.18106 0.0
H2298 H 0.11809 0.83256 0.19956 0.0
C2299 C 0.18088 0.87934 0.28487 0.0
C2300 C 0.16145 0.85041 0.24763 0.0
H2301 H 0.14754 0.83677 0.19821 0.0
C2302 C 0.15257 0.84162 0.2623 0.0
C2303 C 0.15916 0.84908 0.22425 0.0
C2304 C 0.16741 0.85903 0.20761 0.0
C2305 C 0.14188 0.83113 0.25423 0.0
C2306 C 0.14037 0.82902 0.23083 0.0
C2307 C 0.14884 0.83823 0.21617 0.0
C2308 C 0.13045 0.81708 0.22113 0.0
C2309 C 0.13225 0.82251 0.2709 0.0
C2310 C 0.13237 0.80176 0.22722 0.0
C2311 C 0.12374 0.7904 0.21693 0.0
C2312 C 0.11329 0.79412 0.19998 0.0
C2313 C 0.11126 0.80946 0.19406 0.0
C2314 C 0.11973 0.82083 0.20458 0.0
H2315 H 0.13095 0.82899 0.28677 0.0
H2316 H 0.12077 0.82004 0.26407 0.0
H2317 H 0.13791 0.81158 0.27501 0.0
H2318 H 0.14087 0.79852 0.23947 0.0
H2319 H 0.12566 0.77866 0.22167 0.0
H2320 H 0.86298 0.77291 0.72518 0.0
H2321 H 0.84628 0.7916 0.74297 0.0
H2322 H 0.86887 0.82768 0.70696 0.0
H2323 H 0.8852 0.80899 0.68847 0.0
H2324 H 0.85048 0.81578 0.76922 0.0
H2325 H 0.82547 0.83448 0.68848 0.0
H2326 H 0.8377 0.81809 0.69068 0.0
H2327 H 0.84571 0.83692 0.68955 0.0
C2328 C 0.86447 0.78484 0.72121 0.0
C2329 C 0.87524 0.7895 0.70523 0.0
C2330 C 0.85491 0.7955 0.73136 0.0
C2331 C 0.85606 0.81099 0.72583 0.0
C2332 C 0.86746 0.81574 0.71092 0.0
H2333 H 0.80962 0.88193 0.80183 0.0
H2334 H 0.82878 0.86553 0.78459 0.0
C2335 C 0.87686 0.80507 0.70052 0.0
C2336 C 0.84509 0.82207 0.73526 0.0
H2337 H 0.81865 0.84875 0.72066 0.0
C2338 C 0.8435 0.82298 0.75862 0.0
C2339 C 0.83579 0.83126 0.72137 0.0
C2340 C 0.83611 0.83005 0.69613 0.0
C2341 C 0.83294 0.83288 0.7685 0.0
C2342 C 0.82406 0.84249 0.75463 0.0
C2343 C 0.8256 0.84152 0.73127 0.0
C2344 C 0.81269 0.85321 0.76396 0.0
C2345 C 0.83109 0.83257 0.79365 0.0
C2346 C 0.79742 0.85231 0.75719 0.0
C2347 C 0.7865 0.86191 0.76663 0.0
C2348 C 0.79068 0.8725 0.78315 0.0
C2349 C 0.80605 0.87375 0.78933 0.0
C2350 C 0.81699 0.8643 0.77964 0.0
H2351 H 0.83533 0.82175 0.80095 0.0
H2352 H 0.83778 0.84199 0.80112 0.0
H2353 H 0.81899 0.83403 0.79853 0.0
H2354 H 0.79386 0.84391 0.74497 0.0
H2355 H 0.77474 0.86069 0.76153 0.0
H2356 H 0.21267 0.86217 0.72216 0.0
H2357 H 0.19367 0.84555 0.73937 0.0
H2358 H 0.15832 0.8676 0.70111 0.0
H2359 H 0.17735 0.88383 0.68316 0.0
H2360 H 0.16929 0.85022 0.76451 0.0
H2361 H 0.15136 0.82403 0.68425 0.0
H2362 H 0.16775 0.83626 0.68637 0.0
H2363 H 0.14895 0.84428 0.6846 0.0
C2364 C 0.20084 0.86354 0.71751 0.0
C2365 C 0.1965 0.87417 0.70113 0.0
C2366 C 0.18999 0.85403 0.72734 0.0
C2367 C 0.17462 0.85507 0.7211 0.0
C2368 C 0.17017 0.86625 0.70564 0.0
H2369 H 0.10348 0.80924 0.79791 0.0
H2370 H 0.11953 0.82839 0.77985 0.0
C2371 C 0.18103 0.87561 0.69555 0.0
C2372 C 0.16336 0.8443 0.73061 0.0
H2373 H 0.13684 0.81762 0.71638 0.0
C2374 C 0.1622 0.84308 0.754 0.0
C2375 C 0.15429 0.83481 0.71685 0.0
C2376 C 0.15573 0.83477 0.69164 0.0
C2377 C 0.15224 0.83264 0.76403 0.0
C2378 C 0.14278 0.82353 0.75028 0.0
C2379 C 0.14395 0.82475 0.72689 0.0
C2380 C 0.13211 0.81218 0.7598 0.0
C2381 C 0.15236 0.83113 0.78924 0.0
C2382 C 0.13324 0.79682 0.75356 0.0
C2383 C 0.12384 0.78591 0.76344 0.0
C2384 C 0.11324 0.79017 0.77989 0.0
C2385 C 0.1117 0.80562 0.78547 0.0
C2386 C 0.12094 0.81655 0.77531 0.0
H2387 H 0.1631 0.83555 0.7966 0.0
H2388 H 0.14283 0.83784 0.79635 0.0
H2389 H 0.15096 0.81909 0.79447 0.0
H2390 H 0.1417 0.79321 0.74148 0.0
H2391 H 0.12526 0.7741 0.75881 0.0
H2392 H 0.11399 0.20713 0.73058 0.0
H2393 H 0.13029 0.18792 0.74812 0.0
H2394 H 0.12488 0.15893 0.69039 0.0
H2395 H 0.10841 0.17792 0.6729 0.0
H2396 H 0.1235 0.14317 0.7311 0.0
H2397 H 0.17405 0.18094 0.72654 0.0
H2398 H 0.15814 0.18902 0.74116 0.0
H2399 H 0.15662 0.18497 0.71171 0.0
C2400 C 0.11615 0.1966 0.72173 0.0
C2401 C 0.11006 0.1941 0.70027 0.0
C2402 C 0.12551 0.18568 0.73171 0.0
C2403 C 0.12901 0.17217 0.72033 0.0
C2404 C 0.12238 0.16934 0.69937 0.0
H2405 H 0.20715 0.11507 0.74946 0.0
H2406 H 0.18772 0.1305 0.7308 0.0
C2407 C 0.11299 0.18021 0.68941 0.0
C2408 C 0.14005 0.16121 0.72982 0.0
H2409 H 0.17707 0.15772 0.74618 0.0
C2410 C 0.13523 0.14631 0.73438 0.0
C2411 C 0.1554 0.16529 0.73363 0.0
C2412 C 0.16144 0.18088 0.72782 0.0
C2413 C 0.14531 0.13544 0.74313 0.0
C2414 C 0.16051 0.13969 0.74771 0.0
C2415 C 0.16538 0.15451 0.74275 0.0
C2416 C 0.17156 0.12911 0.75808 0.0
C2417 C 0.13965 0.11946 0.74709 0.0
C2418 C 0.16884 0.12313 0.7795 0.0
C2419 C 0.17987 0.11427 0.79014 0.0
C2420 C 0.1939 0.11139 0.77965 0.0
C2421 C 0.19646 0.1171 0.75798 0.0
C2422 C 0.18539 0.12592 0.74731 0.0
H2423 H 0.12939 0.11694 0.73685 0.0
H2424 H 0.14858 0.11095 0.74312 0.0
H2425 H 0.1365 0.11817 0.765 0.0
H2426 H 0.15839 0.12572 0.78831 0.0
H2427 H 0.17758 0.11009 0.80688 0.0
H2428 H 0.88439 0.17637 0.80203 0.0
H2429 H 0.87011 0.15598 0.7837 0.0
H2430 H 0.84805 0.18906 0.74123 0.0
H2431 H 0.86273 0.20936 0.75884 0.0
H2432 H 0.84074 0.15152 0.78377 0.0
H2433 H 0.85903 0.15779 0.69575 0.0
H2434 H 0.86869 0.16725 0.71849 0.0
H2435 H 0.85177 0.17541 0.70636 0.0
C2436 C 0.87668 0.17924 0.78851 0.0
C2437 C 0.8747 0.19444 0.7818 0.0
C2438 C 0.86852 0.16759 0.77808 0.0
C2439 C 0.85816 0.17094 0.76085 0.0
C2440 C 0.85629 0.18612 0.75401 0.0
H2441 H 0.77734 0.12232 0.72448 0.0
H2442 H 0.79707 0.13742 0.74276 0.0
C2443 C 0.86462 0.19774 0.7642 0.0
C2444 C 0.84849 0.15877 0.7512 0.0
H2445 H 0.83548 0.14437 0.70173 0.0
C2446 C 0.83976 0.1498 0.76583 0.0
C2447 C 0.8474 0.1563 0.72783 0.0
C2448 C 0.85737 0.1646 0.71125 0.0
C2449 C 0.82952 0.13888 0.75771 0.0
C2450 C 0.82758 0.13724 0.7343 0.0
C2451 C 0.83678 0.14576 0.71969 0.0
C2452 C 0.81575 0.12722 0.72449 0.0
C2453 C 0.82096 0.12919 0.77436 0.0
C2454 C 0.81962 0.11663 0.70783 0.0
C2455 C 0.80831 0.10824 0.697 0.0
C2456 C 0.79294 0.11019 0.70275 0.0
C2457 C 0.78911 0.12045 0.71987 0.0
C2458 C 0.8004 0.12902 0.73045 0.0
H2459 H 0.82743 0.12794 0.79024 0.0
H2460 H 0.80998 0.13477 0.77844 0.0
H2461 H 0.81857 0.11769 0.76755 0.0
H2462 H 0.83137 0.11507 0.7029 0.0
H2463 H 0.81158 0.10039 0.68387 0.0
H2464 H 0.67864 0.61306 0.66659 0.0
H2465 H 0.65975 0.6297 0.68398 0.0
H2466 H 0.689 0.63536 0.74142 0.0
H2467 H 0.7081 0.61893 0.72397 0.0
H2468 H 0.64423 0.62779 0.72426 0.0
H2469 H 0.68096 0.67908 0.72145 0.0
H2470 H 0.68542 0.66192 0.70624 0.0
H2471 H 0.68948 0.66325 0.73572 0.0
C2472 C 0.68104 0.61779 0.68297 0.0
C2473 C 0.69492 0.61481 0.69384 0.0
C2474 C 0.67023 0.62729 0.69287 0.0
C2475 C 0.67312 0.63397 0.71377 0.0
C2476 C 0.68672 0.63057 0.72504 0.0
H2477 H 0.6109 0.67842 0.80413 0.0
H2478 H 0.62677 0.66032 0.78379 0.0
C2479 C 0.69757 0.62112 0.71511 0.0
C2480 C 0.66198 0.64467 0.72362 0.0
H2481 H 0.658 0.68113 0.74223 0.0
C2482 C 0.6472 0.63947 0.72812 0.0
C2483 C 0.66581 0.65998 0.7282 0.0
C2484 C 0.68123 0.66646 0.72246 0.0
C2485 C 0.63623 0.6491 0.73765 0.0
C2486 C 0.64028 0.66421 0.74315 0.0
C2487 C 0.65495 0.6695 0.73813 0.0
C2488 C 0.62966 0.67469 0.75463 0.0
C2489 C 0.62039 0.64304 0.7415 0.0
C2490 C 0.62614 0.68886 0.7451 0.0
C2491 C 0.61719 0.69932 0.7568 0.0
C2492 C 0.61167 0.69579 0.77828 0.0
C2493 C 0.61492 0.68145 0.78756 0.0
C2494 C 0.62391 0.67104 0.7759 0.0
H2495 H 0.61789 0.63318 0.73045 0.0
H2496 H 0.61937 0.63914 0.75913 0.0
H2497 H 0.61169 0.65197 0.73853 0.0
H2498 H 0.63053 0.69192 0.72874 0.0
H2499 H 0.61488 0.71027 0.74922 0.0
H2500 H 0.30925 0.60982 0.80887 0.0
H2501 H 0.32803 0.62629 0.7909 0.0
H2502 H 0.29827 0.63179 0.73399 0.0
H2503 H 0.27926 0.61553 0.75205 0.0
H2504 H 0.34325 0.62466 0.75023 0.0
H2505 H 0.30596 0.67553 0.75442 0.0
H2506 H 0.30183 0.65823 0.76951 0.0
H2507 H 0.29761 0.65964 0.74009 0.0
C2508 C 0.30673 0.61445 0.79246 0.0
C2509 C 0.2927 0.61153 0.78197 0.0
C2510 C 0.31748 0.62384 0.78222 0.0
C2511 C 0.3144 0.63047 0.76134 0.0
C2512 C 0.30071 0.62703 0.75035 0.0
H2513 H 0.37659 0.67764 0.67317 0.0
H2514 H 0.36076 0.65881 0.69218 0.0
C2515 C 0.2899 0.61768 0.76062 0.0
C2516 C 0.32535 0.64135 0.75143 0.0
H2517 H 0.32902 0.67817 0.73422 0.0
C2518 C 0.34018 0.63637 0.74675 0.0
C2519 C 0.32136 0.65669 0.74735 0.0
C2520 C 0.30588 0.66292 0.75328 0.0
C2521 C 0.35107 0.64628 0.73765 0.0
C2522 C 0.34691 0.66146 0.73279 0.0
C2523 C 0.33215 0.66649 0.73785 0.0
C2524 C 0.35752 0.67233 0.7221 0.0
C2525 C 0.36699 0.64046 0.73364 0.0
C2526 C 0.36084 0.68625 0.73252 0.0
C2527 C 0.36977 0.69712 0.7216 0.0
C2528 C 0.37547 0.69425 0.70001 0.0
C2529 C 0.37243 0.68015 0.68984 0.0
C2530 C 0.36346 0.66933 0.70074 0.0
H2531 H 0.3695 0.63031 0.74412 0.0
H2532 H 0.36814 0.63708 0.71581 0.0
H2533 H 0.37559 0.64937 0.73726 0.0
H2534 H 0.35631 0.68881 0.74898 0.0
H2535 H 0.37192 0.70787 0.72986 0.0
H2536 H 0.36494 0.27625 0.75712 0.0
H2537 H 0.34944 0.2959 0.73935 0.0
H2538 H 0.37121 0.33014 0.78003 0.0
H2539 H 0.38631 0.31043 0.79852 0.0
H2540 H 0.34171 0.33367 0.78116 0.0
H2541 H 0.35872 0.32694 0.69262 0.0
H2542 H 0.3521 0.30929 0.70404 0.0
H2543 H 0.36902 0.31802 0.71524 0.0
C2544 C 0.36659 0.28799 0.76202 0.0
C2545 C 0.37682 0.29182 0.7792 0.0
C2546 C 0.35779 0.29924 0.75175 0.0
C2547 C 0.35932 0.31455 0.75809 0.0
C2548 C 0.36986 0.31842 0.77482 0.0
H2549 H 0.31112 0.38429 0.68187 0.0
H2550 H 0.33108 0.36951 0.70035 0.0
C2551 C 0.37849 0.30715 0.78534 0.0
C2552 C 0.34914 0.32633 0.74848 0.0
H2553 H 0.33517 0.34013 0.69918 0.0
C2554 C 0.34043 0.33522 0.76323 0.0
C2555 C 0.34765 0.32857 0.72511 0.0
C2556 C 0.3575 0.3203 0.70837 0.0
C2557 C 0.32989 0.34591 0.75524 0.0
C2558 C 0.32764 0.34737 0.73186 0.0
C2559 C 0.33674 0.33887 0.71712 0.0
C2560 C 0.31568 0.35733 0.72224 0.0
C2561 C 0.32141 0.35557 0.77197 0.0
C2562 C 0.30039 0.35551 0.72855 0.0
C2563 C 0.28899 0.36414 0.71829 0.0
C2564 C 0.29266 0.37446 0.70115 0.0
C2565 C 0.30797 0.37639 0.69502 0.0
C2566 C 0.31938 0.36794 0.70553 0.0
H2567 H 0.32799 0.3569 0.78775 0.0
H2568 H 0.3189 0.36705 0.76513 0.0
H2569 H 0.31049 0.34994 0.77626 0.0
H2570 H 0.29718 0.3471 0.74093 0.0
H2571 H 0.27727 0.36229 0.72318 0.0
H2572 H 0.6231 0.27703 0.72296 0.0
H2573 H 0.63779 0.29725 0.74081 0.0
H2574 H 0.61533 0.3306 0.69928 0.0
H2575 H 0.60106 0.31032 0.68071 0.0
H2576 H 0.64463 0.3351 0.69865 0.0
H2577 H 0.62725 0.32818 0.78699 0.0
H2578 H 0.63448 0.31067 0.77594 0.0
H2579 H 0.6174 0.31884 0.76433 0.0
C2580 C 0.62113 0.2887 0.71789 0.0
C2581 C 0.61095 0.29211 0.70045 0.0
C2582 C 0.62946 0.30027 0.72821 0.0
C2583 C 0.62749 0.31549 0.72166 0.0
C2584 C 0.61701 0.31895 0.70466 0.0
H2585 H 0.67426 0.3861 0.79828 0.0
H2586 H 0.65444 0.37124 0.77961 0.0
C2587 C 0.60884 0.30736 0.6941 0.0
C2588 C 0.63723 0.32762 0.7313 0.0
H2589 H 0.65062 0.34184 0.78066 0.0
C2590 C 0.64578 0.33672 0.71659 0.0
C2591 C 0.63853 0.32996 0.75467 0.0
C2592 C 0.62879 0.3215 0.77135 0.0
C2593 C 0.65602 0.34766 0.72463 0.0
C2594 C 0.65815 0.34919 0.74802 0.0
C2595 C 0.64916 0.34053 0.76272 0.0
C2596 C 0.66998 0.35928 0.75769 0.0
C2597 C 0.66436 0.3575 0.70793 0.0
C2598 C 0.6853 0.35762 0.75142 0.0
C2599 C 0.6966 0.36628 0.7618 0.0
C2600 C 0.69283 0.37649 0.77901 0.0
C2601 C 0.67749 0.37829 0.78507 0.0
C2602 C 0.66617 0.3698 0.77445 0.0
H2603 H 0.65775 0.35876 0.69216 0.0
H2604 H 0.6667 0.36899 0.7148 0.0
H2605 H 0.67535 0.35203 0.7036 0.0
H2606 H 0.68859 0.34927 0.73901 0.0
H2607 H 0.70834 0.36453 0.75695 0.0
H2608 H 0.3599 0.27585 0.22125 0.0
H2609 H 0.34357 0.29512 0.23837 0.0
H2610 H 0.36589 0.33003 0.19958 0.0
H2611 H 0.38183 0.31073 0.18174 0.0
H2612 H 0.34874 0.31956 0.26326 0.0
H2613 H 0.32232 0.33755 0.18317 0.0
H2614 H 0.33431 0.32098 0.1853 0.0
H2615 H 0.3426 0.33965 0.18318 0.0
C2616 C 0.36138 0.28764 0.21646 0.0
C2617 C 0.37201 0.29178 0.19998 0.0
C2618 C 0.35203 0.29864 0.22623 0.0
C2619 C 0.35324 0.31397 0.21984 0.0
C2620 C 0.36441 0.31821 0.20424 0.0
H2621 H 0.30957 0.38646 0.29643 0.0
H2622 H 0.32819 0.3699 0.27822 0.0
C2623 C 0.3736 0.3072 0.19421 0.0
C2624 C 0.34271 0.32544 0.22937 0.0
H2625 H 0.31651 0.35245 0.21518 0.0
C2626 C 0.34168 0.32674 0.25275 0.0
C2627 C 0.33331 0.33463 0.21564 0.0
C2628 C 0.33305 0.33305 0.19044 0.0
C2629 C 0.33154 0.33699 0.26281 0.0
C2630 C 0.32255 0.34657 0.24907 0.0
C2631 C 0.32355 0.34524 0.22568 0.0
C2632 C 0.31153 0.35757 0.25862 0.0
C2633 C 0.33022 0.33705 0.28804 0.0
C2634 C 0.2961 0.35675 0.25266 0.0
C2635 C 0.28548 0.36643 0.26262 0.0
C2636 C 0.29012 0.37703 0.27887 0.0
C2637 C 0.30565 0.37826 0.28414 0.0
C2638 C 0.31629 0.36873 0.27391 0.0
H2639 H 0.33446 0.32626 0.29548 0.0
H2640 H 0.33721 0.34647 0.29492 0.0
H2641 H 0.31826 0.33876 0.29343 0.0
H2642 H 0.2922 0.34831 0.24076 0.0
H2643 H 0.27362 0.36523 0.25822 0.0
H2644 H 0.62355 0.27577 0.25725 0.0
H2645 H 0.63969 0.29531 0.24038 0.0
H2646 H 0.6161 0.3299 0.27805 0.0
H2647 H 0.60039 0.31032 0.29575 0.0
H2648 H 0.63489 0.31942 0.21516 0.0
H2649 H 0.659 0.33832 0.29638 0.0
H2650 H 0.64725 0.32161 0.2939 0.0
H2651 H 0.63872 0.34021 0.2951 0.0
C2652 C 0.62174 0.28756 0.26182 0.0
C2653 C 0.61085 0.29153 0.27801 0.0
C2654 C 0.63098 0.29871 0.25219 0.0
C2655 C 0.62938 0.31403 0.25839 0.0
C2656 C 0.61789 0.31811 0.27357 0.0
H2657 H 0.67653 0.38499 0.18217 0.0
H2658 H 0.6568 0.36933 0.19961 0.0
C2659 C 0.60883 0.30693 0.28352 0.0
C2660 C 0.63996 0.32562 0.24925 0.0
H2661 H 0.66577 0.35276 0.2644 0.0
C2662 C 0.64165 0.32672 0.22592 0.0
C2663 C 0.64895 0.33498 0.26333 0.0
C2664 C 0.64853 0.33364 0.28856 0.0
C2665 C 0.65213 0.3368 0.21626 0.0
C2666 C 0.66078 0.34649 0.23032 0.0
C2667 C 0.65901 0.34547 0.25364 0.0
C2668 C 0.67236 0.35711 0.22125 0.0
C2669 C 0.65424 0.3365 0.19115 0.0
C2670 C 0.68751 0.35613 0.2286 0.0
C2671 C 0.69872 0.36535 0.2191 0.0
C2672 C 0.695 0.37561 0.2019 0.0
C2673 C 0.67974 0.37704 0.19522 0.0
C2674 C 0.66848 0.368 0.20502 0.0
H2675 H 0.65008 0.32568 0.18374 0.0
H2676 H 0.64762 0.34592 0.18351 0.0
H2677 H 0.66639 0.33796 0.18653 0.0
H2678 H 0.69075 0.34788 0.24123 0.0
H2679 H 0.71039 0.36399 0.2246 0.0
H2680 H 0.71269 0.62717 0.26012 0.0
H2681 H 0.69325 0.64354 0.24352 0.0
H2682 H 0.6589 0.62181 0.28407 0.0
H2683 H 0.67841 0.60582 0.30141 0.0
H2684 H 0.66854 0.63819 0.2196 0.0
H2685 H 0.65165 0.66556 0.29948 0.0
H2686 H 0.66813 0.65345 0.29723 0.0
H2687 H 0.64944 0.64529 0.29993 0.0
C2688 C 0.70099 0.62584 0.26544 0.0
C2689 C 0.69708 0.61534 0.28223 0.0
C2690 C 0.68989 0.63521 0.25596 0.0
C2691 C 0.67467 0.63416 0.26294 0.0
C2692 C 0.67063 0.62316 0.27894 0.0
H2693 H 0.60212 0.67813 0.18655 0.0
H2694 H 0.61834 0.65937 0.20514 0.0
C2695 C 0.68177 0.61395 0.28869 0.0
C2696 C 0.66311 0.64463 0.25347 0.0
H2697 H 0.63657 0.67131 0.26762 0.0
C2698 C 0.66155 0.64544 0.23009 0.0
C2699 C 0.65417 0.65426 0.26718 0.0
C2700 C 0.65602 0.65474 0.29233 0.0
C2701 C 0.65133 0.65562 0.22002 0.0
C2702 C 0.64202 0.66487 0.23376 0.0
C2703 C 0.64357 0.66406 0.25714 0.0
C2704 C 0.63113 0.67599 0.22416 0.0
C2705 C 0.65105 0.65669 0.19477 0.0
C2706 C 0.6323 0.69147 0.2297 0.0
C2707 C 0.62279 0.70217 0.21952 0.0
C2708 C 0.61205 0.69757 0.20346 0.0
C2709 C 0.61044 0.68201 0.19866 0.0
C2710 C 0.61979 0.67129 0.20912 0.0
H2711 H 0.66169 0.65221 0.18721 0.0
H2712 H 0.64145 0.64981 0.18823 0.0
H2713 H 0.6495 0.66863 0.18915 0.0
H2714 H 0.6409 0.69534 0.2414 0.0
H2715 H 0.62428 0.71409 0.22356 0.0
H2716 H 0.31031 0.60181 0.18217 0.0
H2717 H 0.33052 0.61645 0.20027 0.0
H2718 H 0.29702 0.63973 0.24047 0.0
H2719 H 0.27686 0.62469 0.22308 0.0
H2720 H 0.33496 0.64582 0.1984 0.0
H2721 H 0.32784 0.62991 0.28735 0.0
H2722 H 0.31859 0.61966 0.265 0.0
H2723 H 0.31039 0.63696 0.27581 0.0
C2724 C 0.3073 0.60986 0.19516 0.0
C2725 C 0.29202 0.61209 0.20127 0.0
C2726 C 0.31884 0.61824 0.20546 0.0
C2727 C 0.31533 0.62906 0.22194 0.0
C2728 C 0.30008 0.63115 0.22826 0.0
H2729 H 0.36498 0.7101 0.25498 0.0
H2730 H 0.34953 0.69029 0.23752 0.0
C2731 C 0.28854 0.62262 0.21821 0.0
C2732 C 0.32745 0.63895 0.23127 0.0
H2733 H 0.34176 0.65297 0.2802 0.0
C2734 C 0.33659 0.64723 0.2163 0.0
C2735 C 0.32978 0.6406 0.2546 0.0
C2736 C 0.32123 0.63117 0.27158 0.0
C2737 C 0.3476 0.65751 0.22401 0.0
C2738 C 0.34918 0.65996 0.24732 0.0
C2739 C 0.34043 0.65126 0.2623 0.0
C2740 C 0.35941 0.67179 0.25662 0.0
C2741 C 0.35748 0.66556 0.20704 0.0
C2742 C 0.36995 0.66806 0.27341 0.0
C2743 C 0.37857 0.67941 0.28374 0.0
C2744 C 0.37687 0.6947 0.27737 0.0
C2745 C 0.36666 0.69839 0.26008 0.0
C2746 C 0.35788 0.68705 0.24999 0.0
H2747 H 0.35863 0.65876 0.19144 0.0
H2748 H 0.35212 0.67656 0.20248 0.0
H2749 H 0.36902 0.66785 0.21381 0.0
H2750 H 0.3713 0.65637 0.27885 0.0
H2751 H 0.38637 0.67624 0.29701 0.0
loop_
_geom_bond_atom_site_label_1
_geom_bond_atom_site_label_2
_geom_bond_distance
_geom_bond_site_symmetry_2
_ccdc_geom_bond_type
C0 O1 1.306 . S
C0 O3 1.160 . S
O1 C0 1.306 . S
O1 Cd2 2.228 . S
Cd2 O1 2.228 . S
Cd2 O6 2.273 . S
Cd2 O10 2.277 . S
O3 C0 1.160 . S
O3 Cd4 2.203 . S
Cd4 O3 2.203 . S
Cd4 O6 2.411 . S
Cd4 O7 2.333 . S
Cd4 O8 2.352 . S
Cd4 O12 2.277 . S
Cd4 O13 2.356 . S
C5 O10 1.209 . S
C5 O12 1.226 . S
O6 Cd2 2.273 . S
O6 Cd4 2.411 . S
O6 C9 1.320 . S
O7 Cd4 2.333 . S
O7 C9 1.214 . S
O8 Cd4 2.352 . S
O8 C11 1.258 . S
C9 O6 1.320 . S
C9 O7 1.214 . S
O10 Cd2 2.277 . S
O10 C5 1.209 . S
C11 O8 1.258 . S
C11 O13 1.282 . S
O12 Cd4 2.277 . S
O12 C5 1.226 . S
O13 Cd4 2.356 . S
O13 C11 1.282 . S
C14 O15 1.306 . S
C14 O17 1.160 . S
O15 C14 1.306 . S
O15 Cd16 2.228 . S
Cd16 O15 2.228 . S
Cd16 O20 2.273 . S
Cd16 O24 2.277 . S
O17 C14 1.160 . S
O17 Cd18 2.203 . S
Cd18 O17 2.203 . S
Cd18 O20 2.411 . S
Cd18 O21 2.333 . S
Cd18 O22 2.352 . S
Cd18 O26 2.277 . S
Cd18 O27 2.356 . S
C19 O24 1.209 . S
C19 O26 1.226 . S
O20 Cd16 2.273 . S
O20 Cd18 2.411 . S
O20 C23 1.320 . S
O21 Cd18 2.333 . S
O21 C23 1.214 . S
O22 Cd18 2.352 . S
O22 C25 1.258 . S
C23 O20 1.320 . S
C23 O21 1.214 . S
O24 Cd16 2.277 . S
O24 C19 1.209 . S
C25 O22 1.258 . S
C25 O27 1.282 . S
O26 Cd18 2.277 . S
O26 C19 1.226 . S
O27 Cd18 2.356 . S
O27 C25 1.282 . S
C28 O29 1.306 . S
C28 O31 1.160 . S
O29 C28 1.306 . S
O29 Cd30 2.228 . S
Cd30 O29 2.228 . S
Cd30 O34 2.273 . S
Cd30 O38 2.277 . S
O31 C28 1.160 . S
O31 Cd32 2.203 . S
Cd32 O31 2.203 . S
Cd32 O34 2.411 . S
Cd32 O35 2.333 . S
Cd32 O36 2.352 . S
Cd32 O40 2.277 . S
Cd32 O41 2.356 . S
C33 O38 1.209 . S
C33 O40 1.226 . S
O34 Cd30 2.273 . S
O34 Cd32 2.411 . S
O34 C37 1.320 . S
O35 Cd32 2.333 . S
O35 C37 1.214 . S
O36 Cd32 2.352 . S
O36 C39 1.258 . S
C37 O34 1.320 . S
C37 O35 1.214 . S
O38 Cd30 2.277 . S
O38 C33 1.209 . S
C39 O36 1.258 . S
C39 O41 1.282 . S
O40 Cd32 2.277 . S
O40 C33 1.226 . S
O41 Cd32 2.356 . S
O41 C39 1.282 . S
C42 O43 1.306 . S
C42 O45 1.160 . S
O43 C42 1.306 . S
O43 Cd44 2.228 . S
Cd44 O43 2.228 . S
Cd44 O48 2.273 . S
Cd44 O52 2.277 . S
O45 C42 1.160 . S
O45 Cd46 2.203 . S
Cd46 O45 2.203 . S
Cd46 O48 2.411 . S
Cd46 O49 2.333 . S
Cd46 O50 2.352 . S
Cd46 O54 2.277 . S
Cd46 O55 2.356 . S
C47 O52 1.209 . S
C47 O54 1.226 . S
O48 Cd44 2.273 . S
O48 Cd46 2.411 . S
O48 C51 1.320 . S
O49 Cd46 2.333 . S
O49 C51 1.214 . S
O50 Cd46 2.352 . S
O50 C53 1.258 . S
C51 O48 1.320 . S
C51 O49 1.214 . S
O52 Cd44 2.277 . S
O52 C47 1.209 . S
C53 O50 1.258 . S
C53 O55 1.282 . S
O54 Cd46 2.277 . S
O54 C47 1.226 . S
O55 Cd46 2.356 . S
O55 C53 1.282 . S
C56 O57 1.306 . S
C56 O59 1.160 . S
O57 C56 1.306 . S
O57 Cd58 2.228 . S
Cd58 O57 2.228 . S
Cd58 O62 2.273 . S
Cd58 O66 2.277 . S
O59 C56 1.160 . S
O59 Cd60 2.203 . S
Cd60 O59 2.203 . S
Cd60 O62 2.411 . S
Cd60 O63 2.333 . S
Cd60 O64 2.352 . S
Cd60 O68 2.277 . S
Cd60 O69 2.356 . S
C61 O66 1.209 . S
C61 O68 1.226 . S
O62 Cd58 2.273 . S
O62 Cd60 2.411 . S
O62 C65 1.320 . S
O63 Cd60 2.333 . S
O63 C65 1.214 . S
O64 Cd60 2.352 . S
O64 C67 1.258 . S
C65 O62 1.320 . S
C65 O63 1.214 . S
O66 Cd58 2.277 . S
O66 C61 1.209 . S
C67 O64 1.258 . S
C67 O69 1.282 . S
O68 Cd60 2.277 . S
O68 C61 1.226 . S
O69 Cd60 2.356 . S
O69 C67 1.282 . S
C70 O71 1.306 . S
C70 O73 1.160 . S
O71 C70 1.306 . S
O71 Cd72 2.228 . S
Cd72 O71 2.228 . S
Cd72 O76 2.273 . S
Cd72 O80 2.277 . S
O73 C70 1.160 . S
O73 Cd74 2.203 . S
Cd74 O73 2.203 . S
Cd74 O76 2.411 . S
Cd74 O77 2.333 . S
Cd74 O78 2.352 . S
Cd74 O82 2.277 . S
Cd74 O83 2.356 . S
C75 O80 1.209 . S
C75 O82 1.226 . S
O76 Cd72 2.273 . S
O76 Cd74 2.411 . S
O76 C79 1.320 . S
O77 Cd74 2.333 . S
O77 C79 1.214 . S
O78 Cd74 2.352 . S
O78 C81 1.258 . S
C79 O76 1.320 . S
C79 O77 1.214 . S
O80 Cd72 2.277 . S
O80 C75 1.209 . S
C81 O78 1.258 . S
C81 O83 1.282 . S
O82 Cd74 2.277 . S
O82 C75 1.226 . S
O83 Cd74 2.356 . S
O83 C81 1.282 . S
C84 O85 1.306 . S
C84 O87 1.160 . S
O85 C84 1.306 . S
O85 Cd86 2.228 . S
Cd86 O85 2.228 . S
Cd86 O90 2.273 . S
Cd86 O94 2.277 . S
O87 C84 1.160 . S
O87 Cd88 2.203 . S
Cd88 O87 2.203 . S
Cd88 O90 2.411 . S
Cd88 O91 2.333 . S
Cd88 O92 2.352 . S
Cd88 O96 2.277 . S
Cd88 O97 2.356 . S
C89 O94 1.209 . S
C89 O96 1.226 . S
O90 Cd86 2.273 . S
O90 Cd88 2.411 . S
O90 C93 1.320 . S
O91 Cd88 2.333 . S
O91 C93 1.214 . S
O92 Cd88 2.352 . S
O92 C95 1.258 . S
C93 O90 1.320 . S
C93 O91 1.214 . S
O94 Cd86 2.277 . S
O94 C89 1.209 . S
C95 O92 1.258 . S
C95 O97 1.282 . S
O96 Cd88 2.277 . S
O96 C89 1.226 . S
O97 Cd88 2.356 . S
O97 C95 1.282 . S
C98 O99 1.306 . S
C98 O101 1.160 . S
O99 C98 1.306 . S
O99 Cd100 2.228 . S
Cd100 O99 2.228 . S
Cd100 O104 2.273 . S
Cd100 O108 2.277 . S
O101 C98 1.160 . S
O101 Cd102 2.203 . S
Cd102 O101 2.203 . S
Cd102 O104 2.411 . S
Cd102 O105 2.333 . S
Cd102 O106 2.352 . S
Cd102 O110 2.277 . S
Cd102 O111 2.356 . S
C103 O108 1.209 . S
C103 O110 1.226 . S
O104 Cd100 2.273 . S
O104 Cd102 2.411 . S
O104 C107 1.320 . S
O105 Cd102 2.333 . S
O105 C107 1.214 . S
O106 Cd102 2.352 . S
O106 C109 1.258 . S
C107 O104 1.320 . S
C107 O105 1.214 . S
O108 Cd100 2.277 . S
O108 C103 1.209 . S
C109 O106 1.258 . S
C109 O111 1.282 . S
O110 Cd102 2.277 . S
O110 C103 1.226 . S
O111 Cd102 2.356 . S
O111 C109 1.282 . S
C112 O113 1.306 . S
C112 O115 1.160 . S
O113 C112 1.306 . S
O113 Cd114 2.228 . S
Cd114 O113 2.228 . S
Cd114 O118 2.273 . S
Cd114 O122 2.277 . S
O115 C112 1.160 . S
O115 Cd116 2.203 . S
Cd116 O115 2.203 . S
Cd116 O118 2.411 . S
Cd116 O119 2.333 . S
Cd116 O120 2.352 . S
Cd116 O124 2.277 . S
Cd116 O125 2.356 . S
C117 O122 1.209 . S
C117 O124 1.226 . S
O118 Cd114 2.273 . S
O118 Cd116 2.411 . S
O118 C121 1.320 . S
O119 Cd116 2.333 . S
O119 C121 1.214 . S
O120 Cd116 2.352 . S
O120 C123 1.258 . S
C121 O118 1.320 . S
C121 O119 1.214 . S
O122 Cd114 2.277 . S
O122 C117 1.209 . S
C123 O120 1.258 . S
C123 O125 1.282 . S
O124 Cd116 2.277 . S
O124 C117 1.226 . S
O125 Cd116 2.356 . S
O125 C123 1.282 . S
C126 O127 1.306 . S
C126 O129 1.160 . S
O127 C126 1.306 . S
O127 Cd128 2.228 . S
Cd128 O127 2.228 . S
Cd128 O132 2.273 . S
Cd128 O136 2.277 . S
O129 C126 1.160 . S
O129 Cd130 2.203 . S
Cd130 O129 2.203 . S
Cd130 O132 2.411 . S
Cd130 O133 2.333 . S
Cd130 O134 2.352 . S
Cd130 O138 2.277 . S
Cd130 O139 2.356 . S
C131 O136 1.209 . S
C131 O138 1.226 . S
O132 Cd128 2.273 . S
O132 Cd130 2.411 . S
O132 C135 1.320 . S
O133 Cd130 2.333 . S
O133 C135 1.214 . S
O134 Cd130 2.352 . S
O134 C137 1.258 . S
C135 O132 1.320 . S
C135 O133 1.214 . S
O136 Cd128 2.277 . S
O136 C131 1.209 . S
C137 O134 1.258 . S
C137 O139 1.282 . S
O138 Cd130 2.277 . S
O138 C131 1.226 . S
O139 Cd130 2.356 . S
O139 C137 1.282 . S
C140 O141 1.306 . S
C140 O143 1.160 . S
O141 C140 1.306 . S
O141 Cd142 2.228 . S
Cd142 O141 2.228 . S
Cd142 O146 2.273 . S
Cd142 O150 2.277 . S
O143 C140 1.160 . S
O143 Cd144 2.203 . S
Cd144 O143 2.203 . S
Cd144 O146 2.411 . S
Cd144 O147 2.333 . S
Cd144 O148 2.352 . S
Cd144 O152 2.277 . S
Cd144 O153 2.356 . S
C145 O150 1.209 . S
C145 O152 1.226 . S
O146 Cd142 2.273 . S
O146 Cd144 2.411 . S
O146 C149 1.320 . S
O147 Cd144 2.333 . S
O147 C149 1.214 . S
O148 Cd144 2.352 . S
O148 C151 1.258 . S
C149 O146 1.320 . S
C149 O147 1.214 . S
O150 Cd142 2.277 . S
O150 C145 1.209 . S
C151 O148 1.258 . S
C151 O153 1.282 . S
O152 Cd144 2.277 . S
O152 C145 1.226 . S
O153 Cd144 2.356 . S
O153 C151 1.282 . S
C154 O155 1.306 . S
C154 O157 1.160 . S
O155 C154 1.306 . S
O155 Cd156 2.228 . S
Cd156 O155 2.228 . S
Cd156 O160 2.273 . S
Cd156 O164 2.277 . S
O157 C154 1.160 . S
O157 Cd158 2.203 . S
Cd158 O157 2.203 . S
Cd158 O160 2.411 . S
Cd158 O161 2.333 . S
Cd158 O162 2.352 . S
Cd158 O166 2.277 . S
Cd158 O167 2.356 . S
C159 O164 1.209 . S
C159 O166 1.226 . S
O160 Cd156 2.273 . S
O160 Cd158 2.411 . S
O160 C163 1.320 . S
O161 Cd158 2.333 . S
O161 C163 1.214 . S
O162 Cd158 2.352 . S
O162 C165 1.258 . S
C163 O160 1.320 . S
C163 O161 1.214 . S
O164 Cd156 2.277 . S
O164 C159 1.209 . S
C165 O162 1.258 . S
C165 O167 1.282 . S
O166 Cd158 2.277 . S
O166 C159 1.226 . S
O167 Cd158 2.356 . S
O167 C165 1.282 . S
C168 O169 1.306 . S
C168 O171 1.160 . S
O169 C168 1.306 . S
O169 Cd170 2.228 . S
Cd170 O169 2.228 . S
Cd170 O174 2.273 . S
Cd170 O178 2.277 . S
O171 C168 1.160 . S
O171 Cd172 2.203 . S
Cd172 O171 2.203 . S
Cd172 O174 2.411 . S
Cd172 O175 2.333 . S
Cd172 O176 2.352 . S
Cd172 O180 2.277 . S
Cd172 O181 2.356 . S
C173 O178 1.209 . S
C173 O180 1.226 . S
O174 Cd170 2.273 . S
O174 Cd172 2.411 . S
O174 C177 1.320 . S
O175 Cd172 2.333 . S
O175 C177 1.214 . S
O176 Cd172 2.352 . S
O176 C179 1.258 . S
C177 O174 1.320 . S
C177 O175 1.214 . S
O178 Cd170 2.277 . S
O178 C173 1.209 . S
C179 O176 1.258 . S
C179 O181 1.282 . S
O180 Cd172 2.277 . S
O180 C173 1.226 . S
O181 Cd172 2.356 . S
O181 C179 1.282 . S
C182 O183 1.306 . S
C182 O185 1.160 . S
O183 C182 1.306 . S
O183 Cd184 2.228 . S
Cd184 O183 2.228 . S
Cd184 O188 2.273 . S
Cd184 O192 2.277 . S
O185 C182 1.160 . S
O185 Cd186 2.203 . S
Cd186 O185 2.203 . S
Cd186 O188 2.411 . S
Cd186 O189 2.333 . S
Cd186 O190 2.352 . S
Cd186 O194 2.277 . S
Cd186 O195 2.356 . S
C187 O192 1.209 . S
C187 O194 1.226 . S
O188 Cd184 2.273 . S
O188 Cd186 2.411 . S
O188 C191 1.320 . S
O189 Cd186 2.333 . S
O189 C191 1.214 . S
O190 Cd186 2.352 . S
O190 C193 1.258 . S
C191 O188 1.320 . S
C191 O189 1.214 . S
O192 Cd184 2.277 . S
O192 C187 1.209 . S
C193 O190 1.258 . S
C193 O195 1.282 . S
O194 Cd186 2.277 . S
O194 C187 1.226 . S
O195 Cd186 2.356 . S
O195 C193 1.282 . S
C196 O197 1.306 . S
C196 O199 1.160 . S
O197 C196 1.306 . S
O197 Cd198 2.228 . S
Cd198 O197 2.228 . S
Cd198 O202 2.273 . S
Cd198 O206 2.277 . S
O199 C196 1.160 . S
O199 Cd200 2.203 . S
Cd200 O199 2.203 . S
Cd200 O202 2.411 . S
Cd200 O203 2.333 . S
Cd200 O204 2.352 . S
Cd200 O208 2.277 . S
Cd200 O209 2.356 . S
C201 O206 1.209 . S
C201 O208 1.226 . S
O202 Cd198 2.273 . S
O202 Cd200 2.411 . S
O202 C205 1.320 . S
O203 Cd200 2.333 . S
O203 C205 1.214 . S
O204 Cd200 2.352 . S
O204 C207 1.258 . S
C205 O202 1.320 . S
C205 O203 1.214 . S
O206 Cd198 2.277 . S
O206 C201 1.209 . S
C207 O204 1.258 . S
C207 O209 1.282 . S
O208 Cd200 2.277 . S
O208 C201 1.226 . S
O209 Cd200 2.356 . S
O209 C207 1.282 . S
C210 O211 1.306 . S
C210 O213 1.160 . S
O211 C210 1.306 . S
O211 Cd212 2.228 . S
Cd212 O211 2.228 . S
Cd212 O216 2.273 . S
Cd212 O220 2.277 . S
O213 C210 1.160 . S
O213 Cd214 2.203 . S
Cd214 O213 2.203 . S
Cd214 O216 2.411 . S
Cd214 O217 2.333 . S
Cd214 O218 2.352 . S
Cd214 O222 2.277 . S
Cd214 O223 2.356 . S
C215 O220 1.209 . S
C215 O222 1.226 . S
O216 Cd212 2.273 . S
O216 Cd214 2.411 . S
O216 C219 1.320 . S
O217 Cd214 2.333 . S
O217 C219 1.214 . S
O218 Cd214 2.352 . S
O218 C221 1.258 . S
C219 O216 1.320 . S
C219 O217 1.214 . S
O220 Cd212 2.277 . S
O220 C215 1.209 . S
C221 O218 1.258 . S
C221 O223 1.282 . S
O222 Cd214 2.277 . S
O222 C215 1.226 . S
O223 Cd214 2.356 . S
O223 C221 1.282 . S
C224 O225 1.306 . S
C224 O227 1.160 . S
O225 C224 1.306 . S
O225 Cd226 2.228 . S
Cd226 O225 2.228 . S
Cd226 O230 2.273 . S
Cd226 O234 2.277 . S
O227 C224 1.160 . S
O227 Cd228 2.203 . S
Cd228 O227 2.203 . S
Cd228 O230 2.411 . S
Cd228 O231 2.333 . S
Cd228 O232 2.352 . S
Cd228 O236 2.277 . S
Cd228 O237 2.356 . S
C229 O234 1.209 . S
C229 O236 1.226 . S
O230 Cd226 2.273 . S
O230 Cd228 2.411 . S
O230 C233 1.320 . S
O231 Cd228 2.333 . S
O231 C233 1.214 . S
O232 Cd228 2.352 . S
O232 C235 1.258 . S
C233 O230 1.320 . S
C233 O231 1.214 . S
O234 Cd226 2.277 . S
O234 C229 1.209 . S
C235 O232 1.258 . S
C235 O237 1.282 . S
O236 Cd228 2.277 . S
O236 C229 1.226 . S
O237 Cd228 2.356 . S
O237 C235 1.282 . S
C238 O239 1.306 . S
C238 O241 1.160 . S
O239 C238 1.306 . S
O239 Cd240 2.228 . S
Cd240 O239 2.228 . S
Cd240 O244 2.273 . S
Cd240 O248 2.277 . S
O241 C238 1.160 . S
O241 Cd242 2.203 . S
Cd242 O241 2.203 . S
Cd242 O244 2.411 . S
Cd242 O245 2.333 . S
Cd242 O246 2.352 . S
Cd242 O250 2.277 . S
Cd242 O251 2.356 . S
C243 O248 1.209 . S
C243 O250 1.226 . S
O244 Cd240 2.273 . S
O244 Cd242 2.411 . S
O244 C247 1.320 . S
O245 Cd242 2.333 . S
O245 C247 1.214 . S
O246 Cd242 2.352 . S
O246 C249 1.258 . S
C247 O244 1.320 . S
C247 O245 1.214 . S
O248 Cd240 2.277 . S
O248 C243 1.209 . S
C249 O246 1.258 . S
C249 O251 1.282 . S
O250 Cd242 2.277 . S
O250 C243 1.226 . S
O251 Cd242 2.356 . S
O251 C249 1.282 . S
C252 O253 1.306 . S
C252 O255 1.160 . S
O253 C252 1.306 . S
O253 Cd254 2.228 . S
Cd254 O253 2.228 . S
Cd254 O258 2.273 . S
Cd254 O262 2.277 . S
O255 C252 1.160 . S
O255 Cd256 2.203 . S
Cd256 O255 2.203 . S
Cd256 O258 2.411 . S
Cd256 O259 2.333 . S
Cd256 O260 2.352 . S
Cd256 O264 2.277 . S
Cd256 O265 2.356 . S
C257 O262 1.209 . S
C257 O264 1.226 . S
O258 Cd254 2.273 . S
O258 Cd256 2.411 . S
O258 C261 1.320 . S
O259 Cd256 2.333 . S
O259 C261 1.214 . S
O260 Cd256 2.352 . S
O260 C263 1.258 . S
C261 O258 1.320 . S
C261 O259 1.214 . S
O262 Cd254 2.277 . S
O262 C257 1.209 . S
C263 O260 1.258 . S
C263 O265 1.282 . S
O264 Cd256 2.277 . S
O264 C257 1.226 . S
O265 Cd256 2.356 . S
O265 C263 1.282 . S
C266 O267 1.306 . S
C266 O269 1.160 . S
O267 C266 1.306 . S
O267 Cd268 2.228 . S
Cd268 O267 2.228 . S
Cd268 O272 2.273 . S
Cd268 O276 2.277 . S
O269 C266 1.160 . S
O269 Cd270 2.203 . S
Cd270 O269 2.203 . S
Cd270 O272 2.411 . S
Cd270 O273 2.333 . S
Cd270 O274 2.352 . S
Cd270 O278 2.277 . S
Cd270 O279 2.356 . S
C271 O276 1.209 . S
C271 O278 1.226 . S
O272 Cd268 2.273 . S
O272 Cd270 2.411 . S
O272 C275 1.320 . S
O273 Cd270 2.333 . S
O273 C275 1.214 . S
O274 Cd270 2.352 . S
O274 C277 1.258 . S
C275 O272 1.320 . S
C275 O273 1.214 . S
O276 Cd268 2.277 . S
O276 C271 1.209 . S
C277 O274 1.258 . S
C277 O279 1.282 . S
O278 Cd270 2.277 . S
O278 C271 1.226 . S
O279 Cd270 2.356 . S
O279 C277 1.282 . S
C280 O281 1.306 . S
C280 O283 1.160 . S
O281 C280 1.306 . S
O281 Cd282 2.228 . S
Cd282 O281 2.228 . S
Cd282 O286 2.273 . S
Cd282 O290 2.277 . S
O283 C280 1.160 . S
O283 Cd284 2.203 . S
Cd284 O283 2.203 . S
Cd284 O286 2.411 . S
Cd284 O287 2.333 . S
Cd284 O288 2.352 . S
Cd284 O292 2.277 . S
Cd284 O293 2.356 . S
C285 O290 1.209 . S
C285 O292 1.226 . S
O286 Cd282 2.273 . S
O286 Cd284 2.411 . S
O286 C289 1.320 . S
O287 Cd284 2.333 . S
O287 C289 1.214 . S
O288 Cd284 2.352 . S
O288 C291 1.258 . S
C289 O286 1.320 . S
C289 O287 1.214 . S
O290 Cd282 2.277 . S
O290 C285 1.209 . S
C291 O288 1.258 . S
C291 O293 1.282 . S
O292 Cd284 2.277 . S
O292 C285 1.226 . S
O293 Cd284 2.356 . S
O293 C291 1.282 . S
C294 O295 1.306 . S
C294 O297 1.160 . S
O295 C294 1.306 . S
O295 Cd296 2.228 . S
Cd296 O295 2.228 . S
Cd296 O300 2.273 . S
Cd296 O304 2.277 . S
O297 C294 1.160 . S
O297 Cd298 2.203 . S
Cd298 O297 2.203 . S
Cd298 O300 2.411 . S
Cd298 O301 2.333 . S
Cd298 O302 2.352 . S
Cd298 O306 2.277 . S
Cd298 O307 2.356 . S
C299 O304 1.209 . S
C299 O306 1.226 . S
O300 Cd296 2.273 . S
O300 Cd298 2.411 . S
O300 C303 1.320 . S
O301 Cd298 2.333 . S
O301 C303 1.214 . S
O302 Cd298 2.352 . S
O302 C305 1.258 . S
C303 O300 1.320 . S
C303 O301 1.214 . S
O304 Cd296 2.277 . S
O304 C299 1.209 . S
C305 O302 1.258 . S
C305 O307 1.282 . S
O306 Cd298 2.277 . S
O306 C299 1.226 . S
O307 Cd298 2.356 . S
O307 C305 1.282 . S
C308 O309 1.306 . S
C308 O311 1.160 . S
O309 C308 1.306 . S
O309 Cd310 2.228 . S
Cd310 O309 2.228 . S
Cd310 O314 2.273 . S
Cd310 O318 2.277 . S
O311 C308 1.160 . S
O311 Cd312 2.203 . S
Cd312 O311 2.203 . S
Cd312 O314 2.411 . S
Cd312 O315 2.333 . S
Cd312 O316 2.352 . S
Cd312 O320 2.277 . S
Cd312 O321 2.356 . S
C313 O318 1.209 . S
C313 O320 1.226 . S
O314 Cd310 2.273 . S
O314 Cd312 2.411 . S
O314 C317 1.320 . S
O315 Cd312 2.333 . S
O315 C317 1.214 . S
O316 Cd312 2.352 . S
O316 C319 1.258 . S
C317 O314 1.320 . S
C317 O315 1.214 . S
O318 Cd310 2.277 . S
O318 C313 1.209 . S
C319 O316 1.258 . S
C319 O321 1.282 . S
O320 Cd312 2.277 . S
O320 C313 1.226 . S
O321 Cd312 2.356 . S
O321 C319 1.282 . S
C322 O323 1.306 . S
C322 O325 1.160 . S
O323 C322 1.306 . S
O323 Cd324 2.228 . S
Cd324 O323 2.228 . S
Cd324 O328 2.273 . S
Cd324 O332 2.277 . S
O325 C322 1.160 . S
O325 Cd326 2.203 . S
Cd326 O325 2.203 . S
Cd326 O328 2.411 . S
Cd326 O329 2.333 . S
Cd326 O330 2.352 . S
Cd326 O334 2.277 . S
Cd326 O335 2.356 . S
C327 O332 1.209 . S
C327 O334 1.226 . S
O328 Cd324 2.273 . S
O328 Cd326 2.411 . S
O328 C331 1.320 . S
O329 Cd326 2.333 . S
O329 C331 1.214 . S
O330 Cd326 2.352 . S
O330 C333 1.258 . S
C331 O328 1.320 . S
C331 O329 1.214 . S
O332 Cd324 2.277 . S
O332 C327 1.209 . S
C333 O330 1.258 . S
C333 O335 1.282 . S
O334 Cd326 2.277 . S
O334 C327 1.226 . S
O335 Cd326 2.356 . S
O335 C333 1.282 . S
C336 O337 1.306 . S
C336 O339 1.160 . S
O337 C336 1.306 . S
O337 Cd338 2.228 . S
Cd338 O337 2.228 . S
Cd338 O342 2.273 . S
Cd338 O346 2.277 . S
O339 C336 1.160 . S
O339 Cd340 2.203 . S
Cd340 O339 2.203 . S
Cd340 O342 2.411 . S
Cd340 O343 2.333 . S
Cd340 O344 2.352 . S
Cd340 O348 2.277 . S
Cd340 O349 2.356 . S
C341 O346 1.209 . S
C341 O348 1.226 . S
O342 Cd338 2.273 . S
O342 Cd340 2.411 . S
O342 C345 1.320 . S
O343 Cd340 2.333 . S
O343 C345 1.214 . S
O344 Cd340 2.352 . S
O344 C347 1.258 . S
C345 O342 1.320 . S
C345 O343 1.214 . S
O346 Cd338 2.277 . S
O346 C341 1.209 . S
C347 O344 1.258 . S
C347 O349 1.282 . S
O348 Cd340 2.277 . S
O348 C341 1.226 . S
O349 Cd340 2.356 . S
O349 C347 1.282 . S
C350 O351 1.306 . S
C350 O353 1.160 . S
O351 C350 1.306 . S
O351 Cd352 2.228 . S
Cd352 O351 2.228 . S
Cd352 O356 2.273 . S
Cd352 O360 2.277 . S
O353 C350 1.160 . S
O353 Cd354 2.203 . S
Cd354 O353 2.203 . S
Cd354 O356 2.411 . S
Cd354 O357 2.333 . S
Cd354 O358 2.352 . S
Cd354 O362 2.277 . S
Cd354 O363 2.356 . S
C355 O360 1.209 . S
C355 O362 1.226 . S
O356 Cd352 2.273 . S
O356 Cd354 2.411 . S
O356 C359 1.320 . S
O357 Cd354 2.333 . S
O357 C359 1.214 . S
O358 Cd354 2.352 . S
O358 C361 1.258 . S
C359 O356 1.320 . S
C359 O357 1.214 . S
O360 Cd352 2.277 . S
O360 C355 1.209 . S
C361 O358 1.258 . S
C361 O363 1.282 . S
O362 Cd354 2.277 . S
O362 C355 1.226 . S
O363 Cd354 2.356 . S
O363 C361 1.282 . S
C364 O365 1.306 . S
C364 O367 1.160 . S
O365 C364 1.306 . S
O365 Cd366 2.228 . S
Cd366 O365 2.228 . S
Cd366 O370 2.273 . S
Cd366 O374 2.277 . S
O367 C364 1.160 . S
O367 Cd368 2.203 . S
Cd368 O367 2.203 . S
Cd368 O370 2.411 . S
Cd368 O371 2.333 . S
Cd368 O372 2.352 . S
Cd368 O376 2.277 . S
Cd368 O377 2.356 . S
C369 O374 1.209 . S
C369 O376 1.226 . S
O370 Cd366 2.273 . S
O370 Cd368 2.411 . S
O370 C373 1.320 . S
O371 Cd368 2.333 . S
O371 C373 1.214 . S
O372 Cd368 2.352 . S
O372 C375 1.258 . S
C373 O370 1.320 . S
C373 O371 1.214 . S
O374 Cd366 2.277 . S
O374 C369 1.209 . S
C375 O372 1.258 . S
C375 O377 1.282 . S
O376 Cd368 2.277 . S
O376 C369 1.226 . S
O377 Cd368 2.356 . S
O377 C375 1.282 . S
C378 O379 1.306 . S
C378 O381 1.160 . S
O379 C378 1.306 . S
O379 Cd380 2.228 . S
Cd380 O379 2.228 . S
Cd380 O384 2.273 . S
Cd380 O388 2.277 . S
O381 C378 1.160 . S
O381 Cd382 2.203 . S
Cd382 O381 2.203 . S
Cd382 O384 2.411 . S
Cd382 O385 2.333 . S
Cd382 O386 2.352 . S
Cd382 O390 2.277 . S
Cd382 O391 2.356 . S
C383 O388 1.209 . S
C383 O390 1.226 . S
O384 Cd380 2.273 . S
O384 Cd382 2.411 . S
O384 C387 1.320 . S
O385 Cd382 2.333 . S
O385 C387 1.214 . S
O386 Cd382 2.352 . S
O386 C389 1.258 . S
C387 O384 1.320 . S
C387 O385 1.214 . S
O388 Cd380 2.277 . S
O388 C383 1.209 . S
C389 O386 1.258 . S
C389 O391 1.282 . S
O390 Cd382 2.277 . S
O390 C383 1.226 . S
O391 Cd382 2.356 . S
O391 C389 1.282 . S
C392 O393 1.306 . S
C392 O395 1.160 . S
O393 C392 1.306 . S
O393 Cd394 2.228 . S
Cd394 O393 2.228 . S
Cd394 O398 2.273 . S
Cd394 O402 2.277 . S
O395 C392 1.160 . S
O395 Cd396 2.203 . S
Cd396 O395 2.203 . S
Cd396 O398 2.411 . S
Cd396 O399 2.333 . S
Cd396 O400 2.352 . S
Cd396 O404 2.277 . S
Cd396 O405 2.356 . S
C397 O402 1.209 . S
C397 O404 1.226 . S
O398 Cd394 2.273 . S
O398 Cd396 2.411 . S
O398 C401 1.320 . S
O399 Cd396 2.333 . S
O399 C401 1.214 . S
O400 Cd396 2.352 . S
O400 C403 1.258 . S
C401 O398 1.320 . S
C401 O399 1.214 . S
O402 Cd394 2.277 . S
O402 C397 1.209 . S
C403 O400 1.258 . S
C403 O405 1.282 . S
O404 Cd396 2.277 . S
O404 C397 1.226 . S
O405 Cd396 2.356 . S
O405 C403 1.282 . S
C406 O407 1.306 . S
C406 O409 1.160 . S
O407 C406 1.306 . S
O407 Cd408 2.228 . S
Cd408 O407 2.228 . S
Cd408 O412 2.273 . S
Cd408 O416 2.277 . S
O409 C406 1.160 . S
O409 Cd410 2.203 . S
Cd410 O409 2.203 . S
Cd410 O412 2.411 . S
Cd410 O413 2.333 . S
Cd410 O414 2.352 . S
Cd410 O418 2.277 . S
Cd410 O419 2.356 . S
C411 O416 1.209 . S
C411 O418 1.226 . S
O412 Cd408 2.273 . S
O412 Cd410 2.411 . S
O412 C415 1.320 . S
O413 Cd410 2.333 . S
O413 C415 1.214 . S
O414 Cd410 2.352 . S
O414 C417 1.258 . S
C415 O412 1.320 . S
C415 O413 1.214 . S
O416 Cd408 2.277 . S
O416 C411 1.209 . S
C417 O414 1.258 . S
C417 O419 1.282 . S
O418 Cd410 2.277 . S
O418 C411 1.226 . S
O419 Cd410 2.356 . S
O419 C417 1.282 . S
C420 O421 1.306 . S
C420 O423 1.160 . S
O421 C420 1.306 . S
O421 Cd422 2.228 . S
Cd422 O421 2.228 . S
Cd422 O426 2.273 . S
Cd422 O430 2.277 . S
O423 C420 1.160 . S
O423 Cd424 2.203 . S
Cd424 O423 2.203 . S
Cd424 O426 2.411 . S
Cd424 O427 2.333 . S
Cd424 O428 2.352 . S
Cd424 O432 2.277 . S
Cd424 O433 2.356 . S
C425 O430 1.209 . S
C425 O432 1.226 . S
O426 Cd422 2.273 . S
O426 Cd424 2.411 . S
O426 C429 1.320 . S
O427 Cd424 2.333 . S
O427 C429 1.214 . S
O428 Cd424 2.352 . S
O428 C431 1.258 . S
C429 O426 1.320 . S
C429 O427 1.214 . S
O430 Cd422 2.277 . S
O430 C425 1.209 . S
C431 O428 1.258 . S
C431 O433 1.282 . S
O432 Cd424 2.277 . S
O432 C425 1.226 . S
O433 Cd424 2.356 . S
O433 C431 1.282 . S
C434 O435 1.306 . S
C434 O437 1.160 . S
O435 C434 1.306 . S
O435 Cd436 2.228 . S
Cd436 O435 2.228 . S
Cd436 O440 2.273 . S
Cd436 O444 2.277 . S
O437 C434 1.160 . S
O437 Cd438 2.203 . S
Cd438 O437 2.203 . S
Cd438 O440 2.411 . S
Cd438 O441 2.333 . S
Cd438 O442 2.352 . S
Cd438 O446 2.277 . S
Cd438 O447 2.356 . S
C439 O444 1.209 . S
C439 O446 1.226 . S
O440 Cd436 2.273 . S
O440 Cd438 2.411 . S
O440 C443 1.320 . S
O441 Cd438 2.333 . S
O441 C443 1.214 . S
O442 Cd438 2.352 . S
O442 C445 1.258 . S
C443 O440 1.320 . S
C443 O441 1.214 . S
O444 Cd436 2.277 . S
O444 C439 1.209 . S
C445 O442 1.258 . S
C445 O447 1.282 . S
O446 Cd438 2.277 . S
O446 C439 1.226 . S
O447 Cd438 2.356 . S
O447 C445 1.282 . S
H448 C456 0.929 . S
H449 C458 0.930 . S
H450 C460 0.930 . S
H451 C463 0.929 . S
H452 C466 0.930 . S
H453 C468 0.960 . S
H454 C468 0.960 . S
H455 C468 0.960 . S
C456 H448 0.929 . S
C456 C457 1.377 . S
C456 C458 1.384 . S
C457 C456 1.377 . S
C457 C463 1.390 . S
C458 H449 0.930 . S
C458 C456 1.384 . S
C458 C459 1.372 . S
C459 C458 1.372 . S
C459 C460 1.400 . S
C459 C464 1.490 . S
C460 H450 0.930 . S
C460 C459 1.400 . S
C460 C463 1.386 . S
H461 C477 0.930 . S
H462 C478 0.931 . S
C463 H451 0.929 . S
C463 C457 1.390 . S
C463 C460 1.386 . S
C464 C459 1.490 . S
C464 C466 1.395 . S
C464 C467 1.403 . S
H465 C471 0.930 . S
C466 H452 0.930 . S
C466 C464 1.395 . S
C466 C469 1.403 . S
C467 C464 1.403 . S
C467 C468 1.524 . S
C467 C471 1.400 . S
C468 H453 0.960 . S
C468 H454 0.960 . S
C468 H455 0.960 . S
C468 C467 1.524 . S
C469 C466 1.403 . S
C469 C470 1.392 . S
C469 C473 1.495 . S
C470 C469 1.392 . S
C470 C471 1.385 . S
C470 C472 1.478 . S
C471 H465 0.930 . S
C471 C467 1.400 . S
C471 C470 1.385 . S
C472 C470 1.478 . S
C472 C474 1.381 . S
C472 C478 1.383 . S
C473 C469 1.495 . S
C473 H479 0.959 . S
C473 H480 0.961 . S
C473 H481 0.960 . S
C474 C472 1.381 . S
C474 C475 1.394 . S
C474 H482 0.930 . S
C475 C474 1.394 . S
C475 C476 1.383 . S
C475 H483 0.929 . S
C476 C475 1.383 . S
C476 C477 1.377 . S
C477 H461 0.930 . S
C477 C476 1.377 . S
C477 C478 1.379 . S
C478 H462 0.931 . S
C478 C472 1.383 . S
C478 C477 1.379 . S
H479 C473 0.959 . S
H480 C473 0.961 . S
H481 C473 0.960 . S
H482 C474 0.930 . S
H483 C475 0.929 . S
H484 C492 0.929 . S
H485 C494 0.930 . S
H486 C496 0.930 . S
H487 C499 0.929 . S
H488 C502 0.930 . S
H489 C504 0.960 . S
H490 C504 0.960 . S
H491 C504 0.960 . S
C492 H484 0.929 . S
C492 C493 1.377 . S
C492 C494 1.384 . S
C493 C492 1.377 . S
C493 C499 1.390 . S
C494 H485 0.930 . S
C494 C492 1.384 . S
C494 C495 1.372 . S
C495 C494 1.372 . S
C495 C496 1.400 . S
C495 C500 1.490 . S
C496 H486 0.930 . S
C496 C495 1.400 . S
C496 C499 1.386 . S
H497 C513 0.930 . S
H498 C514 0.931 . S
C499 H487 0.929 . S
C499 C493 1.390 . S
C499 C496 1.386 . S
C500 C495 1.490 . S
C500 C502 1.395 . S
C500 C503 1.403 . S
H501 C507 0.930 . S
C502 H488 0.930 . S
C502 C500 1.395 . S
C502 C505 1.403 . S
C503 C500 1.403 . S
C503 C504 1.524 . S
C503 C507 1.400 . S
C504 H489 0.960 . S
C504 H490 0.960 . S
C504 H491 0.960 . S
C504 C503 1.524 . S
C505 C502 1.403 . S
C505 C506 1.392 . S
C505 C509 1.495 . S
C506 C505 1.392 . S
C506 C507 1.385 . S
C506 C508 1.478 . S
C507 H501 0.930 . S
C507 C503 1.400 . S
C507 C506 1.385 . S
C508 C506 1.478 . S
C508 C510 1.381 . S
C508 C514 1.383 . S
C509 C505 1.495 . S
C509 H515 0.959 . S
C509 H516 0.961 . S
C509 H517 0.960 . S
C510 C508 1.381 . S
C510 C511 1.394 . S
C510 H518 0.930 . S
C511 C510 1.394 . S
C511 C512 1.383 . S
C511 H519 0.929 . S
C512 C511 1.383 . S
C512 C513 1.377 . S
C513 H497 0.930 . S
C513 C512 1.377 . S
C513 C514 1.379 . S
C514 H498 0.931 . S
C514 C508 1.383 . S
C514 C513 1.379 . S
H515 C509 0.959 . S
H516 C509 0.961 . S
H517 C509 0.960 . S
H518 C510 0.930 . S
H519 C511 0.929 . S
H520 C528 0.929 . S
H521 C530 0.930 . S
H522 C532 0.930 . S
H523 C535 0.929 . S
H524 C538 0.930 . S
H525 C540 0.960 . S
H526 C540 0.960 . S
H527 C540 0.960 . S
C528 H520 0.929 . S
C528 C529 1.377 . S
C528 C530 1.384 . S
C529 C528 1.377 . S
C529 C535 1.390 . S
C530 H521 0.930 . S
C530 C528 1.384 . S
C530 C531 1.372 . S
C531 C530 1.372 . S
C531 C532 1.400 . S
C531 C536 1.490 . S
C532 H522 0.930 . S
C532 C531 1.400 . S
C532 C535 1.386 . S
H533 C549 0.930 . S
H534 C550 0.931 . S
C535 H523 0.929 . S
C535 C529 1.390 . S
C535 C532 1.386 . S
C536 C531 1.490 . S
C536 C538 1.395 . S
C536 C539 1.403 . S
H537 C543 0.930 . S
C538 H524 0.930 . S
C538 C536 1.395 . S
C538 C541 1.403 . S
C539 C536 1.403 . S
C539 C540 1.524 . S
C539 C543 1.400 . S
C540 H525 0.960 . S
C540 H526 0.960 . S
C540 H527 0.960 . S
C540 C539 1.524 . S
C541 C538 1.403 . S
C541 C542 1.392 . S
C541 C545 1.495 . S
C542 C541 1.392 . S
C542 C543 1.385 . S
C542 C544 1.478 . S
C543 H537 0.930 . S
C543 C539 1.400 . S
C543 C542 1.385 . S
C544 C542 1.478 . S
C544 C546 1.381 . S
C544 C550 1.383 . S
C545 C541 1.495 . S
C545 H551 0.959 . S
C545 H552 0.961 . S
C545 H553 0.960 . S
C546 C544 1.381 . S
C546 C547 1.394 . S
C546 H554 0.930 . S
C547 C546 1.394 . S
C547 C548 1.383 . S
C547 H555 0.929 . S
C548 C547 1.383 . S
C548 C549 1.377 . S
C549 H533 0.930 . S
C549 C548 1.377 . S
C549 C550 1.379 . S
C550 H534 0.931 . S
C550 C544 1.383 . S
C550 C549 1.379 . S
H551 C545 0.959 . S
H552 C545 0.961 . S
H553 C545 0.960 . S
H554 C546 0.930 . S
H555 C547 0.929 . S
H556 C564 0.929 . S
H557 C566 0.930 . S
H558 C568 0.930 . S
H559 C571 0.929 . S
H560 C574 0.930 . S
H561 C576 0.960 . S
H562 C576 0.960 . S
H563 C576 0.960 . S
C564 H556 0.929 . S
C564 C565 1.377 . S
C564 C566 1.384 . S
C565 C564 1.377 . S
C565 C571 1.390 . S
C566 H557 0.930 . S
C566 C564 1.384 . S
C566 C567 1.372 . S
C567 C566 1.372 . S
C567 C568 1.400 . S
C567 C572 1.490 . S
C568 H558 0.930 . S
C568 C567 1.400 . S
C568 C571 1.386 . S
H569 C585 0.930 . S
H570 C586 0.931 . S
C571 H559 0.929 . S
C571 C565 1.390 . S
C571 C568 1.386 . S
C572 C567 1.490 . S
C572 C574 1.395 . S
C572 C575 1.403 . S
H573 C579 0.930 . S
C574 H560 0.930 . S
C574 C572 1.395 . S
C574 C577 1.403 . S
C575 C572 1.403 . S
C575 C576 1.524 . S
C575 C579 1.400 . S
C576 H561 0.960 . S
C576 H562 0.960 . S
C576 H563 0.960 . S
C576 C575 1.524 . S
C577 C574 1.403 . S
C577 C578 1.392 . S
C577 C581 1.495 . S
C578 C577 1.392 . S
C578 C579 1.385 . S
C578 C580 1.478 . S
C579 H573 0.930 . S
C579 C575 1.400 . S
C579 C578 1.385 . S
C580 C578 1.478 . S
C580 C582 1.381 . S
C580 C586 1.383 . S
C581 C577 1.495 . S
C581 H587 0.959 . S
C581 H588 0.961 . S
C581 H589 0.960 . S
C582 C580 1.381 . S
C582 C583 1.394 . S
C582 H590 0.930 . S
C583 C582 1.394 . S
C583 C584 1.383 . S
C583 H591 0.929 . S
C584 C583 1.383 . S
C584 C585 1.377 . S
C585 H569 0.930 . S
C585 C584 1.377 . S
C585 C586 1.379 . S
C586 H570 0.931 . S
C586 C580 1.383 . S
C586 C585 1.379 . S
H587 C581 0.959 . S
H588 C581 0.961 . S
H589 C581 0.960 . S
H590 C582 0.930 . S
H591 C583 0.929 . S
H592 C600 0.929 . S
H593 C602 0.930 . S
H594 C604 0.930 . S
H595 C607 0.929 . S
H596 C610 0.930 . S
H597 C612 0.960 . S
H598 C612 0.960 . S
H599 C612 0.960 . S
C600 H592 0.929 . S
C600 C601 1.377 . S
C600 C602 1.384 . S
C601 C600 1.377 . S
C601 C607 1.390 . S
C602 H593 0.930 . S
C602 C600 1.384 . S
C602 C603 1.372 . S
C603 C602 1.372 . S
C603 C604 1.400 . S
C603 C608 1.490 . S
C604 H594 0.930 . S
C604 C603 1.400 . S
C604 C607 1.386 . S
H605 C621 0.930 . S
H606 C622 0.931 . S
C607 H595 0.929 . S
C607 C601 1.390 . S
C607 C604 1.386 . S
C608 C603 1.490 . S
C608 C610 1.395 . S
C608 C611 1.403 . S
H609 C615 0.930 . S
C610 H596 0.930 . S
C610 C608 1.395 . S
C610 C613 1.403 . S
C611 C608 1.403 . S
C611 C612 1.524 . S
C611 C615 1.400 . S
C612 H597 0.960 . S
C612 H598 0.960 . S
C612 H599 0.960 . S
C612 C611 1.524 . S
C613 C610 1.403 . S
C613 C614 1.392 . S
C613 C617 1.495 . S
C614 C613 1.392 . S
C614 C615 1.385 . S
C614 C616 1.478 . S
C615 H609 0.930 . S
C615 C611 1.400 . S
C615 C614 1.385 . S
C616 C614 1.478 . S
C616 C618 1.381 . S
C616 C622 1.383 . S
C617 C613 1.495 . S
C617 H623 0.959 . S
C617 H624 0.961 . S
C617 H625 0.960 . S
C618 C616 1.381 . S
C618 C619 1.394 . S
C618 H626 0.930 . S
C619 C618 1.394 . S
C619 C620 1.383 . S
C619 H627 0.929 . S
C620 C619 1.383 . S
C620 C621 1.377 . S
C621 H605 0.930 . S
C621 C620 1.377 . S
C621 C622 1.379 . S
C622 H606 0.931 . S
C622 C616 1.383 . S
C622 C621 1.379 . S
H623 C617 0.959 . S
H624 C617 0.961 . S
H625 C617 0.960 . S
H626 C618 0.930 . S
H627 C619 0.929 . S
H628 C636 0.929 . S
H629 C638 0.930 . S
H630 C640 0.930 . S
H631 C643 0.929 . S
H632 C646 0.930 . S
H633 C648 0.960 . S
H634 C648 0.960 . S
H635 C648 0.960 . S
C636 H628 0.929 . S
C636 C637 1.377 . S
C636 C638 1.384 . S
C637 C636 1.377 . S
C637 C643 1.390 . S
C638 H629 0.930 . S
C638 C636 1.384 . S
C638 C639 1.372 . S
C639 C638 1.372 . S
C639 C640 1.400 . S
C639 C644 1.490 . S
C640 H630 0.930 . S
C640 C639 1.400 . S
C640 C643 1.386 . S
H641 C657 0.930 . S
H642 C658 0.931 . S
C643 H631 0.929 . S
C643 C637 1.390 . S
C643 C640 1.386 . S
C644 C639 1.490 . S
C644 C646 1.395 . S
C644 C647 1.403 . S
H645 C651 0.930 . S
C646 H632 0.930 . S
C646 C644 1.395 . S
C646 C649 1.403 . S
C647 C644 1.403 . S
C647 C648 1.524 . S
C647 C651 1.400 . S
C648 H633 0.960 . S
C648 H634 0.960 . S
C648 H635 0.960 . S
C648 C647 1.524 . S
C649 C646 1.403 . S
C649 C650 1.392 . S
C649 C653 1.495 . S
C650 C649 1.392 . S
C650 C651 1.385 . S
C650 C652 1.478 . S
C651 H645 0.930 . S
C651 C647 1.400 . S
C651 C650 1.385 . S
C652 C650 1.478 . S
C652 C654 1.381 . S
C652 C658 1.383 . S
C653 C649 1.495 . S
C653 H659 0.959 . S
C653 H660 0.961 . S
C653 H661 0.960 . S
C654 C652 1.381 . S
C654 C655 1.394 . S
C654 H662 0.930 . S
C655 C654 1.394 . S
C655 C656 1.383 . S
C655 H663 0.929 . S
C656 C655 1.383 . S
C656 C657 1.377 . S
C657 H641 0.930 . S
C657 C656 1.377 . S
C657 C658 1.379 . S
C658 H642 0.931 . S
C658 C652 1.383 . S
C658 C657 1.379 . S
H659 C653 0.959 . S
H660 C653 0.961 . S
H661 C653 0.960 . S
H662 C654 0.930 . S
H663 C655 0.929 . S
H664 C672 0.929 . S
H665 C674 0.930 . S
H666 C676 0.930 . S
H667 C679 0.929 . S
H668 C682 0.930 . S
H669 C684 0.960 . S
H670 C684 0.960 . S
H671 C684 0.960 . S
C672 H664 0.929 . S
C672 C673 1.377 . S
C672 C674 1.384 . S
C673 C672 1.377 . S
C673 C679 1.390 . S
C674 H665 0.930 . S
C674 C672 1.384 . S
C674 C675 1.372 . S
C675 C674 1.372 . S
C675 C676 1.400 . S
C675 C680 1.490 . S
C676 H666 0.930 . S
C676 C675 1.400 . S
C676 C679 1.386 . S
H677 C693 0.930 . S
H678 C694 0.931 . S
C679 H667 0.929 . S
C679 C673 1.390 . S
C679 C676 1.386 . S
C680 C675 1.490 . S
C680 C682 1.395 . S
C680 C683 1.403 . S
H681 C687 0.930 . S
C682 H668 0.930 . S
C682 C680 1.395 . S
C682 C685 1.403 . S
C683 C680 1.403 . S
C683 C684 1.524 . S
C683 C687 1.400 . S
C684 H669 0.960 . S
C684 H670 0.960 . S
C684 H671 0.960 . S
C684 C683 1.524 . S
C685 C682 1.403 . S
C685 C686 1.392 . S
C685 C689 1.495 . S
C686 C685 1.392 . S
C686 C687 1.385 . S
C686 C688 1.478 . S
C687 H681 0.930 . S
C687 C683 1.400 . S
C687 C686 1.385 . S
C688 C686 1.478 . S
C688 C690 1.381 . S
C688 C694 1.383 . S
C689 C685 1.495 . S
C689 H695 0.959 . S
C689 H696 0.961 . S
C689 H697 0.960 . S
C690 C688 1.381 . S
C690 C691 1.394 . S
C690 H698 0.930 . S
C691 C690 1.394 . S
C691 C692 1.383 . S
C691 H699 0.929 . S
C692 C691 1.383 . S
C692 C693 1.377 . S
C693 H677 0.930 . S
C693 C692 1.377 . S
C693 C694 1.379 . S
C694 H678 0.931 . S
C694 C688 1.383 . S
C694 C693 1.379 . S
H695 C689 0.959 . S
H696 C689 0.961 . S
H697 C689 0.960 . S
H698 C690 0.930 . S
H699 C691 0.929 . S
H700 C708 0.929 . S
H701 C710 0.930 . S
H702 C712 0.930 . S
H703 C715 0.929 . S
H704 C718 0.930 . S
H705 C720 0.960 . S
H706 C720 0.960 . S
H707 C720 0.960 . S
C708 H700 0.929 . S
C708 C709 1.377 . S
C708 C710 1.384 . S
C709 C708 1.377 . S
C709 C715 1.390 . S
C710 H701 0.930 . S
C710 C708 1.384 . S
C710 C711 1.372 . S
C711 C710 1.372 . S
C711 C712 1.400 . S
C711 C716 1.490 . S
C712 H702 0.930 . S
C712 C711 1.400 . S
C712 C715 1.386 . S
H713 C729 0.930 . S
H714 C730 0.931 . S
C715 H703 0.929 . S
C715 C709 1.390 . S
C715 C712 1.386 . S
C716 C711 1.490 . S
C716 C718 1.395 . S
C716 C719 1.403 . S
H717 C723 0.930 . S
C718 H704 0.930 . S
C718 C716 1.395 . S
C718 C721 1.403 . S
C719 C716 1.403 . S
C719 C720 1.524 . S
C719 C723 1.400 . S
C720 H705 0.960 . S
C720 H706 0.960 . S
C720 H707 0.960 . S
C720 C719 1.524 . S
C721 C718 1.403 . S
C721 C722 1.392 . S
C721 C725 1.495 . S
C722 C721 1.392 . S
C722 C723 1.385 . S
C722 C724 1.478 . S
C723 H717 0.930 . S
C723 C719 1.400 . S
C723 C722 1.385 . S
C724 C722 1.478 . S
C724 C726 1.381 . S
C724 C730 1.383 . S
C725 C721 1.495 . S
C725 H731 0.959 . S
C725 H732 0.961 . S
C725 H733 0.960 . S
C726 C724 1.381 . S
C726 C727 1.394 . S
C726 H734 0.930 . S
C727 C726 1.394 . S
C727 C728 1.383 . S
C727 H735 0.929 . S
C728 C727 1.383 . S
C728 C729 1.377 . S
C729 H713 0.930 . S
C729 C728 1.377 . S
C729 C730 1.379 . S
C730 H714 0.931 . S
C730 C724 1.383 . S
C730 C729 1.379 . S
H731 C725 0.959 . S
H732 C725 0.961 . S
H733 C725 0.960 . S
H734 C726 0.930 . S
H735 C727 0.929 . S
H736 C744 0.929 . S
H737 C746 0.930 . S
H738 C748 0.930 . S
H739 C751 0.929 . S
H740 C754 0.930 . S
H741 C756 0.960 . S
H742 C756 0.960 . S
H743 C756 0.960 . S
C744 H736 0.929 . S
C744 C745 1.377 . S
C744 C746 1.384 . S
C745 C744 1.377 . S
C745 C751 1.390 . S
C746 H737 0.930 . S
C746 C744 1.384 . S
C746 C747 1.372 . S
C747 C746 1.372 . S
C747 C748 1.400 . S
C747 C752 1.490 . S
C748 H738 0.930 . S
C748 C747 1.400 . S
C748 C751 1.386 . S
H749 C765 0.930 . S
H750 C766 0.931 . S
C751 H739 0.929 . S
C751 C745 1.390 . S
C751 C748 1.386 . S
C752 C747 1.490 . S
C752 C754 1.395 . S
C752 C755 1.403 . S
H753 C759 0.930 . S
C754 H740 0.930 . S
C754 C752 1.395 . S
C754 C757 1.403 . S
C755 C752 1.403 . S
C755 C756 1.524 . S
C755 C759 1.400 . S
C756 H741 0.960 . S
C756 H742 0.960 . S
C756 H743 0.960 . S
C756 C755 1.524 . S
C757 C754 1.403 . S
C757 C758 1.392 . S
C757 C761 1.495 . S
C758 C757 1.392 . S
C758 C759 1.385 . S
C758 C760 1.478 . S
C759 H753 0.930 . S
C759 C755 1.400 . S
C759 C758 1.385 . S
C760 C758 1.478 . S
C760 C762 1.381 . S
C760 C766 1.383 . S
C761 C757 1.495 . S
C761 H767 0.959 . S
C761 H768 0.961 . S
C761 H769 0.960 . S
C762 C760 1.381 . S
C762 C763 1.394 . S
C762 H770 0.930 . S
C763 C762 1.394 . S
C763 C764 1.383 . S
C763 H771 0.929 . S
C764 C763 1.383 . S
C764 C765 1.377 . S
C765 H749 0.930 . S
C765 C764 1.377 . S
C765 C766 1.379 . S
C766 H750 0.931 . S
C766 C760 1.383 . S
C766 C765 1.379 . S
H767 C761 0.959 . S
H768 C761 0.961 . S
H769 C761 0.960 . S
H770 C762 0.930 . S
H771 C763 0.929 . S
H772 C780 0.929 . S
H773 C782 0.930 . S
H774 C784 0.930 . S
H775 C787 0.929 . S
H776 C790 0.930 . S
H777 C792 0.960 . S
H778 C792 0.960 . S
H779 C792 0.960 . S
C780 H772 0.929 . S
C780 C781 1.377 . S
C780 C782 1.384 . S
C781 C780 1.377 . S
C781 C787 1.390 . S
C782 H773 0.930 . S
C782 C780 1.384 . S
C782 C783 1.372 . S
C783 C782 1.372 . S
C783 C784 1.400 . S
C783 C788 1.490 . S
C784 H774 0.930 . S
C784 C783 1.400 . S
C784 C787 1.386 . S
H785 C801 0.930 . S
H786 C802 0.931 . S
C787 H775 0.929 . S
C787 C781 1.390 . S
C787 C784 1.386 . S
C788 C783 1.490 . S
C788 C790 1.395 . S
C788 C791 1.403 . S
H789 C795 0.930 . S
C790 H776 0.930 . S
C790 C788 1.395 . S
C790 C793 1.403 . S
C791 C788 1.403 . S
C791 C792 1.524 . S
C791 C795 1.400 . S
C792 H777 0.960 . S
C792 H778 0.960 . S
C792 H779 0.960 . S
C792 C791 1.524 . S
C793 C790 1.403 . S
C793 C794 1.392 . S
C793 C797 1.495 . S
C794 C793 1.392 . S
C794 C795 1.385 . S
C794 C796 1.478 . S
C795 H789 0.930 . S
C795 C791 1.400 . S
C795 C794 1.385 . S
C796 C794 1.478 . S
C796 C798 1.381 . S
C796 C802 1.383 . S
C797 C793 1.495 . S
C797 H803 0.959 . S
C797 H804 0.961 . S
C797 H805 0.960 . S
C798 C796 1.381 . S
C798 C799 1.394 . S
C798 H806 0.930 . S
C799 C798 1.394 . S
C799 C800 1.383 . S
C799 H807 0.929 . S
C800 C799 1.383 . S
C800 C801 1.377 . S
C801 H785 0.930 . S
C801 C800 1.377 . S
C801 C802 1.379 . S
C802 H786 0.931 . S
C802 C796 1.383 . S
C802 C801 1.379 . S
H803 C797 0.959 . S
H804 C797 0.961 . S
H805 C797 0.960 . S
H806 C798 0.930 . S
H807 C799 0.929 . S
H808 C816 0.929 . S
H809 C818 0.930 . S
H810 C820 0.930 . S
H811 C823 0.929 . S
H812 C826 0.930 . S
H813 C828 0.960 . S
H814 C828 0.960 . S
H815 C828 0.960 . S
C816 H808 0.929 . S
C816 C817 1.377 . S
C816 C818 1.384 . S
C817 C816 1.377 . S
C817 C823 1.390 . S
C818 H809 0.930 . S
C818 C816 1.384 . S
C818 C819 1.372 . S
C819 C818 1.372 . S
C819 C820 1.400 . S
C819 C824 1.490 . S
C820 H810 0.930 . S
C820 C819 1.400 . S
C820 C823 1.386 . S
H821 C837 0.930 . S
H822 C838 0.931 . S
C823 H811 0.929 . S
C823 C817 1.390 . S
C823 C820 1.386 . S
C824 C819 1.490 . S
C824 C826 1.395 . S
C824 C827 1.403 . S
H825 C831 0.930 . S
C826 H812 0.930 . S
C826 C824 1.395 . S
C826 C829 1.403 . S
C827 C824 1.403 . S
C827 C828 1.524 . S
C827 C831 1.400 . S
C828 H813 0.960 . S
C828 H814 0.960 . S
C828 H815 0.960 . S
C828 C827 1.524 . S
C829 C826 1.403 . S
C829 C830 1.392 . S
C829 C833 1.495 . S
C830 C829 1.392 . S
C830 C831 1.385 . S
C830 C832 1.478 . S
C831 H825 0.930 . S
C831 C827 1.400 . S
C831 C830 1.385 . S
C832 C830 1.478 . S
C832 C834 1.381 . S
C832 C838 1.383 . S
C833 C829 1.495 . S
C833 H839 0.959 . S
C833 H840 0.961 . S
C833 H841 0.960 . S
C834 C832 1.381 . S
C834 C835 1.394 . S
C834 H842 0.930 . S
C835 C834 1.394 . S
C835 C836 1.383 . S
C835 H843 0.929 . S
C836 C835 1.383 . S
C836 C837 1.377 . S
C837 H821 0.930 . S
C837 C836 1.377 . S
C837 C838 1.379 . S
C838 H822 0.931 . S
C838 C832 1.383 . S
C838 C837 1.379 . S
H839 C833 0.959 . S
H840 C833 0.961 . S
H841 C833 0.960 . S
H842 C834 0.930 . S
H843 C835 0.929 . S
H844 C852 0.929 . S
H845 C854 0.930 . S
H846 C856 0.930 . S
H847 C859 0.929 . S
H848 C862 0.930 . S
H849 C864 0.960 . S
H850 C864 0.960 . S
H851 C864 0.960 . S
C852 H844 0.929 . S
C852 C853 1.377 . S
C852 C854 1.384 . S
C853 C852 1.377 . S
C853 C859 1.390 . S
C854 H845 0.930 . S
C854 C852 1.384 . S
C854 C855 1.372 . S
C855 C854 1.372 . S
C855 C856 1.400 . S
C855 C860 1.490 . S
C856 H846 0.930 . S
C856 C855 1.400 . S
C856 C859 1.386 . S
H857 C873 0.930 . S
H858 C874 0.931 . S
C859 H847 0.929 . S
C859 C853 1.390 . S
C859 C856 1.386 . S
C860 C855 1.490 . S
C860 C862 1.395 . S
C860 C863 1.403 . S
H861 C867 0.930 . S
C862 H848 0.930 . S
C862 C860 1.395 . S
C862 C865 1.403 . S
C863 C860 1.403 . S
C863 C864 1.524 . S
C863 C867 1.400 . S
C864 H849 0.960 . S
C864 H850 0.960 . S
C864 H851 0.960 . S
C864 C863 1.524 . S
C865 C862 1.403 . S
C865 C866 1.392 . S
C865 C869 1.495 . S
C866 C865 1.392 . S
C866 C867 1.385 . S
C866 C868 1.478 . S
C867 H861 0.930 . S
C867 C863 1.400 . S
C867 C866 1.385 . S
C868 C866 1.478 . S
C868 C870 1.381 . S
C868 C874 1.383 . S
C869 C865 1.495 . S
C869 H875 0.959 . S
C869 H876 0.961 . S
C869 H877 0.960 . S
C870 C868 1.381 . S
C870 C871 1.394 . S
C870 H878 0.930 . S
C871 C870 1.394 . S
C871 C872 1.383 . S
C871 H879 0.929 . S
C872 C871 1.383 . S
C872 C873 1.377 . S
C873 H857 0.930 . S
C873 C872 1.377 . S
C873 C874 1.379 . S
C874 H858 0.931 . S
C874 C868 1.383 . S
C874 C873 1.379 . S
H875 C869 0.959 . S
H876 C869 0.961 . S
H877 C869 0.960 . S
H878 C870 0.930 . S
H879 C871 0.929 . S
H880 C888 0.929 . S
H881 C890 0.930 . S
H882 C892 0.930 . S
H883 C895 0.929 . S
H884 C898 0.930 . S
H885 C900 0.960 . S
H886 C900 0.960 . S
H887 C900 0.960 . S
C888 H880 0.929 . S
C888 C889 1.377 . S
C888 C890 1.384 . S
C889 C888 1.377 . S
C889 C895 1.390 . S
C890 H881 0.930 . S
C890 C888 1.384 . S
C890 C891 1.372 . S
C891 C890 1.372 . S
C891 C892 1.400 . S
C891 C896 1.490 . S
C892 H882 0.930 . S
C892 C891 1.400 . S
C892 C895 1.386 . S
H893 C909 0.930 . S
H894 C910 0.931 . S
C895 H883 0.929 . S
C895 C889 1.390 . S
C895 C892 1.386 . S
C896 C891 1.490 . S
C896 C898 1.395 . S
C896 C899 1.403 . S
H897 C903 0.930 . S
C898 H884 0.930 . S
C898 C896 1.395 . S
C898 C901 1.403 . S
C899 C896 1.403 . S
C899 C900 1.524 . S
C899 C903 1.400 . S
C900 H885 0.960 . S
C900 H886 0.960 . S
C900 H887 0.960 . S
C900 C899 1.524 . S
C901 C898 1.403 . S
C901 C902 1.392 . S
C901 C905 1.495 . S
C902 C901 1.392 . S
C902 C903 1.385 . S
C902 C904 1.478 . S
C903 H897 0.930 . S
C903 C899 1.400 . S
C903 C902 1.385 . S
C904 C902 1.478 . S
C904 C906 1.381 . S
C904 C910 1.383 . S
C905 C901 1.495 . S
C905 H911 0.959 . S
C905 H912 0.961 . S
C905 H913 0.960 . S
C906 C904 1.381 . S
C906 C907 1.394 . S
C906 H914 0.930 . S
C907 C906 1.394 . S
C907 C908 1.383 . S
C907 H915 0.929 . S
C908 C907 1.383 . S
C908 C909 1.377 . S
C909 H893 0.930 . S
C909 C908 1.377 . S
C909 C910 1.379 . S
C910 H894 0.931 . S
C910 C904 1.383 . S
C910 C909 1.379 . S
H911 C905 0.959 . S
H912 C905 0.961 . S
H913 C905 0.960 . S
H914 C906 0.930 . S
H915 C907 0.929 . S
H916 C924 0.929 . S
H917 C926 0.930 . S
H918 C928 0.930 . S
H919 C931 0.929 . S
H920 C934 0.930 . S
H921 C936 0.960 . S
H922 C936 0.960 . S
H923 C936 0.960 . S
C924 H916 0.929 . S
C924 C925 1.377 . S
C924 C926 1.384 . S
C925 C924 1.377 . S
C925 C931 1.390 . S
C926 H917 0.930 . S
C926 C924 1.384 . S
C926 C927 1.372 . S
C927 C926 1.372 . S
C927 C928 1.400 . S
C927 C932 1.490 . S
C928 H918 0.930 . S
C928 C927 1.400 . S
C928 C931 1.386 . S
H929 C945 0.930 . S
H930 C946 0.931 . S
C931 H919 0.929 . S
C931 C925 1.390 . S
C931 C928 1.386 . S
C932 C927 1.490 . S
C932 C934 1.395 . S
C932 C935 1.403 . S
H933 C939 0.930 . S
C934 H920 0.930 . S
C934 C932 1.395 . S
C934 C937 1.403 . S
C935 C932 1.403 . S
C935 C936 1.524 . S
C935 C939 1.400 . S
C936 H921 0.960 . S
C936 H922 0.960 . S
C936 H923 0.960 . S
C936 C935 1.524 . S
C937 C934 1.403 . S
C937 C938 1.392 . S
C937 C941 1.495 . S
C938 C937 1.392 . S
C938 C939 1.385 . S
C938 C940 1.478 . S
C939 H933 0.930 . S
C939 C935 1.400 . S
C939 C938 1.385 . S
C940 C938 1.478 . S
C940 C942 1.381 . S
C940 C946 1.383 . S
C941 C937 1.495 . S
C941 H947 0.959 . S
C941 H948 0.961 . S
C941 H949 0.960 . S
C942 C940 1.381 . S
C942 C943 1.394 . S
C942 H950 0.930 . S
C943 C942 1.394 . S
C943 C944 1.383 . S
C943 H951 0.929 . S
C944 C943 1.383 . S
C944 C945 1.377 . S
C945 H929 0.930 . S
C945 C944 1.377 . S
C945 C946 1.379 . S
C946 H930 0.931 . S
C946 C940 1.383 . S
C946 C945 1.379 . S
H947 C941 0.959 . S
H948 C941 0.961 . S
H949 C941 0.960 . S
H950 C942 0.930 . S
H951 C943 0.929 . S
H952 C960 0.929 . S
H953 C962 0.930 . S
H954 C964 0.930 . S
H955 C967 0.929 . S
H956 C970 0.930 . S
H957 C972 0.960 . S
H958 C972 0.960 . S
H959 C972 0.960 . S
C960 H952 0.929 . S
C960 C961 1.377 . S
C960 C962 1.384 . S
C961 C960 1.377 . S
C961 C967 1.390 . S
C962 H953 0.930 . S
C962 C960 1.384 . S
C962 C963 1.372 . S
C963 C962 1.372 . S
C963 C964 1.400 . S
C963 C968 1.490 . S
C964 H954 0.930 . S
C964 C963 1.400 . S
C964 C967 1.386 . S
H965 C981 0.930 . S
H966 C982 0.931 . S
C967 H955 0.929 . S
C967 C961 1.390 . S
C967 C964 1.386 . S
C968 C963 1.490 . S
C968 C970 1.395 . S
C968 C971 1.403 . S
H969 C975 0.930 . S
C970 H956 0.930 . S
C970 C968 1.395 . S
C970 C973 1.403 . S
C971 C968 1.403 . S
C971 C972 1.524 . S
C971 C975 1.400 . S
C972 H957 0.960 . S
C972 H958 0.960 . S
C972 H959 0.960 . S
C972 C971 1.524 . S
C973 C970 1.403 . S
C973 C974 1.392 . S
C973 C977 1.495 . S
C974 C973 1.392 . S
C974 C975 1.385 . S
C974 C976 1.478 . S
C975 H969 0.930 . S
C975 C971 1.400 . S
C975 C974 1.385 . S
C976 C974 1.478 . S
C976 C978 1.381 . S
C976 C982 1.383 . S
C977 C973 1.495 . S
C977 H983 0.959 . S
C977 H984 0.961 . S
C977 H985 0.960 . S
C978 C976 1.381 . S
C978 C979 1.394 . S
C978 H986 0.930 . S
C979 C978 1.394 . S
C979 C980 1.383 . S
C979 H987 0.929 . S
C980 C979 1.383 . S
C980 C981 1.377 . S
C981 H965 0.930 . S
C981 C980 1.377 . S
C981 C982 1.379 . S
C982 H966 0.931 . S
C982 C976 1.383 . S
C982 C981 1.379 . S
H983 C977 0.959 . S
H984 C977 0.961 . S
H985 C977 0.960 . S
H986 C978 0.930 . S
H987 C979 0.929 . S
H988 C996 0.929 . S
H989 C998 0.930 . S
H990 C1000 0.930 . S
H991 C1003 0.929 . S
H992 C1006 0.930 . S
H993 C1008 0.960 . S
H994 C1008 0.960 . S
H995 C1008 0.960 . S
C996 H988 0.929 . S
C996 C997 1.377 . S
C996 C998 1.384 . S
C997 C996 1.377 . S
C997 C1003 1.390 . S
C998 H989 0.930 . S
C998 C996 1.384 . S
C998 C999 1.372 . S
C999 C998 1.372 . S
C999 C1000 1.400 . S
C999 C1004 1.490 . S
C1000 H990 0.930 . S
C1000 C999 1.400 . S
C1000 C1003 1.386 . S
H1001 C1017 0.930 . S
H1002 C1018 0.931 . S
C1003 H991 0.929 . S
C1003 C997 1.390 . S
C1003 C1000 1.386 . S
C1004 C999 1.490 . S
C1004 C1006 1.395 . S
C1004 C1007 1.403 . S
H1005 C1011 0.930 . S
C1006 H992 0.930 . S
C1006 C1004 1.395 . S
C1006 C1009 1.403 . S
C1007 C1004 1.403 . S
C1007 C1008 1.524 . S
C1007 C1011 1.400 . S
C1008 H993 0.960 . S
C1008 H994 0.960 . S
C1008 H995 0.960 . S
C1008 C1007 1.524 . S
C1009 C1006 1.403 . S
C1009 C1010 1.392 . S
C1009 C1013 1.495 . S
C1010 C1009 1.392 . S
C1010 C1011 1.385 . S
C1010 C1012 1.478 . S
C1011 H1005 0.930 . S
C1011 C1007 1.400 . S
C1011 C1010 1.385 . S
C1012 C1010 1.478 . S
C1012 C1014 1.381 . S
C1012 C1018 1.383 . S
C1013 C1009 1.495 . S
C1013 H1019 0.959 . S
C1013 H1020 0.961 . S
C1013 H1021 0.960 . S
C1014 C1012 1.381 . S
C1014 C1015 1.394 . S
C1014 H1022 0.930 . S
C1015 C1014 1.394 . S
C1015 C1016 1.383 . S
C1015 H1023 0.929 . S
C1016 C1015 1.383 . S
C1016 C1017 1.377 . S
C1017 H1001 0.930 . S
C1017 C1016 1.377 . S
C1017 C1018 1.379 . S
C1018 H1002 0.931 . S
C1018 C1012 1.383 . S
C1018 C1017 1.379 . S
H1019 C1013 0.959 . S
H1020 C1013 0.961 . S
H1021 C1013 0.960 . S
H1022 C1014 0.930 . S
H1023 C1015 0.929 . S
H1024 C1032 0.929 . S
H1025 C1034 0.930 . S
H1026 C1036 0.930 . S
H1027 C1039 0.929 . S
H1028 C1042 0.930 . S
H1029 C1044 0.960 . S
H1030 C1044 0.960 . S
H1031 C1044 0.960 . S
C1032 H1024 0.929 . S
C1032 C1033 1.377 . S
C1032 C1034 1.384 . S
C1033 C1032 1.377 . S
C1033 C1039 1.390 . S
C1034 H1025 0.930 . S
C1034 C1032 1.384 . S
C1034 C1035 1.372 . S
C1035 C1034 1.372 . S
C1035 C1036 1.400 . S
C1035 C1040 1.490 . S
C1036 H1026 0.930 . S
C1036 C1035 1.400 . S
C1036 C1039 1.386 . S
H1037 C1053 0.930 . S
H1038 C1054 0.931 . S
C1039 H1027 0.929 . S
C1039 C1033 1.390 . S
C1039 C1036 1.386 . S
C1040 C1035 1.490 . S
C1040 C1042 1.395 . S
C1040 C1043 1.403 . S
H1041 C1047 0.930 . S
C1042 H1028 0.930 . S
C1042 C1040 1.395 . S
C1042 C1045 1.403 1_554 S
C1043 C1040 1.403 . S
C1043 C1044 1.524 . S
C1043 C1047 1.400 1_554 S
C1044 H1029 0.960 . S
C1044 H1030 0.960 . S
C1044 H1031 0.960 . S
C1044 C1043 1.524 . S
C1045 C1042 1.403 1_556 S
C1045 C1046 1.392 . S
C1045 C1049 1.495 . S
C1046 C1045 1.392 . S
C1046 C1047 1.385 . S
C1046 C1048 1.478 . S
C1047 H1041 0.930 . S
C1047 C1043 1.400 1_556 S
C1047 C1046 1.385 . S
C1048 C1046 1.478 . S
C1048 C1050 1.381 . S
C1048 C1054 1.383 . S
C1049 C1045 1.495 . S
C1049 H1055 0.959 . S
C1049 H1056 0.961 . S
C1049 H1057 0.960 . S
C1050 C1048 1.381 . S
C1050 C1051 1.394 . S
C1050 H1058 0.930 . S
C1051 C1050 1.394 . S
C1051 C1052 1.383 . S
C1051 H1059 0.929 . S
C1052 C1051 1.383 . S
C1052 C1053 1.377 . S
C1053 H1037 0.930 . S
C1053 C1052 1.377 . S
C1053 C1054 1.379 . S
C1054 H1038 0.931 . S
C1054 C1048 1.383 . S
C1054 C1053 1.379 . S
H1055 C1049 0.959 . S
H1056 C1049 0.961 . S
H1057 C1049 0.960 . S
H1058 C1050 0.930 . S
H1059 C1051 0.929 . S
H1060 C1068 0.929 . S
H1061 C1070 0.930 . S
H1062 C1072 0.930 . S
H1063 C1075 0.929 . S
H1064 C1078 0.930 . S
H1065 C1080 0.960 . S
H1066 C1080 0.960 . S
H1067 C1080 0.960 . S
C1068 H1060 0.929 . S
C1068 C1069 1.377 . S
C1068 C1070 1.384 . S
C1069 C1068 1.377 . S
C1069 C1075 1.390 . S
C1070 H1061 0.930 . S
C1070 C1068 1.384 . S
C1070 C1071 1.372 . S
C1071 C1070 1.372 . S
C1071 C1072 1.400 . S
C1071 C1076 1.490 . S
C1072 H1062 0.930 . S
C1072 C1071 1.400 . S
C1072 C1075 1.386 . S
H1073 C1089 0.930 . S
H1074 C1090 0.931 . S
C1075 H1063 0.929 . S
C1075 C1069 1.390 . S
C1075 C1072 1.386 . S
C1076 C1071 1.490 . S
C1076 C1078 1.395 . S
C1076 C1079 1.403 . S
H1077 C1083 0.930 . S
C1078 H1064 0.930 . S
C1078 C1076 1.395 . S
C1078 C1081 1.403 1_556 S
C1079 C1076 1.403 . S
C1079 C1080 1.524 . S
C1079 C1083 1.400 1_556 S
C1080 H1065 0.960 . S
C1080 H1066 0.960 . S
C1080 H1067 0.960 . S
C1080 C1079 1.524 . S
C1081 C1078 1.403 1_554 S
C1081 C1082 1.392 . S
C1081 C1085 1.495 . S
C1082 C1081 1.392 . S
C1082 C1083 1.385 . S
C1082 C1084 1.478 . S
C1083 H1077 0.930 . S
C1083 C1079 1.400 1_554 S
C1083 C1082 1.385 . S
C1084 C1082 1.478 . S
C1084 C1086 1.381 . S
C1084 C1090 1.383 . S
C1085 C1081 1.495 . S
C1085 H1091 0.959 . S
C1085 H1092 0.961 . S
C1085 H1093 0.960 . S
C1086 C1084 1.381 . S
C1086 C1087 1.394 . S
C1086 H1094 0.930 . S
C1087 C1086 1.394 . S
C1087 C1088 1.383 . S
C1087 H1095 0.929 . S
C1088 C1087 1.383 . S
C1088 C1089 1.377 . S
C1089 H1073 0.930 . S
C1089 C1088 1.377 . S
C1089 C1090 1.379 . S
C1090 H1074 0.931 . S
C1090 C1084 1.383 . S
C1090 C1089 1.379 . S
H1091 C1085 0.959 . S
H1092 C1085 0.961 . S
H1093 C1085 0.960 . S
H1094 C1086 0.930 . S
H1095 C1087 0.929 . S
H1096 C1104 0.929 . S
H1097 C1106 0.930 . S
H1098 C1108 0.930 . S
H1099 C1111 0.929 . S
H1100 C1114 0.930 . S
H1101 C1116 0.960 . S
H1102 C1116 0.960 . S
H1103 C1116 0.960 . S
C1104 H1096 0.929 . S
C1104 C1105 1.377 . S
C1104 C1106 1.384 . S
C1105 C1104 1.377 . S
C1105 C1111 1.390 . S
C1106 H1097 0.930 . S
C1106 C1104 1.384 . S
C1106 C1107 1.372 . S
C1107 C1106 1.372 . S
C1107 C1108 1.400 . S
C1107 C1112 1.490 . S
C1108 H1098 0.930 . S
C1108 C1107 1.400 . S
C1108 C1111 1.386 . S
H1109 C1125 0.930 . S
H1110 C1126 0.931 . S
C1111 H1099 0.929 . S
C1111 C1105 1.390 . S
C1111 C1108 1.386 . S
C1112 C1107 1.490 . S
C1112 C1114 1.395 . S
C1112 C1115 1.403 . S
H1113 C1119 0.930 . S
C1114 H1100 0.930 . S
C1114 C1112 1.395 . S
C1114 C1117 1.403 1_556 S
C1115 C1112 1.403 . S
C1115 C1116 1.524 . S
C1115 C1119 1.400 1_556 S
C1116 H1101 0.960 . S
C1116 H1102 0.960 . S
C1116 H1103 0.960 . S
C1116 C1115 1.524 . S
C1117 C1114 1.403 1_554 S
C1117 C1118 1.392 . S
C1117 C1121 1.495 . S
C1118 C1117 1.392 . S
C1118 C1119 1.385 . S
C1118 C1120 1.478 . S
C1119 H1113 0.930 . S
C1119 C1115 1.400 1_554 S
C1119 C1118 1.385 . S
C1120 C1118 1.478 . S
C1120 C1122 1.381 . S
C1120 C1126 1.383 . S
C1121 C1117 1.495 . S
C1121 H1127 0.959 . S
C1121 H1128 0.961 . S
C1121 H1129 0.960 . S
C1122 C1120 1.381 . S
C1122 C1123 1.394 . S
C1122 H1130 0.930 . S
C1123 C1122 1.394 . S
C1123 C1124 1.383 . S
C1123 H1131 0.929 . S
C1124 C1123 1.383 . S
C1124 C1125 1.377 . S
C1125 H1109 0.930 . S
C1125 C1124 1.377 . S
C1125 C1126 1.379 . S
C1126 H1110 0.931 . S
C1126 C1120 1.383 . S
C1126 C1125 1.379 . S
H1127 C1121 0.959 . S
H1128 C1121 0.961 . S
H1129 C1121 0.960 . S
H1130 C1122 0.930 . S
H1131 C1123 0.929 . S
H1132 C1140 0.929 . S
H1133 C1142 0.930 . S
H1134 C1144 0.930 . S
H1135 C1147 0.929 . S
H1136 C1150 0.930 . S
H1137 C1152 0.960 . S
H1138 C1152 0.960 . S
H1139 C1152 0.960 . S
C1140 H1132 0.929 . S
C1140 C1141 1.377 . S
C1140 C1142 1.384 . S
C1141 C1140 1.377 . S
C1141 C1147 1.390 . S
C1142 H1133 0.930 . S
C1142 C1140 1.384 . S
C1142 C1143 1.372 . S
C1143 C1142 1.372 . S
C1143 C1144 1.400 . S
C1143 C1148 1.490 . S
C1144 H1134 0.930 . S
C1144 C1143 1.400 . S
C1144 C1147 1.386 . S
H1145 C1161 0.930 . S
H1146 C1162 0.931 . S
C1147 H1135 0.929 . S
C1147 C1141 1.390 . S
C1147 C1144 1.386 . S
C1148 C1143 1.490 . S
C1148 C1150 1.395 . S
C1148 C1151 1.403 . S
H1149 C1155 0.930 . S
C1150 H1136 0.930 . S
C1150 C1148 1.395 . S
C1150 C1153 1.403 1_556 S
C1151 C1148 1.403 . S
C1151 C1152 1.524 . S
C1151 C1155 1.400 1_556 S
C1152 H1137 0.960 . S
C1152 H1138 0.960 . S
C1152 H1139 0.960 . S
C1152 C1151 1.524 . S
C1153 C1150 1.403 1_554 S
C1153 C1154 1.392 . S
C1153 C1157 1.495 . S
C1154 C1153 1.392 . S
C1154 C1155 1.385 . S
C1154 C1156 1.478 . S
C1155 H1149 0.930 . S
C1155 C1151 1.400 1_554 S
C1155 C1154 1.385 . S
C1156 C1154 1.478 . S
C1156 C1158 1.381 . S
C1156 C1162 1.383 . S
C1157 C1153 1.495 . S
C1157 H1163 0.959 . S
C1157 H1164 0.961 . S
C1157 H1165 0.960 . S
C1158 C1156 1.381 . S
C1158 C1159 1.394 . S
C1158 H1166 0.930 . S
C1159 C1158 1.394 . S
C1159 C1160 1.383 . S
C1159 H1167 0.929 . S
C1160 C1159 1.383 . S
C1160 C1161 1.377 . S
C1161 H1145 0.930 . S
C1161 C1160 1.377 . S
C1161 C1162 1.379 . S
C1162 H1146 0.931 . S
C1162 C1156 1.383 . S
C1162 C1161 1.379 . S
H1163 C1157 0.959 . S
H1164 C1157 0.961 . S
H1165 C1157 0.960 . S
H1166 C1158 0.930 . S
H1167 C1159 0.929 . S
H1168 C1176 0.929 . S
H1169 C1178 0.930 . S
H1170 C1180 0.930 . S
H1171 C1183 0.929 . S
H1172 C1186 0.930 . S
H1173 C1188 0.960 . S
H1174 C1188 0.960 . S
H1175 C1188 0.960 . S
C1176 H1168 0.929 . S
C1176 C1177 1.377 . S
C1176 C1178 1.384 . S
C1177 C1176 1.377 . S
C1177 C1183 1.390 . S
C1178 H1169 0.930 . S
C1178 C1176 1.384 . S
C1178 C1179 1.372 . S
C1179 C1178 1.372 . S
C1179 C1180 1.400 . S
C1179 C1184 1.490 . S
C1180 H1170 0.930 . S
C1180 C1179 1.400 . S
C1180 C1183 1.386 . S
H1181 C1197 0.930 . S
H1182 C1198 0.931 . S
C1183 H1171 0.929 . S
C1183 C1177 1.390 . S
C1183 C1180 1.386 . S
C1184 C1179 1.490 . S
C1184 C1186 1.395 . S
C1184 C1187 1.403 . S
H1185 C1191 0.930 . S
C1186 H1172 0.930 . S
C1186 C1184 1.395 . S
C1186 C1189 1.403 . S
C1187 C1184 1.403 . S
C1187 C1188 1.524 . S
C1187 C1191 1.400 . S
C1188 H1173 0.960 . S
C1188 H1174 0.960 . S
C1188 H1175 0.960 . S
C1188 C1187 1.524 . S
C1189 C1186 1.403 . S
C1189 C1190 1.392 . S
C1189 C1193 1.495 . S
C1190 C1189 1.392 . S
C1190 C1191 1.385 . S
C1190 C1192 1.478 . S
C1191 H1185 0.930 . S
C1191 C1187 1.400 . S
C1191 C1190 1.385 . S
C1192 C1190 1.478 . S
C1192 C1194 1.381 . S
C1192 C1198 1.383 . S
C1193 C1189 1.495 . S
C1193 H1199 0.959 . S
C1193 H1200 0.961 . S
C1193 H1201 0.960 . S
C1194 C1192 1.381 . S
C1194 C1195 1.394 . S
C1194 H1202 0.930 . S
C1195 C1194 1.394 . S
C1195 C1196 1.383 . S
C1195 H1203 0.929 . S
C1196 C1195 1.383 . S
C1196 C1197 1.377 . S
C1197 H1181 0.930 . S
C1197 C1196 1.377 . S
C1197 C1198 1.379 . S
C1198 H1182 0.931 . S
C1198 C1192 1.383 . S
C1198 C1197 1.379 . S
H1199 C1193 0.959 . S
H1200 C1193 0.961 . S
H1201 C1193 0.960 . S
H1202 C1194 0.930 . S
H1203 C1195 0.929 . S
H1204 C1212 0.929 . S
H1205 C1214 0.930 . S
H1206 C1216 0.930 . S
H1207 C1219 0.929 . S
H1208 C1222 0.930 . S
H1209 C1224 0.960 . S
H1210 C1224 0.960 . S
H1211 C1224 0.960 . S
C1212 H1204 0.929 . S
C1212 C1213 1.377 . S
C1212 C1214 1.384 . S
C1213 C1212 1.377 . S
C1213 C1219 1.390 . S
C1214 H1205 0.930 . S
C1214 C1212 1.384 . S
C1214 C1215 1.372 . S
C1215 C1214 1.372 . S
C1215 C1216 1.400 . S
C1215 C1220 1.490 . S
C1216 H1206 0.930 . S
C1216 C1215 1.400 . S
C1216 C1219 1.386 . S
H1217 C1233 0.930 . S
H1218 C1234 0.931 . S
C1219 H1207 0.929 . S
C1219 C1213 1.390 . S
C1219 C1216 1.386 . S
C1220 C1215 1.490 . S
C1220 C1222 1.395 . S
C1220 C1223 1.403 . S
H1221 C1227 0.930 . S
C1222 H1208 0.930 . S
C1222 C1220 1.395 . S
C1222 C1225 1.403 . S
C1223 C1220 1.403 . S
C1223 C1224 1.524 . S
C1223 C1227 1.400 . S
C1224 H1209 0.960 . S
C1224 H1210 0.960 . S
C1224 H1211 0.960 . S
C1224 C1223 1.524 . S
C1225 C1222 1.403 . S
C1225 C1226 1.392 . S
C1225 C1229 1.495 . S
C1226 C1225 1.392 . S
C1226 C1227 1.385 . S
C1226 C1228 1.478 . S
C1227 H1221 0.930 . S
C1227 C1223 1.400 . S
C1227 C1226 1.385 . S
C1228 C1226 1.478 . S
C1228 C1230 1.381 . S
C1228 C1234 1.383 . S
C1229 C1225 1.495 . S
C1229 H1235 0.959 . S
C1229 H1236 0.961 . S
C1229 H1237 0.960 . S
C1230 C1228 1.381 . S
C1230 C1231 1.394 . S
C1230 H1238 0.930 . S
C1231 C1230 1.394 . S
C1231 C1232 1.383 . S
C1231 H1239 0.929 . S
C1232 C1231 1.383 . S
C1232 C1233 1.377 . S
C1233 H1217 0.930 . S
C1233 C1232 1.377 . S
C1233 C1234 1.379 . S
C1234 H1218 0.931 . S
C1234 C1228 1.383 . S
C1234 C1233 1.379 . S
H1235 C1229 0.959 . S
H1236 C1229 0.961 . S
H1237 C1229 0.960 . S
H1238 C1230 0.930 . S
H1239 C1231 0.929 . S
H1240 C1248 0.929 . S
H1241 C1250 0.930 . S
H1242 C1252 0.930 . S
H1243 C1255 0.929 . S
H1244 C1258 0.930 . S
H1245 C1260 0.960 . S
H1246 C1260 0.960 . S
H1247 C1260 0.960 . S
C1248 H1240 0.929 . S
C1248 C1249 1.377 . S
C1248 C1250 1.384 . S
C1249 C1248 1.377 . S
C1249 C1255 1.390 . S
C1250 H1241 0.930 . S
C1250 C1248 1.384 . S
C1250 C1251 1.372 . S
C1251 C1250 1.372 . S
C1251 C1252 1.400 . S
C1251 C1256 1.490 . S
C1252 H1242 0.930 . S
C1252 C1251 1.400 . S
C1252 C1255 1.386 . S
H1253 C1269 0.930 . S
H1254 C1270 0.931 . S
C1255 H1243 0.929 . S
C1255 C1249 1.390 . S
C1255 C1252 1.386 . S
C1256 C1251 1.490 . S
C1256 C1258 1.395 . S
C1256 C1259 1.403 . S
H1257 C1263 0.930 . S
C1258 H1244 0.930 . S
C1258 C1256 1.395 . S
C1258 C1261 1.403 . S
C1259 C1256 1.403 . S
C1259 C1260 1.524 . S
C1259 C1263 1.400 . S
C1260 H1245 0.960 . S
C1260 H1246 0.960 . S
C1260 H1247 0.960 . S
C1260 C1259 1.524 . S
C1261 C1258 1.403 . S
C1261 C1262 1.392 . S
C1261 C1265 1.495 . S
C1262 C1261 1.392 . S
C1262 C1263 1.385 . S
C1262 C1264 1.478 . S
C1263 H1257 0.930 . S
C1263 C1259 1.400 . S
C1263 C1262 1.385 . S
C1264 C1262 1.478 . S
C1264 C1266 1.381 . S
C1264 C1270 1.383 . S
C1265 C1261 1.495 . S
C1265 H1271 0.959 . S
C1265 H1272 0.961 . S
C1265 H1273 0.960 . S
C1266 C1264 1.381 . S
C1266 C1267 1.394 . S
C1266 H1274 0.930 . S
C1267 C1266 1.394 . S
C1267 C1268 1.383 . S
C1267 H1275 0.929 . S
C1268 C1267 1.383 . S
C1268 C1269 1.377 . S
C1269 H1253 0.930 . S
C1269 C1268 1.377 . S
C1269 C1270 1.379 . S
C1270 H1254 0.931 . S
C1270 C1264 1.383 . S
C1270 C1269 1.379 . S
H1271 C1265 0.959 . S
H1272 C1265 0.961 . S
H1273 C1265 0.960 . S
H1274 C1266 0.930 . S
H1275 C1267 0.929 . S
H1276 C1284 0.929 . S
H1277 C1286 0.930 . S
H1278 C1288 0.930 . S
H1279 C1291 0.929 . S
H1280 C1294 0.930 . S
H1281 C1296 0.960 . S
H1282 C1296 0.960 . S
H1283 C1296 0.960 . S
C1284 H1276 0.929 . S
C1284 C1285 1.377 . S
C1284 C1286 1.384 . S
C1285 C1284 1.377 . S
C1285 C1291 1.390 . S
C1286 H1277 0.930 . S
C1286 C1284 1.384 . S
C1286 C1287 1.372 . S
C1287 C1286 1.372 . S
C1287 C1288 1.400 . S
C1287 C1292 1.490 . S
C1288 H1278 0.930 . S
C1288 C1287 1.400 . S
C1288 C1291 1.386 . S
H1289 C1305 0.930 . S
H1290 C1306 0.931 . S
C1291 H1279 0.929 . S
C1291 C1285 1.390 . S
C1291 C1288 1.386 . S
C1292 C1287 1.490 . S
C1292 C1294 1.395 . S
C1292 C1295 1.403 . S
H1293 C1299 0.930 . S
C1294 H1280 0.930 . S
C1294 C1292 1.395 . S
C1294 C1297 1.403 . S
C1295 C1292 1.403 . S
C1295 C1296 1.524 . S
C1295 C1299 1.400 . S
C1296 H1281 0.960 . S
C1296 H1282 0.960 . S
C1296 H1283 0.960 . S
C1296 C1295 1.524 . S
C1297 C1294 1.403 . S
C1297 C1298 1.392 . S
C1297 C1301 1.495 . S
C1298 C1297 1.392 . S
C1298 C1299 1.385 . S
C1298 C1300 1.478 . S
C1299 H1293 0.930 . S
C1299 C1295 1.400 . S
C1299 C1298 1.385 . S
C1300 C1298 1.478 . S
C1300 C1302 1.381 . S
C1300 C1306 1.383 . S
C1301 C1297 1.495 . S
C1301 H1307 0.959 . S
C1301 H1308 0.961 . S
C1301 H1309 0.960 . S
C1302 C1300 1.381 . S
C1302 C1303 1.394 . S
C1302 H1310 0.930 . S
C1303 C1302 1.394 . S
C1303 C1304 1.383 . S
C1303 H1311 0.929 . S
C1304 C1303 1.383 . S
C1304 C1305 1.377 . S
C1305 H1289 0.930 . S
C1305 C1304 1.377 . S
C1305 C1306 1.379 . S
C1306 H1290 0.931 . S
C1306 C1300 1.383 . S
C1306 C1305 1.379 . S
H1307 C1301 0.959 . S
H1308 C1301 0.961 . S
H1309 C1301 0.960 . S
H1310 C1302 0.930 . S
H1311 C1303 0.929 . S
H1312 C1320 0.929 . S
H1313 C1322 0.930 . S
H1314 C1324 0.930 . S
H1315 C1327 0.929 . S
H1316 C1330 0.930 . S
H1317 C1332 0.960 . S
H1318 C1332 0.960 . S
H1319 C1332 0.960 . S
C1320 H1312 0.929 . S
C1320 C1321 1.377 . S
C1320 C1322 1.384 . S
C1321 C1320 1.377 . S
C1321 C1327 1.390 . S
C1322 H1313 0.930 . S
C1322 C1320 1.384 . S
C1322 C1323 1.372 . S
C1323 C1322 1.372 . S
C1323 C1324 1.400 . S
C1323 C1328 1.490 . S
C1324 H1314 0.930 . S
C1324 C1323 1.400 . S
C1324 C1327 1.386 . S
H1325 C1341 0.930 . S
H1326 C1342 0.931 . S
C1327 H1315 0.929 . S
C1327 C1321 1.390 . S
C1327 C1324 1.386 . S
C1328 C1323 1.490 . S
C1328 C1330 1.395 . S
C1328 C1331 1.403 . S
H1329 C1335 0.930 . S
C1330 H1316 0.930 . S
C1330 C1328 1.395 . S
C1330 C1333 1.403 . S
C1331 C1328 1.403 . S
C1331 C1332 1.524 . S
C1331 C1335 1.400 . S
C1332 H1317 0.960 . S
C1332 H1318 0.960 . S
C1332 H1319 0.960 . S
C1332 C1331 1.524 . S
C1333 C1330 1.403 . S
C1333 C1334 1.392 . S
C1333 C1337 1.495 . S
C1334 C1333 1.392 . S
C1334 C1335 1.385 . S
C1334 C1336 1.478 . S
C1335 H1329 0.930 . S
C1335 C1331 1.400 . S
C1335 C1334 1.385 . S
C1336 C1334 1.478 . S
C1336 C1338 1.381 . S
C1336 C1342 1.383 . S
C1337 C1333 1.495 . S
C1337 H1343 0.959 . S
C1337 H1344 0.961 . S
C1337 H1345 0.960 . S
C1338 C1336 1.381 . S
C1338 C1339 1.394 . S
C1338 H1346 0.930 . S
C1339 C1338 1.394 . S
C1339 C1340 1.383 . S
C1339 H1347 0.929 . S
C1340 C1339 1.383 . S
C1340 C1341 1.377 . S
C1341 H1325 0.930 . S
C1341 C1340 1.377 . S
C1341 C1342 1.379 . S
C1342 H1326 0.931 . S
C1342 C1336 1.383 . S
C1342 C1341 1.379 . S
H1343 C1337 0.959 . S
H1344 C1337 0.961 . S
H1345 C1337 0.960 . S
H1346 C1338 0.930 . S
H1347 C1339 0.929 . S
H1348 C1356 0.929 . S
H1349 C1358 0.930 . S
H1350 C1360 0.930 . S
H1351 C1363 0.929 . S
H1352 C1366 0.930 . S
H1353 C1368 0.960 . S
H1354 C1368 0.960 . S
H1355 C1368 0.960 . S
C1356 H1348 0.929 . S
C1356 C1357 1.377 . S
C1356 C1358 1.384 . S
C1357 C1356 1.377 . S
C1357 C1363 1.390 . S
C1358 H1349 0.930 . S
C1358 C1356 1.384 . S
C1358 C1359 1.372 . S
C1359 C1358 1.372 . S
C1359 C1360 1.400 . S
C1359 C1364 1.490 . S
C1360 H1350 0.930 . S
C1360 C1359 1.400 . S
C1360 C1363 1.386 . S
H1361 C1377 0.930 . S
H1362 C1378 0.931 . S
C1363 H1351 0.929 . S
C1363 C1357 1.390 . S
C1363 C1360 1.386 . S
C1364 C1359 1.490 . S
C1364 C1366 1.395 . S
C1364 C1367 1.403 . S
H1365 C1371 0.930 . S
C1366 H1352 0.930 . S
C1366 C1364 1.395 . S
C1366 C1369 1.403 . S
C1367 C1364 1.403 . S
C1367 C1368 1.524 . S
C1367 C1371 1.400 . S
C1368 H1353 0.960 . S
C1368 H1354 0.960 . S
C1368 H1355 0.960 . S
C1368 C1367 1.524 . S
C1369 C1366 1.403 . S
C1369 C1370 1.392 . S
C1369 C1373 1.495 . S
C1370 C1369 1.392 . S
C1370 C1371 1.385 . S
C1370 C1372 1.478 . S
C1371 H1365 0.930 . S
C1371 C1367 1.400 . S
C1371 C1370 1.385 . S
C1372 C1370 1.478 . S
C1372 C1374 1.381 . S
C1372 C1378 1.383 . S
C1373 C1369 1.495 . S
C1373 H1379 0.959 . S
C1373 H1380 0.961 . S
C1373 H1381 0.960 . S
C1374 C1372 1.381 . S
C1374 C1375 1.394 . S
C1374 H1382 0.930 . S
C1375 C1374 1.394 . S
C1375 C1376 1.383 . S
C1375 H1383 0.929 . S
C1376 C1375 1.383 . S
C1376 C1377 1.377 . S
C1377 H1361 0.930 . S
C1377 C1376 1.377 . S
C1377 C1378 1.379 . S
C1378 H1362 0.931 . S
C1378 C1372 1.383 . S
C1378 C1377 1.379 . S
H1379 C1373 0.959 . S
H1380 C1373 0.961 . S
H1381 C1373 0.960 . S
H1382 C1374 0.930 . S
H1383 C1375 0.929 . S
H1384 C1392 0.929 . S
H1385 C1394 0.930 . S
H1386 C1396 0.930 . S
H1387 C1399 0.929 . S
H1388 C1402 0.930 . S
H1389 C1404 0.960 . S
H1390 C1404 0.960 . S
H1391 C1404 0.960 . S
C1392 H1384 0.929 . S
C1392 C1393 1.377 . S
C1392 C1394 1.384 . S
C1393 C1392 1.377 . S
C1393 C1399 1.390 . S
C1394 H1385 0.930 . S
C1394 C1392 1.384 . S
C1394 C1395 1.372 . S
C1395 C1394 1.372 . S
C1395 C1396 1.400 . S
C1395 C1400 1.490 . S
C1396 H1386 0.930 . S
C1396 C1395 1.400 . S
C1396 C1399 1.386 . S
H1397 C1413 0.930 . S
H1398 C1414 0.931 . S
C1399 H1387 0.929 . S
C1399 C1393 1.390 . S
C1399 C1396 1.386 . S
C1400 C1395 1.490 . S
C1400 C1402 1.395 . S
C1400 C1403 1.403 . S
H1401 C1407 0.930 . S
C1402 H1388 0.930 . S
C1402 C1400 1.395 . S
C1402 C1405 1.403 . S
C1403 C1400 1.403 . S
C1403 C1404 1.524 . S
C1403 C1407 1.400 . S
C1404 H1389 0.960 . S
C1404 H1390 0.960 . S
C1404 H1391 0.960 . S
C1404 C1403 1.524 . S
C1405 C1402 1.403 . S
C1405 C1406 1.392 . S
C1405 C1409 1.495 . S
C1406 C1405 1.392 . S
C1406 C1407 1.385 . S
C1406 C1408 1.478 . S
C1407 H1401 0.930 . S
C1407 C1403 1.400 . S
C1407 C1406 1.385 . S
C1408 C1406 1.478 . S
C1408 C1410 1.381 . S
C1408 C1414 1.383 . S
C1409 C1405 1.495 . S
C1409 H1415 0.959 . S
C1409 H1416 0.961 . S
C1409 H1417 0.960 . S
C1410 C1408 1.381 . S
C1410 C1411 1.394 . S
C1410 H1418 0.930 . S
C1411 C1410 1.394 . S
C1411 C1412 1.383 . S
C1411 H1419 0.929 . S
C1412 C1411 1.383 . S
C1412 C1413 1.377 . S
C1413 H1397 0.930 . S
C1413 C1412 1.377 . S
C1413 C1414 1.379 . S
C1414 H1398 0.931 . S
C1414 C1408 1.383 . S
C1414 C1413 1.379 . S
H1415 C1409 0.959 . S
H1416 C1409 0.961 . S
H1417 C1409 0.960 . S
H1418 C1410 0.930 . S
H1419 C1411 0.929 . S
H1420 C1428 0.929 . S
H1421 C1430 0.930 . S
H1422 C1432 0.930 . S
H1423 C1435 0.929 . S
H1424 C1438 0.930 . S
H1425 C1440 0.960 . S
H1426 C1440 0.960 . S
H1427 C1440 0.960 . S
C1428 H1420 0.929 . S
C1428 C1429 1.377 . S
C1428 C1430 1.384 . S
C1429 C1428 1.377 . S
C1429 C1435 1.390 . S
C1430 H1421 0.930 . S
C1430 C1428 1.384 . S
C1430 C1431 1.372 . S
C1431 C1430 1.372 . S
C1431 C1432 1.400 . S
C1431 C1436 1.490 . S
C1432 H1422 0.930 . S
C1432 C1431 1.400 . S
C1432 C1435 1.386 . S
H1433 C1449 0.930 . S
H1434 C1450 0.931 . S
C1435 H1423 0.929 . S
C1435 C1429 1.390 . S
C1435 C1432 1.386 . S
C1436 C1431 1.490 . S
C1436 C1438 1.395 . S
C1436 C1439 1.403 . S
H1437 C1443 0.930 . S
C1438 H1424 0.930 . S
C1438 C1436 1.395 . S
C1438 C1441 1.403 . S
C1439 C1436 1.403 . S
C1439 C1440 1.524 . S
C1439 C1443 1.400 . S
C1440 H1425 0.960 . S
C1440 H1426 0.960 . S
C1440 H1427 0.960 . S
C1440 C1439 1.524 . S
C1441 C1438 1.403 . S
C1441 C1442 1.392 . S
C1441 C1445 1.495 . S
C1442 C1441 1.392 . S
C1442 C1443 1.385 . S
C1442 C1444 1.478 . S
C1443 H1437 0.930 . S
C1443 C1439 1.400 . S
C1443 C1442 1.385 . S
C1444 C1442 1.478 . S
C1444 C1446 1.381 . S
C1444 C1450 1.383 . S
C1445 C1441 1.495 . S
C1445 H1451 0.959 . S
C1445 H1452 0.961 . S
C1445 H1453 0.960 . S
C1446 C1444 1.381 . S
C1446 C1447 1.394 . S
C1446 H1454 0.930 . S
C1447 C1446 1.394 . S
C1447 C1448 1.383 . S
C1447 H1455 0.929 . S
C1448 C1447 1.383 . S
C1448 C1449 1.377 . S
C1449 H1433 0.930 . S
C1449 C1448 1.377 . S
C1449 C1450 1.379 . S
C1450 H1434 0.931 . S
C1450 C1444 1.383 . S
C1450 C1449 1.379 . S
H1451 C1445 0.959 . S
H1452 C1445 0.961 . S
H1453 C1445 0.960 . S
H1454 C1446 0.930 . S
H1455 C1447 0.929 . S
H1456 C1464 0.929 . S
H1457 C1466 0.930 . S
H1458 C1468 0.930 . S
H1459 C1471 0.929 . S
H1460 C1474 0.930 . S
H1461 C1476 0.960 . S
H1462 C1476 0.960 . S
H1463 C1476 0.960 . S
C1464 H1456 0.929 . S
C1464 C1465 1.377 . S
C1464 C1466 1.384 . S
C1465 C1464 1.377 . S
C1465 C1471 1.390 . S
C1466 H1457 0.930 . S
C1466 C1464 1.384 . S
C1466 C1467 1.372 . S
C1467 C1466 1.372 . S
C1467 C1468 1.400 . S
C1467 C1472 1.490 . S
C1468 H1458 0.930 . S
C1468 C1467 1.400 . S
C1468 C1471 1.386 . S
H1469 C1485 0.930 . S
H1470 C1486 0.931 . S
C1471 H1459 0.929 . S
C1471 C1465 1.390 . S
C1471 C1468 1.386 . S
C1472 C1467 1.490 . S
C1472 C1474 1.395 . S
C1472 C1475 1.403 . S
H1473 C1479 0.930 . S
C1474 H1460 0.930 . S
C1474 C1472 1.395 . S
C1474 C1477 1.403 1_556 S
C1475 C1472 1.403 . S
C1475 C1476 1.524 . S
C1475 C1479 1.400 1_556 S
C1476 H1461 0.960 . S
C1476 H1462 0.960 . S
C1476 H1463 0.960 . S
C1476 C1475 1.524 . S
C1477 C1474 1.403 1_554 S
C1477 C1478 1.392 . S
C1477 C1481 1.495 . S
C1478 C1477 1.392 . S
C1478 C1479 1.385 . S
C1478 C1480 1.478 . S
C1479 H1473 0.930 . S
C1479 C1475 1.400 1_554 S
C1479 C1478 1.385 . S
C1480 C1478 1.478 . S
C1480 C1482 1.381 . S
C1480 C1486 1.383 . S
C1481 C1477 1.495 . S
C1481 H1487 0.959 . S
C1481 H1488 0.961 . S
C1481 H1489 0.960 . S
C1482 C1480 1.381 . S
C1482 C1483 1.394 . S
C1482 H1490 0.930 . S
C1483 C1482 1.394 . S
C1483 C1484 1.383 . S
C1483 H1491 0.929 . S
C1484 C1483 1.383 . S
C1484 C1485 1.377 . S
C1485 H1469 0.930 . S
C1485 C1484 1.377 . S
C1485 C1486 1.379 . S
C1486 H1470 0.931 . S
C1486 C1480 1.383 . S
C1486 C1485 1.379 . S
H1487 C1481 0.959 . S
H1488 C1481 0.961 . S
H1489 C1481 0.960 . S
H1490 C1482 0.930 . S
H1491 C1483 0.929 . S
H1492 C1500 0.929 . S
H1493 C1502 0.930 . S
H1494 C1504 0.930 . S
H1495 C1507 0.929 . S
H1496 C1510 0.930 . S
H1497 C1512 0.960 . S
H1498 C1512 0.960 . S
H1499 C1512 0.960 . S
C1500 H1492 0.929 . S
C1500 C1501 1.377 . S
C1500 C1502 1.384 . S
C1501 C1500 1.377 . S
C1501 C1507 1.390 . S
C1502 H1493 0.930 . S
C1502 C1500 1.384 . S
C1502 C1503 1.372 . S
C1503 C1502 1.372 . S
C1503 C1504 1.400 . S
C1503 C1508 1.490 . S
C1504 H1494 0.930 . S
C1504 C1503 1.400 . S
C1504 C1507 1.386 . S
H1505 C1521 0.930 . S
H1506 C1522 0.931 . S
C1507 H1495 0.929 . S
C1507 C1501 1.390 . S
C1507 C1504 1.386 . S
C1508 C1503 1.490 . S
C1508 C1510 1.395 . S
C1508 C1511 1.403 . S
H1509 C1515 0.930 . S
C1510 H1496 0.930 . S
C1510 C1508 1.395 . S
C1510 C1513 1.403 1_554 S
C1511 C1508 1.403 . S
C1511 C1512 1.524 . S
C1511 C1515 1.400 1_554 S
C1512 H1497 0.960 . S
C1512 H1498 0.960 . S
C1512 H1499 0.960 . S
C1512 C1511 1.524 . S
C1513 C1510 1.403 1_556 S
C1513 C1514 1.392 . S
C1513 C1517 1.495 . S
C1514 C1513 1.392 . S
C1514 C1515 1.385 . S
C1514 C1516 1.478 . S
C1515 H1509 0.930 . S
C1515 C1511 1.400 1_556 S
C1515 C1514 1.385 . S
C1516 C1514 1.478 . S
C1516 C1518 1.381 . S
C1516 C1522 1.383 . S
C1517 C1513 1.495 . S
C1517 H1523 0.959 . S
C1517 H1524 0.961 . S
C1517 H1525 0.960 . S
C1518 C1516 1.381 . S
C1518 C1519 1.394 . S
C1518 H1526 0.930 . S
C1519 C1518 1.394 . S
C1519 C1520 1.383 . S
C1519 H1527 0.929 . S
C1520 C1519 1.383 . S
C1520 C1521 1.377 . S
C1521 H1505 0.930 . S
C1521 C1520 1.377 . S
C1521 C1522 1.379 . S
C1522 H1506 0.931 . S
C1522 C1516 1.383 . S
C1522 C1521 1.379 . S
H1523 C1517 0.959 . S
H1524 C1517 0.961 . S
H1525 C1517 0.960 . S
H1526 C1518 0.930 . S
H1527 C1519 0.929 . S
H1528 C1536 0.929 . S
H1529 C1538 0.930 . S
H1530 C1540 0.930 . S
H1531 C1543 0.929 . S
H1532 C1546 0.930 . S
H1533 C1548 0.960 . S
H1534 C1548 0.960 . S
H1535 C1548 0.960 . S
C1536 H1528 0.929 . S
C1536 C1537 1.377 . S
C1536 C1538 1.384 . S
C1537 C1536 1.377 . S
C1537 C1543 1.390 . S
C1538 H1529 0.930 . S
C1538 C1536 1.384 . S
C1538 C1539 1.372 . S
C1539 C1538 1.372 . S
C1539 C1540 1.400 . S
C1539 C1544 1.490 . S
C1540 H1530 0.930 . S
C1540 C1539 1.400 . S
C1540 C1543 1.386 . S
H1541 C1557 0.930 . S
H1542 C1558 0.931 . S
C1543 H1531 0.929 . S
C1543 C1537 1.390 . S
C1543 C1540 1.386 . S
C1544 C1539 1.490 . S
C1544 C1546 1.395 . S
C1544 C1547 1.403 . S
H1545 C1551 0.930 . S
C1546 H1532 0.930 . S
C1546 C1544 1.395 . S
C1546 C1549 1.403 1_554 S
C1547 C1544 1.403 . S
C1547 C1548 1.524 . S
C1547 C1551 1.400 1_554 S
C1548 H1533 0.960 . S
C1548 H1534 0.960 . S
C1548 H1535 0.960 . S
C1548 C1547 1.524 . S
C1549 C1546 1.403 1_556 S
C1549 C1550 1.392 . S
C1549 C1553 1.495 . S
C1550 C1549 1.392 . S
C1550 C1551 1.385 . S
C1550 C1552 1.478 . S
C1551 H1545 0.930 . S
C1551 C1547 1.400 1_556 S
C1551 C1550 1.385 . S
C1552 C1550 1.478 . S
C1552 C1554 1.381 . S
C1552 C1558 1.383 . S
C1553 C1549 1.495 . S
C1553 H1559 0.959 . S
C1553 H1560 0.961 . S
C1553 H1561 0.960 . S
C1554 C1552 1.381 . S
C1554 C1555 1.394 . S
C1554 H1562 0.930 . S
C1555 C1554 1.394 . S
C1555 C1556 1.383 . S
C1555 H1563 0.929 . S
C1556 C1555 1.383 . S
C1556 C1557 1.377 . S
C1557 H1541 0.930 . S
C1557 C1556 1.377 . S
C1557 C1558 1.379 . S
C1558 H1542 0.931 . S
C1558 C1552 1.383 . S
C1558 C1557 1.379 . S
H1559 C1553 0.959 . S
H1560 C1553 0.961 . S
H1561 C1553 0.960 . S
H1562 C1554 0.930 . S
H1563 C1555 0.929 . S
H1564 C1572 0.929 . S
H1565 C1574 0.930 . S
H1566 C1576 0.930 . S
H1567 C1579 0.929 . S
H1568 C1582 0.930 . S
H1569 C1584 0.960 . S
H1570 C1584 0.960 . S
H1571 C1584 0.960 . S
C1572 H1564 0.929 . S
C1572 C1573 1.377 . S
C1572 C1574 1.384 . S
C1573 C1572 1.377 . S
C1573 C1579 1.390 . S
C1574 H1565 0.930 . S
C1574 C1572 1.384 . S
C1574 C1575 1.372 . S
C1575 C1574 1.372 . S
C1575 C1576 1.400 . S
C1575 C1580 1.490 . S
C1576 H1566 0.930 . S
C1576 C1575 1.400 . S
C1576 C1579 1.386 . S
H1577 C1593 0.930 . S
H1578 C1594 0.931 . S
C1579 H1567 0.929 . S
C1579 C1573 1.390 . S
C1579 C1576 1.386 . S
C1580 C1575 1.490 . S
C1580 C1582 1.395 . S
C1580 C1583 1.403 . S
H1581 C1587 0.930 . S
C1582 H1568 0.930 . S
C1582 C1580 1.395 . S
C1582 C1585 1.403 1_556 S
C1583 C1580 1.403 . S
C1583 C1584 1.524 . S
C1583 C1587 1.400 1_556 S
C1584 H1569 0.960 . S
C1584 H1570 0.960 . S
C1584 H1571 0.960 . S
C1584 C1583 1.524 . S
C1585 C1582 1.403 1_554 S
C1585 C1586 1.392 . S
C1585 C1589 1.495 . S
C1586 C1585 1.392 . S
C1586 C1587 1.385 . S
C1586 C1588 1.478 . S
C1587 H1581 0.930 . S
C1587 C1583 1.400 1_554 S
C1587 C1586 1.385 . S
C1588 C1586 1.478 . S
C1588 C1590 1.381 . S
C1588 C1594 1.383 . S
C1589 C1585 1.495 . S
C1589 H1595 0.959 . S
C1589 H1596 0.961 . S
C1589 H1597 0.960 . S
C1590 C1588 1.381 . S
C1590 C1591 1.394 . S
C1590 H1598 0.930 . S
C1591 C1590 1.394 . S
C1591 C1592 1.383 . S
C1591 H1599 0.929 . S
C1592 C1591 1.383 . S
C1592 C1593 1.377 . S
C1593 H1577 0.930 . S
C1593 C1592 1.377 . S
C1593 C1594 1.379 . S
C1594 H1578 0.931 . S
C1594 C1588 1.383 . S
C1594 C1593 1.379 . S
H1595 C1589 0.959 . S
H1596 C1589 0.961 . S
H1597 C1589 0.960 . S
H1598 C1590 0.930 . S
H1599 C1591 0.929 . S
H1600 C1608 0.929 . S
H1601 C1610 0.930 . S
H1602 C1612 0.930 . S
H1603 C1615 0.929 . S
H1604 C1618 0.930 . S
H1605 C1620 0.960 1_565 S
H1606 C1620 0.960 . S
H1607 C1620 0.960 . S
C1608 H1600 0.929 . S
C1608 C1609 1.377 . S
C1608 C1610 1.384 . S
C1609 C1608 1.377 . S
C1609 C1615 1.390 . S
C1610 H1601 0.930 . S
C1610 C1608 1.384 . S
C1610 C1611 1.372 . S
C1611 C1610 1.372 . S
C1611 C1612 1.400 . S
C1611 C1616 1.490 . S
C1612 H1602 0.930 . S
C1612 C1611 1.400 . S
C1612 C1615 1.386 . S
H1613 C1629 0.930 . S
H1614 C1630 0.931 . S
C1615 H1603 0.929 . S
C1615 C1609 1.390 . S
C1615 C1612 1.386 . S
C1616 C1611 1.490 . S
C1616 C1618 1.395 . S
C1616 C1619 1.403 . S
H1617 C1623 0.930 . S
C1618 H1604 0.930 . S
C1618 C1616 1.395 . S
C1618 C1621 1.403 1_545 S
C1619 C1616 1.403 . S
C1619 C1620 1.524 . S
C1619 C1623 1.400 1_545 S
C1620 H1605 0.960 1_545 S
C1620 H1606 0.960 . S
C1620 H1607 0.960 . S
C1620 C1619 1.524 . S
C1621 C1618 1.403 1_565 S
C1621 C1622 1.392 . S
C1621 C1625 1.495 . S
C1622 C1621 1.392 . S
C1622 C1623 1.385 . S
C1622 C1624 1.478 . S
C1623 H1617 0.930 . S
C1623 C1619 1.400 1_565 S
C1623 C1622 1.385 . S
C1624 C1622 1.478 . S
C1624 C1626 1.381 . S
C1624 C1630 1.383 . S
C1625 C1621 1.495 . S
C1625 H1631 0.959 1_565 S
C1625 H1632 0.961 . S
C1625 H1633 0.960 . S
C1626 C1624 1.381 . S
C1626 C1627 1.394 . S
C1626 H1634 0.930 . S
C1627 C1626 1.394 . S
C1627 C1628 1.383 . S
C1627 H1635 0.929 . S
C1628 C1627 1.383 . S
C1628 C1629 1.377 . S
C1629 H1613 0.930 . S
C1629 C1628 1.377 . S
C1629 C1630 1.379 . S
C1630 H1614 0.931 . S
C1630 C1624 1.383 . S
C1630 C1629 1.379 . S
H1631 C1625 0.959 1_545 S
H1632 C1625 0.961 . S
H1633 C1625 0.960 . S
H1634 C1626 0.930 . S
H1635 C1627 0.929 . S
H1636 C1644 0.929 . S
H1637 C1646 0.930 . S
H1638 C1648 0.930 . S
H1639 C1651 0.929 . S
H1640 C1654 0.928 . S
H1641 C1656 0.960 . S
H1642 C1656 0.960 . S
H1643 C1656 0.960 . S
C1644 H1636 0.929 . S
C1644 C1645 1.377 . S
C1644 C1646 1.384 . S
C1645 C1644 1.377 . S
C1645 C1651 1.390 . S
C1646 H1637 0.930 . S
C1646 C1644 1.384 . S
C1646 C1647 1.372 . S
C1647 C1646 1.372 . S
C1647 C1648 1.400 . S
C1647 C1652 1.490 . S
C1648 H1638 0.930 . S
C1648 C1647 1.400 . S
C1648 C1651 1.386 . S
H1649 C1665 0.930 . S
H1650 C1666 0.931 . S
C1651 H1639 0.929 . S
C1651 C1645 1.390 . S
C1651 C1648 1.386 . S
C1652 C1647 1.490 . S
C1652 C1654 1.389 . S
C1652 C1655 1.403 . S
H1653 C1659 0.930 . S
C1654 H1640 0.928 . S
C1654 C1652 1.389 . S
C1654 C1657 1.410 1_655 S
C1655 C1652 1.403 . S
C1655 C1656 1.524 . S
C1655 C1659 1.400 1_655 S
C1656 H1641 0.960 . S
C1656 H1642 0.960 . S
C1656 H1643 0.960 . S
C1656 C1655 1.524 . S
C1657 C1654 1.410 1_455 S
C1657 C1658 1.392 . S
C1657 C1661 1.495 . S
C1658 C1657 1.392 . S
C1658 C1659 1.385 . S
C1658 C1660 1.478 . S
C1659 H1653 0.930 . S
C1659 C1655 1.400 1_455 S
C1659 C1658 1.385 . S
C1660 C1658 1.478 . S
C1660 C1662 1.381 . S
C1660 C1666 1.383 . S
C1661 C1657 1.495 . S
C1661 H1667 0.959 . S
C1661 H1668 0.961 . S
C1661 H1669 0.960 . S
C1662 C1660 1.381 . S
C1662 C1663 1.394 . S
C1662 H1670 0.930 . S
C1663 C1662 1.394 . S
C1663 C1664 1.383 . S
C1663 H1671 0.929 . S
C1664 C1663 1.383 . S
C1664 C1665 1.377 . S
C1665 H1649 0.930 . S
C1665 C1664 1.377 . S
C1665 C1666 1.379 . S
C1666 H1650 0.931 . S
C1666 C1660 1.383 . S
C1666 C1665 1.379 . S
H1667 C1661 0.959 . S
H1668 C1661 0.961 . S
H1669 C1661 0.960 . S
H1670 C1662 0.930 . S
H1671 C1663 0.929 . S
H1672 C1680 0.929 . S
H1673 C1682 0.930 . S
H1674 C1684 0.930 . S
H1675 C1687 0.929 . S
H1676 C1690 0.930 . S
H1677 C1692 0.960 . S
H1678 C1692 0.959 . S
H1679 C1692 0.960 1_545 S
C1680 H1672 0.929 . S
C1680 C1681 1.377 . S
C1680 C1682 1.384 . S
C1681 C1680 1.377 . S
C1681 C1687 1.390 . S
C1682 H1673 0.930 . S
C1682 C1680 1.384 . S
C1682 C1683 1.372 . S
C1683 C1682 1.372 . S
C1683 C1684 1.400 . S
C1683 C1688 1.490 . S
C1684 H1674 0.930 . S
C1684 C1683 1.400 . S
C1684 C1687 1.386 . S
H1685 C1701 0.930 . S
H1686 C1702 0.931 . S
C1687 H1675 0.929 . S
C1687 C1681 1.390 . S
C1687 C1684 1.386 . S
C1688 C1683 1.490 . S
C1688 C1690 1.395 . S
C1688 C1691 1.347 1_545 S
H1689 C1695 0.930 . S
C1690 H1676 0.930 . S
C1690 C1688 1.395 . S
C1690 C1693 1.403 . S
C1691 C1688 1.347 1_565 S
C1691 C1692 1.534 . S
C1691 C1695 1.449 . S
C1692 H1677 0.960 . S
C1692 H1678 0.959 . S
C1692 H1679 0.960 1_565 S
C1692 C1691 1.534 . S
C1693 C1690 1.403 . S
C1693 C1694 1.392 1_545 S
C1693 C1697 1.495 . S
C1694 C1693 1.392 1_565 S
C1694 C1695 1.385 . S
C1694 C1696 1.478 . S
C1695 H1689 0.930 . S
C1695 C1691 1.449 . S
C1695 C1694 1.385 . S
C1696 C1694 1.478 . S
C1696 C1698 1.381 . S
C1696 C1702 1.383 . S
C1697 C1693 1.495 . S
C1697 H1703 0.959 . S
C1697 H1704 0.961 . S
C1697 H1705 0.960 1_545 S
C1698 C1696 1.381 . S
C1698 C1699 1.394 . S
C1698 H1706 0.930 . S
C1699 C1698 1.394 . S
C1699 C1700 1.383 . S
C1699 H1707 0.929 . S
C1700 C1699 1.383 . S
C1700 C1701 1.377 . S
C1701 H1685 0.930 . S
C1701 C1700 1.377 . S
C1701 C1702 1.379 . S
C1702 H1686 0.931 . S
C1702 C1696 1.383 . S
C1702 C1701 1.379 . S
H1703 C1697 0.959 . S
H1704 C1697 0.961 . S
H1705 C1697 0.960 1_565 S
H1706 C1698 0.930 . S
H1707 C1699 0.929 . S
H1708 C1716 0.929 . S
H1709 C1718 0.930 . S
H1710 C1720 0.930 . S
H1711 C1723 0.929 . S
H1712 C1726 0.928 1_455 S
H1713 C1728 0.960 . S
H1714 C1728 0.960 . S
H1715 C1728 0.960 . S
C1716 H1708 0.929 . S
C1716 C1717 1.377 . S
C1716 C1718 1.384 . S
C1717 C1716 1.377 . S
C1717 C1723 1.390 . S
C1718 H1709 0.930 . S
C1718 C1716 1.384 . S
C1718 C1719 1.372 . S
C1719 C1718 1.372 . S
C1719 C1720 1.400 . S
C1719 C1724 1.490 . S
C1720 H1710 0.930 . S
C1720 C1719 1.400 . S
C1720 C1723 1.386 . S
H1721 C1737 0.930 . S
H1722 C1738 0.931 . S
C1723 H1711 0.929 . S
C1723 C1717 1.390 . S
C1723 C1720 1.386 . S
C1724 C1719 1.490 . S
C1724 C1726 1.383 1_455 S
C1724 C1727 1.403 . S
H1725 C1731 0.930 . S
C1726 H1712 0.928 1_655 S
C1726 C1724 1.383 1_655 S
C1726 C1729 1.416 . S
C1727 C1724 1.403 . S
C1727 C1728 1.524 . S
C1727 C1731 1.400 1_455 S
C1728 H1713 0.960 . S
C1728 H1714 0.960 . S
C1728 H1715 0.960 . S
C1728 C1727 1.524 . S
C1729 C1726 1.416 . S
C1729 C1730 1.392 . S
C1729 C1733 1.495 . S
C1730 C1729 1.392 . S
C1730 C1731 1.385 . S
C1730 C1732 1.478 . S
C1731 H1725 0.930 . S
C1731 C1727 1.400 1_655 S
C1731 C1730 1.385 . S
C1732 C1730 1.478 . S
C1732 C1734 1.381 . S
C1732 C1738 1.383 . S
C1733 C1729 1.495 . S
C1733 H1739 0.959 . S
C1733 H1740 0.961 . S
C1733 H1741 0.960 . S
C1734 C1732 1.381 . S
C1734 C1735 1.394 . S
C1734 H1742 0.930 . S
C1735 C1734 1.394 . S
C1735 C1736 1.383 . S
C1735 H1743 0.929 . S
C1736 C1735 1.383 . S
C1736 C1737 1.377 . S
C1737 H1721 0.930 . S
C1737 C1736 1.377 . S
C1737 C1738 1.379 . S
C1738 H1722 0.931 . S
C1738 C1732 1.383 . S
C1738 C1737 1.379 . S
H1739 C1733 0.959 . S
H1740 C1733 0.961 . S
H1741 C1733 0.960 . S
H1742 C1734 0.930 . S
H1743 C1735 0.929 . S
H1744 C1752 0.929 . S
H1745 C1754 0.930 . S
H1746 C1756 0.930 . S
H1747 C1759 0.929 . S
H1748 C1762 0.928 1_565 S
H1749 C1764 0.960 . S
H1750 C1764 0.960 . S
H1751 C1764 0.960 . S
C1752 H1744 0.929 . S
C1752 C1753 1.377 . S
C1752 C1754 1.384 . S
C1753 C1752 1.377 . S
C1753 C1759 1.390 . S
C1754 H1745 0.930 . S
C1754 C1752 1.384 . S
C1754 C1755 1.372 . S
C1755 C1754 1.372 . S
C1755 C1756 1.400 . S
C1755 C1760 1.490 . S
C1756 H1746 0.930 . S
C1756 C1755 1.400 . S
C1756 C1759 1.386 . S
H1757 C1773 0.930 . S
H1758 C1774 0.931 . S
C1759 H1747 0.929 . S
C1759 C1753 1.390 . S
C1759 C1756 1.386 . S
C1760 C1755 1.490 . S
C1760 C1762 1.395 1_565 S
C1760 C1763 1.403 . S
H1761 C1767 0.930 . S
C1762 H1748 0.928 1_545 S
C1762 C1760 1.395 1_545 S
C1762 C1765 1.403 . S
C1763 C1760 1.403 . S
C1763 C1764 1.524 . S
C1763 C1767 1.400 1_565 S
C1764 H1749 0.960 . S
C1764 H1750 0.960 . S
C1764 H1751 0.960 . S
C1764 C1763 1.524 . S
C1765 C1762 1.403 . S
C1765 C1766 1.392 . S
C1765 C1769 1.495 . S
C1766 C1765 1.392 . S
C1766 C1767 1.385 . S
C1766 C1768 1.478 . S
C1767 H1761 0.930 . S
C1767 C1763 1.400 1_545 S
C1767 C1766 1.385 . S
C1768 C1766 1.478 . S
C1768 C1770 1.381 . S
C1768 C1774 1.383 . S
C1769 C1765 1.495 . S
C1769 H1775 0.959 . S
C1769 H1776 0.961 . S
C1769 H1777 0.960 . S
C1770 C1768 1.381 . S
C1770 C1771 1.394 . S
C1770 H1778 0.930 . S
C1771 C1770 1.394 . S
C1771 C1772 1.383 . S
C1771 H1779 0.929 . S
C1772 C1771 1.383 . S
C1772 C1773 1.377 . S
C1773 H1757 0.930 . S
C1773 C1772 1.377 . S
C1773 C1774 1.379 . S
C1774 H1758 0.931 . S
C1774 C1768 1.383 . S
C1774 C1773 1.379 . S
H1775 C1769 0.959 . S
H1776 C1769 0.961 . S
H1777 C1769 0.960 . S
H1778 C1770 0.930 . S
H1779 C1771 0.929 . S
H1780 C1788 0.929 . S
H1781 C1790 0.930 . S
H1782 C1792 0.930 . S
H1783 C1795 0.929 . S
H1784 C1798 0.930 . S
H1785 C1800 0.960 . S
H1786 C1800 0.960 . S
H1787 C1800 0.960 . S
C1788 H1780 0.929 . S
C1788 C1789 1.377 . S
C1788 C1790 1.384 . S
C1789 C1788 1.377 . S
C1789 C1795 1.390 . S
C1790 H1781 0.930 . S
C1790 C1788 1.384 . S
C1790 C1791 1.372 . S
C1791 C1790 1.372 . S
C1791 C1792 1.400 . S
C1791 C1796 1.490 . S
C1792 H1782 0.930 . S
C1792 C1791 1.400 . S
C1792 C1795 1.386 . S
H1793 C1809 0.930 . S
H1794 C1810 0.931 . S
C1795 H1783 0.929 . S
C1795 C1789 1.390 . S
C1795 C1792 1.386 . S
C1796 C1791 1.490 . S
C1796 C1798 1.395 . S
C1796 C1799 1.403 . S
H1797 C1803 0.930 . S
C1798 H1784 0.930 . S
C1798 C1796 1.395 . S
C1798 C1801 1.403 1_655 S
C1799 C1796 1.403 . S
C1799 C1800 1.524 . S
C1799 C1803 1.400 1_655 S
C1800 H1785 0.960 . S
C1800 H1786 0.960 . S
C1800 H1787 0.960 . S
C1800 C1799 1.524 . S
C1801 C1798 1.403 1_455 S
C1801 C1802 1.392 . S
C1801 C1805 1.495 . S
C1802 C1801 1.392 . S
C1802 C1803 1.385 . S
C1802 C1804 1.478 . S
C1803 H1797 0.930 . S
C1803 C1799 1.400 1_455 S
C1803 C1802 1.385 . S
C1804 C1802 1.478 . S
C1804 C1806 1.381 . S
C1804 C1810 1.383 . S
C1805 C1801 1.495 . S
C1805 H1811 0.959 . S
C1805 H1812 0.961 . S
C1805 H1813 0.960 . S
C1806 C1804 1.381 . S
C1806 C1807 1.394 . S
C1806 H1814 0.930 . S
C1807 C1806 1.394 . S
C1807 C1808 1.383 . S
C1807 H1815 0.929 . S
C1808 C1807 1.383 . S
C1808 C1809 1.377 . S
C1809 H1793 0.930 . S
C1809 C1808 1.377 . S
C1809 C1810 1.379 . S
C1810 H1794 0.931 . S
C1810 C1804 1.383 . S
C1810 C1809 1.379 . S
H1811 C1805 0.959 . S
H1812 C1805 0.961 . S
H1813 C1805 0.960 . S
H1814 C1806 0.930 . S
H1815 C1807 0.929 . S
H1816 C1824 0.929 . S
H1817 C1826 0.930 . S
H1818 C1828 0.930 . S
H1819 C1831 0.929 . S
H1820 C1834 0.929 . S
H1821 C1836 0.960 . S
H1822 C1836 0.960 . S
H1823 C1836 0.960 . S
C1824 H1816 0.929 . S
C1824 C1825 1.377 . S
C1824 C1826 1.384 . S
C1825 C1824 1.377 . S
C1825 C1831 1.390 . S
C1826 H1817 0.930 . S
C1826 C1824 1.384 . S
C1826 C1827 1.372 . S
C1827 C1826 1.372 . S
C1827 C1828 1.400 . S
C1827 C1832 1.490 . S
C1828 H1818 0.930 . S
C1828 C1827 1.400 . S
C1828 C1831 1.386 . S
H1829 C1845 0.930 . S
H1830 C1846 0.931 . S
C1831 H1819 0.929 . S
C1831 C1825 1.390 . S
C1831 C1828 1.386 . S
C1832 C1827 1.490 . S
C1832 C1834 1.342 1_565 S
C1832 C1835 1.403 . S
H1833 C1839 0.930 . S
C1834 H1820 0.929 . S
C1834 C1832 1.342 1_545 S
C1834 C1837 1.459 . S
C1835 C1832 1.403 . S
C1835 C1836 1.524 . S
C1835 C1839 1.400 1_565 S
C1836 H1821 0.960 . S
C1836 H1822 0.960 . S
C1836 H1823 0.960 . S
C1836 C1835 1.524 . S
C1837 C1834 1.459 . S
C1837 C1838 1.392 . S
C1837 C1841 1.495 . S
C1838 C1837 1.392 . S
C1838 C1839 1.385 . S
C1838 C1840 1.478 . S
C1839 H1833 0.930 . S
C1839 C1835 1.400 1_545 S
C1839 C1838 1.385 . S
C1840 C1838 1.478 . S
C1840 C1842 1.381 . S
C1840 C1846 1.383 . S
C1841 C1837 1.495 . S
C1841 H1847 0.959 . S
C1841 H1848 0.961 . S
C1841 H1849 0.960 . S
C1842 C1840 1.381 . S
C1842 C1843 1.394 . S
C1842 H1850 0.930 . S
C1843 C1842 1.394 . S
C1843 C1844 1.383 . S
C1843 H1851 0.929 . S
C1844 C1843 1.383 . S
C1844 C1845 1.377 . S
C1845 H1829 0.930 . S
C1845 C1844 1.377 . S
C1845 C1846 1.379 . S
C1846 H1830 0.931 . S
C1846 C1840 1.383 . S
C1846 C1845 1.379 . S
H1847 C1841 0.959 . S
H1848 C1841 0.961 . S
H1849 C1841 0.960 . S
H1850 C1842 0.930 . S
H1851 C1843 0.929 . S
H1852 C1860 0.929 . S
H1853 C1862 0.930 . S
H1854 C1864 0.930 . S
H1855 C1867 0.929 . S
H1856 C1870 0.930 . S
H1857 C1872 0.920 1_455 S
H1858 C1872 0.960 . S
H1859 C1872 0.960 . S
C1860 H1852 0.929 . S
C1860 C1861 1.377 . S
C1860 C1862 1.384 . S
C1861 C1860 1.377 . S
C1861 C1867 1.390 . S
C1862 H1853 0.930 . S
C1862 C1860 1.384 . S
C1862 C1863 1.372 . S
C1863 C1862 1.372 . S
C1863 C1864 1.400 . S
C1863 C1868 1.490 . S
C1864 H1854 0.930 . S
C1864 C1863 1.400 . S
C1864 C1867 1.386 . S
H1865 C1881 0.930 . S
H1866 C1882 0.931 . S
C1867 H1855 0.929 . S
C1867 C1861 1.390 . S
C1867 C1864 1.386 . S
C1868 C1863 1.490 . S
C1868 C1870 1.395 . S
C1868 C1871 1.403 . S
H1869 C1875 0.930 . S
C1870 H1856 0.930 . S
C1870 C1868 1.395 . S
C1870 C1873 1.403 1_655 S
C1871 C1868 1.403 . S
C1871 C1872 1.524 . S
C1871 C1875 1.400 1_655 S
C1872 H1857 0.920 1_655 S
C1872 H1858 0.960 . S
C1872 H1859 0.960 . S
C1872 C1871 1.524 . S
C1873 C1870 1.403 1_455 S
C1873 C1874 1.392 . S
C1873 C1877 1.495 . S
C1874 C1873 1.392 . S
C1874 C1875 1.385 . S
C1874 C1876 1.478 . S
C1875 H1869 0.930 . S
C1875 C1871 1.400 1_455 S
C1875 C1874 1.385 . S
C1876 C1874 1.478 . S
C1876 C1878 1.381 . S
C1876 C1882 1.383 . S
C1877 C1873 1.495 . S
C1877 H1883 0.959 1_455 S
C1877 H1884 0.961 . S
C1877 H1885 0.960 . S
C1878 C1876 1.381 . S
C1878 C1879 1.394 . S
C1878 H1886 0.930 . S
C1879 C1878 1.394 . S
C1879 C1880 1.383 . S
C1879 H1887 0.929 . S
C1880 C1879 1.383 . S
C1880 C1881 1.377 . S
C1881 H1865 0.930 . S
C1881 C1880 1.377 . S
C1881 C1882 1.379 . S
C1882 H1866 0.931 . S
C1882 C1876 1.383 . S
C1882 C1881 1.379 . S
H1883 C1877 0.959 1_655 S
H1884 C1877 0.961 . S
H1885 C1877 0.960 . S
H1886 C1878 0.930 . S
H1887 C1879 0.929 . S
H1888 C1896 0.929 . S
H1889 C1898 0.930 . S
H1890 C1900 0.930 . S
H1891 C1903 0.929 . S
H1892 C1906 0.930 . S
H1893 C1908 0.960 . S
H1894 C1908 0.960 . S
H1895 C1908 0.960 . S
C1896 H1888 0.929 . S
C1896 C1897 1.377 . S
C1896 C1898 1.384 . S
C1897 C1896 1.377 . S
C1897 C1903 1.390 . S
C1898 H1889 0.930 . S
C1898 C1896 1.384 . S
C1898 C1899 1.372 . S
C1899 C1898 1.372 . S
C1899 C1900 1.400 . S
C1899 C1904 1.490 . S
C1900 H1890 0.930 . S
C1900 C1899 1.400 . S
C1900 C1903 1.386 . S
H1901 C1917 0.930 . S
H1902 C1918 0.931 . S
C1903 H1891 0.929 . S
C1903 C1897 1.390 . S
C1903 C1900 1.386 . S
C1904 C1899 1.490 . S
C1904 C1906 1.395 . S
C1904 C1907 1.403 . S
H1905 C1911 0.930 . S
C1906 H1892 0.930 . S
C1906 C1904 1.395 . S
C1906 C1909 1.403 . S
C1907 C1904 1.403 . S
C1907 C1908 1.524 . S
C1907 C1911 1.400 . S
C1908 H1893 0.960 . S
C1908 H1894 0.960 . S
C1908 H1895 0.960 . S
C1908 C1907 1.524 . S
C1909 C1906 1.403 . S
C1909 C1910 1.392 . S
C1909 C1913 1.495 . S
C1910 C1909 1.392 . S
C1910 C1911 1.385 . S
C1910 C1912 1.478 . S
C1911 H1905 0.930 . S
C1911 C1907 1.400 . S
C1911 C1910 1.385 . S
C1912 C1910 1.478 . S
C1912 C1914 1.381 . S
C1912 C1918 1.383 . S
C1913 C1909 1.495 . S
C1913 H1919 0.959 . S
C1913 H1920 0.961 . S
C1913 H1921 0.960 . S
C1914 C1912 1.381 . S
C1914 C1915 1.394 . S
C1914 H1922 0.930 . S
C1915 C1914 1.394 . S
C1915 C1916 1.383 . S
C1915 H1923 0.929 . S
C1916 C1915 1.383 . S
C1916 C1917 1.377 . S
C1917 H1901 0.930 . S
C1917 C1916 1.377 . S
C1917 C1918 1.379 . S
C1918 H1902 0.931 . S
C1918 C1912 1.383 . S
C1918 C1917 1.379 . S
H1919 C1913 0.959 . S
H1920 C1913 0.961 . S
H1921 C1913 0.960 . S
H1922 C1914 0.930 . S
H1923 C1915 0.929 . S
H1924 C1932 0.929 . S
H1925 C1934 0.930 . S
H1926 C1936 0.930 . S
H1927 C1939 0.929 . S
H1928 C1942 0.930 . S
H1929 C1944 0.960 . S
H1930 C1944 0.960 . S
H1931 C1944 0.960 . S
C1932 H1924 0.929 . S
C1932 C1933 1.377 . S
C1932 C1934 1.384 . S
C1933 C1932 1.377 . S
C1933 C1939 1.390 . S
C1934 H1925 0.930 . S
C1934 C1932 1.384 . S
C1934 C1935 1.372 . S
C1935 C1934 1.372 . S
C1935 C1936 1.400 . S
C1935 C1940 1.490 . S
C1936 H1926 0.930 . S
C1936 C1935 1.400 . S
C1936 C1939 1.386 . S
H1937 C1953 0.930 . S
H1938 C1954 0.931 . S
C1939 H1927 0.929 . S
C1939 C1933 1.390 . S
C1939 C1936 1.386 . S
C1940 C1935 1.490 . S
C1940 C1942 1.395 . S
C1940 C1943 1.403 . S
H1941 C1947 0.930 . S
C1942 H1928 0.930 . S
C1942 C1940 1.395 . S
C1942 C1945 1.403 . S
C1943 C1940 1.403 . S
C1943 C1944 1.524 . S
C1943 C1947 1.400 . S
C1944 H1929 0.960 . S
C1944 H1930 0.960 . S
C1944 H1931 0.960 . S
C1944 C1943 1.524 . S
C1945 C1942 1.403 . S
C1945 C1946 1.392 . S
C1945 C1949 1.495 . S
C1946 C1945 1.392 . S
C1946 C1947 1.385 . S
C1946 C1948 1.478 . S
C1947 H1941 0.930 . S
C1947 C1943 1.400 . S
C1947 C1946 1.385 . S
C1948 C1946 1.478 . S
C1948 C1950 1.381 . S
C1948 C1954 1.383 . S
C1949 C1945 1.495 . S
C1949 H1955 0.959 . S
C1949 H1956 0.961 . S
C1949 H1957 0.960 . S
C1950 C1948 1.381 . S
C1950 C1951 1.394 . S
C1950 H1958 0.930 . S
C1951 C1950 1.394 . S
C1951 C1952 1.383 . S
C1951 H1959 0.929 . S
C1952 C1951 1.383 . S
C1952 C1953 1.377 . S
C1953 H1937 0.930 . S
C1953 C1952 1.377 . S
C1953 C1954 1.379 . S
C1954 H1938 0.931 . S
C1954 C1948 1.383 . S
C1954 C1953 1.379 . S
H1955 C1949 0.959 . S
H1956 C1949 0.961 . S
H1957 C1949 0.960 . S
H1958 C1950 0.930 . S
H1959 C1951 0.929 . S
H1960 C1968 0.929 . S
H1961 C1970 0.930 . S
H1962 C1972 0.930 . S
H1963 C1975 0.929 . S
H1964 C1978 0.930 . S
H1965 C1980 0.960 . S
H1966 C1980 0.960 . S
H1967 C1980 0.960 . S
C1968 H1960 0.929 . S
C1968 C1969 1.377 . S
C1968 C1970 1.384 . S
C1969 C1968 1.377 . S
C1969 C1975 1.390 . S
C1970 H1961 0.930 . S
C1970 C1968 1.384 . S
C1970 C1971 1.372 . S
C1971 C1970 1.372 . S
C1971 C1972 1.400 . S
C1971 C1976 1.490 . S
C1972 H1962 0.930 . S
C1972 C1971 1.400 . S
C1972 C1975 1.386 . S
H1973 C1989 0.930 . S
H1974 C1990 0.931 . S
C1975 H1963 0.929 . S
C1975 C1969 1.390 . S
C1975 C1972 1.386 . S
C1976 C1971 1.490 . S
C1976 C1978 1.395 . S
C1976 C1979 1.403 . S
H1977 C1983 0.930 . S
C1978 H1964 0.930 . S
C1978 C1976 1.395 . S
C1978 C1981 1.403 . S
C1979 C1976 1.403 . S
C1979 C1980 1.524 . S
C1979 C1983 1.400 . S
C1980 H1965 0.960 . S
C1980 H1966 0.960 . S
C1980 H1967 0.960 . S
C1980 C1979 1.524 . S
C1981 C1978 1.403 . S
C1981 C1982 1.392 . S
C1981 C1985 1.495 . S
C1982 C1981 1.392 . S
C1982 C1983 1.385 . S
C1982 C1984 1.478 . S
C1983 H1977 0.930 . S
C1983 C1979 1.400 . S
C1983 C1982 1.385 . S
C1984 C1982 1.478 . S
C1984 C1986 1.381 . S
C1984 C1990 1.383 . S
C1985 C1981 1.495 . S
C1985 H1991 0.959 . S
C1985 H1992 0.961 . S
C1985 H1993 0.960 . S
C1986 C1984 1.381 . S
C1986 C1987 1.394 . S
C1986 H1994 0.930 . S
C1987 C1986 1.394 . S
C1987 C1988 1.383 . S
C1987 H1995 0.929 . S
C1988 C1987 1.383 . S
C1988 C1989 1.377 . S
C1989 H1973 0.930 . S
C1989 C1988 1.377 . S
C1989 C1990 1.379 . S
C1990 H1974 0.931 . S
C1990 C1984 1.383 . S
C1990 C1989 1.379 . S
H1991 C1985 0.959 . S
H1992 C1985 0.961 . S
H1993 C1985 0.960 . S
H1994 C1986 0.930 . S
H1995 C1987 0.929 . S
H1996 C2004 0.929 . S
H1997 C2006 0.930 . S
H1998 C2008 0.930 . S
H1999 C2011 0.929 . S
H2000 C2014 0.930 . S
H2001 C2016 0.960 . S
H2002 C2016 0.960 . S
H2003 C2016 0.960 . S
C2004 H1996 0.929 . S
C2004 C2005 1.377 . S
C2004 C2006 1.384 . S
C2005 C2004 1.377 . S
C2005 C2011 1.390 . S
C2006 H1997 0.930 . S
C2006 C2004 1.384 . S
C2006 C2007 1.372 . S
C2007 C2006 1.372 . S
C2007 C2008 1.400 . S
C2007 C2012 1.490 . S
C2008 H1998 0.930 . S
C2008 C2007 1.400 . S
C2008 C2011 1.386 . S
H2009 C2025 0.930 . S
H2010 C2026 0.931 . S
C2011 H1999 0.929 . S
C2011 C2005 1.390 . S
C2011 C2008 1.386 . S
C2012 C2007 1.490 . S
C2012 C2014 1.395 . S
C2012 C2015 1.403 . S
H2013 C2019 0.930 . S
C2014 H2000 0.930 . S
C2014 C2012 1.395 . S
C2014 C2017 1.403 . S
C2015 C2012 1.403 . S
C2015 C2016 1.524 . S
C2015 C2019 1.400 . S
C2016 H2001 0.960 . S
C2016 H2002 0.960 . S
C2016 H2003 0.960 . S
C2016 C2015 1.524 . S
C2017 C2014 1.403 . S
C2017 C2018 1.392 . S
C2017 C2021 1.495 . S
C2018 C2017 1.392 . S
C2018 C2019 1.385 . S
C2018 C2020 1.478 . S
C2019 H2013 0.930 . S
C2019 C2015 1.400 . S
C2019 C2018 1.385 . S
C2020 C2018 1.478 . S
C2020 C2022 1.381 . S
C2020 C2026 1.383 . S
C2021 C2017 1.495 . S
C2021 H2027 0.959 . S
C2021 H2028 0.961 . S
C2021 H2029 0.960 . S
C2022 C2020 1.381 . S
C2022 C2023 1.394 . S
C2022 H2030 0.930 . S
C2023 C2022 1.394 . S
C2023 C2024 1.383 . S
C2023 H2031 0.929 . S
C2024 C2023 1.383 . S
C2024 C2025 1.377 . S
C2025 H2009 0.930 . S
C2025 C2024 1.377 . S
C2025 C2026 1.379 . S
C2026 H2010 0.931 . S
C2026 C2020 1.383 . S
C2026 C2025 1.379 . S
H2027 C2021 0.959 . S
H2028 C2021 0.961 . S
H2029 C2021 0.960 . S
H2030 C2022 0.930 . S
H2031 C2023 0.929 . S
H2032 C2040 0.929 . S
H2033 C2042 0.930 . S
H2034 C2044 0.930 . S
H2035 C2047 0.929 . S
H2036 C2050 0.930 . S
H2037 C2052 0.960 . S
H2038 C2052 0.960 . S
H2039 C2052 0.960 . S
C2040 H2032 0.929 . S
C2040 C2041 1.377 . S
C2040 C2042 1.384 . S
C2041 C2040 1.377 . S
C2041 C2047 1.390 . S
C2042 H2033 0.930 . S
C2042 C2040 1.384 . S
C2042 C2043 1.372 . S
C2043 C2042 1.372 . S
C2043 C2044 1.400 . S
C2043 C2048 1.490 . S
C2044 H2034 0.930 . S
C2044 C2043 1.400 . S
C2044 C2047 1.386 . S
H2045 C2061 0.930 . S
H2046 C2062 0.931 . S
C2047 H2035 0.929 . S
C2047 C2041 1.390 . S
C2047 C2044 1.386 . S
C2048 C2043 1.490 . S
C2048 C2050 1.395 . S
C2048 C2051 1.403 . S
H2049 C2055 0.930 . S
C2050 H2036 0.930 . S
C2050 C2048 1.395 . S
C2050 C2053 1.403 . S
C2051 C2048 1.403 . S
C2051 C2052 1.524 . S
C2051 C2055 1.400 . S
C2052 H2037 0.960 . S
C2052 H2038 0.960 . S
C2052 H2039 0.960 . S
C2052 C2051 1.524 . S
C2053 C2050 1.403 . S
C2053 C2054 1.392 . S
C2053 C2057 1.495 . S
C2054 C2053 1.392 . S
C2054 C2055 1.385 . S
C2054 C2056 1.478 . S
C2055 H2049 0.930 . S
C2055 C2051 1.400 . S
C2055 C2054 1.385 . S
C2056 C2054 1.478 . S
C2056 C2058 1.381 . S
C2056 C2062 1.383 . S
C2057 C2053 1.495 . S
C2057 H2063 0.959 . S
C2057 H2064 0.961 . S
C2057 H2065 0.960 . S
C2058 C2056 1.381 . S
C2058 C2059 1.394 . S
C2058 H2066 0.930 . S
C2059 C2058 1.394 . S
C2059 C2060 1.383 . S
C2059 H2067 0.929 . S
C2060 C2059 1.383 . S
C2060 C2061 1.377 . S
C2061 H2045 0.930 . S
C2061 C2060 1.377 . S
C2061 C2062 1.379 . S
C2062 H2046 0.931 . S
C2062 C2056 1.383 . S
C2062 C2061 1.379 . S
H2063 C2057 0.959 . S
H2064 C2057 0.961 . S
H2065 C2057 0.960 . S
H2066 C2058 0.930 . S
H2067 C2059 0.929 . S
H2068 C2076 0.929 . S
H2069 C2078 0.930 . S
H2070 C2080 0.930 . S
H2071 C2083 0.929 . S
H2072 C2086 0.930 . S
H2073 C2088 0.960 . S
H2074 C2088 0.960 . S
H2075 C2088 0.960 . S
C2076 H2068 0.929 . S
C2076 C2077 1.377 . S
C2076 C2078 1.384 . S
C2077 C2076 1.377 . S
C2077 C2083 1.390 . S
C2078 H2069 0.930 . S
C2078 C2076 1.384 . S
C2078 C2079 1.372 . S
C2079 C2078 1.372 . S
C2079 C2080 1.400 . S
C2079 C2084 1.490 . S
C2080 H2070 0.930 . S
C2080 C2079 1.400 . S
C2080 C2083 1.386 . S
H2081 C2097 0.930 . S
H2082 C2098 0.931 . S
C2083 H2071 0.929 . S
C2083 C2077 1.390 . S
C2083 C2080 1.386 . S
C2084 C2079 1.490 . S
C2084 C2086 1.395 . S
C2084 C2087 1.403 . S
H2085 C2091 0.930 . S
C2086 H2072 0.930 . S
C2086 C2084 1.395 . S
C2086 C2089 1.403 . S
C2087 C2084 1.403 . S
C2087 C2088 1.524 . S
C2087 C2091 1.400 . S
C2088 H2073 0.960 . S
C2088 H2074 0.960 . S
C2088 H2075 0.960 . S
C2088 C2087 1.524 . S
C2089 C2086 1.403 . S
C2089 C2090 1.392 . S
C2089 C2093 1.495 . S
C2090 C2089 1.392 . S
C2090 C2091 1.385 . S
C2090 C2092 1.478 . S
C2091 H2085 0.930 . S
C2091 C2087 1.400 . S
C2091 C2090 1.385 . S
C2092 C2090 1.478 . S
C2092 C2094 1.381 . S
C2092 C2098 1.383 . S
C2093 C2089 1.495 . S
C2093 H2099 0.959 . S
C2093 H2100 0.961 . S
C2093 H2101 0.960 . S
C2094 C2092 1.381 . S
C2094 C2095 1.394 . S
C2094 H2102 0.930 . S
C2095 C2094 1.394 . S
C2095 C2096 1.383 . S
C2095 H2103 0.929 . S
C2096 C2095 1.383 . S
C2096 C2097 1.377 . S
C2097 H2081 0.930 . S
C2097 C2096 1.377 . S
C2097 C2098 1.379 . S
C2098 H2082 0.931 . S
C2098 C2092 1.383 . S
C2098 C2097 1.379 . S
H2099 C2093 0.959 . S
H2100 C2093 0.961 . S
H2101 C2093 0.960 . S
H2102 C2094 0.930 . S
H2103 C2095 0.929 . S
H2104 C2112 0.929 . S
H2105 C2114 0.930 . S
H2106 C2116 0.930 . S
H2107 C2119 0.929 . S
H2108 C2122 0.930 . S
H2109 C2124 0.960 . S
H2110 C2124 0.960 . S
H2111 C2124 0.960 . S
C2112 H2104 0.929 . S
C2112 C2113 1.377 . S
C2112 C2114 1.384 . S
C2113 C2112 1.377 . S
C2113 C2119 1.390 . S
C2114 H2105 0.930 . S
C2114 C2112 1.384 . S
C2114 C2115 1.372 . S
C2115 C2114 1.372 . S
C2115 C2116 1.400 . S
C2115 C2120 1.490 . S
C2116 H2106 0.930 . S
C2116 C2115 1.400 . S
C2116 C2119 1.386 . S
H2117 C2133 0.930 . S
H2118 C2134 0.931 . S
C2119 H2107 0.929 . S
C2119 C2113 1.390 . S
C2119 C2116 1.386 . S
C2120 C2115 1.490 . S
C2120 C2122 1.395 . S
C2120 C2123 1.403 . S
H2121 C2127 0.930 . S
C2122 H2108 0.930 . S
C2122 C2120 1.395 . S
C2122 C2125 1.403 . S
C2123 C2120 1.403 . S
C2123 C2124 1.524 . S
C2123 C2127 1.400 . S
C2124 H2109 0.960 . S
C2124 H2110 0.960 . S
C2124 H2111 0.960 . S
C2124 C2123 1.524 . S
C2125 C2122 1.403 . S
C2125 C2126 1.392 . S
C2125 C2129 1.495 . S
C2126 C2125 1.392 . S
C2126 C2127 1.385 . S
C2126 C2128 1.478 . S
C2127 H2121 0.930 . S
C2127 C2123 1.400 . S
C2127 C2126 1.385 . S
C2128 C2126 1.478 . S
C2128 C2130 1.381 . S
C2128 C2134 1.383 . S
C2129 C2125 1.495 . S
C2129 H2135 0.959 . S
C2129 H2136 0.961 . S
C2129 H2137 0.960 . S
C2130 C2128 1.381 . S
C2130 C2131 1.394 . S
C2130 H2138 0.930 . S
C2131 C2130 1.394 . S
C2131 C2132 1.383 . S
C2131 H2139 0.929 . S
C2132 C2131 1.383 . S
C2132 C2133 1.377 . S
C2133 H2117 0.930 . S
C2133 C2132 1.377 . S
C2133 C2134 1.379 . S
C2134 H2118 0.931 . S
C2134 C2128 1.383 . S
C2134 C2133 1.379 . S
H2135 C2129 0.959 . S
H2136 C2129 0.961 . S
H2137 C2129 0.960 . S
H2138 C2130 0.930 . S
H2139 C2131 0.929 . S
H2140 C2148 0.929 . S
H2141 C2150 0.930 . S
H2142 C2152 0.930 . S
H2143 C2155 0.929 . S
H2144 C2158 0.930 . S
H2145 C2160 0.960 . S
H2146 C2160 0.960 . S
H2147 C2160 0.960 . S
C2148 H2140 0.929 . S
C2148 C2149 1.377 . S
C2148 C2150 1.384 . S
C2149 C2148 1.377 . S
C2149 C2155 1.390 . S
C2150 H2141 0.930 . S
C2150 C2148 1.384 . S
C2150 C2151 1.372 . S
C2151 C2150 1.372 . S
C2151 C2152 1.400 . S
C2151 C2156 1.490 . S
C2152 H2142 0.930 . S
C2152 C2151 1.400 . S
C2152 C2155 1.386 . S
H2153 C2169 0.930 . S
H2154 C2170 0.931 . S
C2155 H2143 0.929 . S
C2155 C2149 1.390 . S
C2155 C2152 1.386 . S
C2156 C2151 1.490 . S
C2156 C2158 1.395 . S
C2156 C2159 1.403 . S
H2157 C2163 0.930 . S
C2158 H2144 0.930 . S
C2158 C2156 1.395 . S
C2158 C2161 1.403 . S
C2159 C2156 1.403 . S
C2159 C2160 1.524 . S
C2159 C2163 1.400 . S
C2160 H2145 0.960 . S
C2160 H2146 0.960 . S
C2160 H2147 0.960 . S
C2160 C2159 1.524 . S
C2161 C2158 1.403 . S
C2161 C2162 1.392 . S
C2161 C2165 1.495 . S
C2162 C2161 1.392 . S
C2162 C2163 1.385 . S
C2162 C2164 1.478 . S
C2163 H2157 0.930 . S
C2163 C2159 1.400 . S
C2163 C2162 1.385 . S
C2164 C2162 1.478 . S
C2164 C2166 1.381 . S
C2164 C2170 1.383 . S
C2165 C2161 1.495 . S
C2165 H2171 0.959 . S
C2165 H2172 0.961 . S
C2165 H2173 0.960 . S
C2166 C2164 1.381 . S
C2166 C2167 1.394 . S
C2166 H2174 0.930 . S
C2167 C2166 1.394 . S
C2167 C2168 1.383 . S
C2167 H2175 0.929 . S
C2168 C2167 1.383 . S
C2168 C2169 1.377 . S
C2169 H2153 0.930 . S
C2169 C2168 1.377 . S
C2169 C2170 1.379 . S
C2170 H2154 0.931 . S
C2170 C2164 1.383 . S
C2170 C2169 1.379 . S
H2171 C2165 0.959 . S
H2172 C2165 0.961 . S
H2173 C2165 0.960 . S
H2174 C2166 0.930 . S
H2175 C2167 0.929 . S
H2176 C2184 0.929 . S
H2177 C2186 0.930 . S
H2178 C2188 0.930 . S
H2179 C2191 0.929 . S
H2180 C2194 0.930 . S
H2181 C2196 0.960 . S
H2182 C2196 0.960 . S
H2183 C2196 0.960 . S
C2184 H2176 0.929 . S
C2184 C2185 1.377 . S
C2184 C2186 1.384 . S
C2185 C2184 1.377 . S
C2185 C2191 1.390 . S
C2186 H2177 0.930 . S
C2186 C2184 1.384 . S
C2186 C2187 1.372 . S
C2187 C2186 1.372 . S
C2187 C2188 1.400 . S
C2187 C2192 1.490 . S
C2188 H2178 0.930 . S
C2188 C2187 1.400 . S
C2188 C2191 1.386 . S
H2189 C2205 0.930 . S
H2190 C2206 0.931 . S
C2191 H2179 0.929 . S
C2191 C2185 1.390 . S
C2191 C2188 1.386 . S
C2192 C2187 1.490 . S
C2192 C2194 1.395 . S
C2192 C2195 1.403 . S
H2193 C2199 0.930 . S
C2194 H2180 0.930 . S
C2194 C2192 1.395 . S
C2194 C2197 1.403 . S
C2195 C2192 1.403 . S
C2195 C2196 1.524 . S
C2195 C2199 1.400 . S
C2196 H2181 0.960 . S
C2196 H2182 0.960 . S
C2196 H2183 0.960 . S
C2196 C2195 1.524 . S
C2197 C2194 1.403 . S
C2197 C2198 1.392 . S
C2197 C2201 1.495 . S
C2198 C2197 1.392 . S
C2198 C2199 1.385 . S
C2198 C2200 1.478 . S
C2199 H2193 0.930 . S
C2199 C2195 1.400 . S
C2199 C2198 1.385 . S
C2200 C2198 1.478 . S
C2200 C2202 1.381 . S
C2200 C2206 1.383 . S
C2201 C2197 1.495 . S
C2201 H2207 0.959 . S
C2201 H2208 0.961 . S
C2201 H2209 0.960 . S
C2202 C2200 1.381 . S
C2202 C2203 1.394 . S
C2202 H2210 0.930 . S
C2203 C2202 1.394 . S
C2203 C2204 1.383 . S
C2203 H2211 0.929 . S
C2204 C2203 1.383 . S
C2204 C2205 1.377 . S
C2205 H2189 0.930 . S
C2205 C2204 1.377 . S
C2205 C2206 1.379 . S
C2206 H2190 0.931 . S
C2206 C2200 1.383 . S
C2206 C2205 1.379 . S
H2207 C2201 0.959 . S
H2208 C2201 0.961 . S
H2209 C2201 0.960 . S
H2210 C2202 0.930 . S
H2211 C2203 0.929 . S
H2212 C2220 0.929 . S
H2213 C2222 0.930 . S
H2214 C2224 0.930 . S
H2215 C2227 0.929 . S
H2216 C2230 0.930 . S
H2217 C2232 0.960 . S
H2218 C2232 0.960 . S
H2219 C2232 0.960 . S
C2220 H2212 0.929 . S
C2220 C2221 1.377 . S
C2220 C2222 1.384 . S
C2221 C2220 1.377 . S
C2221 C2227 1.390 . S
C2222 H2213 0.930 . S
C2222 C2220 1.384 . S
C2222 C2223 1.372 . S
C2223 C2222 1.372 . S
C2223 C2224 1.400 . S
C2223 C2228 1.490 . S
C2224 H2214 0.930 . S
C2224 C2223 1.400 . S
C2224 C2227 1.386 . S
H2225 C2241 0.930 . S
H2226 C2242 0.931 . S
C2227 H2215 0.929 . S
C2227 C2221 1.390 . S
C2227 C2224 1.386 . S
C2228 C2223 1.490 . S
C2228 C2230 1.395 . S
C2228 C2231 1.403 . S
H2229 C2235 0.930 . S
C2230 H2216 0.930 . S
C2230 C2228 1.395 . S
C2230 C2233 1.403 . S
C2231 C2228 1.403 . S
C2231 C2232 1.524 . S
C2231 C2235 1.400 . S
C2232 H2217 0.960 . S
C2232 H2218 0.960 . S
C2232 H2219 0.960 . S
C2232 C2231 1.524 . S
C2233 C2230 1.403 . S
C2233 C2234 1.392 . S
C2233 C2237 1.495 . S
C2234 C2233 1.392 . S
C2234 C2235 1.385 . S
C2234 C2236 1.478 . S
C2235 H2229 0.930 . S
C2235 C2231 1.400 . S
C2235 C2234 1.385 . S
C2236 C2234 1.478 . S
C2236 C2238 1.381 . S
C2236 C2242 1.383 . S
C2237 C2233 1.495 . S
C2237 H2243 0.959 . S
C2237 H2244 0.961 . S
C2237 H2245 0.960 . S
C2238 C2236 1.381 . S
C2238 C2239 1.394 . S
C2238 H2246 0.930 . S
C2239 C2238 1.394 . S
C2239 C2240 1.383 . S
C2239 H2247 0.929 . S
C2240 C2239 1.383 . S
C2240 C2241 1.377 . S
C2241 H2225 0.930 . S
C2241 C2240 1.377 . S
C2241 C2242 1.379 . S
C2242 H2226 0.931 . S
C2242 C2236 1.383 . S
C2242 C2241 1.379 . S
H2243 C2237 0.959 . S
H2244 C2237 0.961 . S
H2245 C2237 0.960 . S
H2246 C2238 0.930 . S
H2247 C2239 0.929 . S
H2248 C2256 0.929 . S
H2249 C2258 0.930 . S
H2250 C2260 0.930 . S
H2251 C2263 0.929 . S
H2252 C2266 0.930 . S
H2253 C2268 0.960 . S
H2254 C2268 0.960 . S
H2255 C2268 0.960 . S
C2256 H2248 0.929 . S
C2256 C2257 1.377 . S
C2256 C2258 1.384 . S
C2257 C2256 1.377 . S
C2257 C2263 1.390 . S
C2258 H2249 0.930 . S
C2258 C2256 1.384 . S
C2258 C2259 1.372 . S
C2259 C2258 1.372 . S
C2259 C2260 1.400 . S
C2259 C2264 1.490 . S
C2260 H2250 0.930 . S
C2260 C2259 1.400 . S
C2260 C2263 1.386 . S
H2261 C2277 0.930 . S
H2262 C2278 0.931 . S
C2263 H2251 0.929 . S
C2263 C2257 1.390 . S
C2263 C2260 1.386 . S
C2264 C2259 1.490 . S
C2264 C2266 1.395 . S
C2264 C2267 1.403 . S
H2265 C2271 0.930 . S
C2266 H2252 0.930 . S
C2266 C2264 1.395 . S
C2266 C2269 1.403 . S
C2267 C2264 1.403 . S
C2267 C2268 1.524 . S
C2267 C2271 1.400 . S
C2268 H2253 0.960 . S
C2268 H2254 0.960 . S
C2268 H2255 0.960 . S
C2268 C2267 1.524 . S
C2269 C2266 1.403 . S
C2269 C2270 1.392 . S
C2269 C2273 1.495 . S
C2270 C2269 1.392 . S
C2270 C2271 1.385 . S
C2270 C2272 1.478 . S
C2271 H2265 0.930 . S
C2271 C2267 1.400 . S
C2271 C2270 1.385 . S
C2272 C2270 1.478 . S
C2272 C2274 1.381 . S
C2272 C2278 1.383 . S
C2273 C2269 1.495 . S
C2273 H2279 0.959 . S
C2273 H2280 0.961 . S
C2273 H2281 0.960 . S
C2274 C2272 1.381 . S
C2274 C2275 1.394 . S
C2274 H2282 0.930 . S
C2275 C2274 1.394 . S
C2275 C2276 1.383 . S
C2275 H2283 0.929 . S
C2276 C2275 1.383 . S
C2276 C2277 1.377 . S
C2277 H2261 0.930 . S
C2277 C2276 1.377 . S
C2277 C2278 1.379 . S
C2278 H2262 0.931 . S
C2278 C2272 1.383 . S
C2278 C2277 1.379 . S
H2279 C2273 0.959 . S
H2280 C2273 0.961 . S
H2281 C2273 0.960 . S
H2282 C2274 0.930 . S
H2283 C2275 0.929 . S
H2284 C2292 0.929 . S
H2285 C2294 0.930 . S
H2286 C2296 0.930 . S
H2287 C2299 0.929 . S
H2288 C2302 0.930 . S
H2289 C2304 0.960 . S
H2290 C2304 0.960 . S
H2291 C2304 0.960 . S
C2292 H2284 0.929 . S
C2292 C2293 1.377 . S
C2292 C2294 1.384 . S
C2293 C2292 1.377 . S
C2293 C2299 1.390 . S
C2294 H2285 0.930 . S
C2294 C2292 1.384 . S
C2294 C2295 1.372 . S
C2295 C2294 1.372 . S
C2295 C2296 1.400 . S
C2295 C2300 1.490 . S
C2296 H2286 0.930 . S
C2296 C2295 1.400 . S
C2296 C2299 1.386 . S
H2297 C2313 0.930 . S
H2298 C2314 0.931 . S
C2299 H2287 0.929 . S
C2299 C2293 1.390 . S
C2299 C2296 1.386 . S
C2300 C2295 1.490 . S
C2300 C2302 1.395 . S
C2300 C2303 1.403 . S
H2301 C2307 0.930 . S
C2302 H2288 0.930 . S
C2302 C2300 1.395 . S
C2302 C2305 1.403 . S
C2303 C2300 1.403 . S
C2303 C2304 1.524 . S
C2303 C2307 1.400 . S
C2304 H2289 0.960 . S
C2304 H2290 0.960 . S
C2304 H2291 0.960 . S
C2304 C2303 1.524 . S
C2305 C2302 1.403 . S
C2305 C2306 1.392 . S
C2305 C2309 1.495 . S
C2306 C2305 1.392 . S
C2306 C2307 1.385 . S
C2306 C2308 1.478 . S
C2307 H2301 0.930 . S
C2307 C2303 1.400 . S
C2307 C2306 1.385 . S
C2308 C2306 1.478 . S
C2308 C2310 1.381 . S
C2308 C2314 1.383 . S
C2309 C2305 1.495 . S
C2309 H2315 0.959 . S
C2309 H2316 0.961 . S
C2309 H2317 0.960 . S
C2310 C2308 1.381 . S
C2310 C2311 1.394 . S
C2310 H2318 0.930 . S
C2311 C2310 1.394 . S
C2311 C2312 1.383 . S
C2311 H2319 0.929 . S
C2312 C2311 1.383 . S
C2312 C2313 1.377 . S
C2313 H2297 0.930 . S
C2313 C2312 1.377 . S
C2313 C2314 1.379 . S
C2314 H2298 0.931 . S
C2314 C2308 1.383 . S
C2314 C2313 1.379 . S
H2315 C2309 0.959 . S
H2316 C2309 0.961 . S
H2317 C2309 0.960 . S
H2318 C2310 0.930 . S
H2319 C2311 0.929 . S
H2320 C2328 0.929 . S
H2321 C2330 0.930 . S
H2322 C2332 0.930 . S
H2323 C2335 0.929 . S
H2324 C2338 0.930 . S
H2325 C2340 0.960 . S
H2326 C2340 0.960 . S
H2327 C2340 0.960 . S
C2328 H2320 0.929 . S
C2328 C2329 1.377 . S
C2328 C2330 1.384 . S
C2329 C2328 1.377 . S
C2329 C2335 1.390 . S
C2330 H2321 0.930 . S
C2330 C2328 1.384 . S
C2330 C2331 1.372 . S
C2331 C2330 1.372 . S
C2331 C2332 1.400 . S
C2331 C2336 1.490 . S
C2332 H2322 0.930 . S
C2332 C2331 1.400 . S
C2332 C2335 1.386 . S
H2333 C2349 0.930 . S
H2334 C2350 0.931 . S
C2335 H2323 0.929 . S
C2335 C2329 1.390 . S
C2335 C2332 1.386 . S
C2336 C2331 1.490 . S
C2336 C2338 1.395 . S
C2336 C2339 1.403 . S
H2337 C2343 0.930 . S
C2338 H2324 0.930 . S
C2338 C2336 1.395 . S
C2338 C2341 1.403 . S
C2339 C2336 1.403 . S
C2339 C2340 1.524 . S
C2339 C2343 1.400 . S
C2340 H2325 0.960 . S
C2340 H2326 0.960 . S
C2340 H2327 0.960 . S
C2340 C2339 1.524 . S
C2341 C2338 1.403 . S
C2341 C2342 1.392 . S
C2341 C2345 1.495 . S
C2342 C2341 1.392 . S
C2342 C2343 1.385 . S
C2342 C2344 1.478 . S
C2343 H2337 0.930 . S
C2343 C2339 1.400 . S
C2343 C2342 1.385 . S
C2344 C2342 1.478 . S
C2344 C2346 1.381 . S
C2344 C2350 1.383 . S
C2345 C2341 1.495 . S
C2345 H2351 0.959 . S
C2345 H2352 0.961 . S
C2345 H2353 0.960 . S
C2346 C2344 1.381 . S
C2346 C2347 1.394 . S
C2346 H2354 0.930 . S
C2347 C2346 1.394 . S
C2347 C2348 1.383 . S
C2347 H2355 0.929 . S
C2348 C2347 1.383 . S
C2348 C2349 1.377 . S
C2349 H2333 0.930 . S
C2349 C2348 1.377 . S
C2349 C2350 1.379 . S
C2350 H2334 0.931 . S
C2350 C2344 1.383 . S
C2350 C2349 1.379 . S
H2351 C2345 0.959 . S
H2352 C2345 0.961 . S
H2353 C2345 0.960 . S
H2354 C2346 0.930 . S
H2355 C2347 0.929 . S
H2356 C2364 0.929 . S
H2357 C2366 0.930 . S
H2358 C2368 0.930 . S
H2359 C2371 0.929 . S
H2360 C2374 0.930 . S
H2361 C2376 0.960 . S
H2362 C2376 0.960 . S
H2363 C2376 0.960 . S
C2364 H2356 0.929 . S
C2364 C2365 1.377 . S
C2364 C2366 1.384 . S
C2365 C2364 1.377 . S
C2365 C2371 1.390 . S
C2366 H2357 0.930 . S
C2366 C2364 1.384 . S
C2366 C2367 1.372 . S
C2367 C2366 1.372 . S
C2367 C2368 1.400 . S
C2367 C2372 1.490 . S
C2368 H2358 0.930 . S
C2368 C2367 1.400 . S
C2368 C2371 1.386 . S
H2369 C2385 0.930 . S
H2370 C2386 0.931 . S
C2371 H2359 0.929 . S
C2371 C2365 1.390 . S
C2371 C2368 1.386 . S
C2372 C2367 1.490 . S
C2372 C2374 1.395 . S
C2372 C2375 1.403 . S
H2373 C2379 0.930 . S
C2374 H2360 0.930 . S
C2374 C2372 1.395 . S
C2374 C2377 1.403 . S
C2375 C2372 1.403 . S
C2375 C2376 1.524 . S
C2375 C2379 1.400 . S
C2376 H2361 0.960 . S
C2376 H2362 0.960 . S
C2376 H2363 0.960 . S
C2376 C2375 1.524 . S
C2377 C2374 1.403 . S
C2377 C2378 1.392 . S
C2377 C2381 1.495 . S
C2378 C2377 1.392 . S
C2378 C2379 1.385 . S
C2378 C2380 1.478 . S
C2379 H2373 0.930 . S
C2379 C2375 1.400 . S
C2379 C2378 1.385 . S
C2380 C2378 1.478 . S
C2380 C2382 1.381 . S
C2380 C2386 1.383 . S
C2381 C2377 1.495 . S
C2381 H2387 0.959 . S
C2381 H2388 0.961 . S
C2381 H2389 0.960 . S
C2382 C2380 1.381 . S
C2382 C2383 1.394 . S
C2382 H2390 0.930 . S
C2383 C2382 1.394 . S
C2383 C2384 1.383 . S
C2383 H2391 0.929 . S
C2384 C2383 1.383 . S
C2384 C2385 1.377 . S
C2385 H2369 0.930 . S
C2385 C2384 1.377 . S
C2385 C2386 1.379 . S
C2386 H2370 0.931 . S
C2386 C2380 1.383 . S
C2386 C2385 1.379 . S
H2387 C2381 0.959 . S
H2388 C2381 0.961 . S
H2389 C2381 0.960 . S
H2390 C2382 0.930 . S
H2391 C2383 0.929 . S
H2392 C2400 0.929 . S
H2393 C2402 0.930 . S
H2394 C2404 0.930 . S
H2395 C2407 0.929 . S
H2396 C2410 0.930 . S
H2397 C2412 0.960 . S
H2398 C2412 0.960 . S
H2399 C2412 0.960 . S
C2400 H2392 0.929 . S
C2400 C2401 1.377 . S
C2400 C2402 1.384 . S
C2401 C2400 1.377 . S
C2401 C2407 1.390 . S
C2402 H2393 0.930 . S
C2402 C2400 1.384 . S
C2402 C2403 1.372 . S
C2403 C2402 1.372 . S
C2403 C2404 1.400 . S
C2403 C2408 1.490 . S
C2404 H2394 0.930 . S
C2404 C2403 1.400 . S
C2404 C2407 1.386 . S
H2405 C2421 0.930 . S
H2406 C2422 0.931 . S
C2407 H2395 0.929 . S
C2407 C2401 1.390 . S
C2407 C2404 1.386 . S
C2408 C2403 1.490 . S
C2408 C2410 1.395 . S
C2408 C2411 1.403 . S
H2409 C2415 0.930 . S
C2410 H2396 0.930 . S
C2410 C2408 1.395 . S
C2410 C2413 1.403 . S
C2411 C2408 1.403 . S
C2411 C2412 1.524 . S
C2411 C2415 1.400 . S
C2412 H2397 0.960 . S
C2412 H2398 0.960 . S
C2412 H2399 0.960 . S
C2412 C2411 1.524 . S
C2413 C2410 1.403 . S
C2413 C2414 1.392 . S
C2413 C2417 1.495 . S
C2414 C2413 1.392 . S
C2414 C2415 1.385 . S
C2414 C2416 1.478 . S
C2415 H2409 0.930 . S
C2415 C2411 1.400 . S
C2415 C2414 1.385 . S
C2416 C2414 1.478 . S
C2416 C2418 1.381 . S
C2416 C2422 1.383 . S
C2417 C2413 1.495 . S
C2417 H2423 0.959 . S
C2417 H2424 0.961 . S
C2417 H2425 0.960 . S
C2418 C2416 1.381 . S
C2418 C2419 1.394 . S
C2418 H2426 0.930 . S
C2419 C2418 1.394 . S
C2419 C2420 1.383 . S
C2419 H2427 0.929 . S
C2420 C2419 1.383 . S
C2420 C2421 1.377 . S
C2421 H2405 0.930 . S
C2421 C2420 1.377 . S
C2421 C2422 1.379 . S
C2422 H2406 0.931 . S
C2422 C2416 1.383 . S
C2422 C2421 1.379 . S
H2423 C2417 0.959 . S
H2424 C2417 0.961 . S
H2425 C2417 0.960 . S
H2426 C2418 0.930 . S
H2427 C2419 0.929 . S
H2428 C2436 0.929 . S
H2429 C2438 0.930 . S
H2430 C2440 0.930 . S
H2431 C2443 0.929 . S
H2432 C2446 0.930 . S
H2433 C2448 0.960 . S
H2434 C2448 0.960 . S
H2435 C2448 0.960 . S
C2436 H2428 0.929 . S
C2436 C2437 1.377 . S
C2436 C2438 1.384 . S
C2437 C2436 1.377 . S
C2437 C2443 1.390 . S
C2438 H2429 0.930 . S
C2438 C2436 1.384 . S
C2438 C2439 1.372 . S
C2439 C2438 1.372 . S
C2439 C2440 1.400 . S
C2439 C2444 1.490 . S
C2440 H2430 0.930 . S
C2440 C2439 1.400 . S
C2440 C2443 1.386 . S
H2441 C2457 0.930 . S
H2442 C2458 0.931 . S
C2443 H2431 0.929 . S
C2443 C2437 1.390 . S
C2443 C2440 1.386 . S
C2444 C2439 1.490 . S
C2444 C2446 1.395 . S
C2444 C2447 1.403 . S
H2445 C2451 0.930 . S
C2446 H2432 0.930 . S
C2446 C2444 1.395 . S
C2446 C2449 1.403 . S
C2447 C2444 1.403 . S
C2447 C2448 1.524 . S
C2447 C2451 1.400 . S
C2448 H2433 0.960 . S
C2448 H2434 0.960 . S
C2448 H2435 0.960 . S
C2448 C2447 1.524 . S
C2449 C2446 1.403 . S
C2449 C2450 1.392 . S
C2449 C2453 1.495 . S
C2450 C2449 1.392 . S
C2450 C2451 1.385 . S
C2450 C2452 1.478 . S
C2451 H2445 0.930 . S
C2451 C2447 1.400 . S
C2451 C2450 1.385 . S
C2452 C2450 1.478 . S
C2452 C2454 1.381 . S
C2452 C2458 1.383 . S
C2453 C2449 1.495 . S
C2453 H2459 0.959 . S
C2453 H2460 0.961 . S
C2453 H2461 0.960 . S
C2454 C2452 1.381 . S
C2454 C2455 1.394 . S
C2454 H2462 0.930 . S
C2455 C2454 1.394 . S
C2455 C2456 1.383 . S
C2455 H2463 0.929 . S
C2456 C2455 1.383 . S
C2456 C2457 1.377 . S
C2457 H2441 0.930 . S
C2457 C2456 1.377 . S
C2457 C2458 1.379 . S
C2458 H2442 0.931 . S
C2458 C2452 1.383 . S
C2458 C2457 1.379 . S
H2459 C2453 0.959 . S
H2460 C2453 0.961 . S
H2461 C2453 0.960 . S
H2462 C2454 0.930 . S
H2463 C2455 0.929 . S
H2464 C2472 0.929 . S
H2465 C2474 0.930 . S
H2466 C2476 0.930 . S
H2467 C2479 0.929 . S
H2468 C2482 0.930 . S
H2469 C2484 0.960 . S
H2470 C2484 0.960 . S
H2471 C2484 0.960 . S
C2472 H2464 0.929 . S
C2472 C2473 1.377 . S
C2472 C2474 1.384 . S
C2473 C2472 1.377 . S
C2473 C2479 1.390 . S
C2474 H2465 0.930 . S
C2474 C2472 1.384 . S
C2474 C2475 1.372 . S
C2475 C2474 1.372 . S
C2475 C2476 1.400 . S
C2475 C2480 1.490 . S
C2476 H2466 0.930 . S
C2476 C2475 1.400 . S
C2476 C2479 1.386 . S
H2477 C2493 0.930 . S
H2478 C2494 0.931 . S
C2479 H2467 0.929 . S
C2479 C2473 1.390 . S
C2479 C2476 1.386 . S
C2480 C2475 1.490 . S
C2480 C2482 1.395 . S
C2480 C2483 1.403 . S
H2481 C2487 0.930 . S
C2482 H2468 0.930 . S
C2482 C2480 1.395 . S
C2482 C2485 1.403 . S
C2483 C2480 1.403 . S
C2483 C2484 1.524 . S
C2483 C2487 1.400 . S
C2484 H2469 0.960 . S
C2484 H2470 0.960 . S
C2484 H2471 0.960 . S
C2484 C2483 1.524 . S
C2485 C2482 1.403 . S
C2485 C2486 1.392 . S
C2485 C2489 1.495 . S
C2486 C2485 1.392 . S
C2486 C2487 1.385 . S
C2486 C2488 1.478 . S
C2487 H2481 0.930 . S
C2487 C2483 1.400 . S
C2487 C2486 1.385 . S
C2488 C2486 1.478 . S
C2488 C2490 1.381 . S
C2488 C2494 1.383 . S
C2489 C2485 1.495 . S
C2489 H2495 0.959 . S
C2489 H2496 0.961 . S
C2489 H2497 0.960 . S
C2490 C2488 1.381 . S
C2490 C2491 1.394 . S
C2490 H2498 0.930 . S
C2491 C2490 1.394 . S
C2491 C2492 1.383 . S
C2491 H2499 0.929 . S
C2492 C2491 1.383 . S
C2492 C2493 1.377 . S
C2493 H2477 0.930 . S
C2493 C2492 1.377 . S
C2493 C2494 1.379 . S
C2494 H2478 0.931 . S
C2494 C2488 1.383 . S
C2494 C2493 1.379 . S
H2495 C2489 0.959 . S
H2496 C2489 0.961 . S
H2497 C2489 0.960 . S
H2498 C2490 0.930 . S
H2499 C2491 0.929 . S
H2500 C2508 0.929 . S
H2501 C2510 0.930 . S
H2502 C2512 0.930 . S
H2503 C2515 0.929 . S
H2504 C2518 0.930 . S
H2505 C2520 0.960 . S
H2506 C2520 0.960 . S
H2507 C2520 0.960 . S
C2508 H2500 0.929 . S
C2508 C2509 1.377 . S
C2508 C2510 1.384 . S
C2509 C2508 1.377 . S
C2509 C2515 1.390 . S
C2510 H2501 0.930 . S
C2510 C2508 1.384 . S
C2510 C2511 1.372 . S
C2511 C2510 1.372 . S
C2511 C2512 1.400 . S
C2511 C2516 1.490 . S
C2512 H2502 0.930 . S
C2512 C2511 1.400 . S
C2512 C2515 1.386 . S
H2513 C2529 0.930 . S
H2514 C2530 0.931 . S
C2515 H2503 0.929 . S
C2515 C2509 1.390 . S
C2515 C2512 1.386 . S
C2516 C2511 1.490 . S
C2516 C2518 1.395 . S
C2516 C2519 1.403 . S
H2517 C2523 0.930 . S
C2518 H2504 0.930 . S
C2518 C2516 1.395 . S
C2518 C2521 1.403 . S
C2519 C2516 1.403 . S
C2519 C2520 1.524 . S
C2519 C2523 1.400 . S
C2520 H2505 0.960 . S
C2520 H2506 0.960 . S
C2520 H2507 0.960 . S
C2520 C2519 1.524 . S
C2521 C2518 1.403 . S
C2521 C2522 1.392 . S
C2521 C2525 1.495 . S
C2522 C2521 1.392 . S
C2522 C2523 1.385 . S
C2522 C2524 1.478 . S
C2523 H2517 0.930 . S
C2523 C2519 1.400 . S
C2523 C2522 1.385 . S
C2524 C2522 1.478 . S
C2524 C2526 1.381 . S
C2524 C2530 1.383 . S
C2525 C2521 1.495 . S
C2525 H2531 0.959 . S
C2525 H2532 0.961 . S
C2525 H2533 0.960 . S
C2526 C2524 1.381 . S
C2526 C2527 1.394 . S
C2526 H2534 0.930 . S
C2527 C2526 1.394 . S
C2527 C2528 1.383 . S
C2527 H2535 0.929 . S
C2528 C2527 1.383 . S
C2528 C2529 1.377 . S
C2529 H2513 0.930 . S
C2529 C2528 1.377 . S
C2529 C2530 1.379 . S
C2530 H2514 0.931 . S
C2530 C2524 1.383 . S
C2530 C2529 1.379 . S
H2531 C2525 0.959 . S
H2532 C2525 0.961 . S
H2533 C2525 0.960 . S
H2534 C2526 0.930 . S
H2535 C2527 0.929 . S
H2536 C2544 0.929 . S
H2537 C2546 0.930 . S
H2538 C2548 0.930 . S
H2539 C2551 0.929 . S
H2540 C2554 0.930 . S
H2541 C2556 0.960 . S
H2542 C2556 0.960 . S
H2543 C2556 0.960 . S
C2544 H2536 0.929 . S
C2544 C2545 1.377 . S
C2544 C2546 1.384 . S
C2545 C2544 1.377 . S
C2545 C2551 1.390 . S
C2546 H2537 0.930 . S
C2546 C2544 1.384 . S
C2546 C2547 1.372 . S
C2547 C2546 1.372 . S
C2547 C2548 1.400 . S
C2547 C2552 1.490 . S
C2548 H2538 0.930 . S
C2548 C2547 1.400 . S
C2548 C2551 1.386 . S
H2549 C2565 0.930 . S
H2550 C2566 0.931 . S
C2551 H2539 0.929 . S
C2551 C2545 1.390 . S
C2551 C2548 1.386 . S
C2552 C2547 1.490 . S
C2552 C2554 1.395 . S
C2552 C2555 1.403 . S
H2553 C2559 0.930 . S
C2554 H2540 0.930 . S
C2554 C2552 1.395 . S
C2554 C2557 1.403 . S
C2555 C2552 1.403 . S
C2555 C2556 1.524 . S
C2555 C2559 1.400 . S
C2556 H2541 0.960 . S
C2556 H2542 0.960 . S
C2556 H2543 0.960 . S
C2556 C2555 1.524 . S
C2557 C2554 1.403 . S
C2557 C2558 1.392 . S
C2557 C2561 1.495 . S
C2558 C2557 1.392 . S
C2558 C2559 1.385 . S
C2558 C2560 1.478 . S
C2559 H2553 0.930 . S
C2559 C2555 1.400 . S
C2559 C2558 1.385 . S
C2560 C2558 1.478 . S
C2560 C2562 1.381 . S
C2560 C2566 1.383 . S
C2561 C2557 1.495 . S
C2561 H2567 0.959 . S
C2561 H2568 0.961 . S
C2561 H2569 0.960 . S
C2562 C2560 1.381 . S
C2562 C2563 1.394 . S
C2562 H2570 0.930 . S
C2563 C2562 1.394 . S
C2563 C2564 1.383 . S
C2563 H2571 0.929 . S
C2564 C2563 1.383 . S
C2564 C2565 1.377 . S
C2565 H2549 0.930 . S
C2565 C2564 1.377 . S
C2565 C2566 1.379 . S
C2566 H2550 0.931 . S
C2566 C2560 1.383 . S
C2566 C2565 1.379 . S
H2567 C2561 0.959 . S
H2568 C2561 0.961 . S
H2569 C2561 0.960 . S
H2570 C2562 0.930 . S
H2571 C2563 0.929 . S
H2572 C2580 0.929 . S
H2573 C2582 0.930 . S
H2574 C2584 0.930 . S
H2575 C2587 0.929 . S
H2576 C2590 0.930 . S
H2577 C2592 0.960 . S
H2578 C2592 0.960 . S
H2579 C2592 0.960 . S
C2580 H2572 0.929 . S
C2580 C2581 1.377 . S
C2580 C2582 1.384 . S
C2581 C2580 1.377 . S
C2581 C2587 1.390 . S
C2582 H2573 0.930 . S
C2582 C2580 1.384 . S
C2582 C2583 1.372 . S
C2583 C2582 1.372 . S
C2583 C2584 1.400 . S
C2583 C2588 1.490 . S
C2584 H2574 0.930 . S
C2584 C2583 1.400 . S
C2584 C2587 1.386 . S
H2585 C2601 0.930 . S
H2586 C2602 0.931 . S
C2587 H2575 0.929 . S
C2587 C2581 1.390 . S
C2587 C2584 1.386 . S
C2588 C2583 1.490 . S
C2588 C2590 1.395 . S
C2588 C2591 1.403 . S
H2589 C2595 0.930 . S
C2590 H2576 0.930 . S
C2590 C2588 1.395 . S
C2590 C2593 1.403 . S
C2591 C2588 1.403 . S
C2591 C2592 1.524 . S
C2591 C2595 1.400 . S
C2592 H2577 0.960 . S
C2592 H2578 0.960 . S
C2592 H2579 0.960 . S
C2592 C2591 1.524 . S
C2593 C2590 1.403 . S
C2593 C2594 1.392 . S
C2593 C2597 1.495 . S
C2594 C2593 1.392 . S
C2594 C2595 1.385 . S
C2594 C2596 1.478 . S
C2595 H2589 0.930 . S
C2595 C2591 1.400 . S
C2595 C2594 1.385 . S
C2596 C2594 1.478 . S
C2596 C2598 1.381 . S
C2596 C2602 1.383 . S
C2597 C2593 1.495 . S
C2597 H2603 0.959 . S
C2597 H2604 0.961 . S
C2597 H2605 0.960 . S
C2598 C2596 1.381 . S
C2598 C2599 1.394 . S
C2598 H2606 0.930 . S
C2599 C2598 1.394 . S
C2599 C2600 1.383 . S
C2599 H2607 0.929 . S
C2600 C2599 1.383 . S
C2600 C2601 1.377 . S
C2601 H2585 0.930 . S
C2601 C2600 1.377 . S
C2601 C2602 1.379 . S
C2602 H2586 0.931 . S
C2602 C2596 1.383 . S
C2602 C2601 1.379 . S
H2603 C2597 0.959 . S
H2604 C2597 0.961 . S
H2605 C2597 0.960 . S
H2606 C2598 0.930 . S
H2607 C2599 0.929 . S
H2608 C2616 0.929 . S
H2609 C2618 0.930 . S
H2610 C2620 0.930 . S
H2611 C2623 0.929 . S
H2612 C2626 0.930 . S
H2613 C2628 0.960 . S
H2614 C2628 0.960 . S
H2615 C2628 0.960 . S
C2616 H2608 0.929 . S
C2616 C2617 1.377 . S
C2616 C2618 1.384 . S
C2617 C2616 1.377 . S
C2617 C2623 1.390 . S
C2618 H2609 0.930 . S
C2618 C2616 1.384 . S
C2618 C2619 1.372 . S
C2619 C2618 1.372 . S
C2619 C2620 1.400 . S
C2619 C2624 1.490 . S
C2620 H2610 0.930 . S
C2620 C2619 1.400 . S
C2620 C2623 1.386 . S
H2621 C2637 0.930 . S
H2622 C2638 0.931 . S
C2623 H2611 0.929 . S
C2623 C2617 1.390 . S
C2623 C2620 1.386 . S
C2624 C2619 1.490 . S
C2624 C2626 1.395 . S
C2624 C2627 1.403 . S
H2625 C2631 0.930 . S
C2626 H2612 0.930 . S
C2626 C2624 1.395 . S
C2626 C2629 1.403 . S
C2627 C2624 1.403 . S
C2627 C2628 1.524 . S
C2627 C2631 1.400 . S
C2628 H2613 0.960 . S
C2628 H2614 0.960 . S
C2628 H2615 0.960 . S
C2628 C2627 1.524 . S
C2629 C2626 1.403 . S
C2629 C2630 1.392 . S
C2629 C2633 1.495 . S
C2630 C2629 1.392 . S
C2630 C2631 1.385 . S
C2630 C2632 1.478 . S
C2631 H2625 0.930 . S
C2631 C2627 1.400 . S
C2631 C2630 1.385 . S
C2632 C2630 1.478 . S
C2632 C2634 1.381 . S
C2632 C2638 1.383 . S
C2633 C2629 1.495 . S
C2633 H2639 0.959 . S
C2633 H2640 0.961 . S
C2633 H2641 0.960 . S
C2634 C2632 1.381 . S
C2634 C2635 1.394 . S
C2634 H2642 0.930 . S
C2635 C2634 1.394 . S
C2635 C2636 1.383 . S
C2635 H2643 0.929 . S
C2636 C2635 1.383 . S
C2636 C2637 1.377 . S
C2637 H2621 0.930 . S
C2637 C2636 1.377 . S
C2637 C2638 1.379 . S
C2638 H2622 0.931 . S
C2638 C2632 1.383 . S
C2638 C2637 1.379 . S
H2639 C2633 0.959 . S
H2640 C2633 0.961 . S
H2641 C2633 0.960 . S
H2642 C2634 0.930 . S
H2643 C2635 0.929 . S
H2644 C2652 0.929 . S
H2645 C2654 0.930 . S
H2646 C2656 0.930 . S
H2647 C2659 0.929 . S
H2648 C2662 0.930 . S
H2649 C2664 0.960 . S
H2650 C2664 0.960 . S
H2651 C2664 0.960 . S
C2652 H2644 0.929 . S
C2652 C2653 1.377 . S
C2652 C2654 1.384 . S
C2653 C2652 1.377 . S
C2653 C2659 1.390 . S
C2654 H2645 0.930 . S
C2654 C2652 1.384 . S
C2654 C2655 1.372 . S
C2655 C2654 1.372 . S
C2655 C2656 1.400 . S
C2655 C2660 1.490 . S
C2656 H2646 0.930 . S
C2656 C2655 1.400 . S
C2656 C2659 1.386 . S
H2657 C2673 0.930 . S
H2658 C2674 0.931 . S
C2659 H2647 0.929 . S
C2659 C2653 1.390 . S
C2659 C2656 1.386 . S
C2660 C2655 1.490 . S
C2660 C2662 1.395 . S
C2660 C2663 1.403 . S
H2661 C2667 0.930 . S
C2662 H2648 0.930 . S
C2662 C2660 1.395 . S
C2662 C2665 1.403 . S
C2663 C2660 1.403 . S
C2663 C2664 1.524 . S
C2663 C2667 1.400 . S
C2664 H2649 0.960 . S
C2664 H2650 0.960 . S
C2664 H2651 0.960 . S
C2664 C2663 1.524 . S
C2665 C2662 1.403 . S
C2665 C2666 1.392 . S
C2665 C2669 1.495 . S
C2666 C2665 1.392 . S
C2666 C2667 1.385 . S
C2666 C2668 1.478 . S
C2667 H2661 0.930 . S
C2667 C2663 1.400 . S
C2667 C2666 1.385 . S
C2668 C2666 1.478 . S
C2668 C2670 1.381 . S
C2668 C2674 1.383 . S
C2669 C2665 1.495 . S
C2669 H2675 0.959 . S
C2669 H2676 0.961 . S
C2669 H2677 0.960 . S
C2670 C2668 1.381 . S
C2670 C2671 1.394 . S
C2670 H2678 0.930 . S
C2671 C2670 1.394 . S
C2671 C2672 1.383 . S
C2671 H2679 0.929 . S
C2672 C2671 1.383 . S
C2672 C2673 1.377 . S
C2673 H2657 0.930 . S
C2673 C2672 1.377 . S
C2673 C2674 1.379 . S
C2674 H2658 0.931 . S
C2674 C2668 1.383 . S
C2674 C2673 1.379 . S
H2675 C2669 0.959 . S
H2676 C2669 0.961 . S
H2677 C2669 0.960 . S
H2678 C2670 0.930 . S
H2679 C2671 0.929 . S
H2680 C2688 0.929 . S
H2681 C2690 0.930 . S
H2682 C2692 0.930 . S
H2683 C2695 0.929 . S
H2684 C2698 0.930 . S
H2685 C2700 0.960 . S
H2686 C2700 0.960 . S
H2687 C2700 0.960 . S
C2688 H2680 0.929 . S
C2688 C2689 1.377 . S
C2688 C2690 1.384 . S
C2689 C2688 1.377 . S
C2689 C2695 1.390 . S
C2690 H2681 0.930 . S
C2690 C2688 1.384 . S
C2690 C2691 1.372 . S
C2691 C2690 1.372 . S
C2691 C2692 1.400 . S
C2691 C2696 1.490 . S
C2692 H2682 0.930 . S
C2692 C2691 1.400 . S
C2692 C2695 1.386 . S
H2693 C2709 0.930 . S
H2694 C2710 0.931 . S
C2695 H2683 0.929 . S
C2695 C2689 1.390 . S
C2695 C2692 1.386 . S
C2696 C2691 1.490 . S
C2696 C2698 1.395 . S
C2696 C2699 1.403 . S
H2697 C2703 0.930 . S
C2698 H2684 0.930 . S
C2698 C2696 1.395 . S
C2698 C2701 1.403 . S
C2699 C2696 1.403 . S
C2699 C2700 1.524 . S
C2699 C2703 1.400 . S
C2700 H2685 0.960 . S
C2700 H2686 0.960 . S
C2700 H2687 0.960 . S
C2700 C2699 1.524 . S
C2701 C2698 1.403 . S
C2701 C2702 1.392 . S
C2701 C2705 1.495 . S
C2702 C2701 1.392 . S
C2702 C2703 1.385 . S
C2702 C2704 1.478 . S
C2703 H2697 0.930 . S
C2703 C2699 1.400 . S
C2703 C2702 1.385 . S
C2704 C2702 1.478 . S
C2704 C2706 1.381 . S
C2704 C2710 1.383 . S
C2705 C2701 1.495 . S
C2705 H2711 0.959 . S
C2705 H2712 0.961 . S
C2705 H2713 0.960 . S
C2706 C2704 1.381 . S
C2706 C2707 1.394 . S
C2706 H2714 0.930 . S
C2707 C2706 1.394 . S
C2707 C2708 1.383 . S
C2707 H2715 0.929 . S
C2708 C2707 1.383 . S
C2708 C2709 1.377 . S
C2709 H2693 0.930 . S
C2709 C2708 1.377 . S
C2709 C2710 1.379 . S
C2710 H2694 0.931 . S
C2710 C2704 1.383 . S
C2710 C2709 1.379 . S
H2711 C2705 0.959 . S
H2712 C2705 0.961 . S
H2713 C2705 0.960 . S
H2714 C2706 0.930 . S
H2715 C2707 0.929 . S
H2716 C2724 0.929 . S
H2717 C2726 0.930 . S
H2718 C2728 0.930 . S
H2719 C2731 0.929 . S
H2720 C2734 0.930 . S
H2721 C2736 0.960 . S
H2722 C2736 0.960 . S
H2723 C2736 0.960 . S
C2724 H2716 0.929 . S
C2724 C2725 1.377 . S
C2724 C2726 1.384 . S
C2725 C2724 1.377 . S
C2725 C2731 1.390 . S
C2726 H2717 0.930 . S
C2726 C2724 1.384 . S
C2726 C2727 1.372 . S
C2727 C2726 1.372 . S
C2727 C2728 1.400 . S
C2727 C2732 1.490 . S
C2728 H2718 0.930 . S
C2728 C2727 1.400 . S
C2728 C2731 1.386 . S
H2729 C2745 0.930 . S
H2730 C2746 0.931 . S
C2731 H2719 0.929 . S
C2731 C2725 1.390 . S
C2731 C2728 1.386 . S
C2732 C2727 1.490 . S
C2732 C2734 1.395 . S
C2732 C2735 1.403 . S
H2733 C2739 0.930 . S
C2734 H2720 0.930 . S
C2734 C2732 1.395 . S
C2734 C2737 1.403 . S
C2735 C2732 1.403 . S
C2735 C2736 1.524 . S
C2735 C2739 1.400 . S
C2736 H2721 0.960 . S
C2736 H2722 0.960 . S
C2736 H2723 0.960 . S
C2736 C2735 1.524 . S
C2737 C2734 1.403 . S
C2737 C2738 1.392 . S
C2737 C2741 1.495 . S
C2738 C2737 1.392 . S
C2738 C2739 1.385 . S
C2738 C2740 1.478 . S
C2739 H2733 0.930 . S
C2739 C2735 1.400 . S
C2739 C2738 1.385 . S
C2740 C2738 1.478 . S
C2740 C2742 1.381 . S
C2740 C2746 1.383 . S
C2741 C2737 1.495 . S
C2741 H2747 0.959 . S
C2741 H2748 0.961 . S
C2741 H2749 0.960 . S
C2742 C2740 1.381 . S
C2742 C2743 1.394 . S
C2742 H2750 0.930 . S
C2743 C2742 1.394 . S
C2743 C2744 1.383 . S
C2743 H2751 0.929 . S
C2744 C2743 1.383 . S
C2744 C2745 1.377 . S
C2745 H2729 0.930 . S
C2745 C2744 1.377 . S
C2745 C2746 1.379 . S
C2746 H2730 0.931 . S
C2746 C2740 1.383 . S
C2746 C2745 1.379 . S
H2747 C2741 0.959 . S
H2748 C2741 0.961 . S
H2749 C2741 0.960 . S
H2750 C2742 0.930 . S
H2751 C2743 0.929 . S
C457 C411 1.581 . S
C476 C5 1.579 . S
C493 C19 1.581 . S
C512 C425 1.582 . S
C529 C439 1.581 . S
C548 C33 1.576 . S
C565 C397 1.582 . S
C584 C47 1.574 . S
C601 C61 1.581 . S
C620 C383 1.576 . S
C637 C341 1.582 . S
C656 C75 1.574 . S
C673 C89 1.581 . S
C692 C355 1.575 . S
C709 C369 1.581 . S
C728 C103 1.582 . S
C745 C117 1.582 . S
C764 C299 1.577 . S
C781 C131 1.582 . S
C800 C313 1.574 . S
C817 C327 1.582 . S
C836 C145 1.574 . S
C853 C159 1.582 . S
C872 C285 1.575 . S
C889 C271 1.581 . S
C908 C173 1.582 . S
C925 C229 1.582 . S
C944 C187 1.574 . S
C961 C201 1.582 . S
C980 C243 1.574 . S
C997 C215 1.582 . S
C1016 C257 1.579 . S
C1033 C0 1.366 . S
C1052 C140 1.342 . S
C1069 C154 1.366 . S
C1088 C14 1.359 . S
C1105 C112 1.362 . S
C1124 C28 1.378 . S
C1141 C126 1.358 . S
C1160 C42 1.371 . S
C1177 C56 1.363 . S
C1196 C196 1.376 . S
C1213 C210 1.365 . S
C1232 C70 1.365 . S
C1249 C168 1.363 . S
C1268 C84 1.374 . S
C1285 C182 1.359 . S
C1304 C98 1.360 . S
C1321 C224 1.363 . S
C1340 C364 1.341 . S
C1357 C378 1.362 . S
C1376 C238 1.344 . S
C1393 C336 1.366 . S
C1412 C252 1.355 . S
C1429 C266 1.360 . S
C1448 C350 1.379 . S
C1465 C280 1.361 . S
C1484 C420 1.346 . S
C1501 C434 1.367 . S
C1520 C294 1.349 . S
C1537 C392 1.367 . S
C1556 C308 1.349 . S
C1573 C322 1.365 . S
C1592 C406 1.366 . S
C1609 C11 1.484 . S
C1628 C67 1.482 . S
C1645 C25 1.481 . S
C1664 C81 1.469 . S
C1681 C95 1.482 . S
C1700 C39 1.490 . S
C1717 C53 1.483 . S
C1736 C109 1.465 . S
C1753 C123 1.479 . S
C1772 C179 1.465 . S
C1789 C193 1.479 . S
C1808 C137 1.466 . S
C1825 C207 1.480 . S
C1844 C151 1.469 . S
C1861 C165 1.481 . S
C1880 C221 1.475 . S
C1897 C235 1.479 . S
C1916 C291 1.482 . S
C1933 C305 1.479 . S
C1952 C249 1.481 . S
C1969 C263 1.482 . S
C1988 C319 1.467 . S
C2005 C333 1.482 . S
C2024 C277 1.468 . S
C2041 C403 1.484 . S
C2060 C347 1.490 . S
C2077 C361 1.480 . S
C2096 C417 1.467 . S
C2113 C375 1.483 . S
C2132 C431 1.484 . S
C2149 C389 1.484 . S
C2168 C445 1.490 . S
C2185 C9 1.360 . S
C2204 C79 1.359 . S
C2221 C23 1.362 . S
C2240 C93 1.364 . S
C2257 C107 1.360 . S
C2276 C37 1.352 . S
C2293 C65 1.360 . S
C2312 C51 1.355 . S
C2329 C191 1.361 . S
C2348 C121 1.360 . S
C2365 C205 1.362 . S
C2384 C135 1.357 . S
C2401 C219 1.360 . S
C2420 C149 1.360 . S
C2437 C163 1.362 . S
C2456 C177 1.354 . S
C2473 C233 1.360 . S
C2492 C303 1.359 . S
C2509 C317 1.361 . S
C2528 C247 1.363 . S
C2545 C331 1.360 . S
C2564 C261 1.352 . S
C2581 C275 1.360 . S
C2600 C289 1.353 . S
C2617 C415 1.362 . S
C2636 C345 1.357 . S
C2653 C359 1.360 . S
C2672 C429 1.362 . S
C2689 C373 1.362 . S
C2708 C443 1.356 . S
C2725 C401 1.361 . S
C2744 C387 1.355 . S
