# Generated by pormake.
# Topology rac, (4)-cn, num edge types: 1
# Building blocks:
#     Node 0, Type 0, BuildingBlock: ICAMEG_clean_sbu_1, # of connection points: 4
#     Node 1, Type 0, BuildingBlock: ICAMEG_clean_sbu_1, # of connection points: 4
#     Node 2, Type 0, BuildingBlock: ICAMEG_clean_sbu_1, # of connection points: 4
#     Node 3, Type 0, BuildingBlock: ICAMEG_clean_sbu_1, # of connection points: 4
#     Node 4, Type 0, BuildingBlock: ICAMEG_clean_sbu_1, # of connection points: 4
#     Node 5, Type 0, BuildingBlock: ICAMEG_clean_sbu_1, # of connection points: 4
#     Node 6, Type 0, BuildingBlock: ICAMEG_clean_sbu_1, # of connection points: 4
#     Node 7, Type 0, BuildingBlock: ICAMEG_clean_sbu_1, # of connection points: 4
#     Edge 8, Type (0, 0), BuildingBlock: TEMPAE_clean_linker_10, # of connection points: 2
#     Edge 9, Type (0, 0), BuildingBlock: TEMPAE_clean_linker_10, # of connection points: 2
#     Edge 10, Type (0, 0), BuildingBlock: TEMPAE_clean_linker_10, # of connection points: 2
#     Edge 11, Type (0, 0), BuildingBlock: TEMPAE_clean_linker_10, # of connection points: 2
#     Edge 12, Type (0, 0), BuildingBlock: TEMPAE_clean_linker_10, # of connection points: 2
#     Edge 13, Type (0, 0), BuildingBlock: TEMPAE_clean_linker_10, # of connection points: 2
#     Edge 14, Type (0, 0), BuildingBlock: TEMPAE_clean_linker_10, # of connection points: 2
#     Edge 15, Type (0, 0), BuildingBlock: TEMPAE_clean_linker_10, # of connection points: 2
#     Edge 16, Type (0, 0), BuildingBlock: TEMPAE_clean_linker_10, # of connection points: 2
#     Edge 17, Type (0, 0), BuildingBlock: TEMPAE_clean_linker_10, # of connection points: 2
#     Edge 18, Type (0, 0), BuildingBlock: TEMPAE_clean_linker_10, # of connection points: 2
#     Edge 19, Type (0, 0), BuildingBlock: TEMPAE_clean_linker_10, # of connection points: 2
#     Edge 20, Type (0, 0), BuildingBlock: TEMPAE_clean_linker_10, # of connection points: 2
#     Edge 21, Type (0, 0), BuildingBlock: TEMPAE_clean_linker_10, # of connection points: 2
#     Edge 22, Type (0, 0), BuildingBlock: TEMPAE_clean_linker_10, # of connection points: 2
#     Edge 23, Type (0, 0), BuildingBlock: TEMPAE_clean_linker_10, # of connection points: 2
# Relax obj value: 0.286
# Max RMSD: 0.139
# Mean RMSD: 0.139
data_MOF--net-rac--node1-ICAMEG_clean_sbu_1--edge1-TEMPAE_clean_linker_10
_symmetry_space_group_name_H-M    P1
_symmetry_Int_Tables_number       1
_symmetry_cell_setting            triclinic
loop_
_symmetry_equiv_pos_as_xyz
'x, y, z'
_cell_length_a     46.497726
_cell_length_b     20.709928
_cell_length_c     42.02291
_cell_angle_alpha  90.041834
_cell_angle_beta   89.927356
_cell_angle_gamma 90.021325
loop_
_atom_site_label
_atom_site_type_symbol
_atom_site_fract_x
_atom_site_fract_y
_atom_site_fract_z
_atom_type_partial_charge
Co0 Co 0.34605 0.2797 0.08631 0.0
Co1 Co 0.37986 0.25837 0.01542 0.0
O2 O 0.38096 0.28114 0.0606 0.0
C3 C 0.39457 0.24241 0.13096 0.0
O4 O 0.41423 0.2488 0.10878 0.0
C5 C 0.41367 0.38086 0.01374 0.0
O6 O 0.391 0.41108 0.02495 0.0
O7 O 0.35127 0.32804 0.00772 0.0
O8 O 0.32228 0.30762 0.04906 0.0
H9 H 0.33237 0.21324 0.91036 0.0
H10 H 0.39668 0.36205 0.10408 0.0
O11 O 0.36803 0.25187 0.12505 0.0
H12 H 0.3137 0.50957 0.10195 0.0
H13 H 0.28679 0.31251 0.18553 0.0
H14 H 0.2867 0.23185 0.07511 0.0
H15 H 0.30745 0.39421 0.08967 0.0
H16 H 0.33065 0.319 0.15264 0.0
O17 O 0.41274 0.3203 0.00814 0.0
H18 H 0.33369 0.23827 0.96773 0.0
H19 H 0.42502 0.23634 0.96624 0.0
H20 H 0.24237 0.22483 0.10707 0.0
H21 H 0.4038 0.47665 0.11673 0.0
H22 H 0.2422 0.26541 0.16272 0.0
H23 H 0.36213 0.5516 0.1157 0.0
O24 O 0.34037 0.18783 0.07476 0.0
H25 H 0.47076 0.16334 0.06 0.0
H26 H 0.38292 0.1188 0.99811 0.0
H27 H 0.41727 0.03062 0.00845 0.0
H28 H 0.4616 0.05267 0.03954 0.0
H29 H 0.4357 0.24993 0.04936 0.0
H30 H 0.4247 0.21175 0.90878 0.0
H31 H 0.37812 0.1998 0.8805 0.0
O32 O 0.34701 0.19542 0.0221 0.0
C33 C 0.32741 0.33455 0.02235 0.0
C34 C 0.3528 0.21812 0.92244 0.0
C35 C 0.40462 0.21737 0.92155 0.0
N36 N 0.37939 0.23821 0.97036 0.0
C37 C 0.35368 0.23211 0.95494 0.0
C38 C 0.40467 0.23141 0.95406 0.0
C39 C 0.37848 0.21065 0.90569 0.0
C40 C 0.37829 0.39351 0.10419 0.0
N41 N 0.35153 0.37042 0.09705 0.0
C42 C 0.38252 0.45881 0.11111 0.0
C43 C 0.35916 0.50087 0.11043 0.0
C44 C 0.332 0.47733 0.1027 0.0
C45 C 0.3286 0.41177 0.09587 0.0
C46 C 0.28658 0.29476 0.1613 0.0
C47 C 0.28682 0.24984 0.09924 0.0
C48 C 0.31138 0.2981 0.14258 0.0
N49 N 0.31125 0.27607 0.11189 0.0
C50 C 0.26164 0.24565 0.11726 0.0
C51 C 0.26157 0.26835 0.14848 0.0
C52 C 0.33655 0.16705 0.04657 0.0
C53 C 0.45151 0.1531 0.04643 0.0
C54 C 0.40204 0.12869 0.01189 0.0
C55 C 0.42147 0.0786 0.01755 0.0
C56 C 0.44635 0.09102 0.03497 0.0
N57 N 0.40723 0.18946 0.02325 0.0
C58 C 0.4316 0.20199 0.0403 0.0
Co59 Co 0.16649 0.73284 0.08926 0.0
Co60 Co 0.132 0.75132 0.0186 0.0
O61 O 0.13148 0.72971 0.06388 0.0
C62 C 0.11785 0.77083 0.13365 0.0
O63 O 0.09857 0.76561 0.11106 0.0
C64 C 0.09962 0.62753 0.01964 0.0
O65 O 0.12257 0.60043 0.03193 0.0
O66 O 0.1612 0.68302 0.01085 0.0
O67 O 0.19026 0.70464 0.05192 0.0
H68 H 0.17814 0.79637 0.9127 0.0
H69 H 0.11648 0.65022 0.10859 0.0
O70 O 0.14444 0.76083 0.12809 0.0
H71 H 0.19982 0.50374 0.10477 0.0
H72 H 0.22645 0.70363 0.18802 0.0
H73 H 0.22546 0.78224 0.07731 0.0
H74 H 0.20558 0.61917 0.09243 0.0
H75 H 0.18244 0.6953 0.15558 0.0
O76 O 0.09984 0.68727 0.01217 0.0
H77 H 0.17757 0.77272 0.97021 0.0
H78 H 0.08623 0.76953 0.9699 0.0
H79 H 0.26992 0.79118 0.10883 0.0
H80 H 0.10988 0.53557 0.12156 0.0
H81 H 0.27064 0.75162 0.16462 0.0
H82 H 0.15171 0.46116 0.11963 0.0
O83 O 0.17162 0.82457 0.07712 0.0
H84 H 0.0401 0.84245 0.06302 0.0
H85 H 0.12755 0.89039 0.00089 0.0
H86 H 0.09232 0.97697 0.01097 0.0
H87 H 0.04816 0.9532 0.04217 0.0
H88 H 0.07605 0.75752 0.05268 0.0
H89 H 0.08581 0.7927 0.91232 0.0
H90 H 0.13201 0.80652 0.88337 0.0
O91 O 0.16427 0.81599 0.02459 0.0
C92 C 0.18518 0.67744 0.02524 0.0
C93 C 0.15786 0.79068 0.92507 0.0
C94 C 0.10605 0.78853 0.92485 0.0
N95 N 0.13189 0.77034 0.97344 0.0
C96 C 0.15741 0.77747 0.95766 0.0
C97 C 0.10642 0.77531 0.95744 0.0
C98 C 0.13198 0.7963 0.90862 0.0
C99 C 0.13495 0.61895 0.10835 0.0
N100 N 0.16152 0.6423 0.10053 0.0
C101 C 0.13101 0.55366 0.11544 0.0
C102 C 0.15447 0.5119 0.11427 0.0
C103 C 0.18145 0.53575 0.10594 0.0
C104 C 0.18457 0.60131 0.09902 0.0
C105 C 0.22642 0.72095 0.16373 0.0
C106 C 0.22558 0.76472 0.10152 0.0
C107 C 0.20154 0.71654 0.14527 0.0
N108 N 0.20138 0.73802 0.1145 0.0
C109 C 0.25084 0.76999 0.11927 0.0
C110 C 0.25121 0.74786 0.15058 0.0
C111 C 0.17495 0.84494 0.04877 0.0
C112 C 0.05926 0.85344 0.04942 0.0
C113 C 0.10855 0.87978 0.01477 0.0
C114 C 0.0886 0.92895 0.02026 0.0
C115 C 0.06381 0.91557 0.03773 0.0
N116 N 0.10396 0.81897 0.02636 0.0
C117 C 0.07969 0.80549 0.04344 0.0
Co118 Co 0.34039 0.23608 0.40913 0.0
Co119 Co 0.37479 0.2531 0.47993 0.0
O120 O 0.37536 0.23227 0.43455 0.0
C121 C 0.38918 0.27418 0.36496 0.0
O122 O 0.40844 0.26818 0.38751 0.0
C123 C 0.4071 0.12901 0.4788 0.0
O124 O 0.38407 0.10169 0.46677 0.0
O125 O 0.34553 0.18474 0.48725 0.0
O126 O 0.31652 0.20741 0.4463 0.0
H127 H 0.32852 0.29627 0.58597 0.0
H128 H 0.3903 0.15324 0.38965 0.0
O129 O 0.36255 0.26455 0.37048 0.0
H130 H 0.30659 0.0076 0.39234 0.0
H131 H 0.28055 0.20925 0.31008 0.0
H132 H 0.28147 0.28564 0.42122 0.0
H133 H 0.30106 0.12285 0.40525 0.0
H134 H 0.32447 0.19988 0.34258 0.0
O135 O 0.40695 0.18888 0.4861 0.0
H136 H 0.32917 0.2737 0.52834 0.0
H137 H 0.4205 0.27036 0.5288 0.0
H138 H 0.2371 0.29561 0.38965 0.0
H139 H 0.39668 0.03878 0.37613 0.0
H140 H 0.23642 0.25718 0.33364 0.0
H141 H 0.35466 0.96478 0.37748 0.0
O142 O 0.33541 0.32764 0.4217 0.0
H143 H 0.46678 0.3449 0.43606 0.0
H144 H 0.37932 0.39182 0.49838 0.0
H145 H 0.41462 0.47852 0.48879 0.0
H146 H 0.45878 0.45527 0.45749 0.0
H147 H 0.43077 0.25984 0.44593 0.0
H148 H 0.42085 0.29245 0.5865 0.0
H149 H 0.37461 0.3058 0.61544 0.0
O150 O 0.34255 0.31797 0.47421 0.0
C151 C 0.32156 0.17956 0.4728 0.0
C152 C 0.34881 0.29078 0.5736 0.0
C153 C 0.40063 0.28855 0.57391 0.0
N154 N 0.37484 0.27131 0.52518 0.0
C155 C 0.34931 0.27818 0.54095 0.0
C156 C 0.40029 0.27594 0.54126 0.0
C157 C 0.37468 0.29605 0.59013 0.0
C158 C 0.37175 0.12218 0.38965 0.0
N159 N 0.3452 0.14568 0.39744 0.0
C160 C 0.37556 0.05697 0.38224 0.0
C161 C 0.352 0.01544 0.38309 0.0
C162 C 0.32504 0.03943 0.39141 0.0
C163 C 0.32205 0.1049 0.39865 0.0
C164 C 0.28057 0.22609 0.33447 0.0
C165 C 0.28137 0.26861 0.39693 0.0
C166 C 0.3054 0.22109 0.35297 0.0
N167 N 0.30554 0.24197 0.38385 0.0
C168 C 0.25616 0.27445 0.37914 0.0
C169 C 0.25581 0.25296 0.34771 0.0
C170 C 0.33196 0.34745 0.45015 0.0
C171 C 0.44762 0.35567 0.44971 0.0
C172 C 0.39833 0.38144 0.48446 0.0
C173 C 0.41832 0.43068 0.47925 0.0
C174 C 0.4431 0.41758 0.46172 0.0
N175 N 0.40288 0.32084 0.47255 0.0
C176 C 0.42716 0.30764 0.45541 0.0
Co177 Co 0.15994 0.77906 0.41157 0.0
Co178 Co 0.12646 0.75996 0.48281 0.0
O179 O 0.12515 0.78126 0.43748 0.0
C180 C 0.11119 0.74022 0.36752 0.0
O181 O 0.09166 0.74719 0.38979 0.0
C182 C 0.09272 0.88243 0.48327 0.0
O183 O 0.11522 0.91153 0.47098 0.0
O184 O 0.15512 0.82984 0.48984 0.0
O185 O 0.18391 0.80817 0.44848 0.0
H186 H 0.1745 0.71808 0.58785 0.0
H187 H 0.10925 0.86071 0.39333 0.0
O188 O 0.13775 0.75 0.37317 0.0
H189 H 0.19216 0.00862 0.39461 0.0
H190 H 0.21864 0.80895 0.31175 0.0
H191 H 0.21935 0.73162 0.42269 0.0
H192 H 0.1985 0.89355 0.40735 0.0
H193 H 0.17498 0.81642 0.3449 0.0
O194 O 0.09369 0.82232 0.4899 0.0
H195 H 0.17289 0.74132 0.53033 0.0
H196 H 0.08156 0.73959 0.53245 0.0
H197 H 0.26349 0.72362 0.39045 0.0
H198 H 0.10207 0.97495 0.38006 0.0
H199 H 0.26335 0.76252 0.33454 0.0
H200 H 0.14369 0.05011 0.38069 0.0
O201 O 0.16569 0.68758 0.42371 0.0
H202 H 0.03518 0.66387 0.43964 0.0
H203 H 0.12341 0.62093 0.50104 0.0
H204 H 0.08893 0.53255 0.49157 0.0
H205 H 0.04439 0.55379 0.46073 0.0
H206 H 0.07038 0.75068 0.44941 0.0
H207 H 0.08218 0.71679 0.59006 0.0
H208 H 0.12891 0.70565 0.61811 0.0
O209 O 0.15926 0.69669 0.47635 0.0
C210 C 0.1789 0.83595 0.47502 0.0
C211 C 0.15401 0.72261 0.57587 0.0
C212 C 0.10219 0.72197 0.57712 0.0
N213 N 0.12716 0.74123 0.528 0.0
C214 C 0.15296 0.73558 0.54328 0.0
C215 C 0.10198 0.735 0.54452 0.0
C216 C 0.12842 0.71571 0.59284 0.0
C217 C 0.12763 0.89223 0.39301 0.0
N218 N 0.1544 0.86944 0.40025 0.0
C219 C 0.12336 0.95734 0.38575 0.0
C220 C 0.1467 0.99952 0.38619 0.0
C221 C 0.17389 0.97628 0.394 0.0
C222 C 0.17733 0.91089 0.40113 0.0
C223 C 0.21899 0.79193 0.3361 0.0
C224 C 0.21909 0.74887 0.39844 0.0
C225 C 0.1943 0.79584 0.35496 0.0
N226 N 0.19461 0.77472 0.38579 0.0
C227 C 0.24417 0.74414 0.38027 0.0
C228 C 0.24407 0.7659 0.3489 0.0
C229 C 0.16966 0.66766 0.45201 0.0
C230 C 0.05451 0.65399 0.4531 0.0
C231 C 0.10422 0.63046 0.48736 0.0
C232 C 0.0847 0.58027 0.48219 0.0
C233 C 0.0597 0.59223 0.46492 0.0
N234 N 0.09899 0.6909 0.47565 0.0
C235 C 0.07451 0.70299 0.45874 0.0
Co236 Co 0.67279 0.7118 0.91206 0.0
Co237 Co 0.63566 0.74304 0.98033 0.0
O238 O 0.63639 0.71696 0.93533 0.0
C239 C 0.6286 0.75349 0.8629 0.0
O240 O 0.60797 0.75882 0.88407 0.0
C241 C 0.59891 0.62652 0.97691 0.0
O242 O 0.61933 0.6004 0.9596 0.0
O243 O 0.6625 0.67167 0.99126 0.0
O244 O 0.69383 0.68555 0.95144 0.0
H245 H 0.67934 0.79528 0.0866 0.0
H246 H 0.62199 0.6365 0.88938 0.0
O247 O 0.65396 0.73749 0.87115 0.0
H248 H 0.69897 0.47618 0.90416 0.0
H249 H 0.737 0.65886 0.8189 0.0
H250 H 0.73229 0.75515 0.92612 0.0
H251 H 0.70773 0.59112 0.91596 0.0
H252 H 0.69114 0.66213 0.84835 0.0
O253 O 0.60196 0.68357 0.98784 0.0
H254 H 0.68004 0.76461 0.02988 0.0
H255 H 0.58882 0.77274 0.02657 0.0
H256 H 0.77861 0.7523 0.89762 0.0
H257 H 0.61245 0.52241 0.87727 0.0
H258 H 0.7812 0.70383 0.8436 0.0
H259 H 0.6511 0.44112 0.88474 0.0
O260 O 0.68001 0.80393 0.92185 0.0
H261 H 0.54817 0.83907 0.92869 0.0
H262 H 0.63371 0.88433 0.99428 0.0
H263 H 0.60104 0.97344 0.97999 0.0
H264 H 0.55786 0.95104 0.94702 0.0
H265 H 0.58157 0.7515 0.94329 0.0
H266 H 0.58711 0.80295 0.08333 0.0
H267 H 0.63262 0.81467 0.1137 0.0
O268 O 0.66958 0.80346 0.97398 0.0
C269 C 0.68702 0.66261 0.97855 0.0
C270 C 0.65937 0.79052 0.0736 0.0
C271 C 0.60761 0.79475 0.07177 0.0
N272 N 0.63452 0.7674 0.02487 0.0
C273 C 0.65964 0.77334 0.04145 0.0
C274 C 0.6087 0.77749 0.03966 0.0
C275 C 0.63315 0.80133 0.08879 0.0
C276 C 0.63913 0.60201 0.89216 0.0
N277 N 0.66555 0.62111 0.90283 0.0
C278 C 0.63349 0.53714 0.88553 0.0
C279 C 0.65514 0.49154 0.88984 0.0
C280 C 0.682 0.51119 0.90085 0.0
C281 C 0.6868 0.57642 0.90744 0.0
C282 C 0.73616 0.67999 0.84245 0.0
C283 C 0.73322 0.7337 0.9027 0.0
C284 C 0.71023 0.68216 0.85922 0.0
N285 N 0.70902 0.70847 0.88905 0.0
C286 C 0.75952 0.73234 0.88664 0.0
C287 C 0.76095 0.70521 0.85632 0.0
C288 C 0.68206 0.82807 0.94964 0.0
C289 C 0.5669 0.84945 0.94308 0.0
C290 C 0.61509 0.87425 0.97972 0.0
C291 C 0.59661 0.92488 0.97181 0.0
C292 C 0.57237 0.91227 0.95334 0.0
N293 N 0.6096 0.81277 0.96953 0.0
C294 C 0.58586 0.80003 0.95148 0.0
Co295 Co 0.85626 0.26994 0.91731 0.0
Co296 Co 0.88256 0.24868 0.99227 0.0
O297 O 0.88823 0.26694 0.94705 0.0
C298 C 0.87811 0.19249 0.86341 0.0
O299 O 0.85649 0.15282 0.86828 0.0
C300 C 0.91771 0.36675 0.98958 0.0
O301 O 0.89827 0.38841 0.96967 0.0
O302 O 0.85396 0.31959 0.99576 0.0
O303 O 0.82936 0.30323 0.95071 0.0
H304 H 0.82486 0.21221 0.09184 0.0
H305 H 0.91071 0.33573 0.89949 0.0
O306 O 0.88275 0.23822 0.88304 0.0
H307 H 0.83684 0.5065 0.89909 0.0
H308 H 0.80915 0.31556 0.81161 0.0
H309 H 0.79522 0.22869 0.91978 0.0
H310 H 0.82385 0.39418 0.91193 0.0
H311 H 0.84916 0.31484 0.85002 0.0
O312 O 0.91458 0.3113 0.00236 0.0
H313 H 0.8319 0.23254 0.03453 0.0
H314 H 0.92254 0.23029 0.04683 0.0
H315 H 0.75458 0.22888 0.88217 0.0
H316 H 0.92448 0.44716 0.8856 0.0
H317 H 0.76141 0.27248 0.82763 0.0
H318 H 0.88746 0.53358 0.8856 0.0
O319 O 0.84597 0.18012 0.9294 0.0
H320 H 0.97612 0.14818 0.95852 0.0
H321 H 0.88352 0.11099 0.01285 0.0
H322 H 0.91819 0.02142 0.00787 0.0
H323 H 0.96493 0.03984 0.98064 0.0
H324 H 0.9407 0.23622 0.96377 0.0
H325 H 0.91649 0.2104 0.10434 0.0
H326 H 0.86736 0.20099 0.12716 0.0
O327 O 0.85026 0.18601 0.98263 0.0
C328 C 0.83187 0.32812 0.97836 0.0
C329 C 0.84637 0.21598 0.08216 0.0
C330 C 0.8978 0.21506 0.08918 0.0
N331 N 0.87759 0.23202 0.03733 0.0
C332 C 0.85049 0.22729 0.04971 0.0
C333 C 0.9011 0.22644 0.05662 0.0
C334 C 0.87023 0.20976 0.10197 0.0
C335 C 0.89436 0.37279 0.89901 0.0
N336 N 0.86648 0.35824 0.90642 0.0
C337 C 0.90233 0.43593 0.89134 0.0
C338 C 0.88157 0.48442 0.89141 0.0
C339 C 0.85318 0.46928 0.89902 0.0
C340 C 0.84598 0.40559 0.90648 0.0
C341 C 0.80588 0.29649 0.83532 0.0
C342 C 0.79838 0.24784 0.89612 0.0
C343 C 0.82847 0.29589 0.85718 0.0
N344 N 0.82457 0.27165 0.88715 0.0
C345 C 0.77527 0.24782 0.87491 0.0
C346 C 0.77911 0.27229 0.84432 0.0
C347 C 0.84058 0.15925 0.95731 0.0
C348 C 0.95586 0.13961 0.97051 0.0
C349 C 0.90376 0.11929 0.00085 0.0
C350 C 0.92334 0.06844 0.99817 0.0
C351 C 0.94956 0.07881 0.9829 0.0
N352 N 0.91017 0.17885 0.98877 0.0
C353 C 0.93576 0.18933 0.97364 0.0
Co354 Co 0.65858 0.79323 0.57742 0.0
Co355 Co 0.62538 0.75337 0.50785 0.0
O356 O 0.62397 0.78278 0.55202 0.0
C357 C 0.62645 0.71901 0.62803 0.0
O358 O 0.62982 0.66413 0.61281 0.0
C359 C 0.58992 0.87115 0.50749 0.0
O360 O 0.61079 0.89759 0.52394 0.0
O361 O 0.65318 0.82309 0.49668 0.0
O362 O 0.68193 0.81732 0.53933 0.0
H363 H 0.6734 0.69034 0.40524 0.0
H364 H 0.60559 0.86251 0.59694 0.0
O365 O 0.63605 0.7715 0.61646 0.0
H366 H 0.67826 0.03261 0.58068 0.0
H367 H 0.71423 0.86093 0.67468 0.0
H368 H 0.71982 0.75587 0.56953 0.0
H369 H 0.69064 0.91799 0.57195 0.0
H370 H 0.67087 0.84943 0.64146 0.0
O371 O 0.59227 0.813 0.49775 0.0
H372 H 0.6718 0.72598 0.46125 0.0
H373 H 0.5805 0.7212 0.45991 0.0
H374 H 0.76375 0.7671 0.60178 0.0
H375 H 0.59248 0.9763 0.60607 0.0
H376 H 0.76115 0.82 0.65479 0.0
H377 H 0.62896 0.06228 0.59776 0.0
O378 O 0.66857 0.70132 0.5698 0.0
H379 H 0.53648 0.66247 0.55911 0.0
H380 H 0.62312 0.61142 0.49615 0.0
H381 H 0.58986 0.52381 0.51126 0.0
H382 H 0.54613 0.54916 0.5429 0.0
H383 H 0.57046 0.74851 0.54372 0.0
H384 H 0.58109 0.686 0.4038 0.0
H385 H 0.6278 0.67009 0.37615 0.0
O386 O 0.65869 0.69331 0.51749 0.0
C387 C 0.67684 0.83467 0.5108 0.0
C388 C 0.65291 0.69692 0.41706 0.0
C389 C 0.6011 0.69458 0.41624 0.0
N390 N 0.62609 0.7252 0.46386 0.0
C391 C 0.65188 0.71693 0.44879 0.0
C392 C 0.6009 0.71466 0.44797 0.0
C393 C 0.62732 0.68563 0.40074 0.0
C394 C 0.6217 0.89952 0.5936 0.0
N395 N 0.6489 0.88348 0.58404 0.0
C396 C 0.61409 0.96394 0.59864 0.0
C397 C 0.63454 0.01215 0.5939 0.0
C398 C 0.66222 0.99549 0.5842 0.0
C399 C 0.66906 0.93056 0.57925 0.0
C400 C 0.71566 0.83791 0.6516 0.0
C401 C 0.7185 0.77923 0.59247 0.0
C402 C 0.69115 0.83106 0.63271 0.0
N403 N 0.69281 0.80234 0.60346 0.0
C404 C 0.74346 0.78532 0.61068 0.0
C405 C 0.74197 0.81494 0.64042 0.0
C406 C 0.67095 0.67317 0.54291 0.0
C407 C 0.55541 0.65085 0.54523 0.0
C408 C 0.60417 0.62281 0.50998 0.0
C409 C 0.58539 0.57302 0.51841 0.0
C410 C 0.56086 0.58727 0.53616 0.0
N411 N 0.59862 0.68507 0.51887 0.0
C412 C 0.57467 0.6994 0.53636 0.0
Co413 Co 0.83974 0.22029 0.59055 0.0
Co414 Co 0.87153 0.24775 0.5183 0.0
O415 O 0.87407 0.22656 0.56382 0.0
C416 C 0.88649 0.27202 0.63431 0.0
O417 O 0.9061 0.27238 0.61182 0.0
C418 C 0.9088 0.13235 0.52176 0.0
O419 O 0.88932 0.1079 0.54087 0.0
O420 O 0.84445 0.17496 0.51105 0.0
O421 O 0.81677 0.18528 0.55429 0.0
H422 H 0.82061 0.2868 0.4147 0.0
H423 H 0.89424 0.15373 0.61017 0.0
O424 O 0.86073 0.25489 0.62851 0.0
H425 H 0.82022 0.98376 0.60827 0.0
H426 H 0.78451 0.17438 0.6913 0.0
H427 H 0.77827 0.25312 0.5808 0.0
H428 H 0.8078 0.09582 0.59459 0.0
H429 H 0.82776 0.17884 0.65741 0.0
O430 O 0.90502 0.18816 0.50962 0.0
H431 H 0.82387 0.26273 0.47205 0.0
H432 H 0.915 0.27368 0.4677 0.0
H433 H 0.73442 0.24872 0.61377 0.0
H434 H 0.9074 0.04295 0.6248 0.0
H435 H 0.73737 0.2091 0.66945 0.0
H436 H 0.87031 0.95666 0.62378 0.0
O437 O 0.82914 0.30962 0.57856 0.0
H438 H 0.96174 0.35117 0.56 0.0
H439 H 0.87163 0.38739 0.50091 0.0
H440 H 0.90465 0.47867 0.51016 0.0
H441 H 0.95012 0.4608 0.53983 0.0
H442 H 0.92796 0.26138 0.55047 0.0
H443 H 0.91276 0.29737 0.41023 0.0
H444 H 0.86529 0.3043 0.38339 0.0
O445 O 0.83778 0.30789 0.52598 0.0
C446 C 0.82158 0.16268 0.52657 0.0
C447 C 0.84142 0.28416 0.42615 0.0
C448 C 0.89314 0.29 0.42363 0.0
N449 N 0.86958 0.26743 0.47325 0.0
C450 C 0.84339 0.27076 0.45864 0.0
C451 C 0.89428 0.27647 0.45616 0.0
C452 C 0.8665 0.2939 0.40858 0.0
C453 C 0.87773 0.11737 0.61042 0.0
N454 N 0.85011 0.13216 0.60209 0.0
C455 C 0.88542 0.05424 0.6184 0.0
C456 C 0.86464 0.00581 0.61771 0.0
C457 C 0.83656 0.02097 0.60899 0.0
C458 C 0.82967 0.08463 0.60116 0.0
C459 C 0.78293 0.19159 0.66705 0.0
C460 C 0.77972 0.23547 0.60494 0.0
C461 C 0.80737 0.19442 0.64775 0.0
N462 N 0.80553 0.21579 0.61703 0.0
C463 C 0.75482 0.23324 0.62352 0.0
C464 C 0.75649 0.21107 0.65477 0.0
C465 C 0.82576 0.33239 0.55065 0.0
C466 C 0.942 0.35956 0.54703 0.0
C467 C 0.89125 0.37931 0.51407 0.0
C468 C 0.90993 0.43115 0.51912 0.0
C469 C 0.93545 0.42108 0.53573 0.0
N470 N 0.89782 0.31913 0.52524 0.0
C471 C 0.92281 0.30887 0.54151 0.0
C472 C 0.29283 0.12442 0.01963 0.0
C473 C 0.31481 0.11588 0.04202 0.0
C474 C 0.26931 0.08184 0.01834 0.0
C475 C 0.26829 0.02818 0.03921 0.0
C476 C 0.29123 0.01769 0.0608 0.0
C477 C 0.3139 0.06249 0.06243 0.0
C478 C 0.24488 0.09613 0.99578 0.0
C479 C 0.2915 0.95992 0.08271 0.0
C480 C 0.19766 0.94989 0.06397 0.0
C481 C 0.19644 0.89643 0.0436 0.0
C482 C 0.22023 0.99487 0.06173 0.0
C483 C 0.24274 0.9845 0.03951 0.0
C484 C 0.24138 0.93082 0.01865 0.0
C485 C 0.21797 0.88805 0.02058 0.0
C486 C 0.22032 0.05266 0.08367 0.0
C487 C 0.26536 0.91666 0.99542 0.0
H488 H 0.29322 0.16653 0.0043 0.0
H489 H 0.33086 0.05612 0.07984 0.0
H490 H 0.24048 0.0537 0.98044 0.0
H491 H 0.22501 0.10598 0.00962 0.0
H492 H 0.24943 0.13844 0.98034 0.0
H493 H 0.31221 0.95513 0.09564 0.0
H494 H 0.27394 0.96433 0.10047 0.0
H495 H 0.2876 0.91496 0.06899 0.0
H496 H 0.18107 0.95614 0.08186 0.0
H497 H 0.21734 0.8459 0.00526 0.0
H498 H 0.224 0.09761 0.06988 0.0
H499 H 0.23817 0.04824 0.10101 0.0
H500 H 0.19983 0.05745 0.09707 0.0
H501 H 0.26946 0.95916 0.98004 0.0
H502 H 0.26053 0.8744 0.98003 0.0
H503 H 0.2855 0.90677 0.00872 0.0
C504 C 0.19268 0.56339 0.43623 0.0
C505 C 0.19145 0.61664 0.45676 0.0
C506 C 0.21546 0.5189 0.43797 0.0
C507 C 0.23818 0.52951 0.45984 0.0
C508 C 0.23683 0.58295 0.48086 0.0
C509 C 0.21322 0.62525 0.47943 0.0
C510 C 0.21554 0.46137 0.41586 0.0
C511 C 0.26101 0.59736 0.50373 0.0
C512 C 0.28875 0.38978 0.47832 0.0
C513 C 0.3104 0.39874 0.45549 0.0
C514 C 0.26524 0.43226 0.48026 0.0
C515 C 0.26388 0.48625 0.45963 0.0
C516 C 0.28652 0.49723 0.43764 0.0
C517 C 0.3092 0.45254 0.43537 0.0
C518 C 0.24113 0.41742 0.50322 0.0
C519 C 0.28644 0.55532 0.41595 0.0
H520 H 0.17591 0.55693 0.41861 0.0
H521 H 0.2126 0.66723 0.49486 0.0
H522 H 0.23322 0.46627 0.3983 0.0
H523 H 0.21946 0.41632 0.42948 0.0
H524 H 0.19495 0.45638 0.40271 0.0
H525 H 0.25617 0.63932 0.51933 0.0
H526 H 0.26544 0.55476 0.51892 0.0
H527 H 0.28095 0.60785 0.49014 0.0
H528 H 0.28936 0.34738 0.49343 0.0
H529 H 0.32588 0.45925 0.41762 0.0
H530 H 0.22115 0.40719 0.48971 0.0
H531 H 0.23674 0.45972 0.51867 0.0
H532 H 0.24602 0.37517 0.51856 0.0
H533 H 0.26875 0.55087 0.3984 0.0
H534 H 0.30703 0.56064 0.40277 0.0
H535 H 0.28252 0.60002 0.42988 0.0
C536 C 0.7225 0.87792 0.97995 0.0
C537 C 0.70322 0.88054 0.95436 0.0
C538 C 0.74532 0.92224 0.98243 0.0
C539 C 0.74833 0.9717 0.95937 0.0
C540 C 0.72809 0.97612 0.93426 0.0
C541 C 0.70614 0.92968 0.9317 0.0
C542 C 0.76692 0.9144 0.00894 0.0
C543 C 0.72988 0.0293 0.90977 0.0
C544 C 0.79425 0.11879 0.97923 0.0
C545 C 0.81867 0.10805 0.96039 0.0
C546 C 0.7712 0.07483 0.97921 0.0
C547 C 0.77311 0.01759 0.96082 0.0
C548 C 0.79836 0.00537 0.94281 0.0
C549 C 0.82056 0.05153 0.94222 0.0
C550 C 0.74431 0.09106 0.99772 0.0
C551 C 0.80174 0.944 0.92376 0.0
H552 H 0.72059 0.83918 0.99717 0.0
H553 H 0.69126 0.93162 0.91187 0.0
H554 H 0.7885 0.90469 0.99867 0.0
H555 H 0.76858 0.95962 0.02296 0.0
H556 H 0.76122 0.87426 0.0253 0.0
H557 H 0.71099 0.02958 0.89361 0.0
H558 H 0.73138 0.07702 0.9217 0.0
H559 H 0.74959 0.02324 0.89519 0.0
H560 H 0.79259 0.16325 0.99276 0.0
H561 H 0.83942 0.04354 0.92754 0.0
H562 H 0.73907 0.05169 0.01463 0.0
H563 H 0.72587 0.09555 0.98112 0.0
H564 H 0.74644 0.13691 0.01126 0.0
H565 H 0.79711 0.90137 0.93892 0.0
H566 H 0.82372 0.93891 0.91366 0.0
H567 H 0.78607 0.94346 0.90389 0.0
C568 C 0.68789 0.56098 0.55397 0.0
C569 C 0.69258 0.62153 0.54021 0.0
C570 C 0.70952 0.51343 0.55352 0.0
C571 C 0.73676 0.52782 0.53997 0.0
C572 C 0.74141 0.58918 0.52595 0.0
C573 C 0.7191 0.63497 0.52586 0.0
C574 C 0.7034 0.44818 0.568 0.0
C575 C 0.77028 0.60739 0.51213 0.0
C576 C 0.79987 0.42964 0.57149 0.0
C577 C 0.80478 0.38578 0.54662 0.0
C578 C 0.77839 0.47717 0.56921 0.0
C579 C 0.76074 0.47982 0.54178 0.0
C580 C 0.76575 0.43595 0.51646 0.0
C581 C 0.78796 0.39005 0.519 0.0
C582 C 0.77438 0.5241 0.59638 0.0
C583 C 0.74704 0.43607 0.48714 0.0
H584 H 0.66734 0.551 0.56518 0.0
H585 H 0.72272 0.68235 0.51561 0.0
H586 H 0.70882 0.40932 0.55081 0.0
H587 H 0.71707 0.44098 0.58931 0.0
H588 H 0.68051 0.44287 0.57516 0.0
H589 H 0.77023 0.65662 0.50164 0.0
H590 H 0.78692 0.60549 0.53101 0.0
H591 H 0.77666 0.57234 0.49345 0.0
H592 H 0.81284 0.42668 0.59287 0.0
H593 H 0.79138 0.35574 0.49988 0.0
H594 H 0.75297 0.51673 0.60747 0.0
H595 H 0.77506 0.57446 0.58739 0.0
H596 H 0.79109 0.51845 0.61503 0.0
H597 H 0.72441 0.42604 0.49397 0.0
H598 H 0.75396 0.39945 0.46938 0.0
H599 H 0.74744 0.48433 0.47574 0.0
C600 C 0.42351 0.28028 0.17708 0.0
C601 C 0.40291 0.23792 0.16462 0.0
C602 C 0.42656 0.28792 0.21015 0.0
C603 C 0.40906 0.25108 0.23095 0.0
C604 C 0.38993 0.20442 0.21828 0.0
C605 C 0.38672 0.19927 0.18523 0.0
C606 C 0.4467 0.33911 0.22266 0.0
C607 C 0.37143 0.16288 0.2396 0.0
C608 C 0.42111 0.24097 0.3202 0.0
C609 C 0.39823 0.27868 0.33145 0.0
C610 C 0.42592 0.23368 0.28737 0.0
C611 C 0.40784 0.26623 0.26554 0.0
C612 C 0.38614 0.3083 0.27701 0.0
C613 C 0.38129 0.31311 0.30984 0.0
C614 C 0.44881 0.18731 0.27613 0.0
C615 C 0.36687 0.34528 0.25457 0.0
H616 H 0.43564 0.311 0.16106 0.0
H617 H 0.37071 0.16674 0.17546 0.0
H618 H 0.43392 0.38076 0.23141 0.0
H619 H 0.45939 0.3206 0.24303 0.0
H620 H 0.46174 0.35664 0.204 0.0
H621 H 0.36086 0.12308 0.22627 0.0
H622 H 0.38449 0.14173 0.25905 0.0
H623 H 0.35444 0.19299 0.25074 0.0
H624 H 0.43393 0.21353 0.33696 0.0
H625 H 0.36358 0.34222 0.31862 0.0
H626 H 0.46165 0.20875 0.25654 0.0
H627 H 0.43839 0.14311 0.26663 0.0
H628 H 0.46357 0.17303 0.29566 0.0
H629 H 0.37983 0.36958 0.2359 0.0
H630 H 0.35381 0.38223 0.26719 0.0
H631 H 0.35201 0.31134 0.24245 0.0
C632 C 0.08276 0.779 0.32129 0.0
C633 C 0.10267 0.73531 0.33394 0.0
C634 C 0.07993 0.78639 0.2882 0.0
C635 C 0.09692 0.74797 0.26757 0.0
C636 C 0.11523 0.69997 0.28043 0.0
C637 C 0.11828 0.69508 0.31351 0.0
C638 C 0.06067 0.83901 0.27549 0.0
C639 C 0.13315 0.65676 0.2593 0.0
C640 C 0.08531 0.73918 0.17818 0.0
C641 C 0.1088 0.77527 0.16718 0.0
C642 C 0.08022 0.73197 0.21097 0.0
C643 C 0.09867 0.76295 0.233 0.0
C644 C 0.12109 0.80337 0.22179 0.0
C645 C 0.12616 0.80816 0.18901 0.0
C646 C 0.05653 0.68737 0.22194 0.0
C647 C 0.1408 0.83866 0.24446 0.0
H648 H 0.07111 0.81094 0.33719 0.0
H649 H 0.13378 0.66156 0.32343 0.0
H650 H 0.07415 0.87965 0.26687 0.0
H651 H 0.04787 0.82139 0.255 0.0
H652 H 0.04577 0.85772 0.29401 0.0
H653 H 0.14289 0.61612 0.27274 0.0
H654 H 0.11987 0.63669 0.23972 0.0
H655 H 0.15074 0.68531 0.24833 0.0
H656 H 0.07214 0.71294 0.16127 0.0
H657 H 0.14433 0.83605 0.18043 0.0
H658 H 0.0439 0.70975 0.24144 0.0
H659 H 0.06619 0.64237 0.23148 0.0
H660 H 0.0417 0.67427 0.20225 0.0
H661 H 0.12812 0.86408 0.26301 0.0
H662 H 0.15461 0.87445 0.23201 0.0
H663 H 0.15496 0.80346 0.2567 0.0
C664 C 0.59435 0.74506 0.81683 0.0
C665 C 0.62226 0.75535 0.82841 0.0
C666 C 0.58929 0.73793 0.78397 0.0
C667 C 0.6127 0.74147 0.76242 0.0
C668 C 0.64071 0.75412 0.774 0.0
C669 C 0.64511 0.7609 0.80676 0.0
C670 C 0.55915 0.72472 0.77242 0.0
C671 C 0.66627 0.75911 0.75186 0.0
C672 C 0.61683 0.66566 0.68054 0.0
C673 C 0.61581 0.72073 0.66124 0.0
C674 C 0.61325 0.67073 0.71369 0.0
C675 C 0.60851 0.73221 0.72762 0.0
C676 C 0.60472 0.78675 0.70786 0.0
C677 C 0.6084 0.78034 0.67493 0.0
C678 C 0.61713 0.61126 0.73396 0.0
C679 C 0.59948 0.8531 0.72162 0.0
H680 H 0.57664 0.74021 0.83345 0.0
H681 H 0.66672 0.76929 0.81549 0.0
H682 H 0.55319 0.75937 0.75342 0.0
H683 H 0.5581 0.67562 0.76191 0.0
H684 H 0.54304 0.72799 0.7919 0.0
H685 H 0.68657 0.76996 0.76473 0.0
H686 H 0.66909 0.71306 0.7387 0.0
H687 H 0.66257 0.79761 0.73398 0.0
H688 H 0.62239 0.61941 0.67012 0.0
H689 H 0.60709 0.82304 0.66008 0.0
H690 H 0.6006 0.60933 0.75299 0.0
H691 H 0.63849 0.61309 0.74567 0.0
H692 H 0.61588 0.56622 0.71965 0.0
H693 H 0.58313 0.85119 0.74084 0.0
H694 H 0.59223 0.88795 0.70321 0.0
H695 H 0.61973 0.87159 0.73222 0.0
C696 C 0.87444 0.29719 0.69034 0.0
C697 C 0.89472 0.27535 0.66814 0.0
C698 C 0.87796 0.28544 0.7229 0.0
C699 C 0.90224 0.25021 0.73348 0.0
C700 C 0.92389 0.23228 0.71143 0.0
C701 C 0.91992 0.24537 0.67888 0.0
C702 C 0.85456 0.30652 0.74563 0.0
C703 C 0.95006 0.19479 0.72178 0.0
C704 C 0.90825 0.25078 0.82323 0.0
C705 C 0.89098 0.19741 0.83117 0.0
C706 C 0.9142 0.26604 0.79136 0.0
C707 C 0.90287 0.22664 0.76691 0.0
C708 C 0.88801 0.16912 0.7749 0.0
C709 C 0.8822 0.15523 0.80695 0.0
C710 C 0.93028 0.32753 0.78392 0.0
C711 C 0.87599 0.12514 0.7495 0.0
H712 H 0.85494 0.32039 0.682 0.0
H713 H 0.93546 0.22769 0.6617 0.0
H714 H 0.8429 0.26347 0.75464 0.0
H715 H 0.86396 0.3317 0.76648 0.0
H716 H 0.83873 0.33919 0.73413 0.0
H717 H 0.96717 0.19524 0.7033 0.0
H718 H 0.95897 0.21455 0.74424 0.0
H719 H 0.94385 0.14389 0.72632 0.0
H720 H 0.91546 0.28344 0.84174 0.0
H721 H 0.86916 0.11349 0.81281 0.0
H722 H 0.91474 0.36514 0.77634 0.0
H723 H 0.94567 0.32008 0.76407 0.0
H724 H 0.94221 0.34597 0.80495 0.0
H725 H 0.85746 0.14908 0.73777 0.0
H726 H 0.86853 0.07834 0.75944 0.0
H727 H 0.89239 0.11548 0.73091 0.0
C728 C 0.44005 0.48104 0.99765 0.0
C729 C 0.44074 0.41694 0.00828 0.0
C730 C 0.46563 0.51556 0.99203 0.0
C731 C 0.49253 0.48609 0.99841 0.0
C732 C 0.49325 0.4217 0.00979 0.0
C733 C 0.46739 0.38751 0.01399 0.0
C734 C 0.46387 0.58321 0.97881 0.0
C735 C 0.52134 0.38915 0.01794 0.0
C736 C 0.56095 0.5491 0.95915 0.0
C737 C 0.57184 0.59062 0.98258 0.0
C738 C 0.5349 0.51586 0.96373 0.0
C739 C 0.5199 0.52238 0.99294 0.0
C740 C 0.53114 0.56345 0.01692 0.0
C741 C 0.55668 0.59806 0.0112 0.0
C742 C 0.52323 0.47446 0.93712 0.0
C743 C 0.5164 0.57014 0.04878 0.0
H744 H 0.41947 0.50373 0.99302 0.0
H745 H 0.46797 0.33813 0.0225 0.0
H746 H 0.47352 0.61795 0.99581 0.0
H747 H 0.47639 0.58639 0.95636 0.0
H748 H 0.44137 0.59824 0.97396 0.0
H749 H 0.51814 0.34007 0.028 0.0
H750 H 0.53498 0.38508 0.99637 0.0
H751 H 0.53336 0.41879 0.03548 0.0
H752 H 0.57249 0.54382 0.93686 0.0
H753 H 0.56516 0.62989 0.02941 0.0
H754 H 0.50113 0.49025 0.93093 0.0
H755 H 0.52183 0.42343 0.94493 0.0
H756 H 0.53682 0.47677 0.91539 0.0
H757 H 0.49451 0.59031 0.04558 0.0
H758 H 0.5285 0.60195 0.06533 0.0
H759 H 0.51393 0.52191 0.05995 0.0
C760 C 0.07456 0.52315 0.0082 0.0
C761 C 0.07302 0.58909 0.01554 0.0
C762 C 0.04946 0.48617 0.00406 0.0
C763 C 0.02217 0.51528 0.00858 0.0
C764 C 0.02057 0.58161 0.01673 0.0
C765 C 0.04599 0.61797 0.01951 0.0
C766 C 0.05214 0.41627 0.99427 0.0
C767 C 0.99201 0.61409 0.02275 0.0
C768 C 0.95565 0.44206 0.97009 0.0
C769 C 0.94428 0.40461 0.99487 0.0
C770 C 0.98123 0.47722 0.97406 0.0
C771 C 0.99529 0.47685 0.00395 0.0
C772 C 0.98361 0.43988 0.02926 0.0
C773 C 0.95852 0.40316 0.02423 0.0
C774 C 0.99339 0.51407 0.94611 0.0
C775 C 0.99739 0.43983 0.06177 0.0
H776 H 0.09545 0.50079 0.00496 0.0
H777 H 0.04473 0.6688 0.02552 0.0
H778 H 0.04216 0.38468 0.01249 0.0
H779 H 0.04041 0.40809 0.97163 0.0
H780 H 0.07489 0.40131 0.99098 0.0
H781 H 0.99454 0.6649 0.03077 0.0
H782 H 0.97891 0.61372 0.00073 0.0
H783 H 0.9798 0.58708 0.04114 0.0
H784 H 0.94488 0.44263 0.94723 0.0
H785 H 0.94968 0.37443 0.04346 0.0
H786 H 0.0158 0.49827 0.94139 0.0
H787 H 0.99412 0.5664 0.95166 0.0
H788 H 0.98051 0.50711 0.92412 0.0
H789 H 0.01955 0.42034 0.06021 0.0
H790 H 0.98506 0.41053 0.07922 0.0
H791 H 0.99905 0.49003 0.07084 0.0
C792 C 0.5478 0.90357 0.47393 0.0
C793 C 0.56288 0.90741 0.5027 0.0
C794 C 0.52251 0.9397 0.46916 0.0
C795 C 0.51146 0.97834 0.49424 0.0
C796 C 0.5263 0.98076 0.52364 0.0
C797 C 0.55211 0.94631 0.52727 0.0
C798 C 0.50795 0.93753 0.4371 0.0
C799 C 0.5148 0.01925 0.55142 0.0
C800 C 0.46071 0.11897 0.47793 0.0
C801 C 0.4337 0.09059 0.48289 0.0
C802 C 0.48611 0.08255 0.48064 0.0
C803 C 0.48455 0.01675 0.48977 0.0
C804 C 0.45728 0.98821 0.49534 0.0
C805 C 0.43217 0.02514 0.49121 0.0
C806 C 0.5146 0.11436 0.47345 0.0
C807 C 0.45465 0.91902 0.50625 0.0
H808 H 0.55622 0.87369 0.45488 0.0
H809 H 0.56359 0.94867 0.54968 0.0
H810 H 0.48575 0.9186 0.43962 0.0
H811 H 0.50625 0.9871 0.42724 0.0
H812 H 0.51975 0.90679 0.41979 0.0
H813 H 0.52808 0.01322 0.57317 0.0
H814 H 0.51415 0.07127 0.54526 0.0
H815 H 0.49243 0.00408 0.55686 0.0
H816 H 0.46195 0.1694 0.47117 0.0
H817 H 0.41131 0.0032 0.49521 0.0
H818 H 0.5264 0.08605 0.45519 0.0
H819 H 0.52814 0.11531 0.49515 0.0
H820 H 0.51201 0.16465 0.46473 0.0
H821 H 0.46413 0.88613 0.48824 0.0
H822 H 0.43195 0.90457 0.51039 0.0
H823 H 0.46689 0.91214 0.52866 0.0
C824 C 0.94783 0.05816 0.53978 0.0
C825 C 0.93576 0.09627 0.51569 0.0
C826 C 0.97371 0.02447 0.53483 0.0
C827 C 0.98731 0.02692 0.50465 0.0
C828 C 0.97489 0.06459 0.48006 0.0
C829 C 0.94957 0.09984 0.48608 0.0
C830 C 0.98666 0.98688 0.56204 0.0
C831 C 0.98811 0.06686 0.44726 0.0
C832 C 0.06692 0.98478 0.49718 0.0
C833 C 0.06584 0.91928 0.48881 0.0
C834 C 0.04158 0.02013 0.50284 0.0
C835 C 0.01445 0.98993 0.49886 0.0
C836 C 0.0133 0.92405 0.48974 0.0
C837 C 0.03899 0.88924 0.48543 0.0
C838 C 0.04386 0.08952 0.51359 0.0
C839 C 0.98491 0.89047 0.48422 0.0
H840 H 0.93736 0.0559 0.56282 0.0
H841 H 0.94017 0.12902 0.46738 0.0
H842 H 0.98772 0.93487 0.55589 0.0
H843 H 0.00902 0.00344 0.5664 0.0
H844 H 0.97412 0.99228 0.58441 0.0
H845 H 0.97525 0.09644 0.43044 0.0
H846 H 0.01013 0.08726 0.44854 0.0
H847 H 0.99004 0.0172 0.43754 0.0
H848 H 0.08766 0.00804 0.50002 0.0
H849 H 0.03806 0.83876 0.47866 0.0
H850 H 0.03243 0.09587 0.53659 0.0
H851 H 0.03333 0.12173 0.49606 0.0
H852 H 0.06653 0.10527 0.51658 0.0
H853 H 0.97229 0.88929 0.50661 0.0
H854 H 0.98772 0.84014 0.47559 0.0
H855 H 0.97207 0.91768 0.46648 0.0
C856 C 0.2022 0.59135 0.98735 0.0
C857 C 0.2079 0.63484 0.01219 0.0
C858 C 0.22211 0.54276 0.97942 0.0
C859 C 0.24787 0.53718 0.99715 0.0
C860 C 0.25475 0.58449 0.02023 0.0
C861 C 0.23485 0.63307 0.02715 0.0
C862 C 0.21453 0.49469 0.95379 0.0
C863 C 0.28185 0.58031 0.03996 0.0
C864 C 0.27755 0.37764 0.02393 0.0
C865 C 0.30484 0.37778 0.0096 0.0
C866 C 0.25773 0.42679 0.01792 0.0
C867 C 0.26505 0.47673 0.99643 0.0
C868 C 0.29119 0.47328 0.97916 0.0
C869 C 0.311 0.42395 0.98615 0.0
C870 C 0.23019 0.42853 0.03709 0.0
C871 C 0.29925 0.5243 0.95516 0.0
H872 H 0.18163 0.59296 0.97526 0.0
H873 H 0.23984 0.6674 0.04583 0.0
H874 H 0.23392 0.47988 0.9402 0.0
H875 H 0.20524 0.4508 0.96489 0.0
H876 H 0.19839 0.5147 0.937 0.0
H877 H 0.28502 0.62358 0.0552 0.0
H878 H 0.28072 0.53718 0.05557 0.0
H879 H 0.30096 0.57467 0.02441 0.0
H880 H 0.27225 0.34123 0.0415 0.0
H881 H 0.33186 0.4239 0.97461 0.0
H882 H 0.21143 0.43622 0.0213 0.0
H883 H 0.23096 0.46952 0.0541 0.0
H884 H 0.22669 0.38337 0.05082 0.0
H885 H 0.28014 0.54055 0.94155 0.0
H886 H 0.3158 0.50638 0.93823 0.0
H887 H 0.30821 0.56689 0.96774 0.0
C888 C 0.27179 0.13562 0.47068 0.0
C889 C 0.29879 0.13674 0.48557 0.0
C890 C 0.25182 0.08702 0.4773 0.0
C891 C 0.25868 0.03896 0.49997 0.0
C892 C 0.28454 0.04374 0.51761 0.0
C893 C 0.3045 0.09243 0.51001 0.0
C894 C 0.22461 0.08371 0.4577 0.0
C895 C 0.29213 0.99472 0.54275 0.0
C896 C 0.19558 0.92548 0.51107 0.0
C897 C 0.20152 0.87962 0.48737 0.0
C898 C 0.21542 0.97487 0.51797 0.0
C899 C 0.24136 0.97869 0.50036 0.0
C900 C 0.24844 0.92922 0.47848 0.0
C901 C 0.2286 0.88 0.47257 0.0
C902 C 0.20761 0.02548 0.5423 0.0
C903 C 0.27575 0.93142 0.45894 0.0
H904 H 0.26682 0.17055 0.4523 0.0
H905 H 0.32511 0.09349 0.52201 0.0
H906 H 0.22566 0.04135 0.44154 0.0
H907 H 0.20558 0.07727 0.47329 0.0
H908 H 0.22137 0.1277 0.44302 0.0
H909 H 0.30862 0.0137 0.55943 0.0
H910 H 0.27281 0.98018 0.55654 0.0
H911 H 0.30095 0.95082 0.53118 0.0
H912 H 0.17489 0.92505 0.52297 0.0
H913 H 0.23374 0.84388 0.45477 0.0
H914 H 0.19873 0.06845 0.53002 0.0
H915 H 0.22683 0.04119 0.5559 0.0
H916 H 0.19108 0.00744 0.55923 0.0
H917 H 0.27481 0.97283 0.44221 0.0
H918 H 0.27908 0.88661 0.44486 0.0
H919 H 0.2947 0.93874 0.47451 0.0
C920 C 0.70044 0.56854 0.013 0.0
C921 C 0.70863 0.62113 0.99408 0.0
C922 C 0.72035 0.51964 0.02034 0.0
C923 C 0.74871 0.52366 0.00809 0.0
C924 C 0.75776 0.58045 0.99227 0.0
C925 C 0.73762 0.62863 0.98566 0.0
C926 C 0.71028 0.46098 0.03841 0.0
C927 C 0.78779 0.58719 0.9789 0.0
C928 C 0.81042 0.40565 0.01806 0.0
C929 C 0.80833 0.37075 0.98949 0.0
C930 C 0.78965 0.45226 0.02618 0.0
C931 C 0.76671 0.46477 0.00492 0.0
C932 C 0.76349 0.42644 0.97726 0.0
C933 C 0.78411 0.37962 0.9701 0.0
C934 C 0.79331 0.49054 0.05644 0.0
C935 C 0.73952 0.43826 0.9537 0.0
H936 H 0.6781 0.56296 0.01992 0.0
H937 H 0.74421 0.67019 0.97176 0.0
H938 H 0.70466 0.42212 0.02132 0.0
H939 H 0.72749 0.44238 0.05421 0.0
H940 H 0.69089 0.47183 0.05295 0.0
H941 H 0.79233 0.63714 0.97065 0.0
H942 H 0.80406 0.57375 0.99698 0.0
H943 H 0.79041 0.55395 0.95836 0.0
H944 H 0.82877 0.39837 0.03353 0.0
H945 H 0.78184 0.35205 0.94832 0.0
H946 H 0.77219 0.50308 0.06712 0.0
H947 H 0.80477 0.53624 0.05106 0.0
H948 H 0.80622 0.46349 0.07422 0.0
H949 H 0.71838 0.4384 0.96593 0.0
H950 H 0.73895 0.40132 0.93452 0.0
H951 H 0.74244 0.48638 0.94253 0.0
C952 C 0.6925 0.92897 0.478 0.0
C953 C 0.69941 0.87327 0.49522 0.0
C954 C 0.71353 0.9765 0.47239 0.0
C955 C 0.74166 0.96773 0.48463 0.0
C956 C 0.74944 0.90747 0.49792 0.0
C957 C 0.72817 0.86092 0.50304 0.0
C958 C 0.70477 0.03907 0.45687 0.0
C959 C 0.77924 0.89535 0.51085 0.0
C960 C 0.80316 0.08913 0.48317 0.0
C961 C 0.7996 0.11867 0.51302 0.0
C962 C 0.78332 0.04278 0.47221 0.0
C963 C 0.75991 0.02478 0.49192 0.0
C964 C 0.75557 0.05683 0.52129 0.0
C965 C 0.77515 0.10377 0.53117 0.0
C966 C 0.78827 0.01129 0.4403 0.0
C967 C 0.73116 0.03895 0.54341 0.0
H968 H 0.6703 0.93826 0.47162 0.0
H969 H 0.7336 0.81696 0.51571 0.0
H970 H 0.69979 0.07527 0.47557 0.0
H971 H 0.72249 0.05862 0.44201 0.0
H972 H 0.68532 0.03274 0.44187 0.0
H973 H 0.78303 0.84329 0.51565 0.0
H974 H 0.79585 0.91276 0.49398 0.0
H975 H 0.78195 0.92231 0.5335 0.0
H976 H 0.82174 0.10098 0.4687 0.0
H977 H 0.77171 0.12706 0.55396 0.0
H978 H 0.76768 0.99804 0.42868 0.0
H979 H 0.80098 0.9665 0.44364 0.0
H980 H 0.8006 0.04355 0.42416 0.0
H981 H 0.7103 0.0424 0.53079 0.0
H982 H 0.73022 0.07044 0.5648 0.0
H983 H 0.73376 0.98826 0.55146 0.0
loop_
_geom_bond_atom_site_label_1
_geom_bond_atom_site_label_2
_geom_bond_distance
_geom_bond_site_symmetry_2
_ccdc_geom_bond_type
Co0 O2 2.143 . S
Co0 O8 2.074 . S
Co0 O11 2.093 . S
Co0 O24 2.097 . S
Co0 N41 2.151 . S
Co0 N49 2.214 . S
Co1 O2 2.160 . S
Co1 O7 2.058 . S
Co1 O17 2.057 . S
Co1 O32 2.037 . S
Co1 N36 2.145 1_554 S
Co1 N57 2.257 . S
O2 Co0 2.143 . S
O2 Co1 2.160 . S
C3 O4 1.278 . S
C3 O11 1.224 . S
O4 C3 1.278 . S
C5 O6 1.245 . S
C5 O17 1.232 . S
O6 C5 1.245 . S
O7 Co1 2.058 . S
O7 C33 1.269 . S
O8 Co0 2.074 . S
O8 C33 1.257 . S
H9 C34 0.930 . S
H10 C40 0.930 . S
O11 Co0 2.093 . S
O11 C3 1.224 . S
H12 C44 0.929 . S
H13 C46 0.930 . S
H14 C47 0.930 . S
H15 C45 0.929 . S
H16 C48 0.928 . S
O17 Co1 2.057 . S
O17 C5 1.232 . S
H18 C37 0.929 . S
H19 C38 0.929 . S
H20 C50 0.931 . S
H21 C42 0.929 . S
H22 C51 0.930 . S
H23 C43 0.931 . S
O24 Co0 2.097 . S
O24 C52 1.214 . S
H25 C53 0.929 . S
H26 C54 0.929 1_556 S
H27 C55 0.930 . S
H28 C56 0.929 . S
H29 C58 0.930 . S
H30 C35 0.930 . S
H31 C39 0.930 . S
O32 Co1 2.037 . S
O32 C52 1.234 . S
C33 O7 1.269 . S
C33 O8 1.257 . S
C34 H9 0.930 . S
C34 C37 1.388 . S
C34 C39 1.418 . S
C35 H30 0.930 . S
C35 C38 1.404 . S
C35 C39 1.353 . S
N36 Co1 2.145 1_556 S
N36 C37 1.397 . S
N36 C38 1.334 . S
C37 H18 0.929 . S
C37 C34 1.388 . S
C37 N36 1.397 . S
C38 H19 0.929 . S
C38 C35 1.404 . S
C38 N36 1.334 . S
C39 H31 0.930 . S
C39 C34 1.418 . S
C39 C35 1.353 . S
C40 H10 0.930 . S
C40 N41 1.330 . S
C40 C42 1.446 . S
N41 Co0 2.151 . S
N41 C40 1.330 . S
N41 C45 1.418 . S
C42 H21 0.929 . S
C42 C40 1.446 . S
C42 C43 1.332 . S
C43 H23 0.931 . S
C43 C42 1.332 . S
C43 C44 1.267 . S
C44 H12 0.929 . S
C44 C43 1.267 . S
C44 C45 1.251 . S
C45 H15 0.929 . S
C45 N41 1.418 . S
C45 C44 1.251 . S
C46 H13 0.930 . S
C46 C48 1.406 . S
C46 C51 1.261 . S
C47 H14 0.930 . S
C47 N49 1.325 . S
C47 C50 1.357 . S
C48 H16 0.928 . S
C48 C46 1.406 . S
C48 N49 1.261 . S
N49 Co0 2.214 . S
N49 C47 1.325 . S
N49 C48 1.261 . S
C50 H20 0.931 . S
C50 C47 1.357 . S
C50 C51 1.312 . S
C51 H22 0.930 . S
C51 C46 1.261 . S
C51 C50 1.312 . S
C52 O24 1.214 . S
C52 O32 1.234 . S
C53 H25 0.929 . S
C53 C56 1.391 . S
C53 C58 1.391 . S
C54 H26 0.929 1_554 S
C54 C55 1.390 . S
C54 N57 1.391 . S
C55 H27 0.930 . S
C55 C54 1.390 . S
C55 C56 1.392 . S
C56 H28 0.929 . S
C56 C53 1.391 . S
C56 C55 1.392 . S
N57 Co1 2.257 . S
N57 C54 1.391 . S
N57 C58 1.388 . S
C58 H29 0.930 . S
C58 C53 1.391 . S
C58 N57 1.388 . S
Co59 O61 2.143 . S
Co59 O67 2.074 . S
Co59 O70 2.093 . S
Co59 O83 2.097 . S
Co59 N100 2.151 . S
Co59 N108 2.214 . S
Co60 O61 2.160 . S
Co60 O66 2.058 . S
Co60 O76 2.057 . S
Co60 O91 2.037 . S
Co60 N95 2.145 1_554 S
Co60 N116 2.257 . S
O61 Co59 2.143 . S
O61 Co60 2.160 . S
C62 O63 1.278 . S
C62 O70 1.224 . S
O63 C62 1.278 . S
C64 O65 1.245 . S
C64 O76 1.232 . S
O65 C64 1.245 . S
O66 Co60 2.058 . S
O66 C92 1.269 . S
O67 Co59 2.074 . S
O67 C92 1.257 . S
H68 C93 0.930 . S
H69 C99 0.930 . S
O70 Co59 2.093 . S
O70 C62 1.224 . S
H71 C103 0.929 . S
H72 C105 0.930 . S
H73 C106 0.930 . S
H74 C104 0.929 . S
H75 C107 0.928 . S
O76 Co60 2.057 . S
O76 C64 1.232 . S
H77 C96 0.929 . S
H78 C97 0.929 . S
H79 C109 0.931 . S
H80 C101 0.929 . S
H81 C110 0.930 . S
H82 C102 0.931 . S
O83 Co59 2.097 . S
O83 C111 1.214 . S
H84 C112 0.929 . S
H85 C113 0.929 1_556 S
H86 C114 0.930 . S
H87 C115 0.929 . S
H88 C117 0.930 . S
H89 C94 0.930 . S
H90 C98 0.930 . S
O91 Co60 2.037 . S
O91 C111 1.234 . S
C92 O66 1.269 . S
C92 O67 1.257 . S
C93 H68 0.930 . S
C93 C96 1.388 . S
C93 C98 1.418 . S
C94 H89 0.930 . S
C94 C97 1.404 . S
C94 C98 1.353 . S
N95 Co60 2.145 1_556 S
N95 C96 1.397 . S
N95 C97 1.334 . S
C96 H77 0.929 . S
C96 C93 1.388 . S
C96 N95 1.397 . S
C97 H78 0.929 . S
C97 C94 1.404 . S
C97 N95 1.334 . S
C98 H90 0.930 . S
C98 C93 1.418 . S
C98 C94 1.353 . S
C99 H69 0.930 . S
C99 N100 1.330 . S
C99 C101 1.446 . S
N100 Co59 2.151 . S
N100 C99 1.330 . S
N100 C104 1.418 . S
C101 H80 0.929 . S
C101 C99 1.446 . S
C101 C102 1.332 . S
C102 H82 0.931 . S
C102 C101 1.332 . S
C102 C103 1.267 . S
C103 H71 0.929 . S
C103 C102 1.267 . S
C103 C104 1.251 . S
C104 H74 0.929 . S
C104 N100 1.418 . S
C104 C103 1.251 . S
C105 H72 0.930 . S
C105 C107 1.406 . S
C105 C110 1.261 . S
C106 H73 0.930 . S
C106 N108 1.325 . S
C106 C109 1.357 . S
C107 H75 0.928 . S
C107 C105 1.406 . S
C107 N108 1.261 . S
N108 Co59 2.214 . S
N108 C106 1.325 . S
N108 C107 1.261 . S
C109 H79 0.931 . S
C109 C106 1.357 . S
C109 C110 1.312 . S
C110 H81 0.930 . S
C110 C105 1.261 . S
C110 C109 1.312 . S
C111 O83 1.214 . S
C111 O91 1.234 . S
C112 H84 0.929 . S
C112 C115 1.391 . S
C112 C117 1.391 . S
C113 H85 0.929 1_554 S
C113 C114 1.390 . S
C113 N116 1.391 . S
C114 H86 0.930 . S
C114 C113 1.390 . S
C114 C115 1.392 . S
C115 H87 0.929 . S
C115 C112 1.391 . S
C115 C114 1.392 . S
N116 Co60 2.257 . S
N116 C113 1.391 . S
N116 C117 1.388 . S
C117 H88 0.930 . S
C117 C112 1.391 . S
C117 N116 1.388 . S
Co118 O120 2.143 . S
Co118 O126 2.074 . S
Co118 O129 2.093 . S
Co118 O142 2.097 . S
Co118 N159 2.151 . S
Co118 N167 2.214 . S
Co119 O120 2.160 . S
Co119 O125 2.058 . S
Co119 O135 2.057 . S
Co119 O150 2.037 . S
Co119 N154 2.145 . S
Co119 N175 2.257 . S
O120 Co118 2.143 . S
O120 Co119 2.160 . S
C121 O122 1.278 . S
C121 O129 1.224 . S
O122 C121 1.278 . S
C123 O124 1.245 . S
C123 O135 1.232 . S
O124 C123 1.245 . S
O125 Co119 2.058 . S
O125 C151 1.269 . S
O126 Co118 2.074 . S
O126 C151 1.257 . S
H127 C152 0.930 . S
H128 C158 0.930 . S
O129 Co118 2.093 . S
O129 C121 1.224 . S
H130 C162 0.929 . S
H131 C164 0.930 . S
H132 C165 0.930 . S
H133 C163 0.929 . S
H134 C166 0.928 . S
O135 Co119 2.057 . S
O135 C123 1.232 . S
H136 C155 0.929 . S
H137 C156 0.929 . S
H138 C168 0.931 . S
H139 C160 0.929 . S
H140 C169 0.930 . S
H141 C161 0.931 1_565 S
O142 Co118 2.097 . S
O142 C170 1.214 . S
H143 C171 0.929 . S
H144 C172 0.929 . S
H145 C173 0.930 . S
H146 C174 0.929 . S
H147 C176 0.930 . S
H148 C153 0.930 . S
H149 C157 0.930 . S
O150 Co119 2.037 . S
O150 C170 1.234 . S
C151 O125 1.269 . S
C151 O126 1.257 . S
C152 H127 0.930 . S
C152 C155 1.388 . S
C152 C157 1.418 . S
C153 H148 0.930 . S
C153 C156 1.404 . S
C153 C157 1.353 . S
N154 Co119 2.145 . S
N154 C155 1.397 . S
N154 C156 1.334 . S
C155 H136 0.929 . S
C155 C152 1.388 . S
C155 N154 1.397 . S
C156 H137 0.929 . S
C156 C153 1.404 . S
C156 N154 1.334 . S
C157 H149 0.930 . S
C157 C152 1.418 . S
C157 C153 1.353 . S
C158 H128 0.930 . S
C158 N159 1.330 . S
C158 C160 1.446 . S
N159 Co118 2.151 . S
N159 C158 1.330 . S
N159 C163 1.418 . S
C160 H139 0.929 . S
C160 C158 1.446 . S
C160 C161 1.332 . S
C161 H141 0.931 1_545 S
C161 C160 1.332 . S
C161 C162 1.267 . S
C162 H130 0.929 . S
C162 C161 1.267 . S
C162 C163 1.251 . S
C163 H133 0.929 . S
C163 N159 1.418 . S
C163 C162 1.251 . S
C164 H131 0.930 . S
C164 C166 1.406 . S
C164 C169 1.261 . S
C165 H132 0.930 . S
C165 N167 1.325 . S
C165 C168 1.357 . S
C166 H134 0.928 . S
C166 C164 1.406 . S
C166 N167 1.261 . S
N167 Co118 2.214 . S
N167 C165 1.325 . S
N167 C166 1.261 . S
C168 H138 0.931 . S
C168 C165 1.357 . S
C168 C169 1.312 . S
C169 H140 0.930 . S
C169 C164 1.261 . S
C169 C168 1.312 . S
C170 O142 1.214 . S
C170 O150 1.234 . S
C171 H143 0.929 . S
C171 C174 1.391 . S
C171 C176 1.391 . S
C172 H144 0.929 . S
C172 C173 1.390 . S
C172 N175 1.391 . S
C173 H145 0.930 . S
C173 C172 1.390 . S
C173 C174 1.392 . S
C174 H146 0.929 . S
C174 C171 1.391 . S
C174 C173 1.392 . S
N175 Co119 2.257 . S
N175 C172 1.391 . S
N175 C176 1.388 . S
C176 H147 0.930 . S
C176 C171 1.391 . S
C176 N175 1.388 . S
Co177 O179 2.143 . S
Co177 O185 2.074 . S
Co177 O188 2.093 . S
Co177 O201 2.097 . S
Co177 N218 2.151 . S
Co177 N226 2.214 . S
Co178 O179 2.160 . S
Co178 O184 2.058 . S
Co178 O194 2.057 . S
Co178 O209 2.037 . S
Co178 N213 2.145 . S
Co178 N234 2.257 . S
O179 Co177 2.143 . S
O179 Co178 2.160 . S
C180 O181 1.278 . S
C180 O188 1.224 . S
O181 C180 1.278 . S
C182 O183 1.245 . S
C182 O194 1.232 . S
O183 C182 1.245 . S
O184 Co178 2.058 . S
O184 C210 1.269 . S
O185 Co177 2.074 . S
O185 C210 1.257 . S
H186 C211 0.930 . S
H187 C217 0.930 . S
O188 Co177 2.093 . S
O188 C180 1.224 . S
H189 C221 0.929 . S
H190 C223 0.930 . S
H191 C224 0.930 . S
H192 C222 0.929 . S
H193 C225 0.928 . S
O194 Co178 2.057 . S
O194 C182 1.232 . S
H195 C214 0.929 . S
H196 C215 0.929 . S
H197 C227 0.931 . S
H198 C219 0.929 . S
H199 C228 0.930 . S
H200 C220 0.931 1_545 S
O201 Co177 2.097 . S
O201 C229 1.214 . S
H202 C230 0.929 . S
H203 C231 0.929 . S
H204 C232 0.930 . S
H205 C233 0.929 . S
H206 C235 0.930 . S
H207 C212 0.930 . S
H208 C216 0.930 . S
O209 Co178 2.037 . S
O209 C229 1.234 . S
C210 O184 1.269 . S
C210 O185 1.257 . S
C211 H186 0.930 . S
C211 C214 1.388 . S
C211 C216 1.418 . S
C212 H207 0.930 . S
C212 C215 1.404 . S
C212 C216 1.353 . S
N213 Co178 2.145 . S
N213 C214 1.397 . S
N213 C215 1.334 . S
C214 H195 0.929 . S
C214 C211 1.388 . S
C214 N213 1.397 . S
C215 H196 0.929 . S
C215 C212 1.404 . S
C215 N213 1.334 . S
C216 H208 0.930 . S
C216 C211 1.418 . S
C216 C212 1.353 . S
C217 H187 0.930 . S
C217 N218 1.330 . S
C217 C219 1.446 . S
N218 Co177 2.151 . S
N218 C217 1.330 . S
N218 C222 1.418 . S
C219 H198 0.929 . S
C219 C217 1.446 . S
C219 C220 1.332 . S
C220 H200 0.931 1_565 S
C220 C219 1.332 . S
C220 C221 1.267 . S
C221 H189 0.929 . S
C221 C220 1.267 . S
C221 C222 1.251 . S
C222 H192 0.929 . S
C222 N218 1.418 . S
C222 C221 1.251 . S
C223 H190 0.930 . S
C223 C225 1.406 . S
C223 C228 1.261 . S
C224 H191 0.930 . S
C224 N226 1.325 . S
C224 C227 1.357 . S
C225 H193 0.928 . S
C225 C223 1.406 . S
C225 N226 1.261 . S
N226 Co177 2.214 . S
N226 C224 1.325 . S
N226 C225 1.261 . S
C227 H197 0.931 . S
C227 C224 1.357 . S
C227 C228 1.312 . S
C228 H199 0.930 . S
C228 C223 1.261 . S
C228 C227 1.312 . S
C229 O201 1.214 . S
C229 O209 1.234 . S
C230 H202 0.929 . S
C230 C233 1.391 . S
C230 C235 1.391 . S
C231 H203 0.929 . S
C231 C232 1.390 . S
C231 N234 1.391 . S
C232 H204 0.930 . S
C232 C231 1.390 . S
C232 C233 1.392 . S
C233 H205 0.929 . S
C233 C230 1.391 . S
C233 C232 1.392 . S
N234 Co178 2.257 . S
N234 C231 1.391 . S
N234 C235 1.388 . S
C235 H206 0.930 . S
C235 C230 1.391 . S
C235 N234 1.388 . S
Co236 O238 2.143 . S
Co236 O244 2.074 . S
Co236 O247 2.093 . S
Co236 O260 2.097 . S
Co236 N277 2.151 . S
Co236 N285 2.214 . S
Co237 O238 2.160 . S
Co237 O243 2.058 . S
Co237 O253 2.057 . S
Co237 O268 2.037 . S
Co237 N272 2.145 1_556 S
Co237 N293 2.257 . S
O238 Co236 2.143 . S
O238 Co237 2.160 . S
C239 O240 1.278 . S
C239 O247 1.224 . S
O240 C239 1.278 . S
C241 O242 1.245 . S
C241 O253 1.232 . S
O242 C241 1.245 . S
O243 Co237 2.058 . S
O243 C269 1.269 . S
O244 Co236 2.074 . S
O244 C269 1.257 . S
H245 C270 0.930 . S
H246 C276 0.930 . S
O247 Co236 2.093 . S
O247 C239 1.224 . S
H248 C280 0.929 . S
H249 C282 0.930 . S
H250 C283 0.930 . S
H251 C281 0.929 . S
H252 C284 0.928 . S
O253 Co237 2.057 . S
O253 C241 1.232 . S
H254 C273 0.929 . S
H255 C274 0.929 . S
H256 C286 0.931 . S
H257 C278 0.929 . S
H258 C287 0.930 . S
H259 C279 0.931 . S
O260 Co236 2.097 . S
O260 C288 1.214 . S
H261 C289 0.929 . S
H262 C290 0.929 1_554 S
H263 C291 0.930 . S
H264 C292 0.929 . S
H265 C294 0.930 . S
H266 C271 0.930 . S
H267 C275 0.930 . S
O268 Co237 2.037 . S
O268 C288 1.234 . S
C269 O243 1.269 . S
C269 O244 1.257 . S
C270 H245 0.930 . S
C270 C273 1.388 . S
C270 C275 1.418 . S
C271 H266 0.930 . S
C271 C274 1.404 . S
C271 C275 1.353 . S
N272 Co237 2.145 1_554 S
N272 C273 1.397 . S
N272 C274 1.334 . S
C273 H254 0.929 . S
C273 C270 1.388 . S
C273 N272 1.397 . S
C274 H255 0.929 . S
C274 C271 1.404 . S
C274 N272 1.334 . S
C275 H267 0.930 . S
C275 C270 1.418 . S
C275 C271 1.353 . S
C276 H246 0.930 . S
C276 N277 1.330 . S
C276 C278 1.446 . S
N277 Co236 2.151 . S
N277 C276 1.330 . S
N277 C281 1.418 . S
C278 H257 0.929 . S
C278 C276 1.446 . S
C278 C279 1.332 . S
C279 H259 0.931 . S
C279 C278 1.332 . S
C279 C280 1.267 . S
C280 H248 0.929 . S
C280 C279 1.267 . S
C280 C281 1.251 . S
C281 H251 0.929 . S
C281 N277 1.418 . S
C281 C280 1.251 . S
C282 H249 0.930 . S
C282 C284 1.406 . S
C282 C287 1.261 . S
C283 H250 0.930 . S
C283 N285 1.325 . S
C283 C286 1.357 . S
C284 H252 0.928 . S
C284 C282 1.406 . S
C284 N285 1.261 . S
N285 Co236 2.214 . S
N285 C283 1.325 . S
N285 C284 1.261 . S
C286 H256 0.931 . S
C286 C283 1.357 . S
C286 C287 1.312 . S
C287 H258 0.930 . S
C287 C282 1.261 . S
C287 C286 1.312 . S
C288 O260 1.214 . S
C288 O268 1.234 . S
C289 H261 0.929 . S
C289 C292 1.391 . S
C289 C294 1.391 . S
C290 H262 0.929 1_556 S
C290 C291 1.390 . S
C290 N293 1.391 . S
C291 H263 0.930 . S
C291 C290 1.390 . S
C291 C292 1.392 . S
C292 H264 0.929 . S
C292 C289 1.391 . S
C292 C291 1.392 . S
N293 Co237 2.257 . S
N293 C290 1.391 . S
N293 C294 1.388 . S
C294 H265 0.930 . S
C294 C289 1.391 . S
C294 N293 1.388 . S
Co295 O297 2.143 . S
Co295 O303 2.074 . S
Co295 O306 2.093 . S
Co295 O319 2.097 . S
Co295 N336 2.151 . S
Co295 N344 2.214 . S
Co296 O297 2.160 . S
Co296 O302 2.058 . S
Co296 O312 2.057 . S
Co296 O327 2.037 . S
Co296 N331 2.145 1_556 S
Co296 N352 2.257 . S
O297 Co295 2.143 . S
O297 Co296 2.160 . S
C298 O299 1.278 . S
C298 O306 1.224 . S
O299 C298 1.278 . S
C300 O301 1.245 . S
C300 O312 1.232 . S
O301 C300 1.245 . S
O302 Co296 2.058 . S
O302 C328 1.269 . S
O303 Co295 2.074 . S
O303 C328 1.257 . S
H304 C329 0.930 . S
H305 C335 0.930 . S
O306 Co295 2.093 . S
O306 C298 1.224 . S
H307 C339 0.929 . S
H308 C341 0.930 . S
H309 C342 0.930 . S
H310 C340 0.929 . S
H311 C343 0.928 . S
O312 Co296 2.057 . S
O312 C300 1.232 . S
H313 C332 0.929 . S
H314 C333 0.929 . S
H315 C345 0.931 . S
H316 C337 0.929 . S
H317 C346 0.930 . S
H318 C338 0.931 . S
O319 Co295 2.097 . S
O319 C347 1.214 . S
H320 C348 0.929 . S
H321 C349 0.929 1_554 S
H322 C350 0.930 . S
H323 C351 0.929 . S
H324 C353 0.930 . S
H325 C330 0.930 . S
H326 C334 0.930 . S
O327 Co296 2.037 . S
O327 C347 1.234 . S
C328 O302 1.269 . S
C328 O303 1.257 . S
C329 H304 0.930 . S
C329 C332 1.388 . S
C329 C334 1.418 . S
C330 H325 0.930 . S
C330 C333 1.404 . S
C330 C334 1.353 . S
N331 Co296 2.145 1_554 S
N331 C332 1.397 . S
N331 C333 1.334 . S
C332 H313 0.929 . S
C332 C329 1.388 . S
C332 N331 1.397 . S
C333 H314 0.929 . S
C333 C330 1.404 . S
C333 N331 1.334 . S
C334 H326 0.930 . S
C334 C329 1.418 . S
C334 C330 1.353 . S
C335 H305 0.930 . S
C335 N336 1.330 . S
C335 C337 1.446 . S
N336 Co295 2.151 . S
N336 C335 1.330 . S
N336 C340 1.418 . S
C337 H316 0.929 . S
C337 C335 1.446 . S
C337 C338 1.332 . S
C338 H318 0.931 . S
C338 C337 1.332 . S
C338 C339 1.267 . S
C339 H307 0.929 . S
C339 C338 1.267 . S
C339 C340 1.251 . S
C340 H310 0.929 . S
C340 N336 1.418 . S
C340 C339 1.251 . S
C341 H308 0.930 . S
C341 C343 1.406 . S
C341 C346 1.261 . S
C342 H309 0.930 . S
C342 N344 1.325 . S
C342 C345 1.357 . S
C343 H311 0.928 . S
C343 C341 1.406 . S
C343 N344 1.261 . S
N344 Co295 2.214 . S
N344 C342 1.325 . S
N344 C343 1.261 . S
C345 H315 0.931 . S
C345 C342 1.357 . S
C345 C346 1.312 . S
C346 H317 0.930 . S
C346 C341 1.261 . S
C346 C345 1.312 . S
C347 O319 1.214 . S
C347 O327 1.234 . S
C348 H320 0.929 . S
C348 C351 1.391 . S
C348 C353 1.391 . S
C349 H321 0.929 1_556 S
C349 C350 1.390 . S
C349 N352 1.391 . S
C350 H322 0.930 . S
C350 C349 1.390 . S
C350 C351 1.392 . S
C351 H323 0.929 . S
C351 C348 1.391 . S
C351 C350 1.392 . S
N352 Co296 2.257 . S
N352 C349 1.391 . S
N352 C353 1.388 . S
C353 H324 0.930 . S
C353 C348 1.391 . S
C353 N352 1.388 . S
Co354 O356 2.143 . S
Co354 O362 2.074 . S
Co354 O365 2.093 . S
Co354 O378 2.097 . S
Co354 N395 2.151 . S
Co354 N403 2.214 . S
Co355 O356 2.160 . S
Co355 O361 2.058 . S
Co355 O371 2.057 . S
Co355 O386 2.037 . S
Co355 N390 2.145 . S
Co355 N411 2.257 . S
O356 Co354 2.143 . S
O356 Co355 2.160 . S
C357 O358 1.278 . S
C357 O365 1.224 . S
O358 C357 1.278 . S
C359 O360 1.245 . S
C359 O371 1.232 . S
O360 C359 1.245 . S
O361 Co355 2.058 . S
O361 C387 1.269 . S
O362 Co354 2.074 . S
O362 C387 1.257 . S
H363 C388 0.930 . S
H364 C394 0.930 . S
O365 Co354 2.093 . S
O365 C357 1.224 . S
H366 C398 0.929 . S
H367 C400 0.930 . S
H368 C401 0.930 . S
H369 C399 0.929 . S
H370 C402 0.928 . S
O371 Co355 2.057 . S
O371 C359 1.232 . S
H372 C391 0.929 . S
H373 C392 0.929 . S
H374 C404 0.931 . S
H375 C396 0.929 . S
H376 C405 0.930 . S
H377 C397 0.931 1_545 S
O378 Co354 2.097 . S
O378 C406 1.214 . S
H379 C407 0.929 . S
H380 C408 0.929 . S
H381 C409 0.930 . S
H382 C410 0.929 . S
H383 C412 0.930 . S
H384 C389 0.930 . S
H385 C393 0.930 . S
O386 Co355 2.037 . S
O386 C406 1.234 . S
C387 O361 1.269 . S
C387 O362 1.257 . S
C388 H363 0.930 . S
C388 C391 1.388 . S
C388 C393 1.418 . S
C389 H384 0.930 . S
C389 C392 1.404 . S
C389 C393 1.353 . S
N390 Co355 2.145 . S
N390 C391 1.397 . S
N390 C392 1.334 . S
C391 H372 0.929 . S
C391 C388 1.388 . S
C391 N390 1.397 . S
C392 H373 0.929 . S
C392 C389 1.404 . S
C392 N390 1.334 . S
C393 H385 0.930 . S
C393 C388 1.418 . S
C393 C389 1.353 . S
C394 H364 0.930 . S
C394 N395 1.330 . S
C394 C396 1.446 . S
N395 Co354 2.151 . S
N395 C394 1.330 . S
N395 C399 1.418 . S
C396 H375 0.929 . S
C396 C394 1.446 . S
C396 C397 1.332 . S
C397 H377 0.931 1_565 S
C397 C396 1.332 . S
C397 C398 1.267 . S
C398 H366 0.929 . S
C398 C397 1.267 . S
C398 C399 1.251 . S
C399 H369 0.929 . S
C399 N395 1.418 . S
C399 C398 1.251 . S
C400 H367 0.930 . S
C400 C402 1.406 . S
C400 C405 1.261 . S
C401 H368 0.930 . S
C401 N403 1.325 . S
C401 C404 1.357 . S
C402 H370 0.928 . S
C402 C400 1.406 . S
C402 N403 1.261 . S
N403 Co354 2.214 . S
N403 C401 1.325 . S
N403 C402 1.261 . S
C404 H374 0.931 . S
C404 C401 1.357 . S
C404 C405 1.312 . S
C405 H376 0.930 . S
C405 C400 1.261 . S
C405 C404 1.312 . S
C406 O378 1.214 . S
C406 O386 1.234 . S
C407 H379 0.929 . S
C407 C410 1.391 . S
C407 C412 1.391 . S
C408 H380 0.929 . S
C408 C409 1.390 . S
C408 N411 1.391 . S
C409 H381 0.930 . S
C409 C408 1.390 . S
C409 C410 1.392 . S
C410 H382 0.929 . S
C410 C407 1.391 . S
C410 C409 1.392 . S
N411 Co355 2.257 . S
N411 C408 1.391 . S
N411 C412 1.388 . S
C412 H383 0.930 . S
C412 C407 1.391 . S
C412 N411 1.388 . S
Co413 O415 2.143 . S
Co413 O421 2.074 . S
Co413 O424 2.093 . S
Co413 O437 2.097 . S
Co413 N454 2.151 . S
Co413 N462 2.214 . S
Co414 O415 2.160 . S
Co414 O420 2.058 . S
Co414 O430 2.057 . S
Co414 O445 2.037 . S
Co414 N449 2.145 . S
Co414 N470 2.257 . S
O415 Co413 2.143 . S
O415 Co414 2.160 . S
C416 O417 1.278 . S
C416 O424 1.224 . S
O417 C416 1.278 . S
C418 O419 1.245 . S
C418 O430 1.232 . S
O419 C418 1.245 . S
O420 Co414 2.058 . S
O420 C446 1.269 . S
O421 Co413 2.074 . S
O421 C446 1.257 . S
H422 C447 0.930 . S
H423 C453 0.930 . S
O424 Co413 2.093 . S
O424 C416 1.224 . S
H425 C457 0.929 . S
H426 C459 0.930 . S
H427 C460 0.930 . S
H428 C458 0.929 . S
H429 C461 0.928 . S
O430 Co414 2.057 . S
O430 C418 1.232 . S
H431 C450 0.929 . S
H432 C451 0.929 . S
H433 C463 0.931 . S
H434 C455 0.929 . S
H435 C464 0.930 . S
H436 C456 0.931 1_565 S
O437 Co413 2.097 . S
O437 C465 1.214 . S
H438 C466 0.929 . S
H439 C467 0.929 . S
H440 C468 0.930 . S
H441 C469 0.929 . S
H442 C471 0.930 . S
H443 C448 0.930 . S
H444 C452 0.930 . S
O445 Co414 2.037 . S
O445 C465 1.234 . S
C446 O420 1.269 . S
C446 O421 1.257 . S
C447 H422 0.930 . S
C447 C450 1.388 . S
C447 C452 1.418 . S
C448 H443 0.930 . S
C448 C451 1.404 . S
C448 C452 1.353 . S
N449 Co414 2.145 . S
N449 C450 1.397 . S
N449 C451 1.334 . S
C450 H431 0.929 . S
C450 C447 1.388 . S
C450 N449 1.397 . S
C451 H432 0.929 . S
C451 C448 1.404 . S
C451 N449 1.334 . S
C452 H444 0.930 . S
C452 C447 1.418 . S
C452 C448 1.353 . S
C453 H423 0.930 . S
C453 N454 1.330 . S
C453 C455 1.446 . S
N454 Co413 2.151 . S
N454 C453 1.330 . S
N454 C458 1.418 . S
C455 H434 0.929 . S
C455 C453 1.446 . S
C455 C456 1.332 . S
C456 H436 0.931 1_545 S
C456 C455 1.332 . S
C456 C457 1.267 . S
C457 H425 0.929 . S
C457 C456 1.267 . S
C457 C458 1.251 . S
C458 H428 0.929 . S
C458 N454 1.418 . S
C458 C457 1.251 . S
C459 H426 0.930 . S
C459 C461 1.406 . S
C459 C464 1.261 . S
C460 H427 0.930 . S
C460 N462 1.325 . S
C460 C463 1.357 . S
C461 H429 0.928 . S
C461 C459 1.406 . S
C461 N462 1.261 . S
N462 Co413 2.214 . S
N462 C460 1.325 . S
N462 C461 1.261 . S
C463 H433 0.931 . S
C463 C460 1.357 . S
C463 C464 1.312 . S
C464 H435 0.930 . S
C464 C459 1.261 . S
C464 C463 1.312 . S
C465 O437 1.214 . S
C465 O445 1.234 . S
C466 H438 0.929 . S
C466 C469 1.391 . S
C466 C471 1.391 . S
C467 H439 0.929 . S
C467 C468 1.390 . S
C467 N470 1.391 . S
C468 H440 0.930 . S
C468 C467 1.390 . S
C468 C469 1.392 . S
C469 H441 0.929 . S
C469 C466 1.391 . S
C469 C468 1.392 . S
N470 Co414 2.257 . S
N470 C467 1.391 . S
N470 C471 1.388 . S
C471 H442 0.930 . S
C471 C466 1.391 . S
C471 N470 1.388 . S
C472 C473 1.391 . S
C472 C474 1.394 . S
C472 H488 0.931 1_554 S
C473 C472 1.391 . S
C473 C477 1.376 . S
C474 C472 1.394 . S
C474 C475 1.369 . S
C474 C478 1.531 1_554 S
C475 C474 1.369 . S
C475 C476 1.410 . S
C475 C483 1.503 1_545 S
C476 C475 1.410 . S
C476 C477 1.392 . S
C476 C479 1.511 1_545 S
C477 C473 1.376 . S
C477 C476 1.392 . S
C477 H489 0.929 . S
C478 C474 1.531 1_556 S
C478 H490 0.960 . S
C478 H491 0.962 . S
C478 H492 0.960 . S
C479 C476 1.511 1_565 S
C479 H493 0.961 . S
C479 H494 0.961 . S
C479 H495 0.961 . S
C480 C481 1.370 . S
C480 C482 1.363 . S
C480 H496 0.931 . S
C481 C480 1.370 . S
C481 C485 1.408 . S
C482 C480 1.363 . S
C482 C483 1.370 . S
C482 C486 1.524 1_565 S
C483 C475 1.503 1_565 S
C483 C482 1.370 . S
C483 C484 1.403 . S
C484 C483 1.403 . S
C484 C485 1.404 . S
C484 C487 1.539 1_554 S
C485 C481 1.408 . S
C485 C484 1.404 . S
C485 H497 0.930 . S
C486 C482 1.524 1_545 S
C486 H498 0.956 . S
C486 H499 0.961 . S
C486 H500 0.961 . S
C487 C484 1.539 1_556 S
C487 H501 0.958 . S
C487 H502 0.961 . S
C487 H503 0.960 1_556 S
H488 C472 0.931 1_556 S
H489 C477 0.929 . S
H490 C478 0.960 . S
H491 C478 0.962 . S
H492 C478 0.960 . S
H493 C479 0.961 . S
H494 C479 0.961 . S
H495 C479 0.961 . S
H496 C480 0.931 . S
H497 C485 0.930 . S
H498 C486 0.956 . S
H499 C486 0.961 . S
H500 C486 0.961 . S
H501 C487 0.958 . S
H502 C487 0.961 . S
H503 C487 0.960 1_554 S
C504 C505 1.391 . S
C504 C506 1.394 . S
C504 H520 0.931 . S
C505 C504 1.391 . S
C505 C509 1.376 . S
C506 C504 1.394 . S
C506 C507 1.369 . S
C506 C510 1.531 . S
C507 C506 1.369 . S
C507 C508 1.410 . S
C507 C515 1.503 . S
C508 C507 1.410 . S
C508 C509 1.392 . S
C508 C511 1.511 . S
C509 C505 1.376 . S
C509 C508 1.392 . S
C509 H521 0.929 . S
C510 C506 1.531 . S
C510 H522 0.960 . S
C510 H523 0.962 . S
C510 H524 0.960 . S
C511 C508 1.511 . S
C511 H525 0.961 . S
C511 H526 0.961 . S
C511 H527 0.961 . S
C512 C513 1.370 . S
C512 C514 1.363 . S
C512 H528 0.931 . S
C513 C512 1.370 . S
C513 C517 1.408 . S
C514 C512 1.363 . S
C514 C515 1.370 . S
C514 C518 1.524 . S
C515 C507 1.503 . S
C515 C514 1.370 . S
C515 C516 1.403 . S
C516 C515 1.403 . S
C516 C517 1.404 . S
C516 C519 1.539 . S
C517 C513 1.408 . S
C517 C516 1.404 . S
C517 H529 0.930 . S
C518 C514 1.524 . S
C518 H530 0.956 . S
C518 H531 0.961 . S
C518 H532 0.961 . S
C519 C516 1.539 . S
C519 H533 0.958 . S
C519 H534 0.961 . S
C519 H535 0.960 . S
H520 C504 0.931 . S
H521 C509 0.929 . S
H522 C510 0.960 . S
H523 C510 0.962 . S
H524 C510 0.960 . S
H525 C511 0.961 . S
H526 C511 0.961 . S
H527 C511 0.961 . S
H528 C512 0.931 . S
H529 C517 0.930 . S
H530 C518 0.956 . S
H531 C518 0.961 . S
H532 C518 0.961 . S
H533 C519 0.958 . S
H534 C519 0.961 . S
H535 C519 0.960 . S
C536 C537 1.391 . S
C536 C538 1.394 . S
C536 H552 0.931 1_556 S
C537 C536 1.391 . S
C537 C541 1.376 . S
C538 C536 1.394 . S
C538 C539 1.369 . S
C538 C542 1.530 1_556 S
C539 C538 1.369 . S
C539 C540 1.410 . S
C539 C547 1.503 1_565 S
C540 C539 1.410 . S
C540 C541 1.392 . S
C540 C543 1.511 . S
C541 C537 1.376 . S
C541 C540 1.392 . S
C541 H553 0.929 . S
C542 C538 1.530 1_554 S
C542 H554 0.960 1_565 S
C542 H555 0.963 1_565 S
C542 H556 0.960 . S
C543 C540 1.511 . S
C543 H557 0.961 . S
C543 H558 0.961 . S
C543 H559 0.961 . S
C544 C545 1.370 . S
C544 C546 1.363 . S
C544 H560 0.931 . S
C545 C544 1.370 . S
C545 C549 1.408 . S
C546 C544 1.363 . S
C546 C547 1.370 . S
C546 C550 1.524 . S
C547 C539 1.503 1_545 S
C547 C546 1.370 . S
C547 C548 1.402 . S
C548 C547 1.402 . S
C548 C549 1.403 . S
C548 C551 1.541 1_545 S
C549 C545 1.408 . S
C549 C548 1.403 . S
C549 H561 0.930 . S
C550 C546 1.524 . S
C550 H562 0.956 . S
C550 H563 0.961 . S
C550 H564 0.961 . S
C551 C548 1.541 1_565 S
C551 H565 0.958 1_556 S
C551 H566 0.961 . S
C551 H567 0.960 . S
H552 C536 0.931 1_554 S
H553 C541 0.929 . S
H554 C542 0.960 1_545 S
H555 C542 0.963 1_545 S
H556 C542 0.960 . S
H557 C543 0.961 . S
H558 C543 0.961 . S
H559 C543 0.961 . S
H560 C544 0.931 . S
H561 C549 0.930 . S
H562 C550 0.956 . S
H563 C550 0.961 . S
H564 C550 0.961 . S
H565 C551 0.958 1_554 S
H566 C551 0.961 . S
H567 C551 0.960 . S
C568 C569 1.391 . S
C568 C570 1.394 . S
C568 H584 0.931 . S
C569 C568 1.391 . S
C569 C573 1.376 . S
C570 C568 1.394 . S
C570 C571 1.369 . S
C570 C574 1.531 . S
C571 C570 1.369 . S
C571 C572 1.410 . S
C571 C579 1.503 . S
C572 C571 1.410 . S
C572 C573 1.392 . S
C572 C575 1.511 . S
C573 C569 1.376 . S
C573 C572 1.392 . S
C573 H585 0.929 . S
C574 C570 1.531 . S
C574 H586 0.960 . S
C574 H587 0.962 . S
C574 H588 0.960 . S
C575 C572 1.511 . S
C575 H589 0.961 . S
C575 H590 0.961 . S
C575 H591 0.961 . S
C576 C577 1.370 . S
C576 C578 1.363 . S
C576 H592 0.931 . S
C577 C576 1.370 . S
C577 C581 1.408 . S
C578 C576 1.363 . S
C578 C579 1.370 . S
C578 C582 1.524 . S
C579 C571 1.503 . S
C579 C578 1.370 . S
C579 C580 1.403 . S
C580 C579 1.403 . S
C580 C581 1.404 . S
C580 C583 1.539 . S
C581 C577 1.408 . S
C581 C580 1.404 . S
C581 H593 0.930 . S
C582 C578 1.524 . S
C582 H594 0.956 . S
C582 H595 0.961 . S
C582 H596 0.961 . S
C583 C580 1.539 . S
C583 H597 0.958 . S
C583 H598 0.961 . S
C583 H599 0.960 . S
H584 C568 0.931 . S
H585 C573 0.929 . S
H586 C574 0.960 . S
H587 C574 0.962 . S
H588 C574 0.960 . S
H589 C575 0.961 . S
H590 C575 0.961 . S
H591 C575 0.961 . S
H592 C576 0.931 . S
H593 C581 0.930 . S
H594 C582 0.956 . S
H595 C582 0.961 . S
H596 C582 0.961 . S
H597 C583 0.958 . S
H598 C583 0.961 . S
H599 C583 0.960 . S
C600 C601 1.391 . S
C600 C602 1.394 . S
C600 H616 0.931 . S
C601 C600 1.391 . S
C601 C605 1.376 . S
C602 C600 1.394 . S
C602 C603 1.369 . S
C602 C606 1.531 . S
C603 C602 1.369 . S
C603 C604 1.410 . S
C603 C611 1.503 . S
C604 C603 1.410 . S
C604 C605 1.392 . S
C604 C607 1.511 . S
C605 C601 1.376 . S
C605 C604 1.392 . S
C605 H617 0.929 . S
C606 C602 1.531 . S
C606 H618 0.960 . S
C606 H619 0.962 . S
C606 H620 0.960 . S
C607 C604 1.511 . S
C607 H621 0.961 . S
C607 H622 0.961 . S
C607 H623 0.961 . S
C608 C609 1.370 . S
C608 C610 1.363 . S
C608 H624 0.931 . S
C609 C608 1.370 . S
C609 C613 1.408 . S
C610 C608 1.363 . S
C610 C611 1.370 . S
C610 C614 1.524 . S
C611 C603 1.503 . S
C611 C610 1.370 . S
C611 C612 1.403 . S
C612 C611 1.403 . S
C612 C613 1.404 . S
C612 C615 1.539 . S
C613 C609 1.408 . S
C613 C612 1.404 . S
C613 H625 0.930 . S
C614 C610 1.524 . S
C614 H626 0.956 . S
C614 H627 0.961 . S
C614 H628 0.961 . S
C615 C612 1.539 . S
C615 H629 0.958 . S
C615 H630 0.961 . S
C615 H631 0.960 . S
H616 C600 0.931 . S
H617 C605 0.929 . S
H618 C606 0.960 . S
H619 C606 0.962 . S
H620 C606 0.960 . S
H621 C607 0.961 . S
H622 C607 0.961 . S
H623 C607 0.961 . S
H624 C608 0.931 . S
H625 C613 0.930 . S
H626 C614 0.956 . S
H627 C614 0.961 . S
H628 C614 0.961 . S
H629 C615 0.958 . S
H630 C615 0.961 . S
H631 C615 0.960 . S
C632 C633 1.391 . S
C632 C634 1.394 . S
C632 H648 0.931 . S
C633 C632 1.391 . S
C633 C637 1.376 . S
C634 C632 1.394 . S
C634 C635 1.369 . S
C634 C638 1.531 . S
C635 C634 1.369 . S
C635 C636 1.410 . S
C635 C643 1.503 . S
C636 C635 1.410 . S
C636 C637 1.392 . S
C636 C639 1.511 . S
C637 C633 1.376 . S
C637 C636 1.392 . S
C637 H649 0.929 . S
C638 C634 1.531 . S
C638 H650 0.960 . S
C638 H651 0.962 . S
C638 H652 0.960 . S
C639 C636 1.511 . S
C639 H653 0.961 . S
C639 H654 0.961 . S
C639 H655 0.961 . S
C640 C641 1.370 . S
C640 C642 1.363 . S
C640 H656 0.931 . S
C641 C640 1.370 . S
C641 C645 1.408 . S
C642 C640 1.363 . S
C642 C643 1.370 . S
C642 C646 1.524 . S
C643 C635 1.503 . S
C643 C642 1.370 . S
C643 C644 1.403 . S
C644 C643 1.403 . S
C644 C645 1.404 . S
C644 C647 1.539 . S
C645 C641 1.408 . S
C645 C644 1.404 . S
C645 H657 0.930 . S
C646 C642 1.524 . S
C646 H658 0.956 . S
C646 H659 0.961 . S
C646 H660 0.961 . S
C647 C644 1.539 . S
C647 H661 0.958 . S
C647 H662 0.961 . S
C647 H663 0.960 . S
H648 C632 0.931 . S
H649 C637 0.929 . S
H650 C638 0.960 . S
H651 C638 0.962 . S
H652 C638 0.960 . S
H653 C639 0.961 . S
H654 C639 0.961 . S
H655 C639 0.961 . S
H656 C640 0.931 . S
H657 C645 0.930 . S
H658 C646 0.956 . S
H659 C646 0.961 . S
H660 C646 0.961 . S
H661 C647 0.958 . S
H662 C647 0.961 . S
H663 C647 0.960 . S
C664 C665 1.391 . S
C664 C666 1.394 . S
C664 H680 0.931 . S
C665 C664 1.391 . S
C665 C669 1.376 . S
C666 C664 1.394 . S
C666 C667 1.369 . S
C666 C670 1.531 . S
C667 C666 1.369 . S
C667 C668 1.410 . S
C667 C675 1.503 . S
C668 C667 1.410 . S
C668 C669 1.392 . S
C668 C671 1.511 . S
C669 C665 1.376 . S
C669 C668 1.392 . S
C669 H681 0.929 . S
C670 C666 1.531 . S
C670 H682 0.960 . S
C670 H683 0.962 . S
C670 H684 0.960 . S
C671 C668 1.511 . S
C671 H685 0.961 . S
C671 H686 0.961 . S
C671 H687 0.961 . S
C672 C673 1.370 . S
C672 C674 1.363 . S
C672 H688 0.931 . S
C673 C672 1.370 . S
C673 C677 1.408 . S
C674 C672 1.363 . S
C674 C675 1.370 . S
C674 C678 1.524 . S
C675 C667 1.503 . S
C675 C674 1.370 . S
C675 C676 1.403 . S
C676 C675 1.403 . S
C676 C677 1.404 . S
C676 C679 1.539 . S
C677 C673 1.408 . S
C677 C676 1.404 . S
C677 H689 0.930 . S
C678 C674 1.524 . S
C678 H690 0.956 . S
C678 H691 0.961 . S
C678 H692 0.961 . S
C679 C676 1.539 . S
C679 H693 0.958 . S
C679 H694 0.961 . S
C679 H695 0.960 . S
H680 C664 0.931 . S
H681 C669 0.929 . S
H682 C670 0.960 . S
H683 C670 0.962 . S
H684 C670 0.960 . S
H685 C671 0.961 . S
H686 C671 0.961 . S
H687 C671 0.961 . S
H688 C672 0.931 . S
H689 C677 0.930 . S
H690 C678 0.956 . S
H691 C678 0.961 . S
H692 C678 0.961 . S
H693 C679 0.958 . S
H694 C679 0.961 . S
H695 C679 0.960 . S
C696 C697 1.391 . S
C696 C698 1.394 . S
C696 H712 0.931 . S
C697 C696 1.391 . S
C697 C701 1.376 . S
C698 C696 1.394 . S
C698 C699 1.369 . S
C698 C702 1.531 . S
C699 C698 1.369 . S
C699 C700 1.410 . S
C699 C707 1.503 . S
C700 C699 1.410 . S
C700 C701 1.392 . S
C700 C703 1.511 . S
C701 C697 1.376 . S
C701 C700 1.392 . S
C701 H713 0.929 . S
C702 C698 1.531 . S
C702 H714 0.960 . S
C702 H715 0.962 . S
C702 H716 0.960 . S
C703 C700 1.511 . S
C703 H717 0.961 . S
C703 H718 0.961 . S
C703 H719 0.961 . S
C704 C705 1.370 . S
C704 C706 1.363 . S
C704 H720 0.931 . S
C705 C704 1.370 . S
C705 C709 1.408 . S
C706 C704 1.363 . S
C706 C707 1.370 . S
C706 C710 1.524 . S
C707 C699 1.503 . S
C707 C706 1.370 . S
C707 C708 1.403 . S
C708 C707 1.403 . S
C708 C709 1.404 . S
C708 C711 1.539 . S
C709 C705 1.408 . S
C709 C708 1.404 . S
C709 H721 0.930 . S
C710 C706 1.524 . S
C710 H722 0.956 . S
C710 H723 0.961 . S
C710 H724 0.961 . S
C711 C708 1.539 . S
C711 H725 0.958 . S
C711 H726 0.961 . S
C711 H727 0.960 . S
H712 C696 0.931 . S
H713 C701 0.929 . S
H714 C702 0.960 . S
H715 C702 0.962 . S
H716 C702 0.960 . S
H717 C703 0.961 . S
H718 C703 0.961 . S
H719 C703 0.961 . S
H720 C704 0.931 . S
H721 C709 0.930 . S
H722 C710 0.956 . S
H723 C710 0.961 . S
H724 C710 0.961 . S
H725 C711 0.958 . S
H726 C711 0.961 . S
H727 C711 0.960 . S
C728 C729 1.391 . S
C728 C730 1.394 . S
C728 H744 0.931 . S
C729 C728 1.391 . S
C729 C733 1.376 . S
C730 C728 1.394 . S
C730 C731 1.369 . S
C730 C734 1.531 . S
C731 C730 1.369 . S
C731 C732 1.410 . S
C731 C739 1.503 . S
C732 C731 1.410 . S
C732 C733 1.392 . S
C732 C735 1.511 . S
C733 C729 1.376 . S
C733 C732 1.392 . S
C733 H745 0.929 . S
C734 C730 1.531 . S
C734 H746 0.960 . S
C734 H747 0.962 1_554 S
C734 H748 0.960 . S
C735 C732 1.511 . S
C735 H749 0.961 . S
C735 H750 0.961 . S
C735 H751 0.961 . S
C736 C737 1.370 . S
C736 C738 1.363 . S
C736 H752 0.931 . S
C737 C736 1.370 . S
C737 C741 1.408 1_556 S
C738 C736 1.363 . S
C738 C739 1.370 1_556 S
C738 C742 1.524 . S
C739 C731 1.503 . S
C739 C738 1.370 1_554 S
C739 C740 1.403 . S
C740 C739 1.403 . S
C740 C741 1.404 . S
C740 C743 1.539 . S
C741 C737 1.408 1_554 S
C741 C740 1.404 . S
C741 H753 0.930 . S
C742 C738 1.524 . S
C742 H754 0.956 . S
C742 H755 0.961 . S
C742 H756 0.961 . S
C743 C740 1.539 . S
C743 H757 0.958 . S
C743 H758 0.961 . S
C743 H759 0.960 . S
H744 C728 0.931 . S
H745 C733 0.929 . S
H746 C734 0.960 . S
H747 C734 0.962 1_556 S
H748 C734 0.960 . S
H749 C735 0.961 . S
H750 C735 0.961 . S
H751 C735 0.961 . S
H752 C736 0.931 . S
H753 C741 0.930 . S
H754 C742 0.956 . S
H755 C742 0.961 . S
H756 C742 0.961 . S
H757 C743 0.958 . S
H758 C743 0.961 . S
H759 C743 0.960 . S
C760 C761 1.391 . S
C760 C762 1.394 . S
C760 H776 0.931 . S
C761 C760 1.391 . S
C761 C765 1.376 . S
C762 C760 1.394 . S
C762 C763 1.369 . S
C762 C766 1.531 . S
C763 C762 1.369 . S
C763 C764 1.410 . S
C763 C771 1.503 1_455 S
C764 C763 1.410 . S
C764 C765 1.392 . S
C764 C767 1.511 1_455 S
C765 C761 1.376 . S
C765 C764 1.392 . S
C765 H777 0.929 . S
C766 C762 1.531 . S
C766 H778 0.960 . S
C766 H779 0.962 1_554 S
C766 H780 0.960 . S
C767 C764 1.511 1_655 S
C767 H781 0.961 . S
C767 H782 0.961 1_554 S
C767 H783 0.961 . S
C768 C769 1.370 . S
C768 C770 1.363 . S
C768 H784 0.931 . S
C769 C768 1.370 . S
C769 C773 1.408 1_556 S
C770 C768 1.363 . S
C770 C771 1.370 1_556 S
C770 C774 1.524 . S
C771 C763 1.503 1_655 S
C771 C770 1.370 1_554 S
C771 C772 1.403 . S
C772 C771 1.403 . S
C772 C773 1.404 . S
C772 C775 1.539 . S
C773 C769 1.408 1_554 S
C773 C772 1.404 . S
C773 H785 0.930 . S
C774 C770 1.524 . S
C774 H786 0.956 1_655 S
C774 H787 0.961 . S
C774 H788 0.961 . S
C775 C772 1.539 . S
C775 H789 0.958 . S
C775 H790 0.961 . S
C775 H791 0.960 . S
H776 C760 0.931 . S
H777 C765 0.929 . S
H778 C766 0.960 . S
H779 C766 0.962 1_556 S
H780 C766 0.960 . S
H781 C767 0.961 . S
H782 C767 0.961 1_556 S
H783 C767 0.961 . S
H784 C768 0.931 . S
H785 C773 0.930 . S
H786 C774 0.956 1_455 S
H787 C774 0.961 . S
H788 C774 0.961 . S
H789 C775 0.958 . S
H790 C775 0.961 . S
H791 C775 0.960 . S
C792 C793 1.391 . S
C792 C794 1.394 . S
C792 H808 0.931 . S
C793 C792 1.391 . S
C793 C797 1.376 . S
C794 C792 1.394 . S
C794 C795 1.369 . S
C794 C798 1.531 1_565 S
C795 C794 1.369 . S
C795 C796 1.410 . S
C795 C803 1.503 1_565 S
C796 C795 1.410 . S
C796 C797 1.392 . S
C796 C799 1.511 . S
C797 C793 1.376 . S
C797 C796 1.392 . S
C797 H809 0.929 . S
C798 C794 1.531 1_545 S
C798 H810 0.960 . S
C798 H811 0.962 . S
C798 H812 0.960 . S
C799 C796 1.511 . S
C799 H813 0.961 . S
C799 H814 0.961 . S
C799 H815 0.961 . S
C800 C801 1.370 . S
C800 C802 1.363 . S
C800 H816 0.931 . S
C801 C800 1.370 . S
C801 C805 1.408 . S
C802 C800 1.363 . S
C802 C803 1.370 . S
C802 C806 1.524 . S
C803 C795 1.503 1_545 S
C803 C802 1.370 . S
C803 C804 1.403 . S
C804 C803 1.403 . S
C804 C805 1.404 . S
C804 C807 1.539 1_545 S
C805 C801 1.408 . S
C805 C804 1.404 . S
C805 H817 0.930 . S
C806 C802 1.524 . S
C806 H818 0.956 . S
C806 H819 0.961 . S
C806 H820 0.961 . S
C807 C804 1.539 1_565 S
C807 H821 0.958 . S
C807 H822 0.961 . S
C807 H823 0.960 . S
H808 C792 0.931 . S
H809 C797 0.929 . S
H810 C798 0.960 . S
H811 C798 0.962 . S
H812 C798 0.960 . S
H813 C799 0.961 . S
H814 C799 0.961 . S
H815 C799 0.961 . S
H816 C800 0.931 . S
H817 C805 0.930 . S
H818 C806 0.956 . S
H819 C806 0.961 . S
H820 C806 0.961 . S
H821 C807 0.958 . S
H822 C807 0.961 . S
H823 C807 0.960 . S
C824 C825 1.391 . S
C824 C826 1.394 . S
C824 H840 0.931 . S
C825 C824 1.391 . S
C825 C829 1.376 . S
C826 C824 1.394 . S
C826 C827 1.369 . S
C826 C830 1.531 1_655 S
C827 C826 1.369 . S
C827 C828 1.410 . S
C827 C835 1.503 1_645 S
C828 C827 1.410 . S
C828 C829 1.392 . S
C828 C831 1.511 1_545 S
C829 C825 1.376 . S
C829 C828 1.392 . S
C829 H841 0.929 . S
C830 C826 1.531 1_455 S
C830 H842 0.960 1_545 S
C830 H843 0.962 . S
C830 H844 0.960 1_455 S
C831 C828 1.511 1_565 S
C831 H845 0.961 1_565 S
C831 H846 0.961 . S
C831 H847 0.961 . S
C832 C833 1.370 . S
C832 C834 1.363 . S
C832 H848 0.931 . S
C833 C832 1.370 . S
C833 C837 1.408 . S
C834 C832 1.363 . S
C834 C835 1.370 . S
C834 C838 1.524 1_565 S
C835 C827 1.503 1_465 S
C835 C834 1.370 . S
C835 C836 1.403 . S
C836 C835 1.403 . S
C836 C837 1.404 . S
C836 C839 1.539 1_455 S
C837 C833 1.408 . S
C837 C836 1.404 . S
C837 H849 0.930 . S
C838 C834 1.524 1_545 S
C838 H850 0.956 . S
C838 H851 0.961 . S
C838 H852 0.961 . S
C839 C836 1.539 1_655 S
C839 H853 0.958 . S
C839 H854 0.961 . S
C839 H855 0.960 . S
H840 C824 0.931 . S
H841 C829 0.929 . S
H842 C830 0.960 1_565 S
H843 C830 0.962 . S
H844 C830 0.960 1_655 S
H845 C831 0.961 1_545 S
H846 C831 0.961 . S
H847 C831 0.961 . S
H848 C832 0.931 . S
H849 C837 0.930 . S
H850 C838 0.956 . S
H851 C838 0.961 . S
H852 C838 0.961 . S
H853 C839 0.958 . S
H854 C839 0.961 . S
H855 C839 0.960 . S
C856 C857 1.391 1_556 S
C856 C858 1.394 . S
C856 H872 0.931 . S
C857 C856 1.391 1_554 S
C857 C861 1.376 . S
C858 C856 1.394 . S
C858 C859 1.369 1_556 S
C858 C862 1.531 . S
C859 C858 1.369 1_554 S
C859 C860 1.410 . S
C859 C867 1.503 . S
C860 C859 1.410 . S
C860 C861 1.392 . S
C860 C863 1.511 . S
C861 C857 1.376 . S
C861 C860 1.392 . S
C861 H873 0.929 . S
C862 C858 1.531 . S
C862 H874 0.960 . S
C862 H875 0.977 . S
C862 H876 0.960 . S
C863 C860 1.511 . S
C863 H877 0.961 . S
C863 H878 0.961 . S
C863 H879 0.961 . S
C864 C865 1.370 . S
C864 C866 1.363 . S
C864 H880 0.931 . S
C865 C864 1.370 . S
C865 C869 1.408 1_554 S
C866 C864 1.363 . S
C866 C867 1.370 . S
C866 C870 1.524 . S
C867 C859 1.503 . S
C867 C866 1.370 . S
C867 C868 1.403 1_554 S
C868 C867 1.403 1_556 S
C868 C869 1.404 . S
C868 C871 1.539 . S
C869 C865 1.408 1_556 S
C869 C868 1.404 . S
C869 H881 0.930 . S
C870 C866 1.524 . S
C870 H882 0.956 . S
C870 H883 0.961 . S
C870 H884 0.961 . S
C871 C868 1.539 . S
C871 H885 0.958 . S
C871 H886 0.961 . S
C871 H887 0.960 . S
H872 C856 0.931 . S
H873 C861 0.929 . S
H874 C862 0.960 . S
H875 C862 0.977 . S
H876 C862 0.960 . S
H877 C863 0.961 . S
H878 C863 0.961 . S
H879 C863 0.961 . S
H880 C864 0.931 . S
H881 C869 0.930 . S
H882 C870 0.956 . S
H883 C870 0.961 . S
H884 C870 0.961 . S
H885 C871 0.958 . S
H886 C871 0.961 . S
H887 C871 0.960 . S
C888 C889 1.391 . S
C888 C890 1.394 . S
C888 H904 0.931 . S
C889 C888 1.391 . S
C889 C893 1.376 . S
C890 C888 1.394 . S
C890 C891 1.369 . S
C890 C894 1.531 . S
C891 C890 1.369 . S
C891 C892 1.410 . S
C891 C899 1.503 1_545 S
C892 C891 1.410 . S
C892 C893 1.392 . S
C892 C895 1.511 1_545 S
C893 C889 1.376 . S
C893 C892 1.392 . S
C893 H905 0.929 . S
C894 C890 1.531 . S
C894 H906 0.960 . S
C894 H907 0.962 . S
C894 H908 0.960 . S
C895 C892 1.511 1_565 S
C895 H909 0.961 . S
C895 H910 0.961 . S
C895 H911 0.961 . S
C896 C897 1.370 . S
C896 C898 1.363 . S
C896 H912 0.931 . S
C897 C896 1.370 . S
C897 C901 1.408 . S
C898 C896 1.363 . S
C898 C899 1.370 . S
C898 C902 1.524 . S
C899 C891 1.503 1_565 S
C899 C898 1.370 . S
C899 C900 1.403 . S
C900 C899 1.403 . S
C900 C901 1.404 . S
C900 C903 1.539 . S
C901 C897 1.408 . S
C901 C900 1.404 . S
C901 H913 0.930 . S
C902 C898 1.524 . S
C902 H914 0.956 1_565 S
C902 H915 0.961 . S
C902 H916 0.961 . S
C903 C900 1.539 . S
C903 H917 0.958 1_565 S
C903 H918 0.961 . S
C903 H919 0.960 . S
H904 C888 0.931 . S
H905 C893 0.929 . S
H906 C894 0.960 . S
H907 C894 0.962 . S
H908 C894 0.960 . S
H909 C895 0.961 . S
H910 C895 0.961 . S
H911 C895 0.961 . S
H912 C896 0.931 . S
H913 C901 0.930 . S
H914 C902 0.956 1_545 S
H915 C902 0.961 . S
H916 C902 0.961 . S
H917 C903 0.958 1_545 S
H918 C903 0.961 . S
H919 C903 0.960 . S
C920 C921 1.395 . S
C920 C922 1.394 . S
C920 H936 0.926 1_556 S
C921 C920 1.395 . S
C921 C925 1.376 . S
C922 C920 1.394 . S
C922 C923 1.369 . S
C922 C926 1.531 1_556 S
C923 C922 1.369 . S
C923 C924 1.410 . S
C923 C931 1.503 . S
C924 C923 1.410 . S
C924 C925 1.392 . S
C924 C927 1.511 . S
C925 C921 1.376 . S
C925 C924 1.392 . S
C925 H937 0.929 . S
C926 C922 1.531 1_554 S
C926 H938 0.960 . S
C926 H939 0.962 . S
C926 H940 0.960 . S
C927 C924 1.511 . S
C927 H941 0.961 . S
C927 H942 0.961 . S
C927 H943 0.961 . S
C928 C929 1.370 1_554 S
C928 C930 1.363 . S
C928 H944 0.931 . S
C929 C928 1.370 1_556 S
C929 C933 1.408 . S
C930 C928 1.363 . S
C930 C931 1.370 1_554 S
C930 C934 1.524 . S
C931 C923 1.503 . S
C931 C930 1.370 1_556 S
C931 C932 1.403 . S
C932 C931 1.403 . S
C932 C933 1.404 . S
C932 C935 1.539 . S
C933 C929 1.408 . S
C933 C932 1.404 . S
C933 H945 0.930 . S
C934 C930 1.524 . S
C934 H946 0.956 . S
C934 H947 0.961 . S
C934 H948 0.961 . S
C935 C932 1.539 . S
C935 H949 0.958 . S
C935 H950 0.961 . S
C935 H951 0.960 . S
H936 C920 0.926 1_554 S
H937 C925 0.929 . S
H938 C926 0.960 . S
H939 C926 0.962 . S
H940 C926 0.960 . S
H941 C927 0.961 . S
H942 C927 0.961 . S
H943 C927 0.961 . S
H944 C928 0.931 . S
H945 C933 0.930 . S
H946 C934 0.956 . S
H947 C934 0.961 . S
H948 C934 0.961 . S
H949 C935 0.958 . S
H950 C935 0.961 . S
H951 C935 0.960 . S
C952 C953 1.391 . S
C952 C954 1.394 . S
C952 H968 0.931 . S
C953 C952 1.391 . S
C953 C957 1.376 . S
C954 C952 1.394 . S
C954 C955 1.369 . S
C954 C958 1.531 1_565 S
C955 C954 1.369 . S
C955 C956 1.410 . S
C955 C963 1.503 1_565 S
C956 C955 1.410 . S
C956 C957 1.392 . S
C956 C959 1.511 . S
C957 C953 1.376 . S
C957 C956 1.392 . S
C957 H969 0.929 . S
C958 C954 1.531 1_545 S
C958 H970 0.960 . S
C958 H971 0.962 . S
C958 H972 0.960 . S
C959 C956 1.511 . S
C959 H973 0.961 . S
C959 H974 0.961 . S
C959 H975 0.961 . S
C960 C961 1.370 . S
C960 C962 1.363 . S
C960 H976 0.931 . S
C961 C960 1.370 . S
C961 C965 1.408 . S
C962 C960 1.363 . S
C962 C963 1.370 . S
C962 C966 1.524 . S
C963 C955 1.503 1_545 S
C963 C962 1.370 . S
C963 C964 1.403 . S
C964 C963 1.403 . S
C964 C965 1.404 . S
C964 C967 1.539 1_545 S
C965 C961 1.408 . S
C965 C964 1.404 . S
C965 H977 0.930 . S
C966 C962 1.524 . S
C966 H978 0.956 . S
C966 H979 0.961 . S
C966 H980 0.961 . S
C967 C964 1.539 1_565 S
C967 H981 0.958 1_565 S
C967 H982 0.961 . S
C967 H983 0.960 . S
H968 C952 0.931 . S
H969 C957 0.929 . S
H970 C958 0.960 . S
H971 C958 0.962 . S
H972 C958 0.960 . S
H973 C959 0.961 . S
H974 C959 0.961 . S
H975 C959 0.961 . S
H976 C960 0.931 . S
H977 C965 0.930 . S
H978 C966 0.956 . S
H979 C966 0.961 . S
H980 C966 0.961 . S
H981 C967 0.958 1_545 S
H982 C967 0.961 . S
H983 C967 0.960 . S
C473 C52 1.679 . S
C481 C111 1.669 . S
C505 C229 1.656 . S
C513 C170 1.673 . S
C537 C288 1.662 . S
C545 C347 1.674 . S
C569 C406 1.680 . S
C577 C465 1.673 . S
C601 C3 1.813 . S
C609 C121 1.838 . S
C633 C180 1.813 . S
C641 C62 1.837 . S
C665 C239 1.842 . S
C673 C357 1.833 . S
C697 C416 1.831 . S
C705 C298 1.851 . S
C729 C5 1.270 . S
C737 C241 1.298 . S
C761 C64 1.273 . S
C769 C300 1.297 . S
C793 C359 1.314 . S
C801 C123 1.281 . S
C825 C418 1.261 . S
C833 C182 1.303 . S
C857 C92 1.419 . S
C865 C33 1.408 . S
C889 C151 1.371 . S
C897 C210 1.390 . S
C921 C269 1.375 . S
C929 C328 1.391 . S
C953 C387 1.374 . S
C961 C446 1.391 . S
