# Generated by pormake.
# Topology wgb, (5)-cn, num edge types: 1
# Building blocks:
#     Node 0, Type 0, BuildingBlock: BEQFEK_clean_sbu_0, # of connection points: 5
#     Node 1, Type 0, BuildingBlock: BEQFEK_clean_sbu_0, # of connection points: 5
#     Node 2, Type 0, BuildingBlock: BEQFEK_clean_sbu_0, # of connection points: 5
#     Node 3, Type 0, BuildingBlock: BEQFEK_clean_sbu_0, # of connection points: 5
#     Node 4, Type 0, BuildingBlock: BEQFEK_clean_sbu_0, # of connection points: 5
#     Node 5, Type 0, BuildingBlock: BEQFEK_clean_sbu_0, # of connection points: 5
#     Node 6, Type 0, BuildingBlock: BEQFEK_clean_sbu_0, # of connection points: 5
#     Node 7, Type 0, BuildingBlock: BEQFEK_clean_sbu_0, # of connection points: 5
#     Node 8, Type 0, BuildingBlock: BEQFEK_clean_sbu_0, # of connection points: 5
#     Node 9, Type 0, BuildingBlock: BEQFEK_clean_sbu_0, # of connection points: 5
#     Node 10, Type 0, BuildingBlock: BEQFEK_clean_sbu_0, # of connection points: 5
#     Node 11, Type 0, BuildingBlock: BEQFEK_clean_sbu_0, # of connection points: 5
#     Node 12, Type 0, BuildingBlock: BEQFEK_clean_sbu_0, # of connection points: 5
#     Node 13, Type 0, BuildingBlock: BEQFEK_clean_sbu_0, # of connection points: 5
#     Node 14, Type 0, BuildingBlock: BEQFEK_clean_sbu_0, # of connection points: 5
#     Node 15, Type 0, BuildingBlock: BEQFEK_clean_sbu_0, # of connection points: 5
#     Edge 16, Type (0, 0), None
#     Edge 17, Type (0, 0), None
#     Edge 18, Type (0, 0), None
#     Edge 19, Type (0, 0), None
#     Edge 20, Type (0, 0), None
#     Edge 21, Type (0, 0), None
#     Edge 22, Type (0, 0), None
#     Edge 23, Type (0, 0), None
#     Edge 24, Type (0, 0), None
#     Edge 25, Type (0, 0), None
#     Edge 26, Type (0, 0), None
#     Edge 27, Type (0, 0), None
#     Edge 28, Type (0, 0), None
#     Edge 29, Type (0, 0), None
#     Edge 30, Type (0, 0), None
#     Edge 31, Type (0, 0), None
#     Edge 32, Type (0, 0), None
#     Edge 33, Type (0, 0), None
#     Edge 34, Type (0, 0), None
#     Edge 35, Type (0, 0), None
#     Edge 36, Type (0, 0), None
#     Edge 37, Type (0, 0), None
#     Edge 38, Type (0, 0), None
#     Edge 39, Type (0, 0), None
#     Edge 40, Type (0, 0), None
#     Edge 41, Type (0, 0), None
#     Edge 42, Type (0, 0), None
#     Edge 43, Type (0, 0), None
#     Edge 44, Type (0, 0), None
#     Edge 45, Type (0, 0), None
#     Edge 46, Type (0, 0), None
#     Edge 47, Type (0, 0), None
#     Edge 48, Type (0, 0), None
#     Edge 49, Type (0, 0), None
#     Edge 50, Type (0, 0), None
#     Edge 51, Type (0, 0), None
#     Edge 52, Type (0, 0), None
#     Edge 53, Type (0, 0), None
#     Edge 54, Type (0, 0), None
#     Edge 55, Type (0, 0), None
# Relax obj value: 0.194
# Max RMSD: 0.155
# Mean RMSD: 0.155
data_MOF--net-wgb--node1-BEQFEK_clean_sbu_0--edge1-none
_symmetry_space_group_name_H-M    P1
_symmetry_Int_Tables_number       1
_symmetry_cell_setting            triclinic
loop_
_symmetry_equiv_pos_as_xyz
'x, y, z'
_cell_length_a     32.563935
_cell_length_b     32.563981
_cell_length_c     10.170137
_cell_angle_alpha  89.995199
_cell_angle_beta   89.994794
_cell_angle_gamma 89.999903
loop_
_atom_site_label
_atom_site_type_symbol
_atom_site_fract_x
_atom_site_fract_y
_atom_site_fract_z
_atom_type_partial_charge
Co0 Co 0.3523 0.04063 0.08918 0.0
Co1 Co 0.3325 0.1342 0.07278 0.0
C2 C 0.2954 0.07973 0.87622 0.0
O3 O 0.31324 0.04751 0.92297 0.0
O4 O 0.30393 0.11526 0.92007 0.0
C5 C 0.41864 0.97717 0.10083 0.0
O6 O 0.4436 1.00376 0.04587 0.0
C7 C 0.32672 0.22302 0.02026 0.0
C8 C 0.31953 0.24597 0.22382 0.0
C9 C 0.32281 0.25853 0.09462 0.0
N10 N 0.32587 0.19091 0.10298 0.0
N11 N 0.32142 0.20482 0.22416 0.0
C12 C 0.33654 0.2197 0.87651 0.0
H13 H 0.33861 0.1871 0.84564 0.0
H14 H 0.36618 0.23532 0.85641 0.0
H15 H 0.31337 0.23577 0.81634 0.0
C16 C 0.4257 0.08435 0.21514 0.0
N17 N 0.39356 0.0828 0.12979 0.0
N18 N 0.3877 0.12002 0.08413 0.0
C19 C 0.41744 0.1452 0.12853 0.0
C20 C 0.44201 0.1241 0.21658 0.0
C21 C 0.43603 0.05104 0.31105 0.0
H22 H 0.41077 1.0283 0.3174 0.0
H23 H 0.46482 0.0356 0.28005 0.0
H24 H 0.44139 0.06431 0.41011 0.0
O25 O 0.31219 0.04214 0.23206 0.0
O26 O 0.30226 0.10941 0.21628 0.0
H27 H 0.41002 0.20975 0.16229 0.0
H28 H 0.45521 0.19632 0.06969 0.0
C29 C 0.42237 0.18885 0.08572 0.0
H30 H 0.40629 0.19369 -0.00835 0.0
H31 H 0.32059 0.1862 0.30761 0.0
O32 O 0.38037 0.98554 0.10946 0.0
C33 C 0.2946 0.07495 0.26874 0.0
Co34 Co 0.04063 0.70743 0.80492 0.0
Co35 Co 0.1342 0.72723 0.82128 0.0
C36 C 0.07972 0.76434 0.01786 0.0
O37 O 0.04751 0.7465 -0.02886 0.0
O38 O 0.11526 0.7558 -0.02602 0.0
C39 C 0.97716 0.6411 0.79324 0.0
O40 O 1.00375 0.61613 0.84821 0.0
C41 C 0.22301 0.73301 0.87381 0.0
C42 C 0.24598 0.7402 0.67026 0.0
C43 C 0.25854 0.73692 0.79946 0.0
N44 N 0.19091 0.73386 0.79108 0.0
N45 N 0.20484 0.73831 0.6699 0.0
C46 C 0.21969 0.72319 0.01756 0.0
H47 H 0.18708 0.72111 0.04841 0.0
H48 H 0.23531 0.69356 0.03767 0.0
H49 H 0.23574 0.74637 0.07773 0.0
C50 C 0.08435 0.63403 0.67895 0.0
N51 N 0.0828 0.66617 0.7643 0.0
N52 N 0.12001 0.67204 0.80995 0.0
C53 C 0.1452 0.64229 0.76556 0.0
C54 C 0.1241 0.61772 0.67752 0.0
C55 C 0.05105 0.6237 0.58305 0.0
H56 H 1.02831 0.64896 0.5767 0.0
H57 H 0.0356 0.59491 0.61405 0.0
H58 H 0.06432 0.61834 0.48399 0.0
O59 O 0.04214 0.74755 0.66204 0.0
O60 O 0.10942 0.75747 0.67777 0.0
H61 H 0.20975 0.64971 0.7318 0.0
H62 H 0.19632 0.60452 0.82441 0.0
C63 C 0.18885 0.63737 0.80837 0.0
H64 H 0.19368 0.65345 0.90244 0.0
H65 H 0.18622 0.73914 0.58645 0.0
O66 O 0.98554 0.67936 0.78462 0.0
C67 C 0.07495 0.76513 0.62534 0.0
Co68 Co 0.70744 1.0191 0.0892 0.0
Co69 Co 0.72723 0.92553 0.07284 0.0
C70 C 0.76434 0.98001 0.87624 0.0
O71 O 0.7465 1.01222 0.92297 0.0
O72 O 0.75581 0.94447 0.92013 0.0
C73 C 0.6411 0.08257 0.10086 0.0
O74 O 0.61614 0.05598 0.0459 0.0
C75 C 0.73302 0.83672 0.0203 0.0
C76 C 0.7402 0.81375 0.22385 0.0
C77 C 0.73692 0.8012 0.09464 0.0
N78 N 0.73386 0.86882 0.10303 0.0
N79 N 0.73831 0.85489 0.22421 0.0
C80 C 0.72319 0.84004 0.87655 0.0
H81 H 0.72112 0.87265 0.8457 0.0
H82 H 0.69357 0.82442 0.85646 0.0
H83 H 0.74637 0.82399 0.81637 0.0
C84 C 0.63403 0.97538 0.21517 0.0
N85 N 0.66618 0.97693 0.12982 0.0
N86 N 0.67204 0.93972 0.08417 0.0
C87 C 0.64229 0.91453 0.12856 0.0
C88 C 0.61771 0.93564 0.21659 0.0
C89 C 0.62369 1.00868 0.31106 0.0
H90 H 0.64895 0.03143 0.31742 0.0
H91 H 0.59491 1.02413 0.28006 0.0
H92 H 0.61833 0.99541 0.41013 0.0
O93 O 0.74755 1.01759 0.23206 0.0
O94 O 0.75747 0.95032 0.21633 0.0
H95 H 0.64971 0.84998 0.16229 0.0
H96 H 0.60452 0.86342 0.06969 0.0
C97 C 0.63737 0.87089 0.08573 0.0
H98 H 0.65345 0.86606 -0.00834 0.0
H99 H 0.73914 0.87351 0.30766 0.0
O100 O 0.67937 0.07419 0.10949 0.0
C101 C 0.76513 0.98478 0.26876 0.0
Co102 Co 1.0191 0.3523 0.80487 0.0
Co103 Co 0.92553 0.3325 0.82128 0.0
C104 C 0.98001 0.29539 0.01786 0.0
O105 O 1.01222 0.31323 -0.0289 0.0
O106 O 0.94447 0.30393 -0.02601 0.0
C107 C 0.08256 0.41863 0.79324 0.0
O108 O 0.05597 0.4436 0.8482 0.0
C109 C 0.83672 0.32671 0.8738 0.0
C110 C 0.81376 0.31953 0.67025 0.0
C111 C 0.8012 0.32281 0.79945 0.0
N112 N 0.86882 0.32587 0.79109 0.0
N113 N 0.85491 0.32142 0.66991 0.0
C114 C 0.84003 0.33654 0.01755 0.0
H115 H 0.87264 0.33861 0.04842 0.0
H116 H 0.82441 0.36617 0.03764 0.0
H117 H 0.82396 0.31337 0.07773 0.0
C118 C 0.97538 0.4257 0.67892 0.0
N119 N 0.97693 0.39356 0.76426 0.0
N120 N 0.93972 0.38769 0.80992 0.0
C121 C 0.91453 0.41744 0.76553 0.0
C122 C 0.93564 0.44202 0.67749 0.0
C123 C 1.00869 0.43604 0.58302 0.0
H124 H 0.03144 0.41078 0.57666 0.0
H125 H 1.02414 0.46483 0.61402 0.0
H126 H 0.99543 0.44141 0.48395 0.0
O127 O 1.0176 0.31218 0.66201 0.0
O128 O 0.95032 0.30226 0.67779 0.0
H129 H 0.84998 0.41002 0.7318 0.0
H130 H 0.86341 0.45521 0.82439 0.0
C131 C 0.87088 0.42236 0.80836 0.0
H132 H 0.86605 0.40628 0.90243 0.0
H133 H 0.87353 0.32059 0.58646 0.0
O134 O 0.07419 0.38037 0.7846 0.0
C135 C 0.98478 0.2946 0.62533 0.0
Co136 Co 0.35228 0.5191 0.05472 0.0
Co137 Co 0.33248 0.42553 0.07108 0.0
C138 C 0.29534 0.48001 0.26762 0.0
O139 O 0.3132 0.51222 0.22092 0.0
O140 O 0.30387 0.44447 0.22373 0.0
C141 C 0.41862 0.58255 0.04317 0.0
O142 O 0.44358 0.55596 0.09814 0.0
C143 C 0.32669 0.33671 0.12357 0.0
C144 C 0.31957 0.31376 0.91999 0.0
C145 C 0.32282 0.30119 0.04919 0.0
N146 N 0.32586 0.36882 0.04085 0.0
N147 N 0.32145 0.3549 0.91966 0.0
C148 C 0.33647 0.34002 0.26735 0.0
H149 H 0.33851 0.37263 0.29824 0.0
H150 H 0.3661 0.32442 0.28752 0.0
H151 H 0.31328 0.32394 0.32744 0.0
C152 C 0.4257 0.47537 0.92887 0.0
N153 N 0.39354 0.47693 0.01417 0.0
N154 N 0.38767 0.43972 0.05985 0.0
C155 C 0.41742 0.41453 0.01552 0.0
C156 C 0.44201 0.43563 0.9275 0.0
C157 C 0.43605 0.50868 0.83297 0.0
H158 H 0.4108 0.53142 0.82658 0.0
H159 H 0.46484 0.52412 0.864 0.0
H160 H 0.44143 0.49541 0.73392 0.0
O161 O 0.31218 0.51759 0.91181 0.0
O162 O 0.30227 0.45031 0.92753 0.0
H163 H 0.41003 0.34998 -0.01815 0.0
H164 H 0.45519 0.36343 0.07453 0.0
C165 C 0.42235 0.37089 0.05841 0.0
H166 H 0.40625 0.36606 0.15246 0.0
H167 H 0.32064 0.37353 0.83621 0.0
O168 O 0.38035 0.57418 0.03448 0.0
C169 C 0.29461 0.48478 0.87508 0.0
Co170 Co 0.5191 0.70745 0.83935 0.0
Co171 Co 0.42553 0.72726 0.82304 0.0
C172 C 0.48001 0.76439 0.62648 0.0
O173 O 0.51222 0.74653 0.67315 0.0
O174 O 0.44448 0.75586 0.67039 0.0
C175 C 0.58257 0.64111 0.85093 0.0
O176 O 0.55597 0.61616 0.79596 0.0
C177 C 0.33672 0.73304 0.77054 0.0
C178 C 0.31375 0.74016 -0.02589 0.0
C179 C 0.30119 0.73691 0.8449 0.0
N180 N 0.36882 0.73387 0.85326 0.0
N181 N 0.35489 0.73828 -0.02554 0.0
C182 C 0.34004 0.72327 0.62676 0.0
H183 H 0.37265 0.72122 0.59588 0.0
H184 H 0.32443 0.69364 0.60657 0.0
H185 H 0.32397 0.74646 0.56667 0.0
C186 C 0.47537 0.63403 -0.03479 0.0
N187 N 0.47693 0.66619 0.87991 0.0
N188 N 0.43972 0.67207 0.83424 0.0
C189 C 0.41453 0.64231 0.87857 0.0
C190 C 0.43563 0.61772 -0.03342 0.0
C191 C 0.50867 0.62368 0.06111 0.0
H192 H 0.53142 0.64893 0.0675 0.0
H193 H 0.52412 0.5949 0.03007 0.0
H194 H 0.4954 0.61831 0.16016 0.0
O195 O 0.51759 0.74755 -0.01774 0.0
O196 O 0.45031 0.75747 -0.03341 0.0
H197 H 0.34998 0.6497 0.91223 0.0
H198 H 0.36344 0.60454 0.81956 0.0
C199 C 0.37089 0.63738 0.83567 0.0
H200 H 0.36607 0.65349 0.74163 0.0
H201 H 0.37351 0.73909 0.05791 0.0
O202 O 0.57419 0.67938 0.8596 0.0
C203 C 0.48478 0.76513 0.01902 0.0
Co204 Co 0.70745 0.54063 0.05476 0.0
Co205 Co 0.72726 0.6342 0.07107 0.0
C206 C 0.76439 0.57972 0.26762 0.0
O207 O 0.74653 0.54751 0.22094 0.0
O208 O 0.75586 0.61525 0.22371 0.0
C209 C 0.64111 0.47717 0.04317 0.0
O210 O 0.61615 0.50376 0.09815 0.0
C211 C 0.73304 0.72301 0.12356 0.0
C212 C 0.74016 0.74598 0.91999 0.0
C213 C 0.73691 0.75854 0.0492 0.0
N214 N 0.73387 0.69091 0.04084 0.0
N215 N 0.73828 0.70484 0.91965 0.0
C216 C 0.72326 0.71969 0.26735 0.0
H217 H 0.72121 0.68708 0.29822 0.0
H218 H 0.69364 0.7353 0.28755 0.0
H219 H 0.74646 0.73576 0.32743 0.0
C220 C 0.63404 0.58436 0.92891 0.0
N221 N 0.66619 0.5828 0.01421 0.0
N222 N 0.67206 0.62001 0.05988 0.0
C223 C 0.64231 0.6452 0.01554 0.0
C224 C 0.61773 0.62411 0.92752 0.0
C225 C 0.62369 0.55106 0.83301 0.0
H226 H 0.64895 0.52832 0.82662 0.0
H227 H 0.59491 0.53562 0.86403 0.0
H228 H 0.61832 0.56434 0.73395 0.0
O229 O 0.74755 0.54214 0.91184 0.0
O230 O 0.75747 0.60942 0.9275 0.0
H231 H 0.6497 0.70976 -0.01815 0.0
H232 H 0.60454 0.6963 0.07454 0.0
C233 C 0.63738 0.68884 0.05842 0.0
H234 H 0.65348 0.69367 0.15246 0.0
H235 H 0.73909 0.68622 0.83619 0.0
O236 O 0.67938 0.48554 0.0345 0.0
C237 C 0.76513 0.57495 0.87507 0.0
Co238 Co 0.54064 0.35228 0.83934 0.0
Co239 Co 0.6342 0.33248 0.82299 0.0
C240 C 0.57972 0.29534 0.62647 0.0
O241 O 0.54751 0.3132 0.67316 0.0
O242 O 0.61526 0.30388 0.67034 0.0
C243 C 0.47718 0.41862 0.8509 0.0
O244 O 0.50377 0.44359 0.79594 0.0
C245 C 0.72302 0.32669 0.7705 0.0
C246 C 0.74597 0.31957 -0.02592 0.0
C247 C 0.75854 0.32282 0.84488 0.0
N248 N 0.69091 0.32586 0.85322 0.0
N249 N 0.70483 0.32145 -0.02558 0.0
C250 C 0.71971 0.33647 0.62672 0.0
H251 H 0.6871 0.33851 0.59583 0.0
H252 H 0.73531 0.3661 0.60653 0.0
H253 H 0.73579 0.31328 0.56664 0.0
C254 C 0.58436 0.42569 -0.03481 0.0
N255 N 0.58281 0.39354 0.87989 0.0
N256 N 0.62002 0.38767 0.83421 0.0
C257 C 0.64521 0.41742 0.87855 0.0
C258 C 0.62411 0.44201 -0.03343 0.0
C259 C 0.55106 0.43604 0.0611 0.0
H260 H 0.52831 0.41079 0.06748 0.0
H261 H 0.53562 0.46483 0.03007 0.0
H262 H 0.56433 0.44141 0.16015 0.0
O263 O 0.54214 0.31218 -0.01773 0.0
O264 O 0.60942 0.30227 -0.03345 0.0
H265 H 0.70976 0.41003 0.91223 0.0
H266 H 0.69631 0.45519 0.81956 0.0
C267 C 0.68885 0.42235 0.83567 0.0
H268 H 0.69368 0.40625 0.74162 0.0
H269 H 0.6862 0.32064 0.05786 0.0
O270 O 0.48555 0.38036 0.85959 0.0
C271 C 0.57495 0.29461 0.01901 0.0
Co272 Co 0.8523 0.54063 0.58918 0.0
Co273 Co 0.8325 0.6342 0.57277 0.0
C274 C 0.7954 0.57972 0.37621 0.0
O275 O 0.81324 0.54751 0.42297 0.0
O276 O 0.80394 0.61526 0.42006 0.0
C277 C 0.91864 0.47717 0.60083 0.0
O278 O 0.94361 0.50376 0.54588 0.0
C279 C 0.82672 0.72301 0.52026 0.0
C280 C 0.81953 0.74597 0.72381 0.0
C281 C 0.82281 0.75853 0.59461 0.0
N282 N 0.82587 0.69091 0.60297 0.0
N283 N 0.82142 0.70482 0.72416 0.0
C284 C 0.83654 0.7197 0.37651 0.0
H285 H 0.83862 0.6871 0.34563 0.0
H286 H 0.86618 0.73532 0.35641 0.0
H287 H 0.81337 0.73577 0.31634 0.0
C288 C 0.9257 0.58435 0.71515 0.0
N289 N 0.89356 0.5828 0.62979 0.0
N290 N 0.88769 0.62002 0.58413 0.0
C291 C 0.91744 0.6452 0.62854 0.0
C292 C 0.94201 0.6241 0.71658 0.0
C293 C 0.93603 0.55105 0.81105 0.0
H294 H 0.91077 0.5283 0.8174 0.0
H295 H 0.96482 0.5356 0.78006 0.0
H296 H 0.94139 0.56431 0.91012 0.0
O297 O 0.81219 0.54213 0.73206 0.0
O298 O 0.80226 0.60941 0.71627 0.0
H299 H 0.91002 0.70975 0.66228 0.0
H300 H 0.95521 0.69632 0.56969 0.0
C301 C 0.92236 0.68885 0.58572 0.0
H302 H 0.90629 0.69369 0.49165 0.0
H303 H 0.82059 0.6862 0.8076 0.0
O304 O 0.88037 0.48554 0.60947 0.0
C305 C 0.7946 0.57495 0.76873 0.0
Co306 Co 0.54063 0.20743 0.30492 0.0
Co307 Co 0.6342 0.22723 0.32128 0.0
C308 C 0.57972 0.26434 0.51787 0.0
O309 O 0.54751 0.2465 0.47114 0.0
O310 O 0.61526 0.2558 0.47399 0.0
C311 C 0.47716 0.14109 0.29324 0.0
O312 O 0.50375 0.11612 0.3482 0.0
C313 C 0.72301 0.23302 0.37381 0.0
C314 C 0.74598 0.2402 0.17026 0.0
C315 C 0.75853 0.23692 0.29947 0.0
N316 N 0.69091 0.23386 0.29108 0.0
N317 N 0.70484 0.23831 0.16991 0.0
C318 C 0.71969 0.22319 0.51756 0.0
H319 H 0.68708 0.22111 0.54842 0.0
H320 H 0.73531 0.19356 0.53767 0.0
H321 H 0.73574 0.24637 0.57773 0.0
C322 C 0.58435 0.13403 0.17895 0.0
N323 N 0.5828 0.16617 0.2643 0.0
N324 N 0.62001 0.17204 0.30995 0.0
C325 C 0.6452 0.1423 0.26555 0.0
C326 C 0.6241 0.11772 0.17751 0.0
C327 C 0.55105 0.1237 0.08305 0.0
H328 H 0.52831 0.14896 0.07669 0.0
H329 H 0.5356 0.09491 0.11404 0.0
H330 H 0.56432 0.11834 -0.01602 0.0
O331 O 0.54214 0.24755 0.16205 0.0
O332 O 0.60941 0.25747 0.17778 0.0
H333 H 0.70975 0.14971 0.23181 0.0
H334 H 0.69632 0.10452 0.32441 0.0
C335 C 0.68885 0.13737 0.30837 0.0
H336 H 0.69368 0.15345 0.40244 0.0
H337 H 0.68622 0.23914 0.08645 0.0
O338 O 0.48554 0.17936 0.28462 0.0
C339 C 0.57495 0.26514 0.12535 0.0
Co340 Co 0.20744 0.5191 0.5892 0.0
Co341 Co 0.22724 0.42553 0.57284 0.0
C342 C 0.26434 0.48001 0.37623 0.0
O343 O 0.2465 0.51222 0.42297 0.0
O344 O 0.2558 0.44447 0.42012 0.0
C345 C 0.1411 0.58257 0.60086 0.0
O346 O 0.11613 0.55598 0.54591 0.0
C347 C 0.23302 0.33672 0.5203 0.0
C348 C 0.2402 0.31375 0.72384 0.0
C349 C 0.23692 0.3012 0.59464 0.0
N350 N 0.23387 0.36882 0.60302 0.0
N351 N 0.23831 0.35489 0.7242 0.0
C352 C 0.22319 0.34005 0.37655 0.0
H353 H 0.22112 0.37265 0.34569 0.0
H354 H 0.19357 0.32442 0.35646 0.0
H355 H 0.24637 0.32399 0.31637 0.0
C356 C 0.13403 0.47538 0.71517 0.0
N357 N 0.16618 0.47693 0.62983 0.0
N358 N 0.17204 0.43972 0.58417 0.0
C359 C 0.1423 0.41453 0.62856 0.0
C360 C 0.11772 0.43563 0.7166 0.0
C361 C 0.12369 0.50868 0.81107 0.0
H362 H 0.14895 0.53143 0.81743 0.0
H363 H 0.09491 0.52413 0.78007 0.0
H364 H 0.11833 0.49541 0.91014 0.0
O365 O 0.24755 0.5176 0.73206 0.0
O366 O 0.25747 0.45032 0.71632 0.0
H367 H 0.14971 0.34998 0.66228 0.0
H368 H 0.10453 0.36342 0.56969 0.0
C369 C 0.13737 0.37089 0.58573 0.0
H370 H 0.15345 0.36606 0.49165 0.0
H371 H 0.23914 0.37351 0.80765 0.0
O372 O 0.17936 0.57419 0.60949 0.0
C373 C 0.26514 0.48478 0.76875 0.0
Co374 Co 0.5191 0.8523 0.30487 0.0
Co375 Co 0.42553 0.8325 0.32129 0.0
C376 C 0.48001 0.7954 0.51786 0.0
O377 O 0.51222 0.81323 0.4711 0.0
O378 O 0.44447 0.80393 0.474 0.0
C379 C 0.58256 0.91864 0.29324 0.0
O380 O 0.55597 0.9436 0.34819 0.0
C381 C 0.33672 0.82671 0.37381 0.0
C382 C 0.31376 0.81953 0.17026 0.0
C383 C 0.3012 0.82281 0.29946 0.0
N384 N 0.36882 0.82587 0.29109 0.0
N385 N 0.35491 0.82142 0.16991 0.0
C386 C 0.34003 0.83654 0.51756 0.0
H387 H 0.37264 0.83861 0.54843 0.0
H388 H 0.32441 0.86617 0.53764 0.0
H389 H 0.32396 0.81337 0.57774 0.0
C390 C 0.47538 0.9257 0.17891 0.0
N391 N 0.47693 0.89356 0.26426 0.0
N392 N 0.43972 0.88769 0.30992 0.0
C393 C 0.41453 0.91744 0.26553 0.0
C394 C 0.43564 0.94201 0.17748 0.0
C395 C 0.50869 0.93604 0.08301 0.0
H396 H 0.53143 0.91078 0.07665 0.0
H397 H 0.52413 0.96483 0.11401 0.0
H398 H 0.49543 0.9414 -0.01606 0.0
O399 O 0.5176 0.81218 0.16201 0.0
O400 O 0.45032 0.80226 0.1778 0.0
H401 H 0.34998 0.91002 0.23181 0.0
H402 H 0.36341 0.95521 0.32438 0.0
C403 C 0.37088 0.92236 0.30836 0.0
H404 H 0.36605 0.90628 0.40244 0.0
H405 H 0.37353 0.82059 0.08646 0.0
O406 O 0.57419 0.88037 0.2846 0.0
C407 C 0.48478 0.7946 0.12534 0.0
Co408 Co 0.85228 1.01909 0.55472 0.0
Co409 Co 0.83248 0.92553 0.57108 0.0
C410 C 0.79535 0.98 0.76763 0.0
O411 O 0.8132 1.01222 0.72092 0.0
O412 O 0.80388 0.94447 0.72374 0.0
C413 C 0.91862 0.08255 0.54317 0.0
O414 O 0.94358 0.05596 0.59814 0.0
C415 C 0.82669 0.83671 0.62357 0.0
C416 C 0.81957 0.81376 0.41999 0.0
C417 C 0.82282 0.80119 0.54919 0.0
N418 N 0.82586 0.86882 0.54086 0.0
N419 N 0.82145 0.8549 0.41966 0.0
C420 C 0.83647 0.84002 0.76735 0.0
H421 H 0.83851 0.87263 0.79824 0.0
H422 H 0.8661 0.82442 0.78752 0.0
H423 H 0.81328 0.82394 0.82744 0.0
C424 C 0.9257 0.97537 0.42887 0.0
N425 N 0.89354 0.97693 0.51417 0.0
N426 N 0.88767 0.93971 0.55985 0.0
C427 C 0.91742 0.91453 0.51552 0.0
C428 C 0.94202 0.93563 0.4275 0.0
C429 C 0.93605 1.00868 0.33297 0.0
H430 H 0.9108 0.03142 0.32658 0.0
H431 H 0.96484 1.02412 0.364 0.0
H432 H 0.94143 0.99541 0.23392 0.0
O433 O 0.81218 1.01759 0.41181 0.0
O434 O 0.80226 0.95031 0.42754 0.0
H435 H 0.91003 0.84997 0.48185 0.0
H436 H 0.95519 0.86343 0.57452 0.0
C437 C 0.92235 0.87088 0.55841 0.0
H438 H 0.90625 0.86606 0.65245 0.0
H439 H 0.82064 0.87353 0.33621 0.0
O440 O 0.88035 0.07418 0.53448 0.0
C441 C 0.79461 0.98478 0.37509 0.0
Co442 Co 1.0191 0.20745 0.33935 0.0
Co443 Co 0.92553 0.22726 0.32304 0.0
C444 C 0.98001 0.26439 0.12647 0.0
O445 O 1.01222 0.24653 0.17315 0.0
O446 O 0.94447 0.25586 0.17038 0.0
C447 C 0.08256 0.14111 0.35093 0.0
O448 O 0.05597 0.11616 0.29595 0.0
C449 C 0.83672 0.23304 0.27054 0.0
C450 C 0.81375 0.24016 0.47411 0.0
C451 C 0.80119 0.23691 0.3449 0.0
N452 N 0.86882 0.23387 0.35326 0.0
N453 N 0.85489 0.23828 0.47445 0.0
C454 C 0.84004 0.22327 0.12676 0.0
H455 H 0.87265 0.22121 0.09588 0.0
H456 H 0.82443 0.19364 0.10657 0.0
H457 H 0.82397 0.24646 0.06666 0.0
C458 C 0.97537 0.13403 0.46521 0.0
N459 N 0.97693 0.16619 0.37991 0.0
N460 N 0.93972 0.17207 0.33424 0.0
C461 C 0.91453 0.14231 0.37857 0.0
C462 C 0.93563 0.11772 0.46659 0.0
C463 C 1.00867 0.12368 0.5611 0.0
H464 H 0.03142 0.14893 0.5675 0.0
H465 H 1.02411 0.0949 0.53007 0.0
H466 H 0.9954 0.1183 0.66016 0.0
O467 O 1.01759 0.24755 0.48226 0.0
O468 O 0.95031 0.25747 0.46658 0.0
H469 H 0.84997 0.1497 0.41224 0.0
H470 H 0.86343 0.10454 0.31956 0.0
C471 C 0.87089 0.13738 0.33568 0.0
H472 H 0.86607 0.15349 0.24164 0.0
H473 H 0.87351 0.23909 0.55791 0.0
O474 O 0.07419 0.17938 0.3596 0.0
C475 C 0.98478 0.26513 0.519 0.0
Co476 Co 0.20745 0.04063 0.55476 0.0
Co477 Co 0.22726 0.1342 0.57107 0.0
C478 C 0.26439 0.07972 0.76762 0.0
O479 O 0.24653 0.04751 0.72095 0.0
O480 O 0.25586 0.11526 0.72372 0.0
C481 C 0.14111 0.97717 0.54317 0.0
O482 O 0.11615 1.00376 0.59815 0.0
C483 C 0.23304 0.22302 0.62356 0.0
C484 C 0.24016 0.24598 0.41999 0.0
C485 C 0.23691 0.25854 0.5492 0.0
N486 N 0.23388 0.19091 0.54084 0.0
N487 N 0.23828 0.20484 0.41965 0.0
C488 C 0.22326 0.21969 0.76735 0.0
H489 H 0.22121 0.18708 0.79822 0.0
H490 H 0.19364 0.2353 0.78755 0.0
H491 H 0.24646 0.23576 0.82743 0.0
C492 C 0.13404 0.08436 0.42891 0.0
N493 N 0.16619 0.08281 0.51421 0.0
N494 N 0.17206 0.12002 0.55987 0.0
C495 C 0.14231 0.14521 0.51554 0.0
C496 C 0.11773 0.12411 0.42752 0.0
C497 C 0.12369 0.05106 0.33301 0.0
H498 H 0.14895 1.02832 0.32662 0.0
H499 H 0.09491 0.03562 0.36404 0.0
H500 H 0.11832 0.06434 0.23395 0.0
O501 O 0.24755 0.04214 0.41184 0.0
O502 O 0.25747 0.10942 0.42751 0.0
H503 H 0.1497 0.20976 0.48184 0.0
H504 H 0.10454 0.1963 0.57453 0.0
C505 C 0.13739 0.18885 0.55841 0.0
H506 H 0.15348 0.19367 0.65245 0.0
H507 H 0.23909 0.18622 0.33619 0.0
O508 O 0.17938 0.98554 0.5345 0.0
C509 C 0.26513 0.07495 0.37508 0.0
Co510 Co 0.04064 0.85228 0.33934 0.0
Co511 Co 0.13421 0.83248 0.32299 0.0
C512 C 0.07973 0.79535 0.12646 0.0
O513 O 0.04752 0.8132 0.17316 0.0
O514 O 0.11526 0.80388 0.17034 0.0
C515 C 0.97718 0.91862 0.3509 0.0
O516 O 1.00377 0.94359 0.29594 0.0
C517 C 0.22302 0.82669 0.2705 0.0
C518 C 0.24597 0.81957 0.47409 0.0
C519 C 0.25854 0.82282 0.34488 0.0
N520 N 0.19091 0.82586 0.35322 0.0
N521 N 0.20483 0.82145 0.47441 0.0
C522 C 0.21971 0.83647 0.12672 0.0
H523 H 0.1871 0.83851 0.09583 0.0
H524 H 0.23531 0.8661 0.10653 0.0
H525 H 0.23579 0.81328 0.06664 0.0
C526 C 0.08436 0.92569 0.46519 0.0
N527 N 0.08281 0.89354 0.37989 0.0
N528 N 0.12002 0.88767 0.33421 0.0
C529 C 0.14521 0.91742 0.37855 0.0
C530 C 0.12411 0.94201 0.46658 0.0
C531 C 0.05106 0.93604 0.56109 0.0
H532 H 1.02831 0.91079 0.56748 0.0
H533 H 0.03562 0.96483 0.53007 0.0
H534 H 0.06433 0.94141 0.66015 0.0
O535 O 0.04214 0.81218 0.48227 0.0
O536 O 0.10942 0.80226 0.46654 0.0
H537 H 0.20976 0.91002 0.41224 0.0
H538 H 0.19631 0.95519 0.31956 0.0
C539 C 0.18885 0.92235 0.33567 0.0
H540 H 0.19368 0.90625 0.24163 0.0
H541 H 0.1862 0.82064 0.55786 0.0
O542 O 0.98555 0.88036 0.35959 0.0
C543 C 0.07495 0.7946 0.519 0.0
loop_
_geom_bond_atom_site_label_1
_geom_bond_atom_site_label_2
_geom_bond_distance
_geom_bond_site_symmetry_2
_ccdc_geom_bond_type
Co0 O3 1.970 1_554 S
Co0 N17 1.989 . S
Co0 O25 1.967 . S
Co0 O32 1.920 1_545 S
Co1 O4 1.966 1_554 S
Co1 N10 2.022 . S
Co1 N18 1.993 . S
Co1 O26 1.941 . S
C2 O3 1.258 . S
C2 O4 1.263 . S
O3 Co0 1.970 1_556 S
O3 C2 1.258 . S
O4 Co1 1.966 1_556 S
O4 C2 1.263 . S
C5 O6 1.235 . S
C5 O32 1.289 . S
O6 C5 1.235 . S
C7 C9 1.400 . S
C7 N10 1.351 . S
C7 C12 1.501 1_554 S
C8 C9 1.387 . S
C8 N11 1.341 . S
C9 C7 1.400 . S
C9 C8 1.387 . S
N10 Co1 2.022 . S
N10 C7 1.351 . S
N10 N11 1.365 . S
N11 C8 1.341 . S
N11 N10 1.365 . S
N11 H31 0.862 . S
C12 C7 1.501 1_556 S
C12 H13 0.961 . S
C12 H14 0.961 . S
C12 H15 0.960 . S
H13 C12 0.961 . S
H14 C12 0.961 . S
H15 C12 0.960 . S
C16 N17 1.342 . S
C16 C20 1.401 . S
C16 C21 1.499 . S
N17 Co0 1.989 . S
N17 C16 1.342 . S
N17 N18 1.388 . S
N18 Co1 1.993 . S
N18 N17 1.388 . S
N18 C19 1.346 . S
C19 N18 1.346 . S
C19 C20 1.396 . S
C19 C29 1.510 . S
C20 C16 1.401 . S
C20 C19 1.396 . S
C21 C16 1.499 . S
C21 H22 0.959 . S
C21 H23 0.960 . S
C21 H24 0.961 . S
H22 C21 0.959 . S
H23 C21 0.960 . S
H24 C21 0.961 . S
O25 Co0 1.967 . S
O25 C33 1.258 . S
O26 Co1 1.941 . S
O26 C33 1.266 . S
H27 C29 0.959 . S
H28 C29 0.961 . S
C29 C19 1.510 . S
C29 H27 0.959 . S
C29 H28 0.961 . S
C29 H30 0.960 . S
H30 C29 0.960 . S
H31 N11 0.862 . S
O32 Co0 1.920 1_565 S
O32 C5 1.289 . S
C33 O25 1.258 . S
C33 O26 1.266 . S
Co34 O37 1.970 1_556 S
Co34 N51 1.989 . S
Co34 O59 1.967 . S
Co34 O66 1.920 1_455 S
Co35 O38 1.966 1_556 S
Co35 N44 2.022 . S
Co35 N52 1.993 . S
Co35 O60 1.941 . S
C36 O37 1.258 . S
C36 O38 1.263 . S
O37 Co34 1.970 1_554 S
O37 C36 1.258 . S
O38 Co35 1.966 1_554 S
O38 C36 1.263 . S
C39 O40 1.235 . S
C39 O66 1.289 . S
O40 C39 1.235 . S
C41 C43 1.400 . S
C41 N44 1.351 . S
C41 C46 1.501 1_556 S
C42 C43 1.387 . S
C42 N45 1.341 . S
C43 C41 1.400 . S
C43 C42 1.387 . S
N44 Co35 2.022 . S
N44 C41 1.351 . S
N44 N45 1.365 . S
N45 C42 1.341 . S
N45 N44 1.365 . S
N45 H65 0.862 . S
C46 C41 1.501 1_554 S
C46 H47 0.961 . S
C46 H48 0.961 . S
C46 H49 0.960 . S
H47 C46 0.961 . S
H48 C46 0.961 . S
H49 C46 0.960 . S
C50 N51 1.342 . S
C50 C54 1.401 . S
C50 C55 1.499 . S
N51 Co34 1.989 . S
N51 C50 1.342 . S
N51 N52 1.388 . S
N52 Co35 1.993 . S
N52 N51 1.388 . S
N52 C53 1.346 . S
C53 N52 1.346 . S
C53 C54 1.396 . S
C53 C63 1.510 . S
C54 C50 1.401 . S
C54 C53 1.396 . S
C55 C50 1.499 . S
C55 H56 0.959 . S
C55 H57 0.960 . S
C55 H58 0.961 . S
H56 C55 0.959 . S
H57 C55 0.960 . S
H58 C55 0.961 . S
O59 Co34 1.967 . S
O59 C67 1.258 . S
O60 Co35 1.941 . S
O60 C67 1.266 . S
H61 C63 0.959 . S
H62 C63 0.961 . S
C63 C53 1.510 . S
C63 H61 0.959 . S
C63 H62 0.961 . S
C63 H64 0.960 . S
H64 C63 0.960 . S
H65 N45 0.862 . S
O66 Co34 1.920 1_655 S
O66 C39 1.289 . S
C67 O59 1.258 . S
C67 O60 1.266 . S
Co68 O71 1.970 1_554 S
Co68 N85 1.989 . S
Co68 O93 1.967 . S
Co68 O100 1.920 1_565 S
Co69 O72 1.966 1_554 S
Co69 N78 2.022 . S
Co69 N86 1.993 . S
Co69 O94 1.941 . S
C70 O71 1.258 . S
C70 O72 1.263 . S
O71 Co68 1.970 1_556 S
O71 C70 1.258 . S
O72 Co69 1.966 1_556 S
O72 C70 1.263 . S
C73 O74 1.235 . S
C73 O100 1.289 . S
O74 C73 1.235 . S
C75 C77 1.400 . S
C75 N78 1.351 . S
C75 C80 1.501 1_554 S
C76 C77 1.387 . S
C76 N79 1.341 . S
C77 C75 1.400 . S
C77 C76 1.387 . S
N78 Co69 2.022 . S
N78 C75 1.351 . S
N78 N79 1.365 . S
N79 C76 1.341 . S
N79 N78 1.365 . S
N79 H99 0.862 . S
C80 C75 1.501 1_556 S
C80 H81 0.961 . S
C80 H82 0.961 . S
C80 H83 0.960 . S
H81 C80 0.961 . S
H82 C80 0.961 . S
H83 C80 0.960 . S
C84 N85 1.342 . S
C84 C88 1.401 . S
C84 C89 1.499 . S
N85 Co68 1.989 . S
N85 C84 1.342 . S
N85 N86 1.388 . S
N86 Co69 1.993 . S
N86 N85 1.388 . S
N86 C87 1.346 . S
C87 N86 1.346 . S
C87 C88 1.396 . S
C87 C97 1.510 . S
C88 C84 1.401 . S
C88 C87 1.396 . S
C89 C84 1.499 . S
C89 H90 0.959 . S
C89 H91 0.960 . S
C89 H92 0.961 . S
H90 C89 0.959 . S
H91 C89 0.960 . S
H92 C89 0.961 . S
O93 Co68 1.967 . S
O93 C101 1.258 . S
O94 Co69 1.941 . S
O94 C101 1.266 . S
H95 C97 0.959 . S
H96 C97 0.961 . S
C97 C87 1.510 . S
C97 H95 0.959 . S
C97 H96 0.961 . S
C97 H98 0.960 . S
H98 C97 0.960 . S
H99 N79 0.862 . S
O100 Co68 1.920 1_545 S
O100 C73 1.289 . S
C101 O93 1.258 . S
C101 O94 1.266 . S
Co102 O105 1.970 1_556 S
Co102 N119 1.989 . S
Co102 O127 1.967 . S
Co102 O134 1.920 1_655 S
Co103 O106 1.966 1_556 S
Co103 N112 2.022 . S
Co103 N120 1.993 . S
Co103 O128 1.941 . S
C104 O105 1.258 . S
C104 O106 1.263 . S
O105 Co102 1.970 1_554 S
O105 C104 1.258 . S
O106 Co103 1.966 1_554 S
O106 C104 1.263 . S
C107 O108 1.235 . S
C107 O134 1.289 . S
O108 C107 1.235 . S
C109 C111 1.400 . S
C109 N112 1.351 . S
C109 C114 1.501 1_556 S
C110 C111 1.387 . S
C110 N113 1.341 . S
C111 C109 1.400 . S
C111 C110 1.387 . S
N112 Co103 2.022 . S
N112 C109 1.351 . S
N112 N113 1.365 . S
N113 C110 1.341 . S
N113 N112 1.365 . S
N113 H133 0.862 . S
C114 C109 1.501 1_554 S
C114 H115 0.961 . S
C114 H116 0.961 . S
C114 H117 0.960 . S
H115 C114 0.961 . S
H116 C114 0.961 . S
H117 C114 0.960 . S
C118 N119 1.342 . S
C118 C122 1.401 . S
C118 C123 1.499 . S
N119 Co102 1.989 . S
N119 C118 1.342 . S
N119 N120 1.388 . S
N120 Co103 1.993 . S
N120 N119 1.388 . S
N120 C121 1.346 . S
C121 N120 1.346 . S
C121 C122 1.396 . S
C121 C131 1.510 . S
C122 C118 1.401 . S
C122 C121 1.396 . S
C123 C118 1.499 . S
C123 H124 0.959 . S
C123 H125 0.960 . S
C123 H126 0.961 . S
H124 C123 0.959 . S
H125 C123 0.960 . S
H126 C123 0.961 . S
O127 Co102 1.967 . S
O127 C135 1.258 . S
O128 Co103 1.941 . S
O128 C135 1.266 . S
H129 C131 0.959 . S
H130 C131 0.961 . S
C131 C121 1.510 . S
C131 H129 0.959 . S
C131 H130 0.961 . S
C131 H132 0.960 . S
H132 C131 0.960 . S
H133 N113 0.862 . S
O134 Co102 1.920 1_455 S
O134 C107 1.289 . S
C135 O127 1.258 . S
C135 O128 1.266 . S
Co136 O139 1.970 . S
Co136 N153 1.989 . S
Co136 O161 1.967 1_554 S
Co136 O168 1.920 . S
Co137 O140 1.966 . S
Co137 N146 2.022 . S
Co137 N154 1.993 . S
Co137 O162 1.941 1_554 S
C138 O139 1.258 . S
C138 O140 1.263 . S
O139 Co136 1.970 . S
O139 C138 1.258 . S
O140 Co137 1.966 . S
O140 C138 1.263 . S
C141 O142 1.235 . S
C141 O168 1.289 . S
O142 C141 1.235 . S
C143 C145 1.400 . S
C143 N146 1.351 . S
C143 C148 1.501 . S
C144 C145 1.387 . S
C144 N147 1.341 1_554 S
C145 C143 1.400 . S
C145 C144 1.387 . S
N146 Co137 2.022 . S
N146 C143 1.351 . S
N146 N147 1.365 1_554 S
N147 C144 1.341 1_556 S
N147 N146 1.365 1_556 S
N147 H167 0.862 . S
C148 C143 1.501 . S
C148 H149 0.961 . S
C148 H150 0.961 . S
C148 H151 0.960 . S
H149 C148 0.961 . S
H150 C148 0.961 . S
H151 C148 0.960 . S
C152 N153 1.342 . S
C152 C156 1.401 1_554 S
C152 C157 1.499 1_554 S
N153 Co136 1.989 . S
N153 C152 1.342 . S
N153 N154 1.388 . S
N154 Co137 1.993 . S
N154 N153 1.388 . S
N154 C155 1.346 . S
C155 N154 1.346 . S
C155 C156 1.396 1_554 S
C155 C165 1.510 . S
C156 C152 1.401 1_556 S
C156 C155 1.396 1_556 S
C157 C152 1.499 1_556 S
C157 H158 0.959 . S
C157 H159 0.960 1_556 S
C157 H160 0.961 . S
H158 C157 0.959 . S
H159 C157 0.960 1_554 S
H160 C157 0.961 . S
O161 Co136 1.967 1_556 S
O161 C169 1.258 . S
O162 Co137 1.941 1_556 S
O162 C169 1.266 . S
H163 C165 0.959 1_556 S
H164 C165 0.961 . S
C165 C155 1.510 . S
C165 H163 0.959 1_554 S
C165 H164 0.961 . S
C165 H166 0.960 . S
H166 C165 0.960 . S
H167 N147 0.862 . S
O168 Co136 1.920 . S
O168 C141 1.289 . S
C169 O161 1.258 . S
C169 O162 1.266 . S
Co170 O173 1.970 . S
Co170 N187 1.989 . S
Co170 O195 1.967 1_556 S
Co170 O202 1.920 . S
Co171 O174 1.966 . S
Co171 N180 2.022 . S
Co171 N188 1.993 . S
Co171 O196 1.941 1_556 S
C172 O173 1.258 . S
C172 O174 1.263 . S
O173 Co170 1.970 . S
O173 C172 1.258 . S
O174 Co171 1.966 . S
O174 C172 1.263 . S
C175 O176 1.235 . S
C175 O202 1.289 . S
O176 C175 1.235 . S
C177 C179 1.400 . S
C177 N180 1.351 . S
C177 C182 1.501 . S
C178 C179 1.387 . S
C178 N181 1.341 1_556 S
C179 C177 1.400 . S
C179 C178 1.387 . S
N180 Co171 2.022 . S
N180 C177 1.351 . S
N180 N181 1.365 1_556 S
N181 C178 1.341 1_554 S
N181 N180 1.365 1_554 S
N181 H201 0.862 . S
C182 C177 1.501 . S
C182 H183 0.961 . S
C182 H184 0.961 . S
C182 H185 0.960 . S
H183 C182 0.961 . S
H184 C182 0.961 . S
H185 C182 0.960 . S
C186 N187 1.342 . S
C186 C190 1.401 1_556 S
C186 C191 1.499 1_556 S
N187 Co170 1.989 . S
N187 C186 1.342 . S
N187 N188 1.388 . S
N188 Co171 1.993 . S
N188 N187 1.388 . S
N188 C189 1.346 . S
C189 N188 1.346 . S
C189 C190 1.396 1_556 S
C189 C199 1.510 . S
C190 C186 1.401 1_554 S
C190 C189 1.396 1_554 S
C191 C186 1.499 1_554 S
C191 H192 0.959 . S
C191 H193 0.960 1_554 S
C191 H194 0.961 . S
H192 C191 0.959 . S
H193 C191 0.960 1_556 S
H194 C191 0.961 . S
O195 Co170 1.967 1_554 S
O195 C203 1.258 . S
O196 Co171 1.941 1_554 S
O196 C203 1.266 . S
H197 C199 0.959 1_554 S
H198 C199 0.961 . S
C199 C189 1.510 . S
C199 H197 0.959 1_556 S
C199 H198 0.961 . S
C199 H200 0.960 . S
H200 C199 0.960 . S
H201 N181 0.862 . S
O202 Co170 1.920 . S
O202 C175 1.289 . S
C203 O195 1.258 . S
C203 O196 1.266 . S
Co204 O207 1.970 . S
Co204 N221 1.989 . S
Co204 O229 1.967 1_554 S
Co204 O236 1.920 . S
Co205 O208 1.966 . S
Co205 N214 2.022 . S
Co205 N222 1.993 . S
Co205 O230 1.941 1_554 S
C206 O207 1.258 . S
C206 O208 1.263 . S
O207 Co204 1.970 . S
O207 C206 1.258 . S
O208 Co205 1.966 . S
O208 C206 1.263 . S
C209 O210 1.235 . S
C209 O236 1.289 . S
O210 C209 1.235 . S
C211 C213 1.400 . S
C211 N214 1.351 . S
C211 C216 1.501 . S
C212 C213 1.387 . S
C212 N215 1.341 1_554 S
C213 C211 1.400 . S
C213 C212 1.387 . S
N214 Co205 2.022 . S
N214 C211 1.351 . S
N214 N215 1.365 1_554 S
N215 C212 1.341 1_556 S
N215 N214 1.365 1_556 S
N215 H235 0.862 . S
C216 C211 1.501 . S
C216 H217 0.961 . S
C216 H218 0.961 . S
C216 H219 0.960 . S
H217 C216 0.961 . S
H218 C216 0.961 . S
H219 C216 0.960 . S
C220 N221 1.342 . S
C220 C224 1.401 1_554 S
C220 C225 1.499 1_554 S
N221 Co204 1.989 . S
N221 C220 1.342 . S
N221 N222 1.388 . S
N222 Co205 1.993 . S
N222 N221 1.388 . S
N222 C223 1.346 . S
C223 N222 1.346 . S
C223 C224 1.396 1_554 S
C223 C233 1.510 . S
C224 C220 1.401 1_556 S
C224 C223 1.396 1_556 S
C225 C220 1.499 1_556 S
C225 H226 0.959 . S
C225 H227 0.960 1_556 S
C225 H228 0.961 . S
H226 C225 0.959 . S
H227 C225 0.960 1_554 S
H228 C225 0.961 . S
O229 Co204 1.967 1_556 S
O229 C237 1.258 . S
O230 Co205 1.941 1_556 S
O230 C237 1.266 . S
H231 C233 0.959 1_556 S
H232 C233 0.961 . S
C233 C223 1.510 . S
C233 H231 0.959 1_554 S
C233 H232 0.961 . S
C233 H234 0.960 . S
H234 C233 0.960 . S
H235 N215 0.862 . S
O236 Co204 1.920 . S
O236 C209 1.289 . S
C237 O229 1.258 . S
C237 O230 1.266 . S
Co238 O241 1.970 . S
Co238 N255 1.989 . S
Co238 O263 1.967 1_556 S
Co238 O270 1.920 . S
Co239 O242 1.966 . S
Co239 N248 2.022 . S
Co239 N256 1.993 . S
Co239 O264 1.941 1_556 S
C240 O241 1.258 . S
C240 O242 1.263 . S
O241 Co238 1.970 . S
O241 C240 1.258 . S
O242 Co239 1.966 . S
O242 C240 1.263 . S
C243 O244 1.235 . S
C243 O270 1.289 . S
O244 C243 1.235 . S
C245 C247 1.400 . S
C245 N248 1.351 . S
C245 C250 1.501 . S
C246 C247 1.387 . S
C246 N249 1.341 1_556 S
C247 C245 1.400 . S
C247 C246 1.387 . S
N248 Co239 2.022 . S
N248 C245 1.351 . S
N248 N249 1.365 1_556 S
N249 C246 1.341 1_554 S
N249 N248 1.365 1_554 S
N249 H269 0.862 . S
C250 C245 1.501 . S
C250 H251 0.961 . S
C250 H252 0.961 . S
C250 H253 0.960 . S
H251 C250 0.961 . S
H252 C250 0.961 . S
H253 C250 0.960 . S
C254 N255 1.342 . S
C254 C258 1.401 1_556 S
C254 C259 1.499 1_556 S
N255 Co238 1.989 . S
N255 C254 1.342 . S
N255 N256 1.388 . S
N256 Co239 1.993 . S
N256 N255 1.388 . S
N256 C257 1.346 . S
C257 N256 1.346 . S
C257 C258 1.396 1_556 S
C257 C267 1.510 . S
C258 C254 1.401 1_554 S
C258 C257 1.396 1_554 S
C259 C254 1.499 1_554 S
C259 H260 0.959 . S
C259 H261 0.960 1_554 S
C259 H262 0.961 . S
H260 C259 0.959 . S
H261 C259 0.960 1_556 S
H262 C259 0.961 . S
O263 Co238 1.967 1_554 S
O263 C271 1.258 . S
O264 Co239 1.941 1_554 S
O264 C271 1.266 . S
H265 C267 0.959 1_554 S
H266 C267 0.961 . S
C267 C257 1.510 . S
C267 H265 0.959 1_556 S
C267 H266 0.961 . S
C267 H268 0.960 . S
H268 C267 0.960 . S
H269 N249 0.862 . S
O270 Co238 1.920 . S
O270 C243 1.289 . S
C271 O263 1.258 . S
C271 O264 1.266 . S
Co272 O275 1.970 . S
Co272 N289 1.989 . S
Co272 O297 1.967 . S
Co272 O304 1.920 . S
Co273 O276 1.966 . S
Co273 N282 2.022 . S
Co273 N290 1.993 . S
Co273 O298 1.941 . S
C274 O275 1.258 . S
C274 O276 1.263 . S
O275 Co272 1.970 . S
O275 C274 1.258 . S
O276 Co273 1.966 . S
O276 C274 1.263 . S
C277 O278 1.235 . S
C277 O304 1.289 . S
O278 C277 1.235 . S
C279 C281 1.400 . S
C279 N282 1.351 . S
C279 C284 1.501 . S
C280 C281 1.387 . S
C280 N283 1.341 . S
C281 C279 1.400 . S
C281 C280 1.387 . S
N282 Co273 2.022 . S
N282 C279 1.351 . S
N282 N283 1.365 . S
N283 C280 1.341 . S
N283 N282 1.365 . S
N283 H303 0.862 . S
C284 C279 1.501 . S
C284 H285 0.961 . S
C284 H286 0.961 . S
C284 H287 0.960 . S
H285 C284 0.961 . S
H286 C284 0.961 . S
H287 C284 0.960 . S
C288 N289 1.342 . S
C288 C292 1.401 . S
C288 C293 1.499 . S
N289 Co272 1.989 . S
N289 C288 1.342 . S
N289 N290 1.388 . S
N290 Co273 1.993 . S
N290 N289 1.388 . S
N290 C291 1.346 . S
C291 N290 1.346 . S
C291 C292 1.396 . S
C291 C301 1.510 . S
C292 C288 1.401 . S
C292 C291 1.396 . S
C293 C288 1.499 . S
C293 H294 0.959 . S
C293 H295 0.960 . S
C293 H296 0.961 . S
H294 C293 0.959 . S
H295 C293 0.960 . S
H296 C293 0.961 . S
O297 Co272 1.967 . S
O297 C305 1.258 . S
O298 Co273 1.941 . S
O298 C305 1.266 . S
H299 C301 0.959 . S
H300 C301 0.961 . S
C301 C291 1.510 . S
C301 H299 0.959 . S
C301 H300 0.961 . S
C301 H302 0.960 . S
H302 C301 0.960 . S
H303 N283 0.862 . S
O304 Co272 1.920 . S
O304 C277 1.289 . S
C305 O297 1.258 . S
C305 O298 1.266 . S
Co306 O309 1.970 . S
Co306 N323 1.989 . S
Co306 O331 1.967 . S
Co306 O338 1.920 . S
Co307 O310 1.966 . S
Co307 N316 2.022 . S
Co307 N324 1.993 . S
Co307 O332 1.941 . S
C308 O309 1.258 . S
C308 O310 1.263 . S
O309 Co306 1.970 . S
O309 C308 1.258 . S
O310 Co307 1.966 . S
O310 C308 1.263 . S
C311 O312 1.235 . S
C311 O338 1.289 . S
O312 C311 1.235 . S
C313 C315 1.400 . S
C313 N316 1.351 . S
C313 C318 1.501 . S
C314 C315 1.387 . S
C314 N317 1.341 . S
C315 C313 1.400 . S
C315 C314 1.387 . S
N316 Co307 2.022 . S
N316 C313 1.351 . S
N316 N317 1.365 . S
N317 C314 1.341 . S
N317 N316 1.365 . S
N317 H337 0.862 . S
C318 C313 1.501 . S
C318 H319 0.961 . S
C318 H320 0.961 . S
C318 H321 0.960 . S
H319 C318 0.961 . S
H320 C318 0.961 . S
H321 C318 0.960 . S
C322 N323 1.342 . S
C322 C326 1.401 . S
C322 C327 1.499 . S
N323 Co306 1.989 . S
N323 C322 1.342 . S
N323 N324 1.388 . S
N324 Co307 1.993 . S
N324 N323 1.388 . S
N324 C325 1.346 . S
C325 N324 1.346 . S
C325 C326 1.396 . S
C325 C335 1.510 . S
C326 C322 1.401 . S
C326 C325 1.396 . S
C327 C322 1.499 . S
C327 H328 0.959 . S
C327 H329 0.960 . S
C327 H330 0.961 . S
H328 C327 0.959 . S
H329 C327 0.960 . S
H330 C327 0.961 . S
O331 Co306 1.967 . S
O331 C339 1.258 . S
O332 Co307 1.941 . S
O332 C339 1.266 . S
H333 C335 0.959 . S
H334 C335 0.961 . S
C335 C325 1.510 . S
C335 H333 0.959 . S
C335 H334 0.961 . S
C335 H336 0.960 . S
H336 C335 0.960 . S
H337 N317 0.862 . S
O338 Co306 1.920 . S
O338 C311 1.289 . S
C339 O331 1.258 . S
C339 O332 1.266 . S
Co340 O343 1.970 . S
Co340 N357 1.989 . S
Co340 O365 1.967 . S
Co340 O372 1.920 . S
Co341 O344 1.966 . S
Co341 N350 2.022 . S
Co341 N358 1.993 . S
Co341 O366 1.941 . S
C342 O343 1.258 . S
C342 O344 1.263 . S
O343 Co340 1.970 . S
O343 C342 1.258 . S
O344 Co341 1.966 . S
O344 C342 1.263 . S
C345 O346 1.235 . S
C345 O372 1.289 . S
O346 C345 1.235 . S
C347 C349 1.400 . S
C347 N350 1.351 . S
C347 C352 1.501 . S
C348 C349 1.387 . S
C348 N351 1.341 . S
C349 C347 1.400 . S
C349 C348 1.387 . S
N350 Co341 2.022 . S
N350 C347 1.351 . S
N350 N351 1.365 . S
N351 C348 1.341 . S
N351 N350 1.365 . S
N351 H371 0.862 . S
C352 C347 1.501 . S
C352 H353 0.961 . S
C352 H354 0.961 . S
C352 H355 0.960 . S
H353 C352 0.961 . S
H354 C352 0.961 . S
H355 C352 0.960 . S
C356 N357 1.342 . S
C356 C360 1.401 . S
C356 C361 1.499 . S
N357 Co340 1.989 . S
N357 C356 1.342 . S
N357 N358 1.388 . S
N358 Co341 1.993 . S
N358 N357 1.388 . S
N358 C359 1.346 . S
C359 N358 1.346 . S
C359 C360 1.396 . S
C359 C369 1.510 . S
C360 C356 1.401 . S
C360 C359 1.396 . S
C361 C356 1.499 . S
C361 H362 0.959 . S
C361 H363 0.960 . S
C361 H364 0.961 . S
H362 C361 0.959 . S
H363 C361 0.960 . S
H364 C361 0.961 . S
O365 Co340 1.967 . S
O365 C373 1.258 . S
O366 Co341 1.941 . S
O366 C373 1.266 . S
H367 C369 0.959 . S
H368 C369 0.961 . S
C369 C359 1.510 . S
C369 H367 0.959 . S
C369 H368 0.961 . S
C369 H370 0.960 . S
H370 C369 0.960 . S
H371 N351 0.862 . S
O372 Co340 1.920 . S
O372 C345 1.289 . S
C373 O365 1.258 . S
C373 O366 1.266 . S
Co374 O377 1.970 . S
Co374 N391 1.989 . S
Co374 O399 1.967 . S
Co374 O406 1.920 . S
Co375 O378 1.966 . S
Co375 N384 2.022 . S
Co375 N392 1.993 . S
Co375 O400 1.941 . S
C376 O377 1.258 . S
C376 O378 1.263 . S
O377 Co374 1.970 . S
O377 C376 1.258 . S
O378 Co375 1.966 . S
O378 C376 1.263 . S
C379 O380 1.235 . S
C379 O406 1.289 . S
O380 C379 1.235 . S
C381 C383 1.400 . S
C381 N384 1.351 . S
C381 C386 1.501 . S
C382 C383 1.387 . S
C382 N385 1.341 . S
C383 C381 1.400 . S
C383 C382 1.387 . S
N384 Co375 2.022 . S
N384 C381 1.351 . S
N384 N385 1.365 . S
N385 C382 1.341 . S
N385 N384 1.365 . S
N385 H405 0.862 . S
C386 C381 1.501 . S
C386 H387 0.961 . S
C386 H388 0.961 . S
C386 H389 0.960 . S
H387 C386 0.961 . S
H388 C386 0.961 . S
H389 C386 0.960 . S
C390 N391 1.342 . S
C390 C394 1.401 . S
C390 C395 1.499 . S
N391 Co374 1.989 . S
N391 C390 1.342 . S
N391 N392 1.388 . S
N392 Co375 1.993 . S
N392 N391 1.388 . S
N392 C393 1.346 . S
C393 N392 1.346 . S
C393 C394 1.396 . S
C393 C403 1.510 . S
C394 C390 1.401 . S
C394 C393 1.396 . S
C395 C390 1.499 . S
C395 H396 0.959 . S
C395 H397 0.960 . S
C395 H398 0.961 . S
H396 C395 0.959 . S
H397 C395 0.960 . S
H398 C395 0.961 . S
O399 Co374 1.967 . S
O399 C407 1.258 . S
O400 Co375 1.941 . S
O400 C407 1.266 . S
H401 C403 0.959 . S
H402 C403 0.961 . S
C403 C393 1.510 . S
C403 H401 0.959 . S
C403 H402 0.961 . S
C403 H404 0.960 . S
H404 C403 0.960 . S
H405 N385 0.862 . S
O406 Co374 1.920 . S
O406 C379 1.289 . S
C407 O399 1.258 . S
C407 O400 1.266 . S
Co408 O411 1.970 . S
Co408 N425 1.989 . S
Co408 O433 1.967 . S
Co408 O440 1.920 1_565 S
Co409 O412 1.966 . S
Co409 N418 2.022 . S
Co409 N426 1.993 . S
Co409 O434 1.941 . S
C410 O411 1.258 . S
C410 O412 1.263 . S
O411 Co408 1.970 . S
O411 C410 1.258 . S
O412 Co409 1.966 . S
O412 C410 1.263 . S
C413 O414 1.235 . S
C413 O440 1.289 . S
O414 C413 1.235 . S
C415 C417 1.400 . S
C415 N418 1.351 . S
C415 C420 1.501 . S
C416 C417 1.387 . S
C416 N419 1.341 . S
C417 C415 1.400 . S
C417 C416 1.387 . S
N418 Co409 2.022 . S
N418 C415 1.351 . S
N418 N419 1.365 . S
N419 C416 1.341 . S
N419 N418 1.365 . S
N419 H439 0.862 . S
C420 C415 1.501 . S
C420 H421 0.961 . S
C420 H422 0.961 . S
C420 H423 0.960 . S
H421 C420 0.961 . S
H422 C420 0.961 . S
H423 C420 0.960 . S
C424 N425 1.342 . S
C424 C428 1.401 . S
C424 C429 1.499 . S
N425 Co408 1.989 . S
N425 C424 1.342 . S
N425 N426 1.388 . S
N426 Co409 1.993 . S
N426 N425 1.388 . S
N426 C427 1.346 . S
C427 N426 1.346 . S
C427 C428 1.396 . S
C427 C437 1.510 . S
C428 C424 1.401 . S
C428 C427 1.396 . S
C429 C424 1.499 . S
C429 H430 0.959 . S
C429 H431 0.960 . S
C429 H432 0.961 . S
H430 C429 0.959 . S
H431 C429 0.960 . S
H432 C429 0.961 . S
O433 Co408 1.967 . S
O433 C441 1.258 . S
O434 Co409 1.941 . S
O434 C441 1.266 . S
H435 C437 0.959 . S
H436 C437 0.961 . S
C437 C427 1.510 . S
C437 H435 0.959 . S
C437 H436 0.961 . S
C437 H438 0.960 . S
H438 C437 0.960 . S
H439 N419 0.862 . S
O440 Co408 1.920 1_545 S
O440 C413 1.289 . S
C441 O433 1.258 . S
C441 O434 1.266 . S
Co442 O445 1.970 . S
Co442 N459 1.989 . S
Co442 O467 1.967 . S
Co442 O474 1.920 1_655 S
Co443 O446 1.966 . S
Co443 N452 2.022 . S
Co443 N460 1.993 . S
Co443 O468 1.941 . S
C444 O445 1.258 . S
C444 O446 1.263 . S
O445 Co442 1.970 . S
O445 C444 1.258 . S
O446 Co443 1.966 . S
O446 C444 1.263 . S
C447 O448 1.235 . S
C447 O474 1.289 . S
O448 C447 1.235 . S
C449 C451 1.400 . S
C449 N452 1.351 . S
C449 C454 1.501 . S
C450 C451 1.387 . S
C450 N453 1.341 . S
C451 C449 1.400 . S
C451 C450 1.387 . S
N452 Co443 2.022 . S
N452 C449 1.351 . S
N452 N453 1.365 . S
N453 C450 1.341 . S
N453 N452 1.365 . S
N453 H473 0.862 . S
C454 C449 1.501 . S
C454 H455 0.961 . S
C454 H456 0.961 . S
C454 H457 0.960 . S
H455 C454 0.961 . S
H456 C454 0.961 . S
H457 C454 0.960 . S
C458 N459 1.342 . S
C458 C462 1.401 . S
C458 C463 1.499 . S
N459 Co442 1.989 . S
N459 C458 1.342 . S
N459 N460 1.388 . S
N460 Co443 1.993 . S
N460 N459 1.388 . S
N460 C461 1.346 . S
C461 N460 1.346 . S
C461 C462 1.396 . S
C461 C471 1.510 . S
C462 C458 1.401 . S
C462 C461 1.396 . S
C463 C458 1.499 . S
C463 H464 0.959 . S
C463 H465 0.960 . S
C463 H466 0.961 . S
H464 C463 0.959 . S
H465 C463 0.960 . S
H466 C463 0.961 . S
O467 Co442 1.967 . S
O467 C475 1.258 . S
O468 Co443 1.941 . S
O468 C475 1.266 . S
H469 C471 0.959 . S
H470 C471 0.961 . S
C471 C461 1.510 . S
C471 H469 0.959 . S
C471 H470 0.961 . S
C471 H472 0.960 . S
H472 C471 0.960 . S
H473 N453 0.862 . S
O474 Co442 1.920 1_455 S
O474 C447 1.289 . S
C475 O467 1.258 . S
C475 O468 1.266 . S
Co476 O479 1.970 . S
Co476 N493 1.989 . S
Co476 O501 1.967 . S
Co476 O508 1.920 1_545 S
Co477 O480 1.966 . S
Co477 N486 2.022 . S
Co477 N494 1.993 . S
Co477 O502 1.941 . S
C478 O479 1.258 . S
C478 O480 1.263 . S
O479 Co476 1.970 . S
O479 C478 1.258 . S
O480 Co477 1.966 . S
O480 C478 1.263 . S
C481 O482 1.235 . S
C481 O508 1.289 . S
O482 C481 1.235 . S
C483 C485 1.400 . S
C483 N486 1.351 . S
C483 C488 1.501 . S
C484 C485 1.387 . S
C484 N487 1.341 . S
C485 C483 1.400 . S
C485 C484 1.387 . S
N486 Co477 2.022 . S
N486 C483 1.351 . S
N486 N487 1.365 . S
N487 C484 1.341 . S
N487 N486 1.365 . S
N487 H507 0.862 . S
C488 C483 1.501 . S
C488 H489 0.961 . S
C488 H490 0.961 . S
C488 H491 0.960 . S
H489 C488 0.961 . S
H490 C488 0.961 . S
H491 C488 0.960 . S
C492 N493 1.342 . S
C492 C496 1.401 . S
C492 C497 1.499 . S
N493 Co476 1.989 . S
N493 C492 1.342 . S
N493 N494 1.388 . S
N494 Co477 1.993 . S
N494 N493 1.388 . S
N494 C495 1.346 . S
C495 N494 1.346 . S
C495 C496 1.396 . S
C495 C505 1.510 . S
C496 C492 1.401 . S
C496 C495 1.396 . S
C497 C492 1.499 . S
C497 H498 0.959 . S
C497 H499 0.960 . S
C497 H500 0.961 . S
H498 C497 0.959 . S
H499 C497 0.960 . S
H500 C497 0.961 . S
O501 Co476 1.967 . S
O501 C509 1.258 . S
O502 Co477 1.941 . S
O502 C509 1.266 . S
H503 C505 0.959 . S
H504 C505 0.961 . S
C505 C495 1.510 . S
C505 H503 0.959 . S
C505 H504 0.961 . S
C505 H506 0.960 . S
H506 C505 0.960 . S
H507 N487 0.862 . S
O508 Co476 1.920 1_565 S
O508 C481 1.289 . S
C509 O501 1.258 . S
C509 O502 1.266 . S
Co510 O513 1.970 . S
Co510 N527 1.989 . S
Co510 O535 1.967 . S
Co510 O542 1.920 1_455 S
Co511 O514 1.966 . S
Co511 N520 2.022 . S
Co511 N528 1.993 . S
Co511 O536 1.941 . S
C512 O513 1.258 . S
C512 O514 1.263 . S
O513 Co510 1.970 . S
O513 C512 1.258 . S
O514 Co511 1.966 . S
O514 C512 1.263 . S
C515 O516 1.235 . S
C515 O542 1.289 . S
O516 C515 1.235 . S
C517 C519 1.400 . S
C517 N520 1.351 . S
C517 C522 1.501 . S
C518 C519 1.387 . S
C518 N521 1.341 . S
C519 C517 1.400 . S
C519 C518 1.387 . S
N520 Co511 2.022 . S
N520 C517 1.351 . S
N520 N521 1.365 . S
N521 C518 1.341 . S
N521 N520 1.365 . S
N521 H541 0.862 . S
C522 C517 1.501 . S
C522 H523 0.961 . S
C522 H524 0.961 . S
C522 H525 0.960 . S
H523 C522 0.961 . S
H524 C522 0.961 . S
H525 C522 0.960 . S
C526 N527 1.342 . S
C526 C530 1.401 . S
C526 C531 1.499 . S
N527 Co510 1.989 . S
N527 C526 1.342 . S
N527 N528 1.388 . S
N528 Co511 1.993 . S
N528 N527 1.388 . S
N528 C529 1.346 . S
C529 N528 1.346 . S
C529 C530 1.396 . S
C529 C539 1.510 . S
C530 C526 1.401 . S
C530 C529 1.396 . S
C531 C526 1.499 . S
C531 H532 0.959 . S
C531 H533 0.960 . S
C531 H534 0.961 . S
H532 C531 0.959 . S
H533 C531 0.960 . S
H534 C531 0.961 . S
O535 Co510 1.967 . S
O535 C543 1.258 . S
O536 Co511 1.941 . S
O536 C543 1.266 . S
H537 C539 0.959 . S
H538 C539 0.961 . S
C539 C529 1.510 . S
C539 H537 0.959 . S
C539 H538 0.961 . S
C539 H540 0.960 . S
H540 C539 0.960 . S
H541 N521 0.862 . S
O542 Co510 1.920 1_655 S
O542 C515 1.289 . S
C543 O535 1.258 . S
C543 O536 1.266 . S
C33 C509 1.150 . S
C543 C67 1.150 . S
C441 C101 1.150 . S
C135 C475 1.150 . S
C169 C373 1.149 . S
C407 C203 1.149 . S
C237 C305 1.149 . S
C339 C271 1.149 . S
C145 C9 1.328 . S
C43 C179 1.328 . S
C77 C213 1.328 . S
C111 C247 1.328 . S
C417 C281 1.328 . S
C451 C315 1.328 . S
C349 C485 1.328 . S
C383 C519 1.328 . S
C2 C478 2.331 . S
C512 C36 2.331 . S
C70 C410 2.331 . S
C444 C104 2.331 . S
C342 C138 2.331 . S
C376 C172 2.331 . S
C206 C274 2.331 . S
C240 C308 2.331 . S
C5 C394 2.293 . S
C292 C39 2.293 . S
C73 C326 2.293 . S
C360 C107 2.293 . S
C190 C141 2.293 . S
C224 C175 2.293 . S
C209 C258 2.293 . S
C156 C243 2.293 . S
C122 C277 2.293 . S
C311 C20 2.293 . S
C345 C54 2.293 . S
C88 C379 2.293 . S
C462 C413 2.293 . S
C496 C447 2.293 . S
C530 C481 2.293 . S
C515 C428 2.293 . S
