# Generated by pormake.
# Topology wmi, (6)-cn, num edge types: 1
# Building blocks:
#     Node 0, Type 0, BuildingBlock: UKALOJ_clean_sbu_0, # of connection points: 6
#     Node 1, Type 0, BuildingBlock: UKALOJ_clean_sbu_0, # of connection points: 6
#     Node 2, Type 0, BuildingBlock: UKALOJ_clean_sbu_0, # of connection points: 6
#     Node 3, Type 0, BuildingBlock: UKALOJ_clean_sbu_0, # of connection points: 6
#     Node 4, Type 0, BuildingBlock: UKALOJ_clean_sbu_0, # of connection points: 6
#     Node 5, Type 0, BuildingBlock: UKALOJ_clean_sbu_0, # of connection points: 6
#     Node 6, Type 0, BuildingBlock: UKALOJ_clean_sbu_0, # of connection points: 6
#     Node 7, Type 0, BuildingBlock: UKALOJ_clean_sbu_0, # of connection points: 6
#     Node 8, Type 0, BuildingBlock: UKALOJ_clean_sbu_0, # of connection points: 6
#     Node 9, Type 0, BuildingBlock: UKALOJ_clean_sbu_0, # of connection points: 6
#     Node 10, Type 0, BuildingBlock: UKALOJ_clean_sbu_0, # of connection points: 6
#     Node 11, Type 0, BuildingBlock: UKALOJ_clean_sbu_0, # of connection points: 6
#     Node 12, Type 0, BuildingBlock: UKALOJ_clean_sbu_0, # of connection points: 6
#     Node 13, Type 0, BuildingBlock: UKALOJ_clean_sbu_0, # of connection points: 6
#     Node 14, Type 0, BuildingBlock: UKALOJ_clean_sbu_0, # of connection points: 6
#     Node 15, Type 0, BuildingBlock: UKALOJ_clean_sbu_0, # of connection points: 6
#     Node 16, Type 0, BuildingBlock: UKALOJ_clean_sbu_0, # of connection points: 6
#     Node 17, Type 0, BuildingBlock: UKALOJ_clean_sbu_0, # of connection points: 6
#     Edge 18, Type (0, 0), BuildingBlock: UVAHIK_clean_linker_0, # of connection points: 2
#     Edge 19, Type (0, 0), BuildingBlock: UVAHIK_clean_linker_0, # of connection points: 2
#     Edge 20, Type (0, 0), BuildingBlock: UVAHIK_clean_linker_0, # of connection points: 2
#     Edge 21, Type (0, 0), BuildingBlock: UVAHIK_clean_linker_0, # of connection points: 2
#     Edge 22, Type (0, 0), BuildingBlock: UVAHIK_clean_linker_0, # of connection points: 2
#     Edge 23, Type (0, 0), BuildingBlock: UVAHIK_clean_linker_0, # of connection points: 2
#     Edge 24, Type (0, 0), BuildingBlock: UVAHIK_clean_linker_0, # of connection points: 2
#     Edge 25, Type (0, 0), BuildingBlock: UVAHIK_clean_linker_0, # of connection points: 2
#     Edge 26, Type (0, 0), BuildingBlock: UVAHIK_clean_linker_0, # of connection points: 2
#     Edge 27, Type (0, 0), BuildingBlock: UVAHIK_clean_linker_0, # of connection points: 2
#     Edge 28, Type (0, 0), BuildingBlock: UVAHIK_clean_linker_0, # of connection points: 2
#     Edge 29, Type (0, 0), BuildingBlock: UVAHIK_clean_linker_0, # of connection points: 2
#     Edge 30, Type (0, 0), BuildingBlock: UVAHIK_clean_linker_0, # of connection points: 2
#     Edge 31, Type (0, 0), BuildingBlock: UVAHIK_clean_linker_0, # of connection points: 2
#     Edge 32, Type (0, 0), BuildingBlock: UVAHIK_clean_linker_0, # of connection points: 2
#     Edge 33, Type (0, 0), BuildingBlock: UVAHIK_clean_linker_0, # of connection points: 2
#     Edge 34, Type (0, 0), BuildingBlock: UVAHIK_clean_linker_0, # of connection points: 2
#     Edge 35, Type (0, 0), BuildingBlock: UVAHIK_clean_linker_0, # of connection points: 2
#     Edge 36, Type (0, 0), BuildingBlock: UVAHIK_clean_linker_0, # of connection points: 2
#     Edge 37, Type (0, 0), BuildingBlock: UVAHIK_clean_linker_0, # of connection points: 2
#     Edge 38, Type (0, 0), BuildingBlock: UVAHIK_clean_linker_0, # of connection points: 2
#     Edge 39, Type (0, 0), BuildingBlock: UVAHIK_clean_linker_0, # of connection points: 2
#     Edge 40, Type (0, 0), BuildingBlock: UVAHIK_clean_linker_0, # of connection points: 2
#     Edge 41, Type (0, 0), BuildingBlock: UVAHIK_clean_linker_0, # of connection points: 2
#     Edge 42, Type (0, 0), BuildingBlock: UVAHIK_clean_linker_0, # of connection points: 2
#     Edge 43, Type (0, 0), BuildingBlock: UVAHIK_clean_linker_0, # of connection points: 2
#     Edge 44, Type (0, 0), BuildingBlock: UVAHIK_clean_linker_0, # of connection points: 2
#     Edge 45, Type (0, 0), BuildingBlock: UVAHIK_clean_linker_0, # of connection points: 2
#     Edge 46, Type (0, 0), BuildingBlock: UVAHIK_clean_linker_0, # of connection points: 2
#     Edge 47, Type (0, 0), BuildingBlock: UVAHIK_clean_linker_0, # of connection points: 2
#     Edge 48, Type (0, 0), BuildingBlock: UVAHIK_clean_linker_0, # of connection points: 2
#     Edge 49, Type (0, 0), BuildingBlock: UVAHIK_clean_linker_0, # of connection points: 2
#     Edge 50, Type (0, 0), BuildingBlock: UVAHIK_clean_linker_0, # of connection points: 2
#     Edge 51, Type (0, 0), BuildingBlock: UVAHIK_clean_linker_0, # of connection points: 2
#     Edge 52, Type (0, 0), BuildingBlock: UVAHIK_clean_linker_0, # of connection points: 2
#     Edge 53, Type (0, 0), BuildingBlock: UVAHIK_clean_linker_0, # of connection points: 2
#     Edge 54, Type (0, 0), BuildingBlock: UVAHIK_clean_linker_0, # of connection points: 2
#     Edge 55, Type (0, 0), BuildingBlock: UVAHIK_clean_linker_0, # of connection points: 2
#     Edge 56, Type (0, 0), BuildingBlock: UVAHIK_clean_linker_0, # of connection points: 2
#     Edge 57, Type (0, 0), BuildingBlock: UVAHIK_clean_linker_0, # of connection points: 2
#     Edge 58, Type (0, 0), BuildingBlock: UVAHIK_clean_linker_0, # of connection points: 2
#     Edge 59, Type (0, 0), BuildingBlock: UVAHIK_clean_linker_0, # of connection points: 2
#     Edge 60, Type (0, 0), BuildingBlock: UVAHIK_clean_linker_0, # of connection points: 2
#     Edge 61, Type (0, 0), BuildingBlock: UVAHIK_clean_linker_0, # of connection points: 2
#     Edge 62, Type (0, 0), BuildingBlock: UVAHIK_clean_linker_0, # of connection points: 2
#     Edge 63, Type (0, 0), BuildingBlock: UVAHIK_clean_linker_0, # of connection points: 2
#     Edge 64, Type (0, 0), BuildingBlock: UVAHIK_clean_linker_0, # of connection points: 2
#     Edge 65, Type (0, 0), BuildingBlock: UVAHIK_clean_linker_0, # of connection points: 2
#     Edge 66, Type (0, 0), BuildingBlock: UVAHIK_clean_linker_0, # of connection points: 2
#     Edge 67, Type (0, 0), BuildingBlock: UVAHIK_clean_linker_0, # of connection points: 2
#     Edge 68, Type (0, 0), BuildingBlock: UVAHIK_clean_linker_0, # of connection points: 2
#     Edge 69, Type (0, 0), BuildingBlock: UVAHIK_clean_linker_0, # of connection points: 2
#     Edge 70, Type (0, 0), BuildingBlock: UVAHIK_clean_linker_0, # of connection points: 2
#     Edge 71, Type (0, 0), BuildingBlock: UVAHIK_clean_linker_0, # of connection points: 2
# Relax obj value: 0.120
# Max RMSD: 0.179
# Mean RMSD: 0.179
data_MOF--net-wmi--node1-UKALOJ_clean_sbu_0--edge1-UVAHIK_clean_linker_0
_symmetry_space_group_name_H-M    P1
_symmetry_Int_Tables_number       1
_symmetry_cell_setting            triclinic
loop_
_symmetry_equiv_pos_as_xyz
'x, y, z'
_cell_length_a     36.503914
_cell_length_b     36.521164
_cell_length_c     146.91055
_cell_angle_alpha  89.933291
_cell_angle_beta   90.034521
_cell_angle_gamma 120.05702
loop_
_atom_site_label
_atom_site_type_symbol
_atom_site_fract_x
_atom_site_fract_y
_atom_site_fract_z
_atom_type_partial_charge
Zn0 Zn 0.42089 0.01458 0.08411 0.0
O1 O 0.48505 0.06002 0.08208 0.0
C2 C 0.40286 0.08067 0.08981 0.0
Zn3 Zn 0.42606 0.02192 0.09923 0.0
C4 C 0.5075 0.07718 0.0891 0.0
O5 O 0.49041 0.06755 0.09695 0.0
C6 C 0.34021 0.95679 0.09415 0.0
O7 O 0.44428 0.97587 0.10063 0.0
O8 O 0.43895 0.96843 0.08578 0.0
N9 N 0.43393 0.03481 0.11295 0.0
C10 C 0.41563 0.01039 0.12034 0.0
C11 C 0.45635 0.07314 0.12509 0.0
N12 N 0.45937 0.07375 0.11593 0.0
N13 N 0.42888 0.03376 0.12802 0.0
C14 C 0.4252 0.02203 0.06271 0.0
C15 C 0.38265 0.95775 0.05916 0.0
N16 N 0.41138 -0.00013 0.07054 0.0
N17 N 0.38509 0.95999 0.06829 0.0
N18 N 0.40755 0.99619 0.05546 0.0
H19 H 0.45214 0.08442 0.06856 0.0
H20 H 0.4872 0.07574 0.06151 0.0
H21 H 0.44627 0.08244 0.05629 0.0
C22 C 0.45413 0.06894 0.06225 0.0
C23 C 0.38655 0.96347 0.12007 0.0
H24 H 0.39239 0.94941 0.11396 0.0
H25 H 0.3906 0.94844 0.12627 0.0
H26 H 0.35343 0.95678 0.11989 0.0
O27 O 0.36189 0.9753 0.10117 0.0
O28 O 0.35713 0.96835 0.08635 0.0
C29 C 0.44791 0.95866 0.09344 0.0
O30 O 0.4043 0.06186 0.08266 0.0
O31 O 0.40928 0.06905 0.09753 0.0
Zn32 Zn 0.02145 0.434 0.08379 0.0
O33 O 0.97918 0.45687 0.08251 0.0
C34 C 0.95254 0.34875 0.08782 0.0
Zn35 Zn 0.00975 0.42662 0.09876 0.0
C36 C 0.95849 0.45789 0.08937 0.0
O37 O 0.96334 0.44486 0.09707 0.0
C38 C 0.07565 0.40651 0.0932 0.0
O39 O 0.05487 0.49043 0.10132 0.0
O40 O 0.06947 0.49615 0.08674 0.0
N41 N -0.00501 0.41415 0.11236 0.0
C42 C 0.01898 0.42544 0.11997 0.0
C43 C 0.95586 0.38056 0.12388 0.0
N44 N 0.9558 0.38643 0.11484 0.0
N45 N -0.00484 0.40438 0.1273 0.0
C46 C 0.01641 0.43413 0.06242 0.0
C47 C 0.08157 0.47411 0.05913 0.0
N48 N 0.03808 0.44575 0.07034 0.0
N49 N 0.07852 0.47052 0.06825 0.0
N50 N 0.04309 0.4515 0.05528 0.0
H51 H 0.95396 0.4109 0.06801 0.0
H52 H 0.95737 0.41717 0.05576 0.0
H53 H 0.96022 0.3741 0.06102 0.0
C54 C 0.96921 0.4078 0.06177 0.0
C55 C 0.06458 0.45973 0.12024 0.0
H56 H 0.06726 0.48956 0.11774 0.0
H57 H 0.07793 0.46607 0.1272 0.0
H58 H 0.08364 0.45151 0.11571 0.0
O59 O 0.05709 0.4098 0.1002 0.0
O60 O 0.06489 0.41267 0.08538 0.0
C61 C 0.0761 0.51283 0.09458 0.0
O62 O 0.97211 0.37191 0.08103 0.0
O63 O 0.96377 0.36339 0.09582 0.0
Zn64 Zn 0.60567 0.60872 0.09916 0.0
O65 O 0.54146 0.59117 0.101 0.0
C66 C 0.62647 0.69384 0.09338 0.0
Zn67 Zn 0.6002 0.61099 0.08404 0.0
C68 C 0.51949 0.58696 0.09395 0.0
O69 O 0.53691 0.5947 0.08616 0.0
C70 C 0.68526 0.62895 0.0891 0.0
O71 O 0.57981 0.54626 0.08257 0.0
O72 O 0.586 0.54391 0.09742 0.0
N73 N 0.59271 0.61797 0.07044 0.0
C74 C 0.60047 0.60339 0.06266 0.0
C75 C 0.57825 0.64533 0.05895 0.0
N76 N 0.57874 0.64382 0.06809 0.0
N77 N 0.59167 0.62023 0.05534 0.0
C78 C 0.6085 0.62319 0.12018 0.0
C79 C 0.63055 0.58275 0.12509 0.0
N80 N 0.61309 0.60339 0.11289 0.0
N81 N 0.62661 0.57814 0.11598 0.0
N82 N 0.61961 0.61106 0.1279 0.0
H83 H 0.57022 0.64587 0.11384 0.0
H84 H 0.57332 0.65008 0.12611 0.0
H85 H 0.61792 0.68554 0.11927 0.0
C86 C 0.59119 0.65266 0.1198 0.0
C87 C 0.61847 0.57449 0.06229 0.0
H88 H 0.63478 0.57558 0.06872 0.0
H89 H 0.59228 0.54155 0.06129 0.0
H90 H 0.64081 0.58304 0.0565 0.0
O91 O 0.66313 0.6259 0.08215 0.0
O92 O 0.6695 0.62475 0.09701 0.0
C93 C 0.57618 0.52521 0.08975 0.0
O94 O 0.62406 0.67336 0.10056 0.0
O95 O 0.61951 0.67543 0.08572 0.0
Zn96 Zn 0.02153 0.43031 0.91466 0.0
O97 O 0.97551 0.44825 0.91284 0.0
C98 C 0.95629 0.34479 0.91997 0.0
Zn99 Zn 0.0127 0.42638 0.92974 0.0
C100 C 0.95753 0.45256 0.91982 0.0
O101 O 0.96641 0.44421 0.92765 0.0
C102 C 0.07949 0.40798 0.92459 0.0
O103 O 0.05788 0.49065 0.93157 0.0
O104 O 0.0668 0.49476 0.91673 0.0
N105 N -0.00244 0.41825 0.9433 0.0
C106 C 0.01977 0.43226 0.95112 0.0
C107 C 0.95525 0.3909 0.95472 0.0
N108 N 0.95752 0.39272 0.94558 0.0
N109 N 0.99382 0.41547 0.95839 0.0
C110 C 0.01101 0.41815 0.8936 0.0
C111 C 0.07398 0.45849 0.8889 0.0
N112 N 0.03513 0.43703 0.90099 0.0
N113 N 0.07421 0.46223 0.89803 0.0
N114 N 0.0347 0.43079 0.88595 0.0
H115 H 0.94971 0.39514 0.89984 0.0
H116 H 0.94927 0.39278 0.88754 0.0
H117 H 0.95743 0.35598 0.89411 0.0
C118 C 0.96406 0.38905 0.89381 0.0
C119 C 0.06682 0.46053 0.95156 0.0
H120 H 0.07421 0.49374 0.95237 0.0
H121 H 0.08006 0.45212 0.95748 0.0
H122 H 0.08215 0.45854 0.94523 0.0
O123 O 0.05997 0.40993 0.93157 0.0
O124 O 0.06868 0.41394 0.91674 0.0
C125 C 0.07564 0.5125 0.9245 0.0
O126 O 0.97523 0.36593 0.91292 0.0
O127 O 0.96688 0.36246 0.92771 0.0
Zn128 Zn 0.6046 0.6057 0.91488 0.0
O129 O 0.58703 0.54224 0.91256 0.0
C130 C 0.6902 0.62585 0.92083 0.0
Zn131 Zn 0.60768 0.59953 0.92996 0.0
C132 C 0.58269 0.51943 0.91945 0.0
O133 O 0.5907 0.536 0.92733 0.0
C134 C 0.62532 0.68474 0.92535 0.0
O135 O 0.54321 0.57959 0.93122 0.0
O136 O 0.53936 0.58589 0.91642 0.0
N137 N 0.61195 0.58871 0.9435 0.0
C138 C 0.60216 0.60119 0.95133 0.0
C139 C 0.62546 0.55994 0.95488 0.0
N140 N 0.62646 0.56319 0.94575 0.0
N141 N 0.61045 0.58355 0.95857 0.0
C142 C 0.62132 0.61139 0.8939 0.0
C143 C 0.58244 0.63538 0.88903 0.0
N144 N 0.60107 0.61548 0.90118 0.0
N145 N 0.57681 0.63025 0.89811 0.0
N146 N 0.61045 0.62401 0.88622 0.0
H147 H 0.64267 0.57177 0.90017 0.0
H148 H 0.64688 0.57519 0.88789 0.0
H149 H 0.68308 0.6191 0.89478 0.0
C150 C 0.6499 0.593 0.89423 0.0
C151 C 0.58257 0.62868 0.95179 0.0
H152 H 0.56516 0.62636 0.94544 0.0
H153 H 0.56075 0.61974 0.95769 0.0
H154 H 0.60799 0.66207 0.95264 0.0
O155 O 0.62292 0.66278 0.9323 0.0
O156 O 0.62052 0.66875 0.91745 0.0
C157 C 0.52143 0.57601 0.92418 0.0
O158 O 0.66954 0.62417 0.91372 0.0
O159 O 0.67201 0.61827 0.92852 0.0
Zn160 Zn 0.43297 0.023 0.92996 0.0
O161 O 0.45262 0.97795 0.93132 0.0
C162 C 0.34801 0.95624 0.92531 0.0
Zn163 Zn 0.42754 0.01466 0.91486 0.0
C164 C 0.45661 0.9605 0.92419 0.0
O165 O 0.44736 0.96951 0.91647 0.0
C166 C 0.40703 0.0795 0.9207 0.0
O167 O 0.49118 0.06102 0.91257 0.0
O168 O 0.49626 0.06926 0.92739 0.0
N169 N 0.41809 0.00114 0.90117 0.0
C170 C 0.4222 0.02521 0.89383 0.0
C171 C 0.39907 0.9623 0.88908 0.0
N172 N 0.40384 0.9621 0.89818 0.0
N173 N 0.41014 0.00151 0.88618 0.0
C174 C 0.4306 0.01641 0.95135 0.0
C175 C 0.47236 0.08102 0.95479 0.0
N176 N 0.44361 0.03836 0.94348 0.0
N177 N 0.46946 0.07844 0.94566 0.0
N178 N 0.44822 0.04259 0.95856 0.0
H179 H 0.40514 0.95394 0.94564 0.0
H180 H 0.41089 0.95654 0.95791 0.0
H181 H 0.36926 0.96179 0.95261 0.0
C182 C 0.40259 0.96938 0.9519 0.0
C183 C 0.44012 0.07214 0.89408 0.0
H184 H 0.46122 0.08646 0.90002 0.0
H185 H 0.45799 0.08694 0.88774 0.0
H186 H 0.41375 0.07881 0.89456 0.0
O187 O 0.40888 0.06066 0.9136 0.0
O188 O 0.41453 0.06887 0.92841 0.0
C189 C 0.51339 0.07887 0.91957 0.0
O190 O 0.36982 0.97556 0.93227 0.0
O191 O 0.36434 0.96733 0.91742 0.0
Zn192 Zn 0.09933 0.35927 0.43231 0.0
O193 O 0.12054 0.31606 0.4343 0.0
C194 C 0.01386 0.29098 0.4275 0.0
Zn195 Zn 0.09359 0.34801 0.4173 0.0
C196 C 0.1238 0.29669 0.42746 0.0
O197 O 0.11317 0.30309 0.41963 0.0
C198 C 0.07309 0.41367 0.42209 0.0
O199 O 0.15733 0.39404 0.41525 0.0
O200 O 0.16319 0.40665 0.42997 0.0
N201 N 0.08499 0.33137 0.40382 0.0
C202 C 0.0984 0.3528 0.3959 0.0
C203 C 0.05737 0.28786 0.39261 0.0
N204 N 0.05966 0.29106 0.40174 0.0
N205 N 0.08143 0.3261 0.38876 0.0
C206 C 0.08818 0.35 0.45346 0.0
C207 C 0.11793 0.4144 0.45764 0.0
N208 N 0.10483 0.3741 0.44594 0.0
N209 N 0.12345 0.41407 0.44859 0.0
N210 N 0.09549 0.3746 0.46091 0.0
H211 H 0.07682 0.29063 0.44773 0.0
H212 H 0.07285 0.291 0.45994 0.0
H213 H 0.0319 0.28949 0.45281 0.0
C214 C 0.06646 0.30261 0.45349 0.0
C215 C 0.1262 0.39984 0.39522 0.0
H216 H 0.12432 0.41568 0.40147 0.0
H217 H 0.15949 0.40753 0.39435 0.0
H218 H 0.11721 0.41223 0.38924 0.0
O219 O 0.07562 0.39418 0.41517 0.0
O220 O 0.07973 0.40373 0.42997 0.0
C221 C 0.17989 0.41399 0.42208 0.0
O222 O 0.03596 0.311 0.43436 0.0
O223 O 0.03008 0.30117 0.41961 0.0
Zn224 Zn 0.68994 0.77287 0.41776 0.0
O225 O 0.64547 0.79286 0.41643 0.0
C226 C 0.62161 0.6873 0.42194 0.0
Zn227 Zn 0.67919 0.76523 0.4328 0.0
C228 C 0.62688 0.79612 0.42343 0.0
O229 O 0.63436 0.78576 0.43119 0.0
C230 C 0.74478 0.74513 0.42695 0.0
O231 O 0.72554 0.82837 0.4354 0.0
O232 O 0.73637 0.83609 0.42066 0.0
N233 N 0.66488 0.75445 0.44646 0.0
C234 C 0.68871 0.75778 0.45379 0.0
C235 C 0.62559 0.73399 0.4585 0.0
N236 N 0.6257 0.73981 0.44943 0.0
N237 N 0.66474 0.74479 0.4614 0.0
C238 C 0.68414 0.77186 0.39637 0.0
C239 C 0.74884 0.81363 0.39298 0.0
N240 N 0.70597 0.78459 0.40426 0.0
N241 N 0.74611 0.81049 0.40211 0.0
N242 N 0.71044 0.78962 0.38919 0.0
H243 H 0.62153 0.7464 0.40205 0.0
H244 H 0.62441 0.75264 0.3898 0.0
H245 H 0.62937 0.71072 0.39502 0.0
C246 C 0.63707 0.74403 0.39579 0.0
C247 C 0.73567 0.77577 0.45359 0.0
H248 H 0.75025 0.79725 0.44772 0.0
H249 H 0.75022 0.7932 0.45998 0.0
H250 H 0.74239 0.74947 0.45305 0.0
O251 O 0.7251 0.74601 0.43401 0.0
O252 O 0.73525 0.75397 0.41927 0.0
C253 C 0.74457 0.85184 0.42862 0.0
O254 O 0.64228 0.70991 0.41516 0.0
O255 O 0.63164 0.70251 0.42993 0.0
Zn256 Zn 0.26542 0.94312 0.41778 0.0
O257 O 0.24635 0.8788 0.41599 0.0
C258 C 0.35088 0.96155 0.42281 0.0
Zn259 Zn 0.2709 0.93939 0.43285 0.0
C260 C 0.24222 0.85693 0.42306 0.0
O261 O 0.25124 0.87471 0.43084 0.0
C262 C 0.29108 0.02492 0.42749 0.0
O263 O 0.20708 0.92169 0.43478 0.0
O264 O 0.20131 0.92508 0.41997 0.0
N265 N 0.27837 0.9331 0.44653 0.0
C266 C 0.27374 0.95235 0.45392 0.0
C267 C 0.2963 0.91197 0.45859 0.0
N268 N 0.29222 0.90788 0.44947 0.0
N269 N 0.28514 0.93992 0.46155 0.0
C270 C 0.26617 0.93716 0.3964 0.0
C271 C 0.24268 0.97824 0.39284 0.0
N272 N 0.25792 0.95098 0.40423 0.0
N273 N 0.2432 0.97632 0.40197 0.0
N274 N 0.25685 0.95391 0.38914 0.0
H275 H 0.30234 0.91094 0.40227 0.0
H276 H 0.25941 0.8759 0.39504 0.0
H277 H 0.30699 0.91791 0.39003 0.0
C278 C 0.28516 0.90913 0.39592 0.0
C279 C 0.25605 0.98154 0.45372 0.0
H280 H 0.23512 0.97513 0.44776 0.0
H281 H 0.23804 0.97822 0.46005 0.0
H282 H 0.28254 0.01458 0.4533 0.0
O283 O 0.28945 0.00394 0.43453 0.0
O284 O 0.2834 0.0071 0.41976 0.0
C285 C 0.18444 0.91702 0.42783 0.0
O286 O 0.32927 0.95976 0.41586 0.0
O287 O 0.33428 0.95551 0.43067 0.0
Zn288 Zn 0.68483 0.76038 0.24858 0.0
O289 O 0.63884 0.77827 0.24691 0.0
C290 C 0.61943 0.67471 0.25383 0.0
Zn291 Zn 0.67642 0.75617 0.26368 0.0
C292 C 0.62105 0.78252 0.25394 0.0
O293 O 0.63005 0.77401 0.26173 0.0
C294 C 0.7434 0.73823 0.25829 0.0
O295 O 0.72172 0.82058 0.2655 0.0
O296 O 0.73016 0.8249 0.25064 0.0
N297 N 0.66177 0.74784 0.27727 0.0
C298 C 0.68414 0.76235 0.28505 0.0
C299 C 0.61993 0.72016 0.28875 0.0
N300 N 0.62192 0.72179 0.27961 0.0
N301 N 0.65848 0.74537 0.29237 0.0
C302 C 0.67344 0.74846 0.2275 0.0
C303 C 0.73628 0.78875 0.22272 0.0
N304 N 0.69785 0.76719 0.23486 0.0
N305 N 0.73685 0.79234 0.23186 0.0
N306 N 0.69688 0.76119 0.21981 0.0
H307 H 0.61241 0.72574 0.23385 0.0
H308 H 0.61152 0.72341 0.22155 0.0
H309 H 0.61956 0.6864 0.22806 0.0
C310 C 0.62646 0.71956 0.22778 0.0
C311 C 0.7311 0.79127 0.28543 0.0
H312 H 0.74642 0.78899 0.27912 0.0
H313 H 0.73793 0.82437 0.28609 0.0
H314 H 0.74476 0.78371 0.2914 0.0
O315 O 0.72419 0.73996 0.26535 0.0
O316 O 0.73199 0.74407 0.2505 0.0
C317 C 0.73923 0.84256 0.25842 0.0
O318 O 0.63859 0.6961 0.24682 0.0
O319 O 0.6301 0.692 0.26162 0.0
Zn320 Zn 0.27245 0.93791 0.24863 0.0
O321 O 0.25572 0.8745 0.24642 0.0
C322 C 0.35763 0.95914 0.25486 0.0
Zn323 Zn 0.27431 0.93247 0.26375 0.0
C324 C 0.25118 0.85234 0.25345 0.0
O325 O 0.25807 0.86938 0.26126 0.0
C326 C 0.29237 0.01717 0.25895 0.0
O327 O 0.20933 0.91217 0.2648 0.0
O328 O 0.20721 0.91769 0.24994 0.0
N329 N 0.27798 0.92194 0.27732 0.0
C330 C 0.26779 0.93448 0.28509 0.0
C331 C 0.29128 0.89357 0.28881 0.0
N332 N 0.29262 0.89663 0.27968 0.0
N333 N 0.27593 0.91708 0.2924 0.0
C334 C 0.28992 0.94334 0.22769 0.0
C335 C 0.25025 0.96617 0.22268 0.0
N336 N 0.26936 0.94733 0.23491 0.0
N337 N 0.24463 0.96138 0.23176 0.0
N338 N 0.27873 0.95529 0.21995 0.0
H339 H 0.31192 0.90454 0.23408 0.0
H340 H 0.31665 0.90791 0.22181 0.0
H341 H 0.35208 0.95213 0.22873 0.0
C342 C 0.31909 0.92566 0.22813 0.0
C343 C 0.24799 0.9618 0.28543 0.0
H344 H 0.23084 0.9593 0.27903 0.0
H345 H 0.2259 0.95286 0.29127 0.0
H346 H 0.27327 0.99525 0.28628 0.0
O347 O 0.28934 0.99541 0.26596 0.0
O348 O 0.28783 0.00087 0.25108 0.0
C349 C 0.18835 0.90815 0.25759 0.0
O350 O 0.33735 0.957 0.24766 0.0
O351 O 0.33891 0.95153 0.2625 0.0
Zn352 Zn 0.09893 0.35194 0.26324 0.0
O353 O 0.11737 0.30619 0.26447 0.0
C354 C 0.01257 0.28642 0.25905 0.0
Zn355 Zn 0.09165 0.34234 0.24818 0.0
C356 C 0.11899 0.28705 0.2574 0.0
O357 O 0.10852 0.29516 0.24971 0.0
C358 C 0.07458 0.40943 0.25398 0.0
O359 O 0.15576 0.38617 0.24569 0.0
O360 O 0.16268 0.39736 0.26041 0.0
N361 N 0.07915 0.32824 0.23456 0.0
C362 C 0.09005 0.35237 0.22696 0.0
C363 C 0.04577 0.28916 0.22302 0.0
N364 N 0.05182 0.289 0.23206 0.0
N365 N 0.06908 0.32857 0.21963 0.0
C366 C 0.09836 0.34614 0.28462 0.0
C367 C 0.14082 0.41075 0.28793 0.0
N368 N 0.11096 0.36784 0.27671 0.0
N369 N 0.13726 0.40792 0.27882 0.0
N370 N 0.11666 0.37248 0.29177 0.0
H371 H 0.07189 0.28343 0.27897 0.0
H372 H 0.07867 0.28634 0.29121 0.0
H373 H 0.03688 0.29191 0.28609 0.0
C374 C 0.07005 0.29917 0.28525 0.0
C375 C 0.12346 0.3983 0.2267 0.0
H376 H 0.15285 0.40263 0.22986 0.0
H377 H 0.13168 0.41069 0.21967 0.0
H378 H 0.11275 0.41712 0.23062 0.0
O379 O 0.0762 0.39046 0.24688 0.0
O380 O 0.0814 0.39837 0.26171 0.0
C381 C 0.17903 0.4049 0.25251 0.0
O382 O 0.03563 0.30538 0.26589 0.0
O383 O 0.02789 0.29726 0.25108 0.0
Zn384 Zn 0.75643 0.68078 0.75066 0.0
O385 O 0.82076 0.72585 0.74857 0.0
C386 C 0.7393 0.74755 0.75628 0.0
Zn387 Zn 0.76284 0.68931 0.76576 0.0
C388 C 0.84395 0.74337 0.75549 0.0
O389 O 0.8275 0.73453 0.7634 0.0
C390 C 0.67617 0.62424 0.76085 0.0
O391 O 0.78048 0.64295 0.76722 0.0
O392 O 0.77403 0.63445 0.75239 0.0
N393 N 0.7708 0.70246 0.77948 0.0
C394 C 0.75224 0.67817 0.78688 0.0
C395 C 0.79273 0.741 0.7916 0.0
N396 N 0.79611 0.74145 0.78245 0.0
N397 N 0.76516 0.70167 0.79455 0.0
C398 C 0.76073 0.68809 0.72927 0.0
C399 C 0.71788 0.62393 0.72569 0.0
N400 N 0.74674 0.66591 0.73709 0.0
N401 N 0.72026 0.62609 0.73482 0.0
N402 N 0.74301 0.66235 0.722 0.0
H403 H 0.78806 0.75049 0.73514 0.0
H404 H 0.82286 0.7416 0.72805 0.0
H405 H 0.78206 0.74861 0.72288 0.0
C406 C 0.78986 0.73498 0.72882 0.0
C407 C 0.72324 0.63122 0.78664 0.0
H408 H 0.72909 0.61708 0.78055 0.0
H409 H 0.72738 0.61636 0.79286 0.0
H410 H 0.69009 0.62441 0.78647 0.0
O411 O 0.69849 0.64321 0.76777 0.0
O412 O 0.69253 0.63486 0.75298 0.0
C413 C 0.78338 0.6251 0.76006 0.0
O414 O 0.74013 0.72822 0.74916 0.0
O415 O 0.74647 0.73659 0.764 0.0
Zn416 Zn 0.35532 0.10483 0.75088 0.0
O417 O 0.31084 0.1247 0.74955 0.0
C418 C 0.28686 0.01929 0.75519 0.0
Zn419 Zn 0.34489 0.09763 0.76592 0.0
C420 C 0.2923 0.12806 0.75654 0.0
O421 O 0.29987 0.11787 0.76431 0.0
C422 C 0.41083 0.07791 0.76009 0.0
O423 O 0.39114 0.16098 0.76841 0.0
O424 O 0.4018 0.16826 0.75367 0.0
N425 N 0.33091 0.08737 0.7796 0.0
C426 C 0.35492 0.09122 0.78692 0.0
C427 C 0.29187 0.0675 0.79167 0.0
N428 N 0.29177 0.07278 0.78258 0.0
N429 N 0.33111 0.07861 0.79456 0.0
C430 C 0.34887 0.1036 0.72952 0.0
C431 C 0.41355 0.14499 0.72604 0.0
N432 N 0.37097 0.11613 0.73737 0.0
N433 N 0.4111 0.14176 0.73517 0.0
N434 N 0.37498 0.12126 0.7223 0.0
H435 H 0.28645 0.0782 0.73531 0.0
H436 H 0.289 0.08505 0.72308 0.0
H437 H 0.2938 0.04269 0.72812 0.0
C438 C 0.30175 0.07604 0.72899 0.0
C439 C 0.4019 0.10931 0.78669 0.0
H440 H 0.4163 0.13054 0.78077 0.0
H441 H 0.41656 0.12706 0.79305 0.0
H442 H 0.40869 0.08304 0.7862 0.0
O443 O 0.39119 0.07882 0.76715 0.0
O444 O 0.40085 0.08617 0.75239 0.0
C445 C 0.41002 0.18427 0.7616 0.0
O446 O 0.30746 0.04169 0.74838 0.0
O447 O 0.29725 0.03467 0.76317 0.0
Zn448 Zn 0.93876 0.27414 0.76568 0.0
O449 O 0.87482 0.25637 0.7676 0.0
C450 C 0.95916 0.35913 0.75996 0.0
Zn451 Zn 0.93308 0.27655 0.75059 0.0
C452 C 0.85217 0.25138 0.76063 0.0
O453 O 0.86903 0.25898 0.75278 0.0
C454 C 0.01857 0.29552 0.75564 0.0
O455 O 0.91371 0.21215 0.74906 0.0
O456 O 0.91937 0.20952 0.76391 0.0
N457 N 0.92536 0.28336 0.737 0.0
C458 C 0.93358 0.26903 0.72924 0.0
C459 C 0.91004 0.30983 0.72547 0.0
N460 N 0.91059 0.30852 0.73461 0.0
N461 N 0.92422 0.28528 0.7219 0.0
C462 C 0.94218 0.28864 0.78668 0.0
C463 C 0.9648 0.24856 0.79153 0.0
N464 N 0.94653 0.26879 0.77938 0.0
N465 N 0.9604 0.24374 0.78242 0.0
N466 N 0.95381 0.27678 0.79437 0.0
H467 H 0.90342 0.311 0.78044 0.0
H468 H 0.90705 0.31537 0.79271 0.0
H469 H 0.95128 0.35087 0.78578 0.0
C470 C 0.92467 0.31795 0.78636 0.0
C471 C 0.95257 0.24097 0.7289 0.0
H472 H 0.96959 0.24301 0.73529 0.0
H473 H 0.92684 0.20771 0.72805 0.0
H474 H 0.97454 0.24952 0.72304 0.0
O475 O -0.00331 0.29281 0.74867 0.0
O476 O 0.00221 0.29033 0.76351 0.0
C477 C 0.91 0.19102 0.75622 0.0
O478 O 0.95711 0.3387 0.76712 0.0
O479 O 0.95156 0.34065 0.7523 0.0
Zn480 Zn 0.34099 0.09348 0.59687 0.0
O481 O 0.38588 0.15794 0.59855 0.0
C482 C 0.40845 0.0749 0.59232 0.0
Zn483 Zn 0.3517 0.09664 0.58184 0.0
C484 C 0.40473 0.17944 0.59152 0.0
O485 O 0.39699 0.16134 0.58379 0.0
C486 C 0.28601 0.01125 0.58723 0.0
O487 O 0.30583 0.11463 0.57964 0.0
O488 O 0.29476 0.11075 0.59439 0.0
N489 N 0.36579 0.10212 0.56818 0.0
C490 C 0.34165 0.08275 0.56082 0.0
C491 C 0.40484 0.12181 0.55611 0.0
N492 N 0.40501 0.12653 0.56521 0.0
N493 N 0.36546 0.09428 0.55319 0.0
C494 C 0.34701 0.10075 0.61824 0.0
C495 C 0.28247 0.05907 0.62177 0.0
N496 N 0.32511 0.08623 0.6104 0.0
N497 N 0.28505 0.06053 0.61264 0.0
N498 N 0.32086 0.08407 0.62549 0.0
H499 H 0.4096 0.12804 0.61241 0.0
H500 H 0.401 0.16242 0.61967 0.0
H501 H 0.40724 0.1208 0.62464 0.0
C502 C 0.39399 0.12939 0.61875 0.0
C503 C 0.29457 0.05433 0.56102 0.0
H504 H 0.28013 0.05797 0.55469 0.0
H505 H 0.28722 0.02106 0.56145 0.0
H506 H 0.28035 0.06114 0.56697 0.0
O507 O 0.30571 0.03224 0.58022 0.0
O508 O 0.29543 0.02919 0.59496 0.0
C509 C 0.28691 0.11897 0.58645 0.0
O510 O 0.38838 0.07769 0.5991 0.0
O511 O 0.39855 0.0801 0.58432 0.0
Zn512 Zn 0.93331 0.27201 0.58174 0.0
O513 O 0.91241 0.20771 0.57919 0.0
C514 C 0.0192 0.28995 0.58712 0.0
Zn515 Zn 0.93816 0.26379 0.59666 0.0
C516 C 0.91049 0.18453 0.58583 0.0
O517 O 0.92156 0.20075 0.59371 0.0
C518 C 0.95673 0.35021 0.59263 0.0
O519 O 0.87363 0.24289 0.59812 0.0
O520 O 0.86905 0.25523 0.58361 0.0
N521 N 0.94319 0.25208 0.61011 0.0
C522 C 0.93375 0.26429 0.61802 0.0
C523 C 0.95767 0.22333 0.62134 0.0
N524 N 0.95807 0.2267 0.61222 0.0
N525 N 0.94269 0.2467 0.62517 0.0
C526 C 0.94807 0.278 0.56066 0.0
C527 C 0.91856 0.31296 0.55655 0.0
N528 N 0.93038 0.28416 0.56815 0.0
N529 N 0.91195 0.30576 0.56555 0.0
N530 N 0.94152 0.29626 0.55327 0.0
H531 H 0.95972 0.22997 0.5663 0.0
H532 H 0.96406 0.23508 0.55409 0.0
H533 H 0.00458 0.27429 0.56132 0.0
C534 C 0.97009 0.25265 0.56059 0.0
C535 C 0.91382 0.29143 0.61865 0.0
H536 H 0.89591 0.28905 0.61238 0.0
H537 H 0.89234 0.28221 0.62461 0.0
H538 H 0.93908 0.32489 0.61949 0.0
O539 O 0.95318 0.32679 0.59938 0.0
O540 O 0.95224 0.33553 0.58461 0.0
C541 C 0.85165 0.24248 0.59137 0.0
O542 O -0.00268 0.28763 0.58018 0.0
O543 O 0.00244 0.28324 0.59497 0.0
Zn544 Zn 0.76831 0.68968 0.59652 0.0
O545 O 0.78723 0.64449 0.59812 0.0
C546 C 0.68262 0.62265 0.59211 0.0
Zn547 Zn 0.76187 0.67905 0.58147 0.0
C548 C 0.79067 0.62561 0.5912 0.0
O549 O 0.78114 0.63328 0.58336 0.0
C550 C 0.74275 0.74562 0.58697 0.0
O551 O 0.82535 0.72426 0.57902 0.0
O552 O 0.83209 0.73532 0.59375 0.0
N553 N 0.75182 0.66446 0.56782 0.0
C554 C 0.75602 0.68822 0.56042 0.0
C555 C 0.7315 0.62485 0.55585 0.0
N556 N 0.73673 0.62512 0.56494 0.0
N557 N 0.74313 0.66405 0.55284 0.0
C558 C 0.76617 0.68448 0.61792 0.0
C559 C 0.80842 0.74913 0.62123 0.0
N560 N 0.77934 0.70602 0.61001 0.0
N561 N 0.8055 0.74614 0.61211 0.0
N562 N 0.78398 0.71094 0.62508 0.0
H563 H 0.74017 0.62164 0.61237 0.0
H564 H 0.74601 0.62482 0.62463 0.0
H565 H 0.7046 0.63025 0.61926 0.0
C566 C 0.73784 0.63751 0.61857 0.0
C567 C 0.77477 0.73527 0.56052 0.0
H568 H 0.79612 0.74973 0.56642 0.0
H569 H 0.79256 0.74941 0.55414 0.0
H570 H 0.74885 0.74261 0.56097 0.0
O571 O 0.74398 0.72578 0.57998 0.0
O572 O 0.75052 0.7358 0.59474 0.0
C573 C 0.84844 0.7431 0.58585 0.0
O574 O 0.70479 0.64268 0.59899 0.0
O575 O 0.69868 0.6327 0.58419 0.0
C576 C 0.47812 0.92077 0.10215 0.0
C577 C 0.46677 0.93114 0.0938 0.0
C578 C 0.50021 0.89866 0.10235 0.0
C579 C 0.5269 0.83199 0.088 0.0
H580 H 0.61836 0.86419 0.10531 0.0
C581 C 0.62881 0.75609 0.08583 0.0
C582 C 0.62858 0.73526 0.0939 0.0
C583 C 0.61765 0.78742 0.08599 0.0
C584 C 0.59294 0.85501 0.10044 0.0
H585 H 0.46907 0.92582 0.07912 0.0
H586 H 0.50794 0.8881 0.07946 0.0
H587 H 0.57779 0.90102 0.10538 0.0
H588 H 0.62198 0.73493 0.10857 0.0
H589 H 0.60233 0.78954 0.10883 0.0
H590 H 0.54189 0.78613 0.08306 0.0
C591 C 0.49929 0.89631 0.08587 0.0
C592 C 0.56949 0.87578 0.10052 0.0
C593 C 0.47703 0.91808 0.08567 0.0
C594 C 0.622 0.74997 0.10224 0.0
C595 C 0.61079 0.78137 0.10239 0.0
C596 C 0.55049 0.81161 0.08788 0.0
C597 C 0.51149 0.88665 0.0942 0.0
C598 C 0.53616 0.86442 0.09429 0.0
C599 C 0.6062 0.79858 0.0942 0.0
C600 C 0.58374 0.82288 0.09408 0.0
H601 H 0.47063 0.93039 0.10853 0.0
H602 H 0.50852 0.89107 0.10888 0.0
H603 H 0.50091 0.8218 0.08325 0.0
H604 H 0.63441 0.74601 0.0793 0.0
H605 H 0.61532 0.80098 0.0796 0.0
C606 C 0.27927 0.89375 0.0871 0.0
C607 C 0.29943 0.91682 0.09499 0.0
C608 C 0.24922 0.85089 0.08769 0.0
C609 C 0.18106 0.7609 0.10228 0.0
H610 H 0.22413 0.70253 0.08757 0.0
C611 C 0.11032 0.57915 0.10398 0.0
C612 C 0.10492 0.55883 0.09555 0.0
C613 C 0.13379 0.62331 0.10455 0.0
C614 C 0.21127 0.71818 0.09163 0.0
H615 H 0.29932 0.91453 0.10975 0.0
H616 H 0.24659 0.83943 0.11075 0.0
H617 H 0.25896 0.77919 0.08706 0.0
H618 H 0.1207 0.56886 0.08118 0.0
H619 H 0.16051 0.64519 0.08214 0.0
H620 H 0.13268 0.69959 0.1067 0.0
C621 C 0.25465 0.85451 0.10412 0.0
C622 C 0.23123 0.7621 0.09133 0.0
C623 C 0.28495 0.8975 0.10354 0.0
C624 C 0.12439 0.58342 0.08779 0.0
C625 C 0.14747 0.62733 0.08835 0.0
C626 C 0.16057 0.71666 0.10249 0.0
C627 C 0.23849 0.83047 0.09617 0.0
C628 C 0.21608 0.78383 0.09656 0.0
C629 C 0.15215 0.64789 0.09671 0.0
C630 C 0.17525 0.69482 0.09708 0.0
H631 H 0.28912 0.90779 0.08041 0.0
H632 H 0.23647 0.83304 0.08146 0.0
H633 H 0.16909 0.77713 0.10642 0.0
H634 H 0.09564 0.56108 0.11008 0.0
H635 H 0.13731 0.63817 0.11112 0.0
C636 C 0.13688 0.40441 0.08632 0.0
C637 C 0.11502 0.40474 0.09416 0.0
C638 C 0.17956 0.41636 0.08683 0.0
C639 C 0.27084 0.44313 0.10169 0.0
H640 H 0.32926 0.53659 0.08479 0.0
C641 C 0.45233 0.5573 0.10304 0.0
C642 C 0.4732 0.56874 0.09459 0.0
C643 C 0.40807 0.53567 0.10344 0.0
C644 C 0.3136 0.51025 0.08947 0.0
H645 H 0.11911 0.41219 0.10885 0.0
H646 H 0.19386 0.43312 0.10971 0.0
H647 H 0.2526 0.49474 0.08447 0.0
H648 H 0.464 0.56713 0.07996 0.0
H649 H 0.38753 0.52906 0.08065 0.0
H650 H 0.33219 0.45852 0.10661 0.0
C651 C 0.17802 0.42402 0.10317 0.0
C652 C 0.26964 0.48621 0.08927 0.0
C653 C 0.13521 0.41207 0.10267 0.0
C654 C 0.44902 0.55909 0.08659 0.0
C655 C 0.40501 0.53731 0.08699 0.0
C656 C 0.31511 0.46699 0.10182 0.0
C657 C 0.20104 0.42864 0.09519 0.0
C658 C 0.24782 0.45227 0.09532 0.0
C659 C 0.38394 0.52502 0.0954 0.0
C660 C 0.33697 0.50069 0.09566 0.0
H661 H 0.12207 0.39826 0.07967 0.0
H662 H 0.19651 0.41881 0.0806 0.0
H663 H 0.25463 0.41726 0.10646 0.0
H664 H 0.47012 0.56427 0.10933 0.0
H665 H 0.3928 0.52718 0.11004 0.0
C666 C 0.92392 0.48531 0.9105 0.0
C667 C 0.93063 0.47202 0.91901 0.0
C668 C 0.90337 0.50884 0.90991 0.0
C669 C 0.87981 0.57872 0.92369 0.0
H670 H 0.7917 0.55256 0.90589 0.0
C671 C 0.75071 0.62259 0.92786 0.0
C672 C 0.73191 0.62861 0.92008 0.0
C673 C 0.78354 0.61374 0.92701 0.0
C674 C 0.81695 0.56102 0.91076 0.0
H675 H 0.91949 0.4715 0.93354 0.0
H676 H 0.88325 0.51199 0.93248 0.0
H677 H 0.82948 0.51336 0.90575 0.0
H678 H 0.7365 0.63548 0.9054 0.0
H679 H 0.79401 0.62017 0.90391 0.0
H680 H 0.86658 0.62567 0.92885 0.0
C681 C 0.89461 0.50496 0.92629 0.0
C682 C 0.83841 0.53835 0.91071 0.0
C683 C 0.91497 0.48135 0.92688 0.0
C684 C 0.74963 0.63004 0.9115 0.0
C685 C 0.78248 0.62112 0.91065 0.0
C686 C 0.85845 0.60148 0.92373 0.0
C687 C 0.88932 0.51964 0.91782 0.0
C688 C 0.86929 0.54623 0.91732 0.0
C689 C 0.79839 0.61091 0.91836 0.0
C690 C 0.82605 0.59216 0.91741 0.0
H691 H 0.93568 0.4787 0.90431 0.0
H692 H 0.8997 0.51973 0.90329 0.0
H693 H 0.90416 0.58611 0.92874 0.0
H694 H 0.73811 0.62163 0.93458 0.0
H695 H 0.79498 0.60597 0.9331 0.0
C696 C 0.41054 0.14347 0.92763 0.0
C697 C 0.40407 0.11828 0.9199 0.0
C698 C 0.41921 0.18506 0.92669 0.0
C699 C 0.47105 0.2703 0.91019 0.0
H700 H 0.44788 0.33344 0.92823 0.0
C701 C 0.5491 0.45351 0.90999 0.0
C702 C 0.56314 0.47311 0.91852 0.0
C703 C 0.52501 0.40944 0.90935 0.0
C704 C 0.45468 0.31618 0.92315 0.0
H705 H 0.39616 0.11517 0.90525 0.0
H706 H 0.41117 0.18784 0.9036 0.0
H707 H 0.4075 0.25627 0.92843 0.0
H708 H 0.56461 0.46181 0.93299 0.0
H709 H 0.52312 0.38516 0.93184 0.0
H710 H 0.51899 0.33026 0.90506 0.0
C711 C 0.4107 0.17573 0.91036 0.0
C712 C 0.43148 0.27205 0.92325 0.0
C713 C 0.40196 0.13405 0.91131 0.0
C714 C 0.55415 0.44775 0.92632 0.0
C715 C 0.52997 0.40384 0.92568 0.0
C716 C 0.49416 0.31445 0.91007 0.0
C717 C 0.4214 0.20225 0.918 0.0
C718 C 0.44021 0.24861 0.91692 0.0
C719 C 0.5144 0.38429 0.91723 0.0
C720 C 0.48701 0.33776 0.91671 0.0
H721 H 0.41202 0.13222 0.93437 0.0
H722 H 0.42739 0.2046 0.93272 0.0
H723 H 0.47903 0.25322 0.9053 0.0
H724 H 0.55545 0.47219 0.90385 0.0
H725 H 0.51348 0.39515 0.90274 0.0
C726 C 0.58033 0.11581 0.91041 0.0
C727 C 0.55959 0.10711 0.91886 0.0
C728 C 0.62456 0.13868 0.90998 0.0
C729 C 0.71885 0.20982 0.92372 0.0
H730 H 0.77811 0.17367 0.90738 0.0
C731 C 0.89534 0.28202 0.92711 0.0
C732 C 0.9171 0.30337 0.91918 0.0
C733 C 0.85282 0.25083 0.92667 0.0
C734 C 0.76181 0.18392 0.91197 0.0
H735 H 0.56889 0.11628 0.93347 0.0
H736 H 0.64534 0.15513 0.93274 0.0
H737 H 0.70053 0.13711 0.90717 0.0
H738 H 0.91305 0.3045 0.90446 0.0
H739 H 0.83859 0.25005 0.90371 0.0
H740 H 0.77974 0.25618 0.92859 0.0
C741 C 0.62777 0.14509 0.92641 0.0
C742 C 0.71755 0.16335 0.91181 0.0
C743 C 0.5838 0.12261 0.92683 0.0
C744 C 0.89704 0.28913 0.9107 0.0
C745 C 0.85438 0.25783 0.91026 0.0
C746 C 0.76278 0.22989 0.92396 0.0
C747 C 0.64873 0.15312 0.918 0.0
C748 C 0.69563 0.17597 0.91774 0.0
C749 C 0.83141 0.24034 0.9183 0.0
C750 C 0.78468 0.21699 0.91815 0.0
H751 H 0.56248 0.10423 0.90415 0.0
H752 H 0.63981 0.14489 0.90339 0.0
H753 H 0.70308 0.22104 0.92822 0.0
H754 H 0.91009 0.29168 0.93374 0.0
H755 H 0.83589 0.23703 0.93295 0.0
C756 C 0.29522 0.08398 0.43694 0.0
C757 C 0.29447 0.06684 0.42834 0.0
C758 C 0.28747 0.11762 0.43778 0.0
C759 C 0.27243 0.19648 0.42463 0.0
H760 H 0.18261 0.16874 0.44211 0.0
C761 C 0.15405 0.25493 0.42065 0.0
C762 C 0.14405 0.27059 0.42842 0.0
C763 C 0.17764 0.23462 0.42142 0.0
C764 C 0.20811 0.17734 0.4373 0.0
H765 H 0.2898 0.07464 0.4138 0.0
H766 H 0.27605 0.13274 0.41527 0.0
H767 H 0.22018 0.12934 0.44223 0.0
H768 H 0.14978 0.27598 0.44313 0.0
H769 H 0.19071 0.23999 0.44447 0.0
H770 H 0.25903 0.24337 0.41947 0.0
C771 C 0.28247 0.12035 0.42139 0.0
C772 C 0.22985 0.15495 0.43739 0.0
C773 C 0.29017 0.08678 0.42055 0.0
C774 C 0.15693 0.26422 0.43701 0.0
C775 C 0.18037 0.24366 0.43779 0.0
C776 C 0.25056 0.21873 0.42451 0.0
C777 C 0.27909 0.13484 0.43003 0.0
C778 C 0.26154 0.16355 0.43091 0.0
C779 C 0.19158 0.22934 0.42998 0.0
C780 C 0.21748 0.20864 0.4307 0.0
H781 H 0.29925 0.06991 0.44305 0.0
H782 H 0.28602 0.12879 0.44453 0.0
H783 H 0.2971 0.20427 0.41964 0.0
H784 H 0.14459 0.25929 0.41393 0.0
H785 H 0.18508 0.2231 0.41531 0.0
C786 C 0.95689 0.23649 0.43746 0.0
C787 C 0.97254 0.25198 0.4287 0.0
C788 C 0.92373 0.195 0.43863 0.0
C789 C 0.84313 0.09954 0.42621 0.0
H790 H 0.87436 0.03926 0.44345 0.0
C791 C 0.78789 0.92416 0.42208 0.0
C792 C 0.77178 0.89799 0.42978 0.0
C793 C 0.80818 0.96799 0.42296 0.0
C794 C 0.86483 0.0557 0.43872 0.0
H795 H 0.96264 0.23772 0.41427 0.0
H796 H 0.90529 0.16574 0.4163 0.0
H797 H 0.91311 0.1164 0.44332 0.0
H798 H 0.7661 0.89734 0.44449 0.0
H799 H 0.80235 0.97437 0.44602 0.0
H800 H 0.7961 0.0387 0.42134 0.0
C801 C 0.91851 0.18533 0.42228 0.0
C802 C 0.88682 0.09988 0.43867 0.0
C803 C 0.95164 0.22667 0.42112 0.0
C804 C 0.77819 0.91668 0.43843 0.0
C805 C 0.79882 0.9607 0.43931 0.0
C806 C 0.82134 0.05542 0.42623 0.0
C807 C 0.90545 0.16845 0.43106 0.0
C808 C 0.877 0.12226 0.43223 0.0
C809 C 0.81305 0.98665 0.43155 0.0
C810 C 0.83282 0.03313 0.4323 0.0
H811 H 0.97171 0.25548 0.44343 0.0
H812 H 0.91369 0.18312 0.44547 0.0
H813 H 0.83437 0.11588 0.42128 0.0
H814 H 0.78365 0.91083 0.41531 0.0
H815 H 0.81975 0.98733 0.41688 0.0
C816 C 0.11268 0.88743 0.4209 0.0
C817 C 0.13807 0.89734 0.42873 0.0
C818 C 0.06872 0.86351 0.42158 0.0
C819 C 0.9797 0.83038 0.43727 0.0
H820 H 0.92008 0.74224 0.4193 0.0
C821 C 0.79917 0.73991 0.43639 0.0
C822 C 0.78326 0.7416 0.42779 0.0
C823 C 0.84073 0.74816 0.43732 0.0
C824 C 0.93627 0.76663 0.42438 0.0
H825 H 0.13716 0.89136 0.44344 0.0
H826 H 0.06013 0.8498 0.44461 0.0
H827 H -0.00268 0.78183 0.41936 0.0
H828 H 0.79672 0.74817 0.41329 0.0
H829 H 0.86886 0.76267 0.4149 0.0
H830 H 0.91882 0.81641 0.44207 0.0
C831 C 0.07439 0.86046 0.43796 0.0
C832 C 0.98044 0.78941 0.42439 0.0
C833 C 0.11846 0.88431 0.43728 0.0
C834 C 0.80811 0.74709 0.42005 0.0
C835 C 0.84955 0.75524 0.42096 0.0
C836 C 0.93551 0.8077 0.43724 0.0
C837 C 0.04916 0.84909 0.43009 0.0
C838 C 0.00255 0.82225 0.43068 0.0
C839 C 0.86695 0.75791 0.42964 0.0
C840 C 0.91332 0.77631 0.43065 0.0
H841 H 0.12674 0.89706 0.41421 0.0
H842 H 0.05001 0.85604 0.41542 0.0
H843 H -0.00411 0.85564 0.44217 0.0
H844 H 0.78057 0.73487 0.44247 0.0
H845 H 0.853 0.74903 0.44408 0.0
C846 C 0.41768 0.95577 0.2621 0.0
C847 C 0.39957 0.96241 0.25427 0.0
C848 C 0.45061 0.94703 0.26132 0.0
C849 C 0.48413 0.89486 0.24504 0.0
H850 H 0.56984 0.91729 0.26322 0.0
C851 C 0.58819 0.81621 0.24471 0.0
C852 C 0.59449 0.80235 0.25319 0.0
C853 C 0.56833 0.84038 0.24417 0.0
C854 C 0.54589 0.91063 0.25812 0.0
H855 H 0.40564 0.97082 0.23963 0.0
H856 H 0.46331 0.9557 0.23827 0.0
H857 H 0.53338 0.95796 0.26335 0.0
H858 H 0.58326 0.80142 0.26772 0.0
H859 H 0.54805 0.84295 0.26676 0.0
H860 H 0.4958 0.84675 0.23996 0.0
C861 C 0.45116 0.95604 0.24498 0.0
C862 C 0.52521 0.93405 0.25816 0.0
C863 C 0.4182 0.96483 0.24576 0.0
C864 C 0.57902 0.8117 0.26108 0.0
C865 C 0.55929 0.83591 0.26055 0.0
C866 C 0.50487 0.87151 0.24498 0.0
C867 C 0.46621 0.94497 0.25271 0.0
C868 C 0.49338 0.92571 0.25176 0.0
C869 C 0.5545 0.8512 0.25211 0.0
C870 C 0.53519 0.87844 0.25166 0.0
H871 H 0.40437 0.95408 0.26878 0.0
H872 H 0.46143 0.93862 0.26741 0.0
H873 H 0.45926 0.88712 0.2401 0.0
H874 H 0.59984 0.80962 0.2385 0.0
H875 H 0.56505 0.85173 0.23758 0.0
C876 C 0.22526 0.78205 0.26071 0.0
C877 C 0.23376 0.80628 0.25274 0.0
C878 C 0.20421 0.73812 0.26027 0.0
C879 C 0.13303 0.64834 0.24567 0.0
H880 H 0.16452 0.58659 0.2624 0.0
C881 C 0.07883 0.46882 0.24468 0.0
C882 C 0.07313 0.44895 0.25319 0.0
C883 C 0.09054 0.51153 0.24421 0.0
C884 C 0.15498 0.60343 0.25778 0.0
H885 H 0.22813 0.80348 0.23802 0.0
H886 H 0.19215 0.72625 0.23724 0.0
H887 H 0.20582 0.66325 0.262 0.0
H888 H 0.06922 0.45636 0.26776 0.0
H889 H 0.08935 0.53065 0.26689 0.0
H890 H 0.08273 0.5877 0.2413 0.0
C891 C 0.20104 0.74144 0.24384 0.0
C892 C 0.1787 0.64735 0.25753 0.0
C893 C 0.222 0.78562 0.24428 0.0
C894 C 0.07417 0.47098 0.26111 0.0
C895 C 0.08583 0.51354 0.26063 0.0
C896 C 0.10945 0.60411 0.24585 0.0
C897 C 0.19149 0.71725 0.25185 0.0
C898 C 0.16772 0.67039 0.25157 0.0
C899 C 0.09651 0.53471 0.25223 0.0
C900 C 0.11995 0.5814 0.25201 0.0
H901 H 0.23366 0.79691 0.26734 0.0
H902 H 0.19681 0.7205 0.26659 0.0
H903 H 0.12355 0.66525 0.24106 0.0
H904 H 0.07774 0.45253 0.23845 0.0
H905 H 0.09839 0.52717 0.23764 0.0
C906 C 0.56474 0.61602 0.24425 0.0
C907 C 0.58042 0.63313 0.2529 0.0
C908 C 0.52312 0.58287 0.24323 0.0
C909 C 0.42738 0.50479 0.25603 0.0
H910 H 0.36744 0.53219 0.2379 0.0
C911 C 0.25098 0.44829 0.25925 0.0
C912 C 0.22541 0.43137 0.25149 0.0
C913 C 0.29492 0.46856 0.25855 0.0
C914 C 0.38377 0.52371 0.2429 0.0
H915 H 0.56622 0.62583 0.26735 0.0
H916 H 0.494 0.5685 0.26559 0.0
H917 H 0.44458 0.57135 0.23817 0.0
H918 H 0.22605 0.42391 0.23685 0.0
H919 H 0.3032 0.46007 0.23563 0.0
H920 H 0.3664 0.45834 0.26098 0.0
C921 C 0.51358 0.58056 0.25956 0.0
C922 C 0.42798 0.54596 0.24303 0.0
C923 C 0.55508 0.61366 0.26058 0.0
C924 C 0.24486 0.4367 0.24295 0.0
C925 C 0.28899 0.45729 0.24225 0.0
C926 C 0.38322 0.48273 0.25592 0.0
C927 C 0.49655 0.56605 0.25085 0.0
C928 C 0.45026 0.53751 0.24975 0.0
C929 C 0.31435 0.47259 0.25008 0.0
C930 C 0.361 0.49276 0.24951 0.0
H931 H 0.5837 0.62971 0.23821 0.0
H932 H 0.51118 0.57169 0.23644 0.0
H933 H 0.44361 0.49705 0.26119 0.0
H934 H 0.23708 0.44491 0.26593 0.0
H935 H 0.31374 0.4809 0.26467 0.0
C936 C 0.8136 0.58738 0.76879 0.0
C937 C 0.80202 0.59746 0.76043 0.0
C938 C 0.83572 0.56533 0.76899 0.0
C939 C 0.86209 0.49841 0.75469 0.0
H940 H 0.95426 0.53144 0.77185 0.0
C941 C 0.96322 0.42221 0.75246 0.0
C942 C 0.96218 0.4009 0.76052 0.0
C943 C 0.95295 0.45415 0.75263 0.0
C944 C 0.92867 0.52208 0.76702 0.0
H945 H 0.80386 0.59167 0.74575 0.0
H946 H 0.84283 0.55408 0.7461 0.0
H947 H 0.91357 0.56816 0.77192 0.0
H948 H 0.95528 0.40033 0.77518 0.0
H949 H 0.93708 0.45598 0.77546 0.0
H950 H 0.87703 0.45249 0.74978 0.0
C951 C 0.83433 0.56246 0.75251 0.0
C952 C 0.90515 0.54275 0.7671 0.0
C953 C 0.81201 0.58414 0.75231 0.0
C954 C 0.95586 0.41574 0.76886 0.0
C955 C 0.94553 0.44774 0.76902 0.0
C956 C 0.88577 0.47816 0.75455 0.0
C957 C 0.8468 0.55313 0.76084 0.0
C958 C 0.87155 0.53104 0.76094 0.0
C959 C 0.94157 0.46538 0.76085 0.0
C960 C 0.91927 0.48976 0.7607 0.0
H961 H 0.8063 0.59722 0.77516 0.0
H962 H 0.84426 0.55796 0.77552 0.0
H963 H 0.83588 0.48795 0.74999 0.0
H964 H 0.96873 0.41205 0.74593 0.0
H965 H 0.95105 0.46803 0.74625 0.0
C966 C 0.61407 0.56039 0.75428 0.0
C967 C 0.6346 0.58534 0.76193 0.0
C968 C 0.58125 0.5188 0.75533 0.0
C969 C 0.55032 0.43272 0.77155 0.0
H970 H 0.4606 0.37092 0.75406 0.0
C971 C 0.44343 0.2494 0.77133 0.0
C972 C 0.43699 0.23051 0.7627 0.0
C973 C 0.46377 0.29343 0.77216 0.0
C974 C 0.48559 0.38781 0.75899 0.0
H975 H 0.63312 0.58794 0.77666 0.0
H976 H 0.57561 0.51523 0.7785 0.0
H977 H 0.49792 0.44809 0.75407 0.0
H978 H 0.44852 0.24306 0.74822 0.0
H979 H 0.48417 0.31961 0.7497 0.0
H980 H 0.53855 0.37231 0.77632 0.0
C981 C 0.58578 0.52755 0.77169 0.0
C982 C 0.50684 0.43194 0.75901 0.0
C983 C 0.61865 0.56926 0.77064 0.0
C984 C 0.45281 0.25654 0.75497 0.0
C985 C 0.47283 0.3004 0.7558 0.0
C986 C 0.52889 0.38854 0.77156 0.0
C987 C 0.56809 0.50131 0.76406 0.0
C988 C 0.54029 0.45491 0.76511 0.0
C989 C 0.47773 0.31924 0.76438 0.0
C990 C 0.4972 0.36574 0.7651 0.0
H991 H 0.62527 0.57186 0.74746 0.0
H992 H 0.56845 0.4995 0.74929 0.0
H993 H 0.57633 0.44942 0.77627 0.0
H994 H 0.43157 0.23019 0.77741 0.0
H995 H 0.46729 0.3072 0.77886 0.0
C996 C 0.47447 0.08061 0.75314 0.0
C997 C 0.44987 0.07532 0.76091 0.0
C998 C 0.51624 0.08966 0.75399 0.0
C999 C 0.6032 0.14403 0.77005 0.0
H1000 H 0.66447 0.11707 0.75226 0.0
C1001 C 0.78612 0.21953 0.77008 0.0
C1002 C 0.80579 0.232 0.76152 0.0
C1003 C 0.742 0.1961 0.77076 0.0
C1004 C 0.64776 0.12499 0.75726 0.0
H1005 H 0.44822 0.07015 0.77562 0.0
H1006 H 0.52117 0.08576 0.77712 0.0
H1007 H 0.58724 0.07761 0.75228 0.0
H1008 H 0.79451 0.23112 0.74699 0.0
H1009 H 0.71774 0.1908 0.7482 0.0
H1010 H 0.66374 0.19209 0.77488 0.0
C1011 C 0.50842 0.08405 0.77037 0.0
C1012 C 0.60358 0.10229 0.75729 0.0
C1013 C 0.46654 0.0749 0.76951 0.0
C1014 C 0.78041 0.22192 0.75369 0.0
C1015 C 0.73642 0.19841 0.75437 0.0
C1016 C 0.6474 0.16663 0.77003 0.0
C1017 C 0.53428 0.09345 0.76264 0.0
C1018 C 0.58078 0.11227 0.76354 0.0
C1019 C 0.71678 0.18457 0.76289 0.0
C1020 C 0.67009 0.15807 0.76348 0.0
H1021 H 0.46255 0.08078 0.74639 0.0
H1022 H 0.53523 0.09679 0.74788 0.0
H1023 H 0.58665 0.15299 0.77487 0.0
H1024 H 0.80478 0.22672 0.77625 0.0
H1025 H 0.72771 0.18587 0.77742 0.0
C1026 C 0.07704 0.29349 0.57733 0.0
C1027 C 0.0609 0.29303 0.58604 0.0
C1028 C 0.11035 0.28538 0.57625 0.0
C1029 C 0.19005 0.26978 0.5889 0.0
H1030 H 0.159 0.1786 0.57161 0.0
C1031 C 0.24455 0.14888 0.59305 0.0
C1032 C 0.26024 0.13853 0.58534 0.0
C1033 C 0.22466 0.17281 0.59219 0.0
C1034 C 0.1685 0.20447 0.57636 0.0
H1035 H 0.07021 0.28857 0.60051 0.0
H1036 H 0.12779 0.27426 0.59864 0.0
H1037 H 0.12073 0.21737 0.57164 0.0
H1038 H 0.26571 0.14358 0.57062 0.0
H1039 H 0.23025 0.18504 0.56912 0.0
H1040 H 0.23661 0.2555 0.59387 0.0
C1041 C 0.11484 0.28069 0.59262 0.0
C1042 C 0.14678 0.22689 0.57635 0.0
C1043 C 0.08157 0.28872 0.59369 0.0
C1044 C 0.25393 0.15103 0.57669 0.0
C1045 C 0.23373 0.17481 0.57583 0.0
C1046 C 0.2116 0.24723 0.58893 0.0
C1047 C 0.12827 0.27698 0.58388 0.0
C1048 C 0.15652 0.259 0.58279 0.0
C1049 C 0.2198 0.18671 0.5836 0.0
C1050 C 0.20021 0.21358 0.58284 0.0
H1051 H 0.0624 0.29758 0.57131 0.0
H1052 H 0.1207 0.28365 0.56944 0.0
H1053 H 0.19874 0.29478 0.59384 0.0
H1054 H 0.24877 0.13967 0.59981 0.0
H1055 H 0.21334 0.18072 0.59827 0.0
C1056 C 0.73766 0.7996 0.57733 0.0
C1057 C 0.73967 0.7843 0.58599 0.0
C1058 C 0.74542 0.84093 0.57627 0.0
C1059 C 0.76226 0.93636 0.58902 0.0
H1060 H 0.84917 -0.00311 0.57084 0.0
C1061 C 0.88262 0.11239 0.59239 0.0
C1062 C 0.89072 0.13827 0.58471 0.0
C1063 C 0.85885 0.06851 0.59162 0.0
C1064 C 0.82446 0.98038 0.57585 0.0
H1065 H 0.74682 0.79879 0.60043 0.0
H1066 H 0.76055 0.87051 0.5986 0.0
H1067 H 0.81155 0.91978 0.57109 0.0
H1068 H 0.88174 0.13833 0.5701 0.0
H1069 H 0.84061 0.06121 0.56875 0.0
H1070 H 0.77668 -0.00285 0.59403 0.0
C1071 C 0.7531 0.85086 0.5926 0.0
C1072 C 0.8027 0.93619 0.57597 0.0
C1073 C 0.7454 0.80965 0.59365 0.0
C1074 C 0.87604 0.11922 0.57615 0.0
C1075 C 0.85246 0.07515 0.57537 0.0
C1076 C 0.78419 0.98049 0.58893 0.0
C1077 C 0.75505 0.86758 0.58387 0.0
C1078 C 0.7722 0.91372 0.58273 0.0
C1079 C 0.84287 0.04948 0.58314 0.0
C1080 C 0.81633 0.0029 0.58251 0.0
H1081 H 0.73248 0.7806 0.57132 0.0
H1082 H 0.74577 0.85262 0.56948 0.0
H1083 H 0.73844 0.91997 0.59421 0.0
H1084 H 0.89352 0.12598 0.59908 0.0
H1085 H 0.85272 0.04941 0.59769 0.0
C1086 C 0.23324 0.95122 0.57766 0.0
C1087 C 0.24794 0.96903 0.5863 0.0
C1088 C 0.19211 0.91729 0.57658 0.0
C1089 C 0.0959 0.83913 0.58919 0.0
H1090 H 0.03694 0.86807 0.57112 0.0
C1091 C 0.92047 0.78586 0.59257 0.0
C1092 C 0.89475 0.76949 0.58482 0.0
C1093 C 0.96433 0.80537 0.59183 0.0
C1094 C 0.05298 0.85912 0.57609 0.0
H1095 H 0.23294 0.96201 0.60072 0.0
H1096 H 0.16152 0.9033 0.59885 0.0
H1097 H 0.11403 0.90618 0.57137 0.0
H1098 H 0.89495 0.76244 0.57015 0.0
H1099 H 0.97195 0.79719 0.56887 0.0
H1100 H 0.03468 0.79332 0.59414 0.0
C1101 C 0.18145 0.91546 0.59288 0.0
C1102 C 0.09715 0.88075 0.57621 0.0
C1103 C 0.22245 0.94937 0.59395 0.0
C1104 C 0.91394 0.77478 0.57625 0.0
C1105 C 0.95796 0.79455 0.57551 0.0
C1106 C 0.05176 0.81764 0.58908 0.0
C1107 C 0.16517 0.90042 0.58414 0.0
C1108 C 0.11906 0.87184 0.58293 0.0
C1109 C 0.98346 0.80913 0.58333 0.0
C1110 C 0.02994 0.82834 0.58271 0.0
H1111 H 0.25246 0.96499 0.57166 0.0
H1112 H 0.18068 0.90569 0.56979 0.0
H1113 H 0.11191 0.83115 0.59436 0.0
H1114 H 0.90673 0.78246 0.59927 0.0
H1115 H 0.98332 0.81726 0.59794 0.0
C1116 C 0.45162 0.031 0.04186 0.0
C1117 C 0.41183 0.00503 0.04584 0.0
C1118 C 0.45561 0.03569 0.03238 0.0
C1119 C 0.40103 0.98102 0.01118 0.0
H1120 H 0.47578 0.08907 0.9998 0.0
C1121 C 0.40444 0.0079 0.97219 0.0
C1122 C 0.44413 0.03408 0.96819 0.0
C1123 C 0.40052 0.00342 0.98167 0.0
C1124 C 0.45514 0.05853 1.00287 0.0
H1125 H 0.34512 0.96411 0.0431 0.0
H1126 H 0.35183 0.97261 0.02661 0.0
H1127 H 0.46913 0.08449 0.01633 0.0
H1128 H 0.51074 0.07568 0.97089 0.0
H1129 H 0.50421 0.06748 0.9874 0.0
H1130 H 0.38707 0.95503 0.99772 0.0
C1131 C 0.38006 0.989 0.03075 0.0
C1132 C 0.45132 0.05594 0.01235 0.0
C1133 C 0.37614 0.98434 0.04019 0.0
C1134 C 0.47981 0.05526 0.97382 0.0
C1135 C 0.47597 0.05077 0.98327 0.0
C1136 C 0.40488 0.98359 1.00169 0.0
C1137 C 0.41991 0.01426 0.02671 0.0
C1138 C 0.42417 0.01717 0.01662 0.0
C1139 C 0.43621 0.02525 0.98733 0.0
C1140 C 0.43201 0.02237 0.99742 0.0
H1141 H 0.47982 0.04626 0.04602 0.0
H1142 H 0.48686 0.05493 0.02949 0.0
H1143 H 0.38037 0.95049 0.01425 0.0
H1144 H 0.37624 0.99227 0.96803 0.0
H1145 H 0.36933 0.98399 0.98457 0.0
C1146 C 0.02984 0.45933 0.97194 0.0
C1147 C 0.00287 0.41971 0.968 0.0
C1148 C 0.03535 0.46327 0.9814 0.0
C1149 C 0.02 0.40077 1.00247 0.0
H1150 H 0.02023 0.49564 0.01435 0.0
C1151 C 0.00771 0.40903 0.04157 0.0
C1152 C 0.0349 0.44822 0.04565 0.0
C1153 C 0.00309 0.40575 0.03209 0.0
C1154 C 0.02059 0.46915 0.01113 0.0
H1155 H 0.96056 0.35335 0.97082 0.0
H1156 H 0.96973 0.36008 0.98728 0.0
H1157 H 0.01597 0.49016 0.99779 0.0
H1158 H 0.07855 0.51451 0.04308 0.0
H1159 H 0.07072 0.50896 0.02655 0.0
H1160 H 0.02445 0.37968 0.01581 0.0
C1161 C 0.98729 0.38804 0.98311 0.0
C1162 C 0.0183 0.46609 1.00163 0.0
C1163 C 0.98179 0.38418 0.97369 0.0
C1164 C 0.0571 0.48404 0.04009 0.0
C1165 C 0.05241 0.48085 0.03063 0.0
C1166 C 0.02222 0.4038 0.01196 0.0
C1167 C 0.01386 0.42768 0.9871 0.0
C1168 C 0.01789 0.43181 0.99719 0.0
C1169 C 0.02567 0.44159 0.02651 0.0
C1170 C 0.02247 0.43798 0.01641 0.0
H1171 H 0.04556 0.48743 0.96775 0.0
H1172 H 0.05624 0.49424 0.98424 0.0
H1173 H 0.02037 0.37427 0.99927 0.0
H1174 H 0.99114 0.38072 0.04566 0.0
H1175 H 0.98204 0.37508 0.02913 0.0
C1176 C 0.59006 0.55104 0.97375 0.0
C1177 C 0.60489 0.58698 0.96817 0.0
C1178 C 0.58793 0.55424 0.98318 0.0
C1179 C 0.58766 0.62368 1.00148 0.0
H1180 H 0.6231 0.5598 0.0166 0.0
C1181 C 0.61204 0.65166 0.04009 0.0
C1182 C 0.59677 0.61598 0.04575 0.0
C1183 C 0.6138 0.64787 0.03067 0.0
C1184 C 0.61267 0.57748 0.01248 0.0
H1185 H 0.63018 0.65471 0.96814 0.0
H1186 H 0.62623 0.66051 0.98464 0.0
H1187 H 0.62374 0.55394 1.00007 0.0
H1188 H 0.57051 0.5481 0.04597 0.0
H1189 H 0.57393 0.54129 0.02946 0.0
H1190 H 0.57671 0.64731 0.01389 0.0
C1191 C 0.6153 0.62958 0.98169 0.0
C1192 C 0.61299 0.57412 1.003 0.0
C1193 C 0.61735 0.6263 0.97223 0.0
C1194 C 0.58362 0.57631 0.0418 0.0
C1195 C 0.58535 0.57244 0.03234 0.0
C1196 C 0.58738 0.62707 0.01096 0.0
C1197 C 0.60097 0.59362 0.98729 0.0
C1198 C 0.60049 0.59718 0.99738 0.0
C1199 C 0.59998 0.60815 0.02666 0.0
C1200 C 0.59998 0.6041 0.01658 0.0
H1201 H 0.58034 0.52039 0.97077 0.0
H1202 H 0.5761 0.52581 0.98725 0.0
H1203 H 0.57723 0.64138 0.99737 0.0
H1204 H 0.62238 0.6826 0.04297 0.0
H1205 H 0.62592 0.67612 0.02652 0.0
C1206 C 0.04931 0.3127 0.37354 0.0
C1207 C 0.08516 0.33422 0.37911 0.0
C1208 C 0.05272 0.31729 0.36409 0.0
C1209 C 0.12246 0.38542 0.34561 0.0
H1210 H 0.05845 0.28465 0.33093 0.0
C1211 C 0.1491 0.38547 0.30696 0.0
C1212 C 0.11311 0.36421 0.30141 0.0
C1213 C 0.14581 0.38096 0.31641 0.0
C1214 C 0.07619 0.31316 0.33492 0.0
H1215 H 0.15294 0.37669 0.37916 0.0
H1216 H 0.15911 0.38514 0.36261 0.0
H1217 H 0.05273 0.27964 0.34747 0.0
H1218 H 0.0452 0.32238 0.30143 0.0
H1219 H 0.03929 0.31395 0.31797 0.0
H1220 H 0.14595 0.41893 0.33305 0.0
C1221 C 0.1281 0.36536 0.36557 0.0
C1222 C 0.0729 0.31032 0.34441 0.0
C1223 C 0.12461 0.36077 0.37505 0.0
C1224 C 0.07365 0.33802 0.30551 0.0
C1225 C 0.0703 0.33346 0.31499 0.0
C1226 C 0.12577 0.38825 0.33612 0.0
C1227 C 0.09222 0.34328 0.35997 0.0
C1228 C 0.09594 0.34643 0.34987 0.0
C1229 C 0.10631 0.35528 0.32056 0.0
C1230 C 0.1027 0.35215 0.33066 0.0
H1231 H 0.01856 0.29204 0.37652 0.0
H1232 H 0.02434 0.30038 0.36001 0.0
H1233 H 0.14017 0.41394 0.3496 0.0
H1234 H 0.17985 0.40593 0.30396 0.0
H1235 H 0.17427 0.3977 0.32047 0.0
C1236 C 0.72325 0.82101 0.37388 0.0
C1237 C 0.702 0.78546 0.37955 0.0
C1238 C 0.71837 0.81709 0.36444 0.0
C1239 C 0.6495 0.74591 0.3462 0.0
H1240 H 0.74932 0.80923 0.33118 0.0
C1241 C 0.6472 0.71503 0.30775 0.0
C1242 C 0.66769 0.7503 0.30197 0.0
C1243 C 0.65249 0.71955 0.31717 0.0
C1244 C 0.72107 0.79168 0.33527 0.0
H1245 H 0.65993 0.71763 0.37976 0.0
H1246 H 0.65094 0.71058 0.36325 0.0
H1247 H 0.75524 0.8165 0.3477 0.0
H1248 H 0.70916 0.81821 0.30156 0.0
H1249 H 0.71893 0.82629 0.31806 0.0
H1250 H 0.61535 0.72103 0.33378 0.0
C1251 C 0.67067 0.74178 0.36612 0.0
C1252 C 0.72442 0.79586 0.34474 0.0
C1253 C 0.67556 0.74578 0.37559 0.0
C1254 C 0.69403 0.79031 0.30582 0.0
C1255 C 0.69937 0.7949 0.31527 0.0
C1256 C 0.64616 0.74171 0.33673 0.0
C1257 C 0.69236 0.77736 0.36042 0.0
C1258 C 0.68868 0.77301 0.35033 0.0
C1259 C 0.6782 0.7596 0.32107 0.0
C1260 C 0.68191 0.76446 0.33115 0.0
H1261 H 0.74392 0.85193 0.37678 0.0
H1262 H 0.73504 0.84525 0.36028 0.0
H1263 H 0.62123 0.72835 0.35028 0.0
H1264 H 0.6267 0.68386 0.30494 0.0
H1265 H 0.63629 0.6916 0.3214 0.0
C1266 C 0.28217 0.96001 0.30598 0.0
C1267 C 0.27002 0.92066 0.30198 0.0
C1268 C 0.28002 0.96348 0.31544 0.0
C1269 C 0.2786 0.90885 0.33678 0.0
H1270 H 0.24101 0.98104 0.34765 0.0
C1271 C 0.24923 0.91045 0.37556 0.0
C1272 C 0.26179 0.94994 0.37953 0.0
C1273 C 0.25093 0.90675 0.36609 0.0
C1274 C 0.25206 0.9611 0.34472 0.0
H1275 H 0.24583 0.85419 0.30466 0.0
H1276 H 0.24145 0.85994 0.32112 0.0
H1277 H 0.24155 0.97502 0.33113 0.0
H1278 H 0.28619 0.01641 0.3768 0.0
H1279 H 0.28971 0.01024 0.36033 0.0
H1280 H 0.28913 0.89495 0.35038 0.0
C1281 C 0.2531 0.88825 0.31701 0.0
C1282 C 0.25234 0.95765 0.33525 0.0
C1283 C 0.25531 0.88486 0.30759 0.0
C1284 C 0.27635 0.98562 0.37389 0.0
C1285 C 0.27809 0.98199 0.36446 0.0
C1286 C 0.27831 0.91229 0.34626 0.0
C1287 C 0.26593 0.92768 0.32107 0.0
C1288 C 0.26558 0.93146 0.33116 0.0
C1289 C 0.26496 0.94245 0.36043 0.0
C1290 C 0.2651 0.93851 0.35035 0.0
H1291 H 0.29488 0.98832 0.30186 0.0
H1292 H 0.29074 0.99444 0.31835 0.0
H1293 H 0.28969 0.88894 0.33386 0.0
H1294 H 0.23663 0.88223 0.37971 0.0
H1295 H 0.24 0.87571 0.3632 0.0
C1296 C 0.71172 0.65091 0.70672 0.0
C1297 C 0.74739 0.67132 0.71239 0.0
C1298 C 0.7157 0.65589 0.69728 0.0
C1299 C 0.78721 0.72345 0.67897 0.0
H1300 H 0.72253 0.62327 0.66416 0.0
C1301 C 0.81551 0.72389 0.64036 0.0
C1302 C 0.77982 0.70279 0.63473 0.0
C1303 C 0.81168 0.71935 0.64981 0.0
C1304 C 0.74045 0.65164 0.66818 0.0
H1305 H 0.81541 0.71232 0.71259 0.0
H1306 H 0.82256 0.72155 0.69607 0.0
H1307 H 0.71582 0.61803 0.68068 0.0
H1308 H 0.71188 0.66126 0.63458 0.0
H1309 H 0.70498 0.65286 0.65111 0.0
H1310 H 0.81181 0.75707 0.66647 0.0
C1311 C 0.79128 0.7023 0.69895 0.0
C1312 C 0.73661 0.64867 0.67766 0.0
C1313 C 0.78723 0.69728 0.70842 0.0
C1314 C 0.7401 0.67679 0.63873 0.0
C1315 C 0.73619 0.67223 0.64821 0.0
C1316 C 0.79103 0.72644 0.66948 0.0
C1317 C 0.75559 0.6812 0.69326 0.0
C1318 C 0.75989 0.68454 0.68317 0.0
C1319 C 0.77191 0.69383 0.65387 0.0
C1320 C 0.76773 0.69056 0.66397 0.0
H1321 H 0.68067 0.63069 0.70962 0.0
H1322 H 0.68747 0.63974 0.69313 0.0
H1323 H 0.80515 0.75179 0.683 0.0
H1324 H 0.84646 0.7442 0.63743 0.0
H1325 H 0.83994 0.73591 0.65394 0.0
C1326 C 0.30909 0.05278 0.64078 0.0
C1327 C 0.32977 0.08839 0.6351 0.0
C1328 C 0.31482 0.05663 0.6502 0.0
C1329 C 0.34571 0.13436 0.66878 0.0
H1330 H 0.35453 0.04896 0.68277 0.0
C1331 C 0.38727 0.1534 0.70708 0.0
C1332 C 0.36615 0.11758 0.71269 0.0
C1333 C 0.3819 0.14997 0.69765 0.0
C1334 C 0.35154 0.07279 0.67897 0.0
H1335 H 0.37184 0.15622 0.63486 0.0
H1336 H 0.38286 0.16302 0.65134 0.0
H1337 H 0.3493 0.04343 0.66623 0.0
H1338 H 0.32366 0.04982 0.71279 0.0
H1339 H 0.31329 0.04375 0.69629 0.0
H1340 H 0.34797 0.16372 0.68154 0.0
C1341 C 0.36216 0.132 0.64849 0.0
C1342 C 0.34867 0.06969 0.66949 0.0
C1343 C 0.35645 0.12808 0.63904 0.0
C1344 C 0.33937 0.07813 0.70866 0.0
C1345 C 0.33403 0.07461 0.6992 0.0
C1346 C 0.34861 0.13747 0.67827 0.0
C1347 C 0.34118 0.09632 0.65419 0.0
C1348 C 0.34564 0.10039 0.66427 0.0
C1349 C 0.35551 0.11047 0.69357 0.0
C1350 C 0.35151 0.1067 0.68349 0.0
H1351 H 0.28811 0.02189 0.63791 0.0
H1352 H 0.29766 0.02859 0.65437 0.0
H1353 H 0.34268 0.15816 0.66499 0.0
H1354 H 0.4084 0.18409 0.71002 0.0
H1355 H 0.39939 0.17812 0.69352 0.0
C1356 C 0.95013 0.28952 0.63885 0.0
C1357 C 0.93787 0.25022 0.6348 0.0
C1358 C 0.94823 0.29289 0.64831 0.0
C1359 C 0.94658 0.23826 0.66968 0.0
H1360 H 0.90851 0.31039 0.68038 0.0
C1361 C 0.91684 0.24118 0.70844 0.0
C1362 C 0.92933 0.28086 0.71232 0.0
C1363 C 0.91866 0.23706 0.69899 0.0
C1364 C 0.91969 0.29046 0.6775 0.0
H1365 H 0.91418 0.1838 0.63743 0.0
H1366 H 0.91029 0.18939 0.65393 0.0
H1367 H 0.90927 0.30406 0.66388 0.0
H1368 H 0.95382 0.34721 0.70943 0.0
H1369 H 0.95754 0.34029 0.69299 0.0
H1370 H 0.95697 0.22467 0.68332 0.0
C1371 C 0.92173 0.21772 0.64983 0.0
C1372 C 0.92011 0.28684 0.66804 0.0
C1373 C 0.92368 0.21442 0.6404 0.0
C1374 C 0.94401 0.31628 0.70659 0.0
C1375 C 0.94587 0.31223 0.69719 0.0
C1376 C 0.94615 0.24187 0.67915 0.0
C1377 C 0.93431 0.25706 0.65392 0.0
C1378 C 0.93361 0.26074 0.664 0.0
C1379 C 0.93273 0.2725 0.69325 0.0
C1380 C 0.93283 0.26813 0.68318 0.0
H1381 H 0.96257 0.31786 0.63474 0.0
H1382 H 0.95886 0.3238 0.65124 0.0
H1383 H 0.9578 0.21838 0.6668 0.0
H1384 H 0.9042 0.21316 0.71265 0.0
H1385 H 0.90776 0.2059 0.69617 0.0
C1386 C 0.33832 0.97826 0.20919 0.0
C1387 C 0.29464 0.95895 0.21083 0.0
C1388 C 0.3538 0.98402 0.20029 0.0
C1389 C 0.32267 0.94694 0.17663 0.0
H1390 H 0.41887 0.05583 0.17024 0.0
C1391 C 0.37159 -0.0024 0.13931 0.0
C1392 C 0.4149 0.0218 0.13727 0.0
C1393 C 0.35792 0.98807 0.14834 0.0
C1394 C 0.39242 0.02498 0.17192 0.0
H1395 H 0.23295 0.9311 0.20452 0.0
H1396 H 0.25984 0.94103 0.1889 0.0
H1397 H 0.39319 0.04227 0.18587 0.0
H1398 H 0.47783 0.05547 0.143 0.0
H1399 H 0.45424 0.03826 0.15882 0.0
H1400 H 0.32185 0.92959 0.16269 0.0
C1401 C 0.28213 0.95113 0.19449 0.0
C1402 C 0.37764 0.01725 0.18089 0.0
C1403 C 0.26672 0.94563 0.2034 0.0
C1404 C 0.44429 0.03652 0.14442 0.0
C1405 C 0.43069 0.02684 0.15346 0.0
C1406 C 0.33757 0.95458 0.16767 0.0
C1407 C 0.3259 0.97067 0.19283 0.0
C1408 C 0.34242 0.97825 0.18334 0.0
C1409 C 0.38727 0.00268 0.15554 0.0
C1410 C 0.37246 0.99383 0.16517 0.0
H1411 H 0.36061 0.99003 0.21477 0.0
H1412 H 0.38766 -0.00093 0.19924 0.0
H1413 H 0.29583 0.91635 0.17833 0.0
H1414 H 0.34818 0.98724 0.13395 0.0
H1415 H 0.32423 0.97028 0.14967 0.0
C1416 C 0.04388 0.401 0.13858 0.0
C1417 C 0.00717 0.40275 0.13658 0.0
C1418 C 0.05392 0.39686 0.14757 0.0
C1419 C 0.02264 0.40055 0.17179 0.0
H1420 H 0.08309 0.34027 0.1762 0.0
C1421 C 0.06599 0.37759 0.20837 0.0
C1422 C 0.06732 0.34064 0.21036 0.0
C1423 C 0.06201 0.38782 0.19938 0.0
C1424 C 0.06563 0.35666 0.17515 0.0
H1425 H 0.95093 0.39896 0.14235 0.0
H1426 H 0.96676 0.3892 0.15795 0.0
H1427 H 0.06818 0.35142 0.16074 0.0
H1428 H 0.06296 0.28423 0.20456 0.0
H1429 H 0.05344 0.3004 0.18896 0.0
H1430 H 0.01722 0.40295 0.18621 0.0
C1431 C 0.98937 0.39355 0.1527 0.0
C1432 C 0.05778 0.36391 0.1662 0.0
C1433 C 0.97995 0.39873 0.14373 0.0
C1434 C 0.06301 0.3134 0.20319 0.0
C1435 C 0.05799 0.32302 0.19422 0.0
C1436 C 0.02958 0.39241 0.18075 0.0
C1437 C 0.0266 0.39262 0.15479 0.0
C1438 C 0.03606 0.3859 0.16436 0.0
C1439 C 0.05753 0.36049 0.19216 0.0
C1440 C 0.05112 0.37024 0.18258 0.0
H1441 H 0.06441 0.40181 0.13318 0.0
H1442 H 0.08307 0.39672 0.14882 0.0
H1443 H 0.00658 0.41835 0.17074 0.0
H1444 H 0.06706 0.3982 0.21377 0.0
H1445 H 0.06224 0.41714 0.19814 0.0
C1446 C 0.6605 0.70354 0.20863 0.0
C1447 C 0.68493 0.74688 0.21059 0.0
C1448 C 0.65109 0.68956 0.19962 0.0
C1449 C 0.68891 0.72318 0.17604 0.0
H1450 H 0.58 0.62723 0.16955 0.0
C1451 C 0.64296 0.67021 0.13876 0.0
C1452 C 0.62318 0.62659 0.13705 0.0
C1453 C 0.6486 0.68535 0.14768 0.0
C1454 C 0.61067 0.65387 0.17128 0.0
H1455 H 0.71902 0.80955 0.20475 0.0
H1456 H 0.70202 0.78543 0.18896 0.0
H1457 H 0.59296 0.6533 0.18519 0.0
H1458 H 0.59444 0.56464 0.14326 0.0
H1459 H 0.6042 0.59096 0.15893 0.0
H1460 H 0.70657 0.72374 0.16213 0.0
C1461 C 0.69036 0.76209 0.19436 0.0
C1462 C 0.61815 0.66881 0.18024 0.0
C1463 C 0.69992 0.776 0.20338 0.0
C1464 C 0.60933 0.59837 0.14443 0.0
C1465 C 0.61473 0.61346 0.15337 0.0
C1466 C 0.68135 0.70837 0.16708 0.0
C1467 C 0.66605 0.71863 0.19236 0.0
C1468 C 0.65745 0.70354 0.18275 0.0
C1469 C 0.63472 0.65718 0.1551 0.0
C1470 C 0.64222 0.67343 0.1646 0.0
H1471 H 0.6499 0.68033 0.21404 0.0
H1472 H 0.63314 0.65584 0.19835 0.0
H1473 H 0.71982 0.74946 0.17775 0.0
H1474 H 0.65518 0.69272 0.13322 0.0
H1475 H 0.66398 0.71918 0.14878 0.0
C1476 C -0.00106 0.37271 0.87486 0.0
C1477 C 0.02301 0.41614 0.87675 0.0
C1478 C 0.98936 0.35839 0.86588 0.0
C1479 C 0.02591 0.39113 0.84223 0.0
H1480 H 0.9167 0.29484 0.83604 0.0
C1481 C 0.97795 0.33642 0.80511 0.0
C1482 C 0.95803 0.29271 0.80349 0.0
C1483 C 0.98413 0.35197 0.814 0.0
C1484 C 0.94745 0.32156 0.83768 0.0
H1485 H 0.05649 0.47865 0.87081 0.0
H1486 H 0.03924 0.45392 0.85506 0.0
H1487 H 0.93043 0.32163 0.85162 0.0
H1488 H 0.92966 0.23104 0.80982 0.0
H1489 H 0.94042 0.25809 0.82544 0.0
H1490 H 0.0429 0.39104 0.82829 0.0
C1491 C 0.02794 0.43078 0.8605 0.0
C1492 C 0.95536 0.33691 0.84661 0.0
C1493 C 0.03765 0.44503 0.86949 0.0
C1494 C 0.94464 0.26483 0.81092 0.0
C1495 C 0.95061 0.28034 0.81983 0.0
C1496 C 0.01793 0.37589 0.8333 0.0
C1497 C 0.00382 0.38722 0.85858 0.0
C1498 C 0.99479 0.37176 0.84901 0.0
C1499 C 0.97069 0.32413 0.82147 0.0
C1500 C 0.97869 0.34082 0.83093 0.0
H1501 H 0.98867 0.34971 0.8803 0.0
H1502 H 0.97162 0.32463 0.86466 0.0
H1503 H 0.05688 0.41751 0.84385 0.0
H1504 H 0.98983 0.35866 0.79952 0.0
H1505 H -0.00042 0.38585 0.81503 0.0
C1506 C 0.59884 0.6152 0.86964 0.0
C1507 C 0.62655 0.62807 0.87711 0.0
C1508 C 0.61449 0.62082 0.86075 0.0
C1509 C 0.71071 0.68636 0.84726 0.0
H1510 H 0.65515 0.59874 0.82904 0.0
C1511 C 0.77945 0.70462 0.81101 0.0
C1512 C 0.75054 0.68994 0.80376 0.0
C1513 C 0.76521 0.69521 0.82002 0.0
C1514 C 0.67081 0.62374 0.83402 0.0
H1515 H 0.6924 0.65864 0.88112 0.0
H1516 H 0.71983 0.66789 0.86562 0.0
H1517 H 0.62828 0.58586 0.84461 0.0
H1518 H 0.68405 0.65573 0.80025 0.0
H1519 H 0.659 0.63925 0.8159 0.0
H1520 H 0.75275 0.72459 0.83668 0.0
C1521 C 0.68596 0.65308 0.86663 0.0
C1522 C 0.65541 0.61629 0.84295 0.0
C1523 C 0.67026 0.64719 0.87551 0.0
C1524 C 0.70709 0.66604 0.80568 0.0
C1525 C 0.69278 0.65678 0.81468 0.0
C1526 C 0.72597 0.6939 0.83833 0.0
C1527 C 0.65828 0.64007 0.85913 0.0
C1528 C 0.6751 0.64756 0.84967 0.0
C1529 C 0.72163 0.67135 0.82198 0.0
C1530 C 0.70616 0.66275 0.83157 0.0
H1531 H 0.56507 0.60083 0.87072 0.0
H1532 H 0.59236 0.61099 0.85512 0.0
H1533 H 0.72624 0.71136 0.85224 0.0
H1534 H 0.81309 0.72335 0.80968 0.0
H1535 H 0.7884 0.70658 0.82545 0.0
C1536 C 0.3281 0.0876 0.81112 0.0
C1537 C 0.34279 0.0744 0.8037 0.0
C1538 C 0.3379 0.08196 0.82004 0.0
C1539 C 0.36748 0.01593 0.83364 0.0
H1540 H 0.40117 0.1041 0.85177 0.0
C1541 C 0.4199 -0.00191 0.86967 0.0
C1542 C 0.40656 0.01315 0.877 0.0
C1543 C 0.41445 0.00738 0.8607 0.0
C1544 C 0.39136 0.07895 0.84682 0.0
H1545 H 0.37754 0.04327 0.79977 0.0
H1546 H 0.39531 0.03396 0.81531 0.0
H1547 H 0.38686 0.11683 0.83621 0.0
H1548 H 0.37534 0.0481 0.8807 0.0
H1549 H 0.3656 0.06432 0.86508 0.0
H1550 H 0.37117 0.97771 0.84423 0.0
C1551 C 0.37655 0.04904 0.81426 0.0
C1552 C 0.38322 0.08631 0.83789 0.0
C1553 C 0.36697 0.05495 0.80535 0.0
C1554 C 0.3873 0.0374 0.87519 0.0
C1555 C 0.3816 0.04652 0.86623 0.0
C1556 C 0.37537 0.00847 0.84256 0.0
C1557 C 0.36204 0.06237 0.82172 0.0
C1558 C 0.37117 0.05487 0.8312 0.0
C1559 C 0.39493 0.03148 0.85885 0.0
C1560 C 0.38739 0.03986 0.84929 0.0
H1561 H 0.30901 0.10225 0.81 0.0
H1562 H 0.32576 0.09207 0.82564 0.0
H1563 H 0.35761 0.99079 0.82868 0.0
H1564 H 0.43463 0.97916 0.87092 0.0
H1565 H 0.42563 0.99571 0.85522 0.0
C1566 C -0.00425 0.30412 0.54194 0.0
C1567 C 0.95643 0.30046 0.54399 0.0
C1568 C 0.01033 0.30967 0.53297 0.0
C1569 C 0.97552 0.30714 0.50874 0.0
H1570 H 0.09648 0.36664 0.50451 0.0
C1571 C 0.04178 0.32786 0.47229 0.0
C1572 C 0.08107 0.36356 0.47021 0.0
C1573 C 0.02747 0.31864 0.48128 0.0
C1574 C 0.06257 0.35057 0.5055 0.0
H1575 H 0.90287 0.30232 0.5382 0.0
H1576 H 0.92937 0.31504 0.52269 0.0
H1577 H 0.07007 0.35576 0.51991 0.0
H1578 H 0.13493 0.41881 0.47598 0.0
H1579 H 0.10887 0.4047 0.49153 0.0
H1580 H 0.96801 0.30509 0.49434 0.0
C1581 C 0.94803 0.311 0.52789 0.0
C1582 C 0.04723 0.3434 0.51443 0.0
C1583 C 0.93291 0.30418 0.53684 0.0
C1584 C 0.10489 0.3906 0.47736 0.0
C1585 C 0.09003 0.38213 0.48632 0.0
C1586 C 0.99085 0.3154 0.49982 0.0
C1587 C 0.98695 0.31364 0.52579 0.0
C1588 C 0.00341 0.32136 0.51622 0.0
C1589 C 0.05107 0.34587 0.48845 0.0
C1590 C 0.03467 0.33706 0.49803 0.0
H1591 H 0.01614 0.30396 0.54723 0.0
H1592 H 0.04018 0.31101 0.53172 0.0
H1593 H 0.94159 0.28937 0.50973 0.0
H1594 H 0.02116 0.30746 0.46701 0.0
H1595 H -0.0024 0.29012 0.48254 0.0
C1596 C 0.70007 0.7201 0.4721 0.0
C1597 C 0.67617 0.73993 0.47052 0.0
C1598 C 0.70942 0.71357 0.48098 0.0
C1599 C 0.71626 0.74988 0.5047 0.0
H1600 H 0.70322 0.64065 0.51081 0.0
C1601 C 0.72012 0.69992 0.54189 0.0
C1602 C 0.7391 0.67538 0.54366 0.0
C1603 C 0.71432 0.70913 0.53294 0.0
C1604 C 0.7077 0.67158 0.5092 0.0
H1605 H 0.64266 0.7678 0.47693 0.0
H1606 H 0.65905 0.7566 0.49253 0.0
H1607 H 0.68994 0.65454 0.49529 0.0
H1608 H 0.76639 0.64079 0.53752 0.0
H1609 H 0.75721 0.6575 0.52184 0.0
H1610 H 0.73426 0.76708 0.51859 0.0
C1611 C 0.67112 0.74664 0.48689 0.0
C1612 C 0.69997 0.67949 0.5003 0.0
C1613 C 0.66153 0.75287 0.478 0.0
C1614 C 0.7519 0.65997 0.53631 0.0
C1615 C 0.74636 0.66936 0.52734 0.0
C1616 C 0.72426 0.74207 0.5136 0.0
C1617 C 0.69499 0.72668 0.48849 0.0
C1618 C 0.70399 0.71867 0.49794 0.0
C1619 C 0.72727 0.69391 0.52554 0.0
C1620 C 0.71991 0.70273 0.51599 0.0
H1621 H 0.71059 0.70861 0.46647 0.0
H1622 H 0.72796 0.69823 0.48197 0.0
H1623 H 0.72018 0.78058 0.50308 0.0
H1624 H 0.70854 0.71088 0.54742 0.0
H1625 H 0.69861 0.72724 0.53184 0.0
C1626 C 0.27508 0.92626 0.47804 0.0
C1627 C 0.28879 0.9549 0.47075 0.0
C1628 C 0.28062 0.94081 0.48702 0.0
C1629 C 0.30458 0.03541 0.50095 0.0
H1630 H 0.33807 0.98039 0.51903 0.0
C1631 C 0.36854 0.10668 0.53663 0.0
C1632 C 0.35371 0.07864 0.54404 0.0
C1633 C 0.35862 0.09142 0.52771 0.0
C1634 C 0.32827 0.99582 0.51409 0.0
H1635 H 0.32082 0.02123 0.4671 0.0
H1636 H 0.33067 0.04684 0.48273 0.0
H1637 H 0.3241 0.95389 0.50347 0.0
H1638 H 0.31864 0.01264 0.54794 0.0
H1639 H 0.30061 0.98587 0.53241 0.0
H1640 H 0.30953 0.07781 0.51159 0.0
C1641 C 0.31431 0.01303 0.48156 0.0
C1642 C 0.32015 0.98056 0.50516 0.0
C1643 C 0.30854 -0.00159 0.47259 0.0
C1644 C 0.32929 0.03501 0.54237 0.0
C1645 C 0.31958 0.0197 0.53347 0.0
C1646 C 0.31294 0.05082 0.50988 0.0
C1647 C 0.30059 0.98444 0.4889 0.0
C1648 C 0.30824 0.00017 0.49847 0.0
C1649 C 0.33421 0.04769 0.52602 0.0
C1650 C 0.32491 0.03121 0.51655 0.0
H1651 H 0.26 0.89259 0.47677 0.0
H1652 H 0.26919 0.91782 0.49249 0.0
H1653 H 0.29486 0.05093 0.49602 0.0
H1654 H 0.38782 0.14041 0.53777 0.0
H1655 H 0.37085 0.11377 0.52212 0.0
C1656 C 0.54698 0.45742 0.08096 0.0
C1657 C 0.55717 0.47878 0.08935 0.0
C1658 C 0.52579 0.4132 0.08069 0.0
C1659 C 0.50068 0.31996 0.095 0.0
H1660 H 0.41206 0.25878 0.07721 0.0
C1661 C 0.40121 0.14137 0.09711 0.0
C1662 C 0.40203 0.12061 0.08914 0.0
C1663 C 0.41246 0.1839 0.09685 0.0
C1664 C 0.43674 0.27556 0.0822 0.0
H1665 H 0.55331 0.47051 0.10402 0.0
H1666 H 0.51592 0.39385 0.10354 0.0
H1667 H 0.45027 0.33627 0.07724 0.0
H1668 H 0.41068 0.12679 0.07448 0.0
H1669 H 0.43036 0.20123 0.07405 0.0
H1670 H 0.48722 0.25955 0.09999 0.0
C1671 C 0.52492 0.41104 0.09716 0.0
C1672 C 0.45883 0.31984 0.08219 0.0
C1673 C 0.5463 0.45509 0.09744 0.0
C1674 C 0.40992 0.14195 0.08076 0.0
C1675 C 0.4212 0.18461 0.0805 0.0
C1676 C 0.47844 0.27591 0.09506 0.0
C1677 C 0.51422 0.38951 0.0888 0.0
C1678 C 0.49104 0.34252 0.08861 0.0
C1679 C 0.42467 0.20645 0.08861 0.0
C1680 C 0.44619 0.25323 0.08869 0.0
H1681 H 0.55496 0.47482 0.0746 0.0
H1682 H 0.5186 0.39762 0.07413 0.0
H1683 H 0.52591 0.33631 0.09991 0.0
H1684 H 0.39473 0.12566 0.10366 0.0
H1685 H 0.41398 0.19981 0.10318 0.0
C1686 C 0.57911 0.11735 0.09615 0.0
C1687 C 0.55376 0.10528 0.0883 0.0
C1688 C 0.62305 0.14077 0.09546 0.0
C1689 C 0.7116 0.16993 0.07936 0.0
H1690 H 0.77443 0.25444 0.09778 0.0
C1691 C 0.89058 0.29938 0.07822 0.0
C1692 C 0.91224 0.30868 0.08658 0.0
C1693 C 0.84765 0.26864 0.07777 0.0
C1694 C 0.75733 0.23055 0.09265 0.0
H1695 H 0.55464 0.1091 0.07356 0.0
H1696 H 0.63168 0.15134 0.07237 0.0
H1697 H 0.69765 0.21645 0.09816 0.0
H1698 H 0.90737 0.28962 0.10073 0.0
H1699 H 0.83276 0.23605 0.0999 0.0
H1700 H 0.77205 0.18554 0.07373 0.0
C1701 C 0.61748 0.14178 0.07905 0.0
C1702 C 0.71329 0.20874 0.09287 0.0
C1703 C 0.57335 0.11793 0.07973 0.0
C1704 C 0.89144 0.28363 0.09422 0.0
C1705 C 0.84867 0.25309 0.09376 0.0
C1706 C 0.75592 0.19225 0.07909 0.0
C1707 C 0.64286 0.15321 0.08691 0.0
C1708 C 0.6898 0.17778 0.0863 0.0
C1709 C 0.82591 0.24688 0.08566 0.0
C1710 C 0.77911 0.22235 0.08582 0.0
H1711 H 0.56511 0.10778 0.10285 0.0
H1712 H 0.64152 0.14827 0.10165 0.0
H1713 H 0.6945 0.14601 0.07425 0.0
H1714 H 0.90574 0.31806 0.07221 0.0
H1715 H 0.83078 0.26432 0.07143 0.0
C1716 C 0.73266 0.61241 0.08003 0.0
C1717 C 0.72553 0.6292 0.08798 0.0
C1718 C 0.76469 0.6022 0.07974 0.0
C1719 C 0.82614 0.57551 0.09584 0.0
H1720 H 0.87234 0.5603 0.07337 0.0
C1721 C 0.89902 0.46797 0.09461 0.0
C1722 C 0.93259 0.47828 0.08859 0.0
C1723 C 0.87676 0.48986 0.09425 0.0
C1724 C 0.86042 0.56485 0.07976 0.0
H1725 H 0.74907 0.6528 0.10151 0.0
H1726 H 0.80689 0.63769 0.10082 0.0
H1727 H 0.83484 0.59931 0.07321 0.0
H1728 H 0.96964 0.51966 0.07754 0.0
H1729 H 0.93254 0.55925 0.07721 0.0
H1730 H 0.85367 0.54313 0.10248 0.0
C1731 C 0.78638 0.63019 0.09496 0.0
C1732 C 0.8382 0.58678 0.07964 0.0
C1733 C 0.75359 0.63942 0.09532 0.0
C1734 C 0.94341 0.51065 0.08218 0.0
C1735 C 0.92194 0.53327 0.08198 0.0
C1736 C 0.84926 0.55454 0.096 0.0
C1737 C 0.79103 0.60947 0.08734 0.0
C1738 C 0.8198 0.59152 0.08763 0.0
C1739 C 0.8884 0.52336 0.08804 0.0
C1740 C 0.86588 0.54798 0.08793 0.0
H1741 H 0.71145 0.604 0.07426 0.0
H1742 H 0.76671 0.58599 0.07377 0.0
H1743 H 0.81209 0.57778 0.10214 0.0
H1744 H 0.88997 0.44299 0.09959 0.0
H1745 H 0.85041 0.48038 0.09887 0.0
C1746 C 0.44962 0.54455 0.9171 0.0
C1747 C 0.47505 0.5567 0.92494 0.0
C1748 C 0.40557 0.52213 0.91784 0.0
C1749 C 0.31811 0.49923 0.93337 0.0
H1750 H 0.25394 0.4035 0.91736 0.0
C1751 C 0.13734 0.41071 0.93423 0.0
C1752 C 0.11893 0.40638 0.92561 0.0
C1753 C 0.17927 0.41992 0.93501 0.0
C1754 C 0.2714 0.43015 0.92187 0.0
H1755 H 0.47422 0.55603 0.93972 0.0
H1756 H 0.39726 0.51722 0.94099 0.0
H1757 H 0.33117 0.44118 0.91686 0.0
H1758 H 0.12858 0.40408 0.91109 0.0
H1759 H 0.20147 0.42053 0.91243 0.0
H1760 H 0.25862 0.48936 0.93816 0.0
C1761 C 0.41145 0.52494 0.93428 0.0
C1762 C 0.31557 0.45179 0.92156 0.0
C1763 C 0.4555 0.54714 0.93354 0.0
C1764 C 0.14191 0.40753 0.91784 0.0
C1765 C 0.18377 0.41678 0.91861 0.0
C1766 C 0.27396 0.47775 0.93364 0.0
C1767 C 0.38606 0.51166 0.92643 0.0
C1768 C 0.33933 0.48702 0.92719 0.0
C1769 C 0.20349 0.42491 0.92718 0.0
C1770 C 0.25007 0.44345 0.92778 0.0
H1771 H 0.46369 0.55139 0.91038 0.0
H1772 H 0.38674 0.51294 0.91168 0.0
H1773 H 0.3356 0.52645 0.93774 0.0
H1774 H 0.12037 0.40971 0.94036 0.0
H1775 H 0.19333 0.4251 0.94172 0.0
C1776 C 0.48244 0.91965 0.93326 0.0
C1777 C 0.47507 0.93264 0.92478 0.0
C1778 C 0.50274 0.89583 0.93377 0.0
C1779 C 0.53057 0.82913 0.91966 0.0
H1780 H 0.6119 0.85027 0.93885 0.0
C1781 C 0.62957 0.7493 0.91858 0.0
C1782 C 0.62559 0.72513 0.92636 0.0
C1783 C 0.61817 0.78044 0.91889 0.0
C1784 C 0.58924 0.8441 0.93346 0.0
H1785 H 0.48323 0.93084 0.91019 0.0
H1786 H 0.51923 0.89029 0.91108 0.0
H1787 H 0.57531 0.89104 0.93836 0.0
H1788 H 0.61081 0.71772 0.94078 0.0
H1789 H 0.59101 0.77245 0.9413 0.0
H1790 H 0.54464 0.78257 0.91472 0.0
C1791 C 0.50859 0.89756 0.91734 0.0
C1792 C 0.56806 0.86717 0.93321 0.0
C1793 C 0.48801 0.92098 0.91683 0.0
C1794 C 0.61416 0.73574 0.93467 0.0
C1795 C 0.60276 0.76705 0.93497 0.0
C1796 C 0.55198 0.80652 0.91986 0.0
C1797 C 0.51634 0.88476 0.92582 0.0
C1798 C 0.53851 0.85998 0.92628 0.0
C1799 C 0.60267 0.78813 0.92697 0.0
C1800 C 0.58162 0.81383 0.92674 0.0
H1801 H 0.4728 0.92812 0.93951 0.0
H1802 H 0.50759 0.88595 0.9404 0.0
H1803 H 0.50733 0.82196 0.91435 0.0
H1804 H 0.6388 0.74228 0.9121 0.0
H1805 H 0.61927 0.79692 0.91266 0.0
C1806 C 0.28346 0.89605 0.91851 0.0
C1807 C 0.30727 0.91647 0.92631 0.0
C1808 C 0.2521 0.85358 0.91888 0.0
C1809 C 0.18785 0.76121 0.93349 0.0
H1810 H 0.2144 0.70207 0.91506 0.0
C1811 C 0.11512 0.57908 0.93365 0.0
C1812 C 0.10335 0.5588 0.92515 0.0
C1813 C 0.13846 0.62324 0.93417 0.0
C1814 C 0.20603 0.71797 0.92017 0.0
H1815 H 0.31357 0.90984 0.94082 0.0
H1816 H 0.25854 0.8354 0.94144 0.0
H1817 H 0.25242 0.77881 0.91525 0.0
H1818 H 0.10687 0.56888 0.91054 0.0
H1819 H 0.14654 0.64539 0.91144 0.0
H1820 H 0.14107 0.70006 0.93836 0.0
C1821 C 0.2644 0.85229 0.93505 0.0
C1822 C 0.22782 0.76198 0.92027 0.0
C1823 C 0.29591 0.89492 0.93469 0.0
C1824 C 0.11579 0.58346 0.9172 0.0
C1825 C 0.1387 0.62743 0.91772 0.0
C1826 C 0.16558 0.71692 0.93333 0.0
C1827 C 0.24388 0.83078 0.92705 0.0
C1828 C 0.21886 0.78406 0.9269 0.0
C1829 C 0.15023 0.64791 0.9262 0.0
C1830 C 0.17437 0.69484 0.92663 0.0
H1831 H 0.29104 0.91197 0.91198 0.0
H1832 H 0.23603 0.83785 0.91266 0.0
H1833 H 0.18054 0.77758 0.93869 0.0
H1834 H 0.10596 0.56089 0.93991 0.0
H1835 H 0.14736 0.63801 0.94081 0.0
C1836 C 0.21538 0.79039 0.4139 0.0
C1837 C 0.22351 0.81059 0.4224 0.0
C1838 C 0.1946 0.74623 0.41336 0.0
C1839 C 0.1668 0.65131 0.42738 0.0
H1840 H 0.08334 0.59164 0.40852 0.0
C1841 C 0.06703 0.47298 0.42878 0.0
C1842 C 0.07109 0.45284 0.42102 0.0
C1843 C 0.07785 0.51536 0.42842 0.0
C1844 C 0.10656 0.60801 0.41382 0.0
H1845 H 0.21623 0.80031 0.437 0.0
H1846 H 0.17944 0.7238 0.43606 0.0
H1847 H 0.12099 0.66914 0.40894 0.0
H1848 H 0.08489 0.45984 0.40655 0.0
H1849 H 0.10374 0.53411 0.40593 0.0
H1850 H 0.15228 0.59048 0.4323 0.0
C1851 C 0.18985 0.74182 0.4298 0.0
C1852 C 0.12836 0.65231 0.41403 0.0
C1853 C 0.21089 0.78581 0.43034 0.0
C1854 C 0.08156 0.47453 0.41266 0.0
C1855 C 0.09242 0.51708 0.4123 0.0
C1856 C 0.14478 0.60727 0.42723 0.0
C1857 C 0.18133 0.72142 0.42131 0.0
C1858 C 0.15866 0.67445 0.42084 0.0
C1859 C 0.09283 0.53838 0.42029 0.0
C1860 C 0.11433 0.58515 0.42048 0.0
H1861 H 0.22473 0.80866 0.40765 0.0
H1862 H 0.1891 0.73157 0.40671 0.0
H1863 H 0.19063 0.6672 0.43259 0.0
H1864 H 0.05849 0.45696 0.43531 0.0
H1865 H 0.07702 0.53088 0.43463 0.0
C1866 C 0.55826 0.62342 0.42814 0.0
C1867 C 0.58193 0.64672 0.42056 0.0
C1868 C 0.5164 0.59111 0.42711 0.0
C1869 C 0.42705 0.56411 0.4119 0.0
H1870 H 0.36931 0.46846 0.42826 0.0
C1871 C 0.2447 0.45123 0.41232 0.0
C1872 C 0.22606 0.44185 0.42102 0.0
C1873 C 0.28873 0.47326 0.41138 0.0
C1874 C 0.38506 0.49513 0.42366 0.0
H1875 H 0.5816 0.65158 0.40585 0.0
H1876 H 0.50859 0.59452 0.40403 0.0
H1877 H 0.44649 0.50774 0.42779 0.0
H1878 H 0.23902 0.44935 0.43553 0.0
H1879 H 0.31572 0.4878 0.43385 0.0
H1880 H 0.36543 0.55167 0.40787 0.0
C1881 C 0.52214 0.60203 0.4108 0.0
C1882 C 0.42921 0.51756 0.42338 0.0
C1883 C 0.5641 0.63447 0.41183 0.0
C1884 C 0.25233 0.45606 0.42873 0.0
C1885 C 0.29626 0.47769 0.42778 0.0
C1886 C 0.38285 0.54143 0.41214 0.0
C1887 C 0.4973 0.58121 0.41847 0.0
C1888 C 0.45076 0.55304 0.41768 0.0
C1889 C 0.31487 0.48591 0.41911 0.0
C1890 C 0.36149 0.50745 0.41819 0.0
H1891 H 0.5711 0.63185 0.43496 0.0
H1892 H 0.49826 0.57599 0.43319 0.0
H1893 H 0.44254 0.59163 0.40753 0.0
H1894 H 0.22531 0.44068 0.40625 0.0
H1895 H 0.3023 0.47925 0.40461 0.0
C1896 C 0.58642 0.82755 0.43043 0.0
C1897 C 0.59984 0.81542 0.42261 0.0
C1898 C 0.56461 0.84974 0.42964 0.0
C1899 C 0.49946 0.87152 0.41405 0.0
H1900 H 0.53052 0.96748 0.42994 0.0
C1901 C 0.40567 0.95845 0.41312 0.0
C1902 C 0.39192 0.96317 0.42175 0.0
C1903 C 0.43851 0.94944 0.41234 0.0
C1904 C 0.52145 0.94075 0.42546 0.0
H1905 H 0.59983 0.81597 0.40783 0.0
H1906 H 0.56132 0.85433 0.40648 0.0
H1907 H 0.57068 0.93051 0.43049 0.0
H1908 H 0.40453 0.96626 0.43625 0.0
H1909 H 0.46115 0.95014 0.4349 0.0
H1910 H 0.44932 0.88056 0.40925 0.0
C1911 C 0.56782 0.84678 0.4132 0.0
C1912 C 0.54435 0.91953 0.4258 0.0
C1913 C 0.5899 0.82485 0.41399 0.0
C1914 C 0.41415 0.96251 0.4295 0.0
C1915 C 0.44686 0.95345 0.42872 0.0
C1916 C 0.4764 0.89256 0.41375 0.0
C1917 C 0.55551 0.85998 0.42102 0.0
C1918 C 0.53307 0.88422 0.42022 0.0
C1919 C 0.45821 0.94504 0.42016 0.0
C1920 C 0.48661 0.92693 0.41958 0.0
H1921 H 0.59363 0.82083 0.43716 0.0
H1922 H 0.55484 0.85889 0.43578 0.0
H1923 H 0.48988 0.84424 0.40972 0.0
H1924 H 0.38937 0.95904 0.40701 0.0
H1925 H 0.44717 0.94402 0.40563 0.0
C1926 C 0.80363 0.73496 0.25118 0.0
C1927 C 0.78347 0.73766 0.25909 0.0
C1928 C 0.84617 0.74615 0.2514 0.0
C1929 C 0.93867 0.77282 0.26597 0.0
H1930 H -0.00088 0.85683 0.24725 0.0
C1931 C 0.12086 0.88102 0.26642 0.0
C1932 C 0.1419 0.88931 0.25801 0.0
C1933 C 0.07666 0.86028 0.26677 0.0
C1934 C 0.98284 0.833 0.25244 0.0
H1935 H 0.79083 0.74993 0.27361 0.0
H1936 H 0.86533 0.76946 0.27398 0.0
H1937 H 0.92231 0.81933 0.24747 0.0
H1938 H 0.13306 0.88246 0.24337 0.0
H1939 H 0.05631 0.84577 0.24399 0.0
H1940 H -0.00055 0.78652 0.27092 0.0
C1941 C 0.84819 0.75883 0.26762 0.0
C1942 C 0.93876 0.81145 0.25256 0.0
C1943 C 0.80549 0.7476 0.2674 0.0
C1944 C 0.11788 0.87693 0.24996 0.0
C1945 C 0.07379 0.85594 0.25032 0.0
C1946 C 0.98297 0.79419 0.26581 0.0
C1947 C 0.86938 0.76021 0.25953 0.0
C1948 C 0.91618 0.78111 0.25931 0.0
C1949 C 0.05258 0.8472 0.25872 0.0
C1950 C 0.00556 0.82456 0.25903 0.0
H1951 H 0.78739 0.7269 0.24469 0.0
H1952 H 0.86153 0.74602 0.2451 0.0
H1953 H 0.92201 0.74958 0.27125 0.0
H1954 H 0.13851 0.89023 0.27274 0.0
H1955 H 0.06139 0.85467 0.27335 0.0
C1956 C 0.28242 0.06923 0.2681 0.0
C1957 C 0.29328 0.05785 0.25981 0.0
C1958 C 0.27122 0.10066 0.26829 0.0
C1959 C 0.21827 0.13664 0.25313 0.0
H1960 H 0.24131 0.22297 0.27115 0.0
C1961 C 0.14909 0.24659 0.24997 0.0
C1962 C 0.13701 0.25889 0.25795 0.0
C1963 C 0.17044 0.22395 0.25045 0.0
C1964 C 0.23415 0.19857 0.26614 0.0
H1965 H 0.30616 0.07397 0.2455 0.0
H1966 H 0.28686 0.1288 0.24588 0.0
H1967 H 0.28007 0.18435 0.27168 0.0
H1968 H 0.13654 0.25592 0.2727 0.0
H1969 H 0.17258 0.21497 0.27354 0.0
H1970 H 0.17148 0.1493 0.24774 0.0
C1971 C 0.28608 0.11283 0.25216 0.0
C1972 C 0.25659 0.1768 0.26641 0.0
C1973 C 0.29728 0.08156 0.25196 0.0
C1974 C 0.14557 0.24695 0.26643 0.0
C1975 C 0.1666 0.22389 0.26691 0.0
C1976 C 0.19559 0.15794 0.25291 0.0
C1977 C 0.27082 0.12104 0.26021 0.0
C1978 C 0.24901 0.14587 0.25986 0.0
C1979 C 0.17975 0.21259 0.25893 0.0
C1980 C 0.20336 0.18933 0.25937 0.0
H1981 H 0.27919 0.05163 0.27427 0.0
H1982 H 0.25966 0.10653 0.27459 0.0
H1983 H 0.211 0.11212 0.24813 0.0
H1984 H 0.14335 0.25567 0.24333 0.0
H1985 H 0.18064 0.21637 0.24417 0.0
C1986 C 0.77874 0.91371 0.25116 0.0
C1987 C 0.76693 0.88891 0.25909 0.0
C1988 C 0.80173 0.95769 0.2517 0.0
C1989 C 0.83054 0.04717 0.26751 0.0
H1990 H 0.91516 0.10912 0.24903 0.0
C1991 C 0.96134 0.22527 0.2686 0.0
C1992 C 0.97168 0.24689 0.26023 0.0
C1993 C 0.92983 0.18262 0.26904 0.0
C1994 C 0.89119 0.09228 0.25417 0.0
H1995 H 0.77073 0.8908 0.27383 0.0
H1996 H 0.81231 0.96791 0.27477 0.0
H1997 H 0.87697 0.03239 0.24879 0.0
H1998 H 0.95362 0.24244 0.24602 0.0
H1999 H 0.89865 0.16834 0.24682 0.0
H2000 H 0.84636 0.10783 0.27303 0.0
C2001 C 0.80283 0.95326 0.26813 0.0
C2002 C 0.86928 0.04825 0.25404 0.0
C2003 C 0.77939 0.90909 0.26759 0.0
C2004 C 0.94684 0.22651 0.25254 0.0
C2005 C 0.9155 0.18402 0.25298 0.0
C2006 C 0.85296 0.09147 0.2677 0.0
C2007 C 0.81403 0.97809 0.26019 0.0
C2008 C 0.83837 0.02506 0.26064 0.0
C2009 C 0.90829 0.16114 0.26111 0.0
C2010 C 0.88317 0.11437 0.26096 0.0
H2011 H 0.76927 0.89923 0.2445 0.0
H2012 H 0.80905 0.97571 0.24544 0.0
H2013 H 0.80663 0.03031 0.27265 0.0
H2014 H 0.97982 0.24012 0.27465 0.0
H2015 H 0.92477 0.1657 0.2754 0.0
C2016 C 0.74577 0.80833 0.74715 0.0
C2017 C 0.73797 0.78717 0.75555 0.0
C2018 C 0.75661 0.85085 0.74686 0.0
C2019 C 0.81342 0.94205 0.76137 0.0
H2020 H 0.78489 0.00233 0.7436 0.0
C2021 C 0.88045 0.12088 0.76386 0.0
C2022 C 0.89134 0.14468 0.75578 0.0
C2023 C 0.85925 0.07686 0.76355 0.0
C2024 C 0.79354 0.98591 0.74854 0.0
H2025 H 0.73015 0.79218 0.77005 0.0
H2026 H 0.74863 0.8661 0.7695 0.0
H2027 H 0.74679 0.92483 0.74355 0.0
H2028 H 0.88941 0.14101 0.74104 0.0
H2029 H 0.85337 0.06383 0.7405 0.0
H2030 H 0.86089 0.00245 0.7662 0.0
C2031 C 0.74741 0.85018 0.76319 0.0
C2032 C 0.77151 0.94164 0.74854 0.0
C2033 C 0.73664 0.80782 0.76349 0.0
C2034 C 0.88141 0.1235 0.74738 0.0
C2035 C 0.8604 0.07931 0.74707 0.0
C2036 C 0.83561 0.98607 0.76131 0.0
C2037 C 0.75966 0.87265 0.75495 0.0
C2038 C 0.78109 0.91937 0.75501 0.0
C2039 C 0.84879 0.05551 0.75516 0.0
C2040 C 0.8258 0.00858 0.75494 0.0
H2041 H 0.74689 0.79321 0.7409 0.0
H2042 H 0.76582 0.86745 0.7404 0.0
H2043 H 0.8223 0.9257 0.76628 0.0
H2044 H 0.88727 0.13617 0.77045 0.0
H2045 H 0.85021 0.05955 0.76991 0.0
C2046 C 0.22336 0.95568 0.76149 0.0
C2047 C 0.24684 0.97888 0.75388 0.0
C2048 C 0.18139 0.92345 0.76053 0.0
C2049 C 0.09114 0.89549 0.74545 0.0
H2050 H 0.03483 0.79909 0.76167 0.0
C2051 C 0.90903 0.78101 0.74577 0.0
C2052 C 0.8903 0.77062 0.75445 0.0
C2053 C 0.9531 0.80331 0.74484 0.0
C2054 C 0.05015 0.82597 0.75711 0.0
H2055 H 0.24583 0.98379 0.73917 0.0
H2056 H 0.17265 0.9269 0.73747 0.0
H2057 H 0.11198 0.83973 0.76123 0.0
H2058 H 0.90322 0.77637 0.76896 0.0
H2059 H 0.97988 0.81528 0.76732 0.0
H2060 H 0.02914 0.88196 0.74144 0.0
C2061 C 0.18646 0.93439 0.74422 0.0
C2062 C 0.09431 0.84921 0.75685 0.0
C2063 C 0.22855 0.96673 0.74518 0.0
C2064 C 0.91655 0.78382 0.76217 0.0
C2065 C 0.96051 0.80576 0.76124 0.0
C2066 C 0.04693 0.87205 0.74568 0.0
C2067 C 0.16192 0.91351 0.75192 0.0
C2068 C 0.11536 0.8849 0.75119 0.0
C2069 C 0.97926 0.81528 0.75257 0.0
C2070 C 0.02601 0.83771 0.75167 0.0
H2071 H 0.2365 0.96408 0.76829 0.0
H2072 H 0.16348 0.90829 0.76662 0.0
H2073 H 0.10622 0.92314 0.74111 0.0
H2074 H 0.88968 0.77124 0.73968 0.0
H2075 H 0.96671 0.81021 0.73807 0.0
C2076 C 0.25213 0.15984 0.76351 0.0
C2077 C 0.26538 0.14746 0.7557 0.0
C2078 C 0.23064 0.18233 0.7627 0.0
C2079 C 0.16617 0.20475 0.74706 0.0
H2080 H 0.19807 0.3011 0.76288 0.0
C2081 C 0.07354 0.2926 0.746 0.0
C2082 C 0.05965 0.29724 0.75462 0.0
C2083 C 0.10638 0.2836 0.74524 0.0
C2084 C 0.18878 0.27427 0.75842 0.0
H2085 H 0.26537 0.14781 0.74093 0.0
H2086 H 0.22743 0.18671 0.73953 0.0
H2087 H 0.2376 0.2635 0.76349 0.0
H2088 H 0.07208 0.30033 0.76913 0.0
H2089 H 0.12869 0.28418 0.76782 0.0
H2090 H 0.11642 0.21431 0.74222 0.0
C2091 C 0.23381 0.17913 0.74627 0.0
C2092 C 0.21131 0.25269 0.75879 0.0
C2093 C 0.25555 0.15688 0.74707 0.0
C2094 C 0.0818 0.29662 0.76239 0.0
C2095 C 0.11451 0.28754 0.76163 0.0
C2096 C 0.14348 0.22615 0.74673 0.0
C2097 C 0.22172 0.19262 0.75407 0.0
C2098 C 0.1997 0.21724 0.75324 0.0
C2099 C 0.12591 0.2791 0.75309 0.0
C2100 C 0.15402 0.26068 0.75252 0.0
H2101 H 0.25928 0.15312 0.77025 0.0
H2102 H 0.22102 0.19171 0.76883 0.0
H2103 H 0.15634 0.17735 0.74275 0.0
H2104 H 0.05733 0.29322 0.73987 0.0
H2105 H 0.11511 0.27817 0.73855 0.0
C2106 C 0.47201 0.09199 0.60159 0.0
C2107 C 0.44782 0.07379 0.59372 0.0
C2108 C 0.51417 0.10184 0.60195 0.0
C2109 C 0.60122 0.12519 0.58584 0.0
H2110 H 0.66437 0.14499 0.60825 0.0
C2111 C 0.78188 0.23258 0.58628 0.0
C2112 C 0.80546 0.22285 0.59234 0.0
C2113 C 0.73774 0.21115 0.58683 0.0
C2114 C 0.64737 0.13914 0.60189 0.0
H2115 H 0.44688 0.04708 0.58051 0.0
H2116 H 0.51959 0.06153 0.58137 0.0
H2117 H 0.58773 0.10599 0.60867 0.0
H2118 H 0.80166 0.1831 0.6037 0.0
H2119 H 0.72497 0.14438 0.60438 0.0
H2120 H 0.66068 0.15634 0.57899 0.0
C2121 C 0.50695 0.07045 0.58707 0.0
C2122 C 0.60318 0.1172 0.60215 0.0
C2123 C 0.46508 0.0616 0.58662 0.0
C2124 C 0.78424 0.19166 0.59901 0.0
C2125 C 0.74015 0.16952 0.59942 0.0
C2126 C 0.64532 0.1462 0.58555 0.0
C2127 C 0.53275 0.09278 0.59453 0.0
C2128 C 0.57947 0.11076 0.59416 0.0
C2129 C 0.71621 0.17874 0.5933 0.0
C2130 C 0.66908 0.15436 0.59359 0.0
H2131 H 0.45959 0.10192 0.60716 0.0
H2132 H 0.53277 0.11927 0.60779 0.0
H2133 H 0.58442 0.12163 0.57954 0.0
H2134 H 0.79755 0.25666 0.58111 0.0
H2135 H 0.7206 0.22005 0.58216 0.0
C2136 C 0.9503 0.40232 0.60261 0.0
C2137 C 0.95818 0.39104 0.594 0.0
C2138 C 0.94079 0.4348 0.60347 0.0
C2139 C 0.93592 0.52081 0.59066 0.0
H2140 H 0.8347 0.48559 0.6051 0.0
C2141 C 0.82333 0.58568 0.58451 0.0
C2142 C 0.8094 0.59811 0.5922 0.0
C2143 C 0.84526 0.5637 0.58551 0.0
C2144 C 0.86327 0.49614 0.60113 0.0
H2145 H 0.96643 0.40774 0.57966 0.0
H2146 H 0.94944 0.46362 0.58113 0.0
H2147 H 0.87118 0.44518 0.60584 0.0
H2148 H 0.80636 0.59604 0.60696 0.0
H2149 H 0.84414 0.55705 0.60867 0.0
H2150 H 0.92679 0.57081 0.58568 0.0
C2151 C 0.95063 0.44772 0.58725 0.0
C2152 C 0.8844 0.47318 0.60159 0.0
C2153 C 0.96021 0.41541 0.5864 0.0
C2154 C 0.81667 0.5869 0.6009 0.0
C2155 C 0.83827 0.56456 0.60189 0.0
C2156 C 0.91457 0.54355 0.59014 0.0
C2157 C 0.93903 0.45661 0.59573 0.0
C2158 C 0.92053 0.48474 0.59623 0.0
C2159 C 0.85338 0.55336 0.59421 0.0
C2160 C 0.87759 0.53096 0.59524 0.0
H2161 H 0.94875 0.38435 0.60861 0.0
H2162 H 0.93291 0.44152 0.61013 0.0
H2163 H 0.96402 0.531 0.58655 0.0
H2164 H 0.81832 0.59391 0.57772 0.0
H2165 H 0.85595 0.55482 0.57946 0.0
C2166 C 0.44545 0.2504 0.58421 0.0
C2167 C 0.43272 0.22572 0.59216 0.0
C2168 C 0.46896 0.29438 0.58473 0.0
C2169 C 0.49801 0.38427 0.60045 0.0
H2170 H 0.58448 0.44507 0.58224 0.0
C2171 C 0.63092 0.56168 0.60165 0.0
C2172 C 0.64169 0.58319 0.59326 0.0
C2173 C 0.59908 0.51916 0.60208 0.0
C2174 C 0.56002 0.42855 0.5873 0.0
H2175 H 0.43539 0.22776 0.60691 0.0
H2176 H 0.47785 0.30478 0.60783 0.0
H2177 H 0.5451 0.36834 0.582 0.0
H2178 H 0.6242 0.57877 0.57902 0.0
H2179 H 0.56868 0.50489 0.57981 0.0
H2180 H 0.51452 0.44522 0.6059 0.0
C2181 C 0.4687 0.2901 0.60119 0.0
C2182 C 0.53742 0.38453 0.58717 0.0
C2183 C 0.44473 0.24597 0.60066 0.0
C2184 C 0.61707 0.56288 0.58555 0.0
C2185 C 0.58541 0.52054 0.58599 0.0
C2186 C 0.52113 0.42855 0.60065 0.0
C2187 C 0.48085 0.31483 0.59322 0.0
C2188 C 0.50583 0.36177 0.59367 0.0
C2189 C 0.57767 0.49773 0.59414 0.0
C2190 C 0.55201 0.45102 0.594 0.0
H2191 H 0.43632 0.23585 0.57755 0.0
H2192 H 0.47703 0.31236 0.57846 0.0
H2193 H 0.4736 0.36775 0.60551 0.0
H2194 H 0.64927 0.5765 0.60771 0.0
H2195 H 0.59359 0.50226 0.60846 0.0
loop_
_geom_bond_atom_site_label_1
_geom_bond_atom_site_label_2
_geom_bond_distance
_geom_bond_site_symmetry_2
_ccdc_geom_bond_type
Zn0 O1 2.055 . S
Zn0 O8 2.046 1_545 S
Zn0 N16 2.036 . S
Zn0 O28 2.053 1_545 S
Zn0 O30 2.066 . S
O1 Zn0 2.055 . S
O1 C4 1.259 . S
C2 O30 1.256 . S
C2 O31 1.244 . S
Zn3 O5 2.046 . S
Zn3 O7 2.055 1_545 S
Zn3 N9 2.036 . S
Zn3 O27 2.066 1_545 S
Zn3 O31 2.053 . S
C4 O1 1.259 . S
C4 O5 1.254 . S
O5 Zn3 2.046 . S
O5 C4 1.254 . S
C6 O27 1.256 . S
C6 O28 1.244 . S
O7 Zn3 2.055 1_565 S
O7 C29 1.259 . S
O8 Zn0 2.046 1_565 S
O8 C29 1.254 . S
N9 Zn3 2.036 . S
N9 C10 1.298 1_545 S
N9 N12 1.398 . S
C10 N9 1.298 1_565 S
C10 N13 1.367 . S
C10 C23 1.481 . S
C11 N12 1.299 . S
C11 N13 1.379 1_545 S
N12 N9 1.398 . S
N12 C11 1.299 . S
N13 C10 1.367 . S
N13 C11 1.379 1_565 S
C14 N16 1.298 . S
C14 N18 1.367 . S
C14 C22 1.481 . S
C15 N17 1.299 . S
C15 N18 1.379 1_565 S
N16 Zn0 2.036 . S
N16 C14 1.298 . S
N16 N17 1.398 1_545 S
N17 C15 1.299 . S
N17 N16 1.398 1_565 S
N18 C14 1.367 . S
N18 C15 1.379 1_545 S
H19 C22 0.980 . S
H20 C22 0.981 . S
H21 C22 0.981 . S
C22 C14 1.481 . S
C22 H19 0.980 . S
C22 H20 0.981 . S
C22 H21 0.981 . S
C23 C10 1.481 . S
C23 H24 0.980 . S
C23 H25 0.981 . S
C23 H26 0.981 . S
H24 C23 0.980 . S
H25 C23 0.981 . S
H26 C23 0.981 . S
O27 Zn3 2.066 1_565 S
O27 C6 1.256 . S
O28 Zn0 2.053 1_565 S
O28 C6 1.244 . S
C29 O7 1.259 . S
C29 O8 1.254 . S
O30 Zn0 2.066 . S
O30 C2 1.256 . S
O31 C2 1.244 . S
O31 Zn3 2.053 . S
Zn32 O33 2.055 1_455 S
Zn32 O40 2.046 . S
Zn32 N48 2.036 . S
Zn32 O60 2.053 . S
Zn32 O62 2.066 1_455 S
O33 Zn32 2.055 1_655 S
O33 C36 1.259 . S
C34 O62 1.256 . S
C34 O63 1.244 . S
Zn35 O37 2.046 1_455 S
Zn35 O39 2.055 . S
Zn35 N41 2.036 . S
Zn35 O59 2.066 . S
Zn35 O63 2.053 1_455 S
C36 O33 1.259 . S
C36 O37 1.254 . S
O37 Zn35 2.046 1_655 S
O37 C36 1.254 . S
C38 O59 1.256 . S
C38 O60 1.244 . S
O39 Zn35 2.055 . S
O39 C61 1.259 . S
O40 Zn32 2.046 . S
O40 C61 1.254 . S
N41 Zn35 2.036 . S
N41 C42 1.298 . S
N41 N44 1.398 1_455 S
C42 N41 1.298 . S
C42 N45 1.367 . S
C42 C55 1.481 . S
C43 N44 1.299 1_455 S
C43 N45 1.379 . S
N44 N41 1.398 1_655 S
N44 C43 1.299 1_655 S
N45 C42 1.367 . S
N45 C43 1.379 . S
C46 N48 1.298 . S
C46 N50 1.367 . S
C46 C54 1.481 1_455 S
C47 N49 1.299 . S
C47 N50 1.379 . S
N48 Zn32 2.036 . S
N48 C46 1.298 . S
N48 N49 1.398 . S
N49 C47 1.299 . S
N49 N48 1.398 . S
N50 C46 1.367 . S
N50 C47 1.379 . S
H51 C54 0.980 . S
H52 C54 0.981 . S
H53 C54 0.981 . S
C54 C46 1.481 1_655 S
C54 H51 0.980 . S
C54 H52 0.981 . S
C54 H53 0.981 . S
C55 C42 1.481 . S
C55 H56 0.980 . S
C55 H57 0.981 . S
C55 H58 0.981 . S
H56 C55 0.980 . S
H57 C55 0.981 . S
H58 C55 0.981 . S
O59 Zn35 2.066 . S
O59 C38 1.256 . S
O60 Zn32 2.053 . S
O60 C38 1.244 . S
C61 O39 1.259 . S
C61 O40 1.254 . S
O62 Zn32 2.066 1_655 S
O62 C34 1.256 . S
O63 C34 1.244 . S
O63 Zn35 2.053 1_655 S
Zn64 O65 2.055 . S
Zn64 O72 2.046 . S
Zn64 N80 2.036 . S
Zn64 O92 2.053 . S
Zn64 O94 2.066 . S
O65 Zn64 2.055 . S
O65 C68 1.259 . S
C66 O94 1.256 . S
C66 O95 1.244 . S
Zn67 O69 2.046 . S
Zn67 O71 2.055 . S
Zn67 N73 2.036 . S
Zn67 O91 2.066 . S
Zn67 O95 2.053 . S
C68 O65 1.259 . S
C68 O69 1.254 . S
O69 Zn67 2.046 . S
O69 C68 1.254 . S
C70 O91 1.256 . S
C70 O92 1.244 . S
O71 Zn67 2.055 . S
O71 C93 1.259 . S
O72 Zn64 2.046 . S
O72 C93 1.254 . S
N73 Zn67 2.036 . S
N73 C74 1.298 . S
N73 N76 1.398 . S
C74 N73 1.298 . S
C74 N77 1.367 . S
C74 C87 1.481 . S
C75 N76 1.299 . S
C75 N77 1.379 . S
N76 N73 1.398 . S
N76 C75 1.299 . S
N77 C74 1.367 . S
N77 C75 1.379 . S
C78 N80 1.298 . S
C78 N82 1.367 . S
C78 C86 1.481 . S
C79 N81 1.299 . S
C79 N82 1.379 . S
N80 Zn64 2.036 . S
N80 C78 1.298 . S
N80 N81 1.398 . S
N81 C79 1.299 . S
N81 N80 1.398 . S
N82 C78 1.367 . S
N82 C79 1.379 . S
H83 C86 0.980 . S
H84 C86 0.981 . S
H85 C86 0.981 . S
C86 C78 1.481 . S
C86 H83 0.980 . S
C86 H84 0.981 . S
C86 H85 0.981 . S
C87 C74 1.481 . S
C87 H88 0.980 . S
C87 H89 0.981 . S
C87 H90 0.981 . S
H88 C87 0.980 . S
H89 C87 0.981 . S
H90 C87 0.981 . S
O91 Zn67 2.066 . S
O91 C70 1.256 . S
O92 Zn64 2.053 . S
O92 C70 1.244 . S
C93 O71 1.259 . S
C93 O72 1.254 . S
O94 Zn64 2.066 . S
O94 C66 1.256 . S
O95 C66 1.244 . S
O95 Zn67 2.053 . S
Zn96 O97 2.055 1_455 S
Zn96 O104 2.046 . S
Zn96 N112 2.036 . S
Zn96 O124 2.053 . S
Zn96 O126 2.066 1_455 S
O97 Zn96 2.055 1_655 S
O97 C100 1.259 . S
C98 O126 1.256 . S
C98 O127 1.244 . S
Zn99 O101 2.046 1_455 S
Zn99 O103 2.055 . S
Zn99 N105 2.036 . S
Zn99 O123 2.066 . S
Zn99 O127 2.053 1_455 S
C100 O97 1.259 . S
C100 O101 1.254 . S
O101 Zn99 2.046 1_655 S
O101 C100 1.254 . S
C102 O123 1.256 . S
C102 O124 1.244 . S
O103 Zn99 2.055 . S
O103 C125 1.259 . S
O104 Zn96 2.046 . S
O104 C125 1.254 . S
N105 Zn99 2.036 . S
N105 C106 1.298 . S
N105 N108 1.398 1_455 S
C106 N105 1.298 . S
C106 N109 1.367 . S
C106 C119 1.481 . S
C107 N108 1.299 . S
C107 N109 1.379 1_655 S
N108 N105 1.398 1_655 S
N108 C107 1.299 . S
N109 C106 1.367 . S
N109 C107 1.379 1_455 S
C110 N112 1.298 1_655 S
C110 N114 1.367 . S
C110 C118 1.481 . S
C111 N113 1.299 . S
C111 N114 1.379 1_455 S
N112 Zn96 2.036 . S
N112 C110 1.298 1_455 S
N112 N113 1.398 . S
N113 C111 1.299 . S
N113 N112 1.398 . S
N114 C110 1.367 . S
N114 C111 1.379 1_655 S
H115 C118 0.980 . S
H116 C118 0.981 . S
H117 C118 0.981 . S
C118 C110 1.481 . S
C118 H115 0.980 . S
C118 H116 0.981 . S
C118 H117 0.981 . S
C119 C106 1.481 . S
C119 H120 0.980 . S
C119 H121 0.981 . S
C119 H122 0.981 . S
H120 C119 0.980 . S
H121 C119 0.981 . S
H122 C119 0.981 . S
O123 Zn99 2.066 . S
O123 C102 1.256 . S
O124 Zn96 2.053 . S
O124 C102 1.244 . S
C125 O103 1.259 . S
C125 O104 1.254 . S
O126 Zn96 2.066 1_655 S
O126 C98 1.256 . S
O127 C98 1.244 . S
O127 Zn99 2.053 1_655 S
Zn128 O129 2.055 . S
Zn128 O136 2.046 . S
Zn128 N144 2.036 . S
Zn128 O156 2.053 . S
Zn128 O158 2.066 . S
O129 Zn128 2.055 . S
O129 C132 1.259 . S
C130 O158 1.256 . S
C130 O159 1.244 . S
Zn131 O133 2.046 . S
Zn131 O135 2.055 . S
Zn131 N137 2.036 . S
Zn131 O155 2.066 . S
Zn131 O159 2.053 . S
C132 O129 1.259 . S
C132 O133 1.254 . S
O133 Zn131 2.046 . S
O133 C132 1.254 . S
C134 O155 1.256 . S
C134 O156 1.244 . S
O135 Zn131 2.055 . S
O135 C157 1.259 . S
O136 Zn128 2.046 . S
O136 C157 1.254 . S
N137 Zn131 2.036 . S
N137 C138 1.298 . S
N137 N140 1.398 . S
C138 N137 1.298 . S
C138 N141 1.367 . S
C138 C151 1.481 . S
C139 N140 1.299 . S
C139 N141 1.379 . S
N140 N137 1.398 . S
N140 C139 1.299 . S
N141 C138 1.367 . S
N141 C139 1.379 . S
C142 N144 1.298 . S
C142 N146 1.367 . S
C142 C150 1.481 . S
C143 N145 1.299 . S
C143 N146 1.379 . S
N144 Zn128 2.036 . S
N144 C142 1.298 . S
N144 N145 1.398 . S
N145 C143 1.299 . S
N145 N144 1.398 . S
N146 C142 1.367 . S
N146 C143 1.379 . S
H147 C150 0.980 . S
H148 C150 0.981 . S
H149 C150 0.981 . S
C150 C142 1.481 . S
C150 H147 0.980 . S
C150 H148 0.981 . S
C150 H149 0.981 . S
C151 C138 1.481 . S
C151 H152 0.980 . S
C151 H153 0.981 . S
C151 H154 0.981 . S
H152 C151 0.980 . S
H153 C151 0.981 . S
H154 C151 0.981 . S
O155 Zn131 2.066 . S
O155 C134 1.256 . S
O156 Zn128 2.053 . S
O156 C134 1.244 . S
C157 O135 1.259 . S
C157 O136 1.254 . S
O158 Zn128 2.066 . S
O158 C130 1.256 . S
O159 C130 1.244 . S
O159 Zn131 2.053 . S
Zn160 O161 2.055 1_545 S
Zn160 O168 2.046 . S
Zn160 N176 2.036 . S
Zn160 O188 2.053 . S
Zn160 O190 2.066 1_545 S
O161 Zn160 2.055 1_565 S
O161 C164 1.259 . S
C162 O190 1.256 . S
C162 O191 1.244 . S
Zn163 O165 2.046 1_545 S
Zn163 O167 2.055 . S
Zn163 N169 2.036 . S
Zn163 O187 2.066 . S
Zn163 O191 2.053 1_545 S
C164 O161 1.259 . S
C164 O165 1.254 . S
O165 Zn163 2.046 1_565 S
O165 C164 1.254 . S
C166 O187 1.256 . S
C166 O188 1.244 . S
O167 Zn163 2.055 . S
O167 C189 1.259 . S
O168 Zn160 2.046 . S
O168 C189 1.254 . S
N169 Zn163 2.036 . S
N169 C170 1.298 . S
N169 N172 1.398 1_545 S
C170 N169 1.298 . S
C170 N173 1.367 . S
C170 C183 1.481 . S
C171 N172 1.299 1_545 S
C171 N173 1.379 . S
N172 N169 1.398 1_565 S
N172 C171 1.299 1_565 S
N173 C170 1.367 . S
N173 C171 1.379 . S
C174 N176 1.298 . S
C174 N178 1.367 . S
C174 C182 1.481 1_545 S
C175 N177 1.299 . S
C175 N178 1.379 . S
N176 Zn160 2.036 . S
N176 C174 1.298 . S
N176 N177 1.398 . S
N177 C175 1.299 . S
N177 N176 1.398 . S
N178 C174 1.367 . S
N178 C175 1.379 . S
H179 C182 0.980 . S
H180 C182 0.981 . S
H181 C182 0.981 . S
C182 C174 1.481 1_565 S
C182 H179 0.980 . S
C182 H180 0.981 . S
C182 H181 0.981 . S
C183 C170 1.481 . S
C183 H184 0.980 . S
C183 H185 0.981 . S
C183 H186 0.981 . S
H184 C183 0.980 . S
H185 C183 0.981 . S
H186 C183 0.981 . S
O187 Zn163 2.066 . S
O187 C166 1.256 . S
O188 Zn160 2.053 . S
O188 C166 1.244 . S
C189 O167 1.259 . S
C189 O168 1.254 . S
O190 Zn160 2.066 1_565 S
O190 C162 1.256 . S
O191 C162 1.244 . S
O191 Zn163 2.053 1_565 S
Zn192 O193 2.055 . S
Zn192 O200 2.046 . S
Zn192 N208 2.036 . S
Zn192 O220 2.053 . S
Zn192 O222 2.066 . S
O193 Zn192 2.055 . S
O193 C196 1.259 . S
C194 O222 1.256 . S
C194 O223 1.244 . S
Zn195 O197 2.046 . S
Zn195 O199 2.055 . S
Zn195 N201 2.036 . S
Zn195 O219 2.066 . S
Zn195 O223 2.053 . S
C196 O193 1.259 . S
C196 O197 1.254 . S
O197 Zn195 2.046 . S
O197 C196 1.254 . S
C198 O219 1.256 . S
C198 O220 1.244 . S
O199 Zn195 2.055 . S
O199 C221 1.259 . S
O200 Zn192 2.046 . S
O200 C221 1.254 . S
N201 Zn195 2.036 . S
N201 C202 1.298 . S
N201 N204 1.398 . S
C202 N201 1.298 . S
C202 N205 1.367 . S
C202 C215 1.481 . S
C203 N204 1.299 . S
C203 N205 1.379 . S
N204 N201 1.398 . S
N204 C203 1.299 . S
N205 C202 1.367 . S
N205 C203 1.379 . S
C206 N208 1.298 . S
C206 N210 1.367 . S
C206 C214 1.481 . S
C207 N209 1.299 . S
C207 N210 1.379 . S
N208 Zn192 2.036 . S
N208 C206 1.298 . S
N208 N209 1.398 . S
N209 C207 1.299 . S
N209 N208 1.398 . S
N210 C206 1.367 . S
N210 C207 1.379 . S
H211 C214 0.980 . S
H212 C214 0.981 . S
H213 C214 0.981 . S
C214 C206 1.481 . S
C214 H211 0.980 . S
C214 H212 0.981 . S
C214 H213 0.981 . S
C215 C202 1.481 . S
C215 H216 0.980 . S
C215 H217 0.981 . S
C215 H218 0.981 . S
H216 C215 0.980 . S
H217 C215 0.981 . S
H218 C215 0.981 . S
O219 Zn195 2.066 . S
O219 C198 1.256 . S
O220 Zn192 2.053 . S
O220 C198 1.244 . S
C221 O199 1.259 . S
C221 O200 1.254 . S
O222 Zn192 2.066 . S
O222 C194 1.256 . S
O223 C194 1.244 . S
O223 Zn195 2.053 . S
Zn224 O225 2.055 . S
Zn224 O232 2.046 . S
Zn224 N240 2.036 . S
Zn224 O252 2.053 . S
Zn224 O254 2.066 . S
O225 Zn224 2.055 . S
O225 C228 1.259 . S
C226 O254 1.256 . S
C226 O255 1.244 . S
Zn227 O229 2.046 . S
Zn227 O231 2.055 . S
Zn227 N233 2.036 . S
Zn227 O251 2.066 . S
Zn227 O255 2.053 . S
C228 O225 1.259 . S
C228 O229 1.254 . S
O229 Zn227 2.046 . S
O229 C228 1.254 . S
C230 O251 1.256 . S
C230 O252 1.244 . S
O231 Zn227 2.055 . S
O231 C253 1.259 . S
O232 Zn224 2.046 . S
O232 C253 1.254 . S
N233 Zn227 2.036 . S
N233 C234 1.298 . S
N233 N236 1.398 . S
C234 N233 1.298 . S
C234 N237 1.367 . S
C234 C247 1.481 . S
C235 N236 1.299 . S
C235 N237 1.379 . S
N236 N233 1.398 . S
N236 C235 1.299 . S
N237 C234 1.367 . S
N237 C235 1.379 . S
C238 N240 1.298 . S
C238 N242 1.367 . S
C238 C246 1.481 . S
C239 N241 1.299 . S
C239 N242 1.379 . S
N240 Zn224 2.036 . S
N240 C238 1.298 . S
N240 N241 1.398 . S
N241 C239 1.299 . S
N241 N240 1.398 . S
N242 C238 1.367 . S
N242 C239 1.379 . S
H243 C246 0.980 . S
H244 C246 0.981 . S
H245 C246 0.981 . S
C246 C238 1.481 . S
C246 H243 0.980 . S
C246 H244 0.981 . S
C246 H245 0.981 . S
C247 C234 1.481 . S
C247 H248 0.980 . S
C247 H249 0.981 . S
C247 H250 0.981 . S
H248 C247 0.980 . S
H249 C247 0.981 . S
H250 C247 0.981 . S
O251 Zn227 2.066 . S
O251 C230 1.256 . S
O252 Zn224 2.053 . S
O252 C230 1.244 . S
C253 O231 1.259 . S
C253 O232 1.254 . S
O254 Zn224 2.066 . S
O254 C226 1.256 . S
O255 C226 1.244 . S
O255 Zn227 2.053 . S
Zn256 O257 2.055 . S
Zn256 O264 2.046 . S
Zn256 N272 2.036 . S
Zn256 O284 2.053 . S
Zn256 O286 2.066 . S
O257 Zn256 2.055 . S
O257 C260 1.259 . S
C258 O286 1.256 . S
C258 O287 1.244 . S
Zn259 O261 2.046 . S
Zn259 O263 2.055 . S
Zn259 N265 2.036 . S
Zn259 O283 2.066 . S
Zn259 O287 2.053 . S
C260 O257 1.259 . S
C260 O261 1.254 . S
O261 Zn259 2.046 . S
O261 C260 1.254 . S
C262 O283 1.256 . S
C262 O284 1.244 . S
O263 Zn259 2.055 . S
O263 C285 1.259 . S
O264 Zn256 2.046 . S
O264 C285 1.254 . S
N265 Zn259 2.036 . S
N265 C266 1.298 . S
N265 N268 1.398 . S
C266 N265 1.298 . S
C266 N269 1.367 . S
C266 C279 1.481 . S
C267 N268 1.299 . S
C267 N269 1.379 . S
N268 N265 1.398 . S
N268 C267 1.299 . S
N269 C266 1.367 . S
N269 C267 1.379 . S
C270 N272 1.298 . S
C270 N274 1.367 . S
C270 C278 1.481 . S
C271 N273 1.299 . S
C271 N274 1.379 . S
N272 Zn256 2.036 . S
N272 C270 1.298 . S
N272 N273 1.398 . S
N273 C271 1.299 . S
N273 N272 1.398 . S
N274 C270 1.367 . S
N274 C271 1.379 . S
H275 C278 0.980 . S
H276 C278 0.981 . S
H277 C278 0.981 . S
C278 C270 1.481 . S
C278 H275 0.980 . S
C278 H276 0.981 . S
C278 H277 0.981 . S
C279 C266 1.481 . S
C279 H280 0.980 . S
C279 H281 0.981 . S
C279 H282 0.981 . S
H280 C279 0.980 . S
H281 C279 0.981 . S
H282 C279 0.981 . S
O283 Zn259 2.066 . S
O283 C262 1.256 . S
O284 Zn256 2.053 . S
O284 C262 1.244 . S
C285 O263 1.259 . S
C285 O264 1.254 . S
O286 Zn256 2.066 . S
O286 C258 1.256 . S
O287 C258 1.244 . S
O287 Zn259 2.053 . S
Zn288 O289 2.055 . S
Zn288 O296 2.046 . S
Zn288 N304 2.036 . S
Zn288 O316 2.053 . S
Zn288 O318 2.066 . S
O289 Zn288 2.055 . S
O289 C292 1.259 . S
C290 O318 1.256 . S
C290 O319 1.244 . S
Zn291 O293 2.046 . S
Zn291 O295 2.055 . S
Zn291 N297 2.036 . S
Zn291 O315 2.066 . S
Zn291 O319 2.053 . S
C292 O289 1.259 . S
C292 O293 1.254 . S
O293 Zn291 2.046 . S
O293 C292 1.254 . S
C294 O315 1.256 . S
C294 O316 1.244 . S
O295 Zn291 2.055 . S
O295 C317 1.259 . S
O296 Zn288 2.046 . S
O296 C317 1.254 . S
N297 Zn291 2.036 . S
N297 C298 1.298 . S
N297 N300 1.398 . S
C298 N297 1.298 . S
C298 N301 1.367 . S
C298 C311 1.481 . S
C299 N300 1.299 . S
C299 N301 1.379 . S
N300 N297 1.398 . S
N300 C299 1.299 . S
N301 C298 1.367 . S
N301 C299 1.379 . S
C302 N304 1.298 . S
C302 N306 1.367 . S
C302 C310 1.481 . S
C303 N305 1.299 . S
C303 N306 1.379 . S
N304 Zn288 2.036 . S
N304 C302 1.298 . S
N304 N305 1.398 . S
N305 C303 1.299 . S
N305 N304 1.398 . S
N306 C302 1.367 . S
N306 C303 1.379 . S
H307 C310 0.980 . S
H308 C310 0.981 . S
H309 C310 0.981 . S
C310 C302 1.481 . S
C310 H307 0.980 . S
C310 H308 0.981 . S
C310 H309 0.981 . S
C311 C298 1.481 . S
C311 H312 0.980 . S
C311 H313 0.981 . S
C311 H314 0.981 . S
H312 C311 0.980 . S
H313 C311 0.981 . S
H314 C311 0.981 . S
O315 Zn291 2.066 . S
O315 C294 1.256 . S
O316 Zn288 2.053 . S
O316 C294 1.244 . S
C317 O295 1.259 . S
C317 O296 1.254 . S
O318 Zn288 2.066 . S
O318 C290 1.256 . S
O319 C290 1.244 . S
O319 Zn291 2.053 . S
Zn320 O321 2.055 . S
Zn320 O328 2.046 . S
Zn320 N336 2.036 . S
Zn320 O348 2.053 . S
Zn320 O350 2.066 . S
O321 Zn320 2.055 . S
O321 C324 1.259 . S
C322 O350 1.256 . S
C322 O351 1.244 . S
Zn323 O325 2.046 . S
Zn323 O327 2.055 . S
Zn323 N329 2.036 . S
Zn323 O347 2.066 . S
Zn323 O351 2.053 . S
C324 O321 1.259 . S
C324 O325 1.254 . S
O325 Zn323 2.046 . S
O325 C324 1.254 . S
C326 O347 1.256 . S
C326 O348 1.244 . S
O327 Zn323 2.055 . S
O327 C349 1.259 . S
O328 Zn320 2.046 . S
O328 C349 1.254 . S
N329 Zn323 2.036 . S
N329 C330 1.298 . S
N329 N332 1.398 . S
C330 N329 1.298 . S
C330 N333 1.367 . S
C330 C343 1.481 . S
C331 N332 1.299 . S
C331 N333 1.379 . S
N332 N329 1.398 . S
N332 C331 1.299 . S
N333 C330 1.367 . S
N333 C331 1.379 . S
C334 N336 1.298 . S
C334 N338 1.367 . S
C334 C342 1.481 . S
C335 N337 1.299 . S
C335 N338 1.379 . S
N336 Zn320 2.036 . S
N336 C334 1.298 . S
N336 N337 1.398 . S
N337 C335 1.299 . S
N337 N336 1.398 . S
N338 C334 1.367 . S
N338 C335 1.379 . S
H339 C342 0.980 . S
H340 C342 0.981 . S
H341 C342 0.981 . S
C342 C334 1.481 . S
C342 H339 0.980 . S
C342 H340 0.981 . S
C342 H341 0.981 . S
C343 C330 1.481 . S
C343 H344 0.980 . S
C343 H345 0.981 . S
C343 H346 0.981 . S
H344 C343 0.980 . S
H345 C343 0.981 . S
H346 C343 0.981 . S
O347 Zn323 2.066 . S
O347 C326 1.256 . S
O348 Zn320 2.053 . S
O348 C326 1.244 . S
C349 O327 1.259 . S
C349 O328 1.254 . S
O350 Zn320 2.066 . S
O350 C322 1.256 . S
O351 C322 1.244 . S
O351 Zn323 2.053 . S
Zn352 O353 2.055 . S
Zn352 O360 2.046 . S
Zn352 N368 2.036 . S
Zn352 O380 2.053 . S
Zn352 O382 2.066 . S
O353 Zn352 2.055 . S
O353 C356 1.259 . S
C354 O382 1.256 . S
C354 O383 1.244 . S
Zn355 O357 2.046 . S
Zn355 O359 2.055 . S
Zn355 N361 2.036 . S
Zn355 O379 2.066 . S
Zn355 O383 2.053 . S
C356 O353 1.259 . S
C356 O357 1.254 . S
O357 Zn355 2.046 . S
O357 C356 1.254 . S
C358 O379 1.256 . S
C358 O380 1.244 . S
O359 Zn355 2.055 . S
O359 C381 1.259 . S
O360 Zn352 2.046 . S
O360 C381 1.254 . S
N361 Zn355 2.036 . S
N361 C362 1.298 . S
N361 N364 1.398 . S
C362 N361 1.298 . S
C362 N365 1.367 . S
C362 C375 1.481 . S
C363 N364 1.299 . S
C363 N365 1.379 . S
N364 N361 1.398 . S
N364 C363 1.299 . S
N365 C362 1.367 . S
N365 C363 1.379 . S
C366 N368 1.298 . S
C366 N370 1.367 . S
C366 C374 1.481 . S
C367 N369 1.299 . S
C367 N370 1.379 . S
N368 Zn352 2.036 . S
N368 C366 1.298 . S
N368 N369 1.398 . S
N369 C367 1.299 . S
N369 N368 1.398 . S
N370 C366 1.367 . S
N370 C367 1.379 . S
H371 C374 0.980 . S
H372 C374 0.981 . S
H373 C374 0.981 . S
C374 C366 1.481 . S
C374 H371 0.980 . S
C374 H372 0.981 . S
C374 H373 0.981 . S
C375 C362 1.481 . S
C375 H376 0.980 . S
C375 H377 0.981 . S
C375 H378 0.981 . S
H376 C375 0.980 . S
H377 C375 0.981 . S
H378 C375 0.981 . S
O379 Zn355 2.066 . S
O379 C358 1.256 . S
O380 Zn352 2.053 . S
O380 C358 1.244 . S
C381 O359 1.259 . S
C381 O360 1.254 . S
O382 Zn352 2.066 . S
O382 C354 1.256 . S
O383 C354 1.244 . S
O383 Zn355 2.053 . S
Zn384 O385 2.055 . S
Zn384 O392 2.046 . S
Zn384 N400 2.036 . S
Zn384 O412 2.053 . S
Zn384 O414 2.066 . S
O385 Zn384 2.055 . S
O385 C388 1.259 . S
C386 O414 1.256 . S
C386 O415 1.244 . S
Zn387 O389 2.046 . S
Zn387 O391 2.055 . S
Zn387 N393 2.036 . S
Zn387 O411 2.066 . S
Zn387 O415 2.053 . S
C388 O385 1.259 . S
C388 O389 1.254 . S
O389 Zn387 2.046 . S
O389 C388 1.254 . S
C390 O411 1.256 . S
C390 O412 1.244 . S
O391 Zn387 2.055 . S
O391 C413 1.259 . S
O392 Zn384 2.046 . S
O392 C413 1.254 . S
N393 Zn387 2.036 . S
N393 C394 1.298 . S
N393 N396 1.398 . S
C394 N393 1.298 . S
C394 N397 1.367 . S
C394 C407 1.481 . S
C395 N396 1.299 . S
C395 N397 1.379 . S
N396 N393 1.398 . S
N396 C395 1.299 . S
N397 C394 1.367 . S
N397 C395 1.379 . S
C398 N400 1.298 . S
C398 N402 1.367 . S
C398 C406 1.481 . S
C399 N401 1.299 . S
C399 N402 1.379 . S
N400 Zn384 2.036 . S
N400 C398 1.298 . S
N400 N401 1.398 . S
N401 C399 1.299 . S
N401 N400 1.398 . S
N402 C398 1.367 . S
N402 C399 1.379 . S
H403 C406 0.980 . S
H404 C406 0.981 . S
H405 C406 0.981 . S
C406 C398 1.481 . S
C406 H403 0.980 . S
C406 H404 0.981 . S
C406 H405 0.981 . S
C407 C394 1.481 . S
C407 H408 0.980 . S
C407 H409 0.981 . S
C407 H410 0.981 . S
H408 C407 0.980 . S
H409 C407 0.981 . S
H410 C407 0.981 . S
O411 Zn387 2.066 . S
O411 C390 1.256 . S
O412 Zn384 2.053 . S
O412 C390 1.244 . S
C413 O391 1.259 . S
C413 O392 1.254 . S
O414 Zn384 2.066 . S
O414 C386 1.256 . S
O415 C386 1.244 . S
O415 Zn387 2.053 . S
Zn416 O417 2.055 . S
Zn416 O424 2.046 . S
Zn416 N432 2.036 . S
Zn416 O444 2.053 . S
Zn416 O446 2.066 . S
O417 Zn416 2.055 . S
O417 C420 1.259 . S
C418 O446 1.256 . S
C418 O447 1.244 . S
Zn419 O421 2.046 . S
Zn419 O423 2.055 . S
Zn419 N425 2.036 . S
Zn419 O443 2.066 . S
Zn419 O447 2.053 . S
C420 O417 1.259 . S
C420 O421 1.254 . S
O421 Zn419 2.046 . S
O421 C420 1.254 . S
C422 O443 1.256 . S
C422 O444 1.244 . S
O423 Zn419 2.055 . S
O423 C445 1.259 . S
O424 Zn416 2.046 . S
O424 C445 1.254 . S
N425 Zn419 2.036 . S
N425 C426 1.298 . S
N425 N428 1.398 . S
C426 N425 1.298 . S
C426 N429 1.367 . S
C426 C439 1.481 . S
C427 N428 1.299 . S
C427 N429 1.379 . S
N428 N425 1.398 . S
N428 C427 1.299 . S
N429 C426 1.367 . S
N429 C427 1.379 . S
C430 N432 1.298 . S
C430 N434 1.367 . S
C430 C438 1.481 . S
C431 N433 1.299 . S
C431 N434 1.379 . S
N432 Zn416 2.036 . S
N432 C430 1.298 . S
N432 N433 1.398 . S
N433 C431 1.299 . S
N433 N432 1.398 . S
N434 C430 1.367 . S
N434 C431 1.379 . S
H435 C438 0.980 . S
H436 C438 0.981 . S
H437 C438 0.981 . S
C438 C430 1.481 . S
C438 H435 0.980 . S
C438 H436 0.981 . S
C438 H437 0.981 . S
C439 C426 1.481 . S
C439 H440 0.980 . S
C439 H441 0.981 . S
C439 H442 0.981 . S
H440 C439 0.980 . S
H441 C439 0.981 . S
H442 C439 0.981 . S
O443 Zn419 2.066 . S
O443 C422 1.256 . S
O444 Zn416 2.053 . S
O444 C422 1.244 . S
C445 O423 1.259 . S
C445 O424 1.254 . S
O446 Zn416 2.066 . S
O446 C418 1.256 . S
O447 C418 1.244 . S
O447 Zn419 2.053 . S
Zn448 O449 2.055 . S
Zn448 O456 2.046 . S
Zn448 N464 2.036 . S
Zn448 O476 2.053 . S
Zn448 O478 2.066 . S
O449 Zn448 2.055 . S
O449 C452 1.259 . S
C450 O478 1.256 . S
C450 O479 1.244 . S
Zn451 O453 2.046 . S
Zn451 O455 2.055 . S
Zn451 N457 2.036 . S
Zn451 O475 2.066 . S
Zn451 O479 2.053 . S
C452 O449 1.259 . S
C452 O453 1.254 . S
O453 Zn451 2.046 . S
O453 C452 1.254 . S
C454 O475 1.256 . S
C454 O476 1.244 . S
O455 Zn451 2.055 . S
O455 C477 1.259 . S
O456 Zn448 2.046 . S
O456 C477 1.254 . S
N457 Zn451 2.036 . S
N457 C458 1.298 . S
N457 N460 1.398 . S
C458 N457 1.298 . S
C458 N461 1.367 . S
C458 C471 1.481 . S
C459 N460 1.299 . S
C459 N461 1.379 . S
N460 N457 1.398 . S
N460 C459 1.299 . S
N461 C458 1.367 . S
N461 C459 1.379 . S
C462 N464 1.298 . S
C462 N466 1.367 . S
C462 C470 1.481 . S
C463 N465 1.299 . S
C463 N466 1.379 . S
N464 Zn448 2.036 . S
N464 C462 1.298 . S
N464 N465 1.398 . S
N465 C463 1.299 . S
N465 N464 1.398 . S
N466 C462 1.367 . S
N466 C463 1.379 . S
H467 C470 0.980 . S
H468 C470 0.981 . S
H469 C470 0.981 . S
C470 C462 1.481 . S
C470 H467 0.980 . S
C470 H468 0.981 . S
C470 H469 0.981 . S
C471 C458 1.481 . S
C471 H472 0.980 . S
C471 H473 0.981 . S
C471 H474 0.981 . S
H472 C471 0.980 . S
H473 C471 0.981 . S
H474 C471 0.981 . S
O475 Zn451 2.066 . S
O475 C454 1.256 . S
O476 Zn448 2.053 . S
O476 C454 1.244 . S
C477 O455 1.259 . S
C477 O456 1.254 . S
O478 Zn448 2.066 . S
O478 C450 1.256 . S
O479 C450 1.244 . S
O479 Zn451 2.053 . S
Zn480 O481 2.055 . S
Zn480 O488 2.046 . S
Zn480 N496 2.036 . S
Zn480 O508 2.053 . S
Zn480 O510 2.066 . S
O481 Zn480 2.055 . S
O481 C484 1.259 . S
C482 O510 1.256 . S
C482 O511 1.244 . S
Zn483 O485 2.046 . S
Zn483 O487 2.055 . S
Zn483 N489 2.036 . S
Zn483 O507 2.066 . S
Zn483 O511 2.053 . S
C484 O481 1.259 . S
C484 O485 1.254 . S
O485 Zn483 2.046 . S
O485 C484 1.254 . S
C486 O507 1.256 . S
C486 O508 1.244 . S
O487 Zn483 2.055 . S
O487 C509 1.259 . S
O488 Zn480 2.046 . S
O488 C509 1.254 . S
N489 Zn483 2.036 . S
N489 C490 1.298 . S
N489 N492 1.398 . S
C490 N489 1.298 . S
C490 N493 1.367 . S
C490 C503 1.481 . S
C491 N492 1.299 . S
C491 N493 1.379 . S
N492 N489 1.398 . S
N492 C491 1.299 . S
N493 C490 1.367 . S
N493 C491 1.379 . S
C494 N496 1.298 . S
C494 N498 1.367 . S
C494 C502 1.481 . S
C495 N497 1.299 . S
C495 N498 1.379 . S
N496 Zn480 2.036 . S
N496 C494 1.298 . S
N496 N497 1.398 . S
N497 C495 1.299 . S
N497 N496 1.398 . S
N498 C494 1.367 . S
N498 C495 1.379 . S
H499 C502 0.980 . S
H500 C502 0.981 . S
H501 C502 0.981 . S
C502 C494 1.481 . S
C502 H499 0.980 . S
C502 H500 0.981 . S
C502 H501 0.981 . S
C503 C490 1.481 . S
C503 H504 0.980 . S
C503 H505 0.981 . S
C503 H506 0.981 . S
H504 C503 0.980 . S
H505 C503 0.981 . S
H506 C503 0.981 . S
O507 Zn483 2.066 . S
O507 C486 1.256 . S
O508 Zn480 2.053 . S
O508 C486 1.244 . S
C509 O487 1.259 . S
C509 O488 1.254 . S
O510 Zn480 2.066 . S
O510 C482 1.256 . S
O511 C482 1.244 . S
O511 Zn483 2.053 . S
Zn512 O513 2.055 . S
Zn512 O520 2.046 . S
Zn512 N528 2.036 . S
Zn512 O540 2.053 . S
Zn512 O542 2.066 . S
O513 Zn512 2.055 . S
O513 C516 1.259 . S
C514 O542 1.256 . S
C514 O543 1.244 . S
Zn515 O517 2.046 . S
Zn515 O519 2.055 . S
Zn515 N521 2.036 . S
Zn515 O539 2.066 . S
Zn515 O543 2.053 . S
C516 O513 1.259 . S
C516 O517 1.254 . S
O517 Zn515 2.046 . S
O517 C516 1.254 . S
C518 O539 1.256 . S
C518 O540 1.244 . S
O519 Zn515 2.055 . S
O519 C541 1.259 . S
O520 Zn512 2.046 . S
O520 C541 1.254 . S
N521 Zn515 2.036 . S
N521 C522 1.298 . S
N521 N524 1.398 . S
C522 N521 1.298 . S
C522 N525 1.367 . S
C522 C535 1.481 . S
C523 N524 1.299 . S
C523 N525 1.379 . S
N524 N521 1.398 . S
N524 C523 1.299 . S
N525 C522 1.367 . S
N525 C523 1.379 . S
C526 N528 1.298 . S
C526 N530 1.367 . S
C526 C534 1.481 . S
C527 N529 1.299 . S
C527 N530 1.379 . S
N528 Zn512 2.036 . S
N528 C526 1.298 . S
N528 N529 1.398 . S
N529 C527 1.299 . S
N529 N528 1.398 . S
N530 C526 1.367 . S
N530 C527 1.379 . S
H531 C534 0.980 . S
H532 C534 0.981 . S
H533 C534 0.981 . S
C534 C526 1.481 . S
C534 H531 0.980 . S
C534 H532 0.981 . S
C534 H533 0.981 . S
C535 C522 1.481 . S
C535 H536 0.980 . S
C535 H537 0.981 . S
C535 H538 0.981 . S
H536 C535 0.980 . S
H537 C535 0.981 . S
H538 C535 0.981 . S
O539 Zn515 2.066 . S
O539 C518 1.256 . S
O540 Zn512 2.053 . S
O540 C518 1.244 . S
C541 O519 1.259 . S
C541 O520 1.254 . S
O542 Zn512 2.066 . S
O542 C514 1.256 . S
O543 C514 1.244 . S
O543 Zn515 2.053 . S
Zn544 O545 2.055 . S
Zn544 O552 2.046 . S
Zn544 N560 2.036 . S
Zn544 O572 2.053 . S
Zn544 O574 2.066 . S
O545 Zn544 2.055 . S
O545 C548 1.259 . S
C546 O574 1.256 . S
C546 O575 1.244 . S
Zn547 O549 2.046 . S
Zn547 O551 2.055 . S
Zn547 N553 2.036 . S
Zn547 O571 2.066 . S
Zn547 O575 2.053 . S
C548 O545 1.259 . S
C548 O549 1.254 . S
O549 Zn547 2.046 . S
O549 C548 1.254 . S
C550 O571 1.256 . S
C550 O572 1.244 . S
O551 Zn547 2.055 . S
O551 C573 1.259 . S
O552 Zn544 2.046 . S
O552 C573 1.254 . S
N553 Zn547 2.036 . S
N553 C554 1.298 . S
N553 N556 1.398 . S
C554 N553 1.298 . S
C554 N557 1.367 . S
C554 C567 1.481 . S
C555 N556 1.299 . S
C555 N557 1.379 . S
N556 N553 1.398 . S
N556 C555 1.299 . S
N557 C554 1.367 . S
N557 C555 1.379 . S
C558 N560 1.298 . S
C558 N562 1.367 . S
C558 C566 1.481 . S
C559 N561 1.299 . S
C559 N562 1.379 . S
N560 Zn544 2.036 . S
N560 C558 1.298 . S
N560 N561 1.398 . S
N561 C559 1.299 . S
N561 N560 1.398 . S
N562 C558 1.367 . S
N562 C559 1.379 . S
H563 C566 0.980 . S
H564 C566 0.981 . S
H565 C566 0.981 . S
C566 C558 1.481 . S
C566 H563 0.980 . S
C566 H564 0.981 . S
C566 H565 0.981 . S
C567 C554 1.481 . S
C567 H568 0.980 . S
C567 H569 0.981 . S
C567 H570 0.981 . S
H568 C567 0.980 . S
H569 C567 0.981 . S
H570 C567 0.981 . S
O571 Zn547 2.066 . S
O571 C550 1.256 . S
O572 Zn544 2.053 . S
O572 C550 1.244 . S
C573 O551 1.259 . S
C573 O552 1.254 . S
O574 Zn544 2.066 . S
O574 C546 1.256 . S
O575 C546 1.244 . S
O575 Zn547 2.053 . S
C576 C577 1.349 . S
C576 C578 1.327 . S
C576 H601 0.950 . S
C577 C576 1.349 . S
C577 C593 1.349 . S
C578 C576 1.327 . S
C578 C597 1.429 . S
C578 H602 0.950 . S
C579 C596 1.574 . S
C579 C598 1.368 . S
C579 H603 0.949 . S
H580 C584 0.949 . S
C581 C582 1.349 . S
C581 C583 1.327 . S
C581 H604 0.950 . S
C582 C581 1.349 . S
C582 C594 1.349 . S
C583 C581 1.327 . S
C583 C599 1.429 . S
C583 H605 0.950 . S
C584 H580 0.949 . S
C584 C592 1.574 . S
C584 C600 1.368 . S
H585 C593 0.950 . S
H586 C591 0.950 . S
H587 C592 0.949 . S
H588 C594 0.950 . S
H589 C595 0.950 . S
H590 C596 0.949 . S
C591 H586 0.950 . S
C591 C593 1.327 . S
C591 C597 1.429 . S
C592 C584 1.574 . S
C592 H587 0.949 . S
C592 C598 1.368 . S
C593 C577 1.349 . S
C593 H585 0.950 . S
C593 C591 1.327 . S
C594 C582 1.349 . S
C594 H588 0.950 . S
C594 C595 1.327 . S
C595 H589 0.950 . S
C595 C594 1.327 . S
C595 C599 1.429 . S
C596 C579 1.574 . S
C596 H590 0.949 . S
C596 C600 1.368 . S
C597 C578 1.429 . S
C597 C591 1.429 . S
C597 C598 1.523 . S
C598 C579 1.368 . S
C598 C592 1.368 . S
C598 C597 1.523 . S
C599 C583 1.429 . S
C599 C595 1.429 . S
C599 C600 1.523 . S
C600 C584 1.368 . S
C600 C596 1.368 . S
C600 C599 1.523 . S
H601 C576 0.950 . S
H602 C578 0.950 . S
H603 C579 0.949 . S
H604 C581 0.950 . S
H605 C583 0.950 . S
C606 C607 1.349 . S
C606 C608 1.327 . S
C606 H631 0.950 . S
C607 C606 1.349 . S
C607 C623 1.349 . S
C608 C606 1.327 . S
C608 C627 1.429 . S
C608 H632 0.950 . S
C609 C626 1.574 . S
C609 C628 1.368 . S
C609 H633 0.949 . S
H610 C614 0.949 . S
C611 C612 1.349 . S
C611 C613 1.327 . S
C611 H634 0.950 . S
C612 C611 1.349 . S
C612 C624 1.349 . S
C613 C611 1.327 . S
C613 C629 1.429 . S
C613 H635 0.950 . S
C614 H610 0.949 . S
C614 C622 1.574 . S
C614 C630 1.368 . S
H615 C623 0.950 . S
H616 C621 0.950 . S
H617 C622 0.949 . S
H618 C624 0.950 . S
H619 C625 0.950 . S
H620 C626 0.949 . S
C621 H616 0.950 . S
C621 C623 1.327 . S
C621 C627 1.429 . S
C622 C614 1.574 . S
C622 H617 0.949 . S
C622 C628 1.368 . S
C623 C607 1.349 . S
C623 H615 0.950 . S
C623 C621 1.327 . S
C624 C612 1.349 . S
C624 H618 0.950 . S
C624 C625 1.327 . S
C625 H619 0.950 . S
C625 C624 1.327 . S
C625 C629 1.429 . S
C626 C609 1.574 . S
C626 H620 0.949 . S
C626 C630 1.368 . S
C627 C608 1.429 . S
C627 C621 1.429 . S
C627 C628 1.523 . S
C628 C609 1.368 . S
C628 C622 1.368 . S
C628 C627 1.523 . S
C629 C613 1.429 . S
C629 C625 1.429 . S
C629 C630 1.523 . S
C630 C614 1.368 . S
C630 C626 1.368 . S
C630 C629 1.523 . S
H631 C606 0.950 . S
H632 C608 0.950 . S
H633 C609 0.949 . S
H634 C611 0.950 . S
H635 C613 0.950 . S
C636 C637 1.349 . S
C636 C638 1.327 . S
C636 H661 0.950 . S
C637 C636 1.349 . S
C637 C653 1.349 . S
C638 C636 1.327 . S
C638 C657 1.429 . S
C638 H662 0.950 . S
C639 C656 1.574 . S
C639 C658 1.368 . S
C639 H663 0.949 . S
H640 C644 0.949 . S
C641 C642 1.349 . S
C641 C643 1.327 . S
C641 H664 0.950 . S
C642 C641 1.349 . S
C642 C654 1.349 . S
C643 C641 1.327 . S
C643 C659 1.429 . S
C643 H665 0.950 . S
C644 H640 0.949 . S
C644 C652 1.574 . S
C644 C660 1.368 . S
H645 C653 0.950 . S
H646 C651 0.950 . S
H647 C652 0.949 . S
H648 C654 0.950 . S
H649 C655 0.950 . S
H650 C656 0.949 . S
C651 H646 0.950 . S
C651 C653 1.327 . S
C651 C657 1.429 . S
C652 C644 1.574 . S
C652 H647 0.949 . S
C652 C658 1.368 . S
C653 C637 1.349 . S
C653 H645 0.950 . S
C653 C651 1.327 . S
C654 C642 1.349 . S
C654 H648 0.950 . S
C654 C655 1.327 . S
C655 H649 0.950 . S
C655 C654 1.327 . S
C655 C659 1.429 . S
C656 C639 1.574 . S
C656 H650 0.949 . S
C656 C660 1.368 . S
C657 C638 1.429 . S
C657 C651 1.429 . S
C657 C658 1.523 . S
C658 C639 1.368 . S
C658 C652 1.368 . S
C658 C657 1.523 . S
C659 C643 1.429 . S
C659 C655 1.429 . S
C659 C660 1.523 . S
C660 C644 1.368 . S
C660 C656 1.368 . S
C660 C659 1.523 . S
H661 C636 0.950 . S
H662 C638 0.950 . S
H663 C639 0.949 . S
H664 C641 0.950 . S
H665 C643 0.950 . S
C666 C667 1.349 . S
C666 C668 1.327 . S
C666 H691 0.950 . S
C667 C666 1.349 . S
C667 C683 1.349 . S
C668 C666 1.327 . S
C668 C687 1.429 . S
C668 H692 0.950 . S
C669 C686 1.574 . S
C669 C688 1.368 . S
C669 H693 0.949 . S
H670 C674 0.949 . S
C671 C672 1.349 . S
C671 C673 1.327 . S
C671 H694 0.950 . S
C672 C671 1.349 . S
C672 C684 1.349 . S
C673 C671 1.327 . S
C673 C689 1.429 . S
C673 H695 0.950 . S
C674 H670 0.949 . S
C674 C682 1.574 . S
C674 C690 1.368 . S
H675 C683 0.950 . S
H676 C681 0.950 . S
H677 C682 0.949 . S
H678 C684 0.950 . S
H679 C685 0.950 . S
H680 C686 0.949 . S
C681 H676 0.950 . S
C681 C683 1.327 . S
C681 C687 1.429 . S
C682 C674 1.574 . S
C682 H677 0.949 . S
C682 C688 1.368 . S
C683 C667 1.349 . S
C683 H675 0.950 . S
C683 C681 1.327 . S
C684 C672 1.349 . S
C684 H678 0.950 . S
C684 C685 1.327 . S
C685 H679 0.950 . S
C685 C684 1.327 . S
C685 C689 1.429 . S
C686 C669 1.574 . S
C686 H680 0.949 . S
C686 C690 1.368 . S
C687 C668 1.429 . S
C687 C681 1.429 . S
C687 C688 1.523 . S
C688 C669 1.368 . S
C688 C682 1.368 . S
C688 C687 1.523 . S
C689 C673 1.429 . S
C689 C685 1.429 . S
C689 C690 1.523 . S
C690 C674 1.368 . S
C690 C686 1.368 . S
C690 C689 1.523 . S
H691 C666 0.950 . S
H692 C668 0.950 . S
H693 C669 0.949 . S
H694 C671 0.950 . S
H695 C673 0.950 . S
C696 C697 1.349 . S
C696 C698 1.327 . S
C696 H721 0.950 . S
C697 C696 1.349 . S
C697 C713 1.349 . S
C698 C696 1.327 . S
C698 C717 1.429 . S
C698 H722 0.950 . S
C699 C716 1.574 . S
C699 C718 1.368 . S
C699 H723 0.949 . S
H700 C704 0.949 . S
C701 C702 1.349 . S
C701 C703 1.327 . S
C701 H724 0.950 . S
C702 C701 1.349 . S
C702 C714 1.349 . S
C703 C701 1.327 . S
C703 C719 1.429 . S
C703 H725 0.950 . S
C704 H700 0.949 . S
C704 C712 1.574 . S
C704 C720 1.368 . S
H705 C713 0.950 . S
H706 C711 0.950 . S
H707 C712 0.949 . S
H708 C714 0.950 . S
H709 C715 0.950 . S
H710 C716 0.949 . S
C711 H706 0.950 . S
C711 C713 1.327 . S
C711 C717 1.429 . S
C712 C704 1.574 . S
C712 H707 0.949 . S
C712 C718 1.368 . S
C713 C697 1.349 . S
C713 H705 0.950 . S
C713 C711 1.327 . S
C714 C702 1.349 . S
C714 H708 0.950 . S
C714 C715 1.327 . S
C715 H709 0.950 . S
C715 C714 1.327 . S
C715 C719 1.429 . S
C716 C699 1.574 . S
C716 H710 0.949 . S
C716 C720 1.368 . S
C717 C698 1.429 . S
C717 C711 1.429 . S
C717 C718 1.523 . S
C718 C699 1.368 . S
C718 C712 1.368 . S
C718 C717 1.523 . S
C719 C703 1.429 . S
C719 C715 1.429 . S
C719 C720 1.523 . S
C720 C704 1.368 . S
C720 C716 1.368 . S
C720 C719 1.523 . S
H721 C696 0.950 . S
H722 C698 0.950 . S
H723 C699 0.949 . S
H724 C701 0.950 . S
H725 C703 0.950 . S
C726 C727 1.349 . S
C726 C728 1.327 . S
C726 H751 0.950 . S
C727 C726 1.349 . S
C727 C743 1.349 . S
C728 C726 1.327 . S
C728 C747 1.429 . S
C728 H752 0.950 . S
C729 C746 1.574 . S
C729 C748 1.368 . S
C729 H753 0.949 . S
H730 C734 0.949 . S
C731 C732 1.349 . S
C731 C733 1.327 . S
C731 H754 0.950 . S
C732 C731 1.349 . S
C732 C744 1.349 . S
C733 C731 1.327 . S
C733 C749 1.429 . S
C733 H755 0.950 . S
C734 H730 0.949 . S
C734 C742 1.574 . S
C734 C750 1.368 . S
H735 C743 0.950 . S
H736 C741 0.950 . S
H737 C742 0.949 . S
H738 C744 0.950 . S
H739 C745 0.950 . S
H740 C746 0.949 . S
C741 H736 0.950 . S
C741 C743 1.327 . S
C741 C747 1.429 . S
C742 C734 1.574 . S
C742 H737 0.949 . S
C742 C748 1.368 . S
C743 C727 1.349 . S
C743 H735 0.950 . S
C743 C741 1.327 . S
C744 C732 1.349 . S
C744 H738 0.950 . S
C744 C745 1.327 . S
C745 H739 0.950 . S
C745 C744 1.327 . S
C745 C749 1.429 . S
C746 C729 1.574 . S
C746 H740 0.949 . S
C746 C750 1.368 . S
C747 C728 1.429 . S
C747 C741 1.429 . S
C747 C748 1.523 . S
C748 C729 1.368 . S
C748 C742 1.368 . S
C748 C747 1.523 . S
C749 C733 1.429 . S
C749 C745 1.429 . S
C749 C750 1.523 . S
C750 C734 1.368 . S
C750 C746 1.368 . S
C750 C749 1.523 . S
H751 C726 0.950 . S
H752 C728 0.950 . S
H753 C729 0.949 . S
H754 C731 0.950 . S
H755 C733 0.950 . S
C756 C757 1.349 1_545 S
C756 C758 1.327 . S
C756 H781 0.950 . S
C757 C756 1.349 1_565 S
C757 C773 1.349 . S
C758 C756 1.327 . S
C758 C777 1.429 . S
C758 H782 0.950 . S
C759 C776 1.574 . S
C759 C778 1.368 . S
C759 H783 0.949 . S
H760 C764 0.949 . S
C761 C762 1.349 . S
C761 C763 1.327 . S
C761 H784 0.950 . S
C762 C761 1.349 . S
C762 C774 1.349 . S
C763 C761 1.327 . S
C763 C779 1.429 . S
C763 H785 0.950 . S
C764 H760 0.949 . S
C764 C772 1.574 . S
C764 C780 1.368 . S
H765 C773 0.950 . S
H766 C771 0.950 . S
H767 C772 0.949 . S
H768 C774 0.950 . S
H769 C775 0.950 . S
H770 C776 0.949 . S
C771 H766 0.950 . S
C771 C773 1.327 1_545 S
C771 C777 1.429 . S
C772 C764 1.574 . S
C772 H767 0.949 . S
C772 C778 1.368 . S
C773 C757 1.349 . S
C773 H765 0.950 . S
C773 C771 1.327 1_565 S
C774 C762 1.349 . S
C774 H768 0.950 . S
C774 C775 1.327 . S
C775 H769 0.950 . S
C775 C774 1.327 . S
C775 C779 1.429 . S
C776 C759 1.574 . S
C776 H770 0.949 . S
C776 C780 1.368 . S
C777 C758 1.429 . S
C777 C771 1.429 . S
C777 C778 1.523 . S
C778 C759 1.368 . S
C778 C772 1.368 . S
C778 C777 1.523 . S
C779 C763 1.429 . S
C779 C775 1.429 . S
C779 C780 1.523 . S
C780 C764 1.368 . S
C780 C776 1.368 . S
C780 C779 1.523 . S
H781 C756 0.950 . S
H782 C758 0.950 . S
H783 C759 0.949 . S
H784 C761 0.950 . S
H785 C763 0.950 . S
C786 C787 1.349 . S
C786 C788 1.327 1_455 S
C786 H811 0.950 . S
C787 C786 1.349 . S
C787 C803 1.349 . S
C788 C786 1.327 1_655 S
C788 C807 1.428 . S
C788 H812 0.950 . S
C789 C806 1.574 . S
C789 C808 1.368 . S
C789 H813 0.949 . S
H790 C794 0.949 . S
C791 C792 1.349 . S
C791 C793 1.327 . S
C791 H814 0.950 . S
C792 C791 1.349 . S
C792 C804 1.349 . S
C793 C791 1.327 . S
C793 C809 1.429 1_565 S
C793 H815 0.950 . S
C794 H790 0.949 . S
C794 C802 1.574 . S
C794 C810 1.368 . S
H795 C803 0.950 . S
H796 C801 0.950 . S
H797 C802 0.949 . S
H798 C804 0.950 . S
H799 C805 0.950 . S
H800 C806 0.949 . S
C801 H796 0.950 . S
C801 C803 1.327 . S
C801 C807 1.429 1_455 S
C802 C794 1.574 . S
C802 H797 0.949 . S
C802 C808 1.368 . S
C803 C787 1.349 . S
C803 H795 0.950 . S
C803 C801 1.327 . S
C804 C792 1.349 . S
C804 H798 0.950 . S
C804 C805 1.327 1_565 S
C805 H799 0.950 . S
C805 C804 1.327 1_545 S
C805 C809 1.429 . S
C806 C789 1.574 . S
C806 H800 0.949 . S
C806 C810 1.368 . S
C807 C788 1.428 . S
C807 C801 1.429 1_655 S
C807 C808 1.523 . S
C808 C789 1.368 . S
C808 C802 1.368 . S
C808 C807 1.523 . S
C809 C793 1.429 1_545 S
C809 C805 1.429 . S
C809 C810 1.523 . S
C810 C794 1.368 . S
C810 C806 1.368 . S
C810 C809 1.523 . S
H811 C786 0.950 . S
H812 C788 0.950 . S
H813 C789 0.949 . S
H814 C791 0.950 . S
H815 C793 0.950 . S
C816 C817 1.349 . S
C816 C818 1.327 . S
C816 H841 0.950 . S
C817 C816 1.349 . S
C817 C833 1.349 . S
C818 C816 1.327 . S
C818 C837 1.429 . S
C818 H842 0.950 . S
C819 C836 1.574 . S
C819 C838 1.368 . S
C819 H843 0.949 . S
H820 C824 0.949 . S
C821 C822 1.349 . S
C821 C823 1.327 . S
C821 H844 0.950 . S
C822 C821 1.349 . S
C822 C834 1.349 . S
C823 C821 1.327 . S
C823 C839 1.429 . S
C823 H845 0.950 . S
C824 H820 0.949 . S
C824 C832 1.574 . S
C824 C840 1.368 . S
H825 C833 0.950 . S
H826 C831 0.950 . S
H827 C832 0.949 . S
H828 C834 0.950 . S
H829 C835 0.950 . S
H830 C836 0.949 . S
C831 H826 0.950 . S
C831 C833 1.327 . S
C831 C837 1.429 . S
C832 C824 1.574 . S
C832 H827 0.949 . S
C832 C838 1.368 . S
C833 C817 1.349 . S
C833 H825 0.950 . S
C833 C831 1.327 . S
C834 C822 1.349 . S
C834 H828 0.950 . S
C834 C835 1.327 . S
C835 H829 0.950 . S
C835 C834 1.327 . S
C835 C839 1.429 . S
C836 C819 1.574 . S
C836 H830 0.949 . S
C836 C840 1.368 . S
C837 C818 1.429 . S
C837 C831 1.429 . S
C837 C838 1.523 1_455 S
C838 C819 1.368 . S
C838 C832 1.368 . S
C838 C837 1.523 1_655 S
C839 C823 1.429 . S
C839 C835 1.429 . S
C839 C840 1.523 . S
C840 C824 1.368 . S
C840 C836 1.368 . S
C840 C839 1.523 . S
H841 C816 0.950 . S
H842 C818 0.950 . S
H843 C819 0.949 . S
H844 C821 0.950 . S
H845 C823 0.950 . S
C846 C847 1.349 . S
C846 C848 1.327 . S
C846 H871 0.950 . S
C847 C846 1.349 . S
C847 C863 1.349 . S
C848 C846 1.327 . S
C848 C867 1.429 . S
C848 H872 0.950 . S
C849 C866 1.574 . S
C849 C868 1.368 . S
C849 H873 0.949 . S
H850 C854 0.949 . S
C851 C852 1.349 . S
C851 C853 1.327 . S
C851 H874 0.950 . S
C852 C851 1.349 . S
C852 C864 1.349 . S
C853 C851 1.327 . S
C853 C869 1.429 . S
C853 H875 0.950 . S
C854 H850 0.949 . S
C854 C862 1.574 . S
C854 C870 1.368 . S
H855 C863 0.950 . S
H856 C861 0.950 . S
H857 C862 0.949 . S
H858 C864 0.950 . S
H859 C865 0.950 . S
H860 C866 0.949 . S
C861 H856 0.950 . S
C861 C863 1.327 . S
C861 C867 1.429 . S
C862 C854 1.574 . S
C862 H857 0.949 . S
C862 C868 1.368 . S
C863 C847 1.349 . S
C863 H855 0.950 . S
C863 C861 1.327 . S
C864 C852 1.349 . S
C864 H858 0.950 . S
C864 C865 1.327 . S
C865 H859 0.950 . S
C865 C864 1.327 . S
C865 C869 1.429 . S
C866 C849 1.574 . S
C866 H860 0.949 . S
C866 C870 1.368 . S
C867 C848 1.429 . S
C867 C861 1.429 . S
C867 C868 1.523 . S
C868 C849 1.368 . S
C868 C862 1.368 . S
C868 C867 1.523 . S
C869 C853 1.429 . S
C869 C865 1.429 . S
C869 C870 1.523 . S
C870 C854 1.368 . S
C870 C866 1.368 . S
C870 C869 1.523 . S
H871 C846 0.950 . S
H872 C848 0.950 . S
H873 C849 0.949 . S
H874 C851 0.950 . S
H875 C853 0.950 . S
C876 C877 1.349 . S
C876 C878 1.327 . S
C876 H901 0.950 . S
C877 C876 1.349 . S
C877 C893 1.349 . S
C878 C876 1.327 . S
C878 C897 1.429 . S
C878 H902 0.950 . S
C879 C896 1.574 . S
C879 C898 1.368 . S
C879 H903 0.949 . S
H880 C884 0.949 . S
C881 C882 1.349 . S
C881 C883 1.327 . S
C881 H904 0.950 . S
C882 C881 1.349 . S
C882 C894 1.349 . S
C883 C881 1.327 . S
C883 C899 1.429 . S
C883 H905 0.950 . S
C884 H880 0.949 . S
C884 C892 1.574 . S
C884 C900 1.368 . S
H885 C893 0.950 . S
H886 C891 0.950 . S
H887 C892 0.949 . S
H888 C894 0.950 . S
H889 C895 0.950 . S
H890 C896 0.949 . S
C891 H886 0.950 . S
C891 C893 1.327 . S
C891 C897 1.429 . S
C892 C884 1.574 . S
C892 H887 0.949 . S
C892 C898 1.368 . S
C893 C877 1.349 . S
C893 H885 0.950 . S
C893 C891 1.327 . S
C894 C882 1.349 . S
C894 H888 0.950 . S
C894 C895 1.327 . S
C895 H889 0.950 . S
C895 C894 1.327 . S
C895 C899 1.429 . S
C896 C879 1.574 . S
C896 H890 0.949 . S
C896 C900 1.368 . S
C897 C878 1.429 . S
C897 C891 1.429 . S
C897 C898 1.523 . S
C898 C879 1.368 . S
C898 C892 1.368 . S
C898 C897 1.523 . S
C899 C883 1.429 . S
C899 C895 1.429 . S
C899 C900 1.523 . S
C900 C884 1.368 . S
C900 C896 1.368 . S
C900 C899 1.523 . S
H901 C876 0.950 . S
H902 C878 0.950 . S
H903 C879 0.949 . S
H904 C881 0.950 . S
H905 C883 0.950 . S
C906 C907 1.349 . S
C906 C908 1.327 . S
C906 H931 0.950 . S
C907 C906 1.349 . S
C907 C923 1.349 . S
C908 C906 1.327 . S
C908 C927 1.429 . S
C908 H932 0.950 . S
C909 C926 1.574 . S
C909 C928 1.368 . S
C909 H933 0.949 . S
H910 C914 0.949 . S
C911 C912 1.349 . S
C911 C913 1.327 . S
C911 H934 0.950 . S
C912 C911 1.349 . S
C912 C924 1.349 . S
C913 C911 1.327 . S
C913 C929 1.429 . S
C913 H935 0.950 . S
C914 H910 0.949 . S
C914 C922 1.574 . S
C914 C930 1.368 . S
H915 C923 0.950 . S
H916 C921 0.950 . S
H917 C922 0.949 . S
H918 C924 0.950 . S
H919 C925 0.950 . S
H920 C926 0.949 . S
C921 H916 0.950 . S
C921 C923 1.327 . S
C921 C927 1.429 . S
C922 C914 1.574 . S
C922 H917 0.949 . S
C922 C928 1.368 . S
C923 C907 1.349 . S
C923 H915 0.950 . S
C923 C921 1.327 . S
C924 C912 1.349 . S
C924 H918 0.950 . S
C924 C925 1.327 . S
C925 H919 0.950 . S
C925 C924 1.327 . S
C925 C929 1.429 . S
C926 C909 1.574 . S
C926 H920 0.949 . S
C926 C930 1.368 . S
C927 C908 1.429 . S
C927 C921 1.429 . S
C927 C928 1.523 . S
C928 C909 1.368 . S
C928 C922 1.368 . S
C928 C927 1.523 . S
C929 C913 1.429 . S
C929 C925 1.429 . S
C929 C930 1.523 . S
C930 C914 1.368 . S
C930 C926 1.368 . S
C930 C929 1.523 . S
H931 C906 0.950 . S
H932 C908 0.950 . S
H933 C909 0.949 . S
H934 C911 0.950 . S
H935 C913 0.950 . S
C936 C937 1.349 . S
C936 C938 1.327 . S
C936 H961 0.950 . S
C937 C936 1.349 . S
C937 C953 1.349 . S
C938 C936 1.327 . S
C938 C957 1.429 . S
C938 H962 0.950 . S
C939 C956 1.574 . S
C939 C958 1.368 . S
C939 H963 0.949 . S
H940 C944 0.949 . S
C941 C942 1.349 . S
C941 C943 1.327 . S
C941 H964 0.950 . S
C942 C941 1.349 . S
C942 C954 1.349 . S
C943 C941 1.327 . S
C943 C959 1.429 . S
C943 H965 0.950 . S
C944 H940 0.949 . S
C944 C952 1.574 . S
C944 C960 1.368 . S
H945 C953 0.950 . S
H946 C951 0.950 . S
H947 C952 0.949 . S
H948 C954 0.950 . S
H949 C955 0.950 . S
H950 C956 0.949 . S
C951 H946 0.950 . S
C951 C953 1.327 . S
C951 C957 1.429 . S
C952 C944 1.574 . S
C952 H947 0.949 . S
C952 C958 1.368 . S
C953 C937 1.349 . S
C953 H945 0.950 . S
C953 C951 1.327 . S
C954 C942 1.349 . S
C954 H948 0.950 . S
C954 C955 1.327 . S
C955 H949 0.950 . S
C955 C954 1.327 . S
C955 C959 1.429 . S
C956 C939 1.574 . S
C956 H950 0.949 . S
C956 C960 1.368 . S
C957 C938 1.429 . S
C957 C951 1.429 . S
C957 C958 1.523 . S
C958 C939 1.368 . S
C958 C952 1.368 . S
C958 C957 1.523 . S
C959 C943 1.429 . S
C959 C955 1.429 . S
C959 C960 1.523 . S
C960 C944 1.368 . S
C960 C956 1.368 . S
C960 C959 1.523 . S
H961 C936 0.950 . S
H962 C938 0.950 . S
H963 C939 0.949 . S
H964 C941 0.950 . S
H965 C943 0.950 . S
C966 C967 1.349 . S
C966 C968 1.327 . S
C966 H991 0.950 . S
C967 C966 1.349 . S
C967 C983 1.349 . S
C968 C966 1.327 . S
C968 C987 1.429 . S
C968 H992 0.950 . S
C969 C986 1.574 . S
C969 C988 1.368 . S
C969 H993 0.949 . S
H970 C974 0.949 . S
C971 C972 1.349 . S
C971 C973 1.327 . S
C971 H994 0.950 . S
C972 C971 1.349 . S
C972 C984 1.349 . S
C973 C971 1.327 . S
C973 C989 1.429 . S
C973 H995 0.950 . S
C974 H970 0.949 . S
C974 C982 1.574 . S
C974 C990 1.368 . S
H975 C983 0.950 . S
H976 C981 0.950 . S
H977 C982 0.949 . S
H978 C984 0.950 . S
H979 C985 0.950 . S
H980 C986 0.949 . S
C981 H976 0.950 . S
C981 C983 1.327 . S
C981 C987 1.429 . S
C982 C974 1.574 . S
C982 H977 0.949 . S
C982 C988 1.368 . S
C983 C967 1.349 . S
C983 H975 0.950 . S
C983 C981 1.327 . S
C984 C972 1.349 . S
C984 H978 0.950 . S
C984 C985 1.327 . S
C985 H979 0.950 . S
C985 C984 1.327 . S
C985 C989 1.429 . S
C986 C969 1.574 . S
C986 H980 0.949 . S
C986 C990 1.368 . S
C987 C968 1.429 . S
C987 C981 1.429 . S
C987 C988 1.523 . S
C988 C969 1.368 . S
C988 C982 1.368 . S
C988 C987 1.523 . S
C989 C973 1.429 . S
C989 C985 1.429 . S
C989 C990 1.523 . S
C990 C974 1.368 . S
C990 C986 1.368 . S
C990 C989 1.523 . S
H991 C966 0.950 . S
H992 C968 0.950 . S
H993 C969 0.949 . S
H994 C971 0.950 . S
H995 C973 0.950 . S
C996 C997 1.349 . S
C996 C998 1.327 . S
C996 H1021 0.950 . S
C997 C996 1.349 . S
C997 C1013 1.349 . S
C998 C996 1.327 . S
C998 C1017 1.429 . S
C998 H1022 0.950 . S
C999 C1016 1.574 . S
C999 C1018 1.368 . S
C999 H1023 0.949 . S
H1000 C1004 0.949 . S
C1001 C1002 1.349 . S
C1001 C1003 1.327 . S
C1001 H1024 0.950 . S
C1002 C1001 1.349 . S
C1002 C1014 1.349 . S
C1003 C1001 1.327 . S
C1003 C1019 1.429 . S
C1003 H1025 0.950 . S
C1004 H1000 0.949 . S
C1004 C1012 1.574 . S
C1004 C1020 1.368 . S
H1005 C1013 0.950 . S
H1006 C1011 0.950 . S
H1007 C1012 0.949 . S
H1008 C1014 0.950 . S
H1009 C1015 0.950 . S
H1010 C1016 0.949 . S
C1011 H1006 0.950 . S
C1011 C1013 1.327 . S
C1011 C1017 1.429 . S
C1012 C1004 1.574 . S
C1012 H1007 0.949 . S
C1012 C1018 1.368 . S
C1013 C997 1.349 . S
C1013 H1005 0.950 . S
C1013 C1011 1.327 . S
C1014 C1002 1.349 . S
C1014 H1008 0.950 . S
C1014 C1015 1.327 . S
C1015 H1009 0.950 . S
C1015 C1014 1.327 . S
C1015 C1019 1.429 . S
C1016 C999 1.574 . S
C1016 H1010 0.949 . S
C1016 C1020 1.368 . S
C1017 C998 1.429 . S
C1017 C1011 1.429 . S
C1017 C1018 1.523 . S
C1018 C999 1.368 . S
C1018 C1012 1.368 . S
C1018 C1017 1.523 . S
C1019 C1003 1.429 . S
C1019 C1015 1.429 . S
C1019 C1020 1.523 . S
C1020 C1004 1.368 . S
C1020 C1016 1.368 . S
C1020 C1019 1.523 . S
H1021 C996 0.950 . S
H1022 C998 0.950 . S
H1023 C999 0.949 . S
H1024 C1001 0.950 . S
H1025 C1003 0.950 . S
C1026 C1027 1.349 1_455 S
C1026 C1028 1.327 . S
C1026 H1051 0.950 . S
C1027 C1026 1.349 1_655 S
C1027 C1043 1.349 . S
C1028 C1026 1.327 . S
C1028 C1047 1.429 . S
C1028 H1052 0.950 . S
C1029 C1046 1.574 . S
C1029 C1048 1.368 . S
C1029 H1053 0.949 . S
H1030 C1034 0.949 . S
C1031 C1032 1.349 . S
C1031 C1033 1.327 . S
C1031 H1054 0.950 . S
C1032 C1031 1.349 . S
C1032 C1044 1.349 . S
C1033 C1031 1.327 . S
C1033 C1049 1.429 . S
C1033 H1055 0.950 . S
C1034 H1030 0.949 . S
C1034 C1042 1.574 . S
C1034 C1050 1.368 . S
H1035 C1043 0.950 . S
H1036 C1041 0.950 . S
H1037 C1042 0.949 . S
H1038 C1044 0.950 . S
H1039 C1045 0.950 . S
H1040 C1046 0.949 . S
C1041 H1036 0.950 . S
C1041 C1043 1.327 1_455 S
C1041 C1047 1.429 . S
C1042 C1034 1.574 . S
C1042 H1037 0.949 . S
C1042 C1048 1.368 . S
C1043 C1027 1.349 . S
C1043 H1035 0.950 . S
C1043 C1041 1.327 1_655 S
C1044 C1032 1.349 . S
C1044 H1038 0.950 . S
C1044 C1045 1.327 . S
C1045 H1039 0.950 . S
C1045 C1044 1.327 . S
C1045 C1049 1.429 . S
C1046 C1029 1.574 . S
C1046 H1040 0.949 . S
C1046 C1050 1.368 . S
C1047 C1028 1.429 . S
C1047 C1041 1.429 . S
C1047 C1048 1.523 . S
C1048 C1029 1.368 . S
C1048 C1042 1.368 . S
C1048 C1047 1.523 . S
C1049 C1033 1.429 . S
C1049 C1045 1.429 . S
C1049 C1050 1.523 . S
C1050 C1034 1.368 . S
C1050 C1046 1.368 . S
C1050 C1049 1.523 . S
H1051 C1026 0.950 . S
H1052 C1028 0.950 . S
H1053 C1029 0.949 . S
H1054 C1031 0.950 . S
H1055 C1033 0.950 . S
C1056 C1057 1.349 . S
C1056 C1058 1.327 . S
C1056 H1081 0.950 . S
C1057 C1056 1.349 . S
C1057 C1073 1.349 . S
C1058 C1056 1.327 . S
C1058 C1077 1.429 . S
C1058 H1082 0.950 . S
C1059 C1076 1.574 . S
C1059 C1078 1.368 . S
C1059 H1083 0.949 . S
H1060 C1064 0.949 . S
C1061 C1062 1.349 . S
C1061 C1063 1.327 . S
C1061 H1084 0.950 . S
C1062 C1061 1.349 . S
C1062 C1074 1.349 . S
C1063 C1061 1.327 . S
C1063 C1079 1.429 . S
C1063 H1085 0.950 . S
C1064 H1060 0.949 . S
C1064 C1072 1.574 . S
C1064 C1080 1.368 . S
H1065 C1073 0.950 . S
H1066 C1071 0.950 . S
H1067 C1072 0.949 . S
H1068 C1074 0.950 . S
H1069 C1075 0.950 . S
H1070 C1076 0.949 . S
C1071 H1066 0.950 . S
C1071 C1073 1.327 . S
C1071 C1077 1.429 . S
C1072 C1064 1.574 . S
C1072 H1067 0.949 . S
C1072 C1078 1.368 . S
C1073 C1057 1.349 . S
C1073 H1065 0.950 . S
C1073 C1071 1.327 . S
C1074 C1062 1.349 . S
C1074 H1068 0.950 . S
C1074 C1075 1.327 . S
C1075 H1069 0.950 . S
C1075 C1074 1.327 . S
C1075 C1079 1.429 . S
C1076 C1059 1.574 . S
C1076 H1070 0.949 . S
C1076 C1080 1.368 . S
C1077 C1058 1.429 . S
C1077 C1071 1.429 . S
C1077 C1078 1.523 . S
C1078 C1059 1.368 . S
C1078 C1072 1.368 . S
C1078 C1077 1.523 . S
C1079 C1063 1.429 . S
C1079 C1075 1.429 . S
C1079 C1080 1.523 1_545 S
C1080 C1064 1.368 . S
C1080 C1076 1.368 . S
C1080 C1079 1.523 1_565 S
H1081 C1056 0.950 . S
H1082 C1058 0.950 . S
H1083 C1059 0.949 . S
H1084 C1061 0.950 . S
H1085 C1063 0.950 . S
C1086 C1087 1.349 . S
C1086 C1088 1.324 1_545 S
C1086 H1111 0.950 . S
C1087 C1086 1.349 . S
C1087 C1103 1.349 . S
C1088 C1086 1.324 1_565 S
C1088 C1107 1.427 . S
C1088 H1112 0.954 . S
C1089 C1106 1.574 . S
C1089 C1108 1.368 . S
C1089 H1113 0.949 . S
H1090 C1094 0.949 . S
C1091 C1092 1.349 . S
C1091 C1093 1.327 . S
C1091 H1114 0.950 . S
C1092 C1091 1.349 . S
C1092 C1104 1.349 . S
C1093 C1091 1.327 . S
C1093 C1109 1.429 1_655 S
C1093 H1115 0.950 . S
C1094 H1090 0.949 . S
C1094 C1102 1.574 . S
C1094 C1110 1.368 . S
H1095 C1103 0.950 . S
H1096 C1101 0.950 . S
H1097 C1102 0.949 . S
H1098 C1104 0.950 . S
H1099 C1105 0.950 . S
H1100 C1106 0.949 . S
C1101 H1096 0.950 . S
C1101 C1103 1.327 . S
C1101 C1107 1.429 1_545 S
C1102 C1094 1.574 . S
C1102 H1097 0.949 . S
C1102 C1108 1.368 . S
C1103 C1087 1.349 . S
C1103 H1095 0.950 . S
C1103 C1101 1.327 . S
C1104 C1092 1.349 . S
C1104 H1098 0.950 . S
C1104 C1105 1.327 1_655 S
C1105 H1099 0.950 . S
C1105 C1104 1.327 1_455 S
C1105 C1109 1.429 . S
C1106 C1089 1.574 . S
C1106 H1100 0.949 . S
C1106 C1110 1.368 . S
C1107 C1088 1.427 . S
C1107 C1101 1.429 1_565 S
C1107 C1108 1.523 . S
C1108 C1089 1.368 . S
C1108 C1102 1.368 . S
C1108 C1107 1.523 . S
C1109 C1093 1.429 1_455 S
C1109 C1105 1.429 . S
C1109 C1110 1.523 . S
C1110 C1094 1.368 . S
C1110 C1106 1.368 . S
C1110 C1109 1.523 . S
H1111 C1086 0.950 . S
H1112 C1088 0.954 . S
H1113 C1089 0.949 . S
H1114 C1091 0.950 . S
H1115 C1093 0.950 . S
C1116 C1117 1.349 . S
C1116 C1118 1.327 . S
C1116 H1141 0.950 . S
C1117 C1116 1.349 . S
C1117 C1133 1.349 . S
C1118 C1116 1.327 . S
C1118 C1137 1.429 . S
C1118 H1142 0.950 . S
C1119 C1136 1.574 1_554 S
C1119 C1138 1.368 1_565 S
C1119 H1143 0.949 . S
H1120 C1124 0.949 . S
C1121 C1122 1.349 1_565 S
C1121 C1123 1.327 . S
C1121 H1144 0.950 . S
C1122 C1121 1.349 1_545 S
C1122 C1134 1.349 . S
C1123 C1121 1.327 . S
C1123 C1139 1.429 1_565 S
C1123 H1145 0.950 . S
C1124 H1120 0.949 . S
C1124 C1132 1.574 1_556 S
C1124 C1140 1.368 . S
H1125 C1133 0.950 1_565 S
H1126 C1131 0.950 . S
H1127 C1132 0.949 . S
H1128 C1134 0.950 . S
H1129 C1135 0.950 . S
H1130 C1136 0.949 . S
C1131 H1126 0.950 . S
C1131 C1133 1.327 1_565 S
C1131 C1137 1.429 1_565 S
C1132 C1124 1.574 1_554 S
C1132 H1127 0.949 . S
C1132 C1138 1.368 . S
C1133 C1117 1.349 . S
C1133 H1125 0.950 1_545 S
C1133 C1131 1.327 1_545 S
C1134 C1122 1.349 . S
C1134 H1128 0.950 . S
C1134 C1135 1.327 . S
C1135 H1129 0.950 . S
C1135 C1134 1.327 . S
C1135 C1139 1.429 . S
C1136 C1119 1.574 1_556 S
C1136 H1130 0.949 . S
C1136 C1140 1.368 1_565 S
C1137 C1118 1.429 . S
C1137 C1131 1.429 1_545 S
C1137 C1138 1.523 . S
C1138 C1119 1.368 1_545 S
C1138 C1132 1.368 . S
C1138 C1137 1.523 . S
C1139 C1123 1.429 1_545 S
C1139 C1135 1.429 . S
C1139 C1140 1.523 . S
C1140 C1124 1.368 . S
C1140 C1136 1.368 1_545 S
C1140 C1139 1.523 . S
H1141 C1116 0.950 . S
H1142 C1118 0.950 . S
H1143 C1119 0.949 . S
H1144 C1121 0.950 . S
H1145 C1123 0.950 . S
C1146 C1147 1.349 . S
C1146 C1148 1.327 . S
C1146 H1171 0.950 . S
C1147 C1146 1.349 . S
C1147 C1163 1.349 . S
C1148 C1146 1.327 . S
C1148 C1167 1.429 . S
C1148 H1172 0.950 . S
C1149 C1166 1.574 1_556 S
C1149 C1168 1.368 . S
C1149 H1173 0.949 . S
H1150 C1154 0.949 . S
C1151 C1152 1.349 . S
C1151 C1153 1.327 . S
C1151 H1174 0.950 . S
C1152 C1151 1.349 . S
C1152 C1164 1.349 . S
C1153 C1151 1.327 . S
C1153 C1169 1.429 . S
C1153 H1175 0.950 . S
C1154 H1150 0.949 . S
C1154 C1162 1.574 1_554 S
C1154 C1170 1.368 . S
H1155 C1163 0.950 . S
H1156 C1161 0.950 . S
H1157 C1162 0.949 . S
H1158 C1164 0.950 . S
H1159 C1165 0.950 . S
H1160 C1166 0.949 . S
C1161 H1156 0.950 . S
C1161 C1163 1.327 . S
C1161 C1167 1.429 . S
C1162 C1154 1.574 1_556 S
C1162 H1157 0.949 . S
C1162 C1168 1.368 . S
C1163 C1147 1.349 . S
C1163 H1155 0.950 . S
C1163 C1161 1.327 . S
C1164 C1152 1.349 . S
C1164 H1158 0.950 . S
C1164 C1165 1.327 . S
C1165 H1159 0.950 . S
C1165 C1164 1.327 . S
C1165 C1169 1.429 . S
C1166 C1149 1.574 1_554 S
C1166 H1160 0.949 . S
C1166 C1170 1.368 . S
C1167 C1148 1.429 . S
C1167 C1161 1.429 . S
C1167 C1168 1.523 . S
C1168 C1149 1.368 . S
C1168 C1162 1.368 . S
C1168 C1167 1.523 . S
C1169 C1153 1.429 . S
C1169 C1165 1.429 . S
C1169 C1170 1.523 . S
C1170 C1154 1.368 . S
C1170 C1166 1.368 . S
C1170 C1169 1.523 . S
H1171 C1146 0.950 . S
H1172 C1148 0.950 . S
H1173 C1149 0.949 . S
H1174 C1151 0.950 . S
H1175 C1153 0.950 . S
C1176 C1177 1.349 . S
C1176 C1178 1.327 . S
C1176 H1201 0.950 . S
C1177 C1176 1.349 . S
C1177 C1193 1.349 . S
C1178 C1176 1.327 . S
C1178 C1197 1.429 . S
C1178 H1202 0.950 . S
C1179 C1196 1.574 1_556 S
C1179 C1198 1.368 . S
C1179 H1203 0.949 . S
H1180 C1184 0.949 . S
C1181 C1182 1.349 . S
C1181 C1183 1.327 . S
C1181 H1204 0.950 . S
C1182 C1181 1.349 . S
C1182 C1194 1.349 . S
C1183 C1181 1.327 . S
C1183 C1199 1.429 . S
C1183 H1205 0.950 . S
C1184 H1180 0.949 . S
C1184 C1192 1.574 1_554 S
C1184 C1200 1.368 . S
H1185 C1193 0.950 . S
H1186 C1191 0.950 . S
H1187 C1192 0.949 . S
H1188 C1194 0.950 . S
H1189 C1195 0.950 . S
H1190 C1196 0.949 . S
C1191 H1186 0.950 . S
C1191 C1193 1.327 . S
C1191 C1197 1.429 . S
C1192 C1184 1.574 1_556 S
C1192 H1187 0.949 . S
C1192 C1198 1.368 . S
C1193 C1177 1.349 . S
C1193 H1185 0.950 . S
C1193 C1191 1.327 . S
C1194 C1182 1.349 . S
C1194 H1188 0.950 . S
C1194 C1195 1.327 . S
C1195 H1189 0.950 . S
C1195 C1194 1.327 . S
C1195 C1199 1.429 . S
C1196 C1179 1.574 1_554 S
C1196 H1190 0.949 . S
C1196 C1200 1.368 . S
C1197 C1178 1.429 . S
C1197 C1191 1.429 . S
C1197 C1198 1.523 . S
C1198 C1179 1.368 . S
C1198 C1192 1.368 . S
C1198 C1197 1.523 . S
C1199 C1183 1.429 . S
C1199 C1195 1.429 . S
C1199 C1200 1.523 . S
C1200 C1184 1.368 . S
C1200 C1196 1.368 . S
C1200 C1199 1.523 . S
H1201 C1176 0.950 . S
H1202 C1178 0.950 . S
H1203 C1179 0.949 . S
H1204 C1181 0.950 . S
H1205 C1183 0.950 . S
C1206 C1207 1.349 . S
C1206 C1208 1.327 . S
C1206 H1231 0.950 . S
C1207 C1206 1.349 . S
C1207 C1223 1.349 . S
C1208 C1206 1.327 . S
C1208 C1227 1.429 . S
C1208 H1232 0.950 . S
C1209 C1226 1.574 . S
C1209 C1228 1.368 . S
C1209 H1233 0.949 . S
H1210 C1214 0.949 . S
C1211 C1212 1.349 . S
C1211 C1213 1.327 . S
C1211 H1234 0.950 . S
C1212 C1211 1.349 . S
C1212 C1224 1.349 . S
C1213 C1211 1.327 . S
C1213 C1229 1.429 . S
C1213 H1235 0.950 . S
C1214 H1210 0.949 . S
C1214 C1222 1.574 . S
C1214 C1230 1.368 . S
H1215 C1223 0.950 . S
H1216 C1221 0.950 . S
H1217 C1222 0.949 . S
H1218 C1224 0.950 . S
H1219 C1225 0.950 . S
H1220 C1226 0.949 . S
C1221 H1216 0.950 . S
C1221 C1223 1.327 . S
C1221 C1227 1.429 . S
C1222 C1214 1.574 . S
C1222 H1217 0.949 . S
C1222 C1228 1.368 . S
C1223 C1207 1.349 . S
C1223 H1215 0.950 . S
C1223 C1221 1.327 . S
C1224 C1212 1.349 . S
C1224 H1218 0.950 . S
C1224 C1225 1.327 . S
C1225 H1219 0.950 . S
C1225 C1224 1.327 . S
C1225 C1229 1.429 . S
C1226 C1209 1.574 . S
C1226 H1220 0.949 . S
C1226 C1230 1.368 . S
C1227 C1208 1.429 . S
C1227 C1221 1.429 . S
C1227 C1228 1.523 . S
C1228 C1209 1.368 . S
C1228 C1222 1.368 . S
C1228 C1227 1.523 . S
C1229 C1213 1.429 . S
C1229 C1225 1.429 . S
C1229 C1230 1.523 . S
C1230 C1214 1.368 . S
C1230 C1226 1.368 . S
C1230 C1229 1.523 . S
H1231 C1206 0.950 . S
H1232 C1208 0.950 . S
H1233 C1209 0.949 . S
H1234 C1211 0.950 . S
H1235 C1213 0.950 . S
C1236 C1237 1.349 . S
C1236 C1238 1.327 . S
C1236 H1261 0.950 . S
C1237 C1236 1.349 . S
C1237 C1253 1.349 . S
C1238 C1236 1.327 . S
C1238 C1257 1.429 . S
C1238 H1262 0.950 . S
C1239 C1256 1.574 . S
C1239 C1258 1.368 . S
C1239 H1263 0.949 . S
H1240 C1244 0.949 . S
C1241 C1242 1.349 . S
C1241 C1243 1.327 . S
C1241 H1264 0.950 . S
C1242 C1241 1.349 . S
C1242 C1254 1.349 . S
C1243 C1241 1.327 . S
C1243 C1259 1.429 . S
C1243 H1265 0.950 . S
C1244 H1240 0.949 . S
C1244 C1252 1.574 . S
C1244 C1260 1.368 . S
H1245 C1253 0.950 . S
H1246 C1251 0.950 . S
H1247 C1252 0.949 . S
H1248 C1254 0.950 . S
H1249 C1255 0.950 . S
H1250 C1256 0.949 . S
C1251 H1246 0.950 . S
C1251 C1253 1.327 . S
C1251 C1257 1.429 . S
C1252 C1244 1.574 . S
C1252 H1247 0.949 . S
C1252 C1258 1.368 . S
C1253 C1237 1.349 . S
C1253 H1245 0.950 . S
C1253 C1251 1.327 . S
C1254 C1242 1.349 . S
C1254 H1248 0.950 . S
C1254 C1255 1.327 . S
C1255 H1249 0.950 . S
C1255 C1254 1.327 . S
C1255 C1259 1.429 . S
C1256 C1239 1.574 . S
C1256 H1250 0.949 . S
C1256 C1260 1.368 . S
C1257 C1238 1.429 . S
C1257 C1251 1.429 . S
C1257 C1258 1.523 . S
C1258 C1239 1.368 . S
C1258 C1252 1.368 . S
C1258 C1257 1.523 . S
C1259 C1243 1.429 . S
C1259 C1255 1.429 . S
C1259 C1260 1.523 . S
C1260 C1244 1.368 . S
C1260 C1256 1.368 . S
C1260 C1259 1.523 . S
H1261 C1236 0.950 . S
H1262 C1238 0.950 . S
H1263 C1239 0.949 . S
H1264 C1241 0.950 . S
H1265 C1243 0.950 . S
C1266 C1267 1.349 . S
C1266 C1268 1.327 . S
C1266 H1291 0.950 . S
C1267 C1266 1.349 . S
C1267 C1283 1.349 . S
C1268 C1266 1.327 . S
C1268 C1287 1.429 . S
C1268 H1292 0.950 . S
C1269 C1286 1.574 . S
C1269 C1288 1.368 . S
C1269 H1293 0.949 . S
H1270 C1274 0.949 . S
C1271 C1272 1.349 . S
C1271 C1273 1.327 . S
C1271 H1294 0.950 . S
C1272 C1271 1.349 . S
C1272 C1284 1.349 . S
C1273 C1271 1.327 . S
C1273 C1289 1.429 . S
C1273 H1295 0.950 . S
C1274 H1270 0.949 . S
C1274 C1282 1.574 . S
C1274 C1290 1.368 . S
H1275 C1283 0.950 . S
H1276 C1281 0.950 . S
H1277 C1282 0.949 . S
H1278 C1284 0.950 . S
H1279 C1285 0.950 . S
H1280 C1286 0.949 . S
C1281 H1276 0.950 . S
C1281 C1283 1.327 . S
C1281 C1287 1.429 . S
C1282 C1274 1.574 . S
C1282 H1277 0.949 . S
C1282 C1288 1.368 . S
C1283 C1267 1.349 . S
C1283 H1275 0.950 . S
C1283 C1281 1.327 . S
C1284 C1272 1.349 . S
C1284 H1278 0.950 . S
C1284 C1285 1.327 . S
C1285 H1279 0.950 . S
C1285 C1284 1.327 . S
C1285 C1289 1.429 . S
C1286 C1269 1.574 . S
C1286 H1280 0.949 . S
C1286 C1290 1.368 . S
C1287 C1268 1.429 . S
C1287 C1281 1.429 . S
C1287 C1288 1.523 . S
C1288 C1269 1.368 . S
C1288 C1282 1.368 . S
C1288 C1287 1.523 . S
C1289 C1273 1.429 . S
C1289 C1285 1.429 . S
C1289 C1290 1.523 . S
C1290 C1274 1.368 . S
C1290 C1286 1.368 . S
C1290 C1289 1.523 . S
H1291 C1266 0.950 . S
H1292 C1268 0.950 . S
H1293 C1269 0.949 . S
H1294 C1271 0.950 . S
H1295 C1273 0.950 . S
C1296 C1297 1.349 . S
C1296 C1298 1.327 . S
C1296 H1321 0.950 . S
C1297 C1296 1.349 . S
C1297 C1313 1.349 . S
C1298 C1296 1.327 . S
C1298 C1317 1.429 . S
C1298 H1322 0.950 . S
C1299 C1316 1.574 . S
C1299 C1318 1.368 . S
C1299 H1323 0.949 . S
H1300 C1304 0.949 . S
C1301 C1302 1.349 . S
C1301 C1303 1.327 . S
C1301 H1324 0.950 . S
C1302 C1301 1.349 . S
C1302 C1314 1.349 . S
C1303 C1301 1.327 . S
C1303 C1319 1.429 . S
C1303 H1325 0.950 . S
C1304 H1300 0.949 . S
C1304 C1312 1.574 . S
C1304 C1320 1.368 . S
H1305 C1313 0.950 . S
H1306 C1311 0.950 . S
H1307 C1312 0.949 . S
H1308 C1314 0.950 . S
H1309 C1315 0.950 . S
H1310 C1316 0.949 . S
C1311 H1306 0.950 . S
C1311 C1313 1.327 . S
C1311 C1317 1.429 . S
C1312 C1304 1.574 . S
C1312 H1307 0.949 . S
C1312 C1318 1.368 . S
C1313 C1297 1.349 . S
C1313 H1305 0.950 . S
C1313 C1311 1.327 . S
C1314 C1302 1.349 . S
C1314 H1308 0.950 . S
C1314 C1315 1.327 . S
C1315 H1309 0.950 . S
C1315 C1314 1.327 . S
C1315 C1319 1.429 . S
C1316 C1299 1.574 . S
C1316 H1310 0.949 . S
C1316 C1320 1.368 . S
C1317 C1298 1.429 . S
C1317 C1311 1.429 . S
C1317 C1318 1.523 . S
C1318 C1299 1.368 . S
C1318 C1312 1.368 . S
C1318 C1317 1.523 . S
C1319 C1303 1.429 . S
C1319 C1315 1.429 . S
C1319 C1320 1.523 . S
C1320 C1304 1.368 . S
C1320 C1316 1.368 . S
C1320 C1319 1.523 . S
H1321 C1296 0.950 . S
H1322 C1298 0.950 . S
H1323 C1299 0.949 . S
H1324 C1301 0.950 . S
H1325 C1303 0.950 . S
C1326 C1327 1.349 . S
C1326 C1328 1.327 . S
C1326 H1351 0.950 . S
C1327 C1326 1.349 . S
C1327 C1343 1.349 . S
C1328 C1326 1.327 . S
C1328 C1347 1.429 . S
C1328 H1352 0.950 . S
C1329 C1346 1.574 . S
C1329 C1348 1.368 . S
C1329 H1353 0.949 . S
H1330 C1334 0.949 . S
C1331 C1332 1.349 . S
C1331 C1333 1.327 . S
C1331 H1354 0.950 . S
C1332 C1331 1.349 . S
C1332 C1344 1.349 . S
C1333 C1331 1.327 . S
C1333 C1349 1.429 . S
C1333 H1355 0.950 . S
C1334 H1330 0.949 . S
C1334 C1342 1.574 . S
C1334 C1350 1.368 . S
H1335 C1343 0.950 . S
H1336 C1341 0.950 . S
H1337 C1342 0.949 . S
H1338 C1344 0.950 . S
H1339 C1345 0.950 . S
H1340 C1346 0.949 . S
C1341 H1336 0.950 . S
C1341 C1343 1.327 . S
C1341 C1347 1.429 . S
C1342 C1334 1.574 . S
C1342 H1337 0.949 . S
C1342 C1348 1.368 . S
C1343 C1327 1.349 . S
C1343 H1335 0.950 . S
C1343 C1341 1.327 . S
C1344 C1332 1.349 . S
C1344 H1338 0.950 . S
C1344 C1345 1.327 . S
C1345 H1339 0.950 . S
C1345 C1344 1.327 . S
C1345 C1349 1.429 . S
C1346 C1329 1.574 . S
C1346 H1340 0.949 . S
C1346 C1350 1.368 . S
C1347 C1328 1.429 . S
C1347 C1341 1.429 . S
C1347 C1348 1.523 . S
C1348 C1329 1.368 . S
C1348 C1342 1.368 . S
C1348 C1347 1.523 . S
C1349 C1333 1.429 . S
C1349 C1345 1.429 . S
C1349 C1350 1.523 . S
C1350 C1334 1.368 . S
C1350 C1346 1.368 . S
C1350 C1349 1.523 . S
H1351 C1326 0.950 . S
H1352 C1328 0.950 . S
H1353 C1329 0.949 . S
H1354 C1331 0.950 . S
H1355 C1333 0.950 . S
C1356 C1357 1.349 . S
C1356 C1358 1.327 . S
C1356 H1381 0.950 . S
C1357 C1356 1.349 . S
C1357 C1373 1.349 . S
C1358 C1356 1.327 . S
C1358 C1377 1.429 . S
C1358 H1382 0.950 . S
C1359 C1376 1.574 . S
C1359 C1378 1.368 . S
C1359 H1383 0.949 . S
H1360 C1364 0.949 . S
C1361 C1362 1.349 . S
C1361 C1363 1.327 . S
C1361 H1384 0.950 . S
C1362 C1361 1.349 . S
C1362 C1374 1.349 . S
C1363 C1361 1.327 . S
C1363 C1379 1.429 . S
C1363 H1385 0.950 . S
C1364 H1360 0.949 . S
C1364 C1372 1.574 . S
C1364 C1380 1.368 . S
H1365 C1373 0.950 . S
H1366 C1371 0.950 . S
H1367 C1372 0.949 . S
H1368 C1374 0.950 . S
H1369 C1375 0.950 . S
H1370 C1376 0.949 . S
C1371 H1366 0.950 . S
C1371 C1373 1.327 . S
C1371 C1377 1.429 . S
C1372 C1364 1.574 . S
C1372 H1367 0.949 . S
C1372 C1378 1.368 . S
C1373 C1357 1.349 . S
C1373 H1365 0.950 . S
C1373 C1371 1.327 . S
C1374 C1362 1.349 . S
C1374 H1368 0.950 . S
C1374 C1375 1.327 . S
C1375 H1369 0.950 . S
C1375 C1374 1.327 . S
C1375 C1379 1.429 . S
C1376 C1359 1.574 . S
C1376 H1370 0.949 . S
C1376 C1380 1.368 . S
C1377 C1358 1.429 . S
C1377 C1371 1.429 . S
C1377 C1378 1.523 . S
C1378 C1359 1.368 . S
C1378 C1372 1.368 . S
C1378 C1377 1.523 . S
C1379 C1363 1.429 . S
C1379 C1375 1.429 . S
C1379 C1380 1.523 . S
C1380 C1364 1.368 . S
C1380 C1376 1.368 . S
C1380 C1379 1.523 . S
H1381 C1356 0.950 . S
H1382 C1358 0.950 . S
H1383 C1359 0.949 . S
H1384 C1361 0.950 . S
H1385 C1363 0.950 . S
C1386 C1387 1.349 . S
C1386 C1388 1.327 . S
C1386 H1411 0.950 . S
C1387 C1386 1.349 . S
C1387 C1403 1.349 . S
C1388 C1386 1.327 . S
C1388 C1407 1.429 . S
C1388 H1412 0.950 . S
C1389 C1406 1.574 . S
C1389 C1408 1.368 . S
C1389 H1413 0.949 . S
H1390 C1394 0.949 . S
C1391 C1392 1.349 . S
C1391 C1393 1.327 . S
C1391 H1414 0.950 . S
C1392 C1391 1.349 . S
C1392 C1404 1.348 1_565 S
C1393 C1391 1.327 . S
C1393 C1409 1.429 . S
C1393 H1415 0.950 . S
C1394 H1390 0.949 . S
C1394 C1402 1.574 . S
C1394 C1410 1.368 . S
H1395 C1403 0.950 . S
H1396 C1401 0.950 . S
H1397 C1402 0.949 . S
H1398 C1404 0.951 . S
H1399 C1405 0.950 1_545 S
H1400 C1406 0.949 . S
C1401 H1396 0.950 . S
C1401 C1403 1.327 . S
C1401 C1407 1.429 . S
C1402 C1394 1.574 . S
C1402 H1397 0.949 . S
C1402 C1408 1.368 . S
C1403 C1387 1.349 . S
C1403 H1395 0.950 . S
C1403 C1401 1.327 . S
C1404 C1392 1.348 1_545 S
C1404 H1398 0.951 . S
C1404 C1405 1.327 1_545 S
C1405 H1399 0.950 1_565 S
C1405 C1404 1.327 1_565 S
C1405 C1409 1.429 . S
C1406 C1389 1.574 . S
C1406 H1400 0.949 . S
C1406 C1410 1.368 . S
C1407 C1388 1.429 . S
C1407 C1401 1.429 . S
C1407 C1408 1.523 . S
C1408 C1389 1.368 . S
C1408 C1402 1.368 . S
C1408 C1407 1.523 . S
C1409 C1393 1.429 . S
C1409 C1405 1.429 . S
C1409 C1410 1.523 . S
C1410 C1394 1.368 . S
C1410 C1406 1.368 . S
C1410 C1409 1.523 . S
H1411 C1386 0.950 . S
H1412 C1388 0.950 . S
H1413 C1389 0.949 . S
H1414 C1391 0.950 . S
H1415 C1393 0.950 . S
C1416 C1417 1.349 . S
C1416 C1418 1.327 . S
C1416 H1441 0.950 . S
C1417 C1416 1.349 . S
C1417 C1433 1.349 . S
C1418 C1416 1.327 . S
C1418 C1437 1.429 . S
C1418 H1442 0.950 . S
C1419 C1436 1.574 . S
C1419 C1438 1.368 . S
C1419 H1443 0.949 . S
H1420 C1424 0.949 . S
C1421 C1422 1.349 . S
C1421 C1423 1.327 . S
C1421 H1444 0.950 . S
C1422 C1421 1.349 . S
C1422 C1434 1.349 . S
C1423 C1421 1.327 . S
C1423 C1439 1.429 . S
C1423 H1445 0.950 . S
C1424 H1420 0.949 . S
C1424 C1432 1.574 . S
C1424 C1440 1.368 . S
H1425 C1433 0.950 . S
H1426 C1431 0.950 . S
H1427 C1432 0.949 . S
H1428 C1434 0.950 . S
H1429 C1435 0.950 . S
H1430 C1436 0.949 . S
C1431 H1426 0.950 . S
C1431 C1433 1.327 . S
C1431 C1437 1.429 . S
C1432 C1424 1.574 . S
C1432 H1427 0.949 . S
C1432 C1438 1.368 . S
C1433 C1417 1.349 . S
C1433 H1425 0.950 . S
C1433 C1431 1.327 . S
C1434 C1422 1.349 . S
C1434 H1428 0.950 . S
C1434 C1435 1.327 . S
C1435 H1429 0.950 . S
C1435 C1434 1.327 . S
C1435 C1439 1.429 . S
C1436 C1419 1.574 . S
C1436 H1430 0.949 . S
C1436 C1440 1.368 . S
C1437 C1418 1.429 . S
C1437 C1431 1.429 . S
C1437 C1438 1.523 . S
C1438 C1419 1.368 . S
C1438 C1432 1.368 . S
C1438 C1437 1.523 . S
C1439 C1423 1.429 . S
C1439 C1435 1.429 . S
C1439 C1440 1.523 . S
C1440 C1424 1.368 . S
C1440 C1436 1.368 . S
C1440 C1439 1.523 . S
H1441 C1416 0.950 . S
H1442 C1418 0.950 . S
H1443 C1419 0.949 . S
H1444 C1421 0.950 . S
H1445 C1423 0.950 . S
C1446 C1447 1.349 . S
C1446 C1448 1.327 . S
C1446 H1471 0.950 . S
C1447 C1446 1.349 . S
C1447 C1463 1.349 . S
C1448 C1446 1.327 . S
C1448 C1467 1.429 . S
C1448 H1472 0.950 . S
C1449 C1466 1.574 . S
C1449 C1468 1.368 . S
C1449 H1473 0.949 . S
H1450 C1454 0.949 . S
C1451 C1452 1.349 . S
C1451 C1453 1.327 . S
C1451 H1474 0.950 . S
C1452 C1451 1.349 . S
C1452 C1464 1.349 . S
C1453 C1451 1.327 . S
C1453 C1469 1.429 . S
C1453 H1475 0.950 . S
C1454 H1450 0.949 . S
C1454 C1462 1.574 . S
C1454 C1470 1.368 . S
H1455 C1463 0.950 . S
H1456 C1461 0.950 . S
H1457 C1462 0.949 . S
H1458 C1464 0.950 . S
H1459 C1465 0.950 . S
H1460 C1466 0.949 . S
C1461 H1456 0.950 . S
C1461 C1463 1.327 . S
C1461 C1467 1.429 . S
C1462 C1454 1.574 . S
C1462 H1457 0.949 . S
C1462 C1468 1.368 . S
C1463 C1447 1.349 . S
C1463 H1455 0.950 . S
C1463 C1461 1.327 . S
C1464 C1452 1.349 . S
C1464 H1458 0.950 . S
C1464 C1465 1.327 . S
C1465 H1459 0.950 . S
C1465 C1464 1.327 . S
C1465 C1469 1.429 . S
C1466 C1449 1.574 . S
C1466 H1460 0.949 . S
C1466 C1470 1.368 . S
C1467 C1448 1.429 . S
C1467 C1461 1.429 . S
C1467 C1468 1.523 . S
C1468 C1449 1.368 . S
C1468 C1462 1.368 . S
C1468 C1467 1.523 . S
C1469 C1453 1.429 . S
C1469 C1465 1.429 . S
C1469 C1470 1.523 . S
C1470 C1454 1.368 . S
C1470 C1466 1.368 . S
C1470 C1469 1.523 . S
H1471 C1446 0.950 . S
H1472 C1448 0.950 . S
H1473 C1449 0.949 . S
H1474 C1451 0.950 . S
H1475 C1453 0.950 . S
C1476 C1477 1.349 . S
C1476 C1478 1.327 . S
C1476 H1501 0.950 . S
C1477 C1476 1.349 . S
C1477 C1493 1.349 . S
C1478 C1476 1.327 . S
C1478 C1497 1.429 . S
C1478 H1502 0.950 . S
C1479 C1496 1.574 . S
C1479 C1498 1.368 . S
C1479 H1503 0.949 . S
H1480 C1484 0.949 . S
C1481 C1482 1.349 . S
C1481 C1483 1.327 . S
C1481 H1504 0.950 . S
C1482 C1481 1.349 . S
C1482 C1494 1.349 . S
C1483 C1481 1.327 . S
C1483 C1499 1.429 . S
C1483 H1505 0.950 . S
C1484 H1480 0.949 . S
C1484 C1492 1.574 . S
C1484 C1500 1.368 . S
H1485 C1493 0.950 1_455 S
H1486 C1491 0.950 1_455 S
H1487 C1492 0.949 . S
H1488 C1494 0.950 . S
H1489 C1495 0.950 . S
H1490 C1496 0.949 . S
C1491 H1486 0.950 1_655 S
C1491 C1493 1.327 . S
C1491 C1497 1.429 . S
C1492 C1484 1.574 . S
C1492 H1487 0.949 . S
C1492 C1498 1.368 . S
C1493 C1477 1.349 . S
C1493 H1485 0.950 1_655 S
C1493 C1491 1.327 . S
C1494 C1482 1.349 . S
C1494 H1488 0.950 . S
C1494 C1495 1.327 . S
C1495 H1489 0.950 . S
C1495 C1494 1.327 . S
C1495 C1499 1.429 . S
C1496 C1479 1.574 . S
C1496 H1490 0.949 . S
C1496 C1500 1.368 . S
C1497 C1478 1.429 . S
C1497 C1491 1.429 . S
C1497 C1498 1.523 . S
C1498 C1479 1.368 . S
C1498 C1492 1.368 . S
C1498 C1497 1.523 . S
C1499 C1483 1.429 . S
C1499 C1495 1.429 . S
C1499 C1500 1.523 . S
C1500 C1484 1.368 . S
C1500 C1496 1.368 . S
C1500 C1499 1.523 . S
H1501 C1476 0.950 . S
H1502 C1478 0.950 . S
H1503 C1479 0.949 . S
H1504 C1481 0.950 . S
H1505 C1483 0.950 . S
C1506 C1507 1.349 . S
C1506 C1508 1.327 . S
C1506 H1531 0.950 . S
C1507 C1506 1.349 . S
C1507 C1523 1.349 . S
C1508 C1506 1.327 . S
C1508 C1527 1.429 . S
C1508 H1532 0.950 . S
C1509 C1526 1.574 . S
C1509 C1528 1.368 . S
C1509 H1533 0.949 . S
H1510 C1514 0.949 . S
C1511 C1512 1.349 . S
C1511 C1513 1.327 . S
C1511 H1534 0.950 . S
C1512 C1511 1.349 . S
C1512 C1524 1.349 . S
C1513 C1511 1.327 . S
C1513 C1529 1.429 . S
C1513 H1535 0.950 . S
C1514 H1510 0.949 . S
C1514 C1522 1.574 . S
C1514 C1530 1.368 . S
H1515 C1523 0.950 . S
H1516 C1521 0.950 . S
H1517 C1522 0.949 . S
H1518 C1524 0.950 . S
H1519 C1525 0.950 . S
H1520 C1526 0.949 . S
C1521 H1516 0.950 . S
C1521 C1523 1.327 . S
C1521 C1527 1.429 . S
C1522 C1514 1.574 . S
C1522 H1517 0.949 . S
C1522 C1528 1.368 . S
C1523 C1507 1.349 . S
C1523 H1515 0.950 . S
C1523 C1521 1.327 . S
C1524 C1512 1.349 . S
C1524 H1518 0.950 . S
C1524 C1525 1.327 . S
C1525 H1519 0.950 . S
C1525 C1524 1.327 . S
C1525 C1529 1.429 . S
C1526 C1509 1.574 . S
C1526 H1520 0.949 . S
C1526 C1530 1.368 . S
C1527 C1508 1.429 . S
C1527 C1521 1.429 . S
C1527 C1528 1.523 . S
C1528 C1509 1.368 . S
C1528 C1522 1.368 . S
C1528 C1527 1.523 . S
C1529 C1513 1.429 . S
C1529 C1525 1.429 . S
C1529 C1530 1.523 . S
C1530 C1514 1.368 . S
C1530 C1526 1.368 . S
C1530 C1529 1.523 . S
H1531 C1506 0.950 . S
H1532 C1508 0.950 . S
H1533 C1509 0.949 . S
H1534 C1511 0.950 . S
H1535 C1513 0.950 . S
C1536 C1537 1.349 . S
C1536 C1538 1.327 . S
C1536 H1561 0.950 . S
C1537 C1536 1.349 . S
C1537 C1553 1.349 . S
C1538 C1536 1.327 . S
C1538 C1557 1.429 . S
C1538 H1562 0.950 . S
C1539 C1556 1.574 . S
C1539 C1558 1.368 . S
C1539 H1563 0.949 . S
H1540 C1544 0.949 . S
C1541 C1542 1.349 . S
C1541 C1543 1.327 . S
C1541 H1564 0.950 . S
C1542 C1541 1.349 . S
C1542 C1554 1.349 . S
C1543 C1541 1.327 . S
C1543 C1559 1.429 . S
C1543 H1565 0.950 . S
C1544 H1540 0.949 . S
C1544 C1552 1.574 . S
C1544 C1560 1.368 . S
H1545 C1553 0.950 . S
H1546 C1551 0.950 . S
H1547 C1552 0.949 . S
H1548 C1554 0.950 . S
H1549 C1555 0.950 . S
H1550 C1556 0.949 . S
C1551 H1546 0.950 . S
C1551 C1553 1.327 . S
C1551 C1557 1.429 . S
C1552 C1544 1.574 . S
C1552 H1547 0.949 . S
C1552 C1558 1.368 . S
C1553 C1537 1.349 . S
C1553 H1545 0.950 . S
C1553 C1551 1.327 . S
C1554 C1542 1.349 . S
C1554 H1548 0.950 . S
C1554 C1555 1.327 . S
C1555 H1549 0.950 . S
C1555 C1554 1.327 . S
C1555 C1559 1.429 . S
C1556 C1539 1.574 . S
C1556 H1550 0.949 . S
C1556 C1560 1.368 . S
C1557 C1538 1.429 . S
C1557 C1551 1.429 . S
C1557 C1558 1.523 . S
C1558 C1539 1.368 . S
C1558 C1552 1.368 . S
C1558 C1557 1.523 . S
C1559 C1543 1.429 . S
C1559 C1555 1.429 . S
C1559 C1560 1.523 . S
C1560 C1544 1.368 . S
C1560 C1556 1.368 . S
C1560 C1559 1.523 . S
H1561 C1536 0.950 . S
H1562 C1538 0.950 . S
H1563 C1539 0.949 . S
H1564 C1541 0.950 . S
H1565 C1543 0.950 . S
C1566 C1567 1.349 . S
C1566 C1568 1.327 1_655 S
C1566 H1591 0.950 1_655 S
C1567 C1566 1.349 . S
C1567 C1583 1.349 . S
C1568 C1566 1.327 1_455 S
C1568 C1587 1.429 1_455 S
C1568 H1592 0.950 . S
C1569 C1586 1.574 . S
C1569 C1588 1.368 1_655 S
C1569 H1593 0.949 . S
H1570 C1574 0.949 . S
C1571 C1572 1.349 . S
C1571 C1573 1.327 . S
C1571 H1594 0.950 . S
C1572 C1571 1.349 . S
C1572 C1584 1.349 . S
C1573 C1571 1.327 . S
C1573 C1589 1.429 . S
C1573 H1595 0.950 . S
C1574 H1570 0.949 . S
C1574 C1582 1.574 . S
C1574 C1590 1.368 . S
H1575 C1583 0.950 . S
H1576 C1581 0.950 . S
H1577 C1582 0.949 . S
H1578 C1584 0.950 . S
H1579 C1585 0.950 . S
H1580 C1586 0.949 . S
C1581 H1576 0.950 . S
C1581 C1583 1.327 . S
C1581 C1587 1.429 . S
C1582 C1574 1.574 . S
C1582 H1577 0.949 . S
C1582 C1588 1.368 . S
C1583 C1567 1.349 . S
C1583 H1575 0.950 . S
C1583 C1581 1.327 . S
C1584 C1572 1.349 . S
C1584 H1578 0.950 . S
C1584 C1585 1.327 . S
C1585 H1579 0.950 . S
C1585 C1584 1.327 . S
C1585 C1589 1.429 . S
C1586 C1569 1.574 . S
C1586 H1580 0.949 . S
C1586 C1590 1.368 1_655 S
C1587 C1568 1.429 1_655 S
C1587 C1581 1.429 . S
C1587 C1588 1.523 1_655 S
C1588 C1569 1.368 1_455 S
C1588 C1582 1.368 . S
C1588 C1587 1.523 1_455 S
C1589 C1573 1.429 . S
C1589 C1585 1.429 . S
C1589 C1590 1.523 . S
C1590 C1574 1.368 . S
C1590 C1586 1.368 1_455 S
C1590 C1589 1.523 . S
H1591 C1566 0.950 1_455 S
H1592 C1568 0.950 . S
H1593 C1569 0.949 . S
H1594 C1571 0.950 . S
H1595 C1573 0.950 . S
C1596 C1597 1.349 . S
C1596 C1598 1.327 . S
C1596 H1621 0.950 . S
C1597 C1596 1.349 . S
C1597 C1613 1.349 . S
C1598 C1596 1.327 . S
C1598 C1617 1.429 . S
C1598 H1622 0.950 . S
C1599 C1616 1.574 . S
C1599 C1618 1.368 . S
C1599 H1623 0.949 . S
H1600 C1604 0.949 . S
C1601 C1602 1.349 . S
C1601 C1603 1.327 . S
C1601 H1624 0.950 . S
C1602 C1601 1.349 . S
C1602 C1614 1.349 . S
C1603 C1601 1.327 . S
C1603 C1619 1.429 . S
C1603 H1625 0.950 . S
C1604 H1600 0.949 . S
C1604 C1612 1.574 . S
C1604 C1620 1.368 . S
H1605 C1613 0.950 . S
H1606 C1611 0.950 . S
H1607 C1612 0.949 . S
H1608 C1614 0.950 . S
H1609 C1615 0.950 . S
H1610 C1616 0.949 . S
C1611 H1606 0.950 . S
C1611 C1613 1.327 . S
C1611 C1617 1.429 . S
C1612 C1604 1.574 . S
C1612 H1607 0.949 . S
C1612 C1618 1.368 . S
C1613 C1597 1.349 . S
C1613 H1605 0.950 . S
C1613 C1611 1.327 . S
C1614 C1602 1.349 . S
C1614 H1608 0.950 . S
C1614 C1615 1.327 . S
C1615 H1609 0.950 . S
C1615 C1614 1.327 . S
C1615 C1619 1.429 . S
C1616 C1599 1.574 . S
C1616 H1610 0.949 . S
C1616 C1620 1.368 . S
C1617 C1598 1.429 . S
C1617 C1611 1.429 . S
C1617 C1618 1.523 . S
C1618 C1599 1.368 . S
C1618 C1612 1.368 . S
C1618 C1617 1.523 . S
C1619 C1603 1.429 . S
C1619 C1615 1.429 . S
C1619 C1620 1.523 . S
C1620 C1604 1.368 . S
C1620 C1616 1.368 . S
C1620 C1619 1.523 . S
H1621 C1596 0.950 . S
H1622 C1598 0.950 . S
H1623 C1599 0.949 . S
H1624 C1601 0.950 . S
H1625 C1603 0.950 . S
C1626 C1627 1.349 . S
C1626 C1628 1.327 . S
C1626 H1651 0.950 . S
C1627 C1626 1.349 . S
C1627 C1643 1.349 . S
C1628 C1626 1.327 . S
C1628 C1647 1.429 . S
C1628 H1652 0.950 . S
C1629 C1646 1.574 . S
C1629 C1648 1.368 . S
C1629 H1653 0.949 . S
H1630 C1634 0.949 1_565 S
C1631 C1632 1.349 . S
C1631 C1633 1.327 . S
C1631 H1654 0.950 . S
C1632 C1631 1.349 . S
C1632 C1644 1.349 . S
C1633 C1631 1.327 . S
C1633 C1649 1.429 . S
C1633 H1655 0.950 . S
C1634 H1630 0.949 1_545 S
C1634 C1642 1.574 1_545 S
C1634 C1650 1.368 . S
H1635 C1643 0.950 . S
H1636 C1641 0.950 1_545 S
H1637 C1642 0.949 . S
H1638 C1644 0.950 . S
H1639 C1645 0.950 . S
H1640 C1646 0.949 . S
C1641 H1636 0.950 1_565 S
C1641 C1643 1.327 . S
C1641 C1647 1.429 . S
C1642 C1634 1.574 1_565 S
C1642 H1637 0.949 . S
C1642 C1648 1.368 1_565 S
C1643 C1627 1.349 . S
C1643 H1635 0.950 . S
C1643 C1641 1.327 . S
C1644 C1632 1.349 . S
C1644 H1638 0.950 . S
C1644 C1645 1.327 . S
C1645 H1639 0.950 . S
C1645 C1644 1.327 . S
C1645 C1649 1.429 . S
C1646 C1629 1.574 . S
C1646 H1640 0.949 . S
C1646 C1650 1.368 . S
C1647 C1628 1.429 . S
C1647 C1641 1.429 . S
C1647 C1648 1.523 1_565 S
C1648 C1629 1.368 . S
C1648 C1642 1.368 1_545 S
C1648 C1647 1.523 1_545 S
C1649 C1633 1.429 . S
C1649 C1645 1.429 . S
C1649 C1650 1.523 . S
C1650 C1634 1.368 . S
C1650 C1646 1.368 . S
C1650 C1649 1.523 . S
H1651 C1626 0.950 . S
H1652 C1628 0.950 . S
H1653 C1629 0.949 . S
H1654 C1631 0.950 . S
H1655 C1633 0.950 . S
C1656 C1657 1.349 . S
C1656 C1658 1.327 . S
C1656 H1681 0.950 . S
C1657 C1656 1.349 . S
C1657 C1673 1.349 . S
C1658 C1656 1.327 . S
C1658 C1677 1.429 . S
C1658 H1682 0.950 . S
C1659 C1676 1.574 . S
C1659 C1678 1.368 . S
C1659 H1683 0.949 . S
H1660 C1664 0.949 . S
C1661 C1662 1.349 . S
C1661 C1663 1.327 . S
C1661 H1684 0.950 . S
C1662 C1661 1.349 . S
C1662 C1674 1.349 . S
C1663 C1661 1.327 . S
C1663 C1679 1.429 . S
C1663 H1685 0.950 . S
C1664 H1660 0.949 . S
C1664 C1672 1.574 . S
C1664 C1680 1.368 . S
H1665 C1673 0.950 . S
H1666 C1671 0.950 . S
H1667 C1672 0.949 . S
H1668 C1674 0.950 . S
H1669 C1675 0.950 . S
H1670 C1676 0.949 . S
C1671 H1666 0.950 . S
C1671 C1673 1.327 . S
C1671 C1677 1.429 . S
C1672 C1664 1.574 . S
C1672 H1667 0.949 . S
C1672 C1678 1.368 . S
C1673 C1657 1.349 . S
C1673 H1665 0.950 . S
C1673 C1671 1.327 . S
C1674 C1662 1.349 . S
C1674 H1668 0.950 . S
C1674 C1675 1.327 . S
C1675 H1669 0.950 . S
C1675 C1674 1.327 . S
C1675 C1679 1.429 . S
C1676 C1659 1.574 . S
C1676 H1670 0.949 . S
C1676 C1680 1.368 . S
C1677 C1658 1.429 . S
C1677 C1671 1.429 . S
C1677 C1678 1.523 . S
C1678 C1659 1.368 . S
C1678 C1672 1.368 . S
C1678 C1677 1.523 . S
C1679 C1663 1.429 . S
C1679 C1675 1.429 . S
C1679 C1680 1.523 . S
C1680 C1664 1.368 . S
C1680 C1676 1.368 . S
C1680 C1679 1.523 . S
H1681 C1656 0.950 . S
H1682 C1658 0.950 . S
H1683 C1659 0.949 . S
H1684 C1661 0.950 . S
H1685 C1663 0.950 . S
C1686 C1687 1.349 . S
C1686 C1688 1.327 . S
C1686 H1711 0.950 . S
C1687 C1686 1.349 . S
C1687 C1703 1.349 . S
C1688 C1686 1.327 . S
C1688 C1707 1.429 . S
C1688 H1712 0.950 . S
C1689 C1706 1.574 . S
C1689 C1708 1.368 . S
C1689 H1713 0.949 . S
H1690 C1694 0.949 . S
C1691 C1692 1.349 . S
C1691 C1693 1.327 . S
C1691 H1714 0.950 . S
C1692 C1691 1.349 . S
C1692 C1704 1.349 . S
C1693 C1691 1.327 . S
C1693 C1709 1.429 . S
C1693 H1715 0.950 . S
C1694 H1690 0.949 . S
C1694 C1702 1.574 . S
C1694 C1710 1.368 . S
H1695 C1703 0.950 . S
H1696 C1701 0.950 . S
H1697 C1702 0.949 . S
H1698 C1704 0.950 . S
H1699 C1705 0.950 . S
H1700 C1706 0.949 . S
C1701 H1696 0.950 . S
C1701 C1703 1.327 . S
C1701 C1707 1.429 . S
C1702 C1694 1.574 . S
C1702 H1697 0.949 . S
C1702 C1708 1.368 . S
C1703 C1687 1.349 . S
C1703 H1695 0.950 . S
C1703 C1701 1.327 . S
C1704 C1692 1.349 . S
C1704 H1698 0.950 . S
C1704 C1705 1.327 . S
C1705 H1699 0.950 . S
C1705 C1704 1.327 . S
C1705 C1709 1.429 . S
C1706 C1689 1.574 . S
C1706 H1700 0.949 . S
C1706 C1710 1.368 . S
C1707 C1688 1.429 . S
C1707 C1701 1.429 . S
C1707 C1708 1.523 . S
C1708 C1689 1.368 . S
C1708 C1702 1.368 . S
C1708 C1707 1.523 . S
C1709 C1693 1.429 . S
C1709 C1705 1.429 . S
C1709 C1710 1.523 . S
C1710 C1694 1.368 . S
C1710 C1706 1.368 . S
C1710 C1709 1.523 . S
H1711 C1686 0.950 . S
H1712 C1688 0.950 . S
H1713 C1689 0.949 . S
H1714 C1691 0.950 . S
H1715 C1693 0.950 . S
C1716 C1717 1.349 . S
C1716 C1718 1.327 . S
C1716 H1741 0.950 . S
C1717 C1716 1.349 . S
C1717 C1733 1.349 . S
C1718 C1716 1.327 . S
C1718 C1737 1.429 . S
C1718 H1742 0.950 . S
C1719 C1736 1.574 . S
C1719 C1738 1.368 . S
C1719 H1743 0.949 . S
H1720 C1724 0.949 . S
C1721 C1722 1.349 . S
C1721 C1723 1.327 . S
C1721 H1744 0.950 . S
C1722 C1721 1.349 . S
C1722 C1734 1.349 . S
C1723 C1721 1.327 . S
C1723 C1739 1.429 . S
C1723 H1745 0.950 . S
C1724 H1720 0.949 . S
C1724 C1732 1.574 . S
C1724 C1740 1.368 . S
H1725 C1733 0.950 . S
H1726 C1731 0.950 . S
H1727 C1732 0.949 . S
H1728 C1734 0.950 . S
H1729 C1735 0.950 . S
H1730 C1736 0.949 . S
C1731 H1726 0.950 . S
C1731 C1733 1.327 . S
C1731 C1737 1.429 . S
C1732 C1724 1.574 . S
C1732 H1727 0.949 . S
C1732 C1738 1.368 . S
C1733 C1717 1.349 . S
C1733 H1725 0.950 . S
C1733 C1731 1.327 . S
C1734 C1722 1.349 . S
C1734 H1728 0.950 . S
C1734 C1735 1.327 . S
C1735 H1729 0.950 . S
C1735 C1734 1.327 . S
C1735 C1739 1.429 . S
C1736 C1719 1.574 . S
C1736 H1730 0.949 . S
C1736 C1740 1.368 . S
C1737 C1718 1.429 . S
C1737 C1731 1.429 . S
C1737 C1738 1.523 . S
C1738 C1719 1.368 . S
C1738 C1732 1.368 . S
C1738 C1737 1.523 . S
C1739 C1723 1.429 . S
C1739 C1735 1.429 . S
C1739 C1740 1.523 . S
C1740 C1724 1.368 . S
C1740 C1736 1.368 . S
C1740 C1739 1.523 . S
H1741 C1716 0.950 . S
H1742 C1718 0.950 . S
H1743 C1719 0.949 . S
H1744 C1721 0.950 . S
H1745 C1723 0.950 . S
C1746 C1747 1.349 . S
C1746 C1748 1.327 . S
C1746 H1771 0.950 . S
C1747 C1746 1.349 . S
C1747 C1763 1.349 . S
C1748 C1746 1.327 . S
C1748 C1767 1.429 . S
C1748 H1772 0.950 . S
C1749 C1766 1.574 . S
C1749 C1768 1.368 . S
C1749 H1773 0.949 . S
H1750 C1754 0.949 . S
C1751 C1752 1.349 . S
C1751 C1753 1.327 . S
C1751 H1774 0.950 . S
C1752 C1751 1.349 . S
C1752 C1764 1.349 . S
C1753 C1751 1.327 . S
C1753 C1769 1.429 . S
C1753 H1775 0.950 . S
C1754 H1750 0.949 . S
C1754 C1762 1.574 . S
C1754 C1770 1.368 . S
H1755 C1763 0.950 . S
H1756 C1761 0.950 . S
H1757 C1762 0.949 . S
H1758 C1764 0.950 . S
H1759 C1765 0.950 . S
H1760 C1766 0.949 . S
C1761 H1756 0.950 . S
C1761 C1763 1.327 . S
C1761 C1767 1.429 . S
C1762 C1754 1.574 . S
C1762 H1757 0.949 . S
C1762 C1768 1.368 . S
C1763 C1747 1.349 . S
C1763 H1755 0.950 . S
C1763 C1761 1.327 . S
C1764 C1752 1.349 . S
C1764 H1758 0.950 . S
C1764 C1765 1.327 . S
C1765 H1759 0.950 . S
C1765 C1764 1.327 . S
C1765 C1769 1.429 . S
C1766 C1749 1.574 . S
C1766 H1760 0.949 . S
C1766 C1770 1.368 . S
C1767 C1748 1.429 . S
C1767 C1761 1.429 . S
C1767 C1768 1.523 . S
C1768 C1749 1.368 . S
C1768 C1762 1.368 . S
C1768 C1767 1.523 . S
C1769 C1753 1.429 . S
C1769 C1765 1.429 . S
C1769 C1770 1.523 . S
C1770 C1754 1.368 . S
C1770 C1766 1.368 . S
C1770 C1769 1.523 . S
H1771 C1746 0.950 . S
H1772 C1748 0.950 . S
H1773 C1749 0.949 . S
H1774 C1751 0.950 . S
H1775 C1753 0.950 . S
C1776 C1777 1.349 . S
C1776 C1778 1.327 . S
C1776 H1801 0.950 . S
C1777 C1776 1.349 . S
C1777 C1793 1.349 . S
C1778 C1776 1.327 . S
C1778 C1797 1.429 . S
C1778 H1802 0.950 . S
C1779 C1796 1.574 . S
C1779 C1798 1.368 . S
C1779 H1803 0.949 . S
H1780 C1784 0.949 . S
C1781 C1782 1.349 . S
C1781 C1783 1.327 . S
C1781 H1804 0.950 . S
C1782 C1781 1.349 . S
C1782 C1794 1.349 . S
C1783 C1781 1.327 . S
C1783 C1799 1.429 . S
C1783 H1805 0.950 . S
C1784 H1780 0.949 . S
C1784 C1792 1.574 . S
C1784 C1800 1.368 . S
H1785 C1793 0.950 . S
H1786 C1791 0.950 . S
H1787 C1792 0.949 . S
H1788 C1794 0.950 . S
H1789 C1795 0.950 . S
H1790 C1796 0.949 . S
C1791 H1786 0.950 . S
C1791 C1793 1.327 . S
C1791 C1797 1.429 . S
C1792 C1784 1.574 . S
C1792 H1787 0.949 . S
C1792 C1798 1.368 . S
C1793 C1777 1.349 . S
C1793 H1785 0.950 . S
C1793 C1791 1.327 . S
C1794 C1782 1.349 . S
C1794 H1788 0.950 . S
C1794 C1795 1.327 . S
C1795 H1789 0.950 . S
C1795 C1794 1.327 . S
C1795 C1799 1.429 . S
C1796 C1779 1.574 . S
C1796 H1790 0.949 . S
C1796 C1800 1.368 . S
C1797 C1778 1.429 . S
C1797 C1791 1.429 . S
C1797 C1798 1.523 . S
C1798 C1779 1.368 . S
C1798 C1792 1.368 . S
C1798 C1797 1.523 . S
C1799 C1783 1.429 . S
C1799 C1795 1.429 . S
C1799 C1800 1.523 . S
C1800 C1784 1.368 . S
C1800 C1796 1.368 . S
C1800 C1799 1.523 . S
H1801 C1776 0.950 . S
H1802 C1778 0.950 . S
H1803 C1779 0.949 . S
H1804 C1781 0.950 . S
H1805 C1783 0.950 . S
C1806 C1807 1.349 . S
C1806 C1808 1.327 . S
C1806 H1831 0.950 . S
C1807 C1806 1.349 . S
C1807 C1823 1.349 . S
C1808 C1806 1.327 . S
C1808 C1827 1.429 . S
C1808 H1832 0.950 . S
C1809 C1826 1.574 . S
C1809 C1828 1.368 . S
C1809 H1833 0.949 . S
H1810 C1814 0.949 . S
C1811 C1812 1.349 . S
C1811 C1813 1.327 . S
C1811 H1834 0.950 . S
C1812 C1811 1.349 . S
C1812 C1824 1.349 . S
C1813 C1811 1.327 . S
C1813 C1829 1.429 . S
C1813 H1835 0.950 . S
C1814 H1810 0.949 . S
C1814 C1822 1.574 . S
C1814 C1830 1.368 . S
H1815 C1823 0.950 . S
H1816 C1821 0.950 . S
H1817 C1822 0.949 . S
H1818 C1824 0.950 . S
H1819 C1825 0.950 . S
H1820 C1826 0.949 . S
C1821 H1816 0.950 . S
C1821 C1823 1.327 . S
C1821 C1827 1.429 . S
C1822 C1814 1.574 . S
C1822 H1817 0.949 . S
C1822 C1828 1.368 . S
C1823 C1807 1.349 . S
C1823 H1815 0.950 . S
C1823 C1821 1.327 . S
C1824 C1812 1.349 . S
C1824 H1818 0.950 . S
C1824 C1825 1.327 . S
C1825 H1819 0.950 . S
C1825 C1824 1.327 . S
C1825 C1829 1.429 . S
C1826 C1809 1.574 . S
C1826 H1820 0.949 . S
C1826 C1830 1.368 . S
C1827 C1808 1.429 . S
C1827 C1821 1.429 . S
C1827 C1828 1.523 . S
C1828 C1809 1.368 . S
C1828 C1822 1.368 . S
C1828 C1827 1.523 . S
C1829 C1813 1.429 . S
C1829 C1825 1.429 . S
C1829 C1830 1.523 . S
C1830 C1814 1.368 . S
C1830 C1826 1.368 . S
C1830 C1829 1.523 . S
H1831 C1806 0.950 . S
H1832 C1808 0.950 . S
H1833 C1809 0.949 . S
H1834 C1811 0.950 . S
H1835 C1813 0.950 . S
C1836 C1837 1.349 . S
C1836 C1838 1.327 . S
C1836 H1861 0.950 . S
C1837 C1836 1.349 . S
C1837 C1853 1.349 . S
C1838 C1836 1.327 . S
C1838 C1857 1.429 . S
C1838 H1862 0.950 . S
C1839 C1856 1.574 . S
C1839 C1858 1.368 . S
C1839 H1863 0.949 . S
H1840 C1844 0.949 . S
C1841 C1842 1.349 . S
C1841 C1843 1.327 . S
C1841 H1864 0.950 . S
C1842 C1841 1.349 . S
C1842 C1854 1.349 . S
C1843 C1841 1.327 . S
C1843 C1859 1.429 . S
C1843 H1865 0.950 . S
C1844 H1840 0.949 . S
C1844 C1852 1.574 . S
C1844 C1860 1.368 . S
H1845 C1853 0.950 . S
H1846 C1851 0.950 . S
H1847 C1852 0.949 . S
H1848 C1854 0.950 . S
H1849 C1855 0.950 . S
H1850 C1856 0.949 . S
C1851 H1846 0.950 . S
C1851 C1853 1.327 . S
C1851 C1857 1.429 . S
C1852 C1844 1.574 . S
C1852 H1847 0.949 . S
C1852 C1858 1.368 . S
C1853 C1837 1.349 . S
C1853 H1845 0.950 . S
C1853 C1851 1.327 . S
C1854 C1842 1.349 . S
C1854 H1848 0.950 . S
C1854 C1855 1.327 . S
C1855 H1849 0.950 . S
C1855 C1854 1.327 . S
C1855 C1859 1.429 . S
C1856 C1839 1.574 . S
C1856 H1850 0.949 . S
C1856 C1860 1.368 . S
C1857 C1838 1.429 . S
C1857 C1851 1.429 . S
C1857 C1858 1.523 . S
C1858 C1839 1.368 . S
C1858 C1852 1.368 . S
C1858 C1857 1.523 . S
C1859 C1843 1.429 . S
C1859 C1855 1.429 . S
C1859 C1860 1.523 . S
C1860 C1844 1.368 . S
C1860 C1856 1.368 . S
C1860 C1859 1.523 . S
H1861 C1836 0.950 . S
H1862 C1838 0.950 . S
H1863 C1839 0.949 . S
H1864 C1841 0.950 . S
H1865 C1843 0.950 . S
C1866 C1867 1.349 . S
C1866 C1868 1.327 . S
C1866 H1891 0.950 . S
C1867 C1866 1.349 . S
C1867 C1883 1.349 . S
C1868 C1866 1.327 . S
C1868 C1887 1.429 . S
C1868 H1892 0.950 . S
C1869 C1886 1.574 . S
C1869 C1888 1.368 . S
C1869 H1893 0.949 . S
H1870 C1874 0.949 . S
C1871 C1872 1.349 . S
C1871 C1873 1.327 . S
C1871 H1894 0.950 . S
C1872 C1871 1.349 . S
C1872 C1884 1.349 . S
C1873 C1871 1.327 . S
C1873 C1889 1.429 . S
C1873 H1895 0.950 . S
C1874 H1870 0.949 . S
C1874 C1882 1.574 . S
C1874 C1890 1.368 . S
H1875 C1883 0.950 . S
H1876 C1881 0.950 . S
H1877 C1882 0.949 . S
H1878 C1884 0.950 . S
H1879 C1885 0.950 . S
H1880 C1886 0.949 . S
C1881 H1876 0.950 . S
C1881 C1883 1.327 . S
C1881 C1887 1.429 . S
C1882 C1874 1.574 . S
C1882 H1877 0.949 . S
C1882 C1888 1.368 . S
C1883 C1867 1.349 . S
C1883 H1875 0.950 . S
C1883 C1881 1.327 . S
C1884 C1872 1.349 . S
C1884 H1878 0.950 . S
C1884 C1885 1.327 . S
C1885 H1879 0.950 . S
C1885 C1884 1.327 . S
C1885 C1889 1.429 . S
C1886 C1869 1.574 . S
C1886 H1880 0.949 . S
C1886 C1890 1.368 . S
C1887 C1868 1.429 . S
C1887 C1881 1.429 . S
C1887 C1888 1.523 . S
C1888 C1869 1.368 . S
C1888 C1882 1.368 . S
C1888 C1887 1.523 . S
C1889 C1873 1.429 . S
C1889 C1885 1.429 . S
C1889 C1890 1.523 . S
C1890 C1874 1.368 . S
C1890 C1886 1.368 . S
C1890 C1889 1.523 . S
H1891 C1866 0.950 . S
H1892 C1868 0.950 . S
H1893 C1869 0.949 . S
H1894 C1871 0.950 . S
H1895 C1873 0.950 . S
C1896 C1897 1.349 . S
C1896 C1898 1.327 . S
C1896 H1921 0.950 . S
C1897 C1896 1.349 . S
C1897 C1913 1.349 . S
C1898 C1896 1.327 . S
C1898 C1917 1.429 . S
C1898 H1922 0.950 . S
C1899 C1916 1.574 . S
C1899 C1918 1.368 . S
C1899 H1923 0.949 . S
H1900 C1904 0.949 . S
C1901 C1902 1.349 . S
C1901 C1903 1.327 . S
C1901 H1924 0.950 . S
C1902 C1901 1.349 . S
C1902 C1914 1.349 . S
C1903 C1901 1.327 . S
C1903 C1919 1.429 . S
C1903 H1925 0.950 . S
C1904 H1900 0.949 . S
C1904 C1912 1.574 . S
C1904 C1920 1.368 . S
H1905 C1913 0.950 . S
H1906 C1911 0.950 . S
H1907 C1912 0.949 . S
H1908 C1914 0.950 . S
H1909 C1915 0.950 . S
H1910 C1916 0.949 . S
C1911 H1906 0.950 . S
C1911 C1913 1.327 . S
C1911 C1917 1.429 . S
C1912 C1904 1.574 . S
C1912 H1907 0.949 . S
C1912 C1918 1.368 . S
C1913 C1897 1.349 . S
C1913 H1905 0.950 . S
C1913 C1911 1.327 . S
C1914 C1902 1.349 . S
C1914 H1908 0.950 . S
C1914 C1915 1.327 . S
C1915 H1909 0.950 . S
C1915 C1914 1.327 . S
C1915 C1919 1.429 . S
C1916 C1899 1.574 . S
C1916 H1910 0.949 . S
C1916 C1920 1.368 . S
C1917 C1898 1.429 . S
C1917 C1911 1.429 . S
C1917 C1918 1.523 . S
C1918 C1899 1.368 . S
C1918 C1912 1.368 . S
C1918 C1917 1.523 . S
C1919 C1903 1.429 . S
C1919 C1915 1.429 . S
C1919 C1920 1.523 . S
C1920 C1904 1.368 . S
C1920 C1916 1.368 . S
C1920 C1919 1.523 . S
H1921 C1896 0.950 . S
H1922 C1898 0.950 . S
H1923 C1899 0.949 . S
H1924 C1901 0.950 . S
H1925 C1903 0.950 . S
C1926 C1927 1.349 . S
C1926 C1928 1.327 . S
C1926 H1951 0.950 . S
C1927 C1926 1.349 . S
C1927 C1943 1.349 . S
C1928 C1926 1.327 . S
C1928 C1947 1.429 . S
C1928 H1952 0.950 . S
C1929 C1946 1.574 . S
C1929 C1948 1.368 . S
C1929 H1953 0.949 . S
H1930 C1934 0.949 . S
C1931 C1932 1.349 . S
C1931 C1933 1.327 . S
C1931 H1954 0.950 . S
C1932 C1931 1.349 . S
C1932 C1944 1.349 . S
C1933 C1931 1.327 . S
C1933 C1949 1.429 . S
C1933 H1955 0.950 . S
C1934 H1930 0.949 . S
C1934 C1942 1.574 . S
C1934 C1950 1.368 . S
H1935 C1943 0.950 . S
H1936 C1941 0.950 . S
H1937 C1942 0.949 . S
H1938 C1944 0.950 . S
H1939 C1945 0.950 . S
H1940 C1946 0.949 . S
C1941 H1936 0.950 . S
C1941 C1943 1.327 . S
C1941 C1947 1.429 . S
C1942 C1934 1.574 . S
C1942 H1937 0.949 . S
C1942 C1948 1.368 . S
C1943 C1927 1.349 . S
C1943 H1935 0.950 . S
C1943 C1941 1.327 . S
C1944 C1932 1.349 . S
C1944 H1938 0.950 . S
C1944 C1945 1.327 . S
C1945 H1939 0.950 . S
C1945 C1944 1.327 . S
C1945 C1949 1.429 . S
C1946 C1929 1.574 . S
C1946 H1940 0.949 . S
C1946 C1950 1.368 . S
C1947 C1928 1.429 . S
C1947 C1941 1.429 . S
C1947 C1948 1.523 . S
C1948 C1929 1.368 . S
C1948 C1942 1.368 . S
C1948 C1947 1.523 . S
C1949 C1933 1.429 . S
C1949 C1945 1.429 . S
C1949 C1950 1.523 1_455 S
C1950 C1934 1.368 . S
C1950 C1946 1.368 . S
C1950 C1949 1.523 1_655 S
H1951 C1926 0.950 . S
H1952 C1928 0.950 . S
H1953 C1929 0.949 . S
H1954 C1931 0.950 . S
H1955 C1933 0.950 . S
C1956 C1957 1.349 1_545 S
C1956 C1958 1.327 . S
C1956 H1981 0.950 . S
C1957 C1956 1.349 1_565 S
C1957 C1973 1.349 . S
C1958 C1956 1.327 . S
C1958 C1977 1.429 . S
C1958 H1982 0.950 . S
C1959 C1976 1.574 . S
C1959 C1978 1.368 . S
C1959 H1983 0.949 . S
H1960 C1964 0.949 . S
C1961 C1962 1.349 . S
C1961 C1963 1.327 . S
C1961 H1984 0.950 . S
C1962 C1961 1.349 . S
C1962 C1974 1.349 . S
C1963 C1961 1.327 . S
C1963 C1979 1.429 . S
C1963 H1985 0.950 . S
C1964 H1960 0.949 . S
C1964 C1972 1.574 . S
C1964 C1980 1.368 . S
H1965 C1973 0.950 . S
H1966 C1971 0.950 . S
H1967 C1972 0.949 . S
H1968 C1974 0.950 . S
H1969 C1975 0.950 . S
H1970 C1976 0.949 . S
C1971 H1966 0.950 . S
C1971 C1973 1.327 1_545 S
C1971 C1977 1.429 . S
C1972 C1964 1.574 . S
C1972 H1967 0.949 . S
C1972 C1978 1.368 . S
C1973 C1957 1.349 . S
C1973 H1965 0.950 . S
C1973 C1971 1.327 1_565 S
C1974 C1962 1.349 . S
C1974 H1968 0.950 . S
C1974 C1975 1.327 . S
C1975 H1969 0.950 . S
C1975 C1974 1.327 . S
C1975 C1979 1.429 . S
C1976 C1959 1.574 . S
C1976 H1970 0.949 . S
C1976 C1980 1.368 . S
C1977 C1958 1.429 . S
C1977 C1971 1.429 . S
C1977 C1978 1.523 . S
C1978 C1959 1.368 . S
C1978 C1972 1.368 . S
C1978 C1977 1.523 . S
C1979 C1963 1.429 . S
C1979 C1975 1.429 . S
C1979 C1980 1.523 . S
C1980 C1964 1.368 . S
C1980 C1976 1.368 . S
C1980 C1979 1.523 . S
H1981 C1956 0.950 . S
H1982 C1958 0.950 . S
H1983 C1959 0.949 . S
H1984 C1961 0.950 . S
H1985 C1963 0.950 . S
C1986 C1987 1.349 . S
C1986 C1988 1.327 1_565 S
C1986 H2011 0.950 . S
C1987 C1986 1.349 . S
C1987 C2003 1.349 . S
C1988 C1986 1.327 1_545 S
C1988 C2007 1.429 . S
C1988 H2012 0.950 . S
C1989 C2006 1.574 . S
C1989 C2008 1.368 . S
C1989 H2013 0.949 . S
H1990 C1994 0.949 . S
C1991 C1992 1.349 . S
C1991 C1993 1.327 . S
C1991 H2014 0.950 . S
C1992 C1991 1.349 . S
C1992 C2004 1.349 . S
C1993 C1991 1.327 . S
C1993 C2009 1.429 1_455 S
C1993 H2015 0.950 . S
C1994 H1990 0.949 . S
C1994 C2002 1.574 . S
C1994 C2010 1.368 . S
H1995 C2003 0.950 . S
H1996 C2001 0.950 . S
H1997 C2002 0.949 . S
H1998 C2004 0.950 . S
H1999 C2005 0.950 . S
H2000 C2006 0.949 . S
C2001 H1996 0.950 . S
C2001 C2003 1.327 . S
C2001 C2007 1.429 1_565 S
C2002 C1994 1.574 . S
C2002 H1997 0.949 . S
C2002 C2008 1.368 . S
C2003 C1987 1.349 . S
C2003 H1995 0.950 . S
C2003 C2001 1.327 . S
C2004 C1992 1.349 . S
C2004 H1998 0.950 . S
C2004 C2005 1.327 1_455 S
C2005 H1999 0.950 . S
C2005 C2004 1.327 1_655 S
C2005 C2009 1.429 . S
C2006 C1989 1.574 . S
C2006 H2000 0.949 . S
C2006 C2010 1.368 . S
C2007 C1988 1.429 . S
C2007 C2001 1.429 1_545 S
C2007 C2008 1.523 . S
C2008 C1989 1.368 . S
C2008 C2002 1.368 . S
C2008 C2007 1.523 . S
C2009 C1993 1.429 1_655 S
C2009 C2005 1.429 . S
C2009 C2010 1.523 . S
C2010 C1994 1.368 . S
C2010 C2006 1.368 . S
C2010 C2009 1.523 . S
H2011 C1986 0.950 . S
H2012 C1988 0.950 . S
H2013 C1989 0.949 . S
H2014 C1991 0.950 . S
H2015 C1993 0.950 . S
C2016 C2017 1.349 . S
C2016 C2018 1.327 . S
C2016 H2041 0.950 . S
C2017 C2016 1.349 . S
C2017 C2033 1.349 . S
C2018 C2016 1.327 . S
C2018 C2037 1.429 . S
C2018 H2042 0.950 . S
C2019 C2036 1.574 . S
C2019 C2038 1.368 . S
C2019 H2043 0.949 . S
H2020 C2024 0.949 . S
C2021 C2022 1.349 . S
C2021 C2023 1.327 . S
C2021 H2044 0.950 . S
C2022 C2021 1.349 . S
C2022 C2034 1.349 . S
C2023 C2021 1.327 . S
C2023 C2039 1.429 . S
C2023 H2045 0.950 . S
C2024 H2020 0.949 . S
C2024 C2032 1.574 . S
C2024 C2040 1.368 . S
H2025 C2033 0.950 . S
H2026 C2031 0.950 . S
H2027 C2032 0.949 . S
H2028 C2034 0.950 . S
H2029 C2035 0.950 . S
H2030 C2036 0.949 . S
C2031 H2026 0.950 . S
C2031 C2033 1.327 . S
C2031 C2037 1.429 . S
C2032 C2024 1.574 . S
C2032 H2027 0.949 . S
C2032 C2038 1.368 . S
C2033 C2017 1.349 . S
C2033 H2025 0.950 . S
C2033 C2031 1.327 . S
C2034 C2022 1.349 . S
C2034 H2028 0.950 . S
C2034 C2035 1.327 . S
C2035 H2029 0.950 . S
C2035 C2034 1.327 . S
C2035 C2039 1.429 . S
C2036 C2019 1.574 . S
C2036 H2030 0.949 . S
C2036 C2040 1.368 . S
C2037 C2018 1.429 . S
C2037 C2031 1.429 . S
C2037 C2038 1.523 . S
C2038 C2019 1.368 . S
C2038 C2032 1.368 . S
C2038 C2037 1.523 . S
C2039 C2023 1.429 . S
C2039 C2035 1.429 . S
C2039 C2040 1.523 1_545 S
C2040 C2024 1.368 . S
C2040 C2036 1.368 . S
C2040 C2039 1.523 1_565 S
H2041 C2016 0.950 . S
H2042 C2018 0.950 . S
H2043 C2019 0.949 . S
H2044 C2021 0.950 . S
H2045 C2023 0.950 . S
C2046 C2047 1.349 . S
C2046 C2048 1.327 . S
C2046 H2071 0.950 . S
C2047 C2046 1.349 . S
C2047 C2063 1.349 . S
C2048 C2046 1.327 . S
C2048 C2067 1.429 1_545 S
C2048 H2072 0.950 . S
C2049 C2066 1.574 . S
C2049 C2068 1.368 . S
C2049 H2073 0.949 . S
H2050 C2054 0.949 . S
C2051 C2052 1.349 . S
C2051 C2053 1.327 1_655 S
C2051 H2074 0.950 . S
C2052 C2051 1.349 . S
C2052 C2064 1.349 . S
C2053 C2051 1.327 1_455 S
C2053 C2069 1.429 . S
C2053 H2075 0.950 . S
C2054 H2050 0.949 . S
C2054 C2062 1.574 . S
C2054 C2070 1.368 . S
H2055 C2063 0.950 . S
H2056 C2061 0.950 . S
H2057 C2062 0.949 . S
H2058 C2064 0.950 . S
H2059 C2065 0.954 1_455 S
H2060 C2066 0.949 . S
C2061 H2056 0.950 . S
C2061 C2063 1.327 1_565 S
C2061 C2067 1.429 . S
C2062 C2054 1.574 . S
C2062 H2057 0.949 . S
C2062 C2068 1.368 . S
C2063 C2047 1.349 . S
C2063 H2055 0.950 . S
C2063 C2061 1.327 1_545 S
C2064 C2052 1.349 . S
C2064 H2058 0.950 . S
C2064 C2065 1.327 . S
C2065 H2059 0.954 1_655 S
C2065 C2064 1.327 . S
C2065 C2069 1.429 1_655 S
C2066 C2049 1.574 . S
C2066 H2060 0.949 . S
C2066 C2070 1.368 . S
C2067 C2048 1.429 1_565 S
C2067 C2061 1.429 . S
C2067 C2068 1.523 . S
C2068 C2049 1.368 . S
C2068 C2062 1.368 . S
C2068 C2067 1.523 . S
C2069 C2053 1.429 . S
C2069 C2065 1.429 1_455 S
C2069 C2070 1.523 . S
C2070 C2054 1.368 . S
C2070 C2066 1.368 . S
C2070 C2069 1.523 . S
H2071 C2046 0.950 . S
H2072 C2048 0.950 . S
H2073 C2049 0.949 . S
H2074 C2051 0.950 . S
H2075 C2053 0.950 . S
C2076 C2077 1.349 . S
C2076 C2078 1.327 . S
C2076 H2101 0.950 . S
C2077 C2076 1.349 . S
C2077 C2093 1.349 . S
C2078 C2076 1.327 . S
C2078 C2097 1.429 . S
C2078 H2102 0.950 . S
C2079 C2096 1.574 . S
C2079 C2098 1.368 . S
C2079 H2103 0.949 . S
H2080 C2084 0.949 . S
C2081 C2082 1.349 . S
C2081 C2083 1.327 1_655 S
C2081 H2104 0.950 . S
C2082 C2081 1.349 . S
C2082 C2094 1.349 1_655 S
C2083 C2081 1.327 1_455 S
C2083 C2099 1.429 . S
C2083 H2105 0.950 . S
C2084 H2080 0.949 . S
C2084 C2092 1.574 . S
C2084 C2100 1.368 . S
H2085 C2093 0.950 . S
H2086 C2091 0.950 . S
H2087 C2092 0.949 . S
H2088 C2094 0.950 . S
H2089 C2095 0.950 . S
H2090 C2096 0.949 . S
C2091 H2086 0.950 . S
C2091 C2093 1.327 . S
C2091 C2097 1.429 . S
C2092 C2084 1.574 . S
C2092 H2087 0.949 . S
C2092 C2098 1.368 . S
C2093 C2077 1.349 . S
C2093 H2085 0.950 . S
C2093 C2091 1.327 . S
C2094 C2082 1.349 1_455 S
C2094 H2088 0.950 . S
C2094 C2095 1.327 . S
C2095 H2089 0.950 . S
C2095 C2094 1.327 . S
C2095 C2099 1.429 . S
C2096 C2079 1.574 . S
C2096 H2090 0.949 . S
C2096 C2100 1.368 . S
C2097 C2078 1.429 . S
C2097 C2091 1.429 . S
C2097 C2098 1.523 . S
C2098 C2079 1.368 . S
C2098 C2092 1.368 . S
C2098 C2097 1.523 . S
C2099 C2083 1.429 . S
C2099 C2095 1.429 . S
C2099 C2100 1.523 . S
C2100 C2084 1.368 . S
C2100 C2096 1.368 . S
C2100 C2099 1.523 . S
H2101 C2076 0.950 . S
H2102 C2078 0.950 . S
H2103 C2079 0.949 . S
H2104 C2081 0.950 . S
H2105 C2083 0.950 . S
C2106 C2107 1.349 . S
C2106 C2108 1.327 . S
C2106 H2131 0.950 . S
C2107 C2106 1.349 . S
C2107 C2123 1.349 . S
C2108 C2106 1.327 . S
C2108 C2127 1.429 . S
C2108 H2132 0.950 . S
C2109 C2126 1.574 . S
C2109 C2128 1.368 . S
C2109 H2133 0.949 . S
H2110 C2114 0.949 . S
C2111 C2112 1.349 . S
C2111 C2113 1.327 . S
C2111 H2134 0.950 . S
C2112 C2111 1.349 . S
C2112 C2124 1.349 . S
C2113 C2111 1.327 . S
C2113 C2129 1.429 . S
C2113 H2135 0.950 . S
C2114 H2110 0.949 . S
C2114 C2122 1.574 . S
C2114 C2130 1.368 . S
H2115 C2123 0.950 . S
H2116 C2121 0.950 . S
H2117 C2122 0.949 . S
H2118 C2124 0.950 . S
H2119 C2125 0.950 . S
H2120 C2126 0.949 . S
C2121 H2116 0.950 . S
C2121 C2123 1.327 . S
C2121 C2127 1.429 . S
C2122 C2114 1.574 . S
C2122 H2117 0.949 . S
C2122 C2128 1.368 . S
C2123 C2107 1.349 . S
C2123 H2115 0.950 . S
C2123 C2121 1.327 . S
C2124 C2112 1.349 . S
C2124 H2118 0.950 . S
C2124 C2125 1.327 . S
C2125 H2119 0.950 . S
C2125 C2124 1.327 . S
C2125 C2129 1.429 . S
C2126 C2109 1.574 . S
C2126 H2120 0.949 . S
C2126 C2130 1.368 . S
C2127 C2108 1.429 . S
C2127 C2121 1.429 . S
C2127 C2128 1.523 . S
C2128 C2109 1.368 . S
C2128 C2122 1.368 . S
C2128 C2127 1.523 . S
C2129 C2113 1.429 . S
C2129 C2125 1.429 . S
C2129 C2130 1.523 . S
C2130 C2114 1.368 . S
C2130 C2126 1.368 . S
C2130 C2129 1.523 . S
H2131 C2106 0.950 . S
H2132 C2108 0.950 . S
H2133 C2109 0.949 . S
H2134 C2111 0.950 . S
H2135 C2113 0.950 . S
C2136 C2137 1.349 . S
C2136 C2138 1.327 . S
C2136 H2161 0.950 . S
C2137 C2136 1.349 . S
C2137 C2153 1.349 . S
C2138 C2136 1.327 . S
C2138 C2157 1.429 . S
C2138 H2162 0.950 . S
C2139 C2156 1.574 . S
C2139 C2158 1.368 . S
C2139 H2163 0.949 . S
H2140 C2144 0.949 . S
C2141 C2142 1.349 . S
C2141 C2143 1.327 . S
C2141 H2164 0.950 . S
C2142 C2141 1.349 . S
C2142 C2154 1.349 . S
C2143 C2141 1.327 . S
C2143 C2159 1.429 . S
C2143 H2165 0.950 . S
C2144 H2140 0.949 . S
C2144 C2152 1.574 . S
C2144 C2160 1.368 . S
H2145 C2153 0.950 . S
H2146 C2151 0.950 . S
H2147 C2152 0.949 . S
H2148 C2154 0.950 . S
H2149 C2155 0.950 . S
H2150 C2156 0.949 . S
C2151 H2146 0.950 . S
C2151 C2153 1.327 . S
C2151 C2157 1.429 . S
C2152 C2144 1.574 . S
C2152 H2147 0.949 . S
C2152 C2158 1.368 . S
C2153 C2137 1.349 . S
C2153 H2145 0.950 . S
C2153 C2151 1.327 . S
C2154 C2142 1.349 . S
C2154 H2148 0.950 . S
C2154 C2155 1.327 . S
C2155 H2149 0.950 . S
C2155 C2154 1.327 . S
C2155 C2159 1.429 . S
C2156 C2139 1.574 . S
C2156 H2150 0.949 . S
C2156 C2160 1.368 . S
C2157 C2138 1.429 . S
C2157 C2151 1.429 . S
C2157 C2158 1.523 . S
C2158 C2139 1.368 . S
C2158 C2152 1.368 . S
C2158 C2157 1.523 . S
C2159 C2143 1.429 . S
C2159 C2155 1.429 . S
C2159 C2160 1.523 . S
C2160 C2144 1.368 . S
C2160 C2156 1.368 . S
C2160 C2159 1.523 . S
H2161 C2136 0.950 . S
H2162 C2138 0.950 . S
H2163 C2139 0.949 . S
H2164 C2141 0.950 . S
H2165 C2143 0.950 . S
C2166 C2167 1.349 . S
C2166 C2168 1.327 . S
C2166 H2191 0.950 . S
C2167 C2166 1.349 . S
C2167 C2183 1.349 . S
C2168 C2166 1.327 . S
C2168 C2187 1.429 . S
C2168 H2192 0.950 . S
C2169 C2186 1.574 . S
C2169 C2188 1.368 . S
C2169 H2193 0.949 . S
H2170 C2174 0.949 . S
C2171 C2172 1.349 . S
C2171 C2173 1.327 . S
C2171 H2194 0.950 . S
C2172 C2171 1.349 . S
C2172 C2184 1.349 . S
C2173 C2171 1.327 . S
C2173 C2189 1.429 . S
C2173 H2195 0.950 . S
C2174 H2170 0.949 . S
C2174 C2182 1.574 . S
C2174 C2190 1.368 . S
H2175 C2183 0.950 . S
H2176 C2181 0.950 . S
H2177 C2182 0.949 . S
H2178 C2184 0.950 . S
H2179 C2185 0.950 . S
H2180 C2186 0.949 . S
C2181 H2176 0.950 . S
C2181 C2183 1.327 . S
C2181 C2187 1.429 . S
C2182 C2174 1.574 . S
C2182 H2177 0.949 . S
C2182 C2188 1.368 . S
C2183 C2167 1.349 . S
C2183 H2175 0.950 . S
C2183 C2181 1.327 . S
C2184 C2172 1.349 . S
C2184 H2178 0.950 . S
C2184 C2185 1.327 . S
C2185 H2179 0.950 . S
C2185 C2184 1.327 . S
C2185 C2189 1.429 . S
C2186 C2169 1.574 . S
C2186 H2180 0.949 . S
C2186 C2190 1.368 . S
C2187 C2168 1.429 . S
C2187 C2181 1.429 . S
C2187 C2188 1.523 . S
C2188 C2169 1.368 . S
C2188 C2182 1.368 . S
C2188 C2187 1.523 . S
C2189 C2173 1.429 . S
C2189 C2185 1.429 . S
C2189 C2190 1.523 . S
C2190 C2174 1.368 . S
C2190 C2186 1.368 . S
C2190 C2189 1.523 . S
H2191 C2166 0.950 . S
H2192 C2168 0.950 . S
H2193 C2169 0.949 . S
H2194 C2171 0.950 . S
H2195 C2173 0.950 . S
C577 C29 0.643 . S
C582 C66 0.646 . S
C607 C6 0.647 . S
C612 C61 0.643 . S
C637 C38 0.647 . S
C642 C68 0.643 . S
C667 C100 0.643 . S
C672 C130 0.646 . S
C697 C166 0.647 . S
C702 C132 0.643 . S
C727 C189 0.643 . S
C732 C98 0.647 . S
C757 C262 0.646 . S
C762 C196 0.643 . S
C787 C194 0.647 . S
C792 C253 0.643 . S
C817 C285 0.643 . S
C822 C230 0.647 . S
C847 C322 0.647 . S
C852 C292 0.643 . S
C877 C324 0.643 . S
C882 C358 0.647 . S
C907 C290 0.647 . S
C912 C381 0.643 . S
C937 C413 0.643 . S
C942 C450 0.647 . S
C967 C390 0.647 . S
C972 C445 0.643 . S
C997 C422 0.647 . S
C1002 C452 0.643 . S
C1027 C514 0.646 . S
C1032 C509 0.643 . S
C1057 C550 0.647 . S
C1062 C516 0.643 . S
C1087 C486 0.647 . S
C1092 C573 0.643 . S
C1117 N18 1.565 . S
C1122 N178 1.565 . S
C1147 N109 1.565 . S
C1152 N50 1.565 . S
C1177 N141 1.565 . S
C1182 N77 1.565 . S
C1207 N205 1.565 . S
C1212 N370 1.565 . S
C1237 N242 1.565 . S
C1242 N301 1.565 . S
C1267 N333 1.565 . S
C1272 N274 1.565 . S
C1297 N402 1.565 . S
C1302 N562 1.565 . S
C1327 N498 1.565 . S
C1332 N434 1.565 . S
C1357 N525 1.565 . S
C1362 N461 1.565 . S
C1387 N338 1.670 . S
C1392 N13 1.670 . S
C1417 N45 1.670 . S
C1422 N365 1.670 . S
C1447 N306 1.670 . S
C1452 N82 1.670 . S
C1477 N114 1.670 . S
C1482 N466 1.670 . S
C1507 N146 1.670 . S
C1512 N397 1.670 . S
C1537 N429 1.670 . S
C1542 N173 1.670 . S
C1567 N530 1.670 . S
C1572 N210 1.670 . S
C1597 N237 1.670 . S
C1602 N557 1.670 . S
C1627 N269 1.670 . S
C1632 N493 1.670 . S
C1657 C93 1.373 . S
C1662 C2 1.364 . S
C1687 C4 1.373 . S
C1692 C34 1.364 . S
C1717 C70 1.363 . S
C1722 C36 1.373 . S
C1747 C157 1.373 . S
C1752 C102 1.364 . S
C1777 C164 1.373 . S
C1782 C134 1.363 . S
C1807 C162 1.364 . S
C1812 C125 1.373 . S
C1837 C260 1.373 . S
C1842 C198 1.364 . S
C1867 C226 1.363 . S
C1872 C221 1.373 . S
C1897 C228 1.373 . S
C1902 C258 1.363 . S
C1927 C294 1.363 . S
C1932 C349 1.373 . S
C1957 C326 1.363 . S
C1962 C356 1.373 . S
C1987 C317 1.373 . S
C1992 C354 1.364 . S
C2017 C386 1.363 . S
C2022 C477 1.373 . S
C2047 C418 1.364 . S
C2052 C388 1.373 . S
C2077 C420 1.373 . S
C2082 C454 1.363 . S
C2107 C482 1.364 . S
C2112 C541 1.373 . S
C2137 C518 1.363 . S
C2142 C548 1.373 . S
C2167 C484 1.373 . S
C2172 C546 1.363 . S
