# Generated by pormake.
# Topology rkf, (6)-cn, num edge types: 1
# Building blocks:
#     Node 0, Type 0, BuildingBlock: CUWYAW_clean_sbu_0, # of connection points: 6
#     Node 1, Type 0, BuildingBlock: CUWYAW_clean_sbu_0, # of connection points: 6
#     Node 2, Type 0, BuildingBlock: CUWYAW_clean_sbu_0, # of connection points: 6
#     Node 3, Type 0, BuildingBlock: CUWYAW_clean_sbu_0, # of connection points: 6
#     Node 4, Type 0, BuildingBlock: CUWYAW_clean_sbu_0, # of connection points: 6
#     Node 5, Type 0, BuildingBlock: CUWYAW_clean_sbu_0, # of connection points: 6
#     Edge 6, Type (0, 0), BuildingBlock: UVAHIK_clean_linker_0, # of connection points: 2
#     Edge 7, Type (0, 0), BuildingBlock: UVAHIK_clean_linker_0, # of connection points: 2
#     Edge 8, Type (0, 0), BuildingBlock: UVAHIK_clean_linker_0, # of connection points: 2
#     Edge 9, Type (0, 0), BuildingBlock: UVAHIK_clean_linker_0, # of connection points: 2
#     Edge 10, Type (0, 0), BuildingBlock: UVAHIK_clean_linker_0, # of connection points: 2
#     Edge 11, Type (0, 0), BuildingBlock: UVAHIK_clean_linker_0, # of connection points: 2
#     Edge 12, Type (0, 0), BuildingBlock: UVAHIK_clean_linker_0, # of connection points: 2
#     Edge 13, Type (0, 0), BuildingBlock: UVAHIK_clean_linker_0, # of connection points: 2
#     Edge 14, Type (0, 0), BuildingBlock: UVAHIK_clean_linker_0, # of connection points: 2
#     Edge 15, Type (0, 0), BuildingBlock: UVAHIK_clean_linker_0, # of connection points: 2
#     Edge 16, Type (0, 0), BuildingBlock: UVAHIK_clean_linker_0, # of connection points: 2
#     Edge 17, Type (0, 0), BuildingBlock: UVAHIK_clean_linker_0, # of connection points: 2
#     Edge 18, Type (0, 0), BuildingBlock: UVAHIK_clean_linker_0, # of connection points: 2
#     Edge 19, Type (0, 0), BuildingBlock: UVAHIK_clean_linker_0, # of connection points: 2
#     Edge 20, Type (0, 0), BuildingBlock: UVAHIK_clean_linker_0, # of connection points: 2
#     Edge 21, Type (0, 0), BuildingBlock: UVAHIK_clean_linker_0, # of connection points: 2
#     Edge 22, Type (0, 0), BuildingBlock: UVAHIK_clean_linker_0, # of connection points: 2
#     Edge 23, Type (0, 0), BuildingBlock: UVAHIK_clean_linker_0, # of connection points: 2
# Relax obj value: 0.567
# Max RMSD: 0.261
# Mean RMSD: 0.261
data_MOF--net-rkf--node1-CUWYAW_clean_sbu_0--edge1-UVAHIK_clean_linker_0
_symmetry_space_group_name_H-M    P1
_symmetry_Int_Tables_number       1
_symmetry_cell_setting            triclinic
loop_
_symmetry_equiv_pos_as_xyz
'x, y, z'
_cell_length_a     31.259655
_cell_length_b     31.279676
_cell_length_c     58.449955
_cell_angle_alpha  89.89147
_cell_angle_beta   90.101575
_cell_angle_gamma 120.07907
loop_
_atom_site_label
_atom_site_type_symbol
_atom_site_fract_x
_atom_site_fract_y
_atom_site_fract_z
_atom_type_partial_charge
C0 C 0.41794 0.36087 0.10072 0.0
Eu1 Eu 0.38825 0.26783 0.10782 0.0
C2 C 0.42708 0.39536 1.08188 0.0
C3 C 0.4408 0.38757 1.06014 0.0
C4 C 0.44893 0.42077 1.04241 0.0
C5 C 0.44303 0.46194 1.04611 0.0
C6 C 0.4296 0.46971 1.06798 0.0
C7 C 0.42184 0.43669 1.08574 0.0
C8 C 0.44848 0.23219 0.11833 0.0
C9 C 0.3624 0.18935 1.06628 0.0
C10 C 0.31057 0.07129 0.12842 0.0
Eu11 Eu 0.33457 0.16281 0.12129 0.0
C12 C 0.30987 0.03985 0.14722 0.0
C13 C 0.30006 0.04785 0.1697 0.0
C14 C 0.29599 0.01543 0.18709 0.0
C15 C 0.30223 0.97472 0.18238 0.0
C16 C 0.31401 0.96809 0.15994 0.0
C17 C 0.31768 0.00038 0.1425 0.0
C18 C 0.27448 0.1965 0.10509 0.0
C19 C 0.34909 0.23756 0.16183 0.0
O20 O 0.37176 0.3276 0.10458 0.0
O21 O 0.44782 0.3431 0.1023 0.0
O22 O 0.45633 0.26278 0.10173 0.0
O23 O 0.41007 0.22302 0.12947 0.0
O24 O 0.37441 0.23565 1.07122 0.0
O25 O 0.35091 0.15693 1.0832 0.0
O26 O 0.35421 0.10501 0.12119 0.0
O27 O 0.27922 0.08735 0.12979 0.0
O28 O 0.26336 0.16613 0.12221 0.0
O29 O 0.31616 0.20664 0.09787 0.0
O30 O 0.33975 0.19221 0.15739 0.0
O31 O 0.36413 0.27084 0.14508 0.0
H32 H 0.4447 0.35562 1.05682 0.0
H33 H 0.45833 0.41338 1.02561 0.0
H34 H 0.42486 0.50115 1.07128 0.0
H35 H 0.41134 0.4432 0.10247 0.0
H36 H 0.29427 0.07838 0.17372 0.0
H37 H 0.28605 0.02131 0.20406 0.0
H38 H 0.31971 0.9376 0.15578 0.0
H39 H 0.32574 -0.00598 0.12523 0.0
C40 C 0.19106 0.44299 0.43672 0.0
Eu41 Eu 0.24491 0.40145 0.44188 0.0
C42 C 0.1657 0.45375 0.41853 0.0
C43 C 0.14052 0.47902 0.42374 0.0
C44 C 0.11519 0.48859 0.40661 0.0
C45 C 0.11492 0.47308 0.38404 0.0
C46 C 0.14082 0.44817 0.37894 0.0
C47 C 0.16605 0.43862 0.39605 0.0
C48 C 0.34253 0.45276 0.4513 0.0
C49 C 0.28736 0.36833 0.39872 0.0
C50 C 0.344 0.30237 0.45776 0.0
Eu51 Eu 0.28456 0.33765 0.45335 0.0
C52 C 0.37793 0.30063 0.47446 0.0
C53 C 0.38451 0.32248 0.49604 0.0
C54 C 0.41575 0.31877 0.51205 0.0
C55 C 0.44075 0.29316 0.50663 0.0
C56 C 0.43516 0.27281 0.48465 0.0
C57 C 0.40393 0.27654 0.4687 0.0
C58 C 0.18865 0.28665 0.43798 0.0
C59 C 0.23354 0.35961 0.49558 0.0
O60 O 0.17282 0.39632 0.44188 0.0
O61 O 0.2393 0.46711 0.43575 0.0
O62 O 0.32135 0.46346 0.43501 0.0
O63 O 0.31108 0.41573 0.46269 0.0
O64 O 0.25706 0.38493 0.40455 0.0
O65 O 0.30603 0.35307 0.41512 0.0
O66 O 0.35739 0.34589 0.44915 0.0
O67 O 0.29692 0.27727 0.46278 0.0
O68 O 0.20595 0.27193 0.45454 0.0
O69 O 0.22314 0.3268 0.43071 0.0
O70 O 0.26469 0.34426 0.49016 0.0
O71 O 0.21879 0.37953 0.47949 0.0
H72 H 0.14015 0.49101 0.44108 0.0
H73 H 0.09577 0.50798 0.41102 0.0
H74 H 0.14048 0.4348 0.36182 0.0
H75 H 0.18527 0.41891 0.39183 0.0
H76 H 0.36476 0.34146 0.50064 0.0
H77 H 0.41877 0.33425 0.52893 0.0
H78 H 0.45431 0.25332 0.47993 0.0
H79 H 0.39951 0.25994 0.45197 0.0
C80 C 0.87612 0.19774 0.77199 0.0
Eu81 Eu 0.97112 0.25609 0.7769 0.0
C82 C 0.83996 0.17093 0.75401 0.0
C83 C 0.78943 0.14684 0.7592 0.0
C84 C 0.75435 0.12075 0.74225 0.0
C85 C 0.76949 0.1186 0.71987 0.0
C86 C 0.8204 0.14324 0.71479 0.0
C87 C 0.85536 0.16928 0.73173 0.0
C88 C 0.01303 0.35345 0.78603 0.0
C89 C 0.04646 0.30078 0.73348 0.0
C90 C 0.16963 0.3679 0.79331 0.0
Eu91 Eu 0.07644 0.30265 0.78833 0.0
C92 C 0.2019 0.40337 0.81056 0.0
C93 C 0.18921 0.39613 0.83379 0.0
C94 C 0.22124 0.42944 0.85006 0.0
C95 C 0.26628 0.47083 0.84335 0.0
C96 C 0.27787 0.47873 0.81992 0.0
C97 C 0.24592 0.44517 0.80367 0.0
C98 C 0.0364 0.20674 0.77385 0.0
C99 C 0.00364 0.24921 0.83077 0.0
O100 O 0.90677 0.18204 0.77694 0.0
O101 O 0.89783 0.24587 0.77101 0.0
O102 O 0.98103 0.33102 0.7699 0.0
O103 O 0.0206 0.32336 0.79736 0.0
O104 O 0.00012 0.26845 0.7396 0.0
O105 O 0.08059 0.32213 0.74973 0.0
O106 O 0.13762 0.37769 0.7838 0.0
O107 O 0.15086 0.321 0.79825 0.0
O108 O 0.06917 0.22643 0.79004 0.0
O109 O 0.02791 0.23922 0.76634 0.0
O110 O 0.0494 0.28305 0.82523 0.0
O111 O 0.96897 0.23112 0.8146 0.0
H112 H 0.77712 0.14807 0.77638 0.0
H113 H 0.71548 0.10239 0.74663 0.0
H114 H 0.83332 0.14148 0.69783 0.0
H115 H 0.89435 0.18773 0.72752 0.0
H116 H 0.15504 0.36424 0.83937 0.0
H117 H 0.21144 0.42171 0.86796 0.0
H118 H 0.31189 0.51051 0.81416 0.0
H119 H 0.25584 0.45155 0.78573 0.0
C120 C 0.76978 0.90841 0.10295 0.0
Eu121 Eu 0.82622 -0.00028 0.11595 0.0
C122 C 0.75939 0.87619 1.08316 0.0
C123 C 0.72829 0.82516 1.08583 0.0
C124 C 0.72073 0.79321 1.06767 0.0
C125 C 0.74438 0.81195 1.04659 0.0
C126 C 0.77461 0.86344 1.04388 0.0
C127 C 0.78195 0.89533 1.06203 0.0
C128 C 0.7893 0.05478 0.13372 0.0
C129 C 0.87912 0.08072 1.07282 0.0
C130 C 0.9457 0.19518 0.14121 0.0
Eu131 Eu 0.90285 0.10453 0.12663 0.0
C132 C 0.9388 0.22238 0.16015 0.0
C133 C 0.96072 0.22623 0.18159 0.0
C134 C 0.95397 0.25208 0.19932 0.0
C135 C 0.92524 0.27471 0.19599 0.0
C136 C 0.9036 0.27113 0.17451 0.0
C137 C 0.91041 0.24536 0.15675 0.0
C138 C 0.94071 0.04951 0.11053 0.0
C139 C 0.86561 0.02333 0.16869 0.0
O140 O 0.81315 0.92491 0.11245 0.0
O141 O 0.75692 0.94216 0.10139 0.0
O142 O 0.7738 0.00919 0.13915 0.0
O143 O 0.82295 0.06893 0.11887 0.0
O144 O 0.85094 0.03365 1.0793 0.0
O145 O 0.90025 0.1159 1.08839 0.0
O146 O 0.91081 0.17738 0.12571 0.0
O147 O 0.96162 0.16467 0.14629 0.0
O148 O 0.96124 0.0968 0.10719 0.0
O149 O 0.90472 0.03484 0.1239 0.0
O150 O 0.88478 0.07058 0.16289 0.0
O151 O 0.84428 0.98843 0.15285 0.0
H152 H 0.71057 0.80996 0.10211 0.0
H153 H 0.69692 0.75385 1.07021 0.0
H154 H 0.79404 0.87906 1.02799 0.0
H155 H 0.80604 0.93471 1.05973 0.0
H156 H 0.98329 0.2095 0.18468 0.0
H157 H 0.97208 0.25511 0.21554 0.0
H158 H 0.88116 0.28801 0.17145 0.0
H159 H 0.89335 0.24343 0.14035 0.0
C160 C -0.00777 0.79021 0.43342 0.0
Eu161 Eu 0.95237 0.84043 0.44886 0.0
C162 C 0.01055 0.78078 0.41211 0.0
C163 C 0.02793 0.74732 0.41215 0.0
C164 C 0.04813 0.7398 0.39231 0.0
C165 C 0.05156 0.766 0.37217 0.0
C166 C 0.03291 0.79874 0.37217 0.0
C167 C 0.01227 0.80578 0.39194 0.0
C168 C 0.85995 0.79694 0.46687 0.0
C169 C 0.91847 0.89227 0.40761 0.0
C170 C 0.86424 0.94688 0.47788 0.0
Eu171 Eu 0.91739 0.91108 0.46193 0.0
C172 C 0.82983 0.93739 0.49702 0.0
C173 C 0.84737 0.95514 0.5191 0.0
C174 C 0.81424 0.94684 0.53683 0.0
C175 C 0.76289 0.92059 0.53289 0.0
C176 C 0.74539 0.90262 0.51082 0.0
C177 C 0.77853 0.91108 0.49307 0.0
C178 C 0.01075 0.95619 0.4456 0.0
C179 C 0.96702 0.87569 0.50216 0.0
O180 O 0.01775 0.83497 0.44168 0.0
O181 O 0.94453 0.77243 0.43475 0.0
O182 O 0.89209 0.78363 0.47159 0.0
O183 O 0.87776 0.83197 0.45262 0.0
O184 O 0.93895 0.86506 0.41309 0.0
O185 O 0.90368 0.91137 0.42382 0.0
O186 O 0.84874 0.91233 0.46229 0.0
O187 O 0.91138 0.96591 0.48258 0.0
O188 O 0.98146 0.97417 0.4434 0.0
O189 O -0.00872 0.91846 0.45812 0.0
O190 O 0.93616 0.89212 0.49735 0.0
O191 O 0.98247 0.85757 0.48561 0.0
H192 H 0.02647 0.72747 0.42762 0.0
H193 H 0.06141 0.71381 0.39283 0.0
H194 H 0.03559 0.82016 0.35712 0.0
H195 H -0.0015 0.83134 0.39158 0.0
H196 H 0.88665 0.97591 0.52267 0.0
H197 H 0.82901 0.96217 0.55352 0.0
H198 H 0.7061 0.88209 0.50726 0.0
H199 H 0.76393 0.89721 0.47616 0.0
C200 C 0.3352 0.00321 0.7651 0.0
Eu201 Eu 0.24484 0.96384 0.78021 0.0
C202 C 0.36434 0.02646 0.74455 0.0
C203 C 0.41572 0.0563 0.74653 0.0
C204 C 0.44416 0.0814 0.72748 0.0
C205 C 0.42151 0.07685 0.70615 0.0
C206 C 0.36995 0.04608 0.70416 0.0
C207 C 0.34152 0.02114 0.72326 0.0
C208 C 0.19439 0.87224 0.79906 0.0
C209 C 0.15934 0.92867 0.73886 0.0
C210 C 0.04962 0.88171 0.80838 0.0
Eu211 Eu 0.1394 0.93125 0.79274 0.0
C212 C 0.0223 0.85051 0.82811 0.0
C213 C 0.02299 0.87125 0.84947 0.0
C214 C -0.00546 0.84116 0.8675 0.0
C215 C 0.96489 0.78972 0.86457 0.0
C216 C 0.96504 0.76896 0.84332 0.0
C217 C -0.0067 0.79907 0.82526 0.0
C218 C 0.18948 0.02287 0.77444 0.0
C219 C 0.22388 0.98111 0.83302 0.0
O220 O 0.31791 0.02816 0.77565 0.0
O221 O 0.30314 0.95592 0.76395 0.0
O222 O 0.24027 0.90376 0.80347 0.0
O223 O 0.17779 0.89007 0.78453 0.0
O224 O 0.2072 0.95075 0.74436 0.0
O225 O 0.12534 0.9134 0.75504 0.0
O226 O 0.06896 0.86318 0.79454 0.0
O227 O 0.07835 0.92932 0.81168 0.0
O228 O 0.14217 -0.00611 0.77206 0.0
O229 O 0.20685 0.00441 0.78805 0.0
O230 O 0.17642 0.95089 0.82824 0.0
O231 O 0.25765 -0.0049 0.81662 0.0
H232 H 0.43376 0.06078 0.76292 0.0
H233 H 0.48378 0.10464 0.72946 0.0
H234 H 0.35141 0.04252 0.68801 0.0
H235 H 0.30178 -0.00152 0.72151 0.0
H236 H 0.04469 0.91077 0.85218 0.0
H237 H -0.00546 0.8585 0.88352 0.0
H238 H 0.94293 0.72949 0.84056 0.0
H239 H -0.00808 0.78212 0.80892 0.0
C240 C 0.00196 0.02578 0.10014 0.0
C241 C 0.9542 0.01805 0.09748 0.0
C242 C 0.02496 0.01682 1.0819 0.0
C243 C 0.03627 0.07371 1.03443 0.0
H244 H 0.15533 0.06608 1.04042 0.0
C245 C 0.24852 0.19988 1.06506 0.0
C246 C 0.23635 0.1911 1.08851 0.0
C247 C 0.21171 0.17872 1.04836 0.0
C248 C 0.1225 0.06878 1.03755 0.0
H249 H 0.88914 0.98456 1.07594 0.0
H250 H 0.93178 0.97659 1.04277 0.0
H251 H 0.07539 -0.00912 1.04162 0.0
H252 H 0.1761 0.16076 0.11282 0.0
H253 H 0.11149 0.12664 1.08362 0.0
H254 H 0.08306 0.15232 1.03574 0.0
C255 C 0.95089 0.98739 1.05905 0.0
C256 C 0.07651 0.0254 1.03796 0.0
C257 C 0.92692 -0.00662 1.0779 0.0
C258 C 0.18656 0.16769 0.09495 0.0
C259 C 0.1497 0.14826 1.07823 0.0
C260 C 0.08206 0.11722 1.03493 0.0
C261 C 0.00161 0.00383 1.06033 0.0
C262 C 0.03367 0.02881 1.04044 0.0
C263 C 0.16223 0.15095 1.05493 0.0
C264 C 0.12478 0.11469 1.0393 0.0
H265 H 0.02352 0.04423 0.11523 0.0
H266 H 0.06397 0.02912 1.08362 0.0
H267 H 0.00344 0.07712 1.03508 0.0
H268 H 0.2866 0.21885 1.05948 0.0
H269 H 0.22206 0.18098 1.03053 0.0
C270 C 0.09179 0.02274 0.43307 0.0
C271 C 0.0551 0.9731 0.43148 0.0
C272 C 0.11982 0.04721 0.4139 0.0
C273 C 0.06598 0.05228 0.36824 0.0
H274 H 0.18996 0.17559 0.36947 0.0
C275 C 0.15534 0.26459 0.3983 0.0
C276 C 0.15234 0.25104 0.42155 0.0
C277 C 0.13651 0.22849 0.38125 0.0
C278 C 0.15492 0.14148 0.36792 0.0
H279 H 0.02672 0.90749 0.41064 0.0
H280 H 0.0695 0.95173 0.37595 0.0
H281 H 0.19009 0.09819 0.37097 0.0
H282 H 0.11931 0.1898 0.44532 0.0
H283 H 0.08367 0.12674 0.41564 0.0
H284 H 0.03068 0.0957 0.37071 0.0
C285 C 0.07838 0.97144 0.39206 0.0
C286 C 0.15511 0.09691 0.36852 0.0
C287 C 0.05284 0.94636 0.41181 0.0
C288 C 0.12271 0.20127 0.4276 0.0
C289 C 0.10218 0.16526 0.41056 0.0
C290 C 0.06563 0.09676 0.36861 0.0
C291 C 0.10868 0.02296 0.39257 0.0
C292 C 0.1106 0.05288 0.37262 0.0
C293 C 0.1121 0.17853 0.38732 0.0
C294 C 0.11028 0.14123 0.37138 0.0
H295 H 0.09456 0.04406 0.44817 0.0
H296 H 0.14337 0.08696 0.41494 0.0
H297 H 0.03088 0.01837 0.37026 0.0
H298 H 0.17685 0.30282 0.39306 0.0
H299 H 0.14479 0.23949 0.36349 0.0
C300 C 0.20893 0.1066 0.76395 0.0
C301 C 0.21797 0.06763 0.76066 0.0
C302 C 0.21296 0.13684 0.74559 0.0
C303 C 0.14791 0.0865 0.70045 0.0
H304 H 0.15229 0.21173 0.70562 0.0
C305 C 0.02343 0.17101 0.73467 0.0
C306 C 0.03723 0.17094 0.75768 0.0
C307 C 0.04159 0.15375 0.71735 0.0
C308 C 0.15033 0.17649 0.70298 0.0
H309 H 0.2494 0.03692 0.73739 0.0
H310 H 0.24876 0.08428 0.70443 0.0
H311 H 0.22893 0.20981 0.70472 0.0
H312 H 0.07249 0.14422 0.78098 0.0
H313 H 0.1012 0.11073 0.75087 0.0
H314 H 0.06943 0.05265 0.70419 0.0
C315 C 0.24053 0.09304 0.72119 0.0
C316 C 0.1945 0.17551 0.70221 0.0
C317 C 0.23943 0.06485 0.74001 0.0
C318 C 0.06185 0.14537 0.76344 0.0
C319 C 0.07819 0.12622 0.74619 0.0
C320 C 0.10377 0.08728 0.70217 0.0
C321 C 0.22248 0.12578 0.72345 0.0
C322 C 0.19298 0.13015 0.7048 0.0
C323 C 0.07114 0.13348 0.72301 0.0
C324 C 0.10545 0.13218 0.70624 0.0
H325 H 0.19285 0.10981 0.77981 0.0
H326 H 0.19945 0.16237 0.74801 0.0
H327 H 0.14578 0.05085 0.70136 0.0
H328 H 0.00309 0.18911 0.72973 0.0
H329 H 0.03589 0.15979 0.69962 0.0
C330 C 0.48551 0.50959 1.01072 0.0
C331 C 0.44707 0.49422 1.02671 0.0
C332 C 0.48465 0.533 0.9905 0.0
C333 C 0.41439 0.58231 0.95865 0.0
H334 H 0.42851 0.50956 0.90847 0.0
C335 C 0.28643 0.51351 0.88144 0.0
C336 C 0.30254 0.50287 0.86092 0.0
C337 C 0.31903 0.53495 0.89976 0.0
C338 C 0.42563 0.53154 0.92202 0.0
H339 H 0.37946 0.49419 1.03489 0.0
H340 H 0.37719 0.53377 0.9995 0.0
H341 H 0.46086 0.50718 0.94564 0.0
H342 H 0.36679 0.51099 0.8428 0.0
H343 H 0.42385 0.5497 0.8745 0.0
H344 H 0.37609 0.6039 0.93505 0.0
C345 C 0.40862 0.52887 1.00263 0.0
C346 C 0.44432 0.53017 0.94348 0.0
C347 C 0.40972 0.50586 1.02291 0.0
C348 C 0.35302 0.51854 0.85836 0.0
C349 C 0.38572 0.54037 0.87662 0.0
C350 C 0.3956 0.58366 0.93709 0.0
C351 C 0.44502 0.54093 0.98578 0.0
C352 C 0.43686 0.55357 0.96229 0.0
C353 C 0.36855 0.54652 0.89787 0.0
C354 C 0.39901 0.55635 0.91882 0.0
H355 H 0.51525 0.50185 1.01347 0.0
H356 H 0.51375 0.54269 0.97805 0.0
H357 H 0.40896 0.60156 0.97272 0.0
H358 H 0.24801 0.503 0.88377 0.0
H359 H 0.30439 0.53897 0.91587 0.0
C360 C 0.10375 0.49162 0.34361 0.0
C361 C 0.0854 0.47974 0.366 0.0
C362 C 0.0727 0.48759 0.32561 0.0
C363 C 0.00227 0.47436 0.28819 0.0
H364 H 0.88533 0.34541 0.29497 0.0
C365 C 0.92416 0.3497 0.21053 0.0
C366 C 0.91961 0.30332 0.21475 0.0
C367 C 0.92599 0.37958 0.22871 0.0
C368 C 0.91757 0.38168 0.29275 0.0
H369 H 0.02162 0.45986 0.38751 0.0
H370 H 0.96758 0.45415 0.3561 0.0
H371 H 0.92906 0.39128 0.32872 0.0
H372 H 0.90856 0.24991 0.2411 0.0
H373 H 0.91385 0.30224 0.27266 0.0
H374 H -0.00578 0.46194 0.2522 0.0
C375 C 0.00567 0.46526 0.35234 0.0
C376 C 0.9424 0.40852 0.31219 0.0
C377 C 0.03677 0.46892 0.37038 0.0
C378 C 0.91322 0.28593 0.23733 0.0
C379 C 0.91533 0.31576 0.25545 0.0
C380 C 0.97801 0.44705 0.26874 0.0
C381 C 0.02254 0.47193 0.3296 0.0
C382 C -0.01282 0.45351 0.31009 0.0
C383 C 0.92352 0.3637 0.25144 0.0
C384 C 0.93754 0.39881 0.27089 0.0
H385 H 0.14145 0.50128 0.33979 0.0
H386 H 0.08731 0.49283 0.30841 0.0
H387 H 0.03559 0.5098 0.28597 0.0
H388 H 0.92905 0.3641 0.19328 0.0
H389 H 0.93165 0.41599 0.22499 0.0
C390 C 0.7399 0.10633 0.67939 0.0
C391 C 0.73292 0.08894 0.70199 0.0
C392 C 0.71148 0.07519 0.66172 0.0
C393 C 0.64967 0.00517 0.62513 0.0
H394 H 0.65289 0.88366 0.63226 0.0
C395 C 0.68812 0.92213 0.54748 0.0
C396 C 0.72824 0.91462 0.55156 0.0
C397 C 0.66078 0.92491 0.56573 0.0
C398 C 0.65136 0.91723 0.62994 0.0
H399 H 0.68717 0.02685 0.72414 0.0
H400 H 0.63647 0.97268 0.69327 0.0
H401 H 0.65581 0.93018 0.66585 0.0
H402 H 0.76759 0.8987 0.57767 0.0
H403 H 0.72211 0.90593 0.60938 0.0
H404 H 0.65162 -0.00448 0.58917 0.0
C405 C 0.66482 0.01007 0.68913 0.0
C406 C 0.65226 0.9437 0.64931 0.0
C407 C 0.69365 0.04125 0.70685 0.0
C408 C 0.73771 0.90578 0.57402 0.0
C409 C 0.7108 0.90901 0.59223 0.0
C410 C 0.64992 0.97929 0.60576 0.0
C411 C 0.67502 0.0259 0.66623 0.0
C412 C 0.65527 -0.01008 0.64703 0.0
C413 C 0.67332 0.9207 0.58842 0.0
C414 C 0.65458 0.937 0.60798 0.0
H415 H 0.76911 0.14333 0.6752 0.0
H416 H 0.72097 0.08893 0.64438 0.0
H417 H 0.64991 0.03965 0.62281 0.0
H418 H 0.67971 0.9289 0.53033 0.0
H419 H 0.63159 0.93303 0.56212 0.0
C420 C 0.73844 0.79042 1.00506 0.0
C421 C 0.74068 0.77816 1.02796 0.0
C422 C 0.74401 0.76378 0.98739 0.0
C423 C 0.75393 0.70203 0.95113 0.0
H424 H 0.86964 0.69093 0.964 0.0
C425 C 0.88243 0.72217 0.87836 0.0
C426 C 0.93146 0.75872 0.88318 0.0
C427 C 0.84855 0.69907 0.8961 0.0
C428 C 0.83707 0.6934 0.9601 0.0
H429 H 0.74604 0.72549 1.05028 0.0
H430 H 0.75441 0.67807 1.01936 0.0
H431 H 0.82296 0.69786 0.99541 0.0
H432 H -0.01535 0.79581 0.91035 0.0
H433 H 0.92559 0.75762 0.94111 0.0
H434 H 0.77127 0.70326 0.91582 0.0
C435 C 0.74945 0.70901 1.01507 0.0
C436 C 0.80974 0.69668 0.97817 0.0
C437 C 0.74422 0.73597 1.03279 0.0
C438 C 0.94685 0.76867 0.90608 0.0
C439 C 0.91298 0.74597 0.92376 0.0
C440 C 0.78173 0.69959 0.93306 0.0
C441 C 0.75158 0.72393 0.9922 0.0
C442 C 0.76976 0.70428 0.97383 0.0
C443 C 0.86293 0.71238 0.91898 0.0
C444 C 0.82547 0.69851 0.93738 0.0
H445 H 0.7347 0.8221 1.00079 0.0
H446 H 0.74588 0.77682 0.97005 0.0
H447 H 0.72236 0.70626 0.94723 0.0
H448 H 0.86934 0.71355 0.86088 0.0
H449 H 0.81051 0.67274 0.89181 0.0
C450 C 0.06051 0.76452 0.3296 0.0
C451 C 0.07704 0.76172 0.35161 0.0
C452 C 0.08865 0.76847 0.3104 0.0
C453 C 0.219 0.81588 0.29589 0.0
H454 H 0.16279 0.78816 0.23494 0.0
C455 C 0.30506 0.95246 0.22335 0.0
C456 C 0.29251 0.93758 0.2005 0.0
C457 C 0.28746 0.91769 0.24096 0.0
C458 C 0.17974 0.79535 0.2517 0.0
H459 H 0.13431 0.75678 0.37049 0.0
H460 H 0.18224 0.76142 0.33689 0.0
H461 H 0.11079 0.74493 0.26734 0.0
H462 H 0.2557 0.87388 0.1781 0.0
H463 H 0.22703 0.81311 0.20874 0.0
H464 H 0.28803 0.86608 0.28025 0.0
C465 C 0.14825 0.76215 0.33452 0.0
C466 C 0.1495 0.77103 0.27041 0.0
C467 C 0.12038 0.75889 0.3538 0.0
C468 C 0.26601 0.88676 0.19551 0.0
C469 C 0.24898 0.85185 0.21314 0.0
C470 C 0.24948 0.83943 0.27715 0.0
C471 C 0.13375 0.76897 0.31266 0.0
C472 C 0.16804 0.78336 0.29282 0.0
C473 C 0.25748 0.86701 0.23615 0.0
C474 C 0.22953 0.83186 0.25496 0.0
H475 H 0.02668 0.76557 0.32723 0.0
H476 H 0.07626 0.77412 0.29396 0.0
H477 H 0.23492 0.8263 0.31284 0.0
H478 H 0.32653 -0.00876 0.22776 0.0
H479 H 0.29471 0.93116 0.25839 0.0
C480 C 0.44227 0.08497 0.66447 0.0
C481 C 0.45092 0.10631 0.68631 0.0
C482 C 0.46527 0.1142 0.64532 0.0
C483 C 0.52704 0.18297 0.60705 0.0
H484 H 0.49876 0.29025 0.60528 0.0
C485 C 0.46152 0.23585 0.52714 0.0
C486 C 0.46851 0.28358 0.52454 0.0
C487 C 0.48093 0.22417 0.54604 0.0
C488 C 0.5085 0.26156 0.60551 0.0
H489 H 0.49248 0.17438 0.70546 0.0
H490 H 0.53266 0.22554 0.67192 0.0
H491 H 0.49425 0.24997 0.64134 0.0
H492 H 0.50496 0.35764 0.53859 0.0
H493 H 0.53924 0.33726 0.57172 0.0
H494 H 0.53884 0.19308 0.57092 0.0
C495 C 0.50805 0.18623 0.66964 0.0
C496 C 0.50581 0.23832 0.62627 0.0
C497 C 0.48523 0.15691 0.68882 0.0
C498 C 0.49826 0.32031 0.5404 0.0
C499 C 0.51794 0.30866 0.55931 0.0
C500 C 0.53009 0.20647 0.58627 0.0
C501 C 0.49716 0.1654 0.64764 0.0
C502 C 0.51266 0.19727 0.62704 0.0
C503 C 0.50791 0.25997 0.56278 0.0
C504 C 0.51832 0.24434 0.5851 0.0
H505 H 0.41646 0.04593 0.66211 0.0
H506 H 0.45569 0.09714 0.62858 0.0
H507 H 0.53335 0.15193 0.60727 0.0
H508 H 0.43833 0.20657 0.51537 0.0
H509 H 0.4717 0.18611 0.54829 0.0
C510 C 0.47347 0.18 0.14148 0.0
C511 C 0.48383 0.21559 0.12442 0.0
C512 C 0.50748 0.16426 0.14632 0.0
C513 C 0.63979 0.20162 0.13937 0.0
H514 H 0.59378 0.06144 0.14263 0.0
C515 C 0.76973 0.12212 0.12612 0.0
C516 C 0.75968 0.07893 0.13792 0.0
C517 C 0.73775 0.14114 0.12799 0.0
C518 C 0.60735 0.10079 0.1422 0.0
H519 H 0.53785 0.26277 0.0992 0.0
H520 H 0.5967 0.23578 0.10765 0.0
H521 H 0.53392 0.08954 0.13991 0.0
H522 H 0.71003 0.02347 0.16198 0.0
H523 H 0.65484 0.05709 0.16562 0.0
H524 H 0.71318 0.21301 0.14138 0.0
C525 C 0.56278 0.22018 0.11747 0.0
C526 C 0.57291 0.11686 0.14062 0.0
C527 C 0.52881 0.23541 0.11251 0.0
C528 C 0.71846 0.05657 0.1525 0.0
C529 C 0.6866 0.07565 0.15444 0.0
C530 C 0.6742 0.18561 0.14106 0.0
C531 C 0.55263 0.18437 0.13437 0.0
C532 C 0.58875 0.16742 0.13872 0.0
C533 C 0.69514 0.11753 0.14181 0.0
C534 C 0.65851 0.13492 0.14206 0.0
H535 H 0.43904 0.16405 0.1509 0.0
H536 H 0.49863 0.13665 0.15948 0.0
H537 H 0.6532 0.24091 0.13831 0.0
H538 H 0.80127 0.14018 0.11478 0.0
H539 H 0.74541 0.17321 0.11785 0.0
C540 C 0.41925 0.47422 0.47442 0.0
C541 C 0.39466 0.48666 0.45785 0.0
C542 C 0.46909 0.50747 0.47974 0.0
C543 C 0.56387 0.64036 0.47596 0.0
H544 H 0.65977 0.59645 0.47491 0.0
C545 C 0.7717 0.77478 0.46096 0.0
C546 C 0.80641 0.76505 0.4714 0.0
C547 C 0.72098 0.74149 0.46325 0.0
C548 C 0.6335 0.60936 0.4757 0.0
H549 H 0.40291 0.54347 0.43393 0.0
H550 H 0.48855 0.60082 0.44328 0.0
H551 H 0.5717 0.53579 0.47234 0.0
H552 H 0.81527 0.71415 0.49338 0.0
H553 H 0.72686 0.65649 0.49772 0.0
H554 H 0.62529 0.71385 0.47899 0.0
C555 C 0.46975 0.56591 0.45234 0.0
C556 C 0.58296 0.57447 0.47422 0.0
C557 C 0.42061 0.53275 0.44687 0.0
C558 C 0.78936 0.72245 0.48498 0.0
C559 C 0.73867 0.6892 0.48732 0.0
C560 C 0.61425 0.67516 0.47756 0.0
C561 C 0.4947 0.55387 0.46882 0.0
C562 C 0.54766 0.58971 0.47374 0.0
C563 C 0.70376 0.69776 0.47613 0.0
C564 C 0.64988 0.66029 0.47689 0.0
H565 H 0.40019 0.43882 0.48306 0.0
H566 H 0.48744 0.49714 0.4925 0.0
H567 H 0.53751 0.65323 0.47601 0.0
H568 H 0.78372 0.80729 0.45037 0.0
H569 H 0.69537 0.7492 0.45417 0.0
C570 C 0.01127 0.43142 0.78084 0.0
C571 C 0.03154 0.4058 0.79197 0.0
C572 C 0.02789 0.48086 0.78585 0.0
C573 C 0.1344 0.59413 0.80685 0.0
H574 H 0.03908 0.63863 0.8116 0.0
C575 C 0.19666 0.80109 0.81746 0.0
C576 C 0.17176 0.81874 0.80382 0.0
C577 C 0.17822 0.75028 0.8199 0.0
C578 C 0.06625 0.62696 0.81017 0.0
H579 H 0.08563 0.41202 0.81696 0.0
H580 H 0.11554 0.49954 0.82558 0.0
H581 H 0.01034 0.55058 0.80876 0.0
H582 H 0.10702 0.79711 0.78274 0.0
H583 H 0.07508 0.70861 0.78669 0.0
H584 H 0.19031 0.67055 0.80745 0.0
C585 C 0.08638 0.48088 0.81306 0.0
C586 C 0.04975 0.57644 0.80862 0.0
C587 C 0.06921 0.43086 0.80821 0.0
C588 C 0.127 0.7846 0.7934 0.0
C589 C 0.1086 0.7338 0.79577 0.0
C590 C 0.15094 0.64478 0.80828 0.0
C591 C 0.06561 0.50629 0.80198 0.0
C592 C 0.08358 0.55947 0.80646 0.0
C593 C 0.13444 0.71593 0.80871 0.0
C594 C 0.11703 0.66192 0.80949 0.0
H595 H 0.98235 0.41324 0.76817 0.0
H596 H 0.01174 0.4995 0.7767 0.0
H597 H 0.16136 0.58228 0.80501 0.0
H598 H 0.2311 0.82658 0.82583 0.0
H599 H 0.19862 0.73793 0.83033 0.0
C600 C 0.35313 0.29995 0.19147 0.0
C601 C 0.34253 0.25161 0.18602 0.0
C602 C 0.34683 0.31296 0.21392 0.0
C603 C 0.32903 0.26899 0.27593 0.0
H604 H 0.29619 0.37173 0.28535 0.0
C605 C 0.32819 0.34241 0.36824 0.0
C606 C 0.29515 0.3592 0.37386 0.0
C607 C 0.33357 0.33024 0.34555 0.0
C608 C 0.30497 0.34262 0.28327 0.0
H609 H 0.31628 0.17916 0.20086 0.0
H610 H 0.30476 0.20124 0.23947 0.0
H611 H 0.30491 0.3484 0.2466 0.0
H612 H 0.24168 0.37586 0.359 0.0
H613 H 0.25067 0.35454 0.31963 0.0
H614 H 0.32791 0.26226 0.31252 0.0
C615 C 0.31888 0.22981 0.22652 0.0
C616 C 0.31072 0.3295 0.26073 0.0
C617 C 0.32524 0.21684 0.20407 0.0
C618 C 0.26797 0.36372 0.35562 0.0
C619 C 0.27329 0.3514 0.33281 0.0
C620 C 0.32331 0.2821 0.29844 0.0
C621 C 0.32955 0.27825 0.23207 0.0
C622 C 0.323 0.29238 0.25645 0.0
C623 C 0.306 0.33394 0.32722 0.0
C624 C 0.31133 0.3194 0.30274 0.0
H625 H 0.36661 0.32816 0.17832 0.0
H626 H 0.35639 0.35081 0.21705 0.0
H627 H 0.33897 0.24069 0.27394 0.0
H628 H 0.35004 0.33825 0.38152 0.0
H629 H 0.35999 0.31816 0.34244 0.0
C630 C 0.21884 0.32273 0.53609 0.0
C631 C 0.21423 0.35408 0.52004 0.0
C632 C 0.1998 0.31668 0.55864 0.0
C633 C 0.16042 0.37691 0.60343 0.0
H634 H 0.0947 0.24774 0.63209 0.0
C635 C 0.10851 0.34873 0.70166 0.0
C636 C 0.06271 0.30814 0.70848 0.0
C637 C 0.12564 0.35442 0.67881 0.0
C638 C 0.11275 0.2842 0.62445 0.0
H639 H 0.18558 0.40399 0.51612 0.0
H640 H 0.15387 0.39456 0.55523 0.0
H641 H 0.12696 0.25734 0.59305 0.0
H642 H -0.0003 0.24124 0.69565 0.0
H643 H 0.02987 0.25045 0.65615 0.0
H644 H 0.14695 0.40392 0.63493 0.0
C645 C 0.17202 0.3742 0.55036 0.0
C646 C 0.13181 0.28984 0.60192 0.0
C647 C 0.1902 0.37951 0.52769 0.0
C648 C 0.03486 0.27331 0.69134 0.0
C649 C 0.05252 0.27844 0.66854 0.0
C650 C 0.14227 0.37144 0.62611 0.0
C651 C 0.17609 0.34242 0.56637 0.0
C652 C 0.15592 0.33631 0.59081 0.0
C653 C 0.09835 0.31919 0.66171 0.0
C654 C 0.11779 0.32493 0.63716 0.0
H655 H 0.23682 0.30224 0.53116 0.0
H656 H 0.20438 0.29216 0.57019 0.0
H657 H 0.17884 0.41346 0.59589 0.0
H658 H 0.13155 0.37637 0.71412 0.0
H659 H 0.16118 0.38613 0.67466 0.0
C660 C 0.94165 0.19684 0.86219 0.0
C661 C -0.00937 0.23101 0.85551 0.0
C662 C 0.92954 0.1798 0.8851 0.0
C663 C 0.98093 0.20664 0.9463 0.0
H664 H 0.86709 0.07851 0.95914 0.0
C665 C 0.91443 0.14579 1.04107 0.0
C666 C 0.8895 0.09545 1.04757 0.0
C667 C 0.92612 0.16085 1.01797 0.0
C668 C 0.89939 0.1143 0.95615 0.0
H669 H 0.06519 0.27317 0.86878 0.0
H670 H 0.04475 0.24332 0.90808 0.0
H671 H 0.8887 0.10624 0.91969 0.0
H672 H 0.85813 0.02166 1.03366 0.0
H673 H 0.87883 0.04754 0.99362 0.0
H674 H -0.00741 0.2142 0.98263 0.0
C675 C 0.01491 0.23004 0.89578 0.0
C676 C 0.9116 0.13081 0.93314 0.0
C677 C 0.02696 0.2472 0.87288 0.0
C678 C 0.87678 0.06073 1.02969 0.0
C679 C 0.88873 0.07586 1.00646 0.0
C680 C 0.9688 0.19011 0.96926 0.0
C681 C 0.96582 0.19588 0.90259 0.0
C682 C 0.95266 0.17757 0.92754 0.0
C683 C 0.91393 0.12646 0.99996 0.0
C684 C 0.92752 0.14359 0.97489 0.0
H685 H 0.91218 0.18321 0.84965 0.0
H686 H 0.89115 0.15436 0.88908 0.0
H687 H 0.01248 0.24299 0.94343 0.0
H688 H 0.92506 0.17419 1.05396 0.0
H689 H 0.94439 0.20001 1.01433 0.0
C690 C 0.89518 0.04582 0.21025 0.0
C691 C 0.8701 0.00947 0.1933 0.0
C692 C 0.9009 0.03311 0.2329 0.0
C693 C 0.89101 0.9268 0.26936 0.0
H694 H 0.89966 0.01114 0.31963 0.0
C695 C 0.93335 0.89065 0.36425 0.0
C696 C 0.91308 0.90373 0.3827 0.0
C697 C 0.92901 0.90318 0.34129 0.0
C698 C 0.8969 0.98652 0.306 0.0
H699 H 0.83124 0.93034 0.18785 0.0
H700 H 0.84027 0.90826 0.22695 0.0
H701 H 0.88885 0.03213 0.28083 0.0
H702 H 0.87203 0.94083 0.39055 0.0
H703 H 0.86383 0.96149 0.35133 0.0
H704 H 0.89789 0.88056 0.29471 0.0
C705 C 0.85648 0.94703 0.22277 0.0
C706 C 0.89134 -0.00084 0.28333 0.0
C707 C 0.85082 0.95978 0.20011 0.0
C708 C 0.88837 0.92982 0.37715 0.0
C709 C 0.884 0.94225 0.35432 0.0
C710 C 0.8966 0.91414 0.29207 0.0
C711 C 0.88179 0.98336 0.23979 0.0
C712 C 0.8881 0.96962 0.26437 0.0
C713 C 0.90429 0.92947 0.33574 0.0
C714 C 0.89945 0.94354 0.31103 0.0
H715 H 0.91105 0.08455 0.20598 0.0
H716 H 0.92133 0.06282 0.24491 0.0
H717 H 0.88949 0.90291 0.25564 0.0
H718 H 0.95316 0.8711 0.36752 0.0
H719 H 0.94596 0.89287 0.32791 0.0
C720 C 0.97359 0.90232 0.54406 0.0
C721 C -0.01352 0.87994 0.52648 0.0
C722 C -0.00696 0.90802 0.56647 0.0
C723 C 0.09474 0.90397 0.60107 0.0
H724 H 0.01683 0.90321 0.65261 0.0
C725 C 0.175 0.9458 0.69559 0.0
C726 C 0.14222 0.9226 0.71404 0.0
C727 C 0.15744 0.94137 0.67277 0.0
C728 C 0.03936 0.90312 0.6386 0.0
H729 H 0.03073 0.84588 0.51957 0.0
H730 H 0.06362 0.8548 0.55831 0.0
H731 H -0.01644 0.89246 0.61414 0.0
H732 H 0.06448 0.87586 0.72207 0.0
H733 H 0.03457 0.86742 0.68307 0.0
H734 H 0.15007 0.91342 0.62573 0.0
C735 C 0.03898 0.86892 0.55481 0.0
C736 C 0.02027 0.8976 0.61615 0.0
C737 C 0.01956 0.86331 0.53237 0.0
C738 C 0.09138 0.89461 0.70865 0.0
C739 C 0.07393 0.89009 0.68598 0.0
C740 C 0.11388 0.90948 0.62358 0.0
C741 C 0.02632 0.89154 0.57245 0.0
C742 C 0.04735 0.89776 0.59677 0.0
C743 C 0.10634 0.91358 0.66742 0.0
C744 C 0.08655 0.90893 0.64295 0.0
H745 H 0.94868 0.91612 0.54048 0.0
H746 H 0.98245 0.92638 0.57901 0.0
H747 H 0.1177 0.90514 0.58697 0.0
H748 H 0.21431 0.96818 0.69879 0.0
H749 H 0.18414 0.96075 0.65937 0.0
C750 C 0.20435 0.98778 0.87496 0.0
C751 C 0.23923 0.00164 0.8571 0.0
C752 C 0.21833 0.00831 0.89715 0.0
C753 C 0.321 0.11578 0.92983 0.0
H754 H 0.25341 0.0365 0.98294 0.0
C755 C 0.35602 0.20044 1.02305 0.0
C756 C 0.35319 0.17052 1.04177 0.0
C757 C 0.34322 0.18095 1.00058 0.0
C758 C 0.27323 0.05944 0.96844 0.0
H759 H 0.31698 0.04882 0.84938 0.0
H760 H 0.34125 0.08399 0.8877 0.0
H761 H 0.23009 0.00066 0.94485 0.0
H762 H 0.3347 0.09588 1.0507 0.0
H763 H 0.31336 0.06258 1.01213 0.0
H764 H 0.36464 0.17436 0.95353 0.0
C765 C 0.30268 0.05751 0.88459 0.0
C766 C 0.25923 0.03881 0.94629 0.0
C767 C 0.28872 0.03682 0.86243 0.0
C768 C 0.33762 0.12056 1.03701 0.0
C769 C 0.32474 0.10111 1.01465 0.0
C770 C 0.33485 0.13651 0.95201 0.0
C771 C 0.26782 0.04386 0.90249 0.0
C772 C 0.28285 0.06638 0.92643 0.0
C773 C 0.32678 0.13063 0.9959 0.0
C774 C 0.31146 0.10877 0.97187 0.0
H775 H 0.16582 0.96117 0.87179 0.0
H776 H 0.1898 -0.00317 0.91003 0.0
H777 H 0.34007 0.13898 0.91528 0.0
H778 H 0.36721 0.23888 1.0258 0.0
H779 H 0.34506 0.20528 0.98695 0.0
loop_
_geom_bond_atom_site_label_1
_geom_bond_atom_site_label_2
_geom_bond_distance
_geom_bond_site_symmetry_2
_ccdc_geom_bond_type
C0 Eu1 2.835 1_556 S
C0 C2 1.500 . S
C0 O20 1.257 . S
C0 O21 1.260 . S
Eu1 C0 2.835 1_554 S
Eu1 O20 2.473 1_554 S
Eu1 O21 2.480 1_554 S
Eu1 O22 2.430 . S
Eu1 O23 2.670 . S
Eu1 O24 2.394 1_554 S
Eu1 O29 2.355 . S
Eu1 O31 2.374 . S
C2 C0 1.500 . S
C2 C3 1.377 . S
C2 C7 1.377 . S
C3 C2 1.377 . S
C3 C4 1.395 . S
C3 H32 0.931 . S
C4 C3 1.395 . S
C4 C5 1.383 . S
C4 H33 0.931 . S
C5 C4 1.383 . S
C5 C6 1.394 . S
C6 C5 1.394 . S
C6 C7 1.378 . S
C6 H34 0.931 . S
C7 C2 1.377 . S
C7 C6 1.378 . S
C7 H35 0.931 . S
C8 O22 1.259 . S
C8 O23 1.270 . S
C9 O24 1.251 . S
C9 O25 1.251 1_556 S
C10 Eu11 2.835 . S
C10 C12 1.500 . S
C10 O26 1.257 . S
C10 O27 1.260 . S
Eu11 C10 2.835 . S
Eu11 O23 2.355 . S
Eu11 O25 2.374 . S
Eu11 O26 2.473 . S
Eu11 O27 2.480 . S
Eu11 O28 2.430 . S
Eu11 O29 2.670 . S
Eu11 O30 2.394 . S
C12 C10 1.500 . S
C12 C13 1.377 . S
C12 C17 1.377 . S
C13 C12 1.377 . S
C13 C14 1.395 . S
C13 H36 0.931 . S
C14 C13 1.395 . S
C14 C15 1.383 . S
C14 H37 0.931 . S
C15 C14 1.383 . S
C15 C16 1.394 . S
C16 C15 1.394 . S
C16 C17 1.378 . S
C16 H38 0.931 . S
C17 C12 1.377 . S
C17 C16 1.378 . S
C17 H39 0.931 . S
C18 O28 1.259 . S
C18 O29 1.270 . S
C19 O30 1.251 . S
C19 O31 1.251 . S
O20 C0 1.257 . S
O20 Eu1 2.473 1_556 S
O21 C0 1.260 . S
O21 Eu1 2.480 1_556 S
O22 Eu1 2.430 . S
O22 C8 1.259 . S
O23 Eu1 2.670 . S
O23 C8 1.270 . S
O23 Eu11 2.355 . S
O24 Eu1 2.394 1_556 S
O24 C9 1.251 . S
O25 C9 1.251 1_554 S
O25 Eu11 2.374 . S
O26 C10 1.257 . S
O26 Eu11 2.473 . S
O27 C10 1.260 . S
O27 Eu11 2.480 . S
O28 Eu11 2.430 . S
O28 C18 1.259 . S
O29 Eu1 2.355 . S
O29 Eu11 2.670 . S
O29 C18 1.270 . S
O30 Eu11 2.394 . S
O30 C19 1.251 . S
O31 Eu1 2.374 . S
O31 C19 1.251 . S
H32 C3 0.931 . S
H33 C4 0.931 . S
H34 C6 0.931 . S
H35 C7 0.931 . S
H36 C13 0.931 . S
H37 C14 0.931 . S
H38 C16 0.931 . S
H39 C17 0.931 . S
C40 Eu41 2.835 . S
C40 C42 1.500 . S
C40 O60 1.257 . S
C40 O61 1.260 . S
Eu41 C40 2.835 . S
Eu41 O60 2.473 . S
Eu41 O61 2.480 . S
Eu41 O62 2.430 . S
Eu41 O63 2.670 . S
Eu41 O64 2.394 . S
Eu41 O69 2.355 . S
Eu41 O71 2.374 . S
C42 C40 1.500 . S
C42 C43 1.377 . S
C42 C47 1.377 . S
C43 C42 1.377 . S
C43 C44 1.395 . S
C43 H72 0.931 . S
C44 C43 1.395 . S
C44 C45 1.383 . S
C44 H73 0.931 . S
C45 C44 1.383 . S
C45 C46 1.394 . S
C46 C45 1.394 . S
C46 C47 1.378 . S
C46 H74 0.931 . S
C47 C42 1.377 . S
C47 C46 1.378 . S
C47 H75 0.931 . S
C48 O62 1.259 . S
C48 O63 1.270 . S
C49 O64 1.251 . S
C49 O65 1.251 . S
C50 Eu51 2.835 . S
C50 C52 1.500 . S
C50 O66 1.257 . S
C50 O67 1.260 . S
Eu51 C50 2.835 . S
Eu51 O63 2.355 . S
Eu51 O65 2.374 . S
Eu51 O66 2.473 . S
Eu51 O67 2.480 . S
Eu51 O68 2.430 . S
Eu51 O69 2.670 . S
Eu51 O70 2.394 . S
C52 C50 1.500 . S
C52 C53 1.377 . S
C52 C57 1.377 . S
C53 C52 1.377 . S
C53 C54 1.395 . S
C53 H76 0.931 . S
C54 C53 1.395 . S
C54 C55 1.383 . S
C54 H77 0.931 . S
C55 C54 1.383 . S
C55 C56 1.394 . S
C56 C55 1.394 . S
C56 C57 1.378 . S
C56 H78 0.931 . S
C57 C52 1.377 . S
C57 C56 1.378 . S
C57 H79 0.931 . S
C58 O68 1.259 . S
C58 O69 1.270 . S
C59 O70 1.251 . S
C59 O71 1.251 . S
O60 C40 1.257 . S
O60 Eu41 2.473 . S
O61 C40 1.260 . S
O61 Eu41 2.480 . S
O62 Eu41 2.430 . S
O62 C48 1.259 . S
O63 Eu41 2.670 . S
O63 C48 1.270 . S
O63 Eu51 2.355 . S
O64 Eu41 2.394 . S
O64 C49 1.251 . S
O65 C49 1.251 . S
O65 Eu51 2.374 . S
O66 C50 1.257 . S
O66 Eu51 2.473 . S
O67 C50 1.260 . S
O67 Eu51 2.480 . S
O68 Eu51 2.430 . S
O68 C58 1.259 . S
O69 Eu41 2.355 . S
O69 Eu51 2.670 . S
O69 C58 1.270 . S
O70 Eu51 2.394 . S
O70 C59 1.251 . S
O71 Eu41 2.374 . S
O71 C59 1.251 . S
H72 C43 0.931 . S
H73 C44 0.931 . S
H74 C46 0.931 . S
H75 C47 0.931 . S
H76 C53 0.931 . S
H77 C54 0.931 . S
H78 C56 0.931 . S
H79 C57 0.931 . S
C80 Eu81 2.835 . S
C80 C82 1.500 . S
C80 O100 1.257 . S
C80 O101 1.260 . S
Eu81 C80 2.835 . S
Eu81 O100 2.473 . S
Eu81 O101 2.480 . S
Eu81 O102 2.430 . S
Eu81 O103 2.670 1_655 S
Eu81 O104 2.394 1_655 S
Eu81 O109 2.355 1_655 S
Eu81 O111 2.374 . S
C82 C80 1.500 . S
C82 C83 1.377 . S
C82 C87 1.377 . S
C83 C82 1.377 . S
C83 C84 1.395 . S
C83 H112 0.931 . S
C84 C83 1.395 . S
C84 C85 1.383 . S
C84 H113 0.931 . S
C85 C84 1.383 . S
C85 C86 1.394 . S
C86 C85 1.394 . S
C86 C87 1.378 . S
C86 H114 0.931 . S
C87 C82 1.377 . S
C87 C86 1.378 . S
C87 H115 0.931 . S
C88 O102 1.259 . S
C88 O103 1.270 1_655 S
C89 O104 1.251 . S
C89 O105 1.251 . S
C90 Eu91 2.835 . S
C90 C92 1.500 . S
C90 O106 1.257 . S
C90 O107 1.260 . S
Eu91 C90 2.835 . S
Eu91 O103 2.355 . S
Eu91 O105 2.374 . S
Eu91 O106 2.473 . S
Eu91 O107 2.480 . S
Eu91 O108 2.430 . S
Eu91 O109 2.670 . S
Eu91 O110 2.394 . S
C92 C90 1.500 . S
C92 C93 1.377 . S
C92 C97 1.377 . S
C93 C92 1.377 . S
C93 C94 1.395 . S
C93 H116 0.931 . S
C94 C93 1.395 . S
C94 C95 1.383 . S
C94 H117 0.931 . S
C95 C94 1.383 . S
C95 C96 1.394 . S
C96 C95 1.394 . S
C96 C97 1.378 . S
C96 H118 0.931 . S
C97 C92 1.377 . S
C97 C96 1.378 . S
C97 H119 0.931 . S
C98 O108 1.259 . S
C98 O109 1.270 . S
C99 O110 1.251 1_655 S
C99 O111 1.251 . S
O100 C80 1.257 . S
O100 Eu81 2.473 . S
O101 C80 1.260 . S
O101 Eu81 2.480 . S
O102 Eu81 2.430 . S
O102 C88 1.259 . S
O103 Eu81 2.670 1_455 S
O103 C88 1.270 1_455 S
O103 Eu91 2.355 . S
O104 Eu81 2.394 1_455 S
O104 C89 1.251 . S
O105 C89 1.251 . S
O105 Eu91 2.374 . S
O106 C90 1.257 . S
O106 Eu91 2.473 . S
O107 C90 1.260 . S
O107 Eu91 2.480 . S
O108 Eu91 2.430 . S
O108 C98 1.259 . S
O109 Eu81 2.355 1_455 S
O109 Eu91 2.670 . S
O109 C98 1.270 . S
O110 Eu91 2.394 . S
O110 C99 1.251 1_455 S
O111 Eu81 2.374 . S
O111 C99 1.251 . S
H112 C83 0.931 . S
H113 C84 0.931 . S
H114 C86 0.931 . S
H115 C87 0.931 . S
H116 C93 0.931 . S
H117 C94 0.931 . S
H118 C96 0.931 . S
H119 C97 0.931 . S
C120 Eu121 2.835 1_556 S
C120 C122 1.500 . S
C120 O140 1.257 . S
C120 O141 1.260 . S
Eu121 C120 2.835 1_554 S
Eu121 O140 2.473 1_554 S
Eu121 O141 2.480 1_554 S
Eu121 O142 2.430 . S
Eu121 O143 2.670 1_565 S
Eu121 O144 2.394 1_564 S
Eu121 O149 2.355 1_565 S
Eu121 O151 2.374 . S
C122 C120 1.500 . S
C122 C123 1.377 . S
C122 C127 1.377 . S
C123 C122 1.377 . S
C123 C124 1.395 . S
C123 H152 0.931 . S
C124 C123 1.395 . S
C124 C125 1.383 . S
C124 H153 0.931 . S
C125 C124 1.383 . S
C125 C126 1.394 . S
C126 C125 1.394 . S
C126 C127 1.378 . S
C126 H154 0.931 . S
C127 C122 1.377 . S
C127 C126 1.378 . S
C127 H155 0.931 . S
C128 O142 1.259 . S
C128 O143 1.270 1_565 S
C129 O144 1.251 . S
C129 O145 1.251 1_556 S
C130 Eu131 2.835 . S
C130 C132 1.500 . S
C130 O146 1.257 . S
C130 O147 1.260 . S
Eu131 C130 2.835 . S
Eu131 O143 2.355 . S
Eu131 O145 2.374 . S
Eu131 O146 2.473 . S
Eu131 O147 2.480 . S
Eu131 O148 2.430 . S
Eu131 O149 2.670 . S
Eu131 O150 2.394 . S
C132 C130 1.500 . S
C132 C133 1.377 . S
C132 C137 1.377 . S
C133 C132 1.377 . S
C133 C134 1.395 . S
C133 H156 0.931 . S
C134 C133 1.395 . S
C134 C135 1.383 . S
C134 H157 0.931 . S
C135 C134 1.383 . S
C135 C136 1.394 . S
C136 C135 1.394 . S
C136 C137 1.378 . S
C136 H158 0.931 . S
C137 C132 1.377 . S
C137 C136 1.378 . S
C137 H159 0.931 . S
C138 O148 1.259 . S
C138 O149 1.270 . S
C139 O150 1.251 1_565 S
C139 O151 1.251 . S
O140 C120 1.257 . S
O140 Eu121 2.473 1_556 S
O141 C120 1.260 . S
O141 Eu121 2.480 1_556 S
O142 Eu121 2.430 . S
O142 C128 1.259 . S
O143 Eu121 2.670 1_545 S
O143 C128 1.270 1_545 S
O143 Eu131 2.355 . S
O144 Eu121 2.394 1_546 S
O144 C129 1.251 . S
O145 C129 1.251 1_554 S
O145 Eu131 2.374 . S
O146 C130 1.257 . S
O146 Eu131 2.473 . S
O147 C130 1.260 . S
O147 Eu131 2.480 . S
O148 Eu131 2.430 . S
O148 C138 1.259 . S
O149 Eu121 2.355 1_545 S
O149 Eu131 2.670 . S
O149 C138 1.270 . S
O150 Eu131 2.394 . S
O150 C139 1.251 1_545 S
O151 Eu121 2.374 . S
O151 C139 1.251 . S
H152 C123 0.931 . S
H153 C124 0.931 . S
H154 C126 0.931 . S
H155 C127 0.931 . S
H156 C133 0.931 . S
H157 C134 0.931 . S
H158 C136 0.931 . S
H159 C137 0.931 . S
C160 Eu161 2.835 1_455 S
C160 C162 1.500 . S
C160 O180 1.257 . S
C160 O181 1.260 1_455 S
Eu161 C160 2.835 1_655 S
Eu161 O180 2.473 1_655 S
Eu161 O181 2.480 . S
Eu161 O182 2.430 . S
Eu161 O183 2.670 . S
Eu161 O184 2.394 . S
Eu161 O189 2.355 1_655 S
Eu161 O191 2.374 1_655 S
C162 C160 1.500 . S
C162 C163 1.377 . S
C162 C167 1.377 . S
C163 C162 1.377 . S
C163 C164 1.395 . S
C163 H192 0.931 1_455 S
C164 C163 1.395 . S
C164 C165 1.383 . S
C164 H193 0.931 . S
C165 C164 1.383 . S
C165 C166 1.394 . S
C166 C165 1.394 . S
C166 C167 1.378 . S
C166 H194 0.931 . S
C167 C162 1.377 . S
C167 C166 1.378 . S
C167 H195 0.931 . S
C168 O182 1.259 . S
C168 O183 1.270 . S
C169 O184 1.251 . S
C169 O185 1.251 . S
C170 Eu171 2.835 . S
C170 C172 1.500 . S
C170 O186 1.257 . S
C170 O187 1.260 . S
Eu171 C170 2.835 . S
Eu171 O183 2.355 . S
Eu171 O185 2.374 . S
Eu171 O186 2.473 . S
Eu171 O187 2.480 . S
Eu171 O188 2.430 1_655 S
Eu171 O189 2.670 1_655 S
Eu171 O190 2.394 . S
C172 C170 1.500 . S
C172 C173 1.377 . S
C172 C177 1.377 . S
C173 C172 1.377 . S
C173 C174 1.395 . S
C173 H196 0.931 . S
C174 C173 1.395 . S
C174 C175 1.383 . S
C174 H197 0.931 . S
C175 C174 1.383 . S
C175 C176 1.394 . S
C176 C175 1.394 . S
C176 C177 1.378 . S
C176 H198 0.931 . S
C177 C172 1.377 . S
C177 C176 1.378 . S
C177 H199 0.931 . S
C178 O188 1.259 . S
C178 O189 1.270 . S
C179 O190 1.251 . S
C179 O191 1.251 1_655 S
O180 C160 1.257 . S
O180 Eu161 2.473 1_455 S
O181 C160 1.260 1_655 S
O181 Eu161 2.480 . S
O182 Eu161 2.430 . S
O182 C168 1.259 . S
O183 Eu161 2.670 . S
O183 C168 1.270 . S
O183 Eu171 2.355 . S
O184 Eu161 2.394 . S
O184 C169 1.251 . S
O185 C169 1.251 . S
O185 Eu171 2.374 . S
O186 C170 1.257 . S
O186 Eu171 2.473 . S
O187 C170 1.260 . S
O187 Eu171 2.480 . S
O188 Eu171 2.430 1_455 S
O188 C178 1.259 . S
O189 Eu161 2.355 1_455 S
O189 Eu171 2.670 1_455 S
O189 C178 1.270 . S
O190 Eu171 2.394 . S
O190 C179 1.251 . S
O191 Eu161 2.374 1_455 S
O191 C179 1.251 1_455 S
H192 C163 0.931 1_655 S
H193 C164 0.931 . S
H194 C166 0.931 . S
H195 C167 0.931 . S
H196 C173 0.931 . S
H197 C174 0.931 . S
H198 C176 0.931 . S
H199 C177 0.931 . S
C200 Eu201 2.835 . S
C200 C202 1.500 . S
C200 O220 1.257 . S
C200 O221 1.250 1_545 S
Eu201 C200 2.835 . S
Eu201 O220 2.473 . S
Eu201 O221 2.476 1_545 S
Eu201 O222 2.430 1_545 S
Eu201 O223 2.670 1_545 S
Eu201 O224 2.394 1_545 S
Eu201 O229 2.355 . S
Eu201 O231 2.374 . S
C202 C200 1.500 . S
C202 C203 1.377 . S
C202 C207 1.377 . S
C203 C202 1.377 . S
C203 C204 1.395 . S
C203 H232 0.931 . S
C204 C203 1.395 . S
C204 C205 1.383 . S
C204 H233 0.931 . S
C205 C204 1.383 . S
C205 C206 1.394 . S
C206 C205 1.394 . S
C206 C207 1.378 . S
C206 H234 0.931 . S
C207 C202 1.377 . S
C207 C206 1.378 . S
C207 H235 0.931 . S
C208 O222 1.259 . S
C208 O223 1.270 . S
C209 O224 1.251 . S
C209 O225 1.251 . S
C210 Eu211 2.835 . S
C210 C212 1.500 . S
C210 O226 1.257 . S
C210 O227 1.260 . S
Eu211 C210 2.835 . S
Eu211 O223 2.355 . S
Eu211 O225 2.374 . S
Eu211 O226 2.473 . S
Eu211 O227 2.480 . S
Eu211 O228 2.430 1_565 S
Eu211 O229 2.670 1_565 S
Eu211 O230 2.394 . S
C212 C210 1.500 . S
C212 C213 1.377 . S
C212 C217 1.377 . S
C213 C212 1.377 . S
C213 C214 1.395 . S
C213 H236 0.931 . S
C214 C213 1.395 . S
C214 C215 1.383 . S
C214 H237 0.931 . S
C215 C214 1.383 . S
C215 C216 1.394 . S
C216 C215 1.394 . S
C216 C217 1.378 . S
C216 H238 0.931 . S
C217 C212 1.377 . S
C217 C216 1.378 . S
C217 H239 0.931 . S
C218 O228 1.259 . S
C218 O229 1.270 . S
C219 O230 1.251 1_545 S
C219 O231 1.251 . S
O220 C200 1.257 . S
O220 Eu201 2.473 . S
O221 C200 1.250 1_565 S
O221 Eu201 2.476 1_565 S
O222 Eu201 2.430 1_565 S
O222 C208 1.259 . S
O223 Eu201 2.670 1_565 S
O223 C208 1.270 . S
O223 Eu211 2.355 . S
O224 Eu201 2.394 1_565 S
O224 C209 1.251 . S
O225 C209 1.251 . S
O225 Eu211 2.374 . S
O226 C210 1.257 . S
O226 Eu211 2.473 . S
O227 C210 1.260 . S
O227 Eu211 2.480 . S
O228 Eu211 2.430 1_545 S
O228 C218 1.259 . S
O229 Eu201 2.355 . S
O229 Eu211 2.670 1_545 S
O229 C218 1.270 . S
O230 Eu211 2.394 . S
O230 C219 1.251 1_565 S
O231 Eu201 2.374 . S
O231 C219 1.251 . S
H232 C203 0.931 . S
H233 C204 0.931 . S
H234 C206 0.931 . S
H235 C207 0.931 . S
H236 C213 0.931 . S
H237 C214 0.931 . S
H238 C216 0.931 . S
H239 C217 0.931 . S
C240 C241 1.339 1_565 S
C240 C242 1.327 1_565 S
C240 H265 0.950 . S
C241 C240 1.339 1_545 S
C241 C257 1.362 . S
C242 C240 1.327 1_545 S
C242 C261 1.429 1_655 S
C242 H266 0.950 1_655 S
C243 C260 1.574 . S
C243 C262 1.368 . S
C243 H267 0.949 1_554 S
H244 C248 0.949 . S
C245 C246 1.349 . S
C245 C247 1.327 . S
C245 H268 0.950 1_554 S
C246 C245 1.349 . S
C246 C258 1.349 . S
C247 C245 1.327 . S
C247 C263 1.429 . S
C247 H269 0.950 1_554 S
C248 H244 0.949 . S
C248 C256 1.574 . S
C248 C264 1.368 . S
H249 C257 0.950 1_556 S
H250 C255 0.950 1_556 S
H251 C256 0.949 . S
H252 C258 0.950 . S
H253 C259 0.950 . S
H254 C260 0.949 1_556 S
C255 H250 0.950 1_554 S
C255 C257 1.327 . S
C255 C261 1.429 1_655 S
C256 C248 1.574 . S
C256 H251 0.949 . S
C256 C262 1.368 . S
C257 C241 1.362 . S
C257 H249 0.950 1_554 S
C257 C255 1.327 . S
C258 C246 1.349 . S
C258 H252 0.950 . S
C258 C259 1.327 . S
C259 H253 0.950 . S
C259 C258 1.327 . S
C259 C263 1.429 . S
C260 C243 1.574 . S
C260 H254 0.949 1_554 S
C260 C264 1.368 . S
C261 C242 1.429 1_455 S
C261 C255 1.429 1_455 S
C261 C262 1.523 . S
C262 C243 1.368 . S
C262 C256 1.368 . S
C262 C261 1.523 . S
C263 C247 1.429 . S
C263 C259 1.429 . S
C263 C264 1.523 . S
C264 C248 1.368 . S
C264 C260 1.368 . S
C264 C263 1.523 . S
H265 C240 0.950 . S
H266 C242 0.950 1_455 S
H267 C243 0.949 1_556 S
H268 C245 0.950 1_556 S
H269 C247 0.950 1_556 S
C270 C271 1.349 . S
C270 C272 1.345 . S
C270 H295 0.950 . S
C271 C270 1.349 . S
C271 C287 1.349 . S
C272 C270 1.345 . S
C272 C291 1.415 1_565 S
C272 H296 0.945 1_565 S
C273 C290 1.574 . S
C273 C292 1.368 . S
C273 H297 0.949 . S
H274 C278 0.949 . S
C275 C276 1.349 . S
C275 C277 1.327 . S
C275 H298 0.950 . S
C276 C275 1.349 . S
C276 C288 1.349 . S
C277 C275 1.327 . S
C277 C293 1.429 . S
C277 H299 0.950 . S
C278 H274 0.949 . S
C278 C286 1.574 . S
C278 C294 1.368 . S
H279 C287 0.950 . S
H280 C285 0.950 1_545 S
H281 C286 0.949 . S
H282 C288 0.950 . S
H283 C289 0.950 . S
H284 C290 0.949 . S
C285 H280 0.950 1_565 S
C285 C287 1.327 . S
C285 C291 1.429 1_565 S
C286 C278 1.574 . S
C286 H281 0.949 . S
C286 C292 1.368 . S
C287 C271 1.349 . S
C287 H279 0.950 . S
C287 C285 1.327 . S
C288 C276 1.349 . S
C288 H282 0.950 . S
C288 C289 1.327 . S
C289 H283 0.950 . S
C289 C288 1.327 . S
C289 C293 1.429 . S
C290 C273 1.574 . S
C290 H284 0.949 . S
C290 C294 1.368 . S
C291 C272 1.415 1_545 S
C291 C285 1.429 1_545 S
C291 C292 1.523 . S
C292 C273 1.368 . S
C292 C286 1.368 . S
C292 C291 1.523 . S
C293 C277 1.429 . S
C293 C289 1.429 . S
C293 C294 1.523 . S
C294 C278 1.368 . S
C294 C290 1.368 . S
C294 C293 1.523 . S
H295 C270 0.950 . S
H296 C272 0.945 1_545 S
H297 C273 0.949 . S
H298 C275 0.950 . S
H299 C277 0.950 . S
C300 C301 1.349 . S
C300 C302 1.327 . S
C300 H325 0.950 . S
C301 C300 1.349 . S
C301 C317 1.349 . S
C302 C300 1.327 . S
C302 C321 1.429 . S
C302 H326 0.950 . S
C303 C320 1.574 . S
C303 C322 1.368 . S
C303 H327 0.949 . S
H304 C308 0.949 . S
C305 C306 1.349 . S
C305 C307 1.327 1_655 S
C305 H328 0.950 . S
C306 C305 1.349 . S
C306 C318 1.349 1_655 S
C307 C305 1.327 1_455 S
C307 C323 1.429 . S
C307 H329 0.950 . S
C308 H304 0.949 . S
C308 C316 1.574 . S
C308 C324 1.368 . S
H309 C317 0.950 . S
H310 C315 0.950 . S
H311 C316 0.949 . S
H312 C318 0.950 . S
H313 C319 0.950 . S
H314 C320 0.949 . S
C315 H310 0.950 . S
C315 C317 1.327 . S
C315 C321 1.429 . S
C316 C308 1.574 . S
C316 H311 0.949 . S
C316 C322 1.368 . S
C317 C301 1.349 . S
C317 H309 0.950 . S
C317 C315 1.327 . S
C318 C306 1.349 1_455 S
C318 H312 0.950 . S
C318 C319 1.327 . S
C319 H313 0.950 . S
C319 C318 1.327 . S
C319 C323 1.429 . S
C320 C303 1.574 . S
C320 H314 0.949 . S
C320 C324 1.368 . S
C321 C302 1.429 . S
C321 C315 1.429 . S
C321 C322 1.523 . S
C322 C303 1.368 . S
C322 C316 1.368 . S
C322 C321 1.523 . S
C323 C307 1.429 . S
C323 C319 1.429 . S
C323 C324 1.523 . S
C324 C308 1.368 . S
C324 C320 1.368 . S
C324 C323 1.523 . S
H325 C300 0.950 . S
H326 C302 0.950 . S
H327 C303 0.949 . S
H328 C305 0.950 . S
H329 C307 0.950 . S
C330 C331 1.349 . S
C330 C332 1.327 . S
C330 H355 0.950 . S
C331 C330 1.349 . S
C331 C347 1.349 . S
C332 C330 1.327 . S
C332 C351 1.429 . S
C332 H356 0.950 . S
C333 C350 1.574 . S
C333 C352 1.368 . S
C333 H357 0.949 . S
H334 C338 0.949 . S
C335 C336 1.349 . S
C335 C337 1.327 . S
C335 H358 0.950 . S
C336 C335 1.349 . S
C336 C348 1.349 . S
C337 C335 1.327 . S
C337 C353 1.429 . S
C337 H359 0.950 . S
C338 H334 0.949 . S
C338 C346 1.574 . S
C338 C354 1.368 . S
H339 C347 0.950 . S
H340 C345 0.950 . S
H341 C346 0.949 . S
H342 C348 0.950 . S
H343 C349 0.950 . S
H344 C350 0.949 . S
C345 H340 0.950 . S
C345 C347 1.327 . S
C345 C351 1.429 . S
C346 C338 1.574 . S
C346 H341 0.949 . S
C346 C352 1.368 . S
C347 C331 1.349 . S
C347 H339 0.950 . S
C347 C345 1.327 . S
C348 C336 1.349 . S
C348 H342 0.950 . S
C348 C349 1.327 . S
C349 H343 0.950 . S
C349 C348 1.327 . S
C349 C353 1.429 . S
C350 C333 1.574 . S
C350 H344 0.949 . S
C350 C354 1.368 . S
C351 C332 1.429 . S
C351 C345 1.429 . S
C351 C352 1.523 . S
C352 C333 1.368 . S
C352 C346 1.368 . S
C352 C351 1.523 . S
C353 C337 1.429 . S
C353 C349 1.429 . S
C353 C354 1.523 . S
C354 C338 1.368 . S
C354 C350 1.368 . S
C354 C353 1.523 . S
H355 C330 0.950 . S
H356 C332 0.950 . S
H357 C333 0.949 . S
H358 C335 0.950 . S
H359 C337 0.950 . S
C360 C361 1.349 . S
C360 C362 1.327 . S
C360 H385 0.950 . S
C361 C360 1.349 . S
C361 C377 1.349 . S
C362 C360 1.327 . S
C362 C381 1.429 . S
C362 H386 0.950 . S
C363 C380 1.574 1_455 S
C363 C382 1.368 . S
C363 H387 0.949 . S
H364 C368 0.949 1_655 S
C365 C366 1.349 . S
C365 C367 1.327 . S
C365 H388 0.950 . S
C366 C365 1.349 . S
C366 C378 1.349 . S
C367 C365 1.327 . S
C367 C383 1.429 . S
C367 H389 0.950 . S
C368 H364 0.949 1_455 S
C368 C376 1.574 . S
C368 C384 1.368 1_455 S
H369 C377 0.950 . S
H370 C375 0.950 . S
H371 C376 0.949 . S
H372 C378 0.950 . S
H373 C379 0.950 . S
H374 C380 0.949 . S
C375 H370 0.950 . S
C375 C377 1.327 . S
C375 C381 1.429 . S
C376 C368 1.574 . S
C376 H371 0.949 . S
C376 C382 1.368 . S
C377 C361 1.349 . S
C377 H369 0.950 . S
C377 C375 1.327 . S
C378 C366 1.349 . S
C378 H372 0.950 . S
C378 C379 1.327 . S
C379 H373 0.950 . S
C379 C378 1.327 . S
C379 C383 1.429 . S
C380 C363 1.574 1_655 S
C380 H374 0.949 . S
C380 C384 1.368 . S
C381 C362 1.429 . S
C381 C375 1.429 . S
C381 C382 1.523 . S
C382 C363 1.368 . S
C382 C376 1.368 . S
C382 C381 1.523 . S
C383 C367 1.429 . S
C383 C379 1.429 . S
C383 C384 1.523 . S
C384 C368 1.368 1_655 S
C384 C380 1.368 . S
C384 C383 1.523 . S
H385 C360 0.950 . S
H386 C362 0.950 . S
H387 C363 0.949 . S
H388 C365 0.950 . S
H389 C367 0.950 . S
C390 C391 1.349 . S
C390 C392 1.327 . S
C390 H415 0.950 . S
C391 C390 1.349 . S
C391 C407 1.349 . S
C392 C390 1.327 . S
C392 C411 1.429 . S
C392 H416 0.950 . S
C393 C410 1.574 1_545 S
C393 C412 1.368 . S
C393 H417 0.949 . S
H394 C398 0.949 . S
C395 C396 1.349 . S
C395 C397 1.327 . S
C395 H418 0.950 . S
C396 C395 1.349 . S
C396 C408 1.349 . S
C397 C395 1.327 . S
C397 C413 1.429 . S
C397 H419 0.950 . S
C398 H394 0.949 . S
C398 C406 1.574 . S
C398 C414 1.368 1_545 S
H399 C407 0.950 . S
H400 C405 0.950 . S
H401 C406 0.949 . S
H402 C408 0.950 . S
H403 C409 0.950 . S
H404 C410 0.949 . S
C405 H400 0.950 . S
C405 C407 1.327 . S
C405 C411 1.429 . S
C406 C398 1.574 . S
C406 H401 0.949 . S
C406 C412 1.368 . S
C407 C391 1.349 . S
C407 H399 0.950 . S
C407 C405 1.327 . S
C408 C396 1.349 . S
C408 H402 0.950 . S
C408 C409 1.327 . S
C409 H403 0.950 . S
C409 C408 1.327 . S
C409 C413 1.429 . S
C410 C393 1.574 1_565 S
C410 H404 0.949 . S
C410 C414 1.368 . S
C411 C392 1.429 . S
C411 C405 1.429 . S
C411 C412 1.523 . S
C412 C393 1.368 . S
C412 C406 1.368 . S
C412 C411 1.523 . S
C413 C397 1.429 . S
C413 C409 1.429 . S
C413 C414 1.523 . S
C414 C398 1.368 1_565 S
C414 C410 1.368 . S
C414 C413 1.523 . S
H415 C390 0.950 . S
H416 C392 0.950 . S
H417 C393 0.949 . S
H418 C395 0.950 . S
H419 C397 0.950 . S
C420 C421 1.349 . S
C420 C422 1.327 . S
C420 H445 0.950 . S
C421 C420 1.349 . S
C421 C437 1.349 . S
C422 C420 1.327 . S
C422 C441 1.429 . S
C422 H446 0.950 . S
C423 C440 1.574 . S
C423 C442 1.368 . S
C423 H447 0.949 . S
H424 C428 0.949 1_455 S
C425 C426 1.349 . S
C425 C427 1.329 1_455 S
C425 H448 0.950 . S
C426 C425 1.349 . S
C426 C438 1.349 . S
C427 C425 1.329 1_655 S
C427 C443 1.428 1_655 S
C427 H449 0.948 . S
C428 H424 0.949 1_655 S
C428 C436 1.574 . S
C428 C444 1.368 . S
H429 C437 0.950 . S
H430 C435 0.950 . S
H431 C436 0.949 . S
H432 C438 0.950 . S
H433 C439 0.950 . S
H434 C440 0.949 . S
C435 H430 0.950 . S
C435 C437 1.327 . S
C435 C441 1.429 . S
C436 C428 1.574 . S
C436 H431 0.949 . S
C436 C442 1.368 . S
C437 C421 1.349 . S
C437 H429 0.950 . S
C437 C435 1.327 . S
C438 C426 1.349 . S
C438 H432 0.950 . S
C438 C439 1.327 . S
C439 H433 0.950 . S
C439 C438 1.327 . S
C439 C443 1.429 . S
C440 C423 1.574 . S
C440 H434 0.949 . S
C440 C444 1.368 . S
C441 C422 1.429 . S
C441 C435 1.429 . S
C441 C442 1.523 . S
C442 C423 1.368 . S
C442 C436 1.368 . S
C442 C441 1.523 . S
C443 C427 1.428 1_455 S
C443 C439 1.429 . S
C443 C444 1.523 1_455 S
C444 C428 1.368 . S
C444 C440 1.368 . S
C444 C443 1.523 1_655 S
H445 C420 0.950 . S
H446 C422 0.950 . S
H447 C423 0.949 . S
H448 C425 0.950 . S
H449 C427 0.948 . S
C450 C451 1.349 . S
C450 C452 1.327 . S
C450 H475 0.950 . S
C451 C450 1.349 . S
C451 C467 1.349 . S
C452 C450 1.327 . S
C452 C471 1.429 . S
C452 H476 0.950 . S
C453 C470 1.574 . S
C453 C472 1.368 . S
C453 H477 0.949 . S
H454 C458 0.949 . S
C455 C456 1.349 . S
C455 C457 1.327 . S
C455 H478 0.950 . S
C456 C455 1.349 . S
C456 C468 1.349 . S
C457 C455 1.327 . S
C457 C473 1.429 . S
C457 H479 0.950 . S
C458 H454 0.949 . S
C458 C466 1.574 . S
C458 C474 1.368 . S
H459 C467 0.950 . S
H460 C465 0.950 . S
H461 C466 0.949 . S
H462 C468 0.950 . S
H463 C469 0.945 1_565 S
H464 C470 0.949 1_545 S
C465 H460 0.950 . S
C465 C467 1.327 . S
C465 C471 1.429 . S
C466 C458 1.574 . S
C466 H461 0.949 . S
C466 C472 1.368 . S
C467 C451 1.349 . S
C467 H459 0.950 . S
C467 C465 1.327 . S
C468 C456 1.349 . S
C468 H462 0.950 . S
C468 C469 1.327 . S
C469 H463 0.945 1_545 S
C469 C468 1.327 . S
C469 C473 1.429 . S
C470 C453 1.574 . S
C470 H464 0.949 1_565 S
C470 C474 1.368 . S
C471 C452 1.429 . S
C471 C465 1.429 . S
C471 C472 1.523 . S
C472 C453 1.368 . S
C472 C466 1.368 . S
C472 C471 1.523 . S
C473 C457 1.429 . S
C473 C469 1.429 . S
C473 C474 1.523 1_545 S
C474 C458 1.368 . S
C474 C470 1.368 . S
C474 C473 1.523 1_565 S
H475 C450 0.950 . S
H476 C452 0.950 . S
H477 C453 0.949 . S
H478 C455 0.950 . S
H479 C457 0.950 . S
C480 C481 1.349 . S
C480 C482 1.327 . S
C480 H505 0.950 . S
C481 C480 1.349 . S
C481 C497 1.349 . S
C482 C480 1.327 . S
C482 C501 1.429 . S
C482 H506 0.950 . S
C483 C500 1.574 . S
C483 C502 1.368 . S
C483 H507 0.949 . S
H484 C488 0.949 . S
C485 C486 1.349 . S
C485 C487 1.327 . S
C485 H508 0.950 . S
C486 C485 1.349 . S
C486 C498 1.349 . S
C487 C485 1.327 . S
C487 C503 1.429 . S
C487 H509 0.950 . S
C488 H484 0.949 . S
C488 C496 1.574 . S
C488 C504 1.368 . S
H489 C497 0.950 . S
H490 C495 0.950 . S
H491 C496 0.949 . S
H492 C498 0.950 . S
H493 C499 0.950 . S
H494 C500 0.949 . S
C495 H490 0.950 . S
C495 C497 1.327 . S
C495 C501 1.429 . S
C496 C488 1.574 . S
C496 H491 0.949 . S
C496 C502 1.368 . S
C497 C481 1.349 . S
C497 H489 0.950 . S
C497 C495 1.327 . S
C498 C486 1.349 . S
C498 H492 0.950 . S
C498 C499 1.327 . S
C499 H493 0.950 . S
C499 C498 1.327 . S
C499 C503 1.429 . S
C500 C483 1.574 . S
C500 H494 0.949 . S
C500 C504 1.368 . S
C501 C482 1.429 . S
C501 C495 1.429 . S
C501 C502 1.523 . S
C502 C483 1.368 . S
C502 C496 1.368 . S
C502 C501 1.523 . S
C503 C487 1.429 . S
C503 C499 1.429 . S
C503 C504 1.523 . S
C504 C488 1.368 . S
C504 C500 1.368 . S
C504 C503 1.523 . S
H505 C480 0.950 . S
H506 C482 0.950 . S
H507 C483 0.949 . S
H508 C485 0.950 . S
H509 C487 0.950 . S
C510 C511 1.349 . S
C510 C512 1.327 . S
C510 H535 0.950 . S
C511 C510 1.349 . S
C511 C527 1.349 . S
C512 C510 1.327 . S
C512 C531 1.429 . S
C512 H536 0.950 . S
C513 C530 1.574 . S
C513 C532 1.368 . S
C513 H537 0.975 . S
H514 C518 0.949 . S
C515 C516 1.349 . S
C515 C517 1.327 . S
C515 H538 0.950 . S
C516 C515 1.349 . S
C516 C528 1.349 . S
C517 C515 1.327 . S
C517 C533 1.429 . S
C517 H539 0.985 . S
C518 H514 0.949 . S
C518 C526 1.574 . S
C518 C534 1.368 . S
H519 C527 0.950 . S
H520 C525 0.985 . S
H521 C526 0.949 . S
H522 C528 0.950 1_565 S
H523 C529 0.950 . S
H524 C530 0.975 . S
C525 H520 0.985 . S
C525 C527 1.327 . S
C525 C531 1.429 . S
C526 C518 1.574 . S
C526 H521 0.949 . S
C526 C532 1.368 . S
C527 C511 1.349 . S
C527 H519 0.950 . S
C527 C525 1.327 . S
C528 C516 1.349 . S
C528 H522 0.950 1_545 S
C528 C529 1.327 . S
C529 H523 0.950 . S
C529 C528 1.327 . S
C529 C533 1.429 . S
C530 C513 1.574 . S
C530 H524 0.975 . S
C530 C534 1.368 . S
C531 C512 1.429 . S
C531 C525 1.429 . S
C531 C532 1.523 . S
C532 C513 1.368 . S
C532 C526 1.368 . S
C532 C531 1.523 . S
C533 C517 1.429 . S
C533 C529 1.429 . S
C533 C534 1.523 . S
C534 C518 1.368 . S
C534 C530 1.368 . S
C534 C533 1.523 . S
H535 C510 0.950 . S
H536 C512 0.950 . S
H537 C513 0.975 . S
H538 C515 0.950 . S
H539 C517 0.985 . S
C540 C541 1.349 . S
C540 C542 1.327 . S
C540 H565 0.950 . S
C541 C540 1.349 . S
C541 C557 1.349 . S
C542 C540 1.327 . S
C542 C561 1.429 . S
C542 H566 0.950 . S
C543 C560 1.574 . S
C543 C562 1.368 . S
C543 H567 0.949 . S
H544 C548 0.949 . S
C545 C546 1.349 . S
C545 C547 1.327 . S
C545 H568 0.950 . S
C546 C545 1.349 . S
C546 C558 1.349 . S
C547 C545 1.327 . S
C547 C563 1.429 . S
C547 H569 0.950 . S
C548 H544 0.949 . S
C548 C556 1.574 . S
C548 C564 1.368 . S
H549 C557 0.950 . S
H550 C555 0.950 . S
H551 C556 0.949 . S
H552 C558 0.950 . S
H553 C559 0.950 . S
H554 C560 0.949 . S
C555 H550 0.950 . S
C555 C557 1.327 . S
C555 C561 1.429 . S
C556 C548 1.574 . S
C556 H551 0.949 . S
C556 C562 1.368 . S
C557 C541 1.349 . S
C557 H549 0.950 . S
C557 C555 1.327 . S
C558 C546 1.349 . S
C558 H552 0.950 . S
C558 C559 1.327 . S
C559 H553 0.950 . S
C559 C558 1.327 . S
C559 C563 1.429 . S
C560 C543 1.574 . S
C560 H554 0.949 . S
C560 C564 1.368 . S
C561 C542 1.429 . S
C561 C555 1.429 . S
C561 C562 1.523 . S
C562 C543 1.368 . S
C562 C556 1.368 . S
C562 C561 1.523 . S
C563 C547 1.429 . S
C563 C559 1.429 . S
C563 C564 1.523 . S
C564 C548 1.368 . S
C564 C560 1.368 . S
C564 C563 1.523 . S
H565 C540 0.950 . S
H566 C542 0.950 . S
H567 C543 0.949 . S
H568 C545 0.950 . S
H569 C547 0.950 . S
C570 C571 1.349 1_655 S
C570 C572 1.327 1_655 S
C570 H595 0.950 . S
C571 C570 1.349 1_455 S
C571 C587 1.349 . S
C572 C570 1.327 1_455 S
C572 C591 1.429 . S
C572 H596 0.950 . S
C573 C590 1.574 . S
C573 C592 1.368 . S
C573 H597 0.949 . S
H574 C578 0.949 . S
C575 C576 1.349 . S
C575 C577 1.327 . S
C575 H598 0.950 . S
C576 C575 1.349 . S
C576 C588 1.349 . S
C577 C575 1.327 . S
C577 C593 1.429 . S
C577 H599 0.950 . S
C578 H574 0.949 . S
C578 C586 1.574 . S
C578 C594 1.368 . S
H579 C587 0.950 . S
H580 C585 0.950 . S
H581 C586 0.949 . S
H582 C588 0.950 . S
H583 C589 0.950 . S
H584 C590 0.949 . S
C585 H580 0.950 . S
C585 C587 1.327 . S
C585 C591 1.429 . S
C586 C578 1.574 . S
C586 H581 0.949 . S
C586 C592 1.368 . S
C587 C571 1.349 . S
C587 H579 0.950 . S
C587 C585 1.327 . S
C588 C576 1.349 . S
C588 H582 0.950 . S
C588 C589 1.327 . S
C589 H583 0.950 . S
C589 C588 1.327 . S
C589 C593 1.429 . S
C590 C573 1.574 . S
C590 H584 0.949 . S
C590 C594 1.368 . S
C591 C572 1.429 . S
C591 C585 1.429 . S
C591 C592 1.523 . S
C592 C573 1.368 . S
C592 C586 1.368 . S
C592 C591 1.523 . S
C593 C577 1.429 . S
C593 C589 1.429 . S
C593 C594 1.523 . S
C594 C578 1.368 . S
C594 C590 1.368 . S
C594 C593 1.523 . S
H595 C570 0.950 . S
H596 C572 0.950 . S
H597 C573 0.949 . S
H598 C575 0.950 . S
H599 C577 0.950 . S
C600 C601 1.349 . S
C600 C602 1.327 . S
C600 H625 0.950 . S
C601 C600 1.349 . S
C601 C617 1.349 . S
C602 C600 1.327 . S
C602 C621 1.429 . S
C602 H626 0.950 . S
C603 C620 1.574 . S
C603 C622 1.368 . S
C603 H627 0.949 . S
H604 C608 0.949 . S
C605 C606 1.349 . S
C605 C607 1.327 . S
C605 H628 0.950 . S
C606 C605 1.349 . S
C606 C618 1.349 . S
C607 C605 1.327 . S
C607 C623 1.429 . S
C607 H629 0.950 . S
C608 H604 0.949 . S
C608 C616 1.574 . S
C608 C624 1.368 . S
H609 C617 0.950 . S
H610 C615 0.950 . S
H611 C616 0.949 . S
H612 C618 0.950 . S
H613 C619 0.950 . S
H614 C620 0.949 . S
C615 H610 0.950 . S
C615 C617 1.327 . S
C615 C621 1.429 . S
C616 C608 1.574 . S
C616 H611 0.949 . S
C616 C622 1.368 . S
C617 C601 1.349 . S
C617 H609 0.950 . S
C617 C615 1.327 . S
C618 C606 1.349 . S
C618 H612 0.950 . S
C618 C619 1.327 . S
C619 H613 0.950 . S
C619 C618 1.327 . S
C619 C623 1.429 . S
C620 C603 1.574 . S
C620 H614 0.949 . S
C620 C624 1.368 . S
C621 C602 1.429 . S
C621 C615 1.429 . S
C621 C622 1.523 . S
C622 C603 1.368 . S
C622 C616 1.368 . S
C622 C621 1.523 . S
C623 C607 1.429 . S
C623 C619 1.429 . S
C623 C624 1.523 . S
C624 C608 1.368 . S
C624 C620 1.368 . S
C624 C623 1.523 . S
H625 C600 0.950 . S
H626 C602 0.950 . S
H627 C603 0.949 . S
H628 C605 0.950 . S
H629 C607 0.950 . S
C630 C631 1.349 . S
C630 C632 1.327 . S
C630 H655 0.950 . S
C631 C630 1.349 . S
C631 C647 1.349 . S
C632 C630 1.327 . S
C632 C651 1.429 . S
C632 H656 0.950 . S
C633 C650 1.574 . S
C633 C652 1.368 . S
C633 H657 0.949 . S
H634 C638 0.949 . S
C635 C636 1.349 . S
C635 C637 1.327 . S
C635 H658 0.950 . S
C636 C635 1.349 . S
C636 C648 1.349 . S
C637 C635 1.327 . S
C637 C653 1.429 . S
C637 H659 0.950 . S
C638 H634 0.949 . S
C638 C646 1.574 . S
C638 C654 1.368 . S
H639 C647 0.950 . S
H640 C645 0.950 . S
H641 C646 0.949 . S
H642 C648 0.950 . S
H643 C649 0.950 . S
H644 C650 0.949 . S
C645 H640 0.950 . S
C645 C647 1.327 . S
C645 C651 1.429 . S
C646 C638 1.574 . S
C646 H641 0.949 . S
C646 C652 1.368 . S
C647 C631 1.349 . S
C647 H639 0.950 . S
C647 C645 1.327 . S
C648 C636 1.349 . S
C648 H642 0.950 . S
C648 C649 1.327 . S
C649 H643 0.950 . S
C649 C648 1.327 . S
C649 C653 1.429 . S
C650 C633 1.574 . S
C650 H644 0.949 . S
C650 C654 1.368 . S
C651 C632 1.429 . S
C651 C645 1.429 . S
C651 C652 1.523 . S
C652 C633 1.368 . S
C652 C646 1.368 . S
C652 C651 1.523 . S
C653 C637 1.429 . S
C653 C649 1.429 . S
C653 C654 1.523 . S
C654 C638 1.368 . S
C654 C650 1.368 . S
C654 C653 1.523 . S
H655 C630 0.950 . S
H656 C632 0.950 . S
H657 C633 0.949 . S
H658 C635 0.950 . S
H659 C637 0.950 . S
C660 C661 1.349 . S
C660 C662 1.327 . S
C660 H685 0.950 . S
C661 C660 1.349 . S
C661 C677 1.349 . S
C662 C660 1.327 . S
C662 C681 1.429 . S
C662 H686 0.950 . S
C663 C680 1.574 . S
C663 C682 1.368 . S
C663 H687 0.949 . S
H664 C668 0.949 . S
C665 C666 1.349 . S
C665 C667 1.327 . S
C665 H688 0.950 . S
C666 C665 1.349 . S
C666 C678 1.349 . S
C667 C665 1.327 . S
C667 C683 1.429 . S
C667 H689 0.950 . S
C668 H664 0.949 . S
C668 C676 1.574 . S
C668 C684 1.368 . S
H669 C677 0.950 . S
H670 C675 0.950 . S
H671 C676 0.949 . S
H672 C678 0.950 . S
H673 C679 0.950 . S
H674 C680 0.949 . S
C675 H670 0.950 . S
C675 C677 1.327 . S
C675 C681 1.429 . S
C676 C668 1.574 . S
C676 H671 0.949 . S
C676 C682 1.368 . S
C677 C661 1.349 . S
C677 H669 0.950 . S
C677 C675 1.327 . S
C678 C666 1.349 . S
C678 H672 0.950 . S
C678 C679 1.327 . S
C679 H673 0.950 . S
C679 C678 1.327 . S
C679 C683 1.429 . S
C680 C663 1.574 . S
C680 H674 0.949 . S
C680 C684 1.368 . S
C681 C662 1.429 . S
C681 C675 1.429 . S
C681 C682 1.523 . S
C682 C663 1.368 . S
C682 C676 1.368 . S
C682 C681 1.523 . S
C683 C667 1.429 . S
C683 C679 1.429 . S
C683 C684 1.523 . S
C684 C668 1.368 . S
C684 C680 1.368 . S
C684 C683 1.523 . S
H685 C660 0.950 . S
H686 C662 0.950 . S
H687 C663 0.949 . S
H688 C665 0.950 . S
H689 C667 0.950 . S
C690 C691 1.349 . S
C690 C692 1.327 . S
C690 H715 0.950 1_565 S
C691 C690 1.349 . S
C691 C707 1.349 . S
C692 C690 1.327 . S
C692 C711 1.429 . S
C692 H716 0.950 . S
C693 C710 1.574 . S
C693 C712 1.368 . S
C693 H717 0.949 . S
H694 C698 0.949 . S
C695 C696 1.349 . S
C695 C697 1.327 . S
C695 H718 0.950 . S
C696 C695 1.349 . S
C696 C708 1.349 . S
C697 C695 1.327 . S
C697 C713 1.429 . S
C697 H719 0.950 . S
C698 H694 0.949 . S
C698 C706 1.574 . S
C698 C714 1.368 . S
H699 C707 0.950 . S
H700 C705 0.950 . S
H701 C706 0.949 . S
H702 C708 0.950 . S
H703 C709 0.950 . S
H704 C710 0.949 . S
C705 H700 0.950 . S
C705 C707 1.327 . S
C705 C711 1.429 . S
C706 C698 1.574 . S
C706 H701 0.949 . S
C706 C712 1.368 . S
C707 C691 1.349 . S
C707 H699 0.950 . S
C707 C705 1.327 . S
C708 C696 1.349 . S
C708 H702 0.950 . S
C708 C709 1.327 . S
C709 H703 0.950 . S
C709 C708 1.327 . S
C709 C713 1.429 . S
C710 C693 1.574 . S
C710 H704 0.949 . S
C710 C714 1.368 . S
C711 C692 1.429 . S
C711 C705 1.429 . S
C711 C712 1.523 . S
C712 C693 1.368 . S
C712 C706 1.368 . S
C712 C711 1.523 . S
C713 C697 1.429 . S
C713 C709 1.429 . S
C713 C714 1.523 . S
C714 C698 1.368 . S
C714 C710 1.368 . S
C714 C713 1.523 . S
H715 C690 0.950 1_545 S
H716 C692 0.950 . S
H717 C693 0.949 . S
H718 C695 0.950 . S
H719 C697 0.950 . S
C720 C721 1.349 . S
C720 C722 1.327 . S
C720 H745 0.950 . S
C721 C720 1.349 . S
C721 C737 1.349 . S
C722 C720 1.327 . S
C722 C741 1.429 . S
C722 H746 0.950 . S
C723 C740 1.574 . S
C723 C742 1.368 . S
C723 H747 0.949 . S
H724 C728 0.949 . S
C725 C726 1.349 . S
C725 C727 1.327 . S
C725 H748 0.950 . S
C726 C725 1.349 . S
C726 C738 1.349 . S
C727 C725 1.327 . S
C727 C743 1.429 . S
C727 H749 0.950 . S
C728 H724 0.949 . S
C728 C736 1.574 . S
C728 C744 1.368 . S
H729 C737 0.950 . S
H730 C735 0.950 . S
H731 C736 0.949 . S
H732 C738 0.950 . S
H733 C739 0.950 . S
H734 C740 0.949 . S
C735 H730 0.950 . S
C735 C737 1.327 . S
C735 C741 1.429 . S
C736 C728 1.574 . S
C736 H731 0.949 . S
C736 C742 1.368 . S
C737 C721 1.349 . S
C737 H729 0.950 . S
C737 C735 1.327 . S
C738 C726 1.349 . S
C738 H732 0.950 . S
C738 C739 1.327 . S
C739 H733 0.950 . S
C739 C738 1.327 . S
C739 C743 1.429 . S
C740 C723 1.574 . S
C740 H734 0.949 . S
C740 C744 1.368 . S
C741 C722 1.429 . S
C741 C735 1.429 . S
C741 C742 1.523 . S
C742 C723 1.368 . S
C742 C736 1.368 . S
C742 C741 1.523 . S
C743 C727 1.429 . S
C743 C739 1.429 . S
C743 C744 1.523 . S
C744 C728 1.368 . S
C744 C740 1.368 . S
C744 C743 1.523 . S
H745 C720 0.950 . S
H746 C722 0.950 . S
H747 C723 0.949 . S
H748 C725 0.950 . S
H749 C727 0.950 . S
C750 C751 1.349 . S
C750 C752 1.327 . S
C750 H775 0.950 . S
C751 C750 1.349 . S
C751 C767 1.349 . S
C752 C750 1.327 . S
C752 C771 1.429 . S
C752 H776 0.950 . S
C753 C770 1.574 . S
C753 C772 1.368 . S
C753 H777 0.949 . S
H754 C758 0.949 . S
C755 C756 1.349 . S
C755 C757 1.327 . S
C755 H778 0.950 . S
C756 C755 1.349 . S
C756 C768 1.349 . S
C757 C755 1.327 . S
C757 C773 1.429 . S
C757 H779 0.950 . S
C758 H754 0.949 . S
C758 C766 1.574 . S
C758 C774 1.368 . S
H759 C767 0.950 . S
H760 C765 0.950 . S
H761 C766 0.949 . S
H762 C768 0.950 . S
H763 C769 0.950 . S
H764 C770 0.949 . S
C765 H760 0.950 . S
C765 C767 1.327 . S
C765 C771 1.429 . S
C766 C758 1.574 . S
C766 H761 0.949 . S
C766 C772 1.368 . S
C767 C751 1.349 . S
C767 H759 0.950 . S
C767 C765 1.327 . S
C768 C756 1.349 . S
C768 H762 0.950 . S
C768 C769 1.327 . S
C769 H763 0.950 . S
C769 C768 1.327 . S
C769 C773 1.429 . S
C770 C753 1.574 . S
C770 H764 0.949 . S
C770 C774 1.368 . S
C771 C752 1.429 . S
C771 C765 1.429 . S
C771 C772 1.523 . S
C772 C753 1.368 . S
C772 C766 1.368 . S
C772 C771 1.523 . S
C773 C757 1.429 . S
C773 C769 1.429 . S
C773 C774 1.523 . S
C774 C758 1.368 . S
C774 C770 1.368 . S
C774 C773 1.523 . S
H775 C750 0.950 . S
H776 C752 0.950 . S
H777 C753 0.949 . S
H778 C755 0.950 . S
H779 C757 0.950 . S
C241 C138 0.948 . S
C246 C18 0.931 . S
C271 C178 0.931 . S
C276 C58 0.931 . S
C301 C218 0.930 . S
C306 C98 0.930 1_655 S
C331 C5 0.600 . S
C336 C95 0.583 . S
C361 C45 0.600 . S
C366 C135 0.582 . S
C391 C85 0.600 . S
C396 C175 0.583 . S
C421 C125 0.600 . S
C426 C215 0.583 . S
C451 C165 0.600 . S
C456 C15 0.582 . S
C481 C205 0.600 . S
C486 C55 0.582 . S
C511 C8 1.445 . S
C516 C128 1.445 1_545 S
C541 C48 1.445 . S
C546 C168 1.445 . S
C571 C88 1.446 1_455 S
C576 C208 1.446 . S
C601 C19 3.841 . S
C606 C49 3.895 . S
C631 C59 3.841 . S
C636 C89 3.895 . S
C661 C99 3.842 . S
C666 C129 3.896 . S
C691 C139 3.841 . S
C696 C169 3.895 . S
C721 C179 3.841 1_455 S
C726 C209 3.896 . S
C751 C219 3.841 . S
C756 C9 3.896 . S
