# Generated by pormake.
# Topology neb, (4)-cn, num edge types: 1
# Building blocks:
#     Node 0, Type 0, BuildingBlock: KUFVIS_clean_sbu_0, # of connection points: 4
#     Node 1, Type 0, BuildingBlock: KUFVIS_clean_sbu_0, # of connection points: 4
#     Node 2, Type 0, BuildingBlock: KUFVIS_clean_sbu_0, # of connection points: 4
#     Node 3, Type 0, BuildingBlock: KUFVIS_clean_sbu_0, # of connection points: 4
#     Node 4, Type 0, BuildingBlock: KUFVIS_clean_sbu_0, # of connection points: 4
#     Node 5, Type 0, BuildingBlock: KUFVIS_clean_sbu_0, # of connection points: 4
#     Node 6, Type 0, BuildingBlock: KUFVIS_clean_sbu_0, # of connection points: 4
#     Node 7, Type 0, BuildingBlock: KUFVIS_clean_sbu_0, # of connection points: 4
#     Node 8, Type 0, BuildingBlock: KUFVIS_clean_sbu_0, # of connection points: 4
#     Node 9, Type 0, BuildingBlock: KUFVIS_clean_sbu_0, # of connection points: 4
#     Node 10, Type 0, BuildingBlock: KUFVIS_clean_sbu_0, # of connection points: 4
#     Node 11, Type 0, BuildingBlock: KUFVIS_clean_sbu_0, # of connection points: 4
#     Node 12, Type 0, BuildingBlock: KUFVIS_clean_sbu_0, # of connection points: 4
#     Node 13, Type 0, BuildingBlock: KUFVIS_clean_sbu_0, # of connection points: 4
#     Node 14, Type 0, BuildingBlock: KUFVIS_clean_sbu_0, # of connection points: 4
#     Node 15, Type 0, BuildingBlock: KUFVIS_clean_sbu_0, # of connection points: 4
#     Edge 16, Type (0, 0), BuildingBlock: EZIPEK_clean_linker_0, # of connection points: 2
#     Edge 17, Type (0, 0), BuildingBlock: EZIPEK_clean_linker_0, # of connection points: 2
#     Edge 18, Type (0, 0), BuildingBlock: EZIPEK_clean_linker_0, # of connection points: 2
#     Edge 19, Type (0, 0), BuildingBlock: EZIPEK_clean_linker_0, # of connection points: 2
#     Edge 20, Type (0, 0), BuildingBlock: EZIPEK_clean_linker_0, # of connection points: 2
#     Edge 21, Type (0, 0), BuildingBlock: EZIPEK_clean_linker_0, # of connection points: 2
#     Edge 22, Type (0, 0), BuildingBlock: EZIPEK_clean_linker_0, # of connection points: 2
#     Edge 23, Type (0, 0), BuildingBlock: EZIPEK_clean_linker_0, # of connection points: 2
#     Edge 24, Type (0, 0), BuildingBlock: EZIPEK_clean_linker_0, # of connection points: 2
#     Edge 25, Type (0, 0), BuildingBlock: EZIPEK_clean_linker_0, # of connection points: 2
#     Edge 26, Type (0, 0), BuildingBlock: EZIPEK_clean_linker_0, # of connection points: 2
#     Edge 27, Type (0, 0), BuildingBlock: EZIPEK_clean_linker_0, # of connection points: 2
#     Edge 28, Type (0, 0), BuildingBlock: EZIPEK_clean_linker_0, # of connection points: 2
#     Edge 29, Type (0, 0), BuildingBlock: EZIPEK_clean_linker_0, # of connection points: 2
#     Edge 30, Type (0, 0), BuildingBlock: EZIPEK_clean_linker_0, # of connection points: 2
#     Edge 31, Type (0, 0), BuildingBlock: EZIPEK_clean_linker_0, # of connection points: 2
#     Edge 32, Type (0, 0), BuildingBlock: EZIPEK_clean_linker_0, # of connection points: 2
#     Edge 33, Type (0, 0), BuildingBlock: EZIPEK_clean_linker_0, # of connection points: 2
#     Edge 34, Type (0, 0), BuildingBlock: EZIPEK_clean_linker_0, # of connection points: 2
#     Edge 35, Type (0, 0), BuildingBlock: EZIPEK_clean_linker_0, # of connection points: 2
#     Edge 36, Type (0, 0), BuildingBlock: EZIPEK_clean_linker_0, # of connection points: 2
#     Edge 37, Type (0, 0), BuildingBlock: EZIPEK_clean_linker_0, # of connection points: 2
#     Edge 38, Type (0, 0), BuildingBlock: EZIPEK_clean_linker_0, # of connection points: 2
#     Edge 39, Type (0, 0), BuildingBlock: EZIPEK_clean_linker_0, # of connection points: 2
#     Edge 40, Type (0, 0), BuildingBlock: EZIPEK_clean_linker_0, # of connection points: 2
#     Edge 41, Type (0, 0), BuildingBlock: EZIPEK_clean_linker_0, # of connection points: 2
#     Edge 42, Type (0, 0), BuildingBlock: EZIPEK_clean_linker_0, # of connection points: 2
#     Edge 43, Type (0, 0), BuildingBlock: EZIPEK_clean_linker_0, # of connection points: 2
#     Edge 44, Type (0, 0), BuildingBlock: EZIPEK_clean_linker_0, # of connection points: 2
#     Edge 45, Type (0, 0), BuildingBlock: EZIPEK_clean_linker_0, # of connection points: 2
#     Edge 46, Type (0, 0), BuildingBlock: EZIPEK_clean_linker_0, # of connection points: 2
#     Edge 47, Type (0, 0), BuildingBlock: EZIPEK_clean_linker_0, # of connection points: 2
# Relax obj value: 0.012
# Max RMSD: 0.058
# Mean RMSD: 0.058
data_MOF--net-neb--node1-KUFVIS_clean_sbu_0--edge1-EZIPEK_clean_linker_0
_symmetry_space_group_name_H-M    P1
_symmetry_Int_Tables_number       1
_symmetry_cell_setting            triclinic
loop_
_symmetry_equiv_pos_as_xyz
'x, y, z'
_cell_length_a     29.979771
_cell_length_b     16.809759
_cell_length_c     54.984044
_cell_angle_alpha  93.767971
_cell_angle_beta   89.924471
_cell_angle_gamma 90.21739
loop_
_atom_site_label
_atom_site_type_symbol
_atom_site_fract_x
_atom_site_fract_y
_atom_site_fract_z
_atom_type_partial_charge
Mn0 Mn 0.13955 0.09535 0.44871 0.0
Mn1 Mn 0.23194 0.11759 0.41476 0.0
C2 C 0.15186 0.00168 0.41631 0.0
C3 C 0.09498 0.04465 0.47931 0.0
C4 C 0.15022 0.22012 0.41114 0.0
O5 O 0.17947 0.15785 0.47296 0.0
O6 O 0.2371 0.17437 0.44758 0.0
C7 C 0.30125 0.04197 0.44398 0.0
N8 N 0.28139 0.05238 0.42217 0.0
C9 C 0.34321 0.9918 0.40012 0.0
C10 C 0.36449 0.98066 0.42235 0.0
C11 C 0.34313 0.00486 0.44437 0.0
C12 C 0.30126 0.0278 0.40091 0.0
H13 H 0.28556 0.06277 0.46088 0.0
C14 C 0.21855 0.18331 0.46853 0.0
O15 O 0.0862 0.11179 0.47015 0.0
O16 O 0.1311 0.00845 0.47173 0.0
N17 N 0.23565 0.06695 0.38275 0.0
C18 C 0.2079 0.07201 0.36339 0.0
C19 C 0.22247 0.04489 0.34001 0.0
C20 C 0.26574 0.01399 0.33679 0.0
C21 C 0.2935 0.00824 0.35712 0.0
C22 C 0.27696 0.03576 0.37992 0.0
H23 H 0.17529 0.09728 0.36583 0.0
O24 O 0.11249 0.02761 0.4224 0.0
O25 O 0.18566 0.04092 0.42689 0.0
O26 O 0.12963 0.19305 0.42894 0.0
O27 O 0.18738 0.19263 0.40368 0.0
C28 C 0.33663 0.97527 0.35574 0.0
C29 C 0.36157 0.96746 0.37722 0.0
H30 H 0.39694 0.95266 0.42273 0.0
H31 H 0.35926 -0.00382 0.46159 0.0
H32 H 0.20063 0.04876 0.32448 0.0
H33 H 0.27694 0.99334 0.31874 0.0
H34 H 0.35059 0.95429 0.33832 0.0
H35 H 0.39435 0.94065 0.37597 0.0
Mn36 Mn 0.13516 0.12973 0.82292 0.0
Mn37 Mn 0.24221 0.11617 0.84162 0.0
C38 C 0.16198 0.21663 0.85494 0.0
C39 C 0.08048 0.17803 0.79707 0.0
C40 C 0.16981 -0.00231 0.85337 0.0
O41 O 0.16587 0.0673 0.79408 0.0
O42 O 0.23715 0.07696 0.80709 0.0
C43 C 0.28944 0.22637 0.81076 0.0
N44 N 0.27871 0.20315 0.83329 0.0
C45 C 0.3428 0.26962 0.85107 0.0
C46 C 0.35453 0.29505 0.82812 0.0
C47 C 0.32707 0.27488 0.80795 0.0
C48 C 0.30294 0.22725 0.8531 0.0
H49 H 0.27023 0.20593 0.79502 0.0
C50 C 0.20791 0.05827 0.79085 0.0
O51 O 0.07489 0.11249 0.80785 0.0
O52 O 0.11802 0.21555 0.80098 0.0
N53 N 0.25343 0.15172 0.87474 0.0
C54 C 0.23946 0.11805 0.89534 0.0
C55 C 0.26114 0.1377 0.91754 0.0
C56 C 0.29927 0.18641 0.91799 0.0
C57 C 0.31462 0.21637 0.89629 0.0
C58 C 0.28932 0.20057 0.87514 0.0
H59 H 0.21233 0.07559 0.89481 0.0
O60 O 0.1196 0.20246 0.85213 0.0
O61 O 0.18767 0.17955 0.83893 0.0
O62 O 0.13692 0.03226 0.84396 0.0
O63 O 0.20975 0.02265 0.85187 0.0
C64 C 0.35588 0.25554 0.89442 0.0
C65 C 0.37043 0.28019 0.87168 0.0
H66 H 0.38482 0.32901 0.82572 0.0
H67 H 0.33603 0.29351 0.79011 0.0
H68 H 0.24974 0.11232 0.93405 0.0
H69 H 0.3174 0.19802 0.93489 0.0
H70 H 0.3773 0.26495 0.91021 0.0
H71 H 0.40312 0.30704 0.87019 0.0
Mn72 Mn 0.91501 0.88152 0.57538 0.0
Mn73 Mn 0.8138 0.88349 0.60289 0.0
C74 C 0.90046 0.97822 0.60637 0.0
C75 C 0.96406 0.91808 0.54483 0.0
C76 C 0.88586 0.76299 0.61271 0.0
O77 O 0.87577 0.81442 0.55132 0.0
O78 O 0.80863 0.83183 0.56953 0.0
C79 C 0.75714 0.98171 0.57282 0.0
N80 N 0.77493 0.96729 0.59487 0.0
C81 C 0.71843 0.04604 0.61606 0.0
C82 C 0.69954 0.06195 0.59358 0.0
C83 C 0.7195 0.03089 0.57185 0.0
C84 C 0.75683 -0.00086 0.61582 0.0
H85 H 0.77082 0.95407 0.5562 0.0
C86 C 0.83329 0.80703 0.55165 0.0
O87 O 0.97041 0.85442 0.55644 0.0
O88 O 0.92808 0.95851 0.54999 0.0
N89 N 0.81321 0.93344 0.63513 0.0
C90 C 0.83936 0.92117 0.65472 0.0
C91 C 0.82723 0.95526 0.67779 0.0
C92 C 0.78792 0.00042 0.68043 0.0
C93 C 0.76235 0.01411 0.65978 0.0
C94 C 0.77747 0.98182 0.63719 0.0
H95 H 0.86911 0.88542 0.65265 0.0
O96 O 0.94093 0.95888 0.60011 0.0
O97 O 0.86866 0.941 0.59387 0.0
O98 O 0.91655 0.7926 0.59989 0.0
O99 O 0.84677 0.79128 0.61348 0.0
C100 C 0.72267 0.05886 0.66059 0.0
C101 C 0.70023 0.07327 0.63875 0.0
H102 H 0.66969 0.09772 0.59276 0.0
H103 H 0.705 0.04263 0.55444 0.0
H104 H 0.84764 0.94555 0.69353 0.0
H105 H 0.77808 0.02526 0.6983 0.0
H106 H 0.70929 0.08283 0.67785 0.0
H107 H 0.66921 0.10594 0.6396 0.0
Mn108 Mn 0.92145 0.87457 0.19343 0.0
Mn109 Mn 0.82641 0.90491 0.16158 0.0
C110 C 0.90547 0.79358 0.15854 0.0
C111 C 0.96299 0.81626 0.22365 0.0
C112 C 0.9086 0.01 0.15936 0.0
O113 O 0.88245 0.93779 0.21833 0.0
O114 O 0.81993 0.94865 0.19591 0.0
C115 C 0.75808 0.81349 0.18689 0.0
N116 N 0.78038 0.82855 0.16608 0.0
C117 C 0.72443 0.75998 0.14124 0.0
C118 C 0.70067 0.7445 0.16241 0.0
C119 C 0.71801 0.76997 0.18534 0.0
C120 C 0.76468 0.80196 0.14396 0.0
H121 H 0.77017 0.83615 0.20449 0.0
C122 C 0.84161 0.95768 0.21596 0.0
O123 O 0.97459 0.88345 0.21523 0.0
O124 O 0.92611 0.78397 0.21538 0.0
N125 N 0.82692 0.86382 0.12834 0.0
C126 C 0.85455 0.88228 0.10985 0.0
C127 C 0.84437 0.85456 0.08585 0.0
C128 C 0.80497 0.8108 0.08102 0.0
C129 C 0.77669 0.7936 0.10034 0.0
C130 C 0.78973 0.81964 0.12397 0.0
H131 H 0.88393 0.91809 0.11345 0.0
O132 O 0.946 0.80332 0.16656 0.0
O133 O 0.87463 0.83272 0.17105 0.0
O134 O 0.9331 0.97396 0.17399 0.0
O135 O 0.86869 0.98944 0.15439 0.0
C136 C 0.73581 0.75257 0.09709 0.0
C137 C 0.7094 0.73685 0.11752 0.0
H138 H 0.669 0.71334 0.1613 0.0
H139 H 0.69986 0.75809 0.20175 0.0
H140 H 0.8663 0.86842 0.07105 0.0
H141 H 0.79665 0.7911 0.06242 0.0
H142 H 0.72439 0.73281 0.079 0.0
H143 H 0.67776 0.7064 0.11478 0.0
Mn144 Mn 0.14364 0.60065 0.94512 0.0
Mn145 Mn 0.25134 0.60525 0.92767 0.0
C146 C 0.16872 0.50915 0.91416 0.0
C147 C 0.08735 0.55682 0.97106 0.0
C148 C 0.18298 0.72891 0.91429 0.0
O149 O 0.17428 0.66675 0.97327 0.0
O150 O 0.24575 0.64984 0.96142 0.0
C151 C 0.29372 0.49716 0.96075 0.0
N152 N 0.28542 0.51817 0.9377 0.0
C153 C 0.35091 0.45093 0.92226 0.0
C154 C 0.3601 0.42739 0.94574 0.0
C155 C 0.33076 0.4491 0.96499 0.0
C156 C 0.31148 0.49269 0.91879 0.0
H157 H 0.27306 0.51914 0.97583 0.0
C158 C 0.21629 0.67448 0.97676 0.0
O159 O 0.08327 0.62155 0.95965 0.0
O160 O 0.12458 0.51832 0.96793 0.0
N161 N 0.26399 0.56491 0.89518 0.0
C162 C 0.25155 0.59548 0.87391 0.0
C163 C 0.27554 0.57512 0.85248 0.0
C164 C 0.31419 0.52861 0.85354 0.0
C165 C 0.32755 0.50103 0.8759 0.0
C166 C 0.30003 0.51727 0.89617 0.0
H167 H 0.22403 0.63644 0.87341 0.0
O168 O 0.12675 0.52626 0.91675 0.0
O169 O 0.19523 0.54534 0.93008 0.0
O170 O 0.14862 0.69487 0.92271 0.0
O171 O 0.22154 0.69945 0.91623 0.0
C172 C 0.36868 0.46334 0.87928 0.0
C173 C 0.38053 0.43899 0.90251 0.0
H174 H 0.38995 0.39392 0.94927 0.0
H175 H 0.33786 0.4321 0.98323 0.0
H176 H 0.26554 0.59849 0.83544 0.0
H177 H 0.33408 0.51655 0.83726 0.0
H178 H 0.39166 0.45337 0.86418 0.0
H179 H 0.41244 0.41055 0.90493 0.0
Mn180 Mn 0.12683 0.62154 0.32162 0.0
Mn181 Mn 0.22083 0.60388 0.35549 0.0
C182 C 0.13984 0.70996 0.35528 0.0
C183 C 0.08525 0.67256 0.29007 0.0
C184 C 0.14057 0.49446 0.35867 0.0
O185 O 0.16762 0.55542 0.29841 0.0
O186 O 0.22867 0.55173 0.32231 0.0
C187 C 0.28699 0.6932 0.32787 0.0
N188 N 0.26547 0.68117 0.34917 0.0
C189 C 0.32048 0.75792 0.37238 0.0
C190 C 0.3434 0.77067 0.35073 0.0
C191 C 0.32611 0.73947 0.32834 0.0
C192 C 0.28089 0.71364 0.37069 0.0
H193 H 0.27494 0.6663 0.31075 0.0
C194 C 0.20836 0.53733 0.30204 0.0
O195 O 0.07435 0.60654 0.29947 0.0
O196 O 0.12186 0.70695 0.29793 0.0
N197 N 0.21961 0.65331 0.3878 0.0
C198 C 0.19252 0.63806 0.40681 0.0
C199 C 0.2026 0.67131 0.43026 0.0
C200 C 0.24153 0.71719 0.43408 0.0
C201 C 0.26936 0.73098 0.41427 0.0
C202 C 0.25631 0.69953 0.39115 0.0
H203 H 0.16371 0.60061 0.40401 0.0
O204 O 0.09993 0.69645 0.34684 0.0
O205 O 0.17186 0.67041 0.34391 0.0
O206 O 0.11648 0.52573 0.34278 0.0
O207 O 0.17942 0.51955 0.36451 0.0
C208 C 0.30983 0.77376 0.41654 0.0
C209 C 0.33571 0.78603 0.39564 0.0
H210 H 0.37433 0.80419 0.35105 0.0
H211 H 0.3436 0.74914 0.31155 0.0
H212 H 0.181 0.65997 0.44545 0.0
H213 H 0.24984 0.74115 0.45229 0.0
H214 H 0.32134 0.79748 0.43424 0.0
H215 H 0.36716 0.81748 0.39767 0.0
Mn216 Mn 0.9033 0.4027 0.06751 0.0
Mn217 Mn 0.80711 0.39382 0.09877 0.0
C218 C 0.89012 0.50539 0.0971 0.0
C219 C 0.9477 0.44581 0.03496 0.0
C220 C 0.88585 0.28491 0.10686 0.0
O221 O 0.86435 0.33235 0.04439 0.0
O222 O 0.80086 0.33625 0.0663 0.0
C223 C 0.73999 0.47451 0.06961 0.0
N224 N 0.76016 0.46406 0.09133 0.0
C225 C 0.69961 0.52779 0.11368 0.0
C226 C 0.67825 0.53999 0.09154 0.0
C227 C 0.69879 0.51408 0.06941 0.0
C228 C 0.74085 0.48936 0.11268 0.0
H229 H 0.75484 0.45149 0.0527 0.0
C230 C 0.82309 0.31612 0.04707 0.0
O231 O 0.95794 0.38383 0.04666 0.0
O232 O 0.91082 0.48057 0.04161 0.0
N233 N 0.80598 0.44706 0.13043 0.0
C234 C 0.83603 0.44824 0.14894 0.0
C235 C 0.8227 0.47694 0.17242 0.0
C236 C 0.77903 0.50563 0.1763 0.0
C237 C 0.75004 0.50972 0.15638 0.0
C238 C 0.76528 0.48015 0.13355 0.0
H239 H 0.86925 0.42486 0.14585 0.0
O240 O 0.92951 0.4781 0.09193 0.0
O241 O 0.85659 0.46426 0.08679 0.0
O242 O 0.91209 0.31389 0.09149 0.0
O243 O 0.84673 0.31117 0.10984 0.0
C244 C 0.70735 0.54447 0.15803 0.0
C245 C 0.68206 0.55318 0.13669 0.0
H246 H 0.64631 0.56981 0.09131 0.0
H247 H 0.68244 0.52308 0.05228 0.0
H248 H 0.84584 0.47631 0.18749 0.0
H249 H 0.76887 0.52788 0.19439 0.0
H250 H 0.69421 0.56685 0.17552 0.0
H251 H 0.64973 0.58165 0.13811 0.0
Mn252 Mn 0.90355 0.3579 0.70258 0.0
Mn253 Mn 0.81343 0.38758 0.66749 0.0
C254 C 0.89168 0.26857 0.66883 0.0
C255 C 0.94685 0.30382 0.73318 0.0
C256 C 0.8964 0.48885 0.66701 0.0
O257 O 0.86206 0.41669 0.72693 0.0
O258 O 0.80544 0.4367 0.70116 0.0
C259 C 0.73829 0.31011 0.69201 0.0
N260 N 0.76212 0.3225 0.6715 0.0
C261 C 0.70181 0.2737 0.64573 0.0
C262 C 0.67656 0.2604 0.66659 0.0
C263 C 0.69514 0.27757 0.68982 0.0
C264 C 0.74478 0.30488 0.64907 0.0
H265 H 0.75172 0.32653 0.70983 0.0
C266 C 0.82299 0.4418 0.72239 0.0
O267 O 0.95586 0.37213 0.72484 0.0
O268 O 0.91102 0.26788 0.7248 0.0
N269 N 0.81367 0.34449 0.63459 0.0
C270 C 0.84443 0.35277 0.61671 0.0
C271 C 0.8329 0.33141 0.59239 0.0
C272 C 0.78959 0.30357 0.58675 0.0
C273 C 0.75862 0.29517 0.60558 0.0
C274 C 0.77232 0.31614 0.62944 0.0
H275 H 0.87714 0.37654 0.62104 0.0
O276 O 0.93109 0.29253 0.67579 0.0
O277 O 0.8579 0.30752 0.6794 0.0
O278 O 0.91618 0.45869 0.68445 0.0
O279 O 0.85885 0.46455 0.65941 0.0
C280 C 0.71485 0.26632 0.6017 0.0
C281 C 0.6863 0.25649 0.62174 0.0
H282 H 0.64308 0.23618 0.66499 0.0
H283 H 0.67587 0.26741 0.70599 0.0
H284 H 0.85706 0.33772 0.57799 0.0
H285 H 0.78067 0.28782 0.56796 0.0
H286 H 0.70298 0.25057 0.58341 0.0
H287 H 0.65287 0.23356 0.61853 0.0
Mn288 Mn 0.63405 0.09455 0.94597 0.0
Mn289 Mn 0.73273 0.10333 0.91702 0.0
C290 C 0.64937 0.99141 0.91683 0.0
C291 C 0.58601 0.05484 0.97678 0.0
C292 C 0.65506 0.21284 0.90751 0.0
O293 O 0.67151 0.16563 0.96983 0.0
O294 O 0.73701 0.15858 0.94981 0.0
C295 C 0.79726 0.01955 0.94697 0.0
N296 N 0.77877 0.03202 0.92496 0.0
C297 C 0.84082 0.97006 0.90345 0.0
C298 C 0.8605 0.95585 0.9259 0.0
C299 C 0.83836 0.97983 0.94774 0.0
C300 C 0.79962 0.00855 0.90387 0.0
H301 H 0.78114 0.04113 0.96371 0.0
C302 C 0.71328 0.1798 0.96836 0.0
O303 O 0.578 0.11736 0.96494 0.0
O304 O 0.62308 0.01768 0.97178 0.0
N305 N 0.73583 0.05239 0.88512 0.0
C306 C 0.70719 0.05322 0.866 0.0
C307 C 0.72207 0.02616 0.84266 0.0
C308 C 0.76584 -0.0029 0.83951 0.0
C309 C 0.79341 0.99142 0.85994 0.0
C310 C 0.77671 0.01959 0.8826 0.0
H311 H 0.67389 0.07686 0.86856 0.0
O312 O 0.6095 0.01801 0.92126 0.0
O313 O 0.68214 0.03271 0.92783 0.0
O314 O 0.62741 0.18219 0.92171 0.0
O315 O 0.69457 0.1877 0.9056 0.0
C316 C 0.83616 0.95681 0.85892 0.0
C317 C 0.85996 0.94652 0.88067 0.0
H318 H 0.89234 0.92585 0.92658 0.0
H319 H 0.8534 0.96921 0.9651 0.0
H320 H 0.70006 0.02826 0.82714 0.0
H321 H 0.77719 0.97607 0.82152 0.0
H322 H 0.85048 0.93577 0.84159 0.0
H323 H 0.8923 0.91799 0.8797 0.0
Mn324 Mn 0.64498 0.1248 0.32027 0.0
Mn325 Mn 0.74046 0.10572 0.35265 0.0
C326 C 0.65823 0.20944 0.35477 0.0
C327 C 0.59986 0.1764 0.29046 0.0
C328 C 0.66188 0.99232 0.35485 0.0
O329 O 0.68597 0.06488 0.29566 0.0
O330 O 0.74837 0.06014 0.31855 0.0
C331 C 0.8062 0.20167 0.32692 0.0
N332 N 0.78417 0.18608 0.34777 0.0
C333 C 0.83827 0.26037 0.37242 0.0
C334 C 0.86163 0.27685 0.35121 0.0
C335 C 0.84504 0.2487 0.32834 0.0
C336 C 0.79901 0.21544 0.3698 0.0
H337 H 0.79491 0.17674 0.30942 0.0
C338 C 0.72721 0.04826 0.2984 0.0
O339 O 0.59187 0.10796 0.29905 0.0
O340 O 0.63608 0.21331 0.29788 0.0
N341 N 0.73857 0.14919 0.38565 0.0
C342 C 0.71142 0.12965 0.40419 0.0
C343 C 0.72072 0.15955 0.42809 0.0
C344 C 0.75894 0.20666 0.43279 0.0
C345 C 0.78678 0.22502 0.41341 0.0
C346 C 0.77443 0.19683 0.38985 0.0
H347 H 0.68317 0.09127 0.4007 0.0
O348 O 0.61812 0.19447 0.34679 0.0
O349 O 0.69036 0.17294 0.34252 0.0
O350 O 0.63677 0.02562 0.33996 0.0
O351 O 0.70077 0.01741 0.36041 0.0
C352 C 0.82674 0.26882 0.41656 0.0
C353 C 0.85291 0.28502 0.3961 0.0
H354 H 0.89245 0.31069 0.35227 0.0
H355 H 0.86294 0.26109 0.3119 0.0
H356 H 0.69912 0.14468 0.44293 0.0
H357 H 0.76673 0.22792 0.45133 0.0
H358 H 0.8378 0.28988 0.4346 0.0
H359 H 0.8842 0.31647 0.39883 0.0
Mn360 Mn 0.41088 0.88 0.07366 0.0
Mn361 Mn 0.31658 0.87888 0.10804 0.0
C362 C 0.40261 0.97045 0.10737 0.0
C363 C 0.45585 0.92543 0.04242 0.0
C364 C 0.38996 0.75773 0.11118 0.0
O365 O 0.36673 0.82252 0.05036 0.0
O366 O 0.3064 0.82476 0.0751 0.0
C367 C 0.25163 0.97093 0.08102 0.0
N368 N 0.27403 0.95906 0.10198 0.0
C369 C 0.21873 0.03146 0.12612 0.0
C370 C 0.19514 0.04469 0.10476 0.0
C371 C 0.21216 0.01574 0.08207 0.0
C372 C 0.25881 0.98943 0.12382 0.0
H373 H 0.26297 0.94415 0.06379 0.0
C374 C 0.32575 0.80738 0.05465 0.0
O375 O 0.46252 0.85695 0.0513 0.0
O376 O 0.42145 0.96566 0.05054 0.0
N377 N 0.32019 0.92832 0.1402 0.0
C378 C 0.34745 0.9109 0.15892 0.0
C379 C 0.33737 0.94133 0.18268 0.0
C380 C 0.2982 0.9857 0.18707 0.0
C381 C 0.27024 0.00124 0.16753 0.0
C382 C 0.28351 0.97356 0.14408 0.0
H383 H 0.37629 0.87328 0.15574 0.0
O384 O 0.4416 0.94868 0.09914 0.0
O385 O 0.36845 0.93747 0.09595 0.0
O386 O 0.41513 0.78013 0.09417 0.0
O387 O 0.35455 0.79409 0.1174 0.0
C388 C 0.22944 0.04214 0.17034 0.0
C389 C 0.20332 0.05574 0.14968 0.0
H390 H 0.16376 0.07642 0.10556 0.0
H391 H 0.19398 0.02526 0.06553 0.0
H392 H 0.35895 0.92848 0.19768 0.0
H393 H 0.28976 0.00703 0.20552 0.0
H394 H 0.21768 0.06285 0.18827 0.0
H395 H 0.17134 0.08472 0.15214 0.0
Mn396 Mn 0.407 0.87474 0.69444 0.0
Mn397 Mn 0.31765 0.89682 0.65725 0.0
C398 C 0.39827 0.79097 0.65926 0.0
C399 C 0.44643 0.81974 0.72625 0.0
C400 C 0.39757 0.00763 0.65905 0.0
O401 O 0.3626 0.93575 0.71696 0.0
O402 O 0.30529 0.94461 0.69055 0.0
C403 C 0.24671 0.8051 0.68042 0.0
N404 N 0.27202 0.81868 0.66051 0.0
C405 C 0.22084 0.74465 0.63392 0.0
C406 C 0.19407 0.73049 0.65413 0.0
C407 C 0.20752 0.7595 0.67752 0.0
C408 C 0.26015 0.78858 0.63803 0.0
H409 H 0.25571 0.83055 0.69826 0.0
C410 C 0.32267 0.95559 0.71177 0.0
O411 O 0.45693 0.88821 0.71836 0.0
O412 O 0.41099 0.78503 0.71689 0.0
N413 N 0.32379 0.85169 0.62459 0.0
C414 C 0.35374 0.8697 0.60716 0.0
C415 C 0.34753 0.83905 0.58303 0.0
C416 C 0.30956 0.79278 0.5769 0.0
C417 C 0.27875 0.77612 0.59511 0.0
C418 C 0.28794 0.80517 0.61903 0.0
H419 H 0.3819 0.90741 0.6117 0.0
O420 O 0.43715 0.80468 0.66906 0.0
O421 O 0.36485 0.82848 0.66997 0.0
O422 O 0.41933 0.97453 0.67547 0.0
O423 O 0.35998 0.98257 0.65112 0.0
C424 C 0.23893 0.73297 0.59045 0.0
C425 C 0.20966 0.71841 0.6098 0.0
H426 H 0.16303 0.69773 0.65191 0.0
H427 H 0.18701 0.74879 0.6932 0.0
H428 H 0.37137 0.85264 0.56909 0.0
H429 H 0.30424 0.77085 0.55816 0.0
H430 H 0.23044 0.71092 0.57208 0.0
H431 H 0.17878 0.68659 0.60593 0.0
Mn432 Mn 0.65028 0.59846 0.44647 0.0
Mn433 Mn 0.74788 0.61736 0.41666 0.0
C434 C 0.66701 0.50168 0.41547 0.0
C435 C 0.60078 0.55395 0.47574 0.0
C436 C 0.66738 0.71972 0.40865 0.0
O437 O 0.68672 0.66344 0.47183 0.0
O438 O 0.74894 0.6749 0.44949 0.0
C439 C 0.81238 0.54121 0.44876 0.0
N440 N 0.79568 0.55167 0.42618 0.0
C441 C 0.86063 0.49253 0.40675 0.0
C442 C 0.87858 0.48088 0.42979 0.0
C443 C 0.85407 0.50436 0.45088 0.0
C444 C 0.81856 0.52761 0.40581 0.0
H445 H 0.79436 0.56192 0.46494 0.0
C446 C 0.72688 0.68653 0.4693 0.0
O447 O 0.59419 0.61927 0.46515 0.0
O448 O 0.63738 0.5155 0.47028 0.0
N449 N 0.7557 0.56612 0.38497 0.0
C450 C 0.73076 0.57097 0.36451 0.0
C451 C 0.74869 0.54464 0.34179 0.0
C452 C 0.79244 0.51485 0.34036 0.0
C453 C 0.81725 0.50932 0.36179 0.0
C454 C 0.79736 0.53571 0.38386 0.0
H455 H 0.69783 0.59547 0.36562 0.0
O456 O 0.62693 0.52765 0.41978 0.0
O457 O 0.69933 0.54175 0.4272 0.0
O458 O 0.64362 0.69295 0.42527 0.0
O459 O 0.70586 0.69305 0.4035 0.0
C460 C 0.86075 0.4781 0.36219 0.0
C461 C 0.88252 0.47007 0.38465 0.0
H462 H 0.91093 0.45333 0.43151 0.0
H463 H 0.86769 0.49555 0.46871 0.0
H464 H 0.72909 0.54835 0.32539 0.0
H465 H 0.80629 0.49499 0.32281 0.0
H466 H 0.87743 0.45872 0.34536 0.0
H467 H 0.91563 0.44451 0.38474 0.0
Mn468 Mn 0.61687 0.62134 0.82074 0.0
Mn469 Mn 0.71195 0.59608 0.85321 0.0
C470 C 0.63215 0.70462 0.85539 0.0
C471 C 0.57381 0.67663 0.79038 0.0
C472 C 0.63109 0.48812 0.85537 0.0
O473 O 0.65702 0.55797 0.7962 0.0
O474 O 0.71911 0.55105 0.81924 0.0
C475 C 0.77954 0.68825 0.82765 0.0
N476 N 0.75726 0.67352 0.8485 0.0
C477 C 0.81346 0.74154 0.87327 0.0
C478 C 0.83721 0.75677 0.85208 0.0
C479 C 0.81971 0.7315 0.82916 0.0
C480 C 0.77296 0.70034 0.87059 0.0
H481 H 0.76736 0.66544 0.81007 0.0
C482 C 0.69811 0.5399 0.79907 0.0
O483 O 0.56349 0.60938 0.79914 0.0
O484 O 0.61057 0.71054 0.79827 0.0
N485 N 0.7108 0.63847 0.8863 0.0
C486 C 0.68337 0.61962 0.90482 0.0
C487 C 0.69359 0.6475 0.92881 0.0
C488 C 0.73294 0.69146 0.93358 0.0
C489 C 0.76112 0.70871 0.91423 0.0
C490 C 0.74792 0.68286 0.89061 0.0
H491 H 0.65416 0.58328 0.90127 0.0
O492 O 0.59168 0.69333 0.84744 0.0
O493 O 0.66321 0.66578 0.84305 0.0
O494 O 0.60636 0.5226 0.84052 0.0
O495 O 0.67057 0.51058 0.86059 0.0
C496 C 0.80218 0.74912 0.91743 0.0
C497 C 0.82872 0.76411 0.89699 0.0
H498 H 0.869 0.78756 0.85316 0.0
H499 H 0.83786 0.74312 0.81273 0.0
H500 H 0.67179 0.63341 0.94364 0.0
H501 H 0.74137 0.71105 0.95218 0.0
H502 H 0.81379 0.76851 0.93551 0.0
H503 H 0.86067 0.79339 0.89972 0.0
Mn504 Mn 0.41132 0.40081 0.56811 0.0
Mn505 Mn 0.3138 0.38272 0.59811 0.0
C506 C 0.3942 0.49896 0.59854 0.0
C507 C 0.46124 0.44334 0.5388 0.0
C508 C 0.3944 0.28167 0.60674 0.0
O509 O 0.37491 0.33484 0.54296 0.0
O510 O 0.31346 0.32139 0.56585 0.0
C511 C 0.24957 0.45446 0.56488 0.0
N512 N 0.26592 0.44673 0.58768 0.0
C513 C 0.20113 0.50977 0.60608 0.0
C514 C 0.18359 0.5186 0.58278 0.0
C515 C 0.2082 0.49172 0.56208 0.0
C516 C 0.24289 0.4738 0.60767 0.0
H517 H 0.26762 0.43136 0.54904 0.0
C518 C 0.3352 0.30995 0.54592 0.0
O519 O 0.46769 0.3789 0.54984 0.0
O520 O 0.4246 0.48222 0.54383 0.0
N521 N 0.30526 0.43729 0.62931 0.0
C522 C 0.32964 0.43417 0.65004 0.0
C523 C 0.31123 0.46278 0.67243 0.0
C524 C 0.26762 0.49326 0.67326 0.0
C525 C 0.24344 0.4973 0.65156 0.0
C526 C 0.26369 0.46822 0.62985 0.0
H527 H 0.36249 0.40921 0.64942 0.0
O528 O 0.4344 0.47313 0.59449 0.0
O529 O 0.36206 0.45791 0.58699 0.0
O530 O 0.41773 0.30747 0.5898 0.0
O531 O 0.35615 0.30917 0.61215 0.0
C532 C 0.20034 0.52997 0.65053 0.0
C533 C 0.17916 0.5361 0.6278 0.0
H534 H 0.1515 0.54659 0.58056 0.0
H535 H 0.19492 0.49833 0.54404 0.0
H536 H 0.33038 0.46037 0.68904 0.0
H537 H 0.25345 0.5151 0.69055 0.0
H538 H 0.18355 0.5521 0.66706 0.0
H539 H 0.14641 0.56286 0.6272 0.0
Mn540 Mn 0.40949 0.35336 0.20293 0.0
Mn541 Mn 0.3161 0.36977 0.1705 0.0
C542 C 0.39817 0.26457 0.16919 0.0
C543 C 0.45839 0.29895 0.23114 0.0
C544 C 0.39198 0.48206 0.16785 0.0
O545 O 0.3689 0.40086 0.2293 0.0
O546 O 0.31245 0.42557 0.20392 0.0
C547 C 0.2463 0.29473 0.19986 0.0
N548 N 0.26651 0.30433 0.17807 0.0
C549 C 0.20208 0.25319 0.15604 0.0
C550 C 0.18062 0.2425 0.17828 0.0
C551 C 0.20313 0.26213 0.20028 0.0
C552 C 0.24557 0.2834 0.1568 0.0
H553 H 0.26252 0.3135 0.2167 0.0
C554 C 0.33024 0.42798 0.22519 0.0
O555 O 0.46426 0.36947 0.22344 0.0
O556 O 0.42309 0.26111 0.2231 0.0
N557 N 0.3113 0.32149 0.13825 0.0
C558 C 0.33817 0.32977 0.11857 0.0
C559 C 0.32195 0.3076 0.09513 0.0
C560 C 0.27794 0.27942 0.09216 0.0
C561 C 0.25102 0.27131 0.11275 0.0
C562 C 0.26936 0.29258 0.13564 0.0
H563 H 0.3713 0.35478 0.12074 0.0
O564 O 0.43657 0.29704 0.17424 0.0
O565 O 0.36389 0.29628 0.18124 0.0
O566 O 0.41199 0.46189 0.18676 0.0
O567 O 0.36028 0.44143 0.15867 0.0
C568 C 0.20667 0.24349 0.11151 0.0
C569 C 0.18209 0.2351 0.13312 0.0
H570 H 0.14699 0.21882 0.17867 0.0
H571 H 0.18676 0.25423 0.21751 0.0
H572 H 0.34295 0.31393 0.07934 0.0
H573 H 0.26532 0.26348 0.07404 0.0
H574 H 0.19125 0.22768 0.09405 0.0
H575 H 0.14813 0.21298 0.13193 0.0
C576 C 0.29274 0.19613 0.52519 0.0
C577 C 0.30963 0.27484 0.52461 0.0
C578 C 0.26616 0.29429 0.48746 0.0
C579 C 0.24699 0.21728 0.48892 0.0
N580 N 0.24093 0.09439 0.5093 0.0
N581 N 0.31062 0.40202 0.50653 0.0
C582 C 0.25982 0.16822 0.50791 0.0
C583 C 0.29632 0.32445 0.50591 0.0
N584 N 0.30987 0.14705 0.54172 0.0
N585 N 0.25532 0.33874 0.46835 0.0
H586 H 0.3333 0.42647 0.51929 0.0
H587 H 0.29805 0.44444 0.49545 0.0
H588 H 0.23 0.32273 0.45597 0.0
H589 H 0.27239 0.38996 0.46404 0.0
H590 H 0.30277 0.08651 0.54194 0.0
H591 H 0.33438 0.16564 0.55431 0.0
H592 H 0.24396 0.06014 0.52428 0.0
H593 H 0.2204 0.06759 0.49586 0.0
C594 C 0.04102 0.97106 0.53678 0.0
C595 C 0.99827 0.94684 0.52777 0.0
C596 C 1.01906 0.9865 0.48703 0.0
C597 C 0.06251 0.00767 0.49581 0.0
N598 N 0.1172 0.00974 0.52794 0.0
N599 N 0.94869 0.91895 0.49388 0.0
C600 C 0.07428 -0.00384 0.52031 0.0
C601 C 0.98781 0.95139 0.50277 0.0
N602 N 0.04902 0.97448 0.56132 0.0
N603 N 1.00759 3e-05 0.46359 0.0
H604 H 0.92517 0.89268 0.50486 0.0
H605 H 0.94087 0.91208 0.47543 0.0
H606 H 0.03026 0.01894 0.45078 0.0
H607 H 0.97507 -0.00387 0.457 0.0
H608 H 0.07744 0.00015 0.56941 0.0
H609 H 0.02559 0.95758 0.57403 0.0
H610 H 0.12937 0.99326 0.54459 0.0
H611 H 0.14177 0.0329 0.51695 0.0
C612 C 0.27414 0.0618 0.73243 0.0
C613 C 0.29164 0.98315 0.73164 0.0
C614 C 0.23839 0.94869 0.76334 0.0
C615 C 0.22612 0.02952 0.76676 0.0
N616 N 0.22824 0.16317 0.75388 0.0
N617 N 0.29126 0.85105 0.74664 0.0
C618 C 0.24246 0.08601 0.75085 0.0
C619 C 0.27397 0.92632 0.7472 0.0
N620 N 0.28792 0.11303 0.71559 0.0
N621 N 0.21453 0.8932 0.77496 0.0
H622 H 0.31584 0.83066 0.73437 0.0
H623 H 0.28326 0.81002 0.75936 0.0
H624 H 0.18642 0.90905 0.78538 0.0
H625 H 0.21905 0.83194 0.77211 0.0
H626 H 0.27365 0.16845 0.71348 0.0
H627 H 0.3128 0.09861 0.70279 0.0
H628 H 0.24196 0.21016 0.74496 0.0
H629 H 0.20305 0.18066 0.7662 0.0
C630 C 0.05493 0.21217 0.75542 0.0
C631 C 0.04557 0.20771 0.78059 0.0
C632 C 0.96867 0.25328 0.77382 0.0
C633 C 0.97952 0.26547 0.74921 0.0
N634 N 0.03369 0.26084 0.71656 0.0
N635 N 0.9955 0.23198 0.81459 0.0
C636 C 1.02291 0.24625 0.74004 0.0
C637 C 1.00279 0.22969 0.78999 0.0
N638 N 0.09363 0.18017 0.74595 0.0
N639 N 0.92581 0.26465 0.78179 0.0
H640 H 1.01968 0.21613 0.82698 0.0
H641 H 0.96692 0.25554 0.82301 0.0
H642 H 0.90057 0.28537 0.77083 0.0
H643 H 0.91438 0.24841 0.79865 0.0
H644 H 0.10043 0.17305 0.72737 0.0
H645 H 0.11768 0.15408 0.75653 0.0
H646 H 0.06614 0.25883 0.70979 0.0
H647 H 1.01052 0.27895 0.70396 0.0
C648 C 0.79928 0.82517 0.51075 0.0
C649 C 0.80973 0.77398 0.52949 0.0
C650 C 0.76213 0.66876 0.51013 0.0
C651 C 0.75227 0.71933 0.491 0.0
N652 N 0.76363 0.84248 0.47174 0.0
N653 N 0.8069 0.64515 0.54588 0.0
C654 C 0.77164 0.79662 0.49092 0.0
C655 C 0.79256 0.6953 0.5289 0.0
N656 N 0.81466 0.90209 0.51242 0.0
N657 N 0.74268 0.59499 0.51025 0.0
H658 H 0.82936 0.66298 0.55969 0.0
H659 H 0.79953 0.5846 0.54546 0.0
H660 H 0.72358 0.5697 0.49592 0.0
H661 H 0.74367 0.55932 0.52499 0.0
H662 H 0.8044 0.94584 0.50115 0.0
H663 H 0.83657 0.92391 0.52602 0.0
H664 H 0.78064 0.89503 0.46878 0.0
H665 H 0.74073 0.82644 0.458 0.0
C666 C 0.77456 0.94689 0.27482 0.0
C667 C 0.75443 0.02333 0.27655 0.0
C668 C 0.79553 0.05994 0.23997 0.0
C669 C 0.8152 0.98308 0.23807 0.0
N670 N 0.81853 0.84875 0.2511 0.0
N671 N 0.74974 0.15698 0.26315 0.0
C672 C 0.80378 0.92554 0.25497 0.0
C673 C 0.76564 0.08083 0.25959 0.0
N674 N 0.76627 0.89515 0.2925 0.0
N675 N 0.80497 0.11238 0.22263 0.0
H676 H 0.72766 0.17486 0.27709 0.0
H677 H 0.76019 0.20448 0.25335 0.0
H678 H 0.82911 0.1013 0.20916 0.0
H679 H 0.788 0.16548 0.22079 0.0
H680 H 0.78411 0.84296 0.2944 0.0
H681 H 0.74276 0.90639 0.30629 0.0
H682 H 0.8072 0.80149 0.26076 0.0
H683 H 0.84 0.83015 0.23694 0.0
C684 C 0.99966 0.81355 0.26463 0.0
C685 C 0.99241 0.77676 0.24101 0.0
C686 C 0.04502 0.67006 0.24974 0.0
C687 C 0.05477 0.71004 0.27271 0.0
N688 N 0.04417 0.82329 0.30153 0.0
N689 N 1.01184 0.67593 0.20961 0.0
C690 C 0.03306 0.78305 0.27994 0.0
C691 C 1.01581 0.7062 0.23322 0.0
N692 N 0.97303 0.87561 0.27283 0.0
N693 N 0.06381 0.59742 0.24366 0.0
H694 H 0.99057 0.69994 0.19705 0.0
H695 H 0.03179 0.63053 0.20184 0.0
H696 H 0.08806 0.57201 0.25427 0.0
H697 H 0.05385 0.56024 0.22876 0.0
H698 H 0.9729 0.89997 0.29073 0.0
H699 H 0.94798 0.89875 0.26222 0.0
H700 H 0.03407 0.88133 0.3064 0.0
H701 H 0.0657 0.80075 0.31421 0.0
C702 C 0.2807 0.82501 0.0169 0.0
C703 C 0.29706 0.77399 0.03447 0.0
C704 C 0.24737 0.66687 0.01831 0.0
C705 C 0.23429 0.71487 0.99938 0.0
N706 N 0.239 0.83772 0.97945 0.0
N707 N 0.30242 0.64297 0.04928 0.0
C708 C 0.25078 0.79385 0.9985 0.0
C709 C 0.28184 0.69408 0.03461 0.0
N710 N 0.29348 0.90336 0.01797 0.0
N711 N 0.22703 0.59478 0.02043 0.0
H712 H 0.32995 0.66012 0.05998 0.0
H713 H 0.29562 0.58214 0.04892 0.0
H714 H 0.20174 0.57383 1.00861 0.0
H715 H 0.23216 0.55939 0.03501 0.0
H716 H 0.27901 0.94598 1.00761 0.0
H717 H 0.31719 0.92724 0.03028 0.0
H718 H 0.25389 0.89162 0.97574 0.0
H719 H 0.21503 0.81825 0.96662 0.0
C720 C 0.03028 0.58119 1.00435 0.0
C721 C 0.05049 0.52783 0.98665 0.0
C722 C 0.99977 0.42137 0.99873 0.0
C723 C 0.97821 0.4763 0.01574 0.0
N724 N 0.96334 0.61638 0.02665 0.0
N725 N 0.04743 0.40173 0.96305 0.0
C726 C 0.99029 0.55859 0.01608 0.0
C727 C 0.03344 0.44894 0.98279 0.0
N728 N 0.05024 0.65266 0.0109 0.0
N729 N 0.98723 0.34297 0.99725 0.0
H730 H 0.07073 0.42032 0.95052 0.0
H731 H 0.03303 0.34691 0.95772 0.0
H732 H 0.95853 0.32246 1.00559 0.0
H733 H 1.00577 0.29802 0.98812 0.0
H734 H 0.03945 0.68993 0.02563 0.0
H735 H 0.08043 0.67054 1.00352 0.0
H736 H 0.96949 0.67704 0.02539 0.0
H737 H 0.93192 0.60558 0.03367 0.0
C738 C 0.28532 0.53602 0.24704 0.0
C739 C 0.30173 0.45698 0.2461 0.0
C740 C 0.25581 0.42934 0.28179 0.0
C741 C 0.23643 0.50613 0.28127 0.0
N742 N 0.22949 0.63087 0.26211 0.0
N743 N 0.29964 0.32474 0.26097 0.0
C744 C 0.24999 0.5587 0.26337 0.0
C745 C 0.28646 0.40274 0.26318 0.0
N746 N 0.30546 0.59064 0.23324 0.0
N747 N 0.2451 0.38203 0.30028 0.0
H748 H 0.32242 0.30251 0.24794 0.0
H749 H 0.28555 0.28018 0.27082 0.0
H750 H 0.22034 0.39683 0.31312 0.0
H751 H 0.26219 0.33018 0.30371 0.0
H752 H 0.29828 0.65129 0.23461 0.0
H753 H 0.33296 0.57655 0.22215 0.0
H754 H 0.23407 0.66751 0.24776 0.0
H755 H 0.20544 0.65235 0.27453 0.0
C756 C 0.75702 0.29452 0.98775 0.0
C757 C 0.73766 0.21794 0.98959 0.0
C758 C 0.77982 0.20145 0.02732 0.0
C759 C 0.79726 0.27964 0.02615 0.0
N760 N 0.79849 0.40529 1.00729 0.0
N761 N 0.72706 0.10034 0.01187 0.0
C762 C 0.78497 0.32735 1.00683 0.0
C763 C 0.74785 0.17212 0.00971 0.0
N764 N 0.74905 0.33545 0.9675 0.0
N765 N 0.7953 0.15433 0.04483 0.0
H766 H 0.70525 0.07496 0.99879 0.0
H767 H 0.72903 0.06782 0.02729 0.0
H768 H 0.81899 0.17401 0.05777 0.0
H769 H 0.78761 0.09413 0.04552 0.0
H770 H 0.7665 0.38645 0.96334 0.0
H771 H 0.72615 0.31619 0.95408 0.0
H772 H 0.78637 0.44617 0.99554 0.0
H773 H 0.81985 0.43118 0.02054 0.0
C774 C 0.7462 0.43503 0.77777 0.0
C775 C 0.72576 0.51111 0.77778 0.0
C776 C 0.77429 0.54566 0.7438 0.0
C777 C 0.79287 0.46804 0.74291 0.0
N778 N 0.7913 0.33381 0.75624 0.0
N779 N 0.7168 0.63672 0.75942 0.0
C780 C 0.7776 0.41143 0.75923 0.0
C781 C 0.73855 0.56556 0.76024 0.0
N782 N 0.73588 0.38549 0.79575 0.0
N783 N 0.79228 0.60136 0.72956 0.0
H784 H 0.69222 0.65575 0.77186 0.0
H785 H 0.72083 0.67504 0.74547 0.0
H786 H 0.81874 0.58876 0.7176 0.0
H787 H 0.78384 0.66146 0.73092 0.0
H788 H 0.75378 0.33423 0.79888 0.0
H789 H 0.7106 0.39786 0.80848 0.0
H790 H 0.7773 0.28779 0.76551 0.0
H791 H 0.81427 0.31341 0.74305 0.0
C792 C 0.56317 0.01739 0.01866 0.0
C793 C 0.55241 0.02323 0.99373 0.0
C794 C 0.47688 0.97151 1.00116 0.0
C795 C 0.48882 0.95969 0.02562 0.0
N796 N 0.54432 0.96535 0.05752 0.0
N797 N 0.50183 0.99405 0.96018 0.0
C798 C 0.53237 0.98052 0.03428 0.0
C799 C 0.50989 -0.00239 0.98471 0.0
N800 N 0.60198 0.05066 0.02767 0.0
N801 N 0.43394 0.95772 0.99361 0.0
H802 H 0.52506 0.01161 0.94745 0.0
H803 H 0.47366 0.96733 0.95212 0.0
H804 H 0.40951 0.9342 1.00463 0.0
H805 H 0.42164 0.97439 0.977 0.0
H806 H 0.60988 0.05649 0.04612 0.0
H807 H 0.62498 0.07886 0.01685 0.0
H808 H 0.57696 0.96917 0.06392 0.0
H809 H 0.52201 0.94465 0.07023 0.0
C810 C 0.50871 0.3129 0.26808 0.0
C811 C 0.49148 0.26435 0.24798 0.0
C812 C 0.55075 0.16657 0.25372 0.0
C813 C 0.56618 0.21218 0.27459 0.0
N814 N 0.55452 0.32176 0.30453 0.0
N815 N 0.48847 0.13183 0.22747 0.0
C816 C 0.544 0.28392 0.28248 0.0
C817 C 0.51006 0.18725 0.2425 0.0
N818 N 0.4904 0.38602 0.27396 0.0
N819 N 0.5757 0.10417 0.24414 0.0
H820 H 0.45722 0.1404 0.22003 0.0
H821 H 0.49897 0.07288 0.22483 0.0
H822 H 0.60617 0.08833 0.25158 0.0
H823 H 0.56869 0.074 0.22741 0.0
H824 H 0.50552 0.42918 0.28569 0.0
H825 H 0.46032 0.40443 0.26671 0.0
H826 H 0.53601 0.36847 0.31272 0.0
H827 H 0.5798 0.3029 0.31574 0.0
C828 C 0.48638 0.8183 0.76658 0.0
C829 C 0.47681 0.78018 0.74331 0.0
C830 C 0.53264 0.67657 0.75044 0.0
C831 C 0.54259 0.71518 0.77357 0.0
N832 N 0.52529 0.81613 0.80534 0.0
N833 N 0.49509 0.67994 0.71142 0.0
C834 C 0.5188 0.78485 0.78199 0.0
C835 C 0.5007 0.71054 0.73491 0.0
N836 N 0.46463 0.88733 0.77379 0.0
N837 N 0.55352 0.60648 0.74344 0.0
H838 H 0.47207 0.70206 0.69944 0.0
H839 H 0.51513 0.63587 0.70301 0.0
H840 H 0.57971 0.58337 0.75323 0.0
H841 H 0.5438 0.56893 0.72859 0.0
H842 H 0.47349 0.92452 0.78888 0.0
H843 H 0.43813 0.9096 0.76405 0.0
H844 H 0.50598 0.8611 0.81382 0.0
H845 H 0.5487 0.79402 0.81712 0.0
C846 C 0.48887 0.47349 0.49714 0.0
C847 C 0.49636 0.47335 0.52258 0.0
C848 C 0.57411 0.51671 0.51696 0.0
C849 C 0.56574 0.52222 0.49174 0.0
N850 N 0.51507 0.50969 0.45756 0.0
N851 N 0.54371 0.50353 0.55744 0.0
C852 C 0.523 0.50196 0.48179 0.0
C853 C 0.53846 0.49685 0.53267 0.0
N854 N 0.44987 0.44276 0.48755 0.0
N855 N 0.6162 0.53047 0.5259 0.0
H856 H 0.51867 0.48914 0.56958 0.0
H857 H 0.57152 0.52906 0.5662 0.0
H858 H 0.64249 0.54978 0.51532 0.0
H859 H 0.62602 0.51811 0.54339 0.0
H860 H 0.44398 0.43228 0.46898 0.0
H861 H 0.42404 0.42227 0.49826 0.0
H862 H 0.48349 0.50639 0.44974 0.0
H863 H 0.54 0.52276 0.44518 0.0
C864 C 0.11621 0.78853 0.39375 0.0
C865 C 0.14701 0.77648 0.37417 0.0
C866 C 0.19035 0.8876 0.39211 0.0
C867 C 0.15412 0.91549 0.40623 0.0
N868 N 0.08586 0.87632 0.42611 0.0
N869 N 0.20998 0.82996 0.35264 0.0
C870 C 0.11772 0.86121 0.4087 0.0
C871 C 0.18313 0.83044 0.37263 0.0
N872 N 0.08715 0.72907 0.3989 0.0
N873 N 0.2322 0.90286 0.40006 0.0
H874 H 0.20333 0.79589 0.33654 0.0
H875 H 0.23668 0.86948 0.35168 0.0
H876 H 0.2376 0.9268 0.41777 0.0
H877 H 0.25987 0.87984 0.39059 0.0
H878 H 0.06709 0.73046 0.41438 0.0
H879 H 0.08614 0.67442 0.3889 0.0
H880 H 0.05479 0.84835 0.42583 0.0
H881 H 0.09124 0.9151 0.44134 0.0
C882 C 0.1244 0.27851 0.37288 0.0
C883 C 0.13148 0.28795 0.3984 0.0
C884 C 0.11772 0.43045 0.39646 0.0
C885 C 0.12461 0.4233 0.37094 0.0
N886 N 0.1323 0.3382 0.33416 0.0
N887 N 0.13393 0.37573 0.43503 0.0
C888 C 0.12652 0.34646 0.35882 0.0
C889 C 0.12697 0.36457 0.41051 0.0
N890 N 0.11418 0.20506 0.36238 0.0
N891 N 0.10124 0.49966 0.40703 0.0
H892 H 0.14072 0.32919 0.44607 0.0
H893 H 0.13581 0.43214 0.44406 0.0
H894 H 0.09169 0.54589 0.39645 0.0
H895 H 0.09246 0.50699 0.42538 0.0
H896 H 0.10588 0.19509 0.34403 0.0
H897 H 0.10872 0.15648 0.37293 0.0
H898 H 0.13896 0.28354 0.32483 0.0
H899 H 0.1326 0.38678 0.32329 0.0
C900 C 0.17414 0.29007 0.89599 0.0
C901 C 0.17642 0.28879 0.8702 0.0
C902 C 0.17774 0.43499 0.87311 0.0
C903 C 0.18093 0.43592 0.89887 0.0
N904 N 0.19237 0.36123 0.93441 0.0
N905 N 0.19106 0.36168 0.8345 0.0
C906 C 0.18338 0.36233 0.91011 0.0
C907 C 0.18266 0.36169 0.85891 0.0
N908 N 0.1599 0.22421 0.90708 0.0
N909 N 0.16622 0.50257 0.86217 0.0
H910 H 0.19365 0.30972 0.82319 0.0
H911 H 0.19962 0.41335 0.82605 0.0
H912 H 0.16013 0.55667 0.87197 0.0
H913 H 0.15894 0.503 0.84365 0.0
H914 H 0.1532 0.22465 0.92569 0.0
H915 H 0.1513 0.17101 0.89735 0.0
H916 H 0.19807 0.30853 0.94289 0.0
H917 H 0.19844 0.41279 0.94549 0.0
C918 C 0.20822 0.81405 0.88006 0.0
C919 C 0.1785 0.80235 0.89987 0.0
C920 C 0.13828 0.92335 0.88862 0.0
C921 C 0.16384 0.92392 0.86681 0.0
N922 N 0.21315 0.85215 0.83876 0.0
N923 N 0.11535 0.85278 0.9237 0.0
C924 C 0.19463 0.86207 0.86142 0.0
C925 C 0.14294 0.85825 0.9041 0.0
N926 N 0.25143 0.78821 0.87989 0.0
N927 N 0.11212 0.98729 0.89553 0.0
H928 H 0.12261 0.81817 0.93819 0.0
H929 H 0.08521 0.88327 0.92555 0.0
H930 H 0.10751 0.03529 0.88476 0.0
H931 H 0.09715 0.99531 0.9126 0.0
H932 H 0.27359 0.79924 0.86585 0.0
H933 H 0.26808 0.77082 0.89519 0.0
H934 H 0.23364 0.80385 0.83355 0.0
H935 H 0.20409 0.88749 0.82474 0.0
C936 C 0.85304 0.16022 0.64204 0.0
C937 C 0.88838 0.1837 0.65756 0.0
C938 C 0.92224 0.05296 0.64576 0.0
C939 C 0.89366 0.04521 0.62509 0.0
N940 N 0.83646 0.10702 0.60162 0.0
N941 N 0.95379 0.13748 0.67855 0.0
C942 C 0.86055 0.10361 0.62247 0.0
C943 C 0.92256 0.12585 0.66065 0.0
N944 N 0.81086 0.17725 0.64892 0.0
N945 N 0.94686 0.98919 0.65212 0.0
H946 H 0.94935 0.17717 0.69363 0.0
H947 H 0.98354 0.10565 0.6787 0.0
H948 H 0.94511 0.9333 0.64276 0.0
H949 H 0.96498 0.98863 0.66826 0.0
H950 H 0.78374 0.15759 0.6383 0.0
H951 H 0.80422 0.1981 0.66681 0.0
H952 H 0.81201 0.15021 0.59987 0.0
H953 H 0.84354 0.07198 0.58576 0.0
C954 C 0.92664 0.55807 0.63169 0.0
C955 C 0.91335 0.56198 0.65643 0.0
C956 C 0.88069 0.6918 0.65249 0.0
C957 C 0.89527 0.6924 0.62759 0.0
N958 N 0.93467 0.62358 0.59388 0.0
N959 N 0.89573 0.64405 0.69224 0.0
C960 C 0.92005 0.62547 0.61745 0.0
C961 C 0.89783 0.63398 0.66744 0.0
N962 N 0.94348 0.48801 0.62167 0.0
N963 N 0.84661 0.7386 0.66154 0.0
H964 H 0.90724 0.60064 0.70341 0.0
H965 H 0.88736 0.69832 0.70137 0.0
H966 H 0.83455 0.7362 0.67927 0.0
H967 H 0.82439 0.76754 0.65081 0.0
H968 H 0.94903 0.47595 0.60311 0.0
H969 H 0.95068 0.44053 0.63235 0.0
H970 H 0.9575 0.58205 0.58657 0.0
H971 H 0.92431 0.66378 0.58144 0.0
C972 C 0.85175 0.62265 0.11985 0.0
C973 C 0.88828 0.59238 0.10648 0.0
C974 C 0.92723 0.71796 0.11935 0.0
C975 C 0.89642 0.7303 0.13886 0.0
N976 N 0.83149 0.6796 0.15929 0.0
N977 N 0.95897 0.62762 0.08812 0.0
C978 C 0.85912 0.67862 0.13966 0.0
C979 C 0.92573 0.64497 0.10456 0.0
N980 N 0.81025 0.61086 0.11093 0.0
N981 N 0.95634 0.7773 0.11419 0.0
H982 H 0.95529 0.58593 0.07346 0.0
H983 H 0.98998 0.65586 0.08885 0.0
H984 H 0.9565 0.83267 0.12386 0.0
H985 H 0.97667 0.77524 0.0988 0.0
H986 H 0.78252 0.63613 0.11978 0.0
H987 H 0.80574 0.58678 0.09314 0.0
H988 H 0.80296 0.64425 0.15929 0.0
H989 H 0.83879 0.71025 0.17588 0.0
C990 C 0.93423 0.08234 0.12362 0.0
C991 C 0.92395 0.08436 0.14873 0.0
C992 C 0.89143 0.21575 0.14719 0.0
C993 C 0.90009 0.2157 0.12141 0.0
N994 N 0.93074 0.1457 0.08518 0.0
N995 N 0.91186 0.16308 0.18572 0.0
C996 C 0.92292 0.14874 0.10974 0.0
C997 C 0.91009 0.15562 0.16086 0.0
N998 N 0.95353 0.01503 0.11321 0.0
N999 N 0.86141 0.26646 0.15856 0.0
H1000 H 0.92438 0.11765 0.19582 0.0
H1001 H 0.90591 0.21665 0.19582 0.0
H1002 H 0.83793 0.29767 0.14941 0.0
H1003 H 0.85321 0.26561 0.17695 0.0
H1004 H 0.9593 0.00368 0.09467 0.0
H1005 H 0.96425 0.96971 0.12388 0.0
H1006 H 0.95071 0.10334 0.07592 0.0
H1007 H 0.91639 0.18476 0.07356 0.0
C1008 C 0.612 0.77953 0.89515 0.0
C1009 C 0.64125 0.76864 0.87482 0.0
C1010 C 0.68702 0.87602 0.89305 0.0
C1011 C 0.65184 0.90441 0.90771 0.0
N1012 N 0.58476 0.86663 0.92873 0.0
N1013 N 0.70421 0.82103 0.85297 0.0
C1014 C 0.61521 0.85108 0.9106 0.0
C1015 C 0.67814 0.82099 0.87324 0.0
N1016 N 0.58294 0.72019 0.90037 0.0
N1017 N 0.72915 0.88708 0.90101 0.0
H1018 H 0.69606 0.78997 0.83656 0.0
H1019 H 0.73211 0.85783 0.85227 0.0
H1020 H 0.73487 0.90877 0.91893 0.0
H1021 H 0.75623 0.86318 0.89124 0.0
H1022 H 0.56354 0.72117 0.9161 0.0
H1023 H 0.58153 0.66582 0.89017 0.0
H1024 H 0.5539 0.83822 0.92942 0.0
H1025 H 0.59103 0.90741 0.94339 0.0
C1026 C 0.65168 0.28372 0.86759 0.0
C1027 C 0.64158 0.28252 0.89312 0.0
C1028 C 0.60587 0.41434 0.89084 0.0
C1029 C 0.61676 0.41302 0.86581 0.0
N1030 N 0.63164 0.33529 0.8289 0.0
N1031 N 0.60748 0.3491 0.92894 0.0
C1032 C 0.63239 0.34275 0.85376 0.0
C1033 C 0.61716 0.34784 0.90461 0.0
N1034 N 0.68336 0.23537 0.85671 0.0
N1035 N 0.58633 0.48126 0.90136 0.0
H1036 H 0.62169 0.3103 0.9407 0.0
H1037 H 0.5856 0.38928 0.93777 0.0
H1038 H 0.57553 0.5269 0.89082 0.0
H1039 H 0.58108 0.49234 0.91997 0.0
H1040 H 0.69267 0.23762 0.8385 0.0
H1041 H 0.70662 0.2049 0.86627 0.0
H1042 H 0.63924 0.28225 0.81888 0.0
H1043 H 0.61854 0.37986 0.81865 0.0
C1044 C 0.63392 0.28704 0.39336 0.0
C1045 C 0.66511 0.27559 0.37391 0.0
C1046 C 0.70724 0.3876 0.39226 0.0
C1047 C 0.67044 0.41508 0.40595 0.0
N1048 N 0.60119 0.37569 0.42476 0.0
N1049 N 0.72782 0.33198 0.35277 0.0
C1050 C 0.63423 0.36027 0.40806 0.0
C1051 C 0.70082 0.33063 0.37264 0.0
N1052 N 0.60551 0.2268 0.39859 0.0
N1053 N 0.7487 0.40238 0.40084 0.0
H1054 H 0.72147 0.29887 0.33646 0.0
H1055 H 0.75417 0.37243 0.35214 0.0
H1056 H 0.75314 0.42609 0.41866 0.0
H1057 H 0.77676 0.3793 0.39174 0.0
H1058 H 0.58528 0.22808 0.41402 0.0
H1059 H 0.60548 0.17179 0.38883 0.0
H1060 H 0.57047 0.34646 0.42413 0.0
H1061 H 0.60499 0.41659 0.43963 0.0
C1062 C 0.64712 0.77626 0.36915 0.0
C1063 C 0.65082 0.78671 0.39486 0.0
C1064 C 0.63597 0.9283 0.39201 0.0
C1065 C 0.6462 0.92069 0.36685 0.0
N1066 N 0.659 0.8354 0.33061 0.0
N1067 N 0.64787 0.87546 0.43128 0.0
C1068 C 0.65045 0.84384 0.35502 0.0
C1069 C 0.64414 0.86336 0.40657 0.0
N1070 N 0.63838 0.70241 0.3585 0.0
N1071 N 0.6172 -0.00318 0.40168 0.0
H1072 H 0.65386 0.82958 0.4427 0.0
H1073 H 0.64797 0.93216 0.44019 0.0
H1074 H 0.60831 0.04195 0.39055 0.0
H1075 H 0.60603 0.00424 0.41964 0.0
H1076 H 0.63262 0.69172 0.33988 0.0
H1077 H 0.63131 0.65432 0.36898 0.0
H1078 H 0.66718 0.78087 0.32163 0.0
H1079 H 0.65988 0.8839 0.3197 0.0
C1080 C 0.43586 0.12827 0.15698 0.0
C1081 C 0.39774 0.1801 0.15759 0.0
C1082 C 0.36385 0.09442 0.12558 0.0
C1083 C 0.39921 0.03916 0.12585 0.0
N1084 N 0.46064 0.99174 0.14925 0.0
N1085 N 0.31857 0.16308 0.15555 0.0
C1086 C 0.43303 0.05248 0.14372 0.0
C1087 C 0.35927 0.15013 0.1456 0.0
N1088 N 0.47412 0.1478 0.16945 0.0
N1089 N 0.33521 0.09645 0.10648 0.0
H1090 H 0.31521 0.18435 0.17367 0.0
H1091 H 0.28982 0.14073 0.14693 0.0
H1092 H 0.34049 0.06475 0.08982 0.0
H1093 H 0.30873 0.13642 0.10679 0.0
H1094 H 0.50395 0.11735 0.16603 0.0
H1095 H 0.47671 0.19249 0.18329 0.0
H1096 H 0.48314 -0.00355 0.16372 0.0
H1097 H 0.45697 0.9337 0.14156 0.0
C1098 C 0.43866 0.58952 0.14808 0.0
C1099 C 0.39768 0.56105 0.15738 0.0
C1100 C 0.35707 0.64283 0.13046 0.0
C1101 C 0.39667 0.68225 0.12371 0.0
N1102 N 0.47619 0.69967 0.12979 0.0
N1103 N 0.31934 0.5883 0.16398 0.0
C1104 C 0.4381 0.65762 0.13351 0.0
C1105 C 0.35755 0.59793 0.15093 0.0
N1106 N 0.47748 0.55107 0.15246 0.0
N1107 N 0.3188 0.647 0.11714 0.0
H1108 H 0.31876 0.55726 0.17977 0.0
H1109 H 0.28993 0.61851 0.16046 0.0
H1110 H 0.31738 0.67559 0.10092 0.0
H1111 H 0.29024 0.61423 0.12086 0.0
H1112 H 0.50756 0.56462 0.14413 0.0
H1113 H 0.47877 0.50256 0.16332 0.0
H1114 H 0.50619 0.68822 0.13844 0.0
H1115 H 0.477 0.74955 0.11952 0.0
C1116 C 0.4265 0.71296 0.62157 0.0
C1117 C 0.39328 0.72487 0.63996 0.0
C1118 C 0.35215 0.61387 0.62021 0.0
C1119 C 0.39027 0.58561 0.60788 0.0
N1120 N 0.46037 0.62511 0.59022 0.0
N1121 N 0.32713 0.6714 0.65869 0.0
C1122 C 0.42679 0.64016 0.60662 0.0
C1123 C 0.35675 0.67111 0.63992 0.0
N1124 N 0.45616 0.77256 0.61753 0.0
N1125 N 0.31165 0.59903 0.61028 0.0
H1126 H 0.33189 0.70414 0.67523 0.0
H1127 H 0.29986 0.63285 0.65827 0.0
H1128 H 0.30893 0.57391 0.59251 0.0
H1129 H 0.28277 0.62292 0.61829 0.0
H1130 H 0.47845 0.77105 0.60298 0.0
H1131 H 0.45557 0.82747 0.62739 0.0
H1132 H 0.49123 0.65372 0.59126 0.0
H1133 H 0.45653 0.5854 0.57504 0.0
C1134 C 0.41975 0.13874 0.60877 0.0
C1135 C 0.41115 0.21475 0.62058 0.0
C1136 C 0.40962 0.15599 0.66018 0.0
C1137 C 0.41537 0.07973 0.64817 0.0
N1138 N 0.44716 0.00548 0.61379 0.0
N1139 N 0.42021 0.29811 0.65744 0.0
C1140 C 0.42752 0.07347 0.62328 0.0
C1141 C 0.4131 0.22429 0.64637 0.0
N1142 N 0.41792 0.12724 0.58398 0.0
N1143 N 0.39928 0.16313 0.68439 0.0
H1144 H 0.42765 0.34676 0.64726 0.0
H1145 H 0.42453 0.30836 0.67619 0.0
H1146 H 0.39825 0.11416 0.69511 0.0
H1147 H 0.38985 0.21699 0.69337 0.0
H1148 H 0.41903 0.0708 0.57493 0.0
H1149 H 0.4123 0.17307 0.57252 0.0
H1150 H 0.45977 -0.001 0.5961 0.0
H1151 H 0.45509 0.9596 0.62487 0.0
loop_
_geom_bond_atom_site_label_1
_geom_bond_atom_site_label_2
_geom_bond_distance
_geom_bond_site_symmetry_2
_ccdc_geom_bond_type
Mn0 O5 2.095 . S
Mn0 O15 2.162 . S
Mn0 O16 2.297 . S
Mn0 O24 2.385 . S
Mn0 O25 2.209 . S
Mn0 O26 2.094 . S
Mn1 O6 2.121 . S
Mn1 N8 2.257 . S
Mn1 N17 2.282 . S
Mn1 O25 2.215 . S
Mn1 O27 2.117 . S
C2 O24 1.234 . S
C2 O25 1.283 . S
C3 O15 1.281 . S
C3 O16 1.236 . S
C4 O26 1.240 . S
C4 O27 1.264 . S
O5 Mn0 2.095 . S
O5 C14 1.250 . S
O6 Mn1 2.121 . S
O6 C14 1.258 . S
C7 N8 1.326 . S
C7 C11 1.460 1_545 S
C7 H13 0.929 . S
N8 Mn1 2.257 . S
N8 C7 1.326 . S
N8 C12 1.362 1_545 S
C9 C10 1.258 . S
C9 C12 1.431 . S
C9 C29 1.449 . S
C10 C9 1.258 . S
C10 C11 1.477 . S
C10 H30 0.931 . S
C11 C7 1.460 1_565 S
C11 C10 1.477 . S
C11 H31 0.930 . S
C12 N8 1.362 1_565 S
C12 C9 1.431 . S
C12 C22 1.476 1_565 S
H13 C7 0.929 . S
C14 O5 1.250 . S
C14 O6 1.258 . S
O15 Mn0 2.162 . S
O15 C3 1.281 . S
O16 Mn0 2.297 . S
O16 C3 1.236 . S
N17 Mn1 2.282 . S
N17 C18 1.328 . S
N17 C22 1.318 . S
C18 N17 1.328 . S
C18 C19 1.457 . S
C18 H23 0.929 . S
C19 C18 1.457 . S
C19 C20 1.291 1_545 S
C19 H32 0.931 . S
C20 C19 1.291 1_565 S
C20 C21 1.373 . S
C20 H33 0.929 . S
C21 C20 1.373 . S
C21 C22 1.396 1_565 S
C21 C28 1.403 . S
C22 C12 1.476 1_545 S
C22 N17 1.318 . S
C22 C21 1.396 1_545 S
H23 C18 0.929 . S
O24 Mn0 2.385 . S
O24 C2 1.234 . S
O25 Mn0 2.209 . S
O25 Mn1 2.215 . S
O25 C2 1.283 . S
O26 Mn0 2.094 . S
O26 C4 1.240 . S
O27 Mn1 2.117 . S
O27 C4 1.264 . S
C28 C21 1.403 . S
C28 C29 1.399 . S
C28 H34 0.929 . S
C29 C9 1.449 . S
C29 C28 1.399 . S
C29 H35 0.930 . S
H30 C10 0.931 . S
H31 C11 0.930 . S
H32 C19 0.931 . S
H33 C20 0.929 . S
H34 C28 0.929 . S
H35 C29 0.930 . S
Mn36 O41 2.095 . S
Mn36 O51 2.162 . S
Mn36 O52 2.297 . S
Mn36 O60 2.385 . S
Mn36 O61 2.209 . S
Mn36 O62 2.094 . S
Mn37 O42 2.121 . S
Mn37 N44 2.257 . S
Mn37 N53 2.282 . S
Mn37 O61 2.215 . S
Mn37 O63 2.117 . S
C38 O60 1.234 . S
C38 O61 1.283 . S
C39 O51 1.281 . S
C39 O52 1.236 . S
C40 O62 1.240 1_565 S
C40 O63 1.264 1_565 S
O41 Mn36 2.095 . S
O41 C50 1.250 . S
O42 Mn37 2.121 . S
O42 C50 1.258 . S
C43 N44 1.326 . S
C43 C47 1.460 . S
C43 H49 0.929 . S
N44 Mn37 2.257 . S
N44 C43 1.326 . S
N44 C48 1.362 . S
C45 C46 1.258 . S
C45 C48 1.431 . S
C45 C65 1.449 . S
C46 C45 1.258 . S
C46 C47 1.477 . S
C46 H66 0.931 . S
C47 C43 1.460 . S
C47 C46 1.477 . S
C47 H67 0.930 . S
C48 N44 1.362 . S
C48 C45 1.431 . S
C48 C58 1.476 . S
H49 C43 0.929 . S
C50 O41 1.250 . S
C50 O42 1.258 . S
O51 Mn36 2.162 . S
O51 C39 1.281 . S
O52 Mn36 2.297 . S
O52 C39 1.236 . S
N53 Mn37 2.282 . S
N53 C54 1.328 . S
N53 C58 1.318 . S
C54 N53 1.328 . S
C54 C55 1.457 . S
C54 H59 0.929 . S
C55 C54 1.457 . S
C55 C56 1.291 . S
C55 H68 0.931 . S
C56 C55 1.291 . S
C56 C57 1.373 . S
C56 H69 0.929 . S
C57 C56 1.373 . S
C57 C58 1.396 . S
C57 C64 1.403 . S
C58 C48 1.476 . S
C58 N53 1.318 . S
C58 C57 1.396 . S
H59 C54 0.929 . S
O60 Mn36 2.385 . S
O60 C38 1.234 . S
O61 Mn36 2.209 . S
O61 Mn37 2.215 . S
O61 C38 1.283 . S
O62 Mn36 2.094 . S
O62 C40 1.240 1_545 S
O63 Mn37 2.117 . S
O63 C40 1.264 1_545 S
C64 C57 1.403 . S
C64 C65 1.399 . S
C64 H70 0.929 . S
C65 C45 1.449 . S
C65 C64 1.399 . S
C65 H71 0.930 . S
H66 C46 0.931 . S
H67 C47 0.930 . S
H68 C55 0.931 . S
H69 C56 0.929 . S
H70 C64 0.929 . S
H71 C65 0.930 . S
Mn72 O77 2.095 . S
Mn72 O87 2.162 . S
Mn72 O88 2.297 . S
Mn72 O96 2.385 . S
Mn72 O97 2.209 . S
Mn72 O98 2.094 . S
Mn73 O78 2.121 . S
Mn73 N80 2.257 . S
Mn73 N89 2.282 . S
Mn73 O97 2.215 . S
Mn73 O99 2.117 . S
C74 O96 1.234 . S
C74 O97 1.283 . S
C75 O87 1.281 . S
C75 O88 1.236 . S
C76 O98 1.240 . S
C76 O99 1.264 . S
O77 Mn72 2.095 . S
O77 C86 1.250 . S
O78 Mn73 2.121 . S
O78 C86 1.258 . S
C79 N80 1.326 . S
C79 C83 1.460 1_565 S
C79 H85 0.929 . S
N80 Mn73 2.257 . S
N80 C79 1.326 . S
N80 C84 1.362 1_565 S
C81 C82 1.258 . S
C81 C84 1.431 . S
C81 C101 1.449 . S
C82 C81 1.258 . S
C82 C83 1.477 . S
C82 H102 0.931 . S
C83 C79 1.460 1_545 S
C83 C82 1.477 . S
C83 H103 0.930 . S
C84 N80 1.362 1_545 S
C84 C81 1.431 . S
C84 C94 1.476 1_545 S
H85 C79 0.929 . S
C86 O77 1.250 . S
C86 O78 1.258 . S
O87 Mn72 2.162 . S
O87 C75 1.281 . S
O88 Mn72 2.297 . S
O88 C75 1.236 . S
N89 Mn73 2.282 . S
N89 C90 1.328 . S
N89 C94 1.318 . S
C90 N89 1.328 . S
C90 C91 1.457 . S
C90 H95 0.929 . S
C91 C90 1.457 . S
C91 C92 1.291 1_565 S
C91 H104 0.931 . S
C92 C91 1.291 1_545 S
C92 C93 1.373 . S
C92 H105 0.929 . S
C93 C92 1.373 . S
C93 C94 1.396 1_545 S
C93 C100 1.403 . S
C94 C84 1.476 1_565 S
C94 N89 1.318 . S
C94 C93 1.396 1_565 S
H95 C90 0.929 . S
O96 Mn72 2.385 . S
O96 C74 1.234 . S
O97 Mn72 2.209 . S
O97 Mn73 2.215 . S
O97 C74 1.283 . S
O98 Mn72 2.094 . S
O98 C76 1.240 . S
O99 Mn73 2.117 . S
O99 C76 1.264 . S
C100 C93 1.403 . S
C100 C101 1.399 . S
C100 H106 0.929 . S
C101 C81 1.449 . S
C101 C100 1.399 . S
C101 H107 0.930 . S
H102 C82 0.931 . S
H103 C83 0.930 . S
H104 C91 0.931 . S
H105 C92 0.929 . S
H106 C100 0.929 . S
H107 C101 0.930 . S
Mn108 O113 2.095 . S
Mn108 O123 2.162 . S
Mn108 O124 2.297 . S
Mn108 O132 2.385 . S
Mn108 O133 2.209 . S
Mn108 O134 2.094 . S
Mn109 O114 2.121 . S
Mn109 N116 2.257 . S
Mn109 N125 2.282 . S
Mn109 O133 2.215 . S
Mn109 O135 2.117 . S
C110 O132 1.234 . S
C110 O133 1.283 . S
C111 O123 1.281 . S
C111 O124 1.236 . S
C112 O134 1.240 1_545 S
C112 O135 1.264 1_545 S
O113 Mn108 2.095 . S
O113 C122 1.250 . S
O114 Mn109 2.121 . S
O114 C122 1.258 . S
C115 N116 1.326 . S
C115 C119 1.460 . S
C115 H121 0.929 . S
N116 Mn109 2.257 . S
N116 C115 1.326 . S
N116 C120 1.362 . S
C117 C118 1.258 . S
C117 C120 1.431 . S
C117 C137 1.449 . S
C118 C117 1.258 . S
C118 C119 1.477 . S
C118 H138 0.931 . S
C119 C115 1.460 . S
C119 C118 1.477 . S
C119 H139 0.930 . S
C120 N116 1.362 . S
C120 C117 1.431 . S
C120 C130 1.476 . S
H121 C115 0.929 . S
C122 O113 1.250 . S
C122 O114 1.258 . S
O123 Mn108 2.162 . S
O123 C111 1.281 . S
O124 Mn108 2.297 . S
O124 C111 1.236 . S
N125 Mn109 2.282 . S
N125 C126 1.328 . S
N125 C130 1.318 . S
C126 N125 1.328 . S
C126 C127 1.457 . S
C126 H131 0.929 . S
C127 C126 1.457 . S
C127 C128 1.291 . S
C127 H140 0.931 . S
C128 C127 1.291 . S
C128 C129 1.373 . S
C128 H141 0.929 . S
C129 C128 1.373 . S
C129 C130 1.396 . S
C129 C136 1.403 . S
C130 C120 1.476 . S
C130 N125 1.318 . S
C130 C129 1.396 . S
H131 C126 0.929 . S
O132 Mn108 2.385 . S
O132 C110 1.234 . S
O133 Mn108 2.209 . S
O133 Mn109 2.215 . S
O133 C110 1.283 . S
O134 Mn108 2.094 . S
O134 C112 1.240 1_565 S
O135 Mn109 2.117 . S
O135 C112 1.264 1_565 S
C136 C129 1.403 . S
C136 C137 1.399 . S
C136 H142 0.929 . S
C137 C117 1.449 . S
C137 C136 1.399 . S
C137 H143 0.930 . S
H138 C118 0.931 . S
H139 C119 0.930 . S
H140 C127 0.931 . S
H141 C128 0.929 . S
H142 C136 0.929 . S
H143 C137 0.930 . S
Mn144 O149 2.095 . S
Mn144 O159 2.162 . S
Mn144 O160 2.297 . S
Mn144 O168 2.385 . S
Mn144 O169 2.209 . S
Mn144 O170 2.094 . S
Mn145 O150 2.121 . S
Mn145 N152 2.257 . S
Mn145 N161 2.282 . S
Mn145 O169 2.215 . S
Mn145 O171 2.117 . S
C146 O168 1.234 . S
C146 O169 1.283 . S
C147 O159 1.281 . S
C147 O160 1.236 . S
C148 O170 1.240 . S
C148 O171 1.264 . S
O149 Mn144 2.095 . S
O149 C158 1.250 . S
O150 Mn145 2.121 . S
O150 C158 1.258 . S
C151 N152 1.326 . S
C151 C155 1.460 . S
C151 H157 0.929 . S
N152 Mn145 2.257 . S
N152 C151 1.326 . S
N152 C156 1.362 . S
C153 C154 1.258 . S
C153 C156 1.431 . S
C153 C173 1.449 . S
C154 C153 1.258 . S
C154 C155 1.477 . S
C154 H174 0.931 . S
C155 C151 1.460 . S
C155 C154 1.477 . S
C155 H175 0.930 . S
C156 N152 1.362 . S
C156 C153 1.431 . S
C156 C166 1.476 . S
H157 C151 0.929 . S
C158 O149 1.250 . S
C158 O150 1.258 . S
O159 Mn144 2.162 . S
O159 C147 1.281 . S
O160 Mn144 2.297 . S
O160 C147 1.236 . S
N161 Mn145 2.282 . S
N161 C162 1.328 . S
N161 C166 1.318 . S
C162 N161 1.328 . S
C162 C163 1.457 . S
C162 H167 0.929 . S
C163 C162 1.457 . S
C163 C164 1.291 . S
C163 H176 0.931 . S
C164 C163 1.291 . S
C164 C165 1.373 . S
C164 H177 0.929 . S
C165 C164 1.373 . S
C165 C166 1.396 . S
C165 C172 1.403 . S
C166 C156 1.476 . S
C166 N161 1.318 . S
C166 C165 1.396 . S
H167 C162 0.929 . S
O168 Mn144 2.385 . S
O168 C146 1.234 . S
O169 Mn144 2.209 . S
O169 Mn145 2.215 . S
O169 C146 1.283 . S
O170 Mn144 2.094 . S
O170 C148 1.240 . S
O171 Mn145 2.117 . S
O171 C148 1.264 . S
C172 C165 1.403 . S
C172 C173 1.399 . S
C172 H178 0.929 . S
C173 C153 1.449 . S
C173 C172 1.399 . S
C173 H179 0.930 . S
H174 C154 0.931 . S
H175 C155 0.930 . S
H176 C163 0.931 . S
H177 C164 0.929 . S
H178 C172 0.929 . S
H179 C173 0.930 . S
Mn180 O185 2.095 . S
Mn180 O195 2.162 . S
Mn180 O196 2.297 . S
Mn180 O204 2.385 . S
Mn180 O205 2.209 . S
Mn180 O206 2.094 . S
Mn181 O186 2.121 . S
Mn181 N188 2.257 . S
Mn181 N197 2.282 . S
Mn181 O205 2.215 . S
Mn181 O207 2.117 . S
C182 O204 1.234 . S
C182 O205 1.283 . S
C183 O195 1.281 . S
C183 O196 1.236 . S
C184 O206 1.240 . S
C184 O207 1.264 . S
O185 Mn180 2.095 . S
O185 C194 1.250 . S
O186 Mn181 2.121 . S
O186 C194 1.258 . S
C187 N188 1.326 . S
C187 C191 1.460 . S
C187 H193 0.929 . S
N188 Mn181 2.257 . S
N188 C187 1.326 . S
N188 C192 1.362 . S
C189 C190 1.258 . S
C189 C192 1.431 . S
C189 C209 1.449 . S
C190 C189 1.258 . S
C190 C191 1.477 . S
C190 H210 0.931 . S
C191 C187 1.460 . S
C191 C190 1.477 . S
C191 H211 0.930 . S
C192 N188 1.362 . S
C192 C189 1.431 . S
C192 C202 1.476 . S
H193 C187 0.929 . S
C194 O185 1.250 . S
C194 O186 1.258 . S
O195 Mn180 2.162 . S
O195 C183 1.281 . S
O196 Mn180 2.297 . S
O196 C183 1.236 . S
N197 Mn181 2.282 . S
N197 C198 1.328 . S
N197 C202 1.318 . S
C198 N197 1.328 . S
C198 C199 1.457 . S
C198 H203 0.929 . S
C199 C198 1.457 . S
C199 C200 1.291 . S
C199 H212 0.931 . S
C200 C199 1.291 . S
C200 C201 1.373 . S
C200 H213 0.929 . S
C201 C200 1.373 . S
C201 C202 1.396 . S
C201 C208 1.403 . S
C202 C192 1.476 . S
C202 N197 1.318 . S
C202 C201 1.396 . S
H203 C198 0.929 . S
O204 Mn180 2.385 . S
O204 C182 1.234 . S
O205 Mn180 2.209 . S
O205 Mn181 2.215 . S
O205 C182 1.283 . S
O206 Mn180 2.094 . S
O206 C184 1.240 . S
O207 Mn181 2.117 . S
O207 C184 1.264 . S
C208 C201 1.403 . S
C208 C209 1.399 . S
C208 H214 0.929 . S
C209 C189 1.449 . S
C209 C208 1.399 . S
C209 H215 0.930 . S
H210 C190 0.931 . S
H211 C191 0.930 . S
H212 C199 0.931 . S
H213 C200 0.929 . S
H214 C208 0.929 . S
H215 C209 0.930 . S
Mn216 O221 2.095 . S
Mn216 O231 2.162 . S
Mn216 O232 2.297 . S
Mn216 O240 2.385 . S
Mn216 O241 2.209 . S
Mn216 O242 2.094 . S
Mn217 O222 2.121 . S
Mn217 N224 2.257 . S
Mn217 N233 2.282 . S
Mn217 O241 2.215 . S
Mn217 O243 2.117 . S
C218 O240 1.234 . S
C218 O241 1.283 . S
C219 O231 1.281 . S
C219 O232 1.236 . S
C220 O242 1.240 . S
C220 O243 1.264 . S
O221 Mn216 2.095 . S
O221 C230 1.250 . S
O222 Mn217 2.121 . S
O222 C230 1.258 . S
C223 N224 1.326 . S
C223 C227 1.460 . S
C223 H229 0.929 . S
N224 Mn217 2.257 . S
N224 C223 1.326 . S
N224 C228 1.362 . S
C225 C226 1.258 . S
C225 C228 1.431 . S
C225 C245 1.449 . S
C226 C225 1.258 . S
C226 C227 1.477 . S
C226 H246 0.931 . S
C227 C223 1.460 . S
C227 C226 1.477 . S
C227 H247 0.930 . S
C228 N224 1.362 . S
C228 C225 1.431 . S
C228 C238 1.476 . S
H229 C223 0.929 . S
C230 O221 1.250 . S
C230 O222 1.258 . S
O231 Mn216 2.162 . S
O231 C219 1.281 . S
O232 Mn216 2.297 . S
O232 C219 1.236 . S
N233 Mn217 2.282 . S
N233 C234 1.328 . S
N233 C238 1.318 . S
C234 N233 1.328 . S
C234 C235 1.457 . S
C234 H239 0.929 . S
C235 C234 1.457 . S
C235 C236 1.291 . S
C235 H248 0.931 . S
C236 C235 1.291 . S
C236 C237 1.373 . S
C236 H249 0.929 . S
C237 C236 1.373 . S
C237 C238 1.396 . S
C237 C244 1.403 . S
C238 C228 1.476 . S
C238 N233 1.318 . S
C238 C237 1.396 . S
H239 C234 0.929 . S
O240 Mn216 2.385 . S
O240 C218 1.234 . S
O241 Mn216 2.209 . S
O241 Mn217 2.215 . S
O241 C218 1.283 . S
O242 Mn216 2.094 . S
O242 C220 1.240 . S
O243 Mn217 2.117 . S
O243 C220 1.264 . S
C244 C237 1.403 . S
C244 C245 1.399 . S
C244 H250 0.929 . S
C245 C225 1.449 . S
C245 C244 1.399 . S
C245 H251 0.930 . S
H246 C226 0.931 . S
H247 C227 0.930 . S
H248 C235 0.931 . S
H249 C236 0.929 . S
H250 C244 0.929 . S
H251 C245 0.930 . S
Mn252 O257 2.095 . S
Mn252 O267 2.162 . S
Mn252 O268 2.297 . S
Mn252 O276 2.385 . S
Mn252 O277 2.209 . S
Mn252 O278 2.094 . S
Mn253 O258 2.121 . S
Mn253 N260 2.257 . S
Mn253 N269 2.282 . S
Mn253 O277 2.215 . S
Mn253 O279 2.117 . S
C254 O276 1.234 . S
C254 O277 1.283 . S
C255 O267 1.281 . S
C255 O268 1.236 . S
C256 O278 1.240 . S
C256 O279 1.264 . S
O257 Mn252 2.095 . S
O257 C266 1.250 . S
O258 Mn253 2.121 . S
O258 C266 1.258 . S
C259 N260 1.326 . S
C259 C263 1.460 . S
C259 H265 0.929 . S
N260 Mn253 2.257 . S
N260 C259 1.326 . S
N260 C264 1.362 . S
C261 C262 1.258 . S
C261 C264 1.431 . S
C261 C281 1.449 . S
C262 C261 1.258 . S
C262 C263 1.477 . S
C262 H282 0.931 . S
C263 C259 1.460 . S
C263 C262 1.477 . S
C263 H283 0.930 . S
C264 N260 1.362 . S
C264 C261 1.431 . S
C264 C274 1.476 . S
H265 C259 0.929 . S
C266 O257 1.250 . S
C266 O258 1.258 . S
O267 Mn252 2.162 . S
O267 C255 1.281 . S
O268 Mn252 2.297 . S
O268 C255 1.236 . S
N269 Mn253 2.282 . S
N269 C270 1.328 . S
N269 C274 1.318 . S
C270 N269 1.328 . S
C270 C271 1.457 . S
C270 H275 0.929 . S
C271 C270 1.457 . S
C271 C272 1.291 . S
C271 H284 0.931 . S
C272 C271 1.291 . S
C272 C273 1.373 . S
C272 H285 0.929 . S
C273 C272 1.373 . S
C273 C274 1.396 . S
C273 C280 1.403 . S
C274 C264 1.476 . S
C274 N269 1.318 . S
C274 C273 1.396 . S
H275 C270 0.929 . S
O276 Mn252 2.385 . S
O276 C254 1.234 . S
O277 Mn252 2.209 . S
O277 Mn253 2.215 . S
O277 C254 1.283 . S
O278 Mn252 2.094 . S
O278 C256 1.240 . S
O279 Mn253 2.117 . S
O279 C256 1.264 . S
C280 C273 1.403 . S
C280 C281 1.399 . S
C280 H286 0.929 . S
C281 C261 1.449 . S
C281 C280 1.399 . S
C281 H287 0.930 . S
H282 C262 0.931 . S
H283 C263 0.930 . S
H284 C271 0.931 . S
H285 C272 0.929 . S
H286 C280 0.929 . S
H287 C281 0.930 . S
Mn288 O293 2.095 . S
Mn288 O303 2.162 . S
Mn288 O304 2.297 . S
Mn288 O312 2.385 . S
Mn288 O313 2.209 . S
Mn288 O314 2.094 . S
Mn289 O294 2.121 . S
Mn289 N296 2.257 . S
Mn289 N305 2.282 . S
Mn289 O313 2.215 . S
Mn289 O315 2.117 . S
C290 O312 1.234 . S
C290 O313 1.283 . S
C291 O303 1.281 . S
C291 O304 1.236 . S
C292 O314 1.240 . S
C292 O315 1.264 . S
O293 Mn288 2.095 . S
O293 C302 1.250 . S
O294 Mn289 2.121 . S
O294 C302 1.258 . S
C295 N296 1.326 . S
C295 C299 1.460 1_545 S
C295 H301 0.929 . S
N296 Mn289 2.257 . S
N296 C295 1.326 . S
N296 C300 1.362 1_545 S
C297 C298 1.258 . S
C297 C300 1.431 . S
C297 C317 1.449 . S
C298 C297 1.258 . S
C298 C299 1.477 . S
C298 H318 0.931 . S
C299 C295 1.460 1_565 S
C299 C298 1.477 . S
C299 H319 0.930 . S
C300 N296 1.362 1_565 S
C300 C297 1.431 . S
C300 C310 1.476 1_565 S
H301 C295 0.929 . S
C302 O293 1.250 . S
C302 O294 1.258 . S
O303 Mn288 2.162 . S
O303 C291 1.281 . S
O304 Mn288 2.297 . S
O304 C291 1.236 . S
N305 Mn289 2.282 . S
N305 C306 1.328 . S
N305 C310 1.318 . S
C306 N305 1.328 . S
C306 C307 1.457 . S
C306 H311 0.929 . S
C307 C306 1.457 . S
C307 C308 1.291 1_545 S
C307 H320 0.931 . S
C308 C307 1.291 1_565 S
C308 C309 1.373 . S
C308 H321 0.929 . S
C309 C308 1.373 . S
C309 C310 1.396 1_565 S
C309 C316 1.403 . S
C310 C300 1.476 1_545 S
C310 N305 1.318 . S
C310 C309 1.396 1_545 S
H311 C306 0.929 . S
O312 Mn288 2.385 . S
O312 C290 1.234 . S
O313 Mn288 2.209 . S
O313 Mn289 2.215 . S
O313 C290 1.283 . S
O314 Mn288 2.094 . S
O314 C292 1.240 . S
O315 Mn289 2.117 . S
O315 C292 1.264 . S
C316 C309 1.403 . S
C316 C317 1.399 . S
C316 H322 0.929 . S
C317 C297 1.449 . S
C317 C316 1.399 . S
C317 H323 0.930 . S
H318 C298 0.931 . S
H319 C299 0.930 . S
H320 C307 0.931 . S
H321 C308 0.929 . S
H322 C316 0.929 . S
H323 C317 0.930 . S
Mn324 O329 2.095 . S
Mn324 O339 2.162 . S
Mn324 O340 2.297 . S
Mn324 O348 2.385 . S
Mn324 O349 2.209 . S
Mn324 O350 2.094 . S
Mn325 O330 2.121 . S
Mn325 N332 2.257 . S
Mn325 N341 2.282 . S
Mn325 O349 2.215 . S
Mn325 O351 2.117 . S
C326 O348 1.234 . S
C326 O349 1.283 . S
C327 O339 1.281 . S
C327 O340 1.236 . S
C328 O350 1.240 1_565 S
C328 O351 1.264 1_565 S
O329 Mn324 2.095 . S
O329 C338 1.250 . S
O330 Mn325 2.121 . S
O330 C338 1.258 . S
C331 N332 1.326 . S
C331 C335 1.460 . S
C331 H337 0.929 . S
N332 Mn325 2.257 . S
N332 C331 1.326 . S
N332 C336 1.362 . S
C333 C334 1.258 . S
C333 C336 1.431 . S
C333 C353 1.449 . S
C334 C333 1.258 . S
C334 C335 1.477 . S
C334 H354 0.931 . S
C335 C331 1.460 . S
C335 C334 1.477 . S
C335 H355 0.930 . S
C336 N332 1.362 . S
C336 C333 1.431 . S
C336 C346 1.476 . S
H337 C331 0.929 . S
C338 O329 1.250 . S
C338 O330 1.258 . S
O339 Mn324 2.162 . S
O339 C327 1.281 . S
O340 Mn324 2.297 . S
O340 C327 1.236 . S
N341 Mn325 2.282 . S
N341 C342 1.328 . S
N341 C346 1.318 . S
C342 N341 1.328 . S
C342 C343 1.457 . S
C342 H347 0.929 . S
C343 C342 1.457 . S
C343 C344 1.291 . S
C343 H356 0.931 . S
C344 C343 1.291 . S
C344 C345 1.373 . S
C344 H357 0.929 . S
C345 C344 1.373 . S
C345 C346 1.396 . S
C345 C352 1.403 . S
C346 C336 1.476 . S
C346 N341 1.318 . S
C346 C345 1.396 . S
H347 C342 0.929 . S
O348 Mn324 2.385 . S
O348 C326 1.234 . S
O349 Mn324 2.209 . S
O349 Mn325 2.215 . S
O349 C326 1.283 . S
O350 Mn324 2.094 . S
O350 C328 1.240 1_545 S
O351 Mn325 2.117 . S
O351 C328 1.264 1_545 S
C352 C345 1.403 . S
C352 C353 1.399 . S
C352 H358 0.929 . S
C353 C333 1.449 . S
C353 C352 1.399 . S
C353 H359 0.930 . S
H354 C334 0.931 . S
H355 C335 0.930 . S
H356 C343 0.931 . S
H357 C344 0.929 . S
H358 C352 0.929 . S
H359 C353 0.930 . S
Mn360 O365 2.095 . S
Mn360 O375 2.162 . S
Mn360 O376 2.297 . S
Mn360 O384 2.385 . S
Mn360 O385 2.209 . S
Mn360 O386 2.094 . S
Mn361 O366 2.121 . S
Mn361 N368 2.257 . S
Mn361 N377 2.282 . S
Mn361 O385 2.215 . S
Mn361 O387 2.117 . S
C362 O384 1.234 . S
C362 O385 1.283 . S
C363 O375 1.281 . S
C363 O376 1.236 . S
C364 O386 1.240 . S
C364 O387 1.264 . S
O365 Mn360 2.095 . S
O365 C374 1.250 . S
O366 Mn361 2.121 . S
O366 C374 1.258 . S
C367 N368 1.326 . S
C367 C371 1.460 1_565 S
C367 H373 0.929 . S
N368 Mn361 2.257 . S
N368 C367 1.326 . S
N368 C372 1.362 1_565 S
C369 C370 1.258 . S
C369 C372 1.431 . S
C369 C389 1.449 . S
C370 C369 1.258 . S
C370 C371 1.477 . S
C370 H390 0.931 . S
C371 C367 1.460 1_545 S
C371 C370 1.477 . S
C371 H391 0.930 . S
C372 N368 1.362 1_545 S
C372 C369 1.431 . S
C372 C382 1.476 1_545 S
H373 C367 0.929 . S
C374 O365 1.250 . S
C374 O366 1.258 . S
O375 Mn360 2.162 . S
O375 C363 1.281 . S
O376 Mn360 2.297 . S
O376 C363 1.236 . S
N377 Mn361 2.282 . S
N377 C378 1.328 . S
N377 C382 1.318 . S
C378 N377 1.328 . S
C378 C379 1.457 . S
C378 H383 0.929 . S
C379 C378 1.457 . S
C379 C380 1.291 1_565 S
C379 H392 0.931 . S
C380 C379 1.291 1_545 S
C380 C381 1.373 . S
C380 H393 0.929 . S
C381 C380 1.373 . S
C381 C382 1.396 1_545 S
C381 C388 1.403 . S
C382 C372 1.476 1_565 S
C382 N377 1.318 . S
C382 C381 1.396 1_565 S
H383 C378 0.929 . S
O384 Mn360 2.385 . S
O384 C362 1.234 . S
O385 Mn360 2.209 . S
O385 Mn361 2.215 . S
O385 C362 1.283 . S
O386 Mn360 2.094 . S
O386 C364 1.240 . S
O387 Mn361 2.117 . S
O387 C364 1.264 . S
C388 C381 1.403 . S
C388 C389 1.399 . S
C388 H394 0.929 . S
C389 C369 1.449 . S
C389 C388 1.399 . S
C389 H395 0.930 . S
H390 C370 0.931 . S
H391 C371 0.930 . S
H392 C379 0.931 . S
H393 C380 0.929 . S
H394 C388 0.929 . S
H395 C389 0.930 . S
Mn396 O401 2.095 . S
Mn396 O411 2.162 . S
Mn396 O412 2.297 . S
Mn396 O420 2.385 . S
Mn396 O421 2.209 . S
Mn396 O422 2.094 . S
Mn397 O402 2.121 . S
Mn397 N404 2.257 . S
Mn397 N413 2.282 . S
Mn397 O421 2.215 . S
Mn397 O423 2.117 . S
C398 O420 1.234 . S
C398 O421 1.283 . S
C399 O411 1.281 . S
C399 O412 1.236 . S
C400 O422 1.240 1_545 S
C400 O423 1.264 1_545 S
O401 Mn396 2.095 . S
O401 C410 1.250 . S
O402 Mn397 2.121 . S
O402 C410 1.258 . S
C403 N404 1.326 . S
C403 C407 1.460 . S
C403 H409 0.929 . S
N404 Mn397 2.257 . S
N404 C403 1.326 . S
N404 C408 1.362 . S
C405 C406 1.258 . S
C405 C408 1.431 . S
C405 C425 1.449 . S
C406 C405 1.258 . S
C406 C407 1.477 . S
C406 H426 0.931 . S
C407 C403 1.460 . S
C407 C406 1.477 . S
C407 H427 0.930 . S
C408 N404 1.362 . S
C408 C405 1.431 . S
C408 C418 1.476 . S
H409 C403 0.929 . S
C410 O401 1.250 . S
C410 O402 1.258 . S
O411 Mn396 2.162 . S
O411 C399 1.281 . S
O412 Mn396 2.297 . S
O412 C399 1.236 . S
N413 Mn397 2.282 . S
N413 C414 1.328 . S
N413 C418 1.318 . S
C414 N413 1.328 . S
C414 C415 1.457 . S
C414 H419 0.929 . S
C415 C414 1.457 . S
C415 C416 1.291 . S
C415 H428 0.931 . S
C416 C415 1.291 . S
C416 C417 1.373 . S
C416 H429 0.929 . S
C417 C416 1.373 . S
C417 C418 1.396 . S
C417 C424 1.403 . S
C418 C408 1.476 . S
C418 N413 1.318 . S
C418 C417 1.396 . S
H419 C414 0.929 . S
O420 Mn396 2.385 . S
O420 C398 1.234 . S
O421 Mn396 2.209 . S
O421 Mn397 2.215 . S
O421 C398 1.283 . S
O422 Mn396 2.094 . S
O422 C400 1.240 1_565 S
O423 Mn397 2.117 . S
O423 C400 1.264 1_565 S
C424 C417 1.403 . S
C424 C425 1.399 . S
C424 H430 0.929 . S
C425 C405 1.449 . S
C425 C424 1.399 . S
C425 H431 0.930 . S
H426 C406 0.931 . S
H427 C407 0.930 . S
H428 C415 0.931 . S
H429 C416 0.929 . S
H430 C424 0.929 . S
H431 C425 0.930 . S
Mn432 O437 2.095 . S
Mn432 O447 2.162 . S
Mn432 O448 2.297 . S
Mn432 O456 2.385 . S
Mn432 O457 2.209 . S
Mn432 O458 2.094 . S
Mn433 O438 2.121 . S
Mn433 N440 2.257 . S
Mn433 N449 2.282 . S
Mn433 O457 2.215 . S
Mn433 O459 2.117 . S
C434 O456 1.234 . S
C434 O457 1.283 . S
C435 O447 1.281 . S
C435 O448 1.236 . S
C436 O458 1.240 . S
C436 O459 1.264 . S
O437 Mn432 2.095 . S
O437 C446 1.250 . S
O438 Mn433 2.121 . S
O438 C446 1.258 . S
C439 N440 1.326 . S
C439 C443 1.460 . S
C439 H445 0.929 . S
N440 Mn433 2.257 . S
N440 C439 1.326 . S
N440 C444 1.362 . S
C441 C442 1.258 . S
C441 C444 1.431 . S
C441 C461 1.449 . S
C442 C441 1.258 . S
C442 C443 1.477 . S
C442 H462 0.931 . S
C443 C439 1.460 . S
C443 C442 1.477 . S
C443 H463 0.930 . S
C444 N440 1.362 . S
C444 C441 1.431 . S
C444 C454 1.476 . S
H445 C439 0.929 . S
C446 O437 1.250 . S
C446 O438 1.258 . S
O447 Mn432 2.162 . S
O447 C435 1.281 . S
O448 Mn432 2.297 . S
O448 C435 1.236 . S
N449 Mn433 2.282 . S
N449 C450 1.328 . S
N449 C454 1.318 . S
C450 N449 1.328 . S
C450 C451 1.457 . S
C450 H455 0.929 . S
C451 C450 1.457 . S
C451 C452 1.291 . S
C451 H464 0.931 . S
C452 C451 1.291 . S
C452 C453 1.373 . S
C452 H465 0.929 . S
C453 C452 1.373 . S
C453 C454 1.396 . S
C453 C460 1.403 . S
C454 C444 1.476 . S
C454 N449 1.318 . S
C454 C453 1.396 . S
H455 C450 0.929 . S
O456 Mn432 2.385 . S
O456 C434 1.234 . S
O457 Mn432 2.209 . S
O457 Mn433 2.215 . S
O457 C434 1.283 . S
O458 Mn432 2.094 . S
O458 C436 1.240 . S
O459 Mn433 2.117 . S
O459 C436 1.264 . S
C460 C453 1.403 . S
C460 C461 1.399 . S
C460 H466 0.929 . S
C461 C441 1.449 . S
C461 C460 1.399 . S
C461 H467 0.930 . S
H462 C442 0.931 . S
H463 C443 0.930 . S
H464 C451 0.931 . S
H465 C452 0.929 . S
H466 C460 0.929 . S
H467 C461 0.930 . S
Mn468 O473 2.095 . S
Mn468 O483 2.162 . S
Mn468 O484 2.297 . S
Mn468 O492 2.385 . S
Mn468 O493 2.209 . S
Mn468 O494 2.094 . S
Mn469 O474 2.121 . S
Mn469 N476 2.257 . S
Mn469 N485 2.282 . S
Mn469 O493 2.215 . S
Mn469 O495 2.117 . S
C470 O492 1.234 . S
C470 O493 1.283 . S
C471 O483 1.281 . S
C471 O484 1.236 . S
C472 O494 1.240 . S
C472 O495 1.264 . S
O473 Mn468 2.095 . S
O473 C482 1.250 . S
O474 Mn469 2.121 . S
O474 C482 1.258 . S
C475 N476 1.326 . S
C475 C479 1.460 . S
C475 H481 0.929 . S
N476 Mn469 2.257 . S
N476 C475 1.326 . S
N476 C480 1.362 . S
C477 C478 1.258 . S
C477 C480 1.431 . S
C477 C497 1.449 . S
C478 C477 1.258 . S
C478 C479 1.477 . S
C478 H498 0.931 . S
C479 C475 1.460 . S
C479 C478 1.477 . S
C479 H499 0.930 . S
C480 N476 1.362 . S
C480 C477 1.431 . S
C480 C490 1.476 . S
H481 C475 0.929 . S
C482 O473 1.250 . S
C482 O474 1.258 . S
O483 Mn468 2.162 . S
O483 C471 1.281 . S
O484 Mn468 2.297 . S
O484 C471 1.236 . S
N485 Mn469 2.282 . S
N485 C486 1.328 . S
N485 C490 1.318 . S
C486 N485 1.328 . S
C486 C487 1.457 . S
C486 H491 0.929 . S
C487 C486 1.457 . S
C487 C488 1.291 . S
C487 H500 0.931 . S
C488 C487 1.291 . S
C488 C489 1.373 . S
C488 H501 0.929 . S
C489 C488 1.373 . S
C489 C490 1.396 . S
C489 C496 1.403 . S
C490 C480 1.476 . S
C490 N485 1.318 . S
C490 C489 1.396 . S
H491 C486 0.929 . S
O492 Mn468 2.385 . S
O492 C470 1.234 . S
O493 Mn468 2.209 . S
O493 Mn469 2.215 . S
O493 C470 1.283 . S
O494 Mn468 2.094 . S
O494 C472 1.240 . S
O495 Mn469 2.117 . S
O495 C472 1.264 . S
C496 C489 1.403 . S
C496 C497 1.399 . S
C496 H502 0.929 . S
C497 C477 1.449 . S
C497 C496 1.399 . S
C497 H503 0.930 . S
H498 C478 0.931 . S
H499 C479 0.930 . S
H500 C487 0.931 . S
H501 C488 0.929 . S
H502 C496 0.929 . S
H503 C497 0.930 . S
Mn504 O509 2.095 . S
Mn504 O519 2.162 . S
Mn504 O520 2.297 . S
Mn504 O528 2.385 . S
Mn504 O529 2.209 . S
Mn504 O530 2.094 . S
Mn505 O510 2.121 . S
Mn505 N512 2.257 . S
Mn505 N521 2.282 . S
Mn505 O529 2.215 . S
Mn505 O531 2.117 . S
C506 O528 1.234 . S
C506 O529 1.283 . S
C507 O519 1.281 . S
C507 O520 1.236 . S
C508 O530 1.240 . S
C508 O531 1.264 . S
O509 Mn504 2.095 . S
O509 C518 1.250 . S
O510 Mn505 2.121 . S
O510 C518 1.258 . S
C511 N512 1.326 . S
C511 C515 1.460 . S
C511 H517 0.929 . S
N512 Mn505 2.257 . S
N512 C511 1.326 . S
N512 C516 1.362 . S
C513 C514 1.258 . S
C513 C516 1.431 . S
C513 C533 1.449 . S
C514 C513 1.258 . S
C514 C515 1.477 . S
C514 H534 0.931 . S
C515 C511 1.460 . S
C515 C514 1.477 . S
C515 H535 0.930 . S
C516 N512 1.362 . S
C516 C513 1.431 . S
C516 C526 1.476 . S
H517 C511 0.929 . S
C518 O509 1.250 . S
C518 O510 1.258 . S
O519 Mn504 2.162 . S
O519 C507 1.281 . S
O520 Mn504 2.297 . S
O520 C507 1.236 . S
N521 Mn505 2.282 . S
N521 C522 1.328 . S
N521 C526 1.318 . S
C522 N521 1.328 . S
C522 C523 1.457 . S
C522 H527 0.929 . S
C523 C522 1.457 . S
C523 C524 1.291 . S
C523 H536 0.931 . S
C524 C523 1.291 . S
C524 C525 1.373 . S
C524 H537 0.929 . S
C525 C524 1.373 . S
C525 C526 1.396 . S
C525 C532 1.403 . S
C526 C516 1.476 . S
C526 N521 1.318 . S
C526 C525 1.396 . S
H527 C522 0.929 . S
O528 Mn504 2.385 . S
O528 C506 1.234 . S
O529 Mn504 2.209 . S
O529 Mn505 2.215 . S
O529 C506 1.283 . S
O530 Mn504 2.094 . S
O530 C508 1.240 . S
O531 Mn505 2.117 . S
O531 C508 1.264 . S
C532 C525 1.403 . S
C532 C533 1.399 . S
C532 H538 0.929 . S
C533 C513 1.449 . S
C533 C532 1.399 . S
C533 H539 0.930 . S
H534 C514 0.931 . S
H535 C515 0.930 . S
H536 C523 0.931 . S
H537 C524 0.929 . S
H538 C532 0.929 . S
H539 C533 0.930 . S
Mn540 O545 2.095 . S
Mn540 O555 2.162 . S
Mn540 O556 2.297 . S
Mn540 O564 2.385 . S
Mn540 O565 2.209 . S
Mn540 O566 2.094 . S
Mn541 O546 2.121 . S
Mn541 N548 2.257 . S
Mn541 N557 2.282 . S
Mn541 O565 2.215 . S
Mn541 O567 2.117 . S
C542 O564 1.234 . S
C542 O565 1.283 . S
C543 O555 1.281 . S
C543 O556 1.236 . S
C544 O566 1.240 . S
C544 O567 1.264 . S
O545 Mn540 2.095 . S
O545 C554 1.250 . S
O546 Mn541 2.121 . S
O546 C554 1.258 . S
C547 N548 1.326 . S
C547 C551 1.460 . S
C547 H553 0.929 . S
N548 Mn541 2.257 . S
N548 C547 1.326 . S
N548 C552 1.362 . S
C549 C550 1.258 . S
C549 C552 1.431 . S
C549 C569 1.449 . S
C550 C549 1.258 . S
C550 C551 1.477 . S
C550 H570 0.931 . S
C551 C547 1.460 . S
C551 C550 1.477 . S
C551 H571 0.930 . S
C552 N548 1.362 . S
C552 C549 1.431 . S
C552 C562 1.476 . S
H553 C547 0.929 . S
C554 O545 1.250 . S
C554 O546 1.258 . S
O555 Mn540 2.162 . S
O555 C543 1.281 . S
O556 Mn540 2.297 . S
O556 C543 1.236 . S
N557 Mn541 2.282 . S
N557 C558 1.328 . S
N557 C562 1.318 . S
C558 N557 1.328 . S
C558 C559 1.457 . S
C558 H563 0.929 . S
C559 C558 1.457 . S
C559 C560 1.291 . S
C559 H572 0.931 . S
C560 C559 1.291 . S
C560 C561 1.373 . S
C560 H573 0.929 . S
C561 C560 1.373 . S
C561 C562 1.396 . S
C561 C568 1.403 . S
C562 C552 1.476 . S
C562 N557 1.318 . S
C562 C561 1.396 . S
H563 C558 0.929 . S
O564 Mn540 2.385 . S
O564 C542 1.234 . S
O565 Mn540 2.209 . S
O565 Mn541 2.215 . S
O565 C542 1.283 . S
O566 Mn540 2.094 . S
O566 C544 1.240 . S
O567 Mn541 2.117 . S
O567 C544 1.264 . S
C568 C561 1.403 . S
C568 C569 1.399 . S
C568 H574 0.929 . S
C569 C549 1.449 . S
C569 C568 1.399 . S
C569 H575 0.930 . S
H570 C550 0.931 . S
H571 C551 0.930 . S
H572 C559 0.931 . S
H573 C560 0.929 . S
H574 C568 0.929 . S
H575 C569 0.930 . S
C576 C577 1.363 . S
C576 C582 1.379 . S
C576 N584 1.356 . S
C577 C576 1.363 . S
C577 C583 1.363 . S
C578 C579 1.363 . S
C578 C583 1.379 . S
C578 N585 1.356 . S
C579 C578 1.363 . S
C579 C582 1.363 . S
N580 C582 1.356 . S
N580 H592 0.984 . S
N580 H593 0.985 . S
N581 C583 1.356 . S
N581 H586 0.984 . S
N581 H587 0.985 . S
C582 C576 1.379 . S
C582 C579 1.363 . S
C582 N580 1.356 . S
C583 C577 1.363 . S
C583 C578 1.379 . S
C583 N581 1.356 . S
N584 C576 1.356 . S
N584 H590 0.984 . S
N584 H591 0.984 . S
N585 C578 1.356 . S
N585 H588 0.984 . S
N585 H589 0.985 . S
H586 N581 0.984 . S
H587 N581 0.985 . S
H588 N585 0.984 . S
H589 N585 0.985 . S
H590 N584 0.984 . S
H591 N584 0.984 . S
H592 N580 0.984 . S
H593 N580 0.985 . S
C594 C595 1.363 1_445 S
C594 C600 1.379 . S
C594 N602 1.356 1_455 S
C595 C594 1.363 1_665 S
C595 C601 1.363 . S
C596 C597 1.363 1_665 S
C596 C601 1.379 . S
C596 N603 1.356 1_655 S
C597 C596 1.363 1_445 S
C597 C600 1.363 . S
N598 C600 1.356 . S
N598 H610 0.984 . S
N598 H611 0.985 . S
N599 C601 1.356 . S
N599 H604 0.984 . S
N599 H605 0.985 . S
C600 C594 1.379 . S
C600 C597 1.363 . S
C600 N598 1.356 . S
C601 C595 1.363 . S
C601 C596 1.379 . S
C601 N599 1.356 . S
N602 C594 1.356 1_655 S
N602 H608 0.984 1_655 S
N602 H609 0.984 1_545 S
N603 C596 1.356 1_455 S
N603 H606 0.984 1_565 S
N603 H607 0.985 1_455 S
H604 N599 0.984 . S
H605 N599 0.985 . S
H606 N603 0.984 1_545 S
H607 N603 0.985 1_655 S
H608 N602 0.984 1_455 S
H609 N602 0.984 1_565 S
H610 N598 0.984 . S
H611 N598 0.985 . S
C612 C613 1.363 1_545 S
C612 C618 1.379 . S
C612 N620 1.356 . S
C613 C612 1.363 1_565 S
C613 C619 1.363 . S
C614 C615 1.363 1_565 S
C614 C619 1.379 . S
C614 N621 1.356 . S
C615 C614 1.363 1_545 S
C615 C618 1.363 . S
N616 C618 1.356 . S
N616 H628 0.984 . S
N616 H629 0.985 . S
N617 C619 1.356 . S
N617 H622 0.984 . S
N617 H623 0.985 . S
C618 C612 1.379 . S
C618 C615 1.363 . S
C618 N616 1.356 . S
C619 C613 1.363 . S
C619 C614 1.379 . S
C619 N617 1.356 . S
N620 C612 1.356 . S
N620 H626 0.984 . S
N620 H627 0.984 . S
N621 C614 1.356 . S
N621 H624 0.984 . S
N621 H625 0.985 . S
H622 N617 0.984 . S
H623 N617 0.985 . S
H624 N621 0.984 . S
H625 N621 0.985 . S
H626 N620 0.984 . S
H627 N620 0.984 . S
H628 N616 0.984 . S
H629 N616 0.985 . S
C630 C631 1.363 . S
C630 C636 1.379 . S
C630 N638 1.356 . S
C631 C630 1.363 . S
C631 C637 1.363 1_455 S
C632 C633 1.363 . S
C632 C637 1.379 . S
C632 N639 1.356 . S
C633 C632 1.363 . S
C633 C636 1.363 1_655 S
N634 C636 1.353 1_655 S
N634 H646 0.968 1_655 S
N634 H647 1.004 . S
N635 C637 1.353 1_455 S
N635 H640 1.004 . S
N635 H641 0.968 1_455 S
C636 C630 1.379 . S
C636 C633 1.363 1_455 S
C636 N634 1.353 1_455 S
C637 C631 1.363 1_655 S
C637 C632 1.379 . S
C637 N635 1.353 1_655 S
N638 C630 1.356 . S
N638 H644 0.984 . S
N638 H645 0.984 . S
N639 C632 1.356 . S
N639 H642 0.984 . S
N639 H643 0.985 . S
H640 N635 1.004 . S
H641 N635 0.968 1_655 S
H642 N639 0.984 . S
H643 N639 0.985 . S
H644 N638 0.984 . S
H645 N638 0.984 . S
H646 N634 0.968 1_455 S
H647 N634 1.004 . S
C648 C649 1.363 . S
C648 C654 1.379 . S
C648 N656 1.356 . S
C649 C648 1.363 . S
C649 C655 1.363 . S
C650 C651 1.363 . S
C650 C655 1.379 . S
C650 N657 1.356 . S
C651 C650 1.363 . S
C651 C654 1.363 . S
N652 C654 1.356 . S
N652 H664 0.984 . S
N652 H665 0.985 . S
N653 C655 1.356 . S
N653 H658 0.984 . S
N653 H659 0.985 . S
C654 C648 1.379 . S
C654 C651 1.363 . S
C654 N652 1.356 . S
C655 C649 1.363 . S
C655 C650 1.379 . S
C655 N653 1.356 . S
N656 C648 1.356 . S
N656 H662 0.984 . S
N656 H663 0.984 . S
N657 C650 1.356 . S
N657 H660 0.984 . S
N657 H661 0.985 . S
H658 N653 0.984 . S
H659 N653 0.985 . S
H660 N657 0.984 . S
H661 N657 0.985 . S
H662 N656 0.984 . S
H663 N656 0.984 . S
H664 N652 0.984 . S
H665 N652 0.985 . S
C666 C667 1.363 1_565 S
C666 C672 1.379 . S
C666 N674 1.356 . S
C667 C666 1.363 1_545 S
C667 C673 1.363 . S
C668 C669 1.363 1_545 S
C668 C673 1.379 . S
C668 N675 1.356 . S
C669 C668 1.363 1_565 S
C669 C672 1.363 . S
N670 C672 1.356 . S
N670 H682 0.984 . S
N670 H683 0.985 . S
N671 C673 1.356 . S
N671 H676 0.984 . S
N671 H677 0.985 . S
C672 C666 1.379 . S
C672 C669 1.363 . S
C672 N670 1.356 . S
C673 C667 1.363 . S
C673 C668 1.379 . S
C673 N671 1.356 . S
N674 C666 1.356 . S
N674 H680 0.984 . S
N674 H681 0.984 1_565 S
N675 C668 1.356 . S
N675 H678 0.984 1_545 S
N675 H679 0.985 . S
H676 N671 0.984 . S
H677 N671 0.985 . S
H678 N675 0.984 1_565 S
H679 N675 0.985 . S
H680 N674 0.984 . S
H681 N674 0.984 1_545 S
H682 N670 0.984 . S
H683 N670 0.985 . S
C684 C685 1.363 1_455 S
C684 C690 1.379 . S
C684 N692 1.356 . S
C685 C684 1.363 1_655 S
C685 C691 1.363 . S
C686 C687 1.363 1_655 S
C686 C691 1.379 . S
C686 N693 1.356 . S
C687 C686 1.363 1_455 S
C687 C690 1.363 . S
N688 C690 1.356 . S
N688 H700 0.984 . S
N688 H701 0.985 . S
N689 C691 1.356 . S
N689 H694 0.984 . S
N689 H695 0.985 . S
C690 C684 1.379 . S
C690 C687 1.363 . S
C690 N688 1.356 . S
C691 C685 1.363 . S
C691 C686 1.379 . S
C691 N689 1.356 . S
N692 C684 1.356 . S
N692 H698 0.984 . S
N692 H699 0.984 1_455 S
N693 C686 1.356 . S
N693 H696 0.984 1_655 S
N693 H697 0.985 . S
H694 N689 0.984 . S
H695 N689 0.985 . S
H696 N693 0.984 1_455 S
H697 N693 0.985 . S
H698 N692 0.984 . S
H699 N692 0.984 1_655 S
H700 N688 0.984 . S
H701 N688 0.985 . S
C702 C703 1.376 . S
C702 C708 1.368 1_554 S
C702 N710 1.359 . S
C703 C702 1.376 . S
C703 C709 1.363 . S
C704 C705 1.376 . S
C704 C709 1.368 1_556 S
C704 N711 1.359 . S
C705 C704 1.376 . S
C705 C708 1.363 . S
N706 C708 1.356 . S
N706 H718 0.984 . S
N706 H719 0.985 . S
N707 C709 1.356 . S
N707 H712 0.984 . S
N707 H713 0.985 . S
C708 C702 1.368 1_556 S
C708 C705 1.363 . S
C708 N706 1.356 . S
C709 C703 1.363 . S
C709 C704 1.368 1_554 S
C709 N707 1.356 . S
N710 C702 1.359 . S
N710 H716 0.984 1_554 S
N710 H717 0.984 . S
N711 C704 1.359 . S
N711 H714 0.984 . S
N711 H715 0.985 1_556 S
H712 N707 0.984 . S
H713 N707 0.985 . S
H714 N711 0.984 . S
H715 N711 0.985 1_554 S
H716 N710 0.984 1_556 S
H717 N710 0.984 . S
H718 N706 0.984 . S
H719 N706 0.985 . S
C720 C721 1.363 1_554 S
C720 C726 1.379 1_455 S
C720 N728 1.356 . S
C721 C720 1.363 1_556 S
C721 C727 1.363 . S
C722 C723 1.363 1_556 S
C722 C727 1.379 1_655 S
C722 N729 1.356 . S
C723 C722 1.363 1_554 S
C723 C726 1.363 . S
N724 C726 1.356 . S
N724 H736 0.984 . S
N724 H737 0.985 . S
N725 C727 1.356 . S
N725 H730 0.984 . S
N725 H731 0.985 . S
C726 C720 1.379 1_655 S
C726 C723 1.363 . S
C726 N724 1.356 . S
C727 C721 1.363 . S
C727 C722 1.379 1_455 S
C727 N725 1.356 . S
N728 C720 1.356 . S
N728 H734 0.984 . S
N728 H735 0.984 1_554 S
N729 C722 1.356 . S
N729 H732 0.984 1_556 S
N729 H733 0.985 . S
H730 N725 0.984 . S
H731 N725 0.985 . S
H732 N729 0.984 1_554 S
H733 N729 0.985 . S
H734 N728 0.984 . S
H735 N728 0.984 1_556 S
H736 N724 0.984 . S
H737 N724 0.985 . S
C738 C739 1.363 . S
C738 C744 1.379 . S
C738 N746 1.356 . S
C739 C738 1.363 . S
C739 C745 1.363 . S
C740 C741 1.363 . S
C740 C745 1.379 . S
C740 N747 1.356 . S
C741 C740 1.363 . S
C741 C744 1.363 . S
N742 C744 1.356 . S
N742 H754 0.984 . S
N742 H755 0.985 . S
N743 C745 1.356 . S
N743 H748 0.984 . S
N743 H749 0.985 . S
C744 C738 1.379 . S
C744 C741 1.363 . S
C744 N742 1.356 . S
C745 C739 1.363 . S
C745 C740 1.379 . S
C745 N743 1.356 . S
N746 C738 1.356 . S
N746 H752 0.984 . S
N746 H753 0.984 . S
N747 C740 1.356 . S
N747 H750 0.984 . S
N747 H751 0.985 . S
H748 N743 0.984 . S
H749 N743 0.985 . S
H750 N747 0.984 . S
H751 N747 0.985 . S
H752 N746 0.984 . S
H753 N746 0.984 . S
H754 N742 0.984 . S
H755 N742 0.985 . S
C756 C757 1.363 . S
C756 C762 1.379 . S
C756 N764 1.356 . S
C757 C756 1.363 . S
C757 C763 1.363 1_556 S
C758 C759 1.363 . S
C758 C763 1.379 . S
C758 N765 1.356 . S
C759 C758 1.363 . S
C759 C762 1.363 1_554 S
N760 C762 1.356 . S
N760 H772 0.984 . S
N760 H773 0.985 1_556 S
N761 C763 1.356 . S
N761 H766 0.984 1_554 S
N761 H767 0.985 . S
C762 C756 1.379 . S
C762 C759 1.363 1_556 S
C762 N760 1.356 . S
C763 C757 1.363 1_554 S
C763 C758 1.379 . S
C763 N761 1.356 . S
N764 C756 1.356 . S
N764 H770 0.984 . S
N764 H771 0.984 . S
N765 C758 1.356 . S
N765 H768 0.984 . S
N765 H769 0.985 . S
H766 N761 0.984 1_556 S
H767 N761 0.985 . S
H768 N765 0.984 . S
H769 N765 0.985 . S
H770 N764 0.984 . S
H771 N764 0.984 . S
H772 N760 0.984 . S
H773 N760 0.985 1_554 S
C774 C775 1.363 . S
C774 C780 1.379 . S
C774 N782 1.356 . S
C775 C774 1.363 . S
C775 C781 1.363 . S
C776 C777 1.363 . S
C776 C781 1.379 . S
C776 N783 1.356 . S
C777 C776 1.363 . S
C777 C780 1.363 . S
N778 C780 1.356 . S
N778 H790 0.984 . S
N778 H791 0.985 . S
N779 C781 1.356 . S
N779 H784 0.984 . S
N779 H785 0.985 . S
C780 C774 1.379 . S
C780 C777 1.363 . S
C780 N778 1.356 . S
C781 C775 1.363 . S
C781 C776 1.379 . S
C781 N779 1.356 . S
N782 C774 1.356 . S
N782 H788 0.984 . S
N782 H789 0.984 . S
N783 C776 1.356 . S
N783 H786 0.984 . S
N783 H787 0.985 . S
H784 N779 0.984 . S
H785 N779 0.985 . S
H786 N783 0.984 . S
H787 N783 0.985 . S
H788 N782 0.984 . S
H789 N782 0.984 . S
H790 N778 0.984 . S
H791 N778 0.985 . S
C792 C793 1.363 1_554 S
C792 C798 1.379 1_545 S
C792 N800 1.356 . S
C793 C792 1.363 1_556 S
C793 C799 1.363 . S
C794 C795 1.363 1_556 S
C794 C799 1.379 1_565 S
C794 N801 1.356 . S
C795 C794 1.363 1_554 S
C795 C798 1.363 . S
N796 C798 1.356 . S
N796 H808 0.984 . S
N796 H809 0.985 . S
N797 C799 1.356 . S
N797 H802 0.984 . S
N797 H803 0.985 . S
C798 C792 1.379 1_565 S
C798 C795 1.363 . S
C798 N796 1.356 . S
C799 C793 1.363 . S
C799 C794 1.379 1_545 S
C799 N797 1.356 . S
N800 C792 1.356 . S
N800 H806 0.984 . S
N800 H807 0.984 1_554 S
N801 C794 1.356 . S
N801 H804 0.984 1_556 S
N801 H805 0.985 . S
H802 N797 0.984 . S
H803 N797 0.985 . S
H804 N801 0.984 1_554 S
H805 N801 0.985 . S
H806 N800 0.984 . S
H807 N800 0.984 1_556 S
H808 N796 0.984 . S
H809 N796 0.985 . S
C810 C811 1.363 . S
C810 C816 1.379 . S
C810 N818 1.356 . S
C811 C810 1.363 . S
C811 C817 1.363 . S
C812 C813 1.363 . S
C812 C817 1.379 . S
C812 N819 1.356 . S
C813 C812 1.363 . S
C813 C816 1.363 . S
N814 C816 1.356 . S
N814 H826 0.984 . S
N814 H827 0.985 . S
N815 C817 1.356 . S
N815 H820 0.984 . S
N815 H821 0.985 . S
C816 C810 1.379 . S
C816 C813 1.363 . S
C816 N814 1.356 . S
C817 C811 1.363 . S
C817 C812 1.379 . S
C817 N815 1.356 . S
N818 C810 1.356 . S
N818 H824 0.984 . S
N818 H825 0.984 . S
N819 C812 1.356 . S
N819 H822 0.984 . S
N819 H823 0.985 . S
H820 N815 0.984 . S
H821 N815 0.985 . S
H822 N819 0.984 . S
H823 N819 0.985 . S
H824 N818 0.984 . S
H825 N818 0.984 . S
H826 N814 0.984 . S
H827 N814 0.985 . S
C828 C829 1.363 . S
C828 C834 1.379 . S
C828 N836 1.356 . S
C829 C828 1.363 . S
C829 C835 1.363 . S
C830 C831 1.363 . S
C830 C835 1.379 . S
C830 N837 1.356 . S
C831 C830 1.363 . S
C831 C834 1.363 . S
N832 C834 1.356 . S
N832 H844 0.984 . S
N832 H845 0.985 . S
N833 C835 1.356 . S
N833 H838 0.984 . S
N833 H839 0.985 . S
C834 C828 1.379 . S
C834 C831 1.363 . S
C834 N832 1.356 . S
C835 C829 1.363 . S
C835 C830 1.379 . S
C835 N833 1.356 . S
N836 C828 1.356 . S
N836 H842 0.984 . S
N836 H843 0.984 . S
N837 C830 1.356 . S
N837 H840 0.984 . S
N837 H841 0.985 . S
H838 N833 0.984 . S
H839 N833 0.985 . S
H840 N837 0.984 . S
H841 N837 0.985 . S
H842 N836 0.984 . S
H843 N836 0.984 . S
H844 N832 0.984 . S
H845 N832 0.985 . S
C846 C847 1.363 . S
C846 C852 1.379 . S
C846 N854 1.356 . S
C847 C846 1.363 . S
C847 C853 1.363 . S
C848 C849 1.363 . S
C848 C853 1.379 . S
C848 N855 1.356 . S
C849 C848 1.363 . S
C849 C852 1.363 . S
N850 C852 1.356 . S
N850 H862 0.984 . S
N850 H863 0.985 . S
N851 C853 1.356 . S
N851 H856 0.984 . S
N851 H857 0.985 . S
C852 C846 1.379 . S
C852 C849 1.363 . S
C852 N850 1.356 . S
C853 C847 1.363 . S
C853 C848 1.379 . S
C853 N851 1.356 . S
N854 C846 1.356 . S
N854 H860 0.984 . S
N854 H861 0.984 . S
N855 C848 1.356 . S
N855 H858 0.984 . S
N855 H859 0.985 . S
H856 N851 0.984 . S
H857 N851 0.985 . S
H858 N855 0.984 . S
H859 N855 0.985 . S
H860 N854 0.984 . S
H861 N854 0.984 . S
H862 N850 0.984 . S
H863 N850 0.985 . S
C864 C865 1.363 . S
C864 C870 1.379 . S
C864 N872 1.356 . S
C865 C864 1.363 . S
C865 C871 1.363 . S
C866 C867 1.363 . S
C866 C871 1.379 . S
C866 N873 1.356 1_565 S
C867 C866 1.363 . S
C867 C870 1.363 . S
N868 C870 1.356 . S
N868 H880 0.984 . S
N868 H881 0.985 . S
N869 C871 1.356 . S
N869 H874 0.984 . S
N869 H875 0.985 . S
C870 C864 1.379 . S
C870 C867 1.363 . S
C870 N868 1.356 . S
C871 C865 1.363 . S
C871 C866 1.379 . S
C871 N869 1.356 . S
N872 C864 1.356 . S
N872 H878 0.984 . S
N872 H879 0.984 . S
N873 C866 1.356 1_545 S
N873 H876 0.984 . S
N873 H877 0.985 . S
H874 N869 0.984 . S
H875 N869 0.985 . S
H876 N873 0.984 . S
H877 N873 0.985 . S
H878 N872 0.984 . S
H879 N872 0.984 . S
H880 N868 0.984 . S
H881 N868 0.985 . S
C882 C883 1.363 . S
C882 C888 1.379 . S
C882 N890 1.356 . S
C883 C882 1.363 . S
C883 C889 1.363 . S
C884 C885 1.363 . S
C884 C889 1.379 . S
C884 N891 1.356 . S
C885 C884 1.363 . S
C885 C888 1.363 . S
N886 C888 1.356 . S
N886 H898 0.984 . S
N886 H899 0.985 . S
N887 C889 1.356 . S
N887 H892 0.984 . S
N887 H893 0.985 . S
C888 C882 1.379 . S
C888 C885 1.363 . S
C888 N886 1.356 . S
C889 C883 1.363 . S
C889 C884 1.379 . S
C889 N887 1.356 . S
N890 C882 1.356 . S
N890 H896 0.984 . S
N890 H897 0.984 . S
N891 C884 1.356 . S
N891 H894 0.984 . S
N891 H895 0.985 . S
H892 N887 0.984 . S
H893 N887 0.985 . S
H894 N891 0.984 . S
H895 N891 0.985 . S
H896 N890 0.984 . S
H897 N890 0.984 . S
H898 N886 0.984 . S
H899 N886 0.985 . S
C900 C901 1.363 . S
C900 C906 1.379 . S
C900 N908 1.356 . S
C901 C900 1.363 . S
C901 C907 1.363 . S
C902 C903 1.363 . S
C902 C907 1.379 . S
C902 N909 1.356 . S
C903 C902 1.363 . S
C903 C906 1.363 . S
N904 C906 1.356 . S
N904 H916 0.984 . S
N904 H917 0.985 . S
N905 C907 1.356 . S
N905 H910 0.984 . S
N905 H911 0.985 . S
C906 C900 1.379 . S
C906 C903 1.363 . S
C906 N904 1.356 . S
C907 C901 1.363 . S
C907 C902 1.379 . S
C907 N905 1.356 . S
N908 C900 1.356 . S
N908 H914 0.984 . S
N908 H915 0.984 . S
N909 C902 1.356 . S
N909 H912 0.984 . S
N909 H913 0.985 . S
H910 N905 0.984 . S
H911 N905 0.985 . S
H912 N909 0.984 . S
H913 N909 0.985 . S
H914 N908 0.984 . S
H915 N908 0.984 . S
H916 N904 0.984 . S
H917 N904 0.985 . S
C918 C919 1.363 . S
C918 C924 1.379 . S
C918 N926 1.356 . S
C919 C918 1.363 . S
C919 C925 1.363 . S
C920 C921 1.363 . S
C920 C925 1.379 . S
C920 N927 1.356 1_565 S
C921 C920 1.363 . S
C921 C924 1.363 . S
N922 C924 1.356 . S
N922 H934 0.984 . S
N922 H935 0.985 . S
N923 C925 1.356 . S
N923 H928 0.984 . S
N923 H929 0.985 . S
C924 C918 1.379 . S
C924 C921 1.363 . S
C924 N922 1.356 . S
C925 C919 1.363 . S
C925 C920 1.379 . S
C925 N923 1.356 . S
N926 C918 1.356 . S
N926 H932 0.984 . S
N926 H933 0.984 . S
N927 C920 1.356 1_545 S
N927 H930 0.984 . S
N927 H931 0.985 . S
H928 N923 0.984 . S
H929 N923 0.985 . S
H930 N927 0.984 . S
H931 N927 0.985 . S
H932 N926 0.984 . S
H933 N926 0.984 . S
H934 N922 0.984 . S
H935 N922 0.985 . S
C936 C937 1.363 . S
C936 C942 1.379 . S
C936 N944 1.356 . S
C937 C936 1.363 . S
C937 C943 1.363 . S
C938 C939 1.363 . S
C938 C943 1.379 . S
C938 N945 1.356 . S
C939 C938 1.363 . S
C939 C942 1.363 . S
N940 C942 1.356 . S
N940 H952 0.984 . S
N940 H953 0.985 . S
N941 C943 1.356 . S
N941 H946 0.984 . S
N941 H947 0.985 . S
C942 C936 1.379 . S
C942 C939 1.363 . S
C942 N940 1.356 . S
C943 C937 1.363 . S
C943 C938 1.379 . S
C943 N941 1.356 . S
N944 C936 1.356 . S
N944 H950 0.984 . S
N944 H951 0.984 . S
N945 C938 1.356 . S
N945 H948 0.984 1_545 S
N945 H949 0.985 1_545 S
H946 N941 0.984 . S
H947 N941 0.985 . S
H948 N945 0.984 1_565 S
H949 N945 0.985 1_565 S
H950 N944 0.984 . S
H951 N944 0.984 . S
H952 N940 0.984 . S
H953 N940 0.985 . S
C954 C955 1.363 . S
C954 C960 1.379 . S
C954 N962 1.356 . S
C955 C954 1.363 . S
C955 C961 1.363 . S
C956 C957 1.363 . S
C956 C961 1.379 . S
C956 N963 1.356 . S
C957 C956 1.363 . S
C957 C960 1.363 . S
N958 C960 1.356 . S
N958 H970 0.984 . S
N958 H971 0.985 . S
N959 C961 1.356 . S
N959 H964 0.984 . S
N959 H965 0.985 . S
C960 C954 1.379 . S
C960 C957 1.363 . S
C960 N958 1.356 . S
C961 C955 1.363 . S
C961 C956 1.379 . S
C961 N959 1.356 . S
N962 C954 1.356 . S
N962 H968 0.984 . S
N962 H969 0.984 . S
N963 C956 1.356 . S
N963 H966 0.984 . S
N963 H967 0.985 . S
H964 N959 0.984 . S
H965 N959 0.985 . S
H966 N963 0.984 . S
H967 N963 0.985 . S
H968 N962 0.984 . S
H969 N962 0.984 . S
H970 N958 0.984 . S
H971 N958 0.985 . S
C972 C973 1.363 . S
C972 C978 1.379 . S
C972 N980 1.356 . S
C973 C972 1.363 . S
C973 C979 1.363 . S
C974 C975 1.363 . S
C974 C979 1.379 . S
C974 N981 1.356 . S
C975 C974 1.363 . S
C975 C978 1.363 . S
N976 C978 1.356 . S
N976 H988 0.984 . S
N976 H989 0.985 . S
N977 C979 1.356 . S
N977 H982 0.984 . S
N977 H983 0.985 . S
C978 C972 1.379 . S
C978 C975 1.363 . S
C978 N976 1.356 . S
C979 C973 1.363 . S
C979 C974 1.379 . S
C979 N977 1.356 . S
N980 C972 1.356 . S
N980 H986 0.984 . S
N980 H987 0.984 . S
N981 C974 1.356 . S
N981 H984 0.984 . S
N981 H985 0.985 . S
H982 N977 0.984 . S
H983 N977 0.985 . S
H984 N981 0.984 . S
H985 N981 0.985 . S
H986 N980 0.984 . S
H987 N980 0.984 . S
H988 N976 0.984 . S
H989 N976 0.985 . S
C990 C991 1.363 . S
C990 C996 1.379 . S
C990 N998 1.356 1_545 S
C991 C990 1.363 . S
C991 C997 1.363 . S
C992 C993 1.363 . S
C992 C997 1.379 . S
C992 N999 1.356 . S
C993 C992 1.363 . S
C993 C996 1.363 . S
N994 C996 1.356 . S
N994 H1006 0.984 . S
N994 H1007 0.985 . S
N995 C997 1.356 . S
N995 H1000 0.984 . S
N995 H1001 0.985 . S
C996 C990 1.379 . S
C996 C993 1.363 . S
C996 N994 1.356 . S
C997 C991 1.363 . S
C997 C992 1.379 . S
C997 N995 1.356 . S
N998 C990 1.356 1_565 S
N998 H1004 0.984 . S
N998 H1005 0.984 . S
N999 C992 1.356 . S
N999 H1002 0.984 . S
N999 H1003 0.985 . S
H1000 N995 0.984 . S
H1001 N995 0.985 . S
H1002 N999 0.984 . S
H1003 N999 0.985 . S
H1004 N998 0.984 . S
H1005 N998 0.984 . S
H1006 N994 0.984 . S
H1007 N994 0.985 . S
C1008 C1009 1.363 . S
C1008 C1014 1.379 . S
C1008 N1016 1.356 . S
C1009 C1008 1.363 . S
C1009 C1015 1.363 . S
C1010 C1011 1.363 . S
C1010 C1015 1.379 . S
C1010 N1017 1.356 1_565 S
C1011 C1010 1.363 . S
C1011 C1014 1.363 . S
N1012 C1014 1.356 . S
N1012 H1024 0.984 . S
N1012 H1025 0.985 . S
N1013 C1015 1.356 . S
N1013 H1018 0.984 . S
N1013 H1019 0.985 . S
C1014 C1008 1.379 . S
C1014 C1011 1.363 . S
C1014 N1012 1.356 . S
C1015 C1009 1.363 . S
C1015 C1010 1.379 . S
C1015 N1013 1.356 . S
N1016 C1008 1.356 . S
N1016 H1022 0.984 . S
N1016 H1023 0.984 . S
N1017 C1010 1.356 1_545 S
N1017 H1020 0.984 . S
N1017 H1021 0.985 . S
H1018 N1013 0.984 . S
H1019 N1013 0.985 . S
H1020 N1017 0.984 . S
H1021 N1017 0.985 . S
H1022 N1016 0.984 . S
H1023 N1016 0.984 . S
H1024 N1012 0.984 . S
H1025 N1012 0.985 . S
C1026 C1027 1.363 . S
C1026 C1032 1.379 . S
C1026 N1034 1.356 . S
C1027 C1026 1.363 . S
C1027 C1033 1.363 . S
C1028 C1029 1.363 . S
C1028 C1033 1.379 . S
C1028 N1035 1.356 . S
C1029 C1028 1.363 . S
C1029 C1032 1.363 . S
N1030 C1032 1.356 . S
N1030 H1042 0.984 . S
N1030 H1043 0.985 . S
N1031 C1033 1.356 . S
N1031 H1036 0.984 . S
N1031 H1037 0.985 . S
C1032 C1026 1.379 . S
C1032 C1029 1.363 . S
C1032 N1030 1.356 . S
C1033 C1027 1.363 . S
C1033 C1028 1.379 . S
C1033 N1031 1.356 . S
N1034 C1026 1.356 . S
N1034 H1040 0.984 . S
N1034 H1041 0.984 . S
N1035 C1028 1.356 . S
N1035 H1038 0.984 . S
N1035 H1039 0.985 . S
H1036 N1031 0.984 . S
H1037 N1031 0.985 . S
H1038 N1035 0.984 . S
H1039 N1035 0.985 . S
H1040 N1034 0.984 . S
H1041 N1034 0.984 . S
H1042 N1030 0.984 . S
H1043 N1030 0.985 . S
C1044 C1045 1.363 . S
C1044 C1050 1.379 . S
C1044 N1052 1.356 . S
C1045 C1044 1.363 . S
C1045 C1051 1.363 . S
C1046 C1047 1.363 . S
C1046 C1051 1.379 . S
C1046 N1053 1.356 . S
C1047 C1046 1.363 . S
C1047 C1050 1.363 . S
N1048 C1050 1.356 . S
N1048 H1060 0.984 . S
N1048 H1061 0.985 . S
N1049 C1051 1.356 . S
N1049 H1054 0.984 . S
N1049 H1055 0.985 . S
C1050 C1044 1.379 . S
C1050 C1047 1.363 . S
C1050 N1048 1.356 . S
C1051 C1045 1.363 . S
C1051 C1046 1.379 . S
C1051 N1049 1.356 . S
N1052 C1044 1.356 . S
N1052 H1058 0.984 . S
N1052 H1059 0.984 . S
N1053 C1046 1.356 . S
N1053 H1056 0.984 . S
N1053 H1057 0.985 . S
H1054 N1049 0.984 . S
H1055 N1049 0.985 . S
H1056 N1053 0.984 . S
H1057 N1053 0.985 . S
H1058 N1052 0.984 . S
H1059 N1052 0.984 . S
H1060 N1048 0.984 . S
H1061 N1048 0.985 . S
C1062 C1063 1.363 . S
C1062 C1068 1.379 . S
C1062 N1070 1.356 . S
C1063 C1062 1.363 . S
C1063 C1069 1.363 . S
C1064 C1065 1.363 . S
C1064 C1069 1.379 . S
C1064 N1071 1.356 1_565 S
C1065 C1064 1.363 . S
C1065 C1068 1.363 . S
N1066 C1068 1.356 . S
N1066 H1078 0.984 . S
N1066 H1079 0.985 . S
N1067 C1069 1.356 . S
N1067 H1072 0.984 . S
N1067 H1073 0.985 . S
C1068 C1062 1.379 . S
C1068 C1065 1.363 . S
C1068 N1066 1.356 . S
C1069 C1063 1.363 . S
C1069 C1064 1.379 . S
C1069 N1067 1.356 . S
N1070 C1062 1.356 . S
N1070 H1076 0.984 . S
N1070 H1077 0.984 . S
N1071 C1064 1.356 1_545 S
N1071 H1074 0.984 . S
N1071 H1075 0.985 . S
H1072 N1067 0.984 . S
H1073 N1067 0.985 . S
H1074 N1071 0.984 . S
H1075 N1071 0.985 . S
H1076 N1070 0.984 . S
H1077 N1070 0.984 . S
H1078 N1066 0.984 . S
H1079 N1066 0.985 . S
C1080 C1081 1.363 . S
C1080 C1086 1.379 . S
C1080 N1088 1.356 . S
C1081 C1080 1.363 . S
C1081 C1087 1.363 . S
C1082 C1083 1.363 . S
C1082 C1087 1.379 . S
C1082 N1089 1.356 . S
C1083 C1082 1.363 . S
C1083 C1086 1.363 . S
N1084 C1086 1.356 1_565 S
N1084 H1096 0.984 . S
N1084 H1097 0.985 . S
N1085 C1087 1.356 . S
N1085 H1090 0.984 . S
N1085 H1091 0.985 . S
C1086 C1080 1.379 . S
C1086 C1083 1.363 . S
C1086 N1084 1.356 1_545 S
C1087 C1081 1.363 . S
C1087 C1082 1.379 . S
C1087 N1085 1.356 . S
N1088 C1080 1.356 . S
N1088 H1094 0.984 . S
N1088 H1095 0.984 . S
N1089 C1082 1.356 . S
N1089 H1092 0.984 . S
N1089 H1093 0.985 . S
H1090 N1085 0.984 . S
H1091 N1085 0.985 . S
H1092 N1089 0.984 . S
H1093 N1089 0.985 . S
H1094 N1088 0.984 . S
H1095 N1088 0.984 . S
H1096 N1084 0.984 . S
H1097 N1084 0.985 . S
C1098 C1099 1.363 . S
C1098 C1104 1.379 . S
C1098 N1106 1.356 . S
C1099 C1098 1.363 . S
C1099 C1105 1.363 . S
C1100 C1101 1.363 . S
C1100 C1105 1.379 . S
C1100 N1107 1.356 . S
C1101 C1100 1.363 . S
C1101 C1104 1.363 . S
N1102 C1104 1.356 . S
N1102 H1114 0.984 . S
N1102 H1115 0.985 . S
N1103 C1105 1.356 . S
N1103 H1108 0.984 . S
N1103 H1109 0.985 . S
C1104 C1098 1.379 . S
C1104 C1101 1.363 . S
C1104 N1102 1.356 . S
C1105 C1099 1.363 . S
C1105 C1100 1.379 . S
C1105 N1103 1.356 . S
N1106 C1098 1.356 . S
N1106 H1112 0.984 . S
N1106 H1113 0.984 . S
N1107 C1100 1.356 . S
N1107 H1110 0.984 . S
N1107 H1111 0.985 . S
H1108 N1103 0.984 . S
H1109 N1103 0.985 . S
H1110 N1107 0.984 . S
H1111 N1107 0.985 . S
H1112 N1106 0.984 . S
H1113 N1106 0.984 . S
H1114 N1102 0.984 . S
H1115 N1102 0.985 . S
C1116 C1117 1.363 . S
C1116 C1122 1.379 . S
C1116 N1124 1.356 . S
C1117 C1116 1.363 . S
C1117 C1123 1.363 . S
C1118 C1119 1.363 . S
C1118 C1123 1.379 . S
C1118 N1125 1.356 . S
C1119 C1118 1.363 . S
C1119 C1122 1.363 . S
N1120 C1122 1.356 . S
N1120 H1132 0.984 . S
N1120 H1133 0.985 . S
N1121 C1123 1.356 . S
N1121 H1126 0.984 . S
N1121 H1127 0.985 . S
C1122 C1116 1.379 . S
C1122 C1119 1.363 . S
C1122 N1120 1.356 . S
C1123 C1117 1.363 . S
C1123 C1118 1.379 . S
C1123 N1121 1.356 . S
N1124 C1116 1.356 . S
N1124 H1130 0.984 . S
N1124 H1131 0.984 . S
N1125 C1118 1.356 . S
N1125 H1128 0.984 . S
N1125 H1129 0.985 . S
H1126 N1121 0.984 . S
H1127 N1121 0.985 . S
H1128 N1125 0.984 . S
H1129 N1125 0.985 . S
H1130 N1124 0.984 . S
H1131 N1124 0.984 . S
H1132 N1120 0.984 . S
H1133 N1120 0.985 . S
C1134 C1135 1.363 . S
C1134 C1140 1.379 . S
C1134 N1142 1.356 . S
C1135 C1134 1.363 . S
C1135 C1141 1.363 . S
C1136 C1137 1.363 . S
C1136 C1141 1.379 . S
C1136 N1143 1.356 . S
C1137 C1136 1.363 . S
C1137 C1140 1.363 . S
N1138 C1140 1.356 . S
N1138 H1150 0.984 1_545 S
N1138 H1151 0.985 1_545 S
N1139 C1141 1.356 . S
N1139 H1144 0.984 . S
N1139 H1145 0.985 . S
C1140 C1134 1.379 . S
C1140 C1137 1.363 . S
C1140 N1138 1.356 . S
C1141 C1135 1.363 . S
C1141 C1136 1.379 . S
C1141 N1139 1.356 . S
N1142 C1134 1.356 . S
N1142 H1148 0.984 . S
N1142 H1149 0.984 . S
N1143 C1136 1.356 . S
N1143 H1146 0.984 . S
N1143 H1147 0.985 . S
H1144 N1139 0.984 . S
H1145 N1139 0.985 . S
H1146 N1143 0.984 . S
H1147 N1143 0.985 . S
H1148 N1142 0.984 . S
H1149 N1142 0.984 . S
H1150 N1138 0.984 1_565 S
H1151 N1138 0.985 1_565 S
C577 C518 1.459 . S
C579 C14 1.459 . S
C595 C75 1.505 . S
C597 C3 1.505 . S
C613 C410 1.459 . S
C615 C50 1.459 . S
C631 C39 1.505 . S
C633 C255 1.505 . S
C649 C86 1.459 . S
C651 C446 1.459 . S
C667 C338 1.459 . S
C669 C122 1.459 . S
C685 C111 1.505 . S
C687 C183 1.505 . S
C703 C374 1.459 . S
C705 C158 1.459 . S
C721 C147 1.505 . S
C723 C219 1.505 . S
C739 C554 1.459 . S
C741 C194 1.459 . S
C757 C302 1.459 . S
C759 C230 1.459 . S
C775 C482 1.459 . S
C777 C266 1.459 . S
C793 C291 1.505 . S
C795 C363 1.505 . S
C811 C543 1.505 . S
C813 C327 1.505 . S
C829 C399 1.505 . S
C831 C471 1.505 . S
C847 C507 1.505 . S
C849 C435 1.505 . S
C865 C182 1.371 . S
C867 C2 1.371 1_565 S
C883 C4 1.415 . S
C885 C184 1.415 . S
C901 C38 1.371 . S
C903 C146 1.371 . S
C919 C148 1.415 . S
C921 C40 1.415 . S
C937 C254 1.371 . S
C939 C74 1.371 1_545 S
C955 C256 1.415 . S
C957 C76 1.415 . S
C973 C218 1.371 . S
C975 C110 1.371 . S
C991 C112 1.415 . S
C993 C220 1.415 . S
C1009 C470 1.371 . S
C1011 C290 1.371 1_565 S
C1027 C292 1.415 . S
C1029 C472 1.415 . S
C1045 C326 1.371 . S
C1047 C434 1.371 . S
C1063 C436 1.415 . S
C1065 C328 1.415 . S
C1081 C542 1.371 . S
C1083 C362 1.371 1_545 S
C1099 C544 1.415 . S
C1101 C364 1.415 . S
C1117 C398 1.371 . S
C1119 C506 1.371 . S
C1135 C508 1.415 . S
C1137 C400 1.415 . S
