# Generated by pormake.
# Topology pcb, (4)-cn, num edge types: 1
# Building blocks:
#     Node 0, Type 0, BuildingBlock: NAHDIM_clean_sbu_0, # of connection points: 4
#     Node 1, Type 0, BuildingBlock: NAHDIM_clean_sbu_0, # of connection points: 4
#     Node 2, Type 0, BuildingBlock: NAHDIM_clean_sbu_0, # of connection points: 4
#     Node 3, Type 0, BuildingBlock: NAHDIM_clean_sbu_0, # of connection points: 4
#     Node 4, Type 0, BuildingBlock: NAHDIM_clean_sbu_0, # of connection points: 4
#     Node 5, Type 0, BuildingBlock: NAHDIM_clean_sbu_0, # of connection points: 4
#     Node 6, Type 0, BuildingBlock: NAHDIM_clean_sbu_0, # of connection points: 4
#     Node 7, Type 0, BuildingBlock: NAHDIM_clean_sbu_0, # of connection points: 4
#     Node 8, Type 0, BuildingBlock: NAHDIM_clean_sbu_0, # of connection points: 4
#     Node 9, Type 0, BuildingBlock: NAHDIM_clean_sbu_0, # of connection points: 4
#     Node 10, Type 0, BuildingBlock: NAHDIM_clean_sbu_0, # of connection points: 4
#     Node 11, Type 0, BuildingBlock: NAHDIM_clean_sbu_0, # of connection points: 4
#     Node 12, Type 0, BuildingBlock: NAHDIM_clean_sbu_0, # of connection points: 4
#     Node 13, Type 0, BuildingBlock: NAHDIM_clean_sbu_0, # of connection points: 4
#     Node 14, Type 0, BuildingBlock: NAHDIM_clean_sbu_0, # of connection points: 4
#     Node 15, Type 0, BuildingBlock: NAHDIM_clean_sbu_0, # of connection points: 4
#     Edge 16, Type (0, 0), BuildingBlock: OJICUG_clean_linker_0, # of connection points: 2
#     Edge 17, Type (0, 0), BuildingBlock: OJICUG_clean_linker_0, # of connection points: 2
#     Edge 18, Type (0, 0), BuildingBlock: OJICUG_clean_linker_0, # of connection points: 2
#     Edge 19, Type (0, 0), BuildingBlock: OJICUG_clean_linker_0, # of connection points: 2
#     Edge 20, Type (0, 0), BuildingBlock: OJICUG_clean_linker_0, # of connection points: 2
#     Edge 21, Type (0, 0), BuildingBlock: OJICUG_clean_linker_0, # of connection points: 2
#     Edge 22, Type (0, 0), BuildingBlock: OJICUG_clean_linker_0, # of connection points: 2
#     Edge 23, Type (0, 0), BuildingBlock: OJICUG_clean_linker_0, # of connection points: 2
#     Edge 24, Type (0, 0), BuildingBlock: OJICUG_clean_linker_0, # of connection points: 2
#     Edge 25, Type (0, 0), BuildingBlock: OJICUG_clean_linker_0, # of connection points: 2
#     Edge 26, Type (0, 0), BuildingBlock: OJICUG_clean_linker_0, # of connection points: 2
#     Edge 27, Type (0, 0), BuildingBlock: OJICUG_clean_linker_0, # of connection points: 2
#     Edge 28, Type (0, 0), BuildingBlock: OJICUG_clean_linker_0, # of connection points: 2
#     Edge 29, Type (0, 0), BuildingBlock: OJICUG_clean_linker_0, # of connection points: 2
#     Edge 30, Type (0, 0), BuildingBlock: OJICUG_clean_linker_0, # of connection points: 2
#     Edge 31, Type (0, 0), BuildingBlock: OJICUG_clean_linker_0, # of connection points: 2
#     Edge 32, Type (0, 0), BuildingBlock: OJICUG_clean_linker_0, # of connection points: 2
#     Edge 33, Type (0, 0), BuildingBlock: OJICUG_clean_linker_0, # of connection points: 2
#     Edge 34, Type (0, 0), BuildingBlock: OJICUG_clean_linker_0, # of connection points: 2
#     Edge 35, Type (0, 0), BuildingBlock: OJICUG_clean_linker_0, # of connection points: 2
#     Edge 36, Type (0, 0), BuildingBlock: OJICUG_clean_linker_0, # of connection points: 2
#     Edge 37, Type (0, 0), BuildingBlock: OJICUG_clean_linker_0, # of connection points: 2
#     Edge 38, Type (0, 0), BuildingBlock: OJICUG_clean_linker_0, # of connection points: 2
#     Edge 39, Type (0, 0), BuildingBlock: OJICUG_clean_linker_0, # of connection points: 2
#     Edge 40, Type (0, 0), BuildingBlock: OJICUG_clean_linker_0, # of connection points: 2
#     Edge 41, Type (0, 0), BuildingBlock: OJICUG_clean_linker_0, # of connection points: 2
#     Edge 42, Type (0, 0), BuildingBlock: OJICUG_clean_linker_0, # of connection points: 2
#     Edge 43, Type (0, 0), BuildingBlock: OJICUG_clean_linker_0, # of connection points: 2
#     Edge 44, Type (0, 0), BuildingBlock: OJICUG_clean_linker_0, # of connection points: 2
#     Edge 45, Type (0, 0), BuildingBlock: OJICUG_clean_linker_0, # of connection points: 2
#     Edge 46, Type (0, 0), BuildingBlock: OJICUG_clean_linker_0, # of connection points: 2
#     Edge 47, Type (0, 0), BuildingBlock: OJICUG_clean_linker_0, # of connection points: 2
# Relax obj value: 0.188
# Max RMSD: 0.099
# Mean RMSD: 0.079
data_MOF--net-pcb--node1-NAHDIM_clean_sbu_0--edge1-OJICUG_clean_linker_0
_symmetry_space_group_name_H-M    P1
_symmetry_Int_Tables_number       1
_symmetry_cell_setting            triclinic
loop_
_symmetry_equiv_pos_as_xyz
'x, y, z'
_cell_length_a     33.019244
_cell_length_b     34.900925
_cell_length_c     36.689822
_cell_angle_alpha  90.513126
_cell_angle_beta   90.824377
_cell_angle_gamma 92.14318
loop_
_atom_site_label
_atom_site_type_symbol
_atom_site_fract_x
_atom_site_fract_y
_atom_site_fract_z
_atom_type_partial_charge
C0 C 0.18708 0.18473 0.2018 0.0
O1 O 0.1797 0.15071 0.21583 0.0
O2 O 0.15877 0.10248 0.14808 0.0
Zn3 Zn 0.13426 0.15413 0.14651 0.0
O4 O 0.07841 0.15218 0.16714 0.0
C5 C 0.15928 0.17242 0.07391 0.0
O6 O 0.19589 0.17046 0.08812 0.0
O7 O 0.17013 0.19319 0.17187 0.0
C8 C 0.05438 0.17779 0.15716 0.0
O9 O 0.06803 0.20569 0.13631 0.0
C10 C 0.14587 0.07569 0.16853 0.0
O11 O 0.11614 0.0821 0.19095 0.0
O12 O 0.12877 0.16737 0.09416 0.0
C13 C 0.77921 0.20046 0.18191 0.0
O14 O 0.80953 0.21684 0.16437 0.0
O15 O 0.86032 0.15618 0.14365 0.0
Zn16 Zn 0.8026 0.13646 0.13975 0.0
O17 O 0.80307 0.08077 0.15308 0.0
C18 C 0.79894 0.16667 0.06685 0.0
O19 O 0.82612 0.19155 0.08034 0.0
O20 O 0.76928 0.1656 0.17499 0.0
C21 C 0.78422 0.05433 0.13501 0.0
O22 O 0.7609 0.06344 0.10735 0.0
C23 C 0.88314 0.14561 0.16955 0.0
O24 O 0.86834 0.1221 0.19421 0.0
O25 O 0.78324 0.14146 0.08769 0.0
C26 C 0.79967 0.78828 0.19037 0.0
O27 O 0.81807 0.81791 0.20662 0.0
O28 O 0.81745 0.87229 0.1313 0.0
Zn29 Zn 0.83967 0.81952 0.12875 0.0
O30 O 0.89709 0.8206 0.14747 0.0
C31 C 0.81098 0.81251 0.05513 0.0
O32 O 0.78095 0.83198 0.068 0.0
O33 O 0.80486 0.78278 0.15658 0.0
C34 C 0.92145 0.7964 0.13531 0.0
O35 O 0.90794 0.76989 0.11207 0.0
C36 C 0.8304 0.89792 0.15381 0.0
O37 O 0.85909 0.88978 0.17737 0.0
O38 O 0.83943 0.8032 0.0765 0.0
C39 C 0.19823 0.77606 0.17442 0.0
O40 O 0.16604 0.75934 0.15887 0.0
O41 O 0.19443 0.84008 0.08077 0.0
Zn42 Zn 0.17352 0.83995 0.13206 0.0
O43 O 0.11629 0.81835 0.13163 0.0
C44 C 0.19338 0.9216 0.13879 0.0
O45 O 0.22134 0.91471 0.11472 0.0
O46 O 0.20811 0.81038 0.16619 0.0
C47 C 0.09261 0.82702 0.15716 0.0
O48 O 0.10653 0.84889 0.18422 0.0
C49 C 0.18186 0.81481 0.05771 0.0
O50 O 0.15697 0.78702 0.06839 0.0
O51 O 0.17092 0.89407 0.15017 0.0
C52 C 0.20747 0.77177 0.80414 0.0
O53 O 0.19071 0.75936 0.83428 0.0
O54 O 0.11657 0.83572 0.81324 0.0
Zn55 Zn 0.17495 0.84129 0.82894 0.0
O56 O 0.17961 0.82591 0.88163 0.0
C57 C 0.16552 0.9193 0.83794 0.0
O58 O 0.13405 0.90393 0.85468 0.0
O59 O 0.20629 0.80716 0.79649 0.0
C60 C 0.20389 0.84262 0.90435 0.0
O61 O 0.22837 0.8705 0.89316 0.0
C62 C 0.09209 0.81102 0.82679 0.0
O63 O 0.10542 0.78714 0.85129 0.0
O64 O 0.19088 0.89724 0.82381 0.0
C65 C 0.1904 0.18715 0.7793 0.0
O66 O 0.16157 0.16637 0.76272 0.0
O67 O 0.09417 0.1787 0.83311 0.0
Zn68 Zn 0.15039 0.16112 0.84403 0.0
O69 O 0.15109 0.10401 0.83774 0.0
C70 C 0.13337 0.16955 0.91859 0.0
O71 O 0.09699 0.15987 0.90587 0.0
O72 O 0.19158 0.18862 0.81385 0.0
C73 C 0.18159 0.08449 0.83007 0.0
O74 O 0.21664 0.10212 0.82388 0.0
C75 C 0.06909 0.15871 0.81364 0.0
O76 O 0.08149 0.12794 0.79692 0.0
O77 O 0.16265 0.17245 0.89662 0.0
C78 C 0.78801 0.20291 0.79618 0.0
O79 O 0.8197 0.22079 0.81143 0.0
O80 O 0.87352 0.14738 0.82403 0.0
Zn81 Zn 0.81537 0.1408 0.83922 0.0
O82 O 0.80967 0.15942 0.89094 0.0
C83 C 0.81444 0.06418 0.81118 0.0
O84 O 0.83676 0.08069 0.78599 0.0
O85 O 0.77959 0.16838 0.80465 0.0
C86 C 0.7824 0.14499 0.91132 0.0
O87 O 0.75645 0.11906 0.89763 0.0
C88 C 0.8983 0.17258 0.83748 0.0
O89 O 0.88572 0.19667 0.86221 0.0
O90 O 0.80083 0.08456 0.83678 0.0
C91 C 0.79233 0.79685 0.76659 0.0
O92 O 0.80663 0.82786 0.75045 0.0
O93 O 0.89646 0.81169 0.82534 0.0
Zn94 Zn 0.83853 0.82626 0.82848 0.0
O95 O 0.83293 0.88066 0.81267 0.0
C96 C 0.83561 0.79691 0.90106 0.0
O97 O 0.86022 0.77178 0.88771 0.0
O98 O 0.80254 0.7905 0.79937 0.0
C99 C 0.80411 0.89993 0.82488 0.0
O100 O 0.77742 0.8832 0.84632 0.0
C101 C 0.9208 0.82675 0.80265 0.0
O102 O 0.90735 0.85162 0.77913 0.0
O103 O 0.82219 0.82272 0.88049 0.0
C104 C 0.68098 0.69018 0.69275 0.0
O105 O 0.66553 0.66046 0.71018 0.0
O106 O 0.66058 0.60191 0.64361 0.0
Zn107 Zn 0.63662 0.65322 0.63636 0.0
O108 O 0.58057 0.65361 0.65636 0.0
C109 C 0.66156 0.66559 0.56203 0.0
O110 O 0.69842 0.66789 0.57606 0.0
O111 O 0.67227 0.69412 0.65926 0.0
C112 C 0.55627 0.67763 0.6436 0.0
O113 O 0.56962 0.70298 0.61994 0.0
C114 C 0.646 0.57731 0.66559 0.0
O115 O 0.61498 0.58608 0.68566 0.0
O116 O 0.63157 0.6606 0.58288 0.0
C117 C 0.27036 0.66383 0.70122 0.0
O118 O 0.28447 0.63126 0.7126 0.0
O119 O 0.36137 0.65715 0.63475 0.0
Zn120 Zn 0.30319 0.63878 0.63368 0.0
O121 O 0.3019 0.58376 0.64998 0.0
C122 C 0.29625 0.66714 0.56044 0.0
O123 O 0.32249 0.69337 0.57312 0.0
O124 O 0.27336 0.67248 0.66778 0.0
C125 C 0.28178 0.55703 0.63342 0.0
O126 O 0.25861 0.56544 0.60543 0.0
C127 C 0.38516 0.64712 0.66014 0.0
O128 O 0.37114 0.62476 0.68605 0.0
O129 O 0.28229 0.64167 0.58191 0.0
C130 C 0.3022 0.28296 0.69806 0.0
O131 O 0.33065 0.30401 0.71487 0.0
O132 O 0.31128 0.37471 0.63649 0.0
Zn133 Zn 0.33306 0.32171 0.63545 0.0
O134 O 0.3906 0.32301 0.65423 0.0
C135 C 0.30517 0.31346 0.56157 0.0
O136 O 0.27533 0.33377 0.57357 0.0
O137 O 0.29773 0.28577 0.66382 0.0
C138 C 0.41495 0.29855 0.6425 0.0
O139 O 0.40143 0.27168 0.61964 0.0
C140 C 0.32185 0.40016 0.66005 0.0
O141 O 0.34754 0.39167 0.68617 0.0
O142 O 0.33305 0.30415 0.58356 0.0
C143 C 0.69339 0.27734 0.68584 0.0
O144 O 0.66208 0.25934 0.67006 0.0
O145 O 0.69053 0.33902 0.59149 0.0
Zn146 Zn 0.66767 0.33985 0.64199 0.0
O147 O 0.61045 0.31799 0.64088 0.0
C148 C 0.69035 0.42047 0.64871 0.0
O149 O 0.72103 0.41125 0.62841 0.0
O150 O 0.70201 0.31186 0.67741 0.0
C151 C 0.58631 0.32774 0.66569 0.0
O152 O 0.59993 0.35037 0.6923 0.0
C153 C 0.68012 0.31333 0.56809 0.0
O154 O 0.65515 0.2851 0.57762 0.0
O155 O 0.66481 0.39452 0.65822 0.0
C156 C 0.70065 0.28254 0.29681 0.0
O157 O 0.66911 0.26695 0.31324 0.0
O158 O 0.62145 0.34055 0.32733 0.0
Zn159 Zn 0.68045 0.34583 0.34143 0.0
O160 O 0.68735 0.3262 0.39255 0.0
C161 C 0.68073 0.42222 0.31474 0.0
O162 O 0.658 0.40524 0.28924 0.0
O163 O 0.71241 0.31657 0.30531 0.0
C164 C 0.70945 0.34373 0.41645 0.0
O165 O 0.73095 0.37441 0.40705 0.0
C166 C 0.59652 0.31803 0.34331 0.0
O167 O 0.60954 0.29633 0.36976 0.0
O168 O 0.69565 0.40207 0.33992 0.0
C169 C 0.69076 0.68776 0.26967 0.0
O170 O 0.67292 0.65759 0.25383 0.0
O171 O 0.58933 0.67392 0.32473 0.0
Zn172 Zn 0.64751 0.66022 0.33149 0.0
O173 O 0.65492 0.60511 0.31771 0.0
C174 C 0.63424 0.65613 0.40672 0.0
O175 O 0.59981 0.64089 0.39407 0.0
O176 O 0.68395 0.69475 0.30295 0.0
C177 C 0.68334 0.5866 0.33213 0.0
O178 O 0.7085 0.60426 0.35532 0.0
C179 C 0.56386 0.65341 0.30619 0.0
O180 O 0.57638 0.62362 0.28798 0.0
O181 O 0.66121 0.66707 0.38441 0.0
C182 C 0.28674 0.69908 0.28728 0.0
O183 O 0.31962 0.71537 0.302 0.0
O184 O 0.368 0.64262 0.31893 0.0
Zn185 Zn 0.30942 0.63762 0.3331 0.0
O186 O 0.30324 0.65731 0.38445 0.0
C187 C 0.30848 0.56042 0.30679 0.0
O188 O 0.33151 0.57624 0.28172 0.0
O189 O 0.27551 0.66564 0.29721 0.0
C190 C 0.277 0.64228 0.40551 0.0
O191 O 0.25203 0.61502 0.39274 0.0
C192 C 0.39336 0.66681 0.33315 0.0
O193 O 0.3812 0.69084 0.35813 0.0
O194 O 0.29402 0.58152 0.33142 0.0
C195 C 0.29546 0.2945 0.275 0.0
O196 O 0.3036 0.32832 0.26087 0.0
O197 O 0.4004 0.31348 0.33652 0.0
Zn198 Zn 0.34154 0.32522 0.33627 0.0
O199 O 0.33419 0.37873 0.31854 0.0
C200 C 0.33426 0.29618 0.40845 0.0
O201 O 0.35897 0.27066 0.39596 0.0
O202 O 0.3093 0.28691 0.30644 0.0
C203 C 0.30391 0.39732 0.32867 0.0
O204 O 0.27687 0.38062 0.34978 0.0
C205 C 0.42525 0.32872 0.31438 0.0
O206 O 0.41187 0.35189 0.28926 0.0
O207 O 0.3223 0.32227 0.38745 0.0
C208 C 0.25048 0.27506 0.22212 0.0
C209 C 0.26871 0.26609 0.25561 0.0
H210 H 0.21021 0.25638 0.17886 0.0
C211 C 0.26024 0.23001 0.27107 0.0
H212 H 0.25638 0.30264 0.20956 0.0
C213 C 0.23377 0.20355 0.25354 0.0
C214 C 0.21522 0.21264 0.22024 0.0
H215 H 0.27384 0.22222 0.29687 0.0
H216 H 0.22775 0.17605 0.26622 0.0
C217 C 0.22395 0.24858 0.2046 0.0
C218 C 0.75297 0.27897 0.24833 0.0
C219 C 0.72094 0.26144 0.26761 0.0
H220 H 0.79626 0.27359 0.20599 0.0
C221 C 0.70786 0.22383 0.25816 0.0
H222 H 0.76368 0.30798 0.25486 0.0
C223 C 0.7265 0.20412 0.23008 0.0
C224 C 0.75857 0.22165 0.21084 0.0
H225 H 0.68318 0.20954 0.27243 0.0
H226 H 0.71583 0.1751 0.22357 0.0
C227 C 0.77156 0.2593 0.22022 0.0
C228 C 0.76488 0.76918 0.24776 0.0
C229 C 0.77233 0.76221 0.21078 0.0
H230 H 0.73319 0.75117 0.29535 0.0
C231 C 0.75291 0.7304 0.19329 0.0
H232 H 0.77935 0.79345 0.26199 0.0
C233 C 0.72641 0.70614 0.2124 0.0
C234 C 0.7188 0.71324 0.24934 0.0
H235 H 0.75804 0.72426 0.16477 0.0
H236 H 0.71185 0.6819 0.19818 0.0
C237 C 0.73836 0.74495 0.26685 0.0
C238 C 0.23012 0.70055 0.24127 0.0
C239 C 0.26401 0.71878 0.25848 0.0
H240 H 0.18292 0.70421 0.20105 0.0
C241 C 0.27646 0.75576 0.24743 0.0
H242 H 0.21984 0.67199 0.24908 0.0
C243 C 0.25535 0.77419 0.21985 0.0
C244 C 0.22137 0.75601 0.20272 0.0
H245 H 0.30252 0.77055 0.26008 0.0
H246 H 0.2656 0.80278 0.2121 0.0
C247 C 0.20903 0.71897 0.21365 0.0
C248 C 0.24757 0.72933 0.71719 0.0
C249 C 0.25383 0.69128 0.72745 0.0
H250 H 0.22864 0.78476 0.73354 0.0
C251 C 0.2454 0.68009 0.76331 0.0
H252 H 0.25404 0.7389 0.68981 0.0
C253 C 0.23067 0.70635 0.78835 0.0
C254 C 0.22452 0.74442 0.77811 0.0
H255 H 0.25 0.65099 0.77205 0.0
H256 H 0.22414 0.69681 0.81572 0.0
C257 C 0.23329 0.75569 0.74233 0.0
C258 C 0.21744 0.2113 0.7201 0.0
C259 C 0.22014 0.21017 0.75829 0.0
H260 H 0.2413 0.2352 0.67109 0.0
C261 C 0.25089 0.23219 0.77643 0.0
H262 H 0.19414 0.19462 0.70534 0.0
C263 C 0.27793 0.25544 0.75684 0.0
C264 C 0.27473 0.25717 0.71871 0.0
H265 H 0.25387 0.23186 0.80586 0.0
H266 H 0.30098 0.27238 0.77165 0.0
C267 C 0.24446 0.2346 0.7005 0.0
C268 C 0.73047 0.20244 0.75101 0.0
C269 C 0.76343 0.22212 0.76835 0.0
H270 H 0.6826 0.20438 0.71124 0.0
C271 C 0.77319 0.26004 0.75828 0.0
H272 H 0.72221 0.17315 0.75811 0.0
C273 C 0.75054 0.27789 0.73136 0.0
C274 C 0.71764 0.2582 0.71396 0.0
H275 H 0.79843 0.27596 0.77108 0.0
H276 H 0.75884 0.30717 0.72425 0.0
C277 C 0.70781 0.2203 0.72408 0.0
C278 C 0.75248 0.77571 0.71093 0.0
C279 C 0.76386 0.76978 0.74741 0.0
H280 H 0.71718 0.75514 0.66496 0.0
C281 C 0.7475 0.73772 0.76576 0.0
H282 H 0.76454 0.80017 0.6961 0.0
C283 C 0.72036 0.71208 0.74804 0.0
C284 C 0.70906 0.71787 0.71155 0.0
H285 H 0.75559 0.73236 0.79393 0.0
H286 H 0.7084 0.68762 0.76295 0.0
C287 C 0.72533 0.74994 0.69314 0.0
C288 C 0.1073 0.17395 0.98177 0.0
C289 C 0.14036 0.17426 0.95817 0.0
H290 H 0.08736 0.17368 0.0368 0.0
C291 C 0.17991 0.17718 0.97289 0.0
H292 H 0.07645 0.17211 0.97125 0.0
C293 C 0.18623 0.17796 0.01063 0.0
C294 C 0.1531 0.17601 0.03422 0.0
H295 H 0.206 0.17764 0.95532 0.0
H296 H 0.21703 0.17899 0.02127 0.0
C297 C 0.11358 0.17492 0.01939 0.0
C298 C 0.75822 0.1325 0.97467 0.0
C299 C 0.78295 0.15391 0.95085 0.0
H300 H 0.74374 0.1198 0.03005 0.0
C301 C 0.81024 0.18207 0.96546 0.0
H302 H 0.73677 0.11068 0.96431 0.0
C303 C 0.81407 0.18745 0.00317 0.0
C304 C 0.79088 0.16462 0.02707 0.0
H305 H 0.82955 0.19923 0.94784 0.0
H306 H 0.83632 0.20854 0.01355 0.0
C307 C 0.76224 0.13771 0.01239 0.0
C308 C 0.84953 0.77678 0.96504 0.0
C309 C 0.82636 0.79751 0.94023 0.0
H310 H 0.86282 0.76532 0.02103 0.0
C311 C 0.7958 0.8207 0.95341 0.0
H312 H 0.87323 0.75861 0.95568 0.0
C313 C 0.78958 0.82427 -0.00921 0.0
C314 C 0.81413 0.80507 0.01568 0.0
H315 H 0.77724 0.83679 0.93487 0.0
H316 H 0.76656 0.8432 0.00016 0.0
C317 C 0.84362 0.7807 0.00246 0.0
C318 C 0.21735 0.84932 0.00695 0.0
C319 C 0.19116 0.81932 0.0186 0.0
H320 H 0.2422 0.88004 0.96171 0.0
C321 C 0.17169 0.79529 -0.0077 0.0
H322 H 0.23294 0.86827 0.02652 0.0
C323 C 0.17683 0.80217 0.95517 0.0
C324 C 0.20175 0.83309 0.94351 0.0
H325 H 0.15141 0.77186 0.00033 0.0
H326 H 0.16048 0.78375 0.93562 0.0
C327 C 0.22268 0.85606 0.96978 0.0
C328 C 0.98271 0.19453 0.14451 0.0
C329 C 0.01057 0.17298 0.16416 0.0
H330 H 0.92047 0.20264 0.13074 0.0
C331 C -0.00401 0.14462 0.18809 0.0
H332 H -0.00703 0.21663 0.12589 0.0
C333 C 0.95436 0.13682 0.19109 0.0
C334 C 0.92664 0.15692 0.16987 0.0
H335 H 0.01674 0.12767 0.20373 0.0
H336 H 0.94405 0.114 0.20891 0.0
C337 C 0.94116 0.18641 0.14717 0.0
C338 C 0.78668 0.94647 0.12462 0.0
C339 C 0.81554 0.93728 0.15141 0.0
H340 H 0.75388 -0.00939 0.0986 0.0
C341 C 0.83151 0.96647 0.17462 0.0
H342 H 0.7736 0.9246 0.10641 0.0
C343 C 0.82014 0.00431 0.17016 0.0
C344 C 0.79256 0.01376 0.14239 0.0
H345 H 0.85362 0.96032 0.19565 0.0
H346 H 0.83389 0.02629 0.18787 0.0
C347 C 0.77531 0.98432 0.12016 0.0
C348 C -0.00657 0.78134 0.12301 0.0
C349 C 0.96523 0.8009 0.14383 0.0
H350 H 0.05593 0.77435 0.11087 0.0
C351 C 0.97941 0.82676 0.1711 0.0
H352 H 0.98347 0.76119 0.10182 0.0
C353 C 0.02095 0.83404 0.1765 0.0
C354 C 0.04908 0.81594 0.15443 0.0
H355 H 0.9584 0.8421 0.18773 0.0
H356 H 0.03091 0.85493 0.19705 0.0
C357 C 0.03495 0.78896 0.12812 0.0
C358 C 0.14321 0.00568 0.18265 0.0
C359 C 0.16137 0.03677 0.1642 0.0
H360 H 0.13926 0.94488 0.18923 0.0
C361 C 0.19272 0.02993 0.1397 0.0
H362 H 0.11913 0.00999 0.20183 0.0
C363 C 0.20436 -0.00743 0.13251 0.0
C364 C 0.18478 0.96133 0.1496 0.0
H365 H 0.20753 0.05332 0.12522 0.0
H366 H 0.22772 0.98816 0.11265 0.0
C367 C 0.15475 0.96833 0.17538 0.0
C368 C 0.97865 0.79273 0.83079 0.0
C369 C 0.96453 0.81956 0.80569 0.0
H370 H 0.03005 0.76874 0.85693 0.0
C371 C -0.00723 0.84126 0.78545 0.0
H372 H 0.95765 0.77539 0.84667 0.0
C373 C 0.03429 0.83754 0.79145 0.0
C374 C 0.0484 0.8119 0.81768 0.0
H375 H 0.98287 0.86208 0.76583 0.0
H376 H 0.05529 0.85552 0.77618 0.0
C377 C 0.02017 0.78889 0.83667 0.0
C378 C 0.20606 0.97924 0.82229 0.0
C379 C 0.17016 0.96145 0.83507 0.0
H380 H 0.23802 0.03232 0.81073 0.0
C381 C 0.13807 0.98436 0.84526 0.0
H382 H 0.2313 0.96229 0.81421 0.0
C383 C 0.14173 0.02415 0.84296 0.0
C384 C 0.17774 0.04213 0.83072 0.0
H385 H 0.1099 0.9716 0.85502 0.0
H386 H 0.11635 0.04081 0.85127 0.0
C387 C 0.20989 0.01929 0.8203 0.0
C388 C -0.00316 0.1415 0.79717 0.0
C389 C 0.0253 0.16601 0.81539 0.0
H390 H 0.93439 0.12444 0.78972 0.0
C391 C 0.01134 0.19511 0.83825 0.0
H392 H 0.00656 0.1189 0.77925 0.0
C393 C 0.96991 0.19822 0.84438 0.0
C394 C 0.94161 0.17234 0.82772 0.0
H395 H 0.03246 0.21457 0.85262 0.0
H396 H 0.96024 0.22008 0.86313 0.0
C397 C 0.95543 0.14464 0.80326 0.0
C398 C 0.82948 0.95893 0.79295 0.0
C399 C 0.80342 0.9416 0.81843 0.0
H400 H 0.85303 0.01133 0.77035 0.0
C401 C 0.77868 0.96478 0.83946 0.0
H402 H 0.84875 0.94179 0.77621 0.0
C403 C 0.78139 0.00464 0.83634 0.0
C404 C 0.80857 0.02205 0.81184 0.0
H405 H 0.75824 0.95228 0.85929 0.0
H406 H 0.76283 0.02182 0.85371 0.0
C407 C 0.83187 -0.00123 0.78955 0.0
C408 C 0.60911 0.65428 0.47032 0.0
C409 C 0.64137 0.66019 0.44632 0.0
H410 H 0.5901 0.65188 0.52556 0.0
C411 C 0.6803 0.66949 0.46055 0.0
H412 H 0.57871 0.64736 0.46018 0.0
C413 C 0.68696 0.6719 0.49822 0.0
C414 C 0.65471 0.6654 0.52221 0.0
H415 H 0.70575 0.67424 0.44263 0.0
H416 H 0.71736 0.67846 0.50851 0.0
C417 C 0.61565 0.65703 0.50784 0.0
C418 C 0.2595 0.63597 0.50707 0.0
C419 C 0.28733 0.66415 0.52083 0.0
H420 H 0.23405 0.60725 0.45984 0.0
C421 C 0.30892 0.68745 0.49617 0.0
H422 H 0.24222 0.61767 0.52533 0.0
C423 C 0.30441 0.68133 0.45861 0.0
C424 C 0.278 0.65195 0.44489 0.0
H425 H 0.33049 0.70951 0.50584 0.0
H426 H 0.32254 0.6989 0.44038 0.0
C427 C 0.25479 0.63002 0.4695 0.0
C428 C 0.34537 0.27593 0.47282 0.0
C429 C 0.32354 0.297 0.44729 0.0
H430 H 0.35664 0.26466 0.52918 0.0
C431 C 0.29306 0.32086 0.45949 0.0
H432 H 0.36896 0.25724 0.46421 0.0
C433 C 0.28574 0.32484 0.49667 0.0
C434 C 0.30909 0.30538 0.5223 0.0
H435 H 0.27551 0.33721 0.44038 0.0
H436 H 0.2629 0.34433 0.50531 0.0
C437 C 0.33837 0.28025 0.51002 0.0
C438 C 0.682 0.30099 0.46552 0.0
C439 C 0.70647 0.33282 0.45524 0.0
H440 H 0.65477 0.26963 0.50925 0.0
C441 C 0.72533 0.35593 0.48258 0.0
H442 H 0.66719 0.28247 0.44514 0.0
C443 C 0.71809 0.34863 0.51935 0.0
C444 C 0.69196 0.31797 0.52957 0.0
H445 H 0.74451 0.38056 0.47562 0.0
H446 H 0.73198 0.3678 0.5397 0.0
C447 C 0.67488 0.2936 0.50231 0.0
C448 C 0.48441 0.69303 0.62992 0.0
C449 C 0.51254 0.6734 0.65111 0.0
H450 H 0.422 0.7 0.61609 0.0
C451 C 0.49831 0.64733 0.6774 0.0
H452 H 0.4944 0.71333 0.60948 0.0
C453 C 0.45676 0.63985 0.68133 0.0
C454 C 0.42872 0.65802 0.65881 0.0
H455 H 0.51927 0.63189 0.69426 0.0
H456 H 0.44674 0.61882 0.70111 0.0
C457 C 0.44291 0.68527 0.63361 0.0
C458 C 0.27096 0.48664 0.62134 0.0
C459 C 0.28834 0.51657 0.64289 0.0
H460 H 0.2678 0.42641 0.60991 0.0
C461 C 0.31436 0.50755 0.67201 0.0
H462 H 0.2507 0.49257 0.59877 0.0
C463 C 0.32414 0.46955 0.67846 0.0
C464 C 0.30822 0.43982 0.65584 0.0
H465 H 0.32811 0.52993 0.68927 0.0
H466 H 0.34516 0.46368 0.70047 0.0
C467 C 0.28084 0.44868 0.6277 0.0
C468 C 0.5285 0.28995 0.63642 0.0
C469 C 0.54265 0.31716 0.66251 0.0
H470 H 0.47699 0.26233 0.61 0.0
C471 C 0.51445 0.33597 0.68397 0.0
H472 H 0.5495 0.27482 0.61962 0.0
C473 C 0.47289 0.32907 0.67825 0.0
C474 C 0.45872 0.3029 0.65123 0.0
H475 H 0.5244 0.35705 0.70434 0.0
H476 H 0.45188 0.34489 0.69444 0.0
C477 C 0.48694 0.28273 0.63098 0.0
C478 C 0.63976 0.50855 0.68386 0.0
C479 C 0.66074 0.53789 0.66518 0.0
H480 H 0.63281 0.44836 0.69342 0.0
C481 C 0.69413 0.52865 0.64386 0.0
H482 H 0.61405 0.51474 0.70064 0.0
C483 C 0.70502 0.49058 0.63983 0.0
C484 C 0.68257 0.46103 0.65686 0.0
H485 H 0.71113 0.55068 0.62934 0.0
H486 H 0.73001 0.48424 0.62222 0.0
C487 C 0.6505 0.47048 0.67966 0.0
C488 C 0.49746 0.34429 0.29857 0.0
C489 C 0.46914 0.3233 0.31936 0.0
H490 H 0.55999 0.35907 0.2898 0.0
C491 C 0.48319 0.29869 0.34651 0.0
H492 H 0.48763 0.36343 0.27741 0.0
C493 C 0.52464 0.29614 0.3536 0.0
C494 C 0.55291 0.31823 0.33375 0.0
H495 H 0.46214 0.28197 0.36291 0.0
H496 H 0.53442 0.27755 0.37524 0.0
C497 C 0.53894 0.34182 0.30573 0.0
C498 C 0.71031 0.48284 0.34291 0.0
C499 C 0.6848 0.46452 0.3166 0.0
H500 H 0.73018 0.53587 0.36821 0.0
C501 C 0.66103 0.48697 0.29369 0.0
H502 H 0.72912 0.46634 0.36087 0.0
C503 C 0.66139 0.52677 0.29809 0.0
C504 C 0.6858 0.54497 0.32526 0.0
H505 H 0.64109 0.47376 0.27311 0.0
H506 H 0.64188 0.54318 0.28067 0.0
C507 C 0.71095 0.5227 0.34708 0.0
C508 C 0.50651 0.68859 0.33304 0.0
C509 C 0.52003 0.65977 0.30962 0.0
H510 H 0.45592 0.71347 0.35882 0.0
C511 C 0.49127 0.63516 0.29191 0.0
H512 H 0.52787 0.7081 0.34707 0.0
C513 C 0.44999 0.63825 0.2987 0.0
C514 C 0.43661 0.66597 0.32337 0.0
H515 H 0.50065 0.61274 0.27363 0.0
H516 H 0.42868 0.61816 0.28534 0.0
C517 C 0.46524 0.69163 0.33987 0.0
C518 C 0.27523 0.46174 0.33904 0.0
C519 C 0.30157 0.43838 0.31991 0.0
H520 H 0.25677 0.5188 0.3499 0.0
C521 C 0.32759 0.45513 0.29407 0.0
H522 H 0.25477 0.44966 0.35907 0.0
C523 C 0.32846 0.49468 0.28857 0.0
C524 C 0.30367 0.51829 0.30911 0.0
H525 H 0.34802 0.43781 0.27871 0.0
H526 H 0.34971 0.50685 0.26924 0.0
C527 C 0.27644 0.50135 0.33384 0.0
loop_
_geom_bond_atom_site_label_1
_geom_bond_atom_site_label_2
_geom_bond_distance
_geom_bond_site_symmetry_2
_ccdc_geom_bond_type
C0 O1 1.160 . S
C0 O7 1.185 . S
O1 C0 1.160 . S
O2 Zn3 1.899 . S
O2 C10 1.284 . S
Zn3 O2 1.899 . S
Zn3 O4 2.032 . S
Zn3 O7 2.086 . S
Zn3 O12 1.977 . S
O4 Zn3 2.032 . S
O4 C8 1.278 . S
C5 O6 1.203 . S
C5 O12 1.267 . S
O6 C5 1.203 . S
O7 C0 1.185 . S
O7 Zn3 2.086 . S
C8 O4 1.278 . S
C8 O9 1.211 . S
O9 C8 1.211 . S
C10 O2 1.284 . S
C10 O11 1.273 . S
O11 C10 1.273 . S
O12 Zn3 1.977 . S
O12 C5 1.267 . S
C13 O14 1.160 . S
C13 O20 1.185 . S
O14 C13 1.160 . S
O15 Zn16 1.899 . S
O15 C23 1.284 . S
Zn16 O15 1.899 . S
Zn16 O17 2.032 . S
Zn16 O20 2.086 . S
Zn16 O25 1.977 . S
O17 Zn16 2.032 . S
O17 C21 1.278 . S
C18 O19 1.203 . S
C18 O25 1.267 . S
O19 C18 1.203 . S
O20 C13 1.185 . S
O20 Zn16 2.086 . S
C21 O17 1.278 . S
C21 O22 1.211 . S
O22 C21 1.211 . S
C23 O15 1.284 . S
C23 O24 1.273 . S
O24 C23 1.273 . S
O25 Zn16 1.977 . S
O25 C18 1.267 . S
C26 O27 1.160 . S
C26 O33 1.185 . S
O27 C26 1.160 . S
O28 Zn29 1.899 . S
O28 C36 1.284 . S
Zn29 O28 1.899 . S
Zn29 O30 2.032 . S
Zn29 O33 2.086 . S
Zn29 O38 1.977 . S
O30 Zn29 2.032 . S
O30 C34 1.278 . S
C31 O32 1.203 . S
C31 O38 1.267 . S
O32 C31 1.203 . S
O33 C26 1.185 . S
O33 Zn29 2.086 . S
C34 O30 1.278 . S
C34 O35 1.211 . S
O35 C34 1.211 . S
C36 O28 1.284 . S
C36 O37 1.273 . S
O37 C36 1.273 . S
O38 Zn29 1.977 . S
O38 C31 1.267 . S
C39 O40 1.160 . S
C39 O46 1.185 . S
O40 C39 1.160 . S
O41 Zn42 1.899 . S
O41 C49 1.284 . S
Zn42 O41 1.899 . S
Zn42 O43 2.032 . S
Zn42 O46 2.086 . S
Zn42 O51 1.977 . S
O43 Zn42 2.032 . S
O43 C47 1.278 . S
C44 O45 1.203 . S
C44 O51 1.267 . S
O45 C44 1.203 . S
O46 C39 1.185 . S
O46 Zn42 2.086 . S
C47 O43 1.278 . S
C47 O48 1.211 . S
O48 C47 1.211 . S
C49 O41 1.284 . S
C49 O50 1.273 . S
O50 C49 1.273 . S
O51 Zn42 1.977 . S
O51 C44 1.267 . S
C52 O53 1.160 . S
C52 O59 1.185 . S
O53 C52 1.160 . S
O54 Zn55 1.899 . S
O54 C62 1.284 . S
Zn55 O54 1.899 . S
Zn55 O56 2.032 . S
Zn55 O59 2.086 . S
Zn55 O64 1.977 . S
O56 Zn55 2.032 . S
O56 C60 1.278 . S
C57 O58 1.203 . S
C57 O64 1.267 . S
O58 C57 1.203 . S
O59 C52 1.185 . S
O59 Zn55 2.086 . S
C60 O56 1.278 . S
C60 O61 1.211 . S
O61 C60 1.211 . S
C62 O54 1.284 . S
C62 O63 1.273 . S
O63 C62 1.273 . S
O64 Zn55 1.977 . S
O64 C57 1.267 . S
C65 O66 1.160 . S
C65 O72 1.185 . S
O66 C65 1.160 . S
O67 Zn68 1.899 . S
O67 C75 1.284 . S
Zn68 O67 1.899 . S
Zn68 O69 2.032 . S
Zn68 O72 2.086 . S
Zn68 O77 1.977 . S
O69 Zn68 2.032 . S
O69 C73 1.278 . S
C70 O71 1.203 . S
C70 O77 1.267 . S
O71 C70 1.203 . S
O72 C65 1.185 . S
O72 Zn68 2.086 . S
C73 O69 1.278 . S
C73 O74 1.211 . S
O74 C73 1.211 . S
C75 O67 1.284 . S
C75 O76 1.273 . S
O76 C75 1.273 . S
O77 Zn68 1.977 . S
O77 C70 1.267 . S
C78 O79 1.160 . S
C78 O85 1.185 . S
O79 C78 1.160 . S
O80 Zn81 1.899 . S
O80 C88 1.284 . S
Zn81 O80 1.899 . S
Zn81 O82 2.032 . S
Zn81 O85 2.086 . S
Zn81 O90 1.977 . S
O82 Zn81 2.032 . S
O82 C86 1.278 . S
C83 O84 1.203 . S
C83 O90 1.267 . S
O84 C83 1.203 . S
O85 C78 1.185 . S
O85 Zn81 2.086 . S
C86 O82 1.278 . S
C86 O87 1.211 . S
O87 C86 1.211 . S
C88 O80 1.284 . S
C88 O89 1.273 . S
O89 C88 1.273 . S
O90 Zn81 1.977 . S
O90 C83 1.267 . S
C91 O92 1.160 . S
C91 O98 1.185 . S
O92 C91 1.160 . S
O93 Zn94 1.899 . S
O93 C101 1.284 . S
Zn94 O93 1.899 . S
Zn94 O95 2.032 . S
Zn94 O98 2.086 . S
Zn94 O103 1.977 . S
O95 Zn94 2.032 . S
O95 C99 1.278 . S
C96 O97 1.203 . S
C96 O103 1.267 . S
O97 C96 1.203 . S
O98 C91 1.185 . S
O98 Zn94 2.086 . S
C99 O95 1.278 . S
C99 O100 1.211 . S
O100 C99 1.211 . S
C101 O93 1.284 . S
C101 O102 1.273 . S
O102 C101 1.273 . S
O103 Zn94 1.977 . S
O103 C96 1.267 . S
C104 O105 1.160 . S
C104 O111 1.185 . S
O105 C104 1.160 . S
O106 Zn107 1.899 . S
O106 C114 1.284 . S
Zn107 O106 1.899 . S
Zn107 O108 2.032 . S
Zn107 O111 2.086 . S
Zn107 O116 1.977 . S
O108 Zn107 2.032 . S
O108 C112 1.278 . S
C109 O110 1.203 . S
C109 O116 1.267 . S
O110 C109 1.203 . S
O111 C104 1.185 . S
O111 Zn107 2.086 . S
C112 O108 1.278 . S
C112 O113 1.211 . S
O113 C112 1.211 . S
C114 O106 1.284 . S
C114 O115 1.273 . S
O115 C114 1.273 . S
O116 Zn107 1.977 . S
O116 C109 1.267 . S
C117 O118 1.160 . S
C117 O124 1.185 . S
O118 C117 1.160 . S
O119 Zn120 1.899 . S
O119 C127 1.284 . S
Zn120 O119 1.899 . S
Zn120 O121 2.032 . S
Zn120 O124 2.086 . S
Zn120 O129 1.977 . S
O121 Zn120 2.032 . S
O121 C125 1.278 . S
C122 O123 1.203 . S
C122 O129 1.267 . S
O123 C122 1.203 . S
O124 C117 1.185 . S
O124 Zn120 2.086 . S
C125 O121 1.278 . S
C125 O126 1.211 . S
O126 C125 1.211 . S
C127 O119 1.284 . S
C127 O128 1.273 . S
O128 C127 1.273 . S
O129 Zn120 1.977 . S
O129 C122 1.267 . S
C130 O131 1.160 . S
C130 O137 1.185 . S
O131 C130 1.160 . S
O132 Zn133 1.899 . S
O132 C140 1.284 . S
Zn133 O132 1.899 . S
Zn133 O134 2.032 . S
Zn133 O137 2.086 . S
Zn133 O142 1.977 . S
O134 Zn133 2.032 . S
O134 C138 1.278 . S
C135 O136 1.203 . S
C135 O142 1.267 . S
O136 C135 1.203 . S
O137 C130 1.185 . S
O137 Zn133 2.086 . S
C138 O134 1.278 . S
C138 O139 1.211 . S
O139 C138 1.211 . S
C140 O132 1.284 . S
C140 O141 1.273 . S
O141 C140 1.273 . S
O142 Zn133 1.977 . S
O142 C135 1.267 . S
C143 O144 1.160 . S
C143 O150 1.185 . S
O144 C143 1.160 . S
O145 Zn146 1.899 . S
O145 C153 1.284 . S
Zn146 O145 1.899 . S
Zn146 O147 2.032 . S
Zn146 O150 2.086 . S
Zn146 O155 1.977 . S
O147 Zn146 2.032 . S
O147 C151 1.278 . S
C148 O149 1.203 . S
C148 O155 1.267 . S
O149 C148 1.203 . S
O150 C143 1.185 . S
O150 Zn146 2.086 . S
C151 O147 1.278 . S
C151 O152 1.211 . S
O152 C151 1.211 . S
C153 O145 1.284 . S
C153 O154 1.273 . S
O154 C153 1.273 . S
O155 Zn146 1.977 . S
O155 C148 1.267 . S
C156 O157 1.160 . S
C156 O163 1.185 . S
O157 C156 1.160 . S
O158 Zn159 1.899 . S
O158 C166 1.284 . S
Zn159 O158 1.899 . S
Zn159 O160 2.032 . S
Zn159 O163 2.086 . S
Zn159 O168 1.977 . S
O160 Zn159 2.032 . S
O160 C164 1.278 . S
C161 O162 1.203 . S
C161 O168 1.267 . S
O162 C161 1.203 . S
O163 C156 1.185 . S
O163 Zn159 2.086 . S
C164 O160 1.278 . S
C164 O165 1.211 . S
O165 C164 1.211 . S
C166 O158 1.284 . S
C166 O167 1.273 . S
O167 C166 1.273 . S
O168 Zn159 1.977 . S
O168 C161 1.267 . S
C169 O170 1.160 . S
C169 O176 1.185 . S
O170 C169 1.160 . S
O171 Zn172 1.899 . S
O171 C179 1.284 . S
Zn172 O171 1.899 . S
Zn172 O173 2.032 . S
Zn172 O176 2.086 . S
Zn172 O181 1.977 . S
O173 Zn172 2.032 . S
O173 C177 1.278 . S
C174 O175 1.203 . S
C174 O181 1.267 . S
O175 C174 1.203 . S
O176 C169 1.185 . S
O176 Zn172 2.086 . S
C177 O173 1.278 . S
C177 O178 1.211 . S
O178 C177 1.211 . S
C179 O171 1.284 . S
C179 O180 1.273 . S
O180 C179 1.273 . S
O181 Zn172 1.977 . S
O181 C174 1.267 . S
C182 O183 1.160 . S
C182 O189 1.185 . S
O183 C182 1.160 . S
O184 Zn185 1.899 . S
O184 C192 1.284 . S
Zn185 O184 1.899 . S
Zn185 O186 2.032 . S
Zn185 O189 2.086 . S
Zn185 O194 1.977 . S
O186 Zn185 2.032 . S
O186 C190 1.278 . S
C187 O188 1.203 . S
C187 O194 1.267 . S
O188 C187 1.203 . S
O189 C182 1.185 . S
O189 Zn185 2.086 . S
C190 O186 1.278 . S
C190 O191 1.211 . S
O191 C190 1.211 . S
C192 O184 1.284 . S
C192 O193 1.273 . S
O193 C192 1.273 . S
O194 Zn185 1.977 . S
O194 C187 1.267 . S
C195 O196 1.160 . S
C195 O202 1.185 . S
O196 C195 1.160 . S
O197 Zn198 1.899 . S
O197 C205 1.284 . S
Zn198 O197 1.899 . S
Zn198 O199 2.032 . S
Zn198 O202 2.086 . S
Zn198 O207 1.977 . S
O199 Zn198 2.032 . S
O199 C203 1.278 . S
C200 O201 1.203 . S
C200 O207 1.267 . S
O201 C200 1.203 . S
O202 C195 1.185 . S
O202 Zn198 2.086 . S
C203 O199 1.278 . S
C203 O204 1.211 . S
O204 C203 1.211 . S
C205 O197 1.284 . S
C205 O206 1.273 . S
O206 C205 1.273 . S
O207 Zn198 1.977 . S
O207 C200 1.267 . S
C208 C209 1.387 . S
C208 H212 0.950 . S
C208 C217 1.390 . S
C209 C208 1.387 . S
C209 C211 1.387 . S
H210 C217 0.950 . S
C211 C209 1.387 . S
C211 C213 1.390 . S
C211 H215 0.950 . S
H212 C208 0.950 . S
C213 C211 1.390 . S
C213 C214 1.387 . S
C213 H216 0.950 . S
C214 C213 1.387 . S
C214 C217 1.387 . S
H215 C211 0.950 . S
H216 C213 0.950 . S
C217 C208 1.390 . S
C217 H210 0.950 . S
C217 C214 1.387 . S
C218 C219 1.387 . S
C218 H222 0.950 . S
C218 C227 1.390 . S
C219 C218 1.387 . S
C219 C221 1.387 . S
H220 C227 0.950 . S
C221 C219 1.387 . S
C221 C223 1.390 . S
C221 H225 0.950 . S
H222 C218 0.950 . S
C223 C221 1.390 . S
C223 C224 1.387 . S
C223 H226 0.950 . S
C224 C223 1.387 . S
C224 C227 1.387 . S
H225 C221 0.950 . S
H226 C223 0.950 . S
C227 C218 1.390 . S
C227 H220 0.950 . S
C227 C224 1.387 . S
C228 C229 1.387 . S
C228 H232 0.950 . S
C228 C237 1.390 . S
C229 C228 1.387 . S
C229 C231 1.387 . S
H230 C237 0.950 . S
C231 C229 1.387 . S
C231 C233 1.390 . S
C231 H235 0.950 . S
H232 C228 0.950 . S
C233 C231 1.390 . S
C233 C234 1.387 . S
C233 H236 0.950 . S
C234 C233 1.387 . S
C234 C237 1.387 . S
H235 C231 0.950 . S
H236 C233 0.950 . S
C237 C228 1.390 . S
C237 H230 0.950 . S
C237 C234 1.387 . S
C238 C239 1.387 . S
C238 H242 0.950 . S
C238 C247 1.390 . S
C239 C238 1.387 . S
C239 C241 1.387 . S
H240 C247 0.950 . S
C241 C239 1.387 . S
C241 C243 1.390 . S
C241 H245 0.950 . S
H242 C238 0.950 . S
C243 C241 1.390 . S
C243 C244 1.387 . S
C243 H246 0.950 . S
C244 C243 1.387 . S
C244 C247 1.387 . S
H245 C241 0.950 . S
H246 C243 0.950 . S
C247 C238 1.390 . S
C247 H240 0.950 . S
C247 C244 1.387 . S
C248 C249 1.387 . S
C248 H252 0.950 . S
C248 C257 1.390 . S
C249 C248 1.387 . S
C249 C251 1.387 . S
H250 C257 0.950 . S
C251 C249 1.387 . S
C251 C253 1.390 . S
C251 H255 0.950 . S
H252 C248 0.950 . S
C253 C251 1.390 . S
C253 C254 1.387 . S
C253 H256 0.950 . S
C254 C253 1.387 . S
C254 C257 1.387 . S
H255 C251 0.950 . S
H256 C253 0.950 . S
C257 C248 1.390 . S
C257 H250 0.950 . S
C257 C254 1.387 . S
C258 C259 1.387 . S
C258 H262 0.950 . S
C258 C267 1.390 . S
C259 C258 1.387 . S
C259 C261 1.387 . S
H260 C267 0.950 . S
C261 C259 1.387 . S
C261 C263 1.390 . S
C261 H265 0.950 . S
H262 C258 0.950 . S
C263 C261 1.390 . S
C263 C264 1.387 . S
C263 H266 0.950 . S
C264 C263 1.387 . S
C264 C267 1.387 . S
H265 C261 0.950 . S
H266 C263 0.950 . S
C267 C258 1.390 . S
C267 H260 0.950 . S
C267 C264 1.387 . S
C268 C269 1.387 . S
C268 H272 0.950 . S
C268 C277 1.390 . S
C269 C268 1.387 . S
C269 C271 1.387 . S
H270 C277 0.950 . S
C271 C269 1.387 . S
C271 C273 1.390 . S
C271 H275 0.950 . S
H272 C268 0.950 . S
C273 C271 1.390 . S
C273 C274 1.387 . S
C273 H276 0.950 . S
C274 C273 1.387 . S
C274 C277 1.387 . S
H275 C271 0.950 . S
H276 C273 0.950 . S
C277 C268 1.390 . S
C277 H270 0.950 . S
C277 C274 1.387 . S
C278 C279 1.387 . S
C278 H282 0.950 . S
C278 C287 1.390 . S
C279 C278 1.387 . S
C279 C281 1.387 . S
H280 C287 0.950 . S
C281 C279 1.387 . S
C281 C283 1.390 . S
C281 H285 0.950 . S
H282 C278 0.950 . S
C283 C281 1.390 . S
C283 C284 1.387 . S
C283 H286 0.950 . S
C284 C283 1.387 . S
C284 C287 1.387 . S
H285 C281 0.950 . S
H286 C283 0.950 . S
C287 C278 1.390 . S
C287 H280 0.950 . S
C287 C284 1.387 . S
C288 C289 1.387 . S
C288 H292 0.950 . S
C288 C297 1.390 1_556 S
C289 C288 1.387 . S
C289 C291 1.387 . S
H290 C297 0.950 . S
C291 C289 1.387 . S
C291 C293 1.390 1_556 S
C291 H295 0.950 . S
H292 C288 0.950 . S
C293 C291 1.390 1_554 S
C293 C294 1.387 . S
C293 H296 0.950 . S
C294 C293 1.387 . S
C294 C297 1.387 . S
H295 C291 0.950 . S
H296 C293 0.950 . S
C297 C288 1.390 1_554 S
C297 H290 0.950 . S
C297 C294 1.387 . S
C298 C299 1.387 . S
C298 H302 0.950 . S
C298 C307 1.390 1_556 S
C299 C298 1.387 . S
C299 C301 1.387 . S
H300 C307 0.950 . S
C301 C299 1.387 . S
C301 C303 1.390 1_556 S
C301 H305 0.950 . S
H302 C298 0.950 . S
C303 C301 1.390 1_554 S
C303 C304 1.387 . S
C303 H306 0.950 . S
C304 C303 1.387 . S
C304 C307 1.387 . S
H305 C301 0.950 . S
H306 C303 0.950 . S
C307 C298 1.390 1_554 S
C307 H300 0.950 . S
C307 C304 1.387 . S
C308 C309 1.387 . S
C308 H312 0.950 . S
C308 C317 1.390 1_556 S
C309 C308 1.387 . S
C309 C311 1.387 . S
H310 C317 0.950 . S
C311 C309 1.387 . S
C311 C313 1.390 1_556 S
C311 H315 0.950 . S
H312 C308 0.950 . S
C313 C311 1.390 1_554 S
C313 C314 1.387 . S
C313 H316 0.950 . S
C314 C313 1.387 . S
C314 C317 1.387 . S
H315 C311 0.950 . S
H316 C313 0.950 . S
C317 C308 1.390 1_554 S
C317 H310 0.950 . S
C317 C314 1.387 . S
C318 C319 1.387 . S
C318 H322 0.950 . S
C318 C327 1.390 1_554 S
C319 C318 1.387 . S
C319 C321 1.387 . S
H320 C327 0.950 . S
C321 C319 1.387 . S
C321 C323 1.390 1_554 S
C321 H325 0.950 . S
H322 C318 0.950 . S
C323 C321 1.390 1_556 S
C323 C324 1.387 . S
C323 H326 0.950 . S
C324 C323 1.387 . S
C324 C327 1.387 . S
H325 C321 0.950 . S
H326 C323 0.950 . S
C327 C318 1.390 1_556 S
C327 H320 0.950 . S
C327 C324 1.387 . S
C328 C329 1.387 . S
C328 H332 0.950 . S
C328 C337 1.390 1_455 S
C329 C328 1.387 . S
C329 C331 1.387 . S
H330 C337 0.950 . S
C331 C329 1.387 . S
C331 C333 1.390 1_455 S
C331 H335 0.950 . S
H332 C328 0.950 . S
C333 C331 1.390 1_655 S
C333 C334 1.387 . S
C333 H336 0.950 . S
C334 C333 1.387 . S
C334 C337 1.387 . S
H335 C331 0.950 . S
H336 C333 0.950 . S
C337 C328 1.390 1_655 S
C337 H330 0.950 . S
C337 C334 1.387 . S
C338 C339 1.387 . S
C338 H342 0.950 . S
C338 C347 1.390 1_565 S
C339 C338 1.387 . S
C339 C341 1.387 . S
H340 C347 0.950 . S
C341 C339 1.387 . S
C341 C343 1.390 1_565 S
C341 H345 0.950 . S
H342 C338 0.950 . S
C343 C341 1.390 1_545 S
C343 C344 1.387 . S
C343 H346 0.950 . S
C344 C343 1.387 . S
C344 C347 1.387 . S
H345 C341 0.950 . S
H346 C343 0.950 . S
C347 C338 1.390 1_545 S
C347 H340 0.950 . S
C347 C344 1.387 . S
C348 C349 1.387 . S
C348 H352 0.950 . S
C348 C357 1.390 1_655 S
C349 C348 1.387 . S
C349 C351 1.387 . S
H350 C357 0.950 . S
C351 C349 1.387 . S
C351 C353 1.390 1_655 S
C351 H355 0.950 . S
H352 C348 0.950 . S
C353 C351 1.390 1_455 S
C353 C354 1.387 . S
C353 H356 0.950 . S
C354 C353 1.387 . S
C354 C357 1.387 . S
H355 C351 0.950 . S
H356 C353 0.950 . S
C357 C348 1.390 1_455 S
C357 H350 0.950 . S
C357 C354 1.387 . S
C358 C359 1.387 . S
C358 H362 0.950 . S
C358 C367 1.390 1_545 S
C359 C358 1.387 . S
C359 C361 1.387 . S
H360 C367 0.950 . S
C361 C359 1.387 . S
C361 C363 1.390 1_545 S
C361 H365 0.950 . S
H362 C358 0.950 . S
C363 C361 1.390 1_565 S
C363 C364 1.387 . S
C363 H366 0.950 . S
C364 C363 1.387 . S
C364 C367 1.387 . S
H365 C361 0.950 . S
H366 C363 0.950 . S
C367 C358 1.390 1_565 S
C367 H360 0.950 . S
C367 C364 1.387 . S
C368 C369 1.387 . S
C368 H372 0.950 . S
C368 C377 1.390 1_655 S
C369 C368 1.387 . S
C369 C371 1.387 . S
H370 C377 0.950 . S
C371 C369 1.387 . S
C371 C373 1.390 1_655 S
C371 H375 0.950 . S
H372 C368 0.950 . S
C373 C371 1.390 1_455 S
C373 C374 1.387 . S
C373 H376 0.950 . S
C374 C373 1.387 . S
C374 C377 1.387 . S
H375 C371 0.950 . S
H376 C373 0.950 . S
C377 C368 1.390 1_455 S
C377 H370 0.950 . S
C377 C374 1.387 . S
C378 C379 1.387 . S
C378 H382 0.950 . S
C378 C387 1.390 1_565 S
C379 C378 1.387 . S
C379 C381 1.387 . S
H380 C387 0.950 . S
C381 C379 1.387 . S
C381 C383 1.390 1_565 S
C381 H385 0.950 . S
H382 C378 0.950 . S
C383 C381 1.390 1_545 S
C383 C384 1.387 . S
C383 H386 0.950 . S
C384 C383 1.387 . S
C384 C387 1.387 . S
H385 C381 0.950 . S
H386 C383 0.950 . S
C387 C378 1.390 1_545 S
C387 H380 0.950 . S
C387 C384 1.387 . S
C388 C389 1.387 . S
C388 H392 0.950 . S
C388 C397 1.390 1_455 S
C389 C388 1.387 . S
C389 C391 1.387 . S
H390 C397 0.950 . S
C391 C389 1.387 . S
C391 C393 1.390 1_455 S
C391 H395 0.950 . S
H392 C388 0.950 . S
C393 C391 1.390 1_655 S
C393 C394 1.387 . S
C393 H396 0.950 . S
C394 C393 1.387 . S
C394 C397 1.387 . S
H395 C391 0.950 . S
H396 C393 0.950 . S
C397 C388 1.390 1_655 S
C397 H390 0.950 . S
C397 C394 1.387 . S
C398 C399 1.387 . S
C398 H402 0.950 . S
C398 C407 1.390 1_565 S
C399 C398 1.387 . S
C399 C401 1.387 . S
H400 C407 0.950 . S
C401 C399 1.387 . S
C401 C403 1.390 1_565 S
C401 H405 0.950 . S
H402 C398 0.950 . S
C403 C401 1.390 1_545 S
C403 C404 1.387 . S
C403 H406 0.950 . S
C404 C403 1.387 . S
C404 C407 1.387 . S
H405 C401 0.950 . S
H406 C403 0.950 . S
C407 C398 1.390 1_545 S
C407 H400 0.950 . S
C407 C404 1.387 . S
C408 C409 1.387 . S
C408 H412 0.950 . S
C408 C417 1.390 . S
C409 C408 1.387 . S
C409 C411 1.387 . S
H410 C417 0.950 . S
C411 C409 1.387 . S
C411 C413 1.390 . S
C411 H415 0.950 . S
H412 C408 0.950 . S
C413 C411 1.390 . S
C413 C414 1.387 . S
C413 H416 0.950 . S
C414 C413 1.387 . S
C414 C417 1.387 . S
H415 C411 0.950 . S
H416 C413 0.950 . S
C417 C408 1.390 . S
C417 H410 0.950 . S
C417 C414 1.387 . S
C418 C419 1.387 . S
C418 H422 0.950 . S
C418 C427 1.390 . S
C419 C418 1.387 . S
C419 C421 1.387 . S
H420 C427 0.950 . S
C421 C419 1.387 . S
C421 C423 1.390 . S
C421 H425 0.950 . S
H422 C418 0.950 . S
C423 C421 1.390 . S
C423 C424 1.387 . S
C423 H426 0.950 . S
C424 C423 1.387 . S
C424 C427 1.387 . S
H425 C421 0.950 . S
H426 C423 0.950 . S
C427 C418 1.390 . S
C427 H420 0.950 . S
C427 C424 1.387 . S
C428 C429 1.387 . S
C428 H432 0.950 . S
C428 C437 1.390 . S
C429 C428 1.387 . S
C429 C431 1.387 . S
H430 C437 0.950 . S
C431 C429 1.387 . S
C431 C433 1.390 . S
C431 H435 0.950 . S
H432 C428 0.950 . S
C433 C431 1.390 . S
C433 C434 1.387 . S
C433 H436 0.950 . S
C434 C433 1.387 . S
C434 C437 1.387 . S
H435 C431 0.950 . S
H436 C433 0.950 . S
C437 C428 1.390 . S
C437 H430 0.950 . S
C437 C434 1.387 . S
C438 C439 1.387 . S
C438 H442 0.950 . S
C438 C447 1.390 . S
C439 C438 1.387 . S
C439 C441 1.387 . S
H440 C447 0.950 . S
C441 C439 1.387 . S
C441 C443 1.390 . S
C441 H445 0.950 . S
H442 C438 0.950 . S
C443 C441 1.390 . S
C443 C444 1.387 . S
C443 H446 0.950 . S
C444 C443 1.387 . S
C444 C447 1.387 . S
H445 C441 0.950 . S
H446 C443 0.950 . S
C447 C438 1.390 . S
C447 H440 0.950 . S
C447 C444 1.387 . S
C448 C449 1.387 . S
C448 H452 0.950 . S
C448 C457 1.390 . S
C449 C448 1.387 . S
C449 C451 1.387 . S
H450 C457 0.950 . S
C451 C449 1.387 . S
C451 C453 1.390 . S
C451 H455 0.950 . S
H452 C448 0.950 . S
C453 C451 1.390 . S
C453 C454 1.387 . S
C453 H456 0.950 . S
C454 C453 1.387 . S
C454 C457 1.387 . S
H455 C451 0.950 . S
H456 C453 0.950 . S
C457 C448 1.390 . S
C457 H450 0.950 . S
C457 C454 1.387 . S
C458 C459 1.387 . S
C458 H462 0.950 . S
C458 C467 1.390 . S
C459 C458 1.387 . S
C459 C461 1.387 . S
H460 C467 0.950 . S
C461 C459 1.387 . S
C461 C463 1.390 . S
C461 H465 0.950 . S
H462 C458 0.950 . S
C463 C461 1.390 . S
C463 C464 1.387 . S
C463 H466 0.950 . S
C464 C463 1.387 . S
C464 C467 1.387 . S
H465 C461 0.950 . S
H466 C463 0.950 . S
C467 C458 1.390 . S
C467 H460 0.950 . S
C467 C464 1.387 . S
C468 C469 1.387 . S
C468 H472 0.950 . S
C468 C477 1.390 . S
C469 C468 1.387 . S
C469 C471 1.387 . S
H470 C477 0.950 . S
C471 C469 1.387 . S
C471 C473 1.390 . S
C471 H475 0.950 . S
H472 C468 0.950 . S
C473 C471 1.390 . S
C473 C474 1.387 . S
C473 H476 0.950 . S
C474 C473 1.387 . S
C474 C477 1.387 . S
H475 C471 0.950 . S
H476 C473 0.950 . S
C477 C468 1.390 . S
C477 H470 0.950 . S
C477 C474 1.387 . S
C478 C479 1.387 . S
C478 H482 0.950 . S
C478 C487 1.390 . S
C479 C478 1.387 . S
C479 C481 1.387 . S
H480 C487 0.950 . S
C481 C479 1.387 . S
C481 C483 1.390 . S
C481 H485 0.950 . S
H482 C478 0.950 . S
C483 C481 1.390 . S
C483 C484 1.387 . S
C483 H486 0.950 . S
C484 C483 1.387 . S
C484 C487 1.387 . S
H485 C481 0.950 . S
H486 C483 0.950 . S
C487 C478 1.390 . S
C487 H480 0.950 . S
C487 C484 1.387 . S
C488 C489 1.387 . S
C488 H492 0.950 . S
C488 C497 1.390 . S
C489 C488 1.387 . S
C489 C491 1.387 . S
H490 C497 0.950 . S
C491 C489 1.387 . S
C491 C493 1.390 . S
C491 H495 0.950 . S
H492 C488 0.950 . S
C493 C491 1.390 . S
C493 C494 1.387 . S
C493 H496 0.950 . S
C494 C493 1.387 . S
C494 C497 1.387 . S
H495 C491 0.950 . S
H496 C493 0.950 . S
C497 C488 1.390 . S
C497 H490 0.950 . S
C497 C494 1.387 . S
C498 C499 1.387 . S
C498 H502 0.950 . S
C498 C507 1.390 . S
C499 C498 1.387 . S
C499 C501 1.387 . S
H500 C507 0.950 . S
C501 C499 1.387 . S
C501 C503 1.390 . S
C501 H505 0.950 . S
H502 C498 0.950 . S
C503 C501 1.390 . S
C503 C504 1.387 . S
C503 H506 0.950 . S
C504 C503 1.387 . S
C504 C507 1.387 . S
H505 C501 0.950 . S
H506 C503 0.950 . S
C507 C498 1.390 . S
C507 H500 0.950 . S
C507 C504 1.387 . S
C508 C509 1.387 . S
C508 H512 0.950 . S
C508 C517 1.390 . S
C509 C508 1.387 . S
C509 C511 1.387 . S
H510 C517 0.950 . S
C511 C509 1.387 . S
C511 C513 1.390 . S
C511 H515 0.950 . S
H512 C508 0.950 . S
C513 C511 1.390 . S
C513 C514 1.387 . S
C513 H516 0.950 . S
C514 C513 1.387 . S
C514 C517 1.387 . S
H515 C511 0.950 . S
H516 C513 0.950 . S
C517 C508 1.390 . S
C517 H510 0.950 . S
C517 C514 1.387 . S
C518 C519 1.387 . S
C518 H522 0.950 . S
C518 C527 1.390 . S
C519 C518 1.387 . S
C519 C521 1.387 . S
H520 C527 0.950 . S
C521 C519 1.387 . S
C521 C523 1.390 . S
C521 H525 0.950 . S
H522 C518 0.950 . S
C523 C521 1.390 . S
C523 C524 1.387 . S
C523 H526 0.950 . S
C524 C523 1.387 . S
C524 C527 1.387 . S
H525 C521 0.950 . S
H526 C523 0.950 . S
C527 C518 1.390 . S
C527 H520 0.950 . S
C527 C524 1.387 . S
C209 C195 1.055 . S
C214 C0 1.042 . S
C219 C156 1.174 . S
C224 C13 1.181 . S
C229 C26 1.094 . S
C234 C169 1.084 . S
C239 C182 1.137 . S
C244 C39 1.177 . S
C249 C117 1.179 . S
C254 C52 1.173 . S
C259 C65 1.087 . S
C264 C130 1.092 . S
C269 C78 1.137 . S
C274 C143 1.176 . S
C279 C91 1.055 . S
C284 C104 1.043 . S
C289 C70 1.235 . S
C294 C5 1.226 . S
C299 C86 1.459 . S
C304 C18 1.478 . S
C309 C96 1.333 . S
C314 C31 1.333 . S
C319 C49 1.533 . S
C324 C60 1.474 . S
C329 C8 1.400 . S
C334 C23 1.429 . S
C339 C36 1.546 . S
C344 C21 1.494 . S
C349 C34 1.446 . S
C354 C47 1.452 . S
C359 C10 1.461 . S
C364 C44 1.416 . S
C369 C101 1.440 . S
C374 C62 1.441 . S
C379 C57 1.387 . S
C384 C73 1.360 . S
C389 C75 1.414 . S
C394 C88 1.415 . S
C399 C99 1.312 . S
C404 C83 1.307 . S
C409 C174 1.234 . S
C414 C109 1.226 . S
C419 C122 1.478 . S
C424 C190 1.459 . S
C429 C200 1.331 . S
C434 C135 1.334 . S
C439 C164 1.473 . S
C444 C153 1.536 . S
C449 C112 1.400 . S
C454 C127 1.429 . S
C459 C125 1.494 . S
C464 C140 1.546 . S
C469 C151 1.453 . S
C474 C138 1.446 . S
C479 C114 1.460 . S
C484 C148 1.415 . S
C489 C205 1.441 . S
C494 C166 1.439 . S
C499 C161 1.385 . S
C504 C177 1.360 . S
C509 C179 1.412 . S
C514 C192 1.415 . S
C519 C203 1.312 . S
C524 C187 1.304 . S
