# Generated by pormake.
# Topology srs-f, (5)-cn, num edge types: 1
# Building blocks:
#     Node 0, Type 0, BuildingBlock: XOMCOT_clean_sbu_0, # of connection points: 5
#     Node 1, Type 0, BuildingBlock: XOMCOT_clean_sbu_0, # of connection points: 5
#     Node 2, Type 0, BuildingBlock: XOMCOT_clean_sbu_0, # of connection points: 5
#     Node 3, Type 0, BuildingBlock: XOMCOT_clean_sbu_0, # of connection points: 5
#     Node 4, Type 0, BuildingBlock: XOMCOT_clean_sbu_0, # of connection points: 5
#     Node 5, Type 0, BuildingBlock: XOMCOT_clean_sbu_0, # of connection points: 5
#     Node 6, Type 0, BuildingBlock: XOMCOT_clean_sbu_0, # of connection points: 5
#     Node 7, Type 0, BuildingBlock: XOMCOT_clean_sbu_0, # of connection points: 5
#     Node 8, Type 0, BuildingBlock: XOMCOT_clean_sbu_0, # of connection points: 5
#     Node 9, Type 0, BuildingBlock: XOMCOT_clean_sbu_0, # of connection points: 5
#     Node 10, Type 0, BuildingBlock: XOMCOT_clean_sbu_0, # of connection points: 5
#     Node 11, Type 0, BuildingBlock: XOMCOT_clean_sbu_0, # of connection points: 5
#     Node 12, Type 0, BuildingBlock: XOMCOT_clean_sbu_0, # of connection points: 5
#     Node 13, Type 0, BuildingBlock: XOMCOT_clean_sbu_0, # of connection points: 5
#     Node 14, Type 0, BuildingBlock: XOMCOT_clean_sbu_0, # of connection points: 5
#     Node 15, Type 0, BuildingBlock: XOMCOT_clean_sbu_0, # of connection points: 5
#     Node 16, Type 0, BuildingBlock: XOMCOT_clean_sbu_0, # of connection points: 5
#     Node 17, Type 0, BuildingBlock: XOMCOT_clean_sbu_0, # of connection points: 5
#     Node 18, Type 0, BuildingBlock: XOMCOT_clean_sbu_0, # of connection points: 5
#     Node 19, Type 0, BuildingBlock: XOMCOT_clean_sbu_0, # of connection points: 5
#     Node 20, Type 0, BuildingBlock: XOMCOT_clean_sbu_0, # of connection points: 5
#     Node 21, Type 0, BuildingBlock: XOMCOT_clean_sbu_0, # of connection points: 5
#     Node 22, Type 0, BuildingBlock: XOMCOT_clean_sbu_0, # of connection points: 5
#     Node 23, Type 0, BuildingBlock: XOMCOT_clean_sbu_0, # of connection points: 5
#     Node 24, Type 0, BuildingBlock: XOMCOT_clean_sbu_0, # of connection points: 5
#     Node 25, Type 0, BuildingBlock: XOMCOT_clean_sbu_0, # of connection points: 5
#     Node 26, Type 0, BuildingBlock: XOMCOT_clean_sbu_0, # of connection points: 5
#     Node 27, Type 0, BuildingBlock: XOMCOT_clean_sbu_0, # of connection points: 5
#     Node 28, Type 0, BuildingBlock: XOMCOT_clean_sbu_0, # of connection points: 5
#     Node 29, Type 0, BuildingBlock: XOMCOT_clean_sbu_0, # of connection points: 5
#     Node 30, Type 0, BuildingBlock: XOMCOT_clean_sbu_0, # of connection points: 5
#     Node 31, Type 0, BuildingBlock: XOMCOT_clean_sbu_0, # of connection points: 5
#     Node 32, Type 0, BuildingBlock: XOMCOT_clean_sbu_0, # of connection points: 5
#     Node 33, Type 0, BuildingBlock: XOMCOT_clean_sbu_0, # of connection points: 5
#     Node 34, Type 0, BuildingBlock: XOMCOT_clean_sbu_0, # of connection points: 5
#     Node 35, Type 0, BuildingBlock: XOMCOT_clean_sbu_0, # of connection points: 5
#     Node 36, Type 0, BuildingBlock: XOMCOT_clean_sbu_0, # of connection points: 5
#     Node 37, Type 0, BuildingBlock: XOMCOT_clean_sbu_0, # of connection points: 5
#     Node 38, Type 0, BuildingBlock: XOMCOT_clean_sbu_0, # of connection points: 5
#     Node 39, Type 0, BuildingBlock: XOMCOT_clean_sbu_0, # of connection points: 5
#     Node 40, Type 0, BuildingBlock: XOMCOT_clean_sbu_0, # of connection points: 5
#     Node 41, Type 0, BuildingBlock: XOMCOT_clean_sbu_0, # of connection points: 5
#     Node 42, Type 0, BuildingBlock: XOMCOT_clean_sbu_0, # of connection points: 5
#     Node 43, Type 0, BuildingBlock: XOMCOT_clean_sbu_0, # of connection points: 5
#     Node 44, Type 0, BuildingBlock: XOMCOT_clean_sbu_0, # of connection points: 5
#     Node 45, Type 0, BuildingBlock: XOMCOT_clean_sbu_0, # of connection points: 5
#     Node 46, Type 0, BuildingBlock: XOMCOT_clean_sbu_0, # of connection points: 5
#     Node 47, Type 0, BuildingBlock: XOMCOT_clean_sbu_0, # of connection points: 5
#     Edge 48, Type (0, 0), BuildingBlock: CIFDUS_clean_linker_0, # of connection points: 2
#     Edge 49, Type (0, 0), BuildingBlock: CIFDUS_clean_linker_0, # of connection points: 2
#     Edge 50, Type (0, 0), BuildingBlock: CIFDUS_clean_linker_0, # of connection points: 2
#     Edge 51, Type (0, 0), BuildingBlock: CIFDUS_clean_linker_0, # of connection points: 2
#     Edge 52, Type (0, 0), BuildingBlock: CIFDUS_clean_linker_0, # of connection points: 2
#     Edge 53, Type (0, 0), BuildingBlock: CIFDUS_clean_linker_0, # of connection points: 2
#     Edge 54, Type (0, 0), BuildingBlock: CIFDUS_clean_linker_0, # of connection points: 2
#     Edge 55, Type (0, 0), BuildingBlock: CIFDUS_clean_linker_0, # of connection points: 2
#     Edge 56, Type (0, 0), BuildingBlock: CIFDUS_clean_linker_0, # of connection points: 2
#     Edge 57, Type (0, 0), BuildingBlock: CIFDUS_clean_linker_0, # of connection points: 2
#     Edge 58, Type (0, 0), BuildingBlock: CIFDUS_clean_linker_0, # of connection points: 2
#     Edge 59, Type (0, 0), BuildingBlock: CIFDUS_clean_linker_0, # of connection points: 2
#     Edge 60, Type (0, 0), BuildingBlock: CIFDUS_clean_linker_0, # of connection points: 2
#     Edge 61, Type (0, 0), BuildingBlock: CIFDUS_clean_linker_0, # of connection points: 2
#     Edge 62, Type (0, 0), BuildingBlock: CIFDUS_clean_linker_0, # of connection points: 2
#     Edge 63, Type (0, 0), BuildingBlock: CIFDUS_clean_linker_0, # of connection points: 2
#     Edge 64, Type (0, 0), BuildingBlock: CIFDUS_clean_linker_0, # of connection points: 2
#     Edge 65, Type (0, 0), BuildingBlock: CIFDUS_clean_linker_0, # of connection points: 2
#     Edge 66, Type (0, 0), BuildingBlock: CIFDUS_clean_linker_0, # of connection points: 2
#     Edge 67, Type (0, 0), BuildingBlock: CIFDUS_clean_linker_0, # of connection points: 2
#     Edge 68, Type (0, 0), BuildingBlock: CIFDUS_clean_linker_0, # of connection points: 2
#     Edge 69, Type (0, 0), BuildingBlock: CIFDUS_clean_linker_0, # of connection points: 2
#     Edge 70, Type (0, 0), BuildingBlock: CIFDUS_clean_linker_0, # of connection points: 2
#     Edge 71, Type (0, 0), BuildingBlock: CIFDUS_clean_linker_0, # of connection points: 2
#     Edge 72, Type (0, 0), BuildingBlock: CIFDUS_clean_linker_0, # of connection points: 2
#     Edge 73, Type (0, 0), BuildingBlock: CIFDUS_clean_linker_0, # of connection points: 2
#     Edge 74, Type (0, 0), BuildingBlock: CIFDUS_clean_linker_0, # of connection points: 2
#     Edge 75, Type (0, 0), BuildingBlock: CIFDUS_clean_linker_0, # of connection points: 2
#     Edge 76, Type (0, 0), BuildingBlock: CIFDUS_clean_linker_0, # of connection points: 2
#     Edge 77, Type (0, 0), BuildingBlock: CIFDUS_clean_linker_0, # of connection points: 2
#     Edge 78, Type (0, 0), BuildingBlock: CIFDUS_clean_linker_0, # of connection points: 2
#     Edge 79, Type (0, 0), BuildingBlock: CIFDUS_clean_linker_0, # of connection points: 2
#     Edge 80, Type (0, 0), BuildingBlock: CIFDUS_clean_linker_0, # of connection points: 2
#     Edge 81, Type (0, 0), BuildingBlock: CIFDUS_clean_linker_0, # of connection points: 2
#     Edge 82, Type (0, 0), BuildingBlock: CIFDUS_clean_linker_0, # of connection points: 2
#     Edge 83, Type (0, 0), BuildingBlock: CIFDUS_clean_linker_0, # of connection points: 2
#     Edge 84, Type (0, 0), BuildingBlock: CIFDUS_clean_linker_0, # of connection points: 2
#     Edge 85, Type (0, 0), BuildingBlock: CIFDUS_clean_linker_0, # of connection points: 2
#     Edge 86, Type (0, 0), BuildingBlock: CIFDUS_clean_linker_0, # of connection points: 2
#     Edge 87, Type (0, 0), BuildingBlock: CIFDUS_clean_linker_0, # of connection points: 2
#     Edge 88, Type (0, 0), BuildingBlock: CIFDUS_clean_linker_0, # of connection points: 2
#     Edge 89, Type (0, 0), BuildingBlock: CIFDUS_clean_linker_0, # of connection points: 2
#     Edge 90, Type (0, 0), BuildingBlock: CIFDUS_clean_linker_0, # of connection points: 2
#     Edge 91, Type (0, 0), BuildingBlock: CIFDUS_clean_linker_0, # of connection points: 2
#     Edge 92, Type (0, 0), BuildingBlock: CIFDUS_clean_linker_0, # of connection points: 2
#     Edge 93, Type (0, 0), BuildingBlock: CIFDUS_clean_linker_0, # of connection points: 2
#     Edge 94, Type (0, 0), BuildingBlock: CIFDUS_clean_linker_0, # of connection points: 2
#     Edge 95, Type (0, 0), BuildingBlock: CIFDUS_clean_linker_0, # of connection points: 2
#     Edge 96, Type (0, 0), BuildingBlock: CIFDUS_clean_linker_0, # of connection points: 2
#     Edge 97, Type (0, 0), BuildingBlock: CIFDUS_clean_linker_0, # of connection points: 2
#     Edge 98, Type (0, 0), BuildingBlock: CIFDUS_clean_linker_0, # of connection points: 2
#     Edge 99, Type (0, 0), BuildingBlock: CIFDUS_clean_linker_0, # of connection points: 2
#     Edge 100, Type (0, 0), BuildingBlock: CIFDUS_clean_linker_0, # of connection points: 2
#     Edge 101, Type (0, 0), BuildingBlock: CIFDUS_clean_linker_0, # of connection points: 2
#     Edge 102, Type (0, 0), BuildingBlock: CIFDUS_clean_linker_0, # of connection points: 2
#     Edge 103, Type (0, 0), BuildingBlock: CIFDUS_clean_linker_0, # of connection points: 2
#     Edge 104, Type (0, 0), BuildingBlock: CIFDUS_clean_linker_0, # of connection points: 2
#     Edge 105, Type (0, 0), BuildingBlock: CIFDUS_clean_linker_0, # of connection points: 2
#     Edge 106, Type (0, 0), BuildingBlock: CIFDUS_clean_linker_0, # of connection points: 2
#     Edge 107, Type (0, 0), BuildingBlock: CIFDUS_clean_linker_0, # of connection points: 2
#     Edge 108, Type (0, 0), BuildingBlock: CIFDUS_clean_linker_0, # of connection points: 2
#     Edge 109, Type (0, 0), BuildingBlock: CIFDUS_clean_linker_0, # of connection points: 2
#     Edge 110, Type (0, 0), BuildingBlock: CIFDUS_clean_linker_0, # of connection points: 2
#     Edge 111, Type (0, 0), BuildingBlock: CIFDUS_clean_linker_0, # of connection points: 2
#     Edge 112, Type (0, 0), BuildingBlock: CIFDUS_clean_linker_0, # of connection points: 2
#     Edge 113, Type (0, 0), BuildingBlock: CIFDUS_clean_linker_0, # of connection points: 2
#     Edge 114, Type (0, 0), BuildingBlock: CIFDUS_clean_linker_0, # of connection points: 2
#     Edge 115, Type (0, 0), BuildingBlock: CIFDUS_clean_linker_0, # of connection points: 2
#     Edge 116, Type (0, 0), BuildingBlock: CIFDUS_clean_linker_0, # of connection points: 2
#     Edge 117, Type (0, 0), BuildingBlock: CIFDUS_clean_linker_0, # of connection points: 2
#     Edge 118, Type (0, 0), BuildingBlock: CIFDUS_clean_linker_0, # of connection points: 2
#     Edge 119, Type (0, 0), BuildingBlock: CIFDUS_clean_linker_0, # of connection points: 2
#     Edge 120, Type (0, 0), BuildingBlock: CIFDUS_clean_linker_0, # of connection points: 2
#     Edge 121, Type (0, 0), BuildingBlock: CIFDUS_clean_linker_0, # of connection points: 2
#     Edge 122, Type (0, 0), BuildingBlock: CIFDUS_clean_linker_0, # of connection points: 2
#     Edge 123, Type (0, 0), BuildingBlock: CIFDUS_clean_linker_0, # of connection points: 2
#     Edge 124, Type (0, 0), BuildingBlock: CIFDUS_clean_linker_0, # of connection points: 2
#     Edge 125, Type (0, 0), BuildingBlock: CIFDUS_clean_linker_0, # of connection points: 2
#     Edge 126, Type (0, 0), BuildingBlock: CIFDUS_clean_linker_0, # of connection points: 2
#     Edge 127, Type (0, 0), BuildingBlock: CIFDUS_clean_linker_0, # of connection points: 2
#     Edge 128, Type (0, 0), BuildingBlock: CIFDUS_clean_linker_0, # of connection points: 2
#     Edge 129, Type (0, 0), BuildingBlock: CIFDUS_clean_linker_0, # of connection points: 2
#     Edge 130, Type (0, 0), BuildingBlock: CIFDUS_clean_linker_0, # of connection points: 2
#     Edge 131, Type (0, 0), BuildingBlock: CIFDUS_clean_linker_0, # of connection points: 2
#     Edge 132, Type (0, 0), BuildingBlock: CIFDUS_clean_linker_0, # of connection points: 2
#     Edge 133, Type (0, 0), BuildingBlock: CIFDUS_clean_linker_0, # of connection points: 2
#     Edge 134, Type (0, 0), BuildingBlock: CIFDUS_clean_linker_0, # of connection points: 2
#     Edge 135, Type (0, 0), BuildingBlock: CIFDUS_clean_linker_0, # of connection points: 2
#     Edge 136, Type (0, 0), BuildingBlock: CIFDUS_clean_linker_0, # of connection points: 2
#     Edge 137, Type (0, 0), BuildingBlock: CIFDUS_clean_linker_0, # of connection points: 2
#     Edge 138, Type (0, 0), BuildingBlock: CIFDUS_clean_linker_0, # of connection points: 2
#     Edge 139, Type (0, 0), BuildingBlock: CIFDUS_clean_linker_0, # of connection points: 2
#     Edge 140, Type (0, 0), BuildingBlock: CIFDUS_clean_linker_0, # of connection points: 2
#     Edge 141, Type (0, 0), BuildingBlock: CIFDUS_clean_linker_0, # of connection points: 2
#     Edge 142, Type (0, 0), BuildingBlock: CIFDUS_clean_linker_0, # of connection points: 2
#     Edge 143, Type (0, 0), BuildingBlock: CIFDUS_clean_linker_0, # of connection points: 2
#     Edge 144, Type (0, 0), BuildingBlock: CIFDUS_clean_linker_0, # of connection points: 2
#     Edge 145, Type (0, 0), BuildingBlock: CIFDUS_clean_linker_0, # of connection points: 2
#     Edge 146, Type (0, 0), BuildingBlock: CIFDUS_clean_linker_0, # of connection points: 2
#     Edge 147, Type (0, 0), BuildingBlock: CIFDUS_clean_linker_0, # of connection points: 2
#     Edge 148, Type (0, 0), BuildingBlock: CIFDUS_clean_linker_0, # of connection points: 2
#     Edge 149, Type (0, 0), BuildingBlock: CIFDUS_clean_linker_0, # of connection points: 2
#     Edge 150, Type (0, 0), BuildingBlock: CIFDUS_clean_linker_0, # of connection points: 2
#     Edge 151, Type (0, 0), BuildingBlock: CIFDUS_clean_linker_0, # of connection points: 2
#     Edge 152, Type (0, 0), BuildingBlock: CIFDUS_clean_linker_0, # of connection points: 2
#     Edge 153, Type (0, 0), BuildingBlock: CIFDUS_clean_linker_0, # of connection points: 2
#     Edge 154, Type (0, 0), BuildingBlock: CIFDUS_clean_linker_0, # of connection points: 2
#     Edge 155, Type (0, 0), BuildingBlock: CIFDUS_clean_linker_0, # of connection points: 2
#     Edge 156, Type (0, 0), BuildingBlock: CIFDUS_clean_linker_0, # of connection points: 2
#     Edge 157, Type (0, 0), BuildingBlock: CIFDUS_clean_linker_0, # of connection points: 2
#     Edge 158, Type (0, 0), BuildingBlock: CIFDUS_clean_linker_0, # of connection points: 2
#     Edge 159, Type (0, 0), BuildingBlock: CIFDUS_clean_linker_0, # of connection points: 2
#     Edge 160, Type (0, 0), BuildingBlock: CIFDUS_clean_linker_0, # of connection points: 2
#     Edge 161, Type (0, 0), BuildingBlock: CIFDUS_clean_linker_0, # of connection points: 2
#     Edge 162, Type (0, 0), BuildingBlock: CIFDUS_clean_linker_0, # of connection points: 2
#     Edge 163, Type (0, 0), BuildingBlock: CIFDUS_clean_linker_0, # of connection points: 2
#     Edge 164, Type (0, 0), BuildingBlock: CIFDUS_clean_linker_0, # of connection points: 2
#     Edge 165, Type (0, 0), BuildingBlock: CIFDUS_clean_linker_0, # of connection points: 2
#     Edge 166, Type (0, 0), BuildingBlock: CIFDUS_clean_linker_0, # of connection points: 2
#     Edge 167, Type (0, 0), BuildingBlock: CIFDUS_clean_linker_0, # of connection points: 2
# Relax obj value: 0.893
# Max RMSD: 0.260
# Mean RMSD: 0.260
data_MOF--net-srs-f--node1-XOMCOT_clean_sbu_0--edge1-CIFDUS_clean_linker_0
_symmetry_space_group_name_H-M    P1
_symmetry_Int_Tables_number       1
_symmetry_cell_setting            triclinic
loop_
_symmetry_equiv_pos_as_xyz
'x, y, z'
_cell_length_a     79.845106
_cell_length_b     79.845729
_cell_length_c     79.837008
_cell_angle_alpha  89.976808
_cell_angle_beta   89.951449
_cell_angle_gamma 89.969402
loop_
_atom_site_label
_atom_site_type_symbol
_atom_site_fract_x
_atom_site_fract_y
_atom_site_fract_z
_atom_type_partial_charge
Co0 Co 0.0928 0.47608 0.22735 0.0
C1 C 0.09033 0.43894 0.22292 0.0
C2 C 0.10159 0.4457 0.24628 0.0
C3 C 0.10007 0.42861 0.24579 0.0
N4 N 0.09544 0.45229 0.23196 0.0
N5 N 0.09287 0.42438 0.23117 0.0
H6 H 0.08386 0.43975 0.21108 0.0
H7 H 0.10609 0.45272 0.25689 0.0
C8 C 0.07704 0.48714 0.25821 0.0
O9 O 0.06666 0.49476 0.248 0.0
N10 N 0.09057 0.50003 0.22322 0.0
C11 C 0.09977 0.51222 0.23044 0.0
C12 C 0.09206 0.52745 0.22775 0.0
C13 C 0.07756 0.50812 0.21603 0.0
N14 N 0.07794 0.52477 0.2189 0.0
C15 C 0.12486 0.47887 0.21242 0.0
C16 C 0.14338 0.47175 0.2407 0.0
C17 C 0.15086 0.46955 0.22487 0.0
C18 C 0.14163 0.47432 0.21072 0.0
C19 C 0.12644 0.47631 0.24182 0.0
N20 N 0.11711 0.47835 0.22765 0.0
H21 H 0.11782 0.48149 0.20121 0.0
H22 H 0.12069 0.47697 0.25403 0.0
H23 H 0.11057 0.51009 0.23833 0.0
H24 H 0.06724 0.50194 0.20992 0.0
O25 O 0.08989 0.47169 0.20362 0.0
O26 O 0.06927 0.47245 0.22205 0.0
O27 O 0.09001 0.47986 0.25222 0.0
C28 C 0.07394 0.4705 0.20655 0.0
H29 H 0.10318 0.42004 0.25583 0.0
H30 H 0.09574 0.5393 0.23318 0.0
H31 H 0.1502 0.469 0.25208 0.0
H32 H 0.14673 0.47316 0.19821 0.0
Co33 Co 0.98245 0.84599 0.47667 0.0
C34 C 0.01887 0.84288 0.46889 0.0
C35 C 0.01371 0.8637 0.48494 0.0
C36 C 0.03074 0.86256 0.48288 0.0
N37 N 0.00618 0.85142 0.47609 0.0
N38 N 0.03396 0.84941 0.47283 0.0
H39 H 0.01731 0.83138 0.46193 0.0
H40 H 0.00746 0.87243 0.49315 0.0
C41 C 0.97429 0.8399 0.51337 0.0
O42 O 0.95826 0.84247 0.51081 0.0
N43 N 0.95881 0.84062 0.47721 0.0
C44 C 0.94582 0.85053 0.47297 0.0
C45 C 0.93136 0.84113 0.47332 0.0
C46 C 0.95212 0.82529 0.47976 0.0
N47 N 0.93538 0.82525 0.47753 0.0
C48 C 0.98108 0.87891 0.46383 0.0
C49 C 0.97705 0.8956 0.49378 0.0
C50 C 0.98292 0.90455 0.47975 0.0
C51 C 0.98376 0.89608 0.46441 0.0
C52 C 0.97449 0.87824 0.49266 0.0
N53 N 0.97776 0.86997 0.47803 0.0
H54 H 0.98353 0.87267 0.45213 0.0
H55 H 0.97136 0.8715 0.50388 0.0
H56 H 0.94676 0.86354 0.46934 0.0
H57 H 0.95938 0.81439 0.48324 0.0
O58 O 0.98173 0.84347 0.45255 0.0
O59 O 0.98726 0.82301 0.47037 0.0
O60 O 0.98496 0.84276 0.50174 0.0
C61 C 0.98509 0.82774 0.45492 0.0
H62 H 0.04005 0.87027 0.489 0.0
H63 H 0.91894 0.84551 0.47012 0.0
H64 H 0.97566 0.90167 0.50583 0.0
H65 H 0.98823 0.90217 0.45315 0.0
Co66 Co 0.60589 0.72541 0.73367 0.0
C67 C 0.60848 0.76259 0.73113 0.0
C68 C 0.59808 0.75482 0.75459 0.0
C69 C 0.60027 0.77189 0.75503 0.0
N70 N 0.60345 0.74889 0.73968 0.0
N71 N 0.60682 0.7767 0.74027 0.0
H72 H 0.61432 0.76232 0.71892 0.0
H73 H 0.5936 0.74727 0.76487 0.0
C74 C 0.62198 0.71248 0.76372 0.0
O75 O 0.63244 0.7055 0.75313 0.0
N76 N 0.60818 0.70172 0.72802 0.0
C77 C 0.59878 0.68886 0.73366 0.0
C78 C 0.60665 0.67396 0.72963 0.0
C79 C 0.62147 0.69436 0.72052 0.0
N80 N 0.62101 0.67751 0.72143 0.0
C81 C 0.57314 0.72534 0.71989 0.0
C82 C 0.55618 0.72857 0.74982 0.0
C83 C 0.54813 0.73356 0.73495 0.0
C84 C 0.55651 0.73071 0.71977 0.0
C85 C 0.57297 0.72349 0.74938 0.0
N86 N 0.58159 0.72328 0.7346 0.0
H87 H 0.57957 0.72436 0.70806 0.0
H88 H 0.57924 0.72111 0.7611 0.0
H89 H 0.58759 0.69017 0.74118 0.0
H90 H 0.63226 0.70109 0.71603 0.0
O91 O 0.6083 0.73117 0.71018 0.0
O92 O 0.62925 0.72928 0.72814 0.0
O93 O 0.6091 0.72015 0.75816 0.0
C94 C 0.62432 0.73204 0.71285 0.0
H95 H 0.598 0.78001 0.76564 0.0
H96 H 0.60254 0.66158 0.73327 0.0
H97 H 0.55001 0.72974 0.76184 0.0
H98 H 0.55097 0.73406 0.70787 0.0
Co99 Co 0.72515 0.3535 0.98522 0.0
C100 C 0.68823 0.35429 0.97918 0.0
C101 C 0.69402 0.34677 0.00422 0.0
C102 C 0.67695 0.34803 0.00277 0.0
N103 N 0.70123 0.35075 0.98943 0.0
N104 N 0.67331 0.35297 0.98707 0.0
H105 H 0.68956 0.35895 0.96655 0.0
H106 H 0.70056 0.34399 0.01568 0.0
C107 C 0.7359 0.3696 0.01587 0.0
O108 O 0.74316 0.38005 0.00547 0.0
N109 N 0.74914 0.35605 0.98141 0.0
C110 C 0.76135 0.34727 0.9891 0.0
C111 C 0.77648 0.35517 0.98642 0.0
C112 C 0.7571 0.36901 0.97397 0.0
N113 N 0.7737 0.36899 0.97712 0.0
C114 C 0.73204 0.3219 0.97106 0.0
C115 C 0.71865 0.30284 0.99666 0.0
C116 C 0.72031 0.29573 0.98065 0.0
C117 C 0.72837 0.3051 0.96818 0.0
C118 C 0.72281 0.31973 0.99909 0.0
N119 N 0.72791 0.32932 0.98588 0.0
H120 H 0.7369 0.32933 0.96084 0.0
H121 H 0.72067 0.32529 0.01119 0.0
H122 H 0.75927 0.33666 0.99726 0.0
H123 H 0.75085 0.37905 0.96745 0.0
O124 O 0.72105 0.35584 0.96141 0.0
O125 O 0.72131 0.37684 0.97946 0.0
O126 O 0.7287 0.35652 0.01009 0.0
C127 C 0.71955 0.37183 0.96405 0.0
H128 H 0.66801 0.34638 0.01283 0.0
H129 H 0.78832 0.35182 0.99212 0.0
H130 H 0.71283 0.29594 0.00679 0.0
H131 H 0.73049 0.29992 0.95582 0.0
Co132 Co 0.09354 0.72847 0.46613 0.0
C133 C 0.0919 0.76369 0.45717 0.0
C134 C 0.11259 0.75939 0.47374 0.0
C135 C 0.11142 0.77633 0.47064 0.0
N136 N 0.10031 0.75156 0.46523 0.0
N137 N 0.09835 0.77898 0.46025 0.0
H138 H 0.08039 0.76146 0.45037 0.0
H139 H 0.12112 0.75347 0.48239 0.0
C140 C 0.08566 0.71889 0.4303 0.0
O141 O 0.08967 0.70318 0.43309 0.0
N142 N 0.08619 0.70541 0.46708 0.0
C143 C 0.09424 0.69181 0.47301 0.0
C144 C 0.08292 0.67879 0.47417 0.0
C145 C 0.07019 0.7005 0.4648 0.0
N146 N 0.06776 0.68435 0.46913 0.0
C147 C 0.12666 0.72032 0.4761 0.0
C148 C 0.14124 0.72957 0.44626 0.0
C149 C 0.15048 0.73176 0.4611 0.0
C150 C 0.1434 0.72547 0.47596 0.0
C151 C 0.12431 0.72525 0.44711 0.0
N152 N 0.11685 0.72217 0.4622 0.0
H153 H 0.12108 0.71727 0.48803 0.0
H154 H 0.11712 0.72634 0.4358 0.0
H155 H 0.10715 0.69149 0.47701 0.0
H156 H 0.06043 0.70882 0.46045 0.0
O157 O 0.09353 0.72921 0.49045 0.0
O158 O 0.07189 0.73544 0.47433 0.0
O159 O 0.08781 0.72998 0.4416 0.0
C160 C 0.07799 0.73397 0.48932 0.0
H161 H 0.11896 0.786 0.47639 0.0
H162 H 0.08548 0.66648 0.47923 0.0
H163 H 0.14641 0.73285 0.43417 0.0
H164 H 0.14986 0.72625 0.48782 0.0
Co165 Co 0.72438 0.8457 0.71959 0.0
C166 C 0.68915 0.8438 0.73227 0.0
C167 C 0.69076 0.85709 0.70909 0.0
C168 C 0.67418 0.85518 0.71308 0.0
N169 N 0.70033 0.85006 0.72115 0.0
N170 N 0.67314 0.84658 0.72753 0.0
H171 H 0.6924 0.83593 0.74275 0.0
H172 H 0.69515 0.86178 0.69725 0.0
C173 C 0.73077 0.83839 0.68286 0.0
O174 O 0.74626 0.84376 0.68401 0.0
N175 N 0.74828 0.84105 0.71784 0.0
C176 C 0.76124 0.85189 0.71754 0.0
C177 C 0.77597 0.84296 0.71676 0.0
C178 C 0.75541 0.82569 0.71719 0.0
N179 N 0.77232 0.82646 0.71661 0.0
C180 C 0.73209 0.87901 0.72905 0.0
C181 C 0.71868 0.89458 0.70129 0.0
C182 C 0.72006 0.9036 0.71633 0.0
C183 C 0.7283 0.89599 0.72977 0.0
C184 C 0.72315 0.87754 0.70096 0.0
N185 N 0.728 0.86962 0.71534 0.0
H186 H 0.73723 0.87325 0.74012 0.0
H187 H 0.72085 0.87054 0.68965 0.0
H188 H 0.76031 0.86536 0.71772 0.0
H189 H 0.74834 0.81416 0.71743 0.0
O190 O 0.72659 0.84621 0.74368 0.0
O191 O 0.72091 0.82343 0.72909 0.0
O192 O 0.72077 0.83958 0.6953 0.0
C193 C 0.72383 0.83022 0.74364 0.0
H194 H 0.66371 0.85858 0.70517 0.0
H195 H 0.78839 0.84832 0.71623 0.0
H196 H 0.71277 0.90009 0.6904 0.0
H197 H 0.73042 0.90272 0.74136 0.0
Co198 Co 0.60853 0.4709 0.96894 0.0
C199 C 0.60773 0.43442 0.97663 0.0
C200 C 0.59877 0.43957 0.95191 0.0
C201 C 0.59957 0.42251 0.95396 0.0
N202 N 0.60396 0.44713 0.96612 0.0
N203 N 0.60539 0.41929 0.96945 0.0
H204 H 0.61345 0.43606 0.98877 0.0
H205 H 0.59572 0.44582 0.94033 0.0
C206 C 0.61142 0.48509 0.93406 0.0
O207 O 0.60452 0.49918 0.93902 0.0
N208 N 0.61364 0.49452 0.97154 0.0
C209 C 0.60553 0.50671 0.98 0.0
C210 C 0.61598 0.52043 0.98131 0.0
C211 C 0.62874 0.50106 0.9678 0.0
N212 N 0.63066 0.51673 0.97378 0.0
C213 C 0.57626 0.47691 0.9826 0.0
C214 C 0.55833 0.46742 0.95465 0.0
C215 C 0.55034 0.46718 0.97036 0.0
C216 C 0.55925 0.47332 0.98415 0.0
C217 C 0.57536 0.47165 0.95355 0.0
N218 N 0.58442 0.47505 0.96767 0.0
H219 H 0.58308 0.47984 0.99387 0.0
H220 H 0.58141 0.47048 0.94156 0.0
H221 H 0.59331 0.50563 0.98563 0.0
H222 H 0.63839 0.49412 0.9613 0.0
O223 O 0.61058 0.46821 0.99301 0.0
O224 O 0.63155 0.46592 0.97507 0.0
O225 O 0.61241 0.4726 0.944 0.0
C226 C 0.62652 0.466 0.99057 0.0
H227 H 0.59721 0.41324 0.94436 0.0
H228 H 0.61332 0.53181 0.98818 0.0
H229 H 0.55199 0.46298 0.94353 0.0
H230 H 0.55351 0.47409 0.99642 0.0
Co231 Co 0.97657 0.35594 0.21973 0.0
C232 C 0.01266 0.35728 0.22911 0.0
C233 C 0.00835 0.34217 0.2074 0.0
C234 C 0.02534 0.34358 0.20971 0.0
N235 N 1.00034 0.35088 0.2195 0.0
N236 N 0.02798 0.3531 0.22335 0.0
H237 H 0.0107 0.36607 0.23921 0.0
H238 H 0.0024 0.33629 0.19679 0.0
C239 C 0.96734 0.36159 0.1832 0.0
O240 O 0.95152 0.35807 0.18597 0.0
N241 N 0.95288 0.36111 0.21981 0.0
C242 C 0.93995 0.35148 0.22482 0.0
C243 C 0.9256 0.36115 0.22495 0.0
C244 C 0.94627 0.37644 0.21714 0.0
N245 N 0.92967 0.37687 0.22023 0.0
C246 C 0.97372 0.32305 0.23263 0.0
C247 C 0.97581 0.30625 0.20257 0.0
C248 C 0.98005 0.29764 0.21737 0.0
C249 C 0.97775 0.3061 0.23259 0.0
C250 C 0.972 0.3234 0.20316 0.0
N251 N 0.97233 0.33187 0.21803 0.0
H252 H 0.97341 0.32929 0.24456 0.0
H253 H 0.97043 0.32991 0.19148 0.0
H254 H 0.94091 0.33856 0.22874 0.0
H255 H 0.95355 0.38715 0.21315 0.0
O256 O 0.97658 0.35815 0.24395 0.0
O257 O 0.98116 0.37892 0.22627 0.0
O258 O 0.97826 0.35971 0.19475 0.0
C259 C 0.97943 0.37399 0.2417 0.0
H260 H 0.03498 0.33904 0.20132 0.0
H261 H 0.91329 0.35711 0.22895 0.0
H262 H 0.97665 0.30017 0.19048 0.0
H263 H 0.98064 0.30032 0.24449 0.0
Co264 Co 0.23494 0.09465 0.47509 0.0
C265 C 0.24028 0.08902 0.4394 0.0
C266 C 0.22496 0.11074 0.44354 0.0
C267 C 0.22496 0.10716 0.42666 0.0
N268 N 0.23448 0.09925 0.45146 0.0
N269 N 0.23467 0.09358 0.42416 0.0
H270 H 0.24698 0.07749 0.44191 0.0
H271 H 0.21741 0.12013 0.44972 0.0
C272 C 0.27071 0.08827 0.48398 0.0
O273 O 0.26839 0.09721 0.49761 0.0
N274 N 0.23517 0.08921 0.49874 0.0
C275 C 0.22806 0.097 0.51193 0.0
C276 C 0.22771 0.08601 0.52531 0.0
C277 C 0.23899 0.07373 0.5043 0.0
N278 N 0.23443 0.07128 0.52038 0.0
C279 C 0.22814 0.12862 0.48331 0.0
C280 C 0.25643 0.14165 0.46841 0.0
C281 C 0.24251 0.15222 0.47065 0.0
C282 C 0.22862 0.14561 0.4792 0.0
C283 C 0.25517 0.12457 0.47207 0.0
N284 N 0.24084 0.11806 0.47882 0.0
H285 H 0.21655 0.12372 0.4882 0.0
H286 H 0.26509 0.11654 0.46772 0.0
H287 H 0.22245 0.10928 0.51174 0.0
H288 H 0.24423 0.06418 0.49626 0.0
O289 O 0.21079 0.09673 0.47584 0.0
O290 O 0.22452 0.07315 0.47093 0.0
O291 O 0.25902 0.08705 0.47311 0.0
C292 C 0.21023 0.08078 0.47273 0.0
H293 H 0.21746 0.11325 0.41715 0.0
H294 H 0.22185 0.08834 0.53731 0.0
H295 H 0.2678 0.14612 0.46253 0.0
H296 H 0.21742 0.15294 0.48129 0.0
Co297 Co 0.35355 0.98446 0.72782 0.0
C298 C 0.3629 0.99178 0.69334 0.0
C299 C 0.33934 0.9789 0.69396 0.0
C300 C 0.34379 0.98157 0.67748 0.0
N301 N 0.35134 0.98544 0.70381 0.0
N302 N 0.3587 0.98961 0.67709 0.0
H303 H 0.3746 0.99699 0.69771 0.0
H304 H 0.32839 0.97229 0.69842 0.0
C305 C 0.35786 0.01995 0.73848 0.0
O306 O 0.34652 0.01735 0.75011 0.0
N307 N 0.35689 0.98365 0.75201 0.0
C308 C 0.3461 0.98333 0.76504 0.0
C309 C 0.35515 0.98325 0.77978 0.0
C310 C 0.37222 0.98402 0.75911 0.0
N311 N 0.37163 0.98366 0.77599 0.0
C312 C 0.3193 0.97808 0.73512 0.0
C313 C 0.30716 0.00384 0.71553 0.0
C314 C 0.29637 0.99049 0.71958 0.0
C315 C 0.30241 0.97822 0.73064 0.0
C316 C 0.32384 0.0036 0.72089 0.0
N317 N 0.32997 0.99031 0.72974 0.0
H318 H 0.3241 0.96728 0.74172 0.0
H319 H 0.33226 0.01294 0.7159 0.0
H320 H 0.33264 0.9837 0.76427 0.0
H321 H 0.38367 0.98449 0.75195 0.0
O322 O 0.35116 0.96034 0.72708 0.0
O323 O 0.37518 0.97399 0.72479 0.0
O324 O 0.36126 0.00847 0.72788 0.0
C325 C 0.36731 0.95973 0.72513 0.0
H326 H 0.33676 0.97737 0.6667 0.0
H327 H 0.34991 0.9832 0.79227 0.0
H328 H 0.30342 0.0136 0.70691 0.0
H329 H 0.29458 0.96797 0.73478 0.0
Co330 Co 0.47003 0.10365 0.97407 0.0
C331 C 0.48513 0.10421 0.94006 0.0
C332 C 0.45999 0.0951 0.93966 0.0
C333 C 0.46494 0.09825 0.92351 0.0
N334 N 0.47254 0.09913 0.9502 0.0
N335 N 0.48065 0.10445 0.92373 0.0
H336 H 0.4969 0.10903 0.94452 0.0
H337 H 0.44736 0.09201 0.94333 0.0
C338 C 0.43329 0.11013 0.97984 0.0
O339 O 0.43429 0.10321 0.99473 0.0
N340 N 0.4675 0.10883 0.99766 0.0
C341 C 0.47167 0.0998 0.01131 0.0
C342 C 0.47112 0.11017 0.02514 0.0
C343 C 0.46438 0.1244 0.00341 0.0
N344 N 0.46664 0.12568 0.02008 0.0
C345 C 0.47882 0.07013 0.98203 0.0
C346 C 0.45142 0.05528 0.96717 0.0
C347 C 0.46605 0.04579 0.96944 0.0
C348 C 0.47937 0.05313 0.97811 0.0
C349 C 0.45132 0.0723 0.97148 0.0
N350 N 0.46543 0.07983 0.97759 0.0
H351 H 0.48991 0.07568 0.98736 0.0
H352 H 0.44044 0.07955 0.9682 0.0
H353 H 0.47569 0.08691 0.01129 0.0
H354 H 0.46167 0.1349 0.99529 0.0
O355 O 0.49406 0.10323 0.97726 0.0
O356 O 0.47939 0.12581 0.97071 0.0
O357 O 0.44586 0.10996 0.96992 0.0
C358 C 0.49383 0.11923 0.97439 0.0
H359 H 0.45668 0.09806 0.91277 0.0
H360 H 0.47445 0.10669 0.03781 0.0
H361 H 0.44071 0.05009 0.96066 0.0
H362 H 0.49072 0.04613 0.98064 0.0
Co363 Co 0.34542 0.21473 0.2211 0.0
C364 C 0.33691 0.20984 0.18571 0.0
C365 C 0.36094 0.22151 0.18807 0.0
C366 C 0.35732 0.21988 0.17134 0.0
N367 N 0.34817 0.21512 0.19707 0.0
N368 N 0.34211 0.21266 0.16981 0.0
H369 H 0.32476 0.20495 0.18916 0.0
H370 H 0.37187 0.22759 0.19311 0.0
C371 C 0.33655 0.17872 0.22995 0.0
O372 O 0.34086 0.18081 0.24567 0.0
N373 N 0.34247 0.21461 0.2453 0.0
C374 C 0.35408 0.21677 0.25737 0.0
C375 C 0.34611 0.21807 0.27263 0.0
C376 C 0.32763 0.21461 0.25346 0.0
N377 N 0.32944 0.21682 0.27015 0.0
C378 C 0.3796 0.22411 0.22495 0.0
C379 C 0.39295 0.19443 0.21348 0.0
C380 C 0.40276 0.20905 0.21219 0.0
C381 C 0.39616 0.22377 0.21928 0.0
C382 C 0.37622 0.19547 0.21859 0.0
N383 N 0.36942 0.21048 0.22314 0.0
H384 H 0.37447 0.23594 0.229 0.0
H385 H 0.36857 0.18443 0.21743 0.0
H386 H 0.36741 0.21781 0.25542 0.0
H387 H 0.31571 0.21312 0.24724 0.0
O388 O 0.34534 0.23915 0.22142 0.0
O389 O 0.32295 0.22313 0.21853 0.0
O390 O 0.33922 0.19024 0.21915 0.0
C391 C 0.32918 0.2381 0.2195 0.0
H392 H 0.3651 0.22432 0.16118 0.0
H393 H 0.35216 0.22043 0.28451 0.0
H394 H 0.39762 0.18238 0.20941 0.0
H395 H 0.40293 0.23548 0.21906 0.0
Co396 Co 0.22703 0.10665 0.22819 0.0
C397 C 0.223 0.11346 0.26466 0.0
C398 C 0.23587 0.09038 0.26025 0.0
C399 C 0.23571 0.0933 0.27718 0.0
N400 N 0.2278 0.10297 0.25229 0.0
N401 N 0.22767 0.10784 0.27991 0.0
H402 H 0.21734 0.12559 0.26261 0.0
H403 H 0.24239 0.08017 0.25431 0.0
C404 C 0.26327 0.11252 0.2179 0.0
O405 O 0.2599 0.10988 0.20203 0.0
N406 N 0.22618 0.11036 0.20421 0.0
C407 C 0.22039 0.09989 0.1923 0.0
C408 C 0.21887 0.10865 0.17748 0.0
C409 C 0.22792 0.12531 0.19649 0.0
N410 N 0.2235 0.12468 0.18019 0.0
C411 C 0.21386 0.07384 0.22934 0.0
C412 C 0.2435 0.05653 0.22534 0.0
C413 C 0.2295 0.04805 0.23194 0.0
C414 C 0.21433 0.05682 0.23289 0.0
C415 C 0.24248 0.07377 0.22184 0.0
N416 N 0.22803 0.0824 0.22507 0.0
H417 H 0.2023 0.08034 0.23177 0.0
H418 H 0.25366 0.08023 0.21798 0.0
H419 H 0.21662 0.08705 0.19437 0.0
H420 H 0.23206 0.13654 0.20283 0.0
O421 O 0.20289 0.10939 0.22883 0.0
O422 O 0.22112 0.12998 0.23164 0.0
O423 O 0.2522 0.10974 0.22916 0.0
C424 C 0.20554 0.12529 0.23089 0.0
H425 H 0.24181 0.08575 0.28665 0.0
H426 H 0.21385 0.10379 0.16587 0.0
H427 H 0.25542 0.05021 0.22392 0.0
H428 H 0.20312 0.05112 0.23795 0.0
Co429 Co 0.34207 0.98359 0.47787 0.0
C430 C 0.34012 0.97929 0.51485 0.0
C431 C 0.35663 0.99923 0.50797 0.0
C432 C 0.35557 0.99871 0.52515 0.0
N433 N 0.34697 0.987 0.50145 0.0
N434 N 0.34508 0.98621 0.52947 0.0
H435 H 0.33074 0.9696 0.51401 0.0
H436 H 0.36323 0.00862 0.50086 0.0
C437 C 0.33781 0.01797 0.46273 0.0
O438 O 0.34361 0.01264 0.44828 0.0
N439 N 0.33691 0.9802 0.45447 0.0
C440 C 0.34495 0.97069 0.44305 0.0
C441 C 0.33445 0.96839 0.42946 0.0
C442 C 0.3218 0.98346 0.44775 0.0
N443 N 0.31984 0.97629 0.43262 0.0
C444 C 0.37466 0.96961 0.47569 0.0
C445 C 0.39228 0.99924 0.47498 0.0
C446 C 0.40057 0.9846 0.48024 0.0
C447 C 0.3917 0.96949 0.47934 0.0
C448 C 0.37504 0.99885 0.47165 0.0
N449 N 0.36618 0.98429 0.47334 0.0
H450 H 0.36813 0.95785 0.47638 0.0
H451 H 0.36885 0.0106 0.46952 0.0
H452 H 0.35701 0.96485 0.4449 0.0
H453 H 0.31211 0.99034 0.45427 0.0
O454 O 0.33956 0.95967 0.48121 0.0
O455 O 0.31896 0.97802 0.48314 0.0
O456 O 0.33847 0.00859 0.47571 0.0
C457 C 0.32368 0.96243 0.48332 0.0
H458 H 0.36141 0.00742 0.53371 0.0
H459 H 0.33694 0.96053 0.4187 0.0
H460 H 0.39868 0.01119 0.47474 0.0
H461 H 0.39728 0.95771 0.48306 0.0
Co462 Co 0.46673 0.09591 0.72468 0.0
C463 C 0.46176 0.08795 0.75985 0.0
C464 C 0.47123 0.11296 0.7576 0.0
C465 C 0.46989 0.10905 0.77439 0.0
N466 N 0.46591 0.09972 0.74854 0.0
N467 N 0.46373 0.0934 0.77566 0.0
H468 H 0.45791 0.07538 0.75652 0.0
H469 H 0.47644 0.12435 0.75255 0.0
C470 C 0.43026 0.08831 0.73434 0.0
O471 O 0.4305 0.09821 0.74747 0.0
N472 N 0.46752 0.09117 0.70107 0.0
C473 C 0.47699 0.09805 0.68891 0.0
C474 C 0.47736 0.08711 0.67544 0.0
C475 C 0.46235 0.07637 0.69493 0.0
N476 N 0.46832 0.07337 0.67945 0.0
C477 C 0.47372 0.13045 0.71968 0.0
C478 C 0.44212 0.14203 0.72719 0.0
C479 C 0.45587 0.15268 0.73011 0.0
C480 C 0.47166 0.14704 0.72476 0.0
C481 C 0.44484 0.12536 0.7224 0.0
N482 N 0.46074 0.11935 0.72058 0.0
H483 H 0.48627 0.12622 0.71708 0.0
H484 H 0.43416 0.1173 0.72115 0.0
H485 H 0.48427 0.10938 0.69023 0.0
H486 H 0.45551 0.06733 0.70234 0.0
O487 O 0.49085 0.09832 0.72518 0.0
O488 O 0.47741 0.0744 0.72877 0.0
O489 O 0.44279 0.08758 0.72437 0.0
C490 C 0.49162 0.08229 0.72771 0.0
H491 H 0.47361 0.11686 0.78482 0.0
H492 H 0.48487 0.08853 0.66424 0.0
H493 H 0.42943 0.14608 0.72969 0.0
H494 H 0.48282 0.15458 0.72611 0.0
Co495 Co 0.35385 0.21598 0.97824 0.0
C496 C 0.36344 0.21243 0.01347 0.0
C497 C 0.33888 0.22309 0.01143 0.0
C498 C 0.34304 0.2221 0.02811 0.0
N499 N 0.35165 0.21692 0.00229 0.0
N500 N 0.35857 0.21549 0.02941 0.0
H501 H 0.37566 0.20786 0.00982 0.0
H502 H 0.32755 0.22849 0.00645 0.0
C503 C 0.36304 0.18003 0.97025 0.0
O504 O 0.35594 0.18108 0.95546 0.0
N505 N 0.35657 0.21523 0.95409 0.0
C506 C 0.34546 0.21874 0.94188 0.0
C507 C 0.35378 0.21899 0.92672 0.0
C508 C 0.37141 0.21345 0.94617 0.0
N509 N 0.37016 0.21575 0.92944 0.0
C510 C 0.31894 0.22205 0.97448 0.0
C511 C 0.3085 0.19255 0.989 0.0
C512 C 0.29756 0.2064 0.98943 0.0
C513 C 0.30268 0.22091 0.98086 0.0
C514 C 0.32492 0.19447 0.98316 0.0
N515 N 0.33029 0.20947 0.97695 0.0
H516 H 0.32291 0.23392 0.9694 0.0
H517 H 0.33351 0.1843 0.98529 0.0
H518 H 0.33238 0.22154 0.9437 0.0
H519 H 0.38294 0.21072 0.95272 0.0
O520 O 0.35136 0.24015 0.97709 0.0
O521 O 0.37543 0.22675 0.97997 0.0
O522 O 0.36222 0.19222 0.98059 0.0
C523 C 0.36754 0.24093 0.97868 0.0
H524 H 0.33535 0.22642 0.03838 0.0
H525 H 0.34823 0.22208 0.91475 0.0
H526 H 0.30503 0.1806 0.99435 0.0
H527 H 0.295 0.23204 0.98041 0.0
Co528 Co 0.48534 0.22952 0.09188 0.0
C529 C 0.45035 0.21656 0.09043 0.0
C530 C 0.45126 0.24216 0.09821 0.0
C531 C 0.43489 0.23796 0.09526 0.0
N532 N 0.46112 0.2288 0.09506 0.0
N533 N 0.43428 0.22192 0.09003 0.0
H534 H 0.45416 0.2043 0.08626 0.0
H535 H 0.45557 0.25469 0.10078 0.0
C536 C 0.49377 0.2659 0.08678 0.0
O537 O 0.50771 0.26383 0.09526 0.0
N538 N 0.50931 0.23041 0.08794 0.0
C539 C 0.52223 0.22465 0.09714 0.0
C540 C 0.5366 0.22537 0.08753 0.0
C541 C 0.51602 0.23452 0.07299 0.0
N542 N 0.53265 0.23148 0.07224 0.0
C543 C 0.49133 0.22038 0.12566 0.0
C544 C 0.47559 0.24769 0.13985 0.0
C545 C 0.47677 0.23279 0.14908 0.0
C546 C 0.48593 0.21953 0.14223 0.0
C547 C 0.48139 0.2481 0.12324 0.0
N548 N 0.48782 0.234 0.11589 0.0
H549 H 0.49675 0.20924 0.12033 0.0
H550 H 0.47892 0.25919 0.116 0.0
H551 H 0.52137 0.21955 0.10961 0.0
H552 H 0.50856 0.23923 0.06273 0.0
O553 O 0.48677 0.20538 0.09276 0.0
O554 O 0.48258 0.21998 0.06959 0.0
O555 O 0.4833 0.2539 0.08536 0.0
C556 C 0.48476 0.20544 0.07665 0.0
H557 H 0.42454 0.24672 0.09512 0.0
H558 H 0.54881 0.22086 0.0913 0.0
H559 H 0.46877 0.25834 0.14476 0.0
H560 H 0.48753 0.20793 0.14911 0.0
Co561 Co 0.97135 0.46423 0.1043 0.0
C562 C 0.93569 0.47566 0.10421 0.0
C563 C 0.93827 0.45079 0.09464 0.0
C564 C 0.92151 0.45438 0.09597 0.0
N565 N 0.94729 0.46408 0.09996 0.0
N566 N 0.91991 0.46997 0.10215 0.0
H567 H 0.93851 0.48744 0.11021 0.0
H568 H 0.9433 0.4387 0.09132 0.0
C569 C 0.98055 0.42781 0.11084 0.0
O570 O 0.99631 0.43028 0.1069 0.0
N571 N 0.99539 0.46421 0.10874 0.0
C572 C 0.00816 0.46404 0.09768 0.0
C573 C 0.02306 0.46424 0.10632 0.0
C574 C 0.00282 0.46452 0.12397 0.0
N575 N 0.01975 0.46462 0.12292 0.0
C576 C 0.97855 0.47597 0.07155 0.0
C577 C 0.96712 0.44812 0.0546 0.0
C578 C 0.9685 0.4634 0.04594 0.0
C579 C 0.97554 0.47704 0.0544 0.0
C580 C 0.97072 0.44746 0.07178 0.0
N581 N 0.97503 0.46167 0.08027 0.0
H582 H 0.98282 0.48705 0.07797 0.0
H583 H 0.96856 0.43587 0.07835 0.0
H584 H 0.00701 0.46344 0.08423 0.0
H585 H 0.99593 0.46476 0.1356 0.0
O586 O 0.97152 0.48849 0.10553 0.0
O587 O 0.96714 0.47163 0.12705 0.0
O588 O 0.96974 0.43945 0.109 0.0
C589 C 0.9687 0.48686 0.12148 0.0
H590 H 0.91132 0.44567 0.09397 0.0
H591 H 0.03534 0.46391 0.10064 0.0
H592 H 0.96198 0.43712 0.0486 0.0
H593 H 0.97759 0.48889 0.04811 0.0
Co594 Co 0.97913 0.72423 0.35643 0.0
C595 C 0.98501 0.68979 0.36614 0.0
C596 C 0.97111 0.69032 0.34318 0.0
C597 C 0.9736 0.67384 0.34781 0.0
N598 N 0.97831 0.70021 0.35477 0.0
N599 N 0.98236 0.67355 0.3623 0.0
H600 H 0.99101 0.69418 0.37746 0.0
H601 H 0.96423 0.69467 0.33237 0.0
C602 C 0.01603 0.73212 0.36148 0.0
O603 O 0.01429 0.74755 0.35607 0.0
N604 N 0.98018 0.74841 0.35873 0.0
C605 C 0.97858 0.76057 0.34711 0.0
C606 C 0.97953 0.77593 0.35499 0.0
C607 C 0.9821 0.75656 0.37341 0.0
N608 N 0.98172 0.77336 0.37157 0.0
C609 C 0.96813 0.72824 0.3228 0.0
C610 C 0.9967 0.71622 0.30754 0.0
C611 C 0.98183 0.71701 0.29811 0.0
C612 C 0.96764 0.72395 0.30588 0.0
C613 C 0.9965 0.72013 0.32462 0.0
N614 N 0.98212 0.72544 0.33222 0.0
H615 H 0.95674 0.73264 0.32861 0.0
H616 H 0.00766 0.71763 0.33175 0.0
H617 H 0.97683 0.75865 0.33385 0.0
H618 H 0.98348 0.75024 0.38528 0.0
O619 O 0.95479 0.72525 0.35769 0.0
O620 O 0.97176 0.72245 0.37936 0.0
O621 O 0.00377 0.7219 0.36116 0.0
C622 C 0.95653 0.72366 0.37381 0.0
H623 H 0.96893 0.66299 0.34119 0.0
H624 H 0.97868 0.788 0.34891 0.0
H625 H 0.00826 0.71166 0.30211 0.0
H626 H 0.95576 0.7249 0.29947 0.0
Co627 Co 0.72369 0.73181 0.60948 0.0
C628 C 0.75888 0.73842 0.61576 0.0
C629 C 0.75634 0.72163 0.59497 0.0
C630 C 0.77312 0.72484 0.59745 0.0
N631 N 0.74753 0.73028 0.60644 0.0
N632 N 0.77471 0.73544 0.61058 0.0
H633 H 0.75548 0.74587 0.62654 0.0
H634 H 0.75102 0.7135 0.58555 0.0
C635 C 0.71651 0.76897 0.61342 0.0
O636 O 0.7011 0.76726 0.60796 0.0
N637 N 0.69967 0.73353 0.61316 0.0
C638 C 0.68665 0.73111 0.60267 0.0
C639 C 0.67195 0.73253 0.61165 0.0
C640 C 0.69263 0.7366 0.62823 0.0
N641 N 0.67575 0.7359 0.62777 0.0
C642 C 0.71648 0.7201 0.57679 0.0
C643 C 0.73565 0.74393 0.56062 0.0
C644 C 0.73252 0.72861 0.55256 0.0
C645 C 0.72174 0.7172 0.56038 0.0
C646 C 0.72994 0.74646 0.57703 0.0
N647 N 0.72146 0.73408 0.5853 0.0
H648 H 0.7099 0.71019 0.58322 0.0
H649 H 0.73435 0.75735 0.58368 0.0
H650 H 0.68746 0.72841 0.58948 0.0
H651 H 0.69983 0.7394 0.63933 0.0
O652 O 0.72234 0.70758 0.61123 0.0
O653 O 0.72645 0.72483 0.63251 0.0
O654 O 0.72662 0.75659 0.61339 0.0
C655 C 0.72471 0.70954 0.62722 0.0
H656 H 0.78329 0.71946 0.59029 0.0
H657 H 0.65947 0.73073 0.6067 0.0
H658 H 0.74398 0.7531 0.55509 0.0
H659 H 0.7187 0.70536 0.5545 0.0
Co660 Co 0.21791 0.9715 0.35611 0.0
C661 C 0.21495 0.00745 0.36269 0.0
C662 C 0.23047 0.0027 0.34121 0.0
C663 C 0.23116 0.01955 0.34485 0.0
N664 N 0.22036 0.99519 0.35248 0.0
N665 N 0.22136 0.02244 0.3583 0.0
H666 H 0.20762 0.00525 0.37389 0.0
H667 H 0.23764 0.99624 0.33171 0.0
C668 C 0.18152 0.9653 0.36192 0.0
O669 O 0.18271 0.95219 0.35207 0.0
N670 N 0.21565 0.94759 0.36043 0.0
C671 C 0.21543 0.93439 0.3499 0.0
C672 C 0.21444 0.91987 0.35922 0.0
C673 C 0.21465 0.94085 0.37591 0.0
N674 N 0.21406 0.92394 0.37564 0.0
C675 C 0.22396 0.96334 0.32198 0.0
C676 C 0.19839 0.98288 0.30929 0.0
C677 C 0.21158 0.97818 0.29866 0.0
C678 C 0.22403 0.9676 0.30501 0.0
C679 C 0.19886 0.97848 0.32624 0.0
N680 N 0.2119 0.96934 0.33256 0.0
H681 H 0.23451 0.95645 0.32689 0.0
H682 H 0.18978 0.98413 0.33449 0.0
H683 H 0.2158 0.93498 0.33642 0.0
H684 H 0.21476 0.94828 0.3872 0.0
O685 O 0.24196 0.96885 0.35403 0.0
O686 O 0.22849 0.97411 0.37769 0.0
O687 O 0.19404 0.97509 0.36378 0.0
C688 C 0.24266 0.97151 0.37007 0.0
H689 H 0.23892 0.0288 0.33868 0.0
H690 H 0.21406 0.90732 0.35416 0.0
H691 H 0.18867 0.9913 0.30496 0.0
H692 H 0.23441 0.96365 0.29721 0.0
Co693 Co 0.22687 0.96732 0.59443 0.0
C694 C 0.26276 0.96199 0.59043 0.0
C695 C 0.25775 0.97669 0.61238 0.0
C696 C 0.27485 0.97579 0.61013 0.0
N697 N 0.25029 0.96805 0.59996 0.0
N698 N 0.27791 0.96654 0.59631 0.0
H699 H 0.26071 0.95561 0.57865 0.0
H700 H 0.25123 0.98387 0.62184 0.0
C701 C 0.21871 0.93151 0.58873 0.0
O702 O 0.20536 0.93395 0.59806 0.0
N703 N 0.20347 0.9666 0.58786 0.0
C704 C 0.18923 0.97116 0.59575 0.0
C705 C 0.17621 0.97066 0.58436 0.0
C706 C 0.19884 0.96331 0.57196 0.0
N707 N 0.18236 0.96587 0.56934 0.0
C708 C 0.21599 0.97311 0.62793 0.0
C709 C 0.23516 0.94768 0.64137 0.0
C710 C 0.23024 0.96098 0.65182 0.0
C711 C 0.21941 0.97308 0.64509 0.0
C712 C 0.23104 0.94791 0.62437 0.0
N713 N 0.22241 0.96107 0.6176 0.0
H714 H 0.20995 0.98404 0.62277 0.0
H715 H 0.237 0.93878 0.6164 0.0
H716 H 0.18814 0.97513 0.60858 0.0
H717 H 0.20761 0.95952 0.56236 0.0
O718 O 0.22563 0.99141 0.59683 0.0
O719 O 0.23181 0.97813 0.57328 0.0
O720 O 0.22938 0.94329 0.58683 0.0
C721 C 0.22946 0.99228 0.58103 0.0
H722 H 0.28423 0.98219 0.61751 0.0
H723 H 0.16341 0.97437 0.5868 0.0
H724 H 0.24369 0.93809 0.64569 0.0
H725 H 0.21483 0.98337 0.65263 0.0
Co726 Co 0.97782 0.4728 0.34228 0.0
C727 C 0.97846 0.50845 0.33367 0.0
C728 C 0.96008 0.50354 0.35266 0.0
C729 C 0.95956 0.52037 0.34875 0.0
N730 N 0.97193 0.49616 0.34313 0.0
N731 N 0.97128 0.52333 0.33697 0.0
H732 H 0.98769 0.50648 0.32397 0.0
H733 H 0.95212 0.49711 0.36154 0.0
C734 C 0.01497 0.47183 0.33328 0.0
O735 O 0.01724 0.4578 0.34156 0.0
N736 N 0.98347 0.44931 0.34097 0.0
C737 C 0.97931 0.43681 0.35152 0.0
C738 C 0.98077 0.42177 0.34307 0.0
C739 C 0.98741 0.44172 0.32641 0.0
N740 N 0.98563 0.42494 0.32716 0.0
C741 C 0.97225 0.47112 0.37743 0.0
C742 C 0.99869 0.49153 0.386 0.0
C743 C 0.98496 0.49054 0.39699 0.0
C744 C 0.97215 0.47922 0.39297 0.0
C745 C 0.99797 0.48378 0.37034 0.0
N746 N 0.98435 0.4745 0.36578 0.0
H747 H 0.96145 0.46373 0.37413 0.0
H748 H 0.00766 0.48687 0.36153 0.0
H749 H 0.97418 0.43846 0.36392 0.0
H750 H 0.99041 0.44863 0.31516 0.0
O751 O 0.95434 0.46696 0.34506 0.0
O752 O 0.96706 0.47091 0.32071 0.0
O753 O 0.00073 0.4792 0.33347 0.0
C754 C 0.95344 0.46723 0.32882 0.0
H755 H 0.95113 0.52964 0.35394 0.0
H756 H 0.97712 0.40964 0.3479 0.0
H757 H 0.00935 0.49943 0.38879 0.0
H758 H 0.96129 0.47775 0.40095 0.0
Co759 Co 0.71982 0.72693 0.84666 0.0
C760 C 0.72229 0.6908 0.8432 0.0
C761 C 0.73841 0.69948 0.86285 0.0
C762 C 0.74195 0.68284 0.8598 0.0
N763 N 0.72618 0.7044 0.85229 0.0
N764 N 0.73169 0.6775 0.84752 0.0
H765 H 0.71405 0.69109 0.83244 0.0
H766 H 0.74523 0.70772 0.87115 0.0
C767 C 0.68282 0.72596 0.8395 0.0
O768 O 0.68089 0.74073 0.84648 0.0
N769 N 0.71364 0.74956 0.84033 0.0
C770 C 0.7141 0.76389 0.84926 0.0
C771 C 0.71187 0.77721 0.83847 0.0
C772 C 0.71091 0.75441 0.82436 0.0
N773 N 0.71001 0.7712 0.82278 0.0
C774 C 0.72536 0.7377 0.88008 0.0
C775 C 0.70195 0.71646 0.89418 0.0
C776 C 0.71516 0.72234 0.90407 0.0
C777 C 0.72641 0.73381 0.8971 0.0
C778 C 0.70153 0.7204 0.87712 0.0
N779 N 0.71369 0.7302 0.87006 0.0
H780 H 0.73519 0.74522 0.87465 0.0
H781 H 0.69266 0.71374 0.86946 0.0
H782 H 0.71658 0.76485 0.86249 0.0
H783 H 0.71073 0.74582 0.81389 0.0
O784 O 0.7432 0.73362 0.84757 0.0
O785 O 0.73019 0.72391 0.8251 0.0
O786 O 0.69701 0.7186 0.83993 0.0
C787 C 0.74396 0.72924 0.83189 0.0
H788 H 0.75196 0.67556 0.86534 0.0
H789 H 0.71223 0.79033 0.84185 0.0
H790 H 0.6932 0.70733 0.8991 0.0
H791 H 0.73685 0.73851 0.90437 0.0
Co792 Co 0.59241 0.97488 0.73194 0.0
C793 C 0.59268 0.93875 0.72259 0.0
C794 C 0.60371 0.94297 0.74662 0.0
C795 C 0.60242 0.926 0.74417 0.0
N796 N 0.59759 0.95108 0.73308 0.0
N797 N 0.59531 0.92338 0.72912 0.0
H798 H 0.58578 0.94081 0.71114 0.0
H799 H 0.60739 0.94876 0.75824 0.0
C800 C 0.5847 0.98548 0.76727 0.0
O801 O 0.59222 0.99984 0.76446 0.0
N802 N 0.58665 0.9984 0.73108 0.0
C803 C 0.59582 0.01196 0.72702 0.0
C804 C 0.58554 0.02592 0.72782 0.0
C805 C 0.5711 0.0042 0.73408 0.0
N806 N 0.56997 0.02095 0.73231 0.0
C807 C 0.62626 0.98105 0.72326 0.0
C808 C 0.64 0.97279 0.75372 0.0
C809 C 0.6498 0.97049 0.7392 0.0
C810 C 0.643 0.97614 0.72401 0.0
C811 C 0.62306 0.97715 0.75228 0.0
N812 N 0.616 0.97967 0.73689 0.0
H813 H 0.62129 0.98423 0.71113 0.0
H814 H 0.61555 0.97654 0.76343 0.0
H815 H 0.60892 0.01183 0.72367 0.0
H816 H 0.56075 0.99609 0.73731 0.0
O817 O 0.59404 0.97481 0.70779 0.0
O818 O 0.57071 0.96989 0.72179 0.0
O819 O 0.58504 0.97389 0.75622 0.0
C820 C 0.57808 0.97195 0.70738 0.0
H821 H 0.60519 0.91641 0.75334 0.0
H822 H 0.58932 0.03868 0.7253 0.0
H823 H 0.64483 0.96985 0.76602 0.0
H824 H 0.6498 0.97532 0.71233 0.0
Co825 Co 0.47596 0.34059 0.98513 0.0
C826 C 0.51215 0.33937 0.97627 0.0
C827 C 0.5076 0.35513 0.99744 0.0
C828 C 0.52456 0.35463 0.99455 0.0
N829 N 0.49975 0.34562 0.98591 0.0
N830 N 0.52744 0.3446 0.98128 0.0
H831 H 0.51023 0.33027 0.96649 0.0
H832 H 0.50164 0.36131 0.00787 0.0
C833 C 0.46498 0.33465 0.02082 0.0
O834 O 0.44994 0.34039 0.01739 0.0
N835 N 0.45234 0.33535 0.98427 0.0
C836 C 0.43993 0.34371 0.97646 0.0
C837 C 0.4262 0.33323 0.97518 0.0
C838 C 0.44606 0.32004 0.98752 0.0
N839 N 0.43022 0.31827 0.98199 0.0
C840 C 0.47341 0.37386 0.97302 0.0
C841 C 0.47595 0.38964 0.00357 0.0
C842 C 0.481 0.39837 0.98911 0.0
C843 C 0.47834 0.3906 0.97361 0.0
C844 C 0.4713 0.37275 0.00244 0.0
N845 N 0.47158 0.36466 0.98735 0.0
H846 H 0.47298 0.36798 0.96091 0.0
H847 H 0.46953 0.36604 0.01395 0.0
H848 H 0.44114 0.35604 0.97099 0.0
H849 H 0.45334 0.31011 0.99319 0.0
O850 O 0.47644 0.33902 0.96088 0.0
O851 O 0.48077 0.31779 0.97806 0.0
O852 O 0.47681 0.33595 0.01008 0.0
C853 C 0.47919 0.3231 0.96275 0.0
H854 H 0.53402 0.36058 0.0022 0.0
H855 H 0.41465 0.33601 0.96865 0.0
H856 H 0.47703 0.3953 0.01585 0.0
H857 H 0.48172 0.39667 0.96197 0.0
Co858 Co 0.10504 0.22725 0.24038 0.0
C859 C 0.11239 0.26313 0.2435 0.0
C860 C 0.0884 0.25917 0.23214 0.0
C861 C 0.09158 0.27608 0.23245 0.0
N862 N 0.10142 0.25111 0.23918 0.0
N863 N 0.10678 0.27861 0.23944 0.0
H864 H 0.12469 0.26036 0.24845 0.0
H865 H 0.07763 0.25319 0.22654 0.0
C866 C 0.12389 0.22369 0.27118 0.0
O867 O 0.13406 0.21493 0.26169 0.0
N868 N 0.10858 0.20313 0.24162 0.0
C869 C 0.10058 0.19233 0.25187 0.0
C870 C 0.10865 0.17705 0.25131 0.0
C871 C 0.12133 0.1942 0.23494 0.0
N872 N 0.12182 0.17837 0.24082 0.0
C873 C 0.07216 0.21691 0.23199 0.0
C874 C 0.05622 0.23559 0.25644 0.0
C875 C 0.04703 0.23018 0.24247 0.0
C876 C 0.05498 0.21987 0.23069 0.0
C877 C 0.07345 0.23246 0.2572 0.0
N878 N 0.08129 0.22418 0.24445 0.0
H879 H 0.07842 0.21014 0.22208 0.0
H880 H 0.08067 0.23837 0.26698 0.0
H881 H 0.09027 0.19558 0.26003 0.0
H882 H 0.13077 0.19934 0.22673 0.0
O883 O 0.10498 0.22636 0.21606 0.0
O884 O 0.1274 0.23055 0.23182 0.0
O885 O 0.11034 0.22956 0.26499 0.0
C886 C 0.121 0.22928 0.21691 0.0
H887 H 0.08353 0.28563 0.22721 0.0
H888 H 0.10578 0.16621 0.25894 0.0
H889 H 0.05057 0.24366 0.26577 0.0
H890 H 0.04826 0.21526 0.21985 0.0
Co891 Co 0.2237 0.85882 0.48538 0.0
C892 C 0.18715 0.85918 0.4775 0.0
C893 C 0.19191 0.85049 0.50238 0.0
C894 C 0.17491 0.85181 0.50029 0.0
N895 N 0.19971 0.85512 0.48809 0.0
N896 N 0.17191 0.8575 0.48469 0.0
H897 H 0.18901 0.86458 0.46524 0.0
H898 H 0.198 0.84749 0.51406 0.0
C899 C 0.23758 0.86201 0.52026 0.0
O900 O 0.25128 0.8541 0.51572 0.0
N901 N 0.24755 0.86307 0.48298 0.0
C902 C 0.26002 0.85318 0.47727 0.0
C903 C 0.27472 0.86221 0.47728 0.0
C904 C 0.2549 0.87791 0.48636 0.0
N905 N 0.27147 0.87779 0.48297 0.0
C906 C 0.22947 0.82621 0.4727 0.0
C907 C 0.21846 0.80889 0.50052 0.0
C908 C 0.21875 0.80073 0.48494 0.0
C909 C 0.22572 0.80926 0.4713 0.0
C910 C 0.223 0.82587 0.50154 0.0
N911 N 0.22712 0.83464 0.4874 0.0
H912 H 0.23313 0.83277 0.46148 0.0
H913 H 0.22159 0.83214 0.51339 0.0
H914 H 0.25883 0.84036 0.47329 0.0
H915 H 0.24819 0.88854 0.49142 0.0
O916 O 0.2214 0.86008 0.46128 0.0
O917 O 0.2194 0.88176 0.47835 0.0
O918 O 0.22527 0.86338 0.51016 0.0
C919 C 0.21942 0.87612 0.46306 0.0
H920 H 0.16556 0.8498 0.5099 0.0
H921 H 0.28678 0.85771 0.47303 0.0
H922 H 0.21342 0.80274 0.51151 0.0
H923 H 0.22687 0.80331 0.45917 0.0
Co924 Co 0.59214 0.2274 0.95901 0.0
C925 C 0.58648 0.26281 0.95157 0.0
C926 C 0.61004 0.25933 0.96398 0.0
C927 C 0.6073 0.27623 0.96208 0.0
N928 N 0.59696 0.25097 0.95738 0.0
N929 N 0.59242 0.27838 0.95438 0.0
H930 H 0.5741 0.26008 0.94678 0.0
H931 H 0.62033 0.25372 0.97072 0.0
C932 C 0.58509 0.21531 0.92418 0.0
O933 O 0.59323 0.20141 0.92754 0.0
N934 N 0.58682 0.20382 0.96076 0.0
C935 C 0.59629 0.19068 0.96557 0.0
C936 C 0.5863 0.17657 0.96603 0.0
C937 C 0.57134 0.19754 0.95841 0.0
N938 N 0.57061 0.18097 0.96152 0.0
C939 C 0.62591 0.22028 0.96756 0.0
C940 C 0.63949 0.23145 0.93787 0.0
C941 C 0.6495 0.23199 0.95238 0.0
C942 C 0.64274 0.22498 0.96707 0.0
C943 C 0.6225 0.22742 0.93911 0.0
N944 N 0.61566 0.2229 0.95412 0.0
H945 H 0.6207 0.2166 0.97949 0.0
H946 H 0.61475 0.2298 0.92834 0.0
H947 H 0.6094 0.19113 0.96874 0.0
H948 H 0.5607 0.20516 0.95493 0.0
O949 O 0.5932 0.22882 0.98333 0.0
O950 O 0.57036 0.23258 0.96817 0.0
O951 O 0.58504 0.22738 0.93469 0.0
C952 C 0.5772 0.23191 0.9829 0.0
H953 H 0.61511 0.28615 0.96699 0.0
H954 H 0.5903 0.1641 0.96952 0.0
H955 H 0.64419 0.23563 0.92587 0.0
H956 H 0.64963 0.22473 0.9787 0.0
Co957 Co 0.23155 0.34137 0.214 0.0
C958 C 0.19732 0.33962 0.22877 0.0
C959 C 0.19665 0.34567 0.20268 0.0
C960 C 0.18057 0.34299 0.20808 0.0
N961 N 0.20728 0.34338 0.21559 0.0
N962 N 0.18097 0.33889 0.22447 0.0
H963 H 0.20191 0.33651 0.24108 0.0
H964 H 0.20022 0.34789 0.18983 0.0
C965 C 0.23927 0.33743 0.17713 0.0
O966 O 0.25372 0.34505 0.17899 0.0
N967 N 0.25574 0.33878 0.21238 0.0
C968 C 0.26826 0.34939 0.21641 0.0
C969 C 0.28321 0.34068 0.21624 0.0
C970 C 0.26334 0.32394 0.2096 0.0
N971 N 0.28003 0.3246 0.21217 0.0
C972 C 0.23643 0.37456 0.2252 0.0
C973 C 0.21804 0.38957 0.20007 0.0
C974 C 0.21966 0.39775 0.21554 0.0
C975 C 0.23009 0.39062 0.22765 0.0
C976 C 0.22486 0.37347 0.19803 0.0
N977 N 0.23269 0.36563 0.2111 0.0
H978 H 0.24288 0.36874 0.23554 0.0
H979 H 0.22208 0.36675 0.18666 0.0
H980 H 0.26683 0.36235 0.2199 0.0
H981 H 0.2566 0.3127 0.20623 0.0
O982 O 0.23341 0.34058 0.23815 0.0
O983 O 0.23005 0.31842 0.22188 0.0
O984 O 0.22904 0.3363 0.18936 0.0
C985 C 0.23201 0.32442 0.23689 0.0
H986 H 0.16967 0.34245 0.20006 0.0
H987 H 0.29532 0.34562 0.2198 0.0
H988 H 0.21018 0.39475 0.19031 0.0
H989 H 0.23195 0.3967 0.23963 0.0
Co990 Co 0.10727 0.97458 0.46651 0.0
C991 C 0.10465 0.93811 0.47409 0.0
C992 C 0.09708 0.94359 0.44902 0.0
C993 C 0.0978 0.92651 0.45086 0.0
N994 N 0.10141 0.95101 0.46359 0.0
N995 N 0.10286 0.92306 0.46656 0.0
H996 H 0.10992 0.93953 0.48645 0.0
H997 H 0.09518 0.94988 0.43723 0.0
C998 C 0.11409 0.98773 0.43194 0.0
O999 O 0.10673 0.00188 0.43598 0.0
N1000 N 0.11393 0.99782 0.46911 0.0
C1001 C 0.10579 0.01134 0.47518 0.0
C1002 C 0.11694 0.02451 0.4762 0.0
C1003 C 0.12977 0.00304 0.46648 0.0
N1004 N 0.13206 0.01918 0.47083 0.0
C1005 C 0.07457 0.98432 0.47626 0.0
C1006 C 0.05856 0.97355 0.44766 0.0
C1007 C 0.04931 0.97495 0.4626 0.0
C1008 C 0.05731 0.98199 0.47651 0.0
C1009 C 0.07584 0.97681 0.44774 0.0
N1010 N 0.08387 0.98058 0.46238 0.0
H1011 H 0.08053 0.98773 0.48788 0.0
H1012 H 0.0828 0.97461 0.43641 0.0
H1013 H 0.09286 0.0118 0.47899 0.0
H1014 H 0.13949 0.99498 0.46157 0.0
O1015 O 0.10588 0.97247 0.49057 0.0
O1016 O 0.12892 0.96816 0.47582 0.0
O1017 O 0.11413 0.97542 0.44216 0.0
C1018 C 0.12176 0.96909 0.49046 0.0
H1019 H 0.09623 0.91742 0.44093 0.0
H1020 H 0.11423 0.03684 0.48113 0.0
H1021 H 0.05295 0.96851 0.4364 0.0
H1022 H 0.0506 0.98416 0.4881 0.0
Co1023 Co 0.47492 0.85942 0.71318 0.0
C1024 C 0.51142 0.859 0.72096 0.0
C1025 C 0.50631 0.84918 0.69657 0.0
C1026 C 0.52335 0.85033 0.69846 0.0
N1027 N 0.49871 0.85465 0.71068 0.0
N1028 N 0.52655 0.8567 0.71373 0.0
H1029 H 0.50977 0.86517 0.73289 0.0
H1030 H 0.5001 0.84589 0.68505 0.0
C1031 C 0.46135 0.86306 0.67824 0.0
O1032 O 0.44728 0.85585 0.68282 0.0
N1033 N 0.45131 0.86482 0.71542 0.0
C1034 C 0.43876 0.85666 0.72329 0.0
C1035 C 0.42519 0.86732 0.72461 0.0
C1036 C 0.4451 0.88014 0.71198 0.0
N1037 N 0.42934 0.88216 0.71767 0.0
C1038 C 0.46812 0.82709 0.72621 0.0
C1039 C 0.47833 0.80944 0.69832 0.0
C1040 C 0.47829 0.80135 0.71397 0.0
C1041 C 0.47164 0.81008 0.72766 0.0
C1042 C 0.47402 0.82645 0.69728 0.0
N1043 N 0.47044 0.83541 0.71143 0.0
H1044 H 0.4649 0.83379 0.73748 0.0
H1045 H 0.47531 0.83261 0.68534 0.0
H1046 H 0.43947 0.84425 0.72853 0.0
H1047 H 0.45236 0.88989 0.70599 0.0
O1048 O 0.47708 0.86098 0.73732 0.0
O1049 O 0.48005 0.88224 0.71984 0.0
O1050 O 0.47372 0.86379 0.68834 0.0
C1051 C 0.47944 0.87694 0.73524 0.0
H1052 H 0.5326 0.84789 0.68885 0.0
H1053 H 0.4136 0.86468 0.73114 0.0
H1054 H 0.48306 0.80321 0.68724 0.0
H1055 H 0.47056 0.80422 0.73985 0.0
Co1056 Co 0.73194 0.59445 0.9765 0.0
C1057 C 0.73447 0.58904 0.94042 0.0
C1058 C 0.71765 0.60928 0.94596 0.0
C1059 C 0.7167 0.60583 0.92908 0.0
N1060 N 0.72873 0.59864 0.953 0.0
N1061 N 0.72737 0.59321 0.92571 0.0
H1062 H 0.7424 0.57818 0.94223 0.0
H1063 H 0.70983 0.61799 0.95276 0.0
C1064 C 0.76839 0.58469 0.98084 0.0
O1065 O 0.76857 0.5908 0.99611 0.0
N1066 N 0.73477 0.58983 1.00009 0.0
C1067 C 0.73125 0.59952 0.01346 0.0
C1068 C 0.73189 0.58968 0.02771 0.0
C1069 C 0.7374 0.57438 0.00633 0.0
N1070 N 0.73575 0.57386 0.02313 0.0
C1071 C 0.72577 0.62902 0.98213 0.0
C1072 C 0.75521 0.64045 0.96831 0.0
C1073 C 0.74128 0.65131 0.96831 0.0
C1074 C 0.72677 0.64558 0.97654 0.0
C1075 C 0.75336 0.62372 0.97316 0.0
N1076 N 0.73838 0.61791 0.97903 0.0
H1077 H 0.71398 0.62476 0.98717 0.0
H1078 H 0.76365 0.61542 0.9707 0.0
H1079 H 0.72764 0.61254 0.01293 0.0
H1080 H 0.73953 0.56351 0.99854 0.0
O1081 O 0.70791 0.59636 0.98004 0.0
O1082 O 0.72127 0.57292 0.97386 0.0
O1083 O 0.75551 0.58649 0.9715 0.0
C1084 C 0.70717 0.58038 0.97705 0.0
H1085 H 0.70807 0.61136 0.9202 0.0
H1086 H 0.7292 0.59376 0.04035 0.0
H1087 H 0.76725 0.64424 0.96343 0.0
H1088 H 0.71556 0.65307 0.9775 0.0
Co1089 Co 0.86423 0.486 0.2299 0.0
C1090 C 0.86293 0.48558 0.19285 0.0
C1091 C 0.87752 0.50599 0.20244 0.0
C1092 C 0.87864 0.50611 0.18534 0.0
N1093 N 0.86761 0.49322 0.20715 0.0
N1094 N 0.8696 0.49319 0.17923 0.0
H1095 H 0.85569 0.47413 0.19254 0.0
H1096 H 0.88464 0.51381 0.21083 0.0
C1097 C 0.87835 0.5148 0.24737 0.0
O1098 O 0.88703 0.50355 0.25563 0.0
N1099 N 0.86103 0.47904 0.25308 0.0
C1100 C 0.84945 0.48479 0.26396 0.0
C1101 C 0.85422 0.48044 0.28002 0.0
C1102 C 0.87245 0.47111 0.26271 0.0
N1103 N 0.86887 0.47201 0.27922 0.0
C1104 C 0.83092 0.47422 0.22667 0.0
C1105 C 0.81704 0.50396 0.21577 0.0
C1106 C 0.80781 0.48906 0.21363 0.0
C1107 C 0.81483 0.47416 0.21988 0.0
C1108 C 0.83337 0.50335 0.2221 0.0
N1109 N 0.84027 0.48848 0.2269 0.0
H1110 H 0.83635 0.46248 0.23066 0.0
H1111 H 0.84075 0.51468 0.22211 0.0
H1112 H 0.83906 0.49282 0.26066 0.0
H1113 H 0.88425 0.46658 0.258 0.0
O1114 O 0.86632 0.46285 0.22305 0.0
O1115 O 0.88754 0.47901 0.23047 0.0
O1116 O 0.86697 0.50998 0.23724 0.0
C1117 C 0.88233 0.46441 0.22534 0.0
H1118 H 0.88691 0.51407 0.17813 0.0
H1119 H 0.84798 0.48433 0.2914 0.0
H1120 H 0.81212 0.51595 0.21183 0.0
H1121 H 0.80858 0.46223 0.21857 0.0
Co1122 Co 0.96544 0.60831 0.48149 0.0
C1123 C 0.97327 0.60755 0.44478 0.0
C1124 C 0.94754 0.60206 0.4499 0.0
C1125 C 0.94963 0.60288 0.43291 0.0
N1126 N 0.96235 0.60497 0.4575 0.0
N1127 N 0.96576 0.60657 0.42961 0.0
H1128 H 0.98622 0.611 0.44652 0.0
H1129 H 0.93561 0.6007 0.45608 0.0
C1130 C 0.93046 0.61346 0.49484 0.0
O1131 O 0.93417 0.60472 0.50828 0.0
N1132 N 0.96818 0.61227 0.50537 0.0
C1133 C 0.97354 0.60208 0.51774 0.0
C1134 C 0.97503 0.6113 0.53228 0.0
C1135 C 0.9664 0.62743 0.51264 0.0
N1136 N 0.97064 0.6273 0.52901 0.0
C1137 C 0.97517 0.57468 0.4866 0.0
C1138 C 0.94644 0.56053 0.47367 0.0
C1139 C 0.96147 0.55151 0.47306 0.0
C1140 C 0.97559 0.55825 0.48081 0.0
C1141 C 0.94649 0.57699 0.47989 0.0
N1142 N 0.96118 0.58438 0.48475 0.0
H1143 H 0.9868 0.58006 0.49083 0.0
H1144 H 0.93514 0.58418 0.47886 0.0
H1145 H 0.97651 0.58897 0.5165 0.0
H1146 H 0.96218 0.63839 0.5059 0.0
O1147 O 0.98948 0.6071 0.47904 0.0
O1148 O 0.9748 0.63048 0.47726 0.0
O1149 O 0.9412 0.61517 0.48312 0.0
C1150 C 0.98941 0.62321 0.47707 0.0
H1151 H 0.93959 0.60249 0.42381 0.0
H1152 H 0.97959 0.60665 0.54416 0.0
H1153 H 0.93522 0.55563 0.46784 0.0
H1154 H 0.9874 0.55156 0.4807 0.0
Co1155 Co 0.84213 0.71947 0.72229 0.0
C1156 C 0.84482 0.72977 0.68643 0.0
C1157 C 0.85235 0.70434 0.69021 0.0
C1158 C 0.85232 0.70754 0.67337 0.0
N1159 N 0.84752 0.71823 0.69852 0.0
N1160 N 0.84725 0.72347 0.67085 0.0
H1161 H 0.84014 0.74219 0.68888 0.0
H1162 H 0.85454 0.6922 0.69572 0.0
C1163 C 0.83631 0.68368 0.73376 0.0
O1164 O 0.84041 0.68725 0.74926 0.0
N1165 N 0.83649 0.72059 0.74596 0.0
C1166 C 0.84621 0.72379 0.75943 0.0
C1167 C 0.83628 0.72387 0.77359 0.0
C1168 C 0.8209 0.71869 0.75219 0.0
N1169 N 0.82038 0.72062 0.76895 0.0
C1170 C 0.87364 0.73304 0.73032 0.0
C1171 C 0.89188 0.70751 0.71578 0.0
C1172 C 0.89864 0.72371 0.71627 0.0
C1173 C 0.88995 0.73612 0.72505 0.0
C1174 C 0.87549 0.70485 0.72164 0.0
N1175 N 0.86604 0.71807 0.72705 0.0
H1176 H 0.86651 0.74342 0.73524 0.0
H1177 H 0.86985 0.69273 0.71977 0.0
H1178 H 0.85956 0.72574 0.75929 0.0
H1179 H 0.81005 0.71605 0.74454 0.0
O1180 O 0.84005 0.74363 0.72115 0.0
O1181 O 0.81931 0.72587 0.71674 0.0
O1182 O 0.83829 0.69443 0.72207 0.0
C1183 C 0.82427 0.74133 0.71791 0.0
H1184 H 0.85412 0.69816 0.66376 0.0
H1185 H 0.84049 0.72594 0.7863 0.0
H1186 H 0.89835 0.69752 0.70926 0.0
H1187 H 0.89492 0.74871 0.72596 0.0
Co1188 Co 0.72637 0.60699 0.72698 0.0
C1189 C 0.72723 0.61474 0.76301 0.0
C1190 C 0.71291 0.59256 0.75796 0.0
C1191 C 0.71155 0.59618 0.77473 0.0
N1192 N 0.7227 0.60423 0.75065 0.0
N1193 N 0.72059 0.61007 0.77783 0.0
H1194 H 0.73424 0.62618 0.76101 0.0
H1195 H 0.70643 0.58265 0.75142 0.0
C1196 C 0.76251 0.61748 0.72283 0.0
O1197 O 0.76331 0.60906 0.70872 0.0
N1198 N 0.72964 0.61007 0.70313 0.0
C1199 C 0.72709 0.59924 0.69045 0.0
C1200 C 0.72763 0.60798 0.67553 0.0
C1201 C 0.73166 0.62514 0.69576 0.0
N1202 N 0.73036 0.62433 0.67891 0.0
C1203 C 0.72325 0.57178 0.72282 0.0
C1204 C 0.75144 0.5634 0.74079 0.0
C1205 C 0.73841 0.55154 0.7398 0.0
C1206 C 0.72466 0.5557 0.7296 0.0
C1207 C 0.74909 0.57963 0.73463 0.0
N1208 N 0.73466 0.58396 0.72652 0.0
H1209 H 0.71181 0.57488 0.71634 0.0
H1210 H 0.75826 0.58887 0.73802 0.0
H1211 H 0.72419 0.58612 0.6918 0.0
H1212 H 0.73353 0.63655 0.7028 0.0
O1213 O 0.70275 0.6027 0.72319 0.0
O1214 O 0.71384 0.62776 0.72748 0.0
O1215 O 0.7492 0.61702 0.73177 0.0
C1216 C 0.70058 0.61874 0.72474 0.0
H1217 H 0.70394 0.58959 0.78382 0.0
H1218 H 0.72524 0.60277 0.66326 0.0
H1219 H 0.76295 0.56081 0.74741 0.0
H1220 H 0.71416 0.54735 0.72793 0.0
Co1221 Co 0.84207 0.47662 0.97079 0.0
C1222 C 0.83461 0.46787 0.00629 0.0
C1223 C 0.85589 0.48404 0.00422 0.0
C1224 C 0.85244 0.4817 0.02092 0.0
N1225 N 0.84475 0.47531 0.99496 0.0
N1226 N 0.83902 0.47157 0.02217 0.0
H1227 H 0.82346 0.46091 0.00313 0.0
H1228 H 0.86533 0.49236 0.99929 0.0
C1229 C 0.83583 0.5135 0.96344 0.0
O1230 O 0.8394 0.51161 0.9475 0.0
N1231 N 0.83923 0.47783 0.94676 0.0
C1232 C 0.84936 0.4716 0.93476 0.0
C1233 C 0.84049 0.47076 0.91992 0.0
C1234 C 0.82444 0.48057 0.93911 0.0
N1235 N 0.82474 0.47623 0.92279 0.0
C1236 C 0.87523 0.46452 0.97278 0.0
C1237 C 0.89153 0.49491 0.97084 0.0
C1238 C 0.90025 0.48093 0.97717 0.0
C1239 C 0.89207 0.46542 0.97705 0.0
C1240 C 0.87453 0.49344 0.96661 0.0
N1241 N 0.86634 0.47857 0.96876 0.0
H1242 H 0.86902 0.45267 0.97448 0.0
H1243 H 0.86785 0.50455 0.96296 0.0
H1244 H 0.86184 0.46679 0.93688 0.0
H1245 H 0.81344 0.48502 0.94564 0.0
O1246 O 0.84013 0.45247 0.9691 0.0
O1247 O 0.81886 0.46981 0.97281 0.0
O1248 O 0.83818 0.50152 0.97383 0.0
C1249 C 0.82408 0.4545 0.97077 0.0
H1250 H 0.85881 0.48763 0.0313 0.0
H1251 H 0.84492 0.46536 0.9083 0.0
H1252 H 0.89744 0.5071 0.97025 0.0
H1253 H 0.89801 0.45423 0.98187 0.0
Co1254 Co 0.96968 0.59254 0.21714 0.0
C1255 C 0.96658 0.58781 0.25326 0.0
C1256 C 0.98603 0.6055 0.24765 0.0
C1257 C 0.98574 0.60285 0.26473 0.0
N1258 N 0.97403 0.59597 0.24058 0.0
N1259 N 0.9734 0.59184 0.26813 0.0
H1260 H 0.95717 0.57822 0.25157 0.0
H1261 H 0.9948 0.61325 0.24083 0.0
C1262 C 0.93204 0.58934 0.21439 0.0
O1263 O 0.93205 0.59684 0.19975 0.0
N1264 N 0.96534 0.5886 0.19348 0.0
C1265 C 0.96477 0.59943 0.18052 0.0
C1266 C 0.96315 0.59046 0.16584 0.0
C1267 C 0.96381 0.5733 0.18644 0.0
N1268 N 0.96269 0.57397 0.16959 0.0
C1269 C 0.97965 0.62556 0.20902 0.0
C1270 C 0.95706 0.64072 0.23045 0.0
C1271 C 0.97191 0.64909 0.22635 0.0
C1272 C 0.98273 0.64182 0.21464 0.0
C1273 C 0.95457 0.62435 0.22476 0.0
N1274 N 0.96641 0.61658 0.2151 0.0
H1275 H 0.98905 0.61951 0.20139 0.0
H1276 H 0.94434 0.61736 0.23012 0.0
H1277 H 0.96565 0.61288 0.18143 0.0
H1278 H 0.96425 0.56179 0.19352 0.0
O1279 O 0.99365 0.59132 0.21292 0.0
O1280 O 0.97744 0.56983 0.21949 0.0
O1281 O 0.94556 0.58789 0.22276 0.0
C1282 C 0.9923 0.57535 0.21589 0.0
H1283 H 0.9943 0.60806 0.27385 0.0
H1284 H 0.96263 0.59575 0.15337 0.0
H1285 H 0.94852 0.64589 0.23965 0.0
H1286 H 0.99435 0.64794 0.21122 0.0
Co1287 Co 0.86381 0.71976 0.47615 0.0
C1288 C 0.86252 0.72435 0.51337 0.0
C1289 C 0.87842 0.70415 0.50559 0.0
C1290 C 0.87914 0.70528 0.52265 0.0
N1291 N 0.86747 0.7156 0.49974 0.0
N1292 N 0.86917 0.71795 0.52754 0.0
H1293 H 0.85532 0.73579 0.51298 0.0
H1294 H 0.88613 0.69611 0.49789 0.0
C1295 C 0.86063 0.68226 0.48038 0.0
O1296 O 0.85081 0.6844 0.49344 0.0
N1297 N 0.86117 0.72356 0.45252 0.0
C1298 C 0.85358 0.73646 0.44474 0.0
C1299 C 0.86032 0.738 0.42883 0.0
C1300 C 0.87211 0.71735 0.44132 0.0
N1301 N 0.87222 0.72613 0.4269 0.0
C1302 C 0.83308 0.73426 0.48654 0.0
C1303 C 0.81168 0.70841 0.47839 0.0
C1304 C 0.80528 0.72256 0.48669 0.0
C1305 C 0.81619 0.73569 0.49033 0.0
C1306 C 0.82885 0.70768 0.47434 0.0
N1307 N 0.8395 0.72014 0.47931 0.0
H1308 H 0.84097 0.74463 0.48988 0.0
H1309 H 0.83345 0.69704 0.4674 0.0
H1310 H 0.84523 0.74526 0.45079 0.0
H1311 H 0.88123 0.70782 0.44447 0.0
O1312 O 0.868 0.74328 0.47949 0.0
O1313 O 0.88768 0.7247 0.47388 0.0
O1314 O 0.86503 0.69485 0.47149 0.0
C1315 C 0.88371 0.74023 0.47689 0.0
H1316 H 0.88763 0.69845 0.53073 0.0
H1317 H 0.85803 0.74818 0.42017 0.0
H1318 H 0.80353 0.69809 0.47509 0.0
H1319 H 0.81186 0.74683 0.49677 0.0
Co1320 Co 0.98031 0.73753 0.59381 0.0
C1321 C 0.94493 0.74467 0.58775 0.0
C1322 C 0.94785 0.72981 0.60994 0.0
C1323 C 0.93104 0.7328 0.60751 0.0
N1324 N 0.95648 0.73732 0.59754 0.0
N1325 N 0.92922 0.74211 0.59349 0.0
H1326 H 0.94799 0.75093 0.57612 0.0
H1327 H 0.95327 0.72232 0.61982 0.0
C1328 C 0.98905 0.77383 0.58605 0.0
O1329 O 0.00483 0.77165 0.59007 0.0
N1330 N 0.00436 0.73771 0.58983 0.0
C1331 C 0.01716 0.73731 0.60088 0.0
C1332 C 0.03207 0.73717 0.59215 0.0
C1333 C 0.01175 0.73788 0.57461 0.0
N1334 N 0.02862 0.73754 0.57563 0.0
C1335 C 0.98697 0.72744 0.62721 0.0
C1336 C 0.97176 0.75474 0.64196 0.0
C1337 C 0.97295 0.73973 0.65111 0.0
C1338 C 0.98184 0.7264 0.6439 0.0
C1339 C 0.97683 0.75517 0.6252 0.0
N1340 N 0.98326 0.74119 0.61773 0.0
H1341 H 0.99228 0.71643 0.62143 0.0
H1342 H 0.97375 0.76612 0.61791 0.0
H1343 H 0.016 0.73732 0.61434 0.0
H1344 H 0.00488 0.73806 0.56296 0.0
O1345 O 0.9805 0.71314 0.59336 0.0
O1346 O 0.97665 0.72946 0.57132 0.0
O1347 O 0.97836 0.76215 0.58831 0.0
C1348 C 0.97782 0.71439 0.57733 0.0
H1349 H 0.92096 0.72792 0.61514 0.0
H1350 H 0.04447 0.73699 0.5976 0.0
H1351 H 0.96554 0.76561 0.64718 0.0
H1352 H 0.98327 0.71457 0.65038 0.0
Co1353 Co 0.47165 0.96911 0.60534 0.0
C1354 C 0.43592 0.98009 0.6043 0.0
C1355 C 0.43885 0.95463 0.59664 0.0
C1356 C 0.4221 0.95787 0.59841 0.0
N1357 N 0.44771 0.96853 0.60035 0.0
N1358 N 0.42019 0.97381 0.6036 0.0
H1359 H 0.43874 0.99246 0.60891 0.0
H1360 H 0.44398 0.9423 0.59472 0.0
C1361 C 0.48161 0.93346 0.61106 0.0
O1362 O 0.49522 0.93633 0.60226 0.0
N1363 N 0.49524 0.9693 0.6113 0.0
C1364 C 0.50924 0.97246 0.60238 0.0
C1365 C 0.52289 0.97122 0.61296 0.0
C1366 C 0.50061 0.96619 0.62701 0.0
N1367 N 0.51739 0.96727 0.62848 0.0
C1368 C 0.48129 0.97732 0.57214 0.0
C1369 C 0.46735 0.94966 0.55691 0.0
C1370 C 0.46997 0.96422 0.54737 0.0
C1371 C 0.47837 0.97759 0.55495 0.0
C1372 C 0.47091 0.94976 0.5741 0.0
N1373 N 0.47641 0.96404 0.58179 0.0
H1374 H 0.48621 0.98854 0.57782 0.0
H1375 H 0.46767 0.93882 0.58126 0.0
H1376 H 0.50978 0.97535 0.58921 0.0
H1377 H 0.4922 0.9634 0.63725 0.0
O1378 O 0.47201 0.99321 0.6035 0.0
O1379 O 0.4669 0.97946 0.62697 0.0
O1380 O 0.47044 0.94484 0.61253 0.0
C1381 C 0.46912 0.99379 0.61946 0.0
H1382 H 0.4123 0.94852 0.59799 0.0
H1383 H 0.53584 0.97303 0.60939 0.0
H1384 H 0.46115 0.93885 0.55158 0.0
H1385 H 0.48132 0.98884 0.54796 0.0
Co1386 Co 0.47597 0.22459 0.85745 0.0
C1387 C 0.48294 0.18867 0.86227 0.0
C1388 C 0.46732 0.19289 0.84085 0.0
C1389 C 0.4698 0.17597 0.84255 0.0
N1390 N 0.47568 0.20083 0.85313 0.0
N1391 N 0.47954 0.17321 0.85613 0.0
H1392 H 0.4899 0.19123 0.87358 0.0
H1393 H 0.45957 0.19889 0.83153 0.0
C1394 C 0.51208 0.23467 0.85928 0.0
O1395 O 0.50856 0.24828 0.85076 0.0
N1396 N 0.4761 0.24858 0.86208 0.0
C1397 C 0.4745 0.26165 0.85147 0.0
C1398 C 0.47503 0.27631 0.86051 0.0
C1399 C 0.47764 0.25561 0.87741 0.0
N1400 N 0.47691 0.27252 0.87688 0.0
C1401 C 0.46409 0.23271 0.82485 0.0
C1402 C 0.49025 0.21782 0.80775 0.0
C1403 C 0.47517 0.22086 0.79927 0.0
C1404 C 0.46232 0.2292 0.80781 0.0
C1405 C 0.49147 0.22142 0.82486 0.0
N1406 N 0.4782 0.22811 0.83338 0.0
H1407 H 0.45347 0.23781 0.83152 0.0
H1408 H 0.50237 0.21697 0.83147 0.0
H1409 H 0.47341 0.26091 0.83804 0.0
H1410 H 0.47901 0.24841 0.88878 0.0
O1411 O 0.45165 0.22441 0.85936 0.0
O1412 O 0.46934 0.22037 0.88029 0.0
O1413 O 0.50091 0.22344 0.86152 0.0
C1414 C 0.45392 0.22154 0.87526 0.0
H1415 H 0.46423 0.16653 0.83463 0.0
H1416 H 0.47425 0.28878 0.85528 0.0
H1417 H 0.50039 0.21116 0.80167 0.0
H1418 H 0.45051 0.23185 0.80169 0.0
Co1419 Co 0.21507 0.23186 0.11083 0.0
C1420 C 0.24951 0.21778 0.11228 0.0
C1421 C 0.24951 0.24344 0.1045 0.0
C1422 C 0.26579 0.23838 0.10665 0.0
N1423 N 0.23922 0.2306 0.10826 0.0
N1424 N 0.26581 0.22227 0.1118 0.0
H1425 H 0.24522 0.20564 0.11635 0.0
H1426 H 0.24561 0.25604 0.10151 0.0
C1427 C 0.20673 0.26875 0.1133 0.0
O1428 O 0.1922 0.26627 0.10602 0.0
N1429 N 0.19099 0.23311 0.11379 0.0
C1430 C 0.17859 0.22681 0.10423 0.0
C1431 C 0.16387 0.22712 0.11334 0.0
C1432 C 0.18362 0.23725 0.12841 0.0
N1433 N 0.16715 0.23349 0.12865 0.0
C1434 C 0.21068 0.21907 0.07802 0.0
C1435 C 0.22509 0.24577 0.06142 0.0
C1436 C 0.22441 0.23014 0.05344 0.0
C1437 C 0.21609 0.21703 0.06154 0.0
C1438 C 0.21944 0.24731 0.078 0.0
N1439 N 0.21338 0.23369 0.08648 0.0
H1440 H 0.2057 0.20825 0.08437 0.0
H1441 H 0.22164 0.259 0.08434 0.0
H1442 H 0.1801 0.2214 0.09195 0.0
H1443 H 0.19048 0.24224 0.13896 0.0
O1444 O 0.21366 0.20768 0.11303 0.0
O1445 O 0.21715 0.22524 0.13412 0.0
O1446 O 0.21724 0.25677 0.11476 0.0
C1447 C 0.21532 0.20988 0.12908 0.0
H1448 H 0.2766 0.24651 0.10599 0.0
H1449 H 0.152 0.22194 0.10939 0.0
H1450 H 0.2314 0.25625 0.05556 0.0
H1451 H 0.21502 0.20484 0.05569 0.0
Co1452 Co 0.71388 0.46989 0.85949 0.0
C1453 C 0.71014 0.50595 0.86547 0.0
C1454 C 0.72684 0.50105 0.84494 0.0
C1455 C 0.72691 0.51798 0.84809 0.0
N1456 N 0.71636 0.49358 0.85588 0.0
N1457 N 0.71641 0.52098 0.86098 0.0
H1458 H 0.70227 0.50385 0.87632 0.0
H1459 H 0.73464 0.49457 0.83597 0.0
C1460 C 0.67721 0.4632 0.86291 0.0
O1461 O 0.67919 0.44966 0.85377 0.0
N1462 N 0.71164 0.44599 0.86362 0.0
C1463 C 0.7143 0.4328 0.85339 0.0
C1464 C 0.71324 0.41827 0.86266 0.0
C1465 C 0.70882 0.43921 0.87887 0.0
N1466 N 0.70993 0.42233 0.87874 0.0
C1467 C 0.72332 0.4624 0.82604 0.0
C1468 C 0.6984 0.48139 0.81134 0.0
C1469 C 0.71296 0.47786 0.80222 0.0
C1470 C 0.72507 0.46747 0.80941 0.0
C1471 C 0.6972 0.47622 0.82806 0.0
N1472 N 0.71 0.46757 0.83549 0.0
H1473 H 0.73371 0.45596 0.83182 0.0
H1474 H 0.687 0.48113 0.83543 0.0
H1475 H 0.71718 0.43342 0.84023 0.0
H1476 H 0.70629 0.44659 0.88993 0.0
O1477 O 0.73811 0.46765 0.85978 0.0
O1478 O 0.72226 0.47265 0.88198 0.0
O1479 O 0.68943 0.47328 0.86504 0.0
C1480 C 0.73715 0.47031 0.87582 0.0
H1481 H 0.73472 0.52725 0.84201 0.0
H1482 H 0.71549 0.40575 0.858 0.0
H1483 H 0.68893 0.48967 0.80626 0.0
H1484 H 0.73657 0.46464 0.80276 0.0
Co1485 Co 0.72337 0.47063 0.09649 0.0
C1486 C 0.75923 0.47075 0.08995 0.0
C1487 C 0.75382 0.48463 0.11231 0.0
C1488 C 0.77075 0.48577 0.10906 0.0
N1489 N 0.74672 0.47516 0.10028 0.0
N1490 N 0.77407 0.47701 0.09499 0.0
H1491 H 0.75727 0.46399 0.07837 0.0
H1492 H 0.74712 0.49079 0.12233 0.0
C1493 C 0.72172 0.43357 0.0888 0.0
O1494 O 0.70711 0.43227 0.09626 0.0
N1495 N 0.69991 0.46614 0.09205 0.0
C1496 C 0.6865 0.4673 0.10224 0.0
C1497 C 0.6722 0.46507 0.09284 0.0
C1498 C 0.69354 0.46313 0.07668 0.0
N1499 N 0.67661 0.46254 0.0767 0.0
C1500 C 0.71568 0.47612 0.13077 0.0
C1501 C 0.73676 0.4514 0.14267 0.0
C1502 C 0.73261 0.46483 0.15313 0.0
C1503 C 0.72115 0.47674 0.14736 0.0
C1504 C 0.73123 0.45137 0.12605 0.0
N1505 N 0.7216 0.4642 0.11999 0.0
H1506 H 0.70834 0.48649 0.12614 0.0
H1507 H 0.73664 0.44222 0.11774 0.0
H1508 H 0.6868 0.47004 0.11545 0.0
H1509 H 0.70128 0.46169 0.06567 0.0
O1510 O 0.71854 0.4944 0.09847 0.0
O1511 O 0.72529 0.48138 0.07493 0.0
O1512 O 0.72963 0.44746 0.0888 0.0
C1513 C 0.72171 0.49532 0.08252 0.0
H1514 H 0.77978 0.49292 0.1162 0.0
H1515 H 0.65953 0.466 0.09755 0.0
H1516 H 0.7458 0.44209 0.14665 0.0
H1517 H 0.71772 0.48735 0.15511 0.0
Co1518 Co 0.48122 0.9743 0.84114 0.0
C1519 C 0.47565 0.01114 0.83832 0.0
C1520 C 0.49565 0.00532 0.85512 0.0
C1521 C 0.49447 0.02242 0.8538 0.0
N1522 N 0.48374 0.99815 0.84554 0.0
N1523 N 0.48196 0.02612 0.84309 0.0
H1524 H 0.46615 0.00972 0.82886 0.0
H1525 H 0.50535 0.99877 0.86182 0.0
C1526 C 0.5162 0.96099 0.83535 0.0
O1527 O 0.51202 0.94636 0.84159 0.0
N1528 N 0.4788 0.95065 0.8365 0.0
C1529 C 0.47182 0.93861 0.84603 0.0
C1530 C 0.47107 0.92403 0.83675 0.0
C1531 C 0.48196 0.94335 0.82159 0.0
N1532 N 0.47742 0.92707 0.82135 0.0
C1533 C 0.46917 0.97217 0.87449 0.0
C1534 C 0.49968 0.97353 0.89047 0.0
C1535 C 0.48527 0.97849 0.89934 0.0
C1536 C 0.46977 0.9765 0.89136 0.0
C1537 C 0.49852 0.96942 0.87341 0.0
N1538 N 0.48347 0.97023 0.86528 0.0
H1539 H 0.45704 0.97202 0.86864 0.0
H1540 H 0.51002 0.96758 0.86666 0.0
H1541 H 0.46711 0.94035 0.8586 0.0
H1542 H 0.48752 0.94995 0.81115 0.0
O1543 O 0.45707 0.9764 0.84004 0.0
O1544 O 0.47401 0.979 0.81834 0.0
O1545 O 0.50607 0.97339 0.83619 0.0
C1546 C 0.45874 0.97871 0.82406 0.0
H1547 H 0.50283 0.03132 0.85965 0.0
H1548 H 0.46567 0.9123 0.84088 0.0
H1549 H 0.51195 0.9741 0.8962 0.0
H1550 H 0.45814 0.97986 0.89744 0.0
Co1551 Co 0.22666 0.2321 0.34498 0.0
C1552 C 0.22012 0.19673 0.33943 0.0
C1553 C 0.23823 0.19983 0.35902 0.0
C1554 C 0.23594 0.18295 0.35627 0.0
N1555 N 0.22822 0.20835 0.34845 0.0
N1556 N 0.22455 0.18107 0.34391 0.0
H1557 H 0.21196 0.19977 0.32904 0.0
H1558 H 0.24699 0.20544 0.36766 0.0
C1559 C 0.18935 0.23935 0.34182 0.0
O1560 O 0.19118 0.25513 0.34604 0.0
N1561 N 0.22508 0.25601 0.34091 0.0
C1562 C 0.22907 0.26913 0.35079 0.0
C1563 C 0.22893 0.28353 0.34121 0.0
C1564 C 0.2223 0.26271 0.32566 0.0
N1565 N 0.22488 0.27938 0.32535 0.0
C1566 C 0.23988 0.23915 0.3771 0.0
C1567 C 0.21586 0.22106 0.39424 0.0
C1568 C 0.2317 0.22322 0.40146 0.0
C1569 C 0.24332 0.23344 0.39325 0.0
C1570 C 0.21291 0.227 0.37799 0.0
N1571 N 0.22536 0.23482 0.36919 0.0
H1572 H 0.24984 0.24522 0.37024 0.0
H1573 H 0.2015 0.22316 0.37187 0.0
H1574 H 0.23247 0.26848 0.36383 0.0
H1575 H 0.21883 0.25538 0.31483 0.0
O1576 O 0.25082 0.23314 0.34203 0.0
O1577 O 0.2325 0.22872 0.32174 0.0
O1578 O 0.20176 0.22928 0.34221 0.0
C1579 C 0.24804 0.23036 0.32622 0.0
H1580 H 0.2426 0.1729 0.36247 0.0
H1581 H 0.23245 0.29592 0.34544 0.0
H1582 H 0.20662 0.21309 0.40018 0.0
H1583 H 0.2557 0.23537 0.39845 0.0
H1584 H 0.21306 0.42747 0.1993 0.0
H1585 H 0.19975 0.39828 0.2428 0.0
H1586 H 0.1786 0.41881 0.25054 0.0
H1587 H 0.16212 0.44346 0.24367 0.0
H1588 H 0.17566 0.47386 0.20103 0.0
H1589 H 0.19841 0.45453 0.19432 0.0
C1590 C 0.20563 0.42577 0.21054 0.0
C1591 C 0.20801 0.4114 0.22047 0.0
C1592 C 0.19344 0.43777 0.21506 0.0
C1593 C 0.19832 0.40934 0.23505 0.0
C1594 C 0.18614 0.42103 0.23946 0.0
C1595 C 0.17031 0.44626 0.2332 0.0
C1596 C 0.1669 0.46008 0.22279 0.0
C1597 C 0.18341 0.43515 0.22944 0.0
C1598 C 0.17765 0.46315 0.20911 0.0
C1599 C 0.19072 0.45209 0.20525 0.0
H1600 H 0.98443 0.93043 0.4569 0.0
H1601 H 0.00128 0.91598 0.5063 0.0
H1602 H 0.02156 0.93853 0.5061 0.0
H1603 H 0.0382 0.95817 0.49002 0.0
H1604 H 0.0234 0.97177 0.4398 0.0
H1605 H 0.99911 0.95319 0.44201 0.0
C1606 C 0.9924 0.9323 0.46772 0.0
C1607 C 0.99142 0.92114 0.48144 0.0
C1608 C 0.00481 0.9448 0.46719 0.0
C1609 C 0.00151 0.92425 0.49555 0.0
C1610 C 0.01339 0.93705 0.49536 0.0
C1611 C 0.02942 0.95765 0.47969 0.0
C1612 C 0.0328 0.96639 0.4647 0.0
C1613 C 0.01568 0.94681 0.48095 0.0
C1614 C 0.02133 0.96504 0.4514 0.0
C1615 C 0.00739 0.95445 0.45268 0.0
H1616 H 0.52247 0.73554 0.71175 0.0
H1617 H 0.53923 0.75644 0.75882 0.0
H1618 H 0.51775 0.77774 0.75722 0.0
H1619 H 0.49732 0.79301 0.74084 0.0
H1620 H 0.48091 0.7738 0.69305 0.0
H1621 H 0.49963 0.7497 0.69633 0.0
C1622 C 0.5214 0.74468 0.72173 0.0
C1623 C 0.53272 0.74426 0.73534 0.0
C1624 C 0.50933 0.7575 0.72044 0.0
C1625 C 0.53071 0.75606 0.74829 0.0
C1626 C 0.51851 0.76851 0.7473 0.0
C1627 C 0.49732 0.78335 0.7313 0.0
C1628 C 0.4876 0.78533 0.7167 0.0
C1629 C 0.50816 0.76967 0.7332 0.0
C1630 C 0.48834 0.77278 0.70434 0.0
C1631 C 0.49902 0.75895 0.70624 0.0
H1632 H 0.67635 0.2303 0.97459 0.0
H1633 H 0.6581 0.25846 0.93189 0.0
H1634 H 0.67999 0.27869 0.93566 0.0
H1635 H 0.7013 0.29115 0.95323 0.0
H1636 H 0.71774 0.2659 0.99805 0.0
H1637 H 0.69906 0.24233 0.99168 0.0
C1638 C 0.67698 0.24084 0.96608 0.0
C1639 C 0.66511 0.24253 0.95301 0.0
C1640 C 0.68912 0.25333 0.96892 0.0
C1641 C 0.66691 0.25619 0.9419 0.0
C1642 C 0.67939 0.26813 0.94419 0.0
C1643 C 0.70119 0.2803 0.96141 0.0
C1644 C 0.71101 0.28025 0.97604 0.0
C1645 C 0.69014 0.26715 0.95796 0.0
C1646 C 0.71029 0.26627 0.98672 0.0
C1647 C 0.69961 0.25281 0.98307 0.0
H1648 H 0.19884 0.79372 0.45863 0.0
H1649 H 0.2167 0.77239 0.50493 0.0
H1650 H 0.19869 0.74784 0.50057 0.0
H1651 H 0.17657 0.73348 0.48428 0.0
H1652 H 0.15776 0.75742 0.43931 0.0
H1653 H 0.17831 0.77914 0.44203 0.0
C1654 C 0.19923 0.78354 0.46761 0.0
C1655 C 0.20931 0.78488 0.48201 0.0
C1656 C 0.18876 0.76971 0.46516 0.0
C1657 C 0.20907 0.77173 0.49374 0.0
C1658 C 0.1988 0.75768 0.49122 0.0
C1659 C 0.17686 0.74338 0.47502 0.0
C1660 C 0.1653 0.74339 0.46156 0.0
C1661 C 0.18832 0.75668 0.47708 0.0
C1662 C 0.16647 0.75638 0.4496 0.0
C1663 C 0.17815 0.76918 0.45127 0.0
H1664 H 0.67631 0.96961 0.71645 0.0
H1665 H 0.65852 0.94616 0.7621 0.0
H1666 H 0.68005 0.92519 0.75982 0.0
H1667 H 0.70093 0.91079 0.74315 0.0
H1668 H 0.71686 0.93132 0.69578 0.0
H1669 H 0.69839 0.95556 0.70008 0.0
C1670 C 0.67692 0.95993 0.72592 0.0
C1671 C 0.6653 0.95973 0.73935 0.0
C1672 C 0.6888 0.947 0.72402 0.0
C1673 C 0.66714 0.94722 0.75171 0.0
C1674 C 0.67939 0.93487 0.75031 0.0
C1675 C 0.70074 0.92075 0.7339 0.0
C1676 C 0.71041 0.91931 0.71922 0.0
C1677 C 0.68985 0.93431 0.73626 0.0
C1678 C 0.70955 0.93211 0.70718 0.0
C1679 C 0.699 0.94597 0.70967 0.0
H1680 H 0.54156 0.44753 0.99671 0.0
H1681 H 0.52268 0.46602 0.94953 0.0
H1682 H 0.49808 0.44791 0.95232 0.0
H1683 H 0.48338 0.42495 0.96699 0.0
H1684 H 0.5039 0.40598 0.0134 0.0
H1685 H 0.52572 0.42698 0.0125 0.0
C1686 C 0.53188 0.4481 0.98721 0.0
C1687 C 0.53409 0.45822 0.9729 0.0
C1688 C 0.51789 0.4376 0.98882 0.0
C1689 C 0.52148 0.45825 0.96059 0.0
C1690 C 0.50736 0.44793 0.96221 0.0
C1691 C 0.49253 0.42544 0.97699 0.0
C1692 C 0.49186 0.41363 0.99018 0.0
C1693 C 0.50566 0.4372 0.97608 0.0
C1694 C 0.5037 0.4149 0.00319 0.0
C1695 C 0.51646 0.42681 0.00258 0.0
H1696 H 0.03782 0.24481 0.21346 0.0
H1697 H 0.01972 0.23368 0.26311 0.0
H1698 H 0.99499 0.25121 0.25816 0.0
H1699 H 0.98071 0.27246 0.24111 0.0
H1700 H 0.00162 0.28625 0.19304 0.0
H1701 H 0.02227 0.26418 0.19556 0.0
C1702 C 0.02821 0.24581 0.22302 0.0
C1703 C 0.03056 0.23793 0.23862 0.0
C1704 C 0.01445 0.25642 0.22033 0.0
C1705 C 0.01819 0.23965 0.25102 0.0
C1706 C 0.00409 0.2497 0.24819 0.0
C1707 C 0.98973 0.27071 0.23113 0.0
C1708 C 0.98962 0.28148 0.21707 0.0
C1709 C 0.00243 0.25864 0.23311 0.0
C1710 C 0.00109 0.27831 0.20401 0.0
C1711 C 0.01319 0.26577 0.20553 0.0
H1712 H 0.25826 0.16172 0.44168 0.0
H1713 H 0.22364 0.18032 0.47899 0.0
H1714 H 0.21727 0.20424 0.46111 0.0
H1715 H 0.21975 0.21863 0.43348 0.0
H1716 H 0.25653 0.20083 0.39812 0.0
H1717 H 0.26418 0.17815 0.41699 0.0
C1718 C 0.24976 0.17116 0.44642 0.0
C1719 C 0.24127 0.16874 0.46172 0.0
C1720 C 0.24645 0.18513 0.4363 0.0
C1721 C 0.23006 0.18133 0.46709 0.0
C1722 C 0.22644 0.19516 0.45689 0.0
C1723 C 0.22964 0.20994 0.43014 0.0
C1724 C 0.23757 0.21137 0.41446 0.0
C1725 C 0.23421 0.19695 0.44123 0.0
C1726 C 0.25036 0.20006 0.41019 0.0
C1727 C 0.25469 0.18702 0.42093 0.0
H1728 H 0.23831 0.99092 0.66669 0.0
H1729 H 0.24195 0.93741 0.67428 0.0
H1730 H 0.26183 0.94196 0.69693 0.0
H1731 H 0.28098 0.96077 0.71146 0.0
H1732 H 0.2751 0.01438 0.70618 0.0
H1733 H 0.25298 0.00991 0.68571 0.0
C1734 C 0.24286 0.98016 0.67358 0.0
C1735 C 0.23883 0.96376 0.66827 0.0
C1736 C 0.25412 0.98283 0.68684 0.0
C1737 C 0.24518 0.95016 0.67754 0.0
C1738 C 0.25653 0.95274 0.69061 0.0
C1739 C 0.27459 0.97162 0.70644 0.0
C1740 C 0.28027 0.98796 0.71022 0.0
C1741 C 0.26157 0.96901 0.69491 0.0
C1742 C 0.27162 0.00163 0.70317 0.0
C1743 C 0.25881 0.9991 0.6915 0.0
H1744 H 0.49335 0.03629 0.95178 0.0
H1745 H 0.44409 0.01938 0.96614 0.0
H1746 H 0.44702 0.99504 0.94766 0.0
H1747 H 0.46243 0.98038 0.92533 0.0
H1748 H 0.5104 0.99974 0.9092 0.0
H1749 H 0.50952 0.02055 0.93122 0.0
C1750 C 0.4834 0.02705 0.95127 0.0
C1751 C 0.46852 0.02966 0.96039 0.0
C1752 C 0.485 0.01341 0.94032 0.0
C1753 C 0.45563 0.01774 0.9592 0.0
C1754 C 0.45732 0.00382 0.94864 0.0
C1755 C 0.47275 0.98909 0.92658 0.0
C1756 C 0.48635 0.98842 0.91524 0.0
C1757 C 0.47177 0.00181 0.93876 0.0
C1758 C 0.49981 0.99958 0.91766 0.0
C1759 C 0.49922 0.01177 0.93017 0.0
H1760 H 0.45619 0.20664 0.15391 0.0
H1761 H 0.47246 0.25251 0.17716 0.0
H1762 H 0.45249 0.24799 0.20018 0.0
H1763 H 0.42939 0.23168 0.21262 0.0
H1764 H 0.41125 0.18784 0.18625 0.0
H1765 H 0.43363 0.19043 0.16628 0.0
C1766 C 0.45564 0.2155 0.16419 0.0
C1767 C 0.46594 0.22978 0.16395 0.0
C1768 C 0.44386 0.21308 0.17699 0.0
C1769 C 0.4647 0.24139 0.17711 0.0
C1770 C 0.45329 0.23879 0.19025 0.0
C1771 C 0.43009 0.22269 0.20251 0.0
C1772 C 0.41823 0.20954 0.20135 0.0
C1773 C 0.44257 0.22479 0.19015 0.0
C1774 C 0.4201 0.19788 0.18817 0.0
C1775 C 0.43287 0.19948 0.17638 0.0
H1776 H 0.20609 0.02289 0.23416 0.0
H1777 H 0.25617 0.03595 0.24992 0.0
H1778 H 0.25585 0.0132 0.27016 0.0
H1779 H 0.23958 0.99334 0.28704 0.0
H1780 H 0.18835 0.98264 0.27379 0.0
H1781 H 0.19071 0.00101 0.24932 0.0
C1782 C 0.21702 0.02073 0.24192 0.0
C1783 C 0.23099 0.03149 0.24063 0.0
C1784 C 0.21639 0.00825 0.25433 0.0
C1785 C 0.24522 0.02797 0.25043 0.0
C1786 C 0.24497 0.01506 0.26226 0.0
C1787 C 0.22908 0.99464 0.27852 0.0
C1788 C 0.21379 0.98665 0.28222 0.0
C1789 C 0.23036 0.00567 0.26485 0.0
C1790 C 0.2002 0.98873 0.27125 0.0
C1791 C 0.20156 0.99924 0.25728 0.0
H1792 H 0.42546 0.96058 0.48232 0.0
H1793 H 0.41234 0.01013 0.49993 0.0
H1794 H 0.43464 0.00891 0.52036 0.0
H1795 H 0.45408 0.99218 0.53666 0.0
H1796 H 0.46581 0.94164 0.52148 0.0
H1797 H 0.44736 0.94467 0.49716 0.0
C1798 C 0.42746 0.97118 0.49055 0.0
C1799 C 0.41682 0.98531 0.48958 0.0
C1800 C 0.43981 0.97007 0.50308 0.0
C1801 C 0.42021 0.9991 0.50005 0.0
C1802 C 0.43289 0.99834 0.51203 0.0
C1803 C 0.4531 0.98194 0.52779 0.0
C1804 C 0.46136 0.96667 0.53098 0.0
C1805 C 0.44223 0.98364 0.51412 0.0
C1806 C 0.4595 0.95348 0.51947 0.0
C1807 C 0.44896 0.95522 0.50554 0.0
H1808 H 0.47619 0.18089 0.73132 0.0
H1809 H 0.43229 0.15902 0.75451 0.0
H1810 H 0.43309 0.18007 0.77619 0.0
H1811 H 0.44864 0.20155 0.7914 0.0
H1812 H 0.49462 0.221 0.77088 0.0
H1813 H 0.49094 0.20365 0.7458 0.0
C1814 C 0.46678 0.18055 0.74109 0.0
C1815 C 0.45437 0.1679 0.74111 0.0
C1816 C 0.46788 0.19214 0.75434 0.0
C1817 C 0.44196 0.16846 0.7537 0.0
C1818 C 0.44251 0.18044 0.76641 0.0
C1819 C 0.45763 0.20233 0.78123 0.0
C1820 C 0.47184 0.21261 0.78293 0.0
C1821 C 0.45576 0.19188 0.76722 0.0
C1822 C 0.48359 0.21318 0.76984 0.0
C1823 C 0.48149 0.20324 0.75554 0.0
H1824 H 0.24667 0.20516 0.05001 0.0
H1825 H 0.22613 0.24753 0.02365 0.0
H1826 H 0.24545 0.24241 1.00021 0.0
H1827 H 0.26919 0.22677 0.9882 0.0
H1828 H 0.29174 0.18693 0.01744 0.0
H1829 H 0.26998 0.1896 0.03807 0.0
C1830 C 0.24618 0.21309 0.03898 0.0
C1831 C 0.23486 0.22658 0.03845 0.0
C1832 C 0.25761 0.2104 0.02592 0.0
C1833 C 0.2347 0.23703 0.0243 0.0
C1834 C 0.24574 0.23409 0.01093 0.0
C1835 C 0.2696 0.21869 0.99907 0.0
C1836 C 0.28251 0.20663 0.00084 0.0
C1837 C 0.25749 0.22096 0.01175 0.0
C1838 C 0.28205 0.19607 0.01504 0.0
C1839 C 0.26965 0.19775 0.02721 0.0
H1840 H 0.95106 0.49065 0.03546 0.0
H1841 H 0.9669 0.44157 0.01918 0.0
H1842 H 0.94917 0.44409 0.99432 0.0
H1843 H 0.92656 0.45877 0.9793 0.0
H1844 H 0.90969 0.50695 0.99731 0.0
H1845 H 0.93129 0.50667 0.01869 0.0
C1846 C 0.95114 0.48067 0.02626 0.0
C1847 C 0.96029 0.46587 0.02933 0.0
C1848 C 0.94075 0.48209 0.01218 0.0
C1849 C 0.95982 0.45299 0.01732 0.0
C1850 C 0.94971 0.45445 0.00306 0.0
C1851 C 0.92771 0.46932 0.98777 0.0
C1852 C 0.9162 0.48272 0.98676 0.0
C1853 C 0.93967 0.46871 0.00069 0.0
C1854 C 0.91831 0.49648 0.99757 0.0
C1855 C 0.93055 0.49623 0.01004 0.0
H1856 H 0.95793 0.67989 0.23236 0.0
H1857 H 0.99926 0.64785 0.24585 0.0
H1858 H 0.00706 0.66688 0.26838 0.0
H1859 H 0.9999 0.69029 0.28631 0.0
H1860 H 0.96037 0.72436 0.27174 0.0
H1861 H 0.95407 0.70675 0.24767 0.0
C1862 C 0.96886 0.67737 0.24002 0.0
C1863 C 0.97803 0.66255 0.23749 0.0
C1864 C 0.97342 0.6885 0.25293 0.0
C1865 C 0.99214 0.6593 0.24747 0.0
C1866 C 0.99653 0.67011 0.26044 0.0
C1867 C 0.99028 0.6944 0.27769 0.0
C1868 C 0.98039 0.70858 0.28137 0.0
C1869 C 0.98698 0.68449 0.26357 0.0
C1870 C 0.96785 0.71323 0.26982 0.0
C1871 C 0.96428 0.70321 0.25588 0.0
H1872 H 0.7413 0.7467 0.52468 0.0
H1873 H 0.74778 0.69844 0.54815 0.0
H1874 H 0.76889 0.69091 0.52752 0.0
H1875 H 0.78878 0.69973 0.50572 0.0
H1876 H 0.7831 0.74823 0.48272 0.0
H1877 H 0.75841 0.75382 0.49994 0.0
C1878 C 0.74713 0.73444 0.52508 0.0
C1879 C 0.74295 0.72323 0.53802 0.0
C1880 C 0.75957 0.73023 0.51328 0.0
C1881 C 0.75055 0.7073 0.53825 0.0
C1882 C 0.76278 0.70299 0.52652 0.0
C1883 C 0.78176 0.71125 0.50406 0.0
C1884 C 0.78784 0.7236 0.4931 0.0
C1885 C 0.76782 0.71457 0.51434 0.0
C1886 C 0.77872 0.73857 0.49119 0.0
C1887 C 0.76467 0.74183 0.50112 0.0
H1888 H 0.9683 0.48704 0.42734 0.0
H1889 H 0.9961 0.5229 0.39763 0.0
H1890 H 0.99158 0.54412 0.41866 0.0
H1891 H 0.97902 0.55328 0.44486 0.0
H1892 H 0.94922 0.51917 0.4741 0.0
H1893 H 0.95474 0.49669 0.45365 0.0
C1894 C 0.97335 0.49948 0.42539 0.0
C1895 C 0.9829 0.50301 0.41087 0.0
C1896 C 0.97013 0.51208 0.43736 0.0
C1897 C 0.98931 0.51934 0.40881 0.0
C1898 C 0.9865 0.53171 0.42076 0.0
C1899 C 0.97377 0.54087 0.44674 0.0
C1900 C 0.96385 0.53774 0.46091 0.0
C1901 C 0.97687 0.52826 0.43497 0.0
C1902 C 0.9569 0.52178 0.46322 0.0
C1903 C 0.96012 0.50897 0.45157 0.0
H1904 H 0.7191 0.67843 0.96926 0.0
H1905 H 0.76279 0.6603 0.94242 0.0
H1906 H 0.75988 0.68255 0.9225 0.0
H1907 H 0.74284 0.70437 0.90966 0.0
H1908 H 0.69658 0.71951 0.93292 0.0
H1909 H 0.70227 0.70083 0.95673 0.0
C1910 C 0.72799 0.67898 0.95906 0.0
C1911 C 0.74105 0.66701 0.95772 0.0
C1912 C 0.72562 0.69128 0.94661 0.0
C1913 C 0.75268 0.66902 0.94449 0.0
C1914 C 0.75093 0.68177 0.93269 0.0
C1915 C 0.73422 0.70387 0.92018 0.0
C1916 C 0.71945 0.71342 0.91974 0.0
C1917 C 0.73716 0.69256 0.93328 0.0
C1918 C 0.70811 0.71236 0.93314 0.0
C1919 C 0.71135 0.70164 0.94667 0.0
H1920 H 0.7813 0.4667 0.21512 0.0
H1921 H 0.79873 0.51034 0.188 0.0
H1922 H 0.77544 0.5079 0.16888 0.0
H1923 H 0.75224 0.49163 0.15741 0.0
H1924 H 0.73722 0.44567 0.18132 0.0
H1925 H 0.75774 0.45047 0.20376 0.0
C1926 C 0.78021 0.47566 0.205 0.0
C1927 C 0.79211 0.48867 0.20325 0.0
C1928 C 0.76725 0.47364 0.19323 0.0
C1929 C 0.78983 0.50037 0.1902 0.0
C1930 C 0.77655 0.49887 0.17896 0.0
C1931 C 0.75322 0.48287 0.16777 0.0
C1932 C 0.74312 0.46847 0.16794 0.0
C1933 C 0.76547 0.48534 0.18009 0.0
C1934 C 0.74479 0.45693 0.18109 0.0
C1935 C 0.75654 0.45966 0.19384 0.0
H1936 H 0.93153 0.71322 0.71376 0.0
H1937 H 0.89468 0.74582 0.69143 0.0
H1938 H 0.91474 0.75463 0.67026 0.0
H1939 H 0.94183 0.75191 0.65705 0.0
H1940 H 0.97983 0.72043 0.67915 0.0
H1941 H 0.96029 0.71236 0.70137 0.0
C1942 C 0.92804 0.72232 0.70429 0.0
C1943 C 0.91171 0.72895 0.70418 0.0
C1944 C 0.93979 0.72753 0.69211 0.0
C1945 C 0.90725 0.74071 0.69186 0.0
C1946 C 0.91869 0.74573 0.67972 0.0
C1947 C 0.94616 0.7437 0.66696 0.0
C1948 C 0.9624 0.73689 0.66633 0.0
C1949 C 0.93493 0.73916 0.67966 0.0
C1950 C 0.96738 0.72581 0.67915 0.0
C1951 C 0.95619 0.72117 0.69189 0.0
H1952 H 0.73772 0.50023 0.80022 0.0
H1953 H 0.69735 0.47899 0.77155 0.0
H1954 H 0.70345 0.49838 0.74837 0.0
H1955 H 0.71917 0.52242 0.73733 0.0
H1956 H 0.75637 0.54611 0.76904 0.0
H1957 H 0.75322 0.52415 0.78929 0.0
C1958 C 0.73047 0.49967 0.78874 0.0
C1959 C 0.71729 0.48812 0.7874 0.0
C1960 C 0.73359 0.51124 0.7759 0.0
C1961 C 0.70765 0.48773 0.77272 0.0
C1962 C 0.71114 0.49882 0.75953 0.0
C1963 C 0.72655 0.5231 0.74866 0.0
C1964 C 0.73801 0.53643 0.75119 0.0
C1965 C 0.72389 0.51089 0.76114 0.0
C1966 C 0.74771 0.5362 0.766 0.0
C1967 C 0.74575 0.52364 0.77797 0.0
H1968 H 0.04347 0.45612 0.32206 0.0
H1969 H 0.01676 0.50309 0.31974 0.0
H1970 H 0.03546 0.51293 0.29782 0.0
H1971 H 0.05679 0.50683 0.2767 0.0
H1972 H 0.08367 0.46004 0.27836 0.0
H1973 H 0.06793 0.45174 0.30337 0.0
C1974 C 0.04195 0.46863 0.317 0.0
C1975 C 0.0284 0.47866 0.3223 0.0
C1976 C 0.0528 0.47426 0.30421 0.0
C1977 C 0.02675 0.4949 0.31566 0.0
C1978 C 0.03751 0.5006 0.30312 0.0
C1979 C 0.0595 0.49498 0.28278 0.0
C1980 C 0.07127 0.48402 0.27558 0.0
C1981 C 0.05017 0.49017 0.29689 0.0
C1982 C 0.07474 0.46876 0.28367 0.0
C1983 C 0.06559 0.46393 0.29788 0.0
H1984 H 0.00901 0.79551 0.56867 0.0
H1985 H 0.95731 0.78529 0.58074 0.0
H1986 H 0.94824 0.80647 0.56066 0.0
H1987 H 0.95481 0.82546 0.53741 0.0
H1988 H 0.00643 0.8346 0.52416 0.0
H1989 H 0.01565 0.81652 0.54705 0.0
C1990 C 0.99577 0.79818 0.56719 0.0
C1991 C 0.98387 0.78874 0.57618 0.0
C1992 C 0.99059 0.8101 0.55525 0.0
C1993 C 0.96675 0.79229 0.57396 0.0
C1994 C 0.96154 0.80438 0.56242 0.0
C1995 C 0.96809 0.82378 0.5397 0.0
C1996 C 0.97988 0.83134 0.52895 0.0
C1997 C 0.97332 0.81301 0.55264 0.0
C1998 C 0.99705 0.82891 0.53214 0.0
C1999 C 0.00234 0.81851 0.54522 0.0
H2000 H 0.65331 0.74054 0.82974 0.0
H2001 H 0.68253 0.69529 0.82453 0.0
H2002 H 0.66432 0.68586 0.80204 0.0
H2003 H 0.643 0.69243 0.78103 0.0
H2004 H 0.61381 0.73762 0.78567 0.0
H2005 H 0.62878 0.74487 0.81136 0.0
C2006 C 0.65547 0.72845 0.82395 0.0
C2007 C 0.66953 0.71885 0.82862 0.0
C2008 C 0.64501 0.72312 0.81079 0.0
C2009 C 0.672 0.70312 0.82105 0.0
C2010 C 0.66159 0.69768 0.80813 0.0
C2011 C 0.63963 0.70367 0.78789 0.0
C2012 C 0.62749 0.71458 0.78131 0.0
C2013 C 0.6485 0.70789 0.80246 0.0
C2014 C 0.62311 0.72899 0.79043 0.0
C2015 C 0.6318 0.73323 0.80506 0.0
H2016 H 0.70588 0.40466 0.07906 0.0
H2017 H 0.75293 0.4311 0.07535 0.0
H2018 H 0.76262 0.41142 0.05424 0.0
H2019 H 0.75617 0.38958 0.03383 0.0
H2020 H 0.70913 0.3633 0.03661 0.0
H2021 H 0.70124 0.37962 0.06132 0.0
C2022 C 0.71838 0.40589 0.07391 0.0
C2023 C 0.72849 0.41959 0.07857 0.0
C2024 C 0.72389 0.39457 0.06151 0.0
C2025 C 0.74473 0.42089 0.07181 0.0
C2026 C 0.75032 0.40962 0.05971 0.0
C2027 C 0.74437 0.38711 0.04012 0.0
C2028 C 0.73318 0.37539 0.03328 0.0
C2029 C 0.73977 0.39683 0.05401 0.0
C2030 C 0.71801 0.3722 0.04163 0.0
C2031 C 0.71341 0.3817 0.05567 0.0
H2032 H 0.03974 0.75207 0.37572 0.0
H2033 H 0.02661 0.70028 0.36764 0.0
H2034 H 0.04878 0.69142 0.38669 0.0
H2035 H 0.06938 0.6985 0.40838 0.0
H2036 H 0.08133 0.75036 0.41772 0.0
H2037 H 0.06238 0.75901 0.39537 0.0
C2038 C 0.042 0.73884 0.37781 0.0
C2039 C 0.03146 0.72688 0.37034 0.0
C2040 C 0.05448 0.73382 0.38919 0.0
C2041 C 0.03447 0.70977 0.37331 0.0
C2042 C 0.04713 0.70467 0.38425 0.0
C2043 C 0.06813 0.71166 0.40527 0.0
C2044 C 0.07666 0.72375 0.41481 0.0
C2045 C 0.05684 0.7166 0.39269 0.0
C2046 C 0.0748 0.74078 0.41067 0.0
C2047 C 0.06394 0.74576 0.3979 0.0
H2048 H 0.75041 0.82297 0.6596 0.0
H2049 H 0.69876 0.83201 0.67269 0.0
H2050 H 0.68965 0.81293 0.65057 0.0
H2051 H 0.69643 0.79127 0.62969 0.0
H2052 H 0.74817 0.7807 0.61821 0.0
H2053 H 0.75713 0.80286 0.63728 0.0
C2054 C 0.73715 0.82104 0.6574 0.0
C2055 C 0.7253 0.82889 0.66784 0.0
C2056 C 0.732 0.80964 0.64497 0.0
C2057 C 0.70816 0.82607 0.6649 0.0
C2058 C 0.70293 0.81513 0.65226 0.0
C2059 C 0.70964 0.7941 0.63105 0.0
C2060 C 0.7216 0.78435 0.62251 0.0
C2061 C 0.71474 0.8065 0.64251 0.0
C2062 C 0.7387 0.788 0.62464 0.0
C2063 C 0.74384 0.80064 0.6356 0.0
H2064 H 0.66476 0.49202 0.87645 0.0
H2065 H 0.65538 0.43893 0.87275 0.0
H2066 H 0.63301 0.44123 0.89348 0.0
H2067 H 0.61822 0.45777 0.91492 0.0
H2068 H 0.62672 0.51101 0.91794 0.0
H2069 H 0.64708 0.50926 0.89511 0.0
C2070 C 0.65761 0.48101 0.87998 0.0
C2071 C 0.66185 0.4653 0.87317 0.0
C2072 C 0.64464 0.48243 0.89187 0.0
C2073 C 0.65237 0.45119 0.87775 0.0
C2074 C 0.63963 0.45246 0.8897 0.0
C2075 C 0.62429 0.46903 0.91034 0.0
C2076 C 0.62104 0.48447 0.91819 0.0
C2077 C 0.63596 0.46794 0.89717 0.0
C2078 C 0.62891 0.49898 0.91206 0.0
C2079 C 0.64068 0.49797 0.89909 0.0
H2080 H 0.00082 0.40572 0.12722 0.0
H2081 H 0.94891 0.41607 0.11626 0.0
H2082 H 0.94021 0.39467 0.13627 0.0
H2083 H 0.94723 0.37575 0.15951 0.0
H2084 H 0.99913 0.36652 0.1715 0.0
H2085 H 0.00787 0.38452 0.1484 0.0
C2086 C 0.98761 0.40303 0.1289 0.0
C2087 C 0.97555 0.41261 0.12032 0.0
C2088 C 0.98265 0.391 0.14081 0.0
C2089 C 0.95848 0.40898 0.12277 0.0
C2090 C 0.95347 0.39677 0.13427 0.0
C2091 C 0.96045 0.37737 0.15686 0.0
C2092 C 0.97248 0.3699 0.16737 0.0
C2093 C 0.96543 0.38811 0.14378 0.0
C2094 C 0.98957 0.37222 0.16373 0.0
C2095 C 0.99461 0.38256 0.15053 0.0
H2096 H 0.32976 0.03635 0.49034 0.0
H2097 H 0.32292 0.03442 0.43677 0.0
H2098 H 0.30225 0.0569 0.4384 0.0
H2099 H 0.28398 0.07509 0.45541 0.0
H2100 H 0.29145 0.07762 0.50887 0.0
H2101 H 0.31403 0.05708 0.50689 0.0
C2102 C 0.32396 0.04105 0.47899 0.0
C2103 C 0.3278 0.0336 0.46348 0.0
C2104 C 0.31205 0.05401 0.48001 0.0
C2105 C 0.32026 0.03994 0.44888 0.0
C2106 C 0.30832 0.05273 0.44981 0.0
C2107 C 0.29072 0.07131 0.46658 0.0
C2108 C 0.28593 0.07777 0.48227 0.0
C2109 C 0.30379 0.05954 0.46535 0.0
C2110 C 0.29489 0.07288 0.49662 0.0
C2111 C 0.30776 0.06106 0.49552 0.0
H2112 H 0.38016 0.03059 0.715 0.0
H2113 H 0.35898 0.04392 0.76294 0.0
H2114 H 0.37865 0.06721 0.76533 0.0
H2115 H 0.40356 0.08222 0.75496 0.0
H2116 H 0.42459 0.06862 0.70699 0.0
H2117 H 0.40328 0.04715 0.7035 0.0
C2118 C 0.3797 0.0387 0.7259 0.0
C2119 C 0.36819 0.03538 0.73883 0.0
C2120 C 0.39114 0.05199 0.72727 0.0
C2121 C 0.36771 0.04613 0.75279 0.0
C2122 C 0.37902 0.05943 0.75421 0.0
C2123 C 0.40334 0.07474 0.74363 0.0
C2124 C 0.41585 0.07695 0.73138 0.0
C2125 C 0.39104 0.06226 0.74169 0.0
C2126 C 0.4153 0.06712 0.71676 0.0
C2127 C 0.40308 0.05479 0.71472 0.0
H2128 H 0.37906 0.15865 0.94905 0.0
H2129 H 0.3706 0.16859 0.00149 0.0
H2130 H 0.39021 0.14636 0.00908 0.0
H2131 H 0.41165 0.12584 0.00085 0.0
H2132 H 0.42196 0.11758 0.94847 0.0
H2133 H 0.3997 0.13721 0.94082 0.0
C2134 C 0.38129 0.15573 0.96213 0.0
C2135 C 0.37334 0.16523 0.97468 0.0
C2136 C 0.39302 0.14327 0.96641 0.0
C2137 C 0.37657 0.16148 0.99158 0.0
C2138 C 0.38781 0.14878 0.99594 0.0
C2139 C 0.40879 0.12808 0.98776 0.0
C2140 C 0.41838 0.12019 0.97525 0.0
C2141 C 0.39637 0.13983 0.98347 0.0
C2142 C 0.41474 0.12348 0.95834 0.0
C2143 C 0.40204 0.13474 0.95396 0.0
H2144 H 0.28591 0.1278 0.19733 0.0
H2145 H 0.27598 0.11713 0.24941 0.0
H2146 H 0.2992 0.13521 0.25768 0.0
H2147 H 0.32027 0.1565 0.2503 0.0
H2148 H 0.32912 0.16821 0.19825 0.0
H2149 H 0.30858 0.14721 0.18987 0.0
C2150 C 0.28901 0.12914 0.21048 0.0
C2151 C 0.27909 0.12113 0.2227 0.0
C2152 C 0.30215 0.13992 0.2152 0.0
C2153 C 0.28331 0.12316 0.2397 0.0
C2154 C 0.29658 0.13356 0.24446 0.0
C2155 C 0.31797 0.15423 0.23711 0.0
C2156 C 0.32622 0.16403 0.22495 0.0
C2157 C 0.30579 0.14238 0.23235 0.0
C2158 C 0.32294 0.16094 0.20791 0.0
C2159 C 0.31113 0.14895 0.20309 0.0
H2160 H 0.46407 0.27949 0.07716 0.0
H2161 H 0.51747 0.28691 0.07404 0.0
H2162 H 0.51332 0.30991 0.05423 0.0
H2163 H 0.49458 0.32607 0.03569 0.0
H2164 H 0.44111 0.31924 0.03972 0.0
H2165 H 0.44522 0.2981 0.06138 0.0
C2166 C 0.47477 0.28631 0.07232 0.0
C2167 C 0.49105 0.28141 0.07695 0.0
C2168 C 0.47229 0.29961 0.06102 0.0
C2169 C 0.50481 0.29047 0.07072 0.0
C2170 C 0.50245 0.30357 0.05931 0.0
C2171 C 0.48382 0.32015 0.04151 0.0
C2172 C 0.46757 0.32416 0.03595 0.0
C2173 C 0.48626 0.30799 0.05406 0.0
C2174 C 0.45376 0.31646 0.04374 0.0
C2175 C 0.4561 0.30426 0.05608 0.0
H2176 H 0.16956 0.99408 0.37603 0.0
H2177 H 0.16 0.94104 0.37226 0.0
H2178 H 0.13754 0.94338 0.39288 0.0
H2179 H 0.12211 0.96009 0.41373 0.0
H2180 H 0.13053 0.01336 0.41654 0.0
H2181 H 0.15171 0.01139 0.39449 0.0
C2182 C 0.1624 0.98309 0.37958 0.0
C2183 C 0.16653 0.96739 0.3727 0.0
C2184 C 0.1493 0.98455 0.39133 0.0
C2185 C 0.15705 0.95329 0.3773 0.0
C2186 C 0.14424 0.95459 0.38917 0.0
C2187 C 0.12841 0.97129 0.40932 0.0
C2188 C 0.12482 0.98682 0.41682 0.0
C2189 C 0.14047 0.97009 0.39651 0.0
C2190 C 0.13298 0.00126 0.4109 0.0
C2191 C 0.1452 1.00013 0.39837 0.0
H2192 H 0.24693 0.91758 0.57528 0.0
H2193 H 0.19344 0.91088 0.57912 0.0
H2194 H 0.19472 0.88765 0.55933 0.0
H2195 H 0.21061 0.87102 0.53886 0.0
H2196 H 0.26421 0.87677 0.53567 0.0
H2197 H 0.26337 0.89832 0.55743 0.0
C2198 C 0.23561 0.91087 0.57194 0.0
C2199 C 0.2201 0.91607 0.57855 0.0
C2200 C 0.23644 0.89735 0.56065 0.0
C2201 C 0.20555 0.90715 0.57425 0.0
C2202 C 0.20625 0.89389 0.56286 0.0
C2203 C 0.22214 0.87677 0.54318 0.0
C2204 C 0.23743 0.87237 0.53563 0.0
C2205 C 0.22156 0.88913 0.5557 0.0
C2206 C 0.25229 0.87984 0.54138 0.0
C2207 C 0.2518 0.89228 0.55372 0.0
H2208 H 0.5736 0.95636 0.78135 0.0
H2209 H 0.57195 0.01007 0.78718 0.0
H2210 H 0.5516 0.00721 0.8098 0.0
H2211 H 0.53231 0.98964 0.82618 0.0
H2212 H 0.53436 0.9359 0.8209 0.0
H2213 H 0.55661 0.93859 0.80007 0.0
C2214 C 0.56894 0.96742 0.78772 0.0
C2215 C 0.5742 0.98341 0.78247 0.0
C2216 C 0.55724 0.9657 0.80082 0.0
C2217 C 0.56817 0.99761 0.79097 0.0
C2218 C 0.55644 0.996 0.80388 0.0
C2219 C 0.53781 0.9785 0.82066 0.0
C2220 C 0.53157 0.9626 0.82502 0.0
C2221 C 0.55061 0.98014 0.80866 0.0
C2222 C 0.53894 0.9483 0.81784 0.0
C2223 C 0.5516 0.94983 0.80582 0.0
H2224 H 0.16378 0.25826 0.32867 0.0
H2225 H 0.18012 0.20716 0.33572 0.0
H2226 H 0.15899 0.19746 0.3161 0.0
H2227 H 0.13938 0.20389 0.29345 0.0
H2228 H 0.12277 0.25463 0.28579 0.0
H2229 H 0.14016 0.26404 0.30932 0.0
C2230 C 0.1624 0.24497 0.32627 0.0
C2231 C 0.17382 0.23352 0.3334 0.0
C2232 C 0.15025 0.23941 0.31472 0.0
C2233 C 0.17175 0.21631 0.3302 0.0
C2234 C 0.15966 0.21072 0.31894 0.0
C2235 C 0.13918 0.21693 0.2973 0.0
C2236 C 0.12993 0.22858 0.28793 0.0
C2237 C 0.14938 0.22221 0.31059 0.0
C2238 C 0.1297 0.24543 0.29296 0.0
C2239 C 0.1398 0.25082 0.30628 0.0
H2240 H 0.52761 0.20655 0.87089 0.0
H2241 H 0.53223 0.26035 0.86912 0.0
H2242 H 0.55602 0.25914 0.88827 0.0
H2243 H 0.5739 0.24298 0.9076 0.0
H2244 H 0.57008 0.18909 0.90845 0.0
H2245 H 0.54779 0.19014 0.88754 0.0
C2246 C 0.534 0.21798 0.8745 0.0
C2247 C 0.52807 0.23352 0.86866 0.0
C2248 C 0.54779 0.21719 0.88545 0.0
C2249 C 0.53656 0.24821 0.87335 0.0
C2250 C 0.55012 0.24754 0.88441 0.0
C2251 C 0.56836 0.23146 0.90298 0.0
C2252 C 0.5736 0.216 0.90962 0.0
C2253 C 0.55561 0.23214 0.89084 0.0
C2254 C 0.56638 0.20117 0.90347 0.0
C2255 C 0.55353 0.20175 0.89158 0.0
H2256 H 0.20898 0.32903 0.16396 0.0
H2257 H 0.2621 0.32269 0.15645 0.0
H2258 H 0.25675 0.30167 0.13485 0.0
H2259 H 0.23698 0.28281 0.12043 0.0
H2260 H 0.18384 0.28999 0.12707 0.0
H2261 H 0.18917 0.31305 0.14647 0.0
C2262 C 0.21937 0.32327 0.15736 0.0
C2263 C 0.23592 0.32732 0.16191 0.0
C2264 C 0.2162 0.31124 0.14487 0.0
C2265 C 0.24925 0.31987 0.15315 0.0
C2266 C 0.2462 0.30773 0.14088 0.0
C2267 C 0.22657 0.28964 0.12589 0.0
C2268 C 0.21004 0.28459 0.12242 0.0
C2269 C 0.22973 0.30298 0.13698 0.0
C2270 C 0.19668 0.29364 0.12947 0.0
C2271 C 0.19973 0.30677 0.14068 0.0
H2272 H 0.48894 0.87276 0.66085 0.0
H2273 H 0.43511 0.87723 0.66153 0.0
H2274 H 0.43645 0.89885 0.63988 0.0
H2275 H 0.4532 0.91861 0.62293 0.0
H2276 H 0.50698 0.91343 0.62177 0.0
H2277 H 0.50537 0.88997 0.6413 0.0
C2278 C 0.47748 0.87824 0.65602 0.0
C2279 C 0.46196 0.87347 0.66288 0.0
C2280 C 0.47835 0.8907 0.6436 0.0
C2281 C 0.44722 0.8806 0.65642 0.0
C2282 C 0.44799 0.89309 0.64413 0.0
C2283 C 0.46453 0.91219 0.6268 0.0
C2284 C 0.4802 0.91787 0.62102 0.0
C2285 C 0.46352 0.89857 0.63797 0.0
C2286 C 0.49476 0.90931 0.62599 0.0
C2287 C 0.49387 0.89593 0.63723 0.0
H2288 H 0.81837 0.53564 0.94432 0.0
H2289 H 0.83235 0.52517 0.99546 0.0
H2290 H 0.81398 0.54764 0.00525 0.0
H2291 H 0.79186 0.56837 0.99949 0.0
H2292 H 0.77648 0.57731 0.94846 0.0
H2293 H 0.79752 0.55747 0.93845 0.0
C2294 C 0.81768 0.53849 0.95759 0.0
C2295 C 0.82677 0.52872 0.96913 0.0
C2296 C 0.80667 0.55108 0.96317 0.0
C2297 C 0.8255 0.53246 0.9863 0.0
C2298 C 0.81494 0.54529 0.99191 0.0
C2299 C 0.79332 0.56621 0.98616 0.0
C2300 C 0.78259 0.57433 0.97475 0.0
C2301 C 0.80515 0.55441 0.9805 0.0
C2302 C 0.78452 0.5712 0.95753 0.0
C2303 C 0.79655 0.55983 0.95178 0.0
H2304 H 0.92716 0.57534 0.24499 0.0
H2305 H 0.90326 0.5821 0.197 0.0
H2306 H 0.88182 0.56163 0.20472 0.0
H2307 H 0.87283 0.53852 0.22315 0.0
H2308 H 0.89891 0.53011 0.26975 0.0
H2309 H 0.9161 0.55484 0.26478 0.0
C2310 C 0.91713 0.57256 0.23627 0.0
C2311 C 0.91706 0.58 0.22028 0.0
C2312 C 0.90522 0.56038 0.24056 0.0
C2313 C 0.90373 0.57648 0.20933 0.0
C2314 C 0.8915 0.56469 0.21372 0.0
C2315 C 0.88207 0.54226 0.23237 0.0
C2316 C 0.88491 0.53217 0.24658 0.0
C2317 C 0.89255 0.55603 0.22901 0.0
C2318 C 0.89666 0.53746 0.25856 0.0
C2319 C 0.90658 0.55155 0.25568 0.0
H2320 H 0.91792 0.63008 0.46785 0.0
H2321 H 0.90677 0.61788 0.51934 0.0
H2322 H 0.88236 0.63635 0.51856 0.0
H2323 H 0.8663 0.65854 0.50434 0.0
H2324 H 0.87836 0.67149 0.45325 0.0
H2325 H 0.90006 0.64995 0.45273 0.0
C2326 C 0.91005 0.63128 0.47887 0.0
C2327 C 0.91435 0.62274 0.49371 0.0
C2328 C 0.89617 0.64211 0.47841 0.0
C2329 C 0.90386 0.62434 0.50777 0.0
C2330 C 0.88989 0.63495 0.50735 0.0
C2331 C 0.87335 0.65635 0.49293 0.0
C2332 C 0.87072 0.6667 0.47887 0.0
C2333 C 0.8862 0.64425 0.49288 0.0
C2334 C 0.88013 0.66376 0.46426 0.0
C2335 C 0.89263 0.65151 0.46399 0.0
H2336 H 0.81465 0.66781 0.75471 0.0
H2337 H 0.83417 0.66645 0.70435 0.0
H2338 H 0.8139 0.64474 0.6969 0.0
H2339 H 0.78901 0.62798 0.70398 0.0
H2340 H 0.76821 0.63093 0.7538 0.0
H2341 H 0.79053 0.65009 0.76215 0.0
C2342 C 0.81473 0.66247 0.74222 0.0
C2343 C 0.82603 0.66863 0.73014 0.0
C2344 C 0.80261 0.65042 0.73785 0.0
C2345 C 0.82568 0.66186 0.71389 0.0
C2346 C 0.81403 0.6495 0.70961 0.0
C2347 C 0.78948 0.63263 0.71673 0.0
C2348 C 0.77689 0.62801 0.72822 0.0
C2349 C 0.80217 0.64397 0.72137 0.0
C2350 C 0.77765 0.63431 0.74466 0.0
C2351 C 0.79044 0.64528 0.74946 0.0
H2352 H 0.05003 0.36648 0.20195 0.0
H2353 H 0.03921 0.35964 0.25435 0.0
H2354 H 0.06114 0.37976 0.26172 0.0
H2355 H 0.07966 0.40242 0.2529 0.0
H2356 H 0.08876 0.41106 0.20037 0.0
H2357 H 0.07127 0.38692 0.19324 0.0
C2358 C 0.05291 0.369 0.21497 0.0
C2359 C 0.04312 0.36169 0.22765 0.0
C2360 C 0.06496 0.38107 0.21899 0.0
C2361 C 0.04665 0.36523 0.24448 0.0
C2362 C 0.05908 0.37676 0.24864 0.0
C2363 C 0.07825 0.39873 0.23992 0.0
C2364 C 0.08536 0.40855 0.22714 0.0
C2365 C 0.06779 0.38525 0.23596 0.0
C2366 C 0.0832 0.40376 0.21036 0.0
C2367 C 0.07323 0.39 0.20631 0.0
H2368 H 0.09782 0.80626 0.48003 0.0
H2369 H 0.07942 0.7865 0.43328 0.0
H2370 H 0.05884 0.80908 0.43162 0.0
H2371 H 0.04302 0.83113 0.44613 0.0
H2372 H 0.06077 0.84974 0.4936 0.0
H2373 H 0.08504 0.83136 0.49202 0.0
C2374 C 0.08973 0.8072 0.46918 0.0
C2375 C 0.08984 0.79451 0.457 0.0
C2376 C 0.07768 0.81994 0.46855 0.0
C2377 C 0.07926 0.79594 0.44301 0.0
C2378 C 0.06748 0.80882 0.44207 0.0
C2379 C 0.05236 0.83131 0.45597 0.0
C2380 C 0.04989 0.84147 0.47011 0.0
C2381 C 0.06603 0.82034 0.45523 0.0
C2382 C 0.0623 0.84199 0.48259 0.0
C2383 C 0.07614 0.83137 0.48177 0.0
H2384 H 0.64769 0.83469 0.70898 0.0
H2385 H 0.6666 0.83748 0.75948 0.0
H2386 H 0.64535 0.81736 0.76868 0.0
H2387 H 0.6243 0.79613 0.76133 0.0
H2388 H 0.60698 0.79222 0.7104 0.0
H2389 H 0.62454 0.81601 0.70234 0.0
C2390 C 0.64688 0.83135 0.7221 0.0
C2391 C 0.65878 0.8375 0.73353 0.0
C2392 C 0.63501 0.81948 0.72713 0.0
C2393 C 0.65767 0.83276 0.75045 0.0
C2394 C 0.64556 0.82126 0.75568 0.0
C2395 C 0.62402 0.80084 0.7486 0.0
C2396 C 0.61447 0.79249 0.73641 0.0
C2397 C 0.63457 0.8141 0.744 0.0
C2398 C 0.61437 0.79847 0.71989 0.0
C2399 C 0.62441 0.81199 0.71531 0.0
H2400 H 0.61977 0.39538 0.95051 0.0
H2401 H 0.60786 0.40876 0.00147 0.0
H2402 H 0.62633 0.38661 0.01175 0.0
H2403 H 0.64941 0.36738 0.00609 0.0
H2404 H 0.66224 0.35484 0.9551 0.0
H2405 H 0.63954 0.37265 0.9449 0.0
C2406 C 0.62074 0.39311 0.96385 0.0
C2407 C 0.61268 0.40387 0.97525 0.0
C2408 C 0.63174 0.38071 0.96962 0.0
C2409 C 0.61419 0.4008 0.9925 0.0
C2410 C 0.62476 0.38818 0.99836 0.0
C2411 C 0.64696 0.36806 0.99277 0.0
C2412 C 0.65775 0.36006 0.98135 0.0
C2413 C 0.63418 0.37862 0.98702 0.0
C2414 C 0.65435 0.3612 0.96412 0.0
C2415 C 0.64137 0.37136 0.95829 0.0
H2416 H 0.20803 0.08062 0.40889 0.0
H2417 H 0.26184 0.08244 0.40787 0.0
H2418 H 0.26243 0.06152 0.38533 0.0
H2419 H 0.24754 0.04088 0.36794 0.0
H2420 H 0.19392 0.03677 0.37142 0.0
H2421 H 0.19308 0.0605 0.39093 0.0
C2422 C 0.21979 0.07664 0.40338 0.0
C2423 C 0.23488 0.08309 0.40965 0.0
C2424 C 0.21998 0.06415 0.39105 0.0
C2425 C 0.25016 0.07764 0.40295 0.0
C2426 C 0.25046 0.06569 0.39019 0.0
C2427 C 0.2357 0.04548 0.37274 0.0
C2428 C 0.22078 0.03736 0.36823 0.0
C2429 C 0.23545 0.05861 0.3844 0.0
C2430 C 0.20548 0.043 0.37478 0.0
C2431 C 0.20504 0.05648 0.3859 0.0
H2432 H 0.4192 0.9966 0.62879 0.0
H2433 H 0.38787 0.9651 0.59803 0.0
H2434 H 0.36467 0.96892 0.61756 0.0
H2435 H 0.35528 0.97703 0.64561 0.0
H2436 H 0.38639 0.00952 0.67568 0.0
H2437 H 0.40763 0.00955 0.65393 0.0
C2438 C 0.40721 0.99096 0.62596 0.0
C2439 C 0.40553 0.98007 0.61219 0.0
C2440 C 0.39397 0.99306 0.63733 0.0
C2441 C 0.3897 0.97309 0.60882 0.0
C2442 C 0.37641 0.97526 0.62 0.0
C2443 C 0.36648 0.98443 0.64739 0.0
C2444 C 0.36942 0.99259 0.66276 0.0
C2445 C 0.3787 0.98452 0.63473 0.0
C2446 C 0.38399 0.00242 0.66442 0.0
C2447 C 0.39616 0.00258 0.65188 0.0
H2448 H 0.49974 0.16719 0.88289 0.0
H2449 H 0.46764 0.14233 0.84706 0.0
H2450 H 0.4686 0.11698 0.86357 0.0
H2451 H 0.47403 0.10357 0.89056 0.0
H2452 H 0.5037 0.12964 0.92754 0.0
H2453 H 0.50854 0.15226 0.90802 0.0
C2454 C 0.49292 0.15633 0.87857 0.0
C2455 C 0.48295 0.15723 0.86404 0.0
C2456 C 0.49302 0.14179 0.88844 0.0
C2457 C 0.47503 0.14249 0.85837 0.0
C2458 C 0.47555 0.12782 0.86785 0.0
C2459 C 0.48169 0.11411 0.89434 0.0
C2460 C 0.48777 0.11504 0.91085 0.0
C2461 C 0.48377 0.12763 0.88332 0.0
C2462 C 0.49843 0.12847 0.91514 0.0
C2463 C 0.50113 0.14164 0.90397 0.0
H2464 H 0.31413 0.19412 0.16536 0.0
H2465 H 0.34744 0.22838 0.1399 0.0
H2466 H 0.32754 0.23118 0.1172 0.0
H2467 H 0.29875 0.22828 0.10731 0.0
H2468 H 0.26422 0.19697 0.13483 0.0
H2469 H 0.28652 0.18843 0.15352 0.0
C2470 C 0.31711 0.20219 0.15488 0.0
C2471 C 0.33207 0.2115 0.15483 0.0
C2472 C 0.30525 0.2044 0.14214 0.0
C2473 C 0.33599 0.22121 0.14062 0.0
C2474 C 0.32452 0.22293 0.12756 0.0
C2475 C 0.29609 0.21949 0.11731 0.0
C2476 C 0.27961 0.21385 0.1199 0.0
C2477 C 0.30878 0.21529 0.12865 0.0
C2478 C 0.27663 0.20182 0.13249 0.0
C2479 C 0.28941 0.197 0.14338 0.0
H2480 H 0.20366 0.12906 0.28993 0.0
H2481 H 0.25135 0.10805 0.3041 0.0
H2482 H 0.25335 0.12766 0.32739 0.0
H2483 H 0.24367 0.15343 0.34076 0.0
H2484 H 0.19621 0.17493 0.32643 0.0
H2485 H 0.19198 0.15249 0.30614 0.0
C2486 C 0.21436 0.12868 0.29828 0.0
C2487 C 0.22742 0.11733 0.29518 0.0
C2488 C 0.21558 0.14021 0.31145 0.0
C2489 C 0.24109 0.11666 0.30625 0.0
C2490 C 0.24232 0.12796 0.31949 0.0
C2491 C 0.23218 0.15299 0.33358 0.0
C2492 C 0.22048 0.16607 0.33482 0.0
C2493 C 0.22993 0.14017 0.32182 0.0
C2494 C 0.20564 0.16525 0.32536 0.0
C2495 C 0.20319 0.15241 0.31379 0.0
H2496 H 0.33093 0.95758 0.54035 0.0
H2497 H 0.34215 0.00833 0.55519 0.0
H2498 H 0.32434 0.00532 0.57971 0.0
H2499 H 0.30159 0.99027 0.59378 0.0
H2500 H 0.2884 0.94053 0.57758 0.0
H2501 H 0.31082 0.94115 0.55668 0.0
C2502 C 0.32958 0.96794 0.54901 0.0
C2503 C 0.33755 0.98329 0.54562 0.0
C2504 C 0.31875 0.96638 0.56274 0.0
C2505 C 0.33615 0.99638 0.55734 0.0
C2506 C 0.32581 0.99473 0.57134 0.0
C2507 C 0.30399 0.97937 0.58605 0.0
C2508 C 0.29329 0.96544 0.58703 0.0
C2509 C 0.31648 0.98007 0.57372 0.0
C2510 C 0.2964 0.95146 0.57683 0.0
C2511 C 0.30916 0.95183 0.56489 0.0
H2512 H 0.45427 0.03489 0.82569 0.0
H2513 H 0.50171 0.05406 0.84327 0.0
H2514 H 0.49842 0.0787 0.82582 0.0
H2515 H 0.48476 0.09221 0.80177 0.0
H2516 H 0.43903 0.07152 0.78211 0.0
H2517 H 0.43907 0.04997 0.8039 0.0
C2518 C 0.46394 0.04439 0.82575 0.0
C2519 C 0.47849 0.04215 0.83542 0.0
C2520 C 0.46238 0.05822 0.81507 0.0
C2521 C 0.49044 0.05513 0.83587 0.0
C2522 C 0.48865 0.06927 0.82575 0.0
C2523 C 0.47459 0.08326 0.80262 0.0
C2524 C 0.46201 0.08324 0.79036 0.0
C2525 C 0.47507 0.07057 0.81475 0.0
C2526 C 0.44893 0.07154 0.79139 0.0
C2527 C 0.44897 0.05925 0.80379 0.0
H2528 H 0.38687 0.19727 0.0336 0.0
H2529 H 0.35359 0.23148 0.05917 0.0
H2530 H 0.37318 0.23356 0.08225 0.0
H2531 H 0.4015 0.22932 0.09309 0.0
H2532 H 0.43599 0.19777 0.06583 0.0
H2533 H 0.41417 0.19078 0.04592 0.0
C2534 C 0.38384 0.2052 0.04418 0.0
C2535 C 0.36888 0.21455 0.04425 0.0
C2536 C 0.39549 0.20689 0.05722 0.0
C2537 C 0.36497 0.22419 0.05851 0.0
C2538 C 0.37626 0.22549 0.07177 0.0
C2539 C 0.40423 0.22082 0.08287 0.0
C2540 C 0.42058 0.21454 0.08082 0.0
C2541 C 0.39184 0.21746 0.07092 0.0
C2542 C 0.42367 0.20299 0.06783 0.0
C2543 C 0.41118 0.19908 0.05625 0.0
H2544 H 0.87639 0.5105 0.15116 0.0
H2545 H 0.86704 0.46057 0.16961 0.0
H2546 H 0.87867 0.44877 0.14405 0.0
H2547 H 0.89764 0.45258 0.12029 0.0
H2548 H 0.91052 0.50233 0.10385 0.0
H2549 H 0.89154 0.51433 0.12477 0.0
C2550 C 0.87667 0.49704 0.14947 0.0
C2551 C 0.8714 0.48648 0.16257 0.0
C2552 C 0.88436 0.49032 0.1352 0.0
C2553 C 0.87117 0.46907 0.1599 0.0
C2554 C 0.87802 0.46227 0.14532 0.0
C2555 C 0.89579 0.46602 0.12085 0.0
C2556 C 0.90555 0.47662 0.11072 0.0
C2557 C 0.88557 0.47276 0.13342 0.0
C2558 C 0.9032 0.49401 0.11168 0.0
C2559 C 0.89244 0.50083 0.12366 0.0
H2560 H 0.96731 0.64312 0.3617 0.0
H2561 H 0.00516 0.67181 0.38752 0.0
H2562 H 0.00539 0.65147 0.41017 0.0
H2563 H 0.991 0.62876 0.42481 0.0
H2564 H 0.9541 0.59926 0.39859 0.0
H2565 H 0.95779 0.61651 0.37367 0.0
C2566 C 0.97596 0.64477 0.372 0.0
C2567 C 0.98558 0.65948 0.37321 0.0
C2568 C 0.9761 0.63296 0.38502 0.0
C2569 C 0.99697 0.66107 0.38659 0.0
C2570 C 0.99722 0.64936 0.39954 0.0
C2571 C 0.98413 0.62567 0.41354 0.0
C2572 C 0.97175 0.61313 0.41386 0.0
C2573 C 0.9862 0.63573 0.39928 0.0
C2574 C 0.96324 0.60926 0.39892 0.0
C2575 C 0.96534 0.61912 0.38464 0.0
H2576 H 0.82506 0.74909 0.66695 0.0
H2577 H 0.8536 0.71244 0.63916 0.0
H2578 H 0.83425 0.715 0.61577 0.0
H2579 H 0.80595 0.72249 0.60659 0.0
H2580 H 0.7782 0.76007 0.63397 0.0
H2581 H 0.80082 0.76231 0.6541 0.0
C2582 C 0.82747 0.74193 0.65571 0.0
C2583 C 0.84017 0.72969 0.65539 0.0
C2584 C 0.8162 0.7433 0.64235 0.0
C2585 C 0.84334 0.72124 0.64022 0.0
C2586 C 0.83229 0.72271 0.62677 0.0
C2587 C 0.80489 0.73149 0.61666 0.0
C2588 C 0.78981 0.74025 0.61929 0.0
C2589 C 0.81802 0.73282 0.62823 0.0
C2590 C 0.78917 0.75233 0.63213 0.0
C2591 C 0.8022 0.75378 0.64362 0.0
H2592 H 0.94819 0.54386 0.32408 0.0
H2593 H 0.00129 0.53631 0.32934 0.0
H2594 H 0.00683 0.55954 0.31008 0.0
H2595 H 0.99639 0.5792 0.28886 0.0
H2596 H 0.94331 0.58451 0.28122 0.0
H2597 H 0.93772 0.56519 0.30442 0.0
C2598 C 0.96092 0.54767 0.32129 0.0
C2599 C 0.97434 0.53856 0.32801 0.0
C2600 C 0.96393 0.56052 0.30969 0.0
C2601 C 0.99084 0.54325 0.32418 0.0
C2602 C 0.99398 0.55645 0.31318 0.0
C2603 C 0.98364 0.57646 0.29267 0.0
C2604 C 0.97025 0.58321 0.28354 0.0
C2605 C 0.98062 0.5648 0.30544 0.0
C2606 C 0.95374 0.57937 0.28821 0.0
C2607 C 0.95058 0.56831 0.30137 0.0
H2608 H 0.74701 0.62478 0.79225 0.0
H2609 H 0.69385 0.61709 0.797 0.0
H2610 H 0.69285 0.63632 0.82082 0.0
H2611 H 0.70673 0.65759 0.83823 0.0
H2612 H 0.75995 0.66484 0.8342 0.0
H2613 H 0.76155 0.6433 0.81236 0.0
C2614 C 0.73532 0.62722 0.79872 0.0
C2615 C 0.72051 0.61975 0.79293 0.0
C2616 C 0.7349 0.63814 0.81247 0.0
C2617 C 0.70537 0.62272 0.80138 0.0
C2618 C 0.7048 0.63374 0.8149 0.0
C2619 C 0.71868 0.65406 0.8328 0.0
C2620 C 0.73319 0.66261 0.83767 0.0
C2621 C 0.71941 0.6418 0.82029 0.0
C2622 C 0.74869 0.65816 0.83068 0.0
C2623 C 0.74955 0.64603 0.81811 0.0
H2624 H 0.54959 0.87144 0.69408 0.0
H2625 H 0.5377 0.85982 0.74546 0.0
H2626 H 0.56053 0.87791 0.75497 0.0
H2627 H 0.58061 0.90019 0.74861 0.0
H2628 H 0.59117 0.91312 0.69725 0.0
H2629 H 0.57223 0.89103 0.68765 0.0
C2630 C 0.55231 0.87243 0.70733 0.0
C2631 C 0.54191 0.86441 0.71909 0.0
C2632 C 0.56507 0.88321 0.71265 0.0
C2633 C 0.54546 0.86604 0.73623 0.0
C2634 C 0.55846 0.87638 0.74164 0.0
C2635 C 0.57919 0.89782 0.73532 0.0
C2636 C 0.58717 0.90831 0.72361 0.0
C2637 C 0.5679 0.88552 0.72996 0.0
C2638 C 0.585 0.90526 0.70644 0.0
C2639 C 0.57417 0.89269 0.70098 0.0
H2640 H 0.59297 0.30338 0.97683 0.0
H2641 H 0.56942 0.28692 0.93116 0.0
H2642 H 0.5483 0.30898 0.93392 0.0
H2643 H 0.53431 0.3297 0.95167 0.0
H2644 H 0.55664 0.34376 0.99889 0.0
H2645 H 0.58092 0.32655 0.99271 0.0
C2646 C 0.58356 0.30495 0.96719 0.0
C2647 C 0.5826 0.29344 0.95391 0.0
C2648 C 0.57117 0.3172 0.96921 0.0
C2649 C 0.57021 0.29553 0.94161 0.0
C2650 C 0.55816 0.3081 0.94321 0.0
C2651 C 0.54448 0.32907 0.96062 0.0
C2652 C 0.54326 0.33761 0.976 0.0
C2653 C 0.55809 0.31847 0.95738 0.0
C2654 C 0.557 0.33724 0.98704 0.0
C2655 C 0.5709 0.32725 0.98359 0.0
H2656 H 0.14778 0.34149 0.21881 0.0
H2657 H 0.18405 0.31712 0.25071 0.0
H2658 H 0.1627 0.29801 0.26074 0.0
H2659 H 0.13533 0.285 0.25663 0.0
H2660 H 0.10021 0.30732 0.22199 0.0
H2661 H 0.11932 0.33037 0.21719 0.0
C2662 C 0.15102 0.33209 0.22805 0.0
C2663 C 0.1677 0.33053 0.23349 0.0
C2664 C 0.13887 0.32051 0.23317 0.0
C2665 C 0.17144 0.31869 0.24605 0.0
C2666 C 0.15922 0.30755 0.25173 0.0
C2667 C 0.13177 0.29485 0.24802 0.0
C2668 C 0.11651 0.29388 0.23925 0.0
C2669 C 0.14315 0.3078 0.2447 0.0
C2670 C 0.1119 0.30735 0.22879 0.0
C2671 C 0.12291 0.32061 0.22593 0.0
H2672 H 0.14727 0.87127 0.50329 0.0
H2673 H 0.16208 0.86052 0.45243 0.0
H2674 H 0.13941 0.87822 0.44198 0.0
H2675 H 0.11879 0.90016 0.44753 0.0
H2676 H 0.10475 0.91177 0.49839 0.0
H2677 H 0.12357 0.88991 0.50869 0.0
C2678 C 0.14527 0.87233 0.48992 0.0
C2679 C 0.15656 0.8648 0.47865 0.0
C2680 C 0.13247 0.88281 0.48404 0.0
C2681 C 0.15377 0.86647 0.46135 0.0
C2682 C 0.14081 0.87657 0.45539 0.0
C2683 C 0.11937 0.89757 0.46083 0.0
C2684 C 0.11054 0.90775 0.47222 0.0
C2685 C 0.13055 0.88535 0.46664 0.0
C2686 C 0.11163 0.90426 0.48943 0.0
C2687 C 0.12241 0.89181 0.4953 0.0
H2688 H 0.701 0.57914 0.9109 0.0
H2689 H 0.75461 0.58384 0.90851 0.0
H2690 H 0.75575 0.56289 0.88604 0.0
H2691 H 0.74167 0.54116 0.86953 0.0
H2692 H 0.68841 0.5342 0.87425 0.0
H2693 H 0.68671 0.55819 0.89336 0.0
C2694 C 0.71282 0.57582 0.90508 0.0
C2695 C 0.7277 0.58302 0.91099 0.0
C2696 C 0.71337 0.56328 0.89282 0.0
C2697 C 0.74307 0.57843 0.90388 0.0
C2698 C 0.74369 0.56646 0.89117 0.0
C2699 C 0.72967 0.54519 0.87446 0.0
C2700 C 0.71515 0.53613 0.8705 0.0
C2701 C 0.72896 0.5585 0.88586 0.0
C2702 C 0.69969 0.5411 0.87723 0.0
C2703 C 0.69875 0.55475 0.88812 0.0
H2704 H 0.78427 0.45249 0.07439 0.0
H2705 H 0.79832 0.50075 0.09412 0.0
H2706 H 0.82165 0.50221 0.0744 0.0
H2707 H 0.83532 0.49166 0.049 0.0
H2708 H 0.8203 0.44411 0.02828 0.0
H2709 H 0.79988 0.44055 0.05083 0.0
C2710 C 0.79251 0.46327 0.07443 0.0
C2711 C 0.78939 0.47661 0.08549 0.0
C2712 C 0.80555 0.46425 0.06274 0.0
C2713 C 0.80044 0.4903 0.08576 0.0
C2714 C 0.8137 0.49121 0.07437 0.0
C2715 C 0.82791 0.48032 0.04965 0.0
C2716 C 0.82917 0.46825 0.03689 0.0
C2717 C 0.816 0.47852 0.06245 0.0
C2718 C 0.81933 0.45369 0.03783 0.0
C2719 C 0.80769 0.45165 0.05071 0.0
H2720 H 0.90045 0.72447 0.59536 0.0
H2721 H 0.92361 0.76651 0.57053 0.0
H2722 H 0.90221 0.76567 0.54876 0.0
H2723 H 0.88218 0.74804 0.53335 0.0
H2724 H 0.86113 0.70462 0.55717 0.0
H2725 H 0.87575 0.71135 0.58321 0.0
C2726 C 0.90053 0.73386 0.58558 0.0
C2727 C 0.91405 0.74505 0.58417 0.0
C2728 C 0.88849 0.73297 0.57286 0.0
C2729 C 0.91371 0.7573 0.5715 0.0
C2730 C 0.90144 0.75687 0.55907 0.0
C2731 C 0.88013 0.74067 0.54458 0.0
C2732 C 0.87082 0.72583 0.54351 0.0
C2733 C 0.88949 0.74402 0.55904 0.0
C2734 C 0.86829 0.71611 0.55792 0.0
C2735 C 0.87686 0.71982 0.57266 0.0
H2736 H 0.01384 0.46026 0.15631 0.0
H2737 H 0.05324 0.47097 0.12067 0.0
H2738 H 0.07336 0.47274 0.14326 0.0
H2739 H 0.07992 0.47223 0.1732 0.0
H2740 H 0.04056 0.46324 0.20912 0.0
H2741 H 0.02032 0.46004 0.18633 0.0
C2742 C 0.02674 0.46311 0.15334 0.0
C2743 C 0.03177 0.46544 0.13653 0.0
C2744 C 0.03836 0.46448 0.16653 0.0
C2745 C 0.04878 0.46888 0.13327 0.0
C2746 C 0.0604 0.47001 0.14627 0.0
C2747 C 0.06693 0.46947 0.17605 0.0
C2748 C 0.06177 0.46792 0.19282 0.0
C2749 C 0.05533 0.46792 0.16293 0.0
C2750 C 0.04486 0.46449 0.19631 0.0
C2751 C 0.03328 0.46267 0.18328 0.0
H2752 H 0.97593 0.83302 0.42262 0.0
H2753 H 0.99734 0.79587 0.45553 0.0
H2754 H 0.99912 0.77605 0.43228 0.0
H2755 H 0.99411 0.76917 0.40289 0.0
H2756 H 0.97103 0.80571 0.37032 0.0
H2757 H 0.97084 0.82601 0.39308 0.0
C2758 C 0.98105 0.8206 0.42468 0.0
C2759 C 0.98648 0.8159 0.44077 0.0
C2760 C 0.98182 0.8092 0.41131 0.0
C2761 C 0.99301 0.79976 0.44328 0.0
C2762 C 0.99405 0.78844 0.42998 0.0
C2763 C 0.98885 0.78147 0.40071 0.0
C2764 C 0.98246 0.78572 0.3848 0.0
C2765 C 0.98836 0.79298 0.41398 0.0
C2766 C 0.97617 0.80201 0.38229 0.0
C2767 C 0.97593 0.81364 0.39537 0.0
H2768 H 0.61732 0.7397 0.68044 0.0
H2769 H 0.65829 0.72924 0.71408 0.0
H2770 H 0.67795 0.73 0.69066 0.0
H2771 H 0.68318 0.73178 0.6606 0.0
H2772 H 0.64244 0.74293 0.62682 0.0
H2773 H 0.62297 0.74348 0.65036 0.0
C2774 C 0.63058 0.73776 0.68266 0.0
C2775 C 0.63633 0.73437 0.69896 0.0
C2776 C 0.64182 0.73813 0.66911 0.0
C2777 C 0.65354 0.73192 0.70166 0.0
C2778 C 0.66479 0.73228 0.68826 0.0
C2779 C 0.67014 0.73466 0.6583 0.0
C2780 C 0.66438 0.73723 0.64181 0.0
C2781 C 0.65902 0.73513 0.67191 0.0
C2782 C 0.64727 0.74062 0.63926 0.0
C2783 C 0.63611 0.74105 0.65276 0.0
H2784 H 0.71065 0.36446 0.93209 0.0
H2785 H 0.72251 0.40586 0.96469 0.0
H2786 H 0.71997 0.42532 0.94118 0.0
H2787 H 0.7159 0.4303 0.91118 0.0
H2788 H 0.70332 0.389 0.87865 0.0
H2789 H 0.7048 0.36975 0.90233 0.0
C2790 C 0.71259 0.37776 0.93406 0.0
C2791 C 0.71684 0.3837 0.95009 0.0
C2792 C 0.7111 0.38887 0.92049 0.0
C2793 C 0.71919 0.40097 0.95248 0.0
C2794 C 0.7178 0.4121 0.93903 0.0
C2795 C 0.71317 0.41717 0.90923 0.0
C2796 C 0.70959 0.41118 0.89301 0.0
C2797 C 0.71393 0.40616 0.92295 0.0
C2798 C 0.70638 0.39398 0.89087 0.0
C2799 C 0.70714 0.38295 0.90444 0.0
H2800 H 0.02342 0.74884 0.54421 0.0
H2801 H 0.06032 0.72514 0.5758 0.0
H2802 H 0.07941 0.72287 0.55201 0.0
H2803 H 0.08502 0.72621 0.5218 0.0
H2804 H 0.04728 0.74857 0.49021 0.0
H2805 H 0.02904 0.75251 0.5144 0.0
C2806 C 0.03555 0.74303 0.54593 0.0
C2807 C 0.04029 0.73703 0.56181 0.0
C2808 C 0.04632 0.74144 0.53214 0.0
C2809 C 0.05633 0.72998 0.56379 0.0
C2810 C 0.06723 0.72856 0.55015 0.0
C2811 C 0.07285 0.73205 0.52026 0.0
C2812 C 0.06749 0.73705 0.50424 0.0
C2813 C 0.06228 0.73407 0.53421 0.0
C2814 C 0.05167 0.74454 0.5024 0.0
C2815 C 0.04123 0.74681 0.51622 0.0
H2816 H 0.72406 0.80138 0.81713 0.0
H2817 H 0.69637 0.76171 0.7932 0.0
H2818 H 0.69871 0.77608 0.76626 0.0
H2819 H 0.70902 0.7999 0.74935 0.0
H2820 H 0.73607 0.83976 0.77379 0.0
H2821 H 0.73356 0.82538 0.80061 0.0
C2822 C 0.71829 0.79599 0.80611 0.0
C2823 C 0.71007 0.78046 0.80723 0.0
C2824 C 0.71972 0.8043 0.79066 0.0
C2825 C 0.70293 0.77356 0.79268 0.0
C2826 C 0.70425 0.78178 0.77726 0.0
C2827 C 0.71446 0.80534 0.76054 0.0
C2828 C 0.72281 0.82081 0.75956 0.0
C2829 C 0.71277 0.79709 0.77605 0.0
C2830 C 0.72959 0.82785 0.7742 0.0
C2831 C 0.72814 0.81965 0.78956 0.0
H2832 H 0.68465 0.46668 0.04382 0.0
H2833 H 0.64333 0.45513 0.07686 0.0
H2834 H 0.6243 0.45488 0.0531 0.0
H2835 H 0.61906 0.45893 0.02301 0.0
H2836 H 0.66048 0.46935 0.9899 0.0
H2837 H 0.67982 0.46868 0.01363 0.0
C2838 C 0.67157 0.46384 0.04594 0.0
C2839 C 0.66556 0.46114 0.06236 0.0
C2840 C 0.66064 0.46349 0.03214 0.0
C2841 C 0.64841 0.45763 0.06456 0.0
C2842 C 0.63746 0.45738 0.05091 0.0
C2843 C 0.63234 0.46095 0.02099 0.0
C2844 C 0.63832 0.46424 0.00474 0.0
C2845 C 0.64339 0.4605 0.03468 0.0
C2846 C 0.65557 0.46671 0.00228 0.0
C2847 C 0.66662 0.46641 0.01586 0.0
H2848 H 0.98418 0.36625 0.27454 0.0
H2849 H 0.97803 0.40801 0.24076 0.0
H2850 H 0.97967 0.4275 0.26428 0.0
H2851 H 0.98192 0.43255 0.29426 0.0
H2852 H 0.98926 0.39111 0.32826 0.0
H2853 H 0.98787 0.37156 0.30476 0.0
C2854 C 0.98323 0.37963 0.27235 0.0
C2855 C 0.98094 0.3857 0.25595 0.0
C2856 C 0.98433 0.39078 0.28593 0.0
C2857 C 0.97985 0.40304 0.25326 0.0
C2858 C 0.98075 0.41418 0.26671 0.0
C2859 C 0.98357 0.41932 0.29666 0.0
C2860 C 0.98575 0.41341 0.31317 0.0
C2861 C 0.98294 0.40818 0.28309 0.0
C2862 C 0.98741 0.39607 0.31579 0.0
C2863 C 0.98667 0.38487 0.30232 0.0
H2864 H 0.20551 0.04718 0.47232 0.0
H2865 H 0.17885 0.09417 0.47107 0.0
H2866 H 0.15215 0.07923 0.47009 0.0
H2867 H 0.13639 0.05276 0.46978 0.0
H2868 H 0.16333 0.00592 0.47238 0.0
H2869 H 0.18981 0.02085 0.4724 0.0
C2870 C 0.19386 0.05415 0.47175 0.0
C2871 C 0.19414 0.07173 0.47172 0.0
C2872 C 0.17857 0.0455 0.47138 0.0
C2873 C 0.17895 0.0806 0.47112 0.0
C2874 C 0.16367 0.07208 0.47056 0.0
C2875 C 0.14802 0.04582 0.47046 0.0
C2876 C 0.14773 0.0282 0.47091 0.0
C2877 C 0.16333 0.05451 0.47076 0.0
C2878 C 0.16304 0.01944 0.47164 0.0
C2879 C 0.17826 0.02798 0.47179 0.0
H2880 H 0.39574 0.88605 0.71926 0.0
H2881 H 0.4423 0.91351 0.71842 0.0
H2882 H 0.42714 0.9398 0.72017 0.0
H2883 H 0.4008 0.95519 0.7225 0.0
H2884 H 0.35404 0.92818 0.72418 0.0
H2885 H 0.36912 0.90161 0.72175 0.0
C2886 C 0.40254 0.89778 0.71951 0.0
C2887 C 0.42014 0.8977 0.7185 0.0
C2888 C 0.39372 0.91299 0.72076 0.0
C2889 C 0.42876 0.91308 0.71876 0.0
C2890 C 0.42011 0.92819 0.71992 0.0
C2891 C 0.39389 0.9435 0.7223 0.0
C2892 C 0.37635 0.94366 0.72352 0.0
C2893 C 0.40261 0.9283 0.72096 0.0
C2894 C 0.36758 0.9284 0.72328 0.0
C2895 C 0.37618 0.91319 0.72188 0.0
H2896 H 0.5651 0.15261 0.97916 0.0
H2897 H 0.54248 0.18613 0.94325 0.0
H2898 H 0.51642 0.17037 0.94465 0.0
H2899 H 0.49979 0.14734 0.95645 0.0
H2900 H 0.52286 0.1127 0.99086 0.0
H2901 H 0.54904 0.12858 0.98964 0.0
C2902 C 0.55458 0.15636 0.97146 0.0
C2903 C 0.55575 0.17071 0.96131 0.0
C2904 C 0.53964 0.14711 0.97217 0.0
C2905 C 0.54187 0.17539 0.9515 0.0
C2906 C 0.52694 0.16634 0.95222 0.0
C2907 C 0.51054 0.14336 0.96375 0.0
C2908 C 0.50942 0.12904 0.97387 0.0
C2909 C 0.52562 0.15231 0.96267 0.0
C2910 C 0.52348 0.12376 0.98302 0.0
C2911 C 0.53842 0.13281 0.98231 0.0
H2912 H 0.27211 0.29233 0.21819 0.0
H2913 H 0.31385 0.3251 0.20806 0.0
H2914 H 0.33309 0.30128 0.20995 0.0
H2915 H 0.33793 0.27086 0.21421 0.0
H2916 H 0.29552 0.23858 0.22327 0.0
H2917 H 0.27667 0.26249 0.22182 0.0
C2918 C 0.28535 0.29433 0.21607 0.0
C2919 C 0.29144 0.31055 0.21281 0.0
C2920 C 0.29626 0.28061 0.21701 0.0
C2921 C 0.30879 0.3128 0.21066 0.0
C2922 C 0.3198 0.29916 0.21168 0.0
C2923 C 0.32457 0.26912 0.21589 0.0
C2924 C 0.31815 0.25296 0.2188 0.0
C2925 C 0.31368 0.28298 0.21486 0.0
C2926 C 0.3008 0.25085 0.2209 0.0
C2927 C 0.28998 0.26453 0.2201 0.0
H2928 H 0.15456 0.18535 0.23678 0.0
H2929 H 0.11934 0.14462 0.24046 0.0
H2930 H 0.14225 0.12438 0.23756 0.0
H2931 H 0.17234 0.11838 0.23414 0.0
H2932 H 0.20745 0.15935 0.23099 0.0
H2933 H 0.18448 0.17943 0.23335 0.0
C2934 C 0.15185 0.17206 0.23669 0.0
C2935 C 0.13524 0.16648 0.23865 0.0
C2936 C 0.16507 0.16057 0.23517 0.0
C2937 C 0.13202 0.14919 0.239 0.0
C2938 C 0.1451 0.13764 0.2373 0.0
C2939 C 0.17495 0.13171 0.23394 0.0
C2940 C 0.19158 0.13737 0.23239 0.0
C2941 C 0.16169 0.1432 0.23543 0.0
C2942 C 0.19478 0.15467 0.23223 0.0
C2943 C 0.18165 0.16616 0.23355 0.0
H2944 H 0.3307 0.92935 0.48644 0.0
H2945 H 0.28955 0.96428 0.48356 0.0
H2946 H 0.26962 0.94105 0.48371 0.0
H2947 H 0.26404 0.91087 0.48303 0.0
H2948 H 0.30523 0.87596 0.48631 0.0
H2949 H 0.32499 0.89918 0.48739 0.0
C2950 C 0.31736 0.93189 0.48599 0.0
C2951 C 0.31161 0.94851 0.48497 0.0
C2952 C 0.30599 0.91849 0.48596 0.0
C2953 C 0.29429 0.9516 0.48442 0.0
C2954 C 0.2829 0.93832 0.48443 0.0
C2955 C 0.27729 0.90827 0.48425 0.0
C2956 C 0.28307 0.89159 0.48447 0.0
C2957 C 0.28862 0.92171 0.48499 0.0
C2958 C 0.30038 0.8886 0.4858 0.0
C2959 C 0.31172 0.9019 0.48654 0.0
H2960 H 0.56424 0.05221 0.7202 0.0
H2961 H 0.54155 0.0125 0.74915 0.0
H2962 H 0.51534 0.02782 0.75006 0.0
H2963 H 0.49829 0.05211 0.74189 0.0
H2964 H 0.52134 0.09278 0.71483 0.0
H2965 H 0.54793 0.07762 0.7142 0.0
C2966 C 0.55369 0.04696 0.7269 0.0
C2967 C 0.55495 0.03094 0.7342 0.0
C2968 C 0.5386 0.05603 0.72774 0.0
C2969 C 0.54098 0.02449 0.74287 0.0
C2970 C 0.52592 0.03332 0.74355 0.0
C2971 C 0.50917 0.05765 0.73592 0.0
C2972 C 0.50785 0.07345 0.72832 0.0
C2973 C 0.52449 0.04899 0.73582 0.0
C2974 C 0.52207 0.08062 0.7208 0.0
C2975 C 0.53727 0.07194 0.72039 0.0
H2976 H 0.40108 0.24544 0.97916 0.0
H2977 H 0.35438 0.27263 0.97892 0.0
H2978 H 0.36967 0.2992 0.97986 0.0
H2979 H 0.39651 0.31468 0.98114 0.0
H2980 H 0.44289 0.28684 0.98058 0.0
H2981 H 0.42752 0.26066 0.97975 0.0
C2982 C 0.39422 0.25717 0.97932 0.0
C2983 C 0.37663 0.25706 0.97902 0.0
C2984 C 0.40305 0.27233 0.97983 0.0
C2985 C 0.36794 0.27238 0.97914 0.0
C2986 C 0.37668 0.28757 0.9797 0.0
C2987 C 0.40322 0.30289 0.98075 0.0
C2988 C 0.42085 0.30283 0.98121 0.0
C2989 C 0.39426 0.28771 0.98008 0.0
C2990 C 0.42935 0.28738 0.98072 0.0
C2991 C 0.42057 0.27233 0.98009 0.0
H2992 H 0.46593 0.19886 0.04909 0.0
H2993 H 0.50042 0.17631 0.08397 0.0
H2994 H 0.49741 0.14928 0.06992 0.0
H2995 H 0.48522 0.13217 0.04759 0.0
H2996 H 0.44935 0.15418 0.0137 0.0
H2997 H 0.45252 0.18123 0.02756 0.0
C2998 C 0.47289 0.18804 0.05346 0.0
C2999 C 0.48354 0.18955 0.06736 0.0
C3000 C 0.47073 0.17242 0.04561 0.0
C3001 C 0.49222 0.1754 0.0732 0.0
C3002 C 0.49046 0.15996 0.06522 0.0
C3003 C 0.47788 0.14278 0.04338 0.0
C3004 C 0.46717 0.14111 0.0295 0.0
C3005 C 0.4797 0.1583 0.05146 0.0
C3006 C 0.45791 0.15514 0.02416 0.0
C3007 C 0.4597 0.17063 0.03209 0.0
H3008 H 0.97328 0.51966 0.11351 0.0
H3009 H 0.95857 0.48712 0.1541 0.0
H3010 H 0.95426 0.51138 0.17222 0.0
H3011 H 0.95501 0.54163 0.17662 0.0
H3012 H 0.97129 0.57418 0.13655 0.0
H3013 H 0.97409 0.55013 0.11803 0.0
C3014 C 0.96914 0.51788 0.12633 0.0
C3015 C 0.96632 0.5016 0.13247 0.0
C3016 C 0.9668 0.53189 0.13673 0.0
C3017 C 0.96093 0.4995 0.14909 0.0
C3018 C 0.95841 0.51338 0.15945 0.0
C3019 C 0.95934 0.54358 0.16392 0.0
C3020 C 0.96307 0.55987 0.15818 0.0
C3021 C 0.96139 0.52962 0.15342 0.0
C3022 C 0.96818 0.56194 0.14142 0.0
C3023 C 0.96994 0.54812 0.1308 0.0
H3024 H 0.92335 0.72919 0.36681 0.0
H3025 H 0.95745 0.71747 0.40713 0.0
H3026 H 0.93431 0.71707 0.42693 0.0
H3027 H 0.90473 0.72045 0.43304 0.0
H3028 H 0.86994 0.73241 0.39359 0.0
H3029 H 0.89304 0.73258 0.37318 0.0
C3030 C 0.92566 0.7265 0.37992 0.0
C3031 C 0.94212 0.72333 0.38547 0.0
C3032 C 0.91222 0.72639 0.39138 0.0
C3033 C 0.94494 0.71996 0.40251 0.0
C3034 C 0.93171 0.71972 0.41387 0.0
C3035 C 0.90209 0.72277 0.41993 0.0
C3036 C 0.88559 0.72607 0.41475 0.0
C3037 C 0.91534 0.72291 0.40845 0.0
C3038 C 0.88254 0.72974 0.39782 0.0
C3039 C 0.89573 0.72981 0.38619 0.0
H3040 H 0.72988 0.67664 0.61976 0.0
H3041 H 0.72079 0.71036 0.661 0.0
H3042 H 0.72165 0.68694 0.68063 0.0
H3043 H 0.72465 0.65705 0.68605 0.0
H3044 H 0.73528 0.62321 0.6452 0.0
H3045 H 0.73391 0.6465 0.62546 0.0
C3046 C 0.72806 0.67883 0.63305 0.0
C3047 C 0.72526 0.6952 0.63892 0.0
C3048 C 0.72881 0.6653 0.64433 0.0
C3049 C 0.72305 0.69789 0.65617 0.0
C3050 C 0.72351 0.68449 0.66741 0.0
C3051 C 0.72696 0.65467 0.67291 0.0
C3052 C 0.7301 0.63823 0.66725 0.0
C3053 C 0.72642 0.66816 0.66164 0.0
C3054 C 0.73264 0.6356 0.65 0.0
C3055 C 0.73194 0.64896 0.63866 0.0
H3056 H 0.31631 0.97291 0.39914 0.0
H3057 H 0.28843 0.97678 0.44532 0.0
H3058 H 0.26222 0.97578 0.42997 0.0
H3059 H 0.24703 0.97399 0.40354 0.0
H3060 H 0.27432 0.96943 0.35711 0.0
H3061 H 0.30086 0.97031 0.37241 0.0
C3062 C 0.30449 0.97343 0.4058 0.0
C3063 C 0.3044 0.97521 0.42333 0.0
C3064 C 0.28932 0.9727 0.39686 0.0
C3065 C 0.28895 0.97589 0.43181 0.0
C3066 C 0.2739 0.97517 0.42305 0.0
C3067 C 0.25878 0.97319 0.39675 0.0
C3068 C 0.25872 0.97171 0.37923 0.0
C3069 C 0.27392 0.97368 0.40559 0.0
C3070 C 0.27404 0.97058 0.37062 0.0
C3071 C 0.28922 0.9711 0.37936 0.0
H3072 H 0.23294 0.0666 0.55397 0.0
H3073 H 0.2353 0.04 0.5069 0.0
H3074 H 0.23473 0.01346 0.52158 0.0
H3075 H 0.23275 0.99748 0.54764 0.0
H3076 H 0.22903 0.02359 0.59478 0.0
H3077 H 0.2307 0.05049 0.58022 0.0
C3078 C 0.23326 0.05502 0.5469 0.0
C3079 C 0.23435 0.0555 0.5293 0.0
C3080 C 0.23259 0.0396 0.55544 0.0
C3081 C 0.23487 0.04025 0.52043 0.0
C3082 C 0.23438 0.02494 0.52882 0.0
C3083 C 0.23238 0.00905 0.55474 0.0
C3084 C 0.2308 0.00853 0.57225 0.0
C3085 C 0.23319 0.02445 0.54629 0.0
C3086 C 0.23022 0.02364 0.58127 0.0
C3087 C 0.23118 0.03904 0.57295 0.0
H3088 H 0.92225 0.47844 0.33623 0.0
H3089 H 0.94995 0.44811 0.30118 0.0
H3090 H 0.92471 0.44411 0.28432 0.0
H3091 H 0.8958 0.45149 0.27817 0.0
H3092 H 0.86922 0.48563 0.31067 0.0
H3093 H 0.89254 0.48514 0.33033 0.0
C3094 C 0.92259 0.47076 0.32502 0.0
C3095 C 0.93781 0.46359 0.31984 0.0
C3096 C 0.90821 0.46916 0.31499 0.0
C3097 C 0.93832 0.45382 0.30526 0.0
C3098 C 0.92391 0.45151 0.29567 0.0
C3099 C 0.89504 0.45896 0.28946 0.0
C3100 C 0.88083 0.469 0.29252 0.0
C3101 C 0.90893 0.45953 0.30016 0.0
C3102 C 0.87992 0.47785 0.30775 0.0
C3103 C 0.89338 0.47774 0.31898 0.0
H3104 H 0.8152 0.73662 0.79833 0.0
H3105 H 0.79239 0.70254 0.76314 0.0
H3106 H 0.76662 0.70262 0.77942 0.0
H3107 H 0.75035 0.71268 0.80324 0.0
H3108 H 0.77306 0.74573 0.83939 0.0
H3109 H 0.79919 0.74563 0.82322 0.0
C3110 C 0.80467 0.72905 0.79435 0.0
C3111 C 0.80568 0.71978 0.77939 0.0
C3112 C 0.78986 0.72903 0.80389 0.0
C3113 C 0.79185 0.71011 0.77436 0.0
C3114 C 0.77712 0.71007 0.78372 0.0
C3115 C 0.76099 0.71993 0.80756 0.0
C3116 C 0.75977 0.72934 0.82236 0.0
C3117 C 0.77593 0.71962 0.79837 0.0
C3118 C 0.77372 0.73844 0.82797 0.0
C3119 C 0.78864 0.73837 0.81874 0.0
H3120 H 0.5474 0.95836 0.70085 0.0
H3121 H 0.58864 0.98445 0.67765 0.0
H3122 H 0.57377 0.98492 0.651 0.0
H3123 H 0.54864 0.97896 0.63454 0.0
H3124 H 0.50801 0.95131 0.65715 0.0
H3125 H 0.52297 0.95052 0.68363 0.0
C3126 C 0.5531 0.9641 0.68994 0.0
C3127 C 0.56903 0.97144 0.69125 0.0
C3128 C 0.54456 0.96414 0.67452 0.0
C3129 C 0.57638 0.97869 0.67697 0.0
C3130 C 0.56788 0.979 0.66171 0.0
C3131 C 0.5431 0.97255 0.64513 0.0
C3132 C 0.52701 0.96551 0.64374 0.0
C3133 C 0.55191 0.97186 0.66035 0.0
C3134 C 0.52013 0.9573 0.6578 0.0
C3135 C 0.52875 0.95671 0.67301 0.0
H3136 H 0.48752 0.26623 0.90862 0.0
H3137 H 0.46691 0.30513 0.87709 0.0
H3138 H 0.46666 0.3243 0.90066 0.0
H3139 H 0.47122 0.32992 0.93049 0.0
H3140 H 0.4902 0.29072 0.96247 0.0
H3141 H 0.49186 0.27173 0.93849 0.0
C3142 C 0.48281 0.27881 0.90682 0.0
C3143 C 0.47723 0.28404 0.89089 0.0
C3144 C 0.48232 0.28977 0.92059 0.0
C3145 C 0.47151 0.30063 0.88899 0.0
C3146 C 0.47123 0.31165 0.90256 0.0
C3147 C 0.4758 0.31724 0.9322 0.0
C3148 C 0.4806 0.31173 0.94822 0.0
C3149 C 0.47649 0.30633 0.91842 0.0
C3150 C 0.48639 0.29524 0.95026 0.0
C3151 C 0.48735 0.28439 0.93656 0.0
H3152 H 0.11115 0.23138 0.18421 0.0
H3153 H 0.15494 0.22958 0.21585 0.0
H3154 H 0.17302 0.23097 0.19131 0.0
H3155 H 0.17647 0.23198 0.1611 0.0
H3156 H 0.13314 0.23469 0.12894 0.0
H3157 H 0.11478 0.23344 0.15348 0.0
C3158 C 0.12464 0.23131 0.18569 0.0
C3159 C 0.13168 0.23036 0.20183 0.0
C3160 C 0.13504 0.23223 0.17147 0.0
C3161 C 0.14919 0.23035 0.20358 0.0
C3162 C 0.15956 0.23113 0.18955 0.0
C3163 C 0.16305 0.23265 0.15935 0.0
C3164 C 0.15625 0.23355 0.1431 0.0
C3165 C 0.15262 0.23205 0.17346 0.0
C3166 C 0.13874 0.23388 0.14125 0.0
C3167 C 0.12823 0.23322 0.15529 0.0
H3168 H 0.22268 0.86784 0.43029 0.0
H3169 H 0.2106 0.90921 0.46289 0.0
H3170 H 0.20691 0.92748 0.43856 0.0
H3171 H 0.20758 0.9317 0.40821 0.0
H3172 H 0.22134 0.89058 0.37577 0.0
H3173 H 0.22344 0.87216 0.39989 0.0
C3174 C 0.21919 0.88085 0.43209 0.0
C3175 C 0.21694 0.88717 0.44839 0.0
C3176 C 0.21729 0.89131 0.41807 0.0
C3177 C 0.21246 0.90405 0.45049 0.0
C3178 C 0.21033 0.91449 0.43657 0.0
C3179 C 0.2112 0.9188 0.40628 0.0
C3180 C 0.21439 0.91276 0.38996 0.0
C3181 C 0.21282 0.90827 0.4203 0.0
C3182 C 0.21865 0.89574 0.38799 0.0
C3183 C 0.21999 0.88514 0.40185 0.0
H3184 H 0.58772 0.23152 0.01554 0.0
H3185 H 0.54348 0.23578 0.98475 0.0
H3186 H 0.52592 0.23646 0.00966 0.0
H3187 H 0.52291 0.23442 0.03981 0.0
H3188 H 0.56681 0.23104 0.07123 0.0
H3189 H 0.58463 0.23124 0.0464 0.0
C3190 C 0.57425 0.23272 0.01431 0.0
C3191 C 0.56694 0.23353 0.99828 0.0
C3192 C 0.56412 0.23311 0.02877 0.0
C3193 C 0.54947 0.23512 0.9969 0.0
C3194 C 0.53938 0.23548 0.01116 0.0
C3195 C 0.53635 0.23401 0.04145 0.0
C3196 C 0.54335 0.23263 0.0576 0.0
C3197 C 0.54655 0.2343 0.02713 0.0
C3198 C 0.56092 0.23185 0.05907 0.0
C3199 C 0.57118 0.23205 0.04483 0.0
H3200 H 0.22678 0.3342 0.26895 0.0
H3201 H 0.23574 0.29053 0.2384 0.0
H3202 H 0.23429 0.27267 0.26326 0.0
H3203 H 0.23078 0.26961 0.29349 0.0
H3204 H 0.22062 0.31306 0.32403 0.0
H3205 H 0.22247 0.33097 0.29927 0.0
C3206 C 0.22848 0.32078 0.26775 0.0
C3207 C 0.23143 0.31367 0.2519 0.0
C3208 C 0.22742 0.3106 0.28204 0.0
C3209 C 0.23343 0.29627 0.25048 0.0
C3210 C 0.23261 0.28607 0.26467 0.0
C3211 C 0.22865 0.28294 0.29478 0.0
C3212 C 0.22543 0.28993 0.31067 0.0
C3213 C 0.22956 0.29311 0.28049 0.0
C3214 C 0.22322 0.30734 0.31202 0.0
C3215 C 0.22422 0.31759 0.29785 0.0
H3216 H 0.15551 0.96938 0.49536 0.0
H3217 H 0.10845 0.9632 0.52121 0.0
H3218 H 0.12309 0.96095 0.54793 0.0
H3219 H 0.14918 0.96181 0.56414 0.0
H3220 H 0.19612 0.96939 0.53837 0.0
H3221 H 0.18169 0.96974 0.5116 0.0
C3222 C 0.1485 0.96736 0.50683 0.0
C3223 C 0.13094 0.96648 0.50631 0.0
C3224 C 0.15698 0.96634 0.52223 0.0
C3225 C 0.12199 0.964 0.52128 0.0
C3226 C 0.13035 0.96271 0.53658 0.0
C3227 C 0.15626 0.96359 0.5527 0.0
C3228 C 0.17375 0.9655 0.55342 0.0
C3229 C 0.14783 0.9641 0.53725 0.0
C3230 C 0.18271 0.96758 0.53834 0.0
C3231 C 0.17444 0.96792 0.52294 0.0
H3232 H 0.47924 0.93516 0.78845 0.0
H3233 H 0.47785 0.89308 0.82241 0.0
H3234 H 0.47884 0.87382 0.79872 0.0
H3235 H 0.4796 0.86889 0.76832 0.0
H3236 H 0.48147 0.91103 0.73451 0.0
H3237 H 0.48122 0.9303 0.75826 0.0
C3238 C 0.47941 0.92181 0.79078 0.0
C3239 C 0.47844 0.91567 0.80732 0.0
C3240 C 0.48014 0.91078 0.7771 0.0
C3241 C 0.47834 0.89823 0.80989 0.0
C3242 C 0.47902 0.88718 0.79632 0.0
C3243 C 0.48009 0.88229 0.76615 0.0
C3244 C 0.48057 0.88852 0.74966 0.0
C3245 C 0.47984 0.89331 0.77987 0.0
C3246 C 0.48117 0.90591 0.74707 0.0
C3247 C 0.48095 0.91694 0.76065 0.0
H3248 H 0.70313 0.54692 0.97429 0.0
H3249 H 0.67536 0.59294 0.97982 0.0
H3250 H 0.64899 0.57728 0.97919 0.0
H3251 H 0.63388 0.55038 0.97667 0.0
H3252 H 0.66233 0.50458 0.97213 0.0
H3253 H 0.68827 0.52032 0.97252 0.0
C3254 C 0.69131 0.55355 0.97536 0.0
C3255 C 0.69119 0.57105 0.97706 0.0
C3256 C 0.67628 0.5445 0.97503 0.0
C3257 C 0.67578 0.57945 0.97852 0.0
C3258 C 0.66071 0.5705 0.97813 0.0
C3259 C 0.64575 0.54385 0.97585 0.0
C3260 C 0.64601 0.52629 0.97411 0.0
C3261 C 0.6608 0.55301 0.97635 0.0
C3262 C 0.66158 0.51807 0.97301 0.0
C3263 C 0.67651 0.52706 0.9734 0.0
H3264 H 0.87396 0.43237 0.2177 0.0
H3265 H 0.91625 0.46371 0.22984 0.0
H3266 H 0.93475 0.43931 0.22899 0.0
H3267 H 0.9387 0.40897 0.22581 0.0
H3268 H 0.89637 0.37757 0.21402 0.0
H3269 H 0.87803 0.40211 0.21394 0.0
C3270 C 0.88724 0.4339 0.22004 0.0
C3271 C 0.89372 0.44986 0.22378 0.0
C3272 C 0.89776 0.41979 0.21973 0.0
C3273 C 0.91095 0.45158 0.22688 0.0
C3274 C 0.92153 0.43763 0.22644 0.0
C3275 C 0.92551 0.4075 0.22298 0.0
C3276 C 0.91894 0.39142 0.21986 0.0
C3277 C 0.91505 0.42165 0.22299 0.0
C3278 C 0.90173 0.38975 0.21661 0.0
C3279 C 0.89125 0.40379 0.21648 0.0
H3280 H 0.99412 0.65708 0.47621 0.0
H3281 H 0.02038 0.60999 0.47223 0.0
H3282 H 0.0469 0.62473 0.46899 0.0
H3283 H 0.06283 0.65096 0.4678 0.0
H3284 H 0.03679 0.69807 0.47265 0.0
H3285 H 0.01014 0.68342 0.47476 0.0
C3286 C 0.00564 0.65007 0.47454 0.0
C3287 C 0.00525 0.63248 0.47451 0.0
C3288 C 0.02095 0.65864 0.4728 0.0
C3289 C 0.02031 0.62356 0.47238 0.0
C3290 C 0.03551 0.63197 0.47052 0.0
C3291 C 0.05135 0.65802 0.4694 0.0
C3292 C 0.05193 0.67561 0.46999 0.0
C3293 C 0.03602 0.6495 0.47083 0.0
C3294 C 0.03682 0.68455 0.47185 0.0
C3295 C 0.02152 0.67617 0.4732 0.0
H3296 H 0.76631 0.7942 0.70769 0.0
H3297 H 0.80499 0.82725 0.72604 0.0
H3298 H 0.82458 0.80399 0.72715 0.0
H3299 H 0.83061 0.77409 0.72404 0.0
H3300 H 0.7918 0.7406 0.70707 0.0
H3301 H 0.77237 0.76417 0.70451 0.0
C3302 C 0.77896 0.79636 0.71206 0.0
C3303 C 0.78403 0.81261 0.71678 0.0
C3304 C 0.79018 0.7828 0.713 0.0
C3305 C 0.80066 0.81505 0.7221 0.0
C3306 C 0.81191 0.80169 0.72287 0.0
C3307 C 0.81792 0.77194 0.7197 0.0
C3308 C 0.81265 0.75561 0.71577 0.0
C3309 C 0.80678 0.7855 0.71847 0.0
C3310 C 0.79615 0.75305 0.71023 0.0
C3311 C 0.78504 0.76652 0.70876 0.0
H3312 H 0.69125 0.6459 0.70698 0.0
H3313 H 0.67258 0.60837 0.74094 0.0
H3314 H 0.64534 0.62257 0.74207 0.0
H3315 H 0.62785 0.64709 0.73518 0.0
H3316 H 0.64591 0.68302 0.69897 0.0
H3317 H 0.67226 0.66794 0.6968 0.0
C3318 C 0.68112 0.64081 0.71449 0.0
C3319 C 0.68383 0.62633 0.72404 0.0
C3320 C 0.66544 0.64878 0.71472 0.0
C3321 C 0.67065 0.61957 0.73352 0.0
C3322 C 0.65514 0.6277 0.73419 0.0
C3323 C 0.63734 0.65145 0.72653 0.0
C3324 C 0.63498 0.66656 0.7177 0.0
C3325 C 0.65247 0.6425 0.72505 0.0
C3326 C 0.64752 0.67182 0.70643 0.0
C3327 C 0.66263 0.66315 0.70509 0.0
H3328 H 0.7658 0.4018 0.97579 0.0
H3329 H 0.80734 0.36734 0.97315 0.0
H3330 H 0.82681 0.39091 0.97049 0.0
H3331 H 0.83193 0.42135 0.96971 0.0
H3332 H 0.79006 0.45547 0.97248 0.0
H3333 H 0.77071 0.43187 0.974 0.0
C3334 C 0.77905 0.39935 0.97428 0.0
C3335 C 0.78509 0.38277 0.97451 0.0
C3336 C 0.7901 0.41291 0.97285 0.0
C3337 C 0.8024 0.37997 0.97306 0.0
C3338 C 0.81351 0.39343 0.97151 0.0
C3339 C 0.81857 0.42361 0.97056 0.0
C3340 C 0.81244 0.44014 0.97105 0.0
C3341 C 0.8075 0.40996 0.97153 0.0
C3342 C 0.7951 0.44287 0.97216 0.0
C3343 C 0.78402 0.42939 0.97303 0.0
H3344 H 0.0255 0.58337 0.21311 0.0
H3345 H 0.9916 0.54149 0.21775 0.0
H3346 H 0.01516 0.52217 0.21836 0.0
H3347 H 0.04511 0.51718 0.21897 0.0
H3348 H 0.07967 0.55843 0.21455 0.0
H3349 H 0.05609 0.57805 0.21265 0.0
C3350 C 0.02331 0.57 0.21414 0.0
C3351 C 0.00682 0.56389 0.21545 0.0
C3352 C 0.03699 0.55888 0.21462 0.0
C3353 C 0.00415 0.54655 0.21682 0.0
C3354 C 0.01762 0.53547 0.21716 0.0
C3355 C 0.04759 0.53039 0.2172 0.0
C3356 C 0.06418 0.53629 0.21671 0.0
C3357 C 0.03406 0.5415 0.21622 0.0
C3358 C 0.06702 0.55358 0.21499 0.0
C3359 C 0.05355 0.56478 0.21388 0.0
H3360 H 0.87771 0.7726 0.48434 0.0
H3361 H 0.91731 0.73892 0.46952 0.0
H3362 H 0.9371 0.7624 0.46879 0.0
H3363 H 0.94276 0.79272 0.47158 0.0
H3364 H 0.90275 0.82598 0.48625 0.0
H3365 H 0.8834 0.80239 0.48766 0.0
C3366 C 0.89069 0.77034 0.48099 0.0
C3367 C 0.89604 0.75404 0.47698 0.0
C3368 C 0.90187 0.78384 0.48048 0.0
C3369 C 0.91289 0.75135 0.47269 0.0
C3370 C 0.92418 0.76477 0.47224 0.0
C3371 C 0.92986 0.79477 0.47527 0.0
C3372 C 0.9242 0.81113 0.47877 0.0
C3373 C 0.91877 0.7811 0.47603 0.0
C3374 C 0.90737 0.81358 0.48328 0.0
C3375 C 0.89632 0.80009 0.48417 0.0
H3376 H 0.9734 0.65995 0.5204 0.0
H3377 H 0.9701 0.62692 0.56309 0.0
H3378 H 0.97237 0.65089 0.58194 0.0
H3379 H 0.97521 0.68143 0.58633 0.0
H3380 H 0.97745 0.71414 0.54333 0.0
H3381 H 0.97541 0.69012 0.52464 0.0
C3382 C 0.97291 0.65791 0.5338 0.0
C3383 C 0.97153 0.64153 0.54022 0.0
C3384 C 0.97403 0.67176 0.54457 0.0
C3385 C 0.97132 0.6393 0.55771 0.0
C3386 C 0.97255 0.65304 0.56854 0.0
C3387 C 0.97525 0.68327 0.57287 0.0
C3388 C 0.97649 0.69957 0.56626 0.0
C3389 C 0.97394 0.66934 0.56211 0.0
C3390 C 0.97646 0.70176 0.54878 0.0
C3391 C 0.97531 0.68801 0.53806 0.0
H3392 H 0.46579 0.99926 0.65299 0.0
H3393 H 0.47084 0.0249 0.60567 0.0
H3394 H 0.47088 0.05188 0.61997 0.0
H3395 H 0.46999 0.06833 0.64607 0.0
H3396 H 0.46569 0.04244 0.69333 0.0
H3397 H 0.46469 0.01568 0.67896 0.0
C3398 C 0.4668 0.01076 0.64581 0.0
C3399 C 0.46833 0.01005 0.62831 0.0
C3400 C 0.46694 0.02629 0.65412 0.0
C3401 C 0.46968 0.02507 0.61919 0.0
C3402 C 0.46972 0.04054 0.62735 0.0
C3403 C 0.46888 0.05683 0.65319 0.0
C3404 C 0.46773 0.05753 0.67074 0.0
C3405 C 0.46848 0.04131 0.64483 0.0
C3406 C 0.46621 0.04245 0.6798 0.0
C3407 C 0.46577 0.02703 0.67159 0.0
H3408 H 0.40335 0.21917 0.93571 0.0
H3409 H 0.36772 0.21313 0.89549 0.0
H3410 H 0.39039 0.21468 0.87506 0.0
H3411 H 0.42053 0.21784 0.86853 0.0
H3412 H 0.45586 0.22252 0.90915 0.0
H3413 H 0.43311 0.22111 0.92944 0.0
C3414 C 0.40042 0.21792 0.92255 0.0
C3415 C 0.38367 0.21605 0.91731 0.0
C3416 C 0.41354 0.21857 0.91084 0.0
C3417 C 0.38037 0.2148 0.90002 0.0
C3418 C 0.39338 0.2156 0.88827 0.0
C3419 C 0.42321 0.21853 0.88183 0.0
C3420 C 0.43987 0.2203 0.8873 0.0
C3421 C 0.41003 0.21755 0.89353 0.0
C3422 C 0.44317 0.22109 0.90458 0.0
C3423 C 0.43015 0.22032 0.91622 0.0
H3424 H 0.2188 0.1769 0.12141 0.0
H3425 H 0.21396 0.21088 0.16316 0.0
H3426 H 0.21607 0.18743 0.18272 0.0
H3427 H 0.21918 0.15737 0.18793 0.0
H3428 H 0.22493 0.12338 0.1463 0.0
H3429 H 0.22237 0.14675 0.12671 0.0
C3430 C 0.21814 0.17916 0.13479 0.0
C3431 C 0.21619 0.1956 0.14083 0.0
C3432 C 0.21952 0.16563 0.14598 0.0
C3433 C 0.21548 0.19834 0.1582 0.0
C3434 C 0.21669 0.18494 0.16939 0.0
C3435 C 0.22013 0.15503 0.1746 0.0
C3436 C 0.22233 0.13856 0.16865 0.0
C3437 C 0.21878 0.16854 0.16342 0.0
C3438 C 0.2231 0.13585 0.15126 0.0
C3439 C 0.2217 0.14924 0.14004 0.0
H3440 H 0.79241 0.47235 0.93177 0.0
H3441 H 0.82483 0.47728 0.88879 0.0
H3442 H 0.80054 0.47528 0.87017 0.0
H3443 H 0.76989 0.4727 0.86627 0.0
H3444 H 0.73792 0.46892 0.90974 0.0
H3445 H 0.76229 0.47019 0.92805 0.0
C3446 C 0.79425 0.4733 0.91836 0.0
C3447 C 0.81048 0.47518 0.91173 0.0
C3448 C 0.78027 0.47235 0.90782 0.0
C3449 C 0.81251 0.47579 0.89424 0.0
C3450 C 0.79861 0.47471 0.8836 0.0
C3451 C 0.7683 0.47211 0.87975 0.0
C3452 C 0.75213 0.47075 0.88664 0.0
C3453 C 0.78241 0.47303 0.89026 0.0
C3454 C 0.75022 0.47006 0.90412 0.0
C3455 C 0.76415 0.47076 0.91461 0.0
H3456 H 0.71899 0.56838 0.05218 0.0
H3457 H 0.75311 0.5455 0.017 0.0
H3458 H 0.75121 0.51904 0.032 0.0
H3459 H 0.73932 0.50209 0.05455 0.0
H3460 H 0.70653 0.52488 0.09092 0.0
H3461 H 0.70849 0.55172 0.07608 0.0
C3462 C 0.72621 0.55769 0.04795 0.0
C3463 C 0.73598 0.55891 0.03329 0.0
C3464 C 0.72517 0.54245 0.05676 0.0
C3465 C 0.74519 0.54485 0.02798 0.0
C3466 C 0.74416 0.5297 0.03659 0.0
C3467 C 0.73252 0.51292 0.05918 0.0
C3468 C 0.72259 0.5115 0.07363 0.0
C3469 C 0.734 0.52829 0.05082 0.0
C3470 C 0.71416 0.52569 0.07972 0.0
C3471 C 0.7153 0.54101 0.07126 0.0
H3472 H 0.40379 0.99242 0.76922 0.0
H3473 H 0.3717 0.9737 0.8086 0.0
H3474 H 0.39578 0.97127 0.82715 0.0
H3475 H 0.42615 0.97316 0.83182 0.0
H3476 H 0.45834 0.9901 0.79183 0.0
H3477 H 0.43398 0.99413 0.77373 0.0
C3478 C 0.40194 0.98761 0.78175 0.0
C3479 C 0.38578 0.98311 0.78732 0.0
C3480 C 0.41593 0.9858 0.79224 0.0
C3481 C 0.38384 0.97739 0.80389 0.0
C3482 C 0.39767 0.97587 0.81451 0.0
C3483 C 0.42783 0.97779 0.81915 0.0
C3484 C 0.44403 0.98131 0.81315 0.0
C3485 C 0.41379 0.97986 0.80876 0.0
C3486 C 0.44601 0.98722 0.79671 0.0
C3487 C 0.43208 0.98956 0.78637 0.0
H3488 H 0.29711 0.22549 0.26464 0.0
H3489 H 0.33202 0.2125 0.30383 0.0
H3490 H 0.31013 0.21638 0.32478 0.0
H3491 H 0.28083 0.22304 0.33203 0.0
H3492 H 0.24577 0.23445 0.29255 0.0
H3493 H 0.26793 0.23143 0.27168 0.0
C3494 C 0.29997 0.22325 0.2777 0.0
C3495 C 0.31632 0.21867 0.28253 0.0
C3496 C 0.28725 0.22525 0.28969 0.0
C3497 C 0.31968 0.21622 0.29966 0.0
C3498 C 0.30712 0.21836 0.3117 0.0
C3499 C 0.2781 0.22494 0.31886 0.0
C3500 C 0.26172 0.22897 0.31383 0.0
C3501 C 0.29086 0.22289 0.30686 0.0
C3502 C 0.25828 0.23125 0.29672 0.0
C3503 C 0.27094 0.22954 0.28478 0.0
loop_
_geom_bond_atom_site_label_1
_geom_bond_atom_site_label_2
_geom_bond_distance
_geom_bond_site_symmetry_2
_ccdc_geom_bond_type
Co0 N4 2.148 . S
Co0 N10 2.128 . S
Co0 N20 2.194 . S
Co0 O25 2.351 . S
Co0 O26 2.155 . S
Co0 O27 2.096 . S
C1 N4 1.301 . S
C1 N5 1.328 . S
C1 H6 0.930 . S
C2 C3 1.333 . S
C2 N4 1.317 . S
C2 H7 0.930 . S
C3 C2 1.333 . S
C3 N5 1.350 . S
C3 H29 0.931 . S
N4 Co0 2.148 . S
N4 C1 1.301 . S
N4 C2 1.317 . S
N5 C1 1.328 . S
N5 C3 1.350 . S
H6 C1 0.930 . S
H7 C2 0.930 . S
C8 O9 1.224 . S
C8 O27 1.247 . S
O9 C8 1.224 . S
N10 Co0 2.128 . S
N10 C11 1.355 . S
N10 C13 1.311 . S
C11 N10 1.355 . S
C11 C12 1.363 . S
C11 H23 0.929 . S
C12 C11 1.363 . S
C12 N14 1.375 . S
C12 H30 0.931 . S
C13 N10 1.311 . S
C13 N14 1.347 . S
C13 H24 0.929 . S
N14 C12 1.375 . S
N14 C13 1.347 . S
C15 C18 1.365 . S
C15 N20 1.328 . S
C15 H21 0.929 . S
C16 C17 1.362 . S
C16 C19 1.378 . S
C16 H31 0.929 . S
C17 C16 1.362 . S
C17 C18 1.366 . S
C18 C15 1.365 . S
C18 C17 1.366 . S
C18 H32 0.930 . S
C19 C16 1.378 . S
C19 N20 1.315 . S
C19 H22 0.930 . S
N20 Co0 2.194 . S
N20 C15 1.328 . S
N20 C19 1.315 . S
H21 C15 0.929 . S
H22 C19 0.930 . S
H23 C11 0.929 . S
H24 C13 0.929 . S
O25 Co0 2.351 . S
O25 C28 1.244 . S
O26 Co0 2.155 . S
O26 C28 1.240 . S
O27 Co0 2.096 . S
O27 C8 1.247 . S
C28 O25 1.244 . S
C28 O26 1.240 . S
H29 C3 0.931 . S
H30 C12 0.931 . S
H31 C16 0.929 . S
H32 C18 0.930 . S
Co33 N37 2.148 1_655 S
Co33 N43 2.128 . S
Co33 N53 2.194 . S
Co33 O58 2.351 . S
Co33 O59 2.155 . S
Co33 O60 2.096 . S
C34 N37 1.301 . S
C34 N38 1.328 . S
C34 H39 0.930 . S
C35 C36 1.333 . S
C35 N37 1.317 . S
C35 H40 0.930 . S
C36 C35 1.333 . S
C36 N38 1.350 . S
C36 H62 0.931 . S
N37 Co33 2.148 1_455 S
N37 C34 1.301 . S
N37 C35 1.317 . S
N38 C34 1.328 . S
N38 C36 1.350 . S
H39 C34 0.930 . S
H40 C35 0.930 . S
C41 O42 1.224 . S
C41 O60 1.247 . S
O42 C41 1.224 . S
N43 Co33 2.128 . S
N43 C44 1.355 . S
N43 C46 1.311 . S
C44 N43 1.355 . S
C44 C45 1.363 . S
C44 H56 0.929 . S
C45 C44 1.363 . S
C45 N47 1.375 . S
C45 H63 0.931 . S
C46 N43 1.311 . S
C46 N47 1.347 . S
C46 H57 0.929 . S
N47 C45 1.375 . S
N47 C46 1.347 . S
C48 C51 1.365 . S
C48 N53 1.328 . S
C48 H54 0.929 . S
C49 C50 1.362 . S
C49 C52 1.378 . S
C49 H64 0.929 . S
C50 C49 1.362 . S
C50 C51 1.366 . S
C51 C48 1.365 . S
C51 C50 1.366 . S
C51 H65 0.930 . S
C52 C49 1.378 . S
C52 N53 1.315 . S
C52 H55 0.930 . S
N53 Co33 2.194 . S
N53 C48 1.328 . S
N53 C52 1.315 . S
H54 C48 0.929 . S
H55 C52 0.930 . S
H56 C44 0.929 . S
H57 C46 0.929 . S
O58 Co33 2.351 . S
O58 C61 1.244 . S
O59 Co33 2.155 . S
O59 C61 1.240 . S
O60 Co33 2.096 . S
O60 C41 1.247 . S
C61 O58 1.244 . S
C61 O59 1.240 . S
H62 C36 0.931 . S
H63 C45 0.931 . S
H64 C49 0.929 . S
H65 C51 0.930 . S
Co66 N70 2.148 . S
Co66 N76 2.128 . S
Co66 N86 2.194 . S
Co66 O91 2.351 . S
Co66 O92 2.155 . S
Co66 O93 2.096 . S
C67 N70 1.301 . S
C67 N71 1.328 . S
C67 H72 0.930 . S
C68 C69 1.333 . S
C68 N70 1.317 . S
C68 H73 0.930 . S
C69 C68 1.333 . S
C69 N71 1.350 . S
C69 H95 0.931 . S
N70 Co66 2.148 . S
N70 C67 1.301 . S
N70 C68 1.317 . S
N71 C67 1.328 . S
N71 C69 1.350 . S
H72 C67 0.930 . S
H73 C68 0.930 . S
C74 O75 1.224 . S
C74 O93 1.247 . S
O75 C74 1.224 . S
N76 Co66 2.128 . S
N76 C77 1.355 . S
N76 C79 1.311 . S
C77 N76 1.355 . S
C77 C78 1.363 . S
C77 H89 0.929 . S
C78 C77 1.363 . S
C78 N80 1.375 . S
C78 H96 0.931 . S
C79 N76 1.311 . S
C79 N80 1.347 . S
C79 H90 0.929 . S
N80 C78 1.375 . S
N80 C79 1.347 . S
C81 C84 1.365 . S
C81 N86 1.328 . S
C81 H87 0.929 . S
C82 C83 1.362 . S
C82 C85 1.378 . S
C82 H97 0.929 . S
C83 C82 1.362 . S
C83 C84 1.366 . S
C84 C81 1.365 . S
C84 C83 1.366 . S
C84 H98 0.930 . S
C85 C82 1.378 . S
C85 N86 1.315 . S
C85 H88 0.930 . S
N86 Co66 2.194 . S
N86 C81 1.328 . S
N86 C85 1.315 . S
H87 C81 0.929 . S
H88 C85 0.930 . S
H89 C77 0.929 . S
H90 C79 0.929 . S
O91 Co66 2.351 . S
O91 C94 1.244 . S
O92 Co66 2.155 . S
O92 C94 1.240 . S
O93 Co66 2.096 . S
O93 C74 1.247 . S
C94 O91 1.244 . S
C94 O92 1.240 . S
H95 C69 0.931 . S
H96 C78 0.931 . S
H97 C82 0.929 . S
H98 C84 0.930 . S
Co99 N103 2.148 . S
Co99 N109 2.128 . S
Co99 N119 2.194 . S
Co99 O124 2.351 . S
Co99 O125 2.155 . S
Co99 O126 2.096 . S
C100 N103 1.301 . S
C100 N104 1.328 . S
C100 H105 0.930 . S
C101 C102 1.333 . S
C101 N103 1.317 . S
C101 H106 0.930 . S
C102 C101 1.333 . S
C102 N104 1.350 . S
C102 H128 0.931 . S
N103 Co99 2.148 . S
N103 C100 1.301 . S
N103 C101 1.317 . S
N104 C100 1.328 . S
N104 C102 1.350 . S
H105 C100 0.930 . S
H106 C101 0.930 . S
C107 O108 1.224 . S
C107 O126 1.247 1_554 S
O108 C107 1.224 . S
N109 Co99 2.128 . S
N109 C110 1.355 . S
N109 C112 1.311 . S
C110 N109 1.355 . S
C110 C111 1.363 . S
C110 H122 0.929 . S
C111 C110 1.363 . S
C111 N113 1.375 . S
C111 H129 0.931 . S
C112 N109 1.311 . S
C112 N113 1.347 . S
C112 H123 0.929 . S
N113 C111 1.375 . S
N113 C112 1.347 . S
C114 C117 1.365 . S
C114 N119 1.328 . S
C114 H120 0.929 . S
C115 C116 1.362 . S
C115 C118 1.378 . S
C115 H130 0.929 . S
C116 C115 1.362 . S
C116 C117 1.366 . S
C117 C114 1.365 . S
C117 C116 1.366 . S
C117 H131 0.930 . S
C118 C115 1.378 . S
C118 N119 1.315 . S
C118 H121 0.930 . S
N119 Co99 2.194 . S
N119 C114 1.328 . S
N119 C118 1.315 . S
H120 C114 0.929 . S
H121 C118 0.930 . S
H122 C110 0.929 . S
H123 C112 0.929 . S
O124 Co99 2.351 . S
O124 C127 1.244 . S
O125 Co99 2.155 . S
O125 C127 1.240 . S
O126 Co99 2.096 . S
O126 C107 1.247 1_556 S
C127 O124 1.244 . S
C127 O125 1.240 . S
H128 C102 0.931 . S
H129 C111 0.931 . S
H130 C115 0.929 . S
H131 C117 0.930 . S
Co132 N136 2.148 . S
Co132 N142 2.128 . S
Co132 N152 2.194 . S
Co132 O157 2.351 . S
Co132 O158 2.155 . S
Co132 O159 2.096 . S
C133 N136 1.301 . S
C133 N137 1.328 . S
C133 H138 0.930 . S
C134 C135 1.333 . S
C134 N136 1.317 . S
C134 H139 0.930 . S
C135 C134 1.333 . S
C135 N137 1.350 . S
C135 H161 0.931 . S
N136 Co132 2.148 . S
N136 C133 1.301 . S
N136 C134 1.317 . S
N137 C133 1.328 . S
N137 C135 1.350 . S
H138 C133 0.930 . S
H139 C134 0.930 . S
C140 O141 1.224 . S
C140 O159 1.247 . S
O141 C140 1.224 . S
N142 Co132 2.128 . S
N142 C143 1.355 . S
N142 C145 1.311 . S
C143 N142 1.355 . S
C143 C144 1.363 . S
C143 H155 0.929 . S
C144 C143 1.363 . S
C144 N146 1.375 . S
C144 H162 0.931 . S
C145 N142 1.311 . S
C145 N146 1.347 . S
C145 H156 0.929 . S
N146 C144 1.375 . S
N146 C145 1.347 . S
C147 C150 1.365 . S
C147 N152 1.328 . S
C147 H153 0.929 . S
C148 C149 1.362 . S
C148 C151 1.378 . S
C148 H163 0.929 . S
C149 C148 1.362 . S
C149 C150 1.366 . S
C150 C147 1.365 . S
C150 C149 1.366 . S
C150 H164 0.930 . S
C151 C148 1.378 . S
C151 N152 1.315 . S
C151 H154 0.930 . S
N152 Co132 2.194 . S
N152 C147 1.328 . S
N152 C151 1.315 . S
H153 C147 0.929 . S
H154 C151 0.930 . S
H155 C143 0.929 . S
H156 C145 0.929 . S
O157 Co132 2.351 . S
O157 C160 1.244 . S
O158 Co132 2.155 . S
O158 C160 1.240 . S
O159 Co132 2.096 . S
O159 C140 1.247 . S
C160 O157 1.244 . S
C160 O158 1.240 . S
H161 C135 0.931 . S
H162 C144 0.931 . S
H163 C148 0.929 . S
H164 C150 0.930 . S
Co165 N169 2.148 . S
Co165 N175 2.128 . S
Co165 N185 2.194 . S
Co165 O190 2.351 . S
Co165 O191 2.155 . S
Co165 O192 2.096 . S
C166 N169 1.301 . S
C166 N170 1.328 . S
C166 H171 0.930 . S
C167 C168 1.333 . S
C167 N169 1.317 . S
C167 H172 0.930 . S
C168 C167 1.333 . S
C168 N170 1.350 . S
C168 H194 0.931 . S
N169 Co165 2.148 . S
N169 C166 1.301 . S
N169 C167 1.317 . S
N170 C166 1.328 . S
N170 C168 1.350 . S
H171 C166 0.930 . S
H172 C167 0.930 . S
C173 O174 1.224 . S
C173 O192 1.247 . S
O174 C173 1.224 . S
N175 Co165 2.128 . S
N175 C176 1.355 . S
N175 C178 1.311 . S
C176 N175 1.355 . S
C176 C177 1.363 . S
C176 H188 0.929 . S
C177 C176 1.363 . S
C177 N179 1.375 . S
C177 H195 0.931 . S
C178 N175 1.311 . S
C178 N179 1.347 . S
C178 H189 0.929 . S
N179 C177 1.375 . S
N179 C178 1.347 . S
C180 C183 1.365 . S
C180 N185 1.328 . S
C180 H186 0.929 . S
C181 C182 1.362 . S
C181 C184 1.378 . S
C181 H196 0.929 . S
C182 C181 1.362 . S
C182 C183 1.366 . S
C183 C180 1.365 . S
C183 C182 1.366 . S
C183 H197 0.930 . S
C184 C181 1.378 . S
C184 N185 1.315 . S
C184 H187 0.930 . S
N185 Co165 2.194 . S
N185 C180 1.328 . S
N185 C184 1.315 . S
H186 C180 0.929 . S
H187 C184 0.930 . S
H188 C176 0.929 . S
H189 C178 0.929 . S
O190 Co165 2.351 . S
O190 C193 1.244 . S
O191 Co165 2.155 . S
O191 C193 1.240 . S
O192 Co165 2.096 . S
O192 C173 1.247 . S
C193 O190 1.244 . S
C193 O191 1.240 . S
H194 C168 0.931 . S
H195 C177 0.931 . S
H196 C181 0.929 . S
H197 C183 0.930 . S
Co198 N202 2.148 . S
Co198 N208 2.128 . S
Co198 N218 2.194 . S
Co198 O223 2.351 1_556 S
Co198 O224 2.155 . S
Co198 O225 2.096 . S
C199 N202 1.301 . S
C199 N203 1.328 . S
C199 H204 0.930 . S
C200 C201 1.333 . S
C200 N202 1.317 . S
C200 H205 0.930 . S
C201 C200 1.333 . S
C201 N203 1.350 . S
C201 H227 0.931 . S
N202 Co198 2.148 . S
N202 C199 1.301 . S
N202 C200 1.317 . S
N203 C199 1.328 . S
N203 C201 1.350 . S
H204 C199 0.930 . S
H205 C200 0.930 . S
C206 O207 1.224 . S
C206 O225 1.247 . S
O207 C206 1.224 . S
N208 Co198 2.128 . S
N208 C209 1.355 . S
N208 C211 1.311 . S
C209 N208 1.355 . S
C209 C210 1.363 . S
C209 H221 0.929 . S
C210 C209 1.363 . S
C210 N212 1.375 . S
C210 H228 0.931 . S
C211 N208 1.311 . S
C211 N212 1.347 . S
C211 H222 0.929 . S
N212 C210 1.375 . S
N212 C211 1.347 . S
C213 C216 1.365 . S
C213 N218 1.328 . S
C213 H219 0.909 1_556 S
C214 C215 1.362 . S
C214 C217 1.378 . S
C214 H229 0.929 . S
C215 C214 1.362 . S
C215 C216 1.366 . S
C216 C213 1.365 . S
C216 C215 1.366 . S
C216 H230 0.938 . S
C217 C214 1.378 . S
C217 N218 1.315 . S
C217 H220 0.930 . S
N218 Co198 2.194 . S
N218 C213 1.328 . S
N218 C217 1.315 . S
H219 C213 0.909 1_554 S
H220 C217 0.930 . S
H221 C209 0.929 . S
H222 C211 0.929 . S
O223 Co198 2.351 1_554 S
O223 C226 1.244 . S
O224 Co198 2.155 . S
O224 C226 1.240 1_556 S
O225 Co198 2.096 . S
O225 C206 1.247 . S
C226 O223 1.244 . S
C226 O224 1.240 1_554 S
H227 C201 0.931 . S
H228 C210 0.931 . S
H229 C214 0.929 . S
H230 C216 0.938 . S
Co231 N235 2.148 1_655 S
Co231 N241 2.128 . S
Co231 N251 2.194 . S
Co231 O256 2.351 . S
Co231 O257 2.155 . S
Co231 O258 2.096 . S
C232 N235 1.301 . S
C232 N236 1.328 . S
C232 H237 0.930 . S
C233 C234 1.333 . S
C233 N235 1.317 . S
C233 H238 0.930 . S
C234 C233 1.333 . S
C234 N236 1.350 . S
C234 H260 0.931 . S
N235 Co231 2.148 1_455 S
N235 C232 1.301 . S
N235 C233 1.317 . S
N236 C232 1.328 . S
N236 C234 1.350 . S
H237 C232 0.930 . S
H238 C233 0.930 . S
C239 O240 1.224 . S
C239 O258 1.247 . S
O240 C239 1.224 . S
N241 Co231 2.128 . S
N241 C242 1.355 . S
N241 C244 1.311 . S
C242 N241 1.355 . S
C242 C243 1.363 . S
C242 H254 0.929 . S
C243 C242 1.363 . S
C243 N245 1.375 . S
C243 H261 0.931 . S
C244 N241 1.311 . S
C244 N245 1.347 . S
C244 H255 0.929 . S
N245 C243 1.375 . S
N245 C244 1.347 . S
C246 C249 1.365 . S
C246 N251 1.328 . S
C246 H252 0.929 . S
C247 C248 1.362 . S
C247 C250 1.378 . S
C247 H262 0.929 . S
C248 C247 1.362 . S
C248 C249 1.366 . S
C249 C246 1.365 . S
C249 C248 1.366 . S
C249 H263 0.930 . S
C250 C247 1.378 . S
C250 N251 1.315 . S
C250 H253 0.930 . S
N251 Co231 2.194 . S
N251 C246 1.328 . S
N251 C250 1.315 . S
H252 C246 0.929 . S
H253 C250 0.930 . S
H254 C242 0.929 . S
H255 C244 0.929 . S
O256 Co231 2.351 . S
O256 C259 1.244 . S
O257 Co231 2.155 . S
O257 C259 1.240 . S
O258 Co231 2.096 . S
O258 C239 1.247 . S
C259 O256 1.244 . S
C259 O257 1.240 . S
H260 C234 0.931 . S
H261 C243 0.931 . S
H262 C247 0.929 . S
H263 C249 0.930 . S
Co264 N268 2.148 . S
Co264 N274 2.128 . S
Co264 N284 2.194 . S
Co264 O289 2.351 . S
Co264 O290 2.155 . S
Co264 O291 2.096 . S
C265 N268 1.301 . S
C265 N269 1.328 . S
C265 H270 0.930 . S
C266 C267 1.333 . S
C266 N268 1.317 . S
C266 H271 0.930 . S
C267 C266 1.333 . S
C267 N269 1.350 . S
C267 H293 0.931 . S
N268 Co264 2.148 . S
N268 C265 1.301 . S
N268 C266 1.317 . S
N269 C265 1.328 . S
N269 C267 1.350 . S
H270 C265 0.930 . S
H271 C266 0.930 . S
C272 O273 1.224 . S
C272 O291 1.247 . S
O273 C272 1.224 . S
N274 Co264 2.128 . S
N274 C275 1.355 . S
N274 C277 1.311 . S
C275 N274 1.355 . S
C275 C276 1.363 . S
C275 H287 0.929 . S
C276 C275 1.363 . S
C276 N278 1.375 . S
C276 H294 0.931 . S
C277 N274 1.311 . S
C277 N278 1.347 . S
C277 H288 0.929 . S
N278 C276 1.375 . S
N278 C277 1.347 . S
C279 C282 1.365 . S
C279 N284 1.328 . S
C279 H285 0.929 . S
C280 C281 1.362 . S
C280 C283 1.378 . S
C280 H295 0.929 . S
C281 C280 1.362 . S
C281 C282 1.366 . S
C282 C279 1.365 . S
C282 C281 1.366 . S
C282 H296 0.930 . S
C283 C280 1.378 . S
C283 N284 1.315 . S
C283 H286 0.930 . S
N284 Co264 2.194 . S
N284 C279 1.328 . S
N284 C283 1.315 . S
H285 C279 0.929 . S
H286 C283 0.930 . S
H287 C275 0.929 . S
H288 C277 0.929 . S
O289 Co264 2.351 . S
O289 C292 1.244 . S
O290 Co264 2.155 . S
O290 C292 1.240 . S
O291 Co264 2.096 . S
O291 C272 1.247 . S
C292 O289 1.244 . S
C292 O290 1.240 . S
H293 C267 0.931 . S
H294 C276 0.931 . S
H295 C280 0.929 . S
H296 C282 0.930 . S
Co297 N301 2.148 . S
Co297 N307 2.128 . S
Co297 N317 2.194 . S
Co297 O322 2.351 . S
Co297 O323 2.155 . S
Co297 O324 2.096 . S
C298 N301 1.301 . S
C298 N302 1.328 . S
C298 H303 0.930 . S
C299 C300 1.333 . S
C299 N301 1.317 . S
C299 H304 0.930 . S
C300 C299 1.333 . S
C300 N302 1.350 . S
C300 H326 0.931 . S
N301 Co297 2.148 . S
N301 C298 1.301 . S
N301 C299 1.317 . S
N302 C298 1.328 . S
N302 C300 1.350 . S
H303 C298 0.930 . S
H304 C299 0.930 . S
C305 O306 1.224 . S
C305 O324 1.247 1_545 S
O306 C305 1.224 . S
N307 Co297 2.128 . S
N307 C308 1.355 . S
N307 C310 1.311 . S
C308 N307 1.355 . S
C308 C309 1.363 . S
C308 H320 0.929 . S
C309 C308 1.363 . S
C309 N311 1.375 . S
C309 H327 0.931 . S
C310 N307 1.311 . S
C310 N311 1.347 . S
C310 H321 0.929 . S
N311 C309 1.375 . S
N311 C310 1.347 . S
C312 C315 1.365 . S
C312 N317 1.328 . S
C312 H318 0.929 . S
C313 C314 1.362 . S
C313 C316 1.378 . S
C313 H328 0.929 . S
C314 C313 1.362 . S
C314 C315 1.366 . S
C315 C312 1.365 . S
C315 C314 1.366 . S
C315 H329 0.930 . S
C316 C313 1.378 . S
C316 N317 1.315 . S
C316 H319 0.930 . S
N317 Co297 2.194 . S
N317 C312 1.328 . S
N317 C316 1.315 . S
H318 C312 0.929 . S
H319 C316 0.930 . S
H320 C308 0.929 . S
H321 C310 0.929 . S
O322 Co297 2.351 . S
O322 C325 1.244 . S
O323 Co297 2.155 . S
O323 C325 1.240 . S
O324 Co297 2.096 . S
O324 C305 1.247 1_565 S
C325 O322 1.244 . S
C325 O323 1.240 . S
H326 C300 0.931 . S
H327 C309 0.931 . S
H328 C313 0.929 . S
H329 C315 0.930 . S
Co330 N334 2.148 . S
Co330 N340 2.128 . S
Co330 N350 2.194 . S
Co330 O355 2.351 . S
Co330 O356 2.155 . S
Co330 O357 2.096 . S
C331 N334 1.301 . S
C331 N335 1.328 . S
C331 H336 0.930 . S
C332 C333 1.333 . S
C332 N334 1.317 . S
C332 H337 0.930 . S
C333 C332 1.333 . S
C333 N335 1.350 . S
C333 H359 0.931 . S
N334 Co330 2.148 . S
N334 C331 1.301 . S
N334 C332 1.317 . S
N335 C331 1.328 . S
N335 C333 1.350 . S
H336 C331 0.930 . S
H337 C332 0.930 . S
C338 O339 1.224 . S
C338 O357 1.247 . S
O339 C338 1.224 . S
N340 Co330 2.128 . S
N340 C341 1.355 1_556 S
N340 C343 1.311 1_556 S
C341 N340 1.355 1_554 S
C341 C342 1.363 . S
C341 H353 0.929 1_554 S
C342 C341 1.363 . S
C342 N344 1.375 . S
C342 H360 0.931 . S
C343 N340 1.311 1_554 S
C343 N344 1.347 . S
C343 H354 0.929 . S
N344 C342 1.375 . S
N344 C343 1.347 . S
C345 C348 1.365 . S
C345 N350 1.328 . S
C345 H351 0.929 . S
C346 C347 1.362 . S
C346 C349 1.378 . S
C346 H361 0.929 . S
C347 C346 1.362 . S
C347 C348 1.366 . S
C348 C345 1.365 . S
C348 C347 1.366 . S
C348 H362 0.930 . S
C349 C346 1.378 . S
C349 N350 1.315 . S
C349 H352 0.930 . S
N350 Co330 2.194 . S
N350 C345 1.328 . S
N350 C349 1.315 . S
H351 C345 0.929 . S
H352 C349 0.930 . S
H353 C341 0.929 1_556 S
H354 C343 0.929 . S
O355 Co330 2.351 . S
O355 C358 1.244 . S
O356 Co330 2.155 . S
O356 C358 1.240 . S
O357 Co330 2.096 . S
O357 C338 1.247 . S
C358 O355 1.244 . S
C358 O356 1.240 . S
H359 C333 0.931 . S
H360 C342 0.931 . S
H361 C346 0.929 . S
H362 C348 0.930 . S
Co363 N367 2.148 . S
Co363 N373 2.128 . S
Co363 N383 2.194 . S
Co363 O388 2.351 . S
Co363 O389 2.155 . S
Co363 O390 2.096 . S
C364 N367 1.301 . S
C364 N368 1.328 . S
C364 H369 0.930 . S
C365 C366 1.333 . S
C365 N367 1.317 . S
C365 H370 0.930 . S
C366 C365 1.333 . S
C366 N368 1.350 . S
C366 H392 0.931 . S
N367 Co363 2.148 . S
N367 C364 1.301 . S
N367 C365 1.317 . S
N368 C364 1.328 . S
N368 C366 1.350 . S
H369 C364 0.930 . S
H370 C365 0.930 . S
C371 O372 1.224 . S
C371 O390 1.247 . S
O372 C371 1.224 . S
N373 Co363 2.128 . S
N373 C374 1.355 . S
N373 C376 1.311 . S
C374 N373 1.355 . S
C374 C375 1.363 . S
C374 H386 0.929 . S
C375 C374 1.363 . S
C375 N377 1.375 . S
C375 H393 0.931 . S
C376 N373 1.311 . S
C376 N377 1.347 . S
C376 H387 0.929 . S
N377 C375 1.375 . S
N377 C376 1.347 . S
C378 C381 1.365 . S
C378 N383 1.328 . S
C378 H384 0.929 . S
C379 C380 1.362 . S
C379 C382 1.378 . S
C379 H394 0.929 . S
C380 C379 1.362 . S
C380 C381 1.366 . S
C381 C378 1.365 . S
C381 C380 1.366 . S
C381 H395 0.930 . S
C382 C379 1.378 . S
C382 N383 1.315 . S
C382 H385 0.930 . S
N383 Co363 2.194 . S
N383 C378 1.328 . S
N383 C382 1.315 . S
H384 C378 0.929 . S
H385 C382 0.930 . S
H386 C374 0.929 . S
H387 C376 0.929 . S
O388 Co363 2.351 . S
O388 C391 1.244 . S
O389 Co363 2.155 . S
O389 C391 1.240 . S
O390 Co363 2.096 . S
O390 C371 1.247 . S
C391 O388 1.244 . S
C391 O389 1.240 . S
H392 C366 0.931 . S
H393 C375 0.931 . S
H394 C379 0.929 . S
H395 C381 0.930 . S
Co396 N400 2.148 . S
Co396 N406 2.128 . S
Co396 N416 2.194 . S
Co396 O421 2.351 . S
Co396 O422 2.155 . S
Co396 O423 2.096 . S
C397 N400 1.301 . S
C397 N401 1.328 . S
C397 H402 0.930 . S
C398 C399 1.333 . S
C398 N400 1.317 . S
C398 H403 0.930 . S
C399 C398 1.333 . S
C399 N401 1.350 . S
C399 H425 0.931 . S
N400 Co396 2.148 . S
N400 C397 1.301 . S
N400 C398 1.317 . S
N401 C397 1.328 . S
N401 C399 1.350 . S
H402 C397 0.930 . S
H403 C398 0.930 . S
C404 O405 1.224 . S
C404 O423 1.247 . S
O405 C404 1.224 . S
N406 Co396 2.128 . S
N406 C407 1.355 . S
N406 C409 1.311 . S
C407 N406 1.355 . S
C407 C408 1.363 . S
C407 H419 0.929 . S
C408 C407 1.363 . S
C408 N410 1.375 . S
C408 H426 0.931 . S
C409 N406 1.311 . S
C409 N410 1.347 . S
C409 H420 0.929 . S
N410 C408 1.375 . S
N410 C409 1.347 . S
C411 C414 1.365 . S
C411 N416 1.328 . S
C411 H417 0.929 . S
C412 C413 1.362 . S
C412 C415 1.378 . S
C412 H427 0.929 . S
C413 C412 1.362 . S
C413 C414 1.366 . S
C414 C411 1.365 . S
C414 C413 1.366 . S
C414 H428 0.930 . S
C415 C412 1.378 . S
C415 N416 1.315 . S
C415 H418 0.930 . S
N416 Co396 2.194 . S
N416 C411 1.328 . S
N416 C415 1.315 . S
H417 C411 0.929 . S
H418 C415 0.930 . S
H419 C407 0.929 . S
H420 C409 0.929 . S
O421 Co396 2.351 . S
O421 C424 1.244 . S
O422 Co396 2.155 . S
O422 C424 1.240 . S
O423 Co396 2.096 . S
O423 C404 1.247 . S
C424 O421 1.244 . S
C424 O422 1.240 . S
H425 C399 0.931 . S
H426 C408 0.931 . S
H427 C412 0.929 . S
H428 C414 0.930 . S
Co429 N433 2.148 . S
Co429 N439 2.128 . S
Co429 N449 2.194 . S
Co429 O454 2.351 . S
Co429 O455 2.155 . S
Co429 O456 2.096 . S
C430 N433 1.301 . S
C430 N434 1.328 . S
C430 H435 0.930 . S
C431 C432 1.333 . S
C431 N433 1.317 . S
C431 H436 0.930 . S
C432 C431 1.333 . S
C432 N434 1.350 . S
C432 H458 0.931 . S
N433 Co429 2.148 . S
N433 C430 1.301 . S
N433 C431 1.317 . S
N434 C430 1.328 . S
N434 C432 1.350 . S
H435 C430 0.930 . S
H436 C431 0.930 . S
C437 O438 1.224 . S
C437 O456 1.247 1_545 S
O438 C437 1.224 . S
N439 Co429 2.128 . S
N439 C440 1.355 . S
N439 C442 1.311 . S
C440 N439 1.355 . S
C440 C441 1.363 . S
C440 H452 0.929 . S
C441 C440 1.363 . S
C441 N443 1.375 . S
C441 H459 0.931 . S
C442 N439 1.311 . S
C442 N443 1.347 . S
C442 H453 0.929 . S
N443 C441 1.375 . S
N443 C442 1.347 . S
C444 C447 1.365 . S
C444 N449 1.328 . S
C444 H450 0.929 . S
C445 C446 1.362 . S
C445 C448 1.378 . S
C445 H460 0.929 . S
C446 C445 1.362 . S
C446 C447 1.366 . S
C447 C444 1.365 . S
C447 C446 1.366 . S
C447 H461 0.930 . S
C448 C445 1.378 . S
C448 N449 1.315 . S
C448 H451 0.930 . S
N449 Co429 2.194 . S
N449 C444 1.328 . S
N449 C448 1.315 . S
H450 C444 0.929 . S
H451 C448 0.930 . S
H452 C440 0.929 . S
H453 C442 0.929 . S
O454 Co429 2.351 . S
O454 C457 1.244 . S
O455 Co429 2.155 . S
O455 C457 1.240 . S
O456 Co429 2.096 . S
O456 C437 1.247 1_565 S
C457 O454 1.244 . S
C457 O455 1.240 . S
H458 C432 0.931 . S
H459 C441 0.931 . S
H460 C445 0.929 . S
H461 C447 0.930 . S
Co462 N466 2.148 . S
Co462 N472 2.128 . S
Co462 N482 2.194 . S
Co462 O487 2.351 . S
Co462 O488 2.155 . S
Co462 O489 2.096 . S
C463 N466 1.301 . S
C463 N467 1.328 . S
C463 H468 0.930 . S
C464 C465 1.333 . S
C464 N466 1.317 . S
C464 H469 0.930 . S
C465 C464 1.333 . S
C465 N467 1.350 . S
C465 H491 0.931 . S
N466 Co462 2.148 . S
N466 C463 1.301 . S
N466 C464 1.317 . S
N467 C463 1.328 . S
N467 C465 1.350 . S
H468 C463 0.930 . S
H469 C464 0.930 . S
C470 O471 1.224 . S
C470 O489 1.247 . S
O471 C470 1.224 . S
N472 Co462 2.128 . S
N472 C473 1.355 . S
N472 C475 1.311 . S
C473 N472 1.355 . S
C473 C474 1.363 . S
C473 H485 0.929 . S
C474 C473 1.363 . S
C474 N476 1.375 . S
C474 H492 0.931 . S
C475 N472 1.311 . S
C475 N476 1.347 . S
C475 H486 0.929 . S
N476 C474 1.375 . S
N476 C475 1.347 . S
C477 C480 1.365 . S
C477 N482 1.328 . S
C477 H483 0.929 . S
C478 C479 1.362 . S
C478 C481 1.378 . S
C478 H493 0.929 . S
C479 C478 1.362 . S
C479 C480 1.366 . S
C480 C477 1.365 . S
C480 C479 1.366 . S
C480 H494 0.930 . S
C481 C478 1.378 . S
C481 N482 1.315 . S
C481 H484 0.930 . S
N482 Co462 2.194 . S
N482 C477 1.328 . S
N482 C481 1.315 . S
H483 C477 0.929 . S
H484 C481 0.930 . S
H485 C473 0.929 . S
H486 C475 0.929 . S
O487 Co462 2.351 . S
O487 C490 1.244 . S
O488 Co462 2.155 . S
O488 C490 1.240 . S
O489 Co462 2.096 . S
O489 C470 1.247 . S
C490 O487 1.244 . S
C490 O488 1.240 . S
H491 C465 0.931 . S
H492 C474 0.931 . S
H493 C478 0.929 . S
H494 C480 0.930 . S
Co495 N499 2.148 1_556 S
Co495 N505 2.128 . S
Co495 N515 2.194 . S
Co495 O520 2.351 . S
Co495 O521 2.155 . S
Co495 O522 2.096 . S
C496 N499 1.301 . S
C496 N500 1.328 . S
C496 H501 0.930 . S
C497 C498 1.333 . S
C497 N499 1.317 . S
C497 H502 0.930 . S
C498 C497 1.333 . S
C498 N500 1.350 . S
C498 H524 0.931 . S
N499 Co495 2.148 1_554 S
N499 C496 1.301 . S
N499 C497 1.317 . S
N500 C496 1.328 . S
N500 C498 1.350 . S
H501 C496 0.930 . S
H502 C497 0.930 . S
C503 O504 1.224 . S
C503 O522 1.247 . S
O504 C503 1.224 . S
N505 Co495 2.128 . S
N505 C506 1.355 . S
N505 C508 1.311 . S
C506 N505 1.355 . S
C506 C507 1.363 . S
C506 H518 0.929 . S
C507 C506 1.363 . S
C507 N509 1.375 . S
C507 H525 0.931 . S
C508 N505 1.311 . S
C508 N509 1.347 . S
C508 H519 0.929 . S
N509 C507 1.375 . S
N509 C508 1.347 . S
C510 C513 1.365 . S
C510 N515 1.328 . S
C510 H516 0.929 . S
C511 C512 1.362 . S
C511 C514 1.378 . S
C511 H526 0.929 . S
C512 C511 1.362 . S
C512 C513 1.366 . S
C513 C510 1.365 . S
C513 C512 1.366 . S
C513 H527 0.930 . S
C514 C511 1.378 . S
C514 N515 1.315 . S
C514 H517 0.930 . S
N515 Co495 2.194 . S
N515 C510 1.328 . S
N515 C514 1.315 . S
H516 C510 0.929 . S
H517 C514 0.930 . S
H518 C506 0.929 . S
H519 C508 0.929 . S
O520 Co495 2.351 . S
O520 C523 1.244 . S
O521 Co495 2.155 . S
O521 C523 1.240 . S
O522 Co495 2.096 . S
O522 C503 1.247 . S
C523 O520 1.244 . S
C523 O521 1.240 . S
H524 C498 0.931 . S
H525 C507 0.931 . S
H526 C511 0.929 . S
H527 C513 0.930 . S
Co528 N532 2.148 . S
Co528 N538 2.128 . S
Co528 N548 2.194 . S
Co528 O553 2.351 . S
Co528 O554 2.155 . S
Co528 O555 2.096 . S
C529 N532 1.301 . S
C529 N533 1.328 . S
C529 H534 0.930 . S
C530 C531 1.333 . S
C530 N532 1.317 . S
C530 H535 0.930 . S
C531 C530 1.333 . S
C531 N533 1.350 . S
C531 H557 0.931 . S
N532 Co528 2.148 . S
N532 C529 1.301 . S
N532 C530 1.317 . S
N533 C529 1.328 . S
N533 C531 1.350 . S
H534 C529 0.930 . S
H535 C530 0.930 . S
C536 O537 1.224 . S
C536 O555 1.247 . S
O537 C536 1.224 . S
N538 Co528 2.128 . S
N538 C539 1.355 . S
N538 C541 1.311 . S
C539 N538 1.355 . S
C539 C540 1.363 . S
C539 H551 0.929 . S
C540 C539 1.363 . S
C540 N542 1.375 . S
C540 H558 0.931 . S
C541 N538 1.311 . S
C541 N542 1.347 . S
C541 H552 0.929 . S
N542 C540 1.375 . S
N542 C541 1.347 . S
C543 C546 1.365 . S
C543 N548 1.328 . S
C543 H549 0.929 . S
C544 C545 1.362 . S
C544 C547 1.378 . S
C544 H559 0.929 . S
C545 C544 1.362 . S
C545 C546 1.366 . S
C546 C543 1.365 . S
C546 C545 1.366 . S
C546 H560 0.930 . S
C547 C544 1.378 . S
C547 N548 1.315 . S
C547 H550 0.930 . S
N548 Co528 2.194 . S
N548 C543 1.328 . S
N548 C547 1.315 . S
H549 C543 0.929 . S
H550 C547 0.930 . S
H551 C539 0.929 . S
H552 C541 0.929 . S
O553 Co528 2.351 . S
O553 C556 1.244 . S
O554 Co528 2.155 . S
O554 C556 1.240 . S
O555 Co528 2.096 . S
O555 C536 1.247 . S
C556 O553 1.244 . S
C556 O554 1.240 . S
H557 C531 0.931 . S
H558 C540 0.931 . S
H559 C544 0.929 . S
H560 C546 0.930 . S
Co561 N565 2.148 . S
Co561 N571 2.128 . S
Co561 N581 2.194 . S
Co561 O586 2.351 . S
Co561 O587 2.155 . S
Co561 O588 2.096 . S
C562 N565 1.301 . S
C562 N566 1.328 . S
C562 H567 0.930 . S
C563 C564 1.333 . S
C563 N565 1.317 . S
C563 H568 0.930 . S
C564 C563 1.333 . S
C564 N566 1.350 . S
C564 H590 0.931 . S
N565 Co561 2.148 . S
N565 C562 1.301 . S
N565 C563 1.317 . S
N566 C562 1.328 . S
N566 C564 1.350 . S
H567 C562 0.930 . S
H568 C563 0.930 . S
C569 O570 1.224 . S
C569 O588 1.247 . S
O570 C569 1.224 . S
N571 Co561 2.128 . S
N571 C572 1.355 1_655 S
N571 C574 1.311 1_655 S
C572 N571 1.355 1_455 S
C572 C573 1.363 . S
C572 H584 0.929 1_455 S
C573 C572 1.363 . S
C573 N575 1.375 . S
C573 H591 0.931 . S
C574 N571 1.311 1_455 S
C574 N575 1.347 . S
C574 H585 0.929 . S
N575 C573 1.375 . S
N575 C574 1.347 . S
C576 C579 1.365 . S
C576 N581 1.328 . S
C576 H582 0.929 . S
C577 C578 1.362 . S
C577 C580 1.378 . S
C577 H592 0.929 . S
C578 C577 1.362 . S
C578 C579 1.366 . S
C579 C576 1.365 . S
C579 C578 1.366 . S
C579 H593 0.930 . S
C580 C577 1.378 . S
C580 N581 1.315 . S
C580 H583 0.930 . S
N581 Co561 2.194 . S
N581 C576 1.328 . S
N581 C580 1.315 . S
H582 C576 0.929 . S
H583 C580 0.930 . S
H584 C572 0.929 1_655 S
H585 C574 0.929 . S
O586 Co561 2.351 . S
O586 C589 1.244 . S
O587 Co561 2.155 . S
O587 C589 1.240 . S
O588 Co561 2.096 . S
O588 C569 1.247 . S
C589 O586 1.244 . S
C589 O587 1.240 . S
H590 C564 0.931 . S
H591 C573 0.931 . S
H592 C577 0.929 . S
H593 C579 0.930 . S
Co594 N598 2.148 . S
Co594 N604 2.128 . S
Co594 N614 2.194 . S
Co594 O619 2.351 . S
Co594 O620 2.155 . S
Co594 O621 2.096 . S
C595 N598 1.301 . S
C595 N599 1.328 . S
C595 H600 0.930 . S
C596 C597 1.333 . S
C596 N598 1.317 . S
C596 H601 0.930 . S
C597 C596 1.333 . S
C597 N599 1.350 . S
C597 H623 0.931 . S
N598 Co594 2.148 . S
N598 C595 1.301 . S
N598 C596 1.317 . S
N599 C595 1.328 . S
N599 C597 1.350 . S
H600 C595 0.930 . S
H601 C596 0.930 . S
C602 O603 1.224 . S
C602 O621 1.247 1_455 S
O603 C602 1.224 . S
N604 Co594 2.128 . S
N604 C605 1.355 . S
N604 C607 1.311 . S
C605 N604 1.355 . S
C605 C606 1.363 . S
C605 H617 0.929 . S
C606 C605 1.363 . S
C606 N608 1.375 . S
C606 H624 0.931 . S
C607 N604 1.311 . S
C607 N608 1.347 . S
C607 H618 0.929 . S
N608 C606 1.375 . S
N608 C607 1.347 . S
C609 C612 1.365 . S
C609 N614 1.328 . S
C609 H615 0.929 . S
C610 C611 1.362 . S
C610 C613 1.378 . S
C610 H625 0.929 . S
C611 C610 1.362 . S
C611 C612 1.366 . S
C612 C609 1.365 . S
C612 C611 1.366 . S
C612 H626 0.930 . S
C613 C610 1.378 . S
C613 N614 1.315 . S
C613 H616 0.930 . S
N614 Co594 2.194 . S
N614 C609 1.328 . S
N614 C613 1.315 . S
H615 C609 0.929 . S
H616 C613 0.930 . S
H617 C605 0.929 . S
H618 C607 0.929 . S
O619 Co594 2.351 . S
O619 C622 1.244 . S
O620 Co594 2.155 . S
O620 C622 1.240 . S
O621 Co594 2.096 . S
O621 C602 1.247 1_655 S
C622 O619 1.244 . S
C622 O620 1.240 . S
H623 C597 0.931 . S
H624 C606 0.931 . S
H625 C610 0.929 . S
H626 C612 0.930 . S
Co627 N631 2.148 . S
Co627 N637 2.128 . S
Co627 N647 2.194 . S
Co627 O652 2.351 . S
Co627 O653 2.155 . S
Co627 O654 2.096 . S
C628 N631 1.301 . S
C628 N632 1.328 . S
C628 H633 0.930 . S
C629 C630 1.333 . S
C629 N631 1.317 . S
C629 H634 0.930 . S
C630 C629 1.333 . S
C630 N632 1.350 . S
C630 H656 0.931 . S
N631 Co627 2.148 . S
N631 C628 1.301 . S
N631 C629 1.317 . S
N632 C628 1.328 . S
N632 C630 1.350 . S
H633 C628 0.930 . S
H634 C629 0.930 . S
C635 O636 1.224 . S
C635 O654 1.247 . S
O636 C635 1.224 . S
N637 Co627 2.128 . S
N637 C638 1.355 . S
N637 C640 1.311 . S
C638 N637 1.355 . S
C638 C639 1.363 . S
C638 H650 0.929 . S
C639 C638 1.363 . S
C639 N641 1.375 . S
C639 H657 0.931 . S
C640 N637 1.311 . S
C640 N641 1.347 . S
C640 H651 0.929 . S
N641 C639 1.375 . S
N641 C640 1.347 . S
C642 C645 1.365 . S
C642 N647 1.328 . S
C642 H648 0.929 . S
C643 C644 1.362 . S
C643 C646 1.378 . S
C643 H658 0.929 . S
C644 C643 1.362 . S
C644 C645 1.366 . S
C645 C642 1.365 . S
C645 C644 1.366 . S
C645 H659 0.930 . S
C646 C643 1.378 . S
C646 N647 1.315 . S
C646 H649 0.930 . S
N647 Co627 2.194 . S
N647 C642 1.328 . S
N647 C646 1.315 . S
H648 C642 0.929 . S
H649 C646 0.930 . S
H650 C638 0.929 . S
H651 C640 0.929 . S
O652 Co627 2.351 . S
O652 C655 1.244 . S
O653 Co627 2.155 . S
O653 C655 1.240 . S
O654 Co627 2.096 . S
O654 C635 1.247 . S
C655 O652 1.244 . S
C655 O653 1.240 . S
H656 C630 0.931 . S
H657 C639 0.931 . S
H658 C643 0.929 . S
H659 C645 0.930 . S
Co660 N664 2.148 1_565 S
Co660 N670 2.128 . S
Co660 N680 2.194 . S
Co660 O685 2.351 . S
Co660 O686 2.155 . S
Co660 O687 2.096 . S
C661 N664 1.301 . S
C661 N665 1.328 . S
C661 H666 0.930 . S
C662 C663 1.333 . S
C662 N664 1.317 . S
C662 H667 0.930 . S
C663 C662 1.333 . S
C663 N665 1.350 . S
C663 H689 0.931 . S
N664 Co660 2.148 1_545 S
N664 C661 1.301 . S
N664 C662 1.317 . S
N665 C661 1.328 . S
N665 C663 1.350 . S
H666 C661 0.930 . S
H667 C662 0.930 . S
C668 O669 1.224 . S
C668 O687 1.247 . S
O669 C668 1.224 . S
N670 Co660 2.128 . S
N670 C671 1.355 . S
N670 C673 1.311 . S
C671 N670 1.355 . S
C671 C672 1.363 . S
C671 H683 0.929 . S
C672 C671 1.363 . S
C672 N674 1.375 . S
C672 H690 0.931 . S
C673 N670 1.311 . S
C673 N674 1.347 . S
C673 H684 0.929 . S
N674 C672 1.375 . S
N674 C673 1.347 . S
C675 C678 1.365 . S
C675 N680 1.328 . S
C675 H681 0.929 . S
C676 C677 1.362 . S
C676 C679 1.378 . S
C676 H691 0.929 . S
C677 C676 1.362 . S
C677 C678 1.366 . S
C678 C675 1.365 . S
C678 C677 1.366 . S
C678 H692 0.930 . S
C679 C676 1.378 . S
C679 N680 1.315 . S
C679 H682 0.930 . S
N680 Co660 2.194 . S
N680 C675 1.328 . S
N680 C679 1.315 . S
H681 C675 0.929 . S
H682 C679 0.930 . S
H683 C671 0.929 . S
H684 C673 0.929 . S
O685 Co660 2.351 . S
O685 C688 1.244 . S
O686 Co660 2.155 . S
O686 C688 1.240 . S
O687 Co660 2.096 . S
O687 C668 1.247 . S
C688 O685 1.244 . S
C688 O686 1.240 . S
H689 C663 0.931 . S
H690 C672 0.931 . S
H691 C676 0.929 . S
H692 C678 0.930 . S
Co693 N697 2.148 . S
Co693 N703 2.128 . S
Co693 N713 2.194 . S
Co693 O718 2.351 1_565 S
Co693 O719 2.155 . S
Co693 O720 2.096 . S
C694 N697 1.301 . S
C694 N698 1.328 . S
C694 H699 0.930 . S
C695 C696 1.333 . S
C695 N697 1.317 . S
C695 H700 0.930 . S
C696 C695 1.333 . S
C696 N698 1.350 . S
C696 H722 0.931 . S
N697 Co693 2.148 . S
N697 C694 1.301 . S
N697 C695 1.317 . S
N698 C694 1.328 . S
N698 C696 1.350 . S
H699 C694 0.930 . S
H700 C695 0.930 . S
C701 O702 1.224 . S
C701 O720 1.247 . S
O702 C701 1.224 . S
N703 Co693 2.128 . S
N703 C704 1.355 . S
N703 C706 1.311 . S
C704 N703 1.355 . S
C704 C705 1.363 . S
C704 H716 0.929 . S
C705 C704 1.363 . S
C705 N707 1.375 . S
C705 H723 0.931 . S
C706 N703 1.311 . S
C706 N707 1.347 . S
C706 H717 0.929 . S
N707 C705 1.375 . S
N707 C706 1.347 . S
C708 C711 1.365 . S
C708 N713 1.328 . S
C708 H714 0.917 1_565 S
C709 C710 1.362 . S
C709 C712 1.378 . S
C709 H724 0.929 . S
C710 C709 1.362 . S
C710 C711 1.366 . S
C711 C708 1.365 . S
C711 C710 1.366 . S
C711 H725 0.946 . S
C712 C709 1.378 . S
C712 N713 1.315 . S
C712 H715 0.930 . S
N713 Co693 2.194 . S
N713 C708 1.328 . S
N713 C712 1.315 . S
H714 C708 0.917 1_545 S
H715 C712 0.930 . S
H716 C704 0.929 . S
H717 C706 0.929 . S
O718 Co693 2.351 1_545 S
O718 C721 1.244 . S
O719 Co693 2.155 . S
O719 C721 1.240 1_565 S
O720 Co693 2.096 . S
O720 C701 1.247 . S
C721 O718 1.244 . S
C721 O719 1.240 1_545 S
H722 C696 0.931 . S
H723 C705 0.931 . S
H724 C709 0.929 . S
H725 C711 0.946 . S
Co726 N730 2.148 . S
Co726 N736 2.128 . S
Co726 N746 2.194 . S
Co726 O751 2.351 . S
Co726 O752 2.155 . S
Co726 O753 2.096 . S
C727 N730 1.301 . S
C727 N731 1.328 . S
C727 H732 0.930 . S
C728 C729 1.333 . S
C728 N730 1.317 . S
C728 H733 0.930 . S
C729 C728 1.333 . S
C729 N731 1.350 . S
C729 H755 0.931 . S
N730 Co726 2.148 . S
N730 C727 1.301 . S
N730 C728 1.317 . S
N731 C727 1.328 . S
N731 C729 1.350 . S
H732 C727 0.930 . S
H733 C728 0.930 . S
C734 O735 1.224 . S
C734 O753 1.247 1_455 S
O735 C734 1.224 . S
N736 Co726 2.128 . S
N736 C737 1.355 . S
N736 C739 1.311 . S
C737 N736 1.355 . S
C737 C738 1.363 . S
C737 H749 0.929 . S
C738 C737 1.363 . S
C738 N740 1.375 . S
C738 H756 0.931 . S
C739 N736 1.311 . S
C739 N740 1.347 . S
C739 H750 0.929 . S
N740 C738 1.375 . S
N740 C739 1.347 . S
C741 C744 1.365 . S
C741 N746 1.328 . S
C741 H747 0.929 . S
C742 C743 1.362 . S
C742 C745 1.378 . S
C742 H757 0.929 . S
C743 C742 1.362 . S
C743 C744 1.366 . S
C744 C741 1.365 . S
C744 C743 1.366 . S
C744 H758 0.930 . S
C745 C742 1.378 . S
C745 N746 1.315 . S
C745 H748 0.930 . S
N746 Co726 2.194 . S
N746 C741 1.328 . S
N746 C745 1.315 . S
H747 C741 0.929 . S
H748 C745 0.930 . S
H749 C737 0.929 . S
H750 C739 0.929 . S
O751 Co726 2.351 . S
O751 C754 1.244 . S
O752 Co726 2.155 . S
O752 C754 1.240 . S
O753 Co726 2.096 . S
O753 C734 1.247 1_655 S
C754 O751 1.244 . S
C754 O752 1.240 . S
H755 C729 0.931 . S
H756 C738 0.931 . S
H757 C742 0.929 . S
H758 C744 0.930 . S
Co759 N763 2.148 . S
Co759 N769 2.128 . S
Co759 N779 2.194 . S
Co759 O784 2.351 . S
Co759 O785 2.155 . S
Co759 O786 2.096 . S
C760 N763 1.301 . S
C760 N764 1.328 . S
C760 H765 0.930 . S
C761 C762 1.333 . S
C761 N763 1.317 . S
C761 H766 0.930 . S
C762 C761 1.333 . S
C762 N764 1.350 . S
C762 H788 0.931 . S
N763 Co759 2.148 . S
N763 C760 1.301 . S
N763 C761 1.317 . S
N764 C760 1.328 . S
N764 C762 1.350 . S
H765 C760 0.930 . S
H766 C761 0.930 . S
C767 O768 1.224 . S
C767 O786 1.247 . S
O768 C767 1.224 . S
N769 Co759 2.128 . S
N769 C770 1.355 . S
N769 C772 1.311 . S
C770 N769 1.355 . S
C770 C771 1.363 . S
C770 H782 0.929 . S
C771 C770 1.363 . S
C771 N773 1.375 . S
C771 H789 0.931 . S
C772 N769 1.311 . S
C772 N773 1.347 . S
C772 H783 0.929 . S
N773 C771 1.375 . S
N773 C772 1.347 . S
C774 C777 1.365 . S
C774 N779 1.328 . S
C774 H780 0.929 . S
C775 C776 1.362 . S
C775 C778 1.378 . S
C775 H790 0.929 . S
C776 C775 1.362 . S
C776 C777 1.366 . S
C777 C774 1.365 . S
C777 C776 1.366 . S
C777 H791 0.930 . S
C778 C775 1.378 . S
C778 N779 1.315 . S
C778 H781 0.930 . S
N779 Co759 2.194 . S
N779 C774 1.328 . S
N779 C778 1.315 . S
H780 C774 0.929 . S
H781 C778 0.930 . S
H782 C770 0.929 . S
H783 C772 0.929 . S
O784 Co759 2.351 . S
O784 C787 1.244 . S
O785 Co759 2.155 . S
O785 C787 1.240 . S
O786 Co759 2.096 . S
O786 C767 1.247 . S
C787 O784 1.244 . S
C787 O785 1.240 . S
H788 C762 0.931 . S
H789 C771 0.931 . S
H790 C775 0.929 . S
H791 C777 0.930 . S
Co792 N796 2.148 . S
Co792 N802 2.128 . S
Co792 N812 2.194 . S
Co792 O817 2.351 . S
Co792 O818 2.155 . S
Co792 O819 2.096 . S
C793 N796 1.301 . S
C793 N797 1.328 . S
C793 H798 0.930 . S
C794 C795 1.333 . S
C794 N796 1.317 . S
C794 H799 0.930 . S
C795 C794 1.333 . S
C795 N797 1.350 . S
C795 H821 0.931 . S
N796 Co792 2.148 . S
N796 C793 1.301 . S
N796 C794 1.317 . S
N797 C793 1.328 . S
N797 C795 1.350 . S
H798 C793 0.930 . S
H799 C794 0.930 . S
C800 O801 1.224 . S
C800 O819 1.247 . S
O801 C800 1.224 . S
N802 Co792 2.128 . S
N802 C803 1.355 1_565 S
N802 C805 1.311 1_565 S
C803 N802 1.355 1_545 S
C803 C804 1.363 . S
C803 H815 0.929 1_545 S
C804 C803 1.363 . S
C804 N806 1.375 . S
C804 H822 0.931 . S
C805 N802 1.311 1_545 S
C805 N806 1.347 . S
C805 H816 0.929 . S
N806 C804 1.375 . S
N806 C805 1.347 . S
C807 C810 1.365 . S
C807 N812 1.328 . S
C807 H813 0.929 . S
C808 C809 1.362 . S
C808 C811 1.378 . S
C808 H823 0.929 . S
C809 C808 1.362 . S
C809 C810 1.366 . S
C810 C807 1.365 . S
C810 C809 1.366 . S
C810 H824 0.930 . S
C811 C808 1.378 . S
C811 N812 1.315 . S
C811 H814 0.930 . S
N812 Co792 2.194 . S
N812 C807 1.328 . S
N812 C811 1.315 . S
H813 C807 0.929 . S
H814 C811 0.930 . S
H815 C803 0.929 1_565 S
H816 C805 0.929 . S
O817 Co792 2.351 . S
O817 C820 1.244 . S
O818 Co792 2.155 . S
O818 C820 1.240 . S
O819 Co792 2.096 . S
O819 C800 1.247 . S
C820 O817 1.244 . S
C820 O818 1.240 . S
H821 C795 0.931 . S
H822 C804 0.931 . S
H823 C808 0.929 . S
H824 C810 0.930 . S
Co825 N829 2.148 . S
Co825 N835 2.128 . S
Co825 N845 2.194 . S
Co825 O850 2.351 . S
Co825 O851 2.155 . S
Co825 O852 2.096 . S
C826 N829 1.301 . S
C826 N830 1.328 . S
C826 H831 0.930 . S
C827 C828 1.333 . S
C827 N829 1.317 . S
C827 H832 0.930 . S
C828 C827 1.333 . S
C828 N830 1.350 . S
C828 H854 0.931 . S
N829 Co825 2.148 . S
N829 C826 1.301 . S
N829 C827 1.317 . S
N830 C826 1.328 . S
N830 C828 1.350 . S
H831 C826 0.930 . S
H832 C827 0.930 . S
C833 O834 1.224 . S
C833 O852 1.247 1_554 S
O834 C833 1.224 . S
N835 Co825 2.128 . S
N835 C836 1.355 . S
N835 C838 1.311 . S
C836 N835 1.355 . S
C836 C837 1.363 . S
C836 H848 0.929 . S
C837 C836 1.363 . S
C837 N839 1.375 . S
C837 H855 0.931 . S
C838 N835 1.311 . S
C838 N839 1.347 . S
C838 H849 0.929 . S
N839 C837 1.375 . S
N839 C838 1.347 . S
C840 C843 1.365 . S
C840 N845 1.328 . S
C840 H846 0.929 . S
C841 C842 1.362 . S
C841 C844 1.378 . S
C841 H856 0.929 . S
C842 C841 1.362 . S
C842 C843 1.366 . S
C843 C840 1.365 . S
C843 C842 1.366 . S
C843 H857 0.930 . S
C844 C841 1.378 . S
C844 N845 1.315 . S
C844 H847 0.930 . S
N845 Co825 2.194 . S
N845 C840 1.328 . S
N845 C844 1.315 . S
H846 C840 0.929 . S
H847 C844 0.930 . S
H848 C836 0.929 . S
H849 C838 0.929 . S
O850 Co825 2.351 . S
O850 C853 1.244 . S
O851 Co825 2.155 . S
O851 C853 1.240 . S
O852 Co825 2.096 . S
O852 C833 1.247 1_556 S
C853 O850 1.244 . S
C853 O851 1.240 . S
H854 C828 0.931 . S
H855 C837 0.931 . S
H856 C841 0.929 . S
H857 C843 0.930 . S
Co858 N862 2.148 . S
Co858 N868 2.128 . S
Co858 N878 2.194 . S
Co858 O883 2.351 . S
Co858 O884 2.155 . S
Co858 O885 2.096 . S
C859 N862 1.301 . S
C859 N863 1.328 . S
C859 H864 0.930 . S
C860 C861 1.333 . S
C860 N862 1.317 . S
C860 H865 0.930 . S
C861 C860 1.333 . S
C861 N863 1.350 . S
C861 H887 0.931 . S
N862 Co858 2.148 . S
N862 C859 1.301 . S
N862 C860 1.317 . S
N863 C859 1.328 . S
N863 C861 1.350 . S
H864 C859 0.930 . S
H865 C860 0.930 . S
C866 O867 1.224 . S
C866 O885 1.247 . S
O867 C866 1.224 . S
N868 Co858 2.128 . S
N868 C869 1.355 . S
N868 C871 1.311 . S
C869 N868 1.355 . S
C869 C870 1.363 . S
C869 H881 0.929 . S
C870 C869 1.363 . S
C870 N872 1.375 . S
C870 H888 0.931 . S
C871 N868 1.311 . S
C871 N872 1.347 . S
C871 H882 0.929 . S
N872 C870 1.375 . S
N872 C871 1.347 . S
C873 C876 1.365 . S
C873 N878 1.328 . S
C873 H879 0.929 . S
C874 C875 1.362 . S
C874 C877 1.378 . S
C874 H889 0.929 . S
C875 C874 1.362 . S
C875 C876 1.366 . S
C876 C873 1.365 . S
C876 C875 1.366 . S
C876 H890 0.930 . S
C877 C874 1.378 . S
C877 N878 1.315 . S
C877 H880 0.930 . S
N878 Co858 2.194 . S
N878 C873 1.328 . S
N878 C877 1.315 . S
H879 C873 0.929 . S
H880 C877 0.930 . S
H881 C869 0.929 . S
H882 C871 0.929 . S
O883 Co858 2.351 . S
O883 C886 1.244 . S
O884 Co858 2.155 . S
O884 C886 1.240 . S
O885 Co858 2.096 . S
O885 C866 1.247 . S
C886 O883 1.244 . S
C886 O884 1.240 . S
H887 C861 0.931 . S
H888 C870 0.931 . S
H889 C874 0.929 . S
H890 C876 0.930 . S
Co891 N895 2.148 . S
Co891 N901 2.128 . S
Co891 N911 2.194 . S
Co891 O916 2.351 . S
Co891 O917 2.155 . S
Co891 O918 2.096 . S
C892 N895 1.301 . S
C892 N896 1.328 . S
C892 H897 0.930 . S
C893 C894 1.333 . S
C893 N895 1.317 . S
C893 H898 0.930 . S
C894 C893 1.333 . S
C894 N896 1.350 . S
C894 H920 0.931 . S
N895 Co891 2.148 . S
N895 C892 1.301 . S
N895 C893 1.317 . S
N896 C892 1.328 . S
N896 C894 1.350 . S
H897 C892 0.930 . S
H898 C893 0.930 . S
C899 O900 1.224 . S
C899 O918 1.247 . S
O900 C899 1.224 . S
N901 Co891 2.128 . S
N901 C902 1.355 . S
N901 C904 1.311 . S
C902 N901 1.355 . S
C902 C903 1.363 . S
C902 H914 0.929 . S
C903 C902 1.363 . S
C903 N905 1.375 . S
C903 H921 0.931 . S
C904 N901 1.311 . S
C904 N905 1.347 . S
C904 H915 0.929 . S
N905 C903 1.375 . S
N905 C904 1.347 . S
C906 C909 1.365 . S
C906 N911 1.328 . S
C906 H912 0.929 . S
C907 C908 1.362 . S
C907 C910 1.378 . S
C907 H922 0.929 . S
C908 C907 1.362 . S
C908 C909 1.366 . S
C909 C906 1.365 . S
C909 C908 1.366 . S
C909 H923 0.930 . S
C910 C907 1.378 . S
C910 N911 1.315 . S
C910 H913 0.930 . S
N911 Co891 2.194 . S
N911 C906 1.328 . S
N911 C910 1.315 . S
H912 C906 0.929 . S
H913 C910 0.930 . S
H914 C902 0.929 . S
H915 C904 0.929 . S
O916 Co891 2.351 . S
O916 C919 1.244 . S
O917 Co891 2.155 . S
O917 C919 1.240 . S
O918 Co891 2.096 . S
O918 C899 1.247 . S
C919 O916 1.244 . S
C919 O917 1.240 . S
H920 C894 0.931 . S
H921 C903 0.931 . S
H922 C907 0.929 . S
H923 C909 0.930 . S
Co924 N928 2.148 . S
Co924 N934 2.128 . S
Co924 N944 2.194 . S
Co924 O949 2.351 1_556 S
Co924 O950 2.155 . S
Co924 O951 2.096 . S
C925 N928 1.301 . S
C925 N929 1.328 . S
C925 H930 0.930 . S
C926 C927 1.333 . S
C926 N928 1.317 . S
C926 H931 0.930 . S
C927 C926 1.333 . S
C927 N929 1.350 . S
C927 H953 0.931 . S
N928 Co924 2.148 . S
N928 C925 1.301 . S
N928 C926 1.317 . S
N929 C925 1.328 . S
N929 C927 1.350 . S
H930 C925 0.930 . S
H931 C926 0.930 . S
C932 O933 1.224 . S
C932 O951 1.247 . S
O933 C932 1.224 . S
N934 Co924 2.128 . S
N934 C935 1.355 . S
N934 C937 1.311 . S
C935 N934 1.355 . S
C935 C936 1.363 . S
C935 H947 0.929 . S
C936 C935 1.363 . S
C936 N938 1.375 . S
C936 H954 0.931 . S
C937 N934 1.311 . S
C937 N938 1.347 . S
C937 H948 0.929 . S
N938 C936 1.375 . S
N938 C937 1.347 . S
C939 C942 1.365 . S
C939 N944 1.328 . S
C939 H945 0.917 1_556 S
C940 C941 1.362 . S
C940 C943 1.378 . S
C940 H955 0.929 . S
C941 C940 1.362 . S
C941 C942 1.366 . S
C942 C939 1.365 . S
C942 C941 1.366 . S
C942 H956 0.946 . S
C943 C940 1.378 . S
C943 N944 1.315 . S
C943 H946 0.930 . S
N944 Co924 2.194 . S
N944 C939 1.328 . S
N944 C943 1.315 . S
H945 C939 0.917 1_554 S
H946 C943 0.930 . S
H947 C935 0.929 . S
H948 C937 0.929 . S
O949 Co924 2.351 1_554 S
O949 C952 1.244 . S
O950 Co924 2.155 . S
O950 C952 1.240 1_556 S
O951 Co924 2.096 . S
O951 C932 1.247 . S
C952 O949 1.244 . S
C952 O950 1.240 1_554 S
H953 C927 0.931 . S
H954 C936 0.931 . S
H955 C940 0.929 . S
H956 C942 0.946 . S
Co957 N961 2.148 . S
Co957 N967 2.128 . S
Co957 N977 2.194 . S
Co957 O982 2.351 . S
Co957 O983 2.155 . S
Co957 O984 2.096 . S
C958 N961 1.301 . S
C958 N962 1.328 . S
C958 H963 0.930 . S
C959 C960 1.333 . S
C959 N961 1.317 . S
C959 H964 0.930 . S
C960 C959 1.333 . S
C960 N962 1.350 . S
C960 H986 0.931 . S
N961 Co957 2.148 . S
N961 C958 1.301 . S
N961 C959 1.317 . S
N962 C958 1.328 . S
N962 C960 1.350 . S
H963 C958 0.930 . S
H964 C959 0.930 . S
C965 O966 1.224 . S
C965 O984 1.247 . S
O966 C965 1.224 . S
N967 Co957 2.128 . S
N967 C968 1.355 . S
N967 C970 1.311 . S
C968 N967 1.355 . S
C968 C969 1.363 . S
C968 H980 0.929 . S
C969 C968 1.363 . S
C969 N971 1.375 . S
C969 H987 0.931 . S
C970 N967 1.311 . S
C970 N971 1.347 . S
C970 H981 0.929 . S
N971 C969 1.375 . S
N971 C970 1.347 . S
C972 C975 1.365 . S
C972 N977 1.328 . S
C972 H978 0.929 . S
C973 C974 1.362 . S
C973 C976 1.378 . S
C973 H988 0.929 . S
C974 C973 1.362 . S
C974 C975 1.366 . S
C975 C972 1.365 . S
C975 C974 1.366 . S
C975 H989 0.930 . S
C976 C973 1.378 . S
C976 N977 1.315 . S
C976 H979 0.930 . S
N977 Co957 2.194 . S
N977 C972 1.328 . S
N977 C976 1.315 . S
H978 C972 0.929 . S
H979 C976 0.930 . S
H980 C968 0.929 . S
H981 C970 0.929 . S
O982 Co957 2.351 . S
O982 C985 1.244 . S
O983 Co957 2.155 . S
O983 C985 1.240 . S
O984 Co957 2.096 . S
O984 C965 1.247 . S
C985 O982 1.244 . S
C985 O983 1.240 . S
H986 C960 0.931 . S
H987 C969 0.931 . S
H988 C973 0.929 . S
H989 C975 0.930 . S
Co990 N994 2.148 . S
Co990 N1000 2.128 . S
Co990 N1010 2.194 . S
Co990 O1015 2.351 . S
Co990 O1016 2.155 . S
Co990 O1017 2.096 . S
C991 N994 1.301 . S
C991 N995 1.328 . S
C991 H996 0.930 . S
C992 C993 1.333 . S
C992 N994 1.317 . S
C992 H997 0.930 . S
C993 C992 1.333 . S
C993 N995 1.350 . S
C993 H1019 0.931 . S
N994 Co990 2.148 . S
N994 C991 1.301 . S
N994 C992 1.317 . S
N995 C991 1.328 . S
N995 C993 1.350 . S
H996 C991 0.930 . S
H997 C992 0.930 . S
C998 O999 1.224 . S
C998 O1017 1.247 . S
O999 C998 1.224 . S
N1000 Co990 2.128 . S
N1000 C1001 1.355 1_565 S
N1000 C1003 1.311 1_565 S
C1001 N1000 1.355 1_545 S
C1001 C1002 1.363 . S
C1001 H1013 0.929 1_545 S
C1002 C1001 1.363 . S
C1002 N1004 1.375 . S
C1002 H1020 0.931 . S
C1003 N1000 1.311 1_545 S
C1003 N1004 1.347 . S
C1003 H1014 0.929 . S
N1004 C1002 1.375 . S
N1004 C1003 1.347 . S
C1005 C1008 1.365 . S
C1005 N1010 1.328 . S
C1005 H1011 0.929 . S
C1006 C1007 1.362 . S
C1006 C1009 1.378 . S
C1006 H1021 0.929 . S
C1007 C1006 1.362 . S
C1007 C1008 1.366 . S
C1008 C1005 1.365 . S
C1008 C1007 1.366 . S
C1008 H1022 0.930 . S
C1009 C1006 1.378 . S
C1009 N1010 1.315 . S
C1009 H1012 0.930 . S
N1010 Co990 2.194 . S
N1010 C1005 1.328 . S
N1010 C1009 1.315 . S
H1011 C1005 0.929 . S
H1012 C1009 0.930 . S
H1013 C1001 0.929 1_565 S
H1014 C1003 0.929 . S
O1015 Co990 2.351 . S
O1015 C1018 1.244 . S
O1016 Co990 2.155 . S
O1016 C1018 1.240 . S
O1017 Co990 2.096 . S
O1017 C998 1.247 . S
C1018 O1015 1.244 . S
C1018 O1016 1.240 . S
H1019 C993 0.931 . S
H1020 C1002 0.931 . S
H1021 C1006 0.929 . S
H1022 C1008 0.930 . S
Co1023 N1027 2.148 . S
Co1023 N1033 2.128 . S
Co1023 N1043 2.194 . S
Co1023 O1048 2.351 . S
Co1023 O1049 2.155 . S
Co1023 O1050 2.096 . S
C1024 N1027 1.301 . S
C1024 N1028 1.328 . S
C1024 H1029 0.930 . S
C1025 C1026 1.333 . S
C1025 N1027 1.317 . S
C1025 H1030 0.930 . S
C1026 C1025 1.333 . S
C1026 N1028 1.350 . S
C1026 H1052 0.931 . S
N1027 Co1023 2.148 . S
N1027 C1024 1.301 . S
N1027 C1025 1.317 . S
N1028 C1024 1.328 . S
N1028 C1026 1.350 . S
H1029 C1024 0.930 . S
H1030 C1025 0.930 . S
C1031 O1032 1.224 . S
C1031 O1050 1.247 . S
O1032 C1031 1.224 . S
N1033 Co1023 2.128 . S
N1033 C1034 1.355 . S
N1033 C1036 1.311 . S
C1034 N1033 1.355 . S
C1034 C1035 1.363 . S
C1034 H1046 0.929 . S
C1035 C1034 1.363 . S
C1035 N1037 1.375 . S
C1035 H1053 0.931 . S
C1036 N1033 1.311 . S
C1036 N1037 1.347 . S
C1036 H1047 0.929 . S
N1037 C1035 1.375 . S
N1037 C1036 1.347 . S
C1038 C1041 1.365 . S
C1038 N1043 1.328 . S
C1038 H1044 0.929 . S
C1039 C1040 1.362 . S
C1039 C1042 1.378 . S
C1039 H1054 0.929 . S
C1040 C1039 1.362 . S
C1040 C1041 1.366 . S
C1041 C1038 1.365 . S
C1041 C1040 1.366 . S
C1041 H1055 0.930 . S
C1042 C1039 1.378 . S
C1042 N1043 1.315 . S
C1042 H1045 0.930 . S
N1043 Co1023 2.194 . S
N1043 C1038 1.328 . S
N1043 C1042 1.315 . S
H1044 C1038 0.929 . S
H1045 C1042 0.930 . S
H1046 C1034 0.929 . S
H1047 C1036 0.929 . S
O1048 Co1023 2.351 . S
O1048 C1051 1.244 . S
O1049 Co1023 2.155 . S
O1049 C1051 1.240 . S
O1050 Co1023 2.096 . S
O1050 C1031 1.247 . S
C1051 O1048 1.244 . S
C1051 O1049 1.240 . S
H1052 C1026 0.931 . S
H1053 C1035 0.931 . S
H1054 C1039 0.929 . S
H1055 C1041 0.930 . S
Co1056 N1060 2.148 . S
Co1056 N1066 2.128 . S
Co1056 N1076 2.194 . S
Co1056 O1081 2.351 . S
Co1056 O1082 2.155 . S
Co1056 O1083 2.096 . S
C1057 N1060 1.301 . S
C1057 N1061 1.328 . S
C1057 H1062 0.930 . S
C1058 C1059 1.333 . S
C1058 N1060 1.317 . S
C1058 H1063 0.930 . S
C1059 C1058 1.333 . S
C1059 N1061 1.350 . S
C1059 H1085 0.931 . S
N1060 Co1056 2.148 . S
N1060 C1057 1.301 . S
N1060 C1058 1.317 . S
N1061 C1057 1.328 . S
N1061 C1059 1.350 . S
H1062 C1057 0.930 . S
H1063 C1058 0.930 . S
C1064 O1065 1.224 . S
C1064 O1083 1.247 . S
O1065 C1064 1.224 . S
N1066 Co1056 2.128 . S
N1066 C1067 1.355 1_556 S
N1066 C1069 1.311 1_556 S
C1067 N1066 1.355 1_554 S
C1067 C1068 1.363 . S
C1067 H1079 0.929 1_554 S
C1068 C1067 1.363 . S
C1068 N1070 1.375 . S
C1068 H1086 0.931 . S
C1069 N1066 1.311 1_554 S
C1069 N1070 1.347 . S
C1069 H1080 0.929 . S
N1070 C1068 1.375 . S
N1070 C1069 1.347 . S
C1071 C1074 1.365 . S
C1071 N1076 1.328 . S
C1071 H1077 0.929 . S
C1072 C1073 1.362 . S
C1072 C1075 1.378 . S
C1072 H1087 0.929 . S
C1073 C1072 1.362 . S
C1073 C1074 1.366 . S
C1074 C1071 1.365 . S
C1074 C1073 1.366 . S
C1074 H1088 0.930 . S
C1075 C1072 1.378 . S
C1075 N1076 1.315 . S
C1075 H1078 0.930 . S
N1076 Co1056 2.194 . S
N1076 C1071 1.328 . S
N1076 C1075 1.315 . S
H1077 C1071 0.929 . S
H1078 C1075 0.930 . S
H1079 C1067 0.929 1_556 S
H1080 C1069 0.929 . S
O1081 Co1056 2.351 . S
O1081 C1084 1.244 . S
O1082 Co1056 2.155 . S
O1082 C1084 1.240 . S
O1083 Co1056 2.096 . S
O1083 C1064 1.247 . S
C1084 O1081 1.244 . S
C1084 O1082 1.240 . S
H1085 C1059 0.931 . S
H1086 C1068 0.931 . S
H1087 C1072 0.929 . S
H1088 C1074 0.930 . S
Co1089 N1093 2.148 . S
Co1089 N1099 2.128 . S
Co1089 N1109 2.194 . S
Co1089 O1114 2.351 . S
Co1089 O1115 2.155 . S
Co1089 O1116 2.096 . S
C1090 N1093 1.301 . S
C1090 N1094 1.328 . S
C1090 H1095 0.930 . S
C1091 C1092 1.333 . S
C1091 N1093 1.317 . S
C1091 H1096 0.930 . S
C1092 C1091 1.333 . S
C1092 N1094 1.350 . S
C1092 H1118 0.931 . S
N1093 Co1089 2.148 . S
N1093 C1090 1.301 . S
N1093 C1091 1.317 . S
N1094 C1090 1.328 . S
N1094 C1092 1.350 . S
H1095 C1090 0.930 . S
H1096 C1091 0.930 . S
C1097 O1098 1.224 . S
C1097 O1116 1.247 . S
O1098 C1097 1.224 . S
N1099 Co1089 2.128 . S
N1099 C1100 1.355 . S
N1099 C1102 1.311 . S
C1100 N1099 1.355 . S
C1100 C1101 1.363 . S
C1100 H1112 0.929 . S
C1101 C1100 1.363 . S
C1101 N1103 1.375 . S
C1101 H1119 0.931 . S
C1102 N1099 1.311 . S
C1102 N1103 1.347 . S
C1102 H1113 0.929 . S
N1103 C1101 1.375 . S
N1103 C1102 1.347 . S
C1104 C1107 1.365 . S
C1104 N1109 1.328 . S
C1104 H1110 0.929 . S
C1105 C1106 1.362 . S
C1105 C1108 1.378 . S
C1105 H1120 0.929 . S
C1106 C1105 1.362 . S
C1106 C1107 1.366 . S
C1107 C1104 1.365 . S
C1107 C1106 1.366 . S
C1107 H1121 0.930 . S
C1108 C1105 1.378 . S
C1108 N1109 1.315 . S
C1108 H1111 0.930 . S
N1109 Co1089 2.194 . S
N1109 C1104 1.328 . S
N1109 C1108 1.315 . S
H1110 C1104 0.929 . S
H1111 C1108 0.930 . S
H1112 C1100 0.929 . S
H1113 C1102 0.929 . S
O1114 Co1089 2.351 . S
O1114 C1117 1.244 . S
O1115 Co1089 2.155 . S
O1115 C1117 1.240 . S
O1116 Co1089 2.096 . S
O1116 C1097 1.247 . S
C1117 O1114 1.244 . S
C1117 O1115 1.240 . S
H1118 C1092 0.931 . S
H1119 C1101 0.931 . S
H1120 C1105 0.929 . S
H1121 C1107 0.930 . S
Co1122 N1126 2.148 . S
Co1122 N1132 2.128 . S
Co1122 N1142 2.194 . S
Co1122 O1147 2.351 1_655 S
Co1122 O1148 2.155 . S
Co1122 O1149 2.096 . S
C1123 N1126 1.301 . S
C1123 N1127 1.328 . S
C1123 H1128 0.930 . S
C1124 C1125 1.333 . S
C1124 N1126 1.317 . S
C1124 H1129 0.930 . S
C1125 C1124 1.333 . S
C1125 N1127 1.350 . S
C1125 H1151 0.931 . S
N1126 Co1122 2.148 . S
N1126 C1123 1.301 . S
N1126 C1124 1.317 . S
N1127 C1123 1.328 . S
N1127 C1125 1.350 . S
H1128 C1123 0.930 . S
H1129 C1124 0.930 . S
C1130 O1131 1.224 . S
C1130 O1149 1.247 . S
O1131 C1130 1.224 . S
N1132 Co1122 2.128 . S
N1132 C1133 1.355 . S
N1132 C1135 1.311 . S
C1133 N1132 1.355 . S
C1133 C1134 1.363 . S
C1133 H1145 0.929 . S
C1134 C1133 1.363 . S
C1134 N1136 1.375 . S
C1134 H1152 0.931 . S
C1135 N1132 1.311 . S
C1135 N1136 1.347 . S
C1135 H1146 0.929 . S
N1136 C1134 1.375 . S
N1136 C1135 1.347 . S
C1137 C1140 1.365 . S
C1137 N1142 1.328 . S
C1137 H1143 0.909 1_655 S
C1138 C1139 1.362 . S
C1138 C1141 1.378 . S
C1138 H1153 0.929 . S
C1139 C1138 1.362 . S
C1139 C1140 1.366 . S
C1140 C1137 1.365 . S
C1140 C1139 1.366 . S
C1140 H1154 0.938 . S
C1141 C1138 1.378 . S
C1141 N1142 1.315 . S
C1141 H1144 0.930 . S
N1142 Co1122 2.194 . S
N1142 C1137 1.328 . S
N1142 C1141 1.315 . S
H1143 C1137 0.909 1_455 S
H1144 C1141 0.930 . S
H1145 C1133 0.929 . S
H1146 C1135 0.929 . S
O1147 Co1122 2.351 1_455 S
O1147 C1150 1.244 . S
O1148 Co1122 2.155 . S
O1148 C1150 1.240 1_655 S
O1149 Co1122 2.096 . S
O1149 C1130 1.247 . S
C1150 O1147 1.244 . S
C1150 O1148 1.240 1_455 S
H1151 C1125 0.931 . S
H1152 C1134 0.931 . S
H1153 C1138 0.929 . S
H1154 C1140 0.938 . S
Co1155 N1159 2.148 . S
Co1155 N1165 2.128 . S
Co1155 N1175 2.194 . S
Co1155 O1180 2.351 . S
Co1155 O1181 2.155 . S
Co1155 O1182 2.096 . S
C1156 N1159 1.301 . S
C1156 N1160 1.328 . S
C1156 H1161 0.930 . S
C1157 C1158 1.333 . S
C1157 N1159 1.317 . S
C1157 H1162 0.930 . S
C1158 C1157 1.333 . S
C1158 N1160 1.350 . S
C1158 H1184 0.931 . S
N1159 Co1155 2.148 . S
N1159 C1156 1.301 . S
N1159 C1157 1.317 . S
N1160 C1156 1.328 . S
N1160 C1158 1.350 . S
H1161 C1156 0.930 . S
H1162 C1157 0.930 . S
C1163 O1164 1.224 . S
C1163 O1182 1.247 . S
O1164 C1163 1.224 . S
N1165 Co1155 2.128 . S
N1165 C1166 1.355 . S
N1165 C1168 1.311 . S
C1166 N1165 1.355 . S
C1166 C1167 1.363 . S
C1166 H1178 0.929 . S
C1167 C1166 1.363 . S
C1167 N1169 1.375 . S
C1167 H1185 0.931 . S
C1168 N1165 1.311 . S
C1168 N1169 1.347 . S
C1168 H1179 0.929 . S
N1169 C1167 1.375 . S
N1169 C1168 1.347 . S
C1170 C1173 1.365 . S
C1170 N1175 1.328 . S
C1170 H1176 0.929 . S
C1171 C1172 1.362 . S
C1171 C1174 1.378 . S
C1171 H1186 0.929 . S
C1172 C1171 1.362 . S
C1172 C1173 1.366 . S
C1173 C1170 1.365 . S
C1173 C1172 1.366 . S
C1173 H1187 0.930 . S
C1174 C1171 1.378 . S
C1174 N1175 1.315 . S
C1174 H1177 0.930 . S
N1175 Co1155 2.194 . S
N1175 C1170 1.328 . S
N1175 C1174 1.315 . S
H1176 C1170 0.929 . S
H1177 C1174 0.930 . S
H1178 C1166 0.929 . S
H1179 C1168 0.929 . S
O1180 Co1155 2.351 . S
O1180 C1183 1.244 . S
O1181 Co1155 2.155 . S
O1181 C1183 1.240 . S
O1182 Co1155 2.096 . S
O1182 C1163 1.247 . S
C1183 O1180 1.244 . S
C1183 O1181 1.240 . S
H1184 C1158 0.931 . S
H1185 C1167 0.931 . S
H1186 C1171 0.929 . S
H1187 C1173 0.930 . S
Co1188 N1192 2.148 . S
Co1188 N1198 2.128 . S
Co1188 N1208 2.194 . S
Co1188 O1213 2.351 . S
Co1188 O1214 2.155 . S
Co1188 O1215 2.096 . S
C1189 N1192 1.301 . S
C1189 N1193 1.328 . S
C1189 H1194 0.930 . S
C1190 C1191 1.333 . S
C1190 N1192 1.317 . S
C1190 H1195 0.930 . S
C1191 C1190 1.333 . S
C1191 N1193 1.350 . S
C1191 H1217 0.931 . S
N1192 Co1188 2.148 . S
N1192 C1189 1.301 . S
N1192 C1190 1.317 . S
N1193 C1189 1.328 . S
N1193 C1191 1.350 . S
H1194 C1189 0.930 . S
H1195 C1190 0.930 . S
C1196 O1197 1.224 . S
C1196 O1215 1.247 . S
O1197 C1196 1.224 . S
N1198 Co1188 2.128 . S
N1198 C1199 1.355 . S
N1198 C1201 1.311 . S
C1199 N1198 1.355 . S
C1199 C1200 1.363 . S
C1199 H1211 0.929 . S
C1200 C1199 1.363 . S
C1200 N1202 1.375 . S
C1200 H1218 0.931 . S
C1201 N1198 1.311 . S
C1201 N1202 1.347 . S
C1201 H1212 0.929 . S
N1202 C1200 1.375 . S
N1202 C1201 1.347 . S
C1203 C1206 1.365 . S
C1203 N1208 1.328 . S
C1203 H1209 0.929 . S
C1204 C1205 1.362 . S
C1204 C1207 1.378 . S
C1204 H1219 0.929 . S
C1205 C1204 1.362 . S
C1205 C1206 1.366 . S
C1206 C1203 1.365 . S
C1206 C1205 1.366 . S
C1206 H1220 0.930 . S
C1207 C1204 1.378 . S
C1207 N1208 1.315 . S
C1207 H1210 0.930 . S
N1208 Co1188 2.194 . S
N1208 C1203 1.328 . S
N1208 C1207 1.315 . S
H1209 C1203 0.929 . S
H1210 C1207 0.930 . S
H1211 C1199 0.929 . S
H1212 C1201 0.929 . S
O1213 Co1188 2.351 . S
O1213 C1216 1.244 . S
O1214 Co1188 2.155 . S
O1214 C1216 1.240 . S
O1215 Co1188 2.096 . S
O1215 C1196 1.247 . S
C1216 O1213 1.244 . S
C1216 O1214 1.240 . S
H1217 C1191 0.931 . S
H1218 C1200 0.931 . S
H1219 C1204 0.929 . S
H1220 C1206 0.930 . S
Co1221 N1225 2.148 1_556 S
Co1221 N1231 2.128 . S
Co1221 N1241 2.194 . S
Co1221 O1246 2.351 . S
Co1221 O1247 2.155 . S
Co1221 O1248 2.096 . S
C1222 N1225 1.301 . S
C1222 N1226 1.328 . S
C1222 H1227 0.930 . S
C1223 C1224 1.333 . S
C1223 N1225 1.317 . S
C1223 H1228 0.930 . S
C1224 C1223 1.333 . S
C1224 N1226 1.350 . S
C1224 H1250 0.931 . S
N1225 Co1221 2.148 1_554 S
N1225 C1222 1.301 . S
N1225 C1223 1.317 . S
N1226 C1222 1.328 . S
N1226 C1224 1.350 . S
H1227 C1222 0.930 . S
H1228 C1223 0.930 . S
C1229 O1230 1.224 . S
C1229 O1248 1.247 . S
O1230 C1229 1.224 . S
N1231 Co1221 2.128 . S
N1231 C1232 1.355 . S
N1231 C1234 1.311 . S
C1232 N1231 1.355 . S
C1232 C1233 1.363 . S
C1232 H1244 0.929 . S
C1233 C1232 1.363 . S
C1233 N1235 1.375 . S
C1233 H1251 0.931 . S
C1234 N1231 1.311 . S
C1234 N1235 1.347 . S
C1234 H1245 0.929 . S
N1235 C1233 1.375 . S
N1235 C1234 1.347 . S
C1236 C1239 1.365 . S
C1236 N1241 1.328 . S
C1236 H1242 0.929 . S
C1237 C1238 1.362 . S
C1237 C1240 1.378 . S
C1237 H1252 0.929 . S
C1238 C1237 1.362 . S
C1238 C1239 1.366 . S
C1239 C1236 1.365 . S
C1239 C1238 1.366 . S
C1239 H1253 0.930 . S
C1240 C1237 1.378 . S
C1240 N1241 1.315 . S
C1240 H1243 0.930 . S
N1241 Co1221 2.194 . S
N1241 C1236 1.328 . S
N1241 C1240 1.315 . S
H1242 C1236 0.929 . S
H1243 C1240 0.930 . S
H1244 C1232 0.929 . S
H1245 C1234 0.929 . S
O1246 Co1221 2.351 . S
O1246 C1249 1.244 . S
O1247 Co1221 2.155 . S
O1247 C1249 1.240 . S
O1248 Co1221 2.096 . S
O1248 C1229 1.247 . S
C1249 O1246 1.244 . S
C1249 O1247 1.240 . S
H1250 C1224 0.931 . S
H1251 C1233 0.931 . S
H1252 C1237 0.929 . S
H1253 C1239 0.930 . S
Co1254 N1258 2.148 . S
Co1254 N1264 2.128 . S
Co1254 N1274 2.194 . S
Co1254 O1279 2.351 1_655 S
Co1254 O1280 2.155 . S
Co1254 O1281 2.096 . S
C1255 N1258 1.301 . S
C1255 N1259 1.328 . S
C1255 H1260 0.930 . S
C1256 C1257 1.333 . S
C1256 N1258 1.317 . S
C1256 H1261 0.930 . S
C1257 C1256 1.333 . S
C1257 N1259 1.350 . S
C1257 H1283 0.931 . S
N1258 Co1254 2.148 . S
N1258 C1255 1.301 . S
N1258 C1256 1.317 . S
N1259 C1255 1.328 . S
N1259 C1257 1.350 . S
H1260 C1255 0.930 . S
H1261 C1256 0.930 . S
C1262 O1263 1.224 . S
C1262 O1281 1.247 . S
O1263 C1262 1.224 . S
N1264 Co1254 2.128 . S
N1264 C1265 1.355 . S
N1264 C1267 1.311 . S
C1265 N1264 1.355 . S
C1265 C1266 1.363 . S
C1265 H1277 0.929 . S
C1266 C1265 1.363 . S
C1266 N1268 1.375 . S
C1266 H1284 0.931 . S
C1267 N1264 1.311 . S
C1267 N1268 1.347 . S
C1267 H1278 0.929 . S
N1268 C1266 1.375 . S
N1268 C1267 1.347 . S
C1269 C1272 1.365 . S
C1269 N1274 1.328 . S
C1269 H1275 0.917 1_655 S
C1270 C1271 1.362 . S
C1270 C1273 1.378 . S
C1270 H1285 0.929 . S
C1271 C1270 1.362 . S
C1271 C1272 1.366 . S
C1272 C1269 1.365 . S
C1272 C1271 1.366 . S
C1272 H1286 0.946 . S
C1273 C1270 1.378 . S
C1273 N1274 1.315 . S
C1273 H1276 0.930 . S
N1274 Co1254 2.194 . S
N1274 C1269 1.328 . S
N1274 C1273 1.315 . S
H1275 C1269 0.917 1_455 S
H1276 C1273 0.930 . S
H1277 C1265 0.929 . S
H1278 C1267 0.929 . S
O1279 Co1254 2.351 1_455 S
O1279 C1282 1.244 . S
O1280 Co1254 2.155 . S
O1280 C1282 1.240 1_655 S
O1281 Co1254 2.096 . S
O1281 C1262 1.247 . S
C1282 O1279 1.244 . S
C1282 O1280 1.240 1_455 S
H1283 C1257 0.931 . S
H1284 C1266 0.931 . S
H1285 C1270 0.929 . S
H1286 C1272 0.946 . S
Co1287 N1291 2.148 . S
Co1287 N1297 2.128 . S
Co1287 N1307 2.194 . S
Co1287 O1312 2.351 . S
Co1287 O1313 2.155 . S
Co1287 O1314 2.096 . S
C1288 N1291 1.301 . S
C1288 N1292 1.328 . S
C1288 H1293 0.930 . S
C1289 C1290 1.333 . S
C1289 N1291 1.317 . S
C1289 H1294 0.930 . S
C1290 C1289 1.333 . S
C1290 N1292 1.350 . S
C1290 H1316 0.931 . S
N1291 Co1287 2.148 . S
N1291 C1288 1.301 . S
N1291 C1289 1.317 . S
N1292 C1288 1.328 . S
N1292 C1290 1.350 . S
H1293 C1288 0.930 . S
H1294 C1289 0.930 . S
C1295 O1296 1.224 . S
C1295 O1314 1.247 . S
O1296 C1295 1.224 . S
N1297 Co1287 2.128 . S
N1297 C1298 1.355 . S
N1297 C1300 1.311 . S
C1298 N1297 1.355 . S
C1298 C1299 1.363 . S
C1298 H1310 0.929 . S
C1299 C1298 1.363 . S
C1299 N1301 1.375 . S
C1299 H1317 0.931 . S
C1300 N1297 1.311 . S
C1300 N1301 1.347 . S
C1300 H1311 0.929 . S
N1301 C1299 1.375 . S
N1301 C1300 1.347 . S
C1302 C1305 1.365 . S
C1302 N1307 1.328 . S
C1302 H1308 0.929 . S
C1303 C1304 1.362 . S
C1303 C1306 1.378 . S
C1303 H1318 0.929 . S
C1304 C1303 1.362 . S
C1304 C1305 1.366 . S
C1305 C1302 1.365 . S
C1305 C1304 1.366 . S
C1305 H1319 0.930 . S
C1306 C1303 1.378 . S
C1306 N1307 1.315 . S
C1306 H1309 0.930 . S
N1307 Co1287 2.194 . S
N1307 C1302 1.328 . S
N1307 C1306 1.315 . S
H1308 C1302 0.929 . S
H1309 C1306 0.930 . S
H1310 C1298 0.929 . S
H1311 C1300 0.929 . S
O1312 Co1287 2.351 . S
O1312 C1315 1.244 . S
O1313 Co1287 2.155 . S
O1313 C1315 1.240 . S
O1314 Co1287 2.096 . S
O1314 C1295 1.247 . S
C1315 O1312 1.244 . S
C1315 O1313 1.240 . S
H1316 C1290 0.931 . S
H1317 C1299 0.931 . S
H1318 C1303 0.929 . S
H1319 C1305 0.930 . S
Co1320 N1324 2.148 . S
Co1320 N1330 2.128 . S
Co1320 N1340 2.194 . S
Co1320 O1345 2.351 . S
Co1320 O1346 2.155 . S
Co1320 O1347 2.096 . S
C1321 N1324 1.301 . S
C1321 N1325 1.328 . S
C1321 H1326 0.930 . S
C1322 C1323 1.333 . S
C1322 N1324 1.317 . S
C1322 H1327 0.930 . S
C1323 C1322 1.333 . S
C1323 N1325 1.350 . S
C1323 H1349 0.931 . S
N1324 Co1320 2.148 . S
N1324 C1321 1.301 . S
N1324 C1322 1.317 . S
N1325 C1321 1.328 . S
N1325 C1323 1.350 . S
H1326 C1321 0.930 . S
H1327 C1322 0.930 . S
C1328 O1329 1.224 . S
C1328 O1347 1.247 . S
O1329 C1328 1.224 . S
N1330 Co1320 2.128 . S
N1330 C1331 1.355 1_655 S
N1330 C1333 1.311 1_655 S
C1331 N1330 1.355 1_455 S
C1331 C1332 1.363 . S
C1331 H1343 0.929 1_455 S
C1332 C1331 1.363 . S
C1332 N1334 1.375 . S
C1332 H1350 0.931 . S
C1333 N1330 1.311 1_455 S
C1333 N1334 1.347 . S
C1333 H1344 0.929 . S
N1334 C1332 1.375 . S
N1334 C1333 1.347 . S
C1335 C1338 1.365 . S
C1335 N1340 1.328 . S
C1335 H1341 0.929 . S
C1336 C1337 1.362 . S
C1336 C1339 1.378 . S
C1336 H1351 0.929 . S
C1337 C1336 1.362 . S
C1337 C1338 1.366 . S
C1338 C1335 1.365 . S
C1338 C1337 1.366 . S
C1338 H1352 0.930 . S
C1339 C1336 1.378 . S
C1339 N1340 1.315 . S
C1339 H1342 0.930 . S
N1340 Co1320 2.194 . S
N1340 C1335 1.328 . S
N1340 C1339 1.315 . S
H1341 C1335 0.929 . S
H1342 C1339 0.930 . S
H1343 C1331 0.929 1_655 S
H1344 C1333 0.929 . S
O1345 Co1320 2.351 . S
O1345 C1348 1.244 . S
O1346 Co1320 2.155 . S
O1346 C1348 1.240 . S
O1347 Co1320 2.096 . S
O1347 C1328 1.247 . S
C1348 O1345 1.244 . S
C1348 O1346 1.240 . S
H1349 C1323 0.931 . S
H1350 C1332 0.931 . S
H1351 C1336 0.929 . S
H1352 C1338 0.930 . S
Co1353 N1357 2.148 . S
Co1353 N1363 2.128 . S
Co1353 N1373 2.194 . S
Co1353 O1378 2.351 1_565 S
Co1353 O1379 2.155 . S
Co1353 O1380 2.096 . S
C1354 N1357 1.301 . S
C1354 N1358 1.328 . S
C1354 H1359 0.930 . S
C1355 C1356 1.333 . S
C1355 N1357 1.317 . S
C1355 H1360 0.930 . S
C1356 C1355 1.333 . S
C1356 N1358 1.350 . S
C1356 H1382 0.931 . S
N1357 Co1353 2.148 . S
N1357 C1354 1.301 . S
N1357 C1355 1.317 . S
N1358 C1354 1.328 . S
N1358 C1356 1.350 . S
H1359 C1354 0.930 . S
H1360 C1355 0.930 . S
C1361 O1362 1.224 . S
C1361 O1380 1.247 . S
O1362 C1361 1.224 . S
N1363 Co1353 2.128 . S
N1363 C1364 1.355 . S
N1363 C1366 1.311 . S
C1364 N1363 1.355 . S
C1364 C1365 1.363 . S
C1364 H1376 0.929 . S
C1365 C1364 1.363 . S
C1365 N1367 1.375 . S
C1365 H1383 0.931 . S
C1366 N1363 1.311 . S
C1366 N1367 1.347 . S
C1366 H1377 0.929 . S
N1367 C1365 1.375 . S
N1367 C1366 1.347 . S
C1368 C1371 1.365 . S
C1368 N1373 1.328 . S
C1368 H1374 0.909 1_565 S
C1369 C1370 1.362 . S
C1369 C1372 1.378 . S
C1369 H1384 0.929 . S
C1370 C1369 1.362 . S
C1370 C1371 1.366 . S
C1371 C1368 1.365 . S
C1371 C1370 1.366 . S
C1371 H1385 0.938 . S
C1372 C1369 1.378 . S
C1372 N1373 1.315 . S
C1372 H1375 0.930 . S
N1373 Co1353 2.194 . S
N1373 C1368 1.328 . S
N1373 C1372 1.315 . S
H1374 C1368 0.909 1_545 S
H1375 C1372 0.930 . S
H1376 C1364 0.929 . S
H1377 C1366 0.929 . S
O1378 Co1353 2.351 1_545 S
O1378 C1381 1.244 . S
O1379 Co1353 2.155 . S
O1379 C1381 1.240 1_565 S
O1380 Co1353 2.096 . S
O1380 C1361 1.247 . S
C1381 O1378 1.244 . S
C1381 O1379 1.240 1_545 S
H1382 C1356 0.931 . S
H1383 C1365 0.931 . S
H1384 C1369 0.929 . S
H1385 C1371 0.938 . S
Co1386 N1390 2.148 . S
Co1386 N1396 2.128 . S
Co1386 N1406 2.194 . S
Co1386 O1411 2.351 . S
Co1386 O1412 2.155 . S
Co1386 O1413 2.096 . S
C1387 N1390 1.301 . S
C1387 N1391 1.328 . S
C1387 H1392 0.930 . S
C1388 C1389 1.333 . S
C1388 N1390 1.317 . S
C1388 H1393 0.930 . S
C1389 C1388 1.333 . S
C1389 N1391 1.350 . S
C1389 H1415 0.931 . S
N1390 Co1386 2.148 . S
N1390 C1387 1.301 . S
N1390 C1388 1.317 . S
N1391 C1387 1.328 . S
N1391 C1389 1.350 . S
H1392 C1387 0.930 . S
H1393 C1388 0.930 . S
C1394 O1395 1.224 . S
C1394 O1413 1.247 . S
O1395 C1394 1.224 . S
N1396 Co1386 2.128 . S
N1396 C1397 1.355 . S
N1396 C1399 1.311 . S
C1397 N1396 1.355 . S
C1397 C1398 1.363 . S
C1397 H1409 0.929 . S
C1398 C1397 1.363 . S
C1398 N1400 1.375 . S
C1398 H1416 0.931 . S
C1399 N1396 1.311 . S
C1399 N1400 1.347 . S
C1399 H1410 0.929 . S
N1400 C1398 1.375 . S
N1400 C1399 1.347 . S
C1401 C1404 1.365 . S
C1401 N1406 1.328 . S
C1401 H1407 0.929 . S
C1402 C1403 1.362 . S
C1402 C1405 1.378 . S
C1402 H1417 0.929 . S
C1403 C1402 1.362 . S
C1403 C1404 1.366 . S
C1404 C1401 1.365 . S
C1404 C1403 1.366 . S
C1404 H1418 0.930 . S
C1405 C1402 1.378 . S
C1405 N1406 1.315 . S
C1405 H1408 0.930 . S
N1406 Co1386 2.194 . S
N1406 C1401 1.328 . S
N1406 C1405 1.315 . S
H1407 C1401 0.929 . S
H1408 C1405 0.930 . S
H1409 C1397 0.929 . S
H1410 C1399 0.929 . S
O1411 Co1386 2.351 . S
O1411 C1414 1.244 . S
O1412 Co1386 2.155 . S
O1412 C1414 1.240 . S
O1413 Co1386 2.096 . S
O1413 C1394 1.247 . S
C1414 O1411 1.244 . S
C1414 O1412 1.240 . S
H1415 C1389 0.931 . S
H1416 C1398 0.931 . S
H1417 C1402 0.929 . S
H1418 C1404 0.930 . S
Co1419 N1423 2.148 . S
Co1419 N1429 2.128 . S
Co1419 N1439 2.194 . S
Co1419 O1444 2.351 . S
Co1419 O1445 2.155 . S
Co1419 O1446 2.096 . S
C1420 N1423 1.301 . S
C1420 N1424 1.328 . S
C1420 H1425 0.930 . S
C1421 C1422 1.333 . S
C1421 N1423 1.317 . S
C1421 H1426 0.930 . S
C1422 C1421 1.333 . S
C1422 N1424 1.350 . S
C1422 H1448 0.931 . S
N1423 Co1419 2.148 . S
N1423 C1420 1.301 . S
N1423 C1421 1.317 . S
N1424 C1420 1.328 . S
N1424 C1422 1.350 . S
H1425 C1420 0.930 . S
H1426 C1421 0.930 . S
C1427 O1428 1.224 . S
C1427 O1446 1.247 . S
O1428 C1427 1.224 . S
N1429 Co1419 2.128 . S
N1429 C1430 1.355 . S
N1429 C1432 1.311 . S
C1430 N1429 1.355 . S
C1430 C1431 1.363 . S
C1430 H1442 0.929 . S
C1431 C1430 1.363 . S
C1431 N1433 1.375 . S
C1431 H1449 0.931 . S
C1432 N1429 1.311 . S
C1432 N1433 1.347 . S
C1432 H1443 0.929 . S
N1433 C1431 1.375 . S
N1433 C1432 1.347 . S
C1434 C1437 1.365 . S
C1434 N1439 1.328 . S
C1434 H1440 0.929 . S
C1435 C1436 1.362 . S
C1435 C1438 1.378 . S
C1435 H1450 0.929 . S
C1436 C1435 1.362 . S
C1436 C1437 1.366 . S
C1437 C1434 1.365 . S
C1437 C1436 1.366 . S
C1437 H1451 0.930 . S
C1438 C1435 1.378 . S
C1438 N1439 1.315 . S
C1438 H1441 0.930 . S
N1439 Co1419 2.194 . S
N1439 C1434 1.328 . S
N1439 C1438 1.315 . S
H1440 C1434 0.929 . S
H1441 C1438 0.930 . S
H1442 C1430 0.929 . S
H1443 C1432 0.929 . S
O1444 Co1419 2.351 . S
O1444 C1447 1.244 . S
O1445 Co1419 2.155 . S
O1445 C1447 1.240 . S
O1446 Co1419 2.096 . S
O1446 C1427 1.247 . S
C1447 O1444 1.244 . S
C1447 O1445 1.240 . S
H1448 C1422 0.931 . S
H1449 C1431 0.931 . S
H1450 C1435 0.929 . S
H1451 C1437 0.930 . S
Co1452 N1456 2.148 . S
Co1452 N1462 2.128 . S
Co1452 N1472 2.194 . S
Co1452 O1477 2.351 . S
Co1452 O1478 2.155 . S
Co1452 O1479 2.096 . S
C1453 N1456 1.301 . S
C1453 N1457 1.328 . S
C1453 H1458 0.930 . S
C1454 C1455 1.333 . S
C1454 N1456 1.317 . S
C1454 H1459 0.930 . S
C1455 C1454 1.333 . S
C1455 N1457 1.350 . S
C1455 H1481 0.931 . S
N1456 Co1452 2.148 . S
N1456 C1453 1.301 . S
N1456 C1454 1.317 . S
N1457 C1453 1.328 . S
N1457 C1455 1.350 . S
H1458 C1453 0.930 . S
H1459 C1454 0.930 . S
C1460 O1461 1.224 . S
C1460 O1479 1.247 . S
O1461 C1460 1.224 . S
N1462 Co1452 2.128 . S
N1462 C1463 1.355 . S
N1462 C1465 1.311 . S
C1463 N1462 1.355 . S
C1463 C1464 1.363 . S
C1463 H1475 0.929 . S
C1464 C1463 1.363 . S
C1464 N1466 1.375 . S
C1464 H1482 0.931 . S
C1465 N1462 1.311 . S
C1465 N1466 1.347 . S
C1465 H1476 0.929 . S
N1466 C1464 1.375 . S
N1466 C1465 1.347 . S
C1467 C1470 1.365 . S
C1467 N1472 1.328 . S
C1467 H1473 0.929 . S
C1468 C1469 1.362 . S
C1468 C1471 1.378 . S
C1468 H1483 0.929 . S
C1469 C1468 1.362 . S
C1469 C1470 1.366 . S
C1470 C1467 1.365 . S
C1470 C1469 1.366 . S
C1470 H1484 0.930 . S
C1471 C1468 1.378 . S
C1471 N1472 1.315 . S
C1471 H1474 0.930 . S
N1472 Co1452 2.194 . S
N1472 C1467 1.328 . S
N1472 C1471 1.315 . S
H1473 C1467 0.929 . S
H1474 C1471 0.930 . S
H1475 C1463 0.929 . S
H1476 C1465 0.929 . S
O1477 Co1452 2.351 . S
O1477 C1480 1.244 . S
O1478 Co1452 2.155 . S
O1478 C1480 1.240 . S
O1479 Co1452 2.096 . S
O1479 C1460 1.247 . S
C1480 O1477 1.244 . S
C1480 O1478 1.240 . S
H1481 C1455 0.931 . S
H1482 C1464 0.931 . S
H1483 C1468 0.929 . S
H1484 C1470 0.930 . S
Co1485 N1489 2.148 . S
Co1485 N1495 2.128 . S
Co1485 N1505 2.194 . S
Co1485 O1510 2.351 . S
Co1485 O1511 2.155 . S
Co1485 O1512 2.096 . S
C1486 N1489 1.301 . S
C1486 N1490 1.328 . S
C1486 H1491 0.930 . S
C1487 C1488 1.333 . S
C1487 N1489 1.317 . S
C1487 H1492 0.930 . S
C1488 C1487 1.333 . S
C1488 N1490 1.350 . S
C1488 H1514 0.931 . S
N1489 Co1485 2.148 . S
N1489 C1486 1.301 . S
N1489 C1487 1.317 . S
N1490 C1486 1.328 . S
N1490 C1488 1.350 . S
H1491 C1486 0.930 . S
H1492 C1487 0.930 . S
C1493 O1494 1.224 . S
C1493 O1512 1.247 . S
O1494 C1493 1.224 . S
N1495 Co1485 2.128 . S
N1495 C1496 1.355 . S
N1495 C1498 1.311 . S
C1496 N1495 1.355 . S
C1496 C1497 1.363 . S
C1496 H1508 0.929 . S
C1497 C1496 1.363 . S
C1497 N1499 1.375 . S
C1497 H1515 0.931 . S
C1498 N1495 1.311 . S
C1498 N1499 1.347 . S
C1498 H1509 0.929 . S
N1499 C1497 1.375 . S
N1499 C1498 1.347 . S
C1500 C1503 1.365 . S
C1500 N1505 1.328 . S
C1500 H1506 0.929 . S
C1501 C1502 1.362 . S
C1501 C1504 1.378 . S
C1501 H1516 0.929 . S
C1502 C1501 1.362 . S
C1502 C1503 1.366 . S
C1503 C1500 1.365 . S
C1503 C1502 1.366 . S
C1503 H1517 0.930 . S
C1504 C1501 1.378 . S
C1504 N1505 1.315 . S
C1504 H1507 0.930 . S
N1505 Co1485 2.194 . S
N1505 C1500 1.328 . S
N1505 C1504 1.315 . S
H1506 C1500 0.929 . S
H1507 C1504 0.930 . S
H1508 C1496 0.929 . S
H1509 C1498 0.929 . S
O1510 Co1485 2.351 . S
O1510 C1513 1.244 . S
O1511 Co1485 2.155 . S
O1511 C1513 1.240 . S
O1512 Co1485 2.096 . S
O1512 C1493 1.247 . S
C1513 O1510 1.244 . S
C1513 O1511 1.240 . S
H1514 C1488 0.931 . S
H1515 C1497 0.931 . S
H1516 C1501 0.929 . S
H1517 C1503 0.930 . S
Co1518 N1522 2.148 1_565 S
Co1518 N1528 2.128 . S
Co1518 N1538 2.194 . S
Co1518 O1543 2.351 . S
Co1518 O1544 2.155 . S
Co1518 O1545 2.096 . S
C1519 N1522 1.301 . S
C1519 N1523 1.328 . S
C1519 H1524 0.930 . S
C1520 C1521 1.333 . S
C1520 N1522 1.317 . S
C1520 H1525 0.930 . S
C1521 C1520 1.333 . S
C1521 N1523 1.350 . S
C1521 H1547 0.931 . S
N1522 Co1518 2.148 1_545 S
N1522 C1519 1.301 . S
N1522 C1520 1.317 . S
N1523 C1519 1.328 . S
N1523 C1521 1.350 . S
H1524 C1519 0.930 . S
H1525 C1520 0.930 . S
C1526 O1527 1.224 . S
C1526 O1545 1.247 . S
O1527 C1526 1.224 . S
N1528 Co1518 2.128 . S
N1528 C1529 1.355 . S
N1528 C1531 1.311 . S
C1529 N1528 1.355 . S
C1529 C1530 1.363 . S
C1529 H1541 0.929 . S
C1530 C1529 1.363 . S
C1530 N1532 1.375 . S
C1530 H1548 0.931 . S
C1531 N1528 1.311 . S
C1531 N1532 1.347 . S
C1531 H1542 0.929 . S
N1532 C1530 1.375 . S
N1532 C1531 1.347 . S
C1533 C1536 1.365 . S
C1533 N1538 1.328 . S
C1533 H1539 0.929 . S
C1534 C1535 1.362 . S
C1534 C1537 1.378 . S
C1534 H1549 0.929 . S
C1535 C1534 1.362 . S
C1535 C1536 1.366 . S
C1536 C1533 1.365 . S
C1536 C1535 1.366 . S
C1536 H1550 0.930 . S
C1537 C1534 1.378 . S
C1537 N1538 1.315 . S
C1537 H1540 0.930 . S
N1538 Co1518 2.194 . S
N1538 C1533 1.328 . S
N1538 C1537 1.315 . S
H1539 C1533 0.929 . S
H1540 C1537 0.930 . S
H1541 C1529 0.929 . S
H1542 C1531 0.929 . S
O1543 Co1518 2.351 . S
O1543 C1546 1.244 . S
O1544 Co1518 2.155 . S
O1544 C1546 1.240 . S
O1545 Co1518 2.096 . S
O1545 C1526 1.247 . S
C1546 O1543 1.244 . S
C1546 O1544 1.240 . S
H1547 C1521 0.931 . S
H1548 C1530 0.931 . S
H1549 C1534 0.929 . S
H1550 C1536 0.930 . S
Co1551 N1555 2.148 . S
Co1551 N1561 2.128 . S
Co1551 N1571 2.194 . S
Co1551 O1576 2.351 . S
Co1551 O1577 2.155 . S
Co1551 O1578 2.096 . S
C1552 N1555 1.301 . S
C1552 N1556 1.328 . S
C1552 H1557 0.930 . S
C1553 C1554 1.333 . S
C1553 N1555 1.317 . S
C1553 H1558 0.930 . S
C1554 C1553 1.333 . S
C1554 N1556 1.350 . S
C1554 H1580 0.931 . S
N1555 Co1551 2.148 . S
N1555 C1552 1.301 . S
N1555 C1553 1.317 . S
N1556 C1552 1.328 . S
N1556 C1554 1.350 . S
H1557 C1552 0.930 . S
H1558 C1553 0.930 . S
C1559 O1560 1.224 . S
C1559 O1578 1.247 . S
O1560 C1559 1.224 . S
N1561 Co1551 2.128 . S
N1561 C1562 1.355 . S
N1561 C1564 1.311 . S
C1562 N1561 1.355 . S
C1562 C1563 1.363 . S
C1562 H1574 0.929 . S
C1563 C1562 1.363 . S
C1563 N1565 1.375 . S
C1563 H1581 0.931 . S
C1564 N1561 1.311 . S
C1564 N1565 1.347 . S
C1564 H1575 0.929 . S
N1565 C1563 1.375 . S
N1565 C1564 1.347 . S
C1566 C1569 1.365 . S
C1566 N1571 1.328 . S
C1566 H1572 0.929 . S
C1567 C1568 1.362 . S
C1567 C1570 1.378 . S
C1567 H1582 0.929 . S
C1568 C1567 1.362 . S
C1568 C1569 1.366 . S
C1569 C1566 1.365 . S
C1569 C1568 1.366 . S
C1569 H1583 0.930 . S
C1570 C1567 1.378 . S
C1570 N1571 1.315 . S
C1570 H1573 0.930 . S
N1571 Co1551 2.194 . S
N1571 C1566 1.328 . S
N1571 C1570 1.315 . S
H1572 C1566 0.929 . S
H1573 C1570 0.930 . S
H1574 C1562 0.929 . S
H1575 C1564 0.929 . S
O1576 Co1551 2.351 . S
O1576 C1579 1.244 . S
O1577 Co1551 2.155 . S
O1577 C1579 1.240 . S
O1578 Co1551 2.096 . S
O1578 C1559 1.247 . S
C1579 O1576 1.244 . S
C1579 O1577 1.240 . S
H1580 C1554 0.931 . S
H1581 C1563 0.931 . S
H1582 C1567 0.929 . S
H1583 C1569 0.930 . S
H1584 C1590 0.930 . S
H1585 C1593 0.930 . S
H1586 C1594 0.930 . S
H1587 C1595 0.930 . S
H1588 C1598 0.930 . S
H1589 C1599 0.930 . S
C1590 H1584 0.930 . S
C1590 C1591 1.355 . S
C1590 C1592 1.415 . S
C1591 C1590 1.355 . S
C1591 C1593 1.419 . S
C1592 C1590 1.415 . S
C1592 C1597 1.425 . S
C1592 C1599 1.409 . S
C1593 H1585 0.930 . S
C1593 C1591 1.419 . S
C1593 C1594 1.362 . S
C1594 H1586 0.930 . S
C1594 C1593 1.362 . S
C1594 C1597 1.409 . S
C1595 H1587 0.930 . S
C1595 C1596 1.355 . S
C1595 C1597 1.415 . S
C1596 C1595 1.355 . S
C1596 C1598 1.419 . S
C1597 C1592 1.425 . S
C1597 C1594 1.409 . S
C1597 C1595 1.415 . S
C1598 H1588 0.930 . S
C1598 C1596 1.419 . S
C1598 C1599 1.362 . S
C1599 H1589 0.930 . S
C1599 C1592 1.409 . S
C1599 C1598 1.362 . S
H1600 C1606 0.930 . S
H1601 C1609 0.930 . S
H1602 C1610 0.930 . S
H1603 C1611 0.930 . S
H1604 C1614 0.930 . S
H1605 C1615 0.930 . S
C1606 H1600 0.930 . S
C1606 C1607 1.358 . S
C1606 C1608 1.415 1_655 S
C1607 C1606 1.358 . S
C1607 C1609 1.387 1_655 S
C1608 C1606 1.415 1_455 S
C1608 C1613 1.425 . S
C1608 C1615 1.409 . S
C1609 H1601 0.930 . S
C1609 C1607 1.387 1_455 S
C1609 C1610 1.362 . S
C1610 H1602 0.930 . S
C1610 C1609 1.362 . S
C1610 C1613 1.409 . S
C1611 H1603 0.930 . S
C1611 C1612 1.355 . S
C1611 C1613 1.415 . S
C1612 C1611 1.355 . S
C1612 C1614 1.419 . S
C1613 C1608 1.425 . S
C1613 C1610 1.409 . S
C1613 C1611 1.415 . S
C1614 H1604 0.930 . S
C1614 C1612 1.419 . S
C1614 C1615 1.362 . S
C1615 H1605 0.930 . S
C1615 C1608 1.409 . S
C1615 C1614 1.362 . S
H1616 C1622 0.930 . S
H1617 C1625 0.930 . S
H1618 C1626 0.930 . S
H1619 C1627 0.930 . S
H1620 C1630 0.930 . S
H1621 C1631 0.930 . S
C1622 H1616 0.930 . S
C1622 C1623 1.355 . S
C1622 C1624 1.415 . S
C1623 C1622 1.355 . S
C1623 C1625 1.419 . S
C1624 C1622 1.415 . S
C1624 C1629 1.425 . S
C1624 C1631 1.409 . S
C1625 H1617 0.930 . S
C1625 C1623 1.419 . S
C1625 C1626 1.362 . S
C1626 H1618 0.930 . S
C1626 C1625 1.362 . S
C1626 C1629 1.409 . S
C1627 H1619 0.930 . S
C1627 C1628 1.355 . S
C1627 C1629 1.415 . S
C1628 C1627 1.355 . S
C1628 C1630 1.419 . S
C1629 C1624 1.425 . S
C1629 C1626 1.409 . S
C1629 C1627 1.415 . S
C1630 H1620 0.930 . S
C1630 C1628 1.419 . S
C1630 C1631 1.362 . S
C1631 H1621 0.930 . S
C1631 C1624 1.409 . S
C1631 C1630 1.362 . S
H1632 C1638 0.930 . S
H1633 C1641 0.930 . S
H1634 C1642 0.930 . S
H1635 C1643 0.930 . S
H1636 C1646 0.930 . S
H1637 C1647 0.930 . S
C1638 H1632 0.930 . S
C1638 C1639 1.355 . S
C1638 C1640 1.415 . S
C1639 C1638 1.355 . S
C1639 C1641 1.419 . S
C1640 C1638 1.415 . S
C1640 C1645 1.425 . S
C1640 C1647 1.409 . S
C1641 H1633 0.930 . S
C1641 C1639 1.419 . S
C1641 C1642 1.362 . S
C1642 H1634 0.930 . S
C1642 C1641 1.362 . S
C1642 C1645 1.409 . S
C1643 H1635 0.930 . S
C1643 C1644 1.355 . S
C1643 C1645 1.415 . S
C1644 C1643 1.355 . S
C1644 C1646 1.419 . S
C1645 C1640 1.425 . S
C1645 C1642 1.409 . S
C1645 C1643 1.415 . S
C1646 H1636 0.930 . S
C1646 C1644 1.419 . S
C1646 C1647 1.362 . S
C1647 H1637 0.930 . S
C1647 C1640 1.409 . S
C1647 C1646 1.362 . S
H1648 C1654 0.930 . S
H1649 C1657 0.930 . S
H1650 C1658 0.930 . S
H1651 C1659 0.930 . S
H1652 C1662 0.930 . S
H1653 C1663 0.930 . S
C1654 H1648 0.930 . S
C1654 C1655 1.355 . S
C1654 C1656 1.415 . S
C1655 C1654 1.355 . S
C1655 C1657 1.419 . S
C1656 C1654 1.415 . S
C1656 C1661 1.425 . S
C1656 C1663 1.409 . S
C1657 H1649 0.930 . S
C1657 C1655 1.419 . S
C1657 C1658 1.362 . S
C1658 H1650 0.930 . S
C1658 C1657 1.362 . S
C1658 C1661 1.409 . S
C1659 H1651 0.930 . S
C1659 C1660 1.355 . S
C1659 C1661 1.415 . S
C1660 C1659 1.355 . S
C1660 C1662 1.419 . S
C1661 C1656 1.425 . S
C1661 C1658 1.409 . S
C1661 C1659 1.415 . S
C1662 H1652 0.930 . S
C1662 C1660 1.419 . S
C1662 C1663 1.362 . S
C1663 H1653 0.930 . S
C1663 C1656 1.409 . S
C1663 C1662 1.362 . S
H1664 C1670 0.930 . S
H1665 C1673 0.930 . S
H1666 C1674 0.930 . S
H1667 C1675 0.930 . S
H1668 C1678 0.930 . S
H1669 C1679 0.930 . S
C1670 H1664 0.930 . S
C1670 C1671 1.355 . S
C1670 C1672 1.415 . S
C1671 C1670 1.355 . S
C1671 C1673 1.419 . S
C1672 C1670 1.415 . S
C1672 C1677 1.425 . S
C1672 C1679 1.409 . S
C1673 H1665 0.930 . S
C1673 C1671 1.419 . S
C1673 C1674 1.362 . S
C1674 H1666 0.930 . S
C1674 C1673 1.362 . S
C1674 C1677 1.409 . S
C1675 H1667 0.930 . S
C1675 C1676 1.355 . S
C1675 C1677 1.415 . S
C1676 C1675 1.355 . S
C1676 C1678 1.419 . S
C1677 C1672 1.425 . S
C1677 C1674 1.409 . S
C1677 C1675 1.415 . S
C1678 H1668 0.930 . S
C1678 C1676 1.419 . S
C1678 C1679 1.362 . S
C1679 H1669 0.930 . S
C1679 C1672 1.409 . S
C1679 C1678 1.362 . S
H1680 C1686 0.930 . S
H1681 C1689 0.930 . S
H1682 C1690 0.930 . S
H1683 C1691 0.930 . S
H1684 C1694 0.930 . S
H1685 C1695 0.930 . S
C1686 H1680 0.930 . S
C1686 C1687 1.355 . S
C1686 C1688 1.415 . S
C1687 C1686 1.355 . S
C1687 C1689 1.419 . S
C1688 C1686 1.415 . S
C1688 C1693 1.425 . S
C1688 C1695 1.409 . S
C1689 H1681 0.930 . S
C1689 C1687 1.419 . S
C1689 C1690 1.362 . S
C1690 H1682 0.930 . S
C1690 C1689 1.362 . S
C1690 C1693 1.409 . S
C1691 H1683 0.930 . S
C1691 C1692 1.355 . S
C1691 C1693 1.415 . S
C1692 C1691 1.355 . S
C1692 C1694 1.419 . S
C1693 C1688 1.425 . S
C1693 C1690 1.409 . S
C1693 C1691 1.415 . S
C1694 H1684 0.930 . S
C1694 C1692 1.419 . S
C1694 C1695 1.362 . S
C1695 H1685 0.930 . S
C1695 C1688 1.409 . S
C1695 C1694 1.362 . S
H1696 C1702 0.930 . S
H1697 C1705 0.930 . S
H1698 C1706 0.930 . S
H1699 C1707 0.930 . S
H1700 C1710 0.930 . S
H1701 C1711 0.930 . S
C1702 H1696 0.930 . S
C1702 C1703 1.355 . S
C1702 C1704 1.415 . S
C1703 C1702 1.355 . S
C1703 C1705 1.419 . S
C1704 C1702 1.415 . S
C1704 C1709 1.425 . S
C1704 C1711 1.409 . S
C1705 H1697 0.930 . S
C1705 C1703 1.419 . S
C1705 C1706 1.362 . S
C1706 H1698 0.930 . S
C1706 C1705 1.362 . S
C1706 C1709 1.409 . S
C1707 H1699 0.930 . S
C1707 C1708 1.358 . S
C1707 C1709 1.415 1_655 S
C1708 C1707 1.358 . S
C1708 C1710 1.378 1_655 S
C1709 C1704 1.425 . S
C1709 C1706 1.409 . S
C1709 C1707 1.415 1_455 S
C1710 H1700 0.930 . S
C1710 C1708 1.378 1_455 S
C1710 C1711 1.362 . S
C1711 H1701 0.930 . S
C1711 C1704 1.409 . S
C1711 C1710 1.362 . S
H1712 C1718 0.930 . S
H1713 C1721 0.930 . S
H1714 C1722 0.930 . S
H1715 C1723 0.930 . S
H1716 C1726 0.930 . S
H1717 C1727 0.930 . S
C1718 H1712 0.930 . S
C1718 C1719 1.355 . S
C1718 C1720 1.415 . S
C1719 C1718 1.355 . S
C1719 C1721 1.419 . S
C1720 C1718 1.415 . S
C1720 C1725 1.425 . S
C1720 C1727 1.409 . S
C1721 H1713 0.930 . S
C1721 C1719 1.419 . S
C1721 C1722 1.362 . S
C1722 H1714 0.930 . S
C1722 C1721 1.362 . S
C1722 C1725 1.409 . S
C1723 H1715 0.930 . S
C1723 C1724 1.355 . S
C1723 C1725 1.415 . S
C1724 C1723 1.355 . S
C1724 C1726 1.419 . S
C1725 C1720 1.425 . S
C1725 C1722 1.409 . S
C1725 C1723 1.415 . S
C1726 H1716 0.930 . S
C1726 C1724 1.419 . S
C1726 C1727 1.362 . S
C1727 H1717 0.930 . S
C1727 C1720 1.409 . S
C1727 C1726 1.362 . S
H1728 C1734 0.930 . S
H1729 C1737 0.930 . S
H1730 C1738 0.930 . S
H1731 C1739 0.930 . S
H1732 C1742 0.881 1_545 S
H1733 C1743 0.930 1_545 S
C1734 H1728 0.930 . S
C1734 C1735 1.355 . S
C1734 C1736 1.415 . S
C1735 C1734 1.355 . S
C1735 C1737 1.419 . S
C1736 C1734 1.415 . S
C1736 C1741 1.425 . S
C1736 C1743 1.409 . S
C1737 H1729 0.930 . S
C1737 C1735 1.419 . S
C1737 C1738 1.362 . S
C1738 H1730 0.930 . S
C1738 C1737 1.362 . S
C1738 C1741 1.409 . S
C1739 H1731 0.930 . S
C1739 C1740 1.355 . S
C1739 C1741 1.415 . S
C1740 C1739 1.355 . S
C1740 C1742 1.419 . S
C1741 C1736 1.425 . S
C1741 C1738 1.409 . S
C1741 C1739 1.415 . S
C1742 H1732 0.881 1_565 S
C1742 C1740 1.419 . S
C1742 C1743 1.362 . S
C1743 H1733 0.930 1_565 S
C1743 C1736 1.409 . S
C1743 C1742 1.362 . S
H1744 C1750 0.930 . S
H1745 C1753 0.930 . S
H1746 C1754 0.930 . S
H1747 C1755 0.930 1_565 S
H1748 C1758 0.930 . S
H1749 C1759 0.930 . S
C1750 H1744 0.930 . S
C1750 C1751 1.355 . S
C1750 C1752 1.415 . S
C1751 C1750 1.355 . S
C1751 C1753 1.419 . S
C1752 C1750 1.415 . S
C1752 C1757 1.425 . S
C1752 C1759 1.409 . S
C1753 H1745 0.930 . S
C1753 C1751 1.419 . S
C1753 C1754 1.362 . S
C1754 H1746 0.930 . S
C1754 C1753 1.362 . S
C1754 C1757 1.409 . S
C1755 H1747 0.930 1_545 S
C1755 C1756 1.355 1_545 S
C1755 C1757 1.415 . S
C1756 C1755 1.355 1_565 S
C1756 C1758 1.419 1_565 S
C1757 C1752 1.425 . S
C1757 C1754 1.409 . S
C1757 C1755 1.415 . S
C1758 H1748 0.930 . S
C1758 C1756 1.419 1_545 S
C1758 C1759 1.362 . S
C1759 H1749 0.930 . S
C1759 C1752 1.409 . S
C1759 C1758 1.362 . S
H1760 C1766 0.930 . S
H1761 C1769 0.930 . S
H1762 C1770 0.930 . S
H1763 C1771 0.930 . S
H1764 C1774 0.930 . S
H1765 C1775 0.930 . S
C1766 H1760 0.930 . S
C1766 C1767 1.355 . S
C1766 C1768 1.415 . S
C1767 C1766 1.355 . S
C1767 C1769 1.419 . S
C1768 C1766 1.415 . S
C1768 C1773 1.425 . S
C1768 C1775 1.409 . S
C1769 H1761 0.930 . S
C1769 C1767 1.419 . S
C1769 C1770 1.362 . S
C1770 H1762 0.930 . S
C1770 C1769 1.362 . S
C1770 C1773 1.409 . S
C1771 H1763 0.930 . S
C1771 C1772 1.355 . S
C1771 C1773 1.415 . S
C1772 C1771 1.355 . S
C1772 C1774 1.419 . S
C1773 C1768 1.425 . S
C1773 C1770 1.409 . S
C1773 C1771 1.415 . S
C1774 H1764 0.930 . S
C1774 C1772 1.419 . S
C1774 C1775 1.362 . S
C1775 H1765 0.930 . S
C1775 C1768 1.409 . S
C1775 C1774 1.362 . S
H1776 C1782 0.930 . S
H1777 C1785 0.930 . S
H1778 C1786 0.930 . S
H1779 C1787 0.930 . S
H1780 C1790 0.930 . S
H1781 C1791 0.931 1_565 S
C1782 H1776 0.930 . S
C1782 C1783 1.355 . S
C1782 C1784 1.415 . S
C1783 C1782 1.355 . S
C1783 C1785 1.419 . S
C1784 C1782 1.415 . S
C1784 C1789 1.425 . S
C1784 C1791 1.408 . S
C1785 H1777 0.930 . S
C1785 C1783 1.419 . S
C1785 C1786 1.362 . S
C1786 H1778 0.930 . S
C1786 C1785 1.362 . S
C1786 C1789 1.409 . S
C1787 H1779 0.930 . S
C1787 C1788 1.355 1_545 S
C1787 C1789 1.415 . S
C1788 C1787 1.355 1_565 S
C1788 C1790 1.419 . S
C1789 C1784 1.425 . S
C1789 C1786 1.409 . S
C1789 C1787 1.415 . S
C1790 H1780 0.930 . S
C1790 C1788 1.419 . S
C1790 C1791 1.363 1_565 S
C1791 H1781 0.931 1_545 S
C1791 C1784 1.408 . S
C1791 C1790 1.363 1_545 S
H1792 C1798 0.930 . S
H1793 C1801 0.930 . S
H1794 C1802 0.930 . S
H1795 C1803 0.930 . S
H1796 C1806 0.930 . S
H1797 C1807 0.930 . S
C1798 H1792 0.930 . S
C1798 C1799 1.355 . S
C1798 C1800 1.415 . S
C1799 C1798 1.355 . S
C1799 C1801 1.419 . S
C1800 C1798 1.415 . S
C1800 C1805 1.425 . S
C1800 C1807 1.409 . S
C1801 H1793 0.930 . S
C1801 C1799 1.419 . S
C1801 C1802 1.362 . S
C1802 H1794 0.930 . S
C1802 C1801 1.362 . S
C1802 C1805 1.409 . S
C1803 H1795 0.930 . S
C1803 C1804 1.355 . S
C1803 C1805 1.415 . S
C1804 C1803 1.355 . S
C1804 C1806 1.419 . S
C1805 C1800 1.425 . S
C1805 C1802 1.409 . S
C1805 C1803 1.415 . S
C1806 H1796 0.930 . S
C1806 C1804 1.419 . S
C1806 C1807 1.362 . S
C1807 H1797 0.930 . S
C1807 C1800 1.409 . S
C1807 C1806 1.362 . S
H1808 C1814 0.930 . S
H1809 C1817 0.930 . S
H1810 C1818 0.930 . S
H1811 C1819 0.930 . S
H1812 C1822 0.930 . S
H1813 C1823 0.930 . S
C1814 H1808 0.930 . S
C1814 C1815 1.355 . S
C1814 C1816 1.415 . S
C1815 C1814 1.355 . S
C1815 C1817 1.419 . S
C1816 C1814 1.415 . S
C1816 C1821 1.425 . S
C1816 C1823 1.409 . S
C1817 H1809 0.930 . S
C1817 C1815 1.419 . S
C1817 C1818 1.362 . S
C1818 H1810 0.930 . S
C1818 C1817 1.362 . S
C1818 C1821 1.409 . S
C1819 H1811 0.930 . S
C1819 C1820 1.355 . S
C1819 C1821 1.415 . S
C1820 C1819 1.355 . S
C1820 C1822 1.419 . S
C1821 C1816 1.425 . S
C1821 C1818 1.409 . S
C1821 C1819 1.415 . S
C1822 H1812 0.930 . S
C1822 C1820 1.419 . S
C1822 C1823 1.362 . S
C1823 H1813 0.930 . S
C1823 C1816 1.409 . S
C1823 C1822 1.362 . S
H1824 C1830 0.930 . S
H1825 C1833 0.930 . S
H1826 C1834 0.930 . S
H1827 C1835 0.930 . S
H1828 C1838 0.930 . S
H1829 C1839 0.930 . S
C1830 H1824 0.930 . S
C1830 C1831 1.355 . S
C1830 C1832 1.415 . S
C1831 C1830 1.355 . S
C1831 C1833 1.419 . S
C1832 C1830 1.415 . S
C1832 C1837 1.425 . S
C1832 C1839 1.409 . S
C1833 H1825 0.930 . S
C1833 C1831 1.419 . S
C1833 C1834 1.362 . S
C1834 H1826 0.930 . S
C1834 C1833 1.362 . S
C1834 C1837 1.409 . S
C1835 H1827 0.930 . S
C1835 C1836 1.358 . S
C1835 C1837 1.415 1_556 S
C1836 C1835 1.358 . S
C1836 C1838 1.384 1_556 S
C1837 C1832 1.425 . S
C1837 C1834 1.409 . S
C1837 C1835 1.415 1_554 S
C1838 H1828 0.930 . S
C1838 C1836 1.384 1_554 S
C1838 C1839 1.362 . S
C1839 H1829 0.930 . S
C1839 C1832 1.409 . S
C1839 C1838 1.362 . S
H1840 C1846 0.930 . S
H1841 C1849 0.930 . S
H1842 C1850 0.930 . S
H1843 C1851 0.930 . S
H1844 C1854 0.930 . S
H1845 C1855 0.930 . S
C1846 H1840 0.930 . S
C1846 C1847 1.355 . S
C1846 C1848 1.415 . S
C1847 C1846 1.355 . S
C1847 C1849 1.419 . S
C1848 C1846 1.415 . S
C1848 C1853 1.425 . S
C1848 C1855 1.409 . S
C1849 H1841 0.930 . S
C1849 C1847 1.419 . S
C1849 C1850 1.362 . S
C1850 H1842 0.930 . S
C1850 C1849 1.362 . S
C1850 C1853 1.409 . S
C1851 H1843 0.930 . S
C1851 C1852 1.357 . S
C1851 C1853 1.415 1_556 S
C1852 C1851 1.357 . S
C1852 C1854 1.393 1_556 S
C1853 C1848 1.425 . S
C1853 C1850 1.409 . S
C1853 C1851 1.415 1_554 S
C1854 H1844 0.930 . S
C1854 C1852 1.393 1_554 S
C1854 C1855 1.362 . S
C1855 H1845 0.930 . S
C1855 C1848 1.409 . S
C1855 C1854 1.362 . S
H1856 C1862 0.930 . S
H1857 C1865 0.930 1_455 S
H1858 C1866 0.930 1_455 S
H1859 C1867 0.930 . S
H1860 C1870 0.930 . S
H1861 C1871 0.930 . S
C1862 H1856 0.930 . S
C1862 C1863 1.355 . S
C1862 C1864 1.415 . S
C1863 C1862 1.355 . S
C1863 C1865 1.419 . S
C1864 C1862 1.415 . S
C1864 C1869 1.425 . S
C1864 C1871 1.409 . S
C1865 H1857 0.930 1_655 S
C1865 C1863 1.419 . S
C1865 C1866 1.362 . S
C1866 H1858 0.930 1_655 S
C1866 C1865 1.362 . S
C1866 C1869 1.409 . S
C1867 H1859 0.930 . S
C1867 C1868 1.355 . S
C1867 C1869 1.415 . S
C1868 C1867 1.355 . S
C1868 C1870 1.419 . S
C1869 C1864 1.425 . S
C1869 C1866 1.409 . S
C1869 C1867 1.415 . S
C1870 H1860 0.930 . S
C1870 C1868 1.419 . S
C1870 C1871 1.362 . S
C1871 H1861 0.930 . S
C1871 C1864 1.409 . S
C1871 C1870 1.362 . S
H1872 C1878 0.930 . S
H1873 C1881 0.930 . S
H1874 C1882 0.930 . S
H1875 C1883 0.930 . S
H1876 C1886 0.930 . S
H1877 C1887 0.930 . S
C1878 H1872 0.930 . S
C1878 C1879 1.355 . S
C1878 C1880 1.415 . S
C1879 C1878 1.355 . S
C1879 C1881 1.419 . S
C1880 C1878 1.415 . S
C1880 C1885 1.425 . S
C1880 C1887 1.409 . S
C1881 H1873 0.930 . S
C1881 C1879 1.419 . S
C1881 C1882 1.362 . S
C1882 H1874 0.930 . S
C1882 C1881 1.362 . S
C1882 C1885 1.409 . S
C1883 H1875 0.930 . S
C1883 C1884 1.355 . S
C1883 C1885 1.415 . S
C1884 C1883 1.355 . S
C1884 C1886 1.419 . S
C1885 C1880 1.425 . S
C1885 C1882 1.409 . S
C1885 C1883 1.415 . S
C1886 H1876 0.930 . S
C1886 C1884 1.419 . S
C1886 C1887 1.362 . S
C1887 H1877 0.930 . S
C1887 C1880 1.409 . S
C1887 C1886 1.362 . S
H1888 C1894 0.930 . S
H1889 C1897 0.930 . S
H1890 C1898 0.930 . S
H1891 C1899 0.930 . S
H1892 C1902 0.930 . S
H1893 C1903 0.930 . S
C1894 H1888 0.930 . S
C1894 C1895 1.355 . S
C1894 C1896 1.415 . S
C1895 C1894 1.355 . S
C1895 C1897 1.419 . S
C1896 C1894 1.415 . S
C1896 C1901 1.425 . S
C1896 C1903 1.409 . S
C1897 H1889 0.930 . S
C1897 C1895 1.419 . S
C1897 C1898 1.362 . S
C1898 H1890 0.930 . S
C1898 C1897 1.362 . S
C1898 C1901 1.409 . S
C1899 H1891 0.930 . S
C1899 C1900 1.355 . S
C1899 C1901 1.415 . S
C1900 C1899 1.355 . S
C1900 C1902 1.419 . S
C1901 C1896 1.425 . S
C1901 C1898 1.409 . S
C1901 C1899 1.415 . S
C1902 H1892 0.930 . S
C1902 C1900 1.419 . S
C1902 C1903 1.362 . S
C1903 H1893 0.930 . S
C1903 C1896 1.409 . S
C1903 C1902 1.362 . S
H1904 C1910 0.930 . S
H1905 C1913 0.930 . S
H1906 C1914 0.930 . S
H1907 C1915 0.930 . S
H1908 C1918 0.930 . S
H1909 C1919 0.930 . S
C1910 H1904 0.930 . S
C1910 C1911 1.355 . S
C1910 C1912 1.415 . S
C1911 C1910 1.355 . S
C1911 C1913 1.419 . S
C1912 C1910 1.415 . S
C1912 C1917 1.425 . S
C1912 C1919 1.409 . S
C1913 H1905 0.930 . S
C1913 C1911 1.419 . S
C1913 C1914 1.362 . S
C1914 H1906 0.930 . S
C1914 C1913 1.362 . S
C1914 C1917 1.409 . S
C1915 H1907 0.930 . S
C1915 C1916 1.355 . S
C1915 C1917 1.415 . S
C1916 C1915 1.355 . S
C1916 C1918 1.419 . S
C1917 C1912 1.425 . S
C1917 C1914 1.409 . S
C1917 C1915 1.415 . S
C1918 H1908 0.930 . S
C1918 C1916 1.419 . S
C1918 C1919 1.362 . S
C1919 H1909 0.930 . S
C1919 C1912 1.409 . S
C1919 C1918 1.362 . S
H1920 C1926 0.930 . S
H1921 C1929 0.930 . S
H1922 C1930 0.930 . S
H1923 C1931 0.930 . S
H1924 C1934 0.930 . S
H1925 C1935 0.930 . S
C1926 H1920 0.930 . S
C1926 C1927 1.355 . S
C1926 C1928 1.415 . S
C1927 C1926 1.355 . S
C1927 C1929 1.419 . S
C1928 C1926 1.415 . S
C1928 C1933 1.425 . S
C1928 C1935 1.409 . S
C1929 H1921 0.930 . S
C1929 C1927 1.419 . S
C1929 C1930 1.362 . S
C1930 H1922 0.930 . S
C1930 C1929 1.362 . S
C1930 C1933 1.409 . S
C1931 H1923 0.930 . S
C1931 C1932 1.355 . S
C1931 C1933 1.415 . S
C1932 C1931 1.355 . S
C1932 C1934 1.419 . S
C1933 C1928 1.425 . S
C1933 C1930 1.409 . S
C1933 C1931 1.415 . S
C1934 H1924 0.930 . S
C1934 C1932 1.419 . S
C1934 C1935 1.362 . S
C1935 H1925 0.930 . S
C1935 C1928 1.409 . S
C1935 C1934 1.362 . S
H1936 C1942 0.930 . S
H1937 C1945 0.930 . S
H1938 C1946 0.930 . S
H1939 C1947 0.930 . S
H1940 C1950 0.930 . S
H1941 C1951 0.930 . S
C1942 H1936 0.930 . S
C1942 C1943 1.355 . S
C1942 C1944 1.415 . S
C1943 C1942 1.355 . S
C1943 C1945 1.419 . S
C1944 C1942 1.415 . S
C1944 C1949 1.425 . S
C1944 C1951 1.409 . S
C1945 H1937 0.930 . S
C1945 C1943 1.419 . S
C1945 C1946 1.362 . S
C1946 H1938 0.930 . S
C1946 C1945 1.362 . S
C1946 C1949 1.409 . S
C1947 H1939 0.930 . S
C1947 C1948 1.355 . S
C1947 C1949 1.415 . S
C1948 C1947 1.355 . S
C1948 C1950 1.419 . S
C1949 C1944 1.425 . S
C1949 C1946 1.409 . S
C1949 C1947 1.415 . S
C1950 H1940 0.930 . S
C1950 C1948 1.419 . S
C1950 C1951 1.362 . S
C1951 H1941 0.930 . S
C1951 C1944 1.409 . S
C1951 C1950 1.362 . S
H1952 C1958 0.930 . S
H1953 C1961 0.930 . S
H1954 C1962 0.930 . S
H1955 C1963 0.930 . S
H1956 C1966 0.930 . S
H1957 C1967 0.930 . S
C1958 H1952 0.930 . S
C1958 C1959 1.355 . S
C1958 C1960 1.415 . S
C1959 C1958 1.355 . S
C1959 C1961 1.419 . S
C1960 C1958 1.415 . S
C1960 C1965 1.425 . S
C1960 C1967 1.409 . S
C1961 H1953 0.930 . S
C1961 C1959 1.419 . S
C1961 C1962 1.362 . S
C1962 H1954 0.930 . S
C1962 C1961 1.362 . S
C1962 C1965 1.409 . S
C1963 H1955 0.930 . S
C1963 C1964 1.355 . S
C1963 C1965 1.415 . S
C1964 C1963 1.355 . S
C1964 C1966 1.419 . S
C1965 C1960 1.425 . S
C1965 C1962 1.409 . S
C1965 C1963 1.415 . S
C1966 H1956 0.930 . S
C1966 C1964 1.419 . S
C1966 C1967 1.362 . S
C1967 H1957 0.930 . S
C1967 C1960 1.409 . S
C1967 C1966 1.362 . S
H1968 C1974 0.930 . S
H1969 C1977 0.930 1_655 S
H1970 C1978 0.930 . S
H1971 C1979 0.930 . S
H1972 C1982 0.930 . S
H1973 C1983 0.930 . S
C1974 H1968 0.930 . S
C1974 C1975 1.355 . S
C1974 C1976 1.415 . S
C1975 C1974 1.355 . S
C1975 C1977 1.419 . S
C1976 C1974 1.415 . S
C1976 C1981 1.425 . S
C1976 C1983 1.409 . S
C1977 H1969 0.930 1_455 S
C1977 C1975 1.419 . S
C1977 C1978 1.362 . S
C1978 H1970 0.930 . S
C1978 C1977 1.362 . S
C1978 C1981 1.409 . S
C1979 H1971 0.930 . S
C1979 C1980 1.355 . S
C1979 C1981 1.415 . S
C1980 C1979 1.355 . S
C1980 C1982 1.419 . S
C1981 C1976 1.425 . S
C1981 C1978 1.409 . S
C1981 C1979 1.415 . S
C1982 H1972 0.930 . S
C1982 C1980 1.419 . S
C1982 C1983 1.362 . S
C1983 H1973 0.930 . S
C1983 C1976 1.409 . S
C1983 C1982 1.362 . S
H1984 C1990 0.985 . S
H1985 C1993 0.930 . S
H1986 C1994 0.930 . S
H1987 C1995 0.930 . S
H1988 C1998 0.930 . S
H1989 C1999 0.930 1_455 S
C1990 H1984 0.985 . S
C1990 C1991 1.355 . S
C1990 C1992 1.415 . S
C1991 C1990 1.355 . S
C1991 C1993 1.419 . S
C1992 C1990 1.415 . S
C1992 C1997 1.425 . S
C1992 C1999 1.409 . S
C1993 H1985 0.930 . S
C1993 C1991 1.419 . S
C1993 C1994 1.362 . S
C1994 H1986 0.930 . S
C1994 C1993 1.362 . S
C1994 C1997 1.409 . S
C1995 H1987 0.930 . S
C1995 C1996 1.355 . S
C1995 C1997 1.415 . S
C1996 C1995 1.355 . S
C1996 C1998 1.419 . S
C1997 C1992 1.425 . S
C1997 C1994 1.409 . S
C1997 C1995 1.415 . S
C1998 H1988 0.930 . S
C1998 C1996 1.419 . S
C1998 C1999 1.362 . S
C1999 H1989 0.930 1_655 S
C1999 C1992 1.409 . S
C1999 C1998 1.362 . S
H2000 C2006 0.930 . S
H2001 C2009 0.930 . S
H2002 C2010 0.930 . S
H2003 C2011 0.930 . S
H2004 C2014 0.930 . S
H2005 C2015 0.930 . S
C2006 H2000 0.930 . S
C2006 C2007 1.355 . S
C2006 C2008 1.415 . S
C2007 C2006 1.355 . S
C2007 C2009 1.419 . S
C2008 C2006 1.415 . S
C2008 C2013 1.425 . S
C2008 C2015 1.409 . S
C2009 H2001 0.930 . S
C2009 C2007 1.419 . S
C2009 C2010 1.362 . S
C2010 H2002 0.930 . S
C2010 C2009 1.362 . S
C2010 C2013 1.409 . S
C2011 H2003 0.930 . S
C2011 C2012 1.355 . S
C2011 C2013 1.415 . S
C2012 C2011 1.355 . S
C2012 C2014 1.419 . S
C2013 C2008 1.425 . S
C2013 C2010 1.409 . S
C2013 C2011 1.415 . S
C2014 H2004 0.930 . S
C2014 C2012 1.419 . S
C2014 C2015 1.362 . S
C2015 H2005 0.930 . S
C2015 C2008 1.409 . S
C2015 C2014 1.362 . S
H2016 C2022 0.930 . S
H2017 C2025 0.930 . S
H2018 C2026 0.930 . S
H2019 C2027 0.930 . S
H2020 C2030 0.930 . S
H2021 C2031 0.930 . S
C2022 H2016 0.930 . S
C2022 C2023 1.355 . S
C2022 C2024 1.415 . S
C2023 C2022 1.355 . S
C2023 C2025 1.419 . S
C2024 C2022 1.415 . S
C2024 C2029 1.425 . S
C2024 C2031 1.409 . S
C2025 H2017 0.930 . S
C2025 C2023 1.419 . S
C2025 C2026 1.362 . S
C2026 H2018 0.930 . S
C2026 C2025 1.362 . S
C2026 C2029 1.409 . S
C2027 H2019 0.930 . S
C2027 C2028 1.355 . S
C2027 C2029 1.415 . S
C2028 C2027 1.355 . S
C2028 C2030 1.419 . S
C2029 C2024 1.425 . S
C2029 C2026 1.409 . S
C2029 C2027 1.415 . S
C2030 H2020 0.930 . S
C2030 C2028 1.419 . S
C2030 C2031 1.362 . S
C2031 H2021 0.930 . S
C2031 C2024 1.409 . S
C2031 C2030 1.362 . S
H2032 C2038 0.930 . S
H2033 C2041 0.896 1_655 S
H2034 C2042 0.930 . S
H2035 C2043 0.930 . S
H2036 C2046 0.930 . S
H2037 C2047 0.930 . S
C2038 H2032 0.930 . S
C2038 C2039 1.355 . S
C2038 C2040 1.415 . S
C2039 C2038 1.355 . S
C2039 C2041 1.419 . S
C2040 C2038 1.415 . S
C2040 C2045 1.425 . S
C2040 C2047 1.409 . S
C2041 H2033 0.896 1_455 S
C2041 C2039 1.419 . S
C2041 C2042 1.362 . S
C2042 H2034 0.930 . S
C2042 C2041 1.362 . S
C2042 C2045 1.409 . S
C2043 H2035 0.930 . S
C2043 C2044 1.355 . S
C2043 C2045 1.415 . S
C2044 C2043 1.355 . S
C2044 C2046 1.419 . S
C2045 C2040 1.425 . S
C2045 C2042 1.409 . S
C2045 C2043 1.415 . S
C2046 H2036 0.930 . S
C2046 C2044 1.419 . S
C2046 C2047 1.362 . S
C2047 H2037 0.930 . S
C2047 C2040 1.409 . S
C2047 C2046 1.362 . S
H2048 C2054 0.930 . S
H2049 C2057 0.930 . S
H2050 C2058 0.930 . S
H2051 C2059 0.930 . S
H2052 C2062 0.930 . S
H2053 C2063 0.930 . S
C2054 H2048 0.930 . S
C2054 C2055 1.355 . S
C2054 C2056 1.415 . S
C2055 C2054 1.355 . S
C2055 C2057 1.419 . S
C2056 C2054 1.415 . S
C2056 C2061 1.425 . S
C2056 C2063 1.409 . S
C2057 H2049 0.930 . S
C2057 C2055 1.419 . S
C2057 C2058 1.362 . S
C2058 H2050 0.930 . S
C2058 C2057 1.362 . S
C2058 C2061 1.409 . S
C2059 H2051 0.930 . S
C2059 C2060 1.355 . S
C2059 C2061 1.415 . S
C2060 C2059 1.355 . S
C2060 C2062 1.419 . S
C2061 C2056 1.425 . S
C2061 C2058 1.409 . S
C2061 C2059 1.415 . S
C2062 H2052 0.930 . S
C2062 C2060 1.419 . S
C2062 C2063 1.362 . S
C2063 H2053 0.930 . S
C2063 C2056 1.409 . S
C2063 C2062 1.362 . S
H2064 C2070 0.930 . S
H2065 C2073 0.930 . S
H2066 C2074 0.930 . S
H2067 C2075 0.930 . S
H2068 C2078 0.930 . S
H2069 C2079 0.930 . S
C2070 H2064 0.930 . S
C2070 C2071 1.355 . S
C2070 C2072 1.415 . S
C2071 C2070 1.355 . S
C2071 C2073 1.419 . S
C2072 C2070 1.415 . S
C2072 C2077 1.425 . S
C2072 C2079 1.409 . S
C2073 H2065 0.930 . S
C2073 C2071 1.419 . S
C2073 C2074 1.362 . S
C2074 H2066 0.930 . S
C2074 C2073 1.362 . S
C2074 C2077 1.409 . S
C2075 H2067 0.930 . S
C2075 C2076 1.355 . S
C2075 C2077 1.415 . S
C2076 C2075 1.355 . S
C2076 C2078 1.419 . S
C2077 C2072 1.425 . S
C2077 C2074 1.409 . S
C2077 C2075 1.415 . S
C2078 H2068 0.930 . S
C2078 C2076 1.419 . S
C2078 C2079 1.362 . S
C2079 H2069 0.930 . S
C2079 C2072 1.409 . S
C2079 C2078 1.362 . S
H2080 C2086 0.871 1_455 S
H2081 C2089 0.930 . S
H2082 C2090 0.930 . S
H2083 C2091 0.930 . S
H2084 C2094 0.930 . S
H2085 C2095 0.930 1_455 S
C2086 H2080 0.871 1_655 S
C2086 C2087 1.355 . S
C2086 C2088 1.415 . S
C2087 C2086 1.355 . S
C2087 C2089 1.419 . S
C2088 C2086 1.415 . S
C2088 C2093 1.425 . S
C2088 C2095 1.409 . S
C2089 H2081 0.930 . S
C2089 C2087 1.419 . S
C2089 C2090 1.362 . S
C2090 H2082 0.930 . S
C2090 C2089 1.362 . S
C2090 C2093 1.409 . S
C2091 H2083 0.930 . S
C2091 C2092 1.355 . S
C2091 C2093 1.415 . S
C2092 C2091 1.355 . S
C2092 C2094 1.419 . S
C2093 C2088 1.425 . S
C2093 C2090 1.409 . S
C2093 C2091 1.415 . S
C2094 H2084 0.930 . S
C2094 C2092 1.419 . S
C2094 C2095 1.362 . S
C2095 H2085 0.930 1_655 S
C2095 C2088 1.409 . S
C2095 C2094 1.362 . S
H2096 C2102 0.930 . S
H2097 C2105 0.930 . S
H2098 C2106 0.930 . S
H2099 C2107 0.930 . S
H2100 C2110 0.930 . S
H2101 C2111 0.930 . S
C2102 H2096 0.930 . S
C2102 C2103 1.355 . S
C2102 C2104 1.415 . S
C2103 C2102 1.355 . S
C2103 C2105 1.419 . S
C2104 C2102 1.415 . S
C2104 C2109 1.425 . S
C2104 C2111 1.409 . S
C2105 H2097 0.930 . S
C2105 C2103 1.419 . S
C2105 C2106 1.362 . S
C2106 H2098 0.930 . S
C2106 C2105 1.362 . S
C2106 C2109 1.409 . S
C2107 H2099 0.930 . S
C2107 C2108 1.355 . S
C2107 C2109 1.415 . S
C2108 C2107 1.355 . S
C2108 C2110 1.419 . S
C2109 C2104 1.425 . S
C2109 C2106 1.409 . S
C2109 C2107 1.415 . S
C2110 H2100 0.930 . S
C2110 C2108 1.419 . S
C2110 C2111 1.362 . S
C2111 H2101 0.930 . S
C2111 C2104 1.409 . S
C2111 C2110 1.362 . S
H2112 C2118 0.930 . S
H2113 C2121 0.930 . S
H2114 C2122 0.930 . S
H2115 C2123 0.930 . S
H2116 C2126 0.930 . S
H2117 C2127 0.930 . S
C2118 H2112 0.930 . S
C2118 C2119 1.355 . S
C2118 C2120 1.415 . S
C2119 C2118 1.355 . S
C2119 C2121 1.419 . S
C2120 C2118 1.415 . S
C2120 C2125 1.425 . S
C2120 C2127 1.409 . S
C2121 H2113 0.930 . S
C2121 C2119 1.419 . S
C2121 C2122 1.362 . S
C2122 H2114 0.930 . S
C2122 C2121 1.362 . S
C2122 C2125 1.409 . S
C2123 H2115 0.930 . S
C2123 C2124 1.355 . S
C2123 C2125 1.415 . S
C2124 C2123 1.355 . S
C2124 C2126 1.419 . S
C2125 C2120 1.425 . S
C2125 C2122 1.409 . S
C2125 C2123 1.415 . S
C2126 H2116 0.930 . S
C2126 C2124 1.419 . S
C2126 C2127 1.362 . S
C2127 H2117 0.930 . S
C2127 C2120 1.409 . S
C2127 C2126 1.362 . S
H2128 C2134 0.930 . S
H2129 C2137 0.930 . S
H2130 C2138 0.930 1_554 S
H2131 C2139 0.967 . S
H2132 C2142 0.930 . S
H2133 C2143 0.930 . S
C2134 H2128 0.930 . S
C2134 C2135 1.355 . S
C2134 C2136 1.415 . S
C2135 C2134 1.355 . S
C2135 C2137 1.419 . S
C2136 C2134 1.415 . S
C2136 C2141 1.425 . S
C2136 C2143 1.409 . S
C2137 H2129 0.930 . S
C2137 C2135 1.419 . S
C2137 C2138 1.362 . S
C2138 H2130 0.930 1_556 S
C2138 C2137 1.362 . S
C2138 C2141 1.409 . S
C2139 H2131 0.967 . S
C2139 C2140 1.355 . S
C2139 C2141 1.415 . S
C2140 C2139 1.355 . S
C2140 C2142 1.419 . S
C2141 C2136 1.425 . S
C2141 C2138 1.409 . S
C2141 C2139 1.415 . S
C2142 H2132 0.930 . S
C2142 C2140 1.419 . S
C2142 C2143 1.362 . S
C2143 H2133 0.930 . S
C2143 C2136 1.409 . S
C2143 C2142 1.362 . S
H2144 C2150 0.930 . S
H2145 C2153 0.930 . S
H2146 C2154 0.930 . S
H2147 C2155 0.930 . S
H2148 C2158 0.930 . S
H2149 C2159 0.930 . S
C2150 H2144 0.930 . S
C2150 C2151 1.355 . S
C2150 C2152 1.415 . S
C2151 C2150 1.355 . S
C2151 C2153 1.419 . S
C2152 C2150 1.415 . S
C2152 C2157 1.425 . S
C2152 C2159 1.409 . S
C2153 H2145 0.930 . S
C2153 C2151 1.419 . S
C2153 C2154 1.362 . S
C2154 H2146 0.930 . S
C2154 C2153 1.362 . S
C2154 C2157 1.409 . S
C2155 H2147 0.930 . S
C2155 C2156 1.355 . S
C2155 C2157 1.415 . S
C2156 C2155 1.355 . S
C2156 C2158 1.419 . S
C2157 C2152 1.425 . S
C2157 C2154 1.409 . S
C2157 C2155 1.415 . S
C2158 H2148 0.930 . S
C2158 C2156 1.419 . S
C2158 C2159 1.362 . S
C2159 H2149 0.930 . S
C2159 C2152 1.409 . S
C2159 C2158 1.362 . S
H2160 C2166 0.930 . S
H2161 C2169 0.930 . S
H2162 C2170 0.930 . S
H2163 C2171 0.930 . S
H2164 C2174 0.930 1_556 S
H2165 C2175 0.930 . S
C2166 H2160 0.930 . S
C2166 C2167 1.355 . S
C2166 C2168 1.415 . S
C2167 C2166 1.355 . S
C2167 C2169 1.419 . S
C2168 C2166 1.415 . S
C2168 C2173 1.425 . S
C2168 C2175 1.409 . S
C2169 H2161 0.930 . S
C2169 C2167 1.419 . S
C2169 C2170 1.362 . S
C2170 H2162 0.930 . S
C2170 C2169 1.362 . S
C2170 C2173 1.409 . S
C2171 H2163 0.930 . S
C2171 C2172 1.355 . S
C2171 C2173 1.415 . S
C2172 C2171 1.355 . S
C2172 C2174 1.419 . S
C2173 C2168 1.425 . S
C2173 C2170 1.409 . S
C2173 C2171 1.415 . S
C2174 H2164 0.930 1_554 S
C2174 C2172 1.419 . S
C2174 C2175 1.362 . S
C2175 H2165 0.930 . S
C2175 C2168 1.409 . S
C2175 C2174 1.362 . S
H2176 C2182 0.930 . S
H2177 C2185 0.930 . S
H2178 C2186 0.930 . S
H2179 C2187 0.930 . S
H2180 C2190 0.930 1_545 S
H2181 C2191 0.930 1_545 S
C2182 H2176 0.930 . S
C2182 C2183 1.355 . S
C2182 C2184 1.415 . S
C2183 C2182 1.355 . S
C2183 C2185 1.419 . S
C2184 C2182 1.415 . S
C2184 C2189 1.425 . S
C2184 C2191 1.409 . S
C2185 H2177 0.930 . S
C2185 C2183 1.419 . S
C2185 C2186 1.362 . S
C2186 H2178 0.930 . S
C2186 C2185 1.362 . S
C2186 C2189 1.409 . S
C2187 H2179 0.930 . S
C2187 C2188 1.355 . S
C2187 C2189 1.415 . S
C2188 C2187 1.355 . S
C2188 C2190 1.419 . S
C2189 C2184 1.425 . S
C2189 C2186 1.409 . S
C2189 C2187 1.415 . S
C2190 H2180 0.930 1_565 S
C2190 C2188 1.419 . S
C2190 C2191 1.362 . S
C2191 H2181 0.930 1_565 S
C2191 C2184 1.409 . S
C2191 C2190 1.362 . S
H2192 C2198 0.930 . S
H2193 C2201 0.930 . S
H2194 C2202 0.930 . S
H2195 C2203 0.930 . S
H2196 C2206 0.930 . S
H2197 C2207 0.930 . S
C2198 H2192 0.930 . S
C2198 C2199 1.355 . S
C2198 C2200 1.415 . S
C2199 C2198 1.355 . S
C2199 C2201 1.419 . S
C2200 C2198 1.415 . S
C2200 C2205 1.425 . S
C2200 C2207 1.409 . S
C2201 H2193 0.930 . S
C2201 C2199 1.419 . S
C2201 C2202 1.362 . S
C2202 H2194 0.930 . S
C2202 C2201 1.362 . S
C2202 C2205 1.409 . S
C2203 H2195 0.930 . S
C2203 C2204 1.355 . S
C2203 C2205 1.415 . S
C2204 C2203 1.355 . S
C2204 C2206 1.419 . S
C2205 C2200 1.425 . S
C2205 C2202 1.409 . S
C2205 C2203 1.415 . S
C2206 H2196 0.930 . S
C2206 C2204 1.419 . S
C2206 C2207 1.362 . S
C2207 H2197 0.930 . S
C2207 C2200 1.409 . S
C2207 C2206 1.362 . S
H2208 C2214 0.930 . S
H2209 C2217 0.930 1_545 S
H2210 C2218 0.930 1_545 S
H2211 C2219 0.930 . S
H2212 C2222 0.930 . S
H2213 C2223 0.930 . S
C2214 H2208 0.930 . S
C2214 C2215 1.355 . S
C2214 C2216 1.415 . S
C2215 C2214 1.355 . S
C2215 C2217 1.419 . S
C2216 C2214 1.415 . S
C2216 C2221 1.425 . S
C2216 C2223 1.409 . S
C2217 H2209 0.930 1_565 S
C2217 C2215 1.419 . S
C2217 C2218 1.362 . S
C2218 H2210 0.930 1_565 S
C2218 C2217 1.362 . S
C2218 C2221 1.409 . S
C2219 H2211 0.930 . S
C2219 C2220 1.355 . S
C2219 C2221 1.415 . S
C2220 C2219 1.355 . S
C2220 C2222 1.419 . S
C2221 C2216 1.425 . S
C2221 C2218 1.409 . S
C2221 C2219 1.415 . S
C2222 H2212 0.930 . S
C2222 C2220 1.419 . S
C2222 C2223 1.362 . S
C2223 H2213 0.930 . S
C2223 C2216 1.409 . S
C2223 C2222 1.362 . S
H2224 C2230 0.930 . S
H2225 C2233 0.930 . S
H2226 C2234 0.930 . S
H2227 C2235 0.930 . S
H2228 C2238 0.930 . S
H2229 C2239 0.930 . S
C2230 H2224 0.930 . S
C2230 C2231 1.355 . S
C2230 C2232 1.415 . S
C2231 C2230 1.355 . S
C2231 C2233 1.419 . S
C2232 C2230 1.415 . S
C2232 C2237 1.425 . S
C2232 C2239 1.409 . S
C2233 H2225 0.930 . S
C2233 C2231 1.419 . S
C2233 C2234 1.362 . S
C2234 H2226 0.930 . S
C2234 C2233 1.362 . S
C2234 C2237 1.409 . S
C2235 H2227 0.930 . S
C2235 C2236 1.355 . S
C2235 C2237 1.415 . S
C2236 C2235 1.355 . S
C2236 C2238 1.419 . S
C2237 C2232 1.425 . S
C2237 C2234 1.409 . S
C2237 C2235 1.415 . S
C2238 H2228 0.930 . S
C2238 C2236 1.419 . S
C2238 C2239 1.362 . S
C2239 H2229 0.930 . S
C2239 C2232 1.409 . S
C2239 C2238 1.362 . S
H2240 C2246 0.930 . S
H2241 C2249 0.930 . S
H2242 C2250 0.930 . S
H2243 C2251 0.930 . S
H2244 C2254 0.930 . S
H2245 C2255 0.930 . S
C2246 H2240 0.930 . S
C2246 C2247 1.355 . S
C2246 C2248 1.415 . S
C2247 C2246 1.355 . S
C2247 C2249 1.419 . S
C2248 C2246 1.415 . S
C2248 C2253 1.425 . S
C2248 C2255 1.409 . S
C2249 H2241 0.930 . S
C2249 C2247 1.419 . S
C2249 C2250 1.362 . S
C2250 H2242 0.930 . S
C2250 C2249 1.362 . S
C2250 C2253 1.409 . S
C2251 H2243 0.930 . S
C2251 C2252 1.355 . S
C2251 C2253 1.415 . S
C2252 C2251 1.355 . S
C2252 C2254 1.419 . S
C2253 C2248 1.425 . S
C2253 C2250 1.409 . S
C2253 C2251 1.415 . S
C2254 H2244 0.930 . S
C2254 C2252 1.419 . S
C2254 C2255 1.362 . S
C2255 H2245 0.930 . S
C2255 C2248 1.409 . S
C2255 C2254 1.362 . S
H2256 C2262 0.930 . S
H2257 C2265 0.930 . S
H2258 C2266 0.930 . S
H2259 C2267 0.930 . S
H2260 C2270 0.930 . S
H2261 C2271 0.930 . S
C2262 H2256 0.930 . S
C2262 C2263 1.355 . S
C2262 C2264 1.415 . S
C2263 C2262 1.355 . S
C2263 C2265 1.419 . S
C2264 C2262 1.415 . S
C2264 C2269 1.425 . S
C2264 C2271 1.409 . S
C2265 H2257 0.930 . S
C2265 C2263 1.419 . S
C2265 C2266 1.362 . S
C2266 H2258 0.930 . S
C2266 C2265 1.362 . S
C2266 C2269 1.409 . S
C2267 H2259 0.930 . S
C2267 C2268 1.355 . S
C2267 C2269 1.415 . S
C2268 C2267 1.355 . S
C2268 C2270 1.419 . S
C2269 C2264 1.425 . S
C2269 C2266 1.409 . S
C2269 C2267 1.415 . S
C2270 H2260 0.930 . S
C2270 C2268 1.419 . S
C2270 C2271 1.362 . S
C2271 H2261 0.930 . S
C2271 C2264 1.409 . S
C2271 C2270 1.362 . S
H2272 C2278 0.930 . S
H2273 C2281 0.930 . S
H2274 C2282 0.930 . S
H2275 C2283 0.930 . S
H2276 C2286 0.930 . S
H2277 C2287 0.930 . S
C2278 H2272 0.930 . S
C2278 C2279 1.355 . S
C2278 C2280 1.415 . S
C2279 C2278 1.355 . S
C2279 C2281 1.419 . S
C2280 C2278 1.415 . S
C2280 C2285 1.425 . S
C2280 C2287 1.409 . S
C2281 H2273 0.930 . S
C2281 C2279 1.419 . S
C2281 C2282 1.362 . S
C2282 H2274 0.930 . S
C2282 C2281 1.362 . S
C2282 C2285 1.409 . S
C2283 H2275 0.930 . S
C2283 C2284 1.355 . S
C2283 C2285 1.415 . S
C2284 C2283 1.355 . S
C2284 C2286 1.419 . S
C2285 C2280 1.425 . S
C2285 C2282 1.409 . S
C2285 C2283 1.415 . S
C2286 H2276 0.930 . S
C2286 C2284 1.419 . S
C2286 C2287 1.362 . S
C2287 H2277 0.930 . S
C2287 C2280 1.409 . S
C2287 C2286 1.362 . S
H2288 C2294 0.930 . S
H2289 C2297 0.930 . S
H2290 C2298 0.930 . S
H2291 C2299 0.930 . S
H2292 C2302 0.930 . S
H2293 C2303 0.930 . S
C2294 H2288 0.930 . S
C2294 C2295 1.355 . S
C2294 C2296 1.415 . S
C2295 C2294 1.355 . S
C2295 C2297 1.419 . S
C2296 C2294 1.415 . S
C2296 C2301 1.425 . S
C2296 C2303 1.409 . S
C2297 H2289 0.930 . S
C2297 C2295 1.419 . S
C2297 C2298 1.362 . S
C2298 H2290 0.930 . S
C2298 C2297 1.362 . S
C2298 C2301 1.409 . S
C2299 H2291 0.930 . S
C2299 C2300 1.355 . S
C2299 C2301 1.415 . S
C2300 C2299 1.355 . S
C2300 C2302 1.419 . S
C2301 C2296 1.425 . S
C2301 C2298 1.409 . S
C2301 C2299 1.415 . S
C2302 H2292 0.930 . S
C2302 C2300 1.419 . S
C2302 C2303 1.362 . S
C2303 H2293 0.930 . S
C2303 C2296 1.409 . S
C2303 C2302 1.362 . S
H2304 C2310 0.930 . S
H2305 C2313 0.930 . S
H2306 C2314 0.930 . S
H2307 C2315 0.930 . S
H2308 C2318 0.930 . S
H2309 C2319 0.930 . S
C2310 H2304 0.930 . S
C2310 C2311 1.355 . S
C2310 C2312 1.415 . S
C2311 C2310 1.355 . S
C2311 C2313 1.419 . S
C2312 C2310 1.415 . S
C2312 C2317 1.425 . S
C2312 C2319 1.409 . S
C2313 H2305 0.930 . S
C2313 C2311 1.419 . S
C2313 C2314 1.362 . S
C2314 H2306 0.930 . S
C2314 C2313 1.362 . S
C2314 C2317 1.409 . S
C2315 H2307 0.930 . S
C2315 C2316 1.355 . S
C2315 C2317 1.415 . S
C2316 C2315 1.355 . S
C2316 C2318 1.419 . S
C2317 C2312 1.425 . S
C2317 C2314 1.409 . S
C2317 C2315 1.415 . S
C2318 H2308 0.930 . S
C2318 C2316 1.419 . S
C2318 C2319 1.362 . S
C2319 H2309 0.930 . S
C2319 C2312 1.409 . S
C2319 C2318 1.362 . S
H2320 C2326 0.930 . S
H2321 C2329 0.930 . S
H2322 C2330 0.930 . S
H2323 C2331 0.930 . S
H2324 C2334 0.930 . S
H2325 C2335 0.930 . S
C2326 H2320 0.930 . S
C2326 C2327 1.355 . S
C2326 C2328 1.415 . S
C2327 C2326 1.355 . S
C2327 C2329 1.419 . S
C2328 C2326 1.415 . S
C2328 C2333 1.425 . S
C2328 C2335 1.409 . S
C2329 H2321 0.930 . S
C2329 C2327 1.419 . S
C2329 C2330 1.362 . S
C2330 H2322 0.930 . S
C2330 C2329 1.362 . S
C2330 C2333 1.409 . S
C2331 H2323 0.930 . S
C2331 C2332 1.355 . S
C2331 C2333 1.415 . S
C2332 C2331 1.355 . S
C2332 C2334 1.419 . S
C2333 C2328 1.425 . S
C2333 C2330 1.409 . S
C2333 C2331 1.415 . S
C2334 H2324 0.930 . S
C2334 C2332 1.419 . S
C2334 C2335 1.362 . S
C2335 H2325 0.930 . S
C2335 C2328 1.409 . S
C2335 C2334 1.362 . S
H2336 C2342 0.930 . S
H2337 C2345 0.930 . S
H2338 C2346 0.930 . S
H2339 C2347 0.930 . S
H2340 C2350 0.930 . S
H2341 C2351 0.930 . S
C2342 H2336 0.930 . S
C2342 C2343 1.355 . S
C2342 C2344 1.415 . S
C2343 C2342 1.355 . S
C2343 C2345 1.419 . S
C2344 C2342 1.415 . S
C2344 C2349 1.425 . S
C2344 C2351 1.409 . S
C2345 H2337 0.930 . S
C2345 C2343 1.419 . S
C2345 C2346 1.362 . S
C2346 H2338 0.930 . S
C2346 C2345 1.362 . S
C2346 C2349 1.409 . S
C2347 H2339 0.930 . S
C2347 C2348 1.355 . S
C2347 C2349 1.415 . S
C2348 C2347 1.355 . S
C2348 C2350 1.419 . S
C2349 C2344 1.425 . S
C2349 C2346 1.409 . S
C2349 C2347 1.415 . S
C2350 H2340 0.930 . S
C2350 C2348 1.419 . S
C2350 C2351 1.362 . S
C2351 H2341 0.930 . S
C2351 C2344 1.409 . S
C2351 C2350 1.362 . S
H2352 C2358 0.930 . S
H2353 C2361 0.930 . S
H2354 C2362 0.930 . S
H2355 C2363 0.930 . S
H2356 C2366 0.930 . S
H2357 C2367 0.930 . S
C2358 H2352 0.930 . S
C2358 C2359 1.355 . S
C2358 C2360 1.415 . S
C2359 C2358 1.355 . S
C2359 C2361 1.419 . S
C2360 C2358 1.415 . S
C2360 C2365 1.425 . S
C2360 C2367 1.409 . S
C2361 H2353 0.930 . S
C2361 C2359 1.419 . S
C2361 C2362 1.362 . S
C2362 H2354 0.930 . S
C2362 C2361 1.362 . S
C2362 C2365 1.409 . S
C2363 H2355 0.930 . S
C2363 C2364 1.355 . S
C2363 C2365 1.415 . S
C2364 C2363 1.355 . S
C2364 C2366 1.419 . S
C2365 C2360 1.425 . S
C2365 C2362 1.409 . S
C2365 C2363 1.415 . S
C2366 H2356 0.930 . S
C2366 C2364 1.419 . S
C2366 C2367 1.362 . S
C2367 H2357 0.930 . S
C2367 C2360 1.409 . S
C2367 C2366 1.362 . S
H2368 C2374 0.930 . S
H2369 C2377 0.930 . S
H2370 C2378 0.930 . S
H2371 C2379 0.930 . S
H2372 C2382 0.930 . S
H2373 C2383 0.930 . S
C2374 H2368 0.930 . S
C2374 C2375 1.355 . S
C2374 C2376 1.415 . S
C2375 C2374 1.355 . S
C2375 C2377 1.419 . S
C2376 C2374 1.415 . S
C2376 C2381 1.425 . S
C2376 C2383 1.409 . S
C2377 H2369 0.930 . S
C2377 C2375 1.419 . S
C2377 C2378 1.362 . S
C2378 H2370 0.930 . S
C2378 C2377 1.362 . S
C2378 C2381 1.409 . S
C2379 H2371 0.930 . S
C2379 C2380 1.355 . S
C2379 C2381 1.415 . S
C2380 C2379 1.355 . S
C2380 C2382 1.419 . S
C2381 C2376 1.425 . S
C2381 C2378 1.409 . S
C2381 C2379 1.415 . S
C2382 H2372 0.930 . S
C2382 C2380 1.419 . S
C2382 C2383 1.362 . S
C2383 H2373 0.930 . S
C2383 C2376 1.409 . S
C2383 C2382 1.362 . S
H2384 C2390 0.930 . S
H2385 C2393 0.930 . S
H2386 C2394 0.930 . S
H2387 C2395 0.930 . S
H2388 C2398 0.930 . S
H2389 C2399 0.930 . S
C2390 H2384 0.930 . S
C2390 C2391 1.355 . S
C2390 C2392 1.415 . S
C2391 C2390 1.355 . S
C2391 C2393 1.419 . S
C2392 C2390 1.415 . S
C2392 C2397 1.425 . S
C2392 C2399 1.409 . S
C2393 H2385 0.930 . S
C2393 C2391 1.419 . S
C2393 C2394 1.362 . S
C2394 H2386 0.930 . S
C2394 C2393 1.362 . S
C2394 C2397 1.409 . S
C2395 H2387 0.930 . S
C2395 C2396 1.355 . S
C2395 C2397 1.415 . S
C2396 C2395 1.355 . S
C2396 C2398 1.419 . S
C2397 C2392 1.425 . S
C2397 C2394 1.409 . S
C2397 C2395 1.415 . S
C2398 H2388 0.930 . S
C2398 C2396 1.419 . S
C2398 C2399 1.362 . S
C2399 H2389 0.930 . S
C2399 C2392 1.409 . S
C2399 C2398 1.362 . S
H2400 C2406 0.930 . S
H2401 C2409 0.941 . S
H2402 C2410 0.930 1_554 S
H2403 C2411 0.930 . S
H2404 C2414 0.930 . S
H2405 C2415 0.930 . S
C2406 H2400 0.930 . S
C2406 C2407 1.355 . S
C2406 C2408 1.415 . S
C2407 C2406 1.355 . S
C2407 C2409 1.410 1_556 S
C2408 C2406 1.415 . S
C2408 C2413 1.425 . S
C2408 C2415 1.409 . S
C2409 H2401 0.941 . S
C2409 C2407 1.410 1_554 S
C2409 C2410 1.361 1_554 S
C2410 H2402 0.930 1_556 S
C2410 C2409 1.361 1_556 S
C2410 C2413 1.409 . S
C2411 H2403 0.930 . S
C2411 C2412 1.355 . S
C2411 C2413 1.415 . S
C2412 C2411 1.355 . S
C2412 C2414 1.419 . S
C2413 C2408 1.425 . S
C2413 C2410 1.409 . S
C2413 C2411 1.415 . S
C2414 H2404 0.930 . S
C2414 C2412 1.419 . S
C2414 C2415 1.362 . S
C2415 H2405 0.930 . S
C2415 C2408 1.409 . S
C2415 C2414 1.362 . S
H2416 C2422 0.930 . S
H2417 C2425 0.930 . S
H2418 C2426 0.930 . S
H2419 C2427 0.930 . S
H2420 C2430 0.930 . S
H2421 C2431 0.930 . S
C2422 H2416 0.930 . S
C2422 C2423 1.355 . S
C2422 C2424 1.415 . S
C2423 C2422 1.355 . S
C2423 C2425 1.419 . S
C2424 C2422 1.415 . S
C2424 C2429 1.425 . S
C2424 C2431 1.409 . S
C2425 H2417 0.930 . S
C2425 C2423 1.419 . S
C2425 C2426 1.362 . S
C2426 H2418 0.930 . S
C2426 C2425 1.362 . S
C2426 C2429 1.409 . S
C2427 H2419 0.930 . S
C2427 C2428 1.355 . S
C2427 C2429 1.415 . S
C2428 C2427 1.355 . S
C2428 C2430 1.419 . S
C2429 C2424 1.425 . S
C2429 C2426 1.409 . S
C2429 C2427 1.415 . S
C2430 H2420 0.930 . S
C2430 C2428 1.419 . S
C2430 C2431 1.362 . S
C2431 H2421 0.930 . S
C2431 C2424 1.409 . S
C2431 C2430 1.362 . S
H2432 C2438 0.930 1_545 S
H2433 C2441 0.930 . S
H2434 C2442 0.930 . S
H2435 C2443 0.930 . S
H2436 C2446 0.930 . S
H2437 C2447 0.930 1_545 S
C2438 H2432 0.930 1_565 S
C2438 C2439 1.355 . S
C2438 C2440 1.415 . S
C2439 C2438 1.355 . S
C2439 C2441 1.419 . S
C2440 C2438 1.415 . S
C2440 C2445 1.425 . S
C2440 C2447 1.409 . S
C2441 H2433 0.930 . S
C2441 C2439 1.419 . S
C2441 C2442 1.362 . S
C2442 H2434 0.930 . S
C2442 C2441 1.362 . S
C2442 C2445 1.409 . S
C2443 H2435 0.930 . S
C2443 C2444 1.355 . S
C2443 C2445 1.415 . S
C2444 C2443 1.355 . S
C2444 C2446 1.419 . S
C2445 C2440 1.425 . S
C2445 C2442 1.409 . S
C2445 C2443 1.415 . S
C2446 H2436 0.930 . S
C2446 C2444 1.419 . S
C2446 C2447 1.362 . S
C2447 H2437 0.930 1_565 S
C2447 C2440 1.409 . S
C2447 C2446 1.362 . S
H2448 C2454 0.930 . S
H2449 C2457 0.930 . S
H2450 C2458 0.930 . S
H2451 C2459 0.930 . S
H2452 C2462 0.930 . S
H2453 C2463 0.930 . S
C2454 H2448 0.930 . S
C2454 C2455 1.355 . S
C2454 C2456 1.415 . S
C2455 C2454 1.355 . S
C2455 C2457 1.419 . S
C2456 C2454 1.415 . S
C2456 C2461 1.425 . S
C2456 C2463 1.409 . S
C2457 H2449 0.930 . S
C2457 C2455 1.419 . S
C2457 C2458 1.362 . S
C2458 H2450 0.930 . S
C2458 C2457 1.362 . S
C2458 C2461 1.409 . S
C2459 H2451 0.930 . S
C2459 C2460 1.355 . S
C2459 C2461 1.415 . S
C2460 C2459 1.355 . S
C2460 C2462 1.419 . S
C2461 C2456 1.425 . S
C2461 C2458 1.409 . S
C2461 C2459 1.415 . S
C2462 H2452 0.930 . S
C2462 C2460 1.419 . S
C2462 C2463 1.362 . S
C2463 H2453 0.930 . S
C2463 C2456 1.409 . S
C2463 C2462 1.362 . S
H2464 C2470 0.930 . S
H2465 C2473 0.930 . S
H2466 C2474 0.930 . S
H2467 C2475 0.930 . S
H2468 C2478 0.930 . S
H2469 C2479 0.930 . S
C2470 H2464 0.930 . S
C2470 C2471 1.355 . S
C2470 C2472 1.415 . S
C2471 C2470 1.355 . S
C2471 C2473 1.419 . S
C2472 C2470 1.415 . S
C2472 C2477 1.425 . S
C2472 C2479 1.409 . S
C2473 H2465 0.930 . S
C2473 C2471 1.419 . S
C2473 C2474 1.362 . S
C2474 H2466 0.930 . S
C2474 C2473 1.362 . S
C2474 C2477 1.409 . S
C2475 H2467 0.930 . S
C2475 C2476 1.355 . S
C2475 C2477 1.415 . S
C2476 C2475 1.355 . S
C2476 C2478 1.419 . S
C2477 C2472 1.425 . S
C2477 C2474 1.409 . S
C2477 C2475 1.415 . S
C2478 H2468 0.930 . S
C2478 C2476 1.419 . S
C2478 C2479 1.362 . S
C2479 H2469 0.930 . S
C2479 C2472 1.409 . S
C2479 C2478 1.362 . S
H2480 C2486 0.930 . S
H2481 C2489 0.930 . S
H2482 C2490 0.930 . S
H2483 C2491 0.930 . S
H2484 C2494 0.930 . S
H2485 C2495 0.930 . S
C2486 H2480 0.930 . S
C2486 C2487 1.355 . S
C2486 C2488 1.415 . S
C2487 C2486 1.355 . S
C2487 C2489 1.419 . S
C2488 C2486 1.415 . S
C2488 C2493 1.425 . S
C2488 C2495 1.409 . S
C2489 H2481 0.930 . S
C2489 C2487 1.419 . S
C2489 C2490 1.362 . S
C2490 H2482 0.930 . S
C2490 C2489 1.362 . S
C2490 C2493 1.409 . S
C2491 H2483 0.930 . S
C2491 C2492 1.355 . S
C2491 C2493 1.415 . S
C2492 C2491 1.355 . S
C2492 C2494 1.419 . S
C2493 C2488 1.425 . S
C2493 C2490 1.409 . S
C2493 C2491 1.415 . S
C2494 H2484 0.930 . S
C2494 C2492 1.419 . S
C2494 C2495 1.362 . S
C2495 H2485 0.930 . S
C2495 C2488 1.409 . S
C2495 C2494 1.362 . S
H2496 C2502 0.930 . S
H2497 C2505 0.930 . S
H2498 C2506 0.930 1_545 S
H2499 C2507 0.930 1_545 S
H2500 C2510 0.930 . S
H2501 C2511 0.930 . S
C2502 H2496 0.930 . S
C2502 C2503 1.355 . S
C2502 C2504 1.415 . S
C2503 C2502 1.355 . S
C2503 C2505 1.419 . S
C2504 C2502 1.415 . S
C2504 C2509 1.425 . S
C2504 C2511 1.409 . S
C2505 H2497 0.930 . S
C2505 C2503 1.419 . S
C2505 C2506 1.362 . S
C2506 H2498 0.930 1_565 S
C2506 C2505 1.362 . S
C2506 C2509 1.409 . S
C2507 H2499 0.930 1_565 S
C2507 C2508 1.355 . S
C2507 C2509 1.415 . S
C2508 C2507 1.355 . S
C2508 C2510 1.419 . S
C2509 C2504 1.425 . S
C2509 C2506 1.409 . S
C2509 C2507 1.415 . S
C2510 H2500 0.930 . S
C2510 C2508 1.419 . S
C2510 C2511 1.362 . S
C2511 H2501 0.930 . S
C2511 C2504 1.409 . S
C2511 C2510 1.362 . S
H2512 C2518 0.930 . S
H2513 C2521 0.930 . S
H2514 C2522 0.930 . S
H2515 C2523 0.930 . S
H2516 C2526 0.930 . S
H2517 C2527 0.930 . S
C2518 H2512 0.930 . S
C2518 C2519 1.355 . S
C2518 C2520 1.415 . S
C2519 C2518 1.355 . S
C2519 C2521 1.419 . S
C2520 C2518 1.415 . S
C2520 C2525 1.425 . S
C2520 C2527 1.409 . S
C2521 H2513 0.930 . S
C2521 C2519 1.419 . S
C2521 C2522 1.362 . S
C2522 H2514 0.930 . S
C2522 C2521 1.362 . S
C2522 C2525 1.409 . S
C2523 H2515 0.930 . S
C2523 C2524 1.355 . S
C2523 C2525 1.415 . S
C2524 C2523 1.355 . S
C2524 C2526 1.419 . S
C2525 C2520 1.425 . S
C2525 C2522 1.409 . S
C2525 C2523 1.415 . S
C2526 H2516 0.930 . S
C2526 C2524 1.419 . S
C2526 C2527 1.362 . S
C2527 H2517 0.930 . S
C2527 C2520 1.409 . S
C2527 C2526 1.362 . S
H2528 C2534 0.930 . S
H2529 C2537 0.930 . S
H2530 C2538 0.930 . S
H2531 C2539 0.930 . S
H2532 C2542 0.930 . S
H2533 C2543 0.930 . S
C2534 H2528 0.930 . S
C2534 C2535 1.355 . S
C2534 C2536 1.415 . S
C2535 C2534 1.355 . S
C2535 C2537 1.419 . S
C2536 C2534 1.415 . S
C2536 C2541 1.425 . S
C2536 C2543 1.409 . S
C2537 H2529 0.930 . S
C2537 C2535 1.419 . S
C2537 C2538 1.362 . S
C2538 H2530 0.930 . S
C2538 C2537 1.362 . S
C2538 C2541 1.409 . S
C2539 H2531 0.930 . S
C2539 C2540 1.355 . S
C2539 C2541 1.415 . S
C2540 C2539 1.355 . S
C2540 C2542 1.419 . S
C2541 C2536 1.425 . S
C2541 C2538 1.409 . S
C2541 C2539 1.415 . S
C2542 H2532 0.930 . S
C2542 C2540 1.419 . S
C2542 C2543 1.362 . S
C2543 H2533 0.930 . S
C2543 C2536 1.409 . S
C2543 C2542 1.362 . S
H2544 C2550 0.930 . S
H2545 C2553 0.930 . S
H2546 C2554 0.930 . S
H2547 C2555 0.930 . S
H2548 C2558 0.930 . S
H2549 C2559 0.930 . S
C2550 H2544 0.930 . S
C2550 C2551 1.355 . S
C2550 C2552 1.415 . S
C2551 C2550 1.355 . S
C2551 C2553 1.419 . S
C2552 C2550 1.415 . S
C2552 C2557 1.425 . S
C2552 C2559 1.409 . S
C2553 H2545 0.930 . S
C2553 C2551 1.419 . S
C2553 C2554 1.362 . S
C2554 H2546 0.930 . S
C2554 C2553 1.362 . S
C2554 C2557 1.409 . S
C2555 H2547 0.930 . S
C2555 C2556 1.355 . S
C2555 C2557 1.415 . S
C2556 C2555 1.355 . S
C2556 C2558 1.419 . S
C2557 C2552 1.425 . S
C2557 C2554 1.409 . S
C2557 C2555 1.415 . S
C2558 H2548 0.930 . S
C2558 C2556 1.419 . S
C2558 C2559 1.362 . S
C2559 H2549 0.930 . S
C2559 C2552 1.409 . S
C2559 C2558 1.362 . S
H2560 C2566 0.930 . S
H2561 C2569 0.930 . S
H2562 C2570 0.930 1_455 S
H2563 C2571 0.930 1_455 S
H2564 C2574 0.930 . S
H2565 C2575 0.930 . S
C2566 H2560 0.930 . S
C2566 C2567 1.355 . S
C2566 C2568 1.415 . S
C2567 C2566 1.355 . S
C2567 C2569 1.419 . S
C2568 C2566 1.415 . S
C2568 C2573 1.425 . S
C2568 C2575 1.409 . S
C2569 H2561 0.930 . S
C2569 C2567 1.419 . S
C2569 C2570 1.362 . S
C2570 H2562 0.930 1_655 S
C2570 C2569 1.362 . S
C2570 C2573 1.409 . S
C2571 H2563 0.930 1_655 S
C2571 C2572 1.355 . S
C2571 C2573 1.415 . S
C2572 C2571 1.355 . S
C2572 C2574 1.419 . S
C2573 C2568 1.425 . S
C2573 C2570 1.409 . S
C2573 C2571 1.415 . S
C2574 H2564 0.930 . S
C2574 C2572 1.419 . S
C2574 C2575 1.362 . S
C2575 H2565 0.930 . S
C2575 C2568 1.409 . S
C2575 C2574 1.362 . S
H2576 C2582 0.930 . S
H2577 C2585 0.930 . S
H2578 C2586 0.930 . S
H2579 C2587 0.930 . S
H2580 C2590 0.930 . S
H2581 C2591 0.930 . S
C2582 H2576 0.930 . S
C2582 C2583 1.355 . S
C2582 C2584 1.415 . S
C2583 C2582 1.355 . S
C2583 C2585 1.419 . S
C2584 C2582 1.415 . S
C2584 C2589 1.425 . S
C2584 C2591 1.409 . S
C2585 H2577 0.930 . S
C2585 C2583 1.419 . S
C2585 C2586 1.362 . S
C2586 H2578 0.930 . S
C2586 C2585 1.362 . S
C2586 C2589 1.409 . S
C2587 H2579 0.930 . S
C2587 C2588 1.355 . S
C2587 C2589 1.415 . S
C2588 C2587 1.355 . S
C2588 C2590 1.419 . S
C2589 C2584 1.425 . S
C2589 C2586 1.409 . S
C2589 C2587 1.415 . S
C2590 H2580 0.930 . S
C2590 C2588 1.419 . S
C2590 C2591 1.362 . S
C2591 H2581 0.930 . S
C2591 C2584 1.409 . S
C2591 C2590 1.362 . S
H2592 C2598 0.930 . S
H2593 C2601 0.930 . S
H2594 C2602 0.930 1_455 S
H2595 C2603 0.930 1_455 S
H2596 C2606 0.930 . S
H2597 C2607 0.930 . S
C2598 H2592 0.930 . S
C2598 C2599 1.355 . S
C2598 C2600 1.415 . S
C2599 C2598 1.355 . S
C2599 C2601 1.419 . S
C2600 C2598 1.415 . S
C2600 C2605 1.425 . S
C2600 C2607 1.409 . S
C2601 H2593 0.930 . S
C2601 C2599 1.419 . S
C2601 C2602 1.362 . S
C2602 H2594 0.930 1_655 S
C2602 C2601 1.362 . S
C2602 C2605 1.409 . S
C2603 H2595 0.930 1_655 S
C2603 C2604 1.355 . S
C2603 C2605 1.415 . S
C2604 C2603 1.355 . S
C2604 C2606 1.419 . S
C2605 C2600 1.425 . S
C2605 C2602 1.409 . S
C2605 C2603 1.415 . S
C2606 H2596 0.930 . S
C2606 C2604 1.419 . S
C2606 C2607 1.362 . S
C2607 H2597 0.930 . S
C2607 C2600 1.409 . S
C2607 C2606 1.362 . S
H2608 C2614 0.930 . S
H2609 C2617 0.930 . S
H2610 C2618 0.930 . S
H2611 C2619 0.930 . S
H2612 C2622 0.930 . S
H2613 C2623 0.930 . S
C2614 H2608 0.930 . S
C2614 C2615 1.355 . S
C2614 C2616 1.415 . S
C2615 C2614 1.355 . S
C2615 C2617 1.419 . S
C2616 C2614 1.415 . S
C2616 C2621 1.425 . S
C2616 C2623 1.409 . S
C2617 H2609 0.930 . S
C2617 C2615 1.419 . S
C2617 C2618 1.362 . S
C2618 H2610 0.930 . S
C2618 C2617 1.362 . S
C2618 C2621 1.409 . S
C2619 H2611 0.930 . S
C2619 C2620 1.355 . S
C2619 C2621 1.415 . S
C2620 C2619 1.355 . S
C2620 C2622 1.419 . S
C2621 C2616 1.425 . S
C2621 C2618 1.409 . S
C2621 C2619 1.415 . S
C2622 H2612 0.930 . S
C2622 C2620 1.419 . S
C2622 C2623 1.362 . S
C2623 H2613 0.930 . S
C2623 C2616 1.409 . S
C2623 C2622 1.362 . S
H2624 C2630 0.930 . S
H2625 C2633 0.930 . S
H2626 C2634 0.930 . S
H2627 C2635 0.930 . S
H2628 C2638 0.930 . S
H2629 C2639 0.930 . S
C2630 H2624 0.930 . S
C2630 C2631 1.355 . S
C2630 C2632 1.415 . S
C2631 C2630 1.355 . S
C2631 C2633 1.419 . S
C2632 C2630 1.415 . S
C2632 C2637 1.425 . S
C2632 C2639 1.409 . S
C2633 H2625 0.930 . S
C2633 C2631 1.419 . S
C2633 C2634 1.362 . S
C2634 H2626 0.930 . S
C2634 C2633 1.362 . S
C2634 C2637 1.409 . S
C2635 H2627 0.930 . S
C2635 C2636 1.355 . S
C2635 C2637 1.415 . S
C2636 C2635 1.355 . S
C2636 C2638 1.419 . S
C2637 C2632 1.425 . S
C2637 C2634 1.409 . S
C2637 C2635 1.415 . S
C2638 H2628 0.930 . S
C2638 C2636 1.419 . S
C2638 C2639 1.362 . S
C2639 H2629 0.930 . S
C2639 C2632 1.409 . S
C2639 C2638 1.362 . S
H2640 C2646 0.930 1_554 S
H2641 C2649 0.930 . S
H2642 C2650 0.930 . S
H2643 C2651 0.930 . S
H2644 C2654 0.930 . S
H2645 C2655 0.930 1_554 S
C2646 H2640 0.930 1_556 S
C2646 C2647 1.355 . S
C2646 C2648 1.415 . S
C2647 C2646 1.355 . S
C2647 C2649 1.419 . S
C2648 C2646 1.415 . S
C2648 C2653 1.425 . S
C2648 C2655 1.409 . S
C2649 H2641 0.930 . S
C2649 C2647 1.419 . S
C2649 C2650 1.362 . S
C2650 H2642 0.930 . S
C2650 C2649 1.362 . S
C2650 C2653 1.409 . S
C2651 H2643 0.930 . S
C2651 C2652 1.355 . S
C2651 C2653 1.415 . S
C2652 C2651 1.355 . S
C2652 C2654 1.419 . S
C2653 C2648 1.425 . S
C2653 C2650 1.409 . S
C2653 C2651 1.415 . S
C2654 H2644 0.930 . S
C2654 C2652 1.419 . S
C2654 C2655 1.362 . S
C2655 H2645 0.930 1_556 S
C2655 C2648 1.409 . S
C2655 C2654 1.362 . S
H2656 C2662 0.930 . S
H2657 C2665 0.930 . S
H2658 C2666 0.930 . S
H2659 C2667 0.930 . S
H2660 C2670 0.930 . S
H2661 C2671 0.930 . S
C2662 H2656 0.930 . S
C2662 C2663 1.355 . S
C2662 C2664 1.415 . S
C2663 C2662 1.355 . S
C2663 C2665 1.419 . S
C2664 C2662 1.415 . S
C2664 C2669 1.425 . S
C2664 C2671 1.409 . S
C2665 H2657 0.930 . S
C2665 C2663 1.419 . S
C2665 C2666 1.362 . S
C2666 H2658 0.930 . S
C2666 C2665 1.362 . S
C2666 C2669 1.409 . S
C2667 H2659 0.930 . S
C2667 C2668 1.355 . S
C2667 C2669 1.415 . S
C2668 C2667 1.355 . S
C2668 C2670 1.419 . S
C2669 C2664 1.425 . S
C2669 C2666 1.409 . S
C2669 C2667 1.415 . S
C2670 H2660 0.930 . S
C2670 C2668 1.419 . S
C2670 C2671 1.362 . S
C2671 H2661 0.930 . S
C2671 C2664 1.409 . S
C2671 C2670 1.362 . S
H2672 C2678 0.930 . S
H2673 C2681 0.930 . S
H2674 C2682 0.930 . S
H2675 C2683 0.930 . S
H2676 C2686 0.930 . S
H2677 C2687 0.930 . S
C2678 H2672 0.930 . S
C2678 C2679 1.355 . S
C2678 C2680 1.415 . S
C2679 C2678 1.355 . S
C2679 C2681 1.419 . S
C2680 C2678 1.415 . S
C2680 C2685 1.425 . S
C2680 C2687 1.409 . S
C2681 H2673 0.930 . S
C2681 C2679 1.419 . S
C2681 C2682 1.362 . S
C2682 H2674 0.930 . S
C2682 C2681 1.362 . S
C2682 C2685 1.409 . S
C2683 H2675 0.930 . S
C2683 C2684 1.355 . S
C2683 C2685 1.415 . S
C2684 C2683 1.355 . S
C2684 C2686 1.419 . S
C2685 C2680 1.425 . S
C2685 C2682 1.409 . S
C2685 C2683 1.415 . S
C2686 H2676 0.930 . S
C2686 C2684 1.419 . S
C2686 C2687 1.362 . S
C2687 H2677 0.930 . S
C2687 C2680 1.409 . S
C2687 C2686 1.362 . S
H2688 C2694 0.930 . S
H2689 C2697 0.930 . S
H2690 C2698 0.930 . S
H2691 C2699 0.930 . S
H2692 C2702 0.930 . S
H2693 C2703 0.930 . S
C2694 H2688 0.930 . S
C2694 C2695 1.355 . S
C2694 C2696 1.415 . S
C2695 C2694 1.355 . S
C2695 C2697 1.419 . S
C2696 C2694 1.415 . S
C2696 C2701 1.425 . S
C2696 C2703 1.409 . S
C2697 H2689 0.930 . S
C2697 C2695 1.419 . S
C2697 C2698 1.362 . S
C2698 H2690 0.930 . S
C2698 C2697 1.362 . S
C2698 C2701 1.409 . S
C2699 H2691 0.930 . S
C2699 C2700 1.355 . S
C2699 C2701 1.415 . S
C2700 C2699 1.355 . S
C2700 C2702 1.419 . S
C2701 C2696 1.425 . S
C2701 C2698 1.409 . S
C2701 C2699 1.415 . S
C2702 H2692 0.930 . S
C2702 C2700 1.419 . S
C2702 C2703 1.362 . S
C2703 H2693 0.930 . S
C2703 C2696 1.409 . S
C2703 C2702 1.362 . S
H2704 C2710 0.930 . S
H2705 C2713 0.930 . S
H2706 C2714 0.930 . S
H2707 C2715 0.930 . S
H2708 C2718 0.930 . S
H2709 C2719 0.930 . S
C2710 H2704 0.930 . S
C2710 C2711 1.355 . S
C2710 C2712 1.415 . S
C2711 C2710 1.355 . S
C2711 C2713 1.419 . S
C2712 C2710 1.415 . S
C2712 C2717 1.425 . S
C2712 C2719 1.409 . S
C2713 H2705 0.930 . S
C2713 C2711 1.419 . S
C2713 C2714 1.362 . S
C2714 H2706 0.930 . S
C2714 C2713 1.362 . S
C2714 C2717 1.409 . S
C2715 H2707 0.930 . S
C2715 C2716 1.355 . S
C2715 C2717 1.415 . S
C2716 C2715 1.355 . S
C2716 C2718 1.419 . S
C2717 C2712 1.425 . S
C2717 C2714 1.409 . S
C2717 C2715 1.415 . S
C2718 H2708 0.930 . S
C2718 C2716 1.419 . S
C2718 C2719 1.362 . S
C2719 H2709 0.930 . S
C2719 C2712 1.409 . S
C2719 C2718 1.362 . S
H2720 C2726 0.930 . S
H2721 C2729 0.930 . S
H2722 C2730 0.930 . S
H2723 C2731 0.930 . S
H2724 C2734 0.930 . S
H2725 C2735 0.930 . S
C2726 H2720 0.930 . S
C2726 C2727 1.355 . S
C2726 C2728 1.415 . S
C2727 C2726 1.355 . S
C2727 C2729 1.419 . S
C2728 C2726 1.415 . S
C2728 C2733 1.425 . S
C2728 C2735 1.409 . S
C2729 H2721 0.930 . S
C2729 C2727 1.419 . S
C2729 C2730 1.362 . S
C2730 H2722 0.930 . S
C2730 C2729 1.362 . S
C2730 C2733 1.409 . S
C2731 H2723 0.930 . S
C2731 C2732 1.355 . S
C2731 C2733 1.415 . S
C2732 C2731 1.355 . S
C2732 C2734 1.419 . S
C2733 C2728 1.425 . S
C2733 C2730 1.409 . S
C2733 C2731 1.415 . S
C2734 H2724 0.930 . S
C2734 C2732 1.419 . S
C2734 C2735 1.362 . S
C2735 H2725 0.930 . S
C2735 C2728 1.409 . S
C2735 C2734 1.362 . S
H2736 C2742 0.930 . S
H2737 C2745 0.930 . S
H2738 C2746 0.930 . S
H2739 C2747 0.930 . S
H2740 C2750 0.930 . S
H2741 C2751 0.930 . S
C2742 H2736 0.930 . S
C2742 C2743 1.355 . S
C2742 C2744 1.415 . S
C2743 C2742 1.355 . S
C2743 C2745 1.419 . S
C2744 C2742 1.415 . S
C2744 C2749 1.425 . S
C2744 C2751 1.409 . S
C2745 H2737 0.930 . S
C2745 C2743 1.419 . S
C2745 C2746 1.362 . S
C2746 H2738 0.930 . S
C2746 C2745 1.362 . S
C2746 C2749 1.409 . S
C2747 H2739 0.930 . S
C2747 C2748 1.355 . S
C2747 C2749 1.415 . S
C2748 C2747 1.355 . S
C2748 C2750 1.419 . S
C2749 C2744 1.425 . S
C2749 C2746 1.409 . S
C2749 C2747 1.415 . S
C2750 H2740 0.930 . S
C2750 C2748 1.419 . S
C2750 C2751 1.362 . S
C2751 H2741 0.930 . S
C2751 C2744 1.409 . S
C2751 C2750 1.362 . S
H2752 C2758 0.930 . S
H2753 C2761 0.930 . S
H2754 C2762 0.930 . S
H2755 C2763 0.930 . S
H2756 C2766 0.930 . S
H2757 C2767 0.930 . S
C2758 H2752 0.930 . S
C2758 C2759 1.355 . S
C2758 C2760 1.415 . S
C2759 C2758 1.355 . S
C2759 C2761 1.419 . S
C2760 C2758 1.415 . S
C2760 C2765 1.425 . S
C2760 C2767 1.409 . S
C2761 H2753 0.930 . S
C2761 C2759 1.419 . S
C2761 C2762 1.362 . S
C2762 H2754 0.930 . S
C2762 C2761 1.362 . S
C2762 C2765 1.409 . S
C2763 H2755 0.930 . S
C2763 C2764 1.355 . S
C2763 C2765 1.415 . S
C2764 C2763 1.355 . S
C2764 C2766 1.419 . S
C2765 C2760 1.425 . S
C2765 C2762 1.409 . S
C2765 C2763 1.415 . S
C2766 H2756 0.930 . S
C2766 C2764 1.419 . S
C2766 C2767 1.362 . S
C2767 H2757 0.930 . S
C2767 C2760 1.409 . S
C2767 C2766 1.362 . S
H2768 C2774 0.930 . S
H2769 C2777 0.930 . S
H2770 C2778 0.930 . S
H2771 C2779 0.930 . S
H2772 C2782 0.930 . S
H2773 C2783 0.930 . S
C2774 H2768 0.930 . S
C2774 C2775 1.355 . S
C2774 C2776 1.415 . S
C2775 C2774 1.355 . S
C2775 C2777 1.419 . S
C2776 C2774 1.415 . S
C2776 C2781 1.425 . S
C2776 C2783 1.409 . S
C2777 H2769 0.930 . S
C2777 C2775 1.419 . S
C2777 C2778 1.362 . S
C2778 H2770 0.930 . S
C2778 C2777 1.362 . S
C2778 C2781 1.409 . S
C2779 H2771 0.930 . S
C2779 C2780 1.355 . S
C2779 C2781 1.415 . S
C2780 C2779 1.355 . S
C2780 C2782 1.419 . S
C2781 C2776 1.425 . S
C2781 C2778 1.409 . S
C2781 C2779 1.415 . S
C2782 H2772 0.930 . S
C2782 C2780 1.419 . S
C2782 C2783 1.362 . S
C2783 H2773 0.930 . S
C2783 C2776 1.409 . S
C2783 C2782 1.362 . S
H2784 C2790 0.930 . S
H2785 C2793 0.930 . S
H2786 C2794 0.930 . S
H2787 C2795 0.930 . S
H2788 C2798 0.930 . S
H2789 C2799 0.930 . S
C2790 H2784 0.930 . S
C2790 C2791 1.355 . S
C2790 C2792 1.415 . S
C2791 C2790 1.355 . S
C2791 C2793 1.419 . S
C2792 C2790 1.415 . S
C2792 C2797 1.425 . S
C2792 C2799 1.409 . S
C2793 H2785 0.930 . S
C2793 C2791 1.419 . S
C2793 C2794 1.362 . S
C2794 H2786 0.930 . S
C2794 C2793 1.362 . S
C2794 C2797 1.409 . S
C2795 H2787 0.930 . S
C2795 C2796 1.355 . S
C2795 C2797 1.415 . S
C2796 C2795 1.355 . S
C2796 C2798 1.419 . S
C2797 C2792 1.425 . S
C2797 C2794 1.409 . S
C2797 C2795 1.415 . S
C2798 H2788 0.930 . S
C2798 C2796 1.419 . S
C2798 C2799 1.362 . S
C2799 H2789 0.930 . S
C2799 C2792 1.409 . S
C2799 C2798 1.362 . S
H2800 C2806 0.930 . S
H2801 C2809 0.930 . S
H2802 C2810 0.930 . S
H2803 C2811 0.930 . S
H2804 C2814 0.930 . S
H2805 C2815 0.930 . S
C2806 H2800 0.930 . S
C2806 C2807 1.355 . S
C2806 C2808 1.415 . S
C2807 C2806 1.355 . S
C2807 C2809 1.419 . S
C2808 C2806 1.415 . S
C2808 C2813 1.425 . S
C2808 C2815 1.409 . S
C2809 H2801 0.930 . S
C2809 C2807 1.419 . S
C2809 C2810 1.362 . S
C2810 H2802 0.930 . S
C2810 C2809 1.362 . S
C2810 C2813 1.409 . S
C2811 H2803 0.930 . S
C2811 C2812 1.355 . S
C2811 C2813 1.415 . S
C2812 C2811 1.355 . S
C2812 C2814 1.419 . S
C2813 C2808 1.425 . S
C2813 C2810 1.409 . S
C2813 C2811 1.415 . S
C2814 H2804 0.930 . S
C2814 C2812 1.419 . S
C2814 C2815 1.362 . S
C2815 H2805 0.930 . S
C2815 C2808 1.409 . S
C2815 C2814 1.362 . S
H2816 C2822 0.930 . S
H2817 C2825 0.930 . S
H2818 C2826 0.930 . S
H2819 C2827 0.930 . S
H2820 C2830 0.930 . S
H2821 C2831 0.930 . S
C2822 H2816 0.930 . S
C2822 C2823 1.355 . S
C2822 C2824 1.415 . S
C2823 C2822 1.355 . S
C2823 C2825 1.419 . S
C2824 C2822 1.415 . S
C2824 C2829 1.425 . S
C2824 C2831 1.409 . S
C2825 H2817 0.930 . S
C2825 C2823 1.419 . S
C2825 C2826 1.362 . S
C2826 H2818 0.930 . S
C2826 C2825 1.362 . S
C2826 C2829 1.409 . S
C2827 H2819 0.930 . S
C2827 C2828 1.355 . S
C2827 C2829 1.415 . S
C2828 C2827 1.355 . S
C2828 C2830 1.419 . S
C2829 C2824 1.425 . S
C2829 C2826 1.409 . S
C2829 C2827 1.415 . S
C2830 H2820 0.930 . S
C2830 C2828 1.419 . S
C2830 C2831 1.362 . S
C2831 H2821 0.930 . S
C2831 C2824 1.409 . S
C2831 C2830 1.362 . S
H2832 C2838 0.930 . S
H2833 C2841 0.930 . S
H2834 C2842 0.930 . S
H2835 C2843 0.930 . S
H2836 C2846 0.930 . S
H2837 C2847 0.930 . S
C2838 H2832 0.930 . S
C2838 C2839 1.355 . S
C2838 C2840 1.415 . S
C2839 C2838 1.355 . S
C2839 C2841 1.419 . S
C2840 C2838 1.415 . S
C2840 C2845 1.425 . S
C2840 C2847 1.409 . S
C2841 H2833 0.930 . S
C2841 C2839 1.419 . S
C2841 C2842 1.362 . S
C2842 H2834 0.930 . S
C2842 C2841 1.362 . S
C2842 C2845 1.409 . S
C2843 H2835 0.930 . S
C2843 C2844 1.355 . S
C2843 C2845 1.415 . S
C2844 C2843 1.355 . S
C2844 C2846 1.419 . S
C2845 C2840 1.425 . S
C2845 C2842 1.409 . S
C2845 C2843 1.415 . S
C2846 H2836 0.930 . S
C2846 C2844 1.419 . S
C2846 C2847 1.362 . S
C2847 H2837 0.930 . S
C2847 C2840 1.409 . S
C2847 C2846 1.362 . S
H2848 C2854 0.930 . S
H2849 C2857 0.930 . S
H2850 C2858 0.930 . S
H2851 C2859 0.930 . S
H2852 C2862 0.930 . S
H2853 C2863 0.930 . S
C2854 H2848 0.930 . S
C2854 C2855 1.355 . S
C2854 C2856 1.415 . S
C2855 C2854 1.355 . S
C2855 C2857 1.419 . S
C2856 C2854 1.415 . S
C2856 C2861 1.425 . S
C2856 C2863 1.409 . S
C2857 H2849 0.930 . S
C2857 C2855 1.419 . S
C2857 C2858 1.362 . S
C2858 H2850 0.930 . S
C2858 C2857 1.362 . S
C2858 C2861 1.409 . S
C2859 H2851 0.930 . S
C2859 C2860 1.355 . S
C2859 C2861 1.415 . S
C2860 C2859 1.355 . S
C2860 C2862 1.419 . S
C2861 C2856 1.425 . S
C2861 C2858 1.409 . S
C2861 C2859 1.415 . S
C2862 H2852 0.930 . S
C2862 C2860 1.419 . S
C2862 C2863 1.362 . S
C2863 H2853 0.930 . S
C2863 C2856 1.409 . S
C2863 C2862 1.362 . S
H2864 C2870 0.930 . S
H2865 C2873 0.930 . S
H2866 C2874 0.930 . S
H2867 C2875 0.930 . S
H2868 C2878 0.930 . S
H2869 C2879 0.930 . S
C2870 H2864 0.930 . S
C2870 C2871 1.355 . S
C2870 C2872 1.415 . S
C2871 C2870 1.355 . S
C2871 C2873 1.419 . S
C2872 C2870 1.415 . S
C2872 C2877 1.425 . S
C2872 C2879 1.409 . S
C2873 H2865 0.930 . S
C2873 C2871 1.419 . S
C2873 C2874 1.362 . S
C2874 H2866 0.930 . S
C2874 C2873 1.362 . S
C2874 C2877 1.409 . S
C2875 H2867 0.930 . S
C2875 C2876 1.355 . S
C2875 C2877 1.415 . S
C2876 C2875 1.355 . S
C2876 C2878 1.419 . S
C2877 C2872 1.425 . S
C2877 C2874 1.409 . S
C2877 C2875 1.415 . S
C2878 H2868 0.930 . S
C2878 C2876 1.419 . S
C2878 C2879 1.362 . S
C2879 H2869 0.930 . S
C2879 C2872 1.409 . S
C2879 C2878 1.362 . S
H2880 C2886 0.930 . S
H2881 C2889 0.930 . S
H2882 C2890 0.930 . S
H2883 C2891 0.930 . S
H2884 C2894 0.930 . S
H2885 C2895 0.930 . S
C2886 H2880 0.930 . S
C2886 C2887 1.355 . S
C2886 C2888 1.415 . S
C2887 C2886 1.355 . S
C2887 C2889 1.419 . S
C2888 C2886 1.415 . S
C2888 C2893 1.425 . S
C2888 C2895 1.409 . S
C2889 H2881 0.930 . S
C2889 C2887 1.419 . S
C2889 C2890 1.362 . S
C2890 H2882 0.930 . S
C2890 C2889 1.362 . S
C2890 C2893 1.409 . S
C2891 H2883 0.930 . S
C2891 C2892 1.355 . S
C2891 C2893 1.415 . S
C2892 C2891 1.355 . S
C2892 C2894 1.419 . S
C2893 C2888 1.425 . S
C2893 C2890 1.409 . S
C2893 C2891 1.415 . S
C2894 H2884 0.930 . S
C2894 C2892 1.419 . S
C2894 C2895 1.362 . S
C2895 H2885 0.930 . S
C2895 C2888 1.409 . S
C2895 C2894 1.362 . S
H2896 C2902 0.930 . S
H2897 C2905 0.930 . S
H2898 C2906 0.930 . S
H2899 C2907 0.930 . S
H2900 C2910 0.930 . S
H2901 C2911 0.930 1_554 S
C2902 H2896 0.930 . S
C2902 C2903 1.355 . S
C2902 C2904 1.415 . S
C2903 C2902 1.355 . S
C2903 C2905 1.419 . S
C2904 C2902 1.415 . S
C2904 C2909 1.425 . S
C2904 C2911 1.409 . S
C2905 H2897 0.930 . S
C2905 C2903 1.419 . S
C2905 C2906 1.362 . S
C2906 H2898 0.930 . S
C2906 C2905 1.362 . S
C2906 C2909 1.409 . S
C2907 H2899 0.930 . S
C2907 C2908 1.355 . S
C2907 C2909 1.415 . S
C2908 C2907 1.355 . S
C2908 C2910 1.419 . S
C2909 C2904 1.425 . S
C2909 C2906 1.409 . S
C2909 C2907 1.415 . S
C2910 H2900 0.930 . S
C2910 C2908 1.419 . S
C2910 C2911 1.362 . S
C2911 H2901 0.930 1_556 S
C2911 C2904 1.409 . S
C2911 C2910 1.362 . S
H2912 C2918 0.930 . S
H2913 C2921 0.930 . S
H2914 C2922 0.930 . S
H2915 C2923 0.930 . S
H2916 C2926 0.930 . S
H2917 C2927 0.930 . S
C2918 H2912 0.930 . S
C2918 C2919 1.355 . S
C2918 C2920 1.415 . S
C2919 C2918 1.355 . S
C2919 C2921 1.419 . S
C2920 C2918 1.415 . S
C2920 C2925 1.425 . S
C2920 C2927 1.409 . S
C2921 H2913 0.930 . S
C2921 C2919 1.419 . S
C2921 C2922 1.362 . S
C2922 H2914 0.930 . S
C2922 C2921 1.362 . S
C2922 C2925 1.409 . S
C2923 H2915 0.930 . S
C2923 C2924 1.355 . S
C2923 C2925 1.415 . S
C2924 C2923 1.355 . S
C2924 C2926 1.419 . S
C2925 C2920 1.425 . S
C2925 C2922 1.409 . S
C2925 C2923 1.415 . S
C2926 H2916 0.930 . S
C2926 C2924 1.419 . S
C2926 C2927 1.362 . S
C2927 H2917 0.930 . S
C2927 C2920 1.409 . S
C2927 C2926 1.362 . S
H2928 C2934 0.930 . S
H2929 C2937 0.930 . S
H2930 C2938 0.930 . S
H2931 C2939 0.930 . S
H2932 C2942 0.930 . S
H2933 C2943 0.930 . S
C2934 H2928 0.930 . S
C2934 C2935 1.355 . S
C2934 C2936 1.415 . S
C2935 C2934 1.355 . S
C2935 C2937 1.419 . S
C2936 C2934 1.415 . S
C2936 C2941 1.425 . S
C2936 C2943 1.409 . S
C2937 H2929 0.930 . S
C2937 C2935 1.419 . S
C2937 C2938 1.362 . S
C2938 H2930 0.930 . S
C2938 C2937 1.362 . S
C2938 C2941 1.409 . S
C2939 H2931 0.930 . S
C2939 C2940 1.355 . S
C2939 C2941 1.415 . S
C2940 C2939 1.355 . S
C2940 C2942 1.419 . S
C2941 C2936 1.425 . S
C2941 C2938 1.409 . S
C2941 C2939 1.415 . S
C2942 H2932 0.930 . S
C2942 C2940 1.419 . S
C2942 C2943 1.362 . S
C2943 H2933 0.930 . S
C2943 C2936 1.409 . S
C2943 C2942 1.362 . S
H2944 C2950 0.930 . S
H2945 C2953 0.930 . S
H2946 C2954 0.930 . S
H2947 C2955 0.930 . S
H2948 C2958 0.930 . S
H2949 C2959 0.930 . S
C2950 H2944 0.930 . S
C2950 C2951 1.355 . S
C2950 C2952 1.415 . S
C2951 C2950 1.355 . S
C2951 C2953 1.419 . S
C2952 C2950 1.415 . S
C2952 C2957 1.425 . S
C2952 C2959 1.409 . S
C2953 H2945 0.930 . S
C2953 C2951 1.419 . S
C2953 C2954 1.362 . S
C2954 H2946 0.930 . S
C2954 C2953 1.362 . S
C2954 C2957 1.409 . S
C2955 H2947 0.930 . S
C2955 C2956 1.355 . S
C2955 C2957 1.415 . S
C2956 C2955 1.355 . S
C2956 C2958 1.419 . S
C2957 C2952 1.425 . S
C2957 C2954 1.409 . S
C2957 C2955 1.415 . S
C2958 H2948 0.930 . S
C2958 C2956 1.419 . S
C2958 C2959 1.362 . S
C2959 H2949 0.930 . S
C2959 C2952 1.409 . S
C2959 C2958 1.362 . S
H2960 C2966 0.930 . S
H2961 C2969 0.930 . S
H2962 C2970 0.930 . S
H2963 C2971 0.930 . S
H2964 C2974 0.930 . S
H2965 C2975 0.930 . S
C2966 H2960 0.930 . S
C2966 C2967 1.355 . S
C2966 C2968 1.415 . S
C2967 C2966 1.355 . S
C2967 C2969 1.419 . S
C2968 C2966 1.415 . S
C2968 C2973 1.425 . S
C2968 C2975 1.409 . S
C2969 H2961 0.930 . S
C2969 C2967 1.419 . S
C2969 C2970 1.362 . S
C2970 H2962 0.930 . S
C2970 C2969 1.362 . S
C2970 C2973 1.409 . S
C2971 H2963 0.930 . S
C2971 C2972 1.355 . S
C2971 C2973 1.415 . S
C2972 C2971 1.355 . S
C2972 C2974 1.419 . S
C2973 C2968 1.425 . S
C2973 C2970 1.409 . S
C2973 C2971 1.415 . S
C2974 H2964 0.930 . S
C2974 C2972 1.419 . S
C2974 C2975 1.362 . S
C2975 H2965 0.930 . S
C2975 C2968 1.409 . S
C2975 C2974 1.362 . S
H2976 C2982 0.930 . S
H2977 C2985 0.930 . S
H2978 C2986 0.930 . S
H2979 C2987 0.930 . S
H2980 C2990 0.930 . S
H2981 C2991 0.930 . S
C2982 H2976 0.930 . S
C2982 C2983 1.355 . S
C2982 C2984 1.415 . S
C2983 C2982 1.355 . S
C2983 C2985 1.419 . S
C2984 C2982 1.415 . S
C2984 C2989 1.425 . S
C2984 C2991 1.409 . S
C2985 H2977 0.930 . S
C2985 C2983 1.419 . S
C2985 C2986 1.362 . S
C2986 H2978 0.930 . S
C2986 C2985 1.362 . S
C2986 C2989 1.409 . S
C2987 H2979 0.930 . S
C2987 C2988 1.355 . S
C2987 C2989 1.415 . S
C2988 C2987 1.355 . S
C2988 C2990 1.419 . S
C2989 C2984 1.425 . S
C2989 C2986 1.409 . S
C2989 C2987 1.415 . S
C2990 H2980 0.930 . S
C2990 C2988 1.419 . S
C2990 C2991 1.362 . S
C2991 H2981 0.930 . S
C2991 C2984 1.409 . S
C2991 C2990 1.362 . S
H2992 C2998 0.930 . S
H2993 C3001 0.930 . S
H2994 C3002 0.930 . S
H2995 C3003 0.930 . S
H2996 C3006 0.930 . S
H2997 C3007 0.930 . S
C2998 H2992 0.930 . S
C2998 C2999 1.355 . S
C2998 C3000 1.415 . S
C2999 C2998 1.355 . S
C2999 C3001 1.419 . S
C3000 C2998 1.415 . S
C3000 C3005 1.425 . S
C3000 C3007 1.409 . S
C3001 H2993 0.930 . S
C3001 C2999 1.419 . S
C3001 C3002 1.362 . S
C3002 H2994 0.930 . S
C3002 C3001 1.362 . S
C3002 C3005 1.409 . S
C3003 H2995 0.930 . S
C3003 C3004 1.355 . S
C3003 C3005 1.415 . S
C3004 C3003 1.355 . S
C3004 C3006 1.419 . S
C3005 C3000 1.425 . S
C3005 C3002 1.409 . S
C3005 C3003 1.415 . S
C3006 H2996 0.930 . S
C3006 C3004 1.419 . S
C3006 C3007 1.362 . S
C3007 H2997 0.930 . S
C3007 C3000 1.409 . S
C3007 C3006 1.362 . S
H3008 C3014 0.930 . S
H3009 C3017 0.930 . S
H3010 C3018 0.930 . S
H3011 C3019 0.930 . S
H3012 C3022 0.930 . S
H3013 C3023 0.930 1_455 S
C3014 H3008 0.930 . S
C3014 C3015 1.355 . S
C3014 C3016 1.415 . S
C3015 C3014 1.355 . S
C3015 C3017 1.419 . S
C3016 C3014 1.415 . S
C3016 C3021 1.425 . S
C3016 C3023 1.409 . S
C3017 H3009 0.930 . S
C3017 C3015 1.419 . S
C3017 C3018 1.362 . S
C3018 H3010 0.930 . S
C3018 C3017 1.362 . S
C3018 C3021 1.409 . S
C3019 H3011 0.930 . S
C3019 C3020 1.355 . S
C3019 C3021 1.415 . S
C3020 C3019 1.355 . S
C3020 C3022 1.419 . S
C3021 C3016 1.425 . S
C3021 C3018 1.409 . S
C3021 C3019 1.415 . S
C3022 H3012 0.930 . S
C3022 C3020 1.419 . S
C3022 C3023 1.362 . S
C3023 H3013 0.930 1_655 S
C3023 C3016 1.409 . S
C3023 C3022 1.362 . S
H3024 C3030 0.930 . S
H3025 C3033 0.930 . S
H3026 C3034 0.930 . S
H3027 C3035 0.930 . S
H3028 C3038 0.930 . S
H3029 C3039 0.930 . S
C3030 H3024 0.930 . S
C3030 C3031 1.355 . S
C3030 C3032 1.415 . S
C3031 C3030 1.355 . S
C3031 C3033 1.419 . S
C3032 C3030 1.415 . S
C3032 C3037 1.425 . S
C3032 C3039 1.409 . S
C3033 H3025 0.930 . S
C3033 C3031 1.419 . S
C3033 C3034 1.362 . S
C3034 H3026 0.930 . S
C3034 C3033 1.362 . S
C3034 C3037 1.409 . S
C3035 H3027 0.930 . S
C3035 C3036 1.355 . S
C3035 C3037 1.415 . S
C3036 C3035 1.355 . S
C3036 C3038 1.419 . S
C3037 C3032 1.425 . S
C3037 C3034 1.409 . S
C3037 C3035 1.415 . S
C3038 H3028 0.930 . S
C3038 C3036 1.419 . S
C3038 C3039 1.362 . S
C3039 H3029 0.930 . S
C3039 C3032 1.409 . S
C3039 C3038 1.362 . S
H3040 C3046 0.930 . S
H3041 C3049 0.930 . S
H3042 C3050 0.930 . S
H3043 C3051 0.930 . S
H3044 C3054 0.930 . S
H3045 C3055 0.930 . S
C3046 H3040 0.930 . S
C3046 C3047 1.355 . S
C3046 C3048 1.415 . S
C3047 C3046 1.355 . S
C3047 C3049 1.419 . S
C3048 C3046 1.415 . S
C3048 C3053 1.425 . S
C3048 C3055 1.409 . S
C3049 H3041 0.930 . S
C3049 C3047 1.419 . S
C3049 C3050 1.362 . S
C3050 H3042 0.930 . S
C3050 C3049 1.362 . S
C3050 C3053 1.409 . S
C3051 H3043 0.930 . S
C3051 C3052 1.355 . S
C3051 C3053 1.415 . S
C3052 C3051 1.355 . S
C3052 C3054 1.419 . S
C3053 C3048 1.425 . S
C3053 C3050 1.409 . S
C3053 C3051 1.415 . S
C3054 H3044 0.930 . S
C3054 C3052 1.419 . S
C3054 C3055 1.362 . S
C3055 H3045 0.930 . S
C3055 C3048 1.409 . S
C3055 C3054 1.362 . S
H3056 C3062 0.930 . S
H3057 C3065 0.930 . S
H3058 C3066 0.930 . S
H3059 C3067 0.930 . S
H3060 C3070 0.930 . S
H3061 C3071 0.930 . S
C3062 H3056 0.930 . S
C3062 C3063 1.355 . S
C3062 C3064 1.415 . S
C3063 C3062 1.355 . S
C3063 C3065 1.419 . S
C3064 C3062 1.415 . S
C3064 C3069 1.425 . S
C3064 C3071 1.409 . S
C3065 H3057 0.930 . S
C3065 C3063 1.419 . S
C3065 C3066 1.362 . S
C3066 H3058 0.930 . S
C3066 C3065 1.362 . S
C3066 C3069 1.409 . S
C3067 H3059 0.930 . S
C3067 C3068 1.355 . S
C3067 C3069 1.415 . S
C3068 C3067 1.355 . S
C3068 C3070 1.419 . S
C3069 C3064 1.425 . S
C3069 C3066 1.409 . S
C3069 C3067 1.415 . S
C3070 H3060 0.930 . S
C3070 C3068 1.419 . S
C3070 C3071 1.362 . S
C3071 H3061 0.930 . S
C3071 C3064 1.409 . S
C3071 C3070 1.362 . S
H3072 C3078 0.930 . S
H3073 C3081 0.930 . S
H3074 C3082 0.930 . S
H3075 C3083 0.930 . S
H3076 C3086 0.930 . S
H3077 C3087 0.930 . S
C3078 H3072 0.930 . S
C3078 C3079 1.355 . S
C3078 C3080 1.415 . S
C3079 C3078 1.355 . S
C3079 C3081 1.419 . S
C3080 C3078 1.415 . S
C3080 C3085 1.425 . S
C3080 C3087 1.409 . S
C3081 H3073 0.930 . S
C3081 C3079 1.419 . S
C3081 C3082 1.362 . S
C3082 H3074 0.930 . S
C3082 C3081 1.362 . S
C3082 C3085 1.409 . S
C3083 H3075 0.930 . S
C3083 C3084 1.355 . S
C3083 C3085 1.415 . S
C3084 C3083 1.355 . S
C3084 C3086 1.419 . S
C3085 C3080 1.425 . S
C3085 C3082 1.409 . S
C3085 C3083 1.415 . S
C3086 H3076 0.930 . S
C3086 C3084 1.419 . S
C3086 C3087 1.362 . S
C3087 H3077 0.930 . S
C3087 C3080 1.409 . S
C3087 C3086 1.362 . S
H3088 C3094 0.930 . S
H3089 C3097 0.930 . S
H3090 C3098 0.930 . S
H3091 C3099 0.930 . S
H3092 C3102 0.930 . S
H3093 C3103 0.930 . S
C3094 H3088 0.930 . S
C3094 C3095 1.355 . S
C3094 C3096 1.415 . S
C3095 C3094 1.355 . S
C3095 C3097 1.419 . S
C3096 C3094 1.415 . S
C3096 C3101 1.425 . S
C3096 C3103 1.409 . S
C3097 H3089 0.930 . S
C3097 C3095 1.419 . S
C3097 C3098 1.362 . S
C3098 H3090 0.930 . S
C3098 C3097 1.362 . S
C3098 C3101 1.409 . S
C3099 H3091 0.930 . S
C3099 C3100 1.355 . S
C3099 C3101 1.415 . S
C3100 C3099 1.355 . S
C3100 C3102 1.419 . S
C3101 C3096 1.425 . S
C3101 C3098 1.409 . S
C3101 C3099 1.415 . S
C3102 H3092 0.930 . S
C3102 C3100 1.419 . S
C3102 C3103 1.362 . S
C3103 H3093 0.930 . S
C3103 C3096 1.409 . S
C3103 C3102 1.362 . S
H3104 C3110 0.930 . S
H3105 C3113 0.930 . S
H3106 C3114 0.930 . S
H3107 C3115 0.930 . S
H3108 C3118 0.930 . S
H3109 C3119 0.930 . S
C3110 H3104 0.930 . S
C3110 C3111 1.355 . S
C3110 C3112 1.415 . S
C3111 C3110 1.355 . S
C3111 C3113 1.419 . S
C3112 C3110 1.415 . S
C3112 C3117 1.425 . S
C3112 C3119 1.409 . S
C3113 H3105 0.930 . S
C3113 C3111 1.419 . S
C3113 C3114 1.362 . S
C3114 H3106 0.930 . S
C3114 C3113 1.362 . S
C3114 C3117 1.409 . S
C3115 H3107 0.930 . S
C3115 C3116 1.355 . S
C3115 C3117 1.415 . S
C3116 C3115 1.355 . S
C3116 C3118 1.419 . S
C3117 C3112 1.425 . S
C3117 C3114 1.409 . S
C3117 C3115 1.415 . S
C3118 H3108 0.930 . S
C3118 C3116 1.419 . S
C3118 C3119 1.362 . S
C3119 H3109 0.930 . S
C3119 C3112 1.409 . S
C3119 C3118 1.362 . S
H3120 C3126 0.930 . S
H3121 C3129 0.930 . S
H3122 C3130 0.930 1_545 S
H3123 C3131 0.930 . S
H3124 C3134 0.930 . S
H3125 C3135 0.930 . S
C3126 H3120 0.930 . S
C3126 C3127 1.355 . S
C3126 C3128 1.415 . S
C3127 C3126 1.355 . S
C3127 C3129 1.419 . S
C3128 C3126 1.415 . S
C3128 C3133 1.425 . S
C3128 C3135 1.409 . S
C3129 H3121 0.930 . S
C3129 C3127 1.419 . S
C3129 C3130 1.362 . S
C3130 H3122 0.930 1_565 S
C3130 C3129 1.362 . S
C3130 C3133 1.409 . S
C3131 H3123 0.930 . S
C3131 C3132 1.355 . S
C3131 C3133 1.415 . S
C3132 C3131 1.355 . S
C3132 C3134 1.419 . S
C3133 C3128 1.425 . S
C3133 C3130 1.409 . S
C3133 C3131 1.415 . S
C3134 H3124 0.930 . S
C3134 C3132 1.419 . S
C3134 C3135 1.362 . S
C3135 H3125 0.930 . S
C3135 C3128 1.409 . S
C3135 C3134 1.362 . S
H3136 C3142 0.930 . S
H3137 C3145 0.930 . S
H3138 C3146 0.930 . S
H3139 C3147 0.930 . S
H3140 C3150 0.930 . S
H3141 C3151 0.930 . S
C3142 H3136 0.930 . S
C3142 C3143 1.355 . S
C3142 C3144 1.415 . S
C3143 C3142 1.355 . S
C3143 C3145 1.419 . S
C3144 C3142 1.415 . S
C3144 C3149 1.425 . S
C3144 C3151 1.409 . S
C3145 H3137 0.930 . S
C3145 C3143 1.419 . S
C3145 C3146 1.362 . S
C3146 H3138 0.930 . S
C3146 C3145 1.362 . S
C3146 C3149 1.409 . S
C3147 H3139 0.930 . S
C3147 C3148 1.355 . S
C3147 C3149 1.415 . S
C3148 C3147 1.355 . S
C3148 C3150 1.419 . S
C3149 C3144 1.425 . S
C3149 C3146 1.409 . S
C3149 C3147 1.415 . S
C3150 H3140 0.930 . S
C3150 C3148 1.419 . S
C3150 C3151 1.362 . S
C3151 H3141 0.930 . S
C3151 C3144 1.409 . S
C3151 C3150 1.362 . S
H3152 C3158 0.930 . S
H3153 C3161 0.930 . S
H3154 C3162 0.930 . S
H3155 C3163 0.930 . S
H3156 C3166 0.930 . S
H3157 C3167 0.930 . S
C3158 H3152 0.930 . S
C3158 C3159 1.355 . S
C3158 C3160 1.415 . S
C3159 C3158 1.355 . S
C3159 C3161 1.419 . S
C3160 C3158 1.415 . S
C3160 C3165 1.425 . S
C3160 C3167 1.409 . S
C3161 H3153 0.930 . S
C3161 C3159 1.419 . S
C3161 C3162 1.362 . S
C3162 H3154 0.930 . S
C3162 C3161 1.362 . S
C3162 C3165 1.409 . S
C3163 H3155 0.930 . S
C3163 C3164 1.355 . S
C3163 C3165 1.415 . S
C3164 C3163 1.355 . S
C3164 C3166 1.419 . S
C3165 C3160 1.425 . S
C3165 C3162 1.409 . S
C3165 C3163 1.415 . S
C3166 H3156 0.930 . S
C3166 C3164 1.419 . S
C3166 C3167 1.362 . S
C3167 H3157 0.930 . S
C3167 C3160 1.409 . S
C3167 C3166 1.362 . S
H3168 C3174 0.930 . S
H3169 C3177 0.930 . S
H3170 C3178 0.930 . S
H3171 C3179 0.930 . S
H3172 C3182 0.930 . S
H3173 C3183 0.930 . S
C3174 H3168 0.930 . S
C3174 C3175 1.355 . S
C3174 C3176 1.415 . S
C3175 C3174 1.355 . S
C3175 C3177 1.419 . S
C3176 C3174 1.415 . S
C3176 C3181 1.425 . S
C3176 C3183 1.409 . S
C3177 H3169 0.930 . S
C3177 C3175 1.419 . S
C3177 C3178 1.362 . S
C3178 H3170 0.930 . S
C3178 C3177 1.362 . S
C3178 C3181 1.409 . S
C3179 H3171 0.930 . S
C3179 C3180 1.355 . S
C3179 C3181 1.415 . S
C3180 C3179 1.355 . S
C3180 C3182 1.419 . S
C3181 C3176 1.425 . S
C3181 C3178 1.409 . S
C3181 C3179 1.415 . S
C3182 H3172 0.930 . S
C3182 C3180 1.419 . S
C3182 C3183 1.362 . S
C3183 H3173 0.930 . S
C3183 C3176 1.409 . S
C3183 C3182 1.362 . S
H3184 C3190 0.930 . S
H3185 C3193 0.930 . S
H3186 C3194 0.930 . S
H3187 C3195 0.930 . S
H3188 C3198 0.930 . S
H3189 C3199 0.930 . S
C3190 H3184 0.930 . S
C3190 C3191 1.355 . S
C3190 C3192 1.415 . S
C3191 C3190 1.355 . S
C3191 C3193 1.419 . S
C3192 C3190 1.415 . S
C3192 C3197 1.425 . S
C3192 C3199 1.409 . S
C3193 H3185 0.930 . S
C3193 C3191 1.419 . S
C3193 C3194 1.362 . S
C3194 H3186 0.930 . S
C3194 C3193 1.362 . S
C3194 C3197 1.409 . S
C3195 H3187 0.930 . S
C3195 C3196 1.355 . S
C3195 C3197 1.415 . S
C3196 C3195 1.355 . S
C3196 C3198 1.419 . S
C3197 C3192 1.425 . S
C3197 C3194 1.409 . S
C3197 C3195 1.415 . S
C3198 H3188 0.930 . S
C3198 C3196 1.419 . S
C3198 C3199 1.362 . S
C3199 H3189 0.930 . S
C3199 C3192 1.409 . S
C3199 C3198 1.362 . S
H3200 C3206 0.930 . S
H3201 C3209 0.930 . S
H3202 C3210 0.930 . S
H3203 C3211 0.930 . S
H3204 C3214 0.930 . S
H3205 C3215 0.930 . S
C3206 H3200 0.930 . S
C3206 C3207 1.355 . S
C3206 C3208 1.415 . S
C3207 C3206 1.355 . S
C3207 C3209 1.419 . S
C3208 C3206 1.415 . S
C3208 C3213 1.425 . S
C3208 C3215 1.409 . S
C3209 H3201 0.930 . S
C3209 C3207 1.419 . S
C3209 C3210 1.362 . S
C3210 H3202 0.930 . S
C3210 C3209 1.362 . S
C3210 C3213 1.409 . S
C3211 H3203 0.930 . S
C3211 C3212 1.355 . S
C3211 C3213 1.415 . S
C3212 C3211 1.355 . S
C3212 C3214 1.419 . S
C3213 C3208 1.425 . S
C3213 C3210 1.409 . S
C3213 C3211 1.415 . S
C3214 H3204 0.930 . S
C3214 C3212 1.419 . S
C3214 C3215 1.362 . S
C3215 H3205 0.930 . S
C3215 C3208 1.409 . S
C3215 C3214 1.362 . S
H3216 C3222 0.930 . S
H3217 C3225 0.930 . S
H3218 C3226 0.930 . S
H3219 C3227 0.930 . S
H3220 C3230 0.930 . S
H3221 C3231 0.930 . S
C3222 H3216 0.930 . S
C3222 C3223 1.355 . S
C3222 C3224 1.415 . S
C3223 C3222 1.355 . S
C3223 C3225 1.419 . S
C3224 C3222 1.415 . S
C3224 C3229 1.425 . S
C3224 C3231 1.409 . S
C3225 H3217 0.930 . S
C3225 C3223 1.419 . S
C3225 C3226 1.362 . S
C3226 H3218 0.930 . S
C3226 C3225 1.362 . S
C3226 C3229 1.409 . S
C3227 H3219 0.930 . S
C3227 C3228 1.355 . S
C3227 C3229 1.415 . S
C3228 C3227 1.355 . S
C3228 C3230 1.419 . S
C3229 C3224 1.425 . S
C3229 C3226 1.409 . S
C3229 C3227 1.415 . S
C3230 H3220 0.930 . S
C3230 C3228 1.419 . S
C3230 C3231 1.362 . S
C3231 H3221 0.930 . S
C3231 C3224 1.409 . S
C3231 C3230 1.362 . S
H3232 C3238 0.930 . S
H3233 C3241 0.930 . S
H3234 C3242 0.930 . S
H3235 C3243 0.930 . S
H3236 C3246 0.930 . S
H3237 C3247 0.930 . S
C3238 H3232 0.930 . S
C3238 C3239 1.355 . S
C3238 C3240 1.415 . S
C3239 C3238 1.355 . S
C3239 C3241 1.419 . S
C3240 C3238 1.415 . S
C3240 C3245 1.425 . S
C3240 C3247 1.409 . S
C3241 H3233 0.930 . S
C3241 C3239 1.419 . S
C3241 C3242 1.362 . S
C3242 H3234 0.930 . S
C3242 C3241 1.362 . S
C3242 C3245 1.409 . S
C3243 H3235 0.930 . S
C3243 C3244 1.355 . S
C3243 C3245 1.415 . S
C3244 C3243 1.355 . S
C3244 C3246 1.419 . S
C3245 C3240 1.425 . S
C3245 C3242 1.409 . S
C3245 C3243 1.415 . S
C3246 H3236 0.930 . S
C3246 C3244 1.419 . S
C3246 C3247 1.362 . S
C3247 H3237 0.930 . S
C3247 C3240 1.409 . S
C3247 C3246 1.362 . S
H3248 C3254 0.930 . S
H3249 C3257 0.930 . S
H3250 C3258 0.930 . S
H3251 C3259 0.930 . S
H3252 C3262 0.930 . S
H3253 C3263 0.930 . S
C3254 H3248 0.930 . S
C3254 C3255 1.355 . S
C3254 C3256 1.415 . S
C3255 C3254 1.355 . S
C3255 C3257 1.419 . S
C3256 C3254 1.415 . S
C3256 C3261 1.425 . S
C3256 C3263 1.409 . S
C3257 H3249 0.930 . S
C3257 C3255 1.419 . S
C3257 C3258 1.362 . S
C3258 H3250 0.930 . S
C3258 C3257 1.362 . S
C3258 C3261 1.409 . S
C3259 H3251 0.930 . S
C3259 C3260 1.355 . S
C3259 C3261 1.415 . S
C3260 C3259 1.355 . S
C3260 C3262 1.419 . S
C3261 C3256 1.425 . S
C3261 C3258 1.409 . S
C3261 C3259 1.415 . S
C3262 H3252 0.930 . S
C3262 C3260 1.419 . S
C3262 C3263 1.362 . S
C3263 H3253 0.930 . S
C3263 C3256 1.409 . S
C3263 C3262 1.362 . S
H3264 C3270 0.930 . S
H3265 C3273 0.930 . S
H3266 C3274 0.930 . S
H3267 C3275 0.930 . S
H3268 C3278 0.930 . S
H3269 C3279 0.930 . S
C3270 H3264 0.930 . S
C3270 C3271 1.355 . S
C3270 C3272 1.415 . S
C3271 C3270 1.355 . S
C3271 C3273 1.419 . S
C3272 C3270 1.415 . S
C3272 C3277 1.425 . S
C3272 C3279 1.409 . S
C3273 H3265 0.930 . S
C3273 C3271 1.419 . S
C3273 C3274 1.362 . S
C3274 H3266 0.930 . S
C3274 C3273 1.362 . S
C3274 C3277 1.409 . S
C3275 H3267 0.930 . S
C3275 C3276 1.355 . S
C3275 C3277 1.415 . S
C3276 C3275 1.355 . S
C3276 C3278 1.419 . S
C3277 C3272 1.425 . S
C3277 C3274 1.409 . S
C3277 C3275 1.415 . S
C3278 H3268 0.930 . S
C3278 C3276 1.419 . S
C3278 C3279 1.362 . S
C3279 H3269 0.930 . S
C3279 C3272 1.409 . S
C3279 C3278 1.362 . S
H3280 C3286 0.930 . S
H3281 C3289 0.930 . S
H3282 C3290 0.930 . S
H3283 C3291 0.930 . S
H3284 C3294 0.930 . S
H3285 C3295 0.930 . S
C3286 H3280 0.930 . S
C3286 C3287 1.355 . S
C3286 C3288 1.415 . S
C3287 C3286 1.355 . S
C3287 C3289 1.419 . S
C3288 C3286 1.415 . S
C3288 C3293 1.425 . S
C3288 C3295 1.409 . S
C3289 H3281 0.930 . S
C3289 C3287 1.419 . S
C3289 C3290 1.362 . S
C3290 H3282 0.930 . S
C3290 C3289 1.362 . S
C3290 C3293 1.409 . S
C3291 H3283 0.930 . S
C3291 C3292 1.355 . S
C3291 C3293 1.415 . S
C3292 C3291 1.355 . S
C3292 C3294 1.419 . S
C3293 C3288 1.425 . S
C3293 C3290 1.409 . S
C3293 C3291 1.415 . S
C3294 H3284 0.930 . S
C3294 C3292 1.419 . S
C3294 C3295 1.362 . S
C3295 H3285 0.930 . S
C3295 C3288 1.409 . S
C3295 C3294 1.362 . S
H3296 C3302 0.930 . S
H3297 C3305 0.930 . S
H3298 C3306 0.930 . S
H3299 C3307 0.930 . S
H3300 C3310 0.930 . S
H3301 C3311 0.930 . S
C3302 H3296 0.930 . S
C3302 C3303 1.355 . S
C3302 C3304 1.415 . S
C3303 C3302 1.355 . S
C3303 C3305 1.419 . S
C3304 C3302 1.415 . S
C3304 C3309 1.425 . S
C3304 C3311 1.409 . S
C3305 H3297 0.930 . S
C3305 C3303 1.419 . S
C3305 C3306 1.362 . S
C3306 H3298 0.930 . S
C3306 C3305 1.362 . S
C3306 C3309 1.409 . S
C3307 H3299 0.930 . S
C3307 C3308 1.355 . S
C3307 C3309 1.415 . S
C3308 C3307 1.355 . S
C3308 C3310 1.419 . S
C3309 C3304 1.425 . S
C3309 C3306 1.409 . S
C3309 C3307 1.415 . S
C3310 H3300 0.930 . S
C3310 C3308 1.419 . S
C3310 C3311 1.362 . S
C3311 H3301 0.930 . S
C3311 C3304 1.409 . S
C3311 C3310 1.362 . S
H3312 C3318 0.930 . S
H3313 C3321 0.930 . S
H3314 C3322 0.930 . S
H3315 C3323 0.930 . S
H3316 C3326 0.930 . S
H3317 C3327 0.930 . S
C3318 H3312 0.930 . S
C3318 C3319 1.355 . S
C3318 C3320 1.415 . S
C3319 C3318 1.355 . S
C3319 C3321 1.419 . S
C3320 C3318 1.415 . S
C3320 C3325 1.425 . S
C3320 C3327 1.409 . S
C3321 H3313 0.930 . S
C3321 C3319 1.419 . S
C3321 C3322 1.362 . S
C3322 H3314 0.930 . S
C3322 C3321 1.362 . S
C3322 C3325 1.409 . S
C3323 H3315 0.930 . S
C3323 C3324 1.355 . S
C3323 C3325 1.415 . S
C3324 C3323 1.355 . S
C3324 C3326 1.419 . S
C3325 C3320 1.425 . S
C3325 C3322 1.409 . S
C3325 C3323 1.415 . S
C3326 H3316 0.930 . S
C3326 C3324 1.419 . S
C3326 C3327 1.362 . S
C3327 H3317 0.930 . S
C3327 C3320 1.409 . S
C3327 C3326 1.362 . S
H3328 C3334 0.930 . S
H3329 C3337 0.930 1_554 S
H3330 C3338 0.877 1_554 S
H3331 C3339 0.930 . S
H3332 C3342 0.930 . S
H3333 C3343 0.930 . S
C3334 H3328 0.930 . S
C3334 C3335 1.355 . S
C3334 C3336 1.415 . S
C3335 C3334 1.355 . S
C3335 C3337 1.419 . S
C3336 C3334 1.415 . S
C3336 C3341 1.425 . S
C3336 C3343 1.409 . S
C3337 H3329 0.930 1_556 S
C3337 C3335 1.419 . S
C3337 C3338 1.372 . S
C3338 H3330 0.877 1_556 S
C3338 C3337 1.372 . S
C3338 C3341 1.454 . S
C3339 H3331 0.930 . S
C3339 C3340 1.355 . S
C3339 C3341 1.415 . S
C3340 C3339 1.355 . S
C3340 C3342 1.419 . S
C3341 C3336 1.425 . S
C3341 C3338 1.454 . S
C3341 C3339 1.415 . S
C3342 H3332 0.930 . S
C3342 C3340 1.419 . S
C3342 C3343 1.362 . S
C3343 H3333 0.930 . S
C3343 C3336 1.409 . S
C3343 C3342 1.362 . S
H3344 C3350 0.930 . S
H3345 C3353 0.930 . S
H3346 C3354 0.930 . S
H3347 C3355 0.930 . S
H3348 C3358 0.930 . S
H3349 C3359 0.930 . S
C3350 H3344 0.930 . S
C3350 C3351 1.355 . S
C3350 C3352 1.415 . S
C3351 C3350 1.355 . S
C3351 C3353 1.419 . S
C3352 C3350 1.415 . S
C3352 C3357 1.425 . S
C3352 C3359 1.409 . S
C3353 H3345 0.930 . S
C3353 C3351 1.419 . S
C3353 C3354 1.362 . S
C3354 H3346 0.930 . S
C3354 C3353 1.362 . S
C3354 C3357 1.409 . S
C3355 H3347 0.930 . S
C3355 C3356 1.355 . S
C3355 C3357 1.415 . S
C3356 C3355 1.355 . S
C3356 C3358 1.419 . S
C3357 C3352 1.425 . S
C3357 C3354 1.409 . S
C3357 C3355 1.415 . S
C3358 H3348 0.930 . S
C3358 C3356 1.419 . S
C3358 C3359 1.362 . S
C3359 H3349 0.930 . S
C3359 C3352 1.409 . S
C3359 C3358 1.362 . S
H3360 C3366 0.930 . S
H3361 C3369 0.930 . S
H3362 C3370 0.930 . S
H3363 C3371 0.930 . S
H3364 C3374 0.930 . S
H3365 C3375 0.930 . S
C3366 H3360 0.930 . S
C3366 C3367 1.355 . S
C3366 C3368 1.415 . S
C3367 C3366 1.355 . S
C3367 C3369 1.419 . S
C3368 C3366 1.415 . S
C3368 C3373 1.425 . S
C3368 C3375 1.409 . S
C3369 H3361 0.930 . S
C3369 C3367 1.419 . S
C3369 C3370 1.362 . S
C3370 H3362 0.930 . S
C3370 C3369 1.362 . S
C3370 C3373 1.409 . S
C3371 H3363 0.930 . S
C3371 C3372 1.355 . S
C3371 C3373 1.415 . S
C3372 C3371 1.355 . S
C3372 C3374 1.419 . S
C3373 C3368 1.425 . S
C3373 C3370 1.409 . S
C3373 C3371 1.415 . S
C3374 H3364 0.930 . S
C3374 C3372 1.419 . S
C3374 C3375 1.362 . S
C3375 H3365 0.930 . S
C3375 C3368 1.409 . S
C3375 C3374 1.362 . S
H3376 C3382 0.930 . S
H3377 C3385 0.930 . S
H3378 C3386 0.930 . S
H3379 C3387 0.930 . S
H3380 C3390 0.930 . S
H3381 C3391 0.930 . S
C3382 H3376 0.930 . S
C3382 C3383 1.355 . S
C3382 C3384 1.415 . S
C3383 C3382 1.355 . S
C3383 C3385 1.419 . S
C3384 C3382 1.415 . S
C3384 C3389 1.425 . S
C3384 C3391 1.409 . S
C3385 H3377 0.930 . S
C3385 C3383 1.419 . S
C3385 C3386 1.362 . S
C3386 H3378 0.930 . S
C3386 C3385 1.362 . S
C3386 C3389 1.409 . S
C3387 H3379 0.930 . S
C3387 C3388 1.355 . S
C3387 C3389 1.415 . S
C3388 C3387 1.355 . S
C3388 C3390 1.419 . S
C3389 C3384 1.425 . S
C3389 C3386 1.409 . S
C3389 C3387 1.415 . S
C3390 H3380 0.930 . S
C3390 C3388 1.419 . S
C3390 C3391 1.362 . S
C3391 H3381 0.930 . S
C3391 C3384 1.409 . S
C3391 C3390 1.362 . S
H3392 C3398 0.930 . S
H3393 C3401 0.930 . S
H3394 C3402 0.930 . S
H3395 C3403 0.930 . S
H3396 C3406 0.930 . S
H3397 C3407 0.930 . S
C3398 H3392 0.930 . S
C3398 C3399 1.355 . S
C3398 C3400 1.415 . S
C3399 C3398 1.355 . S
C3399 C3401 1.419 . S
C3400 C3398 1.415 . S
C3400 C3405 1.425 . S
C3400 C3407 1.409 . S
C3401 H3393 0.930 . S
C3401 C3399 1.419 . S
C3401 C3402 1.362 . S
C3402 H3394 0.930 . S
C3402 C3401 1.362 . S
C3402 C3405 1.409 . S
C3403 H3395 0.930 . S
C3403 C3404 1.355 . S
C3403 C3405 1.415 . S
C3404 C3403 1.355 . S
C3404 C3406 1.419 . S
C3405 C3400 1.425 . S
C3405 C3402 1.409 . S
C3405 C3403 1.415 . S
C3406 H3396 0.930 . S
C3406 C3404 1.419 . S
C3406 C3407 1.362 . S
C3407 H3397 0.930 . S
C3407 C3400 1.409 . S
C3407 C3406 1.362 . S
H3408 C3414 0.930 . S
H3409 C3417 0.930 . S
H3410 C3418 0.930 . S
H3411 C3419 0.930 . S
H3412 C3422 0.930 . S
H3413 C3423 0.930 . S
C3414 H3408 0.930 . S
C3414 C3415 1.355 . S
C3414 C3416 1.415 . S
C3415 C3414 1.355 . S
C3415 C3417 1.419 . S
C3416 C3414 1.415 . S
C3416 C3421 1.425 . S
C3416 C3423 1.409 . S
C3417 H3409 0.930 . S
C3417 C3415 1.419 . S
C3417 C3418 1.362 . S
C3418 H3410 0.930 . S
C3418 C3417 1.362 . S
C3418 C3421 1.409 . S
C3419 H3411 0.930 . S
C3419 C3420 1.355 . S
C3419 C3421 1.415 . S
C3420 C3419 1.355 . S
C3420 C3422 1.419 . S
C3421 C3416 1.425 . S
C3421 C3418 1.409 . S
C3421 C3419 1.415 . S
C3422 H3412 0.930 . S
C3422 C3420 1.419 . S
C3422 C3423 1.362 . S
C3423 H3413 0.930 . S
C3423 C3416 1.409 . S
C3423 C3422 1.362 . S
H3424 C3430 0.930 . S
H3425 C3433 0.930 . S
H3426 C3434 0.930 . S
H3427 C3435 0.930 . S
H3428 C3438 0.930 . S
H3429 C3439 0.930 . S
C3430 H3424 0.930 . S
C3430 C3431 1.355 . S
C3430 C3432 1.415 . S
C3431 C3430 1.355 . S
C3431 C3433 1.419 . S
C3432 C3430 1.415 . S
C3432 C3437 1.425 . S
C3432 C3439 1.409 . S
C3433 H3425 0.930 . S
C3433 C3431 1.419 . S
C3433 C3434 1.362 . S
C3434 H3426 0.930 . S
C3434 C3433 1.362 . S
C3434 C3437 1.409 . S
C3435 H3427 0.930 . S
C3435 C3436 1.355 . S
C3435 C3437 1.415 . S
C3436 C3435 1.355 . S
C3436 C3438 1.419 . S
C3437 C3432 1.425 . S
C3437 C3434 1.409 . S
C3437 C3435 1.415 . S
C3438 H3428 0.930 . S
C3438 C3436 1.419 . S
C3438 C3439 1.362 . S
C3439 H3429 0.930 . S
C3439 C3432 1.409 . S
C3439 C3438 1.362 . S
H3440 C3446 0.930 . S
H3441 C3449 0.930 . S
H3442 C3450 0.930 . S
H3443 C3451 0.930 . S
H3444 C3454 0.930 . S
H3445 C3455 0.930 . S
C3446 H3440 0.930 . S
C3446 C3447 1.355 . S
C3446 C3448 1.415 . S
C3447 C3446 1.355 . S
C3447 C3449 1.419 . S
C3448 C3446 1.415 . S
C3448 C3453 1.425 . S
C3448 C3455 1.409 . S
C3449 H3441 0.930 . S
C3449 C3447 1.419 . S
C3449 C3450 1.362 . S
C3450 H3442 0.930 . S
C3450 C3449 1.362 . S
C3450 C3453 1.409 . S
C3451 H3443 0.930 . S
C3451 C3452 1.355 . S
C3451 C3453 1.415 . S
C3452 C3451 1.355 . S
C3452 C3454 1.419 . S
C3453 C3448 1.425 . S
C3453 C3450 1.409 . S
C3453 C3451 1.415 . S
C3454 H3444 0.930 . S
C3454 C3452 1.419 . S
C3454 C3455 1.362 . S
C3455 H3445 0.930 . S
C3455 C3448 1.409 . S
C3455 C3454 1.362 . S
H3456 C3462 0.930 . S
H3457 C3465 0.930 . S
H3458 C3466 0.930 . S
H3459 C3467 0.930 . S
H3460 C3470 0.930 . S
H3461 C3471 0.930 . S
C3462 H3456 0.930 . S
C3462 C3463 1.355 . S
C3462 C3464 1.415 . S
C3463 C3462 1.355 . S
C3463 C3465 1.419 . S
C3464 C3462 1.415 . S
C3464 C3469 1.425 . S
C3464 C3471 1.409 . S
C3465 H3457 0.930 . S
C3465 C3463 1.419 . S
C3465 C3466 1.362 . S
C3466 H3458 0.930 . S
C3466 C3465 1.362 . S
C3466 C3469 1.409 . S
C3467 H3459 0.930 . S
C3467 C3468 1.355 . S
C3467 C3469 1.415 . S
C3468 C3467 1.355 . S
C3468 C3470 1.419 . S
C3469 C3464 1.425 . S
C3469 C3466 1.409 . S
C3469 C3467 1.415 . S
C3470 H3460 0.930 . S
C3470 C3468 1.419 . S
C3470 C3471 1.362 . S
C3471 H3461 0.930 . S
C3471 C3464 1.409 . S
C3471 C3470 1.362 . S
H3472 C3478 0.930 . S
H3473 C3481 0.930 . S
H3474 C3482 0.930 . S
H3475 C3483 0.930 . S
H3476 C3486 0.930 . S
H3477 C3487 0.930 1_545 S
C3478 H3472 0.930 . S
C3478 C3479 1.355 . S
C3478 C3480 1.415 . S
C3479 C3478 1.355 . S
C3479 C3481 1.419 . S
C3480 C3478 1.415 . S
C3480 C3485 1.425 . S
C3480 C3487 1.409 . S
C3481 H3473 0.930 . S
C3481 C3479 1.419 . S
C3481 C3482 1.362 . S
C3482 H3474 0.930 . S
C3482 C3481 1.362 . S
C3482 C3485 1.409 . S
C3483 H3475 0.930 . S
C3483 C3484 1.355 . S
C3483 C3485 1.415 . S
C3484 C3483 1.355 . S
C3484 C3486 1.419 . S
C3485 C3480 1.425 . S
C3485 C3482 1.409 . S
C3485 C3483 1.415 . S
C3486 H3476 0.930 . S
C3486 C3484 1.419 . S
C3486 C3487 1.362 . S
C3487 H3477 0.930 1_565 S
C3487 C3480 1.409 . S
C3487 C3486 1.362 . S
H3488 C3494 0.930 . S
H3489 C3497 0.930 . S
H3490 C3498 0.930 . S
H3491 C3499 0.930 . S
H3492 C3502 0.930 . S
H3493 C3503 0.930 . S
C3494 H3488 0.930 . S
C3494 C3495 1.355 . S
C3494 C3496 1.415 . S
C3495 C3494 1.355 . S
C3495 C3497 1.419 . S
C3496 C3494 1.415 . S
C3496 C3501 1.425 . S
C3496 C3503 1.409 . S
C3497 H3489 0.930 . S
C3497 C3495 1.419 . S
C3497 C3498 1.362 . S
C3498 H3490 0.930 . S
C3498 C3497 1.362 . S
C3498 C3501 1.409 . S
C3499 H3491 0.930 . S
C3499 C3500 1.355 . S
C3499 C3501 1.415 . S
C3500 C3499 1.355 . S
C3500 C3502 1.419 . S
C3501 C3496 1.425 . S
C3501 C3498 1.409 . S
C3501 C3499 1.415 . S
C3502 H3492 0.930 . S
C3502 C3500 1.419 . S
C3502 C3503 1.362 . S
C3503 H3493 0.930 . S
C3503 C3496 1.409 . S
C3503 C3502 1.362 . S
C1591 C974 1.078 . S
C1596 C17 1.150 . S
C1607 C50 1.082 . S
C1612 C1007 1.163 . S
C1623 C83 1.078 . S
C1628 C1040 1.157 . S
C1639 C941 1.066 . S
C1644 C116 1.168 . S
C1655 C908 1.144 . S
C1660 C149 1.096 . S
C1671 C809 1.084 . S
C1676 C182 1.143 . S
C1687 C215 1.165 . S
C1692 C842 1.068 . S
C1703 C875 1.161 . S
C1708 C248 1.095 . S
C1719 C281 1.119 . S
C1724 C1568 1.108 . S
C1735 C710 1.116 . S
C1740 C314 1.125 . S
C1751 C347 1.125 . S
C1756 C1535 1.113 . S
C1767 C545 1.138 . S
C1772 C380 1.100 . S
C1783 C413 1.072 . S
C1788 C677 1.156 . S
C1799 C446 1.071 . S
C1804 C1370 1.156 . S
C1815 C479 1.080 . S
C1820 C1403 1.157 . S
C1831 C1436 1.164 . S
C1836 C512 1.088 . S
C1847 C578 1.168 . S
C1852 C1238 1.077 . S
C1863 C1271 1.141 . S
C1868 C611 1.088 . S
C1879 C644 1.131 . S
C1884 C1304 1.096 . S
C1895 C743 1.065 . S
C1900 C1139 1.167 . S
C1911 C1073 1.078 . S
C1916 C776 1.149 . S
C1927 C1106 1.063 . S
C1932 C1502 1.169 . S
C1943 C1172 1.121 . S
C1948 C1337 1.105 . S
C1959 C1469 1.146 . S
C1964 C1205 1.091 . S
C1975 C734 1.530 . S
C1980 C8 1.558 . S
C1991 C1328 1.525 . S
C1996 C41 1.528 . S
C2007 C767 1.522 . S
C2012 C74 1.535 . S
C2023 C1493 1.533 . S
C2028 C107 1.523 . S
C2039 C602 1.534 . S
C2044 C140 1.564 . S
C2055 C173 1.570 . S
C2060 C635 1.540 . S
C2071 C1460 1.577 . S
C2076 C206 1.583 . S
C2087 C569 1.541 . S
C2092 C239 1.523 . S
C2103 C437 1.554 . S
C2108 C272 1.580 . S
C2119 C305 1.583 . S
C2124 C470 1.561 . S
C2135 C503 1.525 . S
C2140 C338 1.528 . S
C2151 C404 1.584 . S
C2156 C371 1.567 . S
C2167 C536 1.575 . S
C2172 C833 1.545 . S
C2183 C668 1.580 . S
C2188 C998 1.581 . S
C2199 C701 1.542 . S
C2204 C899 1.572 . S
C2215 C800 1.563 . S
C2220 C1526 1.584 . S
C2231 C1559 1.524 . S
C2236 C866 1.547 . S
C2247 C1394 1.585 . S
C2252 C932 1.571 . S
C2263 C965 1.574 . S
C2268 C1427 1.544 . S
C2279 C1031 1.558 . S
C2284 C1361 1.582 . S
C2295 C1229 1.556 . S
C2300 C1064 1.528 . S
C2311 C1262 1.577 . S
C2316 C1097 1.549 . S
C2327 C1130 1.584 . S
C2332 C1295 1.563 . S
C2343 C1163 1.554 . S
C2348 C1196 1.527 . S
C2359 N236 0.716 . S
C2364 N5 0.787 . S
C2375 N137 0.532 . S
C2380 N38 0.706 . S
C2391 N170 0.745 . S
C2396 N71 0.773 . S
C2407 N203 0.788 . S
C2412 N104 0.711 . S
C2423 N269 0.645 . S
C2428 N665 0.526 . S
C2439 N1358 0.540 . S
C2444 N302 0.608 . S
C2455 N1391 0.752 . S
C2460 N335 0.566 . S
C2471 N368 0.792 . S
C2476 N1424 0.690 . S
C2487 N401 0.567 . S
C2492 N1556 0.572 . S
C2503 N434 0.539 . S
C2508 N698 0.610 . S
C2519 N1523 0.642 . S
C2524 N467 0.526 . S
C2535 N500 0.681 . S
C2540 N533 0.525 . S
C2551 N1094 0.741 . S
C2556 N566 0.776 . S
C2567 N599 0.544 . S
C2572 N1127 0.600 . S
C2583 N1160 0.632 . S
C2588 N632 0.529 . S
C2599 N731 0.560 . S
C2604 N1259 0.578 . S
C2615 N1193 0.782 . S
C2620 N764 0.620 . S
C2631 N1028 0.768 . S
C2636 N797 0.589 . S
C2647 N929 0.570 . S
C2652 N830 0.568 . S
C2663 N962 0.622 . S
C2668 N863 0.783 . S
C2679 N896 0.778 . S
C2684 N995 0.610 . S
C2695 N1061 0.536 . S
C2700 N1457 0.617 . S
C2711 N1490 0.765 . S
C2716 N1226 0.584 . S
C2727 N1325 0.530 . S
C2732 N1292 0.631 . S
C2743 N575 1.512 . S
C2748 C28 1.852 . S
C2759 C61 1.857 . S
C2764 N608 1.567 . S
C2775 C94 1.857 . S
C2780 N641 1.569 . S
C2791 C127 1.857 . S
C2796 N1466 1.574 . S
C2807 N1334 1.543 . S
C2812 C160 1.856 . S
C2823 N773 1.463 . S
C2828 C193 1.848 . S
C2839 N1499 1.565 . S
C2844 C226 1.856 . S
C2855 C259 1.856 . S
C2860 N740 1.587 . S
C2871 C292 1.848 . S
C2876 N1004 1.463 . S
C2887 N1037 1.483 . S
C2892 C325 1.849 . S
C2903 N938 1.554 . S
C2908 C358 1.853 . S
C2919 N971 1.529 . S
C2924 C391 1.851 . S
C2935 N872 1.503 . S
C2940 C424 1.853 . S
C2951 C457 1.855 . S
C2956 N905 1.531 . S
C2967 N806 1.582 . S
C2972 C490 1.856 . S
C2983 C523 1.848 . S
C2988 N839 1.463 . S
C2999 C556 1.849 . S
C3004 N344 1.510 . S
C3015 C589 1.853 . S
C3020 N1268 1.517 . S
C3031 C622 1.858 . S
C3036 N1301 1.589 . S
C3047 C655 1.853 . S
C3052 N1202 1.556 . S
C3063 N443 1.464 . S
C3068 C688 1.848 . S
C3079 N278 1.490 . S
C3084 C721 1.850 . S
C3095 C754 1.858 . S
C3100 N1103 1.586 . S
C3111 N1169 1.524 . S
C3116 C787 1.851 . S
C3127 C820 1.849 . S
C3132 N1367 1.514 . S
C3143 N1400 1.531 . S
C3148 C853 1.855 . S
C3159 C886 1.857 . S
C3164 N1433 1.589 . S
C3175 C919 1.854 . S
C3180 N674 1.517 . S
C3191 C952 1.858 . S
C3196 N542 1.587 . S
C3207 C985 1.857 . S
C3212 N1565 1.583 . S
C3223 C1018 1.849 . S
C3228 N707 1.467 . S
C3239 N1532 1.483 . S
C3244 C1051 1.850 . S
C3255 C1084 1.847 . S
C3260 N212 1.465 . S
C3271 C1117 1.853 . S
C3276 N245 1.547 . S
C3287 C1150 1.848 . S
C3292 N146 1.465 . S
C3303 N179 1.470 . S
C3308 C1183 1.849 . S
C3319 C1216 1.848 . S
C3324 N80 1.463 . S
C3335 N113 1.566 . S
C3340 C1249 1.854 . S
C3351 C1282 1.855 . S
C3356 N14 1.527 . S
C3367 C1315 1.848 . S
C3372 N47 1.472 . S
C3383 N1136 1.540 . S
C3388 C1348 1.854 . S
C3399 C1381 1.848 . S
C3404 N476 1.463 . S
C3415 N509 1.583 . S
C3420 C1414 1.856 . S
C3431 C1447 1.853 . S
C3436 N410 1.554 . S
C3447 N1235 1.565 . S
C3452 C1480 1.856 . S
C3463 N1070 1.568 . S
C3468 C1513 1.855 . S
C3479 N311 1.517 . S
C3484 C1546 1.854 . S
C3495 N377 1.577 . S
C3500 C1579 1.857 . S
