# Generated by pormake.
# Topology lll, (7)-cn, num edge types: 1
# Building blocks:
#     Node 0, Type 0, BuildingBlock: NUHQUE_clean_sbu_2, # of connection points: 7
#     Node 1, Type 0, BuildingBlock: NUHQUE_clean_sbu_2, # of connection points: 7
#     Node 2, Type 0, BuildingBlock: NUHQUE_clean_sbu_2, # of connection points: 7
#     Node 3, Type 0, BuildingBlock: NUHQUE_clean_sbu_2, # of connection points: 7
#     Node 4, Type 0, BuildingBlock: NUHQUE_clean_sbu_2, # of connection points: 7
#     Node 5, Type 0, BuildingBlock: NUHQUE_clean_sbu_2, # of connection points: 7
#     Node 6, Type 0, BuildingBlock: NUHQUE_clean_sbu_2, # of connection points: 7
#     Node 7, Type 0, BuildingBlock: NUHQUE_clean_sbu_2, # of connection points: 7
#     Node 8, Type 0, BuildingBlock: NUHQUE_clean_sbu_2, # of connection points: 7
#     Node 9, Type 0, BuildingBlock: NUHQUE_clean_sbu_2, # of connection points: 7
#     Node 10, Type 0, BuildingBlock: NUHQUE_clean_sbu_2, # of connection points: 7
#     Node 11, Type 0, BuildingBlock: NUHQUE_clean_sbu_2, # of connection points: 7
#     Node 12, Type 0, BuildingBlock: NUHQUE_clean_sbu_2, # of connection points: 7
#     Node 13, Type 0, BuildingBlock: NUHQUE_clean_sbu_2, # of connection points: 7
#     Node 14, Type 0, BuildingBlock: NUHQUE_clean_sbu_2, # of connection points: 7
#     Node 15, Type 0, BuildingBlock: NUHQUE_clean_sbu_2, # of connection points: 7
#     Edge 16, Type (0, 0), BuildingBlock: CIFDUS_clean_linker_0, # of connection points: 2
#     Edge 17, Type (0, 0), BuildingBlock: CIFDUS_clean_linker_0, # of connection points: 2
#     Edge 18, Type (0, 0), BuildingBlock: CIFDUS_clean_linker_0, # of connection points: 2
#     Edge 19, Type (0, 0), BuildingBlock: CIFDUS_clean_linker_0, # of connection points: 2
#     Edge 20, Type (0, 0), BuildingBlock: CIFDUS_clean_linker_0, # of connection points: 2
#     Edge 21, Type (0, 0), BuildingBlock: CIFDUS_clean_linker_0, # of connection points: 2
#     Edge 22, Type (0, 0), BuildingBlock: CIFDUS_clean_linker_0, # of connection points: 2
#     Edge 23, Type (0, 0), BuildingBlock: CIFDUS_clean_linker_0, # of connection points: 2
#     Edge 24, Type (0, 0), BuildingBlock: CIFDUS_clean_linker_0, # of connection points: 2
#     Edge 25, Type (0, 0), BuildingBlock: CIFDUS_clean_linker_0, # of connection points: 2
#     Edge 26, Type (0, 0), BuildingBlock: CIFDUS_clean_linker_0, # of connection points: 2
#     Edge 27, Type (0, 0), BuildingBlock: CIFDUS_clean_linker_0, # of connection points: 2
#     Edge 28, Type (0, 0), BuildingBlock: CIFDUS_clean_linker_0, # of connection points: 2
#     Edge 29, Type (0, 0), BuildingBlock: CIFDUS_clean_linker_0, # of connection points: 2
#     Edge 30, Type (0, 0), BuildingBlock: CIFDUS_clean_linker_0, # of connection points: 2
#     Edge 31, Type (0, 0), BuildingBlock: CIFDUS_clean_linker_0, # of connection points: 2
#     Edge 32, Type (0, 0), BuildingBlock: CIFDUS_clean_linker_0, # of connection points: 2
#     Edge 33, Type (0, 0), BuildingBlock: CIFDUS_clean_linker_0, # of connection points: 2
#     Edge 34, Type (0, 0), BuildingBlock: CIFDUS_clean_linker_0, # of connection points: 2
#     Edge 35, Type (0, 0), BuildingBlock: CIFDUS_clean_linker_0, # of connection points: 2
#     Edge 36, Type (0, 0), BuildingBlock: CIFDUS_clean_linker_0, # of connection points: 2
#     Edge 37, Type (0, 0), BuildingBlock: CIFDUS_clean_linker_0, # of connection points: 2
#     Edge 38, Type (0, 0), BuildingBlock: CIFDUS_clean_linker_0, # of connection points: 2
#     Edge 39, Type (0, 0), BuildingBlock: CIFDUS_clean_linker_0, # of connection points: 2
#     Edge 40, Type (0, 0), BuildingBlock: CIFDUS_clean_linker_0, # of connection points: 2
#     Edge 41, Type (0, 0), BuildingBlock: CIFDUS_clean_linker_0, # of connection points: 2
#     Edge 42, Type (0, 0), BuildingBlock: CIFDUS_clean_linker_0, # of connection points: 2
#     Edge 43, Type (0, 0), BuildingBlock: CIFDUS_clean_linker_0, # of connection points: 2
#     Edge 44, Type (0, 0), BuildingBlock: CIFDUS_clean_linker_0, # of connection points: 2
#     Edge 45, Type (0, 0), BuildingBlock: CIFDUS_clean_linker_0, # of connection points: 2
#     Edge 46, Type (0, 0), BuildingBlock: CIFDUS_clean_linker_0, # of connection points: 2
#     Edge 47, Type (0, 0), BuildingBlock: CIFDUS_clean_linker_0, # of connection points: 2
#     Edge 48, Type (0, 0), BuildingBlock: CIFDUS_clean_linker_0, # of connection points: 2
#     Edge 49, Type (0, 0), BuildingBlock: CIFDUS_clean_linker_0, # of connection points: 2
#     Edge 50, Type (0, 0), BuildingBlock: CIFDUS_clean_linker_0, # of connection points: 2
#     Edge 51, Type (0, 0), BuildingBlock: CIFDUS_clean_linker_0, # of connection points: 2
#     Edge 52, Type (0, 0), BuildingBlock: CIFDUS_clean_linker_0, # of connection points: 2
#     Edge 53, Type (0, 0), BuildingBlock: CIFDUS_clean_linker_0, # of connection points: 2
#     Edge 54, Type (0, 0), BuildingBlock: CIFDUS_clean_linker_0, # of connection points: 2
#     Edge 55, Type (0, 0), BuildingBlock: CIFDUS_clean_linker_0, # of connection points: 2
#     Edge 56, Type (0, 0), BuildingBlock: CIFDUS_clean_linker_0, # of connection points: 2
#     Edge 57, Type (0, 0), BuildingBlock: CIFDUS_clean_linker_0, # of connection points: 2
#     Edge 58, Type (0, 0), BuildingBlock: CIFDUS_clean_linker_0, # of connection points: 2
#     Edge 59, Type (0, 0), BuildingBlock: CIFDUS_clean_linker_0, # of connection points: 2
#     Edge 60, Type (0, 0), BuildingBlock: CIFDUS_clean_linker_0, # of connection points: 2
#     Edge 61, Type (0, 0), BuildingBlock: CIFDUS_clean_linker_0, # of connection points: 2
#     Edge 62, Type (0, 0), BuildingBlock: CIFDUS_clean_linker_0, # of connection points: 2
#     Edge 63, Type (0, 0), BuildingBlock: CIFDUS_clean_linker_0, # of connection points: 2
#     Edge 64, Type (0, 0), BuildingBlock: CIFDUS_clean_linker_0, # of connection points: 2
#     Edge 65, Type (0, 0), BuildingBlock: CIFDUS_clean_linker_0, # of connection points: 2
#     Edge 66, Type (0, 0), BuildingBlock: CIFDUS_clean_linker_0, # of connection points: 2
#     Edge 67, Type (0, 0), BuildingBlock: CIFDUS_clean_linker_0, # of connection points: 2
#     Edge 68, Type (0, 0), BuildingBlock: CIFDUS_clean_linker_0, # of connection points: 2
#     Edge 69, Type (0, 0), BuildingBlock: CIFDUS_clean_linker_0, # of connection points: 2
#     Edge 70, Type (0, 0), BuildingBlock: CIFDUS_clean_linker_0, # of connection points: 2
#     Edge 71, Type (0, 0), BuildingBlock: CIFDUS_clean_linker_0, # of connection points: 2
# Relax obj value: 0.490
# Max RMSD: 0.287
# Mean RMSD: 0.287
data_MOF--net-lll--node1-NUHQUE_clean_sbu_2--edge1-CIFDUS_clean_linker_0
_symmetry_space_group_name_H-M    P1
_symmetry_Int_Tables_number       1
_symmetry_cell_setting            triclinic
loop_
_symmetry_equiv_pos_as_xyz
'x, y, z'
_cell_length_a     43.58025
_cell_length_b     43.493972
_cell_length_c     40.391725
_cell_angle_alpha  90.390814
_cell_angle_beta   90.008683
_cell_angle_gamma 90.325306
loop_
_atom_site_label
_atom_site_type_symbol
_atom_site_fract_x
_atom_site_fract_y
_atom_site_fract_z
_atom_type_partial_charge
O0 O 0.74182 0.05775 1.03297 0.0
Tb1 Tb 0.72838 0.09573 0.06475 0.0
Eu2 Eu 0.65892 0.13146 0.09228 0.0
C3 C 0.72716 0.0517 1.00524 0.0
O4 O 0.69923 0.06229 1.00144 0.0
C5 C 0.68071 0.13063 1.01745 0.0
O6 O 0.6621 0.18162 0.08164 0.0
C7 C 0.60769 0.1176 0.12108 0.0
C8 C 0.6876 0.19467 0.07125 0.0
O9 O 0.71234 0.17806 0.06715 0.0
C10 C 0.70953 0.09999 0.13637 0.0
C11 C 0.5941 0.10699 0.15256 0.0
C12 C 0.57025 0.0854 0.15015 0.0
C13 C 0.55537 0.07445 0.17846 0.0
C14 C 0.56476 0.08513 0.20964 0.0
C15 C 0.58852 0.10685 0.21285 0.0
C16 C 0.60324 0.11803 0.18414 0.0
O17 O 0.70959 0.1256 1.02578 0.0
O18 O 0.65789 0.12325 1.0372 0.0
O19 O 0.7782 0.09555 0.07039 0.0
O20 O 0.75227 0.13289 0.09004 0.0
C21 C 0.77932 0.12078 0.08769 0.0
O22 O 0.69647 0.12617 0.12936 0.0
O23 O 0.71261 0.07911 0.11275 0.0
O24 O 0.61851 0.14586 0.11975 0.0
O25 O 0.62394 0.09744 0.10411 0.0
H26 H 0.56281 0.07751 0.12589 0.0
H27 H 0.5535 0.07652 0.2317 0.0
H28 H 0.62148 0.13495 0.18638 0.0
O29 O 0.909 0.20674 0.26349 0.0
Tb30 Tb 0.86001 0.21695 0.26548 0.0
Eu31 Eu 0.8765 0.16231 0.32906 0.0
C32 C 0.92969 0.21629 0.24178 0.0
O33 O 0.95763 0.20538 0.24439 0.0
C34 C 0.83492 0.15119 0.26577 0.0
O35 O 0.83896 0.17016 0.3661 0.0
C36 C 0.91316 0.12409 0.35761 0.0
C37 C 0.81386 0.1855 0.35974 0.0
O38 O 0.80793 0.1944 0.32951 0.0
C39 C 0.86914 0.23455 0.33912 0.0
C40 C 0.9291 0.11603 0.3885 0.0
C41 C 0.95106 0.09272 0.38659 0.0
C42 C 0.96445 0.08068 0.41525 0.0
C43 C 0.95647 0.09335 0.44616 0.0
C44 C 0.93456 0.1169 0.44867 0.0
C45 C 0.92055 0.12802 0.41969 0.0
O46 O 0.82695 0.17981 0.27003 0.0
O47 O 0.85975 0.14104 0.28037 0.0
O48 O 0.8392 0.25523 0.23939 0.0
O49 O 0.84664 0.21379 0.21376 0.0
C50 C 0.8341 0.24071 0.21148 0.0
O51 O 0.88971 0.21232 0.33859 0.0
O52 O 0.85175 0.23951 0.31299 0.0
O53 O 0.88315 0.12125 0.35787 0.0
O54 O 0.92332 0.14753 0.34011 0.0
H55 H 0.95709 0.08327 0.36255 0.0
H56 H 0.96642 0.08408 0.46856 0.0
H57 H 0.90307 0.14559 0.42141 0.0
O58 O 0.81558 0.39562 0.54758 0.0
Tb59 Tb 0.77619 0.36465 0.55032 0.0
Eu60 Eu 0.84264 0.33198 0.57585 0.0
C61 C 0.82649 0.40652 0.51952 0.0
O62 O 0.85231 0.42222 0.51982 0.0
C63 C 0.81428 0.32417 0.50386 0.0
O64 O 0.86155 0.28829 0.55363 0.0
C65 C 0.88651 0.36523 0.60123 0.0
C66 C 0.85755 0.26119 0.5668 0.0
O67 O 0.86626 0.23649 0.55055 0.0
C68 C 0.77862 0.32817 0.61971 0.0
C69 C 0.89758 0.37718 0.63341 0.0
C70 C 0.92505 0.39434 0.63417 0.0
C71 C 0.93782 0.40428 0.66441 0.0
C72 C 0.92247 0.39694 0.69395 0.0
C73 C 0.89489 0.38009 0.69366 0.0
C74 C 0.88238 0.3702 0.66327 0.0
O75 O 0.78633 0.32769 0.51541 0.0
O76 O 0.83755 0.33633 0.52021 0.0
O77 O 0.74042 0.39845 0.56057 0.0
O78 O 0.73591 0.3698 0.51862 0.0
C79 C 0.72246 0.39105 0.53608 0.0
O80 O 0.80752 0.31953 0.61572 0.0
O81 O 0.76379 0.34451 0.59763 0.0
O82 O 0.8882 0.33529 0.59714 0.0
O83 O 0.86125 0.37722 0.58895 0.0
H84 H 0.93689 0.39926 0.61118 0.0
H85 H 0.9316 0.40502 0.71745 0.0
H86 H 0.8612 0.357 0.66287 0.0
O87 O 0.58466 0.28965 0.78718 0.0
Tb88 Tb 0.6141 0.25006 0.79482 0.0
Eu89 Eu 0.62024 0.31122 0.83814 0.0
C90 C 0.56984 0.29646 0.75948 0.0
O91 O 0.55133 0.32019 0.76015 0.0
C92 C 0.66203 0.29581 0.77111 0.0
O93 O 0.65579 0.32076 0.87689 0.0
C94 C 0.57538 0.34867 0.85041 0.0
C95 C 0.65449 0.34372 0.89817 0.0
O96 O 0.63674 0.3674 0.8929 0.0
C97 C 0.62822 0.24345 0.87009 0.0
C98 C 0.5629 0.36337 0.88084 0.0
C99 C 0.54443 0.38963 0.87744 0.0
C100 C 0.53469 0.40635 0.90544 0.0
C101 C 0.54341 0.39624 0.93692 0.0
C102 C 0.56237 0.37073 0.94108 0.0
C103 C 0.57168 0.35375 0.91297 0.0
O104 O 0.65699 0.26618 0.77429 0.0
O105 O 0.64539 0.31614 0.78789 0.0
O106 O 0.57861 0.21435 0.7955 0.0
O107 O 0.60984 0.21629 0.75534 0.0
C108 C 0.58622 0.2016 0.76746 0.0
O109 O 0.61613 0.27092 0.87362 0.0
O110 O 0.63409 0.23249 0.84046 0.0
O111 O 0.6029 0.35791 0.84163 0.0
O112 O 0.57122 0.31883 0.84655 0.0
H113 H 0.5385 0.39757 0.85289 0.0
H114 H 0.53553 0.40848 0.95878 0.0
H115 H 0.58653 0.33407 0.91593 0.0
O116 O 0.72448 0.36391 0.34263 0.0
Tb117 Tb 0.69596 0.35563 0.29928 0.0
Eu118 Eu 0.63967 0.3573 0.24078 0.0
C119 C 0.71657 0.38616 0.36309 0.0
O120 O 0.69245 0.40284 0.35597 0.0
C121 C 0.63188 0.34518 0.3183 0.0
O122 O 0.64573 0.32484 0.19818 0.0
C123 C 0.59407 0.39003 0.22013 0.0
C124 C 0.65237 0.33708 0.16929 0.0
O125 O 0.65543 0.36695 0.16633 0.0
C126 C 0.71407 0.38087 0.23194 0.0
C127 C 0.58178 0.4047 0.18994 0.0
C128 C 0.56149 0.42934 0.19383 0.0
C129 C 0.54769 0.44298 0.16622 0.0
C130 C 0.55548 0.43257 0.13428 0.0
C131 C 0.57542 0.40766 0.12978 0.0
C132 C 0.5877 0.39314 0.15777 0.0
O133 O 0.65202 0.36741 0.31966 0.0
O134 O 0.62745 0.33198 0.2892 0.0
O135 O 0.70952 0.30715 0.29988 0.0
O136 O 0.68243 0.32335 0.26057 0.0
C137 C 0.69611 0.29944 0.27213 0.0
O138 O 0.68715 0.37144 0.22038 0.0
O139 O 0.71935 0.38401 0.26386 0.0
O140 O 0.59413 0.35982 0.21993 0.0
O141 O 0.61836 0.40246 0.23474 0.0
H142 H 0.556 0.4376 0.21852 0.0
H143 H 0.54528 0.44324 0.11277 0.0
H144 H 0.60151 0.37293 0.15434 0.0
O145 O 0.56875 0.20762 0.56204 0.0
Tb146 Tb 0.6039 0.2425 0.55477 0.0
Eu147 Eu 0.61454 0.17535 0.51355 0.0
C148 C 0.54989 0.20549 0.58752 0.0
O149 O 0.52867 0.18392 0.58656 0.0
C150 C 0.65242 0.19616 0.5811 0.0
O151 O 0.65239 0.18421 0.4776 0.0
C152 C 0.58986 0.12348 0.49545 0.0
C153 C 0.67657 0.20109 0.48451 0.0
O154 O 0.68106 0.2117 0.51461 0.0
C155 C 0.60533 0.23956 0.47891 0.0
C156 C 0.57707 0.10972 0.46459 0.0
C157 C 0.55282 0.08822 0.46671 0.0
C158 C 0.54109 0.07391 0.43799 0.0
C159 C 0.55419 0.08089 0.4072 0.0
C160 C 0.57864 0.10177 0.40453 0.0
C161 C 0.58986 0.11651 0.43323 0.0
O162 O 0.64587 0.22528 0.57603 0.0
O163 O 0.63845 0.17371 0.56442 0.0
O164 O 0.57984 0.28619 0.55106 0.0
O165 O 0.60865 0.27888 0.59197 0.0
C166 C 0.59161 0.29915 0.57729 0.0
O167 O 0.59241 0.21237 0.48227 0.0
O168 O 0.61889 0.25232 0.50454 0.0
O169 O 0.61964 0.12862 0.49556 0.0
O170 O 0.57399 0.14556 0.50993 0.0
H171 H 0.54307 0.08269 0.49064 0.0
H172 H 0.54582 0.0693 0.38507 0.0
H173 H 0.60895 0.13247 0.43125 0.0
O174 O 0.77659 0.07374 0.80146 0.0
Tb175 Tb 0.77012 0.11777 0.77753 0.0
Eu176 Eu 0.83866 0.1551 0.75407 0.0
C177 C 0.79296 0.07125 0.82861 0.0
O178 O 0.81465 0.09162 0.83449 0.0
C179 C 0.81031 0.15961 0.82704 0.0
O180 O 0.85459 0.20355 0.7483 0.0
C181 C 0.87838 0.11817 0.72761 0.0
C182 C 0.83458 0.22579 0.75083 0.0
O183 O 0.80796 0.21983 0.76474 0.0
C184 C 0.78311 0.13982 0.70863 0.0
C185 C 0.89208 0.10795 0.69596 0.0
C186 C 0.91582 0.08637 0.69781 0.0
C187 C 0.93201 0.07745 0.6694 0.0
C188 C 0.92391 0.08994 0.63885 0.0
C189 C 0.90029 0.1115 0.63615 0.0
C190 C 0.88404 0.12053 0.66488 0.0
O191 O 0.78261 0.15197 0.81609 0.0
O192 O 0.8352 0.15375 0.80967 0.0
O193 O 0.72343 0.09917 0.78149 0.0
O194 O 0.73089 0.14206 0.7577 0.0
C195 C 0.71068 0.12118 0.76503 0.0
O196 O 0.79896 0.1634 0.71962 0.0
O197 O 0.7844 0.11432 0.72588 0.0
O198 O 0.88511 0.14625 0.73749 0.0
O199 O 0.85005 0.10961 0.73446 0.0
H200 H 0.9224 0.07723 0.72169 0.0
H201 H 0.936 0.08261 0.61671 0.0
H202 H 0.86598 0.13748 0.66323 0.0
O203 O 0.90047 0.31478 0.0557 0.0
Tb204 Tb 0.86697 0.27775 0.05902 0.0
Eu205 Eu 0.8503 0.33399 1.0111 0.0
C206 C 0.92148 0.31956 0.07876 0.0
O207 O 0.94115 0.34225 0.07512 0.0
C208 C 0.82863 0.3311 0.08728 0.0
O209 O 0.79953 0.32849 1.00584 0.0
C210 C 0.86723 0.38038 0.97553 0.0
C211 C 0.7825 0.30664 1.01886 0.0
O212 O 0.79484 0.28369 1.0348 0.0
C213 C 0.85427 0.26518 0.98535 0.0
C214 C 0.88087 0.38746 0.9429 0.0
C215 C 0.90279 0.41116 0.94159 0.0
C216 C 0.91583 0.41993 0.91138 0.0
C217 C 0.9065 0.4051 0.88222 0.0
C218 C 0.88467 0.38139 0.88275 0.0
C219 C 0.87188 0.37226 0.91325 0.0
O220 O 0.83088 0.30096 0.08645 0.0
O221 O 0.84248 0.34821 0.06487 0.0
O222 O 0.89937 0.23992 0.06436 0.0
O223 O 0.86827 0.24972 0.10321 0.0
C224 C 0.89035 0.23169 0.09368 0.0
O225 O 0.86655 0.29255 0.98191 0.0
O226 O 0.84623 0.25614 1.01504 0.0
O227 O 0.8391 0.36939 0.97564 0.0
O228 O 0.88525 0.36788 0.99791 0.0
H229 H 0.90986 0.42268 0.96427 0.0
H230 H 0.91622 0.41215 0.85871 0.0
H231 H 0.85502 0.35387 0.91382 0.0
O232 O 0.19859 0.56883 0.55095 0.0
Tb233 Tb 0.23724 0.60042 0.5517 0.0
Eu234 Eu 0.17853 0.61049 0.59737 0.0
C235 C 0.19142 0.55055 0.52583 0.0
O236 O 0.16853 0.5311 0.52954 0.0
C237 C 0.19155 0.65034 0.52877 0.0
O238 O 0.17742 0.65123 0.63016 0.0
C239 C 0.13081 0.57802 0.6147 0.0
C240 C 0.19736 0.67372 0.62793 0.0
O241 O 0.21833 0.67365 0.60461 0.0
C242 C 0.24689 0.61309 0.62664 0.0
C243 C 0.11623 0.56215 0.64316 0.0
C244 C 0.09367 0.53965 0.63647 0.0
C245 C 0.07698 0.52577 0.66227 0.0
C246 C 0.08356 0.53445 0.69509 0.0
C247 C 0.10586 0.55689 0.70248 0.0
C248 C 0.12212 0.57094 0.67638 0.0
O249 O 0.2203 0.64131 0.52777 0.0
O250 O 0.17144 0.63795 0.54949 0.0
O251 O 0.27688 0.56973 0.55009 0.0
O252 O 0.2671 0.59731 0.50886 0.0
C253 C 0.28634 0.57741 0.5207 0.0
O254 O 0.21978 0.59991 0.63028 0.0
O255 O 0.25597 0.62114 0.59692 0.0
O256 O 0.13218 0.60813 0.61652 0.0
O257 O 0.15523 0.56565 0.6008 0.0
H258 H 0.08879 0.53331 0.611 0.0
H259 H 0.0705 0.52445 0.71522 0.0
H260 H 0.13902 0.58863 0.68184 0.0
O261 O 0.42505 0.74513 0.77837 0.0
Tb262 Tb 0.39225 0.72929 0.81485 0.0
Eu263 Eu 0.36987 0.65825 0.85018 0.0
C264 C 0.43526 0.72643 0.75526 0.0
O265 O 0.43044 0.69675 0.75851 0.0
C266 C 0.35921 0.67473 0.77281 0.0
O267 O 0.31897 0.65861 0.85314 0.0
C268 C 0.38962 0.60855 0.87782 0.0
C269 C 0.30216 0.67984 0.8392 0.0
O270 O 0.31521 0.70232 0.82288 0.0
C271 C 0.40138 0.71544 0.88715 0.0
C272 C 0.40056 0.59476 0.90905 0.0
C273 C 0.42447 0.57348 0.90655 0.0
C274 C 0.43407 0.55677 0.93412 0.0
C275 C 0.41977 0.56179 0.96479 0.0
C276 C 0.39548 0.58275 0.96803 0.0
C277 C 0.38596 0.59947 0.94002 0.0
O278 O 0.36359 0.70442 0.77846 0.0
O279 O 0.36748 0.65353 0.79421 0.0
O280 O 0.3846 0.77867 0.81823 0.0
O281 O 0.3546 0.74794 0.8437 0.0
C282 C 0.36148 0.77658 0.83842 0.0
O283 O 0.37716 0.6974 0.88633 0.0
O284 O 0.4176 0.71926 0.85992 0.0
O285 O 0.36042 0.6156 0.87581 0.0
O286 O 0.40797 0.62793 0.86234 0.0
H287 H 0.43521 0.5693 0.88271 0.0
H288 H 0.42659 0.54825 0.98598 0.0
H289 H 0.36667 0.61498 0.94202 0.0
O290 O 0.27089 0.87179 1.01214 0.0
Tb291 Tb 0.30368 0.8536 1.04777 0.0
Eu292 Eu 0.3593 0.85441 0.105 0.0
C293 C 0.27713 0.89707 0.99562 0.0
O294 O 0.30302 0.91165 1.00175 0.0
C295 C 0.36882 0.84206 1.02705 0.0
O296 O 0.3761 0.82419 0.14499 0.0
C297 C 0.38073 0.90739 0.12221 0.0
C298 C 0.37236 0.79464 0.14146 0.0
O299 O 0.36487 0.78372 0.11217 0.0
C300 C 0.28689 0.85905 0.12255 0.0
C301 C 0.38373 0.92343 0.15439 0.0
C302 C 0.39967 0.95138 0.15508 0.0
C303 C 0.40825 0.96504 0.18526 0.0
C304 C 0.39885 0.95153 0.21505 0.0
C305 C 0.38296 0.92338 0.21509 0.0
C306 C 0.37568 0.90909 0.18455 0.0
O307 O 0.3473 0.86289 1.02348 0.0
O308 O 0.37457 0.83169 0.05691 0.0
O309 O 0.28902 0.80868 1.0291 0.0
O310 O 0.31593 0.81119 0.07283 0.0
C311 C 0.30268 0.79274 0.05188 0.0
O312 O 0.31324 0.84577 0.1293 0.0
O313 O 0.28207 0.87148 0.09316 0.0
O314 O 0.398 0.88286 0.11908 0.0
O315 O 0.35289 0.90397 0.10977 0.0
H316 H 0.40719 0.96154 0.13198 0.0
H317 H 0.40634 0.96149 0.23841 0.0
H318 H 0.36492 0.88655 0.18426 0.0
O319 O 0.09857 0.81706 0.31976 0.0
Tb320 Tb 0.12857 0.77823 0.31165 0.0
Eu321 Eu 0.15036 0.83723 0.35093 0.0
C322 C 0.07579 0.82251 0.29935 0.0
O323 O 0.05598 0.84424 0.30629 0.0
C324 C 0.17234 0.82172 0.27425 0.0
O325 O 0.19901 0.84511 0.36482 0.0
C326 C 0.12045 0.88411 0.37508 0.0
C327 C 0.22064 0.82474 0.36019 0.0
O328 O 0.21435 0.79863 0.3451 0.0
C329 C 0.15811 0.7691 0.3802 0.0
C330 C 0.10869 0.89825 0.40593 0.0
C331 C 0.0929 0.92624 0.40339 0.0
C332 C 0.08346 0.94228 0.43187 0.0
C333 C 0.08976 0.92988 0.46301 0.0
C334 C 0.10499 0.90176 0.46621 0.0
C335 C 0.11443 0.88573 0.43752 0.0
O336 O 0.16321 0.79296 0.27674 0.0
O337 O 0.16391 0.8429 0.29613 0.0
O338 O 0.09451 0.74467 0.32682 0.0
O339 O 0.11332 0.74091 0.27874 0.0
C340 C 0.09473 0.72802 0.3 0.0
O341 O 0.14892 0.79711 0.38774 0.0
O342 O 0.15914 0.76049 0.34912 0.0
O343 O 0.15034 0.88341 0.37165 0.0
O344 O 0.10665 0.85931 0.36361 0.0
H345 H 0.08857 0.93594 0.37918 0.0
H346 H 0.08192 0.9418 0.48511 0.0
H347 H 0.12646 0.8641 0.43976 0.0
O348 O 0.16434 0.90784 0.82023 0.0
Tb349 Tb 0.19844 0.8716 0.81932 0.0
Eu350 Eu 0.13951 0.86238 0.77442 0.0
C351 C 0.15934 0.92409 0.84742 0.0
O352 O 0.1394 0.94658 0.84681 0.0
C353 C 0.14589 0.83107 0.84696 0.0
O354 O 0.1397 0.81434 0.75563 0.0
C355 C 0.09371 0.89072 0.74819 0.0
C356 C 0.16023 0.79478 0.76596 0.0
O357 O 0.18106 0.80325 0.78758 0.0
C358 C 0.20767 0.86024 0.74439 0.0
C359 C 0.0856 0.90547 0.71673 0.0
C360 C 0.06171 0.9268 0.71697 0.0
C361 C 0.05193 0.94056 0.68756 0.0
C362 C 0.06634 0.93264 0.65763 0.0
C363 C 0.09033 0.91125 0.65689 0.0
C364 C 0.10011 0.89771 0.68659 0.0
O365 O 0.17584 0.83466 0.84587 0.0
O366 O 0.12777 0.8458 0.82634 0.0
O367 O 0.23851 0.90161 0.82533 0.0
O368 O 0.22837 0.86869 0.86205 0.0
C369 C 0.24748 0.89022 0.85336 0.0
O370 O 0.18066 0.87335 0.74166 0.0
O371 O 0.21724 0.85166 0.77369 0.0
O372 O 0.09693 0.86074 0.74703 0.0
O373 O 0.11409 0.90488 0.76713 0.0
H374 H 0.05078 0.93282 0.74024 0.0
H375 H 0.05877 0.94299 0.6347 0.0
H376 H 0.11865 0.8812 0.68621 0.0
O377 O 0.11732 0.73119 0.10973 0.0
Tb378 Tb 0.12213 0.69795 0.07013 0.0
Eu379 Eu 0.11344 0.64502 1.00834 0.0
C380 C 0.09443 0.7296 0.13077 0.0
O381 O 0.0733 0.70823 0.12683 0.0
C382 C 0.11678 0.63504 0.08698 0.0
O383 O 0.15398 0.64308 0.9743 0.0
C384 C 0.07704 0.60534 0.98064 0.0
C385 C 0.16528 0.66742 0.95952 0.0
O386 O 0.15824 0.69506 0.96992 0.0
C387 C 0.10376 0.72134 0.99945 0.0
C388 C 0.0634 0.5979 0.94804 0.0
C389 C 0.03705 0.57938 0.94788 0.0
C390 C 0.02575 0.56681 0.91828 0.0
C391 C 0.0403 0.57395 0.88833 0.0
C392 C 0.06655 0.5927 0.88766 0.0
C393 C 0.07825 0.60473 0.91771 0.0
O394 O 0.09768 0.65794 0.0856 0.0
O395 O 0.13057 0.62814 0.05893 0.0
O396 O 0.16865 0.69376 0.08935 0.0
O397 O 0.15987 0.6813 1.03946 0.0
C398 C 0.1808 0.68288 0.06234 0.0
O399 O 0.10241 0.69282 0.98766 0.0
O400 O 0.10765 0.72799 1.03104 0.0
O401 O 0.1068 0.60167 0.98296 0.0
O402 O 0.06667 0.62938 0.9972 0.0
H403 H 0.02657 0.57297 0.97123 0.0
H404 H 0.03165 0.56412 0.86537 0.0
H405 H 0.09921 0.61827 0.91761 0.0
O406 O 0.27123 0.58136 0.32362 0.0
Tb407 Tb 0.23749 0.61778 0.31784 0.0
Eu408 Eu 0.30119 0.62148 0.27452 0.0
C409 C 0.27544 0.56375 0.34985 0.0
O410 O 0.2959 0.54178 0.34748 0.0
C411 C 0.29043 0.6593 0.34334 0.0
O412 O 0.30359 0.66899 0.25537 0.0
C413 C 0.34971 0.59511 0.25013 0.0
C414 C 0.28459 0.69151 0.26169 0.0
O415 O 0.25834 0.68681 0.27675 0.0
C416 C 0.23407 0.61958 0.24107 0.0
C417 C 0.36169 0.58095 0.21914 0.0
C418 C 0.38497 0.55884 0.22189 0.0
C419 C 0.3999 0.5474 0.19358 0.0
C420 C 0.39026 0.55712 0.16229 0.0
C421 C 0.36751 0.57942 0.15864 0.0
C422 C 0.35331 0.59167 0.18725 0.0
O423 O 0.26047 0.65785 0.33918 0.0
O424 O 0.30871 0.64001 0.32729 0.0
O425 O 0.19638 0.58902 0.32079 0.0
O426 O 0.20125 0.62617 0.35403 0.0
C427 C 0.18283 0.6042 0.34438 0.0
O428 O 0.26156 0.60724 0.24107 0.0
O429 O 0.22319 0.63195 0.26837 0.0
O430 O 0.34486 0.62481 0.24931 0.0
O431 O 0.32905 0.57996 0.26761 0.0
H432 H 0.39257 0.55174 0.24622 0.0
H433 H 0.40143 0.54802 0.14033 0.0
H434 H 0.33632 0.6096 0.18475 0.0
O435 O 0.40059 0.78208 0.56745 0.0
Tb436 Tb 0.35795 0.77571 0.54031 0.0
Eu437 Eu 0.3277 0.85176 0.52224 0.0
C438 C 0.40633 0.80554 0.58718 0.0
O439 O 0.39036 0.83081 0.58402 0.0
C440 C 0.31917 0.81649 0.59116 0.0
O441 O 0.29161 0.88493 0.54061 0.0
C442 C 0.37099 0.88551 0.49688 0.0
C443 C 0.27334 0.89913 0.5201 0.0
O444 O 0.25515 0.92093 0.53098 0.0
C445 C 0.33116 0.79443 0.47529 0.0
C446 C 0.38817 0.89449 0.46678 0.0
C447 C 0.4135 0.91436 0.4709 0.0
C448 C 0.42718 0.92885 0.44356 0.0
C449 C 0.41631 0.92174 0.41165 0.0
C450 C 0.39099 0.90212 0.40684 0.0
C451 C 0.37664 0.88873 0.43459 0.0
O452 O 0.32383 0.78877 0.57828 0.0
O453 O 0.32995 0.84154 0.57696 0.0
O454 O 0.37901 0.7301 0.53881 0.0
O455 O 0.33261 0.73516 0.52377 0.0
C456 C 0.3552 0.71603 0.52672 0.0
O457 O 0.31115 0.81388 0.48765 0.0
O458 O 0.35802 0.79321 0.49 0.0
O459 O 0.34193 0.89325 0.49747 0.0
O460 O 0.3767 0.85904 0.51145 0.0
H461 H 0.42108 0.92034 0.4957 0.0
H462 H 0.42667 0.93276 0.39035 0.0
H463 H 0.35605 0.87494 0.43127 0.0
H464 H 0.83856 0.11443 0.06928 0.0
H465 H 0.77994 0.15387 0.1441 0.0
H466 H 0.82257 0.18343 0.16629 0.0
H467 H 0.86917 0.21079 0.15154 0.0
H468 H 0.92066 0.18237 0.06624 0.0
H469 H 0.89139 0.13444 0.0631 0.0
C470 C 0.83565 0.12885 0.09107 0.0
C471 C 0.80636 0.1329 0.10459 0.0
C472 C 0.85975 0.14779 0.10198 0.0
C473 C 0.80238 0.15123 0.13291 0.0
C474 C 0.82684 0.16798 0.14576 0.0
C475 C 0.87486 0.19322 0.13338 0.0
C476 C 0.8945 0.20083 0.1073 0.0
C477 C 0.85479 0.16845 0.12874 0.0
C478 C 0.90397 0.17753 0.08542 0.0
C479 C 0.88664 0.15048 0.08307 0.0
H480 H 0.71745 0.30823 0.21133 0.0
H481 H 0.70313 0.23822 0.28481 0.0
H482 H 0.74005 0.20489 0.25651 0.0
H483 H 0.78717 0.20455 0.22465 0.0
H484 H 0.81278 0.28428 0.16832 0.0
H485 H 0.76015 0.30372 0.17278 0.0
C486 C 0.72154 0.28512 0.22026 0.0
C487 C 0.70811 0.27554 0.25013 0.0
C488 C 0.74544 0.26803 0.20643 0.0
C489 C 0.71352 0.24588 0.26191 0.0
C490 C 0.73475 0.22705 0.24585 0.0
C491 C 0.78075 0.2256 0.21219 0.0
C492 C 0.80359 0.24347 0.19689 0.0
C493 C 0.75265 0.23908 0.21999 0.0
C494 C 0.79544 0.27045 0.1805 0.0
C495 C 0.76567 0.28185 0.18381 0.0
H496 H 0.68854 0.39624 0.59133 0.0
H497 H 0.68147 0.38776 0.48524 0.0
H498 H 0.62937 0.36753 0.49059 0.0
H499 H 0.5953 0.33685 0.52502 0.0
H500 H 0.60984 0.33371 0.63048 0.0
H501 H 0.64806 0.3749 0.62635 0.0
C502 C 0.67499 0.39136 0.56935 0.0
C503 C 0.68882 0.39306 0.53795 0.0
C504 C 0.64635 0.37683 0.57281 0.0
C505 C 0.67126 0.38653 0.50964 0.0
C506 C 0.64161 0.37455 0.51276 0.0
C507 C 0.60579 0.3462 0.54731 0.0
C508 C 0.60037 0.33189 0.57792 0.0
C509 C 0.63013 0.3672 0.54422 0.0
C510 C 0.61391 0.34425 0.60663 0.0
C511 C 0.63619 0.36738 0.60415 0.0
H512 H 0.59382 0.17314 0.70838 0.0
H513 H 0.5654 0.15487 0.8078 0.0
H514 H 0.60445 0.1153 0.81303 0.0
H515 H 0.65896 0.10607 0.79849 0.0
H516 H 0.69258 0.13669 0.70406 0.0
H517 H 0.64113 0.15151 0.68735 0.0
C518 C 0.59517 0.15904 0.73042 0.0
C519 C 0.58024 0.16916 0.75912 0.0
C520 C 0.62059 0.13996 0.73455 0.0
C521 C 0.57906 0.14913 0.78624 0.0
C522 C 0.60209 0.12709 0.78963 0.0
C523 C 0.65455 0.11485 0.77387 0.0
C524 C 0.67918 0.12133 0.75275 0.0
C525 C 0.62523 0.12543 0.76551 0.0
C526 C 0.67372 0.13243 0.7208 0.0
C527 C 0.6443 0.14074 0.71123 0.0
H528 H 0.3745 0.66356 0.55593 0.0
H529 H 0.33585 0.69954 0.46638 0.0
H530 H 0.3246 0.64776 0.44617 0.0
H531 H 0.31081 0.59602 0.46276 0.0
H532 H 0.33723 0.56319 0.5584 0.0
H533 H 0.37123 0.60739 0.56621 0.0
C534 C 0.36452 0.65975 0.53163 0.0
C535 C 0.35507 0.68492 0.5128 0.0
C536 C 0.35632 0.62992 0.52131 0.0
C537 C 0.34238 0.6802 0.48132 0.0
C538 C 0.33622 0.65062 0.46975 0.0
C539 C 0.3254 0.59785 0.48451 0.0
C540 C 0.31906 0.57896 0.51166 0.0
C541 C 0.34093 0.62556 0.49066 0.0
C542 C 0.33995 0.57921 0.53818 0.0
C543 C 0.35871 0.60506 0.54314 0.0
H544 H 0.26987 0.86243 0.90717 0.0
H545 H 0.29715 0.91902 0.8253 0.0
H546 H 0.34394 0.88913 0.81843 0.0
H547 H 0.36415 0.83641 0.8214 0.0
H548 H 0.32842 0.77438 0.89496 0.0
H549 H 0.29765 0.81559 0.91894 0.0
C550 C 0.2869 0.86902 0.88889 0.0
C551 C 0.27932 0.89091 0.86502 0.0
C552 C 0.31127 0.84922 0.88233 0.0
C553 C 0.30201 0.90101 0.84291 0.0
C554 C 0.32839 0.8834 0.83843 0.0
C555 C 0.35006 0.83226 0.84308 0.0
C556 C 0.34725 0.80244 0.85564 0.0
C557 C 0.3312 0.85556 0.85548 0.0
C558 C 0.32972 0.7971 0.88417 0.0
C559 C 0.31245 0.82067 0.89808 0.0
H560 H 0.28755 0.74896 1.00702 0.0
H561 H 0.30352 0.76407 0.11094 0.0
H562 H 0.27203 0.71957 0.12463 0.0
H563 H 0.22658 0.69016 0.10686 0.0
H564 H 0.2098 0.67576 1.00299 0.0
H565 H 0.25583 0.70477 0.98905 0.0
C566 C 0.28521 0.74154 1.0325 0.0
C567 C 0.29637 0.76025 0.05817 0.0
C568 C 0.26648 0.71633 1.04005 0.0
C569 C 0.29433 0.75022 0.09101 0.0
C570 C 0.27614 0.72487 0.09881 0.0
C571 C 0.23387 0.69213 0.08126 0.0
C572 C 0.21389 0.68318 0.05574 0.0
C573 C 0.25989 0.70967 0.07361 0.0
C574 C 0.22407 0.68423 1.02284 0.0
C575 C 0.25038 0.70094 1.01489 0.0
H576 H 0.08305 0.69457 0.35426 0.0
H577 H 0.09594 0.68632 0.24877 0.0
H578 H 0.11456 0.63377 0.25576 0.0
H579 H 0.1455 0.60189 0.2919 0.0
H580 H 0.14685 0.62019 0.39681 0.0
H581 H 0.10426 0.65595 0.39079 0.0
C582 C 0.08876 0.68081 0.33263 0.0
C583 C 0.08941 0.69456 0.30119 0.0
C584 C 0.10314 0.65246 0.33722 0.0
C585 C 0.09596 0.67637 0.2733 0.0
C586 C 0.10709 0.64654 0.27737 0.0
C587 C 0.13527 0.61245 0.31365 0.0
C588 C 0.14954 0.6091 0.34465 0.0
C589 C 0.11368 0.63582 0.30931 0.0
C590 C 0.13624 0.62268 0.37271 0.0
C591 C 0.11226 0.64357 0.3691 0.0
H592 H 0.66941 0.19608 0.87726 0.0
H593 H 0.6016 0.24819 0.9311 0.0
H594 H 0.61073 0.21723 0.98033 0.0
H595 H 0.63789 0.17521 1.0086 0.0
H596 H 0.7092 0.12617 0.95704 0.0
H597 H 0.69886 0.15577 0.90675 0.0
C598 C 0.65652 0.20057 0.89971 0.0
C599 C 0.63447 0.22433 0.90012 0.0
C600 C 0.66249 0.18305 0.92847 0.0
C601 C 0.61854 0.23009 0.9298 0.0
C602 C 0.62373 0.2123 0.95806 0.0
C603 C 0.65095 0.17077 0.98623 0.0
C604 C 0.6739 0.14799 0.98646 0.0
C605 C 0.64554 0.18864 0.95772 0.0
C606 C 0.69123 0.14328 0.95752 0.0
C607 C 0.68531 0.16027 0.92873 0.0
H608 H 0.7732 0.14906 0.26394 0.0
H609 H 0.85311 0.1099 0.21782 0.0
H610 H 0.82054 0.08521 0.17547 0.0
H611 H 0.76942 0.08105 0.14735 0.0
H612 H 0.69045 0.12072 0.19534 0.0
H613 H 0.72222 0.13795 0.24147 0.0
C614 C 0.78343 0.13452 0.24505 0.0
C615 C 0.81551 0.13139 0.24396 0.0
C616 C 0.76458 0.12037 0.22103 0.0
C617 C 0.82844 0.11245 0.21937 0.0
C618 C 0.80978 0.09844 0.19506 0.0
C619 C 0.75904 0.09235 0.16852 0.0
C620 C 0.72751 0.09971 0.16772 0.0
C621 C 0.77779 0.10293 0.19506 0.0
C622 C 0.71458 0.11478 0.19526 0.0
C623 C 0.73281 0.12495 0.22157 0.0
H624 H 0.86806 0.30135 0.47941 0.0
H625 H 0.77235 0.31144 0.45483 0.0
H626 H 0.78111 0.28634 0.40127 0.0
H627 H 0.81604 0.26106 0.36122 0.0
H628 H 0.91078 0.24744 0.38789 0.0
H629 H 0.90242 0.2745 0.4404 0.0
C630 C 0.8491 0.29818 0.46232 0.0
C631 C 0.81958 0.30853 0.47125 0.0
C632 C 0.85421 0.28318 0.43169 0.0
C633 C 0.79528 0.30373 0.44882 0.0
C634 C 0.80031 0.28945 0.41804 0.0
C635 C 0.83496 0.26434 0.37835 0.0
C636 C 0.86419 0.25259 0.37027 0.0
C637 C 0.82971 0.2791 0.40913 0.0
C638 C 0.88816 0.25638 0.39325 0.0
C639 C 0.88335 0.27183 0.42338 0.0
H640 H 0.7231 0.28506 0.75856 0.0
H641 H 0.6429 0.32871 0.71844 0.0
H642 H 0.6709 0.34054 0.66758 0.0
H643 H 0.71783 0.33804 0.63398 0.0
H644 H 0.80081 0.30329 0.67736 0.0
H645 H 0.77237 0.28818 0.72704 0.0
C646 C 0.71196 0.29752 0.7388 0.0
C647 C 0.68088 0.306 0.74232 0.0
C648 C 0.72866 0.30537 0.7099 0.0
C649 C 0.66679 0.32218 0.71652 0.0
C650 C 0.68278 0.32881 0.68731 0.0
C651 C 0.72987 0.32703 0.65414 0.0
C652 C 0.76141 0.32002 0.6508 0.0
C653 C 0.71368 0.3204 0.6836 0.0
C654 C 0.77635 0.30683 0.67804 0.0
C655 C 0.76011 0.29885 0.70684 0.0
H656 H 0.61054 0.28584 0.32949 0.0
H657 H 0.63464 0.37052 0.3797 0.0
H658 H 0.6283 0.34581 0.43305 0.0
H659 H 0.61858 0.29973 0.46617 0.0
H660 H 0.59364 0.21472 0.41736 0.0
H661 H 0.5975 0.23982 0.36338 0.0
C662 C 0.61385 0.29901 0.3521 0.0
C663 C 0.62316 0.33014 0.35025 0.0
C664 C 0.61028 0.28448 0.38325 0.0
C665 C 0.62758 0.34661 0.38005 0.0
C666 C 0.62403 0.33244 0.41078 0.0
C667 C 0.61382 0.28665 0.44377 0.0
C668 C 0.60592 0.25526 0.44603 0.0
C669 C 0.61589 0.3013 0.41275 0.0
C670 C 0.59965 0.23891 0.41656 0.0
C671 C 0.60194 0.25328 0.38557 0.0
H672 H 0.67912 0.14019 0.59713 0.0
H673 H 0.68048 0.2368 0.62299 0.0
H674 H 0.72064 0.22789 0.66327 0.0
H675 H 0.75528 0.19323 0.69202 0.0
H676 H 0.75516 0.0966 0.66825 0.0
H677 H 0.71471 0.10487 0.62684 0.0
C678 C 0.68814 0.15927 0.6116 0.0
C679 C 0.67654 0.18922 0.60653 0.0
C680 C 0.71167 0.15403 0.63521 0.0
C681 C 0.68874 0.21352 0.62583 0.0
C682 C 0.71186 0.20849 0.64908 0.0
C683 C 0.74696 0.17401 0.67738 0.0
C684 C 0.75885 0.14443 0.6829 0.0
C685 C 0.7236 0.17894 0.65391 0.0
C686 C 0.74668 0.11966 0.66444 0.0
C687 C 0.7235 0.12442 0.64072 0.0
H688 H 0.80767 0.22411 0.96982 0.0
H689 H 0.89296 0.26134 0.93314 0.0
H690 H 0.8875 0.23132 0.88223 0.0
H691 H 0.85809 0.19583 0.84697 0.0
H692 H 0.77071 0.16101 0.88045 0.0
H693 H 0.77723 0.18859 0.93325 0.0
C694 C 0.8252 0.22528 0.95082 0.0
C695 C 0.85095 0.24476 0.9556 0.0
C696 C 0.82141 0.20852 0.92077 0.0
C697 C 0.87304 0.24653 0.93031 0.0
C698 C 0.86991 0.22936 0.90108 0.0
C699 C 0.8405 0.19401 0.86586 0.0
C700 C 0.81402 0.17604 0.85961 0.0
C701 C 0.84412 0.21047 0.89587 0.0
C702 C 0.79133 0.17458 0.88438 0.0
C703 C 0.79511 0.19035 0.9147 0.0
H704 H 0.83403 0.34264 0.15397 0.0
H705 H 0.77243 0.35167 0.07132 0.0
H706 H 0.73234 0.37129 0.108 0.0
H707 H 0.71356 0.38253 0.16412 0.0
H708 H 0.77499 0.37417 0.24726 0.0
H709 H 0.81644 0.35898 0.21002 0.0
C710 C 0.81196 0.3494 0.14406 0.0
C711 C 0.80607 0.34558 0.10999 0.0
C712 C 0.78906 0.36127 0.1654 0.0
C713 C 0.77742 0.35434 0.09742 0.0
C714 C 0.75451 0.36564 0.11842 0.0
C715 C 0.73613 0.37802 0.17414 0.0
C716 C 0.74083 0.37956 0.20868 0.0
C717 C 0.75988 0.36882 0.15254 0.0
C718 C 0.7705 0.37365 0.22089 0.0
C719 C 0.79427 0.36457 0.19956 0.0
H720 H 0.13954 0.76345 0.4458 0.0
H721 H 0.19829 0.72248 0.37188 0.0
H722 H 0.21274 0.68241 0.41053 0.0
H723 H 0.21176 0.66025 0.46614 0.0
H724 H 0.14889 0.69592 0.53869 0.0
H725 H 0.13451 0.73741 0.50079 0.0
C726 C 0.15601 0.74614 0.43841 0.0
C727 C 0.16813 0.74654 0.40592 0.0
C728 C 0.16425 0.72252 0.46088 0.0
C729 C 0.18875 0.72319 0.39664 0.0
C730 C 0.19734 0.70028 0.41884 0.0
C731 C 0.19464 0.67684 0.47351 0.0
C732 C 0.18148 0.6748 0.50524 0.0
C733 C 0.1856 0.69986 0.45109 0.0
C734 C 0.15935 0.69674 0.51439 0.0
C735 C 0.1512 0.7206 0.4927 0.0
H736 H 0.31809 0.62715 0.76423 0.0
H737 H 0.3612 0.70185 0.71191 0.0
H738 H 0.33153 0.68892 0.66217 0.0
H739 H 0.29215 0.65707 0.63347 0.0
H740 H 0.24602 0.58506 0.68722 0.0
H741 H 0.27771 0.59618 0.73595 0.0
C742 C 0.3213 0.64035 0.7418 0.0
C743 C 0.34235 0.66524 0.74187 0.0
C744 C 0.30334 0.63333 0.71338 0.0
C745 C 0.34544 0.68251 0.7127 0.0
C746 C 0.32838 0.67513 0.68416 0.0
C747 C 0.28916 0.64363 0.65576 0.0
C748 C 0.26676 0.61994 0.6563 0.0
C749 C 0.30709 0.65068 0.68418 0.0
C750 C 0.26299 0.60331 0.68581 0.0
C751 C 0.28121 0.60966 0.71379 0.0
H752 H 0.40312 0.77888 0.889 0.0
H753 H 0.40408 0.69902 0.95141 0.0
H754 H 0.39726 0.73159 1.00039 0.0
H755 H 0.38545 0.78186 1.02511 0.0
H756 H 0.37594 0.86105 0.96243 0.0
H757 H 0.39076 0.82992 0.91409 0.0
C758 C 0.40217 0.7687 0.91333 0.0
C759 C 0.40442 0.73644 0.91643 0.0
C760 C 0.39607 0.78754 0.94138 0.0
C761 C 0.40294 0.72371 0.94828 0.0
C762 C 0.39868 0.74236 0.97631 0.0
C763 C 0.3871 0.79255 1.00098 0.0
C764 C 0.38 0.82404 0.99766 0.0
C765 C 0.39438 0.77418 0.97312 0.0
C766 C 0.38149 0.83704 0.9659 0.0
C767 C 0.38998 0.81917 0.9382 0.0
H768 H 0.16713 0.85212 0.21429 0.0
H769 H 0.23206 0.80798 0.27859 0.0
H770 H 0.27326 0.81779 0.23905 0.0
H771 H 0.2907 0.8363 0.18523 0.0
H772 H 0.22631 0.87771 0.11804 0.0
H773 H 0.18529 0.87135 0.15914 0.0
C774 C 0.1903 0.84461 0.21945 0.0
C775 C 0.19652 0.82924 0.24941 0.0
C776 C 0.214 0.84953 0.19584 0.0
C777 C 0.22667 0.81978 0.2558 0.0
C778 C 0.25025 0.8253 0.23309 0.0
C779 C 0.26774 0.844 0.17932 0.0
C780 C 0.26185 0.85738 0.14817 0.0
C781 C 0.24417 0.83974 0.20284 0.0
C782 C 0.23179 0.86738 0.14162 0.0
C783 C 0.20821 0.86363 0.16518 0.0
H784 H 0.1634 0.82418 0.91084 0.0
H785 H 0.09835 0.79028 0.83914 0.0
H786 H 0.07831 0.75336 0.87966 0.0
H787 H 0.08108 0.72922 0.93571 0.0
H788 H 0.14136 0.77006 1.0088 0.0
H789 H 0.16059 0.80621 0.9682 0.0
C790 C 0.14436 0.80927 0.90435 0.0
C791 C 0.13231 0.81017 0.87213 0.0
C792 C 0.13189 0.78935 0.92826 0.0
C793 C 0.10791 0.79023 0.86389 0.0
C794 C 0.09648 0.76907 0.88707 0.0
C795 C 0.09782 0.74654 0.94291 0.0
C796 C 0.10946 0.74684 0.97555 0.0
C797 C 0.10839 0.76827 0.91942 0.0
C798 C 0.13141 0.76942 0.98422 0.0
C799 C 0.14282 0.79001 0.96084 0.0
H800 H 0.17406 0.60996 0.09741 0.0
H801 H 0.09763 0.65052 0.14926 0.0
H802 H 0.12674 0.65005 0.20078 0.0
H803 H 0.1745 0.63904 0.23169 0.0
H804 H 0.2511 0.59896 0.17957 0.0
H805 H 0.2214 0.5981 0.12838 0.0
C806 C 0.16346 0.61812 0.12008 0.0
C807 C 0.13338 0.63011 0.11913 0.0
C808 C 0.18053 0.61795 0.14995 0.0
C809 C 0.12053 0.64099 0.14896 0.0
C810 C 0.13726 0.64078 0.17862 0.0
C811 C 0.18475 0.63005 0.20919 0.0
C812 C 0.21523 0.6191 0.20986 0.0
C813 C 0.16741 0.62955 0.17948 0.0
C814 C 0.22782 0.60754 0.18018 0.0
C815 C 0.21077 0.60699 0.1507 0.0
H816 H 0.26282 0.68729 0.3961 0.0
H817 H 0.34804 0.68546 0.34246 0.0
H818 H 0.36834 0.72701 0.3777 0.0
H819 H 0.36139 0.76516 0.42377 0.0
H820 H 0.2773 0.76315 0.47967 0.0
H821 H 0.25698 0.72262 0.44373 0.0
C822 C 0.28575 0.69603 0.39205 0.0
C823 C 0.30364 0.68322 0.36639 0.0
C824 C 0.29735 0.71981 0.41267 0.0
C825 C 0.33368 0.6946 0.36202 0.0
C826 C 0.34526 0.71858 0.38211 0.0
C827 C 0.33859 0.75589 0.42793 0.0
C828 C 0.32032 0.76837 0.4536 0.0
C829 C 0.32726 0.73161 0.40747 0.0
C830 C 0.29117 0.75535 0.45909 0.0
C831 C 0.27967 0.73175 0.43874 0.0
H832 H 0.27847 0.86162 0.60657 0.0
H833 H 0.31838 0.77925 0.64607 0.0
H834 H 0.28915 0.78624 0.69758 0.0
H835 H 0.25162 0.81603 0.73163 0.0
H836 H 0.20797 0.89506 0.68864 0.0
H837 H 0.23908 0.88923 0.63874 0.0
C838 C 0.28085 0.8452 0.62648 0.0
C839 C 0.30096 0.8201 0.62246 0.0
C840 C 0.26313 0.84882 0.65558 0.0
C841 C 0.30319 0.79878 0.64838 0.0
C842 C 0.28645 0.80283 0.67791 0.0
C843 C 0.24892 0.83197 0.71134 0.0
C844 C 0.22745 0.85616 0.71423 0.0
C845 C 0.26627 0.82779 0.68187 0.0
C846 C 0.2242 0.87631 0.68736 0.0
C847 C 0.24205 0.87298 0.6587 0.0
H848 H 0.70497 0.3162 0.14371 0.0
H849 H 0.60691 0.3159 0.13032 0.0
H850 H 0.61123 0.27636 0.08721 0.0
H851 H 0.64135 0.2343 0.06456 0.0
H852 H 0.7386 0.2301 0.08344 0.0
H853 H 0.73686 0.28016 0.11124 0.0
C854 C 0.68481 0.30778 0.13065 0.0
C855 C 0.65565 0.31775 0.14022 0.0
C856 C 0.68748 0.28445 0.10687 0.0
C857 C 0.62942 0.30758 0.12339 0.0
C858 C 0.63194 0.28522 0.09879 0.0
C859 C 0.66229 0.24489 0.07387 0.0
C860 C 0.6897 0.22825 0.07349 0.0
C861 C 0.66062 0.27227 0.09186 0.0
C862 C 0.71704 0.24236 0.08426 0.0
C863 C 0.71597 0.27072 0.1006 0.0
H864 H 0.73829 0.20265 0.49075 0.0
H865 H 0.66489 0.21025 0.41974 0.0
H866 H 0.70183 0.20991 0.37429 0.0
H867 H 0.75408 0.20072 0.35475 0.0
H868 H 0.82712 0.18845 0.42548 0.0
H869 H 0.79143 0.19752 0.47108 0.0
C870 C 0.7306 0.20488 0.46533 0.0
C871 C 0.69917 0.20619 0.45832 0.0
C872 C 0.75183 0.2033 0.43934 0.0
C873 C 0.68914 0.20887 0.42544 0.0
C874 C 0.71018 0.20861 0.39952 0.0
C875 C 0.76218 0.20031 0.38014 0.0
C876 C 0.79286 0.19328 0.3869 0.0
C877 C 0.74144 0.20468 0.40615 0.0
C878 C 0.80329 0.19308 0.41982 0.0
C879 C 0.78298 0.19842 0.44586 0.0
H880 H 0.88276 0.28281 0.62263 0.0
H881 H 0.8051 0.23218 0.58447 0.0
H882 H 0.78649 0.22356 0.64095 0.0
H883 H 0.79623 0.22531 0.70041 0.0
H884 H 0.87696 0.27061 0.73844 0.0
H885 H 0.88954 0.28908 0.68276 0.0
C886 C 0.86128 0.27081 0.62682 0.0
C887 C 0.84492 0.25845 0.59997 0.0
C888 C 0.85133 0.26544 0.65915 0.0
C889 C 0.81782 0.24178 0.60519 0.0
C890 C 0.80726 0.23693 0.63729 0.0
C891 C 0.81595 0.24007 0.69654 0.0
C892 C 0.83549 0.24699 0.72311 0.0
C893 C 0.82433 0.24795 0.66437 0.0
C894 C 0.86138 0.26564 0.71817 0.0
C895 C 0.86886 0.27554 0.68634 0.0
H896 H 0.7462 0.35556 1.01484 0.0
H897 H 0.7469 0.25706 1.00236 0.0
H898 H 0.70182 0.2599 0.96633 0.0
H899 H 0.6718 0.29166 0.9283 0.0
H900 H 0.67371 0.39054 0.93835 0.0
H901 H 0.70841 0.38647 0.98567 0.0
C902 C 0.73573 0.33467 1.0051 0.0
C903 C 0.75004 0.30631 1.01004 0.0
C904 C 0.71113 0.33674 0.98322 0.0
C905 C 0.73623 0.27917 0.99833 0.0
C906 C 0.71083 0.28087 0.97738 0.0
C907 C 0.67968 0.31229 0.94105 0.0
C908 C 0.67163 0.34143 0.92916 0.0
C909 C 0.69971 0.30973 0.96783 0.0
C910 C 0.68055 0.36796 0.94663 0.0
C911 C 0.70021 0.36562 0.97368 0.0
H912 H 0.21201 0.77608 0.73704 0.0
H913 H 0.11651 0.75326 0.75075 0.0
H914 H 0.1202 0.71278 0.70866 0.0
H915 H 0.14914 0.68774 0.66534 0.0
H916 H 0.24384 0.71237 0.6478 0.0
H917 H 0.24182 0.74957 0.69371 0.0
C918 C 0.19237 0.76161 0.73123 0.0
C919 C 0.16418 0.76687 0.74683 0.0
C920 C 0.19432 0.73974 0.7059 0.0
C921 C 0.13843 0.74892 0.739 0.0
C922 C 0.14048 0.72619 0.71484 0.0
C923 C 0.16943 0.70115 0.67159 0.0
C924 C 0.19655 0.69761 0.6534 0.0
C925 C 0.16805 0.72209 0.6976 0.0
C926 C 0.2226 0.71522 0.66138 0.0
C927 C 0.22154 0.73613 0.68772 0.0
H928 H 0.26659 0.63276 0.85745 0.0
H929 H 0.26628 0.73102 0.84357 0.0
H930 H 0.22004 0.73526 0.87757 0.0
H931 H 0.18673 0.71213 0.91951 0.0
H932 H 0.19026 0.61421 0.93655 0.0
H933 H 0.22871 0.60872 0.89318 0.0
C934 C 0.25591 0.655 0.86126 0.0
C935 C 0.26999 0.68161 0.84902 0.0
C936 C 0.23062 0.65738 0.88211 0.0
C937 C 0.25579 0.71025 0.85313 0.0
C938 C 0.22968 0.71272 0.87291 0.0
C939 C 0.19581 0.68957 0.91361 0.0
C940 C 0.18652 0.66374 0.93178 0.0
C941 C 0.21811 0.68665 0.88903 0.0
C942 C 0.19767 0.63452 0.92332 0.0
C943 C 0.21949 0.63133 0.89846 0.0
H944 H 0.34024 0.71586 0.26471 0.0
H945 H 0.24887 0.73243 0.22833 0.0
H946 H 0.26932 0.76973 0.18863 0.0
H947 H 0.31397 0.7898 0.15855 0.0
H948 H 0.40544 0.76719 0.18999 0.0
H949 H 0.38445 0.73972 0.23799 0.0
C950 C 0.32479 0.72849 0.24875 0.0
C951 C 0.29335 0.7214 0.24869 0.0
C952 C 0.33691 0.74787 0.22477 0.0
C953 C 0.27317 0.73782 0.22858 0.0
C954 C 0.28494 0.7586 0.2056 0.0
C955 C 0.32913 0.77843 0.17576 0.0
C956 C 0.36088 0.77888 0.17045 0.0
C957 C 0.31684 0.76235 0.20237 0.0
C958 C 0.38082 0.76594 0.19349 0.0
C959 C 0.36884 0.75061 0.22084 0.0
H960 H 0.25782 0.84291 0.50131 0.0
H961 H 0.28387 0.93159 0.46363 0.0
H962 H 0.27924 0.91209 0.40651 0.0
H963 H 0.26002 0.8717 0.36862 0.0
H964 H 0.23236 0.78386 0.4076 0.0
H965 H 0.24483 0.80127 0.46329 0.0
C966 C 0.26288 0.85771 0.48044 0.0
C967 C 0.27118 0.88832 0.48603 0.0
C968 C 0.26018 0.84636 0.44821 0.0
C969 C 0.27729 0.90784 0.45936 0.0
C970 C 0.27495 0.89663 0.42695 0.0
C971 C 0.25906 0.85568 0.38909 0.0
C972 C 0.24527 0.82672 0.38437 0.0
C973 C 0.26584 0.86603 0.42115 0.0
C974 C 0.24345 0.80607 0.41076 0.0
C975 C 0.25013 0.81616 0.44269 0.0
H976 H 0.81933 0.05934 0.88828 0.0
H977 H 0.73579 0.04529 0.83261 0.0
H978 H 0.70838 0.03252 0.8832 0.0
H979 H 0.70594 0.03576 0.94398 0.0
H980 H 0.7896 0.0492 0.99961 0.0
H981 H 0.81901 0.05106 0.94846 0.0
C982 C 0.79535 0.05259 0.88708 0.0
C983 C 0.77954 0.05413 0.8568 0.0
C984 C 0.7795 0.04558 0.91641 0.0
C985 C 0.74857 0.04475 0.8556 0.0
C986 C 0.73272 0.03763 0.88463 0.0
C987 C 0.73071 0.03819 0.94495 0.0
C988 C 0.74534 0.04315 0.97558 0.0
C989 C 0.74759 0.03958 0.91533 0.0
C990 C 0.77756 0.04572 0.97642 0.0
C991 C 0.79448 0.047 0.94709 0.0
H992 H 0.89223 0.31931 0.13859 0.0
H993 H 0.96186 0.27309 0.08159 0.0
H994 H 0.9696 0.23635 0.12647 0.0
H995 H 0.95528 0.21628 0.18097 0.0
H996 H 0.89372 0.26763 0.24291 0.0
H997 H 0.88284 0.30284 0.19689 0.0
C998 C 0.90892 0.30104 0.13611 0.0
C999 C 0.9257 0.29802 0.10647 0.0
C1000 C 0.91394 0.28055 0.16255 0.0
C1001 C 0.94824 0.27523 0.10392 0.0
C1002 C 0.95269 0.25431 0.12957 0.0
C1003 C 0.9393 0.23508 0.18435 0.0
C1004 C 0.92317 0.23797 0.21442 0.0
C1005 C 0.93534 0.25646 0.15877 0.0
C1006 C 0.90394 0.26335 0.21894 0.0
C1007 C 0.89853 0.28392 0.19294 0.0
H1008 H 0.7695 0.42363 0.50317 0.0
H1009 H 0.84959 0.37878 0.46442 0.0
H1010 H 0.82254 0.36744 0.4124 0.0
H1011 H 0.77516 0.36931 0.37862 0.0
H1012 H 0.69611 0.41699 0.41722 0.0
H1013 H 0.72337 0.4279 0.46865 0.0
C1014 C 0.78065 0.41087 0.48347 0.0
C1015 C 0.81075 0.40073 0.48788 0.0
C1016 C 0.76511 0.40496 0.45366 0.0
C1017 C 0.82602 0.38609 0.46161 0.0
C1018 C 0.81057 0.37962 0.43197 0.0
C1019 C 0.76392 0.38195 0.39837 0.0
C1020 C 0.73362 0.3922 0.39414 0.0
C1021 C 0.77992 0.38862 0.42786 0.0
C1022 C 0.71945 0.40891 0.41978 0.0
C1023 C 0.73498 0.41513 0.44926 0.0
H1024 H 0.52364 0.28158 0.7177 0.0
H1025 H 0.62118 0.27349 0.7285 0.0
H1026 H 0.62467 0.24629 0.67562 0.0
H1027 H 0.59898 0.22303 0.62622 0.0
H1028 H 0.50126 0.23346 0.61508 0.0
H1029 H 0.49869 0.26164 0.66744 0.0
C1030 C 0.54566 0.27365 0.7086 0.0
C1031 C 0.57212 0.2784 0.72802 0.0
C1032 C 0.54735 0.25868 0.67761 0.0
C1033 C 0.60044 0.26891 0.71514 0.0
C1034 C 0.6024 0.25365 0.68449 0.0
C1035 C 0.57733 0.2322 0.63492 0.0
C1036 C 0.55042 0.22668 0.61645 0.0
C1037 C 0.57593 0.24822 0.66549 0.0
C1038 C 0.52234 0.23777 0.62861 0.0
C1039 C 0.52081 0.25373 0.65868 0.0
H1040 H 0.20488 0.59742 0.48298 0.0
H1041 H 0.21607 0.50015 0.49775 0.0
H1042 H 0.24175 0.49541 0.44419 0.0
H1043 H 0.26072 0.51869 0.39292 0.0
H1044 H 0.25424 0.61635 0.37976 0.0
H1045 H 0.22695 0.62133 0.4322 0.0
C1046 C 0.21355 0.57538 0.4747 0.0
C1047 C 0.20937 0.5493 0.49469 0.0
C1048 C 0.22861 0.57286 0.44381 0.0
C1049 C 0.21959 0.52063 0.48308 0.0
C1050 C 0.23418 0.51789 0.45241 0.0
C1051 C 0.2532 0.54111 0.40147 0.0
C1052 C 0.25819 0.56709 0.38148 0.0
C1053 C 0.23873 0.54381 0.43251 0.0
C1054 C 0.24908 0.5959 0.39351 0.0
C1055 C 0.23397 0.59876 0.42401 0.0
H1056 H 0.43455 0.78642 0.73634 0.0
H1057 H 0.45319 0.69485 0.69988 0.0
H1058 H 0.45231 0.71358 0.6431 0.0
H1059 H 0.43626 0.75332 0.6043 0.0
H1060 H 0.41337 0.84385 0.64084 0.0
H1061 H 0.42673 0.82834 0.69695 0.0
C1062 C 0.43922 0.77065 0.71607 0.0
C1063 C 0.44325 0.73911 0.72238 0.0
C1064 C 0.43755 0.78135 0.68338 0.0
C1065 C 0.44961 0.71916 0.69576 0.0
C1066 C 0.44896 0.72983 0.66323 0.0
C1067 C 0.43489 0.76996 0.62436 0.0
C1068 C 0.42308 0.7995 0.61842 0.0
C1069 C 0.44139 0.76051 0.65675 0.0
C1070 C 0.42202 0.82085 0.64468 0.0
C1071 C 0.42944 0.81191 0.67688 0.0
H1072 H 0.20906 0.95413 0.87195 0.0
H1073 H 0.1455 0.88084 0.89311 0.0
H1074 H 0.17483 0.86761 0.94296 0.0
H1075 H 0.22152 0.87323 0.97676 0.0
H1076 H 0.2859 0.946 0.95458 0.0
H1077 H 0.25381 0.96251 0.90861 0.0
C1078 C 0.20173 0.93528 0.88757 0.0
C1079 C 0.17599 0.91759 0.87838 0.0
C1080 C 0.21914 0.92733 0.91562 0.0
C1081 C 0.1661 0.89376 0.89906 0.0
C1082 C 0.18279 0.88625 0.92747 0.0
C1083 C 0.22843 0.89287 0.96207 0.0
C1084 C 0.25626 0.90816 0.96912 0.0
C1085 C 0.20994 0.90218 0.93537 0.0
C1086 C 0.26469 0.93366 0.94979 0.0
C1087 C 0.24631 0.94321 0.92343 0.0
H1088 H 0.05162 0.73204 0.17998 0.0
H1089 H 0.13587 0.77439 0.14641 0.0
H1090 H 0.1366 0.80758 0.19507 0.0
H1091 H 0.11405 0.82408 0.24782 0.0
H1092 H 0.03061 0.782 0.28245 0.0
H1093 H 0.02826 0.74963 0.23237 0.0
C1094 C 0.07003 0.74866 0.18323 0.0
C1095 C 0.09367 0.75065 0.1596 0.0
C1096 C 0.07038 0.76777 0.21139 0.0
C1097 C 0.11737 0.77232 0.16418 0.0
C1098 C 0.11786 0.79136 0.19203 0.0
C1099 C 0.09564 0.80753 0.2444 0.0
C1100 C 0.07293 0.8047 0.26866 0.0
C1101 C 0.09467 0.78911 0.21588 0.0
C1102 C 0.04836 0.78424 0.26383 0.0
C1103 C 0.04712 0.76576 0.23537 0.0
H1104 H 0.57022 0.14762 0.35956 0.0
H1105 H 0.6179 0.06251 0.37521 0.0
H1106 H 0.6308 0.0595 0.31637 0.0
H1107 H 0.62016 0.0761 0.25941 0.0
H1108 H 0.57099 0.16008 0.24282 0.0
H1109 H 0.56761 0.1691 0.30273 0.0
C1110 C 0.5844 0.1291 0.35015 0.0
C1111 C 0.5933 0.10538 0.3716 0.0
C1112 C 0.59115 0.1272 0.31598 0.0
C1113 C 0.61112 0.08113 0.35914 0.0
C1114 C 0.61827 0.07929 0.32546 0.0
C1115 C 0.6099 0.09701 0.26899 0.0
C1116 C 0.59614 0.11759 0.24684 0.0
C1117 C 0.6073 0.10149 0.30344 0.0
C1118 C 0.58222 0.14425 0.25944 0.0
C1119 C 0.57992 0.14915 0.29371 0.0
H1120 H 0.88186 0.10737 0.48392 0.0
H1121 H 0.97052 0.15142 0.48884 0.0
H1122 H 0.96391 0.16066 0.54817 0.0
H1123 H 0.93755 0.1473 0.59976 0.0
H1124 H 0.85091 0.0995 0.59635 0.0
H1125 H 0.85132 0.10147 0.53563 0.0
C1126 C 0.89917 0.11989 0.49791 0.0
C1127 C 0.92663 0.12882 0.48214 0.0
C1128 C 0.89557 0.12425 0.5324 0.0
C1129 C 0.94919 0.14452 0.5005 0.0
C1130 C 0.94546 0.14965 0.53444 0.0
C1131 C 0.91812 0.13858 0.58567 0.0
C1132 C 0.89413 0.12349 0.60244 0.0
C1133 C 0.91937 0.13846 0.55087 0.0
C1134 C 0.86936 0.11168 0.58401 0.0
C1135 C 0.8699 0.11234 0.54925 0.0
H1136 H 0.90821 0.33713 0.73987 0.0
H1137 H 0.84814 0.41294 0.71964 0.0
H1138 H 0.83351 0.41562 0.77811 0.0
H1139 H 0.84668 0.40355 0.83596 0.0
H1140 H 0.90812 0.32899 0.85655 0.0
H1141 H 0.91268 0.31782 0.79722 0.0
C1142 C 0.89101 0.35338 0.74819 0.0
C1143 C 0.87918 0.37482 0.72567 0.0
C1144 C 0.88322 0.35512 0.78203 0.0
C1145 C 0.85725 0.39608 0.73658 0.0
C1146 C 0.84913 0.39777 0.77006 0.0
C1147 C 0.8598 0.38391 0.82743 0.0
C1148 C 0.87683 0.36692 0.8505 0.0
C1149 C 0.86311 0.3784 0.79322 0.0
C1150 C 0.89441 0.34199 0.83925 0.0
C1151 C 0.8974 0.33597 0.80528 0.0
H1152 H 0.55688 0.35657 0.09462 0.0
H1153 H 0.61207 0.43875 0.08785 0.0
H1154 H 0.61888 0.4302 1.02843 0.0
H1155 H 0.60192 0.40451 0.97734 0.0
H1156 H 0.54333 0.32477 0.98242 0.0
H1157 H 0.54573 0.32637 1.04318 0.0
C1158 C 0.57102 0.37205 0.08015 0.0
C1159 C 0.58395 0.39831 0.09549 0.0
C1160 C 0.57411 0.3674 1.04558 0.0
C1161 C 0.60195 0.41844 0.07652 0.0
C1162 C 0.60576 0.41359 1.04254 0.0
C1163 C 0.59073 0.38676 0.99182 0.0
C1164 C 0.57275 0.36435 0.97546 0.0
C1165 C 0.59102 0.38883 1.02661 0.0
C1166 C 0.55777 0.34186 0.99442 0.0
C1167 C 0.55874 0.34314 1.02919 0.0
H1168 H 0.08863 0.60909 0.73554 0.0
H1169 H 0.13221 0.52147 0.74909 0.0
H1170 H 0.12866 0.52747 0.80921 0.0
H1171 H 0.10543 0.55351 0.85732 0.0
H1172 H 0.05939 0.63981 0.84428 0.0
H1173 H 0.07194 0.63897 0.78503 0.0
C1174 C 0.09831 0.59193 0.75178 0.0
C1175 C 0.11095 0.56499 0.73795 0.0
C1176 C 0.09536 0.59518 0.78651 0.0
C1177 C 0.12273 0.54251 0.7592 0.0
C1178 C 0.12046 0.54584 0.79358 0.0
C1179 C 0.09925 0.57268 0.84166 0.0
C1180 C 0.08197 0.59694 0.85516 0.0
C1181 C 0.10578 0.57149 0.80748 0.0
C1182 C 0.07325 0.62123 0.83453 0.0
C1183 C 0.08012 0.62053 0.80057 0.0
H1184 H 0.34345 0.54762 0.10703 0.0
H1185 H 0.3823 0.6356 0.13329 0.0
H1186 H 0.39086 0.64703 0.07457 0.0
H1187 H 0.39593 0.62746 1.01656 0.0
H1188 H 0.35841 0.53841 0.99177 0.0
H1189 H 0.34041 0.53199 1.04858 0.0
C1190 C 0.35259 0.56982 0.09974 0.0
C1191 C 0.36198 0.59083 0.12445 0.0
C1192 C 0.35831 0.57572 0.06604 0.0
C1193 C 0.37438 0.61928 0.11475 0.0
C1194 C 0.37972 0.62559 0.08114 0.0
C1195 C 0.38291 0.60718 1.02347 0.0
C1196 C 0.37844 0.58341 1.00001 0.0
C1197 C 0.37307 0.60338 0.05663 0.0
C1198 C 0.36197 0.55701 1.00936 0.0
C1199 C 0.35183 0.55327 1.04192 0.0
H1200 H 0.34519 0.93889 0.26618 0.0
H1201 H 0.41451 0.87401 0.23697 0.0
H1202 H 0.42055 0.85794 0.29461 0.0
H1203 H 0.41224 0.86902 0.35425 0.0
H1204 H 0.34178 0.93269 0.38331 0.0
H1205 H 0.32953 0.94219 0.32508 0.0
C1206 C 0.36074 0.92041 0.27238 0.0
C1207 C 0.3793 0.90753 0.2474 0.0
C1208 C 0.36414 0.91139 0.30567 0.0
C1209 C 0.39971 0.88394 0.25572 0.0
C1210 C 0.4034 0.875 0.28875 0.0
C1211 C 0.39344 0.88404 0.34772 0.0
C1212 C 0.37781 0.90005 0.37295 0.0
C1213 C 0.38662 0.88945 0.3141 0.0
C1214 C 0.35382 0.91986 0.36429 0.0
C1215 C 0.34705 0.92552 0.33098 0.0
H1216 H 0.14197 0.92489 0.51398 0.0
H1217 H 0.07482 0.85403 0.49491 0.0
H1218 H 0.06744 0.84698 0.55456 0.0
H1219 H 0.07295 0.86841 0.61134 0.0
H1220 H 0.139 0.94047 0.62979 0.0
H1221 H 0.15441 0.93951 0.57148 0.0
C1222 C 0.12673 0.90701 0.52302 0.0
C1223 C 0.10909 0.88984 0.50022 0.0
C1224 C 0.12202 0.9038 0.55729 0.0
C1225 C 0.08897 0.86713 0.51204 0.0
C1226 C 0.08444 0.86345 0.54615 0.0
C1227 C 0.09148 0.88304 0.60268 0.0
C1228 C 0.10502 0.90438 0.62465 0.0
C1229 C 0.09977 0.88269 0.56893 0.0
C1230 C 0.12859 0.92369 0.61327 0.0
C1231 C 0.13719 0.92328 0.57991 0.0
H1232 H 0.50047 0.07516 0.21054 0.0
H1233 H 0.55315 0.02336 0.13915 0.0
H1234 H 0.51125 0.98628 0.13343 0.0
H1235 H 0.46081 0.9675 0.15025 0.0
H1236 H 0.40808 0.01796 0.22256 0.0
H1237 H 0.44909 0.05663 0.22673 0.0
C1238 C 0.50281 0.05563 0.19392 0.0
C1239 C 0.52986 0.05197 0.17531 0.0
C1240 C 0.47869 0.03427 0.19091 0.0
C1241 C 0.53243 0.02683 0.15348 0.0
C1242 C 0.50855 0.00558 0.15029 0.0
C1243 C 0.45798 0.98731 0.16641 0.0
C1244 C 0.43134 0.99014 0.18578 0.0
C1245 C 0.48167 0.00904 0.16893 0.0
C1246 C 0.42839 0.01541 0.20735 0.0
C1247 C 0.45181 0.03743 0.20976 0.0
H1248 H 0.01782 0.07059 0.44894 0.0
H1249 H 0.95725 0.02955 0.37635 0.0
H1250 H 0.98995 0.98436 0.37303 0.0
H1251 H 0.03434 0.95507 0.39286 0.0
H1252 H 0.0941 -0.00474 0.46662 0.0
H1253 H 0.06313 0.04193 0.46754 0.0
C1254 C 0.01175 0.05172 0.43247 0.0
C1255 C 0.98514 0.0536 0.41287 0.0
C1256 C 0.0305 0.02553 0.43094 0.0
C1257 C 0.97782 0.02902 0.39137 0.0
C1258 C -0.00358 0.00302 0.38958 0.0
C1259 C 0.04083 0.97426 0.40871 0.0
C1260 C 0.0664 0.97169 0.42968 0.0
C1261 C 0.02269 0.0009 0.40941 0.0
C1262 C 0.07433 -0.00341 0.45045 0.0
C1263 C 0.05665 0.02329 0.45098 0.0
H1264 H 0.06313 0.47289 0.69529 0.0
H1265 H 0.03295 0.52879 0.61383 0.0
H1266 H 0.98838 0.49517 0.60583 0.0
H1267 H 0.95583 0.45196 0.62465 0.0
H1268 H 0.98589 0.397 0.70695 0.0
H1269 H 0.03215 0.42848 0.71228 0.0
C1270 C 0.04682 0.47777 0.67577 0.0
C1271 C 0.05144 0.50353 0.65534 0.0
C1272 C 0.02092 0.45866 0.67168 0.0
C1273 C 0.03027 0.50903 0.62976 0.0
C1274 C 0.00457 0.48993 0.62534 0.0
C1275 C 0.97271 0.44661 0.64345 0.0
C1276 C 0.96712 0.42228 0.66558 0.0
C1277 C -0.00062 0.46494 0.64648 0.0
C1278 C 0.98923 0.41589 0.68996 0.0
C1279 C 0.01581 0.4338 0.69294 0.0
H1280 H 0.43493 0.51023 0.88898 0.0
H1281 H 0.4855 0.54878 0.97126 0.0
H1282 H 0.52298 0.50724 0.96709 0.0
H1283 H 0.53987 0.45907 0.94182 0.0
H1284 H 0.48695 0.41764 0.86275 0.0
H1285 H 0.45257 0.46193 0.8629 0.0
C1286 C 0.45439 0.50966 0.9057 0.0
C1287 C 0.45756 0.53248 0.9304 0.0
C1288 C 0.47544 0.48536 0.90358 0.0
C1289 C 0.48257 0.53134 0.95223 0.0
C1290 C 0.50399 0.50768 0.94977 0.0
C1291 C 0.52068 0.45949 0.92474 0.0
C1292 C 0.51577 0.43469 0.90266 0.0
C1293 C 0.50037 0.48435 0.92588 0.0
C1294 C 0.4914 0.43635 0.87994 0.0
C1295 C 0.47155 0.46156 0.88024 0.0
H1296 H 0.49902 0.44276 0.20842 0.0
H1297 H 0.54356 0.49745 0.13355 0.0
H1298 H 0.50272 0.53556 0.13736 0.0
H1299 H 0.45338 0.55199 0.15983 0.0
H1300 H 0.40721 0.4967 0.23299 0.0
H1301 H 0.4502 0.46058 0.2328 0.0
C1302 C 0.49998 0.46327 0.19332 0.0
C1303 C 0.5242 0.46725 0.17062 0.0
C1304 C 0.47619 0.48491 0.19536 0.0
C1305 C 0.52499 0.49373 0.15092 0.0
C1306 C 0.50171 0.51554 0.15316 0.0
C1307 C 0.45262 0.53195 0.17566 0.0
C1308 C 0.42689 0.52676 0.19601 0.0
C1309 C 0.47699 0.51108 0.17486 0.0
C1310 C 0.42671 0.5012 0.21709 0.0
C1311 C 0.45119 0.48047 0.21682 0.0
H1312 H 0.53673 0.02172 0.47536 0.0
H1313 H 0.48837 0.0749 0.40254 0.0
H1314 H 0.44879 0.03511 0.3984 0.0
H1315 H 0.42905 0.9844 0.41341 0.0
H1316 H 0.47728 0.92978 0.48508 0.0
H1317 H 0.51553 0.97091 0.49203 0.0
C1318 C 0.51723 0.02471 0.45904 0.0
C1319 C 0.51546 0.05121 0.43926 0.0
C1320 C 0.49471 0.00136 0.45634 0.0
C1321 C 0.49027 0.05467 0.4179 0.0
C1322 C 0.46769 0.0319 0.41546 0.0
C1323 C 0.44809 0.9813 0.43033 0.0
C1324 C 0.45052 0.95378 0.4483 0.0
C1325 C 0.46996 0.00493 0.43408 0.0
C1326 C 0.47488 0.95066 0.47087 0.0
C1327 C 0.49678 0.97417 0.4748 0.0
H1328 H 0.05059 -0.00423 0.65696 0.0
H1329 H -0.00298 0.93638 0.71987 0.0
H1330 H 0.95559 0.97406 0.72105 0.0
H1331 H 0.93404 0.02336 0.70282 0.0
H1332 H 0.988 0.08255 0.63999 0.0
H1333 H 0.02968 0.04535 0.63986 0.0
C1334 C 0.02974 0.99101 0.67072 0.0
C1335 C 0.02679 0.96334 0.68818 0.0
C1336 C 0.00608 0.0127 0.67126 0.0
C1337 C -0.00011 0.95766 0.7064 0.0
C1338 C 0.97617 0.97912 0.707 0.0
C1339 C 0.95508 0.02821 0.68945 0.0
C1340 C 0.95786 0.05553 0.67128 0.0
C1341 C 0.97898 0.0067 0.68945 0.0
C1342 C 0.98514 0.06145 0.65378 0.0
C1343 C 0.00901 0.04026 0.65377 0.0
H1344 H 0.02586 0.5115 0.88779 0.0
H1345 H 0.9712 0.56903 0.95177 0.0
H1346 H 0.93238 0.52827 0.95592 0.0
H1347 H 0.91431 0.47608 0.94134 0.0
H1348 H 0.96985 0.41884 0.87781 0.0
H1349 H 0.00796 0.45989 0.87317 0.0
C1350 C 0.00519 0.5153 0.9022 0.0
C1351 C 0.00116 0.54325 0.91917 0.0
C1352 C 0.98328 0.4918 0.90465 0.0
C1353 C 0.97471 0.54763 0.93847 0.0
C1354 C 0.95258 0.52437 0.94086 0.0
C1355 C 0.93491 0.47258 0.92675 0.0
C1356 C 0.93929 0.44457 0.9099 0.0
C1357 C 0.95674 0.49628 0.9242 0.0
C1358 C 0.96586 0.44037 0.89073 0.0
C1359 C 0.98767 0.46376 0.88812 0.0
loop_
_geom_bond_atom_site_label_1
_geom_bond_atom_site_label_2
_geom_bond_distance
_geom_bond_site_symmetry_2
_ccdc_geom_bond_type
O0 Tb1 2.292 1_556 S
O0 C3 1.255 . S
Tb1 O0 2.292 1_554 S
Tb1 O17 2.326 . S
Tb1 O19 2.500 1_554 S
Tb1 O20 2.473 . S
Tb1 O23 2.324 . S
Eu2 O6 2.292 . S
Eu2 C7 2.852 . S
Eu2 O18 2.324 . S
Eu2 O22 2.326 . S
Eu2 O24 2.500 . S
Eu2 O25 2.473 . S
C3 O0 1.255 . S
C3 O4 1.247 . S
O4 C3 1.247 . S
C5 O17 1.242 . S
C5 O18 1.258 . S
O6 Eu2 2.292 . S
O6 C8 1.255 . S
C7 Eu2 2.852 . S
C7 C11 1.503 . S
C7 O24 1.273 . S
C7 O25 1.257 . S
C8 O6 1.255 . S
C8 O9 1.247 . S
O9 C8 1.247 . S
C10 O22 1.242 . S
C10 O23 1.258 . S
C11 C7 1.503 . S
C11 C12 1.379 . S
C11 C16 1.392 . S
C12 C11 1.379 . S
C12 C13 1.404 . S
C12 H26 0.929 . S
C13 C12 1.404 . S
C13 C14 1.389 . S
C14 C13 1.389 . S
C14 C15 1.399 . S
C14 H27 0.950 . S
C15 C14 1.399 . S
C15 C16 1.390 . S
C16 C11 1.392 . S
C16 C15 1.390 . S
C16 H28 0.929 . S
O17 Tb1 2.326 . S
O17 C5 1.242 . S
O18 Eu2 2.324 . S
O18 C5 1.258 . S
O19 Tb1 2.500 1_556 S
O19 C21 1.273 . S
O20 Tb1 2.473 . S
O20 C21 1.257 1_554 S
C21 O19 1.273 . S
C21 O20 1.257 1_556 S
O22 Eu2 2.326 . S
O22 C10 1.242 . S
O23 Tb1 2.324 . S
O23 C10 1.258 . S
O24 Eu2 2.500 . S
O24 C7 1.273 . S
O25 Eu2 2.473 . S
O25 C7 1.257 . S
H26 C12 0.929 . S
H27 C14 0.950 . S
H28 C16 0.929 . S
O29 Tb30 2.292 . S
O29 C32 1.255 . S
Tb30 O29 2.292 . S
Tb30 O46 2.326 . S
Tb30 O48 2.500 . S
Tb30 O49 2.473 . S
Tb30 O52 2.324 . S
Eu31 O35 2.292 . S
Eu31 C36 2.852 . S
Eu31 O47 2.324 . S
Eu31 O51 2.326 . S
Eu31 O53 2.500 . S
Eu31 O54 2.473 . S
C32 O29 1.255 . S
C32 O33 1.247 . S
O33 C32 1.247 . S
C34 O46 1.242 . S
C34 O47 1.258 . S
O35 Eu31 2.292 . S
O35 C37 1.255 . S
C36 Eu31 2.852 . S
C36 C40 1.503 . S
C36 O53 1.273 . S
C36 O54 1.257 . S
C37 O35 1.255 . S
C37 O38 1.247 . S
O38 C37 1.247 . S
C39 O51 1.242 . S
C39 O52 1.258 . S
C40 C36 1.503 . S
C40 C41 1.379 . S
C40 C45 1.392 . S
C41 C40 1.379 . S
C41 C42 1.404 . S
C41 H55 0.929 . S
C42 C41 1.404 . S
C42 C43 1.389 . S
C43 C42 1.389 . S
C43 C44 1.399 . S
C43 H56 0.950 . S
C44 C43 1.399 . S
C44 C45 1.390 . S
C45 C40 1.392 . S
C45 C44 1.390 . S
C45 H57 0.929 . S
O46 Tb30 2.326 . S
O46 C34 1.242 . S
O47 Eu31 2.324 . S
O47 C34 1.258 . S
O48 Tb30 2.500 . S
O48 C50 1.273 . S
O49 Tb30 2.473 . S
O49 C50 1.257 . S
C50 O48 1.273 . S
C50 O49 1.257 . S
O51 Eu31 2.326 . S
O51 C39 1.242 . S
O52 Tb30 2.324 . S
O52 C39 1.258 . S
O53 Eu31 2.500 . S
O53 C36 1.273 . S
O54 Eu31 2.473 . S
O54 C36 1.257 . S
H55 C41 0.929 . S
H56 C43 0.950 . S
H57 C45 0.929 . S
O58 Tb59 2.292 . S
O58 C61 1.255 . S
Tb59 O58 2.292 . S
Tb59 O75 2.326 . S
Tb59 O77 2.500 . S
Tb59 O78 2.473 . S
Tb59 O81 2.324 . S
Eu60 O64 2.292 . S
Eu60 C65 2.852 . S
Eu60 O76 2.324 . S
Eu60 O80 2.326 . S
Eu60 O82 2.500 . S
Eu60 O83 2.473 . S
C61 O58 1.255 . S
C61 O62 1.247 . S
O62 C61 1.247 . S
C63 O75 1.242 . S
C63 O76 1.258 . S
O64 Eu60 2.292 . S
O64 C66 1.255 . S
C65 Eu60 2.852 . S
C65 C69 1.503 . S
C65 O82 1.273 . S
C65 O83 1.257 . S
C66 O64 1.255 . S
C66 O67 1.247 . S
O67 C66 1.247 . S
C68 O80 1.242 . S
C68 O81 1.258 . S
C69 C65 1.503 . S
C69 C70 1.379 . S
C69 C74 1.392 . S
C70 C69 1.379 . S
C70 C71 1.404 . S
C70 H84 0.929 . S
C71 C70 1.404 . S
C71 C72 1.389 . S
C72 C71 1.389 . S
C72 C73 1.399 . S
C72 H85 0.931 . S
C73 C72 1.399 . S
C73 C74 1.390 . S
C74 C69 1.392 . S
C74 C73 1.390 . S
C74 H86 0.929 . S
O75 Tb59 2.326 . S
O75 C63 1.242 . S
O76 Eu60 2.324 . S
O76 C63 1.258 . S
O77 Tb59 2.500 . S
O77 C79 1.273 . S
O78 Tb59 2.473 . S
O78 C79 1.257 . S
C79 O77 1.273 . S
C79 O78 1.257 . S
O80 Eu60 2.326 . S
O80 C68 1.242 . S
O81 Tb59 2.324 . S
O81 C68 1.258 . S
O82 Eu60 2.500 . S
O82 C65 1.273 . S
O83 Eu60 2.473 . S
O83 C65 1.257 . S
H84 C70 0.929 . S
H85 C72 0.931 . S
H86 C74 0.929 . S
O87 Tb88 2.292 . S
O87 C90 1.255 . S
Tb88 O87 2.292 . S
Tb88 O104 2.326 . S
Tb88 O106 2.500 . S
Tb88 O107 2.473 . S
Tb88 O110 2.324 . S
Eu89 O93 2.292 . S
Eu89 C94 2.852 . S
Eu89 O105 2.324 . S
Eu89 O109 2.326 . S
Eu89 O111 2.500 . S
Eu89 O112 2.473 . S
C90 O87 1.255 . S
C90 O91 1.247 . S
O91 C90 1.247 . S
C92 O104 1.242 . S
C92 O105 1.258 . S
O93 Eu89 2.292 . S
O93 C95 1.255 . S
C94 Eu89 2.852 . S
C94 C98 1.503 . S
C94 O111 1.273 . S
C94 O112 1.257 . S
C95 O93 1.255 . S
C95 O96 1.247 . S
O96 C95 1.247 . S
C97 O109 1.242 . S
C97 O110 1.258 . S
C98 C94 1.503 . S
C98 C99 1.379 . S
C98 C103 1.392 . S
C99 C98 1.379 . S
C99 C100 1.404 . S
C99 H113 0.929 . S
C100 C99 1.404 . S
C100 C101 1.389 . S
C101 C100 1.389 . S
C101 C102 1.399 . S
C101 H114 0.931 . S
C102 C101 1.399 . S
C102 C103 1.390 . S
C103 C98 1.392 . S
C103 C102 1.390 . S
C103 H115 0.929 . S
O104 Tb88 2.326 . S
O104 C92 1.242 . S
O105 Eu89 2.324 . S
O105 C92 1.258 . S
O106 Tb88 2.500 . S
O106 C108 1.273 . S
O107 Tb88 2.473 . S
O107 C108 1.257 . S
C108 O106 1.273 . S
C108 O107 1.257 . S
O109 Eu89 2.326 . S
O109 C97 1.242 . S
O110 Tb88 2.324 . S
O110 C97 1.258 . S
O111 Eu89 2.500 . S
O111 C94 1.273 . S
O112 Eu89 2.473 . S
O112 C94 1.257 . S
H113 C99 0.929 . S
H114 C101 0.931 . S
H115 C103 0.929 . S
O116 Tb117 2.292 . S
O116 C119 1.255 . S
Tb117 O116 2.292 . S
Tb117 O133 2.326 . S
Tb117 O135 2.500 . S
Tb117 O136 2.473 . S
Tb117 O139 2.324 . S
Eu118 O122 2.292 . S
Eu118 C123 2.852 . S
Eu118 O134 2.324 . S
Eu118 O138 2.326 . S
Eu118 O140 2.500 . S
Eu118 O141 2.473 . S
C119 O116 1.255 . S
C119 O120 1.247 . S
O120 C119 1.247 . S
C121 O133 1.242 . S
C121 O134 1.258 . S
O122 Eu118 2.292 . S
O122 C124 1.255 . S
C123 Eu118 2.852 . S
C123 C127 1.503 . S
C123 O140 1.273 . S
C123 O141 1.257 . S
C124 O122 1.255 . S
C124 O125 1.247 . S
O125 C124 1.247 . S
C126 O138 1.242 . S
C126 O139 1.258 . S
C127 C123 1.503 . S
C127 C128 1.379 . S
C127 C132 1.392 . S
C128 C127 1.379 . S
C128 C129 1.404 . S
C128 H142 0.929 . S
C129 C128 1.404 . S
C129 C130 1.389 . S
C130 C129 1.389 . S
C130 C131 1.399 . S
C130 H143 0.931 . S
C131 C130 1.399 . S
C131 C132 1.390 . S
C132 C127 1.392 . S
C132 C131 1.390 . S
C132 H144 0.929 . S
O133 Tb117 2.326 . S
O133 C121 1.242 . S
O134 Eu118 2.324 . S
O134 C121 1.258 . S
O135 Tb117 2.500 . S
O135 C137 1.273 . S
O136 Tb117 2.473 . S
O136 C137 1.257 . S
C137 O135 1.273 . S
C137 O136 1.257 . S
O138 Eu118 2.326 . S
O138 C126 1.242 . S
O139 Tb117 2.324 . S
O139 C126 1.258 . S
O140 Eu118 2.500 . S
O140 C123 1.273 . S
O141 Eu118 2.473 . S
O141 C123 1.257 . S
H142 C128 0.929 . S
H143 C130 0.931 . S
H144 C132 0.929 . S
O145 Tb146 2.292 . S
O145 C148 1.255 . S
Tb146 O145 2.292 . S
Tb146 O162 2.326 . S
Tb146 O164 2.500 . S
Tb146 O165 2.473 . S
Tb146 O168 2.324 . S
Eu147 O151 2.292 . S
Eu147 C152 2.852 . S
Eu147 O163 2.324 . S
Eu147 O167 2.326 . S
Eu147 O169 2.500 . S
Eu147 O170 2.473 . S
C148 O145 1.255 . S
C148 O149 1.247 . S
O149 C148 1.247 . S
C150 O162 1.242 . S
C150 O163 1.258 . S
O151 Eu147 2.292 . S
O151 C153 1.255 . S
C152 Eu147 2.852 . S
C152 C156 1.503 . S
C152 O169 1.273 . S
C152 O170 1.257 . S
C153 O151 1.255 . S
C153 O154 1.247 . S
O154 C153 1.247 . S
C155 O167 1.242 . S
C155 O168 1.258 . S
C156 C152 1.503 . S
C156 C157 1.379 . S
C156 C161 1.392 . S
C157 C156 1.379 . S
C157 C158 1.404 . S
C157 H171 0.929 . S
C158 C157 1.404 . S
C158 C159 1.389 . S
C159 C158 1.389 . S
C159 C160 1.399 . S
C159 H172 0.931 . S
C160 C159 1.399 . S
C160 C161 1.390 . S
C161 C156 1.392 . S
C161 C160 1.390 . S
C161 H173 0.929 . S
O162 Tb146 2.326 . S
O162 C150 1.242 . S
O163 Eu147 2.324 . S
O163 C150 1.258 . S
O164 Tb146 2.500 . S
O164 C166 1.273 . S
O165 Tb146 2.473 . S
O165 C166 1.257 . S
C166 O164 1.273 . S
C166 O165 1.257 . S
O167 Eu147 2.326 . S
O167 C155 1.242 . S
O168 Tb146 2.324 . S
O168 C155 1.258 . S
O169 Eu147 2.500 . S
O169 C152 1.273 . S
O170 Eu147 2.473 . S
O170 C152 1.257 . S
H171 C157 0.929 . S
H172 C159 0.931 . S
H173 C161 0.929 . S
O174 Tb175 2.292 . S
O174 C177 1.255 . S
Tb175 O174 2.292 . S
Tb175 O191 2.326 . S
Tb175 O193 2.500 . S
Tb175 O194 2.473 . S
Tb175 O197 2.324 . S
Eu176 O180 2.292 . S
Eu176 C181 2.852 . S
Eu176 O192 2.324 . S
Eu176 O196 2.326 . S
Eu176 O198 2.500 . S
Eu176 O199 2.473 . S
C177 O174 1.255 . S
C177 O178 1.247 . S
O178 C177 1.247 . S
C179 O191 1.242 . S
C179 O192 1.258 . S
O180 Eu176 2.292 . S
O180 C182 1.255 . S
C181 Eu176 2.852 . S
C181 C185 1.503 . S
C181 O198 1.273 . S
C181 O199 1.257 . S
C182 O180 1.255 . S
C182 O183 1.247 . S
O183 C182 1.247 . S
C184 O196 1.242 . S
C184 O197 1.258 . S
C185 C181 1.503 . S
C185 C186 1.379 . S
C185 C190 1.392 . S
C186 C185 1.379 . S
C186 C187 1.404 . S
C186 H200 0.929 . S
C187 C186 1.404 . S
C187 C188 1.389 . S
C188 C187 1.389 . S
C188 C189 1.399 . S
C188 H201 0.950 . S
C189 C188 1.399 . S
C189 C190 1.390 . S
C190 C185 1.392 . S
C190 C189 1.390 . S
C190 H202 0.929 . S
O191 Tb175 2.326 . S
O191 C179 1.242 . S
O192 Eu176 2.324 . S
O192 C179 1.258 . S
O193 Tb175 2.500 . S
O193 C195 1.273 . S
O194 Tb175 2.473 . S
O194 C195 1.257 . S
C195 O193 1.273 . S
C195 O194 1.257 . S
O196 Eu176 2.326 . S
O196 C184 1.242 . S
O197 Tb175 2.324 . S
O197 C184 1.258 . S
O198 Eu176 2.500 . S
O198 C181 1.273 . S
O199 Eu176 2.473 . S
O199 C181 1.257 . S
H200 C186 0.929 . S
H201 C188 0.950 . S
H202 C190 0.929 . S
O203 Tb204 2.292 1_554 S
O203 C206 1.255 . S
Tb204 O203 2.292 1_556 S
Tb204 O220 2.326 . S
Tb204 O222 2.500 1_556 S
Tb204 O223 2.473 . S
Tb204 O226 2.324 . S
Eu205 O209 2.292 . S
Eu205 C210 2.852 . S
Eu205 O221 2.324 . S
Eu205 O225 2.326 . S
Eu205 O227 2.500 . S
Eu205 O228 2.473 . S
C206 O203 1.255 . S
C206 O207 1.247 . S
O207 C206 1.247 . S
C208 O220 1.242 . S
C208 O221 1.258 . S
O209 Eu205 2.292 . S
O209 C211 1.255 . S
C210 Eu205 2.852 . S
C210 C214 1.503 . S
C210 O227 1.273 . S
C210 O228 1.257 . S
C211 O209 1.255 . S
C211 O212 1.247 . S
O212 C211 1.247 . S
C213 O225 1.242 . S
C213 O226 1.258 . S
C214 C210 1.503 . S
C214 C215 1.379 . S
C214 C219 1.392 . S
C215 C214 1.379 . S
C215 C216 1.404 . S
C215 H229 0.929 . S
C216 C215 1.404 . S
C216 C217 1.389 . S
C217 C216 1.389 . S
C217 C218 1.399 . S
C217 H230 0.950 . S
C218 C217 1.399 . S
C218 C219 1.390 . S
C219 C214 1.392 . S
C219 C218 1.390 . S
C219 H231 0.929 . S
O220 Tb204 2.326 . S
O220 C208 1.242 . S
O221 Eu205 2.324 . S
O221 C208 1.258 . S
O222 Tb204 2.500 1_554 S
O222 C224 1.273 . S
O223 Tb204 2.473 . S
O223 C224 1.257 1_556 S
C224 O222 1.273 . S
C224 O223 1.257 1_554 S
O225 Eu205 2.326 . S
O225 C213 1.242 . S
O226 Tb204 2.324 . S
O226 C213 1.258 . S
O227 Eu205 2.500 . S
O227 C210 1.273 . S
O228 Eu205 2.473 . S
O228 C210 1.257 . S
H229 C215 0.929 . S
H230 C217 0.950 . S
H231 C219 0.929 . S
O232 Tb233 2.292 . S
O232 C235 1.255 . S
Tb233 O232 2.292 . S
Tb233 O249 2.326 . S
Tb233 O251 2.500 . S
Tb233 O252 2.473 . S
Tb233 O255 2.324 . S
Eu234 O238 2.292 . S
Eu234 C239 2.852 . S
Eu234 O250 2.324 . S
Eu234 O254 2.326 . S
Eu234 O256 2.500 . S
Eu234 O257 2.473 . S
C235 O232 1.255 . S
C235 O236 1.247 . S
O236 C235 1.247 . S
C237 O249 1.242 . S
C237 O250 1.258 . S
O238 Eu234 2.292 . S
O238 C240 1.255 . S
C239 Eu234 2.852 . S
C239 C243 1.503 . S
C239 O256 1.273 . S
C239 O257 1.257 . S
C240 O238 1.255 . S
C240 O241 1.247 . S
O241 C240 1.247 . S
C242 O254 1.242 . S
C242 O255 1.258 . S
C243 C239 1.503 . S
C243 C244 1.379 . S
C243 C248 1.392 . S
C244 C243 1.379 . S
C244 C245 1.404 . S
C244 H258 0.929 . S
C245 C244 1.404 . S
C245 C246 1.389 . S
C246 C245 1.389 . S
C246 C247 1.399 . S
C246 H259 0.931 . S
C247 C246 1.399 . S
C247 C248 1.390 . S
C248 C243 1.392 . S
C248 C247 1.390 . S
C248 H260 0.929 . S
O249 Tb233 2.326 . S
O249 C237 1.242 . S
O250 Eu234 2.324 . S
O250 C237 1.258 . S
O251 Tb233 2.500 . S
O251 C253 1.273 . S
O252 Tb233 2.473 . S
O252 C253 1.257 . S
C253 O251 1.273 . S
C253 O252 1.257 . S
O254 Eu234 2.326 . S
O254 C242 1.242 . S
O255 Tb233 2.324 . S
O255 C242 1.258 . S
O256 Eu234 2.500 . S
O256 C239 1.273 . S
O257 Eu234 2.473 . S
O257 C239 1.257 . S
H258 C244 0.929 . S
H259 C246 0.931 . S
H260 C248 0.929 . S
O261 Tb262 2.292 . S
O261 C264 1.255 . S
Tb262 O261 2.292 . S
Tb262 O278 2.326 . S
Tb262 O280 2.500 . S
Tb262 O281 2.473 . S
Tb262 O284 2.324 . S
Eu263 O267 2.292 . S
Eu263 C268 2.852 . S
Eu263 O279 2.324 . S
Eu263 O283 2.326 . S
Eu263 O285 2.500 . S
Eu263 O286 2.473 . S
C264 O261 1.255 . S
C264 O265 1.247 . S
O265 C264 1.247 . S
C266 O278 1.242 . S
C266 O279 1.258 . S
O267 Eu263 2.292 . S
O267 C269 1.255 . S
C268 Eu263 2.852 . S
C268 C272 1.503 . S
C268 O285 1.273 . S
C268 O286 1.257 . S
C269 O267 1.255 . S
C269 O270 1.247 . S
O270 C269 1.247 . S
C271 O283 1.242 . S
C271 O284 1.258 . S
C272 C268 1.503 . S
C272 C273 1.379 . S
C272 C277 1.392 . S
C273 C272 1.379 . S
C273 C274 1.404 . S
C273 H287 0.929 . S
C274 C273 1.404 . S
C274 C275 1.389 . S
C275 C274 1.389 . S
C275 C276 1.399 . S
C275 H288 0.931 . S
C276 C275 1.399 . S
C276 C277 1.390 . S
C277 C272 1.392 . S
C277 C276 1.390 . S
C277 H289 0.929 . S
O278 Tb262 2.326 . S
O278 C266 1.242 . S
O279 Eu263 2.324 . S
O279 C266 1.258 . S
O280 Tb262 2.500 . S
O280 C282 1.273 . S
O281 Tb262 2.473 . S
O281 C282 1.257 . S
C282 O280 1.273 . S
C282 O281 1.257 . S
O283 Eu263 2.326 . S
O283 C271 1.242 . S
O284 Tb262 2.324 . S
O284 C271 1.258 . S
O285 Eu263 2.500 . S
O285 C268 1.273 . S
O286 Eu263 2.473 . S
O286 C268 1.257 . S
H287 C273 0.929 . S
H288 C275 0.931 . S
H289 C277 0.929 . S
O290 Tb291 2.292 1_556 S
O290 C293 1.255 . S
Tb291 O290 2.292 1_554 S
Tb291 O307 2.326 . S
Tb291 O309 2.500 1_554 S
Tb291 O310 2.473 . S
Tb291 O313 2.324 . S
Eu292 O296 2.292 . S
Eu292 C297 2.852 . S
Eu292 O308 2.324 . S
Eu292 O312 2.326 . S
Eu292 O314 2.500 . S
Eu292 O315 2.473 . S
C293 O290 1.255 . S
C293 O294 1.247 . S
O294 C293 1.247 . S
C295 O307 1.242 . S
C295 O308 1.258 . S
O296 Eu292 2.292 . S
O296 C298 1.255 . S
C297 Eu292 2.852 . S
C297 C301 1.503 . S
C297 O314 1.273 . S
C297 O315 1.257 . S
C298 O296 1.255 . S
C298 O299 1.247 . S
O299 C298 1.247 . S
C300 O312 1.242 . S
C300 O313 1.258 . S
C301 C297 1.503 . S
C301 C302 1.379 . S
C301 C306 1.392 . S
C302 C301 1.379 . S
C302 C303 1.404 . S
C302 H316 0.929 . S
C303 C302 1.404 . S
C303 C304 1.389 . S
C304 C303 1.389 . S
C304 C305 1.399 . S
C304 H317 0.950 . S
C305 C304 1.399 . S
C305 C306 1.390 . S
C306 C301 1.392 . S
C306 C305 1.390 . S
C306 H318 0.929 . S
O307 Tb291 2.326 . S
O307 C295 1.242 . S
O308 Eu292 2.324 . S
O308 C295 1.258 . S
O309 Tb291 2.500 1_556 S
O309 C311 1.273 . S
O310 Tb291 2.473 . S
O310 C311 1.257 1_554 S
C311 O309 1.273 . S
C311 O310 1.257 1_556 S
O312 Eu292 2.326 . S
O312 C300 1.242 . S
O313 Tb291 2.324 . S
O313 C300 1.258 . S
O314 Eu292 2.500 . S
O314 C297 1.273 . S
O315 Eu292 2.473 . S
O315 C297 1.257 . S
H316 C302 0.929 . S
H317 C304 0.950 . S
H318 C306 0.929 . S
O319 Tb320 2.292 . S
O319 C322 1.255 . S
Tb320 O319 2.292 . S
Tb320 O336 2.326 . S
Tb320 O338 2.500 . S
Tb320 O339 2.473 . S
Tb320 O342 2.324 . S
Eu321 O325 2.292 . S
Eu321 C326 2.852 . S
Eu321 O337 2.324 . S
Eu321 O341 2.326 . S
Eu321 O343 2.500 . S
Eu321 O344 2.473 . S
C322 O319 1.255 . S
C322 O323 1.247 . S
O323 C322 1.247 . S
C324 O336 1.242 . S
C324 O337 1.258 . S
O325 Eu321 2.292 . S
O325 C327 1.255 . S
C326 Eu321 2.852 . S
C326 C330 1.503 . S
C326 O343 1.273 . S
C326 O344 1.257 . S
C327 O325 1.255 . S
C327 O328 1.247 . S
O328 C327 1.247 . S
C329 O341 1.242 . S
C329 O342 1.258 . S
C330 C326 1.503 . S
C330 C331 1.379 . S
C330 C335 1.392 . S
C331 C330 1.379 . S
C331 C332 1.404 . S
C331 H345 0.929 . S
C332 C331 1.404 . S
C332 C333 1.389 . S
C333 C332 1.389 . S
C333 C334 1.399 . S
C333 H346 0.950 . S
C334 C333 1.399 . S
C334 C335 1.390 . S
C335 C330 1.392 . S
C335 C334 1.390 . S
C335 H347 0.929 . S
O336 Tb320 2.326 . S
O336 C324 1.242 . S
O337 Eu321 2.324 . S
O337 C324 1.258 . S
O338 Tb320 2.500 . S
O338 C340 1.273 . S
O339 Tb320 2.473 . S
O339 C340 1.257 . S
C340 O338 1.273 . S
C340 O339 1.257 . S
O341 Eu321 2.326 . S
O341 C329 1.242 . S
O342 Tb320 2.324 . S
O342 C329 1.258 . S
O343 Eu321 2.500 . S
O343 C326 1.273 . S
O344 Eu321 2.473 . S
O344 C326 1.257 . S
H345 C331 0.929 . S
H346 C333 0.950 . S
H347 C335 0.929 . S
O348 Tb349 2.292 . S
O348 C351 1.255 . S
Tb349 O348 2.292 . S
Tb349 O365 2.326 . S
Tb349 O367 2.500 . S
Tb349 O368 2.473 . S
Tb349 O371 2.324 . S
Eu350 O354 2.292 . S
Eu350 C355 2.852 . S
Eu350 O366 2.324 . S
Eu350 O370 2.326 . S
Eu350 O372 2.500 . S
Eu350 O373 2.473 . S
C351 O348 1.255 . S
C351 O352 1.247 . S
O352 C351 1.247 . S
C353 O365 1.242 . S
C353 O366 1.258 . S
O354 Eu350 2.292 . S
O354 C356 1.255 . S
C355 Eu350 2.852 . S
C355 C359 1.503 . S
C355 O372 1.273 . S
C355 O373 1.257 . S
C356 O354 1.255 . S
C356 O357 1.247 . S
O357 C356 1.247 . S
C358 O370 1.242 . S
C358 O371 1.258 . S
C359 C355 1.503 . S
C359 C360 1.379 . S
C359 C364 1.392 . S
C360 C359 1.379 . S
C360 C361 1.404 . S
C360 H374 0.929 . S
C361 C360 1.404 . S
C361 C362 1.389 . S
C362 C361 1.389 . S
C362 C363 1.399 . S
C362 H375 0.950 . S
C363 C362 1.399 . S
C363 C364 1.390 . S
C364 C359 1.392 . S
C364 C363 1.390 . S
C364 H376 0.929 . S
O365 Tb349 2.326 . S
O365 C353 1.242 . S
O366 Eu350 2.324 . S
O366 C353 1.258 . S
O367 Tb349 2.500 . S
O367 C369 1.273 . S
O368 Tb349 2.473 . S
O368 C369 1.257 . S
C369 O367 1.273 . S
C369 O368 1.257 . S
O370 Eu350 2.326 . S
O370 C358 1.242 . S
O371 Tb349 2.324 . S
O371 C358 1.258 . S
O372 Eu350 2.500 . S
O372 C355 1.273 . S
O373 Eu350 2.473 . S
O373 C355 1.257 . S
H374 C360 0.929 . S
H375 C362 0.950 . S
H376 C364 0.929 . S
O377 Tb378 2.292 1_554 S
O377 C380 1.255 . S
Tb378 O377 2.292 1_556 S
Tb378 O394 2.326 . S
Tb378 O396 2.500 1_556 S
Tb378 O397 2.473 . S
Tb378 O400 2.324 . S
Eu379 O383 2.292 . S
Eu379 C384 2.852 . S
Eu379 O395 2.324 . S
Eu379 O399 2.326 . S
Eu379 O401 2.500 . S
Eu379 O402 2.473 . S
C380 O377 1.255 . S
C380 O381 1.247 . S
O381 C380 1.247 . S
C382 O394 1.242 . S
C382 O395 1.258 . S
O383 Eu379 2.292 . S
O383 C385 1.255 . S
C384 Eu379 2.852 . S
C384 C388 1.503 . S
C384 O401 1.273 . S
C384 O402 1.257 . S
C385 O383 1.255 . S
C385 O386 1.247 . S
O386 C385 1.247 . S
C387 O399 1.242 . S
C387 O400 1.258 . S
C388 C384 1.503 . S
C388 C389 1.379 . S
C388 C393 1.392 . S
C389 C388 1.379 . S
C389 C390 1.404 . S
C389 H403 0.929 . S
C390 C389 1.404 . S
C390 C391 1.389 . S
C391 C390 1.389 . S
C391 C392 1.399 . S
C391 H404 0.950 . S
C392 C391 1.399 . S
C392 C393 1.390 . S
C393 C388 1.392 . S
C393 C392 1.390 . S
C393 H405 0.929 . S
O394 Tb378 2.326 . S
O394 C382 1.242 . S
O395 Eu379 2.324 . S
O395 C382 1.258 . S
O396 Tb378 2.500 1_554 S
O396 C398 1.273 . S
O397 Tb378 2.473 . S
O397 C398 1.257 1_556 S
C398 O396 1.273 . S
C398 O397 1.257 1_554 S
O399 Eu379 2.326 . S
O399 C387 1.242 . S
O400 Tb378 2.324 . S
O400 C387 1.258 . S
O401 Eu379 2.500 . S
O401 C384 1.273 . S
O402 Eu379 2.473 . S
O402 C384 1.257 . S
H403 C389 0.929 . S
H404 C391 0.950 . S
H405 C393 0.929 . S
O406 Tb407 2.292 . S
O406 C409 1.255 . S
Tb407 O406 2.292 . S
Tb407 O423 2.326 . S
Tb407 O425 2.500 . S
Tb407 O426 2.473 . S
Tb407 O429 2.324 . S
Eu408 O412 2.292 . S
Eu408 C413 2.852 . S
Eu408 O424 2.324 . S
Eu408 O428 2.326 . S
Eu408 O430 2.500 . S
Eu408 O431 2.473 . S
C409 O406 1.255 . S
C409 O410 1.247 . S
O410 C409 1.247 . S
C411 O423 1.242 . S
C411 O424 1.258 . S
O412 Eu408 2.292 . S
O412 C414 1.255 . S
C413 Eu408 2.852 . S
C413 C417 1.503 . S
C413 O430 1.273 . S
C413 O431 1.257 . S
C414 O412 1.255 . S
C414 O415 1.247 . S
O415 C414 1.247 . S
C416 O428 1.242 . S
C416 O429 1.258 . S
C417 C413 1.503 . S
C417 C418 1.379 . S
C417 C422 1.392 . S
C418 C417 1.379 . S
C418 C419 1.404 . S
C418 H432 0.929 . S
C419 C418 1.404 . S
C419 C420 1.389 . S
C420 C419 1.389 . S
C420 C421 1.399 . S
C420 H433 0.931 . S
C421 C420 1.399 . S
C421 C422 1.390 . S
C422 C417 1.392 . S
C422 C421 1.390 . S
C422 H434 0.929 . S
O423 Tb407 2.326 . S
O423 C411 1.242 . S
O424 Eu408 2.324 . S
O424 C411 1.258 . S
O425 Tb407 2.500 . S
O425 C427 1.273 . S
O426 Tb407 2.473 . S
O426 C427 1.257 . S
C427 O425 1.273 . S
C427 O426 1.257 . S
O428 Eu408 2.326 . S
O428 C416 1.242 . S
O429 Tb407 2.324 . S
O429 C416 1.258 . S
O430 Eu408 2.500 . S
O430 C413 1.273 . S
O431 Eu408 2.473 . S
O431 C413 1.257 . S
H432 C418 0.929 . S
H433 C420 0.931 . S
H434 C422 0.929 . S
O435 Tb436 2.292 . S
O435 C438 1.255 . S
Tb436 O435 2.292 . S
Tb436 O452 2.326 . S
Tb436 O454 2.500 . S
Tb436 O455 2.473 . S
Tb436 O458 2.324 . S
Eu437 O441 2.292 . S
Eu437 C442 2.852 . S
Eu437 O453 2.324 . S
Eu437 O457 2.326 . S
Eu437 O459 2.500 . S
Eu437 O460 2.473 . S
C438 O435 1.255 . S
C438 O439 1.247 . S
O439 C438 1.247 . S
C440 O452 1.242 . S
C440 O453 1.258 . S
O441 Eu437 2.292 . S
O441 C443 1.255 . S
C442 Eu437 2.852 . S
C442 C446 1.503 . S
C442 O459 1.273 . S
C442 O460 1.257 . S
C443 O441 1.255 . S
C443 O444 1.247 . S
O444 C443 1.247 . S
C445 O457 1.242 . S
C445 O458 1.258 . S
C446 C442 1.503 . S
C446 C447 1.379 . S
C446 C451 1.392 . S
C447 C446 1.379 . S
C447 C448 1.404 . S
C447 H461 0.929 . S
C448 C447 1.404 . S
C448 C449 1.389 . S
C449 C448 1.389 . S
C449 C450 1.399 . S
C449 H462 0.931 . S
C450 C449 1.399 . S
C450 C451 1.390 . S
C451 C446 1.392 . S
C451 C450 1.390 . S
C451 H463 0.929 . S
O452 Tb436 2.326 . S
O452 C440 1.242 . S
O453 Eu437 2.324 . S
O453 C440 1.258 . S
O454 Tb436 2.500 . S
O454 C456 1.273 . S
O455 Tb436 2.473 . S
O455 C456 1.257 . S
C456 O454 1.273 . S
C456 O455 1.257 . S
O457 Eu437 2.326 . S
O457 C445 1.242 . S
O458 Tb436 2.324 . S
O458 C445 1.258 . S
O459 Eu437 2.500 . S
O459 C442 1.273 . S
O460 Eu437 2.473 . S
O460 C442 1.257 . S
H461 C447 0.929 . S
H462 C449 0.931 . S
H463 C451 0.929 . S
H464 C470 0.930 . S
H465 C473 0.930 . S
H466 C474 0.930 . S
H467 C475 0.930 . S
H468 C478 0.930 . S
H469 C479 0.930 . S
C470 H464 0.930 . S
C470 C471 1.355 . S
C470 C472 1.415 . S
C471 C470 1.355 . S
C471 C473 1.419 1_556 S
C472 C470 1.415 . S
C472 C477 1.425 1_556 S
C472 C479 1.409 . S
C473 H465 0.930 . S
C473 C471 1.419 1_554 S
C473 C474 1.362 . S
C474 H466 0.930 . S
C474 C473 1.362 . S
C474 C477 1.409 . S
C475 H467 0.930 . S
C475 C476 1.355 . S
C475 C477 1.415 . S
C476 C475 1.355 . S
C476 C478 1.419 1_554 S
C477 C472 1.425 1_554 S
C477 C474 1.409 . S
C477 C475 1.415 . S
C478 H468 0.930 . S
C478 C476 1.419 1_556 S
C478 C479 1.362 . S
C479 H469 0.930 . S
C479 C472 1.409 . S
C479 C478 1.362 . S
H480 C486 0.930 . S
H481 C489 0.930 . S
H482 C490 0.930 . S
H483 C491 0.930 . S
H484 C494 0.930 . S
H485 C495 0.930 . S
C486 H480 0.930 . S
C486 C487 1.355 . S
C486 C488 1.415 . S
C487 C486 1.355 . S
C487 C489 1.419 . S
C488 C486 1.415 . S
C488 C493 1.425 . S
C488 C495 1.409 . S
C489 H481 0.930 . S
C489 C487 1.419 . S
C489 C490 1.362 . S
C490 H482 0.930 . S
C490 C489 1.362 . S
C490 C493 1.409 . S
C491 H483 0.930 . S
C491 C492 1.355 . S
C491 C493 1.415 . S
C492 C491 1.355 . S
C492 C494 1.419 . S
C493 C488 1.425 . S
C493 C490 1.409 . S
C493 C491 1.415 . S
C494 H484 0.930 . S
C494 C492 1.419 . S
C494 C495 1.362 . S
C495 H485 0.930 . S
C495 C488 1.409 . S
C495 C494 1.362 . S
H496 C502 0.930 . S
H497 C505 0.930 . S
H498 C506 0.930 . S
H499 C507 0.930 . S
H500 C510 0.930 . S
H501 C511 0.930 . S
C502 H496 0.930 . S
C502 C503 1.355 . S
C502 C504 1.415 . S
C503 C502 1.355 . S
C503 C505 1.419 . S
C504 C502 1.415 . S
C504 C509 1.425 . S
C504 C511 1.409 . S
C505 H497 0.930 . S
C505 C503 1.419 . S
C505 C506 1.362 . S
C506 H498 0.930 . S
C506 C505 1.362 . S
C506 C509 1.409 . S
C507 H499 0.930 . S
C507 C508 1.355 . S
C507 C509 1.415 . S
C508 C507 1.355 . S
C508 C510 1.419 . S
C509 C504 1.425 . S
C509 C506 1.409 . S
C509 C507 1.415 . S
C510 H500 0.930 . S
C510 C508 1.419 . S
C510 C511 1.362 . S
C511 H501 0.930 . S
C511 C504 1.409 . S
C511 C510 1.362 . S
H512 C518 0.930 . S
H513 C521 0.930 . S
H514 C522 0.930 . S
H515 C523 0.930 . S
H516 C526 0.930 . S
H517 C527 0.930 . S
C518 H512 0.930 . S
C518 C519 1.355 . S
C518 C520 1.415 . S
C519 C518 1.355 . S
C519 C521 1.419 . S
C520 C518 1.415 . S
C520 C525 1.425 . S
C520 C527 1.409 . S
C521 H513 0.930 . S
C521 C519 1.419 . S
C521 C522 1.362 . S
C522 H514 0.930 . S
C522 C521 1.362 . S
C522 C525 1.409 . S
C523 H515 0.930 . S
C523 C524 1.355 . S
C523 C525 1.415 . S
C524 C523 1.355 . S
C524 C526 1.419 . S
C525 C520 1.425 . S
C525 C522 1.409 . S
C525 C523 1.415 . S
C526 H516 0.930 . S
C526 C524 1.419 . S
C526 C527 1.362 . S
C527 H517 0.930 . S
C527 C520 1.409 . S
C527 C526 1.362 . S
H528 C534 0.930 . S
H529 C537 0.930 . S
H530 C538 0.930 . S
H531 C539 0.930 . S
H532 C542 0.930 . S
H533 C543 0.930 . S
C534 H528 0.930 . S
C534 C535 1.355 . S
C534 C536 1.415 . S
C535 C534 1.355 . S
C535 C537 1.419 . S
C536 C534 1.415 . S
C536 C541 1.425 . S
C536 C543 1.409 . S
C537 H529 0.930 . S
C537 C535 1.419 . S
C537 C538 1.362 . S
C538 H530 0.930 . S
C538 C537 1.362 . S
C538 C541 1.409 . S
C539 H531 0.930 . S
C539 C540 1.355 . S
C539 C541 1.415 . S
C540 C539 1.355 . S
C540 C542 1.419 . S
C541 C536 1.425 . S
C541 C538 1.409 . S
C541 C539 1.415 . S
C542 H532 0.930 . S
C542 C540 1.419 . S
C542 C543 1.362 . S
C543 H533 0.930 . S
C543 C536 1.409 . S
C543 C542 1.362 . S
H544 C550 0.930 . S
H545 C553 0.930 . S
H546 C554 0.930 . S
H547 C555 0.930 . S
H548 C558 0.930 . S
H549 C559 0.930 . S
C550 H544 0.930 . S
C550 C551 1.355 . S
C550 C552 1.415 . S
C551 C550 1.355 . S
C551 C553 1.419 . S
C552 C550 1.415 . S
C552 C557 1.425 . S
C552 C559 1.409 . S
C553 H545 0.930 . S
C553 C551 1.419 . S
C553 C554 1.362 . S
C554 H546 0.930 . S
C554 C553 1.362 . S
C554 C557 1.409 . S
C555 H547 0.930 . S
C555 C556 1.355 . S
C555 C557 1.415 . S
C556 C555 1.355 . S
C556 C558 1.419 . S
C557 C552 1.425 . S
C557 C554 1.409 . S
C557 C555 1.415 . S
C558 H548 0.930 . S
C558 C556 1.419 . S
C558 C559 1.362 . S
C559 H549 0.930 . S
C559 C552 1.409 . S
C559 C558 1.362 . S
H560 C566 0.930 . S
H561 C569 0.930 . S
H562 C570 0.930 . S
H563 C571 0.930 . S
H564 C574 0.930 . S
H565 C575 0.930 . S
C566 H560 0.930 . S
C566 C567 1.355 . S
C566 C568 1.415 . S
C567 C566 1.355 . S
C567 C569 1.419 . S
C568 C566 1.415 . S
C568 C573 1.425 1_556 S
C568 C575 1.409 1_556 S
C569 H561 0.930 . S
C569 C567 1.419 . S
C569 C570 1.362 . S
C570 H562 0.930 . S
C570 C569 1.362 . S
C570 C573 1.409 1_556 S
C571 H563 0.930 . S
C571 C572 1.355 . S
C571 C573 1.415 . S
C572 C571 1.355 . S
C572 C574 1.419 . S
C573 C568 1.425 1_554 S
C573 C570 1.409 1_554 S
C573 C571 1.415 . S
C574 H564 0.930 . S
C574 C572 1.419 . S
C574 C575 1.362 . S
C575 H565 0.930 . S
C575 C568 1.409 1_554 S
C575 C574 1.362 . S
H576 C582 0.930 . S
H577 C585 0.930 . S
H578 C586 0.930 . S
H579 C587 0.930 . S
H580 C590 0.930 . S
H581 C591 0.930 . S
C582 H576 0.930 . S
C582 C583 1.355 . S
C582 C584 1.415 . S
C583 C582 1.355 . S
C583 C585 1.419 . S
C584 C582 1.415 . S
C584 C589 1.425 . S
C584 C591 1.409 . S
C585 H577 0.930 . S
C585 C583 1.419 . S
C585 C586 1.362 . S
C586 H578 0.930 . S
C586 C585 1.362 . S
C586 C589 1.409 . S
C587 H579 0.930 . S
C587 C588 1.355 . S
C587 C589 1.415 . S
C588 C587 1.355 . S
C588 C590 1.419 . S
C589 C584 1.425 . S
C589 C586 1.409 . S
C589 C587 1.415 . S
C590 H580 0.930 . S
C590 C588 1.419 . S
C590 C591 1.362 . S
C591 H581 0.930 . S
C591 C584 1.409 . S
C591 C590 1.362 . S
H592 C598 0.930 . S
H593 C601 0.930 . S
H594 C602 0.930 . S
H595 C603 0.930 . S
H596 C606 0.930 . S
H597 C607 0.930 . S
C598 H592 0.930 . S
C598 C599 1.355 . S
C598 C600 1.415 . S
C599 C598 1.355 . S
C599 C601 1.419 . S
C600 C598 1.415 . S
C600 C605 1.425 . S
C600 C607 1.409 . S
C601 H593 0.930 . S
C601 C599 1.419 . S
C601 C602 1.362 . S
C602 H594 0.930 . S
C602 C601 1.362 . S
C602 C605 1.409 . S
C603 H595 0.930 . S
C603 C604 1.355 . S
C603 C605 1.415 . S
C604 C603 1.355 . S
C604 C606 1.419 . S
C605 C600 1.425 . S
C605 C602 1.409 . S
C605 C603 1.415 . S
C606 H596 0.930 . S
C606 C604 1.419 . S
C606 C607 1.362 . S
C607 H597 0.930 . S
C607 C600 1.409 . S
C607 C606 1.362 . S
H608 C614 0.930 . S
H609 C617 0.930 . S
H610 C618 0.930 . S
H611 C619 0.930 . S
H612 C622 0.930 . S
H613 C623 0.930 . S
C614 H608 0.930 . S
C614 C615 1.355 . S
C614 C616 1.415 . S
C615 C614 1.355 . S
C615 C617 1.419 . S
C616 C614 1.415 . S
C616 C621 1.425 . S
C616 C623 1.409 . S
C617 H609 0.930 . S
C617 C615 1.419 . S
C617 C618 1.362 . S
C618 H610 0.930 . S
C618 C617 1.362 . S
C618 C621 1.409 . S
C619 H611 0.930 . S
C619 C620 1.355 . S
C619 C621 1.415 . S
C620 C619 1.355 . S
C620 C622 1.419 . S
C621 C616 1.425 . S
C621 C618 1.409 . S
C621 C619 1.415 . S
C622 H612 0.930 . S
C622 C620 1.419 . S
C622 C623 1.362 . S
C623 H613 0.930 . S
C623 C616 1.409 . S
C623 C622 1.362 . S
H624 C630 0.930 . S
H625 C633 0.930 . S
H626 C634 0.930 . S
H627 C635 0.930 . S
H628 C638 0.930 . S
H629 C639 0.930 . S
C630 H624 0.930 . S
C630 C631 1.355 . S
C630 C632 1.415 . S
C631 C630 1.355 . S
C631 C633 1.419 . S
C632 C630 1.415 . S
C632 C637 1.425 . S
C632 C639 1.409 . S
C633 H625 0.930 . S
C633 C631 1.419 . S
C633 C634 1.362 . S
C634 H626 0.930 . S
C634 C633 1.362 . S
C634 C637 1.409 . S
C635 H627 0.930 . S
C635 C636 1.355 . S
C635 C637 1.415 . S
C636 C635 1.355 . S
C636 C638 1.419 . S
C637 C632 1.425 . S
C637 C634 1.409 . S
C637 C635 1.415 . S
C638 H628 0.930 . S
C638 C636 1.419 . S
C638 C639 1.362 . S
C639 H629 0.930 . S
C639 C632 1.409 . S
C639 C638 1.362 . S
H640 C646 0.930 . S
H641 C649 0.930 . S
H642 C650 0.930 . S
H643 C651 0.930 . S
H644 C654 0.930 . S
H645 C655 0.930 . S
C646 H640 0.930 . S
C646 C647 1.355 . S
C646 C648 1.415 . S
C647 C646 1.355 . S
C647 C649 1.419 . S
C648 C646 1.415 . S
C648 C653 1.425 . S
C648 C655 1.409 . S
C649 H641 0.930 . S
C649 C647 1.419 . S
C649 C650 1.362 . S
C650 H642 0.930 . S
C650 C649 1.362 . S
C650 C653 1.409 . S
C651 H643 0.930 . S
C651 C652 1.355 . S
C651 C653 1.415 . S
C652 C651 1.355 . S
C652 C654 1.419 . S
C653 C648 1.425 . S
C653 C650 1.409 . S
C653 C651 1.415 . S
C654 H644 0.930 . S
C654 C652 1.419 . S
C654 C655 1.362 . S
C655 H645 0.930 . S
C655 C648 1.409 . S
C655 C654 1.362 . S
H656 C662 0.930 . S
H657 C665 0.930 . S
H658 C666 0.930 . S
H659 C667 0.930 . S
H660 C670 0.930 . S
H661 C671 0.930 . S
C662 H656 0.930 . S
C662 C663 1.355 . S
C662 C664 1.415 . S
C663 C662 1.355 . S
C663 C665 1.419 . S
C664 C662 1.415 . S
C664 C669 1.425 . S
C664 C671 1.409 . S
C665 H657 0.930 . S
C665 C663 1.419 . S
C665 C666 1.362 . S
C666 H658 0.930 . S
C666 C665 1.362 . S
C666 C669 1.409 . S
C667 H659 0.930 . S
C667 C668 1.355 . S
C667 C669 1.415 . S
C668 C667 1.355 . S
C668 C670 1.419 . S
C669 C664 1.425 . S
C669 C666 1.409 . S
C669 C667 1.415 . S
C670 H660 0.930 . S
C670 C668 1.419 . S
C670 C671 1.362 . S
C671 H661 0.930 . S
C671 C664 1.409 . S
C671 C670 1.362 . S
H672 C678 0.930 . S
H673 C681 0.930 . S
H674 C682 0.930 . S
H675 C683 0.930 . S
H676 C686 0.930 . S
H677 C687 0.930 . S
C678 H672 0.930 . S
C678 C679 1.355 . S
C678 C680 1.415 . S
C679 C678 1.355 . S
C679 C681 1.419 . S
C680 C678 1.415 . S
C680 C685 1.425 . S
C680 C687 1.409 . S
C681 H673 0.930 . S
C681 C679 1.419 . S
C681 C682 1.362 . S
C682 H674 0.930 . S
C682 C681 1.362 . S
C682 C685 1.409 . S
C683 H675 0.930 . S
C683 C684 1.355 . S
C683 C685 1.415 . S
C684 C683 1.355 . S
C684 C686 1.419 . S
C685 C680 1.425 . S
C685 C682 1.409 . S
C685 C683 1.415 . S
C686 H676 0.930 . S
C686 C684 1.419 . S
C686 C687 1.362 . S
C687 H677 0.930 . S
C687 C680 1.409 . S
C687 C686 1.362 . S
H688 C694 0.930 . S
H689 C697 0.930 . S
H690 C698 0.930 . S
H691 C699 0.930 . S
H692 C702 0.930 . S
H693 C703 0.930 . S
C694 H688 0.930 . S
C694 C695 1.355 . S
C694 C696 1.415 . S
C695 C694 1.355 . S
C695 C697 1.419 . S
C696 C694 1.415 . S
C696 C701 1.425 . S
C696 C703 1.409 . S
C697 H689 0.930 . S
C697 C695 1.419 . S
C697 C698 1.362 . S
C698 H690 0.930 . S
C698 C697 1.362 . S
C698 C701 1.409 . S
C699 H691 0.930 . S
C699 C700 1.355 . S
C699 C701 1.415 . S
C700 C699 1.355 . S
C700 C702 1.419 . S
C701 C696 1.425 . S
C701 C698 1.409 . S
C701 C699 1.415 . S
C702 H692 0.930 . S
C702 C700 1.419 . S
C702 C703 1.362 . S
C703 H693 0.930 . S
C703 C696 1.409 . S
C703 C702 1.362 . S
H704 C710 0.930 . S
H705 C713 0.930 . S
H706 C714 0.930 . S
H707 C715 0.930 . S
H708 C718 0.930 . S
H709 C719 0.930 . S
C710 H704 0.930 . S
C710 C711 1.355 . S
C710 C712 1.415 . S
C711 C710 1.355 . S
C711 C713 1.419 . S
C712 C710 1.415 . S
C712 C717 1.425 . S
C712 C719 1.409 . S
C713 H705 0.930 . S
C713 C711 1.419 . S
C713 C714 1.362 . S
C714 H706 0.930 . S
C714 C713 1.362 . S
C714 C717 1.409 . S
C715 H707 0.930 . S
C715 C716 1.355 . S
C715 C717 1.415 . S
C716 C715 1.355 . S
C716 C718 1.419 . S
C717 C712 1.425 . S
C717 C714 1.409 . S
C717 C715 1.415 . S
C718 H708 0.930 . S
C718 C716 1.419 . S
C718 C719 1.362 . S
C719 H709 0.930 . S
C719 C712 1.409 . S
C719 C718 1.362 . S
H720 C726 0.930 . S
H721 C729 0.930 . S
H722 C730 0.930 . S
H723 C731 0.930 . S
H724 C734 0.930 . S
H725 C735 0.930 . S
C726 H720 0.930 . S
C726 C727 1.355 . S
C726 C728 1.415 . S
C727 C726 1.355 . S
C727 C729 1.419 . S
C728 C726 1.415 . S
C728 C733 1.425 . S
C728 C735 1.409 . S
C729 H721 0.930 . S
C729 C727 1.419 . S
C729 C730 1.362 . S
C730 H722 0.930 . S
C730 C729 1.362 . S
C730 C733 1.409 . S
C731 H723 0.930 . S
C731 C732 1.355 . S
C731 C733 1.415 . S
C732 C731 1.355 . S
C732 C734 1.419 . S
C733 C728 1.425 . S
C733 C730 1.409 . S
C733 C731 1.415 . S
C734 H724 0.930 . S
C734 C732 1.419 . S
C734 C735 1.362 . S
C735 H725 0.930 . S
C735 C728 1.409 . S
C735 C734 1.362 . S
H736 C742 0.930 . S
H737 C745 0.930 . S
H738 C746 0.930 . S
H739 C747 0.930 . S
H740 C750 0.930 . S
H741 C751 0.930 . S
C742 H736 0.930 . S
C742 C743 1.355 . S
C742 C744 1.415 . S
C743 C742 1.355 . S
C743 C745 1.419 . S
C744 C742 1.415 . S
C744 C749 1.425 . S
C744 C751 1.409 . S
C745 H737 0.930 . S
C745 C743 1.419 . S
C745 C746 1.362 . S
C746 H738 0.930 . S
C746 C745 1.362 . S
C746 C749 1.409 . S
C747 H739 0.930 . S
C747 C748 1.355 . S
C747 C749 1.415 . S
C748 C747 1.355 . S
C748 C750 1.419 . S
C749 C744 1.425 . S
C749 C746 1.409 . S
C749 C747 1.415 . S
C750 H740 0.930 . S
C750 C748 1.419 . S
C750 C751 1.362 . S
C751 H741 0.930 . S
C751 C744 1.409 . S
C751 C750 1.362 . S
H752 C758 0.930 . S
H753 C761 0.930 . S
H754 C762 0.930 . S
H755 C763 0.930 . S
H756 C766 0.930 . S
H757 C767 0.930 . S
C758 H752 0.930 . S
C758 C759 1.355 . S
C758 C760 1.415 . S
C759 C758 1.355 . S
C759 C761 1.419 . S
C760 C758 1.415 . S
C760 C765 1.425 . S
C760 C767 1.409 . S
C761 H753 0.930 . S
C761 C759 1.419 . S
C761 C762 1.362 . S
C762 H754 0.930 . S
C762 C761 1.362 . S
C762 C765 1.409 . S
C763 H755 0.930 . S
C763 C764 1.355 . S
C763 C765 1.415 . S
C764 C763 1.355 . S
C764 C766 1.419 . S
C765 C760 1.425 . S
C765 C762 1.409 . S
C765 C763 1.415 . S
C766 H756 0.930 . S
C766 C764 1.419 . S
C766 C767 1.362 . S
C767 H757 0.930 . S
C767 C760 1.409 . S
C767 C766 1.362 . S
H768 C774 0.930 . S
H769 C777 0.930 . S
H770 C778 0.930 . S
H771 C779 0.930 . S
H772 C782 0.930 . S
H773 C783 0.930 . S
C774 H768 0.930 . S
C774 C775 1.355 . S
C774 C776 1.415 . S
C775 C774 1.355 . S
C775 C777 1.419 . S
C776 C774 1.415 . S
C776 C781 1.425 . S
C776 C783 1.409 . S
C777 H769 0.930 . S
C777 C775 1.419 . S
C777 C778 1.362 . S
C778 H770 0.930 . S
C778 C777 1.362 . S
C778 C781 1.409 . S
C779 H771 0.930 . S
C779 C780 1.355 . S
C779 C781 1.415 . S
C780 C779 1.355 . S
C780 C782 1.419 . S
C781 C776 1.425 . S
C781 C778 1.409 . S
C781 C779 1.415 . S
C782 H772 0.930 . S
C782 C780 1.419 . S
C782 C783 1.362 . S
C783 H773 0.930 . S
C783 C776 1.409 . S
C783 C782 1.362 . S
H784 C790 0.930 . S
H785 C793 0.930 . S
H786 C794 0.930 . S
H787 C795 0.930 . S
H788 C798 0.930 . S
H789 C799 0.930 . S
C790 H784 0.930 . S
C790 C791 1.355 . S
C790 C792 1.415 . S
C791 C790 1.355 . S
C791 C793 1.419 . S
C792 C790 1.415 . S
C792 C797 1.425 . S
C792 C799 1.409 . S
C793 H785 0.930 . S
C793 C791 1.419 . S
C793 C794 1.362 . S
C794 H786 0.930 . S
C794 C793 1.362 . S
C794 C797 1.409 . S
C795 H787 0.930 . S
C795 C796 1.355 . S
C795 C797 1.415 . S
C796 C795 1.355 . S
C796 C798 1.419 . S
C797 C792 1.425 . S
C797 C794 1.409 . S
C797 C795 1.415 . S
C798 H788 0.930 . S
C798 C796 1.419 . S
C798 C799 1.362 . S
C799 H789 0.930 . S
C799 C792 1.409 . S
C799 C798 1.362 . S
H800 C806 0.930 . S
H801 C809 0.930 . S
H802 C810 0.930 . S
H803 C811 0.930 . S
H804 C814 0.930 . S
H805 C815 0.930 . S
C806 H800 0.930 . S
C806 C807 1.355 . S
C806 C808 1.415 . S
C807 C806 1.355 . S
C807 C809 1.419 . S
C808 C806 1.415 . S
C808 C813 1.425 . S
C808 C815 1.409 . S
C809 H801 0.930 . S
C809 C807 1.419 . S
C809 C810 1.362 . S
C810 H802 0.930 . S
C810 C809 1.362 . S
C810 C813 1.409 . S
C811 H803 0.930 . S
C811 C812 1.355 . S
C811 C813 1.415 . S
C812 C811 1.355 . S
C812 C814 1.419 . S
C813 C808 1.425 . S
C813 C810 1.409 . S
C813 C811 1.415 . S
C814 H804 0.930 . S
C814 C812 1.419 . S
C814 C815 1.362 . S
C815 H805 0.930 . S
C815 C808 1.409 . S
C815 C814 1.362 . S
H816 C822 0.930 . S
H817 C825 0.930 . S
H818 C826 0.930 . S
H819 C827 0.930 . S
H820 C830 0.930 . S
H821 C831 0.930 . S
C822 H816 0.930 . S
C822 C823 1.355 . S
C822 C824 1.415 . S
C823 C822 1.355 . S
C823 C825 1.419 . S
C824 C822 1.415 . S
C824 C829 1.425 . S
C824 C831 1.409 . S
C825 H817 0.930 . S
C825 C823 1.419 . S
C825 C826 1.362 . S
C826 H818 0.930 . S
C826 C825 1.362 . S
C826 C829 1.409 . S
C827 H819 0.930 . S
C827 C828 1.355 . S
C827 C829 1.415 . S
C828 C827 1.355 . S
C828 C830 1.419 . S
C829 C824 1.425 . S
C829 C826 1.409 . S
C829 C827 1.415 . S
C830 H820 0.930 . S
C830 C828 1.419 . S
C830 C831 1.362 . S
C831 H821 0.930 . S
C831 C824 1.409 . S
C831 C830 1.362 . S
H832 C838 0.930 . S
H833 C841 0.930 . S
H834 C842 0.930 . S
H835 C843 0.930 . S
H836 C846 0.930 . S
H837 C847 0.930 . S
C838 H832 0.930 . S
C838 C839 1.355 . S
C838 C840 1.415 . S
C839 C838 1.355 . S
C839 C841 1.419 . S
C840 C838 1.415 . S
C840 C845 1.425 . S
C840 C847 1.409 . S
C841 H833 0.930 . S
C841 C839 1.419 . S
C841 C842 1.362 . S
C842 H834 0.930 . S
C842 C841 1.362 . S
C842 C845 1.409 . S
C843 H835 0.930 . S
C843 C844 1.355 . S
C843 C845 1.415 . S
C844 C843 1.355 . S
C844 C846 1.419 . S
C845 C840 1.425 . S
C845 C842 1.409 . S
C845 C843 1.415 . S
C846 H836 0.930 . S
C846 C844 1.419 . S
C846 C847 1.362 . S
C847 H837 0.930 . S
C847 C840 1.409 . S
C847 C846 1.362 . S
H848 C854 0.930 . S
H849 C857 0.930 . S
H850 C858 0.930 . S
H851 C859 0.930 . S
H852 C862 0.930 . S
H853 C863 0.930 . S
C854 H848 0.930 . S
C854 C855 1.355 . S
C854 C856 1.415 . S
C855 C854 1.355 . S
C855 C857 1.419 . S
C856 C854 1.415 . S
C856 C861 1.425 . S
C856 C863 1.409 . S
C857 H849 0.930 . S
C857 C855 1.419 . S
C857 C858 1.362 . S
C858 H850 0.930 . S
C858 C857 1.362 . S
C858 C861 1.409 . S
C859 H851 0.930 . S
C859 C860 1.355 . S
C859 C861 1.415 . S
C860 C859 1.355 . S
C860 C862 1.419 . S
C861 C856 1.425 . S
C861 C858 1.409 . S
C861 C859 1.415 . S
C862 H852 0.930 . S
C862 C860 1.419 . S
C862 C863 1.362 . S
C863 H853 0.930 . S
C863 C856 1.409 . S
C863 C862 1.362 . S
H864 C870 0.930 . S
H865 C873 0.930 . S
H866 C874 0.930 . S
H867 C875 0.930 . S
H868 C878 0.930 . S
H869 C879 0.930 . S
C870 H864 0.930 . S
C870 C871 1.355 . S
C870 C872 1.415 . S
C871 C870 1.355 . S
C871 C873 1.419 . S
C872 C870 1.415 . S
C872 C877 1.425 . S
C872 C879 1.409 . S
C873 H865 0.930 . S
C873 C871 1.419 . S
C873 C874 1.362 . S
C874 H866 0.930 . S
C874 C873 1.362 . S
C874 C877 1.409 . S
C875 H867 0.930 . S
C875 C876 1.355 . S
C875 C877 1.415 . S
C876 C875 1.355 . S
C876 C878 1.419 . S
C877 C872 1.425 . S
C877 C874 1.409 . S
C877 C875 1.415 . S
C878 H868 0.930 . S
C878 C876 1.419 . S
C878 C879 1.362 . S
C879 H869 0.930 . S
C879 C872 1.409 . S
C879 C878 1.362 . S
H880 C886 0.930 . S
H881 C889 0.930 . S
H882 C890 0.930 . S
H883 C891 0.930 . S
H884 C894 0.930 . S
H885 C895 0.930 . S
C886 H880 0.930 . S
C886 C887 1.355 . S
C886 C888 1.415 . S
C887 C886 1.355 . S
C887 C889 1.419 . S
C888 C886 1.415 . S
C888 C893 1.425 . S
C888 C895 1.409 . S
C889 H881 0.930 . S
C889 C887 1.419 . S
C889 C890 1.362 . S
C890 H882 0.930 . S
C890 C889 1.362 . S
C890 C893 1.409 . S
C891 H883 0.930 . S
C891 C892 1.355 . S
C891 C893 1.415 . S
C892 C891 1.355 . S
C892 C894 1.419 . S
C893 C888 1.425 . S
C893 C890 1.409 . S
C893 C891 1.415 . S
C894 H884 0.930 . S
C894 C892 1.419 . S
C894 C895 1.362 . S
C895 H885 0.930 . S
C895 C888 1.409 . S
C895 C894 1.362 . S
H896 C902 0.930 . S
H897 C905 0.930 . S
H898 C906 0.930 . S
H899 C907 0.930 . S
H900 C910 0.930 . S
H901 C911 0.930 . S
C902 H896 0.930 . S
C902 C903 1.355 . S
C902 C904 1.415 . S
C903 C902 1.355 . S
C903 C905 1.419 . S
C904 C902 1.415 . S
C904 C909 1.425 . S
C904 C911 1.409 . S
C905 H897 0.930 . S
C905 C903 1.419 . S
C905 C906 1.362 . S
C906 H898 0.930 . S
C906 C905 1.362 . S
C906 C909 1.409 . S
C907 H899 0.930 . S
C907 C908 1.355 . S
C907 C909 1.415 . S
C908 C907 1.355 . S
C908 C910 1.419 . S
C909 C904 1.425 . S
C909 C906 1.409 . S
C909 C907 1.415 . S
C910 H900 0.930 . S
C910 C908 1.419 . S
C910 C911 1.362 . S
C911 H901 0.930 . S
C911 C904 1.409 . S
C911 C910 1.362 . S
H912 C918 0.930 . S
H913 C921 0.930 . S
H914 C922 0.930 . S
H915 C923 0.930 . S
H916 C926 0.930 . S
H917 C927 0.930 . S
C918 H912 0.930 . S
C918 C919 1.355 . S
C918 C920 1.415 . S
C919 C918 1.355 . S
C919 C921 1.419 . S
C920 C918 1.415 . S
C920 C925 1.425 . S
C920 C927 1.409 . S
C921 H913 0.930 . S
C921 C919 1.419 . S
C921 C922 1.362 . S
C922 H914 0.930 . S
C922 C921 1.362 . S
C922 C925 1.409 . S
C923 H915 0.930 . S
C923 C924 1.355 . S
C923 C925 1.415 . S
C924 C923 1.355 . S
C924 C926 1.419 . S
C925 C920 1.425 . S
C925 C922 1.409 . S
C925 C923 1.415 . S
C926 H916 0.930 . S
C926 C924 1.419 . S
C926 C927 1.362 . S
C927 H917 0.930 . S
C927 C920 1.409 . S
C927 C926 1.362 . S
H928 C934 0.930 . S
H929 C937 0.930 . S
H930 C938 0.930 . S
H931 C939 0.930 . S
H932 C942 0.930 . S
H933 C943 0.930 . S
C934 H928 0.930 . S
C934 C935 1.355 . S
C934 C936 1.415 . S
C935 C934 1.355 . S
C935 C937 1.419 . S
C936 C934 1.415 . S
C936 C941 1.425 . S
C936 C943 1.409 . S
C937 H929 0.930 . S
C937 C935 1.419 . S
C937 C938 1.362 . S
C938 H930 0.930 . S
C938 C937 1.362 . S
C938 C941 1.409 . S
C939 H931 0.930 . S
C939 C940 1.355 . S
C939 C941 1.415 . S
C940 C939 1.355 . S
C940 C942 1.419 . S
C941 C936 1.425 . S
C941 C938 1.409 . S
C941 C939 1.415 . S
C942 H932 0.930 . S
C942 C940 1.419 . S
C942 C943 1.362 . S
C943 H933 0.930 . S
C943 C936 1.409 . S
C943 C942 1.362 . S
H944 C950 0.930 . S
H945 C953 0.930 . S
H946 C954 0.930 . S
H947 C955 0.930 . S
H948 C958 0.930 . S
H949 C959 0.930 . S
C950 H944 0.930 . S
C950 C951 1.355 . S
C950 C952 1.415 . S
C951 C950 1.355 . S
C951 C953 1.419 . S
C952 C950 1.415 . S
C952 C957 1.425 . S
C952 C959 1.409 . S
C953 H945 0.930 . S
C953 C951 1.419 . S
C953 C954 1.362 . S
C954 H946 0.930 . S
C954 C953 1.362 . S
C954 C957 1.409 . S
C955 H947 0.930 . S
C955 C956 1.355 . S
C955 C957 1.415 . S
C956 C955 1.355 . S
C956 C958 1.419 . S
C957 C952 1.425 . S
C957 C954 1.409 . S
C957 C955 1.415 . S
C958 H948 0.930 . S
C958 C956 1.419 . S
C958 C959 1.362 . S
C959 H949 0.930 . S
C959 C952 1.409 . S
C959 C958 1.362 . S
H960 C966 0.930 . S
H961 C969 0.930 . S
H962 C970 0.930 . S
H963 C971 0.930 . S
H964 C974 0.930 . S
H965 C975 0.930 . S
C966 H960 0.930 . S
C966 C967 1.355 . S
C966 C968 1.415 . S
C967 C966 1.355 . S
C967 C969 1.419 . S
C968 C966 1.415 . S
C968 C973 1.425 . S
C968 C975 1.409 . S
C969 H961 0.930 . S
C969 C967 1.419 . S
C969 C970 1.362 . S
C970 H962 0.930 . S
C970 C969 1.362 . S
C970 C973 1.409 . S
C971 H963 0.930 . S
C971 C972 1.355 . S
C971 C973 1.415 . S
C972 C971 1.355 . S
C972 C974 1.419 . S
C973 C968 1.425 . S
C973 C970 1.409 . S
C973 C971 1.415 . S
C974 H964 0.930 . S
C974 C972 1.419 . S
C974 C975 1.362 . S
C975 H965 0.930 . S
C975 C968 1.409 . S
C975 C974 1.362 . S
H976 C982 0.930 . S
H977 C985 0.930 . S
H978 C986 0.930 . S
H979 C987 0.930 . S
H980 C990 0.930 . S
H981 C991 0.930 . S
C982 H976 0.930 . S
C982 C983 1.355 . S
C982 C984 1.415 . S
C983 C982 1.355 . S
C983 C985 1.419 . S
C984 C982 1.415 . S
C984 C989 1.425 . S
C984 C991 1.409 . S
C985 H977 0.930 . S
C985 C983 1.419 . S
C985 C986 1.362 . S
C986 H978 0.930 . S
C986 C985 1.362 . S
C986 C989 1.409 . S
C987 H979 0.930 . S
C987 C988 1.355 . S
C987 C989 1.415 . S
C988 C987 1.355 . S
C988 C990 1.419 . S
C989 C984 1.425 . S
C989 C986 1.409 . S
C989 C987 1.415 . S
C990 H980 0.930 . S
C990 C988 1.419 . S
C990 C991 1.362 . S
C991 H981 0.930 . S
C991 C984 1.409 . S
C991 C990 1.362 . S
H992 C998 0.930 . S
H993 C1001 0.930 . S
H994 C1002 0.930 . S
H995 C1003 0.930 . S
H996 C1006 0.930 . S
H997 C1007 0.930 . S
C998 H992 0.930 . S
C998 C999 1.355 . S
C998 C1000 1.415 . S
C999 C998 1.355 . S
C999 C1001 1.419 . S
C1000 C998 1.415 . S
C1000 C1005 1.425 . S
C1000 C1007 1.409 . S
C1001 H993 0.930 . S
C1001 C999 1.419 . S
C1001 C1002 1.362 . S
C1002 H994 0.930 . S
C1002 C1001 1.362 . S
C1002 C1005 1.409 . S
C1003 H995 0.930 . S
C1003 C1004 1.355 . S
C1003 C1005 1.415 . S
C1004 C1003 1.355 . S
C1004 C1006 1.419 . S
C1005 C1000 1.425 . S
C1005 C1002 1.409 . S
C1005 C1003 1.415 . S
C1006 H996 0.930 . S
C1006 C1004 1.419 . S
C1006 C1007 1.362 . S
C1007 H997 0.930 . S
C1007 C1000 1.409 . S
C1007 C1006 1.362 . S
H1008 C1014 0.930 . S
H1009 C1017 0.930 . S
H1010 C1018 0.930 . S
H1011 C1019 0.930 . S
H1012 C1022 0.930 . S
H1013 C1023 0.930 . S
C1014 H1008 0.930 . S
C1014 C1015 1.355 . S
C1014 C1016 1.415 . S
C1015 C1014 1.355 . S
C1015 C1017 1.419 . S
C1016 C1014 1.415 . S
C1016 C1021 1.425 . S
C1016 C1023 1.409 . S
C1017 H1009 0.930 . S
C1017 C1015 1.419 . S
C1017 C1018 1.362 . S
C1018 H1010 0.930 . S
C1018 C1017 1.362 . S
C1018 C1021 1.409 . S
C1019 H1011 0.930 . S
C1019 C1020 1.355 . S
C1019 C1021 1.415 . S
C1020 C1019 1.355 . S
C1020 C1022 1.419 . S
C1021 C1016 1.425 . S
C1021 C1018 1.409 . S
C1021 C1019 1.415 . S
C1022 H1012 0.930 . S
C1022 C1020 1.419 . S
C1022 C1023 1.362 . S
C1023 H1013 0.930 . S
C1023 C1016 1.409 . S
C1023 C1022 1.362 . S
H1024 C1030 0.930 . S
H1025 C1033 0.930 . S
H1026 C1034 0.930 . S
H1027 C1035 0.930 . S
H1028 C1038 0.930 . S
H1029 C1039 0.930 . S
C1030 H1024 0.930 . S
C1030 C1031 1.355 . S
C1030 C1032 1.415 . S
C1031 C1030 1.355 . S
C1031 C1033 1.419 . S
C1032 C1030 1.415 . S
C1032 C1037 1.425 . S
C1032 C1039 1.409 . S
C1033 H1025 0.930 . S
C1033 C1031 1.419 . S
C1033 C1034 1.362 . S
C1034 H1026 0.930 . S
C1034 C1033 1.362 . S
C1034 C1037 1.409 . S
C1035 H1027 0.930 . S
C1035 C1036 1.355 . S
C1035 C1037 1.415 . S
C1036 C1035 1.355 . S
C1036 C1038 1.419 . S
C1037 C1032 1.425 . S
C1037 C1034 1.409 . S
C1037 C1035 1.415 . S
C1038 H1028 0.930 . S
C1038 C1036 1.419 . S
C1038 C1039 1.362 . S
C1039 H1029 0.930 . S
C1039 C1032 1.409 . S
C1039 C1038 1.362 . S
H1040 C1046 0.930 . S
H1041 C1049 0.930 . S
H1042 C1050 0.930 . S
H1043 C1051 0.930 . S
H1044 C1054 0.930 . S
H1045 C1055 0.930 . S
C1046 H1040 0.930 . S
C1046 C1047 1.355 . S
C1046 C1048 1.415 . S
C1047 C1046 1.355 . S
C1047 C1049 1.419 . S
C1048 C1046 1.415 . S
C1048 C1053 1.425 . S
C1048 C1055 1.409 . S
C1049 H1041 0.930 . S
C1049 C1047 1.419 . S
C1049 C1050 1.362 . S
C1050 H1042 0.930 . S
C1050 C1049 1.362 . S
C1050 C1053 1.409 . S
C1051 H1043 0.930 . S
C1051 C1052 1.355 . S
C1051 C1053 1.415 . S
C1052 C1051 1.355 . S
C1052 C1054 1.419 . S
C1053 C1048 1.425 . S
C1053 C1050 1.409 . S
C1053 C1051 1.415 . S
C1054 H1044 0.930 . S
C1054 C1052 1.419 . S
C1054 C1055 1.362 . S
C1055 H1045 0.930 . S
C1055 C1048 1.409 . S
C1055 C1054 1.362 . S
H1056 C1062 0.930 . S
H1057 C1065 0.930 . S
H1058 C1066 0.930 . S
H1059 C1067 0.930 . S
H1060 C1070 0.930 . S
H1061 C1071 0.930 . S
C1062 H1056 0.930 . S
C1062 C1063 1.355 . S
C1062 C1064 1.415 . S
C1063 C1062 1.355 . S
C1063 C1065 1.419 . S
C1064 C1062 1.415 . S
C1064 C1069 1.425 . S
C1064 C1071 1.409 . S
C1065 H1057 0.930 . S
C1065 C1063 1.419 . S
C1065 C1066 1.362 . S
C1066 H1058 0.930 . S
C1066 C1065 1.362 . S
C1066 C1069 1.409 . S
C1067 H1059 0.930 . S
C1067 C1068 1.355 . S
C1067 C1069 1.415 . S
C1068 C1067 1.355 . S
C1068 C1070 1.419 . S
C1069 C1064 1.425 . S
C1069 C1066 1.409 . S
C1069 C1067 1.415 . S
C1070 H1060 0.930 . S
C1070 C1068 1.419 . S
C1070 C1071 1.362 . S
C1071 H1061 0.930 . S
C1071 C1064 1.409 . S
C1071 C1070 1.362 . S
H1072 C1078 0.930 . S
H1073 C1081 0.930 . S
H1074 C1082 0.930 . S
H1075 C1083 0.930 . S
H1076 C1086 0.930 . S
H1077 C1087 0.930 . S
C1078 H1072 0.930 . S
C1078 C1079 1.355 . S
C1078 C1080 1.415 . S
C1079 C1078 1.355 . S
C1079 C1081 1.419 . S
C1080 C1078 1.415 . S
C1080 C1085 1.425 . S
C1080 C1087 1.409 . S
C1081 H1073 0.930 . S
C1081 C1079 1.419 . S
C1081 C1082 1.362 . S
C1082 H1074 0.930 . S
C1082 C1081 1.362 . S
C1082 C1085 1.409 . S
C1083 H1075 0.930 . S
C1083 C1084 1.355 . S
C1083 C1085 1.415 . S
C1084 C1083 1.355 . S
C1084 C1086 1.419 . S
C1085 C1080 1.425 . S
C1085 C1082 1.409 . S
C1085 C1083 1.415 . S
C1086 H1076 0.930 . S
C1086 C1084 1.419 . S
C1086 C1087 1.362 . S
C1087 H1077 0.930 . S
C1087 C1080 1.409 . S
C1087 C1086 1.362 . S
H1088 C1094 0.930 . S
H1089 C1097 0.930 . S
H1090 C1098 0.930 . S
H1091 C1099 0.930 . S
H1092 C1102 0.930 1_655 S
H1093 C1103 0.930 1_655 S
C1094 H1088 0.930 . S
C1094 C1095 1.355 . S
C1094 C1096 1.415 . S
C1095 C1094 1.355 . S
C1095 C1097 1.419 . S
C1096 C1094 1.415 . S
C1096 C1101 1.425 . S
C1096 C1103 1.409 . S
C1097 H1089 0.930 . S
C1097 C1095 1.419 . S
C1097 C1098 1.362 . S
C1098 H1090 0.930 . S
C1098 C1097 1.362 . S
C1098 C1101 1.409 . S
C1099 H1091 0.930 . S
C1099 C1100 1.355 . S
C1099 C1101 1.415 . S
C1100 C1099 1.355 . S
C1100 C1102 1.419 . S
C1101 C1096 1.425 . S
C1101 C1098 1.409 . S
C1101 C1099 1.415 . S
C1102 H1092 0.930 1_455 S
C1102 C1100 1.419 . S
C1102 C1103 1.362 . S
C1103 H1093 0.930 1_455 S
C1103 C1096 1.409 . S
C1103 C1102 1.362 . S
H1104 C1110 0.930 . S
H1105 C1113 0.930 . S
H1106 C1114 0.930 . S
H1107 C1115 0.930 . S
H1108 C1118 0.930 . S
H1109 C1119 0.930 . S
C1110 H1104 0.930 . S
C1110 C1111 1.355 . S
C1110 C1112 1.415 . S
C1111 C1110 1.355 . S
C1111 C1113 1.419 . S
C1112 C1110 1.415 . S
C1112 C1117 1.425 . S
C1112 C1119 1.409 . S
C1113 H1105 0.930 . S
C1113 C1111 1.419 . S
C1113 C1114 1.362 . S
C1114 H1106 0.930 . S
C1114 C1113 1.362 . S
C1114 C1117 1.409 . S
C1115 H1107 0.930 . S
C1115 C1116 1.355 . S
C1115 C1117 1.415 . S
C1116 C1115 1.355 . S
C1116 C1118 1.419 . S
C1117 C1112 1.425 . S
C1117 C1114 1.409 . S
C1117 C1115 1.415 . S
C1118 H1108 0.930 . S
C1118 C1116 1.419 . S
C1118 C1119 1.362 . S
C1119 H1109 0.930 . S
C1119 C1112 1.409 . S
C1119 C1118 1.362 . S
H1120 C1126 0.930 . S
H1121 C1129 0.930 . S
H1122 C1130 0.930 . S
H1123 C1131 0.930 . S
H1124 C1134 0.930 . S
H1125 C1135 0.930 . S
C1126 H1120 0.930 . S
C1126 C1127 1.355 . S
C1126 C1128 1.415 . S
C1127 C1126 1.355 . S
C1127 C1129 1.419 . S
C1128 C1126 1.415 . S
C1128 C1133 1.425 . S
C1128 C1135 1.409 . S
C1129 H1121 0.930 . S
C1129 C1127 1.419 . S
C1129 C1130 1.362 . S
C1130 H1122 0.930 . S
C1130 C1129 1.362 . S
C1130 C1133 1.409 . S
C1131 H1123 0.930 . S
C1131 C1132 1.355 . S
C1131 C1133 1.415 . S
C1132 C1131 1.355 . S
C1132 C1134 1.419 . S
C1133 C1128 1.425 . S
C1133 C1130 1.409 . S
C1133 C1131 1.415 . S
C1134 H1124 0.930 . S
C1134 C1132 1.419 . S
C1134 C1135 1.362 . S
C1135 H1125 0.930 . S
C1135 C1128 1.409 . S
C1135 C1134 1.362 . S
H1136 C1142 0.930 . S
H1137 C1145 0.930 . S
H1138 C1146 0.930 . S
H1139 C1147 0.930 . S
H1140 C1150 0.930 . S
H1141 C1151 0.930 . S
C1142 H1136 0.930 . S
C1142 C1143 1.355 . S
C1142 C1144 1.415 . S
C1143 C1142 1.355 . S
C1143 C1145 1.419 . S
C1144 C1142 1.415 . S
C1144 C1149 1.425 . S
C1144 C1151 1.409 . S
C1145 H1137 0.930 . S
C1145 C1143 1.419 . S
C1145 C1146 1.362 . S
C1146 H1138 0.930 . S
C1146 C1145 1.362 . S
C1146 C1149 1.409 . S
C1147 H1139 0.930 . S
C1147 C1148 1.355 . S
C1147 C1149 1.415 . S
C1148 C1147 1.355 . S
C1148 C1150 1.419 . S
C1149 C1144 1.425 . S
C1149 C1146 1.409 . S
C1149 C1147 1.415 . S
C1150 H1140 0.930 . S
C1150 C1148 1.419 . S
C1150 C1151 1.362 . S
C1151 H1141 0.930 . S
C1151 C1144 1.409 . S
C1151 C1150 1.362 . S
H1152 C1158 0.930 . S
H1153 C1161 0.930 . S
H1154 C1162 0.940 . S
H1155 C1163 0.930 . S
H1156 C1166 0.930 . S
H1157 C1167 0.940 . S
C1158 H1152 0.930 . S
C1158 C1159 1.355 . S
C1158 C1160 1.415 . S
C1159 C1158 1.355 . S
C1159 C1161 1.419 . S
C1160 C1158 1.415 . S
C1160 C1165 1.425 1_554 S
C1160 C1167 1.409 1_554 S
C1161 H1153 0.930 . S
C1161 C1159 1.419 . S
C1161 C1162 1.362 . S
C1162 H1154 0.940 . S
C1162 C1161 1.362 . S
C1162 C1165 1.409 1_554 S
C1163 H1155 0.930 . S
C1163 C1164 1.355 . S
C1163 C1165 1.415 . S
C1164 C1163 1.355 . S
C1164 C1166 1.419 . S
C1165 C1160 1.425 1_556 S
C1165 C1162 1.409 1_556 S
C1165 C1163 1.415 . S
C1166 H1156 0.930 . S
C1166 C1164 1.419 . S
C1166 C1167 1.362 . S
C1167 H1157 0.940 . S
C1167 C1160 1.409 1_556 S
C1167 C1166 1.362 . S
H1168 C1174 0.930 . S
H1169 C1177 0.930 . S
H1170 C1178 0.930 . S
H1171 C1179 0.930 . S
H1172 C1182 0.930 . S
H1173 C1183 0.930 . S
C1174 H1168 0.930 . S
C1174 C1175 1.355 . S
C1174 C1176 1.415 . S
C1175 C1174 1.355 . S
C1175 C1177 1.419 . S
C1176 C1174 1.415 . S
C1176 C1181 1.425 . S
C1176 C1183 1.409 . S
C1177 H1169 0.930 . S
C1177 C1175 1.419 . S
C1177 C1178 1.362 . S
C1178 H1170 0.930 . S
C1178 C1177 1.362 . S
C1178 C1181 1.409 . S
C1179 H1171 0.930 . S
C1179 C1180 1.355 . S
C1179 C1181 1.415 . S
C1180 C1179 1.355 . S
C1180 C1182 1.419 . S
C1181 C1176 1.425 . S
C1181 C1178 1.409 . S
C1181 C1179 1.415 . S
C1182 H1172 0.930 . S
C1182 C1180 1.419 . S
C1182 C1183 1.362 . S
C1183 H1173 0.930 . S
C1183 C1176 1.409 . S
C1183 C1182 1.362 . S
H1184 C1190 0.930 . S
H1185 C1193 0.930 . S
H1186 C1194 0.930 . S
H1187 C1195 0.930 . S
H1188 C1198 0.930 . S
H1189 C1199 0.930 . S
C1190 H1184 0.930 . S
C1190 C1191 1.355 . S
C1190 C1192 1.415 . S
C1191 C1190 1.355 . S
C1191 C1193 1.419 . S
C1192 C1190 1.415 . S
C1192 C1197 1.425 1_554 S
C1192 C1199 1.409 1_554 S
C1193 H1185 0.930 . S
C1193 C1191 1.419 . S
C1193 C1194 1.362 . S
C1194 H1186 0.930 . S
C1194 C1193 1.362 . S
C1194 C1197 1.409 1_554 S
C1195 H1187 0.930 . S
C1195 C1196 1.355 . S
C1195 C1197 1.415 . S
C1196 C1195 1.355 . S
C1196 C1198 1.419 . S
C1197 C1192 1.425 1_556 S
C1197 C1194 1.409 1_556 S
C1197 C1195 1.415 . S
C1198 H1188 0.930 . S
C1198 C1196 1.419 . S
C1198 C1199 1.362 . S
C1199 H1189 0.930 . S
C1199 C1192 1.409 1_556 S
C1199 C1198 1.362 . S
H1200 C1206 0.930 . S
H1201 C1209 0.930 . S
H1202 C1210 0.930 . S
H1203 C1211 0.930 . S
H1204 C1214 0.930 . S
H1205 C1215 0.930 . S
C1206 H1200 0.930 . S
C1206 C1207 1.355 . S
C1206 C1208 1.415 . S
C1207 C1206 1.355 . S
C1207 C1209 1.419 . S
C1208 C1206 1.415 . S
C1208 C1213 1.425 . S
C1208 C1215 1.409 . S
C1209 H1201 0.930 . S
C1209 C1207 1.419 . S
C1209 C1210 1.362 . S
C1210 H1202 0.930 . S
C1210 C1209 1.362 . S
C1210 C1213 1.409 . S
C1211 H1203 0.930 . S
C1211 C1212 1.355 . S
C1211 C1213 1.415 . S
C1212 C1211 1.355 . S
C1212 C1214 1.419 . S
C1213 C1208 1.425 . S
C1213 C1210 1.409 . S
C1213 C1211 1.415 . S
C1214 H1204 0.930 . S
C1214 C1212 1.419 . S
C1214 C1215 1.362 . S
C1215 H1205 0.930 . S
C1215 C1208 1.409 . S
C1215 C1214 1.362 . S
H1216 C1222 0.930 . S
H1217 C1225 0.930 . S
H1218 C1226 0.930 . S
H1219 C1227 0.930 . S
H1220 C1230 0.930 . S
H1221 C1231 0.930 . S
C1222 H1216 0.930 . S
C1222 C1223 1.355 . S
C1222 C1224 1.415 . S
C1223 C1222 1.355 . S
C1223 C1225 1.419 . S
C1224 C1222 1.415 . S
C1224 C1229 1.425 . S
C1224 C1231 1.409 . S
C1225 H1217 0.930 . S
C1225 C1223 1.419 . S
C1225 C1226 1.362 . S
C1226 H1218 0.930 . S
C1226 C1225 1.362 . S
C1226 C1229 1.409 . S
C1227 H1219 0.930 . S
C1227 C1228 1.355 . S
C1227 C1229 1.415 . S
C1228 C1227 1.355 . S
C1228 C1230 1.419 . S
C1229 C1224 1.425 . S
C1229 C1226 1.409 . S
C1229 C1227 1.415 . S
C1230 H1220 0.930 . S
C1230 C1228 1.419 . S
C1230 C1231 1.362 . S
C1231 H1221 0.930 . S
C1231 C1224 1.409 . S
C1231 C1230 1.362 . S
H1232 C1238 0.930 . S
H1233 C1241 0.930 . S
H1234 C1242 0.930 . S
H1235 C1243 0.930 . S
H1236 C1246 0.930 . S
H1237 C1247 0.930 . S
C1238 H1232 0.930 . S
C1238 C1239 1.352 1_545 S
C1238 C1240 1.415 . S
C1239 C1238 1.352 1_565 S
C1239 C1241 1.422 . S
C1240 C1238 1.415 . S
C1240 C1245 1.425 1_545 S
C1240 C1247 1.409 . S
C1241 H1233 0.930 . S
C1241 C1239 1.422 . S
C1241 C1242 1.362 . S
C1242 H1234 0.930 . S
C1242 C1241 1.362 . S
C1242 C1245 1.409 . S
C1243 H1235 0.930 . S
C1243 C1244 1.352 1_565 S
C1243 C1245 1.415 . S
C1244 C1243 1.352 1_545 S
C1244 C1246 1.422 . S
C1245 C1240 1.425 1_565 S
C1245 C1242 1.409 . S
C1245 C1243 1.415 . S
C1246 H1236 0.930 . S
C1246 C1244 1.422 . S
C1246 C1247 1.362 . S
C1247 H1237 0.930 . S
C1247 C1240 1.409 . S
C1247 C1246 1.362 . S
H1248 C1254 0.930 . S
H1249 C1257 0.930 . S
H1250 C1258 0.930 . S
H1251 C1259 0.930 . S
H1252 C1262 0.930 . S
H1253 C1263 0.930 . S
C1254 H1248 0.930 . S
C1254 C1255 1.355 1_455 S
C1254 C1256 1.415 . S
C1255 C1254 1.355 1_655 S
C1255 C1257 1.419 . S
C1256 C1254 1.415 . S
C1256 C1261 1.425 1_445 S
C1256 C1263 1.409 1_545 S
C1257 H1249 0.930 . S
C1257 C1255 1.419 . S
C1257 C1258 1.362 . S
C1258 H1250 0.930 . S
C1258 C1257 1.362 . S
C1258 C1261 1.409 1_545 S
C1259 H1251 0.930 . S
C1259 C1260 1.355 1_655 S
C1259 C1261 1.415 . S
C1260 C1259 1.355 1_455 S
C1260 C1262 1.419 . S
C1261 C1256 1.425 1_665 S
C1261 C1258 1.409 1_565 S
C1261 C1259 1.415 . S
C1262 H1252 0.930 . S
C1262 C1260 1.419 . S
C1262 C1263 1.362 . S
C1263 H1253 0.930 . S
C1263 C1256 1.409 1_565 S
C1263 C1262 1.362 . S
H1264 C1270 0.930 . S
H1265 C1273 0.930 . S
H1266 C1274 0.930 . S
H1267 C1275 0.930 . S
H1268 C1278 0.930 . S
H1269 C1279 0.930 . S
C1270 H1264 0.930 . S
C1270 C1271 1.355 . S
C1270 C1272 1.415 . S
C1271 C1270 1.355 . S
C1271 C1273 1.419 . S
C1272 C1270 1.415 . S
C1272 C1277 1.425 1_455 S
C1272 C1279 1.409 1_455 S
C1273 H1265 0.930 . S
C1273 C1271 1.419 . S
C1273 C1274 1.362 . S
C1274 H1266 0.930 . S
C1274 C1273 1.362 . S
C1274 C1277 1.409 1_455 S
C1275 H1267 0.930 . S
C1275 C1276 1.355 . S
C1275 C1277 1.415 . S
C1276 C1275 1.355 . S
C1276 C1278 1.419 . S
C1277 C1272 1.425 1_655 S
C1277 C1274 1.409 1_655 S
C1277 C1275 1.415 . S
C1278 H1268 0.930 . S
C1278 C1276 1.419 . S
C1278 C1279 1.362 . S
C1279 H1269 0.930 . S
C1279 C1272 1.409 1_655 S
C1279 C1278 1.362 . S
H1280 C1286 0.930 . S
H1281 C1289 0.930 . S
H1282 C1290 0.930 . S
H1283 C1291 0.930 . S
H1284 C1294 0.930 . S
H1285 C1295 0.930 . S
C1286 H1280 0.930 . S
C1286 C1287 1.355 . S
C1286 C1288 1.415 . S
C1287 C1286 1.355 . S
C1287 C1289 1.419 . S
C1288 C1286 1.415 . S
C1288 C1293 1.425 . S
C1288 C1295 1.409 . S
C1289 H1281 0.930 . S
C1289 C1287 1.419 . S
C1289 C1290 1.362 . S
C1290 H1282 0.930 . S
C1290 C1289 1.362 . S
C1290 C1293 1.409 . S
C1291 H1283 0.930 . S
C1291 C1292 1.355 . S
C1291 C1293 1.415 . S
C1292 C1291 1.355 . S
C1292 C1294 1.419 . S
C1293 C1288 1.425 . S
C1293 C1290 1.409 . S
C1293 C1291 1.415 . S
C1294 H1284 0.930 . S
C1294 C1292 1.419 . S
C1294 C1295 1.362 . S
C1295 H1285 0.930 . S
C1295 C1288 1.409 . S
C1295 C1294 1.362 . S
H1296 C1302 0.930 . S
H1297 C1305 0.930 . S
H1298 C1306 0.930 . S
H1299 C1307 0.930 . S
H1300 C1310 0.930 . S
H1301 C1311 0.930 . S
C1302 H1296 0.930 . S
C1302 C1303 1.355 . S
C1302 C1304 1.415 . S
C1303 C1302 1.355 . S
C1303 C1305 1.419 . S
C1304 C1302 1.415 . S
C1304 C1309 1.425 . S
C1304 C1311 1.409 . S
C1305 H1297 0.930 . S
C1305 C1303 1.419 . S
C1305 C1306 1.362 . S
C1306 H1298 0.930 . S
C1306 C1305 1.362 . S
C1306 C1309 1.409 . S
C1307 H1299 0.930 . S
C1307 C1308 1.355 . S
C1307 C1309 1.415 . S
C1308 C1307 1.355 . S
C1308 C1310 1.419 . S
C1309 C1304 1.425 . S
C1309 C1306 1.409 . S
C1309 C1307 1.415 . S
C1310 H1300 0.930 . S
C1310 C1308 1.419 . S
C1310 C1311 1.362 . S
C1311 H1301 0.930 . S
C1311 C1304 1.409 . S
C1311 C1310 1.362 . S
H1312 C1318 0.930 . S
H1313 C1321 0.930 . S
H1314 C1322 0.930 . S
H1315 C1323 0.930 . S
H1316 C1326 0.930 . S
H1317 C1327 0.930 . S
C1318 H1312 0.930 . S
C1318 C1319 1.355 . S
C1318 C1320 1.415 . S
C1319 C1318 1.355 . S
C1319 C1321 1.419 . S
C1320 C1318 1.415 . S
C1320 C1325 1.425 1_545 S
C1320 C1327 1.409 1_545 S
C1321 H1313 0.930 . S
C1321 C1319 1.419 . S
C1321 C1322 1.362 . S
C1322 H1314 0.930 . S
C1322 C1321 1.362 . S
C1322 C1325 1.409 1_545 S
C1323 H1315 0.930 . S
C1323 C1324 1.355 . S
C1323 C1325 1.415 . S
C1324 C1323 1.355 . S
C1324 C1326 1.419 . S
C1325 C1320 1.425 1_565 S
C1325 C1322 1.409 1_565 S
C1325 C1323 1.415 . S
C1326 H1316 0.930 . S
C1326 C1324 1.419 . S
C1326 C1327 1.362 . S
C1327 H1317 0.930 . S
C1327 C1320 1.409 1_565 S
C1327 C1326 1.362 . S
H1328 C1334 0.930 . S
H1329 C1337 0.930 . S
H1330 C1338 0.930 . S
H1331 C1339 0.930 . S
H1332 C1342 0.930 . S
H1333 C1343 0.930 . S
C1334 H1328 0.930 . S
C1334 C1335 1.355 1_545 S
C1334 C1336 1.415 . S
C1335 C1334 1.355 1_565 S
C1335 C1337 1.419 . S
C1336 C1334 1.415 . S
C1336 C1341 1.425 1_445 S
C1336 C1343 1.409 1_455 S
C1337 H1329 0.930 . S
C1337 C1335 1.419 . S
C1337 C1338 1.362 . S
C1338 H1330 0.930 . S
C1338 C1337 1.362 . S
C1338 C1341 1.409 1_455 S
C1339 H1331 0.930 . S
C1339 C1340 1.355 1_565 S
C1339 C1341 1.415 . S
C1340 C1339 1.355 1_545 S
C1340 C1342 1.419 . S
C1341 C1336 1.425 1_665 S
C1341 C1338 1.409 1_655 S
C1341 C1339 1.415 . S
C1342 H1332 0.930 . S
C1342 C1340 1.419 . S
C1342 C1343 1.362 . S
C1343 H1333 0.930 . S
C1343 C1336 1.409 1_655 S
C1343 C1342 1.362 . S
H1344 C1350 0.930 . S
H1345 C1353 0.930 . S
H1346 C1354 0.930 . S
H1347 C1355 0.930 . S
H1348 C1358 0.930 . S
H1349 C1359 0.930 . S
C1350 H1344 0.930 . S
C1350 C1351 1.355 . S
C1350 C1352 1.415 . S
C1351 C1350 1.355 . S
C1351 C1353 1.419 1_455 S
C1352 C1350 1.415 . S
C1352 C1357 1.425 1_455 S
C1352 C1359 1.409 . S
C1353 H1345 0.930 . S
C1353 C1351 1.419 1_655 S
C1353 C1354 1.362 . S
C1354 H1346 0.930 . S
C1354 C1353 1.362 . S
C1354 C1357 1.409 . S
C1355 H1347 0.930 . S
C1355 C1356 1.355 . S
C1355 C1357 1.415 . S
C1356 C1355 1.355 . S
C1356 C1358 1.419 1_655 S
C1357 C1352 1.425 1_655 S
C1357 C1354 1.409 . S
C1357 C1355 1.415 . S
C1358 H1348 0.930 . S
C1358 C1356 1.419 1_455 S
C1358 C1359 1.362 . S
C1359 H1349 0.930 . S
C1359 C1352 1.409 . S
C1359 C1358 1.362 . S
C471 C21 0.487 . S
C476 C224 0.390 . S
C487 C137 0.432 . S
C492 C50 0.398 . S
C503 C79 0.615 . S
C508 C166 0.517 . S
C519 C108 0.403 . S
C524 C195 0.522 . S
C535 C456 0.491 . S
C540 C253 0.391 . S
C551 C369 0.471 . S
C556 C282 0.592 . S
C567 C311 0.500 . S
C572 C398 0.608 . S
C583 C340 0.598 . S
C588 C427 0.481 . S
C599 C97 2.419 . S
C604 C5 2.404 1_556 S
C615 C34 2.404 . S
C620 C10 2.401 . S
C631 C63 2.404 . S
C636 C39 2.401 . S
C647 C92 2.408 . S
C652 C68 2.415 . S
C663 C121 2.399 . S
C668 C155 2.395 . S
C679 C150 2.365 . S
C684 C184 2.394 . S
C695 C213 2.418 . S
C700 C179 2.406 . S
C711 C208 2.356 1_554 S
C716 C126 2.379 . S
C727 C329 2.376 . S
C732 C237 2.355 . S
C743 C266 2.399 . S
C748 C242 2.418 . S
C759 C271 2.402 . S
C764 C295 2.404 1_556 S
C775 C324 2.387 . S
C780 C300 2.413 . S
C791 C353 2.377 . S
C796 C387 2.374 . S
C807 C382 2.406 1_554 S
C812 C416 2.405 . S
C823 C411 2.379 . S
C828 C445 2.376 . S
C839 C440 2.402 . S
C844 C358 2.419 . S
C855 C124 0.923 . S
C860 C8 0.915 . S
C871 C153 0.913 . S
C876 C37 0.922 . S
C887 C66 0.680 . S
C892 C182 0.696 . S
C903 C211 0.920 . S
C908 C95 0.925 . S
C919 C356 0.896 . S
C924 C240 0.875 . S
C935 C269 0.819 . S
C940 C385 0.847 . S
C951 C414 0.794 . S
C956 C298 0.823 . S
C967 C443 0.898 . S
C972 C327 0.913 . S
C983 C177 2.128 . S
C988 C3 2.122 . S
C999 C206 2.148 . S
C1004 C32 2.121 . S
C1015 C61 2.151 . S
C1020 C119 2.168 . S
C1031 C90 2.128 . S
C1036 C148 2.159 . S
C1047 C235 2.120 . S
C1052 C409 2.132 . S
C1063 C264 2.136 . S
C1068 C438 2.165 . S
C1079 C351 2.160 . S
C1084 C293 2.166 . S
C1095 C380 2.119 . S
C1100 C322 2.142 . S
C1111 C160 2.256 . S
C1116 C15 2.243 . S
C1127 C44 2.253 . S
C1132 C189 2.270 . S
C1143 C73 2.267 . S
C1148 C218 2.266 . S
C1159 C131 2.270 . S
C1164 C102 2.256 . S
C1175 C247 2.264 . S
C1180 C392 2.268 . S
C1191 C421 2.243 . S
C1196 C276 2.258 . S
C1207 C305 2.243 . S
C1212 C450 2.258 . S
C1223 C334 2.268 . S
C1228 C363 2.264 . S
C1239 C13 1.980 1_565 S
C1244 C303 1.991 1_545 S
C1255 C42 1.965 . S
C1260 C332 1.908 . S
C1271 C245 1.965 . S
C1276 C71 1.908 . S
C1287 C274 1.925 . S
C1292 C100 1.982 . S
C1303 C129 1.925 . S
C1308 C419 1.982 . S
C1319 C158 1.964 . S
C1324 C448 1.997 . S
C1335 C361 1.965 . S
C1340 C187 1.908 . S
C1351 C390 1.989 . S
C1356 C216 1.936 . S
