# Generated by pormake.
# Topology une, (4)-cn, num edge types: 1
# Building blocks:
#     Node 0, Type 0, BuildingBlock: CEKHIL_clean_sbu_0, # of connection points: 4
#     Node 1, Type 0, BuildingBlock: CEKHIL_clean_sbu_0, # of connection points: 4
#     Node 2, Type 0, BuildingBlock: CEKHIL_clean_sbu_0, # of connection points: 4
#     Node 3, Type 0, BuildingBlock: CEKHIL_clean_sbu_0, # of connection points: 4
#     Node 4, Type 0, BuildingBlock: CEKHIL_clean_sbu_0, # of connection points: 4
#     Node 5, Type 0, BuildingBlock: CEKHIL_clean_sbu_0, # of connection points: 4
#     Node 6, Type 0, BuildingBlock: CEKHIL_clean_sbu_0, # of connection points: 4
#     Node 7, Type 0, BuildingBlock: CEKHIL_clean_sbu_0, # of connection points: 4
#     Node 8, Type 0, BuildingBlock: CEKHIL_clean_sbu_0, # of connection points: 4
#     Node 9, Type 0, BuildingBlock: CEKHIL_clean_sbu_0, # of connection points: 4
#     Node 10, Type 0, BuildingBlock: CEKHIL_clean_sbu_0, # of connection points: 4
#     Node 11, Type 0, BuildingBlock: CEKHIL_clean_sbu_0, # of connection points: 4
#     Node 12, Type 0, BuildingBlock: CEKHIL_clean_sbu_0, # of connection points: 4
#     Node 13, Type 0, BuildingBlock: CEKHIL_clean_sbu_0, # of connection points: 4
#     Node 14, Type 0, BuildingBlock: CEKHIL_clean_sbu_0, # of connection points: 4
#     Node 15, Type 0, BuildingBlock: CEKHIL_clean_sbu_0, # of connection points: 4
#     Node 16, Type 0, BuildingBlock: CEKHIL_clean_sbu_0, # of connection points: 4
#     Node 17, Type 0, BuildingBlock: CEKHIL_clean_sbu_0, # of connection points: 4
#     Edge 18, Type (0, 0), BuildingBlock: CIFDUS_clean_linker_0, # of connection points: 2
#     Edge 19, Type (0, 0), BuildingBlock: CIFDUS_clean_linker_0, # of connection points: 2
#     Edge 20, Type (0, 0), BuildingBlock: CIFDUS_clean_linker_0, # of connection points: 2
#     Edge 21, Type (0, 0), BuildingBlock: CIFDUS_clean_linker_0, # of connection points: 2
#     Edge 22, Type (0, 0), BuildingBlock: CIFDUS_clean_linker_0, # of connection points: 2
#     Edge 23, Type (0, 0), BuildingBlock: CIFDUS_clean_linker_0, # of connection points: 2
#     Edge 24, Type (0, 0), BuildingBlock: CIFDUS_clean_linker_0, # of connection points: 2
#     Edge 25, Type (0, 0), BuildingBlock: CIFDUS_clean_linker_0, # of connection points: 2
#     Edge 26, Type (0, 0), BuildingBlock: CIFDUS_clean_linker_0, # of connection points: 2
#     Edge 27, Type (0, 0), BuildingBlock: CIFDUS_clean_linker_0, # of connection points: 2
#     Edge 28, Type (0, 0), BuildingBlock: CIFDUS_clean_linker_0, # of connection points: 2
#     Edge 29, Type (0, 0), BuildingBlock: CIFDUS_clean_linker_0, # of connection points: 2
#     Edge 30, Type (0, 0), BuildingBlock: CIFDUS_clean_linker_0, # of connection points: 2
#     Edge 31, Type (0, 0), BuildingBlock: CIFDUS_clean_linker_0, # of connection points: 2
#     Edge 32, Type (0, 0), BuildingBlock: CIFDUS_clean_linker_0, # of connection points: 2
#     Edge 33, Type (0, 0), BuildingBlock: CIFDUS_clean_linker_0, # of connection points: 2
#     Edge 34, Type (0, 0), BuildingBlock: CIFDUS_clean_linker_0, # of connection points: 2
#     Edge 35, Type (0, 0), BuildingBlock: CIFDUS_clean_linker_0, # of connection points: 2
#     Edge 36, Type (0, 0), BuildingBlock: CIFDUS_clean_linker_0, # of connection points: 2
#     Edge 37, Type (0, 0), BuildingBlock: CIFDUS_clean_linker_0, # of connection points: 2
#     Edge 38, Type (0, 0), BuildingBlock: CIFDUS_clean_linker_0, # of connection points: 2
#     Edge 39, Type (0, 0), BuildingBlock: CIFDUS_clean_linker_0, # of connection points: 2
#     Edge 40, Type (0, 0), BuildingBlock: CIFDUS_clean_linker_0, # of connection points: 2
#     Edge 41, Type (0, 0), BuildingBlock: CIFDUS_clean_linker_0, # of connection points: 2
#     Edge 42, Type (0, 0), BuildingBlock: CIFDUS_clean_linker_0, # of connection points: 2
#     Edge 43, Type (0, 0), BuildingBlock: CIFDUS_clean_linker_0, # of connection points: 2
#     Edge 44, Type (0, 0), BuildingBlock: CIFDUS_clean_linker_0, # of connection points: 2
#     Edge 45, Type (0, 0), BuildingBlock: CIFDUS_clean_linker_0, # of connection points: 2
#     Edge 46, Type (0, 0), BuildingBlock: CIFDUS_clean_linker_0, # of connection points: 2
#     Edge 47, Type (0, 0), BuildingBlock: CIFDUS_clean_linker_0, # of connection points: 2
#     Edge 48, Type (0, 0), BuildingBlock: CIFDUS_clean_linker_0, # of connection points: 2
#     Edge 49, Type (0, 0), BuildingBlock: CIFDUS_clean_linker_0, # of connection points: 2
#     Edge 50, Type (0, 0), BuildingBlock: CIFDUS_clean_linker_0, # of connection points: 2
#     Edge 51, Type (0, 0), BuildingBlock: CIFDUS_clean_linker_0, # of connection points: 2
#     Edge 52, Type (0, 0), BuildingBlock: CIFDUS_clean_linker_0, # of connection points: 2
#     Edge 53, Type (0, 0), BuildingBlock: CIFDUS_clean_linker_0, # of connection points: 2
# Relax obj value: 0.261
# Max RMSD: 0.175
# Mean RMSD: 0.165
data_MOF--net-une--node1-CEKHIL_clean_sbu_0--edge1-CIFDUS_clean_linker_0
_symmetry_space_group_name_H-M    P1
_symmetry_Int_Tables_number       1
_symmetry_cell_setting            triclinic
loop_
_symmetry_equiv_pos_as_xyz
'x, y, z'
_cell_length_a     33.365125
_cell_length_b     32.856412
_cell_length_c     45.211088
_cell_angle_alpha  90.118207
_cell_angle_beta   90.645087
_cell_angle_gamma 119.7806
loop_
_atom_site_label
_atom_site_type_symbol
_atom_site_fract_x
_atom_site_fract_y
_atom_site_fract_z
_atom_type_partial_charge
Co0 Co 0.36583 0.06659 0.0853 0.0
O1 O 0.38874 0.02285 0.09202 0.0
O2 O 0.41508 0.07765 0.05802 0.0
C3 C 0.35896 0.08831 0.13233 0.0
O4 O 0.35341 0.11838 0.07154 0.0
Co5 Co 0.26763 0.04463 0.10513 0.0
O6 O 0.29331 0.11234 0.09733 0.0
C7 C 0.27657 0.99545 0.05384 0.0
C8 C 0.41512 0.04123 0.06916 0.0
C9 C 0.32795 0.13498 0.08071 0.0
O10 O 0.32064 0.02108 0.05553 0.0
O11 O 0.24896 0.99751 0.07236 0.0
O12 O 0.39932 0.1067 0.11985 0.0
O13 O 0.32683 0.05265 0.11821 0.0
Co14 Co 0.93107 0.31164 0.06615 0.0
O15 O 0.88036 0.28861 0.0949 0.0
O16 O 0.94227 0.28136 0.09916 0.0
C17 C 0.94582 0.38538 0.05428 0.0
O18 O 0.99016 0.32843 0.04467 0.0
Co19 Co 0.92329 0.33181 0.99973 0.0
O20 O 0.99039 0.35285 0.99828 0.0
C21 C 0.86704 0.23759 0.02375 0.0
C22 C 0.9021 0.27068 0.10929 0.0
C23 C 0.01055 0.34595 0.0202 0.0
O24 O 0.89577 0.24928 0.04552 0.0
O25 O 0.86956 0.26689 1.00425 0.0
O26 O 0.96073 0.3777 0.07936 0.0
O27 O 0.91656 0.34781 0.04026 0.0
Co28 Co 0.719 0.62951 0.08455 0.0
O29 O 0.6537 0.60392 0.09363 0.0
O30 O 0.67991 0.57666 0.05878 0.0
C31 C 0.75287 0.64256 0.13065 0.0
O32 O 0.78097 0.64352 0.06815 0.0
Co33 Co 0.79418 0.73212 0.10097 0.0
O34 O 0.83777 0.71354 0.08471 0.0
C35 C 0.72286 0.71505 0.05661 0.0
C36 C 0.64445 0.57608 0.07079 0.0
C37 C 0.8238 0.67497 0.07079 0.0
O38 O 0.71189 0.67169 0.05526 0.0
O39 O 0.7525 0.7444 0.07505 0.0
O40 O 0.73234 0.60039 0.11907 0.0
O41 O 0.74628 0.67244 0.11612 0.0
Co42 Co 0.58601 0.91241 0.94908 0.0
O43 O 0.55503 0.85767 0.92272 0.0
O44 O 0.62274 0.91987 0.91445 0.0
C45 C 0.52835 0.92716 0.96268 0.0
O46 O 0.62967 0.97421 0.96863 0.0
Co47 Co 0.56482 0.90734 0.0164 0.0
O48 O 0.61441 0.97451 0.01697 0.0
C49 C 0.61128 0.85917 0.99328 0.0
C50 C 0.59219 0.87749 0.90665 0.0
C51 C 0.63756 0.99456 0.99397 0.0
O52 O 0.61846 0.88215 0.9692 0.0
O53 O 0.58553 0.85958 1.01386 0.0
O54 O 0.54723 0.93957 0.93669 0.0
O55 O 0.53889 0.89948 0.97667 0.0
Co56 Co 0.09016 0.68637 0.93468 0.0
O57 O 0.12843 0.69684 0.89987 0.0
O58 O 0.08139 0.72505 0.90568 0.0
C59 C 0.06063 0.60799 0.94423 0.0
O60 O 0.04627 0.68571 0.96544 0.0
Co61 Co 0.11288 0.65877 0.99624 0.0
O62 O 0.05319 0.65398 1.00795 0.0
C63 C 0.17104 0.75352 0.97383 0.0
C64 C 0.11353 0.72443 0.89012 0.0
C65 C 0.03354 0.67095 0.99183 0.0
O66 O 0.14135 0.74514 0.95305 0.0
O67 O 0.16892 0.72216 0.99148 0.0
O68 O 0.04307 0.62145 0.92299 0.0
O69 O 0.09902 0.64111 0.95492 0.0
Co70 Co 0.34465 0.41105 0.94915 0.0
O71 O 0.3318 0.44016 0.91537 0.0
O72 O 0.31082 0.36525 0.91822 0.0
C73 C 0.42012 0.46285 0.9614 0.0
O74 O 0.35015 0.36697 0.97793 0.0
Co75 Co 0.36366 0.45411 1.01267 0.0
O76 O 0.37374 0.40101 0.02278 0.0
C77 C 0.27073 0.41391 0.98706 0.0
C78 C 0.308 0.398 0.90399 0.0
C79 C 0.36356 0.36732 1.00471 0.0
O80 O 0.2835 0.39726 0.96577 0.0
O81 O 0.29844 0.44076 1.00729 0.0
O82 O 0.40982 0.43446 0.93875 0.0
O83 O 0.38519 0.46456 0.97206 0.0
Co84 Co 0.03626 0.39708 0.4248 0.0
O85 O 0.06163 0.35568 0.43194 0.0
O86 O 0.08489 0.40888 0.39692 0.0
C87 C 0.02971 0.42023 0.47137 0.0
O88 O 0.02047 0.44626 0.41053 0.0
Co89 Co 0.93691 0.36965 0.44502 0.0
O90 O 0.95882 0.4365 0.43618 0.0
C91 C 0.94879 0.31826 0.39645 0.0
C92 C 0.08637 0.37335 0.40834 0.0
C93 C 0.99319 0.4607 0.41963 0.0
O94 O 0.99173 0.34908 0.39604 0.0
O95 O 0.92068 0.31802 0.41552 0.0
O96 O 0.06975 0.43939 0.45842 0.0
O97 O 0.99811 0.38303 0.45811 0.0
Co98 Co 0.59337 0.63521 0.39161 0.0
O99 O 0.55028 0.62266 0.42407 0.0
O100 O 0.60305 0.60107 0.42331 0.0
C101 C 0.61719 0.71143 0.37951 0.0
O102 O 0.64394 0.6406 0.36468 0.0
Co103 Co 0.57505 0.65453 0.3268 0.0
O104 O 0.63839 0.66567 0.31941 0.0
C105 C 0.51569 0.56343 0.35377 0.0
C106 C 0.56748 0.5986 0.43636 0.0
C107 C 0.65978 0.65503 0.33867 0.0
O108 O 0.54692 0.57352 0.37372 0.0
O109 O 0.51824 0.5928 0.33431 0.0
O110 O 0.63441 0.70173 0.40279 0.0
O111 O 0.58184 0.67556 0.36781 0.0
Co112 Co 0.38596 0.95615 0.41187 0.0
O113 O 0.31972 0.92075 0.42023 0.0
O114 O 0.3535 0.90517 0.38377 0.0
C115 C 0.42025 0.96729 0.4577 0.0
O116 O 0.44998 0.9815 0.39499 0.0
Co117 Co 0.45095 0.05918 0.43369 0.0
O118 O 0.50015 0.05274 0.41378 0.0
C119 C 0.37948 0.03933 0.38873 0.0
C120 C 0.31525 0.89678 0.3961 0.0
C121 C 0.49076 0.01712 0.39772 0.0
O122 O 0.37211 0.99729 0.38565 0.0
O123 O 0.40696 0.06834 0.40818 0.0
O124 O 0.40455 0.92715 0.44387 0.0
O125 O 0.40835 0.99524 0.4456 0.0
Co126 Co 0.24099 0.2358 0.28315 0.0
O127 O 0.21125 0.18119 0.25673 0.0
O128 O 0.27847 0.24429 0.24876 0.0
C129 C 0.18291 0.24954 0.2967 0.0
O130 O 0.28309 0.29772 0.303 0.0
Co131 Co 0.21862 0.22879 0.35036 0.0
O132 O 0.26521 0.29702 0.35097 0.0
C133 C 0.26625 0.18223 0.32696 0.0
C134 C 0.24866 0.20165 0.24092 0.0
C135 C 0.28869 0.31785 0.32823 0.0
O136 O 0.27414 0.20641 0.30336 0.0
O137 O 0.23961 0.18133 0.34734 0.0
O138 O 0.20156 0.26207 0.27064 0.0
O139 O 0.19345 0.2217 0.31047 0.0
Co140 Co 0.74089 0.01029 0.26312 0.0
O141 O 0.78287 0.03163 0.22948 0.0
O142 O 0.72481 0.04487 0.23506 0.0
C143 C 0.7237 0.9342 0.26965 0.0
O144 O 0.69161 0.99668 0.29344 0.0
Co145 Co 0.76929 0.98438 0.32351 0.0
O146 O 0.70468 0.96553 0.33433 0.0
C147 C 0.81079 0.08276 0.30618 0.0
C148 C 0.76095 0.05287 0.22008 0.0
C149 C 0.6801 0.97774 0.31907 0.0
O150 O 0.78257 0.07095 0.28415 0.0
O151 O 0.81458 0.05332 0.32276 0.0
O152 O 0.70372 0.94496 0.24849 0.0
O153 O 0.75866 0.97003 0.2817 0.0
Co154 Co 1.00027 0.73387 0.29377 0.0
O155 O 0.98145 0.75831 0.25998 0.0
O156 O 0.97002 0.68641 0.26327 0.0
C157 C 0.07372 0.7928 0.3048 0.0
O158 O 0.01264 0.69406 0.32241 0.0
Co159 Co 0.02056 0.77813 0.35722 0.0
O160 O 0.03689 0.72917 0.36691 0.0
C161 C 0.92482 0.72626 0.3349 0.0
C162 C 0.96237 0.71595 0.24878 0.0
C163 C 0.02818 0.69595 0.34878 0.0
O164 O 0.93797 0.71353 0.31174 0.0
O165 O 0.95269 0.75439 0.35458 0.0
O166 O 0.06633 0.76412 0.28271 0.0
O167 O 0.03673 0.78944 0.31577 0.0
Co168 Co 0.70353 0.73952 0.74828 0.0
O169 O 0.72942 0.69772 0.75424 0.0
O170 O 0.75221 0.75297 0.72063 0.0
C171 C 0.69754 0.76254 0.79505 0.0
O172 O 0.68874 0.7888 0.73375 0.0
Co173 Co 0.60599 0.71803 0.76891 0.0
O174 O 0.62761 0.78393 0.75738 0.0
C175 C 0.61414 0.66582 0.71873 0.0
C176 C 0.75483 0.71769 0.73114 0.0
C177 C 0.66187 0.8049 0.74025 0.0
O178 O 0.65815 0.69226 0.71945 0.0
O179 O 0.58709 0.66855 0.73745 0.0
O180 O 0.73745 0.78128 0.78197 0.0
O181 O 0.66531 0.72586 0.78172 0.0
Co182 Co 0.2569 0.97549 0.72932 0.0
O183 O 0.20597 0.95635 0.75705 0.0
O184 O 0.2663 0.94704 0.76443 0.0
C185 C 0.27017 0.04752 0.71413 0.0
O186 O 0.31623 0.99032 0.70861 0.0
Co187 Co 0.24811 0.98874 0.6619 0.0
O188 O 0.3159 0.01285 0.66174 0.0
C189 C 0.19256 0.89711 0.6894 0.0
C190 C 0.22573 0.93803 0.77306 0.0
C191 C 0.33659 0.00768 0.68407 0.0
O192 O 0.22167 0.91123 0.71105 0.0
O193 O 0.19463 0.92422 0.66847 0.0
O194 O 0.28674 0.0432 0.73954 0.0
O195 O 0.24175 0.00839 0.70143 0.0
Co196 Co 0.05522 0.28206 0.74446 0.0
O197 O 0.99063 0.25906 0.75464 0.0
O198 O 0.01328 0.23153 0.71794 0.0
C199 C 0.0904 0.29016 0.78964 0.0
O200 O 0.11623 0.2944 0.72679 0.0
Co201 Co 0.13289 0.38286 0.76289 0.0
O202 O 0.1741 0.36282 0.7448 0.0
C203 C 0.06181 0.37081 0.71994 0.0
C204 C 0.97921 0.2321 0.7312 0.0
C205 C 0.15936 0.32513 0.72971 0.0
O206 O 0.05023 0.32747 0.71699 0.0
O207 O 0.09168 0.39838 0.73895 0.0
O208 O 0.06668 0.24884 0.77715 0.0
O209 O 0.08519 0.32237 0.77699 0.0
Co210 Co 0.91428 0.56598 0.62433 0.0
O211 O 0.88396 0.51076 0.59851 0.0
O212 O 0.94885 0.57535 0.58837 0.0
C213 C 0.85419 0.5748 0.64048 0.0
O214 O 0.95644 0.62878 0.64322 0.0
Co215 Co 0.89787 0.56069 0.6923 0.0
O216 O 0.94419 0.62901 0.69204 0.0
C217 C 0.94679 0.51675 0.66651 0.0
C218 C 0.9197 0.53207 0.58137 0.0
C219 C 0.96496 0.6495 0.66846 0.0
O220 O 0.95131 0.53928 0.64256 0.0
O221 O 0.92182 0.51579 0.68802 0.0
O222 O 0.87132 0.58939 0.61426 0.0
O223 O 0.86872 0.54954 0.65339 0.0
Co224 Co 0.43759 0.35177 0.60096 0.0
O225 O 0.47605 0.36285 0.56626 0.0
O226 O 0.42574 0.38725 0.57104 0.0
C227 C 0.4138 0.27491 0.61182 0.0
O228 O 0.39252 0.34908 0.63145 0.0
Co229 Co 0.46249 0.32821 0.6632 0.0
O230 O 0.40008 0.31768 0.67392 0.0
C231 C 0.51623 0.42328 0.63959 0.0
C232 C 0.45897 0.38816 0.55582 0.0
C233 C 0.3792 0.33301 0.65752 0.0
O234 O 0.48655 0.41276 0.61848 0.0
O235 O 0.51573 0.39333 0.65786 0.0
O236 O 0.39312 0.285 0.59073 0.0
O237 O 0.4509 0.31038 0.62187 0.0
Co238 Co 0.67037 0.07205 0.61866 0.0
O239 O 0.65907 0.09222 0.58013 0.0
O240 O 0.63343 0.01876 0.59297 0.0
C241 C 0.74744 0.12078 0.62803 0.0
O242 O 0.67259 0.03577 0.65408 0.0
Co243 Co 0.69452 0.13372 0.67554 0.0
O244 O 0.69644 0.08078 0.69524 0.0
C245 C 0.60041 0.08994 0.65152 0.0
C246 C 0.63328 0.04771 0.57361 0.0
C247 C 0.68399 0.04225 0.68165 0.0
O248 O 0.61158 0.06815 0.63271 0.0
O249 O 0.6292 0.1203 0.66991 0.0
O250 O 0.73329 0.08604 0.60921 0.0
O251 O 0.71554 0.13005 0.63597 0.0
H252 H 0.45153 0.05682 1.01319 0.0
H253 H 0.42931 0.97093 0.09 0.0
H254 H 0.46075 0.92779 0.06398 0.0
H255 H 0.49374 0.91322 0.01903 0.0
H256 H 0.51458 0.99792 0.9418 0.0
H257 H 0.48423 0.04191 0.96806 0.0
C258 C 0.45403 0.02903 0.02443 0.0
C259 C 0.43836 0.01778 0.05389 0.0
C260 C 0.47148 0.00353 1.009 0.0
C261 C 0.4413 0.98091 0.06761 0.0
C262 C 0.45915 0.95596 0.0526 0.0
C263 C 0.4915 0.94115 1.0078 0.0
C264 C 0.5065 0.95183 0.97819 0.0
C265 C 0.47408 0.96666 0.0232 0.0
C266 C 0.5032 0.98841 0.96434 0.0
C267 C 0.48598 0.01387 0.97948 0.0
H268 H 0.92121 0.41073 1.00213 0.0
H269 H 0.0279 0.46345 0.06968 0.0
H270 H 0.07318 0.53467 0.04101 0.0
H271 H 0.0839 0.5813 0.9962 0.0
H272 H 0.97589 0.53165 0.92965 0.0
H273 H 0.93048 0.45975 0.95803 0.0
C274 C 0.95416 0.43801 1.01079 0.0
C275 C 0.9708 0.4314 0.03833 0.0
C276 C 0.98023 0.47928 0.99405 0.0
C277 C 0.01375 0.46735 0.0489 0.0
C278 C 0.03993 0.5081 0.03231 0.0
C279 C 0.05035 0.55505 0.98779 0.0
C280 C 0.03364 0.56243 0.96053 0.0
C281 C 0.02376 0.51432 1.00475 0.0
C282 C 0.99001 0.52727 0.95031 0.0
C283 C 0.96384 0.48611 0.9667 0.0
H284 H 0.44404 0.50779 1.01565 0.0
H285 H 0.49851 0.46137 0.94534 0.0
H286 H 0.57077 0.4892 0.97339 0.0
H287 H 0.6194 0.5276 0.01785 0.0
H288 H 0.56455 0.57331 0.08834 0.0
H289 H 0.49183 0.54421 0.06067 0.0
C290 C 0.47166 0.50376 1.00634 0.0
C291 C 0.46542 0.48249 0.97809 0.0
C292 C 0.51319 0.51932 0.02292 0.0
C293 C 0.50199 0.47768 0.96677 0.0
C294 C 0.54343 0.49347 0.98295 0.0
C295 C 0.59136 0.53063 0.02745 0.0
C296 C 0.59781 0.55244 0.05554 0.0
C297 C 0.54949 0.51425 1.01111 0.0
C298 C 0.56088 0.5564 0.06711 0.0
C299 C 0.5192 0.54001 0.0511 0.0
H300 H 0.11855 0.38705 0.35129 0.0
H301 H 0.09974 0.30212 0.42814 0.0
H302 H 0.12565 0.25565 0.40035 0.0
H303 H 0.15224 0.2376 0.3539 0.0
H304 H 0.17093 0.32201 0.27682 0.0
H305 H 0.14585 0.36923 0.30471 0.0
C306 C 0.12074 0.35882 0.36216 0.0
C307 C 0.1076 0.34876 0.39214 0.0
C308 C 0.13498 0.33142 0.34574 0.0
C309 C 0.10996 0.31127 0.40538 0.0
C310 C 0.12454 0.28435 0.38935 0.0
C311 C 0.15071 0.26619 0.34305 0.0
C312 C 0.16346 0.2758 0.313 0.0
C313 C 0.13675 0.29376 0.35944 0.0
C314 C 0.16111 0.31325 0.29967 0.0
C315 C 0.147 0.34058 0.31576 0.0
H316 H 0.5906 0.7364 0.32818 0.0
H317 H 0.70163 0.78854 0.39271 0.0
H318 H 0.74527 0.8598 0.3636 0.0
H319 H 0.75232 0.90748 0.31959 0.0
H320 H 0.6404 0.85621 0.25574 0.0
H321 H 0.59757 0.78425 0.28427 0.0
C322 C 0.62427 0.76338 0.33604 0.0
C323 C 0.64251 0.75678 0.36291 0.0
C324 C 0.64944 0.80436 0.31898 0.0
C325 C 0.68635 0.79243 0.37242 0.0
C326 C 0.71152 0.83321 0.3556 0.0
C327 C 0.71862 0.88061 0.31175 0.0
C328 C 0.69986 0.88779 0.28529 0.0
C329 C 0.69355 0.83954 0.32876 0.0
C330 C 0.65609 0.852 0.27574 0.0
C331 C 0.63133 0.81082 0.29225 0.0
H332 H 0.14913 0.77824 0.30526 0.0
H333 H 0.09809 0.86287 0.34489 0.0
H334 H 0.16481 0.89883 0.37834 0.0
H335 H 0.23833 0.90692 0.39699 0.0
H336 H 0.29182 0.82524 0.35647 0.0
H337 H 0.22389 0.78723 0.32371 0.0
C338 C 0.15295 0.80504 0.3209 0.0
C339 C 0.11837 0.81792 0.32215 0.0
C340 C 0.19173 0.82563 0.3406 0.0
C341 C 0.12394 0.85223 0.34311 0.0
C342 C 0.16212 0.87274 0.36251 0.0
C343 C 0.23477 0.88019 0.38137 0.0
C344 C 0.27013 0.86856 0.37973 0.0
C345 C 0.19612 0.8595 0.36173 0.0
C346 C 0.2651 0.8346 0.35866 0.0
C347 C 0.22629 0.81306 0.33964 0.0
H348 H 0.86363 0.66307 0.63869 0.0
H349 H 0.7906 0.5305 0.68311 0.0
H350 H 0.75519 0.56246 0.71612 0.0
H351 H 0.74501 0.6288 0.73305 0.0
H352 H 0.82046 0.76211 0.68949 0.0
H353 H 0.85494 0.72976 0.65635 0.0
C354 C 0.83935 0.64098 0.65526 0.0
C355 C 0.82915 0.594 0.65789 0.0
C356 C 0.82004 0.66014 0.67495 0.0
C357 C 0.79867 0.5665 0.68022 0.0
C358 C 0.7786 0.58491 0.69932 0.0
C359 C 0.7696 0.65101 0.71667 0.0
C360 C 0.78022 0.69819 0.7142 0.0
C361 C 0.78927 0.63189 0.69717 0.0
C362 C 0.81162 0.72587 0.69226 0.0
C363 C 0.83127 0.70725 0.67303 0.0
H364 H 0.32095 0.21115 0.62124 0.0
H365 H 0.45858 0.24033 0.64401 0.0
H366 H 0.42766 0.17648 0.67954 0.0
H367 H 0.36146 0.11206 0.70518 0.0
H368 H 0.2235 0.07988 0.68128 0.0
H369 H 0.25416 0.1449 0.6462 0.0
C370 C 0.34406 0.20289 0.63352 0.0
C371 C 0.39221 0.23048 0.62945 0.0
C372 C 0.32593 0.16603 0.65454 0.0
C373 C 0.42145 0.21966 0.6463 0.0
C374 C 0.40379 0.18325 0.66693 0.0
C375 C 0.3382 0.11998 0.69277 0.0
C376 C 0.29017 0.0918 0.69658 0.0
C377 C 0.35613 0.15648 0.67162 0.0
C378 C 0.26059 0.10155 0.67933 0.0
C379 C 0.27815 0.13852 0.65896 0.0
H380 H 0.77726 0.17144 0.68068 0.0
H381 H 0.82175 0.11304 0.61142 0.0
H382 H 0.89527 0.1396 0.63744 0.0
H383 H 0.94798 0.17988 0.67982 0.0
H384 H 0.90343 0.23687 0.74985 0.0
H385 H 0.82947 0.20994 0.72404 0.0
C386 C 0.80306 0.16469 0.67115 0.0
C387 C 0.79355 0.14033 0.64377 0.0
C388 C 0.84547 0.17941 0.68668 0.0
C389 C 0.82771 0.13175 0.63222 0.0
C390 C 0.86994 0.14684 0.64722 0.0
C391 C 0.92195 0.18594 0.68972 0.0
C392 C 0.93169 0.21023 0.71711 0.0
C393 C 0.87926 0.17056 0.67454 0.0
C394 C 0.89722 0.21795 0.72912 0.0
C395 C 0.85481 0.20279 0.71418 0.0
H396 H 0.27551 0.05966 0.15857 0.0
H397 H 0.41436 0.17681 0.15559 0.0
H398 H 0.3919 0.2227 0.18708 0.0
H399 H 0.3325 0.23022 0.21513 0.0
H400 H 0.19368 0.11294 0.21809 0.0
H401 H 0.21618 0.06715 0.18654 0.0
C402 C 0.30109 0.09512 0.16497 0.0
C403 C 0.34687 0.11443 0.15465 0.0
C404 C 0.28764 0.12172 0.18275 0.0
C405 C 0.37916 0.1606 0.16328 0.0
C406 C 0.36614 0.1871 0.18113 0.0
C407 C 0.30688 0.19482 0.20861 0.0
C408 C 0.26106 0.17544 0.2189 0.0
C409 C 0.32038 0.16823 0.19081 0.0
C410 C 0.2289 0.12915 0.21043 0.0
C411 C 0.24192 0.10276 0.1925 0.0
H412 H 0.80972 0.21348 0.12432 0.0
H413 H 0.94775 0.24403 0.14752 0.0
H414 H 0.91699 0.1783 0.18145 0.0
H415 H 0.85108 0.11046 0.20453 0.0
H416 H 0.71282 0.081 0.184 0.0
H417 H 0.74305 0.14654 0.14926 0.0
C418 C 0.83307 0.20631 0.1372 0.0
C419 C 0.88129 0.23443 0.13323 0.0
C420 C 0.81497 0.16762 0.15695 0.0
C421 C 0.91064 0.22357 0.14995 0.0
C422 C 0.89303 0.18555 0.16937 0.0
C423 C 0.82747 0.1179 0.19214 0.0
C424 C 0.77952 0.08991 0.19659 0.0
C425 C 0.84527 0.15685 0.17284 0.0
C426 C 0.74978 0.10131 0.18085 0.0
C427 C 0.76715 0.13916 0.16105 0.0
H428 H 0.90949 0.75331 0.2283 0.0
H429 H 0.93474 0.63834 0.21391 0.0
H430 H 0.87144 0.60371 0.17759 0.0
H431 H 0.80703 0.60497 0.14992 0.0
H432 H 0.78196 0.71997 0.16501 0.0
H433 H 0.84566 0.75469 0.20081 0.0
C434 C 0.90172 0.72113 0.21685 0.0
C435 C 0.92767 0.69903 0.22372 0.0
C436 C 0.86427 0.70063 0.19627 0.0
C437 C 0.91595 0.6566 0.20901 0.0
C438 C 0.87935 0.63647 0.18828 0.0
C439 C 0.8151 0.63724 0.16136 0.0
C440 C 0.78902 0.65937 0.15481 0.0
C441 C 0.85276 0.65779 0.18188 0.0
C442 C 0.80095 0.7018 0.16957 0.0
C443 C 0.83773 0.72198 0.19004 0.0
H444 H 0.67507 0.90488 0.87995 0.0
H445 H 0.53542 0.78927 0.8834 0.0
H446 H 0.55604 0.74325 0.8506 0.0
H447 H 0.61415 0.73504 0.82146 0.0
H448 H 0.75393 0.85054 0.81848 0.0
H449 H 0.73307 0.89669 0.85087 0.0
C450 C 0.64885 0.8698 0.8733 0.0
C451 C 0.60337 0.85098 0.88408 0.0
C452 C 0.66127 0.84307 0.85479 0.0
C453 C 0.57042 0.80507 0.87539 0.0
C454 C 0.58236 0.77854 0.85672 0.0
C455 C 0.64025 0.77022 0.82799 0.0
C456 C 0.68584 0.78896 0.81741 0.0
C457 C 0.62778 0.79697 0.84646 0.0
C458 C 0.71881 0.83478 0.82628 0.0
C459 C 0.70675 0.86142 0.8447 0.0
H460 H 0.09267 0.78999 0.86797 0.0
H461 H 0.18877 0.73927 0.85784 0.0
H462 H 0.23266 0.80159 0.82245 0.0
H463 H 0.24513 0.8718 0.7948 0.0
H464 H 0.14781 0.92116 0.8033 0.0
H465 H 0.10372 0.85887 0.83889 0.0
C466 C 0.1229 0.79212 0.85779 0.0
C467 C 0.13696 0.75928 0.8657 0.0
C468 C 0.14836 0.82852 0.83736 0.0
C469 C 0.1766 0.76335 0.85223 0.0
C470 C 0.20203 0.79938 0.83204 0.0
C471 C 0.21456 0.86938 0.80466 0.0
C472 C 0.20049 0.90209 0.79657 0.0
C473 C 0.1886 0.83252 0.82464 0.0
C474 C 0.16 0.89721 0.80921 0.0
C475 C 0.13456 0.86127 0.82952 0.0
H476 H 0.24692 0.31101 0.88097 0.0
H477 H 0.28731 0.45723 0.87303 0.0
H478 H 0.22327 0.43667 0.8382 0.0
H479 H 0.15407 0.37713 0.81112 0.0
H480 H 0.11411 0.23096 0.81813 0.0
H481 H 0.17893 0.25147 0.85244 0.0
C482 C 0.24223 0.33857 0.87134 0.0
C483 C 0.27262 0.3859 0.87966 0.0
C484 C 0.20473 0.32636 0.85143 0.0
C485 C 0.26517 0.42071 0.86701 0.0
C486 C 0.22817 0.40887 0.84718 0.0
C487 C 0.15937 0.34958 0.82007 0.0
C488 C 0.12866 0.30229 0.81191 0.0
C489 C 0.19738 0.36179 0.83946 0.0
C490 C 0.13665 0.26748 0.82396 0.0
C491 C 0.174 0.27929 0.84354 0.0
H492 H 0.94649 0.39068 0.49837 0.0
H493 H 0.08402 0.50965 0.49325 0.0
H494 H 0.06136 0.55531 0.52472 0.0
H495 H 1.00238 0.56195 0.55374 0.0
H496 H 0.86503 0.44278 0.55932 0.0
H497 H 0.8874 0.3974 0.52728 0.0
C498 C 0.97172 0.4265 0.5043 0.0
C499 C 0.01721 0.44637 0.4934 0.0
C500 C 0.95818 0.45293 0.52219 0.0
C501 C 0.04905 0.49302 0.50138 0.0
C502 C 0.03592 0.51938 0.51925 0.0
C503 C 0.97702 0.52624 0.54766 0.0
C504 C 0.93168 0.50619 0.55885 0.0
C505 C 0.9905 0.49987 0.52965 0.0
C506 C 0.89988 0.45949 0.55096 0.0
C507 C 0.91283 0.43334 0.53275 0.0
H508 H 0.58441 0.52955 0.45599 0.0
H509 H 0.49526 0.58745 0.471 0.0
H510 H 0.45269 0.52675 0.50779 0.0
H511 H 0.44046 0.45662 0.53597 0.0
H512 H 0.52932 0.39855 0.52011 0.0
H513 H 0.57147 0.45908 0.48337 0.0
C514 C 0.55597 0.52935 0.46749 0.0
C515 C 0.54371 0.56391 0.46078 0.0
C516 C 0.53098 0.4936 0.48833 0.0
C517 C 0.50606 0.56201 0.47574 0.0
C518 C 0.48144 0.52696 0.49674 0.0
C519 C 0.46868 0.45675 0.52425 0.0
C520 C 0.48118 0.42231 0.5309 0.0
C521 C 0.49337 0.49234 0.50316 0.0
C522 C 0.51839 0.42394 0.51552 0.0
C523 C 0.54282 0.45891 0.49454 0.0
H524 H 0.58224 0.08498 0.55086 0.0
H525 H 0.60437 0.96723 0.54143 0.0
H526 H 0.54036 0.9307 0.5055 0.0
H527 H 0.47565 0.93095 0.47733 0.0
H528 H 0.4516 0.04725 0.48992 0.0
H529 H 0.51736 0.08456 0.52385 0.0
C530 C 0.5737 0.05182 0.54046 0.0
C531 C 0.59904 0.02955 0.54842 0.0
C532 C 0.53545 0.02999 0.5206 0.0
C533 C 0.58615 0.98567 0.53541 0.0
C534 C 0.54915 0.96449 0.51499 0.0
C535 C 0.48449 0.96418 0.48773 0.0
C536 C 0.45814 0.98593 0.48084 0.0
C537 C 0.52296 0.98594 0.50762 0.0
C538 C 0.47083 0.02935 0.49456 0.0
C539 C 0.5088 0.05105 0.514 0.0
H540 H 0.31106 0.94089 0.03661 0.0
H541 H 0.19824 0.96728 0.0211 0.0
H542 H 0.16001 0.89801 0.98887 0.0
H543 H 0.1534 0.82443 0.97182 0.0
H544 H 0.25991 0.79135 0.99419 0.0
H545 H 0.30675 0.86932 0.01662 0.0
C546 C 0.27859 0.93191 0.02559 0.0
C547 C 0.25718 0.95865 0.03106 0.0
C548 C 0.25579 0.89079 1.00856 0.0
C549 C 0.21494 0.94672 0.01717 0.0
C550 C 0.19319 0.90724 0.99884 0.0
C551 C 0.18747 0.83486 0.98086 0.0
C552 C 0.20351 0.80266 0.98138 0.0
C553 C 0.21251 0.87818 0.9953 0.0
C554 C 0.24715 0.8159 0.99364 0.0
C555 C 0.27367 0.86022 1.00655 0.0
H556 H 0.05976 0.35248 0.97091 0.0
H557 H 0.07223 0.37189 0.0657 0.0
H558 H 0.154 0.39609 0.06374 0.0
H559 H 0.22193 0.41096 0.03537 0.0
H560 H 0.20923 0.38745 0.94094 0.0
H561 H 0.1278 0.36567 0.94249 0.0
C562 C 0.08049 0.36213 0.99107 0.0
C563 C 0.05998 0.36033 0.01837 0.0
C564 C 0.12745 0.37523 0.98989 0.0
C565 C 0.08711 0.37257 0.0444 0.0
C566 C 0.13393 0.38659 0.04333 0.0
C567 C 0.20138 0.40129 1.01512 0.0
C568 C 0.22158 0.40098 0.98812 0.0
C569 C 0.15444 0.38793 0.01623 0.0
C570 C 0.19439 0.38777 0.96208 0.0
C571 C 0.14786 0.37541 0.96292 0.0
H572 H 0.75529 0.79808 0.02897 0.0
H573 H 0.63079 0.66732 0.04493 0.0
H574 H 0.58409 0.69977 0.02517 0.0
H575 H 0.57888 0.76887 1.00902 0.0
H576 H 0.70359 0.89754 0.98976 0.0
H577 H 0.7503 0.86254 1.00504 0.0
C578 C 0.71799 0.77651 0.02747 0.0
C579 C 0.69632 0.73079 0.0386 0.0
C580 C 0.69153 0.79524 0.01592 0.0
C581 C 0.64808 0.70269 0.03635 0.0
C582 C 0.62139 0.72134 0.02533 0.0
C583 C 0.61626 0.78878 1.00787 0.0
C584 C 0.63811 0.83568 0.99887 0.0
C585 C 0.64272 0.76808 0.016 0.0
C586 C 0.68637 0.86133 0.99684 0.0
C587 C 0.71299 0.84142 1.00559 0.0
H588 H 0.69687 0.03438 0.04045 0.0
H589 H 0.6668 0.06131 0.95191 0.0
H590 H 0.73631 0.13832 0.95294 0.0
H591 H 0.80597 0.19703 0.9784 0.0
H592 H 0.83805 0.17029 0.06657 0.0
H593 H 0.76783 0.09372 0.06604 0.0
C594 C 0.70533 0.0575 0.02161 0.0
C595 C 0.6768 0.04258 0.99624 0.0
C596 C 0.74601 0.10125 0.02205 0.0
C597 C 0.68838 0.07227 0.97169 0.0
C598 C 0.72814 0.11613 0.97221 0.0
C599 C 0.79785 0.17442 0.99747 0.0
C600 C 0.82734 0.18937 0.0224 0.0
C601 C 0.75741 0.13074 0.99713 0.0
C602 C 0.81622 0.15949 0.04691 0.0
C603 C 0.77585 0.11584 0.04675 0.0
H604 H 0.89819 0.73602 0.04015 0.0
H605 H 0.82649 0.59361 0.07114 0.0
H606 H 0.8862 0.57965 0.05029 0.0
H607 H 0.95962 0.60877 0.02346 0.0
H608 H 0.02648 0.74899 0.98859 0.0
H609 H 0.96801 0.76323 1.01066 0.0
C610 C 0.89578 0.70198 0.04226 0.0
C611 C 0.8585 0.66597 0.05722 0.0
C612 C 0.92935 0.69393 0.02955 0.0
C613 C 0.85504 0.62173 0.05956 0.0
C614 C 0.88916 0.61383 0.04776 0.0
C615 C 0.96114 0.64232 0.0208 0.0
C616 C 0.99715 0.67793 1.0047 0.0
C617 C 0.92658 0.64975 0.03278 0.0
C618 C 0.99879 0.72112 1.00089 0.0
C619 C 0.96553 0.72931 1.01353 0.0
H620 H 0.34971 0.3338 0.06041 0.0
H621 H 0.37988 0.30735 0.97222 0.0
H622 H 0.37585 0.23458 0.9887 0.0
H623 H 0.35822 0.17576 0.02746 0.0
H624 H 0.32143 0.19946 0.11438 0.0
H625 H 0.3339 0.27621 0.09927 0.0
C626 C 0.35601 0.31239 0.04493 0.0
C627 C 0.36502 0.32572 1.01521 0.0
C628 C 0.35215 0.27001 0.0543 0.0
C629 C 0.37257 0.29749 0.99522 0.0
C630 C 0.3703 0.25596 1.0046 0.0
C631 C 0.35349 0.1981 0.04308 0.0
C632 C 0.33878 0.18226 0.07183 0.0
C633 C 0.35927 0.24145 0.03397 0.0
C634 C 0.3323 0.21102 0.09197 0.0
C635 C 0.33949 0.25483 0.08339 0.0
H636 H 0.86856 0.27667 0.36498 0.0
H637 H 0.99372 0.27206 0.38176 0.0
H638 H 0.96375 0.1998 0.35268 0.0
H639 H 0.89835 0.13361 0.3271 0.0
H640 H 0.77549 0.14104 0.30713 0.0
H641 H 0.80835 0.21699 0.33232 0.0
C642 C 0.88929 0.25999 0.36186 0.0
C643 C 0.93268 0.27878 0.37571 0.0
C644 C 0.87231 0.21912 0.34461 0.0
C645 C 0.95998 0.25778 0.37126 0.0
C646 C 0.94288 0.21649 0.35476 0.0
C647 C 0.87935 0.15248 0.32781 0.0
C648 C 0.83465 0.13198 0.3157 0.0
C649 C 0.8986 0.19622 0.342 0.0
C650 C 0.81019 0.15655 0.31631 0.0
C651 C 0.82874 0.19969 0.3309 0.0
H652 H 0.85762 0.7054 0.29315 0.0
H653 H 0.88095 0.70549 0.38725 0.0
H654 H 0.79993 0.67951 0.39627 0.0
H655 H 0.72425 0.66177 0.37801 0.0
H656 H 0.70041 0.66687 0.28439 0.0
H657 H 0.77985 0.6857 0.27455 0.0
C658 C 0.84467 0.69919 0.31555 0.0
C659 C 0.87507 0.70742 0.33953 0.0
C660 C 0.79817 0.6855 0.32067 0.0
C661 C 0.85819 0.69974 0.36849 0.0
C662 C 0.81191 0.68484 0.37367 0.0
C663 C 0.73608 0.66637 0.35536 0.0
C664 C 0.70636 0.66278 0.33198 0.0
C665 C 0.78183 0.67835 0.34999 0.0
C666 C 0.72263 0.66951 0.30282 0.0
C667 C 0.76803 0.6803 0.29719 0.0
H668 H 0.23407 0.09236 0.34362 0.0
H669 H 0.35824 0.21984 0.32153 0.0
H670 H 0.40516 0.18469 0.33584 0.0
H671 H 0.41082 0.12082 0.35994 0.0
H672 H 0.28699 0.99123 0.37893 0.0
H673 H 0.23953 0.02339 0.35985 0.0
C674 C 0.27136 0.11199 0.34167 0.0
C675 C 0.29305 0.15864 0.33218 0.0
C676 C 0.29792 0.09118 0.34927 0.0
C677 C 0.34115 0.18386 0.32904 0.0
C678 C 0.36789 0.16386 0.33723 0.0
C679 C 0.37345 0.09941 0.35918 0.0
C680 C 0.35213 0.05416 0.37096 0.0
C681 C 0.34669 0.11802 0.34809 0.0
C682 C 0.30386 0.02621 0.36978 0.0
C683 C 0.27682 0.04473 0.35919 0.0
H684 H 0.44838 0.52422 0.31166 0.0
H685 H 0.48996 0.49703 0.39682 0.0
H686 H 0.42064 0.42 0.3978 0.0
H687 H 0.34937 0.3591 0.3736 0.0
H688 H 0.31043 0.38538 0.28752 0.0
H689 H 0.37712 0.46451 0.28805 0.0
C690 C 0.44235 0.50152 0.33046 0.0
C691 C 0.47447 0.51627 0.35397 0.0
C692 C 0.40264 0.45727 0.33086 0.0
C693 C 0.46604 0.48635 0.3782 0.0
C694 C 0.42626 0.44238 0.37891 0.0
C695 C 0.35524 0.38259 0.35526 0.0
C696 C 0.32531 0.36693 0.33063 0.0
C697 C 0.39443 0.4274 0.3553 0.0
C698 C 0.33334 0.39703 0.30668 0.0
C699 C 0.37144 0.44207 0.30692 0.0
H700 H 0.66105 0.04752 0.3229 0.0
H701 H 0.6104 0.90359 0.3473 0.0
H702 H 0.54527 0.90236 0.37292 0.0
H703 H 0.50447 0.94354 0.38943 0.0
H704 H 0.56076 0.09007 0.36945 0.0
H705 H 0.62242 0.08938 0.34106 0.0
C706 C 0.63533 0.01579 0.33357 0.0
C707 C 0.63961 0.97546 0.33298 0.0
C708 C 0.59949 0.01611 0.34917 0.0
C709 C 0.60717 0.93482 0.34743 0.0
C710 C 0.57019 0.93421 0.36206 0.0
C711 C 0.53024 0.97517 0.37872 0.0
C712 C 0.52822 0.01673 0.38124 0.0
C713 C 0.56625 0.9748 0.36325 0.0
C714 C 0.56197 0.0578 0.3678 0.0
C715 C 0.59701 0.05735 0.35152 0.0
H716 H 0.01043 0.65856 0.40333 0.0
H717 H 0.05322 0.64242 0.31653 0.0
H718 H 0.04995 0.56934 0.3316 0.0
H719 H 0.02864 0.50684 0.36833 0.0
H720 H 0.97912 0.52025 0.4535 0.0
H721 H 0.9913 0.59755 0.44032 0.0
C722 C 0.01985 0.63942 0.38794 0.0
C723 C 0.03217 0.65565 0.35898 0.0
C724 C 0.01606 0.59666 0.39637 0.0
C725 C 0.04355 0.63031 0.33898 0.0
C726 C 0.04157 0.58856 0.34755 0.0
C727 C 0.02092 0.52698 0.38399 0.0
C728 C 1.00262 0.50794 0.41164 0.0
C729 C 0.02683 0.57085 0.37597 0.0
C730 C 0.99254 0.53406 0.43185 0.0
C731 C 0.9997 0.57829 0.42441 0.0
H732 H 0.4923 0.48969 0.63961 0.0
H733 H 0.60662 0.46656 0.65728 0.0
H734 H 0.65086 0.54519 0.67928 0.0
H735 H 0.65166 0.61461 0.70001 0.0
H736 H 0.53207 0.63137 0.68913 0.0
H737 H 0.49492 0.5611 0.6577 0.0
C738 C 0.52743 0.50252 0.64752 0.0
C739 C 0.54658 0.47298 0.64676 0.0
C740 C 0.55113 0.54616 0.66176 0.0
C741 C 0.59155 0.48913 0.65765 0.0
C742 C 0.61658 0.5338 0.67034 0.0
C743 C 0.61786 0.60331 0.69022 0.0
C744 C 0.59436 0.62769 0.69677 0.0
C745 C 0.59595 0.56177 0.67354 0.0
C746 C 0.55042 0.61268 0.68442 0.0
C747 C 0.5293 0.57265 0.66651 0.0
H748 H 0.55084 0.08554 0.69972 0.0
H749 H 0.54 0.06485 0.60512 0.0
H750 H 0.4575 0.03883 0.6065 0.0
H751 H 0.3878 0.01949 0.63491 0.0
H752 H 0.39805 0.03481 0.72998 0.0
H753 H 0.4811 0.06503 0.72814 0.0
C754 C 0.53044 0.07585 0.67942 0.0
C755 C 0.55141 0.07746 0.65237 0.0
C756 C 0.48277 0.05944 0.68049 0.0
C757 C 0.52452 0.06394 0.62623 0.0
C758 C 0.47737 0.04898 0.627 0.0
C759 C 0.40826 0.02946 0.6552 0.0
C760 C 0.38671 0.02466 0.68252 0.0
C761 C 0.456 0.04611 0.65406 0.0
C762 C 0.41366 0.03758 0.70865 0.0
C763 C 0.46124 0.05515 0.70764 0.0
H764 H 0.09369 0.45803 0.69834 0.0
H765 H 0.97088 0.32255 0.70485 0.0
H766 H 0.92362 0.35546 0.68708 0.0
H767 H 0.91665 0.4251 0.67561 0.0
H768 H 0.03967 0.55938 0.66618 0.0
H769 H 0.08779 0.5248 0.67912 0.0
C770 C 0.0567 0.43566 0.69526 0.0
C771 C 0.0356 0.38829 0.70317 0.0
C772 C 0.02988 0.45473 0.68494 0.0
C773 C 0.98779 0.35922 0.6988 0.0
C774 C 0.96073 0.37807 0.68892 0.0
C775 C 0.95402 0.44638 0.67606 0.0
C776 C 0.97498 0.49452 0.67056 0.0
C777 C 0.98126 0.42608 0.6829 0.0
C778 C 0.02324 0.52214 0.6706 0.0
C779 C 0.05059 0.50246 0.67801 0.0
H780 H 0.12583 0.85417 0.6473 0.0
H781 H 0.16977 0.83156 0.73296 0.0
H782 H 0.10091 0.75417 0.73526 0.0
H783 H 0.02826 0.69243 0.71259 0.0
H784 H 0.98627 0.71534 0.62652 0.0
H785 H 0.05391 0.79364 0.62506 0.0
C786 C 0.12062 0.83232 0.66644 0.0
C787 C 0.15314 0.84864 0.68979 0.0
C788 C 0.08091 0.78815 0.66775 0.0
C789 C 0.14558 0.81975 0.71447 0.0
C790 C 0.106 0.7756 0.71594 0.0
C791 C 0.03367 0.715 0.69381 0.0
C792 C 1.00242 0.69851 0.66978 0.0
C793 C 0.07332 0.75951 0.69276 0.0
C794 C 0.01002 0.72751 0.64526 0.0
C795 C 0.04872 0.77211 0.64435 0.0
H796 H 0.23727 0.38984 0.70415 0.0
H797 H 0.15928 0.24227 0.72333 0.0
H798 H 0.22153 0.23123 0.70355 0.0
H799 H 0.29981 0.26488 0.68193 0.0
H800 H 0.37367 0.41158 0.65974 0.0
H801 H 0.31161 0.42194 0.67974 0.0
C802 C 0.23386 0.35523 0.70384 0.0
C803 C 0.19413 0.31698 0.71526 0.0
C804 C 0.26922 0.34919 0.69213 0.0
C805 C 0.18963 0.27216 0.71445 0.0
C806 C 0.22528 0.26594 0.70335 0.0
C807 C 0.30206 0.29898 0.68166 0.0
C808 C 0.34113 0.33761 0.66982 0.0
C809 C 0.2655 0.30436 0.6924 0.0
C810 C 0.34375 0.38153 0.66891 0.0
C811 C 0.30837 0.38745 0.68029 0.0
H812 H 0.64985 0.87392 0.76386 0.0
H813 H 0.69316 0.83312 0.68499 0.0
H814 H 0.70517 0.9041 0.66017 0.0
H815 H 0.70089 0.97608 0.66031 0.0
H816 H 0.66191 0.02015 0.7396 0.0
H817 H 0.65118 0.94975 0.76513 0.0
C818 C 0.66184 0.88075 0.74124 0.0
C819 C 0.67013 0.84841 0.72606 0.0
C820 C 0.66959 0.92208 0.72732 0.0
C821 C 0.68655 0.85771 0.69701 0.0
C822 C 0.69335 0.89814 0.68281 0.0
C823 C 0.69019 0.97027 0.68322 0.0
C824 C 0.68166 1.00265 0.69804 0.0
C825 C 0.68464 0.93031 0.69768 0.0
C826 C 0.66867 0.99547 0.72784 0.0
C827 C 0.6623 0.95521 0.74234 0.0
loop_
_geom_bond_atom_site_label_1
_geom_bond_atom_site_label_2
_geom_bond_distance
_geom_bond_site_symmetry_2
_ccdc_geom_bond_type
Co0 O1 2.216 . S
Co0 O2 2.091 . S
Co0 O4 2.004 . S
Co0 O10 2.021 1_545 S
Co0 O12 2.137 . S
Co0 O13 2.244 . S
O1 Co0 2.216 . S
O1 C8 1.247 . S
O2 Co0 2.091 . S
O2 C8 1.261 . S
C3 O12 1.247 . S
C3 O13 1.272 . S
O4 Co0 2.004 . S
O4 C9 1.259 . S
Co5 O6 2.061 . S
Co5 O11 2.052 1_545 S
Co5 O13 2.135 . S
O6 Co5 2.061 . S
O6 C9 1.235 . S
C7 O10 1.238 . S
C7 O11 1.241 . S
C8 O1 1.247 . S
C8 O2 1.261 . S
C9 O4 1.259 . S
C9 O6 1.235 . S
O10 Co0 2.021 1_565 S
O10 C7 1.238 . S
O11 Co5 2.052 1_565 S
O11 C7 1.241 . S
O12 Co0 2.137 . S
O12 C3 1.247 . S
O13 Co0 2.244 . S
O13 C3 1.272 . S
O13 Co5 2.135 . S
Co14 O15 2.216 . S
Co14 O16 2.091 . S
Co14 O18 2.004 1_655 S
Co14 O24 2.021 . S
Co14 O26 2.137 . S
Co14 O27 2.244 . S
O15 Co14 2.216 . S
O15 C22 1.247 . S
O16 Co14 2.091 . S
O16 C22 1.261 . S
C17 O26 1.247 . S
C17 O27 1.272 . S
O18 Co14 2.004 1_455 S
O18 C23 1.259 . S
Co19 O20 2.061 1_656 S
Co19 O25 2.052 1_556 S
Co19 O27 2.135 1_556 S
O20 Co19 2.061 1_454 S
O20 C23 1.235 . S
C21 O24 1.238 . S
C21 O25 1.241 . S
C22 O15 1.247 . S
C22 O16 1.261 . S
C23 O18 1.259 . S
C23 O20 1.235 . S
O24 Co14 2.021 . S
O24 C21 1.238 . S
O25 Co19 2.052 1_554 S
O25 C21 1.241 . S
O26 Co14 2.137 . S
O26 C17 1.247 . S
O27 Co14 2.244 . S
O27 C17 1.272 . S
O27 Co19 2.135 1_554 S
Co28 O29 2.216 . S
Co28 O30 2.091 . S
Co28 O32 2.004 . S
Co28 O38 2.021 . S
Co28 O40 2.137 . S
Co28 O41 2.244 . S
O29 Co28 2.216 . S
O29 C36 1.247 . S
O30 Co28 2.091 . S
O30 C36 1.261 . S
C31 O40 1.247 . S
C31 O41 1.272 . S
O32 Co28 2.004 . S
O32 C37 1.259 . S
Co33 O34 2.061 . S
Co33 O39 2.052 . S
Co33 O41 2.135 . S
O34 Co33 2.061 . S
O34 C37 1.235 . S
C35 O38 1.238 . S
C35 O39 1.241 . S
C36 O29 1.247 . S
C36 O30 1.261 . S
C37 O32 1.259 . S
C37 O34 1.235 . S
O38 Co28 2.021 . S
O38 C35 1.238 . S
O39 Co33 2.052 . S
O39 C35 1.241 . S
O40 Co28 2.137 . S
O40 C31 1.247 . S
O41 Co28 2.244 . S
O41 C31 1.272 . S
O41 Co33 2.135 . S
Co42 O43 2.216 . S
Co42 O44 2.091 . S
Co42 O46 2.004 1_565 S
Co42 O52 2.021 . S
Co42 O54 2.137 . S
Co42 O55 2.244 . S
O43 Co42 2.216 . S
O43 C50 1.247 . S
O44 Co42 2.091 . S
O44 C50 1.261 . S
C45 O54 1.247 . S
C45 O55 1.272 . S
O46 Co42 2.004 1_545 S
O46 C51 1.259 . S
Co47 O48 2.061 1_564 S
Co47 O53 2.052 1_554 S
Co47 O55 2.135 1_554 S
O48 Co47 2.061 1_546 S
O48 C51 1.235 . S
C49 O52 1.238 . S
C49 O53 1.241 . S
C50 O43 1.247 . S
C50 O44 1.261 . S
C51 O46 1.259 . S
C51 O48 1.235 . S
O52 Co42 2.021 . S
O52 C49 1.238 . S
O53 Co47 2.052 1_556 S
O53 C49 1.241 . S
O54 Co42 2.137 . S
O54 C45 1.247 . S
O55 Co42 2.244 . S
O55 C45 1.272 . S
O55 Co47 2.135 1_556 S
Co56 O57 2.216 . S
Co56 O58 2.091 . S
Co56 O60 2.004 1_455 S
Co56 O66 2.021 . S
Co56 O68 2.137 . S
Co56 O69 2.244 . S
O57 Co56 2.216 . S
O57 C64 1.247 . S
O58 Co56 2.091 . S
O58 C64 1.261 . S
C59 O68 1.247 . S
C59 O69 1.272 . S
O60 Co56 2.004 1_655 S
O60 C65 1.259 . S
Co61 O62 2.063 1_454 S
Co61 O67 2.052 . S
Co61 O69 2.135 1_554 S
O62 Co61 2.063 1_656 S
O62 C65 1.231 . S
C63 O66 1.238 . S
C63 O67 1.241 1_556 S
C64 O57 1.247 . S
C64 O58 1.261 . S
C65 O60 1.259 . S
C65 O62 1.231 . S
O66 Co56 2.021 . S
O66 C63 1.238 . S
O67 Co61 2.052 . S
O67 C63 1.241 1_554 S
O68 Co56 2.137 . S
O68 C59 1.247 . S
O69 Co56 2.244 . S
O69 C59 1.272 . S
O69 Co61 2.135 1_556 S
Co70 O71 2.216 . S
Co70 O72 2.091 . S
Co70 O74 2.004 . S
Co70 O80 2.021 . S
Co70 O82 2.137 . S
Co70 O83 2.244 . S
O71 Co70 2.216 . S
O71 C78 1.247 . S
O72 Co70 2.091 . S
O72 C78 1.261 . S
C73 O82 1.247 . S
C73 O83 1.272 . S
O74 Co70 2.004 . S
O74 C79 1.259 . S
Co75 O76 2.061 1_554 S
Co75 O81 2.052 1_554 S
Co75 O83 2.135 1_554 S
O76 Co75 2.061 1_556 S
O76 C79 1.235 . S
C77 O80 1.238 . S
C77 O81 1.241 . S
C78 O71 1.247 . S
C78 O72 1.261 . S
C79 O74 1.259 . S
C79 O76 1.235 . S
O80 Co70 2.021 . S
O80 C77 1.238 . S
O81 Co75 2.052 1_556 S
O81 C77 1.241 . S
O82 Co70 2.137 . S
O82 C73 1.247 . S
O83 Co70 2.244 . S
O83 C73 1.272 . S
O83 Co75 2.135 1_556 S
Co84 O85 2.216 . S
Co84 O86 2.091 . S
Co84 O88 2.004 . S
Co84 O94 2.021 1_455 S
Co84 O96 2.137 . S
Co84 O97 2.244 1_455 S
O85 Co84 2.216 . S
O85 C92 1.247 . S
O86 Co84 2.091 . S
O86 C92 1.261 . S
C87 O96 1.247 . S
C87 O97 1.272 1_455 S
O88 Co84 2.004 . S
O88 C93 1.259 1_455 S
Co89 O90 2.061 . S
Co89 O95 2.052 . S
Co89 O97 2.135 . S
O90 Co89 2.061 . S
O90 C93 1.235 . S
C91 O94 1.238 . S
C91 O95 1.241 . S
C92 O85 1.247 . S
C92 O86 1.261 . S
C93 O88 1.259 1_655 S
C93 O90 1.235 . S
O94 Co84 2.021 1_655 S
O94 C91 1.238 . S
O95 Co89 2.052 . S
O95 C91 1.241 . S
O96 Co84 2.137 . S
O96 C87 1.247 . S
O97 Co84 2.244 1_655 S
O97 C87 1.272 1_655 S
O97 Co89 2.135 . S
Co98 O99 2.216 . S
Co98 O100 2.091 . S
Co98 O102 2.004 . S
Co98 O108 2.021 . S
Co98 O110 2.137 . S
Co98 O111 2.244 . S
O99 Co98 2.216 . S
O99 C106 1.247 . S
O100 Co98 2.091 . S
O100 C106 1.261 . S
C101 O110 1.247 . S
C101 O111 1.272 . S
O102 Co98 2.004 . S
O102 C107 1.259 . S
Co103 O104 2.061 . S
Co103 O109 2.052 . S
Co103 O111 2.135 . S
O104 Co103 2.061 . S
O104 C107 1.235 . S
C105 O108 1.238 . S
C105 O109 1.241 . S
C106 O99 1.247 . S
C106 O100 1.261 . S
C107 O102 1.259 . S
C107 O104 1.235 . S
O108 Co98 2.021 . S
O108 C105 1.238 . S
O109 Co103 2.052 . S
O109 C105 1.241 . S
O110 Co98 2.137 . S
O110 C101 1.247 . S
O111 Co98 2.244 . S
O111 C101 1.272 . S
O111 Co103 2.135 . S
Co112 O113 2.216 . S
Co112 O114 2.091 . S
Co112 O116 2.004 . S
Co112 O122 2.021 1_565 S
Co112 O124 2.137 . S
Co112 O125 2.244 1_565 S
O113 Co112 2.216 . S
O113 C120 1.247 . S
O114 Co112 2.091 . S
O114 C120 1.261 . S
C115 O124 1.247 . S
C115 O125 1.272 1_565 S
O116 Co112 2.004 . S
O116 C121 1.259 1_565 S
Co117 O118 2.061 . S
Co117 O123 2.052 . S
Co117 O125 2.135 . S
O118 Co117 2.061 . S
O118 C121 1.235 . S
C119 O122 1.238 . S
C119 O123 1.241 . S
C120 O113 1.247 . S
C120 O114 1.261 . S
C121 O116 1.259 1_545 S
C121 O118 1.235 . S
O122 Co112 2.021 1_545 S
O122 C119 1.238 . S
O123 Co117 2.052 . S
O123 C119 1.241 . S
O124 Co112 2.137 . S
O124 C115 1.247 . S
O125 Co112 2.244 1_545 S
O125 C115 1.272 1_545 S
O125 Co117 2.135 . S
Co126 O127 2.216 . S
Co126 O128 2.091 . S
Co126 O130 2.004 . S
Co126 O136 2.021 . S
Co126 O138 2.137 . S
Co126 O139 2.244 . S
O127 Co126 2.216 . S
O127 C134 1.247 . S
O128 Co126 2.091 . S
O128 C134 1.261 . S
C129 O138 1.247 . S
C129 O139 1.272 . S
O130 Co126 2.004 . S
O130 C135 1.259 . S
Co131 O132 2.061 . S
Co131 O137 2.052 . S
Co131 O139 2.135 . S
O132 Co131 2.061 . S
O132 C135 1.235 . S
C133 O136 1.238 . S
C133 O137 1.241 . S
C134 O127 1.247 . S
C134 O128 1.261 . S
C135 O130 1.259 . S
C135 O132 1.235 . S
O136 Co126 2.021 . S
O136 C133 1.238 . S
O137 Co131 2.052 . S
O137 C133 1.241 . S
O138 Co126 2.137 . S
O138 C129 1.247 . S
O139 Co126 2.244 . S
O139 C129 1.272 . S
O139 Co131 2.135 . S
Co140 O141 2.216 . S
Co140 O142 2.091 . S
Co140 O144 2.004 . S
Co140 O150 2.021 . S
Co140 O152 2.137 1_545 S
Co140 O153 2.244 . S
O141 Co140 2.216 . S
O141 C148 1.247 . S
O142 Co140 2.091 . S
O142 C148 1.261 . S
C143 O152 1.247 . S
C143 O153 1.272 1_565 S
O144 Co140 2.004 . S
O144 C149 1.259 . S
Co145 O146 2.061 . S
Co145 O151 2.052 . S
Co145 O153 2.135 . S
O146 Co145 2.061 . S
O146 C149 1.235 . S
C147 O150 1.238 . S
C147 O151 1.241 . S
C148 O141 1.247 . S
C148 O142 1.261 . S
C149 O144 1.259 . S
C149 O146 1.235 . S
O150 Co140 2.021 . S
O150 C147 1.238 . S
O151 Co145 2.052 . S
O151 C147 1.241 . S
O152 Co140 2.137 1_565 S
O152 C143 1.247 . S
O153 Co140 2.244 . S
O153 C143 1.272 1_545 S
O153 Co145 2.135 . S
Co154 O155 2.216 . S
Co154 O156 2.091 . S
Co154 O158 2.004 . S
Co154 O164 2.021 . S
Co154 O166 2.137 1_655 S
Co154 O167 2.244 . S
O155 Co154 2.216 . S
O155 C162 1.247 . S
O156 Co154 2.091 . S
O156 C162 1.261 . S
C157 O166 1.247 . S
C157 O167 1.272 1_455 S
O158 Co154 2.004 . S
O158 C163 1.259 . S
Co159 O160 2.061 . S
Co159 O165 2.052 . S
Co159 O167 2.135 . S
O160 Co159 2.061 . S
O160 C163 1.235 . S
C161 O164 1.238 . S
C161 O165 1.241 . S
C162 O155 1.247 . S
C162 O156 1.261 . S
C163 O158 1.259 . S
C163 O160 1.235 . S
O164 Co154 2.021 . S
O164 C161 1.238 . S
O165 Co159 2.052 . S
O165 C161 1.241 . S
O166 Co154 2.137 1_455 S
O166 C157 1.247 . S
O167 Co154 2.244 . S
O167 C157 1.272 1_655 S
O167 Co159 2.135 . S
Co168 O169 2.216 . S
Co168 O170 2.091 . S
Co168 O172 2.004 . S
Co168 O178 2.021 . S
Co168 O180 2.137 . S
Co168 O181 2.244 . S
O169 Co168 2.216 . S
O169 C176 1.247 . S
O170 Co168 2.091 . S
O170 C176 1.261 . S
C171 O180 1.247 . S
C171 O181 1.272 . S
O172 Co168 2.004 . S
O172 C177 1.259 . S
Co173 O174 2.061 . S
Co173 O179 2.052 . S
Co173 O181 2.135 . S
O174 Co173 2.061 . S
O174 C177 1.235 . S
C175 O178 1.238 . S
C175 O179 1.241 . S
C176 O169 1.247 . S
C176 O170 1.261 . S
C177 O172 1.259 . S
C177 O174 1.235 . S
O178 Co168 2.021 . S
O178 C175 1.238 . S
O179 Co173 2.052 . S
O179 C175 1.241 . S
O180 Co168 2.137 . S
O180 C171 1.247 . S
O181 Co168 2.244 . S
O181 C171 1.272 . S
O181 Co173 2.135 . S
Co182 O183 2.216 . S
Co182 O184 2.091 . S
Co182 O186 2.004 . S
Co182 O192 2.021 . S
Co182 O194 2.137 1_565 S
Co182 O195 2.246 1_565 S
O183 Co182 2.216 . S
O183 C190 1.247 . S
O184 Co182 2.091 . S
O184 C190 1.261 . S
C185 O194 1.247 . S
C185 O195 1.270 . S
O186 Co182 2.004 . S
O186 C191 1.259 . S
Co187 O188 2.061 . S
Co187 O193 2.052 . S
Co187 O195 2.136 1_565 S
O188 Co187 2.061 . S
O188 C191 1.235 . S
C189 O192 1.238 . S
C189 O193 1.241 . S
C190 O183 1.247 . S
C190 O184 1.261 . S
C191 O186 1.259 . S
C191 O188 1.235 . S
O192 Co182 2.021 . S
O192 C189 1.238 . S
O193 Co187 2.052 . S
O193 C189 1.241 . S
O194 Co182 2.137 1_545 S
O194 C185 1.247 . S
O195 Co182 2.246 1_545 S
O195 C185 1.270 . S
O195 Co187 2.136 1_545 S
Co196 O197 2.216 1_455 S
Co196 O198 2.091 1_455 S
Co196 O200 2.004 . S
Co196 O206 2.021 . S
Co196 O208 2.137 . S
Co196 O209 2.244 . S
O197 Co196 2.216 1_655 S
O197 C204 1.247 . S
O198 Co196 2.091 1_655 S
O198 C204 1.261 . S
C199 O208 1.247 . S
C199 O209 1.272 . S
O200 Co196 2.004 . S
O200 C205 1.259 . S
Co201 O202 2.061 . S
Co201 O207 2.052 . S
Co201 O209 2.135 . S
O202 Co201 2.061 . S
O202 C205 1.235 . S
C203 O206 1.238 . S
C203 O207 1.241 . S
C204 O197 1.247 . S
C204 O198 1.261 . S
C205 O200 1.259 . S
C205 O202 1.235 . S
O206 Co196 2.021 . S
O206 C203 1.238 . S
O207 Co201 2.052 . S
O207 C203 1.241 . S
O208 Co196 2.137 . S
O208 C199 1.247 . S
O209 Co196 2.244 . S
O209 C199 1.272 . S
O209 Co201 2.135 . S
Co210 O211 2.211 1_455 S
Co210 O212 2.098 . S
Co210 O214 2.012 . S
Co210 O220 2.036 . S
Co210 O222 2.118 1_455 S
Co210 O223 2.229 1_455 S
O211 Co210 2.211 1_655 S
O211 C218 1.247 . S
O212 Co210 2.098 . S
O212 C218 1.261 1_455 S
C213 O222 1.247 . S
C213 O223 1.272 . S
O214 Co210 2.012 . S
O214 C219 1.259 . S
Co215 O216 2.061 1_655 S
Co215 O221 2.052 . S
Co215 O223 2.135 . S
O216 Co215 2.061 1_455 S
O216 C219 1.235 . S
C217 O220 1.238 . S
C217 O221 1.241 1_455 S
C218 O211 1.247 . S
C218 O212 1.261 1_655 S
C219 O214 1.259 . S
C219 O216 1.235 . S
O220 Co210 2.036 . S
O220 C217 1.238 . S
O221 Co215 2.052 . S
O221 C217 1.241 1_655 S
O222 Co210 2.118 1_655 S
O222 C213 1.247 . S
O223 Co210 2.229 1_655 S
O223 C213 1.272 . S
O223 Co215 2.135 . S
Co224 O225 2.216 . S
Co224 O226 2.091 . S
Co224 O228 2.004 . S
Co224 O234 2.021 . S
Co224 O236 2.137 . S
Co224 O237 2.244 . S
O225 Co224 2.216 . S
O225 C232 1.247 . S
O226 Co224 2.091 . S
O226 C232 1.261 . S
C227 O236 1.247 . S
C227 O237 1.272 . S
O228 Co224 2.004 . S
O228 C233 1.259 . S
Co229 O230 2.061 . S
Co229 O235 2.052 . S
Co229 O237 2.135 . S
O230 Co229 2.061 . S
O230 C233 1.235 . S
C231 O234 1.238 . S
C231 O235 1.241 . S
C232 O225 1.247 . S
C232 O226 1.261 . S
C233 O228 1.259 . S
C233 O230 1.235 . S
O234 Co224 2.021 . S
O234 C231 1.238 . S
O235 Co229 2.052 . S
O235 C231 1.241 . S
O236 Co224 2.137 . S
O236 C227 1.247 . S
O237 Co224 2.244 . S
O237 C227 1.272 . S
O237 Co229 2.135 . S
Co238 O239 2.196 1_565 S
Co238 O240 2.094 . S
Co238 O242 2.028 . S
Co238 O248 2.018 . S
Co238 O250 2.134 1_565 S
Co238 O251 2.233 1_565 S
O239 Co238 2.196 1_545 S
O239 C246 1.247 . S
O240 Co238 2.094 . S
O240 C246 1.261 1_565 S
C241 O250 1.247 . S
C241 O251 1.272 . S
O242 Co238 2.028 . S
O242 C247 1.259 . S
Co243 O244 2.061 1_545 S
Co243 O249 2.052 . S
Co243 O251 2.135 . S
O244 Co243 2.061 1_565 S
O244 C247 1.235 . S
C245 O248 1.238 . S
C245 O249 1.241 1_565 S
C246 O239 1.247 . S
C246 O240 1.261 1_545 S
C247 O242 1.259 . S
C247 O244 1.235 . S
O248 Co238 2.018 . S
O248 C245 1.238 . S
O249 Co243 2.052 . S
O249 C245 1.241 1_545 S
O250 Co238 2.134 1_545 S
O250 C241 1.247 . S
O251 Co238 2.233 1_545 S
O251 C241 1.272 . S
O251 Co243 2.135 . S
H252 C258 0.923 1_556 S
H253 C261 0.930 . S
H254 C262 0.930 . S
H255 C263 0.930 1_554 S
H256 C266 0.930 . S
H257 C267 0.930 . S
C258 H252 0.923 1_554 S
C258 C259 1.365 . S
C258 C260 1.410 1_554 S
C259 C258 1.365 . S
C259 C261 1.419 1_545 S
C260 C258 1.410 1_556 S
C260 C265 1.425 1_546 S
C260 C267 1.409 . S
C261 H253 0.930 . S
C261 C259 1.419 1_565 S
C261 C262 1.362 . S
C262 H254 0.930 . S
C262 C261 1.362 . S
C262 C265 1.409 . S
C263 H255 0.930 1_556 S
C263 C264 1.355 . S
C263 C265 1.415 1_556 S
C264 C263 1.355 . S
C264 C266 1.419 1_565 S
C265 C260 1.425 1_564 S
C265 C262 1.409 . S
C265 C263 1.415 1_554 S
C266 H256 0.930 . S
C266 C264 1.419 1_545 S
C266 C267 1.362 . S
C267 H257 0.930 . S
C267 C260 1.409 . S
C267 C266 1.362 . S
H268 C274 0.937 . S
H269 C277 0.930 . S
H270 C278 0.930 . S
H271 C279 0.930 1_554 S
H272 C282 0.930 . S
H273 C283 0.930 . S
C274 H268 0.937 . S
C274 C275 1.355 1_455 S
C274 C276 1.415 1_554 S
C275 C274 1.355 1_655 S
C275 C277 1.419 . S
C276 C274 1.415 1_556 S
C276 C281 1.425 1_456 S
C276 C283 1.409 . S
C277 H269 0.930 . S
C277 C275 1.419 . S
C277 C278 1.362 . S
C278 H270 0.930 . S
C278 C277 1.362 . S
C278 C281 1.409 . S
C279 H271 0.930 1_556 S
C279 C280 1.355 1_655 S
C279 C281 1.415 1_556 S
C280 C279 1.355 1_455 S
C280 C282 1.419 . S
C281 C276 1.425 1_654 S
C281 C278 1.409 . S
C281 C279 1.415 1_554 S
C282 H272 0.930 . S
C282 C280 1.419 . S
C282 C283 1.362 . S
C283 H273 0.930 . S
C283 C276 1.409 . S
C283 C282 1.362 . S
H284 C290 0.930 1_554 S
H285 C293 0.930 . S
H286 C294 0.930 . S
H287 C295 0.946 . S
H288 C298 0.930 . S
H289 C299 0.930 . S
C290 H284 0.930 1_556 S
C290 C291 1.355 . S
C290 C292 1.415 1_556 S
C291 C290 1.355 . S
C291 C293 1.419 . S
C292 C290 1.415 1_554 S
C292 C297 1.425 1_554 S
C292 C299 1.409 . S
C293 H285 0.930 . S
C293 C291 1.419 . S
C293 C294 1.362 . S
C294 H286 0.930 . S
C294 C293 1.362 . S
C294 C297 1.409 . S
C295 H287 0.946 . S
C295 C296 1.329 1_556 S
C295 C297 1.425 . S
C296 C295 1.329 1_554 S
C296 C298 1.419 . S
C297 C292 1.425 1_556 S
C297 C294 1.409 . S
C297 C295 1.425 . S
C298 H288 0.930 . S
C298 C296 1.419 . S
C298 C299 1.362 . S
C299 H289 0.930 . S
C299 C292 1.409 . S
C299 C298 1.362 . S
H300 C306 0.930 . S
H301 C309 0.930 . S
H302 C310 0.930 . S
H303 C311 0.930 . S
H304 C314 0.930 . S
H305 C315 0.930 . S
C306 H300 0.930 . S
C306 C307 1.355 . S
C306 C308 1.415 . S
C307 C306 1.355 . S
C307 C309 1.419 . S
C308 C306 1.415 . S
C308 C313 1.425 . S
C308 C315 1.409 . S
C309 H301 0.930 . S
C309 C307 1.419 . S
C309 C310 1.362 . S
C310 H302 0.930 . S
C310 C309 1.362 . S
C310 C313 1.409 . S
C311 H303 0.930 . S
C311 C312 1.355 . S
C311 C313 1.415 . S
C312 C311 1.355 . S
C312 C314 1.419 . S
C313 C308 1.425 . S
C313 C310 1.409 . S
C313 C311 1.415 . S
C314 H304 0.930 . S
C314 C312 1.419 . S
C314 C315 1.362 . S
C315 H305 0.930 . S
C315 C308 1.409 . S
C315 C314 1.362 . S
H316 C322 0.930 . S
H317 C325 0.930 . S
H318 C326 0.930 . S
H319 C327 0.930 . S
H320 C330 0.930 . S
H321 C331 0.930 . S
C322 H316 0.930 . S
C322 C323 1.355 . S
C322 C324 1.415 . S
C323 C322 1.355 . S
C323 C325 1.419 . S
C324 C322 1.415 . S
C324 C329 1.425 . S
C324 C331 1.409 . S
C325 H317 0.930 . S
C325 C323 1.419 . S
C325 C326 1.362 . S
C326 H318 0.930 . S
C326 C325 1.362 . S
C326 C329 1.409 . S
C327 H319 0.930 . S
C327 C328 1.355 . S
C327 C329 1.415 . S
C328 C327 1.355 . S
C328 C330 1.419 . S
C329 C324 1.425 . S
C329 C326 1.409 . S
C329 C327 1.415 . S
C330 H320 0.930 . S
C330 C328 1.419 . S
C330 C331 1.362 . S
C331 H321 0.930 . S
C331 C324 1.409 . S
C331 C330 1.362 . S
H332 C338 0.930 . S
H333 C341 0.930 . S
H334 C342 0.930 . S
H335 C343 0.930 . S
H336 C346 0.930 . S
H337 C347 0.930 . S
C338 H332 0.930 . S
C338 C339 1.355 . S
C338 C340 1.415 . S
C339 C338 1.355 . S
C339 C341 1.419 . S
C340 C338 1.415 . S
C340 C345 1.425 . S
C340 C347 1.409 . S
C341 H333 0.930 . S
C341 C339 1.419 . S
C341 C342 1.362 . S
C342 H334 0.930 . S
C342 C341 1.362 . S
C342 C345 1.409 . S
C343 H335 0.930 . S
C343 C344 1.355 . S
C343 C345 1.415 . S
C344 C343 1.355 . S
C344 C346 1.419 . S
C345 C340 1.425 . S
C345 C342 1.409 . S
C345 C343 1.415 . S
C346 H336 0.930 . S
C346 C344 1.419 . S
C346 C347 1.362 . S
C347 H337 0.930 . S
C347 C340 1.409 . S
C347 C346 1.362 . S
H348 C354 0.930 . S
H349 C357 0.930 . S
H350 C358 0.930 . S
H351 C359 0.930 . S
H352 C362 0.930 . S
H353 C363 0.930 . S
C354 H348 0.930 . S
C354 C355 1.355 . S
C354 C356 1.415 . S
C355 C354 1.355 . S
C355 C357 1.419 . S
C356 C354 1.415 . S
C356 C361 1.425 . S
C356 C363 1.409 . S
C357 H349 0.930 . S
C357 C355 1.419 . S
C357 C358 1.362 . S
C358 H350 0.930 . S
C358 C357 1.362 . S
C358 C361 1.409 . S
C359 H351 0.930 . S
C359 C360 1.355 . S
C359 C361 1.415 . S
C360 C359 1.355 . S
C360 C362 1.419 . S
C361 C356 1.425 . S
C361 C358 1.409 . S
C361 C359 1.415 . S
C362 H352 0.930 . S
C362 C360 1.419 . S
C362 C363 1.362 . S
C363 H353 0.930 . S
C363 C356 1.409 . S
C363 C362 1.362 . S
H364 C370 0.930 . S
H365 C373 0.930 . S
H366 C374 0.930 . S
H367 C375 0.930 . S
H368 C378 0.930 . S
H369 C379 0.930 . S
C370 H364 0.930 . S
C370 C371 1.355 . S
C370 C372 1.415 . S
C371 C370 1.355 . S
C371 C373 1.419 . S
C372 C370 1.415 . S
C372 C377 1.425 . S
C372 C379 1.409 . S
C373 H365 0.930 . S
C373 C371 1.419 . S
C373 C374 1.362 . S
C374 H366 0.930 . S
C374 C373 1.362 . S
C374 C377 1.409 . S
C375 H367 0.930 . S
C375 C376 1.355 . S
C375 C377 1.415 . S
C376 C375 1.355 . S
C376 C378 1.419 . S
C377 C372 1.425 . S
C377 C374 1.409 . S
C377 C375 1.415 . S
C378 H368 0.930 . S
C378 C376 1.419 . S
C378 C379 1.362 . S
C379 H369 0.930 . S
C379 C372 1.409 . S
C379 C378 1.362 . S
H380 C386 0.930 . S
H381 C389 0.930 . S
H382 C390 0.930 . S
H383 C391 0.930 . S
H384 C394 0.930 . S
H385 C395 0.930 . S
C386 H380 0.930 . S
C386 C387 1.355 . S
C386 C388 1.415 . S
C387 C386 1.355 . S
C387 C389 1.419 . S
C388 C386 1.415 . S
C388 C393 1.425 . S
C388 C395 1.409 . S
C389 H381 0.930 . S
C389 C387 1.419 . S
C389 C390 1.362 . S
C390 H382 0.930 . S
C390 C389 1.362 . S
C390 C393 1.409 . S
C391 H383 0.930 . S
C391 C392 1.355 . S
C391 C393 1.415 . S
C392 C391 1.355 . S
C392 C394 1.419 . S
C393 C388 1.425 . S
C393 C390 1.409 . S
C393 C391 1.415 . S
C394 H384 0.930 . S
C394 C392 1.419 . S
C394 C395 1.362 . S
C395 H385 0.930 . S
C395 C388 1.409 . S
C395 C394 1.362 . S
H396 C402 0.930 . S
H397 C405 0.930 . S
H398 C406 0.930 . S
H399 C407 0.930 . S
H400 C410 0.930 . S
H401 C411 0.930 . S
C402 H396 0.930 . S
C402 C403 1.355 . S
C402 C404 1.415 . S
C403 C402 1.355 . S
C403 C405 1.419 . S
C404 C402 1.415 . S
C404 C409 1.425 . S
C404 C411 1.409 . S
C405 H397 0.930 . S
C405 C403 1.419 . S
C405 C406 1.362 . S
C406 H398 0.930 . S
C406 C405 1.362 . S
C406 C409 1.409 . S
C407 H399 0.930 . S
C407 C408 1.355 . S
C407 C409 1.415 . S
C408 C407 1.355 . S
C408 C410 1.419 . S
C409 C404 1.425 . S
C409 C406 1.409 . S
C409 C407 1.415 . S
C410 H400 0.930 . S
C410 C408 1.419 . S
C410 C411 1.362 . S
C411 H401 0.930 . S
C411 C404 1.409 . S
C411 C410 1.362 . S
H412 C418 0.930 . S
H413 C421 0.930 . S
H414 C422 0.930 . S
H415 C423 0.930 . S
H416 C426 0.930 . S
H417 C427 0.930 . S
C418 H412 0.930 . S
C418 C419 1.355 . S
C418 C420 1.415 . S
C419 C418 1.355 . S
C419 C421 1.419 . S
C420 C418 1.415 . S
C420 C425 1.425 . S
C420 C427 1.409 . S
C421 H413 0.930 . S
C421 C419 1.419 . S
C421 C422 1.362 . S
C422 H414 0.930 . S
C422 C421 1.362 . S
C422 C425 1.409 . S
C423 H415 0.930 . S
C423 C424 1.355 . S
C423 C425 1.415 . S
C424 C423 1.355 . S
C424 C426 1.419 . S
C425 C420 1.425 . S
C425 C422 1.409 . S
C425 C423 1.415 . S
C426 H416 0.930 . S
C426 C424 1.419 . S
C426 C427 1.362 . S
C427 H417 0.930 . S
C427 C420 1.409 . S
C427 C426 1.362 . S
H428 C434 0.930 . S
H429 C437 0.930 . S
H430 C438 0.930 . S
H431 C439 0.930 . S
H432 C442 0.930 . S
H433 C443 0.930 . S
C434 H428 0.930 . S
C434 C435 1.355 . S
C434 C436 1.415 . S
C435 C434 1.355 . S
C435 C437 1.419 . S
C436 C434 1.415 . S
C436 C441 1.425 . S
C436 C443 1.409 . S
C437 H429 0.930 . S
C437 C435 1.419 . S
C437 C438 1.362 . S
C438 H430 0.930 . S
C438 C437 1.362 . S
C438 C441 1.409 . S
C439 H431 0.930 . S
C439 C440 1.355 . S
C439 C441 1.415 . S
C440 C439 1.355 . S
C440 C442 1.419 . S
C441 C436 1.425 . S
C441 C438 1.409 . S
C441 C439 1.415 . S
C442 H432 0.930 . S
C442 C440 1.419 . S
C442 C443 1.362 . S
C443 H433 0.930 . S
C443 C436 1.409 . S
C443 C442 1.362 . S
H444 C450 0.930 . S
H445 C453 0.930 . S
H446 C454 0.930 . S
H447 C455 0.930 . S
H448 C458 0.930 . S
H449 C459 0.930 . S
C450 H444 0.930 . S
C450 C451 1.355 . S
C450 C452 1.415 . S
C451 C450 1.355 . S
C451 C453 1.419 . S
C452 C450 1.415 . S
C452 C457 1.425 . S
C452 C459 1.409 . S
C453 H445 0.930 . S
C453 C451 1.419 . S
C453 C454 1.362 . S
C454 H446 0.930 . S
C454 C453 1.362 . S
C454 C457 1.409 . S
C455 H447 0.930 . S
C455 C456 1.355 . S
C455 C457 1.415 . S
C456 C455 1.355 . S
C456 C458 1.419 . S
C457 C452 1.425 . S
C457 C454 1.409 . S
C457 C455 1.415 . S
C458 H448 0.930 . S
C458 C456 1.419 . S
C458 C459 1.362 . S
C459 H449 0.930 . S
C459 C452 1.409 . S
C459 C458 1.362 . S
H460 C466 0.930 . S
H461 C469 0.930 . S
H462 C470 0.930 . S
H463 C471 0.930 . S
H464 C474 0.930 . S
H465 C475 0.930 . S
C466 H460 0.930 . S
C466 C467 1.355 . S
C466 C468 1.415 . S
C467 C466 1.355 . S
C467 C469 1.419 . S
C468 C466 1.415 . S
C468 C473 1.425 . S
C468 C475 1.409 . S
C469 H461 0.930 . S
C469 C467 1.419 . S
C469 C470 1.362 . S
C470 H462 0.930 . S
C470 C469 1.362 . S
C470 C473 1.409 . S
C471 H463 0.930 . S
C471 C472 1.355 . S
C471 C473 1.415 . S
C472 C471 1.355 . S
C472 C474 1.419 . S
C473 C468 1.425 . S
C473 C470 1.409 . S
C473 C471 1.415 . S
C474 H464 0.930 . S
C474 C472 1.419 . S
C474 C475 1.362 . S
C475 H465 0.930 . S
C475 C468 1.409 . S
C475 C474 1.362 . S
H476 C482 0.930 . S
H477 C485 0.930 . S
H478 C486 0.930 . S
H479 C487 0.930 . S
H480 C490 0.930 . S
H481 C491 0.930 . S
C482 H476 0.930 . S
C482 C483 1.355 . S
C482 C484 1.415 . S
C483 C482 1.355 . S
C483 C485 1.419 . S
C484 C482 1.415 . S
C484 C489 1.425 . S
C484 C491 1.409 . S
C485 H477 0.930 . S
C485 C483 1.419 . S
C485 C486 1.362 . S
C486 H478 0.930 . S
C486 C485 1.362 . S
C486 C489 1.409 . S
C487 H479 0.930 . S
C487 C488 1.355 . S
C487 C489 1.415 . S
C488 C487 1.355 . S
C488 C490 1.419 . S
C489 C484 1.425 . S
C489 C486 1.409 . S
C489 C487 1.415 . S
C490 H480 0.930 . S
C490 C488 1.419 . S
C490 C491 1.362 . S
C491 H481 0.930 . S
C491 C484 1.409 . S
C491 C490 1.362 . S
H492 C498 0.930 . S
H493 C501 0.930 . S
H494 C502 0.930 . S
H495 C503 0.930 . S
H496 C506 0.930 . S
H497 C507 0.930 . S
C498 H492 0.930 . S
C498 C499 1.355 1_655 S
C498 C500 1.415 . S
C499 C498 1.355 1_455 S
C499 C501 1.419 . S
C500 C498 1.415 . S
C500 C505 1.425 1_655 S
C500 C507 1.409 . S
C501 H493 0.930 . S
C501 C499 1.419 . S
C501 C502 1.362 . S
C502 H494 0.930 . S
C502 C501 1.362 . S
C502 C505 1.409 . S
C503 H495 0.930 . S
C503 C504 1.355 1_455 S
C503 C505 1.415 . S
C504 C503 1.355 1_655 S
C504 C506 1.419 . S
C505 C500 1.425 1_455 S
C505 C502 1.409 . S
C505 C503 1.415 . S
C506 H496 0.930 . S
C506 C504 1.419 . S
C506 C507 1.362 . S
C507 H497 0.930 . S
C507 C500 1.409 . S
C507 C506 1.362 . S
H508 C514 0.930 . S
H509 C517 0.930 . S
H510 C518 0.930 . S
H511 C519 0.930 . S
H512 C522 0.930 . S
H513 C523 0.930 . S
C514 H508 0.930 . S
C514 C515 1.355 . S
C514 C516 1.415 . S
C515 C514 1.355 . S
C515 C517 1.419 . S
C516 C514 1.415 . S
C516 C521 1.425 . S
C516 C523 1.409 . S
C517 H509 0.930 . S
C517 C515 1.419 . S
C517 C518 1.362 . S
C518 H510 0.930 . S
C518 C517 1.362 . S
C518 C521 1.409 . S
C519 H511 0.930 . S
C519 C520 1.355 . S
C519 C521 1.415 . S
C520 C519 1.355 . S
C520 C522 1.419 . S
C521 C516 1.425 . S
C521 C518 1.409 . S
C521 C519 1.415 . S
C522 H512 0.930 . S
C522 C520 1.419 . S
C522 C523 1.362 . S
C523 H513 0.930 . S
C523 C516 1.409 . S
C523 C522 1.362 . S
H524 C530 0.930 1_565 S
H525 C533 0.930 . S
H526 C534 0.930 . S
H527 C535 0.930 . S
H528 C538 0.930 . S
H529 C539 0.930 . S
C530 H524 0.930 1_545 S
C530 C531 1.355 . S
C530 C532 1.415 1_545 S
C531 C530 1.355 . S
C531 C533 1.419 . S
C532 C530 1.415 1_565 S
C532 C537 1.425 1_565 S
C532 C539 1.409 . S
C533 H525 0.930 . S
C533 C531 1.419 . S
C533 C534 1.362 . S
C534 H526 0.930 . S
C534 C533 1.362 . S
C534 C537 1.409 . S
C535 H527 0.930 . S
C535 C536 1.355 1_545 S
C535 C537 1.415 . S
C536 C535 1.355 1_565 S
C536 C538 1.419 . S
C537 C532 1.425 1_545 S
C537 C534 1.409 . S
C537 C535 1.415 . S
C538 H528 0.930 . S
C538 C536 1.419 . S
C538 C539 1.362 . S
C539 H529 0.930 . S
C539 C532 1.409 . S
C539 C538 1.362 . S
H540 C546 0.930 . S
H541 C549 0.930 . S
H542 C550 0.919 1_556 S
H543 C551 0.930 . S
H544 C554 0.930 . S
H545 C555 0.930 . S
C546 H540 0.930 . S
C546 C547 1.355 . S
C546 C548 1.415 . S
C547 C546 1.355 . S
C547 C549 1.419 . S
C548 C546 1.415 . S
C548 C553 1.421 1_554 S
C548 C555 1.409 . S
C549 H541 0.930 . S
C549 C547 1.419 . S
C549 C550 1.375 . S
C550 H542 0.919 1_554 S
C550 C549 1.375 . S
C550 C553 1.408 1_554 S
C551 H543 0.930 . S
C551 C552 1.355 . S
C551 C553 1.419 . S
C552 C551 1.355 . S
C552 C554 1.419 . S
C553 C548 1.421 1_556 S
C553 C550 1.408 1_556 S
C553 C551 1.419 . S
C554 H544 0.930 . S
C554 C552 1.419 . S
C554 C555 1.362 1_556 S
C555 H545 0.930 . S
C555 C548 1.409 . S
C555 C554 1.362 1_554 S
H556 C562 0.930 1_556 S
H557 C565 0.930 . S
H558 C566 0.930 . S
H559 C567 0.930 . S
H560 C570 0.930 . S
H561 C571 0.930 . S
C562 H556 0.930 1_554 S
C562 C563 1.355 . S
C562 C564 1.415 1_554 S
C563 C562 1.355 . S
C563 C565 1.419 . S
C564 C562 1.415 1_556 S
C564 C569 1.425 1_556 S
C564 C571 1.409 . S
C565 H557 0.930 . S
C565 C563 1.419 . S
C565 C566 1.362 . S
C566 H558 0.930 . S
C566 C565 1.362 . S
C566 C569 1.409 . S
C567 H559 0.930 . S
C567 C568 1.355 1_554 S
C567 C569 1.415 . S
C568 C567 1.355 1_556 S
C568 C570 1.419 . S
C569 C564 1.425 1_554 S
C569 C566 1.409 . S
C569 C567 1.415 . S
C570 H560 0.930 . S
C570 C568 1.419 . S
C570 C571 1.362 . S
C571 H561 0.930 . S
C571 C564 1.409 . S
C571 C570 1.362 . S
H572 C578 0.930 1_556 S
H573 C581 0.930 . S
H574 C582 0.930 . S
H575 C583 0.930 1_554 S
H576 C586 0.930 . S
H577 C587 0.930 . S
C578 H572 0.930 1_554 S
C578 C579 1.355 . S
C578 C580 1.415 1_554 S
C579 C578 1.355 . S
C579 C581 1.419 . S
C580 C578 1.415 1_556 S
C580 C585 1.425 1_556 S
C580 C587 1.409 . S
C581 H573 0.930 . S
C581 C579 1.419 . S
C581 C582 1.362 . S
C582 H574 0.930 . S
C582 C581 1.362 . S
C582 C585 1.409 . S
C583 H575 0.930 1_556 S
C583 C584 1.355 . S
C583 C585 1.415 1_556 S
C584 C583 1.355 . S
C584 C586 1.419 . S
C585 C580 1.425 1_554 S
C585 C582 1.409 . S
C585 C583 1.415 1_554 S
C586 H576 0.930 . S
C586 C584 1.419 . S
C586 C587 1.362 . S
C587 H577 0.930 . S
C587 C580 1.409 . S
C587 C586 1.362 . S
H588 C594 0.930 . S
H589 C597 0.930 . S
H590 C598 0.930 . S
H591 C599 0.930 . S
H592 C602 0.930 . S
H593 C603 0.930 . S
C594 H588 0.930 . S
C594 C595 1.355 . S
C594 C596 1.415 . S
C595 C594 1.355 . S
C595 C597 1.419 . S
C596 C594 1.415 . S
C596 C601 1.425 . S
C596 C603 1.409 1_556 S
C597 H589 0.930 . S
C597 C595 1.419 . S
C597 C598 1.362 . S
C598 H590 0.930 . S
C598 C597 1.362 . S
C598 C601 1.409 . S
C599 H591 0.930 . S
C599 C600 1.355 . S
C599 C601 1.415 1_554 S
C600 C599 1.355 . S
C600 C602 1.419 . S
C601 C596 1.425 . S
C601 C598 1.409 . S
C601 C599 1.415 1_556 S
C602 H592 0.930 . S
C602 C600 1.419 . S
C602 C603 1.362 . S
C603 H593 0.930 . S
C603 C596 1.409 1_554 S
C603 C602 1.362 . S
H604 C610 0.930 . S
H605 C613 0.930 . S
H606 C614 0.930 . S
H607 C615 0.930 . S
H608 C618 0.930 . S
H609 C619 0.930 . S
C610 H604 0.930 . S
C610 C611 1.355 1_556 S
C610 C612 1.415 . S
C611 C610 1.355 1_554 S
C611 C613 1.419 . S
C612 C610 1.415 . S
C612 C617 1.425 1_556 S
C612 C619 1.409 . S
C613 H605 0.930 . S
C613 C611 1.419 . S
C613 C614 1.362 . S
C614 H606 0.930 . S
C614 C613 1.362 . S
C614 C617 1.409 . S
C615 H607 0.930 . S
C615 C616 1.355 1_554 S
C615 C617 1.415 . S
C616 C615 1.355 1_556 S
C616 C618 1.419 . S
C617 C612 1.425 1_554 S
C617 C614 1.409 . S
C617 C615 1.415 . S
C618 H608 0.930 . S
C618 C616 1.419 . S
C618 C619 1.362 . S
C619 H609 0.930 . S
C619 C612 1.409 . S
C619 C618 1.362 . S
H620 C626 0.930 1_554 S
H621 C629 0.930 . S
H622 C630 0.930 . S
H623 C631 0.930 . S
H624 C634 0.930 . S
H625 C635 0.930 . S
C626 H620 0.930 1_556 S
C626 C627 1.355 . S
C626 C628 1.415 1_556 S
C627 C626 1.355 . S
C627 C629 1.419 . S
C628 C626 1.415 1_554 S
C628 C633 1.425 1_554 S
C628 C635 1.409 . S
C629 H621 0.930 . S
C629 C627 1.419 . S
C629 C630 1.362 . S
C630 H622 0.930 . S
C630 C629 1.362 . S
C630 C633 1.409 . S
C631 H623 0.930 . S
C631 C632 1.355 1_556 S
C631 C633 1.415 . S
C632 C631 1.355 1_554 S
C632 C634 1.419 . S
C633 C628 1.425 1_556 S
C633 C630 1.409 . S
C633 C631 1.415 . S
C634 H624 0.930 . S
C634 C632 1.419 . S
C634 C635 1.362 . S
C635 H625 0.930 . S
C635 C628 1.409 . S
C635 C634 1.362 . S
H636 C642 0.930 . S
H637 C645 0.930 . S
H638 C646 0.930 . S
H639 C647 0.930 . S
H640 C650 0.930 . S
H641 C651 0.930 . S
C642 H636 0.930 . S
C642 C643 1.355 . S
C642 C644 1.415 . S
C643 C642 1.355 . S
C643 C645 1.419 . S
C644 C642 1.415 . S
C644 C649 1.425 . S
C644 C651 1.409 . S
C645 H637 0.930 . S
C645 C643 1.419 . S
C645 C646 1.362 . S
C646 H638 0.930 . S
C646 C645 1.362 . S
C646 C649 1.409 . S
C647 H639 0.930 . S
C647 C648 1.355 . S
C647 C649 1.415 . S
C648 C647 1.355 . S
C648 C650 1.419 . S
C649 C644 1.425 . S
C649 C646 1.409 . S
C649 C647 1.415 . S
C650 H640 0.930 . S
C650 C648 1.419 . S
C650 C651 1.362 . S
C651 H641 0.930 . S
C651 C644 1.409 . S
C651 C650 1.362 . S
H652 C658 0.930 . S
H653 C661 0.930 . S
H654 C662 0.930 . S
H655 C663 0.930 . S
H656 C666 0.930 . S
H657 C667 0.930 . S
C658 H652 0.930 . S
C658 C659 1.355 . S
C658 C660 1.415 . S
C659 C658 1.355 . S
C659 C661 1.419 . S
C660 C658 1.415 . S
C660 C665 1.425 . S
C660 C667 1.409 . S
C661 H653 0.930 . S
C661 C659 1.419 . S
C661 C662 1.362 . S
C662 H654 0.930 . S
C662 C661 1.362 . S
C662 C665 1.409 . S
C663 H655 0.930 . S
C663 C664 1.355 . S
C663 C665 1.415 . S
C664 C663 1.355 . S
C664 C666 1.419 . S
C665 C660 1.425 . S
C665 C662 1.409 . S
C665 C663 1.415 . S
C666 H656 0.930 . S
C666 C664 1.419 . S
C666 C667 1.362 . S
C667 H657 0.930 . S
C667 C660 1.409 . S
C667 C666 1.362 . S
H668 C674 0.930 . S
H669 C677 0.930 . S
H670 C678 0.930 . S
H671 C679 0.930 . S
H672 C682 0.930 . S
H673 C683 0.930 . S
C674 H668 0.930 . S
C674 C675 1.355 . S
C674 C676 1.415 . S
C675 C674 1.355 . S
C675 C677 1.419 . S
C676 C674 1.415 . S
C676 C681 1.425 . S
C676 C683 1.409 . S
C677 H669 0.930 . S
C677 C675 1.419 . S
C677 C678 1.362 . S
C678 H670 0.930 . S
C678 C677 1.362 . S
C678 C681 1.409 . S
C679 H671 0.930 . S
C679 C680 1.355 . S
C679 C681 1.415 . S
C680 C679 1.355 . S
C680 C682 1.419 . S
C681 C676 1.425 . S
C681 C678 1.409 . S
C681 C679 1.415 . S
C682 H672 0.930 . S
C682 C680 1.419 . S
C682 C683 1.362 . S
C683 H673 0.930 . S
C683 C676 1.409 . S
C683 C682 1.362 . S
H684 C690 0.930 . S
H685 C693 0.930 . S
H686 C694 0.930 . S
H687 C695 0.930 . S
H688 C698 0.930 . S
H689 C699 0.930 . S
C690 H684 0.930 . S
C690 C691 1.355 . S
C690 C692 1.415 . S
C691 C690 1.355 . S
C691 C693 1.419 . S
C692 C690 1.415 . S
C692 C697 1.425 . S
C692 C699 1.409 . S
C693 H685 0.930 . S
C693 C691 1.419 . S
C693 C694 1.362 . S
C694 H686 0.930 . S
C694 C693 1.362 . S
C694 C697 1.409 . S
C695 H687 0.930 . S
C695 C696 1.355 . S
C695 C697 1.415 . S
C696 C695 1.355 . S
C696 C698 1.419 . S
C697 C692 1.425 . S
C697 C694 1.409 . S
C697 C695 1.415 . S
C698 H688 0.930 . S
C698 C696 1.419 . S
C698 C699 1.362 . S
C699 H689 0.930 . S
C699 C692 1.409 . S
C699 C698 1.362 . S
H700 C706 0.930 . S
H701 C709 0.930 . S
H702 C710 0.930 1_565 S
H703 C711 0.930 1_565 S
H704 C714 0.930 . S
H705 C715 0.930 . S
C706 H700 0.930 . S
C706 C707 1.355 . S
C706 C708 1.415 . S
C707 C706 1.355 . S
C707 C709 1.419 . S
C708 C706 1.415 . S
C708 C713 1.425 . S
C708 C715 1.409 . S
C709 H701 0.930 . S
C709 C707 1.419 . S
C709 C710 1.362 . S
C710 H702 0.930 1_545 S
C710 C709 1.362 . S
C710 C713 1.409 . S
C711 H703 0.930 1_545 S
C711 C712 1.355 . S
C711 C713 1.415 . S
C712 C711 1.355 . S
C712 C714 1.419 . S
C713 C708 1.425 . S
C713 C710 1.409 . S
C713 C711 1.415 . S
C714 H704 0.930 . S
C714 C712 1.419 . S
C714 C715 1.362 . S
C715 H705 0.930 . S
C715 C708 1.409 . S
C715 C714 1.362 . S
H716 C722 0.930 . S
H717 C725 0.930 . S
H718 C726 0.930 . S
H719 C727 0.930 . S
H720 C730 0.930 . S
H721 C731 0.930 . S
C722 H716 0.930 . S
C722 C723 1.355 . S
C722 C724 1.415 . S
C723 C722 1.355 . S
C723 C725 1.419 . S
C724 C722 1.415 . S
C724 C729 1.425 . S
C724 C731 1.409 . S
C725 H717 0.930 . S
C725 C723 1.419 . S
C725 C726 1.362 . S
C726 H718 0.930 . S
C726 C725 1.362 . S
C726 C729 1.409 . S
C727 H719 0.930 . S
C727 C728 1.355 . S
C727 C729 1.415 . S
C728 C727 1.355 . S
C728 C730 1.419 . S
C729 C724 1.425 . S
C729 C726 1.409 . S
C729 C727 1.415 . S
C730 H720 0.930 . S
C730 C728 1.419 . S
C730 C731 1.362 . S
C731 H721 0.930 . S
C731 C724 1.409 . S
C731 C730 1.362 . S
H732 C738 0.930 . S
H733 C741 0.930 . S
H734 C742 0.930 . S
H735 C743 0.930 . S
H736 C746 0.930 . S
H737 C747 0.930 . S
C738 H732 0.930 . S
C738 C739 1.355 . S
C738 C740 1.415 . S
C739 C738 1.355 . S
C739 C741 1.419 . S
C740 C738 1.415 . S
C740 C745 1.425 . S
C740 C747 1.409 . S
C741 H733 0.930 . S
C741 C739 1.419 . S
C741 C742 1.362 . S
C742 H734 0.930 . S
C742 C741 1.362 . S
C742 C745 1.409 . S
C743 H735 0.930 . S
C743 C744 1.355 . S
C743 C745 1.415 . S
C744 C743 1.355 . S
C744 C746 1.419 . S
C745 C740 1.425 . S
C745 C742 1.409 . S
C745 C743 1.415 . S
C746 H736 0.930 . S
C746 C744 1.419 . S
C746 C747 1.362 . S
C747 H737 0.930 . S
C747 C740 1.409 . S
C747 C746 1.362 . S
H748 C754 0.930 1_545 S
H749 C757 0.930 . S
H750 C758 0.930 . S
H751 C759 0.930 . S
H752 C762 0.921 1_545 S
H753 C763 0.929 1_545 S
C754 H748 0.930 1_565 S
C754 C755 1.355 . S
C754 C756 1.415 . S
C755 C754 1.355 . S
C755 C757 1.419 . S
C756 C754 1.415 . S
C756 C761 1.425 . S
C756 C763 1.418 . S
C757 H749 0.930 . S
C757 C755 1.419 . S
C757 C758 1.362 . S
C758 H750 0.930 . S
C758 C757 1.362 . S
C758 C761 1.409 . S
C759 H751 0.930 . S
C759 C760 1.355 . S
C759 C761 1.415 . S
C760 C759 1.355 . S
C760 C762 1.419 . S
C761 C756 1.425 . S
C761 C758 1.409 . S
C761 C759 1.415 . S
C762 H752 0.921 1_565 S
C762 C760 1.419 . S
C762 C763 1.355 . S
C763 H753 0.929 1_565 S
C763 C756 1.418 . S
C763 C762 1.355 . S
H764 C770 0.930 . S
H765 C773 0.925 . S
H766 C774 0.930 1_655 S
H767 C775 0.934 . S
H768 C778 0.930 . S
H769 C779 0.930 . S
C770 H764 0.930 . S
C770 C771 1.355 . S
C770 C772 1.415 . S
C771 C770 1.355 . S
C771 C773 1.419 . S
C772 C770 1.415 . S
C772 C777 1.425 . S
C772 C779 1.409 . S
C773 H765 0.925 . S
C773 C771 1.419 . S
C773 C774 1.362 . S
C774 H766 0.930 1_455 S
C774 C773 1.362 . S
C774 C777 1.409 . S
C775 H767 0.934 . S
C775 C776 1.355 . S
C775 C777 1.415 . S
C776 C775 1.355 . S
C776 C778 1.419 . S
C777 C772 1.425 . S
C777 C774 1.409 . S
C777 C775 1.415 . S
C778 H768 0.930 . S
C778 C776 1.419 . S
C778 C779 1.362 . S
C779 H769 0.930 . S
C779 C772 1.409 . S
C779 C778 1.362 . S
H780 C786 0.930 . S
H781 C789 0.930 . S
H782 C790 0.930 . S
H783 C791 0.930 . S
H784 C794 0.930 . S
H785 C795 0.930 . S
C786 H780 0.930 . S
C786 C787 1.355 . S
C786 C788 1.415 . S
C787 C786 1.355 . S
C787 C789 1.419 . S
C788 C786 1.415 . S
C788 C793 1.425 . S
C788 C795 1.409 . S
C789 H781 0.930 . S
C789 C787 1.419 . S
C789 C790 1.362 . S
C790 H782 0.930 . S
C790 C789 1.362 . S
C790 C793 1.409 . S
C791 H783 0.930 . S
C791 C792 1.355 . S
C791 C793 1.415 . S
C792 C791 1.355 . S
C792 C794 1.419 . S
C793 C788 1.425 . S
C793 C790 1.409 . S
C793 C791 1.415 . S
C794 H784 0.930 . S
C794 C792 1.419 . S
C794 C795 1.362 . S
C795 H785 0.930 . S
C795 C788 1.409 . S
C795 C794 1.362 . S
H796 C802 0.930 . S
H797 C805 0.930 . S
H798 C806 0.930 . S
H799 C807 0.930 . S
H800 C810 0.930 . S
H801 C811 0.930 . S
C802 H796 0.930 . S
C802 C803 1.355 . S
C802 C804 1.415 . S
C803 C802 1.355 . S
C803 C805 1.419 . S
C804 C802 1.415 . S
C804 C809 1.425 . S
C804 C811 1.409 . S
C805 H797 0.930 . S
C805 C803 1.419 . S
C805 C806 1.362 . S
C806 H798 0.930 . S
C806 C805 1.362 . S
C806 C809 1.409 . S
C807 H799 0.930 . S
C807 C808 1.355 . S
C807 C809 1.415 . S
C808 C807 1.355 . S
C808 C810 1.419 . S
C809 C804 1.425 . S
C809 C806 1.409 . S
C809 C807 1.415 . S
C810 H800 0.930 . S
C810 C808 1.419 . S
C810 C811 1.362 . S
C811 H801 0.930 . S
C811 C804 1.409 . S
C811 C810 1.362 . S
H812 C818 0.930 . S
H813 C821 0.930 . S
H814 C822 0.930 . S
H815 C823 0.930 . S
H816 C826 0.930 . S
H817 C827 0.930 . S
C818 H812 0.930 . S
C818 C819 1.355 . S
C818 C820 1.415 . S
C819 C818 1.355 . S
C819 C821 1.419 . S
C820 C818 1.415 . S
C820 C825 1.425 . S
C820 C827 1.409 . S
C821 H813 0.930 . S
C821 C819 1.419 . S
C821 C822 1.362 . S
C822 H814 0.930 . S
C822 C821 1.362 . S
C822 C825 1.409 . S
C823 H815 0.930 . S
C823 C824 1.355 . S
C823 C825 1.415 . S
C824 C823 1.355 . S
C824 C826 1.419 . S
C825 C820 1.425 . S
C825 C822 1.409 . S
C825 C823 1.415 . S
C826 H816 0.930 . S
C826 C824 1.419 . S
C826 C827 1.362 . S
C827 H817 0.930 . S
C827 C820 1.409 . S
C827 C826 1.362 . S
C259 C8 2.068 . S
C264 C45 2.078 . S
C275 C17 2.034 . S
C280 C59 2.036 . S
C291 C73 2.016 . S
C296 C36 2.006 . S
C307 C92 2.034 . S
C312 C129 2.048 . S
C323 C101 2.034 . S
C328 C143 2.036 . S
C339 C157 1.985 . S
C344 C120 1.960 . S
C355 C213 2.051 . S
C360 C176 2.022 . S
C371 C227 2.003 . S
C376 C185 2.000 . S
C387 C241 2.011 . S
C392 C204 1.999 . S
C403 C3 1.683 . S
C408 C134 1.700 . S
C419 C22 1.693 . S
C424 C148 1.689 . S
C435 C162 1.691 . S
C440 C31 1.689 . S
C451 C50 1.747 . S
C456 C171 1.731 . S
C467 C64 1.672 . S
C472 C190 1.674 . S
C483 C78 1.654 . S
C488 C199 1.634 . S
C499 C87 1.698 . S
C504 C218 1.718 . S
C515 C106 1.702 . S
C520 C232 1.701 . S
C531 C246 1.695 . S
C536 C115 1.691 . S
C547 C7 0.581 . S
C552 C63 0.566 . S
C563 C23 0.637 . S
C568 C77 0.615 . S
C579 C35 0.616 . S
C584 C49 0.659 . S
C595 C51 0.637 . S
C600 C21 0.664 . S
C611 C37 0.666 . S
C616 C65 0.716 . S
C627 C79 0.717 . S
C632 C9 0.650 . S
C643 C91 0.695 . S
C648 C147 0.661 . S
C659 C161 0.538 . S
C664 C107 0.553 . S
C675 C133 0.557 . S
C680 C119 0.640 . S
C691 C105 0.685 . S
C696 C135 0.657 . S
C707 C149 0.655 . S
C712 C121 0.729 . S
C723 C163 0.712 . S
C728 C93 0.648 . S
C739 C231 0.613 . S
C744 C175 0.550 . S
C755 C245 0.653 . S
C760 C191 0.631 . S
C771 C203 0.648 . S
C776 C217 0.573 . S
C787 C189 0.711 . S
C792 C219 0.717 . S
C803 C205 0.685 . S
C808 C233 0.707 . S
C819 C177 0.721 . S
C824 C247 0.654 . S
