# Generated by pormake.
# Topology uow, (4)-cn, num edge types: 1
# Building blocks:
#     Node 0, Type 0, BuildingBlock: AZAVOO_clean_sbu_0, # of connection points: 4
#     Node 1, Type 0, BuildingBlock: AZAVOO_clean_sbu_0, # of connection points: 4
#     Node 2, Type 0, BuildingBlock: AZAVOO_clean_sbu_0, # of connection points: 4
#     Node 3, Type 0, BuildingBlock: AZAVOO_clean_sbu_0, # of connection points: 4
#     Node 4, Type 0, BuildingBlock: AZAVOO_clean_sbu_0, # of connection points: 4
#     Node 5, Type 0, BuildingBlock: AZAVOO_clean_sbu_0, # of connection points: 4
#     Node 6, Type 0, BuildingBlock: AZAVOO_clean_sbu_0, # of connection points: 4
#     Node 7, Type 0, BuildingBlock: AZAVOO_clean_sbu_0, # of connection points: 4
#     Node 8, Type 0, BuildingBlock: AZAVOO_clean_sbu_0, # of connection points: 4
#     Node 9, Type 0, BuildingBlock: AZAVOO_clean_sbu_0, # of connection points: 4
#     Node 10, Type 0, BuildingBlock: AZAVOO_clean_sbu_0, # of connection points: 4
#     Node 11, Type 0, BuildingBlock: AZAVOO_clean_sbu_0, # of connection points: 4
#     Node 12, Type 0, BuildingBlock: AZAVOO_clean_sbu_0, # of connection points: 4
#     Node 13, Type 0, BuildingBlock: AZAVOO_clean_sbu_0, # of connection points: 4
#     Node 14, Type 0, BuildingBlock: AZAVOO_clean_sbu_0, # of connection points: 4
#     Node 15, Type 0, BuildingBlock: AZAVOO_clean_sbu_0, # of connection points: 4
#     Node 16, Type 0, BuildingBlock: AZAVOO_clean_sbu_0, # of connection points: 4
#     Node 17, Type 0, BuildingBlock: AZAVOO_clean_sbu_0, # of connection points: 4
#     Node 18, Type 0, BuildingBlock: AZAVOO_clean_sbu_0, # of connection points: 4
#     Node 19, Type 0, BuildingBlock: AZAVOO_clean_sbu_0, # of connection points: 4
#     Node 20, Type 0, BuildingBlock: AZAVOO_clean_sbu_0, # of connection points: 4
#     Node 21, Type 0, BuildingBlock: AZAVOO_clean_sbu_0, # of connection points: 4
#     Node 22, Type 0, BuildingBlock: AZAVOO_clean_sbu_0, # of connection points: 4
#     Node 23, Type 0, BuildingBlock: AZAVOO_clean_sbu_0, # of connection points: 4
#     Node 24, Type 0, BuildingBlock: AZAVOO_clean_sbu_0, # of connection points: 4
#     Node 25, Type 0, BuildingBlock: AZAVOO_clean_sbu_0, # of connection points: 4
#     Node 26, Type 0, BuildingBlock: AZAVOO_clean_sbu_0, # of connection points: 4
#     Node 27, Type 0, BuildingBlock: AZAVOO_clean_sbu_0, # of connection points: 4
#     Node 28, Type 0, BuildingBlock: AZAVOO_clean_sbu_0, # of connection points: 4
#     Node 29, Type 0, BuildingBlock: AZAVOO_clean_sbu_0, # of connection points: 4
#     Node 30, Type 0, BuildingBlock: AZAVOO_clean_sbu_0, # of connection points: 4
#     Node 31, Type 0, BuildingBlock: AZAVOO_clean_sbu_0, # of connection points: 4
#     Edge 32, Type (0, 0), BuildingBlock: AJUNOK_clean_linker_0, # of connection points: 2
#     Edge 33, Type (0, 0), BuildingBlock: AJUNOK_clean_linker_0, # of connection points: 2
#     Edge 34, Type (0, 0), BuildingBlock: AJUNOK_clean_linker_0, # of connection points: 2
#     Edge 35, Type (0, 0), BuildingBlock: AJUNOK_clean_linker_0, # of connection points: 2
#     Edge 36, Type (0, 0), BuildingBlock: AJUNOK_clean_linker_0, # of connection points: 2
#     Edge 37, Type (0, 0), BuildingBlock: AJUNOK_clean_linker_0, # of connection points: 2
#     Edge 38, Type (0, 0), BuildingBlock: AJUNOK_clean_linker_0, # of connection points: 2
#     Edge 39, Type (0, 0), BuildingBlock: AJUNOK_clean_linker_0, # of connection points: 2
#     Edge 40, Type (0, 0), BuildingBlock: AJUNOK_clean_linker_0, # of connection points: 2
#     Edge 41, Type (0, 0), BuildingBlock: AJUNOK_clean_linker_0, # of connection points: 2
#     Edge 42, Type (0, 0), BuildingBlock: AJUNOK_clean_linker_0, # of connection points: 2
#     Edge 43, Type (0, 0), BuildingBlock: AJUNOK_clean_linker_0, # of connection points: 2
#     Edge 44, Type (0, 0), BuildingBlock: AJUNOK_clean_linker_0, # of connection points: 2
#     Edge 45, Type (0, 0), BuildingBlock: AJUNOK_clean_linker_0, # of connection points: 2
#     Edge 46, Type (0, 0), BuildingBlock: AJUNOK_clean_linker_0, # of connection points: 2
#     Edge 47, Type (0, 0), BuildingBlock: AJUNOK_clean_linker_0, # of connection points: 2
#     Edge 48, Type (0, 0), BuildingBlock: AJUNOK_clean_linker_0, # of connection points: 2
#     Edge 49, Type (0, 0), BuildingBlock: AJUNOK_clean_linker_0, # of connection points: 2
#     Edge 50, Type (0, 0), BuildingBlock: AJUNOK_clean_linker_0, # of connection points: 2
#     Edge 51, Type (0, 0), BuildingBlock: AJUNOK_clean_linker_0, # of connection points: 2
#     Edge 52, Type (0, 0), BuildingBlock: AJUNOK_clean_linker_0, # of connection points: 2
#     Edge 53, Type (0, 0), BuildingBlock: AJUNOK_clean_linker_0, # of connection points: 2
#     Edge 54, Type (0, 0), BuildingBlock: AJUNOK_clean_linker_0, # of connection points: 2
#     Edge 55, Type (0, 0), BuildingBlock: AJUNOK_clean_linker_0, # of connection points: 2
#     Edge 56, Type (0, 0), BuildingBlock: AJUNOK_clean_linker_0, # of connection points: 2
#     Edge 57, Type (0, 0), BuildingBlock: AJUNOK_clean_linker_0, # of connection points: 2
#     Edge 58, Type (0, 0), BuildingBlock: AJUNOK_clean_linker_0, # of connection points: 2
#     Edge 59, Type (0, 0), BuildingBlock: AJUNOK_clean_linker_0, # of connection points: 2
#     Edge 60, Type (0, 0), BuildingBlock: AJUNOK_clean_linker_0, # of connection points: 2
#     Edge 61, Type (0, 0), BuildingBlock: AJUNOK_clean_linker_0, # of connection points: 2
#     Edge 62, Type (0, 0), BuildingBlock: AJUNOK_clean_linker_0, # of connection points: 2
#     Edge 63, Type (0, 0), BuildingBlock: AJUNOK_clean_linker_0, # of connection points: 2
#     Edge 64, Type (0, 0), BuildingBlock: AJUNOK_clean_linker_0, # of connection points: 2
#     Edge 65, Type (0, 0), BuildingBlock: AJUNOK_clean_linker_0, # of connection points: 2
#     Edge 66, Type (0, 0), BuildingBlock: AJUNOK_clean_linker_0, # of connection points: 2
#     Edge 67, Type (0, 0), BuildingBlock: AJUNOK_clean_linker_0, # of connection points: 2
#     Edge 68, Type (0, 0), BuildingBlock: AJUNOK_clean_linker_0, # of connection points: 2
#     Edge 69, Type (0, 0), BuildingBlock: AJUNOK_clean_linker_0, # of connection points: 2
#     Edge 70, Type (0, 0), BuildingBlock: AJUNOK_clean_linker_0, # of connection points: 2
#     Edge 71, Type (0, 0), BuildingBlock: AJUNOK_clean_linker_0, # of connection points: 2
#     Edge 72, Type (0, 0), BuildingBlock: AJUNOK_clean_linker_0, # of connection points: 2
#     Edge 73, Type (0, 0), BuildingBlock: AJUNOK_clean_linker_0, # of connection points: 2
#     Edge 74, Type (0, 0), BuildingBlock: AJUNOK_clean_linker_0, # of connection points: 2
#     Edge 75, Type (0, 0), BuildingBlock: AJUNOK_clean_linker_0, # of connection points: 2
#     Edge 76, Type (0, 0), BuildingBlock: AJUNOK_clean_linker_0, # of connection points: 2
#     Edge 77, Type (0, 0), BuildingBlock: AJUNOK_clean_linker_0, # of connection points: 2
#     Edge 78, Type (0, 0), BuildingBlock: AJUNOK_clean_linker_0, # of connection points: 2
#     Edge 79, Type (0, 0), BuildingBlock: AJUNOK_clean_linker_0, # of connection points: 2
#     Edge 80, Type (0, 0), BuildingBlock: AJUNOK_clean_linker_0, # of connection points: 2
#     Edge 81, Type (0, 0), BuildingBlock: AJUNOK_clean_linker_0, # of connection points: 2
#     Edge 82, Type (0, 0), BuildingBlock: AJUNOK_clean_linker_0, # of connection points: 2
#     Edge 83, Type (0, 0), BuildingBlock: AJUNOK_clean_linker_0, # of connection points: 2
#     Edge 84, Type (0, 0), BuildingBlock: AJUNOK_clean_linker_0, # of connection points: 2
#     Edge 85, Type (0, 0), BuildingBlock: AJUNOK_clean_linker_0, # of connection points: 2
#     Edge 86, Type (0, 0), BuildingBlock: AJUNOK_clean_linker_0, # of connection points: 2
#     Edge 87, Type (0, 0), BuildingBlock: AJUNOK_clean_linker_0, # of connection points: 2
#     Edge 88, Type (0, 0), BuildingBlock: AJUNOK_clean_linker_0, # of connection points: 2
#     Edge 89, Type (0, 0), BuildingBlock: AJUNOK_clean_linker_0, # of connection points: 2
#     Edge 90, Type (0, 0), BuildingBlock: AJUNOK_clean_linker_0, # of connection points: 2
#     Edge 91, Type (0, 0), BuildingBlock: AJUNOK_clean_linker_0, # of connection points: 2
#     Edge 92, Type (0, 0), BuildingBlock: AJUNOK_clean_linker_0, # of connection points: 2
#     Edge 93, Type (0, 0), BuildingBlock: AJUNOK_clean_linker_0, # of connection points: 2
#     Edge 94, Type (0, 0), BuildingBlock: AJUNOK_clean_linker_0, # of connection points: 2
#     Edge 95, Type (0, 0), BuildingBlock: AJUNOK_clean_linker_0, # of connection points: 2
# Relax obj value: 0.269
# Max RMSD: 0.244
# Mean RMSD: 0.244
data_MOF--net-uow--node1-AZAVOO_clean_sbu_0--edge1-AJUNOK_clean_linker_0
_symmetry_space_group_name_H-M    P1
_symmetry_Int_Tables_number       1
_symmetry_cell_setting            triclinic
loop_
_symmetry_equiv_pos_as_xyz
'x, y, z'
_cell_length_a     44.269851
_cell_length_b     44.320128
_cell_length_c     29.997714
_cell_angle_alpha  90.002006
_cell_angle_beta   90.011217
_cell_angle_gamma 89.977072
loop_
_atom_site_label
_atom_site_type_symbol
_atom_site_fract_x
_atom_site_fract_y
_atom_site_fract_z
_atom_type_partial_charge
Mg0 Mg 0.98608 0.36746 0.22714 0.0
O1 O 0.02168 0.35507 0.27892 0.0
O2 O 0.06845 0.36295 0.25399 0.0
Mg3 Mg 0.06226 0.38254 0.18367 0.0
C4 C 0.05022 0.3545 0.28449 0.0
C5 C 0.93531 0.33758 0.28163 0.0
O6 O 0.93722 0.3201 0.24641 0.0
O7 O 0.99355 0.41707 0.24348 0.0
O8 O 0.03971 0.42424 0.21493 0.0
O9 O 0.98975 0.32179 0.19602 0.0
O10 O 0.01775 0.36093 0.1764 0.0
C11 C 0.01618 0.43401 0.23502 0.0
C12 C 0.0115 0.33276 0.17232 0.0
O13 O 0.95111 0.36151 0.28258 0.0
Mg14 Mg 0.87374 0.73933 0.50088 0.0
O15 O 0.88408 0.77404 0.55507 0.0
O16 O 0.87339 0.82062 0.53182 0.0
Mg17 Mg 0.85551 0.8152 0.46025 0.0
C18 C 0.88296 0.80245 0.56166 0.0
C19 C 0.90216 0.68551 0.55 0.0
O20 O 0.91754 0.6863 0.51261 0.0
O21 O 0.82329 0.74384 0.51441 0.0
O22 O 0.81394 0.78975 0.48681 0.0
O23 O 0.92003 0.74478 0.47317 0.0
O24 O 0.88109 0.77262 0.45223 0.0
C25 C 0.80505 0.76524 0.50504 0.0
C26 C 0.90966 0.76707 0.45006 0.0
O27 O 0.87966 0.7031 0.55424 0.0
Mg28 Mg 0.52212 0.64131 0.7221 0.0
O29 O 0.48657 0.65035 0.7748 0.0
O30 O 0.43962 0.64389 0.7503 0.0
Mg31 Mg 0.44621 0.62839 0.67747 0.0
C32 C 0.45819 0.65034 0.78139 0.0
C33 C 0.57054 0.66863 0.78307 0.0
O34 O 0.56821 0.68884 0.75126 0.0
O35 O 0.5149 0.59094 0.73203 0.0
O36 O 0.4686 0.58494 0.70325 0.0
O37 O 0.51749 0.68865 0.69623 0.0
O38 O 0.49123 0.64972 0.67152 0.0
C39 C 0.49242 0.5743 0.72159 0.0
C40 C 0.49698 0.6781 0.66977 0.0
O41 O 0.55606 0.64406 0.77897 0.0
Mg42 Mg 0.62126 0.26503 0.99316 0.0
O43 O 0.61189 0.22772 0.04285 0.0
O44 O 0.62076 0.1819 0.01531 0.0
Mg45 Mg 0.63769 0.19063 0.94409 0.0
C46 C 0.61262 0.19916 0.04716 0.0
C47 C 0.59182 0.31311 0.0543 0.0
O48 O 0.57371 0.31333 0.01963 0.0
O49 O 0.67151 0.25884 0.00536 0.0
O50 O 0.67962 0.21383 0.97355 0.0
O51 O 0.57482 0.26054 0.96491 0.0
O52 O 0.61424 0.2345 0.94096 0.0
C53 C 0.68908 0.23727 0.99412 0.0
C54 C 0.58573 0.23982 0.93922 0.0
O55 O 0.61582 0.29743 0.0522 0.0
Mg56 Mg 0.97865 0.62693 0.27959 0.0
O57 O 0.01707 0.63832 0.23216 0.0
O58 O 0.06224 0.63319 0.26409 0.0
Mg59 Mg 0.05206 0.61625 0.33487 0.0
C60 C 0.0458 0.63971 0.2305 0.0
C61 C 0.93243 0.65354 0.21354 0.0
O62 O 0.93197 0.67323 0.24624 0.0
O63 O 0.98872 0.57698 0.26889 0.0
O64 O 0.0331 0.57277 0.30408 0.0
O65 O 0.97939 0.67407 0.30621 0.0
O66 O 0.0067 0.63667 0.33377 0.0
C67 C 0.01136 0.56132 0.28172 0.0
C68 C -0.00013 0.66485 0.33368 0.0
O69 O 0.94772 0.6295 0.21857 0.0
Mg70 Mg 0.6089 0.72784 0.53082 0.0
O71 O 0.60172 0.76667 0.483 0.0
O72 O 0.60588 0.81189 0.51465 0.0
Mg73 Mg 0.62019 0.80054 0.58671 0.0
C74 C 0.6011 0.79531 0.48062 0.0
C75 C 0.58295 0.68124 0.4663 0.0
O76 O 0.5651 0.67959 0.50116 0.0
O77 O 0.65986 0.73525 0.52487 0.0
O78 O 0.66414 0.77983 0.55943 0.0
O79 O 0.56076 0.73161 0.55268 0.0
O80 O 0.5986 0.75555 0.58538 0.0
C81 C 0.67579 0.75741 0.5388 0.0
C82 C 0.57009 0.7504 0.5826 0.0
O83 O 0.60648 0.69756 0.46913 0.0
Mg84 Mg 0.52106 0.37862 0.7596 0.0
O85 O 0.48271 0.36728 0.71228 0.0
O86 O 0.43737 0.37461 0.74247 0.0
Mg87 Mg 0.44766 0.39347 0.81231 0.0
C88 C 0.45401 0.36656 0.70985 0.0
C89 C 0.56715 0.34898 0.69694 0.0
O90 O 0.56817 0.33169 0.73245 0.0
O91 O 0.51348 0.42846 0.74686 0.0
O92 O 0.46906 0.43583 0.78083 0.0
O93 O 0.51841 0.33251 0.78813 0.0
O94 O 0.49238 0.37135 0.81417 0.0
C95 C 0.49185 0.44565 0.759 0.0
C96 C 0.49836 0.34297 0.81532 0.0
O97 O 0.55177 0.37316 0.69887 0.0
Mg98 Mg 0.88478 0.26819 0.02326 0.0
O99 O 0.89255 0.22864 0.97661 0.0
O100 O 0.88783 0.1842 0.01051 0.0
Mg101 Mg 0.87222 0.19665 0.08149 0.0
C102 C 0.89342 0.19994 0.97588 0.0
C103 C 0.91042 0.31427 0.95737 0.0
O104 O 0.92828 0.31693 0.99209 0.0
O105 O 0.83429 0.26127 0.01684 0.0
O106 O 0.8286 0.21731 0.05266 0.0
O107 O 0.93244 0.26462 0.04568 0.0
O108 O 0.89451 0.24126 0.07895 0.0
C109 C 0.81775 0.23975 0.03112 0.0
C110 C 0.92307 0.24617 0.07602 0.0
O111 O 0.88724 0.29756 0.96085 0.0
Mg112 Mg 0.01726 0.61998 0.76486 0.0
O113 O 0.98007 0.63115 0.7153 0.0
O114 O 0.93414 0.62386 0.74347 0.0
Mg115 Mg 0.94273 0.60477 0.81365 0.0
C116 C 0.95143 0.63172 0.71149 0.0
C117 C 0.06592 0.64973 0.70696 0.0
O118 O 0.0661 0.66617 0.74337 0.0
O119 O 0.01048 0.57002 0.7512 0.0
O120 O 0.96521 0.56297 0.7827 0.0
O121 O 0.01324 0.66603 0.79324 0.0
O122 O 0.98717 0.62707 0.818 0.0
C123 C 0.98841 0.55299 0.76202 0.0
C124 C 0.99242 0.6556 0.81922 0.0
O125 O 0.04985 0.62597 0.70644 0.0
Mg126 Mg 0.1164 0.2669 0.5263 0.0
O127 O 0.10723 0.22807 0.47881 0.0
O128 O 0.11213 0.18311 0.51112 0.0
Mg129 Mg 0.12825 0.19427 0.58235 0.0
C130 C 0.10614 0.19939 0.47717 0.0
C131 C 0.08954 0.31191 0.45888 0.0
O132 O 0.06933 0.31191 0.49093 0.0
O133 O 0.167 0.25884 0.51842 0.0
O134 O 0.17191 0.21468 0.55383 0.0
O135 O 0.06877 0.26408 0.55077 0.0
O136 O 0.10686 0.23926 0.58102 0.0
C137 C 0.18319 0.23686 0.53227 0.0
C138 C 0.07834 0.24466 0.57967 0.0
O139 O 0.11389 0.29725 0.46475 0.0
Mg140 Mg 0.47138 0.36893 0.26486 0.0
O141 O 0.51164 0.35843 0.22042 0.0
O142 O 0.55533 0.3611 0.25689 0.0
Mg143 Mg 0.54185 0.37745 0.32715 0.0
C144 C 0.5403 0.35605 0.22136 0.0
C145 C 0.42516 0.34655 0.19618 0.0
O146 O 0.42021 0.32866 0.23033 0.0
O147 O 0.48158 0.4191 0.25854 0.0
O148 O 0.52469 0.42221 0.29719 0.0
O149 O 0.47132 0.32102 0.28777 0.0
O150 O 0.49605 0.35772 0.32204 0.0
C151 C 0.50371 0.43436 0.274 0.0
C152 C 0.48941 0.32952 0.31921 0.0
O153 O 0.44358 0.36826 0.20099 0.0
Mg154 Mg 0.3893 0.72774 0.02678 0.0
O155 O 0.3943 0.76744 0.97999 0.0
O156 O 0.38839 0.81208 0.01284 0.0
Mg157 Mg 0.37512 0.79926 0.08475 0.0
C158 C 0.39361 0.7961 0.97833 0.0
C159 C 0.41697 0.68384 0.95937 0.0
O160 O 0.43573 0.68291 0.99324 0.0
O161 O 0.33807 0.73288 0.02202 0.0
O162 O 0.33193 0.77694 0.05755 0.0
O163 O 0.43737 0.73328 0.04814 0.0
O164 O 0.39876 0.75531 0.08187 0.0
C165 C 0.32124 0.75415 0.03667 0.0
C166 C 0.42742 0.75127 0.07867 0.0
O167 O 0.39249 0.69852 0.96395 0.0
Mg168 Mg 0.01253 0.35674 0.71728 0.0
O169 O 0.97793 0.34872 0.77159 0.0
O170 O 0.93073 0.35747 0.74963 0.0
Mg171 Mg 0.93594 0.37401 0.67716 0.0
C172 C 0.94973 0.34981 0.77956 0.0
C173 C 0.05269 0.32404 0.78493 0.0
O174 O 0.03799 0.30226 0.76474 0.0
O175 O 0.00817 0.40735 0.72938 0.0
O176 O 0.96144 0.41539 0.70332 0.0
O177 O 0.00441 0.31024 0.69022 0.0
O178 O 0.9795 0.35069 0.66803 0.0
C179 C 0.98603 0.42493 0.72067 0.0
C180 C 0.9833 0.32201 0.66607 0.0
O181 O 0.04833 0.35106 0.77217 0.0
Mg182 Mg 0.3766 0.27183 0.48129 0.0
O183 O 0.39305 0.23675 0.53068 0.0
O184 O 0.3871 0.18958 0.50735 0.0
Mg185 Mg 0.36432 0.19511 0.43876 0.0
C186 C 0.39584 0.20848 0.53671 0.0
C187 C 0.40887 0.31661 0.54341 0.0
O188 O 0.4296 0.31046 0.51347 0.0
O189 O 0.32777 0.26172 0.50064 0.0
O190 O 0.32238 0.21527 0.47243 0.0
O191 O 0.42143 0.27012 0.44662 0.0
O192 O 0.3827 0.24115 0.42921 0.0
C193 C 0.31184 0.23822 0.49301 0.0
C194 C 0.4105 0.24833 0.42297 0.0
O195 O 0.38249 0.30589 0.53801 0.0
Mg196 Mg 0.47785 0.63004 0.23247 0.0
O197 O 0.51328 0.64099 0.28455 0.0
O198 O 0.56034 0.63425 0.26063 0.0
Mg199 Mg 0.55399 0.61626 0.18911 0.0
C200 C 0.54166 0.64151 0.29118 0.0
C201 C 0.42732 0.6585 0.28859 0.0
O202 O 0.42745 0.67545 0.2527 0.0
O203 O 0.48529 0.57988 0.24606 0.0
O204 O 0.53174 0.57362 0.218 0.0
O205 O 0.48205 0.67654 0.20369 0.0
O206 O 0.50898 0.63745 0.18144 0.0
C207 C 0.50811 0.56325 0.23715 0.0
C208 C 0.50298 0.66576 0.17816 0.0
O209 O 0.44377 0.63501 0.289 0.0
Mg210 Mg 0.12409 0.72835 0.99896 0.0
O211 O 0.11309 0.76554 0.04839 0.0
O212 O 0.12137 0.81136 0.02075 0.0
Mg213 Mg 0.14077 0.80246 0.95077 0.0
C214 C 0.11278 0.79413 0.05237 0.0
C215 C 0.09332 0.68221 0.06097 0.0
O216 O 0.07405 0.68384 0.02775 0.0
O217 O 0.1744 0.73441 0.01262 0.0
O218 O 0.1825 0.77957 0.98154 0.0
O219 O 0.0778 0.73328 0.96976 0.0
O220 O 0.11779 0.75825 0.94598 0.0
C221 C 0.19199 0.75611 0.00205 0.0
C222 C 0.08918 0.75348 0.94357 0.0
O223 O 0.11831 0.69608 0.05754 0.0
Mg224 Mg 0.47581 0.86806 0.74259 0.0
O225 O 0.51498 0.85903 0.78958 0.0
O226 O 0.55977 0.86267 0.75656 0.0
Mg227 Mg 0.54807 0.8769 0.68458 0.0
C228 C 0.54369 0.85766 0.79108 0.0
C229 C 0.42684 0.84556 0.80593 0.0
O230 O 0.42265 0.82955 0.76961 0.0
O231 O 0.48497 0.91863 0.74821 0.0
O232 O 0.52881 0.92155 0.71141 0.0
O233 O 0.47713 0.81989 0.72071 0.0
O234 O 0.5025 0.85659 0.68749 0.0
C235 C 0.5072 0.93391 0.73301 0.0
C236 C 0.49603 0.82838 0.69038 0.0
O237 O 0.44597 0.8669 0.80464 0.0
Mg238 Mg 0.3883 0.23424 0.96894 0.0
O239 O 0.39385 0.27265 0.01838 0.0
O240 O 0.38639 0.31777 0.98732 0.0
Mg241 Mg 0.37134 0.30702 0.91569 0.0
C242 C 0.39294 0.30133 0.02088 0.0
C243 C 0.41792 0.18764 0.0312 0.0
O244 O 0.4369 0.18907 0.99765 0.0
O245 O 0.33729 0.23849 0.97708 0.0
O246 O 0.32961 0.28323 0.94432 0.0
O247 O 0.43568 0.24152 0.9459 0.0
O248 O 0.39595 0.26389 0.91591 0.0
C249 C 0.3198 0.25987 0.96471 0.0
C250 C 0.42479 0.26093 0.91802 0.0
O251 O 0.39322 0.20219 0.02838 0.0
Mg252 Mg 0.01909 0.13152 0.23769 0.0
O253 O 0.97824 0.13921 0.28207 0.0
O254 O 0.9347 0.1359 0.2451 0.0
Mg255 Mg 0.94888 0.1222 0.17403 0.0
C256 C 0.9495 0.14025 0.28104 0.0
C257 C 0.06619 0.15379 0.30505 0.0
O258 O 0.07075 0.17114 0.27019 0.0
O259 O 0.01033 0.08083 0.24163 0.0
O260 O 0.96761 0.07767 0.20202 0.0
O261 O 0.01752 0.17994 0.21668 0.0
O262 O 0.9938 0.14304 0.18137 0.0
C263 C 0.98867 0.06544 0.22493 0.0
C264 C -0.00051 0.17134 0.18526 0.0
O265 O 0.04734 0.13231 0.30155 0.0
Mg266 Mg 0.11515 0.76782 0.48712 0.0
O267 O 0.10689 0.72951 0.53593 0.0
O268 O 0.11262 0.68418 0.50503 0.0
Mg269 Mg 0.12866 0.69461 0.4337 0.0
C270 C 0.10654 0.70084 0.53854 0.0
C271 C 0.08758 0.81503 0.54944 0.0
O272 O 0.0694 0.8155 0.51488 0.0
O273 O 0.16581 0.76108 0.49596 0.0
O274 O 0.17158 0.71618 0.4629 0.0
O275 O 0.06765 0.76363 0.46355 0.0
O276 O 0.10602 0.73897 0.43358 0.0
C277 C 0.18233 0.73891 0.48379 0.0
C278 C 0.07738 0.74373 0.43551 0.0
O279 O 0.11152 0.79928 0.54708 0.0
Mg280 Mg 0.48285 0.13032 0.77368 0.0
O281 O 0.51951 0.13959 0.72308 0.0
O282 O 0.56663 0.13271 0.7463 0.0
Mg283 Mg 0.55899 0.11411 0.81731 0.0
C284 C 0.54777 0.13991 0.71598 0.0
C285 C 0.45371 0.16531 0.69959 0.0
O286 O 0.47462 0.18247 0.71738 0.0
O287 O 0.48854 0.08006 0.75876 0.0
O288 O 0.53491 0.07299 0.78686 0.0
O289 O 0.48824 0.17597 0.80372 0.0
O290 O 0.51453 0.13635 0.82547 0.0
C291 C 0.51117 0.06309 0.76745 0.0
C292 C 0.50949 0.16487 0.82822 0.0
O293 O 0.44957 0.13907 0.71594 0.0
Mg294 Mg 0.12532 0.23015 0.01486 0.0
O295 O 0.11289 0.26336 0.96042 0.0
O296 O 0.11874 0.31125 0.98039 0.0
Mg297 Mg 0.13856 0.30774 0.05141 0.0
C298 C 0.11128 0.29138 0.95165 0.0
C299 C 0.09683 0.17948 0.95902 0.0
O300 O 0.07794 0.18145 0.99264 0.0
O301 O 0.17495 0.23726 1.00023 0.0
O302 O 0.18133 0.28474 0.02367 0.0
O303 O 0.07898 0.23491 0.04225 0.0
O304 O 0.11769 0.26302 0.06373 0.0
C305 C 0.19165 0.26026 0.00692 0.0
C306 C 0.08927 0.25709 0.06578 0.0
O307 O 0.12119 0.19453 0.96064 0.0
Mg308 Mg 0.01439 0.87112 0.27916 0.0
O309 O 0.98007 0.85524 0.22785 0.0
O310 O 0.93275 0.86391 0.24911 0.0
Mg311 Mg 0.93726 0.88724 0.3173 0.0
C312 C 0.95173 0.85388 0.22076 0.0
C313 C 0.05665 0.83637 0.21623 0.0
O314 O 0.04501 0.81502 0.24122 0.0
O315 O 0.00678 0.92001 0.25802 0.0
O316 O 0.95998 0.92787 0.28376 0.0
O317 O 0.01018 0.82699 0.31534 0.0
O318 O 0.98214 0.86691 0.32976 0.0
C319 C 0.98387 0.93707 0.26408 0.0
C320 C 0.98822 0.83905 0.33751 0.0
O321 O 0.05005 0.86366 0.22494 0.0
Mg322 Mg 0.37743 0.7732 0.51236 0.0
O323 O 0.38662 0.73599 0.46186 0.0
O324 O 0.38096 0.69018 0.49127 0.0
Mg325 Mg 0.36831 0.69889 0.56451 0.0
C326 C 0.38671 0.70736 0.45822 0.0
C327 C 0.39964 0.82464 0.45392 0.0
O328 O 0.41521 0.82774 0.4909 0.0
O329 O 0.32701 0.76382 0.50549 0.0
O330 O 0.3236 0.71903 0.53952 0.0
O331 O 0.42562 0.77227 0.53466 0.0
O332 O 0.38955 0.74401 0.56402 0.0
C333 C 0.31153 0.74129 0.51908 0.0
C334 C 0.41767 0.75131 0.56215 0.0
O335 O 0.37832 0.80549 0.45335 0.0
Mg336 Mg 0.51468 0.1312 0.27187 0.0
O337 O 0.48261 0.14133 0.21434 0.0
O338 O 0.43474 0.1323 0.2328 0.0
Mg339 Mg 0.43668 0.11652 0.3059 0.0
C340 C 0.45462 0.14053 0.2045 0.0
C341 C 0.56775 0.15734 0.21801 0.0
O342 O 0.56485 0.1776 0.24968 0.0
O343 O 0.50858 0.08102 0.26026 0.0
O344 O 0.46126 0.07331 0.28349 0.0
O345 O 0.51001 0.17837 0.29671 0.0
O346 O 0.47993 0.14083 0.31675 0.0
C347 C 0.4863 0.06354 0.26792 0.0
C348 C 0.48635 0.1692 0.318 0.0
O349 O 0.55225 0.13333 0.22051 0.0
Mg350 Mg 0.6183 0.76832 0.02105 0.0
O351 O 0.61003 0.73388 0.96652 0.0
O352 O 0.61766 0.68662 0.98918 0.0
Mg353 Mg 0.63067 0.69135 0.06323 0.0
C354 C 0.61096 0.70565 0.95885 0.0
C355 C 0.59186 0.81887 0.9626 0.0
O356 O 0.57283 0.81773 0.99615 0.0
O357 O 0.66918 0.76103 0.01239 0.0
O358 O 0.67427 0.7146 0.0407 0.0
O359 O 0.5703 0.7642 0.04481 0.0
O360 O 0.60772 0.73552 0.06892 0.0
C361 C 0.68552 0.7384 0.0233 0.0
C362 C 0.57934 0.74179 0.0689 0.0
O363 O 0.616 0.80344 0.96509 0.0
Mg364 Mg 0.98704 0.8699 0.78732 0.0
O365 O 0.02019 0.85773 0.73215 0.0
O366 O 0.06785 0.86652 0.75229 0.0
Mg367 Mg 0.06511 0.88338 0.82469 0.0
C368 C 0.04837 0.8581 0.72352 0.0
C369 C 0.93712 0.84076 0.72914 0.0
O370 O 0.94257 0.8194 0.75838 0.0
O371 O 0.99494 0.91946 0.77203 0.0
O372 O 0.04189 0.92585 0.79793 0.0
O373 O 0.99044 0.82387 0.81664 0.0
O374 O 0.02092 0.86131 0.83468 0.0
C375 C 0.0179 0.93609 0.77976 0.0
C376 C 0.01387 0.83324 0.83815 0.0
O377 O 0.95006 0.86615 0.73411 0.0
Mg378 Mg 0.86527 0.22963 0.50203 0.0
O379 O 0.87972 0.26523 0.45188 0.0
O380 O 0.87399 0.31199 0.47757 0.0
Mg381 Mg 0.85382 0.30573 0.54763 0.0
C382 C 0.88163 0.29368 0.44675 0.0
C383 C 0.89279 0.17846 0.44629 0.0
O384 O 0.90845 0.17729 0.48342 0.0
O385 O 0.8161 0.2396 0.4861 0.0
O386 O 0.81082 0.2855 0.51633 0.0
O387 O 0.91088 0.23043 0.53319 0.0
O388 O 0.87321 0.26003 0.55419 0.0
C389 C 0.80005 0.26269 0.49561 0.0
C390 C 0.90106 0.25219 0.55791 0.0
O391 O 0.87015 0.19606 0.44465 0.0
Mg392 Mg 0.52216 0.86797 0.24044 0.0
O393 O 0.48168 0.86102 0.28531 0.0
O394 O 0.43762 0.86553 0.25013 0.0
Mg395 Mg 0.45149 0.87994 0.17923 0.0
C396 C 0.45296 0.86062 0.2854 0.0
C397 C 0.56825 0.84311 0.30665 0.0
O398 O 0.572 0.82635 0.27097 0.0
O399 O 0.51478 0.91863 0.24618 0.0
O400 O 0.47131 0.92366 0.20873 0.0
O401 O 0.51905 0.82001 0.21876 0.0
O402 O 0.49613 0.8577 0.18407 0.0
C403 C 0.49319 0.93485 0.23115 0.0
C404 C 0.501 0.82918 0.18769 0.0
O405 O 0.55046 0.86554 0.30407 0.0
Mg406 Mg 0.88291 0.75997 0.98249 0.0
O407 O 0.89274 0.72338 0.03392 0.0
O408 O 0.88269 0.67725 0.0084 0.0
Mg409 Mg 0.86464 0.68489 0.93744 0.0
C410 C 0.89173 0.69488 0.03927 0.0
C411 C 0.91569 0.79303 0.0567 0.0
O412 O 0.93573 0.77441 0.03979 0.0
O413 O 0.8326 0.75498 0.99677 0.0
O414 O 0.82344 0.70967 0.96673 0.0
O415 O 0.92878 0.75486 0.95204 0.0
O416 O 0.88895 0.72812 0.93176 0.0
C417 C 0.81451 0.73361 0.98658 0.0
C418 C 0.91741 0.73336 0.92828 0.0
O419 O 0.88961 0.79421 0.03893 0.0
Mg420 Mg 0.98105 0.12898 0.73946 0.0
O421 O 0.01976 0.13901 0.78671 0.0
O422 O 0.06482 0.134 0.75462 0.0
Mg423 Mg 0.05411 0.1188 0.68307 0.0
C424 C 0.04849 0.13995 0.78855 0.0
C425 C 0.93269 0.15303 0.8045 0.0
O426 O 0.92948 0.17111 0.77012 0.0
O427 O 0.9907 0.079 0.7482 0.0
O428 O 0.0349 0.07507 0.71245 0.0
O429 O 0.98213 0.17645 0.71491 0.0
O430 O 0.00882 0.13935 0.68526 0.0
C431 C 0.01319 0.06344 0.73462 0.0
C432 C 0.00213 0.16755 0.68645 0.0
O433 O 0.95064 0.1308 0.80098 0.0
Mg434 Mg 0.60487 0.23 0.47436 0.0
O435 O 0.59812 0.26897 0.5222 0.0
O436 O 0.60099 0.31393 0.48941 0.0
Mg437 Mg 0.6131 0.30243 0.41662 0.0
C438 C 0.59727 0.29764 0.52405 0.0
C439 C 0.58348 0.18172 0.53972 0.0
O440 O 0.5651 0.17889 0.50562 0.0
O441 O 0.65552 0.23869 0.47702 0.0
O442 O 0.65829 0.28297 0.44136 0.0
O443 O 0.55604 0.23228 0.45556 0.0
O444 O 0.59234 0.25716 0.42053 0.0
C445 C 0.67074 0.26098 0.46197 0.0
C446 C 0.56409 0.25126 0.42507 0.0
O447 O 0.60556 0.19985 0.53614 0.0
C448 C 0.05967 0.30547 0.15994 0.0
C449 C 0.0306 0.3131 0.14509 0.0
C450 C 0.07863 0.28733 0.13385 0.0
C451 C 0.06896 0.27624 0.0923 0.0
H452 H 0.06774 0.31352 0.19189 0.0
H453 H 0.10086 0.2817 0.14645 0.0
S454 S 0.99662 0.2938 0.03611 0.0
N455 N 0.99398 0.31072 0.08504 0.0
N456 N 0.0297 0.27658 0.03577 0.0
C457 C 0.04018 0.28434 0.07676 0.0
C458 C 0.02093 0.30284 0.10328 0.0
C459 C 0.9691 0.78926 0.36545 0.0
C460 C 0.96905 0.82099 0.36792 0.0
C461 C 0.95 0.77195 0.39264 0.0
C462 C 0.93019 0.78577 0.42304 0.0
H463 H 0.98354 0.77771 0.34181 0.0
H464 H 0.95021 0.74763 0.38909 0.0
S465 S 0.92477 0.8675 0.44756 0.0
N466 N 0.94974 0.86519 0.40684 0.0
N467 N 0.91403 0.83251 0.4576 0.0
C468 C 0.93076 0.81725 0.42711 0.0
C469 C 0.9502 0.83491 0.39965 0.0
C470 C 0.47307 0.72795 0.65172 0.0
C471 C 0.47921 0.69781 0.64008 0.0
C472 C 0.45369 0.74571 0.62548 0.0
C473 C 0.44036 0.73388 0.58674 0.0
H474 H 0.48234 0.73748 0.68203 0.0
H475 H 0.44841 0.76845 0.6362 0.0
S476 S 0.45332 0.65832 0.53789 0.0
N477 N 0.47305 0.65821 0.5846 0.0
N478 N 0.4373 0.69191 0.53524 0.0
C479 C 0.44776 0.70456 0.57345 0.0
C480 C 0.4671 0.68641 0.60016 0.0
C481 C 0.54488 0.17209 0.89224 0.0
C482 C 0.52877 0.18446 0.85613 0.0
C483 C 0.56323 0.19023 0.91931 0.0
C484 C 0.5659 0.2213 0.91121 0.0
H485 H 0.54316 0.14826 0.89986 0.0
H486 H 0.57522 0.17996 0.94689 0.0
S487 S 0.53186 0.26391 0.81787 0.0
N488 N 0.51879 0.2293 0.81178 0.0
N489 N 0.55326 0.2633 0.86296 0.0
C490 C 0.55047 0.23388 0.87495 0.0
C491 C 0.53187 0.21547 0.84729 0.0
C492 C 0.04719 0.69382 0.34352 0.0
C493 C 0.01822 0.68637 0.35888 0.0
C494 C 0.06605 0.71276 0.3684 0.0
C495 C 0.05642 0.72496 0.40929 0.0
H496 H 0.05541 0.68475 0.31228 0.0
H497 H 0.08835 0.71782 0.35555 0.0
S498 S 0.98323 0.71023 0.46514 0.0
N499 N 0.9811 0.69121 0.41787 0.0
N500 N 0.01643 0.72719 0.46477 0.0
C501 C 0.02737 0.71769 0.42486 0.0
C502 C 0.00827 0.69822 0.39958 0.0
C503 C 0.55339 0.76993 0.65618 0.0
C504 C 0.54885 0.7679 0.60989 0.0
C505 C 0.53513 0.78859 0.6826 0.0
C506 C 0.51241 0.80633 0.66318 0.0
H507 H 0.5714 0.75726 0.67195 0.0
H508 H 0.53953 0.79002 0.71808 0.0
S509 S 0.4917 0.80929 0.54364 0.0
N510 N 0.51963 0.78458 0.54595 0.0
N511 N 0.48615 0.82079 0.59541 0.0
C512 C 0.50749 0.80435 0.61708 0.0
C513 C 0.5255 0.78473 0.59041 0.0
C514 C 0.43452 0.29219 0.8507 0.0
C515 C 0.44443 0.28133 0.8923 0.0
C516 C 0.45219 0.31228 0.82587 0.0
C517 C 0.48005 0.32242 0.84222 0.0
H518 H 0.41306 0.28493 0.83706 0.0
H519 H 0.44406 0.31987 0.79369 0.0
S520 S 0.51508 0.30286 0.95038 0.0
N521 N 0.4834 0.28321 0.94937 0.0
N522 N 0.51628 0.32163 0.90284 0.0
C523 C 0.49002 0.31229 0.88393 0.0
C524 C 0.47229 0.29147 0.90896 0.0
C525 C 0.93753 0.22419 0.14926 0.0
C526 C 0.94437 0.22916 0.10407 0.0
C527 C 0.95649 0.20661 0.17621 0.0
C528 C 0.98254 0.19316 0.15849 0.0
H529 H 0.91723 0.23371 0.16375 0.0
H530 H 0.95022 0.20266 0.21064 0.0
S531 S 0.00981 0.19825 0.04208 0.0
N532 N 0.97879 0.21899 0.04279 0.0
N533 N 0.01415 0.18542 0.09341 0.0
C534 C 0.98975 0.19806 0.11357 0.0
C535 C 0.97073 0.2163 0.08631 0.0
C536 C 0.95505 0.66392 0.88057 0.0
C537 C 0.97356 0.67592 0.84676 0.0
C538 C 0.93683 0.68268 0.90689 0.0
C539 C 0.93677 0.71405 0.90057 0.0
H540 H 0.95469 0.63987 0.88697 0.0
H541 H 0.92302 0.67261 0.93271 0.0
S542 S 0.97847 0.75634 0.81396 0.0
N543 N 0.98894 0.721 0.80662 0.0
N544 N 0.95502 0.75623 0.85676 0.0
C545 C 0.95482 0.72635 0.86681 0.0
C546 C 0.97315 0.70727 0.8397 0.0
C547 C 0.06807 0.21428 0.64775 0.0
C548 C 0.05742 0.22701 0.60772 0.0
C549 C 0.04958 0.19574 0.67384 0.0
C550 C 0.0199 0.18927 0.6607 0.0
H551 H 0.09099 0.21843 0.65884 0.0
H552 H 0.05871 0.18605 0.70413 0.0
S553 S 0.98165 0.21535 0.55801 0.0
N554 N 0.01536 0.23124 0.55591 0.0
N555 N 0.98078 0.19587 0.60495 0.0
C556 C 0.0088 0.20188 0.62112 0.0
C557 C 0.02753 0.22096 0.59461 0.0
C558 C 0.53913 0.26434 0.35357 0.0
C559 C 0.54175 0.26862 0.39981 0.0
C560 C 0.52061 0.28318 0.3278 0.0
C561 C 0.50514 0.30745 0.34744 0.0
H562 H 0.55189 0.24665 0.33719 0.0
H563 H 0.5196 0.27967 0.29208 0.0
S564 S 0.50392 0.32733 0.46744 0.0
N565 N 0.52638 0.29761 0.46454 0.0
N566 N 0.49263 0.33404 0.41585 0.0
C567 C 0.50715 0.31154 0.39376 0.0
C568 C 0.52527 0.29183 0.42009 0.0
C569 C 0.4812 0.81278 0.11395 0.0
C570 C 0.48401 0.80771 0.16005 0.0
C571 C 0.46379 0.79351 0.08722 0.0
C572 C 0.44813 0.76915 0.10611 0.0
H573 H 0.49243 0.83183 0.09855 0.0
H574 H 0.46176 0.79824 0.0519 0.0
S575 S 0.44746 0.74681 0.22503 0.0
N576 N 0.46986 0.77658 0.2233 0.0
N577 N 0.43617 0.74099 0.17322 0.0
C578 C 0.45075 0.76383 0.15202 0.0
C579 C 0.46902 0.78297 0.17902 0.0
C580 C 0.95176 0.31481 0.59832 0.0
C581 C 0.96273 0.30341 0.63901 0.0
C582 C 0.93171 0.29802 0.57207 0.0
C583 C 0.92185 0.26949 0.58597 0.0
H584 H 0.95893 0.33677 0.58651 0.0
H585 H 0.92397 0.30733 0.54068 0.0
S586 S 0.94058 0.23132 0.69205 0.0
N587 N 0.9605 0.26281 0.69332 0.0
N588 N 0.92228 0.23146 0.64406 0.0
C589 C 0.93197 0.25812 0.62691 0.0
C590 C 0.95264 0.27503 0.65345 0.0
C591 C 0.47972 0.2103 0.37373 0.0
C592 C 0.46701 0.19077 0.34195 0.0
C593 C 0.46143 0.22962 0.39913 0.0
C594 C 0.42986 0.22997 0.3934 0.0
H595 H 0.50381 0.20989 0.37999 0.0
H596 H 0.472 0.24366 0.42426 0.0
S597 S 0.38655 0.18693 0.30864 0.0
N598 N 0.42181 0.17566 0.30218 0.0
N599 N 0.38729 0.21171 0.34969 0.0
C600 C 0.41721 0.21165 0.35997 0.0
C601 C 0.43583 0.19205 0.33431 0.0
C602 C 0.52217 0.71675 0.15515 0.0
C603 C 0.52078 0.68536 0.14808 0.0
C604 C 0.54033 0.73525 0.12817 0.0
C605 C 0.55776 0.72286 0.09356 0.0
H606 H 0.50989 0.72696 0.18244 0.0
H607 H 0.54155 0.75918 0.13539 0.0
S608 S 0.55811 0.64318 0.0564 0.0
N609 N 0.53569 0.64349 0.10035 0.0
N610 N 0.5697 0.67831 0.05018 0.0
C611 C 0.55537 0.69192 0.08476 0.0
C612 C 0.5369 0.67313 0.11192 0.0
C613 C 0.02058 0.79496 0.89823 0.0
C614 C 0.03296 0.81201 0.86325 0.0
C615 C 0.03874 0.7755 0.92368 0.0
C616 C 0.06985 0.77254 0.91484 0.0
H617 H 0.99687 0.79715 0.90655 0.0
H618 H 0.02847 0.76327 0.95101 0.0
S619 S 0.11177 0.8089 0.82211 0.0
N620 N 0.07711 0.82229 0.81799 0.0
N621 N 0.11136 0.78601 0.86551 0.0
C622 C 0.08208 0.78859 0.87864 0.0
C623 C 0.06359 0.80831 0.85292 0.0
C624 C 0.04287 0.34638 0.36601 0.0
C625 C 0.06198 0.34484 0.3286 0.0
C626 C 0.05254 0.33681 0.40806 0.0
C627 C 0.08168 0.32492 0.41468 0.0
H628 H 0.02006 0.355 0.36291 0.0
H629 H 0.0366 0.33815 0.43539 0.0
S630 S 0.14095 0.31668 0.32785 0.0
N631 N 0.11183 0.3313 0.30102 0.0
N632 N 0.13 0.3129 0.38017 0.0
C633 C 0.10135 0.32379 0.37776 0.0
C634 C 0.09152 0.33384 0.33477 0.0
C635 C 0.89574 0.79473 0.64191 0.0
C636 C 0.89398 0.81428 0.60506 0.0
C637 C 0.90838 0.8041 0.68236 0.0
C638 C 0.9201 0.83339 0.68778 0.0
H639 H 0.88772 0.7717 0.6394 0.0
H640 H 0.90972 0.78777 0.70916 0.0
S641 S 0.91967 0.894 0.60221 0.0
N642 N 0.90386 0.86486 0.57711 0.0
N643 N 0.9278 0.8825 0.65318 0.0
C644 C 0.91753 0.85362 0.65171 0.0
C645 C 0.90444 0.84407 0.6104 0.0
C646 C 0.40783 0.67625 0.87722 0.0
C647 C 0.42653 0.67237 0.91488 0.0
C648 C 0.41784 0.6685 0.83421 0.0
C649 C 0.44706 0.65694 0.82713 0.0
H650 H 0.38552 0.68599 0.88076 0.0
H651 H 0.40288 0.6724 0.80621 0.0
S652 S 0.50413 0.64017 0.91467 0.0
N653 N 0.47512 0.65428 0.94215 0.0
N654 N 0.49389 0.64018 0.86181 0.0
C655 C 0.46563 0.65211 0.86462 0.0
C656 C 0.45538 0.65967 0.90832 0.0
C657 C 0.60384 0.20537 0.12867 0.0
C658 C 0.60407 0.18636 0.09106 0.0
C659 C 0.59379 0.19513 0.17012 0.0
C660 C 0.58322 0.16547 0.17582 0.0
H661 H 0.61099 0.22869 0.12607 0.0
H662 H 0.59324 0.21111 0.19743 0.0
S663 S 0.58182 0.10565 0.08904 0.0
N664 N 0.59497 0.13569 0.06293 0.0
N665 N 0.57583 0.11635 0.14101 0.0
C666 C 0.5847 0.14568 0.13907 0.0
C667 C 0.59516 0.15614 0.09669 0.0
C668 C 0.04321 0.64584 0.14797 0.0
C669 C 0.05993 0.64867 0.18766 0.0
C670 C 0.05487 0.65548 0.10708 0.0
C671 C 0.08371 0.66862 0.10396 0.0
H672 H 0.02066 0.63634 0.1484 0.0
H673 H 0.04067 0.65326 0.07785 0.0
S674 S 0.13727 0.68022 0.19782 0.0
N675 N 0.10735 0.66458 0.22116 0.0
N676 N 0.12931 0.68297 0.14419 0.0
C677 C 0.10115 0.67079 0.14318 0.0
C678 C 0.08926 0.66077 0.185 0.0
C679 C 0.57218 0.84818 0.39009 0.0
C680 C 0.58014 0.83287 0.35054 0.0
C681 C 0.5799 0.83659 0.43224 0.0
C682 C 0.59552 0.8091 0.43635 0.0
H683 H 0.55907 0.8688 0.38863 0.0
H684 H 0.57256 0.84863 0.46175 0.0
S685 S 0.6245 0.76176 0.34356 0.0
N686 N 0.60692 0.78994 0.31868 0.0
N687 N 0.62091 0.76817 0.39746 0.0
C688 C 0.60472 0.79427 0.39715 0.0
C689 C 0.5972 0.80615 0.3544 0.0
C690 C 0.44682 0.34491 0.58816 0.0
C691 C 0.41778 0.33221 0.5852 0.0
C692 C 0.45783 0.35649 0.62832 0.0
C693 C 0.44029 0.35607 0.66744 0.0
H694 H 0.46164 0.34532 0.55943 0.0
H695 H 0.48058 0.36551 0.62868 0.0
S696 S 0.36231 0.32616 0.67765 0.0
N697 N 0.37121 0.3206 0.62483 0.0
N698 N 0.39198 0.3426 0.70051 0.0
C699 C 0.41079 0.34437 0.66481 0.0
C700 C 0.39952 0.33241 0.62369 0.0
C701 C 0.90281 0.18857 0.8516 0.0
C702 C 0.91971 0.16175 0.8484 0.0
C703 C 0.8938 0.20009 0.8929 0.0
C704 C 0.90093 0.18518 0.93294 0.0
H705 H 0.89727 0.20147 0.82204 0.0
H706 H 0.88151 0.22125 0.89343 0.0
S707 S 0.94314 0.11324 0.94341 0.0
N708 N 0.94209 0.11978 0.88922 0.0
N709 N 0.9247 0.14145 0.96695 0.0
C710 C 0.91659 0.15764 0.93039 0.0
C711 C 0.92609 0.14594 0.88815 0.0
C712 C 0.90848 0.65381 0.66753 0.0
C713 C 0.93821 0.64261 0.66887 0.0
C714 C 0.89657 0.66663 0.62849 0.0
C715 C 0.91378 0.66843 0.58908 0.0
H716 H 0.89459 0.65364 0.69725 0.0
H717 H 0.87391 0.67585 0.62959 0.0
S718 S 0.9921 0.63986 0.57391 0.0
N719 N 0.98399 0.6324 0.62643 0.0
N720 N 0.96163 0.65615 0.55329 0.0
C721 C 0.9431 0.65604 0.58944 0.0
C722 C 0.95531 0.64328 0.62926 0.0
C723 C 0.09427 0.19027 0.35287 0.0
C724 C 0.07897 0.16256 0.34905 0.0
C725 C 0.10341 0.20145 0.3943 0.0
C726 C 0.09807 0.18528 0.43389 0.0
H727 H 0.09846 0.20411 0.32376 0.0
H728 H 0.11449 0.22324 0.39526 0.0
S729 S 0.06087 0.11051 0.44237 0.0
N730 N 0.06019 0.11838 0.38855 0.0
N731 N 0.07786 0.13935 0.4666 0.0
C732 C 0.08399 0.15692 0.43062 0.0
C733 C 0.07431 0.14559 0.38822 0.0
C734 C 0.55393 0.34246 0.09815 0.0
C735 C 0.58162 0.32686 0.09703 0.0
C736 C 0.54133 0.35232 0.13836 0.0
C737 C 0.5559 0.3473 0.17942 0.0
H738 H 0.54127 0.34641 0.06779 0.0
H739 H 0.51964 0.36364 0.13718 0.0
S740 S 0.62965 0.30891 0.19515 0.0
N741 N 0.62391 0.30786 0.14077 0.0
N742 N 0.60022 0.32672 0.21642 0.0
C743 C 0.5842 0.33282 0.17885 0.0
C744 C 0.59703 0.32253 0.1377 0.0
C745 C 0.4137 0.8384 0.93102 0.0
C746 C 0.39862 0.81059 0.93444 0.0
C747 C 0.42155 0.85037 0.88918 0.0
C748 C 0.41425 0.83515 0.84928 0.0
H749 H 0.42066 0.85031 0.96083 0.0
H750 H 0.43435 0.87118 0.88826 0.0
S751 S 0.37107 0.76344 0.84054 0.0
N752 N 0.37413 0.76956 0.89458 0.0
N753 N 0.38834 0.79206 0.81634 0.0
C754 C 0.39748 0.80822 0.85244 0.0
C755 C 0.38985 0.79593 0.8949 0.0
C756 C 0.90011 0.32446 0.87631 0.0
C757 C 0.91979 0.32624 0.91318 0.0
C758 C 0.90962 0.33276 0.83333 0.0
C759 C 0.93931 0.34273 0.82545 0.0
H760 H 0.87731 0.31608 0.88048 0.0
H761 H 0.89383 0.33054 0.80593 0.0
S762 S -0.00073 0.35327 0.91086 0.0
N763 N 0.97003 0.3403 0.93898 0.0
N764 N 0.98787 0.35551 0.85862 0.0
C765 C 0.95897 0.34538 0.86221 0.0
C766 C 0.94921 0.33729 0.90593 0.0
C767 C 0.42361 0.15628 0.62957 0.0
C768 C 0.43711 0.17642 0.65984 0.0
C769 C 0.41027 0.16671 0.58986 0.0
C770 C 0.40974 0.1977 0.57911 0.0
H771 H 0.42401 0.13223 0.636 0.0
H772 H 0.40047 0.1503 0.56737 0.0
S773 S 0.44086 0.2599 0.64876 0.0
N774 N 0.44808 0.22893 0.67727 0.0
N775 N 0.4234 0.24846 0.60326 0.0
C776 C 0.4227 0.21808 0.60977 0.0
C777 C 0.43626 0.20747 0.64992 0.0
C778 C 0.59195 0.67086 0.38484 0.0
C779 C 0.57324 0.66843 0.42271 0.0
C780 C 0.58195 0.66154 0.34252 0.0
C781 C 0.5527 0.64985 0.33632 0.0
H782 H 0.61433 0.68055 0.38767 0.0
H783 H 0.59697 0.66429 0.31431 0.0
S784 S 0.49534 0.63703 0.42484 0.0
N785 N 0.52443 0.65191 0.45123 0.0
N786 N 0.50569 0.63485 0.37214 0.0
C787 C 0.53404 0.64661 0.37408 0.0
C788 C 0.5443 0.65574 0.41711 0.0
C789 C 0.09773 0.78785 0.13202 0.0
C790 C 0.1013 0.80701 0.09492 0.0
C791 C 0.08449 0.79806 0.17152 0.0
C792 C 0.07419 0.82793 0.17593 0.0
H793 H 0.10468 0.76443 0.13043 0.0
H794 H 0.0817 0.78207 0.19852 0.0
S795 S 0.07957 0.88788 0.08983 0.0
N796 N 0.09463 0.85787 0.06592 0.0
N797 N 0.06966 0.8771 0.14045 0.0
C798 C 0.07867 0.84779 0.13988 0.0
C799 C 0.09222 0.83734 0.09936 0.0
C800 C 0.55154 0.84088 0.91461 0.0
C801 C 0.58194 0.83225 0.91954 0.0
C802 C 0.53985 0.84948 0.87325 0.0
C803 C 0.55799 0.85015 0.83467 0.0
H804 H 0.53614 0.84003 0.94263 0.0
H805 H 0.51608 0.85519 0.87161 0.0
S806 S 0.64012 0.83321 0.83037 0.0
N807 N 0.63074 0.82728 0.88294 0.0
N808 N 0.60876 0.84377 0.80494 0.0
C809 C 0.58887 0.84304 0.8394 0.0
C810 C 0.60081 0.83403 0.88179 0.0
C811 C 0.39906 0.31013 0.14595 0.0
C812 C 0.41393 0.33795 0.15128 0.0
C813 C 0.39191 0.29896 0.10368 0.0
C814 C 0.39889 0.31528 0.06483 0.0
H815 H 0.39376 0.29619 0.17456 0.0
H816 H 0.38112 0.27707 0.10147 0.0
S817 S 0.43589 0.39025 0.06005 0.0
N818 N 0.43413 0.38235 0.11379 0.0
N819 N 0.42016 0.36135 0.03418 0.0
C820 C 0.41249 0.34375 0.06949 0.0
C821 C 0.42015 0.35507 0.11272 0.0
C822 C 0.89175 0.17112 0.36314 0.0
C823 C 0.90496 0.16457 0.40484 0.0
C824 C 0.9056 0.16222 0.32308 0.0
C825 C 0.93331 0.14668 0.32325 0.0
H826 H 0.87112 0.18421 0.36125 0.0
H827 H 0.89519 0.16868 0.29182 0.0
S828 S 0.97526 0.1204 0.42319 0.0
N829 N 0.94586 0.13872 0.44348 0.0
N830 N 0.97189 0.12241 0.36851 0.0
C831 C 0.94591 0.1386 0.36464 0.0
C832 C 0.93172 0.14738 0.40532 0.0
C833 C 0.08602 0.65789 0.58409 0.0
C834 C 0.09882 0.68691 0.58206 0.0
C835 C 0.07649 0.64548 0.62483 0.0
C836 C 0.07969 0.66149 0.66518 0.0
H837 H 0.08236 0.64506 0.55382 0.0
H838 H 0.06576 0.62352 0.62441 0.0
S839 S 0.11478 0.7372 0.67834 0.0
N840 N 0.1162 0.73045 0.62431 0.0
N841 N 0.0987 0.70719 0.70057 0.0
C842 C 0.09377 0.68999 0.66374 0.0
C843 C 0.10318 0.70268 0.6223 0.0
C844 C 0.59477 0.17208 0.6208 0.0
C845 C 0.57578 0.16794 0.58351 0.0
C846 C 0.58621 0.16209 0.66349 0.0
C847 C 0.55816 0.148 0.67051 0.0
H848 H 0.61612 0.18377 0.61728 0.0
H849 H 0.60117 0.1664 0.69135 0.0
S850 S 0.5011 0.12954 0.5838 0.0
N851 N 0.52836 0.14688 0.55646 0.0
N852 N 0.51232 0.12852 0.63619 0.0
C853 C 0.53946 0.14279 0.6333 0.0
C854 C 0.54825 0.15263 0.58996 0.0
C855 C 0.07492 0.33815 0.85922 0.0
C856 C 0.07122 0.31692 0.82475 0.0
C857 C 0.08874 0.33011 0.89976 0.0
C858 C 0.09947 0.30058 0.90718 0.0
H859 H 0.06592 0.36076 0.85565 0.0
H860 H 0.09005 0.34687 0.92596 0.0
S861 S 0.09904 0.23794 0.82461 0.0
N862 N 0.08207 0.26612 0.79889 0.0
N863 N 0.10814 0.25099 0.87434 0.0
C864 C 0.09735 0.27968 0.87183 0.0
C865 C 0.08322 0.28786 0.83084 0.0
C866 C 0.9541 0.81298 0.10961 0.0
C867 C 0.92357 0.81062 0.09718 0.0
C868 C 0.96273 0.82729 0.14911 0.0
C869 C 0.94123 0.83983 0.17837 0.0
H870 H 0.97169 0.80345 0.08882 0.0
H871 H 0.98662 0.82809 0.15686 0.0
S872 S 0.85812 0.8404 0.16077 0.0
N873 N 0.87162 0.8226 0.1167 0.0
N874 N 0.88777 0.84955 0.19133 0.0
C875 C 0.91052 0.83813 0.16603 0.0
C876 C 0.90172 0.82358 0.12538 0.0
C877 C 0.40696 0.665 0.41143 0.0
C878 C 0.39413 0.69398 0.41425 0.0
C879 C 0.41642 0.65309 0.37037 0.0
C880 C 0.41314 0.66958 0.33046 0.0
H881 H 0.41076 0.65183 0.44134 0.0
H882 H 0.42723 0.63116 0.37021 0.0
S883 S 0.37762 0.74525 0.31935 0.0
N884 N 0.37645 0.73794 0.37324 0.0
N885 N 0.3937 0.71551 0.29626 0.0
C886 C 0.39887 0.69797 0.33265 0.0
C887 C 0.38956 0.71019 0.37446 0.0
C888 C 0.41515 0.15933 0.15104 0.0
C889 C 0.44512 0.15018 0.15913 0.0
C890 C 0.4063 0.17059 0.10925 0.0
C891 C 0.42697 0.17286 0.07371 0.0
H892 H 0.39854 0.15865 0.17754 0.0
H893 H 0.38318 0.1781 0.10512 0.0
S894 S 0.50774 0.14984 0.0766 0.0
N895 N 0.49514 0.14269 0.12725 0.0
N896 N 0.47857 0.16355 0.04901 0.0
C897 C 0.45676 0.16274 0.08093 0.0
C898 C 0.46582 0.15153 0.12351 0.0
C899 C 0.58194 0.65733 0.86338 0.0
C900 C 0.58487 0.67663 0.82626 0.0
C901 C 0.59138 0.66636 0.90602 0.0
C902 C 0.6039 0.69511 0.91316 0.0
H903 H 0.57128 0.63546 0.85989 0.0
H904 H 0.58773 0.65119 0.93381 0.0
S905 S 0.6201 0.75269 0.82645 0.0
N906 N 0.60399 0.72473 0.79905 0.0
N907 N 0.62142 0.74172 0.87896 0.0
C908 C 0.60835 0.71402 0.87602 0.0
C909 C 0.59897 0.70476 0.83266 0.0
C910 C 0.0881 0.83821 0.6716 0.0
C911 C 0.0585 0.84884 0.67842 0.0
C912 C 0.09762 0.82812 0.62953 0.0
C913 C 0.07804 0.82863 0.59249 0.0
H914 H 0.10383 0.83692 0.6992 0.0
H915 H 0.12036 0.81937 0.62627 0.0
S916 S 0.99871 0.8563 0.59215 0.0
N917 N 0.01005 0.86057 0.64415 0.0
N918 N 0.0279 0.84199 0.56529 0.0
C919 C 0.04864 0.84013 0.59863 0.0
C920 C 0.03888 0.85009 0.64151 0.0
C921 C 0.90556 0.33457 0.4007 0.0
C922 C 0.8931 0.30543 0.40356 0.0
C923 C 0.91826 0.34522 0.36078 0.0
C924 C 0.91874 0.32726 0.322 0.0
H925 H 0.90633 0.34899 0.42984 0.0
H926 H 0.92839 0.36746 0.36069 0.0
S927 S 0.88638 0.25021 0.3108 0.0
N928 N 0.88023 0.2595 0.36326 0.0
N929 N 0.90375 0.27946 0.28851 0.0
C930 C 0.90519 0.29852 0.32399 0.0
C931 C 0.89251 0.28761 0.36466 0.0
C932 C 0.40985 0.83927 0.32979 0.0
C933 C 0.43753 0.85476 0.32834 0.0
C934 C 0.39685 0.83087 0.37069 0.0
C935 C 0.4109 0.83799 0.41159 0.0
H936 H 0.39883 0.83243 0.29916 0.0
H937 H 0.37622 0.81776 0.37008 0.0
S938 S 0.48181 0.88191 0.42557 0.0
N939 N 0.47718 0.87935 0.37114 0.0
N940 N 0.45275 0.86405 0.44766 0.0
C941 C 0.43769 0.8551 0.41042 0.0
C942 C 0.45102 0.86332 0.3689 0.0
C943 C 0.90874 0.69144 0.16298 0.0
C944 C 0.91957 0.6619 0.16944 0.0
C945 C 0.89962 0.70157 0.12095 0.0
C946 C 0.90051 0.68254 0.08343 0.0
H947 H 0.90801 0.70735 0.19037 0.0
H948 H 0.89194 0.72471 0.11793 0.0
S949 S 0.92557 0.60262 0.08234 0.0
N950 N 0.92973 0.61328 0.13474 0.0
N951 N 0.91213 0.63231 0.05562 0.0
C952 C 0.91034 0.65261 0.08947 0.0
C953 C 0.91997 0.64231 0.13243 0.0
C954 C 0.05621 0.15743 0.91176 0.0
C955 C 0.08669 0.16572 0.91648 0.0
C956 C 0.04445 0.14875 0.8705 0.0
C957 C 0.06264 0.1477 0.832 0.0
H958 H 0.04084 0.15866 0.9398 0.0
H959 H 0.02063 0.14325 0.86887 0.0
S960 S 0.1448 0.16429 0.82721 0.0
N961 N 0.13552 0.17026 0.87978 0.0
N962 N 0.11338 0.15371 0.802 0.0
C963 C 0.09356 0.15452 0.83657 0.0
C964 C 0.10557 0.16356 0.8788 0.0
C965 C 0.57876 0.34051 0.57172 0.0
C966 C 0.59236 0.31192 0.5682 0.0
C967 C 0.57189 0.35305 0.61356 0.0
C968 C 0.57861 0.33757 0.65346 0.0
H969 H 0.57238 0.35282 0.54197 0.0
H970 H 0.56032 0.37457 0.6145 0.0
S971 S 0.61766 0.26353 0.66226 0.0
N972 N 0.61467 0.26964 0.6082 0.0
N973 N 0.6021 0.29315 0.68641 0.0
C974 C 0.59365 0.30965 0.65027 0.0
C975 C 0.60039 0.29683 0.6078 0.0
C976 C 0.9875 0.48149 0.25148 0.0
C977 C 0.01527 0.46618 0.24822 0.0
C978 C 0.98636 0.51235 0.26184 0.0
C979 C 0.01293 0.52887 0.27012 0.0
H980 H 0.96649 0.46971 0.24518 0.0
H981 H 0.9645 0.52326 0.26378 0.0
S982 S 0.09137 0.49908 0.2668 0.0
N983 N 0.06993 0.46974 0.25477 0.0
N984 N 0.06785 0.52749 0.27444 0.0
C985 C 0.04082 0.51369 0.26745 0.0
C986 C 0.04198 0.48243 0.25645 0.0
C987 C 0.75481 0.788 0.52144 0.0
C988 C 0.77242 0.76196 0.51492 0.0
C989 C 0.72375 0.7861 0.52927 0.0
C990 C 0.70878 0.75809 0.53027 0.0
H991 H 0.76511 0.81017 0.52068 0.0
H992 H 0.71132 0.80691 0.53401 0.0
S993 S 0.74444 0.68301 0.51497 0.0
N994 N 0.77267 0.70715 0.51013 0.0
N995 N 0.71399 0.7036 0.52431 0.0
C996 C 0.72603 0.73179 0.52371 0.0
C997 C 0.7579 0.73371 0.51632 0.0
C998 C 0.46597 0.49468 0.74523 0.0
C999 C 0.49304 0.47821 0.74833 0.0
C1000 C 0.46614 0.52565 0.73648 0.0
C1001 C 0.49339 0.54156 0.73113 0.0
H1002 H 0.44437 0.48355 0.74937 0.0
H1003 H 0.44464 0.53726 0.7344 0.0
S1004 S 0.57058 0.50903 0.73639 0.0
N1005 N 0.54794 0.48005 0.74532 0.0
N1006 N 0.54825 0.53851 0.72934 0.0
C1007 C 0.52069 0.52544 0.7343 0.0
C1008 C 0.52051 0.49371 0.74264 0.0
C1009 C 0.76906 0.21279 0.01963 0.0
C1010 C 0.78493 0.24022 0.02214 0.0
C1011 C 0.73808 0.21221 0.01081 0.0
C1012 C 0.72159 0.23903 0.0049 0.0
H1013 H 0.78074 0.19149 0.02385 0.0
H1014 H 0.72695 0.19048 0.00881 0.0
S1015 S 0.75226 0.31687 0.00935 0.0
N1016 N 0.78181 0.29499 0.01859 0.0
N1017 N 0.72328 0.29387 0.00261 0.0
C1018 C 0.73701 0.26669 0.00799 0.0
C1019 C 0.76876 0.26728 0.01633 0.0
C1020 C 0.96117 0.47391 0.73753 0.0
C1021 C 0.98802 0.45745 0.73144 0.0
C1022 C 0.96171 0.50471 0.74711 0.0
C1023 C 0.98913 0.52054 0.75053 0.0
H1024 H 0.93938 0.4629 0.73531 0.0
H1025 H 0.94033 0.51622 0.75162 0.0
S1026 S 0.06592 0.48813 0.73707 0.0
N1027 N 0.04294 0.45924 0.72933 0.0
N1028 N 0.04397 0.51751 0.74704 0.0
C1029 C 0.01625 0.50451 0.7442 0.0
C1030 C 0.0157 0.47287 0.7349 0.0
C1031 C 0.26269 0.26461 0.50698 0.0
C1032 C 0.27962 0.23775 0.50612 0.0
C1033 C 0.23147 0.26417 0.51514 0.0
C1034 C 0.21616 0.2369 0.52348 0.0
H1035 H 0.27344 0.28606 0.50006 0.0
H1036 H 0.21929 0.28537 0.51503 0.0
S1037 S 0.25062 0.16045 0.52697 0.0
N1038 N 0.27905 0.18327 0.51572 0.0
N1039 N 0.22062 0.18237 0.53128 0.0
C1040 C 0.23305 0.20995 0.52369 0.0
C1041 C 0.26469 0.2104 0.51496 0.0
C1042 C 0.47965 0.51498 0.24867 0.0
C1043 C 0.50726 0.5307 0.24829 0.0
C1044 C 0.47869 0.48377 0.25651 0.0
C1045 C 0.50523 0.46724 0.26512 0.0
H1046 H 0.45869 0.52673 0.24192 0.0
H1047 H 0.45694 0.47257 0.2562 0.0
S1048 S 0.58321 0.49805 0.26923 0.0
N1049 N 0.56172 0.52753 0.25805 0.0
N1050 N 0.55992 0.46912 0.27319 0.0
C1051 C 0.53293 0.48283 0.2655 0.0
C1052 C 0.53394 0.51447 0.25698 0.0
C1053 C 0.24138 0.78124 0.01626 0.0
C1054 C 0.22462 0.75438 0.01281 0.0
C1055 C 0.27247 0.78076 0.02424 0.0
C1056 C 0.28829 0.75338 0.02841 0.0
H1057 H 0.2304 0.80297 0.0128 0.0
H1058 H 0.28429 0.80211 0.02644 0.0
S1059 S 0.25511 0.67663 0.02288 0.0
N1060 N 0.22612 0.6995 0.01504 0.0
N1061 N 0.28489 0.69864 0.02942 0.0
C1062 C 0.27192 0.72628 0.02522 0.0
C1063 C 0.24002 0.72677 0.01773 0.0
C1064 C 0.48183 0.98337 0.74976 0.0
C1065 C 0.50839 0.96698 0.74063 0.0
C1066 C 0.48264 0.0147 0.7569 0.0
C1067 C 0.51011 0.03063 0.75592 0.0
H1068 H 0.46021 0.97197 0.75127 0.0
H1069 H 0.46173 0.02634 0.76439 0.0
S1070 S 0.58595 -0.00139 0.73235 0.0
N1071 N 0.56291 0.9694 0.73015 0.0
N1072 N 0.56434 0.02795 0.74372 0.0
C1073 C 0.53674 0.01459 0.74631 0.0
C1074 C 0.53591 0.98288 0.73864 0.0
C1075 C 0.27066 0.28577 0.97737 0.0
C1076 C 0.28717 0.25866 0.97529 0.0
C1077 C 0.23987 0.28591 0.98743 0.0
C1078 C 0.22411 0.25891 0.99531 0.0
H1079 H 0.28166 0.30727 0.97172 0.0
H1080 H 0.22833 0.30745 0.9888 0.0
S1081 S 0.25662 0.18167 0.9933 0.0
N1082 N 0.28544 0.20397 0.98167 0.0
N1083 N 0.22725 0.20416 1.00022 0.0
C1084 C 0.24018 0.23152 0.99294 0.0
C1085 C 0.27178 0.23142 0.98316 0.0
C1086 C 0.01367 0.01619 0.24373 0.0
C1087 C 0.98734 0.03242 0.23277 0.0
C1088 C 0.01266 0.98502 0.25196 0.0
C1089 C 0.9852 0.96908 0.2503 0.0
H1090 H 0.03523 0.02763 0.24606 0.0
H1091 H 0.03337 0.97354 0.2611 0.0
S1092 S 0.91 0.00062 0.22166 0.0
N1093 N 0.9331 0.02979 0.21944 0.0
N1094 N 0.93131 0.97148 0.23524 0.0
C1095 C 0.95884 0.98489 0.23862 0.0
C1096 C 0.95988 0.01647 0.22977 0.0
C1097 C 0.26207 0.76727 0.50502 0.0
C1098 C 0.2786 0.74038 0.51038 0.0
C1099 C 0.23079 0.76672 0.49736 0.0
C1100 C 0.21505 0.73924 0.49391 0.0
H1101 H 0.27331 0.78893 0.50719 0.0
H1102 H 0.21897 0.78796 0.49331 0.0
S1103 S 0.2478 0.66248 0.50539 0.0
N1104 N 0.27678 0.68548 0.5118 0.0
N1105 N 0.21826 0.68448 0.49713 0.0
C1106 C 0.23133 0.71221 0.49921 0.0
C1107 C 0.26301 0.71276 0.50751 0.0
C1108 C 0.46301 0.0138 0.25002 0.0
C1109 C 0.48916 0.03089 0.25831 0.0
C1110 C 0.4647 0.98289 0.24107 0.0
C1111 C 0.49258 0.96763 0.2407 0.0
H1112 H 0.44095 0.0244 0.25002 0.0
H1113 H 0.44384 0.97081 0.23488 0.0
S1114 S 0.56784 0.00187 0.26079 0.0
N1115 N 0.54392 0.03028 0.26564 0.0
N1116 N 0.54704 0.97193 0.24937 0.0
C1117 C 0.51896 0.98434 0.24921 0.0
C1118 C 0.51728 0.01602 0.25775 0.0
C1119 C 0.76478 0.7097 0.00216 0.0
C1120 C 0.78198 0.73617 0.99753 0.0
C1121 C 0.7338 0.71088 0.01067 0.0
C1122 C 0.71846 0.73859 0.01441 0.0
H1123 H 0.77533 0.68772 0.99928 0.0
H1124 H 0.72172 0.68973 0.01375 0.0
S1125 S 0.75301 0.81462 0.00522 0.0
N1126 N 0.78149 0.79108 0.99769 0.0
N1127 N 0.7229 0.7933 0.01328 0.0
C1128 C 0.73531 0.76534 0.00993 0.0
C1129 C 0.76713 0.76414 1.00176 0.0
C1130 C 0.98818 0.01459 0.75452 0.0
C1131 C 0.01473 0.03095 0.7456 0.0
C1132 C 0.98928 0.98374 0.76475 0.0
C1133 C 0.01701 0.96832 0.76719 0.0
H1134 H 0.96635 0.02561 0.75324 0.0
H1135 H 0.96829 0.97205 0.77153 0.0
S1136 S 0.09306 0.00081 0.74663 0.0
N1137 N 0.06958 0.02935 0.73978 0.0
N1138 N 0.07162 0.97157 0.7591 0.0
C1139 C 0.04371 0.98441 0.75827 0.0
C1140 C 0.04258 0.01566 0.74744 0.0
C1141 C 0.72013 0.23489 0.47534 0.0
C1142 C 0.70384 0.26182 0.46907 0.0
C1143 C 0.75145 0.23527 0.48245 0.0
C1144 C 0.76751 0.26263 0.48435 0.0
H1145 H 0.70865 0.21331 0.47465 0.0
H1146 H 0.76299 0.214 0.48764 0.0
S1147 S 0.73559 0.33942 0.4693 0.0
N1148 N 0.7063 0.31664 0.46451 0.0
N1149 N 0.76496 0.31729 0.47825 0.0
C1150 C 0.75155 0.2897 0.47773 0.0
C1151 C 0.71978 0.28931 0.46997 0.0
loop_
_geom_bond_atom_site_label_1
_geom_bond_atom_site_label_2
_geom_bond_distance
_geom_bond_site_symmetry_2
_ccdc_geom_bond_type
Mg0 O1 2.028 . S
Mg0 O7 1.986 . S
Mg0 O9 2.114 . S
Mg0 O10 2.251 . S
Mg0 O13 2.010 1_455 S
O1 Mg0 2.028 . S
O1 C4 1.250 . S
O2 Mg3 2.028 . S
O2 C4 1.248 . S
Mg3 O2 2.028 . S
Mg3 O8 2.032 . S
Mg3 O10 2.079 . S
C4 O1 1.250 . S
C4 O2 1.248 . S
C5 O6 1.264 . S
C5 O13 1.249 . S
O6 C5 1.264 . S
O7 Mg0 1.986 . S
O7 C11 1.246 . S
O8 Mg3 2.032 . S
O8 C11 1.259 . S
O9 Mg0 2.114 . S
O9 C12 1.252 . S
O10 Mg0 2.251 . S
O10 Mg3 2.079 . S
O10 C12 1.273 . S
C11 O7 1.246 . S
C11 O8 1.259 . S
C12 O9 1.252 . S
C12 O10 1.273 . S
O13 Mg0 2.010 1_655 S
O13 C5 1.249 . S
Mg14 O15 2.028 . S
Mg14 O21 1.986 . S
Mg14 O23 2.114 . S
Mg14 O24 2.251 . S
Mg14 O27 2.010 . S
O15 Mg14 2.028 . S
O15 C18 1.250 . S
O16 Mg17 2.028 . S
O16 C18 1.248 . S
Mg17 O16 2.028 . S
Mg17 O22 2.032 . S
Mg17 O24 2.079 . S
C18 O15 1.250 . S
C18 O16 1.248 . S
C19 O20 1.264 . S
C19 O27 1.249 . S
O20 C19 1.264 . S
O21 Mg14 1.986 . S
O21 C25 1.246 . S
O22 Mg17 2.032 . S
O22 C25 1.259 . S
O23 Mg14 2.114 . S
O23 C26 1.252 . S
O24 Mg14 2.251 . S
O24 Mg17 2.079 . S
O24 C26 1.273 . S
C25 O21 1.246 . S
C25 O22 1.259 . S
C26 O23 1.252 . S
C26 O24 1.273 . S
O27 Mg14 2.010 . S
O27 C19 1.249 . S
Mg28 O29 2.028 . S
Mg28 O35 1.986 . S
Mg28 O37 2.114 . S
Mg28 O38 2.251 . S
Mg28 O41 2.010 . S
O29 Mg28 2.028 . S
O29 C32 1.250 . S
O30 Mg31 2.028 . S
O30 C32 1.248 . S
Mg31 O30 2.028 . S
Mg31 O36 2.032 . S
Mg31 O38 2.079 . S
C32 O29 1.250 . S
C32 O30 1.248 . S
C33 O34 1.264 . S
C33 O41 1.249 . S
O34 C33 1.264 . S
O35 Mg28 1.986 . S
O35 C39 1.246 . S
O36 Mg31 2.032 . S
O36 C39 1.259 . S
O37 Mg28 2.114 . S
O37 C40 1.252 . S
O38 Mg28 2.251 . S
O38 Mg31 2.079 . S
O38 C40 1.273 . S
C39 O35 1.246 . S
C39 O36 1.259 . S
C40 O37 1.252 . S
C40 O38 1.273 . S
O41 Mg28 2.010 . S
O41 C33 1.249 . S
Mg42 O43 2.028 . S
Mg42 O49 1.986 . S
Mg42 O51 2.114 1_554 S
Mg42 O52 2.251 1_554 S
Mg42 O55 2.010 . S
O43 Mg42 2.028 . S
O43 C46 1.250 . S
O44 Mg45 2.028 1_554 S
O44 C46 1.248 . S
Mg45 O44 2.028 1_556 S
Mg45 O50 2.032 1_556 S
Mg45 O52 2.079 . S
C46 O43 1.250 . S
C46 O44 1.248 . S
C47 O48 1.264 . S
C47 O55 1.249 . S
O48 C47 1.264 . S
O49 Mg42 1.986 . S
O49 C53 1.246 . S
O50 Mg45 2.032 1_554 S
O50 C53 1.259 . S
O51 Mg42 2.114 1_556 S
O51 C54 1.252 . S
O52 Mg42 2.251 1_556 S
O52 Mg45 2.079 . S
O52 C54 1.273 . S
C53 O49 1.246 . S
C53 O50 1.259 . S
C54 O51 1.252 . S
C54 O52 1.273 . S
O55 Mg42 2.010 . S
O55 C47 1.249 . S
Mg56 O57 2.028 . S
Mg56 O63 1.986 . S
Mg56 O65 2.114 . S
Mg56 O66 2.251 . S
Mg56 O69 2.010 1_455 S
O57 Mg56 2.028 . S
O57 C60 1.250 . S
O58 Mg59 2.028 . S
O58 C60 1.248 . S
Mg59 O58 2.028 . S
Mg59 O64 2.032 . S
Mg59 O66 2.079 . S
C60 O57 1.250 . S
C60 O58 1.248 . S
C61 O62 1.264 . S
C61 O69 1.249 . S
O62 C61 1.264 . S
O63 Mg56 1.986 . S
O63 C67 1.246 . S
O64 Mg59 2.032 . S
O64 C67 1.259 . S
O65 Mg56 2.114 . S
O65 C68 1.252 . S
O66 Mg56 2.251 . S
O66 Mg59 2.079 . S
O66 C68 1.273 . S
C67 O63 1.246 . S
C67 O64 1.259 . S
C68 O65 1.252 . S
C68 O66 1.273 . S
O69 Mg56 2.010 1_655 S
O69 C61 1.249 . S
Mg70 O71 2.028 . S
Mg70 O77 1.986 . S
Mg70 O79 2.114 . S
Mg70 O80 2.251 . S
Mg70 O83 2.010 . S
O71 Mg70 2.028 . S
O71 C74 1.250 . S
O72 Mg73 2.028 . S
O72 C74 1.248 . S
Mg73 O72 2.028 . S
Mg73 O78 2.032 . S
Mg73 O80 2.079 . S
C74 O71 1.250 . S
C74 O72 1.248 . S
C75 O76 1.264 . S
C75 O83 1.249 . S
O76 C75 1.264 . S
O77 Mg70 1.986 . S
O77 C81 1.246 . S
O78 Mg73 2.032 . S
O78 C81 1.259 . S
O79 Mg70 2.114 . S
O79 C82 1.252 . S
O80 Mg70 2.251 . S
O80 Mg73 2.079 . S
O80 C82 1.273 . S
C81 O77 1.246 . S
C81 O78 1.259 . S
C82 O79 1.252 . S
C82 O80 1.273 . S
O83 Mg70 2.010 . S
O83 C75 1.249 . S
Mg84 O85 2.028 . S
Mg84 O91 1.986 . S
Mg84 O93 2.114 . S
Mg84 O94 2.251 . S
Mg84 O97 2.010 . S
O85 Mg84 2.028 . S
O85 C88 1.250 . S
O86 Mg87 2.028 . S
O86 C88 1.248 . S
Mg87 O86 2.028 . S
Mg87 O92 2.032 . S
Mg87 O94 2.079 . S
C88 O85 1.250 . S
C88 O86 1.248 . S
C89 O90 1.264 . S
C89 O97 1.249 . S
O90 C89 1.264 . S
O91 Mg84 1.986 . S
O91 C95 1.246 . S
O92 Mg87 2.032 . S
O92 C95 1.259 . S
O93 Mg84 2.114 . S
O93 C96 1.252 . S
O94 Mg84 2.251 . S
O94 Mg87 2.079 . S
O94 C96 1.273 . S
C95 O91 1.246 . S
C95 O92 1.259 . S
C96 O93 1.252 . S
C96 O94 1.273 . S
O97 Mg84 2.010 . S
O97 C89 1.249 . S
Mg98 O99 2.028 . S
Mg98 O105 1.986 . S
Mg98 O107 2.114 1_556 S
Mg98 O108 2.251 1_556 S
Mg98 O111 2.010 . S
O99 Mg98 2.028 . S
O99 C102 1.250 . S
O100 Mg101 2.028 1_556 S
O100 C102 1.248 . S
Mg101 O100 2.028 1_554 S
Mg101 O106 2.032 1_554 S
Mg101 O108 2.079 . S
C102 O99 1.250 . S
C102 O100 1.248 . S
C103 O104 1.264 . S
C103 O111 1.249 . S
O104 C103 1.264 . S
O105 Mg98 1.986 . S
O105 C109 1.246 . S
O106 Mg101 2.032 1_556 S
O106 C109 1.259 . S
O107 Mg98 2.114 1_554 S
O107 C110 1.252 . S
O108 Mg98 2.251 1_554 S
O108 Mg101 2.079 . S
O108 C110 1.273 . S
C109 O105 1.246 . S
C109 O106 1.259 . S
C110 O107 1.252 . S
C110 O108 1.273 . S
O111 Mg98 2.010 . S
O111 C103 1.249 . S
Mg112 O113 2.028 . S
Mg112 O119 1.986 . S
Mg112 O121 2.114 . S
Mg112 O122 2.251 . S
Mg112 O125 2.010 1_655 S
O113 Mg112 2.028 . S
O113 C116 1.250 . S
O114 Mg115 2.028 . S
O114 C116 1.248 . S
Mg115 O114 2.028 . S
Mg115 O120 2.032 . S
Mg115 O122 2.079 . S
C116 O113 1.250 . S
C116 O114 1.248 . S
C117 O118 1.264 . S
C117 O125 1.249 . S
O118 C117 1.264 . S
O119 Mg112 1.986 . S
O119 C123 1.246 . S
O120 Mg115 2.032 . S
O120 C123 1.259 . S
O121 Mg112 2.114 . S
O121 C124 1.252 . S
O122 Mg112 2.251 . S
O122 Mg115 2.079 . S
O122 C124 1.273 . S
C123 O119 1.246 . S
C123 O120 1.259 . S
C124 O121 1.252 . S
C124 O122 1.273 . S
O125 Mg112 2.010 1_455 S
O125 C117 1.249 . S
Mg126 O127 2.028 . S
Mg126 O133 1.986 . S
Mg126 O135 2.114 . S
Mg126 O136 2.251 . S
Mg126 O139 2.010 . S
O127 Mg126 2.028 . S
O127 C130 1.250 . S
O128 Mg129 2.028 . S
O128 C130 1.248 . S
Mg129 O128 2.028 . S
Mg129 O134 2.032 . S
Mg129 O136 2.079 . S
C130 O127 1.250 . S
C130 O128 1.248 . S
C131 O132 1.264 . S
C131 O139 1.249 . S
O132 C131 1.264 . S
O133 Mg126 1.986 . S
O133 C137 1.246 . S
O134 Mg129 2.032 . S
O134 C137 1.259 . S
O135 Mg126 2.114 . S
O135 C138 1.252 . S
O136 Mg126 2.251 . S
O136 Mg129 2.079 . S
O136 C138 1.273 . S
C137 O133 1.246 . S
C137 O134 1.259 . S
C138 O135 1.252 . S
C138 O136 1.273 . S
O139 Mg126 2.010 . S
O139 C131 1.249 . S
Mg140 O141 2.028 . S
Mg140 O147 1.986 . S
Mg140 O149 2.114 . S
Mg140 O150 2.251 . S
Mg140 O153 2.010 . S
O141 Mg140 2.028 . S
O141 C144 1.250 . S
O142 Mg143 2.028 . S
O142 C144 1.248 . S
Mg143 O142 2.028 . S
Mg143 O148 2.032 . S
Mg143 O150 2.079 . S
C144 O141 1.250 . S
C144 O142 1.248 . S
C145 O146 1.264 . S
C145 O153 1.249 . S
O146 C145 1.264 . S
O147 Mg140 1.986 . S
O147 C151 1.246 . S
O148 Mg143 2.032 . S
O148 C151 1.259 . S
O149 Mg140 2.114 . S
O149 C152 1.252 . S
O150 Mg140 2.251 . S
O150 Mg143 2.079 . S
O150 C152 1.273 . S
C151 O147 1.246 . S
C151 O148 1.259 . S
C152 O149 1.252 . S
C152 O150 1.273 . S
O153 Mg140 2.010 . S
O153 C145 1.249 . S
Mg154 O155 2.028 . S
Mg154 O161 1.986 . S
Mg154 O163 2.114 1_556 S
Mg154 O164 2.251 1_556 S
Mg154 O167 2.010 . S
O155 Mg154 2.028 . S
O155 C158 1.250 . S
O156 Mg157 2.028 1_556 S
O156 C158 1.248 . S
Mg157 O156 2.028 1_554 S
Mg157 O162 2.032 1_554 S
Mg157 O164 2.079 . S
C158 O155 1.250 . S
C158 O156 1.248 . S
C159 O160 1.264 . S
C159 O167 1.249 . S
O160 C159 1.264 . S
O161 Mg154 1.986 . S
O161 C165 1.246 . S
O162 Mg157 2.032 1_556 S
O162 C165 1.259 . S
O163 Mg154 2.114 1_554 S
O163 C166 1.252 . S
O164 Mg154 2.251 1_554 S
O164 Mg157 2.079 . S
O164 C166 1.273 . S
C165 O161 1.246 . S
C165 O162 1.259 . S
C166 O163 1.252 . S
C166 O164 1.273 . S
O167 Mg154 2.010 . S
O167 C159 1.249 . S
Mg168 O169 2.028 . S
Mg168 O175 1.986 . S
Mg168 O177 2.114 . S
Mg168 O178 2.251 . S
Mg168 O181 2.010 1_655 S
O169 Mg168 2.028 . S
O169 C172 1.250 . S
O170 Mg171 2.028 . S
O170 C172 1.248 . S
Mg171 O170 2.028 . S
Mg171 O176 2.032 . S
Mg171 O178 2.079 . S
C172 O169 1.250 . S
C172 O170 1.248 . S
C173 O174 1.264 . S
C173 O181 1.249 . S
O174 C173 1.264 . S
O175 Mg168 1.986 . S
O175 C179 1.246 . S
O176 Mg171 2.032 . S
O176 C179 1.259 . S
O177 Mg168 2.114 . S
O177 C180 1.252 . S
O178 Mg168 2.251 . S
O178 Mg171 2.079 . S
O178 C180 1.273 . S
C179 O175 1.246 . S
C179 O176 1.259 . S
C180 O177 1.252 . S
C180 O178 1.273 . S
O181 Mg168 2.010 1_455 S
O181 C173 1.249 . S
Mg182 O183 2.028 . S
Mg182 O189 1.986 . S
Mg182 O191 2.114 . S
Mg182 O192 2.251 . S
Mg182 O195 2.010 . S
O183 Mg182 2.028 . S
O183 C186 1.250 . S
O184 Mg185 2.028 . S
O184 C186 1.248 . S
Mg185 O184 2.028 . S
Mg185 O190 2.032 . S
Mg185 O192 2.079 . S
C186 O183 1.250 . S
C186 O184 1.248 . S
C187 O188 1.264 . S
C187 O195 1.249 . S
O188 C187 1.264 . S
O189 Mg182 1.986 . S
O189 C193 1.246 . S
O190 Mg185 2.032 . S
O190 C193 1.259 . S
O191 Mg182 2.114 . S
O191 C194 1.252 . S
O192 Mg182 2.251 . S
O192 Mg185 2.079 . S
O192 C194 1.273 . S
C193 O189 1.246 . S
C193 O190 1.259 . S
C194 O191 1.252 . S
C194 O192 1.273 . S
O195 Mg182 2.010 . S
O195 C187 1.249 . S
Mg196 O197 2.028 . S
Mg196 O203 1.986 . S
Mg196 O205 2.114 . S
Mg196 O206 2.251 . S
Mg196 O209 2.010 . S
O197 Mg196 2.028 . S
O197 C200 1.250 . S
O198 Mg199 2.028 . S
O198 C200 1.248 . S
Mg199 O198 2.028 . S
Mg199 O204 2.032 . S
Mg199 O206 2.079 . S
C200 O197 1.250 . S
C200 O198 1.248 . S
C201 O202 1.264 . S
C201 O209 1.249 . S
O202 C201 1.264 . S
O203 Mg196 1.986 . S
O203 C207 1.246 . S
O204 Mg199 2.032 . S
O204 C207 1.259 . S
O205 Mg196 2.114 . S
O205 C208 1.252 . S
O206 Mg196 2.251 . S
O206 Mg199 2.079 . S
O206 C208 1.273 . S
C207 O203 1.246 . S
C207 O204 1.259 . S
C208 O205 1.252 . S
C208 O206 1.273 . S
O209 Mg196 2.010 . S
O209 C201 1.249 . S
Mg210 O211 2.028 . S
Mg210 O217 1.986 . S
Mg210 O219 2.114 1_554 S
Mg210 O220 2.251 1_554 S
Mg210 O223 2.010 . S
O211 Mg210 2.028 . S
O211 C214 1.250 . S
O212 Mg213 2.028 1_554 S
O212 C214 1.248 . S
Mg213 O212 2.028 1_556 S
Mg213 O218 2.032 1_556 S
Mg213 O220 2.079 . S
C214 O211 1.250 . S
C214 O212 1.248 . S
C215 O216 1.264 . S
C215 O223 1.249 . S
O216 C215 1.264 . S
O217 Mg210 1.986 . S
O217 C221 1.246 . S
O218 Mg213 2.032 1_554 S
O218 C221 1.259 . S
O219 Mg210 2.114 1_556 S
O219 C222 1.252 . S
O220 Mg210 2.251 1_556 S
O220 Mg213 2.079 . S
O220 C222 1.273 . S
C221 O217 1.246 . S
C221 O218 1.259 . S
C222 O219 1.252 . S
C222 O220 1.273 . S
O223 Mg210 2.010 . S
O223 C215 1.249 . S
Mg224 O225 2.028 . S
Mg224 O231 1.986 . S
Mg224 O233 2.114 . S
Mg224 O234 2.251 . S
Mg224 O237 2.010 . S
O225 Mg224 2.028 . S
O225 C228 1.250 . S
O226 Mg227 2.028 . S
O226 C228 1.248 . S
Mg227 O226 2.028 . S
Mg227 O232 2.032 . S
Mg227 O234 2.079 . S
C228 O225 1.250 . S
C228 O226 1.248 . S
C229 O230 1.264 . S
C229 O237 1.249 . S
O230 C229 1.264 . S
O231 Mg224 1.986 . S
O231 C235 1.246 . S
O232 Mg227 2.032 . S
O232 C235 1.259 . S
O233 Mg224 2.114 . S
O233 C236 1.252 . S
O234 Mg224 2.251 . S
O234 Mg227 2.079 . S
O234 C236 1.273 . S
C235 O231 1.246 . S
C235 O232 1.259 . S
C236 O233 1.252 . S
C236 O234 1.273 . S
O237 Mg224 2.010 . S
O237 C229 1.249 . S
Mg238 O239 2.028 . S
Mg238 O245 1.986 . S
Mg238 O247 2.114 1_554 S
Mg238 O248 2.251 1_554 S
Mg238 O251 2.010 . S
O239 Mg238 2.028 . S
O239 C242 1.250 . S
O240 Mg241 2.028 1_554 S
O240 C242 1.248 . S
Mg241 O240 2.028 1_556 S
Mg241 O246 2.032 1_556 S
Mg241 O248 2.079 . S
C242 O239 1.250 . S
C242 O240 1.248 . S
C243 O244 1.264 . S
C243 O251 1.249 . S
O244 C243 1.264 . S
O245 Mg238 1.986 . S
O245 C249 1.246 . S
O246 Mg241 2.032 1_554 S
O246 C249 1.259 . S
O247 Mg238 2.114 1_556 S
O247 C250 1.252 . S
O248 Mg238 2.251 1_556 S
O248 Mg241 2.079 . S
O248 C250 1.273 . S
C249 O245 1.246 . S
C249 O246 1.259 . S
C250 O247 1.252 . S
C250 O248 1.273 . S
O251 Mg238 2.010 . S
O251 C243 1.249 . S
Mg252 O253 2.028 . S
Mg252 O259 1.986 . S
Mg252 O261 2.114 . S
Mg252 O262 2.251 . S
Mg252 O265 2.010 1_655 S
O253 Mg252 2.028 . S
O253 C256 1.250 . S
O254 Mg255 2.028 . S
O254 C256 1.248 . S
Mg255 O254 2.028 . S
Mg255 O260 2.032 . S
Mg255 O262 2.079 . S
C256 O253 1.250 . S
C256 O254 1.248 . S
C257 O258 1.264 . S
C257 O265 1.249 . S
O258 C257 1.264 . S
O259 Mg252 1.986 . S
O259 C263 1.246 . S
O260 Mg255 2.032 . S
O260 C263 1.259 . S
O261 Mg252 2.114 . S
O261 C264 1.252 . S
O262 Mg252 2.251 . S
O262 Mg255 2.079 . S
O262 C264 1.273 . S
C263 O259 1.246 . S
C263 O260 1.259 . S
C264 O261 1.252 . S
C264 O262 1.273 . S
O265 Mg252 2.010 1_455 S
O265 C257 1.249 . S
Mg266 O267 2.028 . S
Mg266 O273 1.986 . S
Mg266 O275 2.114 . S
Mg266 O276 2.251 . S
Mg266 O279 2.010 . S
O267 Mg266 2.028 . S
O267 C270 1.250 . S
O268 Mg269 2.028 . S
O268 C270 1.248 . S
Mg269 O268 2.028 . S
Mg269 O274 2.032 . S
Mg269 O276 2.079 . S
C270 O267 1.250 . S
C270 O268 1.248 . S
C271 O272 1.264 . S
C271 O279 1.249 . S
O272 C271 1.264 . S
O273 Mg266 1.986 . S
O273 C277 1.246 . S
O274 Mg269 2.032 . S
O274 C277 1.259 . S
O275 Mg266 2.114 . S
O275 C278 1.252 . S
O276 Mg266 2.251 . S
O276 Mg269 2.079 . S
O276 C278 1.273 . S
C277 O273 1.246 . S
C277 O274 1.259 . S
C278 O275 1.252 . S
C278 O276 1.273 . S
O279 Mg266 2.010 . S
O279 C271 1.249 . S
Mg280 O281 2.028 . S
Mg280 O287 1.986 . S
Mg280 O289 2.114 . S
Mg280 O290 2.251 . S
Mg280 O293 2.010 . S
O281 Mg280 2.028 . S
O281 C284 1.250 . S
O282 Mg283 2.028 . S
O282 C284 1.248 . S
Mg283 O282 2.028 . S
Mg283 O288 2.032 . S
Mg283 O290 2.079 . S
C284 O281 1.250 . S
C284 O282 1.248 . S
C285 O286 1.264 . S
C285 O293 1.249 . S
O286 C285 1.264 . S
O287 Mg280 1.986 . S
O287 C291 1.246 . S
O288 Mg283 2.032 . S
O288 C291 1.259 . S
O289 Mg280 2.114 . S
O289 C292 1.252 . S
O290 Mg280 2.251 . S
O290 Mg283 2.079 . S
O290 C292 1.273 . S
C291 O287 1.246 . S
C291 O288 1.259 . S
C292 O289 1.252 . S
C292 O290 1.273 . S
O293 Mg280 2.010 . S
O293 C285 1.249 . S
Mg294 O295 2.028 . S
Mg294 O301 1.986 . S
Mg294 O303 2.114 1_556 S
Mg294 O304 2.251 1_556 S
Mg294 O307 2.010 . S
O295 Mg294 2.028 . S
O295 C298 1.250 . S
O296 Mg297 2.028 1_556 S
O296 C298 1.248 . S
Mg297 O296 2.028 1_554 S
Mg297 O302 2.032 1_554 S
Mg297 O304 2.079 . S
C298 O295 1.250 . S
C298 O296 1.248 . S
C299 O300 1.264 . S
C299 O307 1.249 . S
O300 C299 1.264 . S
O301 Mg294 1.986 . S
O301 C305 1.246 . S
O302 Mg297 2.032 1_556 S
O302 C305 1.259 . S
O303 Mg294 2.114 1_554 S
O303 C306 1.252 . S
O304 Mg294 2.251 1_554 S
O304 Mg297 2.079 . S
O304 C306 1.273 . S
C305 O301 1.246 . S
C305 O302 1.259 . S
C306 O303 1.252 . S
C306 O304 1.273 . S
O307 Mg294 2.010 . S
O307 C299 1.249 . S
Mg308 O309 2.028 . S
Mg308 O315 1.986 . S
Mg308 O317 2.114 . S
Mg308 O318 2.251 . S
Mg308 O321 2.010 1_655 S
O309 Mg308 2.028 . S
O309 C312 1.250 . S
O310 Mg311 2.028 . S
O310 C312 1.248 . S
Mg311 O310 2.028 . S
Mg311 O316 2.032 . S
Mg311 O318 2.079 . S
C312 O309 1.250 . S
C312 O310 1.248 . S
C313 O314 1.264 . S
C313 O321 1.249 . S
O314 C313 1.264 . S
O315 Mg308 1.986 . S
O315 C319 1.246 . S
O316 Mg311 2.032 . S
O316 C319 1.259 . S
O317 Mg308 2.114 . S
O317 C320 1.252 . S
O318 Mg308 2.251 . S
O318 Mg311 2.079 . S
O318 C320 1.273 . S
C319 O315 1.246 . S
C319 O316 1.259 . S
C320 O317 1.252 . S
C320 O318 1.273 . S
O321 Mg308 2.010 1_455 S
O321 C313 1.249 . S
Mg322 O323 2.028 . S
Mg322 O329 1.986 . S
Mg322 O331 2.114 . S
Mg322 O332 2.251 . S
Mg322 O335 2.010 . S
O323 Mg322 2.028 . S
O323 C326 1.250 . S
O324 Mg325 2.028 . S
O324 C326 1.248 . S
Mg325 O324 2.028 . S
Mg325 O330 2.032 . S
Mg325 O332 2.079 . S
C326 O323 1.250 . S
C326 O324 1.248 . S
C327 O328 1.264 . S
C327 O335 1.249 . S
O328 C327 1.264 . S
O329 Mg322 1.986 . S
O329 C333 1.246 . S
O330 Mg325 2.032 . S
O330 C333 1.259 . S
O331 Mg322 2.114 . S
O331 C334 1.252 . S
O332 Mg322 2.251 . S
O332 Mg325 2.079 . S
O332 C334 1.273 . S
C333 O329 1.246 . S
C333 O330 1.259 . S
C334 O331 1.252 . S
C334 O332 1.273 . S
O335 Mg322 2.010 . S
O335 C327 1.249 . S
Mg336 O337 2.028 . S
Mg336 O343 1.986 . S
Mg336 O345 2.114 . S
Mg336 O346 2.251 . S
Mg336 O349 2.010 . S
O337 Mg336 2.028 . S
O337 C340 1.250 . S
O338 Mg339 2.028 . S
O338 C340 1.248 . S
Mg339 O338 2.028 . S
Mg339 O344 2.032 . S
Mg339 O346 2.079 . S
C340 O337 1.250 . S
C340 O338 1.248 . S
C341 O342 1.264 . S
C341 O349 1.249 . S
O342 C341 1.264 . S
O343 Mg336 1.986 . S
O343 C347 1.246 . S
O344 Mg339 2.032 . S
O344 C347 1.259 . S
O345 Mg336 2.114 . S
O345 C348 1.252 . S
O346 Mg336 2.251 . S
O346 Mg339 2.079 . S
O346 C348 1.273 . S
C347 O343 1.246 . S
C347 O344 1.259 . S
C348 O345 1.252 . S
C348 O346 1.273 . S
O349 Mg336 2.010 . S
O349 C341 1.249 . S
Mg350 O351 2.028 . S
Mg350 O357 1.986 . S
Mg350 O359 2.114 1_556 S
Mg350 O360 2.251 1_556 S
Mg350 O363 2.010 . S
O351 Mg350 2.028 . S
O351 C354 1.250 . S
O352 Mg353 2.028 1_556 S
O352 C354 1.248 . S
Mg353 O352 2.028 1_554 S
Mg353 O358 2.032 1_554 S
Mg353 O360 2.079 . S
C354 O351 1.250 . S
C354 O352 1.248 . S
C355 O356 1.264 . S
C355 O363 1.249 . S
O356 C355 1.264 . S
O357 Mg350 1.986 . S
O357 C361 1.246 . S
O358 Mg353 2.032 1_556 S
O358 C361 1.259 . S
O359 Mg350 2.114 1_554 S
O359 C362 1.252 . S
O360 Mg350 2.251 1_554 S
O360 Mg353 2.079 . S
O360 C362 1.273 . S
C361 O357 1.246 . S
C361 O358 1.259 . S
C362 O359 1.252 . S
C362 O360 1.273 . S
O363 Mg350 2.010 . S
O363 C355 1.249 . S
Mg364 O365 2.028 . S
Mg364 O371 1.986 . S
Mg364 O373 2.114 . S
Mg364 O374 2.251 . S
Mg364 O377 2.010 1_455 S
O365 Mg364 2.028 . S
O365 C368 1.250 . S
O366 Mg367 2.028 . S
O366 C368 1.248 . S
Mg367 O366 2.028 . S
Mg367 O372 2.032 . S
Mg367 O374 2.079 . S
C368 O365 1.250 . S
C368 O366 1.248 . S
C369 O370 1.264 . S
C369 O377 1.249 . S
O370 C369 1.264 . S
O371 Mg364 1.986 . S
O371 C375 1.246 . S
O372 Mg367 2.032 . S
O372 C375 1.259 . S
O373 Mg364 2.114 . S
O373 C376 1.252 . S
O374 Mg364 2.251 . S
O374 Mg367 2.079 . S
O374 C376 1.273 . S
C375 O371 1.246 . S
C375 O372 1.259 . S
C376 O373 1.252 . S
C376 O374 1.273 . S
O377 Mg364 2.010 1_655 S
O377 C369 1.249 . S
Mg378 O379 2.028 . S
Mg378 O385 1.986 . S
Mg378 O387 2.114 . S
Mg378 O388 2.251 . S
Mg378 O391 2.010 . S
O379 Mg378 2.028 . S
O379 C382 1.250 . S
O380 Mg381 2.028 . S
O380 C382 1.248 . S
Mg381 O380 2.028 . S
Mg381 O386 2.032 . S
Mg381 O388 2.079 . S
C382 O379 1.250 . S
C382 O380 1.248 . S
C383 O384 1.264 . S
C383 O391 1.249 . S
O384 C383 1.264 . S
O385 Mg378 1.986 . S
O385 C389 1.246 . S
O386 Mg381 2.032 . S
O386 C389 1.259 . S
O387 Mg378 2.114 . S
O387 C390 1.252 . S
O388 Mg378 2.251 . S
O388 Mg381 2.079 . S
O388 C390 1.273 . S
C389 O385 1.246 . S
C389 O386 1.259 . S
C390 O387 1.252 . S
C390 O388 1.273 . S
O391 Mg378 2.010 . S
O391 C383 1.249 . S
Mg392 O393 2.028 . S
Mg392 O399 1.986 . S
Mg392 O401 2.114 . S
Mg392 O402 2.251 . S
Mg392 O405 2.010 . S
O393 Mg392 2.028 . S
O393 C396 1.250 . S
O394 Mg395 2.028 . S
O394 C396 1.248 . S
Mg395 O394 2.028 . S
Mg395 O400 2.032 . S
Mg395 O402 2.079 . S
C396 O393 1.250 . S
C396 O394 1.248 . S
C397 O398 1.264 . S
C397 O405 1.249 . S
O398 C397 1.264 . S
O399 Mg392 1.986 . S
O399 C403 1.246 . S
O400 Mg395 2.032 . S
O400 C403 1.259 . S
O401 Mg392 2.114 . S
O401 C404 1.252 . S
O402 Mg392 2.251 . S
O402 Mg395 2.079 . S
O402 C404 1.273 . S
C403 O399 1.246 . S
C403 O400 1.259 . S
C404 O401 1.252 . S
C404 O402 1.273 . S
O405 Mg392 2.010 . S
O405 C397 1.249 . S
Mg406 O407 2.028 . S
Mg406 O413 1.986 . S
Mg406 O415 2.114 1_554 S
Mg406 O416 2.251 1_554 S
Mg406 O419 2.010 . S
O407 Mg406 2.028 . S
O407 C410 1.250 . S
O408 Mg409 2.028 1_554 S
O408 C410 1.248 . S
Mg409 O408 2.028 1_556 S
Mg409 O414 2.032 1_556 S
Mg409 O416 2.079 . S
C410 O407 1.250 . S
C410 O408 1.248 . S
C411 O412 1.264 . S
C411 O419 1.249 . S
O412 C411 1.264 . S
O413 Mg406 1.986 . S
O413 C417 1.246 . S
O414 Mg409 2.032 1_554 S
O414 C417 1.259 . S
O415 Mg406 2.114 1_556 S
O415 C418 1.252 . S
O416 Mg406 2.251 1_556 S
O416 Mg409 2.079 . S
O416 C418 1.273 . S
C417 O413 1.246 . S
C417 O414 1.259 . S
C418 O415 1.252 . S
C418 O416 1.273 . S
O419 Mg406 2.010 . S
O419 C411 1.249 . S
Mg420 O421 2.028 . S
Mg420 O427 1.986 . S
Mg420 O429 2.114 . S
Mg420 O430 2.251 . S
Mg420 O433 2.010 1_455 S
O421 Mg420 2.028 . S
O421 C424 1.250 . S
O422 Mg423 2.028 . S
O422 C424 1.248 . S
Mg423 O422 2.028 . S
Mg423 O428 2.032 . S
Mg423 O430 2.079 . S
C424 O421 1.250 . S
C424 O422 1.248 . S
C425 O426 1.264 . S
C425 O433 1.249 . S
O426 C425 1.264 . S
O427 Mg420 1.986 . S
O427 C431 1.246 . S
O428 Mg423 2.032 . S
O428 C431 1.259 . S
O429 Mg420 2.114 . S
O429 C432 1.252 . S
O430 Mg420 2.251 . S
O430 Mg423 2.079 . S
O430 C432 1.273 . S
C431 O427 1.246 . S
C431 O428 1.259 . S
C432 O429 1.252 . S
C432 O430 1.273 . S
O433 Mg420 2.010 1_655 S
O433 C425 1.249 . S
Mg434 O435 2.028 . S
Mg434 O441 1.986 . S
Mg434 O443 2.114 . S
Mg434 O444 2.251 . S
Mg434 O447 2.010 . S
O435 Mg434 2.028 . S
O435 C438 1.250 . S
O436 Mg437 2.028 . S
O436 C438 1.248 . S
Mg437 O436 2.028 . S
Mg437 O442 2.032 . S
Mg437 O444 2.079 . S
C438 O435 1.250 . S
C438 O436 1.248 . S
C439 O440 1.264 . S
C439 O447 1.249 . S
O440 C439 1.264 . S
O441 Mg434 1.986 . S
O441 C445 1.246 . S
O442 Mg437 2.032 . S
O442 C445 1.259 . S
O443 Mg434 2.114 . S
O443 C446 1.252 . S
O444 Mg434 2.251 . S
O444 Mg437 2.079 . S
O444 C446 1.273 . S
C445 O441 1.246 . S
C445 O442 1.259 . S
C446 O443 1.252 . S
C446 O444 1.273 . S
O447 Mg434 2.010 . S
O447 C439 1.249 . S
C448 C449 1.369 . S
C448 C450 1.419 . S
C448 H452 0.930 . S
C449 C448 1.369 . S
C449 C458 1.429 . S
C450 C448 1.419 . S
C450 C451 1.363 . S
C450 H453 0.929 . S
C451 C450 1.363 . S
C451 C457 1.428 . S
H452 C448 0.930 . S
H453 C450 0.929 . S
S454 N455 1.613 . S
S454 N456 1.610 . S
N455 S454 1.613 . S
N455 C458 1.350 . S
N456 S454 1.610 . S
N456 C457 1.351 . S
C457 C451 1.428 . S
C457 N456 1.351 . S
C457 C458 1.434 . S
C458 C449 1.429 . S
C458 N455 1.350 . S
C458 C457 1.434 . S
C459 C460 1.369 . S
C459 C461 1.419 . S
C459 H463 0.930 . S
C460 C459 1.369 . S
C460 C469 1.429 . S
C461 C459 1.419 . S
C461 C462 1.363 . S
C461 H464 0.929 . S
C462 C461 1.363 . S
C462 C468 1.428 . S
H463 C459 0.930 . S
H464 C461 0.929 . S
S465 N466 1.613 . S
S465 N467 1.610 . S
N466 S465 1.613 . S
N466 C469 1.350 . S
N467 S465 1.610 . S
N467 C468 1.351 . S
C468 C462 1.428 . S
C468 N467 1.351 . S
C468 C469 1.434 . S
C469 C460 1.429 . S
C469 N466 1.350 . S
C469 C468 1.434 . S
C470 C471 1.369 . S
C470 C472 1.419 . S
C470 H474 0.930 . S
C471 C470 1.369 . S
C471 C480 1.429 . S
C472 C470 1.419 . S
C472 C473 1.363 . S
C472 H475 0.929 . S
C473 C472 1.363 . S
C473 C479 1.428 . S
H474 C470 0.930 . S
H475 C472 0.929 . S
S476 N477 1.613 . S
S476 N478 1.610 . S
N477 S476 1.613 . S
N477 C480 1.350 . S
N478 S476 1.610 . S
N478 C479 1.351 . S
C479 C473 1.428 . S
C479 N478 1.351 . S
C479 C480 1.434 . S
C480 C471 1.429 . S
C480 N477 1.350 . S
C480 C479 1.434 . S
C481 C482 1.369 . S
C481 C483 1.419 . S
C481 H485 0.930 . S
C482 C481 1.369 . S
C482 C491 1.429 . S
C483 C481 1.419 . S
C483 C484 1.363 . S
C483 H486 0.929 . S
C484 C483 1.363 . S
C484 C490 1.428 . S
H485 C481 0.930 . S
H486 C483 0.929 . S
S487 N488 1.613 . S
S487 N489 1.610 . S
N488 S487 1.613 . S
N488 C491 1.350 . S
N489 S487 1.610 . S
N489 C490 1.351 . S
C490 C484 1.428 . S
C490 N489 1.351 . S
C490 C491 1.434 . S
C491 C482 1.429 . S
C491 N488 1.350 . S
C491 C490 1.434 . S
C492 C493 1.369 . S
C492 C494 1.419 . S
C492 H496 0.930 . S
C493 C492 1.369 . S
C493 C502 1.429 . S
C494 C492 1.419 . S
C494 C495 1.363 . S
C494 H497 0.929 . S
C495 C494 1.363 . S
C495 C501 1.428 . S
H496 C492 0.930 . S
H497 C494 0.929 . S
S498 N499 1.613 . S
S498 N500 1.610 . S
N499 S498 1.613 . S
N499 C502 1.350 . S
N500 S498 1.610 . S
N500 C501 1.351 . S
C501 C495 1.428 . S
C501 N500 1.351 . S
C501 C502 1.434 . S
C502 C493 1.429 . S
C502 N499 1.350 . S
C502 C501 1.434 . S
C503 C504 1.369 . S
C503 C505 1.419 . S
C503 H507 0.930 . S
C504 C503 1.369 . S
C504 C513 1.429 . S
C505 C503 1.419 . S
C505 C506 1.363 . S
C505 H508 0.929 . S
C506 C505 1.363 . S
C506 C512 1.428 . S
H507 C503 0.930 . S
H508 C505 0.929 . S
S509 N510 1.613 . S
S509 N511 1.610 . S
N510 S509 1.613 . S
N510 C513 1.350 . S
N511 S509 1.610 . S
N511 C512 1.351 . S
C512 C506 1.428 . S
C512 N511 1.351 . S
C512 C513 1.434 . S
C513 C504 1.429 . S
C513 N510 1.350 . S
C513 C512 1.434 . S
C514 C515 1.369 . S
C514 C516 1.419 . S
C514 H518 0.930 . S
C515 C514 1.369 . S
C515 C524 1.429 . S
C516 C514 1.419 . S
C516 C517 1.363 . S
C516 H519 0.929 . S
C517 C516 1.363 . S
C517 C523 1.428 . S
H518 C514 0.930 . S
H519 C516 0.929 . S
S520 N521 1.613 . S
S520 N522 1.610 . S
N521 S520 1.613 . S
N521 C524 1.350 . S
N522 S520 1.610 . S
N522 C523 1.351 . S
C523 C517 1.428 . S
C523 N522 1.351 . S
C523 C524 1.434 . S
C524 C515 1.429 . S
C524 N521 1.350 . S
C524 C523 1.434 . S
C525 C526 1.369 . S
C525 C527 1.419 . S
C525 H529 0.930 . S
C526 C525 1.369 . S
C526 C535 1.429 . S
C527 C525 1.419 . S
C527 C528 1.363 . S
C527 H530 0.929 . S
C528 C527 1.363 . S
C528 C534 1.428 . S
H529 C525 0.930 . S
H530 C527 0.929 . S
S531 N532 1.613 . S
S531 N533 1.610 . S
N532 S531 1.613 . S
N532 C535 1.350 . S
N533 S531 1.610 . S
N533 C534 1.351 . S
C534 C528 1.428 . S
C534 N533 1.351 . S
C534 C535 1.434 . S
C535 C526 1.429 . S
C535 N532 1.350 . S
C535 C534 1.434 . S
C536 C537 1.369 . S
C536 C538 1.419 . S
C536 H540 0.930 . S
C537 C536 1.369 . S
C537 C546 1.429 . S
C538 C536 1.419 . S
C538 C539 1.363 . S
C538 H541 0.929 . S
C539 C538 1.363 . S
C539 C545 1.428 . S
H540 C536 0.930 . S
H541 C538 0.929 . S
S542 N543 1.613 . S
S542 N544 1.610 . S
N543 S542 1.613 . S
N543 C546 1.350 . S
N544 S542 1.610 . S
N544 C545 1.351 . S
C545 C539 1.428 . S
C545 N544 1.351 . S
C545 C546 1.434 . S
C546 C537 1.429 . S
C546 N543 1.350 . S
C546 C545 1.434 . S
C547 C548 1.369 . S
C547 C549 1.419 . S
C547 H551 0.930 . S
C548 C547 1.369 . S
C548 C557 1.429 . S
C549 C547 1.419 . S
C549 C550 1.363 . S
C549 H552 0.929 . S
C550 C549 1.363 . S
C550 C556 1.428 . S
H551 C547 0.930 . S
H552 C549 0.929 . S
S553 N554 1.613 . S
S553 N555 1.610 . S
N554 S553 1.613 . S
N554 C557 1.350 . S
N555 S553 1.610 . S
N555 C556 1.351 . S
C556 C550 1.428 . S
C556 N555 1.351 . S
C556 C557 1.434 . S
C557 C548 1.429 . S
C557 N554 1.350 . S
C557 C556 1.434 . S
C558 C559 1.369 . S
C558 C560 1.419 . S
C558 H562 0.930 . S
C559 C558 1.369 . S
C559 C568 1.429 . S
C560 C558 1.419 . S
C560 C561 1.363 . S
C560 H563 0.929 . S
C561 C560 1.363 . S
C561 C567 1.428 . S
H562 C558 0.930 . S
H563 C560 0.929 . S
S564 N565 1.613 . S
S564 N566 1.610 . S
N565 S564 1.613 . S
N565 C568 1.350 . S
N566 S564 1.610 . S
N566 C567 1.351 . S
C567 C561 1.428 . S
C567 N566 1.351 . S
C567 C568 1.434 . S
C568 C559 1.429 . S
C568 N565 1.350 . S
C568 C567 1.434 . S
C569 C570 1.369 . S
C569 C571 1.419 . S
C569 H573 0.930 . S
C570 C569 1.369 . S
C570 C579 1.429 . S
C571 C569 1.419 . S
C571 C572 1.363 . S
C571 H574 0.929 . S
C572 C571 1.363 . S
C572 C578 1.428 . S
H573 C569 0.930 . S
H574 C571 0.929 . S
S575 N576 1.613 . S
S575 N577 1.610 . S
N576 S575 1.613 . S
N576 C579 1.350 . S
N577 S575 1.610 . S
N577 C578 1.351 . S
C578 C572 1.428 . S
C578 N577 1.351 . S
C578 C579 1.434 . S
C579 C570 1.429 . S
C579 N576 1.350 . S
C579 C578 1.434 . S
C580 C581 1.369 . S
C580 C582 1.419 . S
C580 H584 0.930 . S
C581 C580 1.369 . S
C581 C590 1.429 . S
C582 C580 1.419 . S
C582 C583 1.363 . S
C582 H585 0.929 . S
C583 C582 1.363 . S
C583 C589 1.428 . S
H584 C580 0.930 . S
H585 C582 0.929 . S
S586 N587 1.613 . S
S586 N588 1.610 . S
N587 S586 1.613 . S
N587 C590 1.350 . S
N588 S586 1.610 . S
N588 C589 1.351 . S
C589 C583 1.428 . S
C589 N588 1.351 . S
C589 C590 1.434 . S
C590 C581 1.429 . S
C590 N587 1.350 . S
C590 C589 1.434 . S
C591 C592 1.369 . S
C591 C593 1.419 . S
C591 H595 0.930 . S
C592 C591 1.369 . S
C592 C601 1.429 . S
C593 C591 1.419 . S
C593 C594 1.363 . S
C593 H596 0.929 . S
C594 C593 1.363 . S
C594 C600 1.428 . S
H595 C591 0.930 . S
H596 C593 0.929 . S
S597 N598 1.613 . S
S597 N599 1.610 . S
N598 S597 1.613 . S
N598 C601 1.350 . S
N599 S597 1.610 . S
N599 C600 1.351 . S
C600 C594 1.428 . S
C600 N599 1.351 . S
C600 C601 1.434 . S
C601 C592 1.429 . S
C601 N598 1.350 . S
C601 C600 1.434 . S
C602 C603 1.369 . S
C602 C604 1.419 . S
C602 H606 0.930 . S
C603 C602 1.369 . S
C603 C612 1.429 . S
C604 C602 1.419 . S
C604 C605 1.363 . S
C604 H607 0.929 . S
C605 C604 1.363 . S
C605 C611 1.428 . S
H606 C602 0.930 . S
H607 C604 0.929 . S
S608 N609 1.613 . S
S608 N610 1.610 . S
N609 S608 1.613 . S
N609 C612 1.350 . S
N610 S608 1.610 . S
N610 C611 1.351 . S
C611 C605 1.428 . S
C611 N610 1.351 . S
C611 C612 1.434 . S
C612 C603 1.429 . S
C612 N609 1.350 . S
C612 C611 1.434 . S
C613 C614 1.369 . S
C613 C615 1.419 . S
C613 H617 0.930 . S
C614 C613 1.369 . S
C614 C623 1.429 . S
C615 C613 1.419 . S
C615 C616 1.363 . S
C615 H618 0.929 . S
C616 C615 1.363 . S
C616 C622 1.428 . S
H617 C613 0.930 . S
H618 C615 0.929 . S
S619 N620 1.613 . S
S619 N621 1.610 . S
N620 S619 1.613 . S
N620 C623 1.350 . S
N621 S619 1.610 . S
N621 C622 1.351 . S
C622 C616 1.428 . S
C622 N621 1.351 . S
C622 C623 1.434 . S
C623 C614 1.429 . S
C623 N620 1.350 . S
C623 C622 1.434 . S
C624 C625 1.369 . S
C624 C626 1.419 . S
C624 H628 0.930 . S
C625 C624 1.369 . S
C625 C634 1.429 . S
C626 C624 1.419 . S
C626 C627 1.363 . S
C626 H629 0.929 . S
C627 C626 1.363 . S
C627 C633 1.428 . S
H628 C624 0.930 . S
H629 C626 0.929 . S
S630 N631 1.613 . S
S630 N632 1.610 . S
N631 S630 1.613 . S
N631 C634 1.350 . S
N632 S630 1.610 . S
N632 C633 1.351 . S
C633 C627 1.428 . S
C633 N632 1.351 . S
C633 C634 1.434 . S
C634 C625 1.429 . S
C634 N631 1.350 . S
C634 C633 1.434 . S
C635 C636 1.369 . S
C635 C637 1.419 . S
C635 H639 0.930 . S
C636 C635 1.369 . S
C636 C645 1.429 . S
C637 C635 1.419 . S
C637 C638 1.363 . S
C637 H640 0.929 . S
C638 C637 1.363 . S
C638 C644 1.428 . S
H639 C635 0.930 . S
H640 C637 0.929 . S
S641 N642 1.613 . S
S641 N643 1.610 . S
N642 S641 1.613 . S
N642 C645 1.350 . S
N643 S641 1.610 . S
N643 C644 1.351 . S
C644 C638 1.428 . S
C644 N643 1.351 . S
C644 C645 1.434 . S
C645 C636 1.429 . S
C645 N642 1.350 . S
C645 C644 1.434 . S
C646 C647 1.369 . S
C646 C648 1.419 . S
C646 H650 0.930 . S
C647 C646 1.369 . S
C647 C656 1.429 . S
C648 C646 1.419 . S
C648 C649 1.363 . S
C648 H651 0.929 . S
C649 C648 1.363 . S
C649 C655 1.428 . S
H650 C646 0.930 . S
H651 C648 0.929 . S
S652 N653 1.613 . S
S652 N654 1.610 . S
N653 S652 1.613 . S
N653 C656 1.350 . S
N654 S652 1.610 . S
N654 C655 1.351 . S
C655 C649 1.428 . S
C655 N654 1.351 . S
C655 C656 1.434 . S
C656 C647 1.429 . S
C656 N653 1.350 . S
C656 C655 1.434 . S
C657 C658 1.369 . S
C657 C659 1.419 . S
C657 H661 0.930 . S
C658 C657 1.369 . S
C658 C667 1.429 . S
C659 C657 1.419 . S
C659 C660 1.363 . S
C659 H662 0.929 . S
C660 C659 1.363 . S
C660 C666 1.428 . S
H661 C657 0.930 . S
H662 C659 0.929 . S
S663 N664 1.613 . S
S663 N665 1.610 . S
N664 S663 1.613 . S
N664 C667 1.350 . S
N665 S663 1.610 . S
N665 C666 1.351 . S
C666 C660 1.428 . S
C666 N665 1.351 . S
C666 C667 1.434 . S
C667 C658 1.429 . S
C667 N664 1.350 . S
C667 C666 1.434 . S
C668 C669 1.369 . S
C668 C670 1.419 . S
C668 H672 0.930 . S
C669 C668 1.369 . S
C669 C678 1.429 . S
C670 C668 1.419 . S
C670 C671 1.363 . S
C670 H673 0.929 . S
C671 C670 1.363 . S
C671 C677 1.428 . S
H672 C668 0.930 . S
H673 C670 0.929 . S
S674 N675 1.613 . S
S674 N676 1.610 . S
N675 S674 1.613 . S
N675 C678 1.350 . S
N676 S674 1.610 . S
N676 C677 1.351 . S
C677 C671 1.428 . S
C677 N676 1.351 . S
C677 C678 1.434 . S
C678 C669 1.429 . S
C678 N675 1.350 . S
C678 C677 1.434 . S
C679 C680 1.369 . S
C679 C681 1.419 . S
C679 H683 0.930 . S
C680 C679 1.369 . S
C680 C689 1.429 . S
C681 C679 1.419 . S
C681 C682 1.363 . S
C681 H684 0.929 . S
C682 C681 1.363 . S
C682 C688 1.428 . S
H683 C679 0.930 . S
H684 C681 0.929 . S
S685 N686 1.613 . S
S685 N687 1.610 . S
N686 S685 1.613 . S
N686 C689 1.350 . S
N687 S685 1.610 . S
N687 C688 1.351 . S
C688 C682 1.428 . S
C688 N687 1.351 . S
C688 C689 1.434 . S
C689 C680 1.429 . S
C689 N686 1.350 . S
C689 C688 1.434 . S
C690 C691 1.369 . S
C690 C692 1.419 . S
C690 H694 0.930 . S
C691 C690 1.369 . S
C691 C700 1.429 . S
C692 C690 1.419 . S
C692 C693 1.363 . S
C692 H695 0.929 . S
C693 C692 1.363 . S
C693 C699 1.428 . S
H694 C690 0.930 . S
H695 C692 0.929 . S
S696 N697 1.613 . S
S696 N698 1.610 . S
N697 S696 1.613 . S
N697 C700 1.350 . S
N698 S696 1.610 . S
N698 C699 1.351 . S
C699 C693 1.428 . S
C699 N698 1.351 . S
C699 C700 1.434 . S
C700 C691 1.429 . S
C700 N697 1.350 . S
C700 C699 1.434 . S
C701 C702 1.369 . S
C701 C703 1.419 . S
C701 H705 0.930 . S
C702 C701 1.369 . S
C702 C711 1.429 . S
C703 C701 1.419 . S
C703 C704 1.363 . S
C703 H706 0.929 . S
C704 C703 1.363 . S
C704 C710 1.428 . S
H705 C701 0.930 . S
H706 C703 0.929 . S
S707 N708 1.613 . S
S707 N709 1.610 . S
N708 S707 1.613 . S
N708 C711 1.350 . S
N709 S707 1.610 . S
N709 C710 1.351 . S
C710 C704 1.428 . S
C710 N709 1.351 . S
C710 C711 1.434 . S
C711 C702 1.429 . S
C711 N708 1.350 . S
C711 C710 1.434 . S
C712 C713 1.369 . S
C712 C714 1.419 . S
C712 H716 0.930 . S
C713 C712 1.369 . S
C713 C722 1.429 . S
C714 C712 1.419 . S
C714 C715 1.363 . S
C714 H717 0.929 . S
C715 C714 1.363 . S
C715 C721 1.428 . S
H716 C712 0.930 . S
H717 C714 0.929 . S
S718 N719 1.613 . S
S718 N720 1.610 . S
N719 S718 1.613 . S
N719 C722 1.350 . S
N720 S718 1.610 . S
N720 C721 1.351 . S
C721 C715 1.428 . S
C721 N720 1.351 . S
C721 C722 1.434 . S
C722 C713 1.429 . S
C722 N719 1.350 . S
C722 C721 1.434 . S
C723 C724 1.369 . S
C723 C725 1.419 . S
C723 H727 0.930 . S
C724 C723 1.369 . S
C724 C733 1.429 . S
C725 C723 1.419 . S
C725 C726 1.363 . S
C725 H728 0.929 . S
C726 C725 1.363 . S
C726 C732 1.428 . S
H727 C723 0.930 . S
H728 C725 0.929 . S
S729 N730 1.613 . S
S729 N731 1.610 . S
N730 S729 1.613 . S
N730 C733 1.350 . S
N731 S729 1.610 . S
N731 C732 1.351 . S
C732 C726 1.428 . S
C732 N731 1.351 . S
C732 C733 1.434 . S
C733 C724 1.429 . S
C733 N730 1.350 . S
C733 C732 1.434 . S
C734 C735 1.369 . S
C734 C736 1.419 . S
C734 H738 0.930 . S
C735 C734 1.369 . S
C735 C744 1.429 . S
C736 C734 1.419 . S
C736 C737 1.363 . S
C736 H739 0.929 . S
C737 C736 1.363 . S
C737 C743 1.428 . S
H738 C734 0.930 . S
H739 C736 0.929 . S
S740 N741 1.613 . S
S740 N742 1.610 . S
N741 S740 1.613 . S
N741 C744 1.350 . S
N742 S740 1.610 . S
N742 C743 1.351 . S
C743 C737 1.428 . S
C743 N742 1.351 . S
C743 C744 1.434 . S
C744 C735 1.429 . S
C744 N741 1.350 . S
C744 C743 1.434 . S
C745 C746 1.369 . S
C745 C747 1.419 . S
C745 H749 0.930 . S
C746 C745 1.369 . S
C746 C755 1.429 . S
C747 C745 1.419 . S
C747 C748 1.363 . S
C747 H750 0.929 . S
C748 C747 1.363 . S
C748 C754 1.428 . S
H749 C745 0.930 . S
H750 C747 0.929 . S
S751 N752 1.613 . S
S751 N753 1.610 . S
N752 S751 1.613 . S
N752 C755 1.350 . S
N753 S751 1.610 . S
N753 C754 1.351 . S
C754 C748 1.428 . S
C754 N753 1.351 . S
C754 C755 1.434 . S
C755 C746 1.429 . S
C755 N752 1.350 . S
C755 C754 1.434 . S
C756 C757 1.369 . S
C756 C758 1.419 . S
C756 H760 0.930 . S
C757 C756 1.369 . S
C757 C766 1.429 . S
C758 C756 1.419 . S
C758 C759 1.363 . S
C758 H761 0.929 . S
C759 C758 1.363 . S
C759 C765 1.428 . S
H760 C756 0.930 . S
H761 C758 0.929 . S
S762 N763 1.613 . S
S762 N764 1.610 . S
N763 S762 1.613 . S
N763 C766 1.350 . S
N764 S762 1.610 . S
N764 C765 1.351 . S
C765 C759 1.428 . S
C765 N764 1.351 . S
C765 C766 1.434 . S
C766 C757 1.429 . S
C766 N763 1.350 . S
C766 C765 1.434 . S
C767 C768 1.369 . S
C767 C769 1.419 . S
C767 H771 0.930 . S
C768 C767 1.369 . S
C768 C777 1.429 . S
C769 C767 1.419 . S
C769 C770 1.363 . S
C769 H772 0.929 . S
C770 C769 1.363 . S
C770 C776 1.428 . S
H771 C767 0.930 . S
H772 C769 0.929 . S
S773 N774 1.613 . S
S773 N775 1.610 . S
N774 S773 1.613 . S
N774 C777 1.350 . S
N775 S773 1.610 . S
N775 C776 1.351 . S
C776 C770 1.428 . S
C776 N775 1.351 . S
C776 C777 1.434 . S
C777 C768 1.429 . S
C777 N774 1.350 . S
C777 C776 1.434 . S
C778 C779 1.369 . S
C778 C780 1.419 . S
C778 H782 0.930 . S
C779 C778 1.369 . S
C779 C788 1.429 . S
C780 C778 1.419 . S
C780 C781 1.363 . S
C780 H783 0.929 . S
C781 C780 1.363 . S
C781 C787 1.428 . S
H782 C778 0.930 . S
H783 C780 0.929 . S
S784 N785 1.613 . S
S784 N786 1.610 . S
N785 S784 1.613 . S
N785 C788 1.350 . S
N786 S784 1.610 . S
N786 C787 1.351 . S
C787 C781 1.428 . S
C787 N786 1.351 . S
C787 C788 1.434 . S
C788 C779 1.429 . S
C788 N785 1.350 . S
C788 C787 1.434 . S
C789 C790 1.369 . S
C789 C791 1.419 . S
C789 H793 0.930 . S
C790 C789 1.369 . S
C790 C799 1.429 . S
C791 C789 1.419 . S
C791 C792 1.363 . S
C791 H794 0.929 . S
C792 C791 1.363 . S
C792 C798 1.428 . S
H793 C789 0.930 . S
H794 C791 0.929 . S
S795 N796 1.613 . S
S795 N797 1.610 . S
N796 S795 1.613 . S
N796 C799 1.350 . S
N797 S795 1.610 . S
N797 C798 1.351 . S
C798 C792 1.428 . S
C798 N797 1.351 . S
C798 C799 1.434 . S
C799 C790 1.429 . S
C799 N796 1.350 . S
C799 C798 1.434 . S
C800 C801 1.369 . S
C800 C802 1.419 . S
C800 H804 0.930 . S
C801 C800 1.369 . S
C801 C810 1.429 . S
C802 C800 1.419 . S
C802 C803 1.363 . S
C802 H805 0.929 . S
C803 C802 1.363 . S
C803 C809 1.428 . S
H804 C800 0.930 . S
H805 C802 0.929 . S
S806 N807 1.613 . S
S806 N808 1.610 . S
N807 S806 1.613 . S
N807 C810 1.350 . S
N808 S806 1.610 . S
N808 C809 1.351 . S
C809 C803 1.428 . S
C809 N808 1.351 . S
C809 C810 1.434 . S
C810 C801 1.429 . S
C810 N807 1.350 . S
C810 C809 1.434 . S
C811 C812 1.369 . S
C811 C813 1.419 . S
C811 H815 0.930 . S
C812 C811 1.369 . S
C812 C821 1.429 . S
C813 C811 1.419 . S
C813 C814 1.363 . S
C813 H816 0.929 . S
C814 C813 1.363 . S
C814 C820 1.428 . S
H815 C811 0.930 . S
H816 C813 0.929 . S
S817 N818 1.613 . S
S817 N819 1.610 . S
N818 S817 1.613 . S
N818 C821 1.350 . S
N819 S817 1.610 . S
N819 C820 1.351 . S
C820 C814 1.428 . S
C820 N819 1.351 . S
C820 C821 1.434 . S
C821 C812 1.429 . S
C821 N818 1.350 . S
C821 C820 1.434 . S
C822 C823 1.369 . S
C822 C824 1.419 . S
C822 H826 0.930 . S
C823 C822 1.369 . S
C823 C832 1.429 . S
C824 C822 1.419 . S
C824 C825 1.363 . S
C824 H827 0.929 . S
C825 C824 1.363 . S
C825 C831 1.428 . S
H826 C822 0.930 . S
H827 C824 0.929 . S
S828 N829 1.613 . S
S828 N830 1.610 . S
N829 S828 1.613 . S
N829 C832 1.350 . S
N830 S828 1.610 . S
N830 C831 1.351 . S
C831 C825 1.428 . S
C831 N830 1.351 . S
C831 C832 1.434 . S
C832 C823 1.429 . S
C832 N829 1.350 . S
C832 C831 1.434 . S
C833 C834 1.369 . S
C833 C835 1.419 . S
C833 H837 0.930 . S
C834 C833 1.369 . S
C834 C843 1.429 . S
C835 C833 1.419 . S
C835 C836 1.363 . S
C835 H838 0.929 . S
C836 C835 1.363 . S
C836 C842 1.428 . S
H837 C833 0.930 . S
H838 C835 0.929 . S
S839 N840 1.613 . S
S839 N841 1.610 . S
N840 S839 1.613 . S
N840 C843 1.350 . S
N841 S839 1.610 . S
N841 C842 1.351 . S
C842 C836 1.428 . S
C842 N841 1.351 . S
C842 C843 1.434 . S
C843 C834 1.429 . S
C843 N840 1.350 . S
C843 C842 1.434 . S
C844 C845 1.369 . S
C844 C846 1.419 . S
C844 H848 0.930 . S
C845 C844 1.369 . S
C845 C854 1.429 . S
C846 C844 1.419 . S
C846 C847 1.363 . S
C846 H849 0.929 . S
C847 C846 1.363 . S
C847 C853 1.428 . S
H848 C844 0.930 . S
H849 C846 0.929 . S
S850 N851 1.613 . S
S850 N852 1.610 . S
N851 S850 1.613 . S
N851 C854 1.350 . S
N852 S850 1.610 . S
N852 C853 1.351 . S
C853 C847 1.428 . S
C853 N852 1.351 . S
C853 C854 1.434 . S
C854 C845 1.429 . S
C854 N851 1.350 . S
C854 C853 1.434 . S
C855 C856 1.369 . S
C855 C857 1.419 . S
C855 H859 0.930 . S
C856 C855 1.369 . S
C856 C865 1.429 . S
C857 C855 1.419 . S
C857 C858 1.363 . S
C857 H860 0.929 . S
C858 C857 1.363 . S
C858 C864 1.428 . S
H859 C855 0.930 . S
H860 C857 0.929 . S
S861 N862 1.613 . S
S861 N863 1.610 . S
N862 S861 1.613 . S
N862 C865 1.350 . S
N863 S861 1.610 . S
N863 C864 1.351 . S
C864 C858 1.428 . S
C864 N863 1.351 . S
C864 C865 1.434 . S
C865 C856 1.429 . S
C865 N862 1.350 . S
C865 C864 1.434 . S
C866 C867 1.369 . S
C866 C868 1.419 . S
C866 H870 0.930 . S
C867 C866 1.369 . S
C867 C876 1.429 . S
C868 C866 1.419 . S
C868 C869 1.363 . S
C868 H871 0.929 . S
C869 C868 1.363 . S
C869 C875 1.428 . S
H870 C866 0.930 . S
H871 C868 0.929 . S
S872 N873 1.613 . S
S872 N874 1.610 . S
N873 S872 1.613 . S
N873 C876 1.350 . S
N874 S872 1.610 . S
N874 C875 1.351 . S
C875 C869 1.428 . S
C875 N874 1.351 . S
C875 C876 1.434 . S
C876 C867 1.429 . S
C876 N873 1.350 . S
C876 C875 1.434 . S
C877 C878 1.369 . S
C877 C879 1.419 . S
C877 H881 0.930 . S
C878 C877 1.369 . S
C878 C887 1.429 . S
C879 C877 1.419 . S
C879 C880 1.363 . S
C879 H882 0.929 . S
C880 C879 1.363 . S
C880 C886 1.428 . S
H881 C877 0.930 . S
H882 C879 0.929 . S
S883 N884 1.613 . S
S883 N885 1.610 . S
N884 S883 1.613 . S
N884 C887 1.350 . S
N885 S883 1.610 . S
N885 C886 1.351 . S
C886 C880 1.428 . S
C886 N885 1.351 . S
C886 C887 1.434 . S
C887 C878 1.429 . S
C887 N884 1.350 . S
C887 C886 1.434 . S
C888 C889 1.369 . S
C888 C890 1.419 . S
C888 H892 0.930 . S
C889 C888 1.369 . S
C889 C898 1.429 . S
C890 C888 1.419 . S
C890 C891 1.363 . S
C890 H893 0.929 . S
C891 C890 1.363 . S
C891 C897 1.428 . S
H892 C888 0.930 . S
H893 C890 0.929 . S
S894 N895 1.613 . S
S894 N896 1.610 . S
N895 S894 1.613 . S
N895 C898 1.350 . S
N896 S894 1.610 . S
N896 C897 1.351 . S
C897 C891 1.428 . S
C897 N896 1.351 . S
C897 C898 1.434 . S
C898 C889 1.429 . S
C898 N895 1.350 . S
C898 C897 1.434 . S
C899 C900 1.369 . S
C899 C901 1.419 . S
C899 H903 0.930 . S
C900 C899 1.369 . S
C900 C909 1.429 . S
C901 C899 1.419 . S
C901 C902 1.363 . S
C901 H904 0.929 . S
C902 C901 1.363 . S
C902 C908 1.428 . S
H903 C899 0.930 . S
H904 C901 0.929 . S
S905 N906 1.613 . S
S905 N907 1.610 . S
N906 S905 1.613 . S
N906 C909 1.350 . S
N907 S905 1.610 . S
N907 C908 1.351 . S
C908 C902 1.428 . S
C908 N907 1.351 . S
C908 C909 1.434 . S
C909 C900 1.429 . S
C909 N906 1.350 . S
C909 C908 1.434 . S
C910 C911 1.369 . S
C910 C912 1.419 . S
C910 H914 0.930 . S
C911 C910 1.369 . S
C911 C920 1.429 . S
C912 C910 1.419 . S
C912 C913 1.363 . S
C912 H915 0.929 . S
C913 C912 1.363 . S
C913 C919 1.428 . S
H914 C910 0.930 . S
H915 C912 0.929 . S
S916 N917 1.613 . S
S916 N918 1.610 . S
N917 S916 1.613 . S
N917 C920 1.350 . S
N918 S916 1.610 . S
N918 C919 1.351 . S
C919 C913 1.428 . S
C919 N918 1.351 . S
C919 C920 1.434 . S
C920 C911 1.429 . S
C920 N917 1.350 . S
C920 C919 1.434 . S
C921 C922 1.369 . S
C921 C923 1.419 . S
C921 H925 0.930 . S
C922 C921 1.369 . S
C922 C931 1.429 . S
C923 C921 1.419 . S
C923 C924 1.363 . S
C923 H926 0.929 . S
C924 C923 1.363 . S
C924 C930 1.428 . S
H925 C921 0.930 . S
H926 C923 0.929 . S
S927 N928 1.613 . S
S927 N929 1.610 . S
N928 S927 1.613 . S
N928 C931 1.350 . S
N929 S927 1.610 . S
N929 C930 1.351 . S
C930 C924 1.428 . S
C930 N929 1.351 . S
C930 C931 1.434 . S
C931 C922 1.429 . S
C931 N928 1.350 . S
C931 C930 1.434 . S
C932 C933 1.369 . S
C932 C934 1.419 . S
C932 H936 0.930 . S
C933 C932 1.369 . S
C933 C942 1.429 . S
C934 C932 1.419 . S
C934 C935 1.363 . S
C934 H937 0.929 . S
C935 C934 1.363 . S
C935 C941 1.428 . S
H936 C932 0.930 . S
H937 C934 0.929 . S
S938 N939 1.613 . S
S938 N940 1.610 . S
N939 S938 1.613 . S
N939 C942 1.350 . S
N940 S938 1.610 . S
N940 C941 1.351 . S
C941 C935 1.428 . S
C941 N940 1.351 . S
C941 C942 1.434 . S
C942 C933 1.429 . S
C942 N939 1.350 . S
C942 C941 1.434 . S
C943 C944 1.369 . S
C943 C945 1.419 . S
C943 H947 0.930 . S
C944 C943 1.369 . S
C944 C953 1.429 . S
C945 C943 1.419 . S
C945 C946 1.363 . S
C945 H948 0.929 . S
C946 C945 1.363 . S
C946 C952 1.428 . S
H947 C943 0.930 . S
H948 C945 0.929 . S
S949 N950 1.613 . S
S949 N951 1.610 . S
N950 S949 1.613 . S
N950 C953 1.350 . S
N951 S949 1.610 . S
N951 C952 1.351 . S
C952 C946 1.428 . S
C952 N951 1.351 . S
C952 C953 1.434 . S
C953 C944 1.429 . S
C953 N950 1.350 . S
C953 C952 1.434 . S
C954 C955 1.369 . S
C954 C956 1.419 . S
C954 H958 0.930 . S
C955 C954 1.369 . S
C955 C964 1.429 . S
C956 C954 1.419 . S
C956 C957 1.363 . S
C956 H959 0.929 . S
C957 C956 1.363 . S
C957 C963 1.428 . S
H958 C954 0.930 . S
H959 C956 0.929 . S
S960 N961 1.613 . S
S960 N962 1.610 . S
N961 S960 1.613 . S
N961 C964 1.350 . S
N962 S960 1.610 . S
N962 C963 1.351 . S
C963 C957 1.428 . S
C963 N962 1.351 . S
C963 C964 1.434 . S
C964 C955 1.429 . S
C964 N961 1.350 . S
C964 C963 1.434 . S
C965 C966 1.369 . S
C965 C967 1.419 . S
C965 H969 0.930 . S
C966 C965 1.369 . S
C966 C975 1.429 . S
C967 C965 1.419 . S
C967 C968 1.363 . S
C967 H970 0.929 . S
C968 C967 1.363 . S
C968 C974 1.428 . S
H969 C965 0.930 . S
H970 C967 0.929 . S
S971 N972 1.613 . S
S971 N973 1.610 . S
N972 S971 1.613 . S
N972 C975 1.350 . S
N973 S971 1.610 . S
N973 C974 1.351 . S
C974 C968 1.428 . S
C974 N973 1.351 . S
C974 C975 1.434 . S
C975 C966 1.429 . S
C975 N972 1.350 . S
C975 C974 1.434 . S
C976 C977 1.369 . S
C976 C978 1.419 . S
C976 H980 0.930 . S
C977 C976 1.369 . S
C977 C986 1.429 . S
C978 C976 1.419 . S
C978 C979 1.363 . S
C978 H981 0.929 . S
C979 C978 1.363 . S
C979 C985 1.428 . S
H980 C976 0.930 . S
H981 C978 0.929 . S
S982 N983 1.613 . S
S982 N984 1.610 . S
N983 S982 1.613 . S
N983 C986 1.350 . S
N984 S982 1.610 . S
N984 C985 1.351 . S
C985 C979 1.428 . S
C985 N984 1.351 . S
C985 C986 1.434 . S
C986 C977 1.429 . S
C986 N983 1.350 . S
C986 C985 1.434 . S
C987 C988 1.369 . S
C987 C989 1.419 . S
C987 H991 0.930 . S
C988 C987 1.369 . S
C988 C997 1.429 . S
C989 C987 1.419 . S
C989 C990 1.363 . S
C989 H992 0.929 . S
C990 C989 1.363 . S
C990 C996 1.428 . S
H991 C987 0.930 . S
H992 C989 0.929 . S
S993 N994 1.613 . S
S993 N995 1.610 . S
N994 S993 1.613 . S
N994 C997 1.350 . S
N995 S993 1.610 . S
N995 C996 1.351 . S
C996 C990 1.428 . S
C996 N995 1.351 . S
C996 C997 1.434 . S
C997 C988 1.429 . S
C997 N994 1.350 . S
C997 C996 1.434 . S
C998 C999 1.369 . S
C998 C1000 1.419 . S
C998 H1002 0.930 . S
C999 C998 1.369 . S
C999 C1008 1.429 . S
C1000 C998 1.419 . S
C1000 C1001 1.363 . S
C1000 H1003 0.929 . S
C1001 C1000 1.363 . S
C1001 C1007 1.428 . S
H1002 C998 0.930 . S
H1003 C1000 0.929 . S
S1004 N1005 1.613 . S
S1004 N1006 1.610 . S
N1005 S1004 1.613 . S
N1005 C1008 1.350 . S
N1006 S1004 1.610 . S
N1006 C1007 1.351 . S
C1007 C1001 1.428 . S
C1007 N1006 1.351 . S
C1007 C1008 1.434 . S
C1008 C999 1.429 . S
C1008 N1005 1.350 . S
C1008 C1007 1.434 . S
C1009 C1010 1.369 1_554 S
C1009 C1011 1.419 . S
C1009 H1013 0.930 . S
C1010 C1009 1.369 1_556 S
C1010 C1019 1.429 . S
C1011 C1009 1.419 . S
C1011 C1012 1.363 . S
C1011 H1014 0.929 . S
C1012 C1011 1.363 . S
C1012 C1018 1.428 1_554 S
H1013 C1009 0.930 . S
H1014 C1011 0.929 . S
S1015 N1016 1.613 . S
S1015 N1017 1.610 . S
N1016 S1015 1.613 . S
N1016 C1019 1.350 . S
N1017 S1015 1.610 . S
N1017 C1018 1.351 . S
C1018 C1012 1.428 1_556 S
C1018 N1017 1.351 . S
C1018 C1019 1.434 . S
C1019 C1010 1.429 . S
C1019 N1016 1.350 . S
C1019 C1018 1.434 . S
C1020 C1021 1.369 . S
C1020 C1022 1.419 . S
C1020 H1024 0.930 . S
C1021 C1020 1.369 . S
C1021 C1030 1.429 . S
C1022 C1020 1.419 . S
C1022 C1023 1.363 . S
C1022 H1025 0.929 . S
C1023 C1022 1.363 . S
C1023 C1029 1.428 . S
H1024 C1020 0.930 . S
H1025 C1022 0.929 . S
S1026 N1027 1.613 . S
S1026 N1028 1.610 . S
N1027 S1026 1.613 . S
N1027 C1030 1.350 1_455 S
N1028 S1026 1.610 . S
N1028 C1029 1.351 1_455 S
C1029 C1023 1.428 . S
C1029 N1028 1.351 1_655 S
C1029 C1030 1.434 . S
C1030 C1021 1.429 . S
C1030 N1027 1.350 1_655 S
C1030 C1029 1.434 . S
C1031 C1032 1.369 . S
C1031 C1033 1.419 . S
C1031 H1035 0.930 . S
C1032 C1031 1.369 . S
C1032 C1041 1.429 . S
C1033 C1031 1.419 . S
C1033 C1034 1.363 . S
C1033 H1036 0.929 . S
C1034 C1033 1.363 . S
C1034 C1040 1.428 . S
H1035 C1031 0.930 . S
H1036 C1033 0.929 . S
S1037 N1038 1.613 . S
S1037 N1039 1.610 . S
N1038 S1037 1.613 . S
N1038 C1041 1.350 . S
N1039 S1037 1.610 . S
N1039 C1040 1.351 . S
C1040 C1034 1.428 . S
C1040 N1039 1.351 . S
C1040 C1041 1.434 . S
C1041 C1032 1.429 . S
C1041 N1038 1.350 . S
C1041 C1040 1.434 . S
C1042 C1043 1.369 . S
C1042 C1044 1.419 . S
C1042 H1046 0.930 . S
C1043 C1042 1.369 . S
C1043 C1052 1.429 . S
C1044 C1042 1.419 . S
C1044 C1045 1.363 . S
C1044 H1047 0.929 . S
C1045 C1044 1.363 . S
C1045 C1051 1.428 . S
H1046 C1042 0.930 . S
H1047 C1044 0.929 . S
S1048 N1049 1.613 . S
S1048 N1050 1.610 . S
N1049 S1048 1.613 . S
N1049 C1052 1.350 . S
N1050 S1048 1.610 . S
N1050 C1051 1.351 . S
C1051 C1045 1.428 . S
C1051 N1050 1.351 . S
C1051 C1052 1.434 . S
C1052 C1043 1.429 . S
C1052 N1049 1.350 . S
C1052 C1051 1.434 . S
C1053 C1054 1.369 1_556 S
C1053 C1055 1.419 . S
C1053 H1057 0.930 . S
C1054 C1053 1.369 1_554 S
C1054 C1063 1.429 . S
C1055 C1053 1.419 . S
C1055 C1056 1.363 . S
C1055 H1058 0.929 . S
C1056 C1055 1.363 . S
C1056 C1062 1.428 1_556 S
H1057 C1053 0.930 . S
H1058 C1055 0.929 . S
S1059 N1060 1.613 . S
S1059 N1061 1.610 . S
N1060 S1059 1.613 . S
N1060 C1063 1.350 . S
N1061 S1059 1.610 . S
N1061 C1062 1.351 . S
C1062 C1056 1.428 1_554 S
C1062 N1061 1.351 . S
C1062 C1063 1.434 . S
C1063 C1054 1.429 . S
C1063 N1060 1.350 . S
C1063 C1062 1.434 . S
C1064 C1065 1.369 . S
C1064 C1066 1.419 1_565 S
C1064 H1068 0.930 . S
C1065 C1064 1.369 . S
C1065 C1074 1.429 . S
C1066 C1064 1.419 1_545 S
C1066 C1067 1.363 . S
C1066 H1069 0.929 . S
C1067 C1066 1.363 . S
C1067 C1073 1.428 . S
H1068 C1064 0.930 . S
H1069 C1066 0.929 . S
S1070 N1071 1.613 1_545 S
S1070 N1072 1.610 . S
N1071 S1070 1.613 1_565 S
N1071 C1074 1.350 . S
N1072 S1070 1.610 . S
N1072 C1073 1.351 . S
C1073 C1067 1.428 . S
C1073 N1072 1.351 . S
C1073 C1074 1.434 1_545 S
C1074 C1065 1.429 . S
C1074 N1071 1.350 . S
C1074 C1073 1.434 1_565 S
C1075 C1076 1.369 1_556 S
C1075 C1077 1.419 . S
C1075 H1079 0.930 . S
C1076 C1075 1.369 1_554 S
C1076 C1085 1.429 . S
C1077 C1075 1.419 . S
C1077 C1078 1.363 . S
C1077 H1080 0.929 . S
C1078 C1077 1.363 . S
C1078 C1084 1.428 1_556 S
H1079 C1075 0.930 . S
H1080 C1077 0.929 . S
S1081 N1082 1.613 . S
S1081 N1083 1.610 . S
N1082 S1081 1.613 . S
N1082 C1085 1.350 . S
N1083 S1081 1.610 . S
N1083 C1084 1.351 . S
C1084 C1078 1.428 1_554 S
C1084 N1083 1.351 . S
C1084 C1085 1.434 . S
C1085 C1076 1.429 . S
C1085 N1082 1.350 . S
C1085 C1084 1.434 . S
C1086 C1087 1.373 . S
C1086 C1088 1.419 1_545 S
C1086 H1090 0.926 1_655 S
C1087 C1086 1.373 . S
C1087 C1096 1.429 . S
C1088 C1086 1.419 1_565 S
C1088 C1089 1.366 . S
C1088 H1091 0.927 1_655 S
C1089 C1088 1.366 . S
C1089 C1095 1.428 . S
H1090 C1086 0.926 1_455 S
H1091 C1088 0.927 1_455 S
S1092 N1093 1.613 1_565 S
S1092 N1094 1.610 . S
N1093 S1092 1.613 1_545 S
N1093 C1096 1.350 . S
N1094 S1092 1.610 . S
N1094 C1095 1.351 . S
C1095 C1089 1.428 . S
C1095 N1094 1.351 . S
C1095 C1096 1.434 1_565 S
C1096 C1087 1.429 . S
C1096 N1093 1.350 . S
C1096 C1095 1.434 1_545 S
C1097 C1098 1.369 . S
C1097 C1099 1.419 . S
C1097 H1101 0.930 . S
C1098 C1097 1.369 . S
C1098 C1107 1.429 . S
C1099 C1097 1.419 . S
C1099 C1100 1.363 . S
C1099 H1102 0.929 . S
C1100 C1099 1.363 . S
C1100 C1106 1.428 . S
H1101 C1097 0.930 . S
H1102 C1099 0.929 . S
S1103 N1104 1.613 . S
S1103 N1105 1.610 . S
N1104 S1103 1.613 . S
N1104 C1107 1.350 . S
N1105 S1103 1.610 . S
N1105 C1106 1.351 . S
C1106 C1100 1.428 . S
C1106 N1105 1.351 . S
C1106 C1107 1.434 . S
C1107 C1098 1.429 . S
C1107 N1104 1.350 . S
C1107 C1106 1.434 . S
C1108 C1109 1.369 . S
C1108 C1110 1.419 1_545 S
C1108 H1112 0.930 . S
C1109 C1108 1.369 . S
C1109 C1118 1.429 . S
C1110 C1108 1.419 1_565 S
C1110 C1111 1.363 . S
C1110 H1113 0.929 . S
C1111 C1110 1.363 . S
C1111 C1117 1.428 . S
H1112 C1108 0.930 . S
H1113 C1110 0.929 . S
S1114 N1115 1.613 . S
S1114 N1116 1.610 1_545 S
N1115 S1114 1.613 . S
N1115 C1118 1.350 . S
N1116 S1114 1.610 1_565 S
N1116 C1117 1.351 . S
C1117 C1111 1.428 . S
C1117 N1116 1.351 . S
C1117 C1118 1.434 1_565 S
C1118 C1109 1.429 . S
C1118 N1115 1.350 . S
C1118 C1117 1.434 1_545 S
C1119 C1120 1.369 . S
C1119 C1121 1.419 . S
C1119 H1123 0.930 . S
C1120 C1119 1.369 . S
C1120 C1129 1.429 1_554 S
C1121 C1119 1.419 . S
C1121 C1122 1.363 1_554 S
C1121 H1124 0.929 . S
C1122 C1121 1.363 1_556 S
C1122 C1128 1.428 . S
H1123 C1119 0.930 . S
H1124 C1121 0.929 . S
S1125 N1126 1.613 . S
S1125 N1127 1.610 . S
N1126 S1125 1.613 . S
N1126 C1129 1.350 . S
N1127 S1125 1.610 . S
N1127 C1128 1.351 . S
C1128 C1122 1.428 . S
C1128 N1127 1.351 . S
C1128 C1129 1.434 . S
C1129 C1120 1.429 1_556 S
C1129 N1126 1.350 . S
C1129 C1128 1.434 . S
C1130 C1131 1.369 . S
C1130 C1132 1.419 1_545 S
C1130 H1134 0.930 . S
C1131 C1130 1.369 . S
C1131 C1140 1.429 . S
C1132 C1130 1.419 1_565 S
C1132 C1133 1.363 . S
C1132 H1135 0.929 . S
C1133 C1132 1.363 . S
C1133 C1139 1.428 . S
H1134 C1130 0.930 . S
H1135 C1132 0.929 . S
S1136 N1137 1.613 . S
S1136 N1138 1.610 1_545 S
N1137 S1136 1.613 . S
N1137 C1140 1.350 . S
N1138 S1136 1.610 1_565 S
N1138 C1139 1.351 . S
C1139 C1133 1.428 . S
C1139 N1138 1.351 . S
C1139 C1140 1.434 1_565 S
C1140 C1131 1.429 . S
C1140 N1137 1.350 . S
C1140 C1139 1.434 1_545 S
C1141 C1142 1.369 . S
C1141 C1143 1.419 . S
C1141 H1145 0.930 . S
C1142 C1141 1.369 . S
C1142 C1151 1.429 . S
C1143 C1141 1.419 . S
C1143 C1144 1.363 . S
C1143 H1146 0.929 . S
C1144 C1143 1.363 . S
C1144 C1150 1.428 . S
H1145 C1141 0.930 . S
H1146 C1143 0.929 . S
S1147 N1148 1.613 . S
S1147 N1149 1.610 . S
N1148 S1147 1.613 . S
N1148 C1151 1.350 . S
N1149 S1147 1.610 . S
N1149 C1150 1.351 . S
C1150 C1144 1.428 . S
C1150 N1149 1.351 . S
C1150 C1151 1.434 . S
C1151 C1142 1.429 . S
C1151 N1148 1.350 . S
C1151 C1150 1.434 . S
C449 C12 1.581 . S
C451 C306 1.578 . S
C460 C320 1.582 . S
C462 C26 1.577 . S
C471 C40 1.582 . S
C473 C334 1.576 . S
C482 C292 1.576 . S
C484 C54 1.581 . S
C493 C68 1.580 . S
C495 C278 1.579 . S
C504 C82 1.576 . S
C506 C236 1.581 . S
C515 C250 1.576 . S
C517 C96 1.582 . S
C526 C110 1.577 . S
C528 C264 1.581 . S
C537 C124 1.581 . S
C539 C418 1.579 . S
C548 C138 1.580 . S
C550 C432 1.579 . S
C559 C446 1.578 . S
C561 C152 1.580 . S
C570 C404 1.580 . S
C572 C166 1.579 . S
C581 C180 1.580 . S
C583 C390 1.579 . S
C592 C348 1.576 . S
C594 C194 1.581 . S
C603 C208 1.581 . S
C605 C362 1.577 . S
C614 C376 1.576 . S
C616 C222 1.580 . S
C625 C4 1.187 . S
C627 C131 1.134 . S
C636 C18 1.188 . S
C638 C369 1.138 . S
C647 C159 1.138 . S
C649 C32 1.188 . S
C658 C46 1.188 . S
C660 C341 1.138 . S
C669 C60 1.187 . S
C671 C215 1.136 . S
C680 C397 1.139 . S
C682 C74 1.188 . S
C691 C187 1.139 . S
C693 C88 1.187 . S
C702 C425 1.136 . S
C704 C102 1.187 . S
C713 C116 1.188 . S
C715 C19 1.138 . S
C724 C257 1.134 . S
C726 C130 1.187 . S
C735 C47 1.139 . S
C737 C144 1.187 . S
C746 C158 1.189 . S
C748 C229 1.127 . S
C757 C103 1.126 . S
C759 C172 1.189 . S
C768 C285 1.137 . S
C770 C186 1.189 . S
C779 C75 1.126 . S
C781 C200 1.189 . S
C790 C214 1.189 . S
C792 C313 1.127 . S
C801 C355 1.126 . S
C803 C228 1.188 . S
C812 C145 1.134 . S
C814 C242 1.187 . S
C823 C383 1.126 . S
C825 C256 1.189 . S
C834 C270 1.189 . S
C836 C117 1.136 . S
C845 C439 1.132 . S
C847 C284 1.189 . S
C856 C173 1.133 . S
C858 C298 1.189 . S
C867 C411 1.137 . S
C869 C312 1.187 . S
C878 C326 1.189 . S
C880 C201 1.134 . S
C889 C340 1.188 . S
C891 C243 1.137 . S
C900 C33 1.134 . S
C902 C354 1.189 . S
C911 C368 1.189 . S
C913 C271 1.127 . S
C922 C382 1.189 . S
C924 C5 1.129 . S
C933 C396 1.189 . S
C935 C327 1.132 . S
C944 C61 1.127 . S
C946 C410 1.188 . S
C955 C299 1.135 . S
C957 C424 1.187 . S
C966 C438 1.189 . S
C968 C89 1.128 . S
C977 C11 1.263 . S
C979 C67 1.256 . S
C988 C25 1.255 . S
C990 C81 1.262 . S
C999 C95 1.258 . S
C1001 C39 1.264 . S
C1010 C109 1.263 . S
C1012 C53 1.262 . S
C1021 C179 1.262 . S
C1023 C123 1.263 . S
C1032 C193 1.261 . S
C1034 C137 1.256 . S
C1043 C207 1.261 . S
C1045 C151 1.256 . S
C1054 C221 1.263 . S
C1056 C165 1.257 . S
C1065 C235 1.261 . S
C1067 C291 1.256 . S
C1076 C249 1.263 . S
C1078 C305 1.261 . S
C1087 C263 1.260 . S
C1089 C319 1.256 . S
C1098 C333 1.264 . S
C1100 C277 1.257 . S
C1109 C347 1.259 . S
C1111 C403 1.264 . S
C1120 C417 1.258 . S
C1122 C361 1.263 . S
C1131 C431 1.255 . S
C1133 C375 1.262 . S
C1142 C445 1.255 . S
C1144 C389 1.260 . S
