# Generated by pormake.
# Topology umz, (4)-cn, num edge types: 1
# Building blocks:
#     Node 0, Type 0, BuildingBlock: ICAMEG_clean_sbu_1, # of connection points: 4
#     Node 1, Type 0, BuildingBlock: ICAMEG_clean_sbu_1, # of connection points: 4
#     Node 2, Type 0, BuildingBlock: ICAMEG_clean_sbu_1, # of connection points: 4
#     Node 3, Type 0, BuildingBlock: ICAMEG_clean_sbu_1, # of connection points: 4
#     Node 4, Type 0, BuildingBlock: ICAMEG_clean_sbu_1, # of connection points: 4
#     Node 5, Type 0, BuildingBlock: ICAMEG_clean_sbu_1, # of connection points: 4
#     Node 6, Type 0, BuildingBlock: ICAMEG_clean_sbu_1, # of connection points: 4
#     Node 7, Type 0, BuildingBlock: ICAMEG_clean_sbu_1, # of connection points: 4
#     Node 8, Type 0, BuildingBlock: ICAMEG_clean_sbu_1, # of connection points: 4
#     Node 9, Type 0, BuildingBlock: ICAMEG_clean_sbu_1, # of connection points: 4
#     Node 10, Type 0, BuildingBlock: ICAMEG_clean_sbu_1, # of connection points: 4
#     Node 11, Type 0, BuildingBlock: ICAMEG_clean_sbu_1, # of connection points: 4
#     Node 12, Type 0, BuildingBlock: ICAMEG_clean_sbu_1, # of connection points: 4
#     Node 13, Type 0, BuildingBlock: ICAMEG_clean_sbu_1, # of connection points: 4
#     Node 14, Type 0, BuildingBlock: ICAMEG_clean_sbu_1, # of connection points: 4
#     Node 15, Type 0, BuildingBlock: ICAMEG_clean_sbu_1, # of connection points: 4
#     Edge 16, Type (0, 0), BuildingBlock: XUDNAN_clean_linker_2, # of connection points: 2
#     Edge 17, Type (0, 0), BuildingBlock: XUDNAN_clean_linker_2, # of connection points: 2
#     Edge 18, Type (0, 0), BuildingBlock: XUDNAN_clean_linker_2, # of connection points: 2
#     Edge 19, Type (0, 0), BuildingBlock: XUDNAN_clean_linker_2, # of connection points: 2
#     Edge 20, Type (0, 0), BuildingBlock: XUDNAN_clean_linker_2, # of connection points: 2
#     Edge 21, Type (0, 0), BuildingBlock: XUDNAN_clean_linker_2, # of connection points: 2
#     Edge 22, Type (0, 0), BuildingBlock: XUDNAN_clean_linker_2, # of connection points: 2
#     Edge 23, Type (0, 0), BuildingBlock: XUDNAN_clean_linker_2, # of connection points: 2
#     Edge 24, Type (0, 0), BuildingBlock: XUDNAN_clean_linker_2, # of connection points: 2
#     Edge 25, Type (0, 0), BuildingBlock: XUDNAN_clean_linker_2, # of connection points: 2
#     Edge 26, Type (0, 0), BuildingBlock: XUDNAN_clean_linker_2, # of connection points: 2
#     Edge 27, Type (0, 0), BuildingBlock: XUDNAN_clean_linker_2, # of connection points: 2
#     Edge 28, Type (0, 0), BuildingBlock: XUDNAN_clean_linker_2, # of connection points: 2
#     Edge 29, Type (0, 0), BuildingBlock: XUDNAN_clean_linker_2, # of connection points: 2
#     Edge 30, Type (0, 0), BuildingBlock: XUDNAN_clean_linker_2, # of connection points: 2
#     Edge 31, Type (0, 0), BuildingBlock: XUDNAN_clean_linker_2, # of connection points: 2
#     Edge 32, Type (0, 0), BuildingBlock: XUDNAN_clean_linker_2, # of connection points: 2
#     Edge 33, Type (0, 0), BuildingBlock: XUDNAN_clean_linker_2, # of connection points: 2
#     Edge 34, Type (0, 0), BuildingBlock: XUDNAN_clean_linker_2, # of connection points: 2
#     Edge 35, Type (0, 0), BuildingBlock: XUDNAN_clean_linker_2, # of connection points: 2
#     Edge 36, Type (0, 0), BuildingBlock: XUDNAN_clean_linker_2, # of connection points: 2
#     Edge 37, Type (0, 0), BuildingBlock: XUDNAN_clean_linker_2, # of connection points: 2
#     Edge 38, Type (0, 0), BuildingBlock: XUDNAN_clean_linker_2, # of connection points: 2
#     Edge 39, Type (0, 0), BuildingBlock: XUDNAN_clean_linker_2, # of connection points: 2
#     Edge 40, Type (0, 0), BuildingBlock: XUDNAN_clean_linker_2, # of connection points: 2
#     Edge 41, Type (0, 0), BuildingBlock: XUDNAN_clean_linker_2, # of connection points: 2
#     Edge 42, Type (0, 0), BuildingBlock: XUDNAN_clean_linker_2, # of connection points: 2
#     Edge 43, Type (0, 0), BuildingBlock: XUDNAN_clean_linker_2, # of connection points: 2
#     Edge 44, Type (0, 0), BuildingBlock: XUDNAN_clean_linker_2, # of connection points: 2
#     Edge 45, Type (0, 0), BuildingBlock: XUDNAN_clean_linker_2, # of connection points: 2
#     Edge 46, Type (0, 0), BuildingBlock: XUDNAN_clean_linker_2, # of connection points: 2
#     Edge 47, Type (0, 0), BuildingBlock: XUDNAN_clean_linker_2, # of connection points: 2
# Relax obj value: 0.211
# Max RMSD: 0.186
# Mean RMSD: 0.167
data_MOF--net-umz--node1-ICAMEG_clean_sbu_1--edge1-XUDNAN_clean_linker_2
_symmetry_space_group_name_H-M    P1
_symmetry_Int_Tables_number       1
_symmetry_cell_setting            triclinic
loop_
_symmetry_equiv_pos_as_xyz
'x, y, z'
_cell_length_a     60.307667
_cell_length_b     60.301481
_cell_length_c     24.26726
_cell_angle_alpha  89.537048
_cell_angle_beta   90.516865
_cell_angle_gamma 89.731775
loop_
_atom_site_label
_atom_site_type_symbol
_atom_site_fract_x
_atom_site_fract_y
_atom_site_fract_z
_atom_type_partial_charge
Co0 Co 0.99522 0.58406 0.0065 0.0
Co1 Co 0.00414 0.63586 0.06471 0.0
O2 O 0.99966 0.61631 1.00134 0.0
C3 C 0.03422 0.58934 0.93378 0.0
O4 O 0.04187 0.60427 0.96803 0.0
C5 C 0.96819 0.66912 0.05113 0.0
O6 O 0.96042 0.66207 0.09849 0.0
O7 O 0.97821 0.62238 0.103 0.0
O8 O 0.9737 0.58829 0.06714 0.0
H9 H 0.00955 0.65338 0.26646 0.0
H10 H 0.98961 0.60755 0.89929 0.0
O11 O 0.01626 0.57925 0.94428 0.0
H12 H 0.91795 0.57113 0.93375 0.0
H13 H 0.9867 0.50727 0.92925 0.0
H14 H 0.99098 0.55174 0.09857 0.0
H15 H 0.94887 0.56722 1.00038 0.0
H16 H 0.99038 0.54788 0.92387 0.0
O17 O 0.98445 0.659 0.02894 0.0
H18 H 0.00445 0.62926 0.18579 0.0
H19 H 0.01343 0.68431 0.07809 0.0
H20 H 0.98706 0.51111 0.10585 0.0
H21 H 0.95921 0.61171 0.83125 0.0
H22 H 0.98495 0.48857 0.0208 0.0
H23 H 0.92306 0.59344 0.84832 0.0
O24 O 0.02003 0.58041 0.06159 0.0
H25 H 0.04376 0.66857 0.9022 0.0
H26 H 0.05081 0.64626 0.09749 0.0
H27 H 0.08327 0.66154 0.04942 0.0
H28 H 0.07983 0.67289 0.95108 0.0
H29 H 0.01184 0.65286 0.95166 0.0
H30 H 0.01854 0.70903 0.15756 0.0
H31 H 0.01663 0.69358 0.25261 0.0
O32 O 0.02408 0.61377 0.10109 0.0
C33 C 0.96836 0.60374 0.10005 0.0
C34 C 0.01042 0.66031 0.22526 0.0
C35 C 0.01546 0.69154 0.16415 0.0
N36 N 0.00859 0.65535 0.12727 0.0
C37 C 0.00755 0.64673 0.17942 0.0
C38 C 0.01252 0.67746 0.1193 0.0
C39 C 0.01439 0.68286 0.21746 0.0
C40 C 0.97396 0.59947 0.9069 0.0
N41 N 0.97104 0.58711 0.95368 0.0
C42 C 0.95679 0.60193 0.86828 0.0
C43 C 0.9365 0.59168 0.8779 0.0
C44 C 0.93362 0.57918 0.92583 0.0
C45 C 0.95116 0.57709 0.96351 0.0
C46 C 0.98748 0.51688 0.96665 0.0
C47 C 0.98987 0.54206 0.06137 0.0
C48 C 0.98967 0.53991 0.96387 0.0
N49 N 0.99085 0.5522 0.01089 0.0
C50 C 0.98769 0.51906 0.06574 0.0
C51 C 0.9865 0.50642 0.01799 0.0
C52 C 0.02902 0.59332 0.09667 0.0
C53 C 0.04547 0.6637 0.94506 0.0
C54 C 0.04926 0.65092 0.05457 0.0
C55 C 0.06765 0.65969 0.02764 0.0
C56 C 0.0657 0.66609 0.97248 0.0
N57 N 0.02947 0.64861 0.0274 0.0
C58 C 0.02743 0.65487 0.97334 0.0
Co59 Co 0.91173 1.00079 0.50312 0.0
Co60 Co 0.86708 0.01295 0.58462 0.0
O61 O 0.88058 0.00951 0.51161 0.0
C62 C 0.90261 0.03456 0.41231 0.0
O63 O 0.88219 0.03752 0.42881 0.0
C64 C 0.82474 0.98813 0.5619 0.0
O65 O 0.83111 0.9719 0.59484 0.0
O66 O 0.87497 0.98162 0.60336 0.0
O67 O 0.90933 0.97986 0.56776 0.0
H68 H 0.86396 0.00663 0.79135 0.0
H69 H 0.87897 0.99593 0.41078 0.0
O70 O 0.9156 0.02111 0.43755 0.0
H71 H 0.9131 0.92211 0.43541 0.0
H72 H 0.98119 0.98181 0.39889 0.0
H73 H 0.94878 0.99351 0.58231 0.0
H74 H 0.92448 0.95321 0.49426 0.0
H75 H 0.9415 0.99094 0.4082 0.0
O76 O 0.83774 0.00421 0.55143 0.0
H77 H 0.88106 0.00338 0.70007 0.0
H78 H 0.82384 0.03119 0.62394 0.0
H79 H 0.9885 0.98411 0.57487 0.0
H80 H 0.86731 0.96543 0.35067 0.0
H81 H 0.00494 0.97818 0.48265 0.0
H82 H 0.88439 0.92813 0.36271 0.0
O83 O 0.92089 0.02563 0.55174 0.0
H84 H 0.83657 0.07493 0.4659 0.0
H85 H 0.87388 0.05609 0.64183 0.0
H86 H 0.86577 0.0952 0.61929 0.0
H87 H 0.84692 0.10486 0.53083 0.0
H88 H 0.84528 0.03604 0.48964 0.0
H89 H 0.80588 0.03473 0.71415 0.0
H90 H 0.82596 0.02236 0.79887 0.0
O91 O 0.89578 0.02237 0.61872 0.0
C92 C 0.89388 0.97223 0.59818 0.0
C93 C 0.85487 0.01178 0.75473 0.0
C94 C 0.8223 0.02754 0.71141 0.0
N95 N 0.85318 0.01616 0.65628 0.0
C96 C 0.86445 0.00974 0.70282 0.0
C97 C 0.83246 0.02526 0.66025 0.0
C98 C 0.83359 0.02064 0.75892 0.0
C99 C 0.88677 0.97995 0.41592 0.0
N100 N 0.90275 0.9766 0.4554 0.0
C101 C 0.87997 0.96263 0.3819 0.0
C102 C 0.88952 0.9417 0.38873 0.0
C103 C 0.90563 0.93832 0.42948 0.0
C104 C 0.91201 0.95602 0.46269 0.0
C105 C 0.97419 0.98426 0.43932 0.0
C106 C 0.95577 0.99076 0.54207 0.0
C107 C 0.95174 0.98951 0.44487 0.0
N108 N 0.94277 0.9926 0.49583 0.0
C109 C 0.97829 0.98552 0.5381 0.0
C110 C 0.98751 0.98222 0.48633 0.0
C111 C 0.91395 0.02978 0.59996 0.0
C112 C 0.84482 0.07094 0.50454 0.0
C113 C 0.86591 0.06012 0.60292 0.0
C114 C 0.86125 0.08232 0.59055 0.0
C115 C 0.85065 0.08773 0.54096 0.0
N116 N 0.86026 0.04373 0.56685 0.0
C117 C 0.84977 0.04892 0.51828 0.0
Co118 Co 0.52254 0.89428 0.01513 0.0
Co119 Co 0.50167 0.85007 0.0885 0.0
O120 O 0.5107 0.86414 0.0193 0.0
C121 C 0.48631 0.89981 0.93047 0.0
O122 O 0.47137 0.89588 0.9683 0.0
C123 C 0.53284 0.81582 0.04623 0.0
O124 O 0.5479 0.83129 0.04031 0.0
O125 O 0.53072 0.85713 0.12436 0.0
O126 O 0.5388 0.89007 0.0861 0.0
H127 H 0.49209 0.84521 0.29379 0.0
H128 H 0.52798 0.86371 0.92108 0.0
O129 O 0.50688 0.89924 0.94273 0.0
H130 H 0.60392 0.8839 0.97782 0.0
H131 H 0.55532 0.96031 0.91753 0.0
H132 H 0.52905 0.9307 0.09521 0.0
H133 H 0.57158 0.89942 0.02585 0.0
H134 H 0.54092 0.92219 0.92434 0.0
O135 O 0.51355 0.82081 0.06323 0.0
H136 H 0.5034 0.86275 0.20642 0.0
H137 H 0.48072 0.8068 0.1172 0.0
H138 H 0.54342 0.96886 0.09023 0.0
H139 H 0.55985 0.84793 0.87158 0.0
H140 H 0.55671 0.9839 1.00092 0.0
H141 H 0.59816 0.85799 0.89998 0.0
O142 O 0.49675 0.90643 0.05693 0.0
H143 H 0.45213 0.82277 0.93626 0.0
H144 H 0.45443 0.8559 0.12133 0.0
H145 H 0.41828 0.84854 0.07704 0.0
H146 H 0.41697 0.8318 0.98387 0.0
H147 H 0.48794 0.83058 0.98192 0.0
H148 H 0.46941 0.78854 0.20372 0.0
H149 H 0.47496 0.80783 0.29282 0.0
O150 O 0.4895 0.8786 0.1159 0.0
C151 C 0.54196 0.87501 0.12248 0.0
C152 C 0.48954 0.83665 0.25522 0.0
C153 C 0.47683 0.80484 0.20468 0.0
N154 N 0.49264 0.83586 0.15669 0.0
C155 C 0.49587 0.84652 0.20558 0.0
C156 C 0.48334 0.81523 0.15583 0.0
C157 C 0.47995 0.81568 0.25465 0.0
C158 C 0.54459 0.86829 0.9334 0.0
N159 N 0.54791 0.88255 0.97612 0.0
C160 C 0.56258 0.85925 0.90534 0.0
C161 C 0.58406 0.86488 0.92134 0.0
C162 C 0.58731 0.8794 0.96503 0.0
C163 C 0.56893 0.8881 0.99216 0.0
C164 C 0.54961 0.95393 0.95669 0.0
C165 C 0.53488 0.93707 0.0562 0.0
C166 C 0.54138 0.93237 0.96079 0.0
N167 N 0.53423 0.92417 0.01017 0.0
C168 C 0.54296 0.95872 0.05364 0.0
C169 C 0.55039 0.96716 0.00351 0.0
C170 C 0.48735 0.89868 0.09997 0.0
C171 C 0.45248 0.83001 0.97692 0.0
C172 C 0.45401 0.84869 0.08071 0.0
C173 C 0.43348 0.84451 0.05589 0.0
C174 C 0.43276 0.83511 0.00363 0.0
N175 N 0.47327 0.84358 0.05431 0.0
C176 C 0.4727 0.83441 0.00303 0.0
Co177 Co 0.5815 0.52802 0.47488 0.0
Co178 Co 0.62154 0.49789 0.5475 0.0
O179 O 0.6095 0.51103 0.479 0.0
C180 C 0.57352 0.49329 0.38905 0.0
O181 O 0.58078 0.47778 0.42308 0.0
C182 C 0.66127 0.52277 0.50378 0.0
O183 O 0.64881 0.53792 0.47953 0.0
O184 O 0.61778 0.52646 0.58768 0.0
O185 O 0.58917 0.54353 0.54442 0.0
H186 H 0.62226 0.48174 0.75112 0.0
H187 H 0.61192 0.52739 0.37962 0.0
O188 O 0.57309 0.51345 0.40397 0.0
H189 H 0.60463 0.60617 0.42963 0.0
H190 H 0.52046 0.57047 0.37699 0.0
H191 H 0.54738 0.54111 0.55582 0.0
H192 H 0.58437 0.57732 0.48098 0.0
H193 H 0.55644 0.55104 0.38402 0.0
O194 O 0.65265 0.50633 0.52867 0.0
H195 H 0.60703 0.49699 0.66412 0.0
H196 H 0.66127 0.47012 0.57593 0.0
H197 H 0.51148 0.56081 0.55083 0.0
H198 H 0.63225 0.55571 0.32661 0.0
H199 H 0.49771 0.57548 0.46082 0.0
H200 H 0.62873 0.59542 0.35169 0.0
O201 O 0.565 0.50488 0.51824 0.0
H202 H 0.64472 0.45049 0.38872 0.0
H203 H 0.60938 0.45082 0.57116 0.0
H204 H 0.61278 0.41564 0.52076 0.0
H205 H 0.63059 0.41533 0.42886 0.0
H206 H 0.6408 0.48535 0.44044 0.0
H207 H 0.67687 0.45423 0.66185 0.0
H208 H 0.65735 0.46003 0.75031 0.0
O209 O 0.59149 0.48892 0.5704 0.0
C210 C 0.60359 0.54218 0.58302 0.0
C211 C 0.6309 0.47905 0.71283 0.0
C212 C 0.66157 0.46366 0.66275 0.0
N213 N 0.63332 0.48466 0.61499 0.0
C214 C 0.6224 0.48774 0.66344 0.0
C215 C 0.65266 0.47274 0.61422 0.0
C216 C 0.6506 0.46691 0.71236 0.0
C217 C 0.61021 0.54465 0.39056 0.0
N218 N 0.59705 0.5507 0.43351 0.0
C219 C 0.6218 0.56061 0.36049 0.0
C220 C 0.61984 0.58288 0.37462 0.0
C221 C 0.60635 0.58892 0.4184 0.0
C222 C 0.59502 0.57251 0.44755 0.0
C223 C 0.52628 0.56416 0.41645 0.0
C224 C 0.54164 0.54768 0.51662 0.0
C225 C 0.54661 0.55305 0.42065 0.0
N226 N 0.55401 0.54489 0.47027 0.0
C227 C 0.52125 0.55875 0.51401 0.0
C228 C 0.51353 0.56697 0.4635 0.0
C229 C 0.57125 0.49187 0.55725 0.0
C230 C 0.63698 0.4504 0.42879 0.0
C231 C 0.61709 0.45083 0.53115 0.0
C232 C 0.61902 0.43085 0.50285 0.0
C233 C 0.62902 0.43068 0.45131 0.0
N234 N 0.62498 0.47009 0.50883 0.0
C235 C 0.63479 0.47007 0.45833 0.0
Co236 Co 0.9948 0.90422 0.9785 0.0
Co237 Co 0.01058 0.85694 0.90923 0.0
O238 O 0.00313 0.87267 0.9772 0.0
C239 C 0.03055 0.90025 0.06291 0.0
O240 O 0.04126 0.88749 0.0285 0.0
C241 C 0.97678 0.82673 0.95793 0.0
O242 O 0.9637 0.84386 0.96594 0.0
O243 O 0.98233 0.86694 0.87323 0.0
O244 O 0.97742 0.90091 0.90866 0.0
H245 H 0.01894 0.84923 0.70438 0.0
H246 H 0.98697 0.87561 0.07616 0.0
O247 O 0.01182 0.90848 0.0492 0.0
H248 H 0.91326 0.9044 0.02149 0.0
H249 H 0.97086 0.9753 0.06879 0.0
H250 H 0.9913 0.93989 0.89387 0.0
H251 H 0.9466 0.91534 0.97006 0.0
H252 H 0.98081 0.93559 0.06651 0.0
O253 O 0.99586 0.82943 0.93705 0.0
H254 H 0.00966 0.86865 0.7902 0.0
H255 H 0.02715 0.8114 0.88438 0.0
H256 H 0.98113 0.97954 0.89421 0.0
H257 H 0.95409 0.86437 0.12909 0.0
H258 H 0.97085 0.99751 0.98214 0.0
H259 H 0.9169 0.87876 0.10173 0.0
O260 O 0.0215 0.91266 0.93495 0.0
H261 H 0.05712 0.82449 0.0628 0.0
H262 H 0.05817 0.85738 0.87613 0.0
H263 H 0.09336 0.84605 0.92079 0.0
H264 H 0.09298 0.82943 0.01476 0.0
H265 H 0.02232 0.83629 0.01685 0.0
H266 H 0.03634 0.79127 0.79949 0.0
H267 H 0.03238 0.81025 0.70867 0.0
O268 O 0.02565 0.88358 0.87898 0.0
C269 C 0.97271 0.88585 0.87387 0.0
C270 C 0.02077 0.84079 0.7437 0.0
C271 C 0.03051 0.80826 0.79708 0.0
N272 N 0.01793 0.84121 0.84231 0.0
C273 C 0.01558 0.85172 0.79248 0.0
C274 C 0.0252 0.81972 0.84501 0.0
C275 C 0.0283 0.81892 0.74614 0.0
C276 C 0.97086 0.88207 0.06428 0.0
N277 N 0.96872 0.89617 0.02019 0.0
C278 C 0.9523 0.87559 0.09429 0.0
C279 C 0.93143 0.88365 0.07887 0.0
C280 C 0.92938 0.89802 0.03383 0.0
C281 C 0.94831 0.90411 0.00476 0.0
C282 C 0.97526 0.96764 0.0302 0.0
C283 C 0.98668 0.94753 0.93226 0.0
C284 C 0.98098 0.94517 0.02867 0.0
N285 N 0.98652 0.93537 0.98005 0.0
C286 C 0.981 0.97002 0.9322 0.0
C287 C 0.97523 0.98009 0.98156 0.0
C288 C 0.03002 0.90339 0.89297 0.0
C289 C 0.0575 0.83165 0.02178 0.0
C290 C 0.05786 0.85027 0.91714 0.0
C291 C 0.07784 0.84382 0.94214 0.0
C292 C 0.07762 0.83447 0.99485 0.0
N293 N 0.0382 0.84745 0.94382 0.0
C294 C 0.03784 0.83827 0.99546 0.0
Co295 Co 0.57492 0.98713 0.4984 0.0
Co296 Co 0.62269 0.006 0.43892 0.0
O297 O 0.60501 0.999 0.50425 0.0
C298 C 0.56805 0.02423 0.57866 0.0
O299 O 0.57782 0.03833 0.54536 0.0
C300 C 0.66538 0.98376 0.47111 0.0
O301 O 0.66239 0.96944 0.43132 0.0
O302 O 0.61918 0.97495 0.41279 0.0
O303 O 0.58336 0.96877 0.43322 0.0
H304 H 0.64033 0.00548 0.23686 0.0
H305 H 0.60069 0.98342 0.60259 0.0
O306 O 0.56581 0.00406 0.56506 0.0
H307 H 0.57891 0.90692 0.55743 0.0
H308 H 0.5028 0.95868 0.57297 0.0
H309 H 0.54341 0.98012 0.40561 0.0
H310 H 0.56763 0.93821 0.49719 0.0
H311 H 0.54158 0.97068 0.57912 0.0
O312 O 0.65033 0.99801 0.48193 0.0
H313 H 0.61807 0.99753 0.31929 0.0
H314 H 0.66555 0.02965 0.42043 0.0
H315 H 0.50438 0.96829 0.39753 0.0
H316 H 0.6122 0.95266 0.66429 0.0
H317 H 0.48371 0.95761 0.4817 0.0
H318 H 0.60132 0.91407 0.64178 0.0
O319 O 0.56606 0.01241 0.44917 0.0
H320 H 0.63666 0.06476 0.58056 0.0
H321 H 0.61668 0.05068 0.38652 0.0
H322 H 0.61903 0.08919 0.41931 0.0
H323 H 0.62914 0.09644 0.51695 0.0
H324 H 0.63392 0.02649 0.5462 0.0
H325 H 0.68851 0.03783 0.33934 0.0
H326 H 0.67591 0.02575 0.24662 0.0
O327 O 0.5958 0.01475 0.39492 0.0
C328 C 0.60144 0.96356 0.4094 0.0
C329 C 0.64609 0.01071 0.27706 0.0
C330 C 0.67312 0.02886 0.33457 0.0
N331 N 0.64066 0.01272 0.37481 0.0
C332 C 0.63357 0.00616 0.32391 0.0
C333 C 0.66012 0.02404 0.38044 0.0
C334 C 0.66603 0.0221 0.28256 0.0
C335 C 0.59591 0.96667 0.59254 0.0
N336 N 0.58362 0.96258 0.54619 0.0
C337 C 0.60247 0.94932 0.62762 0.0
C338 C 0.59636 0.92768 0.61497 0.0
C339 C 0.5838 0.92365 0.56764 0.0
C340 C 0.57754 0.94141 0.53355 0.0
C341 C 0.5115 0.96331 0.53593 0.0
C342 C 0.53458 0.97529 0.44233 0.0
C343 C 0.53354 0.97015 0.5392 0.0
N344 N 0.54482 0.97601 0.49274 0.0
C345 C 0.51247 0.96866 0.43752 0.0
C346 C 0.50087 0.96268 0.48475 0.0
C347 C 0.57562 0.01918 0.40547 0.0
C348 C 0.63232 0.06182 0.53788 0.0
C349 C 0.62103 0.05367 0.42912 0.0
C350 C 0.62238 0.07553 0.44741 0.0
C351 C 0.62806 0.07958 0.50219 0.0
N352 N 0.6253 0.03633 0.46434 0.0
C353 C 0.63083 0.04018 0.51813 0.0
Co354 Co 0.51922 0.57213 0.00323 0.0
Co355 Co 0.49793 0.62342 0.96432 0.0
O356 O 0.50998 0.60263 0.01943 0.0
C357 C 0.4876 0.56671 0.09547 0.0
O358 O 0.47366 0.57954 0.06801 0.0
C359 C 0.53483 0.65438 0.9962 0.0
O360 O 0.54968 0.64096 0.97524 0.0
O361 O 0.52298 0.61719 0.91305 0.0
O362 O 0.53291 0.58208 0.93339 0.0
H363 H 0.47548 0.64789 0.77327 0.0
H364 H 0.53079 0.59243 0.11063 0.0
O365 O 0.50612 0.56149 0.07434 0.0
H366 H 0.60232 0.57286 0.02655 0.0
H367 H 0.5528 0.49744 0.04906 0.0
H368 H 0.51965 0.54445 0.90288 0.0
H369 H 0.56713 0.56479 0.97853 0.0
H370 H 0.53941 0.53516 0.06995 0.0
O371 O 0.51454 0.64867 0.99865 0.0
H372 H 0.49003 0.62176 0.8436 0.0
H373 H 0.48037 0.66981 0.96828 0.0
H374 H 0.53186 0.5065 0.88089 0.0
H375 H 0.5656 0.60055 0.16043 0.0
H376 H 0.54861 0.4827 0.95438 0.0
H377 H 0.6017 0.59078 0.11834 0.0
O378 O 0.49085 0.56586 0.96204 0.0
H379 H 0.46388 0.63921 0.14811 0.0
H380 H 0.44873 0.62654 0.95098 0.0
H381 H 0.41748 0.63252 0.01412 0.0
H382 H 0.42499 0.63892 0.11354 0.0
H383 H 0.49458 0.6329 0.08349 0.0
H384 H 0.46605 0.69655 0.89924 0.0
H385 H 0.46341 0.68561 0.80092 0.0
O386 O 0.4806 0.59933 0.92899 0.0
C387 C 0.53423 0.5996 0.90399 0.0
C388 C 0.4765 0.65284 0.81599 0.0
C389 C 0.47123 0.68016 0.88666 0.0
N390 N 0.486 0.6442 0.91006 0.0
C391 C 0.48467 0.63809 0.85603 0.0
C392 C 0.47945 0.66496 0.92557 0.0
C393 C 0.46975 0.674 0.83152 0.0
C394 C 0.54642 0.58799 0.09217 0.0
N395 N 0.5469 0.57806 0.04177 0.0
C396 C 0.56609 0.59269 0.12051 0.0
C397 C 0.58634 0.58723 0.09684 0.0
C398 C 0.5867 0.57719 0.04534 0.0
C399 C 0.56671 0.57275 0.01821 0.0
C400 C 0.54518 0.50752 0.017 0.0
C401 C 0.52661 0.5341 0.93527 0.0
C402 C 0.53763 0.52891 0.02851 0.0
N403 N 0.52869 0.542 0.9877 0.0
C404 C 0.53358 0.51264 0.9225 0.0
C405 C 0.54297 0.4993 0.96373 0.0
C406 C 0.47855 0.57833 0.93161 0.0
C407 C 0.46039 0.63641 0.1049 0.0
C408 C 0.45208 0.62908 0.99419 0.0
C409 C 0.43435 0.63259 0.02974 0.0
C410 C 0.43857 0.63622 0.08549 0.0
N411 N 0.47342 0.62918 0.01356 0.0
C412 C 0.4777 0.63288 0.0681 0.0
Co413 Co 0.91033 0.52155 0.50673 0.0
Co414 Co 0.86479 0.49868 0.44252 0.0
O415 O 0.88014 0.50977 0.50819 0.0
C416 C 0.9149 0.48782 0.59702 0.0
O417 O 0.90737 0.47259 0.56341 0.0
C418 C 0.82176 0.52264 0.44445 0.0
O419 O 0.82599 0.52912 0.39382 0.0
O420 O 0.87075 0.52695 0.40203 0.0
O421 O 0.90457 0.53597 0.43395 0.0
H422 H 0.85553 0.48438 0.23984 0.0
H423 H 0.88166 0.52967 0.60312 0.0
O424 O 0.91681 0.5078 0.58055 0.0
H425 H 0.90192 0.60387 0.53364 0.0
H426 H 0.97908 0.55512 0.59041 0.0
H427 H 0.9448 0.52586 0.42087 0.0
H428 H 0.91584 0.57019 0.48825 0.0
H429 H 0.94049 0.54175 0.5907 0.0
O430 O 0.83609 0.5111 0.47137 0.0
H431 H 0.87438 0.49851 0.32286 0.0
H432 H 0.8221 0.47473 0.42316 0.0
H433 H 0.98332 0.53928 0.41864 0.0
H434 H 0.86752 0.56292 0.65015 0.0
H435 H 1.00077 0.55394 0.50393 0.0
H436 H 0.87764 0.60035 0.61536 0.0
O437 O 0.92151 0.49458 0.46822 0.0
H438 H 0.84179 0.45267 0.60562 0.0
H439 H 0.87128 0.45072 0.41684 0.0
H440 H 0.86582 0.41567 0.46785 0.0
H441 H 0.85092 0.4165 0.56291 0.0
H442 H 0.84771 0.48735 0.55332 0.0
H443 H 0.80261 0.46042 0.34111 0.0
H444 H 0.81935 0.46519 0.24864 0.0
O445 O 0.89288 0.48623 0.41266 0.0
C446 C 0.88857 0.53828 0.39967 0.0
C447 C 0.84805 0.48222 0.2799 0.0
C448 C 0.81836 0.46877 0.33674 0.0
N449 N 0.84935 0.4875 0.37784 0.0
C450 C 0.85865 0.49019 0.32708 0.0
C451 C 0.82946 0.47692 0.38303 0.0
C452 C 0.82776 0.47145 0.28487 0.0
C453 C 0.88621 0.54591 0.58791 0.0
N454 N 0.8996 0.54799 0.54308 0.0
C455 C 0.87812 0.56467 0.61462 0.0
C456 C 0.88378 0.58567 0.59506 0.0
C457 C 0.89739 0.58766 0.54919 0.0
C458 C 0.90517 0.56852 0.52353 0.0
C459 C 0.97166 0.54878 0.55298 0.0
C460 C 0.95218 0.5324 0.45806 0.0
C461 C 0.94983 0.54113 0.55292 0.0
N462 N 0.94035 0.53308 0.50581 0.0
C463 C 0.97404 0.53991 0.45657 0.0
C464 C 0.98382 0.54812 0.50444 0.0
C465 C 0.9132 0.48442 0.42697 0.0
C466 C 0.84821 0.45209 0.56415 0.0
C467 C 0.86485 0.45124 0.45824 0.0
C468 C 0.86174 0.43133 0.48687 0.0
C469 C 0.85337 0.4318 0.54019 0.0
N470 N 0.85965 0.47107 0.48193 0.0
C471 C 0.85151 0.47167 0.53425 0.0
Co472 Co 0.01862 0.41997 0.01238 0.0
Co473 Co 0.99687 0.37381 0.94874 0.0
O474 O 0.00725 0.38956 0.01442 0.0
C475 C 0.98372 0.42373 0.0987 0.0
O476 O 0.96912 0.41539 0.06424 0.0
C477 C 0.02925 0.34095 0.99468 0.0
O478 O 0.04414 0.35674 0.99708 0.0
O479 O 0.02507 0.38036 0.90951 0.0
O480 O 0.03441 0.41399 0.94211 0.0
H481 H 0.98316 0.36395 0.74578 0.0
H482 H 0.02573 0.39158 0.11137 0.0
O483 O 0.0037 0.42651 0.08389 0.0
H484 H 0.10055 0.41265 0.05023 0.0
H485 H 0.04938 0.48973 0.09615 0.0
H486 H 0.0236 0.4542 0.92499 0.0
H487 H 0.06735 0.4263 1.00024 0.0
H488 H 0.03702 0.4508 0.09701 0.0
O489 O 0.0096 0.34531 0.97822 0.0
H490 H 0.99603 0.38362 0.82866 0.0
H491 H 0.97581 0.32978 0.93 0.0
H492 H 0.03616 0.49306 0.92214 0.0
H493 H 0.05848 0.3777 0.16288 0.0
H494 H 0.04902 0.51112 0.00823 0.0
H495 H 0.09622 0.38819 0.13227 0.0
O496 O 0.99205 0.43068 0.96971 0.0
H497 H 0.95089 0.34966 0.10979 0.0
H498 H 0.94892 0.37849 0.91904 0.0
H499 H 0.91382 0.37188 0.96775 0.0
H500 H 0.91467 0.35732 0.0638 0.0
H501 H 0.98561 0.35667 0.05967 0.0
H502 H 0.96297 0.30938 0.84814 0.0
H503 H 0.96649 0.32652 0.75521 0.0
O504 O 0.9838 0.40144 0.91705 0.0
C505 C 0.03685 0.39789 0.90896 0.0
C506 C 0.9815 0.35631 0.78604 0.0
C507 C 0.97019 0.32568 0.84349 0.0
N508 N 0.98661 0.35792 0.88416 0.0
C509 C 0.98874 0.36739 0.83315 0.0
C510 C 0.97757 0.33728 0.88969 0.0
C511 C 0.97216 0.33531 0.79137 0.0
C512 C 0.0421 0.39633 0.09803 0.0
N513 N 0.04463 0.40977 0.05295 0.0
C514 C 0.06058 0.38837 0.12726 0.0
C515 C 0.08175 0.39425 0.11003 0.0
C516 C 0.0842 0.40797 0.064 0.0
C517 C 0.06534 0.4156 0.03579 0.0
C518 C 0.04386 0.48202 0.05834 0.0
C519 C 0.02946 0.46184 0.96251 0.0
C520 C 0.03678 0.45999 0.05859 0.0
N521 N 0.0297 0.45017 0.01103 0.0
C522 C 0.03649 0.48387 0.96066 0.0
C523 C 0.04369 0.49401 0.00899 0.0
C524 C 0.98182 0.42184 0.92921 0.0
C525 C 0.9503 0.35594 0.06789 0.0
C526 C 0.94943 0.37221 0.96088 0.0
C527 C 0.9295 0.36845 0.98821 0.0
C528 C 0.92999 0.36027 0.04209 0.0
N529 N 0.96929 0.36786 0.98643 0.0
C530 C 0.9699 0.35987 0.03926 0.0
Co531 Co 0.09753 0.00106 0.47177 0.0
Co532 Co 0.14286 0.97964 0.40252 0.0
O533 O 0.12838 0.99001 0.4701 0.0
C534 C 0.09558 0.96621 0.56048 0.0
O535 O 0.10266 0.95113 0.52598 0.0
C536 C 0.17841 0.00749 0.45889 0.0
O537 O 0.16472 0.01517 0.49591 0.0
O538 O 0.13391 0.00725 0.36201 0.0
O539 O 0.10153 0.0167 0.4004 0.0
H540 H 0.14614 0.9649 0.19927 0.0
H541 H 0.12679 0.00831 0.56888 0.0
O542 O 0.09281 0.98619 0.54462 0.0
H543 H 0.10432 0.08308 0.50566 0.0
H544 H 0.02964 0.03277 0.56261 0.0
H545 H 0.0615 0.00637 0.38851 0.0
H546 H 0.09077 0.04989 0.45762 0.0
H547 H 0.06828 0.01927 0.55966 0.0
O548 O 0.17181 0.99395 0.42234 0.0
H549 H 0.12884 0.97742 0.28536 0.0
H550 H 0.18713 0.9601 0.37577 0.0
H551 H 0.02291 0.02002 0.3895 0.0
H552 H 0.14044 0.04106 0.61879 0.0
H553 H 0.00672 0.03331 0.47705 0.0
H554 H 0.1293 0.07879 0.58706 0.0
O555 O 0.08622 0.97443 0.43145 0.0
H556 H 0.17287 0.93609 0.56457 0.0
H557 H 0.14152 0.93139 0.37673 0.0
H558 H 0.15146 0.89704 0.42704 0.0
H559 H 0.16733 0.89925 0.52164 0.0
H560 H 0.16246 0.96998 0.51302 0.0
H561 H 0.20512 0.9476 0.29055 0.0
H562 H 0.18456 0.94988 0.20151 0.0
O563 O 0.1151 0.96475 0.37879 0.0
C564 C 0.11629 0.01901 0.36367 0.0
C565 C 0.15524 0.96376 0.23783 0.0
C566 C 0.18836 0.95409 0.28905 0.0
N567 N 0.15689 0.96936 0.33563 0.0
C568 C 0.14551 0.97077 0.28675 0.0
C569 C 0.1781 0.96124 0.33716 0.0
C570 C 0.17681 0.95536 0.23911 0.0
C571 C 0.12173 0.02466 0.55504 0.0
N572 N 0.10809 0.02716 0.51013 0.0
C573 C 0.12957 0.04315 0.58337 0.0
C574 C 0.12334 0.06431 0.5655 0.0
C575 C 0.10937 0.06674 0.51979 0.0
C576 C 0.10185 0.04787 0.49248 0.0
C577 C 0.03653 0.02704 0.5242 0.0
C578 C 0.05464 0.01222 0.42673 0.0
C579 C 0.05838 0.01928 0.52231 0.0
N580 N 0.0672 0.01205 0.47392 0.0
C581 C 0.03275 0.01991 0.42704 0.0
C582 C 0.02368 0.02737 0.47617 0.0
C583 C 0.09497 0.963 0.39323 0.0
C584 C 0.16606 0.9349 0.52329 0.0
C585 C 0.14837 0.93251 0.41791 0.0
C586 C 0.15401 0.91299 0.44616 0.0
C587 C 0.16292 0.91424 0.49922 0.0
N588 N 0.15159 0.95273 0.44168 0.0
C589 C 0.16023 0.95407 0.49376 0.0
Co590 Co 0.47714 0.1048 0.99419 0.0
Co591 Co 0.50354 0.1472 0.92388 0.0
O592 O 0.49197 0.13352 0.99115 0.0
C593 C 0.51339 0.09355 0.0757 0.0
O594 O 0.52826 0.09552 0.03681 0.0
C595 C 0.47222 0.18225 0.96016 0.0
O596 O 0.45673 0.16706 0.96318 0.0
O597 O 0.47554 0.14118 0.88176 0.0
O598 O 0.46077 0.11159 0.92489 0.0
H599 H 0.51993 0.15237 0.72127 0.0
H600 H 0.47604 0.13452 0.09091 0.0
O601 O 0.49297 0.0973 0.06519 0.0
H602 H 0.39779 0.12359 0.03745 0.0
H603 H 0.43857 0.04151 0.08965 0.0
H604 H 0.46577 0.07036 0.91207 0.0
H605 H 0.42776 0.1052 0.98628 0.0
H606 H 0.4569 0.07793 0.08441 0.0
O607 O 0.49191 0.17685 0.94706 0.0
H608 H 0.50562 0.13476 0.80568 0.0
H609 H 0.52677 0.18974 0.90056 0.0
H610 H 0.44737 0.03396 0.91542 0.0
H611 H 0.44658 0.15308 0.14354 0.0
H612 H 0.43364 0.01929 0.00471 0.0
H613 H 0.40713 0.1477 0.1168 0.0
O614 O 0.50093 0.0904 0.94938 0.0
H615 H 0.54934 0.17299 0.08483 0.0
H616 H 0.55133 0.13905 0.90071 0.0
H617 H 0.58633 0.14506 0.95169 0.0
H618 H 0.58547 0.1622 0.04439 0.0
H619 H 0.51471 0.1665 0.03259 0.0
H620 H 0.54132 0.20795 0.81718 0.0
H621 H 0.53801 0.18921 0.72672 0.0
O622 O 0.51511 0.11819 0.89864 0.0
C623 C 0.46111 0.12584 0.88599 0.0
C624 C 0.52153 0.16067 0.76047 0.0
C625 C 0.5335 0.19188 0.81428 0.0
N626 N 0.51532 0.16117 0.85805 0.0
C627 C 0.51343 0.15077 0.80842 0.0
C628 C 0.52516 0.18151 0.86134 0.0
C629 C 0.53165 0.18135 0.76354 0.0
C630 C 0.4589 0.13195 0.07933 0.0
N631 N 0.45362 0.11869 0.03582 0.0
C632 C 0.4423 0.14257 0.10915 0.0
C633 C 0.42017 0.13956 0.09408 0.0
C634 C 0.41491 0.12605 0.04956 0.0
C635 C 0.43196 0.11571 0.02067 0.0
C636 C 0.44447 0.04773 0.0505 0.0
C637 C 0.45974 0.06416 0.95106 0.0
C638 C 0.45492 0.06832 0.0473 0.0
N639 N 0.46234 0.07632 0.99795 0.0
C640 C 0.44938 0.04351 0.9527 0.0
C641 C 0.4417 0.03528 0.00282 0.0
C642 C 0.51322 0.09769 0.91057 0.0
C643 C 0.54993 0.16556 0.04441 0.0
C644 C 0.55082 0.14644 0.94111 0.0
C645 C 0.57069 0.14985 0.96972 0.0
C646 C 0.5702 0.15948 0.02172 0.0
N647 N 0.53102 0.15253 0.96357 0.0
C648 C 0.53039 0.16191 0.01458 0.0
Co649 Co 0.41379 0.47747 0.52275 0.0
Co650 Co 0.37161 0.50018 0.4406 0.0
O651 O 0.38393 0.4905 0.51222 0.0
C652 C 0.41399 0.51667 0.59595 0.0
O653 O 0.40381 0.52769 0.55621 0.0
C654 C 0.33387 0.47478 0.49457 0.0
O655 O 0.34568 0.46996 0.53874 0.0
O656 O 0.38118 0.47205 0.40539 0.0
O657 O 0.40928 0.45824 0.4571 0.0
H658 H 0.37431 0.51231 0.23558 0.0
H659 H 0.38319 0.47839 0.61778 0.0
O660 O 0.41923 0.49641 0.58927 0.0
H661 H 0.39917 0.39924 0.58636 0.0
H662 H 0.47699 0.4456 0.63565 0.0
H663 H 0.45069 0.46534 0.44852 0.0
H664 H 0.41603 0.42807 0.52775 0.0
H665 H 0.43976 0.4618 0.62107 0.0
O666 O 0.34191 0.48634 0.45546 0.0
H667 H 0.38911 0.50115 0.32666 0.0
H668 H 0.32857 0.51984 0.40189 0.0
H669 H 0.48815 0.44941 0.4614 0.0
H670 H 0.36624 0.45013 0.67795 0.0
H671 H 0.50153 0.43946 0.55558 0.0
H672 H 0.37415 0.41023 0.66228 0.0
O673 O 0.42791 0.50045 0.47433 0.0
H674 H 0.3378 0.54717 0.58894 0.0
H675 H 0.37549 0.54785 0.40954 0.0
H676 H 0.36496 0.58324 0.4523 0.0
H677 H 0.3459 0.58306 0.5426 0.0
H678 H 0.34884 0.51225 0.5451 0.0
H679 H 0.31317 0.53135 0.31156 0.0
H680 H 0.33611 0.52764 0.2276 0.0
O681 O 0.40032 0.51388 0.42107 0.0
C682 C 0.3964 0.45772 0.41514 0.0
C683 C 0.36417 0.51407 0.27187 0.0
C684 C 0.32985 0.52471 0.31451 0.0
N685 N 0.35973 0.50981 0.36963 0.0
C686 C 0.37246 0.50777 0.32361 0.0
C687 C 0.33864 0.51812 0.36554 0.0
C688 C 0.34273 0.52264 0.26742 0.0
C689 C 0.38686 0.46107 0.61099 0.0
N690 N 0.40057 0.45489 0.56925 0.0
C691 C 0.37714 0.44514 0.64505 0.0
C692 C 0.38155 0.42275 0.63618 0.0
C693 C 0.39556 0.41658 0.59354 0.0
C694 C 0.40497 0.43297 0.56028 0.0
C695 C 0.47136 0.44992 0.59447 0.0
C696 C 0.45637 0.461 0.48961 0.0
C697 C 0.45029 0.45911 0.58592 0.0
N698 N 0.443 0.46442 0.53393 0.0
C699 C 0.47761 0.45201 0.49665 0.0
C700 C 0.4851 0.44643 0.54948 0.0
C701 C 0.42067 0.51279 0.43504 0.0
C702 C 0.34594 0.54747 0.54936 0.0
C703 C 0.36716 0.54758 0.44876 0.0
C704 C 0.36123 0.5677 0.47278 0.0
C705 C 0.35053 0.5676 0.52342 0.0
N706 N 0.36243 0.52787 0.4742 0.0
C707 C 0.35208 0.52767 0.52405 0.0
Co708 Co 0.01017 0.09779 0.00166 0.0
Co709 Co 0.00351 0.14449 0.08195 0.0
O710 O 0.00548 0.12989 0.00975 0.0
C711 C 0.97726 0.11032 0.91106 0.0
O712 O 0.97704 0.13129 0.92499 0.0
C713 C 0.03618 0.18077 0.06911 0.0
O714 O 0.0475 0.17164 0.10988 0.0
O715 O 0.03239 0.13113 0.10519 0.0
O716 O 0.03165 0.09771 0.06459 0.0
H717 H 0.00806 0.14841 0.28867 0.0
H718 H 0.01819 0.1295 0.9083 0.0
O719 O 0.98897 0.09618 0.93764 0.0
H720 H 0.08751 0.08672 0.93026 0.0
H721 H 0.01976 0.02633 0.89768 0.0
H722 H 0.01369 0.06031 0.08114 0.0
H723 H 0.0558 0.07943 0.99086 0.0
H724 H 0.01546 0.06682 0.90677 0.0
O725 O 0.01886 0.17125 0.05021 0.0
H726 H 0.01006 0.13021 0.19829 0.0
H727 H 0.99236 0.19054 0.11765 0.0
H728 H 0.01831 0.01976 0.07388 0.0
H729 H 0.04932 0.13709 0.84645 0.0
H730 H 0.02141 0.00254 0.98164 0.0
H731 H 0.08437 0.11564 0.85712 0.0
O732 O 0.985 0.09158 0.05205 0.0
H733 H 0.95145 0.18578 0.95426 0.0
H734 H 0.95851 0.14624 0.13224 0.0
H735 H 0.92227 0.16175 0.10385 0.0
H736 H 0.91857 0.18179 0.01438 0.0
H737 H 0.98732 0.16966 0.98376 0.0
H738 H 0.99019 0.20945 0.2071 0.0
H739 H 0.99808 0.18836 0.29349 0.0
O740 O 0.98814 0.11842 0.11526 0.0
C741 C 0.04012 0.11169 0.09763 0.0
C742 C 0.00468 0.15781 0.25133 0.0
C743 C 0.99464 0.19206 0.20556 0.0
N744 N 0.00161 0.1593 0.15265 0.0
C745 C 0.00585 0.14759 0.20001 0.0
C746 C 0.99596 0.18127 0.15499 0.0
C747 C 0.99906 0.18022 0.254 0.0
C748 C 0.03312 0.11979 0.91283 0.0
N749 N 0.03483 0.10365 0.9525 0.0
C750 C 0.05083 0.1243 0.87782 0.0
C751 C 0.0705 0.1123 0.8839 0.0
C752 C 0.07227 0.09607 0.92489 0.0
C753 C 0.05421 0.09201 0.95909 0.0
C754 C 0.01853 0.03366 0.93811 0.0
C755 C 0.01522 0.05296 0.04086 0.0
C756 C 0.01602 0.05658 0.94354 0.0
N757 N 0.01449 0.06597 0.9945 0.0
C758 C 0.01775 0.02998 0.03701 0.0
C759 C 0.01944 0.02032 0.98523 0.0
C760 C 0.98037 0.10007 0.09845 0.0
C761 C 0.95285 0.1771 0.99335 0.0
C762 C 0.95702 0.1547 0.09293 0.0
C763 C 0.93646 0.16356 0.07723 0.0
C764 C 0.93441 0.17483 0.02707 0.0
N765 N 0.97504 0.15696 0.0596 0.0
C766 C 0.97314 0.16799 0.01038 0.0
Co767 Co 0.42513 0.0059 0.51393 0.0
Co768 Co 0.37651 0.99023 0.574 0.0
O769 O 0.39395 0.99736 0.50869 0.0
C770 C 0.42786 0.97054 0.42796 0.0
O771 O 0.41891 0.9562 0.46207 0.0
C772 C 0.33535 0.01636 0.55654 0.0
O773 O 0.33853 0.02424 0.60629 0.0
O774 O 0.38377 0.01978 0.60544 0.0
O775 O 0.41978 0.02239 0.58389 0.0
H776 H 0.36168 0.98689 0.77733 0.0
H777 H 0.39909 0.01575 0.41241 0.0
O778 O 0.43121 0.99042 0.44289 0.0
H779 H 0.42717 0.08805 0.47516 0.0
H780 H 0.49846 0.02927 0.43648 0.0
H781 H 0.45859 0.0074 0.60456 0.0
H782 H 0.43628 0.05379 0.52679 0.0
H783 H 0.45868 0.02104 0.43256 0.0
O784 O 0.3496 0.00318 0.53575 0.0
H785 H 0.38327 0.99562 0.69421 0.0
H786 H 0.33192 0.96994 0.59253 0.0
H787 H 0.49855 0.01586 0.61054 0.0
H788 H 0.38974 0.0496 0.35916 0.0
H789 H 0.51885 0.02675 0.52597 0.0
H790 H 0.40379 0.08608 0.39054 0.0
O791 O 0.43214 0.97846 0.55723 0.0
H792 H 0.35375 0.9388 0.42201 0.0
H793 H 0.37848 0.94345 0.6158 0.0
H794 H 0.37145 0.90683 0.57498 0.0
H795 H 0.35893 0.90433 0.47744 0.0
H796 H 0.36118 0.97511 0.46431 0.0
H797 H 0.3097 0.96106 0.67458 0.0
H798 H 0.32459 0.96951 0.76781 0.0
O799 O 0.40285 0.97709 0.61323 0.0
C800 C 0.40276 0.02885 0.61039 0.0
C801 C 0.35501 0.98313 0.73694 0.0
C802 C 0.32585 0.96861 0.67927 0.0
N803 N 0.35891 0.98326 0.63856 0.0
C804 C 0.36717 0.98802 0.68971 0.0
C805 C 0.33851 0.97367 0.63298 0.0
C806 C 0.33421 0.97337 0.73157 0.0
C807 C 0.40534 0.03156 0.42618 0.0
N808 N 0.41824 0.03278 0.4726 0.0
C809 C 0.39996 0.05067 0.39592 0.0
C810 C 0.40784 0.07114 0.41357 0.0
C811 C 0.42094 0.07225 0.46106 0.0
C812 C 0.42599 0.0528 0.49025 0.0
C813 C 0.48993 0.02462 0.47372 0.0
C814 C 0.46726 0.01241 0.56774 0.0
C815 C 0.46732 0.01986 0.47169 0.0
N816 N 0.45626 0.01384 0.51833 0.0
C817 C 0.4899 0.01711 0.57136 0.0
C818 C 0.50129 0.02321 0.5239 0.0
C819 C 0.42252 0.97137 0.60053 0.0
C820 C 0.35912 0.93968 0.46462 0.0
C821 C 0.37311 0.94253 0.57328 0.0
C822 C 0.3691 0.92173 0.55043 0.0
C823 C 0.36206 0.92034 0.49571 0.0
N824 N 0.37009 0.96143 0.54257 0.0
C825 C 0.36326 0.96019 0.48886 0.0
Co826 Co 0.46982 0.42441 0.98076 0.0
Co827 Co 0.49975 0.37947 0.03069 0.0
O828 O 0.48457 0.3957 0.97103 0.0
C829 C 0.5008 0.43294 0.88895 0.0
O830 O 0.51624 0.4234 0.91955 0.0
C831 C 0.46868 0.34464 0.99235 0.0
O832 O 0.45237 0.35897 0.99748 0.0
O833 O 0.47333 0.38196 0.07905 0.0
O834 O 0.45805 0.41458 0.05355 0.0
H835 H 0.52413 0.36539 0.22659 0.0
H836 H 0.46227 0.39893 0.87837 0.0
O837 O 0.48119 0.43491 0.90742 0.0
H838 H 0.38841 0.40776 0.96118 0.0
H839 H 0.42564 0.49136 0.91835 0.0
H840 H 0.46429 0.45499 0.07469 0.0
H841 H 0.42151 0.42369 0.00594 0.0
H842 H 0.44407 0.45507 0.90651 0.0
O843 O 0.48862 0.35062 1.00111 0.0
H844 H 0.50533 0.38593 0.15125 0.0
H845 H 0.52622 0.33759 0.03614 0.0
H846 H 0.44624 0.49128 0.08804 0.0
H847 H 0.42958 0.38289 0.83193 0.0
H848 H 0.4268 0.50974 0.00939 0.0
H849 H 0.39233 0.38723 0.87344 0.0
O850 O 0.49634 0.43699 0.01907 0.0
H851 H 0.53951 0.36453 0.85374 0.0
H852 H 0.54794 0.38879 0.04637 0.0
H853 H 0.58073 0.38754 0.98643 0.0
H854 H 0.57662 0.37535 0.88935 0.0
H855 H 0.50712 0.36618 0.91503 0.0
H856 H 0.54503 0.31639 0.11039 0.0
H857 H 0.54416 0.33034 0.20639 0.0
O858 O 0.51118 0.4075 0.06279 0.0
C859 C 0.45962 0.39788 0.086 0.0
C860 C 0.5247 0.35918 0.1849 0.0
C861 C 0.53641 0.33167 0.1197 0.0
N862 N 0.51481 0.36307 0.08924 0.0
C863 C 0.51413 0.37078 0.14201 0.0
C864 C 0.52567 0.34372 0.07784 0.0
C865 C 0.53591 0.33951 0.17355 0.0
C866 C 0.44609 0.40103 0.89645 0.0
N867 N 0.44378 0.41234 0.94462 0.0
C868 C 0.42766 0.39185 0.87007 0.0
C869 C 0.40676 0.39427 0.89342 0.0
C870 C 0.40455 0.40577 0.94266 0.0
C871 C 0.42336 0.41471 0.96789 0.0
C872 C 0.43418 0.48351 0.95273 0.0
C873 C 0.4558 0.46286 0.04026 0.0
C874 C 0.44462 0.46297 0.94633 0.0
N875 N 0.45515 0.45285 0.98993 0.0
C876 C 0.44565 0.48344 0.04808 0.0
C877 C 0.43477 0.4938 0.00393 0.0
C878 C 0.50953 0.42833 0.05474 0.0
C879 C 0.54152 0.36981 0.896 0.0
C880 C 0.54602 0.38348 0.00416 0.0
C881 C 0.56465 0.38277 0.97045 0.0
C882 C 0.56234 0.37591 0.91599 0.0
N883 N 0.52566 0.37747 0.98424 0.0
C884 C 0.52327 0.37068 0.93095 0.0
Co885 Co 0.09426 0.49514 0.51193 0.0
Co886 Co 0.14351 0.50865 0.57905 0.0
O887 O 0.12621 0.50216 0.51196 0.0
C888 C 0.0973 0.53282 0.43294 0.0
O889 O 0.11035 0.54265 0.46869 0.0
C890 C 0.17283 0.47634 0.51776 0.0
O891 O 0.15609 0.46848 0.48925 0.0
O892 O 0.13217 0.48133 0.61601 0.0
O893 O 0.09824 0.47631 0.57912 0.0
H894 H 0.15409 0.51652 0.78357 0.0
H895 H 0.11972 0.48846 0.4093 0.0
O896 O 0.08938 0.5138 0.444 0.0
H897 H 0.09082 0.41467 0.45899 0.0
H898 H 0.02096 0.47685 0.42223 0.0
H899 H 0.05985 0.49074 0.59808 0.0
H900 H 0.0826 0.44715 0.51654 0.0
H901 H 0.0611 0.48446 0.42394 0.0
O902 O 0.16993 0.49165 0.55269 0.0
H903 H 0.13304 0.50911 0.69813 0.0
H904 H 0.19046 0.52158 0.60274 0.0
H905 H 0.01977 0.48293 0.59834 0.0
H906 H 0.12808 0.45647 0.35015 0.0
H907 H 1.0 0.47607 0.50985 0.0
H908 H 0.11364 0.41923 0.375 0.0
O909 O 0.08717 0.5211 0.55973 0.0
H910 H 0.17535 0.55198 0.42101 0.0
H911 H 0.14854 0.55595 0.61202 0.0
H912 H 0.16146 0.58999 0.56561 0.0
H913 H 0.17504 0.58812 0.4694 0.0
H914 H 0.16201 0.51842 0.46881 0.0
H915 H 0.21217 0.52884 0.68715 0.0
H916 H 0.19396 0.52643 0.77841 0.0
O917 O 0.11846 0.5262 0.6089 0.0
C918 C 0.11341 0.47158 0.61426 0.0
C919 C 0.16219 0.5177 0.74404 0.0
C920 C 0.19479 0.52459 0.68995 0.0
N921 N 0.16044 0.51505 0.64544 0.0
C922 C 0.15034 0.51359 0.69551 0.0
C923 C 0.18242 0.5204 0.64227 0.0
C924 C 0.18457 0.52323 0.74112 0.0
C925 C 0.11321 0.47235 0.42009 0.0
N926 N 0.10066 0.4697 0.46624 0.0
C927 C 0.11808 0.45428 0.38657 0.0
C928 C 0.11 0.43339 0.40059 0.0
C929 C 0.09722 0.43081 0.44775 0.0
C930 C 0.0927 0.44925 0.4803 0.0
C931 C 0.02937 0.47985 0.46103 0.0
C932 C 0.05143 0.48762 0.55947 0.0
C933 C 0.0521 0.48424 0.46225 0.0
N934 N 0.06284 0.48809 0.51109 0.0
C935 C 0.0287 0.48325 0.55986 0.0
C936 C 0.01763 0.4794 0.51021 0.0
C937 C 0.09821 0.53046 0.59805 0.0
C938 C 0.16951 0.55301 0.46296 0.0
C939 C 0.15428 0.55504 0.57006 0.0
C940 C 0.16166 0.57435 0.54406 0.0
C941 C 0.1693 0.57328 0.49011 0.0
N942 N 0.15452 0.53522 0.54316 0.0
C943 C 0.16203 0.53404 0.49031 0.0
H944 H 0.99198 0.69597 0.98237 0.0
H945 H 0.93184 0.694 0.07901 0.0
H946 H 0.92573 0.73396 0.06016 0.0
H947 H 0.01048 0.74594 0.03316 0.0
H948 H 0.02247 0.75566 0.96967 0.0
H949 H 0.02021 0.72637 0.98296 0.0
H950 H 0.99811 0.72138 0.89193 0.0
H951 H 1.00055 0.75065 0.87781 0.0
H952 H 0.97358 0.7379 0.87914 0.0
H953 H 0.92831 0.77523 0.03784 0.0
H954 H 0.9392 0.81361 0.01317 0.0
H955 H 0.99837 0.78798 0.93493 0.0
C956 C 0.97711 0.70371 0.99809 0.0
C957 C 0.96222 0.69176 0.03161 0.0
C958 C 0.94335 0.70277 0.05277 0.0
C959 C 0.93976 0.72548 0.04235 0.0
C960 C 0.95524 0.73696 0.01084 0.0
C961 C 0.97347 0.72637 0.98877 0.0
C962 C 0.98874 0.74268 0.96067 0.0
C963 C 0.01183 0.74266 0.98828 0.0
C964 C 0.99032 0.73786 0.8987 0.0
C965 C 0.97644 0.76416 0.97097 0.0
C966 C 0.95704 0.76059 0.99947 0.0
C967 C 0.94337 0.77817 0.01503 0.0
C968 C 0.94969 0.79992 1.00097 0.0
C969 C 0.96962 0.80388 0.97211 0.0
C970 C 0.98301 0.78563 0.95693 0.0
H971 H 0.69941 0.9531 0.48541 0.0
H972 H 0.6826 0.02256 0.50781 0.0
H973 H 0.72152 0.03069 0.52974 0.0
H974 H 0.73944 0.95198 0.60347 0.0
H975 H 0.75776 0.93261 0.57038 0.0
H976 H 0.72841 0.93195 0.55588 0.0
H977 H 0.73646 0.93622 0.45171 0.0
H978 H 0.7658 0.93726 0.46594 0.0
H979 H 0.75251 0.95949 0.42786 0.0
H980 H 0.76239 0.03251 0.53374 0.0
H981 H 0.80237 0.02692 0.54655 0.0
H982 H 0.79334 0.95554 0.54102 0.0
C983 C 0.70393 0.96993 0.49579 0.0
C984 C 0.68799 0.98727 0.49373 0.0
C985 C 0.69446 0.00903 0.50833 0.0
C986 C 0.71658 0.01386 0.5207 0.0
C987 C 0.73198 0.99663 0.52049 0.0
C988 C 0.72592 0.97495 0.51072 0.0
C989 C 0.74588 0.95953 0.51656 0.0
C990 C 0.74268 0.94304 0.56443 0.0
C991 C 0.75042 0.94741 0.46228 0.0
C992 C 0.76409 0.97611 0.52953 0.0
C993 C 0.75562 0.99743 0.53006 0.0
C994 C 0.76917 0.01587 0.53552 0.0
C995 C 0.79194 0.01247 0.54275 0.0
C996 C 0.80098 0.99076 0.54681 0.0
C997 C 0.78684 0.97231 0.53948 0.0
H998 H 0.50523 0.78021 0.05672 0.0
H999 H 0.57272 0.79768 0.01407 0.0
H1000 H 0.58158 0.75787 0.00169 0.0
H1001 H 0.51831 0.73079 0.13353 0.0
H1002 H 0.49425 0.71606 0.10916 0.0
H1003 H 0.49344 0.74582 0.11461 0.0
H1004 H 0.48207 0.74915 0.01153 0.0
H1005 H 0.48267 0.71941 0.00592 0.0
H1006 H 0.49906 0.73618 0.9601 0.0
H1007 H 0.58255 0.71554 0.99257 0.0
H1008 H 0.57505 0.67537 0.98365 0.0
H1009 H 0.50723 0.68664 0.03538 0.0
C1010 C 0.52191 0.77577 0.04476 0.0
C1011 C 0.53829 0.79214 0.03646 0.0
C1012 C 0.55987 0.78547 0.02066 0.0
C1013 C 0.56508 0.76289 0.01371 0.0
C1014 C 0.54854 0.74719 0.02285 0.0
C1015 C 0.52737 0.75343 0.03783 0.0
C1016 C 0.51239 0.73356 0.04439 0.0
C1017 C 0.50412 0.73144 0.10397 0.0
C1018 C 0.4929 0.73464 0.00302 0.0
C1019 C 0.52837 0.71507 0.03059 0.0
C1020 C 0.54916 0.72315 0.01832 0.0
C1021 C 0.56634 0.70906 0.00241 0.0
C1022 C 0.56196 0.68623 0.99769 0.0
C1023 C 0.54057 0.67775 0.00884 0.0
C1024 C 0.5238 0.69245 0.02665 0.0
H1025 H 0.69003 0.53933 0.42518 0.0
H1026 H 0.68765 0.51056 0.58947 0.0
H1027 H 0.7284 0.51109 0.59528 0.0
H1028 H 0.7358 0.5075 0.38173 0.0
H1029 H 0.74827 0.52911 0.34086 0.0
H1030 H 0.71878 0.52916 0.35164 0.0
H1031 H 0.72107 0.56892 0.39086 0.0
H1032 H 0.75062 0.56897 0.3802 0.0
H1033 H 0.73967 0.57447 0.44762 0.0
H1034 H 0.76908 0.51202 0.5818 0.0
H1035 H 0.80747 0.51177 0.54785 0.0
H1036 H 0.78448 0.53898 0.3911 0.0
C1037 C 0.69815 0.53363 0.4627 0.0
C1038 C 0.68568 0.52506 0.50704 0.0
C1039 C 0.69687 0.51719 0.555 0.0
C1040 C 0.72003 0.51753 0.55886 0.0
C1041 C 0.73191 0.52567 0.51426 0.0
C1042 C 0.72145 0.53352 0.46696 0.0
C1043 C 0.73837 0.53955 0.4234 0.0
C1044 C 0.73511 0.52549 0.37134 0.0
C1045 C 0.73737 0.56446 0.40973 0.0
C1046 C 0.75982 0.53348 0.45338 0.0
C1047 C 0.75566 0.52579 0.50599 0.0
C1048 C 0.77261 0.51822 0.54085 0.0
C1049 C 0.79439 0.51814 0.52115 0.0
C1050 C 0.7991 0.52545 0.4669 0.0
C1051 C 0.78153 0.53355 0.43302 0.0
H1052 H 0.00233 0.30455 0.98968 0.0
H1053 H 0.06977 0.32429 0.02875 0.0
H1054 H 0.07964 0.28501 0.04717 0.0
H1055 H 0.9982 0.26212 0.09312 0.0
H1056 H 0.98179 0.24412 0.05029 0.0
H1057 H 0.98036 0.27371 0.04018 0.0
H1058 H 0.99074 0.26875 0.93755 0.0
H1059 H 0.99237 0.23915 0.94755 0.0
H1060 H 0.01579 0.25401 0.92038 0.0
H1061 H 0.08159 0.24336 0.06441 0.0
H1062 H 0.07532 0.20325 0.07996 0.0
H1063 H 0.00702 0.2112 0.02543 0.0
C1064 C 0.01921 0.30072 0.0021 0.0
C1065 C 0.03529 0.31758 0.00776 0.0
C1066 C 0.05715 0.31171 0.02422 0.0
C1067 C 0.06293 0.28942 0.0346 0.0
C1068 C 0.04667 0.27322 0.02813 0.0
C1069 C 0.02525 0.27865 0.01233 0.0
C1070 C 0.01073 0.25827 0.00908 0.0
C1071 C 0.99165 0.25964 0.05064 0.0
C1072 C 0.0019 0.25485 0.95012 0.0
C1073 C 0.02731 0.24044 0.0254 0.0
C1074 C 0.04794 0.24936 0.03651 0.0
C1075 C 0.06556 0.23619 0.05529 0.0
C1076 C 0.06187 0.21344 0.06391 0.0
C1077 C 0.0408 0.20404 0.05319 0.0
C1078 C 0.02347 0.21775 0.0328 0.0
H1079 H 0.29576 0.02787 0.60358 0.0
H1080 H 0.32546 0.01022 0.44764 0.0
H1081 H 0.28837 0.01037 0.4037 0.0
H1082 H 0.25055 0.99284 0.59165 0.0
H1083 H 0.23079 0.01107 0.62363 0.0
H1084 H 0.25975 0.01302 0.64117 0.0
H1085 H 0.25945 0.05468 0.61425 0.0
H1086 H 0.23039 0.0529 0.59683 0.0
H1087 H 0.24981 0.06304 0.54664 0.0
H1088 H 0.24833 0.00839 0.37911 0.0
H1089 H 0.20782 0.00391 0.37513 0.0
H1090 H 0.20337 0.02233 0.54727 0.0
C1091 C 0.29452 0.02472 0.5598 0.0
C1092 C 0.31355 0.01934 0.52879 0.0
C1093 C 0.31115 0.01458 0.47203 0.0
C1094 C 0.29016 0.01467 0.44671 0.0
C1095 C 0.27169 0.01952 0.4787 0.0
C1096 C 0.27363 0.02452 0.53398 0.0
C1097 C 0.25098 0.02705 0.56013 0.0
C1098 C 0.24784 0.00998 0.60689 0.0
C1099 C 0.24746 0.05083 0.58067 0.0
C1100 C 0.236 0.02213 0.51122 0.0
C1101 C 0.24835 0.0181 0.46458 0.0
C1102 C 0.23847 0.01181 0.41513 0.0
C1103 C 0.21542 0.00924 0.41339 0.0
C1104 C 0.20237 0.01288 0.46082 0.0
C1105 C 0.21283 0.01982 0.51011 0.0
H1106 H 0.50106 0.21715 0.96322 0.0
H1107 H 0.43106 0.2013 0.97316 0.0
H1108 H 0.42215 0.24132 0.97914 0.0
H1109 H 0.50019 0.26247 0.05897 0.0
H1110 H 0.5202 0.27845 0.02109 0.0
H1111 H 0.52078 0.24863 0.01807 0.0
H1112 H 0.51795 0.2507 0.91148 0.0
H1113 H 0.51719 0.28054 0.9142 0.0
H1114 H 0.49529 0.26576 0.87955 0.0
H1115 H 0.42108 0.28359 0.98206 0.0
H1116 H 0.42814 0.3239 0.98827 0.0
H1117 H 0.49887 0.31129 0.97654 0.0
C1118 C 0.48383 0.22201 0.96687 0.0
C1119 C 0.46674 0.20604 0.96759 0.0
C1120 C 0.44444 0.2132 0.97263 0.0
C1121 C 0.43922 0.23591 0.97582 0.0
C1122 C 0.45648 0.25122 0.97411 0.0
C1123 C 0.47835 0.24451 0.97026 0.0
C1124 C 0.49391 0.26413 0.96982 0.0
C1125 C 0.50969 0.26337 0.01997 0.0
C1126 C 0.50684 0.26534 0.91553 0.0
C1127 C 0.4774 0.283 0.97399 0.0
C1128 C 0.45588 0.27529 0.97616 0.0
C1129 C 0.43788 0.28978 0.98046 0.0
C1130 C 0.44204 0.31266 0.98372 0.0
C1131 C 0.46404 0.32082 0.98291 0.0
C1132 C 0.48184 0.30568 0.97723 0.0
H1133 H 0.30275 0.47686 0.57593 0.0
H1134 H 0.31152 0.46053 0.40396 0.0
H1135 H 0.27116 0.45434 0.39399 0.0
H1136 H 0.25543 0.43935 0.60522 0.0
H1137 H 0.24181 0.45966 0.64743 0.0
H1138 H 0.27164 0.45913 0.64345 0.0
H1139 H 0.27143 0.50044 0.61304 0.0
H1140 H 0.24166 0.50105 0.61684 0.0
H1141 H 0.25517 0.50885 0.55369 0.0
H1142 H 0.22938 0.45261 0.40106 0.0
H1143 H 0.18973 0.45887 0.42246 0.0
H1144 H 0.20828 0.47878 0.58787 0.0
C1145 C 0.29619 0.47128 0.53675 0.0
C1146 C 0.31021 0.46864 0.49101 0.0
C1147 C 0.30101 0.46229 0.43965 0.0
C1148 C 0.27814 0.45869 0.43367 0.0
C1149 C 0.26462 0.46182 0.47927 0.0
C1150 C 0.2733 0.46815 0.52975 0.0
C1151 C 0.25499 0.47302 0.57033 0.0
C1152 C 0.25604 0.45682 0.61952 0.0
C1153 C 0.25587 0.49728 0.58957 0.0
C1154 C 0.23473 0.46885 0.53456 0.0
C1155 C 0.24057 0.46195 0.48253 0.0
C1156 C 0.22461 0.45784 0.44184 0.0
C1157 C 0.20213 0.46136 0.45435 0.0
C1158 C 0.19593 0.46931 0.50673 0.0
C1159 C 0.2125 0.47267 0.54743 0.0
H1160 H 0.02585 0.55588 0.86053 0.0
H1161 H 0.06776 0.61328 0.88674 0.0
H1162 H 0.08543 0.60687 0.79672 0.0
H1163 H 0.06711 0.52212 0.79977 0.0
H1164 H 0.04834 0.50923 0.75162 0.0
H1165 H 0.03816 0.51931 0.81627 0.0
H1166 H 0.00906 0.54337 0.76371 0.0
H1167 H 0.01944 0.5336 0.6988 0.0
H1168 H 0.01811 0.56294 0.71214 0.0
H1169 H 0.09982 0.59323 0.70664 0.0
H1170 H 0.1121 0.57151 0.62658 0.0
H1171 H 0.06078 0.52314 0.65812 0.0
C1172 C 0.03865 0.56722 0.84724 0.0
C1173 C 0.0454 0.58515 0.88071 0.0
C1174 C 0.06237 0.59941 0.86198 0.0
C1175 C 0.07237 0.59601 0.81069 0.0
C1176 C 0.0652 0.57829 0.7786 0.0
C1177 C 0.04885 0.56402 0.79631 0.0
C1178 C 0.04513 0.54544 0.7555 0.0
C1179 C 0.04999 0.52269 0.78239 0.0
C1180 C 0.02153 0.54641 0.7311 0.0
C1181 C 0.06225 0.55127 0.71243 0.0
C1182 C 0.07345 0.57044 0.72632 0.0
C1183 C 0.091 0.57837 0.69501 0.0
C1184 C 0.09783 0.56598 0.64956 0.0
C1185 C 0.08713 0.54592 0.63574 0.0
C1186 C 0.06873 0.53881 0.66667 0.0
H1187 H 0.99031 0.08476 0.20109 0.0
H1188 H 0.93712 0.08936 0.08034 0.0
H1189 H 0.91101 0.07332 0.14826 0.0
H1190 H 0.97259 0.03134 0.2605 0.0
H1191 H 0.98127 0.03885 0.32911 0.0
H1192 H 0.99544 0.05011 0.27023 0.0
H1193 H 0.98783 0.08981 0.30572 0.0
H1194 H 0.97331 0.07866 0.36414 0.0
H1195 H 0.95971 0.0984 0.31887 0.0
H1196 H 0.89029 0.06014 0.23248 0.0
H1197 H 0.87732 0.04553 0.32212 0.0
H1198 H 0.94485 0.04652 0.38511 0.0
C1199 C 0.97321 0.08203 0.18895 0.0
C1200 C 0.96553 0.08815 0.13587 0.0
C1201 C 0.94317 0.08451 0.12087 0.0
C1202 C 0.92829 0.07557 0.1592 0.0
C1203 C 0.93626 0.07 0.21173 0.0
C1204 C 0.95832 0.07261 0.22618 0.0
C1205 C 0.96278 0.06493 0.28486 0.0
C1206 C 0.97897 0.04513 0.28623 0.0
C1207 C 0.97141 0.0841 0.32048 0.0
C1208 C 0.93967 0.05803 0.30165 0.0
C1209 C 0.92456 0.06133 0.25913 0.0
C1210 C 0.90201 0.05719 0.26579 0.0
C1211 C 0.89478 0.04907 0.31692 0.0
C1212 C 0.9101 0.04484 0.3603 0.0
C1213 C 0.93281 0.04944 0.35243 0.0
H1214 H 0.44532 0.91431 0.8936 0.0
H1215 H 0.5125 0.90135 0.83926 0.0
H1216 H 0.50277 0.91569 0.74669 0.0
H1217 H 0.41714 0.901 0.76261 0.0
H1218 H 0.39718 0.92312 0.76956 0.0
H1219 H 0.40879 0.90986 0.83014 0.0
H1220 H 0.42167 0.94808 0.86626 0.0
H1221 H 0.41014 0.96139 0.80579 0.0
H1222 H 0.43894 0.96528 0.82347 0.0
H1223 H 0.48646 0.93379 0.66132 0.0
H1224 H 0.46472 0.95464 0.59088 0.0
H1225 H 0.40858 0.95618 0.70138 0.0
C1226 C 0.45786 0.91407 0.86193 0.0
C1227 C 0.47964 0.90656 0.87372 0.0
C1228 C 0.49568 0.90696 0.8313 0.0
C1229 C 0.49031 0.91504 0.77846 0.0
C1230 C 0.46882 0.92269 0.76845 0.0
C1231 C 0.45282 0.92224 0.80895 0.0
C1232 C 0.43136 0.93271 0.78843 0.0
C1233 C 0.4125 0.91565 0.78764 0.0
C1234 C 0.42518 0.95307 0.82304 0.0
C1235 C 0.43792 0.9394 0.73052 0.0
C1236 C 0.45952 0.93333 0.71954 0.0
C1237 C 0.46946 0.9385 0.66936 0.0
C1238 C 0.45704 0.95039 0.62963 0.0
C1239 C 0.435 0.95715 0.64041 0.0
C1240 C 0.42534 0.95123 0.69142 0.0
H1241 H 0.53727 0.41553 0.13944 0.0
H1242 H 0.50796 0.47394 0.06149 0.0
H1243 H 0.52328 0.49707 0.13617 0.0
H1244 H 0.5238 0.43037 0.27363 0.0
H1245 H 0.5486 0.419 0.30507 0.0
H1246 H 0.538 0.40745 0.24203 0.0
H1247 H 0.57573 0.4141 0.19484 0.0
H1248 H 0.5866 0.42554 0.25787 0.0
H1249 H 0.58758 0.4415 0.19481 0.0
H1250 H 0.54037 0.51346 0.22116 0.0
H1251 H 0.55564 0.52196 0.31274 0.0
H1252 H 0.57216 0.45239 0.33812 0.0
C1253 C 0.53446 0.43325 0.13704 0.0
C1254 C 0.52155 0.44289 0.09392 0.0
C1255 C 0.51801 0.46614 0.09345 0.0
C1256 C 0.5266 0.47942 0.13583 0.0
C1257 C 0.53881 0.46923 0.17818 0.0
C1258 C 0.54271 0.44667 0.17912 0.0
C1259 C 0.55458 0.43949 0.23173 0.0
C1260 C 0.54039 0.42311 0.26507 0.0
C1261 C 0.57749 0.42958 0.21903 0.0
C1262 C 0.55663 0.46156 0.26065 0.0
C1263 C 0.54768 0.47851 0.22865 0.0
C1264 C 0.54733 0.50032 0.24665 0.0
C1265 C 0.55611 0.50495 0.29892 0.0
C1266 C 0.56508 0.48783 0.33307 0.0
C1267 C 0.56544 0.46585 0.31323 0.0
H1268 H 0.0589 0.97269 0.32809 0.0
H1269 H 0.10255 0.91917 0.38032 0.0
H1270 H 0.08824 0.89585 0.30499 0.0
H1271 H 0.01155 0.93621 0.27773 0.0
H1272 H 0.0058 0.95471 0.2206 0.0
H1273 H 0.01635 0.96555 0.28466 0.0
H1274 H 0.04866 0.98385 0.23193 0.0
H1275 H 0.03858 0.9727 0.16797 0.0
H1276 H 0.06659 0.96689 0.19053 0.0
H1277 H 0.07477 0.88118 0.21516 0.0
H1278 H 0.05926 0.87413 0.12235 0.0
H1279 H 0.02299 0.93636 0.12859 0.0
C1280 C 0.0645 0.95566 0.32532 0.0
C1281 C 0.08148 0.94749 0.36058 0.0
C1282 C 0.08931 0.92553 0.35414 0.0
C1283 C 0.08132 0.91221 0.31137 0.0
C1284 C 0.06539 0.92106 0.27546 0.0
C1285 C 0.05665 0.9421 0.28258 0.0
C1286 C 0.04113 0.94829 0.23521 0.0
C1287 C 0.01729 0.95137 0.25579 0.0
C1288 C 0.04924 0.96916 0.20462 0.0
C1289 C 0.04317 0.92781 0.19957 0.0
C1290 C 0.05723 0.91231 0.22365 0.0
C1291 C 0.06329 0.89294 0.19647 0.0
C1292 C 0.05457 0.88915 0.14358 0.0
C1293 C 0.03979 0.90457 0.11854 0.0
C1294 C 0.03394 0.92408 0.14719 0.0
H1295 H 0.53988 0.10744 0.82286 0.0
H1296 H 0.50922 0.05212 0.90852 0.0
H1297 H 0.52116 0.02712 0.83405 0.0
H1298 H 0.52247 0.09212 0.69089 0.0
H1299 H 0.54724 0.10127 0.65662 0.0
H1300 H 0.53872 0.11432 0.71946 0.0
H1301 H 0.57685 0.10557 0.76451 0.0
H1302 H 0.58574 0.09273 0.70161 0.0
H1303 H 0.58702 0.0774 0.76565 0.0
H1304 H 0.5338 0.00891 0.74655 0.0
H1305 H 0.54766 0.99821 0.65558 0.0
H1306 H 0.5692 0.06587 0.62577 0.0
C1307 C 0.53601 0.09 0.82689 0.0
C1308 C 0.52366 0.08179 0.87204 0.0
C1309 C 0.51885 0.05883 0.87487 0.0
C1310 C 0.52546 0.04452 0.83254 0.0
C1311 C 0.53687 0.05341 0.78777 0.0
C1312 C 0.54226 0.07559 0.78495 0.0
C1313 C 0.5535 0.08132 0.73106 0.0
C1314 C 0.53965 0.09825 0.69753 0.0
C1315 C 0.57719 0.08975 0.74134 0.0
C1316 C 0.55361 0.05885 0.7037 0.0
C1317 C 0.54394 0.043 0.73715 0.0
C1318 C 0.54158 0.02115 0.72032 0.0
C1319 C 0.54949 0.01528 0.6683 0.0
C1320 C 0.55965 0.03118 0.63329 0.0
C1321 C 0.56165 0.05329 0.65147 0.0
H1322 H 0.41089 0.54308 0.35388 0.0
H1323 H 0.46613 0.50743 0.42963 0.0
H1324 H 0.49035 0.51996 0.35385 0.0
H1325 H 0.42109 0.52803 0.22245 0.0
H1326 H 0.41343 0.55391 0.1896 0.0
H1327 H 0.40133 0.54629 0.2544 0.0
H1328 H 0.41473 0.58249 0.29929 0.0
H1329 H 0.42628 0.591 0.23426 0.0
H1330 H 0.44356 0.59005 0.29525 0.0
H1331 H 0.50678 0.53176 0.26238 0.0
H1332 H 0.51506 0.54425 0.1676 0.0
H1333 H 0.44863 0.57181 0.15216 0.0
C1334 C 0.42823 0.53839 0.35571 0.0
C1335 C 0.43655 0.52422 0.398 0.0
C1336 C 0.45935 0.51839 0.39812 0.0
C1337 C 0.47322 0.52535 0.35501 0.0
C1338 C 0.46407 0.53829 0.31244 0.0
C1339 C 0.44218 0.54508 0.31312 0.0
C1340 C 0.4358 0.55746 0.2607 0.0
C1341 C 0.41681 0.5457 0.22998 0.0
C1342 C 0.42974 0.58169 0.27313 0.0
C1343 C 0.4573 0.55594 0.22933 0.0
C1344 C 0.47348 0.545 0.25998 0.0
C1345 C 0.49434 0.5406 0.23836 0.0
C1346 C 0.49882 0.54768 0.18432 0.0
C1347 C 0.4825 0.55908 0.1523 0.0
C1348 C 0.46152 0.56328 0.17551 0.0
H1349 H 0.95887 0.40833 0.83776 0.0
H1350 H 0.97534 0.46716 0.93135 0.0
H1351 H 0.9573 0.49045 0.85916 0.0
H1352 H 0.97149 0.43049 0.70922 0.0
H1353 H 0.94964 0.41638 0.67266 0.0
H1354 H 0.96122 0.40435 0.73466 0.0
H1355 H 0.92218 0.40262 0.77794 0.0
H1356 H 0.91033 0.41449 0.71589 0.0
H1357 H 0.90553 0.42748 0.78138 0.0
H1358 H 0.9405 0.50726 0.77237 0.0
H1359 H 0.92588 0.51641 0.67973 0.0
H1360 H 0.92113 0.44624 0.64278 0.0
C1361 C 0.95839 0.42608 0.84396 0.0
C1362 C 0.96852 0.4359 0.89062 0.0
C1363 C 0.96759 0.45924 0.89632 0.0
C1364 C 0.95741 0.47258 0.85544 0.0
C1365 C 0.9482 0.46231 0.80927 0.0
C1366 C 0.9485 0.43956 0.80359 0.0
C1367 C 0.9389 0.43257 0.74853 0.0
C1368 C 0.95636 0.42023 0.71426 0.0
C1369 C 0.91799 0.41846 0.75643 0.0
C1370 C 0.93331 0.45499 0.72353 0.0
C1371 C 0.9387 0.47193 0.75931 0.0
C1372 C 0.93601 0.49412 0.74434 0.0
C1373 C 0.92773 0.49912 0.69146 0.0
C1374 C 0.92225 0.48203 0.65389 0.0
C1375 C 0.9249 0.45968 0.67062 0.0
H1376 H 0.94168 0.42702 0.14207 0.0
H1377 H 0.01127 0.43626 0.18282 0.0
H1378 H 0.00103 0.44943 0.27502 0.0
H1379 H 0.92248 0.47546 0.20737 0.0
H1380 H 0.89707 0.46333 0.23159 0.0
H1381 H 0.90995 0.45284 0.17044 0.0
H1382 H 0.91082 0.41336 0.2136 0.0
H1383 H 0.898 0.42383 0.275 0.0
H1384 H 0.92397 0.409 0.27984 0.0
H1385 H 0.98313 0.46411 0.3611 0.0
H1386 H 0.95879 0.48021 0.43196 0.0
H1387 H 0.90109 0.46092 0.33543 0.0
C1388 C 0.95477 0.43149 0.17064 0.0
C1389 C 0.97728 0.43051 0.15506 0.0
C1390 C 0.99389 0.43684 0.1936 0.0
C1391 C 0.98826 0.44428 0.24629 0.0
C1392 C 0.96594 0.44526 0.26018 0.0
C1393 C 0.94945 0.43904 0.22348 0.0
C1394 C 0.92667 0.44293 0.24749 0.0
C1395 C 0.91326 0.45963 0.21212 0.0
C1396 C 0.91413 0.42097 0.2544 0.0
C1397 C 0.93295 0.45263 0.30287 0.0
C1398 C 0.95566 0.45368 0.30972 0.0
C1399 C 0.9653 0.46314 0.35646 0.0
C1400 C 0.95132 0.47219 0.39664 0.0
C1401 C 0.92797 0.47182 0.38966 0.0
C1402 C 0.91883 0.4614 0.34257 0.0
H1403 H 0.05131 0.88847 0.80118 0.0
H1404 H 0.03992 0.94801 0.8967 0.0
H1405 H 0.05903 0.97008 0.82524 0.0
H1406 H 0.1057 0.90411 0.74413 0.0
H1407 H 0.09934 0.89175 0.67851 0.0
H1408 H 0.08762 0.88043 0.74069 0.0
H1409 H 0.04823 0.8849 0.69869 0.0
H1410 H 0.05971 0.8964 0.63663 0.0
H1411 H 0.03917 0.91178 0.67419 0.0
H1412 H 0.07558 0.986 0.7388 0.0
H1413 H 0.0886 0.99475 0.64528 0.0
H1414 H 0.08864 0.92467 0.60559 0.0
C1415 C 0.05321 0.90608 0.80802 0.0
C1416 C 0.04415 0.91646 0.85498 0.0
C1417 C 0.04687 0.93961 0.86151 0.0
C1418 C 0.05768 0.95228 0.82105 0.0
C1419 C 0.06579 0.94153 0.77456 0.0
C1420 C 0.06381 0.91891 0.76811 0.0
C1421 C 0.07228 0.91154 0.71251 0.0
C1422 C 0.09244 0.89604 0.71939 0.0
C1423 C 0.05374 0.90052 0.67852 0.0
C1424 C 0.07886 0.93365 0.68784 0.0
C1425 C 0.07518 0.95071 0.72455 0.0
C1426 C 0.07879 0.97276 0.71007 0.0
C1427 C 0.08611 0.97754 0.65666 0.0
C1428 C 0.08971 0.96038 0.618 0.0
C1429 C 0.08634 0.93812 0.63431 0.0
H1430 H 0.58793 0.02943 0.29973 0.0
H1431 H 0.53478 0.03881 0.41654 0.0
H1432 H 0.51333 0.05977 0.3456 0.0
H1433 H 0.58404 0.08344 0.23537 0.0
H1434 H 0.59018 0.07318 0.16761 0.0
H1435 H 0.60115 0.05908 0.22773 0.0
H1436 H 0.58329 0.02238 0.19541 0.0
H1437 H 0.57229 0.03629 0.13511 0.0
H1438 H 0.55394 0.02163 0.18076 0.0
H1439 H 0.49752 0.07887 0.26058 0.0
H1440 H 0.48834 0.09462 0.16901 0.0
H1441 H 0.55258 0.07354 0.10871 0.0
C1442 C 0.57182 0.03594 0.3107 0.0
C1443 C 0.56286 0.03223 0.36372 0.0
C1444 C 0.54172 0.04109 0.37598 0.0
C1445 C 0.52955 0.05314 0.33606 0.0
C1446 C 0.53885 0.05634 0.28414 0.0
C1447 C 0.55954 0.04802 0.27149 0.0
C1448 C 0.56575 0.05348 0.21254 0.0
C1449 C 0.58651 0.06817 0.21073 0.0
C1450 C 0.569 0.03218 0.17899 0.0
C1451 C 0.54526 0.06616 0.19371 0.0
C1452 C 0.52994 0.06761 0.23564 0.0
C1453 C 0.50945 0.07794 0.22762 0.0
C1454 C 0.5044 0.08684 0.17537 0.0
C1455 C 0.51978 0.08545 0.13161 0.0
C1456 C 0.54057 0.07514 0.14135 0.0
H1457 H 0.44447 0.50378 0.67524 0.0
H1458 H 0.39493 0.5542 0.63696 0.0
H1459 H 0.40303 0.57241 0.72563 0.0
H1460 H 0.43481 0.50154 0.82481 0.0
H1461 H 0.46385 0.49759 0.84073 0.0
H1462 H 0.45237 0.4877 0.77651 0.0
H1463 H 0.48189 0.51102 0.72221 0.0
H1464 H 0.49305 0.52004 0.78726 0.0
H1465 H 0.48415 0.54018 0.73628 0.0
H1466 H 0.4175 0.58614 0.81524 0.0
H1467 H 0.43993 0.59698 0.89537 0.0
H1468 H 0.48088 0.53822 0.8769 0.0
C1469 C 0.43517 0.51854 0.6858 0.0
C1470 C 0.41895 0.52753 0.64926 0.0
C1471 C 0.40742 0.54704 0.6642 0.0
C1472 C 0.4118 0.5574 0.71467 0.0
C1473 C 0.42785 0.54813 0.74972 0.0
C1474 C 0.43955 0.52929 0.73579 0.0
C1475 C 0.45695 0.52362 0.77943 0.0
C1476 C 0.45173 0.50128 0.80708 0.0
C1477 C 0.48039 0.52372 0.75485 0.0
C1478 C 0.45369 0.54264 0.81923 0.0
C1479 C 0.43648 0.55628 0.80164 0.0
C1480 C 0.4309 0.57552 0.82958 0.0
C1481 C 0.44378 0.58153 0.87528 0.0
C1482 C 0.46222 0.56851 0.89274 0.0
C1483 C 0.46672 0.54836 0.86533 0.0
H1484 H 0.92421 0.02213 0.70735 0.0
H1485 H 0.9316 0.07018 0.57517 0.0
H1486 H 0.9476 0.09701 0.64147 0.0
H1487 H 0.90875 0.05874 0.81152 0.0
H1488 H 0.92435 0.04506 0.86575 0.0
H1489 H 0.91446 0.02942 0.80768 0.0
H1490 H 0.95439 0.01598 0.78751 0.0
H1491 H 0.96442 0.0312 0.84615 0.0
H1492 H 0.97619 0.03606 0.77916 0.0
H1493 H 0.95935 0.11959 0.72479 0.0
H1494 H 0.97213 0.134 0.81501 0.0
H1495 H 0.95934 0.06991 0.8903 0.0
C1496 C 0.92962 0.03817 0.69233 0.0
C1497 C 0.92685 0.04423 0.63645 0.0
C1498 C 0.93395 0.06528 0.61788 0.0
C1499 C 0.94281 0.08062 0.65528 0.0
C1500 C 0.9448 0.07436 0.71062 0.0
C1501 C 0.93895 0.0534 0.72873 0.0
C1502 C 0.94307 0.05055 0.78996 0.0
C1503 C 0.92136 0.04566 0.8205 0.0
C1504 C 0.96056 0.03238 0.80134 0.0
C1505 C 0.95184 0.07332 0.80378 0.0
C1506 C 0.95243 0.08695 0.75772 0.0
C1507 C 0.95921 0.109 0.76099 0.0
C1508 C 0.96621 0.1171 0.81239 0.0
C1509 C 0.96668 0.10304 0.85935 0.0
C1510 C 0.95917 0.08099 0.85491 0.0
H1511 H 0.43064 0.92842 0.3848 0.0
H1512 H 0.44102 0.99782 0.34404 0.0
H1513 H 0.45414 0.98731 0.25199 0.0
H1514 H 0.47893 0.90848 0.31971 0.0
H1515 H 0.46642 0.88322 0.29562 0.0
H1516 H 0.45616 0.89633 0.35672 0.0
H1517 H 0.41666 0.8977 0.31356 0.0
H1518 H 0.42691 0.88468 0.25218 0.0
H1519 H 0.41246 0.91086 0.24728 0.0
H1520 H 0.46845 0.96909 0.16571 0.0
H1521 H 0.484 0.94437 0.09472 0.0
H1522 H 0.46385 0.88717 0.19175 0.0
C1523 C 0.43536 0.94142 0.35625 0.0
C1524 C 0.43467 0.96394 0.37175 0.0
C1525 C 0.44135 0.98042 0.3333 0.0
C1526 C 0.44877 0.97465 0.28069 0.0
C1527 C 0.44941 0.95231 0.26684 0.0
C1528 C 0.44291 0.93594 0.30353 0.0
C1529 C 0.44645 0.9131 0.2796 0.0
C1530 C 0.46297 0.89949 0.31502 0.0
C1531 C 0.4243 0.90087 0.27275 0.0
C1532 C 0.4562 0.91919 0.22421 0.0
C1533 C 0.45765 0.94186 0.2173 0.0
C1534 C 0.46718 0.95128 0.17042 0.0
C1535 C 0.47591 0.93711 0.13016 0.0
C1536 C 0.47513 0.91378 0.13724 0.0
C1537 C 0.46465 0.90489 0.18451 0.0
H1538 H 0.54032 0.4298 0.83435 0.0
H1539 H 0.47319 0.4551 0.81639 0.0
H1540 H 0.48246 0.4703 0.72437 0.0
H1541 H 0.56787 0.4751 0.77221 0.0
H1542 H 0.58822 0.4578 0.73935 0.0
H1543 H 0.57549 0.44863 0.80214 0.0
H1544 H 0.56344 0.41246 0.75259 0.0
H1545 H 0.57581 0.42214 0.68955 0.0
H1546 H 0.54699 0.41438 0.69032 0.0
H1547 H 0.50087 0.48652 0.6376 0.0
H1548 H 0.52588 0.49949 0.56353 0.0
H1549 H 0.57959 0.46115 0.63799 0.0
C1550 C 0.52751 0.43851 0.81116 0.0
C1551 C 0.5061 0.44149 0.833 0.0
C1552 C 0.48981 0.45284 0.80086 0.0
C1553 C 0.4949 0.46154 0.74853 0.0
C1554 C 0.51631 0.45863 0.72859 0.0
C1555 C 0.53224 0.44714 0.75884 0.0
C1556 C 0.55407 0.44639 0.72885 0.0
C1557 C 0.57248 0.45767 0.76268 0.0
C1558 C 0.56044 0.42241 0.71448 0.0
C1559 C 0.54816 0.4597 0.67763 0.0
C1560 C 0.52634 0.46669 0.67786 0.0
C1561 C 0.51786 0.4807 0.63647 0.0
C1562 C 0.53217 0.48794 0.59436 0.0
C1563 C 0.55474 0.48128 0.5943 0.0
C1564 C 0.56243 0.46648 0.63596 0.0
H1565 H 0.06519 0.52071 0.35789 0.0
H1566 H 0.11669 0.56944 0.38688 0.0
H1567 H 0.10719 0.58768 0.29823 0.0
H1568 H 0.07147 0.51686 0.20816 0.0
H1569 H 0.04207 0.51463 0.19551 0.0
H1570 H 0.0539 0.50429 0.25924 0.0
H1571 H 0.02685 0.52892 0.31454 0.0
H1572 H 0.01486 0.53916 0.25104 0.0
H1573 H 0.02578 0.55834 0.30084 0.0
H1574 H 0.0908 0.60198 0.21001 0.0
H1575 H 0.06734 0.6126 0.13025 0.0
H1576 H 0.0264 0.55469 0.15713 0.0
C1577 C 0.07466 0.53506 0.34532 0.0
C1578 C 0.09179 0.5436 0.37933 0.0
C1579 C 0.10352 0.56261 0.36166 0.0
C1580 C 0.09832 0.57301 0.3112 0.0
C1581 C 0.08135 0.56421 0.27879 0.0
C1582 C 0.06961 0.54572 0.29517 0.0
C1583 C 0.05118 0.54049 0.25424 0.0
C1584 C 0.05489 0.51771 0.22772 0.0
C1585 C 0.02832 0.54182 0.28182 0.0
C1586 C 0.05422 0.55912 0.21264 0.0
C1587 C 0.07185 0.57248 0.22749 0.0
C1588 C 0.07713 0.59152 0.19766 0.0
C1589 C 0.0637 0.59743 0.15243 0.0
C1590 C 0.04523 0.58436 0.1372 0.0
C1591 C 0.04077 0.56465 0.16695 0.0
H1592 H 0.92171 0.56856 0.38808 0.0
H1593 H 0.86504 0.5407 0.3019 0.0
H1594 H 0.87676 0.55969 0.21645 0.0
H1595 H 0.92379 0.62256 0.30991 0.0
H1596 H 0.95368 0.62225 0.31137 0.0
H1597 H 0.93842 0.6101 0.36749 0.0
H1598 H 0.95965 0.5731 0.35436 0.0
H1599 H 0.97475 0.58492 0.29792 0.0
H1600 H 0.95904 0.55989 0.28799 0.0
H1601 H 0.89865 0.57515 0.13776 0.0
H1602 H 0.92747 0.58826 0.07348 0.0
H1603 H 0.96894 0.60729 0.21163 0.0
C1604 C 0.91125 0.567 0.35184 0.0
C1605 C 0.89242 0.55311 0.35181 0.0
C1606 C 0.87945 0.55135 0.30313 0.0
C1607 C 0.88599 0.56208 0.25436 0.0
C1608 C 0.90527 0.57481 0.25536 0.0
C1609 C 0.91748 0.57763 0.30318 0.0
C1610 C 0.93874 0.59017 0.29251 0.0
C1611 C 0.93864 0.61261 0.32207 0.0
C1612 C 0.95923 0.57618 0.30915 0.0
C1613 C 0.93707 0.59321 0.23073 0.0
C1614 C 0.91758 0.58436 0.21005 0.0
C1615 C 0.91362 0.58274 0.15356 0.0
C1616 C 0.93007 0.5901 0.11741 0.0
C1617 C 0.95008 0.59914 0.13794 0.0
C1618 C 0.95341 0.60115 0.19517 0.0
H1619 H 0.89822 0.97177 0.7096 0.0
H1620 H 0.90489 0.93034 0.56604 0.0
H1621 H 0.92157 0.90064 0.62452 0.0
H1622 H 0.94892 0.95985 0.76423 0.0
H1623 H 0.94078 0.96058 0.83546 0.0
H1624 H 0.92551 0.97644 0.78479 0.0
H1625 H 0.88912 0.95696 0.81341 0.0
H1626 H 0.90426 0.94112 0.86475 0.0
H1627 H 0.88774 0.9271 0.81362 0.0
H1628 H 0.94164 0.87746 0.69773 0.0
H1629 H 0.96444 0.86394 0.77647 0.0
H1630 H 0.945 0.92181 0.87005 0.0
C1631 C 0.90211 0.95613 0.69084 0.0
C1632 C 0.8996 0.95307 0.63368 0.0
C1633 C 0.9063 0.93277 0.61007 0.0
C1634 C 0.91573 0.91584 0.643 0.0
C1635 C 0.91845 0.9196 0.69935 0.0
C1636 C 0.91176 0.9393 0.72298 0.0
C1637 C 0.919 0.94062 0.78269 0.0
C1638 C 0.93447 0.96054 0.7923 0.0
C1639 C 0.89882 0.94149 0.82087 0.0
C1640 C 0.93132 0.91883 0.78874 0.0
C1641 C 0.93056 0.90671 0.74069 0.0
C1642 C 0.94204 0.88667 0.73581 0.0
C1643 C 0.95494 0.8791 0.78081 0.0
C1644 C 0.95649 0.89172 0.82969 0.0
C1645 C 0.94407 0.91158 0.83368 0.0
H1646 H 0.5699 0.91035 0.12811 0.0
H1647 H 0.5487 0.85243 0.22065 0.0
H1648 H 0.56892 0.86619 0.30243 0.0
H1649 H 0.625 0.91876 0.20014 0.0
H1650 H 0.62136 0.94844 0.19731 0.0
H1651 H 0.61015 0.9314 0.14315 0.0
H1652 H 0.57134 0.94854 0.15885 0.0
H1653 H 0.58221 0.96543 0.21314 0.0
H1654 H 0.55926 0.94716 0.22648 0.0
H1655 H 0.58491 0.88967 0.37784 0.0
H1656 H 0.59499 0.92054 0.43941 0.0
H1657 H 0.60455 0.96332 0.29777 0.0
C1658 C 0.57009 0.90007 0.16488 0.0
C1659 C 0.55772 0.88023 0.16777 0.0
C1660 C 0.55821 0.86755 0.21714 0.0
C1661 C 0.56969 0.87526 0.26383 0.0
C1662 C 0.58078 0.89549 0.26022 0.0
C1663 C 0.58125 0.9076 0.21167 0.0
C1664 C 0.59147 0.93023 0.22002 0.0
C1665 C 0.6133 0.93232 0.18828 0.0
C1666 C 0.57508 0.94892 0.20371 0.0
C1667 C 0.59564 0.9295 0.28151 0.0
C1668 C 0.58985 0.90915 0.30384 0.0
C1669 C 0.58998 0.90544 0.36061 0.0
C1670 C 0.59557 0.92309 0.39531 0.0
C1671 C 0.60079 0.94416 0.37315 0.0
C1672 C 0.60143 0.94718 0.31562 0.0
H1673 H 0.60718 0.53385 0.69306 0.0
H1674 H 0.59268 0.58607 0.57449 0.0
H1675 H 0.57864 0.60974 0.64905 0.0
H1676 H 0.55881 0.53824 0.75898 0.0
H1677 H 0.56904 0.53212 0.82745 0.0
H1678 H 0.58358 0.52175 0.76872 0.0
H1679 H 0.61971 0.54071 0.80203 0.0
H1680 H 0.60534 0.55096 0.86156 0.0
H1681 H 0.61958 0.56998 0.8166 0.0
H1682 H 0.55975 0.62478 0.73289 0.0
H1683 H 0.53804 0.62964 0.81808 0.0
H1684 H 0.56355 0.56659 0.8796 0.0
C1685 C 0.60208 0.55062 0.6832 0.0
C1686 C 0.60127 0.55822 0.62818 0.0
C1687 C 0.59362 0.58002 0.61654 0.0
C1688 C 0.58564 0.5936 0.65867 0.0
C1689 C 0.58538 0.5851 0.71221 0.0
C1690 C 0.59359 0.56413 0.72463 0.0
C1691 C 0.58821 0.55739 0.78313 0.0
C1692 C 0.57407 0.53614 0.7846 0.0
C1693 C 0.60948 0.55461 0.81789 0.0
C1694 C 0.57501 0.57744 0.80092 0.0
C1695 C 0.57389 0.59347 0.76005 0.0
C1696 C 0.56092 0.61256 0.76571 0.0
C1697 C 0.5486 0.61517 0.81417 0.0
C1698 C 0.54912 0.5986 0.85583 0.0
C1699 C 0.56291 0.57978 0.84913 0.0
H1700 H 0.07427 0.4494 0.62762 0.0
H1701 H 0.1398 0.457 0.70067 0.0
H1702 H 0.12861 0.43321 0.77885 0.0
H1703 H 0.04552 0.45525 0.74791 0.0
H1704 H 0.02405 0.43565 0.73123 0.0
H1705 H 0.03839 0.44989 0.67697 0.0
H1706 H 0.04928 0.41219 0.6341 0.0
H1707 H 0.03495 0.39778 0.68848 0.0
H1708 H 0.06374 0.39174 0.67562 0.0
H1709 H 0.10863 0.41359 0.85515 0.0
H1710 H 0.08141 0.39997 0.92314 0.0
H1711 H 0.02923 0.40499 0.80005 0.0
C1712 C 0.08655 0.44566 0.6592 0.0
C1713 C 0.10802 0.45503 0.65764 0.0
C1714 C 0.12333 0.44991 0.70056 0.0
C1715 C 0.11713 0.43637 0.74513 0.0
C1716 C 0.09562 0.42793 0.74599 0.0
C1717 C 0.08061 0.43231 0.70394 0.0
C1718 C 0.05784 0.42335 0.71721 0.0
C1719 C 0.04044 0.44215 0.71843 0.0
C1720 C 0.05106 0.40518 0.67642 0.0
C1721 C 0.06217 0.41378 0.77414 0.0
C1722 C 0.08414 0.41635 0.78979 0.0
C1723 C 0.09156 0.41093 0.84282 0.0
C1724 C 0.07606 0.4032 0.88111 0.0
C1725 C 0.05352 0.40084 0.86596 0.0
C1726 C 0.04659 0.40574 0.81164 0.0
H1727 H 0.03954 0.10582 0.20797 0.0
H1728 H 0.08061 0.09725 0.06442 0.0
H1729 H 0.10802 0.07615 0.12088 0.0
H1730 H 0.08481 0.10813 0.31487 0.0
H1731 H 0.06861 0.09213 0.36279 0.0
H1732 H 0.05499 0.11039 0.31384 0.0
H1733 H 0.03141 0.07749 0.27875 0.0
H1734 H 0.04507 0.05909 0.32688 0.0
H1735 H 0.04515 0.05288 0.25437 0.0
H1736 H 0.12819 0.05177 0.19066 0.0
H1737 H 0.13875 0.02587 0.26631 0.0
H1738 H 0.08298 0.04975 0.36144 0.0
C1739 C 0.05483 0.10048 0.1892 0.0
C1740 C 0.05844 0.10367 0.13255 0.0
C1741 C 0.07794 0.09528 0.10824 0.0
C1742 C 0.09354 0.08333 0.13997 0.0
C1743 C 0.08919 0.07981 0.1957 0.0
C1744 C 0.07029 0.08823 0.22008 0.0
C1745 C 0.06778 0.07967 0.27834 0.0
C1746 C 0.06914 0.09872 0.31991 0.0
C1747 C 0.04608 0.0665 0.28491 0.0
C1748 C 0.0879 0.0647 0.28253 0.0
C1749 C 0.10029 0.0652 0.23498 0.0
C1750 C 0.11882 0.05153 0.22848 0.0
C1751 C 0.12469 0.03686 0.2716 0.0
C1752 C 0.11184 0.03583 0.32012 0.0
C1753 C 0.09342 0.05022 0.32546 0.0
H1754 H 0.44059 0.0526 0.6296 0.0
H1755 H 0.37199 0.0469 0.68068 0.0
H1756 H 0.37801 0.07687 0.74804 0.0
H1757 H 0.46316 0.05973 0.76011 0.0
H1758 H 0.48421 0.07895 0.73852 0.0
H1759 H 0.47355 0.05898 0.6907 0.0
H1760 H 0.46316 0.0908 0.62255 0.0
H1761 H 0.47362 0.1109 0.67072 0.0
H1762 H 0.44554 0.11313 0.64507 0.0
H1763 H 0.39304 0.10356 0.81827 0.0
H1764 H 0.41606 0.12378 0.88614 0.0
H1765 H 0.47381 0.11359 0.78492 0.0
C1766 C 0.42663 0.05785 0.65407 0.0
C1767 C 0.40573 0.04742 0.64942 0.0
C1768 C 0.38811 0.05468 0.68314 0.0
C1769 C 0.39135 0.07178 0.72135 0.0
C1770 C 0.41221 0.08162 0.72487 0.0
C1771 C 0.42953 0.07491 0.69197 0.0
C1772 C 0.45083 0.08675 0.70661 0.0
C1773 C 0.46898 0.07012 0.7251 0.0
C1774 C 0.45874 0.10126 0.65835 0.0
C1775 C 0.44297 0.10079 0.75403 0.0
C1776 C 0.4206 0.09775 0.7638 0.0
C1777 C 0.41035 0.10669 0.80996 0.0
C1778 C 0.42345 0.11829 0.84804 0.0
C1779 C 0.44641 0.1211 0.83917 0.0
C1780 C 0.45607 0.11285 0.7908 0.0
H1781 H 0.42632 0.42693 0.11127 0.0
H1782 H 0.46371 0.37092 0.17763 0.0
H1783 H 0.44653 0.37676 0.26832 0.0
H1784 H 0.43366 0.46082 0.22053 0.0
H1785 H 0.40658 0.47358 0.21811 0.0
H1786 H 0.41839 0.46248 0.15642 0.0
H1787 H 0.38393 0.43756 0.14237 0.0
H1788 H 0.37189 0.44875 0.20401 0.0
H1789 H 0.37536 0.41919 0.19709 0.0
H1790 H 0.43103 0.3931 0.35479 0.0
H1791 H 0.41696 0.41733 0.42835 0.0
H1792 H 0.38833 0.46145 0.30463 0.0
C1793 C 0.43041 0.41539 0.14428 0.0
C1794 C 0.44637 0.39842 0.13713 0.0
C1795 C 0.45143 0.38394 0.18182 0.0
C1796 C 0.44174 0.38713 0.23357 0.0
C1797 C 0.42675 0.40461 0.23969 0.0
C1798 C 0.42085 0.41828 0.19594 0.0
C1799 C 0.40614 0.4372 0.21422 0.0
C1800 C 0.41684 0.45984 0.20159 0.0
C1801 C 0.38295 0.43556 0.18786 0.0
C1802 C 0.40541 0.43259 0.27553 0.0
C1803 C 0.41726 0.41364 0.28946 0.0
C1804 C 0.42118 0.40759 0.34428 0.0
C1805 C 0.41316 0.42149 0.38581 0.0
C1806 C 0.40126 0.44113 0.37229 0.0
C1807 C 0.39683 0.44628 0.3164 0.0
loop_
_geom_bond_atom_site_label_1
_geom_bond_atom_site_label_2
_geom_bond_distance
_geom_bond_site_symmetry_2
_ccdc_geom_bond_type
Co0 O2 2.131 1_655 S
Co0 O8 2.074 . S
Co0 O11 2.093 1_654 S
Co0 O24 2.097 1_655 S
Co0 N41 2.151 1_554 S
Co0 N49 2.214 . S
Co1 O2 2.166 . S
Co1 O7 2.058 1_455 S
Co1 O17 2.057 1_455 S
Co1 O32 2.037 . S
Co1 N36 2.145 . S
Co1 N57 2.257 . S
O2 Co0 2.131 1_455 S
O2 Co1 2.166 . S
C3 O4 1.278 . S
C3 O11 1.224 . S
O4 C3 1.278 . S
C5 O6 1.245 1_554 S
C5 O17 1.232 . S
O6 C5 1.245 1_556 S
O7 Co1 2.058 1_655 S
O7 C33 1.269 . S
O8 Co0 2.074 . S
O8 C33 1.257 . S
H9 C34 0.930 . S
H10 C40 0.930 . S
O11 Co0 2.093 1_456 S
O11 C3 1.224 . S
H12 C44 0.929 . S
H13 C46 0.920 1_556 S
H14 C47 0.930 . S
H15 C45 0.929 1_554 S
H16 C48 0.928 . S
O17 Co1 2.057 1_655 S
O17 C5 1.232 . S
H18 C37 0.929 . S
H19 C38 0.929 . S
H20 C50 0.931 . S
H21 C42 0.929 . S
H22 C51 0.930 . S
H23 C43 0.931 . S
O24 Co0 2.097 1_455 S
O24 C52 1.214 . S
H25 C53 0.929 . S
H26 C54 0.929 . S
H27 C55 0.930 . S
H28 C56 0.929 . S
H29 C58 0.930 1_556 S
H30 C35 0.930 . S
H31 C39 0.930 . S
O32 Co1 2.037 . S
O32 C52 1.234 . S
C33 O7 1.269 . S
C33 O8 1.257 . S
C34 H9 0.930 . S
C34 C37 1.388 . S
C34 C39 1.418 . S
C35 H30 0.930 . S
C35 C38 1.404 . S
C35 C39 1.353 . S
N36 Co1 2.145 . S
N36 C37 1.397 . S
N36 C38 1.334 . S
C37 H18 0.929 . S
C37 C34 1.388 . S
C37 N36 1.397 . S
C38 H19 0.929 . S
C38 C35 1.404 . S
C38 N36 1.334 . S
C39 H31 0.930 . S
C39 C34 1.418 . S
C39 C35 1.353 . S
C40 H10 0.930 . S
C40 N41 1.330 . S
C40 C42 1.446 . S
N41 Co0 2.151 1_556 S
N41 C40 1.330 . S
N41 C45 1.418 . S
C42 H21 0.929 . S
C42 C40 1.446 . S
C42 C43 1.332 . S
C43 H23 0.931 . S
C43 C42 1.332 . S
C43 C44 1.267 . S
C44 H12 0.929 . S
C44 C43 1.267 . S
C44 C45 1.251 . S
C45 H15 0.929 1_556 S
C45 N41 1.418 . S
C45 C44 1.251 . S
C46 H13 0.920 1_554 S
C46 C48 1.403 1_554 S
C46 C51 1.272 . S
C47 H14 0.930 . S
C47 N49 1.325 . S
C47 C50 1.357 . S
C48 H16 0.928 . S
C48 C46 1.403 1_556 S
C48 N49 1.261 1_556 S
N49 Co0 2.214 . S
N49 C47 1.325 . S
N49 C48 1.261 1_554 S
C50 H20 0.931 . S
C50 C47 1.357 . S
C50 C51 1.312 . S
C51 H22 0.930 . S
C51 C46 1.272 . S
C51 C50 1.312 . S
C52 O24 1.214 . S
C52 O32 1.234 . S
C53 H25 0.929 . S
C53 C56 1.391 1_556 S
C53 C58 1.391 1_556 S
C54 H26 0.929 . S
C54 C55 1.390 . S
C54 N57 1.391 . S
C55 H27 0.930 . S
C55 C54 1.390 . S
C55 C56 1.392 . S
C56 H28 0.929 . S
C56 C53 1.391 1_554 S
C56 C55 1.392 . S
N57 Co1 2.257 . S
N57 C54 1.391 . S
N57 C58 1.388 . S
C58 H29 0.930 1_554 S
C58 C53 1.391 1_554 S
C58 N57 1.388 . S
Co59 O61 2.143 1_565 S
Co59 O67 2.074 . S
Co59 O70 2.093 1_565 S
Co59 O83 2.097 1_565 S
Co59 N100 2.151 . S
Co59 N108 2.214 . S
Co60 O61 2.160 . S
Co60 O66 2.058 1_545 S
Co60 O76 2.057 1_545 S
Co60 O91 2.037 . S
Co60 N95 2.145 . S
Co60 N116 2.257 . S
O61 Co59 2.143 1_545 S
O61 Co60 2.160 . S
C62 O63 1.278 . S
C62 O70 1.224 . S
O63 C62 1.278 . S
C64 O65 1.245 . S
C64 O76 1.232 . S
O65 C64 1.245 . S
O66 Co60 2.058 1_565 S
O66 C92 1.269 . S
O67 Co59 2.074 . S
O67 C92 1.257 . S
H68 C93 0.930 . S
H69 C99 0.930 . S
O70 Co59 2.093 1_545 S
O70 C62 1.224 . S
H71 C103 0.929 . S
H72 C105 0.930 . S
H73 C106 0.930 . S
H74 C104 0.929 . S
H75 C107 0.928 . S
O76 Co60 2.057 1_565 S
O76 C64 1.232 . S
H77 C96 0.929 . S
H78 C97 0.929 . S
H79 C109 0.931 . S
H80 C101 0.929 . S
H81 C110 0.930 1_455 S
H82 C102 0.931 . S
O83 Co59 2.097 1_545 S
O83 C111 1.214 . S
H84 C112 0.929 . S
H85 C113 0.929 . S
H86 C114 0.930 . S
H87 C115 0.929 . S
H88 C117 0.930 . S
H89 C94 0.930 . S
H90 C98 0.930 . S
O91 Co60 2.037 . S
O91 C111 1.234 . S
C92 O66 1.269 . S
C92 O67 1.257 . S
C93 H68 0.930 . S
C93 C96 1.388 . S
C93 C98 1.418 . S
C94 H89 0.930 . S
C94 C97 1.404 . S
C94 C98 1.353 . S
N95 Co60 2.145 . S
N95 C96 1.397 . S
N95 C97 1.334 . S
C96 H77 0.929 . S
C96 C93 1.388 . S
C96 N95 1.397 . S
C97 H78 0.929 . S
C97 C94 1.404 . S
C97 N95 1.334 . S
C98 H90 0.930 . S
C98 C93 1.418 . S
C98 C94 1.353 . S
C99 H69 0.930 . S
C99 N100 1.330 . S
C99 C101 1.446 . S
N100 Co59 2.151 . S
N100 C99 1.330 . S
N100 C104 1.418 . S
C101 H80 0.929 . S
C101 C99 1.446 . S
C101 C102 1.332 . S
C102 H82 0.931 . S
C102 C101 1.332 . S
C102 C103 1.267 . S
C103 H71 0.929 . S
C103 C102 1.267 . S
C103 C104 1.251 . S
C104 H74 0.929 . S
C104 N100 1.418 . S
C104 C103 1.251 . S
C105 H72 0.930 . S
C105 C107 1.406 . S
C105 C110 1.261 . S
C106 H73 0.930 . S
C106 N108 1.325 . S
C106 C109 1.357 . S
C107 H75 0.928 . S
C107 C105 1.406 . S
C107 N108 1.261 . S
N108 Co59 2.214 . S
N108 C106 1.325 . S
N108 C107 1.261 . S
C109 H79 0.931 . S
C109 C106 1.357 . S
C109 C110 1.312 . S
C110 H81 0.930 1_655 S
C110 C105 1.261 . S
C110 C109 1.312 . S
C111 O83 1.214 . S
C111 O91 1.234 . S
C112 H84 0.929 . S
C112 C115 1.391 . S
C112 C117 1.391 . S
C113 H85 0.929 . S
C113 C114 1.390 . S
C113 N116 1.391 . S
C114 H86 0.930 . S
C114 C113 1.390 . S
C114 C115 1.392 . S
C115 H87 0.929 . S
C115 C112 1.391 . S
C115 C114 1.392 . S
N116 Co60 2.257 . S
N116 C113 1.391 . S
N116 C117 1.388 . S
C117 H88 0.930 . S
C117 C112 1.391 . S
C117 N116 1.388 . S
Co118 O120 2.143 . S
Co118 O126 2.074 . S
Co118 O129 2.093 1_554 S
Co118 O142 2.097 . S
Co118 N159 2.151 1_554 S
Co118 N167 2.214 . S
Co119 O120 2.160 . S
Co119 O125 2.058 . S
Co119 O135 2.057 . S
Co119 O150 2.037 . S
Co119 N154 2.145 . S
Co119 N175 2.257 . S
O120 Co118 2.143 . S
O120 Co119 2.160 . S
C121 O122 1.278 . S
C121 O129 1.224 . S
O122 C121 1.278 . S
C123 O124 1.245 1_554 S
C123 O135 1.232 . S
O124 C123 1.245 1_556 S
O125 Co119 2.058 . S
O125 C151 1.269 . S
O126 Co118 2.074 . S
O126 C151 1.257 . S
H127 C152 0.930 . S
H128 C158 0.930 . S
O129 Co118 2.093 1_556 S
O129 C121 1.224 . S
H130 C162 0.929 . S
H131 C164 0.930 1_556 S
H132 C165 0.930 . S
H133 C163 0.929 1_554 S
H134 C166 0.928 . S
O135 Co119 2.057 . S
O135 C123 1.232 . S
H136 C155 0.929 . S
H137 C156 0.929 . S
H138 C168 0.931 . S
H139 C160 0.929 . S
H140 C169 0.930 1_545 S
H141 C161 0.931 . S
O142 Co118 2.097 . S
O142 C170 1.214 . S
H143 C171 0.929 1_556 S
H144 C172 0.929 . S
H145 C173 0.930 . S
H146 C174 0.929 . S
H147 C176 0.933 . S
H148 C153 0.930 . S
H149 C157 0.930 . S
O150 Co119 2.037 . S
O150 C170 1.234 . S
C151 O125 1.269 . S
C151 O126 1.257 . S
C152 H127 0.930 . S
C152 C155 1.388 . S
C152 C157 1.418 . S
C153 H148 0.930 . S
C153 C156 1.404 . S
C153 C157 1.353 . S
N154 Co119 2.145 . S
N154 C155 1.397 . S
N154 C156 1.334 . S
C155 H136 0.929 . S
C155 C152 1.388 . S
C155 N154 1.397 . S
C156 H137 0.929 . S
C156 C153 1.404 . S
C156 N154 1.334 . S
C157 H149 0.930 . S
C157 C152 1.418 . S
C157 C153 1.353 . S
C158 H128 0.930 . S
C158 N159 1.330 . S
C158 C160 1.446 . S
N159 Co118 2.151 1_556 S
N159 C158 1.330 . S
N159 C163 1.418 . S
C160 H139 0.929 . S
C160 C158 1.446 . S
C160 C161 1.332 . S
C161 H141 0.931 . S
C161 C160 1.332 . S
C161 C162 1.267 . S
C162 H130 0.929 . S
C162 C161 1.267 . S
C162 C163 1.251 . S
C163 H133 0.929 1_556 S
C163 N159 1.418 . S
C163 C162 1.251 . S
C164 H131 0.930 1_554 S
C164 C166 1.406 1_554 S
C164 C169 1.261 . S
C165 H132 0.930 . S
C165 N167 1.325 . S
C165 C168 1.357 . S
C166 H134 0.928 . S
C166 C164 1.406 1_556 S
C166 N167 1.261 1_556 S
N167 Co118 2.214 . S
N167 C165 1.325 . S
N167 C166 1.261 1_554 S
C168 H138 0.931 . S
C168 C165 1.357 . S
C168 C169 1.312 . S
C169 H140 0.930 1_565 S
C169 C164 1.261 . S
C169 C168 1.312 . S
C170 O142 1.214 . S
C170 O150 1.234 . S
C171 H143 0.929 1_554 S
C171 C174 1.391 . S
C171 C176 1.391 . S
C172 H144 0.929 . S
C172 C173 1.390 . S
C172 N175 1.391 . S
C173 H145 0.930 . S
C173 C172 1.390 . S
C173 C174 1.392 . S
C174 H146 0.929 . S
C174 C171 1.391 . S
C174 C173 1.392 . S
N175 Co119 2.257 . S
N175 C172 1.391 . S
N175 C176 1.388 . S
C176 H147 0.933 . S
C176 C171 1.391 . S
C176 N175 1.388 . S
Co177 O179 2.143 . S
Co177 O185 2.074 . S
Co177 O188 2.093 . S
Co177 O201 2.097 . S
Co177 N218 2.151 . S
Co177 N226 2.214 . S
Co178 O179 2.160 . S
Co178 O184 2.058 . S
Co178 O194 2.057 . S
Co178 O209 2.037 . S
Co178 N213 2.145 . S
Co178 N234 2.257 . S
O179 Co177 2.143 . S
O179 Co178 2.160 . S
C180 O181 1.278 . S
C180 O188 1.224 . S
O181 C180 1.278 . S
C182 O183 1.245 . S
C182 O194 1.232 . S
O183 C182 1.245 . S
O184 Co178 2.058 . S
O184 C210 1.269 . S
O185 Co177 2.074 . S
O185 C210 1.257 . S
H186 C211 0.930 . S
H187 C217 0.930 . S
O188 Co177 2.093 . S
O188 C180 1.224 . S
H189 C221 0.929 . S
H190 C223 0.930 . S
H191 C224 0.930 . S
H192 C222 0.929 . S
H193 C225 0.928 . S
O194 Co178 2.057 . S
O194 C182 1.232 . S
H195 C214 0.929 . S
H196 C215 0.929 . S
H197 C227 0.931 . S
H198 C219 0.929 . S
H199 C228 0.930 . S
H200 C220 0.931 . S
O201 Co177 2.097 . S
O201 C229 1.214 . S
H202 C230 0.929 . S
H203 C231 0.929 . S
H204 C232 0.930 . S
H205 C233 0.929 . S
H206 C235 0.930 . S
H207 C212 0.930 . S
H208 C216 0.930 . S
O209 Co178 2.037 . S
O209 C229 1.234 . S
C210 O184 1.269 . S
C210 O185 1.257 . S
C211 H186 0.930 . S
C211 C214 1.388 . S
C211 C216 1.418 . S
C212 H207 0.930 . S
C212 C215 1.404 . S
C212 C216 1.353 . S
N213 Co178 2.145 . S
N213 C214 1.397 . S
N213 C215 1.334 . S
C214 H195 0.929 . S
C214 C211 1.388 . S
C214 N213 1.397 . S
C215 H196 0.929 . S
C215 C212 1.404 . S
C215 N213 1.334 . S
C216 H208 0.930 . S
C216 C211 1.418 . S
C216 C212 1.353 . S
C217 H187 0.930 . S
C217 N218 1.330 . S
C217 C219 1.446 . S
N218 Co177 2.151 . S
N218 C217 1.330 . S
N218 C222 1.418 . S
C219 H198 0.929 . S
C219 C217 1.446 . S
C219 C220 1.332 . S
C220 H200 0.931 . S
C220 C219 1.332 . S
C220 C221 1.267 . S
C221 H189 0.929 . S
C221 C220 1.267 . S
C221 C222 1.251 . S
C222 H192 0.929 . S
C222 N218 1.418 . S
C222 C221 1.251 . S
C223 H190 0.930 . S
C223 C225 1.406 . S
C223 C228 1.261 . S
C224 H191 0.930 . S
C224 N226 1.325 . S
C224 C227 1.357 . S
C225 H193 0.928 . S
C225 C223 1.406 . S
C225 N226 1.261 . S
N226 Co177 2.214 . S
N226 C224 1.325 . S
N226 C225 1.261 . S
C227 H197 0.931 . S
C227 C224 1.357 . S
C227 C228 1.312 . S
C228 H199 0.930 . S
C228 C223 1.261 . S
C228 C227 1.312 . S
C229 O201 1.214 . S
C229 O209 1.234 . S
C230 H202 0.929 . S
C230 C233 1.391 . S
C230 C235 1.391 . S
C231 H203 0.929 . S
C231 C232 1.390 . S
C231 N234 1.391 . S
C232 H204 0.930 . S
C232 C231 1.390 . S
C232 C233 1.392 . S
C233 H205 0.929 . S
C233 C230 1.391 . S
C233 C232 1.392 . S
N234 Co178 2.257 . S
N234 C231 1.391 . S
N234 C235 1.388 . S
C235 H206 0.930 . S
C235 C230 1.391 . S
C235 N234 1.388 . S
Co236 O238 2.143 1_655 S
Co236 O244 2.074 . S
Co236 O247 2.093 1_656 S
Co236 O260 2.097 1_655 S
Co236 N277 2.151 1_556 S
Co236 N285 2.214 . S
Co237 O238 2.160 . S
Co237 O243 2.058 1_455 S
Co237 O253 2.057 1_455 S
Co237 O268 2.037 . S
Co237 N272 2.145 . S
Co237 N293 2.257 . S
O238 Co236 2.143 1_455 S
O238 Co237 2.160 . S
C239 O240 1.278 . S
C239 O247 1.224 . S
O240 C239 1.278 . S
C241 O242 1.245 1_556 S
C241 O253 1.232 . S
O242 C241 1.245 1_554 S
O243 Co237 2.058 1_655 S
O243 C269 1.269 . S
O244 Co236 2.074 . S
O244 C269 1.257 . S
H245 C270 0.930 . S
H246 C276 0.930 . S
O247 Co236 2.093 1_454 S
O247 C239 1.224 . S
H248 C280 0.929 . S
H249 C282 0.930 1_554 S
H250 C283 0.930 . S
H251 C281 0.929 1_556 S
H252 C284 0.928 1_554 S
O253 Co237 2.057 1_655 S
O253 C241 1.232 . S
H254 C273 0.929 . S
H255 C274 0.929 . S
H256 C286 0.931 . S
H257 C278 0.929 . S
H258 C287 0.930 1_545 S
H259 C279 0.931 . S
O260 Co236 2.097 1_455 S
O260 C288 1.214 . S
H261 C289 0.929 1_554 S
H262 C290 0.929 . S
H263 C291 0.930 . S
H264 C292 0.929 . S
H265 C294 0.930 . S
H266 C271 0.930 . S
H267 C275 0.930 . S
O268 Co237 2.037 . S
O268 C288 1.234 . S
C269 O243 1.269 . S
C269 O244 1.257 . S
C270 H245 0.930 . S
C270 C273 1.388 . S
C270 C275 1.418 . S
C271 H266 0.930 . S
C271 C274 1.404 . S
C271 C275 1.353 . S
N272 Co237 2.145 . S
N272 C273 1.397 . S
N272 C274 1.334 . S
C273 H254 0.929 . S
C273 C270 1.388 . S
C273 N272 1.397 . S
C274 H255 0.929 . S
C274 C271 1.404 . S
C274 N272 1.334 . S
C275 H267 0.930 . S
C275 C270 1.418 . S
C275 C271 1.353 . S
C276 H246 0.930 . S
C276 N277 1.330 . S
C276 C278 1.446 . S
N277 Co236 2.151 1_554 S
N277 C276 1.330 . S
N277 C281 1.418 . S
C278 H257 0.929 . S
C278 C276 1.446 . S
C278 C279 1.332 . S
C279 H259 0.931 . S
C279 C278 1.332 . S
C279 C280 1.267 . S
C280 H248 0.929 . S
C280 C279 1.267 . S
C280 C281 1.251 . S
C281 H251 0.929 1_554 S
C281 N277 1.418 . S
C281 C280 1.251 . S
C282 H249 0.930 1_556 S
C282 C284 1.406 . S
C282 C287 1.261 . S
C283 H250 0.930 . S
C283 N285 1.325 . S
C283 C286 1.357 . S
C284 H252 0.928 1_556 S
C284 C282 1.406 . S
C284 N285 1.261 . S
N285 Co236 2.214 . S
N285 C283 1.325 . S
N285 C284 1.261 . S
C286 H256 0.931 . S
C286 C283 1.357 . S
C286 C287 1.312 . S
C287 H258 0.930 1_565 S
C287 C282 1.261 . S
C287 C286 1.312 . S
C288 O260 1.214 . S
C288 O268 1.234 . S
C289 H261 0.929 1_556 S
C289 C292 1.391 . S
C289 C294 1.391 . S
C290 H262 0.929 . S
C290 C291 1.390 . S
C290 N293 1.391 . S
C291 H263 0.930 . S
C291 C290 1.390 . S
C291 C292 1.392 . S
C292 H264 0.929 . S
C292 C289 1.391 . S
C292 C291 1.392 . S
N293 Co237 2.257 . S
N293 C290 1.391 . S
N293 C294 1.388 . S
C294 H265 0.930 . S
C294 C289 1.391 . S
C294 N293 1.388 . S
Co295 O297 2.131 1_565 S
Co295 O303 2.074 . S
Co295 O306 2.093 1_565 S
Co295 O319 2.097 1_565 S
Co295 N336 2.151 . S
Co295 N344 2.214 . S
Co296 O297 2.166 . S
Co296 O302 2.058 1_545 S
Co296 O312 2.057 1_545 S
Co296 O327 2.037 . S
Co296 N331 2.145 . S
Co296 N352 2.257 . S
O297 Co295 2.131 1_545 S
O297 Co296 2.166 . S
C298 O299 1.278 . S
C298 O306 1.224 . S
O299 C298 1.278 . S
C300 O301 1.245 . S
C300 O312 1.232 . S
O301 C300 1.245 . S
O302 Co296 2.058 1_565 S
O302 C328 1.269 . S
O303 Co295 2.074 . S
O303 C328 1.257 . S
H304 C329 0.930 . S
H305 C335 0.930 . S
O306 Co295 2.093 1_545 S
O306 C298 1.224 . S
H307 C339 0.929 . S
H308 C341 0.930 . S
H309 C342 0.930 . S
H310 C340 0.929 . S
H311 C343 0.928 . S
O312 Co296 2.057 1_565 S
O312 C300 1.232 . S
H313 C332 0.929 . S
H314 C333 0.929 . S
H315 C345 0.931 . S
H316 C337 0.929 . S
H317 C346 0.930 . S
H318 C338 0.931 . S
O319 Co295 2.097 1_545 S
O319 C347 1.214 . S
H320 C348 0.929 . S
H321 C349 0.929 . S
H322 C350 0.930 . S
H323 C351 0.929 . S
H324 C353 0.930 . S
H325 C330 0.930 . S
H326 C334 0.930 . S
O327 Co296 2.037 . S
O327 C347 1.234 . S
C328 O302 1.269 . S
C328 O303 1.257 . S
C329 H304 0.930 . S
C329 C332 1.388 . S
C329 C334 1.418 . S
C330 H325 0.930 . S
C330 C333 1.404 . S
C330 C334 1.353 . S
N331 Co296 2.145 . S
N331 C332 1.397 . S
N331 C333 1.334 . S
C332 H313 0.929 . S
C332 C329 1.388 . S
C332 N331 1.397 . S
C333 H314 0.929 . S
C333 C330 1.404 . S
C333 N331 1.334 . S
C334 H326 0.930 . S
C334 C329 1.418 . S
C334 C330 1.353 . S
C335 H305 0.930 . S
C335 N336 1.330 . S
C335 C337 1.446 . S
N336 Co295 2.151 . S
N336 C335 1.330 . S
N336 C340 1.418 . S
C337 H316 0.929 . S
C337 C335 1.446 . S
C337 C338 1.332 . S
C338 H318 0.931 . S
C338 C337 1.332 . S
C338 C339 1.267 . S
C339 H307 0.929 . S
C339 C338 1.267 . S
C339 C340 1.251 . S
C340 H310 0.929 . S
C340 N336 1.418 . S
C340 C339 1.251 . S
C341 H308 0.930 . S
C341 C343 1.406 . S
C341 C346 1.261 . S
C342 H309 0.930 . S
C342 N344 1.325 . S
C342 C345 1.357 . S
C343 H311 0.928 . S
C343 C341 1.406 . S
C343 N344 1.261 . S
N344 Co295 2.214 . S
N344 C342 1.325 . S
N344 C343 1.261 . S
C345 H315 0.931 . S
C345 C342 1.357 . S
C345 C346 1.312 . S
C346 H317 0.930 . S
C346 C341 1.261 . S
C346 C345 1.312 . S
C347 O319 1.214 . S
C347 O327 1.234 . S
C348 H320 0.929 . S
C348 C351 1.391 . S
C348 C353 1.391 . S
C349 H321 0.929 . S
C349 C350 1.390 . S
C349 N352 1.391 . S
C350 H322 0.930 . S
C350 C349 1.390 . S
C350 C351 1.392 . S
C351 H323 0.929 . S
C351 C348 1.391 . S
C351 C350 1.392 . S
N352 Co296 2.257 . S
N352 C349 1.391 . S
N352 C353 1.388 . S
C353 H324 0.930 . S
C353 C348 1.391 . S
C353 N352 1.388 . S
Co354 O356 2.143 . S
Co354 O362 2.067 1_554 S
Co354 O365 2.099 . S
Co354 O378 2.093 1_554 S
Co354 N395 2.155 . S
Co354 N403 2.213 1_554 S
Co355 O356 2.160 1_556 S
Co355 O361 2.058 . S
Co355 O371 2.057 . S
Co355 O386 2.037 . S
Co355 N390 2.145 . S
Co355 N411 2.257 . S
O356 Co354 2.143 . S
O356 Co355 2.160 1_554 S
C357 O358 1.278 . S
C357 O365 1.224 . S
O358 C357 1.278 . S
C359 O360 1.245 . S
C359 O371 1.232 1_554 S
O360 C359 1.245 . S
O361 Co355 2.058 . S
O361 C387 1.269 . S
O362 Co354 2.067 1_556 S
O362 C387 1.257 . S
H363 C388 0.930 . S
H364 C394 0.930 . S
O365 Co354 2.099 . S
O365 C357 1.224 . S
H366 C398 0.929 . S
H367 C400 0.930 . S
H368 C401 0.930 . S
H369 C399 0.929 . S
H370 C402 0.928 . S
O371 Co355 2.057 . S
O371 C359 1.232 1_556 S
H372 C391 0.929 . S
H373 C392 0.929 . S
H374 C404 0.931 . S
H375 C396 0.929 . S
H376 C405 0.930 . S
H377 C397 0.931 . S
O378 Co354 2.093 1_556 S
O378 C406 1.214 . S
H379 C407 0.929 . S
H380 C408 0.929 . S
H381 C409 0.930 . S
H382 C410 0.929 1_554 S
H383 C412 0.930 . S
H384 C389 0.930 . S
H385 C393 0.930 . S
O386 Co355 2.037 . S
O386 C406 1.234 . S
C387 O361 1.269 . S
C387 O362 1.257 . S
C388 H363 0.930 . S
C388 C391 1.388 . S
C388 C393 1.418 . S
C389 H384 0.930 . S
C389 C392 1.404 . S
C389 C393 1.353 . S
N390 Co355 2.145 . S
N390 C391 1.397 . S
N390 C392 1.334 . S
C391 H372 0.929 . S
C391 C388 1.388 . S
C391 N390 1.397 . S
C392 H373 0.929 . S
C392 C389 1.404 . S
C392 N390 1.334 . S
C393 H385 0.930 . S
C393 C388 1.418 . S
C393 C389 1.353 . S
C394 H364 0.930 . S
C394 N395 1.330 . S
C394 C396 1.446 . S
N395 Co354 2.155 . S
N395 C394 1.330 . S
N395 C399 1.418 . S
C396 H375 0.929 . S
C396 C394 1.446 . S
C396 C397 1.332 . S
C397 H377 0.931 . S
C397 C396 1.332 . S
C397 C398 1.267 . S
C398 H366 0.929 . S
C398 C397 1.267 . S
C398 C399 1.251 . S
C399 H369 0.929 . S
C399 N395 1.418 . S
C399 C398 1.251 . S
C400 H367 0.930 . S
C400 C402 1.406 . S
C400 C405 1.261 1_554 S
C401 H368 0.930 . S
C401 N403 1.325 . S
C401 C404 1.357 . S
C402 H370 0.928 . S
C402 C400 1.406 . S
C402 N403 1.261 1_554 S
N403 Co354 2.213 1_556 S
N403 C401 1.325 . S
N403 C402 1.261 1_556 S
C404 H374 0.931 . S
C404 C401 1.357 . S
C404 C405 1.312 . S
C405 H376 0.930 . S
C405 C400 1.261 1_556 S
C405 C404 1.312 . S
C406 O378 1.214 . S
C406 O386 1.234 . S
C407 H379 0.929 . S
C407 C410 1.391 1_554 S
C407 C412 1.391 . S
C408 H380 0.929 . S
C408 C409 1.390 . S
C408 N411 1.391 . S
C409 H381 0.930 . S
C409 C408 1.390 . S
C409 C410 1.392 . S
C410 H382 0.929 1_556 S
C410 C407 1.391 1_556 S
C410 C409 1.392 . S
N411 Co355 2.257 . S
N411 C408 1.391 . S
N411 C412 1.388 1_556 S
C412 H383 0.930 . S
C412 C407 1.391 . S
C412 N411 1.388 1_554 S
Co413 O415 2.143 . S
Co413 O421 2.074 . S
Co413 O424 2.093 . S
Co413 O437 2.097 . S
Co413 N454 2.151 . S
Co413 N462 2.214 . S
Co414 O415 2.160 . S
Co414 O420 2.058 . S
Co414 O430 2.057 . S
Co414 O445 2.037 . S
Co414 N449 2.145 . S
Co414 N470 2.257 . S
O415 Co413 2.143 . S
O415 Co414 2.160 . S
C416 O417 1.278 . S
C416 O424 1.224 . S
O417 C416 1.278 . S
C418 O419 1.245 . S
C418 O430 1.232 . S
O419 C418 1.245 . S
O420 Co414 2.058 . S
O420 C446 1.269 . S
O421 Co413 2.074 . S
O421 C446 1.257 . S
H422 C447 0.930 . S
H423 C453 0.930 . S
O424 Co413 2.093 . S
O424 C416 1.224 . S
H425 C457 0.929 . S
H426 C459 0.930 . S
H427 C460 0.930 . S
H428 C458 0.929 . S
H429 C461 0.928 . S
O430 Co414 2.057 . S
O430 C418 1.232 . S
H431 C450 0.929 . S
H432 C451 0.929 . S
H433 C463 0.931 . S
H434 C455 0.929 . S
H435 C464 0.930 1_455 S
H436 C456 0.931 . S
O437 Co413 2.097 . S
O437 C465 1.214 . S
H438 C466 0.929 . S
H439 C467 0.929 . S
H440 C468 0.930 . S
H441 C469 0.929 . S
H442 C471 0.930 . S
H443 C448 0.930 . S
H444 C452 0.930 . S
O445 Co414 2.037 . S
O445 C465 1.234 . S
C446 O420 1.269 . S
C446 O421 1.257 . S
C447 H422 0.930 . S
C447 C450 1.388 . S
C447 C452 1.418 . S
C448 H443 0.930 . S
C448 C451 1.404 . S
C448 C452 1.353 . S
N449 Co414 2.145 . S
N449 C450 1.397 . S
N449 C451 1.334 . S
C450 H431 0.929 . S
C450 C447 1.388 . S
C450 N449 1.397 . S
C451 H432 0.929 . S
C451 C448 1.404 . S
C451 N449 1.334 . S
C452 H444 0.930 . S
C452 C447 1.418 . S
C452 C448 1.353 . S
C453 H423 0.930 . S
C453 N454 1.330 . S
C453 C455 1.446 . S
N454 Co413 2.151 . S
N454 C453 1.330 . S
N454 C458 1.418 . S
C455 H434 0.929 . S
C455 C453 1.446 . S
C455 C456 1.332 . S
C456 H436 0.931 . S
C456 C455 1.332 . S
C456 C457 1.267 . S
C457 H425 0.929 . S
C457 C456 1.267 . S
C457 C458 1.251 . S
C458 H428 0.929 . S
C458 N454 1.418 . S
C458 C457 1.251 . S
C459 H426 0.930 . S
C459 C461 1.406 . S
C459 C464 1.261 . S
C460 H427 0.930 . S
C460 N462 1.325 . S
C460 C463 1.357 . S
C461 H429 0.928 . S
C461 C459 1.406 . S
C461 N462 1.261 . S
N462 Co413 2.214 . S
N462 C460 1.325 . S
N462 C461 1.261 . S
C463 H433 0.931 . S
C463 C460 1.357 . S
C463 C464 1.312 . S
C464 H435 0.930 1_655 S
C464 C459 1.261 . S
C464 C463 1.312 . S
C465 O437 1.214 . S
C465 O445 1.234 . S
C466 H438 0.929 . S
C466 C469 1.391 . S
C466 C471 1.391 . S
C467 H439 0.929 . S
C467 C468 1.390 . S
C467 N470 1.391 . S
C468 H440 0.930 . S
C468 C467 1.390 . S
C468 C469 1.392 . S
C469 H441 0.929 . S
C469 C466 1.391 . S
C469 C468 1.392 . S
N470 Co414 2.257 . S
N470 C467 1.391 . S
N470 C471 1.388 . S
C471 H442 0.930 . S
C471 C466 1.391 . S
C471 N470 1.388 . S
Co472 O474 2.131 1_455 S
Co472 O480 2.074 . S
Co472 O483 2.093 1_456 S
Co472 O496 2.097 1_455 S
Co472 N513 2.151 1_556 S
Co472 N521 2.214 . S
Co473 O474 2.166 . S
Co473 O479 2.058 1_655 S
Co473 O489 2.057 1_655 S
Co473 O504 2.037 . S
Co473 N508 2.145 . S
Co473 N529 2.257 . S
O474 Co472 2.131 1_655 S
O474 Co473 2.166 . S
C475 O476 1.278 . S
C475 O483 1.224 . S
O476 C475 1.278 . S
C477 O478 1.245 1_556 S
C477 O489 1.232 . S
O478 C477 1.245 1_554 S
O479 Co473 2.058 1_455 S
O479 C505 1.269 . S
O480 Co472 2.074 . S
O480 C505 1.257 . S
H481 C506 0.930 . S
H482 C512 0.930 . S
O483 Co472 2.093 1_654 S
O483 C475 1.224 . S
H484 C516 0.929 . S
H485 C518 0.920 1_554 S
H486 C519 0.930 . S
H487 C517 0.929 1_556 S
H488 C520 0.928 . S
O489 Co473 2.057 1_455 S
O489 C477 1.232 . S
H490 C509 0.929 . S
H491 C510 0.929 . S
H492 C522 0.931 . S
H493 C514 0.929 . S
H494 C523 0.930 . S
H495 C515 0.931 . S
O496 Co472 2.097 1_655 S
O496 C524 1.214 . S
H497 C525 0.929 . S
H498 C526 0.929 . S
H499 C527 0.930 . S
H500 C528 0.929 . S
H501 C530 0.930 1_554 S
H502 C507 0.930 . S
H503 C511 0.930 . S
O504 Co473 2.037 . S
O504 C524 1.234 . S
C505 O479 1.269 . S
C505 O480 1.257 . S
C506 H481 0.930 . S
C506 C509 1.388 . S
C506 C511 1.418 . S
C507 H502 0.930 . S
C507 C510 1.404 . S
C507 C511 1.353 . S
N508 Co473 2.145 . S
N508 C509 1.397 . S
N508 C510 1.334 . S
C509 H490 0.929 . S
C509 C506 1.388 . S
C509 N508 1.397 . S
C510 H491 0.929 . S
C510 C507 1.404 . S
C510 N508 1.334 . S
C511 H503 0.930 . S
C511 C506 1.418 . S
C511 C507 1.353 . S
C512 H482 0.930 . S
C512 N513 1.330 . S
C512 C514 1.446 . S
N513 Co472 2.151 1_554 S
N513 C512 1.330 . S
N513 C517 1.418 . S
C514 H493 0.929 . S
C514 C512 1.446 . S
C514 C515 1.332 . S
C515 H495 0.931 . S
C515 C514 1.332 . S
C515 C516 1.267 . S
C516 H484 0.929 . S
C516 C515 1.267 . S
C516 C517 1.251 . S
C517 H487 0.929 1_554 S
C517 N513 1.418 . S
C517 C516 1.251 . S
C518 H485 0.920 1_556 S
C518 C520 1.403 1_556 S
C518 C523 1.272 . S
C519 H486 0.930 . S
C519 N521 1.325 . S
C519 C522 1.357 . S
C520 H488 0.928 . S
C520 C518 1.403 1_554 S
C520 N521 1.261 1_554 S
N521 Co472 2.214 . S
N521 C519 1.325 . S
N521 C520 1.261 1_556 S
C522 H492 0.931 . S
C522 C519 1.357 . S
C522 C523 1.312 . S
C523 H494 0.930 . S
C523 C518 1.272 . S
C523 C522 1.312 . S
C524 O496 1.214 . S
C524 O504 1.234 . S
C525 H497 0.929 . S
C525 C528 1.391 1_554 S
C525 C530 1.391 1_554 S
C526 H498 0.929 . S
C526 C527 1.390 . S
C526 N529 1.391 . S
C527 H499 0.930 . S
C527 C526 1.390 . S
C527 C528 1.392 . S
C528 H500 0.929 . S
C528 C525 1.391 1_556 S
C528 C527 1.392 . S
N529 Co473 2.257 . S
N529 C526 1.391 . S
N529 C530 1.388 . S
C530 H501 0.930 1_556 S
C530 C525 1.391 1_556 S
C530 N529 1.388 . S
Co531 O533 2.143 1_545 S
Co531 O539 2.074 . S
Co531 O542 2.093 1_545 S
Co531 O555 2.097 1_545 S
Co531 N572 2.151 . S
Co531 N580 2.214 . S
Co532 O533 2.160 . S
Co532 O538 2.058 1_565 S
Co532 O548 2.057 1_565 S
Co532 O563 2.037 . S
Co532 N567 2.145 . S
Co532 N588 2.257 . S
O533 Co531 2.143 1_565 S
O533 Co532 2.160 . S
C534 O535 1.278 . S
C534 O542 1.224 . S
O535 C534 1.278 . S
C536 O537 1.245 . S
C536 O548 1.232 . S
O537 C536 1.245 . S
O538 Co532 2.058 1_545 S
O538 C564 1.269 . S
O539 Co531 2.074 . S
O539 C564 1.257 . S
H540 C565 0.930 . S
H541 C571 0.930 . S
O542 Co531 2.093 1_565 S
O542 C534 1.224 . S
H543 C575 0.929 . S
H544 C577 0.930 . S
H545 C578 0.930 . S
H546 C576 0.929 . S
H547 C579 0.928 . S
O548 Co532 2.057 1_545 S
O548 C536 1.232 . S
H549 C568 0.929 . S
H550 C569 0.929 . S
H551 C581 0.931 . S
H552 C573 0.929 . S
H553 C582 0.930 1_655 S
H554 C574 0.931 . S
O555 Co531 2.097 1_565 S
O555 C583 1.214 . S
H556 C584 0.929 . S
H557 C585 0.929 . S
H558 C586 0.930 . S
H559 C587 0.929 . S
H560 C589 0.930 . S
H561 C566 0.930 . S
H562 C570 0.930 . S
O563 Co532 2.037 . S
O563 C583 1.234 . S
C564 O538 1.269 . S
C564 O539 1.257 . S
C565 H540 0.930 . S
C565 C568 1.388 . S
C565 C570 1.418 . S
C566 H561 0.930 . S
C566 C569 1.404 . S
C566 C570 1.353 . S
N567 Co532 2.145 . S
N567 C568 1.397 . S
N567 C569 1.334 . S
C568 H549 0.929 . S
C568 C565 1.388 . S
C568 N567 1.397 . S
C569 H550 0.929 . S
C569 C566 1.404 . S
C569 N567 1.334 . S
C570 H562 0.930 . S
C570 C565 1.418 . S
C570 C566 1.353 . S
C571 H541 0.930 . S
C571 N572 1.330 . S
C571 C573 1.446 . S
N572 Co531 2.151 . S
N572 C571 1.330 . S
N572 C576 1.418 . S
C573 H552 0.929 . S
C573 C571 1.446 . S
C573 C574 1.332 . S
C574 H554 0.931 . S
C574 C573 1.332 . S
C574 C575 1.267 . S
C575 H543 0.929 . S
C575 C574 1.267 . S
C575 C576 1.251 . S
C576 H546 0.929 . S
C576 N572 1.418 . S
C576 C575 1.251 . S
C577 H544 0.930 . S
C577 C579 1.406 . S
C577 C582 1.261 . S
C578 H545 0.930 . S
C578 N580 1.325 . S
C578 C581 1.357 . S
C579 H547 0.928 . S
C579 C577 1.406 . S
C579 N580 1.261 . S
N580 Co531 2.214 . S
N580 C578 1.325 . S
N580 C579 1.261 . S
C581 H551 0.931 . S
C581 C578 1.357 . S
C581 C582 1.312 . S
C582 H553 0.930 1_455 S
C582 C577 1.261 . S
C582 C581 1.312 . S
C583 O555 1.214 . S
C583 O563 1.234 . S
C584 H556 0.929 . S
C584 C587 1.391 . S
C584 C589 1.391 . S
C585 H557 0.929 . S
C585 C586 1.390 . S
C585 N588 1.391 . S
C586 H558 0.930 . S
C586 C585 1.390 . S
C586 C587 1.392 . S
C587 H559 0.929 . S
C587 C584 1.391 . S
C587 C586 1.392 . S
N588 Co532 2.257 . S
N588 C585 1.391 . S
N588 C589 1.388 . S
C589 H560 0.930 . S
C589 C584 1.391 . S
C589 N588 1.388 . S
Co590 O592 2.143 . S
Co590 O598 2.074 . S
Co590 O601 2.093 1_556 S
Co590 O614 2.097 . S
Co590 N631 2.151 1_556 S
Co590 N639 2.214 . S
Co591 O592 2.160 . S
Co591 O597 2.058 . S
Co591 O607 2.057 . S
Co591 O622 2.037 . S
Co591 N626 2.145 . S
Co591 N647 2.257 . S
O592 Co590 2.143 . S
O592 Co591 2.160 . S
C593 O594 1.278 . S
C593 O601 1.224 . S
O594 C593 1.278 . S
C595 O596 1.245 1_556 S
C595 O607 1.232 . S
O596 C595 1.245 1_554 S
O597 Co591 2.058 . S
O597 C623 1.269 . S
O598 Co590 2.074 . S
O598 C623 1.257 . S
H599 C624 0.930 . S
H600 C630 0.930 . S
O601 Co590 2.093 1_554 S
O601 C593 1.224 . S
H602 C634 0.929 . S
H603 C636 0.930 1_554 S
H604 C637 0.930 . S
H605 C635 0.929 1_556 S
H606 C638 0.928 . S
O607 Co591 2.057 . S
O607 C595 1.232 . S
H608 C627 0.929 . S
H609 C628 0.929 . S
H610 C640 0.931 . S
H611 C632 0.929 . S
H612 C641 0.930 1_565 S
H613 C633 0.931 . S
O614 Co590 2.097 . S
O614 C642 1.214 . S
H615 C643 0.929 1_554 S
H616 C644 0.929 . S
H617 C645 0.930 . S
H618 C646 0.929 . S
H619 C648 0.933 . S
H620 C625 0.930 . S
H621 C629 0.930 . S
O622 Co591 2.037 . S
O622 C642 1.234 . S
C623 O597 1.269 . S
C623 O598 1.257 . S
C624 H599 0.930 . S
C624 C627 1.388 . S
C624 C629 1.418 . S
C625 H620 0.930 . S
C625 C628 1.404 . S
C625 C629 1.353 . S
N626 Co591 2.145 . S
N626 C627 1.397 . S
N626 C628 1.334 . S
C627 H608 0.929 . S
C627 C624 1.388 . S
C627 N626 1.397 . S
C628 H609 0.929 . S
C628 C625 1.404 . S
C628 N626 1.334 . S
C629 H621 0.930 . S
C629 C624 1.418 . S
C629 C625 1.353 . S
C630 H600 0.930 . S
C630 N631 1.330 . S
C630 C632 1.446 . S
N631 Co590 2.151 1_554 S
N631 C630 1.330 . S
N631 C635 1.418 . S
C632 H611 0.929 . S
C632 C630 1.446 . S
C632 C633 1.332 . S
C633 H613 0.931 . S
C633 C632 1.332 . S
C633 C634 1.267 . S
C634 H602 0.929 . S
C634 C633 1.267 . S
C634 C635 1.251 . S
C635 H605 0.929 1_554 S
C635 N631 1.418 . S
C635 C634 1.251 . S
C636 H603 0.930 1_556 S
C636 C638 1.406 1_556 S
C636 C641 1.261 . S
C637 H604 0.930 . S
C637 N639 1.325 . S
C637 C640 1.357 . S
C638 H606 0.928 . S
C638 C636 1.406 1_554 S
C638 N639 1.261 1_554 S
N639 Co590 2.214 . S
N639 C637 1.325 . S
N639 C638 1.261 1_556 S
C640 H610 0.931 . S
C640 C637 1.357 . S
C640 C641 1.312 . S
C641 H612 0.930 1_545 S
C641 C636 1.261 . S
C641 C640 1.312 . S
C642 O614 1.214 . S
C642 O622 1.234 . S
C643 H615 0.929 1_556 S
C643 C646 1.391 . S
C643 C648 1.391 . S
C644 H616 0.929 . S
C644 C645 1.390 . S
C644 N647 1.391 . S
C645 H617 0.930 . S
C645 C644 1.390 . S
C645 C646 1.392 . S
C646 H618 0.929 . S
C646 C643 1.391 . S
C646 C645 1.392 . S
N647 Co591 2.257 . S
N647 C644 1.391 . S
N647 C648 1.388 . S
C648 H619 0.933 . S
C648 C643 1.391 . S
C648 N647 1.388 . S
Co649 O651 2.143 . S
Co649 O657 2.074 . S
Co649 O660 2.093 . S
Co649 O673 2.097 . S
Co649 N690 2.151 . S
Co649 N698 2.214 . S
Co650 O651 2.160 . S
Co650 O656 2.058 . S
Co650 O666 2.057 . S
Co650 O681 2.037 . S
Co650 N685 2.145 . S
Co650 N706 2.257 . S
O651 Co649 2.143 . S
O651 Co650 2.160 . S
C652 O653 1.278 . S
C652 O660 1.224 . S
O653 C652 1.278 . S
C654 O655 1.245 . S
C654 O666 1.232 . S
O655 C654 1.245 . S
O656 Co650 2.058 . S
O656 C682 1.269 . S
O657 Co649 2.074 . S
O657 C682 1.257 . S
H658 C683 0.930 . S
H659 C689 0.930 . S
O660 Co649 2.093 . S
O660 C652 1.224 . S
H661 C693 0.929 . S
H662 C695 0.930 . S
H663 C696 0.930 . S
H664 C694 0.929 . S
H665 C697 0.928 . S
O666 Co650 2.057 . S
O666 C654 1.232 . S
H667 C686 0.929 . S
H668 C687 0.929 . S
H669 C699 0.931 . S
H670 C691 0.929 . S
H671 C700 0.930 . S
H672 C692 0.931 . S
O673 Co649 2.097 . S
O673 C701 1.214 . S
H674 C702 0.929 . S
H675 C703 0.929 . S
H676 C704 0.930 . S
H677 C705 0.929 . S
H678 C707 0.930 . S
H679 C684 0.930 . S
H680 C688 0.930 . S
O681 Co650 2.037 . S
O681 C701 1.234 . S
C682 O656 1.269 . S
C682 O657 1.257 . S
C683 H658 0.930 . S
C683 C686 1.388 . S
C683 C688 1.418 . S
C684 H679 0.930 . S
C684 C687 1.404 . S
C684 C688 1.353 . S
N685 Co650 2.145 . S
N685 C686 1.397 . S
N685 C687 1.334 . S
C686 H667 0.929 . S
C686 C683 1.388 . S
C686 N685 1.397 . S
C687 H668 0.929 . S
C687 C684 1.404 . S
C687 N685 1.334 . S
C688 H680 0.930 . S
C688 C683 1.418 . S
C688 C684 1.353 . S
C689 H659 0.930 . S
C689 N690 1.330 . S
C689 C691 1.446 . S
N690 Co649 2.151 . S
N690 C689 1.330 . S
N690 C694 1.418 . S
C691 H670 0.929 . S
C691 C689 1.446 . S
C691 C692 1.332 . S
C692 H672 0.931 . S
C692 C691 1.332 . S
C692 C693 1.267 . S
C693 H661 0.929 . S
C693 C692 1.267 . S
C693 C694 1.251 . S
C694 H664 0.929 . S
C694 N690 1.418 . S
C694 C693 1.251 . S
C695 H662 0.930 . S
C695 C697 1.406 . S
C695 C700 1.261 . S
C696 H663 0.930 . S
C696 N698 1.325 . S
C696 C699 1.357 . S
C697 H665 0.928 . S
C697 C695 1.406 . S
C697 N698 1.261 . S
N698 Co649 2.214 . S
N698 C696 1.325 . S
N698 C697 1.261 . S
C699 H669 0.931 . S
C699 C696 1.357 . S
C699 C700 1.312 . S
C700 H671 0.930 . S
C700 C695 1.261 . S
C700 C699 1.312 . S
C701 O673 1.214 . S
C701 O681 1.234 . S
C702 H674 0.929 . S
C702 C705 1.391 . S
C702 C707 1.391 . S
C703 H675 0.929 . S
C703 C704 1.390 . S
C703 N706 1.391 . S
C704 H676 0.930 . S
C704 C703 1.390 . S
C704 C705 1.392 . S
C705 H677 0.929 . S
C705 C702 1.391 . S
C705 C704 1.392 . S
N706 Co650 2.257 . S
N706 C703 1.391 . S
N706 C707 1.388 . S
C707 H678 0.930 . S
C707 C702 1.391 . S
C707 N706 1.388 . S
Co708 O710 2.143 1_455 S
Co708 O716 2.074 . S
Co708 O719 2.093 1_454 S
Co708 O732 2.097 1_455 S
Co708 N749 2.151 1_554 S
Co708 N757 2.214 . S
Co709 O710 2.160 . S
Co709 O715 2.058 1_655 S
Co709 O725 2.057 1_655 S
Co709 O740 2.037 . S
Co709 N744 2.145 . S
Co709 N765 2.257 . S
O710 Co708 2.143 1_655 S
O710 Co709 2.160 . S
C711 O712 1.278 . S
C711 O719 1.224 . S
O712 C711 1.278 . S
C713 O714 1.245 1_554 S
C713 O725 1.232 . S
O714 C713 1.245 1_556 S
O715 Co709 2.058 1_455 S
O715 C741 1.269 . S
O716 Co708 2.074 . S
O716 C741 1.257 . S
H717 C742 0.930 . S
H718 C748 0.930 . S
O719 Co708 2.093 1_656 S
O719 C711 1.224 . S
H720 C752 0.929 . S
H721 C754 0.930 1_556 S
H722 C755 0.930 . S
H723 C753 0.929 1_554 S
H724 C756 0.928 1_556 S
O725 Co709 2.057 1_455 S
O725 C713 1.232 . S
H726 C745 0.929 . S
H727 C746 0.929 . S
H728 C758 0.931 . S
H729 C750 0.929 . S
H730 C759 0.930 1_565 S
H731 C751 0.931 . S
O732 Co708 2.097 1_655 S
O732 C760 1.214 . S
H733 C761 0.929 1_556 S
H734 C762 0.929 . S
H735 C763 0.930 . S
H736 C764 0.929 . S
H737 C766 0.930 . S
H738 C743 0.930 . S
H739 C747 0.930 . S
O740 Co709 2.037 . S
O740 C760 1.234 . S
C741 O715 1.269 . S
C741 O716 1.257 . S
C742 H717 0.930 . S
C742 C745 1.388 . S
C742 C747 1.418 . S
C743 H738 0.930 . S
C743 C746 1.404 . S
C743 C747 1.353 . S
N744 Co709 2.145 . S
N744 C745 1.397 . S
N744 C746 1.334 . S
C745 H726 0.929 . S
C745 C742 1.388 . S
C745 N744 1.397 . S
C746 H727 0.929 . S
C746 C743 1.404 . S
C746 N744 1.334 . S
C747 H739 0.930 . S
C747 C742 1.418 . S
C747 C743 1.353 . S
C748 H718 0.930 . S
C748 N749 1.330 . S
C748 C750 1.446 . S
N749 Co708 2.151 1_556 S
N749 C748 1.330 . S
N749 C753 1.418 . S
C750 H729 0.929 . S
C750 C748 1.446 . S
C750 C751 1.332 . S
C751 H731 0.931 . S
C751 C750 1.332 . S
C751 C752 1.267 . S
C752 H720 0.929 . S
C752 C751 1.267 . S
C752 C753 1.251 . S
C753 H723 0.929 1_556 S
C753 N749 1.418 . S
C753 C752 1.251 . S
C754 H721 0.930 1_554 S
C754 C756 1.406 . S
C754 C759 1.261 . S
C755 H722 0.930 . S
C755 N757 1.325 . S
C755 C758 1.357 . S
C756 H724 0.928 1_554 S
C756 C754 1.406 . S
C756 N757 1.261 . S
N757 Co708 2.214 . S
N757 C755 1.325 . S
N757 C756 1.261 . S
C758 H728 0.931 . S
C758 C755 1.357 . S
C758 C759 1.312 . S
C759 H730 0.930 1_545 S
C759 C754 1.261 . S
C759 C758 1.312 . S
C760 O732 1.214 . S
C760 O740 1.234 . S
C761 H733 0.929 1_554 S
C761 C764 1.391 . S
C761 C766 1.391 . S
C762 H734 0.929 . S
C762 C763 1.390 . S
C762 N765 1.391 . S
C763 H735 0.930 . S
C763 C762 1.390 . S
C763 C764 1.392 . S
C764 H736 0.929 . S
C764 C761 1.391 . S
C764 C763 1.392 . S
N765 Co709 2.257 . S
N765 C762 1.391 . S
N765 C766 1.388 . S
C766 H737 0.930 . S
C766 C761 1.391 . S
C766 N765 1.388 . S
Co767 O769 2.131 1_545 S
Co767 O775 2.074 . S
Co767 O778 2.093 1_545 S
Co767 O791 2.097 1_545 S
Co767 N808 2.151 . S
Co767 N816 2.214 . S
Co768 O769 2.166 . S
Co768 O774 2.058 1_565 S
Co768 O784 2.057 1_565 S
Co768 O799 2.037 . S
Co768 N803 2.145 . S
Co768 N824 2.257 . S
O769 Co767 2.131 1_565 S
O769 Co768 2.166 . S
C770 O771 1.278 . S
C770 O778 1.224 . S
O771 C770 1.278 . S
C772 O773 1.245 . S
C772 O784 1.232 . S
O773 C772 1.245 . S
O774 Co768 2.058 1_545 S
O774 C800 1.269 . S
O775 Co767 2.074 . S
O775 C800 1.257 . S
H776 C801 0.930 . S
H777 C807 0.930 . S
O778 Co767 2.093 1_565 S
O778 C770 1.224 . S
H779 C811 0.929 . S
H780 C813 0.930 . S
H781 C814 0.930 . S
H782 C812 0.929 . S
H783 C815 0.928 . S
O784 Co768 2.057 1_545 S
O784 C772 1.232 . S
H785 C804 0.929 . S
H786 C805 0.929 . S
H787 C817 0.931 . S
H788 C809 0.929 . S
H789 C818 0.930 . S
H790 C810 0.931 . S
O791 Co767 2.097 1_565 S
O791 C819 1.214 . S
H792 C820 0.929 . S
H793 C821 0.929 . S
H794 C822 0.930 . S
H795 C823 0.929 . S
H796 C825 0.930 . S
H797 C802 0.930 . S
H798 C806 0.930 . S
O799 Co768 2.037 . S
O799 C819 1.234 . S
C800 O774 1.269 . S
C800 O775 1.257 . S
C801 H776 0.930 . S
C801 C804 1.388 . S
C801 C806 1.418 . S
C802 H797 0.930 . S
C802 C805 1.404 . S
C802 C806 1.353 . S
N803 Co768 2.145 . S
N803 C804 1.397 . S
N803 C805 1.334 . S
C804 H785 0.929 . S
C804 C801 1.388 . S
C804 N803 1.397 . S
C805 H786 0.929 . S
C805 C802 1.404 . S
C805 N803 1.334 . S
C806 H798 0.930 . S
C806 C801 1.418 . S
C806 C802 1.353 . S
C807 H777 0.930 . S
C807 N808 1.330 . S
C807 C809 1.446 . S
N808 Co767 2.151 . S
N808 C807 1.330 . S
N808 C812 1.418 . S
C809 H788 0.929 . S
C809 C807 1.446 . S
C809 C810 1.332 . S
C810 H790 0.931 . S
C810 C809 1.332 . S
C810 C811 1.267 . S
C811 H779 0.929 . S
C811 C810 1.267 . S
C811 C812 1.251 . S
C812 H782 0.929 . S
C812 N808 1.418 . S
C812 C811 1.251 . S
C813 H780 0.930 . S
C813 C815 1.406 . S
C813 C818 1.261 . S
C814 H781 0.930 . S
C814 N816 1.325 . S
C814 C817 1.357 . S
C815 H783 0.928 . S
C815 C813 1.406 . S
C815 N816 1.261 . S
N816 Co767 2.214 . S
N816 C814 1.325 . S
N816 C815 1.261 . S
C817 H787 0.931 . S
C817 C814 1.357 . S
C817 C818 1.312 . S
C818 H789 0.930 . S
C818 C813 1.261 . S
C818 C817 1.312 . S
C819 O791 1.214 . S
C819 O799 1.234 . S
C820 H792 0.929 . S
C820 C823 1.391 . S
C820 C825 1.391 . S
C821 H793 0.929 . S
C821 C822 1.390 . S
C821 N824 1.391 . S
C822 H794 0.930 . S
C822 C821 1.390 . S
C822 C823 1.392 . S
C823 H795 0.929 . S
C823 C820 1.391 . S
C823 C822 1.392 . S
N824 Co768 2.257 . S
N824 C821 1.391 . S
N824 C825 1.388 . S
C825 H796 0.930 . S
C825 C820 1.391 . S
C825 N824 1.388 . S
Co826 O828 2.143 . S
Co826 O834 2.067 1_556 S
Co826 O837 2.099 . S
Co826 O850 2.093 1_556 S
Co826 N867 2.155 . S
Co826 N875 2.213 1_556 S
Co827 O828 2.160 1_554 S
Co827 O833 2.058 . S
Co827 O843 2.057 . S
Co827 O858 2.037 . S
Co827 N862 2.145 . S
Co827 N883 2.257 . S
O828 Co826 2.143 . S
O828 Co827 2.160 1_556 S
C829 O830 1.278 . S
C829 O837 1.224 . S
O830 C829 1.278 . S
C831 O832 1.245 . S
C831 O843 1.232 1_556 S
O832 C831 1.245 . S
O833 Co827 2.058 . S
O833 C859 1.269 . S
O834 Co826 2.067 1_554 S
O834 C859 1.257 . S
H835 C860 0.930 . S
H836 C866 0.930 . S
O837 Co826 2.099 . S
O837 C829 1.224 . S
H838 C870 0.929 . S
H839 C872 0.930 . S
H840 C873 0.930 . S
H841 C871 0.929 . S
H842 C874 0.928 . S
O843 Co827 2.057 . S
O843 C831 1.232 1_554 S
H844 C863 0.929 . S
H845 C864 0.929 . S
H846 C876 0.931 . S
H847 C868 0.929 . S
H848 C877 0.930 . S
H849 C869 0.931 . S
O850 Co826 2.093 1_554 S
O850 C878 1.214 . S
H851 C879 0.929 . S
H852 C880 0.929 . S
H853 C881 0.930 . S
H854 C882 0.929 1_556 S
H855 C884 0.930 . S
H856 C861 0.930 . S
H857 C865 0.930 . S
O858 Co827 2.037 . S
O858 C878 1.234 . S
C859 O833 1.269 . S
C859 O834 1.257 . S
C860 H835 0.930 . S
C860 C863 1.388 . S
C860 C865 1.418 . S
C861 H856 0.930 . S
C861 C864 1.404 . S
C861 C865 1.353 . S
N862 Co827 2.145 . S
N862 C863 1.397 . S
N862 C864 1.334 . S
C863 H844 0.929 . S
C863 C860 1.388 . S
C863 N862 1.397 . S
C864 H845 0.929 . S
C864 C861 1.404 . S
C864 N862 1.334 . S
C865 H857 0.930 . S
C865 C860 1.418 . S
C865 C861 1.353 . S
C866 H836 0.930 . S
C866 N867 1.330 . S
C866 C868 1.446 . S
N867 Co826 2.155 . S
N867 C866 1.330 . S
N867 C871 1.418 . S
C868 H847 0.929 . S
C868 C866 1.446 . S
C868 C869 1.332 . S
C869 H849 0.931 . S
C869 C868 1.332 . S
C869 C870 1.267 . S
C870 H838 0.929 . S
C870 C869 1.267 . S
C870 C871 1.251 . S
C871 H841 0.929 . S
C871 N867 1.418 . S
C871 C870 1.251 . S
C872 H839 0.930 . S
C872 C874 1.406 . S
C872 C877 1.261 1_556 S
C873 H840 0.930 . S
C873 N875 1.325 . S
C873 C876 1.357 . S
C874 H842 0.928 . S
C874 C872 1.406 . S
C874 N875 1.261 1_556 S
N875 Co826 2.213 1_554 S
N875 C873 1.325 . S
N875 C874 1.261 1_554 S
C876 H846 0.931 . S
C876 C873 1.357 . S
C876 C877 1.312 . S
C877 H848 0.930 . S
C877 C872 1.261 1_554 S
C877 C876 1.312 . S
C878 O850 1.214 . S
C878 O858 1.234 . S
C879 H851 0.929 . S
C879 C882 1.391 1_556 S
C879 C884 1.391 . S
C880 H852 0.929 . S
C880 C881 1.390 . S
C880 N883 1.391 . S
C881 H853 0.930 . S
C881 C880 1.390 . S
C881 C882 1.392 . S
C882 H854 0.929 1_554 S
C882 C879 1.391 1_554 S
C882 C881 1.392 . S
N883 Co827 2.257 . S
N883 C880 1.391 . S
N883 C884 1.388 1_554 S
C884 H855 0.930 . S
C884 C879 1.391 . S
C884 N883 1.388 1_556 S
Co885 O887 2.143 . S
Co885 O893 2.074 . S
Co885 O896 2.093 . S
Co885 O909 2.097 . S
Co885 N926 2.151 . S
Co885 N934 2.214 . S
Co886 O887 2.160 . S
Co886 O892 2.058 . S
Co886 O902 2.057 . S
Co886 O917 2.037 . S
Co886 N921 2.145 . S
Co886 N942 2.257 . S
O887 Co885 2.143 . S
O887 Co886 2.160 . S
C888 O889 1.278 . S
C888 O896 1.224 . S
O889 C888 1.278 . S
C890 O891 1.245 . S
C890 O902 1.232 . S
O891 C890 1.245 . S
O892 Co886 2.058 . S
O892 C918 1.269 . S
O893 Co885 2.074 . S
O893 C918 1.257 . S
H894 C919 0.930 . S
H895 C925 0.930 . S
O896 Co885 2.093 . S
O896 C888 1.224 . S
H897 C929 0.929 . S
H898 C931 0.930 . S
H899 C932 0.930 . S
H900 C930 0.929 . S
H901 C933 0.928 . S
O902 Co886 2.057 . S
O902 C890 1.232 . S
H903 C922 0.929 . S
H904 C923 0.929 . S
H905 C935 0.931 . S
H906 C927 0.929 . S
H907 C936 0.930 1_655 S
H908 C928 0.931 . S
O909 Co885 2.097 . S
O909 C937 1.214 . S
H910 C938 0.929 . S
H911 C939 0.929 . S
H912 C940 0.930 . S
H913 C941 0.929 . S
H914 C943 0.930 . S
H915 C920 0.930 . S
H916 C924 0.930 . S
O917 Co886 2.037 . S
O917 C937 1.234 . S
C918 O892 1.269 . S
C918 O893 1.257 . S
C919 H894 0.930 . S
C919 C922 1.388 . S
C919 C924 1.418 . S
C920 H915 0.930 . S
C920 C923 1.404 . S
C920 C924 1.353 . S
N921 Co886 2.145 . S
N921 C922 1.397 . S
N921 C923 1.334 . S
C922 H903 0.929 . S
C922 C919 1.388 . S
C922 N921 1.397 . S
C923 H904 0.929 . S
C923 C920 1.404 . S
C923 N921 1.334 . S
C924 H916 0.930 . S
C924 C919 1.418 . S
C924 C920 1.353 . S
C925 H895 0.930 . S
C925 N926 1.330 . S
C925 C927 1.446 . S
N926 Co885 2.151 . S
N926 C925 1.330 . S
N926 C930 1.418 . S
C927 H906 0.929 . S
C927 C925 1.446 . S
C927 C928 1.332 . S
C928 H908 0.931 . S
C928 C927 1.332 . S
C928 C929 1.267 . S
C929 H897 0.929 . S
C929 C928 1.267 . S
C929 C930 1.251 . S
C930 H900 0.929 . S
C930 N926 1.418 . S
C930 C929 1.251 . S
C931 H898 0.930 . S
C931 C933 1.406 . S
C931 C936 1.261 . S
C932 H899 0.930 . S
C932 N934 1.325 . S
C932 C935 1.357 . S
C933 H901 0.928 . S
C933 C931 1.406 . S
C933 N934 1.261 . S
N934 Co885 2.214 . S
N934 C932 1.325 . S
N934 C933 1.261 . S
C935 H905 0.931 . S
C935 C932 1.357 . S
C935 C936 1.312 . S
C936 H907 0.930 1_455 S
C936 C931 1.261 . S
C936 C935 1.312 . S
C937 O909 1.214 . S
C937 O917 1.234 . S
C938 H910 0.929 . S
C938 C941 1.391 . S
C938 C943 1.391 . S
C939 H911 0.929 . S
C939 C940 1.390 . S
C939 N942 1.391 . S
C940 H912 0.930 . S
C940 C939 1.390 . S
C940 C941 1.392 . S
C941 H913 0.929 . S
C941 C938 1.391 . S
C941 C940 1.392 . S
N942 Co886 2.257 . S
N942 C939 1.391 . S
N942 C943 1.388 . S
C943 H914 0.930 . S
C943 C938 1.391 . S
C943 N942 1.388 . S
H944 C956 0.930 . S
H945 C958 0.930 . S
H946 C959 0.930 . S
H947 C963 0.959 . S
H948 C963 0.959 . S
H949 C963 0.961 . S
H950 C964 0.960 . S
H951 C964 0.961 . S
H952 C964 0.959 . S
H953 C967 0.929 . S
H954 C968 0.931 . S
H955 C970 0.930 . S
C956 H944 0.930 . S
C956 C957 1.393 1_556 S
C956 C961 1.399 . S
C957 C956 1.393 1_554 S
C957 C958 1.383 . S
C958 H945 0.930 . S
C958 C957 1.383 . S
C958 C959 1.388 . S
C959 H946 0.930 . S
C959 C958 1.388 . S
C959 C960 1.390 . S
C960 C959 1.390 . S
C960 C961 1.394 1_554 S
C960 C966 1.465 . S
C961 C956 1.399 . S
C961 C960 1.394 1_556 S
C961 C962 1.516 . S
C962 C961 1.516 . S
C962 C963 1.502 1_655 S
C962 C964 1.561 . S
C962 C965 1.526 . S
C963 H947 0.959 . S
C963 H948 0.959 . S
C963 H949 0.961 . S
C963 C962 1.502 1_455 S
C964 H950 0.960 . S
C964 H951 0.961 . S
C964 H952 0.959 . S
C964 C962 1.561 . S
C965 C962 1.526 . S
C965 C966 1.396 1_556 S
C965 C970 1.390 . S
C966 C960 1.465 . S
C966 C965 1.396 1_554 S
C966 C967 1.399 . S
C967 H953 0.929 . S
C967 C966 1.399 . S
C967 C968 1.385 . S
C968 H954 0.931 . S
C968 C967 1.385 . S
C968 C969 1.389 1_554 S
C969 C968 1.389 1_556 S
C969 C970 1.387 . S
C970 H955 0.930 . S
C970 C965 1.390 . S
C970 C969 1.387 . S
H971 C983 0.930 . S
H972 C985 0.930 . S
H973 C986 0.930 . S
H974 C990 0.959 . S
H975 C990 0.959 . S
H976 C990 0.961 . S
H977 C991 0.960 . S
H978 C991 0.961 . S
H979 C991 0.959 . S
H980 C994 0.929 . S
H981 C995 0.931 . S
H982 C997 0.930 . S
C983 H971 0.930 . S
C983 C984 1.399 . S
C983 C988 1.399 . S
C984 C983 1.399 . S
C984 C985 1.376 1_565 S
C985 H972 0.930 . S
C985 C984 1.376 1_545 S
C985 C986 1.388 . S
C986 H973 0.930 . S
C986 C985 1.388 . S
C986 C987 1.390 1_545 S
C987 C986 1.390 1_565 S
C987 C988 1.394 . S
C987 C993 1.465 . S
C988 C983 1.399 . S
C988 C987 1.394 . S
C988 C989 1.516 . S
C989 C988 1.516 . S
C989 C990 1.502 . S
C989 C991 1.561 . S
C989 C992 1.526 . S
C990 H974 0.959 . S
C990 H975 0.959 . S
C990 H976 0.961 . S
C990 C989 1.502 . S
C991 H977 0.960 . S
C991 H978 0.961 . S
C991 H979 0.959 . S
C991 C989 1.561 . S
C992 C989 1.526 . S
C992 C993 1.396 . S
C992 C997 1.390 . S
C993 C987 1.465 . S
C993 C992 1.396 . S
C993 C994 1.399 1_565 S
C994 H980 0.929 . S
C994 C993 1.399 1_545 S
C994 C995 1.385 . S
C995 H981 0.931 . S
C995 C994 1.385 . S
C995 C996 1.389 1_545 S
C996 C995 1.389 1_565 S
C996 C997 1.387 . S
C997 H982 0.930 . S
C997 C992 1.390 . S
C997 C996 1.387 . S
H998 C1010 0.930 . S
H999 C1012 0.930 . S
H1000 C1013 0.930 . S
H1001 C1017 0.959 . S
H1002 C1017 0.959 . S
H1003 C1017 0.961 . S
H1004 C1018 0.960 . S
H1005 C1018 0.961 . S
H1006 C1018 0.959 . S
H1007 C1021 0.929 . S
H1008 C1022 0.931 . S
H1009 C1024 0.930 . S
C1010 H998 0.930 . S
C1010 C1011 1.399 1_556 S
C1010 C1015 1.399 . S
C1011 C1010 1.399 1_554 S
C1011 C1012 1.376 . S
C1012 H999 0.930 . S
C1012 C1011 1.376 . S
C1012 C1013 1.388 . S
C1013 H1000 0.930 . S
C1013 C1012 1.388 . S
C1013 C1014 1.390 . S
C1014 C1013 1.390 . S
C1014 C1015 1.394 1_554 S
C1014 C1020 1.465 . S
C1015 C1010 1.399 . S
C1015 C1014 1.394 1_556 S
C1015 C1016 1.516 . S
C1016 C1015 1.516 . S
C1016 C1017 1.502 . S
C1016 C1018 1.561 . S
C1016 C1019 1.526 . S
C1017 H1001 0.959 . S
C1017 H1002 0.959 . S
C1017 H1003 0.961 . S
C1017 C1016 1.502 . S
C1018 H1004 0.960 . S
C1018 H1005 0.961 . S
C1018 H1006 0.959 . S
C1018 C1016 1.561 . S
C1019 C1016 1.526 . S
C1019 C1020 1.396 1_556 S
C1019 C1024 1.390 . S
C1020 C1014 1.465 . S
C1020 C1019 1.396 1_554 S
C1020 C1021 1.399 . S
C1021 H1007 0.929 . S
C1021 C1020 1.399 . S
C1021 C1022 1.385 . S
C1022 H1008 0.931 . S
C1022 C1021 1.385 . S
C1022 C1023 1.389 . S
C1023 C1022 1.389 . S
C1023 C1024 1.387 1_554 S
C1024 H1009 0.930 . S
C1024 C1019 1.390 . S
C1024 C1023 1.387 1_556 S
H1025 C1037 0.930 . S
H1026 C1039 0.930 . S
H1027 C1040 0.930 . S
H1028 C1044 0.959 . S
H1029 C1044 0.959 . S
H1030 C1044 0.961 . S
H1031 C1045 0.960 . S
H1032 C1045 0.961 . S
H1033 C1045 0.959 . S
H1034 C1048 0.929 . S
H1035 C1049 0.931 . S
H1036 C1051 0.930 . S
C1037 H1025 0.930 . S
C1037 C1038 1.399 . S
C1037 C1042 1.399 . S
C1038 C1037 1.399 . S
C1038 C1039 1.376 . S
C1039 H1026 0.930 . S
C1039 C1038 1.376 . S
C1039 C1040 1.388 . S
C1040 H1027 0.930 . S
C1040 C1039 1.388 . S
C1040 C1041 1.390 . S
C1041 C1040 1.390 . S
C1041 C1042 1.394 . S
C1041 C1047 1.465 . S
C1042 C1037 1.399 . S
C1042 C1041 1.394 . S
C1042 C1043 1.516 . S
C1043 C1042 1.516 . S
C1043 C1044 1.502 . S
C1043 C1045 1.561 . S
C1043 C1046 1.526 . S
C1044 H1028 0.959 . S
C1044 H1029 0.959 . S
C1044 H1030 0.961 . S
C1044 C1043 1.502 . S
C1045 H1031 0.960 . S
C1045 H1032 0.961 . S
C1045 H1033 0.959 . S
C1045 C1043 1.561 . S
C1046 C1043 1.526 . S
C1046 C1047 1.396 . S
C1046 C1051 1.390 . S
C1047 C1041 1.465 . S
C1047 C1046 1.396 . S
C1047 C1048 1.399 . S
C1048 H1034 0.929 . S
C1048 C1047 1.399 . S
C1048 C1049 1.385 . S
C1049 H1035 0.931 . S
C1049 C1048 1.385 . S
C1049 C1050 1.389 . S
C1050 C1049 1.389 . S
C1050 C1051 1.387 . S
C1051 H1036 0.930 . S
C1051 C1046 1.390 . S
C1051 C1050 1.387 . S
H1052 C1064 0.930 . S
H1053 C1066 0.930 1_655 S
H1054 C1067 0.949 . S
H1055 C1071 0.959 . S
H1056 C1071 0.959 . S
H1057 C1071 0.961 . S
H1058 C1072 0.960 . S
H1059 C1072 0.961 . S
H1060 C1072 0.959 1_655 S
H1061 C1075 0.909 1_655 S
H1062 C1076 0.932 1_655 S
H1063 C1078 0.930 . S
C1064 H1052 0.930 . S
C1064 C1065 1.410 . S
C1064 C1069 1.399 . S
C1065 C1064 1.410 . S
C1065 C1066 1.363 1_554 S
C1066 H1053 0.930 1_455 S
C1066 C1065 1.363 1_556 S
C1066 C1067 1.385 1_455 S
C1067 H1054 0.949 . S
C1067 C1066 1.385 1_655 S
C1067 C1068 1.376 1_655 S
C1068 C1067 1.376 1_455 S
C1068 C1069 1.394 1_556 S
C1068 C1074 1.465 . S
C1069 C1064 1.399 . S
C1069 C1068 1.394 1_554 S
C1069 C1070 1.516 . S
C1070 C1069 1.516 . S
C1070 C1071 1.502 . S
C1070 C1072 1.561 . S
C1070 C1073 1.526 . S
C1071 H1055 0.959 . S
C1071 H1056 0.959 . S
C1071 H1057 0.961 . S
C1071 C1070 1.502 . S
C1072 H1058 0.960 . S
C1072 H1059 0.961 . S
C1072 H1060 0.959 1_455 S
C1072 C1070 1.561 . S
C1073 C1070 1.526 . S
C1073 C1074 1.396 1_554 S
C1073 C1078 1.390 . S
C1074 C1068 1.465 . S
C1074 C1073 1.396 1_556 S
C1074 C1075 1.414 . S
C1075 H1061 0.909 1_455 S
C1075 C1074 1.414 . S
C1075 C1076 1.393 . S
C1076 H1062 0.932 1_455 S
C1076 C1075 1.393 . S
C1076 C1077 1.389 1_556 S
C1077 C1076 1.389 1_554 S
C1077 C1078 1.387 . S
C1078 H1063 0.930 . S
C1078 C1073 1.390 . S
C1078 C1077 1.387 . S
H1079 C1091 0.930 . S
H1080 C1093 0.933 . S
H1081 C1094 0.930 . S
H1082 C1098 0.959 . S
H1083 C1098 0.959 . S
H1084 C1098 0.961 . S
H1085 C1099 0.960 . S
H1086 C1099 0.961 . S
H1087 C1099 0.959 . S
H1088 C1102 0.929 . S
H1089 C1103 0.917 1_565 S
H1090 C1105 0.930 . S
C1091 H1079 0.930 . S
C1091 C1092 1.399 . S
C1091 C1096 1.399 . S
C1092 C1091 1.399 . S
C1092 C1093 1.373 1_545 S
C1093 H1080 0.933 . S
C1093 C1092 1.373 1_565 S
C1093 C1094 1.389 . S
C1094 H1081 0.930 . S
C1094 C1093 1.389 . S
C1094 C1095 1.390 1_565 S
C1095 C1094 1.390 1_545 S
C1095 C1096 1.394 . S
C1095 C1101 1.465 . S
C1096 C1091 1.399 . S
C1096 C1095 1.394 . S
C1096 C1097 1.516 . S
C1097 C1096 1.516 . S
C1097 C1098 1.502 . S
C1097 C1099 1.561 . S
C1097 C1100 1.526 . S
C1098 H1082 0.959 . S
C1098 H1083 0.959 . S
C1098 H1084 0.961 . S
C1098 C1097 1.502 . S
C1099 H1085 0.960 . S
C1099 H1086 0.961 . S
C1099 H1087 0.959 . S
C1099 C1097 1.561 . S
C1100 C1097 1.526 . S
C1100 C1101 1.396 . S
C1100 C1105 1.390 . S
C1101 C1095 1.465 . S
C1101 C1100 1.396 . S
C1101 C1102 1.399 1_545 S
C1102 H1088 0.929 . S
C1102 C1101 1.399 1_565 S
C1102 C1103 1.382 1_565 S
C1103 H1089 0.917 1_545 S
C1103 C1102 1.382 1_545 S
C1103 C1104 1.407 . S
C1104 C1103 1.407 . S
C1104 C1105 1.387 . S
C1105 H1090 0.930 . S
C1105 C1100 1.390 . S
C1105 C1104 1.387 . S
H1106 C1118 0.930 . S
H1107 C1120 0.930 . S
H1108 C1121 0.930 . S
H1109 C1125 0.959 . S
H1110 C1125 0.959 . S
H1111 C1125 0.961 . S
H1112 C1126 0.960 . S
H1113 C1126 0.961 . S
H1114 C1126 0.959 . S
H1115 C1129 0.929 . S
H1116 C1130 0.931 . S
H1117 C1132 0.930 . S
C1118 H1106 0.930 . S
C1118 C1119 1.399 . S
C1118 C1123 1.399 . S
C1119 C1118 1.399 . S
C1119 C1120 1.376 1_556 S
C1120 H1107 0.930 . S
C1120 C1119 1.376 1_554 S
C1120 C1121 1.388 . S
C1121 H1108 0.930 . S
C1121 C1120 1.388 . S
C1121 C1122 1.390 . S
C1122 C1121 1.390 . S
C1122 C1123 1.394 1_554 S
C1122 C1128 1.465 . S
C1123 C1118 1.399 . S
C1123 C1122 1.394 1_556 S
C1123 C1124 1.516 . S
C1124 C1123 1.516 . S
C1124 C1125 1.502 . S
C1124 C1126 1.561 . S
C1124 C1127 1.526 . S
C1125 H1109 0.959 . S
C1125 H1110 0.959 . S
C1125 H1111 0.961 . S
C1125 C1124 1.502 . S
C1126 H1112 0.960 . S
C1126 H1113 0.961 . S
C1126 H1114 0.959 . S
C1126 C1124 1.561 . S
C1127 C1124 1.526 . S
C1127 C1128 1.396 1_556 S
C1127 C1132 1.390 . S
C1128 C1122 1.465 . S
C1128 C1127 1.396 1_554 S
C1128 C1129 1.399 . S
C1129 H1115 0.929 . S
C1129 C1128 1.399 . S
C1129 C1130 1.385 . S
C1130 H1116 0.931 . S
C1130 C1129 1.385 . S
C1130 C1131 1.389 1_554 S
C1131 C1130 1.389 1_556 S
C1131 C1132 1.387 . S
C1132 H1117 0.930 . S
C1132 C1127 1.390 . S
C1132 C1131 1.387 . S
H1133 C1145 0.930 . S
H1134 C1147 0.930 . S
H1135 C1148 0.930 . S
H1136 C1152 0.959 . S
H1137 C1152 0.959 . S
H1138 C1152 0.961 . S
H1139 C1153 0.960 . S
H1140 C1153 0.961 . S
H1141 C1153 0.959 . S
H1142 C1156 0.929 . S
H1143 C1157 0.931 . S
H1144 C1159 0.930 . S
C1145 H1133 0.930 . S
C1145 C1146 1.399 . S
C1145 C1150 1.399 . S
C1146 C1145 1.399 . S
C1146 C1147 1.376 . S
C1147 H1134 0.930 . S
C1147 C1146 1.376 . S
C1147 C1148 1.388 . S
C1148 H1135 0.930 . S
C1148 C1147 1.388 . S
C1148 C1149 1.390 . S
C1149 C1148 1.390 . S
C1149 C1150 1.394 . S
C1149 C1155 1.465 . S
C1150 C1145 1.399 . S
C1150 C1149 1.394 . S
C1150 C1151 1.516 . S
C1151 C1150 1.516 . S
C1151 C1152 1.502 . S
C1151 C1153 1.561 . S
C1151 C1154 1.526 . S
C1152 H1136 0.959 . S
C1152 H1137 0.959 . S
C1152 H1138 0.961 . S
C1152 C1151 1.502 . S
C1153 H1139 0.960 . S
C1153 H1140 0.961 . S
C1153 H1141 0.959 . S
C1153 C1151 1.561 . S
C1154 C1151 1.526 . S
C1154 C1155 1.396 . S
C1154 C1159 1.390 . S
C1155 C1149 1.465 . S
C1155 C1154 1.396 . S
C1155 C1156 1.399 . S
C1156 H1142 0.929 . S
C1156 C1155 1.399 . S
C1156 C1157 1.385 . S
C1157 H1143 0.931 . S
C1157 C1156 1.385 . S
C1157 C1158 1.389 . S
C1158 C1157 1.389 . S
C1158 C1159 1.387 . S
C1159 H1144 0.930 . S
C1159 C1154 1.390 . S
C1159 C1158 1.387 . S
H1160 C1172 0.930 . S
H1161 C1174 0.930 . S
H1162 C1175 0.930 . S
H1163 C1179 0.959 . S
H1164 C1179 0.959 . S
H1165 C1179 0.961 . S
H1166 C1180 0.960 . S
H1167 C1180 0.961 . S
H1168 C1180 0.959 . S
H1169 C1183 0.929 . S
H1170 C1184 0.931 . S
H1171 C1186 0.930 . S
C1172 H1160 0.930 . S
C1172 C1173 1.399 . S
C1172 C1177 1.399 . S
C1173 C1172 1.399 . S
C1173 C1174 1.376 . S
C1174 H1161 0.930 . S
C1174 C1173 1.376 . S
C1174 C1175 1.388 . S
C1175 H1162 0.930 . S
C1175 C1174 1.388 . S
C1175 C1176 1.390 . S
C1176 C1175 1.390 . S
C1176 C1177 1.394 . S
C1176 C1182 1.465 . S
C1177 C1172 1.399 . S
C1177 C1176 1.394 . S
C1177 C1178 1.516 . S
C1178 C1177 1.516 . S
C1178 C1179 1.502 . S
C1178 C1180 1.561 . S
C1178 C1181 1.526 . S
C1179 H1163 0.959 . S
C1179 H1164 0.959 . S
C1179 H1165 0.961 . S
C1179 C1178 1.502 . S
C1180 H1166 0.960 . S
C1180 H1167 0.961 . S
C1180 H1168 0.959 . S
C1180 C1178 1.561 . S
C1181 C1178 1.526 . S
C1181 C1182 1.396 . S
C1181 C1186 1.390 . S
C1182 C1176 1.465 . S
C1182 C1181 1.396 . S
C1182 C1183 1.399 . S
C1183 H1169 0.929 . S
C1183 C1182 1.399 . S
C1183 C1184 1.385 . S
C1184 H1170 0.931 . S
C1184 C1183 1.385 . S
C1184 C1185 1.389 . S
C1185 C1184 1.389 . S
C1185 C1186 1.387 . S
C1186 H1171 0.930 . S
C1186 C1181 1.390 . S
C1186 C1185 1.387 . S
H1187 C1199 0.930 . S
H1188 C1201 0.930 . S
H1189 C1202 0.930 . S
H1190 C1206 0.959 . S
H1191 C1206 0.959 . S
H1192 C1206 0.961 . S
H1193 C1207 0.960 . S
H1194 C1207 0.961 . S
H1195 C1207 0.959 . S
H1196 C1210 0.929 . S
H1197 C1211 0.931 . S
H1198 C1213 0.930 . S
C1199 H1187 0.930 . S
C1199 C1200 1.399 . S
C1199 C1204 1.399 . S
C1200 C1199 1.399 . S
C1200 C1201 1.376 . S
C1201 H1188 0.930 . S
C1201 C1200 1.376 . S
C1201 C1202 1.388 . S
C1202 H1189 0.930 . S
C1202 C1201 1.388 . S
C1202 C1203 1.390 . S
C1203 C1202 1.390 . S
C1203 C1204 1.394 . S
C1203 C1209 1.465 . S
C1204 C1199 1.399 . S
C1204 C1203 1.394 . S
C1204 C1205 1.516 . S
C1205 C1204 1.516 . S
C1205 C1206 1.502 . S
C1205 C1207 1.561 . S
C1205 C1208 1.526 . S
C1206 H1190 0.959 . S
C1206 H1191 0.959 . S
C1206 H1192 0.961 . S
C1206 C1205 1.502 . S
C1207 H1193 0.960 . S
C1207 H1194 0.961 . S
C1207 H1195 0.959 . S
C1207 C1205 1.561 . S
C1208 C1205 1.526 . S
C1208 C1209 1.396 . S
C1208 C1213 1.390 . S
C1209 C1203 1.465 . S
C1209 C1208 1.396 . S
C1209 C1210 1.399 . S
C1210 H1196 0.929 . S
C1210 C1209 1.399 . S
C1210 C1211 1.385 . S
C1211 H1197 0.931 . S
C1211 C1210 1.385 . S
C1211 C1212 1.389 . S
C1212 C1211 1.389 . S
C1212 C1213 1.387 . S
C1213 H1198 0.930 . S
C1213 C1208 1.390 . S
C1213 C1212 1.387 . S
H1214 C1226 0.930 . S
H1215 C1228 0.930 . S
H1216 C1229 0.930 . S
H1217 C1233 0.959 . S
H1218 C1233 0.959 . S
H1219 C1233 0.961 . S
H1220 C1234 0.960 . S
H1221 C1234 0.961 . S
H1222 C1234 0.959 . S
H1223 C1237 0.929 . S
H1224 C1238 0.931 . S
H1225 C1240 0.930 . S
C1226 H1214 0.930 . S
C1226 C1227 1.399 . S
C1226 C1231 1.399 . S
C1227 C1226 1.399 . S
C1227 C1228 1.376 . S
C1228 H1215 0.930 . S
C1228 C1227 1.376 . S
C1228 C1229 1.388 . S
C1229 H1216 0.930 . S
C1229 C1228 1.388 . S
C1229 C1230 1.390 . S
C1230 C1229 1.390 . S
C1230 C1231 1.394 . S
C1230 C1236 1.465 . S
C1231 C1226 1.399 . S
C1231 C1230 1.394 . S
C1231 C1232 1.516 . S
C1232 C1231 1.516 . S
C1232 C1233 1.502 . S
C1232 C1234 1.561 . S
C1232 C1235 1.526 . S
C1233 H1217 0.959 . S
C1233 H1218 0.959 . S
C1233 H1219 0.961 . S
C1233 C1232 1.502 . S
C1234 H1220 0.960 . S
C1234 H1221 0.961 . S
C1234 H1222 0.959 . S
C1234 C1232 1.561 . S
C1235 C1232 1.526 . S
C1235 C1236 1.396 . S
C1235 C1240 1.390 . S
C1236 C1230 1.465 . S
C1236 C1235 1.396 . S
C1236 C1237 1.399 . S
C1237 H1223 0.929 . S
C1237 C1236 1.399 . S
C1237 C1238 1.385 . S
C1238 H1224 0.931 . S
C1238 C1237 1.385 . S
C1238 C1239 1.389 . S
C1239 C1238 1.389 . S
C1239 C1240 1.387 . S
C1240 H1225 0.930 . S
C1240 C1235 1.390 . S
C1240 C1239 1.387 . S
H1241 C1253 0.930 . S
H1242 C1255 0.930 . S
H1243 C1256 0.930 . S
H1244 C1260 0.959 . S
H1245 C1260 0.959 . S
H1246 C1260 0.961 . S
H1247 C1261 0.960 . S
H1248 C1261 0.961 . S
H1249 C1261 0.959 . S
H1250 C1264 0.929 . S
H1251 C1265 0.931 . S
H1252 C1267 0.930 . S
C1253 H1241 0.930 . S
C1253 C1254 1.399 . S
C1253 C1258 1.399 . S
C1254 C1253 1.399 . S
C1254 C1255 1.376 . S
C1255 H1242 0.930 . S
C1255 C1254 1.376 . S
C1255 C1256 1.388 . S
C1256 H1243 0.930 . S
C1256 C1255 1.388 . S
C1256 C1257 1.390 . S
C1257 C1256 1.390 . S
C1257 C1258 1.394 . S
C1257 C1263 1.465 . S
C1258 C1253 1.399 . S
C1258 C1257 1.394 . S
C1258 C1259 1.516 . S
C1259 C1258 1.516 . S
C1259 C1260 1.502 . S
C1259 C1261 1.561 . S
C1259 C1262 1.526 . S
C1260 H1244 0.959 . S
C1260 H1245 0.959 . S
C1260 H1246 0.961 . S
C1260 C1259 1.502 . S
C1261 H1247 0.960 . S
C1261 H1248 0.961 . S
C1261 H1249 0.959 . S
C1261 C1259 1.561 . S
C1262 C1259 1.526 . S
C1262 C1263 1.396 . S
C1262 C1267 1.390 . S
C1263 C1257 1.465 . S
C1263 C1262 1.396 . S
C1263 C1264 1.399 . S
C1264 H1250 0.929 . S
C1264 C1263 1.399 . S
C1264 C1265 1.385 . S
C1265 H1251 0.931 . S
C1265 C1264 1.385 . S
C1265 C1266 1.389 . S
C1266 C1265 1.389 . S
C1266 C1267 1.387 . S
C1267 H1252 0.930 . S
C1267 C1262 1.390 . S
C1267 C1266 1.387 . S
H1268 C1280 0.930 . S
H1269 C1282 0.930 . S
H1270 C1283 0.930 . S
H1271 C1287 0.959 . S
H1272 C1287 0.959 . S
H1273 C1287 0.961 . S
H1274 C1288 0.960 . S
H1275 C1288 0.961 . S
H1276 C1288 0.959 . S
H1277 C1291 0.929 . S
H1278 C1292 0.931 . S
H1279 C1294 0.930 . S
C1280 H1268 0.930 . S
C1280 C1281 1.399 . S
C1280 C1285 1.399 . S
C1281 C1280 1.399 . S
C1281 C1282 1.376 . S
C1282 H1269 0.930 . S
C1282 C1281 1.376 . S
C1282 C1283 1.388 . S
C1283 H1270 0.930 . S
C1283 C1282 1.388 . S
C1283 C1284 1.390 . S
C1284 C1283 1.390 . S
C1284 C1285 1.394 . S
C1284 C1290 1.465 . S
C1285 C1280 1.399 . S
C1285 C1284 1.394 . S
C1285 C1286 1.516 . S
C1286 C1285 1.516 . S
C1286 C1287 1.502 . S
C1286 C1288 1.561 . S
C1286 C1289 1.526 . S
C1287 H1271 0.959 . S
C1287 H1272 0.959 . S
C1287 H1273 0.961 . S
C1287 C1286 1.502 . S
C1288 H1274 0.960 . S
C1288 H1275 0.961 . S
C1288 H1276 0.959 . S
C1288 C1286 1.561 . S
C1289 C1286 1.526 . S
C1289 C1290 1.396 . S
C1289 C1294 1.390 . S
C1290 C1284 1.465 . S
C1290 C1289 1.396 . S
C1290 C1291 1.399 . S
C1291 H1277 0.929 . S
C1291 C1290 1.399 . S
C1291 C1292 1.385 . S
C1292 H1278 0.931 . S
C1292 C1291 1.385 . S
C1292 C1293 1.389 . S
C1293 C1292 1.389 . S
C1293 C1294 1.387 . S
C1294 H1279 0.930 . S
C1294 C1289 1.390 . S
C1294 C1293 1.387 . S
H1295 C1307 0.930 . S
H1296 C1309 0.930 . S
H1297 C1310 0.930 . S
H1298 C1314 0.959 . S
H1299 C1314 0.959 . S
H1300 C1314 0.961 . S
H1301 C1315 0.960 . S
H1302 C1315 0.961 . S
H1303 C1315 0.959 . S
H1304 C1318 0.929 . S
H1305 C1319 0.931 . S
H1306 C1321 0.930 . S
C1307 H1295 0.930 . S
C1307 C1308 1.399 . S
C1307 C1312 1.399 . S
C1308 C1307 1.399 . S
C1308 C1309 1.376 . S
C1309 H1296 0.930 . S
C1309 C1308 1.376 . S
C1309 C1310 1.388 . S
C1310 H1297 0.930 . S
C1310 C1309 1.388 . S
C1310 C1311 1.390 . S
C1311 C1310 1.390 . S
C1311 C1312 1.394 . S
C1311 C1317 1.465 . S
C1312 C1307 1.399 . S
C1312 C1311 1.394 . S
C1312 C1313 1.516 . S
C1313 C1312 1.516 . S
C1313 C1314 1.502 . S
C1313 C1315 1.561 . S
C1313 C1316 1.526 . S
C1314 H1298 0.959 . S
C1314 H1299 0.959 . S
C1314 H1300 0.961 . S
C1314 C1313 1.502 . S
C1315 H1301 0.960 . S
C1315 H1302 0.961 . S
C1315 H1303 0.959 . S
C1315 C1313 1.561 . S
C1316 C1313 1.526 . S
C1316 C1317 1.396 . S
C1316 C1321 1.390 . S
C1317 C1311 1.465 . S
C1317 C1316 1.396 . S
C1317 C1318 1.399 . S
C1318 H1304 0.929 . S
C1318 C1317 1.399 . S
C1318 C1319 1.385 . S
C1319 H1305 0.931 . S
C1319 C1318 1.385 . S
C1319 C1320 1.389 . S
C1320 C1319 1.389 . S
C1320 C1321 1.387 . S
C1321 H1306 0.930 . S
C1321 C1316 1.390 . S
C1321 C1320 1.387 . S
H1322 C1334 0.930 . S
H1323 C1336 0.930 . S
H1324 C1337 0.930 . S
H1325 C1341 0.959 . S
H1326 C1341 0.959 . S
H1327 C1341 0.961 . S
H1328 C1342 0.960 . S
H1329 C1342 0.961 . S
H1330 C1342 0.959 . S
H1331 C1345 0.929 . S
H1332 C1346 0.931 . S
H1333 C1348 0.930 . S
C1334 H1322 0.930 . S
C1334 C1335 1.399 . S
C1334 C1339 1.399 . S
C1335 C1334 1.399 . S
C1335 C1336 1.376 . S
C1336 H1323 0.930 . S
C1336 C1335 1.376 . S
C1336 C1337 1.388 . S
C1337 H1324 0.930 . S
C1337 C1336 1.388 . S
C1337 C1338 1.390 . S
C1338 C1337 1.390 . S
C1338 C1339 1.394 . S
C1338 C1344 1.465 . S
C1339 C1334 1.399 . S
C1339 C1338 1.394 . S
C1339 C1340 1.516 . S
C1340 C1339 1.516 . S
C1340 C1341 1.502 . S
C1340 C1342 1.561 . S
C1340 C1343 1.526 . S
C1341 H1325 0.959 . S
C1341 H1326 0.959 . S
C1341 H1327 0.961 . S
C1341 C1340 1.502 . S
C1342 H1328 0.960 . S
C1342 H1329 0.961 . S
C1342 H1330 0.959 . S
C1342 C1340 1.561 . S
C1343 C1340 1.526 . S
C1343 C1344 1.396 . S
C1343 C1348 1.390 . S
C1344 C1338 1.465 . S
C1344 C1343 1.396 . S
C1344 C1345 1.399 . S
C1345 H1331 0.929 . S
C1345 C1344 1.399 . S
C1345 C1346 1.385 . S
C1346 H1332 0.931 . S
C1346 C1345 1.385 . S
C1346 C1347 1.389 . S
C1347 C1346 1.389 . S
C1347 C1348 1.387 . S
C1348 H1333 0.930 . S
C1348 C1343 1.390 . S
C1348 C1347 1.387 . S
H1349 C1361 0.930 . S
H1350 C1363 0.930 . S
H1351 C1364 0.930 . S
H1352 C1368 0.959 . S
H1353 C1368 0.959 . S
H1354 C1368 0.961 . S
H1355 C1369 0.960 . S
H1356 C1369 0.961 . S
H1357 C1369 0.959 . S
H1358 C1372 0.929 . S
H1359 C1373 0.931 . S
H1360 C1375 0.930 . S
C1361 H1349 0.930 . S
C1361 C1362 1.399 . S
C1361 C1366 1.399 . S
C1362 C1361 1.399 . S
C1362 C1363 1.376 . S
C1363 H1350 0.930 . S
C1363 C1362 1.376 . S
C1363 C1364 1.388 . S
C1364 H1351 0.930 . S
C1364 C1363 1.388 . S
C1364 C1365 1.390 . S
C1365 C1364 1.390 . S
C1365 C1366 1.394 . S
C1365 C1371 1.465 . S
C1366 C1361 1.399 . S
C1366 C1365 1.394 . S
C1366 C1367 1.516 . S
C1367 C1366 1.516 . S
C1367 C1368 1.502 . S
C1367 C1369 1.561 . S
C1367 C1370 1.526 . S
C1368 H1352 0.959 . S
C1368 H1353 0.959 . S
C1368 H1354 0.961 . S
C1368 C1367 1.502 . S
C1369 H1355 0.960 . S
C1369 H1356 0.961 . S
C1369 H1357 0.959 . S
C1369 C1367 1.561 . S
C1370 C1367 1.526 . S
C1370 C1371 1.396 . S
C1370 C1375 1.390 . S
C1371 C1365 1.465 . S
C1371 C1370 1.396 . S
C1371 C1372 1.399 . S
C1372 H1358 0.929 . S
C1372 C1371 1.399 . S
C1372 C1373 1.385 . S
C1373 H1359 0.931 . S
C1373 C1372 1.385 . S
C1373 C1374 1.389 . S
C1374 C1373 1.389 . S
C1374 C1375 1.387 . S
C1375 H1360 0.930 . S
C1375 C1370 1.390 . S
C1375 C1374 1.387 . S
H1376 C1388 0.930 . S
H1377 C1390 0.930 . S
H1378 C1391 0.930 . S
H1379 C1395 0.959 . S
H1380 C1395 0.959 . S
H1381 C1395 0.961 . S
H1382 C1396 0.960 . S
H1383 C1396 0.961 . S
H1384 C1396 0.959 . S
H1385 C1399 0.929 . S
H1386 C1400 0.931 . S
H1387 C1402 0.930 . S
C1388 H1376 0.930 . S
C1388 C1389 1.399 . S
C1388 C1393 1.399 . S
C1389 C1388 1.399 . S
C1389 C1390 1.376 . S
C1390 H1377 0.930 . S
C1390 C1389 1.376 . S
C1390 C1391 1.388 . S
C1391 H1378 0.930 . S
C1391 C1390 1.388 . S
C1391 C1392 1.390 . S
C1392 C1391 1.390 . S
C1392 C1393 1.394 . S
C1392 C1398 1.465 . S
C1393 C1388 1.399 . S
C1393 C1392 1.394 . S
C1393 C1394 1.516 . S
C1394 C1393 1.516 . S
C1394 C1395 1.502 . S
C1394 C1396 1.561 . S
C1394 C1397 1.526 . S
C1395 H1379 0.959 . S
C1395 H1380 0.959 . S
C1395 H1381 0.961 . S
C1395 C1394 1.502 . S
C1396 H1382 0.960 . S
C1396 H1383 0.961 . S
C1396 H1384 0.959 . S
C1396 C1394 1.561 . S
C1397 C1394 1.526 . S
C1397 C1398 1.396 . S
C1397 C1402 1.390 . S
C1398 C1392 1.465 . S
C1398 C1397 1.396 . S
C1398 C1399 1.399 . S
C1399 H1385 0.929 . S
C1399 C1398 1.399 . S
C1399 C1400 1.385 . S
C1400 H1386 0.931 . S
C1400 C1399 1.385 . S
C1400 C1401 1.389 . S
C1401 C1400 1.389 . S
C1401 C1402 1.387 . S
C1402 H1387 0.930 . S
C1402 C1397 1.390 . S
C1402 C1401 1.387 . S
H1403 C1415 0.930 . S
H1404 C1417 0.930 . S
H1405 C1418 0.930 . S
H1406 C1422 0.959 . S
H1407 C1422 0.959 . S
H1408 C1422 0.961 . S
H1409 C1423 0.960 . S
H1410 C1423 0.961 . S
H1411 C1423 0.959 . S
H1412 C1426 0.929 . S
H1413 C1427 0.931 . S
H1414 C1429 0.930 . S
C1415 H1403 0.930 . S
C1415 C1416 1.399 . S
C1415 C1420 1.399 . S
C1416 C1415 1.399 . S
C1416 C1417 1.376 . S
C1417 H1404 0.930 . S
C1417 C1416 1.376 . S
C1417 C1418 1.388 . S
C1418 H1405 0.930 . S
C1418 C1417 1.388 . S
C1418 C1419 1.390 . S
C1419 C1418 1.390 . S
C1419 C1420 1.394 . S
C1419 C1425 1.465 . S
C1420 C1415 1.399 . S
C1420 C1419 1.394 . S
C1420 C1421 1.516 . S
C1421 C1420 1.516 . S
C1421 C1422 1.502 . S
C1421 C1423 1.561 . S
C1421 C1424 1.526 . S
C1422 H1406 0.959 . S
C1422 H1407 0.959 . S
C1422 H1408 0.961 . S
C1422 C1421 1.502 . S
C1423 H1409 0.960 . S
C1423 H1410 0.961 . S
C1423 H1411 0.959 . S
C1423 C1421 1.561 . S
C1424 C1421 1.526 . S
C1424 C1425 1.396 . S
C1424 C1429 1.390 . S
C1425 C1419 1.465 . S
C1425 C1424 1.396 . S
C1425 C1426 1.399 . S
C1426 H1412 0.929 . S
C1426 C1425 1.399 . S
C1426 C1427 1.385 . S
C1427 H1413 0.931 . S
C1427 C1426 1.385 . S
C1427 C1428 1.389 . S
C1428 C1427 1.389 . S
C1428 C1429 1.387 . S
C1429 H1414 0.930 . S
C1429 C1424 1.390 . S
C1429 C1428 1.387 . S
H1430 C1442 0.930 . S
H1431 C1444 0.930 . S
H1432 C1445 0.930 . S
H1433 C1449 0.959 . S
H1434 C1449 0.959 . S
H1435 C1449 0.961 . S
H1436 C1450 0.960 . S
H1437 C1450 0.961 . S
H1438 C1450 0.959 . S
H1439 C1453 0.929 . S
H1440 C1454 0.931 . S
H1441 C1456 0.930 . S
C1442 H1430 0.930 . S
C1442 C1443 1.399 . S
C1442 C1447 1.399 . S
C1443 C1442 1.399 . S
C1443 C1444 1.376 . S
C1444 H1431 0.930 . S
C1444 C1443 1.376 . S
C1444 C1445 1.388 . S
C1445 H1432 0.930 . S
C1445 C1444 1.388 . S
C1445 C1446 1.390 . S
C1446 C1445 1.390 . S
C1446 C1447 1.394 . S
C1446 C1452 1.465 . S
C1447 C1442 1.399 . S
C1447 C1446 1.394 . S
C1447 C1448 1.516 . S
C1448 C1447 1.516 . S
C1448 C1449 1.502 . S
C1448 C1450 1.561 . S
C1448 C1451 1.526 . S
C1449 H1433 0.959 . S
C1449 H1434 0.959 . S
C1449 H1435 0.961 . S
C1449 C1448 1.502 . S
C1450 H1436 0.960 . S
C1450 H1437 0.961 . S
C1450 H1438 0.959 . S
C1450 C1448 1.561 . S
C1451 C1448 1.526 . S
C1451 C1452 1.396 . S
C1451 C1456 1.390 . S
C1452 C1446 1.465 . S
C1452 C1451 1.396 . S
C1452 C1453 1.399 . S
C1453 H1439 0.929 . S
C1453 C1452 1.399 . S
C1453 C1454 1.385 . S
C1454 H1440 0.931 . S
C1454 C1453 1.385 . S
C1454 C1455 1.389 . S
C1455 C1454 1.389 . S
C1455 C1456 1.387 . S
C1456 H1441 0.930 . S
C1456 C1451 1.390 . S
C1456 C1455 1.387 . S
H1457 C1469 0.930 . S
H1458 C1471 0.930 . S
H1459 C1472 0.930 . S
H1460 C1476 0.959 . S
H1461 C1476 0.959 . S
H1462 C1476 0.961 . S
H1463 C1477 0.960 . S
H1464 C1477 0.961 . S
H1465 C1477 0.959 . S
H1466 C1480 0.929 . S
H1467 C1481 0.931 . S
H1468 C1483 0.930 . S
C1469 H1457 0.930 . S
C1469 C1470 1.399 . S
C1469 C1474 1.399 . S
C1470 C1469 1.399 . S
C1470 C1471 1.376 . S
C1471 H1458 0.930 . S
C1471 C1470 1.376 . S
C1471 C1472 1.388 . S
C1472 H1459 0.930 . S
C1472 C1471 1.388 . S
C1472 C1473 1.390 . S
C1473 C1472 1.390 . S
C1473 C1474 1.394 . S
C1473 C1479 1.465 . S
C1474 C1469 1.399 . S
C1474 C1473 1.394 . S
C1474 C1475 1.516 . S
C1475 C1474 1.516 . S
C1475 C1476 1.502 . S
C1475 C1477 1.561 . S
C1475 C1478 1.526 . S
C1476 H1460 0.959 . S
C1476 H1461 0.959 . S
C1476 H1462 0.961 . S
C1476 C1475 1.502 . S
C1477 H1463 0.960 . S
C1477 H1464 0.961 . S
C1477 H1465 0.959 . S
C1477 C1475 1.561 . S
C1478 C1475 1.526 . S
C1478 C1479 1.396 . S
C1478 C1483 1.390 . S
C1479 C1473 1.465 . S
C1479 C1478 1.396 . S
C1479 C1480 1.399 . S
C1480 H1466 0.929 . S
C1480 C1479 1.399 . S
C1480 C1481 1.385 . S
C1481 H1467 0.931 . S
C1481 C1480 1.385 . S
C1481 C1482 1.389 . S
C1482 C1481 1.389 . S
C1482 C1483 1.387 . S
C1483 H1468 0.930 . S
C1483 C1478 1.390 . S
C1483 C1482 1.387 . S
H1484 C1496 0.930 . S
H1485 C1498 0.930 . S
H1486 C1499 0.930 . S
H1487 C1503 0.959 . S
H1488 C1503 0.959 . S
H1489 C1503 0.961 . S
H1490 C1504 0.960 . S
H1491 C1504 0.961 . S
H1492 C1504 0.959 . S
H1493 C1507 0.929 . S
H1494 C1508 0.931 . S
H1495 C1510 0.930 . S
C1496 H1484 0.930 . S
C1496 C1497 1.399 . S
C1496 C1501 1.399 . S
C1497 C1496 1.399 . S
C1497 C1498 1.376 . S
C1498 H1485 0.930 . S
C1498 C1497 1.376 . S
C1498 C1499 1.388 . S
C1499 H1486 0.930 . S
C1499 C1498 1.388 . S
C1499 C1500 1.390 . S
C1500 C1499 1.390 . S
C1500 C1501 1.394 . S
C1500 C1506 1.465 . S
C1501 C1496 1.399 . S
C1501 C1500 1.394 . S
C1501 C1502 1.516 . S
C1502 C1501 1.516 . S
C1502 C1503 1.502 . S
C1502 C1504 1.561 . S
C1502 C1505 1.526 . S
C1503 H1487 0.959 . S
C1503 H1488 0.959 . S
C1503 H1489 0.961 . S
C1503 C1502 1.502 . S
C1504 H1490 0.960 . S
C1504 H1491 0.961 . S
C1504 H1492 0.959 . S
C1504 C1502 1.561 . S
C1505 C1502 1.526 . S
C1505 C1506 1.396 . S
C1505 C1510 1.390 . S
C1506 C1500 1.465 . S
C1506 C1505 1.396 . S
C1506 C1507 1.399 . S
C1507 H1493 0.929 . S
C1507 C1506 1.399 . S
C1507 C1508 1.385 . S
C1508 H1494 0.931 . S
C1508 C1507 1.385 . S
C1508 C1509 1.389 . S
C1509 C1508 1.389 . S
C1509 C1510 1.387 . S
C1510 H1495 0.930 . S
C1510 C1505 1.390 . S
C1510 C1509 1.387 . S
H1511 C1523 0.930 . S
H1512 C1525 0.930 . S
H1513 C1526 0.930 . S
H1514 C1530 0.959 . S
H1515 C1530 0.959 . S
H1516 C1530 0.961 . S
H1517 C1531 0.960 . S
H1518 C1531 0.961 . S
H1519 C1531 0.959 . S
H1520 C1534 0.929 . S
H1521 C1535 0.931 . S
H1522 C1537 0.930 . S
C1523 H1511 0.930 . S
C1523 C1524 1.399 . S
C1523 C1528 1.399 . S
C1524 C1523 1.399 . S
C1524 C1525 1.376 . S
C1525 H1512 0.930 . S
C1525 C1524 1.376 . S
C1525 C1526 1.388 . S
C1526 H1513 0.930 . S
C1526 C1525 1.388 . S
C1526 C1527 1.390 . S
C1527 C1526 1.390 . S
C1527 C1528 1.394 . S
C1527 C1533 1.465 . S
C1528 C1523 1.399 . S
C1528 C1527 1.394 . S
C1528 C1529 1.516 . S
C1529 C1528 1.516 . S
C1529 C1530 1.502 . S
C1529 C1531 1.561 . S
C1529 C1532 1.526 . S
C1530 H1514 0.959 . S
C1530 H1515 0.959 . S
C1530 H1516 0.961 . S
C1530 C1529 1.502 . S
C1531 H1517 0.960 . S
C1531 H1518 0.961 . S
C1531 H1519 0.959 . S
C1531 C1529 1.561 . S
C1532 C1529 1.526 . S
C1532 C1533 1.396 . S
C1532 C1537 1.390 . S
C1533 C1527 1.465 . S
C1533 C1532 1.396 . S
C1533 C1534 1.399 . S
C1534 H1520 0.929 . S
C1534 C1533 1.399 . S
C1534 C1535 1.385 . S
C1535 H1521 0.931 . S
C1535 C1534 1.385 . S
C1535 C1536 1.389 . S
C1536 C1535 1.389 . S
C1536 C1537 1.387 . S
C1537 H1522 0.930 . S
C1537 C1532 1.390 . S
C1537 C1536 1.387 . S
H1538 C1550 0.930 . S
H1539 C1552 0.930 . S
H1540 C1553 0.930 . S
H1541 C1557 0.959 . S
H1542 C1557 0.959 . S
H1543 C1557 0.961 . S
H1544 C1558 0.960 . S
H1545 C1558 0.961 . S
H1546 C1558 0.959 . S
H1547 C1561 0.929 . S
H1548 C1562 0.931 . S
H1549 C1564 0.930 . S
C1550 H1538 0.930 . S
C1550 C1551 1.399 . S
C1550 C1555 1.399 . S
C1551 C1550 1.399 . S
C1551 C1552 1.376 . S
C1552 H1539 0.930 . S
C1552 C1551 1.376 . S
C1552 C1553 1.388 . S
C1553 H1540 0.930 . S
C1553 C1552 1.388 . S
C1553 C1554 1.390 . S
C1554 C1553 1.390 . S
C1554 C1555 1.394 . S
C1554 C1560 1.465 . S
C1555 C1550 1.399 . S
C1555 C1554 1.394 . S
C1555 C1556 1.516 . S
C1556 C1555 1.516 . S
C1556 C1557 1.502 . S
C1556 C1558 1.561 . S
C1556 C1559 1.526 . S
C1557 H1541 0.959 . S
C1557 H1542 0.959 . S
C1557 H1543 0.961 . S
C1557 C1556 1.502 . S
C1558 H1544 0.960 . S
C1558 H1545 0.961 . S
C1558 H1546 0.959 . S
C1558 C1556 1.561 . S
C1559 C1556 1.526 . S
C1559 C1560 1.396 . S
C1559 C1564 1.390 . S
C1560 C1554 1.465 . S
C1560 C1559 1.396 . S
C1560 C1561 1.399 . S
C1561 H1547 0.929 . S
C1561 C1560 1.399 . S
C1561 C1562 1.385 . S
C1562 H1548 0.931 . S
C1562 C1561 1.385 . S
C1562 C1563 1.389 . S
C1563 C1562 1.389 . S
C1563 C1564 1.387 . S
C1564 H1549 0.930 . S
C1564 C1559 1.390 . S
C1564 C1563 1.387 . S
H1565 C1577 0.930 . S
H1566 C1579 0.930 . S
H1567 C1580 0.930 . S
H1568 C1584 0.959 . S
H1569 C1584 0.959 . S
H1570 C1584 0.961 . S
H1571 C1585 0.960 . S
H1572 C1585 0.961 . S
H1573 C1585 0.959 . S
H1574 C1588 0.929 . S
H1575 C1589 0.931 . S
H1576 C1591 0.930 . S
C1577 H1565 0.930 . S
C1577 C1578 1.399 . S
C1577 C1582 1.399 . S
C1578 C1577 1.399 . S
C1578 C1579 1.376 . S
C1579 H1566 0.930 . S
C1579 C1578 1.376 . S
C1579 C1580 1.388 . S
C1580 H1567 0.930 . S
C1580 C1579 1.388 . S
C1580 C1581 1.390 . S
C1581 C1580 1.390 . S
C1581 C1582 1.394 . S
C1581 C1587 1.465 . S
C1582 C1577 1.399 . S
C1582 C1581 1.394 . S
C1582 C1583 1.516 . S
C1583 C1582 1.516 . S
C1583 C1584 1.502 . S
C1583 C1585 1.561 . S
C1583 C1586 1.526 . S
C1584 H1568 0.959 . S
C1584 H1569 0.959 . S
C1584 H1570 0.961 . S
C1584 C1583 1.502 . S
C1585 H1571 0.960 . S
C1585 H1572 0.961 . S
C1585 H1573 0.959 . S
C1585 C1583 1.561 . S
C1586 C1583 1.526 . S
C1586 C1587 1.396 . S
C1586 C1591 1.390 . S
C1587 C1581 1.465 . S
C1587 C1586 1.396 . S
C1587 C1588 1.399 . S
C1588 H1574 0.929 . S
C1588 C1587 1.399 . S
C1588 C1589 1.385 . S
C1589 H1575 0.931 . S
C1589 C1588 1.385 . S
C1589 C1590 1.389 . S
C1590 C1589 1.389 . S
C1590 C1591 1.387 . S
C1591 H1576 0.930 . S
C1591 C1586 1.390 . S
C1591 C1590 1.387 . S
H1592 C1604 0.930 . S
H1593 C1606 0.930 . S
H1594 C1607 0.930 . S
H1595 C1611 0.959 . S
H1596 C1611 0.959 . S
H1597 C1611 0.961 . S
H1598 C1612 0.960 . S
H1599 C1612 0.961 . S
H1600 C1612 0.959 . S
H1601 C1615 0.929 . S
H1602 C1616 0.931 . S
H1603 C1618 0.930 . S
C1604 H1592 0.930 . S
C1604 C1605 1.399 . S
C1604 C1609 1.399 . S
C1605 C1604 1.399 . S
C1605 C1606 1.376 . S
C1606 H1593 0.930 . S
C1606 C1605 1.376 . S
C1606 C1607 1.388 . S
C1607 H1594 0.930 . S
C1607 C1606 1.388 . S
C1607 C1608 1.390 . S
C1608 C1607 1.390 . S
C1608 C1609 1.394 . S
C1608 C1614 1.465 . S
C1609 C1604 1.399 . S
C1609 C1608 1.394 . S
C1609 C1610 1.516 . S
C1610 C1609 1.516 . S
C1610 C1611 1.502 . S
C1610 C1612 1.561 . S
C1610 C1613 1.526 . S
C1611 H1595 0.959 . S
C1611 H1596 0.959 . S
C1611 H1597 0.961 . S
C1611 C1610 1.502 . S
C1612 H1598 0.960 . S
C1612 H1599 0.961 . S
C1612 H1600 0.959 . S
C1612 C1610 1.561 . S
C1613 C1610 1.526 . S
C1613 C1614 1.396 . S
C1613 C1618 1.390 . S
C1614 C1608 1.465 . S
C1614 C1613 1.396 . S
C1614 C1615 1.399 . S
C1615 H1601 0.929 . S
C1615 C1614 1.399 . S
C1615 C1616 1.385 . S
C1616 H1602 0.931 . S
C1616 C1615 1.385 . S
C1616 C1617 1.389 . S
C1617 C1616 1.389 . S
C1617 C1618 1.387 . S
C1618 H1603 0.930 . S
C1618 C1613 1.390 . S
C1618 C1617 1.387 . S
H1619 C1631 0.930 . S
H1620 C1633 0.930 . S
H1621 C1634 0.930 . S
H1622 C1638 0.959 . S
H1623 C1638 0.959 . S
H1624 C1638 0.961 . S
H1625 C1639 0.960 . S
H1626 C1639 0.961 . S
H1627 C1639 0.959 . S
H1628 C1642 0.929 . S
H1629 C1643 0.931 . S
H1630 C1645 0.930 . S
C1631 H1619 0.930 . S
C1631 C1632 1.399 . S
C1631 C1636 1.399 . S
C1632 C1631 1.399 . S
C1632 C1633 1.376 . S
C1633 H1620 0.930 . S
C1633 C1632 1.376 . S
C1633 C1634 1.388 . S
C1634 H1621 0.930 . S
C1634 C1633 1.388 . S
C1634 C1635 1.390 . S
C1635 C1634 1.390 . S
C1635 C1636 1.394 . S
C1635 C1641 1.465 . S
C1636 C1631 1.399 . S
C1636 C1635 1.394 . S
C1636 C1637 1.516 . S
C1637 C1636 1.516 . S
C1637 C1638 1.502 . S
C1637 C1639 1.561 . S
C1637 C1640 1.526 . S
C1638 H1622 0.959 . S
C1638 H1623 0.959 . S
C1638 H1624 0.961 . S
C1638 C1637 1.502 . S
C1639 H1625 0.960 . S
C1639 H1626 0.961 . S
C1639 H1627 0.959 . S
C1639 C1637 1.561 . S
C1640 C1637 1.526 . S
C1640 C1641 1.396 . S
C1640 C1645 1.390 . S
C1641 C1635 1.465 . S
C1641 C1640 1.396 . S
C1641 C1642 1.399 . S
C1642 H1628 0.929 . S
C1642 C1641 1.399 . S
C1642 C1643 1.385 . S
C1643 H1629 0.931 . S
C1643 C1642 1.385 . S
C1643 C1644 1.389 . S
C1644 C1643 1.389 . S
C1644 C1645 1.387 . S
C1645 H1630 0.930 . S
C1645 C1640 1.390 . S
C1645 C1644 1.387 . S
H1646 C1658 0.930 . S
H1647 C1660 0.930 . S
H1648 C1661 0.930 . S
H1649 C1665 0.959 . S
H1650 C1665 0.959 . S
H1651 C1665 0.961 . S
H1652 C1666 0.960 . S
H1653 C1666 0.961 . S
H1654 C1666 0.959 . S
H1655 C1669 0.929 . S
H1656 C1670 0.931 . S
H1657 C1672 0.930 . S
C1658 H1646 0.930 . S
C1658 C1659 1.399 . S
C1658 C1663 1.399 . S
C1659 C1658 1.399 . S
C1659 C1660 1.376 . S
C1660 H1647 0.930 . S
C1660 C1659 1.376 . S
C1660 C1661 1.388 . S
C1661 H1648 0.930 . S
C1661 C1660 1.388 . S
C1661 C1662 1.390 . S
C1662 C1661 1.390 . S
C1662 C1663 1.394 . S
C1662 C1668 1.465 . S
C1663 C1658 1.399 . S
C1663 C1662 1.394 . S
C1663 C1664 1.516 . S
C1664 C1663 1.516 . S
C1664 C1665 1.502 . S
C1664 C1666 1.561 . S
C1664 C1667 1.526 . S
C1665 H1649 0.959 . S
C1665 H1650 0.959 . S
C1665 H1651 0.961 . S
C1665 C1664 1.502 . S
C1666 H1652 0.960 . S
C1666 H1653 0.961 . S
C1666 H1654 0.959 . S
C1666 C1664 1.561 . S
C1667 C1664 1.526 . S
C1667 C1668 1.396 . S
C1667 C1672 1.390 . S
C1668 C1662 1.465 . S
C1668 C1667 1.396 . S
C1668 C1669 1.399 . S
C1669 H1655 0.929 . S
C1669 C1668 1.399 . S
C1669 C1670 1.385 . S
C1670 H1656 0.931 . S
C1670 C1669 1.385 . S
C1670 C1671 1.389 . S
C1671 C1670 1.389 . S
C1671 C1672 1.387 . S
C1672 H1657 0.930 . S
C1672 C1667 1.390 . S
C1672 C1671 1.387 . S
H1673 C1685 0.930 . S
H1674 C1687 0.930 . S
H1675 C1688 0.930 . S
H1676 C1692 0.959 . S
H1677 C1692 0.959 . S
H1678 C1692 0.961 . S
H1679 C1693 0.960 . S
H1680 C1693 0.961 . S
H1681 C1693 0.959 . S
H1682 C1696 0.929 . S
H1683 C1697 0.931 . S
H1684 C1699 0.930 . S
C1685 H1673 0.930 . S
C1685 C1686 1.399 . S
C1685 C1690 1.399 . S
C1686 C1685 1.399 . S
C1686 C1687 1.376 . S
C1687 H1674 0.930 . S
C1687 C1686 1.376 . S
C1687 C1688 1.388 . S
C1688 H1675 0.930 . S
C1688 C1687 1.388 . S
C1688 C1689 1.390 . S
C1689 C1688 1.390 . S
C1689 C1690 1.394 . S
C1689 C1695 1.465 . S
C1690 C1685 1.399 . S
C1690 C1689 1.394 . S
C1690 C1691 1.516 . S
C1691 C1690 1.516 . S
C1691 C1692 1.502 . S
C1691 C1693 1.561 . S
C1691 C1694 1.526 . S
C1692 H1676 0.959 . S
C1692 H1677 0.959 . S
C1692 H1678 0.961 . S
C1692 C1691 1.502 . S
C1693 H1679 0.960 . S
C1693 H1680 0.961 . S
C1693 H1681 0.959 . S
C1693 C1691 1.561 . S
C1694 C1691 1.526 . S
C1694 C1695 1.396 . S
C1694 C1699 1.390 . S
C1695 C1689 1.465 . S
C1695 C1694 1.396 . S
C1695 C1696 1.399 . S
C1696 H1682 0.929 . S
C1696 C1695 1.399 . S
C1696 C1697 1.385 . S
C1697 H1683 0.931 . S
C1697 C1696 1.385 . S
C1697 C1698 1.389 . S
C1698 C1697 1.389 . S
C1698 C1699 1.387 . S
C1699 H1684 0.930 . S
C1699 C1694 1.390 . S
C1699 C1698 1.387 . S
H1700 C1712 0.930 . S
H1701 C1714 0.930 . S
H1702 C1715 0.930 . S
H1703 C1719 0.959 . S
H1704 C1719 0.959 . S
H1705 C1719 0.961 . S
H1706 C1720 0.960 . S
H1707 C1720 0.961 . S
H1708 C1720 0.959 . S
H1709 C1723 0.929 . S
H1710 C1724 0.931 . S
H1711 C1726 0.930 . S
C1712 H1700 0.930 . S
C1712 C1713 1.399 . S
C1712 C1717 1.399 . S
C1713 C1712 1.399 . S
C1713 C1714 1.376 . S
C1714 H1701 0.930 . S
C1714 C1713 1.376 . S
C1714 C1715 1.388 . S
C1715 H1702 0.930 . S
C1715 C1714 1.388 . S
C1715 C1716 1.390 . S
C1716 C1715 1.390 . S
C1716 C1717 1.394 . S
C1716 C1722 1.465 . S
C1717 C1712 1.399 . S
C1717 C1716 1.394 . S
C1717 C1718 1.516 . S
C1718 C1717 1.516 . S
C1718 C1719 1.502 . S
C1718 C1720 1.561 . S
C1718 C1721 1.526 . S
C1719 H1703 0.959 . S
C1719 H1704 0.959 . S
C1719 H1705 0.961 . S
C1719 C1718 1.502 . S
C1720 H1706 0.960 . S
C1720 H1707 0.961 . S
C1720 H1708 0.959 . S
C1720 C1718 1.561 . S
C1721 C1718 1.526 . S
C1721 C1722 1.396 . S
C1721 C1726 1.390 . S
C1722 C1716 1.465 . S
C1722 C1721 1.396 . S
C1722 C1723 1.399 . S
C1723 H1709 0.929 . S
C1723 C1722 1.399 . S
C1723 C1724 1.385 . S
C1724 H1710 0.931 . S
C1724 C1723 1.385 . S
C1724 C1725 1.389 . S
C1725 C1724 1.389 . S
C1725 C1726 1.387 . S
C1726 H1711 0.930 . S
C1726 C1721 1.390 . S
C1726 C1725 1.387 . S
H1727 C1739 0.930 . S
H1728 C1741 0.930 . S
H1729 C1742 0.930 . S
H1730 C1746 0.959 . S
H1731 C1746 0.959 . S
H1732 C1746 0.961 . S
H1733 C1747 0.960 . S
H1734 C1747 0.961 . S
H1735 C1747 0.959 . S
H1736 C1750 0.929 . S
H1737 C1751 0.931 . S
H1738 C1753 0.930 . S
C1739 H1727 0.930 . S
C1739 C1740 1.399 . S
C1739 C1744 1.399 . S
C1740 C1739 1.399 . S
C1740 C1741 1.376 . S
C1741 H1728 0.930 . S
C1741 C1740 1.376 . S
C1741 C1742 1.388 . S
C1742 H1729 0.930 . S
C1742 C1741 1.388 . S
C1742 C1743 1.390 . S
C1743 C1742 1.390 . S
C1743 C1744 1.394 . S
C1743 C1749 1.465 . S
C1744 C1739 1.399 . S
C1744 C1743 1.394 . S
C1744 C1745 1.516 . S
C1745 C1744 1.516 . S
C1745 C1746 1.502 . S
C1745 C1747 1.561 . S
C1745 C1748 1.526 . S
C1746 H1730 0.959 . S
C1746 H1731 0.959 . S
C1746 H1732 0.961 . S
C1746 C1745 1.502 . S
C1747 H1733 0.960 . S
C1747 H1734 0.961 . S
C1747 H1735 0.959 . S
C1747 C1745 1.561 . S
C1748 C1745 1.526 . S
C1748 C1749 1.396 . S
C1748 C1753 1.390 . S
C1749 C1743 1.465 . S
C1749 C1748 1.396 . S
C1749 C1750 1.399 . S
C1750 H1736 0.929 . S
C1750 C1749 1.399 . S
C1750 C1751 1.385 . S
C1751 H1737 0.931 . S
C1751 C1750 1.385 . S
C1751 C1752 1.389 . S
C1752 C1751 1.389 . S
C1752 C1753 1.387 . S
C1753 H1738 0.930 . S
C1753 C1748 1.390 . S
C1753 C1752 1.387 . S
H1754 C1766 0.930 . S
H1755 C1768 0.930 . S
H1756 C1769 0.930 . S
H1757 C1773 0.959 . S
H1758 C1773 0.959 . S
H1759 C1773 0.961 . S
H1760 C1774 0.960 . S
H1761 C1774 0.961 . S
H1762 C1774 0.959 . S
H1763 C1777 0.929 . S
H1764 C1778 0.931 . S
H1765 C1780 0.930 . S
C1766 H1754 0.930 . S
C1766 C1767 1.399 . S
C1766 C1771 1.399 . S
C1767 C1766 1.399 . S
C1767 C1768 1.376 . S
C1768 H1755 0.930 . S
C1768 C1767 1.376 . S
C1768 C1769 1.388 . S
C1769 H1756 0.930 . S
C1769 C1768 1.388 . S
C1769 C1770 1.390 . S
C1770 C1769 1.390 . S
C1770 C1771 1.394 . S
C1770 C1776 1.465 . S
C1771 C1766 1.399 . S
C1771 C1770 1.394 . S
C1771 C1772 1.516 . S
C1772 C1771 1.516 . S
C1772 C1773 1.502 . S
C1772 C1774 1.561 . S
C1772 C1775 1.526 . S
C1773 H1757 0.959 . S
C1773 H1758 0.959 . S
C1773 H1759 0.961 . S
C1773 C1772 1.502 . S
C1774 H1760 0.960 . S
C1774 H1761 0.961 . S
C1774 H1762 0.959 . S
C1774 C1772 1.561 . S
C1775 C1772 1.526 . S
C1775 C1776 1.396 . S
C1775 C1780 1.390 . S
C1776 C1770 1.465 . S
C1776 C1775 1.396 . S
C1776 C1777 1.399 . S
C1777 H1763 0.929 . S
C1777 C1776 1.399 . S
C1777 C1778 1.385 . S
C1778 H1764 0.931 . S
C1778 C1777 1.385 . S
C1778 C1779 1.389 . S
C1779 C1778 1.389 . S
C1779 C1780 1.387 . S
C1780 H1765 0.930 . S
C1780 C1775 1.390 . S
C1780 C1779 1.387 . S
H1781 C1793 0.930 . S
H1782 C1795 0.930 . S
H1783 C1796 0.930 . S
H1784 C1800 0.959 . S
H1785 C1800 0.959 . S
H1786 C1800 0.961 . S
H1787 C1801 0.960 . S
H1788 C1801 0.961 . S
H1789 C1801 0.959 . S
H1790 C1804 0.929 . S
H1791 C1805 0.931 . S
H1792 C1807 0.930 . S
C1793 H1781 0.930 . S
C1793 C1794 1.399 . S
C1793 C1798 1.399 . S
C1794 C1793 1.399 . S
C1794 C1795 1.376 . S
C1795 H1782 0.930 . S
C1795 C1794 1.376 . S
C1795 C1796 1.388 . S
C1796 H1783 0.930 . S
C1796 C1795 1.388 . S
C1796 C1797 1.390 . S
C1797 C1796 1.390 . S
C1797 C1798 1.394 . S
C1797 C1803 1.465 . S
C1798 C1793 1.399 . S
C1798 C1797 1.394 . S
C1798 C1799 1.516 . S
C1799 C1798 1.516 . S
C1799 C1800 1.502 . S
C1799 C1801 1.561 . S
C1799 C1802 1.526 . S
C1800 H1784 0.959 . S
C1800 H1785 0.959 . S
C1800 H1786 0.961 . S
C1800 C1799 1.502 . S
C1801 H1787 0.960 . S
C1801 H1788 0.961 . S
C1801 H1789 0.959 . S
C1801 C1799 1.561 . S
C1802 C1799 1.526 . S
C1802 C1803 1.396 . S
C1802 C1807 1.390 . S
C1803 C1797 1.465 . S
C1803 C1802 1.396 . S
C1803 C1804 1.399 . S
C1804 H1790 0.929 . S
C1804 C1803 1.399 . S
C1804 C1805 1.385 . S
C1805 H1791 0.931 . S
C1805 C1804 1.385 . S
C1805 C1806 1.389 . S
C1806 C1805 1.389 . S
C1806 C1807 1.387 . S
C1807 H1792 0.930 . S
C1807 C1802 1.390 . S
C1807 C1806 1.387 . S
C957 C5 1.346 . S
C969 C241 1.377 . S
C984 C300 1.343 . S
C996 C64 1.345 . S
C1011 C123 1.548 . S
C1023 C359 1.569 . S
C1038 C182 1.531 . S
C1050 C418 1.544 . S
C1065 C477 1.339 1_554 S
C1077 C713 1.364 . S
C1092 C772 1.375 . S
C1104 C536 1.333 . S
C1119 C595 1.567 . S
C1131 C831 1.539 . S
C1146 C654 1.532 . S
C1158 C890 1.554 . S
C1173 C3 1.517 . S
C1185 C937 1.531 . S
C1200 C760 1.506 . S
C1212 C62 1.502 . S
C1227 C121 1.582 . S
C1239 C819 1.620 . S
C1254 C878 1.671 . S
C1266 C180 1.656 . S
C1281 C583 1.505 . S
C1293 C239 1.500 . S
C1308 C642 1.532 . S
C1320 C298 1.481 . S
C1335 C701 1.668 . S
C1347 C357 1.619 . S
C1362 C524 1.621 . S
C1374 C416 1.607 . S
C1389 C475 1.497 . S
C1401 C465 1.535 . S
C1416 C288 1.513 . S
C1428 C534 1.473 . S
C1443 C347 1.615 . S
C1455 C593 1.555 . S
C1470 C652 1.599 . S
C1482 C406 1.662 . S
C1497 C111 1.511 . S
C1509 C711 1.502 . S
C1524 C770 1.537 . S
C1536 C170 1.542 . S
C1551 C829 1.615 . S
C1563 C229 1.664 . S
C1578 C888 1.555 . S
C1590 C52 1.610 . S
C1605 C446 1.014 . S
C1617 C33 1.072 . S
C1632 C92 1.046 . S
C1644 C269 1.045 . S
C1659 C151 0.946 . S
C1671 C328 1.016 . S
C1686 C210 1.018 . S
C1698 C387 0.941 . S
C1713 C918 1.018 . S
C1725 C505 1.063 . S
C1740 C741 1.036 . S
C1752 C564 1.044 . S
C1767 C800 1.018 . S
C1779 C623 1.045 . S
C1794 C859 1.004 . S
C1806 C682 1.013 . S
