# Generated by pormake.
# Topology yfq, (5)-cn, num edge types: 1
# Building blocks:
#     Node 0, Type 0, BuildingBlock: BEQFEK_clean_sbu_0, # of connection points: 5
#     Node 1, Type 0, BuildingBlock: BEQFEK_clean_sbu_0, # of connection points: 5
#     Node 2, Type 0, BuildingBlock: BEQFEK_clean_sbu_0, # of connection points: 5
#     Node 3, Type 0, BuildingBlock: BEQFEK_clean_sbu_0, # of connection points: 5
#     Node 4, Type 0, BuildingBlock: BEQFEK_clean_sbu_0, # of connection points: 5
#     Node 5, Type 0, BuildingBlock: BEQFEK_clean_sbu_0, # of connection points: 5
#     Node 6, Type 0, BuildingBlock: BEQFEK_clean_sbu_0, # of connection points: 5
#     Node 7, Type 0, BuildingBlock: BEQFEK_clean_sbu_0, # of connection points: 5
#     Node 8, Type 0, BuildingBlock: BEQFEK_clean_sbu_0, # of connection points: 5
#     Node 9, Type 0, BuildingBlock: BEQFEK_clean_sbu_0, # of connection points: 5
#     Node 10, Type 0, BuildingBlock: BEQFEK_clean_sbu_0, # of connection points: 5
#     Node 11, Type 0, BuildingBlock: BEQFEK_clean_sbu_0, # of connection points: 5
#     Node 12, Type 0, BuildingBlock: BEQFEK_clean_sbu_0, # of connection points: 5
#     Node 13, Type 0, BuildingBlock: BEQFEK_clean_sbu_0, # of connection points: 5
#     Node 14, Type 0, BuildingBlock: BEQFEK_clean_sbu_0, # of connection points: 5
#     Node 15, Type 0, BuildingBlock: BEQFEK_clean_sbu_0, # of connection points: 5
#     Node 16, Type 0, BuildingBlock: BEQFEK_clean_sbu_0, # of connection points: 5
#     Node 17, Type 0, BuildingBlock: BEQFEK_clean_sbu_0, # of connection points: 5
#     Node 18, Type 0, BuildingBlock: BEQFEK_clean_sbu_0, # of connection points: 5
#     Node 19, Type 0, BuildingBlock: BEQFEK_clean_sbu_0, # of connection points: 5
#     Node 20, Type 0, BuildingBlock: BEQFEK_clean_sbu_0, # of connection points: 5
#     Node 21, Type 0, BuildingBlock: BEQFEK_clean_sbu_0, # of connection points: 5
#     Node 22, Type 0, BuildingBlock: BEQFEK_clean_sbu_0, # of connection points: 5
#     Node 23, Type 0, BuildingBlock: BEQFEK_clean_sbu_0, # of connection points: 5
#     Node 24, Type 0, BuildingBlock: BEQFEK_clean_sbu_0, # of connection points: 5
#     Node 25, Type 0, BuildingBlock: BEQFEK_clean_sbu_0, # of connection points: 5
#     Node 26, Type 0, BuildingBlock: BEQFEK_clean_sbu_0, # of connection points: 5
#     Node 27, Type 0, BuildingBlock: BEQFEK_clean_sbu_0, # of connection points: 5
#     Node 28, Type 0, BuildingBlock: BEQFEK_clean_sbu_0, # of connection points: 5
#     Node 29, Type 0, BuildingBlock: BEQFEK_clean_sbu_0, # of connection points: 5
#     Node 30, Type 0, BuildingBlock: BEQFEK_clean_sbu_0, # of connection points: 5
#     Node 31, Type 0, BuildingBlock: BEQFEK_clean_sbu_0, # of connection points: 5
#     Edge 32, Type (0, 0), BuildingBlock: CIFDUS_clean_linker_0, # of connection points: 2
#     Edge 33, Type (0, 0), BuildingBlock: CIFDUS_clean_linker_0, # of connection points: 2
#     Edge 34, Type (0, 0), BuildingBlock: CIFDUS_clean_linker_0, # of connection points: 2
#     Edge 35, Type (0, 0), BuildingBlock: CIFDUS_clean_linker_0, # of connection points: 2
#     Edge 36, Type (0, 0), BuildingBlock: CIFDUS_clean_linker_0, # of connection points: 2
#     Edge 37, Type (0, 0), BuildingBlock: CIFDUS_clean_linker_0, # of connection points: 2
#     Edge 38, Type (0, 0), BuildingBlock: CIFDUS_clean_linker_0, # of connection points: 2
#     Edge 39, Type (0, 0), BuildingBlock: CIFDUS_clean_linker_0, # of connection points: 2
#     Edge 40, Type (0, 0), BuildingBlock: CIFDUS_clean_linker_0, # of connection points: 2
#     Edge 41, Type (0, 0), BuildingBlock: CIFDUS_clean_linker_0, # of connection points: 2
#     Edge 42, Type (0, 0), BuildingBlock: CIFDUS_clean_linker_0, # of connection points: 2
#     Edge 43, Type (0, 0), BuildingBlock: CIFDUS_clean_linker_0, # of connection points: 2
#     Edge 44, Type (0, 0), BuildingBlock: CIFDUS_clean_linker_0, # of connection points: 2
#     Edge 45, Type (0, 0), BuildingBlock: CIFDUS_clean_linker_0, # of connection points: 2
#     Edge 46, Type (0, 0), BuildingBlock: CIFDUS_clean_linker_0, # of connection points: 2
#     Edge 47, Type (0, 0), BuildingBlock: CIFDUS_clean_linker_0, # of connection points: 2
#     Edge 48, Type (0, 0), BuildingBlock: CIFDUS_clean_linker_0, # of connection points: 2
#     Edge 49, Type (0, 0), BuildingBlock: CIFDUS_clean_linker_0, # of connection points: 2
#     Edge 50, Type (0, 0), BuildingBlock: CIFDUS_clean_linker_0, # of connection points: 2
#     Edge 51, Type (0, 0), BuildingBlock: CIFDUS_clean_linker_0, # of connection points: 2
#     Edge 52, Type (0, 0), BuildingBlock: CIFDUS_clean_linker_0, # of connection points: 2
#     Edge 53, Type (0, 0), BuildingBlock: CIFDUS_clean_linker_0, # of connection points: 2
#     Edge 54, Type (0, 0), BuildingBlock: CIFDUS_clean_linker_0, # of connection points: 2
#     Edge 55, Type (0, 0), BuildingBlock: CIFDUS_clean_linker_0, # of connection points: 2
#     Edge 56, Type (0, 0), BuildingBlock: CIFDUS_clean_linker_0, # of connection points: 2
#     Edge 57, Type (0, 0), BuildingBlock: CIFDUS_clean_linker_0, # of connection points: 2
#     Edge 58, Type (0, 0), BuildingBlock: CIFDUS_clean_linker_0, # of connection points: 2
#     Edge 59, Type (0, 0), BuildingBlock: CIFDUS_clean_linker_0, # of connection points: 2
#     Edge 60, Type (0, 0), BuildingBlock: CIFDUS_clean_linker_0, # of connection points: 2
#     Edge 61, Type (0, 0), BuildingBlock: CIFDUS_clean_linker_0, # of connection points: 2
#     Edge 62, Type (0, 0), BuildingBlock: CIFDUS_clean_linker_0, # of connection points: 2
#     Edge 63, Type (0, 0), BuildingBlock: CIFDUS_clean_linker_0, # of connection points: 2
#     Edge 64, Type (0, 0), BuildingBlock: CIFDUS_clean_linker_0, # of connection points: 2
#     Edge 65, Type (0, 0), BuildingBlock: CIFDUS_clean_linker_0, # of connection points: 2
#     Edge 66, Type (0, 0), BuildingBlock: CIFDUS_clean_linker_0, # of connection points: 2
#     Edge 67, Type (0, 0), BuildingBlock: CIFDUS_clean_linker_0, # of connection points: 2
#     Edge 68, Type (0, 0), BuildingBlock: CIFDUS_clean_linker_0, # of connection points: 2
#     Edge 69, Type (0, 0), BuildingBlock: CIFDUS_clean_linker_0, # of connection points: 2
#     Edge 70, Type (0, 0), BuildingBlock: CIFDUS_clean_linker_0, # of connection points: 2
#     Edge 71, Type (0, 0), BuildingBlock: CIFDUS_clean_linker_0, # of connection points: 2
#     Edge 72, Type (0, 0), BuildingBlock: CIFDUS_clean_linker_0, # of connection points: 2
#     Edge 73, Type (0, 0), BuildingBlock: CIFDUS_clean_linker_0, # of connection points: 2
#     Edge 74, Type (0, 0), BuildingBlock: CIFDUS_clean_linker_0, # of connection points: 2
#     Edge 75, Type (0, 0), BuildingBlock: CIFDUS_clean_linker_0, # of connection points: 2
#     Edge 76, Type (0, 0), BuildingBlock: CIFDUS_clean_linker_0, # of connection points: 2
#     Edge 77, Type (0, 0), BuildingBlock: CIFDUS_clean_linker_0, # of connection points: 2
#     Edge 78, Type (0, 0), BuildingBlock: CIFDUS_clean_linker_0, # of connection points: 2
#     Edge 79, Type (0, 0), BuildingBlock: CIFDUS_clean_linker_0, # of connection points: 2
#     Edge 80, Type (0, 0), BuildingBlock: CIFDUS_clean_linker_0, # of connection points: 2
#     Edge 81, Type (0, 0), BuildingBlock: CIFDUS_clean_linker_0, # of connection points: 2
#     Edge 82, Type (0, 0), BuildingBlock: CIFDUS_clean_linker_0, # of connection points: 2
#     Edge 83, Type (0, 0), BuildingBlock: CIFDUS_clean_linker_0, # of connection points: 2
#     Edge 84, Type (0, 0), BuildingBlock: CIFDUS_clean_linker_0, # of connection points: 2
#     Edge 85, Type (0, 0), BuildingBlock: CIFDUS_clean_linker_0, # of connection points: 2
#     Edge 86, Type (0, 0), BuildingBlock: CIFDUS_clean_linker_0, # of connection points: 2
#     Edge 87, Type (0, 0), BuildingBlock: CIFDUS_clean_linker_0, # of connection points: 2
#     Edge 88, Type (0, 0), BuildingBlock: CIFDUS_clean_linker_0, # of connection points: 2
#     Edge 89, Type (0, 0), BuildingBlock: CIFDUS_clean_linker_0, # of connection points: 2
#     Edge 90, Type (0, 0), BuildingBlock: CIFDUS_clean_linker_0, # of connection points: 2
#     Edge 91, Type (0, 0), BuildingBlock: CIFDUS_clean_linker_0, # of connection points: 2
#     Edge 92, Type (0, 0), BuildingBlock: CIFDUS_clean_linker_0, # of connection points: 2
#     Edge 93, Type (0, 0), BuildingBlock: CIFDUS_clean_linker_0, # of connection points: 2
#     Edge 94, Type (0, 0), BuildingBlock: CIFDUS_clean_linker_0, # of connection points: 2
#     Edge 95, Type (0, 0), BuildingBlock: CIFDUS_clean_linker_0, # of connection points: 2
#     Edge 96, Type (0, 0), BuildingBlock: CIFDUS_clean_linker_0, # of connection points: 2
#     Edge 97, Type (0, 0), BuildingBlock: CIFDUS_clean_linker_0, # of connection points: 2
#     Edge 98, Type (0, 0), BuildingBlock: CIFDUS_clean_linker_0, # of connection points: 2
#     Edge 99, Type (0, 0), BuildingBlock: CIFDUS_clean_linker_0, # of connection points: 2
#     Edge 100, Type (0, 0), BuildingBlock: CIFDUS_clean_linker_0, # of connection points: 2
#     Edge 101, Type (0, 0), BuildingBlock: CIFDUS_clean_linker_0, # of connection points: 2
#     Edge 102, Type (0, 0), BuildingBlock: CIFDUS_clean_linker_0, # of connection points: 2
#     Edge 103, Type (0, 0), BuildingBlock: CIFDUS_clean_linker_0, # of connection points: 2
#     Edge 104, Type (0, 0), BuildingBlock: CIFDUS_clean_linker_0, # of connection points: 2
#     Edge 105, Type (0, 0), BuildingBlock: CIFDUS_clean_linker_0, # of connection points: 2
#     Edge 106, Type (0, 0), BuildingBlock: CIFDUS_clean_linker_0, # of connection points: 2
#     Edge 107, Type (0, 0), BuildingBlock: CIFDUS_clean_linker_0, # of connection points: 2
#     Edge 108, Type (0, 0), BuildingBlock: CIFDUS_clean_linker_0, # of connection points: 2
#     Edge 109, Type (0, 0), BuildingBlock: CIFDUS_clean_linker_0, # of connection points: 2
#     Edge 110, Type (0, 0), BuildingBlock: CIFDUS_clean_linker_0, # of connection points: 2
#     Edge 111, Type (0, 0), BuildingBlock: CIFDUS_clean_linker_0, # of connection points: 2
# Relax obj value: 0.340
# Max RMSD: 0.201
# Mean RMSD: 0.201
data_MOF--net-yfq--node1-BEQFEK_clean_sbu_0--edge1-CIFDUS_clean_linker_0
_symmetry_space_group_name_H-M    P1
_symmetry_Int_Tables_number       1
_symmetry_cell_setting            triclinic
loop_
_symmetry_equiv_pos_as_xyz
'x, y, z'
_cell_length_a     50.719411
_cell_length_b     50.750514
_cell_length_c     55.81628
_cell_angle_alpha  90.022045
_cell_angle_beta   89.997373
_cell_angle_gamma 89.853415
loop_
_atom_site_label
_atom_site_type_symbol
_atom_site_fract_x
_atom_site_fract_y
_atom_site_fract_z
_atom_type_partial_charge
Co0 Co 0.10878 0.23274 0.29554 0.0
Co1 Co 0.10495 0.18575 0.25841 0.0
C2 C 0.06708 0.23178 0.25877 0.0
O3 O 0.07906 0.24367 0.27556 0.0
O4 O 0.07448 0.20926 0.25126 0.0
C5 C 0.10988 0.28462 0.31596 0.0
O6 O 0.09974 0.29127 0.29516 0.0
C7 C 0.10784 0.16946 0.20864 0.0
C8 C 0.1112 0.12611 0.21039 0.0
C9 C 0.11035 0.14709 0.19448 0.0
N10 N 0.10761 0.16208 0.23177 0.0
N11 N 0.10958 0.13613 0.23274 0.0
C12 C 0.10348 0.19733 0.20071 0.0
H13 H 0.1149 0.21095 0.21227 0.0
H14 H 0.10871 0.20046 0.18168 0.0
H15 H 0.0823 0.20227 0.20297 0.0
C16 C 0.1614 0.23707 0.27524 0.0
N17 N 0.13778 0.22535 0.27637 0.0
N18 N 0.13707 0.20529 0.26143 0.0
C19 C 0.16076 0.20333 0.25057 0.0
C20 C 0.17681 0.22344 0.25897 0.0
C21 C 0.16816 0.26187 0.2884 0.0
H22 H 0.16933 0.25766 0.30788 0.0
H23 H 0.15234 0.27661 0.28551 0.0
H24 H 0.18703 0.27051 0.28226 0.0
O25 O 0.09901 0.20103 0.31367 0.0
O26 O 0.09636 0.16679 0.28882 0.0
H27 H 0.19022 0.17941 0.23292 0.0
H28 H 0.16148 0.18701 0.2153 0.0
C29 C 0.16848 0.18188 0.23354 0.0
H30 H 0.15933 0.16301 0.23901 0.0
H31 H 0.10981 0.12528 0.24861 0.0
O32 O 0.11617 0.2607 0.31963 0.0
C33 C 0.09474 0.17668 0.30981 0.0
Co34 Co 0.01945 0.85574 0.55001 0.0
Co35 Co 0.06628 0.8571 0.512 0.0
C36 C 0.02489 0.81481 0.51246 0.0
O37 O 0.01205 0.82516 0.52963 0.0
O38 O 0.04617 0.8248 0.50467 0.0
C39 C 0.96657 0.85348 0.56788 0.0
O40 O 0.9615 0.84524 0.54605 0.0
C41 C 0.08934 0.85339 0.46341 0.0
C42 C 0.12125 0.88283 0.46478 0.0
C43 C 0.10818 0.86592 0.44931 0.0
N44 N 0.09064 0.86314 0.48586 0.0
N45 N 0.11011 0.88039 0.48661 0.0
C46 C 0.07165 0.83115 0.45624 0.0
H47 H 0.07367 0.81491 0.46938 0.0
H48 H 0.05086 0.838 0.45632 0.0
H49 H 0.07677 0.82301 0.43842 0.0
C50 C 0.00901 0.90762 0.5302 0.0
N51 N 0.02364 0.8856 0.53118 0.0
N52 N 0.04252 0.88661 0.51497 0.0
C53 C 0.04005 0.90954 0.50286 0.0
C54 C 0.01869 0.92333 0.51212 0.0
C55 C 0.9868 0.91393 0.54695 0.0
H56 H 0.99239 0.90857 0.56551 0.0
H57 H 0.96922 0.90232 0.54173 0.0
H58 H 0.98161 0.93517 0.5465 0.0
O59 O 0.05166 0.84898 0.56816 0.0
O60 O 0.08563 0.84959 0.54285 0.0
H61 H 0.07679 0.92232 0.4884 0.0
H62 H 0.0484 0.935 0.4727 0.0
C63 C 0.05669 0.91751 0.48198 0.0
H64 H 0.0581 0.90097 0.46907 0.0
H65 H 0.11522 0.89118 0.50183 0.0
O66 O 0.99009 0.85959 0.57339 0.0
C67 C 0.07623 0.84684 0.56395 0.0
Co68 Co 0.37376 0.77468 0.81375 0.0
Co69 Co 0.38739 0.81056 0.76912 0.0
C70 C 0.42519 0.77016 0.78801 0.0
O71 O 0.40936 0.76394 0.80471 0.0
O72 O 0.41918 0.78724 0.77219 0.0
C73 C 0.36696 0.72716 0.84001 0.0
O74 O 0.37969 0.71711 0.82162 0.0
C75 C 0.39415 0.81989 0.71723 0.0
C76 C 0.38261 0.86168 0.71391 0.0
C77 C 0.38954 0.83975 0.7004 0.0
N78 N 0.38939 0.82958 0.73931 0.0
N79 N 0.38288 0.85468 0.73717 0.0
C80 C 0.40325 0.79223 0.71273 0.0
H81 H 0.41362 0.78424 0.72855 0.0
H82 H 0.38594 0.77949 0.7092 0.0
H83 H 0.41674 0.79145 0.69709 0.0
C84 C 0.32804 0.76189 0.78454 0.0
N85 N 0.35099 0.77451 0.78765 0.0
N86 N 0.3552 0.7906 0.76956 0.0
C87 C 0.33435 0.7891 0.75452 0.0
C88 C 0.31659 0.77087 0.7636 0.0
C89 C 0.31802 0.74078 0.80093 0.0
H90 H 0.3143 0.74923 0.81895 0.0
H91 H 0.33321 0.72521 0.80256 0.0
H92 H 0.29985 0.73128 0.79419 0.0
O93 O 0.3763 0.81001 0.82696 0.0
O94 O 0.38956 0.83576 0.79705 0.0
H95 H 0.33676 0.82669 0.73714 0.0
H96 H 0.3092 0.80685 0.72768 0.0
C97 C 0.33024 0.80636 0.73311 0.0
H98 H 0.34199 0.79863 0.7179 0.0
H99 H 0.37769 0.8668 0.75154 0.0
O100 O 0.36163 0.75161 0.84012 0.0
C101 C 0.38376 0.83227 0.81911 0.0
Co102 Co 0.47337 0.12974 0.05196 0.0
Co103 Co 0.42567 0.13062 0.01576 0.0
C104 C 0.46799 0.17274 0.01723 0.0
O105 O 0.48163 0.1611 0.03312 0.0
O106 O 0.44615 0.16344 0.00992 0.0
C107 C 0.52558 0.13009 0.07096 0.0
O108 O 0.53111 0.14034 0.04994 0.0
C109 C 0.41205 0.12541 0.96572 0.0
C110 C 0.36856 0.12634 0.96512 0.0
C111 C 0.39056 0.12448 0.95044 0.0
N112 N 0.40328 0.12731 0.98838 0.0
N113 N 0.37722 0.12782 0.98795 0.0
C114 C 0.44058 0.12675 0.95882 0.0
H115 H 0.44335 0.14169 0.94453 0.0
H116 H 0.45307 0.13161 0.97448 0.0
H117 H 0.44714 0.10748 0.95161 0.0
C118 C 0.48197 0.07813 0.03049 0.0
N119 N 0.4685 0.10083 0.0321 0.0
N120 N 0.44775 0.10002 0.01797 0.0
C121 C 0.44702 0.07614 0.00734 0.0
C122 C 0.46875 0.0617 0.01487 0.0
C123 C 0.50775 0.07306 0.04277 0.0
H124 H 0.50458 0.07223 0.06242 0.0
H125 H 0.5214 0.08948 0.03884 0.0
H126 H 0.51722 0.05452 0.03671 0.0
O127 O 0.44088 0.13615 0.07033 0.0
O128 O 0.40585 0.13651 0.04621 0.0
H129 H 0.40614 0.0762 0.99698 0.0
H130 H 0.42259 0.04466 0.99413 0.0
C131 C 0.42488 0.0663 0.99207 0.0
H132 H 0.4293 0.07034 0.97298 0.0
H133 H 0.36539 0.12959 1.00317 0.0
O134 O 0.50196 0.12354 0.07554 0.0
C135 C 0.41612 0.13834 0.06704 0.0
Co136 Co 0.10932 0.76846 0.20056 0.0
Co137 Co 0.10574 0.81087 0.24211 0.0
C138 C 0.06762 0.76611 0.23832 0.0
O139 O 0.07942 0.7565 0.22021 0.0
O140 O 0.07511 0.78745 0.24812 0.0
C141 C 0.11307 0.71689 0.18075 0.0
O142 O 0.10789 0.71005 0.20296 0.0
C143 C 0.10105 0.82915 0.292 0.0
C144 C 0.1232 0.86654 0.29179 0.0
C145 C 0.10934 0.84964 0.30662 0.0
N146 N 0.10951 0.83372 0.26951 0.0
N147 N 0.12261 0.85622 0.26951 0.0
C148 C 0.08758 0.80435 0.29969 0.0
H149 H 0.09654 0.78719 0.29039 0.0
H150 H 0.08904 0.80138 0.31934 0.0
H151 H 0.06645 0.80545 0.29459 0.0
C152 C 0.16245 0.76204 0.21949 0.0
N153 N 0.13875 0.7738 0.2198 0.0
N154 N 0.13747 0.79052 0.23781 0.0
C155 C 0.16045 0.78931 0.25 0.0
C156 C 0.17689 0.77114 0.23876 0.0
C157 C 0.17152 0.74339 0.20037 0.0
H158 H 0.16397 0.74986 0.18268 0.0
H159 H 0.16378 0.72343 0.20424 0.0
H160 H 0.19336 0.74236 0.19954 0.0
O161 O 0.10028 0.80131 0.18432 0.0
O162 O 0.09707 0.8322 0.21259 0.0
H163 H 0.16792 0.82513 0.26887 0.0
H164 H 0.18404 0.79666 0.28169 0.0
C165 C 0.16583 0.80382 0.27281 0.0
H166 H 0.14902 0.80126 0.28527 0.0
H167 H 0.13164 0.86425 0.25439 0.0
O168 O 0.11543 0.74118 0.1757 0.0
C169 C 0.09593 0.82498 0.19068 0.0
Co170 Co 0.45394 0.86538 0.44603 0.0
Co171 Co 0.41684 0.85821 0.49094 0.0
C172 C 0.46339 0.82291 0.48209 0.0
O173 O 0.4704 0.83578 0.4636 0.0
O174 O 0.44283 0.82902 0.49397 0.0
C175 C 0.50158 0.87503 0.41973 0.0
O176 O 0.51295 0.87126 0.44061 0.0
C177 C 0.40473 0.85331 0.54227 0.0
C178 C 0.36616 0.87336 0.54501 0.0
C179 C 0.3857 0.86139 0.55851 0.0
N180 N 0.39684 0.86016 0.5201 0.0
N181 N 0.37354 0.87175 0.52185 0.0
C182 C 0.43121 0.84181 0.5479 0.0
H183 H 0.44664 0.85224 0.53752 0.0
H184 H 0.43572 0.84305 0.56732 0.0
H185 H 0.43148 0.82081 0.54236 0.0
C186 C 0.45839 0.91869 0.46518 0.0
N187 N 0.44867 0.89416 0.46616 0.0
N188 N 0.43426 0.89139 0.48561 0.0
C189 C 0.43516 0.9142 0.49811 0.0
C190 C 0.45056 0.93212 0.48553 0.0
C191 C 0.47376 0.92951 0.44451 0.0
H192 H 0.46587 0.92167 0.42743 0.0
H193 H 0.4947 0.92349 0.44626 0.0
H194 H 0.47274 0.95135 0.444 0.0
O195 O 0.42021 0.85435 0.43288 0.0
O196 O 0.39277 0.84866 0.46356 0.0
H197 H 0.40145 0.91834 0.52074 0.0
H198 H 0.42979 0.93675 0.53078 0.0
C199 C 0.42323 0.91809 0.52238 0.0
H200 H 0.42893 0.90152 0.5342 0.0
H201 H 0.36323 0.87964 0.50734 0.0
O202 O 0.47662 0.87399 0.41831 0.0
C203 C 0.39767 0.8484 0.44113 0.0
Co204 Co 0.37996 0.21972 0.7025 0.0
Co205 Co 0.38727 0.17707 0.74305 0.0
C206 C 0.42295 0.22424 0.73826 0.0
O207 O 0.4099 0.23374 0.72084 0.0
O208 O 0.4167 0.20244 0.74799 0.0
C209 C 0.37218 0.2703 0.68175 0.0
O210 O 0.38015 0.27802 0.70303 0.0
C211 C 0.38702 0.1633 0.79356 0.0
C212 C 0.38181 0.1201 0.79343 0.0
C213 C 0.38388 0.1417 0.80853 0.0
N214 N 0.38632 0.15493 0.77073 0.0
N215 N 0.3834 0.12906 0.77073 0.0
C216 C 0.39215 0.19137 0.80044 0.0
H217 H 0.41287 0.19624 0.79591 0.0
H218 H 0.37932 0.20469 0.7898 0.0
H219 H 0.38928 0.19498 0.81983 0.0
C220 C 0.3275 0.22381 0.72395 0.0
N221 N 0.35151 0.21265 0.72272 0.0
N222 N 0.35393 0.19468 0.73959 0.0
C223 C 0.33112 0.19377 0.75207 0.0
C224 C 0.31379 0.21223 0.7426 0.0
C225 C 0.31926 0.24711 0.70923 0.0
H226 H 0.32183 0.24255 0.68995 0.0
H227 H 0.33193 0.26406 0.71392 0.0
H228 H 0.29862 0.25323 0.71234 0.0
O229 O 0.39107 0.18727 0.68615 0.0
O230 O 0.39641 0.15618 0.71387 0.0
H231 H 0.33413 0.15577 0.76871 0.0
H232 H 0.30407 0.17345 0.77546 0.0
C233 C 0.3256 0.17546 0.77245 0.0
H234 H 0.3346 0.1834 0.78904 0.0
H235 H 0.38204 0.11759 0.75526 0.0
O236 O 0.37043 0.24579 0.67744 0.0
C237 C 0.39702 0.16377 0.69209 0.0
Co238 Co 0.01483 0.12727 0.94931 0.0
Co239 Co 0.05998 0.13034 0.98831 0.0
C240 C 0.01459 0.16842 0.98704 0.0
O241 O 0.00355 0.15684 0.96956 0.0
O242 O 0.03664 0.16072 0.99532 0.0
C243 C 0.9624 0.12448 0.93094 0.0
O244 O 0.95631 0.13056 0.95315 0.0
C245 C 0.07466 0.12874 0.0385 0.0
C246 C 0.11786 0.12323 0.03811 0.0
C247 C 0.09641 0.12591 0.05335 0.0
N248 N 0.08276 0.12742 0.0156 0.0
N249 N 0.10863 0.12416 0.01543 0.0
C250 C 0.0468 0.13478 0.0456 0.0
H251 H 0.04398 0.15647 0.04546 0.0
H252 H 0.03289 0.12611 0.03245 0.0
H253 H 0.0421 0.12757 0.0638 0.0
C254 C 0.01027 0.07394 0.96773 0.0
N255 N 0.02165 0.09772 0.96788 0.0
N256 N 0.0402 0.09844 0.98439 0.0
C257 C 0.04094 0.07482 0.99551 0.0
C258 C 0.02179 0.05878 0.9854 0.0
C259 C 0.98949 0.06558 0.95026 0.0
H260 H 0.99469 0.07254 0.93205 0.0
H261 H 0.97036 0.07452 0.95547 0.0
H262 H 0.98732 0.04384 0.94978 0.0
O263 O 0.04698 0.13648 0.93195 0.0
O264 O 0.07998 0.13905 0.9583 0.0
H265 H 0.07897 0.07484 0.01226 0.0
H266 H 0.05874 0.04689 0.02015 0.0
C267 C 0.0586 0.06827 0.01617 0.0
H268 H 0.0515 0.07876 0.03235 0.0
H269 H 0.11997 0.12266 0.99989 0.0
O270 O 0.9865 0.12122 0.92538 0.0
C271 C 0.07114 0.14044 0.9369 0.0
Co272 Co 0.88221 0.77206 0.70261 0.0
Co273 Co 0.88105 0.82001 0.73903 0.0
C274 C 0.92369 0.77866 0.73933 0.0
O275 O 0.91303 0.76506 0.72286 0.0
O276 O 0.91374 0.80027 0.7465 0.0
C277 C 0.88602 0.71926 0.68475 0.0
O278 O 0.89623 0.7149 0.70602 0.0
C279 C 0.87943 0.83699 0.78867 0.0
C280 C 0.86811 0.87893 0.78678 0.0
C281 C 0.87434 0.85896 0.80285 0.0
N282 N 0.87652 0.84371 0.76551 0.0
N283 N 0.86987 0.86887 0.76446 0.0
C284 C 0.88484 0.80936 0.79675 0.0
H285 H 0.87873 0.79506 0.78278 0.0
H286 H 0.87426 0.80502 0.81369 0.0
H287 H 0.90632 0.80692 0.79979 0.0
C288 C 0.83043 0.76247 0.72323 0.0
N289 N 0.85238 0.77702 0.72145 0.0
N290 N 0.85124 0.79693 0.73656 0.0
C291 C 0.82813 0.79558 0.74849 0.0
C292 C 0.81436 0.77373 0.74041 0.0
C293 C 0.82634 0.73693 0.71031 0.0
H294 H 0.82729 0.74037 0.69071 0.0
H295 H 0.84238 0.7231 0.71523 0.0
H296 H 0.80726 0.72759 0.71481 0.0
O297 O 0.88897 0.80398 0.68382 0.0
O298 O 0.88817 0.83887 0.70809 0.0
H299 H 0.82481 0.83509 0.76188 0.0
H300 H 0.79741 0.81391 0.7695 0.0
C301 C 0.81912 0.81482 0.76709 0.0
H302 H 0.82859 0.80998 0.78444 0.0
H303 H 0.86626 0.87908 0.74856 0.0
O304 O 0.87798 0.74233 0.6796 0.0
C305 C 0.89098 0.82869 0.68729 0.0
Co306 Co 0.97242 0.13863 0.45038 0.0
Co307 Co 0.92705 0.13518 0.48948 0.0
C308 C 0.96524 0.1802 0.48735 0.0
O309 O 0.97796 0.17021 0.46994 0.0
O310 O 0.94492 0.16917 0.49612 0.0
C311 C 0.02439 0.14432 0.43122 0.0
O312 O 0.02965 0.15288 0.45292 0.0
C313 C 0.90434 0.13685 0.53828 0.0
C314 C 0.87354 0.10626 0.53634 0.0
C315 C 0.88595 0.12332 0.55211 0.0
N316 N 0.90338 0.12755 0.51567 0.0
N317 N 0.88459 0.10958 0.51459 0.0
C318 C 0.92134 0.15947 0.54582 0.0
H319 H 0.94234 0.15327 0.54555 0.0
H320 H 0.91603 0.16703 0.56381 0.0
H321 H 0.91881 0.17592 0.53299 0.0
C322 C 0.98701 0.08799 0.47084 0.0
N323 N 0.97116 0.10918 0.47001 0.0
N324 N 0.95273 0.10728 0.48656 0.0
C325 C 0.95664 0.08456 0.49868 0.0
C326 C 0.97851 0.07186 0.48912 0.0
C327 C 0.00887 0.08262 0.45346 0.0
H328 H 0.00226 0.08732 0.43502 0.0
H329 H 0.02593 0.09535 0.4579 0.0
H330 H 0.01531 0.06172 0.45403 0.0
O331 O 0.93944 0.14197 0.43266 0.0
O332 O 0.90648 0.14029 0.459 0.0
H333 H 0.92061 0.06983 0.51308 0.0
H334 H 0.94965 0.05838 0.52861 0.0
C335 C 0.94047 0.07554 0.51951 0.0
H336 H 0.9383 0.09183 0.53258 0.0
H337 H 0.87989 0.09897 0.49916 0.0
O338 O 0.00121 0.13653 0.42641 0.0
C339 C 0.91498 0.14246 0.43756 0.0
Co340 Co 0.62051 0.20972 0.19742 0.0
Co341 Co 0.61589 0.16749 0.23887 0.0
C342 C 0.58093 0.21555 0.23615 0.0
O343 O 0.59257 0.22469 0.21775 0.0
O344 O 0.58743 0.19352 0.24536 0.0
C345 C 0.62502 0.25892 0.17155 0.0
O346 O 0.61679 0.26964 0.19165 0.0
C347 C 0.61432 0.15199 0.28944 0.0
C348 C 0.63015 0.11143 0.28871 0.0
C349 C 0.62125 0.13099 0.30405 0.0
N350 N 0.61889 0.14519 0.2665 0.0
N351 N 0.62808 0.12079 0.26618 0.0
C352 C 0.60602 0.17901 0.29721 0.0
H353 H 0.58422 0.18052 0.29614 0.0
H354 H 0.61461 0.19404 0.2851 0.0
H355 H 0.61225 0.18309 0.3159 0.0
C356 C 0.67344 0.21484 0.21644 0.0
N357 N 0.65015 0.20243 0.21582 0.0
N358 N 0.64867 0.18536 0.23352 0.0
C359 C 0.67126 0.1867 0.24625 0.0
C360 C 0.68755 0.20541 0.23583 0.0
C361 C 0.6799 0.23819 0.20112 0.0
H362 H 0.67746 0.23287 0.18198 0.0
H363 H 0.66603 0.25441 0.20541 0.0
H364 H 0.70021 0.24549 0.2039 0.0
O365 O 0.60814 0.17738 0.18256 0.0
O366 O 0.60468 0.14617 0.21031 0.0
H367 H 0.67234 0.15066 0.2661 0.0
H368 H 0.69741 0.17403 0.27462 0.0
C369 C 0.67657 0.17184 0.26888 0.0
H370 H 0.66353 0.17938 0.28328 0.0
H371 H 0.63372 0.11083 0.25063 0.0
O372 O 0.6283 0.23412 0.17055 0.0
C373 C 0.60273 0.15389 0.18863 0.0
Co374 Co 0.52248 0.85347 0.95328 0.0
Co375 Co 0.56707 0.84854 0.99262 0.0
C376 C 0.52533 0.80656 0.98377 0.0
O377 O 0.51285 0.81979 0.96804 0.0
O378 O 0.54621 0.81523 0.99371 0.0
C379 C 0.47326 0.85852 0.92597 0.0
O380 O 0.46174 0.84647 0.94397 0.0
C381 C 0.5812 0.84692 0.04349 0.0
C382 C 0.62471 0.84788 0.04249 0.0
C383 C 0.60343 0.84641 0.05802 0.0
N384 N 0.589 0.84881 0.02052 0.0
N385 N 0.61504 0.84947 0.02005 0.0
C386 C 0.55308 0.84353 0.05104 0.0
H387 H 0.54044 0.83878 0.03543 0.0
H388 H 0.54573 0.86209 0.05914 0.0
H389 H 0.55158 0.82777 0.06475 0.0
C390 C 0.51117 0.90177 0.9795 0.0
N391 N 0.5252 0.87959 0.97657 0.0
N392 N 0.54476 0.879 0.99207 0.0
C393 C 0.54427 0.90156 0.00488 0.0
C394 C 0.52293 0.91661 0.9973 0.0
C395 C 0.48623 0.90778 0.96621 0.0
H396 H 0.491 0.91281 0.94736 0.0
H397 H 0.4735 0.89011 0.96627 0.0
H398 H 0.47503 0.9242 0.97449 0.0
O399 O 0.55653 0.84935 0.93696 0.0
O400 O 0.5892 0.84639 0.96336 0.0
H401 H 0.58436 0.90082 0.01743 0.0
H402 H 0.56704 0.93149 0.02281 0.0
C403 C 0.56512 0.90971 0.02233 0.0
H404 H 0.55957 0.90295 0.04051 0.0
H405 H 0.62622 0.85058 0.00439 0.0
O406 O 0.4978 0.86335 0.92704 0.0
C407 C 0.58091 0.84702 0.94183 0.0
Co408 Co 0.88759 0.21777 0.79976 0.0
Co409 Co 0.88783 0.17336 0.7598 0.0
C410 C 0.93161 0.21274 0.76492 0.0
O411 O 0.92004 0.22496 0.78181 0.0
O412 O 0.92181 0.19222 0.75535 0.0
C413 C 0.89129 0.26909 0.82035 0.0
O414 O 0.90149 0.27453 0.79929 0.0
C415 C 0.89133 0.15644 0.70991 0.0
C416 C 0.87059 0.11826 0.70954 0.0
C417 C 0.88364 0.13607 0.69495 0.0
N418 N 0.88338 0.15098 0.73234 0.0
N419 N 0.87109 0.12803 0.73204 0.0
C420 C 0.90416 0.18177 0.70274 0.0
H421 H 0.92576 0.18005 0.70554 0.0
H422 H 0.89667 0.19815 0.71405 0.0
H423 H 0.90041 0.18629 0.68359 0.0
C424 C 0.83727 0.23072 0.7773 0.0
N425 N 0.8591 0.21582 0.77882 0.0
N426 N 0.85873 0.19754 0.76208 0.0
C427 C 0.83634 0.20037 0.74924 0.0
C428 C 0.8221 0.22142 0.75855 0.0
C429 C 0.8321 0.2544 0.79263 0.0
H430 H 0.8322 0.24853 0.81177 0.0
H431 H 0.8481 0.26889 0.78983 0.0
H432 H 0.81314 0.26417 0.78831 0.0
O433 O 0.89176 0.18421 0.81677 0.0
O434 O 0.89208 0.15195 0.7897 0.0
H435 H 0.82961 0.16187 0.735 0.0
H436 H 0.80783 0.18681 0.7231 0.0
C437 C 0.82828 0.18268 0.72911 0.0
H438 H 0.84194 0.18545 0.71381 0.0
H439 H 0.86268 0.11923 0.7471 0.0
O440 O 0.88306 0.24586 0.82437 0.0
C441 C 0.89342 0.15989 0.81138 0.0
Co442 Co 0.52596 0.13183 0.55698 0.0
Co443 Co 0.56382 0.13739 0.51227 0.0
C444 C 0.52502 0.17882 0.52362 0.0
O445 O 0.51829 0.16638 0.54241 0.0
O446 O 0.54184 0.16952 0.509 0.0
C447 C 0.47446 0.1298 0.57551 0.0
O448 O 0.46901 0.13588 0.55316 0.0
C449 C 0.58226 0.14502 0.46252 0.0
C450 C 0.61193 0.11339 0.45894 0.0
C451 C 0.59827 0.13222 0.44585 0.0
N452 N 0.58553 0.13349 0.48407 0.0
N453 N 0.60381 0.11505 0.48188 0.0
C454 C 0.56509 0.16865 0.4585 0.0
H455 H 0.54411 0.16249 0.45813 0.0
H456 H 0.57014 0.17895 0.4416 0.0
H457 H 0.56778 0.18282 0.4734 0.0
C458 C 0.51386 0.08167 0.53411 0.0
N459 N 0.52657 0.10484 0.53442 0.0
N460 N 0.54145 0.10699 0.5152 0.0
C461 C 0.53769 0.08536 0.50148 0.0
C462 C 0.52021 0.06868 0.51313 0.0
C463 C 0.49807 0.0711 0.55464 0.0
H464 H 0.50639 0.07805 0.57187 0.0
H465 H 0.47744 0.07821 0.5531 0.0
H466 H 0.49792 0.04924 0.55463 0.0
O467 O 0.56 0.13419 0.57234 0.0
O468 O 0.58694 0.14275 0.54175 0.0
H469 H 0.56981 0.07395 0.47901 0.0
H470 H 0.53786 0.06656 0.46674 0.0
C471 C 0.5493 0.08126 0.47713 0.0
H472 H 0.54947 0.1001 0.46712 0.0
H473 H 0.60972 0.10263 0.49579 0.0
O474 O 0.49836 0.12616 0.58149 0.0
C475 C 0.58267 0.13989 0.56422 0.0
Co476 Co 0.60823 0.77557 0.30986 0.0
Co477 Co 0.60076 0.8155 0.26711 0.0
C478 C 0.5639 0.76971 0.27583 0.0
O479 O 0.5772 0.76101 0.29348 0.0
O480 O 0.57038 0.79062 0.26467 0.0
C481 C 0.61447 0.72831 0.33835 0.0
O482 O 0.60437 0.71615 0.3197 0.0
C483 C 0.59907 0.82848 0.21577 0.0
C484 C 0.5989 0.872 0.21631 0.0
C485 C 0.59798 0.85049 0.20104 0.0
N486 N 0.60074 0.83662 0.23867 0.0
N487 N 0.60075 0.86266 0.23884 0.0
C488 C 0.59617 0.80026 0.20845 0.0
H489 H 0.57727 0.79767 0.19871 0.0
H490 H 0.59674 0.78709 0.2243 0.0
H491 H 0.61231 0.79458 0.1961 0.0
C492 C 0.659 0.76719 0.28681 0.0
N493 N 0.63576 0.77975 0.28816 0.0
N494 N 0.63359 0.79675 0.27044 0.0
C495 C 0.65598 0.79573 0.25735 0.0
C496 C 0.67269 0.77696 0.26734 0.0
C497 C 0.66636 0.74428 0.30238 0.0
H498 H 0.66807 0.75098 0.32123 0.0
H499 H 0.65058 0.72931 0.30138 0.0
H500 H 0.68503 0.73471 0.29685 0.0
O501 O 0.59948 0.80954 0.32432 0.0
O502 O 0.59378 0.83888 0.29524 0.0
H503 H 0.65302 0.83252 0.23853 0.0
H504 H 0.68321 0.81436 0.23305 0.0
C505 C 0.66165 0.81262 0.23603 0.0
H506 H 0.65277 0.8035 0.2199 0.0
H507 H 0.60154 0.87408 0.25438 0.0
O508 O 0.61822 0.75301 0.33737 0.0
C509 C 0.59436 0.83282 0.31738 0.0
Co510 Co 0.95776 0.85921 0.0577 0.0
Co511 Co 0.91832 0.85254 0.01404 0.0
C512 C 0.96788 0.81991 0.01971 0.0
O513 O 0.9754 0.83203 0.03843 0.0
O514 O 0.94616 0.8254 0.0094 0.0
C515 C 0.0052 0.86723 0.08552 0.0
O516 O 0.01728 0.86268 0.0651 0.0
C517 C 0.90878 0.85146 0.96245 0.0
C518 C 0.86571 0.85684 0.95947 0.0
C519 C 0.88835 0.85325 0.94586 0.0
N520 N 0.89865 0.85369 0.98464 0.0
N521 N 0.87286 0.85684 0.98275 0.0
C522 C 0.93775 0.84974 0.95752 0.0
H523 H 0.94907 0.85876 0.97241 0.0
H524 H 0.94276 0.8598 0.94048 0.0
H525 H 0.94359 0.8287 0.95616 0.0
C526 C 0.95952 0.91302 0.0399 0.0
N527 N 0.95007 0.88843 0.0389 0.0
N528 N 0.93367 0.88625 0.02068 0.0
C529 C 0.93234 0.90975 0.00942 0.0
C530 C 0.94887 0.92723 0.02119 0.0
C531 C 0.97866 0.92262 0.05834 0.0
H532 H 0.97218 0.91626 0.07639 0.0
H533 H -0.00166 0.9139 0.05472 0.0
H534 H 0.98032 0.94442 0.05815 0.0
O535 O 0.92483 0.8456 0.07054 0.0
O536 O 0.89543 0.84061 0.04127 0.0
H537 H 0.89686 0.90688 0.98879 0.0
H538 H 0.91599 0.93618 0.9828 0.0
C539 C 0.91709 0.91484 0.98695 0.0
H540 H 0.92689 0.90469 0.97178 0.0
H541 H 0.86018 0.85916 0.99733 0.0
O542 O 0.98014 0.86754 0.08598 0.0
C543 C 0.90193 0.83928 0.06332 0.0
Co544 Co 0.61544 0.70481 0.81503 0.0
Co545 Co 0.60771 0.66502 0.77234 0.0
C546 C 0.56936 0.7086 0.7816 0.0
O547 O 0.58241 0.71597 0.79987 0.0
O548 O 0.57705 0.68948 0.76853 0.0
C549 C 0.61869 0.7544 0.83915 0.0
O550 O 0.60711 0.76314 0.81963 0.0
C551 C 0.60492 0.65079 0.72175 0.0
C552 C 0.62022 0.61001 0.72138 0.0
C553 C 0.61172 0.63024 0.70659 0.0
N554 N 0.60926 0.64314 0.74447 0.0
N555 N 0.61804 0.61859 0.74417 0.0
C556 C 0.59735 0.67826 0.71475 0.0
H557 H 0.60463 0.69256 0.72825 0.0
H558 H 0.60537 0.68337 0.69685 0.0
H559 H 0.57553 0.67971 0.71404 0.0
C560 C 0.66484 0.71514 0.79016 0.0
N561 N 0.64225 0.70169 0.79246 0.0
N562 N 0.64006 0.68444 0.77497 0.0
C563 C 0.66179 0.68617 0.76105 0.0
C564 C 0.67808 0.70569 0.77024 0.0
C565 C 0.67175 0.73863 0.80517 0.0
H566 H 0.67362 0.73256 0.82418 0.0
H567 H 0.65566 0.75331 0.80377 0.0
H568 H 0.69014 0.74843 0.7994 0.0
O569 O 0.60925 0.67119 0.83079 0.0
O570 O 0.60031 0.64281 0.80154 0.0
H571 H 0.66196 0.64857 0.7436 0.0
H572 H 0.68835 0.67006 0.73448 0.0
C573 C 0.66724 0.66927 0.73964 0.0
H574 H 0.65519 0.67626 0.72434 0.0
H575 H 0.62362 0.6081 0.75943 0.0
O576 O 0.62454 0.73011 0.84068 0.0
C577 C 0.60255 0.64836 0.82377 0.0
Co578 Co 0.52911 0.35379 0.05418 0.0
Co579 Co 0.57372 0.35515 0.01451 0.0
C580 C 0.53468 0.31105 0.01817 0.0
O581 O 0.52216 0.32197 0.03522 0.0
O582 O 0.55527 0.32128 0.0092 0.0
C583 C 0.47705 0.35032 0.07314 0.0
O584 O 0.47156 0.34299 0.05112 0.0
C585 C 0.59209 0.35101 0.96497 0.0
C586 C 0.62753 0.37614 0.96425 0.0
C587 C 0.61162 0.36049 0.95 0.0
N588 N 0.59619 0.36044 0.98719 0.0
N589 N 0.61756 0.37532 0.98668 0.0
C590 C 0.56856 0.33513 0.95777 0.0
H591 H 0.55069 0.34281 0.96691 0.0
H592 H 0.56546 0.33563 0.93809 0.0
H593 H 0.57159 0.31437 0.96338 0.0
C594 C 0.5173 0.4056 0.03455 0.0
N595 N 0.53123 0.3831 0.03439 0.0
N596 N 0.54924 0.38397 0.01741 0.0
C597 C 0.54689 0.40721 0.00584 0.0
C598 C 0.52655 0.42155 0.01635 0.0
C599 C 0.4973 0.41252 0.05329 0.0
H600 H 0.50427 0.40586 0.0711 0.0
H601 H 0.47852 0.40232 0.04917 0.0
H602 H 0.4936 0.43405 0.0541 0.0
O603 O 0.56239 0.34975 0.0714 0.0
O604 O 0.595 0.35055 0.0446 0.0
H605 H 0.58383 0.41876 0.99085 0.0
H606 H 0.55556 0.43335 0.97618 0.0
C607 C 0.56331 0.41524 0.98481 0.0
H608 H 0.56357 0.39914 0.9714 0.0
H609 H 0.625 0.3854 1.0015 0.0
O610 O 0.50055 0.35681 0.07832 0.0
C611 C 0.58679 0.34882 0.06618 0.0
Co612 Co 0.88189 0.28265 0.30671 0.0
Co613 Co 0.88681 0.32501 0.26495 0.0
C614 C 0.92153 0.27678 0.26808 0.0
O615 O 0.90996 0.26768 0.28652 0.0
O616 O 0.91495 0.29873 0.25877 0.0
C617 C 0.87757 0.23336 0.33249 0.0
O618 O 0.88607 0.22283 0.31241 0.0
C619 C 0.89164 0.34331 0.21466 0.0
C620 C 0.86803 0.37989 0.2152 0.0
C621 C 0.88159 0.3631 0.19992 0.0
N622 N 0.88355 0.34778 0.23733 0.0
N623 N 0.86987 0.36997 0.23753 0.0
C624 C 0.91016 0.32152 0.20785 0.0
H625 H 0.92666 0.32075 0.22082 0.0
H626 H 0.89957 0.30242 0.20849 0.0
H627 H 0.91881 0.32452 0.18983 0.0
C628 C 0.82933 0.27725 0.28715 0.0
N629 N 0.85242 0.29 0.28806 0.0
N630 N 0.85411 0.30679 0.27013 0.0
C631 C 0.83197 0.30471 0.25684 0.0
C632 C 0.81563 0.28603 0.26728 0.0
C633 C 0.82287 0.25405 0.30267 0.0
H634 H 0.82515 0.2596 0.32177 0.0
H635 H 0.83683 0.23784 0.29859 0.0
H636 H 0.80263 0.24659 0.29986 0.0
O637 O 0.89427 0.31492 0.32157 0.0
O638 O 0.89807 0.34609 0.29379 0.0
H639 H 0.8274 0.34021 0.23679 0.0
H640 H 0.8082 0.31322 0.22548 0.0
C641 C 0.82738 0.31867 0.23361 0.0
H642 H 0.84353 0.31385 0.22094 0.0
H643 H 0.86097 0.37787 0.2528 0.0
O644 O 0.87401 0.25814 0.33354 0.0
C645 C 0.89988 0.33836 0.3155 0.0
Co646 Co 0.96741 0.63565 0.55011 0.0
Co647 Co 0.91906 0.63365 0.51373 0.0
C648 C 0.95989 0.67691 0.51367 0.0
O649 O 0.97389 0.66653 0.53003 0.0
O650 O 0.93837 0.66666 0.50671 0.0
C651 C 0.01988 0.64032 0.56875 0.0
O652 O 0.0242 0.65158 0.54793 0.0
C653 C 0.89775 0.63548 0.46464 0.0
C654 C 0.86262 0.61005 0.46696 0.0
C655 C 0.87795 0.62408 0.45084 0.0
N656 N 0.89475 0.62778 0.48759 0.0
N657 N 0.87341 0.61295 0.48889 0.0
C658 C 0.91803 0.65508 0.45674 0.0
H659 H 0.91636 0.67298 0.468 0.0
H660 H 0.93804 0.64661 0.45923 0.0
H661 H 0.91529 0.66145 0.43795 0.0
C662 C 0.97865 0.5847 0.52872 0.0
N663 N 0.96328 0.60611 0.53085 0.0
N664 N 0.94324 0.60449 0.51591 0.0
C665 C 0.94526 0.5815 0.50383 0.0
C666 C 0.9677 0.5683 0.51167 0.0
C667 C 0.00462 0.5815 0.54119 0.0
H668 H 0.00135 0.58051 0.56082 0.0
H669 H 0.01705 0.59889 0.53732 0.0
H670 H 0.01553 0.56374 0.53525 0.0
O671 O 0.93528 0.64177 0.56885 0.0
O672 O 0.90023 0.64019 0.54483 0.0
H673 H 0.93021 0.55172 0.47958 0.0
H674 H 0.92593 0.5855 0.47001 0.0
C675 C 0.92578 0.57206 0.48566 0.0
H676 H 0.90578 0.57234 0.49364 0.0
H677 H 0.86668 0.6041 0.50461 0.0
O678 O -0.003 0.63147 0.57333 0.0
C679 C 0.91048 0.64324 0.56556 0.0
Co680 Co 0.61198 0.27739 0.69874 0.0
Co681 Co 0.60681 0.31784 0.74197 0.0
C682 C 0.56958 0.27197 0.7351 0.0
O683 O 0.58194 0.26311 0.71692 0.0
O684 O 0.57664 0.29297 0.74585 0.0
C685 C 0.61722 0.22941 0.67036 0.0
O686 O 0.60873 0.21727 0.68965 0.0
C687 C 0.6069 0.33456 0.79327 0.0
C688 C 0.61827 0.37633 0.78969 0.0
C689 C 0.61244 0.3572 0.80662 0.0
N690 N 0.60978 0.34019 0.76979 0.0
N691 N 0.61646 0.36524 0.76787 0.0
C692 C 0.5982 0.30826 0.80243 0.0
H693 H 0.58837 0.29677 0.78823 0.0
H694 H 0.61568 0.29688 0.80847 0.0
H695 H 0.5845 0.3107 0.81778 0.0
C696 C 0.6643 0.26994 0.71948 0.0
N697 N 0.64078 0.2821 0.71909 0.0
N698 N 0.63928 0.29909 0.73689 0.0
C699 C 0.66226 0.2984 0.74908 0.0
C700 C 0.67877 0.2799 0.73844 0.0
C701 C 0.67135 0.24727 0.70349 0.0
H702 H 0.67151 0.254 0.68458 0.0
H703 H 0.65615 0.23179 0.70534 0.0
H704 H 0.69068 0.23837 0.70796 0.0
O705 O 0.60187 0.31127 0.68453 0.0
O706 O 0.59776 0.34054 0.71396 0.0
H707 H 0.66249 0.33596 0.76655 0.0
H708 H 0.68991 0.31498 0.77444 0.0
C709 C 0.66854 0.31537 0.77023 0.0
H710 H 0.65742 0.3082 0.78602 0.0
H711 H 0.62006 0.37471 0.75161 0.0
O712 O 0.6204 0.25424 0.6709 0.0
C713 C 0.59684 0.33447 0.69183 0.0
Co714 Co 0.97351 0.35804 0.95493 0.0
Co715 Co 0.92749 0.35247 0.99307 0.0
C716 C 0.97441 0.3159 0.99154 0.0
O717 O 0.98562 0.32839 0.97465 0.0
O718 O 0.9519 0.32268 0.99954 0.0
C719 C 0.02556 0.36266 0.93552 0.0
O720 O 0.03231 0.35387 0.9568 0.0
C721 C 0.90945 0.3484 0.04269 0.0
C722 C 0.86895 0.36435 0.04148 0.0
C723 C 0.88793 0.35445 0.0569 0.0
N724 N 0.90364 0.35442 0.01981 0.0
N725 N 0.87926 0.36374 0.01918 0.0
C726 C 0.93589 0.33896 0.05096 0.0
H727 H 0.93758 0.31751 0.04739 0.0
H728 H 0.95168 0.34916 0.04082 0.0
H729 H 0.93862 0.3424 0.07045 0.0
C730 C 0.97658 0.41062 0.9755 0.0
N731 N 0.96534 0.38678 0.97424 0.0
N732 N 0.9464 0.38498 0.9903 0.0
C733 C 0.94518 0.40794 1.00249 0.0
C734 C 0.96415 0.42484 0.99336 0.0
C735 C 0.00039 0.41847 0.96132 0.0
H736 H -0.00395 0.41665 0.94192 0.0
H737 H 0.01684 0.40493 0.96572 0.0
H738 H 0.00696 0.4388 0.96523 0.0
O739 O 0.94207 0.34728 0.93708 0.0
O740 O 0.9085 0.34338 0.96256 0.0
H741 H 0.90587 0.4095 0.01619 0.0
H742 H 0.92733 0.43457 0.02816 0.0
C743 C 0.9262 0.4137 0.02232 0.0
H744 H 0.93065 0.40074 0.0378 0.0
H745 H 0.86991 0.37032 1.00363 0.0
O746 O 0.0013 0.36649 0.93096 0.0
C747 C 0.91798 0.34211 0.94138 0.0
Co748 Co 0.87978 0.71869 0.20493 0.0
Co749 Co 0.88441 0.67418 0.24431 0.0
C750 C 0.92135 0.7206 0.24223 0.0
O751 O 0.90913 0.73116 0.22481 0.0
O752 O 0.91446 0.69843 0.25086 0.0
C753 C 0.87583 0.76976 0.18363 0.0
O754 O 0.88426 0.77759 0.20473 0.0
C755 C 0.8885 0.65535 0.2939 0.0
C756 C 0.86958 0.61625 0.29244 0.0
C757 C 0.88124 0.63407 0.30793 0.0
N758 N 0.88147 0.65048 0.27108 0.0
N759 N 0.87035 0.62694 0.2703 0.0
C760 C 0.90011 0.68079 0.30233 0.0
H761 H 0.89038 0.69753 0.29306 0.0
H762 H 0.89793 0.68317 0.322 0.0
H763 H 0.9214 0.68112 0.29775 0.0
C764 C 0.82711 0.724 0.22493 0.0
N765 N 0.85055 0.71174 0.22393 0.0
N766 N 0.85197 0.69361 0.24074 0.0
C767 C 0.82916 0.69402 0.25324 0.0
C768 C 0.81271 0.71317 0.24349 0.0
C769 C 0.82022 0.74774 0.21022 0.0
H770 H 0.82238 0.74299 0.19093 0.0
H771 H 0.83405 0.76385 0.21472 0.0
H772 H 0.79999 0.75507 0.21354 0.0
O773 O 0.89055 0.68683 0.18797 0.0
O774 O 0.89408 0.65416 0.21435 0.0
H775 H 0.82596 0.65588 0.26911 0.0
H776 H 0.80294 0.67968 0.28094 0.0
C777 C 0.82337 0.67679 0.27432 0.0
H778 H 0.83747 0.68126 0.28894 0.0
H779 H 0.86272 0.61843 0.25477 0.0
O780 O 0.87208 0.74536 0.18001 0.0
C781 C 0.89563 0.66291 0.19294 0.0
Co782 Co 0.52219 0.63142 0.45419 0.0
Co783 Co 0.56118 0.63993 0.49765 0.0
C784 C 0.51722 0.67749 0.48764 0.0
O785 O 0.50908 0.66363 0.47018 0.0
O786 O 0.53758 0.67113 0.49964 0.0
C787 C 0.47175 0.62195 0.43469 0.0
O788 O 0.46469 0.62676 0.45693 0.0
C789 C 0.57851 0.64937 0.54739 0.0
C790 C 0.60945 0.61908 0.55159 0.0
C791 C 0.59466 0.6373 0.56439 0.0
N792 N 0.58277 0.63791 0.52596 0.0
N793 N 0.60183 0.62034 0.5285 0.0
C794 C 0.56004 0.67209 0.551 0.0
H795 H 0.56188 0.68604 0.53583 0.0
H796 H 0.53945 0.66476 0.55153 0.0
H797 H 0.56455 0.683 0.56771 0.0
C798 C 0.51583 0.58012 0.47647 0.0
N799 N 0.52646 0.60427 0.47606 0.0
N800 N 0.54073 0.60804 0.49544 0.0
C801 C 0.53823 0.58657 0.5096 0.0
C802 C 0.52245 0.56825 0.49792 0.0
C803 C 0.50182 0.56774 0.45571 0.0
H804 H 0.5097 0.57547 0.43858 0.0
H805 H 0.48047 0.57236 0.45681 0.0
H806 H 0.50423 0.546 0.45587 0.0
O807 O 0.55578 0.63811 0.43887 0.0
O808 O 0.58438 0.64484 0.46856 0.0
H809 H 0.56965 0.5778 0.53378 0.0
H810 H 0.53746 0.56983 0.54517 0.0
C811 C 0.54881 0.58438 0.53454 0.0
H812 H 0.54773 0.60374 0.54363 0.0
H813 H 0.6085 0.60807 0.51477 0.0
O814 O 0.49607 0.62233 0.42929 0.0
C815 C 0.57892 0.64308 0.44627 0.0
Co816 Co 0.3943 0.25876 0.20897 0.0
Co817 Co 0.39678 0.30604 0.24571 0.0
C818 C 0.43577 0.2612 0.24623 0.0
O819 O 0.42421 0.24912 0.22929 0.0
O820 O 0.42786 0.28356 0.25373 0.0
C821 C 0.39433 0.20627 0.18991 0.0
O822 O 0.40473 0.20039 0.2108 0.0
C823 C 0.3951 0.32548 0.29474 0.0
C824 C 0.38113 0.36648 0.29074 0.0
C825 C 0.38791 0.34767 0.30767 0.0
N826 N 0.39273 0.33086 0.27126 0.0
N827 N 0.38468 0.35552 0.26895 0.0
C828 C 0.40141 0.29871 0.30444 0.0
H829 H 0.39501 0.28325 0.29164 0.0
H830 H 0.39171 0.29554 0.32203 0.0
H831 H 0.42305 0.297 0.3069 0.0
C832 C 0.34174 0.25309 0.22916 0.0
N833 N 0.365 0.26551 0.22793 0.0
N834 N 0.36523 0.28553 0.24293 0.0
C835 C 0.34158 0.28669 0.25399 0.0
C836 C 0.32606 0.26617 0.24559 0.0
C837 C 0.33562 0.22811 0.21601 0.0
H838 H 0.33514 0.23209 0.19647 0.0
H839 H 0.35143 0.21353 0.21954 0.0
H840 H 0.31663 0.21935 0.22166 0.0
O841 O 0.40324 0.29026 0.19015 0.0
O842 O 0.40518 0.32449 0.21503 0.0
H843 H 0.31178 0.30808 0.27389 0.0
H844 H 0.34308 0.30414 0.28879 0.0
C845 C 0.33346 0.30775 0.27126 0.0
H846 H 0.33983 0.32724 0.2645 0.0
H847 H 0.3807 0.36457 0.25255 0.0
O848 O 0.38769 0.22997 0.18564 0.0
C849 C 0.40704 0.31468 0.19403 0.0
Co850 Co 0.45461 0.62284 0.95049 0.0
Co851 Co 0.41296 0.62729 0.99255 0.0
C852 C 0.45526 0.66802 0.98398 0.0
O853 O 0.46609 0.65519 0.96702 0.0
O854 O 0.43472 0.65962 0.99456 0.0
C855 C 0.50433 0.61636 0.92531 0.0
O856 O 0.51513 0.62222 0.94604 0.0
C857 C 0.40061 0.62932 0.04392 0.0
C858 C 0.35721 0.62609 0.04424 0.0
C859 C 0.3789 0.62921 0.05908 0.0
N860 N 0.39215 0.62621 0.02123 0.0
N861 N 0.36618 0.62417 0.02158 0.0
C862 C 0.42871 0.63456 0.0506 0.0
H863 H 0.44132 0.63604 0.03445 0.0
H864 H 0.43638 0.61832 0.06189 0.0
H865 H 0.42992 0.65302 0.06122 0.0
C866 C 0.46336 0.57115 0.97216 0.0
N867 N 0.45139 0.59475 0.97187 0.0
N868 N 0.43412 0.59607 0.98947 0.0
C869 C 0.43476 0.57309 1.00167 0.0
C870 C 0.45357 0.55681 0.9912 0.0
C871 C 0.48208 0.56161 0.95327 0.0
H872 H 0.50171 0.57058 0.95632 0.0
H873 H 0.48421 0.53985 0.95357 0.0
H874 H 0.47487 0.56753 0.93533 0.0
O875 O 0.42033 0.6292 0.9356 0.0
O876 O 0.38965 0.6322 0.96402 0.0
H877 H 0.39731 0.57299 0.01945 0.0
H878 H 0.41874 0.54594 0.02788 0.0
C879 C 0.418 0.56709 0.02304 0.0
H880 H 0.42525 0.5786 0.03854 0.0
H881 H 0.35453 0.62204 0.00629 0.0
O882 O 0.47936 0.61527 0.92372 0.0
C883 C 0.39648 0.63235 0.94203 0.0
Co884 Co 0.10463 0.71972 0.70221 0.0
Co885 Co 0.10523 0.67246 0.73956 0.0
C886 C 0.06269 0.714 0.73856 0.0
O887 O 0.07367 0.72748 0.72218 0.0
O888 O 0.07243 0.69238 0.74592 0.0
C889 C 0.10228 0.7722 0.68345 0.0
O890 O 0.09286 0.77739 0.70487 0.0
C891 C 0.10196 0.65431 0.78911 0.0
C892 C 0.12207 0.61572 0.78875 0.0
C893 C 0.10941 0.63353 0.80367 0.0
N894 N 0.1097 0.64917 0.76652 0.0
N895 N 0.12164 0.62596 0.7664 0.0
C896 C 0.08932 0.67957 0.79691 0.0
H897 H 0.09777 0.69631 0.78672 0.0
H898 H 0.09214 0.68296 0.81639 0.0
H899 H 0.06786 0.67863 0.79315 0.0
C900 C 0.15671 0.72884 0.72247 0.0
N901 N 0.13429 0.71494 0.72128 0.0
N902 N 0.13491 0.69565 0.73706 0.0
C903 C 0.15795 0.69698 0.74908 0.0
C904 C 0.17241 0.71794 0.74009 0.0
C905 C 0.16199 0.75318 0.7081 0.0
H906 H 0.16016 0.74858 0.68875 0.0
H907 H 0.14704 0.76832 0.71268 0.0
H908 H 0.18179 0.76148 0.71166 0.0
O909 O 0.09782 0.6874 0.68414 0.0
O910 O 0.09862 0.65289 0.70883 0.0
H911 H 0.16443 0.65785 0.76194 0.0
H912 H 0.1867 0.68198 0.77436 0.0
C913 C 0.16611 0.67839 0.76851 0.0
H914 H 0.15271 0.68076 0.78406 0.0
H915 H 0.12981 0.61727 0.75116 0.0
O916 O 0.10929 0.74874 0.67854 0.0
C917 C 0.09588 0.66274 0.68789 0.0
Co918 Co 0.0284 0.36012 0.4539 0.0
Co919 Co 0.07545 0.35917 0.49102 0.0
C920 C 0.03245 0.31774 0.48951 0.0
O921 O 0.01941 0.32919 0.47309 0.0
O922 O 0.05424 0.32687 0.4971 0.0
C923 C 0.97652 0.35996 0.43388 0.0
O924 O 0.9705 0.34964 0.45476 0.0
C925 C 0.08863 0.3649 0.54128 0.0
C926 C 0.13213 0.36477 0.54207 0.0
C927 C 0.11004 0.36653 0.55664 0.0
N928 N 0.09755 0.3627 0.51868 0.0
N929 N 0.12361 0.36262 0.51923 0.0
C930 C 0.0601 0.36336 0.5481 0.0
H931 H 0.05735 0.34792 0.56195 0.0
H932 H 0.04763 0.35902 0.53229 0.0
H933 H 0.05349 0.38233 0.5559 0.0
C934 C 0.01976 0.41189 0.47503 0.0
N935 N 0.03337 0.38926 0.47352 0.0
N936 N 0.05378 0.39002 0.48807 0.0
C937 C 0.05414 0.41382 0.49888 0.0
C938 C 0.03253 0.42824 0.49104 0.0
C939 C 0.99401 0.41672 0.46263 0.0
H940 H -0.00272 0.41752 0.44299 0.0
H941 H 0.98049 0.40018 0.46654 0.0
H942 H 0.98432 0.43517 0.46859 0.0
O943 O 0.06109 0.35297 0.43608 0.0
O944 O 0.09562 0.35234 0.46079 0.0
H945 H 0.07785 0.44523 0.51321 0.0
H946 H 0.0705 0.41924 0.53384 0.0
C947 C 0.07563 0.42355 0.51495 0.0
H948 H 0.0946 0.41383 0.5105 0.0
H949 H 0.13556 0.36087 0.50409 0.0
O950 O 0.00027 0.36643 0.42975 0.0
C951 C 0.08574 0.35039 0.43981 0.0
Co952 Co 0.37657 0.70545 0.31165 0.0
Co953 Co 0.38578 0.66717 0.26773 0.0
C954 C 0.41904 0.7154 0.27595 0.0
O955 O 0.40565 0.72259 0.29412 0.0
O956 O 0.41384 0.69429 0.26454 0.0
C957 C 0.3648 0.75276 0.33874 0.0
O958 O 0.36861 0.76499 0.31829 0.0
C959 C 0.38789 0.65339 0.21633 0.0
C960 C 0.38719 0.60989 0.2176 0.0
C961 C 0.38851 0.63104 0.20197 0.0
N962 N 0.38607 0.64577 0.23938 0.0
N963 N 0.38558 0.61974 0.23997 0.0
C964 C 0.39121 0.68139 0.2085 0.0
H965 H 0.4111 0.6839 0.20055 0.0
H966 H 0.38879 0.69506 0.22385 0.0
H967 H 0.37653 0.68646 0.19455 0.0
C968 C 0.32359 0.70792 0.29137 0.0
N969 N 0.34833 0.69852 0.29123 0.0
N970 N 0.35169 0.68304 0.27251 0.0
C971 C 0.32894 0.68248 0.25991 0.0
C972 C 0.31061 0.69851 0.2714 0.0
C973 C 0.31233 0.72514 0.31063 0.0
H974 H 0.31911 0.71822 0.32843 0.0
H975 H 0.31918 0.74565 0.3079 0.0
H976 H 0.29046 0.72498 0.31033 0.0
O977 O 0.38915 0.6725 0.32539 0.0
O978 O 0.39611 0.64439 0.29551 0.0
H979 H 0.33301 0.64798 0.2381 0.0
H980 H 0.30447 0.66792 0.23096 0.0
C981 C 0.32541 0.66841 0.23658 0.0
H982 H 0.33684 0.67875 0.22255 0.0
H983 H 0.38448 0.60867 0.25568 0.0
O984 O 0.36664 0.7278 0.33942 0.0
C985 C 0.39616 0.64996 0.31778 0.0
Co986 Co 0.0201 0.63579 0.05086 0.0
Co987 Co 0.06392 0.63682 0.00989 0.0
C988 C 0.02018 0.67658 0.01249 0.0
O989 O 0.00986 0.66575 0.03073 0.0
O990 O 0.04138 0.66803 1.00304 0.0
C991 C 0.96877 0.63723 0.07212 0.0
O992 O 0.96225 0.64616 0.05082 0.0
C993 C 0.08483 0.63808 0.96012 0.0
C994 C 0.12114 0.61432 0.96359 0.0
C995 C 0.10555 0.62726 0.9469 0.0
N996 N 0.08774 0.63111 0.98329 0.0
N997 N 0.10972 0.61723 0.98523 0.0
C998 C 0.06363 0.65631 0.95142 0.0
H999 H 0.06222 0.67351 0.96355 0.0
H1000 H 0.04441 0.6459 0.95166 0.0
H1001 H 0.06772 0.66393 0.9332 0.0
C1002 C 0.01082 0.5836 0.03123 0.0
N1003 N 0.02452 0.60616 0.03168 0.0
N1004 N 0.04228 0.60612 0.01445 0.0
C1005 C 0.04019 0.58322 1.00229 0.0
C1006 C 0.02029 0.5683 0.01264 0.0
C1007 C 0.98739 0.57826 0.04683 0.0
H1008 H 0.99316 0.58006 0.06593 0.0
H1009 H 0.97198 0.59318 0.04303 0.0
H1010 H 0.97873 0.55856 0.04369 0.0
O1011 O 0.05318 0.64377 0.06722 0.0
O1012 O 0.08474 0.64538 0.03952 0.0
H1013 H 0.07793 0.57578 0.98678 0.0
H1014 H 0.05202 0.55582 0.97442 0.0
C1015 C 0.05694 0.57571 0.9813 0.0
H1016 H 0.05428 0.5904 0.96679 0.0
H1017 H 0.11659 0.60917 1.00126 0.0
O1018 O 0.99262 0.63077 0.07604 0.0
C1019 C 0.07712 0.64722 0.06126 0.0
Co1020 Co 0.10906 0.28326 0.80678 0.0
Co1021 Co 0.10937 0.32638 0.76603 0.0
C1022 C 0.06808 0.28351 0.76944 0.0
O1023 O 0.07886 0.27217 0.78726 0.0
O1024 O 0.07746 0.30452 0.7604 0.0
C1025 C 0.10865 0.23421 0.83288 0.0
O1026 O 0.09898 0.22442 0.81293 0.0
C1027 C 0.11334 0.33736 0.71513 0.0
C1028 C 0.12119 0.3801 0.71343 0.0
C1029 C 0.11811 0.35785 0.69928 0.0
N1030 N 0.11396 0.34693 0.73758 0.0
N1031 N 0.11859 0.37252 0.73648 0.0
C1032 C 0.10629 0.30942 0.70933 0.0
H1033 H 0.11422 0.29598 0.72327 0.0
H1034 H 0.11353 0.30333 0.69145 0.0
H1035 H 0.0845 0.30756 0.70941 0.0
C1036 C 0.16096 0.27162 0.78724 0.0
N1037 N 0.13898 0.28637 0.78783 0.0
N1038 N 0.13994 0.30453 0.77101 0.0
C1039 C 0.16305 0.30188 0.75921 0.0
C1040 C 0.17692 0.28092 0.76909 0.0
C1041 C 0.16495 0.2473 0.80202 0.0
H1042 H 0.1646 0.25261 0.8213 0.0
H1043 H 0.14857 0.23345 0.79849 0.0
H1044 H 0.1837 0.23705 0.79792 0.0
O1045 O 0.10105 0.31713 0.82168 0.0
O1046 O 0.1013 0.34919 0.79453 0.0
H1047 H 0.16548 0.33955 0.74185 0.0
H1048 H 0.19374 0.31835 0.7371 0.0
C1049 C 0.17194 0.31893 0.73892 0.0
H1050 H 0.16323 0.31159 0.72198 0.0
H1051 H 0.12006 0.38478 0.75144 0.0
O1052 O 0.11458 0.25848 0.83374 0.0
C1053 C 0.09853 0.34127 0.81608 0.0
Co1054 Co 0.45068 0.36865 0.56986 0.0
Co1055 Co 0.42287 0.3565 0.52038 0.0
C1056 C 0.46662 0.32312 0.53768 0.0
O1057 O 0.46774 0.33702 0.55661 0.0
O1058 O 0.45054 0.32867 0.5209 0.0
C1059 C 0.49673 0.37975 0.5959 0.0
O1060 O 0.50699 0.37627 0.5745 0.0
C1061 C 0.41187 0.3444 0.46937 0.0
C1062 C 0.38094 0.3737 0.46115 0.0
C1063 C 0.39712 0.35495 0.45055 0.0
N1064 N 0.4054 0.35715 0.48973 0.0
N1065 N 0.38642 0.37416 0.48474 0.0
C1066 C 0.43045 0.32146 0.46862 0.0
H1067 H 0.42807 0.30941 0.48503 0.0
H1068 H 0.45104 0.32876 0.46793 0.0
H1069 H 0.42655 0.30863 0.45293 0.0
C1070 C 0.4579 0.42009 0.54804 0.0
N1071 N 0.44879 0.39532 0.54728 0.0
N1072 N 0.4386 0.39046 0.52604 0.0
C1073 C 0.44204 0.41204 0.51221 0.0
C1074 C 0.45424 0.43137 0.52583 0.0
C1075 C 0.4687 0.43316 0.56999 0.0
H1076 H 0.4589 0.42535 0.58625 0.0
H1077 H 0.49017 0.4292 0.57121 0.0
H1078 H 0.46572 0.45482 0.56921 0.0
O1079 O 0.41565 0.35903 0.57985 0.0
O1080 O 0.39629 0.34656 0.54592 0.0
H1081 H 0.41527 0.41922 0.48343 0.0
H1082 H 0.44869 0.4285 0.47707 0.0
C1083 C 0.43619 0.41349 0.48597 0.0
H1084 H 0.43971 0.39409 0.47742 0.0
H1085 H 0.37807 0.38697 0.49726 0.0
O1086 O 0.47185 0.37855 0.59827 0.0
C1087 C 0.39608 0.3494 0.56868 0.0
H1088 H 0.12736 0.15527 0.08249 0.0
H1089 H 0.06774 0.09497 0.08338 0.0
H1090 H 0.06707 0.09582 0.12721 0.0
H1091 H 0.08251 0.11481 0.16539 0.0
H1092 H 0.14276 0.17448 0.16459 0.0
H1093 H 0.14426 0.17284 0.12079 0.0
C1094 C 0.11431 0.14231 0.09237 0.0
C1095 C 0.09709 0.12563 0.07984 0.0
C1096 C 0.11407 0.14293 0.11757 0.0
C1097 C 0.08051 0.10863 0.09271 0.0
C1098 C 0.08028 0.10896 0.11775 0.0
C1099 C 0.09596 0.12738 0.15555 0.0
C1100 C 0.11192 0.14531 0.16806 0.0
C1101 C 0.09674 0.12626 0.13038 0.0
C1102 C 0.1296 0.16123 0.15523 0.0
C1103 C 0.13062 0.16012 0.13022 0.0
H1104 H 0.07145 0.8597 0.41389 0.0
H1105 H 0.15488 0.86972 0.42543 0.0
H1106 H 0.16264 0.86697 0.3822 0.0
H1107 H 0.14571 0.86019 0.34103 0.0
H1108 H 0.06271 0.84665 0.33031 0.0
H1109 H 0.0548 0.85143 0.37335 0.0
C1110 C 0.09145 0.8604 0.4071 0.0
C1111 C 0.11267 0.86389 0.42303 0.0
C1112 C 0.0958 0.85813 0.38231 0.0
C1113 C 0.13823 0.86659 0.41362 0.0
C1114 C 0.14269 0.86498 0.38889 0.0
C1115 C 0.12593 0.85835 0.34821 0.0
C1116 C 0.10481 0.85294 0.33265 0.0
C1117 C 0.12164 0.86055 0.37307 0.0
C1118 C 0.07927 0.85052 0.34205 0.0
C1119 C 0.07474 0.85333 0.36661 0.0
H1120 H 0.39552 0.88069 0.66969 0.0
H1121 H 0.38091 0.79691 0.6704 0.0
H1122 H 0.38078 0.79607 0.62702 0.0
H1123 H 0.3832 0.81933 0.58821 0.0
H1124 H 0.39214 0.90366 0.58741 0.0
H1125 H 0.39558 0.90423 0.63124 0.0
C1126 C 0.39243 0.86218 0.66041 0.0
C1127 C 0.38955 0.83871 0.67366 0.0
C1128 C 0.39098 0.86201 0.63525 0.0
C1129 C 0.38492 0.81509 0.66112 0.0
C1130 C 0.38426 0.81463 0.63608 0.0
C1131 C 0.38592 0.83774 0.59776 0.0
C1132 C 0.3875 0.86141 0.58486 0.0
C1133 C 0.38723 0.83795 0.62294 0.0
C1134 C 0.39082 0.88526 0.59718 0.0
C1135 C 0.39283 0.88556 0.62216 0.0
H1136 H 0.40898 0.10914 0.83939 0.0
H1137 H 0.35213 0.17228 0.83649 0.0
H1138 H 0.34845 0.17199 0.88021 0.0
H1139 H 0.36235 0.15443 0.91946 0.0
H1140 H 0.41891 0.091 0.92221 0.0
H1141 H 0.42175 0.0906 0.87852 0.0
C1142 C 0.39583 0.12281 0.84841 0.0
C1143 C 0.38143 0.14121 0.83491 0.0
C1144 C 0.39382 0.12248 0.87353 0.0
C1145 C 0.36411 0.15857 0.84666 0.0
C1146 C 0.36182 0.15824 0.87161 0.0
C1147 C 0.37516 0.14046 0.91041 0.0
C1148 C 0.39085 0.12318 0.92397 0.0
C1149 C 0.37675 0.14043 0.88526 0.0
C1150 C 0.4073 0.10507 0.91214 0.0
C1151 C 0.40876 0.10468 0.88716 0.0
H1152 H 0.85776 0.87952 0.9138 0.0
H1153 H 0.92074 0.82243 0.91807 0.0
H1154 H 0.92284 0.82021 0.87453 0.0
H1155 H 0.90684 0.83438 0.83513 0.0
H1156 H 0.84226 0.88956 0.83041 0.0
H1157 H 0.84104 0.89299 0.87411 0.0
C1158 C 0.87195 0.8666 0.90518 0.0
C1159 C 0.88956 0.85174 0.91927 0.0
C1160 C 0.87275 0.86507 0.88 0.0
C1161 C 0.90766 0.83492 0.9078 0.0
C1162 C 0.90866 0.83337 0.88281 0.0
C1163 C 0.89207 0.84668 0.84359 0.0
C1164 C 0.87419 0.86113 0.82944 0.0
C1165 C 0.8913 0.84834 0.86873 0.0
C1166 C 0.85613 0.87805 0.84084 0.0
C1167 C 0.85536 0.87996 0.86585 0.0
H1168 H 0.84783 0.12487 0.66027 0.0
H1169 H 0.93018 0.14143 0.67156 0.0
H1170 H 0.93844 0.13806 0.62848 0.0
H1171 H 0.92228 0.13013 0.58774 0.0
H1172 H 0.83935 0.11719 0.57567 0.0
H1173 H 0.83133 0.11852 0.61891 0.0
C1174 C 0.86755 0.12766 0.65319 0.0
C1175 C 0.88837 0.13351 0.66892 0.0
C1176 C 0.87201 0.12628 0.62832 0.0
C1177 C 0.91384 0.1372 0.65968 0.0
C1178 C 0.91856 0.1352 0.6351 0.0
C1179 C 0.9023 0.12851 0.59444 0.0
C1180 C 0.88129 0.1246 0.57838 0.0
C1181 C 0.89777 0.12996 0.61923 0.0
C1182 C 0.85582 0.12067 0.58762 0.0
C1183 C 0.85121 0.12146 0.61234 0.0
H1184 H 0.58111 0.14389 0.33391 0.0
H1185 H 0.66107 0.11509 0.33325 0.0
H1186 H 0.66151 0.11407 0.37716 0.0
H1187 H 0.63901 0.12148 0.41576 0.0
H1188 H 0.55729 0.14537 0.41574 0.0
H1189 H 0.55786 0.14883 0.37235 0.0
C1190 C 0.59865 0.13756 0.34346 0.0
C1191 C 0.62114 0.12991 0.33052 0.0
C1192 C 0.59855 0.13654 0.36863 0.0
C1193 C 0.64356 0.12112 0.34295 0.0
C1194 C 0.64383 0.12062 0.36801 0.0
C1195 C 0.62138 0.12763 0.40627 0.0
C1196 C 0.5986 0.13459 0.41927 0.0
C1197 C 0.62143 0.12832 0.38105 0.0
C1198 C 0.57568 0.14165 0.40655 0.0
C1199 C 0.5758 0.1431 0.38156 0.0
H1200 H 0.57368 0.8714 0.09181 0.0
H1201 H 0.63772 0.81619 0.08334 0.0
H1202 H 0.64133 0.81181 0.12687 0.0
H1203 H 0.62679 0.82442 0.16738 0.0
H1204 H 0.56351 0.88046 0.17582 0.0
H1205 H 0.55896 0.88379 0.13226 0.0
C1206 C 0.58801 0.85799 0.09948 0.0
C1207 C 0.60501 0.84368 0.08439 0.0
C1208 C 0.59015 0.85582 0.12451 0.0
C1209 C 0.62431 0.82728 0.09462 0.0
C1210 C 0.62635 0.82474 0.11949 0.0
C1211 C 0.61161 0.83686 0.15966 0.0
C1212 C 0.59506 0.85169 0.17471 0.0
C1213 C 0.60938 0.83891 0.13462 0.0
C1214 C 0.57631 0.86871 0.16451 0.0
C1215 C 0.57371 0.8706 0.13964 0.0
H1216 H 0.63431 0.6263 0.59545 0.0
H1217 H 0.5524 0.64949 0.59356 0.0
H1218 H 0.55125 0.65136 0.63697 0.0
H1219 H 0.57288 0.64469 0.67597 0.0
H1220 H 0.65283 0.61598 0.67825 0.0
H1221 H 0.65521 0.61725 0.63441 0.0
C1222 C 0.61626 0.63199 0.60453 0.0
C1223 C 0.59395 0.63921 0.591 0.0
C1224 C 0.61526 0.63157 0.62971 0.0
C1225 C 0.57049 0.64567 0.60317 0.0
C1226 C 0.56959 0.64615 0.62817 0.0
C1227 C 0.59082 0.63886 0.66678 0.0
C1228 C 0.61273 0.63049 0.68015 0.0
C1229 C 0.59182 0.63909 0.64163 0.0
C1230 C 0.63573 0.62245 0.6682 0.0
C1231 C 0.63712 0.62328 0.64319 0.0
H1232 H 0.60843 0.39655 0.91444 0.0
H1233 H 0.62 0.31378 0.92778 0.0
H1234 H 0.62242 0.30524 0.88459 0.0
H1235 H 0.62116 0.32149 0.84332 0.0
H1236 H 0.60499 0.40372 0.82981 0.0
H1237 H 0.60523 0.41247 0.87273 0.0
C1238 C 0.61168 0.37673 0.90776 0.0
C1239 C 0.6143 0.35581 0.92403 0.0
C1240 C 0.61217 0.3719 0.88294 0.0
C1241 C 0.61808 0.33012 0.91541 0.0
C1242 C 0.61939 0.32527 0.89078 0.0
C1243 C 0.61676 0.34116 0.84954 0.0
C1244 C 0.61224 0.36169 0.83305 0.0
C1245 C 0.61622 0.34598 0.87436 0.0
C1246 C 0.60831 0.38739 0.84193 0.0
C1247 C 0.60839 0.39246 0.86654 0.0
H1248 H 0.88151 0.32381 0.16612 0.0
H1249 H 0.88197 0.40838 0.17384 0.0
H1250 H 0.88238 0.41335 0.13026 0.0
H1251 H 0.88383 0.39355 0.08975 0.0
H1252 H 0.88791 0.30917 0.08247 0.0
H1253 H 0.88537 0.30411 0.1261 0.0
C1254 C 0.8827 0.34334 0.1584 0.0
C1255 C 0.88272 0.36568 0.17337 0.0
C1256 C 0.88365 0.34604 0.13334 0.0
C1257 C 0.88236 0.39083 0.16279 0.0
C1258 C 0.88261 0.3937 0.13786 0.0
C1259 C 0.88403 0.37412 0.09784 0.0
C1260 C 0.88578 0.35171 0.08314 0.0
C1261 C 0.88338 0.37145 0.12294 0.0
C1262 C 0.88643 0.32661 0.0936 0.0
C1263 C 0.88502 0.32375 0.11848 0.0
H1264 H 0.84327 0.62849 0.34174 0.0
H1265 H 0.9274 0.63296 0.33218 0.0
H1266 H 0.93401 0.62858 0.37549 0.0
H1267 H 0.91578 0.62349 0.41591 0.0
H1268 H 0.83154 0.62405 0.42625 0.0
H1269 H 0.82492 0.6254 0.38281 0.0
C1270 C 0.86299 0.62838 0.34927 0.0
C1271 C 0.88487 0.63089 0.334 0.0
C1272 C 0.86655 0.6267 0.37424 0.0
C1273 C 0.91035 0.63103 0.34374 0.0
C1274 C 0.9141 0.62853 0.36844 0.0
C1275 C 0.89596 0.62487 0.40878 0.0
C1276 C 0.87419 0.62481 0.42442 0.0
C1277 C 0.89234 0.62658 0.38387 0.0
C1278 C 0.84865 0.62457 0.41464 0.0
C1279 C 0.84485 0.6254 0.3898 0.0
H1280 H 0.35973 0.364 0.41678 0.0
H1281 H 0.44061 0.33867 0.42448 0.0
H1282 H 0.44401 0.33234 0.38151 0.0
H1283 H 0.42466 0.33549 0.34114 0.0
H1284 H 0.34594 0.36618 0.33277 0.0
H1285 H 0.34127 0.36964 0.37636 0.0
C1286 C 0.37807 0.3569 0.4091 0.0
C1287 C 0.39937 0.35047 0.42424 0.0
C1288 C 0.38042 0.3547 0.38408 0.0
C1289 C 0.42321 0.34208 0.41376 0.0
C1290 C 0.42542 0.339 0.38897 0.0
C1291 C 0.40647 0.34279 0.34895 0.0
C1292 C 0.38556 0.35032 0.33394 0.0
C1293 C 0.40418 0.34526 0.37395 0.0
C1294 C 0.36227 0.3603 0.34409 0.0
C1295 C 0.35958 0.36217 0.36897 0.0
H1296 H 0.40961 0.60565 0.09298 0.0
H1297 H 0.34533 0.66048 0.08415 0.0
H1298 H 0.34307 0.6668 0.12759 0.0
H1299 H 0.35881 0.65589 0.16817 0.0
H1300 H 0.42261 0.6005 0.17692 0.0
H1301 H 0.42584 0.59533 0.13341 0.0
C1302 C 0.39559 0.61949 0.10051 0.0
C1303 C 0.3781 0.6331 0.08537 0.0
C1304 C 0.39429 0.62284 0.12549 0.0
C1305 C 0.35911 0.64993 0.09549 0.0
C1306 C 0.35784 0.65358 0.1203 0.0
C1307 C 0.37385 0.64325 0.16049 0.0
C1308 C 0.39093 0.62911 0.17563 0.0
C1309 C 0.37534 0.64013 0.13549 0.0
C1310 C 0.40945 0.61176 0.16554 0.0
C1311 C 0.41129 0.6088 0.1407 0.0
H1312 H 0.06933 0.62617 0.91037 0.0
H1313 H 0.15299 0.62739 0.92415 0.0
H1314 H 0.1618 0.62751 0.88108 0.0
H1315 H 0.14563 0.62902 0.83924 0.0
H1316 H 0.06205 0.63236 0.82594 0.0
H1317 H 0.0532 0.62952 0.86902 0.0
C1318 C 0.08949 0.62741 0.90406 0.0
C1319 C 0.11044 0.6278 0.9206 0.0
C1320 C 0.0944 0.62822 0.87927 0.0
C1321 C 0.13646 0.6275 0.91187 0.0
C1322 C 0.14153 0.6276 0.88722 0.0
C1323 C 0.12553 0.62895 0.84589 0.0
C1324 C 0.10447 0.63071 0.82963 0.0
C1325 C 0.12066 0.62816 0.87073 0.0
C1326 C 0.0785 0.63096 0.83827 0.0
C1327 C 0.07347 0.62937 0.86285 0.0
H1328 H 0.09277 0.38859 0.66702 0.0
H1329 H 0.14932 0.32542 0.67261 0.0
H1330 H 0.15238 0.32288 0.6289 0.0
H1331 H 0.13815 0.33809 0.58891 0.0
H1332 H 0.08181 0.4015 0.58345 0.0
H1333 H 0.07944 0.40458 0.62708 0.0
C1334 C 0.10573 0.37431 0.65858 0.0
C1335 C 0.12027 0.35676 0.67287 0.0
C1336 C 0.10734 0.37297 0.63345 0.0
C1337 C 0.13729 0.33854 0.66187 0.0
C1338 C 0.13921 0.33724 0.63691 0.0
C1339 C 0.12545 0.3526 0.59735 0.0
C1340 C 0.10969 0.3691 0.58305 0.0
C1341 C 0.12417 0.35421 0.62249 0.0
C1342 C 0.09342 0.38796 0.59411 0.0
C1343 C 0.09226 0.38991 0.61906 0.0
H1344 H 0.9653 0.29924 0.25013 0.0
H1345 H 0.93088 0.22395 0.26726 0.0
H1346 H 0.97325 0.20218 0.26011 0.0
H1347 H 0.02125 0.20586 0.25603 0.0
H1348 H 0.05647 0.28216 0.24564 0.0
H1349 H 0.01271 0.30235 0.24251 0.0
C1350 C 0.96697 0.27798 0.25165 0.0
C1351 C 0.94521 0.26315 0.25927 0.0
C1352 C 0.99164 0.26591 0.24887 0.0
C1353 C 0.94755 0.2357 0.26153 0.0
C1354 C 0.97173 0.2233 0.25751 0.0
C1355 C 0.0192 0.22675 0.25228 0.0
C1356 C 0.04175 0.2426 0.25088 0.0
C1357 C 0.99412 0.23836 0.25216 0.0
C1358 C 0.03917 0.26971 0.24662 0.0
C1359 C 0.01423 0.28122 0.24502 0.0
H1360 H 0.00875 0.69421 0.50313 0.0
H1361 H 0.92721 0.71823 0.50558 0.0
H1362 H 0.94018 0.76441 0.50184 0.0
H1363 H 0.97516 0.79772 0.50529 0.0
H1364 H 0.05663 0.77366 0.50115 0.0
H1365 H 0.04331 0.72759 0.49759 0.0
C1366 C 0.99387 0.70958 0.50216 0.0
C1367 C 0.9672 0.70315 0.50506 0.0
C1368 C 0.00147 0.73596 0.49994 0.0
C1369 C 0.9479 0.72293 0.50345 0.0
C1370 C 0.95531 0.74929 0.5015 0.0
C1371 C 0.98989 0.78238 0.50293 0.0
C1372 C 0.01674 0.78876 0.50393 0.0
C1373 C 0.98209 0.75604 0.50085 0.0
C1374 C 0.0358 0.76902 0.50051 0.0
C1375 C 0.02822 0.7427 0.49866 0.0
H1376 H 0.45757 0.75381 0.75147 0.0
H1377 H 0.45332 0.76381 0.82818 0.0
H1378 H 0.49809 0.74731 0.8325 0.0
H1379 H 0.53777 0.72912 0.81508 0.0
H1380 H 0.54233 0.71449 0.73911 0.0
H1381 H 0.49812 0.73368 0.73378 0.0
C1382 C 0.46661 0.75234 0.76903 0.0
C1383 C 0.45227 0.7599 0.78949 0.0
C1384 C 0.4923 0.74204 0.77151 0.0
C1385 C 0.46395 0.75782 0.81223 0.0
C1386 C 0.48956 0.74851 0.81472 0.0
C1387 C 0.52925 0.73035 0.79728 0.0
C1388 C 0.54332 0.72076 0.77748 0.0
C1389 C 0.50381 0.74046 0.79456 0.0
C1390 C 0.5318 0.7219 0.75461 0.0
C1391 C 0.50658 0.73283 0.75159 0.0
H1392 H 0.51757 0.18996 0.0092 0.0
H1393 H 0.43622 0.21486 0.00931 0.0
H1394 H 0.44984 0.26094 0.00682 0.0
H1395 H 0.48502 0.29393 0.01106 0.0
H1396 H 0.56634 0.26919 0.00889 0.0
H1397 H 0.55269 0.22313 0.00534 0.0
C1398 C 0.5029 0.20551 0.00806 0.0
C1399 C 0.47603 0.19927 0.00979 0.0
C1400 C 0.51087 0.23187 0.00651 0.0
C1401 C 0.45705 0.21934 0.008 0.0
C1402 C 0.46481 0.24566 0.00678 0.0
C1403 C 0.49966 0.27842 0.00923 0.0
C1404 C 0.52654 0.28462 0.01061 0.0
C1405 C 0.49167 0.25214 0.007 0.0
C1406 C 0.5455 0.26466 0.0079 0.0
C1407 C 0.53772 0.23838 0.00604 0.0
H1408 H 0.96751 0.69584 0.24953 0.0
H1409 H 0.93076 0.77246 0.25053 0.0
H1410 H 0.97398 0.79347 0.2543 0.0
H1411 H 0.02213 0.79013 0.25054 0.0
H1412 H 0.05845 0.71372 0.24289 0.0
H1413 H 0.01574 0.69237 0.2488 0.0
C1414 C 0.96903 0.71708 0.25132 0.0
C1415 C 0.94621 0.73268 0.24992 0.0
C1416 C 0.99394 0.72898 0.25193 0.0
C1417 C 0.94823 0.76019 0.25167 0.0
C1418 C 0.97288 0.77215 0.25368 0.0
C1419 C 0.02068 0.7688 0.25082 0.0
C1420 C 0.04318 0.75342 0.24635 0.0
C1421 C -0.0041 0.75679 0.25283 0.0
C1422 C 0.04122 0.72584 0.24628 0.0
C1423 C 0.01685 0.71368 0.24958 0.0
H1424 H 0.53951 0.72547 0.49014 0.0
H1425 H 0.46495 0.68535 0.49475 0.0
H1426 H 0.44179 0.72769 0.49734 0.0
H1427 H 0.44254 0.77593 0.49373 0.0
H1428 H 0.51653 0.81569 0.48278 0.0
H1429 H 0.54033 0.77391 0.48744 0.0
C1430 C 0.51825 0.72615 0.49223 0.0
C1431 C 0.50384 0.70259 0.49255 0.0
C1432 C 0.50506 0.75051 0.49235 0.0
C1433 C 0.47629 0.70342 0.49464 0.0
C1434 C 0.46311 0.72756 0.49603 0.0
C1435 C 0.46391 0.77543 0.49289 0.0
C1436 C 0.47789 0.79869 0.48816 0.0
C1437 C 0.47724 0.75121 0.49427 0.0
C1438 C 0.50549 0.7979 0.48651 0.0
C1439 C 0.51904 0.77406 0.48909 0.0
H1440 H 0.46974 0.20049 0.7453 0.0
H1441 H 0.43193 0.27661 0.74424 0.0
H1442 H 0.47488 0.2983 0.74748 0.0
H1443 H 0.5232 0.2955 0.74497 0.0
H1444 H 0.56071 0.21946 0.73954 0.0
H1445 H 0.51807 0.19766 0.74476 0.0
C1446 C 0.47097 0.2218 0.74645 0.0
C1447 C 0.4479 0.23703 0.74479 0.0
C1448 C 0.49573 0.23405 0.74686 0.0
C1449 C 0.44957 0.26461 0.74564 0.0
C1450 C 0.47407 0.27696 0.74737 0.0
C1451 C 0.522 0.27416 0.74553 0.0
C1452 C 0.54487 0.25899 0.74207 0.0
C1453 C 0.49731 0.26189 0.74717 0.0
C1454 C 0.54322 0.2314 0.74224 0.0
C1455 C 0.51889 0.219 0.74514 0.0
H1456 H 0.04065 0.21273 0.99851 0.0
H1457 H 0.9627 0.17948 0.99381 0.0
H1458 H 0.94314 0.22301 1.00034 0.0
H1459 H 0.94839 0.27095 1.00039 0.0
H1460 H 0.02632 0.30457 0.99832 0.0
H1461 H 0.0459 0.26061 1.00191 0.0
C1462 C 0.0194 0.21501 0.9996 0.0
C1463 C 0.00304 0.19317 0.99572 0.0
C1464 C 0.00839 0.24023 1.0019 0.0
C1465 C 0.97556 0.1962 0.99671 0.0
C1466 C 0.96442 0.22104 1.00036 0.0
C1467 C 0.96964 0.26863 1.00146 0.0
C1468 C 0.98599 0.29074 0.99915 0.0
C1469 C 0.98065 0.2433 1.00197 0.0
C1470 C 0.01347 0.28765 1.00008 0.0
C1471 C 0.02461 0.26257 1.002 0.0
H1472 H 0.94156 0.72945 0.74808 0.0
H1473 H 0.9649 0.81108 0.7481 0.0
H1474 H 0.01124 0.79816 0.75102 0.0
H1475 H 0.0449 0.76348 0.74648 0.0
H1476 H 0.02155 0.68187 0.74835 0.0
H1477 H 0.97533 0.69487 0.75223 0.0
C1478 C 0.95682 0.74434 0.7494 0.0
C1479 C 0.95011 0.77106 0.74748 0.0
C1480 C 0.98332 0.73677 0.75113 0.0
C1481 C 0.96979 0.79034 0.74952 0.0
C1482 C -0.00375 0.78297 0.75098 0.0
C1483 C 0.02968 0.74863 0.74835 0.0
C1484 C 0.03633 0.72186 0.74668 0.0
C1485 C 0.00325 0.75624 0.75071 0.0
C1486 C 0.01671 0.70264 0.7495 0.0
C1487 C 0.99031 0.71004 0.75155 0.0
H1488 H 0.98236 0.30105 0.49603 0.0
H1489 H 0.06347 0.27568 0.49975 0.0
H1490 H 0.04943 0.22978 0.50261 0.0
H1491 H 0.01435 0.19695 0.49716 0.0
H1492 H 0.93316 0.22207 0.49529 0.0
H1493 H 0.94684 0.26814 0.49901 0.0
C1494 C -0.00314 0.28545 0.49809 0.0
C1495 C 0.02383 0.2915 0.49728 0.0
C1496 C 0.98864 0.25918 0.49982 0.0
C1497 C 0.04257 0.27136 0.5003 0.0
C1498 C 0.03457 0.24514 0.50175 0.0
C1499 C -0.00029 0.21255 0.49823 0.0
C1500 C 0.97292 0.20647 0.49562 0.0
C1501 C 0.00772 0.23881 0.50049 0.0
C1502 C 0.95393 0.22653 0.49727 0.0
C1503 C 0.96175 0.2528 0.49921 0.0
H1504 H 0.48166 0.28714 0.24826 0.0
H1505 H 0.44632 0.21126 0.26057 0.0
H1506 H 0.49003 0.19095 0.26357 0.0
H1507 H 0.53733 0.19364 0.25517 0.0
H1508 H 0.57178 0.26842 0.23634 0.0
H1509 H 0.52964 0.29052 0.24367 0.0
C1510 C 0.48369 0.26635 0.25244 0.0
C1511 C 0.4611 0.25062 0.25439 0.0
C1512 C 0.50874 0.25462 0.25249 0.0
C1513 C 0.46365 0.22361 0.25918 0.0
C1514 C 0.48857 0.21203 0.26069 0.0
C1515 C 0.53573 0.21487 0.25331 0.0
C1516 C 0.55743 0.22943 0.24511 0.0
C1517 C 0.51116 0.22713 0.25625 0.0
C1518 C 0.55517 0.25685 0.24247 0.0
C1519 C 0.5311 0.26945 0.24661 0.0
H1520 H 0.47568 0.78944 0.99144 0.0
H1521 H 0.55635 0.7632 0.98637 0.0
H1522 H 0.54199 0.7172 0.98745 0.0
H1523 H 0.50595 0.68471 0.98566 0.0
H1524 H 0.42555 0.711 0.99392 0.0
H1525 H 0.44025 0.75676 0.99613 0.0
C1526 C 0.49005 0.77357 0.99101 0.0
C1527 C 0.5169 0.77944 0.98859 0.0
C1528 C 0.48169 0.74729 0.99208 0.0
C1529 C 0.53553 0.75895 0.98829 0.0
C1530 C 0.52734 0.73271 0.98876 0.0
C1531 C 0.49178 0.70049 0.98835 0.0
C1532 C 0.46477 0.6947 0.98936 0.0
C1533 C 0.50041 0.72667 0.99003 0.0
C1534 C 0.44649 0.71511 0.99314 0.0
C1535 C 0.45485 0.74125 0.99425 0.0
H1536 H 0.94805 0.26212 0.75569 0.0
H1537 H 0.97486 0.18169 0.76085 0.0
H1538 H 0.02079 0.19643 0.76026 0.0
H1539 H 0.05266 0.2328 0.76436 0.0
H1540 H 0.02584 0.31305 0.75674 0.0
H1541 H 0.98048 0.29785 0.75177 0.0
C1542 C 0.96404 0.24787 0.75602 0.0
C1543 C 0.95837 0.221 0.75857 0.0
C1544 C 0.99025 0.25647 0.75547 0.0
C1545 C 0.97898 0.20251 0.75882 0.0
C1546 C 0.00517 0.21094 0.75869 0.0
C1547 C 0.0369 0.24683 0.76105 0.0
C1548 C 0.04231 0.27393 0.76126 0.0
C1549 C 0.01097 0.23794 0.75794 0.0
C1550 C 0.02198 0.29206 0.75666 0.0
C1551 C -0.00393 0.28341 0.75398 0.0
H1552 H 0.47302 0.28879 0.5 0.0
H1553 H 0.49525 0.30175 0.57388 0.0
H1554 H 0.51552 0.25851 0.5755 0.0
H1555 H 0.52409 0.2158 0.55735 0.0
H1556 H 0.50514 0.20231 0.48316 0.0
H1557 H 0.48637 0.24699 0.4802 0.0
C1558 C 0.48256 0.28225 0.51634 0.0
C1559 C 0.48219 0.29843 0.53687 0.0
C1560 C 0.49448 0.25719 0.51721 0.0
C1561 C 0.495 0.28976 0.55781 0.0
C1562 C 0.50655 0.26493 0.55886 0.0
C1563 C 0.51588 0.22272 0.54052 0.0
C1564 C 0.51535 0.20589 0.52065 0.0
C1565 C 0.50584 0.24831 0.5389 0.0
C1566 C 0.5054 0.21507 0.49872 0.0
C1567 C 0.49472 0.24051 0.49707 0.0
H1568 H 0.46654 0.69484 0.26539 0.0
H1569 H 0.4256 0.76859 0.275 0.0
H1570 H 0.46734 0.79256 0.27182 0.0
H1571 H 0.5159 0.79188 0.27125 0.0
H1572 H 0.55686 0.71751 0.26797 0.0
H1573 H 0.51487 0.69427 0.26345 0.0
C1574 C 0.46678 0.7162 0.26619 0.0
C1575 C 0.44319 0.73006 0.27018 0.0
C1576 C 0.49092 0.72961 0.26571 0.0
C1577 C 0.44363 0.75765 0.27182 0.0
C1578 C 0.46746 0.77129 0.2701 0.0
C1579 C 0.51552 0.77065 0.269 0.0
C1580 C 0.5392 0.75631 0.26968 0.0
C1581 C 0.49129 0.75741 0.26776 0.0
C1582 C 0.53871 0.7288 0.26736 0.0
C1583 C 0.51476 0.71557 0.26487 0.0
H1584 H 0.04408 0.72352 0.01159 0.0
H1585 H 0.97032 0.68489 0.99698 0.0
H1586 H 0.94827 0.72765 0.99296 0.0
H1587 H 0.94867 0.77513 1.00067 0.0
H1588 H 0.02106 0.81298 0.02177 0.0
H1589 H 0.04521 0.77168 0.01592 0.0
C1590 C 0.02339 0.72466 0.00674 0.0
C1591 C 0.00874 0.70144 0.0043 0.0
C1592 C 0.01062 0.74917 0.00605 0.0
C1593 C 0.98183 0.70275 0.99868 0.0
C1594 C 0.96926 0.72712 0.99658 0.0
C1595 C 0.96985 0.77445 1.00335 0.0
C1596 C 0.98314 0.79687 0.01171 0.0
C1597 C 0.98323 0.75038 1.00126 0.0
C1598 C 0.01049 0.79579 0.01546 0.0
C1599 C 0.02425 0.77222 0.01218 0.0
H1600 H 0.13196 0.27854 0.36029 0.0
H1601 H 0.08919 0.33417 0.31639 0.0
H1602 H 0.08257 0.36265 0.35098 0.0
H1603 H 0.0822 0.36782 0.39455 0.0
H1604 H 0.12379 0.31222 0.43906 0.0
H1605 H 0.13831 0.28805 0.40335 0.0
C1606 C 0.12161 0.29712 0.35822 0.0
C1607 C 0.11052 0.30388 0.33589 0.0
C1608 C 0.11764 0.31339 0.37831 0.0
C1609 C 0.09761 0.32827 0.3334 0.0
C1610 C 0.09377 0.34459 0.3532 0.0
C1611 C 0.09519 0.3509 0.39634 0.0
C1612 C 0.10176 0.3416 0.41928 0.0
C1613 C 0.10274 0.3368 0.37587 0.0
C1614 C 0.11865 0.31979 0.42152 0.0
C1615 C 0.12661 0.30578 0.40112 0.0
H1616 H 0.87824 0.82277 0.64083 0.0
H1617 H 0.92703 0.86857 0.68829 0.0
H1618 H 0.95377 0.88311 0.65423 0.0
H1619 H 0.96762 0.87617 0.61222 0.0
H1620 H 0.91874 0.82947 0.5653 0.0
H1621 H 0.88762 0.82203 0.59784 0.0
C1622 C 0.89423 0.83662 0.64358 0.0
C1623 C 0.90088 0.8444 0.66697 0.0
C1624 C 0.90985 0.84422 0.62408 0.0
C1625 C 0.92147 0.86245 0.6704 0.0
C1626 C 0.93698 0.87044 0.65096 0.0
C1627 C 0.94994 0.8647 0.60904 0.0
C1628 C 0.94582 0.85288 0.58651 0.0
C1629 C 0.9321 0.86038 0.62792 0.0
C1630 C 0.92257 0.83854 0.58252 0.0
C1631 C 0.90475 0.83423 0.60114 0.0
H1632 H 0.36784 0.67699 0.94181 0.0
H1633 H 0.38679 0.60835 0.89975 0.0
H1634 H 0.37421 0.63147 0.86312 0.0
H1635 H 0.36847 0.67391 0.84299 0.0
H1636 H 0.353 0.74375 0.88486 0.0
H1637 H 0.35335 0.7176 0.92155 0.0
C1638 C 0.36787 0.66676 0.92473 0.0
C1639 C 0.37821 0.64114 0.9233 0.0
C1640 C 0.36217 0.68074 0.90363 0.0
C1641 C 0.37872 0.62809 0.90112 0.0
C1642 C 0.37195 0.64144 0.88018 0.0
C1643 C 0.36464 0.68332 0.8601 0.0
C1644 C 0.3615 0.71078 0.8613 0.0
C1645 C 0.36539 0.66826 0.88114 0.0
C1646 C 0.35592 0.72265 0.8835 0.0
C1647 C 0.35615 0.70771 0.90452 0.0
H1648 H 0.52043 0.1116 0.11667 0.0
H1649 H 0.57704 0.14469 0.06736 0.0
H1650 H 0.60888 0.14922 0.09971 0.0
H1651 H 0.61753 0.15118 0.14267 0.0
H1652 H 0.56061 0.12064 0.19269 0.0
H1653 H 0.53235 0.10678 0.15936 0.0
C1654 C 0.53989 0.11938 0.11293 0.0
C1655 C 0.5461 0.12843 0.08974 0.0
C1656 C 0.55805 0.12234 0.13175 0.0
C1657 C 0.57155 0.13802 0.0851 0.0
C1658 C 0.58982 0.1406 0.1036 0.0
C1659 C 0.59933 0.14068 0.14621 0.0
C1660 C 0.59093 0.13716 0.16997 0.0
C1661 C 0.58286 0.13387 0.1271 0.0
C1662 C 0.56748 0.12341 0.17449 0.0
C1663 C 0.55117 0.11589 0.15544 0.0
H1664 H 0.07935 0.63092 0.10701 0.0
H1665 H 0.11353 0.68649 0.05771 0.0
H1666 H 0.13123 0.71199 0.09132 0.0
H1667 H 0.12955 0.72246 0.13453 0.0
H1668 H 0.0946 0.66667 0.18344 0.0
H1669 H 0.0849 0.63711 0.15022 0.0
C1670 C 0.09142 0.64815 0.10366 0.0
C1671 C 0.09494 0.65705 0.08006 0.0
C1672 C 0.10091 0.66293 0.12301 0.0
C1673 C 0.11071 0.67924 0.07578 0.0
C1674 C 0.1205 0.694 0.09501 0.0
C1675 C 0.12025 0.70361 0.13794 0.0
C1676 C 0.11221 0.69707 0.16134 0.0
C1677 C 0.11456 0.68671 0.11868 0.0
C1678 C 0.10069 0.67236 0.16558 0.0
C1679 C 0.09507 0.65543 0.14658 0.0
H1680 H 0.54898 0.86049 0.31722 0.0
H1681 H 0.6183 0.84431 0.35932 0.0
H1682 H 0.59634 0.86099 0.39523 0.0
H1683 H 0.55482 0.87108 0.41562 0.0
H1684 H 0.48409 0.88325 0.37401 0.0
H1685 H 0.50908 0.87752 0.33704 0.0
C1686 C 0.55956 0.86176 0.33407 0.0
C1687 C 0.58513 0.85133 0.33577 0.0
C1688 C 0.54624 0.86991 0.35488 0.0
C1689 C 0.5986 0.85244 0.35772 0.0
C1690 C 0.58594 0.86165 0.37827 0.0
C1691 C 0.54496 0.87304 0.39847 0.0
C1692 C 0.51754 0.87692 0.39761 0.0
C1693 C 0.5593 0.86899 0.37728 0.0
C1694 C 0.50513 0.87976 0.37521 0.0
C1695 C 0.51941 0.87649 0.35402 0.0
H1696 H 0.3608 0.26108 0.63469 0.0
H1697 H 0.3714 0.32371 0.68619 0.0
H1698 H 0.37118 0.35612 0.65404 0.0
H1699 H 0.37796 0.3652 0.61159 0.0
H1700 H 0.37176 0.30242 0.55993 0.0
H1701 H 0.35878 0.27184 0.59163 0.0
C1702 C 0.36253 0.28186 0.63891 0.0
C1703 C 0.36696 0.2899 0.66273 0.0
C1704 C 0.36303 0.30041 0.62024 0.0
C1705 C 0.36864 0.31693 0.66796 0.0
C1706 C 0.36842 0.33551 0.64958 0.0
C1707 C 0.37265 0.34507 0.60717 0.0
C1708 C 0.37639 0.33587 0.58365 0.0
C1709 C 0.36702 0.32732 0.62565 0.0
C1710 C 0.36911 0.30994 0.57795 0.0
C1711 C 0.36223 0.29231 0.59618 0.0
H1712 H 0.96559 0.105 0.88551 0.0
H1713 H 0.91355 0.14656 0.93377 0.0
H1714 H 0.8839 0.15672 0.90067 0.0
H1715 H 0.87729 0.16076 0.85734 0.0
H1716 H 0.9292 0.11984 0.80874 0.0
H1717 H 0.95391 0.10174 0.84266 0.0
C1718 C 0.94749 0.11583 0.88883 0.0
C1719 C 0.94212 0.12559 0.91194 0.0
C1720 C 0.93054 0.12175 0.86965 0.0
C1721 C 0.91833 0.1391 0.91611 0.0
C1722 C 0.90137 0.14499 0.89717 0.0
C1723 C 0.89346 0.14713 0.85424 0.0
C1724 C 0.90168 0.14187 0.83068 0.0
C1725 C 0.9079 0.13741 0.87375 0.0
C1726 C 0.92248 0.12407 0.82676 0.0
C1727 C 0.93683 0.11404 0.84615 0.0
H1728 H 0.86242 0.71959 0.64071 0.0
H1729 H 0.91084 0.67175 0.68727 0.0
H1730 H 0.91826 0.64046 0.65488 0.0
H1731 H 0.91707 0.63074 0.61198 0.0
H1732 H 0.86975 0.67857 0.56478 0.0
H1733 H 0.8551 0.7053 0.59887 0.0
C1734 C 0.87425 0.7021 0.64386 0.0
C1735 C 0.88657 0.69836 0.66624 0.0
C1736 C 0.8786 0.68416 0.62504 0.0
C1737 C 0.90141 0.67533 0.67017 0.0
C1738 C 0.9057 0.6574 0.65163 0.0
C1739 C 0.90286 0.6465 0.60931 0.0
C1740 C 0.89469 0.6529 0.58596 0.0
C1741 C 0.89524 0.66216 0.6288 0.0
C1742 C 0.87619 0.6732 0.58264 0.0
C1743 C 0.86814 0.68872 0.60209 0.0
H1744 H 0.02209 0.12387 0.38606 0.0
H1745 H 0.0712 0.17042 0.43293 0.0
H1746 H 0.1002 0.18098 0.39951 0.0
H1747 H 0.10775 0.18235 0.35626 0.0
H1748 H 0.05871 0.13665 0.30888 0.0
H1749 H 0.03391 0.11982 0.34329 0.0
C1750 C 0.03936 0.13601 0.38902 0.0
C1751 C 0.04415 0.14681 0.41186 0.0
C1752 C 0.05592 0.14218 0.36963 0.0
C1753 C 0.06687 0.16208 0.41551 0.0
C1754 C 0.08346 0.16818 0.39638 0.0
C1755 C 0.09202 0.1682 0.35353 0.0
C1756 C 0.08478 0.16099 0.33013 0.0
C1757 C 0.07761 0.15913 0.37326 0.0
C1758 C 0.06464 0.14243 0.32676 0.0
C1759 C 0.05029 0.13306 0.34642 0.0
H1760 H 0.61774 0.30581 0.0681 0.0
H1761 H 0.59305 0.37379 0.10853 0.0
H1762 H 0.60723 0.35273 0.14575 0.0
H1763 H 0.61759 0.31176 0.16697 0.0
H1764 H 0.63862 0.24222 0.12663 0.0
H1765 H 0.63513 0.26698 0.08932 0.0
C1766 C 0.6167 0.3164 0.08497 0.0
C1767 C 0.60461 0.34129 0.08572 0.0
C1768 C 0.6234 0.3035 0.1064 0.0
C1769 C 0.60261 0.35469 0.10765 0.0
C1770 C 0.61034 0.34249 0.12893 0.0
C1771 C 0.6219 0.30213 0.15006 0.0
C1772 C 0.62769 0.27503 0.14957 0.0
C1773 C 0.61929 0.31633 0.12861 0.0
C1774 C 0.63364 0.26297 0.12752 0.0
C1775 C 0.63168 0.27712 0.10613 0.0
H1776 H 0.42008 0.86013 0.91972 0.0
H1777 H 0.49363 0.8692 0.88179 0.0
H1778 H 0.47019 0.86963 0.84365 0.0
H1779 H 0.43018 0.85789 0.82125 0.0
H1780 H 0.35717 0.84652 0.85924 0.0
H1781 H 0.37864 0.85783 0.897 0.0
C1782 C 0.43091 0.8627 0.90313 0.0
C1783 C 0.45859 0.86386 0.90356 0.0
C1784 C 0.41732 0.86271 0.88119 0.0
C1785 C 0.47233 0.86783 0.88196 0.0
C1786 C 0.45893 0.86809 0.86009 0.0
C1787 C 0.4187 0.85929 0.83761 0.0
C1788 C 0.39224 0.85117 0.83757 0.0
C1789 C 0.43157 0.86431 0.85944 0.0
C1790 C 0.3776 0.85272 0.85891 0.0
C1791 C 0.39 0.85871 0.88056 0.0
H1792 H 0.9213 0.35601 0.89503 0.0
H1793 H 0.88097 0.30297 0.9428 0.0
H1794 H 0.8662 0.27662 0.90852 0.0
H1795 H 0.87123 0.26496 0.86572 0.0
H1796 H 0.91285 0.31808 0.81864 0.0
H1797 H 0.9205 0.34814 0.85188 0.0
C1798 C 0.90866 0.33907 0.89787 0.0
C1799 C 0.90245 0.33122 0.92134 0.0
C1800 C 0.90094 0.32374 0.87823 0.0
C1801 C 0.88589 0.30943 0.92486 0.0
C1802 C 0.87776 0.29419 0.90528 0.0
C1803 C 0.88162 0.2833 0.86266 0.0
C1804 C 0.89196 0.28895 0.83979 0.0
C1805 C 0.88619 0.30052 0.88199 0.0
C1806 C 0.90499 0.31302 0.83608 0.0
C1807 C 0.9094 0.33026 0.8551 0.0
H1808 H 0.47736 0.1129 0.62179 0.0
H1809 H 0.42456 0.14891 0.57062 0.0
H1810 H 0.39304 0.15829 0.60244 0.0
H1811 H 0.38404 0.16288 0.64531 0.0
H1812 H 0.43669 0.12768 0.69686 0.0
H1813 H 0.46435 0.11069 0.66435 0.0
C1814 C 0.45875 0.1224 0.61757 0.0
C1815 C 0.4536 0.13079 0.59398 0.0
C1816 C 0.44073 0.12793 0.63602 0.0
C1817 C 0.42919 0.14256 0.58867 0.0
C1818 C 0.41114 0.14799 0.60687 0.0
C1819 C 0.40118 0.15085 0.64938 0.0
C1820 C 0.4086 0.14684 0.67335 0.0
C1821 C 0.41721 0.14173 0.63069 0.0
C1822 C 0.4306 0.13098 0.6785 0.0
C1823 C 0.44658 0.12155 0.65992 0.0
H1824 H 0.6134 0.67546 0.34579 0.0
H1825 H 0.62423 0.74952 0.38246 0.0
H1826 H 0.62119 0.72728 0.42107 0.0
H1827 H 0.60595 0.68861 0.44377 0.0
H1828 H 0.59219 0.61549 0.40671 0.0
H1829 H 0.60689 0.63513 0.36911 0.0
C1830 C 0.61563 0.68664 0.36222 0.0
C1831 C 0.61826 0.71416 0.36125 0.0
C1832 C 0.61341 0.6738 0.38438 0.0
C1833 C 0.62173 0.72833 0.38269 0.0
C1834 C 0.61997 0.71563 0.40483 0.0
C1835 C 0.60749 0.67671 0.42767 0.0
C1836 C 0.59803 0.65076 0.42784 0.0
C1837 C 0.61454 0.68859 0.40587 0.0
C1838 C 0.59955 0.63552 0.40687 0.0
C1839 C 0.60755 0.64686 0.38533 0.0
H1840 H 0.0494 0.85088 0.18945 0.0
H1841 H 0.12045 0.83675 0.14916 0.0
H1842 H 0.0992 0.85297 0.11273 0.0
H1843 H 0.05829 0.863 0.09128 0.0
H1844 H 0.98601 0.87367 0.13099 0.0
H1845 H 0.00974 0.86725 0.16858 0.0
C1846 C 0.06046 0.85248 0.17288 0.0
C1847 C 0.08645 0.84294 0.17189 0.0
C1848 C 0.04763 0.8605 0.15174 0.0
C1849 C 0.10049 0.84433 0.15026 0.0
C1850 C 0.08824 0.85327 0.1294 0.0
C1851 C 0.04778 0.86443 0.10816 0.0
C1852 C 0.02031 0.86826 0.10824 0.0
C1853 C 0.06144 0.86011 0.12971 0.0
C1854 C 0.0071 0.87036 0.13034 0.0
C1855 C 0.02066 0.86667 0.15189 0.0
H1856 H 0.60885 0.8069 0.84159 0.0
H1857 H 0.63682 0.74121 0.8837 0.0
H1858 H 0.63421 0.76788 0.91999 0.0
H1859 H 0.61512 0.80644 0.94032 0.0
H1860 H 0.58347 0.87029 0.89829 0.0
H1861 H 0.59729 0.84832 0.86142 0.0
C1862 C 0.61487 0.79856 0.85863 0.0
C1863 C 0.62227 0.77192 0.86004 0.0
C1864 C 0.6127 0.81379 0.87949 0.0
C1865 C 0.63054 0.76156 0.88218 0.0
C1866 C 0.62906 0.7768 0.90297 0.0
C1867 C 0.61242 0.81603 0.92311 0.0
C1868 C 0.59828 0.83979 0.92185 0.0
C1869 C 0.61896 0.80251 0.90198 0.0
C1870 C 0.5944 0.85196 0.89954 0.0
C1871 C 0.60196 0.83924 0.87848 0.0
H1872 H 0.39441 0.30928 0.1474 0.0
H1873 H 0.44243 0.35517 0.19549 0.0
H1874 H 0.467 0.37301 0.16139 0.0
H1875 H 0.47898 0.36996 0.11859 0.0
H1876 H 0.43058 0.32373 0.07088 0.0
H1877 H 0.40183 0.31184 0.10413 0.0
C1878 C 0.40986 0.32367 0.15035 0.0
C1879 C 0.41689 0.33066 0.17386 0.0
C1880 C 0.42407 0.33346 0.13077 0.0
C1881 C 0.43667 0.34955 0.17751 0.0
C1882 C 0.45089 0.35952 0.15804 0.0
C1883 C 0.46189 0.35763 0.11542 0.0
C1884 C 0.45725 0.34729 0.09239 0.0
C1885 C 0.44545 0.35074 0.13468 0.0
C1886 C 0.43477 0.33175 0.08845 0.0
C1887 C 0.41834 0.32486 0.10748 0.0
H1888 H 0.88408 0.18552 0.43569 0.0
H1889 H 0.90919 0.11793 0.39493 0.0
H1890 H 0.89539 0.13937 0.35777 0.0
H1891 H 0.88513 0.18051 0.33678 0.0
H1892 H 0.86371 0.24967 0.37748 0.0
H1893 H 0.86693 0.22458 0.41464 0.0
C1894 C 0.8853 0.17509 0.41875 0.0
C1895 C 0.89737 0.15019 0.41791 0.0
C1896 C 0.87882 0.18822 0.39737 0.0
C1897 C 0.89962 0.13702 0.39588 0.0
C1898 C 0.89211 0.14944 0.37464 0.0
C1899 C 0.88069 0.18999 0.35373 0.0
C1900 C 0.87483 0.21708 0.35437 0.0
C1901 C 0.88314 0.17559 0.37509 0.0
C1902 C 0.86871 0.22894 0.37648 0.0
C1903 C 0.87053 0.21459 0.39778 0.0
H1904 H 0.01857 0.61689 0.61287 0.0
H1905 H 0.06829 0.66319 0.56632 0.0
H1906 H 0.09979 0.66928 0.59873 0.0
H1907 H 0.1093 0.66786 0.64161 0.0
H1908 H 0.05935 0.62323 0.68894 0.0
H1909 H 0.03238 0.60927 0.6548 0.0
C1910 C 0.0365 0.62796 0.60972 0.0
C1911 C 0.04072 0.64012 0.58734 0.0
C1912 C 0.05453 0.63163 0.62858 0.0
C1913 C 0.06429 0.65396 0.58343 0.0
C1914 C 0.08238 0.65746 0.60197 0.0
C1915 C 0.09302 0.65435 0.64431 0.0
C1916 C 0.08611 0.64678 0.66768 0.0
C1917 C 0.07717 0.64727 0.6248 0.0
C1918 C 0.06513 0.62917 0.67106 0.0
C1919 C 0.04947 0.62155 0.65158 0.0
H1920 H 0.61755 0.1763 0.66368 0.0
H1921 H 0.62397 0.24994 0.6255 0.0
H1922 H 0.62087 0.22667 0.58736 0.0
H1923 H 0.6075 0.1867 0.56556 0.0
H1924 H 0.5982 0.11381 0.60408 0.0
H1925 H 0.61235 0.13513 0.64114 0.0
C1926 C 0.61876 0.18722 0.64701 0.0
C1927 C 0.6203 0.21487 0.64749 0.0
C1928 C 0.6166 0.17374 0.62511 0.0
C1929 C 0.62238 0.22866 0.6257 0.0
C1930 C 0.62061 0.21536 0.60383 0.0
C1931 C 0.60992 0.17524 0.58183 0.0
C1932 C 0.60192 0.14877 0.58218 0.0
C1933 C 0.61658 0.18804 0.60335 0.0
C1934 C 0.6045 0.13419 0.60344 0.0
C1935 C 0.61215 0.14649 0.6247 0.0
H1936 H 0.11571 0.34399 0.86137 0.0
H1937 H 0.05719 0.37558 0.81337 0.0
H1938 H 0.02988 0.38877 0.84759 0.0
H1939 H 0.019 0.38252 0.89038 0.0
H1940 H 0.07742 0.34893 0.93777 0.0
H1941 H 0.10847 0.34548 0.90465 0.0
C1942 C 0.09747 0.35477 0.8585 0.0
C1943 C 0.0883 0.35868 0.83502 0.0
C1944 C 0.08152 0.3612 0.87814 0.0
C1945 C 0.0647 0.37259 0.83134 0.0
C1946 C 0.04889 0.37968 0.8509 0.0
C1947 C 0.03869 0.37489 0.89354 0.0
C1948 C 0.04562 0.36532 0.9164 0.0
C1949 C 0.05645 0.37267 0.87428 0.0
C1950 C 0.07138 0.35601 0.9203 0.0
C1951 C 0.0892 0.35403 0.90136 0.0
H1952 H 0.86066 0.75974 0.13763 0.0
H1953 H 0.88514 0.82258 0.18483 0.0
H1954 H 0.88908 0.85228 0.15078 0.0
H1955 H 0.89382 0.85769 0.10755 0.0
H1956 H 0.87227 0.79457 0.05987 0.0
H1957 H 0.85796 0.76793 0.09412 0.0
C1958 C 0.86639 0.78006 0.14052 0.0
C1959 C 0.87331 0.78873 0.16367 0.0
C1960 C 0.8691 0.79697 0.12076 0.0
C1961 C 0.88019 0.81524 0.16717 0.0
C1962 C 0.88244 0.83228 0.1477 0.0
C1963 C 0.88507 0.83844 0.10466 0.0
C1964 C 0.88429 0.82788 0.08142 0.0
C1965 C 0.87811 0.82299 0.12439 0.0
C1966 C 0.87287 0.80308 0.07767 0.0
C1967 C 0.86512 0.78773 0.09728 0.0
H1968 H 0.37994 0.64174 0.36291 0.0
H1969 H 0.44029 0.61971 0.31234 0.0
H1970 H 0.4686 0.60477 0.3452 0.0
H1971 H 0.47923 0.60711 0.38827 0.0
H1972 H 0.41897 0.63101 0.4385 0.0
H1973 H 0.38748 0.63584 0.40585 0.0
C1974 C 0.39894 0.63277 0.35909 0.0
C1975 C 0.40828 0.63214 0.33541 0.0
C1976 C 0.41534 0.6252 0.37804 0.0
C1977 C 0.43272 0.62031 0.33048 0.0
C1978 C 0.44905 0.61216 0.3493 0.0
C1979 C 0.45907 0.61289 0.3921 0.0
C1980 C 0.45165 0.61945 0.41568 0.0
C1981 C 0.4411 0.61597 0.37317 0.0
C1982 C 0.42532 0.62629 0.42047 0.0
C1983 C 0.40728 0.62909 0.4018 0.0
H1984 H 0.42161 0.12184 0.11245 0.0
H1985 H 0.37662 0.17498 0.06817 0.0
H1986 H 0.36248 0.19943 0.10381 0.0
H1987 H 0.37021 0.2103 0.14636 0.0
H1988 H 0.41655 0.15737 0.19003 0.0
H1989 H 0.42267 0.12809 0.15589 0.0
C1990 C 0.40799 0.13827 0.11073 0.0
C1991 C 0.40038 0.14687 0.08783 0.0
C1992 C 0.4007 0.15259 0.13113 0.0
C1993 C 0.38261 0.16798 0.08568 0.0
C1994 C 0.37486 0.18217 0.10602 0.0
C1995 C 0.38125 0.19212 0.1485 0.0
C1996 C 0.39349 0.18637 0.17055 0.0
C1997 C 0.38494 0.17544 0.12867 0.0
C1998 C 0.40725 0.16248 0.17319 0.0
C1999 C 0.4108 0.14571 0.15365 0.0
H2000 H 0.55553 0.62378 0.82335 0.0
H2001 H 0.62485 0.63612 0.86643 0.0
H2002 H 0.60067 0.62321 0.9024 0.0
H2003 H 0.55789 0.61748 0.9222 0.0
H2004 H 0.48769 0.60849 0.87928 0.0
H2005 H 0.51399 0.61094 0.84279 0.0
C2006 C 0.56559 0.62241 0.84046 0.0
C2007 C 0.59189 0.63077 0.84232 0.0
C2008 C 0.55112 0.61647 0.86124 0.0
C2009 C 0.60464 0.62955 0.86464 0.0
C2010 C 0.5907 0.62256 0.88524 0.0
C2011 C 0.54839 0.6156 0.90489 0.0
C2012 C 0.52079 0.61345 0.90352 0.0
C2013 C 0.56358 0.61749 0.88391 0.0
C2014 C 0.50886 0.6106 0.8809 0.0
C2015 C 0.52389 0.61197 0.85997 0.0
H2016 H 0.07269 0.86077 0.61027 0.0
H2017 H 0.11507 0.80947 0.5622 0.0
H2018 H 0.12991 0.78272 0.59621 0.0
H2019 H 0.12379 0.7697 0.63856 0.0
H2020 H 0.08017 0.82103 0.68599 0.0
H2021 H 0.07298 0.85201 0.65334 0.0
C2022 C 0.08592 0.84423 0.60736 0.0
C2023 C 0.09261 0.83691 0.58384 0.0
C2024 C 0.0936 0.82858 0.62683 0.0
C2025 C 0.10982 0.81557 0.58019 0.0
C2026 C 0.11795 0.80005 0.59961 0.0
C2027 C 0.11308 0.78787 0.64183 0.0
C2028 C 0.10199 0.79271 0.66457 0.0
C2029 C 0.10883 0.80564 0.62285 0.0
C2030 C 0.08861 0.81659 0.66862 0.0
C2031 C 0.08446 0.83436 0.64994 0.0
H2032 H 0.88465 0.34158 0.36131 0.0
H2033 H 0.94287 0.37054 0.31176 0.0
H2034 H 0.97126 0.38345 0.34532 0.0
H2035 H 0.9827 0.37818 0.38812 0.0
H2036 H 0.9247 0.3466 0.43692 0.0
H2037 H 0.89304 0.34307 0.40432 0.0
C2038 C 0.90318 0.35157 0.35792 0.0
C2039 C 0.91186 0.35491 0.33422 0.0
C2040 C 0.91972 0.35778 0.37717 0.0
C2041 C 0.93575 0.36795 0.32991 0.0
C2042 C 0.95215 0.37491 0.3491 0.0
C2043 C 0.96298 0.37095 0.3917 0.0
C2044 C 0.95631 0.36205 0.41483 0.0
C2045 C 0.9449 0.36858 0.37272 0.0
C2046 C 0.93055 0.35314 0.41923 0.0
C2047 C 0.91238 0.35114 0.4006 0.0
H2048 H 0.36087 0.80593 0.34396 0.0
H2049 H 0.36163 0.73341 0.38436 0.0
H2050 H 0.36508 0.75819 0.42165 0.0
H2051 H 0.37673 0.79975 0.44177 0.0
H2052 H 0.37947 0.87158 0.40085 0.0
H2053 H 0.36485 0.84809 0.36504 0.0
C2054 C 0.36127 0.79555 0.36094 0.0
C2055 C 0.36169 0.76785 0.36129 0.0
C2056 C 0.3638 0.8099 0.38233 0.0
C2057 C 0.36175 0.75473 0.3835 0.0
C2058 C 0.36372 0.76889 0.40489 0.0
C2059 C 0.37284 0.81038 0.42527 0.0
C2060 C 0.37894 0.83728 0.42384 0.0
C2061 C 0.36594 0.79641 0.40444 0.0
C2062 C 0.37456 0.85087 0.4023 0.0
C2063 C 0.36662 0.83736 0.38176 0.0
H2064 H 0.88047 0.66314 0.1469 0.0
H2065 H 0.93689 0.62816 0.1951 0.0
H2066 H 0.9639 0.61408 0.16093 0.0
H2067 H 0.97484 0.6188 0.11791 0.0
H2068 H 0.91825 0.65523 0.07041 0.0
H2069 H 0.88793 0.66156 0.1037 0.0
C2070 C 0.89829 0.65169 0.14986 0.0
C2071 C 0.90685 0.64685 0.17339 0.0
C2072 C 0.91398 0.64448 0.13026 0.0
C2073 C 0.92984 0.63193 0.1771 0.0
C2074 C 0.94546 0.62425 0.15758 0.0
C2075 C 0.95571 0.62775 0.11479 0.0
C2076 C 0.94911 0.63707 0.09175 0.0
C2077 C 0.93831 0.63155 0.13415 0.0
C2078 C 0.92405 0.64821 0.08796 0.0
C2079 C 0.90665 0.65185 0.10701 0.0
H2080 H 0.1 0.18503 0.9356 0.0
H2081 H 0.07712 0.11765 0.89359 0.0
H2082 H 0.09067 0.14003 0.85689 0.0
H2083 H 0.10081 0.18148 0.83657 0.0
H2084 H 0.12081 0.25017 0.87835 0.0
H2085 H 0.11679 0.22467 0.91521 0.0
C2086 C 0.0991 0.17494 0.91848 0.0
C2087 C 0.08774 0.1498 0.91714 0.0
C2088 C 0.10565 0.18848 0.89735 0.0
C2089 C 0.08602 0.13699 0.8949 0.0
C2090 C 0.09344 0.1499 0.87393 0.0
C2091 C 0.1047 0.19078 0.85371 0.0
C2092 C 0.11047 0.21781 0.85472 0.0
C2093 C 0.10193 0.17613 0.87486 0.0
C2094 C 0.11593 0.22945 0.87705 0.0
C2095 C 0.11364 0.21488 0.89818 0.0
H2096 H 0.55102 0.36119 0.6951 0.0
H2097 H 0.61725 0.3468 0.64854 0.0
H2098 H 0.59272 0.36474 0.61454 0.0
H2099 H 0.55003 0.37593 0.59702 0.0
H2100 H 0.48214 0.38582 0.64282 0.0
H2101 H 0.50965 0.37857 0.67813 0.0
C2102 C 0.56035 0.36304 0.67768 0.0
C2103 C 0.58583 0.35289 0.67419 0.0
C2104 C 0.54555 0.37192 0.65798 0.0
C2105 C 0.59766 0.35472 0.65152 0.0
C2106 C 0.58354 0.36469 0.63208 0.0
C2107 C 0.54131 0.37705 0.61474 0.0
C2108 C 0.51398 0.38084 0.61724 0.0
C2109 C 0.55705 0.37199 0.63488 0.0
C2110 C 0.50308 0.38253 0.64036 0.0
C2111 C 0.51879 0.37835 0.66058 0.0
H2112 H 0.21763 0.23045 0.28893 0.0
H2113 H 0.1965 0.2301 0.21416 0.0
H2114 H 0.24107 0.24442 0.2034 0.0
H2115 H 0.28537 0.25845 0.21562 0.0
H2116 H 0.30658 0.2586 0.29038 0.0
H2117 H 0.26208 0.24402 0.30113 0.0
C2118 C 0.22293 0.23352 0.27031 0.0
C2119 C 0.20411 0.22946 0.2523 0.0
C2120 C 0.24823 0.24219 0.26442 0.0
C2121 C 0.21095 0.23304 0.2282 0.0
C2122 C 0.23624 0.24143 0.22211 0.0
C2123 C 0.28013 0.25521 0.23424 0.0
C2124 C 0.29891 0.25943 0.25226 0.0
C2125 C 0.25489 0.24634 0.24011 0.0
C2126 C 0.29215 0.25559 0.27634 0.0
C2127 C 0.2669 0.24705 0.28242 0.0
H2128 H 0.04414 0.96979 0.51217 0.0
H2129 H 0.96927 0.93371 0.49675 0.0
H2130 H 0.94955 0.97704 0.48933 0.0
H2131 H 0.95362 0.02525 0.48806 0.0
H2132 H 0.02844 0.06146 0.50337 0.0
H2133 H 0.04835 0.01808 0.51037 0.0
C2134 C 0.02365 0.97158 0.50682 0.0
C2135 C 0.00807 0.94898 0.5048 0.0
C2136 C 0.01245 -0.00353 0.50301 0.0
C2137 C 0.98147 0.95114 0.49823 0.0
C2138 C 0.97022 0.9758 0.49416 0.0
C2139 C 0.97417 0.02348 0.49323 0.0
C2140 C 0.98962 0.04613 0.49552 0.0
C2141 C 0.98545 -0.0014 0.49679 0.0
C2142 C 0.01632 0.04399 0.50177 0.0
C2143 C 0.02767 0.01931 0.5056 0.0
H2144 H 0.21664 0.72252 0.71391 0.0
H2145 H 0.1844 0.73632 0.78422 0.0
H2146 H 0.2258 0.75685 0.79694 0.0
H2147 H 0.27091 0.77063 0.78786 0.0
H2148 H 0.30451 0.75419 0.71854 0.0
H2149 H 0.26228 0.73602 0.70494 0.0
C2150 C 0.21892 0.72994 0.73202 0.0
C2151 C 0.19793 0.72798 0.74826 0.0
C2152 C 0.24262 0.74167 0.73906 0.0
C2153 C 0.20065 0.73752 0.77167 0.0
C2154 C 0.22411 0.74942 0.7788 0.0
C2155 C 0.26888 0.76304 0.76978 0.0
C2156 C 0.29059 0.76334 0.75423 0.0
C2157 C 0.24514 0.75163 0.76261 0.0
C2158 C 0.28786 0.75409 0.7307 0.0
C2159 C 0.26391 0.74348 0.72307 0.0
H2160 H 0.51217 0.95776 0.96869 0.0
H2161 H 0.51596 0.93454 0.04288 0.0
H2162 H 0.49821 0.97755 0.05497 0.0
H2163 H 0.48023 0.02101 0.04401 0.0
H2164 H 0.47539 0.04343 0.96967 0.0
H2165 H 0.49361 0.00065 0.95772 0.0
C2166 C 0.50897 0.96215 0.98749 0.0
C2167 C 0.51501 0.94319 0.00493 0.0
C2168 C 0.49802 0.98635 0.99411 0.0
C2169 C 0.51147 0.94907 0.02925 0.0
C2170 C 0.50108 0.97344 0.03609 0.0
C2171 C 0.48315 0.01635 0.02522 0.0
C2172 C 0.47674 0.03506 0.00766 0.0
C2173 C 0.49399 0.99205 0.01863 0.0
C2174 C 0.48013 0.02904 0.98336 0.0
C2175 C 0.49077 0.00481 0.9766 0.0
H2176 H 0.29547 0.74847 0.26428 0.0
H2177 H 0.26777 0.66837 0.26071 0.0
H2178 H 0.22331 0.6841 0.25072 0.0
H2179 H 0.19235 0.72082 0.24457 0.0
H2180 H 0.22007 0.80091 0.24863 0.0
H2181 H 0.26463 0.78512 0.25791 0.0
C2182 C 0.27963 0.73453 0.26119 0.0
C2183 C 0.28461 0.70739 0.263 0.0
C2184 C 0.25426 0.74375 0.25611 0.0
C2185 C 0.26424 0.68934 0.25898 0.0
C2186 C 0.23889 0.69834 0.25356 0.0
C2187 C 0.20824 0.73474 0.24744 0.0
C2188 C 0.20321 0.76191 0.246 0.0
C2189 C 0.23367 0.72549 0.25234 0.0
C2190 C 0.22364 0.77991 0.24997 0.0
C2191 C 0.24905 0.77089 0.25502 0.0
H2192 H 0.47013 0.05092 0.5126 0.0
H2193 H 0.55031 0.02759 0.49793 0.0
H2194 H 0.53568 0.98276 0.48886 0.0
H2195 H 0.50026 0.95016 0.4863 0.0
H2196 H 0.41992 0.97331 0.50028 0.0
H2197 H 0.43446 0.01826 0.50951 0.0
C2198 C 0.48431 0.03594 0.50741 0.0
C2199 C 0.51118 0.04232 0.50585 0.0
C2200 C 0.47579 0.01026 0.5026 0.0
C2201 C 0.52948 0.02304 0.49891 0.0
C2202 C 0.52116 -0.00257 0.49397 0.0
C2203 C 0.48597 0.96514 0.49127 0.0
C2204 C 0.45913 0.95868 0.49266 0.0
C2205 C 0.49442 0.99083 0.49594 0.0
C2206 C 0.44073 0.97796 0.4994 0.0
C2207 C 0.44901 0.0036 0.50443 0.0
H2208 H 0.22106 0.27102 0.79423 0.0
H2209 H 0.18598 0.26208 0.72442 0.0
H2210 H 0.2243 0.23664 0.71084 0.0
H2211 H 0.26776 0.2172 0.71902 0.0
H2212 H 0.30395 0.22829 0.7881 0.0
H2213 H 0.26449 0.2513 0.80248 0.0
C2214 C 0.22204 0.26356 0.77602 0.0
C2215 C 0.2011 0.26833 0.76021 0.0
C2216 C 0.24385 0.24877 0.76856 0.0
C2217 C 0.20222 0.25878 0.73667 0.0
C2218 C 0.22388 0.24402 0.72906 0.0
C2219 C 0.26677 0.22452 0.73727 0.0
C2220 C 0.28852 0.22138 0.7525 0.0
C2221 C 0.24471 0.2388 0.7449 0.0
C2222 C 0.28722 0.23046 0.7762 0.0
C2223 C 0.2649 0.24392 0.78426 0.0
H2224 H -0.00195 0.94033 0.0091 0.0
H2225 H 0.91947 0.97175 0.0164 0.0
H2226 H 0.93574 0.01607 0.00695 0.0
H2227 H 0.97262 0.04554 0.99768 0.0
H2228 H 0.05098 0.01386 0.98916 0.0
H2229 H 0.03478 0.96967 0.99896 0.0
C2230 C 0.98458 0.95697 0.00845 0.0
C2231 C 0.95773 0.95321 0.01326 0.0
C2232 C 0.99413 0.98211 1.00335 0.0
C2233 C 0.94019 0.97451 0.01244 0.0
C2234 C 0.94952 -0.00029 0.00728 0.0
C2235 C 0.98607 0.02888 0.99804 0.0
C2236 C 0.01289 0.03265 0.99305 0.0
C2237 C 0.97647 0.0037 1.00294 0.0
C2238 C 0.03034 0.01123 0.99348 0.0
C2239 C 0.02104 0.98606 0.99878 0.0
H2240 H 0.76991 0.76337 0.71597 0.0
H2241 H 0.8052 0.75827 0.78602 0.0
H2242 H 0.76673 0.73421 0.80097 0.0
H2243 H 0.72363 0.71395 0.79365 0.0
H2244 H 0.68692 0.72153 0.72436 0.0
H2245 H 0.72603 0.74415 0.70897 0.0
C2246 C 0.76889 0.75714 0.73454 0.0
C2247 C 0.78999 0.76243 0.75001 0.0
C2248 C 0.74694 0.74322 0.74283 0.0
C2249 C 0.78885 0.75448 0.77401 0.0
C2250 C 0.7671 0.74053 0.78242 0.0
C2251 C 0.72431 0.7206 0.77518 0.0
C2252 C 0.70264 0.71628 0.76011 0.0
C2253 C 0.74618 0.7346 0.76691 0.0
C2254 C 0.70362 0.72451 0.73615 0.0
C2255 C 0.72576 0.73771 0.72748 0.0
H2256 H 0.76797 0.27969 0.28724 0.0
H2257 H 0.81355 0.26132 0.22426 0.0
H2258 H 0.77837 0.2325 0.20969 0.0
H2259 H 0.73521 0.21159 0.21572 0.0
H2260 H 0.69 0.22943 0.27904 0.0
H2261 H 0.72513 0.25834 0.29353 0.0
C2262 C 0.76988 0.26957 0.27019 0.0
C2263 C 0.79289 0.27262 0.25663 0.0
C2264 C 0.75018 0.25232 0.26254 0.0
C2265 C 0.79562 0.25947 0.23467 0.0
C2266 C 0.77578 0.24273 0.22658 0.0
C2267 C 0.73341 0.22157 0.23285 0.0
C2268 C 0.71045 0.21848 0.24647 0.0
C2269 C 0.7532 0.2387 0.24057 0.0
C2270 C 0.70786 0.23139 0.26855 0.0
C2271 C 0.72768 0.24818 0.2766 0.0
H2272 H 0.77852 0.22748 0.78535 0.0
H2273 H 0.80918 0.23924 0.7142 0.0
H2274 H 0.76769 0.26024 0.70199 0.0
H2275 H 0.72299 0.27563 0.71199 0.0
H2276 H 0.69207 0.26289 0.78295 0.0
H2277 H 0.73389 0.24288 0.79535 0.0
C2278 C 0.77596 0.23465 0.76719 0.0
C2279 C 0.79656 0.23199 0.75061 0.0
C2280 C 0.75236 0.24694 0.76053 0.0
C2281 C 0.7933 0.24104 0.72708 0.0
C2282 C 0.76977 0.2532 0.72022 0.0
C2283 C 0.72557 0.2685 0.73017 0.0
C2284 C 0.70474 0.27059 0.74659 0.0
C2285 C 0.74927 0.25639 0.73686 0.0
C2286 C 0.70809 0.26162 0.77016 0.0
C2287 C 0.73181 0.24996 0.77713 0.0
H2288 H 0.71791 0.77218 0.29207 0.0
H2289 H 0.68342 0.75869 0.22262 0.0
H2290 H 0.72343 0.73558 0.2096 0.0
H2291 H 0.76751 0.71792 0.21872 0.0
H2292 H 0.80208 0.7317 0.28808 0.0
H2293 H 0.76205 0.75476 0.30111 0.0
C2294 C 0.71938 0.76432 0.27404 0.0
C2295 C 0.69801 0.76696 0.25826 0.0
C2296 C 0.74196 0.75043 0.26706 0.0
C2297 C 0.69988 0.757 0.23489 0.0
C2298 C 0.72252 0.7435 0.22762 0.0
C2299 C 0.76603 0.7258 0.23675 0.0
C2300 C 0.78738 0.72317 0.25253 0.0
C2301 C 0.74346 0.73975 0.2437 0.0
C2302 C 0.78558 0.73331 0.27584 0.0
C2303 C 0.76293 0.74677 0.28312 0.0
H2304 H 0.50313 0.5419 1.00054 0.0
H2305 H 0.42359 0.51265 0.99627 0.0
H2306 H 0.43951 0.46762 1.00316 0.0
H2307 H 0.47641 0.43667 0.00871 0.0
H2308 H 0.55599 0.46598 0.01222 0.0
H2309 H 0.53992 0.51107 0.00627 0.0
C2310 C 0.48935 0.5256 1.00137 0.0
C2311 C 0.46231 0.53032 0.99828 0.0
C2312 C 0.49873 0.49992 0.00454 0.0
C2313 C 0.44445 0.50932 0.99918 0.0
C2314 C 0.45358 0.48365 1.00277 0.0
C2315 C 0.49014 0.45302 0.00811 0.0
C2316 C 0.51725 0.44829 0.01072 0.0
C2317 C 0.4807 0.47873 0.00516 0.0
C2318 C 0.53505 0.46934 0.00986 0.0
C2319 C 0.52586 0.49504 0.00675 0.0
H2320 H 0.98127 0.5273 0.5394 0.0
H2321 H 0.97887 0.55336 0.46596 0.0
H2322 H 0.00068 0.51256 0.45312 0.0
H2323 H 0.0208 0.46983 0.46313 0.0
H2324 H 0.02381 0.44424 0.53668 0.0
H2325 H 0.0026 0.48531 0.54954 0.0
C2326 C 0.98556 0.52391 0.52059 0.0
C2327 C 0.97851 0.54296 0.50356 0.0
C2328 C -0.00126 0.50097 0.51357 0.0
C2329 C 0.9839 0.53862 0.47924 0.0
C2330 C -0.0034 0.51554 0.47199 0.0
C2331 C 0.01694 0.47348 0.48197 0.0
C2332 C 0.02358 0.45431 0.49902 0.0
C2333 C 0.00426 0.49671 0.48904 0.0
C2334 C 0.01891 0.45901 0.52339 0.0
C2335 C 0.00654 0.48225 0.53065 0.0
H2336 H 0.01536 0.5248 0.03958 0.0
H2337 H 0.00108 0.55548 0.96878 0.0
H2338 H 0.98 0.51401 0.95708 0.0
H2339 H 0.96586 0.46911 0.96724 0.0
H2340 H 0.98012 0.43845 0.03802 0.0
H2341 H -0.00011 0.48044 0.05013 0.0
C2342 C 0.00762 0.52224 0.0216 0.0
C2343 C 0.00976 0.54277 0.00493 0.0
C2344 C 0.99503 0.49877 0.01532 0.0
C2345 C -0.00015 0.53958 0.98168 0.0
C2346 C 0.98758 0.5161 0.97513 0.0
C2347 C 0.97303 0.47191 0.98538 0.0
C2348 C 0.97171 0.45109 1.00181 0.0
C2349 C 0.98497 0.49565 0.99186 0.0
C2350 C 0.98087 0.45453 0.02527 0.0
C2351 C 0.99242 0.47831 0.03205 0.0
H2352 H 0.503 0.45128 0.5305 0.0
H2353 H 0.42498 0.46982 0.50488 0.0
H2354 H 0.43902 0.51484 0.49546 0.0
H2355 H 0.47326 0.54874 0.49543 0.0
H2356 H 0.55207 0.52951 0.51867 0.0
H2357 H 0.5377 0.48499 0.52937 0.0
C2358 C 0.48916 0.46529 0.52286 0.0
C2359 C 0.46306 0.45763 0.5184 0.0
C2360 C 0.49738 0.4909 0.51759 0.0
C2361 C 0.44522 0.47552 0.50824 0.0
C2362 C 0.45318 0.50117 0.50307 0.0
C2363 C 0.48733 0.53469 0.50263 0.0
C2364 C 0.51366 0.54217 0.50619 0.0
C2365 C 0.47916 0.50906 0.5078 0.0
C2366 C 0.53162 0.52415 0.51606 0.0
C2367 C 0.52348 0.4987 0.5219 0.0
loop_
_geom_bond_atom_site_label_1
_geom_bond_atom_site_label_2
_geom_bond_distance
_geom_bond_site_symmetry_2
_ccdc_geom_bond_type
Co0 O3 1.970 . S
Co0 N17 1.989 . S
Co0 O25 1.967 . S
Co0 O32 1.920 . S
Co1 O4 1.966 . S
Co1 N10 2.022 . S
Co1 N18 1.993 . S
Co1 O26 1.941 . S
C2 O3 1.258 . S
C2 O4 1.263 . S
O3 Co0 1.970 . S
O3 C2 1.258 . S
O4 Co1 1.966 . S
O4 C2 1.263 . S
C5 O6 1.235 . S
C5 O32 1.289 . S
O6 C5 1.235 . S
C7 C9 1.400 . S
C7 N10 1.351 . S
C7 C12 1.501 . S
C8 C9 1.387 . S
C8 N11 1.341 . S
C9 C7 1.400 . S
C9 C8 1.387 . S
N10 Co1 2.022 . S
N10 C7 1.351 . S
N10 N11 1.365 . S
N11 C8 1.341 . S
N11 N10 1.365 . S
N11 H31 0.862 . S
C12 C7 1.501 . S
C12 H13 0.961 . S
C12 H14 0.961 . S
C12 H15 0.960 . S
H13 C12 0.961 . S
H14 C12 0.961 . S
H15 C12 0.960 . S
C16 N17 1.342 . S
C16 C20 1.401 . S
C16 C21 1.499 . S
N17 Co0 1.989 . S
N17 C16 1.342 . S
N17 N18 1.388 . S
N18 Co1 1.993 . S
N18 N17 1.388 . S
N18 C19 1.346 . S
C19 N18 1.346 . S
C19 C20 1.396 . S
C19 C29 1.510 . S
C20 C16 1.401 . S
C20 C19 1.396 . S
C21 C16 1.499 . S
C21 H22 0.959 . S
C21 H23 0.960 . S
C21 H24 0.961 . S
H22 C21 0.959 . S
H23 C21 0.960 . S
H24 C21 0.961 . S
O25 Co0 1.967 . S
O25 C33 1.258 . S
O26 Co1 1.941 . S
O26 C33 1.266 . S
H27 C29 0.959 . S
H28 C29 0.961 . S
C29 C19 1.510 . S
C29 H27 0.959 . S
C29 H28 0.961 . S
C29 H30 0.960 . S
H30 C29 0.960 . S
H31 N11 0.862 . S
O32 Co0 1.920 . S
O32 C5 1.289 . S
C33 O25 1.258 . S
C33 O26 1.266 . S
Co34 O37 1.970 . S
Co34 N51 1.989 . S
Co34 O59 1.967 . S
Co34 O66 1.920 . S
Co35 O38 1.966 . S
Co35 N44 2.022 . S
Co35 N52 1.993 . S
Co35 O60 1.941 . S
C36 O37 1.258 . S
C36 O38 1.263 . S
O37 Co34 1.970 . S
O37 C36 1.258 . S
O38 Co35 1.966 . S
O38 C36 1.263 . S
C39 O40 1.235 . S
C39 O66 1.289 1_655 S
O40 C39 1.235 . S
C41 C43 1.400 . S
C41 N44 1.351 . S
C41 C46 1.501 . S
C42 C43 1.387 . S
C42 N45 1.341 . S
C43 C41 1.400 . S
C43 C42 1.387 . S
N44 Co35 2.022 . S
N44 C41 1.351 . S
N44 N45 1.365 . S
N45 C42 1.341 . S
N45 N44 1.365 . S
N45 H65 0.862 . S
C46 C41 1.501 . S
C46 H47 0.961 . S
C46 H48 0.961 . S
C46 H49 0.960 . S
H47 C46 0.961 . S
H48 C46 0.961 . S
H49 C46 0.960 . S
C50 N51 1.342 . S
C50 C54 1.401 . S
C50 C55 1.499 . S
N51 Co34 1.989 . S
N51 C50 1.342 . S
N51 N52 1.388 . S
N52 Co35 1.993 . S
N52 N51 1.388 . S
N52 C53 1.346 . S
C53 N52 1.346 . S
C53 C54 1.396 . S
C53 C63 1.510 . S
C54 C50 1.401 . S
C54 C53 1.396 . S
C55 C50 1.499 . S
C55 H56 0.959 . S
C55 H57 0.960 1_455 S
C55 H58 0.961 . S
H56 C55 0.959 . S
H57 C55 0.960 1_655 S
H58 C55 0.961 . S
O59 Co34 1.967 . S
O59 C67 1.258 . S
O60 Co35 1.941 . S
O60 C67 1.266 . S
H61 C63 0.959 . S
H62 C63 0.961 . S
C63 C53 1.510 . S
C63 H61 0.959 . S
C63 H62 0.961 . S
C63 H64 0.960 . S
H64 C63 0.960 . S
H65 N45 0.862 . S
O66 Co34 1.920 . S
O66 C39 1.289 1_455 S
C67 O59 1.258 . S
C67 O60 1.266 . S
Co68 O71 1.970 . S
Co68 N85 1.989 . S
Co68 O93 1.967 . S
Co68 O100 1.920 . S
Co69 O72 1.966 . S
Co69 N78 2.022 . S
Co69 N86 1.993 . S
Co69 O94 1.941 . S
C70 O71 1.258 . S
C70 O72 1.263 . S
O71 Co68 1.970 . S
O71 C70 1.258 . S
O72 Co69 1.966 . S
O72 C70 1.263 . S
C73 O74 1.235 . S
C73 O100 1.289 . S
O74 C73 1.235 . S
C75 C77 1.400 . S
C75 N78 1.351 . S
C75 C80 1.501 . S
C76 C77 1.387 . S
C76 N79 1.341 . S
C77 C75 1.400 . S
C77 C76 1.387 . S
N78 Co69 2.022 . S
N78 C75 1.351 . S
N78 N79 1.365 . S
N79 C76 1.341 . S
N79 N78 1.365 . S
N79 H99 0.862 . S
C80 C75 1.501 . S
C80 H81 0.961 . S
C80 H82 0.961 . S
C80 H83 0.960 . S
H81 C80 0.961 . S
H82 C80 0.961 . S
H83 C80 0.960 . S
C84 N85 1.342 . S
C84 C88 1.401 . S
C84 C89 1.499 . S
N85 Co68 1.989 . S
N85 C84 1.342 . S
N85 N86 1.388 . S
N86 Co69 1.993 . S
N86 N85 1.388 . S
N86 C87 1.346 . S
C87 N86 1.346 . S
C87 C88 1.396 . S
C87 C97 1.510 . S
C88 C84 1.401 . S
C88 C87 1.396 . S
C89 C84 1.499 . S
C89 H90 0.959 . S
C89 H91 0.960 . S
C89 H92 0.961 . S
H90 C89 0.959 . S
H91 C89 0.960 . S
H92 C89 0.961 . S
O93 Co68 1.967 . S
O93 C101 1.258 . S
O94 Co69 1.941 . S
O94 C101 1.266 . S
H95 C97 0.959 . S
H96 C97 0.961 . S
C97 C87 1.510 . S
C97 H95 0.959 . S
C97 H96 0.961 . S
C97 H98 0.960 . S
H98 C97 0.960 . S
H99 N79 0.862 . S
O100 Co68 1.920 . S
O100 C73 1.289 . S
C101 O93 1.258 . S
C101 O94 1.266 . S
Co102 O105 1.970 . S
Co102 N119 1.989 . S
Co102 O127 1.967 . S
Co102 O134 1.920 . S
Co103 O106 1.966 . S
Co103 N112 2.022 1_554 S
Co103 N120 1.993 . S
Co103 O128 1.941 . S
C104 O105 1.258 . S
C104 O106 1.263 . S
O105 Co102 1.970 . S
O105 C104 1.258 . S
O106 Co103 1.966 . S
O106 C104 1.263 . S
C107 O108 1.235 . S
C107 O134 1.289 . S
O108 C107 1.235 . S
C109 C111 1.400 . S
C109 N112 1.351 . S
C109 C114 1.501 . S
C110 C111 1.387 . S
C110 N113 1.341 . S
C111 C109 1.400 . S
C111 C110 1.387 . S
N112 Co103 2.022 1_556 S
N112 C109 1.351 . S
N112 N113 1.365 . S
N113 C110 1.341 . S
N113 N112 1.365 . S
N113 H133 0.862 . S
C114 C109 1.501 . S
C114 H115 0.961 . S
C114 H116 0.961 . S
C114 H117 0.960 . S
H115 C114 0.961 . S
H116 C114 0.961 . S
H117 C114 0.960 . S
C118 N119 1.342 . S
C118 C122 1.401 . S
C118 C123 1.499 . S
N119 Co102 1.989 . S
N119 C118 1.342 . S
N119 N120 1.388 . S
N120 Co103 1.993 . S
N120 N119 1.388 . S
N120 C121 1.346 . S
C121 N120 1.346 . S
C121 C122 1.396 . S
C121 C131 1.510 1_554 S
C122 C118 1.401 . S
C122 C121 1.396 . S
C123 C118 1.499 . S
C123 H124 0.959 . S
C123 H125 0.960 . S
C123 H126 0.961 . S
H124 C123 0.959 . S
H125 C123 0.960 . S
H126 C123 0.961 . S
O127 Co102 1.967 . S
O127 C135 1.258 . S
O128 Co103 1.941 . S
O128 C135 1.266 . S
H129 C131 0.959 . S
H130 C131 0.961 . S
C131 C121 1.510 1_556 S
C131 H129 0.959 . S
C131 H130 0.961 . S
C131 H132 0.960 . S
H132 C131 0.960 . S
H133 N113 0.862 . S
O134 Co102 1.920 . S
O134 C107 1.289 . S
C135 O127 1.258 . S
C135 O128 1.266 . S
Co136 O139 1.970 . S
Co136 N153 1.989 . S
Co136 O161 1.967 . S
Co136 O168 1.920 . S
Co137 O140 1.966 . S
Co137 N146 2.022 . S
Co137 N154 1.993 . S
Co137 O162 1.941 . S
C138 O139 1.258 . S
C138 O140 1.263 . S
O139 Co136 1.970 . S
O139 C138 1.258 . S
O140 Co137 1.966 . S
O140 C138 1.263 . S
C141 O142 1.235 . S
C141 O168 1.289 . S
O142 C141 1.235 . S
C143 C145 1.400 . S
C143 N146 1.351 . S
C143 C148 1.501 . S
C144 C145 1.387 . S
C144 N147 1.341 . S
C145 C143 1.400 . S
C145 C144 1.387 . S
N146 Co137 2.022 . S
N146 C143 1.351 . S
N146 N147 1.365 . S
N147 C144 1.341 . S
N147 N146 1.365 . S
N147 H167 0.862 . S
C148 C143 1.501 . S
C148 H149 0.961 . S
C148 H150 0.961 . S
C148 H151 0.960 . S
H149 C148 0.961 . S
H150 C148 0.961 . S
H151 C148 0.960 . S
C152 N153 1.342 . S
C152 C156 1.401 . S
C152 C157 1.499 . S
N153 Co136 1.989 . S
N153 C152 1.342 . S
N153 N154 1.388 . S
N154 Co137 1.993 . S
N154 N153 1.388 . S
N154 C155 1.346 . S
C155 N154 1.346 . S
C155 C156 1.396 . S
C155 C165 1.510 . S
C156 C152 1.401 . S
C156 C155 1.396 . S
C157 C152 1.499 . S
C157 H158 0.959 . S
C157 H159 0.960 . S
C157 H160 0.961 . S
H158 C157 0.959 . S
H159 C157 0.960 . S
H160 C157 0.961 . S
O161 Co136 1.967 . S
O161 C169 1.258 . S
O162 Co137 1.941 . S
O162 C169 1.266 . S
H163 C165 0.959 . S
H164 C165 0.961 . S
C165 C155 1.510 . S
C165 H163 0.959 . S
C165 H164 0.961 . S
C165 H166 0.960 . S
H166 C165 0.960 . S
H167 N147 0.862 . S
O168 Co136 1.920 . S
O168 C141 1.289 . S
C169 O161 1.258 . S
C169 O162 1.266 . S
Co170 O173 1.970 . S
Co170 N187 1.989 . S
Co170 O195 1.967 . S
Co170 O202 1.920 . S
Co171 O174 1.966 . S
Co171 N180 2.022 . S
Co171 N188 1.993 . S
Co171 O196 1.941 . S
C172 O173 1.258 . S
C172 O174 1.263 . S
O173 Co170 1.970 . S
O173 C172 1.258 . S
O174 Co171 1.966 . S
O174 C172 1.263 . S
C175 O176 1.235 . S
C175 O202 1.289 . S
O176 C175 1.235 . S
C177 C179 1.400 . S
C177 N180 1.351 . S
C177 C182 1.501 . S
C178 C179 1.387 . S
C178 N181 1.341 . S
C179 C177 1.400 . S
C179 C178 1.387 . S
N180 Co171 2.022 . S
N180 C177 1.351 . S
N180 N181 1.365 . S
N181 C178 1.341 . S
N181 N180 1.365 . S
N181 H201 0.862 . S
C182 C177 1.501 . S
C182 H183 0.961 . S
C182 H184 0.961 . S
C182 H185 0.960 . S
H183 C182 0.961 . S
H184 C182 0.961 . S
H185 C182 0.960 . S
C186 N187 1.342 . S
C186 C190 1.401 . S
C186 C191 1.499 . S
N187 Co170 1.989 . S
N187 C186 1.342 . S
N187 N188 1.388 . S
N188 Co171 1.993 . S
N188 N187 1.388 . S
N188 C189 1.346 . S
C189 N188 1.346 . S
C189 C190 1.396 . S
C189 C199 1.510 . S
C190 C186 1.401 . S
C190 C189 1.396 . S
C191 C186 1.499 . S
C191 H192 0.959 . S
C191 H193 0.960 . S
C191 H194 0.961 . S
H192 C191 0.959 . S
H193 C191 0.960 . S
H194 C191 0.961 . S
O195 Co170 1.967 . S
O195 C203 1.258 . S
O196 Co171 1.941 . S
O196 C203 1.266 . S
H197 C199 0.959 . S
H198 C199 0.961 . S
C199 C189 1.510 . S
C199 H197 0.959 . S
C199 H198 0.961 . S
C199 H200 0.960 . S
H200 C199 0.960 . S
H201 N181 0.862 . S
O202 Co170 1.920 . S
O202 C175 1.289 . S
C203 O195 1.258 . S
C203 O196 1.266 . S
Co204 O207 1.970 . S
Co204 N221 1.989 . S
Co204 O229 1.967 . S
Co204 O236 1.920 . S
Co205 O208 1.966 . S
Co205 N214 2.022 . S
Co205 N222 1.993 . S
Co205 O230 1.941 . S
C206 O207 1.258 . S
C206 O208 1.263 . S
O207 Co204 1.970 . S
O207 C206 1.258 . S
O208 Co205 1.966 . S
O208 C206 1.263 . S
C209 O210 1.235 . S
C209 O236 1.289 . S
O210 C209 1.235 . S
C211 C213 1.400 . S
C211 N214 1.351 . S
C211 C216 1.501 . S
C212 C213 1.387 . S
C212 N215 1.341 . S
C213 C211 1.400 . S
C213 C212 1.387 . S
N214 Co205 2.022 . S
N214 C211 1.351 . S
N214 N215 1.365 . S
N215 C212 1.341 . S
N215 N214 1.365 . S
N215 H235 0.862 . S
C216 C211 1.501 . S
C216 H217 0.961 . S
C216 H218 0.961 . S
C216 H219 0.960 . S
H217 C216 0.961 . S
H218 C216 0.961 . S
H219 C216 0.960 . S
C220 N221 1.342 . S
C220 C224 1.401 . S
C220 C225 1.499 . S
N221 Co204 1.989 . S
N221 C220 1.342 . S
N221 N222 1.388 . S
N222 Co205 1.993 . S
N222 N221 1.388 . S
N222 C223 1.346 . S
C223 N222 1.346 . S
C223 C224 1.396 . S
C223 C233 1.510 . S
C224 C220 1.401 . S
C224 C223 1.396 . S
C225 C220 1.499 . S
C225 H226 0.959 . S
C225 H227 0.960 . S
C225 H228 0.961 . S
H226 C225 0.959 . S
H227 C225 0.960 . S
H228 C225 0.961 . S
O229 Co204 1.967 . S
O229 C237 1.258 . S
O230 Co205 1.941 . S
O230 C237 1.266 . S
H231 C233 0.959 . S
H232 C233 0.961 . S
C233 C223 1.510 . S
C233 H231 0.959 . S
C233 H232 0.961 . S
C233 H234 0.960 . S
H234 C233 0.960 . S
H235 N215 0.862 . S
O236 Co204 1.920 . S
O236 C209 1.289 . S
C237 O229 1.258 . S
C237 O230 1.266 . S
Co238 O241 1.970 . S
Co238 N255 1.989 . S
Co238 O263 1.967 . S
Co238 O270 1.920 . S
Co239 O242 1.966 . S
Co239 N248 2.022 1_556 S
Co239 N256 1.993 . S
Co239 O264 1.941 . S
C240 O241 1.258 . S
C240 O242 1.263 . S
O241 Co238 1.970 . S
O241 C240 1.258 . S
O242 Co239 1.966 . S
O242 C240 1.263 . S
C243 O244 1.235 . S
C243 O270 1.289 1_655 S
O244 C243 1.235 . S
C245 C247 1.400 . S
C245 N248 1.351 . S
C245 C250 1.501 . S
C246 C247 1.387 . S
C246 N249 1.341 . S
C247 C245 1.400 . S
C247 C246 1.387 . S
N248 Co239 2.022 1_554 S
N248 C245 1.351 . S
N248 N249 1.365 . S
N249 C246 1.341 . S
N249 N248 1.365 . S
N249 H269 0.862 . S
C250 C245 1.501 . S
C250 H251 0.961 . S
C250 H252 0.961 . S
C250 H253 0.960 . S
H251 C250 0.961 . S
H252 C250 0.961 . S
H253 C250 0.960 . S
C254 N255 1.342 . S
C254 C258 1.401 . S
C254 C259 1.499 . S
N255 Co238 1.989 . S
N255 C254 1.342 . S
N255 N256 1.388 . S
N256 Co239 1.993 . S
N256 N255 1.388 . S
N256 C257 1.346 . S
C257 N256 1.346 . S
C257 C258 1.396 . S
C257 C267 1.510 1_556 S
C258 C254 1.401 . S
C258 C257 1.396 . S
C259 C254 1.499 . S
C259 H260 0.959 . S
C259 H261 0.960 1_455 S
C259 H262 0.961 . S
H260 C259 0.959 . S
H261 C259 0.960 1_655 S
H262 C259 0.961 . S
O263 Co238 1.967 . S
O263 C271 1.258 . S
O264 Co239 1.941 . S
O264 C271 1.266 . S
H265 C267 0.959 . S
H266 C267 0.961 . S
C267 C257 1.510 1_554 S
C267 H265 0.959 . S
C267 H266 0.961 . S
C267 H268 0.960 . S
H268 C267 0.960 . S
H269 N249 0.862 . S
O270 Co238 1.920 . S
O270 C243 1.289 1_455 S
C271 O263 1.258 . S
C271 O264 1.266 . S
Co272 O275 1.970 . S
Co272 N289 1.989 . S
Co272 O297 1.967 . S
Co272 O304 1.920 . S
Co273 O276 1.966 . S
Co273 N282 2.022 . S
Co273 N290 1.993 . S
Co273 O298 1.941 . S
C274 O275 1.258 . S
C274 O276 1.263 . S
O275 Co272 1.970 . S
O275 C274 1.258 . S
O276 Co273 1.966 . S
O276 C274 1.263 . S
C277 O278 1.235 . S
C277 O304 1.289 . S
O278 C277 1.235 . S
C279 C281 1.400 . S
C279 N282 1.351 . S
C279 C284 1.501 . S
C280 C281 1.387 . S
C280 N283 1.341 . S
C281 C279 1.400 . S
C281 C280 1.387 . S
N282 Co273 2.022 . S
N282 C279 1.351 . S
N282 N283 1.365 . S
N283 C280 1.341 . S
N283 N282 1.365 . S
N283 H303 0.862 . S
C284 C279 1.501 . S
C284 H285 0.961 . S
C284 H286 0.961 . S
C284 H287 0.960 . S
H285 C284 0.961 . S
H286 C284 0.961 . S
H287 C284 0.960 . S
C288 N289 1.342 . S
C288 C292 1.401 . S
C288 C293 1.499 . S
N289 Co272 1.989 . S
N289 C288 1.342 . S
N289 N290 1.388 . S
N290 Co273 1.993 . S
N290 N289 1.388 . S
N290 C291 1.346 . S
C291 N290 1.346 . S
C291 C292 1.396 . S
C291 C301 1.510 . S
C292 C288 1.401 . S
C292 C291 1.396 . S
C293 C288 1.499 . S
C293 H294 0.959 . S
C293 H295 0.960 . S
C293 H296 0.961 . S
H294 C293 0.959 . S
H295 C293 0.960 . S
H296 C293 0.961 . S
O297 Co272 1.967 . S
O297 C305 1.258 . S
O298 Co273 1.941 . S
O298 C305 1.266 . S
H299 C301 0.959 . S
H300 C301 0.961 . S
C301 C291 1.510 . S
C301 H299 0.959 . S
C301 H300 0.961 . S
C301 H302 0.960 . S
H302 C301 0.960 . S
H303 N283 0.862 . S
O304 Co272 1.920 . S
O304 C277 1.289 . S
C305 O297 1.258 . S
C305 O298 1.266 . S
Co306 O309 1.970 . S
Co306 N323 1.989 . S
Co306 O331 1.967 . S
Co306 O338 1.920 . S
Co307 O310 1.966 . S
Co307 N316 2.022 . S
Co307 N324 1.993 . S
Co307 O332 1.941 . S
C308 O309 1.258 . S
C308 O310 1.263 . S
O309 Co306 1.970 . S
O309 C308 1.258 . S
O310 Co307 1.966 . S
O310 C308 1.263 . S
C311 O312 1.235 . S
C311 O338 1.289 1_455 S
O312 C311 1.235 . S
C313 C315 1.400 . S
C313 N316 1.351 . S
C313 C318 1.501 . S
C314 C315 1.387 . S
C314 N317 1.341 . S
C315 C313 1.400 . S
C315 C314 1.387 . S
N316 Co307 2.022 . S
N316 C313 1.351 . S
N316 N317 1.365 . S
N317 C314 1.341 . S
N317 N316 1.365 . S
N317 H337 0.862 . S
C318 C313 1.501 . S
C318 H319 0.961 . S
C318 H320 0.961 . S
C318 H321 0.960 . S
H319 C318 0.961 . S
H320 C318 0.961 . S
H321 C318 0.960 . S
C322 N323 1.342 . S
C322 C326 1.401 . S
C322 C327 1.499 . S
N323 Co306 1.989 . S
N323 C322 1.342 . S
N323 N324 1.388 . S
N324 Co307 1.993 . S
N324 N323 1.388 . S
N324 C325 1.346 . S
C325 N324 1.346 . S
C325 C326 1.396 . S
C325 C335 1.510 . S
C326 C322 1.401 . S
C326 C325 1.396 . S
C327 C322 1.499 . S
C327 H328 0.959 . S
C327 H329 0.960 1_655 S
C327 H330 0.961 . S
H328 C327 0.959 . S
H329 C327 0.960 1_455 S
H330 C327 0.961 . S
O331 Co306 1.967 . S
O331 C339 1.258 . S
O332 Co307 1.941 . S
O332 C339 1.266 . S
H333 C335 0.959 . S
H334 C335 0.961 . S
C335 C325 1.510 . S
C335 H333 0.959 . S
C335 H334 0.961 . S
C335 H336 0.960 . S
H336 C335 0.960 . S
H337 N317 0.862 . S
O338 Co306 1.920 . S
O338 C311 1.289 1_655 S
C339 O331 1.258 . S
C339 O332 1.266 . S
Co340 O343 1.970 . S
Co340 N357 1.989 . S
Co340 O365 1.967 . S
Co340 O372 1.920 . S
Co341 O344 1.966 . S
Co341 N350 2.022 . S
Co341 N358 1.993 . S
Co341 O366 1.941 . S
C342 O343 1.258 . S
C342 O344 1.263 . S
O343 Co340 1.970 . S
O343 C342 1.258 . S
O344 Co341 1.966 . S
O344 C342 1.263 . S
C345 O346 1.235 . S
C345 O372 1.289 . S
O346 C345 1.235 . S
C347 C349 1.400 . S
C347 N350 1.351 . S
C347 C352 1.501 . S
C348 C349 1.387 . S
C348 N351 1.341 . S
C349 C347 1.400 . S
C349 C348 1.387 . S
N350 Co341 2.022 . S
N350 C347 1.351 . S
N350 N351 1.365 . S
N351 C348 1.341 . S
N351 N350 1.365 . S
N351 H371 0.862 . S
C352 C347 1.501 . S
C352 H353 0.961 . S
C352 H354 0.961 . S
C352 H355 0.960 . S
H353 C352 0.961 . S
H354 C352 0.961 . S
H355 C352 0.960 . S
C356 N357 1.342 . S
C356 C360 1.401 . S
C356 C361 1.499 . S
N357 Co340 1.989 . S
N357 C356 1.342 . S
N357 N358 1.388 . S
N358 Co341 1.993 . S
N358 N357 1.388 . S
N358 C359 1.346 . S
C359 N358 1.346 . S
C359 C360 1.396 . S
C359 C369 1.510 . S
C360 C356 1.401 . S
C360 C359 1.396 . S
C361 C356 1.499 . S
C361 H362 0.959 . S
C361 H363 0.960 . S
C361 H364 0.961 . S
H362 C361 0.959 . S
H363 C361 0.960 . S
H364 C361 0.961 . S
O365 Co340 1.967 . S
O365 C373 1.258 . S
O366 Co341 1.941 . S
O366 C373 1.266 . S
H367 C369 0.959 . S
H368 C369 0.961 . S
C369 C359 1.510 . S
C369 H367 0.959 . S
C369 H368 0.961 . S
C369 H370 0.960 . S
H370 C369 0.960 . S
H371 N351 0.862 . S
O372 Co340 1.920 . S
O372 C345 1.289 . S
C373 O365 1.258 . S
C373 O366 1.266 . S
Co374 O377 1.970 . S
Co374 N391 1.989 . S
Co374 O399 1.967 . S
Co374 O406 1.920 . S
Co375 O378 1.966 . S
Co375 N384 2.022 1_556 S
Co375 N392 1.993 . S
Co375 O400 1.941 . S
C376 O377 1.258 . S
C376 O378 1.263 . S
O377 Co374 1.970 . S
O377 C376 1.258 . S
O378 Co375 1.966 . S
O378 C376 1.263 . S
C379 O380 1.235 . S
C379 O406 1.289 . S
O380 C379 1.235 . S
C381 C383 1.400 . S
C381 N384 1.351 . S
C381 C386 1.501 . S
C382 C383 1.387 . S
C382 N385 1.341 . S
C383 C381 1.400 . S
C383 C382 1.387 . S
N384 Co375 2.022 1_554 S
N384 C381 1.351 . S
N384 N385 1.365 . S
N385 C382 1.341 . S
N385 N384 1.365 . S
N385 H405 0.862 . S
C386 C381 1.501 . S
C386 H387 0.961 . S
C386 H388 0.961 . S
C386 H389 0.960 . S
H387 C386 0.961 . S
H388 C386 0.961 . S
H389 C386 0.960 . S
C390 N391 1.342 . S
C390 C394 1.401 . S
C390 C395 1.499 . S
N391 Co374 1.989 . S
N391 C390 1.342 . S
N391 N392 1.388 . S
N392 Co375 1.993 . S
N392 N391 1.388 . S
N392 C393 1.346 . S
C393 N392 1.346 . S
C393 C394 1.396 . S
C393 C403 1.510 1_556 S
C394 C390 1.401 . S
C394 C393 1.396 . S
C395 C390 1.499 . S
C395 H396 0.959 . S
C395 H397 0.960 . S
C395 H398 0.961 . S
H396 C395 0.959 . S
H397 C395 0.960 . S
H398 C395 0.961 . S
O399 Co374 1.967 . S
O399 C407 1.258 . S
O400 Co375 1.941 . S
O400 C407 1.266 . S
H401 C403 0.959 . S
H402 C403 0.961 . S
C403 C393 1.510 1_554 S
C403 H401 0.959 . S
C403 H402 0.961 . S
C403 H404 0.960 . S
H404 C403 0.960 . S
H405 N385 0.862 . S
O406 Co374 1.920 . S
O406 C379 1.289 . S
C407 O399 1.258 . S
C407 O400 1.266 . S
Co408 O411 1.970 . S
Co408 N425 1.989 . S
Co408 O433 1.967 . S
Co408 O440 1.920 . S
Co409 O412 1.966 . S
Co409 N418 2.022 . S
Co409 N426 1.993 . S
Co409 O434 1.941 . S
C410 O411 1.258 . S
C410 O412 1.263 . S
O411 Co408 1.970 . S
O411 C410 1.258 . S
O412 Co409 1.966 . S
O412 C410 1.263 . S
C413 O414 1.235 . S
C413 O440 1.289 . S
O414 C413 1.235 . S
C415 C417 1.400 . S
C415 N418 1.351 . S
C415 C420 1.501 . S
C416 C417 1.387 . S
C416 N419 1.341 . S
C417 C415 1.400 . S
C417 C416 1.387 . S
N418 Co409 2.022 . S
N418 C415 1.351 . S
N418 N419 1.365 . S
N419 C416 1.341 . S
N419 N418 1.365 . S
N419 H439 0.862 . S
C420 C415 1.501 . S
C420 H421 0.961 . S
C420 H422 0.961 . S
C420 H423 0.960 . S
H421 C420 0.961 . S
H422 C420 0.961 . S
H423 C420 0.960 . S
C424 N425 1.342 . S
C424 C428 1.401 . S
C424 C429 1.499 . S
N425 Co408 1.989 . S
N425 C424 1.342 . S
N425 N426 1.388 . S
N426 Co409 1.993 . S
N426 N425 1.388 . S
N426 C427 1.346 . S
C427 N426 1.346 . S
C427 C428 1.396 . S
C427 C437 1.510 . S
C428 C424 1.401 . S
C428 C427 1.396 . S
C429 C424 1.499 . S
C429 H430 0.959 . S
C429 H431 0.960 . S
C429 H432 0.961 . S
H430 C429 0.959 . S
H431 C429 0.960 . S
H432 C429 0.961 . S
O433 Co408 1.967 . S
O433 C441 1.258 . S
O434 Co409 1.941 . S
O434 C441 1.266 . S
H435 C437 0.959 . S
H436 C437 0.961 . S
C437 C427 1.510 . S
C437 H435 0.959 . S
C437 H436 0.961 . S
C437 H438 0.960 . S
H438 C437 0.960 . S
H439 N419 0.862 . S
O440 Co408 1.920 . S
O440 C413 1.289 . S
C441 O433 1.258 . S
C441 O434 1.266 . S
Co442 O445 1.970 . S
Co442 N459 1.989 . S
Co442 O467 1.967 . S
Co442 O474 1.920 . S
Co443 O446 1.966 . S
Co443 N452 2.022 . S
Co443 N460 1.993 . S
Co443 O468 1.941 . S
C444 O445 1.258 . S
C444 O446 1.263 . S
O445 Co442 1.970 . S
O445 C444 1.258 . S
O446 Co443 1.966 . S
O446 C444 1.263 . S
C447 O448 1.235 . S
C447 O474 1.289 . S
O448 C447 1.235 . S
C449 C451 1.400 . S
C449 N452 1.351 . S
C449 C454 1.501 . S
C450 C451 1.387 . S
C450 N453 1.341 . S
C451 C449 1.400 . S
C451 C450 1.387 . S
N452 Co443 2.022 . S
N452 C449 1.351 . S
N452 N453 1.365 . S
N453 C450 1.341 . S
N453 N452 1.365 . S
N453 H473 0.862 . S
C454 C449 1.501 . S
C454 H455 0.961 . S
C454 H456 0.961 . S
C454 H457 0.960 . S
H455 C454 0.961 . S
H456 C454 0.961 . S
H457 C454 0.960 . S
C458 N459 1.342 . S
C458 C462 1.401 . S
C458 C463 1.499 . S
N459 Co442 1.989 . S
N459 C458 1.342 . S
N459 N460 1.388 . S
N460 Co443 1.993 . S
N460 N459 1.388 . S
N460 C461 1.346 . S
C461 N460 1.346 . S
C461 C462 1.396 . S
C461 C471 1.510 . S
C462 C458 1.401 . S
C462 C461 1.396 . S
C463 C458 1.499 . S
C463 H464 0.959 . S
C463 H465 0.960 . S
C463 H466 0.961 . S
H464 C463 0.959 . S
H465 C463 0.960 . S
H466 C463 0.961 . S
O467 Co442 1.967 . S
O467 C475 1.258 . S
O468 Co443 1.941 . S
O468 C475 1.266 . S
H469 C471 0.959 . S
H470 C471 0.961 . S
C471 C461 1.510 . S
C471 H469 0.959 . S
C471 H470 0.961 . S
C471 H472 0.960 . S
H472 C471 0.960 . S
H473 N453 0.862 . S
O474 Co442 1.920 . S
O474 C447 1.289 . S
C475 O467 1.258 . S
C475 O468 1.266 . S
Co476 O479 1.970 . S
Co476 N493 1.989 . S
Co476 O501 1.967 . S
Co476 O508 1.920 . S
Co477 O480 1.966 . S
Co477 N486 2.022 . S
Co477 N494 1.993 . S
Co477 O502 1.941 . S
C478 O479 1.258 . S
C478 O480 1.263 . S
O479 Co476 1.970 . S
O479 C478 1.258 . S
O480 Co477 1.966 . S
O480 C478 1.263 . S
C481 O482 1.235 . S
C481 O508 1.289 . S
O482 C481 1.235 . S
C483 C485 1.400 . S
C483 N486 1.351 . S
C483 C488 1.501 . S
C484 C485 1.387 . S
C484 N487 1.341 . S
C485 C483 1.400 . S
C485 C484 1.387 . S
N486 Co477 2.022 . S
N486 C483 1.351 . S
N486 N487 1.365 . S
N487 C484 1.341 . S
N487 N486 1.365 . S
N487 H507 0.862 . S
C488 C483 1.501 . S
C488 H489 0.961 . S
C488 H490 0.961 . S
C488 H491 0.960 . S
H489 C488 0.961 . S
H490 C488 0.961 . S
H491 C488 0.960 . S
C492 N493 1.342 . S
C492 C496 1.401 . S
C492 C497 1.499 . S
N493 Co476 1.989 . S
N493 C492 1.342 . S
N493 N494 1.388 . S
N494 Co477 1.993 . S
N494 N493 1.388 . S
N494 C495 1.346 . S
C495 N494 1.346 . S
C495 C496 1.396 . S
C495 C505 1.510 . S
C496 C492 1.401 . S
C496 C495 1.396 . S
C497 C492 1.499 . S
C497 H498 0.959 . S
C497 H499 0.960 . S
C497 H500 0.961 . S
H498 C497 0.959 . S
H499 C497 0.960 . S
H500 C497 0.961 . S
O501 Co476 1.967 . S
O501 C509 1.258 . S
O502 Co477 1.941 . S
O502 C509 1.266 . S
H503 C505 0.959 . S
H504 C505 0.961 . S
C505 C495 1.510 . S
C505 H503 0.959 . S
C505 H504 0.961 . S
C505 H506 0.960 . S
H506 C505 0.960 . S
H507 N487 0.862 . S
O508 Co476 1.920 . S
O508 C481 1.289 . S
C509 O501 1.258 . S
C509 O502 1.266 . S
Co510 O513 1.970 . S
Co510 N527 1.989 . S
Co510 O535 1.967 . S
Co510 O542 1.920 . S
Co511 O514 1.966 . S
Co511 N520 2.022 1_554 S
Co511 N528 1.993 . S
Co511 O536 1.941 . S
C512 O513 1.258 . S
C512 O514 1.263 . S
O513 Co510 1.970 . S
O513 C512 1.258 . S
O514 Co511 1.966 . S
O514 C512 1.263 . S
C515 O516 1.235 . S
C515 O542 1.289 1_455 S
O516 C515 1.235 . S
C517 C519 1.400 . S
C517 N520 1.351 . S
C517 C522 1.501 . S
C518 C519 1.387 . S
C518 N521 1.341 . S
C519 C517 1.400 . S
C519 C518 1.387 . S
N520 Co511 2.022 1_556 S
N520 C517 1.351 . S
N520 N521 1.365 . S
N521 C518 1.341 . S
N521 N520 1.365 . S
N521 H541 0.862 . S
C522 C517 1.501 . S
C522 H523 0.961 . S
C522 H524 0.961 . S
C522 H525 0.960 . S
H523 C522 0.961 . S
H524 C522 0.961 . S
H525 C522 0.960 . S
C526 N527 1.342 . S
C526 C530 1.401 . S
C526 C531 1.499 . S
N527 Co510 1.989 . S
N527 C526 1.342 . S
N527 N528 1.388 . S
N528 Co511 1.993 . S
N528 N527 1.388 . S
N528 C529 1.346 . S
C529 N528 1.346 . S
C529 C530 1.396 . S
C529 C539 1.510 1_554 S
C530 C526 1.401 . S
C530 C529 1.396 . S
C531 C526 1.499 . S
C531 H532 0.959 . S
C531 H533 0.960 1_655 S
C531 H534 0.961 . S
H532 C531 0.959 . S
H533 C531 0.960 1_455 S
H534 C531 0.961 . S
O535 Co510 1.967 . S
O535 C543 1.258 . S
O536 Co511 1.941 . S
O536 C543 1.266 . S
H537 C539 0.959 . S
H538 C539 0.961 . S
C539 C529 1.510 1_556 S
C539 H537 0.959 . S
C539 H538 0.961 . S
C539 H540 0.960 . S
H540 C539 0.960 . S
H541 N521 0.862 . S
O542 Co510 1.920 . S
O542 C515 1.289 1_655 S
C543 O535 1.258 . S
C543 O536 1.266 . S
Co544 O547 1.970 . S
Co544 N561 1.989 . S
Co544 O569 1.967 . S
Co544 O576 1.920 . S
Co545 O548 1.966 . S
Co545 N554 2.022 . S
Co545 N562 1.993 . S
Co545 O570 1.941 . S
C546 O547 1.258 . S
C546 O548 1.263 . S
O547 Co544 1.970 . S
O547 C546 1.258 . S
O548 Co545 1.966 . S
O548 C546 1.263 . S
C549 O550 1.235 . S
C549 O576 1.289 . S
O550 C549 1.235 . S
C551 C553 1.400 . S
C551 N554 1.351 . S
C551 C556 1.501 . S
C552 C553 1.387 . S
C552 N555 1.341 . S
C553 C551 1.400 . S
C553 C552 1.387 . S
N554 Co545 2.022 . S
N554 C551 1.351 . S
N554 N555 1.365 . S
N555 C552 1.341 . S
N555 N554 1.365 . S
N555 H575 0.862 . S
C556 C551 1.501 . S
C556 H557 0.961 . S
C556 H558 0.961 . S
C556 H559 0.960 . S
H557 C556 0.961 . S
H558 C556 0.961 . S
H559 C556 0.960 . S
C560 N561 1.342 . S
C560 C564 1.401 . S
C560 C565 1.499 . S
N561 Co544 1.989 . S
N561 C560 1.342 . S
N561 N562 1.388 . S
N562 Co545 1.993 . S
N562 N561 1.388 . S
N562 C563 1.346 . S
C563 N562 1.346 . S
C563 C564 1.396 . S
C563 C573 1.510 . S
C564 C560 1.401 . S
C564 C563 1.396 . S
C565 C560 1.499 . S
C565 H566 0.959 . S
C565 H567 0.960 . S
C565 H568 0.961 . S
H566 C565 0.959 . S
H567 C565 0.960 . S
H568 C565 0.961 . S
O569 Co544 1.967 . S
O569 C577 1.258 . S
O570 Co545 1.941 . S
O570 C577 1.266 . S
H571 C573 0.959 . S
H572 C573 0.961 . S
C573 C563 1.510 . S
C573 H571 0.959 . S
C573 H572 0.961 . S
C573 H574 0.960 . S
H574 C573 0.960 . S
H575 N555 0.862 . S
O576 Co544 1.920 . S
O576 C549 1.289 . S
C577 O569 1.258 . S
C577 O570 1.266 . S
Co578 O581 1.970 . S
Co578 N595 1.989 . S
Co578 O603 1.967 . S
Co578 O610 1.920 . S
Co579 O582 1.966 . S
Co579 N588 2.022 1_554 S
Co579 N596 1.993 . S
Co579 O604 1.941 . S
C580 O581 1.258 . S
C580 O582 1.263 . S
O581 Co578 1.970 . S
O581 C580 1.258 . S
O582 Co579 1.966 . S
O582 C580 1.263 . S
C583 O584 1.235 . S
C583 O610 1.289 . S
O584 C583 1.235 . S
C585 C587 1.400 . S
C585 N588 1.351 . S
C585 C590 1.501 . S
C586 C587 1.387 . S
C586 N589 1.341 . S
C587 C585 1.400 . S
C587 C586 1.387 . S
N588 Co579 2.022 1_556 S
N588 C585 1.351 . S
N588 N589 1.365 . S
N589 C586 1.341 . S
N589 N588 1.365 . S
N589 H609 0.862 . S
C590 C585 1.501 . S
C590 H591 0.961 . S
C590 H592 0.961 . S
C590 H593 0.960 . S
H591 C590 0.961 . S
H592 C590 0.961 . S
H593 C590 0.960 . S
C594 N595 1.342 . S
C594 C598 1.401 . S
C594 C599 1.499 . S
N595 Co578 1.989 . S
N595 C594 1.342 . S
N595 N596 1.388 . S
N596 Co579 1.993 . S
N596 N595 1.388 . S
N596 C597 1.346 . S
C597 N596 1.346 . S
C597 C598 1.396 . S
C597 C607 1.510 1_554 S
C598 C594 1.401 . S
C598 C597 1.396 . S
C599 C594 1.499 . S
C599 H600 0.959 . S
C599 H601 0.960 . S
C599 H602 0.961 . S
H600 C599 0.959 . S
H601 C599 0.960 . S
H602 C599 0.961 . S
O603 Co578 1.967 . S
O603 C611 1.258 . S
O604 Co579 1.941 . S
O604 C611 1.266 . S
H605 C607 0.959 . S
H606 C607 0.961 . S
C607 C597 1.510 1_556 S
C607 H605 0.959 . S
C607 H606 0.961 . S
C607 H608 0.960 . S
H608 C607 0.960 . S
H609 N589 0.862 . S
O610 Co578 1.920 . S
O610 C583 1.289 . S
C611 O603 1.258 . S
C611 O604 1.266 . S
Co612 O615 1.970 . S
Co612 N629 1.989 . S
Co612 O637 1.967 . S
Co612 O644 1.920 . S
Co613 O616 1.966 . S
Co613 N622 2.022 . S
Co613 N630 1.993 . S
Co613 O638 1.941 . S
C614 O615 1.258 . S
C614 O616 1.263 . S
O615 Co612 1.970 . S
O615 C614 1.258 . S
O616 Co613 1.966 . S
O616 C614 1.263 . S
C617 O618 1.235 . S
C617 O644 1.289 . S
O618 C617 1.235 . S
C619 C621 1.400 . S
C619 N622 1.351 . S
C619 C624 1.501 . S
C620 C621 1.387 . S
C620 N623 1.341 . S
C621 C619 1.400 . S
C621 C620 1.387 . S
N622 Co613 2.022 . S
N622 C619 1.351 . S
N622 N623 1.365 . S
N623 C620 1.341 . S
N623 N622 1.365 . S
N623 H643 0.862 . S
C624 C619 1.501 . S
C624 H625 0.961 . S
C624 H626 0.961 . S
C624 H627 0.960 . S
H625 C624 0.961 . S
H626 C624 0.961 . S
H627 C624 0.960 . S
C628 N629 1.342 . S
C628 C632 1.401 . S
C628 C633 1.499 . S
N629 Co612 1.989 . S
N629 C628 1.342 . S
N629 N630 1.388 . S
N630 Co613 1.993 . S
N630 N629 1.388 . S
N630 C631 1.346 . S
C631 N630 1.346 . S
C631 C632 1.396 . S
C631 C641 1.510 . S
C632 C628 1.401 . S
C632 C631 1.396 . S
C633 C628 1.499 . S
C633 H634 0.959 . S
C633 H635 0.960 . S
C633 H636 0.961 . S
H634 C633 0.959 . S
H635 C633 0.960 . S
H636 C633 0.961 . S
O637 Co612 1.967 . S
O637 C645 1.258 . S
O638 Co613 1.941 . S
O638 C645 1.266 . S
H639 C641 0.959 . S
H640 C641 0.961 . S
C641 C631 1.510 . S
C641 H639 0.959 . S
C641 H640 0.961 . S
C641 H642 0.960 . S
H642 C641 0.960 . S
H643 N623 0.862 . S
O644 Co612 1.920 . S
O644 C617 1.289 . S
C645 O637 1.258 . S
C645 O638 1.266 . S
Co646 O649 1.970 . S
Co646 N663 1.989 . S
Co646 O671 1.967 . S
Co646 O678 1.920 . S
Co647 O650 1.966 . S
Co647 N656 2.022 . S
Co647 N664 1.993 . S
Co647 O672 1.941 . S
C648 O649 1.258 . S
C648 O650 1.263 . S
O649 Co646 1.970 . S
O649 C648 1.258 . S
O650 Co647 1.966 . S
O650 C648 1.263 . S
C651 O652 1.235 . S
C651 O678 1.289 1_455 S
O652 C651 1.235 . S
C653 C655 1.400 . S
C653 N656 1.351 . S
C653 C658 1.501 . S
C654 C655 1.387 . S
C654 N657 1.341 . S
C655 C653 1.400 . S
C655 C654 1.387 . S
N656 Co647 2.022 . S
N656 C653 1.351 . S
N656 N657 1.365 . S
N657 C654 1.341 . S
N657 N656 1.365 . S
N657 H677 0.862 . S
C658 C653 1.501 . S
C658 H659 0.961 . S
C658 H660 0.961 . S
C658 H661 0.960 . S
H659 C658 0.961 . S
H660 C658 0.961 . S
H661 C658 0.960 . S
C662 N663 1.342 . S
C662 C666 1.401 . S
C662 C667 1.499 . S
N663 Co646 1.989 . S
N663 C662 1.342 . S
N663 N664 1.388 . S
N664 Co647 1.993 . S
N664 N663 1.388 . S
N664 C665 1.346 . S
C665 N664 1.346 . S
C665 C666 1.396 . S
C665 C675 1.510 . S
C666 C662 1.401 . S
C666 C665 1.396 . S
C667 C662 1.499 . S
C667 H668 0.959 . S
C667 H669 0.960 1_655 S
C667 H670 0.961 . S
H668 C667 0.959 . S
H669 C667 0.960 1_455 S
H670 C667 0.961 . S
O671 Co646 1.967 . S
O671 C679 1.258 . S
O672 Co647 1.941 . S
O672 C679 1.266 . S
H673 C675 0.959 . S
H674 C675 0.961 . S
C675 C665 1.510 . S
C675 H673 0.959 . S
C675 H674 0.961 . S
C675 H676 0.960 . S
H676 C675 0.960 . S
H677 N657 0.862 . S
O678 Co646 1.920 . S
O678 C651 1.289 1_655 S
C679 O671 1.258 . S
C679 O672 1.266 . S
Co680 O683 1.970 . S
Co680 N697 1.989 . S
Co680 O705 1.967 . S
Co680 O712 1.920 . S
Co681 O684 1.966 . S
Co681 N690 2.022 . S
Co681 N698 1.993 . S
Co681 O706 1.941 . S
C682 O683 1.258 . S
C682 O684 1.263 . S
O683 Co680 1.970 . S
O683 C682 1.258 . S
O684 Co681 1.966 . S
O684 C682 1.263 . S
C685 O686 1.235 . S
C685 O712 1.289 . S
O686 C685 1.235 . S
C687 C689 1.400 . S
C687 N690 1.351 . S
C687 C692 1.501 . S
C688 C689 1.387 . S
C688 N691 1.341 . S
C689 C687 1.400 . S
C689 C688 1.387 . S
N690 Co681 2.022 . S
N690 C687 1.351 . S
N690 N691 1.365 . S
N691 C688 1.341 . S
N691 N690 1.365 . S
N691 H711 0.862 . S
C692 C687 1.501 . S
C692 H693 0.961 . S
C692 H694 0.961 . S
C692 H695 0.960 . S
H693 C692 0.961 . S
H694 C692 0.961 . S
H695 C692 0.960 . S
C696 N697 1.342 . S
C696 C700 1.401 . S
C696 C701 1.499 . S
N697 Co680 1.989 . S
N697 C696 1.342 . S
N697 N698 1.388 . S
N698 Co681 1.993 . S
N698 N697 1.388 . S
N698 C699 1.346 . S
C699 N698 1.346 . S
C699 C700 1.396 . S
C699 C709 1.510 . S
C700 C696 1.401 . S
C700 C699 1.396 . S
C701 C696 1.499 . S
C701 H702 0.959 . S
C701 H703 0.960 . S
C701 H704 0.961 . S
H702 C701 0.959 . S
H703 C701 0.960 . S
H704 C701 0.961 . S
O705 Co680 1.967 . S
O705 C713 1.258 . S
O706 Co681 1.941 . S
O706 C713 1.266 . S
H707 C709 0.959 . S
H708 C709 0.961 . S
C709 C699 1.510 . S
C709 H707 0.959 . S
C709 H708 0.961 . S
C709 H710 0.960 . S
H710 C709 0.960 . S
H711 N691 0.862 . S
O712 Co680 1.920 . S
O712 C685 1.289 . S
C713 O705 1.258 . S
C713 O706 1.266 . S
Co714 O717 1.970 . S
Co714 N731 1.989 . S
Co714 O739 1.967 . S
Co714 O746 1.920 . S
Co715 O718 1.966 . S
Co715 N724 2.022 1_556 S
Co715 N732 1.993 . S
Co715 O740 1.941 . S
C716 O717 1.258 . S
C716 O718 1.263 . S
O717 Co714 1.970 . S
O717 C716 1.258 . S
O718 Co715 1.966 . S
O718 C716 1.263 . S
C719 O720 1.235 . S
C719 O746 1.289 1_455 S
O720 C719 1.235 . S
C721 C723 1.400 . S
C721 N724 1.351 . S
C721 C726 1.501 . S
C722 C723 1.387 . S
C722 N725 1.341 . S
C723 C721 1.400 . S
C723 C722 1.387 . S
N724 Co715 2.022 1_554 S
N724 C721 1.351 . S
N724 N725 1.365 . S
N725 C722 1.341 . S
N725 N724 1.365 . S
N725 H745 0.862 . S
C726 C721 1.501 . S
C726 H727 0.961 . S
C726 H728 0.961 . S
C726 H729 0.960 . S
H727 C726 0.961 . S
H728 C726 0.961 . S
H729 C726 0.960 . S
C730 N731 1.342 . S
C730 C734 1.401 . S
C730 C735 1.499 . S
N731 Co714 1.989 . S
N731 C730 1.342 . S
N731 N732 1.388 . S
N732 Co715 1.993 . S
N732 N731 1.388 . S
N732 C733 1.346 . S
C733 N732 1.346 . S
C733 C734 1.396 . S
C733 C743 1.510 1_556 S
C734 C730 1.401 . S
C734 C733 1.396 . S
C735 C730 1.499 . S
C735 H736 0.959 . S
C735 H737 0.960 1_655 S
C735 H738 0.961 . S
H736 C735 0.959 . S
H737 C735 0.960 1_455 S
H738 C735 0.961 . S
O739 Co714 1.967 . S
O739 C747 1.258 . S
O740 Co715 1.941 . S
O740 C747 1.266 . S
H741 C743 0.959 . S
H742 C743 0.961 . S
C743 C733 1.510 1_554 S
C743 H741 0.959 . S
C743 H742 0.961 . S
C743 H744 0.960 . S
H744 C743 0.960 . S
H745 N725 0.862 . S
O746 Co714 1.920 . S
O746 C719 1.289 1_655 S
C747 O739 1.258 . S
C747 O740 1.266 . S
Co748 O751 1.970 . S
Co748 N765 1.989 . S
Co748 O773 1.967 . S
Co748 O780 1.920 . S
Co749 O752 1.966 . S
Co749 N758 2.022 . S
Co749 N766 1.993 . S
Co749 O774 1.941 . S
C750 O751 1.258 . S
C750 O752 1.263 . S
O751 Co748 1.970 . S
O751 C750 1.258 . S
O752 Co749 1.966 . S
O752 C750 1.263 . S
C753 O754 1.235 . S
C753 O780 1.289 . S
O754 C753 1.235 . S
C755 C757 1.400 . S
C755 N758 1.351 . S
C755 C760 1.501 . S
C756 C757 1.387 . S
C756 N759 1.341 . S
C757 C755 1.400 . S
C757 C756 1.387 . S
N758 Co749 2.022 . S
N758 C755 1.351 . S
N758 N759 1.365 . S
N759 C756 1.341 . S
N759 N758 1.365 . S
N759 H779 0.862 . S
C760 C755 1.501 . S
C760 H761 0.961 . S
C760 H762 0.961 . S
C760 H763 0.960 . S
H761 C760 0.961 . S
H762 C760 0.961 . S
H763 C760 0.960 . S
C764 N765 1.342 . S
C764 C768 1.401 . S
C764 C769 1.499 . S
N765 Co748 1.989 . S
N765 C764 1.342 . S
N765 N766 1.388 . S
N766 Co749 1.993 . S
N766 N765 1.388 . S
N766 C767 1.346 . S
C767 N766 1.346 . S
C767 C768 1.396 . S
C767 C777 1.510 . S
C768 C764 1.401 . S
C768 C767 1.396 . S
C769 C764 1.499 . S
C769 H770 0.959 . S
C769 H771 0.960 . S
C769 H772 0.961 . S
H770 C769 0.959 . S
H771 C769 0.960 . S
H772 C769 0.961 . S
O773 Co748 1.967 . S
O773 C781 1.258 . S
O774 Co749 1.941 . S
O774 C781 1.266 . S
H775 C777 0.959 . S
H776 C777 0.961 . S
C777 C767 1.510 . S
C777 H775 0.959 . S
C777 H776 0.961 . S
C777 H778 0.960 . S
H778 C777 0.960 . S
H779 N759 0.862 . S
O780 Co748 1.920 . S
O780 C753 1.289 . S
C781 O773 1.258 . S
C781 O774 1.266 . S
Co782 O785 1.970 . S
Co782 N799 1.989 . S
Co782 O807 1.967 . S
Co782 O814 1.920 . S
Co783 O786 1.966 . S
Co783 N792 2.022 . S
Co783 N800 1.993 . S
Co783 O808 1.941 . S
C784 O785 1.258 . S
C784 O786 1.263 . S
O785 Co782 1.970 . S
O785 C784 1.258 . S
O786 Co783 1.966 . S
O786 C784 1.263 . S
C787 O788 1.235 . S
C787 O814 1.289 . S
O788 C787 1.235 . S
C789 C791 1.400 . S
C789 N792 1.351 . S
C789 C794 1.501 . S
C790 C791 1.387 . S
C790 N793 1.341 . S
C791 C789 1.400 . S
C791 C790 1.387 . S
N792 Co783 2.022 . S
N792 C789 1.351 . S
N792 N793 1.365 . S
N793 C790 1.341 . S
N793 N792 1.365 . S
N793 H813 0.862 . S
C794 C789 1.501 . S
C794 H795 0.961 . S
C794 H796 0.961 . S
C794 H797 0.960 . S
H795 C794 0.961 . S
H796 C794 0.961 . S
H797 C794 0.960 . S
C798 N799 1.342 . S
C798 C802 1.401 . S
C798 C803 1.499 . S
N799 Co782 1.989 . S
N799 C798 1.342 . S
N799 N800 1.388 . S
N800 Co783 1.993 . S
N800 N799 1.388 . S
N800 C801 1.346 . S
C801 N800 1.346 . S
C801 C802 1.396 . S
C801 C811 1.510 . S
C802 C798 1.401 . S
C802 C801 1.396 . S
C803 C798 1.499 . S
C803 H804 0.959 . S
C803 H805 0.960 . S
C803 H806 0.961 . S
H804 C803 0.959 . S
H805 C803 0.960 . S
H806 C803 0.961 . S
O807 Co782 1.967 . S
O807 C815 1.258 . S
O808 Co783 1.941 . S
O808 C815 1.266 . S
H809 C811 0.959 . S
H810 C811 0.961 . S
C811 C801 1.510 . S
C811 H809 0.959 . S
C811 H810 0.961 . S
C811 H812 0.960 . S
H812 C811 0.960 . S
H813 N793 0.862 . S
O814 Co782 1.920 . S
O814 C787 1.289 . S
C815 O807 1.258 . S
C815 O808 1.266 . S
Co816 O819 1.970 . S
Co816 N833 1.989 . S
Co816 O841 1.967 . S
Co816 O848 1.920 . S
Co817 O820 1.966 . S
Co817 N826 2.022 . S
Co817 N834 1.993 . S
Co817 O842 1.941 . S
C818 O819 1.258 . S
C818 O820 1.263 . S
O819 Co816 1.970 . S
O819 C818 1.258 . S
O820 Co817 1.966 . S
O820 C818 1.263 . S
C821 O822 1.235 . S
C821 O848 1.289 . S
O822 C821 1.235 . S
C823 C825 1.400 . S
C823 N826 1.351 . S
C823 C828 1.501 . S
C824 C825 1.387 . S
C824 N827 1.341 . S
C825 C823 1.400 . S
C825 C824 1.387 . S
N826 Co817 2.022 . S
N826 C823 1.351 . S
N826 N827 1.365 . S
N827 C824 1.341 . S
N827 N826 1.365 . S
N827 H847 0.862 . S
C828 C823 1.501 . S
C828 H829 0.961 . S
C828 H830 0.961 . S
C828 H831 0.960 . S
H829 C828 0.961 . S
H830 C828 0.961 . S
H831 C828 0.960 . S
C832 N833 1.342 . S
C832 C836 1.401 . S
C832 C837 1.499 . S
N833 Co816 1.989 . S
N833 C832 1.342 . S
N833 N834 1.388 . S
N834 Co817 1.993 . S
N834 N833 1.388 . S
N834 C835 1.346 . S
C835 N834 1.346 . S
C835 C836 1.396 . S
C835 C845 1.510 . S
C836 C832 1.401 . S
C836 C835 1.396 . S
C837 C832 1.499 . S
C837 H838 0.959 . S
C837 H839 0.960 . S
C837 H840 0.961 . S
H838 C837 0.959 . S
H839 C837 0.960 . S
H840 C837 0.961 . S
O841 Co816 1.967 . S
O841 C849 1.258 . S
O842 Co817 1.941 . S
O842 C849 1.266 . S
H843 C845 0.959 . S
H844 C845 0.961 . S
C845 C835 1.510 . S
C845 H843 0.959 . S
C845 H844 0.961 . S
C845 H846 0.960 . S
H846 C845 0.960 . S
H847 N827 0.862 . S
O848 Co816 1.920 . S
O848 C821 1.289 . S
C849 O841 1.258 . S
C849 O842 1.266 . S
Co850 O853 1.970 . S
Co850 N867 1.989 . S
Co850 O875 1.967 . S
Co850 O882 1.920 . S
Co851 O854 1.966 . S
Co851 N860 2.022 1_556 S
Co851 N868 1.993 . S
Co851 O876 1.941 . S
C852 O853 1.258 . S
C852 O854 1.263 . S
O853 Co850 1.970 . S
O853 C852 1.258 . S
O854 Co851 1.966 . S
O854 C852 1.263 . S
C855 O856 1.235 . S
C855 O882 1.289 . S
O856 C855 1.235 . S
C857 C859 1.400 . S
C857 N860 1.351 . S
C857 C862 1.501 . S
C858 C859 1.387 . S
C858 N861 1.341 . S
C859 C857 1.400 . S
C859 C858 1.387 . S
N860 Co851 2.022 1_554 S
N860 C857 1.351 . S
N860 N861 1.365 . S
N861 C858 1.341 . S
N861 N860 1.365 . S
N861 H881 0.862 . S
C862 C857 1.501 . S
C862 H863 0.961 . S
C862 H864 0.961 . S
C862 H865 0.960 . S
H863 C862 0.961 . S
H864 C862 0.961 . S
H865 C862 0.960 . S
C866 N867 1.342 . S
C866 C870 1.401 . S
C866 C871 1.499 . S
N867 Co850 1.989 . S
N867 C866 1.342 . S
N867 N868 1.388 . S
N868 Co851 1.993 . S
N868 N867 1.388 . S
N868 C869 1.346 . S
C869 N868 1.346 . S
C869 C870 1.396 . S
C869 C879 1.510 1_556 S
C870 C866 1.401 . S
C870 C869 1.396 . S
C871 C866 1.499 . S
C871 H872 0.959 . S
C871 H873 0.960 . S
C871 H874 0.961 . S
H872 C871 0.959 . S
H873 C871 0.960 . S
H874 C871 0.961 . S
O875 Co850 1.967 . S
O875 C883 1.258 . S
O876 Co851 1.941 . S
O876 C883 1.266 . S
H877 C879 0.959 . S
H878 C879 0.961 . S
C879 C869 1.510 1_554 S
C879 H877 0.959 . S
C879 H878 0.961 . S
C879 H880 0.960 . S
H880 C879 0.960 . S
H881 N861 0.862 . S
O882 Co850 1.920 . S
O882 C855 1.289 . S
C883 O875 1.258 . S
C883 O876 1.266 . S
Co884 O887 1.970 . S
Co884 N901 1.989 . S
Co884 O909 1.967 . S
Co884 O916 1.920 . S
Co885 O888 1.966 . S
Co885 N894 2.022 . S
Co885 N902 1.993 . S
Co885 O910 1.941 . S
C886 O887 1.258 . S
C886 O888 1.263 . S
O887 Co884 1.970 . S
O887 C886 1.258 . S
O888 Co885 1.966 . S
O888 C886 1.263 . S
C889 O890 1.235 . S
C889 O916 1.289 . S
O890 C889 1.235 . S
C891 C893 1.400 . S
C891 N894 1.351 . S
C891 C896 1.501 . S
C892 C893 1.387 . S
C892 N895 1.341 . S
C893 C891 1.400 . S
C893 C892 1.387 . S
N894 Co885 2.022 . S
N894 C891 1.351 . S
N894 N895 1.365 . S
N895 C892 1.341 . S
N895 N894 1.365 . S
N895 H915 0.862 . S
C896 C891 1.501 . S
C896 H897 0.961 . S
C896 H898 0.961 . S
C896 H899 0.960 . S
H897 C896 0.961 . S
H898 C896 0.961 . S
H899 C896 0.960 . S
C900 N901 1.342 . S
C900 C904 1.401 . S
C900 C905 1.499 . S
N901 Co884 1.989 . S
N901 C900 1.342 . S
N901 N902 1.388 . S
N902 Co885 1.993 . S
N902 N901 1.388 . S
N902 C903 1.346 . S
C903 N902 1.346 . S
C903 C904 1.396 . S
C903 C913 1.510 . S
C904 C900 1.401 . S
C904 C903 1.396 . S
C905 C900 1.499 . S
C905 H906 0.959 . S
C905 H907 0.960 . S
C905 H908 0.961 . S
H906 C905 0.959 . S
H907 C905 0.960 . S
H908 C905 0.961 . S
O909 Co884 1.967 . S
O909 C917 1.258 . S
O910 Co885 1.941 . S
O910 C917 1.266 . S
H911 C913 0.959 . S
H912 C913 0.961 . S
C913 C903 1.510 . S
C913 H911 0.959 . S
C913 H912 0.961 . S
C913 H914 0.960 . S
H914 C913 0.960 . S
H915 N895 0.862 . S
O916 Co884 1.920 . S
O916 C889 1.289 . S
C917 O909 1.258 . S
C917 O910 1.266 . S
Co918 O921 1.970 . S
Co918 N935 1.989 . S
Co918 O943 1.967 . S
Co918 O950 1.920 . S
Co919 O922 1.966 . S
Co919 N928 2.022 . S
Co919 N936 1.993 . S
Co919 O944 1.941 . S
C920 O921 1.258 . S
C920 O922 1.263 . S
O921 Co918 1.970 . S
O921 C920 1.258 . S
O922 Co919 1.966 . S
O922 C920 1.263 . S
C923 O924 1.235 . S
C923 O950 1.289 1_655 S
O924 C923 1.235 . S
C925 C927 1.400 . S
C925 N928 1.351 . S
C925 C930 1.501 . S
C926 C927 1.387 . S
C926 N929 1.341 . S
C927 C925 1.400 . S
C927 C926 1.387 . S
N928 Co919 2.022 . S
N928 C925 1.351 . S
N928 N929 1.365 . S
N929 C926 1.341 . S
N929 N928 1.365 . S
N929 H949 0.862 . S
C930 C925 1.501 . S
C930 H931 0.961 . S
C930 H932 0.961 . S
C930 H933 0.960 . S
H931 C930 0.961 . S
H932 C930 0.961 . S
H933 C930 0.960 . S
C934 N935 1.342 . S
C934 C938 1.401 . S
C934 C939 1.499 . S
N935 Co918 1.989 . S
N935 C934 1.342 . S
N935 N936 1.388 . S
N936 Co919 1.993 . S
N936 N935 1.388 . S
N936 C937 1.346 . S
C937 N936 1.346 . S
C937 C938 1.396 . S
C937 C947 1.510 . S
C938 C934 1.401 . S
C938 C937 1.396 . S
C939 C934 1.499 . S
C939 H940 0.959 . S
C939 H941 0.960 1_455 S
C939 H942 0.961 . S
H940 C939 0.959 . S
H941 C939 0.960 1_655 S
H942 C939 0.961 . S
O943 Co918 1.967 . S
O943 C951 1.258 . S
O944 Co919 1.941 . S
O944 C951 1.266 . S
H945 C947 0.959 . S
H946 C947 0.961 . S
C947 C937 1.510 . S
C947 H945 0.959 . S
C947 H946 0.961 . S
C947 H948 0.960 . S
H948 C947 0.960 . S
H949 N929 0.862 . S
O950 Co918 1.920 . S
O950 C923 1.289 1_455 S
C951 O943 1.258 . S
C951 O944 1.266 . S
Co952 O955 1.970 . S
Co952 N969 1.989 . S
Co952 O977 1.967 . S
Co952 O984 1.920 . S
Co953 O956 1.966 . S
Co953 N962 2.022 . S
Co953 N970 1.993 . S
Co953 O978 1.941 . S
C954 O955 1.258 . S
C954 O956 1.263 . S
O955 Co952 1.970 . S
O955 C954 1.258 . S
O956 Co953 1.966 . S
O956 C954 1.263 . S
C957 O958 1.235 . S
C957 O984 1.289 . S
O958 C957 1.235 . S
C959 C961 1.400 . S
C959 N962 1.351 . S
C959 C964 1.501 . S
C960 C961 1.387 . S
C960 N963 1.341 . S
C961 C959 1.400 . S
C961 C960 1.387 . S
N962 Co953 2.022 . S
N962 C959 1.351 . S
N962 N963 1.365 . S
N963 C960 1.341 . S
N963 N962 1.365 . S
N963 H983 0.862 . S
C964 C959 1.501 . S
C964 H965 0.961 . S
C964 H966 0.961 . S
C964 H967 0.960 . S
H965 C964 0.961 . S
H966 C964 0.961 . S
H967 C964 0.960 . S
C968 N969 1.342 . S
C968 C972 1.401 . S
C968 C973 1.499 . S
N969 Co952 1.989 . S
N969 C968 1.342 . S
N969 N970 1.388 . S
N970 Co953 1.993 . S
N970 N969 1.388 . S
N970 C971 1.346 . S
C971 N970 1.346 . S
C971 C972 1.396 . S
C971 C981 1.510 . S
C972 C968 1.401 . S
C972 C971 1.396 . S
C973 C968 1.499 . S
C973 H974 0.959 . S
C973 H975 0.960 . S
C973 H976 0.961 . S
H974 C973 0.959 . S
H975 C973 0.960 . S
H976 C973 0.961 . S
O977 Co952 1.967 . S
O977 C985 1.258 . S
O978 Co953 1.941 . S
O978 C985 1.266 . S
H979 C981 0.959 . S
H980 C981 0.961 . S
C981 C971 1.510 . S
C981 H979 0.959 . S
C981 H980 0.961 . S
C981 H982 0.960 . S
H982 C981 0.960 . S
H983 N963 0.862 . S
O984 Co952 1.920 . S
O984 C957 1.289 . S
C985 O977 1.258 . S
C985 O978 1.266 . S
Co986 O989 1.970 . S
Co986 N1003 1.989 . S
Co986 O1011 1.967 . S
Co986 O1018 1.920 . S
Co987 O990 1.966 . S
Co987 N996 2.022 1_554 S
Co987 N1004 1.993 . S
Co987 O1012 1.941 . S
C988 O989 1.258 . S
C988 O990 1.263 . S
O989 Co986 1.970 . S
O989 C988 1.258 . S
O990 Co987 1.966 . S
O990 C988 1.263 . S
C991 O992 1.235 . S
C991 O1018 1.289 1_655 S
O992 C991 1.235 . S
C993 C995 1.400 . S
C993 N996 1.351 . S
C993 C998 1.501 . S
C994 C995 1.387 . S
C994 N997 1.341 . S
C995 C993 1.400 . S
C995 C994 1.387 . S
N996 Co987 2.022 1_556 S
N996 C993 1.351 . S
N996 N997 1.365 . S
N997 C994 1.341 . S
N997 N996 1.365 . S
N997 H1017 0.862 . S
C998 C993 1.501 . S
C998 H999 0.961 . S
C998 H1000 0.961 . S
C998 H1001 0.960 . S
H999 C998 0.961 . S
H1000 C998 0.961 . S
H1001 C998 0.960 . S
C1002 N1003 1.342 . S
C1002 C1006 1.401 . S
C1002 C1007 1.499 . S
N1003 Co986 1.989 . S
N1003 C1002 1.342 . S
N1003 N1004 1.388 . S
N1004 Co987 1.993 . S
N1004 N1003 1.388 . S
N1004 C1005 1.346 . S
C1005 N1004 1.346 . S
C1005 C1006 1.396 . S
C1005 C1015 1.510 1_554 S
C1006 C1002 1.401 . S
C1006 C1005 1.396 . S
C1007 C1002 1.499 . S
C1007 H1008 0.959 . S
C1007 H1009 0.960 1_455 S
C1007 H1010 0.961 . S
H1008 C1007 0.959 . S
H1009 C1007 0.960 1_655 S
H1010 C1007 0.961 . S
O1011 Co986 1.967 . S
O1011 C1019 1.258 . S
O1012 Co987 1.941 . S
O1012 C1019 1.266 . S
H1013 C1015 0.959 . S
H1014 C1015 0.961 . S
C1015 C1005 1.510 1_556 S
C1015 H1013 0.959 . S
C1015 H1014 0.961 . S
C1015 H1016 0.960 . S
H1016 C1015 0.960 . S
H1017 N997 0.862 . S
O1018 Co986 1.920 . S
O1018 C991 1.289 1_455 S
C1019 O1011 1.258 . S
C1019 O1012 1.266 . S
Co1020 O1023 1.970 . S
Co1020 N1037 1.989 . S
Co1020 O1045 1.967 . S
Co1020 O1052 1.920 . S
Co1021 O1024 1.966 . S
Co1021 N1030 2.022 . S
Co1021 N1038 1.993 . S
Co1021 O1046 1.941 . S
C1022 O1023 1.258 . S
C1022 O1024 1.263 . S
O1023 Co1020 1.970 . S
O1023 C1022 1.258 . S
O1024 Co1021 1.966 . S
O1024 C1022 1.263 . S
C1025 O1026 1.235 . S
C1025 O1052 1.289 . S
O1026 C1025 1.235 . S
C1027 C1029 1.400 . S
C1027 N1030 1.351 . S
C1027 C1032 1.501 . S
C1028 C1029 1.387 . S
C1028 N1031 1.341 . S
C1029 C1027 1.400 . S
C1029 C1028 1.387 . S
N1030 Co1021 2.022 . S
N1030 C1027 1.351 . S
N1030 N1031 1.365 . S
N1031 C1028 1.341 . S
N1031 N1030 1.365 . S
N1031 H1051 0.862 . S
C1032 C1027 1.501 . S
C1032 H1033 0.961 . S
C1032 H1034 0.961 . S
C1032 H1035 0.960 . S
H1033 C1032 0.961 . S
H1034 C1032 0.961 . S
H1035 C1032 0.960 . S
C1036 N1037 1.342 . S
C1036 C1040 1.401 . S
C1036 C1041 1.499 . S
N1037 Co1020 1.989 . S
N1037 C1036 1.342 . S
N1037 N1038 1.388 . S
N1038 Co1021 1.993 . S
N1038 N1037 1.388 . S
N1038 C1039 1.346 . S
C1039 N1038 1.346 . S
C1039 C1040 1.396 . S
C1039 C1049 1.510 . S
C1040 C1036 1.401 . S
C1040 C1039 1.396 . S
C1041 C1036 1.499 . S
C1041 H1042 0.959 . S
C1041 H1043 0.960 . S
C1041 H1044 0.961 . S
H1042 C1041 0.959 . S
H1043 C1041 0.960 . S
H1044 C1041 0.961 . S
O1045 Co1020 1.967 . S
O1045 C1053 1.258 . S
O1046 Co1021 1.941 . S
O1046 C1053 1.266 . S
H1047 C1049 0.959 . S
H1048 C1049 0.961 . S
C1049 C1039 1.510 . S
C1049 H1047 0.959 . S
C1049 H1048 0.961 . S
C1049 H1050 0.960 . S
H1050 C1049 0.960 . S
H1051 N1031 0.862 . S
O1052 Co1020 1.920 . S
O1052 C1025 1.289 . S
C1053 O1045 1.258 . S
C1053 O1046 1.266 . S
Co1054 O1057 1.970 . S
Co1054 N1071 1.989 . S
Co1054 O1079 1.967 . S
Co1054 O1086 1.920 . S
Co1055 O1058 1.966 . S
Co1055 N1064 2.022 . S
Co1055 N1072 1.993 . S
Co1055 O1080 1.941 . S
C1056 O1057 1.258 . S
C1056 O1058 1.263 . S
O1057 Co1054 1.970 . S
O1057 C1056 1.258 . S
O1058 Co1055 1.966 . S
O1058 C1056 1.263 . S
C1059 O1060 1.235 . S
C1059 O1086 1.289 . S
O1060 C1059 1.235 . S
C1061 C1063 1.400 . S
C1061 N1064 1.351 . S
C1061 C1066 1.501 . S
C1062 C1063 1.387 . S
C1062 N1065 1.341 . S
C1063 C1061 1.400 . S
C1063 C1062 1.387 . S
N1064 Co1055 2.022 . S
N1064 C1061 1.351 . S
N1064 N1065 1.365 . S
N1065 C1062 1.341 . S
N1065 N1064 1.365 . S
N1065 H1085 0.862 . S
C1066 C1061 1.501 . S
C1066 H1067 0.961 . S
C1066 H1068 0.961 . S
C1066 H1069 0.960 . S
H1067 C1066 0.961 . S
H1068 C1066 0.961 . S
H1069 C1066 0.960 . S
C1070 N1071 1.342 . S
C1070 C1074 1.401 . S
C1070 C1075 1.499 . S
N1071 Co1054 1.989 . S
N1071 C1070 1.342 . S
N1071 N1072 1.388 . S
N1072 Co1055 1.993 . S
N1072 N1071 1.388 . S
N1072 C1073 1.346 . S
C1073 N1072 1.346 . S
C1073 C1074 1.396 . S
C1073 C1083 1.510 . S
C1074 C1070 1.401 . S
C1074 C1073 1.396 . S
C1075 C1070 1.499 . S
C1075 H1076 0.959 . S
C1075 H1077 0.960 . S
C1075 H1078 0.961 . S
H1076 C1075 0.959 . S
H1077 C1075 0.960 . S
H1078 C1075 0.961 . S
O1079 Co1054 1.967 . S
O1079 C1087 1.258 . S
O1080 Co1055 1.941 . S
O1080 C1087 1.266 . S
H1081 C1083 0.959 . S
H1082 C1083 0.961 . S
C1083 C1073 1.510 . S
C1083 H1081 0.959 . S
C1083 H1082 0.961 . S
C1083 H1084 0.960 . S
H1084 C1083 0.960 . S
H1085 N1065 0.862 . S
O1086 Co1054 1.920 . S
O1086 C1059 1.289 . S
C1087 O1079 1.258 . S
C1087 O1080 1.266 . S
H1088 C1094 0.930 . S
H1089 C1097 0.930 . S
H1090 C1098 0.930 . S
H1091 C1099 0.930 . S
H1092 C1102 0.930 . S
H1093 C1103 0.930 . S
C1094 H1088 0.930 . S
C1094 C1095 1.355 . S
C1094 C1096 1.415 . S
C1095 C1094 1.355 . S
C1095 C1097 1.419 . S
C1096 C1094 1.415 . S
C1096 C1101 1.425 . S
C1096 C1103 1.409 . S
C1097 H1089 0.930 . S
C1097 C1095 1.419 . S
C1097 C1098 1.362 . S
C1098 H1090 0.930 . S
C1098 C1097 1.362 . S
C1098 C1101 1.409 . S
C1099 H1091 0.930 . S
C1099 C1100 1.355 . S
C1099 C1101 1.415 . S
C1100 C1099 1.355 . S
C1100 C1102 1.419 . S
C1101 C1096 1.425 . S
C1101 C1098 1.409 . S
C1101 C1099 1.415 . S
C1102 H1092 0.930 . S
C1102 C1100 1.419 . S
C1102 C1103 1.362 . S
C1103 H1093 0.930 . S
C1103 C1096 1.409 . S
C1103 C1102 1.362 . S
H1104 C1110 0.930 . S
H1105 C1113 0.930 . S
H1106 C1114 0.930 . S
H1107 C1115 0.930 . S
H1108 C1118 0.930 . S
H1109 C1119 0.930 . S
C1110 H1104 0.930 . S
C1110 C1111 1.355 . S
C1110 C1112 1.415 . S
C1111 C1110 1.355 . S
C1111 C1113 1.419 . S
C1112 C1110 1.415 . S
C1112 C1117 1.425 . S
C1112 C1119 1.409 . S
C1113 H1105 0.930 . S
C1113 C1111 1.419 . S
C1113 C1114 1.362 . S
C1114 H1106 0.930 . S
C1114 C1113 1.362 . S
C1114 C1117 1.409 . S
C1115 H1107 0.930 . S
C1115 C1116 1.355 . S
C1115 C1117 1.415 . S
C1116 C1115 1.355 . S
C1116 C1118 1.419 . S
C1117 C1112 1.425 . S
C1117 C1114 1.409 . S
C1117 C1115 1.415 . S
C1118 H1108 0.930 . S
C1118 C1116 1.419 . S
C1118 C1119 1.362 . S
C1119 H1109 0.930 . S
C1119 C1112 1.409 . S
C1119 C1118 1.362 . S
H1120 C1126 0.930 . S
H1121 C1129 0.930 . S
H1122 C1130 0.930 . S
H1123 C1131 0.930 . S
H1124 C1134 0.930 . S
H1125 C1135 0.930 . S
C1126 H1120 0.930 . S
C1126 C1127 1.355 . S
C1126 C1128 1.415 . S
C1127 C1126 1.355 . S
C1127 C1129 1.419 . S
C1128 C1126 1.415 . S
C1128 C1133 1.425 . S
C1128 C1135 1.409 . S
C1129 H1121 0.930 . S
C1129 C1127 1.419 . S
C1129 C1130 1.362 . S
C1130 H1122 0.930 . S
C1130 C1129 1.362 . S
C1130 C1133 1.409 . S
C1131 H1123 0.930 . S
C1131 C1132 1.355 . S
C1131 C1133 1.415 . S
C1132 C1131 1.355 . S
C1132 C1134 1.419 . S
C1133 C1128 1.425 . S
C1133 C1130 1.409 . S
C1133 C1131 1.415 . S
C1134 H1124 0.930 . S
C1134 C1132 1.419 . S
C1134 C1135 1.362 . S
C1135 H1125 0.930 . S
C1135 C1128 1.409 . S
C1135 C1134 1.362 . S
H1136 C1142 0.930 . S
H1137 C1145 0.930 . S
H1138 C1146 0.930 . S
H1139 C1147 0.930 . S
H1140 C1150 0.930 . S
H1141 C1151 0.930 . S
C1142 H1136 0.930 . S
C1142 C1143 1.355 . S
C1142 C1144 1.415 . S
C1143 C1142 1.355 . S
C1143 C1145 1.419 . S
C1144 C1142 1.415 . S
C1144 C1149 1.425 . S
C1144 C1151 1.409 . S
C1145 H1137 0.930 . S
C1145 C1143 1.419 . S
C1145 C1146 1.362 . S
C1146 H1138 0.930 . S
C1146 C1145 1.362 . S
C1146 C1149 1.409 . S
C1147 H1139 0.930 . S
C1147 C1148 1.355 . S
C1147 C1149 1.415 . S
C1148 C1147 1.355 . S
C1148 C1150 1.419 . S
C1149 C1144 1.425 . S
C1149 C1146 1.409 . S
C1149 C1147 1.415 . S
C1150 H1140 0.930 . S
C1150 C1148 1.419 . S
C1150 C1151 1.362 . S
C1151 H1141 0.930 . S
C1151 C1144 1.409 . S
C1151 C1150 1.362 . S
H1152 C1158 0.930 . S
H1153 C1161 0.930 . S
H1154 C1162 0.930 . S
H1155 C1163 0.930 . S
H1156 C1166 0.930 . S
H1157 C1167 0.930 . S
C1158 H1152 0.930 . S
C1158 C1159 1.355 . S
C1158 C1160 1.415 . S
C1159 C1158 1.355 . S
C1159 C1161 1.419 . S
C1160 C1158 1.415 . S
C1160 C1165 1.425 . S
C1160 C1167 1.409 . S
C1161 H1153 0.930 . S
C1161 C1159 1.419 . S
C1161 C1162 1.362 . S
C1162 H1154 0.930 . S
C1162 C1161 1.362 . S
C1162 C1165 1.409 . S
C1163 H1155 0.930 . S
C1163 C1164 1.355 . S
C1163 C1165 1.415 . S
C1164 C1163 1.355 . S
C1164 C1166 1.419 . S
C1165 C1160 1.425 . S
C1165 C1162 1.409 . S
C1165 C1163 1.415 . S
C1166 H1156 0.930 . S
C1166 C1164 1.419 . S
C1166 C1167 1.362 . S
C1167 H1157 0.930 . S
C1167 C1160 1.409 . S
C1167 C1166 1.362 . S
H1168 C1174 0.930 . S
H1169 C1177 0.930 . S
H1170 C1178 0.930 . S
H1171 C1179 0.930 . S
H1172 C1182 0.930 . S
H1173 C1183 0.930 . S
C1174 H1168 0.930 . S
C1174 C1175 1.355 . S
C1174 C1176 1.415 . S
C1175 C1174 1.355 . S
C1175 C1177 1.419 . S
C1176 C1174 1.415 . S
C1176 C1181 1.425 . S
C1176 C1183 1.409 . S
C1177 H1169 0.930 . S
C1177 C1175 1.419 . S
C1177 C1178 1.362 . S
C1178 H1170 0.930 . S
C1178 C1177 1.362 . S
C1178 C1181 1.409 . S
C1179 H1171 0.930 . S
C1179 C1180 1.355 . S
C1179 C1181 1.415 . S
C1180 C1179 1.355 . S
C1180 C1182 1.419 . S
C1181 C1176 1.425 . S
C1181 C1178 1.409 . S
C1181 C1179 1.415 . S
C1182 H1172 0.930 . S
C1182 C1180 1.419 . S
C1182 C1183 1.362 . S
C1183 H1173 0.930 . S
C1183 C1176 1.409 . S
C1183 C1182 1.362 . S
H1184 C1190 0.930 . S
H1185 C1193 0.930 . S
H1186 C1194 0.930 . S
H1187 C1195 0.930 . S
H1188 C1198 0.930 . S
H1189 C1199 0.930 . S
C1190 H1184 0.930 . S
C1190 C1191 1.355 . S
C1190 C1192 1.415 . S
C1191 C1190 1.355 . S
C1191 C1193 1.419 . S
C1192 C1190 1.415 . S
C1192 C1197 1.425 . S
C1192 C1199 1.409 . S
C1193 H1185 0.930 . S
C1193 C1191 1.419 . S
C1193 C1194 1.362 . S
C1194 H1186 0.930 . S
C1194 C1193 1.362 . S
C1194 C1197 1.409 . S
C1195 H1187 0.930 . S
C1195 C1196 1.355 . S
C1195 C1197 1.415 . S
C1196 C1195 1.355 . S
C1196 C1198 1.419 . S
C1197 C1192 1.425 . S
C1197 C1194 1.409 . S
C1197 C1195 1.415 . S
C1198 H1188 0.930 . S
C1198 C1196 1.419 . S
C1198 C1199 1.362 . S
C1199 H1189 0.930 . S
C1199 C1192 1.409 . S
C1199 C1198 1.362 . S
H1200 C1206 0.930 . S
H1201 C1209 0.930 . S
H1202 C1210 0.930 . S
H1203 C1211 0.930 . S
H1204 C1214 0.930 . S
H1205 C1215 0.930 . S
C1206 H1200 0.930 . S
C1206 C1207 1.355 . S
C1206 C1208 1.415 . S
C1207 C1206 1.355 . S
C1207 C1209 1.419 . S
C1208 C1206 1.415 . S
C1208 C1213 1.425 . S
C1208 C1215 1.409 . S
C1209 H1201 0.930 . S
C1209 C1207 1.419 . S
C1209 C1210 1.362 . S
C1210 H1202 0.930 . S
C1210 C1209 1.362 . S
C1210 C1213 1.409 . S
C1211 H1203 0.930 . S
C1211 C1212 1.355 . S
C1211 C1213 1.415 . S
C1212 C1211 1.355 . S
C1212 C1214 1.419 . S
C1213 C1208 1.425 . S
C1213 C1210 1.409 . S
C1213 C1211 1.415 . S
C1214 H1204 0.930 . S
C1214 C1212 1.419 . S
C1214 C1215 1.362 . S
C1215 H1205 0.930 . S
C1215 C1208 1.409 . S
C1215 C1214 1.362 . S
H1216 C1222 0.930 . S
H1217 C1225 0.930 . S
H1218 C1226 0.930 . S
H1219 C1227 0.930 . S
H1220 C1230 0.930 . S
H1221 C1231 0.930 . S
C1222 H1216 0.930 . S
C1222 C1223 1.355 . S
C1222 C1224 1.415 . S
C1223 C1222 1.355 . S
C1223 C1225 1.419 . S
C1224 C1222 1.415 . S
C1224 C1229 1.425 . S
C1224 C1231 1.409 . S
C1225 H1217 0.930 . S
C1225 C1223 1.419 . S
C1225 C1226 1.362 . S
C1226 H1218 0.930 . S
C1226 C1225 1.362 . S
C1226 C1229 1.409 . S
C1227 H1219 0.930 . S
C1227 C1228 1.355 . S
C1227 C1229 1.415 . S
C1228 C1227 1.355 . S
C1228 C1230 1.419 . S
C1229 C1224 1.425 . S
C1229 C1226 1.409 . S
C1229 C1227 1.415 . S
C1230 H1220 0.930 . S
C1230 C1228 1.419 . S
C1230 C1231 1.362 . S
C1231 H1221 0.930 . S
C1231 C1224 1.409 . S
C1231 C1230 1.362 . S
H1232 C1238 0.930 . S
H1233 C1241 0.930 . S
H1234 C1242 0.930 . S
H1235 C1243 0.930 . S
H1236 C1246 0.930 . S
H1237 C1247 0.930 . S
C1238 H1232 0.930 . S
C1238 C1239 1.355 . S
C1238 C1240 1.415 . S
C1239 C1238 1.355 . S
C1239 C1241 1.419 . S
C1240 C1238 1.415 . S
C1240 C1245 1.425 . S
C1240 C1247 1.409 . S
C1241 H1233 0.930 . S
C1241 C1239 1.419 . S
C1241 C1242 1.362 . S
C1242 H1234 0.930 . S
C1242 C1241 1.362 . S
C1242 C1245 1.409 . S
C1243 H1235 0.930 . S
C1243 C1244 1.355 . S
C1243 C1245 1.415 . S
C1244 C1243 1.355 . S
C1244 C1246 1.419 . S
C1245 C1240 1.425 . S
C1245 C1242 1.409 . S
C1245 C1243 1.415 . S
C1246 H1236 0.930 . S
C1246 C1244 1.419 . S
C1246 C1247 1.362 . S
C1247 H1237 0.930 . S
C1247 C1240 1.409 . S
C1247 C1246 1.362 . S
H1248 C1254 0.930 . S
H1249 C1257 0.930 . S
H1250 C1258 0.930 . S
H1251 C1259 0.930 . S
H1252 C1262 0.930 . S
H1253 C1263 0.930 . S
C1254 H1248 0.930 . S
C1254 C1255 1.355 . S
C1254 C1256 1.415 . S
C1255 C1254 1.355 . S
C1255 C1257 1.419 . S
C1256 C1254 1.415 . S
C1256 C1261 1.425 . S
C1256 C1263 1.409 . S
C1257 H1249 0.930 . S
C1257 C1255 1.419 . S
C1257 C1258 1.362 . S
C1258 H1250 0.930 . S
C1258 C1257 1.362 . S
C1258 C1261 1.409 . S
C1259 H1251 0.930 . S
C1259 C1260 1.355 . S
C1259 C1261 1.415 . S
C1260 C1259 1.355 . S
C1260 C1262 1.419 . S
C1261 C1256 1.425 . S
C1261 C1258 1.409 . S
C1261 C1259 1.415 . S
C1262 H1252 0.930 . S
C1262 C1260 1.419 . S
C1262 C1263 1.362 . S
C1263 H1253 0.930 . S
C1263 C1256 1.409 . S
C1263 C1262 1.362 . S
H1264 C1270 0.930 . S
H1265 C1273 0.930 . S
H1266 C1274 0.930 . S
H1267 C1275 0.930 . S
H1268 C1278 0.930 . S
H1269 C1279 0.930 . S
C1270 H1264 0.930 . S
C1270 C1271 1.355 . S
C1270 C1272 1.415 . S
C1271 C1270 1.355 . S
C1271 C1273 1.419 . S
C1272 C1270 1.415 . S
C1272 C1277 1.425 . S
C1272 C1279 1.409 . S
C1273 H1265 0.930 . S
C1273 C1271 1.419 . S
C1273 C1274 1.362 . S
C1274 H1266 0.930 . S
C1274 C1273 1.362 . S
C1274 C1277 1.409 . S
C1275 H1267 0.930 . S
C1275 C1276 1.355 . S
C1275 C1277 1.415 . S
C1276 C1275 1.355 . S
C1276 C1278 1.419 . S
C1277 C1272 1.425 . S
C1277 C1274 1.409 . S
C1277 C1275 1.415 . S
C1278 H1268 0.930 . S
C1278 C1276 1.419 . S
C1278 C1279 1.362 . S
C1279 H1269 0.930 . S
C1279 C1272 1.409 . S
C1279 C1278 1.362 . S
H1280 C1286 0.930 . S
H1281 C1289 0.930 . S
H1282 C1290 0.930 . S
H1283 C1291 0.930 . S
H1284 C1294 0.930 . S
H1285 C1295 0.930 . S
C1286 H1280 0.930 . S
C1286 C1287 1.355 . S
C1286 C1288 1.415 . S
C1287 C1286 1.355 . S
C1287 C1289 1.419 . S
C1288 C1286 1.415 . S
C1288 C1293 1.425 . S
C1288 C1295 1.409 . S
C1289 H1281 0.930 . S
C1289 C1287 1.419 . S
C1289 C1290 1.362 . S
C1290 H1282 0.930 . S
C1290 C1289 1.362 . S
C1290 C1293 1.409 . S
C1291 H1283 0.930 . S
C1291 C1292 1.355 . S
C1291 C1293 1.415 . S
C1292 C1291 1.355 . S
C1292 C1294 1.419 . S
C1293 C1288 1.425 . S
C1293 C1290 1.409 . S
C1293 C1291 1.415 . S
C1294 H1284 0.930 . S
C1294 C1292 1.419 . S
C1294 C1295 1.362 . S
C1295 H1285 0.930 . S
C1295 C1288 1.409 . S
C1295 C1294 1.362 . S
H1296 C1302 0.930 . S
H1297 C1305 0.930 . S
H1298 C1306 0.930 . S
H1299 C1307 0.930 . S
H1300 C1310 0.930 . S
H1301 C1311 0.930 . S
C1302 H1296 0.930 . S
C1302 C1303 1.355 . S
C1302 C1304 1.415 . S
C1303 C1302 1.355 . S
C1303 C1305 1.419 . S
C1304 C1302 1.415 . S
C1304 C1309 1.425 . S
C1304 C1311 1.409 . S
C1305 H1297 0.930 . S
C1305 C1303 1.419 . S
C1305 C1306 1.362 . S
C1306 H1298 0.930 . S
C1306 C1305 1.362 . S
C1306 C1309 1.409 . S
C1307 H1299 0.930 . S
C1307 C1308 1.355 . S
C1307 C1309 1.415 . S
C1308 C1307 1.355 . S
C1308 C1310 1.419 . S
C1309 C1304 1.425 . S
C1309 C1306 1.409 . S
C1309 C1307 1.415 . S
C1310 H1300 0.930 . S
C1310 C1308 1.419 . S
C1310 C1311 1.362 . S
C1311 H1301 0.930 . S
C1311 C1304 1.409 . S
C1311 C1310 1.362 . S
H1312 C1318 0.930 . S
H1313 C1321 0.930 . S
H1314 C1322 0.930 . S
H1315 C1323 0.930 . S
H1316 C1326 0.930 . S
H1317 C1327 0.930 . S
C1318 H1312 0.930 . S
C1318 C1319 1.355 . S
C1318 C1320 1.415 . S
C1319 C1318 1.355 . S
C1319 C1321 1.419 . S
C1320 C1318 1.415 . S
C1320 C1325 1.425 . S
C1320 C1327 1.409 . S
C1321 H1313 0.930 . S
C1321 C1319 1.419 . S
C1321 C1322 1.362 . S
C1322 H1314 0.930 . S
C1322 C1321 1.362 . S
C1322 C1325 1.409 . S
C1323 H1315 0.930 . S
C1323 C1324 1.355 . S
C1323 C1325 1.415 . S
C1324 C1323 1.355 . S
C1324 C1326 1.419 . S
C1325 C1320 1.425 . S
C1325 C1322 1.409 . S
C1325 C1323 1.415 . S
C1326 H1316 0.930 . S
C1326 C1324 1.419 . S
C1326 C1327 1.362 . S
C1327 H1317 0.930 . S
C1327 C1320 1.409 . S
C1327 C1326 1.362 . S
H1328 C1334 0.930 . S
H1329 C1337 0.930 . S
H1330 C1338 0.930 . S
H1331 C1339 0.930 . S
H1332 C1342 0.930 . S
H1333 C1343 0.930 . S
C1334 H1328 0.930 . S
C1334 C1335 1.355 . S
C1334 C1336 1.415 . S
C1335 C1334 1.355 . S
C1335 C1337 1.419 . S
C1336 C1334 1.415 . S
C1336 C1341 1.425 . S
C1336 C1343 1.409 . S
C1337 H1329 0.930 . S
C1337 C1335 1.419 . S
C1337 C1338 1.362 . S
C1338 H1330 0.930 . S
C1338 C1337 1.362 . S
C1338 C1341 1.409 . S
C1339 H1331 0.930 . S
C1339 C1340 1.355 . S
C1339 C1341 1.415 . S
C1340 C1339 1.355 . S
C1340 C1342 1.419 . S
C1341 C1336 1.425 . S
C1341 C1338 1.409 . S
C1341 C1339 1.415 . S
C1342 H1332 0.930 . S
C1342 C1340 1.419 . S
C1342 C1343 1.362 . S
C1343 H1333 0.930 . S
C1343 C1336 1.409 . S
C1343 C1342 1.362 . S
H1344 C1350 0.930 . S
H1345 C1353 0.930 . S
H1346 C1354 0.930 1_455 S
H1347 C1355 0.930 . S
H1348 C1358 0.930 . S
H1349 C1359 0.930 1_655 S
C1350 H1344 0.930 . S
C1350 C1351 1.355 . S
C1350 C1352 1.415 . S
C1351 C1350 1.355 . S
C1351 C1353 1.419 . S
C1352 C1350 1.415 . S
C1352 C1357 1.425 1_655 S
C1352 C1359 1.409 1_655 S
C1353 H1345 0.930 . S
C1353 C1351 1.419 . S
C1353 C1354 1.362 . S
C1354 H1346 0.930 1_655 S
C1354 C1353 1.362 . S
C1354 C1357 1.409 1_655 S
C1355 H1347 0.930 . S
C1355 C1356 1.355 . S
C1355 C1357 1.415 . S
C1356 C1355 1.355 . S
C1356 C1358 1.419 . S
C1357 C1352 1.425 1_455 S
C1357 C1354 1.409 1_455 S
C1357 C1355 1.415 . S
C1358 H1348 0.930 . S
C1358 C1356 1.419 . S
C1358 C1359 1.362 . S
C1359 H1349 0.930 1_455 S
C1359 C1352 1.409 1_455 S
C1359 C1358 1.362 . S
H1360 C1366 0.930 . S
H1361 C1369 0.930 . S
H1362 C1370 0.930 . S
H1363 C1371 0.930 . S
H1364 C1374 0.930 . S
H1365 C1375 0.930 . S
C1366 H1360 0.930 . S
C1366 C1367 1.355 1_455 S
C1366 C1368 1.415 . S
C1367 C1366 1.355 1_655 S
C1367 C1369 1.419 . S
C1368 C1366 1.415 . S
C1368 C1373 1.425 1_455 S
C1368 C1375 1.409 . S
C1369 H1361 0.930 . S
C1369 C1367 1.419 . S
C1369 C1370 1.362 . S
C1370 H1362 0.930 . S
C1370 C1369 1.362 . S
C1370 C1373 1.409 . S
C1371 H1363 0.930 . S
C1371 C1372 1.355 1_655 S
C1371 C1373 1.415 . S
C1372 C1371 1.355 1_455 S
C1372 C1374 1.419 . S
C1373 C1368 1.425 1_655 S
C1373 C1370 1.409 . S
C1373 C1371 1.415 . S
C1374 H1364 0.930 . S
C1374 C1372 1.419 . S
C1374 C1375 1.362 . S
C1375 H1365 0.930 . S
C1375 C1368 1.409 . S
C1375 C1374 1.362 . S
H1376 C1382 0.930 . S
H1377 C1385 0.930 . S
H1378 C1386 0.930 . S
H1379 C1387 0.930 . S
H1380 C1390 0.930 . S
H1381 C1391 0.930 . S
C1382 H1376 0.930 . S
C1382 C1383 1.355 . S
C1382 C1384 1.415 . S
C1383 C1382 1.355 . S
C1383 C1385 1.419 . S
C1384 C1382 1.415 . S
C1384 C1389 1.425 . S
C1384 C1391 1.409 . S
C1385 H1377 0.930 . S
C1385 C1383 1.419 . S
C1385 C1386 1.362 . S
C1386 H1378 0.930 . S
C1386 C1385 1.362 . S
C1386 C1389 1.409 . S
C1387 H1379 0.930 . S
C1387 C1388 1.355 . S
C1387 C1389 1.415 . S
C1388 C1387 1.355 . S
C1388 C1390 1.419 . S
C1389 C1384 1.425 . S
C1389 C1386 1.409 . S
C1389 C1387 1.415 . S
C1390 H1380 0.930 . S
C1390 C1388 1.419 . S
C1390 C1391 1.362 . S
C1391 H1381 0.930 . S
C1391 C1384 1.409 . S
C1391 C1390 1.362 . S
H1392 C1398 0.930 . S
H1393 C1401 0.930 . S
H1394 C1402 0.930 . S
H1395 C1403 0.930 . S
H1396 C1406 0.930 . S
H1397 C1407 0.930 . S
C1398 H1392 0.930 . S
C1398 C1399 1.355 . S
C1398 C1400 1.415 . S
C1399 C1398 1.355 . S
C1399 C1401 1.419 . S
C1400 C1398 1.415 . S
C1400 C1405 1.425 . S
C1400 C1407 1.409 . S
C1401 H1393 0.930 . S
C1401 C1399 1.419 . S
C1401 C1402 1.362 . S
C1402 H1394 0.930 . S
C1402 C1401 1.362 . S
C1402 C1405 1.409 . S
C1403 H1395 0.930 . S
C1403 C1404 1.355 . S
C1403 C1405 1.415 . S
C1404 C1403 1.355 . S
C1404 C1406 1.419 . S
C1405 C1400 1.425 . S
C1405 C1402 1.409 . S
C1405 C1403 1.415 . S
C1406 H1396 0.930 . S
C1406 C1404 1.419 . S
C1406 C1407 1.362 . S
C1407 H1397 0.930 . S
C1407 C1400 1.409 . S
C1407 C1406 1.362 . S
H1408 C1414 0.930 . S
H1409 C1417 0.930 . S
H1410 C1418 0.930 . S
H1411 C1419 0.930 . S
H1412 C1422 0.930 . S
H1413 C1423 0.930 . S
C1414 H1408 0.930 . S
C1414 C1415 1.355 . S
C1414 C1416 1.396 1_655 S
C1415 C1414 1.355 . S
C1415 C1417 1.419 . S
C1416 C1414 1.396 1_455 S
C1416 C1421 1.424 1_455 S
C1416 C1423 1.428 . S
C1417 H1409 0.930 . S
C1417 C1415 1.419 . S
C1417 C1418 1.362 . S
C1418 H1410 0.930 . S
C1418 C1417 1.362 . S
C1418 C1421 1.428 . S
C1419 H1411 0.930 . S
C1419 C1420 1.355 . S
C1419 C1421 1.396 1_455 S
C1420 C1419 1.355 . S
C1420 C1422 1.419 . S
C1421 C1416 1.424 1_655 S
C1421 C1418 1.428 . S
C1421 C1419 1.396 1_655 S
C1422 H1412 0.930 . S
C1422 C1420 1.419 . S
C1422 C1423 1.362 . S
C1423 H1413 0.930 . S
C1423 C1416 1.428 . S
C1423 C1422 1.362 . S
H1424 C1430 0.930 . S
H1425 C1433 0.930 . S
H1426 C1434 0.930 . S
H1427 C1435 0.930 . S
H1428 C1438 0.930 . S
H1429 C1439 0.930 . S
C1430 H1424 0.930 . S
C1430 C1431 1.355 . S
C1430 C1432 1.415 . S
C1431 C1430 1.355 . S
C1431 C1433 1.419 . S
C1432 C1430 1.415 . S
C1432 C1437 1.425 . S
C1432 C1439 1.409 . S
C1433 H1425 0.930 . S
C1433 C1431 1.419 . S
C1433 C1434 1.362 . S
C1434 H1426 0.930 . S
C1434 C1433 1.362 . S
C1434 C1437 1.409 . S
C1435 H1427 0.930 . S
C1435 C1436 1.355 . S
C1435 C1437 1.415 . S
C1436 C1435 1.355 . S
C1436 C1438 1.419 . S
C1437 C1432 1.425 . S
C1437 C1434 1.409 . S
C1437 C1435 1.415 . S
C1438 H1428 0.930 . S
C1438 C1436 1.419 . S
C1438 C1439 1.362 . S
C1439 H1429 0.930 . S
C1439 C1432 1.409 . S
C1439 C1438 1.362 . S
H1440 C1446 0.930 . S
H1441 C1449 0.930 . S
H1442 C1450 0.930 . S
H1443 C1451 0.930 . S
H1444 C1454 0.930 . S
H1445 C1455 0.930 . S
C1446 H1440 0.930 . S
C1446 C1447 1.355 . S
C1446 C1448 1.415 . S
C1447 C1446 1.355 . S
C1447 C1449 1.419 . S
C1448 C1446 1.415 . S
C1448 C1453 1.425 . S
C1448 C1455 1.409 . S
C1449 H1441 0.930 . S
C1449 C1447 1.419 . S
C1449 C1450 1.362 . S
C1450 H1442 0.930 . S
C1450 C1449 1.362 . S
C1450 C1453 1.409 . S
C1451 H1443 0.930 . S
C1451 C1452 1.355 . S
C1451 C1453 1.415 . S
C1452 C1451 1.355 . S
C1452 C1454 1.419 . S
C1453 C1448 1.425 . S
C1453 C1450 1.409 . S
C1453 C1451 1.415 . S
C1454 H1444 0.930 . S
C1454 C1452 1.419 . S
C1454 C1455 1.362 . S
C1455 H1445 0.930 . S
C1455 C1448 1.409 . S
C1455 C1454 1.362 . S
H1456 C1462 0.930 . S
H1457 C1465 0.930 1_554 S
H1458 C1466 0.930 1_554 S
H1459 C1467 0.930 . S
H1460 C1470 0.930 . S
H1461 C1471 0.930 . S
C1462 H1456 0.930 . S
C1462 C1463 1.355 . S
C1462 C1464 1.415 . S
C1463 C1462 1.355 . S
C1463 C1465 1.418 1_455 S
C1464 C1462 1.415 . S
C1464 C1469 1.425 1_455 S
C1464 C1471 1.409 . S
C1465 H1457 0.930 1_556 S
C1465 C1463 1.418 1_655 S
C1465 C1466 1.363 . S
C1466 H1458 0.930 1_556 S
C1466 C1465 1.363 . S
C1466 C1469 1.409 . S
C1467 H1459 0.930 . S
C1467 C1468 1.355 . S
C1467 C1469 1.415 . S
C1468 C1467 1.355 . S
C1468 C1470 1.418 1_655 S
C1469 C1464 1.425 1_655 S
C1469 C1466 1.409 . S
C1469 C1467 1.415 . S
C1470 H1460 0.930 . S
C1470 C1468 1.418 1_455 S
C1470 C1471 1.363 . S
C1471 H1461 0.930 . S
C1471 C1464 1.409 . S
C1471 C1470 1.363 . S
H1472 C1478 0.930 . S
H1473 C1481 0.930 . S
H1474 C1482 0.940 . S
H1475 C1483 0.930 . S
H1476 C1486 0.930 . S
H1477 C1487 0.940 . S
C1478 H1472 0.930 . S
C1478 C1479 1.355 . S
C1478 C1480 1.415 . S
C1479 C1478 1.355 . S
C1479 C1481 1.419 . S
C1480 C1478 1.415 . S
C1480 C1485 1.425 1_655 S
C1480 C1487 1.414 . S
C1481 H1473 0.930 . S
C1481 C1479 1.419 . S
C1481 C1482 1.349 1_655 S
C1482 H1474 0.940 . S
C1482 C1481 1.349 1_455 S
C1482 C1485 1.414 . S
C1483 H1475 0.930 . S
C1483 C1484 1.355 . S
C1483 C1485 1.415 . S
C1484 C1483 1.355 . S
C1484 C1486 1.419 . S
C1485 C1480 1.425 1_455 S
C1485 C1482 1.414 . S
C1485 C1483 1.415 . S
C1486 H1476 0.930 . S
C1486 C1484 1.419 . S
C1486 C1487 1.349 1_455 S
C1487 H1477 0.940 . S
C1487 C1480 1.414 . S
C1487 C1486 1.349 1_655 S
H1488 C1494 0.930 . S
H1489 C1497 0.930 . S
H1490 C1498 0.930 . S
H1491 C1499 0.930 . S
H1492 C1502 0.930 . S
H1493 C1503 0.930 . S
C1494 H1488 0.930 . S
C1494 C1495 1.355 1_655 S
C1494 C1496 1.415 . S
C1495 C1494 1.355 1_455 S
C1495 C1497 1.419 . S
C1496 C1494 1.415 . S
C1496 C1501 1.425 1_655 S
C1496 C1503 1.409 . S
C1497 H1489 0.930 . S
C1497 C1495 1.419 . S
C1497 C1498 1.362 . S
C1498 H1490 0.930 . S
C1498 C1497 1.362 . S
C1498 C1501 1.409 . S
C1499 H1491 0.930 . S
C1499 C1500 1.355 1_455 S
C1499 C1501 1.415 . S
C1500 C1499 1.355 1_655 S
C1500 C1502 1.419 . S
C1501 C1496 1.425 1_455 S
C1501 C1498 1.409 . S
C1501 C1499 1.415 . S
C1502 H1492 0.930 . S
C1502 C1500 1.419 . S
C1502 C1503 1.362 . S
C1503 H1493 0.930 . S
C1503 C1496 1.409 . S
C1503 C1502 1.362 . S
H1504 C1510 0.930 . S
H1505 C1513 0.930 . S
H1506 C1514 0.930 . S
H1507 C1515 0.930 . S
H1508 C1518 0.930 . S
H1509 C1519 0.930 . S
C1510 H1504 0.930 . S
C1510 C1511 1.355 . S
C1510 C1512 1.415 . S
C1511 C1510 1.355 . S
C1511 C1513 1.419 . S
C1512 C1510 1.415 . S
C1512 C1517 1.425 . S
C1512 C1519 1.409 . S
C1513 H1505 0.930 . S
C1513 C1511 1.419 . S
C1513 C1514 1.362 . S
C1514 H1506 0.930 . S
C1514 C1513 1.362 . S
C1514 C1517 1.409 . S
C1515 H1507 0.930 . S
C1515 C1516 1.355 . S
C1515 C1517 1.415 . S
C1516 C1515 1.355 . S
C1516 C1518 1.419 . S
C1517 C1512 1.425 . S
C1517 C1514 1.409 . S
C1517 C1515 1.415 . S
C1518 H1508 0.930 . S
C1518 C1516 1.419 . S
C1518 C1519 1.362 . S
C1519 H1509 0.930 . S
C1519 C1512 1.409 . S
C1519 C1518 1.362 . S
H1520 C1526 0.930 . S
H1521 C1529 0.930 . S
H1522 C1530 0.930 . S
H1523 C1531 0.930 . S
H1524 C1534 0.930 . S
H1525 C1535 0.930 . S
C1526 H1520 0.930 . S
C1526 C1527 1.355 . S
C1526 C1528 1.415 . S
C1527 C1526 1.355 . S
C1527 C1529 1.419 . S
C1528 C1526 1.415 . S
C1528 C1533 1.425 . S
C1528 C1535 1.409 . S
C1529 H1521 0.930 . S
C1529 C1527 1.419 . S
C1529 C1530 1.362 . S
C1530 H1522 0.930 . S
C1530 C1529 1.362 . S
C1530 C1533 1.409 . S
C1531 H1523 0.930 . S
C1531 C1532 1.355 . S
C1531 C1533 1.415 . S
C1532 C1531 1.355 . S
C1532 C1534 1.419 . S
C1533 C1528 1.425 . S
C1533 C1530 1.409 . S
C1533 C1531 1.415 . S
C1534 H1524 0.930 . S
C1534 C1532 1.419 . S
C1534 C1535 1.362 . S
C1535 H1525 0.930 . S
C1535 C1528 1.409 . S
C1535 C1534 1.362 . S
H1536 C1542 0.930 . S
H1537 C1545 0.930 . S
H1538 C1546 0.930 1_455 S
H1539 C1547 0.930 . S
H1540 C1550 0.930 . S
H1541 C1551 0.930 1_655 S
C1542 H1536 0.930 . S
C1542 C1543 1.355 . S
C1542 C1544 1.415 . S
C1543 C1542 1.355 . S
C1543 C1545 1.419 . S
C1544 C1542 1.415 . S
C1544 C1549 1.425 1_655 S
C1544 C1551 1.409 1_655 S
C1545 H1537 0.930 . S
C1545 C1543 1.419 . S
C1545 C1546 1.362 . S
C1546 H1538 0.930 1_655 S
C1546 C1545 1.362 . S
C1546 C1549 1.409 1_655 S
C1547 H1539 0.930 . S
C1547 C1548 1.355 . S
C1547 C1549 1.415 . S
C1548 C1547 1.355 . S
C1548 C1550 1.419 . S
C1549 C1544 1.425 1_455 S
C1549 C1546 1.409 1_455 S
C1549 C1547 1.415 . S
C1550 H1540 0.930 . S
C1550 C1548 1.419 . S
C1550 C1551 1.362 . S
C1551 H1541 0.930 1_455 S
C1551 C1544 1.409 1_455 S
C1551 C1550 1.362 . S
H1552 C1558 0.930 . S
H1553 C1561 0.930 . S
H1554 C1562 0.930 . S
H1555 C1563 0.930 . S
H1556 C1566 0.930 . S
H1557 C1567 0.930 . S
C1558 H1552 0.930 . S
C1558 C1559 1.355 . S
C1558 C1560 1.415 . S
C1559 C1558 1.355 . S
C1559 C1561 1.419 . S
C1560 C1558 1.415 . S
C1560 C1565 1.425 . S
C1560 C1567 1.409 . S
C1561 H1553 0.930 . S
C1561 C1559 1.419 . S
C1561 C1562 1.362 . S
C1562 H1554 0.930 . S
C1562 C1561 1.362 . S
C1562 C1565 1.409 . S
C1563 H1555 0.930 . S
C1563 C1564 1.355 . S
C1563 C1565 1.415 . S
C1564 C1563 1.355 . S
C1564 C1566 1.419 . S
C1565 C1560 1.425 . S
C1565 C1562 1.409 . S
C1565 C1563 1.415 . S
C1566 H1556 0.930 . S
C1566 C1564 1.419 . S
C1566 C1567 1.362 . S
C1567 H1557 0.930 . S
C1567 C1560 1.409 . S
C1567 C1566 1.362 . S
H1568 C1574 0.930 . S
H1569 C1577 0.930 . S
H1570 C1578 0.930 . S
H1571 C1579 0.930 . S
H1572 C1582 0.930 . S
H1573 C1583 0.930 . S
C1574 H1568 0.930 . S
C1574 C1575 1.355 . S
C1574 C1576 1.415 . S
C1575 C1574 1.355 . S
C1575 C1577 1.419 . S
C1576 C1574 1.415 . S
C1576 C1581 1.425 . S
C1576 C1583 1.409 . S
C1577 H1569 0.930 . S
C1577 C1575 1.419 . S
C1577 C1578 1.362 . S
C1578 H1570 0.930 . S
C1578 C1577 1.362 . S
C1578 C1581 1.409 . S
C1579 H1571 0.930 . S
C1579 C1580 1.355 . S
C1579 C1581 1.415 . S
C1580 C1579 1.355 . S
C1580 C1582 1.419 . S
C1581 C1576 1.425 . S
C1581 C1578 1.409 . S
C1581 C1579 1.415 . S
C1582 H1572 0.930 . S
C1582 C1580 1.419 . S
C1582 C1583 1.362 . S
C1583 H1573 0.930 . S
C1583 C1576 1.409 . S
C1583 C1582 1.362 . S
H1584 C1590 0.930 . S
H1585 C1593 0.930 1_556 S
H1586 C1594 0.930 . S
H1587 C1595 0.930 1_556 S
H1588 C1598 0.930 . S
H1589 C1599 0.930 . S
C1590 H1584 0.930 . S
C1590 C1591 1.355 . S
C1590 C1592 1.415 . S
C1591 C1590 1.355 . S
C1591 C1593 1.419 . S
C1592 C1590 1.415 . S
C1592 C1597 1.425 1_455 S
C1592 C1599 1.409 . S
C1593 H1585 0.930 1_554 S
C1593 C1591 1.419 . S
C1593 C1594 1.362 1_454 S
C1594 H1586 0.930 . S
C1594 C1593 1.362 1_656 S
C1594 C1597 1.409 1_556 S
C1595 H1587 0.930 1_554 S
C1595 C1596 1.355 . S
C1595 C1597 1.415 . S
C1596 C1595 1.355 . S
C1596 C1598 1.419 . S
C1597 C1592 1.425 1_655 S
C1597 C1594 1.409 1_554 S
C1597 C1595 1.415 . S
C1598 H1588 0.930 . S
C1598 C1596 1.419 . S
C1598 C1599 1.362 1_655 S
C1599 H1589 0.930 . S
C1599 C1592 1.409 . S
C1599 C1598 1.362 1_455 S
H1600 C1606 0.930 . S
H1601 C1609 0.930 . S
H1602 C1610 0.930 . S
H1603 C1611 0.930 . S
H1604 C1614 0.930 . S
H1605 C1615 0.930 . S
C1606 H1600 0.930 . S
C1606 C1607 1.355 . S
C1606 C1608 1.415 . S
C1607 C1606 1.355 . S
C1607 C1609 1.419 . S
C1608 C1606 1.415 . S
C1608 C1613 1.425 . S
C1608 C1615 1.409 . S
C1609 H1601 0.930 . S
C1609 C1607 1.419 . S
C1609 C1610 1.362 . S
C1610 H1602 0.930 . S
C1610 C1609 1.362 . S
C1610 C1613 1.409 . S
C1611 H1603 0.930 . S
C1611 C1612 1.355 . S
C1611 C1613 1.415 . S
C1612 C1611 1.355 . S
C1612 C1614 1.419 . S
C1613 C1608 1.425 . S
C1613 C1610 1.409 . S
C1613 C1611 1.415 . S
C1614 H1604 0.930 . S
C1614 C1612 1.419 . S
C1614 C1615 1.362 . S
C1615 H1605 0.930 . S
C1615 C1608 1.409 . S
C1615 C1614 1.362 . S
H1616 C1622 0.930 . S
H1617 C1625 0.930 . S
H1618 C1626 0.930 . S
H1619 C1627 0.930 . S
H1620 C1630 0.930 . S
H1621 C1631 0.930 . S
C1622 H1616 0.930 . S
C1622 C1623 1.355 . S
C1622 C1624 1.415 . S
C1623 C1622 1.355 . S
C1623 C1625 1.419 . S
C1624 C1622 1.415 . S
C1624 C1629 1.425 . S
C1624 C1631 1.409 . S
C1625 H1617 0.930 . S
C1625 C1623 1.419 . S
C1625 C1626 1.362 . S
C1626 H1618 0.930 . S
C1626 C1625 1.362 . S
C1626 C1629 1.409 . S
C1627 H1619 0.930 . S
C1627 C1628 1.355 . S
C1627 C1629 1.415 . S
C1628 C1627 1.355 . S
C1628 C1630 1.419 . S
C1629 C1624 1.425 . S
C1629 C1626 1.409 . S
C1629 C1627 1.415 . S
C1630 H1620 0.930 . S
C1630 C1628 1.419 . S
C1630 C1631 1.362 . S
C1631 H1621 0.930 . S
C1631 C1624 1.409 . S
C1631 C1630 1.362 . S
H1632 C1638 0.930 . S
H1633 C1641 0.930 . S
H1634 C1642 0.930 . S
H1635 C1643 0.930 . S
H1636 C1646 0.930 . S
H1637 C1647 0.930 . S
C1638 H1632 0.930 . S
C1638 C1639 1.355 . S
C1638 C1640 1.415 . S
C1639 C1638 1.355 . S
C1639 C1641 1.419 . S
C1640 C1638 1.415 . S
C1640 C1645 1.425 . S
C1640 C1647 1.409 . S
C1641 H1633 0.930 . S
C1641 C1639 1.419 . S
C1641 C1642 1.362 . S
C1642 H1634 0.930 . S
C1642 C1641 1.362 . S
C1642 C1645 1.409 . S
C1643 H1635 0.930 . S
C1643 C1644 1.355 . S
C1643 C1645 1.415 . S
C1644 C1643 1.355 . S
C1644 C1646 1.419 . S
C1645 C1640 1.425 . S
C1645 C1642 1.409 . S
C1645 C1643 1.415 . S
C1646 H1636 0.930 . S
C1646 C1644 1.419 . S
C1646 C1647 1.362 . S
C1647 H1637 0.930 . S
C1647 C1640 1.409 . S
C1647 C1646 1.362 . S
H1648 C1654 0.930 . S
H1649 C1657 0.930 . S
H1650 C1658 0.930 . S
H1651 C1659 0.930 . S
H1652 C1662 0.930 . S
H1653 C1663 0.930 . S
C1654 H1648 0.930 . S
C1654 C1655 1.355 . S
C1654 C1656 1.415 . S
C1655 C1654 1.355 . S
C1655 C1657 1.419 . S
C1656 C1654 1.415 . S
C1656 C1661 1.425 . S
C1656 C1663 1.409 . S
C1657 H1649 0.930 . S
C1657 C1655 1.419 . S
C1657 C1658 1.362 . S
C1658 H1650 0.930 . S
C1658 C1657 1.362 . S
C1658 C1661 1.409 . S
C1659 H1651 0.930 . S
C1659 C1660 1.355 . S
C1659 C1661 1.415 . S
C1660 C1659 1.355 . S
C1660 C1662 1.419 . S
C1661 C1656 1.425 . S
C1661 C1658 1.409 . S
C1661 C1659 1.415 . S
C1662 H1652 0.930 . S
C1662 C1660 1.419 . S
C1662 C1663 1.362 . S
C1663 H1653 0.930 . S
C1663 C1656 1.409 . S
C1663 C1662 1.362 . S
H1664 C1670 0.930 . S
H1665 C1673 0.930 . S
H1666 C1674 0.930 . S
H1667 C1675 0.930 . S
H1668 C1678 0.930 . S
H1669 C1679 0.930 . S
C1670 H1664 0.930 . S
C1670 C1671 1.355 . S
C1670 C1672 1.415 . S
C1671 C1670 1.355 . S
C1671 C1673 1.419 . S
C1672 C1670 1.415 . S
C1672 C1677 1.425 . S
C1672 C1679 1.409 . S
C1673 H1665 0.930 . S
C1673 C1671 1.419 . S
C1673 C1674 1.362 . S
C1674 H1666 0.930 . S
C1674 C1673 1.362 . S
C1674 C1677 1.409 . S
C1675 H1667 0.930 . S
C1675 C1676 1.355 . S
C1675 C1677 1.415 . S
C1676 C1675 1.355 . S
C1676 C1678 1.419 . S
C1677 C1672 1.425 . S
C1677 C1674 1.409 . S
C1677 C1675 1.415 . S
C1678 H1668 0.930 . S
C1678 C1676 1.419 . S
C1678 C1679 1.362 . S
C1679 H1669 0.930 . S
C1679 C1672 1.409 . S
C1679 C1678 1.362 . S
H1680 C1686 0.930 . S
H1681 C1689 0.930 . S
H1682 C1690 0.930 . S
H1683 C1691 0.930 . S
H1684 C1694 0.930 . S
H1685 C1695 0.930 . S
C1686 H1680 0.930 . S
C1686 C1687 1.355 . S
C1686 C1688 1.415 . S
C1687 C1686 1.355 . S
C1687 C1689 1.419 . S
C1688 C1686 1.415 . S
C1688 C1693 1.425 . S
C1688 C1695 1.409 . S
C1689 H1681 0.930 . S
C1689 C1687 1.419 . S
C1689 C1690 1.362 . S
C1690 H1682 0.930 . S
C1690 C1689 1.362 . S
C1690 C1693 1.409 . S
C1691 H1683 0.930 . S
C1691 C1692 1.355 . S
C1691 C1693 1.415 . S
C1692 C1691 1.355 . S
C1692 C1694 1.419 . S
C1693 C1688 1.425 . S
C1693 C1690 1.409 . S
C1693 C1691 1.415 . S
C1694 H1684 0.930 . S
C1694 C1692 1.419 . S
C1694 C1695 1.362 . S
C1695 H1685 0.930 . S
C1695 C1688 1.409 . S
C1695 C1694 1.362 . S
H1696 C1702 0.930 . S
H1697 C1705 0.930 . S
H1698 C1706 0.930 . S
H1699 C1707 0.930 . S
H1700 C1710 0.930 . S
H1701 C1711 0.930 . S
C1702 H1696 0.930 . S
C1702 C1703 1.355 . S
C1702 C1704 1.415 . S
C1703 C1702 1.355 . S
C1703 C1705 1.419 . S
C1704 C1702 1.415 . S
C1704 C1709 1.425 . S
C1704 C1711 1.409 . S
C1705 H1697 0.930 . S
C1705 C1703 1.419 . S
C1705 C1706 1.362 . S
C1706 H1698 0.930 . S
C1706 C1705 1.362 . S
C1706 C1709 1.409 . S
C1707 H1699 0.930 . S
C1707 C1708 1.355 . S
C1707 C1709 1.415 . S
C1708 C1707 1.355 . S
C1708 C1710 1.419 . S
C1709 C1704 1.425 . S
C1709 C1706 1.409 . S
C1709 C1707 1.415 . S
C1710 H1700 0.930 . S
C1710 C1708 1.419 . S
C1710 C1711 1.362 . S
C1711 H1701 0.930 . S
C1711 C1704 1.409 . S
C1711 C1710 1.362 . S
H1712 C1718 0.930 . S
H1713 C1721 0.930 . S
H1714 C1722 0.930 . S
H1715 C1723 0.930 . S
H1716 C1726 0.930 . S
H1717 C1727 0.930 . S
C1718 H1712 0.930 . S
C1718 C1719 1.355 . S
C1718 C1720 1.415 . S
C1719 C1718 1.355 . S
C1719 C1721 1.419 . S
C1720 C1718 1.415 . S
C1720 C1725 1.425 . S
C1720 C1727 1.409 . S
C1721 H1713 0.930 . S
C1721 C1719 1.419 . S
C1721 C1722 1.362 . S
C1722 H1714 0.930 . S
C1722 C1721 1.362 . S
C1722 C1725 1.409 . S
C1723 H1715 0.930 . S
C1723 C1724 1.355 . S
C1723 C1725 1.415 . S
C1724 C1723 1.355 . S
C1724 C1726 1.419 . S
C1725 C1720 1.425 . S
C1725 C1722 1.409 . S
C1725 C1723 1.415 . S
C1726 H1716 0.930 . S
C1726 C1724 1.419 . S
C1726 C1727 1.362 . S
C1727 H1717 0.930 . S
C1727 C1720 1.409 . S
C1727 C1726 1.362 . S
H1728 C1734 0.930 . S
H1729 C1737 0.930 . S
H1730 C1738 0.930 . S
H1731 C1739 0.930 . S
H1732 C1742 0.930 . S
H1733 C1743 0.930 . S
C1734 H1728 0.930 . S
C1734 C1735 1.355 . S
C1734 C1736 1.415 . S
C1735 C1734 1.355 . S
C1735 C1737 1.419 . S
C1736 C1734 1.415 . S
C1736 C1741 1.425 . S
C1736 C1743 1.409 . S
C1737 H1729 0.930 . S
C1737 C1735 1.419 . S
C1737 C1738 1.362 . S
C1738 H1730 0.930 . S
C1738 C1737 1.362 . S
C1738 C1741 1.409 . S
C1739 H1731 0.930 . S
C1739 C1740 1.355 . S
C1739 C1741 1.415 . S
C1740 C1739 1.355 . S
C1740 C1742 1.419 . S
C1741 C1736 1.425 . S
C1741 C1738 1.409 . S
C1741 C1739 1.415 . S
C1742 H1732 0.930 . S
C1742 C1740 1.419 . S
C1742 C1743 1.362 . S
C1743 H1733 0.930 . S
C1743 C1736 1.409 . S
C1743 C1742 1.362 . S
H1744 C1750 0.930 . S
H1745 C1753 0.930 . S
H1746 C1754 0.930 . S
H1747 C1755 0.930 . S
H1748 C1758 0.930 . S
H1749 C1759 0.930 . S
C1750 H1744 0.930 . S
C1750 C1751 1.355 . S
C1750 C1752 1.415 . S
C1751 C1750 1.355 . S
C1751 C1753 1.419 . S
C1752 C1750 1.415 . S
C1752 C1757 1.425 . S
C1752 C1759 1.409 . S
C1753 H1745 0.930 . S
C1753 C1751 1.419 . S
C1753 C1754 1.362 . S
C1754 H1746 0.930 . S
C1754 C1753 1.362 . S
C1754 C1757 1.409 . S
C1755 H1747 0.930 . S
C1755 C1756 1.355 . S
C1755 C1757 1.415 . S
C1756 C1755 1.355 . S
C1756 C1758 1.419 . S
C1757 C1752 1.425 . S
C1757 C1754 1.409 . S
C1757 C1755 1.415 . S
C1758 H1748 0.930 . S
C1758 C1756 1.419 . S
C1758 C1759 1.362 . S
C1759 H1749 0.930 . S
C1759 C1752 1.409 . S
C1759 C1758 1.362 . S
H1760 C1766 0.930 . S
H1761 C1769 0.930 . S
H1762 C1770 0.930 . S
H1763 C1771 0.930 . S
H1764 C1774 0.930 . S
H1765 C1775 0.930 . S
C1766 H1760 0.930 . S
C1766 C1767 1.355 . S
C1766 C1768 1.415 . S
C1767 C1766 1.355 . S
C1767 C1769 1.419 . S
C1768 C1766 1.415 . S
C1768 C1773 1.425 . S
C1768 C1775 1.409 . S
C1769 H1761 0.930 . S
C1769 C1767 1.419 . S
C1769 C1770 1.362 . S
C1770 H1762 0.930 . S
C1770 C1769 1.362 . S
C1770 C1773 1.409 . S
C1771 H1763 0.930 . S
C1771 C1772 1.355 . S
C1771 C1773 1.415 . S
C1772 C1771 1.355 . S
C1772 C1774 1.419 . S
C1773 C1768 1.425 . S
C1773 C1770 1.409 . S
C1773 C1771 1.415 . S
C1774 H1764 0.930 . S
C1774 C1772 1.419 . S
C1774 C1775 1.362 . S
C1775 H1765 0.930 . S
C1775 C1768 1.409 . S
C1775 C1774 1.362 . S
H1776 C1782 0.930 . S
H1777 C1785 0.930 . S
H1778 C1786 0.930 . S
H1779 C1787 0.930 . S
H1780 C1790 0.930 . S
H1781 C1791 0.930 . S
C1782 H1776 0.930 . S
C1782 C1783 1.355 . S
C1782 C1784 1.415 . S
C1783 C1782 1.355 . S
C1783 C1785 1.419 . S
C1784 C1782 1.415 . S
C1784 C1789 1.425 . S
C1784 C1791 1.409 . S
C1785 H1777 0.930 . S
C1785 C1783 1.419 . S
C1785 C1786 1.362 . S
C1786 H1778 0.930 . S
C1786 C1785 1.362 . S
C1786 C1789 1.409 . S
C1787 H1779 0.930 . S
C1787 C1788 1.355 . S
C1787 C1789 1.415 . S
C1788 C1787 1.355 . S
C1788 C1790 1.419 . S
C1789 C1784 1.425 . S
C1789 C1786 1.409 . S
C1789 C1787 1.415 . S
C1790 H1780 0.930 . S
C1790 C1788 1.419 . S
C1790 C1791 1.362 . S
C1791 H1781 0.930 . S
C1791 C1784 1.409 . S
C1791 C1790 1.362 . S
H1792 C1798 0.930 . S
H1793 C1801 0.930 . S
H1794 C1802 0.930 . S
H1795 C1803 0.930 . S
H1796 C1806 0.930 . S
H1797 C1807 0.930 . S
C1798 H1792 0.930 . S
C1798 C1799 1.355 . S
C1798 C1800 1.415 . S
C1799 C1798 1.355 . S
C1799 C1801 1.419 . S
C1800 C1798 1.415 . S
C1800 C1805 1.425 . S
C1800 C1807 1.409 . S
C1801 H1793 0.930 . S
C1801 C1799 1.419 . S
C1801 C1802 1.362 . S
C1802 H1794 0.930 . S
C1802 C1801 1.362 . S
C1802 C1805 1.409 . S
C1803 H1795 0.930 . S
C1803 C1804 1.355 . S
C1803 C1805 1.415 . S
C1804 C1803 1.355 . S
C1804 C1806 1.419 . S
C1805 C1800 1.425 . S
C1805 C1802 1.409 . S
C1805 C1803 1.415 . S
C1806 H1796 0.930 . S
C1806 C1804 1.419 . S
C1806 C1807 1.362 . S
C1807 H1797 0.930 . S
C1807 C1800 1.409 . S
C1807 C1806 1.362 . S
H1808 C1814 0.930 . S
H1809 C1817 0.930 . S
H1810 C1818 0.930 . S
H1811 C1819 0.930 . S
H1812 C1822 0.930 . S
H1813 C1823 0.930 . S
C1814 H1808 0.930 . S
C1814 C1815 1.355 . S
C1814 C1816 1.415 . S
C1815 C1814 1.355 . S
C1815 C1817 1.419 . S
C1816 C1814 1.415 . S
C1816 C1821 1.425 . S
C1816 C1823 1.409 . S
C1817 H1809 0.930 . S
C1817 C1815 1.419 . S
C1817 C1818 1.362 . S
C1818 H1810 0.930 . S
C1818 C1817 1.362 . S
C1818 C1821 1.409 . S
C1819 H1811 0.930 . S
C1819 C1820 1.355 . S
C1819 C1821 1.415 . S
C1820 C1819 1.355 . S
C1820 C1822 1.419 . S
C1821 C1816 1.425 . S
C1821 C1818 1.409 . S
C1821 C1819 1.415 . S
C1822 H1812 0.930 . S
C1822 C1820 1.419 . S
C1822 C1823 1.362 . S
C1823 H1813 0.930 . S
C1823 C1816 1.409 . S
C1823 C1822 1.362 . S
H1824 C1830 0.930 . S
H1825 C1833 0.930 . S
H1826 C1834 0.930 . S
H1827 C1835 0.930 . S
H1828 C1838 0.930 . S
H1829 C1839 0.930 . S
C1830 H1824 0.930 . S
C1830 C1831 1.355 . S
C1830 C1832 1.415 . S
C1831 C1830 1.355 . S
C1831 C1833 1.419 . S
C1832 C1830 1.415 . S
C1832 C1837 1.425 . S
C1832 C1839 1.409 . S
C1833 H1825 0.930 . S
C1833 C1831 1.419 . S
C1833 C1834 1.362 . S
C1834 H1826 0.930 . S
C1834 C1833 1.362 . S
C1834 C1837 1.409 . S
C1835 H1827 0.930 . S
C1835 C1836 1.355 . S
C1835 C1837 1.415 . S
C1836 C1835 1.355 . S
C1836 C1838 1.419 . S
C1837 C1832 1.425 . S
C1837 C1834 1.409 . S
C1837 C1835 1.415 . S
C1838 H1828 0.930 . S
C1838 C1836 1.419 . S
C1838 C1839 1.362 . S
C1839 H1829 0.930 . S
C1839 C1832 1.409 . S
C1839 C1838 1.362 . S
H1840 C1846 0.930 . S
H1841 C1849 0.930 . S
H1842 C1850 0.930 . S
H1843 C1851 0.930 . S
H1844 C1854 0.930 1_655 S
H1845 C1855 0.930 . S
C1846 H1840 0.930 . S
C1846 C1847 1.355 . S
C1846 C1848 1.415 . S
C1847 C1846 1.355 . S
C1847 C1849 1.419 . S
C1848 C1846 1.415 . S
C1848 C1853 1.425 . S
C1848 C1855 1.409 . S
C1849 H1841 0.930 . S
C1849 C1847 1.419 . S
C1849 C1850 1.362 . S
C1850 H1842 0.930 . S
C1850 C1849 1.362 . S
C1850 C1853 1.409 . S
C1851 H1843 0.930 . S
C1851 C1852 1.355 . S
C1851 C1853 1.415 . S
C1852 C1851 1.355 . S
C1852 C1854 1.419 . S
C1853 C1848 1.425 . S
C1853 C1850 1.409 . S
C1853 C1851 1.415 . S
C1854 H1844 0.930 1_455 S
C1854 C1852 1.419 . S
C1854 C1855 1.362 . S
C1855 H1845 0.930 . S
C1855 C1848 1.409 . S
C1855 C1854 1.362 . S
H1856 C1862 0.930 . S
H1857 C1865 0.930 . S
H1858 C1866 0.930 . S
H1859 C1867 0.930 . S
H1860 C1870 0.930 . S
H1861 C1871 0.930 . S
C1862 H1856 0.930 . S
C1862 C1863 1.355 . S
C1862 C1864 1.415 . S
C1863 C1862 1.355 . S
C1863 C1865 1.419 . S
C1864 C1862 1.415 . S
C1864 C1869 1.425 . S
C1864 C1871 1.409 . S
C1865 H1857 0.930 . S
C1865 C1863 1.419 . S
C1865 C1866 1.362 . S
C1866 H1858 0.930 . S
C1866 C1865 1.362 . S
C1866 C1869 1.409 . S
C1867 H1859 0.930 . S
C1867 C1868 1.355 . S
C1867 C1869 1.415 . S
C1868 C1867 1.355 . S
C1868 C1870 1.419 . S
C1869 C1864 1.425 . S
C1869 C1866 1.409 . S
C1869 C1867 1.415 . S
C1870 H1860 0.930 . S
C1870 C1868 1.419 . S
C1870 C1871 1.362 . S
C1871 H1861 0.930 . S
C1871 C1864 1.409 . S
C1871 C1870 1.362 . S
H1872 C1878 0.930 . S
H1873 C1881 0.930 . S
H1874 C1882 0.930 . S
H1875 C1883 0.930 . S
H1876 C1886 0.930 . S
H1877 C1887 0.930 . S
C1878 H1872 0.930 . S
C1878 C1879 1.355 . S
C1878 C1880 1.415 . S
C1879 C1878 1.355 . S
C1879 C1881 1.419 . S
C1880 C1878 1.415 . S
C1880 C1885 1.425 . S
C1880 C1887 1.409 . S
C1881 H1873 0.930 . S
C1881 C1879 1.419 . S
C1881 C1882 1.362 . S
C1882 H1874 0.930 . S
C1882 C1881 1.362 . S
C1882 C1885 1.409 . S
C1883 H1875 0.930 . S
C1883 C1884 1.355 . S
C1883 C1885 1.415 . S
C1884 C1883 1.355 . S
C1884 C1886 1.419 . S
C1885 C1880 1.425 . S
C1885 C1882 1.409 . S
C1885 C1883 1.415 . S
C1886 H1876 0.930 . S
C1886 C1884 1.419 . S
C1886 C1887 1.362 . S
C1887 H1877 0.930 . S
C1887 C1880 1.409 . S
C1887 C1886 1.362 . S
H1888 C1894 0.930 . S
H1889 C1897 0.930 . S
H1890 C1898 0.930 . S
H1891 C1899 0.930 . S
H1892 C1902 0.930 . S
H1893 C1903 0.930 . S
C1894 H1888 0.930 . S
C1894 C1895 1.355 . S
C1894 C1896 1.415 . S
C1895 C1894 1.355 . S
C1895 C1897 1.419 . S
C1896 C1894 1.415 . S
C1896 C1901 1.425 . S
C1896 C1903 1.409 . S
C1897 H1889 0.930 . S
C1897 C1895 1.419 . S
C1897 C1898 1.362 . S
C1898 H1890 0.930 . S
C1898 C1897 1.362 . S
C1898 C1901 1.409 . S
C1899 H1891 0.930 . S
C1899 C1900 1.355 . S
C1899 C1901 1.415 . S
C1900 C1899 1.355 . S
C1900 C1902 1.419 . S
C1901 C1896 1.425 . S
C1901 C1898 1.409 . S
C1901 C1899 1.415 . S
C1902 H1892 0.930 . S
C1902 C1900 1.419 . S
C1902 C1903 1.362 . S
C1903 H1893 0.930 . S
C1903 C1896 1.409 . S
C1903 C1902 1.362 . S
H1904 C1910 0.930 . S
H1905 C1913 0.930 . S
H1906 C1914 0.930 . S
H1907 C1915 0.930 . S
H1908 C1918 0.930 . S
H1909 C1919 0.930 . S
C1910 H1904 0.930 . S
C1910 C1911 1.355 . S
C1910 C1912 1.415 . S
C1911 C1910 1.355 . S
C1911 C1913 1.419 . S
C1912 C1910 1.415 . S
C1912 C1917 1.425 . S
C1912 C1919 1.409 . S
C1913 H1905 0.930 . S
C1913 C1911 1.419 . S
C1913 C1914 1.362 . S
C1914 H1906 0.930 . S
C1914 C1913 1.362 . S
C1914 C1917 1.409 . S
C1915 H1907 0.930 . S
C1915 C1916 1.355 . S
C1915 C1917 1.415 . S
C1916 C1915 1.355 . S
C1916 C1918 1.419 . S
C1917 C1912 1.425 . S
C1917 C1914 1.409 . S
C1917 C1915 1.415 . S
C1918 H1908 0.930 . S
C1918 C1916 1.419 . S
C1918 C1919 1.362 . S
C1919 H1909 0.930 . S
C1919 C1912 1.409 . S
C1919 C1918 1.362 . S
H1920 C1926 0.930 . S
H1921 C1929 0.930 . S
H1922 C1930 0.930 . S
H1923 C1931 0.930 . S
H1924 C1934 0.930 . S
H1925 C1935 0.930 . S
C1926 H1920 0.930 . S
C1926 C1927 1.355 . S
C1926 C1928 1.415 . S
C1927 C1926 1.355 . S
C1927 C1929 1.419 . S
C1928 C1926 1.415 . S
C1928 C1933 1.425 . S
C1928 C1935 1.409 . S
C1929 H1921 0.930 . S
C1929 C1927 1.419 . S
C1929 C1930 1.362 . S
C1930 H1922 0.930 . S
C1930 C1929 1.362 . S
C1930 C1933 1.409 . S
C1931 H1923 0.930 . S
C1931 C1932 1.355 . S
C1931 C1933 1.415 . S
C1932 C1931 1.355 . S
C1932 C1934 1.419 . S
C1933 C1928 1.425 . S
C1933 C1930 1.409 . S
C1933 C1931 1.415 . S
C1934 H1924 0.930 . S
C1934 C1932 1.419 . S
C1934 C1935 1.362 . S
C1935 H1925 0.930 . S
C1935 C1928 1.409 . S
C1935 C1934 1.362 . S
H1936 C1942 0.930 . S
H1937 C1945 0.930 . S
H1938 C1946 0.930 . S
H1939 C1947 0.930 . S
H1940 C1950 0.930 . S
H1941 C1951 0.930 . S
C1942 H1936 0.930 . S
C1942 C1943 1.355 . S
C1942 C1944 1.415 . S
C1943 C1942 1.355 . S
C1943 C1945 1.419 . S
C1944 C1942 1.415 . S
C1944 C1949 1.425 . S
C1944 C1951 1.409 . S
C1945 H1937 0.930 . S
C1945 C1943 1.419 . S
C1945 C1946 1.362 . S
C1946 H1938 0.930 . S
C1946 C1945 1.362 . S
C1946 C1949 1.409 . S
C1947 H1939 0.930 . S
C1947 C1948 1.355 . S
C1947 C1949 1.415 . S
C1948 C1947 1.355 . S
C1948 C1950 1.419 . S
C1949 C1944 1.425 . S
C1949 C1946 1.409 . S
C1949 C1947 1.415 . S
C1950 H1940 0.930 . S
C1950 C1948 1.419 . S
C1950 C1951 1.362 . S
C1951 H1941 0.930 . S
C1951 C1944 1.409 . S
C1951 C1950 1.362 . S
H1952 C1958 0.930 . S
H1953 C1961 0.930 . S
H1954 C1962 0.930 . S
H1955 C1963 0.930 . S
H1956 C1966 0.930 . S
H1957 C1967 0.930 . S
C1958 H1952 0.930 . S
C1958 C1959 1.355 . S
C1958 C1960 1.415 . S
C1959 C1958 1.355 . S
C1959 C1961 1.419 . S
C1960 C1958 1.415 . S
C1960 C1965 1.425 . S
C1960 C1967 1.409 . S
C1961 H1953 0.930 . S
C1961 C1959 1.419 . S
C1961 C1962 1.362 . S
C1962 H1954 0.930 . S
C1962 C1961 1.362 . S
C1962 C1965 1.409 . S
C1963 H1955 0.930 . S
C1963 C1964 1.355 . S
C1963 C1965 1.415 . S
C1964 C1963 1.355 . S
C1964 C1966 1.419 . S
C1965 C1960 1.425 . S
C1965 C1962 1.409 . S
C1965 C1963 1.415 . S
C1966 H1956 0.930 . S
C1966 C1964 1.419 . S
C1966 C1967 1.362 . S
C1967 H1957 0.930 . S
C1967 C1960 1.409 . S
C1967 C1966 1.362 . S
H1968 C1974 0.930 . S
H1969 C1977 0.930 . S
H1970 C1978 0.930 . S
H1971 C1979 0.930 . S
H1972 C1982 0.930 . S
H1973 C1983 0.930 . S
C1974 H1968 0.930 . S
C1974 C1975 1.355 . S
C1974 C1976 1.415 . S
C1975 C1974 1.355 . S
C1975 C1977 1.419 . S
C1976 C1974 1.415 . S
C1976 C1981 1.425 . S
C1976 C1983 1.409 . S
C1977 H1969 0.930 . S
C1977 C1975 1.419 . S
C1977 C1978 1.362 . S
C1978 H1970 0.930 . S
C1978 C1977 1.362 . S
C1978 C1981 1.409 . S
C1979 H1971 0.930 . S
C1979 C1980 1.355 . S
C1979 C1981 1.415 . S
C1980 C1979 1.355 . S
C1980 C1982 1.419 . S
C1981 C1976 1.425 . S
C1981 C1978 1.409 . S
C1981 C1979 1.415 . S
C1982 H1972 0.930 . S
C1982 C1980 1.419 . S
C1982 C1983 1.362 . S
C1983 H1973 0.930 . S
C1983 C1976 1.409 . S
C1983 C1982 1.362 . S
H1984 C1990 0.930 . S
H1985 C1993 0.930 . S
H1986 C1994 0.930 . S
H1987 C1995 0.930 . S
H1988 C1998 0.930 . S
H1989 C1999 0.930 . S
C1990 H1984 0.930 . S
C1990 C1991 1.355 . S
C1990 C1992 1.415 . S
C1991 C1990 1.355 . S
C1991 C1993 1.419 . S
C1992 C1990 1.415 . S
C1992 C1997 1.425 . S
C1992 C1999 1.409 . S
C1993 H1985 0.930 . S
C1993 C1991 1.419 . S
C1993 C1994 1.362 . S
C1994 H1986 0.930 . S
C1994 C1993 1.362 . S
C1994 C1997 1.409 . S
C1995 H1987 0.930 . S
C1995 C1996 1.355 . S
C1995 C1997 1.415 . S
C1996 C1995 1.355 . S
C1996 C1998 1.419 . S
C1997 C1992 1.425 . S
C1997 C1994 1.409 . S
C1997 C1995 1.415 . S
C1998 H1988 0.930 . S
C1998 C1996 1.419 . S
C1998 C1999 1.362 . S
C1999 H1989 0.930 . S
C1999 C1992 1.409 . S
C1999 C1998 1.362 . S
H2000 C2006 0.930 . S
H2001 C2009 0.930 . S
H2002 C2010 0.930 . S
H2003 C2011 0.930 . S
H2004 C2014 0.930 . S
H2005 C2015 0.930 . S
C2006 H2000 0.930 . S
C2006 C2007 1.355 . S
C2006 C2008 1.415 . S
C2007 C2006 1.355 . S
C2007 C2009 1.419 . S
C2008 C2006 1.415 . S
C2008 C2013 1.425 . S
C2008 C2015 1.409 . S
C2009 H2001 0.930 . S
C2009 C2007 1.419 . S
C2009 C2010 1.362 . S
C2010 H2002 0.930 . S
C2010 C2009 1.362 . S
C2010 C2013 1.409 . S
C2011 H2003 0.930 . S
C2011 C2012 1.355 . S
C2011 C2013 1.415 . S
C2012 C2011 1.355 . S
C2012 C2014 1.419 . S
C2013 C2008 1.425 . S
C2013 C2010 1.409 . S
C2013 C2011 1.415 . S
C2014 H2004 0.930 . S
C2014 C2012 1.419 . S
C2014 C2015 1.362 . S
C2015 H2005 0.930 . S
C2015 C2008 1.409 . S
C2015 C2014 1.362 . S
H2016 C2022 0.930 . S
H2017 C2025 0.930 . S
H2018 C2026 0.930 . S
H2019 C2027 0.930 . S
H2020 C2030 0.930 . S
H2021 C2031 0.930 . S
C2022 H2016 0.930 . S
C2022 C2023 1.355 . S
C2022 C2024 1.415 . S
C2023 C2022 1.355 . S
C2023 C2025 1.419 . S
C2024 C2022 1.415 . S
C2024 C2029 1.425 . S
C2024 C2031 1.409 . S
C2025 H2017 0.930 . S
C2025 C2023 1.419 . S
C2025 C2026 1.362 . S
C2026 H2018 0.930 . S
C2026 C2025 1.362 . S
C2026 C2029 1.409 . S
C2027 H2019 0.930 . S
C2027 C2028 1.355 . S
C2027 C2029 1.415 . S
C2028 C2027 1.355 . S
C2028 C2030 1.419 . S
C2029 C2024 1.425 . S
C2029 C2026 1.409 . S
C2029 C2027 1.415 . S
C2030 H2020 0.930 . S
C2030 C2028 1.419 . S
C2030 C2031 1.362 . S
C2031 H2021 0.930 . S
C2031 C2024 1.409 . S
C2031 C2030 1.362 . S
H2032 C2038 0.930 . S
H2033 C2041 0.930 . S
H2034 C2042 0.930 . S
H2035 C2043 0.930 . S
H2036 C2046 0.930 . S
H2037 C2047 0.930 . S
C2038 H2032 0.930 . S
C2038 C2039 1.355 . S
C2038 C2040 1.415 . S
C2039 C2038 1.355 . S
C2039 C2041 1.419 . S
C2040 C2038 1.415 . S
C2040 C2045 1.425 . S
C2040 C2047 1.409 . S
C2041 H2033 0.930 . S
C2041 C2039 1.419 . S
C2041 C2042 1.362 . S
C2042 H2034 0.930 . S
C2042 C2041 1.362 . S
C2042 C2045 1.409 . S
C2043 H2035 0.930 . S
C2043 C2044 1.355 . S
C2043 C2045 1.415 . S
C2044 C2043 1.355 . S
C2044 C2046 1.419 . S
C2045 C2040 1.425 . S
C2045 C2042 1.409 . S
C2045 C2043 1.415 . S
C2046 H2036 0.930 . S
C2046 C2044 1.419 . S
C2046 C2047 1.362 . S
C2047 H2037 0.930 . S
C2047 C2040 1.409 . S
C2047 C2046 1.362 . S
H2048 C2054 0.930 . S
H2049 C2057 0.930 . S
H2050 C2058 0.930 . S
H2051 C2059 0.930 . S
H2052 C2062 0.930 . S
H2053 C2063 0.930 . S
C2054 H2048 0.930 . S
C2054 C2055 1.355 . S
C2054 C2056 1.415 . S
C2055 C2054 1.355 . S
C2055 C2057 1.419 . S
C2056 C2054 1.415 . S
C2056 C2061 1.425 . S
C2056 C2063 1.409 . S
C2057 H2049 0.930 . S
C2057 C2055 1.419 . S
C2057 C2058 1.362 . S
C2058 H2050 0.930 . S
C2058 C2057 1.362 . S
C2058 C2061 1.409 . S
C2059 H2051 0.930 . S
C2059 C2060 1.355 . S
C2059 C2061 1.415 . S
C2060 C2059 1.355 . S
C2060 C2062 1.419 . S
C2061 C2056 1.425 . S
C2061 C2058 1.409 . S
C2061 C2059 1.415 . S
C2062 H2052 0.930 . S
C2062 C2060 1.419 . S
C2062 C2063 1.362 . S
C2063 H2053 0.930 . S
C2063 C2056 1.409 . S
C2063 C2062 1.362 . S
H2064 C2070 0.930 . S
H2065 C2073 0.930 . S
H2066 C2074 0.930 . S
H2067 C2075 0.930 . S
H2068 C2078 0.930 . S
H2069 C2079 0.930 . S
C2070 H2064 0.930 . S
C2070 C2071 1.355 . S
C2070 C2072 1.415 . S
C2071 C2070 1.355 . S
C2071 C2073 1.419 . S
C2072 C2070 1.415 . S
C2072 C2077 1.425 . S
C2072 C2079 1.409 . S
C2073 H2065 0.930 . S
C2073 C2071 1.419 . S
C2073 C2074 1.362 . S
C2074 H2066 0.930 . S
C2074 C2073 1.362 . S
C2074 C2077 1.409 . S
C2075 H2067 0.930 . S
C2075 C2076 1.355 . S
C2075 C2077 1.415 . S
C2076 C2075 1.355 . S
C2076 C2078 1.419 . S
C2077 C2072 1.425 . S
C2077 C2074 1.409 . S
C2077 C2075 1.415 . S
C2078 H2068 0.930 . S
C2078 C2076 1.419 . S
C2078 C2079 1.362 . S
C2079 H2069 0.930 . S
C2079 C2072 1.409 . S
C2079 C2078 1.362 . S
H2080 C2086 0.930 . S
H2081 C2089 0.930 . S
H2082 C2090 0.930 . S
H2083 C2091 0.930 . S
H2084 C2094 0.930 . S
H2085 C2095 0.930 . S
C2086 H2080 0.930 . S
C2086 C2087 1.355 . S
C2086 C2088 1.415 . S
C2087 C2086 1.355 . S
C2087 C2089 1.419 . S
C2088 C2086 1.415 . S
C2088 C2093 1.425 . S
C2088 C2095 1.409 . S
C2089 H2081 0.930 . S
C2089 C2087 1.419 . S
C2089 C2090 1.362 . S
C2090 H2082 0.930 . S
C2090 C2089 1.362 . S
C2090 C2093 1.409 . S
C2091 H2083 0.930 . S
C2091 C2092 1.355 . S
C2091 C2093 1.415 . S
C2092 C2091 1.355 . S
C2092 C2094 1.419 . S
C2093 C2088 1.425 . S
C2093 C2090 1.409 . S
C2093 C2091 1.415 . S
C2094 H2084 0.930 . S
C2094 C2092 1.419 . S
C2094 C2095 1.362 . S
C2095 H2085 0.930 . S
C2095 C2088 1.409 . S
C2095 C2094 1.362 . S
H2096 C2102 0.930 . S
H2097 C2105 0.930 . S
H2098 C2106 0.930 . S
H2099 C2107 0.930 . S
H2100 C2110 0.930 . S
H2101 C2111 0.930 . S
C2102 H2096 0.930 . S
C2102 C2103 1.355 . S
C2102 C2104 1.415 . S
C2103 C2102 1.355 . S
C2103 C2105 1.419 . S
C2104 C2102 1.415 . S
C2104 C2109 1.425 . S
C2104 C2111 1.409 . S
C2105 H2097 0.930 . S
C2105 C2103 1.419 . S
C2105 C2106 1.362 . S
C2106 H2098 0.930 . S
C2106 C2105 1.362 . S
C2106 C2109 1.409 . S
C2107 H2099 0.930 . S
C2107 C2108 1.355 . S
C2107 C2109 1.415 . S
C2108 C2107 1.355 . S
C2108 C2110 1.419 . S
C2109 C2104 1.425 . S
C2109 C2106 1.409 . S
C2109 C2107 1.415 . S
C2110 H2100 0.930 . S
C2110 C2108 1.419 . S
C2110 C2111 1.362 . S
C2111 H2101 0.930 . S
C2111 C2104 1.409 . S
C2111 C2110 1.362 . S
H2112 C2118 0.930 . S
H2113 C2121 0.930 . S
H2114 C2122 0.930 . S
H2115 C2123 0.930 . S
H2116 C2126 0.930 . S
H2117 C2127 0.930 . S
C2118 H2112 0.930 . S
C2118 C2119 1.355 . S
C2118 C2120 1.415 . S
C2119 C2118 1.355 . S
C2119 C2121 1.419 . S
C2120 C2118 1.415 . S
C2120 C2125 1.425 . S
C2120 C2127 1.409 . S
C2121 H2113 0.930 . S
C2121 C2119 1.419 . S
C2121 C2122 1.362 . S
C2122 H2114 0.930 . S
C2122 C2121 1.362 . S
C2122 C2125 1.409 . S
C2123 H2115 0.930 . S
C2123 C2124 1.355 . S
C2123 C2125 1.415 . S
C2124 C2123 1.355 . S
C2124 C2126 1.419 . S
C2125 C2120 1.425 . S
C2125 C2122 1.409 . S
C2125 C2123 1.415 . S
C2126 H2116 0.930 . S
C2126 C2124 1.419 . S
C2126 C2127 1.362 . S
C2127 H2117 0.930 . S
C2127 C2120 1.409 . S
C2127 C2126 1.362 . S
H2128 C2134 0.930 . S
H2129 C2137 0.930 . S
H2130 C2138 0.930 . S
H2131 C2139 0.930 . S
H2132 C2142 0.930 . S
H2133 C2143 0.930 . S
C2134 H2128 0.930 . S
C2134 C2135 1.355 . S
C2134 C2136 1.415 . S
C2135 C2134 1.355 . S
C2135 C2137 1.419 . S
C2136 C2134 1.415 . S
C2136 C2141 1.425 1_465 S
C2136 C2143 1.409 1_565 S
C2137 H2129 0.930 . S
C2137 C2135 1.419 . S
C2137 C2138 1.362 1_455 S
C2138 H2130 0.930 . S
C2138 C2137 1.362 1_655 S
C2138 C2141 1.409 1_565 S
C2139 H2131 0.930 . S
C2139 C2140 1.355 . S
C2139 C2141 1.415 . S
C2140 C2139 1.355 . S
C2140 C2142 1.419 . S
C2141 C2136 1.425 1_645 S
C2141 C2138 1.409 1_545 S
C2141 C2139 1.415 . S
C2142 H2132 0.930 . S
C2142 C2140 1.419 . S
C2142 C2143 1.362 1_655 S
C2143 H2133 0.930 . S
C2143 C2136 1.409 1_545 S
C2143 C2142 1.362 1_455 S
H2144 C2150 0.930 . S
H2145 C2153 0.930 . S
H2146 C2154 0.930 . S
H2147 C2155 0.930 . S
H2148 C2158 0.930 . S
H2149 C2159 0.930 . S
C2150 H2144 0.930 . S
C2150 C2151 1.355 . S
C2150 C2152 1.415 . S
C2151 C2150 1.355 . S
C2151 C2153 1.419 . S
C2152 C2150 1.415 . S
C2152 C2157 1.425 . S
C2152 C2159 1.409 . S
C2153 H2145 0.930 . S
C2153 C2151 1.419 . S
C2153 C2154 1.362 . S
C2154 H2146 0.930 . S
C2154 C2153 1.362 . S
C2154 C2157 1.409 . S
C2155 H2147 0.930 . S
C2155 C2156 1.355 . S
C2155 C2157 1.415 . S
C2156 C2155 1.355 . S
C2156 C2158 1.419 . S
C2157 C2152 1.425 . S
C2157 C2154 1.409 . S
C2157 C2155 1.415 . S
C2158 H2148 0.930 . S
C2158 C2156 1.419 . S
C2158 C2159 1.362 . S
C2159 H2149 0.930 . S
C2159 C2152 1.409 . S
C2159 C2158 1.362 . S
H2160 C2166 0.930 . S
H2161 C2169 0.930 . S
H2162 C2170 0.930 . S
H2163 C2171 0.930 . S
H2164 C2174 0.930 . S
H2165 C2175 0.930 . S
C2166 H2160 0.930 . S
C2166 C2167 1.355 . S
C2166 C2168 1.415 1_565 S
C2167 C2166 1.355 . S
C2167 C2169 1.419 1_556 S
C2168 C2166 1.415 1_545 S
C2168 C2173 1.425 1_546 S
C2168 C2175 1.409 . S
C2169 H2161 0.930 . S
C2169 C2167 1.419 1_554 S
C2169 C2170 1.362 . S
C2170 H2162 0.930 . S
C2170 C2169 1.362 . S
C2170 C2173 1.409 . S
C2171 H2163 0.930 . S
C2171 C2172 1.355 . S
C2171 C2173 1.415 1_545 S
C2172 C2171 1.355 . S
C2172 C2174 1.419 1_554 S
C2173 C2168 1.425 1_564 S
C2173 C2170 1.409 . S
C2173 C2171 1.415 1_565 S
C2174 H2164 0.930 . S
C2174 C2172 1.419 1_556 S
C2174 C2175 1.362 . S
C2175 H2165 0.930 . S
C2175 C2168 1.409 . S
C2175 C2174 1.362 . S
H2176 C2182 0.930 . S
H2177 C2185 0.930 . S
H2178 C2186 0.930 . S
H2179 C2187 0.930 . S
H2180 C2190 0.930 . S
H2181 C2191 0.930 . S
C2182 H2176 0.930 . S
C2182 C2183 1.355 . S
C2182 C2184 1.415 . S
C2183 C2182 1.355 . S
C2183 C2185 1.419 . S
C2184 C2182 1.415 . S
C2184 C2189 1.425 . S
C2184 C2191 1.409 . S
C2185 H2177 0.930 . S
C2185 C2183 1.419 . S
C2185 C2186 1.362 . S
C2186 H2178 0.930 . S
C2186 C2185 1.362 . S
C2186 C2189 1.409 . S
C2187 H2179 0.930 . S
C2187 C2188 1.355 . S
C2187 C2189 1.415 . S
C2188 C2187 1.355 . S
C2188 C2190 1.419 . S
C2189 C2184 1.425 . S
C2189 C2186 1.409 . S
C2189 C2187 1.415 . S
C2190 H2180 0.930 . S
C2190 C2188 1.419 . S
C2190 C2191 1.362 . S
C2191 H2181 0.930 . S
C2191 C2184 1.409 . S
C2191 C2190 1.362 . S
H2192 C2198 0.930 . S
H2193 C2201 0.930 . S
H2194 C2202 0.930 . S
H2195 C2203 0.930 . S
H2196 C2206 0.930 . S
H2197 C2207 0.930 . S
C2198 H2192 0.930 . S
C2198 C2199 1.355 . S
C2198 C2200 1.415 . S
C2199 C2198 1.355 . S
C2199 C2201 1.419 . S
C2200 C2198 1.415 . S
C2200 C2205 1.425 1_545 S
C2200 C2207 1.409 . S
C2201 H2193 0.930 . S
C2201 C2199 1.419 . S
C2201 C2202 1.362 1_545 S
C2202 H2194 0.930 . S
C2202 C2201 1.362 1_565 S
C2202 C2205 1.409 . S
C2203 H2195 0.930 . S
C2203 C2204 1.355 . S
C2203 C2205 1.415 . S
C2204 C2203 1.355 . S
C2204 C2206 1.419 . S
C2205 C2200 1.425 1_565 S
C2205 C2202 1.409 . S
C2205 C2203 1.415 . S
C2206 H2196 0.930 . S
C2206 C2204 1.419 . S
C2206 C2207 1.362 1_565 S
C2207 H2197 0.930 . S
C2207 C2200 1.409 . S
C2207 C2206 1.362 1_545 S
H2208 C2214 0.930 . S
H2209 C2217 0.930 . S
H2210 C2218 0.930 . S
H2211 C2219 0.930 . S
H2212 C2222 0.930 . S
H2213 C2223 0.930 . S
C2214 H2208 0.930 . S
C2214 C2215 1.355 . S
C2214 C2216 1.415 . S
C2215 C2214 1.355 . S
C2215 C2217 1.419 . S
C2216 C2214 1.415 . S
C2216 C2221 1.425 . S
C2216 C2223 1.409 . S
C2217 H2209 0.930 . S
C2217 C2215 1.419 . S
C2217 C2218 1.362 . S
C2218 H2210 0.930 . S
C2218 C2217 1.362 . S
C2218 C2221 1.409 . S
C2219 H2211 0.930 . S
C2219 C2220 1.355 . S
C2219 C2221 1.415 . S
C2220 C2219 1.355 . S
C2220 C2222 1.419 . S
C2221 C2216 1.425 . S
C2221 C2218 1.409 . S
C2221 C2219 1.415 . S
C2222 H2212 0.930 . S
C2222 C2220 1.419 . S
C2222 C2223 1.362 . S
C2223 H2213 0.930 . S
C2223 C2216 1.409 . S
C2223 C2222 1.362 . S
H2224 C2230 0.930 1_455 S
H2225 C2233 0.930 . S
H2226 C2234 0.930 . S
H2227 C2235 0.930 1_655 S
H2228 C2238 0.930 . S
H2229 C2239 0.930 . S
C2230 H2224 0.930 1_655 S
C2230 C2231 1.355 . S
C2230 C2232 1.415 1_654 S
C2231 C2230 1.355 . S
C2231 C2233 1.419 . S
C2232 C2230 1.415 1_456 S
C2232 C2237 1.425 1_466 S
C2232 C2239 1.409 . S
C2233 H2225 0.930 . S
C2233 C2231 1.419 . S
C2233 C2234 1.362 1_565 S
C2234 H2226 0.930 . S
C2234 C2233 1.362 1_545 S
C2234 C2237 1.409 . S
C2235 H2227 0.930 1_455 S
C2235 C2236 1.355 . S
C2235 C2237 1.415 1_456 S
C2236 C2235 1.355 . S
C2236 C2238 1.419 . S
C2237 C2232 1.425 1_644 S
C2237 C2234 1.409 . S
C2237 C2235 1.415 1_654 S
C2238 H2228 0.930 . S
C2238 C2236 1.419 . S
C2238 C2239 1.362 1_545 S
C2239 H2229 0.930 . S
C2239 C2232 1.409 . S
C2239 C2238 1.362 1_565 S
H2240 C2246 0.930 . S
H2241 C2249 0.930 . S
H2242 C2250 0.930 . S
H2243 C2251 0.930 . S
H2244 C2254 0.930 . S
H2245 C2255 0.930 . S
C2246 H2240 0.930 . S
C2246 C2247 1.355 . S
C2246 C2248 1.415 . S
C2247 C2246 1.355 . S
C2247 C2249 1.419 . S
C2248 C2246 1.415 . S
C2248 C2253 1.425 . S
C2248 C2255 1.409 . S
C2249 H2241 0.930 . S
C2249 C2247 1.419 . S
C2249 C2250 1.362 . S
C2250 H2242 0.930 . S
C2250 C2249 1.362 . S
C2250 C2253 1.409 . S
C2251 H2243 0.930 . S
C2251 C2252 1.355 . S
C2251 C2253 1.415 . S
C2252 C2251 1.355 . S
C2252 C2254 1.419 . S
C2253 C2248 1.425 . S
C2253 C2250 1.409 . S
C2253 C2251 1.415 . S
C2254 H2244 0.930 . S
C2254 C2252 1.419 . S
C2254 C2255 1.362 . S
C2255 H2245 0.930 . S
C2255 C2248 1.409 . S
C2255 C2254 1.362 . S
H2256 C2262 0.930 . S
H2257 C2265 0.930 . S
H2258 C2266 0.930 . S
H2259 C2267 0.930 . S
H2260 C2270 0.930 . S
H2261 C2271 0.930 . S
C2262 H2256 0.930 . S
C2262 C2263 1.355 . S
C2262 C2264 1.415 . S
C2263 C2262 1.355 . S
C2263 C2265 1.419 . S
C2264 C2262 1.415 . S
C2264 C2269 1.425 . S
C2264 C2271 1.409 . S
C2265 H2257 0.930 . S
C2265 C2263 1.419 . S
C2265 C2266 1.362 . S
C2266 H2258 0.930 . S
C2266 C2265 1.362 . S
C2266 C2269 1.409 . S
C2267 H2259 0.930 . S
C2267 C2268 1.355 . S
C2267 C2269 1.415 . S
C2268 C2267 1.355 . S
C2268 C2270 1.419 . S
C2269 C2264 1.425 . S
C2269 C2266 1.409 . S
C2269 C2267 1.415 . S
C2270 H2260 0.930 . S
C2270 C2268 1.419 . S
C2270 C2271 1.362 . S
C2271 H2261 0.930 . S
C2271 C2264 1.409 . S
C2271 C2270 1.362 . S
H2272 C2278 0.930 . S
H2273 C2281 0.930 . S
H2274 C2282 0.930 . S
H2275 C2283 0.930 . S
H2276 C2286 0.930 . S
H2277 C2287 0.930 . S
C2278 H2272 0.930 . S
C2278 C2279 1.355 . S
C2278 C2280 1.415 . S
C2279 C2278 1.355 . S
C2279 C2281 1.419 . S
C2280 C2278 1.415 . S
C2280 C2285 1.425 . S
C2280 C2287 1.409 . S
C2281 H2273 0.930 . S
C2281 C2279 1.419 . S
C2281 C2282 1.362 . S
C2282 H2274 0.930 . S
C2282 C2281 1.362 . S
C2282 C2285 1.409 . S
C2283 H2275 0.930 . S
C2283 C2284 1.355 . S
C2283 C2285 1.415 . S
C2284 C2283 1.355 . S
C2284 C2286 1.419 . S
C2285 C2280 1.425 . S
C2285 C2282 1.409 . S
C2285 C2283 1.415 . S
C2286 H2276 0.930 . S
C2286 C2284 1.419 . S
C2286 C2287 1.362 . S
C2287 H2277 0.930 . S
C2287 C2280 1.409 . S
C2287 C2286 1.362 . S
H2288 C2294 0.930 . S
H2289 C2297 0.930 . S
H2290 C2298 0.930 . S
H2291 C2299 0.930 . S
H2292 C2302 0.930 . S
H2293 C2303 0.930 . S
C2294 H2288 0.930 . S
C2294 C2295 1.355 . S
C2294 C2296 1.415 . S
C2295 C2294 1.355 . S
C2295 C2297 1.419 . S
C2296 C2294 1.415 . S
C2296 C2301 1.425 . S
C2296 C2303 1.409 . S
C2297 H2289 0.930 . S
C2297 C2295 1.419 . S
C2297 C2298 1.362 . S
C2298 H2290 0.930 . S
C2298 C2297 1.362 . S
C2298 C2301 1.409 . S
C2299 H2291 0.930 . S
C2299 C2300 1.355 . S
C2299 C2301 1.415 . S
C2300 C2299 1.355 . S
C2300 C2302 1.419 . S
C2301 C2296 1.425 . S
C2301 C2298 1.409 . S
C2301 C2299 1.415 . S
C2302 H2292 0.930 . S
C2302 C2300 1.419 . S
C2302 C2303 1.362 . S
C2303 H2293 0.930 . S
C2303 C2296 1.409 . S
C2303 C2302 1.362 . S
H2304 C2310 0.930 . S
H2305 C2313 0.930 . S
H2306 C2314 0.930 . S
H2307 C2315 0.930 . S
H2308 C2318 0.930 . S
H2309 C2319 0.930 . S
C2310 H2304 0.930 . S
C2310 C2311 1.355 1_554 S
C2310 C2312 1.415 . S
C2311 C2310 1.355 1_556 S
C2311 C2313 1.419 . S
C2312 C2310 1.415 . S
C2312 C2317 1.425 1_554 S
C2312 C2319 1.409 . S
C2313 H2305 0.930 . S
C2313 C2311 1.419 . S
C2313 C2314 1.362 . S
C2314 H2306 0.930 . S
C2314 C2313 1.362 . S
C2314 C2317 1.409 . S
C2315 H2307 0.930 . S
C2315 C2316 1.355 1_556 S
C2315 C2317 1.415 . S
C2316 C2315 1.355 1_554 S
C2316 C2318 1.419 . S
C2317 C2312 1.425 1_556 S
C2317 C2314 1.409 . S
C2317 C2315 1.415 . S
C2318 H2308 0.930 . S
C2318 C2316 1.419 . S
C2318 C2319 1.362 . S
C2319 H2309 0.930 . S
C2319 C2312 1.409 . S
C2319 C2318 1.362 . S
H2320 C2326 0.930 . S
H2321 C2329 0.930 . S
H2322 C2330 0.930 . S
H2323 C2331 0.930 . S
H2324 C2334 0.930 . S
H2325 C2335 0.930 . S
C2326 H2320 0.930 . S
C2326 C2327 1.355 . S
C2326 C2328 1.418 . S
C2327 C2326 1.355 . S
C2327 C2329 1.419 . S
C2328 C2326 1.418 . S
C2328 C2333 1.425 1_655 S
C2328 C2335 1.406 1_655 S
C2329 H2321 0.930 . S
C2329 C2327 1.419 . S
C2329 C2330 1.362 . S
C2330 H2322 0.930 . S
C2330 C2329 1.362 . S
C2330 C2333 1.406 1_655 S
C2331 H2323 0.930 . S
C2331 C2332 1.355 . S
C2331 C2333 1.418 . S
C2332 C2331 1.355 . S
C2332 C2334 1.419 . S
C2333 C2328 1.425 1_455 S
C2333 C2330 1.406 1_455 S
C2333 C2331 1.418 . S
C2334 H2324 0.930 . S
C2334 C2332 1.419 . S
C2334 C2335 1.362 . S
C2335 H2325 0.930 . S
C2335 C2328 1.406 1_455 S
C2335 C2334 1.362 . S
H2336 C2342 0.930 . S
H2337 C2345 0.935 . S
H2338 C2346 0.930 . S
H2339 C2347 0.930 . S
H2340 C2350 0.935 . S
H2341 C2351 0.930 . S
C2342 H2336 0.930 . S
C2342 C2343 1.355 . S
C2342 C2344 1.415 . S
C2343 C2342 1.355 . S
C2343 C2345 1.400 1_554 S
C2344 C2342 1.415 . S
C2344 C2349 1.425 1_454 S
C2344 C2351 1.409 . S
C2345 H2337 0.935 . S
C2345 C2343 1.400 1_556 S
C2345 C2346 1.377 1_455 S
C2346 H2338 0.930 . S
C2346 C2345 1.377 1_655 S
C2346 C2349 1.409 . S
C2347 H2339 0.930 . S
C2347 C2348 1.355 . S
C2347 C2349 1.415 . S
C2348 C2347 1.355 . S
C2348 C2350 1.400 1_556 S
C2349 C2344 1.425 1_656 S
C2349 C2346 1.409 . S
C2349 C2347 1.415 . S
C2350 H2340 0.935 . S
C2350 C2348 1.400 1_554 S
C2350 C2351 1.377 1_655 S
C2351 H2341 0.930 . S
C2351 C2344 1.409 . S
C2351 C2350 1.377 1_455 S
H2352 C2358 0.930 . S
H2353 C2361 0.930 . S
H2354 C2362 0.930 . S
H2355 C2363 0.930 . S
H2356 C2366 0.930 . S
H2357 C2367 0.930 . S
C2358 H2352 0.930 . S
C2358 C2359 1.355 . S
C2358 C2360 1.415 . S
C2359 C2358 1.355 . S
C2359 C2361 1.419 . S
C2360 C2358 1.415 . S
C2360 C2365 1.425 . S
C2360 C2367 1.409 . S
C2361 H2353 0.930 . S
C2361 C2359 1.419 . S
C2361 C2362 1.362 . S
C2362 H2354 0.930 . S
C2362 C2361 1.362 . S
C2362 C2365 1.409 . S
C2363 H2355 0.930 . S
C2363 C2364 1.355 . S
C2363 C2365 1.415 . S
C2364 C2363 1.355 . S
C2364 C2366 1.419 . S
C2365 C2360 1.425 . S
C2365 C2362 1.409 . S
C2365 C2363 1.415 . S
C2366 H2356 0.930 . S
C2366 C2364 1.419 . S
C2366 C2367 1.362 . S
C2367 H2357 0.930 . S
C2367 C2360 1.409 . S
C2367 C2366 1.362 . S
C1095 C247 1.604 . S
C1100 C9 1.600 . S
C1111 C43 1.587 . S
C1116 C145 1.590 . S
C1127 C77 1.608 . S
C1132 C179 1.593 . S
C1143 C213 1.595 . S
C1148 C111 1.607 . S
C1159 C519 1.602 . S
C1164 C281 1.582 . S
C1175 C417 1.587 . S
C1180 C315 1.590 . S
C1191 C349 1.601 . S
C1196 C451 1.603 . S
C1207 C383 1.583 . S
C1212 C485 1.595 . S
C1223 C791 1.608 . S
C1228 C553 1.594 . S
C1239 C587 1.602 . S
C1244 C689 1.582 . S
C1255 C621 1.588 . S
C1260 C723 1.589 . S
C1271 C757 1.604 . S
C1276 C655 1.582 . S
C1287 C1063 1.607 . S
C1292 C825 1.584 . S
C1303 C859 1.585 . S
C1308 C961 1.593 . S
C1319 C995 1.582 . S
C1324 C893 1.605 . S
C1335 C1029 1.593 . S
C1340 C927 1.608 . S
C1351 C614 1.257 . S
C1356 C2 1.283 . S
C1367 C648 1.260 . S
C1372 C36 1.281 . S
C1383 C70 1.250 . S
C1388 C546 1.285 . S
C1399 C104 1.269 . S
C1404 C580 1.274 . S
C1415 C750 1.276 . S
C1420 C138 1.252 . S
C1431 C784 1.279 . S
C1436 C172 1.251 . S
C1447 C206 1.254 . S
C1452 C682 1.273 . S
C1463 C240 1.282 . S
C1468 C716 1.250 . S
C1479 C274 1.280 . S
C1484 C886 1.262 . S
C1495 C920 1.270 . S
C1500 C308 1.274 . S
C1511 C818 1.254 . S
C1516 C342 1.274 . S
C1527 C376 1.281 . S
C1532 C852 1.261 . S
C1543 C410 1.265 . S
C1548 C1022 1.278 . S
C1559 C1056 1.259 . S
C1564 C444 1.282 . S
C1575 C954 1.254 . S
C1580 C478 1.274 . S
C1591 C988 1.277 . S
C1596 C512 1.252 . S
C1607 C5 1.091 . S
C1612 C951 1.016 . S
C1623 C305 1.011 . S
C1628 C39 1.099 . S
C1639 C883 1.052 . S
C1644 C73 1.142 . S
C1655 C107 1.061 . S
C1660 C373 1.077 . S
C1671 C1019 1.099 . S
C1676 C141 1.062 . S
C1687 C509 1.119 . S
C1692 C175 1.115 . S
C1703 C209 1.071 . S
C1708 C1087 1.118 . S
C1719 C243 1.079 . S
C1724 C441 1.028 . S
C1735 C277 1.137 . S
C1740 C679 1.027 . S
C1751 C311 1.099 . S
C1756 C33 1.011 . S
C1767 C611 1.129 . S
C1772 C345 1.090 . S
C1783 C379 1.105 . S
C1788 C101 1.126 . S
C1799 C747 1.126 . S
C1804 C413 1.080 . S
C1815 C447 1.134 . S
C1820 C237 1.022 . S
C1831 C481 1.072 . S
C1836 C815 1.120 . S
C1847 C169 1.061 . S
C1852 C515 1.142 . S
C1863 C549 1.142 . S
C1868 C407 1.052 . S
C1879 C849 1.013 . S
C1884 C583 1.128 . S
C1895 C339 1.129 . S
C1900 C617 1.093 . S
C1911 C651 1.111 . S
C1916 C917 1.007 . S
C1927 C685 1.118 . S
C1932 C475 1.117 . S
C1943 C1053 1.077 . S
C1948 C719 1.061 . S
C1959 C753 1.081 . S
C1964 C543 1.025 . S
C1975 C985 1.016 . S
C1980 C787 1.091 . S
C1991 C135 1.008 . S
C1996 C821 1.106 . S
C2007 C577 1.107 . S
C2012 C855 1.127 . S
C2023 C67 1.076 . S
C2028 C889 1.061 . S
C2039 C645 1.042 . S
C2044 C923 1.071 . S
C2055 C957 1.132 . S
C2060 C203 1.098 . S
C2071 C781 1.047 . S
C2076 C991 1.069 . S
C2087 C271 1.027 . S
C2092 C1025 1.137 . S
C2103 C713 1.108 . S
C2108 C1059 1.126 . S
C2119 C20 1.480 . S
C2124 C836 1.480 . S
C2135 C54 1.503 . S
C2140 C326 1.503 . S
C2151 C904 1.465 . S
C2156 C88 1.465 . S
C2167 C394 1.474 . S
C2172 C122 1.474 . S
C2183 C972 1.532 . S
C2188 C156 1.532 . S
C2199 C462 1.524 . S
C2204 C190 1.524 . S
C2215 C1040 1.474 . S
C2220 C224 1.474 . S
C2231 C530 1.532 . S
C2236 C258 1.532 . S
C2247 C292 1.470 . S
C2252 C564 1.470 . S
C2263 C632 1.477 . S
C2268 C360 1.477 . S
C2279 C428 1.463 . S
C2284 C700 1.463 . S
C2295 C496 1.467 . S
C2300 C768 1.467 . S
C2311 C870 1.502 . S
C2316 C598 1.502 . S
C2327 C666 1.478 . S
C2332 C938 1.478 . S
C2343 C1006 1.470 . S
C2348 C734 1.470 . S
C2359 C1074 1.513 . S
C2364 C802 1.513 . S
