# Generated by pormake.
# Topology ukk, (4)-cn, num edge types: 1
# Building blocks:
#     Node 0, Type 0, BuildingBlock: CEKHIL_clean_sbu_0, # of connection points: 4
#     Node 1, Type 0, BuildingBlock: CEKHIL_clean_sbu_0, # of connection points: 4
#     Node 2, Type 0, BuildingBlock: CEKHIL_clean_sbu_0, # of connection points: 4
#     Node 3, Type 0, BuildingBlock: CEKHIL_clean_sbu_0, # of connection points: 4
#     Node 4, Type 0, BuildingBlock: CEKHIL_clean_sbu_0, # of connection points: 4
#     Node 5, Type 0, BuildingBlock: CEKHIL_clean_sbu_0, # of connection points: 4
#     Node 6, Type 0, BuildingBlock: CEKHIL_clean_sbu_0, # of connection points: 4
#     Node 7, Type 0, BuildingBlock: CEKHIL_clean_sbu_0, # of connection points: 4
#     Node 8, Type 0, BuildingBlock: CEKHIL_clean_sbu_0, # of connection points: 4
#     Node 9, Type 0, BuildingBlock: CEKHIL_clean_sbu_0, # of connection points: 4
#     Node 10, Type 0, BuildingBlock: CEKHIL_clean_sbu_0, # of connection points: 4
#     Node 11, Type 0, BuildingBlock: CEKHIL_clean_sbu_0, # of connection points: 4
#     Node 12, Type 0, BuildingBlock: CEKHIL_clean_sbu_0, # of connection points: 4
#     Node 13, Type 0, BuildingBlock: CEKHIL_clean_sbu_0, # of connection points: 4
#     Node 14, Type 0, BuildingBlock: CEKHIL_clean_sbu_0, # of connection points: 4
#     Node 15, Type 0, BuildingBlock: CEKHIL_clean_sbu_0, # of connection points: 4
#     Edge 16, Type (0, 0), BuildingBlock: EYOCIG_clean_linker_4, # of connection points: 2
#     Edge 17, Type (0, 0), BuildingBlock: EYOCIG_clean_linker_4, # of connection points: 2
#     Edge 18, Type (0, 0), BuildingBlock: EYOCIG_clean_linker_4, # of connection points: 2
#     Edge 19, Type (0, 0), BuildingBlock: EYOCIG_clean_linker_4, # of connection points: 2
#     Edge 20, Type (0, 0), BuildingBlock: EYOCIG_clean_linker_4, # of connection points: 2
#     Edge 21, Type (0, 0), BuildingBlock: EYOCIG_clean_linker_4, # of connection points: 2
#     Edge 22, Type (0, 0), BuildingBlock: EYOCIG_clean_linker_4, # of connection points: 2
#     Edge 23, Type (0, 0), BuildingBlock: EYOCIG_clean_linker_4, # of connection points: 2
#     Edge 24, Type (0, 0), BuildingBlock: EYOCIG_clean_linker_4, # of connection points: 2
#     Edge 25, Type (0, 0), BuildingBlock: EYOCIG_clean_linker_4, # of connection points: 2
#     Edge 26, Type (0, 0), BuildingBlock: EYOCIG_clean_linker_4, # of connection points: 2
#     Edge 27, Type (0, 0), BuildingBlock: EYOCIG_clean_linker_4, # of connection points: 2
#     Edge 28, Type (0, 0), BuildingBlock: EYOCIG_clean_linker_4, # of connection points: 2
#     Edge 29, Type (0, 0), BuildingBlock: EYOCIG_clean_linker_4, # of connection points: 2
#     Edge 30, Type (0, 0), BuildingBlock: EYOCIG_clean_linker_4, # of connection points: 2
#     Edge 31, Type (0, 0), BuildingBlock: EYOCIG_clean_linker_4, # of connection points: 2
#     Edge 32, Type (0, 0), BuildingBlock: EYOCIG_clean_linker_4, # of connection points: 2
#     Edge 33, Type (0, 0), BuildingBlock: EYOCIG_clean_linker_4, # of connection points: 2
#     Edge 34, Type (0, 0), BuildingBlock: EYOCIG_clean_linker_4, # of connection points: 2
#     Edge 35, Type (0, 0), BuildingBlock: EYOCIG_clean_linker_4, # of connection points: 2
#     Edge 36, Type (0, 0), BuildingBlock: EYOCIG_clean_linker_4, # of connection points: 2
#     Edge 37, Type (0, 0), BuildingBlock: EYOCIG_clean_linker_4, # of connection points: 2
#     Edge 38, Type (0, 0), BuildingBlock: EYOCIG_clean_linker_4, # of connection points: 2
#     Edge 39, Type (0, 0), BuildingBlock: EYOCIG_clean_linker_4, # of connection points: 2
#     Edge 40, Type (0, 0), BuildingBlock: EYOCIG_clean_linker_4, # of connection points: 2
#     Edge 41, Type (0, 0), BuildingBlock: EYOCIG_clean_linker_4, # of connection points: 2
#     Edge 42, Type (0, 0), BuildingBlock: EYOCIG_clean_linker_4, # of connection points: 2
#     Edge 43, Type (0, 0), BuildingBlock: EYOCIG_clean_linker_4, # of connection points: 2
#     Edge 44, Type (0, 0), BuildingBlock: EYOCIG_clean_linker_4, # of connection points: 2
#     Edge 45, Type (0, 0), BuildingBlock: EYOCIG_clean_linker_4, # of connection points: 2
#     Edge 46, Type (0, 0), BuildingBlock: EYOCIG_clean_linker_4, # of connection points: 2
#     Edge 47, Type (0, 0), BuildingBlock: EYOCIG_clean_linker_4, # of connection points: 2
# Relax obj value: 0.118
# Max RMSD: 0.292
# Mean RMSD: 0.292
data_MOF--net-ukk--node1-CEKHIL_clean_sbu_0--edge1-EYOCIG_clean_linker_4
_symmetry_space_group_name_H-M    P1
_symmetry_Int_Tables_number       1
_symmetry_cell_setting            triclinic
loop_
_symmetry_equiv_pos_as_xyz
'x, y, z'
_cell_length_a     42.467345
_cell_length_b     42.472413
_cell_length_c     13.028433
_cell_angle_alpha  89.99063
_cell_angle_beta   89.99884
_cell_angle_gamma 89.999585
loop_
_atom_site_label
_atom_site_type_symbol
_atom_site_fract_x
_atom_site_fract_y
_atom_site_fract_z
_atom_type_partial_charge
Co0 Co 0.3543 0.10775 0.13081 0.0
O1 O 0.30948 0.10356 0.11711 0.0
O2 O 0.34283 0.10952 0.98713 0.0
C3 C 0.36135 0.06803 0.24186 0.0
O4 O 0.40207 0.11187 0.11731 0.0
Co5 Co 0.38111 0.12755 0.34233 0.0
O6 O 0.42214 0.11839 0.27623 0.0
C7 C 0.35356 0.17569 0.20887 0.0
C8 C 0.31401 0.10619 0.01923 0.0
C9 C 0.42538 0.1145 0.17993 0.0
O10 O 0.34999 0.15479 0.13902 0.0
O11 O 0.3637 0.16965 0.29915 0.0
O12 O 0.35903 0.06255 0.14427 0.0
O13 O 0.35555 0.09658 0.27105 0.0
Co14 Co 0.10776 0.64432 0.86567 0.0
O15 O 0.10358 0.68915 0.87901 0.0
O16 O 0.1096 0.6559 0.00923 0.0
C17 C 0.06798 0.6372 0.7549 0.0
O18 O 0.11189 0.59656 0.87958 0.0
Co19 Co 0.12745 0.61734 0.6543 0.0
O20 O 0.11837 0.57635 0.72082 0.0
C21 C 0.17567 0.64502 0.78718 0.0
C22 C 0.10625 0.68469 0.97691 0.0
C23 C 0.11452 0.5732 0.81717 0.0
O24 O 0.1548 0.64862 0.85714 0.0
O25 O 0.16958 0.63481 0.69702 0.0
O26 O 0.06255 0.63958 0.8525 0.0
O27 O 0.09653 0.64297 0.72549 0.0
Co28 Co 0.64436 0.89119 0.12999 0.0
O29 O 0.68919 0.89532 0.1164 0.0
O30 O 0.65585 0.88952 0.98632 0.0
C31 C 0.63737 0.93085 0.2413 0.0
O32 O 0.59658 0.88715 0.11636 0.0
Co33 Co 0.61746 0.87131 0.34132 0.0
O34 O 0.57645 0.88055 0.27517 0.0
C35 C 0.64494 0.8232 0.20762 0.0
C36 C 0.68467 0.89279 0.0185 0.0
C37 C 0.57325 0.8845 0.17888 0.0
O38 O 0.64859 0.84414 0.13792 0.0
O39 O 0.63477 0.8292 0.2979 0.0
O40 O 0.6397 0.93639 0.14375 0.0
O41 O 0.64311 0.90226 0.27032 0.0
Co42 Co 0.89133 0.35421 0.86525 0.0
O43 O 0.89553 0.30938 0.87853 0.0
O44 O 0.88976 0.34261 0.00886 0.0
C45 C 0.93091 0.36134 0.75371 0.0
O46 O 0.88722 0.40197 0.87917 0.0
Co47 Co 0.87126 0.38119 0.65419 0.0
O48 O 0.88049 0.42217 0.72049 0.0
C49 C 0.82326 0.35362 0.78821 0.0
C50 C 0.89305 0.31382 0.97648 0.0
C51 C 0.8845 0.42532 0.81676 0.0
O52 O 0.84426 0.34992 0.85767 0.0
O53 O 0.82918 0.36385 0.69794 0.0
O54 O 0.93651 0.35894 0.8512 0.0
O55 O 0.90231 0.35557 0.72485 0.0
Co56 Co 0.35444 0.391 0.11628 0.0
O57 O 0.30963 0.39523 0.1303 0.0
O58 O 0.34307 0.38933 0.26005 0.0
C59 C 0.36145 0.43063 0.00487 0.0
O60 O 0.40221 0.38685 0.12948 0.0
Co61 Co 0.3811 0.37103 0.90473 0.0
O62 O 0.42219 0.38018 0.97049 0.0
C63 C 0.35359 0.323 0.03872 0.0
C64 C 0.31423 0.39266 0.22815 0.0
C65 C 0.42548 0.38414 0.06674 0.0
O66 O 0.35009 0.34396 0.10844 0.0
O67 O 0.36368 0.32897 0.94833 0.0
O68 O 0.35919 0.43619 0.10243 0.0
O69 O 0.3556 0.40206 0.97594 0.0
Co70 Co 0.39106 0.64421 0.87971 0.0
O71 O 0.39534 0.68903 0.86648 0.0
O72 O 0.38949 0.65582 0.73612 0.0
C73 C 0.43063 0.63698 0.99119 0.0
O74 O 0.38687 0.59647 0.86571 0.0
Co75 Co 0.37095 0.61726 0.09075 0.0
O76 O 0.38009 0.57627 0.02437 0.0
C77 C 0.32301 0.645 0.95691 0.0
C78 C 0.39283 0.6846 0.76853 0.0
C79 C 0.3841 0.57311 0.92809 0.0
O80 O 0.34401 0.6486 0.88736 0.0
O81 O 0.32892 0.63476 0.04717 0.0
O82 O 0.43624 0.63939 0.8937 0.0
O83 O 0.40205 0.64282 0.02008 0.0
Co84 Co 0.64423 0.6078 0.11655 0.0
O85 O 0.68907 0.60368 0.13001 0.0
O86 O 0.65577 0.60955 0.26016 0.0
C87 C 0.63719 0.5681 0.00546 0.0
O88 O 0.59647 0.61184 0.13035 0.0
Co89 Co 0.61726 0.62759 0.90521 0.0
O90 O 0.57628 0.61833 0.97156 0.0
C91 C 0.64482 0.67576 0.03852 0.0
C92 C 0.68458 0.60627 0.22791 0.0
C93 C 0.57312 0.61443 0.06788 0.0
O94 O 0.64847 0.65485 0.10835 0.0
O95 O 0.63463 0.66971 0.9483 0.0
O96 O 0.63957 0.5626 0.10303 0.0
O97 O 0.64293 0.59667 0.97629 0.0
Co98 Co 0.60799 0.35445 0.87967 0.0
O99 O 0.60385 0.30963 0.86601 0.0
O100 O 0.60986 0.34297 0.73603 0.0
C101 C 0.56819 0.36149 0.99043 0.0
O102 O 0.61208 0.40221 0.86612 0.0
Co103 Co 0.62764 0.38129 0.09129 0.0
O104 O 0.61848 0.4223 0.02507 0.0
C105 C 0.6759 0.35377 0.95821 0.0
C106 C 0.60654 0.31415 0.76815 0.0
C107 C 0.61465 0.42552 0.92874 0.0
O108 O 0.65503 0.35018 0.88824 0.0
O109 O 0.6698 0.36391 0.04844 0.0
O110 O 0.56277 0.35914 0.89281 0.0
O111 O 0.59673 0.3557 0.01983 0.0
Co112 Co 0.8542 0.60773 0.63076 0.0
O113 O 0.80937 0.60343 0.61734 0.0
O114 O 0.84263 0.60959 0.48719 0.0
C115 C 0.86148 0.56795 0.74143 0.0
O116 O 0.90194 0.61201 0.61694 0.0
Co117 Co 0.88106 0.62749 0.84221 0.0
O118 O 0.92209 0.61851 0.77577 0.0
C119 C 0.85328 0.67563 0.70929 0.0
C120 C 0.81383 0.60616 0.51946 0.0
C121 C 0.92527 0.61468 0.67943 0.0
O122 O 0.84975 0.65476 0.63936 0.0
O123 O 0.86349 0.66958 0.79948 0.0
O124 O 0.85908 0.56254 0.64383 0.0
O125 O 0.85558 0.59646 0.77092 0.0
Co126 Co 0.60804 0.14451 0.36558 0.0
O127 O 0.60381 0.18933 0.37887 0.0
O128 O 0.61003 0.15612 0.50909 0.0
C129 C 0.56814 0.13727 0.25532 0.0
O130 O 0.61225 0.09677 0.37958 0.0
Co131 Co 0.62753 0.11752 0.15402 0.0
O132 O 0.61859 0.07654 0.22079 0.0
C133 C 0.67585 0.14527 0.28627 0.0
C134 C 0.6066 0.1849 0.47674 0.0
C135 C 0.61485 0.0734 0.3172 0.0
O136 O 0.65506 0.14887 0.35646 0.0
O137 O 0.66968 0.13504 0.1962 0.0
O138 O 0.56281 0.13969 0.35298 0.0
O139 O 0.59664 0.1431 0.22556 0.0
Co140 Co 0.14452 0.39093 0.63073 0.0
O141 O 0.18938 0.3951 0.61788 0.0
O142 O 0.15625 0.38923 0.48727 0.0
C143 C 0.13729 0.43061 0.74179 0.0
O144 O 0.09678 0.38683 0.61626 0.0
Co145 Co 0.11731 0.37106 0.84162 0.0
O146 O 0.07639 0.38021 0.77472 0.0
C147 C 0.145 0.32293 0.70843 0.0
C148 C 0.18501 0.39254 0.51991 0.0
C149 C 0.07335 0.38415 0.67837 0.0
O150 O 0.14878 0.34388 0.63882 0.0
O151 O 0.13467 0.32893 0.79851 0.0
O152 O 0.13979 0.43612 0.64427 0.0
O153 O 0.14303 0.40204 0.77101 0.0
Co154 Co 0.39108 0.85437 0.36647 0.0
O155 O 0.39542 0.80956 0.37979 0.0
O156 O 0.38943 0.84278 0.51006 0.0
C157 C 0.43073 0.86165 0.25527 0.0
O158 O 0.38681 0.90211 0.38036 0.0
Co159 Co 0.37107 0.88127 0.15526 0.0
O160 O 0.38013 0.92228 0.22162 0.0
C161 C 0.32308 0.85348 0.28879 0.0
C162 C 0.39283 0.814 0.47772 0.0
C163 C 0.38407 0.92545 0.31792 0.0
O164 O 0.34404 0.84992 0.35848 0.0
O165 O 0.32904 0.86371 0.19855 0.0
O166 O 0.43627 0.85926 0.3528 0.0
O167 O 0.40217 0.85577 0.22617 0.0
Co168 Co 0.85431 0.89091 0.61583 0.0
O169 O 0.80949 0.89527 0.6292 0.0
O170 O 0.84274 0.88932 0.75945 0.0
C171 C 0.86159 0.93049 0.5044 0.0
O172 O 0.90205 0.88661 0.62968 0.0
Co173 Co 0.88113 0.87075 0.40476 0.0
O174 O 0.92218 0.87978 0.47096 0.0
C175 C 0.85334 0.82286 0.53865 0.0
C176 C 0.81395 0.89272 0.72713 0.0
C177 C 0.92538 0.88378 0.56722 0.0
O178 O 0.84982 0.84387 0.60817 0.0
O179 O 0.86355 0.82875 0.44834 0.0
O180 O 0.85923 0.93607 0.60192 0.0
O181 O 0.85568 0.90193 0.47545 0.0
Co182 Co 0.8913 0.14411 0.37898 0.0
O183 O 0.89561 0.18893 0.36556 0.0
O184 O 0.88983 0.15566 0.23532 0.0
C185 C 0.93078 0.13692 0.49084 0.0
O186 O 0.88709 0.09635 0.3652 0.0
Co187 Co 0.87101 0.11726 0.58999 0.0
O188 O 0.88018 0.07623 0.52391 0.0
C189 C 0.82321 0.14504 0.45573 0.0
C190 C 0.89315 0.18446 0.26762 0.0
C191 C 0.88427 0.07303 0.42769 0.0
O192 O 0.84424 0.14853 0.38626 0.0
O193 O 0.82905 0.13486 0.54611 0.0
O194 O 0.93646 0.13927 0.39338 0.0
O195 O 0.90218 0.14278 0.51945 0.0
Co196 Co 0.14426 0.10758 0.61697 0.0
O197 O 0.1891 0.10344 0.63017 0.0
O198 O 0.15588 0.10935 0.76052 0.0
C199 C 0.13713 0.06786 0.506 0.0
O200 O 0.0965 0.11165 0.63098 0.0
Co201 Co 0.11724 0.12738 0.40573 0.0
O202 O 0.07628 0.11818 0.47224 0.0
C203 C 0.14485 0.17554 0.53893 0.0
C204 C 0.18467 0.10606 0.7281 0.0
C205 C 0.07313 0.11427 0.56857 0.0
O206 O 0.14852 0.15463 0.60871 0.0
O207 O 0.13463 0.1695 0.44875 0.0
O208 O 0.13956 0.06237 0.60356 0.0
O209 O 0.14288 0.09642 0.47674 0.0
Co210 Co 0.10777 0.85415 0.38018 0.0
O211 O 0.10358 0.80934 0.36633 0.0
O212 O 0.10957 0.84273 0.23647 0.0
C213 C 0.06803 0.86118 0.49115 0.0
O214 O 0.11192 0.90192 0.36682 0.0
Co215 Co 0.12755 0.88088 0.59179 0.0
O216 O 0.11843 0.92194 0.52582 0.0
C217 C 0.17571 0.85333 0.45841 0.0
C218 C 0.10623 0.8139 0.26848 0.0
C219 C 0.11455 0.9252 0.42952 0.0
O220 O 0.15482 0.84982 0.38849 0.0
O221 O 0.16966 0.86344 0.54871 0.0
O222 O 0.06257 0.85889 0.39355 0.0
O223 O 0.09658 0.85535 0.5204 0.0
C224 C 0.38103 0.98529 0.36525 0.0
C225 C 0.38316 0.95708 0.35672 0.0
C226 C 0.37554 0.01767 0.34812 0.0
C227 C 0.36907 0.04289 0.31113 0.0
C228 C 0.01753 0.62312 0.64899 0.0
C229 C 0.04279 0.62953 0.68581 0.0
C230 C 0.98512 0.61769 0.63203 0.0
C231 C 0.95692 0.61559 0.64065 0.0
C232 C 0.62333 0.98119 0.34776 0.0
C233 C 0.62973 0.95596 0.31071 0.0
C234 C 0.6179 0.01358 0.36482 0.0
C235 C 0.61579 0.04178 0.35616 0.0
C236 C 0.01356 0.38117 0.63027 0.0
C237 C 0.04176 0.38328 0.63911 0.0
C238 C 0.98117 0.37565 0.6472 0.0
C239 C 0.95596 0.36914 0.68421 0.0
C240 C 0.37562 0.4809 0.89815 0.0
C241 C 0.36915 0.45571 0.93536 0.0
C242 C 0.38112 0.51328 0.88081 0.0
C243 C 0.38324 0.54148 0.88925 0.0
C244 C 0.48087 0.62272 0.09788 0.0
C245 C 0.45569 0.62921 0.06071 0.0
C246 C 0.51326 0.61726 0.11515 0.0
C247 C 0.54148 0.61522 0.10668 0.0
C248 C 0.61756 0.48539 0.88176 0.0
C249 C 0.6155 0.45718 0.89011 0.0
C250 C 0.62301 0.51777 0.89908 0.0
C251 C 0.62947 0.54298 0.93618 0.0
C252 C 0.48538 0.38118 0.11352 0.0
C253 C 0.45717 0.38327 0.10517 0.0
C254 C 0.51777 0.3757 0.09637 0.0
C255 C 0.543 0.36922 0.05949 0.0
C256 C 0.88151 0.48517 0.86413 0.0
C257 C 0.88364 0.45696 0.8556 0.0
C258 C 0.87593 0.51755 0.84715 0.0
C259 C 0.86934 0.54278 0.81041 0.0
C260 C 0.51765 0.12296 0.14987 0.0
C261 C 0.5429 0.12948 0.18656 0.0
C262 C 0.48525 0.11746 0.13288 0.0
C263 C 0.45704 0.11538 0.14133 0.0
C264 C 0.1175 0.51337 0.86473 0.0
C265 C 0.11541 0.54157 0.85608 0.0
C266 C 0.12299 0.48097 0.84781 0.0
C267 C 0.12949 0.45574 0.81098 0.0
C268 C 0.48101 0.87605 0.14892 0.0
C269 C 0.45581 0.86949 0.18594 0.0
C270 C 0.51339 0.88158 0.13173 0.0
C271 C 0.5416 0.88367 0.14017 0.0
C272 C 0.87585 0.98077 0.39786 0.0
C273 C 0.86935 0.95557 0.43493 0.0
C274 C 0.88135 0.01316 0.38062 0.0
C275 C 0.88345 0.04137 0.389 0.0
C276 C 0.98091 0.12266 0.5981 0.0
C277 C 0.95577 0.12916 0.56063 0.0
C278 C 0.01328 0.11717 0.61571 0.0
C279 C 0.0415 0.1151 0.60741 0.0
C280 C 0.11748 0.98509 0.38268 0.0
C281 C 0.11541 0.95688 0.39102 0.0
C282 C 0.12293 0.01748 0.39987 0.0
C283 C 0.12939 0.04271 0.43682 0.0
C284 C 0.98524 0.88076 0.61445 0.0
C285 C 0.95703 0.88289 0.60595 0.0
C286 C 0.01763 0.87528 0.59734 0.0
C287 C 0.04287 0.86884 0.56039 0.0
C288 C 0.34539 0.2646 0.10225 0.0
C289 C 0.34941 0.29081 0.06919 0.0
C290 C 0.34539 0.23414 0.14569 0.0
C291 C 0.3494 0.20791 0.17864 0.0
C292 C 0.23414 0.65324 0.84995 0.0
C293 C 0.2079 0.6492 0.81716 0.0
C294 C 0.26462 0.65324 0.89329 0.0
C295 C 0.29083 0.6492 0.92631 0.0
C296 C 0.65301 0.76474 0.14446 0.0
C297 C 0.64905 0.79098 0.17727 0.0
C298 C 0.65298 0.73423 0.10136 0.0
C299 C 0.64898 0.70798 0.06865 0.0
C300 C 0.73438 0.34559 0.89536 0.0
C301 C 0.70814 0.34961 0.92821 0.0
C302 C 0.76485 0.34555 0.85198 0.0
C303 C 0.79107 0.34951 0.8189 0.0
C304 C 0.84499 0.73407 0.6462 0.0
C305 C 0.84906 0.70786 0.67919 0.0
C306 C 0.845 0.76451 0.60257 0.0
C307 C 0.84908 0.79069 0.56934 0.0
C308 C 0.76486 0.15343 0.39187 0.0
C309 C 0.79105 0.14933 0.42497 0.0
C310 C 0.73438 0.15348 0.34857 0.0
C311 C 0.70812 0.14945 0.31594 0.0
C312 C 0.15308 0.26448 0.64522 0.0
C313 C 0.14911 0.29072 0.67808 0.0
C314 C 0.15304 0.23399 0.60196 0.0
C315 C 0.14902 0.20776 0.56912 0.0
C316 C 0.23418 0.84514 0.3954 0.0
C317 C 0.20794 0.84916 0.42826 0.0
C318 C 0.26466 0.84517 0.35211 0.0
C319 C 0.29088 0.84924 0.31919 0.0
C320 C 0.23505 0.10591 0.84612 0.0
C321 C 0.21112 0.10615 0.79644 0.0
C322 C 0.26373 0.10595 0.90078 0.0
C323 C 0.28763 0.10623 0.9506 0.0
C324 C 0.10605 0.76367 0.14987 0.0
C325 C 0.1063 0.78755 0.19978 0.0
C326 C 0.10606 0.73501 0.09511 0.0
C327 C 0.10632 0.71111 0.04534 0.0
C328 C 0.73495 0.89308 0.90006 0.0
C329 C 0.71106 0.89278 0.94989 0.0
C330 C 0.76362 0.89307 0.84534 0.0
C331 C 0.78753 0.89274 0.79557 0.0
C332 C 0.89349 0.23479 0.14935 0.0
C333 C 0.89317 0.21088 0.19913 0.0
C334 C 0.89346 0.26347 0.09466 0.0
C335 C 0.89311 0.28739 0.04492 0.0
C336 C 0.23541 0.39285 0.40195 0.0
C337 C 0.21149 0.39255 0.4517 0.0
C338 C 0.26405 0.39288 0.34705 0.0
C339 C 0.2879 0.39261 0.29699 0.0
C340 C 0.39318 0.76365 0.59585 0.0
C341 C 0.39285 0.78757 0.54614 0.0
C342 C 0.39319 0.73496 0.65046 0.0
C343 C 0.39286 0.71104 0.70015 0.0
C344 C 0.73487 0.60602 0.34632 0.0
C345 C 0.71098 0.6063 0.29645 0.0
C346 C 0.76352 0.606 0.40115 0.0
C347 C 0.78742 0.60625 0.451 0.0
C348 C 0.60647 0.23524 0.59489 0.0
C349 C 0.60671 0.21133 0.54512 0.0
C350 C 0.60645 0.26389 0.64967 0.0
C351 C 0.60667 0.28777 0.69954 0.0
loop_
_geom_bond_atom_site_label_1
_geom_bond_atom_site_label_2
_geom_bond_distance
_geom_bond_site_symmetry_2
_ccdc_geom_bond_type
Co0 O1 2.216 . S
Co0 O2 2.091 1_554 S
Co0 O4 2.004 . S
Co0 O10 2.021 . S
Co0 O12 2.137 . S
Co0 O13 2.244 . S
O1 Co0 2.216 . S
O1 C8 1.247 1_554 S
O2 Co0 2.091 1_556 S
O2 C8 1.261 . S
C3 O12 1.247 . S
C3 O13 1.272 . S
O4 Co0 2.004 . S
O4 C9 1.259 . S
Co5 O6 2.061 . S
Co5 O11 2.052 . S
Co5 O13 2.135 . S
O6 Co5 2.061 . S
O6 C9 1.235 . S
C7 O10 1.238 . S
C7 O11 1.241 . S
C8 O1 1.247 1_556 S
C8 O2 1.261 . S
C9 O4 1.259 . S
C9 O6 1.235 . S
O10 Co0 2.021 . S
O10 C7 1.238 . S
O11 Co5 2.052 . S
O11 C7 1.241 . S
O12 Co0 2.137 . S
O12 C3 1.247 . S
O13 Co0 2.244 . S
O13 C3 1.272 . S
O13 Co5 2.135 . S
Co14 O15 2.216 . S
Co14 O16 2.091 1_556 S
Co14 O18 2.004 . S
Co14 O24 2.021 . S
Co14 O26 2.137 . S
Co14 O27 2.244 . S
O15 Co14 2.216 . S
O15 C22 1.247 1_556 S
O16 Co14 2.091 1_554 S
O16 C22 1.261 . S
C17 O26 1.247 . S
C17 O27 1.272 . S
O18 Co14 2.004 . S
O18 C23 1.259 . S
Co19 O20 2.061 . S
Co19 O25 2.052 . S
Co19 O27 2.135 . S
O20 Co19 2.061 . S
O20 C23 1.235 . S
C21 O24 1.238 . S
C21 O25 1.241 . S
C22 O15 1.247 1_554 S
C22 O16 1.261 . S
C23 O18 1.259 . S
C23 O20 1.235 . S
O24 Co14 2.021 . S
O24 C21 1.238 . S
O25 Co19 2.052 . S
O25 C21 1.241 . S
O26 Co14 2.137 . S
O26 C17 1.247 . S
O27 Co14 2.244 . S
O27 C17 1.272 . S
O27 Co19 2.135 . S
Co28 O29 2.216 . S
Co28 O30 2.091 1_554 S
Co28 O32 2.004 . S
Co28 O38 2.021 . S
Co28 O40 2.137 . S
Co28 O41 2.244 . S
O29 Co28 2.216 . S
O29 C36 1.247 1_554 S
O30 Co28 2.091 1_556 S
O30 C36 1.261 . S
C31 O40 1.247 . S
C31 O41 1.272 . S
O32 Co28 2.004 . S
O32 C37 1.259 . S
Co33 O34 2.061 . S
Co33 O39 2.052 . S
Co33 O41 2.135 . S
O34 Co33 2.061 . S
O34 C37 1.235 . S
C35 O38 1.238 . S
C35 O39 1.241 . S
C36 O29 1.247 1_556 S
C36 O30 1.261 . S
C37 O32 1.259 . S
C37 O34 1.235 . S
O38 Co28 2.021 . S
O38 C35 1.238 . S
O39 Co33 2.052 . S
O39 C35 1.241 . S
O40 Co28 2.137 . S
O40 C31 1.247 . S
O41 Co28 2.244 . S
O41 C31 1.272 . S
O41 Co33 2.135 . S
Co42 O43 2.216 . S
Co42 O44 2.091 1_556 S
Co42 O46 2.004 . S
Co42 O52 2.021 . S
Co42 O54 2.137 . S
Co42 O55 2.244 . S
O43 Co42 2.216 . S
O43 C50 1.247 1_556 S
O44 Co42 2.091 1_554 S
O44 C50 1.261 . S
C45 O54 1.247 . S
C45 O55 1.272 . S
O46 Co42 2.004 . S
O46 C51 1.259 . S
Co47 O48 2.061 . S
Co47 O53 2.052 . S
Co47 O55 2.135 . S
O48 Co47 2.061 . S
O48 C51 1.235 . S
C49 O52 1.238 . S
C49 O53 1.241 . S
C50 O43 1.247 1_554 S
C50 O44 1.261 . S
C51 O46 1.259 . S
C51 O48 1.235 . S
O52 Co42 2.021 . S
O52 C49 1.238 . S
O53 Co47 2.052 . S
O53 C49 1.241 . S
O54 Co42 2.137 . S
O54 C45 1.247 . S
O55 Co42 2.244 . S
O55 C45 1.272 . S
O55 Co47 2.135 . S
Co56 O57 2.216 . S
Co56 O58 2.091 . S
Co56 O60 2.004 . S
Co56 O66 2.021 . S
Co56 O68 2.137 . S
Co56 O69 2.244 1_554 S
O57 Co56 2.216 . S
O57 C64 1.247 . S
O58 Co56 2.091 . S
O58 C64 1.261 . S
C59 O68 1.247 . S
C59 O69 1.272 1_554 S
O60 Co56 2.004 . S
O60 C65 1.259 . S
Co61 O62 2.061 . S
Co61 O67 2.052 . S
Co61 O69 2.135 . S
O62 Co61 2.061 . S
O62 C65 1.235 1_556 S
C63 O66 1.238 . S
C63 O67 1.241 1_554 S
C64 O57 1.247 . S
C64 O58 1.261 . S
C65 O60 1.259 . S
C65 O62 1.235 1_554 S
O66 Co56 2.021 . S
O66 C63 1.238 . S
O67 Co61 2.052 . S
O67 C63 1.241 1_556 S
O68 Co56 2.137 . S
O68 C59 1.247 . S
O69 Co56 2.244 1_556 S
O69 C59 1.272 1_556 S
O69 Co61 2.135 . S
Co70 O71 2.216 . S
Co70 O72 2.091 . S
Co70 O74 2.004 . S
Co70 O80 2.021 . S
Co70 O82 2.137 . S
Co70 O83 2.244 1_556 S
O71 Co70 2.216 . S
O71 C78 1.247 . S
O72 Co70 2.091 . S
O72 C78 1.261 . S
C73 O82 1.247 . S
C73 O83 1.272 1_556 S
O74 Co70 2.004 . S
O74 C79 1.259 . S
Co75 O76 2.061 . S
Co75 O81 2.052 . S
Co75 O83 2.135 . S
O76 Co75 2.061 . S
O76 C79 1.235 1_554 S
C77 O80 1.238 . S
C77 O81 1.241 1_556 S
C78 O71 1.247 . S
C78 O72 1.261 . S
C79 O74 1.259 . S
C79 O76 1.235 1_556 S
O80 Co70 2.021 . S
O80 C77 1.238 . S
O81 Co75 2.052 . S
O81 C77 1.241 1_554 S
O82 Co70 2.137 . S
O82 C73 1.247 . S
O83 Co70 2.244 1_554 S
O83 C73 1.272 1_554 S
O83 Co75 2.135 . S
Co84 O85 2.216 . S
Co84 O86 2.091 . S
Co84 O88 2.004 . S
Co84 O94 2.021 . S
Co84 O96 2.137 . S
Co84 O97 2.244 1_554 S
O85 Co84 2.216 . S
O85 C92 1.247 . S
O86 Co84 2.091 . S
O86 C92 1.261 . S
C87 O96 1.247 . S
C87 O97 1.272 1_554 S
O88 Co84 2.004 . S
O88 C93 1.259 . S
Co89 O90 2.061 . S
Co89 O95 2.052 . S
Co89 O97 2.135 . S
O90 Co89 2.061 . S
O90 C93 1.235 1_556 S
C91 O94 1.238 . S
C91 O95 1.241 1_554 S
C92 O85 1.247 . S
C92 O86 1.261 . S
C93 O88 1.259 . S
C93 O90 1.235 1_554 S
O94 Co84 2.021 . S
O94 C91 1.238 . S
O95 Co89 2.052 . S
O95 C91 1.241 1_556 S
O96 Co84 2.137 . S
O96 C87 1.247 . S
O97 Co84 2.244 1_556 S
O97 C87 1.272 1_556 S
O97 Co89 2.135 . S
Co98 O99 2.216 . S
Co98 O100 2.091 . S
Co98 O102 2.004 . S
Co98 O108 2.021 . S
Co98 O110 2.137 . S
Co98 O111 2.244 1_556 S
O99 Co98 2.216 . S
O99 C106 1.247 . S
O100 Co98 2.091 . S
O100 C106 1.261 . S
C101 O110 1.247 . S
C101 O111 1.272 1_556 S
O102 Co98 2.004 . S
O102 C107 1.259 . S
Co103 O104 2.061 . S
Co103 O109 2.052 . S
Co103 O111 2.135 . S
O104 Co103 2.061 . S
O104 C107 1.235 1_554 S
C105 O108 1.238 . S
C105 O109 1.241 1_556 S
C106 O99 1.247 . S
C106 O100 1.261 . S
C107 O102 1.259 . S
C107 O104 1.235 1_556 S
O108 Co98 2.021 . S
O108 C105 1.238 . S
O109 Co103 2.052 . S
O109 C105 1.241 1_554 S
O110 Co98 2.137 . S
O110 C101 1.247 . S
O111 Co98 2.244 1_554 S
O111 C101 1.272 1_554 S
O111 Co103 2.135 . S
Co112 O113 2.216 . S
Co112 O114 2.091 . S
Co112 O116 2.004 . S
Co112 O122 2.021 . S
Co112 O124 2.137 . S
Co112 O125 2.244 . S
O113 Co112 2.216 . S
O113 C120 1.247 . S
O114 Co112 2.091 . S
O114 C120 1.261 . S
C115 O124 1.247 . S
C115 O125 1.272 . S
O116 Co112 2.004 . S
O116 C121 1.259 . S
Co117 O118 2.061 . S
Co117 O123 2.052 . S
Co117 O125 2.135 . S
O118 Co117 2.061 . S
O118 C121 1.235 . S
C119 O122 1.238 . S
C119 O123 1.241 . S
C120 O113 1.247 . S
C120 O114 1.261 . S
C121 O116 1.259 . S
C121 O118 1.235 . S
O122 Co112 2.021 . S
O122 C119 1.238 . S
O123 Co117 2.052 . S
O123 C119 1.241 . S
O124 Co112 2.137 . S
O124 C115 1.247 . S
O125 Co112 2.244 . S
O125 C115 1.272 . S
O125 Co117 2.135 . S
Co126 O127 2.216 . S
Co126 O128 2.091 . S
Co126 O130 2.004 . S
Co126 O136 2.021 . S
Co126 O138 2.137 . S
Co126 O139 2.244 . S
O127 Co126 2.216 . S
O127 C134 1.247 . S
O128 Co126 2.091 . S
O128 C134 1.261 . S
C129 O138 1.247 . S
C129 O139 1.272 . S
O130 Co126 2.004 . S
O130 C135 1.259 . S
Co131 O132 2.061 . S
Co131 O137 2.052 . S
Co131 O139 2.135 . S
O132 Co131 2.061 . S
O132 C135 1.235 . S
C133 O136 1.238 . S
C133 O137 1.241 . S
C134 O127 1.247 . S
C134 O128 1.261 . S
C135 O130 1.259 . S
C135 O132 1.235 . S
O136 Co126 2.021 . S
O136 C133 1.238 . S
O137 Co131 2.052 . S
O137 C133 1.241 . S
O138 Co126 2.137 . S
O138 C129 1.247 . S
O139 Co126 2.244 . S
O139 C129 1.272 . S
O139 Co131 2.135 . S
Co140 O141 2.216 . S
Co140 O142 2.091 . S
Co140 O144 2.004 . S
Co140 O150 2.021 . S
Co140 O152 2.137 . S
Co140 O153 2.244 . S
O141 Co140 2.216 . S
O141 C148 1.247 . S
O142 Co140 2.091 . S
O142 C148 1.261 . S
C143 O152 1.247 . S
C143 O153 1.272 . S
O144 Co140 2.004 . S
O144 C149 1.259 . S
Co145 O146 2.061 . S
Co145 O151 2.052 . S
Co145 O153 2.135 . S
O146 Co145 2.061 . S
O146 C149 1.235 . S
C147 O150 1.238 . S
C147 O151 1.241 . S
C148 O141 1.247 . S
C148 O142 1.261 . S
C149 O144 1.259 . S
C149 O146 1.235 . S
O150 Co140 2.021 . S
O150 C147 1.238 . S
O151 Co145 2.052 . S
O151 C147 1.241 . S
O152 Co140 2.137 . S
O152 C143 1.247 . S
O153 Co140 2.244 . S
O153 C143 1.272 . S
O153 Co145 2.135 . S
Co154 O155 2.216 . S
Co154 O156 2.091 . S
Co154 O158 2.004 . S
Co154 O164 2.021 . S
Co154 O166 2.137 . S
Co154 O167 2.244 . S
O155 Co154 2.216 . S
O155 C162 1.247 . S
O156 Co154 2.091 . S
O156 C162 1.261 . S
C157 O166 1.247 . S
C157 O167 1.272 . S
O158 Co154 2.004 . S
O158 C163 1.259 . S
Co159 O160 2.061 . S
Co159 O165 2.052 . S
Co159 O167 2.135 . S
O160 Co159 2.061 . S
O160 C163 1.235 . S
C161 O164 1.238 . S
C161 O165 1.241 . S
C162 O155 1.247 . S
C162 O156 1.261 . S
C163 O158 1.259 . S
C163 O160 1.235 . S
O164 Co154 2.021 . S
O164 C161 1.238 . S
O165 Co159 2.052 . S
O165 C161 1.241 . S
O166 Co154 2.137 . S
O166 C157 1.247 . S
O167 Co154 2.244 . S
O167 C157 1.272 . S
O167 Co159 2.135 . S
Co168 O169 2.216 . S
Co168 O170 2.091 . S
Co168 O172 2.004 . S
Co168 O178 2.021 . S
Co168 O180 2.137 . S
Co168 O181 2.244 . S
O169 Co168 2.216 . S
O169 C176 1.247 . S
O170 Co168 2.091 . S
O170 C176 1.261 . S
C171 O180 1.247 . S
C171 O181 1.272 . S
O172 Co168 2.004 . S
O172 C177 1.259 . S
Co173 O174 2.061 . S
Co173 O179 2.052 . S
Co173 O181 2.135 . S
O174 Co173 2.061 . S
O174 C177 1.235 . S
C175 O178 1.238 . S
C175 O179 1.241 . S
C176 O169 1.247 . S
C176 O170 1.261 . S
C177 O172 1.259 . S
C177 O174 1.235 . S
O178 Co168 2.021 . S
O178 C175 1.238 . S
O179 Co173 2.052 . S
O179 C175 1.241 . S
O180 Co168 2.137 . S
O180 C171 1.247 . S
O181 Co168 2.244 . S
O181 C171 1.272 . S
O181 Co173 2.135 . S
Co182 O183 2.216 . S
Co182 O184 2.091 . S
Co182 O186 2.004 . S
Co182 O192 2.021 . S
Co182 O194 2.137 . S
Co182 O195 2.244 . S
O183 Co182 2.216 . S
O183 C190 1.247 . S
O184 Co182 2.091 . S
O184 C190 1.261 . S
C185 O194 1.247 . S
C185 O195 1.272 . S
O186 Co182 2.004 . S
O186 C191 1.259 . S
Co187 O188 2.061 . S
Co187 O193 2.052 . S
Co187 O195 2.135 . S
O188 Co187 2.061 . S
O188 C191 1.235 . S
C189 O192 1.238 . S
C189 O193 1.241 . S
C190 O183 1.247 . S
C190 O184 1.261 . S
C191 O186 1.259 . S
C191 O188 1.235 . S
O192 Co182 2.021 . S
O192 C189 1.238 . S
O193 Co187 2.052 . S
O193 C189 1.241 . S
O194 Co182 2.137 . S
O194 C185 1.247 . S
O195 Co182 2.244 . S
O195 C185 1.272 . S
O195 Co187 2.135 . S
Co196 O197 2.216 . S
Co196 O198 2.091 . S
Co196 O200 2.004 . S
Co196 O206 2.021 . S
Co196 O208 2.137 . S
Co196 O209 2.244 . S
O197 Co196 2.216 . S
O197 C204 1.247 . S
O198 Co196 2.091 . S
O198 C204 1.261 . S
C199 O208 1.247 . S
C199 O209 1.272 . S
O200 Co196 2.004 . S
O200 C205 1.259 . S
Co201 O202 2.061 . S
Co201 O207 2.052 . S
Co201 O209 2.135 . S
O202 Co201 2.061 . S
O202 C205 1.235 . S
C203 O206 1.238 . S
C203 O207 1.241 . S
C204 O197 1.247 . S
C204 O198 1.261 . S
C205 O200 1.259 . S
C205 O202 1.235 . S
O206 Co196 2.021 . S
O206 C203 1.238 . S
O207 Co201 2.052 . S
O207 C203 1.241 . S
O208 Co196 2.137 . S
O208 C199 1.247 . S
O209 Co196 2.244 . S
O209 C199 1.272 . S
O209 Co201 2.135 . S
Co210 O211 2.216 . S
Co210 O212 2.091 . S
Co210 O214 2.004 . S
Co210 O220 2.021 . S
Co210 O222 2.137 . S
Co210 O223 2.244 . S
O211 Co210 2.216 . S
O211 C218 1.247 . S
O212 Co210 2.091 . S
O212 C218 1.261 . S
C213 O222 1.247 . S
C213 O223 1.272 . S
O214 Co210 2.004 . S
O214 C219 1.259 . S
Co215 O216 2.061 . S
Co215 O221 2.052 . S
Co215 O223 2.135 . S
O216 Co215 2.061 . S
O216 C219 1.235 . S
C217 O220 1.238 . S
C217 O221 1.241 . S
C218 O211 1.247 . S
C218 O212 1.261 . S
C219 O214 1.259 . S
C219 O216 1.235 . S
O220 Co210 2.021 . S
O220 C217 1.238 . S
O221 Co215 2.052 . S
O221 C217 1.241 . S
O222 Co210 2.137 . S
O222 C213 1.247 . S
O223 Co210 2.244 . S
O223 C213 1.272 . S
O223 Co215 2.135 . S
C224 C225 1.170 . S
C224 C226 1.380 1_565 S
C225 C224 1.170 . S
C226 C224 1.380 1_545 S
C226 C227 1.170 . S
C227 C226 1.170 . S
C228 C229 1.170 . S
C228 C230 1.380 1_455 S
C229 C228 1.170 . S
C230 C228 1.380 1_655 S
C230 C231 1.170 . S
C231 C230 1.170 . S
C232 C233 1.170 . S
C232 C234 1.380 1_565 S
C233 C232 1.170 . S
C234 C232 1.380 1_545 S
C234 C235 1.170 . S
C235 C234 1.170 . S
C236 C237 1.170 . S
C236 C238 1.380 1_455 S
C237 C236 1.170 . S
C238 C236 1.380 1_655 S
C238 C239 1.170 . S
C239 C238 1.170 . S
C240 C241 1.170 . S
C240 C242 1.380 . S
C241 C240 1.170 . S
C242 C240 1.380 . S
C242 C243 1.170 . S
C243 C242 1.170 . S
C244 C245 1.170 . S
C244 C246 1.380 . S
C245 C244 1.170 . S
C246 C244 1.380 . S
C246 C247 1.170 . S
C247 C246 1.170 . S
C248 C249 1.170 . S
C248 C250 1.380 . S
C249 C248 1.170 . S
C250 C248 1.380 . S
C250 C251 1.170 . S
C251 C250 1.170 . S
C252 C253 1.170 . S
C252 C254 1.380 . S
C253 C252 1.170 . S
C254 C252 1.380 . S
C254 C255 1.170 . S
C255 C254 1.170 . S
C256 C257 1.170 . S
C256 C258 1.380 . S
C257 C256 1.170 . S
C258 C256 1.380 . S
C258 C259 1.170 . S
C259 C258 1.170 . S
C260 C261 1.170 . S
C260 C262 1.380 . S
C261 C260 1.170 . S
C262 C260 1.380 . S
C262 C263 1.170 . S
C263 C262 1.170 . S
C264 C265 1.170 . S
C264 C266 1.380 . S
C265 C264 1.170 . S
C266 C264 1.380 . S
C266 C267 1.170 . S
C267 C266 1.170 . S
C268 C269 1.170 . S
C268 C270 1.380 . S
C269 C268 1.170 . S
C270 C268 1.380 . S
C270 C271 1.170 . S
C271 C270 1.170 . S
C272 C273 1.170 . S
C272 C274 1.380 1_565 S
C273 C272 1.170 . S
C274 C272 1.380 1_545 S
C274 C275 1.170 . S
C275 C274 1.170 . S
C276 C277 1.170 . S
C276 C278 1.380 1_655 S
C277 C276 1.170 . S
C278 C276 1.380 1_455 S
C278 C279 1.170 . S
C279 C278 1.170 . S
C280 C281 1.170 . S
C280 C282 1.380 1_565 S
C281 C280 1.170 . S
C282 C280 1.380 1_545 S
C282 C283 1.170 . S
C283 C282 1.170 . S
C284 C285 1.170 . S
C284 C286 1.380 1_655 S
C285 C284 1.170 . S
C286 C284 1.380 1_455 S
C286 C287 1.170 . S
C287 C286 1.170 . S
C288 C289 1.170 . S
C288 C290 1.380 . S
C289 C288 1.170 . S
C290 C288 1.380 . S
C290 C291 1.170 . S
C291 C290 1.170 . S
C292 C293 1.170 . S
C292 C294 1.380 . S
C293 C292 1.170 . S
C294 C292 1.380 . S
C294 C295 1.170 . S
C295 C294 1.170 . S
C296 C297 1.170 . S
C296 C298 1.380 . S
C297 C296 1.170 . S
C298 C296 1.380 . S
C298 C299 1.170 . S
C299 C298 1.170 . S
C300 C301 1.170 . S
C300 C302 1.380 . S
C301 C300 1.170 . S
C302 C300 1.380 . S
C302 C303 1.170 . S
C303 C302 1.170 . S
C304 C305 1.170 . S
C304 C306 1.380 . S
C305 C304 1.170 . S
C306 C304 1.380 . S
C306 C307 1.170 . S
C307 C306 1.170 . S
C308 C309 1.170 . S
C308 C310 1.380 . S
C309 C308 1.170 . S
C310 C308 1.380 . S
C310 C311 1.170 . S
C311 C310 1.170 . S
C312 C313 1.170 . S
C312 C314 1.380 . S
C313 C312 1.170 . S
C314 C312 1.380 . S
C314 C315 1.170 . S
C315 C314 1.170 . S
C316 C317 1.170 . S
C316 C318 1.380 . S
C317 C316 1.170 . S
C318 C316 1.380 . S
C318 C319 1.170 . S
C319 C318 1.170 . S
C320 C321 1.170 . S
C320 C322 1.380 . S
C321 C320 1.170 . S
C322 C320 1.380 . S
C322 C323 1.170 . S
C323 C322 1.170 . S
C324 C325 1.170 . S
C324 C326 1.380 . S
C325 C324 1.170 . S
C326 C324 1.380 . S
C326 C327 1.170 . S
C327 C326 1.170 . S
C328 C329 1.170 . S
C328 C330 1.380 . S
C329 C328 1.170 . S
C330 C328 1.380 . S
C330 C331 1.170 . S
C331 C330 1.170 . S
C332 C333 1.170 . S
C332 C334 1.380 . S
C333 C332 1.170 . S
C334 C332 1.380 . S
C334 C335 1.170 . S
C335 C334 1.170 . S
C336 C337 1.170 . S
C336 C338 1.380 . S
C337 C336 1.170 . S
C338 C336 1.380 . S
C338 C339 1.170 . S
C339 C338 1.170 . S
C340 C341 1.170 . S
C340 C342 1.380 . S
C341 C340 1.170 . S
C342 C340 1.380 . S
C342 C343 1.170 . S
C343 C342 1.170 . S
C344 C345 1.170 . S
C344 C346 1.380 . S
C345 C344 1.170 . S
C346 C344 1.380 . S
C346 C347 1.170 . S
C347 C346 1.170 . S
C348 C349 1.170 . S
C348 C350 1.380 . S
C349 C348 1.170 . S
C350 C348 1.380 . S
C350 C351 1.170 . S
C351 C350 1.170 . S
C225 C163 1.350 . S
C227 C3 1.321 . S
C229 C17 1.347 . S
C231 C121 1.341 . S
C233 C31 1.357 . S
C235 C135 1.367 . S
C237 C149 1.354 . S
C239 C45 1.363 . S
C241 C59 1.343 1_556 S
C243 C79 1.370 . S
C245 C73 1.319 1_554 S
C247 C93 1.354 . S
C249 C107 1.353 . S
C251 C87 1.324 1_556 S
C253 C65 1.358 . S
C255 C101 1.318 1_554 S
C257 C51 1.347 . S
C259 C115 1.319 . S
C261 C129 1.326 . S
C263 C9 1.345 . S
C265 C23 1.380 . S
C267 C143 1.363 . S
C269 C157 1.321 . S
C271 C37 1.372 . S
C273 C171 1.350 . S
C275 C191 1.374 . S
C277 C185 1.341 . S
C279 C205 1.380 . S
C281 C219 1.375 . S
C283 C199 1.351 . S
C285 C177 1.351 . S
C287 C213 1.362 . S
C289 C63 1.422 . S
C291 C7 1.424 . S
C293 C21 1.462 . S
C295 C77 1.427 . S
C297 C35 1.423 . S
C299 C91 1.424 . S
C301 C105 1.433 . S
C303 C49 1.432 . S
C305 C119 1.461 . S
C307 C175 1.448 . S
C309 C189 1.434 . S
C311 C133 1.459 . S
C313 C147 1.420 . S
C315 C203 1.436 . S
C317 C217 1.460 . S
C319 C161 1.434 . S
C321 C204 1.464 . S
C323 C8 1.439 . S
C325 C218 1.467 . S
C327 C22 1.448 . S
C329 C36 1.466 . S
C331 C176 1.439 . S
C333 C190 1.466 . S
C335 C50 1.450 . S
C337 C148 1.442 . S
C339 C64 1.469 . S
C341 C162 1.465 . S
C343 C78 1.451 . S
C345 C92 1.467 . S
C347 C120 1.439 . S
C349 C134 1.439 . S
C351 C106 1.464 . S
