# Generated by pormake.
# Topology uks, (4)-cn, num edge types: 1
# Building blocks:
#     Node 0, Type 0, BuildingBlock: KOZSID_clean_sbu_0, # of connection points: 4
#     Node 1, Type 0, BuildingBlock: KOZSID_clean_sbu_0, # of connection points: 4
#     Node 2, Type 0, BuildingBlock: KOZSID_clean_sbu_0, # of connection points: 4
#     Node 3, Type 0, BuildingBlock: KOZSID_clean_sbu_0, # of connection points: 4
#     Node 4, Type 0, BuildingBlock: KOZSID_clean_sbu_0, # of connection points: 4
#     Node 5, Type 0, BuildingBlock: KOZSID_clean_sbu_0, # of connection points: 4
#     Node 6, Type 0, BuildingBlock: KOZSID_clean_sbu_0, # of connection points: 4
#     Node 7, Type 0, BuildingBlock: KOZSID_clean_sbu_0, # of connection points: 4
#     Node 8, Type 0, BuildingBlock: KOZSID_clean_sbu_0, # of connection points: 4
#     Node 9, Type 0, BuildingBlock: KOZSID_clean_sbu_0, # of connection points: 4
#     Node 10, Type 0, BuildingBlock: KOZSID_clean_sbu_0, # of connection points: 4
#     Node 11, Type 0, BuildingBlock: KOZSID_clean_sbu_0, # of connection points: 4
#     Node 12, Type 0, BuildingBlock: KOZSID_clean_sbu_0, # of connection points: 4
#     Node 13, Type 0, BuildingBlock: KOZSID_clean_sbu_0, # of connection points: 4
#     Node 14, Type 0, BuildingBlock: KOZSID_clean_sbu_0, # of connection points: 4
#     Node 15, Type 0, BuildingBlock: KOZSID_clean_sbu_0, # of connection points: 4
#     Node 16, Type 0, BuildingBlock: KOZSID_clean_sbu_0, # of connection points: 4
#     Node 17, Type 0, BuildingBlock: KOZSID_clean_sbu_0, # of connection points: 4
#     Node 18, Type 0, BuildingBlock: KOZSID_clean_sbu_0, # of connection points: 4
#     Node 19, Type 0, BuildingBlock: KOZSID_clean_sbu_0, # of connection points: 4
#     Node 20, Type 0, BuildingBlock: KOZSID_clean_sbu_0, # of connection points: 4
#     Node 21, Type 0, BuildingBlock: KOZSID_clean_sbu_0, # of connection points: 4
#     Node 22, Type 0, BuildingBlock: KOZSID_clean_sbu_0, # of connection points: 4
#     Node 23, Type 0, BuildingBlock: KOZSID_clean_sbu_0, # of connection points: 4
#     Edge 24, Type (0, 0), BuildingBlock: XUDNAN_clean_linker_2, # of connection points: 2
#     Edge 25, Type (0, 0), BuildingBlock: XUDNAN_clean_linker_2, # of connection points: 2
#     Edge 26, Type (0, 0), BuildingBlock: XUDNAN_clean_linker_2, # of connection points: 2
#     Edge 27, Type (0, 0), BuildingBlock: XUDNAN_clean_linker_2, # of connection points: 2
#     Edge 28, Type (0, 0), BuildingBlock: XUDNAN_clean_linker_2, # of connection points: 2
#     Edge 29, Type (0, 0), BuildingBlock: XUDNAN_clean_linker_2, # of connection points: 2
#     Edge 30, Type (0, 0), BuildingBlock: XUDNAN_clean_linker_2, # of connection points: 2
#     Edge 31, Type (0, 0), BuildingBlock: XUDNAN_clean_linker_2, # of connection points: 2
#     Edge 32, Type (0, 0), BuildingBlock: XUDNAN_clean_linker_2, # of connection points: 2
#     Edge 33, Type (0, 0), BuildingBlock: XUDNAN_clean_linker_2, # of connection points: 2
#     Edge 34, Type (0, 0), BuildingBlock: XUDNAN_clean_linker_2, # of connection points: 2
#     Edge 35, Type (0, 0), BuildingBlock: XUDNAN_clean_linker_2, # of connection points: 2
#     Edge 36, Type (0, 0), BuildingBlock: XUDNAN_clean_linker_2, # of connection points: 2
#     Edge 37, Type (0, 0), BuildingBlock: XUDNAN_clean_linker_2, # of connection points: 2
#     Edge 38, Type (0, 0), BuildingBlock: XUDNAN_clean_linker_2, # of connection points: 2
#     Edge 39, Type (0, 0), BuildingBlock: XUDNAN_clean_linker_2, # of connection points: 2
#     Edge 40, Type (0, 0), BuildingBlock: XUDNAN_clean_linker_2, # of connection points: 2
#     Edge 41, Type (0, 0), BuildingBlock: XUDNAN_clean_linker_2, # of connection points: 2
#     Edge 42, Type (0, 0), BuildingBlock: XUDNAN_clean_linker_2, # of connection points: 2
#     Edge 43, Type (0, 0), BuildingBlock: XUDNAN_clean_linker_2, # of connection points: 2
#     Edge 44, Type (0, 0), BuildingBlock: XUDNAN_clean_linker_2, # of connection points: 2
#     Edge 45, Type (0, 0), BuildingBlock: XUDNAN_clean_linker_2, # of connection points: 2
#     Edge 46, Type (0, 0), BuildingBlock: XUDNAN_clean_linker_2, # of connection points: 2
#     Edge 47, Type (0, 0), BuildingBlock: XUDNAN_clean_linker_2, # of connection points: 2
#     Edge 48, Type (0, 0), BuildingBlock: XUDNAN_clean_linker_2, # of connection points: 2
#     Edge 49, Type (0, 0), BuildingBlock: XUDNAN_clean_linker_2, # of connection points: 2
#     Edge 50, Type (0, 0), BuildingBlock: XUDNAN_clean_linker_2, # of connection points: 2
#     Edge 51, Type (0, 0), BuildingBlock: XUDNAN_clean_linker_2, # of connection points: 2
#     Edge 52, Type (0, 0), BuildingBlock: XUDNAN_clean_linker_2, # of connection points: 2
#     Edge 53, Type (0, 0), BuildingBlock: XUDNAN_clean_linker_2, # of connection points: 2
#     Edge 54, Type (0, 0), BuildingBlock: XUDNAN_clean_linker_2, # of connection points: 2
#     Edge 55, Type (0, 0), BuildingBlock: XUDNAN_clean_linker_2, # of connection points: 2
#     Edge 56, Type (0, 0), BuildingBlock: XUDNAN_clean_linker_2, # of connection points: 2
#     Edge 57, Type (0, 0), BuildingBlock: XUDNAN_clean_linker_2, # of connection points: 2
#     Edge 58, Type (0, 0), BuildingBlock: XUDNAN_clean_linker_2, # of connection points: 2
#     Edge 59, Type (0, 0), BuildingBlock: XUDNAN_clean_linker_2, # of connection points: 2
#     Edge 60, Type (0, 0), BuildingBlock: XUDNAN_clean_linker_2, # of connection points: 2
#     Edge 61, Type (0, 0), BuildingBlock: XUDNAN_clean_linker_2, # of connection points: 2
#     Edge 62, Type (0, 0), BuildingBlock: XUDNAN_clean_linker_2, # of connection points: 2
#     Edge 63, Type (0, 0), BuildingBlock: XUDNAN_clean_linker_2, # of connection points: 2
#     Edge 64, Type (0, 0), BuildingBlock: XUDNAN_clean_linker_2, # of connection points: 2
#     Edge 65, Type (0, 0), BuildingBlock: XUDNAN_clean_linker_2, # of connection points: 2
#     Edge 66, Type (0, 0), BuildingBlock: XUDNAN_clean_linker_2, # of connection points: 2
#     Edge 67, Type (0, 0), BuildingBlock: XUDNAN_clean_linker_2, # of connection points: 2
#     Edge 68, Type (0, 0), BuildingBlock: XUDNAN_clean_linker_2, # of connection points: 2
#     Edge 69, Type (0, 0), BuildingBlock: XUDNAN_clean_linker_2, # of connection points: 2
#     Edge 70, Type (0, 0), BuildingBlock: XUDNAN_clean_linker_2, # of connection points: 2
#     Edge 71, Type (0, 0), BuildingBlock: XUDNAN_clean_linker_2, # of connection points: 2
# Relax obj value: 0.062
# Max RMSD: 0.071
# Mean RMSD: 0.058
data_MOF--net-uks--node1-KOZSID_clean_sbu_0--edge1-XUDNAN_clean_linker_2
_symmetry_space_group_name_H-M    P1
_symmetry_Int_Tables_number       1
_symmetry_cell_setting            triclinic
loop_
_symmetry_equiv_pos_as_xyz
'x, y, z'
_cell_length_a     61.650478
_cell_length_b     72.57381
_cell_length_c     64.320444
_cell_angle_alpha  89.249975
_cell_angle_beta   90.932912
_cell_angle_gamma 90.05646
loop_
_atom_site_label
_atom_site_type_symbol
_atom_site_fract_x
_atom_site_fract_y
_atom_site_fract_z
_atom_type_partial_charge
C0 C 0.08129 0.38372 0.7011 0.0
C1 C 0.06469 0.38934 0.71385 0.0
C2 C 0.0742 0.39943 0.72946 0.0
C3 C 0.09601 0.39945 0.72538 0.0
N4 N 0.10078 0.38998 0.70822 0.0
Co5 Co 0.1303 0.38644 0.69698 0.0
N6 N 0.14459 0.39295 0.72381 0.0
C7 C 0.1351 0.40195 0.7394 0.0
C8 C 0.14887 0.40469 0.75607 0.0
C9 C 0.16828 0.39707 0.75055 0.0
C10 C 0.16532 0.39016 0.73068 0.0
N11 N 0.15979 0.38285 0.68567 0.0
C12 C 0.17923 0.3807 0.69569 0.0
C13 C 0.19584 0.37903 0.68154 0.0
C14 C 0.18643 0.38026 0.66207 0.0
C15 C 0.16465 0.38266 0.66535 0.0
N16 N 0.11589 0.38003 0.67015 0.0
C17 C 0.12544 0.38012 0.6515 0.0
C18 C 0.11153 0.37492 0.63571 0.0
C19 C 0.09202 0.37143 0.64504 0.0
C20 C 0.09509 0.37475 0.66607 0.0
N21 N 0.13124 0.41251 0.68813 0.0
C22 C 0.13393 0.44908 0.67262 0.0
C23 C 0.11442 0.43899 0.67149 0.0
C24 C 0.1135 0.42079 0.67904 0.0
C25 C 0.15184 0.44037 0.68232 0.0
C26 C 0.15006 0.42237 0.6902 0.0
N27 N 0.12951 0.3605 0.70557 0.0
C28 C 0.13615 0.32874 0.69767 0.0
C29 C 0.12749 0.32298 0.71674 0.0
C30 C 0.12028 0.33663 0.73029 0.0
C31 C 0.12164 0.35528 0.7245 0.0
C32 C 0.13671 0.34739 0.69231 0.0
H33 H 0.11607 0.36546 0.73524 0.0
H34 H 0.14293 0.35118 0.67731 0.0
H35 H 0.09845 0.41334 0.6773 0.0
H36 H 0.16421 0.41631 0.69756 0.0
C37 C 0.11264 0.40509 0.73902 0.0
C38 C 0.07784 0.37364 0.68163 0.0
C39 C 0.18276 0.38208 0.71833 0.0
C40 C 0.14806 0.38193 0.65015 0.0
H41 H 0.04753 0.3865 0.71199 0.0
H42 H 0.06623 0.40536 0.74267 0.0
H43 H 0.14509 0.41092 0.77077 0.0
H44 H 0.18292 0.39675 0.76006 0.0
H45 H 0.21298 0.3774 0.68495 0.0
H46 H 0.19446 0.37903 0.64731 0.0
H47 H 0.11533 0.3731 0.6195 0.0
H48 H 0.0773 0.36693 0.63726 0.0
H49 H 0.09981 0.44497 0.66479 0.0
H50 H 0.16746 0.4471 0.68349 0.0
H51 H 0.14258 0.31897 0.68682 0.0
H52 H 0.11328 0.33303 0.74512 0.0
C53 C 0.61475 0.62824 0.16708 0.0
C54 C 0.6208 0.63277 0.14697 0.0
C55 C 0.64282 0.63096 0.14644 0.0
C56 C 0.64886 0.62538 0.16614 0.0
N57 N 0.63199 0.62315 0.17911 0.0
Co58 Co 0.63326 0.61605 0.2093 0.0
N59 N 0.66572 0.61743 0.20982 0.0
C60 C 0.67877 0.62121 0.19358 0.0
C61 C 0.70041 0.6212 0.19872 0.0
C62 C 0.70127 0.61727 0.2195 0.0
C63 C 0.67997 0.61517 0.22588 0.0
N64 N 0.63447 0.60879 0.23948 0.0
C65 C 0.65171 0.60713 0.2527 0.0
C66 C 0.64541 0.60185 0.27254 0.0
C67 C 0.6234 0.60002 0.2718 0.0
C68 C 0.61754 0.60433 0.25168 0.0
N69 N 0.60073 0.61513 0.20878 0.0
C70 C 0.58766 0.61018 0.2246 0.0
C71 C 0.56602 0.61247 0.22017 0.0
C72 C 0.56519 0.61974 0.20053 0.0
C73 C 0.5865 0.62133 0.194 0.0
N74 N 0.63486 0.58919 0.20173 0.0
C75 C 0.64003 0.55069 0.19465 0.0
C76 C 0.62385 0.55738 0.2076 0.0
C77 C 0.62156 0.57636 0.21084 0.0
C78 C 0.65284 0.5638 0.18447 0.0
C79 C 0.64997 0.58272 0.18812 0.0
N80 N 0.63185 0.64264 0.21694 0.0
C81 C 0.61722 0.66735 0.23768 0.0
C82 C 0.62922 0.68067 0.22685 0.0
C83 C 0.64287 0.67437 0.21121 0.0
C84 C 0.64391 0.65557 0.20656 0.0
C85 C 0.61874 0.64861 0.23253 0.0
H86 H 0.65454 0.65174 0.19438 0.0
H87 H 0.609 0.63917 0.24121 0.0
H88 H 0.60905 0.58021 0.22107 0.0
H89 H 0.66053 0.59174 0.17999 0.0
C90 C 0.67021 0.62463 0.17366 0.0
C91 C 0.59266 0.63007 0.17438 0.0
C92 C 0.67415 0.61079 0.24729 0.0
C93 C 0.59624 0.60529 0.2441 0.0
H94 H 0.61042 0.63753 0.13428 0.0
H95 H 0.65326 0.63426 0.13354 0.0
H96 H 0.71396 0.62371 0.18856 0.0
H97 H 0.71596 0.61601 0.22886 0.0
H98 H 0.65564 0.59974 0.28619 0.0
H99 H 0.61288 0.59633 0.28451 0.0
H100 H 0.55252 0.61006 0.23041 0.0
H101 H 0.55053 0.62403 0.1924 0.0
H102 H 0.61294 0.54799 0.21545 0.0
H103 H 0.66559 0.55953 0.1742 0.0
H104 H 0.60625 0.67136 0.24981 0.0
H105 H 0.6529 0.68391 0.20254 0.0
C106 C 0.43167 0.13801 0.70113 0.0
C107 C 0.44926 0.13141 0.71271 0.0
C108 C 0.44103 0.12244 0.72964 0.0
C109 C 0.41894 0.12394 0.72746 0.0
N110 N 0.4125 0.13321 0.71005 0.0
Co111 Co 0.38163 0.13891 0.70143 0.0
N112 N 0.36964 0.12817 0.72786 0.0
C113 C 0.38127 0.12003 0.74343 0.0
C114 C 0.36898 0.11482 0.7601 0.0
C115 C 0.34828 0.12013 0.755 0.0
C116 C 0.34906 0.12823 0.73537 0.0
N117 N 0.35084 0.14459 0.69271 0.0
C118 C 0.33197 0.1427 0.70321 0.0
C119 C 0.31426 0.14827 0.69109 0.0
C120 C 0.32221 0.1543 0.67254 0.0
C121 C 0.34422 0.15197 0.67427 0.0
N122 N 0.39361 0.15008 0.67524 0.0
C123 C 0.38189 0.15748 0.65926 0.0
C124 C 0.3943 0.16513 0.64391 0.0
C125 C 0.41524 0.16269 0.65053 0.0
C126 C 0.41448 0.15351 0.66958 0.0
N127 N 0.37903 0.11421 0.68793 0.0
C128 C 0.37073 0.07881 0.67095 0.0
C129 C 0.36495 0.09503 0.66014 0.0
C130 C 0.36949 0.11232 0.66866 0.0
C131 C 0.38159 0.08082 0.69006 0.0
C132 C 0.38545 0.09837 0.69816 0.0
N133 N 0.38385 0.16321 0.71504 0.0
C134 C 0.37376 0.19535 0.71702 0.0
C135 C 0.38386 0.19687 0.73659 0.0
C136 C 0.39472 0.18136 0.74465 0.0
C137 C 0.3943 0.16483 0.73387 0.0
C138 C 0.37419 0.17859 0.70648 0.0
H139 H 0.40231 0.15346 0.74126 0.0
H140 H 0.36627 0.17827 0.6916 0.0
H141 H 0.36479 0.12393 0.65943 0.0
H142 H 0.39349 0.09865 0.71285 0.0
C143 C 0.40387 0.1184 0.74239 0.0
C144 C 0.4341 0.14878 0.68181 0.0
C145 C 0.32997 0.13632 0.7248 0.0
C146 C 0.35925 0.15789 0.65959 0.0
H147 H 0.4663 0.13316 0.70942 0.0
H148 H 0.4501 0.11606 0.74235 0.0
H149 H 0.37451 0.10836 0.77449 0.0
H150 H 0.33429 0.11849 0.76478 0.0
H151 H 0.29736 0.14829 0.69539 0.0
H152 H 0.31309 0.16017 0.65955 0.0
H153 H 0.38875 0.17211 0.62983 0.0
H154 H 0.42945 0.16745 0.64239 0.0
H155 H 0.35646 0.09454 0.64531 0.0
H156 H 0.38719 0.06891 0.6989 0.0
H157 H 0.36506 0.20684 0.70997 0.0
H158 H 0.4035 0.18182 0.75934 0.0
C159 C 0.89655 0.87821 0.17578 0.0
C160 C 0.89803 0.87211 0.1555 0.0
C161 C 0.87749 0.8676 0.14918 0.0
C162 C 0.86471 0.87135 0.16584 0.0
N163 N 0.87581 0.87812 0.18236 0.0
Co164 Co 0.86346 0.88638 0.2093 0.0
N165 N 0.83377 0.87828 0.20068 0.0
C166 C 0.8284 0.8684 0.1837 0.0
C167 C 0.80747 0.86211 0.18361 0.0
C168 C 0.79886 0.86869 0.20144 0.0
C169 C 0.81493 0.87919 0.21107 0.0
N170 N 0.85071 0.89576 0.23567 0.0
C171 C 0.8296 0.89872 0.24037 0.0
C172 C 0.82786 0.9094 0.25807 0.0
C173 C 0.84843 0.91261 0.2652 0.0
C174 C 0.8616 0.90429 0.25124 0.0
N175 N 0.89357 0.8935 0.21834 0.0
C176 C 0.89961 0.90055 0.23689 0.0
C177 C 0.92158 0.90277 0.23931 0.0
C178 C 0.93017 0.89643 0.22135 0.0
C179 C 0.91283 0.89082 0.20893 0.0
N180 N 0.85836 0.91136 0.19662 0.0
C181 C 0.84886 0.94704 0.18012 0.0
C182 C 0.86175 0.94469 0.19806 0.0
C183 C 0.86638 0.92695 0.20586 0.0
C184 C 0.84104 0.93107 0.17048 0.0
C185 C 0.84587 0.91357 0.17892 0.0
N186 N 0.8683 0.8613 0.22213 0.0
C187 C 0.87566 0.84177 0.25242 0.0
C188 C 0.87378 0.82567 0.2407 0.0
C189 C 0.8692 0.82786 0.21943 0.0
C190 C 0.86668 0.84556 0.21055 0.0
C191 C 0.87293 0.8592 0.24297 0.0
H192 H 0.86349 0.84609 0.19421 0.0
H193 H 0.87462 0.8708 0.25289 0.0
H194 H 0.87643 0.92622 0.2195 0.0
H195 H 0.83915 0.90197 0.17099 0.0
C196 C 0.84296 0.86635 0.16752 0.0
C197 C 0.91548 0.88231 0.18873 0.0
C198 C 0.81098 0.89155 0.22846 0.0
C199 C 0.88418 0.90558 0.25135 0.0
H200 H 0.91259 0.87043 0.14653 0.0
H201 H 0.87261 0.86153 0.13454 0.0
H202 H 0.7993 0.85406 0.17179 0.0
H203 H 0.78233 0.86654 0.20633 0.0
H204 H 0.81342 0.9149 0.26494 0.0
H205 H 0.85323 0.92082 0.27844 0.0
H206 H 0.93031 0.90825 0.2526 0.0
H207 H 0.94727 0.89583 0.2179 0.0
H208 H 0.86855 0.95651 0.20595 0.0
H209 H 0.83087 0.93204 0.15662 0.0
H210 H 0.87901 0.84101 0.26899 0.0
H211 H 0.86795 0.81597 0.20948 0.0
C212 C 0.0821 0.13523 0.81064 0.0
C213 C 0.06517 0.12811 0.79875 0.0
C214 C 0.07433 0.11949 0.78231 0.0
C215 C 0.09627 0.12175 0.78508 0.0
N216 N 0.10174 0.13119 0.80239 0.0
Co217 Co 0.13204 0.13787 0.81179 0.0
N218 N 0.14535 0.1275 0.7861 0.0
C219 C 0.13454 0.11926 0.7703 0.0
C220 C 0.14758 0.11441 0.75419 0.0
C221 C 0.16793 0.12007 0.75991 0.0
C222 C 0.16622 0.12798 0.77934 0.0
N223 N 0.16229 0.14437 0.82135 0.0
C224 C 0.18165 0.14278 0.81167 0.0
C225 C 0.1987 0.14875 0.82425 0.0
C226 C 0.18982 0.15472 0.84224 0.0
C227 C 0.16795 0.15195 0.83976 0.0
N228 N 0.1187 0.14874 0.83718 0.0
C229 C 0.12952 0.15659 0.85324 0.0
C230 C 0.11623 0.16368 0.86802 0.0
C231 C 0.09563 0.16037 0.86091 0.0
C232 C 0.09751 0.15136 0.84213 0.0
N233 N 0.13496 0.11329 0.8262 0.0
C234 C 0.14176 0.07821 0.84559 0.0
C235 C 0.14693 0.09462 0.85583 0.0
C236 C 0.14318 0.11175 0.84609 0.0
C237 C 0.1326 0.07987 0.82559 0.0
C238 C 0.12954 0.09727 0.81629 0.0
N239 N 0.12934 0.16217 0.7974 0.0
C240 C 0.13775 0.19473 0.79492 0.0
C241 C 0.12709 0.19625 0.77556 0.0
C242 C 0.11703 0.18039 0.7678 0.0
C243 C 0.11866 0.16367 0.77863 0.0
C244 C 0.1384 0.17778 0.80561 0.0
H245 H 0.11123 0.15211 0.77139 0.0
H246 H 0.14655 0.17756 0.82038 0.0
H247 H 0.1473 0.12352 0.85498 0.0
H248 H 0.12284 0.09729 0.80098 0.0
C249 C 0.11202 0.11688 0.7707 0.0
C250 C 0.0786 0.14592 0.82948 0.0
C251 C 0.18474 0.13626 0.79043 0.0
C252 C 0.15216 0.15759 0.85367 0.0
H253 H 0.04796 0.12933 0.80148 0.0
H254 H 0.06595 0.11289 0.76949 0.0
H255 H 0.14278 0.1079 0.73979 0.0
H256 H 0.18231 0.11875 0.75063 0.0
H257 H 0.21578 0.14904 0.82064 0.0
H258 H 0.19825 0.16081 0.85536 0.0
H259 H 0.12096 0.17072 0.88211 0.0
H260 H 0.08088 0.16438 0.86854 0.0
H261 H 0.15427 0.09441 0.87122 0.0
H262 H 0.12765 0.06782 0.81699 0.0
H263 H 0.14598 0.20641 0.80176 0.0
H264 H 0.10785 0.18069 0.75331 0.0
C265 C 0.91173 0.63564 0.33913 0.0
C266 C 0.91994 0.64486 0.35643 0.0
C267 C 0.90291 0.65346 0.36548 0.0
C268 C 0.88527 0.64933 0.35326 0.0
N269 N 0.88995 0.63831 0.33719 0.0
Co270 Co 0.86935 0.63216 0.31407 0.0
N271 N 0.84398 0.63991 0.3304 0.0
C272 C 0.8443 0.65054 0.34733 0.0
C273 C 0.82409 0.65306 0.35551 0.0
C274 C 0.81018 0.64335 0.34288 0.0
C275 C 0.82282 0.63551 0.3277 0.0
N276 N 0.84887 0.6266 0.29094 0.0
C277 C 0.82726 0.62374 0.29151 0.0
C278 C 0.81885 0.6201 0.27183 0.0
C279 C 0.83603 0.62052 0.25856 0.0
C280 C 0.85385 0.62444 0.27083 0.0
N281 N 0.89454 0.62395 0.2978 0.0
C282 C 0.89436 0.61988 0.27741 0.0
C283 C 0.91327 0.61191 0.27115 0.0
C284 C 0.92635 0.61135 0.28854 0.0
C285 C 0.9149 0.61958 0.30439 0.0
N286 N 0.86589 0.60673 0.32505 0.0
C287 C 0.85836 0.57055 0.34027 0.0
C288 C 0.86053 0.57416 0.31895 0.0
C289 C 0.86451 0.59217 0.31173 0.0
C290 C 0.86022 0.58553 0.35382 0.0
C291 C 0.86377 0.60344 0.34593 0.0
N292 N 0.87246 0.65762 0.30298 0.0
C293 C 0.89496 0.684 0.29496 0.0
C294 C 0.87672 0.69496 0.29022 0.0
C295 C 0.85628 0.68644 0.29121 0.0
C296 C 0.85452 0.66787 0.29756 0.0
C297 C 0.89252 0.66553 0.30119 0.0
H298 H 0.83851 0.66191 0.29846 0.0
H299 H 0.90697 0.65779 0.30485 0.0
H300 H 0.86628 0.59425 0.29526 0.0
H301 H 0.86456 0.61466 0.35674 0.0
C302 C 0.86401 0.65493 0.35696 0.0
C303 C 0.92535 0.62663 0.32352 0.0
C304 C 0.81439 0.62471 0.31036 0.0
C305 C 0.87536 0.62143 0.26534 0.0
H306 H 0.93654 0.6462 0.36174 0.0
H307 H 0.90342 0.66199 0.37916 0.0
H308 H 0.82006 0.66032 0.36952 0.0
H309 H 0.79282 0.64211 0.34469 0.0
H310 H 0.80218 0.61707 0.26759 0.0
H311 H 0.83575 0.61708 0.24223 0.0
H312 H 0.917 0.60682 0.25587 0.0
H313 H 0.94293 0.60646 0.28917 0.0
H314 H 0.85955 0.56306 0.30787 0.0
H315 H 0.85859 0.58349 0.37043 0.0
H316 H 0.91118 0.68964 0.29397 0.0
H317 H 0.84164 0.69419 0.28774 0.0
C318 C 0.43026 0.38162 0.80665 0.0
C319 C 0.44729 0.38388 0.79294 0.0
C320 C 0.43937 0.39365 0.77609 0.0
C321 C 0.41782 0.39644 0.77992 0.0
N322 N 0.41167 0.38888 0.79813 0.0
Co323 Co 0.38114 0.38686 0.80763 0.0
N324 N 0.36889 0.39198 0.77935 0.0
C325 C 0.37972 0.39972 0.7635 0.0
C326 C 0.36713 0.40175 0.7458 0.0
C327 C 0.34707 0.39499 0.7509 0.0
C328 C 0.34854 0.3892 0.77151 0.0
N329 N 0.35077 0.38491 0.81732 0.0
C330 C 0.33193 0.38265 0.80638 0.0
C331 C 0.31432 0.38254 0.81954 0.0
C332 C 0.32247 0.38498 0.83932 0.0
C333 C 0.34454 0.38644 0.83717 0.0
N334 N 0.39331 0.3817 0.83582 0.0
C335 C 0.38262 0.38407 0.85366 0.0
C336 C 0.39548 0.38105 0.87099 0.0
C337 C 0.41549 0.37652 0.86355 0.0
C338 C 0.41372 0.37676 0.84197 0.0
N339 N 0.38073 0.41338 0.81365 0.0
C340 C 0.3776 0.45048 0.826 0.0
C341 C 0.36152 0.44234 0.81339 0.0
C342 C 0.36324 0.42388 0.80768 0.0
C343 C 0.39576 0.43961 0.83152 0.0
C344 C 0.39717 0.42132 0.82492 0.0
N345 N 0.38131 0.36055 0.80173 0.0
C346 C 0.37222 0.32942 0.81149 0.0
C347 C 0.38126 0.32272 0.79316 0.0
C348 C 0.39029 0.33555 0.77924 0.0
C349 C 0.38991 0.35432 0.78369 0.0
C350 C 0.37265 0.34828 0.81557 0.0
H351 H 0.39668 0.36378 0.77252 0.0
H352 H 0.36586 0.35295 0.82991 0.0
H353 H 0.35009 0.41804 0.79871 0.0
H354 H 0.41133 0.41344 0.82946 0.0
C355 C 0.40228 0.40182 0.76487 0.0
C356 C 0.4321 0.3734 0.82792 0.0
C357 C 0.33003 0.38234 0.78357 0.0
C358 C 0.36005 0.38665 0.85337 0.0
H359 H 0.46356 0.37852 0.79419 0.0
H360 H 0.44794 0.39698 0.76198 0.0
H361 H 0.37213 0.40688 0.73074 0.0
H362 H 0.33298 0.39448 0.74067 0.0
H363 H 0.29735 0.38117 0.81524 0.0
H364 H 0.31341 0.38519 0.85358 0.0
H365 H 0.39077 0.38164 0.8871 0.0
H366 H 0.4298 0.37359 0.87297 0.0
H367 H 0.34748 0.45003 0.80793 0.0
H368 H 0.40867 0.44487 0.84136 0.0
H369 H 0.36463 0.32027 0.82262 0.0
H370 H 0.39787 0.33122 0.76506 0.0
C371 C 0.59923 0.8518 0.35213 0.0
C372 C 0.60363 0.84462 0.37182 0.0
C373 C 0.62569 0.84479 0.3743 0.0
C374 C 0.63343 0.85209 0.35607 0.0
N375 N 0.61762 0.85675 0.34223 0.0
Co376 Co 0.62157 0.86783 0.31388 0.0
N377 N 0.65359 0.86374 0.31535 0.0
C378 C 0.66469 0.85503 0.33085 0.0
C379 C 0.68561 0.85085 0.3259 0.0
C380 C 0.68805 0.85756 0.30616 0.0
C381 C 0.66865 0.86617 0.30047 0.0
N382 N 0.62558 0.88001 0.2861 0.0
C383 C 0.64412 0.88505 0.27644 0.0
C384 C 0.63978 0.89735 0.26011 0.0
C385 C 0.61785 0.89936 0.2588 0.0
C386 C 0.61 0.88877 0.27471 0.0
N387 N 0.58924 0.87051 0.31175 0.0
C388 C 0.5777 0.87823 0.29588 0.0
C389 C 0.55568 0.87679 0.29802 0.0
C390 C 0.55297 0.86713 0.31614 0.0
C391 C 0.57361 0.86336 0.32402 0.0
N392 N 0.625 0.89288 0.32666 0.0
C393 C 0.6339 0.9302 0.33689 0.0
C394 C 0.61434 0.92508 0.32726 0.0
C395 C 0.61014 0.9066 0.32261 0.0
C396 C 0.64813 0.91603 0.34296 0.0
C397 C 0.64339 0.89762 0.3378 0.0
N398 N 0.61862 0.8431 0.30086 0.0
C399 C 0.60824 0.8243 0.27142 0.0
C400 C 0.61788 0.80853 0.28048 0.0
C401 C 0.62704 0.8104 0.30044 0.0
C402 C 0.62712 0.82758 0.31029 0.0
C403 C 0.60881 0.84125 0.28173 0.0
H404 H 0.63454 0.82809 0.32542 0.0
H405 H 0.60147 0.85282 0.27386 0.0
H406 H 0.59493 0.90398 0.31515 0.0
H407 H 0.65521 0.88756 0.34247 0.0
C408 C 0.65493 0.85098 0.34981 0.0
C409 C 0.57758 0.85248 0.34286 0.0
C410 C 0.66593 0.87831 0.28213 0.0
C411 C 0.58814 0.88707 0.27954 0.0
H412 H 0.59213 0.83916 0.38284 0.0
H413 H 0.635 0.8391 0.38727 0.0
H414 H 0.69763 0.84373 0.33546 0.0
H415 H 0.70273 0.85661 0.29726 0.0
H416 H 0.6511 0.90455 0.25026 0.0
H417 H 0.60874 0.90794 0.24788 0.0
H418 H 0.54311 0.88196 0.28754 0.0
H419 H 0.53759 0.86314 0.32272 0.0
H420 H 0.60241 0.93542 0.32284 0.0
H421 H 0.66337 0.9192 0.35074 0.0
H422 H 0.6003 0.8237 0.25631 0.0
H423 H 0.63478 0.79881 0.30829 0.0
C424 C 0.65876 0.13066 0.40537 0.0
C425 C 0.63681 0.13321 0.40137 0.0
C426 C 0.6335 0.12959 0.38061 0.0
C427 C 0.65358 0.12504 0.3732 0.0
N428 N 0.66916 0.12565 0.38806 0.0
Co429 Co 0.70025 0.12039 0.38459 0.0
N430 N 0.69792 0.12486 0.35436 0.0
C431 C 0.6796 0.12437 0.3427 0.0
C432 C 0.68329 0.12816 0.32208 0.0
C433 C 0.70526 0.13109 0.32083 0.0
C434 C 0.71378 0.1289 0.34085 0.0
N435 N 0.73133 0.11498 0.3812 0.0
C436 C 0.74441 0.11978 0.36543 0.0
C437 C 0.76534 0.11328 0.36906 0.0
C438 C 0.7651 0.10401 0.38781 0.0
C439 C 0.74414 0.10537 0.39455 0.0
N440 N 0.70246 0.11577 0.41486 0.0
C441 C 0.71809 0.10613 0.42495 0.0
C442 C 0.71533 0.10576 0.4461 0.0
C443 C 0.6968 0.11574 0.44938 0.0
C444 C 0.6892 0.12154 0.42993 0.0
N445 N 0.69334 0.0941 0.38007 0.0
C446 C 0.68053 0.05793 0.36976 0.0
C447 C 0.69634 0.06734 0.35836 0.0
C448 C 0.70263 0.08518 0.36383 0.0
C449 C 0.672 0.06673 0.38715 0.0
C450 C 0.67853 0.08483 0.39197 0.0
N451 N 0.7073 0.14674 0.38846 0.0
C452 C 0.73241 0.17042 0.39977 0.0
C453 C 0.72196 0.18359 0.38696 0.0
C454 C 0.70326 0.17814 0.37602 0.0
C455 C 0.69605 0.15983 0.37719 0.0
C456 C 0.72484 0.15208 0.40029 0.0
H457 H 0.682 0.15606 0.368 0.0
H458 H 0.73381 0.14203 0.40945 0.0
H459 H 0.71456 0.09199 0.35437 0.0
H460 H 0.6711 0.09155 0.40494 0.0
C461 C 0.65922 0.12382 0.3522 0.0
C462 C 0.66922 0.13198 0.42584 0.0
C463 C 0.73701 0.12923 0.34633 0.0
C464 C 0.73698 0.10103 0.41462 0.0
H465 H 0.62457 0.13722 0.4123 0.0
H466 H 0.61846 0.13097 0.37182 0.0
H467 H 0.67138 0.12944 0.3096 0.0
H468 H 0.71399 0.13437 0.30679 0.0
H469 H 0.77927 0.11502 0.3592 0.0
H470 H 0.77879 0.09776 0.39594 0.0
H471 H 0.72609 0.09983 0.45784 0.0
H472 H 0.68995 0.11849 0.46439 0.0
H473 H 0.70353 0.06106 0.34492 0.0
H474 H 0.65967 0.06001 0.39636 0.0
H475 H 0.74702 0.17401 0.40838 0.0
H476 H 0.69469 0.18784 0.36592 0.0
C477 C 0.92788 0.20099 0.88126 0.0
C478 C 0.94547 0.20773 0.89255 0.0
C479 C 0.938 0.22215 0.90381 0.0
C480 C 0.91634 0.2234 0.89884 0.0
N481 N 0.90938 0.21045 0.88533 0.0
Co482 Co 0.87923 0.20826 0.87302 0.0
N483 N 0.86882 0.23085 0.88762 0.0
C484 C 0.88089 0.24172 0.90024 0.0
C485 C 0.8697 0.25637 0.90792 0.0
C486 C 0.84915 0.2547 0.89995 0.0
C487 C 0.84885 0.23894 0.88794 0.0
N488 N 0.84903 0.20612 0.86064 0.0
C489 C 0.83073 0.21625 0.86374 0.0
C490 C 0.81309 0.20912 0.85279 0.0
C491 C 0.8204 0.19414 0.8424 0.0
C492 C 0.84197 0.19279 0.84763 0.0
N493 N 0.88969 0.18574 0.85825 0.0
C494 C 0.87767 0.1748 0.84568 0.0
C495 C 0.88934 0.16097 0.83682 0.0
C496 C 0.91015 0.16334 0.84387 0.0
C497 C 0.91003 0.17855 0.85671 0.0
N498 N 0.87029 0.19272 0.897 0.0
C499 C 0.85708 0.17083 0.93106 0.0
C500 C 0.85129 0.16619 0.91073 0.0
C501 C 0.85818 0.1771 0.89411 0.0
C502 C 0.86991 0.18653 0.93399 0.0
C503 C 0.87607 0.19727 0.91693 0.0
N504 N 0.88854 0.22345 0.84911 0.0
C505 C 0.89553 0.2242 0.81248 0.0
C506 C 0.91201 0.23712 0.81547 0.0
C507 C 0.91479 0.24477 0.8351 0.0
C508 C 0.9027 0.23787 0.85166 0.0
C509 C 0.88386 0.2178 0.82936 0.0
H510 H 0.90571 0.24383 0.86649 0.0
H511 H 0.87185 0.20767 0.82617 0.0
H512 H 0.85327 0.17264 0.87913 0.0
H513 H 0.88542 0.20921 0.92029 0.0
C514 C 0.90256 0.23754 0.905 0.0
C515 C 0.92982 0.186 0.86638 0.0
C516 C 0.82901 0.23217 0.87753 0.0
C517 C 0.85585 0.17875 0.84126 0.0
H518 H 0.96211 0.20302 0.89224 0.0
H519 H 0.94741 0.2311 0.91382 0.0
H520 H 0.87571 0.26692 0.91827 0.0
H521 H 0.83583 0.26397 0.90283 0.0
H522 H 0.79651 0.21395 0.85261 0.0
H523 H 0.81097 0.18503 0.83258 0.0
H524 H 0.88354 0.15075 0.82595 0.0
H525 H 0.92398 0.1551 0.83963 0.0
H526 H 0.84109 0.15437 0.90752 0.0
H527 H 0.87525 0.19061 0.94938 0.0
H528 H 0.8919 0.21876 0.7972 0.0
H529 H 0.92674 0.25547 0.83781 0.0
C530 C 0.82769 0.37352 0.41171 0.0
C531 C 0.84756 0.36589 0.4176 0.0
C532 C 0.85528 0.35704 0.40053 0.0
C533 C 0.83979 0.35975 0.38523 0.0
N534 N 0.8229 0.36983 0.39162 0.0
Co535 Co 0.79702 0.37681 0.37475 0.0
N536 N 0.81238 0.37232 0.34857 0.0
C537 C 0.83061 0.36234 0.34651 0.0
C538 C 0.83789 0.36229 0.32646 0.0
C539 C 0.82323 0.37276 0.31525 0.0
C540 C 0.80762 0.37848 0.32911 0.0
N541 N 0.77106 0.38361 0.35796 0.0
C542 C 0.76947 0.38847 0.33765 0.0
C543 C 0.74793 0.39165 0.33189 0.0
C544 C 0.7358 0.38866 0.34929 0.0
C545 C 0.75048 0.38377 0.36464 0.0
N546 N 0.7817 0.38132 0.40095 0.0
C547 C 0.76007 0.3819 0.40331 0.0
C548 C 0.75425 0.38517 0.42345 0.0
C549 C 0.77344 0.38661 0.4344 0.0
C550 C 0.78994 0.38408 0.42026 0.0
N551 N 0.80686 0.40275 0.37392 0.0
C552 C 0.82088 0.43976 0.37061 0.0
C553 C 0.79899 0.43546 0.37386 0.0
C554 C 0.79239 0.41694 0.37577 0.0
C555 C 0.83555 0.42509 0.36917 0.0
C556 C 0.82823 0.40681 0.3706 0.0
N557 N 0.78717 0.35079 0.37531 0.0
C558 C 0.77262 0.32451 0.35704 0.0
C559 C 0.77434 0.3132 0.37492 0.0
C560 C 0.78213 0.3215 0.39324 0.0
C561 C 0.78838 0.34022 0.39312 0.0
C562 C 0.7792 0.34299 0.35751 0.0
H563 H 0.79447 0.34606 0.40742 0.0
H564 H 0.77794 0.35095 0.34327 0.0
H565 H 0.77551 0.41412 0.37863 0.0
H566 H 0.83992 0.39592 0.36887 0.0
C567 C 0.84234 0.35619 0.36408 0.0
C568 C 0.81304 0.38283 0.4259 0.0
C569 C 0.78759 0.38832 0.32309 0.0
C570 C 0.74614 0.38236 0.38591 0.0
H571 H 0.85557 0.36657 0.43267 0.0
H572 H 0.87075 0.35015 0.39922 0.0
H573 H 0.85258 0.35609 0.32081 0.0
H574 H 0.82392 0.37573 0.29874 0.0
H575 H 0.74156 0.39549 0.31667 0.0
H576 H 0.71846 0.39045 0.35071 0.0
H577 H 0.73805 0.38695 0.42934 0.0
H578 H 0.7751 0.38906 0.45091 0.0
H579 H 0.78712 0.44633 0.37534 0.0
H580 H 0.85261 0.42774 0.36664 0.0
H581 H 0.7662 0.31919 0.34255 0.0
H582 H 0.78394 0.31353 0.4075 0.0
C583 C 0.57972 0.30202 0.87903 0.0
C584 C 0.56409 0.2884 0.87625 0.0
C585 C 0.57274 0.27228 0.88381 0.0
C586 C 0.59342 0.27662 0.89011 0.0
N587 N 0.59849 0.29446 0.88666 0.0
Co588 Co 0.62807 0.30535 0.88976 0.0
N589 N 0.64234 0.28066 0.89146 0.0
C590 C 0.63217 0.26459 0.89532 0.0
C591 C 0.64586 0.2497 0.89558 0.0
C592 C 0.66601 0.25681 0.89185 0.0
C593 C 0.66352 0.27575 0.88956 0.0
N594 N 0.65771 0.31613 0.89291 0.0
C595 C 0.67769 0.30831 0.89113 0.0
C596 C 0.69393 0.32108 0.89521 0.0
C597 C 0.68379 0.33731 0.89985 0.0
C598 C 0.66197 0.33361 0.89838 0.0
N599 N 0.61376 0.33 0.88793 0.0
C600 C 0.623 0.34586 0.89415 0.0
C601 C 0.60922 0.36065 0.89262 0.0
C602 C 0.59 0.35369 0.8851 0.0
C603 C 0.5931 0.33494 0.88222 0.0
N604 N 0.62509 0.30529 0.91998 0.0
C605 C 0.62296 0.30873 0.96307 0.0
C606 C 0.6055 0.31422 0.95033 0.0
C607 C 0.60674 0.31208 0.92881 0.0
C608 C 0.64115 0.30092 0.95398 0.0
C609 C 0.64197 0.29946 0.93244 0.0
N610 N 0.63117 0.30558 0.85981 0.0
C611 C 0.6431 0.32059 0.82848 0.0
C612 C 0.63693 0.30515 0.81712 0.0
C613 C 0.6277 0.29005 0.82735 0.0
C614 C 0.62514 0.29047 0.84871 0.0
C615 C 0.63978 0.32062 0.84989 0.0
H616 H 0.61857 0.27845 0.85624 0.0
H617 H 0.64445 0.33269 0.85843 0.0
H618 H 0.59303 0.31632 0.91932 0.0
H619 H 0.65656 0.29405 0.9259 0.0
C620 C 0.60956 0.26369 0.89491 0.0
C621 C 0.57547 0.32206 0.87618 0.0
C622 C 0.68195 0.28858 0.8876 0.0
C623 C 0.64519 0.34657 0.89925 0.0
H624 H 0.54804 0.28978 0.86939 0.0
H625 H 0.56527 0.25878 0.88352 0.0
H626 H 0.6416 0.23531 0.89747 0.0
H627 H 0.68089 0.24895 0.89109 0.0
H628 H 0.71128 0.31881 0.89513 0.0
H629 H 0.69145 0.35035 0.90339 0.0
H630 H 0.61275 0.37486 0.89633 0.0
H631 H 0.57527 0.36155 0.8826 0.0
H632 H 0.59109 0.32016 0.95693 0.0
H633 H 0.655 0.29659 0.96342 0.0
H634 H 0.65039 0.33243 0.82091 0.0
H635 H 0.62308 0.27777 0.81894 0.0
C636 C 0.6499 0.34999 0.12165 0.0
C637 C 0.62978 0.34205 0.12528 0.0
C638 C 0.63032 0.33545 0.14529 0.0
C639 C 0.65056 0.33989 0.15282 0.0
N640 N 0.66267 0.3493 0.13899 0.0
Co641 Co 0.69268 0.35862 0.14388 0.0
N642 N 0.6906 0.35436 0.17431 0.0
C643 C 0.67592 0.34378 0.18412 0.0
C644 C 0.67809 0.34425 0.20538 0.0
C645 C 0.69518 0.35588 0.20916 0.0
C646 C 0.70259 0.36174 0.18989 0.0
N647 N 0.72262 0.36776 0.14884 0.0
C648 C 0.732 0.37378 0.16662 0.0
C649 C 0.75332 0.37915 0.16343 0.0
C650 C 0.75729 0.37648 0.14279 0.0
C651 C 0.73826 0.36961 0.13463 0.0
N652 N 0.69483 0.36296 0.11332 0.0
C653 C 0.71332 0.36619 0.10295 0.0
C654 C 0.71023 0.36797 0.08189 0.0
C655 C 0.68851 0.36531 0.07864 0.0
C656 C 0.67946 0.36199 0.09801 0.0
N657 N 0.68149 0.38388 0.14748 0.0
C658 C 0.66974 0.41995 0.15911 0.0
C659 C 0.68664 0.41696 0.14514 0.0
C660 C 0.69219 0.39889 0.13949 0.0
C661 C 0.65802 0.40445 0.1659 0.0
C662 C 0.6641 0.38672 0.15998 0.0
N663 N 0.70416 0.33335 0.1408 0.0
C664 C 0.70513 0.30458 0.12235 0.0
C665 C 0.72055 0.29721 0.13644 0.0
C666 C 0.7274 0.30838 0.15295 0.0
C667 C 0.71914 0.32635 0.15478 0.0
C668 C 0.69722 0.3225 0.1248 0.0
H669 H 0.72504 0.33461 0.16749 0.0
H670 H 0.68553 0.32754 0.11362 0.0
H671 H 0.70575 0.39705 0.12936 0.0
H672 H 0.6552 0.37525 0.16631 0.0
C673 C 0.65785 0.3371 0.17329 0.0
C674 C 0.65739 0.35467 0.10069 0.0
C675 C 0.72146 0.37371 0.18679 0.0
C676 C 0.7331 0.36844 0.11352 0.0
H677 H 0.61651 0.34037 0.11423 0.0
H678 H 0.61747 0.32831 0.15337 0.0
H679 H 0.66769 0.33785 0.21678 0.0
H680 H 0.70123 0.35975 0.22437 0.0
H681 H 0.76472 0.38457 0.17478 0.0
H682 H 0.7719 0.38004 0.13454 0.0
H683 H 0.72235 0.3707 0.07025 0.0
H684 H 0.68058 0.36502 0.06354 0.0
H685 H 0.69618 0.4284 0.13935 0.0
H686 H 0.64445 0.40592 0.17622 0.0
H687 H 0.69902 0.29651 0.10947 0.0
H688 H 0.73944 0.30347 0.16415 0.0
C689 C 0.58309 0.20873 0.62616 0.0
C690 C 0.56561 0.2175 0.61643 0.0
C691 C 0.57406 0.23048 0.60312 0.0
C692 C 0.59618 0.22897 0.60538 0.0
N693 N 0.60218 0.21597 0.61946 0.0
Co694 Co 0.63276 0.20911 0.62646 0.0
N695 N 0.64461 0.2324 0.61435 0.0
C696 C 0.6338 0.24383 0.60124 0.0
C697 C 0.64566 0.25918 0.59598 0.0
C698 C 0.66522 0.2572 0.60631 0.0
C699 C 0.66433 0.2406 0.61722 0.0
N700 N 0.6633 0.20208 0.63317 0.0
C701 C 0.68159 0.21253 0.63407 0.0
C702 C 0.6996 0.20168 0.63876 0.0
C703 C 0.69225 0.18393 0.64101 0.0
C704 C 0.67026 0.18486 0.63745 0.0
N705 N 0.62104 0.18593 0.6388 0.0
C706 C 0.6327 0.17063 0.6431 0.0
C707 C 0.62051 0.15661 0.6514 0.0
C708 C 0.59981 0.1634 0.65218 0.0
C709 C 0.60045 0.18126 0.64419 0.0
N710 N 0.63509 0.19736 0.59945 0.0
C711 C 0.63624 0.18572 0.55833 0.0
C712 C 0.61884 0.18081 0.57097 0.0
C713 C 0.61854 0.18685 0.59153 0.0
C714 C 0.65361 0.19551 0.567 0.0
C715 C 0.65281 0.20103 0.58758 0.0
N716 N 0.63066 0.22123 0.65303 0.0
C717 C 0.64418 0.22485 0.68789 0.0
C718 C 0.6359 0.24278 0.68803 0.0
C719 C 0.62365 0.24923 0.67105 0.0
C720 C 0.62132 0.23828 0.65365 0.0
C721 C 0.64098 0.21411 0.67028 0.0
H722 H 0.61306 0.24412 0.64028 0.0
H723 H 0.64782 0.20045 0.6702 0.0
H724 H 0.60457 0.18359 0.60075 0.0
H725 H 0.66626 0.20891 0.5936 0.0
C726 C 0.61159 0.24118 0.59715 0.0
C727 C 0.58087 0.19252 0.64009 0.0
C728 C 0.68277 0.23239 0.62909 0.0
C729 C 0.65533 0.17077 0.64149 0.0
H730 H 0.54855 0.21464 0.61853 0.0
H731 H 0.56511 0.24021 0.59341 0.0
H732 H 0.64042 0.27081 0.58648 0.0
H733 H 0.67848 0.26694 0.60584 0.0
H734 H 0.71632 0.2061 0.64026 0.0
H735 H 0.70173 0.17192 0.64546 0.0
H736 H 0.62607 0.14317 0.65668 0.0
H737 H 0.58577 0.15594 0.65766 0.0
H738 H 0.60522 0.17308 0.56476 0.0
H739 H 0.66757 0.19917 0.5578 0.0
H740 H 0.65337 0.21937 0.70107 0.0
H741 H 0.61693 0.26303 0.67078 0.0
C742 C 0.78827 0.08106 0.1425 0.0
C743 C 0.77252 0.06742 0.14105 0.0
C744 C 0.75365 0.07596 0.13491 0.0
C745 C 0.75885 0.09428 0.13295 0.0
N746 N 0.77979 0.09788 0.13764 0.0
Co747 Co 0.79379 0.12261 0.13635 0.0
N748 N 0.76526 0.13561 0.13588 0.0
C749 C 0.74587 0.12776 0.13183 0.0
C750 C 0.72893 0.13998 0.13229 0.0
C751 C 0.7382 0.15667 0.13663 0.0
C752 C 0.7604 0.15371 0.13855 0.0
N753 N 0.80781 0.14735 0.13465 0.0
C754 C 0.7994 0.1645 0.13696 0.0
C755 C 0.81514 0.17792 0.13388 0.0
C756 C 0.83387 0.1689 0.12908 0.0
C757 C 0.82862 0.15053 0.12956 0.0
N758 N 0.82228 0.10959 0.13717 0.0
C759 C 0.84147 0.11702 0.13193 0.0
C760 C 0.8584 0.10481 0.1338 0.0
C761 C 0.84929 0.08859 0.14046 0.0
C762 C 0.82721 0.09181 0.14225 0.0
N763 N 0.79328 0.12169 0.10601 0.0
C764 C 0.80024 0.12376 0.06323 0.0
C765 C 0.80559 0.10774 0.07461 0.0
C766 C 0.80162 0.10687 0.09593 0.0
C767 C 0.78934 0.13787 0.07341 0.0
C768 C 0.78635 0.1367 0.09474 0.0
N769 N 0.79454 0.12372 0.1665 0.0
C770 C 0.813 0.13229 0.19812 0.0
C771 C 0.79482 0.12724 0.20952 0.0
C772 C 0.77665 0.1201 0.19909 0.0
C773 C 0.77679 0.11855 0.17756 0.0
C774 C 0.81262 0.13023 0.17662 0.0
H775 H 0.76241 0.11346 0.16985 0.0
H776 H 0.82686 0.13413 0.16817 0.0
H777 H 0.8064 0.09459 0.1044 0.0
H778 H 0.77941 0.14844 0.10214 0.0
C779 C 0.74401 0.10866 0.12997 0.0
C780 C 0.81132 0.07721 0.14682 0.0
C781 C 0.77632 0.1688 0.13995 0.0
C782 C 0.8433 0.13595 0.128 0.0
H783 H 0.77452 0.05279 0.14395 0.0
H784 H 0.73788 0.06964 0.13277 0.0
H785 H 0.71184 0.13707 0.13002 0.0
H786 H 0.72967 0.16964 0.13764 0.0
H787 H 0.81319 0.19271 0.13465 0.0
H788 H 0.84954 0.17501 0.12605 0.0
H789 H 0.87541 0.10748 0.13113 0.0
H790 H 0.85786 0.07578 0.14335 0.0
H791 H 0.81386 0.09636 0.06747 0.0
H792 H 0.784 0.15021 0.06518 0.0
H793 H 0.82737 0.13776 0.20577 0.0
H794 H 0.76219 0.11622 0.20746 0.0
C795 C 0.92398 0.32324 0.62197 0.0
C796 C 0.93955 0.31709 0.60841 0.0
C797 C 0.92878 0.30679 0.5937 0.0
C798 C 0.90728 0.30725 0.59906 0.0
N799 N 0.90392 0.31723 0.61616 0.0
Co800 Co 0.87551 0.32086 0.62975 0.0
N801 N 0.86213 0.29923 0.61568 0.0
C802 C 0.87035 0.29076 0.59904 0.0
C803 C 0.85792 0.27616 0.59256 0.0
C804 C 0.84061 0.27556 0.6057 0.0
C805 C 0.84323 0.29005 0.61941 0.0
N806 N 0.84709 0.32477 0.64329 0.0
C807 C 0.82926 0.31374 0.6445 0.0
C808 C 0.81244 0.32287 0.65415 0.0
C809 C 0.81997 0.34007 0.65904 0.0
C810 C 0.84086 0.34065 0.65205 0.0
N811 N 0.88899 0.34237 0.64379 0.0
C812 C 0.87824 0.35625 0.65261 0.0
C813 C 0.8919 0.36893 0.66165 0.0
C814 C 0.91253 0.36258 0.65827 0.0
C815 C 0.91027 0.34636 0.64729 0.0
N816 N 0.86613 0.33672 0.60656 0.0
C817 C 0.85417 0.35655 0.57067 0.0
C818 C 0.87457 0.35919 0.58007 0.0
C819 C 0.88019 0.3492 0.59807 0.0
C820 C 0.8395 0.34457 0.5803 0.0
C821 C 0.8458 0.33476 0.59811 0.0
N822 N 0.88521 0.30514 0.65268 0.0
C823 C 0.89259 0.30147 0.68916 0.0
C824 C 0.90738 0.28722 0.6853 0.0
C825 C 0.90949 0.28136 0.66474 0.0
C826 C 0.89778 0.29013 0.64881 0.0
C827 C 0.882 0.31042 0.67265 0.0
H828 H 0.89989 0.28538 0.6332 0.0
H829 H 0.87188 0.32207 0.676 0.0
H830 H 0.89621 0.35111 0.6047 0.0
H831 H 0.83435 0.32521 0.60463 0.0
C832 C 0.89094 0.29549 0.5916 0.0
C833 C 0.92849 0.33544 0.63961 0.0
C834 C 0.8267 0.29561 0.63455 0.0
C835 C 0.85581 0.35493 0.65548 0.0
H836 H 0.95684 0.31966 0.6092 0.0
H837 H 0.93598 0.29903 0.58132 0.0
H838 H 0.86128 0.26676 0.58009 0.0
H839 H 0.82751 0.26567 0.60501 0.0
H840 H 0.79618 0.31786 0.65684 0.0
H841 H 0.81129 0.35081 0.66693 0.0
H842 H 0.88743 0.38087 0.67053 0.0
H843 H 0.92745 0.36908 0.66337 0.0
H844 H 0.88646 0.36827 0.57313 0.0
H845 H 0.82337 0.34242 0.57384 0.0
H846 H 0.8893 0.30598 0.70475 0.0
H847 H 0.92054 0.27047 0.66069 0.0
C848 C 0.38225 0.70721 0.0684 0.0
C849 C 0.38256 0.72046 0.0526 0.0
C850 C 0.39086 0.73622 0.06097 0.0
C851 C 0.39451 0.73214 0.08155 0.0
N852 N 0.38935 0.71461 0.08687 0.0
Co853 Co 0.38574 0.70536 0.11636 0.0
N854 N 0.39216 0.73003 0.12892 0.0
C855 C 0.40003 0.74475 0.11847 0.0
C856 C 0.4041 0.75964 0.13086 0.0
C857 C 0.39862 0.75405 0.15046 0.0
C858 C 0.39131 0.73603 0.14896 0.0
N859 N 0.38003 0.69642 0.14559 0.0
C860 C 0.37909 0.70558 0.16403 0.0
C861 C 0.37332 0.69379 0.18015 0.0
C862 C 0.37069 0.67668 0.17175 0.0
C863 C 0.37474 0.67894 0.15095 0.0
N864 N 0.38058 0.68058 0.10394 0.0
C865 C 0.37937 0.66463 0.11485 0.0
C866 C 0.37813 0.64942 0.10249 0.0
C867 C 0.37808 0.65615 0.08251 0.0
C868 C 0.37858 0.67526 0.0837 0.0
N869 N 0.41722 0.69918 0.11923 0.0
C870 C 0.46147 0.68958 0.12296 0.0
C871 C 0.44594 0.68085 0.1351 0.0
C872 C 0.42422 0.68588 0.13313 0.0
C873 C 0.45466 0.7034 0.10907 0.0
C874 C 0.43259 0.70785 0.10734 0.0
N875 N 0.3549 0.71126 0.11318 0.0
C876 C 0.31842 0.70059 0.10695 0.0
C877 C 0.31279 0.71782 0.09866 0.0
C878 C 0.32796 0.73209 0.09943 0.0
C879 C 0.34878 0.72857 0.10693 0.0
C880 C 0.33956 0.69764 0.11428 0.0
H881 H 0.35992 0.73985 0.10676 0.0
H882 H 0.34346 0.68411 0.12002 0.0
H883 H 0.41362 0.67869 0.14321 0.0
H884 H 0.42852 0.71832 0.09621 0.0
C885 C 0.40023 0.74499 0.09673 0.0
C886 C 0.37532 0.68775 0.0654 0.0
C887 C 0.38385 0.72529 0.16711 0.0
C888 C 0.37579 0.66479 0.13633 0.0
H889 H 0.37651 0.71951 0.03685 0.0
H890 H 0.39264 0.74945 0.05323 0.0
H891 H 0.40969 0.77317 0.1261 0.0
H892 H 0.39968 0.76236 0.1643 0.0
H893 H 0.3715 0.69715 0.19637 0.0
H894 H 0.36668 0.66403 0.17991 0.0
H895 H 0.37638 0.63517 0.10738 0.0
H896 H 0.37689 0.64789 0.06866 0.0
H897 H 0.45056 0.67032 0.14643 0.0
H898 H 0.46625 0.71055 0.09938 0.0
H899 H 0.30682 0.68938 0.10726 0.0
H900 H 0.32384 0.74591 0.09416 0.0
C901 C 0.42145 0.82651 0.37319 0.0
C902 C 0.43024 0.8414 0.36234 0.0
C903 C 0.41347 0.84998 0.35202 0.0
C904 C 0.39543 0.83996 0.35699 0.0
N905 N 0.39965 0.82572 0.37014 0.0
Co906 Co 0.3782 0.80701 0.3794 0.0
N907 N 0.35358 0.82299 0.37067 0.0
C908 C 0.35425 0.83743 0.3574 0.0
C909 C 0.33461 0.84618 0.35506 0.0
C910 C 0.32075 0.83661 0.36768 0.0
C911 C 0.3328 0.82248 0.37694 0.0
N912 N 0.35678 0.78838 0.38832 0.0
C913 C 0.33568 0.7907 0.39288 0.0
C914 C 0.3263 0.77405 0.39879 0.0
C915 C 0.3423 0.76099 0.39806 0.0
C916 C 0.36045 0.77032 0.3917 0.0
N917 N 0.40285 0.79098 0.38822 0.0
C918 C 0.40167 0.77282 0.39279 0.0
C919 C 0.42123 0.76536 0.39885 0.0
C920 C 0.43574 0.77959 0.39765 0.0
C921 C 0.42423 0.79496 0.39058 0.0
N922 N 0.37723 0.81804 0.40783 0.0
C923 C 0.36904 0.83358 0.44782 0.0
C924 C 0.37193 0.81449 0.44524 0.0
C925 C 0.37615 0.8071 0.42539 0.0
C926 C 0.37089 0.84459 0.42966 0.0
C927 C 0.37495 0.83668 0.41011 0.0
N928 N 0.37829 0.79585 0.35095 0.0
C929 C 0.39672 0.78503 0.32004 0.0
C930 C 0.37691 0.78102 0.30978 0.0
C931 C 0.35795 0.78424 0.32112 0.0
C932 C 0.35896 0.79149 0.34136 0.0
C933 C 0.39706 0.79246 0.3404 0.0
H934 H 0.34387 0.7937 0.34919 0.0
H935 H 0.41258 0.79562 0.34746 0.0
H936 H 0.37801 0.79238 0.42424 0.0
H937 H 0.37557 0.84571 0.39668 0.0
C938 C 0.37417 0.84445 0.35105 0.0
C939 C 0.43465 0.81218 0.3837 0.0
C940 C 0.32395 0.80821 0.39065 0.0
C941 C 0.38168 0.76373 0.3933 0.0
H942 H 0.44709 0.84537 0.36122 0.0
H943 H 0.41436 0.8621 0.34207 0.0
H944 H 0.33106 0.8586 0.34616 0.0
H945 H 0.3038 0.83974 0.36991 0.0
H946 H 0.30971 0.7716 0.40335 0.0
H947 H 0.34112 0.74665 0.40278 0.0
H948 H 0.42451 0.75132 0.40383 0.0
H949 H 0.45297 0.77862 0.40095 0.0
H950 H 0.37109 0.80521 0.45851 0.0
H951 H 0.36865 0.85936 0.43031 0.0
H952 H 0.41192 0.78296 0.31221 0.0
H953 H 0.34216 0.78116 0.31442 0.0
C954 C 0.20036 0.88137 0.93444 0.0
C955 C 0.21346 0.88633 0.95121 0.0
C956 C 0.23105 0.89536 0.94323 0.0
C957 C 0.22781 0.89554 0.92206 0.0
N958 N 0.20933 0.88709 0.91611 0.0
Co959 Co 0.19889 0.88509 0.88658 0.0
N960 N 0.2278 0.89164 0.87482 0.0
C961 C 0.24423 0.89931 0.88569 0.0
C962 C 0.2623 0.90247 0.87398 0.0
C963 C 0.25688 0.89665 0.85438 0.0
C964 C 0.23565 0.89031 0.85511 0.0
N965 N 0.18839 0.88308 0.85707 0.0
C966 C 0.19935 0.88257 0.83875 0.0
C967 C 0.18497 0.88162 0.82198 0.0
C968 C 0.16448 0.88169 0.82994 0.0
C969 C 0.16737 0.8827 0.8511 0.0
N970 N 0.17005 0.87842 0.89842 0.0
C971 C 0.15123 0.87832 0.88751 0.0
C972 C 0.13393 0.8726 0.89909 0.0
C973 C 0.14226 0.86907 0.91862 0.0
C974 C 0.16428 0.87305 0.91807 0.0
N975 N 0.19077 0.91137 0.88617 0.0
C976 C 0.17827 0.94884 0.88414 0.0
C977 C 0.17269 0.93745 0.90113 0.0
C978 C 0.17926 0.91891 0.90195 0.0
C979 C 0.19053 0.94089 0.86841 0.0
C980 C 0.19629 0.92229 0.86958 0.0
N981 N 0.20697 0.85914 0.88655 0.0
C982 C 0.19947 0.82838 0.87512 0.0
C983 C 0.22069 0.82297 0.88035 0.0
C984 C 0.23444 0.83576 0.89002 0.0
C985 C 0.22722 0.85374 0.89307 0.0
C986 C 0.19297 0.84648 0.87832 0.0
H987 H 0.23834 0.86345 0.89994 0.0
H988 H 0.17683 0.85036 0.87341 0.0
H989 H 0.17481 0.91066 0.91527 0.0
H990 H 0.20523 0.91682 0.85684 0.0
C991 C 0.24296 0.90118 0.90728 0.0
C992 C 0.17869 0.87283 0.93686 0.0
C993 C 0.22303 0.88488 0.83634 0.0
C994 C 0.15106 0.88091 0.86589 0.0
H995 H 0.21049 0.8839 0.96755 0.0
H996 H 0.24484 0.90075 0.95183 0.0
H997 H 0.27776 0.90797 0.87916 0.0
H998 H 0.26726 0.89729 0.84099 0.0
H999 H 0.18888 0.88124 0.80564 0.0
H1000 H 0.14931 0.88071 0.82133 0.0
H1001 H 0.11735 0.87056 0.8938 0.0
H1002 H 0.13306 0.86413 0.93174 0.0
H1003 H 0.16302 0.94262 0.91367 0.0
H1004 H 0.19592 0.94892 0.85517 0.0
H1005 H 0.18807 0.81883 0.86815 0.0
H1006 H 0.25097 0.83219 0.89437 0.0
C1007 C 0.122 0.70438 0.41953 0.0
C1008 C 0.107 0.71019 0.43389 0.0
C1009 C 0.09216 0.72095 0.42321 0.0
C1010 C 0.0988 0.72118 0.40292 0.0
N1011 N 0.11694 0.71129 0.40016 0.0
Co1012 Co 0.13163 0.70836 0.37297 0.0
N1013 N 0.11632 0.7299 0.35956 0.0
C1014 C 0.09881 0.73821 0.36742 0.0
C1015 C 0.09182 0.75297 0.35556 0.0
C1016 C 0.10552 0.75386 0.33896 0.0
C1017 C 0.12007 0.73937 0.34136 0.0
N1018 N 0.14617 0.70501 0.34572 0.0
C1019 C 0.14666 0.71585 0.32818 0.0
C1020 C 0.15686 0.70665 0.31222 0.0
C1021 C 0.16303 0.68977 0.31998 0.0
C1022 C 0.15613 0.68937 0.34012 0.0
N1023 N 0.14726 0.68715 0.38647 0.0
C1024 C 0.15755 0.67379 0.37624 0.0
C1025 C 0.16707 0.66091 0.38927 0.0
C1026 C 0.16241 0.66643 0.40901 0.0
C1027 C 0.15026 0.68245 0.40697 0.0
N1028 N 0.10823 0.69195 0.36357 0.0
C1029 C 0.07349 0.67001 0.34923 0.0
C1030 C 0.08342 0.66657 0.36877 0.0
C1031 C 0.10058 0.67784 0.37574 0.0
C1032 C 0.0815 0.68479 0.33734 0.0
C1033 C 0.09898 0.69509 0.34445 0.0
N1034 N 0.15457 0.7248 0.38216 0.0
C1035 C 0.19213 0.73322 0.38313 0.0
C1036 C 0.18691 0.74972 0.39288 0.0
C1037 C 0.16542 0.75327 0.39785 0.0
C1038 C 0.14944 0.74068 0.39217 0.0
C1039 C 0.17569 0.72082 0.37808 0.0
H1040 H 0.13291 0.74407 0.3955 0.0
H1041 H 0.17999 0.70822 0.37051 0.0
H1042 H 0.10758 0.67517 0.39097 0.0
H1043 H 0.10468 0.70586 0.33434 0.0
C1044 C 0.09112 0.73311 0.38711 0.0
C1045 C 0.14019 0.6917 0.42474 0.0
C1046 C 0.13574 0.73393 0.32516 0.0
C1047 C 0.1605 0.67535 0.35477 0.0
H1048 H 0.10689 0.70708 0.45039 0.0
H1049 H 0.07872 0.72842 0.42969 0.0
H1050 H 0.07865 0.7623 0.35883 0.0
H1051 H 0.10465 0.76397 0.3265 0.0
H1052 H 0.15906 0.71133 0.29637 0.0
H1053 H 0.17161 0.6791 0.31188 0.0
H1054 H 0.17679 0.64919 0.38497 0.0
H1055 H 0.16719 0.65936 0.42328 0.0
H1056 H 0.07809 0.65535 0.37868 0.0
H1057 H 0.0742 0.68891 0.32262 0.0
H1058 H 0.20874 0.73007 0.37923 0.0
H1059 H 0.16092 0.76599 0.40528 0.0
C1060 C 0.30056 0.63974 0.91782 0.0
C1061 C 0.28437 0.63697 0.93235 0.0
C1062 C 0.26827 0.62703 0.9229 0.0
C1063 C 0.27479 0.62488 0.90283 0.0
N1064 N 0.29392 0.63312 0.89892 0.0
Co1065 Co 0.306 0.63717 0.87055 0.0
N1066 N 0.27831 0.6301 0.85599 0.0
C1067 C 0.26167 0.62123 0.86503 0.0
C1068 C 0.24457 0.61803 0.85165 0.0
C1069 C 0.25086 0.62508 0.83286 0.0
C1070 C 0.2716 0.63217 0.83574 0.0
N1071 N 0.31805 0.64144 0.84218 0.0
C1072 C 0.30819 0.6425 0.82298 0.0
C1073 C 0.32346 0.64497 0.80757 0.0
C1074 C 0.3434 0.64524 0.81732 0.0
C1075 C 0.33932 0.64293 0.83811 0.0
N1076 N 0.33368 0.6442 0.8852 0.0
C1077 C 0.35315 0.6447 0.87604 0.0
C1078 C 0.36995 0.6481 0.88967 0.0
C1079 C 0.36058 0.6498 0.90871 0.0
C1080 C 0.33835 0.64763 0.90572 0.0
N1081 N 0.31576 0.61135 0.86975 0.0
C1082 C 0.33293 0.57566 0.86647 0.0
C1083 C 0.33593 0.58579 0.88471 0.0
C1084 C 0.32689 0.60347 0.88617 0.0
C1085 C 0.3206 0.58351 0.85024 0.0
C1086 C 0.31238 0.60133 0.85209 0.0
N1087 N 0.29636 0.66274 0.87104 0.0
C1088 C 0.30298 0.69492 0.86423 0.0
C1089 C 0.28144 0.69893 0.86878 0.0
C1090 C 0.26766 0.68472 0.875 0.0
C1091 C 0.27546 0.66674 0.87616 0.0
C1092 C 0.31014 0.67667 0.86543 0.0
H1093 H 0.26438 0.65608 0.88076 0.0
H1094 H 0.32666 0.67378 0.86139 0.0
H1095 H 0.32934 0.6109 0.90043 0.0
H1096 H 0.30376 0.60709 0.83889 0.0
C1097 C 0.26124 0.61903 0.88659 0.0
C1098 C 0.32258 0.64725 0.92301 0.0
C1099 C 0.28494 0.63907 0.81837 0.0
C1100 C 0.35466 0.64374 0.85437 0.0
H1101 H 0.28384 0.64182 0.94814 0.0
H1102 H 0.2529 0.62302 0.9295 0.0
H1103 H 0.22906 0.61188 0.85528 0.0
H1104 H 0.24131 0.62486 0.81859 0.0
H1105 H 0.32051 0.646 0.79096 0.0
H1106 H 0.359 0.64707 0.8101 0.0
H1107 H 0.38701 0.64935 0.88618 0.0
H1108 H 0.36937 0.65187 0.92317 0.0
H1109 H 0.34525 0.58012 0.8977 0.0
H1110 H 0.31802 0.5762 0.83582 0.0
H1111 H 0.31398 0.70571 0.85929 0.0
H1112 H 0.25086 0.68747 0.8786 0.0
C1113 C 0.11867 0.82164 0.08776 0.0
C1114 C 0.10359 0.81501 0.07348 0.0
C1115 C 0.08896 0.80462 0.08451 0.0
C1116 C 0.09581 0.80544 0.10492 0.0
N1117 N 0.11384 0.81564 0.10742 0.0
Co1118 Co 0.12893 0.81996 0.13466 0.0
N1119 N 0.11405 0.79894 0.14907 0.0
C1120 C 0.09611 0.79051 0.14162 0.0
C1121 C 0.08921 0.77639 0.15427 0.0
C1122 C 0.10338 0.7761 0.17094 0.0
C1123 C 0.1181 0.79033 0.16782 0.0
N1124 N 0.1445 0.82427 0.16167 0.0
C1125 C 0.14589 0.8139 0.17958 0.0
C1126 C 0.15693 0.82355 0.195 0.0
C1127 C 0.16265 0.84024 0.18657 0.0
C1128 C 0.1547 0.84009 0.16655 0.0
N1129 N 0.1435 0.84107 0.12033 0.0
C1130 C 0.15364 0.855 0.13006 0.0
C1131 C 0.16249 0.86762 0.11655 0.0
C1132 C 0.15759 0.86127 0.09704 0.0
C1133 C 0.14597 0.84505 0.09969 0.0
N1134 N 0.10532 0.83614 0.14311 0.0
C1135 C 0.06438 0.84964 0.15248 0.0
C1136 C 0.07717 0.841 0.16779 0.0
C1137 C 0.09758 0.83446 0.16285 0.0
C1138 C 0.07343 0.85346 0.13307 0.0
C1139 C 0.09417 0.84671 0.12875 0.0
N1140 N 0.15178 0.80357 0.12609 0.0
C1141 C 0.18882 0.79837 0.11709 0.0
C1142 C 0.18295 0.78142 0.10858 0.0
C1143 C 0.16158 0.77541 0.1096 0.0
C1144 C 0.1462 0.78676 0.11827 0.0
C1145 C 0.17292 0.8092 0.1261 0.0
H1146 H 0.12968 0.78208 0.11801 0.0
H1147 H 0.17757 0.82227 0.13259 0.0
H1148 H 0.10611 0.82662 0.17464 0.0
H1149 H 0.1004 0.84879 0.11331 0.0
C1150 C 0.0882 0.79451 0.12144 0.0
C1151 C 0.13643 0.83456 0.08222 0.0
C1152 C 0.13456 0.79614 0.18363 0.0
C1153 C 0.15784 0.8539 0.15148 0.0
H1154 H 0.1032 0.81745 0.05684 0.0
H1155 H 0.07546 0.79681 0.07824 0.0
H1156 H 0.07588 0.76699 0.15141 0.0
H1157 H 0.10277 0.76645 0.18385 0.0
H1158 H 0.15984 0.81936 0.211 0.0
H1159 H 0.1715 0.85121 0.19418 0.0
H1160 H 0.17218 0.87958 0.12039 0.0
H1161 H 0.16208 0.86782 0.08251 0.0
H1162 H 0.07076 0.83806 0.18308 0.0
H1163 H 0.06398 0.8603 0.1209 0.0
H1164 H 0.20547 0.80313 0.11681 0.0
H1165 H 0.15671 0.76224 0.10327 0.0
C1166 C 0.20034 0.63841 0.57374 0.0
C1167 C 0.21186 0.63071 0.55767 0.0
C1168 C 0.22767 0.61984 0.56671 0.0
C1169 C 0.22498 0.62139 0.58777 0.0
N1170 N 0.20852 0.63261 0.59262 0.0
Co1171 Co 0.19961 0.63839 0.6216 0.0
N1172 N 0.22736 0.62912 0.63436 0.0
C1173 C 0.24178 0.61849 0.62457 0.0
C1174 C 0.25953 0.61403 0.63674 0.0
C1175 C 0.25596 0.62208 0.65553 0.0
C1176 C 0.23602 0.63092 0.65393 0.0
N1177 N 0.19074 0.64457 0.6505 0.0
C1178 C 0.20233 0.64519 0.66881 0.0
C1179 C 0.18891 0.64958 0.68515 0.0
C1180 C 0.16839 0.65157 0.67693 0.0
C1181 C 0.17028 0.64829 0.65608 0.0
N1182 N 0.17182 0.64744 0.60873 0.0
C1183 C 0.15353 0.65065 0.61924 0.0
C1184 C 0.13699 0.65737 0.6068 0.0
C1185 C 0.14528 0.65837 0.58717 0.0
C1186 C 0.16649 0.65202 0.58859 0.0
N1187 N 0.18705 0.61355 0.62492 0.0
C1188 C 0.17029 0.5775 0.63013 0.0
C1189 C 0.16801 0.58718 0.61107 0.0
C1190 C 0.17621 0.60517 0.6089 0.0
C1191 C 0.18101 0.58659 0.64646 0.0
C1192 C 0.18946 0.60427 0.64346 0.0
N1193 N 0.21221 0.66289 0.6185 0.0
C1194 C 0.20954 0.69575 0.62189 0.0
C1195 C 0.23095 0.69794 0.6152 0.0
C1196 C 0.2426 0.68214 0.60995 0.0
C1197 C 0.23289 0.66484 0.6115 0.0
C1198 C 0.20058 0.67814 0.6236 0.0
H1199 H 0.24227 0.65302 0.60724 0.0
H1200 H 0.18426 0.6769 0.62913 0.0
H1201 H 0.17394 0.61222 0.59415 0.0
H1202 H 0.19803 0.61034 0.65634 0.0
C1203 C 0.23943 0.61502 0.60326 0.0
C1204 C 0.18059 0.64972 0.57031 0.0
C1205 C 0.22517 0.63933 0.67192 0.0
C1206 C 0.1538 0.6504 0.64101 0.0
H1207 H 0.20901 0.63263 0.54114 0.0
H1208 H 0.2401 0.6122 0.55884 0.0
H1209 H 0.27365 0.60624 0.63235 0.0
H1210 H 0.26672 0.6213 0.66896 0.0
H1211 H 0.19335 0.6507 0.70143 0.0
H1212 H 0.15386 0.65517 0.68518 0.0
H1213 H 0.12111 0.66186 0.61156 0.0
H1214 H 0.13666 0.66337 0.57345 0.0
H1215 H 0.16022 0.58094 0.59772 0.0
H1216 H 0.18285 0.58028 0.66171 0.0
H1217 H 0.19967 0.70751 0.62576 0.0
H1218 H 0.25928 0.68298 0.60504 0.0
C1219 C 0.30415 0.8836 0.5934 0.0
C1220 C 0.29111 0.88942 0.57681 0.0
C1221 C 0.27434 0.8992 0.58504 0.0
C1222 C 0.27799 0.89888 0.60616 0.0
N1223 N 0.29595 0.88945 0.61182 0.0
Co1224 Co 0.30663 0.88594 0.64112 0.0
N1225 N 0.27831 0.8932 0.65333 0.0
C1226 C 0.26231 0.90208 0.64281 0.0
C1227 C 0.24472 0.90579 0.65486 0.0
C1228 C 0.25003 0.89909 0.67431 0.0
C1229 C 0.27072 0.89167 0.67315 0.0
N1230 N 0.31738 0.8823 0.67039 0.0
C1231 C 0.30666 0.88166 0.68885 0.0
C1232 C 0.32119 0.87951 0.7054 0.0
C1233 C 0.34154 0.87901 0.69715 0.0
C1234 C 0.33844 0.88087 0.67605 0.0
N1235 N 0.33491 0.87868 0.6288 0.0
C1236 C 0.35394 0.87786 0.6393 0.0
C1237 C 0.37084 0.87241 0.62718 0.0
C1238 C 0.36196 0.86973 0.60776 0.0
C1239 C 0.34002 0.87372 0.60902 0.0
N1240 N 0.31622 0.91185 0.64178 0.0
C1241 C 0.3294 0.94915 0.64243 0.0
C1242 C 0.31797 0.94121 0.65901 0.0
C1243 C 0.31178 0.92264 0.65848 0.0
C1244 C 0.33421 0.93774 0.62561 0.0
C1245 C 0.32731 0.91934 0.62548 0.0
N1246 N 0.29719 0.86033 0.64033 0.0
C1247 C 0.30609 0.82812 0.64232 0.0
C1248 C 0.28578 0.82371 0.63384 0.0
C1249 C 0.27088 0.83779 0.62958 0.0
C1250 C 0.27696 0.85605 0.63281 0.0
C1251 C 0.31136 0.84654 0.64576 0.0
H1252 H 0.26556 0.8667 0.6285 0.0
H1253 H 0.32718 0.84963 0.65213 0.0
H1254 H 0.30321 0.91712 0.67161 0.0
H1255 H 0.33101 0.91118 0.61212 0.0
C1256 C 0.26341 0.90469 0.62122 0.0
C1257 C 0.32502 0.87388 0.59077 0.0
C1258 C 0.28322 0.88506 0.69166 0.0
C1259 C 0.35451 0.87939 0.661 0.0
H1260 H 0.29355 0.88695 0.56046 0.0
H1261 H 0.26072 0.90529 0.57664 0.0
H1262 H 0.22964 0.91229 0.65002 0.0
H1263 H 0.23997 0.89989 0.6879 0.0
H1264 H 0.3175 0.87879 0.72179 0.0
H1265 H 0.35677 0.87723 0.70555 0.0
H1266 H 0.3875 0.87001 0.63203 0.0
H1267 H 0.37066 0.86538 0.59419 0.0
H1268 H 0.31341 0.94926 0.67228 0.0
H1269 H 0.3434 0.94283 0.61255 0.0
H1270 H 0.31789 0.81745 0.64591 0.0
H1271 H 0.25501 0.83474 0.62298 0.0
H1272 H 0.12835 0.23235 0.7899 0.0
H1273 H 0.12583 0.20065 0.73293 0.0
H1274 H 0.12357 0.22931 0.71251 0.0
H1275 H 0.09355 0.26945 0.77363 0.0
H1276 H 0.10973 0.28714 0.78574 0.0
H1277 H 0.10982 0.26408 0.79645 0.0
H1278 H 0.15165 0.26275 0.79359 0.0
H1279 H 0.15171 0.28587 0.78305 0.0
H1280 H 0.16401 0.26745 0.76887 0.0
H1281 H 0.12014 0.26111 0.69803 0.0
H1282 H 0.1203 0.29423 0.69002 0.0
H1283 H 0.13033 0.30583 0.75566 0.0
C1284 C 0.12753 0.2313 0.77314 0.0
C1285 C 0.12671 0.21393 0.76325 0.0
C1286 C 0.12559 0.21354 0.74118 0.0
C1287 C 0.12451 0.22982 0.7293 0.0
C1288 C 0.12506 0.24656 0.73957 0.0
C1289 C 0.12696 0.24748 0.76094 0.0
C1290 C 0.12843 0.26736 0.76791 0.0
C1291 C 0.10924 0.27229 0.78175 0.0
C1292 C 0.15025 0.27107 0.77901 0.0
C1293 C 0.12696 0.2774 0.74707 0.0
C1294 C 0.12471 0.26508 0.73102 0.0
C1295 C 0.12234 0.27091 0.71043 0.0
C1296 C 0.12267 0.28985 0.70603 0.0
C1297 C 0.12588 0.30289 0.72207 0.0
C1298 C 0.12781 0.29642 0.74294 0.0
H1299 H 0.6976 0.63899 0.26329 0.0
H1300 H 0.69025 0.57972 0.26603 0.0
H1301 H 0.72304 0.57732 0.28874 0.0
H1302 H 0.75203 0.63889 0.2567 0.0
H1303 H 0.75803 0.65908 0.27178 0.0
H1304 H 0.7317 0.65643 0.25984 0.0
H1305 H 0.71368 0.66006 0.29572 0.0
H1306 H 0.74007 0.66277 0.30781 0.0
H1307 H 0.72183 0.64518 0.31711 0.0
H1308 H 0.75962 0.58098 0.30538 0.0
H1309 H 0.79718 0.59046 0.31464 0.0
H1310 H 0.78064 0.64732 0.30114 0.0
C1311 C 0.70256 0.62563 0.26939 0.0
C1312 C 0.69149 0.60955 0.26339 0.0
C1313 C 0.69853 0.59215 0.2709 0.0
C1314 C 0.71704 0.59071 0.28377 0.0
C1315 C 0.72809 0.60682 0.28898 0.0
C1316 C 0.72102 0.62399 0.28213 0.0
C1317 C 0.73721 0.6389 0.28752 0.0
C1318 C 0.74521 0.6489 0.26779 0.0
C1319 C 0.72762 0.65253 0.30296 0.0
C1320 C 0.75495 0.62739 0.29766 0.0
C1321 C 0.74927 0.60895 0.2987 0.0
C1322 C 0.76402 0.59542 0.30526 0.0
C1323 C 0.78523 0.60086 0.31049 0.0
C1324 C 0.79128 0.61959 0.30912 0.0
C1325 C 0.77592 0.63302 0.30303 0.0
H1326 H 0.37886 0.30572 0.75485 0.0
H1327 H 0.3844 0.29369 0.82115 0.0
H1328 H 0.38401 0.26054 0.81382 0.0
H1329 H 0.34506 0.26774 0.74053 0.0
H1330 H 0.35891 0.26346 0.71661 0.0
H1331 H 0.3583 0.28639 0.72696 0.0
H1332 H 0.40031 0.28775 0.72666 0.0
H1333 H 0.40104 0.26488 0.71618 0.0
H1334 H 0.41577 0.26993 0.73986 0.0
H1335 H 0.38226 0.22867 0.79948 0.0
H1336 H 0.38231 0.20029 0.77911 0.0
H1337 H 0.38256 0.23301 0.72198 0.0
C1338 C 0.38024 0.29623 0.76791 0.0
C1339 C 0.38138 0.30257 0.78866 0.0
C1340 C 0.38286 0.2894 0.80515 0.0
C1341 C 0.38285 0.27046 0.80115 0.0
C1342 C 0.38169 0.2648 0.78057 0.0
C1343 C 0.3807 0.27728 0.76421 0.0
C1344 C 0.38056 0.26754 0.74349 0.0
C1345 C 0.35945 0.27152 0.73118 0.0
C1346 C 0.40061 0.27284 0.7308 0.0
C1347 C 0.38158 0.24762 0.7508 0.0
C1348 C 0.38196 0.24638 0.77224 0.0
C1349 C 0.38232 0.22947 0.78266 0.0
C1350 C 0.38257 0.21339 0.77088 0.0
C1351 C 0.38287 0.21422 0.7488 0.0
C1352 C 0.38223 0.2317 0.73874 0.0
H1353 H 0.70514 0.89053 0.29781 0.0
H1354 H 0.67159 0.87872 0.23965 0.0
H1355 H 0.7035 0.88951 0.22033 0.0
H1356 H 0.74618 0.9243 0.28261 0.0
H1357 H 0.76786 0.91212 0.29593 0.0
H1358 H 0.7406 0.91072 0.30558 0.0
H1359 H 0.74182 0.87506 0.30383 0.0
H1360 H 0.76914 0.87636 0.29461 0.0
H1361 H 0.74871 0.86429 0.27972 0.0
H1362 H 0.73952 0.90305 0.20786 0.0
H1363 H 0.77894 0.90333 0.2016 0.0
H1364 H 0.79096 0.88993 0.26675 0.0
C1365 C 0.70435 0.89025 0.28099 0.0
C1366 C 0.68534 0.88461 0.27027 0.0
C1367 C 0.68541 0.88406 0.24825 0.0
C1368 C 0.7035 0.89012 0.23714 0.0
C1369 C 0.72202 0.89533 0.24828 0.0
C1370 C 0.72297 0.89417 0.26972 0.0
C1371 C 0.74619 0.89444 0.27775 0.0
C1372 C 0.75045 0.91141 0.29127 0.0
C1373 C 0.75179 0.87647 0.28966 0.0
C1374 C 0.7581 0.89591 0.25742 0.0
C1375 C 0.74379 0.89787 0.24082 0.0
C1376 C 0.7509 0.90094 0.22066 0.0
C1377 C 0.77327 0.90098 0.21727 0.0
C1378 C 0.7881 0.89625 0.23357 0.0
C1379 C 0.7803 0.89398 0.25398 0.0
H1380 H 0.78372 0.10197 0.23885 0.0
H1381 H 0.80362 0.15882 0.2306 0.0
H1382 H 0.79629 0.16466 0.26767 0.0
H1383 H 0.74 0.11024 0.26797 0.0
H1384 H 0.74262 0.09042 0.285 0.0
H1385 H 0.75368 0.08982 0.25937 0.0
H1386 H 0.7916 0.08169 0.27499 0.0
H1387 H 0.78056 0.08214 0.30077 0.0
H1388 H 0.80364 0.09631 0.29448 0.0
H1389 H 0.77976 0.16565 0.30308 0.0
H1390 H 0.7575 0.161 0.33461 0.0
H1391 H 0.74982 0.10338 0.31974 0.0
C1392 C 0.78715 0.11548 0.24509 0.0
C1393 C 0.79424 0.12995 0.23212 0.0
C1394 C 0.79842 0.14753 0.24053 0.0
C1395 C 0.7943 0.15095 0.2615 0.0
C1396 C 0.78646 0.13651 0.27377 0.0
C1397 C 0.78332 0.11902 0.26593 0.0
C1398 C 0.77265 0.10637 0.28152 0.0
C1399 C 0.75096 0.09879 0.27295 0.0
C1400 C 0.78804 0.0907 0.28834 0.0
C1401 C 0.76917 0.1197 0.29893 0.0
C1402 C 0.77746 0.13699 0.29438 0.0
C1403 C 0.77381 0.15206 0.30714 0.0
C1404 C 0.76117 0.14938 0.32488 0.0
C1405 C 0.75252 0.13181 0.32943 0.0
C1406 C 0.75689 0.11679 0.31662 0.0
H1407 H 0.92025 0.30248 0.72249 0.0
H1408 H 0.92263 0.25142 0.68802 0.0
H1409 H 0.93829 0.2358 0.71846 0.0
H1410 H 0.96558 0.29137 0.76329 0.0
H1411 H 0.94932 0.30121 0.78336 0.0
H1412 H 0.94824 0.31078 0.75734 0.0
H1413 H 0.90649 0.30646 0.75628 0.0
H1414 H 0.90751 0.2971 0.78213 0.0
H1415 H 0.89528 0.28392 0.76144 0.0
H1416 H 0.94345 0.22343 0.75309 0.0
H1417 H 0.93191 0.21471 0.78826 0.0
H1418 H 0.92083 0.27207 0.80227 0.0
C1419 C 0.92434 0.28807 0.72115 0.0
C1420 C 0.91998 0.27832 0.70265 0.0
C1421 C 0.92612 0.25954 0.70164 0.0
C1422 C 0.93517 0.25045 0.719 0.0
C1423 C 0.93773 0.26015 0.73743 0.0
C1424 C 0.93235 0.2786 0.73865 0.0
C1425 C 0.93092 0.28465 0.76104 0.0
C1426 C 0.94964 0.29777 0.76658 0.0
C1427 C 0.90873 0.29351 0.76546 0.0
C1428 C 0.93374 0.26625 0.7721 0.0
C1429 C 0.93918 0.25258 0.75828 0.0
C1430 C 0.93966 0.23404 0.76413 0.0
C1431 C 0.93292 0.22919 0.78406 0.0
C1432 C 0.9253 0.24279 0.79768 0.0
C1433 C 0.92699 0.26156 0.79215 0.0
H1434 H 0.7827 0.36169 0.2945 0.0
H1435 H 0.77868 0.42071 0.30244 0.0
H1436 H 0.76394 0.42416 0.26639 0.0
H1437 H 0.79761 0.36281 0.23858 0.0
H1438 H 0.78161 0.34254 0.23335 0.0
H1439 H 0.79428 0.34543 0.25855 0.0
H1440 H 0.75684 0.3413 0.27584 0.0
H1441 H 0.744 0.3387 0.25076 0.0
H1442 H 0.73473 0.35625 0.26806 0.0
H1443 H 0.74532 0.4202 0.23117 0.0
H1444 H 0.72595 0.40932 0.19939 0.0
H1445 H 0.7443 0.35316 0.21475 0.0
C1446 C 0.77953 0.37539 0.2883 0.0
C1447 C 0.7823 0.39102 0.30077 0.0
C1448 C 0.77707 0.4087 0.29271 0.0
C1449 C 0.7687 0.41073 0.27237 0.0
C1450 C 0.76592 0.39493 0.26047 0.0
C1451 C 0.77149 0.37763 0.2681 0.0
C1452 C 0.76559 0.36266 0.25297 0.0
C1453 C 0.78599 0.35278 0.24541 0.0
C1454 C 0.74933 0.34894 0.26248 0.0
C1455 C 0.75519 0.37411 0.23584 0.0
C1456 C 0.75554 0.39271 0.24031 0.0
C1457 C 0.74529 0.40573 0.22736 0.0
C1458 C 0.7343 0.39949 0.20949 0.0
C1459 C 0.73369 0.3805 0.20502 0.0
C1460 C 0.74464 0.36777 0.21805 0.0
H1461 H 0.60672 0.2606 0.71148 0.0
H1462 H 0.67565 0.25259 0.70322 0.0
H1463 H 0.6835 0.27412 0.73198 0.0
H1464 H 0.6088 0.30964 0.72776 0.0
H1465 H 0.58798 0.30606 0.74676 0.0
H1466 H 0.5879 0.29268 0.72333 0.0
H1467 H 0.58795 0.26239 0.74526 0.0
H1468 H 0.58759 0.27568 0.76859 0.0
H1469 H 0.6087 0.2589 0.765 0.0
H1470 H 0.68364 0.2936 0.76356 0.0
H1471 H 0.67615 0.30549 0.79861 0.0
H1472 H 0.60718 0.30012 0.78654 0.0
C1473 C 0.62344 0.2637 0.71557 0.0
C1474 C 0.64063 0.25517 0.70533 0.0
C1475 C 0.66234 0.25906 0.71115 0.0
C1476 C 0.66691 0.27143 0.72718 0.0
C1477 C 0.64954 0.27968 0.73707 0.0
C1478 C 0.62822 0.27579 0.73164 0.0
C1479 C 0.61252 0.28431 0.74647 0.0
C1480 C 0.59848 0.29905 0.73541 0.0
C1481 C 0.59839 0.26944 0.75695 0.0
C1482 C 0.62833 0.2929 0.76167 0.0
C1483 C 0.64959 0.29063 0.75564 0.0
C1484 C 0.66709 0.29582 0.76827 0.0
C1485 C 0.66273 0.30264 0.78804 0.0
C1486 C 0.64113 0.30383 0.79487 0.0
C1487 C 0.62377 0.29966 0.78128 0.0
H1488 H 0.27474 0.70932 0.11696 0.0
H1489 H 0.30194 0.73583 0.0626 0.0
H1490 H 0.26661 0.75018 0.05439 0.0
H1491 H 0.21509 0.7057 0.09443 0.0
H1492 H 0.20488 0.71041 0.11991 0.0
H1493 H 0.22937 0.69713 0.11724 0.0
H1494 H 0.24951 0.7199 0.14146 0.0
H1495 H 0.22549 0.73352 0.14378 0.0
H1496 H 0.25008 0.74408 0.13457 0.0
H1497 H 0.23446 0.7691 0.05885 0.0
H1498 H 0.20508 0.78816 0.07312 0.0
H1499 H 0.19728 0.74881 0.12356 0.0
C1500 C 0.2728 0.71725 0.10268 0.0
C1501 C 0.29084 0.72162 0.09045 0.0
C1502 C 0.28816 0.73249 0.07219 0.0
C1503 C 0.26814 0.74056 0.06733 0.0
C1504 C 0.25097 0.73728 0.08069 0.0
C1505 C 0.25287 0.72541 0.09768 0.0
C1506 C 0.23339 0.72672 0.11157 0.0
C1507 C 0.21988 0.70893 0.11072 0.0
C1508 C 0.24004 0.73134 0.13415 0.0
C1509 C 0.22152 0.74252 0.101 0.0
C1510 C 0.23159 0.74812 0.0829 0.0
C1511 C 0.22582 0.7644 0.07244 0.0
C1512 C 0.20942 0.77525 0.08073 0.0
C1513 C 0.19912 0.76963 0.09917 0.0
C1514 C 0.2048 0.75295 0.10912 0.0
H1515 H 0.29257 0.80201 0.3624 0.0
H1516 H 0.30384 0.81145 0.4279 0.0
H1517 H 0.2658 0.80257 0.43511 0.0
H1518 H 0.23211 0.81413 0.35998 0.0
H1519 H 0.22726 0.79557 0.34214 0.0
H1520 H 0.25262 0.80796 0.34167 0.0
H1521 H 0.27324 0.77705 0.34634 0.0
H1522 H 0.24815 0.76459 0.34738 0.0
H1523 H 0.26759 0.76246 0.3685 0.0
H1524 H 0.2296 0.78687 0.43571 0.0
H1525 H 0.19877 0.76546 0.42976 0.0
H1526 H 0.21267 0.76503 0.364 0.0
C1527 C 0.28651 0.80321 0.37804 0.0
C1528 C 0.30053 0.80791 0.39456 0.0
C1529 C 0.29285 0.80837 0.41509 0.0
C1530 C 0.27137 0.80336 0.41925 0.0
C1531 C 0.25806 0.79795 0.40265 0.0
C1532 C 0.26534 0.79804 0.38239 0.0
C1533 C 0.24959 0.78859 0.36783 0.0
C1534 C 0.23981 0.80239 0.35197 0.0
C1535 C 0.26029 0.77221 0.3569 0.0
C1536 C 0.23291 0.78219 0.38318 0.0
C1537 C 0.23766 0.78813 0.4031 0.0
C1538 C 0.22545 0.78249 0.42012 0.0
C1539 C 0.20812 0.77031 0.41667 0.0
C1540 C 0.20368 0.7637 0.39647 0.0
C1541 C 0.21591 0.76999 0.37956 0.0
H1542 H 0.24743 0.79968 0.90325 0.0
H1543 H 0.21227 0.80449 0.84436 0.0
H1544 H 0.22523 0.77376 0.83459 0.0
H1545 H 0.29449 0.77624 0.88272 0.0
H1546 H 0.29812 0.76168 0.90543 0.0
H1547 H 0.28632 0.78424 0.90782 0.0
H1548 H 0.25258 0.76981 0.92522 0.0
H1549 H 0.26429 0.74723 0.92293 0.0
H1550 H 0.23772 0.7519 0.91202 0.0
H1551 H 0.24084 0.74231 0.83153 0.0
H1552 H 0.25828 0.71171 0.83567 0.0
H1553 H 0.28438 0.72754 0.89577 0.0
C1554 C 0.24262 0.79435 0.88822 0.0
C1555 C 0.22866 0.80445 0.87466 0.0
C1556 C 0.22258 0.79687 0.85521 0.0
C1557 C 0.23002 0.7795 0.84941 0.0
C1558 C 0.24368 0.76991 0.86315 0.0
C1559 C 0.24998 0.77704 0.88213 0.0
C1560 C 0.2645 0.76369 0.89414 0.0
C1561 C 0.2872 0.77196 0.89773 0.0
C1562 C 0.25414 0.75781 0.9148 0.0
C1563 C 0.26513 0.74788 0.87903 0.0
C1564 C 0.25306 0.75181 0.86122 0.0
C1565 C 0.25052 0.73912 0.84529 0.0
C1566 C 0.26045 0.72187 0.84772 0.0
C1567 C 0.27275 0.71761 0.86586 0.0
C1568 C 0.27528 0.73075 0.88164 0.0
H1569 H 0.22458 0.72739 0.64104 0.0
H1570 H 0.26064 0.71072 0.58689 0.0
H1571 H 0.27915 0.7408 0.58641 0.0
H1572 H 0.21593 0.77451 0.62315 0.0
H1573 H 0.2182 0.78378 0.64896 0.0
H1574 H 0.20817 0.7607 0.64532 0.0
H1575 H 0.23788 0.74821 0.67074 0.0
H1576 H 0.24813 0.77121 0.67433 0.0
H1577 H 0.26598 0.75327 0.6658 0.0
H1578 H 0.29488 0.77217 0.59268 0.0
H1579 H 0.30429 0.80389 0.60349 0.0
H1580 H 0.25574 0.80098 0.65138 0.0
C1581 C 0.23608 0.73007 0.62882 0.0
C1582 C 0.24124 0.71648 0.61413 0.0
C1583 C 0.25672 0.72065 0.59866 0.0
C1584 C 0.26723 0.73777 0.59815 0.0
C1585 C 0.26188 0.7507 0.61299 0.0
C1586 C 0.24644 0.74718 0.62785 0.0
C1587 C 0.2433 0.76361 0.64174 0.0
C1588 C 0.22002 0.77109 0.63966 0.0
C1589 C 0.24918 0.75878 0.6645 0.0
C1590 C 0.25952 0.77688 0.63247 0.0
C1591 C 0.27023 0.7691 0.61602 0.0
C1592 C 0.28648 0.77848 0.60541 0.0
C1593 C 0.29178 0.79637 0.61166 0.0
C1594 C 0.28064 0.80465 0.62814 0.0
C1595 C 0.26433 0.79484 0.63865 0.0
H1596 H 0.85198 0.79275 0.23264 0.0
H1597 H 0.90363 0.81576 0.27098 0.0
H1598 H 0.90947 0.78536 0.2876 0.0
H1599 H 0.83058 0.76186 0.2718 0.0
H1600 H 0.82472 0.74352 0.25394 0.0
H1601 H 0.82439 0.76712 0.24488 0.0
H1602 H 0.85238 0.75923 0.21678 0.0
H1603 H 0.85275 0.7356 0.22572 0.0
H1604 H 0.87769 0.74852 0.22446 0.0
H1605 H 0.91005 0.75242 0.30018 0.0
H1606 H 0.90522 0.71939 0.30799 0.0
H1607 H 0.85357 0.71678 0.26141 0.0
C1608 C 0.86462 0.7914 0.24444 0.0
C1609 C 0.87723 0.80691 0.25051 0.0
C1610 C 0.89344 0.80437 0.26621 0.0
C1611 C 0.897 0.78705 0.27569 0.0
C1612 C 0.88427 0.77217 0.26943 0.0
C1613 C 0.86838 0.77412 0.25417 0.0
C1614 C 0.85694 0.7558 0.25046 0.0
C1615 C 0.83272 0.75716 0.25558 0.0
C1616 C 0.86014 0.74941 0.22802 0.0
C1617 C 0.86891 0.74328 0.26598 0.0
C1618 C 0.88463 0.75306 0.2767 0.0
C1619 C 0.89786 0.74462 0.29179 0.0
C1620 C 0.89507 0.72573 0.29602 0.0
C1621 C 0.87915 0.7152 0.28525 0.0
C1622 C 0.86582 0.72429 0.27006 0.0
H1623 H 0.21337 0.40736 0.73192 0.0
H1624 H 0.20215 0.3488 0.72553 0.0
H1625 H 0.2385 0.34238 0.74115 0.0
H1626 H 0.27059 0.4066 0.7197 0.0
H1627 H 0.27794 0.42404 0.73824 0.0
H1628 H 0.25116 0.42395 0.72659 0.0
H1629 H 0.23421 0.42294 0.76316 0.0
H1630 H 0.26093 0.42306 0.77492 0.0
H1631 H 0.24209 0.40493 0.78131 0.0
H1632 H 0.27613 0.34243 0.75836 0.0
H1633 H 0.31202 0.34897 0.77473 0.0
H1634 H 0.29926 0.40751 0.76962 0.0
C1635 C 0.2186 0.3932 0.73391 0.0
C1636 C 0.20486 0.37851 0.72776 0.0
C1637 C 0.21236 0.36019 0.7303 0.0
C1638 C 0.23298 0.35645 0.73915 0.0
C1639 C 0.24609 0.37121 0.74528 0.0
C1640 C 0.23921 0.38924 0.7427 0.0
C1641 C 0.25648 0.40258 0.75051 0.0
C1642 C 0.26451 0.41503 0.73269 0.0
C1643 C 0.24791 0.41405 0.76855 0.0
C1644 C 0.27411 0.3893 0.75796 0.0
C1645 C 0.26778 0.37124 0.75483 0.0
C1646 C 0.28124 0.35653 0.76074 0.0
C1647 C 0.30159 0.36033 0.77002 0.0
C1648 C 0.30847 0.37868 0.77323 0.0
C1649 C 0.29447 0.39334 0.76714 0.0
H1650 H 0.61664 0.7723 0.29592 0.0
H1651 H 0.62262 0.80383 0.23839 0.0
H1652 H 0.62506 0.77501 0.21893 0.0
H1653 H 0.65525 0.73703 0.28269 0.0
H1654 H 0.64038 0.71857 0.29495 0.0
H1655 H 0.63824 0.7417 0.30454 0.0
H1656 H 0.59649 0.7403 0.29986 0.0
H1657 H 0.59851 0.71718 0.29021 0.0
H1658 H 0.58491 0.73473 0.2748 0.0
H1659 H 0.62728 0.74275 0.20534 0.0
H1660 H 0.62959 0.7095 0.19874 0.0
H1661 H 0.62391 0.69814 0.2649 0.0
C1662 C 0.61855 0.77323 0.27925 0.0
C1663 C 0.61914 0.79064 0.26883 0.0
C1664 C 0.62153 0.79091 0.24689 0.0
C1665 C 0.62313 0.77451 0.23563 0.0
C1666 C 0.62246 0.75772 0.24635 0.0
C1667 C 0.62028 0.75691 0.26768 0.0
C1668 C 0.62039 0.73696 0.27536 0.0
C1669 C 0.63972 0.73335 0.29027 0.0
C1670 C 0.59879 0.73201 0.28567 0.0
C1671 C 0.62301 0.72672 0.25503 0.0
C1672 C 0.62412 0.73903 0.23852 0.0
C1673 C 0.62656 0.73301 0.2182 0.0
C1674 C 0.62804 0.714 0.21462 0.0
C1675 C 0.6272 0.70095 0.23124 0.0
C1676 C 0.62449 0.70757 0.25175 0.0
H1677 H 0.30007 0.11063 0.73946 0.0
H1678 H 0.31229 0.16931 0.7347 0.0
H1679 H 0.27668 0.17557 0.7504 0.0
H1680 H 0.24305 0.11247 0.72723 0.0
H1681 H 0.23549 0.09464 0.74549 0.0
H1682 H 0.26214 0.09459 0.7344 0.0
H1683 H 0.27962 0.09435 0.77127 0.0
H1684 H 0.25302 0.09421 0.78247 0.0
H1685 H 0.27225 0.1119 0.78943 0.0
H1686 H 0.23912 0.17558 0.76559 0.0
H1687 H 0.20318 0.16932 0.78081 0.0
H1688 H 0.21488 0.11063 0.77688 0.0
C1689 C 0.29531 0.12477 0.74204 0.0
C1690 C 0.30906 0.13953 0.73602 0.0
C1691 C 0.30211 0.15784 0.73932 0.0
C1692 C 0.28187 0.1615 0.74817 0.0
C1693 C 0.26859 0.14671 0.75376 0.0
C1694 C 0.27507 0.12869 0.75099 0.0
C1695 C 0.25758 0.11537 0.75835 0.0
C1696 C 0.24907 0.10357 0.74029 0.0
C1697 C 0.26613 0.10324 0.77646 0.0
C1698 C 0.24026 0.1287 0.76558 0.0
C1699 C 0.24697 0.14672 0.7627 0.0
C1700 C 0.23378 0.16151 0.76797 0.0
C1701 C 0.21336 0.15784 0.77656 0.0
C1702 C 0.20614 0.13953 0.77994 0.0
C1703 C 0.21985 0.12477 0.77431 0.0
H1704 H 0.2692 0.85926 0.72167 0.0
H1705 H 0.27756 0.91787 0.71113 0.0
H1706 H 0.26343 0.92398 0.74619 0.0
H1707 H 0.2189 0.86255 0.75058 0.0
H1708 H 0.22558 0.84409 0.76856 0.0
H1709 H 0.23649 0.84416 0.74273 0.0
H1710 H 0.27537 0.84202 0.75825 0.0
H1711 H 0.26458 0.84194 0.78413 0.0
H1712 H 0.28444 0.85894 0.77674 0.0
H1713 H 0.24813 0.92394 0.78282 0.0
H1714 H 0.2331 0.91776 0.81769 0.0
H1715 H 0.23383 0.85918 0.80574 0.0
C1716 C 0.26802 0.87336 0.72679 0.0
C1717 C 0.27446 0.88814 0.71341 0.0
C1718 C 0.27268 0.90636 0.72088 0.0
C1719 C 0.26466 0.90994 0.74086 0.0
C1720 C 0.25833 0.89519 0.7536 0.0
C1721 C 0.25989 0.87722 0.74687 0.0
C1722 C 0.25184 0.86394 0.76379 0.0
C1723 C 0.23202 0.85304 0.75594 0.0
C1724 C 0.27015 0.85094 0.77116 0.0
C1725 C 0.24556 0.87719 0.78101 0.0
C1726 C 0.2495 0.89517 0.77473 0.0
C1727 C 0.24508 0.90989 0.78782 0.0
C1728 C 0.23654 0.90626 0.8077 0.0
C1729 C 0.23239 0.88802 0.81474 0.0
C1730 C 0.23689 0.87329 0.80099 0.0
H1731 H 0.10491 0.74694 0.29503 0.0
H1732 H 0.17406 0.74516 0.30824 0.0
H1733 H 0.18102 0.75927 0.27381 0.0
H1734 H 0.10591 0.73872 0.24057 0.0
H1735 H 0.08522 0.75524 0.23337 0.0
H1736 H 0.08527 0.74463 0.25886 0.0
H1737 H 0.08607 0.7767 0.27591 0.0
H1738 H 0.08562 0.78741 0.25046 0.0
H1739 H 0.10691 0.79295 0.26887 0.0
H1740 H 0.18069 0.77133 0.2361 0.0
H1741 H 0.17317 0.78507 0.20136 0.0
H1742 H 0.10432 0.78449 0.21409 0.0
C1743 C 0.12151 0.74998 0.29102 0.0
C1744 C 0.13896 0.74483 0.30481 0.0
C1745 C 0.16037 0.74878 0.29824 0.0
C1746 C 0.1645 0.7568 0.27856 0.0
C1747 C 0.14707 0.76145 0.26535 0.0
C1748 C 0.12594 0.75867 0.27154 0.0
C1749 C 0.11018 0.76584 0.25465 0.0
C1750 C 0.09579 0.75017 0.24638 0.0
C1751 C 0.09637 0.78167 0.26297 0.0
C1752 C 0.1257 0.77278 0.23791 0.0
C1753 C 0.14691 0.76975 0.24431 0.0
C1754 C 0.16412 0.77402 0.23119 0.0
C1755 C 0.15966 0.78185 0.21134 0.0
C1756 C 0.13817 0.78596 0.2045 0.0
C1757 C 0.12097 0.7813 0.21828 0.0
H1758 H 0.27292 0.66503 0.78739 0.0
H1759 H 0.27908 0.60631 0.79881 0.0
H1760 H 0.26463 0.60025 0.76343 0.0
H1761 H 0.22286 0.66309 0.75706 0.0
H1762 H 0.23028 0.68104 0.7389 0.0
H1763 H 0.24139 0.681 0.765 0.0
H1764 H 0.28025 0.68155 0.75047 0.0
H1765 H 0.26927 0.68167 0.72433 0.0
H1766 H 0.28832 0.66408 0.73249 0.0
H1767 H 0.24809 0.60028 0.72703 0.0
H1768 H 0.23275 0.60639 0.69187 0.0
H1769 H 0.23772 0.66513 0.70217 0.0
C1770 C 0.27133 0.65092 0.78234 0.0
C1771 C 0.2771 0.6361 0.79608 0.0
C1772 C 0.27474 0.61786 0.78874 0.0
C1773 C 0.26649 0.61429 0.76861 0.0
C1774 C 0.26067 0.62909 0.75557 0.0
C1775 C 0.26311 0.64708 0.76204 0.0
C1776 C 0.2556 0.66039 0.74471 0.0
C1777 C 0.23639 0.67208 0.75185 0.0
C1778 C 0.27449 0.67265 0.73758 0.0
C1779 C 0.24855 0.64711 0.72758 0.0
C1780 C 0.25156 0.62911 0.73431 0.0
C1781 C 0.24592 0.61434 0.72159 0.0
C1782 C 0.23722 0.61795 0.70154 0.0
C1783 C 0.23433 0.63621 0.69388 0.0
C1784 C 0.23993 0.65099 0.70734 0.0
H1785 H 0.40322 0.75575 0.28822 0.0
H1786 H 0.34736 0.79153 0.27951 0.0
H1787 H 0.34318 0.78104 0.24346 0.0
H1788 H 0.42463 0.76205 0.2358 0.0
H1789 H 0.43317 0.73844 0.23335 0.0
H1790 H 0.4322 0.74877 0.25865 0.0
H1791 H 0.40704 0.72254 0.27131 0.0
H1792 H 0.40787 0.71219 0.24601 0.0
H1793 H 0.38216 0.71792 0.25719 0.0
H1794 H 0.34474 0.76693 0.20759 0.0
H1795 H 0.35198 0.7501 0.1752 0.0
H1796 H 0.40635 0.72253 0.20559 0.0
C1797 C 0.39018 0.76147 0.27872 0.0
C1798 C 0.37549 0.7745 0.28726 0.0
C1799 C 0.35865 0.78138 0.27393 0.0
C1800 C 0.35619 0.77554 0.25319 0.0
C1801 C 0.37062 0.76262 0.24543 0.0
C1802 C 0.38733 0.75562 0.25775 0.0
C1803 C 0.40039 0.74167 0.24536 0.0
C1804 C 0.424 0.74812 0.24316 0.0
C1805 C 0.3993 0.72244 0.25558 0.0
C1806 C 0.38845 0.74198 0.22426 0.0
C1807 C 0.37136 0.75427 0.22472 0.0
C1808 C 0.35805 0.75725 0.20717 0.0
C1809 C 0.36226 0.74758 0.18876 0.0
C1810 C 0.37957 0.73482 0.18768 0.0
C1811 C 0.39283 0.73202 0.20585 0.0
H1812 H 0.71281 0.2827 0.85716 0.0
H1813 H 0.70216 0.27701 0.92331 0.0
H1814 H 0.73818 0.26227 0.92786 0.0
H1815 H 0.74054 0.23963 0.85072 0.0
H1816 H 0.75978 0.24838 0.83224 0.0
H1817 H 0.73347 0.25895 0.83407 0.0
H1818 H 0.75153 0.29062 0.84047 0.0
H1819 H 0.77791 0.28017 0.83851 0.0
H1820 H 0.77116 0.29294 0.86136 0.0
H1821 H 0.77473 0.24665 0.92508 0.0
H1822 H 0.80993 0.23304 0.91552 0.0
H1823 H 0.79854 0.2497 0.85134 0.0
C1824 C 0.71825 0.27852 0.8726 0.0
C1825 C 0.70469 0.28106 0.88995 0.0
C1826 C 0.7123 0.27528 0.90988 0.0
C1827 C 0.73272 0.26684 0.91257 0.0
C1828 C 0.74563 0.2643 0.8952 0.0
C1829 C 0.73882 0.27012 0.8756 0.0
C1830 C 0.75597 0.26567 0.85958 0.0
C1831 C 0.74689 0.25237 0.84318 0.0
C1832 C 0.76466 0.28341 0.84938 0.0
C1833 C 0.77337 0.25634 0.87319 0.0
C1834 C 0.76696 0.25564 0.89367 0.0
C1835 C 0.77994 0.24729 0.9091 0.0
C1836 C 0.79995 0.23958 0.90354 0.0
C1837 C 0.80714 0.24029 0.88273 0.0
C1838 C 0.79355 0.24887 0.86738 0.0
H1839 H 0.79509 0.28615 0.60487 0.0
H1840 H 0.8104 0.28169 0.67072 0.0
H1841 H 0.7751 0.2663 0.67659 0.0
H1842 H 0.73808 0.29434 0.60889 0.0
H1843 H 0.73033 0.28035 0.58704 0.0
H1844 H 0.75666 0.29115 0.58788 0.0
H1845 H 0.77516 0.25947 0.58348 0.0
H1846 H 0.74888 0.24861 0.58232 0.0
H1847 H 0.76889 0.24085 0.60122 0.0
H1848 H 0.73726 0.2521 0.67545 0.0
H1849 H 0.70162 0.23801 0.66705 0.0
H1850 H 0.71169 0.24919 0.60157 0.0
C1851 C 0.79121 0.28159 0.62047 0.0
C1852 C 0.8058 0.28493 0.63735 0.0
C1853 C 0.79968 0.27917 0.65756 0.0
C1854 C 0.77959 0.27046 0.66103 0.0
C1855 C 0.76562 0.26737 0.64411 0.0
C1856 C 0.7713 0.27253 0.62416 0.0
C1857 C 0.75353 0.26715 0.60863 0.0
C1858 C 0.7441 0.28427 0.59745 0.0
C1859 C 0.76213 0.25319 0.59299 0.0
C1860 C 0.7369 0.25831 0.62293 0.0
C1861 C 0.74413 0.25876 0.64338 0.0
C1862 C 0.73153 0.25166 0.65947 0.0
C1863 C 0.71124 0.24373 0.65457 0.0
C1864 C 0.70355 0.24276 0.63373 0.0
C1865 C 0.71673 0.25014 0.61772 0.0
H1866 H 0.73012 0.26989 0.16604 0.0
H1867 H 0.73219 0.2816 0.09974 0.0
H1868 H 0.74651 0.25047 0.09382 0.0
H1869 H 0.77974 0.24276 0.16905 0.0
H1870 H 0.76934 0.2265 0.18783 0.0
H1871 H 0.75939 0.24984 0.18709 0.0
H1872 H 0.72007 0.23773 0.18279 0.0
H1873 H 0.72992 0.21436 0.18347 0.0
H1874 H 0.71351 0.22241 0.16176 0.0
H1875 H 0.76041 0.21802 0.0947 0.0
H1876 H 0.77299 0.18626 0.10254 0.0
H1877 H 0.76232 0.19475 0.16812 0.0
C1878 C 0.73375 0.26596 0.15029 0.0
C1879 C 0.72981 0.27832 0.13334 0.0
C1880 C 0.73464 0.27243 0.11298 0.0
C1881 C 0.74294 0.25475 0.10945 0.0
C1882 C 0.74641 0.24291 0.1264 0.0
C1883 C 0.74199 0.24822 0.14645 0.0
C1884 C 0.74701 0.2326 0.16183 0.0
C1885 C 0.76494 0.23827 0.17737 0.0
C1886 C 0.7264 0.22641 0.17313 0.0
C1887 C 0.75493 0.21774 0.1473 0.0
C1888 C 0.75446 0.22406 0.12692 0.0
C1889 C 0.76089 0.21295 0.1106 0.0
C1890 C 0.76801 0.19496 0.11517 0.0
C1891 C 0.76871 0.18815 0.13588 0.0
C1892 C 0.76201 0.19969 0.15216 0.0
H1893 H 0.75626 0.29 0.40543 0.0
H1894 H 0.78009 0.2898 0.34221 0.0
H1895 H 0.76957 0.25734 0.33906 0.0
H1896 H 0.77498 0.24319 0.4187 0.0
H1897 H 0.75179 0.23782 0.43439 0.0
H1898 H 0.76108 0.2613 0.43202 0.0
H1899 H 0.72283 0.27136 0.41923 0.0
H1900 H 0.71344 0.24792 0.42151 0.0
H1901 H 0.71057 0.2602 0.39708 0.0
H1902 H 0.75518 0.22521 0.34165 0.0
H1903 H 0.73943 0.19489 0.35074 0.0
H1904 H 0.72661 0.21398 0.41291 0.0
C1905 C 0.75949 0.28313 0.39098 0.0
C1906 C 0.76872 0.29293 0.37393 0.0
C1907 C 0.77249 0.28312 0.35535 0.0
C1908 C 0.76674 0.26448 0.35343 0.0
C1909 C 0.75741 0.25543 0.37028 0.0
C1910 C 0.75398 0.2643 0.38881 0.0
C1911 C 0.74373 0.25109 0.4045 0.0
C1912 C 0.75879 0.24818 0.42353 0.0
C1913 C 0.72131 0.25806 0.41096 0.0
C1914 C 0.74177 0.23354 0.39179 0.0
C1915 C 0.74973 0.23648 0.37206 0.0
C1916 C 0.74909 0.22272 0.35712 0.0
C1917 C 0.74008 0.20553 0.3624 0.0
C1918 C 0.73194 0.202 0.38251 0.0
C1919 C 0.73294 0.21621 0.39747 0.0
H1920 H 0.18515 0.54994 0.65735 0.0
H1921 H 0.13539 0.56075 0.61003 0.0
H1922 H 0.12143 0.52927 0.61503 0.0
H1923 H 0.19453 0.50264 0.64685 0.0
H1924 H 0.19725 0.49592 0.67385 0.0
H1925 H 0.20424 0.51898 0.66572 0.0
H1926 H 0.17751 0.5323 0.69231 0.0
H1927 H 0.17054 0.50928 0.70061 0.0
H1928 H 0.14957 0.52494 0.69175 0.0
H1929 H 0.11335 0.49586 0.62476 0.0
H1930 H 0.11043 0.46464 0.63966 0.0
H1931 H 0.162 0.47751 0.68413 0.0
C1932 C 0.1711 0.54601 0.64814 0.0
C1933 C 0.16163 0.55821 0.63311 0.0
C1934 C 0.14351 0.55184 0.62127 0.0
C1935 C 0.13525 0.53392 0.62414 0.0
C1936 C 0.14494 0.52245 0.63917 0.0
C1937 C 0.16231 0.52836 0.65114 0.0
C1938 C 0.16927 0.51365 0.66685 0.0
C1939 C 0.19271 0.50743 0.66308 0.0
C1940 C 0.16655 0.52045 0.6892 0.0
C1941 C 0.15319 0.49847 0.66176 0.0
C1942 C 0.13945 0.50373 0.6456 0.0
C1943 C 0.12382 0.49173 0.63767 0.0
C1944 C 0.12214 0.47396 0.64649 0.0
C1945 C 0.13574 0.46825 0.66345 0.0
C1946 C 0.1514 0.48096 0.67111 0.0
H1947 H 0.47837 0.6549 0.12403 0.0
H1948 H 0.49638 0.71248 0.12836 0.0
H1949 H 0.53396 0.70337 0.13801 0.0
H1950 H 0.50641 0.63971 0.16729 0.0
H1951 H 0.51474 0.61794 0.1569 0.0
H1952 H 0.49046 0.62892 0.1471 0.0
H1953 H 0.50526 0.6281 0.10961 0.0
H1954 H 0.52958 0.61693 0.1193 0.0
H1955 H 0.53145 0.63799 0.10427 0.0
H1956 H 0.56757 0.68789 0.15265 0.0
H1957 H 0.59502 0.66724 0.16924 0.0
H1958 H 0.55546 0.61985 0.15387 0.0
C1959 C 0.49038 0.66557 0.12654 0.0
C1960 C 0.48459 0.68438 0.12545 0.0
C1961 C 0.50063 0.698 0.12889 0.0
C1962 C 0.52196 0.69294 0.13442 0.0
C1963 C 0.52696 0.67423 0.13606 0.0
C1964 C 0.51169 0.66076 0.13189 0.0
C1965 C 0.52062 0.64166 0.13626 0.0
C1966 C 0.50726 0.63148 0.15287 0.0
C1967 C 0.5218 0.63052 0.11616 0.0
C1968 C 0.54301 0.64648 0.14441 0.0
C1969 C 0.54647 0.66532 0.14404 0.0
C1970 C 0.56523 0.67311 0.1526 0.0
C1971 C 0.58066 0.66135 0.162 0.0
C1972 C 0.57713 0.6421 0.16278 0.0
C1973 C 0.55841 0.63457 0.15337 0.0
H1974 H 0.33952 0.97132 0.67631 0.0
H1975 H 0.33387 0.97295 0.60882 0.0
H1976 H 0.34511 1.00544 0.60879 0.0
H1977 H 0.31652 0.01656 0.68336 0.0
H1978 H 0.33384 0.02176 0.70537 0.0
H1979 H 0.32654 0.99823 0.70007 0.0
H1980 H 0.36723 0.98945 0.69927 0.0
H1981 H 0.37466 0.01298 0.70441 0.0
H1982 H 0.385 1.00165 0.68186 0.0
H1983 H 0.35758 0.03795 0.61596 0.0
H1984 H 0.36789 0.06822 0.62982 0.0
H1985 H 0.36145 0.04649 0.69274 0.0
C1986 C 0.34037 0.97842 0.66145 0.0
C1987 C 0.33598 0.96914 0.64253 0.0
C1988 C 0.33769 0.97927 0.62357 0.0
C1989 C 0.3439 0.9979 0.62336 0.0
C1990 C 0.34811 1.0065 0.64224 0.0
C1991 C 0.34618 0.99715 0.66095 0.0
C1992 C 0.35082 0.00982 0.6791 0.0
C1993 C 0.33073 0.0117 0.69278 0.0
C1994 C 0.3706 1.00307 0.69191 0.0
C1995 C 0.35574 0.02773 0.66765 0.0
C1996 C 0.35427 0.02546 0.6464 0.0
C1997 C 0.35851 0.03993 0.6326 0.0
C1998 C 0.36419 0.0572 0.64069 0.0
C1999 C 0.36535 0.0601 0.66249 0.0
C2000 C 0.36106 0.04496 0.67603 0.0
H2001 H 0.03952 0.88134 0.15287 0.0
H2002 H 0.03669 0.82192 0.16039 0.0
H2003 H 0.99803 0.82391 0.16933 0.0
H2004 H 0.00606 0.89157 0.19563 0.0
H2005 H 0.99238 0.91085 0.18332 0.0
H2006 H 0.01948 0.90493 0.17581 0.0
H2007 H 0.00659 0.90224 0.13741 0.0
H2008 H 0.97947 0.90832 0.1448 0.0
H2009 H 0.98418 0.88725 0.13104 0.0
H2010 H 0.96082 0.83205 0.17933 0.0
H2011 H 0.92603 0.84621 0.18918 0.0
H2012 H 0.9521 0.90044 0.17561 0.0
C2013 C 0.03055 0.86881 0.15607 0.0
C2014 C 0.0409 0.85147 0.15596 0.0
C2015 C 0.02891 0.83531 0.16049 0.0
C2016 C 0.007 0.83629 0.16553 0.0
C2017 C 0.9973 0.85356 0.16599 0.0
C2018 C 0.00855 0.86956 0.16132 0.0
C2019 C 0.99426 0.88636 0.16389 0.0
C2020 C 0.00361 0.89918 0.18066 0.0
C2021 C 0.99093 0.89665 0.14304 0.0
C2022 C 0.97342 0.87727 0.17096 0.0
C2023 C 0.97558 0.85833 0.17197 0.0
C2024 C 0.95883 0.84686 0.1785 0.0
C2025 C 0.93923 0.85496 0.1841 0.0
C2026 C 0.93665 0.87429 0.18316 0.0
C2027 C 0.95388 0.8856 0.17647 0.0
H2028 H 0.17012 0.97032 0.84873 0.0
H2029 H 0.17134 0.9732 0.91623 0.0
H2030 H 0.16069 1.00585 0.91376 0.0
H2031 H 0.1948 0.0147 0.84064 0.0
H2032 H 0.1792 0.01967 0.8173 0.0
H2033 H 0.18539 0.99616 0.82443 0.0
H2034 H 0.14442 0.98819 0.82313 0.0
H2035 H 0.13809 0.01171 0.81613 0.0
H2036 H 0.12584 1.00116 0.83859 0.0
H2037 H 0.14965 0.0386 0.9038 0.0
H2038 H 0.14133 0.06866 0.88744 0.0
H2039 H 0.15169 0.04514 0.82658 0.0
C2040 C 0.16846 0.9777 0.86311 0.0
C2041 C 0.17157 0.96878 0.88273 0.0
C2042 C 0.16864 0.97928 0.90097 0.0
C2043 C 0.16274 0.998 0.89974 0.0
C2044 C 0.16003 1.00625 0.88017 0.0
C2045 C 0.16301 0.99646 0.86219 0.0
C2046 C 0.16004 0.00873 0.84307 0.0
C2047 C 0.18111 0.00988 0.83063 0.0
C2048 C 0.14096 1.00204 0.82943 0.0
C2049 C 0.1549 0.02699 0.85309 0.0
C2050 C 0.15474 0.02523 0.87449 0.0
C2051 C 0.15 0.04015 0.88705 0.0
C2052 C 0.14547 0.05731 0.87754 0.0
C2053 C 0.146 0.05965 0.85557 0.0
C2054 C 0.15079 0.04408 0.84333 0.0
H2055 H 0.95685 0.62046 0.35447 0.0
H2056 H 0.94774 0.64361 0.29235 0.0
H2057 H 0.98666 0.65023 0.29066 0.0
H2058 H 0.98791 0.66 0.36858 0.0
H2059 H 0.005 0.64807 0.38734 0.0
H2060 H 0.97799 0.63979 0.38198 0.0
H2061 H 0.99361 0.60779 0.37305 0.0
H2062 H 0.02075 0.61606 0.37815 0.0
H2063 H 0.01398 0.60607 0.35337 0.0
H2064 H 0.0265 0.65334 0.29511 0.0
H2065 H 0.06155 0.66399 0.3083 0.0
H2066 H 0.04215 0.6501 0.37142 0.0
C2067 C 0.96308 0.62683 0.34047 0.0
C2068 C 0.94925 0.63065 0.32314 0.0
C2069 C 0.95806 0.63949 0.30537 0.0
C2070 C 0.98019 0.6434 0.30428 0.0
C2071 C 0.99326 0.63956 0.3216 0.0
C2072 C 0.98489 0.6324 0.33976 0.0
C2073 C 1.00132 0.63397 0.35756 0.0
C2074 C 0.99254 0.64619 0.37488 0.0
C2075 C 0.0078 0.61483 0.36603 0.0
C2076 C 0.0201 0.64318 0.34641 0.0
C2077 C 0.01533 0.64526 0.32549 0.0
C2078 C 0.03018 0.65247 0.3116 0.0
C2079 C 0.05001 0.65881 0.31943 0.0
C2080 C 0.05443 0.65917 0.3412 0.0
C2081 C 0.03947 0.65046 0.35477 0.0
H2082 H 0.31384 0.54305 0.85496 0.0
H2083 H 0.37595 0.56743 0.87112 0.0
H2084 H 0.3943 0.5381 0.86293 0.0
H2085 H 0.32636 0.49718 0.8769 0.0
H2086 H 0.31132 0.48541 0.8568 0.0
H2087 H 0.30327 0.50816 0.86446 0.0
H2088 H 0.30597 0.51944 0.8262 0.0
H2089 H 0.31427 0.49679 0.81847 0.0
H2090 H 0.33105 0.51647 0.8126 0.0
H2091 H 0.406 0.50691 0.84964 0.0
H2092 H 0.41001 0.47552 0.83638 0.0
H2093 H 0.33973 0.47033 0.83262 0.0
C2094 C 0.33128 0.5421 0.85698 0.0
C2095 C 0.34352 0.55747 0.86368 0.0
C2096 C 0.36629 0.55575 0.86619 0.0
C2097 C 0.37684 0.53919 0.86146 0.0
C2098 C 0.36434 0.52436 0.85458 0.0
C2099 C 0.34201 0.52555 0.85275 0.0
C2100 C 0.33232 0.50753 0.84531 0.0
C2101 C 0.31744 0.49907 0.86186 0.0
C2102 C 0.32019 0.51023 0.82441 0.0
C2103 C 0.35271 0.49613 0.84283 0.0
C2104 C 0.371 0.50613 0.84807 0.0
C2105 C 0.39173 0.49882 0.84595 0.0
C2106 C 0.39381 0.48079 0.8385 0.0
C2107 C 0.37526 0.46995 0.83353 0.0
C2108 C 0.35444 0.47796 0.83588 0.0
H2109 H 0.46506 0.83658 0.39857 0.0
H2110 H 0.45721 0.78903 0.35913 0.0
H2111 H 0.49552 0.79146 0.34895 0.0
H2112 H 0.49394 0.86169 0.36249 0.0
H2113 H 0.5116 0.8732 0.38079 0.0
H2114 H 0.48526 0.86543 0.38873 0.0
H2115 H 0.50289 0.84645 0.41895 0.0
H2116 H 0.52935 0.85423 0.41112 0.0
H2117 H 0.52375 0.82991 0.41342 0.0
H2118 H 0.53265 0.80119 0.33941 0.0
H2119 H 0.56561 0.81866 0.3298 0.0
H2120 H 0.54915 0.86115 0.37342 0.0
C2121 C 0.47175 0.82634 0.3884 0.0
C2122 C 0.45848 0.81227 0.38013 0.0
C2123 C 0.46736 0.79954 0.36613 0.0
C2124 C 0.48906 0.80085 0.36021 0.0
C2125 C 0.50162 0.81515 0.3682 0.0
C2126 C 0.4933 0.82775 0.38192 0.0
C2127 C 0.50923 0.84332 0.38579 0.0
C2128 C 0.49942 0.86201 0.37904 0.0
C2129 C 0.51675 0.84348 0.40868 0.0
C2130 C 0.52751 0.83775 0.37172 0.0
C2131 C 0.52295 0.82125 0.36203 0.0
C2132 C 0.53661 0.81392 0.34719 0.0
C2133 C 0.55524 0.82387 0.34183 0.0
C2134 C 0.55988 0.84093 0.35121 0.0
C2135 C 0.54607 0.84785 0.36652 0.0
H2136 H 0.63116 0.15197 0.54032 0.0
H2137 H 0.64231 0.20975 0.52631 0.0
H2138 H 0.64686 0.20247 0.48924 0.0
H2139 H 0.67108 0.13534 0.50889 0.0
H2140 H 0.65669 0.11514 0.50028 0.0
H2141 H 0.65049 0.12509 0.52493 0.0
H2142 H 0.61006 0.12813 0.51367 0.0
H2143 H 0.61615 0.11808 0.48896 0.0
H2144 H 0.60304 0.14024 0.48985 0.0
H2145 H 0.65511 0.18875 0.45516 0.0
H2146 H 0.66706 0.16915 0.42626 0.0
H2147 H 0.65011 0.12028 0.46179 0.0
C2148 C 0.63387 0.16309 0.52927 0.0
C2149 C 0.63627 0.1814 0.53598 0.0
C2150 C 0.64043 0.19563 0.52132 0.0
C2151 C 0.6429 0.19164 0.50027 0.0
C2152 C 0.64106 0.17338 0.49416 0.0
C2153 C 0.63654 0.15931 0.50817 0.0
C2154 C 0.63774 0.14067 0.49794 0.0
C2155 C 0.65503 0.12835 0.50865 0.0
C2156 C 0.61541 0.13122 0.49758 0.0
C2157 C 0.64446 0.14643 0.47627 0.0
C2158 C 0.64595 0.16538 0.47433 0.0
C2159 C 0.65363 0.17392 0.45634 0.0
C2160 C 0.66038 0.16276 0.44007 0.0
C2161 C 0.65956 0.14338 0.44208 0.0
C2162 C 0.65089 0.13513 0.46007 0.0
H2163 H 0.81414 0.15605 0.04563 0.0
H2164 H 0.80407 0.09817 0.03189 0.0
H2165 H 0.8186 0.10354 0.99668 0.0
H2166 H 0.7968 0.17323 0.99527 0.0
H2167 H 0.81622 0.1918 0.99556 0.0
H2168 H 0.80559 0.18299 0.01962 0.0
H2169 H 0.8448 0.1769 0.03323 0.0
H2170 H 0.85556 0.18546 0.00911 0.0
H2171 H 0.86264 0.16267 0.01839 0.0
H2172 H 0.83537 0.11553 0.96315 0.0
H2173 H 0.85044 0.13322 0.93369 0.0
H2174 H 0.84552 0.18347 0.96932 0.0
C2175 C 0.81444 0.14448 0.03519 0.0
C2176 C 0.80776 0.12669 0.04159 0.0
C2177 C 0.80926 0.11191 0.02747 0.0
C2178 C 0.8174 0.11483 0.00742 0.0
C2179 C 0.8238 0.13261 1.00173 0.0
C2180 C 0.82214 0.14719 0.01518 0.0
C2181 C 0.82961 0.16506 0.00538 0.0
C2182 C 0.81094 0.17909 1.00386 0.0
C2183 C 0.84932 0.17297 0.01723 0.0
C2184 C 0.83584 0.15831 0.98422 0.0
C2185 C 0.8326 0.13955 0.98241 0.0
C2186 C 0.83772 0.13026 0.96433 0.0
C2187 C 0.84615 0.14048 0.94763 0.0
C2188 C 0.84912 0.15983 0.94905 0.0
C2189 C 0.84386 0.16871 0.9677 0.0
H2190 H 0.83338 0.34013 0.53815 0.0
H2191 H 0.86316 0.39175 0.55651 0.0
H2192 H 0.85496 0.40486 0.52149 0.0
H2193 H 0.85238 0.3399 0.48683 0.0
H2194 H 0.82793 0.33001 0.476 0.0
H2195 H 0.8356 0.32514 0.50262 0.0
H2196 H 0.79828 0.33708 0.51475 0.0
H2197 H 0.79048 0.34195 0.48814 0.0
H2198 H 0.78954 0.35993 0.50717 0.0
H2199 H 0.84426 0.41174 0.48364 0.0
H2200 H 0.83203 0.41154 0.44656 0.0
H2201 H 0.80882 0.35563 0.45445 0.0
C2202 C 0.83782 0.35432 0.53503 0.0
C2203 C 0.84872 0.36499 0.55013 0.0
C2204 C 0.85485 0.38332 0.54513 0.0
C2205 C 0.85016 0.39089 0.52534 0.0
C2206 C 0.83935 0.37993 0.51084 0.0
C2207 C 0.83324 0.36205 0.51552 0.0
C2208 C 0.82234 0.35286 0.49721 0.0
C2209 C 0.83535 0.33599 0.49026 0.0
C2210 C 0.79876 0.34765 0.50212 0.0
C2211 C 0.82331 0.36832 0.48136 0.0
C2212 C 0.83315 0.38387 0.48941 0.0
C2213 C 0.83638 0.39969 0.47725 0.0
C2214 C 0.82943 0.39951 0.45634 0.0
C2215 C 0.81941 0.38365 0.44807 0.0
C2216 C 0.81626 0.36795 0.46071 0.0
H2217 H 0.61903 0.34147 0.98302 0.0
H2218 H 0.62812 0.2829 0.99369 0.0
H2219 H 0.63292 0.28828 0.03137 0.0
H2220 H 0.65995 0.35525 0.01675 0.0
H2221 H 0.64653 0.37551 0.02608 0.0
H2222 H 0.63994 0.36694 1.00064 0.0
H2223 H 0.59937 0.36482 0.01035 0.0
H2224 H 0.60584 0.3735 0.03584 0.0
H2225 H 0.59166 0.35191 0.0332 0.0
H2226 H 0.64136 0.30007 0.06639 0.0
H2227 H 0.65357 0.31751 0.09694 0.0
H2228 H 0.63937 0.36887 0.06433 0.0
C2229 C 0.62129 0.32978 0.99347 0.0
C2230 C 0.62286 0.31174 0.9857 0.0
C2231 C 0.62665 0.29676 0.99954 0.0
C2232 C 0.62932 0.2997 0.0209 0.0
C2233 C 0.62821 0.31771 0.02809 0.0
C2234 C 0.62426 0.33253 0.01484 0.0
C2235 C 0.62633 0.35063 0.02626 0.0
C2236 C 0.64425 0.36279 0.01687 0.0
C2237 C 0.60449 0.36081 0.02642 0.0
C2238 C 0.63269 0.34368 0.04783 0.0
C2239 C 0.63339 0.32463 0.04853 0.0
C2240 C 0.64051 0.31497 0.06616 0.0
C2241 C 0.64747 0.32501 0.08342 0.0
C2242 C 0.64734 0.34453 0.08297 0.0
C2243 C 0.63936 0.35396 0.0651 0.0
H2244 H 0.82955 0.54398 0.32588 0.0
H2245 H 0.8795 0.55329 0.37284 0.0
H2246 H 0.87508 0.52129 0.38573 0.0
H2247 H 0.79506 0.51548 0.35873 0.0
H2248 H 0.78683 0.50043 0.33796 0.0
H2249 H 0.79397 0.52403 0.33228 0.0
H2250 H 0.82254 0.51303 0.30615 0.0
H2251 H 0.81551 0.48941 0.31176 0.0
H2252 H 0.84323 0.49698 0.31471 0.0
H2253 H 0.86667 0.48758 0.39238 0.0
H2254 H 0.85294 0.45555 0.39404 0.0
H2255 H 0.80671 0.46811 0.3444 0.0
C2256 C 0.83956 0.53926 0.33887 0.0
C2257 C 0.85495 0.55125 0.34832 0.0
C2258 C 0.86752 0.54452 0.36543 0.0
C2259 C 0.86519 0.52629 0.3728 0.0
C2260 C 0.84997 0.51485 0.36314 0.0
C2261 C 0.83717 0.52113 0.34669 0.0
C2262 C 0.82172 0.50606 0.33938 0.0
C2263 C 0.79799 0.51185 0.34226 0.0
C2264 C 0.82601 0.50108 0.31665 0.0
C2265 C 0.82797 0.49029 0.35413 0.0
C2266 C 0.84446 0.49565 0.36758 0.0
C2267 C 0.85362 0.48333 0.38205 0.0
C2268 C 0.84576 0.46513 0.38286 0.0
C2269 C 0.82865 0.45932 0.3695 0.0
C2270 C 0.81959 0.47219 0.35502 0.0
H2271 H 0.47692 0.38267 0.82525 0.0
H2272 H 0.43326 0.34171 0.85117 0.0
H2273 H 0.46446 0.32644 0.86858 0.0
H2274 H 0.51695 0.34646 0.81128 0.0
H2275 H 0.53979 0.36168 0.81485 0.0
H2276 H 0.51387 0.37086 0.80652 0.0
H2277 H 0.51494 0.39317 0.83757 0.0
H2278 H 0.54061 0.38376 0.84628 0.0
H2279 H 0.51796 0.384 0.86364 0.0
H2280 H 0.50029 0.31872 0.88729 0.0
H2281 H 0.5383 0.31166 0.89657 0.0
H2282 H 0.55996 0.34964 0.84859 0.0
C2283 C 0.47375 0.36994 0.83351 0.0
C2284 C 0.45216 0.3634 0.83637 0.0
C2285 C 0.44935 0.34728 0.8488 0.0
C2286 C 0.46705 0.33846 0.8588 0.0
C2287 C 0.48791 0.34521 0.85548 0.0
C2288 C 0.49146 0.36001 0.84231 0.0
C2289 C 0.51578 0.36301 0.8395 0.0
C2290 C 0.52197 0.36034 0.81668 0.0
C2291 C 0.52272 0.38213 0.8472 0.0
C2292 C 0.52527 0.34777 0.85345 0.0
C2293 C 0.5088 0.33828 0.8632 0.0
C2294 C 0.51328 0.32532 0.87885 0.0
C2295 C 0.53504 0.32126 0.88387 0.0
C2296 C 0.55237 0.32893 0.87231 0.0
C2297 C 0.54724 0.34286 0.85723 0.0
H2298 H 0.67693 0.02418 0.39082 0.0
H2299 H 0.6647 0.05096 0.33111 0.0
H2300 H 0.65134 0.0216 0.31685 0.0
H2301 H 0.6964 0.98137 0.36972 0.0
H2302 H 0.68425 0.96685 0.38928 0.0
H2303 H 0.692 0.99012 0.39542 0.0
H2304 H 0.65287 0.997 0.40703 0.0
H2305 H 0.64501 0.97372 0.40099 0.0
H2306 H 0.63047 0.99286 0.38933 0.0
H2307 H 0.63922 0.98972 0.30877 0.0
H2308 H 0.6301 0.95673 0.30685 0.0
H2309 H 0.65129 0.949 0.37104 0.0
C2310 C 0.67125 0.02383 0.37481 0.0
C2311 C 0.67182 0.03995 0.36207 0.0
C2312 C 0.6645 0.03885 0.34113 0.0
C2313 C 0.65683 0.02221 0.33289 0.0
C2314 C 0.65669 1.00657 0.34568 0.0
C2315 C 0.66378 1.00712 0.36616 0.0
C2316 C 0.66249 0.98797 0.37616 0.0
C2317 C 0.68514 0.98118 0.38305 0.0
C2318 C 0.64677 0.98789 0.39447 0.0
C2319 C 0.65354 0.97668 0.35811 0.0
C2320 C 0.65019 0.98783 0.34078 0.0
C2321 C 0.64176 0.98087 0.32225 0.0
C2322 C 0.63653 0.96207 0.32135 0.0
C2323 C 0.63982 0.95018 0.33878 0.0
C2324 C 0.64865 0.95766 0.3574 0.0
H2325 H 0.04893 0.17292 0.81748 0.0
H2326 H 0.05736 0.12599 0.85906 0.0
H2327 H 0.02036 0.13078 0.87255 0.0
H2328 H 0.01908 0.20112 0.85315 0.0
H2329 H 1.00123 0.21084 0.83344 0.0
H2330 H 0.02811 0.20351 0.82673 0.0
H2331 H 0.01185 0.18233 0.79839 0.0
H2332 H 0.98492 0.18961 0.80502 0.0
H2333 H 0.9917 0.16545 0.80541 0.0
H2334 H 0.98221 0.14077 0.88168 0.0
H2335 H 0.94633 0.15551 0.88613 0.0
H2336 H 0.96221 0.19643 0.83921 0.0
C2337 C 0.04287 0.16366 0.82939 0.0
C2338 C 0.05598 0.14902 0.83724 0.0
C2339 C 0.04758 0.13723 0.85285 0.0
C2340 C 0.02657 0.13987 0.86058 0.0
C2341 C 0.01403 0.15443 0.8526 0.0
C2342 C 0.02186 0.16617 0.83736 0.0
C2343 C 0.0051 0.18091 0.83171 0.0
C2344 C 0.01391 0.20024 0.83655 0.0
C2345 C 0.99797 0.17949 0.80877 0.0
C2346 C 0.98667 0.17567 0.84614 0.0
C2347 C 0.99216 0.16029 0.858 0.0
C2348 C 0.97781 0.15281 0.87245 0.0
C2349 C 0.95744 0.16123 0.87488 0.0
C2350 C 0.95148 0.17703 0.86302 0.0
C2351 C 0.96634 0.18432 0.84845 0.0
H2352 H 0.81681 0.05496 0.1818 0.0
H2353 H 0.82163 0.05511 0.11471 0.0
H2354 H 0.83189 0.0221 0.11586 0.0
H2355 H 0.8626 0.02407 0.19227 0.0
H2356 H 0.84979 0.01246 0.21376 0.0
H2357 H 0.84314 0.03612 0.20769 0.0
H2358 H 0.80248 0.02745 0.20472 0.0
H2359 H 0.80899 1.00376 0.21072 0.0
H2360 H 0.79409 0.00952 0.18719 0.0
H2361 H 0.84054 0.98881 0.12421 0.0
H2362 H 0.84833 0.95796 0.13909 0.0
H2363 H 0.83848 0.97899 0.20108 0.0
C2364 C 0.82024 0.048 0.16743 0.0
C2365 C 0.81862 0.05753 0.14814 0.0
C2366 C 0.82298 0.04802 0.12961 0.0
C2367 C 0.82875 0.02929 0.13014 0.0
C2368 C 0.83016 0.0202 0.14936 0.0
C2369 C 0.82616 0.02923 0.16771 0.0
C2370 C 0.82877 0.01614 0.18625 0.0
C2371 C 0.84717 0.02259 0.20085 0.0
C2372 C 0.8073 0.0141 0.1979 0.0
C2373 C 0.83476 0.99836 0.17547 0.0
C2374 C 0.83538 1.00102 0.15418 0.0
C2375 C 0.84013 0.9866 0.14087 0.0
C2376 C 0.84441 0.96904 0.14948 0.0
C2377 C 0.84404 0.96588 0.17129 0.0
C2378 C 0.83916 0.98089 0.18438 0.0
H2379 H 0.04454 0.3859 0.65533 0.0
H2380 H 0.06221 0.34162 0.69804 0.0
H2381 H 0.02642 0.32686 0.69174 0.0
H2382 H 0.98843 0.3888 0.67008 0.0
H2383 H 0.97835 0.39361 0.64412 0.0
H2384 H 0.00549 0.40038 0.65152 0.0
H2385 H 0.02083 0.38208 0.62075 0.0
H2386 H 0.99372 0.37531 0.61322 0.0
H2387 H 0.01419 0.35801 0.61821 0.0
H2388 H 0.98829 0.31684 0.68061 0.0
H2389 H 0.95094 0.31291 0.66637 0.0
H2390 H 0.95732 0.36387 0.63126 0.0
C2391 C 0.04088 0.373 0.66316 0.0
C2392 C 0.05629 0.36471 0.67696 0.0
C2393 C 0.05075 0.34805 0.68726 0.0
C2394 C 0.03044 0.3396 0.68377 0.0
C2395 C 0.01561 0.34803 0.67001 0.0
C2396 C 0.02056 0.36441 0.6599 0.0
C2397 C 1.00153 0.37079 0.64623 0.0
C2398 C 0.99295 0.3895 0.65342 0.0
C2399 C 0.00795 0.37159 0.62324 0.0
C2400 C 0.98512 0.3555 0.65019 0.0
C2401 C 0.99361 0.34246 0.66392 0.0
C2402 C 0.98154 0.32701 0.6699 0.0
C2403 C 0.96034 0.32485 0.66174 0.0
C2404 C 0.95122 0.33809 0.64784 0.0
C2405 C 0.96387 0.35358 0.64196 0.0
H2406 H 0.6698 0.45447 0.1391 0.0
H2407 H 0.65962 0.42813 0.19917 0.0
H2408 H 0.65111 0.4582 0.21415 0.0
H2409 H 0.69525 0.4961 0.15947 0.0
H2410 H 0.68266 0.51125 0.14042 0.0
H2411 H 0.68808 0.48761 0.13405 0.0
H2412 H 0.64761 0.48293 0.12415 0.0
H2413 H 0.64206 0.50655 0.1305 0.0
H2414 H 0.62707 0.48819 0.1428 0.0
H2415 H 0.64346 0.49088 0.22303 0.0
H2416 H 0.6374 0.52426 0.22533 0.0
H2417 H 0.65222 0.53063 0.15982 0.0
C2418 C 0.66591 0.45504 0.15543 0.0
C2419 C 0.66511 0.43868 0.1678 0.0
C2420 C 0.65986 0.44021 0.18912 0.0
C2421 C 0.65515 0.45732 0.19788 0.0
C2422 C 0.65579 0.47305 0.18527 0.0
C2423 C 0.66108 0.47216 0.16451 0.0
C2424 C 0.66043 0.49134 0.15454 0.0
C2425 C 0.68295 0.4969 0.14666 0.0
C2426 C 0.64327 0.49231 0.13696 0.0
C2427 C 0.65389 0.50305 0.17293 0.0
C2428 C 0.65134 0.49212 0.19046 0.0
C2429 C 0.64531 0.49956 0.20936 0.0
C2430 C 0.64171 0.51862 0.21045 0.0
C2431 C 0.64402 0.5303 0.19275 0.0
C2432 C 0.65036 0.52225 0.17373 0.0
H2433 H 0.46555 0.17352 0.69571 0.0
H2434 H 0.45277 0.13299 0.64823 0.0
H2435 H 0.48837 0.13982 0.63257 0.0
H2436 H 0.49274 0.20661 0.66268 0.0
H2437 H 0.51254 0.21326 0.68211 0.0
H2438 H 0.48627 0.20503 0.68988 0.0
H2439 H 0.50452 0.17981 0.71297 0.0
H2440 H 0.53085 0.18802 0.70533 0.0
H2441 H 0.52359 0.16421 0.70161 0.0
H2442 H 0.52526 0.15147 0.62152 0.0
H2443 H 0.56099 0.1664 0.61653 0.0
H2444 H 0.55088 0.19956 0.671 0.0
C2445 C 0.47037 0.16605 0.68208 0.0
C2446 C 0.4563 0.15271 0.67313 0.0
C2447 C 0.4632 0.14325 0.65529 0.0
C2448 C 0.48342 0.14708 0.64629 0.0
C2449 C 0.49682 0.16041 0.65529 0.0
C2450 C 0.49065 0.16972 0.67286 0.0
C2451 C 0.50819 0.18344 0.67934 0.0
C2452 C 0.49941 0.20326 0.67845 0.0
C2453 C 0.51733 0.17858 0.70111 0.0
C2454 C 0.52512 0.18045 0.66269 0.0
C2455 C 0.51816 0.16708 0.64897 0.0
C2456 C 0.53084 0.1619 0.63223 0.0
C2457 C 0.55112 0.17046 0.62947 0.0
C2458 C 0.55877 0.18408 0.64335 0.0
C2459 C 0.54548 0.18918 0.66015 0.0
H2460 H 0.34473 0.81986 0.48173 0.0
H2461 H 0.38358 0.86692 0.46284 0.0
H2462 H 0.3764 0.88172 0.49622 0.0
H2463 H 0.30404 0.84583 0.5092 0.0
H2464 H 0.30105 0.82907 0.52989 0.0
H2465 H 0.30919 0.82181 0.50449 0.0
H2466 H 0.3434 0.80641 0.52068 0.0
H2467 H 0.33534 0.81361 0.54613 0.0
H2468 H 0.36168 0.81987 0.53653 0.0
H2469 H 0.36513 0.89199 0.53223 0.0
H2470 H 0.35063 0.89657 0.56748 0.0
H2471 H 0.31876 0.84345 0.56454 0.0
C2472 C 0.35189 0.83323 0.4846 0.0
C2473 C 0.3647 0.84212 0.46903 0.0
C2474 C 0.37342 0.85974 0.47386 0.0
C2475 C 0.36953 0.8683 0.49304 0.0
C2476 C 0.35678 0.8593 0.50778 0.0
C2477 C 0.34806 0.84212 0.50385 0.0
C2478 C 0.33476 0.83561 0.5225 0.0
C2479 C 0.31084 0.83292 0.51613 0.0
C2480 C 0.34437 0.81782 0.53202 0.0
C2481 C 0.33739 0.85175 0.53748 0.0
C2482 C 0.35023 0.86524 0.52859 0.0
C2483 C 0.3551 0.88145 0.53925 0.0
C2484 C 0.34678 0.88397 0.55935 0.0
C2485 C 0.3336 0.87044 0.56901 0.0
C2486 C 0.32881 0.85409 0.55772 0.0
H2487 H 0.16694 0.82456 0.05225 0.0
H2488 H 0.11263 0.8611 0.06176 0.0
H2489 H 0.11762 0.87465 0.0266 0.0
H2490 H 0.19999 0.85694 0.02317 0.0
H2491 H 0.21016 0.84018 0.00536 0.0
H2492 H 0.20237 0.83311 0.03115 0.0
H2493 H 0.17599 0.80906 0.01559 0.0
H2494 H 0.18377 0.81599 0.98975 0.0
H2495 H 0.15561 0.81637 0.99684 0.0
H2496 H 0.12952 0.88541 0.99046 0.0
H2497 H 0.14553 0.89102 0.95597 0.0
H2498 H 0.19157 0.84691 0.9678 0.0
C2499 C 0.15599 0.8353 0.04681 0.0
C2500 C 0.13917 0.84164 0.05993 0.0
C2501 C 0.12543 0.85586 0.05213 0.0
C2502 C 0.12824 0.8637 0.03212 0.0
C2503 C 0.14492 0.85726 0.01962 0.0
C2504 C 0.1585 0.84325 0.02659 0.0
C2505 C 0.17506 0.83886 0.00983 0.0
C2506 C 0.19827 0.84249 0.01786 0.0
C2507 C 0.17245 0.81888 1.00257 0.0
C2508 C 0.16874 0.85255 0.99241 0.0
C2509 C 0.15137 0.8631 0.99854 0.0
C2510 C 0.14291 0.87699 0.9855 0.0
C2511 C 0.1521 0.88005 0.96576 0.0
C2512 C 0.16951 0.86917 0.95859 0.0
C2513 C 0.17806 0.85534 0.97245 0.0
H2514 H 0.196 0.67434 0.53969 0.0
H2515 H 0.14576 0.63374 0.55051 0.0
H2516 H 0.13019 0.64022 0.51549 0.0
H2517 H 0.16281 0.70711 0.51029 0.0
H2518 H 0.18362 0.71324 0.49208 0.0
H2519 H 0.191 0.70551 0.51798 0.0
H2520 H 0.21482 0.67985 0.50274 0.0
H2521 H 0.20756 0.68755 0.4768 0.0
H2522 H 0.20298 0.66392 0.48452 0.0
H2523 H 0.11917 0.65168 0.47907 0.0
H2524 H 0.11481 0.66599 0.44406 0.0
H2525 H 0.1724 0.69886 0.45508 0.0
C2526 C 0.18172 0.66682 0.53465 0.0
C2527 C 0.1719 0.65369 0.54828 0.0
C2528 C 0.1534 0.64405 0.54075 0.0
C2529 C 0.14445 0.64764 0.52075 0.0
C2530 C 0.15418 0.66085 0.50791 0.0
C2531 C 0.17255 0.6702 0.51447 0.0
C2532 C 0.17992 0.68355 0.49732 0.0
C2533 C 0.1793 0.70354 0.50487 0.0
C2534 C 0.20268 0.67841 0.48991 0.0
C2535 C 0.1628 0.68034 0.48021 0.0
C2536 C 0.14808 0.66718 0.48675 0.0
C2537 C 0.13067 0.66195 0.47388 0.0
C2538 C 0.12825 0.67021 0.45396 0.0
C2539 C 0.14307 0.68367 0.44668 0.0
C2540 C 0.16067 0.6887 0.46012 0.0
H2541 H 0.38583 0.69399 0.02233 0.0
H2542 H 0.3405 0.66423 0.06147 0.0
H2543 H 0.32567 0.64885 0.03046 0.0
H2544 H 0.34062 0.7045 0.98385 0.0
H2545 H 0.35864 0.70509 0.96206 0.0
H2546 H 0.3684 0.71171 0.98747 0.0
H2547 H 0.39914 0.68767 0.98513 0.0
H2548 H 0.38919 0.68067 0.95993 0.0
H2549 H 0.39239 0.66385 0.98061 0.0
H2550 H 0.32115 0.63253 0.99491 0.0
H2551 H 0.31516 0.62541 0.95804 0.0
H2552 H 0.34931 0.67538 0.94048 0.0
C2553 C 0.37206 0.68504 0.02464 0.0
C2554 C 0.36486 0.68038 0.04514 0.0
C2555 C 0.3473 0.66768 0.0465 0.0
C2556 C 0.33855 0.65888 0.02881 0.0
C2557 C 0.34616 0.66374 0.00917 0.0
C2558 C 0.36154 0.67738 0.00686 0.0
C2559 C 0.36424 0.68197 0.98369 0.0
C2560 C 0.35758 0.70201 0.97899 0.0
C2561 C 0.38764 0.67833 0.97695 0.0
C2562 C 0.34844 0.66839 0.97342 0.0
C2563 C 0.33913 0.6574 0.98852 0.0
C2564 C 0.32704 0.64191 0.98306 0.0
C2565 C 0.32334 0.63815 0.96184 0.0
C2566 C 0.32977 0.6506 0.94579 0.0
C2567 C 0.34313 0.6658 0.95198 0.0
loop_
_geom_bond_atom_site_label_1
_geom_bond_atom_site_label_2
_geom_bond_distance
_geom_bond_site_symmetry_2
_ccdc_geom_bond_type
C0 C1 1.443 . S
C0 N4 1.376 . S
C0 C38 1.389 . S
C1 C0 1.443 . S
C1 C2 1.340 . S
C1 H41 0.951 . S
C2 C1 1.340 . S
C2 C3 1.439 . S
C2 H42 0.950 . S
C3 C2 1.439 . S
C3 N4 1.374 . S
C3 C37 1.395 . S
N4 C0 1.376 . S
N4 C3 1.374 . S
N4 Co5 2.008 . S
Co5 N4 2.008 . S
Co5 N6 1.995 . S
Co5 N11 2.008 . S
Co5 N16 1.995 . S
Co5 N21 2.282 . S
Co5 N27 2.282 . S
N6 Co5 1.995 . S
N6 C7 1.376 . S
N6 C10 1.383 . S
C7 N6 1.376 . S
C7 C8 1.446 . S
C7 C37 1.391 . S
C8 C7 1.446 . S
C8 C9 1.339 . S
C8 H43 0.949 . S
C9 C8 1.339 . S
C9 C10 1.439 . S
C9 H44 0.950 . S
C10 N6 1.383 . S
C10 C9 1.439 . S
C10 C39 1.392 . S
N11 Co5 2.008 . S
N11 C12 1.376 . S
N11 C15 1.374 . S
C12 N11 1.376 . S
C12 C13 1.443 . S
C12 C39 1.389 . S
C13 C12 1.443 . S
C13 C14 1.340 . S
C13 H45 0.951 . S
C14 C13 1.340 . S
C14 C15 1.439 . S
C14 H46 0.950 . S
C15 N11 1.374 . S
C15 C14 1.439 . S
C15 C40 1.395 . S
N16 Co5 1.995 . S
N16 C17 1.376 . S
N16 C20 1.383 . S
C17 N16 1.376 . S
C17 C18 1.446 . S
C17 C40 1.391 . S
C18 C17 1.446 . S
C18 C19 1.339 . S
C18 H47 0.949 . S
C19 C18 1.339 . S
C19 C20 1.439 . S
C19 H48 0.950 . S
C20 N16 1.383 . S
C20 C19 1.439 . S
C20 C38 1.392 . S
N21 Co5 2.282 . S
N21 C24 1.332 . S
N21 C26 1.332 . S
C22 C23 1.386 . S
C22 C25 1.388 . S
C23 C22 1.386 . S
C23 C24 1.382 . S
C23 H49 0.950 . S
C24 N21 1.332 . S
C24 C23 1.382 . S
C24 H35 0.952 . S
C25 C22 1.388 . S
C25 C26 1.382 . S
C25 H50 0.950 . S
C26 N21 1.332 . S
C26 C25 1.382 . S
C26 H36 0.948 . S
N27 Co5 2.282 . S
N27 C31 1.332 . S
N27 C32 1.332 . S
C28 C29 1.388 . S
C28 C32 1.382 . S
C28 H51 0.950 . S
C29 C28 1.388 . S
C29 C30 1.386 . S
C30 C29 1.386 . S
C30 C31 1.382 . S
C30 H52 0.950 . S
C31 N27 1.332 . S
C31 C30 1.382 . S
C31 H33 0.952 . S
C32 N27 1.332 . S
C32 C28 1.382 . S
C32 H34 0.948 . S
H33 C31 0.952 . S
H34 C32 0.948 . S
H35 C24 0.952 . S
H36 C26 0.948 . S
C37 C3 1.395 . S
C37 C7 1.391 . S
C38 C0 1.389 . S
C38 C20 1.392 . S
C39 C10 1.392 . S
C39 C12 1.389 . S
C40 C15 1.395 . S
C40 C17 1.391 . S
H41 C1 0.951 . S
H42 C2 0.950 . S
H43 C8 0.949 . S
H44 C9 0.950 . S
H45 C13 0.951 . S
H46 C14 0.950 . S
H47 C18 0.949 . S
H48 C19 0.950 . S
H49 C23 0.950 . S
H50 C25 0.950 . S
H51 C28 0.950 . S
H52 C30 0.950 . S
C53 C54 1.443 . S
C53 N57 1.376 . S
C53 C91 1.389 . S
C54 C53 1.443 . S
C54 C55 1.340 . S
C54 H94 0.951 . S
C55 C54 1.340 . S
C55 C56 1.439 . S
C55 H95 0.950 . S
C56 C55 1.439 . S
C56 N57 1.374 . S
C56 C90 1.395 . S
N57 C53 1.376 . S
N57 C56 1.374 . S
N57 Co58 2.008 . S
Co58 N57 2.008 . S
Co58 N59 1.995 . S
Co58 N64 2.008 . S
Co58 N69 1.995 . S
Co58 N74 2.282 . S
Co58 N80 2.282 . S
N59 Co58 1.995 . S
N59 C60 1.376 . S
N59 C63 1.383 . S
C60 N59 1.376 . S
C60 C61 1.446 . S
C60 C90 1.391 . S
C61 C60 1.446 . S
C61 C62 1.339 . S
C61 H96 0.949 . S
C62 C61 1.339 . S
C62 C63 1.439 . S
C62 H97 0.950 . S
C63 N59 1.383 . S
C63 C62 1.439 . S
C63 C92 1.392 . S
N64 Co58 2.008 . S
N64 C65 1.376 . S
N64 C68 1.374 . S
C65 N64 1.376 . S
C65 C66 1.443 . S
C65 C92 1.389 . S
C66 C65 1.443 . S
C66 C67 1.340 . S
C66 H98 0.951 . S
C67 C66 1.340 . S
C67 C68 1.439 . S
C67 H99 0.950 . S
C68 N64 1.374 . S
C68 C67 1.439 . S
C68 C93 1.395 . S
N69 Co58 1.995 . S
N69 C70 1.376 . S
N69 C73 1.383 . S
C70 N69 1.376 . S
C70 C71 1.446 . S
C70 C93 1.391 . S
C71 C70 1.446 . S
C71 C72 1.339 . S
C71 H100 0.949 . S
C72 C71 1.339 . S
C72 C73 1.439 . S
C72 H101 0.950 . S
C73 N69 1.383 . S
C73 C72 1.439 . S
C73 C91 1.392 . S
N74 Co58 2.282 . S
N74 C77 1.332 . S
N74 C79 1.332 . S
C75 C76 1.386 . S
C75 C78 1.388 . S
C76 C75 1.386 . S
C76 C77 1.382 . S
C76 H102 0.950 . S
C77 N74 1.332 . S
C77 C76 1.382 . S
C77 H88 0.952 . S
C78 C75 1.388 . S
C78 C79 1.382 . S
C78 H103 0.950 . S
C79 N74 1.332 . S
C79 C78 1.382 . S
C79 H89 0.948 . S
N80 Co58 2.282 . S
N80 C84 1.332 . S
N80 C85 1.332 . S
C81 C82 1.388 . S
C81 C85 1.382 . S
C81 H104 0.950 . S
C82 C81 1.388 . S
C82 C83 1.386 . S
C83 C82 1.386 . S
C83 C84 1.382 . S
C83 H105 0.950 . S
C84 N80 1.332 . S
C84 C83 1.382 . S
C84 H86 0.952 . S
C85 N80 1.332 . S
C85 C81 1.382 . S
C85 H87 0.948 . S
H86 C84 0.952 . S
H87 C85 0.948 . S
H88 C77 0.952 . S
H89 C79 0.948 . S
C90 C56 1.395 . S
C90 C60 1.391 . S
C91 C53 1.389 . S
C91 C73 1.392 . S
C92 C63 1.392 . S
C92 C65 1.389 . S
C93 C68 1.395 . S
C93 C70 1.391 . S
H94 C54 0.951 . S
H95 C55 0.950 . S
H96 C61 0.949 . S
H97 C62 0.950 . S
H98 C66 0.951 . S
H99 C67 0.950 . S
H100 C71 0.949 . S
H101 C72 0.950 . S
H102 C76 0.950 . S
H103 C78 0.950 . S
H104 C81 0.950 . S
H105 C83 0.950 . S
C106 C107 1.443 . S
C106 N110 1.376 . S
C106 C144 1.389 . S
C107 C106 1.443 . S
C107 C108 1.340 . S
C107 H147 0.951 . S
C108 C107 1.340 . S
C108 C109 1.439 . S
C108 H148 0.950 . S
C109 C108 1.439 . S
C109 N110 1.374 . S
C109 C143 1.395 . S
N110 C106 1.376 . S
N110 C109 1.374 . S
N110 Co111 2.008 . S
Co111 N110 2.008 . S
Co111 N112 1.995 . S
Co111 N117 2.008 . S
Co111 N122 1.995 . S
Co111 N127 2.282 . S
Co111 N133 2.282 . S
N112 Co111 1.995 . S
N112 C113 1.376 . S
N112 C116 1.383 . S
C113 N112 1.376 . S
C113 C114 1.446 . S
C113 C143 1.391 . S
C114 C113 1.446 . S
C114 C115 1.339 . S
C114 H149 0.949 . S
C115 C114 1.339 . S
C115 C116 1.439 . S
C115 H150 0.950 . S
C116 N112 1.383 . S
C116 C115 1.439 . S
C116 C145 1.392 . S
N117 Co111 2.008 . S
N117 C118 1.376 . S
N117 C121 1.374 . S
C118 N117 1.376 . S
C118 C119 1.443 . S
C118 C145 1.389 . S
C119 C118 1.443 . S
C119 C120 1.340 . S
C119 H151 0.951 . S
C120 C119 1.340 . S
C120 C121 1.439 . S
C120 H152 0.950 . S
C121 N117 1.374 . S
C121 C120 1.439 . S
C121 C146 1.395 . S
N122 Co111 1.995 . S
N122 C123 1.376 . S
N122 C126 1.383 . S
C123 N122 1.376 . S
C123 C124 1.446 . S
C123 C146 1.391 . S
C124 C123 1.446 . S
C124 C125 1.339 . S
C124 H153 0.949 . S
C125 C124 1.339 . S
C125 C126 1.439 . S
C125 H154 0.950 . S
C126 N122 1.383 . S
C126 C125 1.439 . S
C126 C144 1.392 . S
N127 Co111 2.282 . S
N127 C130 1.332 . S
N127 C132 1.332 . S
C128 C129 1.386 . S
C128 C131 1.388 . S
C129 C128 1.386 . S
C129 C130 1.382 . S
C129 H155 0.950 . S
C130 N127 1.332 . S
C130 C129 1.382 . S
C130 H141 0.952 . S
C131 C128 1.388 . S
C131 C132 1.382 . S
C131 H156 0.950 . S
C132 N127 1.332 . S
C132 C131 1.382 . S
C132 H142 0.948 . S
N133 Co111 2.282 . S
N133 C137 1.332 . S
N133 C138 1.332 . S
C134 C135 1.388 . S
C134 C138 1.382 . S
C134 H157 0.950 . S
C135 C134 1.388 . S
C135 C136 1.386 . S
C136 C135 1.386 . S
C136 C137 1.382 . S
C136 H158 0.950 . S
C137 N133 1.332 . S
C137 C136 1.382 . S
C137 H139 0.952 . S
C138 N133 1.332 . S
C138 C134 1.382 . S
C138 H140 0.948 . S
H139 C137 0.952 . S
H140 C138 0.948 . S
H141 C130 0.952 . S
H142 C132 0.948 . S
C143 C109 1.395 . S
C143 C113 1.391 . S
C144 C106 1.389 . S
C144 C126 1.392 . S
C145 C116 1.392 . S
C145 C118 1.389 . S
C146 C121 1.395 . S
C146 C123 1.391 . S
H147 C107 0.951 . S
H148 C108 0.950 . S
H149 C114 0.949 . S
H150 C115 0.950 . S
H151 C119 0.951 . S
H152 C120 0.950 . S
H153 C124 0.949 . S
H154 C125 0.950 . S
H155 C129 0.950 . S
H156 C131 0.950 . S
H157 C134 0.950 . S
H158 C136 0.950 . S
C159 C160 1.443 . S
C159 N163 1.376 . S
C159 C197 1.389 . S
C160 C159 1.443 . S
C160 C161 1.340 . S
C160 H200 0.951 . S
C161 C160 1.340 . S
C161 C162 1.439 . S
C161 H201 0.950 . S
C162 C161 1.439 . S
C162 N163 1.374 . S
C162 C196 1.395 . S
N163 C159 1.376 . S
N163 C162 1.374 . S
N163 Co164 2.008 . S
Co164 N163 2.008 . S
Co164 N165 1.995 . S
Co164 N170 2.008 . S
Co164 N175 1.995 . S
Co164 N180 2.282 . S
Co164 N186 2.282 . S
N165 Co164 1.995 . S
N165 C166 1.376 . S
N165 C169 1.383 . S
C166 N165 1.376 . S
C166 C167 1.446 . S
C166 C196 1.391 . S
C167 C166 1.446 . S
C167 C168 1.339 . S
C167 H202 0.949 . S
C168 C167 1.339 . S
C168 C169 1.439 . S
C168 H203 0.950 . S
C169 N165 1.383 . S
C169 C168 1.439 . S
C169 C198 1.392 . S
N170 Co164 2.008 . S
N170 C171 1.376 . S
N170 C174 1.374 . S
C171 N170 1.376 . S
C171 C172 1.443 . S
C171 C198 1.389 . S
C172 C171 1.443 . S
C172 C173 1.340 . S
C172 H204 0.951 . S
C173 C172 1.340 . S
C173 C174 1.439 . S
C173 H205 0.950 . S
C174 N170 1.374 . S
C174 C173 1.439 . S
C174 C199 1.395 . S
N175 Co164 1.995 . S
N175 C176 1.376 . S
N175 C179 1.383 . S
C176 N175 1.376 . S
C176 C177 1.446 . S
C176 C199 1.391 . S
C177 C176 1.446 . S
C177 C178 1.339 . S
C177 H206 0.949 . S
C178 C177 1.339 . S
C178 C179 1.439 . S
C178 H207 0.950 . S
C179 N175 1.383 . S
C179 C178 1.439 . S
C179 C197 1.392 . S
N180 Co164 2.282 . S
N180 C183 1.332 . S
N180 C185 1.332 . S
C181 C182 1.386 . S
C181 C184 1.388 . S
C182 C181 1.386 . S
C182 C183 1.382 . S
C182 H208 0.950 . S
C183 N180 1.332 . S
C183 C182 1.382 . S
C183 H194 0.952 . S
C184 C181 1.388 . S
C184 C185 1.382 . S
C184 H209 0.950 . S
C185 N180 1.332 . S
C185 C184 1.382 . S
C185 H195 0.948 . S
N186 Co164 2.282 . S
N186 C190 1.332 . S
N186 C191 1.332 . S
C187 C188 1.388 . S
C187 C191 1.382 . S
C187 H210 0.950 . S
C188 C187 1.388 . S
C188 C189 1.386 . S
C189 C188 1.386 . S
C189 C190 1.382 . S
C189 H211 0.950 . S
C190 N186 1.332 . S
C190 C189 1.382 . S
C190 H192 0.952 . S
C191 N186 1.332 . S
C191 C187 1.382 . S
C191 H193 0.948 . S
H192 C190 0.952 . S
H193 C191 0.948 . S
H194 C183 0.952 . S
H195 C185 0.948 . S
C196 C162 1.395 . S
C196 C166 1.391 . S
C197 C159 1.389 . S
C197 C179 1.392 . S
C198 C169 1.392 . S
C198 C171 1.389 . S
C199 C174 1.395 . S
C199 C176 1.391 . S
H200 C160 0.951 . S
H201 C161 0.950 . S
H202 C167 0.949 . S
H203 C168 0.950 . S
H204 C172 0.951 . S
H205 C173 0.950 . S
H206 C177 0.949 . S
H207 C178 0.950 . S
H208 C182 0.950 . S
H209 C184 0.950 . S
H210 C187 0.950 . S
H211 C189 0.950 . S
C212 C213 1.443 . S
C212 N216 1.376 . S
C212 C250 1.389 . S
C213 C212 1.443 . S
C213 C214 1.340 . S
C213 H253 0.951 . S
C214 C213 1.340 . S
C214 C215 1.439 . S
C214 H254 0.950 . S
C215 C214 1.439 . S
C215 N216 1.374 . S
C215 C249 1.395 . S
N216 C212 1.376 . S
N216 C215 1.374 . S
N216 Co217 2.008 . S
Co217 N216 2.008 . S
Co217 N218 1.995 . S
Co217 N223 2.008 . S
Co217 N228 1.995 . S
Co217 N233 2.282 . S
Co217 N239 2.282 . S
N218 Co217 1.995 . S
N218 C219 1.376 . S
N218 C222 1.383 . S
C219 N218 1.376 . S
C219 C220 1.446 . S
C219 C249 1.391 . S
C220 C219 1.446 . S
C220 C221 1.339 . S
C220 H255 0.949 . S
C221 C220 1.339 . S
C221 C222 1.439 . S
C221 H256 0.950 . S
C222 N218 1.383 . S
C222 C221 1.439 . S
C222 C251 1.392 . S
N223 Co217 2.008 . S
N223 C224 1.376 . S
N223 C227 1.374 . S
C224 N223 1.376 . S
C224 C225 1.443 . S
C224 C251 1.389 . S
C225 C224 1.443 . S
C225 C226 1.340 . S
C225 H257 0.951 . S
C226 C225 1.340 . S
C226 C227 1.439 . S
C226 H258 0.950 . S
C227 N223 1.374 . S
C227 C226 1.439 . S
C227 C252 1.395 . S
N228 Co217 1.995 . S
N228 C229 1.376 . S
N228 C232 1.383 . S
C229 N228 1.376 . S
C229 C230 1.446 . S
C229 C252 1.391 . S
C230 C229 1.446 . S
C230 C231 1.339 . S
C230 H259 0.949 . S
C231 C230 1.339 . S
C231 C232 1.439 . S
C231 H260 0.950 . S
C232 N228 1.383 . S
C232 C231 1.439 . S
C232 C250 1.392 . S
N233 Co217 2.282 . S
N233 C236 1.332 . S
N233 C238 1.332 . S
C234 C235 1.386 . S
C234 C237 1.388 . S
C235 C234 1.386 . S
C235 C236 1.382 . S
C235 H261 0.950 . S
C236 N233 1.332 . S
C236 C235 1.382 . S
C236 H247 0.952 . S
C237 C234 1.388 . S
C237 C238 1.382 . S
C237 H262 0.950 . S
C238 N233 1.332 . S
C238 C237 1.382 . S
C238 H248 0.948 . S
N239 Co217 2.282 . S
N239 C243 1.332 . S
N239 C244 1.332 . S
C240 C241 1.388 . S
C240 C244 1.382 . S
C240 H263 0.950 . S
C241 C240 1.388 . S
C241 C242 1.386 . S
C242 C241 1.386 . S
C242 C243 1.382 . S
C242 H264 0.950 . S
C243 N239 1.332 . S
C243 C242 1.382 . S
C243 H245 0.952 . S
C244 N239 1.332 . S
C244 C240 1.382 . S
C244 H246 0.948 . S
H245 C243 0.952 . S
H246 C244 0.948 . S
H247 C236 0.952 . S
H248 C238 0.948 . S
C249 C215 1.395 . S
C249 C219 1.391 . S
C250 C212 1.389 . S
C250 C232 1.392 . S
C251 C222 1.392 . S
C251 C224 1.389 . S
C252 C227 1.395 . S
C252 C229 1.391 . S
H253 C213 0.951 . S
H254 C214 0.950 . S
H255 C220 0.949 . S
H256 C221 0.950 . S
H257 C225 0.951 . S
H258 C226 0.950 . S
H259 C230 0.949 . S
H260 C231 0.950 . S
H261 C235 0.950 . S
H262 C237 0.950 . S
H263 C240 0.950 . S
H264 C242 0.950 . S
C265 C266 1.443 . S
C265 N269 1.376 . S
C265 C303 1.389 . S
C266 C265 1.443 . S
C266 C267 1.340 . S
C266 H306 0.951 . S
C267 C266 1.340 . S
C267 C268 1.439 . S
C267 H307 0.950 . S
C268 C267 1.439 . S
C268 N269 1.374 . S
C268 C302 1.395 . S
N269 C265 1.376 . S
N269 C268 1.374 . S
N269 Co270 2.008 . S
Co270 N269 2.008 . S
Co270 N271 1.995 . S
Co270 N276 2.008 . S
Co270 N281 1.995 . S
Co270 N286 2.282 . S
Co270 N292 2.282 . S
N271 Co270 1.995 . S
N271 C272 1.376 . S
N271 C275 1.383 . S
C272 N271 1.376 . S
C272 C273 1.446 . S
C272 C302 1.391 . S
C273 C272 1.446 . S
C273 C274 1.339 . S
C273 H308 0.949 . S
C274 C273 1.339 . S
C274 C275 1.439 . S
C274 H309 0.950 . S
C275 N271 1.383 . S
C275 C274 1.439 . S
C275 C304 1.392 . S
N276 Co270 2.008 . S
N276 C277 1.376 . S
N276 C280 1.374 . S
C277 N276 1.376 . S
C277 C278 1.443 . S
C277 C304 1.389 . S
C278 C277 1.443 . S
C278 C279 1.340 . S
C278 H310 0.951 . S
C279 C278 1.340 . S
C279 C280 1.439 . S
C279 H311 0.950 . S
C280 N276 1.374 . S
C280 C279 1.439 . S
C280 C305 1.395 . S
N281 Co270 1.995 . S
N281 C282 1.376 . S
N281 C285 1.383 . S
C282 N281 1.376 . S
C282 C283 1.446 . S
C282 C305 1.391 . S
C283 C282 1.446 . S
C283 C284 1.339 . S
C283 H312 0.949 . S
C284 C283 1.339 . S
C284 C285 1.439 . S
C284 H313 0.950 . S
C285 N281 1.383 . S
C285 C284 1.439 . S
C285 C303 1.392 . S
N286 Co270 2.282 . S
N286 C289 1.332 . S
N286 C291 1.332 . S
C287 C288 1.386 . S
C287 C290 1.388 . S
C288 C287 1.386 . S
C288 C289 1.382 . S
C288 H314 0.950 . S
C289 N286 1.332 . S
C289 C288 1.382 . S
C289 H300 0.952 . S
C290 C287 1.388 . S
C290 C291 1.382 . S
C290 H315 0.950 . S
C291 N286 1.332 . S
C291 C290 1.382 . S
C291 H301 0.948 . S
N292 Co270 2.282 . S
N292 C296 1.332 . S
N292 C297 1.332 . S
C293 C294 1.388 . S
C293 C297 1.382 . S
C293 H316 0.950 . S
C294 C293 1.388 . S
C294 C295 1.386 . S
C295 C294 1.386 . S
C295 C296 1.382 . S
C295 H317 0.950 . S
C296 N292 1.332 . S
C296 C295 1.382 . S
C296 H298 0.952 . S
C297 N292 1.332 . S
C297 C293 1.382 . S
C297 H299 0.948 . S
H298 C296 0.952 . S
H299 C297 0.948 . S
H300 C289 0.952 . S
H301 C291 0.948 . S
C302 C268 1.395 . S
C302 C272 1.391 . S
C303 C265 1.389 . S
C303 C285 1.392 . S
C304 C275 1.392 . S
C304 C277 1.389 . S
C305 C280 1.395 . S
C305 C282 1.391 . S
H306 C266 0.951 . S
H307 C267 0.950 . S
H308 C273 0.949 . S
H309 C274 0.950 . S
H310 C278 0.951 . S
H311 C279 0.950 . S
H312 C283 0.949 . S
H313 C284 0.950 . S
H314 C288 0.950 . S
H315 C290 0.950 . S
H316 C293 0.950 . S
H317 C295 0.950 . S
C318 C319 1.443 . S
C318 N322 1.376 . S
C318 C356 1.389 . S
C319 C318 1.443 . S
C319 C320 1.340 . S
C319 H359 0.951 . S
C320 C319 1.340 . S
C320 C321 1.439 . S
C320 H360 0.950 . S
C321 C320 1.439 . S
C321 N322 1.374 . S
C321 C355 1.395 . S
N322 C318 1.376 . S
N322 C321 1.374 . S
N322 Co323 2.008 . S
Co323 N322 2.008 . S
Co323 N324 1.995 . S
Co323 N329 2.008 . S
Co323 N334 1.995 . S
Co323 N339 2.282 . S
Co323 N345 2.282 . S
N324 Co323 1.995 . S
N324 C325 1.376 . S
N324 C328 1.383 . S
C325 N324 1.376 . S
C325 C326 1.446 . S
C325 C355 1.391 . S
C326 C325 1.446 . S
C326 C327 1.339 . S
C326 H361 0.949 . S
C327 C326 1.339 . S
C327 C328 1.439 . S
C327 H362 0.950 . S
C328 N324 1.383 . S
C328 C327 1.439 . S
C328 C357 1.392 . S
N329 Co323 2.008 . S
N329 C330 1.376 . S
N329 C333 1.374 . S
C330 N329 1.376 . S
C330 C331 1.443 . S
C330 C357 1.389 . S
C331 C330 1.443 . S
C331 C332 1.340 . S
C331 H363 0.951 . S
C332 C331 1.340 . S
C332 C333 1.439 . S
C332 H364 0.950 . S
C333 N329 1.374 . S
C333 C332 1.439 . S
C333 C358 1.395 . S
N334 Co323 1.995 . S
N334 C335 1.376 . S
N334 C338 1.383 . S
C335 N334 1.376 . S
C335 C336 1.446 . S
C335 C358 1.391 . S
C336 C335 1.446 . S
C336 C337 1.339 . S
C336 H365 0.949 . S
C337 C336 1.339 . S
C337 C338 1.439 . S
C337 H366 0.950 . S
C338 N334 1.383 . S
C338 C337 1.439 . S
C338 C356 1.392 . S
N339 Co323 2.282 . S
N339 C342 1.332 . S
N339 C344 1.332 . S
C340 C341 1.386 . S
C340 C343 1.388 . S
C341 C340 1.386 . S
C341 C342 1.382 . S
C341 H367 0.950 . S
C342 N339 1.332 . S
C342 C341 1.382 . S
C342 H353 0.952 . S
C343 C340 1.388 . S
C343 C344 1.382 . S
C343 H368 0.950 . S
C344 N339 1.332 . S
C344 C343 1.382 . S
C344 H354 0.948 . S
N345 Co323 2.282 . S
N345 C349 1.332 . S
N345 C350 1.332 . S
C346 C347 1.388 . S
C346 C350 1.382 . S
C346 H369 0.950 . S
C347 C346 1.388 . S
C347 C348 1.386 . S
C348 C347 1.386 . S
C348 C349 1.382 . S
C348 H370 0.950 . S
C349 N345 1.332 . S
C349 C348 1.382 . S
C349 H351 0.952 . S
C350 N345 1.332 . S
C350 C346 1.382 . S
C350 H352 0.948 . S
H351 C349 0.952 . S
H352 C350 0.948 . S
H353 C342 0.952 . S
H354 C344 0.948 . S
C355 C321 1.395 . S
C355 C325 1.391 . S
C356 C318 1.389 . S
C356 C338 1.392 . S
C357 C328 1.392 . S
C357 C330 1.389 . S
C358 C333 1.395 . S
C358 C335 1.391 . S
H359 C319 0.951 . S
H360 C320 0.950 . S
H361 C326 0.949 . S
H362 C327 0.950 . S
H363 C331 0.951 . S
H364 C332 0.950 . S
H365 C336 0.949 . S
H366 C337 0.950 . S
H367 C341 0.950 . S
H368 C343 0.950 . S
H369 C346 0.950 . S
H370 C348 0.950 . S
C371 C372 1.443 . S
C371 N375 1.376 . S
C371 C409 1.389 . S
C372 C371 1.443 . S
C372 C373 1.340 . S
C372 H412 0.951 . S
C373 C372 1.340 . S
C373 C374 1.439 . S
C373 H413 0.950 . S
C374 C373 1.439 . S
C374 N375 1.374 . S
C374 C408 1.395 . S
N375 C371 1.376 . S
N375 C374 1.374 . S
N375 Co376 2.008 . S
Co376 N375 2.008 . S
Co376 N377 1.995 . S
Co376 N382 2.008 . S
Co376 N387 1.995 . S
Co376 N392 2.282 . S
Co376 N398 2.282 . S
N377 Co376 1.995 . S
N377 C378 1.376 . S
N377 C381 1.383 . S
C378 N377 1.376 . S
C378 C379 1.446 . S
C378 C408 1.391 . S
C379 C378 1.446 . S
C379 C380 1.339 . S
C379 H414 0.949 . S
C380 C379 1.339 . S
C380 C381 1.439 . S
C380 H415 0.950 . S
C381 N377 1.383 . S
C381 C380 1.439 . S
C381 C410 1.392 . S
N382 Co376 2.008 . S
N382 C383 1.376 . S
N382 C386 1.374 . S
C383 N382 1.376 . S
C383 C384 1.443 . S
C383 C410 1.389 . S
C384 C383 1.443 . S
C384 C385 1.340 . S
C384 H416 0.951 . S
C385 C384 1.340 . S
C385 C386 1.439 . S
C385 H417 0.950 . S
C386 N382 1.374 . S
C386 C385 1.439 . S
C386 C411 1.395 . S
N387 Co376 1.995 . S
N387 C388 1.376 . S
N387 C391 1.383 . S
C388 N387 1.376 . S
C388 C389 1.446 . S
C388 C411 1.391 . S
C389 C388 1.446 . S
C389 C390 1.339 . S
C389 H418 0.949 . S
C390 C389 1.339 . S
C390 C391 1.439 . S
C390 H419 0.950 . S
C391 N387 1.383 . S
C391 C390 1.439 . S
C391 C409 1.392 . S
N392 Co376 2.282 . S
N392 C395 1.332 . S
N392 C397 1.332 . S
C393 C394 1.386 . S
C393 C396 1.388 . S
C394 C393 1.386 . S
C394 C395 1.382 . S
C394 H420 0.950 . S
C395 N392 1.332 . S
C395 C394 1.382 . S
C395 H406 0.952 . S
C396 C393 1.388 . S
C396 C397 1.382 . S
C396 H421 0.950 . S
C397 N392 1.332 . S
C397 C396 1.382 . S
C397 H407 0.948 . S
N398 Co376 2.282 . S
N398 C402 1.332 . S
N398 C403 1.332 . S
C399 C400 1.388 . S
C399 C403 1.382 . S
C399 H422 0.950 . S
C400 C399 1.388 . S
C400 C401 1.386 . S
C401 C400 1.386 . S
C401 C402 1.382 . S
C401 H423 0.950 . S
C402 N398 1.332 . S
C402 C401 1.382 . S
C402 H404 0.952 . S
C403 N398 1.332 . S
C403 C399 1.382 . S
C403 H405 0.948 . S
H404 C402 0.952 . S
H405 C403 0.948 . S
H406 C395 0.952 . S
H407 C397 0.948 . S
C408 C374 1.395 . S
C408 C378 1.391 . S
C409 C371 1.389 . S
C409 C391 1.392 . S
C410 C381 1.392 . S
C410 C383 1.389 . S
C411 C386 1.395 . S
C411 C388 1.391 . S
H412 C372 0.951 . S
H413 C373 0.950 . S
H414 C379 0.949 . S
H415 C380 0.950 . S
H416 C384 0.951 . S
H417 C385 0.950 . S
H418 C389 0.949 . S
H419 C390 0.950 . S
H420 C394 0.950 . S
H421 C396 0.950 . S
H422 C399 0.950 . S
H423 C401 0.950 . S
C424 C425 1.443 . S
C424 N428 1.376 . S
C424 C462 1.389 . S
C425 C424 1.443 . S
C425 C426 1.340 . S
C425 H465 0.951 . S
C426 C425 1.340 . S
C426 C427 1.439 . S
C426 H466 0.950 . S
C427 C426 1.439 . S
C427 N428 1.374 . S
C427 C461 1.395 . S
N428 C424 1.376 . S
N428 C427 1.374 . S
N428 Co429 2.008 . S
Co429 N428 2.008 . S
Co429 N430 1.995 . S
Co429 N435 2.008 . S
Co429 N440 1.995 . S
Co429 N445 2.282 . S
Co429 N451 2.282 . S
N430 Co429 1.995 . S
N430 C431 1.376 . S
N430 C434 1.383 . S
C431 N430 1.376 . S
C431 C432 1.446 . S
C431 C461 1.391 . S
C432 C431 1.446 . S
C432 C433 1.339 . S
C432 H467 0.949 . S
C433 C432 1.339 . S
C433 C434 1.439 . S
C433 H468 0.950 . S
C434 N430 1.383 . S
C434 C433 1.439 . S
C434 C463 1.392 . S
N435 Co429 2.008 . S
N435 C436 1.376 . S
N435 C439 1.374 . S
C436 N435 1.376 . S
C436 C437 1.443 . S
C436 C463 1.389 . S
C437 C436 1.443 . S
C437 C438 1.340 . S
C437 H469 0.951 . S
C438 C437 1.340 . S
C438 C439 1.439 . S
C438 H470 0.950 . S
C439 N435 1.374 . S
C439 C438 1.439 . S
C439 C464 1.395 . S
N440 Co429 1.995 . S
N440 C441 1.376 . S
N440 C444 1.383 . S
C441 N440 1.376 . S
C441 C442 1.446 . S
C441 C464 1.391 . S
C442 C441 1.446 . S
C442 C443 1.339 . S
C442 H471 0.949 . S
C443 C442 1.339 . S
C443 C444 1.439 . S
C443 H472 0.950 . S
C444 N440 1.383 . S
C444 C443 1.439 . S
C444 C462 1.392 . S
N445 Co429 2.282 . S
N445 C448 1.332 . S
N445 C450 1.332 . S
C446 C447 1.386 . S
C446 C449 1.388 . S
C447 C446 1.386 . S
C447 C448 1.382 . S
C447 H473 0.950 . S
C448 N445 1.332 . S
C448 C447 1.382 . S
C448 H459 0.952 . S
C449 C446 1.388 . S
C449 C450 1.382 . S
C449 H474 0.950 . S
C450 N445 1.332 . S
C450 C449 1.382 . S
C450 H460 0.948 . S
N451 Co429 2.282 . S
N451 C455 1.332 . S
N451 C456 1.332 . S
C452 C453 1.388 . S
C452 C456 1.382 . S
C452 H475 0.950 . S
C453 C452 1.388 . S
C453 C454 1.386 . S
C454 C453 1.386 . S
C454 C455 1.382 . S
C454 H476 0.950 . S
C455 N451 1.332 . S
C455 C454 1.382 . S
C455 H457 0.952 . S
C456 N451 1.332 . S
C456 C452 1.382 . S
C456 H458 0.948 . S
H457 C455 0.952 . S
H458 C456 0.948 . S
H459 C448 0.952 . S
H460 C450 0.948 . S
C461 C427 1.395 . S
C461 C431 1.391 . S
C462 C424 1.389 . S
C462 C444 1.392 . S
C463 C434 1.392 . S
C463 C436 1.389 . S
C464 C439 1.395 . S
C464 C441 1.391 . S
H465 C425 0.951 . S
H466 C426 0.950 . S
H467 C432 0.949 . S
H468 C433 0.950 . S
H469 C437 0.951 . S
H470 C438 0.950 . S
H471 C442 0.949 . S
H472 C443 0.950 . S
H473 C447 0.950 . S
H474 C449 0.950 . S
H475 C452 0.950 . S
H476 C454 0.950 . S
C477 C478 1.443 . S
C477 N481 1.376 . S
C477 C515 1.389 . S
C478 C477 1.443 . S
C478 C479 1.340 . S
C478 H518 0.951 . S
C479 C478 1.340 . S
C479 C480 1.439 . S
C479 H519 0.950 . S
C480 C479 1.439 . S
C480 N481 1.374 . S
C480 C514 1.395 . S
N481 C477 1.376 . S
N481 C480 1.374 . S
N481 Co482 2.008 . S
Co482 N481 2.008 . S
Co482 N483 1.995 . S
Co482 N488 2.008 . S
Co482 N493 1.995 . S
Co482 N498 2.282 . S
Co482 N504 2.282 . S
N483 Co482 1.995 . S
N483 C484 1.376 . S
N483 C487 1.383 . S
C484 N483 1.376 . S
C484 C485 1.446 . S
C484 C514 1.391 . S
C485 C484 1.446 . S
C485 C486 1.339 . S
C485 H520 0.949 . S
C486 C485 1.339 . S
C486 C487 1.439 . S
C486 H521 0.950 . S
C487 N483 1.383 . S
C487 C486 1.439 . S
C487 C516 1.392 . S
N488 Co482 2.008 . S
N488 C489 1.376 . S
N488 C492 1.374 . S
C489 N488 1.376 . S
C489 C490 1.443 . S
C489 C516 1.389 . S
C490 C489 1.443 . S
C490 C491 1.340 . S
C490 H522 0.951 . S
C491 C490 1.340 . S
C491 C492 1.439 . S
C491 H523 0.950 . S
C492 N488 1.374 . S
C492 C491 1.439 . S
C492 C517 1.395 . S
N493 Co482 1.995 . S
N493 C494 1.376 . S
N493 C497 1.383 . S
C494 N493 1.376 . S
C494 C495 1.446 . S
C494 C517 1.391 . S
C495 C494 1.446 . S
C495 C496 1.339 . S
C495 H524 0.949 . S
C496 C495 1.339 . S
C496 C497 1.439 . S
C496 H525 0.950 . S
C497 N493 1.383 . S
C497 C496 1.439 . S
C497 C515 1.392 . S
N498 Co482 2.282 . S
N498 C501 1.332 . S
N498 C503 1.332 . S
C499 C500 1.386 . S
C499 C502 1.388 . S
C500 C499 1.386 . S
C500 C501 1.382 . S
C500 H526 0.950 . S
C501 N498 1.332 . S
C501 C500 1.382 . S
C501 H512 0.952 . S
C502 C499 1.388 . S
C502 C503 1.382 . S
C502 H527 0.950 . S
C503 N498 1.332 . S
C503 C502 1.382 . S
C503 H513 0.948 . S
N504 Co482 2.282 . S
N504 C508 1.332 . S
N504 C509 1.332 . S
C505 C506 1.388 . S
C505 C509 1.382 . S
C505 H528 0.950 . S
C506 C505 1.388 . S
C506 C507 1.386 . S
C507 C506 1.386 . S
C507 C508 1.382 . S
C507 H529 0.950 . S
C508 N504 1.332 . S
C508 C507 1.382 . S
C508 H510 0.952 . S
C509 N504 1.332 . S
C509 C505 1.382 . S
C509 H511 0.948 . S
H510 C508 0.952 . S
H511 C509 0.948 . S
H512 C501 0.952 . S
H513 C503 0.948 . S
C514 C480 1.395 . S
C514 C484 1.391 . S
C515 C477 1.389 . S
C515 C497 1.392 . S
C516 C487 1.392 . S
C516 C489 1.389 . S
C517 C492 1.395 . S
C517 C494 1.391 . S
H518 C478 0.951 . S
H519 C479 0.950 . S
H520 C485 0.949 . S
H521 C486 0.950 . S
H522 C490 0.951 . S
H523 C491 0.950 . S
H524 C495 0.949 . S
H525 C496 0.950 . S
H526 C500 0.950 . S
H527 C502 0.950 . S
H528 C505 0.950 . S
H529 C507 0.950 . S
C530 C531 1.443 . S
C530 N534 1.376 . S
C530 C568 1.389 . S
C531 C530 1.443 . S
C531 C532 1.340 . S
C531 H571 0.951 . S
C532 C531 1.340 . S
C532 C533 1.439 . S
C532 H572 0.950 . S
C533 C532 1.439 . S
C533 N534 1.374 . S
C533 C567 1.395 . S
N534 C530 1.376 . S
N534 C533 1.374 . S
N534 Co535 2.008 . S
Co535 N534 2.008 . S
Co535 N536 1.995 . S
Co535 N541 2.008 . S
Co535 N546 1.995 . S
Co535 N551 2.282 . S
Co535 N557 2.282 . S
N536 Co535 1.995 . S
N536 C537 1.376 . S
N536 C540 1.383 . S
C537 N536 1.376 . S
C537 C538 1.446 . S
C537 C567 1.391 . S
C538 C537 1.446 . S
C538 C539 1.339 . S
C538 H573 0.949 . S
C539 C538 1.339 . S
C539 C540 1.439 . S
C539 H574 0.950 . S
C540 N536 1.383 . S
C540 C539 1.439 . S
C540 C569 1.392 . S
N541 Co535 2.008 . S
N541 C542 1.376 . S
N541 C545 1.374 . S
C542 N541 1.376 . S
C542 C543 1.443 . S
C542 C569 1.389 . S
C543 C542 1.443 . S
C543 C544 1.340 . S
C543 H575 0.951 . S
C544 C543 1.340 . S
C544 C545 1.439 . S
C544 H576 0.950 . S
C545 N541 1.374 . S
C545 C544 1.439 . S
C545 C570 1.395 . S
N546 Co535 1.995 . S
N546 C547 1.376 . S
N546 C550 1.383 . S
C547 N546 1.376 . S
C547 C548 1.446 . S
C547 C570 1.391 . S
C548 C547 1.446 . S
C548 C549 1.339 . S
C548 H577 0.949 . S
C549 C548 1.339 . S
C549 C550 1.439 . S
C549 H578 0.950 . S
C550 N546 1.383 . S
C550 C549 1.439 . S
C550 C568 1.392 . S
N551 Co535 2.282 . S
N551 C554 1.332 . S
N551 C556 1.332 . S
C552 C553 1.386 . S
C552 C555 1.388 . S
C553 C552 1.386 . S
C553 C554 1.382 . S
C553 H579 0.950 . S
C554 N551 1.332 . S
C554 C553 1.382 . S
C554 H565 0.952 . S
C555 C552 1.388 . S
C555 C556 1.382 . S
C555 H580 0.950 . S
C556 N551 1.332 . S
C556 C555 1.382 . S
C556 H566 0.948 . S
N557 Co535 2.282 . S
N557 C561 1.332 . S
N557 C562 1.332 . S
C558 C559 1.388 . S
C558 C562 1.382 . S
C558 H581 0.950 . S
C559 C558 1.388 . S
C559 C560 1.386 . S
C560 C559 1.386 . S
C560 C561 1.382 . S
C560 H582 0.950 . S
C561 N557 1.332 . S
C561 C560 1.382 . S
C561 H563 0.952 . S
C562 N557 1.332 . S
C562 C558 1.382 . S
C562 H564 0.948 . S
H563 C561 0.952 . S
H564 C562 0.948 . S
H565 C554 0.952 . S
H566 C556 0.948 . S
C567 C533 1.395 . S
C567 C537 1.391 . S
C568 C530 1.389 . S
C568 C550 1.392 . S
C569 C540 1.392 . S
C569 C542 1.389 . S
C570 C545 1.395 . S
C570 C547 1.391 . S
H571 C531 0.951 . S
H572 C532 0.950 . S
H573 C538 0.949 . S
H574 C539 0.950 . S
H575 C543 0.951 . S
H576 C544 0.950 . S
H577 C548 0.949 . S
H578 C549 0.950 . S
H579 C553 0.950 . S
H580 C555 0.950 . S
H581 C558 0.950 . S
H582 C560 0.950 . S
C583 C584 1.443 . S
C583 N587 1.376 . S
C583 C621 1.389 . S
C584 C583 1.443 . S
C584 C585 1.340 . S
C584 H624 0.951 . S
C585 C584 1.340 . S
C585 C586 1.439 . S
C585 H625 0.950 . S
C586 C585 1.439 . S
C586 N587 1.374 . S
C586 C620 1.395 . S
N587 C583 1.376 . S
N587 C586 1.374 . S
N587 Co588 2.008 . S
Co588 N587 2.008 . S
Co588 N589 1.995 . S
Co588 N594 2.008 . S
Co588 N599 1.995 . S
Co588 N604 2.282 . S
Co588 N610 2.282 . S
N589 Co588 1.995 . S
N589 C590 1.376 . S
N589 C593 1.383 . S
C590 N589 1.376 . S
C590 C591 1.446 . S
C590 C620 1.391 . S
C591 C590 1.446 . S
C591 C592 1.339 . S
C591 H626 0.949 . S
C592 C591 1.339 . S
C592 C593 1.439 . S
C592 H627 0.950 . S
C593 N589 1.383 . S
C593 C592 1.439 . S
C593 C622 1.392 . S
N594 Co588 2.008 . S
N594 C595 1.376 . S
N594 C598 1.374 . S
C595 N594 1.376 . S
C595 C596 1.443 . S
C595 C622 1.389 . S
C596 C595 1.443 . S
C596 C597 1.340 . S
C596 H628 0.951 . S
C597 C596 1.340 . S
C597 C598 1.439 . S
C597 H629 0.950 . S
C598 N594 1.374 . S
C598 C597 1.439 . S
C598 C623 1.395 . S
N599 Co588 1.995 . S
N599 C600 1.376 . S
N599 C603 1.383 . S
C600 N599 1.376 . S
C600 C601 1.446 . S
C600 C623 1.391 . S
C601 C600 1.446 . S
C601 C602 1.339 . S
C601 H630 0.949 . S
C602 C601 1.339 . S
C602 C603 1.439 . S
C602 H631 0.950 . S
C603 N599 1.383 . S
C603 C602 1.439 . S
C603 C621 1.392 . S
N604 Co588 2.282 . S
N604 C607 1.332 . S
N604 C609 1.332 . S
C605 C606 1.386 . S
C605 C608 1.388 . S
C606 C605 1.386 . S
C606 C607 1.382 . S
C606 H632 0.950 . S
C607 N604 1.332 . S
C607 C606 1.382 . S
C607 H618 0.952 . S
C608 C605 1.388 . S
C608 C609 1.382 . S
C608 H633 0.950 . S
C609 N604 1.332 . S
C609 C608 1.382 . S
C609 H619 0.948 . S
N610 Co588 2.282 . S
N610 C614 1.332 . S
N610 C615 1.332 . S
C611 C612 1.388 . S
C611 C615 1.382 . S
C611 H634 0.950 . S
C612 C611 1.388 . S
C612 C613 1.386 . S
C613 C612 1.386 . S
C613 C614 1.382 . S
C613 H635 0.950 . S
C614 N610 1.332 . S
C614 C613 1.382 . S
C614 H616 0.952 . S
C615 N610 1.332 . S
C615 C611 1.382 . S
C615 H617 0.948 . S
H616 C614 0.952 . S
H617 C615 0.948 . S
H618 C607 0.952 . S
H619 C609 0.948 . S
C620 C586 1.395 . S
C620 C590 1.391 . S
C621 C583 1.389 . S
C621 C603 1.392 . S
C622 C593 1.392 . S
C622 C595 1.389 . S
C623 C598 1.395 . S
C623 C600 1.391 . S
H624 C584 0.951 . S
H625 C585 0.950 . S
H626 C591 0.949 . S
H627 C592 0.950 . S
H628 C596 0.951 . S
H629 C597 0.950 . S
H630 C601 0.949 . S
H631 C602 0.950 . S
H632 C606 0.950 . S
H633 C608 0.950 . S
H634 C611 0.950 . S
H635 C613 0.950 . S
C636 C637 1.443 . S
C636 N640 1.376 . S
C636 C674 1.389 . S
C637 C636 1.443 . S
C637 C638 1.340 . S
C637 H677 0.951 . S
C638 C637 1.340 . S
C638 C639 1.439 . S
C638 H678 0.950 . S
C639 C638 1.439 . S
C639 N640 1.374 . S
C639 C673 1.395 . S
N640 C636 1.376 . S
N640 C639 1.374 . S
N640 Co641 2.008 . S
Co641 N640 2.008 . S
Co641 N642 1.995 . S
Co641 N647 2.008 . S
Co641 N652 1.995 . S
Co641 N657 2.282 . S
Co641 N663 2.282 . S
N642 Co641 1.995 . S
N642 C643 1.376 . S
N642 C646 1.383 . S
C643 N642 1.376 . S
C643 C644 1.446 . S
C643 C673 1.391 . S
C644 C643 1.446 . S
C644 C645 1.339 . S
C644 H679 0.949 . S
C645 C644 1.339 . S
C645 C646 1.439 . S
C645 H680 0.950 . S
C646 N642 1.383 . S
C646 C645 1.439 . S
C646 C675 1.392 . S
N647 Co641 2.008 . S
N647 C648 1.376 . S
N647 C651 1.374 . S
C648 N647 1.376 . S
C648 C649 1.443 . S
C648 C675 1.389 . S
C649 C648 1.443 . S
C649 C650 1.340 . S
C649 H681 0.951 . S
C650 C649 1.340 . S
C650 C651 1.439 . S
C650 H682 0.950 . S
C651 N647 1.374 . S
C651 C650 1.439 . S
C651 C676 1.395 . S
N652 Co641 1.995 . S
N652 C653 1.376 . S
N652 C656 1.383 . S
C653 N652 1.376 . S
C653 C654 1.446 . S
C653 C676 1.391 . S
C654 C653 1.446 . S
C654 C655 1.339 . S
C654 H683 0.949 . S
C655 C654 1.339 . S
C655 C656 1.439 . S
C655 H684 0.950 . S
C656 N652 1.383 . S
C656 C655 1.439 . S
C656 C674 1.392 . S
N657 Co641 2.282 . S
N657 C660 1.332 . S
N657 C662 1.332 . S
C658 C659 1.386 . S
C658 C661 1.388 . S
C659 C658 1.386 . S
C659 C660 1.382 . S
C659 H685 0.950 . S
C660 N657 1.332 . S
C660 C659 1.382 . S
C660 H671 0.952 . S
C661 C658 1.388 . S
C661 C662 1.382 . S
C661 H686 0.950 . S
C662 N657 1.332 . S
C662 C661 1.382 . S
C662 H672 0.948 . S
N663 Co641 2.282 . S
N663 C667 1.332 . S
N663 C668 1.332 . S
C664 C665 1.388 . S
C664 C668 1.382 . S
C664 H687 0.950 . S
C665 C664 1.388 . S
C665 C666 1.386 . S
C666 C665 1.386 . S
C666 C667 1.382 . S
C666 H688 0.950 . S
C667 N663 1.332 . S
C667 C666 1.382 . S
C667 H669 0.952 . S
C668 N663 1.332 . S
C668 C664 1.382 . S
C668 H670 0.948 . S
H669 C667 0.952 . S
H670 C668 0.948 . S
H671 C660 0.952 . S
H672 C662 0.948 . S
C673 C639 1.395 . S
C673 C643 1.391 . S
C674 C636 1.389 . S
C674 C656 1.392 . S
C675 C646 1.392 . S
C675 C648 1.389 . S
C676 C651 1.395 . S
C676 C653 1.391 . S
H677 C637 0.951 . S
H678 C638 0.950 . S
H679 C644 0.949 . S
H680 C645 0.950 . S
H681 C649 0.951 . S
H682 C650 0.950 . S
H683 C654 0.949 . S
H684 C655 0.950 . S
H685 C659 0.950 . S
H686 C661 0.950 . S
H687 C664 0.950 . S
H688 C666 0.950 . S
C689 C690 1.443 . S
C689 N693 1.376 . S
C689 C727 1.389 . S
C690 C689 1.443 . S
C690 C691 1.340 . S
C690 H730 0.951 . S
C691 C690 1.340 . S
C691 C692 1.439 . S
C691 H731 0.950 . S
C692 C691 1.439 . S
C692 N693 1.374 . S
C692 C726 1.395 . S
N693 C689 1.376 . S
N693 C692 1.374 . S
N693 Co694 2.008 . S
Co694 N693 2.008 . S
Co694 N695 1.995 . S
Co694 N700 2.008 . S
Co694 N705 1.995 . S
Co694 N710 2.282 . S
Co694 N716 2.282 . S
N695 Co694 1.995 . S
N695 C696 1.376 . S
N695 C699 1.383 . S
C696 N695 1.376 . S
C696 C697 1.446 . S
C696 C726 1.391 . S
C697 C696 1.446 . S
C697 C698 1.339 . S
C697 H732 0.949 . S
C698 C697 1.339 . S
C698 C699 1.439 . S
C698 H733 0.950 . S
C699 N695 1.383 . S
C699 C698 1.439 . S
C699 C728 1.392 . S
N700 Co694 2.008 . S
N700 C701 1.376 . S
N700 C704 1.374 . S
C701 N700 1.376 . S
C701 C702 1.443 . S
C701 C728 1.389 . S
C702 C701 1.443 . S
C702 C703 1.340 . S
C702 H734 0.951 . S
C703 C702 1.340 . S
C703 C704 1.439 . S
C703 H735 0.950 . S
C704 N700 1.374 . S
C704 C703 1.439 . S
C704 C729 1.395 . S
N705 Co694 1.995 . S
N705 C706 1.376 . S
N705 C709 1.383 . S
C706 N705 1.376 . S
C706 C707 1.446 . S
C706 C729 1.391 . S
C707 C706 1.446 . S
C707 C708 1.339 . S
C707 H736 0.949 . S
C708 C707 1.339 . S
C708 C709 1.439 . S
C708 H737 0.950 . S
C709 N705 1.383 . S
C709 C708 1.439 . S
C709 C727 1.392 . S
N710 Co694 2.282 . S
N710 C713 1.332 . S
N710 C715 1.332 . S
C711 C712 1.386 . S
C711 C714 1.388 . S
C712 C711 1.386 . S
C712 C713 1.382 . S
C712 H738 0.950 . S
C713 N710 1.332 . S
C713 C712 1.382 . S
C713 H724 0.952 . S
C714 C711 1.388 . S
C714 C715 1.382 . S
C714 H739 0.950 . S
C715 N710 1.332 . S
C715 C714 1.382 . S
C715 H725 0.948 . S
N716 Co694 2.282 . S
N716 C720 1.332 . S
N716 C721 1.332 . S
C717 C718 1.388 . S
C717 C721 1.382 . S
C717 H740 0.950 . S
C718 C717 1.388 . S
C718 C719 1.386 . S
C719 C718 1.386 . S
C719 C720 1.382 . S
C719 H741 0.950 . S
C720 N716 1.332 . S
C720 C719 1.382 . S
C720 H722 0.952 . S
C721 N716 1.332 . S
C721 C717 1.382 . S
C721 H723 0.948 . S
H722 C720 0.952 . S
H723 C721 0.948 . S
H724 C713 0.952 . S
H725 C715 0.948 . S
C726 C692 1.395 . S
C726 C696 1.391 . S
C727 C689 1.389 . S
C727 C709 1.392 . S
C728 C699 1.392 . S
C728 C701 1.389 . S
C729 C704 1.395 . S
C729 C706 1.391 . S
H730 C690 0.951 . S
H731 C691 0.950 . S
H732 C697 0.949 . S
H733 C698 0.950 . S
H734 C702 0.951 . S
H735 C703 0.950 . S
H736 C707 0.949 . S
H737 C708 0.950 . S
H738 C712 0.950 . S
H739 C714 0.950 . S
H740 C717 0.950 . S
H741 C719 0.950 . S
C742 C743 1.443 . S
C742 N746 1.376 . S
C742 C780 1.389 . S
C743 C742 1.443 . S
C743 C744 1.340 . S
C743 H783 0.951 . S
C744 C743 1.340 . S
C744 C745 1.439 . S
C744 H784 0.950 . S
C745 C744 1.439 . S
C745 N746 1.374 . S
C745 C779 1.395 . S
N746 C742 1.376 . S
N746 C745 1.374 . S
N746 Co747 2.008 . S
Co747 N746 2.008 . S
Co747 N748 1.995 . S
Co747 N753 2.008 . S
Co747 N758 1.995 . S
Co747 N763 2.282 . S
Co747 N769 2.282 . S
N748 Co747 1.995 . S
N748 C749 1.376 . S
N748 C752 1.383 . S
C749 N748 1.376 . S
C749 C750 1.446 . S
C749 C779 1.391 . S
C750 C749 1.446 . S
C750 C751 1.339 . S
C750 H785 0.949 . S
C751 C750 1.339 . S
C751 C752 1.439 . S
C751 H786 0.950 . S
C752 N748 1.383 . S
C752 C751 1.439 . S
C752 C781 1.392 . S
N753 Co747 2.008 . S
N753 C754 1.376 . S
N753 C757 1.374 . S
C754 N753 1.376 . S
C754 C755 1.443 . S
C754 C781 1.389 . S
C755 C754 1.443 . S
C755 C756 1.340 . S
C755 H787 0.951 . S
C756 C755 1.340 . S
C756 C757 1.439 . S
C756 H788 0.950 . S
C757 N753 1.374 . S
C757 C756 1.439 . S
C757 C782 1.395 . S
N758 Co747 1.995 . S
N758 C759 1.376 . S
N758 C762 1.383 . S
C759 N758 1.376 . S
C759 C760 1.446 . S
C759 C782 1.391 . S
C760 C759 1.446 . S
C760 C761 1.339 . S
C760 H789 0.949 . S
C761 C760 1.339 . S
C761 C762 1.439 . S
C761 H790 0.950 . S
C762 N758 1.383 . S
C762 C761 1.439 . S
C762 C780 1.392 . S
N763 Co747 2.282 . S
N763 C766 1.332 . S
N763 C768 1.332 . S
C764 C765 1.386 . S
C764 C767 1.388 . S
C765 C764 1.386 . S
C765 C766 1.382 . S
C765 H791 0.950 . S
C766 N763 1.332 . S
C766 C765 1.382 . S
C766 H777 0.952 . S
C767 C764 1.388 . S
C767 C768 1.382 . S
C767 H792 0.950 . S
C768 N763 1.332 . S
C768 C767 1.382 . S
C768 H778 0.948 . S
N769 Co747 2.282 . S
N769 C773 1.332 . S
N769 C774 1.332 . S
C770 C771 1.388 . S
C770 C774 1.382 . S
C770 H793 0.950 . S
C771 C770 1.388 . S
C771 C772 1.386 . S
C772 C771 1.386 . S
C772 C773 1.382 . S
C772 H794 0.950 . S
C773 N769 1.332 . S
C773 C772 1.382 . S
C773 H775 0.952 . S
C774 N769 1.332 . S
C774 C770 1.382 . S
C774 H776 0.948 . S
H775 C773 0.952 . S
H776 C774 0.948 . S
H777 C766 0.952 . S
H778 C768 0.948 . S
C779 C745 1.395 . S
C779 C749 1.391 . S
C780 C742 1.389 . S
C780 C762 1.392 . S
C781 C752 1.392 . S
C781 C754 1.389 . S
C782 C757 1.395 . S
C782 C759 1.391 . S
H783 C743 0.951 . S
H784 C744 0.950 . S
H785 C750 0.949 . S
H786 C751 0.950 . S
H787 C755 0.951 . S
H788 C756 0.950 . S
H789 C760 0.949 . S
H790 C761 0.950 . S
H791 C765 0.950 . S
H792 C767 0.950 . S
H793 C770 0.950 . S
H794 C772 0.950 . S
C795 C796 1.443 . S
C795 N799 1.376 . S
C795 C833 1.389 . S
C796 C795 1.443 . S
C796 C797 1.340 . S
C796 H836 0.951 . S
C797 C796 1.340 . S
C797 C798 1.439 . S
C797 H837 0.950 . S
C798 C797 1.439 . S
C798 N799 1.374 . S
C798 C832 1.395 . S
N799 C795 1.376 . S
N799 C798 1.374 . S
N799 Co800 2.008 . S
Co800 N799 2.008 . S
Co800 N801 1.995 . S
Co800 N806 2.008 . S
Co800 N811 1.995 . S
Co800 N816 2.282 . S
Co800 N822 2.282 . S
N801 Co800 1.995 . S
N801 C802 1.376 . S
N801 C805 1.383 . S
C802 N801 1.376 . S
C802 C803 1.446 . S
C802 C832 1.391 . S
C803 C802 1.446 . S
C803 C804 1.339 . S
C803 H838 0.949 . S
C804 C803 1.339 . S
C804 C805 1.439 . S
C804 H839 0.950 . S
C805 N801 1.383 . S
C805 C804 1.439 . S
C805 C834 1.392 . S
N806 Co800 2.008 . S
N806 C807 1.376 . S
N806 C810 1.374 . S
C807 N806 1.376 . S
C807 C808 1.443 . S
C807 C834 1.389 . S
C808 C807 1.443 . S
C808 C809 1.340 . S
C808 H840 0.951 . S
C809 C808 1.340 . S
C809 C810 1.439 . S
C809 H841 0.950 . S
C810 N806 1.374 . S
C810 C809 1.439 . S
C810 C835 1.395 . S
N811 Co800 1.995 . S
N811 C812 1.376 . S
N811 C815 1.383 . S
C812 N811 1.376 . S
C812 C813 1.446 . S
C812 C835 1.391 . S
C813 C812 1.446 . S
C813 C814 1.339 . S
C813 H842 0.949 . S
C814 C813 1.339 . S
C814 C815 1.439 . S
C814 H843 0.950 . S
C815 N811 1.383 . S
C815 C814 1.439 . S
C815 C833 1.392 . S
N816 Co800 2.282 . S
N816 C819 1.332 . S
N816 C821 1.332 . S
C817 C818 1.386 . S
C817 C820 1.388 . S
C818 C817 1.386 . S
C818 C819 1.382 . S
C818 H844 0.950 . S
C819 N816 1.332 . S
C819 C818 1.382 . S
C819 H830 0.952 . S
C820 C817 1.388 . S
C820 C821 1.382 . S
C820 H845 0.950 . S
C821 N816 1.332 . S
C821 C820 1.382 . S
C821 H831 0.948 . S
N822 Co800 2.282 . S
N822 C826 1.332 . S
N822 C827 1.332 . S
C823 C824 1.388 . S
C823 C827 1.382 . S
C823 H846 0.950 . S
C824 C823 1.388 . S
C824 C825 1.386 . S
C825 C824 1.386 . S
C825 C826 1.382 . S
C825 H847 0.950 . S
C826 N822 1.332 . S
C826 C825 1.382 . S
C826 H828 0.952 . S
C827 N822 1.332 . S
C827 C823 1.382 . S
C827 H829 0.948 . S
H828 C826 0.952 . S
H829 C827 0.948 . S
H830 C819 0.952 . S
H831 C821 0.948 . S
C832 C798 1.395 . S
C832 C802 1.391 . S
C833 C795 1.389 . S
C833 C815 1.392 . S
C834 C805 1.392 . S
C834 C807 1.389 . S
C835 C810 1.395 . S
C835 C812 1.391 . S
H836 C796 0.951 . S
H837 C797 0.950 . S
H838 C803 0.949 . S
H839 C804 0.950 . S
H840 C808 0.951 . S
H841 C809 0.950 . S
H842 C813 0.949 . S
H843 C814 0.950 . S
H844 C818 0.950 . S
H845 C820 0.950 . S
H846 C823 0.950 . S
H847 C825 0.950 . S
C848 C849 1.443 . S
C848 N852 1.376 . S
C848 C886 1.389 . S
C849 C848 1.443 . S
C849 C850 1.340 . S
C849 H889 0.951 . S
C850 C849 1.340 . S
C850 C851 1.439 . S
C850 H890 0.950 . S
C851 C850 1.439 . S
C851 N852 1.374 . S
C851 C885 1.395 . S
N852 C848 1.376 . S
N852 C851 1.374 . S
N852 Co853 2.008 . S
Co853 N852 2.008 . S
Co853 N854 1.995 . S
Co853 N859 2.008 . S
Co853 N864 1.995 . S
Co853 N869 2.282 . S
Co853 N875 2.282 . S
N854 Co853 1.995 . S
N854 C855 1.376 . S
N854 C858 1.383 . S
C855 N854 1.376 . S
C855 C856 1.446 . S
C855 C885 1.391 . S
C856 C855 1.446 . S
C856 C857 1.339 . S
C856 H891 0.949 . S
C857 C856 1.339 . S
C857 C858 1.439 . S
C857 H892 0.950 . S
C858 N854 1.383 . S
C858 C857 1.439 . S
C858 C887 1.392 . S
N859 Co853 2.008 . S
N859 C860 1.376 . S
N859 C863 1.374 . S
C860 N859 1.376 . S
C860 C861 1.443 . S
C860 C887 1.389 . S
C861 C860 1.443 . S
C861 C862 1.340 . S
C861 H893 0.951 . S
C862 C861 1.340 . S
C862 C863 1.439 . S
C862 H894 0.950 . S
C863 N859 1.374 . S
C863 C862 1.439 . S
C863 C888 1.395 . S
N864 Co853 1.995 . S
N864 C865 1.376 . S
N864 C868 1.383 . S
C865 N864 1.376 . S
C865 C866 1.446 . S
C865 C888 1.391 . S
C866 C865 1.446 . S
C866 C867 1.339 . S
C866 H895 0.949 . S
C867 C866 1.339 . S
C867 C868 1.439 . S
C867 H896 0.950 . S
C868 N864 1.383 . S
C868 C867 1.439 . S
C868 C886 1.392 . S
N869 Co853 2.282 . S
N869 C872 1.332 . S
N869 C874 1.332 . S
C870 C871 1.386 . S
C870 C873 1.388 . S
C871 C870 1.386 . S
C871 C872 1.382 . S
C871 H897 0.950 . S
C872 N869 1.332 . S
C872 C871 1.382 . S
C872 H883 0.952 . S
C873 C870 1.388 . S
C873 C874 1.382 . S
C873 H898 0.950 . S
C874 N869 1.332 . S
C874 C873 1.382 . S
C874 H884 0.948 . S
N875 Co853 2.282 . S
N875 C879 1.332 . S
N875 C880 1.332 . S
C876 C877 1.388 . S
C876 C880 1.382 . S
C876 H899 0.950 . S
C877 C876 1.388 . S
C877 C878 1.386 . S
C878 C877 1.386 . S
C878 C879 1.382 . S
C878 H900 0.950 . S
C879 N875 1.332 . S
C879 C878 1.382 . S
C879 H881 0.952 . S
C880 N875 1.332 . S
C880 C876 1.382 . S
C880 H882 0.948 . S
H881 C879 0.952 . S
H882 C880 0.948 . S
H883 C872 0.952 . S
H884 C874 0.948 . S
C885 C851 1.395 . S
C885 C855 1.391 . S
C886 C848 1.389 . S
C886 C868 1.392 . S
C887 C858 1.392 . S
C887 C860 1.389 . S
C888 C863 1.395 . S
C888 C865 1.391 . S
H889 C849 0.951 . S
H890 C850 0.950 . S
H891 C856 0.949 . S
H892 C857 0.950 . S
H893 C861 0.951 . S
H894 C862 0.950 . S
H895 C866 0.949 . S
H896 C867 0.950 . S
H897 C871 0.950 . S
H898 C873 0.950 . S
H899 C876 0.950 . S
H900 C878 0.950 . S
C901 C902 1.443 . S
C901 N905 1.376 . S
C901 C939 1.389 . S
C902 C901 1.443 . S
C902 C903 1.340 . S
C902 H942 0.951 . S
C903 C902 1.340 . S
C903 C904 1.439 . S
C903 H943 0.950 . S
C904 C903 1.439 . S
C904 N905 1.374 . S
C904 C938 1.395 . S
N905 C901 1.376 . S
N905 C904 1.374 . S
N905 Co906 2.008 . S
Co906 N905 2.008 . S
Co906 N907 1.995 . S
Co906 N912 2.008 . S
Co906 N917 1.995 . S
Co906 N922 2.282 . S
Co906 N928 2.282 . S
N907 Co906 1.995 . S
N907 C908 1.376 . S
N907 C911 1.383 . S
C908 N907 1.376 . S
C908 C909 1.446 . S
C908 C938 1.391 . S
C909 C908 1.446 . S
C909 C910 1.339 . S
C909 H944 0.949 . S
C910 C909 1.339 . S
C910 C911 1.439 . S
C910 H945 0.950 . S
C911 N907 1.383 . S
C911 C910 1.439 . S
C911 C940 1.392 . S
N912 Co906 2.008 . S
N912 C913 1.376 . S
N912 C916 1.374 . S
C913 N912 1.376 . S
C913 C914 1.443 . S
C913 C940 1.389 . S
C914 C913 1.443 . S
C914 C915 1.340 . S
C914 H946 0.951 . S
C915 C914 1.340 . S
C915 C916 1.439 . S
C915 H947 0.950 . S
C916 N912 1.374 . S
C916 C915 1.439 . S
C916 C941 1.395 . S
N917 Co906 1.995 . S
N917 C918 1.376 . S
N917 C921 1.383 . S
C918 N917 1.376 . S
C918 C919 1.446 . S
C918 C941 1.391 . S
C919 C918 1.446 . S
C919 C920 1.339 . S
C919 H948 0.949 . S
C920 C919 1.339 . S
C920 C921 1.439 . S
C920 H949 0.950 . S
C921 N917 1.383 . S
C921 C920 1.439 . S
C921 C939 1.392 . S
N922 Co906 2.282 . S
N922 C925 1.332 . S
N922 C927 1.332 . S
C923 C924 1.386 . S
C923 C926 1.388 . S
C924 C923 1.386 . S
C924 C925 1.382 . S
C924 H950 0.950 . S
C925 N922 1.332 . S
C925 C924 1.382 . S
C925 H936 0.952 . S
C926 C923 1.388 . S
C926 C927 1.382 . S
C926 H951 0.950 . S
C927 N922 1.332 . S
C927 C926 1.382 . S
C927 H937 0.948 . S
N928 Co906 2.282 . S
N928 C932 1.332 . S
N928 C933 1.332 . S
C929 C930 1.388 . S
C929 C933 1.382 . S
C929 H952 0.950 . S
C930 C929 1.388 . S
C930 C931 1.386 . S
C931 C930 1.386 . S
C931 C932 1.382 . S
C931 H953 0.950 . S
C932 N928 1.332 . S
C932 C931 1.382 . S
C932 H934 0.952 . S
C933 N928 1.332 . S
C933 C929 1.382 . S
C933 H935 0.948 . S
H934 C932 0.952 . S
H935 C933 0.948 . S
H936 C925 0.952 . S
H937 C927 0.948 . S
C938 C904 1.395 . S
C938 C908 1.391 . S
C939 C901 1.389 . S
C939 C921 1.392 . S
C940 C911 1.392 . S
C940 C913 1.389 . S
C941 C916 1.395 . S
C941 C918 1.391 . S
H942 C902 0.951 . S
H943 C903 0.950 . S
H944 C909 0.949 . S
H945 C910 0.950 . S
H946 C914 0.951 . S
H947 C915 0.950 . S
H948 C919 0.949 . S
H949 C920 0.950 . S
H950 C924 0.950 . S
H951 C926 0.950 . S
H952 C929 0.950 . S
H953 C931 0.950 . S
C954 C955 1.443 . S
C954 N958 1.376 . S
C954 C992 1.389 . S
C955 C954 1.443 . S
C955 C956 1.340 . S
C955 H995 0.951 . S
C956 C955 1.340 . S
C956 C957 1.439 . S
C956 H996 0.950 . S
C957 C956 1.439 . S
C957 N958 1.374 . S
C957 C991 1.395 . S
N958 C954 1.376 . S
N958 C957 1.374 . S
N958 Co959 2.008 . S
Co959 N958 2.008 . S
Co959 N960 1.995 . S
Co959 N965 2.008 . S
Co959 N970 1.995 . S
Co959 N975 2.282 . S
Co959 N981 2.282 . S
N960 Co959 1.995 . S
N960 C961 1.376 . S
N960 C964 1.383 . S
C961 N960 1.376 . S
C961 C962 1.446 . S
C961 C991 1.391 . S
C962 C961 1.446 . S
C962 C963 1.339 . S
C962 H997 0.949 . S
C963 C962 1.339 . S
C963 C964 1.439 . S
C963 H998 0.950 . S
C964 N960 1.383 . S
C964 C963 1.439 . S
C964 C993 1.392 . S
N965 Co959 2.008 . S
N965 C966 1.376 . S
N965 C969 1.374 . S
C966 N965 1.376 . S
C966 C967 1.443 . S
C966 C993 1.389 . S
C967 C966 1.443 . S
C967 C968 1.340 . S
C967 H999 0.951 . S
C968 C967 1.340 . S
C968 C969 1.439 . S
C968 H1000 0.950 . S
C969 N965 1.374 . S
C969 C968 1.439 . S
C969 C994 1.395 . S
N970 Co959 1.995 . S
N970 C971 1.376 . S
N970 C974 1.383 . S
C971 N970 1.376 . S
C971 C972 1.446 . S
C971 C994 1.391 . S
C972 C971 1.446 . S
C972 C973 1.339 . S
C972 H1001 0.949 . S
C973 C972 1.339 . S
C973 C974 1.439 . S
C973 H1002 0.950 . S
C974 N970 1.383 . S
C974 C973 1.439 . S
C974 C992 1.392 . S
N975 Co959 2.282 . S
N975 C978 1.332 . S
N975 C980 1.332 . S
C976 C977 1.386 . S
C976 C979 1.388 . S
C977 C976 1.386 . S
C977 C978 1.382 . S
C977 H1003 0.950 . S
C978 N975 1.332 . S
C978 C977 1.382 . S
C978 H989 0.952 . S
C979 C976 1.388 . S
C979 C980 1.382 . S
C979 H1004 0.950 . S
C980 N975 1.332 . S
C980 C979 1.382 . S
C980 H990 0.948 . S
N981 Co959 2.282 . S
N981 C985 1.332 . S
N981 C986 1.332 . S
C982 C983 1.388 . S
C982 C986 1.382 . S
C982 H1005 0.950 . S
C983 C982 1.388 . S
C983 C984 1.386 . S
C984 C983 1.386 . S
C984 C985 1.382 . S
C984 H1006 0.950 . S
C985 N981 1.332 . S
C985 C984 1.382 . S
C985 H987 0.952 . S
C986 N981 1.332 . S
C986 C982 1.382 . S
C986 H988 0.948 . S
H987 C985 0.952 . S
H988 C986 0.948 . S
H989 C978 0.952 . S
H990 C980 0.948 . S
C991 C957 1.395 . S
C991 C961 1.391 . S
C992 C954 1.389 . S
C992 C974 1.392 . S
C993 C964 1.392 . S
C993 C966 1.389 . S
C994 C969 1.395 . S
C994 C971 1.391 . S
H995 C955 0.951 . S
H996 C956 0.950 . S
H997 C962 0.949 . S
H998 C963 0.950 . S
H999 C967 0.951 . S
H1000 C968 0.950 . S
H1001 C972 0.949 . S
H1002 C973 0.950 . S
H1003 C977 0.950 . S
H1004 C979 0.950 . S
H1005 C982 0.950 . S
H1006 C984 0.950 . S
C1007 C1008 1.443 . S
C1007 N1011 1.376 . S
C1007 C1045 1.389 . S
C1008 C1007 1.443 . S
C1008 C1009 1.340 . S
C1008 H1048 0.951 . S
C1009 C1008 1.340 . S
C1009 C1010 1.439 . S
C1009 H1049 0.950 . S
C1010 C1009 1.439 . S
C1010 N1011 1.374 . S
C1010 C1044 1.395 . S
N1011 C1007 1.376 . S
N1011 C1010 1.374 . S
N1011 Co1012 2.008 . S
Co1012 N1011 2.008 . S
Co1012 N1013 1.995 . S
Co1012 N1018 2.008 . S
Co1012 N1023 1.995 . S
Co1012 N1028 2.282 . S
Co1012 N1034 2.282 . S
N1013 Co1012 1.995 . S
N1013 C1014 1.376 . S
N1013 C1017 1.383 . S
C1014 N1013 1.376 . S
C1014 C1015 1.446 . S
C1014 C1044 1.391 . S
C1015 C1014 1.446 . S
C1015 C1016 1.339 . S
C1015 H1050 0.949 . S
C1016 C1015 1.339 . S
C1016 C1017 1.439 . S
C1016 H1051 0.950 . S
C1017 N1013 1.383 . S
C1017 C1016 1.439 . S
C1017 C1046 1.392 . S
N1018 Co1012 2.008 . S
N1018 C1019 1.376 . S
N1018 C1022 1.374 . S
C1019 N1018 1.376 . S
C1019 C1020 1.443 . S
C1019 C1046 1.389 . S
C1020 C1019 1.443 . S
C1020 C1021 1.340 . S
C1020 H1052 0.951 . S
C1021 C1020 1.340 . S
C1021 C1022 1.439 . S
C1021 H1053 0.950 . S
C1022 N1018 1.374 . S
C1022 C1021 1.439 . S
C1022 C1047 1.395 . S
N1023 Co1012 1.995 . S
N1023 C1024 1.376 . S
N1023 C1027 1.383 . S
C1024 N1023 1.376 . S
C1024 C1025 1.446 . S
C1024 C1047 1.391 . S
C1025 C1024 1.446 . S
C1025 C1026 1.339 . S
C1025 H1054 0.949 . S
C1026 C1025 1.339 . S
C1026 C1027 1.439 . S
C1026 H1055 0.950 . S
C1027 N1023 1.383 . S
C1027 C1026 1.439 . S
C1027 C1045 1.392 . S
N1028 Co1012 2.282 . S
N1028 C1031 1.332 . S
N1028 C1033 1.332 . S
C1029 C1030 1.386 . S
C1029 C1032 1.388 . S
C1030 C1029 1.386 . S
C1030 C1031 1.382 . S
C1030 H1056 0.950 . S
C1031 N1028 1.332 . S
C1031 C1030 1.382 . S
C1031 H1042 0.952 . S
C1032 C1029 1.388 . S
C1032 C1033 1.382 . S
C1032 H1057 0.950 . S
C1033 N1028 1.332 . S
C1033 C1032 1.382 . S
C1033 H1043 0.948 . S
N1034 Co1012 2.282 . S
N1034 C1038 1.332 . S
N1034 C1039 1.332 . S
C1035 C1036 1.388 . S
C1035 C1039 1.382 . S
C1035 H1058 0.950 . S
C1036 C1035 1.388 . S
C1036 C1037 1.386 . S
C1037 C1036 1.386 . S
C1037 C1038 1.382 . S
C1037 H1059 0.950 . S
C1038 N1034 1.332 . S
C1038 C1037 1.382 . S
C1038 H1040 0.952 . S
C1039 N1034 1.332 . S
C1039 C1035 1.382 . S
C1039 H1041 0.948 . S
H1040 C1038 0.952 . S
H1041 C1039 0.948 . S
H1042 C1031 0.952 . S
H1043 C1033 0.948 . S
C1044 C1010 1.395 . S
C1044 C1014 1.391 . S
C1045 C1007 1.389 . S
C1045 C1027 1.392 . S
C1046 C1017 1.392 . S
C1046 C1019 1.389 . S
C1047 C1022 1.395 . S
C1047 C1024 1.391 . S
H1048 C1008 0.951 . S
H1049 C1009 0.950 . S
H1050 C1015 0.949 . S
H1051 C1016 0.950 . S
H1052 C1020 0.951 . S
H1053 C1021 0.950 . S
H1054 C1025 0.949 . S
H1055 C1026 0.950 . S
H1056 C1030 0.950 . S
H1057 C1032 0.950 . S
H1058 C1035 0.950 . S
H1059 C1037 0.950 . S
C1060 C1061 1.443 . S
C1060 N1064 1.376 . S
C1060 C1098 1.389 . S
C1061 C1060 1.443 . S
C1061 C1062 1.340 . S
C1061 H1101 0.951 . S
C1062 C1061 1.340 . S
C1062 C1063 1.439 . S
C1062 H1102 0.950 . S
C1063 C1062 1.439 . S
C1063 N1064 1.374 . S
C1063 C1097 1.395 . S
N1064 C1060 1.376 . S
N1064 C1063 1.374 . S
N1064 Co1065 2.008 . S
Co1065 N1064 2.008 . S
Co1065 N1066 1.995 . S
Co1065 N1071 2.008 . S
Co1065 N1076 1.995 . S
Co1065 N1081 2.282 . S
Co1065 N1087 2.282 . S
N1066 Co1065 1.995 . S
N1066 C1067 1.376 . S
N1066 C1070 1.383 . S
C1067 N1066 1.376 . S
C1067 C1068 1.446 . S
C1067 C1097 1.391 . S
C1068 C1067 1.446 . S
C1068 C1069 1.339 . S
C1068 H1103 0.949 . S
C1069 C1068 1.339 . S
C1069 C1070 1.439 . S
C1069 H1104 0.950 . S
C1070 N1066 1.383 . S
C1070 C1069 1.439 . S
C1070 C1099 1.392 . S
N1071 Co1065 2.008 . S
N1071 C1072 1.376 . S
N1071 C1075 1.374 . S
C1072 N1071 1.376 . S
C1072 C1073 1.443 . S
C1072 C1099 1.389 . S
C1073 C1072 1.443 . S
C1073 C1074 1.340 . S
C1073 H1105 0.951 . S
C1074 C1073 1.340 . S
C1074 C1075 1.439 . S
C1074 H1106 0.950 . S
C1075 N1071 1.374 . S
C1075 C1074 1.439 . S
C1075 C1100 1.395 . S
N1076 Co1065 1.995 . S
N1076 C1077 1.376 . S
N1076 C1080 1.383 . S
C1077 N1076 1.376 . S
C1077 C1078 1.446 . S
C1077 C1100 1.391 . S
C1078 C1077 1.446 . S
C1078 C1079 1.339 . S
C1078 H1107 0.949 . S
C1079 C1078 1.339 . S
C1079 C1080 1.439 . S
C1079 H1108 0.950 . S
C1080 N1076 1.383 . S
C1080 C1079 1.439 . S
C1080 C1098 1.392 . S
N1081 Co1065 2.282 . S
N1081 C1084 1.332 . S
N1081 C1086 1.332 . S
C1082 C1083 1.386 . S
C1082 C1085 1.388 . S
C1083 C1082 1.386 . S
C1083 C1084 1.382 . S
C1083 H1109 0.950 . S
C1084 N1081 1.332 . S
C1084 C1083 1.382 . S
C1084 H1095 0.952 . S
C1085 C1082 1.388 . S
C1085 C1086 1.382 . S
C1085 H1110 0.950 . S
C1086 N1081 1.332 . S
C1086 C1085 1.382 . S
C1086 H1096 0.948 . S
N1087 Co1065 2.282 . S
N1087 C1091 1.332 . S
N1087 C1092 1.332 . S
C1088 C1089 1.388 . S
C1088 C1092 1.382 . S
C1088 H1111 0.950 . S
C1089 C1088 1.388 . S
C1089 C1090 1.386 . S
C1090 C1089 1.386 . S
C1090 C1091 1.382 . S
C1090 H1112 0.950 . S
C1091 N1087 1.332 . S
C1091 C1090 1.382 . S
C1091 H1093 0.952 . S
C1092 N1087 1.332 . S
C1092 C1088 1.382 . S
C1092 H1094 0.948 . S
H1093 C1091 0.952 . S
H1094 C1092 0.948 . S
H1095 C1084 0.952 . S
H1096 C1086 0.948 . S
C1097 C1063 1.395 . S
C1097 C1067 1.391 . S
C1098 C1060 1.389 . S
C1098 C1080 1.392 . S
C1099 C1070 1.392 . S
C1099 C1072 1.389 . S
C1100 C1075 1.395 . S
C1100 C1077 1.391 . S
H1101 C1061 0.951 . S
H1102 C1062 0.950 . S
H1103 C1068 0.949 . S
H1104 C1069 0.950 . S
H1105 C1073 0.951 . S
H1106 C1074 0.950 . S
H1107 C1078 0.949 . S
H1108 C1079 0.950 . S
H1109 C1083 0.950 . S
H1110 C1085 0.950 . S
H1111 C1088 0.950 . S
H1112 C1090 0.950 . S
C1113 C1114 1.443 . S
C1113 N1117 1.376 . S
C1113 C1151 1.389 . S
C1114 C1113 1.443 . S
C1114 C1115 1.340 . S
C1114 H1154 0.951 . S
C1115 C1114 1.340 . S
C1115 C1116 1.439 . S
C1115 H1155 0.950 . S
C1116 C1115 1.439 . S
C1116 N1117 1.374 . S
C1116 C1150 1.395 . S
N1117 C1113 1.376 . S
N1117 C1116 1.374 . S
N1117 Co1118 2.008 . S
Co1118 N1117 2.008 . S
Co1118 N1119 1.995 . S
Co1118 N1124 2.008 . S
Co1118 N1129 1.995 . S
Co1118 N1134 2.282 . S
Co1118 N1140 2.282 . S
N1119 Co1118 1.995 . S
N1119 C1120 1.376 . S
N1119 C1123 1.383 . S
C1120 N1119 1.376 . S
C1120 C1121 1.446 . S
C1120 C1150 1.391 . S
C1121 C1120 1.446 . S
C1121 C1122 1.339 . S
C1121 H1156 0.949 . S
C1122 C1121 1.339 . S
C1122 C1123 1.439 . S
C1122 H1157 0.950 . S
C1123 N1119 1.383 . S
C1123 C1122 1.439 . S
C1123 C1152 1.392 . S
N1124 Co1118 2.008 . S
N1124 C1125 1.376 . S
N1124 C1128 1.374 . S
C1125 N1124 1.376 . S
C1125 C1126 1.443 . S
C1125 C1152 1.389 . S
C1126 C1125 1.443 . S
C1126 C1127 1.340 . S
C1126 H1158 0.951 . S
C1127 C1126 1.340 . S
C1127 C1128 1.439 . S
C1127 H1159 0.950 . S
C1128 N1124 1.374 . S
C1128 C1127 1.439 . S
C1128 C1153 1.395 . S
N1129 Co1118 1.995 . S
N1129 C1130 1.376 . S
N1129 C1133 1.383 . S
C1130 N1129 1.376 . S
C1130 C1131 1.446 . S
C1130 C1153 1.391 . S
C1131 C1130 1.446 . S
C1131 C1132 1.339 . S
C1131 H1160 0.949 . S
C1132 C1131 1.339 . S
C1132 C1133 1.439 . S
C1132 H1161 0.950 . S
C1133 N1129 1.383 . S
C1133 C1132 1.439 . S
C1133 C1151 1.392 . S
N1134 Co1118 2.282 . S
N1134 C1137 1.332 . S
N1134 C1139 1.332 . S
C1135 C1136 1.386 . S
C1135 C1138 1.388 . S
C1136 C1135 1.386 . S
C1136 C1137 1.382 . S
C1136 H1162 0.950 . S
C1137 N1134 1.332 . S
C1137 C1136 1.382 . S
C1137 H1148 0.952 . S
C1138 C1135 1.388 . S
C1138 C1139 1.382 . S
C1138 H1163 0.950 . S
C1139 N1134 1.332 . S
C1139 C1138 1.382 . S
C1139 H1149 0.948 . S
N1140 Co1118 2.282 . S
N1140 C1144 1.332 . S
N1140 C1145 1.332 . S
C1141 C1142 1.388 . S
C1141 C1145 1.382 . S
C1141 H1164 0.950 . S
C1142 C1141 1.388 . S
C1142 C1143 1.386 . S
C1143 C1142 1.386 . S
C1143 C1144 1.382 . S
C1143 H1165 0.950 . S
C1144 N1140 1.332 . S
C1144 C1143 1.382 . S
C1144 H1146 0.952 . S
C1145 N1140 1.332 . S
C1145 C1141 1.382 . S
C1145 H1147 0.948 . S
H1146 C1144 0.952 . S
H1147 C1145 0.948 . S
H1148 C1137 0.952 . S
H1149 C1139 0.948 . S
C1150 C1116 1.395 . S
C1150 C1120 1.391 . S
C1151 C1113 1.389 . S
C1151 C1133 1.392 . S
C1152 C1123 1.392 . S
C1152 C1125 1.389 . S
C1153 C1128 1.395 . S
C1153 C1130 1.391 . S
H1154 C1114 0.951 . S
H1155 C1115 0.950 . S
H1156 C1121 0.949 . S
H1157 C1122 0.950 . S
H1158 C1126 0.951 . S
H1159 C1127 0.950 . S
H1160 C1131 0.949 . S
H1161 C1132 0.950 . S
H1162 C1136 0.950 . S
H1163 C1138 0.950 . S
H1164 C1141 0.950 . S
H1165 C1143 0.950 . S
C1166 C1167 1.443 . S
C1166 N1170 1.376 . S
C1166 C1204 1.389 . S
C1167 C1166 1.443 . S
C1167 C1168 1.340 . S
C1167 H1207 0.951 . S
C1168 C1167 1.340 . S
C1168 C1169 1.439 . S
C1168 H1208 0.950 . S
C1169 C1168 1.439 . S
C1169 N1170 1.374 . S
C1169 C1203 1.395 . S
N1170 C1166 1.376 . S
N1170 C1169 1.374 . S
N1170 Co1171 2.008 . S
Co1171 N1170 2.008 . S
Co1171 N1172 1.995 . S
Co1171 N1177 2.008 . S
Co1171 N1182 1.995 . S
Co1171 N1187 2.282 . S
Co1171 N1193 2.282 . S
N1172 Co1171 1.995 . S
N1172 C1173 1.376 . S
N1172 C1176 1.383 . S
C1173 N1172 1.376 . S
C1173 C1174 1.446 . S
C1173 C1203 1.391 . S
C1174 C1173 1.446 . S
C1174 C1175 1.339 . S
C1174 H1209 0.949 . S
C1175 C1174 1.339 . S
C1175 C1176 1.439 . S
C1175 H1210 0.950 . S
C1176 N1172 1.383 . S
C1176 C1175 1.439 . S
C1176 C1205 1.392 . S
N1177 Co1171 2.008 . S
N1177 C1178 1.376 . S
N1177 C1181 1.374 . S
C1178 N1177 1.376 . S
C1178 C1179 1.443 . S
C1178 C1205 1.389 . S
C1179 C1178 1.443 . S
C1179 C1180 1.340 . S
C1179 H1211 0.951 . S
C1180 C1179 1.340 . S
C1180 C1181 1.439 . S
C1180 H1212 0.950 . S
C1181 N1177 1.374 . S
C1181 C1180 1.439 . S
C1181 C1206 1.395 . S
N1182 Co1171 1.995 . S
N1182 C1183 1.376 . S
N1182 C1186 1.383 . S
C1183 N1182 1.376 . S
C1183 C1184 1.446 . S
C1183 C1206 1.391 . S
C1184 C1183 1.446 . S
C1184 C1185 1.339 . S
C1184 H1213 0.949 . S
C1185 C1184 1.339 . S
C1185 C1186 1.439 . S
C1185 H1214 0.950 . S
C1186 N1182 1.383 . S
C1186 C1185 1.439 . S
C1186 C1204 1.392 . S
N1187 Co1171 2.282 . S
N1187 C1190 1.332 . S
N1187 C1192 1.332 . S
C1188 C1189 1.386 . S
C1188 C1191 1.388 . S
C1189 C1188 1.386 . S
C1189 C1190 1.382 . S
C1189 H1215 0.950 . S
C1190 N1187 1.332 . S
C1190 C1189 1.382 . S
C1190 H1201 0.952 . S
C1191 C1188 1.388 . S
C1191 C1192 1.382 . S
C1191 H1216 0.950 . S
C1192 N1187 1.332 . S
C1192 C1191 1.382 . S
C1192 H1202 0.948 . S
N1193 Co1171 2.282 . S
N1193 C1197 1.332 . S
N1193 C1198 1.332 . S
C1194 C1195 1.388 . S
C1194 C1198 1.382 . S
C1194 H1217 0.950 . S
C1195 C1194 1.388 . S
C1195 C1196 1.386 . S
C1196 C1195 1.386 . S
C1196 C1197 1.382 . S
C1196 H1218 0.950 . S
C1197 N1193 1.332 . S
C1197 C1196 1.382 . S
C1197 H1199 0.952 . S
C1198 N1193 1.332 . S
C1198 C1194 1.382 . S
C1198 H1200 0.948 . S
H1199 C1197 0.952 . S
H1200 C1198 0.948 . S
H1201 C1190 0.952 . S
H1202 C1192 0.948 . S
C1203 C1169 1.395 . S
C1203 C1173 1.391 . S
C1204 C1166 1.389 . S
C1204 C1186 1.392 . S
C1205 C1176 1.392 . S
C1205 C1178 1.389 . S
C1206 C1181 1.395 . S
C1206 C1183 1.391 . S
H1207 C1167 0.951 . S
H1208 C1168 0.950 . S
H1209 C1174 0.949 . S
H1210 C1175 0.950 . S
H1211 C1179 0.951 . S
H1212 C1180 0.950 . S
H1213 C1184 0.949 . S
H1214 C1185 0.950 . S
H1215 C1189 0.950 . S
H1216 C1191 0.950 . S
H1217 C1194 0.950 . S
H1218 C1196 0.950 . S
C1219 C1220 1.443 . S
C1219 N1223 1.376 . S
C1219 C1257 1.389 . S
C1220 C1219 1.443 . S
C1220 C1221 1.340 . S
C1220 H1260 0.951 . S
C1221 C1220 1.340 . S
C1221 C1222 1.439 . S
C1221 H1261 0.950 . S
C1222 C1221 1.439 . S
C1222 N1223 1.374 . S
C1222 C1256 1.395 . S
N1223 C1219 1.376 . S
N1223 C1222 1.374 . S
N1223 Co1224 2.008 . S
Co1224 N1223 2.008 . S
Co1224 N1225 1.995 . S
Co1224 N1230 2.008 . S
Co1224 N1235 1.995 . S
Co1224 N1240 2.282 . S
Co1224 N1246 2.282 . S
N1225 Co1224 1.995 . S
N1225 C1226 1.376 . S
N1225 C1229 1.383 . S
C1226 N1225 1.376 . S
C1226 C1227 1.446 . S
C1226 C1256 1.391 . S
C1227 C1226 1.446 . S
C1227 C1228 1.339 . S
C1227 H1262 0.949 . S
C1228 C1227 1.339 . S
C1228 C1229 1.439 . S
C1228 H1263 0.950 . S
C1229 N1225 1.383 . S
C1229 C1228 1.439 . S
C1229 C1258 1.392 . S
N1230 Co1224 2.008 . S
N1230 C1231 1.376 . S
N1230 C1234 1.374 . S
C1231 N1230 1.376 . S
C1231 C1232 1.443 . S
C1231 C1258 1.389 . S
C1232 C1231 1.443 . S
C1232 C1233 1.340 . S
C1232 H1264 0.951 . S
C1233 C1232 1.340 . S
C1233 C1234 1.439 . S
C1233 H1265 0.950 . S
C1234 N1230 1.374 . S
C1234 C1233 1.439 . S
C1234 C1259 1.395 . S
N1235 Co1224 1.995 . S
N1235 C1236 1.376 . S
N1235 C1239 1.383 . S
C1236 N1235 1.376 . S
C1236 C1237 1.446 . S
C1236 C1259 1.391 . S
C1237 C1236 1.446 . S
C1237 C1238 1.339 . S
C1237 H1266 0.949 . S
C1238 C1237 1.339 . S
C1238 C1239 1.439 . S
C1238 H1267 0.950 . S
C1239 N1235 1.383 . S
C1239 C1238 1.439 . S
C1239 C1257 1.392 . S
N1240 Co1224 2.282 . S
N1240 C1243 1.332 . S
N1240 C1245 1.332 . S
C1241 C1242 1.386 . S
C1241 C1244 1.388 . S
C1242 C1241 1.386 . S
C1242 C1243 1.382 . S
C1242 H1268 0.950 . S
C1243 N1240 1.332 . S
C1243 C1242 1.382 . S
C1243 H1254 0.952 . S
C1244 C1241 1.388 . S
C1244 C1245 1.382 . S
C1244 H1269 0.950 . S
C1245 N1240 1.332 . S
C1245 C1244 1.382 . S
C1245 H1255 0.948 . S
N1246 Co1224 2.282 . S
N1246 C1250 1.332 . S
N1246 C1251 1.332 . S
C1247 C1248 1.388 . S
C1247 C1251 1.382 . S
C1247 H1270 0.950 . S
C1248 C1247 1.388 . S
C1248 C1249 1.386 . S
C1249 C1248 1.386 . S
C1249 C1250 1.382 . S
C1249 H1271 0.950 . S
C1250 N1246 1.332 . S
C1250 C1249 1.382 . S
C1250 H1252 0.952 . S
C1251 N1246 1.332 . S
C1251 C1247 1.382 . S
C1251 H1253 0.948 . S
H1252 C1250 0.952 . S
H1253 C1251 0.948 . S
H1254 C1243 0.952 . S
H1255 C1245 0.948 . S
C1256 C1222 1.395 . S
C1256 C1226 1.391 . S
C1257 C1219 1.389 . S
C1257 C1239 1.392 . S
C1258 C1229 1.392 . S
C1258 C1231 1.389 . S
C1259 C1234 1.395 . S
C1259 C1236 1.391 . S
H1260 C1220 0.951 . S
H1261 C1221 0.950 . S
H1262 C1227 0.949 . S
H1263 C1228 0.950 . S
H1264 C1232 0.951 . S
H1265 C1233 0.950 . S
H1266 C1237 0.949 . S
H1267 C1238 0.950 . S
H1268 C1242 0.950 . S
H1269 C1244 0.950 . S
H1270 C1247 0.950 . S
H1271 C1249 0.950 . S
H1272 C1284 0.930 . S
H1273 C1286 0.930 . S
H1274 C1287 0.930 . S
H1275 C1291 0.959 . S
H1276 C1291 0.959 . S
H1277 C1291 0.961 . S
H1278 C1292 0.960 . S
H1279 C1292 0.961 . S
H1280 C1292 0.959 . S
H1281 C1295 0.929 . S
H1282 C1296 0.931 . S
H1283 C1298 0.930 . S
C1284 H1272 0.930 . S
C1284 C1285 1.399 . S
C1284 C1289 1.399 . S
C1285 C1284 1.399 . S
C1285 C1286 1.376 . S
C1286 H1273 0.930 . S
C1286 C1285 1.376 . S
C1286 C1287 1.388 . S
C1287 H1274 0.930 . S
C1287 C1286 1.388 . S
C1287 C1288 1.390 . S
C1288 C1287 1.390 . S
C1288 C1289 1.394 . S
C1288 C1294 1.465 . S
C1289 C1284 1.399 . S
C1289 C1288 1.394 . S
C1289 C1290 1.516 . S
C1290 C1289 1.516 . S
C1290 C1291 1.502 . S
C1290 C1292 1.561 . S
C1290 C1293 1.526 . S
C1291 H1275 0.959 . S
C1291 H1276 0.959 . S
C1291 H1277 0.961 . S
C1291 C1290 1.502 . S
C1292 H1278 0.960 . S
C1292 H1279 0.961 . S
C1292 H1280 0.959 . S
C1292 C1290 1.561 . S
C1293 C1290 1.526 . S
C1293 C1294 1.396 . S
C1293 C1298 1.390 . S
C1294 C1288 1.465 . S
C1294 C1293 1.396 . S
C1294 C1295 1.399 . S
C1295 H1281 0.929 . S
C1295 C1294 1.399 . S
C1295 C1296 1.385 . S
C1296 H1282 0.931 . S
C1296 C1295 1.385 . S
C1296 C1297 1.389 . S
C1297 C1296 1.389 . S
C1297 C1298 1.387 . S
C1298 H1283 0.930 . S
C1298 C1293 1.390 . S
C1298 C1297 1.387 . S
H1299 C1311 0.930 . S
H1300 C1313 0.930 . S
H1301 C1314 0.930 . S
H1302 C1318 0.959 . S
H1303 C1318 0.959 . S
H1304 C1318 0.961 . S
H1305 C1319 0.960 . S
H1306 C1319 0.961 . S
H1307 C1319 0.959 . S
H1308 C1322 0.929 . S
H1309 C1323 0.931 . S
H1310 C1325 0.930 . S
C1311 H1299 0.930 . S
C1311 C1312 1.399 . S
C1311 C1316 1.399 . S
C1312 C1311 1.399 . S
C1312 C1313 1.376 . S
C1313 H1300 0.930 . S
C1313 C1312 1.376 . S
C1313 C1314 1.388 . S
C1314 H1301 0.930 . S
C1314 C1313 1.388 . S
C1314 C1315 1.390 . S
C1315 C1314 1.390 . S
C1315 C1316 1.394 . S
C1315 C1321 1.465 . S
C1316 C1311 1.399 . S
C1316 C1315 1.394 . S
C1316 C1317 1.516 . S
C1317 C1316 1.516 . S
C1317 C1318 1.502 . S
C1317 C1319 1.561 . S
C1317 C1320 1.526 . S
C1318 H1302 0.959 . S
C1318 H1303 0.959 . S
C1318 H1304 0.961 . S
C1318 C1317 1.502 . S
C1319 H1305 0.960 . S
C1319 H1306 0.961 . S
C1319 H1307 0.959 . S
C1319 C1317 1.561 . S
C1320 C1317 1.526 . S
C1320 C1321 1.396 . S
C1320 C1325 1.390 . S
C1321 C1315 1.465 . S
C1321 C1320 1.396 . S
C1321 C1322 1.399 . S
C1322 H1308 0.929 . S
C1322 C1321 1.399 . S
C1322 C1323 1.385 . S
C1323 H1309 0.931 . S
C1323 C1322 1.385 . S
C1323 C1324 1.389 . S
C1324 C1323 1.389 . S
C1324 C1325 1.387 . S
C1325 H1310 0.930 . S
C1325 C1320 1.390 . S
C1325 C1324 1.387 . S
H1326 C1338 0.930 . S
H1327 C1340 0.930 . S
H1328 C1341 0.930 . S
H1329 C1345 0.959 . S
H1330 C1345 0.959 . S
H1331 C1345 0.961 . S
H1332 C1346 0.960 . S
H1333 C1346 0.961 . S
H1334 C1346 0.959 . S
H1335 C1349 0.929 . S
H1336 C1350 0.931 . S
H1337 C1352 0.930 . S
C1338 H1326 0.930 . S
C1338 C1339 1.399 . S
C1338 C1343 1.399 . S
C1339 C1338 1.399 . S
C1339 C1340 1.376 . S
C1340 H1327 0.930 . S
C1340 C1339 1.376 . S
C1340 C1341 1.388 . S
C1341 H1328 0.930 . S
C1341 C1340 1.388 . S
C1341 C1342 1.390 . S
C1342 C1341 1.390 . S
C1342 C1343 1.394 . S
C1342 C1348 1.465 . S
C1343 C1338 1.399 . S
C1343 C1342 1.394 . S
C1343 C1344 1.516 . S
C1344 C1343 1.516 . S
C1344 C1345 1.502 . S
C1344 C1346 1.561 . S
C1344 C1347 1.526 . S
C1345 H1329 0.959 . S
C1345 H1330 0.959 . S
C1345 H1331 0.961 . S
C1345 C1344 1.502 . S
C1346 H1332 0.960 . S
C1346 H1333 0.961 . S
C1346 H1334 0.959 . S
C1346 C1344 1.561 . S
C1347 C1344 1.526 . S
C1347 C1348 1.396 . S
C1347 C1352 1.390 . S
C1348 C1342 1.465 . S
C1348 C1347 1.396 . S
C1348 C1349 1.399 . S
C1349 H1335 0.929 . S
C1349 C1348 1.399 . S
C1349 C1350 1.385 . S
C1350 H1336 0.931 . S
C1350 C1349 1.385 . S
C1350 C1351 1.389 . S
C1351 C1350 1.389 . S
C1351 C1352 1.387 . S
C1352 H1337 0.930 . S
C1352 C1347 1.390 . S
C1352 C1351 1.387 . S
H1353 C1365 0.930 . S
H1354 C1367 0.930 . S
H1355 C1368 0.930 . S
H1356 C1372 0.959 . S
H1357 C1372 0.959 . S
H1358 C1372 0.961 . S
H1359 C1373 0.960 . S
H1360 C1373 0.961 . S
H1361 C1373 0.959 . S
H1362 C1376 0.929 . S
H1363 C1377 0.931 . S
H1364 C1379 0.930 . S
C1365 H1353 0.930 . S
C1365 C1366 1.399 . S
C1365 C1370 1.399 . S
C1366 C1365 1.399 . S
C1366 C1367 1.376 . S
C1367 H1354 0.930 . S
C1367 C1366 1.376 . S
C1367 C1368 1.388 . S
C1368 H1355 0.930 . S
C1368 C1367 1.388 . S
C1368 C1369 1.390 . S
C1369 C1368 1.390 . S
C1369 C1370 1.394 . S
C1369 C1375 1.465 . S
C1370 C1365 1.399 . S
C1370 C1369 1.394 . S
C1370 C1371 1.516 . S
C1371 C1370 1.516 . S
C1371 C1372 1.502 . S
C1371 C1373 1.561 . S
C1371 C1374 1.526 . S
C1372 H1356 0.959 . S
C1372 H1357 0.959 . S
C1372 H1358 0.961 . S
C1372 C1371 1.502 . S
C1373 H1359 0.960 . S
C1373 H1360 0.961 . S
C1373 H1361 0.959 . S
C1373 C1371 1.561 . S
C1374 C1371 1.526 . S
C1374 C1375 1.396 . S
C1374 C1379 1.390 . S
C1375 C1369 1.465 . S
C1375 C1374 1.396 . S
C1375 C1376 1.399 . S
C1376 H1362 0.929 . S
C1376 C1375 1.399 . S
C1376 C1377 1.385 . S
C1377 H1363 0.931 . S
C1377 C1376 1.385 . S
C1377 C1378 1.389 . S
C1378 C1377 1.389 . S
C1378 C1379 1.387 . S
C1379 H1364 0.930 . S
C1379 C1374 1.390 . S
C1379 C1378 1.387 . S
H1380 C1392 0.930 . S
H1381 C1394 0.930 . S
H1382 C1395 0.930 . S
H1383 C1399 0.959 . S
H1384 C1399 0.959 . S
H1385 C1399 0.961 . S
H1386 C1400 0.960 . S
H1387 C1400 0.961 . S
H1388 C1400 0.959 . S
H1389 C1403 0.929 . S
H1390 C1404 0.931 . S
H1391 C1406 0.930 . S
C1392 H1380 0.930 . S
C1392 C1393 1.399 . S
C1392 C1397 1.399 . S
C1393 C1392 1.399 . S
C1393 C1394 1.376 . S
C1394 H1381 0.930 . S
C1394 C1393 1.376 . S
C1394 C1395 1.388 . S
C1395 H1382 0.930 . S
C1395 C1394 1.388 . S
C1395 C1396 1.390 . S
C1396 C1395 1.390 . S
C1396 C1397 1.394 . S
C1396 C1402 1.465 . S
C1397 C1392 1.399 . S
C1397 C1396 1.394 . S
C1397 C1398 1.516 . S
C1398 C1397 1.516 . S
C1398 C1399 1.502 . S
C1398 C1400 1.561 . S
C1398 C1401 1.526 . S
C1399 H1383 0.959 . S
C1399 H1384 0.959 . S
C1399 H1385 0.961 . S
C1399 C1398 1.502 . S
C1400 H1386 0.960 . S
C1400 H1387 0.961 . S
C1400 H1388 0.959 . S
C1400 C1398 1.561 . S
C1401 C1398 1.526 . S
C1401 C1402 1.396 . S
C1401 C1406 1.390 . S
C1402 C1396 1.465 . S
C1402 C1401 1.396 . S
C1402 C1403 1.399 . S
C1403 H1389 0.929 . S
C1403 C1402 1.399 . S
C1403 C1404 1.385 . S
C1404 H1390 0.931 . S
C1404 C1403 1.385 . S
C1404 C1405 1.389 . S
C1405 C1404 1.389 . S
C1405 C1406 1.387 . S
C1406 H1391 0.930 . S
C1406 C1401 1.390 . S
C1406 C1405 1.387 . S
H1407 C1419 0.930 . S
H1408 C1421 0.930 . S
H1409 C1422 0.930 . S
H1410 C1426 0.959 . S
H1411 C1426 0.959 . S
H1412 C1426 0.961 . S
H1413 C1427 0.960 . S
H1414 C1427 0.961 . S
H1415 C1427 0.959 . S
H1416 C1430 0.929 . S
H1417 C1431 0.931 . S
H1418 C1433 0.930 . S
C1419 H1407 0.930 . S
C1419 C1420 1.399 . S
C1419 C1424 1.399 . S
C1420 C1419 1.399 . S
C1420 C1421 1.376 . S
C1421 H1408 0.930 . S
C1421 C1420 1.376 . S
C1421 C1422 1.388 . S
C1422 H1409 0.930 . S
C1422 C1421 1.388 . S
C1422 C1423 1.390 . S
C1423 C1422 1.390 . S
C1423 C1424 1.394 . S
C1423 C1429 1.465 . S
C1424 C1419 1.399 . S
C1424 C1423 1.394 . S
C1424 C1425 1.516 . S
C1425 C1424 1.516 . S
C1425 C1426 1.502 . S
C1425 C1427 1.561 . S
C1425 C1428 1.526 . S
C1426 H1410 0.959 . S
C1426 H1411 0.959 . S
C1426 H1412 0.961 . S
C1426 C1425 1.502 . S
C1427 H1413 0.960 . S
C1427 H1414 0.961 . S
C1427 H1415 0.959 . S
C1427 C1425 1.561 . S
C1428 C1425 1.526 . S
C1428 C1429 1.396 . S
C1428 C1433 1.390 . S
C1429 C1423 1.465 . S
C1429 C1428 1.396 . S
C1429 C1430 1.399 . S
C1430 H1416 0.929 . S
C1430 C1429 1.399 . S
C1430 C1431 1.385 . S
C1431 H1417 0.931 . S
C1431 C1430 1.385 . S
C1431 C1432 1.389 . S
C1432 C1431 1.389 . S
C1432 C1433 1.387 . S
C1433 H1418 0.930 . S
C1433 C1428 1.390 . S
C1433 C1432 1.387 . S
H1434 C1446 0.930 . S
H1435 C1448 0.930 . S
H1436 C1449 0.930 . S
H1437 C1453 0.959 . S
H1438 C1453 0.959 . S
H1439 C1453 0.961 . S
H1440 C1454 0.960 . S
H1441 C1454 0.961 . S
H1442 C1454 0.959 . S
H1443 C1457 0.929 . S
H1444 C1458 0.931 . S
H1445 C1460 0.930 . S
C1446 H1434 0.930 . S
C1446 C1447 1.399 . S
C1446 C1451 1.399 . S
C1447 C1446 1.399 . S
C1447 C1448 1.376 . S
C1448 H1435 0.930 . S
C1448 C1447 1.376 . S
C1448 C1449 1.388 . S
C1449 H1436 0.930 . S
C1449 C1448 1.388 . S
C1449 C1450 1.390 . S
C1450 C1449 1.390 . S
C1450 C1451 1.394 . S
C1450 C1456 1.465 . S
C1451 C1446 1.399 . S
C1451 C1450 1.394 . S
C1451 C1452 1.516 . S
C1452 C1451 1.516 . S
C1452 C1453 1.502 . S
C1452 C1454 1.561 . S
C1452 C1455 1.526 . S
C1453 H1437 0.959 . S
C1453 H1438 0.959 . S
C1453 H1439 0.961 . S
C1453 C1452 1.502 . S
C1454 H1440 0.960 . S
C1454 H1441 0.961 . S
C1454 H1442 0.959 . S
C1454 C1452 1.561 . S
C1455 C1452 1.526 . S
C1455 C1456 1.396 . S
C1455 C1460 1.390 . S
C1456 C1450 1.465 . S
C1456 C1455 1.396 . S
C1456 C1457 1.399 . S
C1457 H1443 0.929 . S
C1457 C1456 1.399 . S
C1457 C1458 1.385 . S
C1458 H1444 0.931 . S
C1458 C1457 1.385 . S
C1458 C1459 1.389 . S
C1459 C1458 1.389 . S
C1459 C1460 1.387 . S
C1460 H1445 0.930 . S
C1460 C1455 1.390 . S
C1460 C1459 1.387 . S
H1461 C1473 0.930 . S
H1462 C1475 0.930 . S
H1463 C1476 0.930 . S
H1464 C1480 0.959 . S
H1465 C1480 0.959 . S
H1466 C1480 0.961 . S
H1467 C1481 0.960 . S
H1468 C1481 0.961 . S
H1469 C1481 0.959 . S
H1470 C1484 0.929 . S
H1471 C1485 0.931 . S
H1472 C1487 0.930 . S
C1473 H1461 0.930 . S
C1473 C1474 1.399 . S
C1473 C1478 1.399 . S
C1474 C1473 1.399 . S
C1474 C1475 1.376 . S
C1475 H1462 0.930 . S
C1475 C1474 1.376 . S
C1475 C1476 1.388 . S
C1476 H1463 0.930 . S
C1476 C1475 1.388 . S
C1476 C1477 1.390 . S
C1477 C1476 1.390 . S
C1477 C1478 1.394 . S
C1477 C1483 1.465 . S
C1478 C1473 1.399 . S
C1478 C1477 1.394 . S
C1478 C1479 1.516 . S
C1479 C1478 1.516 . S
C1479 C1480 1.502 . S
C1479 C1481 1.561 . S
C1479 C1482 1.526 . S
C1480 H1464 0.959 . S
C1480 H1465 0.959 . S
C1480 H1466 0.961 . S
C1480 C1479 1.502 . S
C1481 H1467 0.960 . S
C1481 H1468 0.961 . S
C1481 H1469 0.959 . S
C1481 C1479 1.561 . S
C1482 C1479 1.526 . S
C1482 C1483 1.396 . S
C1482 C1487 1.390 . S
C1483 C1477 1.465 . S
C1483 C1482 1.396 . S
C1483 C1484 1.399 . S
C1484 H1470 0.929 . S
C1484 C1483 1.399 . S
C1484 C1485 1.385 . S
C1485 H1471 0.931 . S
C1485 C1484 1.385 . S
C1485 C1486 1.389 . S
C1486 C1485 1.389 . S
C1486 C1487 1.387 . S
C1487 H1472 0.930 . S
C1487 C1482 1.390 . S
C1487 C1486 1.387 . S
H1488 C1500 0.930 . S
H1489 C1502 0.930 . S
H1490 C1503 0.930 . S
H1491 C1507 0.959 . S
H1492 C1507 0.959 . S
H1493 C1507 0.961 . S
H1494 C1508 0.960 . S
H1495 C1508 0.961 . S
H1496 C1508 0.959 . S
H1497 C1511 0.929 . S
H1498 C1512 0.931 . S
H1499 C1514 0.930 . S
C1500 H1488 0.930 . S
C1500 C1501 1.399 . S
C1500 C1505 1.399 . S
C1501 C1500 1.399 . S
C1501 C1502 1.376 . S
C1502 H1489 0.930 . S
C1502 C1501 1.376 . S
C1502 C1503 1.388 . S
C1503 H1490 0.930 . S
C1503 C1502 1.388 . S
C1503 C1504 1.390 . S
C1504 C1503 1.390 . S
C1504 C1505 1.394 . S
C1504 C1510 1.465 . S
C1505 C1500 1.399 . S
C1505 C1504 1.394 . S
C1505 C1506 1.516 . S
C1506 C1505 1.516 . S
C1506 C1507 1.502 . S
C1506 C1508 1.561 . S
C1506 C1509 1.526 . S
C1507 H1491 0.959 . S
C1507 H1492 0.959 . S
C1507 H1493 0.961 . S
C1507 C1506 1.502 . S
C1508 H1494 0.960 . S
C1508 H1495 0.961 . S
C1508 H1496 0.959 . S
C1508 C1506 1.561 . S
C1509 C1506 1.526 . S
C1509 C1510 1.396 . S
C1509 C1514 1.390 . S
C1510 C1504 1.465 . S
C1510 C1509 1.396 . S
C1510 C1511 1.399 . S
C1511 H1497 0.929 . S
C1511 C1510 1.399 . S
C1511 C1512 1.385 . S
C1512 H1498 0.931 . S
C1512 C1511 1.385 . S
C1512 C1513 1.389 . S
C1513 C1512 1.389 . S
C1513 C1514 1.387 . S
C1514 H1499 0.930 . S
C1514 C1509 1.390 . S
C1514 C1513 1.387 . S
H1515 C1527 0.930 . S
H1516 C1529 0.930 . S
H1517 C1530 0.930 . S
H1518 C1534 0.959 . S
H1519 C1534 0.959 . S
H1520 C1534 0.961 . S
H1521 C1535 0.960 . S
H1522 C1535 0.961 . S
H1523 C1535 0.959 . S
H1524 C1538 0.929 . S
H1525 C1539 0.931 . S
H1526 C1541 0.930 . S
C1527 H1515 0.930 . S
C1527 C1528 1.399 . S
C1527 C1532 1.399 . S
C1528 C1527 1.399 . S
C1528 C1529 1.376 . S
C1529 H1516 0.930 . S
C1529 C1528 1.376 . S
C1529 C1530 1.388 . S
C1530 H1517 0.930 . S
C1530 C1529 1.388 . S
C1530 C1531 1.390 . S
C1531 C1530 1.390 . S
C1531 C1532 1.394 . S
C1531 C1537 1.465 . S
C1532 C1527 1.399 . S
C1532 C1531 1.394 . S
C1532 C1533 1.516 . S
C1533 C1532 1.516 . S
C1533 C1534 1.502 . S
C1533 C1535 1.561 . S
C1533 C1536 1.526 . S
C1534 H1518 0.959 . S
C1534 H1519 0.959 . S
C1534 H1520 0.961 . S
C1534 C1533 1.502 . S
C1535 H1521 0.960 . S
C1535 H1522 0.961 . S
C1535 H1523 0.959 . S
C1535 C1533 1.561 . S
C1536 C1533 1.526 . S
C1536 C1537 1.396 . S
C1536 C1541 1.390 . S
C1537 C1531 1.465 . S
C1537 C1536 1.396 . S
C1537 C1538 1.399 . S
C1538 H1524 0.929 . S
C1538 C1537 1.399 . S
C1538 C1539 1.385 . S
C1539 H1525 0.931 . S
C1539 C1538 1.385 . S
C1539 C1540 1.389 . S
C1540 C1539 1.389 . S
C1540 C1541 1.387 . S
C1541 H1526 0.930 . S
C1541 C1536 1.390 . S
C1541 C1540 1.387 . S
H1542 C1554 0.930 . S
H1543 C1556 0.930 . S
H1544 C1557 0.930 . S
H1545 C1561 0.959 . S
H1546 C1561 0.959 . S
H1547 C1561 0.961 . S
H1548 C1562 0.960 . S
H1549 C1562 0.961 . S
H1550 C1562 0.959 . S
H1551 C1565 0.929 . S
H1552 C1566 0.931 . S
H1553 C1568 0.930 . S
C1554 H1542 0.930 . S
C1554 C1555 1.399 . S
C1554 C1559 1.399 . S
C1555 C1554 1.399 . S
C1555 C1556 1.376 . S
C1556 H1543 0.930 . S
C1556 C1555 1.376 . S
C1556 C1557 1.388 . S
C1557 H1544 0.930 . S
C1557 C1556 1.388 . S
C1557 C1558 1.390 . S
C1558 C1557 1.390 . S
C1558 C1559 1.394 . S
C1558 C1564 1.465 . S
C1559 C1554 1.399 . S
C1559 C1558 1.394 . S
C1559 C1560 1.516 . S
C1560 C1559 1.516 . S
C1560 C1561 1.502 . S
C1560 C1562 1.561 . S
C1560 C1563 1.526 . S
C1561 H1545 0.959 . S
C1561 H1546 0.959 . S
C1561 H1547 0.961 . S
C1561 C1560 1.502 . S
C1562 H1548 0.960 . S
C1562 H1549 0.961 . S
C1562 H1550 0.959 . S
C1562 C1560 1.561 . S
C1563 C1560 1.526 . S
C1563 C1564 1.396 . S
C1563 C1568 1.390 . S
C1564 C1558 1.465 . S
C1564 C1563 1.396 . S
C1564 C1565 1.399 . S
C1565 H1551 0.929 . S
C1565 C1564 1.399 . S
C1565 C1566 1.385 . S
C1566 H1552 0.931 . S
C1566 C1565 1.385 . S
C1566 C1567 1.389 . S
C1567 C1566 1.389 . S
C1567 C1568 1.387 . S
C1568 H1553 0.930 . S
C1568 C1563 1.390 . S
C1568 C1567 1.387 . S
H1569 C1581 0.930 . S
H1570 C1583 0.930 . S
H1571 C1584 0.930 . S
H1572 C1588 0.959 . S
H1573 C1588 0.959 . S
H1574 C1588 0.961 . S
H1575 C1589 0.960 . S
H1576 C1589 0.961 . S
H1577 C1589 0.959 . S
H1578 C1592 0.929 . S
H1579 C1593 0.931 . S
H1580 C1595 0.930 . S
C1581 H1569 0.930 . S
C1581 C1582 1.399 . S
C1581 C1586 1.399 . S
C1582 C1581 1.399 . S
C1582 C1583 1.376 . S
C1583 H1570 0.930 . S
C1583 C1582 1.376 . S
C1583 C1584 1.388 . S
C1584 H1571 0.930 . S
C1584 C1583 1.388 . S
C1584 C1585 1.390 . S
C1585 C1584 1.390 . S
C1585 C1586 1.394 . S
C1585 C1591 1.465 . S
C1586 C1581 1.399 . S
C1586 C1585 1.394 . S
C1586 C1587 1.516 . S
C1587 C1586 1.516 . S
C1587 C1588 1.502 . S
C1587 C1589 1.561 . S
C1587 C1590 1.526 . S
C1588 H1572 0.959 . S
C1588 H1573 0.959 . S
C1588 H1574 0.961 . S
C1588 C1587 1.502 . S
C1589 H1575 0.960 . S
C1589 H1576 0.961 . S
C1589 H1577 0.959 . S
C1589 C1587 1.561 . S
C1590 C1587 1.526 . S
C1590 C1591 1.396 . S
C1590 C1595 1.390 . S
C1591 C1585 1.465 . S
C1591 C1590 1.396 . S
C1591 C1592 1.399 . S
C1592 H1578 0.929 . S
C1592 C1591 1.399 . S
C1592 C1593 1.385 . S
C1593 H1579 0.931 . S
C1593 C1592 1.385 . S
C1593 C1594 1.389 . S
C1594 C1593 1.389 . S
C1594 C1595 1.387 . S
C1595 H1580 0.930 . S
C1595 C1590 1.390 . S
C1595 C1594 1.387 . S
H1596 C1608 0.930 . S
H1597 C1610 0.930 . S
H1598 C1611 0.930 . S
H1599 C1615 0.959 . S
H1600 C1615 0.959 . S
H1601 C1615 0.961 . S
H1602 C1616 0.960 . S
H1603 C1616 0.961 . S
H1604 C1616 0.959 . S
H1605 C1619 0.929 . S
H1606 C1620 0.931 . S
H1607 C1622 0.930 . S
C1608 H1596 0.930 . S
C1608 C1609 1.399 . S
C1608 C1613 1.399 . S
C1609 C1608 1.399 . S
C1609 C1610 1.376 . S
C1610 H1597 0.930 . S
C1610 C1609 1.376 . S
C1610 C1611 1.388 . S
C1611 H1598 0.930 . S
C1611 C1610 1.388 . S
C1611 C1612 1.390 . S
C1612 C1611 1.390 . S
C1612 C1613 1.394 . S
C1612 C1618 1.465 . S
C1613 C1608 1.399 . S
C1613 C1612 1.394 . S
C1613 C1614 1.516 . S
C1614 C1613 1.516 . S
C1614 C1615 1.502 . S
C1614 C1616 1.561 . S
C1614 C1617 1.526 . S
C1615 H1599 0.959 . S
C1615 H1600 0.959 . S
C1615 H1601 0.961 . S
C1615 C1614 1.502 . S
C1616 H1602 0.960 . S
C1616 H1603 0.961 . S
C1616 H1604 0.959 . S
C1616 C1614 1.561 . S
C1617 C1614 1.526 . S
C1617 C1618 1.396 . S
C1617 C1622 1.390 . S
C1618 C1612 1.465 . S
C1618 C1617 1.396 . S
C1618 C1619 1.399 . S
C1619 H1605 0.929 . S
C1619 C1618 1.399 . S
C1619 C1620 1.385 . S
C1620 H1606 0.931 . S
C1620 C1619 1.385 . S
C1620 C1621 1.389 . S
C1621 C1620 1.389 . S
C1621 C1622 1.387 . S
C1622 H1607 0.930 . S
C1622 C1617 1.390 . S
C1622 C1621 1.387 . S
H1623 C1635 0.930 . S
H1624 C1637 0.930 . S
H1625 C1638 0.930 . S
H1626 C1642 0.959 . S
H1627 C1642 0.959 . S
H1628 C1642 0.961 . S
H1629 C1643 0.960 . S
H1630 C1643 0.961 . S
H1631 C1643 0.959 . S
H1632 C1646 0.929 . S
H1633 C1647 0.931 . S
H1634 C1649 0.930 . S
C1635 H1623 0.930 . S
C1635 C1636 1.399 . S
C1635 C1640 1.399 . S
C1636 C1635 1.399 . S
C1636 C1637 1.376 . S
C1637 H1624 0.930 . S
C1637 C1636 1.376 . S
C1637 C1638 1.388 . S
C1638 H1625 0.930 . S
C1638 C1637 1.388 . S
C1638 C1639 1.390 . S
C1639 C1638 1.390 . S
C1639 C1640 1.394 . S
C1639 C1645 1.465 . S
C1640 C1635 1.399 . S
C1640 C1639 1.394 . S
C1640 C1641 1.516 . S
C1641 C1640 1.516 . S
C1641 C1642 1.502 . S
C1641 C1643 1.561 . S
C1641 C1644 1.526 . S
C1642 H1626 0.959 . S
C1642 H1627 0.959 . S
C1642 H1628 0.961 . S
C1642 C1641 1.502 . S
C1643 H1629 0.960 . S
C1643 H1630 0.961 . S
C1643 H1631 0.959 . S
C1643 C1641 1.561 . S
C1644 C1641 1.526 . S
C1644 C1645 1.396 . S
C1644 C1649 1.390 . S
C1645 C1639 1.465 . S
C1645 C1644 1.396 . S
C1645 C1646 1.399 . S
C1646 H1632 0.929 . S
C1646 C1645 1.399 . S
C1646 C1647 1.385 . S
C1647 H1633 0.931 . S
C1647 C1646 1.385 . S
C1647 C1648 1.389 . S
C1648 C1647 1.389 . S
C1648 C1649 1.387 . S
C1649 H1634 0.930 . S
C1649 C1644 1.390 . S
C1649 C1648 1.387 . S
H1650 C1662 0.930 . S
H1651 C1664 0.930 . S
H1652 C1665 0.930 . S
H1653 C1669 0.959 . S
H1654 C1669 0.959 . S
H1655 C1669 0.961 . S
H1656 C1670 0.960 . S
H1657 C1670 0.961 . S
H1658 C1670 0.959 . S
H1659 C1673 0.929 . S
H1660 C1674 0.931 . S
H1661 C1676 0.930 . S
C1662 H1650 0.930 . S
C1662 C1663 1.399 . S
C1662 C1667 1.399 . S
C1663 C1662 1.399 . S
C1663 C1664 1.376 . S
C1664 H1651 0.930 . S
C1664 C1663 1.376 . S
C1664 C1665 1.388 . S
C1665 H1652 0.930 . S
C1665 C1664 1.388 . S
C1665 C1666 1.390 . S
C1666 C1665 1.390 . S
C1666 C1667 1.394 . S
C1666 C1672 1.465 . S
C1667 C1662 1.399 . S
C1667 C1666 1.394 . S
C1667 C1668 1.516 . S
C1668 C1667 1.516 . S
C1668 C1669 1.502 . S
C1668 C1670 1.561 . S
C1668 C1671 1.526 . S
C1669 H1653 0.959 . S
C1669 H1654 0.959 . S
C1669 H1655 0.961 . S
C1669 C1668 1.502 . S
C1670 H1656 0.960 . S
C1670 H1657 0.961 . S
C1670 H1658 0.959 . S
C1670 C1668 1.561 . S
C1671 C1668 1.526 . S
C1671 C1672 1.396 . S
C1671 C1676 1.390 . S
C1672 C1666 1.465 . S
C1672 C1671 1.396 . S
C1672 C1673 1.399 . S
C1673 H1659 0.929 . S
C1673 C1672 1.399 . S
C1673 C1674 1.385 . S
C1674 H1660 0.931 . S
C1674 C1673 1.385 . S
C1674 C1675 1.389 . S
C1675 C1674 1.389 . S
C1675 C1676 1.387 . S
C1676 H1661 0.930 . S
C1676 C1671 1.390 . S
C1676 C1675 1.387 . S
H1677 C1689 0.930 . S
H1678 C1691 0.930 . S
H1679 C1692 0.930 . S
H1680 C1696 0.959 . S
H1681 C1696 0.959 . S
H1682 C1696 0.961 . S
H1683 C1697 0.960 . S
H1684 C1697 0.961 . S
H1685 C1697 0.959 . S
H1686 C1700 0.929 . S
H1687 C1701 0.931 . S
H1688 C1703 0.930 . S
C1689 H1677 0.930 . S
C1689 C1690 1.399 . S
C1689 C1694 1.399 . S
C1690 C1689 1.399 . S
C1690 C1691 1.376 . S
C1691 H1678 0.930 . S
C1691 C1690 1.376 . S
C1691 C1692 1.388 . S
C1692 H1679 0.930 . S
C1692 C1691 1.388 . S
C1692 C1693 1.390 . S
C1693 C1692 1.390 . S
C1693 C1694 1.394 . S
C1693 C1699 1.465 . S
C1694 C1689 1.399 . S
C1694 C1693 1.394 . S
C1694 C1695 1.516 . S
C1695 C1694 1.516 . S
C1695 C1696 1.502 . S
C1695 C1697 1.561 . S
C1695 C1698 1.526 . S
C1696 H1680 0.959 . S
C1696 H1681 0.959 . S
C1696 H1682 0.961 . S
C1696 C1695 1.502 . S
C1697 H1683 0.960 . S
C1697 H1684 0.961 . S
C1697 H1685 0.959 . S
C1697 C1695 1.561 . S
C1698 C1695 1.526 . S
C1698 C1699 1.396 . S
C1698 C1703 1.390 . S
C1699 C1693 1.465 . S
C1699 C1698 1.396 . S
C1699 C1700 1.399 . S
C1700 H1686 0.929 . S
C1700 C1699 1.399 . S
C1700 C1701 1.385 . S
C1701 H1687 0.931 . S
C1701 C1700 1.385 . S
C1701 C1702 1.389 . S
C1702 C1701 1.389 . S
C1702 C1703 1.387 . S
C1703 H1688 0.930 . S
C1703 C1698 1.390 . S
C1703 C1702 1.387 . S
H1704 C1716 0.930 . S
H1705 C1718 0.930 . S
H1706 C1719 0.930 . S
H1707 C1723 0.959 . S
H1708 C1723 0.959 . S
H1709 C1723 0.961 . S
H1710 C1724 0.960 . S
H1711 C1724 0.961 . S
H1712 C1724 0.959 . S
H1713 C1727 0.929 . S
H1714 C1728 0.931 . S
H1715 C1730 0.930 . S
C1716 H1704 0.930 . S
C1716 C1717 1.399 . S
C1716 C1721 1.399 . S
C1717 C1716 1.399 . S
C1717 C1718 1.376 . S
C1718 H1705 0.930 . S
C1718 C1717 1.376 . S
C1718 C1719 1.388 . S
C1719 H1706 0.930 . S
C1719 C1718 1.388 . S
C1719 C1720 1.390 . S
C1720 C1719 1.390 . S
C1720 C1721 1.394 . S
C1720 C1726 1.465 . S
C1721 C1716 1.399 . S
C1721 C1720 1.394 . S
C1721 C1722 1.516 . S
C1722 C1721 1.516 . S
C1722 C1723 1.502 . S
C1722 C1724 1.561 . S
C1722 C1725 1.526 . S
C1723 H1707 0.959 . S
C1723 H1708 0.959 . S
C1723 H1709 0.961 . S
C1723 C1722 1.502 . S
C1724 H1710 0.960 . S
C1724 H1711 0.961 . S
C1724 H1712 0.959 . S
C1724 C1722 1.561 . S
C1725 C1722 1.526 . S
C1725 C1726 1.396 . S
C1725 C1730 1.390 . S
C1726 C1720 1.465 . S
C1726 C1725 1.396 . S
C1726 C1727 1.399 . S
C1727 H1713 0.929 . S
C1727 C1726 1.399 . S
C1727 C1728 1.385 . S
C1728 H1714 0.931 . S
C1728 C1727 1.385 . S
C1728 C1729 1.389 . S
C1729 C1728 1.389 . S
C1729 C1730 1.387 . S
C1730 H1715 0.930 . S
C1730 C1725 1.390 . S
C1730 C1729 1.387 . S
H1731 C1743 0.930 . S
H1732 C1745 0.930 . S
H1733 C1746 0.930 . S
H1734 C1750 0.959 . S
H1735 C1750 0.959 . S
H1736 C1750 0.961 . S
H1737 C1751 0.960 . S
H1738 C1751 0.961 . S
H1739 C1751 0.959 . S
H1740 C1754 0.929 . S
H1741 C1755 0.931 . S
H1742 C1757 0.930 . S
C1743 H1731 0.930 . S
C1743 C1744 1.399 . S
C1743 C1748 1.399 . S
C1744 C1743 1.399 . S
C1744 C1745 1.376 . S
C1745 H1732 0.930 . S
C1745 C1744 1.376 . S
C1745 C1746 1.388 . S
C1746 H1733 0.930 . S
C1746 C1745 1.388 . S
C1746 C1747 1.390 . S
C1747 C1746 1.390 . S
C1747 C1748 1.394 . S
C1747 C1753 1.465 . S
C1748 C1743 1.399 . S
C1748 C1747 1.394 . S
C1748 C1749 1.516 . S
C1749 C1748 1.516 . S
C1749 C1750 1.502 . S
C1749 C1751 1.561 . S
C1749 C1752 1.526 . S
C1750 H1734 0.959 . S
C1750 H1735 0.959 . S
C1750 H1736 0.961 . S
C1750 C1749 1.502 . S
C1751 H1737 0.960 . S
C1751 H1738 0.961 . S
C1751 H1739 0.959 . S
C1751 C1749 1.561 . S
C1752 C1749 1.526 . S
C1752 C1753 1.396 . S
C1752 C1757 1.390 . S
C1753 C1747 1.465 . S
C1753 C1752 1.396 . S
C1753 C1754 1.399 . S
C1754 H1740 0.929 . S
C1754 C1753 1.399 . S
C1754 C1755 1.385 . S
C1755 H1741 0.931 . S
C1755 C1754 1.385 . S
C1755 C1756 1.389 . S
C1756 C1755 1.389 . S
C1756 C1757 1.387 . S
C1757 H1742 0.930 . S
C1757 C1752 1.390 . S
C1757 C1756 1.387 . S
H1758 C1770 0.930 . S
H1759 C1772 0.930 . S
H1760 C1773 0.930 . S
H1761 C1777 0.959 . S
H1762 C1777 0.959 . S
H1763 C1777 0.961 . S
H1764 C1778 0.960 . S
H1765 C1778 0.961 . S
H1766 C1778 0.959 . S
H1767 C1781 0.929 . S
H1768 C1782 0.931 . S
H1769 C1784 0.930 . S
C1770 H1758 0.930 . S
C1770 C1771 1.399 . S
C1770 C1775 1.399 . S
C1771 C1770 1.399 . S
C1771 C1772 1.376 . S
C1772 H1759 0.930 . S
C1772 C1771 1.376 . S
C1772 C1773 1.388 . S
C1773 H1760 0.930 . S
C1773 C1772 1.388 . S
C1773 C1774 1.390 . S
C1774 C1773 1.390 . S
C1774 C1775 1.394 . S
C1774 C1780 1.465 . S
C1775 C1770 1.399 . S
C1775 C1774 1.394 . S
C1775 C1776 1.516 . S
C1776 C1775 1.516 . S
C1776 C1777 1.502 . S
C1776 C1778 1.561 . S
C1776 C1779 1.526 . S
C1777 H1761 0.959 . S
C1777 H1762 0.959 . S
C1777 H1763 0.961 . S
C1777 C1776 1.502 . S
C1778 H1764 0.960 . S
C1778 H1765 0.961 . S
C1778 H1766 0.959 . S
C1778 C1776 1.561 . S
C1779 C1776 1.526 . S
C1779 C1780 1.396 . S
C1779 C1784 1.390 . S
C1780 C1774 1.465 . S
C1780 C1779 1.396 . S
C1780 C1781 1.399 . S
C1781 H1767 0.929 . S
C1781 C1780 1.399 . S
C1781 C1782 1.385 . S
C1782 H1768 0.931 . S
C1782 C1781 1.385 . S
C1782 C1783 1.389 . S
C1783 C1782 1.389 . S
C1783 C1784 1.387 . S
C1784 H1769 0.930 . S
C1784 C1779 1.390 . S
C1784 C1783 1.387 . S
H1785 C1797 0.930 . S
H1786 C1799 0.930 . S
H1787 C1800 0.930 . S
H1788 C1804 0.959 . S
H1789 C1804 0.959 . S
H1790 C1804 0.961 . S
H1791 C1805 0.960 . S
H1792 C1805 0.961 . S
H1793 C1805 0.959 . S
H1794 C1808 0.929 . S
H1795 C1809 0.931 . S
H1796 C1811 0.930 . S
C1797 H1785 0.930 . S
C1797 C1798 1.399 . S
C1797 C1802 1.399 . S
C1798 C1797 1.399 . S
C1798 C1799 1.376 . S
C1799 H1786 0.930 . S
C1799 C1798 1.376 . S
C1799 C1800 1.388 . S
C1800 H1787 0.930 . S
C1800 C1799 1.388 . S
C1800 C1801 1.390 . S
C1801 C1800 1.390 . S
C1801 C1802 1.394 . S
C1801 C1807 1.465 . S
C1802 C1797 1.399 . S
C1802 C1801 1.394 . S
C1802 C1803 1.516 . S
C1803 C1802 1.516 . S
C1803 C1804 1.502 . S
C1803 C1805 1.561 . S
C1803 C1806 1.526 . S
C1804 H1788 0.959 . S
C1804 H1789 0.959 . S
C1804 H1790 0.961 . S
C1804 C1803 1.502 . S
C1805 H1791 0.960 . S
C1805 H1792 0.961 . S
C1805 H1793 0.959 . S
C1805 C1803 1.561 . S
C1806 C1803 1.526 . S
C1806 C1807 1.396 . S
C1806 C1811 1.390 . S
C1807 C1801 1.465 . S
C1807 C1806 1.396 . S
C1807 C1808 1.399 . S
C1808 H1794 0.929 . S
C1808 C1807 1.399 . S
C1808 C1809 1.385 . S
C1809 H1795 0.931 . S
C1809 C1808 1.385 . S
C1809 C1810 1.389 . S
C1810 C1809 1.389 . S
C1810 C1811 1.387 . S
C1811 H1796 0.930 . S
C1811 C1806 1.390 . S
C1811 C1810 1.387 . S
H1812 C1824 0.930 . S
H1813 C1826 0.930 . S
H1814 C1827 0.930 . S
H1815 C1831 0.959 . S
H1816 C1831 0.959 . S
H1817 C1831 0.961 . S
H1818 C1832 0.960 . S
H1819 C1832 0.961 . S
H1820 C1832 0.959 . S
H1821 C1835 0.929 . S
H1822 C1836 0.931 . S
H1823 C1838 0.930 . S
C1824 H1812 0.930 . S
C1824 C1825 1.399 . S
C1824 C1829 1.399 . S
C1825 C1824 1.399 . S
C1825 C1826 1.376 . S
C1826 H1813 0.930 . S
C1826 C1825 1.376 . S
C1826 C1827 1.388 . S
C1827 H1814 0.930 . S
C1827 C1826 1.388 . S
C1827 C1828 1.390 . S
C1828 C1827 1.390 . S
C1828 C1829 1.394 . S
C1828 C1834 1.465 . S
C1829 C1824 1.399 . S
C1829 C1828 1.394 . S
C1829 C1830 1.516 . S
C1830 C1829 1.516 . S
C1830 C1831 1.502 . S
C1830 C1832 1.561 . S
C1830 C1833 1.526 . S
C1831 H1815 0.959 . S
C1831 H1816 0.959 . S
C1831 H1817 0.961 . S
C1831 C1830 1.502 . S
C1832 H1818 0.960 . S
C1832 H1819 0.961 . S
C1832 H1820 0.959 . S
C1832 C1830 1.561 . S
C1833 C1830 1.526 . S
C1833 C1834 1.396 . S
C1833 C1838 1.390 . S
C1834 C1828 1.465 . S
C1834 C1833 1.396 . S
C1834 C1835 1.399 . S
C1835 H1821 0.929 . S
C1835 C1834 1.399 . S
C1835 C1836 1.385 . S
C1836 H1822 0.931 . S
C1836 C1835 1.385 . S
C1836 C1837 1.389 . S
C1837 C1836 1.389 . S
C1837 C1838 1.387 . S
C1838 H1823 0.930 . S
C1838 C1833 1.390 . S
C1838 C1837 1.387 . S
H1839 C1851 0.930 . S
H1840 C1853 0.930 . S
H1841 C1854 0.930 . S
H1842 C1858 0.959 . S
H1843 C1858 0.959 . S
H1844 C1858 0.961 . S
H1845 C1859 0.960 . S
H1846 C1859 0.961 . S
H1847 C1859 0.959 . S
H1848 C1862 0.929 . S
H1849 C1863 0.931 . S
H1850 C1865 0.930 . S
C1851 H1839 0.930 . S
C1851 C1852 1.399 . S
C1851 C1856 1.399 . S
C1852 C1851 1.399 . S
C1852 C1853 1.376 . S
C1853 H1840 0.930 . S
C1853 C1852 1.376 . S
C1853 C1854 1.388 . S
C1854 H1841 0.930 . S
C1854 C1853 1.388 . S
C1854 C1855 1.390 . S
C1855 C1854 1.390 . S
C1855 C1856 1.394 . S
C1855 C1861 1.465 . S
C1856 C1851 1.399 . S
C1856 C1855 1.394 . S
C1856 C1857 1.516 . S
C1857 C1856 1.516 . S
C1857 C1858 1.502 . S
C1857 C1859 1.561 . S
C1857 C1860 1.526 . S
C1858 H1842 0.959 . S
C1858 H1843 0.959 . S
C1858 H1844 0.961 . S
C1858 C1857 1.502 . S
C1859 H1845 0.960 . S
C1859 H1846 0.961 . S
C1859 H1847 0.959 . S
C1859 C1857 1.561 . S
C1860 C1857 1.526 . S
C1860 C1861 1.396 . S
C1860 C1865 1.390 . S
C1861 C1855 1.465 . S
C1861 C1860 1.396 . S
C1861 C1862 1.399 . S
C1862 H1848 0.929 . S
C1862 C1861 1.399 . S
C1862 C1863 1.385 . S
C1863 H1849 0.931 . S
C1863 C1862 1.385 . S
C1863 C1864 1.389 . S
C1864 C1863 1.389 . S
C1864 C1865 1.387 . S
C1865 H1850 0.930 . S
C1865 C1860 1.390 . S
C1865 C1864 1.387 . S
H1866 C1878 0.930 . S
H1867 C1880 0.930 . S
H1868 C1881 0.930 . S
H1869 C1885 0.959 . S
H1870 C1885 0.959 . S
H1871 C1885 0.961 . S
H1872 C1886 0.960 . S
H1873 C1886 0.961 . S
H1874 C1886 0.959 . S
H1875 C1889 0.929 . S
H1876 C1890 0.931 . S
H1877 C1892 0.930 . S
C1878 H1866 0.930 . S
C1878 C1879 1.399 . S
C1878 C1883 1.399 . S
C1879 C1878 1.399 . S
C1879 C1880 1.376 . S
C1880 H1867 0.930 . S
C1880 C1879 1.376 . S
C1880 C1881 1.388 . S
C1881 H1868 0.930 . S
C1881 C1880 1.388 . S
C1881 C1882 1.390 . S
C1882 C1881 1.390 . S
C1882 C1883 1.394 . S
C1882 C1888 1.465 . S
C1883 C1878 1.399 . S
C1883 C1882 1.394 . S
C1883 C1884 1.516 . S
C1884 C1883 1.516 . S
C1884 C1885 1.502 . S
C1884 C1886 1.561 . S
C1884 C1887 1.526 . S
C1885 H1869 0.959 . S
C1885 H1870 0.959 . S
C1885 H1871 0.961 . S
C1885 C1884 1.502 . S
C1886 H1872 0.960 . S
C1886 H1873 0.961 . S
C1886 H1874 0.959 . S
C1886 C1884 1.561 . S
C1887 C1884 1.526 . S
C1887 C1888 1.396 . S
C1887 C1892 1.390 . S
C1888 C1882 1.465 . S
C1888 C1887 1.396 . S
C1888 C1889 1.399 . S
C1889 H1875 0.929 . S
C1889 C1888 1.399 . S
C1889 C1890 1.385 . S
C1890 H1876 0.931 . S
C1890 C1889 1.385 . S
C1890 C1891 1.389 . S
C1891 C1890 1.389 . S
C1891 C1892 1.387 . S
C1892 H1877 0.930 . S
C1892 C1887 1.390 . S
C1892 C1891 1.387 . S
H1893 C1905 0.930 . S
H1894 C1907 0.930 . S
H1895 C1908 0.930 . S
H1896 C1912 0.959 . S
H1897 C1912 0.959 . S
H1898 C1912 0.961 . S
H1899 C1913 0.960 . S
H1900 C1913 0.961 . S
H1901 C1913 0.959 . S
H1902 C1916 0.929 . S
H1903 C1917 0.931 . S
H1904 C1919 0.930 . S
C1905 H1893 0.930 . S
C1905 C1906 1.399 . S
C1905 C1910 1.399 . S
C1906 C1905 1.399 . S
C1906 C1907 1.376 . S
C1907 H1894 0.930 . S
C1907 C1906 1.376 . S
C1907 C1908 1.388 . S
C1908 H1895 0.930 . S
C1908 C1907 1.388 . S
C1908 C1909 1.390 . S
C1909 C1908 1.390 . S
C1909 C1910 1.394 . S
C1909 C1915 1.465 . S
C1910 C1905 1.399 . S
C1910 C1909 1.394 . S
C1910 C1911 1.516 . S
C1911 C1910 1.516 . S
C1911 C1912 1.502 . S
C1911 C1913 1.561 . S
C1911 C1914 1.526 . S
C1912 H1896 0.959 . S
C1912 H1897 0.959 . S
C1912 H1898 0.961 . S
C1912 C1911 1.502 . S
C1913 H1899 0.960 . S
C1913 H1900 0.961 . S
C1913 H1901 0.959 . S
C1913 C1911 1.561 . S
C1914 C1911 1.526 . S
C1914 C1915 1.396 . S
C1914 C1919 1.390 . S
C1915 C1909 1.465 . S
C1915 C1914 1.396 . S
C1915 C1916 1.399 . S
C1916 H1902 0.929 . S
C1916 C1915 1.399 . S
C1916 C1917 1.385 . S
C1917 H1903 0.931 . S
C1917 C1916 1.385 . S
C1917 C1918 1.389 . S
C1918 C1917 1.389 . S
C1918 C1919 1.387 . S
C1919 H1904 0.930 . S
C1919 C1914 1.390 . S
C1919 C1918 1.387 . S
H1920 C1932 0.930 . S
H1921 C1934 0.930 . S
H1922 C1935 0.930 . S
H1923 C1939 0.959 . S
H1924 C1939 0.959 . S
H1925 C1939 0.961 . S
H1926 C1940 0.960 . S
H1927 C1940 0.961 . S
H1928 C1940 0.959 . S
H1929 C1943 0.929 . S
H1930 C1944 0.931 . S
H1931 C1946 0.930 . S
C1932 H1920 0.930 . S
C1932 C1933 1.399 . S
C1932 C1937 1.399 . S
C1933 C1932 1.399 . S
C1933 C1934 1.376 . S
C1934 H1921 0.930 . S
C1934 C1933 1.376 . S
C1934 C1935 1.388 . S
C1935 H1922 0.930 . S
C1935 C1934 1.388 . S
C1935 C1936 1.390 . S
C1936 C1935 1.390 . S
C1936 C1937 1.394 . S
C1936 C1942 1.465 . S
C1937 C1932 1.399 . S
C1937 C1936 1.394 . S
C1937 C1938 1.516 . S
C1938 C1937 1.516 . S
C1938 C1939 1.502 . S
C1938 C1940 1.561 . S
C1938 C1941 1.526 . S
C1939 H1923 0.959 . S
C1939 H1924 0.959 . S
C1939 H1925 0.961 . S
C1939 C1938 1.502 . S
C1940 H1926 0.960 . S
C1940 H1927 0.961 . S
C1940 H1928 0.959 . S
C1940 C1938 1.561 . S
C1941 C1938 1.526 . S
C1941 C1942 1.396 . S
C1941 C1946 1.390 . S
C1942 C1936 1.465 . S
C1942 C1941 1.396 . S
C1942 C1943 1.399 . S
C1943 H1929 0.929 . S
C1943 C1942 1.399 . S
C1943 C1944 1.385 . S
C1944 H1930 0.931 . S
C1944 C1943 1.385 . S
C1944 C1945 1.389 . S
C1945 C1944 1.389 . S
C1945 C1946 1.387 . S
C1946 H1931 0.930 . S
C1946 C1941 1.390 . S
C1946 C1945 1.387 . S
H1947 C1959 0.930 . S
H1948 C1961 0.930 . S
H1949 C1962 0.930 . S
H1950 C1966 0.959 . S
H1951 C1966 0.959 . S
H1952 C1966 0.961 . S
H1953 C1967 0.960 . S
H1954 C1967 0.961 . S
H1955 C1967 0.959 . S
H1956 C1970 0.929 . S
H1957 C1971 0.931 . S
H1958 C1973 0.930 . S
C1959 H1947 0.930 . S
C1959 C1960 1.399 . S
C1959 C1964 1.399 . S
C1960 C1959 1.399 . S
C1960 C1961 1.376 . S
C1961 H1948 0.930 . S
C1961 C1960 1.376 . S
C1961 C1962 1.388 . S
C1962 H1949 0.930 . S
C1962 C1961 1.388 . S
C1962 C1963 1.390 . S
C1963 C1962 1.390 . S
C1963 C1964 1.394 . S
C1963 C1969 1.465 . S
C1964 C1959 1.399 . S
C1964 C1963 1.394 . S
C1964 C1965 1.516 . S
C1965 C1964 1.516 . S
C1965 C1966 1.502 . S
C1965 C1967 1.561 . S
C1965 C1968 1.526 . S
C1966 H1950 0.959 . S
C1966 H1951 0.959 . S
C1966 H1952 0.961 . S
C1966 C1965 1.502 . S
C1967 H1953 0.960 . S
C1967 H1954 0.961 . S
C1967 H1955 0.959 . S
C1967 C1965 1.561 . S
C1968 C1965 1.526 . S
C1968 C1969 1.396 . S
C1968 C1973 1.390 . S
C1969 C1963 1.465 . S
C1969 C1968 1.396 . S
C1969 C1970 1.399 . S
C1970 H1956 0.929 . S
C1970 C1969 1.399 . S
C1970 C1971 1.385 . S
C1971 H1957 0.931 . S
C1971 C1970 1.385 . S
C1971 C1972 1.389 . S
C1972 C1971 1.389 . S
C1972 C1973 1.387 . S
C1973 H1958 0.930 . S
C1973 C1968 1.390 . S
C1973 C1972 1.387 . S
H1974 C1986 0.930 . S
H1975 C1988 0.930 . S
H1976 C1989 0.930 1_545 S
H1977 C1993 0.959 1_545 S
H1978 C1993 0.959 . S
H1979 C1993 0.961 . S
H1980 C1994 0.960 . S
H1981 C1994 0.961 . S
H1982 C1994 0.959 . S
H1983 C1997 0.929 . S
H1984 C1998 0.931 . S
H1985 C2000 0.930 . S
C1986 H1974 0.930 . S
C1986 C1987 1.399 . S
C1986 C1991 1.399 . S
C1987 C1986 1.399 . S
C1987 C1988 1.376 . S
C1988 H1975 0.930 . S
C1988 C1987 1.376 . S
C1988 C1989 1.388 . S
C1989 H1976 0.930 1_565 S
C1989 C1988 1.388 . S
C1989 C1990 1.390 . S
C1990 C1989 1.390 . S
C1990 C1991 1.394 . S
C1990 C1996 1.465 1_565 S
C1991 C1986 1.399 . S
C1991 C1990 1.394 . S
C1991 C1992 1.516 . S
C1992 C1991 1.516 . S
C1992 C1993 1.502 . S
C1992 C1994 1.561 . S
C1992 C1995 1.526 1_565 S
C1993 H1977 0.959 1_565 S
C1993 H1978 0.959 . S
C1993 H1979 0.961 . S
C1993 C1992 1.502 . S
C1994 H1980 0.960 . S
C1994 H1981 0.961 . S
C1994 H1982 0.959 . S
C1994 C1992 1.561 . S
C1995 C1992 1.526 1_545 S
C1995 C1996 1.396 . S
C1995 C2000 1.390 . S
C1996 C1990 1.465 1_545 S
C1996 C1995 1.396 . S
C1996 C1997 1.399 . S
C1997 H1983 0.929 . S
C1997 C1996 1.399 . S
C1997 C1998 1.385 . S
C1998 H1984 0.931 . S
C1998 C1997 1.385 . S
C1998 C1999 1.389 . S
C1999 C1998 1.389 . S
C1999 C2000 1.387 . S
C2000 H1985 0.930 . S
C2000 C1995 1.390 . S
C2000 C1999 1.387 . S
H2001 C2013 0.930 . S
H2002 C2015 0.930 . S
H2003 C2016 0.930 . S
H2004 C2020 0.959 . S
H2005 C2020 0.959 . S
H2006 C2020 0.961 . S
H2007 C2021 0.960 1_455 S
H2008 C2021 0.961 . S
H2009 C2021 0.959 . S
H2010 C2024 0.929 . S
H2011 C2025 0.931 . S
H2012 C2027 0.930 . S
C2013 H2001 0.930 . S
C2013 C2014 1.399 . S
C2013 C2018 1.399 1_455 S
C2014 C2013 1.399 . S
C2014 C2015 1.376 1_455 S
C2015 H2002 0.930 . S
C2015 C2014 1.376 1_655 S
C2015 C2016 1.388 . S
C2016 H2003 0.930 . S
C2016 C2015 1.388 . S
C2016 C2017 1.390 . S
C2017 C2016 1.390 . S
C2017 C2018 1.394 . S
C2017 C2023 1.465 . S
C2018 C2013 1.399 1_655 S
C2018 C2017 1.394 . S
C2018 C2019 1.516 . S
C2019 C2018 1.516 . S
C2019 C2020 1.502 1_655 S
C2019 C2021 1.561 . S
C2019 C2022 1.526 . S
C2020 H2004 0.959 . S
C2020 H2005 0.959 . S
C2020 H2006 0.961 . S
C2020 C2019 1.502 1_455 S
C2021 H2007 0.960 1_655 S
C2021 H2008 0.961 . S
C2021 H2009 0.959 . S
C2021 C2019 1.561 . S
C2022 C2019 1.526 . S
C2022 C2023 1.396 . S
C2022 C2027 1.390 . S
C2023 C2017 1.465 . S
C2023 C2022 1.396 . S
C2023 C2024 1.399 . S
C2024 H2010 0.929 . S
C2024 C2023 1.399 . S
C2024 C2025 1.385 . S
C2025 H2011 0.931 . S
C2025 C2024 1.385 . S
C2025 C2026 1.389 . S
C2026 C2025 1.389 . S
C2026 C2027 1.387 . S
C2027 H2012 0.930 . S
C2027 C2022 1.390 . S
C2027 C2026 1.387 . S
H2028 C2040 0.930 . S
H2029 C2042 0.930 . S
H2030 C2043 0.930 . S
H2031 C2047 0.959 1_545 S
H2032 C2047 0.959 1_545 S
H2033 C2047 0.961 . S
H2034 C2048 0.960 . S
H2035 C2048 0.961 . S
H2036 C2048 0.959 . S
H2037 C2051 0.929 . S
H2038 C2052 0.931 . S
H2039 C2054 0.930 . S
C2040 H2028 0.930 . S
C2040 C2041 1.399 . S
C2040 C2045 1.399 . S
C2041 C2040 1.399 . S
C2041 C2042 1.376 . S
C2042 H2029 0.930 . S
C2042 C2041 1.376 . S
C2042 C2043 1.388 . S
C2043 H2030 0.930 . S
C2043 C2042 1.388 . S
C2043 C2044 1.390 . S
C2044 C2043 1.390 . S
C2044 C2045 1.394 . S
C2044 C2050 1.465 1_565 S
C2045 C2040 1.399 . S
C2045 C2044 1.394 . S
C2045 C2046 1.516 . S
C2046 C2045 1.516 . S
C2046 C2047 1.502 . S
C2046 C2048 1.561 . S
C2046 C2049 1.526 1_565 S
C2047 H2031 0.959 1_565 S
C2047 H2032 0.959 1_565 S
C2047 H2033 0.961 . S
C2047 C2046 1.502 . S
C2048 H2034 0.960 . S
C2048 H2035 0.961 . S
C2048 H2036 0.959 . S
C2048 C2046 1.561 . S
C2049 C2046 1.526 1_545 S
C2049 C2050 1.396 . S
C2049 C2054 1.390 . S
C2050 C2044 1.465 1_545 S
C2050 C2049 1.396 . S
C2050 C2051 1.399 . S
C2051 H2037 0.929 . S
C2051 C2050 1.399 . S
C2051 C2052 1.385 . S
C2052 H2038 0.931 . S
C2052 C2051 1.385 . S
C2052 C2053 1.389 . S
C2053 C2052 1.389 . S
C2053 C2054 1.387 . S
C2054 H2039 0.930 . S
C2054 C2049 1.390 . S
C2054 C2053 1.387 . S
H2055 C2067 0.930 . S
H2056 C2069 0.930 . S
H2057 C2070 0.930 . S
H2058 C2074 0.959 . S
H2059 C2074 0.959 . S
H2060 C2074 0.961 . S
H2061 C2075 0.960 . S
H2062 C2075 0.961 1_455 S
H2063 C2075 0.959 1_455 S
H2064 C2078 0.929 . S
H2065 C2079 0.931 . S
H2066 C2081 0.930 . S
C2067 H2055 0.930 . S
C2067 C2068 1.399 . S
C2067 C2072 1.399 . S
C2068 C2067 1.399 . S
C2068 C2069 1.376 . S
C2069 H2056 0.930 . S
C2069 C2068 1.376 . S
C2069 C2070 1.388 . S
C2070 H2057 0.930 . S
C2070 C2069 1.388 . S
C2070 C2071 1.390 . S
C2071 C2070 1.390 . S
C2071 C2072 1.394 . S
C2071 C2077 1.465 . S
C2072 C2067 1.399 . S
C2072 C2071 1.394 . S
C2072 C2073 1.516 . S
C2073 C2072 1.516 . S
C2073 C2074 1.502 . S
C2073 C2075 1.561 . S
C2073 C2076 1.526 . S
C2074 H2058 0.959 . S
C2074 H2059 0.959 . S
C2074 H2060 0.961 . S
C2074 C2073 1.502 . S
C2075 H2061 0.960 . S
C2075 H2062 0.961 1_655 S
C2075 H2063 0.959 1_655 S
C2075 C2073 1.561 . S
C2076 C2073 1.526 . S
C2076 C2077 1.396 . S
C2076 C2081 1.390 1_655 S
C2077 C2071 1.465 . S
C2077 C2076 1.396 . S
C2077 C2078 1.399 1_655 S
C2078 H2064 0.929 . S
C2078 C2077 1.399 1_455 S
C2078 C2079 1.385 . S
C2079 H2065 0.931 . S
C2079 C2078 1.385 . S
C2079 C2080 1.389 . S
C2080 C2079 1.389 . S
C2080 C2081 1.387 . S
C2081 H2066 0.930 . S
C2081 C2076 1.390 1_455 S
C2081 C2080 1.387 . S
H2082 C2094 0.930 . S
H2083 C2096 0.930 . S
H2084 C2097 0.930 . S
H2085 C2101 0.959 . S
H2086 C2101 0.959 . S
H2087 C2101 0.961 . S
H2088 C2102 0.960 . S
H2089 C2102 0.961 . S
H2090 C2102 0.959 . S
H2091 C2105 0.929 . S
H2092 C2106 0.931 . S
H2093 C2108 0.930 . S
C2094 H2082 0.930 . S
C2094 C2095 1.399 . S
C2094 C2099 1.399 . S
C2095 C2094 1.399 . S
C2095 C2096 1.376 . S
C2096 H2083 0.930 . S
C2096 C2095 1.376 . S
C2096 C2097 1.388 . S
C2097 H2084 0.930 . S
C2097 C2096 1.388 . S
C2097 C2098 1.390 . S
C2098 C2097 1.390 . S
C2098 C2099 1.394 . S
C2098 C2104 1.465 . S
C2099 C2094 1.399 . S
C2099 C2098 1.394 . S
C2099 C2100 1.516 . S
C2100 C2099 1.516 . S
C2100 C2101 1.502 . S
C2100 C2102 1.561 . S
C2100 C2103 1.526 . S
C2101 H2085 0.959 . S
C2101 H2086 0.959 . S
C2101 H2087 0.961 . S
C2101 C2100 1.502 . S
C2102 H2088 0.960 . S
C2102 H2089 0.961 . S
C2102 H2090 0.959 . S
C2102 C2100 1.561 . S
C2103 C2100 1.526 . S
C2103 C2104 1.396 . S
C2103 C2108 1.390 . S
C2104 C2098 1.465 . S
C2104 C2103 1.396 . S
C2104 C2105 1.399 . S
C2105 H2091 0.929 . S
C2105 C2104 1.399 . S
C2105 C2106 1.385 . S
C2106 H2092 0.931 . S
C2106 C2105 1.385 . S
C2106 C2107 1.389 . S
C2107 C2106 1.389 . S
C2107 C2108 1.387 . S
C2108 H2093 0.930 . S
C2108 C2103 1.390 . S
C2108 C2107 1.387 . S
H2109 C2121 0.930 . S
H2110 C2123 0.930 . S
H2111 C2124 0.930 . S
H2112 C2128 0.959 . S
H2113 C2128 0.959 . S
H2114 C2128 0.961 . S
H2115 C2129 0.960 . S
H2116 C2129 0.961 . S
H2117 C2129 0.959 . S
H2118 C2132 0.929 . S
H2119 C2133 0.931 . S
H2120 C2135 0.930 . S
C2121 H2109 0.930 . S
C2121 C2122 1.399 . S
C2121 C2126 1.399 . S
C2122 C2121 1.399 . S
C2122 C2123 1.376 . S
C2123 H2110 0.930 . S
C2123 C2122 1.376 . S
C2123 C2124 1.388 . S
C2124 H2111 0.930 . S
C2124 C2123 1.388 . S
C2124 C2125 1.390 . S
C2125 C2124 1.390 . S
C2125 C2126 1.394 . S
C2125 C2131 1.465 . S
C2126 C2121 1.399 . S
C2126 C2125 1.394 . S
C2126 C2127 1.516 . S
C2127 C2126 1.516 . S
C2127 C2128 1.502 . S
C2127 C2129 1.561 . S
C2127 C2130 1.526 . S
C2128 H2112 0.959 . S
C2128 H2113 0.959 . S
C2128 H2114 0.961 . S
C2128 C2127 1.502 . S
C2129 H2115 0.960 . S
C2129 H2116 0.961 . S
C2129 H2117 0.959 . S
C2129 C2127 1.561 . S
C2130 C2127 1.526 . S
C2130 C2131 1.396 . S
C2130 C2135 1.390 . S
C2131 C2125 1.465 . S
C2131 C2130 1.396 . S
C2131 C2132 1.399 . S
C2132 H2118 0.929 . S
C2132 C2131 1.399 . S
C2132 C2133 1.385 . S
C2133 H2119 0.931 . S
C2133 C2132 1.385 . S
C2133 C2134 1.389 . S
C2134 C2133 1.389 . S
C2134 C2135 1.387 . S
C2135 H2120 0.930 . S
C2135 C2130 1.390 . S
C2135 C2134 1.387 . S
H2136 C2148 0.930 . S
H2137 C2150 0.930 . S
H2138 C2151 0.930 . S
H2139 C2155 0.959 . S
H2140 C2155 0.959 . S
H2141 C2155 0.961 . S
H2142 C2156 0.960 . S
H2143 C2156 0.961 . S
H2144 C2156 0.959 . S
H2145 C2159 0.929 . S
H2146 C2160 0.931 . S
H2147 C2162 0.930 . S
C2148 H2136 0.930 . S
C2148 C2149 1.399 . S
C2148 C2153 1.399 . S
C2149 C2148 1.399 . S
C2149 C2150 1.376 . S
C2150 H2137 0.930 . S
C2150 C2149 1.376 . S
C2150 C2151 1.388 . S
C2151 H2138 0.930 . S
C2151 C2150 1.388 . S
C2151 C2152 1.390 . S
C2152 C2151 1.390 . S
C2152 C2153 1.394 . S
C2152 C2158 1.465 . S
C2153 C2148 1.399 . S
C2153 C2152 1.394 . S
C2153 C2154 1.516 . S
C2154 C2153 1.516 . S
C2154 C2155 1.502 . S
C2154 C2156 1.561 . S
C2154 C2157 1.526 . S
C2155 H2139 0.959 . S
C2155 H2140 0.959 . S
C2155 H2141 0.961 . S
C2155 C2154 1.502 . S
C2156 H2142 0.960 . S
C2156 H2143 0.961 . S
C2156 H2144 0.959 . S
C2156 C2154 1.561 . S
C2157 C2154 1.526 . S
C2157 C2158 1.396 . S
C2157 C2162 1.390 . S
C2158 C2152 1.465 . S
C2158 C2157 1.396 . S
C2158 C2159 1.399 . S
C2159 H2145 0.929 . S
C2159 C2158 1.399 . S
C2159 C2160 1.385 . S
C2160 H2146 0.931 . S
C2160 C2159 1.385 . S
C2160 C2161 1.389 . S
C2161 C2160 1.389 . S
C2161 C2162 1.387 . S
C2162 H2147 0.930 . S
C2162 C2157 1.390 . S
C2162 C2161 1.387 . S
H2163 C2175 0.930 . S
H2164 C2177 0.930 . S
H2165 C2178 0.930 . S
H2166 C2182 0.959 . S
H2167 C2182 0.959 . S
H2168 C2182 0.961 . S
H2169 C2183 0.960 . S
H2170 C2183 0.961 . S
H2171 C2183 0.959 . S
H2172 C2186 0.929 . S
H2173 C2187 0.931 . S
H2174 C2189 0.926 1_554 S
C2175 H2163 0.930 . S
C2175 C2176 1.399 . S
C2175 C2180 1.399 . S
C2176 C2175 1.399 . S
C2176 C2177 1.376 . S
C2177 H2164 0.930 . S
C2177 C2176 1.376 . S
C2177 C2178 1.388 . S
C2178 H2165 0.930 . S
C2178 C2177 1.388 . S
C2178 C2179 1.390 . S
C2179 C2178 1.390 . S
C2179 C2180 1.394 . S
C2179 C2185 1.465 1_554 S
C2180 C2175 1.399 . S
C2180 C2179 1.394 . S
C2180 C2181 1.516 . S
C2181 C2180 1.516 . S
C2181 C2182 1.502 . S
C2181 C2183 1.561 . S
C2181 C2184 1.526 . S
C2182 H2166 0.959 . S
C2182 H2167 0.959 . S
C2182 H2168 0.961 . S
C2182 C2181 1.502 . S
C2183 H2169 0.960 . S
C2183 H2170 0.961 . S
C2183 H2171 0.959 . S
C2183 C2181 1.561 . S
C2184 C2181 1.526 . S
C2184 C2185 1.396 1_554 S
C2184 C2189 1.390 1_554 S
C2185 C2179 1.465 1_556 S
C2185 C2184 1.396 1_556 S
C2185 C2186 1.399 . S
C2186 H2172 0.929 . S
C2186 C2185 1.399 . S
C2186 C2187 1.385 . S
C2187 H2173 0.931 . S
C2187 C2186 1.385 . S
C2187 C2188 1.389 . S
C2188 C2187 1.389 . S
C2188 C2189 1.387 . S
C2189 H2174 0.926 1_556 S
C2189 C2184 1.390 1_556 S
C2189 C2188 1.387 . S
H2190 C2202 0.930 . S
H2191 C2204 0.930 . S
H2192 C2205 0.930 . S
H2193 C2209 0.959 . S
H2194 C2209 0.959 . S
H2195 C2209 0.961 . S
H2196 C2210 0.960 . S
H2197 C2210 0.961 . S
H2198 C2210 0.959 . S
H2199 C2213 0.929 . S
H2200 C2214 0.931 . S
H2201 C2216 0.930 . S
C2202 H2190 0.930 . S
C2202 C2203 1.399 . S
C2202 C2207 1.399 . S
C2203 C2202 1.399 . S
C2203 C2204 1.376 . S
C2204 H2191 0.930 . S
C2204 C2203 1.376 . S
C2204 C2205 1.388 . S
C2205 H2192 0.930 . S
C2205 C2204 1.388 . S
C2205 C2206 1.390 . S
C2206 C2205 1.390 . S
C2206 C2207 1.394 . S
C2206 C2212 1.465 . S
C2207 C2202 1.399 . S
C2207 C2206 1.394 . S
C2207 C2208 1.516 . S
C2208 C2207 1.516 . S
C2208 C2209 1.502 . S
C2208 C2210 1.561 . S
C2208 C2211 1.526 . S
C2209 H2193 0.959 . S
C2209 H2194 0.959 . S
C2209 H2195 0.961 . S
C2209 C2208 1.502 . S
C2210 H2196 0.960 . S
C2210 H2197 0.961 . S
C2210 H2198 0.959 . S
C2210 C2208 1.561 . S
C2211 C2208 1.526 . S
C2211 C2212 1.396 . S
C2211 C2216 1.390 . S
C2212 C2206 1.465 . S
C2212 C2211 1.396 . S
C2212 C2213 1.399 . S
C2213 H2199 0.929 . S
C2213 C2212 1.399 . S
C2213 C2214 1.385 . S
C2214 H2200 0.931 . S
C2214 C2213 1.385 . S
C2214 C2215 1.389 . S
C2215 C2214 1.389 . S
C2215 C2216 1.387 . S
C2216 H2201 0.930 . S
C2216 C2211 1.390 . S
C2216 C2215 1.387 . S
H2217 C2229 0.930 . S
H2218 C2231 0.930 . S
H2219 C2232 0.930 . S
H2220 C2236 0.959 . S
H2221 C2236 0.959 . S
H2222 C2236 0.961 . S
H2223 C2237 0.960 1_556 S
H2224 C2237 0.961 . S
H2225 C2237 0.959 . S
H2226 C2240 0.929 . S
H2227 C2241 0.931 . S
H2228 C2243 0.930 . S
C2229 H2217 0.930 . S
C2229 C2230 1.399 . S
C2229 C2234 1.399 1_556 S
C2230 C2229 1.399 . S
C2230 C2231 1.376 1_556 S
C2231 H2218 0.930 . S
C2231 C2230 1.376 1_554 S
C2231 C2232 1.388 . S
C2232 H2219 0.930 . S
C2232 C2231 1.388 . S
C2232 C2233 1.390 . S
C2233 C2232 1.390 . S
C2233 C2234 1.394 . S
C2233 C2239 1.465 . S
C2234 C2229 1.399 1_554 S
C2234 C2233 1.394 . S
C2234 C2235 1.516 . S
C2235 C2234 1.516 . S
C2235 C2236 1.502 1_554 S
C2235 C2237 1.561 . S
C2235 C2238 1.526 . S
C2236 H2220 0.959 . S
C2236 H2221 0.959 . S
C2236 H2222 0.961 . S
C2236 C2235 1.502 1_556 S
C2237 H2223 0.960 1_554 S
C2237 H2224 0.961 . S
C2237 H2225 0.959 . S
C2237 C2235 1.561 . S
C2238 C2235 1.526 . S
C2238 C2239 1.396 . S
C2238 C2243 1.390 . S
C2239 C2233 1.465 . S
C2239 C2238 1.396 . S
C2239 C2240 1.399 . S
C2240 H2226 0.929 . S
C2240 C2239 1.399 . S
C2240 C2241 1.385 . S
C2241 H2227 0.931 . S
C2241 C2240 1.385 . S
C2241 C2242 1.389 . S
C2242 C2241 1.389 . S
C2242 C2243 1.387 . S
C2243 H2228 0.930 . S
C2243 C2238 1.390 . S
C2243 C2242 1.387 . S
H2244 C2256 0.930 . S
H2245 C2258 0.930 . S
H2246 C2259 0.930 . S
H2247 C2263 0.959 . S
H2248 C2263 0.959 . S
H2249 C2263 0.961 . S
H2250 C2264 0.960 . S
H2251 C2264 0.961 . S
H2252 C2264 0.959 . S
H2253 C2267 0.929 . S
H2254 C2268 0.931 . S
H2255 C2270 0.930 . S
C2256 H2244 0.930 . S
C2256 C2257 1.399 . S
C2256 C2261 1.399 . S
C2257 C2256 1.399 . S
C2257 C2258 1.376 . S
C2258 H2245 0.930 . S
C2258 C2257 1.376 . S
C2258 C2259 1.388 . S
C2259 H2246 0.930 . S
C2259 C2258 1.388 . S
C2259 C2260 1.390 . S
C2260 C2259 1.390 . S
C2260 C2261 1.394 . S
C2260 C2266 1.465 . S
C2261 C2256 1.399 . S
C2261 C2260 1.394 . S
C2261 C2262 1.516 . S
C2262 C2261 1.516 . S
C2262 C2263 1.502 . S
C2262 C2264 1.561 . S
C2262 C2265 1.526 . S
C2263 H2247 0.959 . S
C2263 H2248 0.959 . S
C2263 H2249 0.961 . S
C2263 C2262 1.502 . S
C2264 H2250 0.960 . S
C2264 H2251 0.961 . S
C2264 H2252 0.959 . S
C2264 C2262 1.561 . S
C2265 C2262 1.526 . S
C2265 C2266 1.396 . S
C2265 C2270 1.390 . S
C2266 C2260 1.465 . S
C2266 C2265 1.396 . S
C2266 C2267 1.399 . S
C2267 H2253 0.929 . S
C2267 C2266 1.399 . S
C2267 C2268 1.385 . S
C2268 H2254 0.931 . S
C2268 C2267 1.385 . S
C2268 C2269 1.389 . S
C2269 C2268 1.389 . S
C2269 C2270 1.387 . S
C2270 H2255 0.930 . S
C2270 C2265 1.390 . S
C2270 C2269 1.387 . S
H2271 C2283 0.930 . S
H2272 C2285 0.930 . S
H2273 C2286 0.930 . S
H2274 C2290 0.959 . S
H2275 C2290 0.959 . S
H2276 C2290 0.961 . S
H2277 C2291 0.960 . S
H2278 C2291 0.961 . S
H2279 C2291 0.959 . S
H2280 C2294 0.929 . S
H2281 C2295 0.931 . S
H2282 C2297 0.930 . S
C2283 H2271 0.930 . S
C2283 C2284 1.399 . S
C2283 C2288 1.399 . S
C2284 C2283 1.399 . S
C2284 C2285 1.376 . S
C2285 H2272 0.930 . S
C2285 C2284 1.376 . S
C2285 C2286 1.388 . S
C2286 H2273 0.930 . S
C2286 C2285 1.388 . S
C2286 C2287 1.390 . S
C2287 C2286 1.390 . S
C2287 C2288 1.394 . S
C2287 C2293 1.465 . S
C2288 C2283 1.399 . S
C2288 C2287 1.394 . S
C2288 C2289 1.516 . S
C2289 C2288 1.516 . S
C2289 C2290 1.502 . S
C2289 C2291 1.561 . S
C2289 C2292 1.526 . S
C2290 H2274 0.959 . S
C2290 H2275 0.959 . S
C2290 H2276 0.961 . S
C2290 C2289 1.502 . S
C2291 H2277 0.960 . S
C2291 H2278 0.961 . S
C2291 H2279 0.959 . S
C2291 C2289 1.561 . S
C2292 C2289 1.526 . S
C2292 C2293 1.396 . S
C2292 C2297 1.390 . S
C2293 C2287 1.465 . S
C2293 C2292 1.396 . S
C2293 C2294 1.399 . S
C2294 H2280 0.929 . S
C2294 C2293 1.399 . S
C2294 C2295 1.385 . S
C2295 H2281 0.931 . S
C2295 C2294 1.385 . S
C2295 C2296 1.389 . S
C2296 C2295 1.389 . S
C2296 C2297 1.387 . S
C2297 H2282 0.930 . S
C2297 C2292 1.390 . S
C2297 C2296 1.387 . S
H2298 C2310 0.930 . S
H2299 C2312 0.930 . S
H2300 C2313 0.930 . S
H2301 C2317 0.959 . S
H2302 C2317 0.959 . S
H2303 C2317 0.961 . S
H2304 C2318 0.960 . S
H2305 C2318 0.961 . S
H2306 C2318 0.969 . S
H2307 C2321 0.929 . S
H2308 C2322 0.931 . S
H2309 C2324 0.930 . S
C2310 H2298 0.930 . S
C2310 C2311 1.399 . S
C2310 C2315 1.399 . S
C2311 C2310 1.399 . S
C2311 C2312 1.376 . S
C2312 H2299 0.930 . S
C2312 C2311 1.376 . S
C2312 C2313 1.388 . S
C2313 H2300 0.930 . S
C2313 C2312 1.388 . S
C2313 C2314 1.390 . S
C2314 C2313 1.390 . S
C2314 C2315 1.394 . S
C2314 C2320 1.465 1_545 S
C2315 C2310 1.399 . S
C2315 C2314 1.394 . S
C2315 C2316 1.516 1_545 S
C2316 C2315 1.516 1_565 S
C2316 C2317 1.502 . S
C2316 C2318 1.561 . S
C2316 C2319 1.526 . S
C2317 H2301 0.959 . S
C2317 H2302 0.959 . S
C2317 H2303 0.961 . S
C2317 C2316 1.502 . S
C2318 H2304 0.960 . S
C2318 H2305 0.961 . S
C2318 H2306 0.969 . S
C2318 C2316 1.561 . S
C2319 C2316 1.526 . S
C2319 C2320 1.396 . S
C2319 C2324 1.390 . S
C2320 C2314 1.465 1_565 S
C2320 C2319 1.396 . S
C2320 C2321 1.399 . S
C2321 H2307 0.929 . S
C2321 C2320 1.399 . S
C2321 C2322 1.385 . S
C2322 H2308 0.931 . S
C2322 C2321 1.385 . S
C2322 C2323 1.389 . S
C2323 C2322 1.389 . S
C2323 C2324 1.387 . S
C2324 H2309 0.930 . S
C2324 C2319 1.390 . S
C2324 C2323 1.387 . S
H2325 C2337 0.930 . S
H2326 C2339 0.930 . S
H2327 C2340 0.930 . S
H2328 C2344 0.929 1_455 S
H2329 C2344 0.995 . S
H2330 C2344 0.944 1_455 S
H2331 C2345 0.960 . S
H2332 C2345 0.961 . S
H2333 C2345 0.959 . S
H2334 C2348 0.929 1_455 S
H2335 C2349 0.931 . S
H2336 C2351 0.930 . S
C2337 H2325 0.930 . S
C2337 C2338 1.399 . S
C2337 C2342 1.399 . S
C2338 C2337 1.399 . S
C2338 C2339 1.376 . S
C2339 H2326 0.930 . S
C2339 C2338 1.376 . S
C2339 C2340 1.388 . S
C2340 H2327 0.930 . S
C2340 C2339 1.388 . S
C2340 C2341 1.390 . S
C2341 C2340 1.390 . S
C2341 C2342 1.394 . S
C2341 C2347 1.465 1_455 S
C2342 C2337 1.399 . S
C2342 C2341 1.394 . S
C2342 C2343 1.516 1_455 S
C2343 C2342 1.516 1_655 S
C2343 C2344 1.514 . S
C2343 C2345 1.561 . S
C2343 C2346 1.526 . S
C2344 H2328 0.929 1_655 S
C2344 H2329 0.995 . S
C2344 H2330 0.944 1_655 S
C2344 C2343 1.514 . S
C2345 H2331 0.960 . S
C2345 H2332 0.961 . S
C2345 H2333 0.959 . S
C2345 C2343 1.561 . S
C2346 C2343 1.526 . S
C2346 C2347 1.396 . S
C2346 C2351 1.390 . S
C2347 C2341 1.465 1_655 S
C2347 C2346 1.396 . S
C2347 C2348 1.399 . S
C2348 H2334 0.929 1_655 S
C2348 C2347 1.399 . S
C2348 C2349 1.385 . S
C2349 H2335 0.931 . S
C2349 C2348 1.385 . S
C2349 C2350 1.389 . S
C2350 C2349 1.389 . S
C2350 C2351 1.387 . S
C2351 H2336 0.930 . S
C2351 C2346 1.390 . S
C2351 C2350 1.387 . S
H2352 C2364 0.930 . S
H2353 C2366 0.930 . S
H2354 C2367 0.930 . S
H2355 C2371 0.959 . S
H2356 C2371 0.959 . S
H2357 C2371 0.961 . S
H2358 C2372 0.960 . S
H2359 C2372 0.961 . S
H2360 C2372 0.959 . S
H2361 C2375 0.929 . S
H2362 C2376 0.931 . S
H2363 C2378 0.930 . S
C2364 H2352 0.930 . S
C2364 C2365 1.399 . S
C2364 C2369 1.399 . S
C2365 C2364 1.399 . S
C2365 C2366 1.376 . S
C2366 H2353 0.930 . S
C2366 C2365 1.376 . S
C2366 C2367 1.388 . S
C2367 H2354 0.930 . S
C2367 C2366 1.388 . S
C2367 C2368 1.390 . S
C2368 C2367 1.390 . S
C2368 C2369 1.394 . S
C2368 C2374 1.465 1_545 S
C2369 C2364 1.399 . S
C2369 C2368 1.394 . S
C2369 C2370 1.516 . S
C2370 C2369 1.516 . S
C2370 C2371 1.502 . S
C2370 C2372 1.561 . S
C2370 C2373 1.526 . S
C2371 H2355 0.959 . S
C2371 H2356 0.959 . S
C2371 H2357 0.961 . S
C2371 C2370 1.502 . S
C2372 H2358 0.960 . S
C2372 H2359 0.961 . S
C2372 H2360 0.959 . S
C2372 C2370 1.561 . S
C2373 C2370 1.526 . S
C2373 C2374 1.396 1_545 S
C2373 C2378 1.390 1_545 S
C2374 C2368 1.465 1_565 S
C2374 C2373 1.396 1_565 S
C2374 C2375 1.399 . S
C2375 H2361 0.929 . S
C2375 C2374 1.399 . S
C2375 C2376 1.385 . S
C2376 H2362 0.931 . S
C2376 C2375 1.385 . S
C2376 C2377 1.389 . S
C2377 C2376 1.389 . S
C2377 C2378 1.387 . S
C2378 H2363 0.930 . S
C2378 C2373 1.390 1_565 S
C2378 C2377 1.387 . S
H2379 C2391 0.930 . S
H2380 C2393 0.930 . S
H2381 C2394 0.930 . S
H2382 C2398 0.925 1_655 S
H2383 C2398 0.959 . S
H2384 C2398 0.961 . S
H2385 C2399 0.960 . S
H2386 C2399 0.961 . S
H2387 C2399 0.959 . S
H2388 C2402 0.929 . S
H2389 C2403 0.931 . S
H2390 C2405 0.930 . S
C2391 H2379 0.930 . S
C2391 C2392 1.399 . S
C2391 C2396 1.399 . S
C2392 C2391 1.399 . S
C2392 C2393 1.376 . S
C2393 H2380 0.930 . S
C2393 C2392 1.376 . S
C2393 C2394 1.388 . S
C2394 H2381 0.930 . S
C2394 C2393 1.388 . S
C2394 C2395 1.390 . S
C2395 C2394 1.390 . S
C2395 C2396 1.394 . S
C2395 C2401 1.465 1_455 S
C2396 C2391 1.399 . S
C2396 C2395 1.394 . S
C2396 C2397 1.516 . S
C2397 C2396 1.516 . S
C2397 C2398 1.502 . S
C2397 C2399 1.561 . S
C2397 C2400 1.526 1_455 S
C2398 H2382 0.925 1_455 S
C2398 H2383 0.959 . S
C2398 H2384 0.961 . S
C2398 C2397 1.502 . S
C2399 H2385 0.960 . S
C2399 H2386 0.961 . S
C2399 H2387 0.959 . S
C2399 C2397 1.561 . S
C2400 C2397 1.526 1_655 S
C2400 C2401 1.396 . S
C2400 C2405 1.390 . S
C2401 C2395 1.465 1_655 S
C2401 C2400 1.396 . S
C2401 C2402 1.399 . S
C2402 H2388 0.929 . S
C2402 C2401 1.399 . S
C2402 C2403 1.385 . S
C2403 H2389 0.931 . S
C2403 C2402 1.385 . S
C2403 C2404 1.389 . S
C2404 C2403 1.389 . S
C2404 C2405 1.387 . S
C2405 H2390 0.930 . S
C2405 C2400 1.390 . S
C2405 C2404 1.387 . S
H2406 C2418 0.930 . S
H2407 C2420 0.930 . S
H2408 C2421 0.930 . S
H2409 C2425 0.959 . S
H2410 C2425 0.959 . S
H2411 C2425 0.961 . S
H2412 C2426 0.960 . S
H2413 C2426 0.961 . S
H2414 C2426 0.959 . S
H2415 C2429 0.929 . S
H2416 C2430 0.931 . S
H2417 C2432 0.930 . S
C2418 H2406 0.930 . S
C2418 C2419 1.399 . S
C2418 C2423 1.399 . S
C2419 C2418 1.399 . S
C2419 C2420 1.376 . S
C2420 H2407 0.930 . S
C2420 C2419 1.376 . S
C2420 C2421 1.388 . S
C2421 H2408 0.930 . S
C2421 C2420 1.388 . S
C2421 C2422 1.390 . S
C2422 C2421 1.390 . S
C2422 C2423 1.394 . S
C2422 C2428 1.465 . S
C2423 C2418 1.399 . S
C2423 C2422 1.394 . S
C2423 C2424 1.516 . S
C2424 C2423 1.516 . S
C2424 C2425 1.502 . S
C2424 C2426 1.561 . S
C2424 C2427 1.526 . S
C2425 H2409 0.959 . S
C2425 H2410 0.959 . S
C2425 H2411 0.961 . S
C2425 C2424 1.502 . S
C2426 H2412 0.960 . S
C2426 H2413 0.961 . S
C2426 H2414 0.959 . S
C2426 C2424 1.561 . S
C2427 C2424 1.526 . S
C2427 C2428 1.396 . S
C2427 C2432 1.390 . S
C2428 C2422 1.465 . S
C2428 C2427 1.396 . S
C2428 C2429 1.399 . S
C2429 H2415 0.929 . S
C2429 C2428 1.399 . S
C2429 C2430 1.385 . S
C2430 H2416 0.931 . S
C2430 C2429 1.385 . S
C2430 C2431 1.389 . S
C2431 C2430 1.389 . S
C2431 C2432 1.387 . S
C2432 H2417 0.930 . S
C2432 C2427 1.390 . S
C2432 C2431 1.387 . S
H2433 C2445 0.930 . S
H2434 C2447 0.930 . S
H2435 C2448 0.930 . S
H2436 C2452 0.959 . S
H2437 C2452 0.959 . S
H2438 C2452 0.961 . S
H2439 C2453 0.960 . S
H2440 C2453 0.961 . S
H2441 C2453 0.959 . S
H2442 C2456 0.929 . S
H2443 C2457 0.931 . S
H2444 C2459 0.930 . S
C2445 H2433 0.930 . S
C2445 C2446 1.399 . S
C2445 C2450 1.399 . S
C2446 C2445 1.399 . S
C2446 C2447 1.376 . S
C2447 H2434 0.930 . S
C2447 C2446 1.376 . S
C2447 C2448 1.388 . S
C2448 H2435 0.930 . S
C2448 C2447 1.388 . S
C2448 C2449 1.390 . S
C2449 C2448 1.390 . S
C2449 C2450 1.394 . S
C2449 C2455 1.465 . S
C2450 C2445 1.399 . S
C2450 C2449 1.394 . S
C2450 C2451 1.516 . S
C2451 C2450 1.516 . S
C2451 C2452 1.502 . S
C2451 C2453 1.561 . S
C2451 C2454 1.526 . S
C2452 H2436 0.959 . S
C2452 H2437 0.959 . S
C2452 H2438 0.961 . S
C2452 C2451 1.502 . S
C2453 H2439 0.960 . S
C2453 H2440 0.961 . S
C2453 H2441 0.959 . S
C2453 C2451 1.561 . S
C2454 C2451 1.526 . S
C2454 C2455 1.396 . S
C2454 C2459 1.390 . S
C2455 C2449 1.465 . S
C2455 C2454 1.396 . S
C2455 C2456 1.399 . S
C2456 H2442 0.929 . S
C2456 C2455 1.399 . S
C2456 C2457 1.385 . S
C2457 H2443 0.931 . S
C2457 C2456 1.385 . S
C2457 C2458 1.389 . S
C2458 C2457 1.389 . S
C2458 C2459 1.387 . S
C2459 H2444 0.930 . S
C2459 C2454 1.390 . S
C2459 C2458 1.387 . S
H2460 C2472 0.930 . S
H2461 C2474 0.930 . S
H2462 C2475 0.930 . S
H2463 C2479 0.959 . S
H2464 C2479 0.959 . S
H2465 C2479 0.961 . S
H2466 C2480 0.960 . S
H2467 C2480 0.961 . S
H2468 C2480 0.959 . S
H2469 C2483 0.929 . S
H2470 C2484 0.931 . S
H2471 C2486 0.930 . S
C2472 H2460 0.930 . S
C2472 C2473 1.399 . S
C2472 C2477 1.399 . S
C2473 C2472 1.399 . S
C2473 C2474 1.376 . S
C2474 H2461 0.930 . S
C2474 C2473 1.376 . S
C2474 C2475 1.388 . S
C2475 H2462 0.930 . S
C2475 C2474 1.388 . S
C2475 C2476 1.390 . S
C2476 C2475 1.390 . S
C2476 C2477 1.394 . S
C2476 C2482 1.465 . S
C2477 C2472 1.399 . S
C2477 C2476 1.394 . S
C2477 C2478 1.516 . S
C2478 C2477 1.516 . S
C2478 C2479 1.502 . S
C2478 C2480 1.561 . S
C2478 C2481 1.526 . S
C2479 H2463 0.959 . S
C2479 H2464 0.959 . S
C2479 H2465 0.961 . S
C2479 C2478 1.502 . S
C2480 H2466 0.960 . S
C2480 H2467 0.961 . S
C2480 H2468 0.959 . S
C2480 C2478 1.561 . S
C2481 C2478 1.526 . S
C2481 C2482 1.396 . S
C2481 C2486 1.390 . S
C2482 C2476 1.465 . S
C2482 C2481 1.396 . S
C2482 C2483 1.399 . S
C2483 H2469 0.929 . S
C2483 C2482 1.399 . S
C2483 C2484 1.385 . S
C2484 H2470 0.931 . S
C2484 C2483 1.385 . S
C2484 C2485 1.389 . S
C2485 C2484 1.389 . S
C2485 C2486 1.387 . S
C2486 H2471 0.930 . S
C2486 C2481 1.390 . S
C2486 C2485 1.387 . S
H2487 C2499 0.930 . S
H2488 C2501 0.930 . S
H2489 C2502 0.930 . S
H2490 C2506 0.963 1_554 S
H2491 C2506 0.959 . S
H2492 C2506 0.961 . S
H2493 C2507 0.960 . S
H2494 C2507 0.961 . S
H2495 C2507 0.959 . S
H2496 C2510 0.929 . S
H2497 C2511 0.931 . S
H2498 C2513 0.930 . S
C2499 H2487 0.930 . S
C2499 C2500 1.399 . S
C2499 C2504 1.399 . S
C2500 C2499 1.399 . S
C2500 C2501 1.376 . S
C2501 H2488 0.930 . S
C2501 C2500 1.376 . S
C2501 C2502 1.388 . S
C2502 H2489 0.930 . S
C2502 C2501 1.388 . S
C2502 C2503 1.390 . S
C2503 C2502 1.390 . S
C2503 C2504 1.394 . S
C2503 C2509 1.465 1_554 S
C2504 C2499 1.399 . S
C2504 C2503 1.394 . S
C2504 C2505 1.516 1_554 S
C2505 C2504 1.516 1_556 S
C2505 C2506 1.502 . S
C2505 C2507 1.561 . S
C2505 C2508 1.526 . S
C2506 H2490 0.963 1_556 S
C2506 H2491 0.959 . S
C2506 H2492 0.961 . S
C2506 C2505 1.502 . S
C2507 H2493 0.960 . S
C2507 H2494 0.961 . S
C2507 H2495 0.959 . S
C2507 C2505 1.561 . S
C2508 C2505 1.526 . S
C2508 C2509 1.396 . S
C2508 C2513 1.390 . S
C2509 C2503 1.465 1_556 S
C2509 C2508 1.396 . S
C2509 C2510 1.399 . S
C2510 H2496 0.929 . S
C2510 C2509 1.399 . S
C2510 C2511 1.385 . S
C2511 H2497 0.931 . S
C2511 C2510 1.385 . S
C2511 C2512 1.389 . S
C2512 C2511 1.389 . S
C2512 C2513 1.387 . S
C2513 H2498 0.930 . S
C2513 C2508 1.390 . S
C2513 C2512 1.387 . S
H2514 C2526 0.930 . S
H2515 C2528 0.930 . S
H2516 C2529 0.930 . S
H2517 C2533 0.959 . S
H2518 C2533 0.959 . S
H2519 C2533 0.961 . S
H2520 C2534 0.960 . S
H2521 C2534 0.961 . S
H2522 C2534 0.959 . S
H2523 C2537 0.929 . S
H2524 C2538 0.931 . S
H2525 C2540 0.930 . S
C2526 H2514 0.930 . S
C2526 C2527 1.399 . S
C2526 C2531 1.399 . S
C2527 C2526 1.399 . S
C2527 C2528 1.376 . S
C2528 H2515 0.930 . S
C2528 C2527 1.376 . S
C2528 C2529 1.388 . S
C2529 H2516 0.930 . S
C2529 C2528 1.388 . S
C2529 C2530 1.390 . S
C2530 C2529 1.390 . S
C2530 C2531 1.394 . S
C2530 C2536 1.465 . S
C2531 C2526 1.399 . S
C2531 C2530 1.394 . S
C2531 C2532 1.516 . S
C2532 C2531 1.516 . S
C2532 C2533 1.502 . S
C2532 C2534 1.561 . S
C2532 C2535 1.526 . S
C2533 H2517 0.959 . S
C2533 H2518 0.959 . S
C2533 H2519 0.961 . S
C2533 C2532 1.502 . S
C2534 H2520 0.960 . S
C2534 H2521 0.961 . S
C2534 H2522 0.959 . S
C2534 C2532 1.561 . S
C2535 C2532 1.526 . S
C2535 C2536 1.396 . S
C2535 C2540 1.390 . S
C2536 C2530 1.465 . S
C2536 C2535 1.396 . S
C2536 C2537 1.399 . S
C2537 H2523 0.929 . S
C2537 C2536 1.399 . S
C2537 C2538 1.385 . S
C2538 H2524 0.931 . S
C2538 C2537 1.385 . S
C2538 C2539 1.389 . S
C2539 C2538 1.389 . S
C2539 C2540 1.387 . S
C2540 H2525 0.930 . S
C2540 C2535 1.390 . S
C2540 C2539 1.387 . S
H2541 C2553 0.930 . S
H2542 C2555 0.930 . S
H2543 C2556 0.930 . S
H2544 C2560 0.959 . S
H2545 C2560 0.959 . S
H2546 C2560 0.961 . S
H2547 C2561 0.960 . S
H2548 C2561 0.961 . S
H2549 C2561 0.959 . S
H2550 C2564 0.929 1_554 S
H2551 C2565 0.931 . S
H2552 C2567 0.930 . S
C2553 H2541 0.930 . S
C2553 C2554 1.399 . S
C2553 C2558 1.396 1_554 S
C2554 C2553 1.399 . S
C2554 C2555 1.376 . S
C2555 H2542 0.930 . S
C2555 C2554 1.376 . S
C2555 C2556 1.388 . S
C2556 H2543 0.930 . S
C2556 C2555 1.388 . S
C2556 C2557 1.390 . S
C2557 C2556 1.390 . S
C2557 C2558 1.391 1_554 S
C2557 C2563 1.465 1_554 S
C2558 C2553 1.396 1_556 S
C2558 C2557 1.391 1_556 S
C2558 C2559 1.522 . S
C2559 C2558 1.522 . S
C2559 C2560 1.502 . S
C2559 C2561 1.561 . S
C2559 C2562 1.526 . S
C2560 H2544 0.959 . S
C2560 H2545 0.959 . S
C2560 H2546 0.961 . S
C2560 C2559 1.502 . S
C2561 H2547 0.960 . S
C2561 H2548 0.961 . S
C2561 H2549 0.959 . S
C2561 C2559 1.561 . S
C2562 C2559 1.526 . S
C2562 C2563 1.396 . S
C2562 C2567 1.390 . S
C2563 C2557 1.465 1_556 S
C2563 C2562 1.396 . S
C2563 C2564 1.399 . S
C2564 H2550 0.929 1_556 S
C2564 C2563 1.399 . S
C2564 C2565 1.385 . S
C2565 H2551 0.931 . S
C2565 C2564 1.385 . S
C2565 C2566 1.389 . S
C2566 C2565 1.389 . S
C2566 C2567 1.387 . S
C2567 H2552 0.930 . S
C2567 C2562 1.390 . S
C2567 C2566 1.387 . S
C1285 C241 1.424 . S
C1297 C29 1.412 . S
C1312 C92 1.494 . S
C1324 C304 1.484 . S
C1339 C347 1.521 . S
C1351 C135 1.539 . S
C1366 C410 1.584 . S
C1378 C198 1.557 . S
C1393 C771 1.243 . S
C1405 C463 1.288 . S
C1420 C824 1.303 . S
C1432 C506 1.269 . S
C1447 C569 1.506 . S
C1459 C675 1.494 . S
C1474 C718 1.305 . S
C1486 C612 1.298 . S
C1501 C877 1.284 . S
C1513 C1142 1.277 . S
C1528 C940 1.602 . S
C1540 C1036 1.582 . S
C1555 C983 1.465 . S
C1567 C1089 1.485 . S
C1582 C1195 1.423 . S
C1594 C1248 1.406 . S
C1609 C188 1.727 . S
C1621 C294 1.735 . S
C1636 C39 2.038 . S
C1648 C357 2.023 . S
C1663 C400 1.745 . S
C1675 C82 1.732 . S
C1690 C145 2.066 . S
C1702 C251 2.067 . S
C1717 C1258 2.136 . S
C1729 C993 2.156 . S
C1744 C1046 2.340 . S
C1756 C1152 2.336 . S
C1771 C1099 2.157 . S
C1783 C1205 2.178 . S
C1798 C930 1.998 . S
C1810 C887 2.022 . S
C1825 C622 2.131 . S
C1837 C516 2.144 . S
C1852 C834 2.196 . S
C1864 C728 2.188 . S
C1879 C665 1.979 . S
C1891 C781 1.998 . S
C1906 C559 1.632 . S
C1918 C453 1.600 . S
C1933 C1188 1.638 . S
C1945 C22 1.634 . S
C1960 C870 1.493 . S
C1972 C91 1.413 . S
C1987 C1241 1.698 . S
C1999 C128 1.681 . S
C2014 C1135 1.532 . S
C2026 C197 1.462 . S
C2041 C976 1.626 . S
C2053 C234 1.619 . S
C2068 C303 1.543 . S
C2080 C1029 1.510 . S
C2095 C1082 1.725 . S
C2107 C340 1.732 . S
C2122 C939 1.500 . S
C2134 C409 1.475 . S
C2149 C711 1.480 . S
C2161 C462 1.395 . S
C2176 C764 1.487 . S
C2188 C499 1.458 . S
C2203 C817 1.272 . S
C2215 C568 1.338 . S
C2230 C605 1.407 . S
C2242 C674 1.342 . S
C2257 C287 1.732 . S
C2269 C552 1.745 . S
C2284 C356 1.984 . S
C2296 C621 2.018 . S
C2311 C446 1.731 . S
C2323 C393 1.781 . S
C2338 C250 1.950 . S
C2350 C515 1.962 . S
C2365 C780 1.806 . S
C2377 C181 1.764 . S
C2392 C38 1.944 . S
C2404 C833 1.931 . S
C2419 C658 1.696 . S
C2431 C75 1.751 . S
C2446 C144 2.004 . S
C2458 C727 2.013 . S
C2473 C923 2.023 . S
C2485 C1257 2.070 . S
C2500 C1151 2.090 . S
C2512 C992 2.101 . S
C2527 C1204 2.142 . S
C2539 C1045 2.130 . S
C2554 C886 2.068 . S
C2566 C1098 2.100 . S
