# Generated by pormake.
# Topology pcb, (4)-cn, num edge types: 1
# Building blocks:
#     Node 0, Type 0, BuildingBlock: QUQFOY_clean_sbu_1, # of connection points: 4
#     Node 1, Type 0, BuildingBlock: QUQFOY_clean_sbu_1, # of connection points: 4
#     Node 2, Type 0, BuildingBlock: QUQFOY_clean_sbu_1, # of connection points: 4
#     Node 3, Type 0, BuildingBlock: QUQFOY_clean_sbu_1, # of connection points: 4
#     Node 4, Type 0, BuildingBlock: QUQFOY_clean_sbu_1, # of connection points: 4
#     Node 5, Type 0, BuildingBlock: QUQFOY_clean_sbu_1, # of connection points: 4
#     Node 6, Type 0, BuildingBlock: QUQFOY_clean_sbu_1, # of connection points: 4
#     Node 7, Type 0, BuildingBlock: QUQFOY_clean_sbu_1, # of connection points: 4
#     Node 8, Type 0, BuildingBlock: QUQFOY_clean_sbu_1, # of connection points: 4
#     Node 9, Type 0, BuildingBlock: QUQFOY_clean_sbu_1, # of connection points: 4
#     Node 10, Type 0, BuildingBlock: QUQFOY_clean_sbu_1, # of connection points: 4
#     Node 11, Type 0, BuildingBlock: QUQFOY_clean_sbu_1, # of connection points: 4
#     Node 12, Type 0, BuildingBlock: QUQFOY_clean_sbu_1, # of connection points: 4
#     Node 13, Type 0, BuildingBlock: QUQFOY_clean_sbu_1, # of connection points: 4
#     Node 14, Type 0, BuildingBlock: QUQFOY_clean_sbu_1, # of connection points: 4
#     Node 15, Type 0, BuildingBlock: QUQFOY_clean_sbu_1, # of connection points: 4
#     Edge 16, Type (0, 0), BuildingBlock: EZIPEK_clean_linker_0, # of connection points: 2
#     Edge 17, Type (0, 0), BuildingBlock: EZIPEK_clean_linker_0, # of connection points: 2
#     Edge 18, Type (0, 0), BuildingBlock: EZIPEK_clean_linker_0, # of connection points: 2
#     Edge 19, Type (0, 0), BuildingBlock: EZIPEK_clean_linker_0, # of connection points: 2
#     Edge 20, Type (0, 0), BuildingBlock: EZIPEK_clean_linker_0, # of connection points: 2
#     Edge 21, Type (0, 0), BuildingBlock: EZIPEK_clean_linker_0, # of connection points: 2
#     Edge 22, Type (0, 0), BuildingBlock: EZIPEK_clean_linker_0, # of connection points: 2
#     Edge 23, Type (0, 0), BuildingBlock: EZIPEK_clean_linker_0, # of connection points: 2
#     Edge 24, Type (0, 0), BuildingBlock: EZIPEK_clean_linker_0, # of connection points: 2
#     Edge 25, Type (0, 0), BuildingBlock: EZIPEK_clean_linker_0, # of connection points: 2
#     Edge 26, Type (0, 0), BuildingBlock: EZIPEK_clean_linker_0, # of connection points: 2
#     Edge 27, Type (0, 0), BuildingBlock: EZIPEK_clean_linker_0, # of connection points: 2
#     Edge 28, Type (0, 0), BuildingBlock: EZIPEK_clean_linker_0, # of connection points: 2
#     Edge 29, Type (0, 0), BuildingBlock: EZIPEK_clean_linker_0, # of connection points: 2
#     Edge 30, Type (0, 0), BuildingBlock: EZIPEK_clean_linker_0, # of connection points: 2
#     Edge 31, Type (0, 0), BuildingBlock: EZIPEK_clean_linker_0, # of connection points: 2
#     Edge 32, Type (0, 0), BuildingBlock: EZIPEK_clean_linker_0, # of connection points: 2
#     Edge 33, Type (0, 0), BuildingBlock: EZIPEK_clean_linker_0, # of connection points: 2
#     Edge 34, Type (0, 0), BuildingBlock: EZIPEK_clean_linker_0, # of connection points: 2
#     Edge 35, Type (0, 0), BuildingBlock: EZIPEK_clean_linker_0, # of connection points: 2
#     Edge 36, Type (0, 0), BuildingBlock: EZIPEK_clean_linker_0, # of connection points: 2
#     Edge 37, Type (0, 0), BuildingBlock: EZIPEK_clean_linker_0, # of connection points: 2
#     Edge 38, Type (0, 0), BuildingBlock: EZIPEK_clean_linker_0, # of connection points: 2
#     Edge 39, Type (0, 0), BuildingBlock: EZIPEK_clean_linker_0, # of connection points: 2
#     Edge 40, Type (0, 0), BuildingBlock: EZIPEK_clean_linker_0, # of connection points: 2
#     Edge 41, Type (0, 0), BuildingBlock: EZIPEK_clean_linker_0, # of connection points: 2
#     Edge 42, Type (0, 0), BuildingBlock: EZIPEK_clean_linker_0, # of connection points: 2
#     Edge 43, Type (0, 0), BuildingBlock: EZIPEK_clean_linker_0, # of connection points: 2
#     Edge 44, Type (0, 0), BuildingBlock: EZIPEK_clean_linker_0, # of connection points: 2
#     Edge 45, Type (0, 0), BuildingBlock: EZIPEK_clean_linker_0, # of connection points: 2
#     Edge 46, Type (0, 0), BuildingBlock: EZIPEK_clean_linker_0, # of connection points: 2
#     Edge 47, Type (0, 0), BuildingBlock: EZIPEK_clean_linker_0, # of connection points: 2
# Relax obj value: 0.295
# Max RMSD: 0.249
# Mean RMSD: 0.191
data_MOF--net-pcb--node1-QUQFOY_clean_sbu_1--edge1-EZIPEK_clean_linker_0
_symmetry_space_group_name_H-M    P1
_symmetry_Int_Tables_number       1
_symmetry_cell_setting            triclinic
loop_
_symmetry_equiv_pos_as_xyz
'x, y, z'
_cell_length_a     33.994638
_cell_length_b     36.606512
_cell_length_c     36.914511
_cell_angle_alpha  94.263679
_cell_angle_beta   93.43732
_cell_angle_gamma 96.54359
loop_
_atom_site_label
_atom_site_type_symbol
_atom_site_fract_x
_atom_site_fract_y
_atom_site_fract_z
_atom_type_partial_charge
O0 O 0.09497 0.16117 0.16714 0.0
Cd1 Cd 0.15417 0.15473 0.17296 0.0
Cd2 Cd 0.1412 0.12122 0.10688 0.0
O3 O 0.08356 0.13086 0.11291 0.0
O4 O 0.17458 0.18887 0.21539 0.0
O5 O 0.19544 0.19441 0.15997 0.0
C6 C 0.19757 0.20593 0.19404 0.0
C7 C 0.16662 0.14223 0.05471 0.0
C8 C 0.07143 0.14867 0.13997 0.0
C9 C 0.17022 0.07614 0.16471 0.0
O10 O 0.16086 0.07699 0.13098 0.0
O11 O 0.16998 0.10454 0.18657 0.0
O12 O 0.14375 0.11153 0.05374 0.0
O13 O 0.17719 0.16025 0.08584 0.0
O14 O 0.82775 0.09776 0.17577 0.0
Cd15 Cd 0.83473 0.15466 0.1783 0.0
Cd16 Cd 0.82088 0.13754 0.10837 0.0
O17 O 0.78787 0.09242 0.12637 0.0
O18 O 0.82926 0.17257 0.22953 0.0
O19 O 0.78758 0.1822 0.18356 0.0
C20 C 0.7978 0.18605 0.21807 0.0
C21 C 0.80199 0.15883 0.05274 0.0
C22 C 0.80364 0.07779 0.15282 0.0
C23 C 0.90414 0.1608 0.13998 0.0
O24 O 0.88204 0.13954 0.11648 0.0
O25 O 0.88908 0.17781 0.16582 0.0
O26 O 0.81422 0.12705 0.05475 0.0
O27 O 0.7983 0.17838 0.08264 0.0
O28 O 0.8922 0.86367 0.19364 0.0
Cd29 Cd 0.8312 0.85813 0.19512 0.0
Cd30 Cd 0.83375 0.85182 0.12687 0.0
O31 O 0.88335 0.82772 0.14333 0.0
O32 O 0.8145 0.83199 0.23745 0.0
O33 O 0.8026 0.80834 0.1799 0.0
C34 C 0.79947 0.80508 0.21428 0.0
C35 C 0.8036 0.82869 0.07048 0.0
C36 C 0.90624 0.84284 0.16992 0.0
C37 C 0.81248 0.92249 0.16324 0.0
O38 O 0.83103 0.90811 0.13797 0.0
O39 O 0.80221 0.90357 0.18917 0.0
O40 O 0.83725 0.84896 0.07357 0.0
O41 O 0.78645 0.82082 0.09964 0.0
O42 O 0.17514 0.90635 0.2137 0.0
Cd43 Cd 0.15819 0.84983 0.2101 0.0
Cd44 Cd 0.15143 0.85758 0.13961 0.0
O45 O 0.17557 0.91057 0.15434 0.0
O46 O 0.18275 0.82677 0.25156 0.0
O47 O 0.19451 0.81412 0.19351 0.0
C48 C 0.20015 0.80828 0.22741 0.0
C49 C 0.17207 0.8282 0.08695 0.0
C50 C 0.18008 0.92557 0.18663 0.0
C51 C 0.0763 0.83777 0.17723 0.0
O52 O 0.09214 0.84837 0.1489 0.0
O53 O 0.09808 0.8328 0.20514 0.0
O54 O 0.15042 0.85472 0.08555 0.0
O55 O 0.18252 0.81794 0.1184 0.0
O56 O 0.17003 0.77296 0.91422 0.0
Cd57 Cd 0.1516 0.77927 0.86095 0.0
Cd58 Cd 0.15268 0.84944 0.88313 0.0
O59 O 0.17912 0.83279 0.9296 0.0
O60 O 0.17078 0.74097 0.82825 0.0
O61 O 0.18946 0.80108 0.82671 0.0
C62 C 0.19148 0.76744 0.81416 0.0
C63 C 0.16594 0.91068 0.86835 0.0
C64 C 0.17962 0.79985 0.93804 0.0
C65 C 0.07351 0.80601 0.86114 0.0
O66 O 0.09242 0.83529 0.87687 0.0
O67 O 0.09157 0.77938 0.84977 0.0
O68 O 0.15565 0.9024 0.89988 0.0
O69 O 0.17285 0.88398 0.84575 0.0
O70 O 0.09914 0.19284 0.83018 0.0
Cd71 Cd 0.15998 0.19609 0.83652 0.0
Cd72 Cd 0.14266 0.12375 0.83652 0.0
O73 O 0.09539 0.13654 0.80411 0.0
O74 O 0.18272 0.24044 0.81482 0.0
O75 O 0.18991 0.1831 0.7935 0.0
C76 C 0.19676 0.21834 0.79133 0.0
C77 C 0.15399 0.06163 0.8351 0.0
C78 C 0.07916 0.16535 0.8122 0.0
C79 C 0.16979 0.16957 0.90669 0.0
O80 O 0.14726 0.14217 0.89111 0.0
O81 O 0.18499 0.19466 0.88822 0.0
O82 O 0.12023 0.07226 0.84144 0.0
O83 O 0.18109 0.08597 0.82566 0.0
O84 O 0.88633 0.14555 0.77762 0.0
Cd85 Cd 0.82572 0.13378 0.77761 0.0
Cd86 Cd 0.8386 0.14031 0.85028 0.0
O87 O 0.8945 0.16028 0.83695 0.0
O88 O 0.79858 0.15669 0.73755 0.0
O89 O 0.79516 0.17328 0.79652 0.0
C90 C 0.78603 0.17796 0.7628 0.0
C91 C 0.817 0.16338 0.90553 0.0
C92 C 0.90859 0.1573 0.80589 0.0
C93 C 0.81089 0.06457 0.81154 0.0
O94 O 0.82426 0.08412 0.84045 0.0
O95 O 0.8052 0.07928 0.78185 0.0
O96 O 0.84625 0.14414 0.9043 0.0
O97 O 0.80021 0.17103 0.87523 0.0
O98 O 0.87974 0.79061 0.85008 0.0
Cd99 Cd 0.82029 0.79519 0.84736 0.0
Cd100 Cd 0.84196 0.86461 0.8698 0.0
O101 O 0.89786 0.85052 0.86054 0.0
O102 O 0.79537 0.75579 0.81108 0.0
O103 O 0.79674 0.8156 0.80348 0.0
C104 C 0.78676 0.7817 0.7912 0.0
C105 C 0.82282 0.91755 0.84628 0.0
C106 C 0.90659 0.81786 0.85462 0.0
C107 C 0.79816 0.81661 0.9208 0.0
O108 O 0.81775 0.84749 0.91644 0.0
O109 O 0.79207 0.79142 0.89489 0.0
O110 O 0.84721 0.91958 0.87465 0.0
O111 O 0.80875 0.88543 0.83128 0.0
O112 O 0.59278 0.64831 0.66868 0.0
Cd113 Cd 0.65226 0.64307 0.66725 0.0
Cd114 Cd 0.62861 0.60345 0.6056 0.0
O115 O 0.57301 0.61521 0.61711 0.0
O116 O 0.67476 0.6783 0.70791 0.0
O117 O 0.6896 0.68437 0.65077 0.0
C118 C 0.69412 0.69631 0.68472 0.0
C119 C 0.65056 0.62204 0.55141 0.0
C120 C 0.5654 0.63467 0.64509 0.0
C121 C 0.66867 0.56433 0.66213 0.0
O122 O 0.65138 0.56134 0.63043 0.0
O123 O 0.67336 0.59502 0.68113 0.0
O124 O 0.62678 0.59208 0.55236 0.0
O125 O 0.66339 0.64087 0.58166 0.0
O126 O 0.30825 0.60829 0.69305 0.0
Cd127 Cd 0.32643 0.66243 0.68463 0.0
Cd128 Cd 0.3203 0.63132 0.6171 0.0
O129 O 0.28152 0.59222 0.63808 0.0
O130 O 0.31646 0.68949 0.73097 0.0
O131 O 0.28591 0.69754 0.67782 0.0
C132 C 0.28998 0.70456 0.71278 0.0
C133 C 0.31544 0.64378 0.55576 0.0
C134 C 0.28664 0.58497 0.67105 0.0
C135 C 0.40086 0.65264 0.65466 0.0
O136 O 0.3793 0.62979 0.63221 0.0
O137 O 0.38538 0.67455 0.67627 0.0
O138 O 0.31817 0.61113 0.56551 0.0
O139 O 0.31116 0.66921 0.58087 0.0
O140 O 0.39277 0.36165 0.7052 0.0
Cd141 Cd 0.33286 0.3659 0.70001 0.0
Cd142 Cd 0.34596 0.38018 0.6315 0.0
O143 O 0.40187 0.36768 0.64717 0.0
O144 O 0.30991 0.33765 0.73855 0.0
O145 O 0.29677 0.32123 0.67939 0.0
C146 C 0.29179 0.31498 0.7129 0.0
C147 C 0.32104 0.35644 0.57378 0.0
C148 C 0.41497 0.36163 0.6788 0.0
C149 C 0.31269 0.43842 0.6786 0.0
O150 O 0.327 0.42969 0.64862 0.0
O151 O 0.31109 0.4163 0.70351 0.0
O152 O 0.34837 0.38403 0.57862 0.0
O153 O 0.30728 0.34188 0.60193 0.0
O154 O 0.69121 0.39888 0.71478 0.0
Cd155 Cd 0.66358 0.34583 0.71305 0.0
Cd156 Cd 0.65023 0.34824 0.64233 0.0
O157 O 0.66883 0.40279 0.65809 0.0
O158 O 0.6867 0.31864 0.75195 0.0
O159 O 0.68928 0.30346 0.69256 0.0
C160 C 0.69773 0.29723 0.72601 0.0
C161 C 0.67223 0.33057 0.58523 0.0
C162 C 0.68533 0.4179 0.68805 0.0
C163 C 0.57902 0.33585 0.68458 0.0
O164 O 0.5922 0.33262 0.65316 0.0
O165 O 0.60265 0.34195 0.71295 0.0
O166 O 0.64428 0.35111 0.58888 0.0
O167 O 0.68714 0.31815 0.61414 0.0
O168 O 0.67137 0.28783 0.41646 0.0
Cd169 Cd 0.66143 0.28214 0.3604 0.0
Cd170 Cd 0.67239 0.35406 0.37189 0.0
O171 O 0.70911 0.3402 0.41434 0.0
O172 O 0.67709 0.2361 0.33721 0.0
O173 O 0.70637 0.29221 0.32905 0.0
C174 C 0.70331 0.25682 0.32164 0.0
C175 C 0.67839 0.41337 0.35121 0.0
C176 C 0.69478 0.31437 0.43262 0.0
C177 C 0.59028 0.31518 0.35702 0.0
O178 O 0.61215 0.34092 0.37591 0.0
O179 O 0.60532 0.28866 0.34145 0.0
O180 O 0.67565 0.40786 0.38492 0.0
O181 O 0.68308 0.38542 0.32916 0.0
O182 O 0.61133 0.69896 0.32273 0.0
Cd183 Cd 0.66684 0.68343 0.33382 0.0
Cd184 Cd 0.62714 0.6192 0.3301 0.0
O185 O 0.5843 0.64333 0.30185 0.0
O186 O 0.70367 0.72495 0.3207 0.0
O187 O 0.69716 0.66897 0.29129 0.0
C188 C 0.71264 0.70309 0.29425 0.0
C189 C 0.64128 0.5588 0.3194 0.0
C190 C 0.58197 0.67765 0.30751 0.0
C191 C 0.65936 0.65173 0.403 0.0
O192 O 0.63097 0.63099 0.38557 0.0
O193 O 0.68272 0.67316 0.38643 0.0
O194 O 0.60596 0.5663 0.32506 0.0
O195 O 0.66779 0.5859 0.31466 0.0
O196 O 0.39982 0.66948 0.27021 0.0
Cd197 Cd 0.34057 0.65345 0.27573 0.0
Cd198 Cd 0.36387 0.65948 0.34504 0.0
O199 O 0.40789 0.69515 0.32592 0.0
O200 O 0.31021 0.6917 0.29782 0.0
O201 O 0.30759 0.67447 0.23839 0.0
C202 C 0.2971 0.69557 0.26487 0.0
C203 C 0.34763 0.66654 0.40578 0.0
C204 C 0.42083 0.69076 0.29446 0.0
C205 C 0.34128 0.58393 0.30697 0.0
O206 O 0.36331 0.60371 0.33162 0.0
O207 O 0.3232 0.59876 0.28194 0.0
O208 O 0.38295 0.66213 0.39716 0.0
O209 O 0.32182 0.6708 0.37982 0.0
O210 O 0.39731 0.30886 0.34761 0.0
Cd211 Cd 0.33802 0.31407 0.34874 0.0
Cd212 Cd 0.36266 0.38362 0.36905 0.0
O213 O 0.41783 0.36797 0.36116 0.0
O214 O 0.30925 0.33061 0.30512 0.0
O215 O 0.31096 0.27206 0.31678 0.0
C216 C 0.29922 0.29594 0.29587 0.0
C217 C 0.34693 0.43664 0.34382 0.0
C218 C 0.42515 0.3352 0.35331 0.0
C219 C 0.31953 0.33892 0.42283 0.0
O220 O 0.33803 0.36966 0.41645 0.0
O221 O 0.3137 0.3123 0.39835 0.0
O222 O 0.37025 0.43835 0.37286 0.0
O223 O 0.33188 0.40467 0.32901 0.0
C224 C 0.23507 0.28801 0.25743 0.0
C225 C 0.27572 0.2829 0.26163 0.0
C226 C 0.26722 0.23435 0.21174 0.0
C227 C 0.22596 0.23742 0.20948 0.0
N228 N 0.17292 0.27408 0.22038 0.0
N229 N 0.33297 0.26142 0.23576 0.0
C230 C 0.21076 0.26688 0.22898 0.0
C231 C 0.29262 0.25955 0.23616 0.0
N232 N 0.21919 0.31094 0.282 0.0
N233 N 0.28168 0.20583 0.19284 0.0
H234 H 0.35204 0.28002 0.2534 0.0
H235 H 0.34733 0.2474 0.21589 0.0
H236 H 0.26423 0.18717 0.17412 0.0
H237 H 0.31059 0.19947 0.19707 0.0
H238 H 0.18886 0.31236 0.28295 0.0
H239 H 0.23627 0.32736 0.3028 0.0
H240 H 0.16089 0.29696 0.2315 0.0
H241 H 0.15489 0.25888 0.19931 0.0
C242 C 0.73371 0.25406 0.26095 0.0
C243 C 0.72887 0.24003 0.29549 0.0
C244 C 0.76422 0.188 0.27676 0.0
C245 C 0.77364 0.2046 0.24431 0.0
N246 N 0.77497 0.25844 0.21 0.0
N247 N 0.7489 0.1987 0.33939 0.0
C248 C 0.76061 0.23912 0.23762 0.0
C249 C 0.74691 0.20848 0.30437 0.0
N250 N 0.71132 0.28026 0.24943 0.0
N251 N 0.76991 0.15209 0.28068 0.0
H252 H 0.73852 0.21412 0.36093 0.0
H253 H 0.76498 0.1778 0.34765 0.0
H254 H 0.78013 0.13513 0.26023 0.0
H255 H 0.76004 0.13795 0.30254 0.0
H256 H 0.71121 0.28859 0.22304 0.0
H257 H 0.68966 0.29071 0.26464 0.0
H258 H 0.76916 0.28534 0.20638 0.0
H259 H 0.79609 0.24937 0.19322 0.0
C260 C 0.80028 0.75259 0.25333 0.0
C261 C 0.7793 0.77127 0.2275 0.0
C262 C 0.71829 0.73129 0.23564 0.0
C263 C 0.73746 0.71854 0.26653 0.0
N264 N 0.79652 0.71472 0.30455 0.0
N265 N 0.71795 0.77935 0.19404 0.0
C266 C 0.77864 0.72806 0.27499 0.0
C267 C 0.73837 0.76028 0.21787 0.0
N268 N 0.84083 0.75817 0.25673 0.0
N269 N 0.68055 0.71633 0.22405 0.0
H270 H 0.73125 0.80105 0.18062 0.0
H271 H 0.68719 0.77547 0.18942 0.0
H272 H 0.66495 0.69546 0.23706 0.0
H273 H 0.66619 0.722 0.19976 0.0
H274 H 0.85811 0.74323 0.27297 0.0
H275 H 0.85737 0.77545 0.24052 0.0
H276 H 0.82537 0.72401 0.31495 0.0
H277 H 0.78163 0.69513 0.31962 0.0
C278 C 0.28852 0.76216 0.2609 0.0
C279 C 0.2717 0.7246 0.25721 0.0
C280 C 0.20712 0.74256 0.23709 0.0
C281 C 0.2247 0.77971 0.23822 0.0
N282 N 0.28201 0.82531 0.2476 0.0
N283 N 0.21646 0.67802 0.23965 0.0
C284 C 0.26535 0.7897 0.24935 0.0
C285 C 0.23137 0.7145 0.24466 0.0
N286 N 0.32667 0.77143 0.27542 0.0
N287 N 0.16701 0.73437 0.22973 0.0
H288 H 0.23254 0.65681 0.24711 0.0
H289 H 0.18891 0.66843 0.22645 0.0
H290 H 0.14846 0.75413 0.22332 0.0
H291 H 0.15148 0.70861 0.23231 0.0
H292 H 0.33925 0.79841 0.2828 0.0
H293 H 0.34546 0.75199 0.28216 0.0
H294 H 0.31233 0.83383 0.25135 0.0
H295 H 0.26564 0.8463 0.24001 0.0
C296 C 0.22186 0.71702 0.72978 0.0
C297 C 0.26358 0.72729 0.73261 0.0
C298 C 0.25777 0.76881 0.78674 0.0
C299 C 0.21608 0.75868 0.78367 0.0
N300 N 0.15767 0.73309 0.74604 0.0
N301 N 0.31937 0.77056 0.75665 0.0
C302 C 0.1979 0.73611 0.75301 0.0
C303 C 0.28088 0.75583 0.75876 0.0
N304 N 0.2052 0.68735 0.70709 0.0
N305 N 0.27569 0.78867 0.81732 0.0
H306 H 0.33671 0.76195 0.73597 0.0
H307 H 0.33261 0.79368 0.77293 0.0
H308 H 0.26006 0.79844 0.8387 0.0
H309 H 0.30636 0.79305 0.82276 0.0
H310 H 0.17563 0.67622 0.70745 0.0
H311 H 0.22131 0.67168 0.69007 0.0
H312 H 0.14314 0.71978 0.72219 0.0
H313 H 0.13937 0.74734 0.76226 0.0
C314 C 0.20107 0.25518 0.73769 0.0
C315 C 0.21996 0.23395 0.76253 0.0
C316 C 0.28454 0.25565 0.74133 0.0
C317 C 0.2664 0.2824 0.72264 0.0
N318 N 0.20767 0.30759 0.70108 0.0
N319 N 0.27933 0.21238 0.7879 0.0
C320 C 0.22459 0.28164 0.71947 0.0
C321 C 0.26157 0.23296 0.76371 0.0
N322 N 0.16067 0.24993 0.73181 0.0
N323 N 0.32378 0.25233 0.7377 0.0
H324 H 0.26337 0.19488 0.80425 0.0
H325 H 0.30993 0.21402 0.79321 0.0
H326 H 0.34099 0.26869 0.72117 0.0
H327 H 0.3382 0.23137 0.7481 0.0
H328 H 0.14509 0.26228 0.71188 0.0
H329 H 0.14298 0.23036 0.74475 0.0
H330 H 0.17781 0.31137 0.70152 0.0
H331 H 0.22402 0.32672 0.6866 0.0
C332 C 0.78099 0.2454 0.76072 0.0
C333 C 0.76326 0.20834 0.75321 0.0
C334 C 0.70191 0.22967 0.72882 0.0
C335 C 0.7204 0.26656 0.73463 0.0
N336 N 0.77869 0.30994 0.75072 0.0
N337 N 0.70888 0.16431 0.7271 0.0
C338 C 0.76022 0.27458 0.74928 0.0
C339 C 0.72434 0.20021 0.73619 0.0
N340 N 0.81775 0.25271 0.77874 0.0
N341 N 0.66242 0.22299 0.71776 0.0
H342 H 0.72326 0.14193 0.73423 0.0
H343 H 0.6828 0.15652 0.71079 0.0
H344 H 0.64518 0.24388 0.71182 0.0
H345 H 0.64588 0.19717 0.71684 0.0
H346 H 0.83013 0.27896 0.78922 0.0
H347 H 0.8354 0.23226 0.78507 0.0
H348 H 0.80891 0.3172 0.75726 0.0
H349 H 0.76441 0.33203 0.74256 0.0
C350 C 0.78596 0.75014 0.72949 0.0
C351 C 0.76685 0.77188 0.75473 0.0
C352 C 0.70465 0.758 0.7173 0.0
C353 C 0.72127 0.72925 0.69822 0.0
N354 N 0.77833 0.70005 0.6818 0.0
N355 N 0.70928 0.80047 0.77141 0.0
C356 C 0.76248 0.72669 0.70216 0.0
C357 C 0.7268 0.77799 0.74768 0.0
N358 N 0.82639 0.75171 0.73233 0.0
N359 N 0.66722 0.76496 0.70675 0.0
H360 H 0.72491 0.81604 0.79357 0.0
H361 H 0.67898 0.80269 0.77006 0.0
H362 H 0.65097 0.75012 0.68439 0.0
H363 H 0.65393 0.78712 0.71774 0.0
H364 H 0.84261 0.7386 0.71333 0.0
H365 H 0.84392 0.76911 0.75221 0.0
H366 H 0.80715 0.6936 0.68646 0.0
H367 H 0.76198 0.68351 0.66064 0.0
C368 C 0.16312 0.19517 0.97049 0.0
C369 C 0.17952 0.17009 0.94626 0.0
C370 C 0.20081 0.13628 -0.00263 0.0
C371 C 0.17795 0.15691 0.02017 0.0
N372 N 0.1372 0.20617 0.02961 0.0
N373 N 0.21648 0.11833 0.93579 0.0
C374 C 0.15991 0.18709 0.00737 0.0
C375 C 0.19967 0.14139 0.95959 0.0
N376 N 0.14976 0.22608 0.95803 0.0
N377 N 0.22363 0.11199 0.01216 0.0
H378 H 0.21859 0.12292 0.90837 0.0
H379 H 0.22711 0.09403 0.94273 0.0
H380 H 0.22512 0.10827 0.03996 0.0
H381 H 0.24357 0.09802 -0.00217 0.0
H382 H 0.14107 0.2473 0.97496 0.0
H383 H 0.15042 0.23211 0.93091 0.0
H384 H 0.11905 0.22519 0.02064 0.0
H385 H 0.13468 0.2016 0.05695 0.0
C386 C 0.82767 0.19968 0.96547 0.0
C387 C 0.80263 0.17412 0.9413 0.0
C388 C 0.76526 0.15337 0.99212 0.0
C389 C 0.79565 0.17259 0.01648 0.0
N390 N 0.8541 0.21678 0.02773 0.0
N391 N 0.74513 0.12892 0.92997 0.0
C392 C 0.82576 0.19748 0.00363 0.0
C393 C 0.7699 0.15237 0.95404 0.0
N394 N 0.85365 0.22539 0.95159 0.0
N395 N 0.73256 0.1356 0.0058 0.0
H396 H 0.74712 0.12854 0.90186 0.0
H397 H 0.72353 0.10907 0.9377 0.0
H398 H 0.72901 0.13639 0.03375 0.0
H399 H 0.70776 0.12304 0.9898 0.0
H400 H 0.87099 0.24673 0.96737 0.0
H401 H 0.85511 0.22714 0.92358 0.0
H402 H 0.87966 0.23184 0.02005 0.0
H403 H 0.85269 0.21669 0.05586 0.0
C404 C 0.80505 0.78388 0.97782 0.0
C405 C 0.78619 0.8095 0.95771 0.0
C406 C 0.76407 0.83804 0.01378 0.0
C407 C 0.78636 0.81505 0.03378 0.0
N408 N 0.81568 0.75877 0.03632 0.0
N409 N 0.73825 0.85281 0.95443 0.0
C410 C 0.80225 0.78515 0.01609 0.0
C411 C 0.7622 0.83375 0.97511 0.0
N412 N 0.82849 0.76072 0.96108 0.0
N413 N 0.74672 0.86514 0.03196 0.0
H414 H 0.73639 0.84955 0.92601 0.0
H415 H 0.71802 0.86927 0.96509 0.0
H416 H 0.746 0.8671 0.06026 0.0
H417 H 0.73392 0.88586 0.01939 0.0
H418 H 0.84691 0.74494 0.97514 0.0
H419 H 0.83146 0.75857 0.93313 0.0
H420 H 0.82476 0.73445 0.02506 0.0
H421 H 0.81392 0.75981 0.06452 0.0
C422 C 0.21602 0.82425 0.03521 0.0
C423 C 0.18258 0.8095 0.0527 0.0
C424 C 0.15346 0.77671 0.99563 0.0
C425 C 0.18541 0.79398 0.97727 0.0
N426 N 0.25231 0.82388 0.98039 0.0
N427 N 0.12731 0.76265 0.05351 0.0
C428 C 0.21867 0.81412 -0.00244 0.0
C429 C 0.15418 0.78232 0.03417 0.0
N430 N 0.24401 0.84933 0.05423 0.0
N431 N 0.12077 0.7579 0.97643 0.0
H432 H 0.12723 0.76679 0.0818 0.0
H433 H 0.10798 0.74001 0.04218 0.0
H434 H 0.1186 0.75208 0.94835 0.0
H435 H 0.09451 0.74956 0.98823 0.0
H436 H 0.26684 0.86446 0.04227 0.0
H437 H 0.2434 0.85589 0.08218 0.0
H438 H 0.27874 0.83642 0.99385 0.0
H439 H 0.25459 0.8162 0.95285 0.0
C440 C 0.01163 0.17557 0.11593 0.0
C441 C 0.02898 0.15315 0.1407 0.0
C442 C 0.96545 0.13972 0.16765 0.0
C443 C 0.9474 0.1599 0.14111 0.0
N444 N 0.95131 0.19381 0.08768 0.0
N445 N 0.02216 0.10927 0.18619 0.0
C446 C 0.96993 0.17687 0.1145 0.0
C447 C 0.00592 0.1342 0.16573 0.0
N448 N 0.03529 0.19652 0.09474 0.0
N449 N 0.94382 0.12551 0.19455 0.0
H450 H 0.05168 0.10416 0.18542 0.0
H451 H 0.00579 0.09129 0.20173 0.0
H452 H 0.91334 0.12617 0.19553 0.0
H453 H 0.95645 0.11492 0.21731 0.0
H454 H 0.02519 0.2163 0.07881 0.0
H455 H 0.06597 0.19622 0.09513 0.0
H456 H 0.9651 0.20298 0.06505 0.0
H457 H 0.92113 0.19684 0.08689 0.0
C458 C 0.80732 0.98646 0.19331 0.0
C459 C 0.80322 0.96115 0.16175 0.0
C460 C 0.79736 0.01218 0.12349 0.0
C461 C 0.79803 0.03712 0.15512 0.0
N462 N 0.78951 0.04426 0.21967 0.0
N463 N 0.77858 0.94935 0.09868 0.0
C464 C 0.79822 0.023 0.18991 0.0
C465 C 0.79291 0.9738 0.12746 0.0
N466 N 0.82245 0.977 0.22596 0.0
N467 N 0.80418 0.02436 0.09006 0.0
H468 H 0.77264 0.92109 0.10115 0.0
H469 H 0.76799 0.95772 0.07389 0.0
H470 H 0.81191 0.05186 0.08551 0.0
H471 H 0.80716 0.0064 0.06737 0.0
H472 H 0.82913 -0.00396 0.24855 0.0
H473 H 0.83265 0.95171 0.22965 0.0
H474 H 0.78638 0.03405 0.24509 0.0
H475 H 0.78071 0.0705 0.21783 0.0
C476 C 0.97021 0.83854 0.20701 0.0
C477 C 0.94908 0.83722 0.17246 0.0
C478 C 0.0092 0.82255 0.14424 0.0
C479 C 0.03215 0.83329 0.17748 0.0
N480 N 0.03265 0.86024 0.23995 0.0
N481 N 0.95395 0.83736 0.10688 0.0
C482 C 0.01231 0.84349 0.20897 0.0
C483 C 0.96988 0.83157 0.14053 0.0
N484 N 0.95057 0.83423 0.23788 0.0
N485 N 0.02459 0.80359 0.11624 0.0
H486 H 0.92756 0.84878 0.10261 0.0
H487 H 0.96996 0.83575 0.08368 0.0
H488 H 0.05235 0.7941 0.11882 0.0
H489 H 0.00761 0.79334 0.09241 0.0
H490 H 0.96538 0.83256 0.26318 0.0
H491 H 0.91991 0.8274 0.23744 0.0
H492 H 0.01825 0.87048 0.26202 0.0
H493 H 0.06309 0.86824 0.24224 0.0
C494 C 0.14907 0.02164 0.19888 0.0
C495 C 0.17804 0.04066 0.17877 0.0
C496 C 0.21552 0.9872 0.1771 0.0
C497 C 0.18319 0.9663 0.19132 0.0
N498 N 0.11724 0.96257 0.21327 0.0
N499 N 0.23972 0.04306 0.14969 0.0
C500 C 0.14985 0.98339 0.20246 0.0
C501 C 0.21181 0.02398 0.16848 0.0
N502 N 0.12003 0.03975 0.21367 0.0
N503 N 0.24966 0.97164 0.172 0.0
H504 H 0.23899 0.07073 0.14493 0.0
H505 H 0.26268 0.03129 0.13764 0.0
H506 H 0.25291 0.94484 0.17859 0.0
H507 H 0.27567 0.98597 0.16437 0.0
H508 H 0.10128 0.02852 0.23233 0.0
H509 H 0.11645 0.06708 0.20978 0.0
H510 H 0.09007 0.97253 0.21657 0.0
H511 H 0.11587 0.93446 0.21647 0.0
C512 C 0.9716 0.82578 0.82632 0.0
C513 C 0.94858 0.81142 0.85392 0.0
C514 C 0.00607 0.7855 0.88038 0.0
C515 C 0.03005 0.80393 0.85569 0.0
N516 N 0.03725 0.84311 0.80623 0.0
N517 N 0.94388 0.78082 0.90953 0.0
C518 C 0.01323 0.82438 0.82881 0.0
C519 C 0.96563 0.79169 0.88136 0.0
N520 N 0.95342 0.8397 0.79719 0.0
N521 N 0.02209 0.76236 0.90305 0.0
H522 H 0.91428 0.78519 0.91155 0.0
H523 H 0.95586 0.77007 0.93248 0.0
H524 H 0.05193 0.75806 0.90373 0.0
H525 H 0.00533 0.74516 0.91905 0.0
H526 H 0.96789 0.84718 0.77431 0.0
H527 H 0.92287 0.84086 0.79438 0.0
H528 H 0.02765 0.86223 0.78922 0.0
H529 H 0.06758 0.84097 0.80584 0.0
C530 C 0.19075 0.96585 0.83349 0.0
C531 C 0.16468 0.94915 0.85798 0.0
C532 C 0.1422 0.00874 0.87299 0.0
C533 C 0.16159 0.02385 0.84365 0.0
N534 N 0.2 0.01351 0.79147 0.0
N535 N 0.10418 0.95405 0.88907 0.0
C536 C 0.18485 0.00159 0.8225 0.0
C537 C 0.13698 0.97032 0.87425 0.0
N538 N 0.22183 0.94872 0.82177 0.0
N539 N 0.12968 0.0308 0.9004 0.0
H540 H 0.09557 0.92566 0.88618 0.0
H541 H 0.08258 0.9693 0.89932 0.0
H542 H 0.13662 0.05943 0.90284 0.0
H543 H 0.11728 0.02009 0.92314 0.0
H544 H 0.24334 0.96142 0.80636 0.0
H545 H 0.22865 0.92373 0.83073 0.0
H546 H 0.214 -0.00334 0.77359 0.0
H547 H 0.19518 0.03872 0.78175 0.0
C548 C 0.01293 0.13644 0.82732 0.0
C549 C 0.03543 0.16322 0.80864 0.0
C550 C 0.97426 0.18762 0.78817 0.0
C551 C 0.95201 0.1589 0.80454 0.0
N552 N 0.94949 0.10047 0.83126 0.0
N553 N 0.03807 0.21133 0.7674 0.0
C554 C 0.97117 0.1316 0.82149 0.0
C555 C 0.01626 0.18806 0.7879 0.0
N556 N 0.03118 0.11703 0.85236 0.0
N557 N 0.95539 0.21487 0.77393 0.0
H558 H 0.06882 0.21226 0.76681 0.0
H559 H 0.02556 0.22764 0.74898 0.0
H560 H 0.92464 0.21478 0.77323 0.0
H561 H 0.97023 0.23863 0.76497 0.0
H562 H 0.01561 0.1001 0.86945 0.0
H563 H 0.06168 0.12076 0.85906 0.0
H564 H 0.96242 0.07794 0.84012 0.0
H565 H 0.91867 0.09541 0.82696 0.0
C566 C 0.83182 0.96477 0.80123 0.0
C567 C 0.81209 0.95159 0.83123 0.0
C568 C 0.78065 0.00841 0.83827 0.0
C569 C 0.80584 0.02403 0.81279 0.0
N570 N 0.85787 0.01819 0.77153 0.0
N571 N 0.76699 0.95946 0.8783 0.0
C572 C 0.83148 0.00232 0.79398 0.0
C573 C 0.78588 0.97287 0.84952 0.0
N574 N 0.85152 0.9416 0.78013 0.0
N575 N 0.75166 0.02769 0.85141 0.0
H576 H 0.7686 0.93275 0.88593 0.0
H577 H 0.7512 0.97517 0.8956 0.0
H578 H 0.74703 0.0536 0.8431 0.0
H579 H 0.73011 0.01689 0.86782 0.0
H580 H 0.86298 0.94846 0.75565 0.0
H581 H 0.85339 0.91422 0.78537 0.0
H582 H 0.88072 0.00498 0.76095 0.0
H583 H 0.85904 0.04558 0.76538 0.0
C584 C 0.65343 0.67572 0.46724 0.0
C585 C 0.66596 0.64876 0.4424 0.0
C586 C 0.68034 0.61082 0.4923 0.0
C587 C 0.66147 0.63456 0.51588 0.0
N588 N 0.62794 0.6888 0.52612 0.0
N589 N 0.69168 0.59069 0.43013 0.0
C590 C 0.64818 0.66728 0.50374 0.0
C591 C 0.67994 0.61645 0.45467 0.0
N592 N 0.64582 0.70902 0.45572 0.0
N593 N 0.69911 0.58328 0.50618 0.0
H594 H 0.69403 0.59493 0.40265 0.0
H595 H 0.69725 0.56445 0.43651 0.0
H596 H 0.70036 0.57901 0.53385 0.0
H597 H 0.71645 0.56695 0.49113 0.0
H598 H 0.64045 0.73123 0.47326 0.0
H599 H 0.64818 0.71555 0.42885 0.0
H600 H 0.61325 0.71035 0.51741 0.0
H601 H 0.62335 0.68371 0.55303 0.0
C602 C 0.30096 0.67574 0.49797 0.0
C603 C 0.32299 0.65196 0.51768 0.0
C604 C 0.35333 0.63346 0.46214 0.0
C605 C 0.3367 0.6613 0.44369 0.0
N606 N 0.29948 0.7138 0.44691 0.0
N607 N 0.3813 0.61943 0.51992 0.0
C608 C 0.31172 0.68391 0.46233 0.0
C609 C 0.35255 0.63419 0.50024 0.0
N610 N 0.26905 0.6894 0.51238 0.0
N611 N 0.36835 0.60517 0.44342 0.0
H612 H 0.38474 0.62259 0.54828 0.0
H613 H 0.40486 0.60855 0.50783 0.0
H614 H 0.36596 0.6011 0.41507 0.0
H615 H 0.3782 0.58309 0.45623 0.0
H616 H 0.24993 0.70404 0.49764 0.0
H617 H 0.2594 0.68303 0.53767 0.0
H618 H 0.28435 0.73302 0.46088 0.0
H619 H 0.30779 0.7214 0.42155 0.0
C620 C 0.28378 0.35887 0.4763 0.0
C621 C 0.308 0.33398 0.46028 0.0
C622 C 0.32328 0.31207 0.52006 0.0
C623 C 0.3068 0.34246 0.5363 0.0
N624 N 0.26796 0.393 0.53146 0.0
N625 N 0.35127 0.28632 0.46654 0.0
C626 C 0.28528 0.36492 0.51483 0.0
C627 C 0.32695 0.30955 0.48185 0.0
N628 N 0.25974 0.37674 0.45444 0.0
N629 N 0.33653 0.28644 0.54137 0.0
H630 H 0.35509 0.28339 0.43876 0.0
H631 H 0.3698 0.27148 0.48166 0.0
H632 H 0.33462 0.28819 0.56953 0.0
H633 H 0.34569 0.26182 0.53095 0.0
H634 H 0.23916 0.39334 0.46419 0.0
H635 H 0.25802 0.37221 0.4261 0.0
H636 H 0.2558 0.41325 0.51761 0.0
H637 H 0.26693 0.39656 0.55971 0.0
C638 C 0.70056 0.2881 0.49393 0.0
C639 C 0.69767 0.31911 0.47324 0.0
C640 C 0.69576 0.35759 0.52997 0.0
C641 C 0.68875 0.32575 0.5491 0.0
N642 N 0.68299 0.25939 0.54885 0.0
N643 N 0.68138 0.3822 0.47309 0.0
C644 C 0.69134 0.29052 0.5312 0.0
C645 C 0.69298 0.35383 0.49159 0.0
N646 N 0.71237 0.25661 0.47813 0.0
N647 N 0.7039 0.39162 0.54848 0.0
H648 H 0.67231 0.3795 0.44557 0.0
H649 H 0.67486 0.40679 0.48621 0.0
H650 H 0.70697 0.39516 0.57688 0.0
H651 H 0.71204 0.41544 0.53553 0.0
H652 H 0.71804 0.23424 0.49269 0.0
H653 H 0.72053 0.25449 0.45131 0.0
H654 H 0.68011 0.23292 0.53574 0.0
H655 H 0.6763 0.26006 0.57605 0.0
C656 C 0.50393 0.62912 0.67934 0.0
C657 C 0.52433 0.64246 0.64966 0.0
C658 C 0.46434 0.66551 0.62494 0.0
C659 C 0.44423 0.65306 0.65512 0.0
N660 N 0.44566 0.62896 0.7142 0.0
N661 N 0.52737 0.68018 0.5988 0.0
C662 C 0.46442 0.63703 0.68351 0.0
C663 C 0.50551 0.66265 0.62374 0.0
N664 N 0.52147 0.60706 0.70224 0.0
N665 N 0.44386 0.67947 0.59715 0.0
H666 H 0.55779 0.67912 0.59742 0.0
H667 H 0.51629 0.69841 0.58157 0.0
H668 H 0.41427 0.68432 0.59815 0.0
H669 H 0.45547 0.68443 0.57227 0.0
H670 H 0.50661 0.59299 0.72183 0.0
H671 H 0.55024 0.60031 0.69989 0.0
H672 H 0.46009 0.62104 0.73751 0.0
H673 H 0.41615 0.63282 0.71757 0.0
C674 C 0.29533 0.5354 0.71329 0.0
C675 C 0.27649 0.5463 0.6813 0.0
C676 C 0.26613 0.48168 0.65656 0.0
C677 C 0.29555 0.47382 0.68304 0.0
N678 N 0.33777 0.49339 0.73783 0.0
N679 N 0.22956 0.52808 0.63022 0.0
C680 C 0.30936 0.50038 0.71234 0.0
C681 C 0.25701 0.51868 0.65532 0.0
N682 N 0.29877 0.55809 0.74463 0.0
N683 N 0.24699 0.45365 0.63314 0.0
H684 H 0.21893 0.55375 0.6325 0.0
H685 H 0.21624 0.51065 0.60831 0.0
H686 H 0.25174 0.42616 0.6349 0.0
H687 H 0.22497 0.45685 0.61326 0.0
H688 H 0.30994 0.55043 0.7695 0.0
H689 H 0.28528 0.58233 0.74652 0.0
H690 H 0.35175 0.51358 0.75725 0.0
H691 H 0.34972 0.46843 0.73791 0.0
C692 C 0.50682 0.3111 0.67706 0.0
C693 C 0.53672 0.34091 0.68724 0.0
C694 C 0.48598 0.3822 0.69873 0.0
C695 C 0.45638 0.35358 0.68447 0.0
N696 N 0.43746 0.29122 0.65843 0.0
N697 N 0.55546 0.40632 0.70222 0.0
C698 C 0.46645 0.31804 0.67328 0.0
C699 C 0.52654 0.37682 0.69701 0.0
N700 N 0.51708 0.27616 0.67179 0.0
N701 N 0.47534 0.41462 0.71373 0.0
H702 H 0.58556 0.40404 0.70033 0.0
H703 H 0.54951 0.43362 0.70519 0.0
H704 H 0.4459 0.42003 0.71432 0.0
H705 H 0.49535 0.43493 0.72825 0.0
H706 H 0.4966 0.25259 0.66769 0.0
H707 H 0.54645 0.27042 0.67441 0.0
H708 H 0.44319 0.26614 0.64589 0.0
H709 H 0.4074 0.29477 0.65694 0.0
C710 C 0.71048 0.51241 0.65832 0.0
C711 C 0.68243 0.53119 0.67697 0.0
C712 C 0.66713 0.47855 0.71309 0.0
C713 C 0.69246 0.4586 0.69205 0.0
N714 N 0.746 0.45836 0.65265 0.0
N715 N 0.64218 0.53673 0.72851 0.0
C716 C 0.71692 0.47639 0.66739 0.0
C717 C 0.66387 0.51595 0.70682 0.0
N718 N 0.73 0.52877 0.63132 0.0
N719 N 0.64353 0.4609 0.73673 0.0
H720 H 0.63652 0.56333 0.7236 0.0
H721 H 0.6321 0.52873 0.75313 0.0
H722 H 0.64597 0.43412 0.74347 0.0
H723 H 0.62002 0.47203 0.74851 0.0
H724 H 0.74746 0.51532 0.61372 0.0
H725 H 0.72793 0.55609 0.62589 0.0
H726 H 0.76684 0.47014 0.63611 0.0
H727 H 0.75119 0.4321 0.65959 0.0
C728 C 0.49119 0.34513 0.32712 0.0
C729 C 0.46668 0.32754 0.35202 0.0
C730 C 0.52186 0.29603 0.37465 0.0
C731 C 0.54732 0.31704 0.35296 0.0
N732 N 0.55803 0.36386 0.31073 0.0
N733 N 0.45945 0.29043 0.40324 0.0
C734 C 0.5325 0.34224 0.32976 0.0
C735 C 0.48204 0.30375 0.37658 0.0
N736 N 0.4747 0.36344 0.30017 0.0
N737 N 0.53584 0.26893 0.39361 0.0
H738 H 0.43042 0.29614 0.40631 0.0
H739 H 0.47051 0.2764 0.42441 0.0
H740 H 0.56529 0.26341 0.39387 0.0
H741 H 0.51765 0.25 0.4067 0.0
H742 H 0.49036 0.37365 0.27897 0.0
H743 H 0.44436 0.36556 0.29703 0.0
H744 H 0.54981 0.38599 0.29707 0.0
H745 H 0.58824 0.36115 0.31041 0.0
C746 C 0.6367 0.46464 0.35492 0.0
C747 C 0.66821 0.44901 0.33858 0.0
C748 C 0.67844 0.50343 0.3035 0.0
C749 C 0.65188 0.52121 0.32528 0.0
N750 N 0.61794 0.5212 0.38137 0.0
N751 N 0.72276 0.45584 0.29966 0.0
C752 C 0.63446 0.50259 0.35378 0.0
C753 C 0.69017 0.46892 0.31328 0.0
N754 N 0.60808 0.44327 0.37085 0.0
N755 N 0.69144 0.51863 0.27308 0.0
H756 H 0.7324 0.43109 0.30661 0.0
H757 H 0.74198 0.47107 0.28393 0.0
H758 H 0.68242 0.54304 0.26449 0.0
H759 H 0.70799 0.50514 0.25458 0.0
H760 H 0.58322 0.45378 0.38086 0.0
H761 H 0.60648 0.41459 0.3697 0.0
H762 H 0.60752 0.50831 0.4038 0.0
H763 H 0.6198 0.54989 0.38465 0.0
C764 C 0.52375 0.68412 0.26418 0.0
C765 C 0.54362 0.69199 0.29939 0.0
C766 C 0.48705 0.72152 0.31982 0.0
C767 C 0.46358 0.70341 0.28954 0.0
N768 N 0.46206 0.68196 0.22628 0.0
N769 N 0.54293 0.71793 0.36194 0.0
C770 C 0.48281 0.68936 0.25932 0.0
C771 C 0.52549 0.71159 0.32735 0.0
N772 N 0.5443 0.67212 0.23578 0.0
N773 N 0.47242 0.74811 0.3412 0.0
H774 H 0.57005 0.70939 0.37001 0.0
H775 H 0.52845 0.72868 0.38369 0.0
H776 H 0.44498 0.75701 0.33449 0.0
H777 H 0.48941 0.76417 0.3623 0.0
H778 H 0.53235 0.66627 0.20913 0.0
H779 H 0.57464 0.66984 0.23862 0.0
H780 H 0.47241 0.66849 0.20362 0.0
H781 H 0.43454 0.69132 0.22119 0.0
C782 C 0.31416 0.4939 0.34865 0.0
C783 C 0.33747 0.47102 0.32868 0.0
C784 C 0.35199 0.51912 0.28696 0.0
C785 C 0.33421 0.54384 0.31049 0.0
N786 N 0.29695 0.5556 0.36285 0.0
N787 N 0.37854 0.46038 0.27889 0.0
C788 C 0.31442 0.53131 0.34086 0.0
C789 C 0.35572 0.48291 0.29733 0.0
N790 N 0.29143 0.47951 0.3747 0.0
N791 N 0.36588 0.53055 0.25518 0.0
H792 H 0.38112 0.43344 0.28527 0.0
H793 H 0.39651 0.46875 0.25846 0.0
H794 H 0.36461 0.55724 0.24746 0.0
H795 H 0.3759 0.51306 0.23515 0.0
H796 H 0.27097 0.49361 0.38818 0.0
H797 H 0.29052 0.45201 0.38068 0.0
H798 H 0.28676 0.54976 0.38805 0.0
H799 H 0.29401 0.58251 0.35649 0.0
loop_
_geom_bond_atom_site_label_1
_geom_bond_atom_site_label_2
_geom_bond_distance
_geom_bond_site_symmetry_2
_ccdc_geom_bond_type
O0 Cd1 2.223 . S
O0 C8 1.315 . S
Cd1 O0 2.223 . S
Cd1 O4 2.297 . S
Cd1 O5 2.439 . S
Cd1 O11 2.240 . S
Cd2 O3 2.240 . S
Cd2 O10 2.223 . S
Cd2 O12 2.297 . S
Cd2 O13 2.439 . S
O3 Cd2 2.240 . S
O3 C8 1.279 . S
O4 Cd1 2.297 . S
O4 C6 1.247 . S
O5 Cd1 2.439 . S
O5 C6 1.208 . S
C6 O4 1.247 . S
C6 O5 1.208 . S
C7 O12 1.247 . S
C7 O13 1.208 . S
C8 O0 1.315 . S
C8 O3 1.279 . S
C9 O10 1.315 . S
C9 O11 1.279 . S
O10 Cd2 2.223 . S
O10 C9 1.315 . S
O11 Cd1 2.240 . S
O11 C9 1.279 . S
O12 Cd2 2.297 . S
O12 C7 1.247 . S
O13 Cd2 2.439 . S
O13 C7 1.208 . S
O14 Cd15 2.223 . S
O14 C22 1.315 . S
Cd15 O14 2.223 . S
Cd15 O18 2.297 . S
Cd15 O19 2.439 . S
Cd15 O25 2.240 . S
Cd16 O17 2.240 . S
Cd16 O24 2.223 . S
Cd16 O26 2.297 . S
Cd16 O27 2.439 . S
O17 Cd16 2.240 . S
O17 C22 1.279 . S
O18 Cd15 2.297 . S
O18 C20 1.247 . S
O19 Cd15 2.439 . S
O19 C20 1.208 . S
C20 O18 1.247 . S
C20 O19 1.208 . S
C21 O26 1.247 . S
C21 O27 1.208 . S
C22 O14 1.315 . S
C22 O17 1.279 . S
C23 O24 1.315 . S
C23 O25 1.279 . S
O24 Cd16 2.223 . S
O24 C23 1.315 . S
O25 Cd15 2.240 . S
O25 C23 1.279 . S
O26 Cd16 2.297 . S
O26 C21 1.247 . S
O27 Cd16 2.439 . S
O27 C21 1.208 . S
O28 Cd29 2.223 . S
O28 C36 1.315 . S
Cd29 O28 2.223 . S
Cd29 O32 2.297 . S
Cd29 O33 2.439 . S
Cd29 O39 2.240 . S
Cd30 O31 2.240 . S
Cd30 O38 2.223 . S
Cd30 O40 2.297 . S
Cd30 O41 2.439 . S
O31 Cd30 2.240 . S
O31 C36 1.279 . S
O32 Cd29 2.297 . S
O32 C34 1.247 . S
O33 Cd29 2.439 . S
O33 C34 1.208 . S
C34 O32 1.247 . S
C34 O33 1.208 . S
C35 O40 1.247 . S
C35 O41 1.208 . S
C36 O28 1.315 . S
C36 O31 1.279 . S
C37 O38 1.315 . S
C37 O39 1.279 . S
O38 Cd30 2.223 . S
O38 C37 1.315 . S
O39 Cd29 2.240 . S
O39 C37 1.279 . S
O40 Cd30 2.297 . S
O40 C35 1.247 . S
O41 Cd30 2.439 . S
O41 C35 1.208 . S
O42 Cd43 2.223 . S
O42 C50 1.315 . S
Cd43 O42 2.223 . S
Cd43 O46 2.297 . S
Cd43 O47 2.439 . S
Cd43 O53 2.240 . S
Cd44 O45 2.240 . S
Cd44 O52 2.223 . S
Cd44 O54 2.297 . S
Cd44 O55 2.439 . S
O45 Cd44 2.240 . S
O45 C50 1.279 . S
O46 Cd43 2.297 . S
O46 C48 1.247 . S
O47 Cd43 2.439 . S
O47 C48 1.208 . S
C48 O46 1.247 . S
C48 O47 1.208 . S
C49 O54 1.247 . S
C49 O55 1.208 . S
C50 O42 1.315 . S
C50 O45 1.279 . S
C51 O52 1.315 . S
C51 O53 1.279 . S
O52 Cd44 2.223 . S
O52 C51 1.315 . S
O53 Cd43 2.240 . S
O53 C51 1.279 . S
O54 Cd44 2.297 . S
O54 C49 1.247 . S
O55 Cd44 2.439 . S
O55 C49 1.208 . S
O56 Cd57 2.223 . S
O56 C64 1.315 . S
Cd57 O56 2.223 . S
Cd57 O60 2.297 . S
Cd57 O61 2.439 . S
Cd57 O67 2.240 . S
Cd58 O59 2.240 . S
Cd58 O66 2.223 . S
Cd58 O68 2.297 . S
Cd58 O69 2.439 . S
O59 Cd58 2.240 . S
O59 C64 1.279 . S
O60 Cd57 2.297 . S
O60 C62 1.247 . S
O61 Cd57 2.439 . S
O61 C62 1.208 . S
C62 O60 1.247 . S
C62 O61 1.208 . S
C63 O68 1.247 . S
C63 O69 1.208 . S
C64 O56 1.315 . S
C64 O59 1.279 . S
C65 O66 1.315 . S
C65 O67 1.279 . S
O66 Cd58 2.223 . S
O66 C65 1.315 . S
O67 Cd57 2.240 . S
O67 C65 1.279 . S
O68 Cd58 2.297 . S
O68 C63 1.247 . S
O69 Cd58 2.439 . S
O69 C63 1.208 . S
O70 Cd71 2.223 . S
O70 C78 1.315 . S
Cd71 O70 2.223 . S
Cd71 O74 2.297 . S
Cd71 O75 2.439 . S
Cd71 O81 2.240 . S
Cd72 O73 2.240 . S
Cd72 O80 2.223 . S
Cd72 O82 2.297 . S
Cd72 O83 2.439 . S
O73 Cd72 2.240 . S
O73 C78 1.279 . S
O74 Cd71 2.297 . S
O74 C76 1.247 . S
O75 Cd71 2.439 . S
O75 C76 1.208 . S
C76 O74 1.247 . S
C76 O75 1.208 . S
C77 O82 1.247 . S
C77 O83 1.208 . S
C78 O70 1.315 . S
C78 O73 1.279 . S
C79 O80 1.315 . S
C79 O81 1.279 . S
O80 Cd72 2.223 . S
O80 C79 1.315 . S
O81 Cd71 2.240 . S
O81 C79 1.279 . S
O82 Cd72 2.297 . S
O82 C77 1.247 . S
O83 Cd72 2.439 . S
O83 C77 1.208 . S
O84 Cd85 2.223 . S
O84 C92 1.315 . S
Cd85 O84 2.223 . S
Cd85 O88 2.297 . S
Cd85 O89 2.439 . S
Cd85 O95 2.240 . S
Cd86 O87 2.240 . S
Cd86 O94 2.223 . S
Cd86 O96 2.297 . S
Cd86 O97 2.439 . S
O87 Cd86 2.240 . S
O87 C92 1.279 . S
O88 Cd85 2.297 . S
O88 C90 1.247 . S
O89 Cd85 2.439 . S
O89 C90 1.208 . S
C90 O88 1.247 . S
C90 O89 1.208 . S
C91 O96 1.247 . S
C91 O97 1.208 . S
C92 O84 1.315 . S
C92 O87 1.279 . S
C93 O94 1.315 . S
C93 O95 1.279 . S
O94 Cd86 2.223 . S
O94 C93 1.315 . S
O95 Cd85 2.240 . S
O95 C93 1.279 . S
O96 Cd86 2.297 . S
O96 C91 1.247 . S
O97 Cd86 2.439 . S
O97 C91 1.208 . S
O98 Cd99 2.223 . S
O98 C106 1.315 . S
Cd99 O98 2.223 . S
Cd99 O102 2.297 . S
Cd99 O103 2.439 . S
Cd99 O109 2.240 . S
Cd100 O101 2.240 . S
Cd100 O108 2.223 . S
Cd100 O110 2.297 . S
Cd100 O111 2.439 . S
O101 Cd100 2.240 . S
O101 C106 1.279 . S
O102 Cd99 2.297 . S
O102 C104 1.247 . S
O103 Cd99 2.439 . S
O103 C104 1.208 . S
C104 O102 1.247 . S
C104 O103 1.208 . S
C105 O110 1.247 . S
C105 O111 1.208 . S
C106 O98 1.315 . S
C106 O101 1.279 . S
C107 O108 1.315 . S
C107 O109 1.279 . S
O108 Cd100 2.223 . S
O108 C107 1.315 . S
O109 Cd99 2.240 . S
O109 C107 1.279 . S
O110 Cd100 2.297 . S
O110 C105 1.247 . S
O111 Cd100 2.439 . S
O111 C105 1.208 . S
O112 Cd113 2.223 . S
O112 C120 1.315 . S
Cd113 O112 2.223 . S
Cd113 O116 2.297 . S
Cd113 O117 2.439 . S
Cd113 O123 2.240 . S
Cd114 O115 2.240 . S
Cd114 O122 2.223 . S
Cd114 O124 2.297 . S
Cd114 O125 2.439 . S
O115 Cd114 2.240 . S
O115 C120 1.279 . S
O116 Cd113 2.297 . S
O116 C118 1.247 . S
O117 Cd113 2.439 . S
O117 C118 1.208 . S
C118 O116 1.247 . S
C118 O117 1.208 . S
C119 O124 1.247 . S
C119 O125 1.208 . S
C120 O112 1.315 . S
C120 O115 1.279 . S
C121 O122 1.315 . S
C121 O123 1.279 . S
O122 Cd114 2.223 . S
O122 C121 1.315 . S
O123 Cd113 2.240 . S
O123 C121 1.279 . S
O124 Cd114 2.297 . S
O124 C119 1.247 . S
O125 Cd114 2.439 . S
O125 C119 1.208 . S
O126 Cd127 2.223 . S
O126 C134 1.315 . S
Cd127 O126 2.223 . S
Cd127 O130 2.297 . S
Cd127 O131 2.439 . S
Cd127 O137 2.240 . S
Cd128 O129 2.240 . S
Cd128 O136 2.223 . S
Cd128 O138 2.297 . S
Cd128 O139 2.439 . S
O129 Cd128 2.240 . S
O129 C134 1.279 . S
O130 Cd127 2.297 . S
O130 C132 1.247 . S
O131 Cd127 2.439 . S
O131 C132 1.208 . S
C132 O130 1.247 . S
C132 O131 1.208 . S
C133 O138 1.247 . S
C133 O139 1.208 . S
C134 O126 1.315 . S
C134 O129 1.279 . S
C135 O136 1.315 . S
C135 O137 1.279 . S
O136 Cd128 2.223 . S
O136 C135 1.315 . S
O137 Cd127 2.240 . S
O137 C135 1.279 . S
O138 Cd128 2.297 . S
O138 C133 1.247 . S
O139 Cd128 2.439 . S
O139 C133 1.208 . S
O140 Cd141 2.223 . S
O140 C148 1.315 . S
Cd141 O140 2.223 . S
Cd141 O144 2.297 . S
Cd141 O145 2.439 . S
Cd141 O151 2.240 . S
Cd142 O143 2.240 . S
Cd142 O150 2.223 . S
Cd142 O152 2.297 . S
Cd142 O153 2.439 . S
O143 Cd142 2.240 . S
O143 C148 1.279 . S
O144 Cd141 2.297 . S
O144 C146 1.247 . S
O145 Cd141 2.439 . S
O145 C146 1.208 . S
C146 O144 1.247 . S
C146 O145 1.208 . S
C147 O152 1.247 . S
C147 O153 1.208 . S
C148 O140 1.315 . S
C148 O143 1.279 . S
C149 O150 1.315 . S
C149 O151 1.279 . S
O150 Cd142 2.223 . S
O150 C149 1.315 . S
O151 Cd141 2.240 . S
O151 C149 1.279 . S
O152 Cd142 2.297 . S
O152 C147 1.247 . S
O153 Cd142 2.439 . S
O153 C147 1.208 . S
O154 Cd155 2.223 . S
O154 C162 1.315 . S
Cd155 O154 2.223 . S
Cd155 O158 2.297 . S
Cd155 O159 2.439 . S
Cd155 O165 2.240 . S
Cd156 O157 2.240 . S
Cd156 O164 2.223 . S
Cd156 O166 2.297 . S
Cd156 O167 2.439 . S
O157 Cd156 2.240 . S
O157 C162 1.279 . S
O158 Cd155 2.297 . S
O158 C160 1.247 . S
O159 Cd155 2.439 . S
O159 C160 1.208 . S
C160 O158 1.247 . S
C160 O159 1.208 . S
C161 O166 1.247 . S
C161 O167 1.208 . S
C162 O154 1.315 . S
C162 O157 1.279 . S
C163 O164 1.315 . S
C163 O165 1.279 . S
O164 Cd156 2.223 . S
O164 C163 1.315 . S
O165 Cd155 2.240 . S
O165 C163 1.279 . S
O166 Cd156 2.297 . S
O166 C161 1.247 . S
O167 Cd156 2.439 . S
O167 C161 1.208 . S
O168 Cd169 2.223 . S
O168 C176 1.315 . S
Cd169 O168 2.223 . S
Cd169 O172 2.297 . S
Cd169 O173 2.439 . S
Cd169 O179 2.240 . S
Cd170 O171 2.240 . S
Cd170 O178 2.223 . S
Cd170 O180 2.297 . S
Cd170 O181 2.439 . S
O171 Cd170 2.240 . S
O171 C176 1.279 . S
O172 Cd169 2.297 . S
O172 C174 1.247 . S
O173 Cd169 2.439 . S
O173 C174 1.208 . S
C174 O172 1.247 . S
C174 O173 1.208 . S
C175 O180 1.247 . S
C175 O181 1.208 . S
C176 O168 1.315 . S
C176 O171 1.279 . S
C177 O178 1.315 . S
C177 O179 1.279 . S
O178 Cd170 2.223 . S
O178 C177 1.315 . S
O179 Cd169 2.240 . S
O179 C177 1.279 . S
O180 Cd170 2.297 . S
O180 C175 1.247 . S
O181 Cd170 2.439 . S
O181 C175 1.208 . S
O182 Cd183 2.223 . S
O182 C190 1.315 . S
Cd183 O182 2.223 . S
Cd183 O186 2.297 . S
Cd183 O187 2.439 . S
Cd183 O193 2.240 . S
Cd184 O185 2.240 . S
Cd184 O192 2.223 . S
Cd184 O194 2.297 . S
Cd184 O195 2.439 . S
O185 Cd184 2.240 . S
O185 C190 1.279 . S
O186 Cd183 2.297 . S
O186 C188 1.247 . S
O187 Cd183 2.439 . S
O187 C188 1.208 . S
C188 O186 1.247 . S
C188 O187 1.208 . S
C189 O194 1.247 . S
C189 O195 1.208 . S
C190 O182 1.315 . S
C190 O185 1.279 . S
C191 O192 1.315 . S
C191 O193 1.279 . S
O192 Cd184 2.223 . S
O192 C191 1.315 . S
O193 Cd183 2.240 . S
O193 C191 1.279 . S
O194 Cd184 2.297 . S
O194 C189 1.247 . S
O195 Cd184 2.439 . S
O195 C189 1.208 . S
O196 Cd197 2.223 . S
O196 C204 1.315 . S
Cd197 O196 2.223 . S
Cd197 O200 2.297 . S
Cd197 O201 2.439 . S
Cd197 O207 2.240 . S
Cd198 O199 2.240 . S
Cd198 O206 2.223 . S
Cd198 O208 2.297 . S
Cd198 O209 2.439 . S
O199 Cd198 2.240 . S
O199 C204 1.279 . S
O200 Cd197 2.297 . S
O200 C202 1.247 . S
O201 Cd197 2.439 . S
O201 C202 1.208 . S
C202 O200 1.247 . S
C202 O201 1.208 . S
C203 O208 1.247 . S
C203 O209 1.208 . S
C204 O196 1.315 . S
C204 O199 1.279 . S
C205 O206 1.315 . S
C205 O207 1.279 . S
O206 Cd198 2.223 . S
O206 C205 1.315 . S
O207 Cd197 2.240 . S
O207 C205 1.279 . S
O208 Cd198 2.297 . S
O208 C203 1.247 . S
O209 Cd198 2.439 . S
O209 C203 1.208 . S
O210 Cd211 2.223 . S
O210 C218 1.315 . S
Cd211 O210 2.223 . S
Cd211 O214 2.297 . S
Cd211 O215 2.439 . S
Cd211 O221 2.240 . S
Cd212 O213 2.240 . S
Cd212 O220 2.223 . S
Cd212 O222 2.297 . S
Cd212 O223 2.439 . S
O213 Cd212 2.240 . S
O213 C218 1.279 . S
O214 Cd211 2.297 . S
O214 C216 1.247 . S
O215 Cd211 2.439 . S
O215 C216 1.208 . S
C216 O214 1.247 . S
C216 O215 1.208 . S
C217 O222 1.247 . S
C217 O223 1.208 . S
C218 O210 1.315 . S
C218 O213 1.279 . S
C219 O220 1.315 . S
C219 O221 1.279 . S
O220 Cd212 2.223 . S
O220 C219 1.315 . S
O221 Cd211 2.240 . S
O221 C219 1.279 . S
O222 Cd212 2.297 . S
O222 C217 1.247 . S
O223 Cd212 2.439 . S
O223 C217 1.208 . S
C224 C225 1.363 . S
C224 C230 1.379 . S
C224 N232 1.356 . S
C225 C224 1.363 . S
C225 C231 1.363 . S
C226 C227 1.363 . S
C226 C231 1.379 . S
C226 N233 1.356 . S
C227 C226 1.363 . S
C227 C230 1.363 . S
N228 C230 1.356 . S
N228 H240 0.984 . S
N228 H241 0.985 . S
N229 C231 1.356 . S
N229 H234 0.984 . S
N229 H235 0.985 . S
C230 C224 1.379 . S
C230 C227 1.363 . S
C230 N228 1.356 . S
C231 C225 1.363 . S
C231 C226 1.379 . S
C231 N229 1.356 . S
N232 C224 1.356 . S
N232 H238 0.984 . S
N232 H239 0.984 . S
N233 C226 1.356 . S
N233 H236 0.984 . S
N233 H237 0.985 . S
H234 N229 0.984 . S
H235 N229 0.985 . S
H236 N233 0.984 . S
H237 N233 0.985 . S
H238 N232 0.984 . S
H239 N232 0.984 . S
H240 N228 0.984 . S
H241 N228 0.985 . S
C242 C243 1.363 . S
C242 C248 1.379 . S
C242 N250 1.356 . S
C243 C242 1.363 . S
C243 C249 1.363 . S
C244 C245 1.363 . S
C244 C249 1.379 . S
C244 N251 1.356 . S
C245 C244 1.363 . S
C245 C248 1.363 . S
N246 C248 1.356 . S
N246 H258 0.984 . S
N246 H259 0.985 . S
N247 C249 1.356 . S
N247 H252 0.984 . S
N247 H253 0.985 . S
C248 C242 1.379 . S
C248 C245 1.363 . S
C248 N246 1.356 . S
C249 C243 1.363 . S
C249 C244 1.379 . S
C249 N247 1.356 . S
N250 C242 1.356 . S
N250 H256 0.984 . S
N250 H257 0.984 . S
N251 C244 1.356 . S
N251 H254 0.984 . S
N251 H255 0.985 . S
H252 N247 0.984 . S
H253 N247 0.985 . S
H254 N251 0.984 . S
H255 N251 0.985 . S
H256 N250 0.984 . S
H257 N250 0.984 . S
H258 N246 0.984 . S
H259 N246 0.985 . S
C260 C261 1.363 . S
C260 C266 1.379 . S
C260 N268 1.356 . S
C261 C260 1.363 . S
C261 C267 1.363 . S
C262 C263 1.363 . S
C262 C267 1.379 . S
C262 N269 1.356 . S
C263 C262 1.363 . S
C263 C266 1.363 . S
N264 C266 1.356 . S
N264 H276 0.984 . S
N264 H277 0.985 . S
N265 C267 1.356 . S
N265 H270 0.984 . S
N265 H271 0.985 . S
C266 C260 1.379 . S
C266 C263 1.363 . S
C266 N264 1.356 . S
C267 C261 1.363 . S
C267 C262 1.379 . S
C267 N265 1.356 . S
N268 C260 1.356 . S
N268 H274 0.984 . S
N268 H275 0.984 . S
N269 C262 1.356 . S
N269 H272 0.984 . S
N269 H273 0.985 . S
H270 N265 0.984 . S
H271 N265 0.985 . S
H272 N269 0.984 . S
H273 N269 0.985 . S
H274 N268 0.984 . S
H275 N268 0.984 . S
H276 N264 0.984 . S
H277 N264 0.985 . S
C278 C279 1.363 . S
C278 C284 1.379 . S
C278 N286 1.356 . S
C279 C278 1.363 . S
C279 C285 1.363 . S
C280 C281 1.363 . S
C280 C285 1.379 . S
C280 N287 1.356 . S
C281 C280 1.363 . S
C281 C284 1.363 . S
N282 C284 1.356 . S
N282 H294 0.984 . S
N282 H295 0.985 . S
N283 C285 1.356 . S
N283 H288 0.984 . S
N283 H289 0.985 . S
C284 C278 1.379 . S
C284 C281 1.363 . S
C284 N282 1.356 . S
C285 C279 1.363 . S
C285 C280 1.379 . S
C285 N283 1.356 . S
N286 C278 1.356 . S
N286 H292 0.984 . S
N286 H293 0.984 . S
N287 C280 1.356 . S
N287 H290 0.984 . S
N287 H291 0.985 . S
H288 N283 0.984 . S
H289 N283 0.985 . S
H290 N287 0.984 . S
H291 N287 0.985 . S
H292 N286 0.984 . S
H293 N286 0.984 . S
H294 N282 0.984 . S
H295 N282 0.985 . S
C296 C297 1.363 . S
C296 C302 1.379 . S
C296 N304 1.356 . S
C297 C296 1.363 . S
C297 C303 1.363 . S
C298 C299 1.363 . S
C298 C303 1.379 . S
C298 N305 1.356 . S
C299 C298 1.363 . S
C299 C302 1.363 . S
N300 C302 1.356 . S
N300 H312 0.984 . S
N300 H313 0.985 . S
N301 C303 1.356 . S
N301 H306 0.984 . S
N301 H307 0.985 . S
C302 C296 1.379 . S
C302 C299 1.363 . S
C302 N300 1.356 . S
C303 C297 1.363 . S
C303 C298 1.379 . S
C303 N301 1.356 . S
N304 C296 1.356 . S
N304 H310 0.984 . S
N304 H311 0.984 . S
N305 C298 1.356 . S
N305 H308 0.984 . S
N305 H309 0.985 . S
H306 N301 0.984 . S
H307 N301 0.985 . S
H308 N305 0.984 . S
H309 N305 0.985 . S
H310 N304 0.984 . S
H311 N304 0.984 . S
H312 N300 0.984 . S
H313 N300 0.985 . S
C314 C315 1.363 . S
C314 C320 1.379 . S
C314 N322 1.356 . S
C315 C314 1.363 . S
C315 C321 1.363 . S
C316 C317 1.363 . S
C316 C321 1.379 . S
C316 N323 1.356 . S
C317 C316 1.363 . S
C317 C320 1.363 . S
N318 C320 1.356 . S
N318 H330 0.984 . S
N318 H331 0.985 . S
N319 C321 1.356 . S
N319 H324 0.984 . S
N319 H325 0.985 . S
C320 C314 1.379 . S
C320 C317 1.363 . S
C320 N318 1.356 . S
C321 C315 1.363 . S
C321 C316 1.379 . S
C321 N319 1.356 . S
N322 C314 1.356 . S
N322 H328 0.984 . S
N322 H329 0.984 . S
N323 C316 1.356 . S
N323 H326 0.984 . S
N323 H327 0.985 . S
H324 N319 0.984 . S
H325 N319 0.985 . S
H326 N323 0.984 . S
H327 N323 0.985 . S
H328 N322 0.984 . S
H329 N322 0.984 . S
H330 N318 0.984 . S
H331 N318 0.985 . S
C332 C333 1.363 . S
C332 C338 1.379 . S
C332 N340 1.356 . S
C333 C332 1.363 . S
C333 C339 1.363 . S
C334 C335 1.363 . S
C334 C339 1.379 . S
C334 N341 1.356 . S
C335 C334 1.363 . S
C335 C338 1.363 . S
N336 C338 1.356 . S
N336 H348 0.984 . S
N336 H349 0.985 . S
N337 C339 1.356 . S
N337 H342 0.984 . S
N337 H343 0.985 . S
C338 C332 1.379 . S
C338 C335 1.363 . S
C338 N336 1.356 . S
C339 C333 1.363 . S
C339 C334 1.379 . S
C339 N337 1.356 . S
N340 C332 1.356 . S
N340 H346 0.984 . S
N340 H347 0.984 . S
N341 C334 1.356 . S
N341 H344 0.984 . S
N341 H345 0.985 . S
H342 N337 0.984 . S
H343 N337 0.985 . S
H344 N341 0.984 . S
H345 N341 0.985 . S
H346 N340 0.984 . S
H347 N340 0.984 . S
H348 N336 0.984 . S
H349 N336 0.985 . S
C350 C351 1.363 . S
C350 C356 1.379 . S
C350 N358 1.356 . S
C351 C350 1.363 . S
C351 C357 1.363 . S
C352 C353 1.363 . S
C352 C357 1.379 . S
C352 N359 1.356 . S
C353 C352 1.363 . S
C353 C356 1.363 . S
N354 C356 1.356 . S
N354 H366 0.984 . S
N354 H367 0.985 . S
N355 C357 1.356 . S
N355 H360 0.984 . S
N355 H361 0.985 . S
C356 C350 1.379 . S
C356 C353 1.363 . S
C356 N354 1.356 . S
C357 C351 1.363 . S
C357 C352 1.379 . S
C357 N355 1.356 . S
N358 C350 1.356 . S
N358 H364 0.984 . S
N358 H365 0.984 . S
N359 C352 1.356 . S
N359 H362 0.984 . S
N359 H363 0.985 . S
H360 N355 0.984 . S
H361 N355 0.985 . S
H362 N359 0.984 . S
H363 N359 0.985 . S
H364 N358 0.984 . S
H365 N358 0.984 . S
H366 N354 0.984 . S
H367 N354 0.985 . S
C368 C369 1.363 . S
C368 C374 1.379 . S
C368 N376 1.356 . S
C369 C368 1.363 . S
C369 C375 1.363 . S
C370 C371 1.363 . S
C370 C375 1.379 . S
C370 N377 1.356 . S
C371 C370 1.363 . S
C371 C374 1.363 . S
N372 C374 1.356 1_554 S
N372 H384 0.984 . S
N372 H385 0.985 . S
N373 C375 1.356 . S
N373 H378 0.984 . S
N373 H379 0.985 . S
C374 C368 1.379 . S
C374 C371 1.363 . S
C374 N372 1.356 1_556 S
C375 C369 1.363 . S
C375 C370 1.379 . S
C375 N373 1.356 . S
N376 C368 1.356 . S
N376 H382 0.984 . S
N376 H383 0.984 . S
N377 C370 1.356 . S
N377 H380 0.984 1_556 S
N377 H381 0.985 . S
H378 N373 0.984 . S
H379 N373 0.985 . S
H380 N377 0.984 1_554 S
H381 N377 0.985 . S
H382 N376 0.984 . S
H383 N376 0.984 . S
H384 N372 0.984 . S
H385 N372 0.985 . S
C386 C387 1.363 1_554 S
C386 C392 1.379 . S
C386 N394 1.351 1_554 S
C387 C386 1.363 1_556 S
C387 C393 1.363 1_556 S
C388 C389 1.363 . S
C388 C393 1.379 . S
C388 N395 1.356 . S
C389 C388 1.363 . S
C389 C392 1.363 . S
N390 C392 1.356 . S
N390 H402 0.984 . S
N390 H403 0.985 . S
N391 C393 1.356 1_556 S
N391 H396 0.984 . S
N391 H397 0.985 . S
C392 C386 1.379 . S
C392 C389 1.363 . S
C392 N390 1.356 . S
C393 C387 1.363 1_554 S
C393 C388 1.379 . S
C393 N391 1.356 1_554 S
N394 C386 1.351 1_556 S
N394 H400 0.981 1_556 S
N394 H401 0.993 . S
N395 C388 1.356 . S
N395 H398 0.984 . S
N395 H399 0.985 . S
H396 N391 0.984 . S
H397 N391 0.985 . S
H398 N395 0.984 . S
H399 N395 0.985 . S
H400 N394 0.981 1_554 S
H401 N394 0.993 . S
H402 N390 0.984 . S
H403 N390 0.985 . S
C404 C405 1.363 . S
C404 C410 1.379 1_556 S
C404 N412 1.356 . S
C405 C404 1.363 . S
C405 C411 1.363 . S
C406 C407 1.363 . S
C406 C411 1.379 1_554 S
C406 N413 1.356 . S
C407 C406 1.363 . S
C407 C410 1.363 . S
N408 C410 1.356 . S
N408 H420 0.984 . S
N408 H421 0.985 . S
N409 C411 1.356 . S
N409 H414 0.984 . S
N409 H415 0.985 . S
C410 C404 1.379 1_554 S
C410 C407 1.363 . S
C410 N408 1.356 . S
C411 C405 1.363 . S
C411 C406 1.379 1_556 S
C411 N409 1.356 . S
N412 C404 1.356 . S
N412 H418 0.984 . S
N412 H419 0.984 . S
N413 C406 1.356 . S
N413 H416 0.984 . S
N413 H417 0.985 . S
H414 N409 0.984 . S
H415 N409 0.985 . S
H416 N413 0.984 . S
H417 N413 0.985 . S
H418 N412 0.984 . S
H419 N412 0.984 . S
H420 N408 0.984 . S
H421 N408 0.985 . S
C422 C423 1.363 . S
C422 C428 1.379 1_554 S
C422 N430 1.356 . S
C423 C422 1.363 . S
C423 C429 1.363 . S
C424 C425 1.363 . S
C424 C429 1.379 1_556 S
C424 N431 1.356 . S
C425 C424 1.363 . S
C425 C428 1.363 . S
N426 C428 1.356 . S
N426 H438 0.984 . S
N426 H439 0.985 . S
N427 C429 1.356 . S
N427 H432 0.984 . S
N427 H433 0.985 . S
C428 C422 1.379 1_556 S
C428 C425 1.363 . S
C428 N426 1.356 . S
C429 C423 1.363 . S
C429 C424 1.379 1_554 S
C429 N427 1.356 . S
N430 C422 1.356 . S
N430 H436 0.984 . S
N430 H437 0.984 . S
N431 C424 1.356 . S
N431 H434 0.984 . S
N431 H435 0.985 . S
H432 N427 0.984 . S
H433 N427 0.985 . S
H434 N431 0.984 . S
H435 N431 0.985 . S
H436 N430 0.984 . S
H437 N430 0.984 . S
H438 N426 0.984 . S
H439 N426 0.985 . S
C440 C441 1.363 . S
C440 C446 1.379 . S
C440 N448 1.356 . S
C441 C440 1.363 . S
C441 C447 1.363 . S
C442 C443 1.363 1_455 S
C442 C447 1.379 . S
C442 N449 1.356 1_455 S
C443 C442 1.363 1_655 S
C443 C446 1.363 1_655 S
N444 C446 1.356 . S
N444 H456 0.984 . S
N444 H457 0.985 1_455 S
N445 C447 1.356 . S
N445 H450 0.984 . S
N445 H451 0.985 . S
C446 C440 1.379 . S
C446 C443 1.363 1_455 S
C446 N444 1.356 . S
C447 C441 1.363 . S
C447 C442 1.379 . S
C447 N445 1.356 . S
N448 C440 1.356 . S
N448 H454 0.984 . S
N448 H455 0.984 . S
N449 C442 1.356 1_655 S
N449 H452 0.984 . S
N449 H453 0.985 . S
H450 N445 0.984 . S
H451 N445 0.985 . S
H452 N449 0.984 . S
H453 N449 0.985 . S
H454 N448 0.984 . S
H455 N448 0.984 . S
H456 N444 0.984 . S
H457 N444 0.985 1_655 S
C458 C459 1.363 . S
C458 C464 1.379 1_565 S
C458 N466 1.356 . S
C459 C458 1.363 . S
C459 C465 1.363 1_565 S
C460 C461 1.363 . S
C460 C465 1.379 . S
C460 N467 1.356 . S
C461 C460 1.363 . S
C461 C464 1.363 . S
N462 C464 1.356 . S
N462 H474 0.984 . S
N462 H475 0.985 . S
N463 C465 1.356 1_565 S
N463 H468 0.984 . S
N463 H469 0.985 1_565 S
C464 C458 1.379 1_545 S
C464 C461 1.363 . S
C464 N462 1.356 . S
C465 C459 1.363 1_545 S
C465 C460 1.379 . S
C465 N463 1.356 1_545 S
N466 C458 1.356 . S
N466 H472 0.984 . S
N466 H473 0.984 . S
N467 C460 1.356 . S
N467 H470 0.984 . S
N467 H471 0.985 . S
H468 N463 0.984 . S
H469 N463 0.985 1_545 S
H470 N467 0.984 . S
H471 N467 0.985 . S
H472 N466 0.984 . S
H473 N466 0.984 . S
H474 N462 0.984 . S
H475 N462 0.985 . S
C476 C477 1.363 . S
C476 C482 1.379 1_655 S
C476 N484 1.356 . S
C477 C476 1.363 . S
C477 C483 1.363 . S
C478 C479 1.363 1_655 S
C478 C483 1.379 . S
C478 N485 1.356 1_655 S
C479 C478 1.363 1_455 S
C479 C482 1.363 . S
N480 C482 1.356 . S
N480 H492 0.984 . S
N480 H493 0.985 . S
N481 C483 1.356 . S
N481 H486 0.984 . S
N481 H487 0.985 . S
C482 C476 1.379 1_455 S
C482 C479 1.363 . S
C482 N480 1.356 . S
C483 C477 1.363 . S
C483 C478 1.379 . S
C483 N481 1.356 . S
N484 C476 1.356 . S
N484 H490 0.984 . S
N484 H491 0.984 . S
N485 C478 1.356 1_455 S
N485 H488 0.984 . S
N485 H489 0.985 . S
H486 N481 0.984 . S
H487 N481 0.985 . S
H488 N485 0.984 . S
H489 N485 0.985 . S
H490 N484 0.984 . S
H491 N484 0.984 . S
H492 N480 0.984 . S
H493 N480 0.985 . S
C494 C495 1.363 1_565 S
C494 C500 1.379 . S
C494 N502 1.356 1_565 S
C495 C494 1.363 1_545 S
C495 C501 1.363 1_545 S
C496 C497 1.363 . S
C496 C501 1.379 . S
C496 N503 1.356 . S
C497 C496 1.363 . S
C497 C500 1.363 . S
N498 C500 1.356 . S
N498 H510 0.984 . S
N498 H511 0.985 . S
N499 C501 1.356 1_545 S
N499 H504 0.984 . S
N499 H505 0.985 . S
C500 C494 1.379 . S
C500 C497 1.363 . S
C500 N498 1.356 . S
C501 C495 1.363 1_565 S
C501 C496 1.379 . S
C501 N499 1.356 1_565 S
N502 C494 1.356 1_545 S
N502 H508 0.984 . S
N502 H509 0.984 . S
N503 C496 1.356 . S
N503 H506 0.984 . S
N503 H507 0.985 . S
H504 N499 0.984 . S
H505 N499 0.985 . S
H506 N503 0.984 . S
H507 N503 0.985 . S
H508 N502 0.984 . S
H509 N502 0.984 . S
H510 N498 0.984 . S
H511 N498 0.985 . S
C512 C513 1.363 . S
C512 C518 1.379 . S
C512 N520 1.356 . S
C513 C512 1.363 . S
C513 C519 1.363 . S
C514 C515 1.363 . S
C514 C519 1.379 . S
C514 N521 1.356 1_655 S
C515 C514 1.363 . S
C515 C518 1.363 . S
N516 C518 1.356 . S
N516 H528 0.984 . S
N516 H529 0.985 1_655 S
N517 C519 1.356 . S
N517 H522 0.984 . S
N517 H523 0.985 . S
C518 C512 1.379 . S
C518 C515 1.363 . S
C518 N516 1.356 . S
C519 C513 1.363 . S
C519 C514 1.379 . S
C519 N517 1.356 . S
N520 C512 1.356 . S
N520 H526 0.984 . S
N520 H527 0.984 . S
N521 C514 1.356 1_455 S
N521 H524 0.984 . S
N521 H525 0.985 . S
H522 N517 0.984 . S
H523 N517 0.985 . S
H524 N521 0.984 . S
H525 N521 0.985 . S
H526 N520 0.984 . S
H527 N520 0.984 . S
H528 N516 0.984 . S
H529 N516 0.985 1_455 S
C530 C531 1.363 . S
C530 C536 1.379 . S
C530 N538 1.356 . S
C531 C530 1.363 . S
C531 C537 1.363 . S
C532 C533 1.363 . S
C532 C537 1.379 . S
C532 N539 1.356 1_565 S
C533 C532 1.363 . S
C533 C536 1.363 . S
N534 C536 1.356 . S
N534 H546 0.984 . S
N534 H547 0.985 1_565 S
N535 C537 1.356 . S
N535 H540 0.984 . S
N535 H541 0.985 . S
C536 C530 1.379 . S
C536 C533 1.363 . S
C536 N534 1.356 . S
C537 C531 1.363 . S
C537 C532 1.379 . S
C537 N535 1.356 . S
N538 C530 1.356 . S
N538 H544 0.984 . S
N538 H545 0.984 . S
N539 C532 1.356 1_545 S
N539 H542 0.984 . S
N539 H543 0.985 . S
H540 N535 0.984 . S
H541 N535 0.985 . S
H542 N539 0.984 . S
H543 N539 0.985 . S
H544 N538 0.984 . S
H545 N538 0.984 . S
H546 N534 0.984 . S
H547 N534 0.985 1_545 S
C548 C549 1.363 . S
C548 C554 1.379 1_455 S
C548 N556 1.356 . S
C549 C548 1.363 . S
C549 C555 1.363 . S
C550 C551 1.363 1_455 S
C550 C555 1.379 . S
C550 N557 1.356 1_455 S
C551 C550 1.363 1_655 S
C551 C554 1.363 . S
N552 C554 1.356 . S
N552 H564 0.984 . S
N552 H565 0.985 . S
N553 C555 1.356 . S
N553 H558 0.984 . S
N553 H559 0.985 . S
C554 C548 1.379 1_655 S
C554 C551 1.363 . S
C554 N552 1.356 . S
C555 C549 1.363 . S
C555 C550 1.379 . S
C555 N553 1.356 . S
N556 C548 1.356 . S
N556 H562 0.984 . S
N556 H563 0.984 . S
N557 C550 1.356 1_655 S
N557 H560 0.984 . S
N557 H561 0.985 . S
H558 N553 0.984 . S
H559 N553 0.985 . S
H560 N557 0.984 . S
H561 N557 0.985 . S
H562 N556 0.984 . S
H563 N556 0.984 . S
H564 N552 0.984 . S
H565 N552 0.985 . S
C566 C567 1.363 . S
C566 C572 1.379 . S
C566 N574 1.356 . S
C567 C566 1.363 . S
C567 C573 1.363 . S
C568 C569 1.363 . S
C568 C573 1.379 . S
C568 N575 1.356 . S
C569 C568 1.363 . S
C569 C572 1.363 . S
N570 C572 1.356 . S
N570 H582 0.984 . S
N570 H583 0.985 . S
N571 C573 1.356 . S
N571 H576 0.972 1_545 S
N571 H577 0.985 . S
C572 C566 1.379 . S
C572 C569 1.363 . S
C572 N570 1.356 . S
C573 C567 1.363 . S
C573 C568 1.379 . S
C573 N571 1.356 . S
N574 C566 1.356 . S
N574 H580 0.984 . S
N574 H581 0.984 1_545 S
N575 C568 1.356 . S
N575 H578 0.984 . S
N575 H579 0.985 . S
H576 N571 0.972 1_565 S
H577 N571 0.985 . S
H578 N575 0.984 . S
H579 N575 0.985 . S
H580 N574 0.984 . S
H581 N574 0.984 1_565 S
H582 N570 0.984 . S
H583 N570 0.985 . S
C584 C585 1.363 . S
C584 C590 1.379 . S
C584 N592 1.356 . S
C585 C584 1.363 . S
C585 C591 1.363 . S
C586 C587 1.363 . S
C586 C591 1.379 . S
C586 N593 1.356 . S
C587 C586 1.363 . S
C587 C590 1.363 . S
N588 C590 1.356 . S
N588 H600 0.984 . S
N588 H601 0.985 . S
N589 C591 1.356 . S
N589 H594 0.984 . S
N589 H595 0.985 . S
C590 C584 1.379 . S
C590 C587 1.363 . S
C590 N588 1.356 . S
C591 C585 1.363 . S
C591 C586 1.379 . S
C591 N589 1.356 . S
N592 C584 1.356 . S
N592 H598 0.984 . S
N592 H599 0.984 . S
N593 C586 1.356 . S
N593 H596 0.984 . S
N593 H597 0.985 . S
H594 N589 0.984 . S
H595 N589 0.985 . S
H596 N593 0.984 . S
H597 N593 0.985 . S
H598 N592 0.984 . S
H599 N592 0.984 . S
H600 N588 0.984 . S
H601 N588 0.985 . S
C602 C603 1.363 . S
C602 C608 1.379 . S
C602 N610 1.356 . S
C603 C602 1.363 . S
C603 C609 1.363 . S
C604 C605 1.363 . S
C604 C609 1.379 . S
C604 N611 1.356 . S
C605 C604 1.363 . S
C605 C608 1.363 . S
N606 C608 1.356 . S
N606 H618 0.984 . S
N606 H619 0.985 . S
N607 C609 1.356 . S
N607 H612 0.984 . S
N607 H613 0.985 . S
C608 C602 1.379 . S
C608 C605 1.363 . S
C608 N606 1.356 . S
C609 C603 1.363 . S
C609 C604 1.379 . S
C609 N607 1.356 . S
N610 C602 1.356 . S
N610 H616 0.984 . S
N610 H617 0.984 . S
N611 C604 1.356 . S
N611 H614 0.984 . S
N611 H615 0.985 . S
H612 N607 0.984 . S
H613 N607 0.985 . S
H614 N611 0.984 . S
H615 N611 0.985 . S
H616 N610 0.984 . S
H617 N610 0.984 . S
H618 N606 0.984 . S
H619 N606 0.985 . S
C620 C621 1.363 . S
C620 C626 1.379 . S
C620 N628 1.356 . S
C621 C620 1.363 . S
C621 C627 1.363 . S
C622 C623 1.363 . S
C622 C627 1.379 . S
C622 N629 1.356 . S
C623 C622 1.363 . S
C623 C626 1.363 . S
N624 C626 1.356 . S
N624 H636 0.984 . S
N624 H637 0.985 . S
N625 C627 1.356 . S
N625 H630 0.984 . S
N625 H631 0.985 . S
C626 C620 1.379 . S
C626 C623 1.363 . S
C626 N624 1.356 . S
C627 C621 1.363 . S
C627 C622 1.379 . S
C627 N625 1.356 . S
N628 C620 1.356 . S
N628 H634 0.984 . S
N628 H635 0.984 . S
N629 C622 1.356 . S
N629 H632 0.984 . S
N629 H633 0.985 . S
H630 N625 0.984 . S
H631 N625 0.985 . S
H632 N629 0.984 . S
H633 N629 0.985 . S
H634 N628 0.984 . S
H635 N628 0.984 . S
H636 N624 0.984 . S
H637 N624 0.985 . S
C638 C639 1.363 . S
C638 C644 1.379 . S
C638 N646 1.356 . S
C639 C638 1.363 . S
C639 C645 1.363 . S
C640 C641 1.363 . S
C640 C645 1.379 . S
C640 N647 1.356 . S
C641 C640 1.363 . S
C641 C644 1.363 . S
N642 C644 1.356 . S
N642 H654 0.984 . S
N642 H655 0.985 . S
N643 C645 1.356 . S
N643 H648 0.984 . S
N643 H649 0.985 . S
C644 C638 1.379 . S
C644 C641 1.363 . S
C644 N642 1.356 . S
C645 C639 1.363 . S
C645 C640 1.379 . S
C645 N643 1.356 . S
N646 C638 1.356 . S
N646 H652 0.984 . S
N646 H653 0.984 . S
N647 C640 1.356 . S
N647 H650 0.984 . S
N647 H651 0.985 . S
H648 N643 0.984 . S
H649 N643 0.985 . S
H650 N647 0.984 . S
H651 N647 0.985 . S
H652 N646 0.984 . S
H653 N646 0.984 . S
H654 N642 0.984 . S
H655 N642 0.985 . S
C656 C657 1.363 . S
C656 C662 1.379 . S
C656 N664 1.356 . S
C657 C656 1.363 . S
C657 C663 1.363 . S
C658 C659 1.363 . S
C658 C663 1.379 . S
C658 N665 1.356 . S
C659 C658 1.363 . S
C659 C662 1.363 . S
N660 C662 1.356 . S
N660 H672 0.984 . S
N660 H673 0.985 . S
N661 C663 1.356 . S
N661 H666 0.984 . S
N661 H667 0.985 . S
C662 C656 1.379 . S
C662 C659 1.363 . S
C662 N660 1.356 . S
C663 C657 1.363 . S
C663 C658 1.379 . S
C663 N661 1.356 . S
N664 C656 1.356 . S
N664 H670 0.984 . S
N664 H671 0.984 . S
N665 C658 1.356 . S
N665 H668 0.984 . S
N665 H669 0.985 . S
H666 N661 0.984 . S
H667 N661 0.985 . S
H668 N665 0.984 . S
H669 N665 0.985 . S
H670 N664 0.984 . S
H671 N664 0.984 . S
H672 N660 0.984 . S
H673 N660 0.985 . S
C674 C675 1.363 . S
C674 C680 1.379 . S
C674 N682 1.356 . S
C675 C674 1.363 . S
C675 C681 1.363 . S
C676 C677 1.363 . S
C676 C681 1.379 . S
C676 N683 1.356 . S
C677 C676 1.363 . S
C677 C680 1.363 . S
N678 C680 1.356 . S
N678 H690 0.984 . S
N678 H691 0.985 . S
N679 C681 1.356 . S
N679 H684 0.984 . S
N679 H685 0.985 . S
C680 C674 1.379 . S
C680 C677 1.363 . S
C680 N678 1.356 . S
C681 C675 1.363 . S
C681 C676 1.379 . S
C681 N679 1.356 . S
N682 C674 1.356 . S
N682 H688 0.984 . S
N682 H689 0.984 . S
N683 C676 1.356 . S
N683 H686 0.984 . S
N683 H687 0.985 . S
H684 N679 0.984 . S
H685 N679 0.985 . S
H686 N683 0.984 . S
H687 N683 0.985 . S
H688 N682 0.984 . S
H689 N682 0.984 . S
H690 N678 0.984 . S
H691 N678 0.985 . S
C692 C693 1.363 . S
C692 C698 1.379 . S
C692 N700 1.356 . S
C693 C692 1.363 . S
C693 C699 1.363 . S
C694 C695 1.363 . S
C694 C699 1.379 . S
C694 N701 1.356 . S
C695 C694 1.363 . S
C695 C698 1.363 . S
N696 C698 1.356 . S
N696 H708 0.984 . S
N696 H709 0.985 . S
N697 C699 1.356 . S
N697 H702 0.984 . S
N697 H703 0.985 . S
C698 C692 1.379 . S
C698 C695 1.363 . S
C698 N696 1.356 . S
C699 C693 1.363 . S
C699 C694 1.379 . S
C699 N697 1.356 . S
N700 C692 1.356 . S
N700 H706 0.984 . S
N700 H707 0.984 . S
N701 C694 1.356 . S
N701 H704 0.984 . S
N701 H705 0.985 . S
H702 N697 0.984 . S
H703 N697 0.985 . S
H704 N701 0.984 . S
H705 N701 0.985 . S
H706 N700 0.984 . S
H707 N700 0.984 . S
H708 N696 0.984 . S
H709 N696 0.985 . S
C710 C711 1.363 . S
C710 C716 1.379 . S
C710 N718 1.356 . S
C711 C710 1.363 . S
C711 C717 1.363 . S
C712 C713 1.363 . S
C712 C717 1.379 . S
C712 N719 1.356 . S
C713 C712 1.363 . S
C713 C716 1.363 . S
N714 C716 1.356 . S
N714 H726 0.984 . S
N714 H727 0.985 . S
N715 C717 1.356 . S
N715 H720 0.984 . S
N715 H721 0.985 . S
C716 C710 1.379 . S
C716 C713 1.363 . S
C716 N714 1.356 . S
C717 C711 1.363 . S
C717 C712 1.379 . S
C717 N715 1.356 . S
N718 C710 1.356 . S
N718 H724 0.984 . S
N718 H725 0.984 . S
N719 C712 1.356 . S
N719 H722 0.984 . S
N719 H723 0.985 . S
H720 N715 0.984 . S
H721 N715 0.985 . S
H722 N719 0.984 . S
H723 N719 0.985 . S
H724 N718 0.984 . S
H725 N718 0.984 . S
H726 N714 0.984 . S
H727 N714 0.985 . S
C728 C729 1.363 . S
C728 C734 1.379 . S
C728 N736 1.356 . S
C729 C728 1.363 . S
C729 C735 1.363 . S
C730 C731 1.363 . S
C730 C735 1.379 . S
C730 N737 1.356 . S
C731 C730 1.363 . S
C731 C734 1.363 . S
N732 C734 1.356 . S
N732 H744 0.984 . S
N732 H745 0.985 . S
N733 C735 1.356 . S
N733 H738 0.984 . S
N733 H739 0.985 . S
C734 C728 1.379 . S
C734 C731 1.363 . S
C734 N732 1.356 . S
C735 C729 1.363 . S
C735 C730 1.379 . S
C735 N733 1.356 . S
N736 C728 1.356 . S
N736 H742 0.984 . S
N736 H743 0.984 . S
N737 C730 1.356 . S
N737 H740 0.984 . S
N737 H741 0.985 . S
H738 N733 0.984 . S
H739 N733 0.985 . S
H740 N737 0.984 . S
H741 N737 0.985 . S
H742 N736 0.984 . S
H743 N736 0.984 . S
H744 N732 0.984 . S
H745 N732 0.985 . S
C746 C747 1.363 . S
C746 C752 1.379 . S
C746 N754 1.356 . S
C747 C746 1.363 . S
C747 C753 1.363 . S
C748 C749 1.363 . S
C748 C753 1.379 . S
C748 N755 1.356 . S
C749 C748 1.363 . S
C749 C752 1.363 . S
N750 C752 1.356 . S
N750 H762 0.984 . S
N750 H763 0.985 . S
N751 C753 1.356 . S
N751 H756 0.984 . S
N751 H757 0.985 . S
C752 C746 1.379 . S
C752 C749 1.363 . S
C752 N750 1.356 . S
C753 C747 1.363 . S
C753 C748 1.379 . S
C753 N751 1.356 . S
N754 C746 1.356 . S
N754 H760 0.984 . S
N754 H761 0.984 . S
N755 C748 1.356 . S
N755 H758 0.984 . S
N755 H759 0.985 . S
H756 N751 0.984 . S
H757 N751 0.985 . S
H758 N755 0.984 . S
H759 N755 0.985 . S
H760 N754 0.984 . S
H761 N754 0.984 . S
H762 N750 0.984 . S
H763 N750 0.985 . S
C764 C765 1.363 . S
C764 C770 1.379 . S
C764 N772 1.356 . S
C765 C764 1.363 . S
C765 C771 1.363 . S
C766 C767 1.363 . S
C766 C771 1.379 . S
C766 N773 1.356 . S
C767 C766 1.363 . S
C767 C770 1.363 . S
N768 C770 1.356 . S
N768 H780 0.984 . S
N768 H781 0.985 . S
N769 C771 1.356 . S
N769 H774 0.984 . S
N769 H775 0.985 . S
C770 C764 1.379 . S
C770 C767 1.363 . S
C770 N768 1.356 . S
C771 C765 1.363 . S
C771 C766 1.379 . S
C771 N769 1.356 . S
N772 C764 1.356 . S
N772 H778 0.984 . S
N772 H779 0.984 . S
N773 C766 1.356 . S
N773 H776 0.984 . S
N773 H777 0.985 . S
H774 N769 0.984 . S
H775 N769 0.985 . S
H776 N773 0.984 . S
H777 N773 0.985 . S
H778 N772 0.984 . S
H779 N772 0.984 . S
H780 N768 0.984 . S
H781 N768 0.985 . S
C782 C783 1.363 . S
C782 C788 1.379 . S
C782 N790 1.356 . S
C783 C782 1.363 . S
C783 C789 1.363 . S
C784 C785 1.363 . S
C784 C789 1.379 . S
C784 N791 1.356 . S
C785 C784 1.363 . S
C785 C788 1.363 . S
N786 C788 1.356 . S
N786 H798 0.984 . S
N786 H799 0.985 . S
N787 C789 1.356 . S
N787 H792 0.984 . S
N787 H793 0.985 . S
C788 C782 1.379 . S
C788 C785 1.363 . S
C788 N786 1.356 . S
C789 C783 1.363 . S
C789 C784 1.379 . S
C789 N787 1.356 . S
N790 C782 1.356 . S
N790 H796 0.984 . S
N790 H797 0.984 . S
N791 C784 1.356 . S
N791 H794 0.984 . S
N791 H795 0.985 . S
H792 N787 0.984 . S
H793 N787 0.985 . S
H794 N791 0.984 . S
H795 N791 0.985 . S
H796 N790 0.984 . S
H797 N790 0.984 . S
H798 N786 0.984 . S
H799 N786 0.985 . S
C225 C216 1.232 . S
C227 C6 1.284 . S
C243 C174 1.370 . S
C245 C20 1.364 . S
C261 C34 1.418 . S
C263 C188 1.261 . S
C279 C202 1.374 . S
C281 C48 1.520 . S
C297 C132 1.364 . S
C299 C62 1.370 . S
C315 C76 1.261 . S
C317 C146 1.418 . S
C333 C90 1.374 . S
C335 C160 1.520 . S
C351 C104 1.232 . S
C353 C118 1.284 . S
C369 C79 2.001 . S
C371 C7 1.811 1_556 S
C387 C91 1.381 . S
C389 C21 1.440 . S
C405 C107 1.591 . S
C407 C35 1.367 . S
C423 C49 1.539 . S
C425 C64 1.686 . S
C441 C8 1.388 . S
C443 C23 1.333 . S
C459 C37 1.530 . S
C461 C22 1.523 . S
C477 C36 1.561 . S
C479 C51 1.596 . S
C495 C9 1.815 . S
C497 C50 1.787 . S
C513 C106 1.583 . S
C515 C65 1.472 1_655 S
C531 C63 1.401 . S
C533 C77 1.306 1_565 S
C549 C78 1.601 . S
C551 C92 1.579 . S
C567 C105 1.594 1_545 S
C569 C93 1.806 . S
C585 C191 2.001 . S
C587 C119 1.811 . S
C603 C133 1.440 . S
C605 C203 1.381 . S
C621 C219 1.591 . S
C623 C147 1.367 . S
C639 C176 1.686 . S
C641 C161 1.539 . S
C657 C120 1.388 . S
C659 C135 1.333 . S
C675 C134 1.523 . S
C677 C149 1.530 . S
C693 C163 1.596 . S
C695 C148 1.561 . S
C711 C121 1.815 . S
C713 C162 1.787 . S
C729 C218 1.583 . S
C731 C177 1.472 . S
C747 C175 1.401 . S
C749 C189 1.306 . S
C765 C190 1.601 . S
C767 C204 1.579 . S
C783 C217 1.594 . S
C785 C205 1.806 . S
