# Generated by pormake.
# Topology whz, (6)-cn, num edge types: 1
# Building blocks:
#     Node 0, Type 0, BuildingBlock: UKALOJ_clean_sbu_0, # of connection points: 6
#     Node 1, Type 0, BuildingBlock: UKALOJ_clean_sbu_0, # of connection points: 6
#     Node 2, Type 0, BuildingBlock: UKALOJ_clean_sbu_0, # of connection points: 6
#     Node 3, Type 0, BuildingBlock: UKALOJ_clean_sbu_0, # of connection points: 6
#     Node 4, Type 0, BuildingBlock: UKALOJ_clean_sbu_0, # of connection points: 6
#     Node 5, Type 0, BuildingBlock: UKALOJ_clean_sbu_0, # of connection points: 6
#     Node 6, Type 0, BuildingBlock: UKALOJ_clean_sbu_0, # of connection points: 6
#     Node 7, Type 0, BuildingBlock: UKALOJ_clean_sbu_0, # of connection points: 6
#     Node 8, Type 0, BuildingBlock: UKALOJ_clean_sbu_0, # of connection points: 6
#     Node 9, Type 0, BuildingBlock: UKALOJ_clean_sbu_0, # of connection points: 6
#     Node 10, Type 0, BuildingBlock: UKALOJ_clean_sbu_0, # of connection points: 6
#     Node 11, Type 0, BuildingBlock: UKALOJ_clean_sbu_0, # of connection points: 6
#     Node 12, Type 0, BuildingBlock: UKALOJ_clean_sbu_0, # of connection points: 6
#     Node 13, Type 0, BuildingBlock: UKALOJ_clean_sbu_0, # of connection points: 6
#     Node 14, Type 0, BuildingBlock: UKALOJ_clean_sbu_0, # of connection points: 6
#     Node 15, Type 0, BuildingBlock: UKALOJ_clean_sbu_0, # of connection points: 6
#     Edge 16, Type (0, 0), BuildingBlock: EZIPEK_clean_linker_0, # of connection points: 2
#     Edge 17, Type (0, 0), BuildingBlock: EZIPEK_clean_linker_0, # of connection points: 2
#     Edge 18, Type (0, 0), BuildingBlock: EZIPEK_clean_linker_0, # of connection points: 2
#     Edge 19, Type (0, 0), BuildingBlock: EZIPEK_clean_linker_0, # of connection points: 2
#     Edge 20, Type (0, 0), BuildingBlock: EZIPEK_clean_linker_0, # of connection points: 2
#     Edge 21, Type (0, 0), BuildingBlock: EZIPEK_clean_linker_0, # of connection points: 2
#     Edge 22, Type (0, 0), BuildingBlock: EZIPEK_clean_linker_0, # of connection points: 2
#     Edge 23, Type (0, 0), BuildingBlock: EZIPEK_clean_linker_0, # of connection points: 2
#     Edge 24, Type (0, 0), BuildingBlock: EZIPEK_clean_linker_0, # of connection points: 2
#     Edge 25, Type (0, 0), BuildingBlock: EZIPEK_clean_linker_0, # of connection points: 2
#     Edge 26, Type (0, 0), BuildingBlock: EZIPEK_clean_linker_0, # of connection points: 2
#     Edge 27, Type (0, 0), BuildingBlock: EZIPEK_clean_linker_0, # of connection points: 2
#     Edge 28, Type (0, 0), BuildingBlock: EZIPEK_clean_linker_0, # of connection points: 2
#     Edge 29, Type (0, 0), BuildingBlock: EZIPEK_clean_linker_0, # of connection points: 2
#     Edge 30, Type (0, 0), BuildingBlock: EZIPEK_clean_linker_0, # of connection points: 2
#     Edge 31, Type (0, 0), BuildingBlock: EZIPEK_clean_linker_0, # of connection points: 2
#     Edge 32, Type (0, 0), BuildingBlock: EZIPEK_clean_linker_0, # of connection points: 2
#     Edge 33, Type (0, 0), BuildingBlock: EZIPEK_clean_linker_0, # of connection points: 2
#     Edge 34, Type (0, 0), BuildingBlock: EZIPEK_clean_linker_0, # of connection points: 2
#     Edge 35, Type (0, 0), BuildingBlock: EZIPEK_clean_linker_0, # of connection points: 2
#     Edge 36, Type (0, 0), BuildingBlock: EZIPEK_clean_linker_0, # of connection points: 2
#     Edge 37, Type (0, 0), BuildingBlock: EZIPEK_clean_linker_0, # of connection points: 2
#     Edge 38, Type (0, 0), BuildingBlock: EZIPEK_clean_linker_0, # of connection points: 2
#     Edge 39, Type (0, 0), BuildingBlock: EZIPEK_clean_linker_0, # of connection points: 2
#     Edge 40, Type (0, 0), BuildingBlock: EZIPEK_clean_linker_0, # of connection points: 2
#     Edge 41, Type (0, 0), BuildingBlock: EZIPEK_clean_linker_0, # of connection points: 2
#     Edge 42, Type (0, 0), BuildingBlock: EZIPEK_clean_linker_0, # of connection points: 2
#     Edge 43, Type (0, 0), BuildingBlock: EZIPEK_clean_linker_0, # of connection points: 2
#     Edge 44, Type (0, 0), BuildingBlock: EZIPEK_clean_linker_0, # of connection points: 2
#     Edge 45, Type (0, 0), BuildingBlock: EZIPEK_clean_linker_0, # of connection points: 2
#     Edge 46, Type (0, 0), BuildingBlock: EZIPEK_clean_linker_0, # of connection points: 2
#     Edge 47, Type (0, 0), BuildingBlock: EZIPEK_clean_linker_0, # of connection points: 2
#     Edge 48, Type (0, 0), BuildingBlock: EZIPEK_clean_linker_0, # of connection points: 2
#     Edge 49, Type (0, 0), BuildingBlock: EZIPEK_clean_linker_0, # of connection points: 2
#     Edge 50, Type (0, 0), BuildingBlock: EZIPEK_clean_linker_0, # of connection points: 2
#     Edge 51, Type (0, 0), BuildingBlock: EZIPEK_clean_linker_0, # of connection points: 2
#     Edge 52, Type (0, 0), BuildingBlock: EZIPEK_clean_linker_0, # of connection points: 2
#     Edge 53, Type (0, 0), BuildingBlock: EZIPEK_clean_linker_0, # of connection points: 2
#     Edge 54, Type (0, 0), BuildingBlock: EZIPEK_clean_linker_0, # of connection points: 2
#     Edge 55, Type (0, 0), BuildingBlock: EZIPEK_clean_linker_0, # of connection points: 2
#     Edge 56, Type (0, 0), BuildingBlock: EZIPEK_clean_linker_0, # of connection points: 2
#     Edge 57, Type (0, 0), BuildingBlock: EZIPEK_clean_linker_0, # of connection points: 2
#     Edge 58, Type (0, 0), BuildingBlock: EZIPEK_clean_linker_0, # of connection points: 2
#     Edge 59, Type (0, 0), BuildingBlock: EZIPEK_clean_linker_0, # of connection points: 2
#     Edge 60, Type (0, 0), BuildingBlock: EZIPEK_clean_linker_0, # of connection points: 2
#     Edge 61, Type (0, 0), BuildingBlock: EZIPEK_clean_linker_0, # of connection points: 2
#     Edge 62, Type (0, 0), BuildingBlock: EZIPEK_clean_linker_0, # of connection points: 2
#     Edge 63, Type (0, 0), BuildingBlock: EZIPEK_clean_linker_0, # of connection points: 2
# Relax obj value: 0.352
# Max RMSD: 0.243
# Mean RMSD: 0.243
data_MOF--net-whz--node1-UKALOJ_clean_sbu_0--edge1-EZIPEK_clean_linker_0
_symmetry_space_group_name_H-M    P1
_symmetry_Int_Tables_number       1
_symmetry_cell_setting            triclinic
loop_
_symmetry_equiv_pos_as_xyz
'x, y, z'
_cell_length_a     32.408413
_cell_length_b     32.376442
_cell_length_c     33.410139
_cell_angle_alpha  89.710832
_cell_angle_beta   89.992551
_cell_angle_gamma 89.923514
loop_
_atom_site_label
_atom_site_type_symbol
_atom_site_fract_x
_atom_site_fract_y
_atom_site_fract_z
_atom_type_partial_charge
Zn0 Zn 0.30816 0.16729 0.11095 0.0
O1 O 0.30517 0.20442 0.1639 0.0
C2 C 0.31861 0.09241 0.16361 0.0
Zn3 Zn 0.24803 0.13773 0.12646 0.0
C4 C 0.27267 0.20076 0.18504 0.0
O5 O 0.24597 0.17401 0.17627 0.0
C6 C 0.27558 0.10913 0.04802 0.0
O7 O 0.2158 0.18389 0.09637 0.0
O8 O 0.27382 0.21461 0.08108 0.0
N9 N 0.19577 0.1111 0.14691 0.0
C10 C 0.15904 0.10013 0.1315 0.0
C11 C 0.1589 0.08281 0.19331 0.0
N12 N 0.19547 0.10037 0.18525 0.0
N13 N 0.13552 0.08242 0.16012 0.0
C14 C 0.39955 0.20387 0.11254 0.0
C15 C 0.4044 0.22897 0.05369 0.0
N16 N 0.36356 0.1955 0.09358 0.0
N17 N 0.36693 0.21115 0.057 0.0
N18 N 0.42559 0.22494 0.08817 0.0
H19 H 0.38549 0.20516 0.17503 0.0
H20 H 0.44002 0.20272 0.16412 0.0
H21 H 0.40811 0.15773 0.15774 0.0
C22 C 0.40906 0.19182 0.15483 0.0
C23 C 0.1464 0.10606 0.08875 0.0
H24 H 0.11519 0.12017 0.0875 0.0
H25 H 0.1446 0.07557 0.07386 0.0
H26 H 0.16872 0.12565 0.07227 0.0
O27 O 0.24829 0.10311 0.07473 0.0
O28 O 0.30677 0.13174 0.05587 0.0
C29 C 0.23448 0.21398 0.0801 0.0
O30 O 0.34023 0.11883 0.1443 0.0
O31 O 0.2799 0.09232 0.15888 0.0
Zn32 Zn 0.58396 0.55979 0.36529 0.0
O33 O 0.55089 0.56191 0.42098 0.0
C34 C 0.66368 0.56676 0.40976 0.0
Zn35 Zn 0.61003 0.49812 0.38335 0.0
C36 C 0.55514 0.532 0.44556 0.0
O37 O 0.57979 0.50327 0.43649 0.0
C38 C 0.63502 0.52053 0.30129 0.0
O39 O 0.55825 0.46842 0.36148 0.0
O40 O 0.53277 0.528 0.3411 0.0
N41 N 0.63408 0.44385 0.40463 0.0
C42 C 0.63694 0.40481 0.39103 0.0
C43 C 0.66652 0.40629 0.44807 0.0
N44 N 0.65215 0.44446 0.44021 0.0
N45 N 0.65711 0.38074 0.41784 0.0
C46 C 0.55099 0.65319 0.36394 0.0
C47 C 0.52091 0.65473 0.30728 0.0
N48 N 0.55737 0.61588 0.34672 0.0
N49 N 0.53868 0.61726 0.31147 0.0
N50 N 0.52808 0.67802 0.33981 0.0
H51 H 0.55837 0.64194 0.42657 0.0
H52 H 0.55556 0.696 0.4133 0.0
H53 H 0.60149 0.66618 0.40283 0.0
C54 C 0.56729 0.6653 0.40404 0.0
C55 C 0.62058 0.39043 0.35159 0.0
H56 H 0.58921 0.37758 0.3562 0.0
H57 H 0.64036 0.36562 0.33913 0.0
H58 H 0.61835 0.41641 0.33 0.0
O59 O 0.63913 0.49288 0.32818 0.0
O60 O 0.61539 0.55375 0.30885 0.0
C61 C 0.52903 0.4892 0.34608 0.0
O62 O 0.63664 0.58935 0.39232 0.0
O63 O 0.6608 0.52788 0.40776 0.0
Zn64 Zn 0.19787 0.84665 0.6193 0.0
O65 O 0.20034 0.81519 0.67459 0.0
C66 C 0.19334 0.92787 0.6635 0.0
Zn67 Zn 0.25955 0.87534 0.62897 0.0
C68 C 0.23204 0.81936 0.6967 0.0
O69 O 0.25966 0.84504 0.68575 0.0
C70 C 0.2311 0.89704 0.54832 0.0
O71 O 0.2891 0.82315 0.60533 0.0
O72 O 0.22879 0.79352 0.59457 0.0
N73 N 0.31307 0.90521 0.64116 0.0
C74 C 0.35032 0.89619 0.65685 0.0
C75 C 0.35059 0.96024 0.64143 0.0
N76 N 0.31335 0.94509 0.63205 0.0
N77 N 0.37426 0.93025 0.65722 0.0
C78 C 0.11582 0.78986 0.61165 0.0
C79 C 0.07568 0.83427 0.58497 0.0
N80 N 0.13825 0.82483 0.60617 0.0
N81 N 0.11293 0.85206 0.58943 0.0
N82 N 0.07646 0.79511 0.59862 0.0
H83 H 0.1659 0.75265 0.6343 0.0
H84 H 0.12416 0.7243 0.61103 0.0
H85 H 0.11656 0.74613 0.65947 0.0
C86 C 0.13199 0.75104 0.6302 0.0
C87 C 0.3639 0.85411 0.66988 0.0
H88 H 0.3424 0.84224 0.69298 0.0
H89 H 0.3956 0.85466 0.68241 0.0
H90 H 0.36312 0.83303 0.64385 0.0
O91 O 0.2607 0.90251 0.57235 0.0
O92 O 0.19919 0.87742 0.56026 0.0
C93 C 0.26825 0.79153 0.59539 0.0
O94 O 0.16986 0.89924 0.65066 0.0
O95 O 0.23084 0.92724 0.65341 0.0
Zn96 Zn 0.88686 0.51022 0.88739 0.0
O97 O 0.9372 0.54189 0.86394 0.0
C98 C 0.85946 0.49432 0.80426 0.0
Zn99 Zn 0.91194 0.44951 0.86611 0.0
C100 C 0.96711 0.52156 0.84934 0.0
O101 O 0.96403 0.48269 0.84448 0.0
C102 C 0.83401 0.43943 0.9133 0.0
O103 O 0.94581 0.44177 0.91979 0.0
O104 O 0.92214 0.50208 0.93862 0.0
N105 N 0.93705 0.39444 0.84438 0.0
C106 C 0.94479 0.35719 0.86152 0.0
C107 C 0.97136 0.35596 0.80324 0.0
N108 N 0.95352 0.39331 0.80809 0.0
N109 N 0.96645 0.33269 0.83642 0.0
C110 C 0.85087 0.59985 0.89915 0.0
C111 C 0.84422 0.59993 0.96274 0.0
N112 N 0.86419 0.56288 0.91271 0.0
N113 N 0.86001 0.56315 0.95218 0.0
N114 N 0.83827 0.62348 0.93002 0.0
H115 H 0.87802 0.60166 0.84071 0.0
H116 H 0.84662 0.64639 0.85272 0.0
H117 H 0.82276 0.59755 0.84143 0.0
C118 C 0.84965 0.61239 0.85601 0.0
C119 C 0.93181 0.34484 0.90286 0.0
H120 H 0.94885 0.36338 0.92518 0.0
H121 H 0.93808 0.31165 0.90869 0.0
H122 H 0.89835 0.35057 0.90653 0.0
O123 O 0.85917 0.41824 0.89222 0.0
O124 O 0.83757 0.47837 0.914 0.0
C125 C 0.94633 0.47184 0.94401 0.0
O126 O 0.85424 0.51904 0.83341 0.0
O127 O 0.88033 0.46127 0.80968 0.0
Zn128 Zn 0.76328 0.86079 0.87211 0.0
O129 O 0.78919 0.80979 0.90291 0.0
C130 C 0.74068 0.89179 0.95252 0.0
Zn131 Zn 0.70025 0.83989 0.89007 0.0
C132 C 0.766 0.78283 0.9194 0.0
O133 O 0.72705 0.78759 0.91725 0.0
C134 C 0.69778 0.91788 0.84048 0.0
O135 O 0.69709 0.80544 0.83486 0.0
O136 O 0.76058 0.82483 0.82219 0.0
N137 N 0.64057 0.82129 0.90586 0.0
C138 C 0.61646 0.78881 0.89567 0.0
C139 C 0.57955 0.82885 0.93124 0.0
N140 N 0.61737 0.84592 0.92808 0.0
N141 N 0.57807 0.79293 0.91114 0.0
C142 C 0.85439 0.89468 0.86781 0.0
C143 C 0.85971 0.90288 0.80455 0.0
N144 N 0.81901 0.88109 0.85136 0.0
N145 N 0.82259 0.88612 0.81211 0.0
N146 N 0.88031 0.90854 0.83899 0.0
H147 H 0.84717 0.86975 0.92712 0.0
H148 H 0.8964 0.8949 0.91784 0.0
H149 H 0.85015 0.92507 0.92425 0.0
C150 C 0.86273 0.89591 0.91185 0.0
C151 C 0.63007 0.7536 0.87002 0.0
H152 H 0.66226 0.745 0.87749 0.0
H153 H 0.60976 0.72637 0.87415 0.0
H154 H 0.62864 0.76317 0.83812 0.0
O155 O 0.67503 0.89446 0.86177 0.0
O156 O 0.73624 0.91055 0.83975 0.0
C157 C 0.72953 0.80334 0.81345 0.0
O158 O 0.76731 0.89533 0.92471 0.0
O159 O 0.70735 0.87203 0.94608 0.0
Zn160 Zn 0.38061 0.50961 0.62084 0.0
O161 O 0.43649 0.53606 0.63933 0.0
C162 C 0.36401 0.48046 0.70266 0.0
Zn163 Zn 0.40506 0.44634 0.62952 0.0
C164 C 0.46529 0.51244 0.65167 0.0
O165 O 0.4597 0.47341 0.6534 0.0
C166 C 0.32254 0.4463 0.59005 0.0
O167 O 0.43218 0.44965 0.57185 0.0
O168 O 0.40321 0.50996 0.56266 0.0
N169 N 0.42571 0.38649 0.64016 0.0
C170 C 0.45859 0.36293 0.62998 0.0
C171 C 0.41892 0.32516 0.66547 0.0
N172 N 0.4013 0.3627 0.6622 0.0
N173 N 0.45496 0.32446 0.64555 0.0
C174 C 0.36105 0.6022 0.59826 0.0
C175 C 0.29652 0.6018 0.61125 0.0
N176 N 0.35152 0.56418 0.61184 0.0
N177 N 0.31144 0.56412 0.61964 0.0
N178 N 0.3269 0.62616 0.59745 0.0
H179 H 0.42167 0.59025 0.57486 0.0
H180 H 0.40241 0.64232 0.56603 0.0
H181 H 0.41945 0.62671 0.61518 0.0
C182 C 0.40363 0.61617 0.58762 0.0
C183 C 0.49359 0.37683 0.60419 0.0
H184 H 0.49375 0.41077 0.6011 0.0
H185 H 0.52337 0.36627 0.61702 0.0
H186 H 0.49043 0.36244 0.5743 0.0
O187 O 0.35081 0.42124 0.60074 0.0
O188 O 0.32501 0.48328 0.60133 0.0
C189 C 0.42592 0.4811 0.54953 0.0
O190 O 0.36045 0.5108 0.67897 0.0
O191 O 0.37843 0.4464 0.68978 0.0
Zn192 Zn 0.80199 0.16392 0.39073 0.0
O193 O 0.79983 0.19683 0.33473 0.0
C194 C 0.81475 0.08532 0.34511 0.0
Zn195 Zn 0.7427 0.13738 0.3708 0.0
C196 C 0.77123 0.19226 0.3089 0.0
O197 O 0.74399 0.16508 0.31555 0.0
C198 C 0.76637 0.11504 0.45577 0.0
O199 O 0.71021 0.19023 0.39077 0.0
O200 O 0.76808 0.21373 0.41577 0.0
N201 N 0.69114 0.10598 0.35586 0.0
C202 C 0.65098 0.11524 0.35094 0.0
C203 C 0.65703 0.0498 0.34582 0.0
N204 N 0.69477 0.06541 0.35214 0.0
N205 N 0.62911 0.08045 0.34488 0.0
C206 C 0.89245 0.2008 0.38974 0.0
C207 C 0.892 0.23431 0.44452 0.0
N208 N 0.85543 0.19406 0.40719 0.0
N209 N 0.85545 0.21486 0.44126 0.0
N210 N 0.91577 0.22598 0.41256 0.0
H211 H 0.88179 0.18885 0.32785 0.0
H212 H 0.93545 0.19621 0.34038 0.0
H213 H 0.90923 0.14899 0.35394 0.0
C214 C 0.90572 0.18291 0.35063 0.0
C215 C 0.63288 0.15761 0.35432 0.0
H216 H 0.6526 0.18018 0.33815 0.0
H217 H 0.60117 0.15857 0.34182 0.0
H218 H 0.63157 0.16645 0.38634 0.0
O219 O 0.73936 0.11116 0.42853 0.0
O220 O 0.80014 0.13337 0.44789 0.0
C221 C 0.73013 0.21905 0.40772 0.0
O222 O 0.83554 0.11337 0.36273 0.0
O223 O 0.77583 0.08648 0.34737 0.0
Zn224 Zn 0.12726 0.49097 0.1235 0.0
O225 O 0.08036 0.45739 0.15239 0.0
C226 C 0.15163 0.5202 0.2042 0.0
Zn227 Zn 0.09686 0.55153 0.13855 0.0
C228 C 0.04807 0.47627 0.1639 0.0
O229 O 0.04711 0.51574 0.16355 0.0
C230 C 0.17355 0.56325 0.08957 0.0
O231 O 0.0653 0.54834 0.08287 0.0
O232 O 0.0932 0.4875 0.07149 0.0
N233 N 0.06792 0.60819 0.15389 0.0
C234 C 0.04419 0.63686 0.13482 0.0
C235 C 0.0553 0.65962 0.19352 0.0
N236 N 0.07444 0.62276 0.19035 0.0
N237 N 0.03602 0.66936 0.15908 0.0
C238 C 0.1521 0.40181 0.09371 0.0
C239 C 0.21484 0.40046 0.11314 0.0
N240 N 0.16001 0.43853 0.11099 0.0
N241 N 0.19909 0.43757 0.12269 0.0
N242 N 0.18594 0.37748 0.09499 0.0
H243 H 0.09931 0.41318 0.05636 0.0
H244 H 0.11365 0.35962 0.0603 0.0
H245 H 0.08914 0.38493 0.10192 0.0
C246 C 0.11126 0.3891 0.07692 0.0
C247 C 0.02918 0.63334 0.09265 0.0
H248 H 0.00894 0.60591 0.09006 0.0
H249 H 0.01158 0.66119 0.08333 0.0
H250 H 0.05578 0.62923 0.07228 0.0
O251 O 0.14735 0.58421 0.10968 0.0
O252 O 0.17292 0.5242 0.09216 0.0
C253 C 0.06744 0.51548 0.06217 0.0
O254 O 0.15889 0.49383 0.17721 0.0
O255 O 0.12793 0.55055 0.19625 0.0
Zn256 Zn 0.80237 0.65849 0.61445 0.0
O257 O 0.8089 0.68943 0.67011 0.0
C258 C 0.81074 0.5779 0.65862 0.0
Zn259 Zn 0.74138 0.63161 0.63335 0.0
C260 C 0.778 0.68804 0.69353 0.0
O261 O 0.74825 0.66414 0.68592 0.0
C262 C 0.75748 0.60921 0.5496 0.0
O263 O 0.71113 0.68285 0.61064 0.0
O264 O 0.77062 0.71198 0.59593 0.0
N265 N 0.68795 0.60866 0.65685 0.0
C266 C 0.65039 0.59998 0.64191 0.0
C267 C 0.6498 0.58261 0.70363 0.0
N268 N 0.68736 0.59807 0.69523 0.0
N269 N 0.62599 0.58367 0.6707 0.0
C270 C 0.89629 0.68958 0.61147 0.0
C271 C 0.89777 0.72094 0.55537 0.0
N272 N 0.85865 0.68428 0.59438 0.0
N273 N 0.86002 0.70378 0.55943 0.0
N274 N 0.92125 0.71269 0.58772 0.0
H275 H 0.88979 0.688 0.67509 0.0
H276 H 0.9416 0.67833 0.6578 0.0
H277 H 0.90252 0.63918 0.6525 0.0
C278 C 0.90845 0.67284 0.65155 0.0
C279 C 0.63817 0.60609 0.59906 0.0
H280 H 0.65175 0.635 0.58716 0.0
H281 H 0.6041 0.60713 0.59586 0.0
H282 H 0.65021 0.57999 0.58107 0.0
O283 O 0.73323 0.60157 0.57866 0.0
O284 O 0.79026 0.63025 0.55584 0.0
C285 C 0.73164 0.71437 0.59993 0.0
O286 O 0.83227 0.60368 0.63835 0.0
O287 O 0.77185 0.58131 0.65881 0.0
Zn288 Zn 0.09702 0.05621 0.87376 0.0
O289 O 0.06688 0.05837 0.93065 0.0
C290 C 0.18008 0.05741 0.91433 0.0
Zn291 Zn 0.12104 0.99319 0.88621 0.0
C292 C 0.07192 0.02718 0.95364 0.0
O293 O 0.09514 0.99836 0.94184 0.0
C294 C 0.14195 0.01461 0.80423 0.0
O295 O 0.06548 0.96725 0.8676 0.0
O296 O 0.0421 0.02877 0.85009 0.0
N297 N 0.145 0.93868 0.90474 0.0
C298 C 0.14103 0.89889 0.89419 0.0
C299 C 0.18992 0.90224 0.93692 0.0
N300 N 0.17487 0.94042 0.93172 0.0
N301 N 0.16931 0.87556 0.91369 0.0
C302 C 0.04613 0.14119 0.86619 0.0
C303 C 0.08628 0.17478 0.82747 0.0
N304 N 0.07822 0.11586 0.85754 0.0
N305 N 0.1029 0.13707 0.8334 0.0
N306 N 0.05056 0.17822 0.84768 0.0
H307 H 0.00704 0.09664 0.89502 0.0
H308 H 0.98227 0.14533 0.88305 0.0
H309 H 0.0182 0.14237 0.92375 0.0
C310 C 0.01123 0.13045 0.89345 0.0
C311 C 0.11053 0.88352 0.86405 0.0
H312 H 0.07885 0.88837 0.87569 0.0
H313 H 0.11466 0.85016 0.85787 0.0
H314 H 0.11359 0.90159 0.83589 0.0
O315 O 0.14511 0.98566 0.8297 0.0
O316 O 0.12632 0.0492 0.81465 0.0
C317 C 0.03665 0.98988 0.8539 0.0
O318 O 0.15211 0.0822 0.90219 0.0
O319 O 0.17644 0.01953 0.90627 0.0
Zn320 Zn 0.76455 0.37551 0.14394 0.0
O321 O 0.79035 0.31818 0.127 0.0
C322 C 0.74977 0.39427 0.05914 0.0
Zn323 Zn 0.70273 0.35106 0.12669 0.0
C324 C 0.76837 0.28994 0.11137 0.0
O325 O 0.72993 0.2957 0.10562 0.0
C326 C 0.69963 0.43426 0.167 0.0
O327 O 0.69617 0.32244 0.18386 0.0
O328 O 0.7549 0.35049 0.20062 0.0
N329 N 0.64377 0.33301 0.1087 0.0
C330 C 0.61901 0.30009 0.11588 0.0
C331 C 0.58415 0.34289 0.08096 0.0
N332 N 0.62185 0.35932 0.08683 0.0
N333 N 0.58146 0.30566 0.09887 0.0
C334 C 0.8586 0.38683 0.16857 0.0
C335 C 0.85839 0.45199 0.17779 0.0
N336 N 0.81955 0.4001 0.16281 0.0
N337 N 0.81969 0.44046 0.16919 0.0
N338 N 0.88354 0.41901 0.17754 0.0
H339 H 0.85166 0.32201 0.17953 0.0
H340 H 0.90471 0.3389 0.17392 0.0
H341 H 0.87121 0.33523 0.13082 0.0
C342 C 0.87263 0.34318 0.16306 0.0
C343 C 0.63091 0.26307 0.14019 0.0
H344 H 0.66464 0.26204 0.14552 0.0
H345 H 0.6211 0.23451 0.12468 0.0
H346 H 0.61423 0.26408 0.16914 0.0
O347 O 0.67611 0.40642 0.15286 0.0
O348 O 0.73789 0.4313 0.16098 0.0
C349 C 0.72449 0.32768 0.20981 0.0
O350 O 0.77545 0.39886 0.08735 0.0
O351 O 0.71447 0.37844 0.06693 0.0
Zn352 Zn 0.38254 0.01786 0.39772 0.0
O353 O 0.43446 0.04787 0.37756 0.0
C354 C 0.3592 0.00813 0.31257 0.0
Zn355 Zn 0.40422 0.95637 0.37582 0.0
C356 C 0.46388 0.02636 0.36381 0.0
O357 O 0.45936 0.98764 0.35862 0.0
C358 C 0.32127 0.94994 0.41532 0.0
O359 O 0.43425 0.94357 0.43126 0.0
O360 O 0.41556 0.00537 0.45014 0.0
N361 N 0.4273 0.90097 0.35244 0.0
C362 C 0.43782 0.86438 0.36955 0.0
C363 C 0.4555 0.86117 0.30826 0.0
N364 N 0.43831 0.89863 0.31431 0.0
N365 N 0.45569 0.83899 0.34249 0.0
C366 C 0.34581 0.10641 0.41227 0.0
C367 C 0.3435 0.10668 0.47615 0.0
N368 N 0.36165 0.0702 0.42501 0.0
N369 N 0.36027 0.0706 0.46468 0.0
N370 N 0.33432 0.12964 0.44375 0.0
H371 H 0.36923 0.11046 0.35251 0.0
H372 H 0.33528 0.15248 0.36627 0.0
H373 H 0.31445 0.102 0.35622 0.0
C374 C 0.34099 0.1188 0.36932 0.0
C375 C 0.43173 0.85394 0.41284 0.0
H376 H 0.45886 0.86487 0.43004 0.0
H377 H 0.42917 0.82007 0.41727 0.0
H378 H 0.40362 0.86932 0.4245 0.0
O379 O 0.34711 0.9272 0.39665 0.0
O380 O 0.33029 0.98773 0.4197 0.0
C381 C 0.43727 0.97333 0.45564 0.0
O382 O 0.35316 0.03144 0.34262 0.0
O383 O 0.37741 0.97347 0.31781 0.0
Zn384 Zn 0.25906 0.36046 0.37206 0.0
O385 O 0.27998 0.30526 0.39811 0.0
C386 C 0.23734 0.3935 0.45022 0.0
Zn387 Zn 0.19413 0.34476 0.38606 0.0
C388 C 0.25456 0.28246 0.41703 0.0
O389 O 0.2169 0.29317 0.41849 0.0
C390 C 0.20024 0.42202 0.3373 0.0
O391 O 0.18951 0.30676 0.334 0.0
O392 O 0.2512 0.32924 0.31901 0.0
N393 N 0.13517 0.32919 0.40375 0.0
C394 C 0.10165 0.31475 0.38426 0.0
C395 C 0.08805 0.31252 0.44666 0.0
N396 N 0.12641 0.32791 0.44248 0.0
N397 N 0.07186 0.304 0.41056 0.0
C398 C 0.35153 0.38938 0.36623 0.0
C399 C 0.35782 0.39038 0.30257 0.0
N400 N 0.31609 0.37489 0.35081 0.0
N401 N 0.3204 0.37521 0.31135 0.0
N402 N 0.37797 0.3995 0.33648 0.0
H403 H 0.34642 0.36916 0.42729 0.0
H404 H 0.39299 0.39808 0.41606 0.0
H405 H 0.34396 0.42418 0.41993 0.0
C406 C 0.35943 0.39541 0.40996 0.0
C407 C 0.0985 0.30985 0.33986 0.0
H408 H 0.11551 0.33501 0.32441 0.0
H409 H 0.11222 0.27975 0.33129 0.0
H410 H 0.06577 0.31011 0.33014 0.0
O411 O 0.17291 0.39743 0.35119 0.0
O412 O 0.23786 0.4154 0.34556 0.0
C413 C 0.22041 0.30726 0.31066 0.0
O414 O 0.26751 0.39022 0.42623 0.0
O415 O 0.20167 0.38079 0.43996 0.0
Zn416 Zn 0.91055 0.94946 0.13529 0.0
O417 O 0.9429 0.94498 0.07847 0.0
C418 C 0.82977 0.94904 0.09041 0.0
Zn419 Zn 0.88925 0.01301 0.11853 0.0
C420 C 0.93984 0.97571 0.05453 0.0
O421 O 0.91727 0.00554 0.06484 0.0
C422 C 0.86439 0.99711 0.20172 0.0
O423 O 0.94717 0.03695 0.1391 0.0
O424 O 0.96513 0.97462 0.15934 0.0
N425 N 0.86795 0.06851 0.09723 0.0
C426 C 0.8671 0.10804 0.10968 0.0
C427 C 0.82695 0.10394 0.05925 0.0
N428 N 0.84355 0.06649 0.0655 0.0
N429 N 0.84105 0.13065 0.08666 0.0
C430 C 0.94009 0.85482 0.13408 0.0
C431 C 0.95701 0.8459 0.19507 0.0
N432 N 0.93088 0.89041 0.15347 0.0
N433 N 0.94137 0.8844 0.19141 0.0
N434 N 0.95672 0.82658 0.15948 0.0
H435 H 0.91305 0.8715 0.07717 0.0
H436 H 0.96378 0.84777 0.07506 0.0
H437 H 0.9197 0.81658 0.08596 0.0
C438 C 0.93345 0.8476 0.09043 0.0
C439 C 0.88995 0.12404 0.14528 0.0
H440 H 0.92068 0.10928 0.14765 0.0
H441 H 0.89368 0.15806 0.14329 0.0
H442 H 0.87218 0.11669 0.17269 0.0
O443 O 0.86169 0.02287 0.17314 0.0
O444 O 0.88018 0.96139 0.1948 0.0
C445 C 0.97397 0.01248 0.15419 0.0
O446 O 0.85568 0.92417 0.10631 0.0
O447 O 0.83416 0.9874 0.09626 0.0
Zn448 Zn 0.30665 0.65653 0.87694 0.0
O449 O 0.31446 0.6885 0.82151 0.0
C450 C 0.31329 0.57423 0.83605 0.0
Zn451 Zn 0.24566 0.63213 0.85789 0.0
C452 C 0.2868 0.68453 0.7948 0.0
O453 O 0.25708 0.65995 0.80186 0.0
C454 C 0.25754 0.61133 0.9428 0.0
O455 O 0.21689 0.68649 0.87414 0.0
O456 O 0.2757 0.71023 0.89756 0.0
N457 N 0.19269 0.60683 0.83574 0.0
C458 C 0.15205 0.61491 0.83921 0.0
C459 C 0.15784 0.55611 0.81115 0.0
N460 N 0.19596 0.57063 0.8177 0.0
N461 N 0.12972 0.5832 0.82456 0.0
C462 C 0.39941 0.68842 0.88223 0.0
C463 C 0.40045 0.71216 0.94158 0.0
N464 N 0.36203 0.68033 0.89865 0.0
N465 N 0.36306 0.69504 0.93558 0.0
N466 N 0.42389 0.7086 0.90851 0.0
H467 H 0.38842 0.6577 0.82588 0.0
H468 H 0.41738 0.70538 0.8228 0.0
H469 H 0.4418 0.65989 0.84187 0.0
C470 C 0.41208 0.67694 0.84069 0.0
C471 C 0.13422 0.65238 0.85889 0.0
H472 H 0.14567 0.68052 0.84343 0.0
H473 H 0.10002 0.65237 0.85766 0.0
H474 H 0.14428 0.65342 0.89057 0.0
O475 O 0.23267 0.60697 0.91383 0.0
O476 O 0.2931 0.62721 0.93593 0.0
C477 C 0.23746 0.71512 0.89038 0.0
O478 O 0.337 0.60187 0.85059 0.0
O479 O 0.27494 0.57795 0.84124 0.0
Zn480 Zn 0.62406 0.99303 0.62929 0.0
O481 O 0.57277 0.96204 0.65452 0.0
C482 C 0.64825 0.01945 0.70951 0.0
Zn483 Zn 0.59806 0.05511 0.63888 0.0
C484 C 0.54139 0.9842 0.66264 0.0
O485 O 0.54476 0.02341 0.6614 0.0
C486 C 0.67728 0.06072 0.59513 0.0
O487 O 0.56704 0.05511 0.58287 0.0
O488 O 0.59181 0.99272 0.57423 0.0
N489 N 0.57139 0.11086 0.65388 0.0
C490 C 0.56125 0.1452 0.63286 0.0
C491 C 0.54028 0.15409 0.69268 0.0
N492 N 0.55836 0.11664 0.69102 0.0
N493 N 0.54152 0.17264 0.65654 0.0
C494 C 0.64661 0.9044 0.59871 0.0
C495 C 0.70928 0.90306 0.61838 0.0
N496 N 0.65452 0.94089 0.61609 0.0
N497 N 0.69365 0.94013 0.62761 0.0
N498 N 0.68038 0.88027 0.60015 0.0
H499 H 0.59335 0.9146 0.56215 0.0
H500 H 0.60785 0.86106 0.56736 0.0
H501 H 0.5841 0.8875 0.60875 0.0
C502 C 0.60558 0.89103 0.58317 0.0
C503 C 0.56953 0.15138 0.58915 0.0
H504 H 0.54395 0.13756 0.5717 0.0
H505 H 0.57122 0.18478 0.58168 0.0
H506 H 0.59857 0.13586 0.5803 0.0
O507 O 0.6505 0.08515 0.61001 0.0
O508 O 0.67464 0.02277 0.60339 0.0
C509 C 0.56717 0.02135 0.56362 0.0
O510 O 0.65329 0.99114 0.6842 0.0
O511 O 0.62768 0.05155 0.69924 0.0
C512 C 0.24901 0.27024 0.20801 0.0
C513 C 0.26219 0.22937 0.21755 0.0
C514 C 0.23748 0.23704 0.28611 0.0
C515 C 0.22524 0.27815 0.27732 0.0
N516 N 0.21316 0.33259 0.22981 0.0
N517 N 0.26797 0.17315 0.26516 0.0
C518 C 0.22925 0.29439 0.23806 0.0
C519 C 0.25594 0.21268 0.25632 0.0
N520 N 0.25514 0.28561 0.17023 0.0
N521 N 0.2325 0.22013 0.32316 0.0
H522 H 0.28252 0.15395 0.24454 0.0
H523 H 0.26379 0.15981 0.29338 0.0
H524 H 0.21835 0.23521 0.34698 0.0
H525 H 0.21835 0.23521 0.34698 0.0
H526 H 0.24827 0.31562 0.16132 0.0
H527 H 0.26886 0.26864 0.14742 0.0
H528 H 0.21323 0.34668 0.2018 0.0
H529 H 0.19705 0.34958 0.25123 0.0
C530 C 0.4513 0.52904 0.49555 0.0
C531 C 0.45331 0.48977 0.51451 0.0
C532 C 0.52596 0.48434 0.49731 0.0
C533 C 0.52451 0.52361 0.47814 0.0
N534 N 0.48947 0.58903 0.47333 0.0
N535 N 0.48671 0.42349 0.51405 0.0
C536 C 0.48808 0.54768 0.48109 0.0
C537 C 0.48888 0.46528 0.50943 0.0
N538 N 0.41385 0.54723 0.48922 0.0
N539 N 0.56297 0.46628 0.50617 0.0
H540 H 0.45861 0.40844 0.51857 0.0
H541 H 0.51143 0.4039 0.50779 0.0
H542 H 0.59083 0.48213 0.50304 0.0
H543 H 0.56543 0.43852 0.52196 0.0
H544 H 0.40999 0.57436 0.47275 0.0
H545 H 0.38634 0.53195 0.49577 0.0
H546 H 0.46452 0.60881 0.47769 0.0
H547 H 0.51734 0.60428 0.46863 0.0
C548 C 0.27933 0.79125 0.75084 0.0
C549 C 0.24296 0.78688 0.72738 0.0
C550 C 0.24673 0.71194 0.73665 0.0
C551 C 0.28134 0.71615 0.76205 0.0
N552 N 0.34015 0.75799 0.7785 0.0
N553 N 0.18327 0.74397 0.71613 0.0
C554 C 0.30052 0.75539 0.76502 0.0
C555 C 0.22416 0.74743 0.72504 0.0
N556 N 0.29177 0.82973 0.76211 0.0
N557 N 0.23583 0.67387 0.723 0.0
H558 H 0.16382 0.76963 0.71491 0.0
H559 H 0.16768 0.71582 0.71677 0.0
H560 H 0.25394 0.64783 0.72881 0.0
H561 H 0.21241 0.6695 0.70205 0.0
H562 H 0.31592 0.83498 0.78198 0.0
H563 H 0.27429 0.85601 0.75573 0.0
H564 H 0.35706 0.78532 0.77856 0.0
H565 H 0.35799 0.73172 0.78382 0.0
C566 C 0.96491 0.48726 0.0142 0.0
C567 C 0.97815 0.47572 0.97547 0.0
C568 C 0.05 0.49155 0.99328 0.0
C569 C 0.03632 0.50602 0.03107 0.0
N570 N 0.98037 0.51917 0.07766 0.0
N571 N 0.03281 0.46947 0.92632 0.0
C572 C 0.99362 0.50461 0.04148 0.0
C573 C 0.02066 0.47778 0.96469 0.0
N574 N 0.92479 0.48015 0.02513 0.0
N575 N 0.0913 0.49131 0.98463 0.0
H576 H 0.0134 0.45788 0.90437 0.0
H577 H 0.06195 0.47625 0.91502 0.0
H578 H 0.11327 0.50623 1.00219 0.0
H579 H 0.1042 0.47529 0.96077 0.0
H580 H 0.913 0.48476 0.0537 0.0
H581 H 0.90352 0.46602 0.00621 0.0
H582 H 0.94959 0.52458 0.08469 0.0
H583 H 0.99986 0.52765 0.10084 0.0
C584 C 0.74674 0.73111 0.7939 0.0
C585 C 0.7354 0.77188 0.78226 0.0
C586 C 0.76356 0.76025 0.71531 0.0
C587 C 0.77173 0.71834 0.72584 0.0
N588 N 0.76868 0.66264 0.77384 0.0
N589 N 0.72635 0.82333 0.73111 0.0
C590 C 0.76256 0.70346 0.76482 0.0
C591 C 0.74183 0.78578 0.74262 0.0
N592 N 0.74421 0.71943 0.83317 0.0
N593 N 0.77665 0.77582 0.67937 0.0
H594 H 0.70974 0.84219 0.75063 0.0
H595 H 0.7264 0.83411 0.70171 0.0
H596 H 0.79285 0.75866 0.65839 0.0
H597 H 0.77483 0.80693 0.67158 0.0
H598 H 0.75725 0.69245 0.84462 0.0
H599 H 0.73075 0.73789 0.85495 0.0
H600 H 0.75772 0.64849 0.79979 0.0
H601 H 0.78344 0.6423 0.75437 0.0
C602 C 0.7056 0.26205 0.24524 0.0
C603 C 0.72936 0.29851 0.24441 0.0
C604 C 0.78559 0.26245 0.27887 0.0
C605 C 0.76245 0.22528 0.27841 0.0
N606 N 0.70791 0.18768 0.24539 0.0
N607 N 0.78312 0.33709 0.27667 0.0
C608 C 0.72434 0.22443 0.25726 0.0
C609 C 0.76664 0.29985 0.26649 0.0
N610 N 0.66454 0.26379 0.23657 0.0
N611 N 0.8267 0.26146 0.28752 0.0
H612 H 0.76753 0.36471 0.27091 0.0
H613 H 0.80885 0.34012 0.29512 0.0
H614 H 0.84274 0.23369 0.29019 0.0
H615 H 0.84573 0.28732 0.28565 0.0
H616 H 0.64493 0.23849 0.23975 0.0
H617 H 0.64952 0.2919 0.23162 0.0
H618 H 0.68174 0.1857 0.22735 0.0
H619 H 0.72393 0.15986 0.24837 0.0
C620 C 0.00583 0.95909 0.01782 0.0
C621 C 0.97016 0.98389 0.02149 0.0
C622 C 0.00715 0.04239 0.99153 0.0
C623 C 0.04262 0.01766 0.98707 0.0
N624 N 0.08014 0.95809 0.01123 0.0
N625 N 0.93303 0.04242 0.99428 0.0
C626 C 0.04329 0.97747 0.00467 0.0
C627 C 0.96964 0.02361 0.00303 0.0
N628 N 0.00321 0.91758 0.02435 0.0
N629 N 0.00979 0.08418 0.98705 0.0
H630 H 0.90498 0.02708 0.99746 0.0
H631 H 0.93101 0.07024 0.97855 0.0
H632 H 0.03813 0.09898 0.98325 0.0
H633 H 0.98518 0.10405 0.99281 0.0
H634 H 0.02757 0.8972 0.01946 0.0
H635 H 0.97485 0.90312 0.02883 0.0
H636 H 0.08289 0.9298 0.02598 0.0
H637 H 0.10821 0.97323 0.00716 0.0
C638 C 0.4614 0.9903 0.52391 0.0
C639 C 0.47148 0.97618 0.4852 0.0
C640 C 0.54453 0.99337 0.49716 0.0
C641 C 0.53374 0.01114 0.53449 0.0
N642 N 0.47994 0.0309 0.5815 0.0
N643 N 0.52287 0.96529 0.43361 0.0
C644 C 0.49161 0.01102 0.54728 0.0
C645 C 0.51324 0.9772 0.47171 0.0
N646 N 0.42268 0.98282 0.53857 0.0
N647 N 0.58501 0.9925 0.48575 0.0
H648 H 0.50272 0.94966 0.41491 0.0
H649 H 0.5508 0.97198 0.41964 0.0
H650 H 0.60762 0.0096 0.5003 0.0
H651 H 0.59638 0.97449 0.46249 0.0
H652 H 0.41379 0.98843 0.56798 0.0
H653 H 0.4005 0.96669 0.52226 0.0
H654 H 0.44932 0.03603 0.58945 0.0
H655 H 0.50009 0.04546 0.60093 0.0
C656 C 0.23516 0.10656 0.94103 0.0
C657 C 0.21172 0.06972 0.94487 0.0
C658 C 0.25084 0.05264 0.00573 0.0
C659 C 0.26659 0.09303 0.0072 0.0
N660 N 0.27378 0.15989 0.97533 0.0
N661 N 0.19067 0.01376 0.98914 0.0
C662 C 0.25946 0.12031 0.97422 0.0
C663 C 0.21827 0.04385 0.97906 0.0
N664 N 0.23469 0.12806 0.90579 0.0
N665 N 0.26513 0.02347 0.03192 0.0
H666 H 0.16264 0.01024 0.9746 0.0
H667 H 0.19267 0.99657 0.01555 0.0
H668 H 0.28884 0.02982 0.05216 0.0
H669 H 0.2565 0.99249 0.03037 0.0
H670 H 0.254 0.15309 0.90002 0.0
H671 H 0.2178 0.11838 0.88098 0.0
H672 H 0.26476 0.18257 0.95489 0.0
H673 H 0.2935 0.17057 0.99755 0.0
C674 C 0.62731 0.50278 0.22818 0.0
C675 C 0.65291 0.51219 0.26139 0.0
C676 C 0.70912 0.47298 0.23229 0.0
C677 C 0.68462 0.4645 0.19754 0.0
N678 N 0.62434 0.48202 0.1585 0.0
N679 N 0.72137 0.51959 0.2874 0.0
C680 C 0.64492 0.48295 0.19413 0.0
C681 C 0.69511 0.50242 0.26022 0.0
N682 N 0.58595 0.51062 0.22991 0.0
N683 N 0.74325 0.45002 0.24171 0.0
H684 H 0.7113 0.54105 0.30853 0.0
H685 H 0.75332 0.51596 0.2859 0.0
H686 H 0.75232 0.42369 0.22654 0.0
H687 H 0.75933 0.45341 0.26851 0.0
H688 H 0.56511 0.49982 0.20865 0.0
H689 H 0.5722 0.5259 0.25386 0.0
H690 H 0.59676 0.49782 0.15357 0.0
H691 H 0.63708 0.46918 0.13272 0.0
C692 C 0.23925 0.95097 0.49447 0.0
C693 C 0.2378 0.90888 0.50559 0.0
C694 C 0.27761 0.89067 0.44529 0.0
C695 C 0.28381 0.93347 0.43742 0.0
N696 N 0.24978 0.99981 0.44034 0.0
N697 N 0.24051 0.83849 0.48376 0.0
C698 C 0.25782 0.96228 0.45746 0.0
C699 C 0.25211 0.87858 0.47833 0.0
N700 N 0.22392 0.98024 0.51969 0.0
N701 N 0.29577 0.86168 0.42158 0.0
H702 H 0.22027 0.8298 0.50653 0.0
H703 H 0.24711 0.81494 0.46365 0.0
H704 H 0.30729 0.86859 0.39324 0.0
H705 H 0.29825 0.83063 0.42947 0.0
H706 H 0.2284 0.01181 0.51522 0.0
H707 H 0.2083 0.97255 0.54603 0.0
H708 H 0.22909 0.02102 0.45244 0.0
H709 H 0.25959 0.00711 0.4114 0.0
C710 C 0.81626 0.51082 0.69778 0.0
C711 C 0.82956 0.55226 0.69106 0.0
C712 C 0.8707 0.54821 0.75195 0.0
C713 C 0.85173 0.51046 0.76292 0.0
N714 N 0.80519 0.45536 0.74635 0.0
N715 N 0.86018 0.61344 0.72049 0.0
C716 C 0.82441 0.49122 0.73561 0.0
C717 C 0.85464 0.57168 0.72019 0.0
N718 N 0.79604 0.49039 0.66802 0.0
N719 N 0.90462 0.56194 0.77176 0.0
H720 H 0.84612 0.63325 0.70037 0.0
H721 H 0.87447 0.62892 0.74402 0.0
H722 H 0.918 0.54474 0.79433 0.0
H723 H 0.92192 0.58737 0.76238 0.0
H724 H 0.78828 0.45924 0.66967 0.0
H725 H 0.7903 0.50394 0.64015 0.0
H726 H 0.78175 0.44189 0.72959 0.0
H727 H 0.81113 0.44043 0.7735 0.0
C728 C 0.77758 0.89816 0.06122 0.0
C729 C 0.80054 0.93539 0.05806 0.0
C730 C 0.76683 0.94924 0.99342 0.0
C731 C 0.75132 0.90873 0.99256 0.0
N732 N 0.74483 0.84217 0.02525 0.0
N733 N 0.82517 0.98919 0.01298 0.0
C734 C 0.75688 0.88253 0.0266 0.0
C735 C 0.79689 0.95951 0.02225 0.0
N736 N 0.7751 0.878 0.09711 0.0
N737 N 0.75449 0.97734 0.96523 0.0
H738 H 0.85202 0.99318 0.02927 0.0
H739 H 0.82537 0.00507 0.98574 0.0
H740 H 0.73243 0.97029 0.94353 0.0
H741 H 0.76284 0.00842 0.96635 0.0
H742 H 0.7559 0.85267 0.10192 0.0
H743 H 0.78902 0.88917 0.12303 0.0
H744 H 0.75271 0.82064 0.04725 0.0
H745 H 0.72928 0.82946 1.00099 0.0
C746 C 0.30017 0.53347 0.77311 0.0
C747 C 0.32719 0.54291 0.80571 0.0
C748 C 0.37912 0.4978 0.77454 0.0
C749 C 0.35018 0.487 0.74439 0.0
N750 N 0.27939 0.48237 0.72473 0.0
N751 N 0.38969 0.52536 0.84139 0.0
C752 C 0.30906 0.49966 0.74823 0.0
C753 C 0.3659 0.5222 0.80788 0.0
N754 N 0.2692 0.55976 0.76201 0.0
N755 N 0.41945 0.4866 0.77024 0.0
H756 H 0.38031 0.54186 0.86652 0.0
H757 H 0.41671 0.5084 0.84555 0.0
H758 H 0.42935 0.46767 0.74692 0.0
H759 H 0.44293 0.49762 0.7886 0.0
H760 H 0.25089 0.55499 0.73678 0.0
H761 H 0.26618 0.58931 0.77357 0.0
H762 H 0.24812 0.48938 0.72793 0.0
H763 H 0.28612 0.45817 0.70519 0.0
C764 C 0.7442 0.05821 0.50026 0.0
C765 C 0.75586 0.09986 0.49657 0.0
C766 C 0.72624 0.11313 0.56322 0.0
C767 C 0.70674 0.0738 0.56261 0.0
N768 N 0.69119 0.01239 0.5229 0.0
N769 N 0.75593 0.16878 0.52375 0.0
C770 C 0.71457 0.04686 0.52943 0.0
C771 C 0.74684 0.12784 0.52808 0.0
N772 N 0.76037 0.02966 0.47467 0.0
N773 N 0.72601 0.13604 0.59741 0.0
H774 H 0.77184 0.18055 0.4991 0.0
H775 H 0.74549 0.1913 0.5435 0.0
H776 H 0.71287 0.12549 0.62405 0.0
H777 H 0.74268 0.16334 0.60048 0.0
H778 H 0.75579 0.99798 0.47822 0.0
H779 H 0.78201 0.03755 0.45276 0.0
H780 H 0.69377 0.99459 0.49712 0.0
H781 H 0.66539 0.0043 0.53952 0.0
C782 C 0.15486 0.48075 0.31165 0.0
C783 C 0.1899 0.45474 0.30705 0.0
C784 C 0.20785 0.49311 0.24606 0.0
C785 C 0.16817 0.51095 0.24499 0.0
N786 N 0.10311 0.52296 0.27861 0.0
N787 N 0.24478 0.43123 0.26294 0.0
C788 C 0.14159 0.50582 0.27865 0.0
C789 C 0.21564 0.46001 0.27276 0.0
N790 N 0.13484 0.48225 0.34758 0.0
N791 N 0.2372 0.50615 0.21959 0.0
H792 H 0.24807 0.40315 0.27785 0.0
H793 H 0.26167 0.43252 0.2364 0.0
H794 H 0.23162 0.53035 0.19948 0.0
H795 H 0.26775 0.49602 0.22078 0.0
H796 H 0.1114 0.50333 0.35375 0.0
H797 H 0.14456 0.46537 0.37253 0.0
H798 H 0.0806 0.51538 0.29966 0.0
H799 H 0.09305 0.54371 0.25684 0.0
C800 C 0.75596 0.57574 0.48034 0.0
C801 C 0.7403 0.60444 0.50833 0.0
C802 C 0.67626 0.61022 0.47031 0.0
C803 C 0.6922 0.58386 0.44035 0.0
N804 N 0.75089 0.54767 0.41301 0.0
N805 N 0.6936 0.66116 0.51885 0.0
C806 C 0.73342 0.56861 0.44408 0.0
C807 C 0.70317 0.62568 0.49948 0.0
N808 N 0.79126 0.55449 0.48891 0.0
N809 N 0.6349 0.61765 0.47387 0.0
H810 H 0.71476 0.67455 0.53782 0.0
H811 H 0.66817 0.6795 0.51154 0.0
H812 H 0.61263 0.60305 0.45668 0.0
H813 H 0.62237 0.63399 0.49782 0.0
H814 H 0.80206 0.53003 0.47168 0.0
H815 H 0.80847 0.56013 0.51471 0.0
H816 H 0.78168 0.53844 0.41266 0.0
H817 H 0.73543 0.54296 0.38602 0.0
C818 C 0.19759 0.99431 0.75815 0.0
C819 C 0.15604 0.00583 0.76279 0.0
C820 C 0.14081 0.97576 0.69676 0.0
C821 C 0.18044 0.95678 0.69639 0.0
N822 N 0.2427 0.94107 0.73472 0.0
N823 N 0.08647 0.00598 0.73742 0.0
C824 C 0.20819 0.96467 0.72887 0.0
C825 C 0.12718 0.99664 0.73207 0.0
N826 N 0.22673 0.01035 0.78315 0.0
N827 N 0.11657 0.97459 0.66338 0.0
H828 H 0.0758 0.02234 0.76218 0.0
H829 H 0.06323 0.99554 0.71846 0.0
H830 H 0.12614 0.96077 0.63682 0.0
H831 H 0.08891 0.99083 0.66084 0.0
H832 H 0.25828 0.0057 0.77902 0.0
H833 H 0.21931 0.03191 0.80518 0.0
H834 H 0.26142 0.94364 0.75995 0.0
H835 H 0.24974 0.91505 0.71806 0.0
C836 C 0.7461 0.42404 0.98791 0.0
C837 C 0.76591 0.39914 0.01731 0.0
C838 C 0.82836 0.39666 0.97594 0.0
C839 C 0.80846 0.41991 0.94541 0.0
N840 N 0.74583 0.44929 0.91903 0.0
N841 N 0.82099 0.35072 0.0319 0.0
C842 C 0.76632 0.43135 0.95032 0.0
C843 C 0.80519 0.38168 0.00863 0.0
N844 N 0.7093 0.44251 0.99658 0.0
N845 N 0.87027 0.39198 0.97632 0.0
H846 H 0.80551 0.33872 0.05645 0.0
H847 H 0.84725 0.33392 0.02413 0.0
H848 H 0.88962 0.40435 0.95475 0.0
H849 H 0.88643 0.37997 1.00073 0.0
H850 H 0.69543 0.46456 0.97819 0.0
H851 H 0.69388 0.43775 0.0236 0.0
H852 H 0.71427 0.45533 0.91924 0.0
H853 H 0.75997 0.45468 0.89141 0.0
C854 C 0.35773 0.08783 0.22884 0.0
C855 C 0.33571 0.06771 0.19784 0.0
C856 C 0.32895 0.00622 0.2417 0.0
C857 C 0.35328 0.02592 0.27132 0.0
N858 N 0.40349 0.07921 0.28466 0.0
N859 N 0.30766 0.00438 0.17183 0.0
C860 C 0.37168 0.06465 0.26214 0.0
C861 C 0.32369 0.0257 0.20336 0.0
N862 N 0.3626 0.12974 0.22876 0.0
N863 N 0.30952 0.96994 0.25061 0.0
H864 H 0.30434 0.01757 0.14343 0.0
H865 H 0.3015 0.97283 0.17277 0.0
H866 H 0.3128 0.95507 0.2782 0.0
H867 H 0.2879 0.95624 0.23185 0.0
H868 H 0.37479 0.14576 0.25304 0.0
H869 H 0.34983 0.14916 0.20725 0.0
H870 H 0.42049 0.10536 0.27683 0.0
H871 H 0.41593 0.06237 0.30818 0.0
C872 C 0.28438 0.46289 0.52515 0.0
C873 C 0.29197 0.43526 0.55816 0.0
C874 C 0.25318 0.38132 0.52296 0.0
C875 C 0.24574 0.40927 0.49088 0.0
N876 N 0.24141 0.47915 0.4677 0.0
N877 N 0.27296 0.37248 0.59259 0.0
C878 C 0.25664 0.45102 0.49452 0.0
C879 C 0.27288 0.39579 0.5584 0.0
N880 N 0.30631 0.49863 0.52024 0.0
N881 N 0.24317 0.34061 0.51885 0.0
H882 H 0.28585 0.38288 0.61932 0.0
H883 H 0.25662 0.34495 0.59556 0.0
H884 H 0.2271 0.32945 0.49413 0.0
H885 H 0.25262 0.31774 0.5389 0.0
H886 H 0.30472 0.51666 0.49436 0.0
H887 H 0.32966 0.50854 0.53898 0.0
H888 H 0.24497 0.51094 0.47101 0.0
H889 H 0.22134 0.4707 0.44469 0.0
C890 C 0.83248 0.99483 0.27272 0.0
C891 C 0.85758 0.01419 0.2432 0.0
C892 C 0.85556 0.07861 0.28163 0.0
C893 C 0.83344 0.05909 0.31296 0.0
N894 N 0.80609 0.99622 0.34115 0.0
N895 N 0.90448 0.07046 0.22886 0.0
C896 C 0.82367 0.01627 0.30944 0.0
C897 C 0.87303 0.05449 0.25103 0.0
N898 N 0.81546 0.95718 0.26504 0.0
N899 N 0.85662 0.12067 0.2782 0.0
H900 H 0.91803 0.05446 0.20552 0.0
H901 H 0.91942 0.09792 0.23622 0.0
H902 H 0.84048 0.14031 0.29701 0.0
H903 H 0.86885 0.1359 0.25331 0.0
H904 H 0.79345 0.94334 0.28342 0.0
H905 H 0.82141 0.941 0.23877 0.0
H906 H 0.80126 0.96443 0.34195 0.0
H907 H 0.7997 0.01108 0.36811 0.0
C908 C 0.24064 0.57111 0.05088 0.0
C909 C 0.19843 0.58222 0.05642 0.0
C910 C 0.2009 0.62127 0.99359 0.0
C911 C 0.24076 0.60503 0.98447 0.0
N912 N 0.29757 0.5614 0.00423 0.0
N913 N 0.1369 0.61405 0.02833 0.0
C914 C 0.26071 0.57952 0.01336 0.0
C915 C 0.17838 0.60638 0.02669 0.0
N916 N 0.26167 0.55304 0.08179 0.0
N917 N 0.1826 0.65093 0.97074 0.0
H918 H 0.11715 0.6005 0.04897 0.0
H919 H 0.12145 0.63156 0.00667 0.0
H920 H 0.19674 0.66574 0.94672 0.0
H921 H 0.19674 0.66574 0.94672 0.0
H922 H 0.29331 0.54748 0.08124 0.0
H923 H 0.24802 0.54724 0.10955 0.0
H924 H 0.31145 0.53885 0.02203 0.0
H925 H 0.31296 0.56676 0.97732 0.0
C926 C 0.69487 0.0114 0.76983 0.0
C927 C 0.65549 0.00742 0.7522 0.0
C928 C 0.6405 0.94824 0.79615 0.0
C929 C 0.68029 0.95163 0.81414 0.0
N930 N 0.73755 0.99746 0.82795 0.0
N931 N 0.58674 0.97979 0.75818 0.0
C932 C 0.70514 0.98673 0.80406 0.0
C933 C 0.62699 0.97931 0.76932 0.0
N934 N 0.72289 0.03776 0.75316 0.0
N935 N 0.61563 0.91467 0.8022 0.0
H936 H 0.5745 0.00253 0.73948 0.0
H937 H 0.5745 0.00253 0.73948 0.0
H938 H 0.62461 0.88757 0.81647 0.0
H939 H 0.58635 0.91241 0.78936 0.0
H940 H 0.75378 0.03864 0.76177 0.0
H941 H 0.71522 0.05729 0.72931 0.0
H942 H 0.75483 0.0242 0.82349 0.0
H943 H 0.74376 0.98255 0.85505 0.0
C944 C 0.50097 0.22468 0.07564 0.0
C945 C 0.46636 0.24155 0.09579 0.0
C946 C 0.51124 0.29426 0.12565 0.0
C947 C 0.54441 0.28081 0.10132 0.0
N948 N 0.57073 0.23537 0.05084 0.0
N949 N 0.43721 0.29481 0.13699 0.0
C950 C 0.53936 0.24625 0.07595 0.0
C951 C 0.47122 0.27678 0.12042 0.0
N952 N 0.49694 0.18768 0.05664 0.0
N953 N 0.51836 0.32372 0.15389 0.0
H954 H 0.40753 0.28306 0.13323 0.0
H955 H 0.4379 0.32295 0.15192 0.0
H956 H 0.54749 0.33669 0.15817 0.0
H957 H 0.49667 0.33254 0.17519 0.0
H958 H 0.52161 0.17162 0.04418 0.0
H959 H 0.46919 0.17136 0.05645 0.0
H960 H 0.56785 0.21323 0.02853 0.0
H961 H 0.5991 0.25056 0.05076 0.0
C962 C 0.46778 0.72303 0.35313 0.0
C963 C 0.51084 0.71874 0.34679 0.0
C964 C 0.51784 0.79439 0.3469 0.0
C965 C 0.47426 0.79853 0.34782 0.0
N966 N 0.40718 0.76721 0.34874 0.0
N967 N 0.57696 0.74975 0.33485 0.0
C968 C 0.44905 0.76289 0.35051 0.0
C969 C 0.53601 0.75435 0.34334 0.0
N970 N 0.44505 0.68877 0.36223 0.0
N971 N 0.54166 0.82896 0.34997 0.0
H972 H 0.59088 0.72082 0.3323 0.0
H973 H 0.59645 0.77426 0.32784 0.0
H974 H 0.52889 0.8584 0.35294 0.0
H975 H 0.57362 0.82826 0.35301 0.0
H976 H 0.41415 0.6898 0.37068 0.0
H977 H 0.45833 0.65949 0.36476 0.0
H978 H 0.38689 0.74245 0.34636 0.0
H979 H 0.39283 0.79602 0.34699 0.0
C980 C 0.96868 0.76056 0.62354 0.0
C981 C 0.96242 0.72887 0.59496 0.0
C982 C 0.03416 0.73743 0.57175 0.0
C983 C 0.04064 0.76832 0.601 0.0
N984 N 0.01759 0.80312 0.66007 0.0
N985 N 0.99101 0.68134 0.54758 0.0
C986 C 0.00892 0.77767 0.62874 0.0
C987 C 0.99591 0.71546 0.57091 0.0
N988 N 0.93565 0.77605 0.64395 0.0
N989 N 0.06387 0.73066 0.54358 0.0
H990 H 0.96341 0.66478 0.54687 0.0
H991 H 0.015 0.66751 0.53182 0.0
H992 H 0.09206 0.74616 0.5438 0.0
H993 H 0.05967 0.71178 0.51878 0.0
H994 H 0.93723 0.80195 0.66223 0.0
H995 H 0.90574 0.76497 0.64011 0.0
H996 H 0.99722 0.80858 0.68355 0.0
H997 H 0.04687 0.81578 0.66429 0.0
C998 C 0.96807 0.25736 0.82389 0.0
C999 C 0.9846 0.29239 0.84342 0.0
C1000 C 0.03894 0.24886 0.87301 0.0
C1001 C 0.02539 0.21511 0.84965 0.0
N1002 N 0.97899 0.18696 0.80098 0.0
N1003 N 0.03765 0.32302 0.88381 0.0
C1004 C 0.99015 0.21918 0.82483 0.0
C1005 C 0.02036 0.28846 0.86764 0.0
N1006 N 0.93092 0.2608 0.80492 0.0
N1007 N 0.06952 0.24263 0.90049 0.0
H1008 H 0.02497 0.35239 0.88005 0.0
H1009 H 0.06598 0.32315 0.89847 0.0
H1010 H 0.0834 0.21383 0.90474 0.0
H1011 H 0.07866 0.26473 0.9212 0.0
H1012 H 0.91503 0.23586 0.79289 0.0
H1013 H 0.9144 0.28849 0.80405 0.0
H1014 H 0.95624 0.18891 0.77907 0.0
H1015 H 0.99437 0.15864 0.80166 0.0
C1016 C 0.53623 0.73084 0.92751 0.0
C1017 C 0.54153 0.76792 0.90539 0.0
C1018 C 0.46974 0.76374 0.88196 0.0
C1019 C 0.46464 0.72617 0.90342 0.0
N1020 N 0.49431 0.66982 0.94027 0.0
N1021 N 0.51714 0.815 0.85501 0.0
C1022 C 0.49851 0.70839 0.92412 0.0
C1023 C 0.50938 0.78278 0.88041 0.0
N1024 N 0.56666 0.71825 0.95307 0.0
N1025 N 0.43614 0.78238 0.86504 0.0
H1026 H 0.54602 0.82914 0.85336 0.0
H1027 H 0.49639 0.82521 0.83331 0.0
H1028 H 0.40671 0.76944 0.86608 0.0
H1029 H 0.43674 0.81188 0.85252 0.0
H1030 H 0.56345 0.69382 0.9732 0.0
H1031 H 0.59454 0.73405 0.95579 0.0
H1032 H 0.51856 0.65323 0.95298 0.0
H1033 H 0.46694 0.65305 0.93789 0.0
C1034 C 0.51786 0.28573 0.66517 0.0
C1035 C 0.48148 0.2888 0.64186 0.0
C1036 C 0.48687 0.21538 0.62469 0.0
C1037 C 0.52384 0.21254 0.64722 0.0
N1038 N 0.57952 0.24618 0.68123 0.0
N1039 N 0.43642 0.26007 0.5924 0.0
C1040 C 0.54099 0.2483 0.66487 0.0
C1041 C 0.46781 0.25465 0.61914 0.0
N1042 N 0.52888 0.31774 0.68934 0.0
N1043 N 0.4686 0.18025 0.6109 0.0
H1044 H 0.42229 0.28873 0.58796 0.0
H1045 H 0.4271 0.23746 0.57228 0.0
H1046 H 0.4812 0.15097 0.61549 0.0
H1047 H 0.43949 0.17975 0.59773 0.0
H1048 H 0.55261 0.31594 0.71029 0.0
H1049 H 0.5123 0.34534 0.69033 0.0
H1050 H 0.59548 0.27186 0.69166 0.0
H1051 H 0.59695 0.21905 0.68094 0.0
C1052 C 0.03113 0.23975 0.41133 0.0
C1053 C 0.03343 0.28278 0.40383 0.0
C1054 C 0.95884 0.28506 0.39196 0.0
C1055 C 0.95589 0.24346 0.40493 0.0
N1056 N 0.98783 0.18079 0.42783 0.0
N1057 N 1.00072 0.34723 0.3877 0.0
C1058 C 0.99179 0.22046 0.41433 0.0
C1059 C 0.99761 0.30561 0.39377 0.0
N1060 N 0.06681 0.21764 0.4154 0.0
N1061 N 0.92435 0.30451 0.37781 0.0
H1062 H 0.02899 0.36261 0.38827 0.0
H1063 H 0.97546 0.36677 0.3841 0.0
H1064 H 0.89579 0.28974 0.37628 0.0
H1065 H 0.92452 0.33379 0.36483 0.0
H1066 H 0.06787 0.18559 0.41772 0.0
H1067 H 0.09584 0.23138 0.41328 0.0
H1068 H 0.01218 0.1633 0.43913 0.0
H1069 H 0.95932 0.16597 0.42964 0.0
C1070 C 0.03563 0.74303 0.1382 0.0
C1071 C 0.01379 0.70761 0.15154 0.0
C1072 C 0.95135 0.75016 0.16048 0.0
C1073 C 0.9745 0.7862 0.1517 0.0
N1074 N 0.0384 0.81807 0.1327 0.0
N1075 N 0.95136 0.67623 0.17498 0.0
C1076 C 0.0165 0.78283 0.14009 0.0
C1077 C 0.97153 0.71083 0.1621 0.0
N1078 N 0.07482 0.73822 0.12393 0.0
N1079 N 0.90998 0.75401 0.16725 0.0
H1080 H 0.96532 0.64716 0.17511 0.0
H1081 H 0.92165 0.67624 0.18676 0.0
H1082 H 0.89505 0.78259 0.16629 0.0
H1083 H 0.89003 0.72918 0.17118 0.0
H1084 H 0.09189 0.76177 0.11065 0.0
H1085 H 0.08936 0.70947 0.12298 0.0
H1086 H 0.07009 0.81881 0.12784 0.0
H1087 H 0.02485 0.84731 0.1332 0.0
C1088 C 0.23071 0.28356 0.04611 0.0
C1089 C 0.21122 0.25225 0.06915 0.0
C1090 C 0.16964 0.30357 0.10358 0.0
C1091 C 0.19095 0.33525 0.083 0.0
N1092 N 0.23292 0.35636 0.02741 0.0
N1093 N 0.14672 0.23289 0.10044 0.0
C1094 C 0.21863 0.32547 0.05163 0.0
C1095 C 0.17546 0.26227 0.09152 0.0
N1096 N 0.2608 0.27298 0.01949 0.0
N1097 N 0.14589 0.31251 0.13614 0.0
H1098 H 0.14743 0.20362 0.08758 0.0
H1099 H 0.11921 0.23965 0.11521 0.0
H1100 H 0.14245 0.34239 0.14711 0.0
H1101 H 0.13308 0.28967 0.15439 0.0
H1102 H 0.2797 0.29419 0.00488 0.0
H1103 H 0.26666 0.24222 0.0122 0.0
H1104 H 0.25122 0.35146 0.00229 0.0
H1105 H 0.22368 0.38702 0.03096 0.0
C1106 C 0.41488 0.46378 0.35177 0.0
C1107 C 0.41559 0.42258 0.33815 0.0
C1108 C 0.48821 0.42986 0.32002 0.0
C1109 C 0.48904 0.46864 0.33959 0.0
N1110 N 0.45398 0.5181 0.38242 0.0
N1111 N 0.45334 0.36405 0.31359 0.0
C1112 C 0.4526 0.48468 0.35761 0.0
C1113 C 0.45243 0.40493 0.32335 0.0
N1114 N 0.37813 0.48342 0.35796 0.0
N1115 N 0.52112 0.41746 0.29746 0.0
H1116 H 0.42754 0.34501 0.31645 0.0
H1117 H 0.48034 0.34836 0.30616 0.0
H1118 H 0.54716 0.43589 0.29312 0.0
H1119 H 0.52084 0.39101 0.27985 0.0
H1120 H 0.37603 0.51484 0.36432 0.0
H1121 H 0.34974 0.46946 0.35247 0.0
H1122 H 0.42874 0.52763 0.39939 0.0
H1123 H 0.48091 0.5338 0.38958 0.0
C1124 C 0.31212 0.73576 0.62698 0.0
C1125 C 0.28949 0.75066 0.59306 0.0
C1126 C 0.30486 0.68595 0.55787 0.0
C1127 C 0.32263 0.66997 0.59325 0.0
N1128 N 0.3412 0.67705 0.66228 0.0
N1129 N 0.26338 0.73942 0.52643 0.0
C1130 C 0.32663 0.69453 0.62768 0.0
C1131 C 0.28586 0.72566 0.55836 0.0
N1132 N 0.3189 0.76034 0.65932 0.0
N1133 N 0.30601 0.66243 0.52408 0.0
H1134 H 0.25022 0.76868 0.52555 0.0
H1135 H 0.25598 0.72145 0.50174 0.0
H1136 H 0.31976 0.63324 0.52382 0.0
H1137 H 0.29648 0.67267 0.496 0.0
H1138 H 0.3408 0.75389 0.68129 0.0
H1139 H 0.30404 0.78817 0.66375 0.0
H1140 H 0.339 0.69081 0.6903 0.0
H1141 H 0.35343 0.64729 0.66356 0.0
C1142 C 0.02389 0.54384 0.80274 0.0
C1143 C 0.00677 0.54244 0.84184 0.0
C1144 C 0.07146 0.56793 0.86968 0.0
C1145 C 0.08703 0.57332 0.83046 0.0
N1146 N 0.0758 0.57444 0.75949 0.0
N1147 N 0.01136 0.563 0.91162 0.0
C1148 C 0.06234 0.56391 0.79688 0.0
C1149 C 0.02934 0.55825 0.87491 0.0
N1150 N 0.00423 0.52521 0.7715 0.0
N1151 N 0.09746 0.56856 0.90188 0.0
H1152 H 0.98122 0.55445 0.91819 0.0
H1153 H 0.02576 0.57851 0.93504 0.0
H1154 H 0.12929 0.57205 0.89928 0.0
H1155 H 0.08813 0.56083 0.9308 0.0
H1156 H 0.01747 0.52194 0.74329 0.0
H1157 H 0.97607 0.51004 0.77449 0.0
H1158 H 0.05766 0.57173 0.73391 0.0
H1159 H 0.1038 0.58963 0.75479 0.0
C1160 C 0.8277 0.73875 0.93717 0.0
C1161 C 0.78418 0.74299 0.93431 0.0
C1162 C 0.7768 0.66781 0.93252 0.0
C1163 C 0.82015 0.66394 0.93004 0.0
N1164 N 0.88765 0.69418 0.92994 0.0
N1165 N 0.71935 0.71091 0.95196 0.0
C1166 C 0.84589 0.69904 0.93267 0.0
C1167 C 0.75903 0.70733 0.93864 0.0
N1168 N 0.85097 0.77218 0.94753 0.0
N1169 N 0.75267 0.63362 0.92796 0.0
H1170 H 0.70767 0.73846 0.96337 0.0
H1171 H 0.70033 0.68571 0.95782 0.0
H1172 H 0.76507 0.60419 0.92374 0.0
H1173 H 0.72071 0.63495 0.92495 0.0
H1174 H 0.88263 0.77108 0.95255 0.0
H1175 H 0.83748 0.80001 0.95622 0.0
H1176 H 0.9083 0.71865 0.92749 0.0
H1177 H 0.90151 0.66519 0.92748 0.0
C1178 C 0.58108 0.52893 0.64467 0.0
C1179 C 0.58578 0.56546 0.66704 0.0
C1180 C 0.51249 0.56349 0.68507 0.0
C1181 C 0.50692 0.52992 0.65845 0.0
N1182 N 0.53468 0.48824 0.60494 0.0
N1183 N 0.55596 0.62102 0.70466 0.0
C1184 C 0.54091 0.51447 0.63618 0.0
C1185 C 0.55144 0.58374 0.68629 0.0
N1186 N 0.61509 0.50772 0.63209 0.0
N1187 N 0.48111 0.57514 0.70992 0.0
H1188 H 0.58416 0.6365 0.7056 0.0
H1189 H 0.53131 0.63802 0.71596 0.0
H1190 H 0.45255 0.5603 0.71036 0.0
H1191 H 0.48458 0.59691 0.7325 0.0
H1192 H 0.61348 0.47863 0.61897 0.0
H1193 H 0.64508 0.51729 0.63849 0.0
H1194 H 0.55829 0.47858 0.58606 0.0
H1195 H 0.50541 0.48023 0.5949 0.0
C1196 C 0.6728 0.26603 0.43127 0.0
C1197 C 0.71127 0.26092 0.4113 0.0
C1198 C 0.71125 0.33469 0.39261 0.0
C1199 C 0.67365 0.33978 0.41331 0.0
N1200 N 0.6184 0.31306 0.45319 0.0
N1201 N 0.76863 0.29115 0.37453 0.0
C1202 C 0.65424 0.30607 0.43274 0.0
C1203 C 0.73091 0.29546 0.39242 0.0
N1204 N 0.65457 0.23272 0.44935 0.0
N1205 N 0.72763 0.36759 0.37225 0.0
H1206 H 0.78235 0.26299 0.36832 0.0
H1207 H 0.78763 0.31576 0.36675 0.0
H1208 H 0.71537 0.39731 0.37367 0.0
H1209 H 0.75194 0.36554 0.35206 0.0
H1210 H 0.62513 0.23289 0.46166 0.0
H1211 H 0.66897 0.20401 0.45196 0.0
H1212 H 0.60318 0.2912 0.47061 0.0
H1213 H 0.60395 0.3419 0.45334 0.0
C1214 C 0.94825 0.42124 0.139 0.0
C1215 C 0.92773 0.42259 0.17632 0.0
C1216 C 0.98885 0.45339 0.20764 0.0
C1217 C 0.00918 0.45271 0.17006 0.0
N1218 N 0.01182 0.42652 0.1022 0.0
N1219 N 0.92972 0.43123 0.24734 0.0
C1220 C 0.99029 0.43291 0.13673 0.0
C1221 C 0.94874 0.4357 0.21113 0.0
N1222 N 0.92657 0.41252 0.10494 0.0
N1223 N 0.00765 0.4716 0.2396 0.0
H1224 H 0.90041 0.41811 0.24997 0.0
H1225 H 0.94383 0.43729 0.27466 0.0
H1226 H 0.03785 0.48263 0.23829 0.0
H1227 H 0.99315 0.47703 0.26686 0.0
H1228 H 0.93878 0.41474 0.07622 0.0
H1229 H 0.89514 0.40615 0.1046 0.0
H1230 H 0.00186 0.40705 0.07946 0.0
H1231 H 0.0409 0.43847 0.09698 0.0
C1232 C 0.7189 0.77977 0.56149 0.0
C1233 C 0.71079 0.75457 0.59564 0.0
C1234 C 0.67151 0.81065 0.62644 0.0
C1235 C 0.68361 0.83678 0.59475 0.0
N1236 N 0.71675 0.84863 0.53186 0.0
N1237 N 0.67736 0.74771 0.66149 0.0
C1238 C 0.70609 0.82174 0.56177 0.0
C1239 C 0.68585 0.76981 0.62762 0.0
N1240 N 0.73843 0.7635 0.52887 0.0
N1241 N 0.64867 0.82573 0.65757 0.0
H1242 H 0.6879 0.71808 0.66807 0.0
H1243 H 0.6879 0.71808 0.66807 0.0
H1244 H 0.63876 0.85626 0.65932 0.0
H1245 H 0.63949 0.80753 0.68185 0.0
H1246 H 0.74195 0.77896 0.50173 0.0
H1247 H 0.7493 0.73328 0.52782 0.0
H1248 H 0.737 0.84171 0.5087 0.0
H1249 H 0.70592 0.87902 0.5311 0.0
C1250 C 0.95515 0.91125 0.82567 0.0
C1251 C 0.91935 0.92924 0.84251 0.0
C1252 C 0.96033 0.9867 0.86752 0.0
C1253 C 0.99558 0.971 0.84725 0.0
N1254 N 0.02437 0.92241 0.80034 0.0
N1255 N 0.88578 0.98908 0.86992 0.0
C1256 C 0.99237 0.93439 0.82429 0.0
C1257 C 0.92128 0.96859 0.86047 0.0
N1258 N 0.95375 0.87156 0.81214 0.0
N1259 N 0.96431 0.01684 0.89565 0.0
H1260 H 0.85658 0.97703 0.86408 0.0
H1261 H 0.8854 0.01961 0.87967 0.0
H1262 H 0.99275 0.02827 0.9047 0.0
H1263 H 0.93984 0.02687 0.91332 0.0
H1264 H 0.97979 0.85526 0.80298 0.0
H1265 H 0.927 0.85372 0.8136 0.0
H1266 H 0.02242 0.89796 0.7803 0.0
H1267 H 0.05152 0.93949 0.79761 0.0
C1268 C 0.80482 0.18058 0.13002 0.0
C1269 C 0.8241 0.17115 0.0932 0.0
C1270 C 0.79897 0.23664 0.06561 0.0
C1271 C 0.78668 0.24885 0.10447 0.0
N1272 N 0.78584 0.23457 0.17555 0.0
N1273 N 0.84545 0.19338 0.0275 0.0
C1274 C 0.79232 0.22161 0.13733 0.0
C1275 C 0.82297 0.20021 0.06135 0.0
N1276 N 0.79547 0.15 0.15679 0.0
N1277 N 0.78669 0.25877 0.03285 0.0
H1278 H 0.8645 0.1676 0.02427 0.0
H1279 H 0.84836 0.21526 0.00468 0.0
H1280 H 0.76679 0.284 0.03495 0.0
H1281 H 0.79248 0.24929 0.00362 0.0
H1282 H 0.77839 0.1553 0.18272 0.0
H1283 H 0.8002 0.11882 0.15065 0.0
H1284 H 0.79422 0.21666 0.20025 0.0
H1285 H 0.77614 0.26435 0.18234 0.0
C1286 C 0.5229 0.04564 0.31908 0.0
C1287 C 0.50444 0.04572 0.35763 0.0
C1288 C 0.56772 0.07314 0.3871 0.0
C1289 C 0.58568 0.07398 0.34857 0.0
N1290 N 0.58006 0.06868 0.27739 0.0
N1291 N 0.50619 0.06749 0.42715 0.0
C1292 C 0.56295 0.06272 0.31432 0.0
C1293 C 0.52566 0.06248 0.39115 0.0
N1294 N 0.50249 0.02868 0.28735 0.0
N1295 N 0.59175 0.07959 0.42013 0.0
H1296 H 0.4766 0.05696 0.43338 0.0
H1297 H 0.51863 0.08452 0.45059 0.0
H1298 H 0.62297 0.08702 0.41852 0.0
H1299 H 0.58178 0.07434 0.44933 0.0
H1300 H 0.51592 0.02377 0.25949 0.0
H1301 H 0.4724 0.0175 0.28931 0.0
H1302 H 0.56423 0.0645 0.25062 0.0
H1303 H 0.60954 0.08112 0.27375 0.0
C1304 C 0.24735 0.20533 0.43204 0.0
C1305 C 0.26962 0.24323 0.43555 0.0
C1306 C 0.33311 0.20513 0.4505 0.0
C1307 C 0.31194 0.16783 0.44368 0.0
N1308 N 0.24849 0.13037 0.43836 0.0
N1309 N 0.32776 0.2782 0.46476 0.0
C1310 C 0.26879 0.16736 0.43777 0.0
C1311 C 0.31074 0.24273 0.45017 0.0
N1312 N 0.20644 0.20508 0.42207 0.0
N1313 N 0.37488 0.20456 0.45579 0.0
H1314 H 0.31093 0.30561 0.46703 0.0
H1315 H 0.3565 0.27931 0.47866 0.0
H1316 H 0.39185 0.17715 0.45653 0.0
H1317 H 0.3929 0.23115 0.45667 0.0
H1318 H 0.19091 0.17893 0.41221 0.0
H1319 H 0.18735 0.23079 0.42312 0.0
H1320 H 0.21653 0.12741 0.43852 0.0
H1321 H 0.2638 0.1022 0.44173 0.0
C1322 C 0.02597 0.05954 0.18517 0.0
C1323 C 0.01727 0.02646 0.1592 0.0
C1324 C 0.08966 0.02659 0.1377 0.0
C1325 C 0.09519 0.06466 0.15749 0.0
N1326 N 0.06733 0.12036 0.19647 0.0
N1327 N 0.0416 0.9777 0.10968 0.0
C1328 C 0.06276 0.08222 0.17992 0.0
C1329 C 0.04939 0.00951 0.13521 0.0
N1330 N 1.0015 0.06616 0.21758 0.0
N1331 N 0.12315 0.00607 0.12286 0.0
H1332 H 0.01308 0.96341 0.10723 0.0
H1333 H 0.06315 0.96658 0.08939 0.0
H1334 H 0.15308 0.01765 0.12495 0.0
H1335 H 0.12196 0.97608 0.11183 0.0
H1336 H 0.00753 0.08872 0.23895 0.0
H1337 H 0.98014 0.04393 0.22645 0.0
H1338 H 0.04319 0.1358 0.21065 0.0
H1339 H 0.09405 0.13789 0.1926 0.0
C1340 C 0.18641 0.80679 0.9403 0.0
C1341 C 0.18224 0.83382 0.90711 0.0
C1342 C 0.20757 0.78014 0.86289 0.0
C1343 C 0.21774 0.75543 0.89666 0.0
N1344 N 0.22345 0.74856 0.96849 0.0
N1345 N 0.2013 0.85001 0.83889 0.0
C1346 C 0.20919 0.76968 0.93581 0.0
C1347 C 0.19607 0.82161 0.86883 0.0
N1348 N 0.16809 0.81649 0.97581 0.0
N1349 N 0.20898 0.76453 0.82509 0.0
H1350 H 0.19676 0.88157 0.84291 0.0
H1351 H 0.21479 0.84273 0.81148 0.0
H1352 H 0.21819 0.73452 0.81872 0.0
H1353 H 0.1968 0.7805 0.80063 0.0
H1354 H 0.1672 0.79632 1.00019 0.0
H1355 H 0.1502 0.84307 0.97931 0.0
H1356 H 0.22092 0.75973 0.99758 0.0
H1357 H 0.24115 0.72176 0.96625 0.0
C1358 C 0.4448 0.92448 0.63185 0.0
C1359 C 0.41779 0.93436 0.6634 0.0
C1360 C 0.47127 0.97546 0.69603 0.0
C1361 C 0.49942 0.96505 0.66482 0.0
N1362 N 0.51236 0.9281 0.60295 0.0
N1363 N 0.40606 0.96035 0.72911 0.0
C1364 C 0.48624 0.93827 0.6333 0.0
C1365 C 0.4316 0.95676 0.69681 0.0
N1366 N 0.42962 0.90512 0.59863 0.0
N1367 N 0.48118 0.00479 0.72362 0.0
H1368 H 0.37674 0.94699 0.72961 0.0
H1369 H 0.41515 0.97284 0.75637 0.0
H1370 H 0.50905 0.02048 0.72381 0.0
H1371 H 0.46028 0.01655 0.74431 0.0
H1372 H 0.44578 0.9017 0.57194 0.0
H1373 H 0.39943 0.89445 0.59649 0.0
H1374 H 0.50781 0.90314 0.58392 0.0
H1375 H 0.53869 0.94474 0.59641 0.0
loop_
_geom_bond_atom_site_label_1
_geom_bond_atom_site_label_2
_geom_bond_distance
_geom_bond_site_symmetry_2
_ccdc_geom_bond_type
Zn0 O1 2.055 . S
Zn0 O8 2.046 . S
Zn0 N16 2.036 . S
Zn0 O28 2.053 . S
Zn0 O30 2.066 . S
O1 Zn0 2.055 . S
O1 C4 1.259 . S
C2 O30 1.256 . S
C2 O31 1.244 . S
Zn3 O5 2.046 . S
Zn3 O7 2.055 . S
Zn3 N9 2.036 . S
Zn3 O27 2.066 . S
Zn3 O31 2.053 . S
C4 O1 1.259 . S
C4 O5 1.254 . S
O5 Zn3 2.046 . S
O5 C4 1.254 . S
C6 O27 1.256 . S
C6 O28 1.244 . S
O7 Zn3 2.055 . S
O7 C29 1.259 . S
O8 Zn0 2.046 . S
O8 C29 1.254 . S
N9 Zn3 2.036 . S
N9 C10 1.298 . S
N9 N12 1.398 . S
C10 N9 1.298 . S
C10 N13 1.367 . S
C10 C23 1.481 . S
C11 N12 1.299 . S
C11 N13 1.379 . S
N12 N9 1.398 . S
N12 C11 1.299 . S
N13 C10 1.367 . S
N13 C11 1.379 . S
C14 N16 1.298 . S
C14 N18 1.367 . S
C14 C22 1.481 . S
C15 N17 1.299 . S
C15 N18 1.379 . S
N16 Zn0 2.036 . S
N16 C14 1.298 . S
N16 N17 1.398 . S
N17 C15 1.299 . S
N17 N16 1.398 . S
N18 C14 1.367 . S
N18 C15 1.379 . S
H19 C22 0.980 . S
H20 C22 0.981 . S
H21 C22 0.981 . S
C22 C14 1.481 . S
C22 H19 0.980 . S
C22 H20 0.981 . S
C22 H21 0.981 . S
C23 C10 1.481 . S
C23 H24 0.980 . S
C23 H25 0.981 . S
C23 H26 0.981 . S
H24 C23 0.980 . S
H25 C23 0.981 . S
H26 C23 0.981 . S
O27 Zn3 2.066 . S
O27 C6 1.256 . S
O28 Zn0 2.053 . S
O28 C6 1.244 . S
C29 O7 1.259 . S
C29 O8 1.254 . S
O30 Zn0 2.066 . S
O30 C2 1.256 . S
O31 C2 1.244 . S
O31 Zn3 2.053 . S
Zn32 O33 2.055 . S
Zn32 O40 2.046 . S
Zn32 N48 2.036 . S
Zn32 O60 2.053 . S
Zn32 O62 2.066 . S
O33 Zn32 2.055 . S
O33 C36 1.259 . S
C34 O62 1.256 . S
C34 O63 1.244 . S
Zn35 O37 2.046 . S
Zn35 O39 2.055 . S
Zn35 N41 2.036 . S
Zn35 O59 2.066 . S
Zn35 O63 2.053 . S
C36 O33 1.259 . S
C36 O37 1.254 . S
O37 Zn35 2.046 . S
O37 C36 1.254 . S
C38 O59 1.256 . S
C38 O60 1.244 . S
O39 Zn35 2.055 . S
O39 C61 1.259 . S
O40 Zn32 2.046 . S
O40 C61 1.254 . S
N41 Zn35 2.036 . S
N41 C42 1.298 . S
N41 N44 1.398 . S
C42 N41 1.298 . S
C42 N45 1.367 . S
C42 C55 1.481 . S
C43 N44 1.299 . S
C43 N45 1.379 . S
N44 N41 1.398 . S
N44 C43 1.299 . S
N45 C42 1.367 . S
N45 C43 1.379 . S
C46 N48 1.298 . S
C46 N50 1.367 . S
C46 C54 1.481 . S
C47 N49 1.299 . S
C47 N50 1.379 . S
N48 Zn32 2.036 . S
N48 C46 1.298 . S
N48 N49 1.398 . S
N49 C47 1.299 . S
N49 N48 1.398 . S
N50 C46 1.367 . S
N50 C47 1.379 . S
H51 C54 0.980 . S
H52 C54 0.981 . S
H53 C54 0.981 . S
C54 C46 1.481 . S
C54 H51 0.980 . S
C54 H52 0.981 . S
C54 H53 0.981 . S
C55 C42 1.481 . S
C55 H56 0.980 . S
C55 H57 0.981 . S
C55 H58 0.981 . S
H56 C55 0.980 . S
H57 C55 0.981 . S
H58 C55 0.981 . S
O59 Zn35 2.066 . S
O59 C38 1.256 . S
O60 Zn32 2.053 . S
O60 C38 1.244 . S
C61 O39 1.259 . S
C61 O40 1.254 . S
O62 Zn32 2.066 . S
O62 C34 1.256 . S
O63 C34 1.244 . S
O63 Zn35 2.053 . S
Zn64 O65 2.055 . S
Zn64 O72 2.046 . S
Zn64 N80 2.036 . S
Zn64 O92 2.053 . S
Zn64 O94 2.066 . S
O65 Zn64 2.055 . S
O65 C68 1.259 . S
C66 O94 1.256 . S
C66 O95 1.244 . S
Zn67 O69 2.046 . S
Zn67 O71 2.055 . S
Zn67 N73 2.036 . S
Zn67 O91 2.066 . S
Zn67 O95 2.053 . S
C68 O65 1.259 . S
C68 O69 1.254 . S
O69 Zn67 2.046 . S
O69 C68 1.254 . S
C70 O91 1.256 . S
C70 O92 1.244 . S
O71 Zn67 2.055 . S
O71 C93 1.259 . S
O72 Zn64 2.046 . S
O72 C93 1.254 . S
N73 Zn67 2.036 . S
N73 C74 1.298 . S
N73 N76 1.398 . S
C74 N73 1.298 . S
C74 N77 1.367 . S
C74 C87 1.481 . S
C75 N76 1.299 . S
C75 N77 1.379 . S
N76 N73 1.398 . S
N76 C75 1.299 . S
N77 C74 1.367 . S
N77 C75 1.379 . S
C78 N80 1.298 . S
C78 N82 1.367 . S
C78 C86 1.481 . S
C79 N81 1.299 . S
C79 N82 1.379 . S
N80 Zn64 2.036 . S
N80 C78 1.298 . S
N80 N81 1.398 . S
N81 C79 1.299 . S
N81 N80 1.398 . S
N82 C78 1.367 . S
N82 C79 1.379 . S
H83 C86 0.980 . S
H84 C86 0.981 . S
H85 C86 0.981 . S
C86 C78 1.481 . S
C86 H83 0.980 . S
C86 H84 0.981 . S
C86 H85 0.981 . S
C87 C74 1.481 . S
C87 H88 0.980 . S
C87 H89 0.981 . S
C87 H90 0.981 . S
H88 C87 0.980 . S
H89 C87 0.981 . S
H90 C87 0.981 . S
O91 Zn67 2.066 . S
O91 C70 1.256 . S
O92 Zn64 2.053 . S
O92 C70 1.244 . S
C93 O71 1.259 . S
C93 O72 1.254 . S
O94 Zn64 2.066 . S
O94 C66 1.256 . S
O95 C66 1.244 . S
O95 Zn67 2.053 . S
Zn96 O97 2.055 . S
Zn96 O104 2.046 . S
Zn96 N112 2.036 . S
Zn96 O124 2.053 . S
Zn96 O126 2.066 . S
O97 Zn96 2.055 . S
O97 C100 1.259 . S
C98 O126 1.256 . S
C98 O127 1.244 . S
Zn99 O101 2.046 . S
Zn99 O103 2.055 . S
Zn99 N105 2.036 . S
Zn99 O123 2.066 . S
Zn99 O127 2.053 . S
C100 O97 1.259 . S
C100 O101 1.254 . S
O101 Zn99 2.046 . S
O101 C100 1.254 . S
C102 O123 1.256 . S
C102 O124 1.244 . S
O103 Zn99 2.055 . S
O103 C125 1.259 . S
O104 Zn96 2.046 . S
O104 C125 1.254 . S
N105 Zn99 2.036 . S
N105 C106 1.298 . S
N105 N108 1.398 . S
C106 N105 1.298 . S
C106 N109 1.367 . S
C106 C119 1.481 . S
C107 N108 1.299 . S
C107 N109 1.379 . S
N108 N105 1.398 . S
N108 C107 1.299 . S
N109 C106 1.367 . S
N109 C107 1.379 . S
C110 N112 1.298 . S
C110 N114 1.367 . S
C110 C118 1.481 . S
C111 N113 1.299 . S
C111 N114 1.379 . S
N112 Zn96 2.036 . S
N112 C110 1.298 . S
N112 N113 1.398 . S
N113 C111 1.299 . S
N113 N112 1.398 . S
N114 C110 1.367 . S
N114 C111 1.379 . S
H115 C118 0.980 . S
H116 C118 0.981 . S
H117 C118 0.981 . S
C118 C110 1.481 . S
C118 H115 0.980 . S
C118 H116 0.981 . S
C118 H117 0.981 . S
C119 C106 1.481 . S
C119 H120 0.980 . S
C119 H121 0.981 . S
C119 H122 0.981 . S
H120 C119 0.980 . S
H121 C119 0.981 . S
H122 C119 0.981 . S
O123 Zn99 2.066 . S
O123 C102 1.256 . S
O124 Zn96 2.053 . S
O124 C102 1.244 . S
C125 O103 1.259 . S
C125 O104 1.254 . S
O126 Zn96 2.066 . S
O126 C98 1.256 . S
O127 C98 1.244 . S
O127 Zn99 2.053 . S
Zn128 O129 2.055 . S
Zn128 O136 2.046 . S
Zn128 N144 2.036 . S
Zn128 O156 2.053 . S
Zn128 O158 2.066 . S
O129 Zn128 2.055 . S
O129 C132 1.259 . S
C130 O158 1.256 . S
C130 O159 1.244 . S
Zn131 O133 2.046 . S
Zn131 O135 2.055 . S
Zn131 N137 2.036 . S
Zn131 O155 2.066 . S
Zn131 O159 2.053 . S
C132 O129 1.259 . S
C132 O133 1.254 . S
O133 Zn131 2.046 . S
O133 C132 1.254 . S
C134 O155 1.256 . S
C134 O156 1.244 . S
O135 Zn131 2.055 . S
O135 C157 1.259 . S
O136 Zn128 2.046 . S
O136 C157 1.254 . S
N137 Zn131 2.036 . S
N137 C138 1.298 . S
N137 N140 1.398 . S
C138 N137 1.298 . S
C138 N141 1.367 . S
C138 C151 1.481 . S
C139 N140 1.299 . S
C139 N141 1.379 . S
N140 N137 1.398 . S
N140 C139 1.299 . S
N141 C138 1.367 . S
N141 C139 1.379 . S
C142 N144 1.298 . S
C142 N146 1.367 . S
C142 C150 1.481 . S
C143 N145 1.299 . S
C143 N146 1.379 . S
N144 Zn128 2.036 . S
N144 C142 1.298 . S
N144 N145 1.398 . S
N145 C143 1.299 . S
N145 N144 1.398 . S
N146 C142 1.367 . S
N146 C143 1.379 . S
H147 C150 0.980 . S
H148 C150 0.981 . S
H149 C150 0.981 . S
C150 C142 1.481 . S
C150 H147 0.980 . S
C150 H148 0.981 . S
C150 H149 0.981 . S
C151 C138 1.481 . S
C151 H152 0.980 . S
C151 H153 0.981 . S
C151 H154 0.981 . S
H152 C151 0.980 . S
H153 C151 0.981 . S
H154 C151 0.981 . S
O155 Zn131 2.066 . S
O155 C134 1.256 . S
O156 Zn128 2.053 . S
O156 C134 1.244 . S
C157 O135 1.259 . S
C157 O136 1.254 . S
O158 Zn128 2.066 . S
O158 C130 1.256 . S
O159 C130 1.244 . S
O159 Zn131 2.053 . S
Zn160 O161 2.055 . S
Zn160 O168 2.046 . S
Zn160 N176 2.036 . S
Zn160 O188 2.053 . S
Zn160 O190 2.066 . S
O161 Zn160 2.055 . S
O161 C164 1.259 . S
C162 O190 1.256 . S
C162 O191 1.244 . S
Zn163 O165 2.046 . S
Zn163 O167 2.055 . S
Zn163 N169 2.036 . S
Zn163 O187 2.066 . S
Zn163 O191 2.053 . S
C164 O161 1.259 . S
C164 O165 1.254 . S
O165 Zn163 2.046 . S
O165 C164 1.254 . S
C166 O187 1.256 . S
C166 O188 1.244 . S
O167 Zn163 2.055 . S
O167 C189 1.259 . S
O168 Zn160 2.046 . S
O168 C189 1.254 . S
N169 Zn163 2.036 . S
N169 C170 1.298 . S
N169 N172 1.398 . S
C170 N169 1.298 . S
C170 N173 1.367 . S
C170 C183 1.481 . S
C171 N172 1.299 . S
C171 N173 1.379 . S
N172 N169 1.398 . S
N172 C171 1.299 . S
N173 C170 1.367 . S
N173 C171 1.379 . S
C174 N176 1.298 . S
C174 N178 1.367 . S
C174 C182 1.481 . S
C175 N177 1.299 . S
C175 N178 1.379 . S
N176 Zn160 2.036 . S
N176 C174 1.298 . S
N176 N177 1.398 . S
N177 C175 1.299 . S
N177 N176 1.398 . S
N178 C174 1.367 . S
N178 C175 1.379 . S
H179 C182 0.980 . S
H180 C182 0.981 . S
H181 C182 0.981 . S
C182 C174 1.481 . S
C182 H179 0.980 . S
C182 H180 0.981 . S
C182 H181 0.981 . S
C183 C170 1.481 . S
C183 H184 0.980 . S
C183 H185 0.981 . S
C183 H186 0.981 . S
H184 C183 0.980 . S
H185 C183 0.981 . S
H186 C183 0.981 . S
O187 Zn163 2.066 . S
O187 C166 1.256 . S
O188 Zn160 2.053 . S
O188 C166 1.244 . S
C189 O167 1.259 . S
C189 O168 1.254 . S
O190 Zn160 2.066 . S
O190 C162 1.256 . S
O191 C162 1.244 . S
O191 Zn163 2.053 . S
Zn192 O193 2.055 . S
Zn192 O200 2.046 . S
Zn192 N208 2.036 . S
Zn192 O220 2.053 . S
Zn192 O222 2.066 . S
O193 Zn192 2.055 . S
O193 C196 1.259 . S
C194 O222 1.256 . S
C194 O223 1.244 . S
Zn195 O197 2.046 . S
Zn195 O199 2.055 . S
Zn195 N201 2.036 . S
Zn195 O219 2.066 . S
Zn195 O223 2.053 . S
C196 O193 1.259 . S
C196 O197 1.254 . S
O197 Zn195 2.046 . S
O197 C196 1.254 . S
C198 O219 1.256 . S
C198 O220 1.244 . S
O199 Zn195 2.055 . S
O199 C221 1.259 . S
O200 Zn192 2.046 . S
O200 C221 1.254 . S
N201 Zn195 2.036 . S
N201 C202 1.298 . S
N201 N204 1.398 . S
C202 N201 1.298 . S
C202 N205 1.367 . S
C202 C215 1.481 . S
C203 N204 1.299 . S
C203 N205 1.379 . S
N204 N201 1.398 . S
N204 C203 1.299 . S
N205 C202 1.367 . S
N205 C203 1.379 . S
C206 N208 1.298 . S
C206 N210 1.367 . S
C206 C214 1.481 . S
C207 N209 1.299 . S
C207 N210 1.379 . S
N208 Zn192 2.036 . S
N208 C206 1.298 . S
N208 N209 1.398 . S
N209 C207 1.299 . S
N209 N208 1.398 . S
N210 C206 1.367 . S
N210 C207 1.379 . S
H211 C214 0.980 . S
H212 C214 0.981 . S
H213 C214 0.981 . S
C214 C206 1.481 . S
C214 H211 0.980 . S
C214 H212 0.981 . S
C214 H213 0.981 . S
C215 C202 1.481 . S
C215 H216 0.980 . S
C215 H217 0.981 . S
C215 H218 0.981 . S
H216 C215 0.980 . S
H217 C215 0.981 . S
H218 C215 0.981 . S
O219 Zn195 2.066 . S
O219 C198 1.256 . S
O220 Zn192 2.053 . S
O220 C198 1.244 . S
C221 O199 1.259 . S
C221 O200 1.254 . S
O222 Zn192 2.066 . S
O222 C194 1.256 . S
O223 C194 1.244 . S
O223 Zn195 2.053 . S
Zn224 O225 2.055 . S
Zn224 O232 2.046 . S
Zn224 N240 2.036 . S
Zn224 O252 2.053 . S
Zn224 O254 2.066 . S
O225 Zn224 2.055 . S
O225 C228 1.259 . S
C226 O254 1.256 . S
C226 O255 1.244 . S
Zn227 O229 2.046 . S
Zn227 O231 2.055 . S
Zn227 N233 2.036 . S
Zn227 O251 2.066 . S
Zn227 O255 2.053 . S
C228 O225 1.259 . S
C228 O229 1.254 . S
O229 Zn227 2.046 . S
O229 C228 1.254 . S
C230 O251 1.256 . S
C230 O252 1.244 . S
O231 Zn227 2.055 . S
O231 C253 1.259 . S
O232 Zn224 2.046 . S
O232 C253 1.254 . S
N233 Zn227 2.036 . S
N233 C234 1.298 . S
N233 N236 1.398 . S
C234 N233 1.298 . S
C234 N237 1.367 . S
C234 C247 1.481 . S
C235 N236 1.299 . S
C235 N237 1.379 . S
N236 N233 1.398 . S
N236 C235 1.299 . S
N237 C234 1.367 . S
N237 C235 1.379 . S
C238 N240 1.298 . S
C238 N242 1.367 . S
C238 C246 1.481 . S
C239 N241 1.299 . S
C239 N242 1.379 . S
N240 Zn224 2.036 . S
N240 C238 1.298 . S
N240 N241 1.398 . S
N241 C239 1.299 . S
N241 N240 1.398 . S
N242 C238 1.367 . S
N242 C239 1.379 . S
H243 C246 0.980 . S
H244 C246 0.981 . S
H245 C246 0.981 . S
C246 C238 1.481 . S
C246 H243 0.980 . S
C246 H244 0.981 . S
C246 H245 0.981 . S
C247 C234 1.481 . S
C247 H248 0.980 . S
C247 H249 0.981 . S
C247 H250 0.981 . S
H248 C247 0.980 . S
H249 C247 0.981 . S
H250 C247 0.981 . S
O251 Zn227 2.066 . S
O251 C230 1.256 . S
O252 Zn224 2.053 . S
O252 C230 1.244 . S
C253 O231 1.259 . S
C253 O232 1.254 . S
O254 Zn224 2.066 . S
O254 C226 1.256 . S
O255 C226 1.244 . S
O255 Zn227 2.053 . S
Zn256 O257 2.055 . S
Zn256 O264 2.046 . S
Zn256 N272 2.036 . S
Zn256 O284 2.053 . S
Zn256 O286 2.066 . S
O257 Zn256 2.055 . S
O257 C260 1.259 . S
C258 O286 1.256 . S
C258 O287 1.244 . S
Zn259 O261 2.046 . S
Zn259 O263 2.055 . S
Zn259 N265 2.036 . S
Zn259 O283 2.066 . S
Zn259 O287 2.053 . S
C260 O257 1.259 . S
C260 O261 1.254 . S
O261 Zn259 2.046 . S
O261 C260 1.254 . S
C262 O283 1.256 . S
C262 O284 1.244 . S
O263 Zn259 2.055 . S
O263 C285 1.259 . S
O264 Zn256 2.046 . S
O264 C285 1.254 . S
N265 Zn259 2.036 . S
N265 C266 1.298 . S
N265 N268 1.398 . S
C266 N265 1.298 . S
C266 N269 1.367 . S
C266 C279 1.481 . S
C267 N268 1.299 . S
C267 N269 1.379 . S
N268 N265 1.398 . S
N268 C267 1.299 . S
N269 C266 1.367 . S
N269 C267 1.379 . S
C270 N272 1.298 . S
C270 N274 1.367 . S
C270 C278 1.481 . S
C271 N273 1.299 . S
C271 N274 1.379 . S
N272 Zn256 2.036 . S
N272 C270 1.298 . S
N272 N273 1.398 . S
N273 C271 1.299 . S
N273 N272 1.398 . S
N274 C270 1.367 . S
N274 C271 1.379 . S
H275 C278 0.980 . S
H276 C278 0.981 . S
H277 C278 0.981 . S
C278 C270 1.481 . S
C278 H275 0.980 . S
C278 H276 0.981 . S
C278 H277 0.981 . S
C279 C266 1.481 . S
C279 H280 0.980 . S
C279 H281 0.981 . S
C279 H282 0.981 . S
H280 C279 0.980 . S
H281 C279 0.981 . S
H282 C279 0.981 . S
O283 Zn259 2.066 . S
O283 C262 1.256 . S
O284 Zn256 2.053 . S
O284 C262 1.244 . S
C285 O263 1.259 . S
C285 O264 1.254 . S
O286 Zn256 2.066 . S
O286 C258 1.256 . S
O287 C258 1.244 . S
O287 Zn259 2.053 . S
Zn288 O289 2.055 . S
Zn288 O296 2.046 . S
Zn288 N304 2.036 . S
Zn288 O316 2.053 . S
Zn288 O318 2.066 . S
O289 Zn288 2.055 . S
O289 C292 1.259 . S
C290 O318 1.256 . S
C290 O319 1.244 . S
Zn291 O293 2.046 . S
Zn291 O295 2.055 . S
Zn291 N297 2.036 . S
Zn291 O315 2.066 . S
Zn291 O319 2.053 1_565 S
C292 O289 1.259 . S
C292 O293 1.254 1_545 S
O293 Zn291 2.046 . S
O293 C292 1.254 1_565 S
C294 O315 1.256 1_545 S
C294 O316 1.244 . S
O295 Zn291 2.055 . S
O295 C317 1.259 . S
O296 Zn288 2.046 . S
O296 C317 1.254 1_545 S
N297 Zn291 2.036 . S
N297 C298 1.298 . S
N297 N300 1.398 . S
C298 N297 1.298 . S
C298 N301 1.367 . S
C298 C311 1.481 . S
C299 N300 1.299 . S
C299 N301 1.379 . S
N300 N297 1.398 . S
N300 C299 1.299 . S
N301 C298 1.367 . S
N301 C299 1.379 . S
C302 N304 1.298 . S
C302 N306 1.367 . S
C302 C310 1.481 . S
C303 N305 1.299 . S
C303 N306 1.379 . S
N304 Zn288 2.036 . S
N304 C302 1.298 . S
N304 N305 1.398 . S
N305 C303 1.299 . S
N305 N304 1.398 . S
N306 C302 1.367 . S
N306 C303 1.379 . S
H307 C310 0.980 . S
H308 C310 0.981 . S
H309 C310 0.981 . S
C310 C302 1.481 . S
C310 H307 0.980 . S
C310 H308 0.981 . S
C310 H309 0.981 . S
C311 C298 1.481 . S
C311 H312 0.980 . S
C311 H313 0.981 . S
C311 H314 0.981 . S
H312 C311 0.980 . S
H313 C311 0.981 . S
H314 C311 0.981 . S
O315 Zn291 2.066 . S
O315 C294 1.256 1_565 S
O316 Zn288 2.053 . S
O316 C294 1.244 . S
C317 O295 1.259 . S
C317 O296 1.254 1_565 S
O318 Zn288 2.066 . S
O318 C290 1.256 . S
O319 C290 1.244 . S
O319 Zn291 2.053 1_545 S
Zn320 O321 2.055 . S
Zn320 O328 2.046 . S
Zn320 N336 2.036 . S
Zn320 O348 2.053 . S
Zn320 O350 2.066 . S
O321 Zn320 2.055 . S
O321 C324 1.259 . S
C322 O350 1.256 . S
C322 O351 1.244 . S
Zn323 O325 2.046 . S
Zn323 O327 2.055 . S
Zn323 N329 2.036 . S
Zn323 O347 2.066 . S
Zn323 O351 2.053 . S
C324 O321 1.259 . S
C324 O325 1.254 . S
O325 Zn323 2.046 . S
O325 C324 1.254 . S
C326 O347 1.256 . S
C326 O348 1.244 . S
O327 Zn323 2.055 . S
O327 C349 1.259 . S
O328 Zn320 2.046 . S
O328 C349 1.254 . S
N329 Zn323 2.036 . S
N329 C330 1.298 . S
N329 N332 1.398 . S
C330 N329 1.298 . S
C330 N333 1.367 . S
C330 C343 1.481 . S
C331 N332 1.299 . S
C331 N333 1.379 . S
N332 N329 1.398 . S
N332 C331 1.299 . S
N333 C330 1.367 . S
N333 C331 1.379 . S
C334 N336 1.298 . S
C334 N338 1.367 . S
C334 C342 1.481 . S
C335 N337 1.299 . S
C335 N338 1.379 . S
N336 Zn320 2.036 . S
N336 C334 1.298 . S
N336 N337 1.398 . S
N337 C335 1.299 . S
N337 N336 1.398 . S
N338 C334 1.367 . S
N338 C335 1.379 . S
H339 C342 0.980 . S
H340 C342 0.981 . S
H341 C342 0.981 . S
C342 C334 1.481 . S
C342 H339 0.980 . S
C342 H340 0.981 . S
C342 H341 0.981 . S
C343 C330 1.481 . S
C343 H344 0.980 . S
C343 H345 0.981 . S
C343 H346 0.981 . S
H344 C343 0.980 . S
H345 C343 0.981 . S
H346 C343 0.981 . S
O347 Zn323 2.066 . S
O347 C326 1.256 . S
O348 Zn320 2.053 . S
O348 C326 1.244 . S
C349 O327 1.259 . S
C349 O328 1.254 . S
O350 Zn320 2.066 . S
O350 C322 1.256 . S
O351 C322 1.244 . S
O351 Zn323 2.053 . S
Zn352 O353 2.055 . S
Zn352 O360 2.046 . S
Zn352 N368 2.036 . S
Zn352 O380 2.053 1_545 S
Zn352 O382 2.066 . S
O353 Zn352 2.055 . S
O353 C356 1.259 . S
C354 O382 1.256 1_565 S
C354 O383 1.244 . S
Zn355 O357 2.046 . S
Zn355 O359 2.055 . S
Zn355 N361 2.036 . S
Zn355 O379 2.066 . S
Zn355 O383 2.053 . S
C356 O353 1.259 . S
C356 O357 1.254 1_545 S
O357 Zn355 2.046 . S
O357 C356 1.254 1_565 S
C358 O379 1.256 . S
C358 O380 1.244 . S
O359 Zn355 2.055 . S
O359 C381 1.259 . S
O360 Zn352 2.046 . S
O360 C381 1.254 1_545 S
N361 Zn355 2.036 . S
N361 C362 1.298 . S
N361 N364 1.398 . S
C362 N361 1.298 . S
C362 N365 1.367 . S
C362 C375 1.481 . S
C363 N364 1.299 . S
C363 N365 1.379 . S
N364 N361 1.398 . S
N364 C363 1.299 . S
N365 C362 1.367 . S
N365 C363 1.379 . S
C366 N368 1.298 . S
C366 N370 1.367 . S
C366 C374 1.481 . S
C367 N369 1.299 . S
C367 N370 1.379 . S
N368 Zn352 2.036 . S
N368 C366 1.298 . S
N368 N369 1.398 . S
N369 C367 1.299 . S
N369 N368 1.398 . S
N370 C366 1.367 . S
N370 C367 1.379 . S
H371 C374 0.980 . S
H372 C374 0.981 . S
H373 C374 0.981 . S
C374 C366 1.481 . S
C374 H371 0.980 . S
C374 H372 0.981 . S
C374 H373 0.981 . S
C375 C362 1.481 . S
C375 H376 0.980 . S
C375 H377 0.981 . S
C375 H378 0.981 . S
H376 C375 0.980 . S
H377 C375 0.981 . S
H378 C375 0.981 . S
O379 Zn355 2.066 . S
O379 C358 1.256 . S
O380 Zn352 2.053 1_565 S
O380 C358 1.244 . S
C381 O359 1.259 . S
C381 O360 1.254 1_565 S
O382 Zn352 2.066 . S
O382 C354 1.256 1_545 S
O383 C354 1.244 . S
O383 Zn355 2.053 . S
Zn384 O385 2.055 . S
Zn384 O392 2.046 . S
Zn384 N400 2.036 . S
Zn384 O412 2.053 . S
Zn384 O414 2.066 . S
O385 Zn384 2.055 . S
O385 C388 1.259 . S
C386 O414 1.256 . S
C386 O415 1.244 . S
Zn387 O389 2.046 . S
Zn387 O391 2.055 . S
Zn387 N393 2.036 . S
Zn387 O411 2.066 . S
Zn387 O415 2.053 . S
C388 O385 1.259 . S
C388 O389 1.254 . S
O389 Zn387 2.046 . S
O389 C388 1.254 . S
C390 O411 1.256 . S
C390 O412 1.244 . S
O391 Zn387 2.055 . S
O391 C413 1.259 . S
O392 Zn384 2.046 . S
O392 C413 1.254 . S
N393 Zn387 2.036 . S
N393 C394 1.298 . S
N393 N396 1.398 . S
C394 N393 1.298 . S
C394 N397 1.367 . S
C394 C407 1.481 . S
C395 N396 1.299 . S
C395 N397 1.379 . S
N396 N393 1.398 . S
N396 C395 1.299 . S
N397 C394 1.367 . S
N397 C395 1.379 . S
C398 N400 1.298 . S
C398 N402 1.367 . S
C398 C406 1.481 . S
C399 N401 1.299 . S
C399 N402 1.379 . S
N400 Zn384 2.036 . S
N400 C398 1.298 . S
N400 N401 1.398 . S
N401 C399 1.299 . S
N401 N400 1.398 . S
N402 C398 1.367 . S
N402 C399 1.379 . S
H403 C406 0.980 . S
H404 C406 0.981 . S
H405 C406 0.981 . S
C406 C398 1.481 . S
C406 H403 0.980 . S
C406 H404 0.981 . S
C406 H405 0.981 . S
C407 C394 1.481 . S
C407 H408 0.980 . S
C407 H409 0.981 . S
C407 H410 0.981 . S
H408 C407 0.980 . S
H409 C407 0.981 . S
H410 C407 0.981 . S
O411 Zn387 2.066 . S
O411 C390 1.256 . S
O412 Zn384 2.053 . S
O412 C390 1.244 . S
C413 O391 1.259 . S
C413 O392 1.254 . S
O414 Zn384 2.066 . S
O414 C386 1.256 . S
O415 C386 1.244 . S
O415 Zn387 2.053 . S
Zn416 O417 2.055 . S
Zn416 O424 2.046 . S
Zn416 N432 2.036 . S
Zn416 O444 2.053 . S
Zn416 O446 2.066 . S
O417 Zn416 2.055 . S
O417 C420 1.259 . S
C418 O446 1.256 . S
C418 O447 1.244 . S
Zn419 O421 2.046 . S
Zn419 O423 2.055 . S
Zn419 N425 2.036 . S
Zn419 O443 2.066 . S
Zn419 O447 2.053 1_545 S
C420 O417 1.259 . S
C420 O421 1.254 1_565 S
O421 Zn419 2.046 . S
O421 C420 1.254 1_545 S
C422 O443 1.256 1_565 S
C422 O444 1.244 . S
O423 Zn419 2.055 . S
O423 C445 1.259 . S
O424 Zn416 2.046 . S
O424 C445 1.254 1_565 S
N425 Zn419 2.036 . S
N425 C426 1.298 . S
N425 N428 1.398 . S
C426 N425 1.298 . S
C426 N429 1.367 . S
C426 C439 1.481 . S
C427 N428 1.299 . S
C427 N429 1.379 . S
N428 N425 1.398 . S
N428 C427 1.299 . S
N429 C426 1.367 . S
N429 C427 1.379 . S
C430 N432 1.298 . S
C430 N434 1.367 . S
C430 C438 1.481 . S
C431 N433 1.299 . S
C431 N434 1.379 . S
N432 Zn416 2.036 . S
N432 C430 1.298 . S
N432 N433 1.398 . S
N433 C431 1.299 . S
N433 N432 1.398 . S
N434 C430 1.367 . S
N434 C431 1.379 . S
H435 C438 0.980 . S
H436 C438 0.981 . S
H437 C438 0.981 . S
C438 C430 1.481 . S
C438 H435 0.980 . S
C438 H436 0.981 . S
C438 H437 0.981 . S
C439 C426 1.481 . S
C439 H440 0.980 . S
C439 H441 0.981 . S
C439 H442 0.981 . S
H440 C439 0.980 . S
H441 C439 0.981 . S
H442 C439 0.981 . S
O443 Zn419 2.066 . S
O443 C422 1.256 1_545 S
O444 Zn416 2.053 . S
O444 C422 1.244 . S
C445 O423 1.259 . S
C445 O424 1.254 1_545 S
O446 Zn416 2.066 . S
O446 C418 1.256 . S
O447 C418 1.244 . S
O447 Zn419 2.053 1_565 S
Zn448 O449 2.055 . S
Zn448 O456 2.046 . S
Zn448 N464 2.036 . S
Zn448 O476 2.053 . S
Zn448 O478 2.066 . S
O449 Zn448 2.055 . S
O449 C452 1.259 . S
C450 O478 1.256 . S
C450 O479 1.244 . S
Zn451 O453 2.046 . S
Zn451 O455 2.055 . S
Zn451 N457 2.036 . S
Zn451 O475 2.066 . S
Zn451 O479 2.053 . S
C452 O449 1.259 . S
C452 O453 1.254 . S
O453 Zn451 2.046 . S
O453 C452 1.254 . S
C454 O475 1.256 . S
C454 O476 1.244 . S
O455 Zn451 2.055 . S
O455 C477 1.259 . S
O456 Zn448 2.046 . S
O456 C477 1.254 . S
N457 Zn451 2.036 . S
N457 C458 1.298 . S
N457 N460 1.398 . S
C458 N457 1.298 . S
C458 N461 1.367 . S
C458 C471 1.481 . S
C459 N460 1.299 . S
C459 N461 1.379 . S
N460 N457 1.398 . S
N460 C459 1.299 . S
N461 C458 1.367 . S
N461 C459 1.379 . S
C462 N464 1.298 . S
C462 N466 1.367 . S
C462 C470 1.481 . S
C463 N465 1.299 . S
C463 N466 1.379 . S
N464 Zn448 2.036 . S
N464 C462 1.298 . S
N464 N465 1.398 . S
N465 C463 1.299 . S
N465 N464 1.398 . S
N466 C462 1.367 . S
N466 C463 1.379 . S
H467 C470 0.980 . S
H468 C470 0.981 . S
H469 C470 0.981 . S
C470 C462 1.481 . S
C470 H467 0.980 . S
C470 H468 0.981 . S
C470 H469 0.981 . S
C471 C458 1.481 . S
C471 H472 0.980 . S
C471 H473 0.981 . S
C471 H474 0.981 . S
H472 C471 0.980 . S
H473 C471 0.981 . S
H474 C471 0.981 . S
O475 Zn451 2.066 . S
O475 C454 1.256 . S
O476 Zn448 2.053 . S
O476 C454 1.244 . S
C477 O455 1.259 . S
C477 O456 1.254 . S
O478 Zn448 2.066 . S
O478 C450 1.256 . S
O479 C450 1.244 . S
O479 Zn451 2.053 . S
Zn480 O481 2.055 . S
Zn480 O488 2.046 . S
Zn480 N496 2.036 . S
Zn480 O508 2.053 1_565 S
Zn480 O510 2.066 . S
O481 Zn480 2.055 . S
O481 C484 1.259 . S
C482 O510 1.256 1_545 S
C482 O511 1.244 . S
Zn483 O485 2.046 . S
Zn483 O487 2.055 . S
Zn483 N489 2.036 . S
Zn483 O507 2.066 . S
Zn483 O511 2.053 . S
C484 O481 1.259 . S
C484 O485 1.254 1_565 S
O485 Zn483 2.046 . S
O485 C484 1.254 1_545 S
C486 O507 1.256 . S
C486 O508 1.244 . S
O487 Zn483 2.055 . S
O487 C509 1.259 . S
O488 Zn480 2.046 . S
O488 C509 1.254 1_565 S
N489 Zn483 2.036 . S
N489 C490 1.298 . S
N489 N492 1.398 . S
C490 N489 1.298 . S
C490 N493 1.367 . S
C490 C503 1.481 . S
C491 N492 1.299 . S
C491 N493 1.379 . S
N492 N489 1.398 . S
N492 C491 1.299 . S
N493 C490 1.367 . S
N493 C491 1.379 . S
C494 N496 1.298 . S
C494 N498 1.367 . S
C494 C502 1.481 . S
C495 N497 1.299 . S
C495 N498 1.379 . S
N496 Zn480 2.036 . S
N496 C494 1.298 . S
N496 N497 1.398 . S
N497 C495 1.299 . S
N497 N496 1.398 . S
N498 C494 1.367 . S
N498 C495 1.379 . S
H499 C502 0.980 . S
H500 C502 0.981 . S
H501 C502 0.981 . S
C502 C494 1.481 . S
C502 H499 0.980 . S
C502 H500 0.981 . S
C502 H501 0.981 . S
C503 C490 1.481 . S
C503 H504 0.980 . S
C503 H505 0.981 . S
C503 H506 0.981 . S
H504 C503 0.980 . S
H505 C503 0.981 . S
H506 C503 0.981 . S
O507 Zn483 2.066 . S
O507 C486 1.256 . S
O508 Zn480 2.053 1_545 S
O508 C486 1.244 . S
C509 O487 1.259 . S
C509 O488 1.254 1_545 S
O510 Zn480 2.066 . S
O510 C482 1.256 1_565 S
O511 C482 1.244 . S
O511 Zn483 2.053 . S
C512 C513 1.363 . S
C512 C518 1.379 . S
C512 N520 1.356 . S
C513 C512 1.363 . S
C513 C519 1.363 . S
C514 C515 1.363 . S
C514 C519 1.379 . S
C514 N521 1.356 . S
C515 C514 1.363 . S
C515 C518 1.363 . S
N516 C518 1.356 . S
N516 H528 0.984 . S
N516 H529 0.985 . S
N517 C519 1.356 . S
N517 H522 0.984 . S
N517 H523 0.985 . S
C518 C512 1.379 . S
C518 C515 1.363 . S
C518 N516 1.356 . S
C519 C513 1.363 . S
C519 C514 1.379 . S
C519 N517 1.356 . S
N520 C512 1.356 . S
N520 H526 0.984 . S
N520 H527 0.984 . S
N521 C514 1.356 . S
N521 H524 0.984 . S
N521 H525 0.985 . S
H522 N517 0.984 . S
H523 N517 0.985 . S
H524 N521 0.984 . S
H525 N521 0.985 . S
H526 N520 0.984 . S
H527 N520 0.984 . S
H528 N516 0.984 . S
H529 N516 0.985 . S
C530 C531 1.363 . S
C530 C536 1.379 . S
C530 N538 1.356 . S
C531 C530 1.363 . S
C531 C537 1.363 . S
C532 C533 1.363 . S
C532 C537 1.379 . S
C532 N539 1.356 . S
C533 C532 1.363 . S
C533 C536 1.363 . S
N534 C536 1.356 . S
N534 H546 0.984 . S
N534 H547 0.985 . S
N535 C537 1.356 . S
N535 H540 0.984 . S
N535 H541 0.985 . S
C536 C530 1.379 . S
C536 C533 1.363 . S
C536 N534 1.356 . S
C537 C531 1.363 . S
C537 C532 1.379 . S
C537 N535 1.356 . S
N538 C530 1.356 . S
N538 H544 0.984 . S
N538 H545 0.984 . S
N539 C532 1.356 . S
N539 H542 0.984 . S
N539 H543 0.985 . S
H540 N535 0.984 . S
H541 N535 0.985 . S
H542 N539 0.984 . S
H543 N539 0.985 . S
H544 N538 0.984 . S
H545 N538 0.984 . S
H546 N534 0.984 . S
H547 N534 0.985 . S
C548 C549 1.363 . S
C548 C554 1.379 . S
C548 N556 1.356 . S
C549 C548 1.363 . S
C549 C555 1.363 . S
C550 C551 1.363 . S
C550 C555 1.379 . S
C550 N557 1.356 . S
C551 C550 1.363 . S
C551 C554 1.363 . S
N552 C554 1.356 . S
N552 H564 0.984 . S
N552 H565 0.985 . S
N553 C555 1.356 . S
N553 H558 0.984 . S
N553 H559 0.985 . S
C554 C548 1.379 . S
C554 C551 1.363 . S
C554 N552 1.356 . S
C555 C549 1.363 . S
C555 C550 1.379 . S
C555 N553 1.356 . S
N556 C548 1.356 . S
N556 H562 0.984 . S
N556 H563 0.984 . S
N557 C550 1.356 . S
N557 H560 0.984 . S
N557 H561 0.985 . S
H558 N553 0.984 . S
H559 N553 0.985 . S
H560 N557 0.984 . S
H561 N557 0.985 . S
H562 N556 0.984 . S
H563 N556 0.984 . S
H564 N552 0.984 . S
H565 N552 0.985 . S
C566 C567 1.363 1_554 S
C566 C572 1.379 1_655 S
C566 N574 1.356 . S
C567 C566 1.363 1_556 S
C567 C573 1.363 . S
C568 C569 1.363 1_556 S
C568 C573 1.379 1_455 S
C568 N575 1.356 . S
C569 C568 1.363 1_554 S
C569 C572 1.363 . S
N570 C572 1.356 . S
N570 H582 0.984 . S
N570 H583 0.985 . S
N571 C573 1.356 . S
N571 H576 0.984 . S
N571 H577 0.985 . S
C572 C566 1.379 1_455 S
C572 C569 1.363 . S
C572 N570 1.356 . S
C573 C567 1.363 . S
C573 C568 1.379 1_655 S
C573 N571 1.356 . S
N574 C566 1.356 . S
N574 H580 0.984 . S
N574 H581 0.984 . S
N575 C568 1.356 . S
N575 H578 0.984 . S
N575 H579 0.985 . S
H576 N571 0.984 . S
H577 N571 0.985 . S
H578 N575 0.984 . S
H579 N575 0.985 . S
H580 N574 0.984 . S
H581 N574 0.984 . S
H582 N570 0.984 . S
H583 N570 0.985 . S
C584 C585 1.363 . S
C584 C590 1.379 . S
C584 N592 1.356 . S
C585 C584 1.363 . S
C585 C591 1.363 . S
C586 C587 1.363 . S
C586 C591 1.379 . S
C586 N593 1.356 . S
C587 C586 1.363 . S
C587 C590 1.363 . S
N588 C590 1.356 . S
N588 H600 0.984 . S
N588 H601 0.985 . S
N589 C591 1.356 . S
N589 H594 0.984 . S
N589 H595 0.985 . S
C590 C584 1.379 . S
C590 C587 1.363 . S
C590 N588 1.356 . S
C591 C585 1.363 . S
C591 C586 1.379 . S
C591 N589 1.356 . S
N592 C584 1.356 . S
N592 H598 0.984 . S
N592 H599 0.984 . S
N593 C586 1.356 . S
N593 H596 0.984 . S
N593 H597 0.985 . S
H594 N589 0.984 . S
H595 N589 0.985 . S
H596 N593 0.984 . S
H597 N593 0.985 . S
H598 N592 0.984 . S
H599 N592 0.984 . S
H600 N588 0.984 . S
H601 N588 0.985 . S
C602 C603 1.363 . S
C602 C608 1.379 . S
C602 N610 1.356 . S
C603 C602 1.363 . S
C603 C609 1.363 . S
C604 C605 1.363 . S
C604 C609 1.379 . S
C604 N611 1.356 . S
C605 C604 1.363 . S
C605 C608 1.363 . S
N606 C608 1.356 . S
N606 H618 0.984 . S
N606 H619 0.985 . S
N607 C609 1.356 . S
N607 H612 0.984 . S
N607 H613 0.985 . S
C608 C602 1.379 . S
C608 C605 1.363 . S
C608 N606 1.356 . S
C609 C603 1.363 . S
C609 C604 1.379 . S
C609 N607 1.356 . S
N610 C602 1.356 . S
N610 H616 0.984 . S
N610 H617 0.984 . S
N611 C604 1.356 . S
N611 H614 0.984 . S
N611 H615 0.985 . S
H612 N607 0.984 . S
H613 N607 0.985 . S
H614 N611 0.984 . S
H615 N611 0.985 . S
H616 N610 0.984 . S
H617 N610 0.984 . S
H618 N606 0.984 . S
H619 N606 0.985 . S
C620 C621 1.363 . S
C620 C626 1.379 1_655 S
C620 N628 1.356 . S
C621 C620 1.363 . S
C621 C627 1.363 1_564 S
C622 C623 1.363 . S
C622 C627 1.379 1_455 S
C622 N629 1.356 . S
C623 C622 1.363 . S
C623 C626 1.363 1_546 S
N624 C626 1.356 . S
N624 H636 0.984 . S
N624 H637 0.985 1_554 S
N625 C627 1.356 . S
N625 H630 0.984 1_556 S
N625 H631 0.985 . S
C626 C620 1.379 1_455 S
C626 C623 1.363 1_564 S
C626 N624 1.356 . S
C627 C621 1.363 1_546 S
C627 C622 1.379 1_655 S
C627 N625 1.356 . S
N628 C620 1.356 . S
N628 H634 0.984 1_655 S
N628 H635 0.984 . S
N629 C622 1.356 . S
N629 H632 0.984 . S
N629 H633 0.985 1_455 S
H630 N625 0.984 1_554 S
H631 N625 0.985 . S
H632 N629 0.984 . S
H633 N629 0.985 1_655 S
H634 N628 0.984 1_455 S
H635 N628 0.984 . S
H636 N624 0.984 . S
H637 N624 0.985 1_556 S
C638 C639 1.363 1_545 S
C638 C644 1.379 . S
C638 N646 1.356 . S
C639 C638 1.363 1_565 S
C639 C645 1.363 . S
C640 C641 1.363 1_565 S
C640 C645 1.379 . S
C640 N647 1.356 . S
C641 C640 1.363 1_545 S
C641 C644 1.363 . S
N642 C644 1.356 . S
N642 H654 0.984 . S
N642 H655 0.985 . S
N643 C645 1.356 . S
N643 H648 0.984 . S
N643 H649 0.985 . S
C644 C638 1.379 . S
C644 C641 1.363 . S
C644 N642 1.356 . S
C645 C639 1.363 . S
C645 C640 1.379 . S
C645 N643 1.356 . S
N646 C638 1.356 . S
N646 H652 0.984 . S
N646 H653 0.984 . S
N647 C640 1.356 . S
N647 H650 0.984 . S
N647 H651 0.985 . S
H648 N643 0.984 . S
H649 N643 0.985 . S
H650 N647 0.984 . S
H651 N647 0.985 . S
H652 N646 0.984 . S
H653 N646 0.984 . S
H654 N642 0.984 . S
H655 N642 0.985 . S
C656 C657 1.363 . S
C656 C662 1.379 . S
C656 N664 1.356 . S
C657 C656 1.363 . S
C657 C663 1.361 1_556 S
C658 C659 1.363 . S
C658 C663 1.380 . S
C658 N665 1.356 . S
C659 C658 1.363 . S
C659 C662 1.363 1_554 S
N660 C662 1.356 1_554 S
N660 H672 0.982 1_554 S
N660 H673 0.988 . S
N661 C663 1.356 1_556 S
N661 H666 0.984 . S
N661 H667 0.985 1_556 S
C662 C656 1.379 . S
C662 C659 1.363 1_556 S
C662 N660 1.356 1_556 S
C663 C657 1.361 1_554 S
C663 C658 1.380 . S
C663 N661 1.356 1_554 S
N664 C656 1.356 . S
N664 H670 0.984 . S
N664 H671 0.984 . S
N665 C658 1.356 . S
N665 H668 0.984 . S
N665 H669 0.985 . S
H666 N661 0.984 . S
H667 N661 0.985 1_554 S
H668 N665 0.984 . S
H669 N665 0.985 . S
H670 N664 0.984 . S
H671 N664 0.984 . S
H672 N660 0.982 1_556 S
H673 N660 0.988 . S
C674 C675 1.363 . S
C674 C680 1.379 . S
C674 N682 1.356 . S
C675 C674 1.363 . S
C675 C681 1.363 . S
C676 C677 1.363 . S
C676 C681 1.379 . S
C676 N683 1.356 . S
C677 C676 1.363 . S
C677 C680 1.363 . S
N678 C680 1.356 . S
N678 H690 0.984 . S
N678 H691 0.985 . S
N679 C681 1.356 . S
N679 H684 0.984 . S
N679 H685 0.985 . S
C680 C674 1.379 . S
C680 C677 1.363 . S
C680 N678 1.356 . S
C681 C675 1.363 . S
C681 C676 1.379 . S
C681 N679 1.356 . S
N682 C674 1.356 . S
N682 H688 0.984 . S
N682 H689 0.984 . S
N683 C676 1.356 . S
N683 H686 0.984 . S
N683 H687 0.985 . S
H684 N679 0.984 . S
H685 N679 0.985 . S
H686 N683 0.984 . S
H687 N683 0.985 . S
H688 N682 0.984 . S
H689 N682 0.984 . S
H690 N678 0.984 . S
H691 N678 0.985 . S
C692 C693 1.363 . S
C692 C698 1.379 . S
C692 N700 1.356 . S
C693 C692 1.363 . S
C693 C699 1.363 . S
C694 C695 1.363 . S
C694 C699 1.379 . S
C694 N701 1.356 . S
C695 C694 1.363 . S
C695 C698 1.363 . S
N696 C698 1.356 . S
N696 H708 0.984 . S
N696 H709 0.985 . S
N697 C699 1.356 . S
N697 H702 0.984 . S
N697 H703 0.985 . S
C698 C692 1.379 . S
C698 C695 1.363 . S
C698 N696 1.356 . S
C699 C693 1.363 . S
C699 C694 1.379 . S
C699 N697 1.356 . S
N700 C692 1.356 . S
N700 H706 0.984 . S
N700 H707 0.984 . S
N701 C694 1.356 . S
N701 H704 0.984 . S
N701 H705 0.985 . S
H702 N697 0.984 . S
H703 N697 0.985 . S
H704 N701 0.984 . S
H705 N701 0.985 . S
H706 N700 0.984 . S
H707 N700 0.984 . S
H708 N696 0.984 . S
H709 N696 0.985 . S
C710 C711 1.363 . S
C710 C716 1.379 . S
C710 N718 1.356 . S
C711 C710 1.363 . S
C711 C717 1.363 . S
C712 C713 1.363 . S
C712 C717 1.379 . S
C712 N719 1.356 . S
C713 C712 1.363 . S
C713 C716 1.363 . S
N714 C716 1.356 . S
N714 H726 0.984 . S
N714 H727 0.985 . S
N715 C717 1.356 . S
N715 H720 0.984 . S
N715 H721 0.985 . S
C716 C710 1.379 . S
C716 C713 1.363 . S
C716 N714 1.356 . S
C717 C711 1.363 . S
C717 C712 1.379 . S
C717 N715 1.356 . S
N718 C710 1.356 . S
N718 H724 0.984 . S
N718 H725 0.984 . S
N719 C712 1.356 . S
N719 H722 0.984 . S
N719 H723 0.985 . S
H720 N715 0.984 . S
H721 N715 0.985 . S
H722 N719 0.984 . S
H723 N719 0.985 . S
H724 N718 0.984 . S
H725 N718 0.984 . S
H726 N714 0.984 . S
H727 N714 0.985 . S
C728 C729 1.363 . S
C728 C734 1.379 . S
C728 N736 1.356 . S
C729 C728 1.363 . S
C729 C735 1.339 1_554 S
C730 C731 1.363 . S
C730 C735 1.399 . S
C730 N737 1.356 . S
C731 C730 1.363 . S
C731 C734 1.363 1_556 S
N732 C734 1.356 . S
N732 H744 0.984 . S
N732 H745 0.985 1_554 S
N733 C735 1.352 1_554 S
N733 H738 0.984 . S
N733 H739 0.985 1_554 S
C734 C728 1.379 . S
C734 C731 1.363 1_554 S
C734 N732 1.356 . S
C735 C729 1.339 1_556 S
C735 C730 1.399 . S
C735 N733 1.352 1_556 S
N736 C728 1.356 . S
N736 H742 0.984 . S
N736 H743 0.984 . S
N737 C730 1.356 . S
N737 H740 0.984 . S
N737 H741 0.985 . S
H738 N733 0.984 . S
H739 N733 0.985 1_556 S
H740 N737 0.984 . S
H741 N737 0.985 . S
H742 N736 0.984 . S
H743 N736 0.984 . S
H744 N732 0.984 . S
H745 N732 0.985 1_556 S
C746 C747 1.363 . S
C746 C752 1.379 . S
C746 N754 1.356 . S
C747 C746 1.363 . S
C747 C753 1.363 . S
C748 C749 1.363 . S
C748 C753 1.379 . S
C748 N755 1.356 . S
C749 C748 1.363 . S
C749 C752 1.363 . S
N750 C752 1.356 . S
N750 H762 0.984 . S
N750 H763 0.985 . S
N751 C753 1.356 . S
N751 H756 0.984 . S
N751 H757 0.985 . S
C752 C746 1.379 . S
C752 C749 1.363 . S
C752 N750 1.356 . S
C753 C747 1.363 . S
C753 C748 1.379 . S
C753 N751 1.356 . S
N754 C746 1.356 . S
N754 H760 0.984 . S
N754 H761 0.984 . S
N755 C748 1.356 . S
N755 H758 0.984 . S
N755 H759 0.985 . S
H756 N751 0.984 . S
H757 N751 0.985 . S
H758 N755 0.984 . S
H759 N755 0.985 . S
H760 N754 0.984 . S
H761 N754 0.984 . S
H762 N750 0.984 . S
H763 N750 0.985 . S
C764 C765 1.363 . S
C764 C770 1.379 . S
C764 N772 1.356 . S
C765 C764 1.363 . S
C765 C771 1.363 . S
C766 C767 1.363 . S
C766 C771 1.379 . S
C766 N773 1.356 . S
C767 C766 1.363 . S
C767 C770 1.363 . S
N768 C770 1.356 . S
N768 H780 0.984 1_545 S
N768 H781 0.985 . S
N769 C771 1.356 . S
N769 H774 0.984 . S
N769 H775 0.985 . S
C770 C764 1.379 . S
C770 C767 1.363 . S
C770 N768 1.356 . S
C771 C765 1.363 . S
C771 C766 1.379 . S
C771 N769 1.356 . S
N772 C764 1.356 . S
N772 H778 0.984 . S
N772 H779 0.984 . S
N773 C766 1.356 . S
N773 H776 0.984 . S
N773 H777 0.985 . S
H774 N769 0.984 . S
H775 N769 0.985 . S
H776 N773 0.984 . S
H777 N773 0.985 . S
H778 N772 0.984 . S
H779 N772 0.984 . S
H780 N768 0.984 1_565 S
H781 N768 0.985 . S
C782 C783 1.363 . S
C782 C788 1.379 . S
C782 N790 1.356 . S
C783 C782 1.363 . S
C783 C789 1.363 . S
C784 C785 1.363 . S
C784 C789 1.379 . S
C784 N791 1.356 . S
C785 C784 1.363 . S
C785 C788 1.363 . S
N786 C788 1.356 . S
N786 H798 0.984 . S
N786 H799 0.985 . S
N787 C789 1.356 . S
N787 H792 0.984 . S
N787 H793 0.985 . S
C788 C782 1.379 . S
C788 C785 1.363 . S
C788 N786 1.356 . S
C789 C783 1.363 . S
C789 C784 1.379 . S
C789 N787 1.356 . S
N790 C782 1.356 . S
N790 H796 0.984 . S
N790 H797 0.984 . S
N791 C784 1.356 . S
N791 H794 0.984 . S
N791 H795 0.985 . S
H792 N787 0.984 . S
H793 N787 0.985 . S
H794 N791 0.984 . S
H795 N791 0.985 . S
H796 N790 0.984 . S
H797 N790 0.984 . S
H798 N786 0.984 . S
H799 N786 0.985 . S
C800 C801 1.363 . S
C800 C806 1.379 . S
C800 N808 1.356 . S
C801 C800 1.363 . S
C801 C807 1.363 . S
C802 C803 1.363 . S
C802 C807 1.379 . S
C802 N809 1.356 . S
C803 C802 1.363 . S
C803 C806 1.363 . S
N804 C806 1.356 . S
N804 H816 0.984 . S
N804 H817 0.985 . S
N805 C807 1.356 . S
N805 H810 0.984 . S
N805 H811 0.985 . S
C806 C800 1.379 . S
C806 C803 1.363 . S
C806 N804 1.356 . S
C807 C801 1.363 . S
C807 C802 1.379 . S
C807 N805 1.356 . S
N808 C800 1.356 . S
N808 H814 0.984 . S
N808 H815 0.984 . S
N809 C802 1.356 . S
N809 H812 0.984 . S
N809 H813 0.985 . S
H810 N805 0.984 . S
H811 N805 0.985 . S
H812 N809 0.984 . S
H813 N809 0.985 . S
H814 N808 0.984 . S
H815 N808 0.984 . S
H816 N804 0.984 . S
H817 N804 0.985 . S
C818 C819 1.363 . S
C818 C824 1.379 . S
C818 N826 1.356 . S
C819 C818 1.363 . S
C819 C825 1.363 . S
C820 C821 1.363 . S
C820 C825 1.379 . S
C820 N827 1.356 . S
C821 C820 1.363 . S
C821 C824 1.363 . S
N822 C824 1.356 . S
N822 H834 0.984 . S
N822 H835 0.985 . S
N823 C825 1.356 1_545 S
N823 H828 0.984 . S
N823 H829 0.985 . S
C824 C818 1.379 . S
C824 C821 1.363 . S
C824 N822 1.356 . S
C825 C819 1.363 . S
C825 C820 1.379 . S
C825 N823 1.356 1_565 S
N826 C818 1.356 . S
N826 H832 0.984 . S
N826 H833 0.984 . S
N827 C820 1.356 . S
N827 H830 0.984 . S
N827 H831 0.985 . S
H828 N823 0.984 . S
H829 N823 0.985 . S
H830 N827 0.984 . S
H831 N827 0.985 . S
H832 N826 0.984 . S
H833 N826 0.984 . S
H834 N822 0.984 . S
H835 N822 0.985 . S
C836 C837 1.363 . S
C836 C842 1.379 1_554 S
C836 N844 1.356 . S
C837 C836 1.363 . S
C837 C843 1.363 . S
C838 C839 1.363 . S
C838 C843 1.379 1_556 S
C838 N845 1.356 . S
C839 C838 1.363 . S
C839 C842 1.363 . S
N840 C842 1.356 . S
N840 H852 0.984 . S
N840 H853 0.985 . S
N841 C843 1.356 . S
N841 H846 0.984 . S
N841 H847 0.985 . S
C842 C836 1.379 1_556 S
C842 C839 1.363 . S
C842 N840 1.356 . S
C843 C837 1.363 . S
C843 C838 1.379 1_554 S
C843 N841 1.356 . S
N844 C836 1.356 . S
N844 H850 0.984 . S
N844 H851 0.984 . S
N845 C838 1.356 . S
N845 H848 0.984 . S
N845 H849 0.985 . S
H846 N841 0.984 . S
H847 N841 0.985 . S
H848 N845 0.984 . S
H849 N845 0.985 . S
H850 N844 0.984 . S
H851 N844 0.984 . S
H852 N840 0.984 . S
H853 N840 0.985 . S
C854 C855 1.363 . S
C854 C860 1.379 . S
C854 N862 1.356 . S
C855 C854 1.363 . S
C855 C861 1.363 . S
C856 C857 1.363 . S
C856 C861 1.378 . S
C856 N863 1.357 1_545 S
C857 C856 1.363 . S
C857 C860 1.363 . S
N858 C860 1.356 . S
N858 H870 0.984 . S
N858 H871 0.985 . S
N859 C861 1.356 . S
N859 H864 0.984 . S
N859 H865 0.985 1_545 S
C860 C854 1.379 . S
C860 C857 1.363 . S
C860 N858 1.356 . S
C861 C855 1.363 . S
C861 C856 1.378 . S
C861 N859 1.356 . S
N862 C854 1.356 . S
N862 H868 0.984 . S
N862 H869 0.984 . S
N863 C856 1.357 1_565 S
N863 H866 0.984 . S
N863 H867 0.985 . S
H864 N859 0.984 . S
H865 N859 0.985 1_565 S
H866 N863 0.984 . S
H867 N863 0.985 . S
H868 N862 0.984 . S
H869 N862 0.984 . S
H870 N858 0.984 . S
H871 N858 0.985 . S
C872 C873 1.363 . S
C872 C878 1.379 . S
C872 N880 1.356 . S
C873 C872 1.363 . S
C873 C879 1.363 . S
C874 C875 1.363 . S
C874 C879 1.379 . S
C874 N881 1.356 . S
C875 C874 1.363 . S
C875 C878 1.363 . S
N876 C878 1.356 . S
N876 H888 0.984 . S
N876 H889 0.985 . S
N877 C879 1.356 . S
N877 H882 0.984 . S
N877 H883 0.985 . S
C878 C872 1.379 . S
C878 C875 1.363 . S
C878 N876 1.356 . S
C879 C873 1.363 . S
C879 C874 1.379 . S
C879 N877 1.356 . S
N880 C872 1.356 . S
N880 H886 0.984 . S
N880 H887 0.984 . S
N881 C874 1.356 . S
N881 H884 0.984 . S
N881 H885 0.985 . S
H882 N877 0.984 . S
H883 N877 0.985 . S
H884 N881 0.984 . S
H885 N881 0.985 . S
H886 N880 0.984 . S
H887 N880 0.984 . S
H888 N876 0.984 . S
H889 N876 0.985 . S
C890 C891 1.363 . S
C890 C896 1.379 . S
C890 N898 1.356 1_545 S
C891 C890 1.363 . S
C891 C897 1.363 . S
C892 C893 1.363 . S
C892 C897 1.379 . S
C892 N899 1.356 . S
C893 C892 1.363 . S
C893 C896 1.363 . S
N894 C896 1.356 . S
N894 H906 0.983 1_545 S
N894 H907 0.985 . S
N895 C897 1.356 . S
N895 H900 0.984 . S
N895 H901 0.985 . S
C896 C890 1.379 . S
C896 C893 1.363 . S
C896 N894 1.356 . S
C897 C891 1.363 . S
C897 C892 1.379 . S
C897 N895 1.356 . S
N898 C890 1.356 1_565 S
N898 H904 0.984 . S
N898 H905 0.984 . S
N899 C892 1.356 . S
N899 H902 0.984 . S
N899 H903 0.985 . S
H900 N895 0.984 . S
H901 N895 0.985 . S
H902 N899 0.984 . S
H903 N899 0.985 . S
H904 N898 0.984 . S
H905 N898 0.984 . S
H906 N894 0.983 1_565 S
H907 N894 0.985 . S
C908 C909 1.363 . S
C908 C914 1.379 . S
C908 N916 1.356 . S
C909 C908 1.363 . S
C909 C915 1.363 . S
C910 C911 1.363 . S
C910 C915 1.379 1_556 S
C910 N917 1.356 . S
C911 C910 1.363 . S
C911 C914 1.363 1_556 S
N912 C914 1.356 1_556 S
N912 H924 0.984 1_556 S
N912 H925 0.985 . S
N913 C915 1.356 . S
N913 H918 0.984 . S
N913 H919 0.985 1_554 S
C914 C908 1.379 . S
C914 C911 1.363 1_554 S
C914 N912 1.356 1_554 S
C915 C909 1.363 . S
C915 C910 1.379 1_554 S
C915 N913 1.356 . S
N916 C908 1.356 . S
N916 H922 0.984 . S
N916 H923 0.984 . S
N917 C910 1.356 . S
N917 H920 0.984 . S
N917 H921 0.985 . S
H918 N913 0.984 . S
H919 N913 0.985 1_556 S
H920 N917 0.984 . S
H921 N917 0.985 . S
H922 N916 0.984 . S
H923 N916 0.984 . S
H924 N912 0.984 1_554 S
H925 N912 0.985 . S
C926 C927 1.363 1_545 S
C926 C932 1.379 1_545 S
C926 N934 1.356 . S
C927 C926 1.363 1_565 S
C927 C933 1.363 . S
C928 C929 1.363 . S
C928 C933 1.379 . S
C928 N935 1.356 . S
C929 C928 1.363 . S
C929 C932 1.363 . S
N930 C932 1.356 . S
N930 H942 0.984 1_565 S
N930 H943 0.985 . S
N931 C933 1.356 . S
N931 H936 0.984 . S
N931 H937 0.985 . S
C932 C926 1.379 1_565 S
C932 C929 1.363 . S
C932 N930 1.356 . S
C933 C927 1.363 . S
C933 C928 1.379 . S
C933 N931 1.356 . S
N934 C926 1.356 . S
N934 H940 0.984 . S
N934 H941 0.984 . S
N935 C928 1.356 . S
N935 H938 0.984 . S
N935 H939 0.985 . S
H936 N931 0.984 . S
H937 N931 0.985 . S
H938 N935 0.984 . S
H939 N935 0.985 . S
H940 N934 0.984 . S
H941 N934 0.984 . S
H942 N930 0.984 1_545 S
H943 N930 0.985 . S
C944 C945 1.363 . S
C944 C950 1.379 . S
C944 N952 1.356 . S
C945 C944 1.363 . S
C945 C951 1.363 . S
C946 C947 1.363 . S
C946 C951 1.379 . S
C946 N953 1.356 . S
C947 C946 1.363 . S
C947 C950 1.363 . S
N948 C950 1.356 . S
N948 H960 0.984 . S
N948 H961 0.985 . S
N949 C951 1.356 . S
N949 H954 0.984 . S
N949 H955 0.985 . S
C950 C944 1.379 . S
C950 C947 1.363 . S
C950 N948 1.356 . S
C951 C945 1.363 . S
C951 C946 1.379 . S
C951 N949 1.356 . S
N952 C944 1.356 . S
N952 H958 0.984 . S
N952 H959 0.984 . S
N953 C946 1.356 . S
N953 H956 0.984 . S
N953 H957 0.985 . S
H954 N949 0.984 . S
H955 N949 0.985 . S
H956 N953 0.984 . S
H957 N953 0.985 . S
H958 N952 0.984 . S
H959 N952 0.984 . S
H960 N948 0.984 . S
H961 N948 0.985 . S
C962 C963 1.363 . S
C962 C968 1.379 . S
C962 N970 1.356 . S
C963 C962 1.363 . S
C963 C969 1.363 . S
C964 C965 1.363 . S
C964 C969 1.379 . S
C964 N971 1.356 . S
C965 C964 1.363 . S
C965 C968 1.363 . S
N966 C968 1.356 . S
N966 H978 0.984 . S
N966 H979 0.985 . S
N967 C969 1.356 . S
N967 H972 0.984 . S
N967 H973 0.985 . S
C968 C962 1.379 . S
C968 C965 1.363 . S
C968 N966 1.356 . S
C969 C963 1.363 . S
C969 C964 1.379 . S
C969 N967 1.356 . S
N970 C962 1.356 . S
N970 H976 0.984 . S
N970 H977 0.984 . S
N971 C964 1.356 . S
N971 H974 0.984 . S
N971 H975 0.985 . S
H972 N967 0.984 . S
H973 N967 0.985 . S
H974 N971 0.984 . S
H975 N971 0.985 . S
H976 N970 0.984 . S
H977 N970 0.984 . S
H978 N966 0.984 . S
H979 N966 0.985 . S
C980 C981 1.363 . S
C980 C986 1.379 1_655 S
C980 N988 1.356 . S
C981 C980 1.363 . S
C981 C987 1.363 . S
C982 C983 1.363 . S
C982 C987 1.379 1_455 S
C982 N989 1.356 . S
C983 C982 1.363 . S
C983 C986 1.363 . S
N984 C986 1.356 . S
N984 H996 0.995 . S
N984 H997 0.985 . S
N985 C987 1.356 . S
N985 H990 0.984 . S
N985 H991 0.995 . S
C986 C980 1.379 1_455 S
C986 C983 1.363 . S
C986 N984 1.356 . S
C987 C981 1.363 . S
C987 C982 1.379 1_655 S
C987 N985 1.356 . S
N988 C980 1.356 . S
N988 H994 0.984 . S
N988 H995 0.984 . S
N989 C982 1.356 . S
N989 H992 0.984 . S
N989 H993 0.985 . S
H990 N985 0.984 . S
H991 N985 0.995 . S
H992 N989 0.984 . S
H993 N989 0.985 . S
H994 N988 0.984 . S
H995 N988 0.984 . S
H996 N984 0.995 . S
H997 N984 0.985 . S
C998 C999 1.363 . S
C998 C1004 1.379 . S
C998 N1006 1.356 . S
C999 C998 1.363 . S
C999 C1005 1.363 1_655 S
C1000 C1001 1.363 . S
C1000 C1005 1.379 . S
C1000 N1007 1.356 . S
C1001 C1000 1.363 . S
C1001 C1004 1.363 1_455 S
N1002 C1004 1.356 1_455 S
N1002 H1014 0.984 1_455 S
N1002 H1015 0.985 . S
N1003 C1005 1.356 1_655 S
N1003 H1008 0.984 . S
N1003 H1009 0.985 1_655 S
C1004 C998 1.379 . S
C1004 C1001 1.363 1_655 S
C1004 N1002 1.356 1_655 S
C1005 C999 1.363 1_455 S
C1005 C1000 1.379 . S
C1005 N1003 1.356 1_455 S
N1006 C998 1.356 . S
N1006 H1012 0.984 . S
N1006 H1013 0.984 . S
N1007 C1000 1.356 . S
N1007 H1010 0.984 . S
N1007 H1011 0.985 . S
H1008 N1003 0.984 . S
H1009 N1003 0.985 1_455 S
H1010 N1007 0.984 . S
H1011 N1007 0.985 . S
H1012 N1006 0.984 . S
H1013 N1006 0.984 . S
H1014 N1002 0.984 1_655 S
H1015 N1002 0.985 . S
C1016 C1017 1.363 . S
C1016 C1022 1.379 . S
C1016 N1024 1.356 . S
C1017 C1016 1.363 . S
C1017 C1023 1.363 . S
C1018 C1019 1.363 . S
C1018 C1023 1.379 . S
C1018 N1025 1.356 . S
C1019 C1018 1.363 . S
C1019 C1022 1.363 . S
N1020 C1022 1.356 . S
N1020 H1032 0.984 . S
N1020 H1033 0.985 . S
N1021 C1023 1.356 . S
N1021 H1026 0.984 . S
N1021 H1027 0.985 . S
C1022 C1016 1.379 . S
C1022 C1019 1.363 . S
C1022 N1020 1.356 . S
C1023 C1017 1.363 . S
C1023 C1018 1.379 . S
C1023 N1021 1.356 . S
N1024 C1016 1.356 . S
N1024 H1030 0.984 . S
N1024 H1031 0.984 . S
N1025 C1018 1.356 . S
N1025 H1028 0.984 . S
N1025 H1029 0.985 . S
H1026 N1021 0.984 . S
H1027 N1021 0.985 . S
H1028 N1025 0.984 . S
H1029 N1025 0.985 . S
H1030 N1024 0.984 . S
H1031 N1024 0.984 . S
H1032 N1020 0.984 . S
H1033 N1020 0.985 . S
C1034 C1035 1.363 . S
C1034 C1040 1.379 . S
C1034 N1042 1.356 . S
C1035 C1034 1.363 . S
C1035 C1041 1.363 . S
C1036 C1037 1.363 . S
C1036 C1041 1.379 . S
C1036 N1043 1.356 . S
C1037 C1036 1.363 . S
C1037 C1040 1.363 . S
N1038 C1040 1.356 . S
N1038 H1050 0.984 . S
N1038 H1051 0.985 . S
N1039 C1041 1.356 . S
N1039 H1044 0.984 . S
N1039 H1045 0.985 . S
C1040 C1034 1.379 . S
C1040 C1037 1.363 . S
C1040 N1038 1.356 . S
C1041 C1035 1.363 . S
C1041 C1036 1.379 . S
C1041 N1039 1.356 . S
N1042 C1034 1.356 . S
N1042 H1048 0.984 . S
N1042 H1049 0.984 . S
N1043 C1036 1.356 . S
N1043 H1046 0.984 . S
N1043 H1047 0.985 . S
H1044 N1039 0.984 . S
H1045 N1039 0.985 . S
H1046 N1043 0.984 . S
H1047 N1043 0.985 . S
H1048 N1042 0.984 . S
H1049 N1042 0.984 . S
H1050 N1038 0.984 . S
H1051 N1038 0.985 . S
C1052 C1053 1.363 . S
C1052 C1058 1.379 1_455 S
C1052 N1060 1.356 . S
C1053 C1052 1.363 . S
C1053 C1059 1.363 . S
C1054 C1055 1.363 . S
C1054 C1059 1.379 1_655 S
C1054 N1061 1.356 . S
C1055 C1054 1.363 . S
C1055 C1058 1.363 . S
N1056 C1058 1.356 . S
N1056 H1068 0.995 . S
N1056 H1069 0.985 . S
N1057 C1059 1.356 . S
N1057 H1062 0.984 . S
N1057 H1063 0.995 . S
C1058 C1052 1.379 1_655 S
C1058 C1055 1.363 . S
C1058 N1056 1.356 . S
C1059 C1053 1.363 . S
C1059 C1054 1.379 1_455 S
C1059 N1057 1.356 . S
N1060 C1052 1.356 . S
N1060 H1066 0.984 . S
N1060 H1067 0.984 . S
N1061 C1054 1.356 . S
N1061 H1064 0.984 . S
N1061 H1065 0.985 . S
H1062 N1057 0.984 . S
H1063 N1057 0.995 . S
H1064 N1061 0.984 . S
H1065 N1061 0.985 . S
H1066 N1060 0.984 . S
H1067 N1060 0.984 . S
H1068 N1056 0.995 . S
H1069 N1056 0.985 . S
C1070 C1071 1.363 . S
C1070 C1076 1.379 . S
C1070 N1078 1.356 . S
C1071 C1070 1.363 . S
C1071 C1077 1.363 1_455 S
C1072 C1073 1.363 . S
C1072 C1077 1.379 . S
C1072 N1079 1.356 . S
C1073 C1072 1.363 . S
C1073 C1076 1.363 1_655 S
N1074 C1076 1.356 1_655 S
N1074 H1086 0.984 1_655 S
N1074 H1087 0.985 . S
N1075 C1077 1.356 1_455 S
N1075 H1080 0.984 . S
N1075 H1081 0.985 1_455 S
C1076 C1070 1.379 . S
C1076 C1073 1.363 1_455 S
C1076 N1074 1.356 1_455 S
C1077 C1071 1.363 1_655 S
C1077 C1072 1.379 . S
C1077 N1075 1.356 1_655 S
N1078 C1070 1.356 . S
N1078 H1084 0.984 . S
N1078 H1085 0.984 . S
N1079 C1072 1.356 . S
N1079 H1082 0.984 . S
N1079 H1083 0.985 . S
H1080 N1075 0.984 . S
H1081 N1075 0.985 1_655 S
H1082 N1079 0.984 . S
H1083 N1079 0.985 . S
H1084 N1078 0.984 . S
H1085 N1078 0.984 . S
H1086 N1074 0.984 1_455 S
H1087 N1074 0.985 . S
C1088 C1089 1.363 . S
C1088 C1094 1.379 . S
C1088 N1096 1.356 . S
C1089 C1088 1.363 . S
C1089 C1095 1.363 . S
C1090 C1091 1.363 . S
C1090 C1095 1.379 . S
C1090 N1097 1.356 . S
C1091 C1090 1.363 . S
C1091 C1094 1.363 . S
N1092 C1094 1.356 . S
N1092 H1104 0.984 . S
N1092 H1105 0.985 . S
N1093 C1095 1.356 . S
N1093 H1098 0.984 . S
N1093 H1099 0.985 . S
C1094 C1088 1.379 . S
C1094 C1091 1.363 . S
C1094 N1092 1.356 . S
C1095 C1089 1.363 . S
C1095 C1090 1.379 . S
C1095 N1093 1.356 . S
N1096 C1088 1.356 . S
N1096 H1102 0.984 . S
N1096 H1103 0.984 . S
N1097 C1090 1.356 . S
N1097 H1100 0.984 . S
N1097 H1101 0.985 . S
H1098 N1093 0.984 . S
H1099 N1093 0.985 . S
H1100 N1097 0.984 . S
H1101 N1097 0.985 . S
H1102 N1096 0.984 . S
H1103 N1096 0.984 . S
H1104 N1092 0.984 . S
H1105 N1092 0.985 . S
C1106 C1107 1.363 . S
C1106 C1112 1.379 . S
C1106 N1114 1.356 . S
C1107 C1106 1.363 . S
C1107 C1113 1.363 . S
C1108 C1109 1.363 . S
C1108 C1113 1.379 . S
C1108 N1115 1.356 . S
C1109 C1108 1.363 . S
C1109 C1112 1.363 . S
N1110 C1112 1.356 . S
N1110 H1122 0.984 . S
N1110 H1123 0.985 . S
N1111 C1113 1.356 . S
N1111 H1116 0.984 . S
N1111 H1117 0.985 . S
C1112 C1106 1.379 . S
C1112 C1109 1.363 . S
C1112 N1110 1.356 . S
C1113 C1107 1.363 . S
C1113 C1108 1.379 . S
C1113 N1111 1.356 . S
N1114 C1106 1.356 . S
N1114 H1120 0.984 . S
N1114 H1121 0.984 . S
N1115 C1108 1.356 . S
N1115 H1118 0.984 . S
N1115 H1119 0.985 . S
H1116 N1111 0.984 . S
H1117 N1111 0.985 . S
H1118 N1115 0.984 . S
H1119 N1115 0.985 . S
H1120 N1114 0.984 . S
H1121 N1114 0.984 . S
H1122 N1110 0.984 . S
H1123 N1110 0.985 . S
C1124 C1125 1.363 . S
C1124 C1130 1.379 . S
C1124 N1132 1.356 . S
C1125 C1124 1.363 . S
C1125 C1131 1.363 . S
C1126 C1127 1.363 . S
C1126 C1131 1.379 . S
C1126 N1133 1.356 . S
C1127 C1126 1.363 . S
C1127 C1130 1.363 . S
N1128 C1130 1.356 . S
N1128 H1140 0.984 . S
N1128 H1141 0.985 . S
N1129 C1131 1.356 . S
N1129 H1134 0.984 . S
N1129 H1135 0.985 . S
C1130 C1124 1.379 . S
C1130 C1127 1.363 . S
C1130 N1128 1.356 . S
C1131 C1125 1.363 . S
C1131 C1126 1.379 . S
C1131 N1129 1.356 . S
N1132 C1124 1.356 . S
N1132 H1138 0.984 . S
N1132 H1139 0.984 . S
N1133 C1126 1.356 . S
N1133 H1136 0.984 . S
N1133 H1137 0.985 . S
H1134 N1129 0.984 . S
H1135 N1129 0.985 . S
H1136 N1133 0.984 . S
H1137 N1133 0.985 . S
H1138 N1132 0.984 . S
H1139 N1132 0.984 . S
H1140 N1128 0.984 . S
H1141 N1128 0.985 . S
C1142 C1143 1.363 1_455 S
C1142 C1148 1.379 . S
C1142 N1150 1.356 1_455 S
C1143 C1142 1.363 1_655 S
C1143 C1149 1.363 1_655 S
C1144 C1145 1.363 . S
C1144 C1149 1.379 . S
C1144 N1151 1.356 . S
C1145 C1144 1.363 . S
C1145 C1148 1.363 . S
N1146 C1148 1.356 . S
N1146 H1158 0.984 . S
N1146 H1159 0.985 . S
N1147 C1149 1.356 1_655 S
N1147 H1152 0.984 . S
N1147 H1153 0.985 . S
C1148 C1142 1.379 . S
C1148 C1145 1.363 . S
C1148 N1146 1.356 . S
C1149 C1143 1.363 1_455 S
C1149 C1144 1.379 . S
C1149 N1147 1.356 1_455 S
N1150 C1142 1.356 1_655 S
N1150 H1156 0.984 1_655 S
N1150 H1157 0.984 . S
N1151 C1144 1.356 . S
N1151 H1154 0.984 . S
N1151 H1155 0.985 . S
H1152 N1147 0.984 . S
H1153 N1147 0.985 . S
H1154 N1151 0.984 . S
H1155 N1151 0.985 . S
H1156 N1150 0.984 1_455 S
H1157 N1150 0.984 . S
H1158 N1146 0.984 . S
H1159 N1146 0.985 . S
C1160 C1161 1.363 . S
C1160 C1166 1.379 . S
C1160 N1168 1.356 . S
C1161 C1160 1.363 . S
C1161 C1167 1.363 . S
C1162 C1163 1.363 . S
C1162 C1167 1.379 . S
C1162 N1169 1.356 . S
C1163 C1162 1.363 . S
C1163 C1166 1.363 . S
N1164 C1166 1.356 . S
N1164 H1176 0.984 . S
N1164 H1177 0.985 . S
N1165 C1167 1.356 . S
N1165 H1170 0.984 . S
N1165 H1171 0.985 . S
C1166 C1160 1.379 . S
C1166 C1163 1.363 . S
C1166 N1164 1.356 . S
C1167 C1161 1.363 . S
C1167 C1162 1.379 . S
C1167 N1165 1.356 . S
N1168 C1160 1.356 . S
N1168 H1174 0.984 . S
N1168 H1175 0.984 . S
N1169 C1162 1.356 . S
N1169 H1172 0.984 . S
N1169 H1173 0.985 . S
H1170 N1165 0.984 . S
H1171 N1165 0.985 . S
H1172 N1169 0.984 . S
H1173 N1169 0.985 . S
H1174 N1168 0.984 . S
H1175 N1168 0.984 . S
H1176 N1164 0.984 . S
H1177 N1164 0.985 . S
C1178 C1179 1.363 . S
C1178 C1184 1.379 . S
C1178 N1186 1.356 . S
C1179 C1178 1.363 . S
C1179 C1185 1.363 . S
C1180 C1181 1.363 . S
C1180 C1185 1.379 . S
C1180 N1187 1.356 . S
C1181 C1180 1.363 . S
C1181 C1184 1.363 . S
N1182 C1184 1.356 . S
N1182 H1194 0.984 . S
N1182 H1195 0.985 . S
N1183 C1185 1.356 . S
N1183 H1188 0.984 . S
N1183 H1189 0.985 . S
C1184 C1178 1.379 . S
C1184 C1181 1.363 . S
C1184 N1182 1.356 . S
C1185 C1179 1.363 . S
C1185 C1180 1.379 . S
C1185 N1183 1.356 . S
N1186 C1178 1.356 . S
N1186 H1192 0.984 . S
N1186 H1193 0.984 . S
N1187 C1180 1.356 . S
N1187 H1190 0.984 . S
N1187 H1191 0.985 . S
H1188 N1183 0.984 . S
H1189 N1183 0.985 . S
H1190 N1187 0.984 . S
H1191 N1187 0.985 . S
H1192 N1186 0.984 . S
H1193 N1186 0.984 . S
H1194 N1182 0.984 . S
H1195 N1182 0.985 . S
C1196 C1197 1.363 . S
C1196 C1202 1.379 . S
C1196 N1204 1.356 . S
C1197 C1196 1.363 . S
C1197 C1203 1.363 . S
C1198 C1199 1.363 . S
C1198 C1203 1.379 . S
C1198 N1205 1.356 . S
C1199 C1198 1.363 . S
C1199 C1202 1.363 . S
N1200 C1202 1.356 . S
N1200 H1212 0.984 . S
N1200 H1213 0.985 . S
N1201 C1203 1.356 . S
N1201 H1206 0.984 . S
N1201 H1207 0.985 . S
C1202 C1196 1.379 . S
C1202 C1199 1.363 . S
C1202 N1200 1.356 . S
C1203 C1197 1.363 . S
C1203 C1198 1.379 . S
C1203 N1201 1.356 . S
N1204 C1196 1.356 . S
N1204 H1210 0.984 . S
N1204 H1211 0.984 . S
N1205 C1198 1.356 . S
N1205 H1208 0.984 . S
N1205 H1209 0.985 . S
H1206 N1201 0.984 . S
H1207 N1201 0.985 . S
H1208 N1205 0.984 . S
H1209 N1205 0.985 . S
H1210 N1204 0.984 . S
H1211 N1204 0.984 . S
H1212 N1200 0.984 . S
H1213 N1200 0.985 . S
C1214 C1215 1.363 . S
C1214 C1220 1.379 . S
C1214 N1222 1.356 . S
C1215 C1214 1.363 . S
C1215 C1221 1.363 . S
C1216 C1217 1.363 1_655 S
C1216 C1221 1.379 . S
C1216 N1223 1.356 . S
C1217 C1216 1.363 1_455 S
C1217 C1220 1.363 1_455 S
N1218 C1220 1.356 1_455 S
N1218 H1230 0.984 . S
N1218 H1231 0.985 . S
N1219 C1221 1.356 . S
N1219 H1224 0.984 . S
N1219 H1225 0.985 . S
C1220 C1214 1.379 . S
C1220 C1217 1.363 1_655 S
C1220 N1218 1.356 1_655 S
C1221 C1215 1.363 . S
C1221 C1216 1.379 . S
C1221 N1219 1.356 . S
N1222 C1214 1.356 . S
N1222 H1228 0.984 . S
N1222 H1229 0.984 . S
N1223 C1216 1.356 . S
N1223 H1226 0.984 1_655 S
N1223 H1227 0.985 . S
H1224 N1219 0.984 . S
H1225 N1219 0.985 . S
H1226 N1223 0.984 1_455 S
H1227 N1223 0.985 . S
H1228 N1222 0.984 . S
H1229 N1222 0.984 . S
H1230 N1218 0.984 . S
H1231 N1218 0.985 . S
C1232 C1233 1.363 . S
C1232 C1238 1.379 . S
C1232 N1240 1.356 . S
C1233 C1232 1.363 . S
C1233 C1239 1.363 . S
C1234 C1235 1.363 . S
C1234 C1239 1.379 . S
C1234 N1241 1.356 . S
C1235 C1234 1.363 . S
C1235 C1238 1.363 . S
N1236 C1238 1.356 . S
N1236 H1248 0.984 . S
N1236 H1249 0.985 . S
N1237 C1239 1.356 . S
N1237 H1242 0.984 . S
N1237 H1243 0.985 . S
C1238 C1232 1.379 . S
C1238 C1235 1.363 . S
C1238 N1236 1.356 . S
C1239 C1233 1.363 . S
C1239 C1234 1.379 . S
C1239 N1237 1.356 . S
N1240 C1232 1.356 . S
N1240 H1246 0.984 . S
N1240 H1247 0.984 . S
N1241 C1234 1.356 . S
N1241 H1244 0.984 . S
N1241 H1245 0.985 . S
H1242 N1237 0.984 . S
H1243 N1237 0.985 . S
H1244 N1241 0.984 . S
H1245 N1241 0.985 . S
H1246 N1240 0.984 . S
H1247 N1240 0.984 . S
H1248 N1236 0.984 . S
H1249 N1236 0.985 . S
C1250 C1251 1.363 . S
C1250 C1256 1.379 . S
C1250 N1258 1.356 . S
C1251 C1250 1.363 . S
C1251 C1257 1.363 . S
C1252 C1253 1.363 1_655 S
C1252 C1257 1.379 . S
C1252 N1259 1.356 1_565 S
C1253 C1252 1.363 1_455 S
C1253 C1256 1.363 1_455 S
N1254 C1256 1.356 1_455 S
N1254 H1266 0.984 . S
N1254 H1267 0.985 . S
N1255 C1257 1.356 . S
N1255 H1260 0.984 . S
N1255 H1261 0.985 . S
C1256 C1250 1.379 . S
C1256 C1253 1.363 1_655 S
C1256 N1254 1.356 1_655 S
C1257 C1251 1.363 . S
C1257 C1252 1.379 . S
C1257 N1255 1.356 . S
N1258 C1250 1.356 . S
N1258 H1264 0.984 . S
N1258 H1265 0.984 . S
N1259 C1252 1.356 1_545 S
N1259 H1262 0.984 1_655 S
N1259 H1263 0.985 . S
H1260 N1255 0.984 . S
H1261 N1255 0.985 . S
H1262 N1259 0.984 1_455 S
H1263 N1259 0.985 . S
H1264 N1258 0.984 . S
H1265 N1258 0.984 . S
H1266 N1254 0.984 . S
H1267 N1254 0.985 . S
C1268 C1269 1.363 . S
C1268 C1274 1.379 . S
C1268 N1276 1.356 . S
C1269 C1268 1.363 . S
C1269 C1275 1.363 . S
C1270 C1271 1.363 . S
C1270 C1275 1.379 . S
C1270 N1277 1.356 . S
C1271 C1270 1.363 . S
C1271 C1274 1.363 . S
N1272 C1274 1.356 . S
N1272 H1284 0.984 . S
N1272 H1285 0.985 . S
N1273 C1275 1.356 . S
N1273 H1278 0.984 . S
N1273 H1279 0.985 . S
C1274 C1268 1.379 . S
C1274 C1271 1.363 . S
C1274 N1272 1.356 . S
C1275 C1269 1.363 . S
C1275 C1270 1.379 . S
C1275 N1273 1.356 . S
N1276 C1268 1.356 . S
N1276 H1282 0.984 . S
N1276 H1283 0.984 . S
N1277 C1270 1.356 . S
N1277 H1280 0.984 . S
N1277 H1281 0.985 . S
H1278 N1273 0.984 . S
H1279 N1273 0.985 . S
H1280 N1277 0.984 . S
H1281 N1277 0.985 . S
H1282 N1276 0.984 . S
H1283 N1276 0.984 . S
H1284 N1272 0.984 . S
H1285 N1272 0.985 . S
C1286 C1287 1.363 . S
C1286 C1292 1.379 . S
C1286 N1294 1.356 1_545 S
C1287 C1286 1.363 . S
C1287 C1293 1.363 . S
C1288 C1289 1.363 . S
C1288 C1293 1.379 . S
C1288 N1295 1.356 . S
C1289 C1288 1.363 . S
C1289 C1292 1.363 . S
N1290 C1292 1.356 . S
N1290 H1302 0.984 . S
N1290 H1303 0.985 . S
N1291 C1293 1.356 . S
N1291 H1296 0.984 . S
N1291 H1297 0.985 . S
C1292 C1286 1.379 . S
C1292 C1289 1.363 . S
C1292 N1290 1.356 . S
C1293 C1287 1.363 . S
C1293 C1288 1.379 . S
C1293 N1291 1.356 . S
N1294 C1286 1.356 1_565 S
N1294 H1300 0.984 . S
N1294 H1301 0.984 . S
N1295 C1288 1.356 . S
N1295 H1298 0.984 . S
N1295 H1299 0.985 . S
H1296 N1291 0.984 . S
H1297 N1291 0.985 . S
H1298 N1295 0.984 . S
H1299 N1295 0.985 . S
H1300 N1294 0.984 . S
H1301 N1294 0.984 . S
H1302 N1290 0.984 . S
H1303 N1290 0.985 . S
C1304 C1305 1.363 . S
C1304 C1310 1.379 . S
C1304 N1312 1.356 . S
C1305 C1304 1.363 . S
C1305 C1311 1.363 . S
C1306 C1307 1.363 . S
C1306 C1311 1.379 . S
C1306 N1313 1.356 . S
C1307 C1306 1.363 . S
C1307 C1310 1.363 . S
N1308 C1310 1.356 . S
N1308 H1320 0.984 . S
N1308 H1321 0.985 . S
N1309 C1311 1.356 . S
N1309 H1314 0.984 . S
N1309 H1315 0.985 . S
C1310 C1304 1.379 . S
C1310 C1307 1.363 . S
C1310 N1308 1.356 . S
C1311 C1305 1.363 . S
C1311 C1306 1.379 . S
C1311 N1309 1.356 . S
N1312 C1304 1.356 . S
N1312 H1318 0.984 . S
N1312 H1319 0.984 . S
N1313 C1306 1.356 . S
N1313 H1316 0.984 . S
N1313 H1317 0.985 . S
H1314 N1309 0.984 . S
H1315 N1309 0.985 . S
H1316 N1313 0.984 . S
H1317 N1313 0.985 . S
H1318 N1312 0.984 . S
H1319 N1312 0.984 . S
H1320 N1308 0.984 . S
H1321 N1308 0.985 . S
C1322 C1323 1.363 1_455 S
C1322 C1328 1.379 . S
C1322 N1330 1.356 1_455 S
C1323 C1322 1.363 1_655 S
C1323 C1329 1.363 1_655 S
C1324 C1325 1.363 . S
C1324 C1329 1.379 . S
C1324 N1331 1.356 . S
C1325 C1324 1.363 . S
C1325 C1328 1.363 . S
N1326 C1328 1.356 . S
N1326 H1338 0.984 . S
N1326 H1339 0.985 . S
N1327 C1329 1.356 1_565 S
N1327 H1332 0.984 1_455 S
N1327 H1333 0.985 . S
C1328 C1322 1.379 . S
C1328 C1325 1.363 . S
C1328 N1326 1.356 . S
C1329 C1323 1.363 1_455 S
C1329 C1324 1.379 . S
C1329 N1327 1.356 1_545 S
N1330 C1322 1.356 1_655 S
N1330 H1336 0.984 . S
N1330 H1337 0.984 . S
N1331 C1324 1.356 . S
N1331 H1334 0.984 . S
N1331 H1335 0.985 . S
H1332 N1327 0.984 1_655 S
H1333 N1327 0.985 . S
H1334 N1331 0.984 . S
H1335 N1331 0.985 . S
H1336 N1330 0.984 . S
H1337 N1330 0.984 . S
H1338 N1326 0.984 . S
H1339 N1326 0.985 . S
C1340 C1341 1.363 . S
C1340 C1346 1.379 . S
C1340 N1348 1.356 . S
C1341 C1340 1.363 . S
C1341 C1347 1.363 . S
C1342 C1343 1.363 . S
C1342 C1347 1.379 . S
C1342 N1349 1.356 . S
C1343 C1342 1.363 . S
C1343 C1346 1.363 . S
N1344 C1346 1.356 . S
N1344 H1356 0.984 . S
N1344 H1357 0.985 . S
N1345 C1347 1.356 . S
N1345 H1350 0.984 . S
N1345 H1351 0.985 . S
C1346 C1340 1.379 . S
C1346 C1343 1.363 . S
C1346 N1344 1.356 . S
C1347 C1341 1.363 . S
C1347 C1342 1.379 . S
C1347 N1345 1.356 . S
N1348 C1340 1.356 . S
N1348 H1354 0.984 . S
N1348 H1355 0.984 . S
N1349 C1342 1.356 . S
N1349 H1352 0.984 . S
N1349 H1353 0.985 . S
H1350 N1345 0.984 . S
H1351 N1345 0.985 . S
H1352 N1349 0.984 . S
H1353 N1349 0.985 . S
H1354 N1348 0.984 . S
H1355 N1348 0.984 . S
H1356 N1344 0.984 . S
H1357 N1344 0.985 . S
C1358 C1359 1.363 . S
C1358 C1364 1.379 . S
C1358 N1366 1.356 . S
C1359 C1358 1.363 . S
C1359 C1365 1.363 . S
C1360 C1361 1.363 . S
C1360 C1365 1.379 . S
C1360 N1367 1.356 . S
C1361 C1360 1.363 . S
C1361 C1364 1.363 . S
N1362 C1364 1.356 . S
N1362 H1374 0.984 . S
N1362 H1375 0.985 . S
N1363 C1365 1.356 . S
N1363 H1368 0.984 . S
N1363 H1369 0.985 . S
C1364 C1358 1.379 . S
C1364 C1361 1.363 . S
C1364 N1362 1.356 . S
C1365 C1359 1.363 . S
C1365 C1360 1.379 . S
C1365 N1363 1.356 . S
N1366 C1358 1.356 . S
N1366 H1372 0.984 . S
N1366 H1373 0.984 . S
N1367 C1360 1.356 . S
N1367 H1370 0.984 1_565 S
N1367 H1371 0.985 1_565 S
H1368 N1363 0.984 . S
H1369 N1363 0.985 . S
H1370 N1367 0.984 1_545 S
H1371 N1367 0.985 1_545 S
H1372 N1366 0.984 . S
H1373 N1366 0.984 . S
H1374 N1362 0.984 . S
H1375 N1362 0.985 . S
C513 C4 1.030 . S
C515 C413 1.030 . S
C531 C189 1.030 . S
C533 C36 1.030 . S
C549 C68 1.030 . S
C551 C452 1.030 . S
C567 C125 1.030 . S
C569 C253 1.030 . S
C585 C157 1.030 . S
C587 C260 1.030 . S
C603 C349 1.030 . S
C605 C196 1.030 . S
C621 C420 1.030 . S
C623 C292 1.030 . S
C639 C381 1.030 . S
C641 C509 1.030 . S
C657 C290 1.911 . S
C659 C6 1.859 . S
C675 C38 1.859 . S
C677 C326 1.911 . S
C693 C70 1.859 . S
C695 C358 1.911 . S
C711 C258 1.911 . S
C713 C98 1.859 . S
C729 C418 1.911 . S
C731 C130 1.859 . S
C747 C450 1.911 . S
C749 C162 1.859 . S
C765 C198 1.859 . S
C767 C486 1.911 . S
C783 C390 1.911 . S
C785 C226 1.859 . S
C801 C262 1.859 . S
C803 C34 1.911 . S
C819 C294 1.859 1_565 S
C821 C66 1.911 . S
C837 C322 1.859 . S
C839 C102 1.911 . S
C855 C2 1.911 . S
C857 C354 1.859 1_545 S
C873 C166 1.911 . S
C875 C386 1.859 . S
C891 C422 1.859 1_545 S
C893 C194 1.911 . S
C909 C230 1.911 . S
C911 C454 1.859 . S
C927 C482 1.859 1_565 S
C929 C134 1.911 . S
C945 N18 1.345 . S
C947 N333 1.345 . S
C963 N50 1.346 . S
C965 N365 1.346 . S
C981 N274 1.345 . S
C983 N82 1.345 . S
C999 N109 1.346 . S
C1001 N306 1.346 . S
C1017 N141 1.345 . S
C1019 N466 1.345 . S
C1035 N173 1.346 . S
C1037 N493 1.346 . S
C1053 N397 1.345 . S
C1055 N210 1.345 . S
C1071 N237 1.346 . S
C1073 N434 1.346 . S
C1089 C29 1.129 . S
C1091 N242 1.183 . S
C1107 N402 1.183 . S
C1109 C61 1.129 . S
C1125 C93 1.129 . S
C1127 N178 1.183 . S
C1143 C100 1.129 . S
C1145 N461 1.183 . S
C1161 C132 1.129 . S
C1163 N114 1.183 . S
C1179 N269 1.183 . S
C1181 C164 1.129 . S
C1197 C221 1.129 . S
C1199 N45 1.183 . S
C1215 N338 1.183 . S
C1217 C228 1.129 . S
C1233 C285 1.129 . S
C1235 N498 1.183 . S
C1251 N146 1.183 . S
C1253 C317 1.129 . S
C1269 N429 1.183 . S
C1271 C324 1.129 . S
C1287 C356 1.129 . S
C1289 N205 1.183 . S
C1305 C388 1.129 . S
C1307 N370 1.183 . S
C1323 C445 1.129 . S
C1325 N13 1.183 . S
C1341 N301 1.183 . S
C1343 C477 1.129 . S
C1359 N77 1.183 . S
C1361 C484 1.129 . S
