# Generated by pormake.
# Topology umg, (4)-cn, num edge types: 1
# Building blocks:
#     Node 0, Type 0, BuildingBlock: ICAMEG_clean_sbu_1, # of connection points: 4
#     Node 1, Type 0, BuildingBlock: ICAMEG_clean_sbu_1, # of connection points: 4
#     Node 2, Type 0, BuildingBlock: ICAMEG_clean_sbu_1, # of connection points: 4
#     Node 3, Type 0, BuildingBlock: ICAMEG_clean_sbu_1, # of connection points: 4
#     Node 4, Type 0, BuildingBlock: ICAMEG_clean_sbu_1, # of connection points: 4
#     Node 5, Type 0, BuildingBlock: ICAMEG_clean_sbu_1, # of connection points: 4
#     Node 6, Type 0, BuildingBlock: ICAMEG_clean_sbu_1, # of connection points: 4
#     Node 7, Type 0, BuildingBlock: ICAMEG_clean_sbu_1, # of connection points: 4
#     Node 8, Type 0, BuildingBlock: ICAMEG_clean_sbu_1, # of connection points: 4
#     Node 9, Type 0, BuildingBlock: ICAMEG_clean_sbu_1, # of connection points: 4
#     Node 10, Type 0, BuildingBlock: ICAMEG_clean_sbu_1, # of connection points: 4
#     Node 11, Type 0, BuildingBlock: ICAMEG_clean_sbu_1, # of connection points: 4
#     Edge 12, Type (0, 0), BuildingBlock: XUDNAN_clean_linker_2, # of connection points: 2
#     Edge 13, Type (0, 0), BuildingBlock: XUDNAN_clean_linker_2, # of connection points: 2
#     Edge 14, Type (0, 0), BuildingBlock: XUDNAN_clean_linker_2, # of connection points: 2
#     Edge 15, Type (0, 0), BuildingBlock: XUDNAN_clean_linker_2, # of connection points: 2
#     Edge 16, Type (0, 0), BuildingBlock: XUDNAN_clean_linker_2, # of connection points: 2
#     Edge 17, Type (0, 0), BuildingBlock: XUDNAN_clean_linker_2, # of connection points: 2
#     Edge 18, Type (0, 0), BuildingBlock: XUDNAN_clean_linker_2, # of connection points: 2
#     Edge 19, Type (0, 0), BuildingBlock: XUDNAN_clean_linker_2, # of connection points: 2
#     Edge 20, Type (0, 0), BuildingBlock: XUDNAN_clean_linker_2, # of connection points: 2
#     Edge 21, Type (0, 0), BuildingBlock: XUDNAN_clean_linker_2, # of connection points: 2
#     Edge 22, Type (0, 0), BuildingBlock: XUDNAN_clean_linker_2, # of connection points: 2
#     Edge 23, Type (0, 0), BuildingBlock: XUDNAN_clean_linker_2, # of connection points: 2
#     Edge 24, Type (0, 0), BuildingBlock: XUDNAN_clean_linker_2, # of connection points: 2
#     Edge 25, Type (0, 0), BuildingBlock: XUDNAN_clean_linker_2, # of connection points: 2
#     Edge 26, Type (0, 0), BuildingBlock: XUDNAN_clean_linker_2, # of connection points: 2
#     Edge 27, Type (0, 0), BuildingBlock: XUDNAN_clean_linker_2, # of connection points: 2
#     Edge 28, Type (0, 0), BuildingBlock: XUDNAN_clean_linker_2, # of connection points: 2
#     Edge 29, Type (0, 0), BuildingBlock: XUDNAN_clean_linker_2, # of connection points: 2
#     Edge 30, Type (0, 0), BuildingBlock: XUDNAN_clean_linker_2, # of connection points: 2
#     Edge 31, Type (0, 0), BuildingBlock: XUDNAN_clean_linker_2, # of connection points: 2
#     Edge 32, Type (0, 0), BuildingBlock: XUDNAN_clean_linker_2, # of connection points: 2
#     Edge 33, Type (0, 0), BuildingBlock: XUDNAN_clean_linker_2, # of connection points: 2
#     Edge 34, Type (0, 0), BuildingBlock: XUDNAN_clean_linker_2, # of connection points: 2
#     Edge 35, Type (0, 0), BuildingBlock: XUDNAN_clean_linker_2, # of connection points: 2
# Relax obj value: 0.059
# Max RMSD: 0.148
# Mean RMSD: 0.147
data_MOF--net-umg--node1-ICAMEG_clean_sbu_1--edge1-XUDNAN_clean_linker_2
_symmetry_space_group_name_H-M    P1
_symmetry_Int_Tables_number       1
_symmetry_cell_setting            triclinic
loop_
_symmetry_equiv_pos_as_xyz
'x, y, z'
_cell_length_a     30.384777
_cell_length_b     30.303171
_cell_length_c     91.155209
_cell_angle_alpha  89.971562
_cell_angle_beta   90.012438
_cell_angle_gamma 120.04391
loop_
_atom_site_label
_atom_site_type_symbol
_atom_site_fract_x
_atom_site_fract_y
_atom_site_fract_z
_atom_type_partial_charge
Co0 Co 0.28877 0.64794 0.08434 0.0
Co1 Co 0.25936 0.53007 0.09828 0.0
O2 O 0.29804 0.58843 0.08529 0.0
C3 C 0.27777 0.61232 0.05372 0.0
O4 O 0.2475 0.56589 0.05855 0.0
C5 C 0.36883 0.55963 0.10337 0.0
O6 O 0.38305 0.60792 0.1016 0.0
O7 O 0.27454 0.57608 0.11553 0.0
O8 O 0.28125 0.64756 0.106 0.0
H9 H 0.13269 0.43308 0.13798 0.0
H10 H 0.37826 0.65261 0.06969 0.0
O11 O 0.29653 0.64979 0.06257 0.0
H12 H 0.44903 0.78968 0.10668 0.0
H13 H 0.32775 0.82008 0.06556 0.0
H14 H 0.22016 0.67786 0.09878 0.0
H15 H 0.35629 0.73586 0.10358 0.0
H16 H 0.33881 0.74496 0.06728 0.0
O17 O 0.32197 0.52555 0.10255 0.0
H18 H 0.18083 0.50505 0.12103 0.0
H19 H 0.25705 0.43154 0.10353 0.0
H20 H 0.20796 0.75234 0.09746 0.0
H21 H 0.47124 0.70598 0.0723 0.0
H22 H 0.26204 0.82416 0.08076 0.0
H23 H 0.5072 0.77495 0.09096 0.0
O24 O 0.21353 0.60407 0.0823 0.0
H25 H 0.30396 0.47088 0.05205 0.0
H26 H 0.16653 0.43872 0.08673 0.0
H27 H 0.14721 0.38391 0.06491 0.0
H28 H 0.21626 0.39992 0.04738 0.0
H29 H 0.32139 0.52499 0.07394 0.0
H30 H 0.21001 0.35895 0.12036 0.0
H31 H 0.14718 0.35935 0.13771 0.0
O32 O 0.19512 0.53159 0.09413 0.0
C33 C 0.27889 0.62002 0.11687 0.0
C34 C 0.15983 0.43237 0.13044 0.0
C35 C 0.20329 0.39081 0.12056 0.0
N36 N 0.22141 0.47233 0.11123 0.0
C37 C 0.18708 0.47294 0.12078 0.0
C38 C 0.22991 0.43208 0.11109 0.0
C39 C 0.16803 0.39105 0.13029 0.0
C40 C 0.39358 0.68295 0.07771 0.0
N41 N 0.36182 0.69116 0.08644 0.0
C42 C 0.44629 0.71288 0.07919 0.0
C43 C 0.46644 0.7515 0.08968 0.0
C44 C 0.43382 0.75974 0.09852 0.0
C45 C 0.38132 0.72901 0.09674 0.0
C46 C 0.304 0.78906 0.07289 0.0
C47 C 0.24394 0.70904 0.09153 0.0
C48 C 0.31001 0.74638 0.07388 0.0
N49 N 0.28032 0.70719 0.08318 0.0
C50 C 0.23681 0.75108 0.09081 0.0
C51 C 0.26713 0.79133 0.08143 0.0
C52 C 0.18193 0.56038 0.08751 0.0
C53 C 0.27355 0.46353 0.05961 0.0
C54 C 0.19663 0.44612 0.07909 0.0
C55 C 0.18555 0.41481 0.0668 0.0
C56 C 0.22432 0.42377 0.05698 0.0
N57 N 0.24491 0.48526 0.08154 0.0
C58 C 0.28322 0.49395 0.07204 0.0
Co59 Co 0.6732 0.28154 0.41717 0.0
Co60 Co 0.73794 0.22328 0.4305 0.0
O61 O 0.72983 0.26863 0.4172 0.0
C62 C 0.67468 0.23984 0.38835 0.0
O63 O 0.67414 0.2029 0.39598 0.0
C64 C 0.82905 0.32406 0.43433 0.0
O65 O 0.79761 0.3418 0.43517 0.0
O66 O 0.72128 0.25283 0.44753 0.0
O67 O 0.67499 0.28726 0.43928 0.0
H68 H 0.68838 0.09878 0.47218 0.0
H69 H 0.7639 0.34377 0.39853 0.0
O70 O 0.67162 0.2753 0.39502 0.0
H71 H 0.75298 0.46584 0.43194 0.0
H72 H 0.57409 0.3597 0.3967 0.0
H73 H 0.58039 0.24837 0.43512 0.0
H74 H 0.68843 0.37441 0.43284 0.0
H75 H 0.6455 0.34277 0.39775 0.0
O76 O 0.81175 0.27632 0.43275 0.0
H77 H 0.67759 0.15563 0.455 0.0
H78 H 0.81893 0.19647 0.43483 0.0
H79 H 0.50851 0.26457 0.43457 0.0
H80 H 0.82909 0.43484 0.39723 0.0
H81 H 0.50507 0.3206 0.41524 0.0
H82 H 0.82406 0.49652 0.41408 0.0
O83 O 0.62261 0.20761 0.41898 0.0
H84 H 0.82603 0.23147 0.38308 0.0
H85 H 0.70403 0.11756 0.42024 0.0
H86 H 0.72224 0.08047 0.39862 0.0
H87 H 0.78376 0.13761 0.37986 0.0
H88 H 0.80625 0.26691 0.4048 0.0
H89 H 0.83153 0.14046 0.45188 0.0
H90 H 0.76582 0.09095 0.47068 0.0
O91 O 0.66428 0.17012 0.42841 0.0
C92 C 0.69579 0.27531 0.44959 0.0
C93 C 0.71719 0.12001 0.46401 0.0
C94 C 0.79758 0.14347 0.45263 0.0
N95 N 0.74736 0.17891 0.44385 0.0
C96 C 0.71121 0.15212 0.45422 0.0
C97 C 0.7903 0.17519 0.44303 0.0
C98 C 0.76068 0.11568 0.46317 0.0
C99 C 0.761 0.37045 0.40576 0.0
N100 N 0.7222 0.35381 0.41569 0.0
C101 C 0.7982 0.42195 0.40502 0.0
C102 C 0.7954 0.45653 0.41449 0.0
C103 C 0.75555 0.43933 0.42453 0.0
C104 C 0.71912 0.38752 0.42499 0.0
C105 C 0.57522 0.3353 0.40519 0.0
C106 C 0.57931 0.27307 0.42675 0.0
C107 C 0.61548 0.32551 0.40581 0.0
N108 N 0.61724 0.29497 0.41655 0.0
C109 C 0.53844 0.28197 0.42646 0.0
C110 C 0.53651 0.31337 0.4156 0.0
C111 C 0.62378 0.16871 0.42385 0.0
C112 C 0.79933 0.20618 0.39121 0.0
C113 C 0.73068 0.14264 0.41211 0.0
C114 C 0.74097 0.12143 0.39991 0.0
C115 C 0.77553 0.15351 0.3894 0.0
N116 N 0.75418 0.19433 0.41381 0.0
C117 C 0.78811 0.22603 0.40356 0.0
Co118 Co 0.37842 0.65779 0.75209 0.0
Co119 Co 0.49432 0.74356 0.76759 0.0
O120 O 0.43899 0.72568 0.75361 0.0
C121 C 0.41998 0.68023 0.7218 0.0
O122 O 0.46569 0.69711 0.72721 0.0
C123 C 0.46456 0.82316 0.77256 0.0
O124 O 0.41662 0.78896 0.77044 0.0
O125 O 0.44522 0.71227 0.78414 0.0
O126 O 0.37345 0.65109 0.77378 0.0
H127 H 0.58186 0.70906 0.80904 0.0
H128 H 0.3815 0.74491 0.73631 0.0
O129 O 0.38154 0.66302 0.73025 0.0
H130 H 0.23576 0.68292 0.77013 0.0
H131 H 0.2093 0.528 0.73093 0.0
H132 H 0.34231 0.55876 0.76713 0.0
H133 H 0.28691 0.64052 0.769 0.0
H134 H 0.28551 0.61316 0.73332 0.0
O135 O 0.4989 0.81079 0.77177 0.0
H136 H 0.51371 0.68742 0.79091 0.0
H137 H 0.59217 0.8386 0.77425 0.0
H138 H 0.26658 0.47311 0.76518 0.0
H139 H 0.33099 0.78809 0.73696 0.0
H140 H 0.1994 0.45731 0.74697 0.0
H141 H 0.25766 0.75724 0.75401 0.0
O142 O 0.42035 0.62395 0.7516 0.0
H143 H 0.564 0.85127 0.72231 0.0
H144 H 0.58624 0.74046 0.75756 0.0
H145 H 0.64533 0.77706 0.73666 0.0
H146 H 0.63434 0.8329 0.71885 0.0
H147 H 0.50555 0.81345 0.7433 0.0
H148 H 0.661 0.86198 0.79225 0.0
H149 H 0.65617 0.79691 0.80978 0.0
O150 O 0.49237 0.67752 0.76362 0.0
C151 C 0.39984 0.67482 0.78495 0.0
C152 C 0.5845 0.7377 0.80142 0.0
C153 C 0.62887 0.82355 0.79202 0.0
N154 N 0.54916 0.76158 0.78147 0.0
C155 C 0.54611 0.72562 0.79111 0.0
C156 C 0.58973 0.81012 0.78187 0.0
C157 C 0.62614 0.78702 0.80185 0.0
C158 C 0.34931 0.73091 0.74365 0.0
N159 N 0.33715 0.69016 0.75259 0.0
C160 C 0.32099 0.75566 0.74401 0.0
C161 C 0.27991 0.73839 0.7536 0.0
C162 C 0.26764 0.69674 0.76266 0.0
C163 C 0.29687 0.67298 0.76201 0.0
C164 C 0.23829 0.53443 0.73891 0.0
C165 C 0.31314 0.55223 0.75923 0.0
C166 C 0.28158 0.58252 0.74029 0.0
N167 N 0.31821 0.59096 0.7504 0.0
C168 C 0.27039 0.50363 0.75815 0.0
C169 C 0.23274 0.49478 0.74792 0.0
C170 C 0.46335 0.6354 0.75711 0.0
C171 C 0.56918 0.82699 0.72999 0.0
C172 C 0.58104 0.76442 0.74979 0.0
C173 C 0.61474 0.78524 0.73802 0.0
C174 C 0.6086 0.81661 0.72805 0.0
N175 N 0.5423 0.77452 0.75158 0.0
C176 C 0.53628 0.80557 0.74191 0.0
Co177 Co 0.70939 0.38615 0.08869 0.0
Co178 Co 0.75398 0.51372 0.0955 0.0
O179 O 0.70795 0.44905 0.08616 0.0
C180 C 0.7199 0.4067 0.05689 0.0
O181 O 0.75736 0.45214 0.0603 0.0
C182 C 0.65116 0.48667 0.10507 0.0
O183 O 0.6474 0.44284 0.10843 0.0
O184 O 0.74531 0.48014 0.11485 0.0
O185 O 0.72145 0.3981 0.11043 0.0
H186 H 0.89959 0.63327 0.12764 0.0
H187 H 0.62176 0.385 0.07387 0.0
O188 O 0.69663 0.37375 0.06693 0.0
H189 H 0.54894 0.27005 0.11637 0.0
H190 H 0.65026 0.20164 0.07835 0.0
H191 H 0.77332 0.3553 0.1054 0.0
H192 H 0.64089 0.31239 0.11122 0.0
H193 H 0.64862 0.28197 0.07603 0.0
O194 O 0.69301 0.5223 0.09982 0.0
H195 H 0.84224 0.55117 0.11561 0.0
H196 H 0.7607 0.6151 0.09557 0.0
H197 H 0.77604 0.2757 0.10815 0.0
H198 H 0.52959 0.3432 0.07857 0.0
H199 H 0.71418 0.19814 0.09455 0.0
H200 H 0.49264 0.28541 0.09999 0.0
O201 O 0.78391 0.42236 0.08535 0.0
H202 H 0.69403 0.54895 0.04786 0.0
H203 H 0.84381 0.5883 0.07816 0.0
H204 H 0.85594 0.62856 0.05384 0.0
H205 H 0.78069 0.60895 0.03852 0.0
H206 H 0.68366 0.5093 0.0722 0.0
H207 H 0.81683 0.69781 0.10749 0.0
H208 H 0.887 0.7073 0.12361 0.0
O209 O 0.81465 0.50481 0.09135 0.0
C210 C 0.7339 0.43558 0.11917 0.0
C211 C 0.86926 0.62967 0.1206 0.0
C212 C 0.82276 0.66587 0.10931 0.0
N213 N 0.79853 0.57858 0.1048 0.0
C214 C 0.83679 0.58334 0.11373 0.0
C215 C 0.79105 0.61895 0.10262 0.0
C216 C 0.86214 0.67117 0.11835 0.0
C217 C 0.6059 0.3594 0.0831 0.0
N218 N 0.63664 0.35084 0.09219 0.0
C219 C 0.5537 0.33604 0.08575 0.0
C220 C 0.53301 0.30369 0.09779 0.0
C221 C 0.56458 0.29507 0.10699 0.0
C222 C 0.61662 0.31917 0.10402 0.0
C223 C 0.67734 0.23514 0.08435 0.0
C224 C 0.74607 0.3216 0.09954 0.0
C225 C 0.67666 0.28073 0.08306 0.0
N226 N 0.71056 0.32308 0.09067 0.0
C227 C 0.74789 0.27669 0.10109 0.0
C228 C 0.71321 0.2332 0.09345 0.0
C229 C 0.82078 0.46766 0.08733 0.0
C230 C 0.72711 0.55797 0.05446 0.0
C231 C 0.81089 0.57957 0.07155 0.0
C232 C 0.81799 0.60254 0.0578 0.0
C233 C 0.77574 0.59155 0.04921 0.0
N234 N 0.76306 0.54673 0.07662 0.0
C235 C 0.72146 0.53579 0.06828 0.0
Co236 Co 0.34603 0.7097 0.41897 0.0
Co237 Co 0.24055 0.72255 0.42475 0.0
O238 O 0.27579 0.6916 0.41526 0.0
C239 C 0.33945 0.72744 0.38768 0.0
O240 O 0.31791 0.75348 0.39195 0.0
C241 C 0.17912 0.61291 0.43128 0.0
O242 O 0.22222 0.61519 0.43464 0.0
O243 O 0.2652 0.71567 0.44431 0.0
O244 O 0.33623 0.71126 0.44066 0.0
H245 H 0.22292 0.84159 0.45944 0.0
H246 H 0.27966 0.6195 0.40061 0.0
O247 O 0.35595 0.70837 0.3972 0.0
H248 H 0.3324 0.55274 0.44228 0.0
H249 H 0.50372 0.69891 0.40984 0.0
H250 H 0.428 0.78144 0.43887 0.0
H251 H 0.36318 0.64481 0.44012 0.0
H252 H 0.41438 0.67613 0.40596 0.0
O253 O 0.17894 0.653 0.42711 0.0
H254 H 0.26813 0.80345 0.44706 0.0
H255 H 0.13492 0.70459 0.42298 0.0
H256 H 0.5173 0.80514 0.44317 0.0
H257 H 0.24826 0.52722 0.4023 0.0
H258 H 0.55574 0.76374 0.42859 0.0
H259 H 0.27449 0.49327 0.42327 0.0
O260 O 0.36968 0.7838 0.418 0.0
H261 H 0.16456 0.66134 0.37478 0.0
H262 H 0.23796 0.8073 0.40885 0.0
H263 H 0.2108 0.81745 0.38418 0.0
H264 H 0.17382 0.74411 0.36695 0.0
H265 H 0.19276 0.65308 0.39948 0.0
H266 H 0.08811 0.74134 0.43519 0.0
H267 H 0.13224 0.81051 0.45352 0.0
O268 O 0.30162 0.79232 0.4227 0.0
C269 C 0.30339 0.71305 0.44902 0.0
C270 C 0.20334 0.81162 0.45143 0.0
C271 C 0.12765 0.7553 0.43783 0.0
N272 N 0.20431 0.75221 0.43422 0.0
C273 C 0.22878 0.79 0.44435 0.0
C274 C 0.15431 0.73458 0.43098 0.0
C275 C 0.15244 0.79412 0.44811 0.0
C276 C 0.29172 0.6051 0.40969 0.0
N277 N 0.3235 0.63755 0.4202 0.0
C278 C 0.27362 0.55278 0.41062 0.0
C279 C 0.28829 0.53374 0.4224 0.0
C280 C 0.32076 0.56709 0.43307 0.0
C281 C 0.33802 0.61917 0.4318 0.0
C282 C 0.48737 0.71714 0.41628 0.0
C283 C 0.44435 0.76301 0.43255 0.0
C284 C 0.43687 0.70446 0.41411 0.0
N285 N 0.41595 0.72717 0.42226 0.0
C286 C 0.49499 0.77671 0.435 0.0
C287 C 0.51654 0.75351 0.42681 0.0
C288 C 0.34903 0.81095 0.42017 0.0
C289 C 0.18048 0.69354 0.3822 0.0
C290 C 0.22196 0.77526 0.40141 0.0
C291 C 0.20655 0.78119 0.38746 0.0
C292 C 0.18575 0.74001 0.3778 0.0
N293 N 0.21674 0.72959 0.40562 0.0
C294 C 0.1963 0.68902 0.39622 0.0
Co295 Co 0.62973 0.32919 0.75452 0.0
Co296 Co 0.50881 0.25388 0.7685 0.0
O297 O 0.56502 0.26598 0.75554 0.0
C298 C 0.59281 0.31072 0.72366 0.0
O299 O 0.54742 0.29824 0.72857 0.0
C300 C 0.53744 0.17808 0.77678 0.0
O301 O 0.58342 0.21765 0.7777 0.0
O302 O 0.55487 0.2842 0.78583 0.0
O303 O 0.63187 0.33669 0.77629 0.0
H304 H 0.4176 0.29851 0.80645 0.0
H305 H 0.61795 0.23656 0.73992 0.0
O306 O 0.62954 0.32348 0.73259 0.0
H307 H 0.75607 0.28551 0.77588 0.0
H308 H 0.80637 0.44483 0.7352 0.0
H309 H 0.67288 0.42999 0.769 0.0
H310 H 0.71466 0.33722 0.77296 0.0
H311 H 0.72466 0.36424 0.73712 0.0
O312 O 0.50035 0.18475 0.7734 0.0
H313 H 0.48889 0.31506 0.79006 0.0
H314 H 0.40773 0.16274 0.7744 0.0
H315 H 0.75417 0.51116 0.76752 0.0
H316 H 0.65854 0.18391 0.74241 0.0
H317 H 0.82159 0.51894 0.75052 0.0
H318 H 0.72799 0.20821 0.76054 0.0
O319 O 0.59434 0.36889 0.75288 0.0
H320 H 0.43845 0.1418 0.72404 0.0
H321 H 0.42674 0.26796 0.75546 0.0
H322 H 0.37074 0.23327 0.73387 0.0
H323 H 0.37641 0.16971 0.71799 0.0
H324 H 0.49401 0.17777 0.74566 0.0
H325 H 0.33566 0.14435 0.79071 0.0
H326 H 0.3403 0.21261 0.80684 0.0
O327 O 0.51765 0.3231 0.76363 0.0
C328 C 0.60189 0.31739 0.7872 0.0
C329 C 0.41506 0.2685 0.79944 0.0
C330 C 0.3691 0.18195 0.79062 0.0
N331 N 0.45223 0.24001 0.78122 0.0
C332 C 0.45523 0.2777 0.79011 0.0
C333 C 0.41003 0.19254 0.78143 0.0
C334 C 0.37172 0.22028 0.79966 0.0
C335 C 0.64855 0.24768 0.74771 0.0
N336 N 0.66412 0.29006 0.75622 0.0
C337 C 0.67122 0.2176 0.74912 0.0
C338 C 0.71013 0.23121 0.75931 0.0
C339 C 0.72589 0.27457 0.76793 0.0
C340 C 0.70226 0.30367 0.76624 0.0
C341 C 0.77733 0.44188 0.74267 0.0
C342 C 0.70217 0.433 0.76164 0.0
C343 C 0.73096 0.39639 0.74378 0.0
N344 N 0.69422 0.39233 0.75324 0.0
C345 C 0.74806 0.47909 0.76082 0.0
C346 C 0.78585 0.48344 0.75127 0.0
C347 C 0.55211 0.36358 0.75732 0.0
C348 C 0.43553 0.16937 0.7309 0.0
C349 C 0.42948 0.24037 0.74859 0.0
C350 C 0.3976 0.22079 0.7364 0.0
C351 C 0.40078 0.1851 0.7275 0.0
N352 N 0.46346 0.22475 0.75185 0.0
C353 C 0.46674 0.18971 0.74319 0.0
Co354 Co 0.38393 0.72385 0.585 0.0
Co355 Co 0.50052 0.75685 0.56969 0.0
O356 O 0.44491 0.71763 0.58345 0.0
C357 C 0.42294 0.73913 0.61555 0.0
O358 O 0.46878 0.7705 0.61057 0.0
C359 C 0.4727 0.6482 0.56435 0.0
O360 O 0.42445 0.63401 0.56584 0.0
O361 O 0.45191 0.7386 0.553 0.0
O362 O 0.38068 0.72908 0.56336 0.0
H363 H 0.58798 0.88159 0.52874 0.0
H364 H 0.38618 0.63766 0.59972 0.0
O365 O 0.38534 0.71819 0.60679 0.0
H366 H 0.24374 0.55819 0.56465 0.0
H367 H 0.21275 0.67924 0.60558 0.0
H368 H 0.34841 0.78854 0.57083 0.0
H369 H 0.29427 0.6517 0.56703 0.0
H370 H 0.28953 0.67166 0.60309 0.0
O371 O 0.50671 0.69509 0.56546 0.0
H372 H 0.51935 0.833 0.54659 0.0
H373 H 0.59964 0.76252 0.56327 0.0
H374 H 0.27214 0.79718 0.5729 0.0
H375 H 0.33626 0.54397 0.59781 0.0
H376 H 0.20362 0.74225 0.59037 0.0
H377 H 0.26459 0.50364 0.58013 0.0
O378 O 0.42546 0.79958 0.58645 0.0
H379 H 0.57055 0.71954 0.61498 0.0
H380 H 0.59043 0.85303 0.58021 0.0
H381 H 0.64897 0.87613 0.60125 0.0
H382 H 0.63918 0.80909 0.61882 0.0
H383 H 0.51261 0.69826 0.59385 0.0
H384 H 0.66899 0.81009 0.54555 0.0
H385 H 0.66347 0.87026 0.52815 0.0
O386 O 0.49686 0.82005 0.57381 0.0
C387 C 0.40702 0.73183 0.55217 0.0
C388 C 0.59091 0.85563 0.5363 0.0
C389 C 0.63633 0.81543 0.54572 0.0
N390 N 0.55568 0.79528 0.55603 0.0
C391 C 0.55225 0.82814 0.54645 0.0
C392 C 0.5969 0.78852 0.55571 0.0
C393 C 0.63323 0.8492 0.53596 0.0
C394 C 0.35469 0.62041 0.59212 0.0
N395 N 0.34311 0.65017 0.58352 0.0
C396 C 0.32671 0.56732 0.59104 0.0
C397 C 0.28656 0.54472 0.5811 0.0
C398 C 0.27488 0.57531 0.5724 0.0
C399 C 0.30376 0.62827 0.57376 0.0
C400 C 0.24231 0.70335 0.59791 0.0
C401 C 0.31867 0.76437 0.57841 0.0
C402 C 0.28594 0.69932 0.59648 0.0
N403 N 0.3233 0.72947 0.58677 0.0
C404 C 0.27561 0.7695 0.57956 0.0
C405 C 0.23721 0.7387 0.58937 0.0
C406 C 0.46781 0.83204 0.58075 0.0
C407 C 0.57522 0.74909 0.6074 0.0
C408 C 0.5858 0.82373 0.58785 0.0
C409 C 0.61917 0.83699 0.59971 0.0
C410 C 0.61368 0.79935 0.60956 0.0
N411 N 0.54802 0.77441 0.58585 0.0
C412 C 0.54262 0.73724 0.59539 0.0
Co413 Co 0.6531 0.35966 0.92251 0.0
Co414 Co 0.73666 0.48558 0.91367 0.0
O415 O 0.71504 0.42452 0.9254 0.0
C416 C 0.64535 0.39249 0.95234 0.0
O417 O 0.65383 0.43508 0.94613 0.0
C418 C 0.81472 0.45752 0.91048 0.0
O419 O 0.77648 0.41194 0.90764 0.0
O420 O 0.71867 0.44582 0.89514 0.0
O421 O 0.66337 0.36354 0.90057 0.0
H422 H 0.72131 0.59222 0.87398 0.0
H423 H 0.72997 0.36654 0.94395 0.0
O424 O 0.64245 0.3562 0.9445 0.0
H425 H 0.71149 0.23707 0.9079 0.0
H426 H 0.52576 0.1791 0.93644 0.0
H427 H 0.56801 0.31797 0.9011 0.0
H428 H 0.66153 0.28051 0.90541 0.0
H429 H 0.60476 0.26193 0.93912 0.0
O430 O 0.80676 0.49441 0.91283 0.0
H431 H 0.69287 0.51475 0.88896 0.0
H432 H 0.83036 0.58768 0.91334 0.0
H433 H 0.48889 0.23568 0.89792 0.0
H434 H 0.77974 0.32322 0.94704 0.0
H435 H 0.4673 0.16552 0.91568 0.0
H436 H 0.77083 0.25811 0.9289 0.0
O437 O 0.61259 0.39397 0.92005 0.0
H438 H 0.81295 0.5363 0.96405 0.0
H439 H 0.71556 0.56465 0.92559 0.0
H440 H 0.73408 0.6121 0.94889 0.0
H441 H 0.78313 0.59804 0.96831 0.0
H442 H 0.79332 0.48947 0.94062 0.0
H443 H 0.86054 0.66582 0.89854 0.0
H444 H 0.80572 0.66846 0.87874 0.0
O445 O 0.66669 0.47634 0.91431 0.0
C446 C 0.68933 0.39945 0.89142 0.0
C447 C 0.74546 0.5916 0.88261 0.0
C448 C 0.82364 0.63289 0.89638 0.0
N449 N 0.75974 0.54692 0.90209 0.0
C450 C 0.72949 0.54791 0.89116 0.0
C451 C 0.80641 0.58853 0.90471 0.0
C452 C 0.79285 0.63435 0.88528 0.0
C453 C 0.72536 0.33779 0.93611 0.0
N454 N 0.6925 0.3257 0.92459 0.0
C455 C 0.75379 0.31351 0.93789 0.0
C456 C 0.74885 0.27706 0.92769 0.0
C457 C 0.71562 0.26529 0.91589 0.0
C458 C 0.68758 0.29014 0.91451 0.0
C459 C 0.53477 0.20935 0.92862 0.0
C460 C 0.55904 0.28755 0.90882 0.0
C461 C 0.57937 0.25636 0.9301 0.0
N462 N 0.5911 0.29462 0.92022 0.0
C463 C 0.51411 0.24107 0.90699 0.0
C464 C 0.502 0.20175 0.91697 0.0
C465 C 0.62206 0.43871 0.91658 0.0
C466 C 0.7917 0.54289 0.95565 0.0
C467 C 0.73693 0.55836 0.93399 0.0
C468 C 0.74735 0.58537 0.94715 0.0
C469 C 0.77489 0.57747 0.95804 0.0
N470 N 0.75362 0.52457 0.93172 0.0
C471 C 0.78065 0.51664 0.94234 0.0
Co472 Co 0.29739 0.66804 0.25057 0.0
Co473 Co 0.23887 0.73996 0.24621 0.0
O474 O 0.28905 0.72631 0.25507 0.0
C475 C 0.27754 0.66326 0.28215 0.0
O476 O 0.2386 0.66855 0.27858 0.0
C477 C 0.33815 0.83146 0.23988 0.0
O478 O 0.35375 0.79979 0.23607 0.0
O479 O 0.25641 0.72715 0.2263 0.0
O480 O 0.28968 0.67583 0.22907 0.0
H481 H 0.09397 0.70579 0.21267 0.0
H482 H 0.37387 0.7527 0.26895 0.0
O483 O 0.30503 0.65993 0.27214 0.0
H484 H 0.4682 0.74596 0.22581 0.0
H485 H 0.37714 0.55847 0.25724 0.0
H486 H 0.24832 0.57985 0.23027 0.0
H487 H 0.37667 0.68432 0.22856 0.0
H488 H 0.36546 0.63199 0.26226 0.0
O489 O 0.29248 0.81413 0.24427 0.0
H490 H 0.15727 0.68821 0.22407 0.0
H491 H 0.21532 0.82385 0.24928 0.0
H492 H 0.25906 0.5061 0.22479 0.0
H493 H 0.4654 0.81489 0.26667 0.0
H494 H 0.32384 0.49503 0.23834 0.0
H495 H 0.51313 0.81194 0.24494 0.0
O496 O 0.22285 0.61989 0.25195 0.0
H497 H 0.2788 0.81501 0.2969 0.0
H498 H 0.1419 0.70469 0.26262 0.0
H499 H 0.12004 0.71714 0.28776 0.0
H500 H 0.1888 0.77257 0.3051 0.0
H501 H 0.29895 0.80106 0.27172 0.0
H502 H 0.15301 0.84323 0.23804 0.0
H503 H 0.09161 0.78382 0.21965 0.0
O504 O 0.18476 0.66612 0.24784 0.0
C505 C 0.27443 0.70031 0.22113 0.0
C506 C 0.12041 0.73189 0.22071 0.0
C507 C 0.15359 0.80906 0.23494 0.0
N508 N 0.1896 0.75474 0.23741 0.0
C509 C 0.15622 0.72204 0.22723 0.0
C510 C 0.18885 0.79796 0.24123 0.0
C511 C 0.11914 0.7757 0.22462 0.0
C512 C 0.3945 0.75072 0.25956 0.0
N513 N 0.37 0.7147 0.24895 0.0
C514 C 0.44628 0.78621 0.25829 0.0
C515 C 0.47302 0.78458 0.24608 0.0
C516 C 0.44783 0.7476 0.23534 0.0
C517 C 0.39599 0.71282 0.23695 0.0
C518 C 0.34884 0.56292 0.25125 0.0
C519 C 0.27682 0.57548 0.23614 0.0
C520 C 0.34198 0.60438 0.25407 0.0
N521 N 0.3065 0.61035 0.24649 0.0
C522 C 0.28262 0.53355 0.23302 0.0
C523 C 0.31894 0.52734 0.24064 0.0
C524 C 0.18324 0.62371 0.25008 0.0
C525 C 0.24849 0.79088 0.28943 0.0
C526 C 0.172 0.72887 0.2701 0.0
C527 C 0.1594 0.73585 0.28431 0.0
C528 C 0.19799 0.76701 0.29403 0.0
N529 N 0.22164 0.7523 0.26569 0.0
C530 C 0.25966 0.78304 0.27514 0.0
Co531 Co 0.63362 0.3045 0.58516 0.0
Co532 Co 0.51351 0.25981 0.57071 0.0
O533 O 0.56931 0.30348 0.58388 0.0
C534 C 0.59517 0.28542 0.61587 0.0
O535 O 0.54987 0.2529 0.61078 0.0
C536 C 0.5441 0.36491 0.56246 0.0
O537 O 0.58981 0.3707 0.56182 0.0
O538 O 0.56022 0.2752 0.55358 0.0
O539 O 0.63676 0.29967 0.5634 0.0
H540 H 0.42281 0.12441 0.53251 0.0
H541 H 0.62195 0.38545 0.5997 0.0
O542 O 0.6324 0.30945 0.60709 0.0
H543 H 0.76236 0.47519 0.56442 0.0
H544 H 0.80893 0.36388 0.60521 0.0
H545 H 0.67653 0.24656 0.57084 0.0
H546 H 0.72005 0.38179 0.56716 0.0
H547 H 0.72782 0.3635 0.60296 0.0
O548 O 0.50634 0.32118 0.56566 0.0
H549 H 0.49353 0.17849 0.54918 0.0
H550 H 0.41339 0.25106 0.56432 0.0
H551 H 0.75722 0.24594 0.57265 0.0
H552 H 0.66342 0.47897 0.5974 0.0
H553 H 0.8241 0.30491 0.58994 0.0
H554 H 0.73402 0.52442 0.57961 0.0
O555 O 0.59749 0.22922 0.58664 0.0
H556 H 0.44217 0.30225 0.61475 0.0
H557 H 0.43 0.16375 0.5835 0.0
H558 H 0.37304 0.14272 0.60485 0.0
H559 H 0.37894 0.21226 0.62064 0.0
H560 H 0.49866 0.32156 0.59337 0.0
H561 H 0.34191 0.19803 0.54773 0.0
H562 H 0.34632 0.13404 0.53171 0.0
O563 O 0.52117 0.19882 0.57571 0.0
C564 C 0.60722 0.28896 0.55239 0.0
C565 C 0.42037 0.15204 0.53947 0.0
C566 C 0.37499 0.19341 0.548 0.0
N567 N 0.45734 0.21755 0.55778 0.0
C568 C 0.46021 0.18264 0.54896 0.0
C569 C 0.41559 0.22339 0.55734 0.0
C570 C 0.37748 0.1575 0.53902 0.0
C571 C 0.65303 0.40504 0.59206 0.0
N572 N 0.66873 0.37823 0.58363 0.0
C573 C 0.67621 0.45796 0.59075 0.0
C574 C 0.71577 0.48343 0.58075 0.0
C575 C 0.73167 0.45583 0.57222 0.0
C576 C 0.70753 0.40293 0.5738 0.0
C577 C 0.78013 0.33808 0.59762 0.0
C578 C 0.70559 0.27256 0.57832 0.0
C579 C 0.7341 0.33763 0.59632 0.0
N580 N 0.69767 0.30531 0.5867 0.0
C581 C 0.75114 0.27193 0.57933 0.0
C582 C 0.78862 0.30499 0.58904 0.0
C583 C 0.55519 0.19243 0.58212 0.0
C584 C 0.43914 0.27163 0.60793 0.0
C585 C 0.43284 0.19422 0.59033 0.0
C586 C 0.40042 0.18208 0.60239 0.0
C587 C 0.40372 0.22112 0.61124 0.0
N588 N 0.46747 0.24385 0.58716 0.0
C589 C 0.47088 0.28234 0.59577 0.0
Co590 Co 0.34973 0.63105 0.91793 0.0
Co591 Co 0.25067 0.51 0.91174 0.0
O592 O 0.28204 0.57414 0.92237 0.0
C593 C 0.35128 0.60843 0.9491 0.0
O594 O 0.33564 0.56144 0.94492 0.0
C595 C 0.16923 0.53743 0.91164 0.0
O596 O 0.20176 0.58378 0.90718 0.0
O597 O 0.26246 0.54706 0.89292 0.0
O598 O 0.33753 0.61903 0.89629 0.0
H599 H 0.23714 0.39225 0.871 0.0
H600 H 0.28023 0.6465 0.93741 0.0
O601 O 0.3618 0.64306 0.93955 0.0
H602 H 0.31773 0.76492 0.896 0.0
H603 H 0.49804 0.80767 0.92582 0.0
H604 H 0.4318 0.6494 0.89696 0.0
H605 H 0.35614 0.71003 0.89715 0.0
H606 H 0.41226 0.73491 0.93063 0.0
O607 O 0.1833 0.50488 0.91374 0.0
H608 H 0.27712 0.4727 0.88499 0.0
H609 H 0.15474 0.41029 0.91538 0.0
H610 H 0.51756 0.72133 0.89169 0.0
H611 H 0.24135 0.701 0.93676 0.0
H612 H 0.5512 0.80119 0.90619 0.0
H613 H 0.25994 0.76065 0.91592 0.0
O614 O 0.38013 0.58606 0.91828 0.0
H615 H 0.19565 0.47308 0.9644 0.0
H616 H 0.26929 0.4278 0.92287 0.0
H617 H 0.25789 0.38471 0.94668 0.0
H618 H 0.22081 0.4073 0.96767 0.0
H619 H 0.20877 0.51597 0.94052 0.0
H620 H 0.11324 0.3293 0.90166 0.0
H621 H 0.1546 0.31983 0.87933 0.0
O622 O 0.31674 0.51244 0.90958 0.0
C623 C 0.30105 0.58754 0.88812 0.0
C624 C 0.21881 0.39585 0.88074 0.0
C625 C 0.14924 0.36055 0.89794 0.0
N626 N 0.21847 0.44608 0.90105 0.0
C627 C 0.24132 0.44128 0.88872 0.0
C628 C 0.17287 0.40655 0.90564 0.0
C629 C 0.17248 0.35525 0.88541 0.0
C630 C 0.28889 0.67269 0.92838 0.0
N631 N 0.32066 0.67527 0.91738 0.0
C632 C 0.2666 0.70332 0.92804 0.0
C633 C 0.27699 0.73673 0.91633 0.0
C634 C 0.30939 0.73912 0.90515 0.0
C635 C 0.33094 0.70787 0.90585 0.0
C636 C 0.48376 0.77312 0.91941 0.0
C637 C 0.44606 0.68415 0.90324 0.0
C638 C 0.43529 0.73179 0.92211 0.0
N639 N 0.41695 0.68817 0.914 0.0
C640 C 0.4947 0.72469 0.90024 0.0
C641 C 0.51357 0.76946 0.90839 0.0
C642 C 0.36286 0.54104 0.91333 0.0
C643 C 0.21188 0.4629 0.95535 0.0
C644 C 0.25347 0.43807 0.93196 0.0
C645 C 0.2469 0.4134 0.94541 0.0
C646 C 0.22602 0.42603 0.95718 0.0
N647 N 0.23969 0.47436 0.93028 0.0
C648 C 0.21912 0.48685 0.94177 0.0
Co649 Co 0.72401 0.33828 0.2551 0.0
Co650 Co 0.73607 0.24505 0.23678 0.0
O651 O 0.70772 0.26808 0.2521 0.0
C652 C 0.74859 0.30608 0.28273 0.0
O653 O 0.77458 0.29185 0.27444 0.0
C654 C 0.62468 0.18397 0.2332 0.0
O655 O 0.62513 0.2275 0.23355 0.0
O656 O 0.72207 0.2836 0.22154 0.0
O657 O 0.72188 0.34862 0.23343 0.0
H658 H 0.84275 0.26518 0.19245 0.0
H659 H 0.63802 0.25434 0.27128 0.0
O660 O 0.72649 0.32812 0.2769 0.0
H661 H 0.56224 0.33696 0.24229 0.0
H662 H 0.71223 0.4773 0.2818 0.0
H663 H 0.79118 0.43726 0.24051 0.0
H664 H 0.65462 0.36944 0.24145 0.0
H665 H 0.69141 0.38869 0.27713 0.0
O666 O 0.66653 0.18376 0.23369 0.0
H667 H 0.8087 0.29479 0.21232 0.0
H668 H 0.72048 0.14327 0.22822 0.0
H669 H 0.81294 0.52632 0.24473 0.0
H670 H 0.54554 0.22081 0.2725 0.0
H671 H 0.77331 0.5468 0.2655 0.0
H672 H 0.50705 0.26209 0.25789 0.0
O673 O 0.79825 0.36375 0.25352 0.0
H674 H 0.69392 0.12904 0.28037 0.0
H675 H 0.82603 0.23475 0.24429 0.0
H676 H 0.84524 0.18945 0.26348 0.0
H677 H 0.77883 0.13602 0.28168 0.0
H678 H 0.67661 0.17554 0.26113 0.0
H679 H 0.75342 0.11195 0.20849 0.0
H680 H 0.81512 0.17314 0.19046 0.0
O681 O 0.80586 0.30587 0.2399 0.0
C682 C 0.72028 0.32481 0.22167 0.0
C683 C 0.81606 0.23817 0.20028 0.0
C684 C 0.76585 0.15216 0.20927 0.0
N685 N 0.76303 0.22086 0.22148 0.0
C686 C 0.79678 0.25474 0.21157 0.0
C687 C 0.74728 0.1701 0.2204 0.0
C688 C 0.80048 0.18652 0.19916 0.0
C689 C 0.62165 0.27289 0.26502 0.0
N690 N 0.65172 0.31401 0.25638 0.0
C691 C 0.56922 0.25358 0.2657 0.0
C692 C 0.54764 0.2767 0.25748 0.0
C693 C 0.57858 0.31869 0.24872 0.0
C694 C 0.63084 0.33689 0.24828 0.0
C695 C 0.72967 0.46884 0.2727 0.0
C696 C 0.77357 0.44584 0.24952 0.0
C697 C 0.71809 0.41878 0.27002 0.0
N698 N 0.73981 0.40783 0.2585 0.0
C699 C 0.78613 0.49636 0.25187 0.0
C700 C 0.76393 0.50782 0.26354 0.0
C701 C 0.8249 0.34849 0.24671 0.0
C702 C 0.72312 0.15207 0.27248 0.0
C703 C 0.79709 0.21185 0.25222 0.0
C704 C 0.80809 0.18611 0.26303 0.0
C705 C 0.7708 0.15609 0.27322 0.0
N706 N 0.75026 0.20777 0.25157 0.0
C707 C 0.71349 0.17837 0.26152 0.0
H708 H 0.31121 0.54023 0.97183 0.0
H709 H 0.38704 0.70204 0.9618 0.0
H710 H 0.37748 0.72032 0.98761 0.0
H711 H 0.21916 0.53831 0.99544 0.0
H712 H 0.21905 0.49315 0.00834 0.0
H713 H 0.23551 0.49158 0.98947 0.0
H714 H 0.32155 0.50094 0.99697 0.0
H715 H 0.30536 0.50095 0.01599 0.0
H716 H 0.36371 0.55271 0.00879 0.0
H717 H 0.35673 0.72092 0.01406 0.0
H718 H 0.32763 0.70419 0.03974 0.0
H719 H 0.26336 0.54166 0.03253 0.0
C720 C 0.32659 0.5796 0.97509 0.0
C721 C 0.35014 0.61978 0.96481 0.0
C722 C 0.36905 0.67069 0.9695 0.0
C723 C 0.36377 0.68145 0.98413 0.0
C724 C 0.33944 0.64089 0.9939 0.0
C725 C 0.32138 0.591 0.98963 0.0
C726 C 0.29508 0.55435 1.00221 0.0
C727 C 0.23886 0.51719 0.99865 0.0
C728 C 0.32312 0.52555 0.00623 0.0
C729 C 0.30057 0.59144 0.01417 0.0
C730 C 0.3266 0.64115 0.00915 0.0
C731 C 0.33645 0.68219 0.01814 0.0
C732 C 0.31966 0.67223 0.03271 0.0
C733 C 0.29303 0.62159 0.03813 0.0
C734 C 0.28323 0.58073 0.02868 0.0
H735 H 0.67087 0.30449 0.36729 0.0
H736 H 0.70295 0.18099 0.37323 0.0
H737 H 0.72615 0.18643 0.3473 0.0
H738 H 0.61467 0.26393 0.33082 0.0
H739 H 0.64085 0.32795 0.32389 0.0
H740 H 0.62679 0.3153 0.34315 0.0
H741 H 0.71972 0.3828 0.34947 0.0
H742 H 0.73413 0.39546 0.33023 0.0
H743 H 0.77118 0.37738 0.34155 0.0
H744 H 0.74982 0.20655 0.3214 0.0
H745 H 0.76561 0.23551 0.29579 0.0
H746 H 0.71389 0.34279 0.30513 0.0
C747 C 0.6825 0.27848 0.36308 0.0
C748 C 0.68522 0.24245 0.37239 0.0
C749 C 0.7005 0.20897 0.36643 0.0
C750 C 0.71394 0.21177 0.35167 0.0
C751 C 0.71134 0.24779 0.34285 0.0
C752 C 0.6954 0.28015 0.34818 0.0
C753 C 0.69522 0.31448 0.33603 0.0
C754 C 0.64116 0.30482 0.33332 0.0
C755 C 0.73228 0.37087 0.33954 0.0
C756 C 0.71392 0.29641 0.32315 0.0
C757 C 0.72337 0.25824 0.32747 0.0
C758 C 0.74221 0.23613 0.31782 0.0
C759 C 0.75123 0.25304 0.30328 0.0
C760 C 0.74084 0.29129 0.29841 0.0
C761 C 0.72193 0.31329 0.30852 0.0
H762 H 0.49213 0.72999 0.70015 0.0
H763 H 0.32947 0.63527 0.70739 0.0
H764 H 0.31391 0.64063 0.68122 0.0
H765 H 0.48388 0.8133 0.67373 0.0
H766 H 0.53508 0.81897 0.6624 0.0
H767 H 0.53458 0.80681 0.68177 0.0
H768 H 0.54063 0.7262 0.67621 0.0
H769 H 0.54133 0.73821 0.65682 0.0
H770 H 0.49424 0.67767 0.66431 0.0
H771 H 0.31455 0.6566 0.65481 0.0
H772 H 0.33143 0.68143 0.62891 0.0
H773 H 0.49373 0.76664 0.6379 0.0
C774 C 0.45333 0.71004 0.69618 0.0
C775 C 0.41204 0.68218 0.70586 0.0
C776 C 0.36176 0.65697 0.70025 0.0
C777 C 0.35244 0.65971 0.68537 0.0
C778 C 0.39373 0.68782 0.67618 0.0
C779 C 0.4432 0.71248 0.68127 0.0
C780 C 0.48032 0.74068 0.6689 0.0
C781 C 0.51022 0.79837 0.67188 0.0
C782 C 0.51625 0.71941 0.66642 0.0
C783 C 0.44377 0.72801 0.65615 0.0
C784 C 0.39409 0.69741 0.66068 0.0
C785 C 0.35327 0.68048 0.65107 0.0
C786 C 0.36336 0.69489 0.63636 0.0
C787 C 0.41394 0.72607 0.63132 0.0
C788 C 0.45467 0.74297 0.64141 0.0
H789 H 0.73035 0.35865 0.0326 0.0
H790 H 0.6579 0.44128 0.04858 0.0
H791 H 0.62385 0.43906 0.0238 0.0
H792 H 0.76936 0.42158 0.99863 0.0
H793 H 0.75788 0.36646 0.98811 0.0
H794 H 0.77232 0.36973 0.00736 0.0
H795 H 0.6891 0.28406 0.01164 0.0
H796 H 0.67445 0.28055 0.99236 0.0
H797 H 0.62932 0.27722 0.00579 0.0
H798 H 0.60592 0.43662 0.99722 0.0
H799 H 0.60287 0.43214 0.97019 0.0
H800 H 0.68346 0.34778 0.97085 0.0
C801 C 0.7063 0.37509 0.03085 0.0
C802 C 0.69605 0.3997 0.0424 0.0
C803 C 0.6656 0.42199 0.0398 0.0
C804 C 0.64609 0.4208 0.0258 0.0
C805 C 0.65723 0.39688 0.01453 0.0
C806 C 0.6863 0.37408 0.01686 0.0
C807 C 0.69496 0.35372 1.00257 0.0
C808 C 0.75201 0.37942 0.99896 0.0
C809 C 0.67049 0.29541 0.00313 0.0
C810 C 0.66727 0.36974 0.99185 0.0
C811 C 0.6457 0.39443 0.99904 0.0
C812 C 0.62172 0.41647 0.99148 0.0
C813 C 0.62023 0.41381 0.97614 0.0
C814 C 0.64208 0.38885 0.96849 0.0
C815 C 0.66517 0.36578 0.97647 0.0
H816 H 0.24454 0.69697 0.30508 0.0
H817 H 0.34529 0.63882 0.29433 0.0
H818 H 0.37282 0.64894 0.32029 0.0
H819 H 0.3288 0.79267 0.32988 0.0
H820 H 0.27929 0.78538 0.34225 0.0
H821 H 0.26552 0.77109 0.32307 0.0
H822 H 0.19312 0.68004 0.32936 0.0
H823 H 0.20594 0.69447 0.34857 0.0
H824 H 0.20639 0.63984 0.34095 0.0
H825 H 0.38854 0.66511 0.34767 0.0
H826 H 0.39264 0.68793 0.37393 0.0
H827 H 0.28464 0.73932 0.36591 0.0
C828 C 0.27201 0.68583 0.30818 0.0
C829 C 0.29247 0.66667 0.29772 0.0
C830 C 0.32896 0.65335 0.3022 0.0
C831 C 0.34483 0.659 0.3169 0.0
C832 C 0.32418 0.67847 0.3269 0.0
C833 C 0.28869 0.69184 0.3227 0.0
C834 C 0.27337 0.71332 0.3354 0.0
C835 C 0.28763 0.76892 0.33247 0.0
C836 C 0.21633 0.67989 0.33877 0.0
C837 C 0.30568 0.70987 0.34746 0.0
C838 C 0.33452 0.68939 0.34241 0.0
C839 C 0.36634 0.68144 0.35173 0.0
C840 C 0.36846 0.69453 0.3666 0.0
C841 C 0.33934 0.7158 0.37193 0.0
C842 C 0.30787 0.72373 0.36216 0.0
H843 H 0.52258 0.27094 0.70114 0.0
H844 H 0.68488 0.35177 0.71001 0.0
H845 H 0.70224 0.35404 0.68357 0.0
H846 H 0.52675 0.19298 0.67176 0.0
H847 H 0.47822 0.19541 0.661 0.0
H848 H 0.47798 0.20052 0.68069 0.0
H849 H 0.47877 0.28606 0.67822 0.0
H850 H 0.47909 0.28126 0.65853 0.0
H851 H 0.52815 0.3371 0.66763 0.0
H852 H 0.70286 0.34945 0.65639 0.0
H853 H 0.68666 0.33518 0.62989 0.0
H854 H 0.52395 0.25505 0.63811 0.0
C855 C 0.56175 0.2892 0.69751 0.0
C856 C 0.60237 0.3113 0.70769 0.0
C857 C 0.65308 0.33448 0.70248 0.0
C858 C 0.6634 0.33608 0.68746 0.0
C859 C 0.62265 0.31406 0.67773 0.0
C860 C 0.57282 0.2908 0.6825 0.0
C861 C 0.53623 0.26937 0.66964 0.0
C862 C 0.50283 0.21111 0.67085 0.0
C863 C 0.50364 0.29499 0.66844 0.0
C864 C 0.57339 0.28447 0.65695 0.0
C865 C 0.623 0.31043 0.66192 0.0
C866 C 0.66419 0.32902 0.65236 0.0
C867 C 0.65453 0.32079 0.63729 0.0
C868 C 0.60403 0.29388 0.63188 0.0
C869 C 0.56297 0.27547 0.6419 0.0
H870 H 0.28107 0.62749 0.20478 0.0
H871 H 0.27505 0.76733 0.20105 0.0
H872 H 0.27828 0.76267 0.17413 0.0
H873 H 0.36597 0.65052 0.174 0.0
H874 H 0.33329 0.5849 0.16814 0.0
H875 H 0.33304 0.60022 0.18723 0.0
H876 H 0.2346 0.54927 0.18729 0.0
H877 H 0.23447 0.53389 0.1682 0.0
H878 H 0.20012 0.5649 0.17415 0.0
H879 H 0.28091 0.74307 0.14796 0.0
H880 H 0.27997 0.70834 0.12362 0.0
H881 H 0.28144 0.57896 0.1438 0.0
C882 C 0.28092 0.65737 0.1983 0.0
C883 C 0.27796 0.69789 0.20502 0.0
C884 C 0.27716 0.73587 0.19615 0.0
C885 C 0.27915 0.73368 0.18085 0.0
C886 C 0.28159 0.69309 0.17458 0.0
C887 C 0.28226 0.65546 0.18297 0.0
C888 C 0.28291 0.61494 0.17335 0.0
C889 C 0.33172 0.61253 0.17583 0.0
C890 C 0.23518 0.56266 0.1759 0.0
C891 C 0.28237 0.63574 0.15826 0.0
C892 C 0.28197 0.68103 0.1593 0.0
C893 C 0.28125 0.70766 0.14698 0.0
C894 C 0.28071 0.68744 0.13316 0.0
C895 C 0.28059 0.64074 0.13171 0.0
C896 C 0.28152 0.61468 0.14449 0.0
H897 H 0.61201 0.26506 0.46454 0.0
H898 H 0.77234 0.31513 0.46923 0.0
H899 H 0.76752 0.32903 0.49566 0.0
H900 H 0.60683 0.35138 0.49278 0.0
H901 H 0.54527 0.30345 0.49938 0.0
H902 H 0.56221 0.3033 0.48043 0.0
H903 H 0.54215 0.20999 0.48322 0.0
H904 H 0.52567 0.21 0.5022 0.0
H905 H 0.57376 0.19439 0.49732 0.0
H906 H 0.74506 0.33058 0.5215 0.0
H907 H 0.70655 0.32151 0.54575 0.0
H908 H 0.55917 0.26864 0.52529 0.0
C909 C 0.64623 0.28029 0.47112 0.0
C910 C 0.69272 0.28959 0.46487 0.0
C911 C 0.73649 0.30803 0.47383 0.0
C912 C 0.73414 0.31609 0.48883 0.0
C913 C 0.68762 0.30527 0.49479 0.0
C914 C 0.64439 0.28795 0.48627 0.0
C915 C 0.59857 0.2758 0.49579 0.0
C916 C 0.57695 0.31057 0.49186 0.0
C917 C 0.55763 0.21918 0.49455 0.0
C918 C 0.62284 0.28819 0.51093 0.0
C919 C 0.6743 0.30548 0.50999 0.0
C920 C 0.70489 0.31764 0.52239 0.0
C921 C 0.68246 0.31219 0.53617 0.0
C922 C 0.62971 0.29459 0.53754 0.0
C923 C 0.59961 0.28254 0.52467 0.0
H924 H 0.44197 0.71028 0.81235 0.0
H925 H 0.3027 0.59889 0.79064 0.0
H926 H 0.26168 0.56837 0.81457 0.0
H927 H 0.43426 0.62935 0.84185 0.0
H928 H 0.45884 0.67911 0.85548 0.0
H929 H 0.47715 0.69448 0.83656 0.0
H930 H 0.44563 0.75967 0.83691 0.0
H931 H 0.42706 0.74432 0.85584 0.0
H932 H 0.38118 0.7391 0.84239 0.0
H933 H 0.23602 0.54716 0.84056 0.0
H934 H 0.22796 0.53558 0.86735 0.0
H935 H 0.38316 0.66032 0.87258 0.0
C936 C 0.40274 0.67975 0.81262 0.0
C937 C 0.37564 0.65736 0.79953 0.0
C938 C 0.32443 0.61708 0.80043 0.0
C939 C 0.3006 0.59937 0.814 0.0
C940 C 0.32831 0.62218 0.82664 0.0
C941 C 0.37822 0.6614 0.82612 0.0
C942 C 0.39968 0.67787 0.84144 0.0
C943 C 0.44517 0.66969 0.84398 0.0
C944 C 0.41423 0.73355 0.84431 0.0
C945 C 0.35413 0.64135 0.85057 0.0
C946 C 0.31335 0.60978 0.84178 0.0
C947 C 0.26754 0.57184 0.8476 0.0
C948 C 0.26338 0.56557 0.86284 0.0
C949 C 0.30483 0.59708 0.87212 0.0
C950 C 0.35058 0.63584 0.86584 0.0
H951 H 0.72559 0.35184 0.13399 0.0
H952 H 0.73772 0.49947 0.1409 0.0
H953 H 0.73237 0.48538 0.16754 0.0
H954 H 0.63708 0.28551 0.1634 0.0
H955 H 0.66627 0.24869 0.16863 0.0
H956 H 0.67019 0.26949 0.14991 0.0
H957 H 0.7684 0.31344 0.15093 0.0
H958 H 0.7648 0.29264 0.16963 0.0
H959 H 0.80249 0.35938 0.16515 0.0
H960 H 0.72508 0.45592 0.1934 0.0
H961 H 0.72154 0.41486 0.21702 0.0
H962 H 0.71622 0.28696 0.19381 0.0
C963 C 0.72709 0.38118 0.1411 0.0
C964 C 0.73203 0.42677 0.13526 0.0
C965 C 0.73413 0.46428 0.14501 0.0
C966 C 0.73092 0.4566 0.16021 0.0
C967 C 0.72589 0.41134 0.16559 0.0
C968 C 0.7244 0.37438 0.15639 0.0
C969 C 0.72019 0.32981 0.16515 0.0
C970 C 0.67047 0.28045 0.16156 0.0
C971 C 0.76674 0.32346 0.16256 0.0
C972 C 0.71955 0.34763 0.18068 0.0
C973 C 0.72253 0.39461 0.18064 0.0
C974 C 0.72279 0.41912 0.19359 0.0
C975 C 0.72066 0.39535 0.20698 0.0
C976 C 0.71859 0.34756 0.20737 0.0
C977 C 0.71762 0.32337 0.19396 0.0
H978 H 0.44739 0.73458 0.52469 0.0
H979 H 0.31257 0.71777 0.54656 0.0
H980 H 0.27191 0.70928 0.52271 0.0
H981 H 0.44452 0.80912 0.49438 0.0
H982 H 0.46509 0.77949 0.48099 0.0
H983 H 0.48418 0.7834 0.49988 0.0
H984 H 0.44627 0.68547 0.5005 0.0
H985 H 0.42698 0.68128 0.48162 0.0
H986 H 0.38068 0.64424 0.49546 0.0
H987 H 0.24561 0.70409 0.49691 0.0
H988 H 0.23512 0.70268 0.47016 0.0
H989 H 0.38593 0.72215 0.46439 0.0
C990 C 0.40928 0.72896 0.52447 0.0
C991 C 0.3833 0.72669 0.53759 0.0
C992 C 0.33346 0.71949 0.53675 0.0
C993 C 0.30985 0.7146 0.52322 0.0
C994 C 0.33637 0.71694 0.51056 0.0
C995 C 0.38491 0.72395 0.51099 0.0
C996 C 0.40483 0.72563 0.49561 0.0
C997 C 0.45248 0.7775 0.49254 0.0
C998 C 0.41529 0.68152 0.49315 0.0
C999 C 0.35987 0.71867 0.48656 0.0
C1000 C 0.32089 0.71372 0.49546 0.0
C1001 C 0.27574 0.70776 0.48978 0.0
C1002 C 0.27022 0.70707 0.47454 0.0
C1003 C 0.30963 0.71223 0.46511 0.0
C1004 C 0.35494 0.71781 0.47127 0.0
H1005 H 0.60718 0.32747 0.87546 0.0
H1006 H 0.76505 0.44675 0.87149 0.0
H1007 H 0.76004 0.43566 0.84468 0.0
H1008 H 0.60734 0.24691 0.845 0.0
H1009 H 0.54443 0.23037 0.83896 0.0
H1010 H 0.56134 0.24394 0.85805 0.0
H1011 H 0.53514 0.31313 0.8575 0.0
H1012 H 0.5186 0.30015 0.83839 0.0
H1013 H 0.56383 0.36395 0.84422 0.0
H1014 H 0.7377 0.41633 0.81852 0.0
H1015 H 0.69958 0.38897 0.79412 0.0
H1016 H 0.55461 0.28282 0.81421 0.0
C1017 C 0.6409 0.35035 0.86895 0.0
C1018 C 0.68665 0.38777 0.87557 0.0
C1019 C 0.72966 0.41787 0.86666 0.0
C1020 C 0.72724 0.41181 0.85141 0.0
C1021 C 0.68142 0.37563 0.84517 0.0
C1022 C 0.63897 0.34523 0.85359 0.0
C1023 C 0.59373 0.3114 0.84389 0.0
C1024 C 0.57565 0.25479 0.84664 0.0
C1025 C 0.55027 0.32286 0.84614 0.0
C1026 C 0.61742 0.32805 0.82876 0.0
C1027 C 0.66811 0.36491 0.82984 0.0
C1028 C 0.69812 0.38721 0.81751 0.0
C1029 C 0.67592 0.37136 0.80365 0.0
C1030 C 0.62396 0.33353 0.80213 0.0
C1031 C 0.59441 0.31169 0.81494 0.0
H1032 H 0.91459 0.55464 0.09287 0.0
H1033 H 0.84587 0.39911 0.07662 0.0
H1034 H 0.93025 0.40828 0.07409 0.0
H1035 H 0.02773 0.60719 0.06903 0.0
H1036 H 0.07001 0.64905 0.083 0.0
H1037 H 0.00402 0.63201 0.083 0.0
H1038 H 0.99481 0.59916 0.10968 0.0
H1039 H 0.0607 0.61599 0.10974 0.0
H1040 H 0.01201 0.55165 0.11395 0.0
H1041 H 0.02007 0.43034 0.07478 0.0
H1042 H 0.11243 0.46665 0.0776 0.0
H1043 H 0.12701 0.60919 0.09254 0.0
C1044 C 0.91736 0.52277 0.08861 0.0
C1045 C 0.87306 0.47609 0.08498 0.0
C1046 C 0.8787 0.43528 0.07954 0.0
C1047 C 0.92668 0.44003 0.07802 0.0
C1048 C 0.96925 0.48595 0.08188 0.0
C1049 C 0.96542 0.52687 0.08695 0.0
C1050 C 0.01784 0.57146 0.09061 0.0
C1051 C 0.03065 0.61767 0.08082 0.0
C1052 C 0.02154 0.58537 0.10697 0.0
C1053 C 0.05129 0.54875 0.08695 0.0
C1054 C 0.02214 0.49929 0.08198 0.0
C1055 C 0.04342 0.46918 0.07855 0.0
C1056 C 0.09592 0.48999 0.08029 0.0
C1057 C 0.12687 0.54056 0.08529 0.0
C1058 C 0.10428 0.57058 0.08851 0.0
H1059 H 0.61229 0.07286 0.42562 0.0
H1060 H 0.52672 0.15176 0.42113 0.0
H1061 H 0.44704 0.06899 0.41974 0.0
H1062 H 0.53832 0.9734 0.40005 0.0
H1063 H 0.54255 0.92482 0.41033 0.0
H1064 H 0.5927 0.99029 0.41159 0.0
H1065 H 0.58226 0.98719 0.43985 0.0
H1066 H 0.53221 0.92164 0.43867 0.0
H1067 H 0.52069 0.96791 0.44764 0.0
H1068 H 0.37637 0.9773 0.41904 0.0
H1069 H 0.32052 0.88374 0.41839 0.0
H1070 H 0.45303 0.86545 0.42215 0.0
C1071 C 0.57685 0.07286 0.42444 0.0
C1072 C 0.57588 0.11893 0.42351 0.0
C1073 C 0.52855 0.11703 0.42184 0.0
C1074 C 0.48303 0.07018 0.42106 0.0
C1075 C 0.48543 0.02554 0.42185 0.0
C1076 C 0.53113 0.02648 0.42346 0.0
C1077 C 0.52344 0.97311 0.42361 0.0
C1078 C 0.55088 0.96494 0.41062 0.0
C1079 C 0.54066 0.96181 0.43832 0.0
C1080 C 0.46626 0.94201 0.42188 0.0
C1081 C 0.44497 0.9729 0.42098 0.0
C1082 C 0.39263 0.95271 0.41966 0.0
C1083 C 0.36121 0.89951 0.41929 0.0
C1084 C 0.38229 0.86712 0.42009 0.0
C1085 C 0.43561 0.88899 0.42134 0.0
H1086 H 0.46676 0.37221 0.76362 0.0
H1087 H 0.62109 0.45716 0.74661 0.0
H1088 H 0.61288 0.53307 0.74413 0.0
H1089 H 0.41466 0.43272 0.73975 0.0
H1090 H 0.37344 0.43422 0.75372 0.0
H1091 H 0.38996 0.38478 0.75393 0.0
H1092 H 0.42354 0.40955 0.7805 0.0
H1093 H 0.40716 0.45906 0.78036 0.0
H1094 H 0.47132 0.47446 0.78449 0.0
H1095 H 0.59178 0.60146 0.74466 0.0
H1096 H 0.55621 0.65836 0.74716 0.0
H1097 H 0.41402 0.53183 0.76277 0.0
C1098 C 0.49864 0.40666 0.75927 0.0
C1099 C 0.54459 0.40822 0.75534 0.0
C1100 C 0.58537 0.45437 0.74971 0.0
C1101 C 0.5812 0.49803 0.74824 0.0
C1102 C 0.53587 0.49537 0.75229 0.0
C1103 C 0.49504 0.45098 0.75758 0.0
C1104 C 0.45091 0.45944 0.76122 0.0
C1105 C 0.40449 0.42578 0.75158 0.0
C1106 C 0.43745 0.45007 0.77762 0.0
C1107 C 0.47384 0.51556 0.75732 0.0
C1108 C 0.523 0.53528 0.75225 0.0
C1109 C 0.55321 0.58647 0.74852 0.0
C1110 C 0.53283 0.61862 0.75007 0.0
C1111 C 0.48258 0.59959 0.75517 0.0
C1112 C 0.45242 0.54718 0.75869 0.0
H1113 H 0.47183 0.09879 0.5741 0.0
H1114 H 0.62088 0.16691 0.59468 0.0
H1115 H 0.61231 0.08258 0.59711 0.0
H1116 H 0.4134 0.98267 0.59674 0.0
H1117 H 0.37654 0.94173 0.58183 0.0
H1118 H 0.39271 0.00766 0.58199 0.0
H1119 H 0.43394 0.0205 0.55634 0.0
H1120 H 0.41797 0.95467 0.55611 0.0
H1121 H 0.48299 0.00443 0.55354 0.0
H1122 H 0.5919 0.99315 0.59612 0.0
H1123 H 0.5575 0.90089 0.59279 0.0
H1124 H 0.42002 0.88652 0.57386 0.0
C1125 C 0.50241 0.09588 0.57924 0.0
C1126 C 0.54707 0.14002 0.58416 0.0
C1127 C 0.58621 0.13421 0.59078 0.0
C1128 C 0.58181 0.08626 0.59224 0.0
C1129 C 0.53787 0.04387 0.58717 0.0
C1130 C 0.49855 0.04782 0.58091 0.0
C1131 C 0.45584 0.99555 0.57623 0.0
C1132 C 0.40671 0.98106 0.58471 0.0
C1133 C 0.44719 0.9937 0.55956 0.0
C1134 C 0.47782 0.9621 0.5807 0.0
C1135 C 0.52532 0.99112 0.58693 0.0
C1136 C 0.55458 0.96988 0.59136 0.0
C1137 C 0.53493 0.91753 0.58934 0.0
C1138 C 0.48634 0.8868 0.58308 0.0
C1139 C 0.45711 0.90924 0.57884 0.0
H1140 H 0.46627 0.58745 0.91894 0.0
H1141 H 0.33571 0.44449 0.90487 0.0
H1142 H 0.38865 0.40491 0.90394 0.0
H1143 H 0.55828 0.57573 0.89572 0.0
H1144 H 0.60841 0.60332 0.90918 0.0
H1145 H 0.56064 0.62197 0.90862 0.0
H1146 H 0.53956 0.59686 0.93596 0.0
H1147 H 0.58709 0.57797 0.93659 0.0
H1148 H 0.52243 0.53333 0.94174 0.0
H1149 H 0.45192 0.37821 0.90594 0.0
H1150 H 0.52615 0.36724 0.90899 0.0
H1151 H 0.61892 0.52738 0.92039 0.0
C1152 C 0.44894 0.54792 0.91561 0.0
C1153 C 0.39656 0.51909 0.91218 0.0
C1154 C 0.37548 0.4675 0.90774 0.0
C1155 C 0.40526 0.44448 0.90713 0.0
C1156 C 0.4563 0.47357 0.91077 0.0
C1157 C 0.47839 0.52424 0.91475 0.0
C1158 C 0.53451 0.54634 0.91805 0.0
C1159 C 0.5674 0.58939 0.90724 0.0
C1160 C 0.54659 0.5647 0.93404 0.0
C1161 C 0.53989 0.49978 0.9155 0.0
C1162 C 0.49407 0.45834 0.91137 0.0
C1163 C 0.48826 0.41041 0.909 0.0
C1164 C 0.53061 0.40454 0.91085 0.0
C1165 C 0.57827 0.44648 0.91487 0.0
C1166 C 0.58303 0.49483 0.91715 0.0
H1167 H 0.08766 0.61283 0.25274 0.0
H1168 H 0.16492 0.5261 0.24701 0.0
H1169 H 0.08216 0.44685 0.24545 0.0
H1170 H 0.98586 0.51882 0.27565 0.0
H1171 H 0.93835 0.53088 0.26785 0.0
H1172 H 0.00384 0.58108 0.26849 0.0
H1173 H 0.00251 0.59358 0.2404 0.0
H1174 H 0.93709 0.54328 0.2397 0.0
H1175 H 0.98393 0.53992 0.22836 0.0
H1176 H 0.99092 0.3772 0.24312 0.0
H1177 H 0.89765 0.32138 0.2424 0.0
H1178 H 0.87932 0.45207 0.25118 0.0
C1179 C 0.08723 0.57718 0.25123 0.0
C1180 C 0.13304 0.57594 0.24998 0.0
C1181 C 0.13056 0.52828 0.24806 0.0
C1182 C 0.08365 0.48293 0.2471 0.0
C1183 C 0.03932 0.48555 0.24826 0.0
C1184 C 0.04063 0.53132 0.25047 0.0
C1185 C 0.98731 0.52333 0.25162 0.0
C1186 C 0.97832 0.53948 0.26681 0.0
C1187 C 0.97713 0.55171 0.23928 0.0
C1188 C 0.95593 0.46601 0.2496 0.0
C1189 C 0.98667 0.44504 0.24753 0.0
C1190 C 0.96644 0.3931 0.24488 0.0
C1191 C 0.91336 0.36168 0.24446 0.0
C1192 C 0.88101 0.38209 0.24688 0.0
C1193 C 0.90289 0.43506 0.24948 0.0
H1194 H 0.63823 0.56907 0.09788 0.0
H1195 H 0.55976 0.41603 0.1162 0.0
H1196 H 0.48189 0.42064 0.11858 0.0
H1197 H 0.57457 0.62002 0.12089 0.0
H1198 H 0.57035 0.65823 0.1064 0.0
H1199 H 0.62173 0.64465 0.10654 0.0
H1200 H 0.59707 0.60699 0.08036 0.0
H1201 H 0.54566 0.62045 0.08015 0.0
H1202 H 0.53303 0.55652 0.07681 0.0
H1203 H 0.41129 0.43841 0.11808 0.0
H1204 H 0.35108 0.4695 0.11493 0.0
H1205 H 0.47234 0.61213 0.09736 0.0
C1206 C 0.60478 0.53682 0.10253 0.0
C1207 C 0.60552 0.49227 0.1069 0.0
C1208 C 0.56065 0.45072 0.1128 0.0
C1209 C 0.51596 0.45288 0.11422 0.0
C1210 C 0.51632 0.49692 0.10977 0.0
C1211 C 0.55937 0.53831 0.10408 0.0
C1212 C 0.54828 0.58037 0.09984 0.0
C1213 C 0.58066 0.62868 0.10897 0.0
C1214 C 0.5565 0.59174 0.08331 0.0
C1215 C 0.49226 0.55569 0.10388 0.0
C1216 C 0.47492 0.50756 0.10961 0.0
C1217 C 0.42442 0.4762 0.11371 0.0
C1218 C 0.39043 0.49421 0.11184 0.0
C1219 C 0.40687 0.54333 0.10595 0.0
C1220 C 0.45873 0.57467 0.10206 0.0
H1221 H 0.87809 0.42793 0.43157 0.0
H1222 H 0.90534 0.30132 0.4373 0.0
H1223 H 0.998 0.36161 0.43726 0.0
H1224 H 0.98183 0.49934 0.40689 0.0
H1225 H 0.99633 0.56038 0.41424 0.0
H1226 H 0.93227 0.50734 0.41508 0.0
H1227 H 0.93145 0.51849 0.44323 0.0
H1228 H 0.9955 0.57156 0.44249 0.0
H1229 H 0.98042 0.5181 0.45431 0.0
H1230 H 0.08761 0.43589 0.43682 0.0
H1231 H 0.16772 0.5183 0.43534 0.0
H1232 H 0.08162 0.596 0.42923 0.0
C1233 C 0.90348 0.41282 0.43291 0.0
C1234 C 0.8845 0.35992 0.43453 0.0
C1235 C 0.91905 0.34171 0.43607 0.0
C1236 C 0.97171 0.37565 0.43607 0.0
C1237 C 0.98913 0.42757 0.43443 0.0
C1238 C 0.95606 0.44605 0.43282 0.0
C1239 C 0.9845 0.50342 0.43093 0.0
C1240 C 0.97305 0.51849 0.41589 0.0
C1241 C 0.97224 0.52941 0.44349 0.0
C1242 C 0.03885 0.51443 0.43181 0.0
C1243 C 0.04069 0.47019 0.43388 0.0
C1244 C 0.08665 0.47077 0.43518 0.0
C1245 C 0.13195 0.5178 0.43435 0.0
C1246 C 0.13098 0.56362 0.43217 0.0
C1247 C 0.08367 0.56166 0.43085 0.0
H1248 H 0.45519 0.08371 0.76925 0.0
H1249 H 0.60531 0.15595 0.78911 0.0
H1250 H 0.59978 0.07262 0.79136 0.0
H1251 H 0.40044 0.96512 0.79125 0.0
H1252 H 0.3647 0.92505 0.77607 0.0
H1253 H 0.37804 0.99004 0.77693 0.0
H1254 H 0.41953 0.00726 0.7512 0.0
H1255 H 0.40647 0.94243 0.75028 0.0
H1256 H 0.47058 0.99442 0.74794 0.0
H1257 H 0.58222 0.98423 0.79003 0.0
H1258 H 0.55236 0.89359 0.78554 0.0
H1259 H 0.41262 0.87485 0.76675 0.0
C1260 C 0.4864 0.08173 0.77432 0.0
C1261 C 0.53061 0.12652 0.77907 0.0
C1262 C 0.57103 0.12239 0.78539 0.0
C1263 C 0.56827 0.07512 0.78676 0.0
C1264 C 0.52478 0.03195 0.78178 0.0
C1265 C 0.48437 0.03447 0.77574 0.0
C1266 C 0.44323 0.98198 0.77067 0.0
C1267 C 0.39366 0.96452 0.77924 0.0
C1268 C 0.43445 0.98152 0.75403 0.0
C1269 C 0.46737 0.95005 0.77462 0.0
C1270 C 0.51435 0.97992 0.78107 0.0
C1271 C 0.54528 0.96025 0.78512 0.0
C1272 C 0.52801 0.90866 0.78247 0.0
C1273 C 0.48008 0.87696 0.77585 0.0
C1274 C 0.44913 0.89795 0.77201 0.0
H1275 H 0.41918 0.54395 0.56943 0.0
H1276 H 0.56347 0.66661 0.55334 0.0
H1277 H 0.59399 0.60597 0.54984 0.0
H1278 H 0.47164 0.48078 0.58977 0.0
H1279 H 0.42128 0.41709 0.58568 0.0
H1280 H 0.40842 0.469 0.58596 0.0
H1281 H 0.37338 0.44704 0.55946 0.0
H1282 H 0.3861 0.39498 0.55909 0.0
H1283 H 0.4125 0.44364 0.54514 0.0
H1284 H 0.61125 0.53488 0.54913 0.0
H1285 H 0.61544 0.45647 0.55158 0.0
H1286 H 0.46083 0.37704 0.56839 0.0
C1287 C 0.45688 0.55778 0.56496 0.0
C1288 C 0.48886 0.61012 0.56159 0.0
C1289 C 0.53827 0.62686 0.55602 0.0
C1290 C 0.55595 0.59264 0.55394 0.0
C1291 C 0.52391 0.54161 0.55751 0.0
C1292 C 0.47546 0.52399 0.56291 0.0
C1293 C 0.45014 0.46744 0.56654 0.0
C1294 C 0.43712 0.45804 0.58296 0.0
C1295 C 0.40271 0.43644 0.55699 0.0
C1296 C 0.49225 0.45641 0.56247 0.0
C1297 C 0.53419 0.4999 0.5572 0.0
C1298 C 0.57855 0.50044 0.55313 0.0
C1299 C 0.5805 0.45553 0.5546 0.0
C1300 C 0.5384 0.41031 0.56012 0.0
C1301 C 0.49342 0.41074 0.56397 0.0
H1302 H 0.11821 0.59058 0.9065 0.0
H1303 H 0.09718 0.44561 0.92217 0.0
H1304 H 0.00595 0.41276 0.92457 0.0
H1305 H 0.01983 0.59052 0.93067 0.0
H1306 H 0.99875 0.6185 0.91689 0.0
H1307 H 0.06402 0.6331 0.91715 0.0
H1308 H 0.05576 0.60324 0.89016 0.0
H1309 H 0.99046 0.5883 0.88984 0.0
H1310 H 0.00622 0.53999 0.88525 0.0
H1311 H 0.91784 0.39129 0.92292 0.0
H1312 H 0.83467 0.38444 0.91927 0.0
H1313 H 0.90859 0.54357 0.90627 0.0
C1314 C 0.09441 0.55223 0.91061 0.0
C1315 C 0.115 0.52065 0.914 0.0
C1316 C 0.08256 0.47058 0.91934 0.0
C1317 C 0.03051 0.45143 0.92082 0.0
C1318 C 0.01127 0.4829 0.91711 0.0
C1319 C 0.04189 0.53238 0.9123 0.0
C1320 C 0.01026 0.55707 0.90876 0.0
C1321 C 0.02404 0.60249 0.91898 0.0
C1322 C 0.01603 0.57308 0.89254 0.0
C1323 C 0.95725 0.51309 0.91196 0.0
C1324 C 0.95917 0.47082 0.91674 0.0
C1325 C 0.91566 0.42431 0.91946 0.0
C1326 C 0.8686 0.42075 0.91729 0.0
C1327 C 0.86534 0.46356 0.91265 0.0
C1328 C 0.91023 0.51054 0.91006 0.0
H1329 H 0.44165 0.88107 0.23591 0.0
H1330 H 0.31539 0.90811 0.24206 0.0
H1331 H 0.37466 1.00095 0.24036 0.0
H1332 H 0.53181 0.98753 0.25748 0.0
H1333 H 0.58492 1.00141 0.24573 0.0
H1334 H 0.53237 0.93714 0.24713 0.0
H1335 H 0.52067 0.93405 0.21893 0.0
H1336 H 0.57305 0.99839 0.21744 0.0
H1337 H 0.51179 0.98212 0.20999 0.0
H1338 H 0.4477 0.09093 0.23781 0.0
H1339 H 0.52935 0.1715 0.23579 0.0
H1340 H 0.60851 0.08603 0.23178 0.0
C1341 C 0.42636 0.90647 0.23684 0.0
C1342 C 0.37373 0.88723 0.23904 0.0
C1343 C 0.35548 0.92188 0.24037 0.0
C1344 C 0.38886 0.97469 0.23938 0.0
C1345 C 0.44045 0.99234 0.23715 0.0
C1346 C 0.45918 0.95929 0.236 0.0
C1347 C 0.51644 0.98815 0.23399 0.0
C1348 C 0.54293 0.97795 0.24685 0.0
C1349 C 0.53134 0.97488 0.21921 0.0
C1350 C 0.52701 0.04264 0.23414 0.0
C1351 C 0.48262 0.04418 0.23591 0.0
C1352 C 0.48268 0.09017 0.23642 0.0
C1353 C 0.52933 0.13579 0.2352 0.0
C1354 C 0.57547 0.13525 0.23356 0.0
C1355 C 0.57399 0.08785 0.23297 0.0
loop_
_geom_bond_atom_site_label_1
_geom_bond_atom_site_label_2
_geom_bond_distance
_geom_bond_site_symmetry_2
_ccdc_geom_bond_type
Co0 O2 2.143 . S
Co0 O8 2.074 . S
Co0 O11 2.093 . S
Co0 O24 2.097 . S
Co0 N41 2.151 . S
Co0 N49 2.214 . S
Co1 O2 2.160 . S
Co1 O7 2.058 . S
Co1 O17 2.057 . S
Co1 O32 2.037 . S
Co1 N36 2.145 . S
Co1 N57 2.257 . S
O2 Co0 2.143 . S
O2 Co1 2.160 . S
C3 O4 1.278 . S
C3 O11 1.224 . S
O4 C3 1.278 . S
C5 O6 1.245 . S
C5 O17 1.232 . S
O6 C5 1.245 . S
O7 Co1 2.058 . S
O7 C33 1.269 . S
O8 Co0 2.074 . S
O8 C33 1.257 . S
H9 C34 0.930 . S
H10 C40 0.930 . S
O11 Co0 2.093 . S
O11 C3 1.224 . S
H12 C44 0.929 . S
H13 C46 0.930 . S
H14 C47 0.930 . S
H15 C45 0.929 . S
H16 C48 0.928 . S
O17 Co1 2.057 . S
O17 C5 1.232 . S
H18 C37 0.929 . S
H19 C38 0.929 . S
H20 C50 0.931 . S
H21 C42 0.929 . S
H22 C51 0.930 . S
H23 C43 0.931 . S
O24 Co0 2.097 . S
O24 C52 1.214 . S
H25 C53 0.929 . S
H26 C54 0.929 . S
H27 C55 0.930 . S
H28 C56 0.929 . S
H29 C58 0.930 . S
H30 C35 0.930 . S
H31 C39 0.930 . S
O32 Co1 2.037 . S
O32 C52 1.234 . S
C33 O7 1.269 . S
C33 O8 1.257 . S
C34 H9 0.930 . S
C34 C37 1.388 . S
C34 C39 1.418 . S
C35 H30 0.930 . S
C35 C38 1.404 . S
C35 C39 1.353 . S
N36 Co1 2.145 . S
N36 C37 1.397 . S
N36 C38 1.334 . S
C37 H18 0.929 . S
C37 C34 1.388 . S
C37 N36 1.397 . S
C38 H19 0.929 . S
C38 C35 1.404 . S
C38 N36 1.334 . S
C39 H31 0.930 . S
C39 C34 1.418 . S
C39 C35 1.353 . S
C40 H10 0.930 . S
C40 N41 1.330 . S
C40 C42 1.446 . S
N41 Co0 2.151 . S
N41 C40 1.330 . S
N41 C45 1.418 . S
C42 H21 0.929 . S
C42 C40 1.446 . S
C42 C43 1.332 . S
C43 H23 0.931 . S
C43 C42 1.332 . S
C43 C44 1.267 . S
C44 H12 0.929 . S
C44 C43 1.267 . S
C44 C45 1.251 . S
C45 H15 0.929 . S
C45 N41 1.418 . S
C45 C44 1.251 . S
C46 H13 0.930 . S
C46 C48 1.406 . S
C46 C51 1.261 . S
C47 H14 0.930 . S
C47 N49 1.325 . S
C47 C50 1.357 . S
C48 H16 0.928 . S
C48 C46 1.406 . S
C48 N49 1.261 . S
N49 Co0 2.214 . S
N49 C47 1.325 . S
N49 C48 1.261 . S
C50 H20 0.931 . S
C50 C47 1.357 . S
C50 C51 1.312 . S
C51 H22 0.930 . S
C51 C46 1.261 . S
C51 C50 1.312 . S
C52 O24 1.214 . S
C52 O32 1.234 . S
C53 H25 0.929 . S
C53 C56 1.391 . S
C53 C58 1.391 . S
C54 H26 0.929 . S
C54 C55 1.390 . S
C54 N57 1.391 . S
C55 H27 0.930 . S
C55 C54 1.390 . S
C55 C56 1.392 . S
C56 H28 0.929 . S
C56 C53 1.391 . S
C56 C55 1.392 . S
N57 Co1 2.257 . S
N57 C54 1.391 . S
N57 C58 1.388 . S
C58 H29 0.930 . S
C58 C53 1.391 . S
C58 N57 1.388 . S
Co59 O61 2.143 . S
Co59 O67 2.074 . S
Co59 O70 2.093 . S
Co59 O83 2.097 . S
Co59 N100 2.151 . S
Co59 N108 2.214 . S
Co60 O61 2.160 . S
Co60 O66 2.058 . S
Co60 O76 2.057 . S
Co60 O91 2.037 . S
Co60 N95 2.145 . S
Co60 N116 2.257 . S
O61 Co59 2.143 . S
O61 Co60 2.160 . S
C62 O63 1.278 . S
C62 O70 1.224 . S
O63 C62 1.278 . S
C64 O65 1.245 . S
C64 O76 1.232 . S
O65 C64 1.245 . S
O66 Co60 2.058 . S
O66 C92 1.269 . S
O67 Co59 2.074 . S
O67 C92 1.257 . S
H68 C93 0.930 . S
H69 C99 0.930 . S
O70 Co59 2.093 . S
O70 C62 1.224 . S
H71 C103 0.929 . S
H72 C105 0.930 . S
H73 C106 0.930 . S
H74 C104 0.929 . S
H75 C107 0.928 . S
O76 Co60 2.057 . S
O76 C64 1.232 . S
H77 C96 0.929 . S
H78 C97 0.929 . S
H79 C109 0.931 . S
H80 C101 0.929 . S
H81 C110 0.930 . S
H82 C102 0.931 . S
O83 Co59 2.097 . S
O83 C111 1.214 . S
H84 C112 0.929 . S
H85 C113 0.929 . S
H86 C114 0.930 . S
H87 C115 0.929 . S
H88 C117 0.930 . S
H89 C94 0.930 . S
H90 C98 0.930 . S
O91 Co60 2.037 . S
O91 C111 1.234 . S
C92 O66 1.269 . S
C92 O67 1.257 . S
C93 H68 0.930 . S
C93 C96 1.388 . S
C93 C98 1.418 . S
C94 H89 0.930 . S
C94 C97 1.404 . S
C94 C98 1.353 . S
N95 Co60 2.145 . S
N95 C96 1.397 . S
N95 C97 1.334 . S
C96 H77 0.929 . S
C96 C93 1.388 . S
C96 N95 1.397 . S
C97 H78 0.929 . S
C97 C94 1.404 . S
C97 N95 1.334 . S
C98 H90 0.930 . S
C98 C93 1.418 . S
C98 C94 1.353 . S
C99 H69 0.930 . S
C99 N100 1.330 . S
C99 C101 1.446 . S
N100 Co59 2.151 . S
N100 C99 1.330 . S
N100 C104 1.418 . S
C101 H80 0.929 . S
C101 C99 1.446 . S
C101 C102 1.332 . S
C102 H82 0.931 . S
C102 C101 1.332 . S
C102 C103 1.267 . S
C103 H71 0.929 . S
C103 C102 1.267 . S
C103 C104 1.251 . S
C104 H74 0.929 . S
C104 N100 1.418 . S
C104 C103 1.251 . S
C105 H72 0.930 . S
C105 C107 1.406 . S
C105 C110 1.261 . S
C106 H73 0.930 . S
C106 N108 1.325 . S
C106 C109 1.357 . S
C107 H75 0.928 . S
C107 C105 1.406 . S
C107 N108 1.261 . S
N108 Co59 2.214 . S
N108 C106 1.325 . S
N108 C107 1.261 . S
C109 H79 0.931 . S
C109 C106 1.357 . S
C109 C110 1.312 . S
C110 H81 0.930 . S
C110 C105 1.261 . S
C110 C109 1.312 . S
C111 O83 1.214 . S
C111 O91 1.234 . S
C112 H84 0.929 . S
C112 C115 1.391 . S
C112 C117 1.391 . S
C113 H85 0.929 . S
C113 C114 1.390 . S
C113 N116 1.391 . S
C114 H86 0.930 . S
C114 C113 1.390 . S
C114 C115 1.392 . S
C115 H87 0.929 . S
C115 C112 1.391 . S
C115 C114 1.392 . S
N116 Co60 2.257 . S
N116 C113 1.391 . S
N116 C117 1.388 . S
C117 H88 0.930 . S
C117 C112 1.391 . S
C117 N116 1.388 . S
Co118 O120 2.143 . S
Co118 O126 2.074 . S
Co118 O129 2.093 . S
Co118 O142 2.097 . S
Co118 N159 2.151 . S
Co118 N167 2.214 . S
Co119 O120 2.160 . S
Co119 O125 2.058 . S
Co119 O135 2.057 . S
Co119 O150 2.037 . S
Co119 N154 2.145 . S
Co119 N175 2.257 . S
O120 Co118 2.143 . S
O120 Co119 2.160 . S
C121 O122 1.278 . S
C121 O129 1.224 . S
O122 C121 1.278 . S
C123 O124 1.245 . S
C123 O135 1.232 . S
O124 C123 1.245 . S
O125 Co119 2.058 . S
O125 C151 1.269 . S
O126 Co118 2.074 . S
O126 C151 1.257 . S
H127 C152 0.930 . S
H128 C158 0.930 . S
O129 Co118 2.093 . S
O129 C121 1.224 . S
H130 C162 0.929 . S
H131 C164 0.930 . S
H132 C165 0.930 . S
H133 C163 0.929 . S
H134 C166 0.928 . S
O135 Co119 2.057 . S
O135 C123 1.232 . S
H136 C155 0.929 . S
H137 C156 0.929 . S
H138 C168 0.931 . S
H139 C160 0.929 . S
H140 C169 0.930 . S
H141 C161 0.931 . S
O142 Co118 2.097 . S
O142 C170 1.214 . S
H143 C171 0.929 . S
H144 C172 0.929 . S
H145 C173 0.930 . S
H146 C174 0.929 . S
H147 C176 0.930 . S
H148 C153 0.930 . S
H149 C157 0.930 . S
O150 Co119 2.037 . S
O150 C170 1.234 . S
C151 O125 1.269 . S
C151 O126 1.257 . S
C152 H127 0.930 . S
C152 C155 1.388 . S
C152 C157 1.418 . S
C153 H148 0.930 . S
C153 C156 1.404 . S
C153 C157 1.353 . S
N154 Co119 2.145 . S
N154 C155 1.397 . S
N154 C156 1.334 . S
C155 H136 0.929 . S
C155 C152 1.388 . S
C155 N154 1.397 . S
C156 H137 0.929 . S
C156 C153 1.404 . S
C156 N154 1.334 . S
C157 H149 0.930 . S
C157 C152 1.418 . S
C157 C153 1.353 . S
C158 H128 0.930 . S
C158 N159 1.330 . S
C158 C160 1.446 . S
N159 Co118 2.151 . S
N159 C158 1.330 . S
N159 C163 1.418 . S
C160 H139 0.929 . S
C160 C158 1.446 . S
C160 C161 1.332 . S
C161 H141 0.931 . S
C161 C160 1.332 . S
C161 C162 1.267 . S
C162 H130 0.929 . S
C162 C161 1.267 . S
C162 C163 1.251 . S
C163 H133 0.929 . S
C163 N159 1.418 . S
C163 C162 1.251 . S
C164 H131 0.930 . S
C164 C166 1.406 . S
C164 C169 1.261 . S
C165 H132 0.930 . S
C165 N167 1.325 . S
C165 C168 1.357 . S
C166 H134 0.928 . S
C166 C164 1.406 . S
C166 N167 1.261 . S
N167 Co118 2.214 . S
N167 C165 1.325 . S
N167 C166 1.261 . S
C168 H138 0.931 . S
C168 C165 1.357 . S
C168 C169 1.312 . S
C169 H140 0.930 . S
C169 C164 1.261 . S
C169 C168 1.312 . S
C170 O142 1.214 . S
C170 O150 1.234 . S
C171 H143 0.929 . S
C171 C174 1.391 . S
C171 C176 1.391 . S
C172 H144 0.929 . S
C172 C173 1.390 . S
C172 N175 1.391 . S
C173 H145 0.930 . S
C173 C172 1.390 . S
C173 C174 1.392 . S
C174 H146 0.929 . S
C174 C171 1.391 . S
C174 C173 1.392 . S
N175 Co119 2.257 . S
N175 C172 1.391 . S
N175 C176 1.388 . S
C176 H147 0.930 . S
C176 C171 1.391 . S
C176 N175 1.388 . S
Co177 O179 2.143 . S
Co177 O185 2.074 . S
Co177 O188 2.093 . S
Co177 O201 2.097 . S
Co177 N218 2.151 . S
Co177 N226 2.214 . S
Co178 O179 2.160 . S
Co178 O184 2.058 . S
Co178 O194 2.057 . S
Co178 O209 2.037 . S
Co178 N213 2.145 . S
Co178 N234 2.257 . S
O179 Co177 2.143 . S
O179 Co178 2.160 . S
C180 O181 1.278 . S
C180 O188 1.224 . S
O181 C180 1.278 . S
C182 O183 1.245 . S
C182 O194 1.232 . S
O183 C182 1.245 . S
O184 Co178 2.058 . S
O184 C210 1.269 . S
O185 Co177 2.074 . S
O185 C210 1.257 . S
H186 C211 0.930 . S
H187 C217 0.930 . S
O188 Co177 2.093 . S
O188 C180 1.224 . S
H189 C221 0.929 . S
H190 C223 0.930 . S
H191 C224 0.930 . S
H192 C222 0.929 . S
H193 C225 0.928 . S
O194 Co178 2.057 . S
O194 C182 1.232 . S
H195 C214 0.929 . S
H196 C215 0.929 . S
H197 C227 0.931 . S
H198 C219 0.929 . S
H199 C228 0.930 . S
H200 C220 0.931 . S
O201 Co177 2.097 . S
O201 C229 1.214 . S
H202 C230 0.929 . S
H203 C231 0.929 . S
H204 C232 0.930 . S
H205 C233 0.929 . S
H206 C235 0.930 . S
H207 C212 0.930 . S
H208 C216 0.930 . S
O209 Co178 2.037 . S
O209 C229 1.234 . S
C210 O184 1.269 . S
C210 O185 1.257 . S
C211 H186 0.930 . S
C211 C214 1.388 . S
C211 C216 1.418 . S
C212 H207 0.930 . S
C212 C215 1.404 . S
C212 C216 1.353 . S
N213 Co178 2.145 . S
N213 C214 1.397 . S
N213 C215 1.334 . S
C214 H195 0.929 . S
C214 C211 1.388 . S
C214 N213 1.397 . S
C215 H196 0.929 . S
C215 C212 1.404 . S
C215 N213 1.334 . S
C216 H208 0.930 . S
C216 C211 1.418 . S
C216 C212 1.353 . S
C217 H187 0.930 . S
C217 N218 1.330 . S
C217 C219 1.446 . S
N218 Co177 2.151 . S
N218 C217 1.330 . S
N218 C222 1.418 . S
C219 H198 0.929 . S
C219 C217 1.446 . S
C219 C220 1.332 . S
C220 H200 0.931 . S
C220 C219 1.332 . S
C220 C221 1.267 . S
C221 H189 0.929 . S
C221 C220 1.267 . S
C221 C222 1.251 . S
C222 H192 0.929 . S
C222 N218 1.418 . S
C222 C221 1.251 . S
C223 H190 0.930 . S
C223 C225 1.406 . S
C223 C228 1.261 . S
C224 H191 0.930 . S
C224 N226 1.325 . S
C224 C227 1.357 . S
C225 H193 0.928 . S
C225 C223 1.406 . S
C225 N226 1.261 . S
N226 Co177 2.214 . S
N226 C224 1.325 . S
N226 C225 1.261 . S
C227 H197 0.931 . S
C227 C224 1.357 . S
C227 C228 1.312 . S
C228 H199 0.930 . S
C228 C223 1.261 . S
C228 C227 1.312 . S
C229 O201 1.214 . S
C229 O209 1.234 . S
C230 H202 0.929 . S
C230 C233 1.391 . S
C230 C235 1.391 . S
C231 H203 0.929 . S
C231 C232 1.390 . S
C231 N234 1.391 . S
C232 H204 0.930 . S
C232 C231 1.390 . S
C232 C233 1.392 . S
C233 H205 0.929 . S
C233 C230 1.391 . S
C233 C232 1.392 . S
N234 Co178 2.257 . S
N234 C231 1.391 . S
N234 C235 1.388 . S
C235 H206 0.930 . S
C235 C230 1.391 . S
C235 N234 1.388 . S
Co236 O238 2.143 . S
Co236 O244 2.074 . S
Co236 O247 2.093 . S
Co236 O260 2.097 . S
Co236 N277 2.151 . S
Co236 N285 2.214 . S
Co237 O238 2.160 . S
Co237 O243 2.058 . S
Co237 O253 2.057 . S
Co237 O268 2.037 . S
Co237 N272 2.145 . S
Co237 N293 2.257 . S
O238 Co236 2.143 . S
O238 Co237 2.160 . S
C239 O240 1.278 . S
C239 O247 1.224 . S
O240 C239 1.278 . S
C241 O242 1.245 . S
C241 O253 1.232 . S
O242 C241 1.245 . S
O243 Co237 2.058 . S
O243 C269 1.269 . S
O244 Co236 2.074 . S
O244 C269 1.257 . S
H245 C270 0.930 . S
H246 C276 0.930 . S
O247 Co236 2.093 . S
O247 C239 1.224 . S
H248 C280 0.929 . S
H249 C282 0.930 . S
H250 C283 0.930 . S
H251 C281 0.929 . S
H252 C284 0.928 . S
O253 Co237 2.057 . S
O253 C241 1.232 . S
H254 C273 0.929 . S
H255 C274 0.929 . S
H256 C286 0.931 . S
H257 C278 0.929 . S
H258 C287 0.930 . S
H259 C279 0.931 . S
O260 Co236 2.097 . S
O260 C288 1.214 . S
H261 C289 0.929 . S
H262 C290 0.929 . S
H263 C291 0.930 . S
H264 C292 0.929 . S
H265 C294 0.930 . S
H266 C271 0.930 . S
H267 C275 0.930 . S
O268 Co237 2.037 . S
O268 C288 1.234 . S
C269 O243 1.269 . S
C269 O244 1.257 . S
C270 H245 0.930 . S
C270 C273 1.388 . S
C270 C275 1.418 . S
C271 H266 0.930 . S
C271 C274 1.404 . S
C271 C275 1.353 . S
N272 Co237 2.145 . S
N272 C273 1.397 . S
N272 C274 1.334 . S
C273 H254 0.929 . S
C273 C270 1.388 . S
C273 N272 1.397 . S
C274 H255 0.929 . S
C274 C271 1.404 . S
C274 N272 1.334 . S
C275 H267 0.930 . S
C275 C270 1.418 . S
C275 C271 1.353 . S
C276 H246 0.930 . S
C276 N277 1.330 . S
C276 C278 1.446 . S
N277 Co236 2.151 . S
N277 C276 1.330 . S
N277 C281 1.418 . S
C278 H257 0.929 . S
C278 C276 1.446 . S
C278 C279 1.332 . S
C279 H259 0.931 . S
C279 C278 1.332 . S
C279 C280 1.267 . S
C280 H248 0.929 . S
C280 C279 1.267 . S
C280 C281 1.251 . S
C281 H251 0.929 . S
C281 N277 1.418 . S
C281 C280 1.251 . S
C282 H249 0.930 . S
C282 C284 1.406 . S
C282 C287 1.261 . S
C283 H250 0.930 . S
C283 N285 1.325 . S
C283 C286 1.357 . S
C284 H252 0.928 . S
C284 C282 1.406 . S
C284 N285 1.261 . S
N285 Co236 2.214 . S
N285 C283 1.325 . S
N285 C284 1.261 . S
C286 H256 0.931 . S
C286 C283 1.357 . S
C286 C287 1.312 . S
C287 H258 0.930 . S
C287 C282 1.261 . S
C287 C286 1.312 . S
C288 O260 1.214 . S
C288 O268 1.234 . S
C289 H261 0.929 . S
C289 C292 1.391 . S
C289 C294 1.391 . S
C290 H262 0.929 . S
C290 C291 1.390 . S
C290 N293 1.391 . S
C291 H263 0.930 . S
C291 C290 1.390 . S
C291 C292 1.392 . S
C292 H264 0.929 . S
C292 C289 1.391 . S
C292 C291 1.392 . S
N293 Co237 2.257 . S
N293 C290 1.391 . S
N293 C294 1.388 . S
C294 H265 0.930 . S
C294 C289 1.391 . S
C294 N293 1.388 . S
Co295 O297 2.143 . S
Co295 O303 2.074 . S
Co295 O306 2.093 . S
Co295 O319 2.097 . S
Co295 N336 2.151 . S
Co295 N344 2.214 . S
Co296 O297 2.160 . S
Co296 O302 2.058 . S
Co296 O312 2.057 . S
Co296 O327 2.037 . S
Co296 N331 2.145 . S
Co296 N352 2.257 . S
O297 Co295 2.143 . S
O297 Co296 2.160 . S
C298 O299 1.278 . S
C298 O306 1.224 . S
O299 C298 1.278 . S
C300 O301 1.245 . S
C300 O312 1.232 . S
O301 C300 1.245 . S
O302 Co296 2.058 . S
O302 C328 1.269 . S
O303 Co295 2.074 . S
O303 C328 1.257 . S
H304 C329 0.930 . S
H305 C335 0.930 . S
O306 Co295 2.093 . S
O306 C298 1.224 . S
H307 C339 0.929 . S
H308 C341 0.930 . S
H309 C342 0.930 . S
H310 C340 0.929 . S
H311 C343 0.928 . S
O312 Co296 2.057 . S
O312 C300 1.232 . S
H313 C332 0.929 . S
H314 C333 0.929 . S
H315 C345 0.931 . S
H316 C337 0.929 . S
H317 C346 0.930 . S
H318 C338 0.931 . S
O319 Co295 2.097 . S
O319 C347 1.214 . S
H320 C348 0.929 . S
H321 C349 0.929 . S
H322 C350 0.930 . S
H323 C351 0.929 . S
H324 C353 0.930 . S
H325 C330 0.930 . S
H326 C334 0.930 . S
O327 Co296 2.037 . S
O327 C347 1.234 . S
C328 O302 1.269 . S
C328 O303 1.257 . S
C329 H304 0.930 . S
C329 C332 1.388 . S
C329 C334 1.418 . S
C330 H325 0.930 . S
C330 C333 1.404 . S
C330 C334 1.353 . S
N331 Co296 2.145 . S
N331 C332 1.397 . S
N331 C333 1.334 . S
C332 H313 0.929 . S
C332 C329 1.388 . S
C332 N331 1.397 . S
C333 H314 0.929 . S
C333 C330 1.404 . S
C333 N331 1.334 . S
C334 H326 0.930 . S
C334 C329 1.418 . S
C334 C330 1.353 . S
C335 H305 0.930 . S
C335 N336 1.330 . S
C335 C337 1.446 . S
N336 Co295 2.151 . S
N336 C335 1.330 . S
N336 C340 1.418 . S
C337 H316 0.929 . S
C337 C335 1.446 . S
C337 C338 1.332 . S
C338 H318 0.931 . S
C338 C337 1.332 . S
C338 C339 1.267 . S
C339 H307 0.929 . S
C339 C338 1.267 . S
C339 C340 1.251 . S
C340 H310 0.929 . S
C340 N336 1.418 . S
C340 C339 1.251 . S
C341 H308 0.930 . S
C341 C343 1.406 . S
C341 C346 1.261 . S
C342 H309 0.930 . S
C342 N344 1.325 . S
C342 C345 1.357 . S
C343 H311 0.928 . S
C343 C341 1.406 . S
C343 N344 1.261 . S
N344 Co295 2.214 . S
N344 C342 1.325 . S
N344 C343 1.261 . S
C345 H315 0.931 . S
C345 C342 1.357 . S
C345 C346 1.312 . S
C346 H317 0.930 . S
C346 C341 1.261 . S
C346 C345 1.312 . S
C347 O319 1.214 . S
C347 O327 1.234 . S
C348 H320 0.929 . S
C348 C351 1.391 . S
C348 C353 1.391 . S
C349 H321 0.929 . S
C349 C350 1.390 . S
C349 N352 1.391 . S
C350 H322 0.930 . S
C350 C349 1.390 . S
C350 C351 1.392 . S
C351 H323 0.929 . S
C351 C348 1.391 . S
C351 C350 1.392 . S
N352 Co296 2.257 . S
N352 C349 1.391 . S
N352 C353 1.388 . S
C353 H324 0.930 . S
C353 C348 1.391 . S
C353 N352 1.388 . S
Co354 O356 2.143 . S
Co354 O362 2.074 . S
Co354 O365 2.093 . S
Co354 O378 2.097 . S
Co354 N395 2.151 . S
Co354 N403 2.214 . S
Co355 O356 2.160 . S
Co355 O361 2.058 . S
Co355 O371 2.057 . S
Co355 O386 2.037 . S
Co355 N390 2.145 . S
Co355 N411 2.257 . S
O356 Co354 2.143 . S
O356 Co355 2.160 . S
C357 O358 1.278 . S
C357 O365 1.224 . S
O358 C357 1.278 . S
C359 O360 1.245 . S
C359 O371 1.232 . S
O360 C359 1.245 . S
O361 Co355 2.058 . S
O361 C387 1.269 . S
O362 Co354 2.074 . S
O362 C387 1.257 . S
H363 C388 0.930 . S
H364 C394 0.930 . S
O365 Co354 2.093 . S
O365 C357 1.224 . S
H366 C398 0.929 . S
H367 C400 0.930 . S
H368 C401 0.930 . S
H369 C399 0.929 . S
H370 C402 0.928 . S
O371 Co355 2.057 . S
O371 C359 1.232 . S
H372 C391 0.929 . S
H373 C392 0.929 . S
H374 C404 0.931 . S
H375 C396 0.929 . S
H376 C405 0.930 . S
H377 C397 0.931 . S
O378 Co354 2.097 . S
O378 C406 1.214 . S
H379 C407 0.929 . S
H380 C408 0.929 . S
H381 C409 0.930 . S
H382 C410 0.929 . S
H383 C412 0.930 . S
H384 C389 0.930 . S
H385 C393 0.930 . S
O386 Co355 2.037 . S
O386 C406 1.234 . S
C387 O361 1.269 . S
C387 O362 1.257 . S
C388 H363 0.930 . S
C388 C391 1.388 . S
C388 C393 1.418 . S
C389 H384 0.930 . S
C389 C392 1.404 . S
C389 C393 1.353 . S
N390 Co355 2.145 . S
N390 C391 1.397 . S
N390 C392 1.334 . S
C391 H372 0.929 . S
C391 C388 1.388 . S
C391 N390 1.397 . S
C392 H373 0.929 . S
C392 C389 1.404 . S
C392 N390 1.334 . S
C393 H385 0.930 . S
C393 C388 1.418 . S
C393 C389 1.353 . S
C394 H364 0.930 . S
C394 N395 1.330 . S
C394 C396 1.446 . S
N395 Co354 2.151 . S
N395 C394 1.330 . S
N395 C399 1.418 . S
C396 H375 0.929 . S
C396 C394 1.446 . S
C396 C397 1.332 . S
C397 H377 0.931 . S
C397 C396 1.332 . S
C397 C398 1.267 . S
C398 H366 0.929 . S
C398 C397 1.267 . S
C398 C399 1.251 . S
C399 H369 0.929 . S
C399 N395 1.418 . S
C399 C398 1.251 . S
C400 H367 0.930 . S
C400 C402 1.406 . S
C400 C405 1.261 . S
C401 H368 0.930 . S
C401 N403 1.325 . S
C401 C404 1.357 . S
C402 H370 0.928 . S
C402 C400 1.406 . S
C402 N403 1.261 . S
N403 Co354 2.214 . S
N403 C401 1.325 . S
N403 C402 1.261 . S
C404 H374 0.931 . S
C404 C401 1.357 . S
C404 C405 1.312 . S
C405 H376 0.930 . S
C405 C400 1.261 . S
C405 C404 1.312 . S
C406 O378 1.214 . S
C406 O386 1.234 . S
C407 H379 0.929 . S
C407 C410 1.391 . S
C407 C412 1.391 . S
C408 H380 0.929 . S
C408 C409 1.390 . S
C408 N411 1.391 . S
C409 H381 0.930 . S
C409 C408 1.390 . S
C409 C410 1.392 . S
C410 H382 0.929 . S
C410 C407 1.391 . S
C410 C409 1.392 . S
N411 Co355 2.257 . S
N411 C408 1.391 . S
N411 C412 1.388 . S
C412 H383 0.930 . S
C412 C407 1.391 . S
C412 N411 1.388 . S
Co413 O415 2.143 . S
Co413 O421 2.074 . S
Co413 O424 2.093 . S
Co413 O437 2.097 . S
Co413 N454 2.151 . S
Co413 N462 2.214 . S
Co414 O415 2.160 . S
Co414 O420 2.058 . S
Co414 O430 2.057 . S
Co414 O445 2.037 . S
Co414 N449 2.145 . S
Co414 N470 2.257 . S
O415 Co413 2.143 . S
O415 Co414 2.160 . S
C416 O417 1.278 . S
C416 O424 1.224 . S
O417 C416 1.278 . S
C418 O419 1.245 . S
C418 O430 1.232 . S
O419 C418 1.245 . S
O420 Co414 2.058 . S
O420 C446 1.269 . S
O421 Co413 2.074 . S
O421 C446 1.257 . S
H422 C447 0.930 . S
H423 C453 0.930 . S
O424 Co413 2.093 . S
O424 C416 1.224 . S
H425 C457 0.929 . S
H426 C459 0.930 . S
H427 C460 0.930 . S
H428 C458 0.929 . S
H429 C461 0.928 . S
O430 Co414 2.057 . S
O430 C418 1.232 . S
H431 C450 0.929 . S
H432 C451 0.929 . S
H433 C463 0.931 . S
H434 C455 0.929 . S
H435 C464 0.930 . S
H436 C456 0.931 . S
O437 Co413 2.097 . S
O437 C465 1.214 . S
H438 C466 0.929 . S
H439 C467 0.929 . S
H440 C468 0.930 . S
H441 C469 0.929 . S
H442 C471 0.930 . S
H443 C448 0.930 . S
H444 C452 0.930 . S
O445 Co414 2.037 . S
O445 C465 1.234 . S
C446 O420 1.269 . S
C446 O421 1.257 . S
C447 H422 0.930 . S
C447 C450 1.388 . S
C447 C452 1.418 . S
C448 H443 0.930 . S
C448 C451 1.404 . S
C448 C452 1.353 . S
N449 Co414 2.145 . S
N449 C450 1.397 . S
N449 C451 1.334 . S
C450 H431 0.929 . S
C450 C447 1.388 . S
C450 N449 1.397 . S
C451 H432 0.929 . S
C451 C448 1.404 . S
C451 N449 1.334 . S
C452 H444 0.930 . S
C452 C447 1.418 . S
C452 C448 1.353 . S
C453 H423 0.930 . S
C453 N454 1.330 . S
C453 C455 1.446 . S
N454 Co413 2.151 . S
N454 C453 1.330 . S
N454 C458 1.418 . S
C455 H434 0.929 . S
C455 C453 1.446 . S
C455 C456 1.332 . S
C456 H436 0.931 . S
C456 C455 1.332 . S
C456 C457 1.267 . S
C457 H425 0.929 . S
C457 C456 1.267 . S
C457 C458 1.251 . S
C458 H428 0.929 . S
C458 N454 1.418 . S
C458 C457 1.251 . S
C459 H426 0.930 . S
C459 C461 1.406 . S
C459 C464 1.261 . S
C460 H427 0.930 . S
C460 N462 1.325 . S
C460 C463 1.357 . S
C461 H429 0.928 . S
C461 C459 1.406 . S
C461 N462 1.261 . S
N462 Co413 2.214 . S
N462 C460 1.325 . S
N462 C461 1.261 . S
C463 H433 0.931 . S
C463 C460 1.357 . S
C463 C464 1.312 . S
C464 H435 0.930 . S
C464 C459 1.261 . S
C464 C463 1.312 . S
C465 O437 1.214 . S
C465 O445 1.234 . S
C466 H438 0.929 . S
C466 C469 1.391 . S
C466 C471 1.391 . S
C467 H439 0.929 . S
C467 C468 1.390 . S
C467 N470 1.391 . S
C468 H440 0.930 . S
C468 C467 1.390 . S
C468 C469 1.392 . S
C469 H441 0.929 . S
C469 C466 1.391 . S
C469 C468 1.392 . S
N470 Co414 2.257 . S
N470 C467 1.391 . S
N470 C471 1.388 . S
C471 H442 0.930 . S
C471 C466 1.391 . S
C471 N470 1.388 . S
Co472 O474 2.143 . S
Co472 O480 2.074 . S
Co472 O483 2.093 . S
Co472 O496 2.097 . S
Co472 N513 2.151 . S
Co472 N521 2.214 . S
Co473 O474 2.160 . S
Co473 O479 2.058 . S
Co473 O489 2.057 . S
Co473 O504 2.037 . S
Co473 N508 2.145 . S
Co473 N529 2.257 . S
O474 Co472 2.143 . S
O474 Co473 2.160 . S
C475 O476 1.278 . S
C475 O483 1.224 . S
O476 C475 1.278 . S
C477 O478 1.245 . S
C477 O489 1.232 . S
O478 C477 1.245 . S
O479 Co473 2.058 . S
O479 C505 1.269 . S
O480 Co472 2.074 . S
O480 C505 1.257 . S
H481 C506 0.930 . S
H482 C512 0.930 . S
O483 Co472 2.093 . S
O483 C475 1.224 . S
H484 C516 0.929 . S
H485 C518 0.930 . S
H486 C519 0.930 . S
H487 C517 0.929 . S
H488 C520 0.928 . S
O489 Co473 2.057 . S
O489 C477 1.232 . S
H490 C509 0.929 . S
H491 C510 0.929 . S
H492 C522 0.931 . S
H493 C514 0.929 . S
H494 C523 0.930 . S
H495 C515 0.931 . S
O496 Co472 2.097 . S
O496 C524 1.214 . S
H497 C525 0.929 . S
H498 C526 0.929 . S
H499 C527 0.930 . S
H500 C528 0.929 . S
H501 C530 0.930 . S
H502 C507 0.930 . S
H503 C511 0.930 . S
O504 Co473 2.037 . S
O504 C524 1.234 . S
C505 O479 1.269 . S
C505 O480 1.257 . S
C506 H481 0.930 . S
C506 C509 1.388 . S
C506 C511 1.418 . S
C507 H502 0.930 . S
C507 C510 1.404 . S
C507 C511 1.353 . S
N508 Co473 2.145 . S
N508 C509 1.397 . S
N508 C510 1.334 . S
C509 H490 0.929 . S
C509 C506 1.388 . S
C509 N508 1.397 . S
C510 H491 0.929 . S
C510 C507 1.404 . S
C510 N508 1.334 . S
C511 H503 0.930 . S
C511 C506 1.418 . S
C511 C507 1.353 . S
C512 H482 0.930 . S
C512 N513 1.330 . S
C512 C514 1.446 . S
N513 Co472 2.151 . S
N513 C512 1.330 . S
N513 C517 1.418 . S
C514 H493 0.929 . S
C514 C512 1.446 . S
C514 C515 1.332 . S
C515 H495 0.931 . S
C515 C514 1.332 . S
C515 C516 1.267 . S
C516 H484 0.929 . S
C516 C515 1.267 . S
C516 C517 1.251 . S
C517 H487 0.929 . S
C517 N513 1.418 . S
C517 C516 1.251 . S
C518 H485 0.930 . S
C518 C520 1.406 . S
C518 C523 1.261 . S
C519 H486 0.930 . S
C519 N521 1.325 . S
C519 C522 1.357 . S
C520 H488 0.928 . S
C520 C518 1.406 . S
C520 N521 1.261 . S
N521 Co472 2.214 . S
N521 C519 1.325 . S
N521 C520 1.261 . S
C522 H492 0.931 . S
C522 C519 1.357 . S
C522 C523 1.312 . S
C523 H494 0.930 . S
C523 C518 1.261 . S
C523 C522 1.312 . S
C524 O496 1.214 . S
C524 O504 1.234 . S
C525 H497 0.929 . S
C525 C528 1.391 . S
C525 C530 1.391 . S
C526 H498 0.929 . S
C526 C527 1.390 . S
C526 N529 1.391 . S
C527 H499 0.930 . S
C527 C526 1.390 . S
C527 C528 1.392 . S
C528 H500 0.929 . S
C528 C525 1.391 . S
C528 C527 1.392 . S
N529 Co473 2.257 . S
N529 C526 1.391 . S
N529 C530 1.388 . S
C530 H501 0.930 . S
C530 C525 1.391 . S
C530 N529 1.388 . S
Co531 O533 2.143 . S
Co531 O539 2.074 . S
Co531 O542 2.093 . S
Co531 O555 2.097 . S
Co531 N572 2.151 . S
Co531 N580 2.214 . S
Co532 O533 2.160 . S
Co532 O538 2.058 . S
Co532 O548 2.057 . S
Co532 O563 2.037 . S
Co532 N567 2.145 . S
Co532 N588 2.257 . S
O533 Co531 2.143 . S
O533 Co532 2.160 . S
C534 O535 1.278 . S
C534 O542 1.224 . S
O535 C534 1.278 . S
C536 O537 1.245 . S
C536 O548 1.232 . S
O537 C536 1.245 . S
O538 Co532 2.058 . S
O538 C564 1.269 . S
O539 Co531 2.074 . S
O539 C564 1.257 . S
H540 C565 0.930 . S
H541 C571 0.930 . S
O542 Co531 2.093 . S
O542 C534 1.224 . S
H543 C575 0.929 . S
H544 C577 0.930 . S
H545 C578 0.930 . S
H546 C576 0.929 . S
H547 C579 0.928 . S
O548 Co532 2.057 . S
O548 C536 1.232 . S
H549 C568 0.929 . S
H550 C569 0.929 . S
H551 C581 0.931 . S
H552 C573 0.929 . S
H553 C582 0.930 . S
H554 C574 0.931 . S
O555 Co531 2.097 . S
O555 C583 1.214 . S
H556 C584 0.929 . S
H557 C585 0.929 . S
H558 C586 0.930 . S
H559 C587 0.929 . S
H560 C589 0.930 . S
H561 C566 0.930 . S
H562 C570 0.930 . S
O563 Co532 2.037 . S
O563 C583 1.234 . S
C564 O538 1.269 . S
C564 O539 1.257 . S
C565 H540 0.930 . S
C565 C568 1.388 . S
C565 C570 1.418 . S
C566 H561 0.930 . S
C566 C569 1.404 . S
C566 C570 1.353 . S
N567 Co532 2.145 . S
N567 C568 1.397 . S
N567 C569 1.334 . S
C568 H549 0.929 . S
C568 C565 1.388 . S
C568 N567 1.397 . S
C569 H550 0.929 . S
C569 C566 1.404 . S
C569 N567 1.334 . S
C570 H562 0.930 . S
C570 C565 1.418 . S
C570 C566 1.353 . S
C571 H541 0.930 . S
C571 N572 1.330 . S
C571 C573 1.446 . S
N572 Co531 2.151 . S
N572 C571 1.330 . S
N572 C576 1.418 . S
C573 H552 0.929 . S
C573 C571 1.446 . S
C573 C574 1.332 . S
C574 H554 0.931 . S
C574 C573 1.332 . S
C574 C575 1.267 . S
C575 H543 0.929 . S
C575 C574 1.267 . S
C575 C576 1.251 . S
C576 H546 0.929 . S
C576 N572 1.418 . S
C576 C575 1.251 . S
C577 H544 0.930 . S
C577 C579 1.406 . S
C577 C582 1.261 . S
C578 H545 0.930 . S
C578 N580 1.325 . S
C578 C581 1.357 . S
C579 H547 0.928 . S
C579 C577 1.406 . S
C579 N580 1.261 . S
N580 Co531 2.214 . S
N580 C578 1.325 . S
N580 C579 1.261 . S
C581 H551 0.931 . S
C581 C578 1.357 . S
C581 C582 1.312 . S
C582 H553 0.930 . S
C582 C577 1.261 . S
C582 C581 1.312 . S
C583 O555 1.214 . S
C583 O563 1.234 . S
C584 H556 0.929 . S
C584 C587 1.391 . S
C584 C589 1.391 . S
C585 H557 0.929 . S
C585 C586 1.390 . S
C585 N588 1.391 . S
C586 H558 0.930 . S
C586 C585 1.390 . S
C586 C587 1.392 . S
C587 H559 0.929 . S
C587 C584 1.391 . S
C587 C586 1.392 . S
N588 Co532 2.257 . S
N588 C585 1.391 . S
N588 C589 1.388 . S
C589 H560 0.930 . S
C589 C584 1.391 . S
C589 N588 1.388 . S
Co590 O592 2.143 . S
Co590 O598 2.074 . S
Co590 O601 2.093 . S
Co590 O614 2.097 . S
Co590 N631 2.151 . S
Co590 N639 2.214 . S
Co591 O592 2.160 . S
Co591 O597 2.058 . S
Co591 O607 2.057 . S
Co591 O622 2.037 . S
Co591 N626 2.145 . S
Co591 N647 2.257 . S
O592 Co590 2.143 . S
O592 Co591 2.160 . S
C593 O594 1.278 . S
C593 O601 1.224 . S
O594 C593 1.278 . S
C595 O596 1.245 . S
C595 O607 1.232 . S
O596 C595 1.245 . S
O597 Co591 2.058 . S
O597 C623 1.269 . S
O598 Co590 2.074 . S
O598 C623 1.257 . S
H599 C624 0.930 . S
H600 C630 0.930 . S
O601 Co590 2.093 . S
O601 C593 1.224 . S
H602 C634 0.929 . S
H603 C636 0.930 . S
H604 C637 0.930 . S
H605 C635 0.929 . S
H606 C638 0.928 . S
O607 Co591 2.057 . S
O607 C595 1.232 . S
H608 C627 0.929 . S
H609 C628 0.929 . S
H610 C640 0.931 . S
H611 C632 0.929 . S
H612 C641 0.930 . S
H613 C633 0.931 . S
O614 Co590 2.097 . S
O614 C642 1.214 . S
H615 C643 0.929 . S
H616 C644 0.929 . S
H617 C645 0.930 . S
H618 C646 0.929 . S
H619 C648 0.930 . S
H620 C625 0.930 . S
H621 C629 0.930 . S
O622 Co591 2.037 . S
O622 C642 1.234 . S
C623 O597 1.269 . S
C623 O598 1.257 . S
C624 H599 0.930 . S
C624 C627 1.388 . S
C624 C629 1.418 . S
C625 H620 0.930 . S
C625 C628 1.404 . S
C625 C629 1.353 . S
N626 Co591 2.145 . S
N626 C627 1.397 . S
N626 C628 1.334 . S
C627 H608 0.929 . S
C627 C624 1.388 . S
C627 N626 1.397 . S
C628 H609 0.929 . S
C628 C625 1.404 . S
C628 N626 1.334 . S
C629 H621 0.930 . S
C629 C624 1.418 . S
C629 C625 1.353 . S
C630 H600 0.930 . S
C630 N631 1.330 . S
C630 C632 1.446 . S
N631 Co590 2.151 . S
N631 C630 1.330 . S
N631 C635 1.418 . S
C632 H611 0.929 . S
C632 C630 1.446 . S
C632 C633 1.332 . S
C633 H613 0.931 . S
C633 C632 1.332 . S
C633 C634 1.267 . S
C634 H602 0.929 . S
C634 C633 1.267 . S
C634 C635 1.251 . S
C635 H605 0.929 . S
C635 N631 1.418 . S
C635 C634 1.251 . S
C636 H603 0.930 . S
C636 C638 1.406 . S
C636 C641 1.261 . S
C637 H604 0.930 . S
C637 N639 1.325 . S
C637 C640 1.357 . S
C638 H606 0.928 . S
C638 C636 1.406 . S
C638 N639 1.261 . S
N639 Co590 2.214 . S
N639 C637 1.325 . S
N639 C638 1.261 . S
C640 H610 0.931 . S
C640 C637 1.357 . S
C640 C641 1.312 . S
C641 H612 0.930 . S
C641 C636 1.261 . S
C641 C640 1.312 . S
C642 O614 1.214 . S
C642 O622 1.234 . S
C643 H615 0.929 . S
C643 C646 1.391 . S
C643 C648 1.391 . S
C644 H616 0.929 . S
C644 C645 1.390 . S
C644 N647 1.391 . S
C645 H617 0.930 . S
C645 C644 1.390 . S
C645 C646 1.392 . S
C646 H618 0.929 . S
C646 C643 1.391 . S
C646 C645 1.392 . S
N647 Co591 2.257 . S
N647 C644 1.391 . S
N647 C648 1.388 . S
C648 H619 0.930 . S
C648 C643 1.391 . S
C648 N647 1.388 . S
Co649 O651 2.143 . S
Co649 O657 2.074 . S
Co649 O660 2.093 . S
Co649 O673 2.097 . S
Co649 N690 2.151 . S
Co649 N698 2.214 . S
Co650 O651 2.160 . S
Co650 O656 2.058 . S
Co650 O666 2.057 . S
Co650 O681 2.037 . S
Co650 N685 2.145 . S
Co650 N706 2.257 . S
O651 Co649 2.143 . S
O651 Co650 2.160 . S
C652 O653 1.278 . S
C652 O660 1.224 . S
O653 C652 1.278 . S
C654 O655 1.245 . S
C654 O666 1.232 . S
O655 C654 1.245 . S
O656 Co650 2.058 . S
O656 C682 1.269 . S
O657 Co649 2.074 . S
O657 C682 1.257 . S
H658 C683 0.930 . S
H659 C689 0.930 . S
O660 Co649 2.093 . S
O660 C652 1.224 . S
H661 C693 0.929 . S
H662 C695 0.930 . S
H663 C696 0.930 . S
H664 C694 0.929 . S
H665 C697 0.928 . S
O666 Co650 2.057 . S
O666 C654 1.232 . S
H667 C686 0.929 . S
H668 C687 0.929 . S
H669 C699 0.931 . S
H670 C691 0.929 . S
H671 C700 0.930 . S
H672 C692 0.931 . S
O673 Co649 2.097 . S
O673 C701 1.214 . S
H674 C702 0.929 . S
H675 C703 0.929 . S
H676 C704 0.930 . S
H677 C705 0.929 . S
H678 C707 0.930 . S
H679 C684 0.930 . S
H680 C688 0.930 . S
O681 Co650 2.037 . S
O681 C701 1.234 . S
C682 O656 1.269 . S
C682 O657 1.257 . S
C683 H658 0.930 . S
C683 C686 1.388 . S
C683 C688 1.418 . S
C684 H679 0.930 . S
C684 C687 1.404 . S
C684 C688 1.353 . S
N685 Co650 2.145 . S
N685 C686 1.397 . S
N685 C687 1.334 . S
C686 H667 0.929 . S
C686 C683 1.388 . S
C686 N685 1.397 . S
C687 H668 0.929 . S
C687 C684 1.404 . S
C687 N685 1.334 . S
C688 H680 0.930 . S
C688 C683 1.418 . S
C688 C684 1.353 . S
C689 H659 0.930 . S
C689 N690 1.330 . S
C689 C691 1.446 . S
N690 Co649 2.151 . S
N690 C689 1.330 . S
N690 C694 1.418 . S
C691 H670 0.929 . S
C691 C689 1.446 . S
C691 C692 1.332 . S
C692 H672 0.931 . S
C692 C691 1.332 . S
C692 C693 1.267 . S
C693 H661 0.929 . S
C693 C692 1.267 . S
C693 C694 1.251 . S
C694 H664 0.929 . S
C694 N690 1.418 . S
C694 C693 1.251 . S
C695 H662 0.930 . S
C695 C697 1.406 . S
C695 C700 1.261 . S
C696 H663 0.930 . S
C696 N698 1.325 . S
C696 C699 1.357 . S
C697 H665 0.928 . S
C697 C695 1.406 . S
C697 N698 1.261 . S
N698 Co649 2.214 . S
N698 C696 1.325 . S
N698 C697 1.261 . S
C699 H669 0.931 . S
C699 C696 1.357 . S
C699 C700 1.312 . S
C700 H671 0.930 . S
C700 C695 1.261 . S
C700 C699 1.312 . S
C701 O673 1.214 . S
C701 O681 1.234 . S
C702 H674 0.929 . S
C702 C705 1.391 . S
C702 C707 1.391 . S
C703 H675 0.929 . S
C703 C704 1.390 . S
C703 N706 1.391 . S
C704 H676 0.930 . S
C704 C703 1.390 . S
C704 C705 1.392 . S
C705 H677 0.929 . S
C705 C702 1.391 . S
C705 C704 1.392 . S
N706 Co650 2.257 . S
N706 C703 1.391 . S
N706 C707 1.388 . S
C707 H678 0.930 . S
C707 C702 1.391 . S
C707 N706 1.388 . S
H708 C720 0.930 . S
H709 C722 0.930 . S
H710 C723 0.930 . S
H711 C727 0.963 . S
H712 C727 0.959 1_554 S
H713 C727 0.961 . S
H714 C728 0.910 1_556 S
H715 C728 1.006 . S
H716 C728 0.970 . S
H717 C731 0.929 . S
H718 C732 0.931 . S
H719 C734 0.930 . S
C720 H708 0.930 . S
C720 C721 1.399 . S
C720 C725 1.399 . S
C721 C720 1.399 . S
C721 C722 1.376 . S
C722 H709 0.930 . S
C722 C721 1.376 . S
C722 C723 1.388 . S
C723 H710 0.930 . S
C723 C722 1.388 . S
C723 C724 1.390 . S
C724 C723 1.390 . S
C724 C725 1.394 . S
C724 C730 1.465 1_556 S
C725 C720 1.399 . S
C725 C724 1.394 . S
C725 C726 1.524 . S
C726 C725 1.524 . S
C726 C727 1.502 . S
C726 C728 1.559 1_556 S
C726 C729 1.518 1_556 S
C727 H711 0.963 . S
C727 H712 0.959 1_556 S
C727 H713 0.961 . S
C727 C726 1.502 . S
C728 H714 0.910 1_554 S
C728 H715 1.006 . S
C728 H716 0.970 . S
C728 C726 1.559 1_554 S
C729 C726 1.518 1_554 S
C729 C730 1.396 . S
C729 C734 1.390 . S
C730 C724 1.465 1_554 S
C730 C729 1.396 . S
C730 C731 1.399 . S
C731 H717 0.929 . S
C731 C730 1.399 . S
C731 C732 1.385 . S
C732 H718 0.931 . S
C732 C731 1.385 . S
C732 C733 1.389 . S
C733 C732 1.389 . S
C733 C734 1.387 . S
C734 H719 0.930 . S
C734 C729 1.390 . S
C734 C733 1.387 . S
H735 C747 0.930 . S
H736 C749 0.930 . S
H737 C750 0.930 . S
H738 C754 0.959 . S
H739 C754 0.959 . S
H740 C754 0.961 . S
H741 C755 0.960 . S
H742 C755 0.961 . S
H743 C755 0.959 . S
H744 C758 0.929 . S
H745 C759 0.931 . S
H746 C761 0.930 . S
C747 H735 0.930 . S
C747 C748 1.399 . S
C747 C752 1.399 . S
C748 C747 1.399 . S
C748 C749 1.376 . S
C749 H736 0.930 . S
C749 C748 1.376 . S
C749 C750 1.388 . S
C750 H737 0.930 . S
C750 C749 1.388 . S
C750 C751 1.390 . S
C751 C750 1.390 . S
C751 C752 1.394 . S
C751 C757 1.465 . S
C752 C747 1.399 . S
C752 C751 1.394 . S
C752 C753 1.516 . S
C753 C752 1.516 . S
C753 C754 1.502 . S
C753 C755 1.561 . S
C753 C756 1.526 . S
C754 H738 0.959 . S
C754 H739 0.959 . S
C754 H740 0.961 . S
C754 C753 1.502 . S
C755 H741 0.960 . S
C755 H742 0.961 . S
C755 H743 0.959 . S
C755 C753 1.561 . S
C756 C753 1.526 . S
C756 C757 1.396 . S
C756 C761 1.390 . S
C757 C751 1.465 . S
C757 C756 1.396 . S
C757 C758 1.399 . S
C758 H744 0.929 . S
C758 C757 1.399 . S
C758 C759 1.385 . S
C759 H745 0.931 . S
C759 C758 1.385 . S
C759 C760 1.389 . S
C760 C759 1.389 . S
C760 C761 1.387 . S
C761 H746 0.930 . S
C761 C756 1.390 . S
C761 C760 1.387 . S
H762 C774 0.930 . S
H763 C776 0.930 . S
H764 C777 0.930 . S
H765 C781 0.959 . S
H766 C781 0.959 . S
H767 C781 0.961 . S
H768 C782 0.960 . S
H769 C782 0.961 . S
H770 C782 0.959 . S
H771 C785 0.929 . S
H772 C786 0.931 . S
H773 C788 0.930 . S
C774 H762 0.930 . S
C774 C775 1.399 . S
C774 C779 1.399 . S
C775 C774 1.399 . S
C775 C776 1.376 . S
C776 H763 0.930 . S
C776 C775 1.376 . S
C776 C777 1.388 . S
C777 H764 0.930 . S
C777 C776 1.388 . S
C777 C778 1.390 . S
C778 C777 1.390 . S
C778 C779 1.394 . S
C778 C784 1.465 . S
C779 C774 1.399 . S
C779 C778 1.394 . S
C779 C780 1.516 . S
C780 C779 1.516 . S
C780 C781 1.502 . S
C780 C782 1.561 . S
C780 C783 1.526 . S
C781 H765 0.959 . S
C781 H766 0.959 . S
C781 H767 0.961 . S
C781 C780 1.502 . S
C782 H768 0.960 . S
C782 H769 0.961 . S
C782 H770 0.959 . S
C782 C780 1.561 . S
C783 C780 1.526 . S
C783 C784 1.396 . S
C783 C788 1.390 . S
C784 C778 1.465 . S
C784 C783 1.396 . S
C784 C785 1.399 . S
C785 H771 0.929 . S
C785 C784 1.399 . S
C785 C786 1.385 . S
C786 H772 0.931 . S
C786 C785 1.385 . S
C786 C787 1.389 . S
C787 C786 1.389 . S
C787 C788 1.387 . S
C788 H773 0.930 . S
C788 C783 1.390 . S
C788 C787 1.387 . S
H789 C801 0.930 . S
H790 C803 0.930 . S
H791 C804 0.930 . S
H792 C808 0.959 . S
H793 C808 0.959 . S
H794 C808 0.961 1_554 S
H795 C809 1.005 . S
H796 C809 0.920 1_556 S
H797 C809 0.959 . S
H798 C812 0.929 . S
H799 C813 0.931 . S
H800 C815 0.930 . S
C801 H789 0.930 . S
C801 C802 1.399 . S
C801 C806 1.399 . S
C802 C801 1.399 . S
C802 C803 1.376 . S
C803 H790 0.930 . S
C803 C802 1.376 . S
C803 C804 1.388 . S
C804 H791 0.930 . S
C804 C803 1.388 . S
C804 C805 1.390 . S
C805 C804 1.390 . S
C805 C806 1.394 . S
C805 C811 1.465 1_554 S
C806 C801 1.399 . S
C806 C805 1.394 . S
C806 C807 1.506 1_554 S
C807 C806 1.506 1_556 S
C807 C808 1.503 . S
C807 C809 1.559 1_556 S
C807 C810 1.536 . S
C808 H792 0.959 . S
C808 H793 0.959 . S
C808 H794 0.961 1_556 S
C808 C807 1.503 . S
C809 H795 1.005 . S
C809 H796 0.920 1_554 S
C809 H797 0.959 . S
C809 C807 1.559 1_554 S
C810 C807 1.536 . S
C810 C811 1.396 . S
C810 C815 1.390 . S
C811 C805 1.465 1_556 S
C811 C810 1.396 . S
C811 C812 1.399 . S
C812 H798 0.929 . S
C812 C811 1.399 . S
C812 C813 1.385 . S
C813 H799 0.931 . S
C813 C812 1.385 . S
C813 C814 1.389 . S
C814 C813 1.389 . S
C814 C815 1.387 . S
C815 H800 0.930 . S
C815 C810 1.390 . S
C815 C814 1.387 . S
H816 C828 0.930 . S
H817 C830 0.930 . S
H818 C831 0.930 . S
H819 C835 0.959 . S
H820 C835 0.959 . S
H821 C835 0.961 . S
H822 C836 0.960 . S
H823 C836 0.961 . S
H824 C836 0.959 . S
H825 C839 0.929 . S
H826 C840 0.931 . S
H827 C842 0.930 . S
C828 H816 0.930 . S
C828 C829 1.399 . S
C828 C833 1.399 . S
C829 C828 1.399 . S
C829 C830 1.376 . S
C830 H817 0.930 . S
C830 C829 1.376 . S
C830 C831 1.388 . S
C831 H818 0.930 . S
C831 C830 1.388 . S
C831 C832 1.390 . S
C832 C831 1.390 . S
C832 C833 1.394 . S
C832 C838 1.465 . S
C833 C828 1.399 . S
C833 C832 1.394 . S
C833 C834 1.516 . S
C834 C833 1.516 . S
C834 C835 1.502 . S
C834 C836 1.561 . S
C834 C837 1.526 . S
C835 H819 0.959 . S
C835 H820 0.959 . S
C835 H821 0.961 . S
C835 C834 1.502 . S
C836 H822 0.960 . S
C836 H823 0.961 . S
C836 H824 0.959 . S
C836 C834 1.561 . S
C837 C834 1.526 . S
C837 C838 1.396 . S
C837 C842 1.390 . S
C838 C832 1.465 . S
C838 C837 1.396 . S
C838 C839 1.399 . S
C839 H825 0.929 . S
C839 C838 1.399 . S
C839 C840 1.385 . S
C840 H826 0.931 . S
C840 C839 1.385 . S
C840 C841 1.389 . S
C841 C840 1.389 . S
C841 C842 1.387 . S
C842 H827 0.930 . S
C842 C837 1.390 . S
C842 C841 1.387 . S
H843 C855 0.930 . S
H844 C857 0.930 . S
H845 C858 0.930 . S
H846 C862 0.959 . S
H847 C862 0.959 . S
H848 C862 0.961 . S
H849 C863 0.960 . S
H850 C863 0.961 . S
H851 C863 0.959 . S
H852 C866 0.929 . S
H853 C867 0.931 . S
H854 C869 0.930 . S
C855 H843 0.930 . S
C855 C856 1.399 . S
C855 C860 1.399 . S
C856 C855 1.399 . S
C856 C857 1.376 . S
C857 H844 0.930 . S
C857 C856 1.376 . S
C857 C858 1.388 . S
C858 H845 0.930 . S
C858 C857 1.388 . S
C858 C859 1.390 . S
C859 C858 1.390 . S
C859 C860 1.394 . S
C859 C865 1.465 . S
C860 C855 1.399 . S
C860 C859 1.394 . S
C860 C861 1.516 . S
C861 C860 1.516 . S
C861 C862 1.502 . S
C861 C863 1.561 . S
C861 C864 1.526 . S
C862 H846 0.959 . S
C862 H847 0.959 . S
C862 H848 0.961 . S
C862 C861 1.502 . S
C863 H849 0.960 . S
C863 H850 0.961 . S
C863 H851 0.959 . S
C863 C861 1.561 . S
C864 C861 1.526 . S
C864 C865 1.396 . S
C864 C869 1.390 . S
C865 C859 1.465 . S
C865 C864 1.396 . S
C865 C866 1.399 . S
C866 H852 0.929 . S
C866 C865 1.399 . S
C866 C867 1.385 . S
C867 H853 0.931 . S
C867 C866 1.385 . S
C867 C868 1.389 . S
C868 C867 1.389 . S
C868 C869 1.387 . S
C869 H854 0.930 . S
C869 C864 1.390 . S
C869 C868 1.387 . S
H870 C882 0.930 . S
H871 C884 0.930 . S
H872 C885 0.930 . S
H873 C889 0.959 . S
H874 C889 0.959 . S
H875 C889 0.961 . S
H876 C890 0.960 . S
H877 C890 0.961 . S
H878 C890 0.959 . S
H879 C893 0.929 . S
H880 C894 0.931 . S
H881 C896 0.930 . S
C882 H870 0.930 . S
C882 C883 1.399 . S
C882 C887 1.399 . S
C883 C882 1.399 . S
C883 C884 1.376 . S
C884 H871 0.930 . S
C884 C883 1.376 . S
C884 C885 1.388 . S
C885 H872 0.930 . S
C885 C884 1.388 . S
C885 C886 1.390 . S
C886 C885 1.390 . S
C886 C887 1.394 . S
C886 C892 1.465 . S
C887 C882 1.399 . S
C887 C886 1.394 . S
C887 C888 1.516 . S
C888 C887 1.516 . S
C888 C889 1.502 . S
C888 C890 1.561 . S
C888 C891 1.526 . S
C889 H873 0.959 . S
C889 H874 0.959 . S
C889 H875 0.961 . S
C889 C888 1.502 . S
C890 H876 0.960 . S
C890 H877 0.961 . S
C890 H878 0.959 . S
C890 C888 1.561 . S
C891 C888 1.526 . S
C891 C892 1.396 . S
C891 C896 1.390 . S
C892 C886 1.465 . S
C892 C891 1.396 . S
C892 C893 1.399 . S
C893 H879 0.929 . S
C893 C892 1.399 . S
C893 C894 1.385 . S
C894 H880 0.931 . S
C894 C893 1.385 . S
C894 C895 1.389 . S
C895 C894 1.389 . S
C895 C896 1.387 . S
C896 H881 0.930 . S
C896 C891 1.390 . S
C896 C895 1.387 . S
H897 C909 0.930 . S
H898 C911 0.930 . S
H899 C912 0.930 . S
H900 C916 0.959 . S
H901 C916 0.959 . S
H902 C916 0.961 . S
H903 C917 0.960 . S
H904 C917 0.961 . S
H905 C917 0.959 . S
H906 C920 0.929 . S
H907 C921 0.931 . S
H908 C923 0.930 . S
C909 H897 0.930 . S
C909 C910 1.399 . S
C909 C914 1.399 . S
C910 C909 1.399 . S
C910 C911 1.376 . S
C911 H898 0.930 . S
C911 C910 1.376 . S
C911 C912 1.388 . S
C912 H899 0.930 . S
C912 C911 1.388 . S
C912 C913 1.390 . S
C913 C912 1.390 . S
C913 C914 1.394 . S
C913 C919 1.465 . S
C914 C909 1.399 . S
C914 C913 1.394 . S
C914 C915 1.516 . S
C915 C914 1.516 . S
C915 C916 1.502 . S
C915 C917 1.561 . S
C915 C918 1.526 . S
C916 H900 0.959 . S
C916 H901 0.959 . S
C916 H902 0.961 . S
C916 C915 1.502 . S
C917 H903 0.960 . S
C917 H904 0.961 . S
C917 H905 0.959 . S
C917 C915 1.561 . S
C918 C915 1.526 . S
C918 C919 1.396 . S
C918 C923 1.390 . S
C919 C913 1.465 . S
C919 C918 1.396 . S
C919 C920 1.399 . S
C920 H906 0.929 . S
C920 C919 1.399 . S
C920 C921 1.385 . S
C921 H907 0.931 . S
C921 C920 1.385 . S
C921 C922 1.389 . S
C922 C921 1.389 . S
C922 C923 1.387 . S
C923 H908 0.930 . S
C923 C918 1.390 . S
C923 C922 1.387 . S
H924 C936 0.930 . S
H925 C938 0.930 . S
H926 C939 0.930 . S
H927 C943 0.959 . S
H928 C943 0.959 . S
H929 C943 0.961 . S
H930 C944 0.960 . S
H931 C944 0.961 . S
H932 C944 0.959 . S
H933 C947 0.929 . S
H934 C948 0.931 . S
H935 C950 0.930 . S
C936 H924 0.930 . S
C936 C937 1.399 . S
C936 C941 1.399 . S
C937 C936 1.399 . S
C937 C938 1.376 . S
C938 H925 0.930 . S
C938 C937 1.376 . S
C938 C939 1.388 . S
C939 H926 0.930 . S
C939 C938 1.388 . S
C939 C940 1.390 . S
C940 C939 1.390 . S
C940 C941 1.394 . S
C940 C946 1.465 . S
C941 C936 1.399 . S
C941 C940 1.394 . S
C941 C942 1.516 . S
C942 C941 1.516 . S
C942 C943 1.502 . S
C942 C944 1.561 . S
C942 C945 1.526 . S
C943 H927 0.959 . S
C943 H928 0.959 . S
C943 H929 0.961 . S
C943 C942 1.502 . S
C944 H930 0.960 . S
C944 H931 0.961 . S
C944 H932 0.959 . S
C944 C942 1.561 . S
C945 C942 1.526 . S
C945 C946 1.396 . S
C945 C950 1.390 . S
C946 C940 1.465 . S
C946 C945 1.396 . S
C946 C947 1.399 . S
C947 H933 0.929 . S
C947 C946 1.399 . S
C947 C948 1.385 . S
C948 H934 0.931 . S
C948 C947 1.385 . S
C948 C949 1.389 . S
C949 C948 1.389 . S
C949 C950 1.387 . S
C950 H935 0.930 . S
C950 C945 1.390 . S
C950 C949 1.387 . S
H951 C963 0.930 . S
H952 C965 0.930 . S
H953 C966 0.930 . S
H954 C970 0.959 . S
H955 C970 0.959 . S
H956 C970 0.961 . S
H957 C971 0.960 . S
H958 C971 0.961 . S
H959 C971 0.959 . S
H960 C974 0.929 . S
H961 C975 0.931 . S
H962 C977 0.930 . S
C963 H951 0.930 . S
C963 C964 1.399 . S
C963 C968 1.399 . S
C964 C963 1.399 . S
C964 C965 1.376 . S
C965 H952 0.930 . S
C965 C964 1.376 . S
C965 C966 1.388 . S
C966 H953 0.930 . S
C966 C965 1.388 . S
C966 C967 1.390 . S
C967 C966 1.390 . S
C967 C968 1.394 . S
C967 C973 1.465 . S
C968 C963 1.399 . S
C968 C967 1.394 . S
C968 C969 1.516 . S
C969 C968 1.516 . S
C969 C970 1.502 . S
C969 C971 1.561 . S
C969 C972 1.526 . S
C970 H954 0.959 . S
C970 H955 0.959 . S
C970 H956 0.961 . S
C970 C969 1.502 . S
C971 H957 0.960 . S
C971 H958 0.961 . S
C971 H959 0.959 . S
C971 C969 1.561 . S
C972 C969 1.526 . S
C972 C973 1.396 . S
C972 C977 1.390 . S
C973 C967 1.465 . S
C973 C972 1.396 . S
C973 C974 1.399 . S
C974 H960 0.929 . S
C974 C973 1.399 . S
C974 C975 1.385 . S
C975 H961 0.931 . S
C975 C974 1.385 . S
C975 C976 1.389 . S
C976 C975 1.389 . S
C976 C977 1.387 . S
C977 H962 0.930 . S
C977 C972 1.390 . S
C977 C976 1.387 . S
H978 C990 0.930 . S
H979 C992 0.930 . S
H980 C993 0.930 . S
H981 C997 0.959 . S
H982 C997 0.959 . S
H983 C997 0.961 . S
H984 C998 0.960 . S
H985 C998 0.961 . S
H986 C998 0.959 . S
H987 C1001 0.929 . S
H988 C1002 0.931 . S
H989 C1004 0.930 . S
C990 H978 0.930 . S
C990 C991 1.399 . S
C990 C995 1.399 . S
C991 C990 1.399 . S
C991 C992 1.376 . S
C992 H979 0.930 . S
C992 C991 1.376 . S
C992 C993 1.388 . S
C993 H980 0.930 . S
C993 C992 1.388 . S
C993 C994 1.390 . S
C994 C993 1.390 . S
C994 C995 1.394 . S
C994 C1000 1.465 . S
C995 C990 1.399 . S
C995 C994 1.394 . S
C995 C996 1.516 . S
C996 C995 1.516 . S
C996 C997 1.502 . S
C996 C998 1.561 . S
C996 C999 1.526 . S
C997 H981 0.959 . S
C997 H982 0.959 . S
C997 H983 0.961 . S
C997 C996 1.502 . S
C998 H984 0.960 . S
C998 H985 0.961 . S
C998 H986 0.959 . S
C998 C996 1.561 . S
C999 C996 1.526 . S
C999 C1000 1.396 . S
C999 C1004 1.390 . S
C1000 C994 1.465 . S
C1000 C999 1.396 . S
C1000 C1001 1.399 . S
C1001 H987 0.929 . S
C1001 C1000 1.399 . S
C1001 C1002 1.385 . S
C1002 H988 0.931 . S
C1002 C1001 1.385 . S
C1002 C1003 1.389 . S
C1003 C1002 1.389 . S
C1003 C1004 1.387 . S
C1004 H989 0.930 . S
C1004 C999 1.390 . S
C1004 C1003 1.387 . S
H1005 C1017 0.930 . S
H1006 C1019 0.930 . S
H1007 C1020 0.930 . S
H1008 C1024 0.959 . S
H1009 C1024 0.959 . S
H1010 C1024 0.961 . S
H1011 C1025 0.960 . S
H1012 C1025 0.961 . S
H1013 C1025 0.959 . S
H1014 C1028 0.929 . S
H1015 C1029 0.931 . S
H1016 C1031 0.930 . S
C1017 H1005 0.930 . S
C1017 C1018 1.399 . S
C1017 C1022 1.399 . S
C1018 C1017 1.399 . S
C1018 C1019 1.376 . S
C1019 H1006 0.930 . S
C1019 C1018 1.376 . S
C1019 C1020 1.388 . S
C1020 H1007 0.930 . S
C1020 C1019 1.388 . S
C1020 C1021 1.390 . S
C1021 C1020 1.390 . S
C1021 C1022 1.394 . S
C1021 C1027 1.465 . S
C1022 C1017 1.399 . S
C1022 C1021 1.394 . S
C1022 C1023 1.516 . S
C1023 C1022 1.516 . S
C1023 C1024 1.502 . S
C1023 C1025 1.561 . S
C1023 C1026 1.526 . S
C1024 H1008 0.959 . S
C1024 H1009 0.959 . S
C1024 H1010 0.961 . S
C1024 C1023 1.502 . S
C1025 H1011 0.960 . S
C1025 H1012 0.961 . S
C1025 H1013 0.959 . S
C1025 C1023 1.561 . S
C1026 C1023 1.526 . S
C1026 C1027 1.396 . S
C1026 C1031 1.390 . S
C1027 C1021 1.465 . S
C1027 C1026 1.396 . S
C1027 C1028 1.399 . S
C1028 H1014 0.929 . S
C1028 C1027 1.399 . S
C1028 C1029 1.385 . S
C1029 H1015 0.931 . S
C1029 C1028 1.385 . S
C1029 C1030 1.389 . S
C1030 C1029 1.389 . S
C1030 C1031 1.387 . S
C1031 H1016 0.930 . S
C1031 C1026 1.390 . S
C1031 C1030 1.387 . S
H1032 C1044 0.930 . S
H1033 C1046 0.930 . S
H1034 C1047 0.930 . S
H1035 C1051 0.959 . S
H1036 C1051 0.959 . S
H1037 C1051 0.961 1_655 S
H1038 C1052 0.960 . S
H1039 C1052 0.961 1_455 S
H1040 C1052 0.959 . S
H1041 C1055 0.929 . S
H1042 C1056 0.931 . S
H1043 C1058 0.930 . S
C1044 H1032 0.930 . S
C1044 C1045 1.399 . S
C1044 C1049 1.399 . S
C1045 C1044 1.399 . S
C1045 C1046 1.376 . S
C1046 H1033 0.930 . S
C1046 C1045 1.376 . S
C1046 C1047 1.388 . S
C1047 H1034 0.930 . S
C1047 C1046 1.388 . S
C1047 C1048 1.390 . S
C1048 C1047 1.390 . S
C1048 C1049 1.394 . S
C1048 C1054 1.465 1_655 S
C1049 C1044 1.399 . S
C1049 C1048 1.394 . S
C1049 C1050 1.516 1_655 S
C1050 C1049 1.516 1_455 S
C1050 C1051 1.502 . S
C1050 C1052 1.561 1_455 S
C1050 C1053 1.526 . S
C1051 H1035 0.959 . S
C1051 H1036 0.959 . S
C1051 H1037 0.961 1_455 S
C1051 C1050 1.502 . S
C1052 H1038 0.960 . S
C1052 H1039 0.961 1_655 S
C1052 H1040 0.959 . S
C1052 C1050 1.561 1_655 S
C1053 C1050 1.526 . S
C1053 C1054 1.396 . S
C1053 C1058 1.390 . S
C1054 C1048 1.465 1_455 S
C1054 C1053 1.396 . S
C1054 C1055 1.399 . S
C1055 H1041 0.929 . S
C1055 C1054 1.399 . S
C1055 C1056 1.385 . S
C1056 H1042 0.931 . S
C1056 C1055 1.385 . S
C1056 C1057 1.389 . S
C1057 C1056 1.389 . S
C1057 C1058 1.387 . S
C1058 H1043 0.930 . S
C1058 C1053 1.390 . S
C1058 C1057 1.387 . S
H1059 C1071 0.930 . S
H1060 C1073 0.930 . S
H1061 C1074 0.930 . S
H1062 C1078 0.959 . S
H1063 C1078 0.959 . S
H1064 C1078 0.961 1_545 S
H1065 C1079 0.960 . S
H1066 C1079 0.961 1_565 S
H1067 C1079 0.959 . S
H1068 C1082 0.929 . S
H1069 C1083 0.931 . S
H1070 C1085 0.930 . S
C1071 H1059 0.930 . S
C1071 C1072 1.399 . S
C1071 C1076 1.399 . S
C1072 C1071 1.399 . S
C1072 C1073 1.376 . S
C1073 H1060 0.930 . S
C1073 C1072 1.376 . S
C1073 C1074 1.388 . S
C1074 H1061 0.930 . S
C1074 C1073 1.388 . S
C1074 C1075 1.390 . S
C1075 C1074 1.390 . S
C1075 C1076 1.394 . S
C1075 C1081 1.465 1_545 S
C1076 C1071 1.399 . S
C1076 C1075 1.394 . S
C1076 C1077 1.516 1_545 S
C1077 C1076 1.516 1_565 S
C1077 C1078 1.502 . S
C1077 C1079 1.561 1_565 S
C1077 C1080 1.526 . S
C1078 H1062 0.959 . S
C1078 H1063 0.959 . S
C1078 H1064 0.961 1_565 S
C1078 C1077 1.502 . S
C1079 H1065 0.960 . S
C1079 H1066 0.961 1_545 S
C1079 H1067 0.959 . S
C1079 C1077 1.561 1_545 S
C1080 C1077 1.526 . S
C1080 C1081 1.396 . S
C1080 C1085 1.390 . S
C1081 C1075 1.465 1_565 S
C1081 C1080 1.396 . S
C1081 C1082 1.399 . S
C1082 H1068 0.929 . S
C1082 C1081 1.399 . S
C1082 C1083 1.385 . S
C1083 H1069 0.931 . S
C1083 C1082 1.385 . S
C1083 C1084 1.389 . S
C1084 C1083 1.389 . S
C1084 C1085 1.387 . S
C1085 H1070 0.930 . S
C1085 C1080 1.390 . S
C1085 C1084 1.387 . S
H1086 C1098 0.930 . S
H1087 C1100 0.930 . S
H1088 C1101 0.930 . S
H1089 C1105 0.959 . S
H1090 C1105 0.959 . S
H1091 C1105 0.961 . S
H1092 C1106 0.960 . S
H1093 C1106 0.961 . S
H1094 C1106 0.959 . S
H1095 C1109 0.929 . S
H1096 C1110 0.931 . S
H1097 C1112 0.930 . S
C1098 H1086 0.930 . S
C1098 C1099 1.399 . S
C1098 C1103 1.399 . S
C1099 C1098 1.399 . S
C1099 C1100 1.376 . S
C1100 H1087 0.930 . S
C1100 C1099 1.376 . S
C1100 C1101 1.388 . S
C1101 H1088 0.930 . S
C1101 C1100 1.388 . S
C1101 C1102 1.390 . S
C1102 C1101 1.390 . S
C1102 C1103 1.394 . S
C1102 C1108 1.465 . S
C1103 C1098 1.399 . S
C1103 C1102 1.394 . S
C1103 C1104 1.516 . S
C1104 C1103 1.516 . S
C1104 C1105 1.502 . S
C1104 C1106 1.561 . S
C1104 C1107 1.526 . S
C1105 H1089 0.959 . S
C1105 H1090 0.959 . S
C1105 H1091 0.961 . S
C1105 C1104 1.502 . S
C1106 H1092 0.960 . S
C1106 H1093 0.961 . S
C1106 H1094 0.959 . S
C1106 C1104 1.561 . S
C1107 C1104 1.526 . S
C1107 C1108 1.396 . S
C1107 C1112 1.390 . S
C1108 C1102 1.465 . S
C1108 C1107 1.396 . S
C1108 C1109 1.399 . S
C1109 H1095 0.929 . S
C1109 C1108 1.399 . S
C1109 C1110 1.385 . S
C1110 H1096 0.931 . S
C1110 C1109 1.385 . S
C1110 C1111 1.389 . S
C1111 C1110 1.389 . S
C1111 C1112 1.387 . S
C1112 H1097 0.930 . S
C1112 C1107 1.390 . S
C1112 C1111 1.387 . S
H1113 C1125 0.930 . S
H1114 C1127 0.930 . S
H1115 C1128 0.930 . S
H1116 C1132 0.959 . S
H1117 C1132 0.959 . S
H1118 C1132 0.961 1_545 S
H1119 C1133 0.960 . S
H1120 C1133 0.961 1_565 S
H1121 C1133 0.959 . S
H1122 C1136 0.929 . S
H1123 C1137 0.931 . S
H1124 C1139 0.930 . S
C1125 H1113 0.930 . S
C1125 C1126 1.399 . S
C1125 C1130 1.399 . S
C1126 C1125 1.399 . S
C1126 C1127 1.376 . S
C1127 H1114 0.930 . S
C1127 C1126 1.376 . S
C1127 C1128 1.388 . S
C1128 H1115 0.930 . S
C1128 C1127 1.388 . S
C1128 C1129 1.390 . S
C1129 C1128 1.390 . S
C1129 C1130 1.394 . S
C1129 C1135 1.465 1_545 S
C1130 C1125 1.399 . S
C1130 C1129 1.394 . S
C1130 C1131 1.516 1_545 S
C1131 C1130 1.516 1_565 S
C1131 C1132 1.502 . S
C1131 C1133 1.561 1_565 S
C1131 C1134 1.526 . S
C1132 H1116 0.959 . S
C1132 H1117 0.959 . S
C1132 H1118 0.961 1_565 S
C1132 C1131 1.502 . S
C1133 H1119 0.960 . S
C1133 H1120 0.961 1_545 S
C1133 H1121 0.959 . S
C1133 C1131 1.561 1_545 S
C1134 C1131 1.526 . S
C1134 C1135 1.396 . S
C1134 C1139 1.390 . S
C1135 C1129 1.465 1_565 S
C1135 C1134 1.396 . S
C1135 C1136 1.399 . S
C1136 H1122 0.929 . S
C1136 C1135 1.399 . S
C1136 C1137 1.385 . S
C1137 H1123 0.931 . S
C1137 C1136 1.385 . S
C1137 C1138 1.389 . S
C1138 C1137 1.389 . S
C1138 C1139 1.387 . S
C1139 H1124 0.930 . S
C1139 C1134 1.390 . S
C1139 C1138 1.387 . S
H1140 C1152 0.930 . S
H1141 C1154 0.930 . S
H1142 C1155 0.930 . S
H1143 C1159 0.959 . S
H1144 C1159 0.959 . S
H1145 C1159 0.961 . S
H1146 C1160 0.960 . S
H1147 C1160 0.961 . S
H1148 C1160 0.959 . S
H1149 C1163 0.929 . S
H1150 C1164 0.931 . S
H1151 C1166 0.930 . S
C1152 H1140 0.930 . S
C1152 C1153 1.399 . S
C1152 C1157 1.399 . S
C1153 C1152 1.399 . S
C1153 C1154 1.376 . S
C1154 H1141 0.930 . S
C1154 C1153 1.376 . S
C1154 C1155 1.388 . S
C1155 H1142 0.930 . S
C1155 C1154 1.388 . S
C1155 C1156 1.390 . S
C1156 C1155 1.390 . S
C1156 C1157 1.394 . S
C1156 C1162 1.465 . S
C1157 C1152 1.399 . S
C1157 C1156 1.394 . S
C1157 C1158 1.516 . S
C1158 C1157 1.516 . S
C1158 C1159 1.502 . S
C1158 C1160 1.561 . S
C1158 C1161 1.526 . S
C1159 H1143 0.959 . S
C1159 H1144 0.959 . S
C1159 H1145 0.961 . S
C1159 C1158 1.502 . S
C1160 H1146 0.960 . S
C1160 H1147 0.961 . S
C1160 H1148 0.959 . S
C1160 C1158 1.561 . S
C1161 C1158 1.526 . S
C1161 C1162 1.396 . S
C1161 C1166 1.390 . S
C1162 C1156 1.465 . S
C1162 C1161 1.396 . S
C1162 C1163 1.399 . S
C1163 H1149 0.929 . S
C1163 C1162 1.399 . S
C1163 C1164 1.385 . S
C1164 H1150 0.931 . S
C1164 C1163 1.385 . S
C1164 C1165 1.389 . S
C1165 C1164 1.389 . S
C1165 C1166 1.387 . S
C1166 H1151 0.930 . S
C1166 C1161 1.390 . S
C1166 C1165 1.387 . S
H1167 C1179 0.930 . S
H1168 C1181 0.930 . S
H1169 C1182 0.930 . S
H1170 C1186 0.959 . S
H1171 C1186 0.959 . S
H1172 C1186 0.961 1_455 S
H1173 C1187 0.960 . S
H1174 C1187 0.961 1_655 S
H1175 C1187 0.959 . S
H1176 C1190 0.929 . S
H1177 C1191 0.931 . S
H1178 C1193 0.930 . S
C1179 H1167 0.930 . S
C1179 C1180 1.399 . S
C1179 C1184 1.399 . S
C1180 C1179 1.399 . S
C1180 C1181 1.376 . S
C1181 H1168 0.930 . S
C1181 C1180 1.376 . S
C1181 C1182 1.388 . S
C1182 H1169 0.930 . S
C1182 C1181 1.388 . S
C1182 C1183 1.390 . S
C1183 C1182 1.390 . S
C1183 C1184 1.394 . S
C1183 C1189 1.465 1_455 S
C1184 C1179 1.399 . S
C1184 C1183 1.394 . S
C1184 C1185 1.516 1_455 S
C1185 C1184 1.516 1_655 S
C1185 C1186 1.502 . S
C1185 C1187 1.561 1_655 S
C1185 C1188 1.526 . S
C1186 H1170 0.959 . S
C1186 H1171 0.959 . S
C1186 H1172 0.961 1_655 S
C1186 C1185 1.502 . S
C1187 H1173 0.960 . S
C1187 H1174 0.961 1_455 S
C1187 H1175 0.959 . S
C1187 C1185 1.561 1_455 S
C1188 C1185 1.526 . S
C1188 C1189 1.396 . S
C1188 C1193 1.390 . S
C1189 C1183 1.465 1_655 S
C1189 C1188 1.396 . S
C1189 C1190 1.399 . S
C1190 H1176 0.929 . S
C1190 C1189 1.399 . S
C1190 C1191 1.385 . S
C1191 H1177 0.931 . S
C1191 C1190 1.385 . S
C1191 C1192 1.389 . S
C1192 C1191 1.389 . S
C1192 C1193 1.387 . S
C1193 H1178 0.930 . S
C1193 C1188 1.390 . S
C1193 C1192 1.387 . S
H1194 C1206 0.930 . S
H1195 C1208 0.930 . S
H1196 C1209 0.930 . S
H1197 C1213 0.959 . S
H1198 C1213 0.959 . S
H1199 C1213 0.961 . S
H1200 C1214 0.960 . S
H1201 C1214 0.961 . S
H1202 C1214 0.959 . S
H1203 C1217 0.929 . S
H1204 C1218 0.931 . S
H1205 C1220 0.930 . S
C1206 H1194 0.930 . S
C1206 C1207 1.399 . S
C1206 C1211 1.399 . S
C1207 C1206 1.399 . S
C1207 C1208 1.376 . S
C1208 H1195 0.930 . S
C1208 C1207 1.376 . S
C1208 C1209 1.388 . S
C1209 H1196 0.930 . S
C1209 C1208 1.388 . S
C1209 C1210 1.390 . S
C1210 C1209 1.390 . S
C1210 C1211 1.394 . S
C1210 C1216 1.465 . S
C1211 C1206 1.399 . S
C1211 C1210 1.394 . S
C1211 C1212 1.516 . S
C1212 C1211 1.516 . S
C1212 C1213 1.502 . S
C1212 C1214 1.561 . S
C1212 C1215 1.526 . S
C1213 H1197 0.959 . S
C1213 H1198 0.959 . S
C1213 H1199 0.961 . S
C1213 C1212 1.502 . S
C1214 H1200 0.960 . S
C1214 H1201 0.961 . S
C1214 H1202 0.959 . S
C1214 C1212 1.561 . S
C1215 C1212 1.526 . S
C1215 C1216 1.396 . S
C1215 C1220 1.390 . S
C1216 C1210 1.465 . S
C1216 C1215 1.396 . S
C1216 C1217 1.399 . S
C1217 H1203 0.929 . S
C1217 C1216 1.399 . S
C1217 C1218 1.385 . S
C1218 H1204 0.931 . S
C1218 C1217 1.385 . S
C1218 C1219 1.389 . S
C1219 C1218 1.389 . S
C1219 C1220 1.387 . S
C1220 H1205 0.930 . S
C1220 C1215 1.390 . S
C1220 C1219 1.387 . S
H1221 C1233 0.930 . S
H1222 C1235 0.930 . S
H1223 C1236 0.930 . S
H1224 C1240 0.959 . S
H1225 C1240 0.959 . S
H1226 C1240 0.961 1_655 S
H1227 C1241 0.960 . S
H1228 C1241 0.961 1_455 S
H1229 C1241 0.959 . S
H1230 C1244 0.929 . S
H1231 C1245 0.931 . S
H1232 C1247 0.930 . S
C1233 H1221 0.930 . S
C1233 C1234 1.399 . S
C1233 C1238 1.399 . S
C1234 C1233 1.399 . S
C1234 C1235 1.376 . S
C1235 H1222 0.930 . S
C1235 C1234 1.376 . S
C1235 C1236 1.388 . S
C1236 H1223 0.930 . S
C1236 C1235 1.388 . S
C1236 C1237 1.390 . S
C1237 C1236 1.390 . S
C1237 C1238 1.394 . S
C1237 C1243 1.465 1_655 S
C1238 C1233 1.399 . S
C1238 C1237 1.394 . S
C1238 C1239 1.516 . S
C1239 C1238 1.516 . S
C1239 C1240 1.502 1_655 S
C1239 C1241 1.561 . S
C1239 C1242 1.526 1_655 S
C1240 H1224 0.959 . S
C1240 H1225 0.959 . S
C1240 H1226 0.961 1_455 S
C1240 C1239 1.502 1_455 S
C1241 H1227 0.960 . S
C1241 H1228 0.961 1_655 S
C1241 H1229 0.959 . S
C1241 C1239 1.561 . S
C1242 C1239 1.526 1_455 S
C1242 C1243 1.396 . S
C1242 C1247 1.390 . S
C1243 C1237 1.465 1_455 S
C1243 C1242 1.396 . S
C1243 C1244 1.399 . S
C1244 H1230 0.929 . S
C1244 C1243 1.399 . S
C1244 C1245 1.385 . S
C1245 H1231 0.931 . S
C1245 C1244 1.385 . S
C1245 C1246 1.389 . S
C1246 C1245 1.389 . S
C1246 C1247 1.387 . S
C1247 H1232 0.930 . S
C1247 C1242 1.390 . S
C1247 C1246 1.387 . S
H1248 C1260 0.930 . S
H1249 C1262 0.930 . S
H1250 C1263 0.930 . S
H1251 C1267 0.959 . S
H1252 C1267 0.959 . S
H1253 C1267 0.961 1_545 S
H1254 C1268 0.960 . S
H1255 C1268 0.961 1_565 S
H1256 C1268 0.959 . S
H1257 C1271 0.929 . S
H1258 C1272 0.931 . S
H1259 C1274 0.930 . S
C1260 H1248 0.930 . S
C1260 C1261 1.399 . S
C1260 C1265 1.399 . S
C1261 C1260 1.399 . S
C1261 C1262 1.376 . S
C1262 H1249 0.930 . S
C1262 C1261 1.376 . S
C1262 C1263 1.388 . S
C1263 H1250 0.930 . S
C1263 C1262 1.388 . S
C1263 C1264 1.390 . S
C1264 C1263 1.390 . S
C1264 C1265 1.394 . S
C1264 C1270 1.465 1_545 S
C1265 C1260 1.399 . S
C1265 C1264 1.394 . S
C1265 C1266 1.516 1_545 S
C1266 C1265 1.516 1_565 S
C1266 C1267 1.502 . S
C1266 C1268 1.561 1_565 S
C1266 C1269 1.526 . S
C1267 H1251 0.959 . S
C1267 H1252 0.959 . S
C1267 H1253 0.961 1_565 S
C1267 C1266 1.502 . S
C1268 H1254 0.960 . S
C1268 H1255 0.961 1_545 S
C1268 H1256 0.959 . S
C1268 C1266 1.561 1_545 S
C1269 C1266 1.526 . S
C1269 C1270 1.396 . S
C1269 C1274 1.390 . S
C1270 C1264 1.465 1_565 S
C1270 C1269 1.396 . S
C1270 C1271 1.399 . S
C1271 H1257 0.929 . S
C1271 C1270 1.399 . S
C1271 C1272 1.385 . S
C1272 H1258 0.931 . S
C1272 C1271 1.385 . S
C1272 C1273 1.389 . S
C1273 C1272 1.389 . S
C1273 C1274 1.387 . S
C1274 H1259 0.930 . S
C1274 C1269 1.390 . S
C1274 C1273 1.387 . S
H1275 C1287 0.930 . S
H1276 C1289 0.930 . S
H1277 C1290 0.930 . S
H1278 C1294 0.959 . S
H1279 C1294 0.959 . S
H1280 C1294 0.961 . S
H1281 C1295 0.960 . S
H1282 C1295 0.961 . S
H1283 C1295 0.959 . S
H1284 C1298 0.929 . S
H1285 C1299 0.931 . S
H1286 C1301 0.930 . S
C1287 H1275 0.930 . S
C1287 C1288 1.399 . S
C1287 C1292 1.399 . S
C1288 C1287 1.399 . S
C1288 C1289 1.376 . S
C1289 H1276 0.930 . S
C1289 C1288 1.376 . S
C1289 C1290 1.388 . S
C1290 H1277 0.930 . S
C1290 C1289 1.388 . S
C1290 C1291 1.390 . S
C1291 C1290 1.390 . S
C1291 C1292 1.394 . S
C1291 C1297 1.465 . S
C1292 C1287 1.399 . S
C1292 C1291 1.394 . S
C1292 C1293 1.516 . S
C1293 C1292 1.516 . S
C1293 C1294 1.502 . S
C1293 C1295 1.561 . S
C1293 C1296 1.526 . S
C1294 H1278 0.959 . S
C1294 H1279 0.959 . S
C1294 H1280 0.961 . S
C1294 C1293 1.502 . S
C1295 H1281 0.960 . S
C1295 H1282 0.961 . S
C1295 H1283 0.959 . S
C1295 C1293 1.561 . S
C1296 C1293 1.526 . S
C1296 C1297 1.396 . S
C1296 C1301 1.390 . S
C1297 C1291 1.465 . S
C1297 C1296 1.396 . S
C1297 C1298 1.399 . S
C1298 H1284 0.929 . S
C1298 C1297 1.399 . S
C1298 C1299 1.385 . S
C1299 H1285 0.931 . S
C1299 C1298 1.385 . S
C1299 C1300 1.389 . S
C1300 C1299 1.389 . S
C1300 C1301 1.387 . S
C1301 H1286 0.930 . S
C1301 C1296 1.390 . S
C1301 C1300 1.387 . S
H1302 C1314 0.930 . S
H1303 C1316 0.930 . S
H1304 C1317 0.930 . S
H1305 C1321 0.959 . S
H1306 C1321 0.959 1_655 S
H1307 C1321 0.961 . S
H1308 C1322 0.960 1_455 S
H1309 C1322 0.961 . S
H1310 C1322 0.959 . S
H1311 C1325 0.929 . S
H1312 C1326 0.931 . S
H1313 C1328 0.930 . S
C1314 H1302 0.930 . S
C1314 C1315 1.399 . S
C1314 C1319 1.399 . S
C1315 C1314 1.399 . S
C1315 C1316 1.376 . S
C1316 H1303 0.930 . S
C1316 C1315 1.376 . S
C1316 C1317 1.388 . S
C1317 H1304 0.930 . S
C1317 C1316 1.388 . S
C1317 C1318 1.390 . S
C1318 C1317 1.390 . S
C1318 C1319 1.394 . S
C1318 C1324 1.465 1_455 S
C1319 C1314 1.399 . S
C1319 C1318 1.394 . S
C1319 C1320 1.516 . S
C1320 C1319 1.516 . S
C1320 C1321 1.502 . S
C1320 C1322 1.561 1_455 S
C1320 C1323 1.526 1_455 S
C1321 H1305 0.959 . S
C1321 H1306 0.959 1_455 S
C1321 H1307 0.961 . S
C1321 C1320 1.502 . S
C1322 H1308 0.960 1_655 S
C1322 H1309 0.961 . S
C1322 H1310 0.959 . S
C1322 C1320 1.561 1_655 S
C1323 C1320 1.526 1_655 S
C1323 C1324 1.396 . S
C1323 C1328 1.390 . S
C1324 C1318 1.465 1_655 S
C1324 C1323 1.396 . S
C1324 C1325 1.399 . S
C1325 H1311 0.929 . S
C1325 C1324 1.399 . S
C1325 C1326 1.385 . S
C1326 H1312 0.931 . S
C1326 C1325 1.385 . S
C1326 C1327 1.389 . S
C1327 C1326 1.389 . S
C1327 C1328 1.387 . S
C1328 H1313 0.930 . S
C1328 C1323 1.390 . S
C1328 C1327 1.387 . S
H1329 C1341 0.930 . S
H1330 C1343 0.930 . S
H1331 C1344 0.930 . S
H1332 C1348 0.959 . S
H1333 C1348 0.959 1_545 S
H1334 C1348 0.961 . S
H1335 C1349 0.960 1_565 S
H1336 C1349 0.961 . S
H1337 C1349 0.959 . S
H1338 C1352 0.929 . S
H1339 C1353 0.931 . S
H1340 C1355 0.930 . S
C1341 H1329 0.930 . S
C1341 C1342 1.399 . S
C1341 C1346 1.399 . S
C1342 C1341 1.399 . S
C1342 C1343 1.376 . S
C1343 H1330 0.930 . S
C1343 C1342 1.376 . S
C1343 C1344 1.388 . S
C1344 H1331 0.930 . S
C1344 C1343 1.388 . S
C1344 C1345 1.390 . S
C1345 C1344 1.390 . S
C1345 C1346 1.394 . S
C1345 C1351 1.465 1_565 S
C1346 C1341 1.399 . S
C1346 C1345 1.394 . S
C1346 C1347 1.516 . S
C1347 C1346 1.516 . S
C1347 C1348 1.502 . S
C1347 C1349 1.561 1_565 S
C1347 C1350 1.526 1_565 S
C1348 H1332 0.959 . S
C1348 H1333 0.959 1_565 S
C1348 H1334 0.961 . S
C1348 C1347 1.502 . S
C1349 H1335 0.960 1_545 S
C1349 H1336 0.961 . S
C1349 H1337 0.959 . S
C1349 C1347 1.561 1_545 S
C1350 C1347 1.526 1_545 S
C1350 C1351 1.396 . S
C1350 C1355 1.390 . S
C1351 C1345 1.465 1_545 S
C1351 C1350 1.396 . S
C1351 C1352 1.399 . S
C1352 H1338 0.929 . S
C1352 C1351 1.399 . S
C1352 C1353 1.385 . S
C1353 H1339 0.931 . S
C1353 C1352 1.385 . S
C1353 C1354 1.389 . S
C1354 C1353 1.389 . S
C1354 C1355 1.387 . S
C1355 H1340 0.930 . S
C1355 C1350 1.390 . S
C1355 C1354 1.387 . S
C721 C593 1.394 . S
C733 C3 1.409 . S
C748 C62 1.360 . S
C760 C652 1.373 . S
C775 C121 1.401 . S
C787 C357 1.376 . S
C802 C180 1.374 . S
C814 C416 1.361 . S
C829 C475 1.370 . S
C841 C239 1.397 . S
C856 C298 1.372 . S
C868 C534 1.399 . S
C883 C505 1.243 . S
C895 C33 1.315 . S
C910 C92 1.262 . S
C922 C564 1.307 . S
C937 C151 1.306 . S
C949 C623 1.264 . S
C964 C210 1.264 . S
C976 C682 1.279 . S
C991 C387 1.296 . S
C1003 C269 1.250 . S
C1018 C446 1.240 . S
C1030 C328 1.313 . S
C1045 C229 1.649 . S
C1057 C52 1.650 . S
C1072 C111 1.651 . S
C1084 C288 1.652 . S
C1099 C347 1.652 . S
C1111 C170 1.652 . S
C1126 C583 1.650 . S
C1138 C406 1.651 . S
C1153 C642 1.665 . S
C1165 C465 1.665 . S
C1180 C524 1.650 . S
C1192 C701 1.650 . S
C1207 C182 1.282 . S
C1219 C5 1.280 . S
C1234 C64 1.286 . S
C1246 C241 1.286 . S
C1261 C300 1.279 . S
C1273 C123 1.291 . S
C1288 C359 1.288 . S
C1300 C536 1.275 . S
C1315 C595 1.286 . S
C1327 C418 1.277 . S
C1342 C477 1.286 . S
C1354 C654 1.278 . S
