# Generated by pormake.
# Topology uot, (4)-cn, num edge types: 1
# Building blocks:
#     Node 0, Type 0, BuildingBlock: NAHDIM_clean_sbu_0, # of connection points: 4
#     Node 1, Type 0, BuildingBlock: NAHDIM_clean_sbu_0, # of connection points: 4
#     Node 2, Type 0, BuildingBlock: NAHDIM_clean_sbu_0, # of connection points: 4
#     Node 3, Type 0, BuildingBlock: NAHDIM_clean_sbu_0, # of connection points: 4
#     Node 4, Type 0, BuildingBlock: NAHDIM_clean_sbu_0, # of connection points: 4
#     Node 5, Type 0, BuildingBlock: NAHDIM_clean_sbu_0, # of connection points: 4
#     Node 6, Type 0, BuildingBlock: NAHDIM_clean_sbu_0, # of connection points: 4
#     Node 7, Type 0, BuildingBlock: NAHDIM_clean_sbu_0, # of connection points: 4
#     Node 8, Type 0, BuildingBlock: NAHDIM_clean_sbu_0, # of connection points: 4
#     Node 9, Type 0, BuildingBlock: NAHDIM_clean_sbu_0, # of connection points: 4
#     Node 10, Type 0, BuildingBlock: NAHDIM_clean_sbu_0, # of connection points: 4
#     Node 11, Type 0, BuildingBlock: NAHDIM_clean_sbu_0, # of connection points: 4
#     Node 12, Type 0, BuildingBlock: NAHDIM_clean_sbu_0, # of connection points: 4
#     Node 13, Type 0, BuildingBlock: NAHDIM_clean_sbu_0, # of connection points: 4
#     Node 14, Type 0, BuildingBlock: NAHDIM_clean_sbu_0, # of connection points: 4
#     Node 15, Type 0, BuildingBlock: NAHDIM_clean_sbu_0, # of connection points: 4
#     Edge 16, Type (0, 0), BuildingBlock: OJICUG_clean_linker_0, # of connection points: 2
#     Edge 17, Type (0, 0), BuildingBlock: OJICUG_clean_linker_0, # of connection points: 2
#     Edge 18, Type (0, 0), BuildingBlock: OJICUG_clean_linker_0, # of connection points: 2
#     Edge 19, Type (0, 0), BuildingBlock: OJICUG_clean_linker_0, # of connection points: 2
#     Edge 20, Type (0, 0), BuildingBlock: OJICUG_clean_linker_0, # of connection points: 2
#     Edge 21, Type (0, 0), BuildingBlock: OJICUG_clean_linker_0, # of connection points: 2
#     Edge 22, Type (0, 0), BuildingBlock: OJICUG_clean_linker_0, # of connection points: 2
#     Edge 23, Type (0, 0), BuildingBlock: OJICUG_clean_linker_0, # of connection points: 2
#     Edge 24, Type (0, 0), BuildingBlock: OJICUG_clean_linker_0, # of connection points: 2
#     Edge 25, Type (0, 0), BuildingBlock: OJICUG_clean_linker_0, # of connection points: 2
#     Edge 26, Type (0, 0), BuildingBlock: OJICUG_clean_linker_0, # of connection points: 2
#     Edge 27, Type (0, 0), BuildingBlock: OJICUG_clean_linker_0, # of connection points: 2
#     Edge 28, Type (0, 0), BuildingBlock: OJICUG_clean_linker_0, # of connection points: 2
#     Edge 29, Type (0, 0), BuildingBlock: OJICUG_clean_linker_0, # of connection points: 2
#     Edge 30, Type (0, 0), BuildingBlock: OJICUG_clean_linker_0, # of connection points: 2
#     Edge 31, Type (0, 0), BuildingBlock: OJICUG_clean_linker_0, # of connection points: 2
#     Edge 32, Type (0, 0), BuildingBlock: OJICUG_clean_linker_0, # of connection points: 2
#     Edge 33, Type (0, 0), BuildingBlock: OJICUG_clean_linker_0, # of connection points: 2
#     Edge 34, Type (0, 0), BuildingBlock: OJICUG_clean_linker_0, # of connection points: 2
#     Edge 35, Type (0, 0), BuildingBlock: OJICUG_clean_linker_0, # of connection points: 2
#     Edge 36, Type (0, 0), BuildingBlock: OJICUG_clean_linker_0, # of connection points: 2
#     Edge 37, Type (0, 0), BuildingBlock: OJICUG_clean_linker_0, # of connection points: 2
#     Edge 38, Type (0, 0), BuildingBlock: OJICUG_clean_linker_0, # of connection points: 2
#     Edge 39, Type (0, 0), BuildingBlock: OJICUG_clean_linker_0, # of connection points: 2
#     Edge 40, Type (0, 0), BuildingBlock: OJICUG_clean_linker_0, # of connection points: 2
#     Edge 41, Type (0, 0), BuildingBlock: OJICUG_clean_linker_0, # of connection points: 2
#     Edge 42, Type (0, 0), BuildingBlock: OJICUG_clean_linker_0, # of connection points: 2
#     Edge 43, Type (0, 0), BuildingBlock: OJICUG_clean_linker_0, # of connection points: 2
#     Edge 44, Type (0, 0), BuildingBlock: OJICUG_clean_linker_0, # of connection points: 2
#     Edge 45, Type (0, 0), BuildingBlock: OJICUG_clean_linker_0, # of connection points: 2
#     Edge 46, Type (0, 0), BuildingBlock: OJICUG_clean_linker_0, # of connection points: 2
#     Edge 47, Type (0, 0), BuildingBlock: OJICUG_clean_linker_0, # of connection points: 2
# Relax obj value: 0.174
# Max RMSD: 0.208
# Mean RMSD: 0.208
data_MOF--net-uot--node1-NAHDIM_clean_sbu_0--edge1-OJICUG_clean_linker_0
_symmetry_space_group_name_H-M    P1
_symmetry_Int_Tables_number       1
_symmetry_cell_setting            triclinic
loop_
_symmetry_equiv_pos_as_xyz
'x, y, z'
_cell_length_a     32.510072
_cell_length_b     32.58987
_cell_length_c     28.746855
_cell_angle_alpha  90.107651
_cell_angle_beta   89.915411
_cell_angle_gamma 89.858136
loop_
_atom_site_label
_atom_site_type_symbol
_atom_site_fract_x
_atom_site_fract_y
_atom_site_fract_z
_atom_type_partial_charge
C0 C 0.28582 0.42419 0.3149 0.0
O1 O 0.29164 0.45796 0.33903 0.0
O2 O 0.14897 0.41505 0.31578 0.0
Zn3 Zn 0.2004 0.44922 0.31967 0.0
O4 O 0.20662 0.46926 0.38538 0.0
C5 C 0.17557 0.4937 0.23836 0.0
O6 O 0.16861 0.45649 0.22261 0.0
O7 O 0.2497 0.41531 0.30147 0.0
C8 C 0.1754 0.48387 0.40633 0.0
O9 O 0.13999 0.48541 0.3844 0.0
C10 C 0.14791 0.37863 0.29998 0.0
O11 O 0.18225 0.36088 0.28653 0.0
O12 O 0.1917 0.49806 0.2783 0.0
C13 C 0.43092 0.69875 0.67729 0.0
O14 O 0.46035 0.69936 0.64592 0.0
O15 O 0.4103 0.83149 0.70169 0.0
Zn16 Zn 0.44759 0.78545 0.68181 0.0
O17 O 0.45794 0.78766 0.61308 0.0
C18 C 0.50441 0.80099 0.75687 0.0
O19 O 0.47111 0.79936 0.78275 0.0
O20 O 0.42144 0.73177 0.69833 0.0
C21 C 0.4685 0.82084 0.59329 0.0
O22 O 0.47135 0.85463 0.61807 0.0
C23 C 0.38281 0.84838 0.67677 0.0
O24 O 0.37661 0.83523 0.63414 0.0
O25 O 0.50165 0.79381 0.71355 0.0
C26 C 0.72256 0.59435 0.3254 0.0
O27 O 0.75135 0.59419 0.35745 0.0
O28 O 0.82688 0.5659 0.29033 0.0
Zn29 Zn 0.77536 0.53289 0.29941 0.0
O30 O 0.77679 0.51261 0.36496 0.0
C31 C 0.79493 0.48352 0.21856 0.0
O32 O 0.80534 0.51882 0.20002 0.0
O33 O 0.72518 0.56871 0.29213 0.0
C34 C 0.80792 0.49269 0.37914 0.0
O35 O 0.838 0.48465 0.3499 0.0
C36 C 0.82866 0.60024 0.26961 0.0
O37 O 0.79502 0.61613 0.25182 0.0
O38 O 0.77814 0.48314 0.25848 0.0
C39 C 0.6131 0.26433 0.66014 0.0
O40 O 0.615 0.23319 0.63109 0.0
O41 O 0.58143 0.16746 0.69246 0.0
Zn42 Zn 0.54649 0.21731 0.6799 0.0
O43 O 0.52568 0.21708 0.61391 0.0
C44 C 0.50002 0.20121 0.76373 0.0
O45 O 0.53633 0.19277 0.78134 0.0
O46 O 0.58298 0.26635 0.68828 0.0
C47 C 0.49107 0.20142 0.6037 0.0
O48 O 0.46913 0.18407 0.6366 0.0
C49 C 0.58549 0.13663 0.66571 0.0
O50 O 0.56536 0.13557 0.62615 0.0
O51 O 0.49777 0.21547 0.72272 0.0
C52 C 0.3121 0.56871 0.67936 0.0
O53 O 0.31237 0.54097 0.64613 0.0
O54 O 0.17986 0.58037 0.71075 0.0
Zn55 Zn 0.22661 0.54588 0.68723 0.0
O56 O 0.2222 0.53781 0.61813 0.0
C57 C 0.21448 0.48679 0.76061 0.0
O58 O 0.21691 0.51932 0.78752 0.0
O59 O 0.27942 0.5743 0.70282 0.0
C60 C 0.1873 0.53277 0.59915 0.0
O61 O 0.15399 0.53454 0.62502 0.0
C62 C 0.17026 0.61643 0.69792 0.0
O63 O 0.19193 0.63463 0.66536 0.0
O64 O 0.22051 0.49068 0.71716 0.0
C65 C 0.60014 0.72252 0.33538 0.0
O66 O 0.60347 0.74917 0.36948 0.0
O67 O 0.58243 0.82825 0.29518 0.0
Zn68 Zn 0.54384 0.7828 0.31368 0.0
O69 O 0.52796 0.78732 0.38106 0.0
C70 C 0.48881 0.79974 0.23569 0.0
O71 O 0.52263 0.80337 0.21098 0.0
O72 O 0.57365 0.72914 0.30375 0.0
C73 C 0.51327 0.81991 0.39886 0.0
O74 O 0.50904 0.85278 0.37288 0.0
C75 C 0.60558 0.84786 0.32302 0.0
O76 O 0.60458 0.83942 0.36766 0.0
O77 O 0.49125 0.78885 0.27799 0.0
C78 C 0.74546 0.38219 0.65795 0.0
O79 O 0.77596 0.37624 0.62863 0.0
O80 O 0.84762 0.41517 0.68301 0.0
Zn81 Zn 0.79628 0.44791 0.67014 0.0
O82 O 0.79445 0.46164 0.6019 0.0
C83 C 0.83268 0.52021 0.69383 0.0
O84 O 0.85682 0.50358 0.66225 0.0
O85 O 0.74629 0.41375 0.68399 0.0
C86 C 0.82152 0.44933 0.57309 0.0
O87 O 0.85255 0.42705 0.58791 0.0
C88 C 0.84997 0.3859 0.71198 0.0
O89 O 0.81723 0.37556 0.73605 0.0
O90 O 0.8003 0.50106 0.7057 0.0
C91 C 0.41046 0.29809 0.31219 0.0
O92 O 0.4445 0.30305 0.33613 0.0
O93 O 0.40236 0.16139 0.3102 0.0
Zn94 Zn 0.43535 0.21336 0.31551 0.0
O95 O 0.4537 0.21871 0.38202 0.0
C96 C 0.5064 0.1743 0.28891 0.0
O97 O 0.49365 0.15407 0.32571 0.0
O98 O 0.40112 0.26241 0.29786 0.0
C99 C 0.43055 0.20652 0.41482 0.0
O100 O 0.39389 0.19215 0.4048 0.0
C101 C 0.36642 0.15816 0.29334 0.0
O102 O 0.34744 0.19106 0.27796 0.0
O103 O 0.48563 0.20517 0.27543 0.0
C104 C 0.79832 0.93373 0.81248 0.0
O105 O 0.79745 0.96166 0.84548 0.0
O106 O 0.66709 0.9068 0.79525 0.0
Zn107 Zn 0.71038 0.94929 0.80814 0.0
O108 O 0.70931 0.96568 0.87559 0.0
C109 C 0.67693 0.99671 0.73244 0.0
O110 O 0.67002 0.9603 0.71444 0.0
O111 O 0.76531 0.92512 0.79097 0.0
C112 C 0.67758 0.98339 0.89209 0.0
O113 O 0.64575 0.98969 0.86489 0.0
C114 C 0.64666 0.8866 0.82515 0.0
O115 O 0.65368 0.89223 0.86968 0.0
O116 O 0.69611 -0.00063 0.77083 0.0
C117 C 0.92038 0.18715 0.16921 0.0
O118 O 0.94965 0.18637 0.13764 0.0
O119 O 0.89878 0.31908 0.18593 0.0
Zn120 Zn 0.94049 0.27386 0.17612 0.0
O121 O 0.96097 0.27436 0.11022 0.0
C122 C 0.99099 0.3121 0.24677 0.0
O123 O 0.95737 0.33332 0.25514 0.0
O124 O 0.91274 0.22046 0.1906 0.0
C125 C 0.98026 0.30584 0.09605 0.0
O126 O 0.98495 0.33721 0.12432 0.0
C127 C 0.88161 0.34039 0.15439 0.0
O128 O 0.89048 0.33351 0.11048 0.0
O129 O 0.99009 0.28362 0.21653 0.0
C130 C 0.20691 0.06952 0.82233 0.0
O131 O 0.20638 0.0407 0.85423 0.0
O132 O 0.33885 0.09739 0.81047 0.0
Zn133 Zn 0.29482 0.05561 0.82406 0.0
O134 O 0.29208 0.04231 0.89204 0.0
C135 C 0.30381 0.99418 0.74887 0.0
O136 O 0.28518 0.02046 0.72138 0.0
O137 O 0.24087 0.07905 0.80335 0.0
C138 C 0.32215 0.02402 0.91118 0.0
O139 O 0.3553 0.01595 0.88657 0.0
C140 C 0.36111 0.11605 0.84003 0.0
O141 O 0.3563 0.1088 0.88462 0.0
O142 O 0.30944 0.00329 0.79134 0.0
C143 C 0.06353 0.79455 0.16475 0.0
O144 O 0.03513 0.79601 0.13232 0.0
O145 O 0.0839 0.66202 0.18055 0.0
Zn146 Zn 0.04388 0.70783 0.16656 0.0
O147 O 0.02974 0.70948 0.09845 0.0
C148 C 0.98775 0.67055 0.23196 0.0
O149 O 0.02093 0.65079 0.24533 0.0
O150 O 0.07081 0.7607 0.18503 0.0
C151 C 0.00066 0.6872 0.08319 0.0
O152 O 0.98185 0.66205 0.11181 0.0
C153 C 0.0897 0.63016 0.15579 0.0
O154 O 0.06935 0.62586 0.11666 0.0
O155 O 0.99088 0.6983 0.20119 0.0
C156 C 0.79521 0.06303 0.17156 0.0
O157 O 0.79512 0.03396 0.13983 0.0
O158 O 0.66205 0.07661 0.20202 0.0
Zn159 Zn 0.70917 0.04311 0.17733 0.0
O160 O 0.70641 0.03523 0.10815 0.0
C161 C 0.69609 0.98536 0.2504 0.0
O162 O 0.69871 0.0186 0.27616 0.0
O163 O 0.76222 0.07087 0.19365 0.0
C164 C 0.67302 0.03051 0.08593 0.0
O165 O 0.63784 0.03268 0.10838 0.0
C166 C 0.64622 0.10988 0.18752 0.0
O167 O 0.66086 0.12742 0.14989 0.0
O168 O 0.70289 0.98795 0.20698 0.0
C169 C 0.08202 0.19347 0.81992 0.0
O170 O 0.05225 0.1932 0.85088 0.0
O171 O 0.1059 0.32602 0.8025 0.0
Zn172 Zn 0.06633 0.28074 0.81913 0.0
O173 O 0.05442 0.28016 0.88757 0.0
C174 C 0.00854 0.31535 0.75372 0.0
O175 O 0.0418 0.33154 0.73544 0.0
O176 O 0.09168 0.22709 0.80051 0.0
C177 C 0.04055 0.3122 0.90739 0.0
O178 O 0.03651 0.34613 0.88319 0.0
C179 C 0.13055 0.34389 0.83016 0.0
O180 O 0.1316 0.33305 0.87413 0.0
O181 O 0.01207 0.29091 0.78784 0.0
C182 C 0.18837 0.91873 0.17434 0.0
O183 O 0.18863 0.94924 0.14453 0.0
O184 O 0.32111 0.89991 0.1997 0.0
Zn185 Zn 0.27457 0.9387 0.18411 0.0
O186 O 0.27793 0.95484 0.11698 0.0
C187 C 0.30768 0.99571 0.25139 0.0
O188 O 0.33022 0.96394 0.26332 0.0
O189 O 0.22112 0.91006 0.19635 0.0
C190 C 0.31099 0.9707 0.10187 0.0
O191 O 0.34247 0.97477 0.13011 0.0
C192 C 0.34095 0.87833 0.17029 0.0
O193 O 0.331 0.87995 0.12607 0.0
O194 O 0.28015 0.99128 0.22047 0.0
C195 C 0.92997 0.81588 0.80489 0.0
O196 O 0.95775 0.81561 0.83804 0.0
O197 O 0.921 0.6835 0.77193 0.0
Zn198 Zn 0.95382 0.73102 0.79637 0.0
O199 O 0.96197 0.72744 0.86591 0.0
C200 C 0.02452 0.68922 0.77879 0.0
O201 O 0.00323 0.66642 0.80771 0.0
O202 O 0.92479 0.78369 0.78058 0.0
C203 C 0.94942 0.69811 0.89126 0.0
O204 O 0.92802 0.66828 0.87245 0.0
C205 C 0.88382 0.67288 0.77816 0.0
O206 O 0.85978 0.69495 0.80521 0.0
O207 O 0.00972 0.72379 0.7667 0.0
C208 C 0.31244 0.35654 0.28613 0.0
C209 C 0.31965 0.39414 0.30872 0.0
H210 H 0.33553 0.29685 0.26916 0.0
C211 C 0.35851 0.4013 0.32844 0.0
H212 H 0.28292 0.35009 0.27031 0.0
C213 C 0.38875 0.3707 0.32777 0.0
C214 C 0.38074 0.33232 0.30736 0.0
H215 H 0.36516 0.43001 0.34589 0.0
H216 H 0.41786 0.37669 0.34472 0.0
C217 C 0.34264 0.32597 0.28546 0.0
C218 C 0.37288 0.6619 0.71597 0.0
C219 C 0.40485 0.66197 0.68302 0.0
H220 H 0.31883 0.63206 0.74112 0.0
C221 C 0.40906 0.62825 0.65281 0.0
H222 H 0.36903 0.68719 0.74011 0.0
C223 C 0.38015 0.59655 0.65333 0.0
C224 C 0.34657 0.59796 0.68415 0.0
H225 H 0.43354 0.62723 0.62722 0.0
H226 H 0.38312 0.57196 0.62814 0.0
C227 C 0.34409 0.63022 0.71657 0.0
C228 C 0.65607 0.68065 0.37028 0.0
C229 C 0.62888 0.68737 0.33315 0.0
H230 H 0.70648 0.64615 0.3969 0.0
C231 C 0.63117 0.66166 0.29387 0.0
H232 H 0.655 0.69963 0.40123 0.0
C233 C 0.66105 0.63061 0.29136 0.0
C234 C 0.68902 0.62494 0.32808 0.0
H235 H 0.61058 0.66611 0.26472 0.0
H236 H 0.66282 0.61173 0.26037 0.0
C237 C 0.68573 0.6499 0.36777 0.0
C238 C 0.67931 0.2908 0.62911 0.0
C239 C 0.64625 0.29527 0.66018 0.0
H240 H 0.73623 0.31445 0.60425 0.0
C241 C 0.64583 0.32884 0.691 0.0
H242 H 0.68069 0.26532 0.6049 0.0
C243 C 0.67806 0.35735 0.69062 0.0
C244 C 0.71113 0.35261 0.65946 0.0
H245 H 0.62075 0.33303 0.7154 0.0
H246 H 0.67708 0.38297 0.71465 0.0
C247 C 0.71131 0.31905 0.62878 0.0
C248 C 0.83538 0.8767 0.77156 0.0
C249 C 0.83539 0.90799 0.8053 0.0
H250 H 0.86552 0.82337 0.74452 0.0
C251 C 0.86954 0.91176 0.83493 0.0
H252 H 0.80975 0.87316 0.74787 0.0
C253 C 0.90162 0.88312 0.83301 0.0
C254 C 0.90018 0.85018 0.80139 0.0
H255 H 0.87066 0.93569 0.86109 0.0
H256 H 0.92656 0.88577 0.85776 0.0
C257 C 0.86743 0.84814 0.76961 0.0
C258 C 0.86469 0.08738 0.14581 0.0
C259 C 0.83093 0.09077 0.17621 0.0
H260 H 0.91979 0.11512 0.11992 0.0
C261 C 0.82974 0.12347 0.20812 0.0
H262 H 0.86668 0.0624 0.121 0.0
C263 C 0.86012 0.15364 0.2075 0.0
C264 C 0.89239 0.15178 0.17495 0.0
H265 H 0.80439 0.12679 0.23235 0.0
H266 H 0.85731 0.17931 0.23129 0.0
C267 C 0.89515 0.11761 0.14519 0.0
C268 C 0.14188 0.15857 0.78214 0.0
C269 C 0.10908 0.15729 0.81399 0.0
H270 H 0.19825 0.13138 0.75928 0.0
C271 C 0.10547 0.12326 0.84369 0.0
H272 H 0.14526 0.18407 0.75833 0.0
C273 C 0.13598 0.09293 0.84424 0.0
C274 C 0.17058 0.09614 0.8151 0.0
H275 H 0.08037 0.12119 0.86838 0.0
H276 H 0.13356 0.06832 0.86936 0.0
C277 C 0.17229 0.12831 0.78267 0.0
C278 C 0.15341 0.85721 0.20773 0.0
C279 C 0.15268 0.89077 0.17712 0.0
H280 H 0.12554 0.80076 0.22824 0.0
C281 C 0.11939 0.89498 0.14632 0.0
H282 H 0.17837 0.85325 0.23225 0.0
C283 C 0.08898 0.86476 0.144 0.0
C284 C 0.09131 0.8298 0.17245 0.0
H285 H 0.11777 0.92063 0.12248 0.0
H286 H 0.06474 0.86793 0.11843 0.0
C287 C 0.12306 0.82707 0.20544 0.0
C288 C 0.15982 0.56884 0.23449 0.0
C289 C 0.15864 0.52981 0.21366 0.0
H290 H 0.13907 0.6311 0.23254 0.0
C291 C 0.13774 0.52503 0.17121 0.0
H292 H 0.17575 0.57366 0.26711 0.0
C293 C 0.11671 0.55809 0.15128 0.0
C294 C 0.116 0.59653 0.17352 0.0
H295 H 0.13639 0.4954 0.15415 0.0
H296 H 0.09975 0.55307 0.11938 0.0
C297 C 0.13865 0.60179 0.21472 0.0
C298 C 0.54677 0.82711 0.82353 0.0
C299 C 0.5432 0.81753 0.776 0.0
H300 H 0.58267 0.8562 0.87662 0.0
C301 C 0.57579 0.8274 0.74588 0.0
H302 H 0.52226 0.81975 0.84764 0.0
C303 C 0.61005 0.84855 0.76234 0.0
C304 C 0.61276 0.85992 0.80938 0.0
H305 H 0.57418 0.82033 0.70909 0.0
H306 H 0.63395 0.85696 0.73786 0.0
C307 C 0.58138 0.84795 0.84013 0.0
C308 C 0.84931 0.40878 0.13827 0.0
C309 C 0.85446 0.37482 0.16776 0.0
H310 H 0.82628 0.47017 0.13127 0.0
C311 C 0.83569 0.37521 0.21176 0.0
H312 H 0.86342 0.40925 0.10411 0.0
C313 C 0.81386 0.40962 0.22692 0.0
C314 C 0.81099 0.44474 0.19874 0.0
H315 H 0.8388 0.34928 0.23504 0.0
H316 H 0.80111 0.4094 0.26176 0.0
C317 C 0.82806 0.44363 0.1538 0.0
C318 C 0.46356 0.17045 0.83223 0.0
C319 C 0.46232 0.18578 0.78657 0.0
H320 H 0.43203 0.13673 0.88537 0.0
C321 C 0.42584 0.18173 0.76076 0.0
H322 H 0.49117 0.17323 0.85302 0.0
C323 C 0.39243 0.16026 0.7789 0.0
C324 C 0.39443 0.14308 0.82357 0.0
H325 H 0.42373 0.19325 0.72552 0.0
H326 H 0.3654 0.15614 0.7574 0.0
C327 C 0.42972 0.14957 0.85074 0.0
C328 C 0.18322 0.41765 0.74827 0.0
C329 C 0.19789 0.44781 0.77904 0.0
H330 H 0.15022 0.36141 0.74034 0.0
C331 C 0.193 0.44189 0.82716 0.0
H332 H 0.18643 0.42122 0.71098 0.0
C333 C 0.1725 0.40723 0.84404 0.0
C334 C 0.156 0.37824 0.81305 0.0
H335 H 0.20404 0.46454 0.85174 0.0
H336 H 0.16822 0.404 0.88123 0.0
C337 C 0.16224 0.38343 0.76507 0.0
C338 C 0.40825 0.84331 0.15422 0.0
C339 C 0.37687 0.8541 0.18568 0.0
H340 H 0.4686 0.81768 0.14539 0.0
C341 C 0.38117 0.84357 0.23274 0.0
H342 H 0.40575 0.85107 0.11771 0.0
C343 C 0.4167 0.82393 0.24839 0.0
C344 C 0.44909 0.81501 0.21747 0.0
H345 H 0.35735 0.85121 0.25773 0.0
H346 H 0.4194 0.81729 0.28518 0.0
C347 C 0.44423 0.82425 0.17005 0.0
C348 C 0.81874 0.57981 0.74775 0.0
C349 C 0.84421 0.55986 0.71515 0.0
H350 H 0.81109 0.63165 0.79328 0.0
C351 C 0.88181 0.57799 0.70286 0.0
H352 H 0.78953 0.5666 0.75782 0.0
C353 C 0.89408 0.61479 0.72304 0.0
C354 C 0.86904 0.63468 0.75599 0.0
H355 H 0.9022 0.5636 0.67781 0.0
H356 H 0.92349 0.62751 0.71282 0.0
C357 C 0.83102 0.61705 0.76793 0.0
C358 C 0.5901 0.1628 0.19714 0.0
C359 C 0.61117 0.12794 0.21345 0.0
H360 H 0.54022 0.20508 0.20824 0.0
C361 C 0.59817 0.10962 0.25515 0.0
H362 H 0.59941 0.17764 0.16516 0.0
C363 C 0.56466 0.12526 0.27966 0.0
C364 C 0.54307 0.15965 0.26318 0.0
H365 H 0.61374 0.08286 0.26896 0.0
H366 H 0.55549 0.10999 0.31144 0.0
C367 C 0.55626 0.17852 0.22181 0.0
C368 C 0.63402 0.03085 0.67117 0.0
C369 C 0.65727 0.0336 0.71227 0.0
H370 H 0.59315 0.06131 0.62404 0.0
C371 C 0.65873 0.07125 0.73611 0.0
H372 H 0.63231 0.00229 0.65194 0.0
C373 C 0.63609 0.10488 0.72035 0.0
C374 C 0.61165 0.10174 0.68022 0.0
H375 H 0.67635 0.07448 0.76785 0.0
H376 H 0.63719 0.13314 0.7402 0.0
C377 C 0.61152 0.06464 0.65522 0.0
C378 C 0.0711 0.37776 0.30601 0.0
C379 C 0.10781 0.3585 0.2919 0.0
H380 H 0.00538 0.37789 0.30341 0.0
C381 C 0.10559 0.32136 0.26713 0.0
H382 H 0.07172 0.40623 0.32549 0.0
C383 C 0.06748 0.3051 0.2544 0.0
C384 C 0.03082 0.32559 0.26632 0.0
H385 H 0.13329 0.30561 0.25598 0.0
H386 H 0.06686 0.27729 0.23373 0.0
C387 C 0.03302 0.36143 0.29344 0.0
C388 C 0.31683 0.94447 0.68337 0.0
C389 C 0.32122 0.95542 0.73043 0.0
H390 H 0.33268 0.90174 0.62937 0.0
C391 C 0.34414 0.92968 0.75988 0.0
H392 H 0.29928 0.9636 0.65983 0.0
C393 C 0.36332 0.89459 0.74249 0.0
C394 C 0.35989 0.88412 0.69525 0.0
H395 H 0.34807 0.93703 0.79637 0.0
H396 H 0.38133 0.87593 0.76609 0.0
C397 C 0.3359 0.90903 0.66595 0.0
C398 C 0.87226 0.65639 0.23641 0.0
C399 C 0.86881 0.62083 0.26365 0.0
H400 H 0.91258 0.70035 0.20536 0.0
C401 C 0.90444 0.60409 0.28385 0.0
H402 H 0.84536 0.67019 0.2206 0.0
C403 C 0.94292 0.62149 0.27535 0.0
C404 C 0.94663 0.65593 0.24636 0.0
H405 H 0.90282 0.57691 0.30539 0.0
H406 H 0.96986 0.60705 0.2903 0.0
C407 C 0.91079 0.67376 0.2278 0.0
C408 C 0.6713 0.94354 0.31789 0.0
C409 C 0.67782 0.94754 0.26976 0.0
H410 H 0.64355 0.90861 0.3726 0.0
C411 C 0.6629 0.9169 0.23977 0.0
H412 H 0.68247 0.96662 0.34188 0.0
C413 C 0.64014 0.88411 0.25726 0.0
C414 C 0.63228 0.88091 0.30518 0.0
H415 H 0.66733 0.91904 0.2025 0.0
H416 H 0.62807 0.86163 0.23308 0.0
C417 C 0.64896 0.91036 0.33547 0.0
C418 C 0.92502 0.37728 0.69494 0.0
C419 C 0.88985 0.36515 0.71987 0.0
H420 H 0.98999 0.37076 0.68569 0.0
C421 C 0.89355 0.33406 0.75339 0.0
H422 H 0.92318 0.40094 0.66861 0.0
C423 C 0.9319 0.31662 0.76307 0.0
C424 C 0.96735 0.32996 0.73944 0.0
H425 H 0.86701 0.32383 0.77297 0.0
H426 H 0.9339 0.29356 0.79005 0.0
C427 C 0.96334 0.35988 0.70463 0.0
C428 C 0.36791 0.08227 0.30596 0.0
C429 C 0.34806 0.11698 0.2875 0.0
H430 H 0.37036 0.01683 0.30967 0.0
C431 C 0.31212 0.11154 0.26114 0.0
H432 H 0.39545 0.08539 0.32685 0.0
C433 C 0.29771 0.07208 0.25124 0.0
C434 C 0.31888 0.03732 0.26767 0.0
H435 H 0.29598 0.13766 0.24665 0.0
H436 H 0.27085 0.06884 0.22929 0.0
C437 C 0.35344 0.0429 0.29624 0.0
C438 C 0.11982 0.67514 0.70353 0.0
C439 C 0.13429 0.63693 0.71945 0.0
H440 H 0.07355 0.72204 0.7099 0.0
C441 C 0.11352 0.61755 0.75616 0.0
H442 H 0.13527 0.69088 0.67536 0.0
C443 C 0.07863 0.63529 0.7758 0.0
C444 C 0.06339 0.67292 0.75931 0.0
H445 H 0.12392 0.58828 0.76959 0.0
H446 H 0.06327 0.61902 0.80367 0.0
C447 C 0.08459 0.69301 0.72332 0.0
C448 C 0.14595 0.52009 0.52716 0.0
C449 C 0.18443 0.52232 0.54918 0.0
H450 H 0.11292 0.50644 0.46471 0.0
C451 C 0.22005 0.51298 0.52343 0.0
H452 H 0.11794 0.52719 0.54601 0.0
C453 C 0.21716 0.50078 0.47693 0.0
C454 C 0.17861 0.498 0.4551 0.0
H455 H 0.25018 0.51437 0.53938 0.0
H456 H 0.24513 0.4933 0.45821 0.0
C457 C 0.14308 0.50822 0.48054 0.0
C458 C 0.49389 0.85775 0.47169 0.0
C459 C 0.50114 0.82049 0.44838 0.0
H460 H 0.47814 0.88713 0.53607 0.0
C461 C 0.49688 0.78348 0.47288 0.0
H462 H 0.49699 0.88675 0.4537 0.0
C463 C 0.48564 0.78367 0.51972 0.0
C464 C 0.47896 0.82089 0.54328 0.0
H465 H 0.50207 0.75424 0.45583 0.0
H466 H 0.48276 0.75459 0.53762 0.0
C467 C 0.48318 0.85796 0.51884 0.0
C468 C 0.78015 0.49206 0.46022 0.0
C469 C 0.81099 0.48053 0.42845 0.0
H470 H 0.75934 0.49138 0.53076 0.0
C471 C 0.84513 0.4582 0.44451 0.0
H472 H 0.75345 0.50933 0.44897 0.0
C473 C 0.8485 0.44788 0.4915 0.0
C474 C 0.81785 0.45979 0.52332 0.0
H475 H 0.8694 0.44886 0.42088 0.0
H476 H 0.87527 0.43079 0.50287 0.0
C477 C 0.78357 0.48185 0.50716 0.0
C478 C 0.42137 0.18966 0.49911 0.0
C479 C 0.4456 0.20632 0.46333 0.0
H480 H 0.41677 0.17486 0.57138 0.0
C481 C 0.48481 0.22167 0.47416 0.0
H482 H 0.39105 0.17751 0.49192 0.0
C483 C 0.49957 0.22014 0.51975 0.0
C484 C 0.47547 0.20314 0.55545 0.0
H485 H 0.50427 0.23468 0.4474 0.0
H486 H 0.52997 0.23211 0.52692 0.0
C487 C 0.43617 0.18803 0.54466 0.0
C488 C 0.63796 0.01958 0.00928 0.0
C489 C 0.67416 0.01991 0.03591 0.0
H490 H 0.61068 0.00804 0.94277 0.0
C491 C 0.71153 0.00875 0.01464 0.0
H492 H 0.60871 0.02807 0.02466 0.0
C493 C 0.71259 0.99685 0.96797 0.0
C494 C 0.67639 0.99633 0.94138 0.0
H495 H 0.73998 0.00856 0.03421 0.0
H496 H 0.74184 0.98812 0.95274 0.0
C497 C 0.63911 0.00814 0.96238 0.0
C498 C 0.02086 0.34685 0.98189 0.0
C499 C 0.02671 0.31057 0.95626 0.0
H500 H 0.00199 0.37374 0.04653 0.0
C501 C 0.01779 0.27268 0.9772 0.0
H502 H 0.02755 0.37647 0.96664 0.0
C503 C 0.00252 0.27116 0.02258 0.0
C504 C 0.99659 0.30744 0.04819 0.0
H505 H 0.02181 0.24421 0.9582 0.0
H506 H 0.99551 0.24155 0.03768 0.0
C507 C 0.00631 0.34528 0.02761 0.0
C508 C 0.35522 0.00236 0.98566 0.0
C509 C 0.31942 0.01106 0.96019 0.0
H510 H 0.38059 0.98322 0.05084 0.0
C511 C 0.28087 0.0065 0.98167 0.0
H512 H 0.38533 0.00571 0.96995 0.0
C513 C 0.27814 0.99296 0.0276 0.0
C514 C 0.31394 0.98451 0.05318 0.0
H515 H 0.25276 0.0128 0.96276 0.0
H516 H 0.248 0.98949 0.04322 0.0
C517 C 0.35251 0.9896 0.03193 0.0
C518 C 0.99021 0.72406 0.95895 0.0
C519 C 0.96163 0.69602 0.94071 0.0
H520 H 0.02525 0.74304 0.01812 0.0
C521 C 0.94592 0.66517 0.96975 0.0
H522 H 0.00302 0.74812 0.93744 0.0
C523 C 0.9586 0.66234 0.01604 0.0
C524 C 0.98749 0.69011 0.03414 0.0
H525 H 0.92387 0.6431 0.95674 0.0
H526 H 0.94593 0.6382 0.03753 0.0
C527 C 0.00312 0.72103 0.00514 0.0
loop_
_geom_bond_atom_site_label_1
_geom_bond_atom_site_label_2
_geom_bond_distance
_geom_bond_site_symmetry_2
_ccdc_geom_bond_type
C0 O1 1.160 . S
C0 O7 1.185 . S
O1 C0 1.160 . S
O2 Zn3 1.899 . S
O2 C10 1.284 . S
Zn3 O2 1.899 . S
Zn3 O4 2.032 . S
Zn3 O7 2.086 . S
Zn3 O12 1.977 . S
O4 Zn3 2.032 . S
O4 C8 1.278 . S
C5 O6 1.203 . S
C5 O12 1.267 . S
O6 C5 1.203 . S
O7 C0 1.185 . S
O7 Zn3 2.086 . S
C8 O4 1.278 . S
C8 O9 1.211 . S
O9 C8 1.211 . S
C10 O2 1.284 . S
C10 O11 1.273 . S
O11 C10 1.273 . S
O12 Zn3 1.977 . S
O12 C5 1.267 . S
C13 O14 1.160 . S
C13 O20 1.185 . S
O14 C13 1.160 . S
O15 Zn16 1.899 . S
O15 C23 1.284 . S
Zn16 O15 1.899 . S
Zn16 O17 2.032 . S
Zn16 O20 2.086 . S
Zn16 O25 1.977 . S
O17 Zn16 2.032 . S
O17 C21 1.278 . S
C18 O19 1.203 . S
C18 O25 1.267 . S
O19 C18 1.203 . S
O20 C13 1.185 . S
O20 Zn16 2.086 . S
C21 O17 1.278 . S
C21 O22 1.211 . S
O22 C21 1.211 . S
C23 O15 1.284 . S
C23 O24 1.273 . S
O24 C23 1.273 . S
O25 Zn16 1.977 . S
O25 C18 1.267 . S
C26 O27 1.160 . S
C26 O33 1.185 . S
O27 C26 1.160 . S
O28 Zn29 1.899 . S
O28 C36 1.284 . S
Zn29 O28 1.899 . S
Zn29 O30 2.032 . S
Zn29 O33 2.086 . S
Zn29 O38 1.977 . S
O30 Zn29 2.032 . S
O30 C34 1.278 . S
C31 O32 1.203 . S
C31 O38 1.267 . S
O32 C31 1.203 . S
O33 C26 1.185 . S
O33 Zn29 2.086 . S
C34 O30 1.278 . S
C34 O35 1.211 . S
O35 C34 1.211 . S
C36 O28 1.284 . S
C36 O37 1.273 . S
O37 C36 1.273 . S
O38 Zn29 1.977 . S
O38 C31 1.267 . S
C39 O40 1.160 . S
C39 O46 1.185 . S
O40 C39 1.160 . S
O41 Zn42 1.899 . S
O41 C49 1.284 . S
Zn42 O41 1.899 . S
Zn42 O43 2.032 . S
Zn42 O46 2.086 . S
Zn42 O51 1.977 . S
O43 Zn42 2.032 . S
O43 C47 1.278 . S
C44 O45 1.203 . S
C44 O51 1.267 . S
O45 C44 1.203 . S
O46 C39 1.185 . S
O46 Zn42 2.086 . S
C47 O43 1.278 . S
C47 O48 1.211 . S
O48 C47 1.211 . S
C49 O41 1.284 . S
C49 O50 1.273 . S
O50 C49 1.273 . S
O51 Zn42 1.977 . S
O51 C44 1.267 . S
C52 O53 1.160 . S
C52 O59 1.185 . S
O53 C52 1.160 . S
O54 Zn55 1.899 . S
O54 C62 1.284 . S
Zn55 O54 1.899 . S
Zn55 O56 2.032 . S
Zn55 O59 2.086 . S
Zn55 O64 1.977 . S
O56 Zn55 2.032 . S
O56 C60 1.278 . S
C57 O58 1.203 . S
C57 O64 1.267 . S
O58 C57 1.203 . S
O59 C52 1.185 . S
O59 Zn55 2.086 . S
C60 O56 1.278 . S
C60 O61 1.211 . S
O61 C60 1.211 . S
C62 O54 1.284 . S
C62 O63 1.273 . S
O63 C62 1.273 . S
O64 Zn55 1.977 . S
O64 C57 1.267 . S
C65 O66 1.160 . S
C65 O72 1.185 . S
O66 C65 1.160 . S
O67 Zn68 1.899 . S
O67 C75 1.284 . S
Zn68 O67 1.899 . S
Zn68 O69 2.032 . S
Zn68 O72 2.086 . S
Zn68 O77 1.977 . S
O69 Zn68 2.032 . S
O69 C73 1.278 . S
C70 O71 1.203 . S
C70 O77 1.267 . S
O71 C70 1.203 . S
O72 C65 1.185 . S
O72 Zn68 2.086 . S
C73 O69 1.278 . S
C73 O74 1.211 . S
O74 C73 1.211 . S
C75 O67 1.284 . S
C75 O76 1.273 . S
O76 C75 1.273 . S
O77 Zn68 1.977 . S
O77 C70 1.267 . S
C78 O79 1.160 . S
C78 O85 1.185 . S
O79 C78 1.160 . S
O80 Zn81 1.899 . S
O80 C88 1.284 . S
Zn81 O80 1.899 . S
Zn81 O82 2.032 . S
Zn81 O85 2.086 . S
Zn81 O90 1.977 . S
O82 Zn81 2.032 . S
O82 C86 1.278 . S
C83 O84 1.203 . S
C83 O90 1.267 . S
O84 C83 1.203 . S
O85 C78 1.185 . S
O85 Zn81 2.086 . S
C86 O82 1.278 . S
C86 O87 1.211 . S
O87 C86 1.211 . S
C88 O80 1.284 . S
C88 O89 1.273 . S
O89 C88 1.273 . S
O90 Zn81 1.977 . S
O90 C83 1.267 . S
C91 O92 1.160 . S
C91 O98 1.185 . S
O92 C91 1.160 . S
O93 Zn94 1.899 . S
O93 C101 1.284 . S
Zn94 O93 1.899 . S
Zn94 O95 2.032 . S
Zn94 O98 2.086 . S
Zn94 O103 1.977 . S
O95 Zn94 2.032 . S
O95 C99 1.278 . S
C96 O97 1.203 . S
C96 O103 1.267 . S
O97 C96 1.203 . S
O98 C91 1.185 . S
O98 Zn94 2.086 . S
C99 O95 1.278 . S
C99 O100 1.211 . S
O100 C99 1.211 . S
C101 O93 1.284 . S
C101 O102 1.273 . S
O102 C101 1.273 . S
O103 Zn94 1.977 . S
O103 C96 1.267 . S
C104 O105 1.160 . S
C104 O111 1.185 . S
O105 C104 1.160 . S
O106 Zn107 1.899 . S
O106 C114 1.284 . S
Zn107 O106 1.899 . S
Zn107 O108 2.032 . S
Zn107 O111 2.086 . S
Zn107 O116 1.971 1_565 S
O108 Zn107 2.032 . S
O108 C112 1.278 . S
C109 O110 1.203 . S
C109 O116 1.270 . S
O110 C109 1.203 . S
O111 C104 1.185 . S
O111 Zn107 2.086 . S
C112 O108 1.278 . S
C112 O113 1.191 1_565 S
O113 C112 1.191 1_545 S
C114 O106 1.284 . S
C114 O115 1.273 . S
O115 C114 1.273 . S
O116 Zn107 1.971 1_545 S
O116 C109 1.270 . S
C117 O118 1.160 . S
C117 O124 1.185 . S
O118 C117 1.160 . S
O119 Zn120 1.899 . S
O119 C127 1.284 . S
Zn120 O119 1.899 . S
Zn120 O121 2.032 . S
Zn120 O124 2.086 . S
Zn120 O129 1.971 1_655 S
O121 Zn120 2.032 . S
O121 C125 1.278 . S
C122 O123 1.203 . S
C122 O129 1.270 . S
O123 C122 1.203 . S
O124 C117 1.185 . S
O124 Zn120 2.086 . S
C125 O121 1.278 . S
C125 O126 1.191 1_655 S
O126 C125 1.191 1_455 S
C127 O119 1.284 . S
C127 O128 1.273 . S
O128 C127 1.273 . S
O129 Zn120 1.971 1_455 S
O129 C122 1.270 . S
C130 O131 1.160 . S
C130 O137 1.185 . S
O131 C130 1.160 . S
O132 Zn133 1.899 . S
O132 C140 1.284 . S
Zn133 O132 1.899 . S
Zn133 O134 2.032 . S
Zn133 O137 2.086 . S
Zn133 O142 1.971 1_545 S
O134 Zn133 2.032 . S
O134 C138 1.278 . S
C135 O136 1.203 . S
C135 O142 1.270 . S
O136 C135 1.203 . S
O137 C130 1.185 . S
O137 Zn133 2.086 . S
C138 O134 1.278 . S
C138 O139 1.191 1_545 S
O139 C138 1.191 1_565 S
C140 O132 1.284 . S
C140 O141 1.273 . S
O141 C140 1.273 . S
O142 Zn133 1.971 1_565 S
O142 C135 1.270 . S
C143 O144 1.160 . S
C143 O150 1.185 . S
O144 C143 1.160 . S
O145 Zn146 1.899 . S
O145 C153 1.284 . S
Zn146 O145 1.899 . S
Zn146 O147 2.032 . S
Zn146 O150 2.086 . S
Zn146 O155 1.971 1_455 S
O147 Zn146 2.032 . S
O147 C151 1.278 . S
C148 O149 1.203 . S
C148 O155 1.270 . S
O149 C148 1.203 . S
O150 C143 1.185 . S
O150 Zn146 2.086 . S
C151 O147 1.278 . S
C151 O152 1.191 1_455 S
O152 C151 1.191 1_655 S
C153 O145 1.284 . S
C153 O154 1.273 . S
O154 C153 1.273 . S
O155 Zn146 1.971 1_655 S
O155 C148 1.270 . S
C156 O157 1.160 . S
C156 O163 1.185 . S
O157 C156 1.160 . S
O158 Zn159 1.899 . S
O158 C166 1.284 . S
Zn159 O158 1.899 . S
Zn159 O160 2.032 . S
Zn159 O163 2.086 . S
Zn159 O168 1.971 1_545 S
O160 Zn159 2.032 . S
O160 C164 1.278 . S
C161 O162 1.203 . S
C161 O168 1.270 . S
O162 C161 1.203 . S
O163 C156 1.185 . S
O163 Zn159 2.086 . S
C164 O160 1.278 . S
C164 O165 1.191 1_545 S
O165 C164 1.191 1_565 S
C166 O158 1.284 . S
C166 O167 1.273 . S
O167 C166 1.273 . S
O168 Zn159 1.971 1_565 S
O168 C161 1.270 . S
C169 O170 1.160 . S
C169 O176 1.185 . S
O170 C169 1.160 . S
O171 Zn172 1.899 . S
O171 C179 1.284 . S
Zn172 O171 1.899 . S
Zn172 O173 2.032 . S
Zn172 O176 2.086 . S
Zn172 O181 1.971 1_455 S
O173 Zn172 2.032 . S
O173 C177 1.278 . S
C174 O175 1.203 . S
C174 O181 1.270 . S
O175 C174 1.203 . S
O176 C169 1.185 . S
O176 Zn172 2.086 . S
C177 O173 1.278 . S
C177 O178 1.191 1_455 S
O178 C177 1.191 1_655 S
C179 O171 1.284 . S
C179 O180 1.273 . S
O180 C179 1.273 . S
O181 Zn172 1.971 1_655 S
O181 C174 1.270 . S
C182 O183 1.160 . S
C182 O189 1.185 . S
O183 C182 1.160 . S
O184 Zn185 1.899 . S
O184 C192 1.284 . S
Zn185 O184 1.899 . S
Zn185 O186 2.032 . S
Zn185 O189 2.086 . S
Zn185 O194 1.971 1_565 S
O186 Zn185 2.032 . S
O186 C190 1.278 . S
C187 O188 1.203 . S
C187 O194 1.270 . S
O188 C187 1.203 . S
O189 C182 1.185 . S
O189 Zn185 2.086 . S
C190 O186 1.278 . S
C190 O191 1.191 1_565 S
O191 C190 1.191 1_545 S
C192 O184 1.284 . S
C192 O193 1.273 . S
O193 C192 1.273 . S
O194 Zn185 1.971 1_545 S
O194 C187 1.270 . S
C195 O196 1.160 . S
C195 O202 1.185 . S
O196 C195 1.160 . S
O197 Zn198 1.899 . S
O197 C205 1.284 . S
Zn198 O197 1.899 . S
Zn198 O199 2.032 . S
Zn198 O202 2.086 . S
Zn198 O207 1.971 1_655 S
O199 Zn198 2.032 . S
O199 C203 1.278 . S
C200 O201 1.203 . S
C200 O207 1.270 . S
O201 C200 1.203 . S
O202 C195 1.185 . S
O202 Zn198 2.086 . S
C203 O199 1.278 . S
C203 O204 1.191 1_655 S
O204 C203 1.191 1_455 S
C205 O197 1.284 . S
C205 O206 1.273 . S
O206 C205 1.273 . S
O207 Zn198 1.971 1_455 S
O207 C200 1.270 . S
C208 C209 1.387 . S
C208 H212 0.950 . S
C208 C217 1.390 . S
C209 C208 1.387 . S
C209 C211 1.387 . S
H210 C217 0.950 . S
C211 C209 1.387 . S
C211 C213 1.390 . S
C211 H215 0.950 . S
H212 C208 0.950 . S
C213 C211 1.390 . S
C213 C214 1.387 . S
C213 H216 0.950 . S
C214 C213 1.387 . S
C214 C217 1.387 . S
H215 C211 0.950 . S
H216 C213 0.950 . S
C217 C208 1.390 . S
C217 H210 0.950 . S
C217 C214 1.387 . S
C218 C219 1.387 . S
C218 H222 0.950 . S
C218 C227 1.390 . S
C219 C218 1.387 . S
C219 C221 1.387 . S
H220 C227 0.950 . S
C221 C219 1.387 . S
C221 C223 1.390 . S
C221 H225 0.950 . S
H222 C218 0.950 . S
C223 C221 1.390 . S
C223 C224 1.387 . S
C223 H226 0.950 . S
C224 C223 1.387 . S
C224 C227 1.387 . S
H225 C221 0.950 . S
H226 C223 0.950 . S
C227 C218 1.390 . S
C227 H220 0.950 . S
C227 C224 1.387 . S
C228 C229 1.387 . S
C228 H232 0.950 . S
C228 C237 1.390 . S
C229 C228 1.387 . S
C229 C231 1.387 . S
H230 C237 0.950 . S
C231 C229 1.387 . S
C231 C233 1.390 . S
C231 H235 0.950 . S
H232 C228 0.950 . S
C233 C231 1.390 . S
C233 C234 1.387 . S
C233 H236 0.950 . S
C234 C233 1.387 . S
C234 C237 1.387 . S
H235 C231 0.950 . S
H236 C233 0.950 . S
C237 C228 1.390 . S
C237 H230 0.950 . S
C237 C234 1.387 . S
C238 C239 1.387 . S
C238 H242 0.950 . S
C238 C247 1.390 . S
C239 C238 1.387 . S
C239 C241 1.387 . S
H240 C247 0.950 . S
C241 C239 1.387 . S
C241 C243 1.390 . S
C241 H245 0.950 . S
H242 C238 0.950 . S
C243 C241 1.390 . S
C243 C244 1.387 . S
C243 H246 0.950 . S
C244 C243 1.387 . S
C244 C247 1.387 . S
H245 C241 0.950 . S
H246 C243 0.950 . S
C247 C238 1.390 . S
C247 H240 0.950 . S
C247 C244 1.387 . S
C248 C249 1.387 . S
C248 H252 0.950 . S
C248 C257 1.390 . S
C249 C248 1.387 . S
C249 C251 1.387 . S
H250 C257 0.950 . S
C251 C249 1.387 . S
C251 C253 1.390 . S
C251 H255 0.950 . S
H252 C248 0.950 . S
C253 C251 1.390 . S
C253 C254 1.387 . S
C253 H256 0.950 . S
C254 C253 1.387 . S
C254 C257 1.387 . S
H255 C251 0.950 . S
H256 C253 0.950 . S
C257 C248 1.390 . S
C257 H250 0.950 . S
C257 C254 1.387 . S
C258 C259 1.387 . S
C258 H262 0.950 . S
C258 C267 1.390 . S
C259 C258 1.387 . S
C259 C261 1.387 . S
H260 C267 0.950 . S
C261 C259 1.387 . S
C261 C263 1.390 . S
C261 H265 0.950 . S
H262 C258 0.950 . S
C263 C261 1.390 . S
C263 C264 1.387 . S
C263 H266 0.950 . S
C264 C263 1.387 . S
C264 C267 1.387 . S
H265 C261 0.950 . S
H266 C263 0.950 . S
C267 C258 1.390 . S
C267 H260 0.950 . S
C267 C264 1.387 . S
C268 C269 1.387 . S
C268 H272 0.950 . S
C268 C277 1.390 . S
C269 C268 1.387 . S
C269 C271 1.387 . S
H270 C277 0.950 . S
C271 C269 1.387 . S
C271 C273 1.390 . S
C271 H275 0.950 . S
H272 C268 0.950 . S
C273 C271 1.390 . S
C273 C274 1.387 . S
C273 H276 0.950 . S
C274 C273 1.387 . S
C274 C277 1.387 . S
H275 C271 0.950 . S
H276 C273 0.950 . S
C277 C268 1.390 . S
C277 H270 0.950 . S
C277 C274 1.387 . S
C278 C279 1.387 . S
C278 H282 0.950 . S
C278 C287 1.390 . S
C279 C278 1.387 . S
C279 C281 1.387 . S
H280 C287 0.950 . S
C281 C279 1.387 . S
C281 C283 1.390 . S
C281 H285 0.950 . S
H282 C278 0.950 . S
C283 C281 1.390 . S
C283 C284 1.387 . S
C283 H286 0.950 . S
C284 C283 1.387 . S
C284 C287 1.387 . S
H285 C281 0.950 . S
H286 C283 0.950 . S
C287 C278 1.390 . S
C287 H280 0.950 . S
C287 C284 1.387 . S
C288 C289 1.387 . S
C288 H292 0.950 . S
C288 C297 1.390 . S
C289 C288 1.387 . S
C289 C291 1.387 . S
H290 C297 0.950 . S
C291 C289 1.387 . S
C291 C293 1.390 . S
C291 H295 0.950 . S
H292 C288 0.950 . S
C293 C291 1.390 . S
C293 C294 1.387 . S
C293 H296 0.950 . S
C294 C293 1.387 . S
C294 C297 1.387 . S
H295 C291 0.950 . S
H296 C293 0.950 . S
C297 C288 1.390 . S
C297 H290 0.950 . S
C297 C294 1.387 . S
C298 C299 1.387 . S
C298 H302 0.950 . S
C298 C307 1.390 . S
C299 C298 1.387 . S
C299 C301 1.387 . S
H300 C307 0.950 . S
C301 C299 1.387 . S
C301 C303 1.390 . S
C301 H305 0.950 . S
H302 C298 0.950 . S
C303 C301 1.390 . S
C303 C304 1.387 . S
C303 H306 0.950 . S
C304 C303 1.387 . S
C304 C307 1.387 . S
H305 C301 0.950 . S
H306 C303 0.950 . S
C307 C298 1.390 . S
C307 H300 0.950 . S
C307 C304 1.387 . S
C308 C309 1.387 . S
C308 H312 0.950 . S
C308 C317 1.390 . S
C309 C308 1.387 . S
C309 C311 1.387 . S
H310 C317 0.950 . S
C311 C309 1.387 . S
C311 C313 1.390 . S
C311 H315 0.950 . S
H312 C308 0.950 . S
C313 C311 1.390 . S
C313 C314 1.387 . S
C313 H316 0.950 . S
C314 C313 1.387 . S
C314 C317 1.387 . S
H315 C311 0.950 . S
H316 C313 0.950 . S
C317 C308 1.390 . S
C317 H310 0.950 . S
C317 C314 1.387 . S
C318 C319 1.387 . S
C318 H322 0.950 . S
C318 C327 1.390 . S
C319 C318 1.387 . S
C319 C321 1.387 . S
H320 C327 0.950 . S
C321 C319 1.387 . S
C321 C323 1.390 . S
C321 H325 0.950 . S
H322 C318 0.950 . S
C323 C321 1.390 . S
C323 C324 1.387 . S
C323 H326 0.950 . S
C324 C323 1.387 . S
C324 C327 1.387 . S
H325 C321 0.950 . S
H326 C323 0.950 . S
C327 C318 1.390 . S
C327 H320 0.950 . S
C327 C324 1.387 . S
C328 C329 1.387 . S
C328 H332 0.950 . S
C328 C337 1.390 . S
C329 C328 1.387 . S
C329 C331 1.387 . S
H330 C337 0.950 . S
C331 C329 1.387 . S
C331 C333 1.390 . S
C331 H335 0.950 . S
H332 C328 0.950 . S
C333 C331 1.390 . S
C333 C334 1.387 . S
C333 H336 0.950 . S
C334 C333 1.387 . S
C334 C337 1.387 . S
H335 C331 0.950 . S
H336 C333 0.950 . S
C337 C328 1.390 . S
C337 H330 0.950 . S
C337 C334 1.387 . S
C338 C339 1.387 . S
C338 H342 0.950 . S
C338 C347 1.390 . S
C339 C338 1.387 . S
C339 C341 1.387 . S
H340 C347 0.950 . S
C341 C339 1.387 . S
C341 C343 1.390 . S
C341 H345 0.950 . S
H342 C338 0.950 . S
C343 C341 1.390 . S
C343 C344 1.387 . S
C343 H346 0.950 . S
C344 C343 1.387 . S
C344 C347 1.387 . S
H345 C341 0.950 . S
H346 C343 0.950 . S
C347 C338 1.390 . S
C347 H340 0.950 . S
C347 C344 1.387 . S
C348 C349 1.387 . S
C348 H352 0.950 . S
C348 C357 1.390 . S
C349 C348 1.387 . S
C349 C351 1.387 . S
H350 C357 0.950 . S
C351 C349 1.387 . S
C351 C353 1.390 . S
C351 H355 0.950 . S
H352 C348 0.950 . S
C353 C351 1.390 . S
C353 C354 1.387 . S
C353 H356 0.950 . S
C354 C353 1.387 . S
C354 C357 1.387 . S
H355 C351 0.950 . S
H356 C353 0.950 . S
C357 C348 1.390 . S
C357 H350 0.950 . S
C357 C354 1.387 . S
C358 C359 1.387 . S
C358 H362 0.950 . S
C358 C367 1.390 . S
C359 C358 1.387 . S
C359 C361 1.387 . S
H360 C367 0.950 . S
C361 C359 1.387 . S
C361 C363 1.390 . S
C361 H365 0.950 . S
H362 C358 0.950 . S
C363 C361 1.390 . S
C363 C364 1.387 . S
C363 H366 0.950 . S
C364 C363 1.387 . S
C364 C367 1.387 . S
H365 C361 0.950 . S
H366 C363 0.950 . S
C367 C358 1.390 . S
C367 H360 0.950 . S
C367 C364 1.387 . S
C368 C369 1.387 . S
C368 H372 0.950 . S
C368 C377 1.390 . S
C369 C368 1.387 . S
C369 C371 1.387 . S
H370 C377 0.950 . S
C371 C369 1.387 . S
C371 C373 1.390 . S
C371 H375 0.950 . S
H372 C368 0.950 . S
C373 C371 1.390 . S
C373 C374 1.387 . S
C373 H376 0.950 . S
C374 C373 1.387 . S
C374 C377 1.387 . S
H375 C371 0.950 . S
H376 C373 0.950 . S
C377 C368 1.390 . S
C377 H370 0.950 . S
C377 C374 1.387 . S
C378 C379 1.387 . S
C378 H382 0.950 . S
C378 C387 1.390 . S
C379 C378 1.387 . S
C379 C381 1.387 . S
H380 C387 0.950 . S
C381 C379 1.387 . S
C381 C383 1.390 . S
C381 H385 0.950 . S
H382 C378 0.950 . S
C383 C381 1.390 . S
C383 C384 1.387 . S
C383 H386 0.950 . S
C384 C383 1.387 . S
C384 C387 1.387 . S
H385 C381 0.950 . S
H386 C383 0.950 . S
C387 C378 1.390 . S
C387 H380 0.950 . S
C387 C384 1.387 . S
C388 C389 1.387 . S
C388 H392 0.950 . S
C388 C397 1.390 . S
C389 C388 1.387 . S
C389 C391 1.387 . S
H390 C397 0.950 . S
C391 C389 1.387 . S
C391 C393 1.390 . S
C391 H395 0.950 . S
H392 C388 0.950 . S
C393 C391 1.390 . S
C393 C394 1.387 . S
C393 H396 0.950 . S
C394 C393 1.387 . S
C394 C397 1.387 . S
H395 C391 0.950 . S
H396 C393 0.950 . S
C397 C388 1.390 . S
C397 H390 0.950 . S
C397 C394 1.387 . S
C398 C399 1.387 . S
C398 H402 0.950 . S
C398 C407 1.390 . S
C399 C398 1.387 . S
C399 C401 1.387 . S
H400 C407 0.950 . S
C401 C399 1.387 . S
C401 C403 1.390 . S
C401 H405 0.950 . S
H402 C398 0.950 . S
C403 C401 1.390 . S
C403 C404 1.387 . S
C403 H406 0.950 . S
C404 C403 1.387 . S
C404 C407 1.387 . S
H405 C401 0.950 . S
H406 C403 0.950 . S
C407 C398 1.390 . S
C407 H400 0.950 . S
C407 C404 1.387 . S
C408 C409 1.387 . S
C408 H412 0.950 . S
C408 C417 1.390 . S
C409 C408 1.387 . S
C409 C411 1.387 . S
H410 C417 0.950 . S
C411 C409 1.387 . S
C411 C413 1.390 . S
C411 H415 0.950 . S
H412 C408 0.950 . S
C413 C411 1.390 . S
C413 C414 1.387 . S
C413 H416 0.950 . S
C414 C413 1.387 . S
C414 C417 1.387 . S
H415 C411 0.950 . S
H416 C413 0.950 . S
C417 C408 1.390 . S
C417 H410 0.950 . S
C417 C414 1.387 . S
C418 C419 1.387 . S
C418 H422 0.950 . S
C418 C427 1.390 . S
C419 C418 1.387 . S
C419 C421 1.387 . S
H420 C427 0.950 . S
C421 C419 1.387 . S
C421 C423 1.390 . S
C421 H425 0.950 . S
H422 C418 0.950 . S
C423 C421 1.390 . S
C423 C424 1.387 . S
C423 H426 0.950 . S
C424 C423 1.387 . S
C424 C427 1.387 . S
H425 C421 0.950 . S
H426 C423 0.950 . S
C427 C418 1.390 . S
C427 H420 0.950 . S
C427 C424 1.387 . S
C428 C429 1.387 . S
C428 H432 0.950 . S
C428 C437 1.390 . S
C429 C428 1.387 . S
C429 C431 1.387 . S
H430 C437 0.950 . S
C431 C429 1.387 . S
C431 C433 1.390 . S
C431 H435 0.950 . S
H432 C428 0.950 . S
C433 C431 1.390 . S
C433 C434 1.387 . S
C433 H436 0.950 . S
C434 C433 1.387 . S
C434 C437 1.387 . S
H435 C431 0.950 . S
H436 C433 0.950 . S
C437 C428 1.390 . S
C437 H430 0.950 . S
C437 C434 1.387 . S
C438 C439 1.387 . S
C438 H442 0.950 . S
C438 C447 1.390 . S
C439 C438 1.387 . S
C439 C441 1.387 . S
H440 C447 0.950 . S
C441 C439 1.387 . S
C441 C443 1.390 . S
C441 H445 0.950 . S
H442 C438 0.950 . S
C443 C441 1.390 . S
C443 C444 1.387 . S
C443 H446 0.950 . S
C444 C443 1.387 . S
C444 C447 1.387 . S
H445 C441 0.950 . S
H446 C443 0.950 . S
C447 C438 1.390 . S
C447 H440 0.950 . S
C447 C444 1.387 . S
C448 C449 1.387 . S
C448 H452 0.950 . S
C448 C457 1.390 . S
C449 C448 1.387 . S
C449 C451 1.387 . S
H450 C457 0.950 . S
C451 C449 1.387 . S
C451 C453 1.390 . S
C451 H455 0.950 . S
H452 C448 0.950 . S
C453 C451 1.390 . S
C453 C454 1.387 . S
C453 H456 0.950 . S
C454 C453 1.387 . S
C454 C457 1.387 . S
H455 C451 0.950 . S
H456 C453 0.950 . S
C457 C448 1.390 . S
C457 H450 0.950 . S
C457 C454 1.387 . S
C458 C459 1.387 . S
C458 H462 0.950 . S
C458 C467 1.390 . S
C459 C458 1.387 . S
C459 C461 1.387 . S
H460 C467 0.950 . S
C461 C459 1.387 . S
C461 C463 1.390 . S
C461 H465 0.950 . S
H462 C458 0.950 . S
C463 C461 1.390 . S
C463 C464 1.387 . S
C463 H466 0.950 . S
C464 C463 1.387 . S
C464 C467 1.387 . S
H465 C461 0.950 . S
H466 C463 0.950 . S
C467 C458 1.390 . S
C467 H460 0.950 . S
C467 C464 1.387 . S
C468 C469 1.387 . S
C468 H472 0.950 . S
C468 C477 1.390 . S
C469 C468 1.387 . S
C469 C471 1.387 . S
H470 C477 0.950 . S
C471 C469 1.387 . S
C471 C473 1.390 . S
C471 H475 0.950 . S
H472 C468 0.950 . S
C473 C471 1.390 . S
C473 C474 1.387 . S
C473 H476 0.950 . S
C474 C473 1.387 . S
C474 C477 1.387 . S
H475 C471 0.950 . S
H476 C473 0.950 . S
C477 C468 1.390 . S
C477 H470 0.950 . S
C477 C474 1.387 . S
C478 C479 1.387 . S
C478 H482 0.950 . S
C478 C487 1.390 . S
C479 C478 1.387 . S
C479 C481 1.387 . S
H480 C487 0.950 . S
C481 C479 1.387 . S
C481 C483 1.390 . S
C481 H485 0.950 . S
H482 C478 0.950 . S
C483 C481 1.390 . S
C483 C484 1.387 . S
C483 H486 0.950 . S
C484 C483 1.387 . S
C484 C487 1.387 . S
H485 C481 0.950 . S
H486 C483 0.950 . S
C487 C478 1.390 . S
C487 H480 0.950 . S
C487 C484 1.387 . S
C488 C489 1.387 . S
C488 H492 0.950 . S
C488 C497 1.390 1_544 S
C489 C488 1.387 . S
C489 C491 1.387 . S
H490 C497 0.950 . S
C491 C489 1.387 . S
C491 C493 1.390 1_544 S
C491 H495 0.950 . S
H492 C488 0.950 . S
C493 C491 1.390 1_566 S
C493 C494 1.387 . S
C493 H496 0.950 . S
C494 C493 1.387 . S
C494 C497 1.387 . S
H495 C491 0.950 . S
H496 C493 0.950 . S
C497 C488 1.390 1_566 S
C497 H490 0.950 . S
C497 C494 1.387 . S
C498 C499 1.387 . S
C498 H502 0.950 . S
C498 C507 1.390 1_456 S
C499 C498 1.387 . S
C499 C501 1.387 . S
H500 C507 0.950 . S
C501 C499 1.387 . S
C501 C503 1.390 1_456 S
C501 H505 0.950 . S
H502 C498 0.950 . S
C503 C501 1.390 1_654 S
C503 C504 1.387 . S
C503 H506 0.950 . S
C504 C503 1.387 . S
C504 C507 1.387 . S
H505 C501 0.950 . S
H506 C503 0.950 . S
C507 C498 1.390 1_654 S
C507 H500 0.950 . S
C507 C504 1.387 . S
C508 C509 1.387 . S
C508 H512 0.950 . S
C508 C517 1.390 1_546 S
C509 C508 1.387 . S
C509 C511 1.387 . S
H510 C517 0.950 . S
C511 C509 1.387 . S
C511 C513 1.390 1_546 S
C511 H515 0.950 . S
H512 C508 0.950 . S
C513 C511 1.390 1_564 S
C513 C514 1.387 . S
C513 H516 0.950 . S
C514 C513 1.387 . S
C514 C517 1.387 . S
H515 C511 0.950 . S
H516 C513 0.950 . S
C517 C508 1.390 1_564 S
C517 H510 0.950 . S
C517 C514 1.387 . S
C518 C519 1.387 . S
C518 H522 0.950 . S
C518 C527 1.390 1_656 S
C519 C518 1.387 . S
C519 C521 1.387 . S
H520 C527 0.950 . S
C521 C519 1.387 . S
C521 C523 1.390 1_656 S
C521 H525 0.950 . S
H522 C518 0.950 . S
C523 C521 1.390 1_454 S
C523 C524 1.387 . S
C523 H526 0.950 . S
C524 C523 1.387 . S
C524 C527 1.387 . S
H525 C521 0.950 . S
H526 C523 0.950 . S
C527 C518 1.390 1_454 S
C527 H520 0.950 . S
C527 C524 1.387 . S
C209 C0 1.261 . S
C214 C91 1.265 . S
C219 C13 1.265 . S
C224 C52 1.261 . S
C229 C65 1.261 . S
C234 C26 1.265 . S
C239 C39 1.261 . S
C244 C78 1.265 . S
C249 C104 1.261 . S
C254 C195 1.265 . S
C259 C156 1.265 . S
C264 C117 1.261 . S
C269 C169 1.265 . S
C274 C130 1.261 . S
C279 C182 1.261 . S
C284 C143 1.265 . S
C289 C5 1.194 . S
C294 C153 1.344 . S
C299 C18 1.194 . S
C304 C114 1.344 . S
C309 C127 1.345 . S
C314 C31 1.200 . S
C319 C44 1.195 . S
C324 C140 1.344 . S
C329 C57 1.194 . S
C334 C179 1.344 . S
C339 C192 1.344 . S
C344 C70 1.194 . S
C349 C83 1.200 . S
C354 C205 1.345 . S
C359 C166 1.344 . S
C364 C96 1.195 . S
C369 C109 1.200 . S
C374 C49 1.345 . S
C379 C10 1.345 . S
C384 C122 1.200 . S
C389 C135 1.200 . S
C394 C23 1.345 . S
C399 C36 1.344 . S
C404 C148 1.195 . S
C409 C161 1.200 . S
C414 C75 1.345 . S
C419 C88 1.344 . S
C424 C174 1.199 . S
C429 C101 1.344 . S
C434 C187 1.195 . S
C439 C62 1.344 . S
C444 C200 1.195 . S
C449 C60 1.508 . S
C454 C8 1.508 . S
C459 C73 1.511 . S
C464 C21 1.511 . S
C469 C34 1.511 . S
C474 C86 1.511 . S
C479 C99 1.511 . S
C484 C47 1.511 . S
C489 C164 1.508 . S
C494 C112 1.508 . S
C499 C177 1.511 . S
C504 C125 1.511 . S
C509 C138 1.508 . S
C514 C190 1.508 . S
C519 C203 1.508 . S
C524 C151 1.508 . S
