# Generated by pormake.
# Topology wld, (5)-cn, num edge types: 1
# Building blocks:
#     Node 0, Type 0, BuildingBlock: BEQFEK_clean_sbu_0, # of connection points: 5
#     Node 1, Type 0, BuildingBlock: BEQFEK_clean_sbu_0, # of connection points: 5
#     Node 2, Type 0, BuildingBlock: BEQFEK_clean_sbu_0, # of connection points: 5
#     Node 3, Type 0, BuildingBlock: BEQFEK_clean_sbu_0, # of connection points: 5
#     Node 4, Type 0, BuildingBlock: BEQFEK_clean_sbu_0, # of connection points: 5
#     Node 5, Type 0, BuildingBlock: BEQFEK_clean_sbu_0, # of connection points: 5
#     Node 6, Type 0, BuildingBlock: BEQFEK_clean_sbu_0, # of connection points: 5
#     Node 7, Type 0, BuildingBlock: BEQFEK_clean_sbu_0, # of connection points: 5
#     Node 8, Type 0, BuildingBlock: BEQFEK_clean_sbu_0, # of connection points: 5
#     Node 9, Type 0, BuildingBlock: BEQFEK_clean_sbu_0, # of connection points: 5
#     Node 10, Type 0, BuildingBlock: BEQFEK_clean_sbu_0, # of connection points: 5
#     Node 11, Type 0, BuildingBlock: BEQFEK_clean_sbu_0, # of connection points: 5
#     Edge 12, Type (0, 0), BuildingBlock: ZUJKAS_clean_linker_0, # of connection points: 2
#     Edge 13, Type (0, 0), BuildingBlock: ZUJKAS_clean_linker_0, # of connection points: 2
#     Edge 14, Type (0, 0), BuildingBlock: ZUJKAS_clean_linker_0, # of connection points: 2
#     Edge 15, Type (0, 0), BuildingBlock: ZUJKAS_clean_linker_0, # of connection points: 2
#     Edge 16, Type (0, 0), BuildingBlock: ZUJKAS_clean_linker_0, # of connection points: 2
#     Edge 17, Type (0, 0), BuildingBlock: ZUJKAS_clean_linker_0, # of connection points: 2
#     Edge 18, Type (0, 0), BuildingBlock: ZUJKAS_clean_linker_0, # of connection points: 2
#     Edge 19, Type (0, 0), BuildingBlock: ZUJKAS_clean_linker_0, # of connection points: 2
#     Edge 20, Type (0, 0), BuildingBlock: ZUJKAS_clean_linker_0, # of connection points: 2
#     Edge 21, Type (0, 0), BuildingBlock: ZUJKAS_clean_linker_0, # of connection points: 2
#     Edge 22, Type (0, 0), BuildingBlock: ZUJKAS_clean_linker_0, # of connection points: 2
#     Edge 23, Type (0, 0), BuildingBlock: ZUJKAS_clean_linker_0, # of connection points: 2
#     Edge 24, Type (0, 0), BuildingBlock: ZUJKAS_clean_linker_0, # of connection points: 2
#     Edge 25, Type (0, 0), BuildingBlock: ZUJKAS_clean_linker_0, # of connection points: 2
#     Edge 26, Type (0, 0), BuildingBlock: ZUJKAS_clean_linker_0, # of connection points: 2
#     Edge 27, Type (0, 0), BuildingBlock: ZUJKAS_clean_linker_0, # of connection points: 2
#     Edge 28, Type (0, 0), BuildingBlock: ZUJKAS_clean_linker_0, # of connection points: 2
#     Edge 29, Type (0, 0), BuildingBlock: ZUJKAS_clean_linker_0, # of connection points: 2
#     Edge 30, Type (0, 0), BuildingBlock: ZUJKAS_clean_linker_0, # of connection points: 2
#     Edge 31, Type (0, 0), BuildingBlock: ZUJKAS_clean_linker_0, # of connection points: 2
#     Edge 32, Type (0, 0), BuildingBlock: ZUJKAS_clean_linker_0, # of connection points: 2
#     Edge 33, Type (0, 0), BuildingBlock: ZUJKAS_clean_linker_0, # of connection points: 2
#     Edge 34, Type (0, 0), BuildingBlock: ZUJKAS_clean_linker_0, # of connection points: 2
#     Edge 35, Type (0, 0), BuildingBlock: ZUJKAS_clean_linker_0, # of connection points: 2
#     Edge 36, Type (0, 0), BuildingBlock: ZUJKAS_clean_linker_0, # of connection points: 2
#     Edge 37, Type (0, 0), BuildingBlock: ZUJKAS_clean_linker_0, # of connection points: 2
#     Edge 38, Type (0, 0), BuildingBlock: ZUJKAS_clean_linker_0, # of connection points: 2
#     Edge 39, Type (0, 0), BuildingBlock: ZUJKAS_clean_linker_0, # of connection points: 2
#     Edge 40, Type (0, 0), BuildingBlock: ZUJKAS_clean_linker_0, # of connection points: 2
#     Edge 41, Type (0, 0), BuildingBlock: ZUJKAS_clean_linker_0, # of connection points: 2
# Relax obj value: 0.299
# Max RMSD: 0.211
# Mean RMSD: 0.211
data_MOF--net-wld--node1-BEQFEK_clean_sbu_0--edge1-ZUJKAS_clean_linker_0
_symmetry_space_group_name_H-M    P1
_symmetry_Int_Tables_number       1
_symmetry_cell_setting            triclinic
loop_
_symmetry_equiv_pos_as_xyz
'x, y, z'
_cell_length_a     50.281673
_cell_length_b     50.269638
_cell_length_c     53.167906
_cell_angle_alpha  90.002391
_cell_angle_beta   90.000732
_cell_angle_gamma 120.004
loop_
_atom_site_label
_atom_site_type_symbol
_atom_site_fract_x
_atom_site_fract_y
_atom_site_fract_z
_atom_type_partial_charge
Co0 Co 0.37954 0.24463 0.11496 0.0
Co1 Co 0.40202 0.21394 0.15471 0.0
C2 C 0.43936 0.28137 0.13983 0.0
O3 O 0.42052 0.27978 0.12313 0.0
O4 O 0.43396 0.25798 0.15288 0.0
C5 C 0.37505 0.27431 0.06991 0.0
O6 O 0.40423 0.28311 0.06681 0.0
C7 C 0.44712 0.19555 0.16576 0.0
C8 C 0.4252 0.16061 0.19556 0.0
C9 C 0.45065 0.17428 0.17989 0.0
N10 N 0.42037 0.19374 0.1721 0.0
N11 N 0.40758 0.17317 0.19024 0.0
C12 C 0.46858 0.21709 0.14619 0.0
H13 H 0.46914 0.23928 0.14682 0.0
H14 H 0.46043 0.20705 0.12724 0.0
H15 H 0.49233 0.22159 0.14905 0.0
C16 C 0.37065 0.1914 0.08454 0.0
N17 N 0.38102 0.20928 0.10521 0.0
N18 N 0.38924 0.1957 0.12217 0.0
C19 C 0.384 0.1685 0.11289 0.0
C20 C 0.37221 0.16498 0.08874 0.0
C21 C 0.35613 0.19785 0.06256 0.0
H22 H 0.33795 0.20244 0.06933 0.0
H23 H 0.37376 0.21869 0.0527 0.0
H24 H 0.34589 0.17838 0.04911 0.0
O25 O 0.3526 0.23434 0.14464 0.0
O26 O 0.36637 0.21129 0.17337 0.0
H27 H 0.3791 0.1426 0.14634 0.0
H28 H 0.37901 0.12321 0.11768 0.0
C29 C 0.38908 0.14576 0.12724 0.0
H30 H 0.41405 0.15462 0.12901 0.0
H31 H 0.38634 0.16689 0.19833 0.0
O32 O 0.36068 0.25763 0.08866 0.0
C33 C 0.34889 0.22139 0.16598 0.0
Co34 Co 0.75861 0.13341 0.11277 0.0
Co35 Co 0.78846 0.18638 0.15276 0.0
C36 C 0.72156 0.1567 0.13711 0.0
O37 O 0.72313 0.13829 0.12161 0.0
O38 O 0.74487 0.1759 0.14963 0.0
C39 C 0.72326 0.09388 0.07189 0.0
O40 O 0.70609 0.10654 0.0749 0.0
C41 C 0.80935 0.25033 0.16149 0.0
C42 C 0.83094 0.26009 0.19904 0.0
C43 C 0.82413 0.27343 0.17907 0.0
N44 N 0.80789 0.22461 0.1703 0.0
N45 N 0.82082 0.23049 0.19279 0.0
C46 C 0.79468 0.25202 0.13746 0.0
H47 H 0.77997 0.22886 0.12935 0.0
H48 H 0.81267 0.26612 0.12352 0.0
H49 H 0.78083 0.26327 0.1409 0.0
C50 C 0.81086 0.17896 0.08245 0.0
N51 N 0.79355 0.17072 0.10343 0.0
N52 N 0.80752 0.19192 0.12076 0.0
C53 C 0.83468 0.21399 0.11157 0.0
C54 C 0.83753 0.2067 0.0869 0.0
C55 C 0.80209 0.1602 0.05888 0.0
H56 H 0.80593 0.14048 0.06155 0.0
H57 H 0.77734 0.15097 0.05497 0.0
H58 H 0.81575 0.174 0.04255 0.0
O59 O 0.76883 0.11647 0.14226 0.0
O60 O 0.78972 0.15271 0.1717 0.0
H61 H 0.85705 0.23216 0.14709 0.0
H62 H 0.88246 0.2446 0.12027 0.0
C63 C 0.85938 0.23907 0.12706 0.0
H64 H 0.85768 0.26015 0.12544 0.0
H65 H 0.82244 0.21429 0.20397 0.0
O66 O 0.74681 0.1025 0.08568 0.0
C67 C 0.78057 0.12539 0.16402 0.0
Co68 Co 0.86559 0.62382 0.11584 0.0
Co69 Co 0.81443 0.60439 0.1568 0.0
C70 C 0.84109 0.56408 0.14072 0.0
O71 O 0.85821 0.58229 0.12361 0.0
O72 O 0.82445 0.57076 0.15437 0.0
C73 C 0.90141 0.62781 0.07182 0.0
O74 O 0.88397 0.5978 0.07063 0.0
C75 C 0.75028 0.56255 0.16534 0.0
C76 C 0.74006 0.57625 0.20191 0.0
C77 C 0.72673 0.55562 0.18222 0.0
N78 N 0.77617 0.58653 0.17423 0.0
N79 N 0.77003 0.59467 0.19616 0.0
C80 C 0.74871 0.54559 0.14167 0.0
H81 H 0.77192 0.55115 0.1354 0.0
H82 H 0.73825 0.55235 0.12643 0.0
H83 H 0.7342 0.52045 0.14462 0.0
C84 C 0.8206 0.63193 0.08578 0.0
N85 N 0.82916 0.62338 0.10688 0.0
N86 N 0.80875 0.61756 0.12463 0.0
C87 C 0.78697 0.62318 0.11558 0.0
C88 C 0.79352 0.63205 0.09059 0.0
C89 C 0.83812 0.63967 0.0616 0.0
H90 H 0.84491 0.62225 0.0576 0.0
H91 H 0.82432 0.64039 0.04561 0.0
H92 H 0.85935 0.66234 0.06347 0.0
O93 O 0.8838 0.65078 0.14551 0.0
O94 O 0.84842 0.63929 0.17513 0.0
H95 H 0.77043 0.62952 0.15118 0.0
H96 H 0.75779 0.64204 0.12418 0.0
C97 C 0.76283 0.62428 0.13133 0.0
H98 H 0.74128 0.60181 0.13043 0.0
H99 H 0.78622 0.61268 0.20719 0.0
O100 O 0.89675 0.64257 0.089 0.0
C101 C 0.87588 0.65555 0.16706 0.0
Co102 Co 0.24128 0.37674 0.38219 0.0
Co103 Co 0.20965 0.39644 0.34142 0.0
C104 C 0.27514 0.43831 0.36012 0.0
O105 O 0.2743 0.41959 0.37663 0.0
O106 O 0.25221 0.43125 0.34588 0.0
C107 C 0.26969 0.37171 0.42805 0.0
O108 O 0.27785 0.40064 0.4318 0.0
C109 C 0.18712 0.43785 0.33169 0.0
C110 C 0.16485 0.42432 0.29446 0.0
C111 C 0.17149 0.44494 0.31403 0.0
N112 N 0.18924 0.41379 0.32335 0.0
N113 N 0.17595 0.40574 0.30102 0.0
C114 C 0.20172 0.45503 0.35544 0.0
H115 H 0.21305 0.44429 0.36581 0.0
H116 H 0.18421 0.45547 0.36781 0.0
H117 H 0.21887 0.47919 0.3508 0.0
C118 C 0.18504 0.36308 0.41067 0.0
N119 N 0.20335 0.37396 0.3903 0.0
N120 N 0.1892 0.38058 0.37268 0.0
C121 C 0.16105 0.37339 0.38107 0.0
C122 C 0.15766 0.36241 0.40551 0.0
C123 C 0.19272 0.35129 0.43378 0.0
H124 H 0.19899 0.33382 0.42838 0.0
H125 H 0.21286 0.37052 0.44317 0.0
H126 H 0.17321 0.34081 0.44718 0.0
O127 O 0.23623 0.35243 0.35145 0.0
O128 O 0.21171 0.36362 0.32223 0.0
H129 H 0.1393 0.37177 0.34585 0.0
H130 H 0.11412 0.36154 0.37267 0.0
C131 C 0.13782 0.37683 0.36591 0.0
H132 H 0.14248 0.40075 0.36759 0.0
H133 H 0.17465 0.3878 0.29022 0.0
O134 O 0.25408 0.35794 0.40867 0.0
C135 C 0.22436 0.34842 0.32961 0.0
Co136 Co 0.62789 0.86909 0.3832 0.0
Co137 Co 0.60192 0.8155 0.34382 0.0
C138 C 0.5654 0.84451 0.36297 0.0
O139 O 0.58639 0.8632 0.37766 0.0
O140 O 0.56903 0.82567 0.34951 0.0
C141 C 0.63476 0.90304 0.42862 0.0
O142 O 0.6056 0.88282 0.4321 0.0
C143 C 0.55701 0.75204 0.33537 0.0
C144 C 0.56828 0.74112 0.29804 0.0
C145 C 0.54802 0.72862 0.31803 0.0
N146 N 0.58178 0.7772 0.32642 0.0
N147 N 0.58845 0.77064 0.30403 0.0
C148 C 0.54109 0.75114 0.35945 0.0
H149 H 0.55371 0.77321 0.36973 0.0
H150 H 0.53917 0.73245 0.37173 0.0
H151 H 0.51743 0.7462 0.35524 0.0
C152 C 0.63893 0.82466 0.41164 0.0
N153 N 0.62753 0.83233 0.39175 0.0
N154 N 0.61834 0.81058 0.37463 0.0
C155 C 0.6242 0.78864 0.38287 0.0
C156 C 0.63716 0.79671 0.40668 0.0
C157 C 0.65388 0.84512 0.43381 0.0
H158 H 0.67174 0.86814 0.42719 0.0
H159 H 0.6364 0.84789 0.44438 0.0
H160 H 0.66464 0.83574 0.44657 0.0
O161 O 0.65204 0.88599 0.3522 0.0
O162 O 0.63518 0.84896 0.3234 0.0
H163 H 0.62272 0.76658 0.34785 0.0
H164 H 0.63158 0.75043 0.37466 0.0
C165 C 0.61785 0.7607 0.36805 0.0
H166 H 0.59335 0.74302 0.37022 0.0
H167 H 0.60658 0.78629 0.2928 0.0
O168 O 0.64848 0.90081 0.40937 0.0
C169 C 0.65337 0.87666 0.33021 0.0
Co170 Co 0.13405 0.7552 0.38184 0.0
Co171 Co 0.18726 0.7861 0.34207 0.0
C172 C 0.15742 0.71869 0.35694 0.0
O173 O 0.1404 0.72033 0.37385 0.0
O174 O 0.1752 0.74202 0.34374 0.0
C175 C 0.09612 0.72108 0.42408 0.0
O176 O 0.11056 0.7054 0.4227 0.0
C177 C 0.24905 0.80156 0.32844 0.0
C178 C 0.26577 0.84329 0.30519 0.0
C179 C 0.27522 0.82487 0.3171 0.0
N180 N 0.22559 0.80662 0.32434 0.0
N181 N 0.23549 0.83117 0.30988 0.0
C182 C 0.24607 0.77486 0.34331 0.0
H183 H 0.22822 0.75328 0.33457 0.0
H184 H 0.23863 0.77588 0.36277 0.0
H185 H 0.26756 0.77384 0.34361 0.0
C186 C 0.17827 0.80793 0.41238 0.0
N187 N 0.17079 0.79054 0.39145 0.0
N188 N 0.19305 0.8039 0.37485 0.0
C189 C 0.21555 0.83033 0.38483 0.0
C190 C 0.20689 0.83379 0.40886 0.0
C191 C 0.1568 0.80142 0.43401 0.0
H192 H 0.13497 0.79909 0.42695 0.0
H193 H 0.15144 0.77927 0.44278 0.0
H194 H 0.16657 0.81984 0.4484 0.0
O195 O 0.11686 0.76463 0.35202 0.0
O196 O 0.15405 0.78879 0.32382 0.0
H197 H 0.23929 0.85996 0.35387 0.0
H198 H 0.25998 0.87223 0.3833 0.0
C199 C 0.24474 0.85205 0.37157 0.0
H200 H 0.25742 0.83997 0.36696 0.0
H201 H 0.22209 0.84069 0.30445 0.0
O202 O 0.10295 0.74294 0.40873 0.0
C203 C 0.1262 0.77787 0.3308 0.0
Co204 Co 0.62007 0.75356 0.88311 0.0
Co205 Co 0.59958 0.78614 0.8436 0.0
C206 C 0.55989 0.71885 0.85851 0.0
O207 O 0.57845 0.71944 0.87506 0.0
O208 O 0.56619 0.74262 0.84563 0.0
C209 C 0.62424 0.71728 0.92355 0.0
O210 O 0.59448 0.69965 0.92042 0.0
C211 C 0.55425 0.80315 0.83287 0.0
C212 C 0.57392 0.83735 0.80233 0.0
C213 C 0.54846 0.82222 0.81788 0.0
N214 N 0.58158 0.80656 0.82644 0.0
N215 N 0.59324 0.82686 0.80801 0.0
C216 C 0.53572 0.78418 0.85478 0.0
H217 H 0.55049 0.78079 0.86836 0.0
H218 H 0.52423 0.79526 0.86447 0.0
H219 H 0.51787 0.76127 0.84791 0.0
C220 C 0.62815 0.80583 0.91434 0.0
N221 N 0.6195 0.78931 0.89294 0.0
N222 N 0.61247 0.80386 0.87602 0.0
C223 C 0.61694 0.83045 0.88598 0.0
C224 C 0.62685 0.83251 0.91066 0.0
C225 C 0.63731 0.79598 0.93779 0.0
H226 H 0.62128 0.7712 0.94117 0.0
H227 H 0.63718 0.80929 0.95439 0.0
H228 H 0.6607 0.79932 0.93528 0.0
O229 O 0.64653 0.76256 0.85303 0.0
O230 O 0.63438 0.78752 0.8249 0.0
H231 H 0.62308 0.85565 0.85184 0.0
H232 H 0.6289 0.87777 0.88007 0.0
C233 C 0.61491 0.85481 0.87133 0.0
H234 H 0.59063 0.8493 0.87067 0.0
H235 H 0.61461 0.83409 0.79976 0.0
O236 O 0.6389 0.74102 0.9099 0.0
C237 C 0.65069 0.77587 0.83179 0.0
Co238 Co 0.24094 0.86708 0.88316 0.0
Co239 Co 0.21199 0.81353 0.84384 0.0
C240 C 0.27776 0.84148 0.86231 0.0
O241 O 0.27582 0.85978 0.87773 0.0
O242 O 0.25503 0.82352 0.84866 0.0
C243 C 0.26843 0.90124 0.92861 0.0
O244 O 0.27669 0.88058 0.93253 0.0
C245 C 0.19324 0.75024 0.83436 0.0
C246 C 0.16809 0.73928 0.79833 0.0
C247 C 0.17736 0.7268 0.8173 0.0
N248 N 0.19305 0.77541 0.82623 0.0
N249 N 0.17811 0.76886 0.80458 0.0
C250 C 0.20975 0.74929 0.8575 0.0
H251 H 0.21734 0.77023 0.86905 0.0
H252 H 0.19477 0.7288 0.86902 0.0
H253 H 0.2301 0.74761 0.85185 0.0
C254 C 0.1855 0.82344 0.91204 0.0
N255 N 0.20422 0.83083 0.89194 0.0
N256 N 0.19137 0.80885 0.87503 0.0
C257 C 0.16381 0.78692 0.88371 0.0
C258 C 0.15931 0.79536 0.90751 0.0
C259 C 0.1914 0.84421 0.93406 0.0
H260 H 0.19727 0.86738 0.92729 0.0
H261 H 0.2113 0.84642 0.94484 0.0
H262 H 0.17118 0.83542 0.94669 0.0
O263 O 0.23378 0.88427 0.85213 0.0
O264 O 0.21225 0.84691 0.82369 0.0
H265 H 0.14178 0.764 0.84936 0.0
H266 H 0.11868 0.74709 0.87708 0.0
C267 C 0.14231 0.75842 0.86946 0.0
H268 H 0.15051 0.74173 0.87088 0.0
H269 H 0.17473 0.78449 0.79413 0.0
O270 O 0.25283 0.89917 0.90917 0.0
C271 C 0.22244 0.87475 0.83034 0.0
Co272 Co 0.13723 0.37731 0.88413 0.0
Co273 Co 0.18721 0.39752 0.84181 0.0
C274 C 0.16052 0.43707 0.85878 0.0
O275 O 0.14402 0.41877 0.87609 0.0
O276 O 0.177 0.4307 0.84469 0.0
C277 C 0.09839 0.37414 0.92556 0.0
O278 O 0.10919 0.40348 0.92111 0.0
C279 C 0.24751 0.44344 0.82622 0.0
C280 C 0.2607 0.42142 0.79664 0.0
C281 C 0.27129 0.44846 0.81019 0.0
N282 N 0.22391 0.415 0.82227 0.0
N283 N 0.23171 0.40194 0.80437 0.0
C284 C 0.24841 0.46369 0.84729 0.0
H285 H 0.23233 0.44977 0.86247 0.0
H286 H 0.27192 0.47713 0.85519 0.0
H287 H 0.24135 0.47993 0.84004 0.0
C288 C 0.1833 0.36916 0.91225 0.0
N289 N 0.17425 0.37818 0.89172 0.0
N290 N 0.1949 0.38572 0.87385 0.0
C291 C 0.2178 0.38156 0.88245 0.0
C292 C 0.21123 0.37097 0.90707 0.0
C293 C 0.16385 0.35609 0.93525 0.0
H294 H 0.14157 0.3359 0.92984 0.0
H295 H 0.15895 0.37348 0.94348 0.0
H296 H 0.175 0.34887 0.94957 0.0
O297 O 0.11759 0.34978 0.8551 0.0
O298 O 0.15229 0.36201 0.82475 0.0
H299 H 0.23788 0.37533 0.84905 0.0
H300 H 0.26019 0.38052 0.87724 0.0
C301 C 0.24537 0.38759 0.86729 0.0
H302 H 0.25933 0.41252 0.86342 0.0
H303 H 0.21765 0.37952 0.79797 0.0
O304 O 0.10781 0.35938 0.91242 0.0
C305 C 0.12511 0.34534 0.83327 0.0
Co306 Co 0.7588 0.62352 0.61369 0.0
Co307 Co 0.78987 0.60405 0.65524 0.0
C308 C 0.72359 0.56327 0.63772 0.0
O309 O 0.72474 0.58164 0.62074 0.0
O310 O 0.74668 0.57007 0.6517 0.0
C311 C 0.72809 0.62795 0.569 0.0
O312 O 0.71585 0.59799 0.56745 0.0
C313 C 0.81256 0.56267 0.66445 0.0
C314 C 0.83302 0.57448 0.70239 0.0
C315 C 0.82748 0.55485 0.68225 0.0
N316 N 0.80986 0.58622 0.67327 0.0
N317 N 0.82212 0.59327 0.696 0.0
C318 C 0.79898 0.5465 0.64011 0.0
H319 H 0.78611 0.52127 0.64315 0.0
H320 H 0.78356 0.55402 0.63192 0.0
H321 H 0.81756 0.55163 0.62642 0.0
C322 C 0.81311 0.6327 0.58474 0.0
N323 N 0.79542 0.6238 0.60551 0.0
N324 N 0.80969 0.61805 0.62358 0.0
C325 C 0.83745 0.6241 0.61512 0.0
C326 C 0.84038 0.63317 0.59015 0.0
C327 C 0.80375 0.64025 0.56027 0.0
H328 H 0.7796 0.62281 0.55608 0.0
H329 H 0.81852 0.6408 0.54455 0.0
H330 H 0.80518 0.66294 0.56182 0.0
O331 O 0.76614 0.64983 0.64363 0.0
O332 O 0.78952 0.63821 0.67361 0.0
H333 H 0.88524 0.64345 0.62486 0.0
H334 H 0.86181 0.60301 0.63043 0.0
C335 C 0.86232 0.62528 0.63144 0.0
H336 H 0.85911 0.62996 0.65125 0.0
H337 H 0.82274 0.6106 0.70724 0.0
O338 O 0.74689 0.64248 0.58661 0.0
C339 C 0.77816 0.65429 0.66545 0.0
Co340 Co 0.37642 0.13443 0.61209 0.0
Co341 Co 0.39886 0.18655 0.65259 0.0
C342 C 0.43781 0.15949 0.6343 0.0
O343 O 0.41846 0.14181 0.61805 0.0
O344 O 0.43209 0.17663 0.64818 0.0
C345 C 0.37018 0.09912 0.56718 0.0
O346 O 0.39962 0.11841 0.56391 0.0
C347 C 0.44237 0.2502 0.66165 0.0
C348 C 0.43026 0.26011 0.69903 0.0
C349 C 0.45063 0.2733 0.67919 0.0
N350 N 0.41789 0.22459 0.67033 0.0
N351 N 0.41071 0.23054 0.69275 0.0
C352 C 0.45876 0.25187 0.63765 0.0
H353 H 0.4479 0.22932 0.62799 0.0
H354 H 0.45838 0.26903 0.62481 0.0
H355 H 0.48318 0.25947 0.64178 0.0
C356 C 0.36493 0.17841 0.58359 0.0
N357 N 0.37587 0.17067 0.60374 0.0
N358 N 0.38343 0.19168 0.62132 0.0
C359 C 0.37681 0.21311 0.61315 0.0
C360 C 0.36516 0.20556 0.58889 0.0
C361 C 0.35174 0.15854 0.56083 0.0
H362 H 0.33309 0.13551 0.56668 0.0
H363 H 0.36986 0.15555 0.55159 0.0
H364 H 0.3424 0.16847 0.5472 0.0
O365 O 0.35148 0.11658 0.64277 0.0
O366 O 0.3654 0.15272 0.67212 0.0
H367 H 0.37574 0.23319 0.64856 0.0
H368 H 0.36614 0.24899 0.62192 0.0
C369 C 0.38092 0.23991 0.62853 0.0
H370 H 0.40503 0.25876 0.62695 0.0
H371 H 0.39268 0.21444 0.70381 0.0
O372 O 0.35644 0.10262 0.58583 0.0
C373 C 0.34847 0.12508 0.66466 0.0
Co374 Co 0.86727 0.24518 0.61705 0.0
Co375 Co 0.81386 0.21417 0.65629 0.0
C376 C 0.84147 0.28073 0.63979 0.0
O377 O 0.85936 0.27948 0.62352 0.0
O378 O 0.82412 0.25753 0.65325 0.0
C379 C 0.90101 0.27321 0.57134 0.0
O380 O 0.87968 0.28047 0.56707 0.0
C381 C 0.75212 0.19878 0.66808 0.0
C382 C 0.73707 0.16327 0.69761 0.0
C383 C 0.72717 0.17947 0.68291 0.0
N384 N 0.77564 0.1944 0.67376 0.0
N385 N 0.76672 0.17338 0.69164 0.0
C386 C 0.75267 0.21826 0.64652 0.0
H387 H 0.77027 0.22112 0.63252 0.0
H388 H 0.72993 0.20787 0.63715 0.0
H389 H 0.75857 0.24131 0.65367 0.0
C390 C 0.82412 0.19044 0.58714 0.0
N391 N 0.83127 0.2086 0.6076 0.0
N392 N 0.80908 0.19527 0.62427 0.0
C393 C 0.78708 0.16816 0.61495 0.0
C394 C 0.79587 0.16424 0.59111 0.0
C395 C 0.84539 0.19663 0.56543 0.0
H396 H 0.8686 0.20315 0.57252 0.0
H397 H 0.84716 0.21614 0.55434 0.0
H398 H 0.83726 0.17633 0.55297 0.0
O399 O 0.88458 0.23719 0.64763 0.0
O400 O 0.84715 0.21314 0.67564 0.0
H401 H 0.76417 0.14152 0.64758 0.0
H402 H 0.74434 0.12462 0.61839 0.0
C403 C 0.75827 0.14644 0.62871 0.0
H404 H 0.74398 0.15731 0.63117 0.0
H405 H 0.78051 0.1653 0.69921 0.0
O406 O 0.89947 0.2582 0.59103 0.0
C407 C 0.87514 0.22441 0.66901 0.0
H408 H 0.71088 0.20387 0.14564 0.0
H409 H 0.66174 0.20052 0.15524 0.0
H410 H 0.61657 0.10156 0.15111 0.0
H411 H 0.66536 0.10513 0.1395 0.0
H412 H 0.58153 0.11688 0.1314 0.0
H413 H 0.61888 0.18259 0.21974 0.0
H414 H 0.64264 0.20622 0.19464 0.0
H415 H 0.64302 0.17157 0.20299 0.0
C416 C 0.69036 0.18146 0.14667 0.0
C417 C 0.69179 0.15476 0.14188 0.0
C418 C 0.66235 0.1795 0.15252 0.0
C419 C 0.63546 0.15072 0.15483 0.0
C420 C 0.63692 0.12404 0.14967 0.0
H421 H 0.47661 0.15724 0.21709 0.0
H422 H 0.51804 0.14516 0.21286 0.0
C423 C 0.66477 0.12606 0.14299 0.0
C424 C 0.6057 0.14856 0.1616 0.0
H425 H 0.57356 0.17887 0.2004 0.0
C426 C 0.57975 0.13008 0.14678 0.0
C427 C 0.60274 0.16483 0.18219 0.0
C428 C 0.62826 0.18206 0.20094 0.0
C429 C 0.55156 0.1287 0.15113 0.0
C430 C 0.54962 0.14765 0.16991 0.0
C431 C 0.57505 0.16481 0.18561 0.0
C432 C 0.52241 0.15175 0.17246 0.0
C433 C 0.5242 0.10666 0.13558 0.0
C434 C 0.51068 0.15903 0.15125 0.0
C435 C 0.48656 0.165 0.15358 0.0
C436 C 0.47461 0.1655 0.17735 0.0
C437 C 0.48573 0.15752 0.19858 0.0
C438 C 0.50947 0.15073 0.19617 0.0
H439 H 0.52561 0.08591 0.13066 0.0
H440 H 0.50222 0.09921 0.1456 0.0
H441 H 0.5241 0.11792 0.11766 0.0
H442 H 0.52055 0.16075 0.13282 0.0
H443 H 0.4775 0.16946 0.13666 0.0
H444 H 0.81097 0.30526 0.2136 0.0
H445 H 0.81578 0.35606 0.20807 0.0
H446 H 0.85695 0.36417 0.13521 0.0
H447 H 0.85179 0.31348 0.14057 0.0
H448 H 0.86456 0.41404 0.19933 0.0
H449 H 0.78472 0.37551 0.11807 0.0
H450 H 0.78916 0.349 0.13807 0.0
H451 H 0.8167 0.36951 0.11365 0.0
C452 C 0.82124 0.3181 0.19653 0.0
C453 C 0.83028 0.30529 0.17722 0.0
C454 C 0.82392 0.347 0.19335 0.0
C455 C 0.83588 0.36347 0.1709 0.0
C456 C 0.84667 0.35141 0.1523 0.0
H457 H 0.86871 0.53874 0.11279 0.0
H458 H 0.86824 0.4905 0.12079 0.0
C459 C 0.84372 0.32249 0.15537 0.0
C460 C 0.83657 0.39296 0.16662 0.0
H461 H 0.81191 0.42917 0.1264 0.0
C462 C 0.85293 0.41732 0.18347 0.0
C463 C 0.82122 0.39713 0.14595 0.0
C464 C 0.8017 0.37132 0.12804 0.0
C465 C 0.85489 0.44593 0.1799 0.0
C466 C 0.83997 0.45015 0.15903 0.0
C467 C 0.82352 0.42584 0.14225 0.0
C468 C 0.84066 0.47952 0.15451 0.0
C469 C 0.87325 0.47164 0.19819 0.0
C470 C 0.82495 0.48898 0.17066 0.0
C471 C 0.82494 0.51634 0.16607 0.0
C472 C 0.84076 0.53482 0.14524 0.0
C473 C 0.8564 0.52514 0.12903 0.0
C474 C 0.85617 0.49762 0.13356 0.0
H475 H 0.88805 0.46656 0.21045 0.0
H476 H 0.88793 0.49347 0.18798 0.0
H477 H 0.8573 0.47509 0.21036 0.0
H478 H 0.81247 0.47505 0.18672 0.0
H479 H 0.81262 0.52303 0.17893 0.0
H480 H 0.69065 0.51548 0.21862 0.0
H481 H 0.63919 0.4703 0.21316 0.0
H482 H 0.63882 0.49506 0.13559 0.0
H483 H 0.68958 0.54042 0.14107 0.0
H484 H 0.57927 0.46645 0.18797 0.0
H485 H 0.63214 0.40498 0.14104 0.0
H486 H 0.65318 0.43615 0.16288 0.0
H487 H 0.64527 0.44408 0.13176 0.0
C488 C 0.6793 0.51148 0.20056 0.0
C489 C 0.69441 0.53081 0.18004 0.0
C490 C 0.65003 0.48575 0.19746 0.0
C491 C 0.63559 0.47927 0.17388 0.0
C492 C 0.64988 0.49955 0.15382 0.0
H493 H 0.45636 0.33828 0.12033 0.0
H494 H 0.5034 0.3869 0.1293 0.0
C495 C 0.67899 0.52521 0.15691 0.0
C496 C 0.60659 0.45025 0.16956 0.0
H497 H 0.57806 0.37982 0.14211 0.0
C498 C 0.57889 0.44743 0.178 0.0
C499 C 0.60641 0.4256 0.15664 0.0
C500 C 0.63578 0.42755 0.1476 0.0
C501 C 0.55076 0.42048 0.17355 0.0
C502 C 0.55055 0.396 0.16027 0.0
C503 C 0.57835 0.39875 0.15214 0.0
C504 C 0.5218 0.36692 0.15512 0.0
C505 C 0.52151 0.41814 0.18334 0.0
C506 C 0.51693 0.33963 0.16636 0.0
C507 C 0.4902 0.3119 0.16131 0.0
C508 C 0.46791 0.31086 0.14468 0.0
C509 C 0.47304 0.33827 0.13322 0.0
C510 C 0.49977 0.36608 0.13844 0.0
H511 H 0.5261 0.43655 0.19714 0.0
H512 H 0.50842 0.42018 0.16737 0.0
H513 H 0.50684 0.39547 0.19239 0.0
H514 H 0.5338 0.33982 0.17916 0.0
H515 H 0.48708 0.29128 0.17046 0.0
H516 H 0.1868 0.49186 0.28103 0.0
H517 H 0.18063 0.53697 0.28732 0.0
H518 H 0.1327 0.49815 0.35694 0.0
H519 H 0.13912 0.45341 0.35079 0.0
H520 H 0.12976 0.54488 0.29473 0.0
H521 H 0.20484 0.58049 0.37912 0.0
H522 H 0.20197 0.55134 0.35769 0.0
H523 H 0.17266 0.54217 0.38095 0.0
C524 C 0.17464 0.49293 0.29746 0.0
C525 C 0.16403 0.46972 0.31574 0.0
C526 C 0.17118 0.51862 0.30108 0.0
C527 C 0.15694 0.52124 0.32294 0.0
C528 C 0.14456 0.497 0.34033 0.0
H529 H 0.12898 0.66577 0.38492 0.0
H530 H 0.12711 0.61698 0.37618 0.0
C531 C 0.14821 0.47152 0.33681 0.0
C532 C 0.15605 0.54974 0.32812 0.0
H533 H 0.17961 0.60856 0.37028 0.0
C534 C 0.1407 0.55886 0.3112 0.0
C535 C 0.17044 0.56796 0.34961 0.0
C536 C 0.18867 0.56022 0.36777 0.0
C537 C 0.13898 0.58554 0.31542 0.0
C538 C 0.15325 0.60363 0.33696 0.0
C539 C 0.16851 0.59447 0.35389 0.0
C540 C 0.15361 0.63278 0.34185 0.0
C541 C 0.1216 0.59402 0.29701 0.0
C542 C 0.16945 0.65782 0.3256 0.0
C543 C 0.17072 0.68569 0.33058 0.0
C544 C 0.15619 0.6891 0.35198 0.0
C545 C 0.14035 0.66392 0.36827 0.0
C546 C 0.13925 0.63604 0.36332 0.0
H547 H 0.10597 0.57424 0.28497 0.0
H548 H 0.10791 0.60252 0.30701 0.0
H549 H 0.13821 0.61269 0.28458 0.0
H550 H 0.18113 0.6559 0.30917 0.0
H551 H 0.18299 0.70452 0.31755 0.0
H552 H 0.49975 0.698 0.28604 0.0
H553 H 0.45381 0.64748 0.29295 0.0
H554 H 0.49306 0.63754 0.36202 0.0
H555 H 0.53859 0.68798 0.35528 0.0
H556 H 0.44491 0.58906 0.29933 0.0
H557 H 0.41162 0.62696 0.38586 0.0
H558 H 0.4408 0.65359 0.36462 0.0
H559 H 0.44971 0.63246 0.38712 0.0
C560 C 0.49852 0.6848 0.30255 0.0
C561 C 0.52217 0.69697 0.32046 0.0
C562 C 0.47235 0.65608 0.30653 0.0
C563 C 0.46967 0.63918 0.32838 0.0
C564 C 0.4942 0.65064 0.34548 0.0
H565 H 0.32864 0.46297 0.38743 0.0
H566 H 0.37621 0.51153 0.37961 0.0
C567 C 0.52016 0.67937 0.34161 0.0
C568 C 0.44109 0.60981 0.33355 0.0
H569 H 0.38338 0.57362 0.37658 0.0
C570 C 0.43138 0.58571 0.31616 0.0
C571 C 0.42343 0.60554 0.35552 0.0
C572 C 0.43171 0.63109 0.37424 0.0
C573 C 0.40475 0.55727 0.32035 0.0
C574 C 0.38732 0.55298 0.34239 0.0
C575 C 0.39698 0.577 0.35979 0.0
C576 C 0.35848 0.52393 0.34737 0.0
C577 C 0.39561 0.53185 0.30136 0.0
C578 C 0.33268 0.51529 0.33215 0.0
C579 C 0.30548 0.48777 0.33663 0.0
C580 C 0.30356 0.46829 0.35644 0.0
C581 C 0.32935 0.47735 0.37198 0.0
C582 C 0.35654 0.50504 0.36754 0.0
H583 H 0.4147 0.53657 0.28826 0.0
H584 H 0.38816 0.50958 0.31094 0.0
H585 H 0.37598 0.52951 0.29009 0.0
H586 H 0.33361 0.52985 0.31675 0.0
H587 H 0.28607 0.48163 0.32434 0.0
H588 H 0.55867 0.89501 0.36382 0.0
H589 H 0.5121 0.89715 0.35452 0.0
H590 H 0.46099 0.79834 0.34747 0.0
H591 H 0.50799 0.79647 0.35495 0.0
H592 H 0.44611 0.82117 0.31133 0.0
H593 H 0.44204 0.88098 0.39742 0.0
H594 H 0.47689 0.90337 0.38015 0.0
H595 H 0.46878 0.86729 0.3939 0.0
C596 C 0.53735 0.87377 0.36059 0.0
C597 C 0.53678 0.84556 0.36024 0.0
C598 C 0.51069 0.87497 0.35541 0.0
C599 C 0.48275 0.84786 0.35075 0.0
C600 C 0.48218 0.81961 0.35097 0.0
H601 H 0.30202 0.82245 0.36089 0.0
H602 H 0.3532 0.82984 0.36678 0.0
C603 C 0.50898 0.8185 0.35538 0.0
C604 C 0.45433 0.84874 0.34458 0.0
H605 H 0.40718 0.87496 0.36491 0.0
C606 C 0.43752 0.8328 0.32315 0.0
C607 C 0.44299 0.86386 0.35998 0.0
C608 C 0.45845 0.87955 0.38426 0.0
C609 C 0.40935 0.83071 0.31713 0.0
C610 C 0.39836 0.8464 0.33221 0.0
C611 C 0.41566 0.86314 0.35319 0.0
C612 C 0.36761 0.84325 0.32821 0.0
C613 C 0.3911 0.81042 0.2954 0.0
C614 C 0.35862 0.84902 0.30471 0.0
C615 C 0.32862 0.84338 0.30103 0.0
C616 C 0.30738 0.83233 0.3209 0.0
C617 C 0.31725 0.82906 0.34482 0.0
C618 C 0.34679 0.83391 0.34833 0.0
H619 H 0.39863 0.79374 0.2904 0.0
H620 H 0.36619 0.79736 0.29983 0.0
H621 H 0.39452 0.8249 0.27861 0.0
H622 H 0.37461 0.85752 0.28914 0.0
H623 H 0.32186 0.84708 0.2826 0.0
H624 H 0.28931 0.80529 0.83116 0.0
H625 H 0.33807 0.8071 0.82404 0.0
H626 H 0.3819 0.88 0.87848 0.0
H627 H 0.33297 0.87841 0.88588 0.0
H628 H 0.395 0.85979 0.80776 0.0
H629 H 0.40376 0.81351 0.90065 0.0
H630 H 0.36801 0.80899 0.88895 0.0
H631 H 0.39698 0.84542 0.901 0.0
C632 C 0.30922 0.82168 0.84176 0.0
C633 C 0.30718 0.84172 0.85913 0.0
C634 C 0.3371 0.82271 0.83758 0.0
C635 C 0.3635 0.84361 0.85076 0.0
C636 C 0.36166 0.86352 0.86828 0.0
H637 H 0.5487 0.87659 0.81527 0.0
H638 H 0.50506 0.8849 0.82241 0.0
C639 C 0.3337 0.86257 0.87246 0.0
C640 C 0.39285 0.84438 0.84587 0.0
H641 H 0.44363 0.82584 0.87164 0.0
C642 C 0.40586 0.85268 0.82176 0.0
C643 C 0.40672 0.83486 0.86418 0.0
C644 C 0.39317 0.82496 0.89013 0.0
C645 C 0.43218 0.8512 0.81533 0.0
C646 C 0.44579 0.84129 0.83354 0.0
C647 C 0.43312 0.83355 0.85778 0.0
C648 C 0.47191 0.83668 0.82741 0.0
C649 C 0.44462 0.85911 0.7889 0.0
C650 C 0.46753 0.80687 0.82752 0.0
C651 C 0.49223 0.80212 0.82338 0.0
C652 C 0.52187 0.82714 0.81943 0.0
C653 C 0.52606 0.85693 0.81833 0.0
C654 C 0.50124 0.86169 0.82244 0.0
H655 H 0.42881 0.86201 0.77607 0.0
H656 H 0.46695 0.88091 0.78915 0.0
H657 H 0.44872 0.84092 0.78123 0.0
H658 H 0.44499 0.78727 0.83106 0.0
H659 H 0.48814 0.77884 0.82353 0.0
H660 H 0.13143 0.46122 0.88641 0.0
H661 H 0.13097 0.50901 0.87833 0.0
H662 H 0.18856 0.52622 0.81331 0.0
H663 H 0.18927 0.47876 0.82112 0.0
H664 H 0.18519 0.57053 0.87406 0.0
H665 H 0.11385 0.53341 0.78735 0.0
H666 H 0.11433 0.50646 0.80959 0.0
H667 H 0.14556 0.52636 0.78792 0.0
C668 C 0.14394 0.47513 0.87036 0.0
C669 C 0.1603 0.46608 0.85438 0.0
C670 C 0.14363 0.50238 0.86578 0.0
C671 C 0.15934 0.5208 0.84502 0.0
C672 C 0.17585 0.512 0.82917 0.0
H673 H 0.19352 0.69555 0.78468 0.0
H674 H 0.1878 0.64447 0.79114 0.0
C675 C 0.17635 0.48492 0.83379 0.0
C676 C 0.15947 0.54986 0.84032 0.0
H677 H 0.13735 0.5862 0.79804 0.0
C678 C 0.17455 0.57395 0.85756 0.0
C679 C 0.1458 0.55419 0.81864 0.0
C680 C 0.12874 0.52871 0.79985 0.0
C681 C 0.17689 0.60261 0.85345 0.0
C682 C 0.16303 0.60695 0.83183 0.0
C683 C 0.14787 0.58278 0.81461 0.0
C684 C 0.16422 0.63652 0.82682 0.0
C685 C 0.19496 0.62823 0.87194 0.0
C686 C 0.15185 0.64836 0.84423 0.0
C687 C 0.15527 0.6774 0.84062 0.0
C688 C 0.17083 0.69491 0.81943 0.0
C689 C 0.18159 0.68239 0.80122 0.0
C690 C 0.17838 0.65336 0.80493 0.0
H691 H 0.21096 0.62385 0.88325 0.0
H692 H 0.20845 0.6506 0.86214 0.0
H693 H 0.17885 0.63007 0.88511 0.0
H694 H 0.14002 0.63536 0.86085 0.0
H695 H 0.14613 0.68639 0.85457 0.0
H696 H 0.51619 0.7093 0.82354 0.0
H697 H 0.469 0.66151 0.81411 0.0
H698 H 0.49043 0.61496 0.87185 0.0
H699 H 0.53789 0.66281 0.88158 0.0
H700 H 0.46293 0.60295 0.79951 0.0
H701 H 0.40198 0.59779 0.8884 0.0
H702 H 0.43516 0.63264 0.87757 0.0
H703 H 0.43982 0.60275 0.89159 0.0
C704 C 0.51093 0.68898 0.83435 0.0
C705 C 0.53084 0.68994 0.8534 0.0
C706 C 0.48397 0.66166 0.82883 0.0
C707 C 0.47623 0.63482 0.84234 0.0
C708 C 0.49593 0.63557 0.86137 0.0
H709 H 0.32601 0.44942 0.80816 0.0
H710 H 0.37749 0.49427 0.81405 0.0
C711 C 0.52303 0.66291 0.86688 0.0
C712 C 0.44733 0.60619 0.8365 0.0
H713 H 0.37607 0.5569 0.85983 0.0
C714 C 0.44395 0.59271 0.81271 0.0
C715 C 0.42264 0.59317 0.85373 0.0
C716 C 0.4248 0.60734 0.87921 0.0
C717 C 0.41634 0.56651 0.80565 0.0
C718 C 0.39167 0.55356 0.82288 0.0
C719 C 0.39515 0.56691 0.84672 0.0
C720 C 0.36145 0.52693 0.81633 0.0
C721 C 0.41338 0.55336 0.77963 0.0
C722 C 0.33563 0.53063 0.81518 0.0
C723 C 0.30643 0.50521 0.81177 0.0
C724 C 0.30249 0.4756 0.80981 0.0
C725 C 0.32849 0.47205 0.80963 0.0
C726 C 0.35782 0.49758 0.81302 0.0
H727 H 0.43267 0.56902 0.76719 0.0
H728 H 0.41323 0.53125 0.78097 0.0
H729 H 0.39141 0.54864 0.77084 0.0
H730 H 0.33803 0.55314 0.81751 0.0
H731 H 0.28683 0.50865 0.81133 0.0
H732 H 0.81372 0.50918 0.71617 0.0
H733 H 0.81953 0.46378 0.7104 0.0
H734 H 0.86267 0.49884 0.63851 0.0
H735 H 0.85706 0.54413 0.64427 0.0
H736 H 0.79287 0.42342 0.66508 0.0
H737 H 0.91868 0.47113 0.6764 0.0
H738 H 0.89871 0.48918 0.69003 0.0
H739 H 0.90679 0.49261 0.65695 0.0
C740 C 0.82494 0.50736 0.6994 0.0
C741 C 0.83455 0.52976 0.68049 0.0
C742 C 0.82814 0.48149 0.69608 0.0
C743 C 0.84159 0.4781 0.67406 0.0
C744 C 0.85243 0.50117 0.65569 0.0
H745 H 0.87142 0.33448 0.61279 0.0
H746 H 0.87089 0.3823 0.62051 0.0
C747 C 0.84895 0.52683 0.65888 0.0
C748 C 0.84199 0.44935 0.66922 0.0
H749 H 0.88971 0.41995 0.66172 0.0
C750 C 0.81398 0.42253 0.66451 0.0
C751 C 0.86965 0.44855 0.66809 0.0
C752 C 0.90023 0.47681 0.67328 0.0
C753 C 0.81288 0.39485 0.65838 0.0
C754 C 0.84051 0.39383 0.65766 0.0
C755 C 0.86857 0.42076 0.66229 0.0
C756 C 0.84065 0.36486 0.65275 0.0
C757 C 0.78218 0.36721 0.65211 0.0
C758 C 0.8241 0.33935 0.66844 0.0
C759 C 0.82411 0.31202 0.66395 0.0
C760 C 0.8411 0.30971 0.64388 0.0
C761 C 0.85803 0.33545 0.62835 0.0
C762 C 0.8578 0.36279 0.63277 0.0
H763 H 0.76535 0.37405 0.64589 0.0
H764 H 0.78441 0.35311 0.63708 0.0
H765 H 0.77274 0.35272 0.66915 0.0
H766 H 0.81135 0.34065 0.68436 0.0
H767 H 0.81103 0.2928 0.67647 0.0
H768 H 0.67029 0.53843 0.61018 0.0
H769 H 0.62242 0.49033 0.61835 0.0
H770 H 0.6637 0.47357 0.68299 0.0
H771 H 0.71156 0.52137 0.67506 0.0
H772 H 0.61565 0.42874 0.62273 0.0
H773 H 0.58168 0.4664 0.70932 0.0
H774 H 0.60871 0.49323 0.68681 0.0
H775 H 0.62053 0.47369 0.70843 0.0
C776 C 0.66921 0.52454 0.62614 0.0
C777 C 0.69476 0.53385 0.64201 0.0
C778 C 0.64185 0.4971 0.63078 0.0
C779 C 0.63948 0.47874 0.65147 0.0
C780 C 0.66497 0.48774 0.66716 0.0
H781 H 0.49771 0.30449 0.71215 0.0
H782 H 0.54341 0.35533 0.70577 0.0
C783 C 0.69235 0.515 0.66248 0.0
C784 C 0.61064 0.44965 0.65634 0.0
H785 H 0.55204 0.41373 0.69855 0.0
C786 C 0.60159 0.42545 0.6392 0.0
C787 C 0.59263 0.44549 0.67798 0.0
C788 C 0.60114 0.4711 0.69666 0.0
C789 C 0.57517 0.39688 0.64334 0.0
C790 C 0.55692 0.39274 0.66489 0.0
C791 C 0.56602 0.417 0.68204 0.0
C792 C 0.52832 0.36333 0.66984 0.0
C793 C 0.56756 0.37115 0.62496 0.0
C794 C 0.50427 0.35161 0.65228 0.0
C795 C 0.47846 0.3227 0.65584 0.0
C796 C 0.47611 0.30519 0.67714 0.0
C797 C 0.4992 0.31763 0.69552 0.0
C798 C 0.52524 0.34653 0.69185 0.0
H799 H 0.58798 0.37531 0.61381 0.0
H800 H 0.55839 0.34878 0.63481 0.0
H801 H 0.54981 0.36947 0.61161 0.0
H802 H 0.50572 0.36462 0.63558 0.0
H803 H 0.46044 0.31389 0.6418 0.0
H804 H 0.67312 0.12499 0.68439 0.0
H805 H 0.62136 0.11669 0.67627 0.0
H806 H 0.65872 0.21451 0.66975 0.0
H807 H 0.71015 0.22293 0.67827 0.0
H808 H 0.58682 0.14239 0.7013 0.0
H809 H 0.61399 0.17697 0.6012 0.0
H810 H 0.63662 0.16594 0.62029 0.0
H811 H 0.6413 0.20363 0.62337 0.0
C812 C 0.67014 0.14469 0.68156 0.0
C813 C 0.69567 0.17455 0.68126 0.0
C814 C 0.64068 0.13992 0.67683 0.0
C815 C 0.63646 0.16497 0.67179 0.0
C816 C 0.66168 0.19486 0.67297 0.0
H817 H 0.48317 0.19347 0.66808 0.0
H818 H 0.52973 0.19141 0.67651 0.0
C819 C 0.69102 0.19962 0.67775 0.0
C820 C 0.6059 0.16014 0.66477 0.0
H821 H 0.56777 0.17269 0.61728 0.0
C822 C 0.58249 0.14869 0.68287 0.0
C823 C 0.60026 0.16798 0.64059 0.0
C824 C 0.62424 0.17906 0.62012 0.0
C825 C 0.55393 0.14618 0.67774 0.0
C826 C 0.54889 0.15561 0.65399 0.0
C827 C 0.57183 0.16573 0.63553 0.0
C828 C 0.52062 0.15672 0.64846 0.0
C829 C 0.52946 0.13373 0.69782 0.0
C830 C 0.50053 0.13856 0.62928 0.0
C831 C 0.47377 0.13971 0.6243 0.0
C832 C 0.46687 0.15927 0.63829 0.0
C833 C 0.48758 0.17798 0.65703 0.0
C834 C 0.51416 0.17671 0.66202 0.0
H835 H 0.53367 0.12001 0.71199 0.0
H836 H 0.5295 0.15318 0.70772 0.0
H837 H 0.50634 0.11915 0.68947 0.0
H838 H 0.50535 0.12322 0.61844 0.0
H839 H 0.45838 0.12506 0.60971 0.0
H840 H 0.32715 0.1069 0.09969 0.0
H841 H 0.30905 0.06087 0.07353 0.0
H842 H 0.37114 0.11595 0.01448 0.0
H843 H 0.38999 0.16186 0.04107 0.0
H844 H 0.2815 0.04689 0.02785 0.0
H845 H 0.39241 0.04843 0.02303 0.0
H846 H 0.38566 0.07195 0.04482 0.0
H847 H 0.39496 0.08355 0.01251 0.0
C848 C 0.33709 0.109 0.08121 0.0
C849 C 0.36034 0.1376 0.07247 0.0
C850 C 0.32667 0.08282 0.06626 0.0
C851 C 0.33923 0.08488 0.04228 0.0
C852 C 0.36173 0.11371 0.03319 0.0
H853 H 0.26121 0.95118 0.9227 0.0
H854 H 0.27756 0.99466 0.95117 0.0
C855 C 0.37229 0.13989 0.04823 0.0
C856 C 0.32842 0.05687 0.02673 0.0
H857 H 0.35279 0.0135 0.99568 0.0
C858 C 0.29705 0.03949 0.0209 0.0
C859 C 0.34866 0.04695 0.0181 0.0
C860 C 0.38224 0.06349 0.02513 0.0
C861 C 0.28544 0.01282 0.00618 0.0
C862 C 0.30592 0.00371 0.99655 0.0
C863 C 0.33718 0.02069 0.00287 0.0
C864 C 0.29552 0.97695 0.97954 0.0
C865 C 0.25131 0.99444 0.00141 0.0
C866 C 0.30093 0.9529 0.98569 0.0
C867 C 0.29197 0.92814 0.96925 0.0
C868 C 0.27746 0.92703 0.94636 0.0
C869 C 0.27209 0.95118 0.94028 0.0
C870 C 0.28124 0.97599 0.95662 0.0
H871 H 0.2382 0.9988 0.01608 0.0
H872 H 0.24616 0.00127 0.98301 0.0
H873 H 0.24307 0.96942 0.00087 0.0
H874 H 0.31208 0.9533 0.00323 0.0
H875 H 0.29645 0.90991 0.97447 0.0
H876 H 0.86719 0.26762 0.07594 0.0
H877 H 0.91245 0.29616 0.04904 0.0
H878 H 0.91387 0.21251 0.03412 0.0
H879 H 0.86856 0.18395 0.0609 0.0
H880 H 0.97036 0.30277 0.05396 0.0
H881 H 0.91655 0.24577 0.96367 0.0
H882 H 0.89429 0.24231 0.99137 0.0
H883 H 0.91272 0.21968 0.98833 0.0
C884 C 0.87717 0.2554 0.0668 0.0
C885 C 0.86429 0.22361 0.07015 0.0
C886 C 0.90294 0.27166 0.05148 0.0
C887 C 0.91619 0.25636 0.03927 0.0
C888 C 0.90353 0.22462 0.04286 0.0
H889 H 0.07209 0.31399 0.93983 0.0
H890 H 0.02918 0.28608 0.96883 0.0
C891 C 0.8777 0.20834 0.05812 0.0
C892 C 0.94367 0.27377 0.02323 0.0
H893 H 0.97055 0.27894 0.96344 0.0
C894 C 0.97041 0.29767 0.03414 0.0
C895 C 0.94362 0.26701 0.9974 0.0
C896 C 0.91519 0.24249 0.9844 0.0
C897 C 0.99729 0.31471 0.01998 0.0
C898 C 0.99723 0.30791 0.99417 0.0
C899 C 0.97052 0.284 0.98327 0.0
C900 C 0.02449 0.32547 0.97796 0.0
C901 C 0.02568 0.33946 0.03284 0.0
C902 C 0.03611 0.3569 0.97357 0.0
C903 C 0.06068 0.37297 0.95703 0.0
C904 C 0.07387 0.35778 0.94443 0.0
C905 C 0.06243 0.32637 0.94918 0.0
C906 C 0.03791 0.31037 0.96573 0.0
H907 H 0.02433 0.33653 0.0536 0.0
H908 H 0.04659 0.33954 0.02598 0.0
H909 H 0.02815 0.36219 0.02855 0.0
H910 H 0.0257 0.36885 0.98247 0.0
H911 H 0.06884 0.39709 0.9537 0.0
H912 H 0.73217 0.60076 0.08144 0.0
H913 H 0.70303 0.61569 0.0535 0.0
H914 H 0.78657 0.69882 0.03412 0.0
H915 H 0.81573 0.68392 0.06205 0.0
H916 H 0.6976 0.66841 0.05496 0.0
H917 H 0.75055 0.66115 0.96545 0.0
H918 H 0.75433 0.64466 0.99445 0.0
H919 H 0.77765 0.68524 0.98888 0.0
C920 C 0.74423 0.6222 0.07118 0.0
C921 C 0.77616 0.64105 0.07357 0.0
C922 C 0.72763 0.63067 0.05525 0.0
C923 C 0.74274 0.65809 0.04144 0.0
C924 C 0.7746 0.67721 0.04415 0.0
H925 H 0.68519 0.74994 0.93549 0.0
H926 H 0.71313 0.73583 0.96521 0.0
C927 C 0.79121 0.6687 0.06005 0.0
C928 C 0.72506 0.6669 0.02451 0.0
H929 H 0.7181 0.68274 0.96325 0.0
C930 C 0.70195 0.67143 0.03488 0.0
C931 C 0.73085 0.67079 0.99836 0.0
C932 C 0.75449 0.66495 0.98603 0.0
C933 C 0.68481 0.68033 0.01982 0.0
C934 C 0.69068 0.68432 0.99369 0.0
C935 C 0.71375 0.67973 0.98332 0.0
C936 C 0.67323 0.69329 0.97666 0.0
C937 C 0.66103 0.68602 0.03206 0.0
C938 C 0.64152 0.67397 0.97325 0.0
C939 C 0.62543 0.68196 0.95627 0.0
C940 C 0.64086 0.7093 0.94229 0.0
C941 C 0.67261 0.72868 0.94592 0.0
C942 C 0.68863 0.72068 0.96289 0.0
H943 H 0.6646 0.68938 0.0527 0.0
H944 H 0.66146 0.70654 0.02383 0.0
H945 H 0.63789 0.66588 0.0288 0.0
H946 H 0.62932 0.65244 0.98337 0.0
H947 H 0.60103 0.66648 0.95384 0.0
H948 H 0.95215 0.2683 0.57795 0.0
H949 H 0.99493 0.28356 0.54893 0.0
H950 H 0.95046 0.31252 0.49495 0.0
H951 H 0.90779 0.29803 0.52426 0.0
H952 H 0.99615 0.26309 0.50239 0.0
H953 H 0.03518 0.38766 0.4992 0.0
H954 H 0.00779 0.36212 0.52207 0.0
H955 H 0.99569 0.36346 0.49048 0.0
C956 C 0.95146 0.27802 0.55995 0.0
C957 C 0.92665 0.28216 0.55347 0.0
C958 C 0.97594 0.28669 0.54337 0.0
C959 C 0.97613 0.29961 0.51994 0.0
C960 C 0.95115 0.30328 0.51319 0.0
H961 H 0.09898 0.31632 0.39737 0.0
H962 H 0.05428 0.30085 0.42464 0.0
C963 C 0.9267 0.29484 0.52989 0.0
C964 C 0.00236 0.3087 0.50258 0.0
H965 H 0.05926 0.36976 0.47095 0.0
C966 C 0.00998 0.28642 0.49551 0.0
C967 C 0.0206 0.33924 0.49392 0.0
C968 C 0.01465 0.36459 0.50197 0.0
C969 C 0.03531 0.2938 0.47999 0.0
C970 C 0.05304 0.32415 0.47078 0.0
C971 C 0.04548 0.34645 0.47789 0.0
C972 C 0.07991 0.33344 0.45413 0.0
C973 C 0.04328 0.26922 0.47419 0.0
C974 C 0.10898 0.35736 0.46137 0.0
C975 C 0.13432 0.36661 0.44558 0.0
C976 C 0.13092 0.35216 0.42229 0.0
C977 C 0.10196 0.32808 0.41512 0.0
C978 C 0.07657 0.31899 0.43081 0.0
H979 H 0.03313 0.25027 0.48818 0.0
H980 H 0.03398 0.25925 0.45543 0.0
H981 H 0.06854 0.27883 0.47385 0.0
H982 H 0.11206 0.36885 0.47928 0.0
H983 H 0.15652 0.38522 0.45144 0.0
H984 H 0.68011 0.78071 0.39539 0.0
H985 H 0.69555 0.75023 0.42109 0.0
H986 H 0.63552 0.7469 0.48056 0.0
H987 H 0.61896 0.77609 0.45428 0.0
H988 H 0.72342 0.76123 0.46534 0.0
H989 H 0.6086 0.65724 0.47322 0.0
H990 H 0.61651 0.68797 0.45159 0.0
H991 H 0.6088 0.69107 0.4842 0.0
C992 C 0.66991 0.77298 0.4138 0.0
C993 C 0.64783 0.77994 0.42272 0.0
C994 C 0.67887 0.75581 0.42853 0.0
C995 C 0.6661 0.7456 0.4525 0.0
C996 C 0.64494 0.75368 0.46182 0.0
H997 H 0.74108 0.68738 0.57204 0.0
H998 H 0.72668 0.71516 0.54259 0.0
C999 C 0.63574 0.77059 0.44696 0.0
C1000 C 0.67546 0.72708 0.46793 0.0
H1001 H 0.64737 0.66009 0.5009 0.0
C1002 C 0.70681 0.73901 0.47297 0.0
C1003 C 0.65385 0.69778 0.47743 0.0
C1004 C 0.62011 0.6826 0.47112 0.0
C1005 C 0.71707 0.72287 0.48784 0.0
C1006 C 0.69528 0.69443 0.49857 0.0
C1007 C 0.66402 0.68207 0.49293 0.0
C1008 C 0.70433 0.67749 0.51622 0.0
C1009 C 0.75118 0.73633 0.49159 0.0
C1010 C 0.69567 0.64668 0.51164 0.0
C1011 C 0.70342 0.63048 0.52873 0.0
C1012 C 0.72002 0.64488 0.55065 0.0
C1013 C 0.72858 0.67571 0.55519 0.0
C1014 C 0.72055 0.69173 0.53826 0.0
H1015 H 0.76447 0.75205 0.47595 0.0
H1016 H 0.75821 0.74991 0.50925 0.0
H1017 H 0.75741 0.71808 0.49298 0.0
H1018 H 0.68295 0.63518 0.49481 0.0
H1019 H 0.69648 0.60676 0.52472 0.0
H1020 H 0.31146 0.05166 0.57243 0.0
H1021 H 0.28406 0.00672 0.54545 0.0
H1022 H 0.36237 0.04187 0.49591 0.0
H1023 H 0.39037 0.08668 0.52324 0.0
H1024 H 0.2672 0.00175 0.49683 0.0
H1025 H 0.34628 0.95589 0.50996 0.0
H1026 H 0.3481 0.98629 0.52925 0.0
H1027 H 0.36488 0.99458 0.49833 0.0
C1028 C 0.32293 0.04989 0.55581 0.0
C1029 C 0.35322 0.07266 0.55008 0.0
C1030 C 0.3072 0.02415 0.5404 0.0
C1031 C 0.32135 0.02066 0.51892 0.0
C1032 C 0.35129 0.04372 0.51275 0.0
H1033 H 0.22518 0.89308 0.39716 0.0
H1034 H 0.25286 0.93841 0.42401 0.0
C1035 C 0.36718 0.06942 0.52829 0.0
C1036 C 0.30446 0.99296 0.50295 0.0
H1037 H 0.30732 0.93139 0.47906 0.0
C1038 C 0.27593 0.98632 0.49298 0.0
C1039 C 0.31566 0.97259 0.4983 0.0
C1040 C 0.34526 0.97746 0.50971 0.0
C1041 C 0.25844 0.96006 0.47825 0.0
C1042 C 0.27016 0.9403 0.47285 0.0
C1043 C 0.29851 0.94672 0.48306 0.0
C1044 C 0.25341 0.91286 0.4566 0.0
C1045 C 0.22731 0.95344 0.46907 0.0
C1046 C 0.24525 0.88355 0.46579 0.0
C1047 C 0.22992 0.85772 0.45032 0.0
C1048 C 0.22267 0.86089 0.42543 0.0
C1049 C 0.23076 0.89017 0.41628 0.0
C1050 C 0.24624 0.91598 0.43166 0.0
H1051 H 0.21803 0.96528 0.48074 0.0
H1052 H 0.22942 0.96187 0.44948 0.0
H1053 H 0.21057 0.9284 0.46924 0.0
H1054 H 0.25071 0.88067 0.48496 0.0
H1055 H 0.22396 0.83532 0.45768 0.0
H1056 H 0.75465 0.06415 0.06025 0.0
H1057 H 0.73875 0.02065 0.03172 0.0
H1058 H 0.65605 0.02263 0.01404 0.0
H1059 H 0.67191 0.06641 0.04229 0.0
H1060 H 0.68566 0.96367 0.03571 0.0
H1061 H 0.68918 0.01927 0.94458 0.0
H1062 H 0.70752 0.041 0.97264 0.0
H1063 H 0.66677 0.02427 0.96844 0.0
C1064 C 0.7332 0.05554 0.05012 0.0
C1065 C 0.71452 0.06874 0.05354 0.0
C1066 C 0.72417 0.03068 0.03384 0.0
C1067 C 0.69641 0.01866 0.02059 0.0
C1068 C 0.67785 0.03195 0.02373 0.0
H1069 H 0.59515 0.8615 0.92268 0.0
H1070 H 0.61192 0.90643 0.95004 0.0
C1071 C 0.68689 0.05687 0.03999 0.0
C1072 C 0.68616 0.99122 0.00449 0.0
H1073 H 0.66613 0.96489 0.94437 0.0
C1074 C 0.68154 0.96395 0.01571 0.0
C1075 C 0.68075 0.9917 0.97844 0.0
C1076 C 0.68656 0.02068 0.96521 0.0
C1077 C 0.67117 0.93695 0.00163 0.0
C1078 C 0.66569 0.93742 0.9756 0.0
C1079 C 0.67029 0.96466 0.96437 0.0
C1080 C 0.65536 0.90989 0.95964 0.0
C1081 C 0.66557 0.90799 0.01478 0.0
C1082 C 0.67434 0.89717 0.95595 0.0
C1083 C 0.66486 0.87165 0.94032 0.0
C1084 C 0.6363 0.85857 0.92812 0.0
C1085 C 0.61731 0.87128 0.93188 0.0
C1086 C 0.62682 0.89684 0.94746 0.0
H1087 H 0.66376 0.90959 0.03549 0.0
H1088 H 0.64422 0.88777 0.00778 0.0
H1089 H 0.68502 0.90407 0.01088 0.0
H1090 H 0.69671 0.9073 0.9648 0.0
H1091 H 0.68014 0.86259 0.93731 0.0
H1092 H 0.94714 0.68761 0.07414 0.0
H1093 H 0.98929 0.71524 0.04464 0.0
H1094 H 0.95455 0.63414 0.99833 0.0
H1095 H 0.91264 0.60591 0.0283 0.0
H1096 H 0.01525 0.66042 0.00471 0.0
H1097 H 0.98735 0.74974 0.97704 0.0
H1098 H 0.99155 0.7486 0.01044 0.0
H1099 H 0.96097 0.71598 0.99455 0.0
C1100 C 0.9483 0.67565 0.05761 0.0
C1101 C 0.92646 0.64459 0.05349 0.0
C1102 C 0.97233 0.69158 0.04066 0.0
C1103 C 0.97471 0.67697 0.019 0.0
C1104 C 0.95301 0.64591 0.01485 0.0
H1105 H 0.0999 0.7778 0.8965 0.0
H1106 H 0.05457 0.74759 0.92286 0.0
C1107 C 0.92909 0.62982 0.03197 0.0
C1108 C 0.00059 0.69385 0.00127 0.0
H1109 H 0.03782 0.75964 0.9666 0.0
C1110 C 0.02004 0.68198 0.99618 0.0
C1111 C 0.00654 0.72173 0.98984 0.0
C1112 C 0.9853 0.73459 0.99303 0.0
C1113 C 0.04576 0.69763 0.98051 0.0
C1114 C 0.0527 0.72638 0.97025 0.0
C1115 C 0.03278 0.73784 0.9748 0.0
C1116 C 0.08025 0.74477 0.95445 0.0
C1117 C 0.06491 0.68292 0.97481 0.0
C1118 C 0.10977 0.75377 0.96364 0.0
C1119 C 0.13555 0.77049 0.94841 0.0
C1120 C 0.13221 0.77876 0.92392 0.0
C1121 C 0.10287 0.77092 0.91512 0.0
C1122 C 0.07707 0.7539 0.93021 0.0
H1123 H 0.05158 0.65762 0.97754 0.0
H1124 H 0.07369 0.68772 0.9552 0.0
H1125 H 0.08484 0.69228 0.98781 0.0
H1126 H 0.11287 0.74784 0.98256 0.0
H1127 H 0.15806 0.77667 0.95563 0.0
H1128 H 0.22779 0.32839 0.89623 0.0
H1129 H 0.25691 0.31214 0.92282 0.0
H1130 H 0.26126 0.37381 0.98124 0.0
H1131 H 0.23314 0.39096 0.95418 0.0
H1132 H 0.31649 0.37698 0.97377 0.0
H1133 H 0.224 0.25548 0.983 0.0
H1134 H 0.23396 0.26768 0.95097 0.0
H1135 H 0.21724 0.28487 0.97031 0.0
C1136 C 0.23521 0.33857 0.91469 0.0
C1137 C 0.22845 0.36095 0.92323 0.0
C1138 C 0.25151 0.32907 0.92994 0.0
C1139 C 0.26082 0.34141 0.95415 0.0
C1140 C 0.25417 0.36391 0.96265 0.0
H1141 H 0.31787 0.2671 0.07505 0.0
H1142 H 0.29151 0.28413 0.04641 0.0
C1143 C 0.23805 0.37357 0.9473 0.0
C1144 C 0.27782 0.33116 0.97053 0.0
H1145 H 0.2731 0.26792 -0.00136 0.0
C1146 C 0.30701 0.35315 0.97928 0.0
C1147 C 0.26523 0.30011 0.97788 0.0
C1148 C 0.23327 0.27571 0.97027 0.0
C1149 C 0.32405 0.34492 0.99513 0.0
C1150 C 0.31181 0.31372 0.00191 0.0
C1151 C 0.28258 0.29177 0.9932 0.0
C1152 C 0.32824 0.30349 0.019 0.0
C1153 C 0.35458 0.36984 0.00501 0.0
C1154 C 0.35755 0.3084 0.01297 0.0
C1155 C 0.37288 0.29893 0.02948 0.0
C1156 C 0.35892 0.28399 0.0521 0.0
C1157 C 0.3293 0.27856 0.05779 0.0
C1158 C 0.31416 0.28826 0.04143 0.0
H1159 H 0.35677 0.3929 0.00353 0.0
H1160 H 0.35783 0.36564 0.02497 0.0
H1161 H 0.37333 0.37017 0.99376 0.0
H1162 H 0.36853 0.31943 0.99547 0.0
H1163 H 0.39555 0.30319 0.02446 0.0
H1164 H 0.07114 0.67212 0.45642 0.0
H1165 H 0.02815 0.65732 0.48546 0.0
H1166 H 0.02255 0.73684 0.46312 0.0
H1167 H 0.06511 0.7516 0.43388 0.0
H1168 H 0.02139 0.68967 0.52594 0.0
H1169 H 0.93524 0.66556 0.45109 0.0
H1170 H 0.97246 0.66992 0.44461 0.0
H1171 H 0.96853 0.7032 0.44937 0.0
C1172 C 0.06079 0.68648 0.45772 0.0
C1173 C 0.07131 0.71284 0.44265 0.0
C1174 C 0.03627 0.678 0.47432 0.0
C1175 C 0.02185 0.69568 0.47604 0.0
C1176 C 0.03292 0.72251 0.46162 0.0
H1177 H 0.8697 0.68462 0.56101 0.0
H1178 H 0.91445 0.69985 0.5338 0.0
C1179 C 0.05734 0.73096 0.44501 0.0
C1180 C 0.99512 0.68608 0.49285 0.0
H1181 H 0.91938 0.66572 0.49311 0.0
C1182 C 0.99903 0.68426 0.5188 0.0
C1183 C 0.96602 0.67903 0.4834 0.0
C1184 C 0.96012 0.67922 0.45558 0.0
C1185 C 0.97469 0.6762 0.53566 0.0
C1186 C 0.94567 0.66941 0.5262 0.0
C1187 C 0.94174 0.67109 0.50026 0.0
C1188 C 0.91896 0.66033 0.54289 0.0
C1189 C 0.98035 0.67566 0.56348 0.0
C1190 C 0.90658 0.63292 0.5567 0.0
C1191 C 0.88095 0.62411 0.57203 0.0
C1192 C 0.86724 0.64248 0.57364 0.0
C1193 C 0.87961 0.66986 0.55976 0.0
C1194 C 0.90521 0.67865 0.54439 0.0
H1195 H 0.00524 0.68841 0.56805 0.0
H1196 H 0.9687 0.68575 0.57438 0.0
H1197 H 0.97087 0.6515 0.56967 0.0
H1198 H 0.91652 0.61819 0.5554 0.0
H1199 H 0.87161 0.60274 0.5824 0.0
H1200 H 0.38561 0.22946 0.54244 0.0
H1201 H 0.36828 0.25815 0.5163 0.0
H1202 H 0.30266 0.24722 0.57352 0.0
H1203 H 0.31907 0.2174 0.59908 0.0
H1204 H 0.27773 0.23713 0.52765 0.0
H1205 H 0.38915 0.34603 0.52716 0.0
H1206 H 0.39222 0.31416 0.51556 0.0
H1207 H 0.3815 0.3145 0.54781 0.0
C1208 C 0.36743 0.23319 0.54928 0.0
C1209 C 0.35402 0.22189 0.57286 0.0
C1210 C 0.35777 0.24979 0.53453 0.0
C1211 C 0.33477 0.25556 0.54329 0.0
C1212 C 0.32073 0.2434 0.56655 0.0
H1213 H 0.29657 0.39089 0.47436 0.0
H1214 H 0.31089 0.36268 0.50385 0.0
C1215 C 0.33021 0.22659 0.58118 0.0
C1216 C 0.32486 0.27372 0.528 0.0
H1217 H 0.35127 0.34254 0.49818 0.0
C1218 C 0.29377 0.26026 0.52134 0.0
C1219 C 0.34569 0.30413 0.52023 0.0
C1220 C 0.37893 0.32069 0.52827 0.0
C1221 C 0.28308 0.27604 0.50651 0.0
C1222 C 0.30423 0.30578 0.49755 0.0
C1223 C 0.33515 0.3196 0.50482 0.0
C1224 C 0.29491 0.32261 0.48005 0.0
C1225 C 0.24917 0.26079 0.50083 0.0
C1226 C 0.28154 0.30959 0.45681 0.0
C1227 C 0.27314 0.32548 0.44008 0.0
C1228 C 0.2784 0.35498 0.44607 0.0
C1229 C 0.29219 0.3682 0.46922 0.0
C1230 C 0.30038 0.35213 0.48607 0.0
H1231 H 0.23533 0.24328 0.51526 0.0
H1232 H 0.24132 0.27786 0.4999 0.0
H1233 H 0.24456 0.24893 0.4824 0.0
H1234 H 0.2779 0.28722 0.45146 0.0
H1235 H 0.26284 0.31473 0.42231 0.0
H1236 H 0.77793 0.10491 0.60266 0.0
H1237 H 0.75035 0.05967 0.57563 0.0
H1238 H 0.75203 0.11765 0.51507 0.0
H1239 H 0.77868 0.16284 0.54247 0.0
H1240 H 0.6953 0.0666 0.52137 0.0
H1241 H 0.78546 0.03383 0.51812 0.0
H1242 H 0.7741 0.03699 0.54947 0.0
H1243 H 0.79272 0.07056 0.52982 0.0
C1244 C 0.7722 0.10787 0.58361 0.0
C1245 C 0.78007 0.13714 0.57459 0.0
C1246 C 0.7568 0.08213 0.56812 0.0
C1247 C 0.74951 0.08537 0.54324 0.0
C1248 C 0.75753 0.11469 0.53419 0.0
H1249 H 0.69303 0.95151 0.42396 0.0
H1250 H 0.71992 0.99521 0.45229 0.0
C1251 C 0.77279 0.14042 0.54974 0.0
C1252 C 0.73284 0.0581 0.52685 0.0
H1253 H 0.73671 0.99788 0.50122 0.0
C1254 C 0.70437 0.0516 0.51688 0.0
C1255 C 0.74489 0.03878 0.52086 0.0
C1256 C 0.7761 0.0455 0.52991 0.0
C1257 C 0.68747 0.02614 0.50119 0.0
C1258 C 0.69911 0.00631 0.49579 0.0
C1259 C 0.72769 0.01294 0.50563 0.0
C1260 C 0.68265 0.97929 0.47909 0.0
C1261 C 0.65771 0.02118 0.49005 0.0
C1262 C 0.65293 0.95556 0.48498 0.0
C1263 C 0.63735 0.93059 0.46869 0.0
C1264 C 0.65142 0.92878 0.44641 0.0
C1265 C 0.6815 0.95221 0.44094 0.0
C1266 C 0.69693 0.97721 0.45712 0.0
H1267 H 0.65614 0.04245 0.49068 0.0
H1268 H 0.65518 0.01334 0.47022 0.0
H1269 H 0.6382 0.00324 0.50101 0.0
H1270 H 0.64178 0.95636 0.50215 0.0
H1271 H 0.61432 0.91277 0.47355 0.0
H1272 H 0.25214 0.31479 0.33916 0.0
H1273 H 0.26209 0.28367 0.30987 0.0
H1274 H 0.2123 0.30057 0.25195 0.0
H1275 H 0.20284 0.33275 0.28111 0.0
H1276 H 0.22665 0.23214 0.28151 0.0
H1277 H 0.29687 0.33397 0.22092 0.0
H1278 H 0.28357 0.33723 0.25163 0.0
H1279 H 0.25773 0.32461 0.22526 0.0
C1280 C 0.24304 0.31182 0.32025 0.0
C1281 C 0.22711 0.32676 0.31236 0.0
C1282 C 0.24865 0.29383 0.30356 0.0
C1283 C 0.23842 0.29024 0.27864 0.0
C1284 C 0.22096 0.3036 0.271 0.0
H1285 H 0.29856 0.22469 0.15244 0.0
H1286 H 0.26573 0.23488 0.17975 0.0
C1287 C 0.21549 0.32188 0.2877 0.0
C1288 C 0.2482 0.27446 0.26048 0.0
H1289 H 0.29341 0.28753 0.20889 0.0
C1290 C 0.241 0.2441 0.26547 0.0
C1291 C 0.26717 0.29025 0.23971 0.0
C1292 C 0.27707 0.32338 0.2341 0.0
C1293 C 0.25254 0.22924 0.25035 0.0
C1294 C 0.27189 0.24527 0.2299 0.0
C1295 C 0.27841 0.27527 0.22455 0.0
C1296 C 0.28706 0.23233 0.21428 0.0
C1297 C 0.24409 0.19664 0.2564 0.0
C1298 C 0.30925 0.22642 0.22474 0.0
C1299 C 0.32811 0.22046 0.20913 0.0
C1300 C 0.32524 0.22079 0.18285 0.0
C1301 C 0.30157 0.22463 0.17262 0.0
C1302 C 0.28271 0.23037 0.18818 0.0
H1303 H 0.22301 0.18499 0.26812 0.0
H1304 H 0.24043 0.18311 0.23893 0.0
H1305 H 0.26314 0.19681 0.26707 0.0
H1306 H 0.31333 0.22834 0.24484 0.0
H1307 H 0.34622 0.21772 0.21753 0.0
H1308 H 0.77754 0.0717 0.15082 0.0
H1309 H 0.76587 0.02826 0.17821 0.0
H1310 H 0.77067 0.08198 0.24302 0.0
H1311 H 0.78251 0.12592 0.21567 0.0
H1312 H 0.79648 0.03631 0.24633 0.0
H1313 H 0.67649 0.98897 0.21184 0.0
H1314 H 0.70653 0.00253 0.18865 0.0
H1315 H 0.70463 0.02934 0.20979 0.0
C1316 C 0.77681 0.07459 0.17096 0.0
C1317 C 0.78045 0.10209 0.18108 0.0
C1318 C 0.77022 0.04974 0.18654 0.0
C1319 C 0.76706 0.0519 0.2125 0.0
C1320 C 0.77305 0.08 0.22296 0.0
H1321 H 0.69715 0.93582 0.34001 0.0
H1322 H 0.7283 0.97579 0.31005 0.0
C1323 C 0.77982 0.10505 0.20734 0.0
C1324 C 0.75363 0.02382 0.22806 0.0
H1325 H 0.68545 0.9592 0.24078 0.0
C1326 C 0.77227 0.01931 0.24511 0.0
C1327 C 0.72211 0.00165 0.22612 0.0
C1328 C 0.70109 0.00575 0.20825 0.0
C1329 C 0.75999 0.99314 0.26058 0.0
C1330 C 0.72818 0.97144 0.25926 0.0
C1331 C 0.70983 0.9757 0.24168 0.0
C1332 C 0.71263 0.94591 0.27753 0.0
C1333 C 0.78123 0.98899 0.2781 0.0
C1334 C 0.69315 0.91563 0.26927 0.0
C1335 C 0.67475 0.89255 0.28644 0.0
C1336 C 0.6754 0.89949 0.31213 0.0
C1337 C 0.69593 0.92957 0.32037 0.0
C1338 C 0.71414 0.95252 0.30326 0.0
H1339 H 0.80504 0.0004 0.27059 0.0
H1340 H 0.78192 0.99976 0.29649 0.0
H1341 H 0.77336 0.96431 0.28128 0.0
H1342 H 0.69145 0.9101 0.24943 0.0
H1343 H 0.65922 0.86965 0.27948 0.0
H1344 H 0.87565 0.66172 0.21842 0.0
H1345 H 0.91984 0.69506 0.24497 0.0
H1346 H 0.97497 0.73578 0.17876 0.0
H1347 H 0.93131 0.70254 0.15221 0.0
H1348 H 0.99803 0.70891 0.21101 0.0
H1349 H 0.96977 0.78715 0.2632 0.0
H1350 H 0.9403 0.74739 0.26397 0.0
H1351 H 0.95024 0.76779 0.23459 0.0
C1352 C 0.89695 0.67837 0.20954 0.0
C1353 C 0.90011 0.67921 0.18324 0.0
C1354 C 0.92213 0.69751 0.22473 0.0
C1355 C 0.95063 0.71797 0.21379 0.0
C1356 C 0.95318 0.72019 0.18755 0.0
H1357 H 0.13422 0.79863 0.28189 0.0
H1358 H 0.09381 0.7908 0.25196 0.0
C1359 C 0.92819 0.70106 0.17242 0.0
C1360 C 0.97874 0.73356 0.22939 0.0
H1361 H 0.01213 0.78281 0.27862 0.0
C1362 C 0.00139 0.72545 0.22555 0.0
C1363 C 0.98287 0.75495 0.24836 0.0
C1364 C 0.95965 0.7651 0.25271 0.0
C1365 C 0.02748 0.7371 0.2409 0.0
C1366 C 0.03146 0.75813 0.26024 0.0
C1367 C 0.00918 0.76691 0.26364 0.0
C1368 C 0.05669 0.76829 0.27881 0.0
C1369 C 0.04963 0.72539 0.23711 0.0
C1370 C 0.0494 0.75997 0.30408 0.0
C1371 C 0.07235 0.76474 0.3212 0.0
C1372 C 0.10314 0.77783 0.3134 0.0
C1373 C 0.11071 0.78815 0.28844 0.0
C1374 C 0.08764 0.78355 0.2713 0.0
H1375 H 0.03976 0.70453 0.22507 0.0
H1376 H 0.07071 0.74342 0.22777 0.0
H1377 H 0.05632 0.71982 0.25542 0.0
H1378 H 0.02571 0.74833 0.31032 0.0
H1379 H 0.06563 0.75684 0.34034 0.0
H1380 H 0.76723 0.69991 0.65112 0.0
H1381 H 0.75629 0.73243 0.67813 0.0
H1382 H 0.77372 0.69303 0.74374 0.0
H1383 H 0.78512 0.66047 0.71675 0.0
H1384 H 0.70763 0.70576 0.71113 0.0
H1385 H 0.81508 0.78474 0.76181 0.0
H1386 H 0.81472 0.76509 0.73323 0.0
H1387 H 0.80516 0.74511 0.76281 0.0
C1388 C 0.76937 0.69855 0.67129 0.0
C1389 C 0.77671 0.67733 0.68183 0.0
C1390 C 0.76321 0.71727 0.68668 0.0
C1391 C 0.76433 0.71526 0.7129 0.0
C1392 C 0.77327 0.69534 0.72352 0.0
H1393 H 0.68909 0.75331 0.84089 0.0
H1394 H 0.71998 0.74435 0.81056 0.0
C1395 C 0.77962 0.67663 0.70808 0.0
C1396 C 0.75194 0.73064 0.7289 0.0
H1397 H 0.7685 0.77973 0.77838 0.0
C1398 C 0.72105 0.72232 0.72559 0.0
C1399 C 0.7695 0.75206 0.74778 0.0
C1400 C 0.80305 0.76254 0.75154 0.0
C1401 C 0.70681 0.73382 0.74132 0.0
C1402 C 0.72418 0.75485 0.76055 0.0
C1403 C 0.75533 0.7638 0.76349 0.0
C1404 C 0.70942 0.76507 0.77933 0.0
C1405 C 0.67288 0.72207 0.73801 0.0
C1406 C 0.69418 0.78084 0.77205 0.0
C1407 C 0.67609 0.78576 0.78935 0.0
C1408 C 0.67324 0.77519 0.81425 0.0
C1409 C 0.69041 0.76144 0.82181 0.0
C1410 C 0.70827 0.75641 0.80452 0.0
H1411 H 0.66172 0.70129 0.7259 0.0
H1412 H 0.66097 0.71638 0.75648 0.0
H1413 H 0.66962 0.74014 0.729 0.0
H1414 H 0.69532 0.78828 0.75276 0.0
H1415 H 0.66345 0.79672 0.78298 0.0
H1416 H 0.22977 0.93109 0.84061 0.0
H1417 H 0.24057 0.97211 0.81081 0.0
H1418 H 0.22908 0.91158 0.74911 0.0
H1419 H 0.21831 0.87017 0.77893 0.0
H1420 H 0.28655 0.96626 0.75119 0.0
H1421 H 0.191 0.99105 0.7592 0.0
H1422 H 0.20645 0.98793 0.78881 0.0
H1423 H 0.18734 0.95485 0.76874 0.0
C1424 C 0.22888 0.92623 0.82068 0.0
C1425 C 0.2235 0.89746 0.81211 0.0
C1426 C 0.23478 0.94967 0.80367 0.0
C1427 C 0.23537 0.94479 0.77779 0.0
C1428 C 0.22847 0.91565 0.76906 0.0
H1429 H 0.30017 0.06933 0.65208 0.0
H1430 H 0.26922 0.02643 0.68022 0.0
C1431 C 0.22231 0.89205 0.78609 0.0
C1432 C 0.24754 0.97123 0.76038 0.0
H1433 H 0.237 0.02953 0.73929 0.0
C1434 C 0.27553 0.97988 0.74836 0.0
C1435 C 0.23323 0.98908 0.75699 0.0
C1436 C 0.2027 0.98017 0.76893 0.0
C1437 C 0.28995 0.00629 0.73341 0.0
C1438 C 0.27593 0.02439 0.73034 0.0
C1439 C 0.24772 0.01563 0.74199 0.0
C1440 C 0.29025 0.05188 0.7142 0.0
C1441 C 0.3203 0.01503 0.72111 0.0
C1442 C 0.31159 0.08058 0.72422 0.0
C1443 C 0.32941 0.10529 0.70817 0.0
C1444 C 0.32624 0.10135 0.68195 0.0
C1445 C 0.30341 0.07301 0.67219 0.0
C1446 C 0.28556 0.0485 0.68819 0.0
H1447 H 0.32873 0.99908 0.72617 0.0
H1448 H 0.31787 0.01496 0.70036 0.0
H1449 H 0.33782 0.03867 0.7268 0.0
H1450 H 0.31554 0.08339 0.74432 0.0
H1451 H 0.34682 0.12681 0.71623 0.0
H1452 H 0.12437 0.34045 0.78182 0.0
H1453 H 0.0796 0.30789 0.75549 0.0
H1454 H 0.02592 0.26505 0.82192 0.0
H1455 H 0.07018 0.29753 0.84831 0.0
H1456 H 0.03486 0.24041 0.75237 0.0
H1457 H 0.98556 0.31098 0.78752 0.0
H1458 H 0.02564 0.32275 0.79113 0.0
H1459 H 0.99739 0.29344 0.81111 0.0
C1460 C 0.10325 0.32359 0.79078 0.0
C1461 C 0.10063 0.32194 0.81713 0.0
C1462 C 0.07773 0.30502 0.77573 0.0
C1463 C 0.04942 0.28452 0.78686 0.0
C1464 C 0.04749 0.28107 0.81304 0.0
H1465 H 0.86749 0.20809 0.71898 0.0
H1466 H 0.9077 0.21555 0.74895 0.0
C1467 C 0.07282 0.29969 0.82806 0.0
C1468 C 0.02122 0.26946 0.77144 0.0
H1469 H 0.95587 0.27174 0.75892 0.0
C1470 C 0.01743 0.24703 0.75386 0.0
C1471 C 0.99853 0.27812 0.77359 0.0
C1472 C 0.00192 0.30279 0.7917 0.0
C1473 C 0.99154 0.23321 0.73811 0.0
C1474 C 0.96932 0.24259 0.73973 0.0
C1475 C 0.97278 0.26439 0.75784 0.0
C1476 C 0.9441 0.23287 0.72123 0.0
C1477 C 0.98827 0.20878 0.71986 0.0
C1478 C 0.95116 0.23971 0.69571 0.0
C1479 C 0.92835 0.2355 0.67862 0.0
C1480 C 0.89799 0.22466 0.68673 0.0
C1481 C 0.89063 0.2165 0.71213 0.0
C1482 C 0.91356 0.22072 0.72926 0.0
H1483 H 0.00029 0.19674 0.72682 0.0
H1484 H 0.96377 0.19155 0.71648 0.0
H1485 H 0.99888 0.21973 0.70165 0.0
H1486 H 0.97463 0.24982 0.68916 0.0
H1487 H 0.93488 0.24193 0.65919 0.0
loop_
_geom_bond_atom_site_label_1
_geom_bond_atom_site_label_2
_geom_bond_distance
_geom_bond_site_symmetry_2
_ccdc_geom_bond_type
Co0 O3 1.970 . S
Co0 N17 1.989 . S
Co0 O25 1.967 . S
Co0 O32 1.920 . S
Co1 O4 1.966 . S
Co1 N10 2.022 . S
Co1 N18 1.993 . S
Co1 O26 1.941 . S
C2 O3 1.258 . S
C2 O4 1.263 . S
O3 Co0 1.970 . S
O3 C2 1.258 . S
O4 Co1 1.966 . S
O4 C2 1.263 . S
C5 O6 1.235 . S
C5 O32 1.289 . S
O6 C5 1.235 . S
C7 C9 1.400 . S
C7 N10 1.351 . S
C7 C12 1.501 . S
C8 C9 1.387 . S
C8 N11 1.341 . S
C9 C7 1.400 . S
C9 C8 1.387 . S
N10 Co1 2.022 . S
N10 C7 1.351 . S
N10 N11 1.365 . S
N11 C8 1.341 . S
N11 N10 1.365 . S
N11 H31 0.862 . S
C12 C7 1.501 . S
C12 H13 0.961 . S
C12 H14 0.961 . S
C12 H15 0.960 . S
H13 C12 0.961 . S
H14 C12 0.961 . S
H15 C12 0.960 . S
C16 N17 1.342 . S
C16 C20 1.401 . S
C16 C21 1.499 . S
N17 Co0 1.989 . S
N17 C16 1.342 . S
N17 N18 1.388 . S
N18 Co1 1.993 . S
N18 N17 1.388 . S
N18 C19 1.346 . S
C19 N18 1.346 . S
C19 C20 1.396 . S
C19 C29 1.510 . S
C20 C16 1.401 . S
C20 C19 1.396 . S
C21 C16 1.499 . S
C21 H22 0.959 . S
C21 H23 0.960 . S
C21 H24 0.961 . S
H22 C21 0.959 . S
H23 C21 0.960 . S
H24 C21 0.961 . S
O25 Co0 1.967 . S
O25 C33 1.258 . S
O26 Co1 1.941 . S
O26 C33 1.266 . S
H27 C29 0.959 . S
H28 C29 0.961 . S
C29 C19 1.510 . S
C29 H27 0.959 . S
C29 H28 0.961 . S
C29 H30 0.960 . S
H30 C29 0.960 . S
H31 N11 0.862 . S
O32 Co0 1.920 . S
O32 C5 1.289 . S
C33 O25 1.258 . S
C33 O26 1.266 . S
Co34 O37 1.970 . S
Co34 N51 1.989 . S
Co34 O59 1.967 . S
Co34 O66 1.920 . S
Co35 O38 1.966 . S
Co35 N44 2.022 . S
Co35 N52 1.993 . S
Co35 O60 1.941 . S
C36 O37 1.258 . S
C36 O38 1.263 . S
O37 Co34 1.970 . S
O37 C36 1.258 . S
O38 Co35 1.966 . S
O38 C36 1.263 . S
C39 O40 1.235 . S
C39 O66 1.289 . S
O40 C39 1.235 . S
C41 C43 1.400 . S
C41 N44 1.351 . S
C41 C46 1.501 . S
C42 C43 1.387 . S
C42 N45 1.341 . S
C43 C41 1.400 . S
C43 C42 1.387 . S
N44 Co35 2.022 . S
N44 C41 1.351 . S
N44 N45 1.365 . S
N45 C42 1.341 . S
N45 N44 1.365 . S
N45 H65 0.862 . S
C46 C41 1.501 . S
C46 H47 0.961 . S
C46 H48 0.961 . S
C46 H49 0.960 . S
H47 C46 0.961 . S
H48 C46 0.961 . S
H49 C46 0.960 . S
C50 N51 1.342 . S
C50 C54 1.401 . S
C50 C55 1.499 . S
N51 Co34 1.989 . S
N51 C50 1.342 . S
N51 N52 1.388 . S
N52 Co35 1.993 . S
N52 N51 1.388 . S
N52 C53 1.346 . S
C53 N52 1.346 . S
C53 C54 1.396 . S
C53 C63 1.510 . S
C54 C50 1.401 . S
C54 C53 1.396 . S
C55 C50 1.499 . S
C55 H56 0.959 . S
C55 H57 0.960 . S
C55 H58 0.961 . S
H56 C55 0.959 . S
H57 C55 0.960 . S
H58 C55 0.961 . S
O59 Co34 1.967 . S
O59 C67 1.258 . S
O60 Co35 1.941 . S
O60 C67 1.266 . S
H61 C63 0.959 . S
H62 C63 0.961 . S
C63 C53 1.510 . S
C63 H61 0.959 . S
C63 H62 0.961 . S
C63 H64 0.960 . S
H64 C63 0.960 . S
H65 N45 0.862 . S
O66 Co34 1.920 . S
O66 C39 1.289 . S
C67 O59 1.258 . S
C67 O60 1.266 . S
Co68 O71 1.970 . S
Co68 N85 1.989 . S
Co68 O93 1.967 . S
Co68 O100 1.920 . S
Co69 O72 1.966 . S
Co69 N78 2.022 . S
Co69 N86 1.993 . S
Co69 O94 1.941 . S
C70 O71 1.258 . S
C70 O72 1.263 . S
O71 Co68 1.970 . S
O71 C70 1.258 . S
O72 Co69 1.966 . S
O72 C70 1.263 . S
C73 O74 1.235 . S
C73 O100 1.289 . S
O74 C73 1.235 . S
C75 C77 1.400 . S
C75 N78 1.351 . S
C75 C80 1.501 . S
C76 C77 1.387 . S
C76 N79 1.341 . S
C77 C75 1.400 . S
C77 C76 1.387 . S
N78 Co69 2.022 . S
N78 C75 1.351 . S
N78 N79 1.365 . S
N79 C76 1.341 . S
N79 N78 1.365 . S
N79 H99 0.862 . S
C80 C75 1.501 . S
C80 H81 0.961 . S
C80 H82 0.961 . S
C80 H83 0.960 . S
H81 C80 0.961 . S
H82 C80 0.961 . S
H83 C80 0.960 . S
C84 N85 1.342 . S
C84 C88 1.401 . S
C84 C89 1.499 . S
N85 Co68 1.989 . S
N85 C84 1.342 . S
N85 N86 1.388 . S
N86 Co69 1.993 . S
N86 N85 1.388 . S
N86 C87 1.346 . S
C87 N86 1.346 . S
C87 C88 1.396 . S
C87 C97 1.510 . S
C88 C84 1.401 . S
C88 C87 1.396 . S
C89 C84 1.499 . S
C89 H90 0.959 . S
C89 H91 0.960 . S
C89 H92 0.961 . S
H90 C89 0.959 . S
H91 C89 0.960 . S
H92 C89 0.961 . S
O93 Co68 1.967 . S
O93 C101 1.258 . S
O94 Co69 1.941 . S
O94 C101 1.266 . S
H95 C97 0.959 . S
H96 C97 0.961 . S
C97 C87 1.510 . S
C97 H95 0.959 . S
C97 H96 0.961 . S
C97 H98 0.960 . S
H98 C97 0.960 . S
H99 N79 0.862 . S
O100 Co68 1.920 . S
O100 C73 1.289 . S
C101 O93 1.258 . S
C101 O94 1.266 . S
Co102 O105 1.970 . S
Co102 N119 1.989 . S
Co102 O127 1.967 . S
Co102 O134 1.920 . S
Co103 O106 1.966 . S
Co103 N112 2.022 . S
Co103 N120 1.993 . S
Co103 O128 1.941 . S
C104 O105 1.258 . S
C104 O106 1.263 . S
O105 Co102 1.970 . S
O105 C104 1.258 . S
O106 Co103 1.966 . S
O106 C104 1.263 . S
C107 O108 1.235 . S
C107 O134 1.289 . S
O108 C107 1.235 . S
C109 C111 1.400 . S
C109 N112 1.351 . S
C109 C114 1.501 . S
C110 C111 1.387 . S
C110 N113 1.341 . S
C111 C109 1.400 . S
C111 C110 1.387 . S
N112 Co103 2.022 . S
N112 C109 1.351 . S
N112 N113 1.365 . S
N113 C110 1.341 . S
N113 N112 1.365 . S
N113 H133 0.862 . S
C114 C109 1.501 . S
C114 H115 0.961 . S
C114 H116 0.961 . S
C114 H117 0.960 . S
H115 C114 0.961 . S
H116 C114 0.961 . S
H117 C114 0.960 . S
C118 N119 1.342 . S
C118 C122 1.401 . S
C118 C123 1.499 . S
N119 Co102 1.989 . S
N119 C118 1.342 . S
N119 N120 1.388 . S
N120 Co103 1.993 . S
N120 N119 1.388 . S
N120 C121 1.346 . S
C121 N120 1.346 . S
C121 C122 1.396 . S
C121 C131 1.510 . S
C122 C118 1.401 . S
C122 C121 1.396 . S
C123 C118 1.499 . S
C123 H124 0.959 . S
C123 H125 0.960 . S
C123 H126 0.961 . S
H124 C123 0.959 . S
H125 C123 0.960 . S
H126 C123 0.961 . S
O127 Co102 1.967 . S
O127 C135 1.258 . S
O128 Co103 1.941 . S
O128 C135 1.266 . S
H129 C131 0.959 . S
H130 C131 0.961 . S
C131 C121 1.510 . S
C131 H129 0.959 . S
C131 H130 0.961 . S
C131 H132 0.960 . S
H132 C131 0.960 . S
H133 N113 0.862 . S
O134 Co102 1.920 . S
O134 C107 1.289 . S
C135 O127 1.258 . S
C135 O128 1.266 . S
Co136 O139 1.970 . S
Co136 N153 1.989 . S
Co136 O161 1.967 . S
Co136 O168 1.920 . S
Co137 O140 1.966 . S
Co137 N146 2.022 . S
Co137 N154 1.993 . S
Co137 O162 1.941 . S
C138 O139 1.258 . S
C138 O140 1.263 . S
O139 Co136 1.970 . S
O139 C138 1.258 . S
O140 Co137 1.966 . S
O140 C138 1.263 . S
C141 O142 1.235 . S
C141 O168 1.289 . S
O142 C141 1.235 . S
C143 C145 1.400 . S
C143 N146 1.351 . S
C143 C148 1.501 . S
C144 C145 1.387 . S
C144 N147 1.341 . S
C145 C143 1.400 . S
C145 C144 1.387 . S
N146 Co137 2.022 . S
N146 C143 1.351 . S
N146 N147 1.365 . S
N147 C144 1.341 . S
N147 N146 1.365 . S
N147 H167 0.862 . S
C148 C143 1.501 . S
C148 H149 0.961 . S
C148 H150 0.961 . S
C148 H151 0.960 . S
H149 C148 0.961 . S
H150 C148 0.961 . S
H151 C148 0.960 . S
C152 N153 1.342 . S
C152 C156 1.401 . S
C152 C157 1.499 . S
N153 Co136 1.989 . S
N153 C152 1.342 . S
N153 N154 1.388 . S
N154 Co137 1.993 . S
N154 N153 1.388 . S
N154 C155 1.346 . S
C155 N154 1.346 . S
C155 C156 1.396 . S
C155 C165 1.510 . S
C156 C152 1.401 . S
C156 C155 1.396 . S
C157 C152 1.499 . S
C157 H158 0.959 . S
C157 H159 0.960 . S
C157 H160 0.961 . S
H158 C157 0.959 . S
H159 C157 0.960 . S
H160 C157 0.961 . S
O161 Co136 1.967 . S
O161 C169 1.258 . S
O162 Co137 1.941 . S
O162 C169 1.266 . S
H163 C165 0.959 . S
H164 C165 0.961 . S
C165 C155 1.510 . S
C165 H163 0.959 . S
C165 H164 0.961 . S
C165 H166 0.960 . S
H166 C165 0.960 . S
H167 N147 0.862 . S
O168 Co136 1.920 . S
O168 C141 1.289 . S
C169 O161 1.258 . S
C169 O162 1.266 . S
Co170 O173 1.970 . S
Co170 N187 1.989 . S
Co170 O195 1.967 . S
Co170 O202 1.920 . S
Co171 O174 1.966 . S
Co171 N180 2.022 . S
Co171 N188 1.993 . S
Co171 O196 1.941 . S
C172 O173 1.258 . S
C172 O174 1.263 . S
O173 Co170 1.970 . S
O173 C172 1.258 . S
O174 Co171 1.966 . S
O174 C172 1.263 . S
C175 O176 1.235 . S
C175 O202 1.289 . S
O176 C175 1.235 . S
C177 C179 1.400 . S
C177 N180 1.351 . S
C177 C182 1.501 . S
C178 C179 1.387 . S
C178 N181 1.341 . S
C179 C177 1.400 . S
C179 C178 1.387 . S
N180 Co171 2.022 . S
N180 C177 1.351 . S
N180 N181 1.365 . S
N181 C178 1.341 . S
N181 N180 1.365 . S
N181 H201 0.862 . S
C182 C177 1.501 . S
C182 H183 0.961 . S
C182 H184 0.961 . S
C182 H185 0.960 . S
H183 C182 0.961 . S
H184 C182 0.961 . S
H185 C182 0.960 . S
C186 N187 1.342 . S
C186 C190 1.401 . S
C186 C191 1.499 . S
N187 Co170 1.989 . S
N187 C186 1.342 . S
N187 N188 1.388 . S
N188 Co171 1.993 . S
N188 N187 1.388 . S
N188 C189 1.346 . S
C189 N188 1.346 . S
C189 C190 1.396 . S
C189 C199 1.510 . S
C190 C186 1.401 . S
C190 C189 1.396 . S
C191 C186 1.499 . S
C191 H192 0.959 . S
C191 H193 0.960 . S
C191 H194 0.961 . S
H192 C191 0.959 . S
H193 C191 0.960 . S
H194 C191 0.961 . S
O195 Co170 1.967 . S
O195 C203 1.258 . S
O196 Co171 1.941 . S
O196 C203 1.266 . S
H197 C199 0.959 . S
H198 C199 0.961 . S
C199 C189 1.510 . S
C199 H197 0.959 . S
C199 H198 0.961 . S
C199 H200 0.960 . S
H200 C199 0.960 . S
H201 N181 0.862 . S
O202 Co170 1.920 . S
O202 C175 1.289 . S
C203 O195 1.258 . S
C203 O196 1.266 . S
Co204 O207 1.970 . S
Co204 N221 1.989 . S
Co204 O229 1.967 . S
Co204 O236 1.920 . S
Co205 O208 1.966 . S
Co205 N214 2.022 . S
Co205 N222 1.993 . S
Co205 O230 1.941 . S
C206 O207 1.258 . S
C206 O208 1.263 . S
O207 Co204 1.970 . S
O207 C206 1.258 . S
O208 Co205 1.966 . S
O208 C206 1.263 . S
C209 O210 1.235 . S
C209 O236 1.289 . S
O210 C209 1.235 . S
C211 C213 1.400 . S
C211 N214 1.351 . S
C211 C216 1.501 . S
C212 C213 1.387 . S
C212 N215 1.341 . S
C213 C211 1.400 . S
C213 C212 1.387 . S
N214 Co205 2.022 . S
N214 C211 1.351 . S
N214 N215 1.365 . S
N215 C212 1.341 . S
N215 N214 1.365 . S
N215 H235 0.862 . S
C216 C211 1.501 . S
C216 H217 0.961 . S
C216 H218 0.961 . S
C216 H219 0.960 . S
H217 C216 0.961 . S
H218 C216 0.961 . S
H219 C216 0.960 . S
C220 N221 1.342 . S
C220 C224 1.401 . S
C220 C225 1.499 . S
N221 Co204 1.989 . S
N221 C220 1.342 . S
N221 N222 1.388 . S
N222 Co205 1.993 . S
N222 N221 1.388 . S
N222 C223 1.346 . S
C223 N222 1.346 . S
C223 C224 1.396 . S
C223 C233 1.510 . S
C224 C220 1.401 . S
C224 C223 1.396 . S
C225 C220 1.499 . S
C225 H226 0.959 . S
C225 H227 0.960 . S
C225 H228 0.961 . S
H226 C225 0.959 . S
H227 C225 0.960 . S
H228 C225 0.961 . S
O229 Co204 1.967 . S
O229 C237 1.258 . S
O230 Co205 1.941 . S
O230 C237 1.266 . S
H231 C233 0.959 . S
H232 C233 0.961 . S
C233 C223 1.510 . S
C233 H231 0.959 . S
C233 H232 0.961 . S
C233 H234 0.960 . S
H234 C233 0.960 . S
H235 N215 0.862 . S
O236 Co204 1.920 . S
O236 C209 1.289 . S
C237 O229 1.258 . S
C237 O230 1.266 . S
Co238 O241 1.970 . S
Co238 N255 1.989 . S
Co238 O263 1.967 . S
Co238 O270 1.920 . S
Co239 O242 1.966 . S
Co239 N248 2.022 . S
Co239 N256 1.993 . S
Co239 O264 1.941 . S
C240 O241 1.258 . S
C240 O242 1.263 . S
O241 Co238 1.970 . S
O241 C240 1.258 . S
O242 Co239 1.966 . S
O242 C240 1.263 . S
C243 O244 1.235 . S
C243 O270 1.289 . S
O244 C243 1.235 . S
C245 C247 1.400 . S
C245 N248 1.351 . S
C245 C250 1.501 . S
C246 C247 1.387 . S
C246 N249 1.341 . S
C247 C245 1.400 . S
C247 C246 1.387 . S
N248 Co239 2.022 . S
N248 C245 1.351 . S
N248 N249 1.365 . S
N249 C246 1.341 . S
N249 N248 1.365 . S
N249 H269 0.862 . S
C250 C245 1.501 . S
C250 H251 0.961 . S
C250 H252 0.961 . S
C250 H253 0.960 . S
H251 C250 0.961 . S
H252 C250 0.961 . S
H253 C250 0.960 . S
C254 N255 1.342 . S
C254 C258 1.401 . S
C254 C259 1.499 . S
N255 Co238 1.989 . S
N255 C254 1.342 . S
N255 N256 1.388 . S
N256 Co239 1.993 . S
N256 N255 1.388 . S
N256 C257 1.346 . S
C257 N256 1.346 . S
C257 C258 1.396 . S
C257 C267 1.510 . S
C258 C254 1.401 . S
C258 C257 1.396 . S
C259 C254 1.499 . S
C259 H260 0.959 . S
C259 H261 0.960 . S
C259 H262 0.961 . S
H260 C259 0.959 . S
H261 C259 0.960 . S
H262 C259 0.961 . S
O263 Co238 1.967 . S
O263 C271 1.258 . S
O264 Co239 1.941 . S
O264 C271 1.266 . S
H265 C267 0.959 . S
H266 C267 0.961 . S
C267 C257 1.510 . S
C267 H265 0.959 . S
C267 H266 0.961 . S
C267 H268 0.960 . S
H268 C267 0.960 . S
H269 N249 0.862 . S
O270 Co238 1.920 . S
O270 C243 1.289 . S
C271 O263 1.258 . S
C271 O264 1.266 . S
Co272 O275 1.970 . S
Co272 N289 1.989 . S
Co272 O297 1.967 . S
Co272 O304 1.920 . S
Co273 O276 1.966 . S
Co273 N282 2.022 . S
Co273 N290 1.993 . S
Co273 O298 1.941 . S
C274 O275 1.258 . S
C274 O276 1.263 . S
O275 Co272 1.970 . S
O275 C274 1.258 . S
O276 Co273 1.966 . S
O276 C274 1.263 . S
C277 O278 1.235 . S
C277 O304 1.289 . S
O278 C277 1.235 . S
C279 C281 1.400 . S
C279 N282 1.351 . S
C279 C284 1.501 . S
C280 C281 1.387 . S
C280 N283 1.341 . S
C281 C279 1.400 . S
C281 C280 1.387 . S
N282 Co273 2.022 . S
N282 C279 1.351 . S
N282 N283 1.365 . S
N283 C280 1.341 . S
N283 N282 1.365 . S
N283 H303 0.862 . S
C284 C279 1.501 . S
C284 H285 0.961 . S
C284 H286 0.961 . S
C284 H287 0.960 . S
H285 C284 0.961 . S
H286 C284 0.961 . S
H287 C284 0.960 . S
C288 N289 1.342 . S
C288 C292 1.401 . S
C288 C293 1.499 . S
N289 Co272 1.989 . S
N289 C288 1.342 . S
N289 N290 1.388 . S
N290 Co273 1.993 . S
N290 N289 1.388 . S
N290 C291 1.346 . S
C291 N290 1.346 . S
C291 C292 1.396 . S
C291 C301 1.510 . S
C292 C288 1.401 . S
C292 C291 1.396 . S
C293 C288 1.499 . S
C293 H294 0.959 . S
C293 H295 0.960 . S
C293 H296 0.961 . S
H294 C293 0.959 . S
H295 C293 0.960 . S
H296 C293 0.961 . S
O297 Co272 1.967 . S
O297 C305 1.258 . S
O298 Co273 1.941 . S
O298 C305 1.266 . S
H299 C301 0.959 . S
H300 C301 0.961 . S
C301 C291 1.510 . S
C301 H299 0.959 . S
C301 H300 0.961 . S
C301 H302 0.960 . S
H302 C301 0.960 . S
H303 N283 0.862 . S
O304 Co272 1.920 . S
O304 C277 1.289 . S
C305 O297 1.258 . S
C305 O298 1.266 . S
Co306 O309 1.970 . S
Co306 N323 1.989 . S
Co306 O331 1.967 . S
Co306 O338 1.920 . S
Co307 O310 1.966 . S
Co307 N316 2.022 . S
Co307 N324 1.993 . S
Co307 O332 1.941 . S
C308 O309 1.258 . S
C308 O310 1.263 . S
O309 Co306 1.970 . S
O309 C308 1.258 . S
O310 Co307 1.966 . S
O310 C308 1.263 . S
C311 O312 1.235 . S
C311 O338 1.289 . S
O312 C311 1.235 . S
C313 C315 1.400 . S
C313 N316 1.351 . S
C313 C318 1.501 . S
C314 C315 1.387 . S
C314 N317 1.341 . S
C315 C313 1.400 . S
C315 C314 1.387 . S
N316 Co307 2.022 . S
N316 C313 1.351 . S
N316 N317 1.365 . S
N317 C314 1.341 . S
N317 N316 1.365 . S
N317 H337 0.862 . S
C318 C313 1.501 . S
C318 H319 0.961 . S
C318 H320 0.961 . S
C318 H321 0.960 . S
H319 C318 0.961 . S
H320 C318 0.961 . S
H321 C318 0.960 . S
C322 N323 1.342 . S
C322 C326 1.401 . S
C322 C327 1.499 . S
N323 Co306 1.989 . S
N323 C322 1.342 . S
N323 N324 1.388 . S
N324 Co307 1.993 . S
N324 N323 1.388 . S
N324 C325 1.346 . S
C325 N324 1.346 . S
C325 C326 1.396 . S
C325 C335 1.510 . S
C326 C322 1.401 . S
C326 C325 1.396 . S
C327 C322 1.499 . S
C327 H328 0.959 . S
C327 H329 0.960 . S
C327 H330 0.961 . S
H328 C327 0.959 . S
H329 C327 0.960 . S
H330 C327 0.961 . S
O331 Co306 1.967 . S
O331 C339 1.258 . S
O332 Co307 1.941 . S
O332 C339 1.266 . S
H333 C335 0.959 . S
H334 C335 0.961 . S
C335 C325 1.510 . S
C335 H333 0.959 . S
C335 H334 0.961 . S
C335 H336 0.960 . S
H336 C335 0.960 . S
H337 N317 0.862 . S
O338 Co306 1.920 . S
O338 C311 1.289 . S
C339 O331 1.258 . S
C339 O332 1.266 . S
Co340 O343 1.970 . S
Co340 N357 1.989 . S
Co340 O365 1.967 . S
Co340 O372 1.920 . S
Co341 O344 1.966 . S
Co341 N350 2.022 . S
Co341 N358 1.993 . S
Co341 O366 1.941 . S
C342 O343 1.258 . S
C342 O344 1.263 . S
O343 Co340 1.970 . S
O343 C342 1.258 . S
O344 Co341 1.966 . S
O344 C342 1.263 . S
C345 O346 1.235 . S
C345 O372 1.289 . S
O346 C345 1.235 . S
C347 C349 1.400 . S
C347 N350 1.351 . S
C347 C352 1.501 . S
C348 C349 1.387 . S
C348 N351 1.341 . S
C349 C347 1.400 . S
C349 C348 1.387 . S
N350 Co341 2.022 . S
N350 C347 1.351 . S
N350 N351 1.365 . S
N351 C348 1.341 . S
N351 N350 1.365 . S
N351 H371 0.862 . S
C352 C347 1.501 . S
C352 H353 0.961 . S
C352 H354 0.961 . S
C352 H355 0.960 . S
H353 C352 0.961 . S
H354 C352 0.961 . S
H355 C352 0.960 . S
C356 N357 1.342 . S
C356 C360 1.401 . S
C356 C361 1.499 . S
N357 Co340 1.989 . S
N357 C356 1.342 . S
N357 N358 1.388 . S
N358 Co341 1.993 . S
N358 N357 1.388 . S
N358 C359 1.346 . S
C359 N358 1.346 . S
C359 C360 1.396 . S
C359 C369 1.510 . S
C360 C356 1.401 . S
C360 C359 1.396 . S
C361 C356 1.499 . S
C361 H362 0.959 . S
C361 H363 0.960 . S
C361 H364 0.961 . S
H362 C361 0.959 . S
H363 C361 0.960 . S
H364 C361 0.961 . S
O365 Co340 1.967 . S
O365 C373 1.258 . S
O366 Co341 1.941 . S
O366 C373 1.266 . S
H367 C369 0.959 . S
H368 C369 0.961 . S
C369 C359 1.510 . S
C369 H367 0.959 . S
C369 H368 0.961 . S
C369 H370 0.960 . S
H370 C369 0.960 . S
H371 N351 0.862 . S
O372 Co340 1.920 . S
O372 C345 1.289 . S
C373 O365 1.258 . S
C373 O366 1.266 . S
Co374 O377 1.970 . S
Co374 N391 1.989 . S
Co374 O399 1.967 . S
Co374 O406 1.920 . S
Co375 O378 1.966 . S
Co375 N384 2.022 . S
Co375 N392 1.993 . S
Co375 O400 1.941 . S
C376 O377 1.258 . S
C376 O378 1.263 . S
O377 Co374 1.970 . S
O377 C376 1.258 . S
O378 Co375 1.966 . S
O378 C376 1.263 . S
C379 O380 1.235 . S
C379 O406 1.289 . S
O380 C379 1.235 . S
C381 C383 1.400 . S
C381 N384 1.351 . S
C381 C386 1.501 . S
C382 C383 1.387 . S
C382 N385 1.341 . S
C383 C381 1.400 . S
C383 C382 1.387 . S
N384 Co375 2.022 . S
N384 C381 1.351 . S
N384 N385 1.365 . S
N385 C382 1.341 . S
N385 N384 1.365 . S
N385 H405 0.862 . S
C386 C381 1.501 . S
C386 H387 0.961 . S
C386 H388 0.961 . S
C386 H389 0.960 . S
H387 C386 0.961 . S
H388 C386 0.961 . S
H389 C386 0.960 . S
C390 N391 1.342 . S
C390 C394 1.401 . S
C390 C395 1.499 . S
N391 Co374 1.989 . S
N391 C390 1.342 . S
N391 N392 1.388 . S
N392 Co375 1.993 . S
N392 N391 1.388 . S
N392 C393 1.346 . S
C393 N392 1.346 . S
C393 C394 1.396 . S
C393 C403 1.510 . S
C394 C390 1.401 . S
C394 C393 1.396 . S
C395 C390 1.499 . S
C395 H396 0.959 . S
C395 H397 0.960 . S
C395 H398 0.961 . S
H396 C395 0.959 . S
H397 C395 0.960 . S
H398 C395 0.961 . S
O399 Co374 1.967 . S
O399 C407 1.258 . S
O400 Co375 1.941 . S
O400 C407 1.266 . S
H401 C403 0.959 . S
H402 C403 0.961 . S
C403 C393 1.510 . S
C403 H401 0.959 . S
C403 H402 0.961 . S
C403 H404 0.960 . S
H404 C403 0.960 . S
H405 N385 0.862 . S
O406 Co374 1.920 . S
O406 C379 1.289 . S
C407 O399 1.258 . S
C407 O400 1.266 . S
H408 C416 0.929 . S
H409 C418 0.930 . S
H410 C420 0.930 . S
H411 C423 0.929 . S
H412 C426 0.930 . S
H413 C428 0.960 . S
H414 C428 0.960 . S
H415 C428 0.960 . S
C416 H408 0.929 . S
C416 C417 1.377 . S
C416 C418 1.384 . S
C417 C416 1.377 . S
C417 C423 1.390 . S
C418 H409 0.930 . S
C418 C416 1.384 . S
C418 C419 1.372 . S
C419 C418 1.372 . S
C419 C420 1.400 . S
C419 C424 1.490 . S
C420 H410 0.930 . S
C420 C419 1.400 . S
C420 C423 1.386 . S
H421 C437 0.930 . S
H422 C438 0.931 . S
C423 H411 0.929 . S
C423 C417 1.390 . S
C423 C420 1.386 . S
C424 C419 1.490 . S
C424 C426 1.395 . S
C424 C427 1.403 . S
H425 C431 0.930 . S
C426 H412 0.930 . S
C426 C424 1.395 . S
C426 C429 1.403 . S
C427 C424 1.403 . S
C427 C428 1.524 . S
C427 C431 1.400 . S
C428 H413 0.960 . S
C428 H414 0.960 . S
C428 H415 0.960 . S
C428 C427 1.524 . S
C429 C426 1.403 . S
C429 C430 1.392 . S
C429 C433 1.495 . S
C430 C429 1.392 . S
C430 C431 1.385 . S
C430 C432 1.478 . S
C431 H425 0.930 . S
C431 C427 1.400 . S
C431 C430 1.385 . S
C432 C430 1.478 . S
C432 C434 1.381 . S
C432 C438 1.383 . S
C433 C429 1.495 . S
C433 H439 0.959 . S
C433 H440 0.961 . S
C433 H441 0.960 . S
C434 C432 1.381 . S
C434 C435 1.394 . S
C434 H442 0.930 . S
C435 C434 1.394 . S
C435 C436 1.383 . S
C435 H443 0.929 . S
C436 C435 1.383 . S
C436 C437 1.377 . S
C437 H421 0.930 . S
C437 C436 1.377 . S
C437 C438 1.379 . S
C438 H422 0.931 . S
C438 C432 1.383 . S
C438 C437 1.379 . S
H439 C433 0.959 . S
H440 C433 0.961 . S
H441 C433 0.960 . S
H442 C434 0.930 . S
H443 C435 0.929 . S
H444 C452 0.929 . S
H445 C454 0.930 . S
H446 C456 0.930 . S
H447 C459 0.929 . S
H448 C462 0.930 . S
H449 C464 0.960 . S
H450 C464 0.960 . S
H451 C464 0.960 . S
C452 H444 0.929 . S
C452 C453 1.377 . S
C452 C454 1.384 . S
C453 C452 1.377 . S
C453 C459 1.390 . S
C454 H445 0.930 . S
C454 C452 1.384 . S
C454 C455 1.372 . S
C455 C454 1.372 . S
C455 C456 1.400 . S
C455 C460 1.490 . S
C456 H446 0.930 . S
C456 C455 1.400 . S
C456 C459 1.386 . S
H457 C473 0.930 . S
H458 C474 0.931 . S
C459 H447 0.929 . S
C459 C453 1.390 . S
C459 C456 1.386 . S
C460 C455 1.490 . S
C460 C462 1.395 . S
C460 C463 1.403 . S
H461 C467 0.930 . S
C462 H448 0.930 . S
C462 C460 1.395 . S
C462 C465 1.403 . S
C463 C460 1.403 . S
C463 C464 1.524 . S
C463 C467 1.400 . S
C464 H449 0.960 . S
C464 H450 0.960 . S
C464 H451 0.960 . S
C464 C463 1.524 . S
C465 C462 1.403 . S
C465 C466 1.392 . S
C465 C469 1.495 . S
C466 C465 1.392 . S
C466 C467 1.385 . S
C466 C468 1.478 . S
C467 H461 0.930 . S
C467 C463 1.400 . S
C467 C466 1.385 . S
C468 C466 1.478 . S
C468 C470 1.381 . S
C468 C474 1.383 . S
C469 C465 1.495 . S
C469 H475 0.959 . S
C469 H476 0.961 . S
C469 H477 0.960 . S
C470 C468 1.381 . S
C470 C471 1.394 . S
C470 H478 0.930 . S
C471 C470 1.394 . S
C471 C472 1.383 . S
C471 H479 0.929 . S
C472 C471 1.383 . S
C472 C473 1.377 . S
C473 H457 0.930 . S
C473 C472 1.377 . S
C473 C474 1.379 . S
C474 H458 0.931 . S
C474 C468 1.383 . S
C474 C473 1.379 . S
H475 C469 0.959 . S
H476 C469 0.961 . S
H477 C469 0.960 . S
H478 C470 0.930 . S
H479 C471 0.929 . S
H480 C488 0.929 . S
H481 C490 0.930 . S
H482 C492 0.930 . S
H483 C495 0.929 . S
H484 C498 0.930 . S
H485 C500 0.960 . S
H486 C500 0.960 . S
H487 C500 0.960 . S
C488 H480 0.929 . S
C488 C489 1.377 . S
C488 C490 1.384 . S
C489 C488 1.377 . S
C489 C495 1.390 . S
C490 H481 0.930 . S
C490 C488 1.384 . S
C490 C491 1.372 . S
C491 C490 1.372 . S
C491 C492 1.400 . S
C491 C496 1.490 . S
C492 H482 0.930 . S
C492 C491 1.400 . S
C492 C495 1.386 . S
H493 C509 0.930 . S
H494 C510 0.931 . S
C495 H483 0.929 . S
C495 C489 1.390 . S
C495 C492 1.386 . S
C496 C491 1.490 . S
C496 C498 1.395 . S
C496 C499 1.403 . S
H497 C503 0.930 . S
C498 H484 0.930 . S
C498 C496 1.395 . S
C498 C501 1.403 . S
C499 C496 1.403 . S
C499 C500 1.524 . S
C499 C503 1.400 . S
C500 H485 0.960 . S
C500 H486 0.960 . S
C500 H487 0.960 . S
C500 C499 1.524 . S
C501 C498 1.403 . S
C501 C502 1.392 . S
C501 C505 1.495 . S
C502 C501 1.392 . S
C502 C503 1.385 . S
C502 C504 1.478 . S
C503 H497 0.930 . S
C503 C499 1.400 . S
C503 C502 1.385 . S
C504 C502 1.478 . S
C504 C506 1.381 . S
C504 C510 1.383 . S
C505 C501 1.495 . S
C505 H511 0.959 . S
C505 H512 0.961 . S
C505 H513 0.960 . S
C506 C504 1.381 . S
C506 C507 1.394 . S
C506 H514 0.930 . S
C507 C506 1.394 . S
C507 C508 1.383 . S
C507 H515 0.929 . S
C508 C507 1.383 . S
C508 C509 1.377 . S
C509 H493 0.930 . S
C509 C508 1.377 . S
C509 C510 1.379 . S
C510 H494 0.931 . S
C510 C504 1.383 . S
C510 C509 1.379 . S
H511 C505 0.959 . S
H512 C505 0.961 . S
H513 C505 0.960 . S
H514 C506 0.930 . S
H515 C507 0.929 . S
H516 C524 0.929 . S
H517 C526 0.930 . S
H518 C528 0.930 . S
H519 C531 0.929 . S
H520 C534 0.930 . S
H521 C536 0.960 . S
H522 C536 0.960 . S
H523 C536 0.960 . S
C524 H516 0.929 . S
C524 C525 1.377 . S
C524 C526 1.384 . S
C525 C524 1.377 . S
C525 C531 1.390 . S
C526 H517 0.930 . S
C526 C524 1.384 . S
C526 C527 1.372 . S
C527 C526 1.372 . S
C527 C528 1.400 . S
C527 C532 1.490 . S
C528 H518 0.930 . S
C528 C527 1.400 . S
C528 C531 1.386 . S
H529 C545 0.930 . S
H530 C546 0.931 . S
C531 H519 0.929 . S
C531 C525 1.390 . S
C531 C528 1.386 . S
C532 C527 1.490 . S
C532 C534 1.395 . S
C532 C535 1.403 . S
H533 C539 0.930 . S
C534 H520 0.930 . S
C534 C532 1.395 . S
C534 C537 1.403 . S
C535 C532 1.403 . S
C535 C536 1.524 . S
C535 C539 1.400 . S
C536 H521 0.960 . S
C536 H522 0.960 . S
C536 H523 0.960 . S
C536 C535 1.524 . S
C537 C534 1.403 . S
C537 C538 1.392 . S
C537 C541 1.495 . S
C538 C537 1.392 . S
C538 C539 1.385 . S
C538 C540 1.478 . S
C539 H533 0.930 . S
C539 C535 1.400 . S
C539 C538 1.385 . S
C540 C538 1.478 . S
C540 C542 1.381 . S
C540 C546 1.383 . S
C541 C537 1.495 . S
C541 H547 0.959 . S
C541 H548 0.961 . S
C541 H549 0.960 . S
C542 C540 1.381 . S
C542 C543 1.394 . S
C542 H550 0.930 . S
C543 C542 1.394 . S
C543 C544 1.383 . S
C543 H551 0.929 . S
C544 C543 1.383 . S
C544 C545 1.377 . S
C545 H529 0.930 . S
C545 C544 1.377 . S
C545 C546 1.379 . S
C546 H530 0.931 . S
C546 C540 1.383 . S
C546 C545 1.379 . S
H547 C541 0.959 . S
H548 C541 0.961 . S
H549 C541 0.960 . S
H550 C542 0.930 . S
H551 C543 0.929 . S
H552 C560 0.929 . S
H553 C562 0.930 . S
H554 C564 0.930 . S
H555 C567 0.929 . S
H556 C570 0.930 . S
H557 C572 0.960 . S
H558 C572 0.960 . S
H559 C572 0.960 . S
C560 H552 0.929 . S
C560 C561 1.377 . S
C560 C562 1.384 . S
C561 C560 1.377 . S
C561 C567 1.390 . S
C562 H553 0.930 . S
C562 C560 1.384 . S
C562 C563 1.372 . S
C563 C562 1.372 . S
C563 C564 1.400 . S
C563 C568 1.490 . S
C564 H554 0.930 . S
C564 C563 1.400 . S
C564 C567 1.386 . S
H565 C581 0.930 . S
H566 C582 0.931 . S
C567 H555 0.929 . S
C567 C561 1.390 . S
C567 C564 1.386 . S
C568 C563 1.490 . S
C568 C570 1.395 . S
C568 C571 1.403 . S
H569 C575 0.930 . S
C570 H556 0.930 . S
C570 C568 1.395 . S
C570 C573 1.403 . S
C571 C568 1.403 . S
C571 C572 1.524 . S
C571 C575 1.400 . S
C572 H557 0.960 . S
C572 H558 0.960 . S
C572 H559 0.960 . S
C572 C571 1.524 . S
C573 C570 1.403 . S
C573 C574 1.392 . S
C573 C577 1.495 . S
C574 C573 1.392 . S
C574 C575 1.385 . S
C574 C576 1.478 . S
C575 H569 0.930 . S
C575 C571 1.400 . S
C575 C574 1.385 . S
C576 C574 1.478 . S
C576 C578 1.381 . S
C576 C582 1.383 . S
C577 C573 1.495 . S
C577 H583 0.959 . S
C577 H584 0.961 . S
C577 H585 0.960 . S
C578 C576 1.381 . S
C578 C579 1.394 . S
C578 H586 0.930 . S
C579 C578 1.394 . S
C579 C580 1.383 . S
C579 H587 0.929 . S
C580 C579 1.383 . S
C580 C581 1.377 . S
C581 H565 0.930 . S
C581 C580 1.377 . S
C581 C582 1.379 . S
C582 H566 0.931 . S
C582 C576 1.383 . S
C582 C581 1.379 . S
H583 C577 0.959 . S
H584 C577 0.961 . S
H585 C577 0.960 . S
H586 C578 0.930 . S
H587 C579 0.929 . S
H588 C596 0.929 . S
H589 C598 0.930 . S
H590 C600 0.930 . S
H591 C603 0.929 . S
H592 C606 0.930 . S
H593 C608 0.960 . S
H594 C608 0.960 . S
H595 C608 0.960 . S
C596 H588 0.929 . S
C596 C597 1.377 . S
C596 C598 1.384 . S
C597 C596 1.377 . S
C597 C603 1.390 . S
C598 H589 0.930 . S
C598 C596 1.384 . S
C598 C599 1.372 . S
C599 C598 1.372 . S
C599 C600 1.400 . S
C599 C604 1.490 . S
C600 H590 0.930 . S
C600 C599 1.400 . S
C600 C603 1.386 . S
H601 C617 0.930 . S
H602 C618 0.931 . S
C603 H591 0.929 . S
C603 C597 1.390 . S
C603 C600 1.386 . S
C604 C599 1.490 . S
C604 C606 1.395 . S
C604 C607 1.403 . S
H605 C611 0.930 . S
C606 H592 0.930 . S
C606 C604 1.395 . S
C606 C609 1.403 . S
C607 C604 1.403 . S
C607 C608 1.524 . S
C607 C611 1.400 . S
C608 H593 0.960 . S
C608 H594 0.960 . S
C608 H595 0.960 . S
C608 C607 1.524 . S
C609 C606 1.403 . S
C609 C610 1.392 . S
C609 C613 1.495 . S
C610 C609 1.392 . S
C610 C611 1.385 . S
C610 C612 1.478 . S
C611 H605 0.930 . S
C611 C607 1.400 . S
C611 C610 1.385 . S
C612 C610 1.478 . S
C612 C614 1.381 . S
C612 C618 1.383 . S
C613 C609 1.495 . S
C613 H619 0.959 . S
C613 H620 0.961 . S
C613 H621 0.960 . S
C614 C612 1.381 . S
C614 C615 1.394 . S
C614 H622 0.930 . S
C615 C614 1.394 . S
C615 C616 1.383 . S
C615 H623 0.929 . S
C616 C615 1.383 . S
C616 C617 1.377 . S
C617 H601 0.930 . S
C617 C616 1.377 . S
C617 C618 1.379 . S
C618 H602 0.931 . S
C618 C612 1.383 . S
C618 C617 1.379 . S
H619 C613 0.959 . S
H620 C613 0.961 . S
H621 C613 0.960 . S
H622 C614 0.930 . S
H623 C615 0.929 . S
H624 C632 0.929 . S
H625 C634 0.930 . S
H626 C636 0.930 . S
H627 C639 0.929 . S
H628 C642 0.930 . S
H629 C644 0.960 . S
H630 C644 0.960 . S
H631 C644 0.960 . S
C632 H624 0.929 . S
C632 C633 1.377 . S
C632 C634 1.384 . S
C633 C632 1.377 . S
C633 C639 1.390 . S
C634 H625 0.930 . S
C634 C632 1.384 . S
C634 C635 1.372 . S
C635 C634 1.372 . S
C635 C636 1.400 . S
C635 C640 1.490 . S
C636 H626 0.930 . S
C636 C635 1.400 . S
C636 C639 1.386 . S
H637 C653 0.930 . S
H638 C654 0.931 . S
C639 H627 0.929 . S
C639 C633 1.390 . S
C639 C636 1.386 . S
C640 C635 1.490 . S
C640 C642 1.395 . S
C640 C643 1.403 . S
H641 C647 0.930 . S
C642 H628 0.930 . S
C642 C640 1.395 . S
C642 C645 1.403 . S
C643 C640 1.403 . S
C643 C644 1.524 . S
C643 C647 1.400 . S
C644 H629 0.960 . S
C644 H630 0.960 . S
C644 H631 0.960 . S
C644 C643 1.524 . S
C645 C642 1.403 . S
C645 C646 1.392 . S
C645 C649 1.495 . S
C646 C645 1.392 . S
C646 C647 1.385 . S
C646 C648 1.478 . S
C647 H641 0.930 . S
C647 C643 1.400 . S
C647 C646 1.385 . S
C648 C646 1.478 . S
C648 C650 1.381 . S
C648 C654 1.383 . S
C649 C645 1.495 . S
C649 H655 0.959 . S
C649 H656 0.961 . S
C649 H657 0.960 . S
C650 C648 1.381 . S
C650 C651 1.394 . S
C650 H658 0.930 . S
C651 C650 1.394 . S
C651 C652 1.383 . S
C651 H659 0.929 . S
C652 C651 1.383 . S
C652 C653 1.377 . S
C653 H637 0.930 . S
C653 C652 1.377 . S
C653 C654 1.379 . S
C654 H638 0.931 . S
C654 C648 1.383 . S
C654 C653 1.379 . S
H655 C649 0.959 . S
H656 C649 0.961 . S
H657 C649 0.960 . S
H658 C650 0.930 . S
H659 C651 0.929 . S
H660 C668 0.929 . S
H661 C670 0.930 . S
H662 C672 0.930 . S
H663 C675 0.929 . S
H664 C678 0.930 . S
H665 C680 0.960 . S
H666 C680 0.960 . S
H667 C680 0.960 . S
C668 H660 0.929 . S
C668 C669 1.377 . S
C668 C670 1.384 . S
C669 C668 1.377 . S
C669 C675 1.390 . S
C670 H661 0.930 . S
C670 C668 1.384 . S
C670 C671 1.372 . S
C671 C670 1.372 . S
C671 C672 1.400 . S
C671 C676 1.490 . S
C672 H662 0.930 . S
C672 C671 1.400 . S
C672 C675 1.386 . S
H673 C689 0.930 . S
H674 C690 0.931 . S
C675 H663 0.929 . S
C675 C669 1.390 . S
C675 C672 1.386 . S
C676 C671 1.490 . S
C676 C678 1.395 . S
C676 C679 1.403 . S
H677 C683 0.930 . S
C678 H664 0.930 . S
C678 C676 1.395 . S
C678 C681 1.403 . S
C679 C676 1.403 . S
C679 C680 1.524 . S
C679 C683 1.400 . S
C680 H665 0.960 . S
C680 H666 0.960 . S
C680 H667 0.960 . S
C680 C679 1.524 . S
C681 C678 1.403 . S
C681 C682 1.392 . S
C681 C685 1.495 . S
C682 C681 1.392 . S
C682 C683 1.385 . S
C682 C684 1.478 . S
C683 H677 0.930 . S
C683 C679 1.400 . S
C683 C682 1.385 . S
C684 C682 1.478 . S
C684 C686 1.381 . S
C684 C690 1.383 . S
C685 C681 1.495 . S
C685 H691 0.959 . S
C685 H692 0.961 . S
C685 H693 0.960 . S
C686 C684 1.381 . S
C686 C687 1.394 . S
C686 H694 0.930 . S
C687 C686 1.394 . S
C687 C688 1.383 . S
C687 H695 0.929 . S
C688 C687 1.383 . S
C688 C689 1.377 . S
C689 H673 0.930 . S
C689 C688 1.377 . S
C689 C690 1.379 . S
C690 H674 0.931 . S
C690 C684 1.383 . S
C690 C689 1.379 . S
H691 C685 0.959 . S
H692 C685 0.961 . S
H693 C685 0.960 . S
H694 C686 0.930 . S
H695 C687 0.929 . S
H696 C704 0.929 . S
H697 C706 0.930 . S
H698 C708 0.930 . S
H699 C711 0.929 . S
H700 C714 0.930 . S
H701 C716 0.960 . S
H702 C716 0.960 . S
H703 C716 0.960 . S
C704 H696 0.929 . S
C704 C705 1.377 . S
C704 C706 1.384 . S
C705 C704 1.377 . S
C705 C711 1.390 . S
C706 H697 0.930 . S
C706 C704 1.384 . S
C706 C707 1.372 . S
C707 C706 1.372 . S
C707 C708 1.400 . S
C707 C712 1.490 . S
C708 H698 0.930 . S
C708 C707 1.400 . S
C708 C711 1.386 . S
H709 C725 0.930 . S
H710 C726 0.931 . S
C711 H699 0.929 . S
C711 C705 1.390 . S
C711 C708 1.386 . S
C712 C707 1.490 . S
C712 C714 1.395 . S
C712 C715 1.403 . S
H713 C719 0.930 . S
C714 H700 0.930 . S
C714 C712 1.395 . S
C714 C717 1.403 . S
C715 C712 1.403 . S
C715 C716 1.524 . S
C715 C719 1.400 . S
C716 H701 0.960 . S
C716 H702 0.960 . S
C716 H703 0.960 . S
C716 C715 1.524 . S
C717 C714 1.403 . S
C717 C718 1.392 . S
C717 C721 1.495 . S
C718 C717 1.392 . S
C718 C719 1.385 . S
C718 C720 1.478 . S
C719 H713 0.930 . S
C719 C715 1.400 . S
C719 C718 1.385 . S
C720 C718 1.478 . S
C720 C722 1.381 . S
C720 C726 1.383 . S
C721 C717 1.495 . S
C721 H727 0.959 . S
C721 H728 0.961 . S
C721 H729 0.960 . S
C722 C720 1.381 . S
C722 C723 1.394 . S
C722 H730 0.930 . S
C723 C722 1.394 . S
C723 C724 1.383 . S
C723 H731 0.929 . S
C724 C723 1.383 . S
C724 C725 1.377 . S
C725 H709 0.930 . S
C725 C724 1.377 . S
C725 C726 1.379 . S
C726 H710 0.931 . S
C726 C720 1.383 . S
C726 C725 1.379 . S
H727 C721 0.959 . S
H728 C721 0.961 . S
H729 C721 0.960 . S
H730 C722 0.930 . S
H731 C723 0.929 . S
H732 C740 0.929 . S
H733 C742 0.930 . S
H734 C744 0.930 . S
H735 C747 0.929 . S
H736 C750 0.930 . S
H737 C752 0.960 . S
H738 C752 0.960 . S
H739 C752 0.960 . S
C740 H732 0.929 . S
C740 C741 1.377 . S
C740 C742 1.384 . S
C741 C740 1.377 . S
C741 C747 1.390 . S
C742 H733 0.930 . S
C742 C740 1.384 . S
C742 C743 1.372 . S
C743 C742 1.372 . S
C743 C744 1.400 . S
C743 C748 1.490 . S
C744 H734 0.930 . S
C744 C743 1.400 . S
C744 C747 1.386 . S
H745 C761 0.930 . S
H746 C762 0.931 . S
C747 H735 0.929 . S
C747 C741 1.390 . S
C747 C744 1.386 . S
C748 C743 1.490 . S
C748 C750 1.395 . S
C748 C751 1.403 . S
H749 C755 0.930 . S
C750 H736 0.930 . S
C750 C748 1.395 . S
C750 C753 1.403 . S
C751 C748 1.403 . S
C751 C752 1.524 . S
C751 C755 1.400 . S
C752 H737 0.960 . S
C752 H738 0.960 . S
C752 H739 0.960 . S
C752 C751 1.524 . S
C753 C750 1.403 . S
C753 C754 1.392 . S
C753 C757 1.495 . S
C754 C753 1.392 . S
C754 C755 1.385 . S
C754 C756 1.478 . S
C755 H749 0.930 . S
C755 C751 1.400 . S
C755 C754 1.385 . S
C756 C754 1.478 . S
C756 C758 1.381 . S
C756 C762 1.383 . S
C757 C753 1.495 . S
C757 H763 0.959 . S
C757 H764 0.961 . S
C757 H765 0.960 . S
C758 C756 1.381 . S
C758 C759 1.394 . S
C758 H766 0.930 . S
C759 C758 1.394 . S
C759 C760 1.383 . S
C759 H767 0.929 . S
C760 C759 1.383 . S
C760 C761 1.377 . S
C761 H745 0.930 . S
C761 C760 1.377 . S
C761 C762 1.379 . S
C762 H746 0.931 . S
C762 C756 1.383 . S
C762 C761 1.379 . S
H763 C757 0.959 . S
H764 C757 0.961 . S
H765 C757 0.960 . S
H766 C758 0.930 . S
H767 C759 0.929 . S
H768 C776 0.929 . S
H769 C778 0.930 . S
H770 C780 0.930 . S
H771 C783 0.929 . S
H772 C786 0.930 . S
H773 C788 0.960 . S
H774 C788 0.960 . S
H775 C788 0.960 . S
C776 H768 0.929 . S
C776 C777 1.377 . S
C776 C778 1.384 . S
C777 C776 1.377 . S
C777 C783 1.390 . S
C778 H769 0.930 . S
C778 C776 1.384 . S
C778 C779 1.372 . S
C779 C778 1.372 . S
C779 C780 1.400 . S
C779 C784 1.490 . S
C780 H770 0.930 . S
C780 C779 1.400 . S
C780 C783 1.386 . S
H781 C797 0.930 . S
H782 C798 0.931 . S
C783 H771 0.929 . S
C783 C777 1.390 . S
C783 C780 1.386 . S
C784 C779 1.490 . S
C784 C786 1.395 . S
C784 C787 1.403 . S
H785 C791 0.930 . S
C786 H772 0.930 . S
C786 C784 1.395 . S
C786 C789 1.403 . S
C787 C784 1.403 . S
C787 C788 1.524 . S
C787 C791 1.400 . S
C788 H773 0.960 . S
C788 H774 0.960 . S
C788 H775 0.960 . S
C788 C787 1.524 . S
C789 C786 1.403 . S
C789 C790 1.392 . S
C789 C793 1.495 . S
C790 C789 1.392 . S
C790 C791 1.385 . S
C790 C792 1.478 . S
C791 H785 0.930 . S
C791 C787 1.400 . S
C791 C790 1.385 . S
C792 C790 1.478 . S
C792 C794 1.381 . S
C792 C798 1.383 . S
C793 C789 1.495 . S
C793 H799 0.959 . S
C793 H800 0.961 . S
C793 H801 0.960 . S
C794 C792 1.381 . S
C794 C795 1.394 . S
C794 H802 0.930 . S
C795 C794 1.394 . S
C795 C796 1.383 . S
C795 H803 0.929 . S
C796 C795 1.383 . S
C796 C797 1.377 . S
C797 H781 0.930 . S
C797 C796 1.377 . S
C797 C798 1.379 . S
C798 H782 0.931 . S
C798 C792 1.383 . S
C798 C797 1.379 . S
H799 C793 0.959 . S
H800 C793 0.961 . S
H801 C793 0.960 . S
H802 C794 0.930 . S
H803 C795 0.929 . S
H804 C812 0.929 . S
H805 C814 0.930 . S
H806 C816 0.930 . S
H807 C819 0.929 . S
H808 C822 0.930 . S
H809 C824 0.960 . S
H810 C824 0.960 . S
H811 C824 0.960 . S
C812 H804 0.929 . S
C812 C813 1.377 . S
C812 C814 1.384 . S
C813 C812 1.377 . S
C813 C819 1.390 . S
C814 H805 0.930 . S
C814 C812 1.384 . S
C814 C815 1.372 . S
C815 C814 1.372 . S
C815 C816 1.400 . S
C815 C820 1.490 . S
C816 H806 0.930 . S
C816 C815 1.400 . S
C816 C819 1.386 . S
H817 C833 0.930 . S
H818 C834 0.931 . S
C819 H807 0.929 . S
C819 C813 1.390 . S
C819 C816 1.386 . S
C820 C815 1.490 . S
C820 C822 1.395 . S
C820 C823 1.403 . S
H821 C827 0.930 . S
C822 H808 0.930 . S
C822 C820 1.395 . S
C822 C825 1.403 . S
C823 C820 1.403 . S
C823 C824 1.524 . S
C823 C827 1.400 . S
C824 H809 0.960 . S
C824 H810 0.960 . S
C824 H811 0.960 . S
C824 C823 1.524 . S
C825 C822 1.403 . S
C825 C826 1.392 . S
C825 C829 1.495 . S
C826 C825 1.392 . S
C826 C827 1.385 . S
C826 C828 1.478 . S
C827 H821 0.930 . S
C827 C823 1.400 . S
C827 C826 1.385 . S
C828 C826 1.478 . S
C828 C830 1.381 . S
C828 C834 1.383 . S
C829 C825 1.495 . S
C829 H835 0.959 . S
C829 H836 0.961 . S
C829 H837 0.960 . S
C830 C828 1.381 . S
C830 C831 1.394 . S
C830 H838 0.930 . S
C831 C830 1.394 . S
C831 C832 1.383 . S
C831 H839 0.929 . S
C832 C831 1.383 . S
C832 C833 1.377 . S
C833 H817 0.930 . S
C833 C832 1.377 . S
C833 C834 1.379 . S
C834 H818 0.931 . S
C834 C828 1.383 . S
C834 C833 1.379 . S
H835 C829 0.959 . S
H836 C829 0.961 . S
H837 C829 0.960 . S
H838 C830 0.930 . S
H839 C831 0.929 . S
H840 C848 0.929 . S
H841 C850 0.930 . S
H842 C852 0.930 . S
H843 C855 0.929 . S
H844 C858 0.930 . S
H845 C860 0.960 . S
H846 C860 0.960 . S
H847 C860 0.960 . S
C848 H840 0.929 . S
C848 C849 1.377 . S
C848 C850 1.384 . S
C849 C848 1.377 . S
C849 C855 1.390 . S
C850 H841 0.930 . S
C850 C848 1.384 . S
C850 C851 1.372 . S
C851 C850 1.372 . S
C851 C852 1.400 . S
C851 C856 1.490 . S
C852 H842 0.930 . S
C852 C851 1.400 . S
C852 C855 1.386 . S
H853 C869 0.930 . S
H854 C870 0.931 . S
C855 H843 0.929 . S
C855 C849 1.390 . S
C855 C852 1.386 . S
C856 C851 1.490 . S
C856 C858 1.395 . S
C856 C859 1.403 . S
H857 C863 0.935 1_565 S
C858 H844 0.930 . S
C858 C856 1.395 . S
C858 C861 1.403 1_554 S
C859 C856 1.403 . S
C859 C860 1.524 . S
C859 C863 1.400 . S
C860 H845 0.960 . S
C860 H846 0.960 . S
C860 H847 0.960 . S
C860 C859 1.524 . S
C861 C858 1.403 1_556 S
C861 C862 1.406 . S
C861 C865 1.495 . S
C862 C861 1.406 . S
C862 C863 1.381 1_556 S
C862 C864 1.468 1_545 S
C863 H857 0.935 1_545 S
C863 C859 1.400 . S
C863 C862 1.381 1_554 S
C864 C862 1.468 1_565 S
C864 C866 1.381 . S
C864 C870 1.383 . S
C865 C861 1.495 . S
C865 H871 0.959 . S
C865 H872 0.961 . S
C865 H873 0.960 1_545 S
C866 C864 1.381 . S
C866 C867 1.394 . S
C866 H874 0.930 . S
C867 C866 1.394 . S
C867 C868 1.383 . S
C867 H875 0.929 . S
C868 C867 1.383 . S
C868 C869 1.377 . S
C869 H853 0.930 . S
C869 C868 1.377 . S
C869 C870 1.379 . S
C870 H854 0.931 . S
C870 C864 1.383 . S
C870 C869 1.379 . S
H871 C865 0.959 . S
H872 C865 0.961 . S
H873 C865 0.960 1_565 S
H874 C866 0.930 . S
H875 C867 0.929 . S
H876 C884 0.929 . S
H877 C886 0.930 . S
H878 C888 0.930 . S
H879 C891 0.929 . S
H880 C894 0.930 . S
H881 C896 0.960 1_556 S
H882 C896 0.957 1_556 S
H883 C896 0.960 . S
C884 H876 0.929 . S
C884 C885 1.377 . S
C884 C886 1.384 . S
C885 C884 1.377 . S
C885 C891 1.390 . S
C886 H877 0.930 . S
C886 C884 1.384 . S
C886 C887 1.372 . S
C887 C886 1.372 . S
C887 C888 1.400 . S
C887 C892 1.490 . S
C888 H878 0.930 . S
C888 C887 1.400 . S
C888 C891 1.386 . S
H889 C905 0.930 . S
H890 C906 0.931 . S
C891 H879 0.929 . S
C891 C885 1.390 . S
C891 C888 1.386 . S
C892 C887 1.490 . S
C892 C894 1.395 . S
C892 C895 1.403 . S
H893 C899 0.930 . S
C894 H880 0.930 . S
C894 C892 1.395 . S
C894 C897 1.409 . S
C895 C892 1.403 . S
C895 C896 1.524 . S
C895 C899 1.400 1_554 S
C896 H881 0.960 1_554 S
C896 H882 0.957 1_554 S
C896 H883 0.960 . S
C896 C895 1.524 . S
C897 C894 1.409 . S
C897 C898 1.388 1_654 S
C897 C901 1.494 1_655 S
C898 C897 1.388 1_456 S
C898 C899 1.385 1_455 S
C898 C900 1.478 . S
C899 H893 0.930 . S
C899 C895 1.400 1_556 S
C899 C898 1.385 1_655 S
C900 C898 1.478 . S
C900 C902 1.381 . S
C900 C906 1.383 . S
C901 C897 1.494 1_455 S
C901 H907 0.959 . S
C901 H908 0.961 . S
C901 H909 0.960 1_554 S
C902 C900 1.381 . S
C902 C903 1.394 . S
C902 H910 0.930 . S
C903 C902 1.394 . S
C903 C904 1.383 . S
C903 H911 0.929 . S
C904 C903 1.383 . S
C904 C905 1.377 . S
C905 H889 0.930 . S
C905 C904 1.377 . S
C905 C906 1.379 . S
C906 H890 0.931 . S
C906 C900 1.383 . S
C906 C905 1.379 . S
H907 C901 0.959 . S
H908 C901 0.961 . S
H909 C901 0.960 1_556 S
H910 C902 0.930 . S
H911 C903 0.929 . S
H912 C920 0.929 . S
H913 C922 0.930 . S
H914 C924 0.930 . S
H915 C927 0.929 . S
H916 C930 0.930 . S
H917 C932 0.960 . S
H918 C932 0.960 . S
H919 C932 0.960 1_554 S
C920 H912 0.929 . S
C920 C921 1.377 . S
C920 C922 1.384 . S
C921 C920 1.377 . S
C921 C927 1.390 . S
C922 H913 0.930 . S
C922 C920 1.384 . S
C922 C923 1.372 . S
C923 C922 1.372 . S
C923 C924 1.400 . S
C923 C928 1.490 . S
C924 H914 0.930 . S
C924 C923 1.400 . S
C924 C927 1.386 . S
H925 C941 0.930 . S
H926 C942 0.931 . S
C927 H915 0.929 . S
C927 C921 1.390 . S
C927 C924 1.386 . S
C928 C923 1.490 . S
C928 C930 1.395 . S
C928 C931 1.403 . S
H929 C935 0.930 . S
C930 H916 0.930 . S
C930 C928 1.395 . S
C930 C933 1.403 . S
C931 C928 1.403 . S
C931 C932 1.524 1_554 S
C931 C935 1.400 1_554 S
C932 H917 0.960 . S
C932 H918 0.960 . S
C932 H919 0.960 1_556 S
C932 C931 1.524 1_556 S
C933 C930 1.403 . S
C933 C934 1.392 1_554 S
C933 C937 1.495 . S
C934 C933 1.392 1_556 S
C934 C935 1.385 . S
C934 C936 1.478 . S
C935 H929 0.930 . S
C935 C931 1.400 1_556 S
C935 C934 1.385 . S
C936 C934 1.478 . S
C936 C938 1.381 . S
C936 C942 1.383 . S
C937 C933 1.495 . S
C937 H943 0.959 . S
C937 H944 0.961 . S
C937 H945 0.960 . S
C938 C936 1.381 . S
C938 C939 1.394 . S
C938 H946 0.930 . S
C939 C938 1.394 . S
C939 C940 1.383 . S
C939 H947 0.929 . S
C940 C939 1.383 . S
C940 C941 1.377 . S
C941 H925 0.930 . S
C941 C940 1.377 . S
C941 C942 1.379 . S
C942 H926 0.931 . S
C942 C936 1.383 . S
C942 C941 1.379 . S
H943 C937 0.959 . S
H944 C937 0.961 . S
H945 C937 0.960 . S
H946 C938 0.930 . S
H947 C939 0.929 . S
H948 C956 0.929 . S
H949 C958 0.930 . S
H950 C960 0.930 . S
H951 C963 0.929 . S
H952 C966 0.930 1_655 S
H953 C968 0.960 . S
H954 C968 0.960 . S
H955 C968 0.960 1_655 S
C956 H948 0.929 . S
C956 C957 1.377 . S
C956 C958 1.384 . S
C957 C956 1.377 . S
C957 C963 1.390 . S
C958 H949 0.930 . S
C958 C956 1.384 . S
C958 C959 1.372 . S
C959 C958 1.372 . S
C959 C960 1.400 . S
C959 C964 1.470 1_655 S
C960 H950 0.930 . S
C960 C959 1.400 . S
C960 C963 1.386 . S
H961 C977 0.930 . S
H962 C978 0.931 . S
C963 H951 0.929 . S
C963 C957 1.390 . S
C963 C960 1.386 . S
C964 C959 1.470 1_455 S
C964 C966 1.412 . S
C964 C967 1.406 . S
H965 C971 0.930 . S
C966 H952 0.930 1_455 S
C966 C964 1.412 . S
C966 C969 1.403 . S
C967 C964 1.406 . S
C967 C968 1.524 . S
C967 C971 1.400 . S
C968 H953 0.960 . S
C968 H954 0.960 . S
C968 H955 0.960 1_455 S
C968 C967 1.524 . S
C969 C966 1.403 . S
C969 C970 1.392 . S
C969 C973 1.495 . S
C970 C969 1.392 . S
C970 C971 1.385 . S
C970 C972 1.478 . S
C971 H965 0.930 . S
C971 C967 1.400 . S
C971 C970 1.385 . S
C972 C970 1.478 . S
C972 C974 1.381 . S
C972 C978 1.383 . S
C973 C969 1.495 . S
C973 H979 0.959 . S
C973 H980 0.961 . S
C973 H981 0.960 . S
C974 C972 1.381 . S
C974 C975 1.394 . S
C974 H982 0.930 . S
C975 C974 1.394 . S
C975 C976 1.383 . S
C975 H983 0.929 . S
C976 C975 1.383 . S
C976 C977 1.377 . S
C977 H961 0.930 . S
C977 C976 1.377 . S
C977 C978 1.379 . S
C978 H962 0.931 . S
C978 C972 1.383 . S
C978 C977 1.379 . S
H979 C973 0.959 . S
H980 C973 0.961 . S
H981 C973 0.960 . S
H982 C974 0.930 . S
H983 C975 0.929 . S
H984 C992 0.929 . S
H985 C994 0.930 . S
H986 C996 0.930 . S
H987 C999 0.929 . S
H988 C1002 0.930 . S
H989 C1004 0.960 . S
H990 C1004 0.960 . S
H991 C1004 0.960 . S
C992 H984 0.929 . S
C992 C993 1.377 . S
C992 C994 1.384 . S
C993 C992 1.377 . S
C993 C999 1.390 . S
C994 H985 0.930 . S
C994 C992 1.384 . S
C994 C995 1.372 . S
C995 C994 1.372 . S
C995 C996 1.400 . S
C995 C1000 1.490 . S
C996 H986 0.930 . S
C996 C995 1.400 . S
C996 C999 1.386 . S
H997 C1013 0.930 . S
H998 C1014 0.931 . S
C999 H987 0.929 . S
C999 C993 1.390 . S
C999 C996 1.386 . S
C1000 C995 1.490 . S
C1000 C1002 1.395 . S
C1000 C1003 1.403 . S
H1001 C1007 0.930 . S
C1002 H988 0.930 . S
C1002 C1000 1.395 . S
C1002 C1005 1.403 . S
C1003 C1000 1.403 . S
C1003 C1004 1.524 . S
C1003 C1007 1.400 . S
C1004 H989 0.960 . S
C1004 H990 0.960 . S
C1004 H991 0.960 . S
C1004 C1003 1.524 . S
C1005 C1002 1.403 . S
C1005 C1006 1.392 . S
C1005 C1009 1.495 . S
C1006 C1005 1.392 . S
C1006 C1007 1.385 . S
C1006 C1008 1.478 . S
C1007 H1001 0.930 . S
C1007 C1003 1.400 . S
C1007 C1006 1.385 . S
C1008 C1006 1.478 . S
C1008 C1010 1.381 . S
C1008 C1014 1.383 . S
C1009 C1005 1.495 . S
C1009 H1015 0.959 . S
C1009 H1016 0.961 . S
C1009 H1017 0.960 . S
C1010 C1008 1.381 . S
C1010 C1011 1.394 . S
C1010 H1018 0.930 . S
C1011 C1010 1.394 . S
C1011 C1012 1.383 . S
C1011 H1019 0.929 . S
C1012 C1011 1.383 . S
C1012 C1013 1.377 . S
C1013 H997 0.930 . S
C1013 C1012 1.377 . S
C1013 C1014 1.379 . S
C1014 H998 0.931 . S
C1014 C1008 1.383 . S
C1014 C1013 1.379 . S
H1015 C1009 0.959 . S
H1016 C1009 0.961 . S
H1017 C1009 0.960 . S
H1018 C1010 0.930 . S
H1019 C1011 0.929 . S
H1020 C1028 0.929 . S
H1021 C1030 0.930 . S
H1022 C1032 0.930 . S
H1023 C1035 0.929 . S
H1024 C1038 0.930 1_545 S
H1025 C1040 0.960 . S
H1026 C1040 0.960 . S
H1027 C1040 0.960 1_545 S
C1028 H1020 0.929 . S
C1028 C1029 1.377 . S
C1028 C1030 1.384 . S
C1029 C1028 1.377 . S
C1029 C1035 1.390 . S
C1030 H1021 0.930 . S
C1030 C1028 1.384 . S
C1030 C1031 1.372 . S
C1031 C1030 1.372 . S
C1031 C1032 1.400 . S
C1031 C1036 1.468 1_545 S
C1032 H1022 0.930 . S
C1032 C1031 1.400 . S
C1032 C1035 1.386 . S
H1033 C1049 0.930 . S
H1034 C1050 0.931 . S
C1035 H1023 0.929 . S
C1035 C1029 1.390 . S
C1035 C1032 1.386 . S
C1036 C1031 1.468 1_565 S
C1036 C1038 1.384 . S
C1036 C1039 1.436 . S
H1037 C1043 0.930 . S
C1038 H1024 0.930 1_565 S
C1038 C1036 1.384 . S
C1038 C1041 1.403 . S
C1039 C1036 1.436 . S
C1039 C1040 1.524 . S
C1039 C1043 1.400 . S
C1040 H1025 0.960 . S
C1040 H1026 0.960 . S
C1040 H1027 0.960 1_565 S
C1040 C1039 1.524 . S
C1041 C1038 1.403 . S
C1041 C1042 1.392 . S
C1041 C1045 1.495 . S
C1042 C1041 1.392 . S
C1042 C1043 1.385 . S
C1042 C1044 1.478 . S
C1043 H1037 0.930 . S
C1043 C1039 1.400 . S
C1043 C1042 1.385 . S
C1044 C1042 1.478 . S
C1044 C1046 1.381 . S
C1044 C1050 1.383 . S
C1045 C1041 1.495 . S
C1045 H1051 0.959 . S
C1045 H1052 0.961 . S
C1045 H1053 0.960 . S
C1046 C1044 1.381 . S
C1046 C1047 1.394 . S
C1046 H1054 0.930 . S
C1047 C1046 1.394 . S
C1047 C1048 1.383 . S
C1047 H1055 0.929 . S
C1048 C1047 1.383 . S
C1048 C1049 1.377 . S
C1049 H1033 0.930 . S
C1049 C1048 1.377 . S
C1049 C1050 1.379 . S
C1050 H1034 0.931 . S
C1050 C1044 1.383 . S
C1050 C1049 1.379 . S
H1051 C1045 0.959 . S
H1052 C1045 0.961 . S
H1053 C1045 0.960 . S
H1054 C1046 0.930 . S
H1055 C1047 0.929 . S
H1056 C1064 0.929 . S
H1057 C1066 0.930 . S
H1058 C1068 0.930 . S
H1059 C1071 0.929 . S
H1060 C1074 0.930 . S
H1061 C1076 0.960 . S
H1062 C1076 0.960 . S
H1063 C1076 0.960 . S
C1064 H1056 0.929 . S
C1064 C1065 1.377 . S
C1064 C1066 1.384 . S
C1065 C1064 1.377 . S
C1065 C1071 1.390 . S
C1066 H1057 0.930 . S
C1066 C1064 1.384 . S
C1066 C1067 1.372 . S
C1067 C1066 1.372 . S
C1067 C1068 1.400 . S
C1067 C1072 1.481 1_545 S
C1068 H1058 0.930 . S
C1068 C1067 1.400 . S
C1068 C1071 1.386 . S
H1069 C1085 0.930 . S
H1070 C1086 0.931 . S
C1071 H1059 0.929 . S
C1071 C1065 1.390 . S
C1071 C1068 1.386 . S
C1072 C1067 1.481 1_565 S
C1072 C1074 1.407 . S
C1072 C1075 1.399 1_564 S
H1073 C1079 0.930 . S
C1074 H1060 0.930 . S
C1074 C1072 1.407 . S
C1074 C1077 1.403 . S
C1075 C1072 1.399 1_546 S
C1075 C1076 1.524 . S
C1075 C1079 1.400 1_545 S
C1076 H1061 0.960 . S
C1076 H1062 0.960 . S
C1076 H1063 0.960 . S
C1076 C1075 1.524 . S
C1077 C1074 1.403 . S
C1077 C1078 1.392 1_554 S
C1077 C1081 1.495 . S
C1078 C1077 1.392 1_556 S
C1078 C1079 1.385 . S
C1078 C1080 1.478 . S
C1079 H1073 0.930 . S
C1079 C1075 1.400 1_565 S
C1079 C1078 1.385 . S
C1080 C1078 1.478 . S
C1080 C1082 1.381 . S
C1080 C1086 1.383 . S
C1081 C1077 1.495 . S
C1081 H1087 0.959 . S
C1081 H1088 0.961 . S
C1081 H1089 0.960 1_554 S
C1082 C1080 1.381 . S
C1082 C1083 1.394 . S
C1082 H1090 0.930 . S
C1083 C1082 1.394 . S
C1083 C1084 1.383 . S
C1083 H1091 0.929 . S
C1084 C1083 1.383 . S
C1084 C1085 1.377 . S
C1085 H1069 0.930 . S
C1085 C1084 1.377 . S
C1085 C1086 1.379 . S
C1086 H1070 0.931 . S
C1086 C1080 1.383 . S
C1086 C1085 1.379 . S
H1087 C1081 0.959 . S
H1088 C1081 0.961 . S
H1089 C1081 0.960 1_556 S
H1090 C1082 0.930 . S
H1091 C1083 0.929 . S
H1092 C1100 0.929 . S
H1093 C1102 0.930 . S
H1094 C1104 0.930 . S
H1095 C1107 0.929 . S
H1096 C1110 0.930 . S
H1097 C1112 0.960 . S
H1098 C1112 0.960 . S
H1099 C1112 0.960 . S
C1100 H1092 0.929 . S
C1100 C1101 1.377 . S
C1100 C1102 1.384 . S
C1101 C1100 1.377 . S
C1101 C1107 1.390 . S
C1102 H1093 0.930 . S
C1102 C1100 1.384 . S
C1102 C1103 1.372 . S
C1103 C1102 1.372 . S
C1103 C1104 1.400 . S
C1103 C1108 1.490 1_655 S
C1104 H1094 0.930 . S
C1104 C1103 1.400 . S
C1104 C1107 1.386 . S
H1105 C1121 0.930 . S
H1106 C1122 0.931 . S
C1107 H1095 0.929 . S
C1107 C1101 1.390 . S
C1107 C1104 1.386 . S
C1108 C1103 1.490 1_455 S
C1108 C1110 1.395 . S
C1108 C1111 1.403 1_454 S
H1109 C1115 0.930 . S
C1110 H1096 0.930 . S
C1110 C1108 1.395 . S
C1110 C1113 1.403 . S
C1111 C1108 1.403 1_656 S
C1111 C1112 1.524 . S
C1111 C1115 1.400 1_655 S
C1112 H1097 0.960 . S
C1112 H1098 0.960 . S
C1112 H1099 0.960 . S
C1112 C1111 1.524 . S
C1113 C1110 1.403 . S
C1113 C1114 1.392 1_554 S
C1113 C1117 1.495 . S
C1114 C1113 1.392 1_556 S
C1114 C1115 1.385 . S
C1114 C1116 1.478 . S
C1115 H1109 0.930 . S
C1115 C1111 1.400 1_455 S
C1115 C1114 1.385 . S
C1116 C1114 1.478 . S
C1116 C1118 1.381 . S
C1116 C1122 1.383 . S
C1117 C1113 1.495 . S
C1117 H1123 0.959 . S
C1117 H1124 0.961 . S
C1117 H1125 0.960 . S
C1118 C1116 1.381 . S
C1118 C1119 1.394 . S
C1118 H1126 0.930 . S
C1119 C1118 1.394 . S
C1119 C1120 1.383 . S
C1119 H1127 0.929 . S
C1120 C1119 1.383 . S
C1120 C1121 1.377 . S
C1121 H1105 0.930 . S
C1121 C1120 1.377 . S
C1121 C1122 1.379 . S
C1122 H1106 0.931 . S
C1122 C1116 1.383 . S
C1122 C1121 1.379 . S
H1123 C1117 0.959 . S
H1124 C1117 0.961 . S
H1125 C1117 0.960 . S
H1126 C1118 0.930 . S
H1127 C1119 0.929 . S
H1128 C1136 0.929 . S
H1129 C1138 0.930 . S
H1130 C1140 0.930 . S
H1131 C1143 0.929 . S
H1132 C1146 0.930 . S
H1133 C1148 0.960 . S
H1134 C1148 0.962 1_556 S
H1135 C1148 0.960 . S
C1136 H1128 0.929 . S
C1136 C1137 1.377 . S
C1136 C1138 1.384 . S
C1137 C1136 1.377 . S
C1137 C1143 1.390 . S
C1138 H1129 0.930 . S
C1138 C1136 1.384 . S
C1138 C1139 1.372 . S
C1139 C1138 1.372 . S
C1139 C1140 1.400 . S
C1139 C1144 1.490 . S
C1140 H1130 0.930 . S
C1140 C1139 1.400 . S
C1140 C1143 1.386 . S
H1141 C1157 0.930 . S
H1142 C1158 0.931 . S
C1143 H1131 0.929 . S
C1143 C1137 1.390 . S
C1143 C1140 1.386 . S
C1144 C1139 1.490 . S
C1144 C1146 1.395 . S
C1144 C1147 1.403 . S
H1145 C1151 0.930 . S
C1146 H1132 0.930 . S
C1146 C1144 1.395 . S
C1146 C1149 1.403 . S
C1147 C1144 1.403 . S
C1147 C1148 1.524 1_556 S
C1147 C1151 1.400 1_556 S
C1148 H1133 0.960 . S
C1148 H1134 0.962 1_554 S
C1148 H1135 0.960 . S
C1148 C1147 1.524 1_554 S
C1149 C1146 1.403 . S
C1149 C1150 1.392 1_556 S
C1149 C1153 1.495 . S
C1150 C1149 1.392 1_554 S
C1150 C1151 1.385 . S
C1150 C1152 1.478 . S
C1151 H1145 0.930 . S
C1151 C1147 1.400 1_554 S
C1151 C1150 1.385 . S
C1152 C1150 1.478 . S
C1152 C1154 1.381 . S
C1152 C1158 1.383 . S
C1153 C1149 1.495 . S
C1153 H1159 0.959 . S
C1153 H1160 0.961 . S
C1153 H1161 0.960 . S
C1154 C1152 1.381 . S
C1154 C1155 1.394 . S
C1154 H1162 0.930 . S
C1155 C1154 1.394 . S
C1155 C1156 1.383 . S
C1155 H1163 0.929 . S
C1156 C1155 1.383 . S
C1156 C1157 1.377 . S
C1157 H1141 0.930 . S
C1157 C1156 1.377 . S
C1157 C1158 1.379 . S
C1158 H1142 0.931 . S
C1158 C1152 1.383 . S
C1158 C1157 1.379 . S
H1159 C1153 0.959 . S
H1160 C1153 0.961 . S
H1161 C1153 0.960 . S
H1162 C1154 0.930 . S
H1163 C1155 0.929 . S
H1164 C1172 0.929 . S
H1165 C1174 0.930 . S
H1166 C1176 0.930 . S
H1167 C1179 0.929 . S
H1168 C1182 0.930 . S
H1169 C1184 0.960 . S
H1170 C1184 0.960 . S
H1171 C1184 0.960 . S
C1172 H1164 0.929 . S
C1172 C1173 1.377 . S
C1172 C1174 1.384 . S
C1173 C1172 1.377 . S
C1173 C1179 1.390 . S
C1174 H1165 0.930 . S
C1174 C1172 1.384 . S
C1174 C1175 1.372 . S
C1175 C1174 1.372 . S
C1175 C1176 1.400 . S
C1175 C1180 1.514 . S
C1176 H1166 0.930 . S
C1176 C1175 1.400 . S
C1176 C1179 1.386 . S
H1177 C1193 0.930 . S
H1178 C1194 0.931 . S
C1179 H1167 0.929 . S
C1179 C1173 1.390 . S
C1179 C1176 1.386 . S
C1180 C1175 1.514 . S
C1180 C1182 1.408 . S
C1180 C1183 1.366 1_455 S
H1181 C1187 0.930 . S
C1182 H1168 0.930 . S
C1182 C1180 1.408 . S
C1182 C1185 1.403 1_455 S
C1183 C1180 1.366 1_655 S
C1183 C1184 1.524 . S
C1183 C1187 1.400 . S
C1184 H1169 0.960 . S
C1184 H1170 0.960 . S
C1184 H1171 0.960 . S
C1184 C1183 1.524 . S
C1185 C1182 1.403 1_655 S
C1185 C1186 1.392 . S
C1185 C1189 1.495 1_655 S
C1186 C1185 1.392 . S
C1186 C1187 1.385 . S
C1186 C1188 1.478 . S
C1187 H1181 0.930 . S
C1187 C1183 1.400 . S
C1187 C1186 1.385 . S
C1188 C1186 1.478 . S
C1188 C1190 1.381 . S
C1188 C1194 1.383 . S
C1189 C1185 1.495 1_455 S
C1189 H1195 0.959 . S
C1189 H1196 0.961 1_455 S
C1189 H1197 0.960 1_455 S
C1190 C1188 1.381 . S
C1190 C1191 1.394 . S
C1190 H1198 0.930 . S
C1191 C1190 1.394 . S
C1191 C1192 1.383 . S
C1191 H1199 0.929 . S
C1192 C1191 1.383 . S
C1192 C1193 1.377 . S
C1193 H1177 0.930 . S
C1193 C1192 1.377 . S
C1193 C1194 1.379 . S
C1194 H1178 0.931 . S
C1194 C1188 1.383 . S
C1194 C1193 1.379 . S
H1195 C1189 0.959 . S
H1196 C1189 0.961 1_655 S
H1197 C1189 0.960 1_655 S
H1198 C1190 0.930 . S
H1199 C1191 0.929 . S
H1200 C1208 0.929 . S
H1201 C1210 0.930 . S
H1202 C1212 0.930 . S
H1203 C1215 0.929 . S
H1204 C1218 0.930 . S
H1205 C1220 0.960 . S
H1206 C1220 0.960 . S
H1207 C1220 0.960 . S
C1208 H1200 0.929 . S
C1208 C1209 1.377 . S
C1208 C1210 1.384 . S
C1209 C1208 1.377 . S
C1209 C1215 1.390 . S
C1210 H1201 0.930 . S
C1210 C1208 1.384 . S
C1210 C1211 1.372 . S
C1211 C1210 1.372 . S
C1211 C1212 1.400 . S
C1211 C1216 1.490 . S
C1212 H1202 0.930 . S
C1212 C1211 1.400 . S
C1212 C1215 1.386 . S
H1213 C1229 0.930 . S
H1214 C1230 0.931 . S
C1215 H1203 0.929 . S
C1215 C1209 1.390 . S
C1215 C1212 1.386 . S
C1216 C1211 1.490 . S
C1216 C1218 1.395 . S
C1216 C1219 1.403 . S
H1217 C1223 0.930 . S
C1218 H1204 0.930 . S
C1218 C1216 1.395 . S
C1218 C1221 1.403 . S
C1219 C1216 1.403 . S
C1219 C1220 1.524 . S
C1219 C1223 1.400 . S
C1220 H1205 0.960 . S
C1220 H1206 0.960 . S
C1220 H1207 0.960 . S
C1220 C1219 1.524 . S
C1221 C1218 1.403 . S
C1221 C1222 1.392 . S
C1221 C1225 1.495 . S
C1222 C1221 1.392 . S
C1222 C1223 1.385 . S
C1222 C1224 1.478 . S
C1223 H1217 0.930 . S
C1223 C1219 1.400 . S
C1223 C1222 1.385 . S
C1224 C1222 1.478 . S
C1224 C1226 1.381 . S
C1224 C1230 1.383 . S
C1225 C1221 1.495 . S
C1225 H1231 0.959 . S
C1225 H1232 0.961 . S
C1225 H1233 0.960 . S
C1226 C1224 1.381 . S
C1226 C1227 1.394 . S
C1226 H1234 0.930 . S
C1227 C1226 1.394 . S
C1227 C1228 1.383 . S
C1227 H1235 0.929 . S
C1228 C1227 1.383 . S
C1228 C1229 1.377 . S
C1229 H1213 0.930 . S
C1229 C1228 1.377 . S
C1229 C1230 1.379 . S
C1230 H1214 0.931 . S
C1230 C1224 1.383 . S
C1230 C1229 1.379 . S
H1231 C1225 0.959 . S
H1232 C1225 0.961 . S
H1233 C1225 0.960 . S
H1234 C1226 0.930 . S
H1235 C1227 0.929 . S
H1236 C1244 0.929 . S
H1237 C1246 0.930 . S
H1238 C1248 0.930 . S
H1239 C1251 0.929 . S
H1240 C1254 0.930 . S
H1241 C1256 0.960 . S
H1242 C1256 0.960 . S
H1243 C1256 0.960 . S
C1244 H1236 0.929 . S
C1244 C1245 1.377 . S
C1244 C1246 1.384 . S
C1245 C1244 1.377 . S
C1245 C1251 1.390 . S
C1246 H1237 0.930 . S
C1246 C1244 1.384 . S
C1246 C1247 1.372 . S
C1247 C1246 1.372 . S
C1247 C1248 1.400 . S
C1247 C1252 1.490 . S
C1248 H1238 0.930 . S
C1248 C1247 1.400 . S
C1248 C1251 1.386 . S
H1249 C1265 0.930 . S
H1250 C1266 0.931 1_545 S
C1251 H1239 0.929 . S
C1251 C1245 1.390 . S
C1251 C1248 1.386 . S
C1252 C1247 1.490 . S
C1252 C1254 1.395 . S
C1252 C1255 1.403 . S
H1253 C1259 0.930 . S
C1254 H1240 0.930 . S
C1254 C1252 1.395 . S
C1254 C1257 1.403 . S
C1255 C1252 1.403 . S
C1255 C1256 1.524 . S
C1255 C1259 1.400 . S
C1256 H1241 0.960 . S
C1256 H1242 0.960 . S
C1256 H1243 0.960 . S
C1256 C1255 1.524 . S
C1257 C1254 1.403 . S
C1257 C1258 1.392 1_545 S
C1257 C1261 1.495 1_545 S
C1258 C1257 1.392 1_565 S
C1258 C1259 1.385 1_565 S
C1258 C1260 1.478 . S
C1259 H1253 0.930 . S
C1259 C1255 1.400 . S
C1259 C1258 1.385 1_545 S
C1260 C1258 1.478 . S
C1260 C1262 1.381 . S
C1260 C1266 1.383 . S
C1261 C1257 1.495 1_565 S
C1261 H1267 0.959 . S
C1261 H1268 0.961 . S
C1261 H1269 0.960 . S
C1262 C1260 1.381 . S
C1262 C1263 1.394 . S
C1262 H1270 0.930 . S
C1263 C1262 1.394 . S
C1263 C1264 1.383 . S
C1263 H1271 0.929 . S
C1264 C1263 1.383 . S
C1264 C1265 1.377 . S
C1265 H1249 0.930 . S
C1265 C1264 1.377 . S
C1265 C1266 1.379 . S
C1266 H1250 0.931 1_565 S
C1266 C1260 1.383 . S
C1266 C1265 1.379 . S
H1267 C1261 0.959 . S
H1268 C1261 0.961 . S
H1269 C1261 0.960 . S
H1270 C1262 0.930 . S
H1271 C1263 0.929 . S
H1272 C1280 0.929 . S
H1273 C1282 0.930 . S
H1274 C1284 0.930 . S
H1275 C1287 0.929 . S
H1276 C1290 0.930 . S
H1277 C1292 0.960 . S
H1278 C1292 0.960 . S
H1279 C1292 0.960 . S
C1280 H1272 0.929 . S
C1280 C1281 1.377 . S
C1280 C1282 1.384 . S
C1281 C1280 1.377 . S
C1281 C1287 1.390 . S
C1282 H1273 0.930 . S
C1282 C1280 1.384 . S
C1282 C1283 1.372 . S
C1283 C1282 1.372 . S
C1283 C1284 1.400 . S
C1283 C1288 1.490 . S
C1284 H1274 0.930 . S
C1284 C1283 1.400 . S
C1284 C1287 1.386 . S
H1285 C1301 0.930 . S
H1286 C1302 0.931 . S
C1287 H1275 0.929 . S
C1287 C1281 1.390 . S
C1287 C1284 1.386 . S
C1288 C1283 1.490 . S
C1288 C1290 1.395 . S
C1288 C1291 1.403 . S
H1289 C1295 0.930 . S
C1290 H1276 0.930 . S
C1290 C1288 1.395 . S
C1290 C1293 1.403 . S
C1291 C1288 1.403 . S
C1291 C1292 1.524 . S
C1291 C1295 1.400 . S
C1292 H1277 0.960 . S
C1292 H1278 0.960 . S
C1292 H1279 0.960 . S
C1292 C1291 1.524 . S
C1293 C1290 1.403 . S
C1293 C1294 1.392 . S
C1293 C1297 1.495 . S
C1294 C1293 1.392 . S
C1294 C1295 1.385 . S
C1294 C1296 1.478 . S
C1295 H1289 0.930 . S
C1295 C1291 1.400 . S
C1295 C1294 1.385 . S
C1296 C1294 1.478 . S
C1296 C1298 1.381 . S
C1296 C1302 1.383 . S
C1297 C1293 1.495 . S
C1297 H1303 0.959 . S
C1297 H1304 0.961 . S
C1297 H1305 0.960 . S
C1298 C1296 1.381 . S
C1298 C1299 1.394 . S
C1298 H1306 0.930 . S
C1299 C1298 1.394 . S
C1299 C1300 1.383 . S
C1299 H1307 0.929 . S
C1300 C1299 1.383 . S
C1300 C1301 1.377 . S
C1301 H1285 0.930 . S
C1301 C1300 1.377 . S
C1301 C1302 1.379 . S
C1302 H1286 0.931 . S
C1302 C1296 1.383 . S
C1302 C1301 1.379 . S
H1303 C1297 0.959 . S
H1304 C1297 0.961 . S
H1305 C1297 0.960 . S
H1306 C1298 0.930 . S
H1307 C1299 0.929 . S
H1308 C1316 0.929 . S
H1309 C1318 0.930 . S
H1310 C1320 0.930 . S
H1311 C1323 0.929 . S
H1312 C1326 0.930 . S
H1313 C1328 0.960 1_565 S
H1314 C1328 0.960 . S
H1315 C1328 0.960 . S
C1316 H1308 0.929 . S
C1316 C1317 1.377 . S
C1316 C1318 1.384 . S
C1317 C1316 1.377 . S
C1317 C1323 1.390 . S
C1318 H1309 0.930 . S
C1318 C1316 1.384 . S
C1318 C1319 1.372 . S
C1319 C1318 1.372 . S
C1319 C1320 1.400 . S
C1319 C1324 1.490 . S
C1320 H1310 0.930 . S
C1320 C1319 1.400 . S
C1320 C1323 1.386 . S
H1321 C1337 0.930 . S
H1322 C1338 0.931 . S
C1323 H1311 0.929 . S
C1323 C1317 1.390 . S
C1323 C1320 1.386 . S
C1324 C1319 1.490 . S
C1324 C1326 1.395 . S
C1324 C1327 1.403 . S
H1325 C1331 0.930 . S
C1326 H1312 0.930 . S
C1326 C1324 1.395 . S
C1326 C1329 1.403 1_545 S
C1327 C1324 1.403 . S
C1327 C1328 1.524 . S
C1327 C1331 1.400 1_545 S
C1328 H1313 0.960 1_545 S
C1328 H1314 0.960 . S
C1328 H1315 0.960 . S
C1328 C1327 1.524 . S
C1329 C1326 1.403 1_565 S
C1329 C1330 1.392 . S
C1329 C1333 1.495 . S
C1330 C1329 1.392 . S
C1330 C1331 1.385 . S
C1330 C1332 1.478 . S
C1331 H1325 0.930 . S
C1331 C1327 1.400 1_565 S
C1331 C1330 1.385 . S
C1332 C1330 1.478 . S
C1332 C1334 1.381 . S
C1332 C1338 1.383 . S
C1333 C1329 1.495 . S
C1333 H1339 0.959 1_565 S
C1333 H1340 0.961 . S
C1333 H1341 0.960 . S
C1334 C1332 1.381 . S
C1334 C1335 1.394 . S
C1334 H1342 0.930 . S
C1335 C1334 1.394 . S
C1335 C1336 1.383 . S
C1335 H1343 0.929 . S
C1336 C1335 1.383 . S
C1336 C1337 1.377 . S
C1337 H1321 0.930 . S
C1337 C1336 1.377 . S
C1337 C1338 1.379 . S
C1338 H1322 0.931 . S
C1338 C1332 1.383 . S
C1338 C1337 1.379 . S
H1339 C1333 0.959 1_545 S
H1340 C1333 0.961 . S
H1341 C1333 0.960 . S
H1342 C1334 0.930 . S
H1343 C1335 0.929 . S
H1344 C1352 0.929 . S
H1345 C1354 0.930 . S
H1346 C1356 0.930 . S
H1347 C1359 0.929 . S
H1348 C1362 0.930 . S
H1349 C1364 0.960 . S
H1350 C1364 0.960 . S
H1351 C1364 0.960 . S
C1352 H1344 0.929 . S
C1352 C1353 1.377 . S
C1352 C1354 1.384 . S
C1353 C1352 1.377 . S
C1353 C1359 1.390 . S
C1354 H1345 0.930 . S
C1354 C1352 1.384 . S
C1354 C1355 1.372 . S
C1355 C1354 1.372 . S
C1355 C1356 1.400 . S
C1355 C1360 1.490 . S
C1356 H1346 0.930 . S
C1356 C1355 1.400 . S
C1356 C1359 1.386 . S
H1357 C1373 0.930 . S
H1358 C1374 0.931 . S
C1359 H1347 0.929 . S
C1359 C1353 1.390 . S
C1359 C1356 1.386 . S
C1360 C1355 1.490 . S
C1360 C1362 1.395 . S
C1360 C1363 1.403 . S
H1361 C1367 0.930 . S
C1362 H1348 0.930 . S
C1362 C1360 1.395 . S
C1362 C1365 1.403 1_655 S
C1363 C1360 1.403 . S
C1363 C1364 1.524 . S
C1363 C1367 1.400 1_655 S
C1364 H1349 0.960 . S
C1364 H1350 0.960 . S
C1364 H1351 0.960 . S
C1364 C1363 1.524 . S
C1365 C1362 1.403 1_455 S
C1365 C1366 1.392 . S
C1365 C1369 1.495 . S
C1366 C1365 1.392 . S
C1366 C1367 1.385 . S
C1366 C1368 1.478 . S
C1367 H1361 0.930 . S
C1367 C1363 1.400 1_455 S
C1367 C1366 1.385 . S
C1368 C1366 1.478 . S
C1368 C1370 1.381 . S
C1368 C1374 1.383 . S
C1369 C1365 1.495 . S
C1369 H1375 0.959 . S
C1369 H1376 0.961 . S
C1369 H1377 0.960 . S
C1370 C1368 1.381 . S
C1370 C1371 1.394 . S
C1370 H1378 0.930 . S
C1371 C1370 1.394 . S
C1371 C1372 1.383 . S
C1371 H1379 0.929 . S
C1372 C1371 1.383 . S
C1372 C1373 1.377 . S
C1373 H1357 0.930 . S
C1373 C1372 1.377 . S
C1373 C1374 1.379 . S
C1374 H1358 0.931 . S
C1374 C1368 1.383 . S
C1374 C1373 1.379 . S
H1375 C1369 0.959 . S
H1376 C1369 0.961 . S
H1377 C1369 0.960 . S
H1378 C1370 0.930 . S
H1379 C1371 0.929 . S
H1380 C1388 0.929 . S
H1381 C1390 0.930 . S
H1382 C1392 0.930 . S
H1383 C1395 0.929 . S
H1384 C1398 0.930 . S
H1385 C1400 0.960 . S
H1386 C1400 0.960 . S
H1387 C1400 0.960 . S
C1388 H1380 0.929 . S
C1388 C1389 1.377 . S
C1388 C1390 1.384 . S
C1389 C1388 1.377 . S
C1389 C1395 1.390 . S
C1390 H1381 0.930 . S
C1390 C1388 1.384 . S
C1390 C1391 1.372 . S
C1391 C1390 1.372 . S
C1391 C1392 1.400 . S
C1391 C1396 1.490 . S
C1392 H1382 0.930 . S
C1392 C1391 1.400 . S
C1392 C1395 1.386 . S
H1393 C1409 0.930 . S
H1394 C1410 0.931 . S
C1395 H1383 0.929 . S
C1395 C1389 1.390 . S
C1395 C1392 1.386 . S
C1396 C1391 1.490 . S
C1396 C1398 1.395 . S
C1396 C1399 1.403 . S
H1397 C1403 0.930 . S
C1398 H1384 0.930 . S
C1398 C1396 1.395 . S
C1398 C1401 1.403 . S
C1399 C1396 1.403 . S
C1399 C1400 1.524 . S
C1399 C1403 1.400 . S
C1400 H1385 0.960 . S
C1400 H1386 0.960 . S
C1400 H1387 0.960 . S
C1400 C1399 1.524 . S
C1401 C1398 1.403 . S
C1401 C1402 1.392 . S
C1401 C1405 1.495 . S
C1402 C1401 1.392 . S
C1402 C1403 1.385 . S
C1402 C1404 1.478 . S
C1403 H1397 0.930 . S
C1403 C1399 1.400 . S
C1403 C1402 1.385 . S
C1404 C1402 1.478 . S
C1404 C1406 1.381 . S
C1404 C1410 1.383 . S
C1405 C1401 1.495 . S
C1405 H1411 0.959 . S
C1405 H1412 0.961 . S
C1405 H1413 0.960 . S
C1406 C1404 1.381 . S
C1406 C1407 1.394 . S
C1406 H1414 0.930 . S
C1407 C1406 1.394 . S
C1407 C1408 1.383 . S
C1407 H1415 0.929 . S
C1408 C1407 1.383 . S
C1408 C1409 1.377 . S
C1409 H1393 0.930 . S
C1409 C1408 1.377 . S
C1409 C1410 1.379 . S
C1410 H1394 0.931 . S
C1410 C1404 1.383 . S
C1410 C1409 1.379 . S
H1411 C1405 0.959 . S
H1412 C1405 0.961 . S
H1413 C1405 0.960 . S
H1414 C1406 0.930 . S
H1415 C1407 0.929 . S
H1416 C1424 0.929 . S
H1417 C1426 0.930 . S
H1418 C1428 0.930 . S
H1419 C1431 0.929 . S
H1420 C1434 0.930 . S
H1421 C1436 0.960 . S
H1422 C1436 0.960 . S
H1423 C1436 0.960 . S
C1424 H1416 0.929 . S
C1424 C1425 1.377 . S
C1424 C1426 1.384 . S
C1425 C1424 1.377 . S
C1425 C1431 1.390 . S
C1426 H1417 0.930 . S
C1426 C1424 1.384 . S
C1426 C1427 1.372 . S
C1427 C1426 1.372 . S
C1427 C1428 1.400 . S
C1427 C1432 1.490 . S
C1428 H1418 0.930 . S
C1428 C1427 1.400 . S
C1428 C1431 1.386 . S
H1429 C1445 0.930 . S
H1430 C1446 0.931 . S
C1431 H1419 0.929 . S
C1431 C1425 1.390 . S
C1431 C1428 1.386 . S
C1432 C1427 1.490 . S
C1432 C1434 1.395 . S
C1432 C1435 1.403 . S
H1433 C1439 0.930 . S
C1434 H1420 0.930 . S
C1434 C1432 1.395 . S
C1434 C1437 1.403 1_565 S
C1435 C1432 1.403 . S
C1435 C1436 1.524 . S
C1435 C1439 1.400 1_565 S
C1436 H1421 0.960 . S
C1436 H1422 0.960 . S
C1436 H1423 0.960 . S
C1436 C1435 1.524 . S
C1437 C1434 1.403 1_545 S
C1437 C1438 1.392 . S
C1437 C1441 1.495 . S
C1438 C1437 1.392 . S
C1438 C1439 1.385 . S
C1438 C1440 1.478 . S
C1439 H1433 0.930 . S
C1439 C1435 1.400 1_545 S
C1439 C1438 1.385 . S
C1440 C1438 1.478 . S
C1440 C1442 1.381 . S
C1440 C1446 1.383 . S
C1441 C1437 1.495 . S
C1441 H1447 0.959 . S
C1441 H1448 0.961 . S
C1441 H1449 0.960 . S
C1442 C1440 1.381 . S
C1442 C1443 1.394 . S
C1442 H1450 0.930 . S
C1443 C1442 1.394 . S
C1443 C1444 1.383 . S
C1443 H1451 0.929 . S
C1444 C1443 1.383 . S
C1444 C1445 1.377 . S
C1445 H1429 0.930 . S
C1445 C1444 1.377 . S
C1445 C1446 1.379 . S
C1446 H1430 0.931 . S
C1446 C1440 1.383 . S
C1446 C1445 1.379 . S
H1447 C1441 0.959 . S
H1448 C1441 0.961 . S
H1449 C1441 0.960 . S
H1450 C1442 0.930 . S
H1451 C1443 0.929 . S
H1452 C1460 0.929 . S
H1453 C1462 0.930 . S
H1454 C1464 0.930 . S
H1455 C1467 0.929 . S
H1456 C1470 0.930 . S
H1457 C1472 0.960 1_655 S
H1458 C1472 0.960 . S
H1459 C1472 0.960 . S
C1460 H1452 0.929 . S
C1460 C1461 1.377 . S
C1460 C1462 1.384 . S
C1461 C1460 1.377 . S
C1461 C1467 1.390 . S
C1462 H1453 0.930 . S
C1462 C1460 1.384 . S
C1462 C1463 1.372 . S
C1463 C1462 1.372 . S
C1463 C1464 1.400 . S
C1463 C1468 1.490 . S
C1464 H1454 0.930 . S
C1464 C1463 1.400 . S
C1464 C1467 1.386 . S
H1465 C1481 0.930 . S
H1466 C1482 0.931 . S
C1467 H1455 0.929 . S
C1467 C1461 1.390 . S
C1467 C1464 1.386 . S
C1468 C1463 1.490 . S
C1468 C1470 1.395 . S
C1468 C1471 1.403 . S
H1469 C1475 0.930 . S
C1470 H1456 0.930 . S
C1470 C1468 1.395 . S
C1470 C1473 1.385 1_455 S
C1471 C1468 1.403 . S
C1471 C1472 1.524 . S
C1471 C1475 1.400 1_455 S
C1472 H1457 0.960 1_455 S
C1472 H1458 0.960 . S
C1472 H1459 0.960 . S
C1472 C1471 1.524 . S
C1473 C1470 1.385 1_655 S
C1473 C1474 1.417 . S
C1473 C1477 1.488 . S
C1474 C1473 1.417 . S
C1474 C1475 1.385 . S
C1474 C1476 1.478 . S
C1475 H1469 0.930 . S
C1475 C1471 1.400 1_655 S
C1475 C1474 1.385 . S
C1476 C1474 1.478 . S
C1476 C1478 1.381 . S
C1476 C1482 1.383 . S
C1477 C1473 1.488 . S
C1477 H1483 0.959 1_655 S
C1477 H1484 0.961 . S
C1477 H1485 0.960 . S
C1478 C1476 1.381 . S
C1478 C1479 1.394 . S
C1478 H1486 0.930 . S
C1479 C1478 1.394 . S
C1479 C1480 1.383 . S
C1479 H1487 0.929 . S
C1480 C1479 1.383 . S
C1480 C1481 1.377 . S
C1481 H1465 0.930 . S
C1481 C1480 1.377 . S
C1481 C1482 1.379 . S
C1482 H1466 0.931 . S
C1482 C1476 1.383 . S
C1482 C1481 1.379 . S
H1483 C1477 0.959 1_455 S
H1484 C1477 0.961 . S
H1485 C1477 0.960 . S
H1486 C1478 0.930 . S
H1487 C1479 0.929 . S
C417 C36 1.485 . S
C436 C9 1.485 . S
C453 C43 1.489 . S
C472 C70 1.479 . S
C489 C77 1.490 . S
C508 C2 1.484 . S
C525 C111 1.490 . S
C544 C172 1.482 . S
C561 C145 1.489 . S
C580 C104 1.481 . S
C597 C138 1.487 . S
C616 C179 1.487 . S
C633 C240 1.487 . S
C652 C213 1.489 . S
C669 C274 1.487 . S
C688 C247 1.483 . S
C705 C206 1.487 . S
C724 C281 1.489 . S
C741 C315 1.490 . S
C760 C376 1.475 . S
C777 C308 1.488 . S
C796 C349 1.483 . S
C813 C383 1.490 . S
C832 C342 1.476 . S
C849 C20 1.330 . S
C868 C243 1.331 . S
C885 C54 1.322 . S
C904 C277 1.289 . S
C921 C88 1.322 . S
C940 C209 1.286 . S
C957 C379 1.319 . S
C976 C122 1.336 . S
C993 C156 1.330 . S
C1012 C311 1.327 . S
C1029 C345 1.318 . S
C1048 C190 1.334 . S
C1065 C39 1.312 . S
C1084 C224 1.308 . S
C1101 C73 1.315 . S
C1120 C258 1.303 . S
C1137 C292 1.327 . S
C1156 C5 1.286 . S
C1173 C175 1.315 . S
C1192 C326 1.341 . S
C1209 C360 1.322 . S
C1228 C107 1.314 . S
C1245 C394 1.330 . S
C1264 C141 1.298 . S
C1281 C135 1.607 . S
C1300 C33 1.628 . S
C1317 C67 1.607 . S
C1336 C169 1.598 . S
C1353 C101 1.612 . S
C1372 C203 1.613 . S
C1389 C339 1.609 . S
C1408 C237 1.605 . S
C1425 C271 1.608 . S
C1444 C373 1.603 . S
C1461 C305 1.609 . S
C1480 C407 1.601 . S
