# Generated by pormake.
# Topology vby, (6)-cn, num edge types: 1
# Building blocks:
#     Node 0, Type 0, BuildingBlock: KUMBUR_clean_sbu_0, # of connection points: 6
#     Node 1, Type 0, BuildingBlock: KUMBUR_clean_sbu_0, # of connection points: 6
#     Node 2, Type 0, BuildingBlock: KUMBUR_clean_sbu_0, # of connection points: 6
#     Node 3, Type 0, BuildingBlock: KUMBUR_clean_sbu_0, # of connection points: 6
#     Node 4, Type 0, BuildingBlock: KUMBUR_clean_sbu_0, # of connection points: 6
#     Node 5, Type 0, BuildingBlock: KUMBUR_clean_sbu_0, # of connection points: 6
#     Node 6, Type 0, BuildingBlock: KUMBUR_clean_sbu_0, # of connection points: 6
#     Node 7, Type 0, BuildingBlock: KUMBUR_clean_sbu_0, # of connection points: 6
#     Edge 8, Type (0, 0), BuildingBlock: ZUJKAS_clean_linker_0, # of connection points: 2
#     Edge 9, Type (0, 0), BuildingBlock: ZUJKAS_clean_linker_0, # of connection points: 2
#     Edge 10, Type (0, 0), BuildingBlock: ZUJKAS_clean_linker_0, # of connection points: 2
#     Edge 11, Type (0, 0), BuildingBlock: ZUJKAS_clean_linker_0, # of connection points: 2
#     Edge 12, Type (0, 0), BuildingBlock: ZUJKAS_clean_linker_0, # of connection points: 2
#     Edge 13, Type (0, 0), BuildingBlock: ZUJKAS_clean_linker_0, # of connection points: 2
#     Edge 14, Type (0, 0), BuildingBlock: ZUJKAS_clean_linker_0, # of connection points: 2
#     Edge 15, Type (0, 0), BuildingBlock: ZUJKAS_clean_linker_0, # of connection points: 2
#     Edge 16, Type (0, 0), BuildingBlock: ZUJKAS_clean_linker_0, # of connection points: 2
#     Edge 17, Type (0, 0), BuildingBlock: ZUJKAS_clean_linker_0, # of connection points: 2
#     Edge 18, Type (0, 0), BuildingBlock: ZUJKAS_clean_linker_0, # of connection points: 2
#     Edge 19, Type (0, 0), BuildingBlock: ZUJKAS_clean_linker_0, # of connection points: 2
#     Edge 20, Type (0, 0), BuildingBlock: ZUJKAS_clean_linker_0, # of connection points: 2
#     Edge 21, Type (0, 0), BuildingBlock: ZUJKAS_clean_linker_0, # of connection points: 2
#     Edge 22, Type (0, 0), BuildingBlock: ZUJKAS_clean_linker_0, # of connection points: 2
#     Edge 23, Type (0, 0), BuildingBlock: ZUJKAS_clean_linker_0, # of connection points: 2
#     Edge 24, Type (0, 0), BuildingBlock: ZUJKAS_clean_linker_0, # of connection points: 2
#     Edge 25, Type (0, 0), BuildingBlock: ZUJKAS_clean_linker_0, # of connection points: 2
#     Edge 26, Type (0, 0), BuildingBlock: ZUJKAS_clean_linker_0, # of connection points: 2
#     Edge 27, Type (0, 0), BuildingBlock: ZUJKAS_clean_linker_0, # of connection points: 2
#     Edge 28, Type (0, 0), BuildingBlock: ZUJKAS_clean_linker_0, # of connection points: 2
#     Edge 29, Type (0, 0), BuildingBlock: ZUJKAS_clean_linker_0, # of connection points: 2
#     Edge 30, Type (0, 0), BuildingBlock: ZUJKAS_clean_linker_0, # of connection points: 2
#     Edge 31, Type (0, 0), BuildingBlock: ZUJKAS_clean_linker_0, # of connection points: 2
# Relax obj value: 0.109
# Max RMSD: 0.193
# Mean RMSD: 0.193
data_MOF--net-vby--node1-KUMBUR_clean_sbu_0--edge1-ZUJKAS_clean_linker_0
_symmetry_space_group_name_H-M    P1
_symmetry_Int_Tables_number       1
_symmetry_cell_setting            triclinic
loop_
_symmetry_equiv_pos_as_xyz
'x, y, z'
_cell_length_a     18.707875
_cell_length_b     115.05347
_cell_length_c     39.041768
_cell_angle_alpha  115.05763
_cell_angle_beta   90.09846
_cell_angle_gamma 89.888662
loop_
_atom_site_label
_atom_site_type_symbol
_atom_site_fract_x
_atom_site_fract_y
_atom_site_fract_z
_atom_type_partial_charge
Tb0 Tb 0.12425 0.40098 0.03631 0.0
C1 C 0.99089 0.35103 0.923 0.0
C2 C 0.88482 0.34745 0.95244 0.0
C3 C 0.89113 0.33915 0.88399 0.0
C4 C 0.95334 0.35286 0.95519 0.0
C5 C 0.96105 0.34391 0.88694 0.0
C6 C 0.85316 0.34087 0.91672 0.0
C7 C 0.07463 0.34535 0.85968 0.0
N8 N 0.05917 0.35536 0.92715 0.0
C9 C 0.10221 0.35217 0.89609 0.0
C10 C 1.00345 0.34134 0.85505 0.0
Tb11 Tb 0.09972 0.36652 0.98796 0.0
N12 N 0.98622 0.35913 0.98908 0.0
C13 C 0.95426 0.35979 0.02135 0.0
C14 C 0.85141 0.34839 0.98554 0.0
C15 C 0.88638 0.35457 0.02012 0.0
H16 H 0.15728 0.35523 0.8993 0.0
H17 H 0.86123 0.35528 0.04587 0.0
H18 H 0.80019 0.33678 0.91405 0.0
H19 H 0.10835 0.34317 0.83522 0.0
H20 H 0.98015 0.36448 0.0484 0.0
H21 H 0.36386 0.41209 0.97925 0.0
H22 H 0.79929 0.34418 0.98463 0.0
H23 H 0.0654 0.41147 0.12471 0.0
H24 H 0.24545 0.40249 0.9761 0.0
H25 H 0.11186 0.42416 0.18903 0.0
H26 H 0.86693 0.33375 0.85655 0.0
H27 H 0.42275 0.42395 0.04103 0.0
H28 H 0.41891 0.43202 0.11176 0.0
H29 H 0.98246 0.33593 0.82682 0.0
H30 H 0.3507 0.43515 0.16891 0.0
N31 N 0.23773 0.40829 0.03559 0.0
C32 C 0.27057 0.40747 0.00333 0.0
C33 C 0.37107 0.41956 0.03985 0.0
C34 C 0.33652 0.42071 0.07288 0.0
C35 C 0.33788 0.41293 0.00494 0.0
C36 C 0.26866 0.41503 0.06977 0.0
H37 H 0.23577 0.4324 0.19801 0.0
N38 N 0.16315 0.41201 0.09739 0.0
C39 C 0.14582 0.42214 0.16475 0.0
C40 C 0.2302 0.41691 0.10182 0.0
C41 C 0.1197 0.41494 0.12823 0.0
C42 C 0.21587 0.42674 0.1697 0.0
C43 C 0.25862 0.42434 0.13802 0.0
O44 O 0.05134 0.41638 0.05652 0.0
O45 O 0.04969 0.38519 0.01241 0.0
O46 O 0.0612 0.37496 0.9506 0.0
O47 O 0.12595 0.39405 0.97389 0.0
O48 O 1.01754 0.40047 0.0596 0.0
O49 O 0.12507 0.41435 0.01221 0.0
O50 O 0.17168 0.35093 0.96683 0.0
O51 O 0.1744 0.38232 0.01162 0.0
O52 O 0.16182 0.3925 0.07391 0.0
O53 O 0.09491 0.37368 0.05021 0.0
O54 O 0.20523 0.3672 0.96378 0.0
O55 O 0.1051 0.35391 0.01453 0.0
C56 C 0.99766 0.38941 0.0349 0.0
C57 C 0.09715 0.43562 0.05618 0.0
C58 C 0.11324 0.45697 0.05719 0.0
C59 C 0.09391 0.44387 0.03773 0.0
C60 C 0.13562 0.46159 0.09507 0.0
C61 C 0.11841 0.44071 0.09426 0.0
C62 C 0.138 0.45353 0.11336 0.0
C63 C 0.08846 0.38496 0.94677 0.0
C64 C 0.07814 0.4218 0.03604 0.0
C65 C 0.32767 0.42949 0.14135 0.0
C66 C 0.36649 0.4277 0.10882 0.0
C67 C 0.22571 0.37818 0.98863 0.0
C68 C 0.13455 0.33239 0.9741 0.0
C69 C 0.16667 0.32423 0.98849 0.0
C70 C 0.14926 0.31101 0.97306 0.0
C71 C 0.09991 0.30616 0.94308 0.0
C72 C 0.08626 0.32715 0.94393 0.0
C73 C 0.06891 0.31417 0.92866 0.0
C74 C 0.13206 0.38267 0.07771 0.0
C75 C 0.15115 0.3463 0.99045 0.0
H76 H 0.07685 0.44013 0.00848 0.0
H77 H 0.14967 0.47159 0.111 0.0
H78 H 0.11919 0.43488 0.10968 0.0
H79 H 0.15434 0.45727 0.1427 0.0
H80 H 0.20433 0.32816 0.0117 0.0
H81 H 0.08622 0.29607 0.93017 0.0
H82 H 0.06222 0.33303 0.93184 0.0
H83 H 1.03155 0.31029 0.90533 0.0
Tb84 Tb 0.99856 0.6546 0.02717 0.0
C85 C 0.84041 0.60688 0.92255 0.0
C86 C 0.72868 0.60799 0.9546 0.0
C87 C 0.73274 0.59795 0.88596 0.0
C88 C 0.80203 0.61093 0.95551 0.0
C89 C 0.80706 0.59983 0.88739 0.0
C90 C 0.69352 0.60201 0.91962 0.0
C91 C 0.92433 0.59473 0.85917 0.0
N92 N 0.9123 0.60827 0.92557 0.0
C93 C 0.95469 0.60155 0.89493 0.0
C94 C 0.85004 0.59411 0.85522 0.0
Tb95 Tb 0.95847 0.62028 0.98476 0.0
N96 N 0.83875 0.61632 0.98852 0.0
C97 C 0.80601 0.61799 0.02163 0.0
C98 C 0.69401 0.61048 0.9887 0.0
C99 C 0.73325 0.61526 0.02227 0.0
H100 H 1.0122 0.60192 0.8979 0.0
H101 H 0.7074 0.61694 0.04874 0.0
H102 H 0.63689 0.59991 0.91833 0.0
H103 H 0.95823 0.58988 0.83478 0.0
H104 H 0.835 0.62175 0.04797 0.0
H105 H 0.24914 0.66131 0.9686 0.0
H106 H 0.63775 0.60835 0.98927 0.0
H107 H 0.93939 0.6677 0.11576 0.0
H108 H 0.12419 0.65467 0.96627 0.0
H109 H 0.98932 0.67944 0.17973 0.0
H110 H 0.70583 0.59274 0.85919 0.0
H111 H 0.31276 0.67123 0.02978 0.0
H112 H 0.30842 0.67967 0.10062 0.0
H113 H 0.82659 0.58863 0.82764 0.0
H114 H 0.23768 0.68457 0.15827 0.0
N115 N 0.11569 0.66044 0.02582 0.0
C116 C 0.15035 0.65899 0.99339 0.0
C117 C 0.25748 0.66834 0.02904 0.0
C118 C 0.22089 0.67041 0.06232 0.0
C119 C 0.22169 0.66277 0.99449 0.0
C120 C 0.14909 0.6664 0.05972 0.0
H121 H 0.11821 0.6847 0.18808 0.0
N122 N 1.03941 0.66595 0.08789 0.0
C123 C 1.02381 0.67659 0.15528 0.0
C124 C 0.10956 0.66923 0.09199 0.0
C125 C 0.99565 0.66997 0.1189 0.0
C126 C 0.09663 0.6795 0.15989 0.0
C127 C 0.14028 0.67603 0.128 0.0
O128 O 0.93353 0.67116 0.04666 0.0
O129 O 0.91642 0.63975 0.00423 0.0
O130 O 0.95036 0.62657 0.93906 0.0
O131 O 1.00705 0.64667 0.96526 0.0
O132 O 0.8916 0.65581 0.05155 0.0
O133 O 1.00082 0.66643 -0.00187 0.0
O134 O 1.01932 0.60323 0.96709 0.0
O135 O 1.03844 0.6352 0.00476 0.0
O136 O 1.03263 0.64647 0.06591 0.0
O137 O 0.9554 0.62907 0.04747 0.0
O138 O 0.06997 0.6181 0.96393 0.0
O139 O 0.95225 0.60908 0.01574 0.0
C140 C 0.86602 0.64518 0.02721 0.0
C141 C 0.97948 0.68851 0.03587 0.0
C142 C 0.96697 0.71 0.03746 0.0
C143 C 0.94385 0.69711 0.0243 0.0
C144 C 1.02527 0.7141 0.06256 0.0
C145 C 1.03708 0.693 0.06104 0.0
C146 C 0.05979 0.70567 0.07425 0.0
C147 C 0.97993 0.63664 0.93638 0.0
C148 C 0.9572 0.6749 0.02159 0.0
C149 C 0.2128 0.67945 0.13087 0.0
C150 C 0.25306 0.67666 0.09805 0.0
C151 C 0.09218 0.62945 0.98525 0.0
C152 C 0.96423 0.58671 0.97862 0.0
C153 C 0.99894 0.57715 0.98642 0.0
C154 C 0.97121 0.5645 0.9718 0.0
C155 C 0.90826 0.56171 0.95005 0.0
C156 C 0.90148 0.58351 0.95698 0.0
C157 C 0.87375 0.57115 0.94282 0.0
C158 C 0.99884 0.63755 0.07256 0.0
C159 C 0.99285 0.59996 0.99252 0.0
H160 H 0.89922 0.69375 0.00484 0.0
H161 H 0.04362 0.72395 0.0737 0.0
H162 H 0.06458 0.68674 0.07064 0.0
H163 H 0.10432 0.70898 0.09375 0.0
H164 H 0.04743 0.57947 0.0032 0.0
H165 H 0.88491 0.55221 0.93902 0.0
H166 H 0.87351 0.59055 0.95099 0.0
H167 H 0.8251 0.56889 0.92622 0.0
Tb168 Tb 0.13409 0.62118 0.48606 0.0
C169 C 0.98391 0.6704 0.59392 0.0
C170 C 0.872 0.6717 0.56471 0.0
C171 C 0.88163 0.6809 0.63322 0.0
C172 C 0.94373 0.66758 0.56181 0.0
C173 C 0.954 0.67733 0.63004 0.0
C174 C 0.84067 0.6781 0.60057 0.0
C175 C 0.07088 0.67768 0.65683 0.0
N176 N 0.05386 0.66695 0.58953 0.0
C177 C 0.09822 0.67092 0.62036 0.0
C178 C 0.99827 0.68078 0.66175 0.0
Tb179 Tb 0.09348 0.65548 0.52865 0.0
N180 N 0.97632 0.66148 0.52776 0.0
C181 C 0.94087 0.65998 0.49544 0.0
C182 C 0.83462 0.66958 0.53156 0.0
C183 C 0.86957 0.66386 0.49682 0.0
H184 H 0.15434 0.66854 0.61702 0.0
H185 H 0.8415 0.66235 0.47102 0.0
H186 H 0.78541 0.6812 0.60336 0.0
H187 H 0.10586 0.68051 0.68113 0.0
H188 H 0.96632 0.65555 0.46818 0.0
H189 H 0.38315 0.61793 0.5524 0.0
H190 H 0.77937 0.67255 0.53251 0.0
H191 H 0.08347 0.60268 0.39877 0.0
H192 H 0.25576 0.62266 0.55044 0.0
H193 H 0.13947 0.5907 0.33617 0.0
H194 H 0.85739 0.68613 0.66072 0.0
H195 H 0.45466 0.60945 0.49364 0.0
H196 H 0.45791 0.60114 0.42279 0.0
H197 H 0.97734 0.68608 0.69002 0.0
H198 H 0.391 0.59404 0.36296 0.0
N199 N 0.25368 0.61726 0.49095 0.0
C200 C 0.28544 0.61894 0.52436 0.0
C201 C 0.39843 0.61153 0.49254 0.0
C202 C 0.36486 0.60905 0.45813 0.0
C203 C 0.35815 0.61626 0.5257 0.0
C204 C 0.29147 0.61194 0.45833 0.0
H205 H 0.27129 0.58976 0.33025 0.0
N206 N 0.18236 0.60934 0.42729 0.0
C207 C 0.17257 0.59566 0.36086 0.0
C208 C 0.25435 0.60803 0.42499 0.0
C209 C 0.14106 0.60244 0.39631 0.0
C210 C 0.24694 0.59523 0.35759 0.0
C211 C 0.28887 0.60103 0.39016 0.0
O212 O 0.07611 0.60383 0.46727 0.0
O213 O 0.05385 0.63608 0.50614 0.0
O214 O 0.05963 0.64743 0.56757 0.0
O215 O 0.1365 0.62993 0.54879 0.0
O216 O 1.0224 0.61896 0.46534 0.0
O217 O 0.13833 0.61023 0.51786 0.0
O218 O 0.16002 0.67179 0.54735 0.0
O219 O 0.17573 0.64062 0.50547 0.0
O220 O 0.14034 0.6275 0.44028 0.0
O221 O 0.08348 0.64759 0.46682 0.0
O222 O 0.20059 0.6566 0.55297 0.0
O223 O 0.09003 0.66739 0.49989 0.0
C224 C 1.00007 0.63031 0.48671 0.0
C225 C 0.13182 0.58781 0.48125 0.0
C226 C 0.13806 0.56681 0.48342 0.0
C227 C 0.10542 0.579 0.49472 0.0
C228 C 0.19609 0.56356 0.45821 0.0
C229 C 0.18973 0.58417 0.45615 0.0
C230 C 0.22151 0.57217 0.44469 0.0
C231 C 0.09308 0.6384 0.57395 0.0
C232 C 0.10067 0.60084 0.4937 0.0
C233 C 0.3632 0.59919 0.38947 0.0
C234 C 0.40124 0.6032 0.42352 0.0
C235 C 0.2262 0.646 0.52846 0.0
C236 C 0.11474 0.68935 0.53739 0.0
C237 C 0.15058 0.69775 0.5253 0.0
C238 C 0.12996 0.7108 0.5392 0.0
C239 C 0.07379 0.71524 0.56557 0.0
C240 C 0.05906 0.69413 0.56364 0.0
C241 C 1.03879 0.70697 0.57761 0.0
C242 C 0.1102 0.63757 0.43774 0.0
C243 C 0.1353 0.67565 0.52269 0.0
H244 H 0.0608 0.58168 0.51423 0.0
H245 H 0.22146 0.55424 0.44852 0.0
H246 H 0.21072 0.59056 0.44527 0.0
H247 H 0.26609 0.56954 0.42521 0.0
H248 H 0.19356 0.69412 0.50491 0.0
H249 H 0.05745 0.72521 0.57741 0.0
H250 H 1.0313 0.688 0.57354 0.0
H251 H 0.99585 0.71053 0.59801 0.0
Tb252 Tb 0.99451 0.36673 0.48851 0.0
C253 C 0.82057 0.41383 0.56065 0.0
C254 C 0.75711 0.41447 0.50732 0.0
C255 C 0.70648 0.42507 0.57009 0.0
C256 C 0.81724 0.41078 0.52244 0.0
C257 C 0.76452 0.42094 0.58482 0.0
C258 C 0.70243 0.42175 0.53137 0.0
C259 C 0.83068 0.42091 0.63753 0.0
N260 N 0.87964 0.41033 0.57441 0.0
C261 C 0.88633 0.41451 0.61297 0.0
C262 C 0.76929 0.42411 0.6234 0.0
Tb263 Tb 0.97216 0.40157 0.53138 0.0
N264 N 0.87214 0.40406 0.5 0.0
C265 C 0.86791 0.4004 0.46168 0.0
C266 C 0.75363 0.41084 0.46844 0.0
C267 C 0.80901 0.40367 0.44552 0.0
H268 H 0.93592 0.41381 0.62601 0.0
H269 H 0.80656 0.40066 0.41525 0.0
H270 H 0.6565 0.42479 0.52028 0.0
H271 H 0.83676 0.42395 0.66768 0.0
H272 H 0.9083 0.39477 0.44252 0.0
H273 H 0.23316 0.35736 0.5514 0.0
H274 H 0.70825 0.41343 0.45582 0.0
H275 H 0.93605 0.3516 0.40046 0.0
H276 H 0.11349 0.36589 0.55166 0.0
H277 H 0.98593 0.33831 0.3373 0.0
H278 H 0.6638 0.4307 0.58837 0.0
H279 H 0.29787 0.34599 0.49129 0.0
H280 H 0.29861 0.33743 0.4204 0.0
H281 H 0.72718 0.42946 0.64269 0.0
H282 H 0.23195 0.33269 0.36163 0.0
N283 N 0.10924 0.36002 0.49187 0.0
C284 C 0.14029 0.36112 0.52492 0.0
C285 C 0.24534 0.34994 0.49109 0.0
C286 C 0.21263 0.34837 0.45718 0.0
C287 C 0.20877 0.35626 0.52504 0.0
C288 C 0.14348 0.35346 0.45853 0.0
H289 H 0.11453 0.33278 0.3303 0.0
N290 N 1.03643 0.3543 0.42869 0.0
C291 C 1.02047 0.34181 0.36187 0.0
C292 C 0.106 0.35067 0.42561 0.0
C293 C 0.9924 0.34931 0.3977 0.0
C294 C 0.09317 0.33878 0.358 0.0
C295 C 0.13641 0.34284 0.39024 0.0
O296 O 0.9207 0.35137 0.46945 0.0
O297 O 0.92036 0.38297 0.5134 0.0
O298 O 0.97947 0.39601 0.57824 0.0
O299 O 0.99864 0.37381 0.55034 0.0
O300 O 0.88977 0.36758 0.46487 0.0
O301 O 0.99015 0.35442 0.516 0.0
O302 O 1.00934 0.41944 0.57114 0.0
O303 O 0.04409 0.3854 0.51106 0.0
O304 O 1.02464 0.3731 0.4448 0.0
O305 O 1.01439 0.39559 0.47341 0.0
O306 O 0.08277 0.40208 0.55157 0.0
O307 O 0.99516 0.41598 0.5129 0.0
C308 C 0.86938 0.37849 0.49015 0.0
C309 C 0.9586 0.33292 0.4773 0.0
C310 C 0.94112 0.31163 0.47628 0.0
C311 C 0.92282 0.32479 0.49051 0.0
C312 C 0.99447 0.30676 0.44844 0.0
C313 C 1.01144 0.32767 0.44954 0.0
C314 C 1.02913 0.31473 0.43519 0.0
C315 C 0.99096 0.38495 0.58013 0.0
C316 C 0.94258 0.34686 0.4931 0.0
C317 C 0.20731 0.33861 0.38854 0.0
C318 C 0.24523 0.3413 0.42201 0.0
C319 C 0.09966 0.39038 0.53021 0.0
C320 C 0.97274 0.43722 0.55906 0.0
C321 C 0.99028 0.44558 0.54224 0.0
C322 C 0.95507 0.45754 0.55363 0.0
C323 C 0.90204 0.46093 0.58168 0.0
C324 C 0.92135 0.4412 0.588 0.0
C325 C 0.88564 0.45283 0.59876 0.0
C326 C 1.02849 0.3845 0.44405 0.0
C327 C 1.00887 0.42456 0.54701 0.0
H328 H 0.88208 0.32872 0.51211 0.0
H329 H 1.0089 0.29669 0.4365 0.0
H330 H 1.03939 0.33353 0.43886 0.0
H331 H 0.07001 0.31085 0.41369 0.0
H332 H 1.03097 0.4428 0.52048 0.0
H333 H 0.87468 0.47007 0.59133 0.0
H334 H 0.90905 0.43546 0.60288 0.0
H335 H 0.84582 0.45568 0.62092 0.0
Tb336 Tb 0.61621 0.90297 0.02665 0.0
C337 C 0.46115 0.85466 0.93846 0.0
C338 C 0.35724 0.85666 0.97725 0.0
C339 C 0.34854 0.84504 0.90896 0.0
C340 C 0.42947 0.85942 0.97351 0.0
C341 C 0.42193 0.84698 0.90584 0.0
C342 C 0.31624 0.84985 0.94469 0.0
C343 C 0.53297 0.8417 0.87109 0.0
N344 N 0.53266 0.85626 0.93705 0.0
C345 C 0.56959 0.84916 0.90447 0.0
C346 C 0.45857 0.84082 0.87159 0.0
Tb347 Tb 0.58826 0.86907 0.99298 0.0
N348 N 0.47121 0.86583 0.00419 0.0
C349 C 0.44471 0.86907 0.0397 0.0
C350 C 0.32941 0.86033 0.01357 0.0
C351 C 0.37368 0.8664 0.04491 0.0
H352 H 0.62721 0.84978 0.904 0.0
H353 H 0.35309 0.86908 0.07314 0.0
H354 H 0.26033 0.84783 0.94693 0.0
H355 H 0.5622 0.83656 0.84509 0.0
H356 H 0.47788 0.87365 0.06426 0.0
H357 H 0.69241 0.9252 0.93415 0.0
H358 H 0.2746 0.85821 0.01773 0.0
H359 H 0.70644 0.90096 0.09816 0.0
H360 H 0.60903 0.91607 0.9649 0.0
H361 H 0.82671 0.90518 0.12462 0.0
H362 H 0.31717 0.83933 0.88417 0.0
H363 H 0.82094 0.92701 0.95038 0.0
H364 H 0.91832 0.92509 0.99186 0.0
H365 H 0.43041 0.83485 0.84585 0.0
H366 H 0.95407 0.9202 0.04498 0.0
N367 N 0.69026 0.91131 0.99529 0.0
C368 C 0.6654 0.91636 0.97131 0.0
C369 C 0.78473 0.92271 0.96333 0.0
C370 C 0.80872 0.91886 0.99085 0.0
C371 C 0.71235 0.92169 0.95408 0.0
C372 C 0.75934 0.91329 0.00684 0.0
H373 H 0.91997 0.91311 0.09513 0.0
N374 N 0.72936 0.90573 0.05216 0.0
C375 C 0.81438 0.90664 0.09963 0.0
C376 C 0.7793 0.9106 0.03669 0.0
C377 C 0.74572 0.90407 0.08399 0.0
C378 C 0.86677 0.91115 0.08301 0.0
C379 C 0.84951 0.91328 0.05133 0.0
O380 O 0.61081 0.91821 0.0809 0.0
O381 O 0.53755 0.88793 0.01715 0.0
O382 O 0.56812 0.87392 0.94516 0.0
O383 O 0.61915 0.89429 0.96445 0.0
O384 O 0.50994 0.90264 0.00272 0.0
O385 O 0.56829 0.92043 0.03306 0.0
O386 O 0.65453 0.85259 0.97469 0.0
O387 O 0.66717 0.88457 0.01307 0.0
O388 O 0.58186 0.89928 0.075 0.0
O389 O 0.60517 0.87751 0.05429 0.0
O390 O 0.69044 0.86833 0.96501 0.0
O391 O 0.58636 0.85735 0.02238 0.0
C392 C 0.48746 0.89219 0.00343 0.0
C393 C 0.6298 0.93834 0.07856 0.0
C394 C 0.6488 0.95915 0.07615 0.0
C395 C 0.60726 0.94796 0.06733 0.0
C396 C 0.71255 0.96056 0.09675 0.0
C397 C 0.69402 0.94011 0.09896 0.0
C398 C 0.73483 0.95112 0.1079 0.0
C399 C 0.5909 0.88365 0.93852 0.0
C400 C 0.58783 0.92634 0.06818 0.0
C401 C 0.89979 0.91822 0.03436 0.0
C402 C 0.8795 0.92096 0.00406 0.0
C403 C 0.71443 0.87938 0.98769 0.0
C404 C 0.6087 0.8353 0.98599 0.0
C405 C 0.64936 0.82648 0.99457 0.0
C406 C 0.62574 0.81366 0.98278 0.0
C407 C 0.56238 0.8098 0.96147 0.0
C408 C 0.54513 0.83111 0.96541 0.0
C409 C 0.52256 0.81846 0.95294 0.0
C410 C 0.59015 0.88893 0.08136 0.0
C411 C 0.63065 0.84892 -0.00028 0.0
H412 H 0.5583 0.94662 0.05123 0.0
H413 H 0.74507 0.96909 0.10479 0.0
H414 H 0.71319 0.93298 0.10804 0.0
H415 H 0.78405 0.95237 0.12368 0.0
H416 H 0.69791 0.82967 0.0111 0.0
H417 H 0.5435 0.80001 0.95123 0.0
H418 H 0.51225 0.83763 0.95925 0.0
H419 H 0.47355 0.81538 0.93683 0.0
Tb420 Tb 0.50485 0.1542 0.03657 0.0
C421 C 0.35949 0.10529 0.92472 0.0
C422 C 0.24638 0.10422 0.95307 0.0
C423 C 0.25813 0.09475 0.88464 0.0
C424 C 0.31825 0.10823 0.95647 0.0
C425 C 0.3308 0.09813 0.88841 0.0
C426 C 0.21591 0.09781 0.91696 0.0
C427 C 0.44973 0.09678 0.86293 0.0
N428 N 0.42973 0.10846 0.92973 0.0
C429 C 0.47567 0.10386 0.89959 0.0
C430 C 0.37674 0.09409 0.85723 0.0
Tb431 Tb 0.46778 0.11987 0.99082 0.0
N432 N 0.35019 0.11423 0.99072 0.0
C433 C 0.31441 0.1156 0.02275 0.0
C434 C 0.20824 0.10634 0.98598 0.0
C435 C 0.24281 0.11187 0.02093 0.0
H436 H 0.53209 0.10594 0.90367 0.0
H437 H 0.21427 0.11332 0.04652 0.0
H438 H 0.16053 0.09479 0.91375 0.0
H439 H 0.486 0.09345 0.83912 0.0
H440 H 0.3401 0.11992 0.05005 0.0
H441 H 0.7571 0.16187 0.98164 0.0
H442 H 0.15283 0.10346 0.98464 0.0
H443 H 0.44191 0.16671 0.12442 0.0
H444 H 0.63234 0.15488 0.97773 0.0
H445 H 0.48859 0.17854 0.18903 0.0
H446 H 0.23476 0.08938 0.85697 0.0
H447 H 0.81811 0.17177 0.04361 0.0
H448 H 0.81064 0.18004 0.11437 0.0
H449 H 0.35685 0.08856 0.82885 0.0
H450 H 0.7374 0.1846 0.17102 0.0
N451 N 0.62164 0.16044 0.037 0.0
C452 C 0.65745 0.15922 0.00511 0.0
C453 C 0.76298 0.16872 0.04213 0.0
C454 C 0.72506 0.17059 0.07488 0.0
C455 C 0.72865 0.16318 0.00714 0.0
C456 C 0.65354 0.16637 0.07129 0.0
H457 H 0.61674 0.18429 0.19917 0.0
N458 N 0.54298 0.16541 0.09787 0.0
C459 C 0.52418 0.17586 0.16506 0.0
C460 C 0.61272 0.16894 0.10297 0.0
C461 C 0.49787 0.16917 0.1283 0.0
C462 C 0.59659 0.17905 0.17068 0.0
C463 C 0.64166 0.17578 0.13939 0.0
O464 O 0.43739 0.17043 0.05505 0.0
O465 O 0.42455 0.13918 0.01345 0.0
O466 O 0.44298 0.12796 0.9504 0.0
O467 O 0.51438 0.1463 0.97463 0.0
O468 O 0.39693 0.1551 0.06011 0.0
O469 O 0.5083 0.16625 0.0082 0.0
O470 O 0.53157 0.10319 0.97274 0.0
O471 O 0.54713 0.1349 0.01268 0.0
O472 O 0.53744 0.14569 0.07462 0.0
O473 O 0.46255 0.12787 0.05325 0.0
O474 O 0.57803 0.11841 0.96903 0.0
O475 O 0.46093 0.10811 0.02006 0.0
C476 C 0.37318 0.14428 0.03589 0.0
C477 C 0.48277 0.18816 0.04616 0.0
C478 C 0.46896 0.20969 0.04817 0.0
C479 C 0.44844 0.19663 0.03363 0.0
C480 C 0.52347 0.21408 0.0756 0.0
C481 C 0.53674 0.19291 0.0735 0.0
C482 C 0.55691 0.20575 0.08808 0.0
C483 C 0.4769 0.13751 0.94686 0.0
C484 C 0.46252 0.17443 0.03085 0.0
C485 C 0.71387 0.17945 0.14327 0.0
C486 C 0.75555 0.17685 0.11103 0.0
C487 C 0.60024 0.12956 0.99193 0.0
C488 C 0.47919 0.08596 0.98209 0.0
C489 C 0.4976 0.07797 0.0001 0.0
C490 C 0.47121 0.06526 0.98613 0.0
C491 C 0.42681 0.06071 0.95403 0.0
C492 C 0.43593 0.08097 0.9497 0.0
C493 C 0.40968 0.0685 0.93595 0.0
C494 C 0.50511 0.13623 0.07927 0.0
C495 C 0.50422 0.09945 -0.0029 0.0
H496 H 0.40672 0.19304 0.01243 0.0
H497 H 0.53966 0.22405 0.08794 0.0
H498 H 0.56321 0.18674 0.08381 0.0
H499 H 0.59853 0.20927 0.10931 0.0
H500 H 0.5315 0.08165 0.02497 0.0
H501 H 0.40645 0.05099 0.94238 0.0
H502 H 0.42267 0.08663 0.93471 0.0
H503 H 0.37623 0.06482 0.91095 0.0
Tb504 Tb 0.60119 0.12048 0.49401 0.0
C505 C 0.46525 0.17054 0.59939 0.0
C506 C 0.35596 0.17235 0.56887 0.0
C507 C 0.36341 0.1819 0.63749 0.0
C508 C 0.42656 0.16779 0.56684 0.0
C509 C 0.43505 0.17796 0.63512 0.0
C510 C 0.32388 0.1791 0.60438 0.0
C511 C 0.55097 0.17827 0.66288 0.0
N512 N 0.53478 0.16685 0.5957 0.0
C513 C 0.57861 0.17101 0.62674 0.0
C514 C 0.47863 0.18161 0.66716 0.0
Tb515 Tb 0.57521 0.15488 0.53535 0.0
N516 N 0.4601 0.16147 0.53319 0.0
C517 C 0.4272 0.16016 0.50043 0.0
C518 C 0.32085 0.17042 0.53525 0.0
C519 C 0.35704 0.16445 0.50092 0.0
H520 H 0.63449 0.16843 0.6238 0.0
H521 H 0.33094 0.16313 0.47476 0.0
H522 H 0.26939 0.18254 0.60653 0.0
H523 H 0.58547 0.18127 0.6874 0.0
H524 H 0.45397 0.1555 0.47358 0.0
H525 H 0.8515 0.11347 0.55241 0.0
H526 H 0.26662 0.17378 0.53557 0.0
H527 H 0.53199 0.1043 0.40671 0.0
H528 H 0.72853 0.12117 0.55537 0.0
H529 H 0.57583 0.08966 0.34411 0.0
H530 H 0.33886 0.18748 0.66469 0.0
H531 H 0.91007 0.10152 0.49051 0.0
H532 H 0.90024 0.09104 0.41988 0.0
H533 H 0.45749 0.18731 0.69515 0.0
H534 H 0.82481 0.08443 0.36314 0.0
N535 N 0.71692 0.11422 0.49551 0.0
C536 C 0.75282 0.11609 0.52803 0.0
C537 C 0.85582 0.10497 0.49158 0.0
C538 C 0.81712 0.10224 0.45838 0.0
C539 C 0.82296 0.11169 0.52653 0.0
C540 C 0.74644 0.10687 0.46128 0.0
H541 H 0.70347 0.08356 0.3348 0.0
N542 N 0.63414 0.10686 0.43357 0.0
C543 C 0.61245 0.09341 0.36779 0.0
C544 C 0.70369 0.10304 0.42932 0.0
C545 C 0.58773 0.10173 0.40364 0.0
C546 C 0.68458 0.09003 0.36262 0.0
C547 C 0.73095 0.09466 0.39366 0.0
O548 O 0.51377 0.11124 0.50615 0.0
O549 O 0.52533 0.13618 0.51358 0.0
O550 O 0.53941 0.14729 0.57521 0.0
O551 O 0.61231 0.12932 0.55597 0.0
O552 O 0.49789 0.1201 0.46666 0.0
O553 O 0.61839 0.10339 0.5009 0.0
O554 O 0.64355 0.17097 0.55463 0.0
O555 O 0.65178 0.13919 0.51394 0.0
O556 O 0.62427 0.12629 0.44867 0.0
O557 O 0.57236 0.14678 0.47303 0.0
O558 O 0.68181 0.15524 0.55964 0.0
O559 O 0.57696 0.16661 0.50595 0.0
C560 C 0.47564 0.13135 0.48951 0.0
C561 C 0.52295 0.0886 0.48008 0.0
C562 C 0.51013 0.06578 0.46577 0.0
C563 C 0.53621 0.07815 0.48918 0.0
C564 C 0.47064 0.06408 0.43329 0.0
C565 C 0.48254 0.0866 0.44772 0.0
C566 C 0.45694 0.07442 0.42447 0.0
C567 C 0.57006 0.13795 0.58124 0.0
C568 C 0.55112 0.10151 0.50438 0.0
C569 C 0.80274 0.09075 0.39036 0.0
C570 C 0.84573 0.09452 0.42267 0.0
C571 C 0.70367 0.14413 0.53622 0.0
C572 C 0.60162 0.18856 0.54364 0.0
C573 C 0.63677 0.19676 0.5305 0.0
C574 C 0.61597 0.20978 0.54372 0.0
C575 C 0.56043 0.21442 0.57038 0.0
C576 C 0.54687 0.19358 0.57036 0.0
C577 C 0.52637 0.20637 0.58357 0.0
C578 C 0.60062 0.13658 0.44495 0.0
C579 C 0.62151 0.17482 0.52948 0.0
H580 H 0.56714 0.07964 0.5142 0.0
H581 H 0.44893 0.05478 0.41504 0.0
H582 H 0.47017 0.09447 0.44049 0.0
H583 H 0.42581 0.073 0.39961 0.0
H584 H 0.67929 0.193 0.50987 0.0
H585 H 0.54401 0.22438 0.5816 0.0
H586 H 0.51997 0.18766 0.58127 0.0
H587 H 0.48403 0.21008 0.60429 0.0
Tb588 Tb 0.50363 0.86676 0.48152 0.0
C589 C 0.3685 0.91553 0.60204 0.0
C590 C 0.25703 0.91881 0.57591 0.0
C591 C 0.27045 0.92665 0.64398 0.0
C592 C 0.32715 0.91385 0.57108 0.0
C593 C 0.34139 0.92221 0.63895 0.0
C594 C 0.2283 0.92495 0.61249 0.0
C595 C 0.45854 0.92077 0.66298 0.0
N596 N 0.43698 0.91126 0.59593 0.0
C597 C 0.48305 0.91424 0.62582 0.0
C598 C 0.38714 0.92463 0.6696 0.0
Tb599 Tb 0.47263 0.901 0.53399 0.0
N600 N 0.35712 0.90797 0.5363 0.0
C601 C 0.32124 0.90758 0.50525 0.0
C602 C 0.2189 0.91785 0.54398 0.0
C603 C 0.25164 0.91238 0.50857 0.0
H604 H 0.53831 0.91129 0.62112 0.0
H605 H 0.22342 0.91185 0.48374 0.0
H606 H 0.1743 0.92872 0.61677 0.0
H607 H 0.49475 0.92282 0.68648 0.0
H608 H 0.3455 0.90336 0.47761 0.0
H609 H 0.7524 0.85535 0.531 0.0
H610 H 0.16498 0.92157 0.54649 0.0
H611 H 0.43846 0.85647 0.39425 0.0
H612 H 0.63025 0.8637 0.53723 0.0
H613 H 0.48298 0.84561 0.32895 0.0
H614 H 0.24836 0.93171 0.6721 0.0
H615 H 0.81193 0.84626 0.46851 0.0
H616 H 0.80369 0.83977 0.39847 0.0
H617 H 0.36839 0.92974 0.69841 0.0
H618 H 0.7301 0.83711 0.34326 0.0
N619 N 0.61899 0.85957 0.47886 0.0
C620 C 0.6546 0.85972 0.50968 0.0
C621 C 0.75783 0.84991 0.47105 0.0
C622 C 0.72011 0.84921 0.4393 0.0
C623 C 0.72444 0.85501 0.50631 0.0
C624 C 0.64973 0.85406 0.4442 0.0
H625 H 0.60988 0.83906 0.31699 0.0
N626 N 0.53962 0.85647 0.41953 0.0
C627 C 0.51899 0.84752 0.35244 0.0
C628 C 0.6086 0.8525 0.41333 0.0
C629 C 0.4939 0.85365 0.38961 0.0
C630 C 0.59071 0.84388 0.3458 0.0
C631 C 0.63625 0.84615 0.37643 0.0
O632 O 0.43468 0.85077 0.46025 0.0
O633 O 0.42601 0.88206 0.50743 0.0
O634 O 0.44302 0.89158 0.57036 0.0
O635 O 0.51374 0.87322 0.54326 0.0
O636 O 0.3959 0.86701 0.45905 0.0
O637 O 0.50379 0.85393 0.5073 0.0
O638 O 0.54472 0.91649 0.5536 0.0
O639 O 0.54983 0.8857 0.50812 0.0
O640 O 0.53641 0.87629 0.44607 0.0
O641 O 0.46596 0.89471 0.47204 0.0
O642 O 0.58129 0.90093 0.5558 0.0
O643 O 0.46622 0.9148 0.51156 0.0
C644 C 0.37408 0.87771 0.4848 0.0
C645 C 0.47701 0.83237 0.46669 0.0
C646 C 0.46403 0.81076 0.46398 0.0
C647 C 0.4444 0.82388 0.47954 0.0
C648 C 0.51613 0.80634 0.43532 0.0
C649 C 0.52832 0.8276 0.43793 0.0
C650 C 0.54779 0.8147 0.42244 0.0
C651 C 0.47655 0.88166 0.57201 0.0
C652 C 0.458 0.84616 0.48346 0.0
C653 C 0.70756 0.84191 0.37136 0.0
C654 C 0.74945 0.84342 0.40279 0.0
C655 C 0.60249 0.89014 0.5302 0.0
C656 C 0.49874 0.93588 0.55486 0.0
C657 C 0.51105 0.94447 0.53824 0.0
C658 C 0.49926 0.95778 0.55921 0.0
C659 C 0.47323 0.96227 0.59636 0.0
C660 C 0.47307 0.94072 0.59212 0.0
C661 C 0.45995 0.95378 0.61254 0.0
C662 C 0.50511 0.88633 0.44408 0.0
C663 C 0.51549 0.92203 0.53403 0.0
H664 H 0.4047 0.82749 0.5018 0.0
H665 H 0.53163 0.79632 0.42233 0.0
H666 H 0.55323 0.8338 0.42725 0.0
H667 H 0.58744 0.81115 0.40019 0.0
H668 H 0.5315 0.94089 0.50963 0.0
H669 H 0.4629 0.9724 0.61291 0.0
H670 H 0.46414 0.9345 0.60588 0.0
H671 H 0.44012 0.95737 0.64123 0.0
H672 H 0.30087 0.38571 0.05566 0.0
H673 H 0.43096 0.3875 0.06406 0.0
H674 H 0.45616 0.37894 0.94591 0.0
H675 H 0.32672 0.37641 0.93728 0.0
H676 H 0.54743 0.36585 0.96104 0.0
H677 H 0.57068 0.41429 0.07791 0.0
H678 H 0.51997 0.4038 0.09181 0.0
H679 H 0.48666 0.40801 0.05531 0.0
C680 C 0.33419 0.38447 0.03172 0.0
C681 C 0.30332 0.38118 0.99593 0.0
C682 C 0.40897 0.38555 0.03652 0.0
C683 C 0.45471 0.38362 0.00582 0.0
C684 C 0.42312 0.38052 0.97024 0.0
H685 H 0.92291 0.38188 0.96779 0.0
H686 H 0.79289 0.38004 0.95922 0.0
C687 C 0.34882 0.37914 0.9653 0.0
C688 C 0.53519 0.38394 0.00965 0.0
H689 H 0.67624 0.40156 0.06203 0.0
C690 C 0.57535 0.37375 0.98307 0.0
C691 C 0.57295 0.39411 0.03843 0.0
C692 C 0.53539 0.40572 0.06727 0.0
C693 C 0.65069 0.37332 0.98458 0.0
C694 C 0.68846 0.38347 0.01342 0.0
C695 C 0.6483 0.39367 0.03999 0.0
C696 C 0.76893 0.38376 0.01731 0.0
C697 C 0.68825 0.36176 0.95557 0.0
C698 C 0.80041 0.38676 0.05286 0.0
C699 C 0.87471 0.38812 0.05789 0.0
C700 C 0.92032 0.3862 0.02738 0.0
C701 C 0.88955 0.383 0.99162 0.0
C702 C 0.81479 0.38191 0.98672 0.0
H703 H 0.65299 0.35319 0.94473 0.0
H704 H 0.70377 0.36376 0.93118 0.0
H705 H 0.73692 0.35944 0.96747 0.0
H706 H 0.76726 0.38827 0.07711 0.0
H707 H 0.89671 0.39081 0.08591 0.0
H708 H 0.19171 0.62569 0.93119 0.0
H709 H 0.32161 0.62874 0.93832 0.0
H710 H 0.29996 0.64259 0.05912 0.0
H711 H 0.17 0.63932 0.05182 0.0
H712 H 0.40541 0.64999 0.97544 0.0
H713 H 0.45144 0.61518 0.03705 0.0
H714 H 0.36746 0.6162 0.01569 0.0
H715 H 0.38857 0.62759 0.06302 0.0
C716 C 0.21465 0.62952 0.95932 0.0
C717 C 0.17001 0.63268 0.99101 0.0
C718 C 0.28913 0.63124 0.9634 0.0
C719 C 0.3217 0.63582 -0.00076 0.0
C720 C 0.27707 0.63888 0.03102 0.0
H721 H 0.76366 0.65031 0.08055 0.0
H722 H 0.63357 0.64849 0.07289 0.0
C723 C 0.20231 0.63722 0.02692 0.0
C724 C 0.40195 0.63729 0.00302 0.0
H725 H 0.5509 0.62765 0.03554 0.0
C726 C 0.43713 0.64505 0.98846 0.0
C727 C 0.44426 0.63088 0.01992 0.0
C728 C 0.41127 0.6219 0.03452 0.0
C729 C 0.51224 0.64675 0.99099 0.0
C730 C 0.55452 0.64035 0.00798 0.0
C731 C 0.51928 0.63259 0.02248 0.0
C732 C 0.63478 0.64182 0.0121 0.0
C733 C 0.54533 0.6557 0.97635 0.0
C734 C 0.68028 0.63877 0.98061 0.0
C735 C 0.75534 0.63974 0.98502 0.0
C736 C 0.78685 0.64358 0.02093 0.0
C737 C 0.74127 0.64703 0.05239 0.0
C738 C 0.66663 0.64599 0.04801 0.0
H739 H 0.50524 0.66243 0.97381 0.0
H740 H 0.58924 0.66138 0.99512 0.0
H741 H 0.56793 0.64998 0.94783 0.0
H742 H 0.65794 0.63536 0.95245 0.0
H743 H 0.78874 0.63738 0.96032 0.0
H744 H 0.92254 0.64042 0.55328 0.0
H745 H 0.79259 0.64374 0.56052 0.0
H746 H 0.7704 0.62954 0.43963 0.0
H747 H 0.90029 0.62644 0.43253 0.0
H748 H 0.68619 0.65085 0.47647 0.0
H749 H 0.64194 0.61626 0.53893 0.0
H750 H 0.70468 0.62871 0.56466 0.0
H751 H 0.72564 0.61724 0.51742 0.0
C752 C 0.89012 0.63825 0.52834 0.0
C753 C 0.92225 0.63358 0.4924 0.0
C754 C 0.81537 0.63994 0.53241 0.0
C755 C 0.77059 0.63679 0.50059 0.0
C756 C 0.803 0.63211 0.46473 0.0
H757 H 0.30314 0.63823 0.46155 0.0
H758 H 0.43393 0.63623 0.45367 0.0
C759 C 0.87748 0.63036 0.46068 0.0
C760 C 0.69033 0.63825 0.50434 0.0
H761 H 0.54202 0.62864 0.53708 0.0
C762 C 0.65475 0.64594 0.4896 0.0
C763 C 0.6484 0.63187 0.52139 0.0
C764 C 0.68185 0.62296 0.53621 0.0
C765 C 0.5796 0.64761 0.49209 0.0
C766 C 0.53769 0.64125 0.50921 0.0
C767 C 0.57335 0.63355 0.52389 0.0
C768 C 0.45741 0.64269 0.51331 0.0
C769 C 0.54608 0.65651 0.47727 0.0
C770 C 0.42573 0.64684 0.54922 0.0
C771 C 0.35109 0.64785 0.5536 0.0
C772 C 0.30536 0.6444 0.52215 0.0
C773 C 0.33668 0.64058 0.48624 0.0
C774 C 0.41174 0.63963 0.48183 0.0
H775 H 0.5859 0.66326 0.47472 0.0
H776 H 0.52362 0.65075 0.44874 0.0
H777 H 0.50203 0.66218 0.49595 0.0
H778 H 0.45891 0.64936 0.5741 0.0
H779 H 0.32885 0.65113 0.58176 0.0
H780 H 0.76921 0.37642 0.43809 0.0
H781 H 0.63968 0.37865 0.44582 0.0
H782 H 0.66314 0.38738 0.56422 0.0
H783 H 0.79364 0.386 0.55674 0.0
H784 H 0.54971 0.36526 0.46063 0.0
H785 H 0.52178 0.41389 0.57615 0.0
H786 H 0.60568 0.40764 0.55339 0.0
H787 H 0.57396 0.4036 0.59046 0.0
C788 C 0.74672 0.37919 0.46602 0.0
C789 C 0.79174 0.38143 0.49701 0.0
C790 C 0.67238 0.38035 0.47041 0.0
C791 C 0.64034 0.38337 0.50575 0.0
C792 C 0.68557 0.38548 0.53684 0.0
H793 H 0.19729 0.39149 0.58226 0.0
H794 H 0.32642 0.38823 0.57441 0.0
C795 C 0.76044 0.38464 0.53259 0.0
C796 C 0.55997 0.38348 0.50895 0.0
H797 H 0.41734 0.4011 0.55936 0.0
C798 C 0.52094 0.37316 0.48222 0.0
C799 C 0.52122 0.39366 0.53709 0.0
C800 C 0.55769 0.40539 0.56577 0.0
C801 C 0.44563 0.37266 0.48296 0.0
C802 C 0.40693 0.38285 0.51116 0.0
C803 C 0.44601 0.39316 0.53788 0.0
C804 C 0.32653 0.38316 0.51424 0.0
C805 C 0.40916 0.36101 0.4538 0.0
C806 C 0.28182 0.38117 0.48308 0.0
C807 C 0.20714 0.38259 0.48744 0.0
C808 C 0.17556 0.38626 0.52317 0.0
C809 C 0.22002 0.38835 0.55423 0.0
C810 C 0.29411 0.38658 0.54974 0.0
H811 H 0.44469 0.35246 0.44374 0.0
H812 H 0.35996 0.35875 0.46527 0.0
H813 H 0.39484 0.36286 0.42897 0.0
H814 H 0.3046 0.37901 0.4556 0.0
H815 H 0.17462 0.38142 0.46324 0.0
H816 H 0.80157 0.88471 0.94028 0.0
H817 H 0.93273 0.88636 0.94214 0.0
H818 H 0.93576 0.88009 0.04351 0.0
H819 H 0.80506 0.87808 0.04084 0.0
H820 H 1.02657 0.90221 0.99069 0.0
H821 H 0.07784 0.85369 0.98214 0.0
H822 H 0.99009 0.85876 0.97484 0.0
H823 H 1.02332 0.86312 0.02202 0.0
C824 C 0.83045 0.8838 0.96309 0.0
C825 C 0.79295 0.88172 0.99117 0.0
C826 C 0.90552 0.88471 0.96414 0.0
C827 C 0.94521 0.88318 0.99268 0.0
C828 C 0.90736 0.88104 0.02065 0.0
H829 H 0.39476 0.89639 0.06137 0.0
H830 H 0.26372 0.89411 0.05801 0.0
C831 C 0.83235 0.88013 0.01957 0.0
C832 C 1.02571 0.88387 0.9932 0.0
H833 H 0.17786 0.86779 -0.00272 0.0
C834 C 0.05936 0.89464 0.99208 0.0
C835 C 0.06965 0.87396 0.99446 0.0
C836 C 1.03845 0.86168 0.99303 0.0
C837 C 0.13457 0.89591 0.99322 0.0
C838 C 0.17801 0.88617 0.99544 0.0
C839 C 0.14478 0.87533 0.99604 0.0
C840 C 0.25797 0.88714 -0.00278 0.0
C841 C 0.16761 0.90773 0.99241 0.0
C842 C 0.29876 0.88396 0.96422 0.0
C843 C 0.3737 0.88515 0.96613 0.0
C844 C 0.40967 0.88925 0.00096 0.0
C845 C 0.36875 0.89266 0.034 0.0
C846 C 0.29383 0.89147 0.03212 0.0
H847 H 0.12674 0.91481 0.99284 0.0
H848 H 0.20378 0.91237 0.01706 0.0
H849 H 0.20044 0.90494 0.96646 0.0
H850 H 0.2725 0.88069 0.93699 0.0
H851 H 0.40366 0.88292 0.94037 0.0
H852 H 0.29702 0.13559 0.96859 0.0
H853 H 0.16649 0.13319 0.96033 0.0
H854 H 0.14105 0.14651 0.08076 0.0
H855 H 0.27099 0.14868 0.08885 0.0
H856 H 0.05658 0.12561 0.04219 0.0
H857 H 1.01809 0.1613 0.98296 0.0
H858 H 0.08016 0.14871 0.95709 0.0
H859 H 0.10091 0.15989 0.00468 0.0
C860 C 0.26353 0.13784 0.99318 0.0
C861 C 0.29461 0.14199 0.0293 0.0
C862 C 0.18863 0.13665 0.98855 0.0
C863 C 0.14295 0.13978 0.01997 0.0
C864 C 0.17438 0.14399 0.05597 0.0
H865 H 0.6769 0.13892 0.05898 0.0
H866 H 0.80714 0.14178 0.06683 0.0
C867 C 0.24888 0.14523 0.0606 0.0
C868 C 0.06275 0.13862 0.01577 0.0
H869 H 0.91615 0.14936 0.98458 0.0
C870 C 1.026 0.13085 0.02968 0.0
C871 C 1.02202 0.14543 -0.0005 0.0
C872 C 0.05704 0.1544 0.98549 0.0
C873 C 0.95077 0.12953 0.02725 0.0
C874 C 0.91 0.13636 0.01106 0.0
C875 C 0.94675 0.14412 -0.00291 0.0
C876 C 0.82975 0.13524 0.00712 0.0
C877 C 0.91585 0.12053 0.04118 0.0
C878 C 0.79779 0.13099 0.97122 0.0
C879 C 0.7233 0.12951 0.96684 0.0
C880 C 0.67815 0.13257 -0.00173 0.0
C881 C 0.70978 0.13686 0.03429 0.0
C882 C 0.78459 0.13828 0.03869 0.0
H883 H 0.95479 0.11359 0.04344 0.0
H884 H 0.89312 0.12619 0.0697 0.0
H885 H 0.87173 0.1151 0.02209 0.0
H886 H 0.83071 0.12853 0.94631 0.0
H887 H 0.70078 0.12592 0.93864 0.0
H888 H 0.37549 0.1262 0.43502 0.0
H889 H 0.24548 0.12819 0.44172 0.0
H890 H 0.26757 0.14381 0.56297 0.0
H891 H 0.39793 0.14122 0.55603 0.0
H892 H 0.16457 0.12676 0.54108 0.0
H893 H 0.11684 0.15817 0.46852 0.0
H894 H 0.16145 0.14363 0.43837 0.0
H895 H 0.20543 0.15489 0.48032 0.0
C896 C 0.35261 0.13025 0.46316 0.0
C897 C 0.39733 0.13399 0.49503 0.0
C898 C 0.27803 0.13148 0.46701 0.0
C899 C 0.24574 0.13652 0.50293 0.0
C900 C 0.29052 0.14006 0.53489 0.0
H901 H 0.80715 0.15008 0.5891 0.0
H902 H 0.93663 0.14784 0.58057 0.0
C903 C 0.36532 0.13872 0.53098 0.0
C904 C 0.16551 0.13734 0.50695 0.0
H905 H 1.01383 0.14823 0.48034 0.0
C906 C 0.13188 0.13156 0.52798 0.0
C907 C 0.12176 0.14348 0.48972 0.0
C908 C 0.15326 0.1505 0.46829 0.0
C909 C 0.05683 0.13156 0.5318 0.0
C910 C 1.01307 0.13768 0.51455 0.0
C911 C 0.04661 0.14343 0.49338 0.0
C912 C 0.93305 0.13872 0.51941 0.0
C913 C 1.02542 0.12472 0.55376 0.0
C914 C 0.88657 0.13476 0.48799 0.0
C915 C 0.81183 0.13617 0.4929 0.0
C916 C 0.78185 0.14148 0.52939 0.0
C917 C 0.82841 0.14564 0.56063 0.0
C918 C 0.90271 0.14428 0.55576 0.0
H919 H 0.06171 0.11707 0.55379 0.0
H920 H 1.01742 0.13171 0.58357 0.0
H921 H 0.97316 0.12035 0.54196 0.0
H922 H 0.90812 0.1306 0.45958 0.0
H923 H 0.77764 0.13325 0.46826 0.0
H924 H 0.67901 0.88162 0.46324 0.0
H925 H 0.80941 0.87892 0.45548 0.0
H926 H 0.8323 0.89078 0.57554 0.0
H927 H 0.70259 0.89297 0.58292 0.0
H928 H 0.91327 0.89622 0.48287 0.0
H929 H 0.96017 0.86026 0.5397 0.0
H930 H 0.87198 0.86396 0.5286 0.0
H931 H 0.91376 0.87411 0.57274 0.0
C932 C 0.7118 0.88324 0.48771 0.0
C933 C 0.68014 0.88703 0.5235 0.0
C934 C 0.7866 0.88184 0.48338 0.0
C935 C 0.83159 0.88432 0.51478 0.0
C936 C 0.79958 0.88831 0.55055 0.0
H937 H 0.29783 0.88618 0.55195 0.0
H938 H 0.16729 0.88872 0.55987 0.0
C939 C 0.72513 0.88965 0.55481 0.0
C940 C 0.91182 0.8836 0.51074 0.0
H941 H 0.06303 0.87119 0.53257 0.0
C942 C 0.94578 0.89064 0.49348 0.0
C943 C 0.9553 0.87647 0.52487 0.0
C944 C 0.92344 0.86818 0.5422 0.0
C945 C 1.02095 0.89093 0.49055 0.0
C946 C 0.06442 0.88379 0.50466 0.0
C947 C 1.03049 0.87677 0.52196 0.0
C948 C 0.14462 0.88306 0.5005 0.0
C949 C 0.05285 0.89922 0.47322 0.0
C950 C 0.17631 0.87896 0.46463 0.0
C951 C 0.25075 0.87769 0.46025 0.0
C952 C 0.29608 0.8805 0.49154 0.0
C953 C 0.26472 0.88438 0.52745 0.0
C954 C 0.18989 0.8857 0.53188 0.0
H955 H 1.01596 0.90709 0.47545 0.0
H956 H 0.10404 0.9035 0.48704 0.0
H957 H 0.0631 0.89326 0.44275 0.0
H958 H 0.14335 0.87639 0.43967 0.0
H959 H 0.27307 0.87433 0.43207 0.0
H960 H 1.00126 0.54017 0.92032 0.0
H961 H 1.03434 0.52175 0.93266 0.0
H962 H 0.05084 0.54641 0.05177 0.0
H963 H 1.0159 0.56494 0.03955 0.0
H964 H 0.14898 0.51534 0.9649 0.0
H965 H 0.90333 0.51994 0.04933 0.0
H966 H 0.91637 0.52888 0.02144 0.0
H967 H 0.95924 0.53393 0.06671 0.0
C968 C 1.01268 0.54171 0.94914 0.0
C969 C 1.00512 0.554 0.97903 0.0
C970 C 1.03171 0.53116 0.95615 0.0
C971 C 0.04346 0.5326 0.99323 0.0
C972 C 1.04043 0.545 0.02298 0.0
H973 H 0.21205 0.47476 0.0598 0.0
H974 H 0.19623 0.49244 0.04153 0.0
C975 C 1.02141 0.55562 0.01595 0.0
C976 C 0.05568 0.521 0.00044 0.0
H977 H 0.98508 0.50369 0.04508 0.0
C978 C 0.11323 0.51281 0.98252 0.0
C979 C 1.00812 0.5175 0.02269 0.0
C980 C 0.94287 0.52543 0.0409 0.0
C981 C 0.12513 0.50139 0.9867 0.0
C982 C 0.07884 0.4981 0.0099 0.0
C983 C 1.02074 0.50619 0.02738 0.0
C984 C 0.09087 0.48658 0.01753 0.0
C985 C 0.18644 0.49282 0.9656 0.0
C986 C 1.03704 0.47729 0.01012 0.0
C987 C 0.04586 0.46714 0.02079 0.0
C988 C 0.10834 0.4662 0.03953 0.0
C989 C 0.16312 0.47524 0.04556 0.0
C990 C 0.15436 0.48532 0.03486 0.0
H991 H 0.20244 0.49453 0.94072 0.0
H992 H 0.23334 0.49491 0.98471 0.0
H993 H 0.17246 0.48254 0.95582 0.0
H994 H 0.98743 0.47806 -0.00311 0.0
H995 H 1.00238 0.46043 0.01612 0.0
H996 H 0.86505 0.4707 0.52764 0.0
H997 H 0.89401 0.48894 0.51353 0.0
H998 H 0.11726 0.48457 0.53329 0.0
H999 H 0.08846 0.46617 0.54695 0.0
H1000 H 0.95174 0.51136 0.56266 0.0
H1001 H 0.12703 0.48957 0.43704 0.0
H1002 H 0.07239 0.48004 0.45344 0.0
H1003 H 0.15636 0.48642 0.47608 0.0
C1004 C 0.92052 0.47348 0.52823 0.0
C1005 C 0.97453 0.46699 0.53837 0.0
C1006 C 0.93698 0.48393 0.52027 0.0
C1007 C 1.00785 0.48815 0.52216 0.0
C1008 C 0.06232 0.48138 0.53089 0.0
H1009 H 0.21915 0.55326 0.51178 0.0
H1010 H 0.18339 0.53476 0.523 0.0
C1011 C 0.04587 0.47084 0.53865 0.0
C1012 C 1.02369 0.50014 0.5177 0.0
H1013 H 0.12466 0.51241 0.46795 0.0
C1014 C 0.98915 0.51157 0.54173 0.0
C1015 C 0.07248 0.50044 0.49043 0.0
C1016 C 0.1087 0.48845 0.46252 0.0
C1017 C 1.00335 0.5233 0.53987 0.0
C1018 C 0.05283 0.52362 0.51295 0.0
C1019 C 0.08687 0.51218 0.48869 0.0
C1020 C 0.07179 0.53572 0.50992 0.0
C1021 C 0.96682 0.53531 0.56746 0.0
C1022 C 1.0206 0.54268 0.49972 0.0
C1023 C 1.04099 0.55336 0.4934 0.0
C1024 C 0.11301 0.55716 0.49681 0.0
C1025 C 0.16333 0.55051 0.50863 0.0
C1026 C 0.14302 0.5399 0.51498 0.0
H1027 H 0.9436 0.534 0.59176 0.0
H1028 H 1.00477 0.54349 0.57842 0.0
H1029 H 0.92275 0.53784 0.55279 0.0
H1030 H 0.96546 0.53955 0.49513 0.0
H1031 H 1.00123 0.5582 0.48389 0.0
H1032 H 0.73403 0.97286 0.04956 0.0
H1033 H 0.70201 0.99138 0.03774 0.0
H1034 H 0.48156 0.98724 0.06259 0.0
H1035 H 0.51394 0.96897 0.07631 0.0
H1036 H 0.6165 0.99455 0.98795 0.0
H1037 H 0.51423 0.02442 0.13204 0.0
H1038 H 0.56216 1.00963 0.1207 0.0
H1039 H 0.46895 1.00935 0.10891 0.0
C1040 C 0.67872 0.97593 0.05291 0.0
C1041 C 0.62684 0.96951 0.06463 0.0
C1042 C 0.66039 0.98651 0.04586 0.0
C1043 C 0.58963 0.99098 0.05018 0.0
C1044 C 0.53693 0.98425 0.06012 0.0
H1045 H 0.38062 0.05078 0.00665 0.0
H1046 H 0.41158 0.03337 0.02444 0.0
C1047 C 0.55534 0.97366 0.0674 0.0
C1048 C 0.57181 1.00264 0.04403 0.0
H1049 H 0.4984 0.03272 0.08621 0.0
C1050 C 0.591 1.00291 0.00956 0.0
C1051 C 0.53879 0.01363 0.07223 0.0
C1052 C 0.52043 0.01434 0.11069 0.0
C1053 C 0.57715 0.01369 0.00231 0.0
C1054 C 0.54371 0.02461 0.03036 0.0
C1055 C 0.52429 0.02437 0.06478 0.0
C1056 C 0.52576 0.0361 0.02365 0.0
C1057 C 0.59699 0.01322 0.96431 0.0
C1058 C 0.5796 0.04377 0.01866 0.0
C1059 C 0.56195 0.05384 0.00879 0.0
C1060 C 0.49017 0.05634 0.00348 0.0
C1061 C 0.43643 0.04904 0.01034 0.0
C1062 C 0.45402 0.03909 0.0205 0.0
H1063 H 0.61006 1.00333 0.94339 0.0
H1064 H 0.55269 0.01699 0.95292 0.0
H1065 H 0.64454 0.01936 0.96758 0.0
H1066 H 0.63534 0.04175 0.0214 0.0
H1067 H 0.60449 0.05923 0.00346 0.0
H1068 H 0.55016 0.04139 0.4179 0.0
H1069 H 0.55592 0.02244 0.43123 0.0
H1070 H 0.50227 0.0458 0.54777 0.0
H1071 H 0.49559 0.06482 0.53453 0.0
H1072 H 0.63952 0.01734 0.48605 0.0
H1073 H 0.3465 0.01708 0.50921 0.0
H1074 H 0.38664 0.02609 0.48599 0.0
H1075 H 0.39127 0.03199 0.53651 0.0
C1076 C 0.53981 0.04251 0.44643 0.0
C1077 C 0.52177 0.05461 0.47509 0.0
C1078 C 0.54341 0.03168 0.45401 0.0
C1079 C 0.52846 0.03266 0.49033 0.0
C1080 C 0.51305 0.04479 0.51939 0.0
H1081 H 0.58071 0.9793 0.59064 0.0
H1082 H 0.59191 0.99661 0.57027 0.0
C1083 C 0.50991 0.05567 0.51188 0.0
C1084 C 0.52711 0.02092 0.49739 0.0
H1085 H 0.41579 1.00189 0.52088 0.0
C1086 C 0.59063 0.01395 0.49363 0.0
C1087 C 0.46304 0.01638 0.50665 0.0
C1088 C 0.39273 0.02318 0.50957 0.0
C1089 C 0.59207 1.00277 0.49988 0.0
C1090 C 0.52839 0.99844 0.51015 0.0
C1091 C 0.46458 1.00523 0.51302 0.0
C1092 C 0.52739 0.98728 0.51997 0.0
C1093 C 0.66161 0.99562 0.49535 0.0
C1094 C 0.4879 0.97618 0.49827 0.0
C1095 C 0.48194 0.96618 0.50972 0.0
C1096 C 0.51424 0.96725 0.54346 0.0
C1097 C 0.55525 0.97822 0.56451 0.0
C1098 C 0.56189 0.9881 0.55285 0.0
H1099 H 0.70149 0.99841 0.47915 0.0
H1100 H 0.68432 0.99783 0.52372 0.0
H1101 H 0.65285 0.98509 0.48078 0.0
H1102 H 0.46052 0.97538 0.4729 0.0
H1103 H 0.44944 0.9579 0.4932 0.0
H1104 H 0.2911 0.30864 0.98787 0.0
H1105 H 0.3461 0.29168 0.00172 0.0
H1106 H 0.13782 0.27572 0.00182 0.0
H1107 H 0.08273 0.29271 0.98877 0.0
H1108 H 0.22586 0.27596 0.05994 0.0
H1109 H 0.36568 0.25449 0.92158 0.0
H1110 H 0.38467 0.27116 0.94976 0.0
H1111 H 0.29593 0.26635 0.93169 0.0
C1112 C 0.25703 0.30165 0.99154 0.0
C1113 C 0.18259 0.30196 0.98683 0.0
C1114 C 0.28855 0.29186 -0.00101 0.0
C1115 C 0.24624 0.28223 0.00195 0.0
C1116 C 0.17171 0.28294 -0.00073 0.0
H1117 H 0.32562 0.21271 0.03745 0.0
H1118 H 0.26943 0.22978 0.0246 0.0
C1119 C 0.1403 0.29266 0.99171 0.0
C1120 C 0.2791 0.27119 0.00687 0.0
H1121 H 0.38888 0.2452 0.96412 0.0
C1122 C 0.26143 0.26922 0.03897 0.0
C1123 C 0.3252 0.26234 0.9794 0.0
C1124 C 0.34367 0.26357 0.94347 0.0
C1125 C 0.28973 0.25884 0.04476 0.0
C1126 C 0.33584 0.24997 0.01727 0.0
C1127 C 0.35337 0.25194 0.98513 0.0
C1128 C 0.36905 0.23894 0.02214 0.0
C1129 C 0.27151 0.25767 0.0808 0.0
C1130 C 0.44374 0.238 0.02316 0.0
C1131 C 0.47584 0.22819 0.02998 0.0
C1132 C 0.43414 0.21902 0.0359 0.0
C1133 C 0.35934 0.21959 0.03302 0.0
C1134 C 0.32714 0.22945 0.02619 0.0
H1135 H 0.25061 0.26683 0.10282 0.0
H1136 H 0.22961 0.25024 0.0748 0.0
H1137 H 0.31903 0.25472 0.0923 0.0
H1138 H 0.47738 0.24508 0.01969 0.0
H1139 H 0.53362 0.22792 0.03131 0.0
H1140 H 0.77064 0.80869 0.97891 0.0
H1141 H 0.83102 0.79101 0.98718 0.0
H1142 H 0.62977 0.77938 0.01624 0.0
H1143 H 0.56961 0.79693 0.00835 0.0
H1144 H 0.83696 0.78413 0.05003 0.0
H1145 H 0.70021 0.74673 0.92634 0.0
H1146 H 0.70217 0.76339 0.93451 0.0
H1147 H 0.64096 0.75807 0.96033 0.0
C1148 C 0.73956 0.80247 0.9876 0.0
C1149 C 0.6651 0.80411 0.99238 0.0
C1150 C 0.774 0.79233 0.9921 0.0
C1151 C 0.7346 0.78365 0.00135 0.0
C1152 C 0.66103 0.78571 0.00806 0.0
H1153 H 0.82307 0.71473 0.0355 0.0
H1154 H 0.76708 0.73243 0.02563 0.0
C1155 C 0.62674 0.79578 0.0036 0.0
C1156 C 0.76955 0.77234 0.00369 0.0
H1157 H 0.76607 0.73952 0.96572 0.0
C1158 C 0.82192 0.77438 0.03142 0.0
C1159 C 0.7496 0.75959 0.97954 0.0
C1160 C 0.69562 0.75676 0.94826 0.0
C1161 C 0.85356 0.76405 0.03625 0.0
C1162 C 0.83353 0.75129 0.01212 0.0
C1163 C 0.78138 0.74927 0.98427 0.0
C1164 C 0.8666 0.73995 0.01523 0.0
C1165 C 0.90668 0.76694 0.06795 0.0
C1166 C 0.94071 0.73794 0.01112 0.0
C1167 C 0.9726 0.72787 0.01667 0.0
C1168 C 0.93115 0.71945 0.02615 0.0
C1169 C 0.85645 0.72101 0.02813 0.0
C1170 C 0.82449 0.73117 0.02272 0.0
H1171 H 0.90111 0.77694 0.08996 0.0
H1172 H 0.90014 0.76026 0.08152 0.0
H1173 H 0.96167 0.76581 0.05636 0.0
H1174 H 0.97421 0.74431 0.00419 0.0
H1175 H 1.03016 0.7268 0.01425 0.0
H1176 H 0.27418 0.7137 0.53079 0.0
H1177 H 0.33271 0.73068 0.51853 0.0
H1178 H 0.12654 0.74578 0.50873 0.0
H1179 H 0.06798 0.7289 0.52063 0.0
H1180 H 0.32108 0.73798 0.45732 0.0
H1181 H 0.22609 0.77681 0.59167 0.0
H1182 H 0.22319 0.76009 0.58275 0.0
H1183 H 0.15637 0.76665 0.56278 0.0
C1184 C 0.24138 0.72053 0.52547 0.0
C1185 C 0.16637 0.72003 0.52724 0.0
C1186 C 0.27487 0.73027 0.5187 0.0
C1187 C 0.23402 0.73971 0.51368 0.0
C1188 C 0.15924 0.73884 0.51357 0.0
H1189 H 0.32167 0.80795 0.47634 0.0
H1190 H 0.26662 0.79085 0.48928 0.0
C1191 C 0.12585 0.72915 0.52031 0.0
C1192 C 0.26905 0.75055 0.50886 0.0
H1193 H 0.28122 0.78331 0.54787 0.0
C1194 C 0.3128 0.74788 0.47724 0.0
C1195 C 0.25799 0.7635 0.53478 0.0
C1196 C 0.2139 0.76698 0.5701 0.0
C1197 C 0.34437 0.75779 0.47036 0.0
C1198 C 0.33323 0.77075 0.49627 0.0
C1199 C 0.28969 0.77341 0.52797 0.0
C1200 C 0.36672 0.78164 0.491 0.0
C1201 C 0.38777 0.75428 0.4348 0.0
C1202 C 0.44133 0.78247 0.4891 0.0
C1203 C 0.47276 0.79221 0.48179 0.0
C1204 C 0.4304 0.80145 0.4765 0.0
C1205 C 0.35582 0.80102 0.48038 0.0
C1206 C 0.32431 0.7912 0.48756 0.0
H1207 H 0.37477 0.74449 0.41321 0.0
H1208 H 0.37864 0.76121 0.4223 0.0
H1209 H 0.44541 0.75445 0.44175 0.0
H1210 H 0.4754 0.77546 0.49282 0.0
H1211 H 0.53044 0.7924 0.47975 0.0
H1212 H 1.00473 0.29438 0.49754 0.0
H1213 H 0.94789 0.27724 0.50894 0.0
H1214 H 0.74032 0.29125 0.49604 0.0
H1215 H 0.79732 0.30838 0.48386 0.0
H1216 H 0.84921 0.27713 0.56223 0.0
H1217 H 0.73815 0.25372 0.41672 0.0
H1218 H 0.80505 0.26616 0.43013 0.0
H1219 H 0.71313 0.27024 0.44293 0.0
C1220 C 0.9469 0.29388 0.49741 0.0
C1221 C 0.9055 0.30266 0.48938 0.0
C1222 C 0.91449 0.28408 0.50399 0.0
C1223 C 0.83989 0.28276 0.50252 0.0
C1224 C 0.79807 0.29191 0.49652 0.0
H1225 H 0.55255 0.22691 0.52177 0.0
H1226 H 0.6093 0.24414 0.51078 0.0
C1227 C 0.8306 0.30179 0.49004 0.0
C1228 C 0.80676 0.27158 0.50625 0.0
H1229 H 0.70789 0.24449 0.45853 0.0
C1230 C 0.81837 0.26998 0.53955 0.0
C1231 C 0.76692 0.2622 0.47654 0.0
C1232 C 0.75542 0.26305 0.4394 0.0
C1233 C 0.79009 0.25942 0.54426 0.0
C1234 C 0.75027 0.25003 0.51453 0.0
C1235 C 0.73869 0.25164 0.48122 0.0
C1236 C 0.71724 0.23883 0.51821 0.0
C1237 C 0.80154 0.2586 0.58143 0.0
C1238 C 0.75908 0.22977 0.52466 0.0
C1239 C 0.7266 0.21986 0.531 0.0
C1240 C 0.6517 0.21885 0.53102 0.0
C1241 C 0.61035 0.22753 0.52251 0.0
C1242 C 0.64272 0.23738 0.51612 0.0
H1243 H 0.81816 0.26796 0.60415 0.0
H1244 H 0.75211 0.25538 0.59056 0.0
H1245 H 0.84435 0.25151 0.57804 0.0
H1246 H 0.81681 0.23052 0.52556 0.0
H1247 H 0.75991 0.21335 0.53752 0.0
H1248 H 0.21838 0.39664 0.13828 0.0
H1249 H 0.21365 0.39751 0.20205 0.0
H1250 H 0.05122 0.36823 0.16557 0.0
H1251 H 0.05401 0.36754 0.10226 0.0
H1252 H 0.08277 0.40292 0.24908 0.0
H1253 H 0.20568 0.35573 0.22035 0.0
H1254 H 0.21849 0.36374 0.18976 0.0
H1255 H 0.13653 0.35538 0.18789 0.0
C1256 C 0.18129 0.39044 0.14384 0.0
C1257 C 0.13535 0.38224 0.11523 0.0
C1258 C 0.17905 0.39089 0.18027 0.0
C1259 C 0.13218 0.38292 0.18853 0.0
C1260 C 0.08821 0.3744 0.15973 0.0
H1261 H 0.98629 0.36812 0.3735 0.0
H1262 H 1.01825 0.36839 0.31334 0.0
C1263 C 0.08983 0.37404 0.12348 0.0
C1264 C 0.12651 0.38384 0.22754 0.0
H1265 H 0.14629 0.36642 0.27929 0.0
C1266 C 0.09745 0.39502 0.25593 0.0
C1267 C 0.14548 0.3735 0.23626 0.0
C1268 C 0.17885 0.36143 0.20711 0.0
C1269 C 0.08386 0.39593 0.29243 0.0
C1270 C 0.1016 0.38547 0.30101 0.0
C1271 C 0.13265 0.37444 0.2728 0.0
C1272 C 0.08417 0.38539 0.33814 0.0
C1273 C 0.04748 0.40781 0.32082 0.0
C1274 C 0.11089 0.39479 0.37235 0.0
C1275 C 0.09274 0.39459 0.40696 0.0
C1276 C 0.0488 0.38483 0.40784 0.0
C1277 C 1.02247 0.37544 0.37364 0.0
C1278 C 1.0401 0.37569 0.33921 0.0
H1279 H 1.02175 0.41346 0.30706 0.0
H1280 H 1.00618 0.40531 0.33694 0.0
H1281 H 0.0878 0.41404 0.34116 0.0
H1282 H 0.14607 0.40224 0.3723 0.0
H1283 H 0.11375 0.40195 0.43296 0.0
H1284 H 0.10719 0.64866 0.12261 0.0
H1285 H 0.12569 0.64859 0.18442 0.0
H1286 H 0.93655 0.62554 0.16866 0.0
H1287 H 0.91703 0.62564 0.10658 0.0
H1288 H 0.95142 0.64843 0.24246 0.0
H1289 H 0.18955 0.61644 0.20196 0.0
H1290 H 0.19149 0.62964 0.18879 0.0
H1291 H 0.12684 0.6171 0.16759 0.0
C1292 C 0.06919 0.64361 0.13225 0.0
C1293 C 1.01034 0.6372 0.10969 0.0
C1294 C 0.0802 0.64352 0.16753 0.0
C1295 C 1.03279 0.63699 0.18097 0.0
C1296 C 0.97382 0.63061 0.15869 0.0
H1297 H 0.07974 0.61732 0.37029 0.0
H1298 H 0.06358 0.61744 0.30857 0.0
C1299 C 0.96292 0.63064 0.1232 0.0
C1300 C 0.04484 0.63693 0.21844 0.0
H1301 H 0.15957 0.62622 0.26696 0.0
C1302 C 0.9968 0.64356 0.24788 0.0
C1303 C 0.10389 0.63051 0.22526 0.0
C1304 C 0.15579 0.62292 0.19424 0.0
C1305 C 1.00684 0.64408 0.2842 0.0
C1306 C 0.06673 0.63787 0.29122 0.0
C1307 C 0.11415 0.63108 0.26159 0.0
C1308 C 0.07961 0.63788 0.32874 0.0
C1309 C 0.95277 0.65109 0.31466 0.0
C1310 C 0.09504 0.6493 0.3606 0.0
C1311 C 0.10602 0.64916 0.39594 0.0
C1312 C 0.10237 0.63759 0.39996 0.0
C1313 C 0.08682 0.62623 0.36797 0.0
C1314 C 0.07619 0.62634 0.33269 0.0
H1315 H 0.90258 0.65308 0.30282 0.0
H1316 H 0.93965 0.64545 0.33091 0.0
H1317 H 0.97566 0.6604 0.33464 0.0
H1318 H 0.09862 0.6583 0.35811 0.0
H1319 H 0.11747 0.65811 0.4201 0.0
H1320 H 1.02231 0.6169 0.87048 0.0
H1321 H 1.03918 0.61715 0.80885 0.0
H1322 H 0.97533 0.65692 0.85571 0.0
H1323 H 0.95757 0.6566 0.91757 0.0
H1324 H 0.94588 0.62237 0.76214 0.0
H1325 H 0.16829 0.65758 0.8085 0.0
H1326 H 0.13586 0.64979 0.83701 0.0
H1327 H 0.08785 0.66314 0.83562 0.0
C1328 C 1.00957 0.62555 0.86744 0.0
C1329 C 0.98667 0.6366 0.8986 0.0
C1330 C 1.02035 0.62576 0.83228 0.0
C1331 C 1.00923 0.63708 0.82768 0.0
C1332 C 0.9855 0.64812 0.85871 0.0
H1333 H 0.98788 0.65026 0.62554 0.0
H1334 H 0.96892 0.64971 0.68674 0.0
C1335 C 0.97495 0.64792 0.89395 0.0
C1336 C 1.02294 0.63728 0.79043 0.0
H1337 H 0.12367 0.65167 0.74631 0.0
C1338 C 0.98484 0.62876 0.7587 0.0
C1339 C 0.0744 0.64553 0.78586 0.0
C1340 C 0.1195 0.65445 0.81845 0.0
C1341 C 0.99589 0.62846 0.72273 0.0
C1342 C 0.04621 0.63686 0.71842 0.0
C1343 C 0.08492 0.64528 0.7499 0.0
C1344 C 0.05839 0.63715 0.68135 0.0
C1345 C 0.95398 0.61916 0.68939 0.0
C1346 C 0.11517 0.63027 0.65815 0.0
C1347 C 0.1264 0.63057 0.62307 0.0
C1348 C 0.08131 0.63787 0.61082 0.0
C1349 C 1.02432 0.6447 0.63425 0.0
C1350 C 1.01308 0.64436 0.66919 0.0
H1351 H 0.91976 0.61273 0.69697 0.0
H1352 H 0.91946 0.62458 0.67804 0.0
H1353 H 0.99115 0.61322 0.66648 0.0
H1354 H 0.1506 0.62464 0.66717 0.0
H1355 H 0.17067 0.62518 0.60575 0.0
H1356 H 1.03542 0.40495 0.64516 0.0
H1357 H 0.05288 0.40518 0.70748 0.0
H1358 H 0.98577 0.36567 0.66366 0.0
H1359 H 0.96893 0.36533 0.60103 0.0
H1360 H 0.96087 0.40152 0.75512 0.0
H1361 H 0.17212 0.36422 0.71354 0.0
H1362 H 0.1429 0.3714 0.68282 0.0
H1363 H 0.09162 0.35875 0.68644 0.0
C1364 C 1.02352 0.39634 0.64883 0.0
C1365 C 1.00005 0.38515 0.61815 0.0
C1366 C 1.03405 0.39647 0.68448 0.0
C1367 C 1.02169 0.3854 0.69027 0.0
C1368 C 0.99738 0.37425 0.65978 0.0
H1369 H 0.99393 0.37134 0.89055 0.0
H1370 H 0.97959 0.37182 0.82895 0.0
C1371 C 0.98733 0.37409 0.62401 0.0
C1372 C 1.03322 0.38563 0.72835 0.0
H1373 H 0.12276 0.37076 0.77523 0.0
C1374 C 0.99664 0.39484 0.75948 0.0
C1375 C 0.08034 0.37698 0.73423 0.0
C1376 C 0.12456 0.36737 0.70257 0.0
C1377 C 1.00473 0.39544 0.79601 0.0
C1378 C 0.05039 0.38661 0.80158 0.0
C1379 C 0.08753 0.37748 0.77071 0.0
C1380 C 0.059 0.38654 0.83925 0.0
C1381 C 0.96393 0.40538 0.82854 0.0
C1382 C 0.10836 0.39471 0.86548 0.0
C1383 C 0.11742 0.39436 0.9007 0.0
C1384 C 0.07728 0.38582 0.9102 0.0
C1385 C 1.02687 0.37784 0.88397 0.0
C1386 C 1.01821 0.37815 0.84878 0.0
H1387 H 0.92909 0.41139 0.81946 0.0
H1388 H 0.93035 0.40058 0.84217 0.0
H1389 H 1.00209 0.41171 0.85018 0.0
H1390 H 0.14026 0.40127 0.85856 0.0
H1391 H 0.15653 0.40066 0.92021 0.0
H1392 H 0.62716 0.87124 0.10774 0.0
H1393 H 0.60868 0.87237 0.17081 0.0
H1394 H 0.5142 0.90991 0.20667 0.0
H1395 H 0.53419 0.909 0.14349 0.0
H1396 H 0.60499 0.90876 0.25994 0.0
H1397 H 0.42033 0.86737 0.21256 0.0
H1398 H 0.50404 0.86326 0.18799 0.0
H1399 H 0.44646 0.87487 0.18224 0.0
C1400 C 0.6024 0.87976 0.12894 0.0
C1401 C 0.58157 0.88999 0.12038 0.0
C1402 C 0.59144 0.88035 0.165 0.0
C1403 C 0.55833 0.89107 0.19326 0.0
C1404 C 0.53922 0.90147 0.18521 0.0
H1405 H 0.4332 0.90312 0.42299 0.0
H1406 H 0.44426 0.9053 0.36338 0.0
C1407 C 0.55074 0.90094 0.14909 0.0
C1408 C 0.54454 0.89138 0.23116 0.0
H1409 H 0.46928 0.87417 0.27487 0.0
C1410 C 0.57453 0.90129 0.26326 0.0
C1411 C 0.50424 0.88169 0.23559 0.0
C1412 C 0.4663 0.87128 0.2028 0.0
C1413 C 0.56777 0.90145 0.29935 0.0
C1414 C 0.53021 0.89146 0.30335 0.0
C1415 C 0.4986 0.88176 0.27155 0.0
C1416 C 0.52539 0.89063 0.3401 0.0
C1417 C 0.60249 0.91205 0.33292 0.0
C1418 C 0.56761 0.88171 0.3467 0.0
C1419 C 0.56197 0.88051 0.38074 0.0
C1420 C 0.51297 0.88806 0.40867 0.0
C1421 C 0.47128 0.89712 0.40211 0.0
C1422 C 0.47748 0.89839 0.36808 0.0
H1423 H 0.63392 0.91866 0.32473 0.0
H1424 H 0.56068 0.91768 0.3534 0.0
H1425 H 0.63834 0.9079 0.34755 0.0
H1426 H 0.60503 0.87566 0.32544 0.0
H1427 H 0.59607 0.87365 0.38508 0.0
H1428 H 0.59955 0.14969 0.13554 0.0
H1429 H 0.61746 0.14833 0.19536 0.0
H1430 H 0.46149 0.11795 0.16328 0.0
H1431 H 0.43984 0.11982 0.10397 0.0
H1432 H 0.44085 0.13455 0.23363 0.0
H1433 H 0.7282 0.12245 0.21629 0.0
H1434 H 0.71141 0.13707 0.21178 0.0
H1435 H 0.67367 0.12224 0.17789 0.0
C1436 C 0.56826 0.14282 0.14124 0.0
C1437 C 0.51742 0.13501 0.11508 0.0
C1438 C 0.57962 0.14188 0.1753 0.0
C1439 C 0.54202 0.13285 0.18356 0.0
C1440 C 0.4915 0.12495 0.15742 0.0
H1441 H 0.65955 0.11857 0.37948 0.0
H1442 H 0.64275 0.11671 0.31532 0.0
C1443 C 0.47928 0.12601 0.12348 0.0
C1444 C 0.55314 0.13212 0.22027 0.0
H1445 H 0.68254 0.13042 0.2798 0.0
C1446 C 0.49363 0.13349 0.24352 0.0
C1447 C 0.62178 0.13048 0.23296 0.0
C1448 C 0.6872 0.12783 0.2082 0.0
C1449 C 0.50111 0.13375 0.2796 0.0
C1450 C 0.57037 0.13307 0.29339 0.0
C1451 C 0.6296 0.1312 0.26958 0.0
C1452 C 0.5824 0.13436 0.33246 0.0
C1453 C 0.43446 0.13458 0.30228 0.0
C1454 C 0.55633 0.1451 0.3636 0.0
C1455 C 0.56402 0.14598 0.4002 0.0
C1456 C 0.59913 0.13624 0.40655 0.0
C1457 C 0.62956 0.12595 0.37554 0.0
C1458 C 0.62073 0.12495 0.33882 0.0
H1459 H 0.3872 0.13073 0.28361 0.0
H1460 H 0.4407 0.12922 0.31999 0.0
H1461 H 0.4233 0.14479 0.32109 0.0
H1462 H 0.52922 0.15276 0.3596 0.0
H1463 H 0.54127 0.15423 0.42336 0.0
H1464 H 0.55136 0.15404 0.92647 0.0
H1465 H 0.55963 0.15394 0.86423 0.0
H1466 H 0.41618 0.12158 0.81949 0.0
H1467 H 0.40241 0.12243 0.88259 0.0
H1468 H 0.61345 0.13705 0.80334 0.0
H1469 H 0.32975 0.14276 0.77322 0.0
H1470 H 0.35961 0.14472 0.81927 0.0
H1471 H 0.34289 0.12893 0.78252 0.0
C1472 C 0.52067 0.14699 0.9036 0.0
C1473 C 0.47773 0.13797 0.90945 0.0
C1474 C 0.52575 0.14692 0.86785 0.0
C1475 C 0.48852 0.13777 0.83697 0.0
C1476 C 0.44456 0.1289 0.84284 0.0
H1477 H 0.62695 0.12092 0.60623 0.0
H1478 H 0.60572 0.12004 0.66682 0.0
C1479 C 0.43798 0.12919 0.87888 0.0
C1480 C 0.49871 0.13726 0.79856 0.0
H1481 H 0.41015 0.13656 0.72118 0.0
C1482 C 0.56889 0.13703 0.7855 0.0
C1483 C 0.44074 0.13737 0.77532 0.0
C1484 C 0.36411 0.1386 0.78846 0.0
C1485 C 0.58282 0.13701 0.75017 0.0
C1486 C 0.52487 0.13658 0.72629 0.0
C1487 C 0.45466 0.13674 0.73923 0.0
C1488 C 0.53562 0.1366 0.68857 0.0
C1489 C 0.65954 0.13794 0.73961 0.0
C1490 C 0.50031 0.14574 0.67962 0.0
C1491 C 0.51046 0.14598 0.64454 0.0
C1492 C 0.55755 0.1373 0.61786 0.0
C1493 C 0.59154 0.12794 0.62642 0.0
C1494 C 0.57997 0.1275 0.66125 0.0
H1495 H 0.69432 0.14217 0.76503 0.0
H1496 H 0.68008 0.12817 0.72183 0.0
H1497 H 0.66434 0.14386 0.72349 0.0
H1498 H 0.46508 0.15277 0.69992 0.0
H1499 H 0.48119 0.15299 0.63844 0.0
H1500 H 0.56091 0.86588 0.59134 0.0
H1501 H 0.57304 0.86562 0.65325 0.0
H1502 H 0.4102 0.89471 0.698 0.0
H1503 H 0.39571 0.89475 0.63563 0.0
H1504 H 0.56175 0.89861 0.73681 0.0
H1505 H 0.41772 0.8536 0.71405 0.0
H1506 H 0.47598 0.85342 0.6771 0.0
H1507 H 0.39595 0.86289 0.68791 0.0
C1508 C 0.52697 0.87214 0.61409 0.0
C1509 C 0.47856 0.88059 0.60862 0.0
C1510 C 0.53401 0.87196 0.64951 0.0
C1511 C 0.49279 0.88018 0.68014 0.0
C1512 C 0.44275 0.88833 0.67466 0.0
H1513 H 0.52409 0.90155 0.9221 0.0
H1514 H 0.49954 0.90083 0.85966 0.0
C1515 C 0.43501 0.88841 0.63908 0.0
C1516 C 0.50506 0.88073 0.71828 0.0
H1517 H 0.47952 0.8641 0.77182 0.0
C1518 C 0.54346 0.89113 0.74467 0.0
C1519 C 0.48197 0.87085 0.72804 0.0
C1520 C 0.44026 0.85955 0.70049 0.0
C1521 C 0.56044 0.89182 0.78056 0.0
C1522 C 0.5364 0.88202 0.7907 0.0
C1523 C 0.49783 0.87162 0.76415 0.0
C1524 C 0.55059 0.88241 0.82868 0.0
C1525 C 0.60593 0.90284 0.80672 0.0
C1526 C 0.58524 0.87211 0.83218 0.0
C1527 C 0.5987 0.87248 0.86793 0.0
C1528 C 0.57798 0.88317 0.90071 0.0
C1529 C 0.54253 0.89338 0.89723 0.0
C1530 C 0.52843 0.89296 0.86156 0.0
H1531 H 0.63765 0.9071 0.79087 0.0
H1532 H 0.57077 0.91047 0.82667 0.0
H1533 H 0.64323 0.89973 0.82339 0.0
H1534 H 0.60254 0.86383 0.80725 0.0
H1535 H 0.62647 0.86453 0.86994 0.0
loop_
_geom_bond_atom_site_label_1
_geom_bond_atom_site_label_2
_geom_bond_distance
_geom_bond_site_symmetry_2
_ccdc_geom_bond_type
Tb0 N31 2.660 . S
Tb0 N38 2.600 . S
Tb0 O44 2.546 . S
Tb0 O45 2.610 1_455 S
Tb0 O47 2.320 1_554 S
Tb0 O48 2.552 1_455 S
Tb0 O49 2.413 . S
Tb0 O51 2.362 . S
Tb0 O52 2.421 . S
Tb0 C64 2.833 . S
C1 C4 1.432 . S
C1 C5 1.414 . S
C1 N8 1.359 . S
C2 C4 1.417 . S
C2 C6 1.432 . S
C2 C14 1.410 1_556 S
C3 C5 1.444 . S
C3 C6 1.317 . S
C3 H26 0.929 . S
C4 C1 1.432 . S
C4 C2 1.417 . S
C4 N12 1.360 1_556 S
C5 C1 1.414 . S
C5 C3 1.444 . S
C5 C10 1.385 . S
C6 C2 1.432 . S
C6 C3 1.317 . S
C6 H18 0.930 . S
C7 C9 1.392 . S
C7 C10 1.370 . S
C7 H19 0.931 . S
N8 C1 1.359 . S
N8 C9 1.327 . S
N8 Tb11 2.600 1_655 S
C9 C7 1.392 . S
C9 N8 1.327 . S
C9 H16 0.930 1_655 S
C10 C5 1.385 . S
C10 C7 1.370 . S
C10 H29 0.930 . S
Tb11 N8 2.600 1_455 S
Tb11 N12 2.660 1_456 S
Tb11 O45 2.362 1_456 S
Tb11 O46 2.421 . S
Tb11 O50 2.546 . S
Tb11 O51 2.610 1_556 S
Tb11 O53 2.320 1_556 S
Tb11 O54 2.552 . S
Tb11 O55 2.413 1_556 S
Tb11 C75 2.833 . S
N12 C4 1.360 1_554 S
N12 Tb11 2.660 1_654 S
N12 C13 1.305 . S
C13 N12 1.305 . S
C13 C15 1.407 . S
C13 H20 0.930 . S
C14 C2 1.410 1_554 S
C14 C15 1.345 . S
C14 H22 0.930 . S
C15 C13 1.407 . S
C15 C14 1.345 . S
C15 H17 0.930 . S
H16 C9 0.930 1_455 S
H17 C15 0.930 . S
H18 C6 0.930 . S
H19 C7 0.931 . S
H20 C13 0.930 . S
H21 C35 0.930 . S
H22 C14 0.930 . S
H23 C41 0.930 . S
H24 C32 0.930 . S
H25 C39 0.931 . S
H26 C3 0.929 . S
H27 C33 0.930 . S
H28 C66 0.930 . S
H29 C10 0.930 . S
H30 C65 0.929 . S
N31 Tb0 2.660 . S
N31 C32 1.305 1_554 S
N31 C36 1.360 . S
C32 H24 0.930 . S
C32 N31 1.305 1_556 S
C32 C35 1.407 . S
C33 H27 0.930 . S
C33 C34 1.410 1_556 S
C33 C35 1.345 . S
C34 C33 1.410 1_554 S
C34 C36 1.417 . S
C34 C66 1.432 . S
C35 H21 0.930 . S
C35 C32 1.407 . S
C35 C33 1.345 . S
C36 N31 1.360 . S
C36 C34 1.417 . S
C36 C40 1.432 . S
H37 C42 0.930 . S
N38 Tb0 2.600 . S
N38 C40 1.359 . S
N38 C41 1.327 . S
C39 H25 0.931 . S
C39 C41 1.392 . S
C39 C42 1.370 . S
C40 C36 1.432 . S
C40 N38 1.359 . S
C40 C43 1.414 . S
C41 H23 0.930 . S
C41 N38 1.327 . S
C41 C39 1.392 . S
C42 H37 0.930 . S
C42 C39 1.370 . S
C42 C43 1.385 . S
C43 C40 1.414 . S
C43 C42 1.385 . S
C43 C65 1.444 . S
O44 Tb0 2.546 . S
O44 C64 1.251 . S
O45 Tb0 2.610 1_655 S
O45 Tb11 2.362 1_654 S
O45 C56 1.283 . S
O46 Tb11 2.421 . S
O46 C63 1.262 . S
O47 Tb0 2.320 1_556 S
O47 C63 1.260 . S
O48 Tb0 2.552 1_655 S
O48 C56 1.243 . S
O49 Tb0 2.413 . S
O49 C64 1.256 . S
O50 Tb11 2.546 . S
O50 C75 1.251 . S
O51 Tb0 2.362 . S
O51 Tb11 2.610 1_554 S
O51 C67 1.283 . S
O52 Tb0 2.421 . S
O52 C74 1.262 . S
O53 Tb11 2.320 1_554 S
O53 C74 1.260 . S
O54 Tb11 2.552 . S
O54 C67 1.243 1_556 S
O55 Tb11 2.413 1_554 S
O55 C75 1.256 1_554 S
C56 O45 1.283 . S
C56 O48 1.243 . S
C57 C59 1.375 1_455 S
C57 C61 1.394 . S
C57 C64 1.506 . S
C58 C59 1.400 . S
C58 C60 1.384 . S
C59 C57 1.375 1_655 S
C59 C58 1.400 . S
C59 H76 0.936 . S
C60 C58 1.384 . S
C60 C62 1.392 . S
C60 H77 0.931 . S
C61 C57 1.394 . S
C61 C62 1.401 1_455 S
C61 H78 0.930 . S
C62 C60 1.392 . S
C62 C61 1.401 1_655 S
C62 H79 0.930 . S
C63 O46 1.262 . S
C63 O47 1.260 . S
C64 Tb0 2.833 . S
C64 O44 1.251 . S
C64 O49 1.256 . S
C64 C57 1.506 . S
C65 H30 0.929 . S
C65 C43 1.444 . S
C65 C66 1.317 . S
C66 H28 0.930 . S
C66 C34 1.432 . S
C66 C65 1.317 . S
C67 O51 1.283 . S
C67 O54 1.243 1_554 S
C68 C69 1.382 . S
C68 C72 1.393 . S
C68 C75 1.500 . S
C69 C68 1.382 . S
C69 C70 1.400 . S
C69 H80 0.930 1_556 S
C70 C69 1.400 . S
C70 C71 1.384 . S
C71 C70 1.384 . S
C71 C73 1.392 . S
C71 H81 0.931 . S
C72 C68 1.393 . S
C72 C73 1.401 . S
C72 H82 0.930 . S
C73 C71 1.392 . S
C73 C72 1.401 . S
C73 H83 0.930 . S
C74 O52 1.262 . S
C74 O53 1.260 . S
C75 Tb11 2.833 . S
C75 O50 1.251 . S
C75 O55 1.256 1_556 S
C75 C68 1.500 . S
H76 C59 0.936 . S
H77 C60 0.931 . S
H78 C61 0.930 . S
H79 C62 0.930 . S
H80 C69 0.930 1_554 S
H81 C71 0.931 . S
H82 C72 0.930 . S
H83 C73 0.930 . S
Tb84 N115 2.660 1_655 S
Tb84 N122 2.600 1_655 S
Tb84 O128 2.546 . S
Tb84 O129 2.610 . S
Tb84 O131 2.320 1_554 S
Tb84 O132 2.552 . S
Tb84 O133 2.413 . S
Tb84 O135 2.362 1_655 S
Tb84 O136 2.421 . S
Tb84 C148 2.833 . S
C85 C88 1.432 . S
C85 C89 1.414 . S
C85 N92 1.359 . S
C86 C88 1.417 . S
C86 C90 1.432 . S
C86 C98 1.410 1_556 S
C87 C89 1.444 . S
C87 C90 1.317 . S
C87 H110 0.929 . S
C88 C85 1.432 . S
C88 C86 1.417 . S
C88 N96 1.360 1_556 S
C89 C85 1.414 . S
C89 C87 1.444 . S
C89 C94 1.385 . S
C90 C86 1.432 . S
C90 C87 1.317 . S
C90 H102 0.930 . S
C91 C93 1.392 . S
C91 C94 1.370 . S
C91 H103 0.931 . S
N92 C85 1.359 . S
N92 C93 1.327 . S
N92 Tb95 2.600 . S
C93 C91 1.392 . S
C93 N92 1.327 . S
C93 H100 0.930 . S
C94 C89 1.385 . S
C94 C91 1.370 . S
C94 H113 0.930 . S
Tb95 N92 2.600 . S
Tb95 N96 2.660 1_556 S
Tb95 O129 2.362 1_556 S
Tb95 O130 2.421 . S
Tb95 O134 2.546 . S
Tb95 O135 2.610 1_656 S
Tb95 O137 2.320 1_556 S
Tb95 O138 2.552 1_655 S
Tb95 O139 2.413 1_556 S
Tb95 C159 2.833 . S
N96 C88 1.360 1_554 S
N96 Tb95 2.660 1_554 S
N96 C97 1.305 . S
C97 N96 1.305 . S
C97 C99 1.407 . S
C97 H104 0.930 . S
C98 C86 1.410 1_554 S
C98 C99 1.345 . S
C98 H106 0.930 . S
C99 C97 1.407 . S
C99 C98 1.345 . S
C99 H101 0.930 . S
H100 C93 0.930 . S
H101 C99 0.930 . S
H102 C90 0.930 . S
H103 C91 0.931 . S
H104 C97 0.930 . S
H105 C119 0.930 . S
H106 C98 0.930 . S
H107 C125 0.930 1_655 S
H108 C116 0.930 . S
H109 C123 0.931 . S
H110 C87 0.929 . S
H111 C117 0.930 1_556 S
H112 C150 0.930 . S
H113 C94 0.930 . S
H114 C149 0.929 . S
N115 Tb84 2.660 1_455 S
N115 C116 1.305 1_554 S
N115 C120 1.360 . S
C116 H108 0.930 . S
C116 N115 1.305 1_556 S
C116 C119 1.407 . S
C117 H111 0.930 1_554 S
C117 C118 1.410 . S
C117 C119 1.345 1_554 S
C118 C117 1.410 . S
C118 C120 1.417 . S
C118 C150 1.432 . S
C119 H105 0.930 . S
C119 C116 1.407 . S
C119 C117 1.345 1_556 S
C120 N115 1.360 . S
C120 C118 1.417 . S
C120 C124 1.432 . S
H121 C126 0.930 . S
N122 Tb84 2.600 1_455 S
N122 C124 1.359 . S
N122 C125 1.327 . S
C123 H109 0.931 . S
C123 C125 1.392 . S
C123 C126 1.370 . S
C124 C120 1.432 . S
C124 N122 1.359 . S
C124 C127 1.414 . S
C125 H107 0.930 1_455 S
C125 N122 1.327 . S
C125 C123 1.392 . S
C126 H121 0.930 . S
C126 C123 1.370 . S
C126 C127 1.385 . S
C127 C124 1.414 . S
C127 C126 1.385 . S
C127 C149 1.444 . S
O128 Tb84 2.546 . S
O128 C148 1.251 . S
O129 Tb84 2.610 . S
O129 Tb95 2.362 1_554 S
O129 C140 1.283 . S
O130 Tb95 2.421 . S
O130 C147 1.262 . S
O131 Tb84 2.320 1_556 S
O131 C147 1.260 . S
O132 Tb84 2.552 . S
O132 C140 1.243 . S
O133 Tb84 2.413 . S
O133 C148 1.256 . S
O134 Tb95 2.546 . S
O134 C159 1.251 . S
O135 Tb84 2.362 1_455 S
O135 Tb95 2.610 1_454 S
O135 C151 1.283 . S
O136 Tb84 2.421 . S
O136 C158 1.262 . S
O137 Tb95 2.320 1_554 S
O137 C158 1.260 . S
O138 Tb95 2.552 1_455 S
O138 C151 1.243 1_556 S
O139 Tb95 2.413 1_554 S
O139 C159 1.256 1_554 S
C140 O129 1.283 . S
C140 O132 1.243 . S
C141 C143 1.382 . S
C141 C145 1.393 . S
C141 C148 1.500 . S
C142 C143 1.400 . S
C142 C144 1.384 . S
C143 C141 1.382 . S
C143 C142 1.400 . S
C143 H160 0.930 . S
C144 C142 1.384 . S
C144 C146 1.392 . S
C144 H161 0.931 . S
C145 C141 1.393 . S
C145 C146 1.401 . S
C145 H162 0.930 . S
C146 C144 1.392 . S
C146 C145 1.401 . S
C146 H163 0.930 . S
C147 O130 1.262 . S
C147 O131 1.260 . S
C148 Tb84 2.833 . S
C148 O128 1.251 . S
C148 O133 1.256 . S
C148 C141 1.500 . S
C149 H114 0.929 . S
C149 C127 1.444 . S
C149 C150 1.317 . S
C150 H112 0.930 . S
C150 C118 1.432 . S
C150 C149 1.317 . S
C151 O135 1.283 . S
C151 O138 1.243 1_554 S
C152 C153 1.375 1_656 S
C152 C156 1.394 . S
C152 C159 1.506 . S
C153 C152 1.375 1_454 S
C153 C154 1.400 1_554 S
C153 H164 0.930 . S
C154 C153 1.400 1_556 S
C154 C155 1.384 . S
C155 C154 1.384 . S
C155 C157 1.392 . S
C155 H165 0.931 . S
C156 C152 1.394 . S
C156 C157 1.401 1_655 S
C156 H166 0.930 . S
C157 C155 1.392 . S
C157 C156 1.401 1_455 S
C157 H167 0.930 . S
C158 O136 1.262 . S
C158 O137 1.260 . S
C159 Tb95 2.833 . S
C159 O134 1.251 . S
C159 O139 1.256 1_556 S
C159 C152 1.506 . S
H160 C143 0.930 . S
H161 C144 0.931 . S
H162 C145 0.930 . S
H163 C146 0.930 . S
H164 C153 0.930 . S
H165 C155 0.931 . S
H166 C156 0.930 . S
H167 C157 0.930 . S
Tb168 N199 2.660 . S
Tb168 N206 2.600 . S
Tb168 O212 2.546 . S
Tb168 O213 2.610 1_455 S
Tb168 O215 2.320 . S
Tb168 O216 2.552 1_455 S
Tb168 O217 2.413 . S
Tb168 O219 2.362 . S
Tb168 O220 2.421 . S
Tb168 C232 2.833 . S
C169 C172 1.432 . S
C169 C173 1.414 . S
C169 N176 1.359 . S
C170 C172 1.417 . S
C170 C174 1.432 . S
C170 C182 1.410 . S
C171 C173 1.444 . S
C171 C174 1.317 . S
C171 H194 0.929 . S
C172 C169 1.432 . S
C172 C170 1.417 . S
C172 N180 1.360 . S
C173 C169 1.414 . S
C173 C171 1.444 . S
C173 C178 1.385 . S
C174 C170 1.432 . S
C174 C171 1.317 . S
C174 H186 0.930 . S
C175 C177 1.392 . S
C175 C178 1.370 . S
C175 H187 0.931 . S
N176 C169 1.359 . S
N176 C177 1.327 . S
N176 Tb179 2.600 1_655 S
C177 C175 1.392 . S
C177 N176 1.327 . S
C177 H184 0.930 1_655 S
C178 C173 1.385 . S
C178 C175 1.370 . S
C178 H197 0.930 . S
Tb179 N176 2.600 1_455 S
Tb179 N180 2.660 1_455 S
Tb179 O213 2.362 1_455 S
Tb179 O214 2.421 . S
Tb179 O218 2.546 . S
Tb179 O219 2.610 . S
Tb179 O221 2.320 . S
Tb179 O222 2.552 . S
Tb179 O223 2.413 . S
Tb179 C243 2.833 . S
N180 C172 1.360 . S
N180 Tb179 2.660 1_655 S
N180 C181 1.305 . S
C181 N180 1.305 . S
C181 C183 1.407 . S
C181 H188 0.930 . S
C182 C170 1.410 . S
C182 C183 1.345 . S
C182 H190 0.930 . S
C183 C181 1.407 . S
C183 C182 1.345 . S
C183 H185 0.930 . S
H184 C177 0.930 1_455 S
H185 C183 0.930 . S
H186 C174 0.930 . S
H187 C175 0.931 . S
H188 C181 0.930 . S
H189 C203 0.930 . S
H190 C182 0.930 . S
H191 C209 0.930 . S
H192 C200 0.930 . S
H193 C207 0.931 . S
H194 C171 0.929 . S
H195 C201 0.930 . S
H196 C234 0.930 . S
H197 C178 0.930 . S
H198 C233 0.929 . S
N199 Tb168 2.660 . S
N199 C200 1.305 . S
N199 C204 1.360 . S
C200 H192 0.930 . S
C200 N199 1.305 . S
C200 C203 1.407 . S
C201 H195 0.930 . S
C201 C202 1.410 . S
C201 C203 1.345 . S
C202 C201 1.410 . S
C202 C204 1.417 . S
C202 C234 1.432 . S
C203 H189 0.930 . S
C203 C200 1.407 . S
C203 C201 1.345 . S
C204 N199 1.360 . S
C204 C202 1.417 . S
C204 C208 1.432 . S
H205 C210 0.930 . S
N206 Tb168 2.600 . S
N206 C208 1.359 . S
N206 C209 1.327 . S
C207 H193 0.931 . S
C207 C209 1.392 . S
C207 C210 1.370 . S
C208 C204 1.432 . S
C208 N206 1.359 . S
C208 C211 1.414 . S
C209 H191 0.930 . S
C209 N206 1.327 . S
C209 C207 1.392 . S
C210 H205 0.930 . S
C210 C207 1.370 . S
C210 C211 1.385 . S
C211 C208 1.414 . S
C211 C210 1.385 . S
C211 C233 1.444 . S
O212 Tb168 2.546 . S
O212 C232 1.251 . S
O213 Tb168 2.610 1_655 S
O213 Tb179 2.362 1_655 S
O213 C224 1.283 . S
O214 Tb179 2.421 . S
O214 C231 1.262 . S
O215 Tb168 2.320 . S
O215 C231 1.260 . S
O216 Tb168 2.552 1_655 S
O216 C224 1.243 . S
O217 Tb168 2.413 . S
O217 C232 1.256 . S
O218 Tb179 2.546 . S
O218 C243 1.251 . S
O219 Tb168 2.362 . S
O219 Tb179 2.610 . S
O219 C235 1.283 . S
O220 Tb168 2.421 . S
O220 C242 1.262 . S
O221 Tb179 2.320 . S
O221 C242 1.260 . S
O222 Tb179 2.552 . S
O222 C235 1.243 . S
O223 Tb179 2.413 . S
O223 C243 1.256 . S
C224 O213 1.283 . S
C224 O216 1.243 . S
C225 C227 1.375 1_455 S
C225 C229 1.394 . S
C225 C232 1.506 . S
C226 C227 1.400 . S
C226 C228 1.384 . S
C227 C225 1.375 1_655 S
C227 C226 1.400 . S
C227 H244 0.930 . S
C228 C226 1.384 . S
C228 C230 1.392 . S
C228 H245 0.931 . S
C229 C225 1.394 . S
C229 C230 1.401 1_455 S
C229 H246 0.930 . S
C230 C228 1.392 . S
C230 C229 1.401 1_655 S
C230 H247 0.930 . S
C231 O214 1.262 . S
C231 O215 1.260 . S
C232 Tb168 2.833 . S
C232 O212 1.251 . S
C232 O217 1.256 . S
C232 C225 1.506 . S
C233 H198 0.929 . S
C233 C211 1.444 . S
C233 C234 1.317 . S
C234 H196 0.930 . S
C234 C202 1.432 . S
C234 C233 1.317 . S
C235 O219 1.283 . S
C235 O222 1.243 . S
C236 C237 1.382 . S
C236 C240 1.393 . S
C236 C243 1.500 . S
C237 C236 1.382 . S
C237 C238 1.400 . S
C237 H248 0.930 . S
C238 C237 1.400 . S
C238 C239 1.384 . S
C239 C238 1.384 . S
C239 C241 1.392 . S
C239 H249 0.931 . S
C240 C236 1.393 . S
C240 C241 1.401 . S
C240 H250 0.930 . S
C241 C239 1.392 . S
C241 C240 1.401 . S
C241 H251 0.930 . S
C242 O220 1.262 . S
C242 O221 1.260 . S
C243 Tb179 2.833 . S
C243 O218 1.251 . S
C243 O223 1.256 . S
C243 C236 1.500 . S
H244 C227 0.930 . S
H245 C228 0.931 . S
H246 C229 0.930 . S
H247 C230 0.930 . S
H248 C237 0.930 . S
H249 C239 0.931 . S
H250 C240 0.930 . S
H251 C241 0.930 . S
Tb252 N283 2.660 1_655 S
Tb252 N290 2.600 1_655 S
Tb252 O296 2.546 . S
Tb252 O297 2.610 . S
Tb252 O299 2.320 . S
Tb252 O300 2.552 . S
Tb252 O301 2.413 . S
Tb252 O303 2.362 1_655 S
Tb252 O304 2.421 . S
Tb252 C316 2.833 . S
C253 C256 1.432 . S
C253 C257 1.414 . S
C253 N260 1.359 . S
C254 C256 1.417 . S
C254 C258 1.432 . S
C254 C266 1.410 . S
C255 C257 1.444 . S
C255 C258 1.317 . S
C255 H278 0.929 . S
C256 C253 1.432 . S
C256 C254 1.417 . S
C256 N264 1.360 . S
C257 C253 1.414 . S
C257 C255 1.444 . S
C257 C262 1.385 . S
C258 C254 1.432 . S
C258 C255 1.317 . S
C258 H270 0.930 . S
C259 C261 1.392 . S
C259 C262 1.370 . S
C259 H271 0.931 . S
N260 C253 1.359 . S
N260 C261 1.327 . S
N260 Tb263 2.600 . S
C261 C259 1.392 . S
C261 N260 1.327 . S
C261 H268 0.930 . S
C262 C257 1.385 . S
C262 C259 1.370 . S
C262 H281 0.930 . S
Tb263 N260 2.600 . S
Tb263 N264 2.660 . S
Tb263 O297 2.362 . S
Tb263 O298 2.421 . S
Tb263 O302 2.546 . S
Tb263 O303 2.610 1_655 S
Tb263 O305 2.320 . S
Tb263 O306 2.552 1_655 S
Tb263 O307 2.413 . S
Tb263 C327 2.833 . S
N264 C256 1.360 . S
N264 Tb263 2.660 . S
N264 C265 1.305 . S
C265 N264 1.305 . S
C265 C267 1.407 . S
C265 H272 0.930 . S
C266 C254 1.410 . S
C266 C267 1.345 . S
C266 H274 0.930 . S
C267 C265 1.407 . S
C267 C266 1.345 . S
C267 H269 0.930 . S
H268 C261 0.930 . S
H269 C267 0.930 . S
H270 C258 0.930 . S
H271 C259 0.931 . S
H272 C265 0.930 . S
H273 C287 0.930 . S
H274 C266 0.930 . S
H275 C293 0.930 1_655 S
H276 C284 0.930 . S
H277 C291 0.931 . S
H278 C255 0.929 . S
H279 C285 0.930 . S
H280 C318 0.930 . S
H281 C262 0.930 . S
H282 C317 0.929 . S
N283 Tb252 2.660 1_455 S
N283 C284 1.305 . S
N283 C288 1.360 . S
C284 H276 0.930 . S
C284 N283 1.305 . S
C284 C287 1.407 . S
C285 H279 0.930 . S
C285 C286 1.410 . S
C285 C287 1.345 . S
C286 C285 1.410 . S
C286 C288 1.417 . S
C286 C318 1.432 . S
C287 H273 0.930 . S
C287 C284 1.407 . S
C287 C285 1.345 . S
C288 N283 1.360 . S
C288 C286 1.417 . S
C288 C292 1.432 . S
H289 C294 0.930 . S
N290 Tb252 2.600 1_455 S
N290 C292 1.359 . S
N290 C293 1.327 . S
C291 H277 0.931 . S
C291 C293 1.392 . S
C291 C294 1.370 . S
C292 C288 1.432 . S
C292 N290 1.359 . S
C292 C295 1.414 . S
C293 H275 0.930 1_455 S
C293 N290 1.327 . S
C293 C291 1.392 . S
C294 H289 0.930 . S
C294 C291 1.370 . S
C294 C295 1.385 . S
C295 C292 1.414 . S
C295 C294 1.385 . S
C295 C317 1.444 . S
O296 Tb252 2.546 . S
O296 C316 1.251 . S
O297 Tb252 2.610 . S
O297 Tb263 2.362 . S
O297 C308 1.283 . S
O298 Tb263 2.421 . S
O298 C315 1.262 . S
O299 Tb252 2.320 . S
O299 C315 1.260 . S
O300 Tb252 2.552 . S
O300 C308 1.243 . S
O301 Tb252 2.413 . S
O301 C316 1.256 . S
O302 Tb263 2.546 . S
O302 C327 1.251 . S
O303 Tb252 2.362 1_455 S
O303 Tb263 2.610 1_455 S
O303 C319 1.283 . S
O304 Tb252 2.421 . S
O304 C326 1.262 . S
O305 Tb263 2.320 . S
O305 C326 1.260 . S
O306 Tb263 2.552 1_455 S
O306 C319 1.243 . S
O307 Tb263 2.413 . S
O307 C327 1.256 . S
C308 O297 1.283 . S
C308 O300 1.243 . S
C309 C311 1.382 . S
C309 C313 1.393 . S
C309 C316 1.500 . S
C310 C311 1.400 . S
C310 C312 1.384 . S
C311 C309 1.382 . S
C311 C310 1.400 . S
C311 H328 0.930 . S
C312 C310 1.384 . S
C312 C314 1.392 . S
C312 H329 0.931 . S
C313 C309 1.393 . S
C313 C314 1.401 . S
C313 H330 0.930 . S
C314 C312 1.392 . S
C314 C313 1.401 . S
C314 H331 0.930 . S
C315 O298 1.262 . S
C315 O299 1.260 . S
C316 Tb252 2.833 . S
C316 O296 1.251 . S
C316 O301 1.256 . S
C316 C309 1.500 . S
C317 H282 0.929 . S
C317 C295 1.444 . S
C317 C318 1.317 . S
C318 H280 0.930 . S
C318 C286 1.432 . S
C318 C317 1.317 . S
C319 O303 1.283 . S
C319 O306 1.243 . S
C320 C321 1.375 1_655 S
C320 C324 1.394 . S
C320 C327 1.506 . S
C321 C320 1.375 1_455 S
C321 C322 1.400 . S
C321 H332 0.930 . S
C322 C321 1.400 . S
C322 C323 1.384 . S
C323 C322 1.384 . S
C323 C325 1.392 . S
C323 H333 0.931 . S
C324 C320 1.394 . S
C324 C325 1.401 1_655 S
C324 H334 0.930 . S
C325 C323 1.392 . S
C325 C324 1.401 1_455 S
C325 H335 0.930 . S
C326 O304 1.262 . S
C326 O305 1.260 . S
C327 Tb263 2.833 . S
C327 O302 1.251 . S
C327 O307 1.256 . S
C327 C320 1.506 . S
H328 C311 0.930 . S
H329 C312 0.931 . S
H330 C313 0.930 . S
H331 C314 0.930 . S
H332 C321 0.930 . S
H333 C323 0.931 . S
H334 C324 0.930 . S
H335 C325 0.930 . S
Tb336 N367 2.660 . S
Tb336 N374 2.600 . S
Tb336 O380 2.546 . S
Tb336 O381 2.610 . S
Tb336 O383 2.320 1_554 S
Tb336 O384 2.552 . S
Tb336 O385 2.413 . S
Tb336 O387 2.362 . S
Tb336 O388 2.421 . S
Tb336 C400 2.833 . S
C337 C340 1.432 . S
C337 C341 1.414 . S
C337 N344 1.359 . S
C338 C340 1.417 . S
C338 C342 1.432 . S
C338 C350 1.410 1_556 S
C339 C341 1.444 . S
C339 C342 1.317 . S
C339 H362 0.929 . S
C340 C337 1.432 . S
C340 C338 1.417 . S
C340 N348 1.360 1_556 S
C341 C337 1.414 . S
C341 C339 1.444 . S
C341 C346 1.385 . S
C342 C338 1.432 . S
C342 C339 1.317 . S
C342 H354 0.930 . S
C343 C345 1.392 . S
C343 C346 1.370 . S
C343 H355 0.931 . S
N344 C337 1.359 . S
N344 C345 1.327 . S
N344 Tb347 2.600 . S
C345 C343 1.392 . S
C345 N344 1.327 . S
C345 H352 0.930 . S
C346 C341 1.385 . S
C346 C343 1.370 . S
C346 H365 0.930 . S
Tb347 N344 2.600 . S
Tb347 N348 2.660 1_556 S
Tb347 O381 2.362 1_556 S
Tb347 O382 2.421 . S
Tb347 O386 2.546 . S
Tb347 O387 2.610 1_556 S
Tb347 O389 2.320 1_556 S
Tb347 O390 2.552 . S
Tb347 O391 2.413 1_556 S
Tb347 C411 2.833 . S
N348 C340 1.360 1_554 S
N348 Tb347 2.660 1_554 S
N348 C349 1.305 . S
C349 N348 1.305 . S
C349 C351 1.407 . S
C349 H356 0.930 . S
C350 C338 1.410 1_554 S
C350 C351 1.345 . S
C350 H358 0.930 . S
C351 C349 1.407 . S
C351 C350 1.345 . S
C351 H353 0.930 . S
H352 C345 0.930 . S
H353 C351 0.930 . S
H354 C342 0.930 . S
H355 C343 0.931 . S
H356 C349 0.930 . S
H357 C371 0.930 . S
H358 C350 0.930 . S
H359 C377 0.930 . S
H360 C368 0.930 . S
H361 C375 0.931 . S
H362 C339 0.929 . S
H363 C369 0.930 . S
H364 C402 0.930 . S
H365 C346 0.930 . S
H366 C401 0.929 . S
N367 Tb336 2.660 . S
N367 C368 1.305 1_554 S
N367 C372 1.360 . S
C368 H360 0.930 . S
C368 N367 1.305 1_556 S
C368 C371 1.407 . S
C369 H363 0.930 . S
C369 C370 1.410 1_556 S
C369 C371 1.345 . S
C370 C369 1.410 1_554 S
C370 C372 1.417 . S
C370 C402 1.432 . S
C371 H357 0.930 . S
C371 C368 1.407 . S
C371 C369 1.345 . S
C372 N367 1.360 . S
C372 C370 1.417 . S
C372 C376 1.432 . S
H373 C378 0.930 . S
N374 Tb336 2.600 . S
N374 C376 1.359 . S
N374 C377 1.327 . S
C375 H361 0.931 . S
C375 C377 1.392 . S
C375 C378 1.370 . S
C376 C372 1.432 . S
C376 N374 1.359 . S
C376 C379 1.414 . S
C377 H359 0.930 . S
C377 N374 1.327 . S
C377 C375 1.392 . S
C378 H373 0.930 . S
C378 C375 1.370 . S
C378 C379 1.385 . S
C379 C376 1.414 . S
C379 C378 1.385 . S
C379 C401 1.444 . S
O380 Tb336 2.546 . S
O380 C400 1.251 . S
O381 Tb336 2.610 . S
O381 Tb347 2.362 1_554 S
O381 C392 1.283 . S
O382 Tb347 2.421 . S
O382 C399 1.262 . S
O383 Tb336 2.320 1_556 S
O383 C399 1.260 . S
O384 Tb336 2.552 . S
O384 C392 1.243 . S
O385 Tb336 2.413 . S
O385 C400 1.256 . S
O386 Tb347 2.546 . S
O386 C411 1.251 . S
O387 Tb336 2.362 . S
O387 Tb347 2.610 1_554 S
O387 C403 1.283 . S
O388 Tb336 2.421 . S
O388 C410 1.262 . S
O389 Tb347 2.320 1_554 S
O389 C410 1.260 . S
O390 Tb347 2.552 . S
O390 C403 1.243 1_556 S
O391 Tb347 2.413 1_554 S
O391 C411 1.256 1_554 S
C392 O381 1.283 . S
C392 O384 1.243 . S
C393 C395 1.382 . S
C393 C397 1.393 . S
C393 C400 1.500 . S
C394 C395 1.400 . S
C394 C396 1.384 . S
C395 C393 1.382 . S
C395 C394 1.400 . S
C395 H412 0.937 . S
C396 C394 1.384 . S
C396 C398 1.392 . S
C396 H413 0.931 . S
C397 C393 1.393 . S
C397 C398 1.401 . S
C397 H414 0.930 . S
C398 C396 1.392 . S
C398 C397 1.401 . S
C398 H415 0.930 . S
C399 O382 1.262 . S
C399 O383 1.260 . S
C400 Tb336 2.833 . S
C400 O380 1.251 . S
C400 O385 1.256 . S
C400 C393 1.500 . S
C401 H366 0.929 . S
C401 C379 1.444 . S
C401 C402 1.317 . S
C402 H364 0.930 . S
C402 C370 1.432 . S
C402 C401 1.317 . S
C403 O387 1.283 . S
C403 O390 1.243 1_554 S
C404 C405 1.382 . S
C404 C408 1.393 . S
C404 C411 1.500 . S
C405 C404 1.382 . S
C405 C406 1.400 . S
C405 H416 0.930 1_556 S
C406 C405 1.400 . S
C406 C407 1.384 . S
C407 C406 1.384 . S
C407 C409 1.392 . S
C407 H417 0.931 . S
C408 C404 1.393 . S
C408 C409 1.401 . S
C408 H418 0.930 . S
C409 C407 1.392 . S
C409 C408 1.401 . S
C409 H419 0.930 . S
C410 O388 1.262 . S
C410 O389 1.260 . S
C411 Tb347 2.833 . S
C411 O386 1.251 . S
C411 O391 1.256 1_556 S
C411 C404 1.500 . S
H412 C395 0.937 . S
H413 C396 0.931 . S
H414 C397 0.930 . S
H415 C398 0.930 . S
H416 C405 0.930 1_554 S
H417 C407 0.931 . S
H418 C408 0.930 . S
H419 C409 0.930 . S
Tb420 N451 2.660 . S
Tb420 N458 2.600 . S
Tb420 O464 2.546 . S
Tb420 O465 2.610 . S
Tb420 O467 2.320 1_554 S
Tb420 O468 2.552 . S
Tb420 O469 2.413 . S
Tb420 O471 2.362 . S
Tb420 O472 2.421 . S
Tb420 C484 2.833 . S
C421 C424 1.432 . S
C421 C425 1.414 . S
C421 N428 1.359 . S
C422 C424 1.417 . S
C422 C426 1.432 . S
C422 C434 1.410 1_556 S
C423 C425 1.444 . S
C423 C426 1.317 . S
C423 H446 0.929 . S
C424 C421 1.432 . S
C424 C422 1.417 . S
C424 N432 1.360 1_556 S
C425 C421 1.414 . S
C425 C423 1.444 . S
C425 C430 1.385 . S
C426 C422 1.432 . S
C426 C423 1.317 . S
C426 H438 0.930 . S
C427 C429 1.392 . S
C427 C430 1.370 . S
C427 H439 0.931 . S
N428 C421 1.359 . S
N428 C429 1.327 . S
N428 Tb431 2.600 . S
C429 C427 1.392 . S
C429 N428 1.327 . S
C429 H436 0.930 . S
C430 C425 1.385 . S
C430 C427 1.370 . S
C430 H449 0.930 . S
Tb431 N428 2.600 . S
Tb431 N432 2.660 1_556 S
Tb431 O465 2.362 1_556 S
Tb431 O466 2.421 . S
Tb431 O470 2.546 . S
Tb431 O471 2.610 1_556 S
Tb431 O473 2.320 1_556 S
Tb431 O474 2.552 . S
Tb431 O475 2.413 1_556 S
Tb431 C495 2.833 . S
N432 C424 1.360 1_554 S
N432 Tb431 2.660 1_554 S
N432 C433 1.305 . S
C433 N432 1.305 . S
C433 C435 1.407 . S
C433 H440 0.930 . S
C434 C422 1.410 1_554 S
C434 C435 1.345 . S
C434 H442 0.930 . S
C435 C433 1.407 . S
C435 C434 1.345 . S
C435 H437 0.930 . S
H436 C429 0.930 . S
H437 C435 0.930 . S
H438 C426 0.930 . S
H439 C427 0.931 . S
H440 C433 0.930 . S
H441 C455 0.930 . S
H442 C434 0.930 . S
H443 C461 0.930 . S
H444 C452 0.930 . S
H445 C459 0.931 . S
H446 C423 0.929 . S
H447 C453 0.930 1_556 S
H448 C486 0.930 . S
H449 C430 0.930 . S
H450 C485 0.929 . S
N451 Tb420 2.660 . S
N451 C452 1.305 1_554 S
N451 C456 1.360 . S
C452 H444 0.930 . S
C452 N451 1.305 1_556 S
C452 C455 1.407 . S
C453 H447 0.930 1_554 S
C453 C454 1.410 . S
C453 C455 1.345 1_554 S
C454 C453 1.410 . S
C454 C456 1.417 . S
C454 C486 1.432 . S
C455 H441 0.930 . S
C455 C452 1.407 . S
C455 C453 1.345 1_556 S
C456 N451 1.360 . S
C456 C454 1.417 . S
C456 C460 1.432 . S
H457 C462 0.930 . S
N458 Tb420 2.600 . S
N458 C460 1.359 . S
N458 C461 1.327 . S
C459 H445 0.931 . S
C459 C461 1.392 . S
C459 C462 1.370 . S
C460 C456 1.432 . S
C460 N458 1.359 . S
C460 C463 1.414 . S
C461 H443 0.930 . S
C461 N458 1.327 . S
C461 C459 1.392 . S
C462 H457 0.930 . S
C462 C459 1.370 . S
C462 C463 1.385 . S
C463 C460 1.414 . S
C463 C462 1.385 . S
C463 C485 1.444 . S
O464 Tb420 2.546 . S
O464 C484 1.251 . S
O465 Tb420 2.610 . S
O465 Tb431 2.362 1_554 S
O465 C476 1.283 . S
O466 Tb431 2.421 . S
O466 C483 1.262 . S
O467 Tb420 2.320 1_556 S
O467 C483 1.260 . S
O468 Tb420 2.552 . S
O468 C476 1.243 . S
O469 Tb420 2.413 . S
O469 C484 1.256 . S
O470 Tb431 2.546 . S
O470 C495 1.251 . S
O471 Tb420 2.362 . S
O471 Tb431 2.610 1_554 S
O471 C487 1.283 . S
O472 Tb420 2.421 . S
O472 C494 1.262 . S
O473 Tb431 2.320 1_554 S
O473 C494 1.260 . S
O474 Tb431 2.552 . S
O474 C487 1.243 1_556 S
O475 Tb431 2.413 1_554 S
O475 C495 1.256 1_554 S
C476 O465 1.283 . S
C476 O468 1.243 . S
C477 C479 1.382 . S
C477 C481 1.393 . S
C477 C484 1.500 . S
C478 C479 1.400 . S
C478 C480 1.384 . S
C479 C477 1.382 . S
C479 C478 1.400 . S
C479 H496 0.930 . S
C480 C478 1.384 . S
C480 C482 1.392 . S
C480 H497 0.931 . S
C481 C477 1.393 . S
C481 C482 1.401 . S
C481 H498 0.930 . S
C482 C480 1.392 . S
C482 C481 1.401 . S
C482 H499 0.930 . S
C483 O466 1.262 . S
C483 O467 1.260 . S
C484 Tb420 2.833 . S
C484 O464 1.251 . S
C484 O469 1.256 . S
C484 C477 1.500 . S
C485 H450 0.929 . S
C485 C463 1.444 . S
C485 C486 1.317 . S
C486 H448 0.930 . S
C486 C454 1.432 . S
C486 C485 1.317 . S
C487 O471 1.283 . S
C487 O474 1.243 1_554 S
C488 C489 1.382 1_556 S
C488 C492 1.393 . S
C488 C495 1.500 . S
C489 C488 1.382 1_554 S
C489 C490 1.400 1_554 S
C489 H500 0.930 . S
C490 C489 1.400 1_556 S
C490 C491 1.384 . S
C491 C490 1.384 . S
C491 C493 1.392 . S
C491 H501 0.931 . S
C492 C488 1.393 . S
C492 C493 1.401 . S
C492 H502 0.930 . S
C493 C491 1.392 . S
C493 C492 1.401 . S
C493 H503 0.930 . S
C494 O472 1.262 . S
C494 O473 1.260 . S
C495 Tb431 2.833 . S
C495 O470 1.251 . S
C495 O475 1.256 1_556 S
C495 C488 1.500 . S
H496 C479 0.930 . S
H497 C480 0.931 . S
H498 C481 0.930 . S
H499 C482 0.930 . S
H500 C489 0.930 . S
H501 C491 0.931 . S
H502 C492 0.930 . S
H503 C493 0.930 . S
Tb504 N535 2.660 . S
Tb504 N542 2.600 . S
Tb504 O548 2.546 . S
Tb504 O549 2.610 . S
Tb504 O551 2.320 . S
Tb504 O552 2.552 . S
Tb504 O553 2.413 . S
Tb504 O555 2.362 . S
Tb504 O556 2.421 . S
Tb504 C568 2.833 . S
C505 C508 1.432 . S
C505 C509 1.414 . S
C505 N512 1.359 . S
C506 C508 1.417 . S
C506 C510 1.432 . S
C506 C518 1.410 . S
C507 C509 1.444 . S
C507 C510 1.317 . S
C507 H530 0.929 . S
C508 C505 1.432 . S
C508 C506 1.417 . S
C508 N516 1.360 . S
C509 C505 1.414 . S
C509 C507 1.444 . S
C509 C514 1.385 . S
C510 C506 1.432 . S
C510 C507 1.317 . S
C510 H522 0.930 . S
C511 C513 1.392 . S
C511 C514 1.370 . S
C511 H523 0.931 . S
N512 C505 1.359 . S
N512 C513 1.327 . S
N512 Tb515 2.600 . S
C513 C511 1.392 . S
C513 N512 1.327 . S
C513 H520 0.930 . S
C514 C509 1.385 . S
C514 C511 1.370 . S
C514 H533 0.930 . S
Tb515 N512 2.600 . S
Tb515 N516 2.660 . S
Tb515 O549 2.362 . S
Tb515 O550 2.421 . S
Tb515 O554 2.546 . S
Tb515 O555 2.610 . S
Tb515 O557 2.320 . S
Tb515 O558 2.552 . S
Tb515 O559 2.413 . S
Tb515 C579 2.833 . S
N516 C508 1.360 . S
N516 Tb515 2.660 . S
N516 C517 1.305 . S
C517 N516 1.305 . S
C517 C519 1.407 . S
C517 H524 0.930 . S
C518 C506 1.410 . S
C518 C519 1.345 . S
C518 H526 0.930 . S
C519 C517 1.407 . S
C519 C518 1.345 . S
C519 H521 0.930 . S
H520 C513 0.930 . S
H521 C519 0.930 . S
H522 C510 0.930 . S
H523 C511 0.931 . S
H524 C517 0.930 . S
H525 C539 0.930 . S
H526 C518 0.930 . S
H527 C545 0.930 . S
H528 C536 0.930 . S
H529 C543 0.931 . S
H530 C507 0.929 . S
H531 C537 0.930 . S
H532 C570 0.930 . S
H533 C514 0.930 . S
H534 C569 0.929 . S
N535 Tb504 2.660 . S
N535 C536 1.305 . S
N535 C540 1.360 . S
C536 H528 0.930 . S
C536 N535 1.305 . S
C536 C539 1.407 . S
C537 H531 0.930 . S
C537 C538 1.410 . S
C537 C539 1.345 . S
C538 C537 1.410 . S
C538 C540 1.417 . S
C538 C570 1.432 . S
C539 H525 0.930 . S
C539 C536 1.407 . S
C539 C537 1.345 . S
C540 N535 1.360 . S
C540 C538 1.417 . S
C540 C544 1.432 . S
H541 C546 0.930 . S
N542 Tb504 2.600 . S
N542 C544 1.359 . S
N542 C545 1.327 . S
C543 H529 0.931 . S
C543 C545 1.392 . S
C543 C546 1.370 . S
C544 C540 1.432 . S
C544 N542 1.359 . S
C544 C547 1.414 . S
C545 H527 0.930 . S
C545 N542 1.327 . S
C545 C543 1.392 . S
C546 H541 0.930 . S
C546 C543 1.370 . S
C546 C547 1.385 . S
C547 C544 1.414 . S
C547 C546 1.385 . S
C547 C569 1.444 . S
O548 Tb504 2.546 . S
O548 C568 1.251 . S
O549 Tb504 2.610 . S
O549 Tb515 2.362 . S
O549 C560 1.283 . S
O550 Tb515 2.421 . S
O550 C567 1.262 . S
O551 Tb504 2.320 . S
O551 C567 1.260 . S
O552 Tb504 2.552 . S
O552 C560 1.243 . S
O553 Tb504 2.413 . S
O553 C568 1.256 . S
O554 Tb515 2.546 . S
O554 C579 1.251 . S
O555 Tb504 2.362 . S
O555 Tb515 2.610 . S
O555 C571 1.283 . S
O556 Tb504 2.421 . S
O556 C578 1.262 . S
O557 Tb515 2.320 . S
O557 C578 1.260 . S
O558 Tb515 2.552 . S
O558 C571 1.243 . S
O559 Tb515 2.413 . S
O559 C579 1.256 . S
C560 O549 1.283 . S
C560 O552 1.243 . S
C561 C563 1.382 . S
C561 C565 1.393 . S
C561 C568 1.500 . S
C562 C563 1.400 . S
C562 C564 1.384 . S
C563 C561 1.382 . S
C563 C562 1.400 . S
C563 H580 0.930 . S
C564 C562 1.384 . S
C564 C566 1.392 . S
C564 H581 0.931 . S
C565 C561 1.393 . S
C565 C566 1.401 . S
C565 H582 0.930 . S
C566 C564 1.392 . S
C566 C565 1.401 . S
C566 H583 0.930 . S
C567 O550 1.262 . S
C567 O551 1.260 . S
C568 Tb504 2.833 . S
C568 O548 1.251 . S
C568 O553 1.256 . S
C568 C561 1.500 . S
C569 H534 0.929 . S
C569 C547 1.444 . S
C569 C570 1.317 . S
C570 H532 0.930 . S
C570 C538 1.432 . S
C570 C569 1.317 . S
C571 O555 1.283 . S
C571 O558 1.243 . S
C572 C573 1.382 . S
C572 C576 1.393 . S
C572 C579 1.500 . S
C573 C572 1.382 . S
C573 C574 1.400 . S
C573 H584 0.930 . S
C574 C573 1.400 . S
C574 C575 1.384 . S
C575 C574 1.384 . S
C575 C577 1.392 . S
C575 H585 0.931 . S
C576 C572 1.393 . S
C576 C577 1.401 . S
C576 H586 0.930 . S
C577 C575 1.392 . S
C577 C576 1.401 . S
C577 H587 0.930 . S
C578 O556 1.262 . S
C578 O557 1.260 . S
C579 Tb515 2.833 . S
C579 O554 1.251 . S
C579 O559 1.256 . S
C579 C572 1.500 . S
H580 C563 0.930 . S
H581 C564 0.931 . S
H582 C565 0.930 . S
H583 C566 0.930 . S
H584 C573 0.930 . S
H585 C575 0.931 . S
H586 C576 0.930 . S
H587 C577 0.930 . S
Tb588 N619 2.660 . S
Tb588 N626 2.600 . S
Tb588 O632 2.546 . S
Tb588 O633 2.610 . S
Tb588 O635 2.320 . S
Tb588 O636 2.552 . S
Tb588 O637 2.413 . S
Tb588 O639 2.362 . S
Tb588 O640 2.421 . S
Tb588 C652 2.833 . S
C589 C592 1.432 . S
C589 C593 1.414 . S
C589 N596 1.359 . S
C590 C592 1.417 . S
C590 C594 1.432 . S
C590 C602 1.410 . S
C591 C593 1.444 . S
C591 C594 1.317 . S
C591 H614 0.929 . S
C592 C589 1.432 . S
C592 C590 1.417 . S
C592 N600 1.360 . S
C593 C589 1.414 . S
C593 C591 1.444 . S
C593 C598 1.385 . S
C594 C590 1.432 . S
C594 C591 1.317 . S
C594 H606 0.930 . S
C595 C597 1.392 . S
C595 C598 1.370 . S
C595 H607 0.931 . S
N596 C589 1.359 . S
N596 C597 1.327 . S
N596 Tb599 2.600 . S
C597 C595 1.392 . S
C597 N596 1.327 . S
C597 H604 0.930 . S
C598 C593 1.385 . S
C598 C595 1.370 . S
C598 H617 0.930 . S
Tb599 N596 2.600 . S
Tb599 N600 2.660 . S
Tb599 O633 2.362 . S
Tb599 O634 2.421 . S
Tb599 O638 2.546 . S
Tb599 O639 2.610 . S
Tb599 O641 2.320 . S
Tb599 O642 2.552 . S
Tb599 O643 2.413 . S
Tb599 C663 2.833 . S
N600 C592 1.360 . S
N600 Tb599 2.660 . S
N600 C601 1.305 . S
C601 N600 1.305 . S
C601 C603 1.407 . S
C601 H608 0.930 . S
C602 C590 1.410 . S
C602 C603 1.345 . S
C602 H610 0.930 . S
C603 C601 1.407 . S
C603 C602 1.345 . S
C603 H605 0.930 . S
H604 C597 0.930 . S
H605 C603 0.930 . S
H606 C594 0.930 . S
H607 C595 0.931 . S
H608 C601 0.930 . S
H609 C623 0.930 . S
H610 C602 0.930 . S
H611 C629 0.930 . S
H612 C620 0.930 . S
H613 C627 0.931 . S
H614 C591 0.929 . S
H615 C621 0.930 . S
H616 C654 0.930 . S
H617 C598 0.930 . S
H618 C653 0.929 . S
N619 Tb588 2.660 . S
N619 C620 1.305 . S
N619 C624 1.360 . S
C620 H612 0.930 . S
C620 N619 1.305 . S
C620 C623 1.407 . S
C621 H615 0.930 . S
C621 C622 1.410 . S
C621 C623 1.345 . S
C622 C621 1.410 . S
C622 C624 1.417 . S
C622 C654 1.432 . S
C623 H609 0.930 . S
C623 C620 1.407 . S
C623 C621 1.345 . S
C624 N619 1.360 . S
C624 C622 1.417 . S
C624 C628 1.432 . S
H625 C630 0.930 . S
N626 Tb588 2.600 . S
N626 C628 1.359 . S
N626 C629 1.327 . S
C627 H613 0.931 . S
C627 C629 1.392 . S
C627 C630 1.370 . S
C628 C624 1.432 . S
C628 N626 1.359 . S
C628 C631 1.414 . S
C629 H611 0.930 . S
C629 N626 1.327 . S
C629 C627 1.392 . S
C630 H625 0.930 . S
C630 C627 1.370 . S
C630 C631 1.385 . S
C631 C628 1.414 . S
C631 C630 1.385 . S
C631 C653 1.444 . S
O632 Tb588 2.546 . S
O632 C652 1.251 . S
O633 Tb588 2.610 . S
O633 Tb599 2.362 . S
O633 C644 1.283 . S
O634 Tb599 2.421 . S
O634 C651 1.262 . S
O635 Tb588 2.320 . S
O635 C651 1.260 . S
O636 Tb588 2.552 . S
O636 C644 1.243 . S
O637 Tb588 2.413 . S
O637 C652 1.256 . S
O638 Tb599 2.546 . S
O638 C663 1.251 . S
O639 Tb588 2.362 . S
O639 Tb599 2.610 . S
O639 C655 1.283 . S
O640 Tb588 2.421 . S
O640 C662 1.262 . S
O641 Tb599 2.320 . S
O641 C662 1.260 . S
O642 Tb599 2.552 . S
O642 C655 1.243 . S
O643 Tb599 2.413 . S
O643 C663 1.256 . S
C644 O633 1.283 . S
C644 O636 1.243 . S
C645 C647 1.382 . S
C645 C649 1.393 . S
C645 C652 1.500 . S
C646 C647 1.400 . S
C646 C648 1.384 . S
C647 C645 1.382 . S
C647 C646 1.400 . S
C647 H664 0.930 . S
C648 C646 1.384 . S
C648 C650 1.392 . S
C648 H665 0.931 . S
C649 C645 1.393 . S
C649 C650 1.401 . S
C649 H666 0.930 . S
C650 C648 1.392 . S
C650 C649 1.401 . S
C650 H667 0.930 . S
C651 O634 1.262 . S
C651 O635 1.260 . S
C652 Tb588 2.833 . S
C652 O632 1.251 . S
C652 O637 1.256 . S
C652 C645 1.500 . S
C653 H618 0.929 . S
C653 C631 1.444 . S
C653 C654 1.317 . S
C654 H616 0.930 . S
C654 C622 1.432 . S
C654 C653 1.317 . S
C655 O639 1.283 . S
C655 O642 1.243 . S
C656 C657 1.382 . S
C656 C660 1.393 . S
C656 C663 1.500 . S
C657 C656 1.382 . S
C657 C658 1.400 . S
C657 H668 0.930 . S
C658 C657 1.400 . S
C658 C659 1.384 . S
C659 C658 1.384 . S
C659 C661 1.392 . S
C659 H669 0.931 . S
C660 C656 1.393 . S
C660 C661 1.401 . S
C660 H670 0.930 . S
C661 C659 1.392 . S
C661 C660 1.401 . S
C661 H671 0.930 . S
C662 O640 1.262 . S
C662 O641 1.260 . S
C663 Tb599 2.833 . S
C663 O638 1.251 . S
C663 O643 1.256 . S
C663 C656 1.500 . S
H664 C647 0.930 . S
H665 C648 0.931 . S
H666 C649 0.930 . S
H667 C650 0.930 . S
H668 C657 0.930 . S
H669 C659 0.931 . S
H670 C660 0.930 . S
H671 C661 0.930 . S
H672 C680 0.929 . S
H673 C682 0.930 . S
H674 C684 0.930 . S
H675 C687 0.929 . S
H676 C690 0.930 . S
H677 C692 0.960 . S
H678 C692 0.960 . S
H679 C692 0.960 . S
C680 H672 0.929 . S
C680 C681 1.377 . S
C680 C682 1.384 . S
C681 C680 1.377 . S
C681 C687 1.390 1_554 S
C682 H673 0.930 . S
C682 C680 1.384 . S
C682 C683 1.372 . S
C683 C682 1.372 . S
C683 C684 1.400 1_554 S
C683 C688 1.490 . S
C684 H674 0.930 . S
C684 C683 1.400 1_556 S
C684 C687 1.386 . S
H685 C701 0.930 . S
H686 C702 0.931 . S
C687 H675 0.929 . S
C687 C681 1.390 1_556 S
C687 C684 1.386 . S
C688 C683 1.490 . S
C688 C690 1.395 1_554 S
C688 C691 1.403 . S
H689 C695 0.930 . S
C690 H676 0.930 . S
C690 C688 1.395 1_556 S
C690 C693 1.403 . S
C691 C688 1.403 . S
C691 C692 1.524 . S
C691 C695 1.400 . S
C692 H677 0.960 . S
C692 H678 0.960 . S
C692 H679 0.960 . S
C692 C691 1.524 . S
C693 C690 1.403 . S
C693 C694 1.392 1_556 S
C693 C697 1.495 . S
C694 C693 1.392 1_554 S
C694 C695 1.385 . S
C694 C696 1.478 . S
C695 H689 0.930 . S
C695 C691 1.400 . S
C695 C694 1.385 . S
C696 C694 1.478 . S
C696 C698 1.381 . S
C696 C702 1.383 1_554 S
C697 C693 1.495 . S
C697 H703 0.959 . S
C697 H704 0.961 . S
C697 H705 0.960 . S
C698 C696 1.381 . S
C698 C699 1.394 . S
C698 H706 0.930 . S
C699 C698 1.394 . S
C699 C700 1.406 . S
C699 H707 0.929 . S
C700 C699 1.406 . S
C700 C701 1.357 1_554 S
C701 H685 0.930 . S
C701 C700 1.357 1_556 S
C701 C702 1.379 . S
C702 H686 0.931 . S
C702 C696 1.383 1_556 S
C702 C701 1.379 . S
H703 C697 0.959 . S
H704 C697 0.961 . S
H705 C697 0.960 . S
H706 C698 0.930 . S
H707 C699 0.929 . S
H708 C716 0.929 . S
H709 C718 0.930 . S
H710 C720 0.930 . S
H711 C723 0.929 . S
H712 C726 0.930 . S
H713 C728 0.960 . S
H714 C728 0.960 1_556 S
H715 C728 0.960 . S
C716 H708 0.929 . S
C716 C717 1.377 1_556 S
C716 C718 1.384 . S
C717 C716 1.377 1_554 S
C717 C723 1.390 . S
C718 H709 0.930 . S
C718 C716 1.384 . S
C718 C719 1.372 1_556 S
C719 C718 1.372 1_554 S
C719 C720 1.400 . S
C719 C724 1.490 . S
C720 H710 0.930 . S
C720 C719 1.400 . S
C720 C723 1.386 . S
H721 C737 0.930 . S
H722 C738 0.931 . S
C723 H711 0.929 . S
C723 C717 1.390 . S
C723 C720 1.386 . S
C724 C719 1.490 . S
C724 C726 1.395 . S
C724 C727 1.403 . S
H725 C731 0.930 . S
C726 H712 0.930 . S
C726 C724 1.395 . S
C726 C729 1.403 . S
C727 C724 1.403 . S
C727 C728 1.524 . S
C727 C731 1.400 . S
C728 H713 0.960 . S
C728 H714 0.960 1_554 S
C728 H715 0.960 . S
C728 C727 1.524 . S
C729 C726 1.403 . S
C729 C730 1.392 . S
C729 C733 1.495 . S
C730 C729 1.392 . S
C730 C731 1.385 . S
C730 C732 1.478 . S
C731 H725 0.930 . S
C731 C727 1.400 . S
C731 C730 1.385 . S
C732 C730 1.478 . S
C732 C734 1.381 1_554 S
C732 C738 1.383 . S
C733 C729 1.495 . S
C733 H739 0.959 . S
C733 H740 0.961 . S
C733 H741 0.960 1_554 S
C734 C732 1.381 1_556 S
C734 C735 1.394 . S
C734 H742 0.930 . S
C735 C734 1.394 . S
C735 C736 1.383 1_556 S
C735 H743 0.929 . S
C736 C735 1.383 1_554 S
C736 C737 1.377 . S
C737 H721 0.930 . S
C737 C736 1.377 . S
C737 C738 1.379 . S
C738 H722 0.931 . S
C738 C732 1.383 . S
C738 C737 1.379 . S
H739 C733 0.959 . S
H740 C733 0.961 . S
H741 C733 0.960 1_556 S
H742 C734 0.930 . S
H743 C735 0.929 . S
H744 C752 0.929 . S
H745 C754 0.930 . S
H746 C756 0.930 . S
H747 C759 0.929 . S
H748 C762 0.930 . S
H749 C764 0.960 . S
H750 C764 0.960 . S
H751 C764 0.960 . S
C752 H744 0.929 . S
C752 C753 1.377 . S
C752 C754 1.384 . S
C753 C752 1.377 . S
C753 C759 1.390 . S
C754 H745 0.930 . S
C754 C752 1.384 . S
C754 C755 1.372 . S
C755 C754 1.372 . S
C755 C756 1.400 . S
C755 C760 1.490 . S
C756 H746 0.930 . S
C756 C755 1.400 . S
C756 C759 1.386 . S
H757 C773 0.930 . S
H758 C774 0.931 . S
C759 H747 0.929 . S
C759 C753 1.390 . S
C759 C756 1.386 . S
C760 C755 1.490 . S
C760 C762 1.395 . S
C760 C763 1.403 . S
H761 C767 0.930 . S
C762 H748 0.930 . S
C762 C760 1.395 . S
C762 C765 1.403 . S
C763 C760 1.403 . S
C763 C764 1.524 . S
C763 C767 1.400 . S
C764 H749 0.960 . S
C764 H750 0.960 . S
C764 H751 0.960 . S
C764 C763 1.524 . S
C765 C762 1.403 . S
C765 C766 1.392 . S
C765 C769 1.495 . S
C766 C765 1.392 . S
C766 C767 1.385 . S
C766 C768 1.478 . S
C767 H761 0.930 . S
C767 C763 1.400 . S
C767 C766 1.385 . S
C768 C766 1.478 . S
C768 C770 1.381 . S
C768 C774 1.383 . S
C769 C765 1.495 . S
C769 H775 0.959 . S
C769 H776 0.961 . S
C769 H777 0.960 . S
C770 C768 1.381 . S
C770 C771 1.394 . S
C770 H778 0.930 . S
C771 C770 1.394 . S
C771 C772 1.383 . S
C771 H779 0.929 . S
C772 C771 1.383 . S
C772 C773 1.377 . S
C773 H757 0.930 . S
C773 C772 1.377 . S
C773 C774 1.379 . S
C774 H758 0.931 . S
C774 C768 1.383 . S
C774 C773 1.379 . S
H775 C769 0.959 . S
H776 C769 0.961 . S
H777 C769 0.960 . S
H778 C770 0.930 . S
H779 C771 0.929 . S
H780 C788 0.929 . S
H781 C790 0.930 . S
H782 C792 0.930 . S
H783 C795 0.929 . S
H784 C798 0.930 . S
H785 C800 0.960 . S
H786 C800 0.960 . S
H787 C800 0.960 . S
C788 H780 0.929 . S
C788 C789 1.377 . S
C788 C790 1.384 . S
C789 C788 1.377 . S
C789 C795 1.390 . S
C790 H781 0.930 . S
C790 C788 1.384 . S
C790 C791 1.372 . S
C791 C790 1.372 . S
C791 C792 1.400 . S
C791 C796 1.490 . S
C792 H782 0.930 . S
C792 C791 1.400 . S
C792 C795 1.386 . S
H793 C809 0.930 . S
H794 C810 0.931 . S
C795 H783 0.929 . S
C795 C789 1.390 . S
C795 C792 1.386 . S
C796 C791 1.490 . S
C796 C798 1.395 . S
C796 C799 1.403 . S
H797 C803 0.930 . S
C798 H784 0.930 . S
C798 C796 1.395 . S
C798 C801 1.403 . S
C799 C796 1.403 . S
C799 C800 1.524 . S
C799 C803 1.400 . S
C800 H785 0.960 . S
C800 H786 0.960 . S
C800 H787 0.960 . S
C800 C799 1.524 . S
C801 C798 1.403 . S
C801 C802 1.392 . S
C801 C805 1.495 . S
C802 C801 1.392 . S
C802 C803 1.385 . S
C802 C804 1.478 . S
C803 H797 0.930 . S
C803 C799 1.400 . S
C803 C802 1.385 . S
C804 C802 1.478 . S
C804 C806 1.381 . S
C804 C810 1.383 . S
C805 C801 1.495 . S
C805 H811 0.959 . S
C805 H812 0.961 . S
C805 H813 0.960 . S
C806 C804 1.381 . S
C806 C807 1.394 . S
C806 H814 0.930 . S
C807 C806 1.394 . S
C807 C808 1.383 . S
C807 H815 0.929 . S
C808 C807 1.383 . S
C808 C809 1.377 . S
C809 H793 0.930 . S
C809 C808 1.377 . S
C809 C810 1.379 . S
C810 H794 0.931 . S
C810 C804 1.383 . S
C810 C809 1.379 . S
H811 C805 0.959 . S
H812 C805 0.961 . S
H813 C805 0.960 . S
H814 C806 0.930 . S
H815 C807 0.929 . S
H816 C824 0.929 . S
H817 C826 0.930 . S
H818 C828 0.930 . S
H819 C831 0.929 . S
H820 C834 0.930 1_655 S
H821 C836 0.960 . S
H822 C836 0.960 1_655 S
H823 C836 0.960 1_655 S
C824 H816 0.929 . S
C824 C825 1.377 1_556 S
C824 C826 1.384 . S
C825 C824 1.377 1_554 S
C825 C831 1.390 . S
C826 H817 0.930 . S
C826 C824 1.384 . S
C826 C827 1.372 1_556 S
C827 C826 1.372 1_554 S
C827 C828 1.400 . S
C827 C832 1.490 . S
C828 H818 0.930 . S
C828 C827 1.400 . S
C828 C831 1.386 . S
H829 C845 0.930 . S
H830 C846 0.931 . S
C831 H819 0.929 . S
C831 C825 1.390 . S
C831 C828 1.386 . S
C832 C827 1.490 . S
C832 C834 1.395 1_654 S
C832 C835 1.403 1_655 S
H833 C839 0.930 . S
C834 H820 0.930 1_455 S
C834 C832 1.395 1_456 S
C834 C837 1.403 . S
C835 C832 1.403 1_455 S
C835 C836 1.524 . S
C835 C839 1.400 . S
C836 H821 0.960 . S
C836 H822 0.960 1_455 S
C836 H823 0.960 1_455 S
C836 C835 1.524 . S
C837 C834 1.403 . S
C837 C838 1.392 1_556 S
C837 C841 1.495 . S
C838 C837 1.392 1_554 S
C838 C839 1.385 . S
C838 C840 1.478 . S
C839 H833 0.930 . S
C839 C835 1.400 . S
C839 C838 1.385 . S
C840 C838 1.478 . S
C840 C842 1.381 1_554 S
C840 C846 1.383 . S
C841 C837 1.495 . S
C841 H847 0.959 . S
C841 H848 0.961 . S
C841 H849 0.960 . S
C842 C840 1.381 1_556 S
C842 C843 1.394 . S
C842 H850 0.930 . S
C843 C842 1.394 . S
C843 C844 1.383 1_556 S
C843 H851 0.929 . S
C844 C843 1.383 1_554 S
C844 C845 1.377 . S
C845 H829 0.930 . S
C845 C844 1.377 . S
C845 C846 1.379 . S
C846 H830 0.931 . S
C846 C840 1.383 . S
C846 C845 1.379 . S
H847 C841 0.959 . S
H848 C841 0.961 . S
H849 C841 0.960 . S
H850 C842 0.930 . S
H851 C843 0.929 . S
H852 C860 0.929 . S
H853 C862 0.930 . S
H854 C864 0.930 . S
H855 C867 0.929 . S
H856 C870 0.930 1_455 S
H857 C872 0.960 . S
H858 C872 0.960 1_455 S
H859 C872 0.960 1_455 S
C860 H852 0.929 . S
C860 C861 1.377 1_556 S
C860 C862 1.384 . S
C861 C860 1.377 1_554 S
C861 C867 1.390 . S
C862 H853 0.930 . S
C862 C860 1.384 . S
C862 C863 1.372 1_556 S
C863 C862 1.372 1_554 S
C863 C864 1.400 . S
C863 C868 1.490 . S
C864 H854 0.930 . S
C864 C863 1.400 . S
C864 C867 1.386 . S
H865 C881 0.930 . S
H866 C882 0.931 . S
C867 H855 0.929 . S
C867 C861 1.390 . S
C867 C864 1.386 . S
C868 C863 1.490 . S
C868 C870 1.395 1_455 S
C868 C871 1.403 1_454 S
H869 C875 0.935 . S
C870 H856 0.930 1_655 S
C870 C868 1.395 1_655 S
C870 C873 1.403 . S
C871 C868 1.403 1_656 S
C871 C872 1.524 . S
C871 C875 1.401 . S
C872 H857 0.960 . S
C872 H858 0.960 1_655 S
C872 H859 0.960 1_655 S
C872 C871 1.524 . S
C873 C870 1.403 . S
C873 C874 1.392 . S
C873 C877 1.495 . S
C874 C873 1.392 . S
C874 C875 1.379 1_554 S
C874 C876 1.478 . S
C875 H869 0.935 . S
C875 C871 1.401 . S
C875 C874 1.379 1_556 S
C876 C874 1.478 . S
C876 C878 1.381 . S
C876 C882 1.383 . S
C877 C873 1.495 . S
C877 H883 0.959 . S
C877 H884 0.961 . S
C877 H885 0.960 . S
C878 C876 1.381 . S
C878 C879 1.394 . S
C878 H886 0.930 1_554 S
C879 C878 1.394 . S
C879 C880 1.383 . S
C879 H887 0.929 1_554 S
C880 C879 1.383 . S
C880 C881 1.377 . S
C881 H865 0.930 . S
C881 C880 1.377 . S
C881 C882 1.379 . S
C882 H866 0.931 . S
C882 C876 1.383 . S
C882 C881 1.379 . S
H883 C877 0.959 . S
H884 C877 0.961 . S
H885 C877 0.960 . S
H886 C878 0.930 1_556 S
H887 C879 0.929 1_556 S
H888 C896 0.929 . S
H889 C898 0.930 . S
H890 C900 0.930 . S
H891 C903 0.929 . S
H892 C906 0.930 . S
H893 C908 0.960 . S
H894 C908 0.960 . S
H895 C908 0.960 . S
C896 H888 0.929 . S
C896 C897 1.377 . S
C896 C898 1.384 . S
C897 C896 1.377 . S
C897 C903 1.390 . S
C898 H889 0.930 . S
C898 C896 1.384 . S
C898 C899 1.372 . S
C899 C898 1.372 . S
C899 C900 1.400 . S
C899 C904 1.490 . S
C900 H890 0.930 . S
C900 C899 1.400 . S
C900 C903 1.386 . S
H901 C917 0.930 . S
H902 C918 0.931 . S
C903 H891 0.929 . S
C903 C897 1.390 . S
C903 C900 1.386 . S
C904 C899 1.490 . S
C904 C906 1.395 . S
C904 C907 1.403 . S
H905 C911 0.930 . S
C906 H892 0.930 . S
C906 C904 1.395 . S
C906 C909 1.403 . S
C907 C904 1.403 . S
C907 C908 1.524 . S
C907 C911 1.400 . S
C908 H893 0.960 . S
C908 H894 0.960 . S
C908 H895 0.960 . S
C908 C907 1.524 . S
C909 C906 1.403 . S
C909 C910 1.392 1_455 S
C909 C913 1.495 1_455 S
C910 C909 1.392 1_655 S
C910 C911 1.385 1_655 S
C910 C912 1.478 . S
C911 H905 0.930 . S
C911 C907 1.400 . S
C911 C910 1.385 1_455 S
C912 C910 1.478 . S
C912 C914 1.381 . S
C912 C918 1.383 . S
C913 C909 1.495 1_655 S
C913 H919 0.959 1_655 S
C913 H920 0.961 . S
C913 H921 0.960 . S
C914 C912 1.381 . S
C914 C915 1.394 . S
C914 H922 0.930 . S
C915 C914 1.394 . S
C915 C916 1.383 . S
C915 H923 0.929 . S
C916 C915 1.383 . S
C916 C917 1.377 . S
C917 H901 0.930 . S
C917 C916 1.377 . S
C917 C918 1.379 . S
C918 H902 0.931 . S
C918 C912 1.383 . S
C918 C917 1.379 . S
H919 C913 0.959 1_455 S
H920 C913 0.961 . S
H921 C913 0.960 . S
H922 C914 0.930 . S
H923 C915 0.929 . S
H924 C932 0.929 . S
H925 C934 0.930 . S
H926 C936 0.930 . S
H927 C939 0.929 . S
H928 C942 0.930 . S
H929 C944 0.960 . S
H930 C944 0.960 . S
H931 C944 0.960 . S
C932 H924 0.929 . S
C932 C933 1.377 . S
C932 C934 1.384 . S
C933 C932 1.377 . S
C933 C939 1.390 . S
C934 H925 0.930 . S
C934 C932 1.384 . S
C934 C935 1.372 . S
C935 C934 1.372 . S
C935 C936 1.400 . S
C935 C940 1.490 . S
C936 H926 0.930 . S
C936 C935 1.400 . S
C936 C939 1.386 . S
H937 C953 0.930 . S
H938 C954 0.931 . S
C939 H927 0.929 . S
C939 C933 1.390 . S
C939 C936 1.386 . S
C940 C935 1.490 . S
C940 C942 1.395 . S
C940 C943 1.403 . S
H941 C947 0.930 . S
C942 H928 0.930 . S
C942 C940 1.395 . S
C942 C945 1.403 . S
C943 C940 1.403 . S
C943 C944 1.524 . S
C943 C947 1.400 . S
C944 H929 0.960 . S
C944 H930 0.960 . S
C944 H931 0.960 . S
C944 C943 1.524 . S
C945 C942 1.403 . S
C945 C946 1.392 1_655 S
C945 C949 1.495 1_655 S
C946 C945 1.392 1_455 S
C946 C947 1.385 1_455 S
C946 C948 1.478 . S
C947 H941 0.930 . S
C947 C943 1.400 . S
C947 C946 1.385 1_655 S
C948 C946 1.478 . S
C948 C950 1.381 . S
C948 C954 1.383 . S
C949 C945 1.495 1_455 S
C949 H955 0.959 1_455 S
C949 H956 0.961 . S
C949 H957 0.960 . S
C950 C948 1.381 . S
C950 C951 1.394 . S
C950 H958 0.930 . S
C951 C950 1.394 . S
C951 C952 1.383 . S
C951 H959 0.929 . S
C952 C951 1.383 . S
C952 C953 1.377 . S
C953 H937 0.930 . S
C953 C952 1.377 . S
C953 C954 1.379 . S
C954 H938 0.931 . S
C954 C948 1.383 . S
C954 C953 1.379 . S
H955 C949 0.959 1_655 S
H956 C949 0.961 . S
H957 C949 0.960 . S
H958 C950 0.930 . S
H959 C951 0.929 . S
H960 C968 0.929 . S
H961 C970 0.930 . S
H962 C972 0.930 . S
H963 C975 0.929 . S
H964 C978 0.930 1_556 S
H965 C980 0.960 . S
H966 C980 0.960 . S
H967 C980 0.960 . S
C968 H960 0.929 . S
C968 C969 1.377 1_556 S
C968 C970 1.384 . S
C969 C968 1.377 1_554 S
C969 C975 1.390 . S
C970 H961 0.930 . S
C970 C968 1.384 . S
C970 C971 1.372 1_556 S
C971 C970 1.372 1_554 S
C971 C972 1.400 . S
C971 C976 1.490 . S
C972 H962 0.930 . S
C972 C971 1.400 . S
C972 C975 1.386 . S
H973 C989 0.930 . S
H974 C990 0.931 . S
C975 H963 0.929 . S
C975 C969 1.390 . S
C975 C972 1.386 . S
C976 C971 1.490 . S
C976 C978 1.395 . S
C976 C979 1.403 1_455 S
H977 C983 0.930 . S
C978 H964 0.930 1_554 S
C978 C976 1.395 . S
C978 C981 1.403 . S
C979 C976 1.403 1_655 S
C979 C980 1.524 . S
C979 C983 1.400 . S
C980 H965 0.960 . S
C980 H966 0.960 . S
C980 H967 0.960 . S
C980 C979 1.524 . S
C981 C978 1.403 . S
C981 C982 1.392 1_455 S
C981 C985 1.495 1_554 S
C982 C981 1.392 1_655 S
C982 C983 1.385 . S
C982 C984 1.478 . S
C983 H977 0.930 . S
C983 C979 1.400 . S
C983 C982 1.385 . S
C984 C982 1.478 . S
C984 C986 1.381 1_554 S
C984 C990 1.383 . S
C985 C981 1.495 1_556 S
C985 H991 0.959 . S
C985 H992 0.961 1_556 S
C985 H993 0.960 . S
C986 C984 1.381 1_556 S
C986 C987 1.394 . S
C986 H994 0.930 . S
C987 C986 1.394 . S
C987 C988 1.383 1_556 S
C987 H995 0.929 . S
C988 C987 1.383 1_554 S
C988 C989 1.377 . S
C989 H973 0.930 . S
C989 C988 1.377 . S
C989 C990 1.379 . S
C990 H974 0.931 . S
C990 C984 1.383 . S
C990 C989 1.379 . S
H991 C985 0.959 . S
H992 C985 0.961 1_554 S
H993 C985 0.960 . S
H994 C986 0.930 . S
H995 C987 0.929 . S
H996 C1004 0.929 . S
H997 C1006 0.930 . S
H998 C1008 0.930 . S
H999 C1011 0.929 . S
H1000 C1014 0.930 . S
H1001 C1016 0.960 . S
H1002 C1016 0.960 . S
H1003 C1016 0.960 . S
C1004 H996 0.929 . S
C1004 C1005 1.377 . S
C1004 C1006 1.384 . S
C1005 C1004 1.377 . S
C1005 C1011 1.390 . S
C1006 H997 0.930 . S
C1006 C1004 1.384 . S
C1006 C1007 1.372 . S
C1007 C1006 1.372 . S
C1007 C1008 1.400 . S
C1007 C1012 1.490 . S
C1008 H998 0.930 . S
C1008 C1007 1.400 . S
C1008 C1011 1.386 . S
H1009 C1025 0.930 . S
H1010 C1026 0.931 . S
C1011 H999 0.929 . S
C1011 C1005 1.390 . S
C1011 C1008 1.386 . S
C1012 C1007 1.490 . S
C1012 C1014 1.395 1_455 S
C1012 C1015 1.403 . S
H1013 C1019 0.930 . S
C1014 H1000 0.930 . S
C1014 C1012 1.395 1_655 S
C1014 C1017 1.403 . S
C1015 C1012 1.403 . S
C1015 C1016 1.524 . S
C1015 C1019 1.400 . S
C1016 H1001 0.960 . S
C1016 H1002 0.960 . S
C1016 H1003 0.960 . S
C1016 C1015 1.524 . S
C1017 C1014 1.403 . S
C1017 C1018 1.392 . S
C1017 C1021 1.495 . S
C1018 C1017 1.392 . S
C1018 C1019 1.385 1_655 S
C1018 C1020 1.478 . S
C1019 H1013 0.930 . S
C1019 C1015 1.400 . S
C1019 C1018 1.385 1_455 S
C1020 C1018 1.478 . S
C1020 C1022 1.381 . S
C1020 C1026 1.383 . S
C1021 C1017 1.495 . S
C1021 H1027 0.959 . S
C1021 H1028 0.961 . S
C1021 H1029 0.960 . S
C1022 C1020 1.381 . S
C1022 C1023 1.394 . S
C1022 H1030 0.930 . S
C1023 C1022 1.394 . S
C1023 C1024 1.383 . S
C1023 H1031 0.929 . S
C1024 C1023 1.383 . S
C1024 C1025 1.377 . S
C1025 H1009 0.930 . S
C1025 C1024 1.377 . S
C1025 C1026 1.379 . S
C1026 H1010 0.931 . S
C1026 C1020 1.383 . S
C1026 C1025 1.379 . S
H1027 C1021 0.959 . S
H1028 C1021 0.961 . S
H1029 C1021 0.960 . S
H1030 C1022 0.930 . S
H1031 C1023 0.929 . S
H1032 C1040 0.929 . S
H1033 C1042 0.930 . S
H1034 C1044 0.930 . S
H1035 C1047 0.929 . S
H1036 C1050 0.930 . S
H1037 C1052 1.025 . S
H1038 C1052 0.912 1_565 S
H1039 C1052 0.927 1_565 S
C1040 H1032 0.929 . S
C1040 C1041 1.377 . S
C1040 C1042 1.384 . S
C1041 C1040 1.377 . S
C1041 C1047 1.390 . S
C1042 H1033 0.930 . S
C1042 C1040 1.384 . S
C1042 C1043 1.372 . S
C1043 C1042 1.372 . S
C1043 C1044 1.400 . S
C1043 C1048 1.490 . S
C1044 H1034 0.930 . S
C1044 C1043 1.400 . S
C1044 C1047 1.386 . S
H1045 C1061 0.937 . S
H1046 C1062 0.931 . S
C1047 H1035 0.929 . S
C1047 C1041 1.390 . S
C1047 C1044 1.386 . S
C1048 C1043 1.490 . S
C1048 C1050 1.395 1_554 S
C1048 C1051 1.415 . S
H1049 C1055 0.930 . S
C1050 H1036 0.930 . S
C1050 C1048 1.395 1_556 S
C1050 C1053 1.469 . S
C1051 C1048 1.415 . S
C1051 C1052 1.553 1_565 S
C1051 C1055 1.382 1_565 S
C1052 H1037 1.025 . S
C1052 H1038 0.912 1_545 S
C1052 H1039 0.927 1_545 S
C1052 C1051 1.553 1_545 S
C1053 C1050 1.469 . S
C1053 C1054 1.349 1_566 S
C1053 C1057 1.477 . S
C1054 C1053 1.349 1_544 S
C1054 C1055 1.385 . S
C1054 C1056 1.478 . S
C1055 H1049 0.930 . S
C1055 C1051 1.382 1_545 S
C1055 C1054 1.385 . S
C1056 C1054 1.478 . S
C1056 C1058 1.381 . S
C1056 C1062 1.383 1_554 S
C1057 C1053 1.477 . S
C1057 H1063 0.959 . S
C1057 H1064 0.961 1_565 S
C1057 H1065 0.960 1_565 S
C1058 C1056 1.381 . S
C1058 C1059 1.394 . S
C1058 H1066 0.930 . S
C1059 C1058 1.394 . S
C1059 C1060 1.383 . S
C1059 H1067 0.929 . S
C1060 C1059 1.383 . S
C1060 C1061 1.375 1_554 S
C1061 H1045 0.937 . S
C1061 C1060 1.375 1_556 S
C1061 C1062 1.374 . S
C1062 H1046 0.931 . S
C1062 C1056 1.383 1_556 S
C1062 C1061 1.374 . S
H1063 C1057 0.959 . S
H1064 C1057 0.961 1_545 S
H1065 C1057 0.960 1_545 S
H1066 C1058 0.930 . S
H1067 C1059 0.929 . S
H1068 C1076 0.929 . S
H1069 C1078 0.930 . S
H1070 C1080 0.930 . S
H1071 C1083 0.929 . S
H1072 C1086 0.930 . S
H1073 C1088 0.960 . S
H1074 C1088 0.960 . S
H1075 C1088 0.960 . S
C1076 H1068 0.929 . S
C1076 C1077 1.377 . S
C1076 C1078 1.384 . S
C1077 C1076 1.377 . S
C1077 C1083 1.390 . S
C1078 H1069 0.930 . S
C1078 C1076 1.384 . S
C1078 C1079 1.372 . S
C1079 C1078 1.372 . S
C1079 C1080 1.400 . S
C1079 C1084 1.490 . S
C1080 H1070 0.930 . S
C1080 C1079 1.400 . S
C1080 C1083 1.386 . S
H1081 C1097 0.930 . S
H1082 C1098 0.931 . S
C1083 H1071 0.929 . S
C1083 C1077 1.390 . S
C1083 C1080 1.386 . S
C1084 C1079 1.490 . S
C1084 C1086 1.395 . S
C1084 C1087 1.403 . S
H1085 C1091 0.930 . S
C1086 H1072 0.930 . S
C1086 C1084 1.395 . S
C1086 C1089 1.403 1_545 S
C1087 C1084 1.403 . S
C1087 C1088 1.524 . S
C1087 C1091 1.400 1_545 S
C1088 H1073 0.960 . S
C1088 H1074 0.960 . S
C1088 H1075 0.960 . S
C1088 C1087 1.524 . S
C1089 C1086 1.403 1_565 S
C1089 C1090 1.392 . S
C1089 C1093 1.495 . S
C1090 C1089 1.392 . S
C1090 C1091 1.385 . S
C1090 C1092 1.478 . S
C1091 H1085 0.930 . S
C1091 C1087 1.400 1_565 S
C1091 C1090 1.385 . S
C1092 C1090 1.478 . S
C1092 C1094 1.381 . S
C1092 C1098 1.383 . S
C1093 C1089 1.495 . S
C1093 H1099 0.959 . S
C1093 H1100 0.961 . S
C1093 H1101 0.960 . S
C1094 C1092 1.381 . S
C1094 C1095 1.394 . S
C1094 H1102 0.930 . S
C1095 C1094 1.394 . S
C1095 C1096 1.383 . S
C1095 H1103 0.929 . S
C1096 C1095 1.383 . S
C1096 C1097 1.377 . S
C1097 H1081 0.930 . S
C1097 C1096 1.377 . S
C1097 C1098 1.379 . S
C1098 H1082 0.931 . S
C1098 C1092 1.383 . S
C1098 C1097 1.379 . S
H1099 C1093 0.959 . S
H1100 C1093 0.961 . S
H1101 C1093 0.960 . S
H1102 C1094 0.930 . S
H1103 C1095 0.929 . S
H1104 C1112 0.929 . S
H1105 C1114 0.930 . S
H1106 C1116 0.930 . S
H1107 C1119 0.929 . S
H1108 C1122 0.930 . S
H1109 C1124 0.960 . S
H1110 C1124 0.960 . S
H1111 C1124 0.960 . S
C1112 H1104 0.929 . S
C1112 C1113 1.377 . S
C1112 C1114 1.384 . S
C1113 C1112 1.377 . S
C1113 C1119 1.390 1_554 S
C1114 H1105 0.930 . S
C1114 C1112 1.384 . S
C1114 C1115 1.372 . S
C1115 C1114 1.372 . S
C1115 C1116 1.400 1_554 S
C1115 C1120 1.490 . S
C1116 H1106 0.930 . S
C1116 C1115 1.400 1_556 S
C1116 C1119 1.386 . S
H1117 C1133 0.930 . S
H1118 C1134 0.938 . S
C1119 H1107 0.929 . S
C1119 C1113 1.390 1_556 S
C1119 C1116 1.386 . S
C1120 C1115 1.490 . S
C1120 C1122 1.395 . S
C1120 C1123 1.403 1_554 S
H1121 C1127 0.930 . S
C1122 H1108 0.930 . S
C1122 C1120 1.395 . S
C1122 C1125 1.403 . S
C1123 C1120 1.403 1_556 S
C1123 C1124 1.524 . S
C1123 C1127 1.400 . S
C1124 H1109 0.960 . S
C1124 H1110 0.960 . S
C1124 H1111 0.960 . S
C1124 C1123 1.524 . S
C1125 C1122 1.403 . S
C1125 C1126 1.392 . S
C1125 C1129 1.495 . S
C1126 C1125 1.392 . S
C1126 C1127 1.385 1_554 S
C1126 C1128 1.478 . S
C1127 H1121 0.930 . S
C1127 C1123 1.400 . S
C1127 C1126 1.385 1_556 S
C1128 C1126 1.478 . S
C1128 C1130 1.381 . S
C1128 C1134 1.380 1_554 S
C1129 C1125 1.495 . S
C1129 H1135 0.959 . S
C1129 H1136 0.961 . S
C1129 H1137 0.960 . S
C1130 C1128 1.381 . S
C1130 C1131 1.394 . S
C1130 H1138 0.930 . S
C1131 C1130 1.394 . S
C1131 C1132 1.383 . S
C1131 H1139 0.929 . S
C1132 C1131 1.383 . S
C1132 C1133 1.377 1_554 S
C1133 H1117 0.930 . S
C1133 C1132 1.377 1_556 S
C1133 C1134 1.375 . S
C1134 H1118 0.938 . S
C1134 C1128 1.380 1_556 S
C1134 C1133 1.375 . S
H1135 C1129 0.959 . S
H1136 C1129 0.961 . S
H1137 C1129 0.960 . S
H1138 C1130 0.930 . S
H1139 C1131 0.929 . S
H1140 C1148 0.929 . S
H1141 C1150 0.930 . S
H1142 C1152 0.930 . S
H1143 C1155 0.929 . S
H1144 C1158 0.930 . S
H1145 C1160 0.960 . S
H1146 C1160 0.960 . S
H1147 C1160 0.960 . S
C1148 H1140 0.929 . S
C1148 C1149 1.377 1_556 S
C1148 C1150 1.384 . S
C1149 C1148 1.377 1_554 S
C1149 C1155 1.390 . S
C1150 H1141 0.930 . S
C1150 C1148 1.384 . S
C1150 C1151 1.372 1_556 S
C1151 C1150 1.372 1_554 S
C1151 C1152 1.400 . S
C1151 C1156 1.490 . S
C1152 H1142 0.930 . S
C1152 C1151 1.400 . S
C1152 C1155 1.386 . S
H1153 C1169 0.930 . S
H1154 C1170 0.931 . S
C1155 H1143 0.929 . S
C1155 C1149 1.390 . S
C1155 C1152 1.386 . S
C1156 C1151 1.490 . S
C1156 C1158 1.395 . S
C1156 C1159 1.403 1_554 S
H1157 C1163 0.930 . S
C1158 H1144 0.930 . S
C1158 C1156 1.395 . S
C1158 C1161 1.403 . S
C1159 C1156 1.403 1_556 S
C1159 C1160 1.524 . S
C1159 C1163 1.400 . S
C1160 H1145 0.960 . S
C1160 H1146 0.960 . S
C1160 H1147 0.960 . S
C1160 C1159 1.524 . S
C1161 C1158 1.403 . S
C1161 C1162 1.392 . S
C1161 C1165 1.495 . S
C1162 C1161 1.392 . S
C1162 C1163 1.385 1_554 S
C1162 C1164 1.478 . S
C1163 H1157 0.930 . S
C1163 C1159 1.400 . S
C1163 C1162 1.385 1_556 S
C1164 C1162 1.478 . S
C1164 C1166 1.381 . S
C1164 C1170 1.383 . S
C1165 C1161 1.495 . S
C1165 H1171 0.959 . S
C1165 H1172 0.961 . S
C1165 H1173 0.960 . S
C1166 C1164 1.381 . S
C1166 C1167 1.394 . S
C1166 H1174 0.930 1_554 S
C1167 C1166 1.394 . S
C1167 C1168 1.383 . S
C1167 H1175 0.929 1_554 S
C1168 C1167 1.383 . S
C1168 C1169 1.377 . S
C1169 H1153 0.930 . S
C1169 C1168 1.377 . S
C1169 C1170 1.379 . S
C1170 H1154 0.931 . S
C1170 C1164 1.383 . S
C1170 C1169 1.379 . S
H1171 C1165 0.959 . S
H1172 C1165 0.961 . S
H1173 C1165 0.960 . S
H1174 C1166 0.930 1_556 S
H1175 C1167 0.929 1_556 S
H1176 C1184 0.929 . S
H1177 C1186 0.930 . S
H1178 C1188 0.930 . S
H1179 C1191 0.929 . S
H1180 C1194 0.930 . S
H1181 C1196 0.960 . S
H1182 C1196 0.960 . S
H1183 C1196 0.960 . S
C1184 H1176 0.929 . S
C1184 C1185 1.377 . S
C1184 C1186 1.384 . S
C1185 C1184 1.377 . S
C1185 C1191 1.390 . S
C1186 H1177 0.930 . S
C1186 C1184 1.384 . S
C1186 C1187 1.372 . S
C1187 C1186 1.372 . S
C1187 C1188 1.400 . S
C1187 C1192 1.490 . S
C1188 H1178 0.930 . S
C1188 C1187 1.400 . S
C1188 C1191 1.386 . S
H1189 C1205 0.930 . S
H1190 C1206 0.931 . S
C1191 H1179 0.929 . S
C1191 C1185 1.390 . S
C1191 C1188 1.386 . S
C1192 C1187 1.490 . S
C1192 C1194 1.395 . S
C1192 C1195 1.403 . S
H1193 C1199 0.930 . S
C1194 H1180 0.930 . S
C1194 C1192 1.395 . S
C1194 C1197 1.403 . S
C1195 C1192 1.403 . S
C1195 C1196 1.524 . S
C1195 C1199 1.400 . S
C1196 H1181 0.960 . S
C1196 H1182 0.960 . S
C1196 H1183 0.960 . S
C1196 C1195 1.524 . S
C1197 C1194 1.403 . S
C1197 C1198 1.392 . S
C1197 C1201 1.495 . S
C1198 C1197 1.392 . S
C1198 C1199 1.385 . S
C1198 C1200 1.478 . S
C1199 H1193 0.930 . S
C1199 C1195 1.400 . S
C1199 C1198 1.385 . S
C1200 C1198 1.478 . S
C1200 C1202 1.381 . S
C1200 C1206 1.383 . S
C1201 C1197 1.495 . S
C1201 H1207 0.959 . S
C1201 H1208 0.961 . S
C1201 H1209 0.960 . S
C1202 C1200 1.381 . S
C1202 C1203 1.394 . S
C1202 H1210 0.930 . S
C1203 C1202 1.394 . S
C1203 C1204 1.383 . S
C1203 H1211 0.929 . S
C1204 C1203 1.383 . S
C1204 C1205 1.377 . S
C1205 H1189 0.930 . S
C1205 C1204 1.377 . S
C1205 C1206 1.379 . S
C1206 H1190 0.931 . S
C1206 C1200 1.383 . S
C1206 C1205 1.379 . S
H1207 C1201 0.959 . S
H1208 C1201 0.961 . S
H1209 C1201 0.960 . S
H1210 C1202 0.930 . S
H1211 C1203 0.929 . S
H1212 C1220 0.929 . S
H1213 C1222 0.930 . S
H1214 C1224 0.930 . S
H1215 C1227 0.929 . S
H1216 C1230 0.930 . S
H1217 C1232 0.960 . S
H1218 C1232 0.960 . S
H1219 C1232 0.960 . S
C1220 H1212 0.929 . S
C1220 C1221 1.377 . S
C1220 C1222 1.384 . S
C1221 C1220 1.377 . S
C1221 C1227 1.390 . S
C1222 H1213 0.930 . S
C1222 C1220 1.384 . S
C1222 C1223 1.372 . S
C1223 C1222 1.372 . S
C1223 C1224 1.400 . S
C1223 C1228 1.490 . S
C1224 H1214 0.930 . S
C1224 C1223 1.400 . S
C1224 C1227 1.386 . S
H1225 C1241 0.930 . S
H1226 C1242 0.931 . S
C1227 H1215 0.929 . S
C1227 C1221 1.390 . S
C1227 C1224 1.386 . S
C1228 C1223 1.490 . S
C1228 C1230 1.395 . S
C1228 C1231 1.403 . S
H1229 C1235 0.930 . S
C1230 H1216 0.930 . S
C1230 C1228 1.395 . S
C1230 C1233 1.403 . S
C1231 C1228 1.403 . S
C1231 C1232 1.524 . S
C1231 C1235 1.400 . S
C1232 H1217 0.960 . S
C1232 H1218 0.960 . S
C1232 H1219 0.960 . S
C1232 C1231 1.524 . S
C1233 C1230 1.403 . S
C1233 C1234 1.392 . S
C1233 C1237 1.495 . S
C1234 C1233 1.392 . S
C1234 C1235 1.385 . S
C1234 C1236 1.478 . S
C1235 H1229 0.930 . S
C1235 C1231 1.400 . S
C1235 C1234 1.385 . S
C1236 C1234 1.478 . S
C1236 C1238 1.381 . S
C1236 C1242 1.383 . S
C1237 C1233 1.495 . S
C1237 H1243 0.959 . S
C1237 H1244 0.961 . S
C1237 H1245 0.960 . S
C1238 C1236 1.381 . S
C1238 C1239 1.394 . S
C1238 H1246 0.930 . S
C1239 C1238 1.394 . S
C1239 C1240 1.383 . S
C1239 H1247 0.929 . S
C1240 C1239 1.383 . S
C1240 C1241 1.377 . S
C1241 H1225 0.930 . S
C1241 C1240 1.377 . S
C1241 C1242 1.379 . S
C1242 H1226 0.931 . S
C1242 C1236 1.383 . S
C1242 C1241 1.379 . S
H1243 C1237 0.959 . S
H1244 C1237 0.961 . S
H1245 C1237 0.960 . S
H1246 C1238 0.930 . S
H1247 C1239 0.929 . S
H1248 C1256 0.929 . S
H1249 C1258 0.930 . S
H1250 C1260 0.930 1_655 S
H1251 C1263 0.929 1_655 S
H1252 C1266 0.930 . S
H1253 C1268 0.960 . S
H1254 C1268 0.960 . S
H1255 C1268 0.948 1_655 S
C1256 H1248 0.929 . S
C1256 C1257 1.377 . S
C1256 C1258 1.384 . S
C1257 C1256 1.377 . S
C1257 C1263 1.390 . S
C1258 H1249 0.930 . S
C1258 C1256 1.384 . S
C1258 C1259 1.372 . S
C1259 C1258 1.372 . S
C1259 C1260 1.400 . S
C1259 C1264 1.490 . S
C1260 H1250 0.930 1_455 S
C1260 C1259 1.400 . S
C1260 C1263 1.386 . S
H1261 C1277 0.930 . S
H1262 C1278 0.931 . S
C1263 H1251 0.929 1_455 S
C1263 C1257 1.390 . S
C1263 C1260 1.386 . S
C1264 C1259 1.490 . S
C1264 C1266 1.395 . S
C1264 C1267 1.403 . S
H1265 C1271 0.930 . S
C1266 H1252 0.930 . S
C1266 C1264 1.395 . S
C1266 C1269 1.403 . S
C1267 C1264 1.403 . S
C1267 C1268 1.524 . S
C1267 C1271 1.400 . S
C1268 H1253 0.960 . S
C1268 H1254 0.960 . S
C1268 H1255 0.948 1_455 S
C1268 C1267 1.524 . S
C1269 C1266 1.403 . S
C1269 C1270 1.392 . S
C1269 C1273 1.495 . S
C1270 C1269 1.392 . S
C1270 C1271 1.385 . S
C1270 C1272 1.478 1_455 S
C1271 H1265 0.930 . S
C1271 C1267 1.400 . S
C1271 C1270 1.385 . S
C1272 C1270 1.478 1_655 S
C1272 C1274 1.381 1_655 S
C1272 C1278 1.383 . S
C1273 C1269 1.495 . S
C1273 H1279 0.959 . S
C1273 H1280 0.961 1_455 S
C1273 H1281 0.960 . S
C1274 C1272 1.381 1_455 S
C1274 C1275 1.394 . S
C1274 H1282 0.930 . S
C1275 C1274 1.394 . S
C1275 C1276 1.383 1_455 S
C1275 H1283 0.929 . S
C1276 C1275 1.383 1_655 S
C1276 C1277 1.377 . S
C1277 H1261 0.930 . S
C1277 C1276 1.377 . S
C1277 C1278 1.379 . S
C1278 H1262 0.931 . S
C1278 C1272 1.383 . S
C1278 C1277 1.379 . S
H1279 C1273 0.959 . S
H1280 C1273 0.961 1_655 S
H1281 C1273 0.960 . S
H1282 C1274 0.930 . S
H1283 C1275 0.929 . S
H1284 C1292 0.929 . S
H1285 C1294 0.930 . S
H1286 C1296 0.930 . S
H1287 C1299 0.929 . S
H1288 C1302 0.930 . S
H1289 C1304 0.960 . S
H1290 C1304 0.960 . S
H1291 C1304 0.960 1_655 S
C1292 H1284 0.929 . S
C1292 C1293 1.377 1_455 S
C1292 C1294 1.384 . S
C1293 C1292 1.377 1_655 S
C1293 C1299 1.390 . S
C1294 H1285 0.930 . S
C1294 C1292 1.384 . S
C1294 C1295 1.372 1_455 S
C1295 C1294 1.372 1_655 S
C1295 C1296 1.400 . S
C1295 C1300 1.490 1_655 S
C1296 H1286 0.930 . S
C1296 C1295 1.400 . S
C1296 C1299 1.386 . S
H1297 C1313 0.930 1_655 S
H1298 C1314 0.940 . S
C1299 H1287 0.929 . S
C1299 C1293 1.390 . S
C1299 C1296 1.386 . S
C1300 C1295 1.490 1_455 S
C1300 C1302 1.395 . S
C1300 C1303 1.403 . S
H1301 C1307 0.930 . S
C1302 H1288 0.930 . S
C1302 C1300 1.395 . S
C1302 C1305 1.403 . S
C1303 C1300 1.403 . S
C1303 C1304 1.524 . S
C1303 C1307 1.400 . S
C1304 H1289 0.960 . S
C1304 H1290 0.960 . S
C1304 H1291 0.960 1_455 S
C1304 C1303 1.524 . S
C1305 C1302 1.403 . S
C1305 C1306 1.392 . S
C1305 C1309 1.495 . S
C1306 C1305 1.392 . S
C1306 C1307 1.385 . S
C1306 C1308 1.478 . S
C1307 H1301 0.930 . S
C1307 C1303 1.400 . S
C1307 C1306 1.385 . S
C1308 C1306 1.478 . S
C1308 C1310 1.381 . S
C1308 C1314 1.375 1_455 S
C1309 C1305 1.495 . S
C1309 H1315 0.959 . S
C1309 H1316 0.948 1_455 S
C1309 H1317 0.960 . S
C1310 C1308 1.381 . S
C1310 C1311 1.394 . S
C1310 H1318 0.930 . S
C1311 C1310 1.394 . S
C1311 C1312 1.383 . S
C1311 H1319 0.929 . S
C1312 C1311 1.383 . S
C1312 C1313 1.377 . S
C1313 H1297 0.930 1_455 S
C1313 C1312 1.377 . S
C1313 C1314 1.378 1_455 S
C1314 H1298 0.940 . S
C1314 C1308 1.375 1_655 S
C1314 C1313 1.378 1_655 S
H1315 C1309 0.959 . S
H1316 C1309 0.948 1_655 S
H1317 C1309 0.960 . S
H1318 C1310 0.930 . S
H1319 C1311 0.929 . S
H1320 C1328 0.929 . S
H1321 C1330 0.930 . S
H1322 C1332 0.930 . S
H1323 C1335 0.929 . S
H1324 C1338 0.930 . S
H1325 C1340 0.960 . S
H1326 C1340 0.960 . S
H1327 C1340 0.960 . S
C1328 H1320 0.929 . S
C1328 C1329 1.377 . S
C1328 C1330 1.384 . S
C1329 C1328 1.377 . S
C1329 C1335 1.390 . S
C1330 H1321 0.930 . S
C1330 C1328 1.384 . S
C1330 C1331 1.372 . S
C1331 C1330 1.372 . S
C1331 C1332 1.400 . S
C1331 C1336 1.490 . S
C1332 H1322 0.930 . S
C1332 C1331 1.400 . S
C1332 C1335 1.386 . S
H1333 C1349 0.930 . S
H1334 C1350 0.931 . S
C1335 H1323 0.929 . S
C1335 C1329 1.390 . S
C1335 C1332 1.386 . S
C1336 C1331 1.490 . S
C1336 C1338 1.395 . S
C1336 C1339 1.403 1_655 S
H1337 C1343 0.930 . S
C1338 H1324 0.930 . S
C1338 C1336 1.395 . S
C1338 C1341 1.403 . S
C1339 C1336 1.403 1_455 S
C1339 C1340 1.524 . S
C1339 C1343 1.400 . S
C1340 H1325 0.960 . S
C1340 H1326 0.960 . S
C1340 H1327 0.960 . S
C1340 C1339 1.524 . S
C1341 C1338 1.403 . S
C1341 C1342 1.392 . S
C1341 C1345 1.495 . S
C1342 C1341 1.392 . S
C1342 C1343 1.385 1_655 S
C1342 C1344 1.478 . S
C1343 H1337 0.930 . S
C1343 C1339 1.400 . S
C1343 C1342 1.385 1_455 S
C1344 C1342 1.478 . S
C1344 C1346 1.381 1_655 S
C1344 C1350 1.383 . S
C1345 C1341 1.495 . S
C1345 H1351 0.959 . S
C1345 H1352 0.961 . S
C1345 H1353 0.960 . S
C1346 C1344 1.381 1_455 S
C1346 C1347 1.394 . S
C1346 H1354 0.930 . S
C1347 C1346 1.394 . S
C1347 C1348 1.383 . S
C1347 H1355 0.929 . S
C1348 C1347 1.383 . S
C1348 C1349 1.377 . S
C1349 H1333 0.930 . S
C1349 C1348 1.377 . S
C1349 C1350 1.379 1_455 S
C1350 H1334 0.931 . S
C1350 C1344 1.383 . S
C1350 C1349 1.379 1_655 S
H1351 C1345 0.959 . S
H1352 C1345 0.961 . S
H1353 C1345 0.960 . S
H1354 C1346 0.930 . S
H1355 C1347 0.929 . S
H1356 C1364 0.929 1_455 S
H1357 C1366 0.930 . S
H1358 C1368 0.930 . S
H1359 C1371 0.929 . S
H1360 C1374 0.930 . S
H1361 C1376 0.960 . S
H1362 C1376 0.960 . S
H1363 C1376 0.960 . S
C1364 H1356 0.929 1_655 S
C1364 C1365 1.377 . S
C1364 C1366 1.384 1_655 S
C1365 C1364 1.377 . S
C1365 C1371 1.390 . S
C1366 H1357 0.930 . S
C1366 C1364 1.384 1_455 S
C1366 C1367 1.372 1_455 S
C1367 C1366 1.372 1_655 S
C1367 C1368 1.400 . S
C1367 C1372 1.490 . S
C1368 H1358 0.930 . S
C1368 C1367 1.400 . S
C1368 C1371 1.386 . S
H1369 C1385 0.930 . S
H1370 C1386 0.931 . S
C1371 H1359 0.929 . S
C1371 C1365 1.390 . S
C1371 C1368 1.386 . S
C1372 C1367 1.490 . S
C1372 C1374 1.395 . S
C1372 C1375 1.403 . S
H1373 C1379 0.930 . S
C1374 H1360 0.930 . S
C1374 C1372 1.395 . S
C1374 C1377 1.403 1_655 S
C1375 C1372 1.403 . S
C1375 C1376 1.524 . S
C1375 C1379 1.400 . S
C1376 H1361 0.960 . S
C1376 H1362 0.960 . S
C1376 H1363 0.960 . S
C1376 C1375 1.524 . S
C1377 C1374 1.403 1_455 S
C1377 C1378 1.391 1_455 S
C1377 C1381 1.495 . S
C1378 C1377 1.391 1_655 S
C1378 C1379 1.390 . S
C1378 C1380 1.475 1_655 S
C1379 H1373 0.930 . S
C1379 C1375 1.400 . S
C1379 C1378 1.390 . S
C1380 C1378 1.475 1_455 S
C1380 C1382 1.381 . S
C1380 C1386 1.383 1_455 S
C1381 C1377 1.495 . S
C1381 H1387 0.959 . S
C1381 H1388 0.961 1_455 S
C1381 H1389 0.960 . S
C1382 C1380 1.381 . S
C1382 C1383 1.394 . S
C1382 H1390 0.930 . S
C1383 C1382 1.394 . S
C1383 C1384 1.383 . S
C1383 H1391 0.929 . S
C1384 C1383 1.383 . S
C1384 C1385 1.377 1_455 S
C1385 H1369 0.930 . S
C1385 C1384 1.377 1_655 S
C1385 C1386 1.379 . S
C1386 H1370 0.931 . S
C1386 C1380 1.383 1_655 S
C1386 C1385 1.379 . S
H1387 C1381 0.959 . S
H1388 C1381 0.961 1_655 S
H1389 C1381 0.960 . S
H1390 C1382 0.930 . S
H1391 C1383 0.929 . S
H1392 C1400 0.929 . S
H1393 C1402 0.930 . S
H1394 C1404 0.930 . S
H1395 C1407 0.929 . S
H1396 C1410 0.930 . S
H1397 C1412 0.960 . S
H1398 C1412 0.960 . S
H1399 C1412 0.960 . S
C1400 H1392 0.929 . S
C1400 C1401 1.377 . S
C1400 C1402 1.384 . S
C1401 C1400 1.377 . S
C1401 C1407 1.390 . S
C1402 H1393 0.930 . S
C1402 C1400 1.384 . S
C1402 C1403 1.372 . S
C1403 C1402 1.372 . S
C1403 C1404 1.400 . S
C1403 C1408 1.490 . S
C1404 H1394 0.930 . S
C1404 C1403 1.400 . S
C1404 C1407 1.386 . S
H1405 C1421 0.930 . S
H1406 C1422 0.931 . S
C1407 H1395 0.929 . S
C1407 C1401 1.390 . S
C1407 C1404 1.386 . S
C1408 C1403 1.490 . S
C1408 C1410 1.395 . S
C1408 C1411 1.403 . S
H1409 C1415 0.930 . S
C1410 H1396 0.930 . S
C1410 C1408 1.395 . S
C1410 C1413 1.403 . S
C1411 C1408 1.403 . S
C1411 C1412 1.524 . S
C1411 C1415 1.400 . S
C1412 H1397 0.960 . S
C1412 H1398 0.960 . S
C1412 H1399 0.960 . S
C1412 C1411 1.524 . S
C1413 C1410 1.403 . S
C1413 C1414 1.392 . S
C1413 C1417 1.495 . S
C1414 C1413 1.392 . S
C1414 C1415 1.385 . S
C1414 C1416 1.478 . S
C1415 H1409 0.930 . S
C1415 C1411 1.400 . S
C1415 C1414 1.385 . S
C1416 C1414 1.478 . S
C1416 C1418 1.381 . S
C1416 C1422 1.383 . S
C1417 C1413 1.495 . S
C1417 H1423 0.959 . S
C1417 H1424 0.961 . S
C1417 H1425 0.960 . S
C1418 C1416 1.381 . S
C1418 C1419 1.394 . S
C1418 H1426 0.930 . S
C1419 C1418 1.394 . S
C1419 C1420 1.383 . S
C1419 H1427 0.929 . S
C1420 C1419 1.383 . S
C1420 C1421 1.377 . S
C1421 H1405 0.930 . S
C1421 C1420 1.377 . S
C1421 C1422 1.379 . S
C1422 H1406 0.931 . S
C1422 C1416 1.383 . S
C1422 C1421 1.379 . S
H1423 C1417 0.959 . S
H1424 C1417 0.961 . S
H1425 C1417 0.960 . S
H1426 C1418 0.930 . S
H1427 C1419 0.929 . S
H1428 C1436 0.929 . S
H1429 C1438 0.930 . S
H1430 C1440 0.930 . S
H1431 C1443 0.929 . S
H1432 C1446 0.930 . S
H1433 C1448 0.960 . S
H1434 C1448 0.960 . S
H1435 C1448 0.960 . S
C1436 H1428 0.929 . S
C1436 C1437 1.377 . S
C1436 C1438 1.384 . S
C1437 C1436 1.377 . S
C1437 C1443 1.390 . S
C1438 H1429 0.930 . S
C1438 C1436 1.384 . S
C1438 C1439 1.372 . S
C1439 C1438 1.372 . S
C1439 C1440 1.400 . S
C1439 C1444 1.490 . S
C1440 H1430 0.930 . S
C1440 C1439 1.400 . S
C1440 C1443 1.386 . S
H1441 C1457 0.930 . S
H1442 C1458 0.931 . S
C1443 H1431 0.929 . S
C1443 C1437 1.390 . S
C1443 C1440 1.386 . S
C1444 C1439 1.490 . S
C1444 C1446 1.395 . S
C1444 C1447 1.403 . S
H1445 C1451 0.930 . S
C1446 H1432 0.930 . S
C1446 C1444 1.395 . S
C1446 C1449 1.403 . S
C1447 C1444 1.403 . S
C1447 C1448 1.524 . S
C1447 C1451 1.400 . S
C1448 H1433 0.960 . S
C1448 H1434 0.960 . S
C1448 H1435 0.960 . S
C1448 C1447 1.524 . S
C1449 C1446 1.403 . S
C1449 C1450 1.392 . S
C1449 C1453 1.495 . S
C1450 C1449 1.392 . S
C1450 C1451 1.385 . S
C1450 C1452 1.478 . S
C1451 H1445 0.930 . S
C1451 C1447 1.400 . S
C1451 C1450 1.385 . S
C1452 C1450 1.478 . S
C1452 C1454 1.381 . S
C1452 C1458 1.383 . S
C1453 C1449 1.495 . S
C1453 H1459 0.959 . S
C1453 H1460 0.961 . S
C1453 H1461 0.960 . S
C1454 C1452 1.381 . S
C1454 C1455 1.394 . S
C1454 H1462 0.930 . S
C1455 C1454 1.394 . S
C1455 C1456 1.383 . S
C1455 H1463 0.929 . S
C1456 C1455 1.383 . S
C1456 C1457 1.377 . S
C1457 H1441 0.930 . S
C1457 C1456 1.377 . S
C1457 C1458 1.379 . S
C1458 H1442 0.931 . S
C1458 C1452 1.383 . S
C1458 C1457 1.379 . S
H1459 C1453 0.959 . S
H1460 C1453 0.961 . S
H1461 C1453 0.960 . S
H1462 C1454 0.930 . S
H1463 C1455 0.929 . S
H1464 C1472 0.929 . S
H1465 C1474 0.930 . S
H1466 C1476 0.930 . S
H1467 C1479 0.929 . S
H1468 C1482 0.930 . S
H1469 C1484 0.960 . S
H1470 C1484 0.960 . S
H1471 C1484 0.960 . S
C1472 H1464 0.929 . S
C1472 C1473 1.377 . S
C1472 C1474 1.384 . S
C1473 C1472 1.377 . S
C1473 C1479 1.390 . S
C1474 H1465 0.930 . S
C1474 C1472 1.384 . S
C1474 C1475 1.372 . S
C1475 C1474 1.372 . S
C1475 C1476 1.400 . S
C1475 C1480 1.490 . S
C1476 H1466 0.930 . S
C1476 C1475 1.400 . S
C1476 C1479 1.386 . S
H1477 C1493 0.930 . S
H1478 C1494 0.931 . S
C1479 H1467 0.929 . S
C1479 C1473 1.390 . S
C1479 C1476 1.386 . S
C1480 C1475 1.490 . S
C1480 C1482 1.395 . S
C1480 C1483 1.403 . S
H1481 C1487 0.930 . S
C1482 H1468 0.930 . S
C1482 C1480 1.395 . S
C1482 C1485 1.403 . S
C1483 C1480 1.403 . S
C1483 C1484 1.524 . S
C1483 C1487 1.400 . S
C1484 H1469 0.960 . S
C1484 H1470 0.960 . S
C1484 H1471 0.960 . S
C1484 C1483 1.524 . S
C1485 C1482 1.403 . S
C1485 C1486 1.392 . S
C1485 C1489 1.495 . S
C1486 C1485 1.392 . S
C1486 C1487 1.385 . S
C1486 C1488 1.478 . S
C1487 H1481 0.930 . S
C1487 C1483 1.400 . S
C1487 C1486 1.385 . S
C1488 C1486 1.478 . S
C1488 C1490 1.381 . S
C1488 C1494 1.383 . S
C1489 C1485 1.495 . S
C1489 H1495 0.959 . S
C1489 H1496 0.961 . S
C1489 H1497 0.960 . S
C1490 C1488 1.381 . S
C1490 C1491 1.394 . S
C1490 H1498 0.930 . S
C1491 C1490 1.394 . S
C1491 C1492 1.383 . S
C1491 H1499 0.929 . S
C1492 C1491 1.383 . S
C1492 C1493 1.377 . S
C1493 H1477 0.930 . S
C1493 C1492 1.377 . S
C1493 C1494 1.379 . S
C1494 H1478 0.931 . S
C1494 C1488 1.383 . S
C1494 C1493 1.379 . S
H1495 C1489 0.959 . S
H1496 C1489 0.961 . S
H1497 C1489 0.960 . S
H1498 C1490 0.930 . S
H1499 C1491 0.929 . S
H1500 C1508 0.929 . S
H1501 C1510 0.930 . S
H1502 C1512 0.930 . S
H1503 C1515 0.929 . S
H1504 C1518 0.930 . S
H1505 C1520 0.960 . S
H1506 C1520 0.960 . S
H1507 C1520 0.960 . S
C1508 H1500 0.929 . S
C1508 C1509 1.377 . S
C1508 C1510 1.384 . S
C1509 C1508 1.377 . S
C1509 C1515 1.390 . S
C1510 H1501 0.930 . S
C1510 C1508 1.384 . S
C1510 C1511 1.372 . S
C1511 C1510 1.372 . S
C1511 C1512 1.400 . S
C1511 C1516 1.490 . S
C1512 H1502 0.930 . S
C1512 C1511 1.400 . S
C1512 C1515 1.386 . S
H1513 C1529 0.930 . S
H1514 C1530 0.931 . S
C1515 H1503 0.929 . S
C1515 C1509 1.390 . S
C1515 C1512 1.386 . S
C1516 C1511 1.490 . S
C1516 C1518 1.395 . S
C1516 C1519 1.403 . S
H1517 C1523 0.930 . S
C1518 H1504 0.930 . S
C1518 C1516 1.395 . S
C1518 C1521 1.403 . S
C1519 C1516 1.403 . S
C1519 C1520 1.524 . S
C1519 C1523 1.400 . S
C1520 H1505 0.960 . S
C1520 H1506 0.960 . S
C1520 H1507 0.960 . S
C1520 C1519 1.524 . S
C1521 C1518 1.403 . S
C1521 C1522 1.392 . S
C1521 C1525 1.495 . S
C1522 C1521 1.392 . S
C1522 C1523 1.385 . S
C1522 C1524 1.478 . S
C1523 H1517 0.930 . S
C1523 C1519 1.400 . S
C1523 C1522 1.385 . S
C1524 C1522 1.478 . S
C1524 C1526 1.381 . S
C1524 C1530 1.383 . S
C1525 C1521 1.495 . S
C1525 H1531 0.959 . S
C1525 H1532 0.961 . S
C1525 H1533 0.960 . S
C1526 C1524 1.381 . S
C1526 C1527 1.394 . S
C1526 H1534 0.930 . S
C1527 C1526 1.394 . S
C1527 C1528 1.383 . S
C1527 H1535 0.929 . S
C1528 C1527 1.383 . S
C1528 C1529 1.377 . S
C1529 H1513 0.930 . S
C1529 C1528 1.377 . S
C1529 C1530 1.379 . S
C1530 H1514 0.931 . S
C1530 C1524 1.383 . S
C1530 C1529 1.379 . S
H1531 C1525 0.959 . S
H1532 C1525 0.961 . S
H1533 C1525 0.960 . S
H1534 C1526 0.930 . S
H1535 C1527 0.929 . S
C681 C67 2.102 . S
C700 C56 2.110 . S
C717 C151 2.095 . S
C736 C140 2.085 . S
C753 C224 2.103 . S
C772 C235 2.103 . S
C789 C308 2.097 . S
C808 C319 2.105 . S
C825 C403 2.096 . S
C844 C392 2.094 . S
C861 C476 2.102 . S
C880 C487 2.100 . S
C897 C560 2.095 . S
C916 C571 2.092 . S
C933 C655 2.102 . S
C952 C644 2.091 . S
C969 C154 1.716 1_554 S
C988 C58 1.702 . S
C1005 C322 1.734 . S
C1024 C226 1.741 . S
C1041 C394 1.717 . S
C1060 C490 1.709 1_554 S
C1077 C562 1.726 . S
C1096 C658 1.760 . S
C1113 C70 1.389 1_554 S
C1132 C478 1.354 . S
C1149 C406 1.378 1_554 S
C1168 C142 1.340 . S
C1185 C238 1.378 . S
C1204 C646 1.341 . S
C1221 C310 1.376 . S
C1240 C574 1.352 . S
C1257 C74 1.529 . S
C1276 C326 1.596 . S
C1293 C158 1.598 . S
C1312 C242 1.522 . S
C1329 C147 1.516 . S
C1348 C231 1.605 . S
C1365 C315 1.517 . S
C1384 C63 1.594 . S
C1401 C410 1.527 . S
C1420 C662 1.602 . S
C1437 C494 1.598 . S
C1456 C578 1.523 . S
C1473 C483 1.526 . S
C1492 C567 1.578 . S
C1509 C651 1.521 . S
C1528 C399 1.585 . S
