# Generated by pormake.
# Topology acs-a, (4)-cn, num edge types: 1
# Building blocks:
#     Node 0, Type 0, BuildingBlock: CEKHIL_clean_sbu_0, # of connection points: 4
#     Node 1, Type 0, BuildingBlock: CEKHIL_clean_sbu_0, # of connection points: 4
#     Node 2, Type 0, BuildingBlock: CEKHIL_clean_sbu_0, # of connection points: 4
#     Node 3, Type 0, BuildingBlock: CEKHIL_clean_sbu_0, # of connection points: 4
#     Node 4, Type 0, BuildingBlock: CEKHIL_clean_sbu_0, # of connection points: 4
#     Node 5, Type 0, BuildingBlock: CEKHIL_clean_sbu_0, # of connection points: 4
#     Node 6, Type 0, BuildingBlock: CEKHIL_clean_sbu_0, # of connection points: 4
#     Node 7, Type 0, BuildingBlock: CEKHIL_clean_sbu_0, # of connection points: 4
#     Node 8, Type 0, BuildingBlock: CEKHIL_clean_sbu_0, # of connection points: 4
#     Node 9, Type 0, BuildingBlock: CEKHIL_clean_sbu_0, # of connection points: 4
#     Node 10, Type 0, BuildingBlock: CEKHIL_clean_sbu_0, # of connection points: 4
#     Node 11, Type 0, BuildingBlock: CEKHIL_clean_sbu_0, # of connection points: 4
#     Edge 12, Type (0, 0), BuildingBlock: XUDNAN_clean_linker_2, # of connection points: 2
#     Edge 13, Type (0, 0), BuildingBlock: XUDNAN_clean_linker_2, # of connection points: 2
#     Edge 14, Type (0, 0), BuildingBlock: XUDNAN_clean_linker_2, # of connection points: 2
#     Edge 15, Type (0, 0), BuildingBlock: XUDNAN_clean_linker_2, # of connection points: 2
#     Edge 16, Type (0, 0), BuildingBlock: XUDNAN_clean_linker_2, # of connection points: 2
#     Edge 17, Type (0, 0), BuildingBlock: XUDNAN_clean_linker_2, # of connection points: 2
#     Edge 18, Type (0, 0), BuildingBlock: XUDNAN_clean_linker_2, # of connection points: 2
#     Edge 19, Type (0, 0), BuildingBlock: XUDNAN_clean_linker_2, # of connection points: 2
#     Edge 20, Type (0, 0), BuildingBlock: XUDNAN_clean_linker_2, # of connection points: 2
#     Edge 21, Type (0, 0), BuildingBlock: XUDNAN_clean_linker_2, # of connection points: 2
#     Edge 22, Type (0, 0), BuildingBlock: XUDNAN_clean_linker_2, # of connection points: 2
#     Edge 23, Type (0, 0), BuildingBlock: XUDNAN_clean_linker_2, # of connection points: 2
#     Edge 24, Type (0, 0), BuildingBlock: XUDNAN_clean_linker_2, # of connection points: 2
#     Edge 25, Type (0, 0), BuildingBlock: XUDNAN_clean_linker_2, # of connection points: 2
#     Edge 26, Type (0, 0), BuildingBlock: XUDNAN_clean_linker_2, # of connection points: 2
#     Edge 27, Type (0, 0), BuildingBlock: XUDNAN_clean_linker_2, # of connection points: 2
#     Edge 28, Type (0, 0), BuildingBlock: XUDNAN_clean_linker_2, # of connection points: 2
#     Edge 29, Type (0, 0), BuildingBlock: XUDNAN_clean_linker_2, # of connection points: 2
#     Edge 30, Type (0, 0), BuildingBlock: XUDNAN_clean_linker_2, # of connection points: 2
#     Edge 31, Type (0, 0), BuildingBlock: XUDNAN_clean_linker_2, # of connection points: 2
#     Edge 32, Type (0, 0), BuildingBlock: XUDNAN_clean_linker_2, # of connection points: 2
#     Edge 33, Type (0, 0), BuildingBlock: XUDNAN_clean_linker_2, # of connection points: 2
#     Edge 34, Type (0, 0), BuildingBlock: XUDNAN_clean_linker_2, # of connection points: 2
#     Edge 35, Type (0, 0), BuildingBlock: XUDNAN_clean_linker_2, # of connection points: 2
# Relax obj value: 0.517
# Max RMSD: 0.261
# Mean RMSD: 0.235
data_MOF--net-acs-a--node1-CEKHIL_clean_sbu_0--edge1-XUDNAN_clean_linker_2
_symmetry_space_group_name_H-M    P1
_symmetry_Int_Tables_number       1
_symmetry_cell_setting            triclinic
loop_
_symmetry_equiv_pos_as_xyz
'x, y, z'
_cell_length_a     48.388313
_cell_length_b     48.356428
_cell_length_c     37.514131
_cell_angle_alpha  89.97433
_cell_angle_beta   89.984843
_cell_angle_gamma 114.10879
loop_
_atom_site_label
_atom_site_type_symbol
_atom_site_fract_x
_atom_site_fract_y
_atom_site_fract_z
_atom_type_partial_charge
Co0 Co 0.64043 0.13417 0.04448 0.0
O1 O 0.64189 0.09498 0.03714 0.0
O2 O 0.60042 0.10407 0.03972 0.0
C3 C 0.67762 0.16254 0.00682 0.0
O4 O 0.62738 0.1684 0.04947 0.0
Co5 Co 0.69099 0.19251 0.07389 0.0
O6 O 0.66539 0.21377 0.05768 0.0
C7 C 0.65532 0.14278 0.12343 0.0
C8 C 0.61242 0.0847 0.03664 0.0
C9 C 0.63763 0.19723 0.05151 0.0
O10 O 0.63802 0.1279 0.09772 0.0
O11 O 0.67857 0.16771 0.11877 0.0
O12 O 0.65082 0.1456 0.99453 0.0
O13 O 0.68167 0.15929 0.04027 0.0
Co14 Co 0.45785 0.6244 0.56186 0.0
O15 O 0.49987 0.63521 0.5519 0.0
O16 O 0.46238 0.59076 0.53962 0.0
C17 C 0.45351 0.66615 0.54205 0.0
O18 O 0.41212 0.60582 0.56637 0.0
Co19 Co 0.43995 0.66117 0.61817 0.0
O20 O 0.39826 0.63595 0.6012 0.0
C21 C 0.46383 0.61783 0.64232 0.0
C22 C 0.49123 0.60795 0.53924 0.0
C23 C 0.39194 0.61319 0.58061 0.0
O24 O 0.46218 0.60809 0.61016 0.0
O25 O 0.45916 0.64122 0.65056 0.0
O26 O 0.45325 0.64559 0.51956 0.0
O27 O 0.4616 0.6632 0.57413 0.0
Co28 Co 0.84111 0.42709 0.06462 0.0
O29 O 0.86911 0.46638 0.07983 0.0
O30 O 0.87992 0.43742 0.04151 0.0
C31 C 0.8034 0.44198 0.05456 0.0
O32 O 0.81728 0.38573 0.04127 0.0
Co33 Co 0.78058 0.39268 0.10521 0.0
O34 O 0.7694 0.3672 0.06195 0.0
C35 C 0.8379 0.39258 0.13335 0.0
C36 C 0.88848 0.46318 0.05823 0.0
C37 C 0.78932 0.36664 0.04017 0.0
O38 O 0.85301 0.40755 0.1062 0.0
O39 O 0.80971 0.38597 0.13824 0.0
O40 O 0.82365 0.44589 0.03014 0.0
O41 O 0.80727 0.43071 0.0843 0.0
Co42 Co 0.36094 0.85896 0.55383 0.0
O43 O 0.37198 0.90055 0.53947 0.0
O44 O 0.40402 0.87934 0.55047 0.0
C45 C 0.32353 0.83503 0.5146 0.0
O46 O 0.35968 0.81784 0.56663 0.0
Co47 Co 0.29872 0.81787 0.58578 0.0
O48 O 0.31177 0.78445 0.57557 0.0
C49 C 0.34324 0.86449 0.63086 0.0
C50 C 0.39983 0.90312 0.54095 0.0
C51 C 0.33973 0.79066 0.57072 0.0
O52 O 0.36291 0.87025 0.60574 0.0
O53 O 0.31547 0.84611 0.62728 0.0
O54 O 0.35173 0.84532 0.50473 0.0
O55 O 0.31903 0.84394 0.54578 0.0
Co56 Co 0.52532 0.36491 0.07082 0.0
O57 O 0.48344 0.35575 0.06187 0.0
O58 O 0.52211 0.39868 0.04724 0.0
C59 C 0.52414 0.32014 0.0526 0.0
O60 O 0.57101 0.38234 0.07427 0.0
Co61 Co 0.54483 0.32817 0.12563 0.0
O62 O 0.58529 0.34938 0.10272 0.0
C63 C 0.52167 0.37253 0.15055 0.0
C64 C 0.49303 0.38261 0.04779 0.0
C65 C 0.59128 0.3734 0.0845 0.0
O66 O 0.5229 0.3827 0.11866 0.0
O67 O 0.52667 0.34921 0.15835 0.0
O68 O 0.52719 0.34107 0.02925 0.0
O69 O 0.5195 0.32603 0.08498 0.0
Co70 Co 0.14132 0.57331 0.5651 0.0
O71 O 0.10772 0.53425 0.5669 0.0
O72 O 0.10932 0.57365 0.53523 0.0
C73 C 0.17758 0.55589 0.55762 0.0
O74 O 0.17186 0.61618 0.5544 0.0
Co75 Co 0.194 0.59367 0.61997 0.0
O76 O 0.21544 0.62433 0.58277 0.0
C77 C 0.13391 0.59088 0.64054 0.0
C78 C 0.09479 0.54536 0.54405 0.0
C79 C 0.20036 0.63142 0.55941 0.0
O80 O 0.12516 0.58763 0.60778 0.0
O81 O 0.15911 0.59081 0.65085 0.0
O82 O 0.16183 0.55783 0.53043 0.0
O83 O 0.16908 0.56189 0.58814 0.0
Co84 Co 0.8589 0.35651 0.44305 0.0
O85 O 0.89945 0.36217 0.4575 0.0
O86 O 0.88496 0.3983 0.44085 0.0
C87 C 0.83118 0.32483 0.48603 0.0
O88 O 0.82156 0.36232 0.42883 0.0
Co89 Co 0.80682 0.29712 0.41898 0.0
O90 O 0.77994 0.31911 0.42494 0.0
C91 C 0.85547 0.33142 0.3679 0.0
C92 C 0.90641 0.39083 0.45149 0.0
C93 C 0.79287 0.3479 0.42558 0.0
O94 O 0.86804 0.35195 0.39159 0.0
O95 O 0.8319 0.30712 0.37419 0.0
O96 O 0.84596 0.35358 0.49256 0.0
O97 O 0.83728 0.31571 0.45578 0.0
Co98 Co 0.43152 0.84528 0.93668 0.0
O99 O 0.4704 0.87885 0.93467 0.0
O100 O 0.43126 0.87751 0.9666 0.0
C101 C 0.45034 0.81018 0.94432 0.0
O102 O 0.38862 0.81461 0.94682 0.0
Co103 Co 0.41244 0.7922 0.88236 0.0
O104 O 0.38056 0.77106 0.91836 0.0
C105 C 0.4141 0.85198 0.86114 0.0
C106 C 0.45953 0.89193 0.95751 0.0
C107 C 0.373 0.78626 0.94112 0.0
O108 O 0.4173 0.86113 0.89374 0.0
O109 O 0.41462 0.82683 0.85128 0.0
O110 O 0.44692 0.82488 0.97173 0.0
O111 O 0.44384 0.81812 0.91379 0.0
Co112 Co 0.62316 0.46058 0.43876 0.0
O113 O 0.6319 0.50275 0.44407 0.0
O114 O 0.59265 0.46486 0.46823 0.0
C115 C 0.66996 0.46349 0.44801 0.0
O116 O 0.60784 0.41494 0.44075 0.0
Co117 Co 0.65278 0.43928 0.37697 0.0
O118 O 0.633 0.39914 0.40072 0.0
C119 C 0.60399 0.45855 0.36138 0.0
C120 C 0.60745 0.49386 0.46325 0.0
C121 C 0.61414 0.3942 0.42623 0.0
O122 O 0.59801 0.45812 0.39486 0.0
O123 O 0.62731 0.45551 0.34928 0.0
O124 O 0.65299 0.46273 0.47521 0.0
O125 O 0.65958 0.46615 0.41722 0.0
Co126 Co 0.129 0.64068 0.94927 0.0
O127 O 0.09241 0.64372 0.96522 0.0
O128 O 0.09844 0.60094 0.95831 0.0
C129 C 0.16261 0.67711 0.98356 0.0
O130 O 0.16235 0.62758 0.93626 0.0
Co131 Co 0.18176 0.69211 0.91079 0.0
O132 O 0.20527 0.66762 0.92279 0.0
C133 C 0.1259 0.65623 0.87119 0.0
C134 C 0.08115 0.6143 0.96771 0.0
C135 C 0.19098 0.63964 0.93039 0.0
O136 O 0.11605 0.638 0.8978 0.0
O137 O 0.1502 0.68059 0.8722 0.0
O138 O 0.14642 0.65055 0.99693 0.0
O139 O 0.15501 0.68181 0.95186 0.0
Co140 Co 0.56996 0.14856 0.43833 0.0
O141 O 0.5329 0.11278 0.43491 0.0
O142 O 0.57422 0.11574 0.46332 0.0
C143 C 0.54849 0.18063 0.45222 0.0
O144 O 0.61165 0.18165 0.44964 0.0
Co145 Co 0.58448 0.20503 0.39008 0.0
O146 O 0.61315 0.22588 0.42906 0.0
C147 C 0.59287 0.15155 0.36237 0.0
C148 C 0.54623 0.09967 0.45441 0.0
C149 C 0.62339 0.21082 0.44883 0.0
O150 O 0.58534 0.13771 0.39252 0.0
O151 O 0.59281 0.17754 0.35606 0.0
O152 O 0.55283 0.16396 0.47693 0.0
O153 O 0.55462 0.17524 0.42019 0.0
Co154 Co 0.37091 0.53528 0.93445 0.0
O155 O 0.35949 0.49294 0.94315 0.0
O156 O 0.40224 0.53014 0.96128 0.0
C157 C 0.32646 0.53667 0.94837 0.0
O158 O 0.38998 0.58093 0.93183 0.0
Co159 Co 0.33891 0.55622 0.87472 0.0
O160 O 0.36458 0.59742 0.89289 0.0
C161 C 0.3846 0.53325 0.85564 0.0
C162 C 0.38525 0.50127 0.95961 0.0
C163 C 0.38533 0.6021 0.91598 0.0
O164 O 0.39176 0.53312 0.88861 0.0
O165 O 0.36219 0.53865 0.84498 0.0
O166 O 0.34532 0.53789 0.9736 0.0
O167 O 0.33353 0.53145 0.91675 0.0
H168 H 0.64452 0.17783 0.32526 0.0
H169 H 0.56243 0.09573 0.3319 0.0
H170 H 0.5741 0.07942 0.27311 0.0
H171 H 0.63845 0.19374 0.24019 0.0
H172 H 0.67806 0.20819 0.22878 0.0
H173 H 0.66699 0.20969 0.27411 0.0
H174 H 0.69802 0.17981 0.29478 0.0
H175 H 0.70962 0.17853 0.24935 0.0
H176 H 0.69144 0.14392 0.27435 0.0
H177 H 0.58942 0.07825 0.20849 0.0
H178 H 0.60829 0.09047 0.14667 0.0
H179 H 0.68146 0.1726 0.18448 0.0
C180 C 0.62974 0.1558 0.31493 0.0
C181 C 0.60284 0.13779 0.33293 0.0
C182 C 0.58348 0.10946 0.3186 0.0
C183 C 0.58992 0.10014 0.28524 0.0
C184 C 0.61611 0.11918 0.26725 0.0
C185 C 0.63607 0.14613 0.28213 0.0
C186 C 0.66081 0.16425 0.25627 0.0
C187 C 0.66104 0.19579 0.24944 0.0
C188 C 0.69181 0.16676 0.26948 0.0
C189 C 0.65073 0.14428 0.2237 0.0
C190 C 0.62518 0.11816 0.23049 0.0
C191 C 0.60991 0.09818 0.20316 0.0
C192 C 0.62075 0.10538 0.16807 0.0
C193 C 0.64652 0.13242 0.16062 0.0
C194 C 0.66204 0.15149 0.18915 0.0
H195 H 0.48223 0.63502 0.71052 0.0
H196 H 0.44753 0.55666 0.64112 0.0
H197 H 0.43492 0.52309 0.69349 0.0
H198 H 0.50821 0.59577 0.7872 0.0
H199 H 0.49679 0.61659 0.81959 0.0
H200 H 0.51236 0.63377 0.77736 0.0
H201 H 0.46476 0.64436 0.76615 0.0
H202 H 0.44909 0.62715 0.80785 0.0
H203 H 0.42788 0.61328 0.76735 0.0
H204 H 0.41009 0.50021 0.75007 0.0
H205 H 0.38095 0.49026 0.80639 0.0
H206 H 0.43508 0.58165 0.8413 0.0
C207 C 0.47342 0.61077 0.7064 0.0
C208 C 0.46577 0.59845 0.67187 0.0
C209 C 0.45388 0.56664 0.66733 0.0
C210 C 0.44661 0.54734 0.69701 0.0
C211 C 0.45223 0.5602 0.73097 0.0
C212 C 0.46636 0.59127 0.7358 0.0
C213 C 0.46569 0.5997 0.77456 0.0
C214 C 0.49767 0.61218 0.79062 0.0
C215 C 0.45095 0.62241 0.7792 0.0
C216 C 0.44622 0.56895 0.79007 0.0
C217 C 0.43921 0.54627 0.76473 0.0
C218 C 0.41661 0.51731 0.77072 0.0
C219 C 0.40015 0.51176 0.80271 0.0
C220 C 0.40684 0.53489 0.82838 0.0
C221 C 0.43089 0.56328 0.82263 0.0
H222 H 0.81459 0.33973 0.1694 0.0
H223 H 0.89463 0.42377 0.16154 0.0
H224 H 0.91406 0.4113 0.21771 0.0
H225 H 0.80164 0.34347 0.25537 0.0
H226 H 0.78872 0.30372 0.2656 0.0
H227 H 0.78525 0.31536 0.22107 0.0
H228 H 0.81574 0.28604 0.1969 0.0
H229 H 0.81915 0.27406 0.2416 0.0
H230 H 0.8526 0.29352 0.21507 0.0
H231 H 0.91811 0.39552 0.28087 0.0
H232 H 0.90758 0.37734 0.34298 0.0
H233 H 0.82572 0.30239 0.30806 0.0
C234 C 0.83678 0.35492 0.17884 0.0
C235 C 0.85321 0.38263 0.16133 0.0
C236 C 0.88195 0.40223 0.17444 0.0
C237 C 0.89309 0.39529 0.2063 0.0
C238 C 0.87551 0.36836 0.22401 0.0
C239 C 0.84822 0.34815 0.2102 0.0
C240 C 0.83167 0.32275 0.23608 0.0
C241 C 0.79999 0.32129 0.24505 0.0
C242 C 0.82969 0.29229 0.22154 0.0
C243 C 0.85276 0.33291 0.26773 0.0
C244 C 0.87825 0.3589 0.26014 0.0
C245 C 0.89874 0.37468 0.28677 0.0
C246 C 0.89252 0.3642 0.32206 0.0
C247 C 0.86591 0.33826 0.33045 0.0
C248 C 0.84661 0.32185 0.30255 0.0
H249 H 0.44032 0.86645 0.79641 0.0
H250 H 0.37021 0.87376 0.86228 0.0
H251 H 0.34867 0.88828 0.80922 0.0
H252 H 0.44617 0.92911 0.72954 0.0
H253 H 0.45245 0.90752 0.69371 0.0
H254 H 0.46638 0.90563 0.73782 0.0
H255 H 0.43755 0.84719 0.73677 0.0
H256 H 0.42321 0.84886 0.69314 0.0
H257 H 0.39727 0.83066 0.72893 0.0
H258 H 0.3275 0.88756 0.74786 0.0
H259 H 0.31195 0.8776 0.68464 0.0
H260 H 0.39805 0.87475 0.65905 0.0
C261 C 0.42137 0.87268 0.79982 0.0
C262 C 0.40706 0.86945 0.83322 0.0
C263 C 0.38181 0.87683 0.83692 0.0
C264 C 0.36939 0.88494 0.80689 0.0
C265 C 0.38308 0.8863 0.77374 0.0
C266 C 0.40911 0.88123 0.77029 0.0
C267 C 0.41747 0.88039 0.73156 0.0
C268 C 0.44739 0.90728 0.72264 0.0
C269 C 0.41892 0.84998 0.72208 0.0
C270 C 0.391 0.88367 0.71363 0.0
C271 C 0.37148 0.88734 0.73828 0.0
C272 C 0.34315 0.88592 0.72823 0.0
C273 C 0.33443 0.88013 0.69233 0.0
C274 C 0.3541 0.87611 0.66692 0.0
C275 C 0.38304 0.87889 0.67766 0.0
H276 H 0.61334 0.48174 0.29446 0.0
H277 H 0.54281 0.42879 0.36828 0.0
H278 H 0.50689 0.40975 0.31836 0.0
H279 H 0.55903 0.49408 0.22385 0.0
H280 H 0.58293 0.49087 0.18868 0.0
H281 H 0.59939 0.50847 0.23038 0.0
H282 H 0.62513 0.47114 0.23652 0.0
H283 H 0.60852 0.45318 0.19551 0.0
H284 H 0.6021 0.43092 0.23568 0.0
H285 H 0.4862 0.38291 0.26221 0.0
H286 H 0.48038 0.35626 0.2046 0.0
H287 H 0.56148 0.42898 0.16519 0.0
C288 C 0.58982 0.46756 0.30015 0.0
C289 C 0.58074 0.45676 0.33502 0.0
C290 C 0.55007 0.43771 0.34178 0.0
C291 C 0.52952 0.4267 0.31349 0.0
C292 C 0.53983 0.43574 0.27885 0.0
C293 C 0.56906 0.4567 0.27218 0.0
C294 C 0.57616 0.45906 0.23268 0.0
C295 C 0.57956 0.48996 0.21803 0.0
C296 C 0.60461 0.45318 0.22468 0.0
C297 C 0.5477 0.43389 0.21858 0.0
C298 C 0.52669 0.42108 0.24548 0.0
C299 C 0.50162 0.39364 0.24051 0.0
C300 C 0.49847 0.37857 0.20782 0.0
C301 C 0.51994 0.3913 0.18041 0.0
C302 C 0.54405 0.41977 0.18534 0.0
H303 H 0.11522 0.56145 0.70293 0.0
H304 H 0.11539 0.637 0.6411 0.0
H305 H 0.10095 0.65762 0.69491 0.0
H306 H 0.05172 0.55784 0.76907 0.0
H307 H 0.07097 0.54787 0.80465 0.0
H308 H 0.07241 0.53498 0.75986 0.0
H309 H 0.131 0.55909 0.76272 0.0
H310 H 0.12984 0.57238 0.80702 0.0
H311 H 0.15052 0.5989 0.77272 0.0
H312 H 0.10286 0.67715 0.75677 0.0
H313 H 0.11484 0.69085 0.82017 0.0
H314 H 0.10854 0.60063 0.84219 0.0
C315 C 0.11046 0.58139 0.70049 0.0
C316 C 0.11587 0.59749 0.66807 0.0
C317 C 0.11057 0.62405 0.66564 0.0
C318 C 0.10249 0.63593 0.69612 0.0
C319 C 0.09902 0.62043 0.72841 0.0
C320 C 0.10189 0.59314 0.7305 0.0
C321 C 0.10109 0.58293 0.7688 0.0
C322 C 0.07233 0.5542 0.77601 0.0
C323 C 0.12982 0.57809 0.77834 0.0
C324 C 0.10005 0.60994 0.78813 0.0
C325 C 0.09841 0.63118 0.76443 0.0
C326 C 0.10273 0.66019 0.77567 0.0
C327 C 0.10961 0.66785 0.81167 0.0
C328 C 0.11167 0.64645 0.83605 0.0
C329 C 0.10569 0.61688 0.82432 0.0
H330 H 0.60908 0.04323 0.98509 0.0
H331 H 0.56884 0.05529 0.08381 0.0
H332 H 0.52596 0.00579 0.07539 0.0
H333 H 0.54275 0.01336 0.93736 0.0
H334 H 0.55101 0.98592 0.91217 0.0
H335 H 0.58146 0.01967 0.9283 0.0
H336 H 0.60504 0.98746 0.9613 0.0
H337 H 0.57509 0.95355 0.94447 0.0
H338 H 0.58209 0.95823 0.99174 0.0
H339 H 0.48425 0.95989 0.05222 0.0
H340 H 0.44866 0.9154 0.01934 0.0
H341 H 0.51556 0.93203 0.93562 0.0
C342 C 0.59189 0.03464 0.00559 0.0
C343 C 0.59228 0.05249 0.03541 0.0
C344 C 0.56891 0.04146 0.0611 0.0
C345 C 0.54446 0.01352 0.05647 0.0
C346 C 0.5438 0.99698 0.02595 0.0
C347 C 0.5671 0.0067 0.00123 0.0
C348 C 0.55948 0.98549 0.96951 0.0
C349 C 0.55863 0.00211 0.9348 0.0
C350 C 0.58175 0.97027 0.9666 0.0
C351 C 0.5281 0.96291 0.97999 0.0
C352 C 0.51951 0.97005 0.01259 0.0
C353 C 0.49087 0.95366 0.02696 0.0
C354 C 0.47071 0.92865 0.00794 0.0
C355 C 0.47944 0.92028 0.9751 0.0
C356 C 0.5084 0.93782 0.96085 0.0
H357 H 0.48159 0.54912 0.52662 0.0
H358 H 0.55104 0.64102 0.52467 0.0
H359 H 0.58887 0.6216 0.50648 0.0
H360 H 0.52844 0.51478 0.56316 0.0
H361 H 0.51136 0.48063 0.53716 0.0
H362 H 0.48953 0.50176 0.54912 0.0
H363 H 0.47742 0.50581 0.4825 0.0
H364 H 0.49898 0.48447 0.47036 0.0
H365 H 0.50805 0.52125 0.45094 0.0
H366 H 0.61872 0.59233 0.48759 0.0
H367 H 0.6388 0.55501 0.46937 0.0
H368 H 0.55022 0.48217 0.48631 0.0
C369 C 0.50471 0.56517 0.52209 0.0
C370 C 0.51345 0.59655 0.52682 0.0
C371 C 0.54394 0.61686 0.5211 0.0
C372 C 0.56556 0.60606 0.51083 0.0
C373 C 0.55627 0.57493 0.50675 0.0
C374 C 0.52661 0.55477 0.51224 0.0
C375 C 0.5226 0.52239 0.50652 0.0
C376 C 0.51238 0.5038 0.54105 0.0
C377 C 0.50046 0.50762 0.47574 0.0
C378 C 0.55463 0.52753 0.49669 0.0
C379 C 0.57368 0.55799 0.4969 0.0
C380 C 0.6041 0.5684 0.48754 0.0
C381 C 0.61527 0.54707 0.47726 0.0
C382 C 0.59607 0.51579 0.47673 0.0
C383 C 0.56549 0.50593 0.48698 0.0
H384 H 0.04774 0.55328 0.96243 0.0
H385 H 0.04645 0.63551 0.00715 0.0
H386 H -0.00223 0.6052 0.03684 0.0
H387 H 0.96693 0.51629 0.94523 0.0
H388 H 0.96471 0.47913 0.95609 0.0
H389 H -0.00072 0.50743 0.93832 0.0
H390 H 0.0286 0.50052 0.99297 0.0
H391 H 0.99406 0.47249 0.01116 0.0
H392 H 0.01666 0.50525 0.03722 0.0
H393 H 0.95114 0.56598 0.06407 0.0
H394 H 0.90588 0.5211 0.08152 0.0
H395 H 0.93605 0.4642 0.01688 0.0
C396 C 0.0371 0.56492 0.97829 0.0
C397 C 0.05083 0.59671 0.98267 0.0
C398 C 0.0362 0.61119 0.00339 0.0
C399 C 0.00869 0.59416 0.0205 0.0
C400 C 0.99605 0.56279 0.0162 0.0
C401 C 0.00948 0.54833 0.99514 0.0
C402 C 0.99079 0.51441 0.99427 0.0
C403 C 0.97977 0.50369 0.95622 0.0
C404 C 0.0086 0.49716 0.00984 0.0
C405 C 0.96481 0.51201 0.01837 0.0
C406 C 0.96853 0.54018 0.031 0.0
C407 C 0.94785 0.54384 0.05416 0.0
C408 C 0.92227 0.51813 0.06404 0.0
C409 C 0.9174 0.48913 0.05049 0.0
C410 C 0.93917 0.48605 0.02765 0.0
H411 H 0.48515 0.06611 0.45246 0.0
H412 H 0.56956 0.06352 0.48751 0.0
H413 H 0.54103 0.01272 0.51344 0.0
H414 H 0.44256 0.03133 0.52978 0.0
H415 H 0.40796 0.01042 0.50587 0.0
H416 H 0.435 0.04581 0.48833 0.0
H417 H 0.43742 0.01936 0.42905 0.0
H418 H 0.41017 0.98393 0.44629 0.0
H419 H 0.44622 0.98656 0.43003 0.0
H420 H 0.50345 0.96286 0.53609 0.0
H421 H 0.45931 0.91689 0.55404 0.0
H422 H 0.39919 0.95281 0.50605 0.0
C423 C 0.49768 0.0547 0.46519 0.0
C424 C 0.52956 0.06859 0.46782 0.0
C425 C 0.54512 0.05318 0.48514 0.0
C426 C 0.52913 0.02438 0.49995 0.0
C427 C 0.49765 0.01152 0.49735 0.0
C428 C 0.48208 0.02614 0.48041 0.0
C429 C 0.44818 0.00775 0.48221 0.0
C430 C 0.43252 0.02485 0.50278 0.0
C431 C 0.43471 -0.00113 0.44466 0.0
C432 C 0.44711 0.98045 0.50284 0.0
C433 C 0.47591 0.98305 0.51117 0.0
C434 C 0.4808 0.96056 0.52976 0.0
C435 C 0.45557 0.93456 0.53983 0.0
C436 C 0.42586 0.93137 0.5315 0.0
C437 C 0.42163 0.95475 0.51301 0.0
H438 H 0.44216 0.51087 0.98166 0.0
H439 H 0.35124 0.44088 0.96982 0.0
H440 H 0.36888 0.40267 0.99171 0.0
H441 H 0.48052 0.46642 0.95115 0.0
H442 H 0.51163 0.48252 0.98192 0.0
H443 H 0.49155 0.50461 0.96714 0.0
H444 H 0.48041 0.51348 0.03275 0.0
H445 H 0.50063 0.49158 0.04776 0.0
H446 H 0.46205 0.48138 0.0617 0.0
H447 H 0.3965 0.37223 0.01436 0.0
H448 H 0.4325 0.35142 0.0355 0.0
H449 H 0.50551 0.44125 0.03018 0.0
C450 C 0.42589 0.48757 0.98405 0.0
C451 C 0.39534 0.47877 0.97429 0.0
C452 C 0.37477 0.44802 0.97726 0.0
C453 C 0.38455 0.4262 0.98966 0.0
C454 C 0.41494 0.43557 0.99869 0.0
C455 C 0.43532 0.4655 0.996 0.0
C456 C 0.46692 0.4695 0.00631 0.0
C457 C 0.48895 0.48146 0.97474 0.0
C458 C 0.47815 0.4902 0.03908 0.0
C459 C 0.46114 0.43712 0.01517 0.0
C460 C 0.431 0.41792 0.01082 0.0
C461 C 0.42018 0.387 0.01782 0.0
C462 C 0.44075 0.37542 0.02978 0.0
C463 C 0.47173 0.39474 0.03426 0.0
C464 C 0.48199 0.42591 0.0267 0.0
H465 H 0.95007 0.39274 0.49993 0.0
H466 H 0.93052 0.44353 0.41555 0.0
H467 H 0.97719 0.48806 0.42956 0.0
H468 H 0.97691 0.45214 0.56142 0.0
H469 H 0.00686 0.44327 0.57945 0.0
H470 H 0.97377 0.41368 0.56059 0.0
H471 H 0.00731 0.39924 0.51708 0.0
H472 H 0.04058 0.42843 0.53627 0.0
H473 H 0.03405 0.428 0.48893 0.0
H474 H 0.02211 0.5283 0.45589 0.0
H475 H 0.06699 0.56144 0.48979 0.0
H476 H 0.05869 0.48549 0.55745 0.0
C477 C 0.9562 0.41298 0.48383 0.0
C478 C 0.93687 0.4148 0.45664 0.0
C479 C 0.9451 0.44179 0.43656 0.0
C480 C 0.97152 0.4672 0.44429 0.0
C481 C 0.98952 0.46522 0.47215 0.0
C482 C 0.9826 0.43879 0.49136 0.0
C483 C 0.00531 0.44356 0.5211 0.0
C484 C 0.98977 0.43782 0.55781 0.0
C485 C 0.02286 0.42363 0.5155 0.0
C486 C 0.02556 0.47684 0.51584 0.0
C487 C 0.01593 0.48879 0.48744 0.0
C488 C 0.03019 0.5192 0.47794 0.0
C489 C 0.05552 0.53788 0.49752 0.0
C490 C 0.06633 0.52602 0.52617 0.0
C491 C 0.05095 0.49515 0.53562 0.0
H492 H 0.63861 0.24627 0.01278 0.0
H493 H 0.58519 0.17634 0.08743 0.0
H494 H 0.5449 0.19497 0.08562 0.0
H495 H 0.62324 0.30414 0.04541 0.0
H496 H 0.61935 0.3201 0.00305 0.0
H497 H 0.64218 0.29879 0.00621 0.0
H498 H 0.61018 0.26346 0.95621 0.0
H499 H 0.5872 0.28485 0.95346 0.0
H500 H 0.56966 0.24456 0.96122 0.0
H501 H 0.51452 0.2244 0.08322 0.0
H502 H 0.49672 0.26531 0.08298 0.0
H503 H 0.56726 0.31605 0.00775 0.0
C504 C 0.61829 0.23496 0.02849 0.0
C505 C 0.61497 0.21016 0.05055 0.0
C506 C 0.58807 0.19549 0.07049 0.0
C507 C 0.56493 0.20565 0.06931 0.0
C508 C 0.56864 0.23003 0.04728 0.0
C509 C 0.59442 0.24438 0.02691 0.0
C510 C 0.59326 0.27143 0.00761 0.0
C511 C 0.62123 0.30037 0.01613 0.0
C512 C 0.58987 0.26572 0.96723 0.0
C513 C 0.5646 0.27199 0.02349 0.0
C514 C 0.55018 0.24703 0.04513 0.0
C515 C 0.5251 0.24368 0.06573 0.0
C516 C 0.5152 0.26705 0.06552 0.0
C517 C 0.5304 0.29345 0.04499 0.0
C518 C 0.55472 0.29556 0.02271 0.0
H519 H 0.34324 0.59819 0.62414 0.0
H520 H 0.3691 0.59022 0.51533 0.0
H521 H 0.31505 0.56798 0.49757 0.0
H522 H 0.27238 0.52682 0.62404 0.0
H523 H 0.2531 0.5437 0.65185 0.0
H524 H 0.2934 0.55537 0.65619 0.0
H525 H 0.30167 0.61127 0.64548 0.0
H526 H 0.26154 0.59977 0.64098 0.0
H527 H 0.28657 0.62085 0.60569 0.0
H528 H 0.25885 0.55531 0.49055 0.0
H529 H 0.20565 0.54944 0.49611 0.0
H530 H 0.21721 0.56072 0.61062 0.0
C531 C 0.33741 0.59103 0.59678 0.0
C532 C 0.36005 0.5958 0.57106 0.0
C533 C 0.35185 0.58639 0.53544 0.0
C534 C 0.32129 0.57381 0.52514 0.0
C535 C 0.29939 0.57006 0.55108 0.0
C536 C 0.30714 0.57779 0.58634 0.0
C537 C 0.27974 0.57312 0.60882 0.0
C538 C 0.27434 0.54827 0.63688 0.0
C539 C 0.28257 0.60302 0.62623 0.0
C540 C 0.25549 0.56284 0.5805 0.0
C541 C 0.26707 0.56115 0.54731 0.0
C542 C 0.24935 0.5557 0.51657 0.0
C543 C 0.21921 0.55242 0.51993 0.0
C544 C 0.2073 0.5545 0.55379 0.0
C545 C 0.2255 0.55874 0.58437 0.0
H546 H 0.80498 0.31904 0.04156 0.0
H547 H 0.74873 0.3553 0.98633 0.0
H548 H 0.72082 0.30583 0.95734 0.0
H549 H 0.80154 0.25912 0.971 0.0
H550 H 0.799 0.2326 0.00595 0.0
H551 H 0.82081 0.2726 0.01273 0.0
H552 H 0.78967 0.27052 0.06971 0.0
H553 H 0.76793 0.2308 0.06308 0.0
H554 H 0.74897 0.25594 0.06671 0.0
H555 H 0.69145 0.25082 0.94655 0.0
H556 H 0.6625 0.19613 0.95765 0.0
H557 H 0.73697 0.19458 0.02032 0.0
C558 C 0.78806 0.31689 0.0216 0.0
C559 C 0.77956 0.34102 0.01516 0.0
C560 C 0.75603 0.33718 0.99074 0.0
C561 C 0.7401 0.30914 0.97414 0.0
C562 C 0.74793 0.28512 0.98233 0.0
C563 C 0.77161 0.28881 0.00533 0.0
C564 C 0.77174 0.25851 0.01534 0.0
C565 C 0.79995 0.25554 0.00035 0.0
C566 C 0.76941 0.25368 0.05609 0.0
C567 C 0.74334 0.23719 0.9965 0.0
C568 C 0.7304 0.2529 0.97662 0.0
C569 C 0.70185 0.2382 0.96102 0.0
C570 C 0.68557 0.20702 0.96725 0.0
C571 C 0.69773 0.19112 0.98943 0.0
C572 C 0.72752 0.20614 0.00257 0.0
H573 H 0.39421 0.7918 0.59025 0.0
H574 H 0.30871 0.73447 0.54158 0.0
H575 H 0.33024 0.69797 0.52386 0.0
H576 H 0.44337 0.78097 0.52865 0.0
H577 H 0.46993 0.7793 0.56136 0.0
H578 H 0.44773 0.80065 0.57048 0.0
H579 H 0.42678 0.76981 0.62839 0.0
H580 H 0.44964 0.74902 0.62 0.0
H581 H 0.40937 0.72901 0.6263 0.0
H582 H 0.36355 0.67064 0.50669 0.0
H583 H 0.40126 0.64829 0.50363 0.0
H584 H 0.46271 0.72126 0.5692 0.0
C585 C 0.3799 0.77134 0.57629 0.0
C586 C 0.35001 0.76608 0.56661 0.0
C587 C 0.33176 0.73894 0.54884 0.0
C588 C 0.34388 0.71825 0.53852 0.0
C589 C 0.37397 0.72482 0.54715 0.0
C590 C 0.39134 0.7502 0.56672 0.0
C591 C 0.42249 0.7514 0.5743 0.0
C592 C 0.44733 0.77976 0.5577 0.0
C593 C 0.42734 0.74969 0.61464 0.0
C594 C 0.4202 0.72295 0.55548 0.0
C595 C 0.3923 0.70822 0.53932 0.0
C596 C 0.38534 0.68184 0.51953 0.0
C597 C 0.40702 0.66954 0.51756 0.0
C598 C 0.43483 0.68324 0.53609 0.0
C599 C 0.44167 0.71055 0.55462 0.0
H600 H 0.63001 0.35615 0.04867 0.0
H601 H 0.62317 0.43298 0.10015 0.0
H602 H 0.67755 0.46393 0.08791 0.0
H603 H 0.70206 0.36703 0.07884 0.0
H604 H 0.71224 0.35452 0.03755 0.0
H605 H 0.67332 0.34137 0.05019 0.0
H606 H 0.66434 0.36189 0.98752 0.0
H607 H 0.70427 0.37659 0.97818 0.0
H608 H 0.68488 0.40146 0.97743 0.0
H609 H 0.73399 0.48179 0.08164 0.0
H610 H 0.78672 0.48613 0.07751 0.0
H611 H 0.75556 0.40164 0.01961 0.0
C612 C 0.64002 0.37961 0.05658 0.0
C613 C 0.6229 0.39228 0.07537 0.0
C614 C 0.63624 0.42306 0.08566 0.0
C615 C 0.66695 0.44075 0.07866 0.0
C616 C 0.68345 0.42749 0.0602 0.0
C617 C 0.67026 0.39777 0.04861 0.0
C618 C 0.69319 0.38837 0.03101 0.0
C619 C 0.69532 0.36126 0.05055 0.0
C620 C 0.68624 0.38167 0.99119 0.0
C621 C 0.72162 0.41683 0.03617 0.0
C622 C 0.71566 0.4392 0.05319 0.0
C623 C 0.7389 0.46509 0.06692 0.0
C624 C 0.76873 0.46747 0.06437 0.0
C625 C 0.77487 0.44452 0.04745 0.0
C626 C 0.75129 0.41979 0.03171 0.0
H627 H 0.19125 0.68313 0.56118 0.0
H628 H 0.24591 0.64175 0.5121 0.0
H629 H 0.27556 0.68967 0.48029 0.0
H630 H 0.19646 0.73921 0.48687 0.0
H631 H 0.20014 0.76822 0.51899 0.0
H632 H 0.17775 0.72893 0.52945 0.0
H633 H 0.20943 0.73408 0.58652 0.0
H634 H 0.23197 0.77313 0.57649 0.0
H635 H 0.24996 0.7474 0.58306 0.0
H636 H 0.30369 0.74287 0.46147 0.0
H637 H 0.33421 0.79759 0.46711 0.0
H638 H 0.26361 0.80613 0.53131 0.0
C639 C 0.20876 0.68404 0.54261 0.0
C640 C 0.21607 0.65891 0.5382 0.0
C641 C 0.23987 0.66087 0.51517 0.0
C642 C 0.25651 0.68783 0.49674 0.0
C643 C 0.24916 0.71261 0.50197 0.0
C644 C 0.22606 0.71106 0.52478 0.0
C645 C 0.22672 0.74219 0.53161 0.0
C646 C 0.19859 0.74478 0.51578 0.0
C647 C 0.22974 0.74964 0.57177 0.0
C648 C 0.25499 0.7617 0.51113 0.0
C649 C 0.26671 0.74411 0.49277 0.0
C650 C 0.29443 0.75691 0.4751 0.0
C651 C 0.31164 0.78815 0.47838 0.0
C652 C 0.30134 0.80608 0.49991 0.0
C653 C 0.27185 0.79298 0.51444 0.0
H654 H 0.73749 0.33857 0.45588 0.0
H655 H 0.81025 0.40035 0.38982 0.0
H656 H 0.78847 0.43807 0.39355 0.0
H657 H 0.67764 0.3597 0.41908 0.0
H658 H 0.65938 0.35636 0.4617 0.0
H659 H 0.67978 0.33338 0.4519 0.0
H660 H 0.71169 0.35402 0.50899 0.0
H661 H 0.69206 0.37787 0.51807 0.0
H662 H 0.73276 0.39428 0.5143 0.0
H663 H 0.76132 0.46975 0.40539 0.0
H664 H 0.72467 0.49193 0.41818 0.0
H665 H 0.6693 0.41165 0.47809 0.0
C666 C 0.74826 0.35974 0.44153 0.0
C667 C 0.77553 0.36666 0.42254 0.0
C668 C 0.78937 0.39473 0.40453 0.0
C669 C 0.77731 0.41637 0.40665 0.0
C670 C 0.75132 0.40961 0.42687 0.0
C671 C 0.73647 0.38188 0.44344 0.0
C672 C 0.70874 0.38094 0.46335 0.0
C673 C 0.67967 0.35613 0.44807 0.0
C674 C 0.7115 0.37652 0.50357 0.0
C675 C 0.7106 0.41247 0.45525 0.0
C676 C 0.73556 0.42854 0.43437 0.0
C677 C 0.74177 0.45759 0.42194 0.0
C678 C 0.7211 0.47014 0.42962 0.0
C679 C 0.69486 0.45381 0.44983 0.0
C680 C 0.68988 0.42496 0.46369 0.0
H681 H 0.32363 0.79968 0.93941 0.0
H682 H 0.35783 0.73768 0.98438 0.0
H683 H 0.30816 0.70835 0.0127 0.0
H684 H 0.2682 0.79506 0.01236 0.0
H685 H 0.24045 0.79548 0.98057 0.0
H686 H 0.28026 0.81535 0.97092 0.0
H687 H 0.27312 0.78535 0.91178 0.0
H688 H 0.23342 0.76584 0.92113 0.0
H689 H 0.25584 0.7445 0.91297 0.0
H690 H 0.25357 0.68217 0.02861 0.0
H691 H 0.19785 0.65789 0.02501 0.0
H692 H 0.19814 0.73557 0.96705 0.0
C693 C 0.32075 0.78048 0.95622 0.0
C694 C 0.3444 0.7709 0.96048 0.0
C695 C 0.33981 0.74513 0.98132 0.0
C696 C 0.3118 0.72862 0.99762 0.0
C697 C 0.28854 0.73816 0.99242 0.0
C698 C 0.29265 0.7634 0.97196 0.0
C699 C 0.26293 0.76605 0.96567 0.0
C700 C 0.26298 0.79469 0.98345 0.0
C701 C 0.25593 0.76537 0.92553 0.0
C702 C 0.24133 0.73771 0.98441 0.0
C703 C 0.25663 0.72244 0.00066 0.0
C704 C 0.24134 0.69423 0.01673 0.0
C705 C 0.20963 0.68067 0.01475 0.0
C706 C 0.19375 0.69505 0.99604 0.0
C707 C 0.20976 0.72442 0.9821 0.0
H708 H 0.53927 0.21744 0.40443 0.0
H709 H 0.55681 0.2105 0.51664 0.0
H710 H 0.56845 0.26503 0.52419 0.0
H711 H 0.60161 0.28064 0.39149 0.0
H712 H 0.58611 0.2975 0.35858 0.0
H713 H 0.57037 0.25709 0.36386 0.0
H714 H 0.51708 0.25612 0.37505 0.0
H715 H 0.53248 0.29662 0.36898 0.0
H716 H 0.51211 0.27991 0.40921 0.0
H717 H 0.58586 0.32196 0.51687 0.0
H718 H 0.60861 0.37516 0.49533 0.0
H719 H 0.58547 0.34379 0.38681 0.0
C720 C 0.54433 0.22706 0.43095 0.0
C721 C 0.54694 0.20981 0.46 0.0
C722 C 0.55421 0.22327 0.49415 0.0
C723 C 0.56097 0.25425 0.4986 0.0
C724 C 0.56028 0.27114 0.46865 0.0
C725 C 0.55195 0.25783 0.4355 0.0
C726 C 0.55788 0.28112 0.40636 0.0
C727 C 0.58032 0.27895 0.37847 0.0
C728 C 0.52811 0.27827 0.38888 0.0
C729 C 0.57182 0.30977 0.42796 0.0
C730 C 0.57227 0.30371 0.46397 0.0
C731 C 0.58523 0.3269 0.48882 0.0
C732 C 0.5981 0.35692 0.47643 0.0
C733 C 0.59869 0.36315 0.43952 0.0
C734 C 0.58524 0.33937 0.41515 0.0
H735 H 0.25132 0.65521 0.9464 0.0
H736 H 0.16699 0.57878 0.9213 0.0
H737 H 0.19188 0.54398 0.92949 0.0
H738 H 0.30087 0.62765 0.9022 0.0
H739 H 0.3301 0.64118 0.93567 0.0
H740 H 0.3056 0.6604 0.92868 0.0
H741 H 0.29077 0.65348 0.99541 0.0
H742 H 0.31515 0.63406 0.00243 0.0
H743 H 0.27572 0.61607 0.01466 0.0
H744 H 0.22537 0.51758 0.93645 0.0
H745 H 0.26731 0.50102 0.94031 0.0
H746 H 0.32995 0.59301 0.96418 0.0
C747 C 0.23826 0.63117 0.94236 0.0
C748 C 0.20723 0.61969 0.93308 0.0
C749 C 0.19074 0.58808 0.9285 0.0
C750 C 0.20463 0.56808 0.9332 0.0
C751 C 0.23499 0.57994 0.94283 0.0
C752 C 0.25176 0.61069 0.94731 0.0
C753 C 0.28428 0.6172 0.95714 0.0
C754 C 0.30651 0.63781 0.92924 0.0
C755 C 0.29192 0.63102 0.99465 0.0
C756 C 0.28317 0.58535 0.95633 0.0
C757 C 0.25438 0.56427 0.9483 0.0
C758 C 0.24791 0.53369 0.94342 0.0
C759 C 0.27171 0.52445 0.94581 0.0
C760 C 0.30133 0.54562 0.95355 0.0
C761 C 0.30713 0.57632 0.95953 0.0
H762 H 0.6722 0.19694 0.4563 0.0
H763 H 0.63779 0.26377 0.48481 0.0
H764 H 0.6869 0.29541 0.5127 0.0
H765 H 0.7269 0.20965 0.53316 0.0
H766 H 0.75483 0.20589 0.50409 0.0
H767 H 0.71507 0.18486 0.49505 0.0
H768 H 0.72241 0.20785 0.43142 0.0
H769 H 0.76203 0.22848 0.44018 0.0
H770 H 0.73956 0.24846 0.42618 0.0
H771 H 0.74111 0.32292 0.52929 0.0
H772 H 0.79659 0.34758 0.52358 0.0
H773 H 0.79698 0.26434 0.48129 0.0
C774 C 0.67474 0.21766 0.46975 0.0
C775 C 0.65121 0.22772 0.46923 0.0
C776 C 0.65557 0.2556 0.48546 0.0
C777 C 0.68327 0.27355 0.50161 0.0
C778 C 0.70642 0.26338 0.50103 0.0
C779 C 0.70251 0.23619 0.48515 0.0
C780 C 0.73231 0.2331 0.48188 0.0
C781 C 0.73227 0.20681 0.50493 0.0
C782 C 0.73949 0.22928 0.44261 0.0
C783 C 0.75379 0.26337 0.49679 0.0
C784 C 0.7383 0.28004 0.50895 0.0
C785 C 0.75345 0.3099 0.52047 0.0
C786 C 0.78509 0.32369 0.51738 0.0
C787 C 0.80106 0.30779 0.50207 0.0
C788 C 0.78533 0.27681 0.49362 0.0
H789 H 0.38637 0.6372 0.97289 0.0
H790 H 0.43105 0.63645 0.87321 0.0
H791 H 0.46447 0.69061 0.88079 0.0
H792 H 0.37876 0.70171 0.96175 0.0
H793 H 0.38655 0.71476 0.00743 0.0
H794 H 0.37288 0.67522 0.99781 0.0
H795 H 0.41984 0.67561 0.03209 0.0
H796 H 0.43362 0.71595 0.03905 0.0
H797 H 0.45734 0.70036 0.01748 0.0
H798 H 0.48425 0.7445 0.89123 0.0
H799 H 0.48531 0.79527 0.89976 0.0
H800 H 0.42738 0.76359 0.99237 0.0
C801 C 0.40398 0.6485 0.95349 0.0
C802 C 0.40661 0.63322 0.92264 0.0
C803 C 0.42908 0.6482 0.89703 0.0
C804 C 0.44834 0.67874 0.90141 0.0
C805 C 0.44479 0.69375 0.93165 0.0
C806 C 0.42324 0.67916 0.95741 0.0
C807 C 0.42065 0.70158 0.98399 0.0
C808 C 0.38774 0.69812 0.98781 0.0
C809 C 0.43365 0.69817 0.0203 0.0
C810 C 0.44089 0.7312 0.96629 0.0
C811 C 0.45605 0.72599 0.93747 0.0
C812 C 0.47324 0.74903 0.91421 0.0
C813 C 0.47364 0.77776 0.91918 0.0
C814 C 0.45676 0.78315 0.94693 0.0
C815 C 0.44129 0.76007 0.97177 0.0
loop_
_geom_bond_atom_site_label_1
_geom_bond_atom_site_label_2
_geom_bond_distance
_geom_bond_site_symmetry_2
_ccdc_geom_bond_type
Co0 O1 2.216 . S
Co0 O2 2.091 . S
Co0 O4 2.004 . S
Co0 O10 2.021 . S
Co0 O12 2.131 1_554 S
Co0 O13 2.244 . S
O1 Co0 2.216 . S
O1 C8 1.247 . S
O2 Co0 2.091 . S
O2 C8 1.261 . S
C3 O12 1.241 1_554 S
C3 O13 1.272 . S
O4 Co0 2.004 . S
O4 C9 1.259 . S
Co5 O6 2.061 . S
Co5 O11 2.052 . S
Co5 O13 2.135 . S
O6 Co5 2.061 . S
O6 C9 1.235 . S
C7 O10 1.238 . S
C7 O11 1.241 . S
C8 O1 1.247 . S
C8 O2 1.261 . S
C9 O4 1.259 . S
C9 O6 1.235 . S
O10 Co0 2.021 . S
O10 C7 1.238 . S
O11 Co5 2.052 . S
O11 C7 1.241 . S
O12 Co0 2.131 1_556 S
O12 C3 1.241 1_556 S
O13 Co0 2.244 . S
O13 C3 1.272 . S
O13 Co5 2.135 . S
Co14 O15 2.216 . S
Co14 O16 2.091 . S
Co14 O18 2.004 . S
Co14 O24 2.021 . S
Co14 O26 2.137 . S
Co14 O27 2.244 . S
O15 Co14 2.216 . S
O15 C22 1.247 . S
O16 Co14 2.091 . S
O16 C22 1.261 . S
C17 O26 1.247 . S
C17 O27 1.272 . S
O18 Co14 2.004 . S
O18 C23 1.259 . S
Co19 O20 2.061 . S
Co19 O25 2.052 . S
Co19 O27 2.135 . S
O20 Co19 2.061 . S
O20 C23 1.235 . S
C21 O24 1.238 . S
C21 O25 1.241 . S
C22 O15 1.247 . S
C22 O16 1.261 . S
C23 O18 1.259 . S
C23 O20 1.235 . S
O24 Co14 2.021 . S
O24 C21 1.238 . S
O25 Co19 2.052 . S
O25 C21 1.241 . S
O26 Co14 2.137 . S
O26 C17 1.247 . S
O27 Co14 2.244 . S
O27 C17 1.272 . S
O27 Co19 2.135 . S
Co28 O29 2.216 . S
Co28 O30 2.091 . S
Co28 O32 2.004 . S
Co28 O38 2.021 . S
Co28 O40 2.137 . S
Co28 O41 2.244 . S
O29 Co28 2.216 . S
O29 C36 1.247 . S
O30 Co28 2.091 . S
O30 C36 1.261 . S
C31 O40 1.247 . S
C31 O41 1.272 . S
O32 Co28 2.004 . S
O32 C37 1.259 . S
Co33 O34 2.061 . S
Co33 O39 2.052 . S
Co33 O41 2.135 . S
O34 Co33 2.061 . S
O34 C37 1.235 . S
C35 O38 1.238 . S
C35 O39 1.241 . S
C36 O29 1.247 . S
C36 O30 1.261 . S
C37 O32 1.259 . S
C37 O34 1.235 . S
O38 Co28 2.021 . S
O38 C35 1.238 . S
O39 Co33 2.052 . S
O39 C35 1.241 . S
O40 Co28 2.137 . S
O40 C31 1.247 . S
O41 Co28 2.244 . S
O41 C31 1.272 . S
O41 Co33 2.135 . S
Co42 O43 2.216 . S
Co42 O44 2.091 . S
Co42 O46 2.004 . S
Co42 O52 2.021 . S
Co42 O54 2.137 . S
Co42 O55 2.244 . S
O43 Co42 2.216 . S
O43 C50 1.247 . S
O44 Co42 2.091 . S
O44 C50 1.261 . S
C45 O54 1.247 . S
C45 O55 1.272 . S
O46 Co42 2.004 . S
O46 C51 1.259 . S
Co47 O48 2.061 . S
Co47 O53 2.052 . S
Co47 O55 2.135 . S
O48 Co47 2.061 . S
O48 C51 1.235 . S
C49 O52 1.238 . S
C49 O53 1.241 . S
C50 O43 1.247 . S
C50 O44 1.261 . S
C51 O46 1.259 . S
C51 O48 1.235 . S
O52 Co42 2.021 . S
O52 C49 1.238 . S
O53 Co47 2.052 . S
O53 C49 1.241 . S
O54 Co42 2.137 . S
O54 C45 1.247 . S
O55 Co42 2.244 . S
O55 C45 1.272 . S
O55 Co47 2.135 . S
Co56 O57 2.216 . S
Co56 O58 2.091 . S
Co56 O60 2.004 . S
Co56 O66 2.021 . S
Co56 O68 2.137 . S
Co56 O69 2.244 . S
O57 Co56 2.216 . S
O57 C64 1.247 . S
O58 Co56 2.091 . S
O58 C64 1.261 . S
C59 O68 1.247 . S
C59 O69 1.272 . S
O60 Co56 2.004 . S
O60 C65 1.259 . S
Co61 O62 2.061 . S
Co61 O67 2.052 . S
Co61 O69 2.135 . S
O62 Co61 2.061 . S
O62 C65 1.235 . S
C63 O66 1.238 . S
C63 O67 1.241 . S
C64 O57 1.247 . S
C64 O58 1.261 . S
C65 O60 1.259 . S
C65 O62 1.235 . S
O66 Co56 2.021 . S
O66 C63 1.238 . S
O67 Co61 2.052 . S
O67 C63 1.241 . S
O68 Co56 2.137 . S
O68 C59 1.247 . S
O69 Co56 2.244 . S
O69 C59 1.272 . S
O69 Co61 2.135 . S
Co70 O71 2.216 . S
Co70 O72 2.091 . S
Co70 O74 2.004 . S
Co70 O80 2.021 . S
Co70 O82 2.137 . S
Co70 O83 2.244 . S
O71 Co70 2.216 . S
O71 C78 1.247 . S
O72 Co70 2.091 . S
O72 C78 1.261 . S
C73 O82 1.247 . S
C73 O83 1.272 . S
O74 Co70 2.004 . S
O74 C79 1.259 . S
Co75 O76 2.061 . S
Co75 O81 2.052 . S
Co75 O83 2.135 . S
O76 Co75 2.061 . S
O76 C79 1.235 . S
C77 O80 1.238 . S
C77 O81 1.241 . S
C78 O71 1.247 . S
C78 O72 1.261 . S
C79 O74 1.259 . S
C79 O76 1.235 . S
O80 Co70 2.021 . S
O80 C77 1.238 . S
O81 Co75 2.052 . S
O81 C77 1.241 . S
O82 Co70 2.137 . S
O82 C73 1.247 . S
O83 Co70 2.244 . S
O83 C73 1.272 . S
O83 Co75 2.135 . S
Co84 O85 2.216 . S
Co84 O86 2.091 . S
Co84 O88 2.004 . S
Co84 O94 2.021 . S
Co84 O96 2.137 . S
Co84 O97 2.244 . S
O85 Co84 2.216 . S
O85 C92 1.247 . S
O86 Co84 2.091 . S
O86 C92 1.261 . S
C87 O96 1.247 . S
C87 O97 1.272 . S
O88 Co84 2.004 . S
O88 C93 1.259 . S
Co89 O90 2.061 . S
Co89 O95 2.052 . S
Co89 O97 2.135 . S
O90 Co89 2.061 . S
O90 C93 1.235 . S
C91 O94 1.238 . S
C91 O95 1.241 . S
C92 O85 1.247 . S
C92 O86 1.261 . S
C93 O88 1.259 . S
C93 O90 1.235 . S
O94 Co84 2.021 . S
O94 C91 1.238 . S
O95 Co89 2.052 . S
O95 C91 1.241 . S
O96 Co84 2.137 . S
O96 C87 1.247 . S
O97 Co84 2.244 . S
O97 C87 1.272 . S
O97 Co89 2.135 . S
Co98 O99 2.216 . S
Co98 O100 2.091 . S
Co98 O102 2.004 . S
Co98 O108 2.021 . S
Co98 O110 2.137 . S
Co98 O111 2.244 . S
O99 Co98 2.216 . S
O99 C106 1.247 . S
O100 Co98 2.091 . S
O100 C106 1.261 . S
C101 O110 1.247 . S
C101 O111 1.272 . S
O102 Co98 2.004 . S
O102 C107 1.259 . S
Co103 O104 2.061 . S
Co103 O109 2.052 . S
Co103 O111 2.135 . S
O104 Co103 2.061 . S
O104 C107 1.235 . S
C105 O108 1.238 . S
C105 O109 1.241 . S
C106 O99 1.247 . S
C106 O100 1.261 . S
C107 O102 1.259 . S
C107 O104 1.235 . S
O108 Co98 2.021 . S
O108 C105 1.238 . S
O109 Co103 2.052 . S
O109 C105 1.241 . S
O110 Co98 2.137 . S
O110 C101 1.247 . S
O111 Co98 2.244 . S
O111 C101 1.272 . S
O111 Co103 2.135 . S
Co112 O113 2.216 . S
Co112 O114 2.091 . S
Co112 O116 2.004 . S
Co112 O122 2.021 . S
Co112 O124 2.137 . S
Co112 O125 2.244 . S
O113 Co112 2.216 . S
O113 C120 1.247 . S
O114 Co112 2.091 . S
O114 C120 1.261 . S
C115 O124 1.247 . S
C115 O125 1.272 . S
O116 Co112 2.004 . S
O116 C121 1.259 . S
Co117 O118 2.061 . S
Co117 O123 2.052 . S
Co117 O125 2.135 . S
O118 Co117 2.061 . S
O118 C121 1.235 . S
C119 O122 1.238 . S
C119 O123 1.241 . S
C120 O113 1.247 . S
C120 O114 1.261 . S
C121 O116 1.259 . S
C121 O118 1.235 . S
O122 Co112 2.021 . S
O122 C119 1.238 . S
O123 Co117 2.052 . S
O123 C119 1.241 . S
O124 Co112 2.137 . S
O124 C115 1.247 . S
O125 Co112 2.244 . S
O125 C115 1.272 . S
O125 Co117 2.135 . S
Co126 O127 2.216 . S
Co126 O128 2.091 . S
Co126 O130 2.004 . S
Co126 O136 2.021 . S
Co126 O138 2.131 1_556 S
Co126 O139 2.244 . S
O127 Co126 2.216 . S
O127 C134 1.247 . S
O128 Co126 2.091 . S
O128 C134 1.261 . S
C129 O138 1.241 1_556 S
C129 O139 1.272 . S
O130 Co126 2.004 . S
O130 C135 1.259 . S
Co131 O132 2.061 . S
Co131 O137 2.052 . S
Co131 O139 2.135 . S
O132 Co131 2.061 . S
O132 C135 1.235 . S
C133 O136 1.238 . S
C133 O137 1.241 . S
C134 O127 1.247 . S
C134 O128 1.261 . S
C135 O130 1.259 . S
C135 O132 1.235 . S
O136 Co126 2.021 . S
O136 C133 1.238 . S
O137 Co131 2.052 . S
O137 C133 1.241 . S
O138 Co126 2.131 1_554 S
O138 C129 1.241 1_554 S
O139 Co126 2.244 . S
O139 C129 1.272 . S
O139 Co131 2.135 . S
Co140 O141 2.216 . S
Co140 O142 2.091 . S
Co140 O144 2.004 . S
Co140 O150 2.021 . S
Co140 O152 2.137 . S
Co140 O153 2.244 . S
O141 Co140 2.216 . S
O141 C148 1.247 . S
O142 Co140 2.091 . S
O142 C148 1.261 . S
C143 O152 1.247 . S
C143 O153 1.272 . S
O144 Co140 2.004 . S
O144 C149 1.259 . S
Co145 O146 2.061 . S
Co145 O151 2.052 . S
Co145 O153 2.135 . S
O146 Co145 2.061 . S
O146 C149 1.235 . S
C147 O150 1.238 . S
C147 O151 1.241 . S
C148 O141 1.247 . S
C148 O142 1.261 . S
C149 O144 1.259 . S
C149 O146 1.235 . S
O150 Co140 2.021 . S
O150 C147 1.238 . S
O151 Co145 2.052 . S
O151 C147 1.241 . S
O152 Co140 2.137 . S
O152 C143 1.247 . S
O153 Co140 2.244 . S
O153 C143 1.272 . S
O153 Co145 2.135 . S
Co154 O155 2.216 . S
Co154 O156 2.091 . S
Co154 O158 2.004 . S
Co154 O164 2.021 . S
Co154 O166 2.137 . S
Co154 O167 2.244 . S
O155 Co154 2.216 . S
O155 C162 1.247 . S
O156 Co154 2.091 . S
O156 C162 1.261 . S
C157 O166 1.247 . S
C157 O167 1.272 . S
O158 Co154 2.004 . S
O158 C163 1.259 . S
Co159 O160 2.061 . S
Co159 O165 2.052 . S
Co159 O167 2.135 . S
O160 Co159 2.061 . S
O160 C163 1.235 . S
C161 O164 1.238 . S
C161 O165 1.241 . S
C162 O155 1.247 . S
C162 O156 1.261 . S
C163 O158 1.259 . S
C163 O160 1.235 . S
O164 Co154 2.021 . S
O164 C161 1.238 . S
O165 Co159 2.052 . S
O165 C161 1.241 . S
O166 Co154 2.137 . S
O166 C157 1.247 . S
O167 Co154 2.244 . S
O167 C157 1.272 . S
O167 Co159 2.135 . S
H168 C180 0.930 . S
H169 C182 0.930 . S
H170 C183 0.930 . S
H171 C187 0.959 . S
H172 C187 0.959 . S
H173 C187 0.961 . S
H174 C188 0.960 . S
H175 C188 0.961 . S
H176 C188 0.959 . S
H177 C191 0.929 . S
H178 C192 0.931 . S
H179 C194 0.930 . S
C180 H168 0.930 . S
C180 C181 1.399 . S
C180 C185 1.399 . S
C181 C180 1.399 . S
C181 C182 1.376 . S
C182 H169 0.930 . S
C182 C181 1.376 . S
C182 C183 1.388 . S
C183 H170 0.930 . S
C183 C182 1.388 . S
C183 C184 1.390 . S
C184 C183 1.390 . S
C184 C185 1.394 . S
C184 C190 1.465 . S
C185 C180 1.399 . S
C185 C184 1.394 . S
C185 C186 1.516 . S
C186 C185 1.516 . S
C186 C187 1.502 . S
C186 C188 1.561 . S
C186 C189 1.526 . S
C187 H171 0.959 . S
C187 H172 0.959 . S
C187 H173 0.961 . S
C187 C186 1.502 . S
C188 H174 0.960 . S
C188 H175 0.961 . S
C188 H176 0.959 . S
C188 C186 1.561 . S
C189 C186 1.526 . S
C189 C190 1.396 . S
C189 C194 1.390 . S
C190 C184 1.465 . S
C190 C189 1.396 . S
C190 C191 1.399 . S
C191 H177 0.929 . S
C191 C190 1.399 . S
C191 C192 1.385 . S
C192 H178 0.931 . S
C192 C191 1.385 . S
C192 C193 1.389 . S
C193 C192 1.389 . S
C193 C194 1.387 . S
C194 H179 0.930 . S
C194 C189 1.390 . S
C194 C193 1.387 . S
H195 C207 0.930 . S
H196 C209 0.930 . S
H197 C210 0.930 . S
H198 C214 0.959 . S
H199 C214 0.959 . S
H200 C214 0.961 . S
H201 C215 0.960 . S
H202 C215 0.961 . S
H203 C215 0.959 . S
H204 C218 0.929 . S
H205 C219 0.931 . S
H206 C221 0.930 . S
C207 H195 0.930 . S
C207 C208 1.399 . S
C207 C212 1.399 . S
C208 C207 1.399 . S
C208 C209 1.376 . S
C209 H196 0.930 . S
C209 C208 1.376 . S
C209 C210 1.388 . S
C210 H197 0.930 . S
C210 C209 1.388 . S
C210 C211 1.390 . S
C211 C210 1.390 . S
C211 C212 1.394 . S
C211 C217 1.465 . S
C212 C207 1.399 . S
C212 C211 1.394 . S
C212 C213 1.516 . S
C213 C212 1.516 . S
C213 C214 1.502 . S
C213 C215 1.561 . S
C213 C216 1.526 . S
C214 H198 0.959 . S
C214 H199 0.959 . S
C214 H200 0.961 . S
C214 C213 1.502 . S
C215 H201 0.960 . S
C215 H202 0.961 . S
C215 H203 0.959 . S
C215 C213 1.561 . S
C216 C213 1.526 . S
C216 C217 1.396 . S
C216 C221 1.390 . S
C217 C211 1.465 . S
C217 C216 1.396 . S
C217 C218 1.399 . S
C218 H204 0.929 . S
C218 C217 1.399 . S
C218 C219 1.385 . S
C219 H205 0.931 . S
C219 C218 1.385 . S
C219 C220 1.389 . S
C220 C219 1.389 . S
C220 C221 1.387 . S
C221 H206 0.930 . S
C221 C216 1.390 . S
C221 C220 1.387 . S
H222 C234 0.930 . S
H223 C236 0.930 . S
H224 C237 0.930 . S
H225 C241 0.959 . S
H226 C241 0.959 . S
H227 C241 0.961 . S
H228 C242 0.960 . S
H229 C242 0.961 . S
H230 C242 0.959 . S
H231 C245 0.929 . S
H232 C246 0.931 . S
H233 C248 0.930 . S
C234 H222 0.930 . S
C234 C235 1.399 . S
C234 C239 1.399 . S
C235 C234 1.399 . S
C235 C236 1.376 . S
C236 H223 0.930 . S
C236 C235 1.376 . S
C236 C237 1.388 . S
C237 H224 0.930 . S
C237 C236 1.388 . S
C237 C238 1.390 . S
C238 C237 1.390 . S
C238 C239 1.394 . S
C238 C244 1.465 . S
C239 C234 1.399 . S
C239 C238 1.394 . S
C239 C240 1.516 . S
C240 C239 1.516 . S
C240 C241 1.502 . S
C240 C242 1.561 . S
C240 C243 1.526 . S
C241 H225 0.959 . S
C241 H226 0.959 . S
C241 H227 0.961 . S
C241 C240 1.502 . S
C242 H228 0.960 . S
C242 H229 0.961 . S
C242 H230 0.959 . S
C242 C240 1.561 . S
C243 C240 1.526 . S
C243 C244 1.396 . S
C243 C248 1.390 . S
C244 C238 1.465 . S
C244 C243 1.396 . S
C244 C245 1.399 . S
C245 H231 0.929 . S
C245 C244 1.399 . S
C245 C246 1.385 . S
C246 H232 0.931 . S
C246 C245 1.385 . S
C246 C247 1.389 . S
C247 C246 1.389 . S
C247 C248 1.387 . S
C248 H233 0.930 . S
C248 C243 1.390 . S
C248 C247 1.387 . S
H249 C261 0.930 . S
H250 C263 0.930 . S
H251 C264 0.930 . S
H252 C268 0.959 . S
H253 C268 0.959 . S
H254 C268 0.961 . S
H255 C269 0.960 . S
H256 C269 0.961 . S
H257 C269 0.959 . S
H258 C272 0.929 . S
H259 C273 0.931 . S
H260 C275 0.930 . S
C261 H249 0.930 . S
C261 C262 1.399 . S
C261 C266 1.399 . S
C262 C261 1.399 . S
C262 C263 1.376 . S
C263 H250 0.930 . S
C263 C262 1.376 . S
C263 C264 1.388 . S
C264 H251 0.930 . S
C264 C263 1.388 . S
C264 C265 1.390 . S
C265 C264 1.390 . S
C265 C266 1.394 . S
C265 C271 1.465 . S
C266 C261 1.399 . S
C266 C265 1.394 . S
C266 C267 1.516 . S
C267 C266 1.516 . S
C267 C268 1.502 . S
C267 C269 1.561 . S
C267 C270 1.526 . S
C268 H252 0.959 . S
C268 H253 0.959 . S
C268 H254 0.961 . S
C268 C267 1.502 . S
C269 H255 0.960 . S
C269 H256 0.961 . S
C269 H257 0.959 . S
C269 C267 1.561 . S
C270 C267 1.526 . S
C270 C271 1.396 . S
C270 C275 1.390 . S
C271 C265 1.465 . S
C271 C270 1.396 . S
C271 C272 1.399 . S
C272 H258 0.929 . S
C272 C271 1.399 . S
C272 C273 1.385 . S
C273 H259 0.931 . S
C273 C272 1.385 . S
C273 C274 1.389 . S
C274 C273 1.389 . S
C274 C275 1.387 . S
C275 H260 0.930 . S
C275 C270 1.390 . S
C275 C274 1.387 . S
H276 C288 0.930 . S
H277 C290 0.930 . S
H278 C291 0.930 . S
H279 C295 0.959 . S
H280 C295 0.959 . S
H281 C295 0.961 . S
H282 C296 0.960 . S
H283 C296 0.961 . S
H284 C296 0.959 . S
H285 C299 0.929 . S
H286 C300 0.931 . S
H287 C302 0.930 . S
C288 H276 0.930 . S
C288 C289 1.399 . S
C288 C293 1.399 . S
C289 C288 1.399 . S
C289 C290 1.376 . S
C290 H277 0.930 . S
C290 C289 1.376 . S
C290 C291 1.388 . S
C291 H278 0.930 . S
C291 C290 1.388 . S
C291 C292 1.390 . S
C292 C291 1.390 . S
C292 C293 1.394 . S
C292 C298 1.465 . S
C293 C288 1.399 . S
C293 C292 1.394 . S
C293 C294 1.516 . S
C294 C293 1.516 . S
C294 C295 1.502 . S
C294 C296 1.561 . S
C294 C297 1.526 . S
C295 H279 0.959 . S
C295 H280 0.959 . S
C295 H281 0.961 . S
C295 C294 1.502 . S
C296 H282 0.960 . S
C296 H283 0.961 . S
C296 H284 0.959 . S
C296 C294 1.561 . S
C297 C294 1.526 . S
C297 C298 1.396 . S
C297 C302 1.390 . S
C298 C292 1.465 . S
C298 C297 1.396 . S
C298 C299 1.399 . S
C299 H285 0.929 . S
C299 C298 1.399 . S
C299 C300 1.385 . S
C300 H286 0.931 . S
C300 C299 1.385 . S
C300 C301 1.389 . S
C301 C300 1.389 . S
C301 C302 1.387 . S
C302 H287 0.930 . S
C302 C297 1.390 . S
C302 C301 1.387 . S
H303 C315 0.930 . S
H304 C317 0.930 . S
H305 C318 0.930 . S
H306 C322 0.959 . S
H307 C322 0.959 . S
H308 C322 0.961 . S
H309 C323 0.960 . S
H310 C323 0.961 . S
H311 C323 0.959 . S
H312 C326 0.929 . S
H313 C327 0.931 . S
H314 C329 0.930 . S
C315 H303 0.930 . S
C315 C316 1.399 . S
C315 C320 1.399 . S
C316 C315 1.399 . S
C316 C317 1.376 . S
C317 H304 0.930 . S
C317 C316 1.376 . S
C317 C318 1.388 . S
C318 H305 0.930 . S
C318 C317 1.388 . S
C318 C319 1.390 . S
C319 C318 1.390 . S
C319 C320 1.394 . S
C319 C325 1.465 . S
C320 C315 1.399 . S
C320 C319 1.394 . S
C320 C321 1.516 . S
C321 C320 1.516 . S
C321 C322 1.502 . S
C321 C323 1.561 . S
C321 C324 1.526 . S
C322 H306 0.959 . S
C322 H307 0.959 . S
C322 H308 0.961 . S
C322 C321 1.502 . S
C323 H309 0.960 . S
C323 H310 0.961 . S
C323 H311 0.959 . S
C323 C321 1.561 . S
C324 C321 1.526 . S
C324 C325 1.396 . S
C324 C329 1.390 . S
C325 C319 1.465 . S
C325 C324 1.396 . S
C325 C326 1.399 . S
C326 H312 0.929 . S
C326 C325 1.399 . S
C326 C327 1.385 . S
C327 H313 0.931 . S
C327 C326 1.385 . S
C327 C328 1.389 . S
C328 C327 1.389 . S
C328 C329 1.387 . S
C329 H314 0.930 . S
C329 C324 1.390 . S
C329 C328 1.387 . S
H330 C342 0.930 . S
H331 C344 0.930 . S
H332 C345 0.930 . S
H333 C349 0.959 . S
H334 C349 0.959 . S
H335 C349 0.961 . S
H336 C350 0.960 . S
H337 C350 0.961 1_565 S
H338 C350 0.959 1_565 S
H339 C353 0.929 . S
H340 C354 0.931 . S
H341 C356 0.930 . S
C342 H330 0.930 . S
C342 C343 1.399 1_556 S
C342 C347 1.399 . S
C343 C342 1.399 1_554 S
C343 C344 1.376 . S
C344 H331 0.930 . S
C344 C343 1.376 . S
C344 C345 1.388 . S
C345 H332 0.930 . S
C345 C344 1.388 . S
C345 C346 1.390 . S
C346 C345 1.390 . S
C346 C347 1.394 1_554 S
C346 C352 1.465 1_545 S
C347 C342 1.399 . S
C347 C346 1.394 1_556 S
C347 C348 1.516 . S
C348 C347 1.516 . S
C348 C349 1.502 . S
C348 C350 1.561 . S
C348 C351 1.526 1_545 S
C349 H333 0.959 . S
C349 H334 0.959 . S
C349 H335 0.961 . S
C349 C348 1.502 . S
C350 H336 0.960 . S
C350 H337 0.961 1_545 S
C350 H338 0.959 1_545 S
C350 C348 1.561 . S
C351 C348 1.526 1_565 S
C351 C352 1.396 1_556 S
C351 C356 1.390 . S
C352 C346 1.465 1_565 S
C352 C351 1.396 1_554 S
C352 C353 1.399 . S
C353 H339 0.929 . S
C353 C352 1.399 . S
C353 C354 1.385 . S
C354 H340 0.931 . S
C354 C353 1.385 . S
C354 C355 1.389 1_554 S
C355 C354 1.389 1_556 S
C355 C356 1.387 . S
C356 H341 0.930 . S
C356 C351 1.390 . S
C356 C355 1.387 . S
H357 C369 0.930 . S
H358 C371 0.930 . S
H359 C372 0.930 . S
H360 C376 0.959 . S
H361 C376 0.959 . S
H362 C376 0.961 . S
H363 C377 0.960 . S
H364 C377 0.961 . S
H365 C377 0.959 . S
H366 C380 0.929 . S
H367 C381 0.931 . S
H368 C383 0.930 . S
C369 H357 0.930 . S
C369 C370 1.399 . S
C369 C374 1.399 . S
C370 C369 1.399 . S
C370 C371 1.376 . S
C371 H358 0.930 . S
C371 C370 1.376 . S
C371 C372 1.388 . S
C372 H359 0.930 . S
C372 C371 1.388 . S
C372 C373 1.390 . S
C373 C372 1.390 . S
C373 C374 1.394 . S
C373 C379 1.465 . S
C374 C369 1.399 . S
C374 C373 1.394 . S
C374 C375 1.516 . S
C375 C374 1.516 . S
C375 C376 1.502 . S
C375 C377 1.561 . S
C375 C378 1.526 . S
C376 H360 0.959 . S
C376 H361 0.959 . S
C376 H362 0.961 . S
C376 C375 1.502 . S
C377 H363 0.960 . S
C377 H364 0.961 . S
C377 H365 0.959 . S
C377 C375 1.561 . S
C378 C375 1.526 . S
C378 C379 1.396 . S
C378 C383 1.390 . S
C379 C373 1.465 . S
C379 C378 1.396 . S
C379 C380 1.399 . S
C380 H366 0.929 . S
C380 C379 1.399 . S
C380 C381 1.385 . S
C381 H367 0.931 . S
C381 C380 1.385 . S
C381 C382 1.389 . S
C382 C381 1.389 . S
C382 C383 1.387 . S
C383 H368 0.930 . S
C383 C378 1.390 . S
C383 C382 1.387 . S
H384 C396 0.930 . S
H385 C398 0.930 . S
H386 C399 0.930 . S
H387 C403 0.959 . S
H388 C403 0.959 . S
H389 C403 0.961 . S
H390 C404 0.960 . S
H391 C404 0.961 1_655 S
H392 C404 0.959 . S
H393 C407 0.929 . S
H394 C408 0.931 . S
H395 C410 0.930 . S
C396 H384 0.930 . S
C396 C397 1.399 . S
C396 C401 1.399 . S
C397 C396 1.399 . S
C397 C398 1.376 1_556 S
C398 H385 0.930 . S
C398 C397 1.376 1_554 S
C398 C399 1.388 . S
C399 H386 0.930 . S
C399 C398 1.388 . S
C399 C400 1.390 . S
C400 C399 1.390 . S
C400 C401 1.394 1_554 S
C400 C406 1.465 1_455 S
C401 C396 1.399 . S
C401 C400 1.394 1_556 S
C401 C402 1.516 1_455 S
C402 C401 1.516 1_655 S
C402 C403 1.502 . S
C402 C404 1.561 1_655 S
C402 C405 1.526 . S
C403 H387 0.959 . S
C403 H388 0.959 . S
C403 H389 0.961 . S
C403 C402 1.502 . S
C404 H390 0.960 . S
C404 H391 0.961 1_455 S
C404 H392 0.959 . S
C404 C402 1.561 1_455 S
C405 C402 1.526 . S
C405 C406 1.396 1_556 S
C405 C410 1.390 . S
C406 C400 1.465 1_655 S
C406 C405 1.396 1_554 S
C406 C407 1.399 . S
C407 H393 0.929 . S
C407 C406 1.399 . S
C407 C408 1.385 . S
C408 H394 0.931 . S
C408 C407 1.385 . S
C408 C409 1.389 . S
C409 C408 1.389 . S
C409 C410 1.387 1_554 S
C410 H395 0.930 . S
C410 C405 1.390 . S
C410 C409 1.387 1_556 S
H411 C423 0.930 . S
H412 C425 0.930 . S
H413 C426 0.930 . S
H414 C430 0.959 . S
H415 C430 0.959 . S
H416 C430 0.961 . S
H417 C431 0.960 . S
H418 C431 0.961 . S
H419 C431 0.959 . S
H420 C434 0.929 . S
H421 C435 0.931 . S
H422 C437 0.930 . S
C423 H411 0.930 . S
C423 C424 1.399 . S
C423 C428 1.399 . S
C424 C423 1.399 . S
C424 C425 1.376 . S
C425 H412 0.930 . S
C425 C424 1.376 . S
C425 C426 1.388 . S
C426 H413 0.930 . S
C426 C425 1.388 . S
C426 C427 1.390 . S
C427 C426 1.390 . S
C427 C428 1.394 . S
C427 C433 1.465 1_545 S
C428 C423 1.399 . S
C428 C427 1.394 . S
C428 C429 1.516 . S
C429 C428 1.516 . S
C429 C430 1.502 . S
C429 C431 1.561 . S
C429 C432 1.526 1_545 S
C430 H414 0.959 . S
C430 H415 0.959 . S
C430 H416 0.961 . S
C430 C429 1.502 . S
C431 H417 0.960 . S
C431 H418 0.961 . S
C431 H419 0.959 . S
C431 C429 1.561 . S
C432 C429 1.526 1_565 S
C432 C433 1.396 . S
C432 C437 1.390 . S
C433 C427 1.465 1_565 S
C433 C432 1.396 . S
C433 C434 1.399 . S
C434 H420 0.929 . S
C434 C433 1.399 . S
C434 C435 1.385 . S
C435 H421 0.931 . S
C435 C434 1.385 . S
C435 C436 1.389 . S
C436 C435 1.389 . S
C436 C437 1.387 . S
C437 H422 0.930 . S
C437 C432 1.390 . S
C437 C436 1.387 . S
H438 C450 0.930 . S
H439 C452 0.930 . S
H440 C453 0.930 . S
H441 C457 0.977 . S
H442 C457 0.959 . S
H443 C457 0.961 . S
H444 C458 0.960 . S
H445 C458 0.961 . S
H446 C458 0.959 . S
H447 C461 0.929 . S
H448 C462 0.931 . S
H449 C464 0.930 . S
C450 H438 0.930 . S
C450 C451 1.399 1_554 S
C450 C455 1.399 . S
C451 C450 1.399 1_556 S
C451 C452 1.376 . S
C452 H439 0.930 . S
C452 C451 1.376 . S
C452 C453 1.388 . S
C453 H440 0.930 . S
C453 C452 1.388 . S
C453 C454 1.390 . S
C454 C453 1.390 . S
C454 C455 1.394 1_556 S
C454 C460 1.465 . S
C455 C450 1.399 . S
C455 C454 1.394 1_554 S
C455 C456 1.516 . S
C456 C455 1.516 . S
C456 C457 1.502 . S
C456 C458 1.561 . S
C456 C459 1.526 . S
C457 H441 0.977 . S
C457 H442 0.959 . S
C457 H443 0.961 . S
C457 C456 1.502 . S
C458 H444 0.960 . S
C458 H445 0.961 . S
C458 H446 0.959 . S
C458 C456 1.561 . S
C459 C456 1.526 . S
C459 C460 1.396 1_554 S
C459 C464 1.390 . S
C460 C454 1.465 . S
C460 C459 1.396 1_556 S
C460 C461 1.399 . S
C461 H447 0.929 . S
C461 C460 1.399 . S
C461 C462 1.385 . S
C462 H448 0.931 . S
C462 C461 1.385 . S
C462 C463 1.389 1_556 S
C463 C462 1.389 1_554 S
C463 C464 1.387 . S
C464 H449 0.930 . S
C464 C459 1.390 . S
C464 C463 1.387 . S
H465 C477 0.930 . S
H466 C479 0.930 . S
H467 C480 0.930 . S
H468 C484 0.959 . S
H469 C484 0.959 1_455 S
H470 C484 0.961 . S
H471 C485 0.960 1_655 S
H472 C485 0.961 . S
H473 C485 0.959 . S
H474 C488 0.929 . S
H475 C489 0.931 . S
H476 C491 0.930 . S
C477 H465 0.930 . S
C477 C478 1.399 . S
C477 C482 1.399 . S
C478 C477 1.399 . S
C478 C479 1.376 . S
C479 H466 0.930 . S
C479 C478 1.376 . S
C479 C480 1.388 . S
C480 H467 0.930 . S
C480 C479 1.388 . S
C480 C481 1.390 . S
C481 C480 1.390 . S
C481 C482 1.394 . S
C481 C487 1.465 1_655 S
C482 C477 1.399 . S
C482 C481 1.394 . S
C482 C483 1.516 1_655 S
C483 C482 1.516 1_455 S
C483 C484 1.502 1_455 S
C483 C485 1.561 . S
C483 C486 1.526 . S
C484 H468 0.959 . S
C484 H469 0.959 1_655 S
C484 H470 0.961 . S
C484 C483 1.502 1_655 S
C485 H471 0.960 1_455 S
C485 H472 0.961 . S
C485 H473 0.959 . S
C485 C483 1.561 . S
C486 C483 1.526 . S
C486 C487 1.396 . S
C486 C491 1.390 . S
C487 C481 1.465 1_455 S
C487 C486 1.396 . S
C487 C488 1.399 . S
C488 H474 0.929 . S
C488 C487 1.399 . S
C488 C489 1.385 . S
C489 H475 0.931 . S
C489 C488 1.385 . S
C489 C490 1.389 . S
C490 C489 1.389 . S
C490 C491 1.387 . S
C491 H476 0.930 . S
C491 C486 1.390 . S
C491 C490 1.387 . S
H492 C504 0.930 . S
H493 C506 0.930 . S
H494 C507 0.930 . S
H495 C511 0.967 . S
H496 C511 0.959 . S
H497 C511 0.961 . S
H498 C512 0.960 . S
H499 C512 0.961 . S
H500 C512 0.959 . S
H501 C515 0.929 . S
H502 C516 0.931 . S
H503 C518 0.930 1_556 S
C504 H492 0.930 . S
C504 C505 1.399 . S
C504 C509 1.399 . S
C505 C504 1.399 . S
C505 C506 1.376 . S
C506 H493 0.930 . S
C506 C505 1.376 . S
C506 C507 1.388 . S
C507 H494 0.930 . S
C507 C506 1.388 . S
C507 C508 1.390 . S
C508 C507 1.390 . S
C508 C509 1.394 . S
C508 C514 1.465 . S
C509 C504 1.399 . S
C509 C508 1.394 . S
C509 C510 1.516 1_554 S
C510 C509 1.516 1_556 S
C510 C511 1.502 . S
C510 C512 1.561 . S
C510 C513 1.526 1_556 S
C511 H495 0.967 . S
C511 H496 0.959 . S
C511 H497 0.961 . S
C511 C510 1.502 . S
C512 H498 0.960 . S
C512 H499 0.961 . S
C512 H500 0.959 . S
C512 C510 1.561 . S
C513 C510 1.526 1_554 S
C513 C514 1.396 . S
C513 C518 1.390 . S
C514 C508 1.465 . S
C514 C513 1.396 . S
C514 C515 1.399 . S
C515 H501 0.929 . S
C515 C514 1.399 . S
C515 C516 1.385 . S
C516 H502 0.931 . S
C516 C515 1.385 . S
C516 C517 1.389 . S
C517 C516 1.389 . S
C517 C518 1.387 . S
C518 H503 0.930 1_554 S
C518 C513 1.390 . S
C518 C517 1.387 . S
H519 C531 0.930 . S
H520 C533 0.930 . S
H521 C534 0.930 . S
H522 C538 0.959 . S
H523 C538 0.959 . S
H524 C538 0.961 . S
H525 C539 0.960 . S
H526 C539 0.961 . S
H527 C539 0.959 . S
H528 C542 0.929 . S
H529 C543 0.931 . S
H530 C545 0.930 . S
C531 H519 0.930 . S
C531 C532 1.399 . S
C531 C536 1.399 . S
C532 C531 1.399 . S
C532 C533 1.376 . S
C533 H520 0.930 . S
C533 C532 1.376 . S
C533 C534 1.388 . S
C534 H521 0.930 . S
C534 C533 1.388 . S
C534 C535 1.390 . S
C535 C534 1.390 . S
C535 C536 1.394 . S
C535 C541 1.465 . S
C536 C531 1.399 . S
C536 C535 1.394 . S
C536 C537 1.516 . S
C537 C536 1.516 . S
C537 C538 1.502 . S
C537 C539 1.561 . S
C537 C540 1.526 . S
C538 H522 0.959 . S
C538 H523 0.959 . S
C538 H524 0.961 . S
C538 C537 1.502 . S
C539 H525 0.960 . S
C539 H526 0.961 . S
C539 H527 0.959 . S
C539 C537 1.561 . S
C540 C537 1.526 . S
C540 C541 1.396 . S
C540 C545 1.390 . S
C541 C535 1.465 . S
C541 C540 1.396 . S
C541 C542 1.399 . S
C542 H528 0.929 . S
C542 C541 1.399 . S
C542 C543 1.385 . S
C543 H529 0.931 . S
C543 C542 1.385 . S
C543 C544 1.389 . S
C544 C543 1.389 . S
C544 C545 1.387 . S
C545 H530 0.930 . S
C545 C540 1.390 . S
C545 C544 1.387 . S
H546 C558 0.930 . S
H547 C560 0.930 1_556 S
H548 C561 0.930 . S
H549 C565 0.959 . S
H550 C565 0.959 . S
H551 C565 0.961 . S
H552 C566 0.960 . S
H553 C566 0.961 . S
H554 C566 0.959 . S
H555 C569 0.929 . S
H556 C570 0.931 . S
H557 C572 0.930 . S
C558 H546 0.930 . S
C558 C559 1.399 . S
C558 C563 1.399 . S
C559 C558 1.399 . S
C559 C560 1.376 . S
C560 H547 0.930 1_554 S
C560 C559 1.376 . S
C560 C561 1.388 1_554 S
C561 H548 0.930 . S
C561 C560 1.388 1_556 S
C561 C562 1.390 1_556 S
C562 C561 1.390 1_554 S
C562 C563 1.394 . S
C562 C568 1.465 . S
C563 C558 1.399 . S
C563 C562 1.394 . S
C563 C564 1.516 . S
C564 C563 1.516 . S
C564 C565 1.502 . S
C564 C566 1.561 . S
C564 C567 1.526 . S
C565 H549 0.959 . S
C565 H550 0.959 . S
C565 H551 0.961 . S
C565 C564 1.502 . S
C566 H552 0.960 . S
C566 H553 0.961 . S
C566 H554 0.959 . S
C566 C564 1.561 . S
C567 C564 1.526 . S
C567 C568 1.396 . S
C567 C572 1.390 . S
C568 C562 1.465 . S
C568 C567 1.396 . S
C568 C569 1.399 1_554 S
C569 H555 0.929 . S
C569 C568 1.399 1_556 S
C569 C570 1.385 . S
C570 H556 0.931 . S
C570 C569 1.385 . S
C570 C571 1.389 1_556 S
C571 C570 1.389 1_554 S
C571 C572 1.387 . S
C572 H557 0.930 . S
C572 C567 1.390 . S
C572 C571 1.387 . S
H573 C585 0.930 . S
H574 C587 0.930 . S
H575 C588 0.930 . S
H576 C592 0.959 . S
H577 C592 0.959 . S
H578 C592 0.961 . S
H579 C593 0.960 . S
H580 C593 0.961 . S
H581 C593 0.959 . S
H582 C596 0.929 . S
H583 C597 0.931 . S
H584 C599 0.930 . S
C585 H573 0.930 . S
C585 C586 1.399 . S
C585 C590 1.399 . S
C586 C585 1.399 . S
C586 C587 1.376 . S
C587 H574 0.930 . S
C587 C586 1.376 . S
C587 C588 1.388 . S
C588 H575 0.930 . S
C588 C587 1.388 . S
C588 C589 1.390 . S
C589 C588 1.390 . S
C589 C590 1.394 . S
C589 C595 1.465 . S
C590 C585 1.399 . S
C590 C589 1.394 . S
C590 C591 1.516 . S
C591 C590 1.516 . S
C591 C592 1.502 . S
C591 C593 1.561 . S
C591 C594 1.526 . S
C592 H576 0.959 . S
C592 H577 0.959 . S
C592 H578 0.961 . S
C592 C591 1.502 . S
C593 H579 0.960 . S
C593 H580 0.961 . S
C593 H581 0.959 . S
C593 C591 1.561 . S
C594 C591 1.526 . S
C594 C595 1.396 . S
C594 C599 1.390 . S
C595 C589 1.465 . S
C595 C594 1.396 . S
C595 C596 1.399 . S
C596 H582 0.929 . S
C596 C595 1.399 . S
C596 C597 1.385 . S
C597 H583 0.931 . S
C597 C596 1.385 . S
C597 C598 1.389 . S
C598 C597 1.389 . S
C598 C599 1.387 . S
C599 H584 0.930 . S
C599 C594 1.390 . S
C599 C598 1.387 . S
H600 C612 0.930 . S
H601 C614 0.930 . S
H602 C615 0.930 . S
H603 C619 0.959 . S
H604 C619 0.959 . S
H605 C619 0.961 . S
H606 C620 0.960 . S
H607 C620 0.961 . S
H608 C620 0.959 . S
H609 C623 0.929 . S
H610 C624 0.931 . S
H611 C626 0.930 1_556 S
C612 H600 0.930 . S
C612 C613 1.399 . S
C612 C617 1.399 . S
C613 C612 1.399 . S
C613 C614 1.376 . S
C614 H601 0.930 . S
C614 C613 1.376 . S
C614 C615 1.388 . S
C615 H602 0.930 . S
C615 C614 1.388 . S
C615 C616 1.390 . S
C616 C615 1.390 . S
C616 C617 1.394 . S
C616 C622 1.465 . S
C617 C612 1.399 . S
C617 C616 1.394 . S
C617 C618 1.516 . S
C618 C617 1.516 . S
C618 C619 1.502 . S
C618 C620 1.561 1_554 S
C618 C621 1.526 . S
C619 H603 0.959 . S
C619 H604 0.959 . S
C619 H605 0.961 . S
C619 C618 1.502 . S
C620 H606 0.960 . S
C620 H607 0.961 . S
C620 H608 0.959 . S
C620 C618 1.561 1_556 S
C621 C618 1.526 . S
C621 C622 1.396 . S
C621 C626 1.390 . S
C622 C616 1.465 . S
C622 C621 1.396 . S
C622 C623 1.399 . S
C623 H609 0.929 . S
C623 C622 1.399 . S
C623 C624 1.385 . S
C624 H610 0.931 . S
C624 C623 1.385 . S
C624 C625 1.389 . S
C625 C624 1.389 . S
C625 C626 1.387 . S
C626 H611 0.930 1_554 S
C626 C621 1.390 . S
C626 C625 1.387 . S
H627 C639 0.930 . S
H628 C641 0.930 . S
H629 C642 0.930 . S
H630 C646 0.959 . S
H631 C646 0.959 . S
H632 C646 0.961 . S
H633 C647 0.960 . S
H634 C647 0.961 . S
H635 C647 0.959 . S
H636 C650 0.929 . S
H637 C651 0.931 . S
H638 C653 0.930 . S
C639 H627 0.930 . S
C639 C640 1.399 . S
C639 C644 1.399 . S
C640 C639 1.399 . S
C640 C641 1.376 . S
C641 H628 0.930 . S
C641 C640 1.376 . S
C641 C642 1.388 . S
C642 H629 0.930 . S
C642 C641 1.388 . S
C642 C643 1.390 . S
C643 C642 1.390 . S
C643 C644 1.394 . S
C643 C649 1.465 . S
C644 C639 1.399 . S
C644 C643 1.394 . S
C644 C645 1.516 . S
C645 C644 1.516 . S
C645 C646 1.502 . S
C645 C647 1.561 . S
C645 C648 1.526 . S
C646 H630 0.959 . S
C646 H631 0.959 . S
C646 H632 0.961 . S
C646 C645 1.502 . S
C647 H633 0.960 . S
C647 H634 0.961 . S
C647 H635 0.959 . S
C647 C645 1.561 . S
C648 C645 1.526 . S
C648 C649 1.396 . S
C648 C653 1.390 . S
C649 C643 1.465 . S
C649 C648 1.396 . S
C649 C650 1.399 . S
C650 H636 0.929 . S
C650 C649 1.399 . S
C650 C651 1.385 . S
C651 H637 0.931 . S
C651 C650 1.385 . S
C651 C652 1.389 . S
C652 C651 1.389 . S
C652 C653 1.387 . S
C653 H638 0.930 . S
C653 C648 1.390 . S
C653 C652 1.387 . S
H654 C666 0.930 . S
H655 C668 0.930 . S
H656 C669 0.930 . S
H657 C673 0.959 . S
H658 C673 0.959 . S
H659 C673 0.961 . S
H660 C674 0.960 . S
H661 C674 0.961 . S
H662 C674 0.959 . S
H663 C677 0.929 . S
H664 C678 0.931 . S
H665 C680 0.930 . S
C666 H654 0.930 . S
C666 C667 1.399 . S
C666 C671 1.399 . S
C667 C666 1.399 . S
C667 C668 1.376 . S
C668 H655 0.930 . S
C668 C667 1.376 . S
C668 C669 1.388 . S
C669 H656 0.930 . S
C669 C668 1.388 . S
C669 C670 1.390 . S
C670 C669 1.390 . S
C670 C671 1.394 . S
C670 C676 1.465 . S
C671 C666 1.399 . S
C671 C670 1.394 . S
C671 C672 1.516 . S
C672 C671 1.516 . S
C672 C673 1.502 . S
C672 C674 1.561 . S
C672 C675 1.526 . S
C673 H657 0.959 . S
C673 H658 0.959 . S
C673 H659 0.961 . S
C673 C672 1.502 . S
C674 H660 0.960 . S
C674 H661 0.961 . S
C674 H662 0.959 . S
C674 C672 1.561 . S
C675 C672 1.526 . S
C675 C676 1.396 . S
C675 C680 1.390 . S
C676 C670 1.465 . S
C676 C675 1.396 . S
C676 C677 1.399 . S
C677 H663 0.929 . S
C677 C676 1.399 . S
C677 C678 1.385 . S
C678 H664 0.931 . S
C678 C677 1.385 . S
C678 C679 1.389 . S
C679 C678 1.389 . S
C679 C680 1.387 . S
C680 H665 0.930 . S
C680 C675 1.390 . S
C680 C679 1.387 . S
H681 C693 0.930 . S
H682 C695 0.930 . S
H683 C696 0.930 1_554 S
H684 C700 0.959 . S
H685 C700 0.959 . S
H686 C700 0.961 . S
H687 C701 0.960 . S
H688 C701 0.961 . S
H689 C701 0.959 . S
H690 C704 0.929 . S
H691 C705 0.931 . S
H692 C707 0.930 . S
C693 H681 0.930 . S
C693 C694 1.399 . S
C693 C698 1.399 . S
C694 C693 1.399 . S
C694 C695 1.376 . S
C695 H682 0.930 . S
C695 C694 1.376 . S
C695 C696 1.388 . S
C696 H683 0.930 1_556 S
C696 C695 1.388 . S
C696 C697 1.390 . S
C697 C696 1.390 . S
C697 C698 1.394 . S
C697 C703 1.465 . S
C698 C693 1.399 . S
C698 C697 1.394 . S
C698 C699 1.516 . S
C699 C698 1.516 . S
C699 C700 1.502 . S
C699 C701 1.561 . S
C699 C702 1.526 . S
C700 H684 0.959 . S
C700 H685 0.959 . S
C700 H686 0.961 . S
C700 C699 1.502 . S
C701 H687 0.960 . S
C701 H688 0.961 . S
C701 H689 0.959 . S
C701 C699 1.561 . S
C702 C699 1.526 . S
C702 C703 1.396 . S
C702 C707 1.390 . S
C703 C697 1.465 . S
C703 C702 1.396 . S
C703 C704 1.399 1_556 S
C704 H690 0.929 . S
C704 C703 1.399 1_554 S
C704 C705 1.385 . S
C705 H691 0.931 . S
C705 C704 1.385 . S
C705 C706 1.389 1_554 S
C706 C705 1.389 1_556 S
C706 C707 1.387 . S
C707 H692 0.930 . S
C707 C702 1.390 . S
C707 C706 1.387 . S
H708 C720 0.930 . S
H709 C722 0.930 . S
H710 C723 0.930 . S
H711 C727 0.959 . S
H712 C727 0.959 . S
H713 C727 0.961 . S
H714 C728 0.960 . S
H715 C728 0.961 . S
H716 C728 0.959 . S
H717 C731 0.929 . S
H718 C732 0.931 . S
H719 C734 0.930 . S
C720 H708 0.930 . S
C720 C721 1.399 . S
C720 C725 1.399 . S
C721 C720 1.399 . S
C721 C722 1.376 . S
C722 H709 0.930 . S
C722 C721 1.376 . S
C722 C723 1.388 . S
C723 H710 0.930 . S
C723 C722 1.388 . S
C723 C724 1.390 . S
C724 C723 1.390 . S
C724 C725 1.394 . S
C724 C730 1.465 . S
C725 C720 1.399 . S
C725 C724 1.394 . S
C725 C726 1.516 . S
C726 C725 1.516 . S
C726 C727 1.502 . S
C726 C728 1.561 . S
C726 C729 1.526 . S
C727 H711 0.959 . S
C727 H712 0.959 . S
C727 H713 0.961 . S
C727 C726 1.502 . S
C728 H714 0.960 . S
C728 H715 0.961 . S
C728 H716 0.959 . S
C728 C726 1.561 . S
C729 C726 1.526 . S
C729 C730 1.396 . S
C729 C734 1.390 . S
C730 C724 1.465 . S
C730 C729 1.396 . S
C730 C731 1.399 . S
C731 H717 0.929 . S
C731 C730 1.399 . S
C731 C732 1.385 . S
C732 H718 0.931 . S
C732 C731 1.385 . S
C732 C733 1.389 . S
C733 C732 1.389 . S
C733 C734 1.387 . S
C734 H719 0.930 . S
C734 C729 1.390 . S
C734 C733 1.387 . S
H735 C747 0.930 . S
H736 C749 0.930 . S
H737 C750 0.930 . S
H738 C754 0.959 . S
H739 C754 0.959 . S
H740 C754 0.961 . S
H741 C755 0.960 . S
H742 C755 0.961 . S
H743 C755 0.959 . S
H744 C758 0.929 . S
H745 C759 0.931 . S
H746 C761 0.930 . S
C747 H735 0.930 . S
C747 C748 1.399 . S
C747 C752 1.399 . S
C748 C747 1.399 . S
C748 C749 1.376 . S
C749 H736 0.930 . S
C749 C748 1.376 . S
C749 C750 1.388 . S
C750 H737 0.930 . S
C750 C749 1.388 . S
C750 C751 1.390 . S
C751 C750 1.390 . S
C751 C752 1.394 . S
C751 C757 1.465 . S
C752 C747 1.399 . S
C752 C751 1.394 . S
C752 C753 1.516 . S
C753 C752 1.516 . S
C753 C754 1.502 . S
C753 C755 1.561 1_556 S
C753 C756 1.526 . S
C754 H738 0.959 . S
C754 H739 0.959 . S
C754 H740 0.961 . S
C754 C753 1.502 . S
C755 H741 0.960 . S
C755 H742 0.961 . S
C755 H743 0.959 . S
C755 C753 1.561 1_554 S
C756 C753 1.526 . S
C756 C757 1.396 . S
C756 C761 1.390 . S
C757 C751 1.465 . S
C757 C756 1.396 . S
C757 C758 1.399 . S
C758 H744 0.929 . S
C758 C757 1.399 . S
C758 C759 1.385 . S
C759 H745 0.931 . S
C759 C758 1.385 . S
C759 C760 1.389 . S
C760 C759 1.389 . S
C760 C761 1.387 . S
C761 H746 0.930 . S
C761 C756 1.390 . S
C761 C760 1.387 . S
H762 C774 0.930 . S
H763 C776 0.930 . S
H764 C777 0.930 . S
H765 C781 0.959 . S
H766 C781 0.959 . S
H767 C781 0.961 . S
H768 C782 0.960 . S
H769 C782 0.961 . S
H770 C782 0.959 . S
H771 C785 0.929 . S
H772 C786 0.931 . S
H773 C788 0.930 . S
C774 H762 0.930 . S
C774 C775 1.399 . S
C774 C779 1.399 . S
C775 C774 1.399 . S
C775 C776 1.376 . S
C776 H763 0.930 . S
C776 C775 1.376 . S
C776 C777 1.388 . S
C777 H764 0.930 . S
C777 C776 1.388 . S
C777 C778 1.390 . S
C778 C777 1.390 . S
C778 C779 1.394 . S
C778 C784 1.465 . S
C779 C774 1.399 . S
C779 C778 1.394 . S
C779 C780 1.516 . S
C780 C779 1.516 . S
C780 C781 1.502 . S
C780 C782 1.561 . S
C780 C783 1.526 . S
C781 H765 0.959 . S
C781 H766 0.959 . S
C781 H767 0.961 . S
C781 C780 1.502 . S
C782 H768 0.960 . S
C782 H769 0.961 . S
C782 H770 0.959 . S
C782 C780 1.561 . S
C783 C780 1.526 . S
C783 C784 1.396 . S
C783 C788 1.390 . S
C784 C778 1.465 . S
C784 C783 1.396 . S
C784 C785 1.399 . S
C785 H771 0.929 . S
C785 C784 1.399 . S
C785 C786 1.385 . S
C786 H772 0.931 . S
C786 C785 1.385 . S
C786 C787 1.389 . S
C787 C786 1.389 . S
C787 C788 1.387 . S
C788 H773 0.930 . S
C788 C783 1.390 . S
C788 C787 1.387 . S
H789 C801 0.930 . S
H790 C803 0.930 . S
H791 C804 0.930 . S
H792 C808 0.959 1_556 S
H793 C808 0.959 . S
H794 C808 0.961 . S
H795 C809 0.960 . S
H796 C809 0.961 . S
H797 C809 0.959 . S
H798 C812 0.929 . S
H799 C813 0.931 . S
H800 C815 0.930 1_554 S
C801 H789 0.930 . S
C801 C802 1.399 . S
C801 C806 1.399 . S
C802 C801 1.399 . S
C802 C803 1.376 . S
C803 H790 0.930 . S
C803 C802 1.376 . S
C803 C804 1.388 . S
C804 H791 0.930 . S
C804 C803 1.388 . S
C804 C805 1.390 . S
C805 C804 1.390 . S
C805 C806 1.394 . S
C805 C811 1.465 . S
C806 C801 1.399 . S
C806 C805 1.394 . S
C806 C807 1.516 1_556 S
C807 C806 1.516 1_554 S
C807 C808 1.502 . S
C807 C809 1.561 . S
C807 C810 1.526 1_554 S
C808 H792 0.959 1_554 S
C808 H793 0.959 . S
C808 H794 0.961 . S
C808 C807 1.502 . S
C809 H795 0.960 . S
C809 H796 0.961 . S
C809 H797 0.959 . S
C809 C807 1.561 . S
C810 C807 1.526 1_556 S
C810 C811 1.396 . S
C810 C815 1.390 . S
C811 C805 1.465 . S
C811 C810 1.396 . S
C811 C812 1.399 . S
C812 H798 0.929 . S
C812 C811 1.399 . S
C812 C813 1.385 . S
C813 H799 0.931 . S
C813 C812 1.385 . S
C813 C814 1.389 . S
C814 C813 1.389 . S
C814 C815 1.387 . S
C815 H800 0.930 1_556 S
C815 C810 1.390 . S
C815 C814 1.387 . S
C181 C147 1.487 . S
C193 C7 1.512 . S
C208 C21 1.456 . S
C220 C161 1.435 . S
C235 C35 1.563 . S
C247 C91 1.582 . S
C262 C105 1.574 . S
C274 C49 1.572 . S
C289 C119 1.418 . S
C301 C63 1.409 . S
C316 C77 1.491 . S
C328 C133 1.498 . S
C343 C8 1.008 . S
C355 C106 1.016 . S
C370 C22 0.840 . S
C382 C120 0.852 . S
C397 C134 0.990 . S
C409 C36 0.988 . S
C424 C148 1.011 . S
C436 C50 0.943 . S
C451 C162 0.838 . S
C463 C64 0.853 . S
C478 C92 0.980 . S
C490 C78 1.024 . S
C505 C9 1.065 . S
C517 C59 0.995 . S
C532 C23 0.854 . S
C544 C73 0.905 . S
C559 C37 0.933 . S
C571 C3 0.972 . S
C586 C51 1.010 . S
C598 C17 1.001 . S
C613 C65 0.975 . S
C625 C31 0.935 . S
C640 C79 0.946 . S
C652 C45 0.984 . S
C667 C93 1.072 . S
C679 C115 1.014 . S
C694 C107 0.904 . S
C706 C129 0.933 . S
C721 C143 0.976 . S
C733 C121 0.955 . S
C748 C135 1.077 . S
C760 C157 1.039 . S
C775 C149 0.891 . S
C787 C87 0.904 . S
C802 C163 0.956 . S
C814 C101 0.903 . S
