# Generated by pormake.
# Topology fnk, (5)-cn, num edge types: 1
# Building blocks:
#     Node 0, Type 0, BuildingBlock: BEQFEK_clean_sbu_0, # of connection points: 5
#     Node 1, Type 0, BuildingBlock: BEQFEK_clean_sbu_0, # of connection points: 5
#     Node 2, Type 0, BuildingBlock: BEQFEK_clean_sbu_0, # of connection points: 5
#     Node 3, Type 0, BuildingBlock: BEQFEK_clean_sbu_0, # of connection points: 5
#     Node 4, Type 0, BuildingBlock: BEQFEK_clean_sbu_0, # of connection points: 5
#     Node 5, Type 0, BuildingBlock: BEQFEK_clean_sbu_0, # of connection points: 5
#     Node 6, Type 0, BuildingBlock: BEQFEK_clean_sbu_0, # of connection points: 5
#     Node 7, Type 0, BuildingBlock: BEQFEK_clean_sbu_0, # of connection points: 5
#     Node 8, Type 0, BuildingBlock: BEQFEK_clean_sbu_0, # of connection points: 5
#     Node 9, Type 0, BuildingBlock: BEQFEK_clean_sbu_0, # of connection points: 5
#     Node 10, Type 0, BuildingBlock: BEQFEK_clean_sbu_0, # of connection points: 5
#     Node 11, Type 0, BuildingBlock: BEQFEK_clean_sbu_0, # of connection points: 5
#     Node 12, Type 0, BuildingBlock: BEQFEK_clean_sbu_0, # of connection points: 5
#     Node 13, Type 0, BuildingBlock: BEQFEK_clean_sbu_0, # of connection points: 5
#     Node 14, Type 0, BuildingBlock: BEQFEK_clean_sbu_0, # of connection points: 5
#     Node 15, Type 0, BuildingBlock: BEQFEK_clean_sbu_0, # of connection points: 5
#     Edge 16, Type (0, 0), None
#     Edge 17, Type (0, 0), None
#     Edge 18, Type (0, 0), None
#     Edge 19, Type (0, 0), None
#     Edge 20, Type (0, 0), None
#     Edge 21, Type (0, 0), None
#     Edge 22, Type (0, 0), None
#     Edge 23, Type (0, 0), None
#     Edge 24, Type (0, 0), None
#     Edge 25, Type (0, 0), None
#     Edge 26, Type (0, 0), None
#     Edge 27, Type (0, 0), None
#     Edge 28, Type (0, 0), None
#     Edge 29, Type (0, 0), None
#     Edge 30, Type (0, 0), None
#     Edge 31, Type (0, 0), None
#     Edge 32, Type (0, 0), None
#     Edge 33, Type (0, 0), None
#     Edge 34, Type (0, 0), None
#     Edge 35, Type (0, 0), None
#     Edge 36, Type (0, 0), None
#     Edge 37, Type (0, 0), None
#     Edge 38, Type (0, 0), None
#     Edge 39, Type (0, 0), None
#     Edge 40, Type (0, 0), None
#     Edge 41, Type (0, 0), None
#     Edge 42, Type (0, 0), None
#     Edge 43, Type (0, 0), None
#     Edge 44, Type (0, 0), None
#     Edge 45, Type (0, 0), None
#     Edge 46, Type (0, 0), None
#     Edge 47, Type (0, 0), None
#     Edge 48, Type (0, 0), None
#     Edge 49, Type (0, 0), None
#     Edge 50, Type (0, 0), None
#     Edge 51, Type (0, 0), None
#     Edge 52, Type (0, 0), None
#     Edge 53, Type (0, 0), None
#     Edge 54, Type (0, 0), None
#     Edge 55, Type (0, 0), None
# Relax obj value: 0.417
# Max RMSD: 0.233
# Mean RMSD: 0.233
data_MOF--net-fnk--node1-BEQFEK_clean_sbu_0--edge1-none
_symmetry_space_group_name_H-M    P1
_symmetry_Int_Tables_number       1
_symmetry_cell_setting            triclinic
loop_
_symmetry_equiv_pos_as_xyz
'x, y, z'
_cell_length_a     26.5066
_cell_length_b     26.505867
_cell_length_c     24.542267
_cell_angle_alpha  90.005376
_cell_angle_beta   89.995168
_cell_angle_gamma 89.999987
loop_
_atom_site_label
_atom_site_type_symbol
_atom_site_fract_x
_atom_site_fract_y
_atom_site_fract_z
_atom_type_partial_charge
Co0 Co 0.06864 0.44199 0.14157 0.0
Co1 Co 0.16617 0.41284 0.18812 0.0
C2 C 0.13412 0.51192 0.22394 0.0
O3 O 0.09375 0.49795 0.19869 0.0
O4 O 0.17363 0.48407 0.22049 0.0
C5 C 0.04862 0.51244 0.07451 0.0
O6 O 0.09795 0.51257 0.07941 0.0
C7 C 0.25384 0.35675 0.23893 0.0
C8 C 0.26776 0.30145 0.17323 0.0
C9 C 0.28489 0.3167 0.22352 0.0
N10 N 0.22076 0.36561 0.19849 0.0
N11 N 0.22936 0.33189 0.15975 0.0
C12 C 0.25339 0.38357 0.29248 0.0
H13 H 0.23474 0.42088 0.28847 0.0
H14 H 0.29247 0.38814 0.30799 0.0
H15 H 0.23193 0.36065 0.32239 0.0
C16 C 0.1114 0.40313 0.04099 0.0
N17 N 0.11438 0.41333 0.09442 0.0
N18 N 0.16112 0.41447 0.11009 0.0
C19 C 0.19048 0.40941 0.06519 0.0
C20 C 0.15969 0.40106 0.01972 0.0
C21 C 0.06285 0.40125 0.00997 0.0
H22 H 1.03212 0.38705 0.0366 0.0
H23 H 0.05275 0.43968 -0.00355 0.0
H24 H 0.06633 0.37694 0.9734 0.0
O25 O 1.03341 0.38846 0.17359 0.0
O26 O 0.10075 0.38466 0.22622 0.0
H27 H 0.26352 0.37694 0.05444 0.0
H28 H 0.25881 0.44132 0.03345 0.0
C29 C 0.2467 0.41399 0.0651 0.0
H30 H 0.26066 0.42622 0.10565 0.0
H31 H 0.20734 0.3275 0.12494 0.0
O32 O 1.02374 0.47658 0.09515 0.0
C33 C 0.05354 0.37542 0.21771 0.0
Co34 Co 0.63049 0.06866 0.1416 0.0
Co35 Co 0.65963 0.16619 0.18816 0.0
C36 C 0.56057 0.13413 0.22401 0.0
O37 O 0.57454 0.09377 0.19875 0.0
O38 O 0.58841 0.17365 0.22055 0.0
C39 C 0.56003 0.04867 0.07455 0.0
O40 O 0.55989 0.098 0.07951 0.0
C41 C 0.71578 0.25383 0.23901 0.0
C42 C 0.77099 0.26783 0.17325 0.0
C43 C 0.75581 0.2849 0.22358 0.0
N44 N 0.70686 0.22079 0.19853 0.0
N45 N 0.74054 0.22944 0.15976 0.0
C46 C 0.68902 0.25333 0.29259 0.0
H47 H 0.65172 0.23467 0.28861 0.0
H48 H 0.68446 0.29239 0.30815 0.0
H49 H 0.71198 0.23185 0.32245 0.0
C50 C 0.6693 0.11143 0.04102 0.0
N51 N 0.65913 0.11441 0.09446 0.0
N52 N 0.65798 0.16115 0.11013 0.0
C53 C 0.66299 0.1905 0.06523 0.0
C54 C 0.67132 0.15972 0.01975 0.0
C55 C 0.67118 0.06288 0.00999 0.0
H56 H 0.68537 1.03215 0.03661 0.0
H57 H 0.63275 0.05278 -0.00354 0.0
H58 H 0.69549 0.06636 0.97342 0.0
O59 O 0.68402 1.03343 0.17359 0.0
O60 O 0.68782 0.10077 0.22624 0.0
H61 H 0.69539 0.26357 0.05444 0.0
H62 H 0.631 0.25881 0.03353 0.0
C63 C 0.65836 0.24673 0.06515 0.0
H64 H 0.64617 0.26068 0.10572 0.0
H65 H 0.7449 0.20745 0.12491 0.0
O66 O 0.59588 1.02377 0.09519 0.0
C67 C 0.69707 0.05355 0.21772 0.0
Co68 Co 1.00383 0.6304 0.14148 0.0
Co69 Co 0.90633 0.65964 0.18811 0.0
C70 C 0.93838 0.56057 0.22398 0.0
O71 O 0.97873 0.57449 0.19867 0.0
O72 O 0.89888 0.58844 0.22056 0.0
C73 C 1.02378 0.55992 0.0744 0.0
O74 O 0.97445 0.55975 0.07931 0.0
C75 C 0.81868 0.71579 0.23894 0.0
C76 C 0.80477 0.77106 0.17322 0.0
C77 C 0.78765 0.75585 0.22352 0.0
N78 N 0.85176 0.7069 0.1985 0.0
N79 N 0.84316 0.74061 0.15975 0.0
C80 C 0.81911 0.68899 0.29249 0.0
H81 H 0.83776 0.65168 0.28849 0.0
H82 H 0.78003 0.68443 0.30799 0.0
H83 H 0.84057 0.71191 0.32241 0.0
C84 C 0.96101 0.66921 0.04093 0.0
N85 N 0.95806 0.65904 0.09437 0.0
N86 N 0.91133 0.65794 0.11007 0.0
C87 C 0.88195 0.663 0.0652 0.0
C88 C 0.91271 0.6713 0.0197 0.0
C89 C 1.00954 0.67104 0.00986 0.0
H90 H 0.04031 0.68517 0.03646 0.0
H91 H 1.01956 0.63261 -0.00374 0.0
H92 H 1.00606 0.6954 0.97332 0.0
O93 O 0.03911 0.68391 0.17345 0.0
O94 O 0.97178 0.68785 0.2261 0.0
H95 H 0.80891 0.69548 0.05445 0.0
H96 H 0.81359 0.63107 0.03356 0.0
C97 C 0.82572 0.65844 0.06516 0.0
H98 H 0.81178 0.64627 0.10574 0.0
H99 H 0.86517 0.74497 0.12492 0.0
O100 O 0.04867 0.59579 0.09501 0.0
C101 C 1.019 0.69705 0.21756 0.0
Co102 Co 0.44208 1.00385 0.14145 0.0
Co103 Co 0.41284 0.90635 0.18806 0.0
C104 C 0.51193 0.93839 0.22392 0.0
O105 O 0.49801 0.97874 0.19861 0.0
O106 O 0.48405 0.89889 0.22049 0.0
C107 C 0.51255 1.02382 0.07436 0.0
O108 O 0.51272 0.97449 0.07921 0.0
C109 C 0.35673 0.81867 0.23886 0.0
C110 C 0.30139 0.80482 0.1732 0.0
C111 C 0.31666 0.78765 0.22346 0.0
N112 N 0.36558 0.85178 0.19845 0.0
N113 N 0.33183 0.84323 0.15973 0.0
C114 C 0.38359 0.81905 0.29238 0.0
H115 H 0.4209 0.83768 0.28835 0.0
H116 H 0.38816 0.77995 0.30784 0.0
H117 H 0.36071 0.84049 0.32235 0.0
C118 C 0.40323 0.96103 0.0409 0.0
N119 N 0.41343 0.95808 0.09433 0.0
N120 N 0.41451 0.91135 0.11003 0.0
C121 C 0.4094 0.88197 0.06516 0.0
C122 C 0.40109 0.91274 0.01967 0.0
C123 C 0.4014 1.00956 0.00984 0.0
H124 H 0.38727 0.04034 0.03645 0.0
H125 H 0.43983 1.01959 -0.00375 0.0
H126 H 0.37705 1.00609 0.9733 0.0
O127 O 0.38858 0.03912 0.17345 0.0
O128 O 0.38464 0.97179 0.22608 0.0
H129 H 0.37686 0.80895 0.05445 0.0
H130 H 0.44125 0.81358 0.03348 0.0
C131 C 0.41393 0.82574 0.06511 0.0
H132 H 0.42612 0.81179 0.10568 0.0
H133 H 0.32744 0.86527 0.12494 0.0
O134 O 0.47667 0.04871 0.09498 0.0
C135 C 0.37545 1.01901 0.21755 0.0
Co136 Co 0.06864 0.63055 0.34026 0.0
Co137 Co 0.16618 0.6597 0.2937 0.0
C138 C 0.13412 0.56064 0.25784 0.0
O139 O 0.09375 0.57461 0.28309 0.0
O140 O 0.17363 0.58848 0.2613 0.0
C141 C 0.04866 0.56004 0.40726 0.0
O142 O 0.09798 0.55991 0.40229 0.0
C143 C 0.25376 0.71583 0.24277 0.0
C144 C 0.26782 0.77108 0.30851 0.0
C145 C 0.28478 0.75591 0.25813 0.0
N146 N 0.22077 0.70693 0.28329 0.0
N147 N 0.22945 0.74062 0.32205 0.0
C148 C 0.25325 0.68902 0.18922 0.0
H149 H 0.23451 0.65175 0.19323 0.0
H150 H 0.29232 0.68436 0.17371 0.0
H151 H 0.23185 0.71199 0.15931 0.0
C152 C 0.11143 0.66932 0.44085 0.0
N153 N 0.1144 0.65916 0.38741 0.0
N154 N 0.16114 0.65804 0.37173 0.0
C155 C 0.1905 0.66306 0.41663 0.0
C156 C 0.15971 0.67137 0.46212 0.0
C157 C 0.06288 0.67116 0.47189 0.0
H158 H 1.03214 0.68535 0.44528 0.0
H159 H 0.05281 0.63273 0.48542 0.0
H160 H 0.06636 0.69547 0.50847 0.0
O161 O 1.03342 0.68411 0.30831 0.0
O162 O 0.10076 0.68789 0.25563 0.0
H163 H 0.26356 0.69545 0.42745 0.0
H164 H 0.2588 0.63104 0.44829 0.0
C165 C 0.24672 0.65843 0.4167 0.0
H166 H 0.26067 0.64627 0.37612 0.0
H167 H 0.20752 0.74496 0.35694 0.0
O168 O 1.02376 0.59591 0.38666 0.0
C169 C 0.05356 0.69716 0.26419 0.0
Co170 Co 0.44194 0.06865 0.34029 0.0
Co171 Co 0.41278 0.16619 0.29374 0.0
C172 C 0.51186 0.13413 0.2579 0.0
O173 O 0.49788 0.09376 0.28314 0.0
O174 O 0.48401 0.17365 0.26137 0.0
C175 C 0.51243 0.04864 0.4073 0.0
O176 O 0.51256 0.09797 0.40239 0.0
C177 C 0.3567 0.25381 0.24285 0.0
C178 C 0.30137 0.26779 0.30853 0.0
C179 C 0.31659 0.2848 0.25819 0.0
N180 N 0.36555 0.22077 0.28333 0.0
N181 N 0.33182 0.22941 0.32206 0.0
C182 C 0.38357 0.25335 0.18933 0.0
H183 H 0.42083 0.23462 0.19336 0.0
H184 H 0.38823 0.29243 0.17387 0.0
H185 H 0.36063 0.23197 0.15936 0.0
C186 C 0.40312 0.11143 0.44088 0.0
N187 N 0.41331 0.1144 0.38744 0.0
N188 N 0.41441 0.16114 0.37177 0.0
C189 C 0.40934 0.1905 0.41667 0.0
C190 C 0.40103 0.15972 0.46214 0.0
C191 C 0.40128 0.06288 0.47191 0.0
H192 H 0.38709 1.03214 0.44529 0.0
H193 H 0.43971 0.05281 0.48542 0.0
H194 H 0.37698 0.06636 0.50849 0.0
O195 O 0.38838 1.03343 0.30831 0.0
O196 O 0.3846 0.10077 0.25565 0.0
H197 H 0.37689 0.26355 0.42745 0.0
H198 H 0.44128 0.25884 0.44837 0.0
C199 C 0.41393 0.24673 0.41675 0.0
H200 H 0.42612 0.26069 0.37618 0.0
H201 H 0.32744 0.20744 0.35691 0.0
O202 O 0.47655 1.02375 0.38669 0.0
C203 C 0.37534 0.05357 0.26419 0.0
Co204 Co 1.00384 0.44206 0.34041 0.0
Co205 Co 0.90633 0.4128 0.29379 0.0
C206 C 0.93838 0.51188 0.25792 0.0
O207 O 0.97874 0.49796 0.28322 0.0
O208 O 0.89889 0.48401 0.26136 0.0
C209 C 1.02381 0.51256 0.40746 0.0
O210 O 0.97448 0.51273 0.40259 0.0
C211 C 0.81871 0.35671 0.24292 0.0
C212 C 0.80481 0.30132 0.30855 0.0
C213 C 0.78775 0.31658 0.25825 0.0
N214 N 0.85178 0.36554 0.28337 0.0
N215 N 0.84319 0.33178 0.32207 0.0
C216 C 0.81909 0.38362 0.18943 0.0
H217 H 0.83781 0.4209 0.19348 0.0
H218 H 0.77999 0.38828 0.17403 0.0
H219 H 0.84044 0.36073 0.15941 0.0
C220 C 0.96101 0.40324 0.44097 0.0
N221 N 0.95806 0.41343 0.38753 0.0
N222 N 0.91133 0.41447 0.37183 0.0
C223 C 0.88195 0.40936 0.41669 0.0
C224 C 0.91271 0.40108 0.46219 0.0
C225 C 1.00953 0.40144 0.47204 0.0
H226 H 0.04032 0.38732 0.44545 0.0
H227 H 1.01953 0.43988 0.48562 0.0
H228 H 1.00606 0.3771 0.50859 0.0
O229 O 0.03911 0.38852 0.30845 0.0
O230 O 0.97178 0.3846 0.25578 0.0
H231 H 0.80894 0.37682 0.42744 0.0
H232 H 0.81356 0.44123 0.44834 0.0
C233 C 0.82572 0.41388 0.41674 0.0
H234 H 0.81177 0.42604 0.37616 0.0
H235 H 0.86519 0.3274 0.3569 0.0
O236 O 0.04869 0.47667 0.38686 0.0
C237 C 1.01898 0.37539 0.26435 0.0
Co238 Co 0.63042 1.00384 0.34038 0.0
Co239 Co 0.65967 0.90633 0.29375 0.0
C240 C 0.56061 0.93839 0.25786 0.0
O241 O 0.57453 0.97875 0.28317 0.0
O242 O 0.58847 0.89889 0.2613 0.0
C243 C 0.55991 1.02379 0.40742 0.0
O244 O 0.55973 0.97446 0.4025 0.0
C245 C 0.71582 0.81874 0.24284 0.0
C246 C 0.77112 0.80477 0.30853 0.0
C247 C 0.75593 0.78776 0.25819 0.0
N248 N 0.70693 0.85177 0.28333 0.0
N249 N 0.74065 0.84314 0.32207 0.0
C250 C 0.68897 0.81919 0.18932 0.0
H251 H 0.6517 0.83791 0.19334 0.0
H252 H 0.68431 0.78009 0.17386 0.0
H253 H 0.71191 0.84056 0.15935 0.0
C254 C 0.6692 0.96101 0.44094 0.0
N255 N 0.65904 0.95806 0.3875 0.0
N256 N 0.65798 0.91133 0.37179 0.0
C257 C 0.66304 0.88195 0.41665 0.0
C258 C 0.67131 0.91271 0.46216 0.0
C259 C 0.67099 1.00953 0.47203 0.0
H260 H 0.68511 0.04032 0.44544 0.0
H261 H 0.63256 1.01953 0.48561 0.0
H262 H 0.69534 1.00606 0.50857 0.0
O263 O 0.68397 0.03912 0.30845 0.0
O264 O 0.68788 0.97179 0.25576 0.0
H265 H 0.69551 0.80891 0.42743 0.0
H266 H 0.63108 0.81359 0.44826 0.0
C267 C 0.65847 0.82572 0.41669 0.0
H268 H 0.64634 0.81178 0.37609 0.0
H269 H 0.745 0.8651 0.35693 0.0
O270 O 0.59578 0.04869 0.38683 0.0
C271 C 0.6971 1.01899 0.26435 0.0
Co272 Co 0.94195 0.5686 0.84032 0.0
Co273 Co 0.91273 0.66608 0.7937 0.0
C274 C 1.01179 0.63403 0.75781 0.0
O275 O 0.99786 0.59368 0.78311 0.0
O276 O 0.98393 0.67353 0.76125 0.0
C277 C 1.01248 0.54867 0.90733 0.0
O278 O 1.01262 0.598 0.90236 0.0
C279 C 0.85659 0.75371 0.74289 0.0
C280 C 0.80135 0.76766 0.80864 0.0
C281 C 0.81655 0.78476 0.75833 0.0
N282 N 0.86549 0.72064 0.78334 0.0
N283 N 0.8318 0.72927 0.82211 0.0
C284 C 0.88338 0.75325 0.68933 0.0
H285 H 0.92069 0.7346 0.69332 0.0
H286 H 0.88794 0.79233 0.67381 0.0
H287 H 0.86044 0.73179 0.65943 0.0
C288 C 0.90327 0.61147 0.94093 0.0
N289 N 0.91334 0.61439 0.88746 0.0
N290 N 0.91445 0.66111 0.87173 0.0
C291 C 0.90949 0.69054 0.91658 0.0
C292 C 0.90134 0.65979 0.96211 0.0
C293 C 0.90143 0.56296 0.97203 0.0
H294 H 0.88716 0.5322 0.94549 0.0
H295 H 0.93988 0.55286 0.98548 0.0
H296 H 0.8772 0.5665 0.00865 0.0
O297 O 0.88842 0.53332 0.80839 0.0
O298 O 0.88452 0.60063 0.75571 0.0
H299 H 0.87705 0.7636 0.92734 0.0
H300 H 0.94149 0.75891 0.94811 0.0
C301 C 0.91407 0.74676 0.91657 0.0
H302 H 0.92618 0.76067 0.87596 0.0
H303 H 0.82745 0.70727 0.85695 0.0
O304 O 0.97661 0.52377 0.88674 0.0
C305 C 0.87531 0.55342 0.76427 0.0
Co306 Co 0.5037 0.94192 0.84025 0.0
Co307 Co 0.4062 0.91275 0.79366 0.0
C308 C 0.43826 1.0118 0.7578 0.0
O309 O 0.47862 0.99784 0.78307 0.0
O310 O 0.39875 0.98395 0.76124 0.0
C311 C 0.52366 1.01242 0.90729 0.0
O312 O 0.47434 1.01257 0.90231 0.0
C313 C 0.31857 0.8566 0.74285 0.0
C314 C 0.30457 0.80141 0.80862 0.0
C315 C 0.2875 0.81658 0.75829 0.0
N316 N 0.35162 0.86551 0.78331 0.0
N317 N 0.34296 0.83185 0.82209 0.0
C318 C 0.31907 0.88335 0.68927 0.0
H319 H 0.33773 0.92065 0.69324 0.0
H320 H 0.28 0.88791 0.67371 0.0
H321 H 0.34054 0.86038 0.6594 0.0
C322 C 0.46087 0.90324 0.94086 0.0
N323 N 0.45793 0.91331 0.8874 0.0
N324 N 0.4112 0.91445 0.87169 0.0
C325 C 0.3818 0.90951 0.91656 0.0
C326 C 0.41256 0.90135 0.96207 0.0
C327 C 0.50939 0.90138 0.97193 0.0
H328 H 0.54014 0.88712 0.94536 0.0
H329 H 0.5195 0.93981 0.98541 0.0
H330 H 0.50586 0.87712 0.00854 0.0
O331 O 0.53894 0.88837 0.80829 0.0
O332 O 0.47164 0.88453 0.75562 0.0
H333 H 0.30872 0.87714 0.92737 0.0
H334 H 0.31347 0.94159 0.94813 0.0
C335 C 0.32558 0.91415 0.91659 0.0
H336 H 0.31166 0.92626 0.87598 0.0
H337 H 0.36494 0.82751 0.85694 0.0
O338 O 0.54856 0.97657 0.88665 0.0
C339 C 0.51884 0.8753 0.76416 0.0
Co340 Co 0.13037 0.50374 0.84037 0.0
Co341 Co 0.15953 0.40623 0.79372 0.0
C342 C 0.06044 0.43827 0.75797 0.0
O343 O 0.07439 0.47863 0.78327 0.0
O344 O 0.08831 0.39877 0.76135 0.0
C345 C 0.05995 0.52381 0.9075 0.0
O346 O 0.05975 0.47447 0.90269 0.0
C347 C 0.21565 0.31856 0.7429 0.0
C348 C 0.27092 0.30464 0.80863 0.0
C349 C 0.2557 0.28752 0.75833 0.0
N350 N 0.20677 0.35165 0.78334 0.0
N351 N 0.24047 0.34305 0.8221 0.0
C352 C 0.18886 0.319 0.68935 0.0
H353 H 0.15155 0.33765 0.69335 0.0
H354 H 0.18429 0.27991 0.67384 0.0
H355 H 0.21178 0.34045 0.65944 0.0
C356 C 0.16911 0.46089 0.94094 0.0
N357 N 0.159 0.45797 0.88748 0.0
N358 N 0.15786 0.41124 0.87175 0.0
C359 C 0.16284 0.38182 0.9166 0.0
C360 C 0.17102 0.41257 0.96212 0.0
C361 C 0.17099 0.5094 0.97205 0.0
H362 H 0.1852 0.54016 0.94548 0.0
H363 H 0.13257 0.51948 0.98559 0.0
H364 H 0.19529 0.50586 0.00861 0.0
O365 O 0.18388 0.53897 0.8083 0.0
O366 O 0.1877 0.47165 0.75564 0.0
H367 H 0.19526 0.30875 0.9273 0.0
H368 H 0.13084 0.31345 0.94817 0.0
C369 C 0.15823 0.32559 0.91659 0.0
H370 H 0.14608 0.31169 0.87599 0.0
H371 H 0.24484 0.36507 0.85692 0.0
O372 O 0.09583 0.54866 0.88683 0.0
C373 C 0.19693 0.51886 0.76417 0.0
Co374 Co 0.56856 0.13034 0.84045 0.0
Co375 Co 0.66604 0.15955 0.79376 0.0
C376 C 0.63401 0.06045 0.75798 0.0
O377 O 0.59367 0.07438 0.78331 0.0
O378 O 0.6735 0.08833 0.76136 0.0
C379 C 0.54852 0.0599 0.90754 0.0
O380 O 0.59786 0.0597 0.90273 0.0
C381 C 0.75371 0.21566 0.74295 0.0
C382 C 0.76757 0.27098 0.80865 0.0
C383 C 0.78473 0.25573 0.75838 0.0
N384 N 0.7206 0.2068 0.78337 0.0
N385 N 0.72917 0.24054 0.82211 0.0
C386 C 0.75332 0.18882 0.68942 0.0
H387 H 0.73467 0.15151 0.69343 0.0
H388 H 0.79241 0.18425 0.67395 0.0
H389 H 0.73188 0.21172 0.65947 0.0
C390 C 0.61145 0.16908 0.94101 0.0
N391 N 0.61435 0.15898 0.88755 0.0
N392 N 0.66107 0.15787 0.87178 0.0
C393 C 0.69051 0.16288 0.91662 0.0
C394 C 0.65978 0.17104 0.96216 0.0
C395 C 0.56296 0.17094 0.97214 0.0
H396 H 0.53218 0.18517 0.9456 0.0
H397 H 0.55288 0.1325 0.98565 0.0
H398 H 0.5665 0.19522 0.00873 0.0
O399 O 0.5333 0.18384 0.8084 0.0
O400 O 0.60061 0.18773 0.75573 0.0
H401 H 0.76355 0.19536 0.92727 0.0
H402 H 0.75891 0.13094 0.94815 0.0
C403 C 0.74673 0.15831 0.91657 0.0
H404 H 0.76063 0.14616 0.87597 0.0
H405 H 0.70714 0.24492 0.85692 0.0
O406 O 0.52367 0.09579 0.88692 0.0
C407 C 0.5534 0.19693 0.76427 0.0
Co408 Co 0.94187 0.50372 0.64161 0.0
Co409 Co 0.91269 0.40621 0.68819 0.0
C410 C 1.01173 0.43828 0.72408 0.0
O411 O 0.99777 0.47863 0.69881 0.0
O412 O 0.98389 0.39876 0.72061 0.0
C413 C 1.01241 0.52367 0.57461 0.0
O414 O 1.01256 0.47435 0.5796 0.0
C415 C 0.85655 0.31863 0.73909 0.0
C416 C 0.80132 0.30456 0.67334 0.0
C417 C 0.81647 0.28761 0.72371 0.0
N418 N 0.86546 0.35163 0.69858 0.0
N419 N 0.83179 0.34294 0.65981 0.0
C420 C 0.88334 0.31914 0.79264 0.0
H421 H 0.92061 0.33788 0.78864 0.0
H422 H 0.888 0.28007 0.80815 0.0
H423 H 0.86036 0.34054 0.82256 0.0
C424 C 0.90323 0.46087 0.54098 0.0
N425 N 0.91328 0.45794 0.59445 0.0
N426 N 0.91439 0.41121 0.61017 0.0
C427 C 0.90945 0.3818 0.56529 0.0
C428 C 0.90131 0.41256 0.51978 0.0
C429 C 0.9014 0.50939 0.5099 0.0
H430 H 0.88715 0.54014 0.53646 0.0
H431 H 0.93984 0.51947 0.49643 0.0
H432 H 0.87715 0.50586 0.47329 0.0
O433 O 0.88829 0.53896 0.67353 0.0
O434 O 0.88447 0.47164 0.72623 0.0
H435 H 0.87709 0.30872 0.55445 0.0
H436 H 0.94155 0.31347 0.53376 0.0
C437 C 0.91408 0.32557 0.56527 0.0
H438 H 0.92616 0.31166 0.6059 0.0
H439 H 0.82746 0.36486 0.62492 0.0
O440 O 0.97654 0.54858 0.59522 0.0
C441 C 0.87522 0.51884 0.71765 0.0
Co442 Co 0.56858 0.94192 0.64153 0.0
Co443 Co 0.66607 0.9127 0.68815 0.0
C444 C 0.63401 1.01175 0.72406 0.0
O445 O 0.59366 0.99781 0.69876 0.0
O446 O 0.67352 0.98389 0.72061 0.0
C447 C 0.54866 1.01249 0.57457 0.0
O448 O 0.59798 1.01263 0.57955 0.0
C449 C 0.75364 0.85656 0.73904 0.0
C450 C 0.76765 0.80128 0.67332 0.0
C451 C 0.78464 0.81647 0.72367 0.0
N452 N 0.72062 0.86545 0.69855 0.0
N453 N 0.72928 0.83175 0.65979 0.0
C454 C 0.75318 0.88341 0.79257 0.0
H455 H 0.73444 0.92068 0.78856 0.0
H456 H 0.79226 0.88807 0.80804 0.0
H457 H 0.7318 0.86046 0.82253 0.0
C458 C 0.61146 0.90328 0.54091 0.0
N459 N 0.61438 0.91334 0.59438 0.0
N460 N 0.6611 0.91441 0.61013 0.0
C461 C 0.69053 0.90944 0.56528 0.0
C462 C 0.65978 0.90132 0.51974 0.0
C463 C 0.56296 0.90147 0.5098 0.0
H464 H 0.53219 0.88721 0.53633 0.0
H465 H 0.55289 0.93993 0.49636 0.0
H466 H 0.5665 0.87725 0.47317 0.0
O467 O 0.53331 0.88835 0.67343 0.0
O468 O 0.60062 0.88448 0.72614 0.0
H469 H 0.76358 0.87702 0.55449 0.0
H470 H 0.7589 0.94148 0.53378 0.0
C471 C 0.74675 0.91403 0.56529 0.0
H472 H 0.76066 0.9261 0.60592 0.0
H473 H 0.70734 0.82741 0.62492 0.0
O474 O 0.52375 0.97661 0.59513 0.0
C475 C 0.55342 0.87525 0.71754 0.0
Co476 Co 0.13036 0.56857 0.64141 0.0
Co477 Co 0.15958 0.66606 0.6881 0.0
C478 C 0.06049 0.63402 0.72389 0.0
O479 O 0.07442 0.59368 0.69857 0.0
O480 O 0.08837 0.67352 0.7205 0.0
C481 C 0.05988 0.54854 0.57436 0.0
O482 O 0.05969 0.59787 0.57918 0.0
C483 C 0.21569 0.75368 0.73899 0.0
C484 C 0.27104 0.7676 0.67331 0.0
C485 C 0.25581 0.78464 0.72363 0.0
N486 N 0.20683 0.72061 0.69852 0.0
N487 N 0.24058 0.72922 0.6598 0.0
C488 C 0.18879 0.75328 0.79249 0.0
H489 H 0.15153 0.73455 0.78845 0.0
H490 H 0.18413 0.79238 0.80791 0.0
H491 H 0.21171 0.73192 0.82249 0.0
C492 C 0.16907 0.61148 0.54083 0.0
N493 N 0.15898 0.61437 0.5943 0.0
N494 N 0.15791 0.66109 0.61007 0.0
C495 C 0.16291 0.69054 0.56524 0.0
C496 C 0.17105 0.65981 0.51969 0.0
C497 C 0.17089 0.56299 0.50969 0.0
H498 H 0.18511 0.5322 0.53622 0.0
H499 H 0.13244 0.55294 0.49619 0.0
H500 H 0.19516 0.56653 0.4731 0.0
O501 O 0.18389 0.53331 0.67342 0.0
O502 O 0.18776 0.60063 0.72612 0.0
H503 H 0.19539 0.76358 0.55457 0.0
H504 H 0.13096 0.75894 0.53375 0.0
C505 C 0.15835 0.74676 0.5653 0.0
H506 H 0.14624 0.76065 0.60592 0.0
H507 H 0.24494 0.70723 0.62495 0.0
O508 O 0.09578 0.52368 0.59495 0.0
C509 C 0.19698 0.55343 0.71754 0.0
Co510 Co 0.50373 0.13042 0.64148 0.0
Co511 Co 0.40622 0.15959 0.68814 0.0
C512 C 0.43827 0.06051 0.7239 0.0
O513 O 0.47862 0.07446 0.69861 0.0
O514 O 0.39876 0.08837 0.7205 0.0
C515 C 0.52379 0.05996 0.5744 0.0
O516 O 0.47446 0.05976 0.57922 0.0
C517 C 0.3186 0.2157 0.73903 0.0
C518 C 0.30463 0.27101 0.67333 0.0
C519 C 0.28761 0.2558 0.72367 0.0
N520 N 0.35165 0.20683 0.69855 0.0
N521 N 0.34301 0.24055 0.65981 0.0
C522 C 0.31905 0.18885 0.79255 0.0
H523 H 0.33778 0.15158 0.78853 0.0
H524 H 0.27996 0.18419 0.80801 0.0
H525 H 0.34041 0.2118 0.82252 0.0
C526 C 0.46086 0.16913 0.5409 0.0
N527 N 0.45795 0.15904 0.59436 0.0
N528 N 0.41122 0.15793 0.61011 0.0
C529 C 0.3818 0.16291 0.56526 0.0
C530 C 0.41255 0.17107 0.51973 0.0
C531 C 0.50937 0.17097 0.50979 0.0
H532 H 0.54014 0.18518 0.53634 0.0
H533 H 0.51943 0.13254 0.49625 0.0
H534 H 0.50584 0.19527 0.47321 0.0
O535 O 0.53896 0.18397 0.67352 0.0
O536 O 0.47163 0.18777 0.72621 0.0
H537 H 0.30873 0.19532 0.55453 0.0
H538 H 0.31344 0.13089 0.53373 0.0
C539 C 0.32558 0.15831 0.56528 0.0
H540 H 0.31167 0.14619 0.60589 0.0
H541 H 0.36498 0.24491 0.62495 0.0
O542 O 0.54864 0.09585 0.59504 0.0
C543 C 0.51883 0.19702 0.71764 0.0
loop_
_geom_bond_atom_site_label_1
_geom_bond_atom_site_label_2
_geom_bond_distance
_geom_bond_site_symmetry_2
_ccdc_geom_bond_type
Co0 O3 1.970 . S
Co0 N17 1.989 . S
Co0 O25 1.967 . S
Co0 O32 1.920 . S
Co1 O4 1.966 . S
Co1 N10 2.022 . S
Co1 N18 1.993 . S
Co1 O26 1.941 . S
C2 O3 1.258 . S
C2 O4 1.263 . S
O3 Co0 1.970 . S
O3 C2 1.258 . S
O4 Co1 1.966 . S
O4 C2 1.263 . S
C5 O6 1.235 . S
C5 O32 1.289 . S
O6 C5 1.235 . S
C7 C9 1.400 . S
C7 N10 1.351 . S
C7 C12 1.501 . S
C8 C9 1.387 . S
C8 N11 1.341 . S
C9 C7 1.400 . S
C9 C8 1.387 . S
N10 Co1 2.022 . S
N10 C7 1.351 . S
N10 N11 1.365 . S
N11 C8 1.341 . S
N11 N10 1.365 . S
N11 H31 0.862 . S
C12 C7 1.501 . S
C12 H13 0.961 . S
C12 H14 0.961 . S
C12 H15 0.960 . S
H13 C12 0.961 . S
H14 C12 0.961 . S
H15 C12 0.960 . S
C16 N17 1.342 . S
C16 C20 1.401 . S
C16 C21 1.499 . S
N17 Co0 1.989 . S
N17 C16 1.342 . S
N17 N18 1.388 . S
N18 Co1 1.993 . S
N18 N17 1.388 . S
N18 C19 1.346 . S
C19 N18 1.346 . S
C19 C20 1.396 . S
C19 C29 1.510 . S
C20 C16 1.401 . S
C20 C19 1.396 . S
C21 C16 1.499 . S
C21 H22 0.959 . S
C21 H23 0.960 1_554 S
C21 H24 0.961 . S
H22 C21 0.959 . S
H23 C21 0.960 1_556 S
H24 C21 0.961 . S
O25 Co0 1.967 . S
O25 C33 1.258 . S
O26 Co1 1.941 . S
O26 C33 1.266 . S
H27 C29 0.959 . S
H28 C29 0.961 . S
C29 C19 1.510 . S
C29 H27 0.959 . S
C29 H28 0.961 . S
C29 H30 0.960 . S
H30 C29 0.960 . S
H31 N11 0.862 . S
O32 Co0 1.920 . S
O32 C5 1.289 . S
C33 O25 1.258 . S
C33 O26 1.266 . S
Co34 O37 1.970 . S
Co34 N51 1.989 . S
Co34 O59 1.967 . S
Co34 O66 1.920 . S
Co35 O38 1.966 . S
Co35 N44 2.022 . S
Co35 N52 1.993 . S
Co35 O60 1.941 . S
C36 O37 1.258 . S
C36 O38 1.263 . S
O37 Co34 1.970 . S
O37 C36 1.258 . S
O38 Co35 1.966 . S
O38 C36 1.263 . S
C39 O40 1.235 . S
C39 O66 1.289 . S
O40 C39 1.235 . S
C41 C43 1.400 . S
C41 N44 1.351 . S
C41 C46 1.501 . S
C42 C43 1.387 . S
C42 N45 1.341 . S
C43 C41 1.400 . S
C43 C42 1.387 . S
N44 Co35 2.022 . S
N44 C41 1.351 . S
N44 N45 1.365 . S
N45 C42 1.341 . S
N45 N44 1.365 . S
N45 H65 0.862 . S
C46 C41 1.501 . S
C46 H47 0.961 . S
C46 H48 0.961 . S
C46 H49 0.960 . S
H47 C46 0.961 . S
H48 C46 0.961 . S
H49 C46 0.960 . S
C50 N51 1.342 . S
C50 C54 1.401 . S
C50 C55 1.499 . S
N51 Co34 1.989 . S
N51 C50 1.342 . S
N51 N52 1.388 . S
N52 Co35 1.993 . S
N52 N51 1.388 . S
N52 C53 1.346 . S
C53 N52 1.346 . S
C53 C54 1.396 . S
C53 C63 1.510 . S
C54 C50 1.401 . S
C54 C53 1.396 . S
C55 C50 1.499 . S
C55 H56 0.959 . S
C55 H57 0.960 1_554 S
C55 H58 0.961 . S
H56 C55 0.959 . S
H57 C55 0.960 1_556 S
H58 C55 0.961 . S
O59 Co34 1.967 . S
O59 C67 1.258 . S
O60 Co35 1.941 . S
O60 C67 1.266 . S
H61 C63 0.959 . S
H62 C63 0.961 . S
C63 C53 1.510 . S
C63 H61 0.959 . S
C63 H62 0.961 . S
C63 H64 0.960 . S
H64 C63 0.960 . S
H65 N45 0.862 . S
O66 Co34 1.920 . S
O66 C39 1.289 . S
C67 O59 1.258 . S
C67 O60 1.266 . S
Co68 O71 1.970 . S
Co68 N85 1.989 . S
Co68 O93 1.967 . S
Co68 O100 1.920 . S
Co69 O72 1.966 . S
Co69 N78 2.022 . S
Co69 N86 1.993 . S
Co69 O94 1.941 . S
C70 O71 1.258 . S
C70 O72 1.263 . S
O71 Co68 1.970 . S
O71 C70 1.258 . S
O72 Co69 1.966 . S
O72 C70 1.263 . S
C73 O74 1.235 . S
C73 O100 1.289 . S
O74 C73 1.235 . S
C75 C77 1.400 . S
C75 N78 1.351 . S
C75 C80 1.501 . S
C76 C77 1.387 . S
C76 N79 1.341 . S
C77 C75 1.400 . S
C77 C76 1.387 . S
N78 Co69 2.022 . S
N78 C75 1.351 . S
N78 N79 1.365 . S
N79 C76 1.341 . S
N79 N78 1.365 . S
N79 H99 0.862 . S
C80 C75 1.501 . S
C80 H81 0.961 . S
C80 H82 0.961 . S
C80 H83 0.960 . S
H81 C80 0.961 . S
H82 C80 0.961 . S
H83 C80 0.960 . S
C84 N85 1.342 . S
C84 C88 1.401 . S
C84 C89 1.499 . S
N85 Co68 1.989 . S
N85 C84 1.342 . S
N85 N86 1.388 . S
N86 Co69 1.993 . S
N86 N85 1.388 . S
N86 C87 1.346 . S
C87 N86 1.346 . S
C87 C88 1.396 . S
C87 C97 1.510 . S
C88 C84 1.401 . S
C88 C87 1.396 . S
C89 C84 1.499 . S
C89 H90 0.959 . S
C89 H91 0.960 1_554 S
C89 H92 0.961 . S
H90 C89 0.959 . S
H91 C89 0.960 1_556 S
H92 C89 0.961 . S
O93 Co68 1.967 . S
O93 C101 1.258 . S
O94 Co69 1.941 . S
O94 C101 1.266 . S
H95 C97 0.959 . S
H96 C97 0.961 . S
C97 C87 1.510 . S
C97 H95 0.959 . S
C97 H96 0.961 . S
C97 H98 0.960 . S
H98 C97 0.960 . S
H99 N79 0.862 . S
O100 Co68 1.920 . S
O100 C73 1.289 . S
C101 O93 1.258 . S
C101 O94 1.266 . S
Co102 O105 1.970 . S
Co102 N119 1.989 . S
Co102 O127 1.967 . S
Co102 O134 1.920 . S
Co103 O106 1.966 . S
Co103 N112 2.022 . S
Co103 N120 1.993 . S
Co103 O128 1.941 . S
C104 O105 1.258 . S
C104 O106 1.263 . S
O105 Co102 1.970 . S
O105 C104 1.258 . S
O106 Co103 1.966 . S
O106 C104 1.263 . S
C107 O108 1.235 . S
C107 O134 1.289 . S
O108 C107 1.235 . S
C109 C111 1.400 . S
C109 N112 1.351 . S
C109 C114 1.501 . S
C110 C111 1.387 . S
C110 N113 1.341 . S
C111 C109 1.400 . S
C111 C110 1.387 . S
N112 Co103 2.022 . S
N112 C109 1.351 . S
N112 N113 1.365 . S
N113 C110 1.341 . S
N113 N112 1.365 . S
N113 H133 0.862 . S
C114 C109 1.501 . S
C114 H115 0.961 . S
C114 H116 0.961 . S
C114 H117 0.960 . S
H115 C114 0.961 . S
H116 C114 0.961 . S
H117 C114 0.960 . S
C118 N119 1.342 . S
C118 C122 1.401 . S
C118 C123 1.499 . S
N119 Co102 1.989 . S
N119 C118 1.342 . S
N119 N120 1.388 . S
N120 Co103 1.993 . S
N120 N119 1.388 . S
N120 C121 1.346 . S
C121 N120 1.346 . S
C121 C122 1.396 . S
C121 C131 1.510 . S
C122 C118 1.401 . S
C122 C121 1.396 . S
C123 C118 1.499 . S
C123 H124 0.959 . S
C123 H125 0.960 1_554 S
C123 H126 0.961 . S
H124 C123 0.959 . S
H125 C123 0.960 1_556 S
H126 C123 0.961 . S
O127 Co102 1.967 . S
O127 C135 1.258 . S
O128 Co103 1.941 . S
O128 C135 1.266 . S
H129 C131 0.959 . S
H130 C131 0.961 . S
C131 C121 1.510 . S
C131 H129 0.959 . S
C131 H130 0.961 . S
C131 H132 0.960 . S
H132 C131 0.960 . S
H133 N113 0.862 . S
O134 Co102 1.920 . S
O134 C107 1.289 . S
C135 O127 1.258 . S
C135 O128 1.266 . S
Co136 O139 1.970 . S
Co136 N153 1.989 . S
Co136 O161 1.967 . S
Co136 O168 1.920 . S
Co137 O140 1.966 . S
Co137 N146 2.022 . S
Co137 N154 1.993 . S
Co137 O162 1.941 . S
C138 O139 1.258 . S
C138 O140 1.263 . S
O139 Co136 1.970 . S
O139 C138 1.258 . S
O140 Co137 1.966 . S
O140 C138 1.263 . S
C141 O142 1.235 . S
C141 O168 1.289 . S
O142 C141 1.235 . S
C143 C145 1.400 . S
C143 N146 1.351 . S
C143 C148 1.501 . S
C144 C145 1.387 . S
C144 N147 1.341 . S
C145 C143 1.400 . S
C145 C144 1.387 . S
N146 Co137 2.022 . S
N146 C143 1.351 . S
N146 N147 1.365 . S
N147 C144 1.341 . S
N147 N146 1.365 . S
N147 H167 0.862 . S
C148 C143 1.501 . S
C148 H149 0.961 . S
C148 H150 0.961 . S
C148 H151 0.960 . S
H149 C148 0.961 . S
H150 C148 0.961 . S
H151 C148 0.960 . S
C152 N153 1.342 . S
C152 C156 1.401 . S
C152 C157 1.499 . S
N153 Co136 1.989 . S
N153 C152 1.342 . S
N153 N154 1.388 . S
N154 Co137 1.993 . S
N154 N153 1.388 . S
N154 C155 1.346 . S
C155 N154 1.346 . S
C155 C156 1.396 . S
C155 C165 1.510 . S
C156 C152 1.401 . S
C156 C155 1.396 . S
C157 C152 1.499 . S
C157 H158 0.959 . S
C157 H159 0.960 . S
C157 H160 0.961 . S
H158 C157 0.959 . S
H159 C157 0.960 . S
H160 C157 0.961 . S
O161 Co136 1.967 . S
O161 C169 1.258 . S
O162 Co137 1.941 . S
O162 C169 1.266 . S
H163 C165 0.959 . S
H164 C165 0.961 . S
C165 C155 1.510 . S
C165 H163 0.959 . S
C165 H164 0.961 . S
C165 H166 0.960 . S
H166 C165 0.960 . S
H167 N147 0.862 . S
O168 Co136 1.920 . S
O168 C141 1.289 . S
C169 O161 1.258 . S
C169 O162 1.266 . S
Co170 O173 1.970 . S
Co170 N187 1.989 . S
Co170 O195 1.967 . S
Co170 O202 1.920 . S
Co171 O174 1.966 . S
Co171 N180 2.022 . S
Co171 N188 1.993 . S
Co171 O196 1.941 . S
C172 O173 1.258 . S
C172 O174 1.263 . S
O173 Co170 1.970 . S
O173 C172 1.258 . S
O174 Co171 1.966 . S
O174 C172 1.263 . S
C175 O176 1.235 . S
C175 O202 1.289 . S
O176 C175 1.235 . S
C177 C179 1.400 . S
C177 N180 1.351 . S
C177 C182 1.501 . S
C178 C179 1.387 . S
C178 N181 1.341 . S
C179 C177 1.400 . S
C179 C178 1.387 . S
N180 Co171 2.022 . S
N180 C177 1.351 . S
N180 N181 1.365 . S
N181 C178 1.341 . S
N181 N180 1.365 . S
N181 H201 0.862 . S
C182 C177 1.501 . S
C182 H183 0.961 . S
C182 H184 0.961 . S
C182 H185 0.960 . S
H183 C182 0.961 . S
H184 C182 0.961 . S
H185 C182 0.960 . S
C186 N187 1.342 . S
C186 C190 1.401 . S
C186 C191 1.499 . S
N187 Co170 1.989 . S
N187 C186 1.342 . S
N187 N188 1.388 . S
N188 Co171 1.993 . S
N188 N187 1.388 . S
N188 C189 1.346 . S
C189 N188 1.346 . S
C189 C190 1.396 . S
C189 C199 1.510 . S
C190 C186 1.401 . S
C190 C189 1.396 . S
C191 C186 1.499 . S
C191 H192 0.959 . S
C191 H193 0.960 . S
C191 H194 0.961 . S
H192 C191 0.959 . S
H193 C191 0.960 . S
H194 C191 0.961 . S
O195 Co170 1.967 . S
O195 C203 1.258 . S
O196 Co171 1.941 . S
O196 C203 1.266 . S
H197 C199 0.959 . S
H198 C199 0.961 . S
C199 C189 1.510 . S
C199 H197 0.959 . S
C199 H198 0.961 . S
C199 H200 0.960 . S
H200 C199 0.960 . S
H201 N181 0.862 . S
O202 Co170 1.920 . S
O202 C175 1.289 . S
C203 O195 1.258 . S
C203 O196 1.266 . S
Co204 O207 1.970 . S
Co204 N221 1.989 . S
Co204 O229 1.967 . S
Co204 O236 1.920 . S
Co205 O208 1.966 . S
Co205 N214 2.022 . S
Co205 N222 1.993 . S
Co205 O230 1.941 . S
C206 O207 1.258 . S
C206 O208 1.263 . S
O207 Co204 1.970 . S
O207 C206 1.258 . S
O208 Co205 1.966 . S
O208 C206 1.263 . S
C209 O210 1.235 . S
C209 O236 1.289 . S
O210 C209 1.235 . S
C211 C213 1.400 . S
C211 N214 1.351 . S
C211 C216 1.501 . S
C212 C213 1.387 . S
C212 N215 1.341 . S
C213 C211 1.400 . S
C213 C212 1.387 . S
N214 Co205 2.022 . S
N214 C211 1.351 . S
N214 N215 1.365 . S
N215 C212 1.341 . S
N215 N214 1.365 . S
N215 H235 0.862 . S
C216 C211 1.501 . S
C216 H217 0.961 . S
C216 H218 0.961 . S
C216 H219 0.960 . S
H217 C216 0.961 . S
H218 C216 0.961 . S
H219 C216 0.960 . S
C220 N221 1.342 . S
C220 C224 1.401 . S
C220 C225 1.499 . S
N221 Co204 1.989 . S
N221 C220 1.342 . S
N221 N222 1.388 . S
N222 Co205 1.993 . S
N222 N221 1.388 . S
N222 C223 1.346 . S
C223 N222 1.346 . S
C223 C224 1.396 . S
C223 C233 1.510 . S
C224 C220 1.401 . S
C224 C223 1.396 . S
C225 C220 1.499 . S
C225 H226 0.959 . S
C225 H227 0.960 . S
C225 H228 0.961 . S
H226 C225 0.959 . S
H227 C225 0.960 . S
H228 C225 0.961 . S
O229 Co204 1.967 . S
O229 C237 1.258 . S
O230 Co205 1.941 . S
O230 C237 1.266 . S
H231 C233 0.959 . S
H232 C233 0.961 . S
C233 C223 1.510 . S
C233 H231 0.959 . S
C233 H232 0.961 . S
C233 H234 0.960 . S
H234 C233 0.960 . S
H235 N215 0.862 . S
O236 Co204 1.920 . S
O236 C209 1.289 . S
C237 O229 1.258 . S
C237 O230 1.266 . S
Co238 O241 1.970 . S
Co238 N255 1.989 . S
Co238 O263 1.967 . S
Co238 O270 1.920 . S
Co239 O242 1.966 . S
Co239 N248 2.022 . S
Co239 N256 1.993 . S
Co239 O264 1.941 . S
C240 O241 1.258 . S
C240 O242 1.263 . S
O241 Co238 1.970 . S
O241 C240 1.258 . S
O242 Co239 1.966 . S
O242 C240 1.263 . S
C243 O244 1.235 . S
C243 O270 1.289 . S
O244 C243 1.235 . S
C245 C247 1.400 . S
C245 N248 1.351 . S
C245 C250 1.501 . S
C246 C247 1.387 . S
C246 N249 1.341 . S
C247 C245 1.400 . S
C247 C246 1.387 . S
N248 Co239 2.022 . S
N248 C245 1.351 . S
N248 N249 1.365 . S
N249 C246 1.341 . S
N249 N248 1.365 . S
N249 H269 0.862 . S
C250 C245 1.501 . S
C250 H251 0.961 . S
C250 H252 0.961 . S
C250 H253 0.960 . S
H251 C250 0.961 . S
H252 C250 0.961 . S
H253 C250 0.960 . S
C254 N255 1.342 . S
C254 C258 1.401 . S
C254 C259 1.499 . S
N255 Co238 1.989 . S
N255 C254 1.342 . S
N255 N256 1.388 . S
N256 Co239 1.993 . S
N256 N255 1.388 . S
N256 C257 1.346 . S
C257 N256 1.346 . S
C257 C258 1.396 . S
C257 C267 1.510 . S
C258 C254 1.401 . S
C258 C257 1.396 . S
C259 C254 1.499 . S
C259 H260 0.959 . S
C259 H261 0.960 . S
C259 H262 0.961 . S
H260 C259 0.959 . S
H261 C259 0.960 . S
H262 C259 0.961 . S
O263 Co238 1.967 . S
O263 C271 1.258 . S
O264 Co239 1.941 . S
O264 C271 1.266 . S
H265 C267 0.959 . S
H266 C267 0.961 . S
C267 C257 1.510 . S
C267 H265 0.959 . S
C267 H266 0.961 . S
C267 H268 0.960 . S
H268 C267 0.960 . S
H269 N249 0.862 . S
O270 Co238 1.920 . S
O270 C243 1.289 . S
C271 O263 1.258 . S
C271 O264 1.266 . S
Co272 O275 1.970 . S
Co272 N289 1.989 . S
Co272 O297 1.967 . S
Co272 O304 1.920 . S
Co273 O276 1.966 . S
Co273 N282 2.022 . S
Co273 N290 1.993 . S
Co273 O298 1.941 . S
C274 O275 1.258 . S
C274 O276 1.263 . S
O275 Co272 1.970 . S
O275 C274 1.258 . S
O276 Co273 1.966 . S
O276 C274 1.263 . S
C277 O278 1.235 . S
C277 O304 1.289 1_455 S
O278 C277 1.235 . S
C279 C281 1.400 . S
C279 N282 1.351 . S
C279 C284 1.501 . S
C280 C281 1.387 . S
C280 N283 1.341 . S
C281 C279 1.400 . S
C281 C280 1.387 . S
N282 Co273 2.022 . S
N282 C279 1.351 . S
N282 N283 1.365 . S
N283 C280 1.341 . S
N283 N282 1.365 . S
N283 H303 0.862 . S
C284 C279 1.501 . S
C284 H285 0.961 . S
C284 H286 0.961 . S
C284 H287 0.960 . S
H285 C284 0.961 . S
H286 C284 0.961 . S
H287 C284 0.960 . S
C288 N289 1.342 . S
C288 C292 1.401 . S
C288 C293 1.499 . S
N289 Co272 1.989 . S
N289 C288 1.342 . S
N289 N290 1.388 . S
N290 Co273 1.993 . S
N290 N289 1.388 . S
N290 C291 1.346 . S
C291 N290 1.346 . S
C291 C292 1.396 . S
C291 C301 1.510 . S
C292 C288 1.401 . S
C292 C291 1.396 . S
C293 C288 1.499 . S
C293 H294 0.959 . S
C293 H295 0.960 1_556 S
C293 H296 0.961 . S
H294 C293 0.959 . S
H295 C293 0.960 1_554 S
H296 C293 0.961 . S
O297 Co272 1.967 . S
O297 C305 1.258 . S
O298 Co273 1.941 . S
O298 C305 1.266 . S
H299 C301 0.959 . S
H300 C301 0.961 . S
C301 C291 1.510 . S
C301 H299 0.959 . S
C301 H300 0.961 . S
C301 H302 0.960 . S
H302 C301 0.960 . S
H303 N283 0.862 . S
O304 Co272 1.920 . S
O304 C277 1.289 1_655 S
C305 O297 1.258 . S
C305 O298 1.266 . S
Co306 O309 1.970 . S
Co306 N323 1.989 . S
Co306 O331 1.967 . S
Co306 O338 1.920 . S
Co307 O310 1.966 . S
Co307 N316 2.022 . S
Co307 N324 1.993 . S
Co307 O332 1.941 . S
C308 O309 1.258 . S
C308 O310 1.263 . S
O309 Co306 1.970 . S
O309 C308 1.258 . S
O310 Co307 1.966 . S
O310 C308 1.263 . S
C311 O312 1.235 . S
C311 O338 1.289 1_545 S
O312 C311 1.235 . S
C313 C315 1.400 . S
C313 N316 1.351 . S
C313 C318 1.501 . S
C314 C315 1.387 . S
C314 N317 1.341 . S
C315 C313 1.400 . S
C315 C314 1.387 . S
N316 Co307 2.022 . S
N316 C313 1.351 . S
N316 N317 1.365 . S
N317 C314 1.341 . S
N317 N316 1.365 . S
N317 H337 0.862 . S
C318 C313 1.501 . S
C318 H319 0.961 . S
C318 H320 0.961 . S
C318 H321 0.960 . S
H319 C318 0.961 . S
H320 C318 0.961 . S
H321 C318 0.960 . S
C322 N323 1.342 . S
C322 C326 1.401 . S
C322 C327 1.499 . S
N323 Co306 1.989 . S
N323 C322 1.342 . S
N323 N324 1.388 . S
N324 Co307 1.993 . S
N324 N323 1.388 . S
N324 C325 1.346 . S
C325 N324 1.346 . S
C325 C326 1.396 . S
C325 C335 1.510 . S
C326 C322 1.401 . S
C326 C325 1.396 . S
C327 C322 1.499 . S
C327 H328 0.959 . S
C327 H329 0.960 1_556 S
C327 H330 0.961 . S
H328 C327 0.959 . S
H329 C327 0.960 1_554 S
H330 C327 0.961 . S
O331 Co306 1.967 . S
O331 C339 1.258 . S
O332 Co307 1.941 . S
O332 C339 1.266 . S
H333 C335 0.959 . S
H334 C335 0.961 . S
C335 C325 1.510 . S
C335 H333 0.959 . S
C335 H334 0.961 . S
C335 H336 0.960 . S
H336 C335 0.960 . S
H337 N317 0.862 . S
O338 Co306 1.920 . S
O338 C311 1.289 1_565 S
C339 O331 1.258 . S
C339 O332 1.266 . S
Co340 O343 1.970 . S
Co340 N357 1.989 . S
Co340 O365 1.967 . S
Co340 O372 1.920 . S
Co341 O344 1.966 . S
Co341 N350 2.022 . S
Co341 N358 1.993 . S
Co341 O366 1.941 . S
C342 O343 1.258 . S
C342 O344 1.263 . S
O343 Co340 1.970 . S
O343 C342 1.258 . S
O344 Co341 1.966 . S
O344 C342 1.263 . S
C345 O346 1.235 . S
C345 O372 1.289 1_655 S
O346 C345 1.235 . S
C347 C349 1.400 . S
C347 N350 1.351 . S
C347 C352 1.501 . S
C348 C349 1.387 . S
C348 N351 1.341 . S
C349 C347 1.400 . S
C349 C348 1.387 . S
N350 Co341 2.022 . S
N350 C347 1.351 . S
N350 N351 1.365 . S
N351 C348 1.341 . S
N351 N350 1.365 . S
N351 H371 0.862 . S
C352 C347 1.501 . S
C352 H353 0.961 . S
C352 H354 0.961 . S
C352 H355 0.960 . S
H353 C352 0.961 . S
H354 C352 0.961 . S
H355 C352 0.960 . S
C356 N357 1.342 . S
C356 C360 1.401 . S
C356 C361 1.499 . S
N357 Co340 1.989 . S
N357 C356 1.342 . S
N357 N358 1.388 . S
N358 Co341 1.993 . S
N358 N357 1.388 . S
N358 C359 1.346 . S
C359 N358 1.346 . S
C359 C360 1.396 . S
C359 C369 1.510 . S
C360 C356 1.401 . S
C360 C359 1.396 . S
C361 C356 1.499 . S
C361 H362 0.959 . S
C361 H363 0.960 1_556 S
C361 H364 0.961 . S
H362 C361 0.959 . S
H363 C361 0.960 1_554 S
H364 C361 0.961 . S
O365 Co340 1.967 . S
O365 C373 1.258 . S
O366 Co341 1.941 . S
O366 C373 1.266 . S
H367 C369 0.959 . S
H368 C369 0.961 . S
C369 C359 1.510 . S
C369 H367 0.959 . S
C369 H368 0.961 . S
C369 H370 0.960 . S
H370 C369 0.960 . S
H371 N351 0.862 . S
O372 Co340 1.920 . S
O372 C345 1.289 1_455 S
C373 O365 1.258 . S
C373 O366 1.266 . S
Co374 O377 1.970 . S
Co374 N391 1.989 . S
Co374 O399 1.967 . S
Co374 O406 1.920 . S
Co375 O378 1.966 . S
Co375 N384 2.022 . S
Co375 N392 1.993 . S
Co375 O400 1.941 . S
C376 O377 1.258 . S
C376 O378 1.263 . S
O377 Co374 1.970 . S
O377 C376 1.258 . S
O378 Co375 1.966 . S
O378 C376 1.263 . S
C379 O380 1.235 . S
C379 O406 1.289 1_565 S
O380 C379 1.235 . S
C381 C383 1.400 . S
C381 N384 1.351 . S
C381 C386 1.501 . S
C382 C383 1.387 . S
C382 N385 1.341 . S
C383 C381 1.400 . S
C383 C382 1.387 . S
N384 Co375 2.022 . S
N384 C381 1.351 . S
N384 N385 1.365 . S
N385 C382 1.341 . S
N385 N384 1.365 . S
N385 H405 0.862 . S
C386 C381 1.501 . S
C386 H387 0.961 . S
C386 H388 0.961 . S
C386 H389 0.960 . S
H387 C386 0.961 . S
H388 C386 0.961 . S
H389 C386 0.960 . S
C390 N391 1.342 . S
C390 C394 1.401 . S
C390 C395 1.499 . S
N391 Co374 1.989 . S
N391 C390 1.342 . S
N391 N392 1.388 . S
N392 Co375 1.993 . S
N392 N391 1.388 . S
N392 C393 1.346 . S
C393 N392 1.346 . S
C393 C394 1.396 . S
C393 C403 1.510 . S
C394 C390 1.401 . S
C394 C393 1.396 . S
C395 C390 1.499 . S
C395 H396 0.959 . S
C395 H397 0.960 1_556 S
C395 H398 0.961 . S
H396 C395 0.959 . S
H397 C395 0.960 1_554 S
H398 C395 0.961 . S
O399 Co374 1.967 . S
O399 C407 1.258 . S
O400 Co375 1.941 . S
O400 C407 1.266 . S
H401 C403 0.959 . S
H402 C403 0.961 . S
C403 C393 1.510 . S
C403 H401 0.959 . S
C403 H402 0.961 . S
C403 H404 0.960 . S
H404 C403 0.960 . S
H405 N385 0.862 . S
O406 Co374 1.920 . S
O406 C379 1.289 1_545 S
C407 O399 1.258 . S
C407 O400 1.266 . S
Co408 O411 1.970 . S
Co408 N425 1.989 . S
Co408 O433 1.967 . S
Co408 O440 1.920 . S
Co409 O412 1.966 . S
Co409 N418 2.022 . S
Co409 N426 1.993 . S
Co409 O434 1.941 . S
C410 O411 1.258 . S
C410 O412 1.263 . S
O411 Co408 1.970 . S
O411 C410 1.258 . S
O412 Co409 1.966 . S
O412 C410 1.263 . S
C413 O414 1.235 . S
C413 O440 1.289 1_455 S
O414 C413 1.235 . S
C415 C417 1.400 . S
C415 N418 1.351 . S
C415 C420 1.501 . S
C416 C417 1.387 . S
C416 N419 1.341 . S
C417 C415 1.400 . S
C417 C416 1.387 . S
N418 Co409 2.022 . S
N418 C415 1.351 . S
N418 N419 1.365 . S
N419 C416 1.341 . S
N419 N418 1.365 . S
N419 H439 0.862 . S
C420 C415 1.501 . S
C420 H421 0.961 . S
C420 H422 0.961 . S
C420 H423 0.960 . S
H421 C420 0.961 . S
H422 C420 0.961 . S
H423 C420 0.960 . S
C424 N425 1.342 . S
C424 C428 1.401 . S
C424 C429 1.499 . S
N425 Co408 1.989 . S
N425 C424 1.342 . S
N425 N426 1.388 . S
N426 Co409 1.993 . S
N426 N425 1.388 . S
N426 C427 1.346 . S
C427 N426 1.346 . S
C427 C428 1.396 . S
C427 C437 1.510 . S
C428 C424 1.401 . S
C428 C427 1.396 . S
C429 C424 1.499 . S
C429 H430 0.959 . S
C429 H431 0.960 . S
C429 H432 0.961 . S
H430 C429 0.959 . S
H431 C429 0.960 . S
H432 C429 0.961 . S
O433 Co408 1.967 . S
O433 C441 1.258 . S
O434 Co409 1.941 . S
O434 C441 1.266 . S
H435 C437 0.959 . S
H436 C437 0.961 . S
C437 C427 1.510 . S
C437 H435 0.959 . S
C437 H436 0.961 . S
C437 H438 0.960 . S
H438 C437 0.960 . S
H439 N419 0.862 . S
O440 Co408 1.920 . S
O440 C413 1.289 1_655 S
C441 O433 1.258 . S
C441 O434 1.266 . S
Co442 O445 1.970 . S
Co442 N459 1.989 . S
Co442 O467 1.967 . S
Co442 O474 1.920 . S
Co443 O446 1.966 . S
Co443 N452 2.022 . S
Co443 N460 1.993 . S
Co443 O468 1.941 . S
C444 O445 1.258 . S
C444 O446 1.263 . S
O445 Co442 1.970 . S
O445 C444 1.258 . S
O446 Co443 1.966 . S
O446 C444 1.263 . S
C447 O448 1.235 . S
C447 O474 1.289 1_545 S
O448 C447 1.235 . S
C449 C451 1.400 . S
C449 N452 1.351 . S
C449 C454 1.501 . S
C450 C451 1.387 . S
C450 N453 1.341 . S
C451 C449 1.400 . S
C451 C450 1.387 . S
N452 Co443 2.022 . S
N452 C449 1.351 . S
N452 N453 1.365 . S
N453 C450 1.341 . S
N453 N452 1.365 . S
N453 H473 0.862 . S
C454 C449 1.501 . S
C454 H455 0.961 . S
C454 H456 0.961 . S
C454 H457 0.960 . S
H455 C454 0.961 . S
H456 C454 0.961 . S
H457 C454 0.960 . S
C458 N459 1.342 . S
C458 C462 1.401 . S
C458 C463 1.499 . S
N459 Co442 1.989 . S
N459 C458 1.342 . S
N459 N460 1.388 . S
N460 Co443 1.993 . S
N460 N459 1.388 . S
N460 C461 1.346 . S
C461 N460 1.346 . S
C461 C462 1.396 . S
C461 C471 1.510 . S
C462 C458 1.401 . S
C462 C461 1.396 . S
C463 C458 1.499 . S
C463 H464 0.959 . S
C463 H465 0.960 . S
C463 H466 0.961 . S
H464 C463 0.959 . S
H465 C463 0.960 . S
H466 C463 0.961 . S
O467 Co442 1.967 . S
O467 C475 1.258 . S
O468 Co443 1.941 . S
O468 C475 1.266 . S
H469 C471 0.959 . S
H470 C471 0.961 . S
C471 C461 1.510 . S
C471 H469 0.959 . S
C471 H470 0.961 . S
C471 H472 0.960 . S
H472 C471 0.960 . S
H473 N453 0.862 . S
O474 Co442 1.920 . S
O474 C447 1.289 1_565 S
C475 O467 1.258 . S
C475 O468 1.266 . S
Co476 O479 1.970 . S
Co476 N493 1.989 . S
Co476 O501 1.967 . S
Co476 O508 1.920 . S
Co477 O480 1.966 . S
Co477 N486 2.022 . S
Co477 N494 1.993 . S
Co477 O502 1.941 . S
C478 O479 1.258 . S
C478 O480 1.263 . S
O479 Co476 1.970 . S
O479 C478 1.258 . S
O480 Co477 1.966 . S
O480 C478 1.263 . S
C481 O482 1.235 . S
C481 O508 1.289 1_655 S
O482 C481 1.235 . S
C483 C485 1.400 . S
C483 N486 1.351 . S
C483 C488 1.501 . S
C484 C485 1.387 . S
C484 N487 1.341 . S
C485 C483 1.400 . S
C485 C484 1.387 . S
N486 Co477 2.022 . S
N486 C483 1.351 . S
N486 N487 1.365 . S
N487 C484 1.341 . S
N487 N486 1.365 . S
N487 H507 0.862 . S
C488 C483 1.501 . S
C488 H489 0.961 . S
C488 H490 0.961 . S
C488 H491 0.960 . S
H489 C488 0.961 . S
H490 C488 0.961 . S
H491 C488 0.960 . S
C492 N493 1.342 . S
C492 C496 1.401 . S
C492 C497 1.499 . S
N493 Co476 1.989 . S
N493 C492 1.342 . S
N493 N494 1.388 . S
N494 Co477 1.993 . S
N494 N493 1.388 . S
N494 C495 1.346 . S
C495 N494 1.346 . S
C495 C496 1.396 . S
C495 C505 1.510 . S
C496 C492 1.401 . S
C496 C495 1.396 . S
C497 C492 1.499 . S
C497 H498 0.959 . S
C497 H499 0.960 . S
C497 H500 0.961 . S
H498 C497 0.959 . S
H499 C497 0.960 . S
H500 C497 0.961 . S
O501 Co476 1.967 . S
O501 C509 1.258 . S
O502 Co477 1.941 . S
O502 C509 1.266 . S
H503 C505 0.959 . S
H504 C505 0.961 . S
C505 C495 1.510 . S
C505 H503 0.959 . S
C505 H504 0.961 . S
C505 H506 0.960 . S
H506 C505 0.960 . S
H507 N487 0.862 . S
O508 Co476 1.920 . S
O508 C481 1.289 1_455 S
C509 O501 1.258 . S
C509 O502 1.266 . S
Co510 O513 1.970 . S
Co510 N527 1.989 . S
Co510 O535 1.967 . S
Co510 O542 1.920 . S
Co511 O514 1.966 . S
Co511 N520 2.022 . S
Co511 N528 1.993 . S
Co511 O536 1.941 . S
C512 O513 1.258 . S
C512 O514 1.263 . S
O513 Co510 1.970 . S
O513 C512 1.258 . S
O514 Co511 1.966 . S
O514 C512 1.263 . S
C515 O516 1.235 . S
C515 O542 1.289 1_565 S
O516 C515 1.235 . S
C517 C519 1.400 . S
C517 N520 1.351 . S
C517 C522 1.501 . S
C518 C519 1.387 . S
C518 N521 1.341 . S
C519 C517 1.400 . S
C519 C518 1.387 . S
N520 Co511 2.022 . S
N520 C517 1.351 . S
N520 N521 1.365 . S
N521 C518 1.341 . S
N521 N520 1.365 . S
N521 H541 0.862 . S
C522 C517 1.501 . S
C522 H523 0.961 . S
C522 H524 0.961 . S
C522 H525 0.960 . S
H523 C522 0.961 . S
H524 C522 0.961 . S
H525 C522 0.960 . S
C526 N527 1.342 . S
C526 C530 1.401 . S
C526 C531 1.499 . S
N527 Co510 1.989 . S
N527 C526 1.342 . S
N527 N528 1.388 . S
N528 Co511 1.993 . S
N528 N527 1.388 . S
N528 C529 1.346 . S
C529 N528 1.346 . S
C529 C530 1.396 . S
C529 C539 1.510 . S
C530 C526 1.401 . S
C530 C529 1.396 . S
C531 C526 1.499 . S
C531 H532 0.959 . S
C531 H533 0.960 . S
C531 H534 0.961 . S
H532 C531 0.959 . S
H533 C531 0.960 . S
H534 C531 0.961 . S
O535 Co510 1.967 . S
O535 C543 1.258 . S
O536 Co511 1.941 . S
O536 C543 1.266 . S
H537 C539 0.959 . S
H538 C539 0.961 . S
C539 C529 1.510 . S
C539 H537 0.959 . S
C539 H538 0.961 . S
C539 H540 0.960 . S
H540 C539 0.960 . S
H541 N521 0.862 . S
O542 Co510 1.920 . S
O542 C515 1.289 1_545 S
C543 O535 1.258 . S
C543 O536 1.266 . S
C73 C5 2.061 1_655 S
C39 C107 2.061 1_545 S
C209 C141 2.061 1_655 S
C243 C175 2.061 1_565 S
C277 C345 2.061 1_455 S
C311 C379 2.061 1_545 S
C413 C481 2.061 1_455 S
C515 C447 2.061 1_565 S
C9 C179 1.664 . S
C213 C43 1.664 . S
C247 C77 1.664 . S
C145 C111 1.664 . S
C451 C281 1.664 . S
C485 C315 1.664 . S
C519 C349 1.664 . S
C417 C383 1.664 . S
C20 C360 1.603 1_554 S
C394 C54 1.603 1_556 S
C292 C88 1.603 1_556 S
C326 C122 1.603 1_556 S
C156 C496 1.603 . S
C190 C530 1.603 . S
C224 C428 1.603 . S
C258 C462 1.603 . S
C138 C2 2.212 . S
C36 C172 2.212 . S
C206 C70 2.212 . S
C240 C104 2.212 . S
C305 C441 2.167 . S
C475 C339 2.167 . S
C373 C509 2.167 . S
C543 C407 2.167 . S
C376 C444 2.212 1_545 S
C274 C478 2.212 1_655 S
C512 C308 2.212 1_545 S
C410 C342 2.212 1_655 S
C135 C203 2.167 1_565 S
C33 C237 2.167 1_455 S
C271 C67 2.167 1_565 S
C101 C169 2.167 1_655 S
