# Generated by pormake.
# Topology zfk, (5)-cn, num edge types: 1
# Building blocks:
#     Node 0, Type 0, BuildingBlock: XOMCOT_clean_sbu_0, # of connection points: 5
#     Node 1, Type 0, BuildingBlock: XOMCOT_clean_sbu_0, # of connection points: 5
#     Node 2, Type 0, BuildingBlock: XOMCOT_clean_sbu_0, # of connection points: 5
#     Node 3, Type 0, BuildingBlock: XOMCOT_clean_sbu_0, # of connection points: 5
#     Node 4, Type 0, BuildingBlock: XOMCOT_clean_sbu_0, # of connection points: 5
#     Node 5, Type 0, BuildingBlock: XOMCOT_clean_sbu_0, # of connection points: 5
#     Node 6, Type 0, BuildingBlock: XOMCOT_clean_sbu_0, # of connection points: 5
#     Node 7, Type 0, BuildingBlock: XOMCOT_clean_sbu_0, # of connection points: 5
#     Node 8, Type 0, BuildingBlock: XOMCOT_clean_sbu_0, # of connection points: 5
#     Node 9, Type 0, BuildingBlock: XOMCOT_clean_sbu_0, # of connection points: 5
#     Node 10, Type 0, BuildingBlock: XOMCOT_clean_sbu_0, # of connection points: 5
#     Node 11, Type 0, BuildingBlock: XOMCOT_clean_sbu_0, # of connection points: 5
#     Node 12, Type 0, BuildingBlock: XOMCOT_clean_sbu_0, # of connection points: 5
#     Node 13, Type 0, BuildingBlock: XOMCOT_clean_sbu_0, # of connection points: 5
#     Node 14, Type 0, BuildingBlock: XOMCOT_clean_sbu_0, # of connection points: 5
#     Node 15, Type 0, BuildingBlock: XOMCOT_clean_sbu_0, # of connection points: 5
#     Edge 16, Type (0, 0), BuildingBlock: AJUNOK_clean_linker_0, # of connection points: 2
#     Edge 17, Type (0, 0), BuildingBlock: AJUNOK_clean_linker_0, # of connection points: 2
#     Edge 18, Type (0, 0), BuildingBlock: AJUNOK_clean_linker_0, # of connection points: 2
#     Edge 19, Type (0, 0), BuildingBlock: AJUNOK_clean_linker_0, # of connection points: 2
#     Edge 20, Type (0, 0), BuildingBlock: AJUNOK_clean_linker_0, # of connection points: 2
#     Edge 21, Type (0, 0), BuildingBlock: AJUNOK_clean_linker_0, # of connection points: 2
#     Edge 22, Type (0, 0), BuildingBlock: AJUNOK_clean_linker_0, # of connection points: 2
#     Edge 23, Type (0, 0), BuildingBlock: AJUNOK_clean_linker_0, # of connection points: 2
#     Edge 24, Type (0, 0), BuildingBlock: AJUNOK_clean_linker_0, # of connection points: 2
#     Edge 25, Type (0, 0), BuildingBlock: AJUNOK_clean_linker_0, # of connection points: 2
#     Edge 26, Type (0, 0), BuildingBlock: AJUNOK_clean_linker_0, # of connection points: 2
#     Edge 27, Type (0, 0), BuildingBlock: AJUNOK_clean_linker_0, # of connection points: 2
#     Edge 28, Type (0, 0), BuildingBlock: AJUNOK_clean_linker_0, # of connection points: 2
#     Edge 29, Type (0, 0), BuildingBlock: AJUNOK_clean_linker_0, # of connection points: 2
#     Edge 30, Type (0, 0), BuildingBlock: AJUNOK_clean_linker_0, # of connection points: 2
#     Edge 31, Type (0, 0), BuildingBlock: AJUNOK_clean_linker_0, # of connection points: 2
#     Edge 32, Type (0, 0), BuildingBlock: AJUNOK_clean_linker_0, # of connection points: 2
#     Edge 33, Type (0, 0), BuildingBlock: AJUNOK_clean_linker_0, # of connection points: 2
#     Edge 34, Type (0, 0), BuildingBlock: AJUNOK_clean_linker_0, # of connection points: 2
#     Edge 35, Type (0, 0), BuildingBlock: AJUNOK_clean_linker_0, # of connection points: 2
#     Edge 36, Type (0, 0), BuildingBlock: AJUNOK_clean_linker_0, # of connection points: 2
#     Edge 37, Type (0, 0), BuildingBlock: AJUNOK_clean_linker_0, # of connection points: 2
#     Edge 38, Type (0, 0), BuildingBlock: AJUNOK_clean_linker_0, # of connection points: 2
#     Edge 39, Type (0, 0), BuildingBlock: AJUNOK_clean_linker_0, # of connection points: 2
#     Edge 40, Type (0, 0), BuildingBlock: AJUNOK_clean_linker_0, # of connection points: 2
#     Edge 41, Type (0, 0), BuildingBlock: AJUNOK_clean_linker_0, # of connection points: 2
#     Edge 42, Type (0, 0), BuildingBlock: AJUNOK_clean_linker_0, # of connection points: 2
#     Edge 43, Type (0, 0), BuildingBlock: AJUNOK_clean_linker_0, # of connection points: 2
#     Edge 44, Type (0, 0), BuildingBlock: AJUNOK_clean_linker_0, # of connection points: 2
#     Edge 45, Type (0, 0), BuildingBlock: AJUNOK_clean_linker_0, # of connection points: 2
#     Edge 46, Type (0, 0), BuildingBlock: AJUNOK_clean_linker_0, # of connection points: 2
#     Edge 47, Type (0, 0), BuildingBlock: AJUNOK_clean_linker_0, # of connection points: 2
#     Edge 48, Type (0, 0), BuildingBlock: AJUNOK_clean_linker_0, # of connection points: 2
#     Edge 49, Type (0, 0), BuildingBlock: AJUNOK_clean_linker_0, # of connection points: 2
#     Edge 50, Type (0, 0), BuildingBlock: AJUNOK_clean_linker_0, # of connection points: 2
#     Edge 51, Type (0, 0), BuildingBlock: AJUNOK_clean_linker_0, # of connection points: 2
#     Edge 52, Type (0, 0), BuildingBlock: AJUNOK_clean_linker_0, # of connection points: 2
#     Edge 53, Type (0, 0), BuildingBlock: AJUNOK_clean_linker_0, # of connection points: 2
#     Edge 54, Type (0, 0), BuildingBlock: AJUNOK_clean_linker_0, # of connection points: 2
#     Edge 55, Type (0, 0), BuildingBlock: AJUNOK_clean_linker_0, # of connection points: 2
# Relax obj value: 0.349
# Max RMSD: 0.201
# Mean RMSD: 0.201
data_MOF--net-zfk--node1-XOMCOT_clean_sbu_0--edge1-AJUNOK_clean_linker_0
_symmetry_space_group_name_H-M    P1
_symmetry_Int_Tables_number       1
_symmetry_cell_setting            triclinic
loop_
_symmetry_equiv_pos_as_xyz
'x, y, z'
_cell_length_a     21.941457
_cell_length_b     21.872042
_cell_length_c     51.148163
_cell_angle_alpha  90.090411
_cell_angle_beta   89.964285
_cell_angle_gamma 89.922437
loop_
_atom_site_label
_atom_site_type_symbol
_atom_site_fract_x
_atom_site_fract_y
_atom_site_fract_z
_atom_type_partial_charge
Co0 Co 0.08252 0.27318 0.15788 0.0
C1 C 0.05056 0.32928 0.21086 0.0
C2 C 0.98002 0.27069 0.1968 0.0
C3 C 0.96403 0.29146 0.22142 0.0
N4 N 0.03626 0.29119 0.19056 0.0
N5 N 1.00866 0.3281 0.23034 0.0
H6 H 0.09014 0.35843 0.21154 0.0
H7 H 0.95218 0.24203 0.1844 0.0
C8 C 1.02796 0.14754 0.16752 0.0
O9 O 0.03643 0.15775 0.19258 0.0
N10 N 0.12497 0.25666 0.12484 0.0
C11 C 0.18389 0.26648 0.11884 0.0
C12 C 0.19407 0.2481 0.09323 0.0
C13 C 0.10028 0.23241 0.10272 0.0
N14 N 0.14139 0.22676 0.08296 0.0
C15 C 0.16736 0.25763 0.19871 0.0
C16 C 0.18358 0.13323 0.19432 0.0
C17 C 0.19915 0.16164 0.21821 0.0
C18 C 0.19097 0.22565 0.21964 0.0
C19 C 0.15802 0.16795 0.17396 0.0
N20 N 0.14371 0.22807 0.17778 0.0
H21 H 0.16682 0.30661 0.19967 0.0
H22 H 0.14667 0.14584 0.15582 0.0
H23 H 0.21735 0.28499 0.1322 0.0
H24 H 0.05292 0.21919 0.10109 0.0
O25 O 0.12017 0.35344 0.16054 0.0
O26 O 0.03355 0.33726 0.14038 0.0
O27 O 0.03632 0.1917 0.15118 0.0
C28 C 0.07438 0.37692 0.14832 0.0
H29 H 0.9224 0.28101 0.23187 0.0
H30 H 0.23759 0.24872 0.08327 0.0
H31 H 0.19194 0.08501 0.19114 0.0
H32 H 0.20564 0.2529 0.23607 0.0
Co33 Co 0.33741 0.12812 0.66279 0.0
C34 C 0.27617 0.09816 0.71399 0.0
C35 C 0.33984 1.02938 0.7017 0.0
C36 C 0.30873 1.00827 0.72332 0.0
N37 N 0.32002 0.08596 0.69582 0.0
N38 N 0.26855 0.05137 0.73119 0.0
H39 H 0.24922 0.13965 0.7142 0.0
H40 H 0.37229 1.00366 0.69016 0.0
C41 C 0.47144 0.12586 0.6547 0.0
O42 O 0.46008 0.18255 0.64778 0.0
N43 N 0.35182 0.16363 0.62782 0.0
C44 C 0.32605 0.21221 0.61589 0.0
C45 C 0.34203 0.21191 0.58961 0.0
C46 C 0.38042 0.13318 0.60801 0.0
N47 N 0.37687 0.16229 0.58464 0.0
C48 C 0.35135 0.25215 0.68172 0.0
C49 C 0.41428 0.216 0.72606 0.0
C50 C 0.38176 0.27089 0.72667 0.0
C51 C 0.35653 0.29204 0.70301 0.0
C52 C 0.40989 0.17836 0.70409 0.0
N53 N 0.37412 0.19434 0.68317 0.0
H54 H 0.32291 0.26542 0.66559 0.0
H55 H 0.4283 0.13269 0.70566 0.0
H56 H 0.29481 0.24381 0.62498 0.0
H57 H 0.40137 0.08878 0.61049 0.0
O58 O 0.25482 0.15987 0.66306 0.0
O59 O 0.27861 0.07099 0.64608 0.0
O60 O 0.42533 0.09062 0.66045 0.0
C61 C 0.23568 0.11046 0.65214 0.0
H62 H 0.31344 0.96321 0.73178 0.0
H63 H 0.32814 0.24532 0.5752 0.0
H64 H 0.43577 0.19845 0.74357 0.0
H65 H 0.33222 0.33506 0.70221 0.0
Co66 Co 0.47614 0.27412 0.15509 0.0
C67 C 0.51306 0.21412 0.20583 0.0
C68 C 0.56354 0.29616 0.19867 0.0
C69 C 0.58073 0.27265 0.22259 0.0
N70 N 0.5201 0.26024 0.18824 0.0
N71 N 0.54941 0.22052 0.22722 0.0
H72 H 0.48083 0.17727 0.20327 0.0
H73 H 0.58016 0.33801 0.19002 0.0
C74 C 0.46713 0.40847 0.14792 0.0
O75 O 0.40991 0.39381 0.14398 0.0
N76 N 0.43877 0.28618 0.12025 0.0
C77 C 0.39454 0.25478 0.10768 0.0
C78 C 0.38924 0.27652 0.08232 0.0
C79 C 0.46251 0.32283 0.10133 0.0
N80 N 0.43166 0.32019 0.07841 0.0
C81 C 0.35402 0.27136 0.17118 0.0
C82 C 0.39603 0.29038 0.22143 0.0
C83 C 0.35739 0.24087 0.21642 0.0
C84 C 0.33058 0.23683 0.19148 0.0
C85 C 0.41742 0.32433 0.19999 0.0
N86 N 0.40604 0.30348 0.17517 0.0
H87 H 0.33775 0.26221 0.15182 0.0
H88 H 0.45376 0.35676 0.2033 0.0
H89 H 0.36926 0.21687 0.11576 0.0
H90 H 0.50355 0.34935 0.10397 0.0
O91 O 0.4506 0.18988 0.15555 0.0
O92 O 0.53675 0.21847 0.13799 0.0
O93 O 0.50597 0.36468 0.15273 0.0
C94 C 0.50016 0.1733 0.14436 0.0
H95 H 0.61197 0.29463 0.23593 0.0
H96 H 0.35679 0.26095 0.06784 0.0
H97 H 0.41456 0.29824 0.24076 0.0
H98 H 0.29645 0.20289 0.18691 0.0
Co99 Co 0.20561 0.45682 0.67027 0.0
C100 C 0.27602 0.49133 0.71776 0.0
C101 C 0.19872 0.55018 0.71285 0.0
C102 C 0.23097 0.56883 0.7347 0.0
N103 N 0.22643 0.50075 0.70247 0.0
N104 N 0.27998 0.5321 0.73761 0.0
H105 H 0.30804 0.45438 0.71482 0.0
H106 H 0.15799 0.57135 0.70512 0.0
C107 C 0.07087 0.45702 0.66444 0.0
O108 O 0.08213 0.39919 0.65939 0.0
N109 N 0.18789 0.41839 0.63636 0.0
C110 C 0.21314 0.36915 0.62465 0.0
C111 C 0.19469 0.36728 0.59871 0.0
C112 C 0.15691 0.44693 0.61684 0.0
N113 N 0.15869 0.41608 0.59391 0.0
C114 C 0.14056 0.4095 0.71417 0.0
C115 C 0.20636 0.30284 0.71564 0.0
C116 C 0.18963 0.33084 0.73942 0.0
C117 C 0.15027 0.38092 0.73823 0.0
C118 C 0.19944 0.33536 0.69225 0.0
N119 N 0.1725 0.39149 0.69237 0.0
H120 H 0.11722 0.45296 0.71454 0.0
H121 H 0.22364 0.31954 0.67525 0.0
H122 H 0.24563 0.3387 0.63362 0.0
H123 H 0.13554 0.49123 0.61909 0.0
O124 O 0.28867 0.42604 0.66881 0.0
O125 O 0.26199 0.51375 0.6518 0.0
O126 O 0.11704 0.49318 0.66902 0.0
C127 C 0.30608 0.47512 0.65719 0.0
H128 H 0.21954 0.60688 0.74735 0.0
H129 H 0.20766 0.33316 0.58439 0.0
H130 H 0.23484 0.2624 0.71554 0.0
H131 H 0.13535 0.40354 0.75598 0.0
Co132 Co 0.09954 0.06688 0.90294 0.0
C133 C 0.11478 0.03246 0.84619 0.0
C134 C 0.04309 0.0971 0.85049 0.0
C135 C 0.05853 0.09279 0.8243 0.0
N136 N 0.08207 0.06302 0.86469 0.0
N137 N 0.1056 0.05329 0.82142 0.0
H138 H 0.14488 0.99547 0.85106 0.0
H139 H 1.00824 0.12659 0.85854 0.0
C140 C 0.06395 0.20204 0.893 0.0
O141 O 0.09623 0.19883 0.87159 0.0
N142 N 0.11653 0.06976 0.94105 0.0
C143 C 0.14109 1.02449 0.95561 0.0
C144 C 0.14471 0.04298 0.9814 0.0
C145 C 0.10603 0.11568 0.95869 0.0
N146 N 0.12319 0.10045 0.98339 0.0
C147 C 0.21489 0.08392 0.87648 0.0
C148 C 0.22244 0.20423 0.89049 0.0
C149 C 0.2406 0.18688 0.86522 0.0
C150 C 0.24353 0.12468 0.85934 0.0
C151 C 0.19097 0.16221 0.90586 0.0
N152 N 0.17805 0.10613 0.89584 0.0
H153 H 0.2171 0.03563 0.87266 0.0
H154 H 0.16964 0.17757 0.92361 0.0
H155 H 0.15584 0.98062 0.9482 0.0
H156 H 0.08639 0.15953 0.95376 0.0
O157 O 0.12637 0.98126 0.90083 0.0
O158 O 0.03218 1.0089 0.90942 0.0
O159 O 0.0567 0.15296 0.90688 0.0
C160 C 0.07093 0.96421 0.90563 0.0
H161 H 0.03845 0.11997 0.80891 0.0
H162 H 0.16299 1.01653 0.99747 0.0
H163 H 0.22687 0.25115 0.89695 0.0
H164 H 0.26447 0.10846 0.84146 0.0
Co165 Co 0.52683 0.08232 0.40413 0.0
C166 C 0.55589 0.10043 0.34776 0.0
C167 C 0.50978 1.01515 0.35403 0.0
C168 C 0.514 1.02568 0.32742 0.0
N169 N 0.53478 0.06277 0.36684 0.0
N170 N 0.54255 0.07957 0.32345 0.0
H171 H 0.57465 0.14527 0.35169 0.0
H172 H 0.48622 0.9776 0.3633 0.0
C173 C 0.38863 0.0637 0.4111 0.0
O174 O 0.38807 0.11917 0.42078 0.0
N175 N 0.52206 0.10214 0.44239 0.0
C176 C 0.56714 0.13091 0.45566 0.0
C177 C 0.55095 0.13872 0.48137 0.0
C178 C 0.47903 0.09161 0.46134 0.0
N179 N 0.49554 0.11429 0.4852 0.0
C180 C 0.49365 0.21043 0.40883 0.0
C181 C 0.40859 0.20711 0.3691 0.0
C182 C 0.40484 0.25281 0.38797 0.0
C183 C 0.45148 0.25797 0.40654 0.0
C184 C 0.44699 0.15822 0.37367 0.0
N185 N 0.48633 0.1583 0.39446 0.0
H186 H 0.5279 0.21336 0.4238 0.0
H187 H 0.4391 0.11765 0.36221 0.0
H188 H 0.6091 0.14756 0.44729 0.0
H189 H 0.43734 0.06657 0.45832 0.0
O190 O 0.61138 0.11107 0.40295 0.0
O191 O 0.58611 1.01649 0.41192 0.0
O192 O 0.4408 0.03865 0.40518 0.0
C193 C 0.62996 0.05625 0.40836 0.0
H194 H 0.49476 0.99726 0.31217 0.0
H195 H 0.57751 0.16229 0.49609 0.0
H196 H 0.3738 0.2024 0.35419 0.0
H197 H 0.45062 0.294 0.42109 0.0
Co198 Co 0.46656 0.50877 0.90583 0.0
C199 C 0.43752 0.53865 0.84947 0.0
C200 C 0.5177 0.48413 0.85254 0.0
C201 C 0.50116 0.48788 0.82651 0.0
N202 N 0.47516 0.51232 0.8673 0.0
N203 N 0.44976 0.52173 0.82448 0.0
H204 H 0.4019 0.57037 0.85444 0.0
H205 H 0.55591 0.45852 0.86019 0.0
C206 C 0.49493 0.37455 0.89196 0.0
O207 O 0.45893 0.38293 0.87184 0.0
N208 N 0.45825 0.50585 0.94414 0.0
C209 C 0.43068 0.54845 0.95919 0.0
C210 C 0.42723 0.52762 0.98455 0.0
C211 C 0.47074 0.45912 0.96094 0.0
N212 N 0.45226 0.47139 0.98576 0.0
C213 C 0.34299 0.49857 0.88754 0.0
C214 C 0.3369 0.37593 0.89783 0.0
C215 C 0.30989 0.39878 0.87495 0.0
C216 C 0.30637 0.46194 0.8716 0.0
C217 C 0.37516 0.41416 0.91204 0.0
N218 N 0.38604 0.4716 0.90294 0.0
H219 H 0.34219 0.54747 0.88515 0.0
H220 H 0.40312 0.39426 0.92712 0.0
H221 H 0.41183 0.59107 0.95223 0.0
H222 H 0.49139 0.41625 0.95517 0.0
O223 O 0.44071 0.59455 0.90543 0.0
O224 O 0.53623 0.56637 0.9086 0.0
O225 O 0.50758 0.42124 0.90676 0.0
C226 C 0.49705 0.61152 0.9071 0.0
H227 H 0.52362 0.46369 0.8108 0.0
H228 H 0.40526 0.55106 1.00066 0.0
H229 H 0.33521 0.32768 0.90253 0.0
H230 H 0.2803 0.4819 0.85581 0.0
Co231 Co 1.02499 0.46112 0.41437 0.0
C232 C 1.01032 0.42881 0.35626 0.0
C233 C 0.06278 0.50954 0.36267 0.0
C234 C 0.06172 0.49739 0.33623 0.0
N235 N 0.03337 0.46482 0.37571 0.0
N236 N 1.02934 0.44596 0.33196 0.0
H237 H 0.97761 0.3929 0.35952 0.0
H238 H 0.0847 0.54836 0.37177 0.0
C239 C 0.15994 0.48396 0.40596 0.0
O240 O 0.15415 0.43982 0.38872 0.0
N241 N 1.01422 0.45943 0.45283 0.0
C242 C 0.97211 0.42504 0.46524 0.0
C243 C 0.98353 0.42514 0.49167 0.0
C244 C 0.05042 0.48093 0.47251 0.0
N245 N 0.03332 0.45931 0.49635 0.0
C246 C 0.0576 0.33589 0.39955 0.0
C247 C 0.1541 0.33134 0.43392 0.0
C248 C 0.15485 0.29408 0.41186 0.0
C249 C 0.10338 0.29223 0.3957 0.0
C250 C 0.1104 0.37619 0.43572 0.0
N251 N 0.06653 0.38242 0.41694 0.0
H252 H 1.01785 0.33442 0.38745 0.0
H253 H 0.11919 0.41101 0.44985 0.0
H254 H 0.93773 0.39761 0.45571 0.0
H255 H 0.0916 0.50702 0.46926 0.0
O256 O 0.94133 0.43204 0.41 0.0
O257 O 0.96573 0.52911 0.41258 0.0
O258 O 0.11122 0.50331 0.41809 0.0
C259 C 0.92248 0.48818 0.41041 0.0
H260 H 0.08433 0.5242 0.32136 0.0
H261 H 0.96006 0.3977 0.50611 0.0
H262 H 0.19266 0.33362 0.44714 0.0
H263 H 0.10118 0.26139 0.37914 0.0
Co264 Co 0.97574 0.56687 0.9092 0.0
C265 C 0.91082 0.54742 0.85813 0.0
C266 C 0.99532 0.59548 0.85332 0.0
C267 C 0.96686 0.59114 0.82933 0.0
N268 N 0.95996 0.56882 0.87151 0.0
N269 N 0.91328 0.56144 0.83223 0.0
H270 H 0.87371 0.52321 0.86739 0.0
H271 H 0.03821 0.61795 0.85729 0.0
C272 C 1.00194 0.70344 0.91934 0.0
O273 O 0.95976 0.69833 0.93716 0.0
N274 N 0.99351 0.56163 0.94742 0.0
C275 C 0.97789 0.51411 0.96305 0.0
C276 C 0.98577 0.53002 0.98888 0.0
C277 C 1.01544 0.60389 0.96463 0.0
N278 N 1.00835 0.58702 0.9899 0.0
C279 C 0.86939 0.60135 0.93949 0.0
C280 C 0.8405 0.69895 0.90843 0.0
C281 C 0.83315 0.70497 0.93561 0.0
C282 C 0.84014 0.65178 0.95072 0.0
C283 C 0.87653 0.65149 0.89903 0.0
N284 N 0.89725 0.6073 0.91572 0.0
H285 H 0.87701 0.56183 0.95148 0.0
H286 H 0.8948 0.65689 0.87964 0.0
H287 H 0.95647 0.47234 0.95658 0.0
H288 H 0.03707 0.64616 0.9594 0.0
O289 O 0.94731 0.48204 0.90923 0.0
O290 O 0.04291 0.50791 0.90308 0.0
O291 O 1.01808 0.65426 0.90663 0.0
C292 C 1.0027 0.46392 0.90495 0.0
H293 H 0.98367 0.61035 0.81123 0.0
H294 H 0.97113 0.50358 1.00562 0.0
H295 H 0.82952 0.73614 0.89528 0.0
H296 H 0.83125 0.6505 0.97144 0.0
Co297 Co 1.02573 0.96892 0.41806 0.0
C298 C 0.03714 0.93837 0.35993 0.0
C299 C 0.99548 0.86515 0.38083 0.0
C300 C 0.99953 0.84849 0.35523 0.0
N301 N 1.01832 0.92217 0.3845 0.0
N302 N 1.02553 0.89403 0.34182 0.0
H303 H 0.05785 0.98186 0.35525 0.0
H304 H 0.97188 0.83754 0.39473 0.0
C305 C 0.89113 0.98269 0.40389 0.0
O306 O 0.89575 0.92574 0.39642 0.0
N307 N 0.03575 1.01413 0.45111 0.0
C308 C 0.07905 1.00051 0.46893 0.0
C309 C 0.06413 1.02611 0.49252 0.0
C310 C 0.99548 0.04981 0.46449 0.0
N311 N 1.011 0.05656 0.49011 0.0
C312 C 1.00493 0.84661 0.43942 0.0
C313 C 0.89301 0.87566 0.46077 0.0
C314 C 0.90459 0.81528 0.45374 0.0
C315 C 0.96358 0.79955 0.44538 0.0
C316 C 0.93342 0.92043 0.45273 0.0
N317 N 0.98445 0.90557 0.43866 0.0
H318 H 0.04846 0.83503 0.43078 0.0
H319 H 0.91848 0.96683 0.4549 0.0
H320 H 0.116 0.96855 0.46611 0.0
H321 H 0.95275 0.06558 0.45638 0.0
O322 O 0.11047 0.93981 0.42095 0.0
O323 O 0.08524 1.02482 0.40127 0.0
O324 O 0.94027 1.0109 0.4115 0.0
C325 C 0.12915 0.98839 0.40886 0.0
H326 H 0.98338 0.8059 0.34693 0.0
H327 H 0.08718 1.0163 0.51073 0.0
H328 H 0.84858 0.88942 0.46801 0.0
H329 H 0.97475 0.75276 0.44033 0.0
Co330 Co 0.58152 1.00679 0.91009 0.0
C331 C 0.65572 1.0185 0.85946 0.0
C332 C 0.56303 0.99058 0.85389 0.0
C333 C 0.59107 0.99295 0.82983 0.0
N334 N 0.60344 1.0053 0.87274 0.0
N335 N 0.6493 1.01065 0.83316 0.0
H336 H 0.69755 0.03325 0.86858 0.0
H337 H 0.51601 0.9784 0.85749 0.0
C338 C 0.56392 0.87394 0.89349 0.0
O339 O 0.61459 0.88234 0.88029 0.0
N340 N 0.55887 1.0084 0.94743 0.0
C341 C 0.57899 0.05023 0.96483 0.0
C342 C 0.57273 1.02764 0.98978 0.0
C343 C 0.53921 0.96113 0.96258 0.0
N344 N 0.54911 0.97088 0.98851 0.0
C345 C 0.71015 1.00144 0.92168 0.0
C346 C 0.70292 0.89238 0.94838 0.0
C347 C 0.75793 0.92445 0.94895 0.0
C348 C 0.76159 0.97977 0.93516 0.0
C349 C 0.65405 0.9149 0.93476 0.0
N350 N 0.65728 0.96831 0.92112 0.0
H351 H 0.71246 0.04572 0.91247 0.0
H352 H 0.61282 0.88947 0.93673 0.0
H353 H 0.60232 0.09214 0.95995 0.0
H354 H 0.52214 0.91859 0.95474 0.0
O355 O 0.6085 0.09208 0.91218 0.0
O356 O 0.51542 0.06622 0.90189 0.0
O357 O 0.54023 0.9206 0.90564 0.0
C358 C 0.55439 0.11051 0.90606 0.0
H359 H 0.56984 0.98357 0.81114 0.0
H360 H 0.5898 0.04923 1.00737 0.0
H361 H 0.69724 0.84842 0.95775 0.0
H362 H 0.80369 1.00553 0.93464 0.0
Co363 Co 0.52702 0.57323 0.41004 0.0
C364 C 0.50863 0.61379 0.35465 0.0
C365 C 0.54703 0.52367 0.35704 0.0
C366 C 0.54461 0.54093 0.33112 0.0
N367 N 0.52516 0.56954 0.37186 0.0
N368 N 0.52097 0.59795 0.32944 0.0
H369 H 0.48922 0.65698 0.36072 0.0
H370 H 0.5657 0.48148 0.36461 0.0
C371 C 0.66002 0.54818 0.42297 0.0
O372 O 0.65271 0.59243 0.44006 0.0
N373 N 0.52597 0.57471 0.44866 0.0
C374 C 0.48953 0.60943 0.46396 0.0
C375 C 0.50301 0.59878 0.48982 0.0
C376 C 0.55723 0.53939 0.46592 0.0
N377 N 0.54658 0.55543 0.49118 0.0
C378 C 0.56759 0.69561 0.42576 0.0
C379 C 0.67124 0.68857 0.39523 0.0
C380 C 0.67224 0.72518 0.41768 0.0
C381 C 0.61751 0.7332 0.43154 0.0
C382 C 0.62088 0.65193 0.39036 0.0
N383 N 0.5732 0.64999 0.40765 0.0
H384 H 0.52692 0.70032 0.43726 0.0
H385 H 0.62597 0.6178 0.37528 0.0
H386 H 0.45584 0.64155 0.45694 0.0
H387 H 0.58738 0.5027 0.46016 0.0
O388 O 0.44289 0.60447 0.40969 0.0
O389 O 0.46559 0.50705 0.4115 0.0
O390 O 0.61239 0.52858 0.41025 0.0
C391 C 0.42278 0.54877 0.41109 0.0
H392 H 0.56142 0.51413 0.31484 0.0
H393 H 0.48374 0.62304 0.50634 0.0
H394 H 0.71162 0.68183 0.38339 0.0
H395 H 0.61459 0.76496 0.44775 0.0
Co396 Co 1.01497 0.77546 0.16079 0.0
C397 C 0.03077 0.82285 0.21488 0.0
C398 C 0.11157 0.77708 0.2016 0.0
C399 C 0.12184 0.79995 0.22648 0.0
N400 N 0.05424 0.79109 0.19443 0.0
N401 N 0.071 0.82906 0.23481 0.0
H402 H 0.98485 0.841 0.21517 0.0
H403 H 0.1436 0.75184 0.18965 0.0
C404 C 1.02381 0.64255 0.14967 0.0
O405 O 0.96556 0.65133 0.14506 0.0
N406 N 0.97965 0.7626 0.12577 0.0
C407 C 0.92698 0.78174 0.11481 0.0
C408 C 0.92457 0.76138 0.08918 0.0
C409 C 1.00979 0.73459 0.10584 0.0
N410 N 0.9764 0.73071 0.08366 0.0
C411 C 0.89527 0.76316 0.1801 0.0
C412 C 0.92903 0.69468 0.22332 0.0
C413 C 0.87645 0.73051 0.22443 0.0
C414 C 0.85828 0.76224 0.20195 0.0
C415 C 0.96573 0.69754 0.20088 0.0
N416 N 0.95047 0.73504 0.18033 0.0
H417 H 0.88309 0.79419 0.1648 0.0
H418 H 1.01011 0.67615 0.20166 0.0
H419 H 0.89299 0.81008 0.12402 0.0
H420 H 0.05584 0.71745 0.10759 0.0
O421 O 0.97847 0.85516 0.16302 0.0
O422 O 0.06773 0.84157 0.14525 0.0
O423 O 0.05689 0.68965 0.15646 0.0
C424 C 1.02517 0.88023 0.15265 0.0
H425 H 0.16297 0.79371 0.23783 0.0
H426 H 0.88707 0.76813 0.07574 0.0
H427 H 0.94379 0.66857 0.24014 0.0
H428 H 0.81783 0.79043 0.20183 0.0
Co429 Co 0.84051 0.05458 0.66306 0.0
C430 C 0.80013 0.03357 0.7191 0.0
C431 C 0.87539 0.09501 0.71658 0.0
C432 C 0.85602 0.09289 0.74215 0.0
N433 N 0.842 0.0563 0.70185 0.0
N434 N 0.80752 0.05527 0.74392 0.0
H435 H 0.7625 1.00464 0.71337 0.0
H436 H 0.90965 0.12594 0.70924 0.0
C437 C 0.97489 0.07164 0.6715 0.0
O438 O 0.96839 1.02853 0.68915 0.0
N439 N 0.83585 0.05559 0.62481 0.0
C440 C 0.80158 1.01745 0.61031 0.0
C441 C 0.81761 1.0234 0.58447 0.0
C442 C 0.87148 0.08541 0.60728 0.0
N443 N 0.86237 0.06545 0.58235 0.0
C444 C 0.85744 0.92778 0.67382 0.0
C445 C 0.92973 0.90785 0.63002 0.0
C446 C 0.89783 0.85946 0.641 0.0
C447 C 0.86618 0.86863 0.6646 0.0
C448 C 0.92173 0.96596 0.64051 0.0
N449 N 0.88135 0.97595 0.6606 0.0
H450 H 0.82533 0.93503 0.68945 0.0
H451 H 0.94219 1.00359 0.63016 0.0
H452 H 0.76994 0.98434 0.61812 0.0
H453 H 0.90499 0.11897 0.61293 0.0
O454 O 0.75767 1.02337 0.66436 0.0
O455 O 0.77894 0.12122 0.66394 0.0
O456 O 0.92643 0.09536 0.66102 0.0
C457 C 0.73694 0.0785 0.6643 0.0
H458 H 0.87613 0.11852 0.75801 0.0
H459 H 0.80049 0.99527 0.56869 0.0
H460 H 0.95438 0.90224 0.61181 0.0
H461 H 0.84043 0.83189 0.67352 0.0
Co462 Co 0.54691 0.7748 0.15633 0.0
C463 C 0.52816 0.72513 0.2101 0.0
C464 C 0.46632 0.7989 0.20208 0.0
C465 C 0.45816 0.78021 0.22768 0.0
N466 N 0.51067 0.76476 0.19109 0.0
N467 N 0.49709 0.73389 0.23268 0.0
H468 H 0.56444 0.69196 0.20783 0.0
H469 H 0.44245 0.83575 0.19242 0.0
C470 C 0.55196 0.90804 0.14489 0.0
O471 O 0.60886 0.89407 0.13957 0.0
N472 N 0.57915 0.78353 0.12056 0.0
C473 C 0.62854 0.75943 0.10854 0.0
C474 C 0.62963 0.77877 0.08275 0.0
C475 C 0.54968 0.81437 0.10126 0.0
N476 N 0.58006 0.81376 0.07826 0.0
C477 C 0.61062 0.84488 0.19485 0.0
C478 C 0.6991 0.756 0.19728 0.0
C479 C 0.68482 0.78908 0.22002 0.0
C480 C 0.64321 0.83719 0.21817 0.0
C481 C 0.66688 0.76612 0.17446 0.0
N482 N 0.61879 0.80532 0.17422 0.0
H483 H 0.5725 0.87612 0.1952 0.0
H484 H 0.67438 0.73468 0.15867 0.0
H485 H 0.66141 0.72914 0.11729 0.0
H486 H 0.5066 0.83763 0.10404 0.0
O487 O 0.57121 0.68988 0.15723 0.0
O488 O 0.48311 0.71935 0.14182 0.0
O489 O 0.51562 0.86472 0.15281 0.0
C490 C 0.51993 0.67382 0.14745 0.0
H491 H 0.42595 0.79914 0.24155 0.0
H492 H 0.66511 0.76905 0.06863 0.0
H493 H 0.73311 0.72007 0.19736 0.0
H494 H 0.6328 0.86541 0.23501 0.0
Co495 Co 0.70216 0.53483 0.66787 0.0
C496 C 0.7457 0.55064 0.72302 0.0
C497 C 0.66667 0.49379 0.72159 0.0
C498 C 0.68939 0.49356 0.74684 0.0
N499 N 0.7011 0.53081 0.7065 0.0
N500 N 0.73939 0.52926 0.74771 0.0
H501 H 0.78355 0.57893 0.71701 0.0
H502 H 0.6301 0.46514 0.71455 0.0
C503 C 0.56673 0.52299 0.67467 0.0
O504 O 0.57309 0.56749 0.69172 0.0
N505 N 0.70714 0.53489 0.62931 0.0
C506 C 0.75219 0.5605 0.61505 0.0
C507 C 0.7377 0.55721 0.58899 0.0
C508 C 0.66621 0.51503 0.61122 0.0
N509 N 0.68364 0.52863 0.58639 0.0
C510 C 0.69301 0.65795 0.68291 0.0
C511 C 0.67471 0.68017 0.63044 0.0
C512 C 0.72266 0.70892 0.64361 0.0
C513 C 0.72508 0.70472 0.67095 0.0
C514 C 0.64194 0.63573 0.64413 0.0
N515 N 0.66469 0.61597 0.66751 0.0
H516 H 0.70164 0.64911 0.70325 0.0
H517 H 0.60972 0.60794 0.63348 0.0
H518 H 0.79161 0.58363 0.62287 0.0
H519 H 0.62313 0.49393 0.61607 0.0
O520 O 0.78586 0.56326 0.66963 0.0
O521 O 0.76206 0.46621 0.66787 0.0
O522 O 0.61521 0.497 0.66524 0.0
C523 C 0.8052 0.50772 0.66912 0.0
H524 H 0.67282 0.46572 0.7628 0.0
H525 H 0.76324 0.57841 0.57335 0.0
H526 H 0.66825 0.68543 0.60958 0.0
H527 H 0.75783 0.73077 0.68224 0.0
C528 C 0.09102 0.11638 1.0296 0.0
C529 C 0.1222 0.13708 1.00719 0.0
C530 C 0.09496 0.14757 0.0538 0.0
C531 C 0.13256 0.19933 0.05711 0.0
H532 H 0.06377 0.07523 1.02842 0.0
H533 H 0.06989 0.12971 0.07029 0.0
S534 S 0.22119 0.27404 1.00404 0.0
N535 N 0.18893 0.21485 0.98948 0.0
N536 N 0.19865 0.27186 1.03487 0.0
C537 C 0.16292 0.22123 1.03459 0.0
C538 C 0.15727 0.19052 1.00976 0.0
C539 C 0.40311 0.14279 0.51122 0.0
C540 C 0.46209 0.11726 0.50985 0.0
C541 C 0.37514 0.1565 0.53558 0.0
C542 C 0.40448 0.14448 0.55969 0.0
H543 H 0.37963 0.15485 0.49334 0.0
H544 H 0.33037 0.17736 0.53552 0.0
S545 S 0.55856 0.0758 0.5668 0.0
N546 N 0.54784 0.07882 0.53487 0.0
N547 N 0.49603 0.10417 0.58011 0.0
C548 C 0.46267 0.11714 0.55845 0.0
C549 C 0.49117 0.10377 0.53376 0.0
C550 C 0.42792 0.33401 1.02983 0.0
C551 C 0.44103 0.35726 0.05502 0.0
C552 C 0.4342 0.3704 1.00712 0.0
C553 C 0.45291 0.43194 1.00864 0.0
H554 H 0.41243 0.28733 1.02763 0.0
H555 H 0.42231 0.3509 0.98833 0.0
S556 S 0.49442 0.51518 0.0693 0.0
N557 N 0.47477 0.44645 0.07954 0.0
N558 N 0.48671 0.51364 1.03722 0.0
C559 C 0.46717 0.45534 1.03353 0.0
C560 C 0.46128 0.41843 0.05656 0.0
C561 C 0.12816 0.4365 0.52125 0.0
C562 C 0.06744 0.45766 0.52068 0.0
C563 C 0.15798 0.42357 0.54515 0.0
C564 C 0.1287 0.43227 0.56948 0.0
H565 H 0.15173 0.42715 0.50307 0.0
H566 H 0.20414 0.40608 0.54459 0.0
S567 S 0.97018 0.48805 0.57864 0.0
N568 N 0.97964 0.4874 0.54658 0.0
N569 N 0.0354 0.46432 0.59117 0.0
C570 C 0.06861 0.45511 0.56908 0.0
C571 C 0.03814 0.46737 0.54483 0.0
C572 C 0.96872 0.71752 1.03535 0.0
C573 C 0.99053 0.69711 0.0598 0.0
C574 C 0.97759 0.68301 1.01233 0.0
C575 C 1.00805 0.62624 1.01278 0.0
H576 H 0.94376 0.76014 1.03405 0.0
H577 H 0.95797 0.69948 0.99424 0.0
S578 S 0.07537 0.55221 0.07112 0.0
N579 N 0.04545 0.61627 0.0825 0.0
N580 N 0.06147 0.55206 0.0394 0.0
C581 C 0.03116 0.60591 1.03684 0.0
C582 C 1.02274 0.64116 0.06024 0.0
C583 C 0.90897 0.0617 0.51117 0.0
C584 C 0.97203 0.07316 0.51204 0.0
C585 C 0.87296 0.06363 0.53393 0.0
C586 C 0.89825 0.0762 0.55879 0.0
H587 H 0.88767 0.04746 0.49308 0.0
H588 H 0.82512 0.05251 0.53211 0.0
S589 S 0.05964 0.11976 0.57095 0.0
N590 N 0.05641 0.10729 0.53915 0.0
N591 N 0.99018 0.10695 0.58202 0.0
C592 C 0.96048 0.09232 0.55958 0.0
C593 C 0.99687 0.09164 0.53625 0.0
C594 C 0.53708 0.94844 1.03579 0.0
C595 C 0.54878 0.9276 1.01015 0.0
C596 C 0.5452 0.91043 0.05772 0.0
C597 C 0.56651 0.84993 0.05515 0.0
H598 H 0.52273 0.99524 0.039 0.0
H599 H 0.53691 0.92938 0.07696 0.0
S600 S 0.59867 0.77029 0.99251 0.0
N601 N 0.57879 0.84006 0.98363 0.0
N602 N 0.59462 0.76931 1.02476 0.0
C603 C 0.57631 0.82756 1.02966 0.0
C604 C 0.56716 0.86605 1.00722 0.0
C605 C 0.55156 0.54148 0.53939 0.0
C606 C 0.57999 0.53839 0.51463 0.0
C607 C 0.58488 0.53481 0.56275 0.0
C608 C 0.64828 0.52486 0.56244 0.0
H609 H 0.50325 0.55102 0.54077 0.0
H610 H 0.56124 0.5406 0.58117 0.0
S611 S 0.74431 0.50667 0.50305 0.0
N612 N 0.67548 0.52084 0.49157 0.0
N613 N 0.7372 0.50612 0.53518 0.0
C614 C 0.67672 0.51804 0.53786 0.0
C615 C 0.6429 0.52519 0.51408 0.0
C616 C 0.99062 0.04206 0.17627 0.0
C617 C 1.02214 0.08144 0.15936 0.0
C618 C 0.9932 0.97831 0.17354 0.0
C619 C 1.02827 0.94915 0.15391 0.0
H620 H 0.96461 0.06073 0.19245 0.0
H621 H 0.96792 0.95145 0.18763 0.0
S622 S 0.11945 1.03013 0.10379 0.0
N623 N 0.08878 0.08599 0.12125 0.0
N624 N 0.09483 0.96549 0.11673 0.0
C625 C 0.0598 0.98751 0.13648 0.0
C626 C 0.05619 0.0535 0.13896 0.0
C627 C 0.58245 0.15617 0.6527 0.0
C628 C 0.53838 0.10989 0.65761 0.0
C629 C 0.64562 0.14645 0.65559 0.0
C630 C 0.66896 0.08962 0.66332 0.0
H631 H 0.56838 0.20132 0.64649 0.0
H632 H 0.67646 0.1837 0.65122 0.0
S633 S 0.57512 0.95263 0.67941 0.0
N634 N 0.5241 1.00491 0.67134 0.0
N635 N 0.64238 0.9858 0.67644 0.0
C636 C 0.6258 0.04267 0.66849 0.0
C637 C 0.561 0.0529 0.66573 0.0
C638 C 0.54956 0.56316 0.15451 0.0
C639 C 0.50616 0.60645 0.14535 0.0
C640 C 0.53812 0.49953 0.15468 0.0
C641 C 0.48255 0.47572 0.14574 0.0
H642 H 0.59292 0.57852 0.16218 0.0
H643 H 0.57253 0.46907 0.16248 0.0
S644 S 0.35512 0.56853 0.11764 0.0
N645 N 0.40678 0.61986 0.1258 0.0
N646 N 0.38451 0.5017 0.12573 0.0
C647 C 0.43935 0.51858 0.13576 0.0
C648 C 0.45126 0.58329 0.13565 0.0
C649 C 0.95997 0.42987 0.65778 0.0
C650 C 1.00391 0.47423 0.66547 0.0
C651 C 0.89658 0.44 0.65964 0.0
C652 C 0.87303 0.49541 0.66903 0.0
H653 H 0.9744 0.38597 0.65016 0.0
H654 H 0.86585 0.40433 0.6532 0.0
S655 S 0.96637 0.62724 0.69221 0.0
N656 N 1.0177 0.57598 0.68326 0.0
N657 N 0.89923 0.59581 0.68657 0.0
C658 C 0.91607 0.54055 0.67677 0.0
C659 C 0.98099 0.52992 0.675 0.0
C660 C 0.97653 0.3544 0.89207 0.0
C661 C 1.01782 0.39638 0.90345 0.0
C662 C 0.98946 0.29081 0.89041 0.0
C663 C 0.04295 0.26529 0.90118 0.0
H664 H 0.93461 0.37115 0.88348 0.0
H665 H 0.9581 0.26162 0.87985 0.0
S666 S 0.16349 0.35428 0.93543 0.0
N667 N 0.1136 0.40682 0.92652 0.0
N668 N 0.13562 0.28839 0.92519 0.0
C669 C 0.08312 0.30669 0.91365 0.0
C670 C 0.07112 0.37161 0.91442 0.0
C671 C 0.24168 0.96846 0.41986 0.0
C672 C 0.19693 1.00291 0.4062 0.0
C673 C 0.30465 0.98456 0.41981 0.0
C674 C 0.32643 0.03568 0.40586 0.0
H675 H 0.22766 0.92986 0.43164 0.0
H676 H 0.33585 0.95867 0.43191 0.0
S677 S 0.23064 0.13775 0.36464 0.0
N678 N 0.18136 0.08832 0.37676 0.0
N679 N 0.2977 0.11807 0.37662 0.0
C680 C 0.28255 0.06868 0.39127 0.0
C681 C 0.21873 0.05252 0.39137 0.0
C682 C 0.46893 0.2615 0.89208 0.0
C683 C 0.51083 0.30853 0.89851 0.0
C684 C 0.48257 0.19858 0.89489 0.0
C685 C 0.53937 0.17844 0.90429 0.0
H686 H 0.42445 0.27322 0.8847 0.0
H687 H 0.44834 0.16546 0.88925 0.0
S688 S 0.66513 0.2817 0.92565 0.0
N689 N 0.61118 0.32938 0.91602 0.0
N690 N 0.63755 0.21213 0.92135 0.0
C691 C 0.58141 0.22492 0.9116 0.0
C692 C 0.56705 0.28932 0.90883 0.0
C693 C 0.33433 0.47321 0.4113 0.0
C694 C 0.35484 0.5342 0.41223 0.0
C695 C 0.27154 0.45847 0.41096 0.0
C696 C 0.225 0.50349 0.41172 0.0
H697 H 0.36707 0.43618 0.41021 0.0
H698 H 0.25926 0.41071 0.40952 0.0
S699 S 0.25274 0.67039 0.41567 0.0
N700 N 0.32197 0.6405 0.41508 0.0
N701 N 0.20483 0.61221 0.41439 0.0
C702 C 0.24451 0.56458 0.41363 0.0
C703 C 0.30884 0.57992 0.41383 0.0
C704 C 0.0521 0.79013 0.8923 0.0
C705 C 1.02785 0.76771 0.91602 0.0
C706 C 0.0663 0.85338 0.88896 0.0
C707 C 0.05497 0.89737 0.90881 0.0
H708 H 0.05861 0.75913 0.87601 0.0
H709 H 0.08487 0.86826 0.87041 0.0
S710 S 0.99939 0.86307 0.97555 0.0
N711 N 1.00053 0.79598 0.96078 0.0
N712 N 1.02266 0.91277 0.95348 0.0
C713 C 0.03247 0.87541 0.93263 0.0
C714 C 1.02023 0.81144 0.93645 0.0
C715 C 0.77866 0.96258 0.41033 0.0
C716 C 0.82626 1.00604 0.40741 0.0
C717 C 0.71645 0.97915 0.4113 0.0
C718 C 0.69746 0.04037 0.40931 0.0
H719 H 0.78931 0.91433 0.41164 0.0
H720 H 0.68285 0.94316 0.41309 0.0
S721 S 0.80244 0.17356 0.4031 0.0
N722 N 0.84897 0.1141 0.40391 0.0
N723 N 0.73266 0.14571 0.40552 0.0
C724 C 0.74444 0.08487 0.4072 0.0
C725 C 0.80831 0.06776 0.40639 0.0
C726 C 0.57167 0.69723 0.89639 0.0
C727 C 0.51424 0.6788 0.90573 0.0
C728 C 0.58627 0.75969 0.89261 0.0
C729 C 0.54479 0.80787 0.89832 0.0
H730 H 0.60533 0.663 0.89122 0.0
H731 H 0.63119 0.77007 0.88506 0.0
S732 S 0.38939 0.78515 0.92521 0.0
N733 N 0.41601 0.7149 0.92168 0.0
N734 N 0.44422 0.83134 0.91527 0.0
C735 C 0.48786 0.79017 0.90853 0.0
C736 C 0.47249 0.72628 0.91198 0.0
C737 C 0.77228 0.57341 0.42328 0.0
C738 C 0.72564 0.53094 0.41698 0.0
C739 C 0.83481 0.5603 0.42008 0.0
C740 C 0.855 0.50327 0.41082 0.0
H741 H 0.76062 0.61778 0.43118 0.0
H742 H 0.86765 0.59477 0.42577 0.0
S743 S 0.75319 0.37549 0.39049 0.0
N744 N 0.70526 0.42958 0.39991 0.0
N745 N 0.82239 0.40382 0.39448 0.0
C746 C 0.80914 0.46035 0.40393 0.0
C747 C 0.74492 0.47437 0.40679 0.0
C748 C 1.00599 0.53479 0.13404 0.0
C749 C 0.04497 0.57689 0.14701 0.0
C750 C 1.01674 0.47127 0.13377 0.0
C751 C 0.06736 0.44563 0.14639 0.0
H752 H 0.96526 0.55078 0.12423 0.0
H753 H 0.98408 0.44194 0.12405 0.0
S754 S 0.18671 0.5344 0.18187 0.0
N755 N 0.13838 0.58736 0.17181 0.0
N756 N 0.15956 0.46844 0.17126 0.0
C757 C 0.10848 0.48713 0.15858 0.0
C758 C 0.09721 0.55232 0.15887 0.0
C759 C 0.06335 0.14047 0.65772 0.0
C760 C 0.03868 0.08176 0.66126 0.0
C761 C 0.12654 0.14885 0.65304 0.0
C762 C 0.16787 0.09899 0.65113 0.0
H763 H 0.03451 0.1803 0.66013 0.0
H764 H 0.14361 0.19524 0.65198 0.0
S765 S 0.12518 0.93557 0.65592 0.0
N766 N 0.06036 0.97256 0.6604 0.0
N767 N 0.17743 0.98867 0.6512 0.0
C768 C 0.1429 0.04013 0.65288 0.0
C769 C 0.07899 0.03153 0.65807 0.0
C770 C 0.4864 1.00031 0.1565 0.0
C771 C 0.53463 0.9746 0.14221 0.0
C772 C 0.47587 0.06408 0.15652 0.0
C773 C 0.51303 0.10567 0.14232 0.0
H774 H 0.45778 0.97135 0.16849 0.0
H775 H 0.43866 0.08097 0.16844 0.0
S776 S 0.64134 0.06157 0.09923 0.0
N777 N 0.61715 0.99613 0.11147 0.0
N778 N 0.59731 0.11501 0.11209 0.0
C779 C 0.56004 0.08043 0.12725 0.0
C780 C 0.57068 1.01542 0.12703 0.0
C781 C 0.39619 0.54726 0.66059 0.0
C782 C 0.37359 0.4883 0.65557 0.0
C783 C 0.45878 0.55749 0.66561 0.0
C784 C 0.50246 0.50958 0.66556 0.0
H785 H 0.36483 0.58535 0.66229 0.0
H786 H 0.47281 0.60364 0.67038 0.0
S787 S 0.46821 0.34713 0.65118 0.0
N788 N 0.4012 0.38143 0.64927 0.0
N789 N 0.51813 0.40124 0.65818 0.0
C790 C 0.48109 0.45098 0.65907 0.0
C791 C 0.41708 0.44028 0.65431 0.0
C792 C 1.02589 0.44905 0.28302 0.0
C793 C 1.02062 0.4157 0.30666 0.0
C794 C 1.02235 0.42042 0.25827 0.0
C795 C 1.0121 0.35723 0.25587 0.0
H796 H 0.03294 0.49796 0.28351 0.0
H797 H 1.02704 0.44802 0.24083 0.0
S798 S 0.99896 0.2473 0.3107 0.0
N799 N 1.00814 0.31408 0.32528 0.0
N800 N 0.99893 0.26158 0.279 0.0
C801 C 1.00645 0.3232 0.27908 0.0
C802 C 1.01119 0.352 0.30433 0.0
C803 C 0.16715 0.07215 0.75188 0.0
C804 C 0.22611 0.04675 0.75309 0.0
C805 C 0.12739 0.07131 0.7737 0.0
C806 C 0.14458 0.04574 0.79812 0.0
H807 H 0.15178 0.09349 0.73396 0.0
H808 H 0.08309 0.09215 0.77131 0.0
S809 S 0.29559 0.97281 0.81118 0.0
N810 N 0.29979 0.99466 0.78043 0.0
N811 N 0.2268 0.99264 0.821 0.0
C812 C 0.20336 1.01853 0.79911 0.0
C813 C 0.24344 1.01909 0.7768 0.0
C814 C 0.49798 0.11214 0.28096 0.0
C815 C 0.54652 0.11311 0.29897 0.0
C816 C 0.49991 0.14616 0.25759 0.0
C817 C 0.55036 0.18295 0.25091 0.0
H818 H 0.45737 0.08593 0.28523 0.0
H819 H 0.46085 0.14419 0.2449 0.0
S820 S 0.69318 0.19424 0.29002 0.0
N821 N 0.64858 0.1498 0.3077 0.0
N822 N 0.65341 0.21217 0.26372 0.0
C823 C 0.60037 0.18225 0.26843 0.0
C824 C 0.59804 0.14796 0.2924 0.0
C825 C 0.34694 0.54262 0.80553 0.0
C826 C 0.40942 0.52885 0.80189 0.0
C827 C 0.30565 0.54492 0.78451 0.0
C828 C 0.32434 0.53322 0.7587 0.0
H829 H 0.32879 0.55028 0.82487 0.0
H830 H 0.2581 0.5541 0.78864 0.0
S831 S 0.48273 0.50133 0.73725 0.0
N832 N 0.48807 0.50846 0.7693 0.0
N833 N 0.41005 0.51156 0.73018 0.0
C834 C 0.38658 0.52114 0.75442 0.0
C835 C 0.42906 0.51928 0.77583 0.0
C836 C 0.88734 0.54442 0.78537 0.0
C837 C 0.86841 0.55069 0.81165 0.0
C838 C 0.84526 0.53771 0.76476 0.0
C839 C 0.78196 0.53637 0.76934 0.0
H840 H 0.93539 0.54449 0.78058 0.0
H841 H 0.86259 0.53275 0.74504 0.0
S842 S 0.70716 0.55418 0.83404 0.0
N843 N 0.78075 0.55762 0.84069 0.0
N844 N 0.70221 0.54376 0.80213 0.0
C845 C 0.76212 0.54233 0.79545 0.0
C846 C 0.80504 0.54971 0.8165 0.0
C847 C 1.00094 0.84833 0.27186 0.0
C848 C 0.05907 0.85452 0.26061 0.0
C849 C 0.98931 0.86634 0.29775 0.0
C850 C 0.03523 0.89145 0.31378 0.0
H851 H 0.96486 0.82623 0.26104 0.0
H852 H 0.94449 0.85766 0.3058 0.0
S853 S 0.19353 0.92466 0.29307 0.0
N854 N 0.16188 0.89372 0.26688 0.0
N855 N 0.14 0.92613 0.31582 0.0
C856 C 0.09267 0.90138 0.30243 0.0
C857 C 0.10467 0.883 0.27588 0.0
C858 C 0.69795 0.97842 0.79134 0.0
C859 C 0.69288 1.02064 0.81214 0.0
C860 C 0.73555 0.98969 0.76942 0.0
C861 C 0.76933 0.04427 0.76697 0.0
H862 H 0.67232 0.93618 0.79203 0.0
H863 H 0.73811 0.95519 0.75427 0.0
S864 S 0.76648 0.17269 0.81507 0.0
N865 N 0.72239 0.12016 0.82838 0.0
N866 N 0.79066 0.14319 0.7872 0.0
C867 C 0.76365 0.08739 0.78762 0.0
C868 C 0.72616 0.07514 0.81012 0.0
C869 C 0.50362 0.63663 0.25741 0.0
C870 C 0.50387 0.70086 0.25707 0.0
C871 C 0.50804 0.60382 0.28104 0.0
C872 C 0.51409 0.63363 0.30548 0.0
H873 H 0.49874 0.61158 0.23925 0.0
H874 H 0.50615 0.55446 0.28005 0.0
S875 S 0.5239 0.80216 0.31459 0.0
N876 N 0.51375 0.7934 0.28282 0.0
N877 N 0.5246 0.73251 0.32702 0.0
C878 C 0.5159 0.69823 0.3052 0.0
C879 C 0.51029 0.73153 0.2811 0.0
C880 C 0.34273 0.13133 0.22455 0.0
C881 C 0.34636 0.19083 0.23539 0.0
C882 C 0.28792 0.09872 0.22706 0.0
C883 C 0.23809 0.12966 0.23835 0.0
H884 H 0.37483 0.11698 0.20964 0.0
H885 H 0.28068 0.06001 0.21423 0.0
S886 S 0.25371 0.24107 0.29178 0.0
N887 N 0.31603 0.24942 0.27387 0.0
N888 N 0.21575 0.18282 0.27909 0.0
C889 C 0.2551 0.16592 0.25992 0.0
C890 C 0.30883 0.20193 0.25708 0.0
C891 C 0.27911 0.37185 0.7605 0.0
C892 C 0.23361 0.32658 0.76147 0.0
C893 C 0.33911 0.3551 0.75387 0.0
C894 C 0.35437 0.29281 0.75168 0.0
H895 H 0.26574 0.41898 0.75863 0.0
H896 H 0.36946 0.38953 0.7461 0.0
S897 S 0.26552 0.16941 0.78293 0.0
N898 N 0.21604 0.22571 0.77926 0.0
N899 N 0.33128 0.19394 0.77129 0.0
C900 C 0.31542 0.25185 0.76476 0.0
C901 C 0.25356 0.26876 0.76915 0.0
C902 C 0.31785 0.24961 0.8441 0.0
C903 C 0.25608 0.23509 0.84627 0.0
C904 C 0.33611 0.31031 0.84727 0.0
C905 C 0.29299 0.35533 0.85425 0.0
H906 H 0.35213 0.21393 0.84478 0.0
H907 H 0.38416 0.3197 0.84872 0.0
S908 S 0.12724 0.34421 0.84366 0.0
N909 N 0.15328 0.27391 0.83949 0.0
N910 N 0.18735 0.38677 0.85049 0.0
C911 C 0.23196 0.34388 0.84874 0.0
C912 C 0.21372 0.28304 0.84321 0.0
C913 C 0.254 0.24618 0.42099 0.0
C914 C 0.21516 0.27443 0.4029 0.0
C915 C 0.31675 0.24602 0.41721 0.0
C916 C 0.3428 0.27179 0.39467 0.0
H917 H 0.23586 0.22704 0.43892 0.0
H918 H 0.34491 0.22379 0.43174 0.0
S919 S 0.26157 0.35321 0.34186 0.0
N920 N 0.20725 0.33132 0.36213 0.0
N921 N 0.32599 0.32709 0.35429 0.0
C922 C 0.30468 0.29936 0.37621 0.0
C923 C 0.24061 0.30086 0.38031 0.0
C924 C 0.86381 0.81518 0.93286 0.0
C925 C 0.8349 0.76786 0.94717 0.0
C926 C 0.85389 0.87652 0.93896 0.0
C927 C 0.81238 0.89152 0.95867 0.0
H928 H 0.89076 0.80552 0.91561 0.0
H929 H 0.86848 0.91062 0.92495 0.0
S930 S 0.76104 0.79022 1.01194 0.0
N931 N 0.78777 0.74345 0.98926 0.0
N932 N 0.77348 0.86004 1.00092 0.0
C933 C 0.80265 0.84718 0.97812 0.0
C934 C 0.8099 0.78408 0.97163 0.0
C935 C 0.77662 0.76775 0.41022 0.0
C936 C 0.73184 0.74728 0.42784 0.0
C937 C 0.83509 0.78311 0.41875 0.0
C938 C 0.85097 0.78 0.44532 0.0
H939 H 0.76624 0.77292 0.38964 0.0
H940 H 0.86701 0.80126 0.4046 0.0
S941 S 0.75317 0.72526 0.49934 0.0
N942 N 0.70975 0.71966 0.47307 0.0
N943 N 0.81887 0.75343 0.48917 0.0
C944 C 0.80747 0.75886 0.46318 0.0
C945 C 0.74809 0.74159 0.45445 0.0
C946 C 0.8233 0.79752 0.25485 0.0
C947 C 0.83845 0.73667 0.24819 0.0
C948 C 0.76278 0.81722 0.25198 0.0
C949 C 0.71819 0.77479 0.2444 0.0
H950 H 0.85838 0.83226 0.25486 0.0
H951 H 0.75429 0.8658 0.24999 0.0
S952 S 0.73145 0.60684 0.24766 0.0
N953 N 0.80234 0.63201 0.24961 0.0
N954 N 0.68759 0.66834 0.24703 0.0
C955 C 0.73043 0.71279 0.24938 0.0
C956 C 0.79216 0.69319 0.25082 0.0
C957 C 0.88531 0.74981 0.63571 0.0
C958 C 0.8783 0.80791 0.62469 0.0
C959 C 0.83446 0.71221 0.63847 0.0
C960 C 0.77668 0.73207 0.62986 0.0
H961 H 0.92597 0.73891 0.64679 0.0
H962 H 0.83865 0.67186 0.65057 0.0
S963 S 0.74572 0.86396 0.58697 0.0
N964 N 0.81834 0.8706 0.59505 0.0
N965 N 0.72129 0.8009 0.60127 0.0
C966 C 0.77359 0.78182 0.61288 0.0
C967 C 0.82597 0.81912 0.6095 0.0
loop_
_geom_bond_atom_site_label_1
_geom_bond_atom_site_label_2
_geom_bond_distance
_geom_bond_site_symmetry_2
_ccdc_geom_bond_type
Co0 N4 2.148 1_655 S
Co0 N10 2.128 1_655 S
Co0 N20 2.194 1_655 S
Co0 O25 2.351 1_655 S
Co0 O26 2.155 . S
Co0 O27 2.096 . S
C1 N4 1.304 . S
C1 N5 1.328 . S
C1 H6 0.930 . S
C2 C3 1.333 . S
C2 N4 1.315 1_655 S
C2 H7 0.930 . S
C3 C2 1.333 . S
C3 N5 1.350 1_655 S
C3 H29 0.931 . S
N4 Co0 2.148 1_455 S
N4 C1 1.304 . S
N4 C2 1.315 1_455 S
N5 C1 1.328 . S
N5 C3 1.350 1_455 S
H6 C1 0.930 . S
H7 C2 0.930 . S
C8 O9 1.224 1_655 S
C8 O27 1.247 . S
O9 C8 1.224 1_455 S
N10 Co0 2.128 1_455 S
N10 C11 1.355 . S
N10 C13 1.311 1_455 S
C11 N10 1.355 . S
C11 C12 1.363 . S
C11 H23 0.929 . S
C12 C11 1.363 . S
C12 N14 1.375 1_455 S
C12 H30 0.931 . S
C13 N10 1.311 1_655 S
C13 N14 1.347 . S
C13 H24 0.929 . S
N14 C12 1.375 1_655 S
N14 C13 1.347 . S
C15 C18 1.365 . S
C15 N20 1.328 . S
C15 H21 0.929 . S
C16 C17 1.362 . S
C16 C19 1.378 . S
C16 H31 0.929 . S
C17 C16 1.362 . S
C17 C18 1.366 . S
C18 C15 1.365 . S
C18 C17 1.366 . S
C18 H32 0.930 . S
C19 C16 1.378 . S
C19 N20 1.315 . S
C19 H22 0.930 . S
N20 Co0 2.194 1_455 S
N20 C15 1.328 . S
N20 C19 1.315 . S
H21 C15 0.929 . S
H22 C19 0.930 . S
H23 C11 0.929 . S
H24 C13 0.929 . S
O25 Co0 2.351 1_455 S
O25 C28 1.244 1_455 S
O26 Co0 2.155 . S
O26 C28 1.240 . S
O27 Co0 2.096 . S
O27 C8 1.247 . S
C28 O25 1.244 1_655 S
C28 O26 1.240 . S
H29 C3 0.931 . S
H30 C12 0.931 . S
H31 C16 0.929 . S
H32 C18 0.930 . S
Co33 N37 2.148 1_565 S
Co33 N43 2.128 1_565 S
Co33 N53 2.194 1_565 S
Co33 O58 2.351 1_565 S
Co33 O59 2.155 . S
Co33 O60 2.096 . S
C34 N37 1.303 . S
C34 N38 1.328 . S
C34 H39 0.930 . S
C35 C36 1.333 . S
C35 N37 1.315 1_565 S
C35 H40 0.930 . S
C36 C35 1.333 . S
C36 N38 1.350 1_565 S
C36 H62 0.931 . S
N37 Co33 2.148 1_545 S
N37 C34 1.303 . S
N37 C35 1.315 1_545 S
N38 C34 1.328 . S
N38 C36 1.350 1_545 S
H39 C34 0.930 . S
H40 C35 0.930 . S
C41 O42 1.224 1_565 S
C41 O60 1.247 . S
O42 C41 1.224 1_545 S
N43 Co33 2.128 1_545 S
N43 C44 1.355 . S
N43 C46 1.311 1_545 S
C44 N43 1.355 . S
C44 C45 1.363 . S
C44 H56 0.929 . S
C45 C44 1.363 . S
C45 N47 1.375 1_545 S
C45 H63 0.931 . S
C46 N43 1.311 1_565 S
C46 N47 1.347 . S
C46 H57 0.929 . S
N47 C45 1.375 1_565 S
N47 C46 1.347 . S
C48 C51 1.365 . S
C48 N53 1.328 . S
C48 H54 0.929 . S
C49 C50 1.362 . S
C49 C52 1.378 . S
C49 H64 0.929 . S
C50 C49 1.362 . S
C50 C51 1.366 . S
C51 C48 1.365 . S
C51 C50 1.366 . S
C51 H65 0.930 . S
C52 C49 1.378 . S
C52 N53 1.315 . S
C52 H55 0.930 . S
N53 Co33 2.194 1_545 S
N53 C48 1.328 . S
N53 C52 1.315 . S
H54 C48 0.929 . S
H55 C52 0.930 . S
H56 C44 0.929 . S
H57 C46 0.929 . S
O58 Co33 2.351 1_545 S
O58 C61 1.244 1_545 S
O59 Co33 2.155 . S
O59 C61 1.240 . S
O60 Co33 2.096 . S
O60 C41 1.247 . S
C61 O58 1.244 1_565 S
C61 O59 1.240 . S
H62 C36 0.931 . S
H63 C45 0.931 . S
H64 C49 0.929 . S
H65 C51 0.930 . S
Co66 N70 2.148 . S
Co66 N76 2.128 . S
Co66 N86 2.194 . S
Co66 O91 2.351 . S
Co66 O92 2.155 . S
Co66 O93 2.096 . S
C67 N70 1.301 . S
C67 N71 1.328 . S
C67 H72 0.930 . S
C68 C69 1.333 . S
C68 N70 1.317 . S
C68 H73 0.930 . S
C69 C68 1.333 . S
C69 N71 1.350 . S
C69 H95 0.931 . S
N70 Co66 2.148 . S
N70 C67 1.301 . S
N70 C68 1.317 . S
N71 C67 1.328 . S
N71 C69 1.350 . S
H72 C67 0.930 . S
H73 C68 0.930 . S
C74 O75 1.224 . S
C74 O93 1.247 . S
O75 C74 1.224 . S
N76 Co66 2.128 . S
N76 C77 1.355 . S
N76 C79 1.311 . S
C77 N76 1.355 . S
C77 C78 1.363 . S
C77 H89 0.929 . S
C78 C77 1.363 . S
C78 N80 1.375 . S
C78 H96 0.931 . S
C79 N76 1.311 . S
C79 N80 1.347 . S
C79 H90 0.929 . S
N80 C78 1.375 . S
N80 C79 1.347 . S
C81 C84 1.365 . S
C81 N86 1.328 . S
C81 H87 0.929 . S
C82 C83 1.362 . S
C82 C85 1.378 . S
C82 H97 0.929 . S
C83 C82 1.362 . S
C83 C84 1.366 . S
C84 C81 1.365 . S
C84 C83 1.366 . S
C84 H98 0.930 . S
C85 C82 1.378 . S
C85 N86 1.315 . S
C85 H88 0.930 . S
N86 Co66 2.194 . S
N86 C81 1.328 . S
N86 C85 1.315 . S
H87 C81 0.929 . S
H88 C85 0.930 . S
H89 C77 0.929 . S
H90 C79 0.929 . S
O91 Co66 2.351 . S
O91 C94 1.244 . S
O92 Co66 2.155 . S
O92 C94 1.240 . S
O93 Co66 2.096 . S
O93 C74 1.247 . S
C94 O91 1.244 . S
C94 O92 1.240 . S
H95 C69 0.931 . S
H96 C78 0.931 . S
H97 C82 0.929 . S
H98 C84 0.930 . S
Co99 N103 2.148 . S
Co99 N109 2.128 . S
Co99 N119 2.194 . S
Co99 O124 2.351 . S
Co99 O125 2.155 . S
Co99 O126 2.096 . S
C100 N103 1.301 . S
C100 N104 1.328 . S
C100 H105 0.930 . S
C101 C102 1.333 . S
C101 N103 1.317 . S
C101 H106 0.930 . S
C102 C101 1.333 . S
C102 N104 1.350 . S
C102 H128 0.931 . S
N103 Co99 2.148 . S
N103 C100 1.301 . S
N103 C101 1.317 . S
N104 C100 1.328 . S
N104 C102 1.350 . S
H105 C100 0.930 . S
H106 C101 0.930 . S
C107 O108 1.224 . S
C107 O126 1.247 . S
O108 C107 1.224 . S
N109 Co99 2.128 . S
N109 C110 1.355 . S
N109 C112 1.311 . S
C110 N109 1.355 . S
C110 C111 1.363 . S
C110 H122 0.929 . S
C111 C110 1.363 . S
C111 N113 1.375 . S
C111 H129 0.931 . S
C112 N109 1.311 . S
C112 N113 1.347 . S
C112 H123 0.929 . S
N113 C111 1.375 . S
N113 C112 1.347 . S
C114 C117 1.365 . S
C114 N119 1.328 . S
C114 H120 0.929 . S
C115 C116 1.362 . S
C115 C118 1.378 . S
C115 H130 0.929 . S
C116 C115 1.362 . S
C116 C117 1.366 . S
C117 C114 1.365 . S
C117 C116 1.366 . S
C117 H131 0.930 . S
C118 C115 1.378 . S
C118 N119 1.315 . S
C118 H121 0.930 . S
N119 Co99 2.194 . S
N119 C114 1.328 . S
N119 C118 1.315 . S
H120 C114 0.929 . S
H121 C118 0.930 . S
H122 C110 0.929 . S
H123 C112 0.929 . S
O124 Co99 2.351 . S
O124 C127 1.244 . S
O125 Co99 2.155 . S
O125 C127 1.240 . S
O126 Co99 2.096 . S
O126 C107 1.247 . S
C127 O124 1.244 . S
C127 O125 1.240 . S
H128 C102 0.931 . S
H129 C111 0.931 . S
H130 C115 0.929 . S
H131 C117 0.930 . S
Co132 N136 2.148 1_655 S
Co132 N142 2.128 1_655 S
Co132 N152 2.194 1_655 S
Co132 O157 2.351 1_655 S
Co132 O158 2.155 . S
Co132 O159 2.096 . S
C133 N136 1.303 . S
C133 N137 1.328 . S
C133 H138 0.930 . S
C134 C135 1.333 . S
C134 N136 1.315 1_655 S
C134 H139 0.930 . S
C135 C134 1.333 . S
C135 N137 1.350 1_655 S
C135 H161 0.931 . S
N136 Co132 2.148 1_455 S
N136 C133 1.303 . S
N136 C134 1.315 1_455 S
N137 C133 1.328 . S
N137 C135 1.350 1_455 S
H138 C133 0.930 . S
H139 C134 0.930 . S
C140 O141 1.224 1_655 S
C140 O159 1.247 . S
O141 C140 1.224 1_455 S
N142 Co132 2.128 1_455 S
N142 C143 1.355 . S
N142 C145 1.311 1_455 S
C143 N142 1.355 . S
C143 C144 1.363 . S
C143 H155 0.929 . S
C144 C143 1.363 . S
C144 N146 1.375 1_455 S
C144 H162 0.931 . S
C145 N142 1.311 1_655 S
C145 N146 1.347 . S
C145 H156 0.929 . S
N146 C144 1.375 1_655 S
N146 C145 1.347 . S
C147 C150 1.365 . S
C147 N152 1.328 . S
C147 H153 0.929 . S
C148 C149 1.362 . S
C148 C151 1.378 . S
C148 H163 0.929 . S
C149 C148 1.362 . S
C149 C150 1.366 . S
C150 C147 1.365 . S
C150 C149 1.366 . S
C150 H164 0.930 . S
C151 C148 1.378 . S
C151 N152 1.315 . S
C151 H154 0.930 . S
N152 Co132 2.194 1_455 S
N152 C147 1.328 . S
N152 C151 1.315 . S
H153 C147 0.929 . S
H154 C151 0.930 . S
H155 C143 0.929 . S
H156 C145 0.929 . S
O157 Co132 2.351 1_455 S
O157 C160 1.244 1_455 S
O158 Co132 2.155 . S
O158 C160 1.240 . S
O159 Co132 2.096 . S
O159 C140 1.247 . S
C160 O157 1.244 1_655 S
C160 O158 1.240 . S
H161 C135 0.931 . S
H162 C144 0.931 . S
H163 C148 0.929 . S
H164 C150 0.930 . S
Co165 N169 2.148 1_565 S
Co165 N175 2.128 1_565 S
Co165 N185 2.194 1_565 S
Co165 O190 2.351 1_565 S
Co165 O191 2.155 . S
Co165 O192 2.096 . S
C166 N169 1.304 . S
C166 N170 1.328 . S
C166 H171 0.930 . S
C167 C168 1.333 . S
C167 N169 1.315 1_565 S
C167 H172 0.930 . S
C168 C167 1.333 . S
C168 N170 1.350 1_565 S
C168 H194 0.931 . S
N169 Co165 2.148 1_545 S
N169 C166 1.304 . S
N169 C167 1.315 1_545 S
N170 C166 1.328 . S
N170 C168 1.350 1_545 S
H171 C166 0.930 . S
H172 C167 0.930 . S
C173 O174 1.224 1_565 S
C173 O192 1.247 . S
O174 C173 1.224 1_545 S
N175 Co165 2.128 1_545 S
N175 C176 1.355 . S
N175 C178 1.311 1_545 S
C176 N175 1.355 . S
C176 C177 1.363 . S
C176 H188 0.929 . S
C177 C176 1.363 . S
C177 N179 1.375 1_545 S
C177 H195 0.931 . S
C178 N175 1.311 1_565 S
C178 N179 1.347 . S
C178 H189 0.929 . S
N179 C177 1.375 1_565 S
N179 C178 1.347 . S
C180 C183 1.365 . S
C180 N185 1.328 . S
C180 H186 0.929 . S
C181 C182 1.362 . S
C181 C184 1.378 . S
C181 H196 0.929 . S
C182 C181 1.362 . S
C182 C183 1.366 . S
C183 C180 1.365 . S
C183 C182 1.366 . S
C183 H197 0.930 . S
C184 C181 1.378 . S
C184 N185 1.315 . S
C184 H187 0.930 . S
N185 Co165 2.194 1_545 S
N185 C180 1.328 . S
N185 C184 1.315 . S
H186 C180 0.929 . S
H187 C184 0.930 . S
H188 C176 0.929 . S
H189 C178 0.929 . S
O190 Co165 2.351 1_545 S
O190 C193 1.244 1_545 S
O191 Co165 2.155 . S
O191 C193 1.240 . S
O192 Co165 2.096 . S
O192 C173 1.247 . S
C193 O190 1.244 1_565 S
C193 O191 1.240 . S
H194 C168 0.931 . S
H195 C177 0.931 . S
H196 C181 0.929 . S
H197 C183 0.930 . S
Co198 N202 2.148 . S
Co198 N208 2.128 . S
Co198 N218 2.194 . S
Co198 O223 2.351 . S
Co198 O224 2.155 . S
Co198 O225 2.096 . S
C199 N202 1.301 . S
C199 N203 1.328 . S
C199 H204 0.930 . S
C200 C201 1.333 . S
C200 N202 1.317 . S
C200 H205 0.930 . S
C201 C200 1.333 . S
C201 N203 1.350 . S
C201 H227 0.931 . S
N202 Co198 2.148 . S
N202 C199 1.301 . S
N202 C200 1.317 . S
N203 C199 1.328 . S
N203 C201 1.350 . S
H204 C199 0.930 . S
H205 C200 0.930 . S
C206 O207 1.224 . S
C206 O225 1.247 . S
O207 C206 1.224 . S
N208 Co198 2.128 . S
N208 C209 1.355 . S
N208 C211 1.311 . S
C209 N208 1.355 . S
C209 C210 1.363 . S
C209 H221 0.929 . S
C210 C209 1.363 . S
C210 N212 1.375 . S
C210 H228 0.931 . S
C211 N208 1.311 . S
C211 N212 1.347 . S
C211 H222 0.929 . S
N212 C210 1.375 . S
N212 C211 1.347 . S
C213 C216 1.365 . S
C213 N218 1.328 . S
C213 H219 0.929 . S
C214 C215 1.362 . S
C214 C217 1.378 . S
C214 H229 0.929 . S
C215 C214 1.362 . S
C215 C216 1.366 . S
C216 C213 1.365 . S
C216 C215 1.366 . S
C216 H230 0.930 . S
C217 C214 1.378 . S
C217 N218 1.315 . S
C217 H220 0.930 . S
N218 Co198 2.194 . S
N218 C213 1.328 . S
N218 C217 1.315 . S
H219 C213 0.929 . S
H220 C217 0.930 . S
H221 C209 0.929 . S
H222 C211 0.929 . S
O223 Co198 2.351 . S
O223 C226 1.244 . S
O224 Co198 2.155 . S
O224 C226 1.240 . S
O225 Co198 2.096 . S
O225 C206 1.247 . S
C226 O223 1.244 . S
C226 O224 1.240 . S
H227 C201 0.931 . S
H228 C210 0.931 . S
H229 C214 0.929 . S
H230 C216 0.930 . S
Co231 N235 2.148 . S
Co231 N241 2.128 . S
Co231 N251 2.194 . S
Co231 O256 2.351 . S
Co231 O257 2.155 . S
Co231 O258 2.096 . S
C232 N235 1.301 . S
C232 N236 1.328 . S
C232 H237 0.930 . S
C233 C234 1.333 . S
C233 N235 1.317 . S
C233 H238 0.930 . S
C234 C233 1.333 . S
C234 N236 1.350 . S
C234 H260 0.931 . S
N235 Co231 2.148 . S
N235 C232 1.301 . S
N235 C233 1.317 . S
N236 C232 1.328 . S
N236 C234 1.350 . S
H237 C232 0.930 . S
H238 C233 0.930 . S
C239 O240 1.224 . S
C239 O258 1.247 . S
O240 C239 1.224 . S
N241 Co231 2.128 . S
N241 C242 1.355 . S
N241 C244 1.311 . S
C242 N241 1.355 . S
C242 C243 1.363 . S
C242 H254 0.929 . S
C243 C242 1.363 . S
C243 N245 1.375 . S
C243 H261 0.931 . S
C244 N241 1.311 . S
C244 N245 1.347 . S
C244 H255 0.929 . S
N245 C243 1.375 . S
N245 C244 1.347 . S
C246 C249 1.365 . S
C246 N251 1.328 . S
C246 H252 0.929 . S
C247 C248 1.362 . S
C247 C250 1.378 . S
C247 H262 0.929 . S
C248 C247 1.362 . S
C248 C249 1.366 . S
C249 C246 1.365 . S
C249 C248 1.366 . S
C249 H263 0.930 . S
C250 C247 1.378 . S
C250 N251 1.315 . S
C250 H253 0.930 . S
N251 Co231 2.194 . S
N251 C246 1.328 . S
N251 C250 1.315 . S
H252 C246 0.929 . S
H253 C250 0.930 . S
H254 C242 0.929 . S
H255 C244 0.929 . S
O256 Co231 2.351 . S
O256 C259 1.244 . S
O257 Co231 2.155 . S
O257 C259 1.240 . S
O258 Co231 2.096 . S
O258 C239 1.247 . S
C259 O256 1.244 . S
C259 O257 1.240 . S
H260 C234 0.931 . S
H261 C243 0.931 . S
H262 C247 0.929 . S
H263 C249 0.930 . S
Co264 N268 2.148 1_455 S
Co264 N274 2.128 1_455 S
Co264 N284 2.194 1_455 S
Co264 O289 2.351 1_455 S
Co264 O290 2.155 . S
Co264 O291 2.096 . S
C265 N268 1.304 . S
C265 N269 1.328 . S
C265 H270 0.930 . S
C266 C267 1.333 . S
C266 N268 1.315 1_455 S
C266 H271 0.930 . S
C267 C266 1.333 . S
C267 N269 1.350 1_455 S
C267 H293 0.931 . S
N268 Co264 2.148 1_655 S
N268 C265 1.304 . S
N268 C266 1.315 1_655 S
N269 C265 1.328 . S
N269 C267 1.350 1_655 S
H270 C265 0.930 . S
H271 C266 0.930 . S
C272 O273 1.224 1_455 S
C272 O291 1.247 . S
O273 C272 1.224 1_655 S
N274 Co264 2.128 1_655 S
N274 C275 1.355 . S
N274 C277 1.311 1_655 S
C275 N274 1.355 . S
C275 C276 1.363 . S
C275 H287 0.929 . S
C276 C275 1.363 . S
C276 N278 1.375 1_655 S
C276 H294 0.931 . S
C277 N274 1.311 1_455 S
C277 N278 1.347 . S
C277 H288 0.929 . S
N278 C276 1.375 1_455 S
N278 C277 1.347 . S
C279 C282 1.365 . S
C279 N284 1.328 . S
C279 H285 0.929 . S
C280 C281 1.362 . S
C280 C283 1.378 . S
C280 H295 0.929 . S
C281 C280 1.362 . S
C281 C282 1.366 . S
C282 C279 1.365 . S
C282 C281 1.366 . S
C282 H296 0.930 . S
C283 C280 1.378 . S
C283 N284 1.315 . S
C283 H286 0.930 . S
N284 Co264 2.194 1_655 S
N284 C279 1.328 . S
N284 C283 1.315 . S
H285 C279 0.929 . S
H286 C283 0.930 . S
H287 C275 0.929 . S
H288 C277 0.929 . S
O289 Co264 2.351 1_655 S
O289 C292 1.244 1_655 S
O290 Co264 2.155 . S
O290 C292 1.240 . S
O291 Co264 2.096 . S
O291 C272 1.247 . S
C292 O289 1.244 1_455 S
C292 O290 1.240 . S
H293 C267 0.931 . S
H294 C276 0.931 . S
H295 C280 0.929 . S
H296 C282 0.930 . S
Co297 N301 2.148 1_545 S
Co297 N307 2.128 1_545 S
Co297 N317 2.194 1_545 S
Co297 O322 2.351 1_545 S
Co297 O323 2.155 . S
Co297 O324 2.096 . S
C298 N301 1.303 . S
C298 N302 1.328 . S
C298 H303 0.930 . S
C299 C300 1.333 . S
C299 N301 1.315 1_545 S
C299 H304 0.930 . S
C300 C299 1.333 . S
C300 N302 1.350 1_545 S
C300 H326 0.931 . S
N301 Co297 2.148 1_565 S
N301 C298 1.303 . S
N301 C299 1.315 1_565 S
N302 C298 1.328 . S
N302 C300 1.350 1_565 S
H303 C298 0.930 . S
H304 C299 0.930 . S
C305 O306 1.224 1_545 S
C305 O324 1.247 . S
O306 C305 1.224 1_565 S
N307 Co297 2.128 1_565 S
N307 C308 1.355 . S
N307 C310 1.311 1_565 S
C308 N307 1.355 . S
C308 C309 1.363 . S
C308 H320 0.929 . S
C309 C308 1.363 . S
C309 N311 1.375 1_565 S
C309 H327 0.931 . S
C310 N307 1.311 1_545 S
C310 N311 1.347 . S
C310 H321 0.929 . S
N311 C309 1.375 1_545 S
N311 C310 1.347 . S
C312 C315 1.365 . S
C312 N317 1.328 . S
C312 H318 0.929 . S
C313 C314 1.362 . S
C313 C316 1.378 . S
C313 H328 0.929 . S
C314 C313 1.362 . S
C314 C315 1.366 . S
C315 C312 1.365 . S
C315 C314 1.366 . S
C315 H329 0.930 . S
C316 C313 1.378 . S
C316 N317 1.315 . S
C316 H319 0.930 . S
N317 Co297 2.194 1_565 S
N317 C312 1.328 . S
N317 C316 1.315 . S
H318 C312 0.929 . S
H319 C316 0.930 . S
H320 C308 0.929 . S
H321 C310 0.929 . S
O322 Co297 2.351 1_565 S
O322 C325 1.244 1_565 S
O323 Co297 2.155 . S
O323 C325 1.240 . S
O324 Co297 2.096 . S
O324 C305 1.247 . S
C325 O322 1.244 1_545 S
C325 O323 1.240 . S
H326 C300 0.931 . S
H327 C309 0.931 . S
H328 C313 0.929 . S
H329 C315 0.930 . S
Co330 N334 2.148 . S
Co330 N340 2.128 . S
Co330 N350 2.194 . S
Co330 O355 2.351 . S
Co330 O356 2.155 . S
Co330 O357 2.096 . S
C331 N334 1.301 . S
C331 N335 1.328 . S
C331 H336 0.930 . S
C332 C333 1.333 . S
C332 N334 1.317 . S
C332 H337 0.930 . S
C333 C332 1.333 . S
C333 N335 1.350 . S
C333 H359 0.931 . S
N334 Co330 2.148 . S
N334 C331 1.301 . S
N334 C332 1.317 . S
N335 C331 1.328 . S
N335 C333 1.350 . S
H336 C331 0.930 . S
H337 C332 0.930 . S
C338 O339 1.224 . S
C338 O357 1.247 . S
O339 C338 1.224 . S
N340 Co330 2.128 . S
N340 C341 1.355 . S
N340 C343 1.311 . S
C341 N340 1.355 . S
C341 C342 1.363 . S
C341 H353 0.929 . S
C342 C341 1.363 . S
C342 N344 1.375 . S
C342 H360 0.931 . S
C343 N340 1.311 . S
C343 N344 1.347 . S
C343 H354 0.929 . S
N344 C342 1.375 . S
N344 C343 1.347 . S
C345 C348 1.365 . S
C345 N350 1.328 . S
C345 H351 0.929 . S
C346 C347 1.362 . S
C346 C349 1.378 . S
C346 H361 0.929 . S
C347 C346 1.362 . S
C347 C348 1.366 . S
C348 C345 1.365 . S
C348 C347 1.366 . S
C348 H362 0.930 . S
C349 C346 1.378 . S
C349 N350 1.315 . S
C349 H352 0.930 . S
N350 Co330 2.194 . S
N350 C345 1.328 . S
N350 C349 1.315 . S
H351 C345 0.929 . S
H352 C349 0.930 . S
H353 C341 0.929 . S
H354 C343 0.929 . S
O355 Co330 2.351 . S
O355 C358 1.244 . S
O356 Co330 2.155 . S
O356 C358 1.240 . S
O357 Co330 2.096 . S
O357 C338 1.247 . S
C358 O355 1.244 . S
C358 O356 1.240 . S
H359 C333 0.931 . S
H360 C342 0.931 . S
H361 C346 0.929 . S
H362 C348 0.930 . S
Co363 N367 2.148 . S
Co363 N373 2.128 . S
Co363 N383 2.194 . S
Co363 O388 2.351 . S
Co363 O389 2.155 . S
Co363 O390 2.096 . S
C364 N367 1.301 . S
C364 N368 1.328 . S
C364 H369 0.930 . S
C365 C366 1.333 . S
C365 N367 1.317 . S
C365 H370 0.930 . S
C366 C365 1.333 . S
C366 N368 1.350 . S
C366 H392 0.931 . S
N367 Co363 2.148 . S
N367 C364 1.301 . S
N367 C365 1.317 . S
N368 C364 1.328 . S
N368 C366 1.350 . S
H369 C364 0.930 . S
H370 C365 0.930 . S
C371 O372 1.224 . S
C371 O390 1.247 . S
O372 C371 1.224 . S
N373 Co363 2.128 . S
N373 C374 1.355 . S
N373 C376 1.311 . S
C374 N373 1.355 . S
C374 C375 1.363 . S
C374 H386 0.929 . S
C375 C374 1.363 . S
C375 N377 1.375 . S
C375 H393 0.931 . S
C376 N373 1.311 . S
C376 N377 1.347 . S
C376 H387 0.929 . S
N377 C375 1.375 . S
N377 C376 1.347 . S
C378 C381 1.365 . S
C378 N383 1.328 . S
C378 H384 0.929 . S
C379 C380 1.362 . S
C379 C382 1.378 . S
C379 H394 0.929 . S
C380 C379 1.362 . S
C380 C381 1.366 . S
C381 C378 1.365 . S
C381 C380 1.366 . S
C381 H395 0.930 . S
C382 C379 1.378 . S
C382 N383 1.315 . S
C382 H385 0.930 . S
N383 Co363 2.194 . S
N383 C378 1.328 . S
N383 C382 1.315 . S
H384 C378 0.929 . S
H385 C382 0.930 . S
H386 C374 0.929 . S
H387 C376 0.929 . S
O388 Co363 2.351 . S
O388 C391 1.244 . S
O389 Co363 2.155 . S
O389 C391 1.240 . S
O390 Co363 2.096 . S
O390 C371 1.247 . S
C391 O388 1.244 . S
C391 O389 1.240 . S
H392 C366 0.931 . S
H393 C375 0.931 . S
H394 C379 0.929 . S
H395 C381 0.930 . S
Co396 N400 2.148 1_455 S
Co396 N406 2.128 1_455 S
Co396 N416 2.194 1_455 S
Co396 O421 2.351 1_455 S
Co396 O422 2.155 . S
Co396 O423 2.096 . S
C397 N400 1.303 . S
C397 N401 1.328 . S
C397 H402 0.930 . S
C398 C399 1.333 . S
C398 N400 1.315 1_455 S
C398 H403 0.930 . S
C399 C398 1.333 . S
C399 N401 1.350 1_455 S
C399 H425 0.931 . S
N400 Co396 2.148 1_655 S
N400 C397 1.303 . S
N400 C398 1.315 1_655 S
N401 C397 1.328 . S
N401 C399 1.350 1_655 S
H402 C397 0.930 . S
H403 C398 0.930 . S
C404 O405 1.224 1_455 S
C404 O423 1.247 . S
O405 C404 1.224 1_655 S
N406 Co396 2.128 1_655 S
N406 C407 1.355 . S
N406 C409 1.311 1_655 S
C407 N406 1.355 . S
C407 C408 1.363 . S
C407 H419 0.929 . S
C408 C407 1.363 . S
C408 N410 1.375 1_655 S
C408 H426 0.931 . S
C409 N406 1.311 1_455 S
C409 N410 1.347 . S
C409 H420 0.929 . S
N410 C408 1.375 1_455 S
N410 C409 1.347 . S
C411 C414 1.365 . S
C411 N416 1.328 . S
C411 H417 0.929 . S
C412 C413 1.362 . S
C412 C415 1.378 . S
C412 H427 0.929 . S
C413 C412 1.362 . S
C413 C414 1.366 . S
C414 C411 1.365 . S
C414 C413 1.366 . S
C414 H428 0.930 . S
C415 C412 1.378 . S
C415 N416 1.315 . S
C415 H418 0.930 . S
N416 Co396 2.194 1_655 S
N416 C411 1.328 . S
N416 C415 1.315 . S
H417 C411 0.929 . S
H418 C415 0.930 . S
H419 C407 0.929 . S
H420 C409 0.929 . S
O421 Co396 2.351 1_655 S
O421 C424 1.244 1_655 S
O422 Co396 2.155 . S
O422 C424 1.240 . S
O423 Co396 2.096 . S
O423 C404 1.247 . S
C424 O421 1.244 1_455 S
C424 O422 1.240 . S
H425 C399 0.931 . S
H426 C408 0.931 . S
H427 C412 0.929 . S
H428 C414 0.930 . S
Co429 N433 2.148 1_545 S
Co429 N439 2.128 1_545 S
Co429 N449 2.194 1_545 S
Co429 O454 2.351 1_545 S
Co429 O455 2.155 . S
Co429 O456 2.096 . S
C430 N433 1.304 . S
C430 N434 1.328 . S
C430 H435 0.930 . S
C431 C432 1.333 . S
C431 N433 1.315 1_545 S
C431 H436 0.930 . S
C432 C431 1.333 . S
C432 N434 1.350 1_545 S
C432 H458 0.931 . S
N433 Co429 2.148 1_565 S
N433 C430 1.304 . S
N433 C431 1.315 1_565 S
N434 C430 1.328 . S
N434 C432 1.350 1_565 S
H435 C430 0.930 . S
H436 C431 0.930 . S
C437 O438 1.224 1_545 S
C437 O456 1.247 . S
O438 C437 1.224 1_565 S
N439 Co429 2.128 1_565 S
N439 C440 1.355 . S
N439 C442 1.311 1_565 S
C440 N439 1.355 . S
C440 C441 1.363 . S
C440 H452 0.929 . S
C441 C440 1.363 . S
C441 N443 1.375 1_565 S
C441 H459 0.931 . S
C442 N439 1.311 1_545 S
C442 N443 1.347 . S
C442 H453 0.929 . S
N443 C441 1.375 1_545 S
N443 C442 1.347 . S
C444 C447 1.365 . S
C444 N449 1.328 . S
C444 H450 0.929 . S
C445 C446 1.362 . S
C445 C448 1.378 . S
C445 H460 0.929 . S
C446 C445 1.362 . S
C446 C447 1.366 . S
C447 C444 1.365 . S
C447 C446 1.366 . S
C447 H461 0.930 . S
C448 C445 1.378 . S
C448 N449 1.315 . S
C448 H451 0.930 . S
N449 Co429 2.194 1_565 S
N449 C444 1.328 . S
N449 C448 1.315 . S
H450 C444 0.929 . S
H451 C448 0.930 . S
H452 C440 0.929 . S
H453 C442 0.929 . S
O454 Co429 2.351 1_565 S
O454 C457 1.244 1_565 S
O455 Co429 2.155 . S
O455 C457 1.240 . S
O456 Co429 2.096 . S
O456 C437 1.247 . S
C457 O454 1.244 1_545 S
C457 O455 1.240 . S
H458 C432 0.931 . S
H459 C441 0.931 . S
H460 C445 0.929 . S
H461 C447 0.930 . S
Co462 N466 2.148 . S
Co462 N472 2.128 . S
Co462 N482 2.194 . S
Co462 O487 2.351 . S
Co462 O488 2.155 . S
Co462 O489 2.096 . S
C463 N466 1.301 . S
C463 N467 1.328 . S
C463 H468 0.930 . S
C464 C465 1.333 . S
C464 N466 1.317 . S
C464 H469 0.930 . S
C465 C464 1.333 . S
C465 N467 1.350 . S
C465 H491 0.931 . S
N466 Co462 2.148 . S
N466 C463 1.301 . S
N466 C464 1.317 . S
N467 C463 1.328 . S
N467 C465 1.350 . S
H468 C463 0.930 . S
H469 C464 0.930 . S
C470 O471 1.224 . S
C470 O489 1.247 . S
O471 C470 1.224 . S
N472 Co462 2.128 . S
N472 C473 1.355 . S
N472 C475 1.311 . S
C473 N472 1.355 . S
C473 C474 1.363 . S
C473 H485 0.929 . S
C474 C473 1.363 . S
C474 N476 1.375 . S
C474 H492 0.931 . S
C475 N472 1.311 . S
C475 N476 1.347 . S
C475 H486 0.929 . S
N476 C474 1.375 . S
N476 C475 1.347 . S
C477 C480 1.365 . S
C477 N482 1.328 . S
C477 H483 0.929 . S
C478 C479 1.362 . S
C478 C481 1.378 . S
C478 H493 0.929 . S
C479 C478 1.362 . S
C479 C480 1.366 . S
C480 C477 1.365 . S
C480 C479 1.366 . S
C480 H494 0.930 . S
C481 C478 1.378 . S
C481 N482 1.315 . S
C481 H484 0.930 . S
N482 Co462 2.194 . S
N482 C477 1.328 . S
N482 C481 1.315 . S
H483 C477 0.929 . S
H484 C481 0.930 . S
H485 C473 0.929 . S
H486 C475 0.929 . S
O487 Co462 2.351 . S
O487 C490 1.244 . S
O488 Co462 2.155 . S
O488 C490 1.240 . S
O489 Co462 2.096 . S
O489 C470 1.247 . S
C490 O487 1.244 . S
C490 O488 1.240 . S
H491 C465 0.931 . S
H492 C474 0.931 . S
H493 C478 0.929 . S
H494 C480 0.930 . S
Co495 N499 2.148 . S
Co495 N505 2.128 . S
Co495 N515 2.194 . S
Co495 O520 2.351 . S
Co495 O521 2.155 . S
Co495 O522 2.096 . S
C496 N499 1.301 . S
C496 N500 1.328 . S
C496 H501 0.930 . S
C497 C498 1.333 . S
C497 N499 1.317 . S
C497 H502 0.930 . S
C498 C497 1.333 . S
C498 N500 1.350 . S
C498 H524 0.931 . S
N499 Co495 2.148 . S
N499 C496 1.301 . S
N499 C497 1.317 . S
N500 C496 1.328 . S
N500 C498 1.350 . S
H501 C496 0.930 . S
H502 C497 0.930 . S
C503 O504 1.224 . S
C503 O522 1.247 . S
O504 C503 1.224 . S
N505 Co495 2.128 . S
N505 C506 1.355 . S
N505 C508 1.311 . S
C506 N505 1.355 . S
C506 C507 1.363 . S
C506 H518 0.929 . S
C507 C506 1.363 . S
C507 N509 1.375 . S
C507 H525 0.931 . S
C508 N505 1.311 . S
C508 N509 1.347 . S
C508 H519 0.929 . S
N509 C507 1.375 . S
N509 C508 1.347 . S
C510 C513 1.365 . S
C510 N515 1.328 . S
C510 H516 0.929 . S
C511 C512 1.362 . S
C511 C514 1.378 . S
C511 H526 0.929 . S
C512 C511 1.362 . S
C512 C513 1.366 . S
C513 C510 1.365 . S
C513 C512 1.366 . S
C513 H527 0.930 . S
C514 C511 1.378 . S
C514 N515 1.315 . S
C514 H517 0.930 . S
N515 Co495 2.194 . S
N515 C510 1.328 . S
N515 C514 1.315 . S
H516 C510 0.929 . S
H517 C514 0.930 . S
H518 C506 0.929 . S
H519 C508 0.929 . S
O520 Co495 2.351 . S
O520 C523 1.244 . S
O521 Co495 2.155 . S
O521 C523 1.240 . S
O522 Co495 2.096 . S
O522 C503 1.247 . S
C523 O520 1.244 . S
C523 O521 1.240 . S
H524 C498 0.931 . S
H525 C507 0.931 . S
H526 C511 0.929 . S
H527 C513 0.930 . S
C528 C529 1.369 1_455 S
C528 C530 1.419 1_556 S
C528 H532 0.930 . S
C529 C528 1.369 1_655 S
C529 C538 1.429 . S
C530 C528 1.419 1_554 S
C530 C531 1.363 1_455 S
C530 H533 0.929 . S
C531 C530 1.363 1_655 S
C531 C537 1.428 . S
H532 C528 0.930 . S
H533 C530 0.929 . S
S534 N535 1.613 . S
S534 N536 1.610 1_556 S
N535 S534 1.613 . S
N535 C538 1.350 . S
N536 S534 1.610 1_554 S
N536 C537 1.351 . S
C537 C531 1.428 . S
C537 N536 1.351 . S
C537 C538 1.434 1_554 S
C538 C529 1.429 . S
C538 N535 1.350 . S
C538 C537 1.434 1_556 S
C539 C540 1.369 1_545 S
C539 C541 1.419 . S
C539 H543 0.930 . S
C540 C539 1.369 1_565 S
C540 C549 1.429 . S
C541 C539 1.419 . S
C541 C542 1.363 1_545 S
C541 H544 0.929 . S
C542 C541 1.363 1_565 S
C542 C548 1.428 . S
H543 C539 0.930 . S
H544 C541 0.929 . S
S545 N546 1.613 . S
S545 N547 1.610 . S
N546 S545 1.613 . S
N546 C549 1.350 . S
N547 S545 1.610 . S
N547 C548 1.351 . S
C548 C542 1.428 . S
C548 N547 1.351 . S
C548 C549 1.434 . S
C549 C540 1.429 . S
C549 N546 1.350 . S
C549 C548 1.434 . S
C550 C551 1.369 . S
C550 C552 1.419 1_554 S
C550 H554 0.930 . S
C551 C550 1.369 . S
C551 C560 1.429 . S
C552 C550 1.419 1_556 S
C552 C553 1.363 . S
C552 H555 0.929 . S
C553 C552 1.363 . S
C553 C559 1.428 . S
H554 C550 0.930 . S
H555 C552 0.929 . S
S556 N557 1.613 . S
S556 N558 1.610 1_554 S
N557 S556 1.613 . S
N557 C560 1.350 . S
N558 S556 1.610 1_556 S
N558 C559 1.351 . S
C559 C553 1.428 . S
C559 N558 1.351 . S
C559 C560 1.434 1_556 S
C560 C551 1.429 . S
C560 N557 1.350 . S
C560 C559 1.434 1_554 S
C561 C562 1.369 . S
C561 C563 1.419 . S
C561 H565 0.930 . S
C562 C561 1.369 . S
C562 C571 1.429 . S
C563 C561 1.419 . S
C563 C564 1.363 . S
C563 H566 0.929 . S
C564 C563 1.363 . S
C564 C570 1.428 . S
H565 C561 0.930 . S
H566 C563 0.929 . S
S567 N568 1.613 . S
S567 N569 1.610 . S
N568 S567 1.613 . S
N568 C571 1.350 . S
N569 S567 1.610 . S
N569 C570 1.351 . S
C570 C564 1.428 . S
C570 N569 1.351 . S
C570 C571 1.434 . S
C571 C562 1.429 . S
C571 N568 1.350 . S
C571 C570 1.434 . S
C572 C573 1.369 . S
C572 C574 1.419 1_554 S
C572 H576 0.930 . S
C573 C572 1.369 . S
C573 C582 1.429 1_455 S
C574 C572 1.419 1_556 S
C574 C575 1.363 . S
C574 H577 0.929 . S
C575 C574 1.363 . S
C575 C581 1.428 1_455 S
H576 C572 0.930 . S
H577 C574 0.929 . S
S578 N579 1.613 . S
S578 N580 1.610 1_554 S
N579 S578 1.613 . S
N579 C582 1.350 . S
N580 S578 1.610 1_556 S
N580 C581 1.351 . S
C581 C575 1.428 1_655 S
C581 N580 1.351 . S
C581 C582 1.434 1_556 S
C582 C573 1.429 1_655 S
C582 N579 1.350 . S
C582 C581 1.434 1_554 S
C583 C584 1.369 . S
C583 C585 1.419 . S
C583 H587 0.930 . S
C584 C583 1.369 . S
C584 C593 1.429 1_545 S
C585 C583 1.419 . S
C585 C586 1.363 . S
C585 H588 0.929 . S
C586 C585 1.363 . S
C586 C592 1.428 1_545 S
H587 C583 0.930 . S
H588 C585 0.929 . S
S589 N590 1.613 . S
S589 N591 1.610 . S
N590 S589 1.613 . S
N590 C593 1.350 . S
N591 S589 1.610 . S
N591 C592 1.351 . S
C592 C586 1.428 1_565 S
C592 N591 1.351 . S
C592 C593 1.434 . S
C593 C584 1.429 1_565 S
C593 N590 1.350 . S
C593 C592 1.434 . S
C594 C595 1.369 . S
C594 C596 1.419 1_556 S
C594 H598 0.930 . S
C595 C594 1.369 . S
C595 C604 1.429 . S
C596 C594 1.419 1_554 S
C596 C597 1.363 . S
C596 H599 0.929 . S
C597 C596 1.363 . S
C597 C603 1.428 . S
H598 C594 0.930 . S
H599 C596 0.929 . S
S600 N601 1.613 . S
S600 N602 1.610 1_556 S
N601 S600 1.613 . S
N601 C604 1.350 . S
N602 S600 1.610 1_554 S
N602 C603 1.351 . S
C603 C597 1.428 . S
C603 N602 1.351 . S
C603 C604 1.434 1_554 S
C604 C595 1.429 . S
C604 N601 1.350 . S
C604 C603 1.434 1_556 S
C605 C606 1.369 . S
C605 C607 1.419 . S
C605 H609 0.930 . S
C606 C605 1.369 . S
C606 C615 1.429 . S
C607 C605 1.419 . S
C607 C608 1.363 . S
C607 H610 0.929 . S
C608 C607 1.363 . S
C608 C614 1.428 . S
H609 C605 0.930 . S
H610 C607 0.929 . S
S611 N612 1.613 . S
S611 N613 1.610 . S
N612 S611 1.613 . S
N612 C615 1.350 . S
N613 S611 1.610 . S
N613 C614 1.351 . S
C614 C608 1.428 . S
C614 N613 1.351 . S
C614 C615 1.434 . S
C615 C606 1.429 . S
C615 N612 1.350 . S
C615 C614 1.434 . S
C616 C617 1.369 . S
C616 C618 1.419 . S
C616 H620 0.930 . S
C617 C616 1.369 . S
C617 C626 1.429 1_655 S
C618 C616 1.419 . S
C618 C619 1.363 1_655 S
C618 H621 0.929 . S
C619 C618 1.363 1_455 S
C619 C625 1.428 . S
H620 C616 0.930 . S
H621 C618 0.929 . S
S622 N623 1.613 . S
S622 N624 1.610 . S
N623 S622 1.613 . S
N623 C626 1.350 . S
N624 S622 1.610 . S
N624 C625 1.351 . S
C625 C619 1.428 . S
C625 N624 1.351 . S
C625 C626 1.434 . S
C626 C617 1.429 1_455 S
C626 N623 1.350 . S
C626 C625 1.434 . S
C627 C628 1.369 . S
C627 C629 1.419 1_565 S
C627 H631 0.930 . S
C628 C627 1.369 . S
C628 C637 1.429 . S
C629 C627 1.419 1_545 S
C629 C630 1.363 . S
C629 H632 0.929 . S
C630 C629 1.363 . S
C630 C636 1.428 1_545 S
H631 C627 0.930 . S
H632 C629 0.929 . S
S633 N634 1.613 . S
S633 N635 1.610 . S
N634 S633 1.613 . S
N634 C637 1.350 . S
N635 S633 1.610 . S
N635 C636 1.351 . S
C636 C630 1.428 1_565 S
C636 N635 1.351 . S
C636 C637 1.434 . S
C637 C628 1.429 . S
C637 N634 1.350 . S
C637 C636 1.434 . S
C638 C639 1.369 . S
C638 C640 1.419 . S
C638 H642 0.930 . S
C639 C638 1.369 . S
C639 C648 1.429 . S
C640 C638 1.419 . S
C640 C641 1.363 . S
C640 H643 0.929 . S
C641 C640 1.363 . S
C641 C647 1.428 . S
H642 C638 0.930 . S
H643 C640 0.929 . S
S644 N645 1.613 . S
S644 N646 1.610 . S
N645 S644 1.613 . S
N645 C648 1.350 . S
N646 S644 1.610 . S
N646 C647 1.351 . S
C647 C641 1.428 . S
C647 N646 1.351 . S
C647 C648 1.434 . S
C648 C639 1.429 . S
C648 N645 1.350 . S
C648 C647 1.434 . S
C649 C650 1.369 . S
C649 C651 1.419 . S
C649 H653 0.930 . S
C650 C649 1.369 . S
C650 C659 1.429 . S
C651 C649 1.419 . S
C651 C652 1.363 . S
C651 H654 0.929 . S
C652 C651 1.363 . S
C652 C658 1.428 . S
H653 C649 0.930 . S
H654 C651 0.929 . S
S655 N656 1.613 . S
S655 N657 1.610 . S
N656 S655 1.613 . S
N656 C659 1.350 . S
N657 S655 1.610 . S
N657 C658 1.351 . S
C658 C652 1.428 . S
C658 N657 1.351 . S
C658 C659 1.434 . S
C659 C650 1.429 . S
C659 N656 1.350 . S
C659 C658 1.434 . S
C660 C661 1.369 1_655 S
C660 C662 1.419 . S
C660 H664 0.930 . S
C661 C660 1.369 1_455 S
C661 C670 1.429 . S
C662 C660 1.419 . S
C662 C663 1.363 . S
C662 H665 0.929 . S
C663 C662 1.363 . S
C663 C669 1.428 1_655 S
H664 C660 0.930 . S
H665 C662 0.929 . S
S666 N667 1.613 . S
S666 N668 1.610 . S
N667 S666 1.613 . S
N667 C670 1.350 . S
N668 S666 1.610 . S
N668 C669 1.351 . S
C669 C663 1.428 1_455 S
C669 N668 1.351 . S
C669 C670 1.434 . S
C670 C661 1.429 . S
C670 N667 1.350 . S
C670 C669 1.434 . S
C671 C672 1.369 1_565 S
C671 C673 1.419 . S
C671 H675 0.930 . S
C672 C671 1.369 1_545 S
C672 C681 1.429 . S
C673 C671 1.419 . S
C673 C674 1.363 . S
C673 H676 0.929 . S
C674 C673 1.363 . S
C674 C680 1.428 . S
H675 C671 0.930 . S
H676 C673 0.929 . S
S677 N678 1.613 . S
S677 N679 1.610 1_545 S
N678 S677 1.613 . S
N678 C681 1.350 . S
N679 S677 1.610 1_565 S
N679 C680 1.351 . S
C680 C674 1.428 . S
C680 N679 1.351 . S
C680 C681 1.434 1_565 S
C681 C672 1.429 . S
C681 N678 1.350 . S
C681 C680 1.434 1_545 S
C682 C683 1.369 . S
C682 C684 1.419 . S
C682 H686 0.930 . S
C683 C682 1.369 . S
C683 C692 1.429 . S
C684 C682 1.419 . S
C684 C685 1.363 . S
C684 H687 0.929 . S
C685 C684 1.363 . S
C685 C691 1.428 . S
H686 C682 0.930 . S
H687 C684 0.929 . S
S688 N689 1.613 . S
S688 N690 1.610 . S
N689 S688 1.613 . S
N689 C692 1.350 . S
N690 S688 1.610 . S
N690 C691 1.351 . S
C691 C685 1.428 . S
C691 N690 1.351 . S
C691 C692 1.434 . S
C692 C683 1.429 . S
C692 N689 1.350 . S
C692 C691 1.434 . S
C693 C694 1.369 . S
C693 C695 1.419 . S
C693 H697 0.930 . S
C694 C693 1.369 . S
C694 C703 1.429 . S
C695 C693 1.419 . S
C695 C696 1.363 . S
C695 H698 0.929 . S
C696 C695 1.363 . S
C696 C702 1.428 . S
H697 C693 0.930 . S
H698 C695 0.929 . S
S699 N700 1.613 . S
S699 N701 1.610 . S
N700 S699 1.613 . S
N700 C703 1.350 . S
N701 S699 1.610 . S
N701 C702 1.351 . S
C702 C696 1.428 . S
C702 N701 1.351 . S
C702 C703 1.434 . S
C703 C694 1.429 . S
C703 N700 1.350 . S
C703 C702 1.434 . S
C704 C705 1.369 . S
C704 C706 1.419 . S
C704 H708 0.930 . S
C705 C704 1.369 . S
C705 C714 1.429 . S
C706 C704 1.419 . S
C706 C707 1.363 1_455 S
C706 H709 0.929 1_455 S
C707 C706 1.363 1_655 S
C707 C713 1.428 . S
H708 C704 0.930 . S
H709 C706 0.929 1_655 S
S710 N711 1.615 . S
S710 N712 1.609 1_455 S
N711 S710 1.615 . S
N711 C714 1.350 . S
N712 S710 1.609 1_655 S
N712 C713 1.351 . S
C713 C707 1.428 . S
C713 N712 1.351 . S
C713 C714 1.434 1_655 S
C714 C705 1.429 . S
C714 N711 1.350 . S
C714 C713 1.434 1_455 S
C715 C716 1.369 . S
C715 C717 1.419 1_545 S
C715 H719 0.930 . S
C716 C715 1.369 . S
C716 C725 1.429 . S
C717 C715 1.419 1_565 S
C717 C718 1.363 . S
C717 H720 0.929 . S
C718 C717 1.363 . S
C718 C724 1.428 1_565 S
H719 C715 0.930 . S
H720 C717 0.929 . S
S721 N722 1.613 . S
S721 N723 1.610 . S
N722 S721 1.613 . S
N722 C725 1.350 . S
N723 S721 1.610 . S
N723 C724 1.351 . S
C724 C718 1.428 1_545 S
C724 N723 1.351 . S
C724 C725 1.434 . S
C725 C716 1.429 . S
C725 N722 1.350 . S
C725 C724 1.434 . S
C726 C727 1.369 . S
C726 C728 1.419 . S
C726 H730 0.930 . S
C727 C726 1.369 . S
C727 C736 1.429 . S
C728 C726 1.419 . S
C728 C729 1.363 . S
C728 H731 0.929 . S
C729 C728 1.363 . S
C729 C735 1.428 . S
H730 C726 0.930 . S
H731 C728 0.929 . S
S732 N733 1.613 . S
S732 N734 1.610 . S
N733 S732 1.613 . S
N733 C736 1.350 . S
N734 S732 1.610 . S
N734 C735 1.351 . S
C735 C729 1.428 . S
C735 N734 1.351 . S
C735 C736 1.434 . S
C736 C727 1.429 . S
C736 N733 1.350 . S
C736 C735 1.434 . S
C737 C738 1.369 . S
C737 C739 1.419 . S
C737 H741 0.930 . S
C738 C737 1.369 . S
C738 C747 1.429 . S
C739 C737 1.419 . S
C739 C740 1.363 . S
C739 H742 0.929 . S
C740 C739 1.363 . S
C740 C746 1.428 . S
H741 C737 0.930 . S
H742 C739 0.929 . S
S743 N744 1.613 . S
S743 N745 1.610 1_655 S
N744 S743 1.613 . S
N744 C747 1.350 . S
N745 S743 1.610 1_455 S
N745 C746 1.351 1_455 S
C746 C740 1.428 . S
C746 N745 1.351 1_655 S
C746 C747 1.434 . S
C747 C738 1.429 . S
C747 N744 1.350 . S
C747 C746 1.434 . S
C748 C749 1.369 . S
C748 C750 1.419 . S
C748 H752 0.930 . S
C749 C748 1.369 . S
C749 C758 1.429 . S
C750 C748 1.419 . S
C750 C751 1.363 1_455 S
C750 H753 0.929 1_455 S
C751 C750 1.363 1_655 S
C751 C757 1.428 . S
H752 C748 0.930 . S
H753 C750 0.929 1_655 S
S754 N755 1.613 . S
S754 N756 1.610 1_455 S
N755 S754 1.613 . S
N755 C758 1.350 . S
N756 S754 1.610 1_655 S
N756 C757 1.351 . S
C757 C751 1.428 . S
C757 N756 1.351 . S
C757 C758 1.434 1_655 S
C758 C749 1.429 . S
C758 N755 1.350 . S
C758 C757 1.434 1_455 S
C759 C760 1.369 . S
C759 C761 1.419 . S
C759 H763 0.930 . S
C760 C759 1.369 . S
C760 C769 1.429 . S
C761 C759 1.419 . S
C761 C762 1.363 1_545 S
C761 H764 0.929 . S
C762 C761 1.363 1_565 S
C762 C768 1.428 . S
H763 C759 0.930 . S
H764 C761 0.929 . S
S765 N766 1.613 . S
S765 N767 1.610 . S
N766 S765 1.613 . S
N766 C769 1.350 1_565 S
N767 S765 1.610 . S
N767 C768 1.351 . S
C768 C762 1.428 . S
C768 N767 1.351 . S
C768 C769 1.434 1_565 S
C769 C760 1.429 . S
C769 N766 1.350 1_545 S
C769 C768 1.434 1_545 S
C770 C771 1.369 . S
C770 C772 1.419 . S
C770 H774 0.930 . S
C771 C770 1.369 . S
C771 C780 1.429 . S
C772 C770 1.419 . S
C772 C773 1.363 . S
C772 H775 0.924 1_565 S
C773 C772 1.363 . S
C773 C779 1.428 . S
H774 C770 0.930 . S
H775 C772 0.924 1_545 S
S776 N777 1.613 . S
S776 N778 1.610 . S
N777 S776 1.613 . S
N777 C780 1.350 . S
N778 S776 1.610 . S
N778 C779 1.351 . S
C779 C773 1.428 . S
C779 N778 1.351 . S
C779 C780 1.434 . S
C780 C771 1.429 . S
C780 N777 1.350 . S
C780 C779 1.434 . S
C781 C782 1.369 . S
C781 C783 1.419 . S
C781 H785 0.930 . S
C782 C781 1.369 . S
C782 C791 1.429 . S
C783 C781 1.419 . S
C783 C784 1.363 . S
C783 H786 0.929 . S
C784 C783 1.363 . S
C784 C790 1.428 . S
H785 C781 0.930 . S
H786 C783 0.929 . S
S787 N788 1.613 . S
S787 N789 1.610 . S
N788 S787 1.613 . S
N788 C791 1.350 . S
N789 S787 1.610 . S
N789 C790 1.351 . S
C790 C784 1.428 . S
C790 N789 1.351 . S
C790 C791 1.434 . S
C791 C782 1.429 . S
C791 N788 1.350 . S
C791 C790 1.434 . S
C792 C793 1.369 . S
C792 C794 1.419 . S
C792 H796 0.930 . S
C793 C792 1.369 . S
C793 C802 1.429 . S
C794 C792 1.419 . S
C794 C795 1.363 . S
C794 H797 0.929 . S
C795 C794 1.363 . S
C795 C801 1.428 . S
H796 C792 0.930 . S
H797 C794 0.929 . S
S798 N799 1.613 . S
S798 N800 1.610 . S
N799 S798 1.613 . S
N799 C802 1.350 . S
N800 S798 1.610 . S
N800 C801 1.351 . S
C801 C795 1.428 . S
C801 N800 1.351 . S
C801 C802 1.434 . S
C802 C793 1.429 . S
C802 N799 1.350 . S
C802 C801 1.434 . S
C803 C804 1.369 . S
C803 C805 1.419 . S
C803 H807 0.930 . S
C804 C803 1.369 . S
C804 C813 1.429 . S
C805 C803 1.419 . S
C805 C806 1.363 . S
C805 H808 0.929 . S
C806 C805 1.363 . S
C806 C812 1.428 . S
H807 C803 0.930 . S
H808 C805 0.929 . S
S809 N810 1.613 . S
S809 N811 1.610 1_565 S
N810 S809 1.613 . S
N810 C813 1.350 1_565 S
N811 S809 1.610 1_545 S
N811 C812 1.351 . S
C812 C806 1.428 . S
C812 N811 1.351 . S
C812 C813 1.434 . S
C813 C804 1.429 . S
C813 N810 1.350 1_545 S
C813 C812 1.434 . S
C814 C815 1.369 . S
C814 C816 1.419 . S
C814 H818 0.930 . S
C815 C814 1.369 . S
C815 C824 1.429 . S
C816 C814 1.419 . S
C816 C817 1.363 . S
C816 H819 0.929 . S
C817 C816 1.363 . S
C817 C823 1.428 . S
H818 C814 0.930 . S
H819 C816 0.929 . S
S820 N821 1.613 . S
S820 N822 1.610 . S
N821 S820 1.613 . S
N821 C824 1.350 . S
N822 S820 1.610 . S
N822 C823 1.351 . S
C823 C817 1.428 . S
C823 N822 1.351 . S
C823 C824 1.434 . S
C824 C815 1.429 . S
C824 N821 1.350 . S
C824 C823 1.434 . S
C825 C826 1.369 . S
C825 C827 1.419 . S
C825 H829 0.930 . S
C826 C825 1.369 . S
C826 C835 1.429 . S
C827 C825 1.419 . S
C827 C828 1.363 . S
C827 H830 0.929 . S
C828 C827 1.363 . S
C828 C834 1.428 . S
H829 C825 0.930 . S
H830 C827 0.929 . S
S831 N832 1.613 . S
S831 N833 1.610 . S
N832 S831 1.613 . S
N832 C835 1.350 . S
N833 S831 1.610 . S
N833 C834 1.351 . S
C834 C828 1.428 . S
C834 N833 1.351 . S
C834 C835 1.434 . S
C835 C826 1.429 . S
C835 N832 1.350 . S
C835 C834 1.434 . S
C836 C837 1.369 . S
C836 C838 1.419 . S
C836 H840 0.930 . S
C837 C836 1.369 . S
C837 C846 1.429 . S
C838 C836 1.419 . S
C838 C839 1.363 . S
C838 H841 0.929 . S
C839 C838 1.363 . S
C839 C845 1.428 . S
H840 C836 0.930 . S
H841 C838 0.929 . S
S842 N843 1.613 . S
S842 N844 1.610 . S
N843 S842 1.613 . S
N843 C846 1.350 . S
N844 S842 1.610 . S
N844 C845 1.351 . S
C845 C839 1.428 . S
C845 N844 1.351 . S
C845 C846 1.434 . S
C846 C837 1.429 . S
C846 N843 1.350 . S
C846 C845 1.434 . S
C847 C848 1.369 . S
C847 C849 1.419 . S
C847 H851 0.930 . S
C848 C847 1.369 . S
C848 C857 1.429 . S
C849 C847 1.419 . S
C849 C850 1.363 . S
C849 H852 0.929 . S
C850 C849 1.363 . S
C850 C856 1.428 . S
H851 C847 0.930 . S
H852 C849 0.929 . S
S853 N854 1.613 . S
S853 N855 1.612 1_455 S
N854 S853 1.613 . S
N854 C857 1.350 1_455 S
N855 S853 1.612 1_655 S
N855 C856 1.362 . S
C856 C850 1.428 . S
C856 N855 1.362 . S
C856 C857 1.434 . S
C857 C848 1.429 . S
C857 N854 1.350 1_655 S
C857 C856 1.434 . S
C858 C859 1.369 . S
C858 C860 1.419 . S
C858 H862 0.930 . S
C859 C858 1.369 . S
C859 C868 1.429 . S
C860 C858 1.419 . S
C860 C861 1.363 . S
C860 H863 0.929 . S
C861 C860 1.363 . S
C861 C867 1.428 . S
H862 C858 0.930 . S
H863 C860 0.929 . S
S864 N865 1.613 1_545 S
S864 N866 1.610 . S
N865 S864 1.613 1_565 S
N865 C868 1.350 . S
N866 S864 1.610 . S
N866 C867 1.351 1_545 S
C867 C861 1.428 . S
C867 N866 1.351 1_565 S
C867 C868 1.434 . S
C868 C859 1.429 . S
C868 N865 1.350 . S
C868 C867 1.434 . S
C869 C870 1.369 . S
C869 C871 1.419 . S
C869 H873 0.930 . S
C870 C869 1.369 . S
C870 C879 1.429 . S
C871 C869 1.419 . S
C871 C872 1.363 . S
C871 H874 0.929 . S
C872 C871 1.363 . S
C872 C878 1.428 . S
H873 C869 0.930 . S
H874 C871 0.929 . S
S875 N876 1.613 . S
S875 N877 1.610 . S
N876 S875 1.613 . S
N876 C879 1.350 . S
N877 S875 1.610 . S
N877 C878 1.351 . S
C878 C872 1.428 . S
C878 N877 1.351 . S
C878 C879 1.434 . S
C879 C870 1.429 . S
C879 N876 1.350 . S
C879 C878 1.434 . S
C880 C881 1.369 . S
C880 C882 1.419 . S
C880 H884 0.930 . S
C881 C880 1.369 . S
C881 C890 1.429 . S
C882 C880 1.419 . S
C882 C883 1.363 . S
C882 H885 0.929 . S
C883 C882 1.363 . S
C883 C889 1.428 . S
H884 C880 0.930 . S
H885 C882 0.929 . S
S886 N887 1.613 . S
S886 N888 1.610 . S
N887 S886 1.613 . S
N887 C890 1.350 . S
N888 S886 1.610 . S
N888 C889 1.351 . S
C889 C883 1.428 . S
C889 N888 1.351 . S
C889 C890 1.434 . S
C890 C881 1.429 . S
C890 N887 1.350 . S
C890 C889 1.434 . S
C891 C892 1.369 . S
C891 C893 1.419 . S
C891 H895 0.930 . S
C892 C891 1.369 . S
C892 C901 1.429 . S
C893 C891 1.419 . S
C893 C894 1.363 . S
C893 H896 0.929 . S
C894 C893 1.363 . S
C894 C900 1.428 . S
H895 C891 0.930 . S
H896 C893 0.929 . S
S897 N898 1.613 . S
S897 N899 1.610 . S
N898 S897 1.613 . S
N898 C901 1.350 . S
N899 S897 1.610 . S
N899 C900 1.351 . S
C900 C894 1.428 . S
C900 N899 1.351 . S
C900 C901 1.434 . S
C901 C892 1.429 . S
C901 N898 1.350 . S
C901 C900 1.434 . S
C902 C903 1.369 . S
C902 C904 1.419 . S
C902 H906 0.930 . S
C903 C902 1.369 . S
C903 C912 1.429 . S
C904 C902 1.419 . S
C904 C905 1.363 . S
C904 H907 0.929 . S
C905 C904 1.363 . S
C905 C911 1.428 . S
H906 C902 0.930 . S
H907 C904 0.929 . S
S908 N909 1.613 . S
S908 N910 1.610 . S
N909 S908 1.613 . S
N909 C912 1.350 . S
N910 S908 1.610 . S
N910 C911 1.351 . S
C911 C905 1.428 . S
C911 N910 1.351 . S
C911 C912 1.434 . S
C912 C903 1.429 . S
C912 N909 1.350 . S
C912 C911 1.434 . S
C913 C914 1.369 . S
C913 C915 1.419 . S
C913 H917 0.930 . S
C914 C913 1.369 . S
C914 C923 1.429 . S
C915 C913 1.419 . S
C915 C916 1.363 . S
C915 H918 0.929 . S
C916 C915 1.363 . S
C916 C922 1.428 . S
H917 C913 0.930 . S
H918 C915 0.929 . S
S919 N920 1.613 . S
S919 N921 1.610 . S
N920 S919 1.613 . S
N920 C923 1.350 . S
N921 S919 1.610 . S
N921 C922 1.351 . S
C922 C916 1.428 . S
C922 N921 1.351 . S
C922 C923 1.434 . S
C923 C914 1.429 . S
C923 N920 1.350 . S
C923 C922 1.434 . S
C924 C925 1.369 . S
C924 C926 1.419 . S
C924 H928 0.930 . S
C925 C924 1.369 . S
C925 C934 1.429 . S
C926 C924 1.419 . S
C926 C927 1.363 . S
C926 H929 0.929 . S
C927 C926 1.363 . S
C927 C933 1.428 . S
H928 C924 0.930 . S
H929 C926 0.929 . S
S930 N931 1.613 . S
S930 N932 1.610 . S
N931 S930 1.613 . S
N931 C934 1.350 . S
N932 S930 1.610 . S
N932 C933 1.351 . S
C933 C927 1.428 . S
C933 N932 1.351 . S
C933 C934 1.434 . S
C934 C925 1.429 . S
C934 N931 1.350 . S
C934 C933 1.434 . S
C935 C936 1.369 . S
C935 C937 1.419 . S
C935 H939 0.930 . S
C936 C935 1.369 . S
C936 C945 1.429 . S
C937 C935 1.419 . S
C937 C938 1.363 . S
C937 H940 0.929 . S
C938 C937 1.363 . S
C938 C944 1.428 . S
H939 C935 0.930 . S
H940 C937 0.929 . S
S941 N942 1.613 . S
S941 N943 1.610 . S
N942 S941 1.613 . S
N942 C945 1.350 . S
N943 S941 1.610 . S
N943 C944 1.351 . S
C944 C938 1.428 . S
C944 N943 1.351 . S
C944 C945 1.434 . S
C945 C936 1.429 . S
C945 N942 1.350 . S
C945 C944 1.434 . S
C946 C947 1.369 . S
C946 C948 1.419 . S
C946 H950 0.930 . S
C947 C946 1.369 . S
C947 C956 1.429 . S
C948 C946 1.419 . S
C948 C949 1.363 . S
C948 H951 0.929 . S
C949 C948 1.363 . S
C949 C955 1.428 . S
H950 C946 0.930 . S
H951 C948 0.929 . S
S952 N953 1.613 . S
S952 N954 1.610 . S
N953 S952 1.613 . S
N953 C956 1.350 . S
N954 S952 1.610 . S
N954 C955 1.351 . S
C955 C949 1.428 . S
C955 N954 1.351 . S
C955 C956 1.434 . S
C956 C947 1.429 . S
C956 N953 1.350 . S
C956 C955 1.434 . S
C957 C958 1.369 . S
C957 C959 1.419 . S
C957 H961 0.930 . S
C958 C957 1.369 . S
C958 C967 1.429 . S
C959 C957 1.419 . S
C959 C960 1.363 . S
C959 H962 0.929 . S
C960 C959 1.363 . S
C960 C966 1.428 . S
H961 C957 0.930 . S
H962 C959 0.929 . S
S963 N964 1.613 . S
S963 N965 1.610 . S
N964 S963 1.613 . S
N964 C967 1.350 . S
N965 S963 1.610 . S
N965 C966 1.351 . S
C966 C960 1.428 . S
C966 N965 1.351 . S
C966 C967 1.434 . S
C967 C958 1.429 . S
C967 N964 1.350 . S
C967 C966 1.434 . S
C529 N146 1.570 . S
C531 N14 1.564 . S
C540 N179 1.571 . S
C542 N47 1.567 . S
C551 N80 1.571 . S
C553 N212 1.566 . S
C562 N245 1.563 . S
C564 N113 1.568 . S
C573 N410 1.569 . S
C575 N278 1.564 . S
C584 N311 1.564 . S
C586 N443 1.565 . S
C595 N344 1.571 . S
C597 N476 1.567 . S
C606 N377 1.571 . S
C608 N509 1.567 . S
C617 C8 1.934 . S
C619 C424 2.094 1_545 S
C628 C41 1.935 . S
C630 C457 2.093 . S
C639 C490 2.093 . S
C641 C74 1.936 . S
C650 C107 1.934 . S
C652 C523 2.094 1_455 S
C661 C292 2.097 . S
C663 C140 1.932 . S
C672 C325 2.092 1_455 S
C674 C173 1.937 . S
C683 C206 1.937 . S
C685 C358 2.092 1_545 S
C694 C391 2.090 . S
C696 C239 1.939 . S
C705 C272 1.933 . S
C707 C160 2.094 1_565 S
C716 C305 1.935 . S
C718 C193 2.093 . S
C727 C226 2.090 . S
C729 C338 1.940 . S
C738 C371 1.940 . S
C740 C259 2.090 1_655 S
C749 C404 1.933 . S
C751 C28 2.094 . S
C760 C437 1.931 . S
C762 C61 2.095 1_655 S
C771 C470 1.933 . S
C773 C94 2.095 1_565 S
C782 C127 2.092 . S
C784 C503 1.938 . S
C793 N236 1.873 . S
C795 N5 1.874 . S
C804 N38 1.876 . S
C806 N137 1.874 . S
C815 N170 1.875 . S
C817 N71 1.876 . S
C826 N203 1.875 . S
C828 N104 1.875 . S
C837 N269 1.874 . S
C839 N500 1.875 . S
C848 N401 1.876 . S
C850 N302 1.875 . S
C859 N335 1.875 . S
C861 N434 1.876 . S
C870 N467 1.873 . S
C872 N368 1.873 . S
C881 C83 0.810 . S
C883 C17 0.786 . S
C892 C116 0.812 . S
C894 C50 0.786 . S
C903 C149 0.809 . S
C905 C215 0.786 . S
C914 C248 0.799 . S
C916 C182 0.793 . S
C925 C281 0.803 . S
C927 C347 0.797 . S
C936 C380 0.788 . S
C938 C314 0.807 . S
C947 C413 0.802 . S
C949 C479 0.798 . S
C958 C446 0.813 . S
C960 C512 0.786 . S
