# Generated by pormake.
# Topology vma, (5)-cn, num edge types: 1
# Building blocks:
#     Node 0, Type 0, BuildingBlock: BEQFEK_clean_sbu_0, # of connection points: 5
#     Node 1, Type 0, BuildingBlock: BEQFEK_clean_sbu_0, # of connection points: 5
#     Node 2, Type 0, BuildingBlock: BEQFEK_clean_sbu_0, # of connection points: 5
#     Node 3, Type 0, BuildingBlock: BEQFEK_clean_sbu_0, # of connection points: 5
#     Node 4, Type 0, BuildingBlock: BEQFEK_clean_sbu_0, # of connection points: 5
#     Node 5, Type 0, BuildingBlock: BEQFEK_clean_sbu_0, # of connection points: 5
#     Node 6, Type 0, BuildingBlock: BEQFEK_clean_sbu_0, # of connection points: 5
#     Node 7, Type 0, BuildingBlock: BEQFEK_clean_sbu_0, # of connection points: 5
#     Edge 8, Type (0, 0), BuildingBlock: CIFDUS_clean_linker_0, # of connection points: 2
#     Edge 9, Type (0, 0), BuildingBlock: CIFDUS_clean_linker_0, # of connection points: 2
#     Edge 10, Type (0, 0), BuildingBlock: CIFDUS_clean_linker_0, # of connection points: 2
#     Edge 11, Type (0, 0), BuildingBlock: CIFDUS_clean_linker_0, # of connection points: 2
#     Edge 12, Type (0, 0), BuildingBlock: CIFDUS_clean_linker_0, # of connection points: 2
#     Edge 13, Type (0, 0), BuildingBlock: CIFDUS_clean_linker_0, # of connection points: 2
#     Edge 14, Type (0, 0), BuildingBlock: CIFDUS_clean_linker_0, # of connection points: 2
#     Edge 15, Type (0, 0), BuildingBlock: CIFDUS_clean_linker_0, # of connection points: 2
#     Edge 16, Type (0, 0), BuildingBlock: CIFDUS_clean_linker_0, # of connection points: 2
#     Edge 17, Type (0, 0), BuildingBlock: CIFDUS_clean_linker_0, # of connection points: 2
#     Edge 18, Type (0, 0), BuildingBlock: CIFDUS_clean_linker_0, # of connection points: 2
#     Edge 19, Type (0, 0), BuildingBlock: CIFDUS_clean_linker_0, # of connection points: 2
#     Edge 20, Type (0, 0), BuildingBlock: CIFDUS_clean_linker_0, # of connection points: 2
#     Edge 21, Type (0, 0), BuildingBlock: CIFDUS_clean_linker_0, # of connection points: 2
#     Edge 22, Type (0, 0), BuildingBlock: CIFDUS_clean_linker_0, # of connection points: 2
#     Edge 23, Type (0, 0), BuildingBlock: CIFDUS_clean_linker_0, # of connection points: 2
#     Edge 24, Type (0, 0), BuildingBlock: CIFDUS_clean_linker_0, # of connection points: 2
#     Edge 25, Type (0, 0), BuildingBlock: CIFDUS_clean_linker_0, # of connection points: 2
#     Edge 26, Type (0, 0), BuildingBlock: CIFDUS_clean_linker_0, # of connection points: 2
#     Edge 27, Type (0, 0), BuildingBlock: CIFDUS_clean_linker_0, # of connection points: 2
# Relax obj value: 0.014
# Max RMSD: 0.084
# Mean RMSD: 0.084
data_MOF--net-vma--node1-BEQFEK_clean_sbu_0--edge1-CIFDUS_clean_linker_0
_symmetry_space_group_name_H-M    P1
_symmetry_Int_Tables_number       1
_symmetry_cell_setting            triclinic
loop_
_symmetry_equiv_pos_as_xyz
'x, y, z'
_cell_length_a     33.108221
_cell_length_b     26.108626
_cell_length_c     38.005417
_cell_angle_alpha  89.734783
_cell_angle_beta   96.225696
_cell_angle_gamma 90.143914
loop_
_atom_site_label
_atom_site_type_symbol
_atom_site_fract_x
_atom_site_fract_y
_atom_site_fract_z
_atom_type_partial_charge
Co0 Co 0.39165 0.13591 0.37236 0.0
Co1 Co 0.32841 0.18883 0.31671 0.0
C2 C 0.41984 0.1974 0.31455 0.0
O3 O 0.42754 0.17244 0.34325 0.0
O4 O 0.38336 0.20497 0.30096 0.0
C5 C 0.46119 0.11309 0.42235 0.0
O6 O 0.47948 0.14926 0.40586 0.0
C7 C 0.28911 0.27956 0.28146 0.0
C8 C 0.23364 0.24562 0.25331 0.0
C9 C 0.25428 0.29165 0.25905 0.0
N10 N 0.28869 0.229 0.28859 0.0
N11 N 0.25539 0.20903 0.27174 0.0
C12 C 0.32334 0.3145 0.29454 0.0
H13 H 0.35094 0.29236 0.3039 0.0
H14 H 0.31461 0.33695 0.31722 0.0
H15 H 0.33007 0.34159 0.27334 0.0
C16 C 0.34712 0.19398 0.42186 0.0
N17 N 0.35372 0.18088 0.38879 0.0
N18 N 0.32616 0.20244 0.36593 0.0
C19 C 0.30029 0.22906 0.38401 0.0
C20 C 0.31281 0.22468 0.4201 0.0
C21 C 0.37429 0.1787 0.45426 0.0
H22 H 0.36943 0.13756 0.45997 0.0
H23 H 0.40645 0.18394 0.4494 0.0
H24 H 0.3685 0.2018 0.4776 0.0
O25 O 0.36409 0.07957 0.34456 0.0
O26 O 0.31601 0.11508 0.30703 0.0
H27 H 0.2482 0.23032 0.34514 0.0
H28 H 0.23993 0.25934 0.38677 0.0
C29 C 0.26224 0.25401 0.36733 0.0
H30 H 0.26986 0.29203 0.35672 0.0
H31 H 0.24767 0.17031 0.27259 0.0
O32 O 0.42423 0.10255 0.41249 0.0
C33 C 0.33463 0.07564 0.32025 0.0
Co34 Co 0.61869 0.12279 0.13114 0.0
Co35 Co 0.68019 0.176 0.18776 0.0
C36 C 0.58915 0.18993 0.18546 0.0
O37 O 0.58233 0.16275 0.15781 0.0
O38 O 0.62524 0.19736 0.19996 0.0
C39 C 0.55272 0.10993 0.0762 0.0
O40 O 0.53983 0.15368 0.08771 0.0
C41 C 0.72054 0.26629 0.22095 0.0
C42 C 0.77315 0.23206 0.25321 0.0
C43 C 0.75477 0.27879 0.24413 0.0
N44 N 0.71937 0.21516 0.21674 0.0
N45 N 0.75073 0.19489 0.23626 0.0
C46 C 0.69034 0.3014 0.20117 0.0
H47 H 0.6729 0.28088 0.17892 0.0
H48 H 0.70594 0.33496 0.19071 0.0
H49 H 0.66857 0.315 0.21928 0.0
C50 C 0.67051 0.1728 0.08256 0.0
N51 N 0.65998 0.16407 0.11528 0.0
N52 N 0.68662 0.18597 0.13876 0.0
C53 C 0.71555 0.20867 0.12157 0.0
C54 C 0.70604 0.20142 0.08537 0.0
C55 C 0.64893 0.14993 0.04966 0.0
H56 H 0.64577 0.108 0.05336 0.0
H57 H 0.61798 0.16647 0.04489 0.0
H58 H 0.66533 0.15701 0.02616 0.0
O59 O 0.64253 0.06603 0.16129 0.0
O60 O 0.68879 0.10224 0.2002 0.0
H61 H 0.76589 0.21252 0.16203 0.0
H62 H 0.77489 0.24428 0.12116 0.0
C63 C 0.75191 0.2359 0.13952 0.0
H64 H 0.74215 0.27281 0.15001 0.0
H65 H 0.75703 0.15574 0.23774 0.0
O66 O 0.58568 0.09086 0.09076 0.0
C67 C 0.67022 0.06266 0.18722 0.0
Co68 Co 0.61879 0.90291 0.62879 0.0
Co69 Co 0.67999 0.84376 0.68302 0.0
C70 C 0.58875 0.84466 0.68741 0.0
O71 O 0.58191 0.8708 0.65917 0.0
O72 O 0.62486 0.83295 0.69997 0.0
C73 C 0.54944 0.92881 0.57992 0.0
O74 O 0.53144 0.89149 0.59555 0.0
C75 C 0.7118 0.74466 0.71035 0.0
C76 C 0.76786 0.76661 0.74365 0.0
C77 C 0.74445 0.72445 0.73218 0.0
N78 N 0.71607 0.79596 0.70888 0.0
N79 N 0.7497 0.80878 0.72883 0.0
C80 C 0.67592 0.71641 0.69251 0.0
H81 H 0.65032 0.74293 0.68504 0.0
H82 H 0.68434 0.69848 0.66795 0.0
H83 H 0.66625 0.68568 0.71009 0.0
C84 C 0.65975 0.84466 0.57758 0.0
N85 N 0.65282 0.85457 0.61107 0.0
N86 N 0.68007 0.83105 0.63317 0.0
C87 C 0.70593 0.80598 0.61409 0.0
C88 C 0.69378 0.81381 0.57825 0.0
C89 C 0.63506 0.86626 0.54563 0.0
H90 H 0.60231 0.86079 0.54828 0.0
H91 H 0.64226 0.84749 0.52095 0.0
H92 H 0.64104 0.90798 0.54389 0.0
O93 O 0.65258 0.95552 0.65482 0.0
O94 O 0.69777 0.91676 0.69352 0.0
H95 H 0.75809 0.80312 0.65292 0.0
H96 H 0.76691 0.77884 0.60991 0.0
C97 C 0.74458 0.78121 0.62962 0.0
H98 H 0.73792 0.74181 0.63833 0.0
H99 H 0.76016 0.84633 0.73247 0.0
O100 O 0.58642 0.93914 0.58983 0.0
C101 C 0.68246 0.95754 0.67888 0.0
Co102 Co 0.38373 0.90294 0.87393 0.0
Co103 Co 0.32687 0.83773 0.82009 0.0
C104 C 0.41788 0.84426 0.81744 0.0
O105 O 0.42267 0.87201 0.84493 0.0
O106 O 0.38265 0.8295 0.80454 0.0
C107 C 0.45073 0.92556 0.92482 0.0
O108 O 0.46551 0.88377 0.91203 0.0
C109 C 0.29735 0.73878 0.79096 0.0
C110 C 0.23941 0.76032 0.76021 0.0
C111 C 0.26415 0.71865 0.7699 0.0
N112 N 0.29206 0.78964 0.79383 0.0
N113 N 0.25741 0.80226 0.77531 0.0
C114 C 0.33446 0.71094 0.80686 0.0
H115 H 0.36003 0.73787 0.81339 0.0
H116 H 0.32798 0.6919 0.83178 0.0
H117 H 0.34333 0.68115 0.78844 0.0
C118 C 0.34418 0.83994 0.92545 0.0
N119 N 0.35056 0.85239 0.89206 0.0
N120 N 0.32569 0.82582 0.86971 0.0
C121 C 0.30181 0.79651 0.88834 0.0
C122 C 0.31298 0.80414 0.92427 0.0
C123 C 0.36819 0.86148 0.95767 0.0
H124 H 0.36218 0.90315 0.9592 0.0
H125 H 0.40101 0.85631 0.95544 0.0
H126 H 0.36086 0.84238 0.98231 0.0
O127 O 0.34987 0.95395 0.84512 0.0
O128 O 0.30722 0.90853 0.8082 0.0
H129 H 0.25074 0.78737 0.8489 0.0
H130 H 0.24328 0.76084 0.89159 0.0
C131 C 0.26573 0.76679 0.8723 0.0
H132 H 0.2758 0.72877 0.86385 0.0
H133 H 0.24598 0.83949 0.77309 0.0
O134 O 0.41538 0.94049 0.91278 0.0
C135 C 0.32055 0.95148 0.82048 0.0
Co136 Co 0.877 0.60711 0.36727 0.0
Co137 Co 0.82021 0.67514 0.31513 0.0
C138 C 0.91211 0.67265 0.3149 0.0
O139 O 0.9171 0.64274 0.34151 0.0
O140 O 0.87675 0.68681 0.30182 0.0
C141 C 0.94248 0.56343 0.41474 0.0
O142 O 0.96676 0.59022 0.39656 0.0
C143 C 0.79023 0.77503 0.28823 0.0
C144 C 0.73569 0.75351 0.25273 0.0
C145 C 0.75868 0.79559 0.2651 0.0
N146 N 0.78576 0.72383 0.2891 0.0
N147 N 0.75315 0.7112 0.26779 0.0
C148 C 0.82319 0.80263 0.31069 0.0
H149 H 0.83673 0.77741 0.3324 0.0
H150 H 0.81109 0.83779 0.32202 0.0
H151 H 0.84758 0.81349 0.29423 0.0
C152 C 0.83467 0.66153 0.41988 0.0
N153 N 0.84229 0.65415 0.38624 0.0
N154 N 0.81714 0.68193 0.36486 0.0
C155 C 0.79182 0.70703 0.38442 0.0
C156 C 0.80217 0.69486 0.41996 0.0
C157 C 0.85843 0.63713 0.4513 0.0
H158 H 0.89135 0.63958 0.44843 0.0
H159 H 0.85269 0.65607 0.47634 0.0
H160 H 0.84994 0.59607 0.45257 0.0
O161 O 0.84523 0.55838 0.33542 0.0
O162 O 0.80178 0.60519 0.30013 0.0
H163 H 0.74224 0.71994 0.34407 0.0
H164 H 0.73235 0.73943 0.38791 0.0
C165 C 0.75576 0.73738 0.36917 0.0
H166 H 0.76564 0.7769 0.36351 0.0
H167 H 0.74284 0.67369 0.26351 0.0
O168 O 0.90437 0.56532 0.40619 0.0
C169 C 0.81612 0.56186 0.31071 0.0
Co170 Co 0.13032 0.62365 0.13876 0.0
Co171 Co 0.1819 0.68918 0.19628 0.0
C172 C 0.09024 0.68176 0.19235 0.0
O173 O 0.08782 0.65351 0.16501 0.0
O174 O 0.12444 0.69759 0.20698 0.0
C175 C 0.06689 0.58283 0.08834 0.0
O176 O 0.0422 0.60718 0.10727 0.0
C177 C 0.2093 0.78752 0.22725 0.0
C178 C 0.26314 0.76498 0.26333 0.0
C179 C 0.24032 0.80732 0.25116 0.0
N180 N 0.21404 0.73647 0.22553 0.0
N181 N 0.24607 0.72318 0.24734 0.0
C182 C 0.17701 0.81597 0.20452 0.0
H183 H 0.16377 0.79156 0.18235 0.0
H184 H 0.18962 0.85152 0.19384 0.0
H185 H 0.15228 0.82641 0.22063 0.0
C186 C 0.17348 0.68802 0.09103 0.0
N187 N 0.16477 0.67499 0.12367 0.0
N188 N 0.1881 0.70123 0.1474 0.0
C189 C 0.21338 0.73091 0.13042 0.0
C190 C 0.20477 0.72373 0.09412 0.0
C191 C 0.15142 0.66723 0.05765 0.0
H192 H 0.16172 0.62746 0.05368 0.0
H193 H 0.11833 0.66619 0.05996 0.0
H194 H 0.15687 0.69087 0.03429 0.0
O195 O 0.16245 0.57298 0.16918 0.0
O196 O 0.19978 0.61848 0.20992 0.0
H197 H 0.26027 0.74219 0.17344 0.0
H198 H 0.27267 0.76587 0.13119 0.0
C199 C 0.24795 0.7613 0.14849 0.0
H200 H 0.23698 0.79995 0.15472 0.0
H201 H 0.25661 0.68568 0.25095 0.0
O202 O 0.10497 0.58514 0.09722 0.0
C203 C 0.18872 0.57551 0.19623 0.0
Co204 Co 0.12861 0.39078 0.63326 0.0
Co205 Co 0.18638 0.33902 0.6939 0.0
C206 C 0.09414 0.33719 0.6918 0.0
O207 O 0.089 0.36098 0.66238 0.0
O208 O 0.12966 0.32693 0.7067 0.0
C209 C 0.06322 0.42137 0.58021 0.0
O210 O 0.03891 0.39715 0.59981 0.0
C211 C 0.22382 0.24785 0.73011 0.0
C212 C 0.27347 0.28269 0.76555 0.0
C213 C 0.2563 0.23567 0.75543 0.0
N214 N 0.22258 0.29908 0.72573 0.0
N215 N 0.25216 0.31963 0.7472 0.0
C216 C 0.1953 0.21237 0.70888 0.0
H217 H 0.17832 0.23306 0.6864 0.0
H218 H 0.21226 0.18 0.6987 0.0
H219 H 0.17295 0.1969 0.72593 0.0
C220 C 0.17404 0.326 0.58895 0.0
N221 N 0.16552 0.34127 0.62103 0.0
N222 N 0.192 0.32146 0.64563 0.0
C223 C 0.21934 0.29407 0.62956 0.0
C224 C 0.20872 0.29601 0.5931 0.0
C225 C 0.14896 0.33971 0.55505 0.0
H226 H 0.15597 0.37965 0.5476 0.0
H227 H 0.11624 0.33741 0.55876 0.0
H228 H 0.15504 0.31367 0.53326 0.0
O229 O 0.15813 0.44759 0.65881 0.0
O230 O 0.20013 0.41291 0.7018 0.0
H231 H 0.26759 0.29387 0.6723 0.0
H232 H 0.28205 0.27134 0.63052 0.0
C233 C 0.25744 0.27167 0.64816 0.0
H234 H 0.25152 0.23156 0.65583 0.0
H235 H 0.25811 0.35886 0.74899 0.0
O236 O 0.10113 0.42241 0.58987 0.0
C237 C 0.18542 0.45211 0.68491 0.0
Co238 Co 0.88122 0.40117 0.87347 0.0
Co239 Co 0.82566 0.34375 0.81392 0.0
C240 C 0.91809 0.34654 0.81713 0.0
O241 O 0.92228 0.37117 0.84608 0.0
O242 O 0.88296 0.33507 0.80203 0.0
C243 C 0.94601 0.43614 0.92543 0.0
O244 O 0.97038 0.41113 0.90653 0.0
C245 C 0.79789 0.24522 0.78265 0.0
C246 C 0.74177 0.2666 0.74921 0.0
C247 C 0.76578 0.22482 0.76036 0.0
N248 N 0.79257 0.29624 0.78495 0.0
N249 N 0.75905 0.30875 0.76471 0.0
C250 C 0.83376 0.21722 0.80082 0.0
H251 H 0.85952 0.24371 0.80768 0.0
H252 H 0.82553 0.19995 0.82578 0.0
H253 H 0.84322 0.18606 0.78372 0.0
C254 C 0.8351 0.33838 0.91941 0.0
N255 N 0.84518 0.35116 0.88715 0.0
N256 N 0.82014 0.32875 0.86267 0.0
C257 C 0.79244 0.30179 0.8788 0.0
C258 C 0.80131 0.30663 0.91528 0.0
C259 C 0.85435 0.36171 0.95308 0.0
H260 H 0.84888 0.40362 0.95227 0.0
H261 H 0.88767 0.35548 0.9553 0.0
H262 H 0.84204 0.34556 0.97674 0.0
O263 O 0.85002 0.45441 0.8452 0.0
O264 O 0.80869 0.41683 0.80297 0.0
H265 H 0.74279 0.29852 0.83762 0.0
H266 H 0.73373 0.26406 0.87747 0.0
C267 C 0.75688 0.27435 0.85966 0.0
H268 H 0.76748 0.2384 0.84842 0.0
H269 H 0.7477 0.34596 0.76181 0.0
O270 O 0.90804 0.43618 0.91586 0.0
C271 C 0.82265 0.45718 0.81896 0.0
H272 H 0.23046 0.34701 0.53596 0.0
H273 H 0.23704 0.19893 0.58677 0.0
H274 H 0.26998 0.16347 0.5375 0.0
H275 H 0.29424 0.17421 0.47881 0.0
H276 H 0.28758 0.32255 0.42826 0.0
H277 H 0.25589 0.35818 0.47804 0.0
C278 C 0.23895 0.30691 0.53609 0.0
C279 C 0.23105 0.27536 0.56462 0.0
C280 C 0.25727 0.28687 0.50756 0.0
C281 C 0.24298 0.22383 0.56503 0.0
C282 C 0.26151 0.20356 0.53681 0.0
C283 C 0.28616 0.21444 0.47893 0.0
C284 C 0.29321 0.24585 0.45006 0.0
C285 C 0.26844 0.23464 0.50779 0.0
C286 C 0.28206 0.29765 0.45013 0.0
C287 C 0.26423 0.31804 0.47864 0.0
H288 H 0.68003 0.25955 0.02853 0.0
H289 H 0.78413 0.1767 0.07678 0.0
H290 H 0.82271 0.20093 0.02775 0.0
H291 H 0.82663 0.24598 0.97101 0.0
H292 H 0.72272 0.32948 0.92308 0.0
H293 H 0.68378 0.30407 0.97161 0.0
C294 C 0.7112 0.24699 0.02817 0.0
C295 C 0.72958 0.2171 0.05623 0.0
C296 C 0.73291 0.2607 0.99979 0.0
C297 C 0.76979 0.2006 0.05565 0.0
C298 C 0.79168 0.21411 0.02756 0.0
C299 C 0.79537 0.25824 0.97127 0.0
C300 C 0.77721 0.28884 0.94351 0.0
C301 C 0.77354 0.24416 0.9995 0.0
C302 C 0.7369 0.30504 0.94396 0.0
C303 C 0.71482 0.29089 0.97179 0.0
H304 H 0.71513 0.71885 0.55892 0.0
H305 H 0.72101 0.87804 0.52964 0.0
H306 H 0.75434 0.85551 0.47742 0.0
H307 H 0.7817 0.79011 0.43988 0.0
H308 H 0.77467 0.63077 0.46863 0.0
H309 H 0.74204 0.6534 0.52113 0.0
C310 C 0.72399 0.74841 0.5411 0.0
C311 C 0.71558 0.79984 0.54777 0.0
C312 C 0.74281 0.73509 0.51103 0.0
C313 C 0.72695 0.83808 0.52465 0.0
C314 C 0.74599 0.82524 0.49487 0.0
C315 C 0.77272 0.76051 0.4576 0.0
C316 C 0.78077 0.709 0.45071 0.0
C317 C 0.75387 0.77384 0.48767 0.0
C318 C 0.76921 0.67079 0.47379 0.0
C319 C 0.75049 0.68367 0.50372 0.0
H320 H 0.28512 0.85372 0.97947 0.0
H321 H 0.29817 0.70344 0.93572 0.0
H322 H 0.26623 0.66498 0.98471 0.0
H323 H 0.23481 0.67428 0.0401 0.0
H324 H 0.22168 0.82445 0.08397 0.0
H325 H 0.25453 0.86289 0.03544 0.0
C326 C 0.28135 0.81252 0.98098 0.0
C327 C 0.29414 0.7813 0.95429 0.0
C328 C 0.2632 0.79078 0.0093 0.0
C329 C 0.2884 0.72811 0.95601 0.0
C330 C 0.2703 0.70616 0.98402 0.0
C331 C 0.23895 0.71544 0.03883 0.0
C332 C 0.22567 0.74664 0.0653 0.0
C333 C 0.25753 0.73714 0.01077 0.0
C334 C 0.23185 0.79977 0.06387 0.0
C335 C 0.25042 0.82172 0.03608 0.0
H336 H 0.58812 0.21474 0.25474 0.0
H337 H 0.51079 0.20207 0.1562 0.0
H338 H 0.45068 0.2121 0.18744 0.0
H339 H 0.42002 0.21084 0.24353 0.0
H340 H 0.49763 0.21643 0.34225 0.0
H341 H 0.55744 0.2236 0.31026 0.0
C342 C 0.55818 0.21546 0.23999 0.0
C343 C 0.55395 0.20706 0.20327 0.0
C344 C 0.52364 0.21935 0.25828 0.0
C345 C 0.51488 0.20791 0.18457 0.0
C346 C 0.48044 0.21349 0.20242 0.0
C347 C 0.44994 0.21495 0.258 0.0
C348 C 0.45443 0.21254 0.29517 0.0
C349 C 0.4844 0.21717 0.23942 0.0
C350 C 0.49342 0.21761 0.31359 0.0
C351 C 0.52767 0.22159 0.29532 0.0
H352 H 0.58813 0.83449 0.75859 0.0
H353 H 0.51081 0.82701 0.65984 0.0
H354 H 0.45094 0.81905 0.69175 0.0
H355 H 0.41992 0.82454 0.74747 0.0
H356 H 0.49687 0.83974 0.84599 0.0
H357 H 0.55727 0.83379 0.81465 0.0
C358 C 0.55824 0.83001 0.74414 0.0
C359 C 0.55386 0.83151 0.70696 0.0
C360 C 0.52374 0.82738 0.76267 0.0
C361 C 0.51491 0.82628 0.68851 0.0
C362 C 0.48064 0.82183 0.70673 0.0
C363 C 0.44991 0.82553 0.76212 0.0
C364 C 0.45389 0.83285 0.79894 0.0
C365 C 0.48456 0.82389 0.74379 0.0
C366 C 0.49299 0.83453 0.81755 0.0
C367 C 0.52757 0.83119 0.79966 0.0
H368 H 0.08436 0.69804 0.26202 0.0
H369 H 0.01225 0.68587 0.16085 0.0
H370 H 0.94994 0.68958 0.18991 0.0
H371 H 0.91624 0.68633 0.24455 0.0
H372 H 0.98896 0.68909 0.34576 0.0
H373 H 0.0506 0.69967 0.31639 0.0
C374 C 0.055 0.69726 0.2463 0.0
C375 C 0.0529 0.69166 0.20936 0.0
C376 C 0.01936 0.69732 0.2633 0.0
C377 C 0.01463 0.68997 0.18936 0.0
C378 C 0.97901 0.69199 0.20596 0.0
C379 C 0.94552 0.69038 0.26011 0.0
C380 C 0.94812 0.68703 0.29722 0.0
C381 C 0.981 0.69423 0.24299 0.0
C382 C 0.98628 0.69145 0.31713 0.0
C383 C 0.02152 0.69737 0.30035 0.0
H384 H 0.09063 0.32966 0.76275 0.0
H385 H 0.01631 0.32216 0.6624 0.0
H386 H 0.95503 0.31813 0.69277 0.0
H387 H 0.92229 0.32635 0.74743 0.0
H388 H 0.99652 0.34094 0.84747 0.0
H389 H 0.05791 0.33217 0.81776 0.0
C390 C 0.06107 0.32605 0.74759 0.0
C391 C 0.05802 0.32631 0.71039 0.0
C392 C 0.02584 0.32563 0.76519 0.0
C393 C 0.01945 0.32227 0.69107 0.0
C394 C 0.98438 0.3201 0.70842 0.0
C395 C 0.95187 0.32675 0.76281 0.0
C396 C 0.95478 0.33462 0.79958 0.0
C397 C 0.98713 0.32324 0.74542 0.0
C398 C 0.9934 0.33538 0.81908 0.0
C399 C 0.02856 0.33038 0.80211 0.0
H400 H 0.31407 0.84433 0.27578 0.0
H401 H 0.18938 0.89199 0.25135 0.0
H402 H 0.20815 0.97953 0.26761 0.0
H403 H 0.25998 0.04283 0.29094 0.0
H404 H 0.38305 0.99214 0.32039 0.0
H405 H 0.36474 0.90577 0.3005 0.0
C406 C 0.29083 0.87372 0.27394 0.0
C407 C 0.25053 0.86131 0.26116 0.0
C408 C 0.30156 0.92374 0.28458 0.0
C409 C 0.22097 0.90017 0.25942 0.0
C410 C 0.2316 0.95045 0.26929 0.0
C411 C 0.28276 0.01287 0.29276 0.0
C412 C 0.32282 0.02392 0.30706 0.0
C413 C 0.27183 0.96271 0.28197 0.0
C414 C 0.35195 0.98461 0.30966 0.0
C415 C 0.34155 0.93518 0.29824 0.0
H416 H 0.74291 0.03008 0.22049 0.0
H417 H 0.62035 0.98008 0.18755 0.0
H418 H 0.63666 0.89435 0.2105 0.0
H419 H 0.68578 0.83311 0.23835 0.0
H420 H 0.81032 0.8802 0.2657 0.0
H421 H 0.79298 0.96724 0.24728 0.0
C422 C 0.71976 1.00045 0.21861 0.0
C423 C 0.68047 0.01144 0.2024 0.0
C424 C 0.72961 0.95068 0.2311 0.0
C425 C 0.65089 0.97254 0.19974 0.0
C426 C 0.66015 0.92351 0.21291 0.0
C427 C 0.70928 0.86229 0.24044 0.0
C428 C 0.74911 0.84971 0.25462 0.0
C429 C 0.69948 0.91205 0.22835 0.0
C430 C 0.77901 0.88836 0.25661 0.0
C431 C 0.76924 0.93842 0.24545 0.0
H432 H 0.72842 0.98717 0.74034 0.0
H433 H 0.67388 0.04419 0.63939 0.0
H434 H 0.69628 0.13047 0.65519 0.0
H435 H 0.7287 0.19101 0.69812 0.0
H436 H 0.78048 0.13669 0.80043 0.0
H437 H 0.76251 0.04884 0.78354 0.0
C438 C 0.72181 0.01844 0.72175 0.0
C439 C 0.69922 1.00899 0.68882 0.0
C440 C 0.7344 0.06875 0.73117 0.0
C441 C 0.69079 0.05015 0.66509 0.0
C442 C 0.70365 0.09971 0.67403 0.0
C443 C 0.73629 0.15994 0.7167 0.0
C444 C 0.75682 0.17063 0.75018 0.0
C445 C 0.72498 0.1096 0.70712 0.0
C446 C 0.76611 0.1298 0.77398 0.0
C447 C 0.75529 0.07936 0.76449 0.0
H448 H 0.21864 0.13977 0.75505 0.0
H449 H 0.33205 0.21722 0.78761 0.0
H450 H 0.36122 0.13733 0.81105 0.0
H451 H 0.35542 0.04548 0.82204 0.0
H452 H 0.24444 0.96598 0.78568 0.0
H453 H 0.21401 0.04661 0.76288 0.0
C454 C 0.25002 0.13949 0.76616 0.0
C455 C 0.27303 0.18516 0.76867 0.0
C456 C 0.26724 0.0928 0.779 0.0
C457 C 0.31327 0.18313 0.78508 0.0
C458 C 0.33021 0.13726 0.7985 0.0
C459 C 0.32453 0.04572 0.80916 0.0
C460 C 0.30216 0.99982 0.80579 0.0
C461 C 0.30753 0.0919 0.7956 0.0
C462 C 0.26236 1.00078 0.7886 0.0
C463 C 0.24492 0.0469 0.77563 0.0
H464 H 0.85403 0.47097 0.30636 0.0
H465 H 0.7388 0.54578 0.27923 0.0
H466 H 0.709 0.46484 0.25656 0.0
H467 H 0.71526 0.37236 0.24755 0.0
H468 H 0.83243 0.29978 0.27042 0.0
H469 H 0.86149 0.38027 0.29283 0.0
C470 C 0.8224 0.46962 0.29538 0.0
C471 C 0.79856 0.51414 0.29471 0.0
C472 C 0.80572 0.42332 0.28198 0.0
C473 C 0.7578 0.51199 0.27997 0.0
C474 C 0.74073 0.46569 0.26716 0.0
C475 C 0.74737 0.37397 0.25614 0.0
C476 C 0.77152 0.32952 0.25641 0.0
C477 C 0.76438 0.42098 0.26825 0.0
C478 C 0.81282 0.33299 0.26974 0.0
C479 C 0.82966 0.37917 0.28251 0.0
H480 H 0.18013 0.47942 0.16921 0.0
H481 H 0.23584 0.56299 0.25962 0.0
H482 H 0.26147 0.4829 0.28703 0.0
H483 H 0.26553 0.38891 0.28629 0.0
H484 H 0.2114 0.30616 0.19496 0.0
H485 H 0.18684 0.38627 0.16736 0.0
C486 C 0.19797 0.48029 0.19489 0.0
C487 C 0.20586 0.52728 0.21234 0.0
C488 C 0.21269 0.43419 0.21046 0.0
C489 C 0.22927 0.52746 0.24552 0.0
C490 C 0.24388 0.48162 0.26127 0.0
C491 C 0.24944 0.3883 0.25998 0.0
C492 C 0.24113 0.34139 0.2425 0.0
C493 C 0.23561 0.4347 0.24405 0.0
C494 C 0.21837 0.34162 0.20903 0.0
C495 C 0.20437 0.38746 0.19315 0.0
H496 H 0.23152 0.48149 0.74578 0.0
H497 H 0.17092 0.54059 0.64761 0.0
H498 H 0.19114 0.62725 0.6649 0.0
H499 H 0.22429 0.68694 0.70823 0.0
H500 H 0.28212 0.62949 0.8077 0.0
H501 H 0.26533 0.54195 0.78937 0.0
C502 C 0.22297 0.51329 0.72809 0.0
C503 C 0.19959 0.50433 0.69549 0.0
C504 C 0.23439 0.56351 0.73833 0.0
C505 C 0.18867 0.54616 0.67297 0.0
C506 C 0.20025 0.59589 0.68279 0.0
C507 C 0.23337 0.65526 0.72588 0.0
C508 C 0.25535 0.66491 0.75893 0.0
C509 C 0.22279 0.60507 0.71549 0.0
C510 C 0.26661 0.62337 0.78156 0.0
C511 C 0.25649 0.57315 0.77127 0.0
H512 H 0.78118 0.69143 0.79492 0.0
H513 H 0.72967 0.63575 0.69317 0.0
H514 H 0.74658 0.54796 0.71154 0.0
H515 H 0.77895 0.48665 0.75617 0.0
H516 H 0.8325 0.54499 0.85682 0.0
H517 H 0.81213 0.63134 0.83913 0.0
C518 C 0.77351 0.66011 0.77674 0.0
C519 C 0.75337 0.67039 0.74298 0.0
C520 C 0.784 0.6098 0.78725 0.0
C521 C 0.74386 0.62919 0.71976 0.0
C522 C 0.75402 0.5788 0.73013 0.0
C523 C 0.78586 0.51822 0.77428 0.0
C524 C 0.80749 0.509 0.80773 0.0
C525 C 0.77431 0.56857 0.76381 0.0
C526 C 0.81626 0.55062 0.83079 0.0
C527 C 0.80457 0.60027 0.82075 0.0
H528 H 0.43205 0.03554 0.46016 0.0
H529 H 0.54003 0.1255 0.45074 0.0
H530 H 0.57678 0.07623 0.49871 0.0
H531 H 0.57835 1.00734 0.5428 0.0
H532 H 0.47038 0.91724 0.55202 0.0
H533 H 0.43353 0.96694 0.50437 0.0
C534 C 0.46362 0.04448 0.46859 0.0
C535 C 0.48328 0.08411 0.45185 0.0
C536 C 0.48457 0.01594 0.49603 0.0
C537 C 0.52417 0.09517 0.46315 0.0
C538 C 0.54523 0.067 0.49055 0.0
C539 C 0.54675 0.99852 0.53443 0.0
C540 C 0.52715 0.95862 0.55096 0.0
C541 C 0.52574 0.02723 0.50708 0.0
C542 C 0.48621 0.94773 0.53975 0.0
C543 C 0.46509 0.97614 0.51252 0.0
H544 H 0.57289 0.02142 0.04546 0.0
H545 H 0.47904 0.13652 0.04138 0.0
H546 H 0.43913 0.0895 0.99418 0.0
H547 H 0.43065 0.01528 0.95458 0.0
H548 H 0.52488 0.90061 0.95883 0.0
H549 H 0.56481 0.948 0.00564 0.0
C550 C 0.54372 0.03633 0.03427 0.0
C551 C 0.52894 0.08236 0.04701 0.0
C552 C 0.52094 1.00914 0.00725 0.0
C553 C 0.49115 0.10117 0.03208 0.0
C554 C 0.46826 0.07427 0.00512 0.0
C555 C 0.45991 1.00061 0.96575 0.0
C556 C 0.4747 0.95442 0.95325 0.0
C557 C 0.48281 0.02813 0.99261 0.0
C558 C 0.51273 0.93605 0.96795 0.0
C559 C 0.53562 0.96312 0.99473 0.0
H560 H 0.9841 0.43027 0.5528 0.0
H561 H 0.10598 0.47315 0.53386 0.0
H562 H 0.07949 0.52 0.48076 0.0
H563 H 0.02176 0.55039 0.44029 0.0
H564 H 0.89985 0.50781 0.45927 0.0
H565 H 0.92642 0.45925 0.51162 0.0
C566 C 0.00489 0.44972 0.53702 0.0
C567 C 0.04691 0.44832 0.54743 0.0
C568 C 0.98949 0.47676 0.50649 0.0
C569 C 0.07343 0.4737 0.52658 0.0
C570 C 0.05834 0.50056 0.49617 0.0
C571 C 1.00099 0.53039 0.45581 0.0
C572 C 0.95891 0.53285 0.44586 0.0
C573 C 0.01642 0.5026 0.48598 0.0
C574 C 0.93243 0.50661 0.46628 0.0
C575 C 0.94756 0.47882 0.49628 0.0
H576 H 0.98771 0.56874 0.06298 0.0
H577 H 0.10981 0.52986 0.04297 0.0
H578 H 0.08322 0.48052 0.99116 0.0
H579 H 0.02534 0.44879 0.95128 0.0
H580 H 0.90331 0.4881 0.97132 0.0
H581 H 0.92994 0.53677 0.02335 0.0
C582 C 0.00854 0.5495 0.04731 0.0
C583 C 0.05067 0.55302 0.0569 0.0
C584 C 0.99308 0.52121 0.01752 0.0
C585 C 0.07721 0.52779 0.03625 0.0
C586 C 0.06205 0.49953 0.00658 0.0
C587 C 0.00455 0.46791 0.96705 0.0
C588 C 0.96242 0.46482 0.95733 0.0
C589 C 0.02004 0.49601 0.99695 0.0
C590 C 0.93592 0.48989 0.9781 0.0
C591 C 0.95109 0.51777 0.0079 0.0
loop_
_geom_bond_atom_site_label_1
_geom_bond_atom_site_label_2
_geom_bond_distance
_geom_bond_site_symmetry_2
_ccdc_geom_bond_type
Co0 O3 1.970 . S
Co0 N17 1.989 . S
Co0 O25 1.967 . S
Co0 O32 1.920 . S
Co1 O4 1.966 . S
Co1 N10 2.022 . S
Co1 N18 1.993 . S
Co1 O26 1.941 . S
C2 O3 1.258 . S
C2 O4 1.263 . S
O3 Co0 1.970 . S
O3 C2 1.258 . S
O4 Co1 1.966 . S
O4 C2 1.263 . S
C5 O6 1.235 . S
C5 O32 1.289 . S
O6 C5 1.235 . S
C7 C9 1.400 . S
C7 N10 1.351 . S
C7 C12 1.501 . S
C8 C9 1.387 . S
C8 N11 1.341 . S
C9 C7 1.400 . S
C9 C8 1.387 . S
N10 Co1 2.022 . S
N10 C7 1.351 . S
N10 N11 1.365 . S
N11 C8 1.341 . S
N11 N10 1.365 . S
N11 H31 0.862 . S
C12 C7 1.501 . S
C12 H13 0.961 . S
C12 H14 0.961 . S
C12 H15 0.960 . S
H13 C12 0.961 . S
H14 C12 0.961 . S
H15 C12 0.960 . S
C16 N17 1.342 . S
C16 C20 1.401 . S
C16 C21 1.499 . S
N17 Co0 1.989 . S
N17 C16 1.342 . S
N17 N18 1.388 . S
N18 Co1 1.993 . S
N18 N17 1.388 . S
N18 C19 1.346 . S
C19 N18 1.346 . S
C19 C20 1.396 . S
C19 C29 1.510 . S
C20 C16 1.401 . S
C20 C19 1.396 . S
C21 C16 1.499 . S
C21 H22 0.959 . S
C21 H23 0.960 . S
C21 H24 0.961 . S
H22 C21 0.959 . S
H23 C21 0.960 . S
H24 C21 0.961 . S
O25 Co0 1.967 . S
O25 C33 1.258 . S
O26 Co1 1.941 . S
O26 C33 1.266 . S
H27 C29 0.959 . S
H28 C29 0.961 . S
C29 C19 1.510 . S
C29 H27 0.959 . S
C29 H28 0.961 . S
C29 H30 0.960 . S
H30 C29 0.960 . S
H31 N11 0.862 . S
O32 Co0 1.920 . S
O32 C5 1.289 . S
C33 O25 1.258 . S
C33 O26 1.266 . S
Co34 O37 1.970 . S
Co34 N51 1.989 . S
Co34 O59 1.967 . S
Co34 O66 1.920 . S
Co35 O38 1.966 . S
Co35 N44 2.022 . S
Co35 N52 1.993 . S
Co35 O60 1.941 . S
C36 O37 1.258 . S
C36 O38 1.263 . S
O37 Co34 1.970 . S
O37 C36 1.258 . S
O38 Co35 1.966 . S
O38 C36 1.263 . S
C39 O40 1.235 . S
C39 O66 1.289 . S
O40 C39 1.235 . S
C41 C43 1.400 . S
C41 N44 1.351 . S
C41 C46 1.501 . S
C42 C43 1.387 . S
C42 N45 1.341 . S
C43 C41 1.400 . S
C43 C42 1.387 . S
N44 Co35 2.022 . S
N44 C41 1.351 . S
N44 N45 1.365 . S
N45 C42 1.341 . S
N45 N44 1.365 . S
N45 H65 0.862 . S
C46 C41 1.501 . S
C46 H47 0.961 . S
C46 H48 0.961 . S
C46 H49 0.960 . S
H47 C46 0.961 . S
H48 C46 0.961 . S
H49 C46 0.960 . S
C50 N51 1.342 . S
C50 C54 1.401 . S
C50 C55 1.499 . S
N51 Co34 1.989 . S
N51 C50 1.342 . S
N51 N52 1.388 . S
N52 Co35 1.993 . S
N52 N51 1.388 . S
N52 C53 1.346 . S
C53 N52 1.346 . S
C53 C54 1.396 . S
C53 C63 1.510 . S
C54 C50 1.401 . S
C54 C53 1.396 . S
C55 C50 1.499 . S
C55 H56 0.959 . S
C55 H57 0.960 . S
C55 H58 0.961 . S
H56 C55 0.959 . S
H57 C55 0.960 . S
H58 C55 0.961 . S
O59 Co34 1.967 . S
O59 C67 1.258 . S
O60 Co35 1.941 . S
O60 C67 1.266 . S
H61 C63 0.959 . S
H62 C63 0.961 . S
C63 C53 1.510 . S
C63 H61 0.959 . S
C63 H62 0.961 . S
C63 H64 0.960 . S
H64 C63 0.960 . S
H65 N45 0.862 . S
O66 Co34 1.920 . S
O66 C39 1.289 . S
C67 O59 1.258 . S
C67 O60 1.266 . S
Co68 O71 1.970 . S
Co68 N85 1.989 . S
Co68 O93 1.967 . S
Co68 O100 1.920 . S
Co69 O72 1.966 . S
Co69 N78 2.022 . S
Co69 N86 1.993 . S
Co69 O94 1.941 . S
C70 O71 1.258 . S
C70 O72 1.263 . S
O71 Co68 1.970 . S
O71 C70 1.258 . S
O72 Co69 1.966 . S
O72 C70 1.263 . S
C73 O74 1.235 . S
C73 O100 1.289 . S
O74 C73 1.235 . S
C75 C77 1.400 . S
C75 N78 1.351 . S
C75 C80 1.501 . S
C76 C77 1.387 . S
C76 N79 1.341 . S
C77 C75 1.400 . S
C77 C76 1.387 . S
N78 Co69 2.022 . S
N78 C75 1.351 . S
N78 N79 1.365 . S
N79 C76 1.341 . S
N79 N78 1.365 . S
N79 H99 0.862 . S
C80 C75 1.501 . S
C80 H81 0.961 . S
C80 H82 0.961 . S
C80 H83 0.960 . S
H81 C80 0.961 . S
H82 C80 0.961 . S
H83 C80 0.960 . S
C84 N85 1.342 . S
C84 C88 1.401 . S
C84 C89 1.499 . S
N85 Co68 1.989 . S
N85 C84 1.342 . S
N85 N86 1.388 . S
N86 Co69 1.993 . S
N86 N85 1.388 . S
N86 C87 1.346 . S
C87 N86 1.346 . S
C87 C88 1.396 . S
C87 C97 1.510 . S
C88 C84 1.401 . S
C88 C87 1.396 . S
C89 C84 1.499 . S
C89 H90 0.959 . S
C89 H91 0.960 . S
C89 H92 0.961 . S
H90 C89 0.959 . S
H91 C89 0.960 . S
H92 C89 0.961 . S
O93 Co68 1.967 . S
O93 C101 1.258 . S
O94 Co69 1.941 . S
O94 C101 1.266 . S
H95 C97 0.959 . S
H96 C97 0.961 . S
C97 C87 1.510 . S
C97 H95 0.959 . S
C97 H96 0.961 . S
C97 H98 0.960 . S
H98 C97 0.960 . S
H99 N79 0.862 . S
O100 Co68 1.920 . S
O100 C73 1.289 . S
C101 O93 1.258 . S
C101 O94 1.266 . S
Co102 O105 1.970 . S
Co102 N119 1.989 . S
Co102 O127 1.967 . S
Co102 O134 1.920 . S
Co103 O106 1.966 . S
Co103 N112 2.022 . S
Co103 N120 1.993 . S
Co103 O128 1.941 . S
C104 O105 1.258 . S
C104 O106 1.263 . S
O105 Co102 1.970 . S
O105 C104 1.258 . S
O106 Co103 1.966 . S
O106 C104 1.263 . S
C107 O108 1.235 . S
C107 O134 1.289 . S
O108 C107 1.235 . S
C109 C111 1.400 . S
C109 N112 1.351 . S
C109 C114 1.501 . S
C110 C111 1.387 . S
C110 N113 1.341 . S
C111 C109 1.400 . S
C111 C110 1.387 . S
N112 Co103 2.022 . S
N112 C109 1.351 . S
N112 N113 1.365 . S
N113 C110 1.341 . S
N113 N112 1.365 . S
N113 H133 0.862 . S
C114 C109 1.501 . S
C114 H115 0.961 . S
C114 H116 0.961 . S
C114 H117 0.960 . S
H115 C114 0.961 . S
H116 C114 0.961 . S
H117 C114 0.960 . S
C118 N119 1.342 . S
C118 C122 1.401 . S
C118 C123 1.499 . S
N119 Co102 1.989 . S
N119 C118 1.342 . S
N119 N120 1.388 . S
N120 Co103 1.993 . S
N120 N119 1.388 . S
N120 C121 1.346 . S
C121 N120 1.346 . S
C121 C122 1.396 . S
C121 C131 1.510 . S
C122 C118 1.401 . S
C122 C121 1.396 . S
C123 C118 1.499 . S
C123 H124 0.959 . S
C123 H125 0.960 . S
C123 H126 0.961 . S
H124 C123 0.959 . S
H125 C123 0.960 . S
H126 C123 0.961 . S
O127 Co102 1.967 . S
O127 C135 1.258 . S
O128 Co103 1.941 . S
O128 C135 1.266 . S
H129 C131 0.959 . S
H130 C131 0.961 . S
C131 C121 1.510 . S
C131 H129 0.959 . S
C131 H130 0.961 . S
C131 H132 0.960 . S
H132 C131 0.960 . S
H133 N113 0.862 . S
O134 Co102 1.920 . S
O134 C107 1.289 . S
C135 O127 1.258 . S
C135 O128 1.266 . S
Co136 O139 1.970 . S
Co136 N153 1.989 . S
Co136 O161 1.967 . S
Co136 O168 1.920 . S
Co137 O140 1.966 . S
Co137 N146 2.022 . S
Co137 N154 1.993 . S
Co137 O162 1.941 . S
C138 O139 1.258 . S
C138 O140 1.263 . S
O139 Co136 1.970 . S
O139 C138 1.258 . S
O140 Co137 1.966 . S
O140 C138 1.263 . S
C141 O142 1.235 . S
C141 O168 1.289 . S
O142 C141 1.235 . S
C143 C145 1.400 . S
C143 N146 1.351 . S
C143 C148 1.501 . S
C144 C145 1.387 . S
C144 N147 1.341 . S
C145 C143 1.400 . S
C145 C144 1.387 . S
N146 Co137 2.022 . S
N146 C143 1.351 . S
N146 N147 1.365 . S
N147 C144 1.341 . S
N147 N146 1.365 . S
N147 H167 0.862 . S
C148 C143 1.501 . S
C148 H149 0.961 . S
C148 H150 0.961 . S
C148 H151 0.960 . S
H149 C148 0.961 . S
H150 C148 0.961 . S
H151 C148 0.960 . S
C152 N153 1.342 . S
C152 C156 1.401 . S
C152 C157 1.499 . S
N153 Co136 1.989 . S
N153 C152 1.342 . S
N153 N154 1.388 . S
N154 Co137 1.993 . S
N154 N153 1.388 . S
N154 C155 1.346 . S
C155 N154 1.346 . S
C155 C156 1.396 . S
C155 C165 1.510 . S
C156 C152 1.401 . S
C156 C155 1.396 . S
C157 C152 1.499 . S
C157 H158 0.959 . S
C157 H159 0.960 . S
C157 H160 0.961 . S
H158 C157 0.959 . S
H159 C157 0.960 . S
H160 C157 0.961 . S
O161 Co136 1.967 . S
O161 C169 1.258 . S
O162 Co137 1.941 . S
O162 C169 1.266 . S
H163 C165 0.959 . S
H164 C165 0.961 . S
C165 C155 1.510 . S
C165 H163 0.959 . S
C165 H164 0.961 . S
C165 H166 0.960 . S
H166 C165 0.960 . S
H167 N147 0.862 . S
O168 Co136 1.920 . S
O168 C141 1.289 . S
C169 O161 1.258 . S
C169 O162 1.266 . S
Co170 O173 1.970 . S
Co170 N187 1.989 . S
Co170 O195 1.967 . S
Co170 O202 1.920 . S
Co171 O174 1.966 . S
Co171 N180 2.022 . S
Co171 N188 1.993 . S
Co171 O196 1.941 . S
C172 O173 1.258 . S
C172 O174 1.263 . S
O173 Co170 1.970 . S
O173 C172 1.258 . S
O174 Co171 1.966 . S
O174 C172 1.263 . S
C175 O176 1.235 . S
C175 O202 1.289 . S
O176 C175 1.235 . S
C177 C179 1.400 . S
C177 N180 1.351 . S
C177 C182 1.501 . S
C178 C179 1.387 . S
C178 N181 1.341 . S
C179 C177 1.400 . S
C179 C178 1.387 . S
N180 Co171 2.022 . S
N180 C177 1.351 . S
N180 N181 1.365 . S
N181 C178 1.341 . S
N181 N180 1.365 . S
N181 H201 0.862 . S
C182 C177 1.501 . S
C182 H183 0.961 . S
C182 H184 0.961 . S
C182 H185 0.960 . S
H183 C182 0.961 . S
H184 C182 0.961 . S
H185 C182 0.960 . S
C186 N187 1.342 . S
C186 C190 1.401 . S
C186 C191 1.499 . S
N187 Co170 1.989 . S
N187 C186 1.342 . S
N187 N188 1.388 . S
N188 Co171 1.993 . S
N188 N187 1.388 . S
N188 C189 1.346 . S
C189 N188 1.346 . S
C189 C190 1.396 . S
C189 C199 1.510 . S
C190 C186 1.401 . S
C190 C189 1.396 . S
C191 C186 1.499 . S
C191 H192 0.959 . S
C191 H193 0.960 . S
C191 H194 0.961 . S
H192 C191 0.959 . S
H193 C191 0.960 . S
H194 C191 0.961 . S
O195 Co170 1.967 . S
O195 C203 1.258 . S
O196 Co171 1.941 . S
O196 C203 1.266 . S
H197 C199 0.959 . S
H198 C199 0.961 . S
C199 C189 1.510 . S
C199 H197 0.959 . S
C199 H198 0.961 . S
C199 H200 0.960 . S
H200 C199 0.960 . S
H201 N181 0.862 . S
O202 Co170 1.920 . S
O202 C175 1.289 . S
C203 O195 1.258 . S
C203 O196 1.266 . S
Co204 O207 1.970 . S
Co204 N221 1.989 . S
Co204 O229 1.967 . S
Co204 O236 1.920 . S
Co205 O208 1.966 . S
Co205 N214 2.022 . S
Co205 N222 1.993 . S
Co205 O230 1.941 . S
C206 O207 1.258 . S
C206 O208 1.263 . S
O207 Co204 1.970 . S
O207 C206 1.258 . S
O208 Co205 1.966 . S
O208 C206 1.263 . S
C209 O210 1.235 . S
C209 O236 1.289 . S
O210 C209 1.235 . S
C211 C213 1.400 . S
C211 N214 1.351 . S
C211 C216 1.501 . S
C212 C213 1.387 . S
C212 N215 1.341 . S
C213 C211 1.400 . S
C213 C212 1.387 . S
N214 Co205 2.022 . S
N214 C211 1.351 . S
N214 N215 1.365 . S
N215 C212 1.341 . S
N215 N214 1.365 . S
N215 H235 0.862 . S
C216 C211 1.501 . S
C216 H217 0.961 . S
C216 H218 0.961 . S
C216 H219 0.960 . S
H217 C216 0.961 . S
H218 C216 0.961 . S
H219 C216 0.960 . S
C220 N221 1.342 . S
C220 C224 1.401 . S
C220 C225 1.499 . S
N221 Co204 1.989 . S
N221 C220 1.342 . S
N221 N222 1.388 . S
N222 Co205 1.993 . S
N222 N221 1.388 . S
N222 C223 1.346 . S
C223 N222 1.346 . S
C223 C224 1.396 . S
C223 C233 1.510 . S
C224 C220 1.401 . S
C224 C223 1.396 . S
C225 C220 1.499 . S
C225 H226 0.959 . S
C225 H227 0.960 . S
C225 H228 0.961 . S
H226 C225 0.959 . S
H227 C225 0.960 . S
H228 C225 0.961 . S
O229 Co204 1.967 . S
O229 C237 1.258 . S
O230 Co205 1.941 . S
O230 C237 1.266 . S
H231 C233 0.959 . S
H232 C233 0.961 . S
C233 C223 1.510 . S
C233 H231 0.959 . S
C233 H232 0.961 . S
C233 H234 0.960 . S
H234 C233 0.960 . S
H235 N215 0.862 . S
O236 Co204 1.920 . S
O236 C209 1.289 . S
C237 O229 1.258 . S
C237 O230 1.266 . S
Co238 O241 1.970 . S
Co238 N255 1.989 . S
Co238 O263 1.967 . S
Co238 O270 1.920 . S
Co239 O242 1.966 . S
Co239 N248 2.022 . S
Co239 N256 1.993 . S
Co239 O264 1.941 . S
C240 O241 1.258 . S
C240 O242 1.263 . S
O241 Co238 1.970 . S
O241 C240 1.258 . S
O242 Co239 1.966 . S
O242 C240 1.263 . S
C243 O244 1.235 . S
C243 O270 1.289 . S
O244 C243 1.235 . S
C245 C247 1.400 . S
C245 N248 1.351 . S
C245 C250 1.501 . S
C246 C247 1.387 . S
C246 N249 1.341 . S
C247 C245 1.400 . S
C247 C246 1.387 . S
N248 Co239 2.022 . S
N248 C245 1.351 . S
N248 N249 1.365 . S
N249 C246 1.341 . S
N249 N248 1.365 . S
N249 H269 0.862 . S
C250 C245 1.501 . S
C250 H251 0.961 . S
C250 H252 0.961 . S
C250 H253 0.960 . S
H251 C250 0.961 . S
H252 C250 0.961 . S
H253 C250 0.960 . S
C254 N255 1.342 . S
C254 C258 1.401 . S
C254 C259 1.499 . S
N255 Co238 1.989 . S
N255 C254 1.342 . S
N255 N256 1.388 . S
N256 Co239 1.993 . S
N256 N255 1.388 . S
N256 C257 1.346 . S
C257 N256 1.346 . S
C257 C258 1.396 . S
C257 C267 1.510 . S
C258 C254 1.401 . S
C258 C257 1.396 . S
C259 C254 1.499 . S
C259 H260 0.959 . S
C259 H261 0.960 . S
C259 H262 0.961 . S
H260 C259 0.959 . S
H261 C259 0.960 . S
H262 C259 0.961 . S
O263 Co238 1.967 . S
O263 C271 1.258 . S
O264 Co239 1.941 . S
O264 C271 1.266 . S
H265 C267 0.959 . S
H266 C267 0.961 . S
C267 C257 1.510 . S
C267 H265 0.959 . S
C267 H266 0.961 . S
C267 H268 0.960 . S
H268 C267 0.960 . S
H269 N249 0.862 . S
O270 Co238 1.920 . S
O270 C243 1.289 . S
C271 O263 1.258 . S
C271 O264 1.266 . S
H272 C278 0.930 . S
H273 C281 0.930 . S
H274 C282 0.930 . S
H275 C283 0.930 . S
H276 C286 0.930 . S
H277 C287 0.930 . S
C278 H272 0.930 . S
C278 C279 1.355 . S
C278 C280 1.415 . S
C279 C278 1.355 . S
C279 C281 1.419 . S
C280 C278 1.415 . S
C280 C285 1.425 . S
C280 C287 1.409 . S
C281 H273 0.930 . S
C281 C279 1.419 . S
C281 C282 1.362 . S
C282 H274 0.930 . S
C282 C281 1.362 . S
C282 C285 1.409 . S
C283 H275 0.930 . S
C283 C284 1.355 . S
C283 C285 1.415 . S
C284 C283 1.355 . S
C284 C286 1.419 . S
C285 C280 1.425 . S
C285 C282 1.409 . S
C285 C283 1.415 . S
C286 H276 0.930 . S
C286 C284 1.419 . S
C286 C287 1.362 . S
C287 H277 0.930 . S
C287 C280 1.409 . S
C287 C286 1.362 . S
H288 C294 0.930 . S
H289 C297 0.930 . S
H290 C298 0.930 . S
H291 C299 0.930 . S
H292 C302 0.930 . S
H293 C303 0.930 . S
C294 H288 0.930 . S
C294 C295 1.355 . S
C294 C296 1.415 1_554 S
C295 C294 1.355 . S
C295 C297 1.419 . S
C296 C294 1.415 1_556 S
C296 C301 1.425 1_556 S
C296 C303 1.409 . S
C297 H289 0.930 . S
C297 C295 1.419 . S
C297 C298 1.362 . S
C298 H290 0.930 . S
C298 C297 1.362 . S
C298 C301 1.409 . S
C299 H291 0.930 . S
C299 C300 1.355 . S
C299 C301 1.415 1_556 S
C300 C299 1.355 . S
C300 C302 1.419 . S
C301 C296 1.425 1_554 S
C301 C298 1.409 . S
C301 C299 1.415 1_554 S
C302 H292 0.930 . S
C302 C300 1.419 . S
C302 C303 1.362 . S
C303 H293 0.930 . S
C303 C296 1.409 . S
C303 C302 1.362 . S
H304 C310 0.930 . S
H305 C313 0.930 . S
H306 C314 0.930 . S
H307 C315 0.930 . S
H308 C318 0.930 . S
H309 C319 0.930 . S
C310 H304 0.930 . S
C310 C311 1.355 . S
C310 C312 1.415 . S
C311 C310 1.355 . S
C311 C313 1.419 . S
C312 C310 1.415 . S
C312 C317 1.425 . S
C312 C319 1.409 . S
C313 H305 0.930 . S
C313 C311 1.419 . S
C313 C314 1.362 . S
C314 H306 0.930 . S
C314 C313 1.362 . S
C314 C317 1.409 . S
C315 H307 0.930 . S
C315 C316 1.355 . S
C315 C317 1.415 . S
C316 C315 1.355 . S
C316 C318 1.419 . S
C317 C312 1.425 . S
C317 C314 1.409 . S
C317 C315 1.415 . S
C318 H308 0.930 . S
C318 C316 1.419 . S
C318 C319 1.362 . S
C319 H309 0.930 . S
C319 C312 1.409 . S
C319 C318 1.362 . S
H320 C326 0.930 . S
H321 C329 0.930 . S
H322 C330 0.930 . S
H323 C331 0.930 . S
H324 C334 0.930 . S
H325 C335 0.930 . S
C326 H320 0.930 . S
C326 C327 1.355 . S
C326 C328 1.415 . S
C327 C326 1.355 . S
C327 C329 1.419 . S
C328 C326 1.415 . S
C328 C333 1.425 1_556 S
C328 C335 1.409 1_556 S
C329 H321 0.930 . S
C329 C327 1.419 . S
C329 C330 1.362 . S
C330 H322 0.930 . S
C330 C329 1.362 . S
C330 C333 1.409 1_556 S
C331 H323 0.930 . S
C331 C332 1.355 . S
C331 C333 1.415 . S
C332 C331 1.355 . S
C332 C334 1.419 . S
C333 C328 1.425 1_554 S
C333 C330 1.409 1_554 S
C333 C331 1.415 . S
C334 H324 0.930 . S
C334 C332 1.419 . S
C334 C335 1.362 . S
C335 H325 0.930 . S
C335 C328 1.409 1_554 S
C335 C334 1.362 . S
H336 C342 0.930 . S
H337 C345 0.930 . S
H338 C346 0.930 . S
H339 C347 0.930 . S
H340 C350 0.930 . S
H341 C351 0.930 . S
C342 H336 0.930 . S
C342 C343 1.355 . S
C342 C344 1.415 . S
C343 C342 1.355 . S
C343 C345 1.419 . S
C344 C342 1.415 . S
C344 C349 1.425 . S
C344 C351 1.409 . S
C345 H337 0.930 . S
C345 C343 1.419 . S
C345 C346 1.362 . S
C346 H338 0.930 . S
C346 C345 1.362 . S
C346 C349 1.409 . S
C347 H339 0.930 . S
C347 C348 1.355 . S
C347 C349 1.415 . S
C348 C347 1.355 . S
C348 C350 1.419 . S
C349 C344 1.425 . S
C349 C346 1.409 . S
C349 C347 1.415 . S
C350 H340 0.930 . S
C350 C348 1.419 . S
C350 C351 1.362 . S
C351 H341 0.930 . S
C351 C344 1.409 . S
C351 C350 1.362 . S
H352 C358 0.930 . S
H353 C361 0.930 . S
H354 C362 0.930 . S
H355 C363 0.930 . S
H356 C366 0.930 . S
H357 C367 0.930 . S
C358 H352 0.930 . S
C358 C359 1.355 . S
C358 C360 1.415 . S
C359 C358 1.355 . S
C359 C361 1.419 . S
C360 C358 1.415 . S
C360 C365 1.425 . S
C360 C367 1.409 . S
C361 H353 0.930 . S
C361 C359 1.419 . S
C361 C362 1.362 . S
C362 H354 0.930 . S
C362 C361 1.362 . S
C362 C365 1.409 . S
C363 H355 0.930 . S
C363 C364 1.355 . S
C363 C365 1.415 . S
C364 C363 1.355 . S
C364 C366 1.419 . S
C365 C360 1.425 . S
C365 C362 1.409 . S
C365 C363 1.415 . S
C366 H356 0.930 . S
C366 C364 1.419 . S
C366 C367 1.362 . S
C367 H357 0.930 . S
C367 C360 1.409 . S
C367 C366 1.362 . S
H368 C374 0.930 . S
H369 C377 0.930 . S
H370 C378 0.930 . S
H371 C379 0.930 . S
H372 C382 0.930 . S
H373 C383 0.930 . S
C374 H368 0.930 . S
C374 C375 1.355 . S
C374 C376 1.415 . S
C375 C374 1.355 . S
C375 C377 1.419 . S
C376 C374 1.415 . S
C376 C381 1.425 1_455 S
C376 C383 1.409 . S
C377 H369 0.930 . S
C377 C375 1.419 . S
C377 C378 1.362 1_455 S
C378 H370 0.930 . S
C378 C377 1.362 1_655 S
C378 C381 1.409 . S
C379 H371 0.930 . S
C379 C380 1.355 . S
C379 C381 1.415 . S
C380 C379 1.355 . S
C380 C382 1.419 . S
C381 C376 1.425 1_655 S
C381 C378 1.409 . S
C381 C379 1.415 . S
C382 H372 0.930 . S
C382 C380 1.419 . S
C382 C383 1.362 1_655 S
C383 H373 0.930 . S
C383 C376 1.409 . S
C383 C382 1.362 1_455 S
H384 C390 0.930 . S
H385 C393 0.930 . S
H386 C394 0.930 . S
H387 C395 0.930 . S
H388 C398 0.930 . S
H389 C399 0.930 . S
C390 H384 0.930 . S
C390 C391 1.355 . S
C390 C392 1.415 . S
C391 C390 1.355 . S
C391 C393 1.419 . S
C392 C390 1.415 . S
C392 C397 1.425 1_455 S
C392 C399 1.409 . S
C393 H385 0.930 . S
C393 C391 1.419 . S
C393 C394 1.362 1_455 S
C394 H386 0.930 . S
C394 C393 1.362 1_655 S
C394 C397 1.409 . S
C395 H387 0.930 . S
C395 C396 1.355 . S
C395 C397 1.415 . S
C396 C395 1.355 . S
C396 C398 1.419 . S
C397 C392 1.425 1_655 S
C397 C394 1.409 . S
C397 C395 1.415 . S
C398 H388 0.930 . S
C398 C396 1.419 . S
C398 C399 1.362 1_655 S
C399 H389 0.930 . S
C399 C392 1.409 . S
C399 C398 1.362 1_455 S
H400 C406 0.930 . S
H401 C409 0.930 . S
H402 C410 0.930 . S
H403 C411 0.930 . S
H404 C414 0.925 1_545 S
H405 C415 0.930 . S
C406 H400 0.930 . S
C406 C407 1.355 . S
C406 C408 1.415 . S
C407 C406 1.355 . S
C407 C409 1.419 . S
C408 C406 1.415 . S
C408 C413 1.425 . S
C408 C415 1.409 . S
C409 H401 0.930 . S
C409 C407 1.419 . S
C409 C410 1.362 . S
C410 H402 0.930 . S
C410 C409 1.362 . S
C410 C413 1.409 . S
C411 H403 0.930 . S
C411 C412 1.355 . S
C411 C413 1.415 1_545 S
C412 C411 1.355 . S
C412 C414 1.410 1_545 S
C413 C408 1.425 . S
C413 C410 1.409 . S
C413 C411 1.415 1_565 S
C414 H404 0.925 1_565 S
C414 C412 1.410 1_565 S
C414 C415 1.376 . S
C415 H405 0.930 . S
C415 C408 1.409 . S
C415 C414 1.376 . S
H416 C422 0.930 . S
H417 C425 0.933 . S
H418 C426 0.930 . S
H419 C427 0.930 . S
H420 C430 0.930 . S
H421 C431 0.930 . S
C422 H416 0.930 . S
C422 C423 1.355 . S
C422 C424 1.415 1_545 S
C423 C422 1.355 . S
C423 C425 1.424 . S
C424 C422 1.415 1_565 S
C424 C429 1.425 . S
C424 C431 1.409 . S
C425 H417 0.933 . S
C425 C423 1.424 . S
C425 C426 1.354 1_545 S
C426 H418 0.930 . S
C426 C425 1.354 1_565 S
C426 C429 1.409 . S
C427 H419 0.930 . S
C427 C428 1.355 . S
C427 C429 1.415 . S
C428 C427 1.355 . S
C428 C430 1.419 . S
C429 C424 1.425 . S
C429 C426 1.409 . S
C429 C427 1.415 . S
C430 H420 0.930 . S
C430 C428 1.419 . S
C430 C431 1.362 . S
C431 H421 0.930 . S
C431 C424 1.409 . S
C431 C430 1.362 . S
H432 C438 0.930 . S
H433 C441 0.930 . S
H434 C442 0.930 . S
H435 C443 0.930 . S
H436 C446 0.930 . S
H437 C447 0.930 . S
C438 H432 0.930 . S
C438 C439 1.355 . S
C438 C440 1.415 1_565 S
C439 C438 1.355 . S
C439 C441 1.419 . S
C440 C438 1.415 1_545 S
C440 C445 1.425 . S
C440 C447 1.409 . S
C441 H433 0.930 . S
C441 C439 1.419 . S
C441 C442 1.362 1_565 S
C442 H434 0.930 . S
C442 C441 1.362 1_545 S
C442 C445 1.409 . S
C443 H435 0.930 . S
C443 C444 1.355 . S
C443 C445 1.415 . S
C444 C443 1.355 . S
C444 C446 1.419 . S
C445 C440 1.425 . S
C445 C442 1.409 . S
C445 C443 1.415 . S
C446 H436 0.930 . S
C446 C444 1.419 . S
C446 C447 1.362 . S
C447 H437 0.930 . S
C447 C440 1.409 . S
C447 C446 1.362 . S
H448 C454 0.930 . S
H449 C457 0.930 . S
H450 C458 0.930 . S
H451 C459 0.930 . S
H452 C462 0.930 . S
H453 C463 0.930 . S
C454 H448 0.930 . S
C454 C455 1.355 . S
C454 C456 1.415 . S
C455 C454 1.355 . S
C455 C457 1.419 . S
C456 C454 1.415 . S
C456 C461 1.425 . S
C456 C463 1.409 . S
C457 H449 0.930 . S
C457 C455 1.419 . S
C457 C458 1.362 . S
C458 H450 0.930 . S
C458 C457 1.362 . S
C458 C461 1.409 . S
C459 H451 0.930 . S
C459 C460 1.355 . S
C459 C461 1.415 1_565 S
C460 C459 1.355 . S
C460 C462 1.419 . S
C461 C456 1.425 . S
C461 C458 1.409 . S
C461 C459 1.415 1_545 S
C462 H452 0.930 . S
C462 C460 1.419 . S
C462 C463 1.362 1_565 S
C463 H453 0.930 . S
C463 C456 1.409 . S
C463 C462 1.362 1_545 S
H464 C470 0.930 . S
H465 C473 0.930 . S
H466 C474 0.930 . S
H467 C475 0.930 . S
H468 C478 0.930 . S
H469 C479 0.930 . S
C470 H464 0.930 . S
C470 C471 1.355 . S
C470 C472 1.415 . S
C471 C470 1.355 . S
C471 C473 1.419 . S
C472 C470 1.415 . S
C472 C477 1.425 . S
C472 C479 1.409 . S
C473 H465 0.930 . S
C473 C471 1.419 . S
C473 C474 1.362 . S
C474 H466 0.930 . S
C474 C473 1.362 . S
C474 C477 1.409 . S
C475 H467 0.930 . S
C475 C476 1.355 . S
C475 C477 1.415 . S
C476 C475 1.355 . S
C476 C478 1.419 . S
C477 C472 1.425 . S
C477 C474 1.409 . S
C477 C475 1.415 . S
C478 H468 0.930 . S
C478 C476 1.419 . S
C478 C479 1.362 . S
C479 H469 0.930 . S
C479 C472 1.409 . S
C479 C478 1.362 . S
H480 C486 0.930 . S
H481 C489 0.930 . S
H482 C490 0.930 . S
H483 C491 0.930 . S
H484 C494 0.930 . S
H485 C495 0.930 . S
C486 H480 0.930 . S
C486 C487 1.355 . S
C486 C488 1.415 . S
C487 C486 1.355 . S
C487 C489 1.419 . S
C488 C486 1.415 . S
C488 C493 1.425 . S
C488 C495 1.409 . S
C489 H481 0.930 . S
C489 C487 1.419 . S
C489 C490 1.362 . S
C490 H482 0.930 . S
C490 C489 1.362 . S
C490 C493 1.409 . S
C491 H483 0.930 . S
C491 C492 1.355 . S
C491 C493 1.415 . S
C492 C491 1.355 . S
C492 C494 1.419 . S
C493 C488 1.425 . S
C493 C490 1.409 . S
C493 C491 1.415 . S
C494 H484 0.930 . S
C494 C492 1.419 . S
C494 C495 1.362 . S
C495 H485 0.930 . S
C495 C488 1.409 . S
C495 C494 1.362 . S
H496 C502 0.930 . S
H497 C505 0.930 . S
H498 C506 0.930 . S
H499 C507 0.930 . S
H500 C510 0.930 . S
H501 C511 0.930 . S
C502 H496 0.930 . S
C502 C503 1.355 . S
C502 C504 1.415 . S
C503 C502 1.355 . S
C503 C505 1.419 . S
C504 C502 1.415 . S
C504 C509 1.425 . S
C504 C511 1.409 . S
C505 H497 0.930 . S
C505 C503 1.419 . S
C505 C506 1.362 . S
C506 H498 0.930 . S
C506 C505 1.362 . S
C506 C509 1.409 . S
C507 H499 0.930 . S
C507 C508 1.355 . S
C507 C509 1.415 . S
C508 C507 1.355 . S
C508 C510 1.419 . S
C509 C504 1.425 . S
C509 C506 1.409 . S
C509 C507 1.415 . S
C510 H500 0.930 . S
C510 C508 1.419 . S
C510 C511 1.362 . S
C511 H501 0.930 . S
C511 C504 1.409 . S
C511 C510 1.362 . S
H512 C518 0.930 . S
H513 C521 0.930 . S
H514 C522 0.930 . S
H515 C523 0.930 . S
H516 C526 0.930 . S
H517 C527 0.930 . S
C518 H512 0.930 . S
C518 C519 1.355 . S
C518 C520 1.415 . S
C519 C518 1.355 . S
C519 C521 1.419 . S
C520 C518 1.415 . S
C520 C525 1.425 . S
C520 C527 1.409 . S
C521 H513 0.930 . S
C521 C519 1.419 . S
C521 C522 1.362 . S
C522 H514 0.930 . S
C522 C521 1.362 . S
C522 C525 1.409 . S
C523 H515 0.930 . S
C523 C524 1.355 . S
C523 C525 1.415 . S
C524 C523 1.355 . S
C524 C526 1.419 . S
C525 C520 1.425 . S
C525 C522 1.409 . S
C525 C523 1.415 . S
C526 H516 0.930 . S
C526 C524 1.419 . S
C526 C527 1.362 . S
C527 H517 0.930 . S
C527 C520 1.409 . S
C527 C526 1.362 . S
H528 C534 0.930 . S
H529 C537 0.930 . S
H530 C538 0.930 . S
H531 C539 0.930 . S
H532 C542 0.930 . S
H533 C543 0.930 . S
C534 H528 0.930 . S
C534 C535 1.355 1_565 S
C534 C536 1.415 . S
C535 C534 1.355 1_545 S
C535 C537 1.419 . S
C536 C534 1.415 . S
C536 C541 1.425 1_565 S
C536 C543 1.409 . S
C537 H529 0.930 . S
C537 C535 1.419 . S
C537 C538 1.362 . S
C538 H530 0.930 . S
C538 C537 1.362 . S
C538 C541 1.409 . S
C539 H531 0.930 . S
C539 C540 1.355 1_545 S
C539 C541 1.415 . S
C540 C539 1.355 1_565 S
C540 C542 1.419 . S
C541 C536 1.425 1_545 S
C541 C538 1.409 . S
C541 C539 1.415 . S
C542 H532 0.930 . S
C542 C540 1.419 . S
C542 C543 1.362 . S
C543 H533 0.930 . S
C543 C536 1.409 . S
C543 C542 1.362 . S
H544 C550 0.930 . S
H545 C553 0.930 . S
H546 C554 0.930 . S
H547 C555 0.930 . S
H548 C558 0.930 . S
H549 C559 0.930 . S
C550 H544 0.930 . S
C550 C551 1.355 1_565 S
C550 C552 1.415 . S
C551 C550 1.355 1_545 S
C551 C553 1.419 . S
C552 C550 1.415 . S
C552 C557 1.425 1_564 S
C552 C559 1.409 . S
C553 H545 0.930 . S
C553 C551 1.419 . S
C553 C554 1.362 1_554 S
C554 H546 0.930 . S
C554 C553 1.362 1_556 S
C554 C557 1.409 . S
C555 H547 0.930 . S
C555 C556 1.355 1_545 S
C555 C557 1.415 . S
C556 C555 1.355 1_565 S
C556 C558 1.419 . S
C557 C552 1.425 1_546 S
C557 C554 1.409 . S
C557 C555 1.415 . S
C558 H548 0.930 . S
C558 C556 1.419 . S
C558 C559 1.362 1_556 S
C559 H549 0.930 . S
C559 C552 1.409 . S
C559 C558 1.362 1_554 S
H560 C566 0.930 . S
H561 C569 0.930 . S
H562 C570 0.930 . S
H563 C571 0.930 . S
H564 C574 0.930 . S
H565 C575 0.930 . S
C566 H560 0.930 . S
C566 C567 1.355 . S
C566 C568 1.415 1_455 S
C567 C566 1.355 . S
C567 C569 1.419 . S
C568 C566 1.415 1_655 S
C568 C573 1.425 1_655 S
C568 C575 1.409 . S
C569 H561 0.930 . S
C569 C567 1.419 . S
C569 C570 1.362 . S
C570 H562 0.930 . S
C570 C569 1.362 . S
C570 C573 1.409 . S
C571 H563 0.930 . S
C571 C572 1.355 . S
C571 C573 1.415 1_655 S
C572 C571 1.355 . S
C572 C574 1.419 . S
C573 C568 1.425 1_455 S
C573 C570 1.409 . S
C573 C571 1.415 1_455 S
C574 H564 0.930 . S
C574 C572 1.419 . S
C574 C575 1.362 . S
C575 H565 0.930 . S
C575 C568 1.409 . S
C575 C574 1.362 . S
H576 C582 0.930 1_655 S
H577 C585 0.930 . S
H578 C586 0.930 . S
H579 C587 0.930 1_455 S
H580 C590 0.930 . S
H581 C591 0.930 . S
C582 H576 0.930 1_455 S
C582 C583 1.355 . S
C582 C584 1.415 1_455 S
C583 C582 1.355 . S
C583 C585 1.419 . S
C584 C582 1.415 1_655 S
C584 C589 1.425 1_654 S
C584 C591 1.409 1_554 S
C585 H577 0.930 . S
C585 C583 1.419 . S
C585 C586 1.362 . S
C586 H578 0.930 . S
C586 C585 1.362 . S
C586 C589 1.409 1_554 S
C587 H579 0.930 1_655 S
C587 C588 1.355 . S
C587 C589 1.415 1_655 S
C588 C587 1.355 . S
C588 C590 1.419 . S
C589 C584 1.425 1_456 S
C589 C586 1.409 1_556 S
C589 C587 1.415 1_455 S
C590 H580 0.930 . S
C590 C588 1.419 . S
C590 C591 1.362 . S
C591 H581 0.930 . S
C591 C584 1.409 1_556 S
C591 C590 1.362 . S
C279 C224 1.264 . S
C284 C20 1.264 . S
C295 C54 1.258 . S
C300 C258 1.258 . S
C311 C88 1.249 . S
C316 C156 1.249 . S
C327 C122 1.263 . S
C332 C190 1.263 . S
C343 C36 1.626 . S
C348 C2 1.643 . S
C359 C70 1.630 . S
C364 C104 1.641 . S
C375 C172 1.636 . S
C380 C138 1.636 . S
C391 C206 1.638 . S
C396 C240 1.633 . S
C407 C179 1.547 . S
C412 C33 1.558 . S
C423 C67 1.558 . S
C428 C145 1.551 . S
C439 C101 1.560 . S
C444 C247 1.525 . S
C455 C213 1.499 . S
C460 C135 1.562 . S
C471 C169 1.563 . S
C476 C43 1.493 . S
C487 C203 1.563 . S
C492 C9 1.493 . S
C503 C237 1.559 . S
C508 C111 1.539 . S
C519 C77 1.547 . S
C524 C271 1.558 . S
C535 C5 1.513 . S
C540 C73 1.513 . S
C551 C39 1.508 . S
C556 C107 1.508 . S
C567 C209 1.555 . S
C572 C141 1.555 . S
C583 C175 1.558 . S
C588 C243 1.558 . S
