# Generated by pormake.
# Topology und, (4)-cn, num edge types: 1
# Building blocks:
#     Node 0, Type 0, BuildingBlock: QUQFOY_clean_sbu_1, # of connection points: 4
#     Node 1, Type 0, BuildingBlock: QUQFOY_clean_sbu_1, # of connection points: 4
#     Node 2, Type 0, BuildingBlock: QUQFOY_clean_sbu_1, # of connection points: 4
#     Node 3, Type 0, BuildingBlock: QUQFOY_clean_sbu_1, # of connection points: 4
#     Node 4, Type 0, BuildingBlock: QUQFOY_clean_sbu_1, # of connection points: 4
#     Node 5, Type 0, BuildingBlock: QUQFOY_clean_sbu_1, # of connection points: 4
#     Node 6, Type 0, BuildingBlock: QUQFOY_clean_sbu_1, # of connection points: 4
#     Node 7, Type 0, BuildingBlock: QUQFOY_clean_sbu_1, # of connection points: 4
#     Node 8, Type 0, BuildingBlock: QUQFOY_clean_sbu_1, # of connection points: 4
#     Node 9, Type 0, BuildingBlock: QUQFOY_clean_sbu_1, # of connection points: 4
#     Node 10, Type 0, BuildingBlock: QUQFOY_clean_sbu_1, # of connection points: 4
#     Node 11, Type 0, BuildingBlock: QUQFOY_clean_sbu_1, # of connection points: 4
#     Node 12, Type 0, BuildingBlock: QUQFOY_clean_sbu_1, # of connection points: 4
#     Node 13, Type 0, BuildingBlock: QUQFOY_clean_sbu_1, # of connection points: 4
#     Node 14, Type 0, BuildingBlock: QUQFOY_clean_sbu_1, # of connection points: 4
#     Node 15, Type 0, BuildingBlock: QUQFOY_clean_sbu_1, # of connection points: 4
#     Edge 16, Type (0, 0), BuildingBlock: ZUJKAS_clean_linker_0, # of connection points: 2
#     Edge 17, Type (0, 0), BuildingBlock: ZUJKAS_clean_linker_0, # of connection points: 2
#     Edge 18, Type (0, 0), BuildingBlock: ZUJKAS_clean_linker_0, # of connection points: 2
#     Edge 19, Type (0, 0), BuildingBlock: ZUJKAS_clean_linker_0, # of connection points: 2
#     Edge 20, Type (0, 0), BuildingBlock: ZUJKAS_clean_linker_0, # of connection points: 2
#     Edge 21, Type (0, 0), BuildingBlock: ZUJKAS_clean_linker_0, # of connection points: 2
#     Edge 22, Type (0, 0), BuildingBlock: ZUJKAS_clean_linker_0, # of connection points: 2
#     Edge 23, Type (0, 0), BuildingBlock: ZUJKAS_clean_linker_0, # of connection points: 2
#     Edge 24, Type (0, 0), BuildingBlock: ZUJKAS_clean_linker_0, # of connection points: 2
#     Edge 25, Type (0, 0), BuildingBlock: ZUJKAS_clean_linker_0, # of connection points: 2
#     Edge 26, Type (0, 0), BuildingBlock: ZUJKAS_clean_linker_0, # of connection points: 2
#     Edge 27, Type (0, 0), BuildingBlock: ZUJKAS_clean_linker_0, # of connection points: 2
#     Edge 28, Type (0, 0), BuildingBlock: ZUJKAS_clean_linker_0, # of connection points: 2
#     Edge 29, Type (0, 0), BuildingBlock: ZUJKAS_clean_linker_0, # of connection points: 2
#     Edge 30, Type (0, 0), BuildingBlock: ZUJKAS_clean_linker_0, # of connection points: 2
#     Edge 31, Type (0, 0), BuildingBlock: ZUJKAS_clean_linker_0, # of connection points: 2
#     Edge 32, Type (0, 0), BuildingBlock: ZUJKAS_clean_linker_0, # of connection points: 2
#     Edge 33, Type (0, 0), BuildingBlock: ZUJKAS_clean_linker_0, # of connection points: 2
#     Edge 34, Type (0, 0), BuildingBlock: ZUJKAS_clean_linker_0, # of connection points: 2
#     Edge 35, Type (0, 0), BuildingBlock: ZUJKAS_clean_linker_0, # of connection points: 2
#     Edge 36, Type (0, 0), BuildingBlock: ZUJKAS_clean_linker_0, # of connection points: 2
#     Edge 37, Type (0, 0), BuildingBlock: ZUJKAS_clean_linker_0, # of connection points: 2
#     Edge 38, Type (0, 0), BuildingBlock: ZUJKAS_clean_linker_0, # of connection points: 2
#     Edge 39, Type (0, 0), BuildingBlock: ZUJKAS_clean_linker_0, # of connection points: 2
#     Edge 40, Type (0, 0), BuildingBlock: ZUJKAS_clean_linker_0, # of connection points: 2
#     Edge 41, Type (0, 0), BuildingBlock: ZUJKAS_clean_linker_0, # of connection points: 2
#     Edge 42, Type (0, 0), BuildingBlock: ZUJKAS_clean_linker_0, # of connection points: 2
#     Edge 43, Type (0, 0), BuildingBlock: ZUJKAS_clean_linker_0, # of connection points: 2
#     Edge 44, Type (0, 0), BuildingBlock: ZUJKAS_clean_linker_0, # of connection points: 2
#     Edge 45, Type (0, 0), BuildingBlock: ZUJKAS_clean_linker_0, # of connection points: 2
#     Edge 46, Type (0, 0), BuildingBlock: ZUJKAS_clean_linker_0, # of connection points: 2
#     Edge 47, Type (0, 0), BuildingBlock: ZUJKAS_clean_linker_0, # of connection points: 2
# Relax obj value: 0.044
# Max RMSD: 0.111
# Mean RMSD: 0.094
data_MOF--net-und--node1-QUQFOY_clean_sbu_1--edge1-ZUJKAS_clean_linker_0
_symmetry_space_group_name_H-M    P1
_symmetry_Int_Tables_number       1
_symmetry_cell_setting            triclinic
loop_
_symmetry_equiv_pos_as_xyz
'x, y, z'
_cell_length_a     80.130238
_cell_length_b     80.019912
_cell_length_c     29.236962
_cell_angle_alpha  89.988623
_cell_angle_beta   90.040189
_cell_angle_gamma 95.091839
loop_
_atom_site_label
_atom_site_type_symbol
_atom_site_fract_x
_atom_site_fract_y
_atom_site_fract_z
_atom_type_partial_charge
O0 O 0.25897 0.35087 0.96435 0.0
Cd1 Cd 0.26393 0.36825 0.0153 0.0
Cd2 Cd 0.23908 0.38236 0.9703 0.0
O3 O 0.23673 0.36031 0.93246 0.0
O4 O 0.27833 0.35569 0.0559 0.0
O5 O 0.25367 0.36327 0.07748 0.0
C6 C 0.2666 0.35523 0.08607 0.0
C7 C 0.21654 0.39279 0.00841 0.0
C8 C 0.24723 0.34931 0.93512 0.0
C9 C 0.27351 0.40108 0.96963 0.0
O10 O 0.2587 0.39981 0.95354 0.0
O11 O 0.27804 0.39022 0.99779 0.0
O12 O 0.21815 0.394 0.96457 0.0
O13 O 0.22747 0.38498 0.03059 0.0
O14 O 0.89811 0.03814 0.30065 0.0
Cd15 Cd 0.91665 0.05682 0.28406 0.0
Cd16 Cd 0.92864 0.03159 0.23936 0.0
O17 O 0.90545 0.0191 0.25189 0.0
O18 O 0.90636 0.07855 0.29102 0.0
O19 O 0.91426 0.06886 0.22432 0.0
C20 C 0.9072 0.08015 0.24711 0.0
C21 C 0.94197 0.03232 0.1684 0.0
C22 C 0.89536 0.02383 0.2818 0.0
C23 C 0.94803 0.04505 0.32131 0.0
O24 O 0.94511 0.03301 0.2933 0.0
O25 O 0.93891 0.05729 0.32108 0.0
O26 O 0.93999 0.0187 0.1921 0.0
O27 O 0.93535 0.04537 0.1837 0.0
O28 O 0.25373 0.72619 0.46543 0.0
Cd29 Cd 0.25213 0.70955 0.51902 0.0
Cd30 Cd 0.27727 0.69751 0.47391 0.0
O31 O 0.27779 0.71979 0.43683 0.0
O32 O 0.23902 0.72081 0.56605 0.0
O33 O 0.2656 0.71612 0.57531 0.0
C34 C 0.25251 0.7227 0.5903 0.0
C35 C 0.30021 0.68839 0.51327 0.0
C36 C 0.26565 0.72905 0.43712 0.0
C37 C 0.24432 0.67625 0.47604 0.0
O38 O 0.25863 0.67894 0.45728 0.0
O39 O 0.23961 0.68639 0.50591 0.0
O40 O 0.29908 0.6872 0.4693 0.0
O41 O 0.28868 0.69558 0.53465 0.0
O42 O 0.61934 0.03798 0.80597 0.0
Cd43 Cd 0.60136 0.01887 0.79022 0.0
Cd44 Cd 0.58855 0.04309 0.74185 0.0
O45 O 0.61137 0.05644 0.75631 0.0
O46 O 0.61206 0.99733 0.79603 0.0
O47 O 0.60336 0.00705 0.7301 0.0
C48 C 0.61078 0.99581 0.75216 0.0
C49 C 0.57588 0.04283 0.66983 0.0
C50 C 0.6216 0.05224 0.7867 0.0
C51 C 0.5692 0.02943 0.82463 0.0
O52 O 0.57116 0.04064 0.79386 0.0
O53 O 0.5795 0.01828 0.82825 0.0
O54 O 0.57723 0.05615 0.6948 0.0
O55 O 0.5828 0.02986 0.68445 0.0
O56 O 0.77786 0.72709 0.95154 0.0
Cd57 Cd 0.78382 0.71209 0.0054 0.0
Cd58 Cd 0.75043 0.70638 0.00948 0.0
O59 O 0.7508 0.71925 0.94796 0.0
O60 O 0.80719 0.70631 0.99368 0.0
O61 O 0.7852 0.68752 0.99287 0.0
C62 C 0.8011 0.69104 0.9867 0.0
C63 C 0.73328 0.68171 0.02335 0.0
C64 C 0.7637 0.7278 0.93234 0.0
C65 C 0.76799 0.72573 0.08725 0.0
O66 O 0.75437 0.72091 0.06705 0.0
O67 O 0.78196 0.7225 0.07014 0.0
O68 O 0.72714 0.69595 0.01836 0.0
O69 O 0.74921 0.68124 0.01744 0.0
O70 O 0.07081 0.01991 0.80569 0.0
Cd71 Cd 0.08604 0.01446 0.75179 0.0
Cd72 Cd 0.09134 0.04772 0.74998 0.0
O73 O 0.07906 0.04684 0.81228 0.0
O74 O 0.09188 0.99099 0.76247 0.0
O75 O 0.11053 0.01307 0.76521 0.0
C76 C 0.10705 0.9971 0.77047 0.0
C77 C 0.11606 0.06459 0.73503 0.0
C78 C 0.07033 0.03382 0.8265 0.0
C79 C 0.07189 0.03083 0.67169 0.0
O80 O 0.07617 0.04425 0.69355 0.0
O81 O 0.07592 0.01681 0.68677 0.0
O82 O 0.10203 0.07097 0.74153 0.0
O83 O 0.11631 0.04857 0.7401 0.0
O84 O 0.73752 0.34916 0.46166 0.0
Cd85 Cd 0.73347 0.36624 0.51232 0.0
Cd86 Cd 0.76603 0.37208 0.50449 0.0
O87 O 0.76277 0.35995 0.44196 0.0
O88 O 0.70998 0.37248 0.5048 0.0
O89 O 0.73236 0.39031 0.49396 0.0
C90 C 0.71626 0.38723 0.49259 0.0
C91 C 0.7827 0.39715 0.51671 0.0
C92 C 0.75008 0.34953 0.43502 0.0
C93 C 0.7524 0.35353 0.5883 0.0
O94 O 0.7647 0.35679 0.56135 0.0
O95 O 0.73807 0.35817 0.5781 0.0
O96 O 0.78923 0.38338 0.50733 0.0
O97 O 0.76657 0.39694 0.51582 0.0
O98 O 0.44781 0.05989 0.30945 0.0
Cd99 Cd 0.43331 0.06688 0.25587 0.0
Cd100 Cd 0.42722 0.03335 0.24651 0.0
O101 O 0.4408 0.03262 0.30694 0.0
O102 O 0.42771 0.09014 0.27005 0.0
O103 O 0.4087 0.06835 0.26715 0.0
C104 C 0.41234 0.08413 0.27533 0.0
C105 C 0.40273 0.01588 0.23293 0.0
C106 C 0.44891 0.04526 0.32544 0.0
C107 C 0.44644 0.05253 0.17098 0.0
O108 O 0.44085 0.03851 0.18781 0.0
O109 O 0.44429 0.06615 0.19172 0.0
O110 O 0.41718 0.01003 0.23534 0.0
O111 O 0.40199 0.03165 0.24119 0.0
O112 O 0.76192 0.85164 0.46526 0.0
Cd113 Cd 0.76403 0.86871 0.51784 0.0
Cd114 Cd 0.73924 0.88123 0.47131 0.0
O115 O 0.73877 0.85916 0.43353 0.0
O116 O 0.77711 0.85742 0.56492 0.0
O117 O 0.75072 0.86265 0.57475 0.0
C118 C 0.76372 0.85585 0.58955 0.0
C119 C 0.71621 0.89019 0.51043 0.0
C120 C 0.75035 0.84927 0.43563 0.0
C121 C 0.77241 0.90203 0.47435 0.0
O122 O 0.75802 0.89973 0.45584 0.0
O123 O 0.77701 0.89162 0.50369 0.0
O124 O 0.71748 0.89161 0.46654 0.0
O125 O 0.72767 0.88288 0.53183 0.0
O126 O 0.39759 0.53948 0.80253 0.0
Cd127 Cd 0.41557 0.55891 0.78928 0.0
Cd128 Cd 0.42945 0.53506 0.741 0.0
O129 O 0.40722 0.52086 0.75608 0.0
O130 O 0.4045 0.58022 0.79576 0.0
O131 O 0.41394 0.57129 0.72982 0.0
C132 C 0.40616 0.5822 0.75211 0.0
C133 C 0.44165 0.53569 0.66841 0.0
C134 C 0.39624 0.52499 0.78437 0.0
C135 C 0.44822 0.54915 0.82416 0.0
O136 O 0.44694 0.53826 0.79248 0.0
O137 O 0.43724 0.5596 0.82857 0.0
O138 O 0.44107 0.52244 0.69364 0.0
O139 O 0.43431 0.54836 0.68327 0.0
O140 O 0.75618 0.22571 0.9607 0.0
Cd141 Cd 0.75308 0.20916 0.01445 0.0
Cd142 Cd 0.77846 0.19667 0.97081 0.0
O143 O 0.78042 0.21902 0.93431 0.0
O144 O 0.73855 0.2215 0.05523 0.0
O145 O 0.76411 0.2158 0.07467 0.0
C146 C 0.75083 0.22321 0.08382 0.0
C147 C 0.8008 0.18668 0.01089 0.0
C148 C 0.7685 0.22851 0.93368 0.0
C149 C 0.74496 0.17624 0.96996 0.0
O150 O 0.75937 0.1789 0.95174 0.0
O151 O 0.74031 0.18615 1.00053 0.0
O152 O 0.79983 0.18564 0.96688 0.0
O153 O 0.78936 0.19408 0.0321 0.0
O154 O 0.11874 0.54038 0.29981 0.0
Cd155 Cd 0.10024 0.52169 0.28296 0.0
Cd156 Cd 0.08797 0.54712 0.23916 0.0
O157 O 0.111 0.5598 0.25274 0.0
O158 O 0.11067 0.49996 0.28816 0.0
O159 O 0.10232 0.51013 0.22245 0.0
C160 C 0.10954 0.49869 0.24422 0.0
C161 C 0.07471 0.5473 0.16809 0.0
C162 C 0.12127 0.55488 0.28194 0.0
C163 C 0.06868 0.53281 0.32059 0.0
O164 O 0.07139 0.54492 0.29273 0.0
O165 O 0.07808 0.52079 0.32036 0.0
O166 O 0.07633 0.5605 0.19355 0.0
O167 O 0.08166 0.5342 0.1817 0.0
O168 O 0.28024 0.2301 0.4645 0.0
Cd169 Cd 0.28464 0.21285 0.51429 0.0
Cd170 Cd 0.2519 0.20671 0.50797 0.0
O171 O 0.25462 0.21979 0.44666 0.0
O172 O 0.30803 0.2066 0.50552 0.0
O173 O 0.28556 0.1888 0.49557 0.0
C174 C 0.30165 0.19186 0.49352 0.0
C175 C 0.23486 0.1817 0.51781 0.0
C176 C 0.26734 0.23011 0.43918 0.0
C177 C 0.26616 0.22473 0.5923 0.0
O178 O 0.25357 0.22109 0.56658 0.0
O179 O 0.28058 0.22084 0.58031 0.0
O180 O 0.22857 0.19576 0.51067 0.0
O181 O 0.25096 0.18162 0.51609 0.0
O182 O 0.56915 0.51857 0.30733 0.0
Cd183 Cd 0.58409 0.51188 0.25443 0.0
Cd184 Cd 0.59008 0.54544 0.24612 0.0
O185 O 0.57605 0.54587 0.30575 0.0
O186 O 0.58978 0.48862 0.26841 0.0
O187 O 0.60865 0.51054 0.26693 0.0
C188 C 0.60508 0.49471 0.27459 0.0
C189 C 0.61462 0.56309 0.23477 0.0
C190 C 0.56785 0.53314 0.32351 0.0
C191 C 0.57141 0.52651 0.16922 0.0
O192 O 0.57685 0.54049 0.18662 0.0
O193 O 0.57353 0.51282 0.18972 0.0
O194 O 0.60012 0.56886 0.23641 0.0
O195 O 0.61535 0.54726 0.24229 0.0
O196 O 0.23909 0.85179 0.95257 0.0
Cd197 Cd 0.23392 0.86699 0.00685 0.0
Cd198 Cd 0.26713 0.8723 0.00776 0.0
O199 O 0.26597 0.85999 0.94551 0.0
O200 O 0.21046 0.87293 0.99701 0.0
O201 O 0.23257 0.89153 0.99381 0.0
C202 C 0.21659 0.88812 0.98903 0.0
C203 C 0.2839 0.89722 0.02137 0.0
C204 C 0.25291 0.85129 0.93146 0.0
C205 C 0.25065 0.85279 0.08642 0.0
O206 O 0.26398 0.85713 0.06432 0.0
O207 O 0.23659 0.85681 0.07168 0.0
O208 O 0.29033 0.8832 0.01496 0.0
O209 O 0.26785 0.89731 0.01731 0.0
O210 O 0.947 0.5597 0.80046 0.0
Cd211 Cd 0.93093 0.56447 0.74785 0.0
Cd212 Cd 0.92552 0.5314 0.74985 0.0
O213 O 0.93794 0.53322 0.81203 0.0
O214 O 0.92489 0.58794 0.75727 0.0
O215 O 0.90661 0.56565 0.76343 0.0
C216 C 0.9099 0.5817 0.76711 0.0
C217 C 0.90067 0.51448 0.73685 0.0
C218 C 0.9473 0.54624 0.82347 0.0
C219 C 0.9444 0.54713 0.66903 0.0
O220 O 0.94054 0.53408 0.69285 0.0
O221 O 0.94018 0.5613 0.68236 0.0
O222 O 0.91467 0.5081 0.74397 0.0
O223 O 0.90055 0.53057 0.74015 0.0
H224 H 0.24858 0.35601 0.16592 0.0
H225 H 0.2489 0.33641 0.2305 0.0
H226 H 0.28535 0.30934 0.15981 0.0
H227 H 0.28581 0.3293 0.09709 0.0
H228 H 0.24015 0.30469 0.23658 0.0
H229 H 0.30729 0.31308 0.28012 0.0
H230 H 0.2979 0.3269 0.24096 0.0
H231 H 0.30485 0.3073 0.22122 0.0
C232 C 0.2569 0.34607 0.16476 0.0
C233 C 0.26736 0.34436 0.12681 0.0
C234 C 0.25702 0.33482 0.20152 0.0
C235 C 0.26744 0.32156 0.20063 0.0
C236 C 0.27769 0.31978 0.16234 0.0
H237 H 0.25025 0.22863 0.35759 0.0
H238 H 0.24983 0.2509 0.29997 0.0
C239 C 0.27786 0.33119 0.12626 0.0
C240 C 0.26707 0.30904 0.23838 0.0
H241 H 0.29239 0.28741 0.306 0.0
C242 C 0.25156 0.30108 0.25225 0.0
C243 C 0.2819 0.30447 0.25956 0.0
C244 C 0.29887 0.31355 0.25002 0.0
C245 C 0.25051 0.28842 0.28576 0.0
C246 C 0.26544 0.28302 0.30449 0.0
C247 C 0.28091 0.29127 0.29127 0.0
C248 C 0.26547 0.26929 0.33893 0.0
C249 C 0.23338 0.28131 0.30128 0.0
C250 C 0.27495 0.27185 0.37914 0.0
C251 C 0.27573 0.25897 0.41098 0.0
C252 C 0.26677 0.24328 0.40393 0.0
C253 C 0.25717 0.24065 0.36397 0.0
C254 C 0.25678 0.25345 0.33132 0.0
H255 H 0.22385 0.29038 0.29564 0.0
H256 H 0.2295 0.26988 0.28109 0.0
H257 H 0.23335 0.27792 0.33811 0.0
H258 H 0.28177 0.28389 0.38604 0.0
H259 H 0.28312 0.26143 0.44171 0.0
H260 H 0.96697 0.0189 0.33631 0.0
H261 H 0.98868 0.01663 0.39369 0.0
H262 H 0.98252 0.06694 0.43951 0.0
H263 H 0.96031 0.06919 0.3827 0.0
H264 H 0.01851 0.03403 0.4071 0.0
H265 H 0.97776 0.04107 0.55797 0.0
H266 H 0.96945 0.03787 0.50098 0.0
H267 H 0.97807 0.05837 0.51883 0.0
C268 C 0.97018 0.02953 0.35853 0.0
C269 C 0.96177 0.04421 0.35508 0.0
C270 C 0.98264 0.02819 0.39135 0.0
C271 C 0.98705 0.04148 0.42147 0.0
C272 C 0.97904 0.05635 0.41738 0.0
H273 H 0.06097 0.05893 0.63336 0.0
H274 H 0.04114 0.06072 0.57076 0.0
C275 C 0.96642 0.05767 0.38469 0.0
C276 C 1.00002 0.03963 0.45701 0.0
H277 H 1.00694 0.04098 0.57232 0.0
C278 C 0.01595 0.03547 0.44324 0.0
C279 C 0.99663 0.04134 0.50422 0.0
C280 C 0.97951 0.04474 0.52151 0.0
C281 C 0.02865 0.03333 0.47534 0.0
C282 C 0.02531 0.03539 0.52229 0.0
C283 C 0.00941 0.03944 0.53616 0.0
C284 C 0.03833 0.03405 0.55769 0.0
C285 C 0.04566 0.02922 0.45903 0.0
C286 C 0.04346 0.0184 0.57072 0.0
C287 C 0.05481 0.01726 0.6069 0.0
C288 C 0.06118 0.03179 0.63048 0.0
C289 C 0.05633 0.04746 0.61616 0.0
C290 C 0.04497 0.04855 0.58036 0.0
H291 H 0.0468 0.02985 0.42119 0.0
H292 H 0.0556 0.03802 0.47446 0.0
H293 H 0.04788 0.01636 0.47029 0.0
H294 H 0.03835 0.00706 0.55371 0.0
H295 H 0.05825 1.00502 0.61708 0.0
H296 H 0.28031 0.7348 0.63852 0.0
H297 H 0.28182 0.75645 0.6979 0.0
H298 H 0.22808 0.75709 0.69361 0.0
H299 H 0.22649 0.73575 0.6337 0.0
H300 H 0.24439 0.78833 0.68417 0.0
H301 H 0.27002 0.75585 0.83299 0.0
H302 H 0.28221 0.75499 0.78166 0.0
H303 H 0.26136 0.74467 0.78357 0.0
C304 C 0.26878 0.73929 0.65094 0.0
C305 C 0.25328 0.73358 0.63133 0.0
C306 C 0.26967 0.75164 0.68499 0.0
C307 C 0.25505 0.75832 0.70041 0.0
C308 C 0.23952 0.75212 0.6822 0.0
H309 H 0.22697 0.83392 0.88662 0.0
H310 H 0.22853 0.81227 0.82839 0.0
C311 C 0.23863 0.73987 0.64805 0.0
C312 C 0.25596 0.77269 0.7327 0.0
H313 H 0.26812 0.78516 0.84034 0.0
C314 C 0.24955 0.78761 0.71835 0.0
C315 C 0.26283 0.77179 0.77714 0.0
C316 C 0.26937 0.75593 0.79502 0.0
C317 C 0.24974 0.80162 0.74726 0.0
C318 C 0.25637 0.80064 0.79185 0.0
C319 C 0.26309 0.78586 0.80601 0.0
C320 C 0.2556 0.81449 0.82517 0.0
C321 C 0.2429 0.8174 0.72982 0.0
C322 C 0.27034 0.82293 0.84267 0.0
C323 C 0.2695 0.83541 0.87595 0.0
C324 C 0.25391 0.83948 0.89271 0.0
C325 C 0.23919 0.83115 0.87445 0.0
C326 C 0.24004 0.81878 0.84105 0.0
H327 H 0.24225 0.81761 0.69186 0.0
H328 H 0.23003 0.81806 0.74328 0.0
H329 H 0.25072 0.82872 0.74167 0.0
H330 H 0.28247 0.81973 0.83091 0.0
H331 H 0.28108 0.8415 0.88949 0.0
H332 H 0.44261 0.03097 0.09923 0.0
H333 H 0.46231 0.02779 0.03669 0.0
H334 H 0.49424 0.06984 0.08845 0.0
H335 H 0.47401 0.07365 0.14961 0.0
H336 H 0.49512 0.07019 0.99973 0.0
H337 H 0.50406 1.00552 0.05526 0.0
H338 H 0.48269 0.00761 0.04007 0.0
H339 H 0.49195 0.01919 0.08803 0.0
C340 C 0.45369 0.03972 0.09671 0.0
C341 C 0.45686 0.05249 0.12935 0.0
C342 C 0.46505 0.03776 0.06131 0.0
C343 C 0.4801 0.04815 0.05882 0.0
C344 C 0.48282 0.06153 0.08992 0.0
H345 H 0.56833 0.0195 0.91415 0.0
H346 H 0.54682 0.02435 0.97098 0.0
C347 C 0.47123 0.06375 0.12474 0.0
C348 C 0.49317 0.04477 0.0247 0.0
H349 H 0.5159 0.01393 0.9833 0.0
C350 C 0.49972 0.0579 0.9963 0.0
C351 C 0.49953 0.02885 0.02088 0.0
C352 C 0.49433 0.01456 0.05304 0.0
C353 C 0.5122 0.05551 0.96382 0.0
C354 C 0.51781 0.03932 0.95813 0.0
C355 C 0.51145 0.02627 0.98702 0.0
C356 C 0.53051 0.03571 0.92315 0.0
C357 C 0.51955 0.07053 0.93704 0.0
C358 C 0.52831 0.03994 0.87705 0.0
C359 C 0.54073 0.0375 0.84485 0.0
C360 C 0.55537 0.03024 0.85774 0.0
C361 C 0.55715 0.02507 0.90325 0.0
C362 C 0.54488 0.02789 0.93574 0.0
H363 H 0.51813 0.08242 0.95566 0.0
H364 H 0.53307 0.06974 0.92991 0.0
H365 H 0.51281 0.07115 0.904 0.0
H366 H 0.51707 0.04535 0.86599 0.0
H367 H 0.53894 0.04141 0.80984 0.0
H368 H 0.27868 0.84089 0.12231 0.0
H369 H 0.28055 0.82101 0.18461 0.0
H370 H 0.22731 0.82046 0.20715 0.0
H371 H 0.2252 0.84013 0.14345 0.0
H372 H 0.27355 0.82198 0.27432 0.0
H373 H 0.23271 0.77109 0.19104 0.0
H374 H 0.24037 0.78994 0.16114 0.0
H375 H 0.22283 0.79012 0.19943 0.0
C376 C 0.26731 0.83664 0.14049 0.0
C377 C 0.25173 0.84201 0.12746 0.0
C378 C 0.26844 0.82525 0.17625 0.0
C379 C 0.25404 0.81896 0.20001 0.0
C380 C 0.23854 0.82481 0.18852 0.0
H381 H 0.23967 0.74828 0.42347 0.0
H382 H 0.23743 0.77041 0.36707 0.0
C383 C 0.23737 0.83617 0.15235 0.0
C384 C 0.25544 0.80607 0.23609 0.0
H385 H 0.24208 0.76581 0.26603 0.0
C386 C 0.26667 0.80969 0.27245 0.0
C387 C 0.24657 0.78998 0.23346 0.0
C388 C 0.23506 0.78494 0.19398 0.0
C389 C 0.26916 0.79772 0.30637 0.0
C390 C 0.26022 0.78173 0.30378 0.0
C391 C 0.24892 0.77812 0.26775 0.0
C392 C 0.26211 0.76866 0.33878 0.0
C393 C 0.28115 0.80226 0.34511 0.0
C394 C 0.27679 0.76033 0.34145 0.0
C395 C 0.27812 0.74752 0.37362 0.0
C396 C 0.2648 0.74292 0.4037 0.0
C397 C 0.25021 0.75149 0.40101 0.0
C398 C 0.24886 0.76414 0.36874 0.0
H399 H 0.28526 0.81588 0.34579 0.0
H400 H 0.27524 0.79862 0.37841 0.0
H401 H 0.2924 0.79523 0.34125 0.0
H402 H 0.2871 0.76358 0.31824 0.0
H403 H 0.2895 0.74117 0.37472 0.0
H404 H 0.465 0.06965 0.37862 0.0
H405 H 0.48654 0.06651 0.43621 0.0
H406 H 0.4814 0.01292 0.41651 0.0
H407 H 0.45977 0.01591 0.35834 0.0
H408 H 0.48476 0.04692 0.51873 0.0
H409 H 0.53223 0.02703 0.39585 0.0
H410 H 0.514 0.03699 0.37753 0.0
H411 H 0.51195 0.01541 0.39501 0.0
C412 C 0.46833 0.05716 0.38663 0.0
C413 C 0.4607 0.04303 0.36363 0.0
C414 C 0.48066 0.0554 0.41958 0.0
C415 C 0.48574 0.03953 0.43005 0.0
C416 C 0.47783 0.02531 0.40832 0.0
H417 H 0.56524 0.01515 0.61874 0.0
H418 H 0.54357 0.01334 0.5592 0.0
C419 C 0.46538 0.02704 0.37539 0.0
C420 C 0.49941 0.03808 0.46361 0.0
H421 H 0.54032 0.02953 0.47325 0.0
C422 C 0.49687 0.04303 0.50889 0.0
C423 C 0.51518 0.03294 0.45061 0.0
C424 C 0.51865 0.02788 0.40207 0.0
C425 C 0.50973 0.04315 0.5415 0.0
C426 C 0.52569 0.03856 0.52819 0.0
C427 C 0.52811 0.03314 0.48323 0.0
C428 C 0.54006 0.03983 0.56038 0.0
C429 C 0.5061 0.04816 0.59001 0.0
C430 C 0.54577 0.05543 0.57922 0.0
C431 C 0.5581 0.0565 0.61312 0.0
C432 C 0.56508 0.04201 0.6286 0.0
C433 C 0.56011 0.02654 0.60759 0.0
C434 C 0.54769 0.02547 0.57368 0.0
H435 H 0.49245 0.0467 0.59747 0.0
H436 H 0.51263 0.04055 0.61497 0.0
H437 H 0.51059 0.06155 0.5951 0.0
H438 H 0.54033 0.06672 0.56862 0.0
H439 H 0.56174 0.06863 0.62829 0.0
H440 H 0.23681 0.2308 0.63352 0.0
H441 H 0.2327 0.25059 0.69515 0.0
H442 H 0.28617 0.26165 0.70692 0.0
H443 H 0.29046 0.24186 0.64484 0.0
H444 H 0.24506 0.25297 0.78737 0.0
H445 H 0.26749 0.30763 0.67943 0.0
H446 H 0.26182 0.28706 0.65583 0.0
H447 H 0.28158 0.29144 0.68435 0.0
C448 C 0.24774 0.23729 0.64949 0.0
C449 C 0.26397 0.23486 0.63394 0.0
C450 C 0.24535 0.24858 0.68476 0.0
C451 C 0.25911 0.25778 0.70499 0.0
C452 C 0.27538 0.25484 0.69118 0.0
H453 H 0.26388 0.32125 0.94272 0.0
H454 H 0.26515 0.29862 0.88745 0.0
C455 C 0.27781 0.24344 0.65596 0.0
C456 C 0.25629 0.27091 0.73911 0.0
H457 H 0.26084 0.31328 0.75637 0.0
C458 C 0.24851 0.26616 0.78067 0.0
C459 C 0.2605 0.28812 0.7298 0.0
C460 C 0.26818 0.29397 0.68482 0.0
C461 C 0.24517 0.27817 0.8137 0.0
C462 C 0.24984 0.29533 0.80493 0.0
C463 C 0.2573 0.30011 0.76298 0.0
C464 C 0.24789 0.30848 0.8397 0.0
C465 C 0.23659 0.27242 0.85758 0.0
C466 C 0.23777 0.32161 0.83111 0.0
C467 C 0.23698 0.33465 0.86281 0.0
C468 C 0.24652 0.33487 0.90324 0.0
C469 C 0.25639 0.32151 0.91192 0.0
C470 C 0.25707 0.30848 0.88049 0.0
H471 H 0.22994 0.2597 0.85408 0.0
H472 H 0.24611 0.27192 0.885 0.0
H473 H 0.22745 0.2813 0.86846 0.0
H474 H 0.23067 0.32186 0.79962 0.0
H475 H 0.22934 0.34479 0.85502 0.0
H476 H 0.05282 0.00801 0.87154 0.0
H477 H 0.03108 0.00978 0.92938 0.0
H478 H 0.03885 0.06377 0.92638 0.0
H479 H 0.06069 0.06217 0.86821 0.0
H480 H 0.03321 0.02643 0.01802 0.0
H481 H 0.9877 0.05241 0.89923 0.0
H482 H 1.00549 0.04214 0.87908 0.0
H483 H 0.00843 0.06306 0.90151 0.0
C484 C 0.05003 0.02029 0.88335 0.0
C485 C 0.05846 0.03496 0.86503 0.0
C486 C 0.03759 0.02126 0.9164 0.0
C487 C 0.0332 0.0369 0.93155 0.0
C488 C 0.0419 0.05158 0.91454 0.0
H489 H 0.95417 0.06038 0.12117 0.0
H490 H 0.97614 0.06216 0.06261 0.0
C491 C 0.05446 0.05063 0.88159 0.0
C492 C 0.01937 0.03768 0.96488 0.0
H493 H 0.97908 0.04799 0.9757 0.0
C494 C 0.02139 0.0312 0.00888 0.0
C495 C 1.00402 0.04396 0.95279 0.0
C496 C 1.00112 0.05071 0.90552 0.0
C497 C 0.00843 0.03078 0.04121 0.0
C498 C 0.99287 0.03662 0.02876 0.0
C499 C 0.99097 0.04344 0.98503 0.0
C500 C 0.97841 0.03543 0.06061 0.0
C501 C 0.01158 0.02425 0.08859 0.0
C502 C 0.9719 0.01976 0.07738 0.0
C503 C 0.95941 0.0187 0.11081 0.0
C504 C 0.95304 0.0333 0.12779 0.0
C505 C 0.95882 0.04891 0.10883 0.0
C506 C 0.97141 0.04996 0.07548 0.0
H507 H 0.02519 0.02485 0.09647 0.0
H508 H 1.00534 0.03147 0.115 0.0
H509 H 1.00648 0.01092 0.09086 0.0
H510 H 0.97681 0.00835 0.06546 0.0
H511 H 0.95514 1.00647 0.12438 0.0
H512 H 0.78904 0.7448 0.88443 0.0
H513 H 0.78682 0.76656 0.82677 0.0
H514 H 0.73295 0.75984 0.83579 0.0
H515 H 0.73501 0.73798 0.89385 0.0
H516 H 0.76896 0.7646 0.74017 0.0
H517 H 0.74558 0.81096 0.86106 0.0
H518 H 0.75573 0.79296 0.88036 0.0
H519 H 0.73454 0.79038 0.85993 0.0
C520 C 0.77669 0.74783 0.874 0.0
C521 C 0.76219 0.73969 0.89396 0.0
C522 C 0.77546 0.76029 0.84104 0.0
C523 C 0.75974 0.76498 0.82761 0.0
C524 C 0.74521 0.75656 0.84628 0.0
H525 H 0.73595 0.84445 0.63894 0.0
H526 H 0.73423 0.8226 0.698 0.0
C527 C 0.74641 0.74399 0.87916 0.0
C528 C 0.75875 0.77879 0.79427 0.0
H529 H 0.74927 0.81944 0.78423 0.0
C530 C 0.76459 0.77657 0.74969 0.0
C531 C 0.75298 0.79435 0.80686 0.0
C532 C 0.74694 0.79746 0.8547 0.0
C533 C 0.7649 0.78953 0.71731 0.0
C534 C 0.75963 0.80529 0.73024 0.0
C535 C 0.7534 0.80739 0.77453 0.0
C536 C 0.76083 0.81975 0.6983 0.0
C537 C 0.77076 0.78618 0.66939 0.0
C538 C 0.77643 0.8259 0.68047 0.0
C539 C 0.77745 0.83831 0.64677 0.0
C540 C 0.76289 0.84496 0.63058 0.0
C541 C 0.74739 0.83957 0.65066 0.0
C542 C 0.74637 0.82706 0.68429 0.0
H543 H 0.76977 0.77254 0.6616 0.0
H544 H 0.76339 0.79259 0.64362 0.0
H545 H 0.78412 0.79101 0.66593 0.0
H546 H 0.78779 0.82074 0.69169 0.0
H547 H 0.7896 0.84229 0.63232 0.0
H548 H 0.76672 0.35189 0.35284 0.0
H549 H 0.76656 0.33035 0.29292 0.0
H550 H 0.73502 0.29648 0.37744 0.0
H551 H 0.73428 0.31818 0.43556 0.0
H552 H 0.7772 0.30098 0.28857 0.0
H553 H 0.7087 0.29208 0.26391 0.0
H554 H 0.71845 0.30889 0.29829 0.0
H555 H 0.71393 0.2882 0.32226 0.0
C556 C 0.7596 0.3399 0.35819 0.0
C557 C 0.75026 0.33681 0.39841 0.0
C558 C 0.75955 0.32758 0.32408 0.0
C559 C 0.75039 0.31189 0.33 0.0
C560 C 0.7416 0.30866 0.37103 0.0
H561 H 0.76907 0.22391 0.16357 0.0
H562 H 0.76899 0.24474 0.22516 0.0
C563 C 0.74128 0.32107 0.40444 0.0
C564 C 0.75029 0.29872 0.29396 0.0
H565 H 0.72438 0.2705 0.23397 0.0
C566 C 0.76564 0.29444 0.27626 0.0
C567 C 0.73521 0.2903 0.27725 0.0
C568 C 0.71817 0.29525 0.29107 0.0
C569 C 0.76634 0.28191 0.24275 0.0
C570 C 0.7513 0.27284 0.228 0.0
C571 C 0.73596 0.27722 0.2456 0.0
C572 C 0.75094 0.25948 0.19237 0.0
C573 C 0.78318 0.27901 0.22261 0.0
C574 C 0.74014 0.26018 0.15469 0.0
C575 C 0.73968 0.24795 0.12063 0.0
C576 C 0.75024 0.23487 0.12289 0.0
C577 C 0.76087 0.23393 0.16086 0.0
C578 C 0.76099 0.24597 0.19573 0.0
H579 H 0.7923 0.2902 0.22672 0.0
H580 H 0.78833 0.26842 0.24074 0.0
H581 H 0.78215 0.27591 0.18565 0.0
H582 H 0.73223 0.2704 0.1511 0.0
H583 H 0.73145 0.24912 0.09161 0.0
H584 H 0.74341 0.24879 0.91972 0.0
H585 H 0.74219 0.27115 0.86376 0.0
H586 H 0.79197 0.26313 0.81766 0.0
H587 H 0.79316 0.24025 0.87315 0.0
H588 H 0.76108 0.30051 0.85217 0.0
H589 H 0.76577 0.2601 0.69913 0.0
H590 H 0.7622 0.25157 0.75575 0.0
H591 H 0.78294 0.25949 0.73837 0.0
C592 C 0.75415 0.25172 0.89776 0.0
C593 C 0.76836 0.2426 0.90073 0.0
C594 C 0.75342 0.26457 0.86578 0.0
C595 C 0.76686 0.26866 0.83601 0.0
C596 C 0.78128 0.25992 0.8396 0.0
H597 H 0.78133 0.34143 0.61746 0.0
H598 H 0.78494 0.32193 0.67998 0.0
C599 C 0.78199 0.24692 0.8715 0.0
C600 C 0.76554 0.28198 0.80118 0.0
H601 H 0.76576 0.28927 0.68606 0.0
C602 C 0.7621 0.29806 0.81584 0.0
C603 C 0.76674 0.27872 0.75376 0.0
C604 C 0.76945 0.26151 0.73567 0.0
C605 C 0.75999 0.31098 0.78439 0.0
C606 C 0.76127 0.30771 0.73713 0.0
C607 C 0.76482 0.29171 0.72243 0.0
C608 C 0.75914 0.32071 0.70209 0.0
C609 C 0.75658 0.32809 0.8018 0.0
C610 C 0.74341 0.32664 0.69415 0.0
C611 C 0.74123 0.33781 0.65814 0.0
C612 C 0.75477 0.34318 0.62951 0.0
C613 C 0.7706 0.33756 0.63868 0.0
C614 C 0.77272 0.32639 0.67441 0.0
H615 H 0.75901 0.32942 0.8391 0.0
H616 H 0.76445 0.33805 0.78339 0.0
H617 H 0.74326 0.33011 0.79537 0.0
H618 H 0.73272 0.32223 0.71491 0.0
H619 H 0.72888 0.34183 0.65197 0.0
H620 H 0.74057 0.73011 0.13935 0.0
H621 H 0.73819 0.75002 0.2016 0.0
H622 H 0.79105 0.76522 0.19202 0.0
H623 H 0.79358 0.7453 0.12905 0.0
H624 H 0.75468 0.75393 0.28743 0.0
H625 H 0.76791 0.80921 0.17355 0.0
H626 H 0.76277 0.78829 0.15169 0.0
H627 H 0.78339 0.79425 0.17356 0.0
C628 C 0.75177 0.73756 0.15065 0.0
C629 C 0.76726 0.73622 0.12889 0.0
C630 C 0.75036 0.74892 0.18633 0.0
C631 C 0.76437 0.75928 0.20088 0.0
C632 C 0.78003 0.75751 0.18073 0.0
H633 H 0.77119 0.82414 0.43825 0.0
H634 H 0.77386 0.80202 0.38217 0.0
C635 C 0.78148 0.74603 0.14503 0.0
C636 C 0.76227 0.7723 0.23599 0.0
H637 H 0.76373 0.8147 0.25188 0.0
C638 C 0.75671 0.76722 0.27977 0.0
C639 C 0.76463 0.78961 0.22556 0.0
C640 C 0.76987 0.79576 0.17847 0.0
C641 C 0.75364 0.77902 0.31361 0.0
C642 C 0.75632 0.79633 0.30345 0.0
C643 C 0.76171 0.80141 0.25955 0.0
C644 C 0.75405 0.80939 0.3383 0.0
C645 C 0.74729 0.77287 0.35974 0.0
C646 C 0.74209 0.82101 0.33204 0.0
C647 C 0.7405 0.83377 0.36417 0.0
C648 C 0.751 0.83521 0.4028 0.0
C649 C 0.76286 0.82342 0.40897 0.0
C650 C 0.76438 0.81068 0.37705 0.0
H651 H 0.74188 0.7596 0.35837 0.0
H652 H 0.75785 0.77367 0.38442 0.0
H653 H 0.7376 0.78074 0.37288 0.0
H654 H 0.73406 0.82025 0.30216 0.0
H655 H 0.73131 0.84267 0.35828 0.0
H656 H 0.54447 0.50497 0.14518 0.0
H657 H 0.52467 0.50864 0.08296 0.0
H658 H 0.55572 0.55208 0.03587 0.0
H659 H 0.57498 0.54896 0.09947 0.0
H660 H 0.52537 0.55958 0.04104 0.0
H661 H 0.52396 0.49886 0.95037 0.0
H662 H 0.51874 0.49597 0.00959 0.0
H663 H 0.53937 0.50488 0.99366 0.0
C664 C 0.54724 0.51504 0.12085 0.0
C665 C 0.56127 0.52665 0.12703 0.0
C666 C 0.53594 0.51712 0.08515 0.0
C667 C 0.53874 0.53055 0.05422 0.0
C668 C 0.55321 0.54165 0.05925 0.0
H669 H 0.47899 0.53859 0.80826 0.0
H670 H 0.50136 0.53545 0.86351 0.0
C671 C 0.56427 0.53981 0.09546 0.0
C672 C 0.52601 0.53393 0.01902 0.0
H673 H 0.5017 0.51591 0.93328 0.0
C674 C 0.52034 0.55005 0.01716 0.0
C675 C 0.5195 0.52161 0.98746 0.0
C676 C 0.52585 0.50443 0.98501 0.0
C677 C 0.50833 0.55417 0.98503 0.0
C678 C 0.50122 0.54162 0.95498 0.0
C679 C 0.50699 0.52553 0.95656 0.0
C680 C 0.48801 0.54487 0.92107 0.0
C681 C 0.50377 0.57206 0.98302 0.0
C682 C 0.47308 0.55146 0.93466 0.0
C683 C 0.46041 0.55368 0.90275 0.0
C684 C 0.46225 0.54887 0.85695 0.0
C685 C 0.47722 0.54239 0.84336 0.0
C686 C 0.48999 0.54053 0.87498 0.0
H687 H 0.51399 0.58093 0.99683 0.0
H688 H 0.50104 0.57586 0.94746 0.0
H689 H 0.49247 0.57326 0.00426 0.0
H690 H 0.47099 0.55445 0.97018 0.0
H691 H 0.4489 0.55844 0.91431 0.0
H692 H 0.04921 0.55851 0.33551 0.0
H693 H 0.02726 0.56025 0.39234 0.0
H694 H 0.03425 0.51007 0.43779 0.0
H695 H 0.05672 0.50836 0.38151 0.0
H696 H 0.99767 0.54225 0.40468 0.0
H697 H 0.03817 0.53581 0.5566 0.0
H698 H 0.04661 0.53925 0.49986 0.0
H699 H 0.03825 0.51862 0.51724 0.0
C700 C 0.04614 0.5478 0.35753 0.0
C701 C 0.05485 0.53332 0.35413 0.0
C702 C 0.03353 0.54883 0.39002 0.0
C703 C 0.02927 0.53542 0.41987 0.0
C704 C 0.0376 0.52074 0.41585 0.0
H705 H 0.95579 0.51868 0.63409 0.0
H706 H 0.97548 0.51626 0.57151 0.0
C707 C 0.05037 0.51974 0.38348 0.0
C708 C 0.01614 0.53698 0.45507 0.0
H709 H 0.009 0.53581 0.57025 0.0
C710 C 1.00017 0.54089 0.44089 0.0
C711 C 0.01944 0.53536 0.50236 0.0
C712 C 0.03658 0.5322 0.52006 0.0
C713 C 0.98737 0.54295 0.47268 0.0
C714 C 0.99064 0.54109 0.51976 0.0
C715 C 1.00656 0.53719 0.534 0.0
C716 C 0.97762 0.54268 0.55498 0.0
C717 C 0.97034 0.54684 0.45587 0.0
C718 C 0.97215 0.55838 0.56606 0.0
C719 C 0.96088 0.55987 0.60219 0.0
C720 C 0.95493 0.54567 0.62771 0.0
C721 C 0.9601 0.52991 0.61534 0.0
C722 C 0.97139 0.52847 0.57956 0.0
H723 H 0.96913 0.54554 0.41815 0.0
H724 H 0.96038 0.53838 0.47243 0.0
H725 H 0.96822 0.55991 0.46533 0.0
H726 H 0.97697 0.56952 0.54763 0.0
H727 H 0.9572 0.57218 0.61085 0.0
H728 H 0.0674 0.5211 0.10863 0.0
H729 H 0.04626 0.51936 0.0476 0.0
H730 H 0.03573 0.57027 0.07523 0.0
H731 H 0.05679 0.57221 0.13584 0.0
H732 H 1.00688 0.54335 0.07599 0.0
H733 H 0.04663 0.54524 0.91939 0.0
H734 H 0.05168 0.53166 0.96563 0.0
H735 H 0.0543 0.55396 0.97323 0.0
C736 C 0.0608 0.53203 0.10115 0.0
C737 C 0.06377 0.54679 0.12715 0.0
C738 C 0.04873 0.53099 0.06633 0.0
C739 C 0.03946 0.54468 0.05709 0.0
C740 C 0.04277 0.55957 0.08196 0.0
H741 H 0.97094 0.57091 0.85055 0.0
H742 H 0.99278 0.56918 0.90813 0.0
C743 C 0.05486 0.56066 0.11648 0.0
C744 C 0.02564 0.54331 0.02334 0.0
H745 H 0.01734 0.54284 0.90879 0.0
C746 C 0.00912 0.5431 0.03942 0.0
C747 C 0.02869 0.54306 0.97579 0.0
C748 C 0.04626 0.54357 0.95712 0.0
C749 C 0.99552 0.54282 0.00903 0.0
C750 C 0.99857 0.54275 0.96146 0.0
C751 C 0.01508 0.5428 0.94537 0.0
C752 C 0.98487 0.54367 0.92783 0.0
C753 C 0.97802 0.54312 0.02778 0.0
C754 C 0.9731 0.5299 0.9202 0.0
C755 C 0.96056 0.5308 0.88711 0.0
C756 C 0.95958 0.54553 0.86126 0.0
C757 C 0.97125 0.55938 0.86984 0.0
C758 C 0.98381 0.55842 0.9026 0.0
H759 H 0.97797 0.54524 0.06533 0.0
H760 H 0.9715 0.55312 0.0108 0.0
H761 H 0.97076 0.53095 0.02045 0.0
H762 H 0.9738 0.51838 0.93927 0.0
H763 H 0.95182 0.51989 0.88129 0.0
H764 H 0.45602 0.51031 0.62566 0.0
H765 H 0.47627 0.51265 0.5631 0.0
H766 H 0.47112 0.56571 0.55339 0.0
H767 H 0.4508 0.56351 0.61634 0.0
H768 H 0.47392 0.52562 0.47106 0.0
H769 H 0.52203 0.56205 0.57748 0.0
H770 H 0.50387 0.55046 0.60216 0.0
H771 H 0.50177 0.57001 0.57362 0.0
C772 C 0.459 0.52246 0.60988 0.0
C773 C 0.45188 0.53675 0.62618 0.0
C774 C 0.47059 0.52376 0.57414 0.0
C775 C 0.47539 0.53939 0.55421 0.0
C776 C 0.46775 0.55358 0.56887 0.0
H777 H 0.55678 0.56238 0.35644 0.0
H778 H 0.53405 0.56514 0.41134 0.0
C779 C 0.45606 0.55227 0.60456 0.0
C780 C 0.48886 0.54074 0.51934 0.0
H781 H 0.52983 0.55519 0.50273 0.0
C782 C 0.48611 0.53219 0.47779 0.0
C783 C 0.50471 0.54937 0.52824 0.0
C784 C 0.50842 0.55843 0.57286 0.0
C785 C 0.49888 0.53184 0.44506 0.0
C786 C 0.51494 0.53993 0.45465 0.0
C787 C 0.51753 0.54894 0.49558 0.0
C788 C 0.52935 0.53846 0.42351 0.0
C789 C 0.49504 0.5228 0.40047 0.0
C790 C 0.53463 0.52263 0.41351 0.0
C791 C 0.54756 0.521 0.38228 0.0
C792 C 0.55561 0.53522 0.36065 0.0
C793 C 0.55084 0.55117 0.37242 0.0
C794 C 0.53782 0.55277 0.40366 0.0
H795 H 0.4814 0.52179 0.39277 0.0
H796 H 0.50186 0.5293 0.37157 0.0
H797 H 0.499 0.50989 0.40289 0.0
H798 H 0.52859 0.51146 0.42942 0.0
H799 H 0.551 0.50853 0.37443 0.0
H800 H 0.11058 0.49331 0.15169 0.0
H801 H 0.1262 0.47296 0.11101 0.0
H802 H 0.14259 0.45382 0.23979 0.0
H803 H 0.12683 0.47389 0.28066 0.0
H804 H 0.16018 0.47146 0.1148 0.0
H805 H 0.12824 0.41075 0.17172 0.0
H806 H 0.11912 0.43041 0.17903 0.0
H807 H 0.13489 0.42444 0.21811 0.0
C808 C 0.11725 0.48456 0.17139 0.0
C809 C 0.11742 0.48522 0.21947 0.0
C810 C 0.12621 0.47296 0.14807 0.0
C811 C 0.13542 0.4617 0.1723 0.0
C812 C 0.13529 0.46209 0.2203 0.0
H813 H 0.21091 0.39455 0.10085 0.0
H814 H 0.19057 0.4107 0.14005 0.0
C815 C 0.12633 0.47367 0.24364 0.0
C816 C 0.14623 0.45053 0.14746 0.0
H817 H 0.15461 0.40963 0.13435 0.0
C818 C 0.15884 0.45793 0.11873 0.0
C819 C 0.14459 0.43287 0.15288 0.0
C820 C 0.13088 0.42411 0.18177 0.0
C821 C 0.17004 0.44823 0.09603 0.0
C822 C 0.16844 0.43059 0.10156 0.0
C823 C 0.15582 0.42315 0.13018 0.0
C824 C 0.17983 0.41974 0.07784 0.0
C825 C 0.18378 0.45701 0.06723 0.0
C826 C 0.18021 0.41908 0.0299 0.0
C827 C 0.19179 0.40988 0.00744 0.0
C828 C 0.2032 0.40107 0.03247 0.0
C829 C 0.20234 0.40121 0.08054 0.0
C830 C 0.19072 0.41043 0.103 0.0
H831 H 0.18581 0.4706 0.07539 0.0
H832 H 0.19577 0.45127 0.0722 0.0
H833 H 0.18027 0.45577 0.03058 0.0
H834 H 0.17172 0.42591 0.0098 0.0
H835 H 0.19202 0.40998 0.97041 0.0
H836 H 0.76564 0.92884 0.42156 0.0
H837 H 0.78565 0.95054 0.38956 0.0
H838 H 0.82609 0.92862 0.45818 0.0
H839 H 0.8061 0.90711 0.49137 0.0
H840 H 0.82968 0.96247 0.46282 0.0
H841 H 0.81642 0.94253 0.28388 0.0
H842 H 0.79816 0.94794 0.31402 0.0
H843 H 0.80877 0.9302 0.33237 0.0
C844 C 0.77878 0.92869 0.43016 0.0
C845 C 0.78428 0.91614 0.45874 0.0
C846 C 0.79022 0.94104 0.41152 0.0
C847 C 0.80742 0.94094 0.42048 0.0
C848 C 0.81288 0.92885 0.45047 0.0
H849 H 0.88933 0.99028 0.26342 0.0
H850 H 0.86769 0.97054 0.29693 0.0
C851 C 0.80143 0.91657 0.46949 0.0
C852 C 0.81975 0.9533 0.39822 0.0
H853 H 0.83389 0.96781 0.29406 0.0
C854 C 0.83062 0.96363 0.42592 0.0
C855 C 0.82116 0.9546 0.35003 0.0
C856 C 0.81063 0.94312 0.3183 0.0
C857 C 0.84274 0.97535 0.40683 0.0
C858 C 0.84372 0.97709 0.35867 0.0
C859 C 0.83297 0.96663 0.33096 0.0
C860 C 0.85617 0.98931 0.33636 0.0
C861 C 0.85465 0.98541 0.43847 0.0
C862 C 0.85658 1.00651 0.34623 0.0
C863 C 0.869 0.01781 0.32738 0.0
C864 C 0.88113 0.01217 0.29772 0.0
C865 C 0.8802 0.99505 0.28614 0.0
C866 C 0.86784 0.98374 0.30534 0.0
H867 H 0.85534 0.97935 0.47253 0.0
H868 H 0.86747 0.98707 0.42378 0.0
H869 H 0.85018 0.998 0.44369 0.0
H870 H 0.8474 0.01117 0.36902 0.0
H871 H 0.86926 0.03093 0.33667 0.0
H872 H 0.3247 0.67037 0.47813 0.0
H873 H 0.34456 0.65468 0.52032 0.0
H874 H 0.32603 0.67293 0.64764 0.0
H875 H 0.3059 0.68844 0.60576 0.0
H876 H 0.37008 0.66379 0.58258 0.0
H877 H 0.31943 0.62216 0.66385 0.0
H878 H 0.31557 0.63593 0.61689 0.0
H879 H 0.31801 0.64411 0.67402 0.0
C880 C 0.32494 0.67119 0.51511 0.0
C881 C 0.31359 0.68055 0.53857 0.0
C882 C 0.33632 0.6622 0.53918 0.0
C883 C 0.33657 0.66234 0.58718 0.0
C884 C 0.32581 0.67231 0.61064 0.0
H885 H 0.38835 0.60634 0.7898 0.0
H886 H 0.37283 0.6269 0.74993 0.0
C887 C 0.31438 0.68127 0.58661 0.0
C888 C 0.34767 0.6516 0.61255 0.0
H889 H 0.3471 0.61891 0.68792 0.0
C890 C 0.36507 0.65398 0.60562 0.0
C891 C 0.34112 0.63872 0.64243 0.0
C892 C 0.32251 0.63492 0.64953 0.0
C893 C 0.3761 0.644 0.6283 0.0
C894 C 0.36952 0.63115 0.65819 0.0
C895 C 0.35214 0.62882 0.66519 0.0
C896 C 0.38033 0.61974 0.68217 0.0
C897 C 0.39469 0.64746 0.62061 0.0
C898 C 0.38985 0.60893 0.65738 0.0
C899 C 0.39879 0.59714 0.68012 0.0
C900 C 0.39828 0.59585 0.72811 0.0
C901 C 0.38906 0.60699 0.75284 0.0
C902 C 0.38014 0.61875 0.7301 0.0
H903 H 0.39793 0.66026 0.60672 0.0
H904 H 0.40175 0.64609 0.6529 0.0
H905 H 0.39886 0.63829 0.59553 0.0
H906 H 0.38994 0.60922 0.62035 0.0
H907 H 0.40566 0.58869 0.65999 0.0
H908 H 0.71485 0.16413 0.00703 0.0
H909 H 0.69482 0.14209 0.97622 0.0
H910 H 0.72797 0.13536 0.86281 0.0
H911 H 0.74824 0.15691 0.89406 0.0
H912 H 0.67817 0.1413 0.89735 0.0
H913 H 0.71723 0.08764 0.9017 0.0
H914 H 0.72326 0.10717 0.93057 0.0
H915 H 0.72698 0.10509 0.87018 0.0
C916 C 0.71798 0.15779 0.97587 0.0
C917 C 0.73321 0.16221 0.95321 0.0
C918 C 0.70649 0.14523 0.95822 0.0
C919 C 0.70998 0.13687 0.91753 0.0
C920 C 0.72517 0.14128 0.89488 0.0
H921 H 0.63265 0.08269 0.74894 0.0
H922 H 0.65446 0.10324 0.7787 0.0
C923 C 0.73673 0.15369 0.91273 0.0
C924 C 0.6974 0.12413 0.89764 0.0
H925 H 0.69205 0.08388 0.8579 0.0
C926 C 0.68118 0.12871 0.88897 0.0
C927 C 0.70126 0.10764 0.88712 0.0
C928 C 0.71808 0.10152 0.8983 0.0
C929 C 0.66876 0.11734 0.86973 0.0
C930 C 0.67282 0.10106 0.85753 0.0
C931 C 0.689 0.09643 0.8666 0.0
C932 C 0.66025 0.08834 0.83751 0.0
C933 C 0.65132 0.12276 0.86388 0.0
C934 C 0.65679 0.07281 0.85939 0.0
C935 C 0.64461 0.06094 0.84201 0.0
C936 C 0.63552 0.06435 0.80238 0.0
C937 C 0.63932 0.07972 0.77972 0.0
C938 C 0.65168 0.09154 0.79693 0.0
H939 H 0.64917 0.13357 0.88632 0.0
H940 H 0.64962 0.12673 0.82794 0.0
H941 H 0.64167 0.11233 0.87168 0.0
H942 H 0.66329 0.07 0.8906 0.0
H943 H 0.64203 0.04925 0.86041 0.0
H944 H 0.1478 0.54745 0.33488 0.0
H945 H 0.16981 0.56703 0.36731 0.0
H946 H 0.14875 0.60817 0.29943 0.0
H947 H 0.12694 0.58862 0.26582 0.0
H948 H 0.18251 0.61111 0.29466 0.0
H949 H 0.16255 0.59783 0.47353 0.0
H950 H 0.1676 0.5795 0.44301 0.0
H951 H 0.15008 0.59048 0.425 0.0
C952 C 0.14791 0.56065 0.32655 0.0
C953 C 0.13552 0.56648 0.29803 0.0
C954 C 0.16043 0.57185 0.34543 0.0
C955 C 0.16068 0.58912 0.33677 0.0
C956 C 0.14872 0.5949 0.3069 0.0
H957 H 0.21081 0.67039 0.4944 0.0
H958 H 0.19097 0.64885 0.4608 0.0
C959 C 0.13627 0.5837 0.28765 0.0
C960 C 0.17325 0.6012 0.35916 0.0
H961 H 0.18797 0.61503 0.46344 0.0
C962 C 0.18371 0.61198 0.33156 0.0
C963 C 0.1746 0.60252 0.40736 0.0
C964 C 0.163 0.59209 0.439 0.0
C965 C 0.19557 0.62394 0.35076 0.0
C966 C 0.19733 0.62484 0.39893 0.0
C967 C 0.18677 0.61417 0.42654 0.0
C968 C 0.20963 0.6372 0.42135 0.0
C969 C 0.20575 0.63579 0.31922 0.0
C970 C 0.22679 0.6375 0.41149 0.0
C971 C 0.23816 0.64988 0.43037 0.0
C972 C 0.23261 0.66206 0.46007 0.0
C973 C 0.21552 0.66122 0.47165 0.0
C974 C 0.20414 0.64892 0.45241 0.0
H975 H 0.19973 0.63656 0.28513 0.0
H976 H 0.20754 0.64861 0.33399 0.0
H977 H 0.21827 0.63118 0.31404 0.0
H978 H 0.23139 0.62829 0.38866 0.0
H979 H 0.25126 0.65006 0.42109 0.0
H980 H 0.62748 0.97073 0.7894 0.0
H981 H 0.64319 0.95041 0.74922 0.0
H982 H 0.62823 0.97008 0.61971 0.0
H983 H 0.6123 0.99041 0.65964 0.0
H984 H 0.62709 0.93415 0.62338 0.0
H985 H 0.68792 0.96479 0.6848 0.0
H986 H 0.67303 0.95889 0.72911 0.0
H987 H 0.66864 0.97477 0.68848 0.0
C988 C 0.62736 0.97065 0.75236 0.0
C989 C 0.61872 0.9823 0.72775 0.0
C990 C 0.63644 0.95907 0.72945 0.0
C991 C 0.63714 0.95894 0.68149 0.0
C992 C 0.62793 0.97003 0.65675 0.0
H993 H 0.69146 0.90784 0.47516 0.0
H994 H 0.67134 0.92318 0.51713 0.0
C995 C 0.61883 0.98164 0.67965 0.0
C996 C 0.64798 0.94767 0.65727 0.0
H997 H 0.68882 0.93954 0.64348 0.0
C998 C 0.64059 0.93531 0.62771 0.0
C999 C 0.6656 0.94922 0.66295 0.0
C1000 C 0.67434 0.96271 0.69271 0.0
C1001 C 0.65032 0.9243 0.60417 0.0
C1002 C 0.66795 0.92591 0.60973 0.0
C1003 C 0.67531 0.93824 0.63943 0.0
C1004 C 0.67914 0.91535 0.58409 0.0
C1005 C 0.64161 0.91087 0.57421 0.0
C1006 C 0.69037 0.9059 0.60766 0.0
C1007 C 0.702 0.89718 0.58371 0.0
C1008 C 0.70271 0.89782 0.53566 0.0
C1009 C 0.69119 0.90697 0.51212 0.0
C1010 C 0.67959 0.91569 0.53609 0.0
H1011 H 0.62826 0.90813 0.58401 0.0
H1012 H 0.64198 0.91526 0.53819 0.0
H1013 H 0.6479 0.89908 0.57606 0.0
H1014 H 0.69032 0.90551 0.6447 0.0
H1015 H 0.71071 0.89032 0.60294 0.0
H1016 H 0.39223 0.49127 0.7657 0.0
H1017 H 0.37079 0.47055 0.79612 0.0
H1018 H 0.34754 0.50983 0.86624 0.0
H1019 H 0.36907 0.53055 0.83684 0.0
H1020 H 0.35211 0.48359 0.92224 0.0
H1021 H 0.32204 0.46043 0.76065 0.0
H1022 H 0.34428 0.45914 0.76177 0.0
H1023 H 0.33607 0.47933 0.76333 0.0
C1024 C 0.38242 0.49554 0.78707 0.0
C1025 C 0.38238 0.51259 0.7988 0.0
C1026 C 0.37013 0.48367 0.8043 0.0
C1027 C 0.35745 0.48866 0.83308 0.0
C1028 C 0.35719 0.5057 0.84406 0.0
H1029 H 0.26753 0.42764 0.91492 0.0
H1030 H 0.28792 0.44919 0.88398 0.0
C1031 C 0.36951 0.51754 0.82711 0.0
C1032 C 0.34494 0.47607 0.85375 0.0
H1033 H 0.31444 0.44494 0.82806 0.0
C1034 C 0.34382 0.47518 0.90165 0.0
C1035 C 0.33402 0.46522 0.82686 0.0
C1036 C 0.33401 0.46614 0.77531 0.0
C1037 C 0.33221 0.46363 0.92341 0.0
C1038 C 0.32165 0.45244 0.89654 0.0
C1039 C 0.32264 0.45345 0.84864 0.0
C1040 C 0.30929 0.43974 0.91732 0.0
C1041 C 0.33116 0.46378 0.97495 0.0
C1042 C 0.31451 0.42727 0.94653 0.0
C1043 C 0.30285 0.41498 0.96461 0.0
C1044 C 0.28575 0.4148 0.95338 0.0
C1045 C 0.28057 0.42739 0.92435 0.0
C1046 C 0.29223 0.4397 0.9065 0.0
H1047 H 0.33662 0.47589 0.98944 0.0
H1048 H 0.31797 0.46151 0.98666 0.0
H1049 H 0.33831 0.45367 0.98892 0.0
H1050 H 0.32765 0.42684 0.95461 0.0
H1051 H 0.30729 0.40539 0.98651 0.0
H1052 H 0.80588 0.18576 0.10365 0.0
H1053 H 0.82626 0.1704 0.14514 0.0
H1054 H 0.84555 0.15353 0.01716 0.0
H1055 H 0.82548 0.16904 0.97552 0.0
H1056 H 0.82834 0.13657 0.14352 0.0
H1057 H 0.88846 0.16878 0.08403 0.0
H1058 H 0.86867 0.17757 0.07616 0.0
H1059 H 0.87485 0.1616 0.03797 0.0
C1060 C 0.81465 0.17901 0.08431 0.0
C1061 C 0.81407 0.17868 0.03623 0.0
C1062 C 0.82627 0.17021 0.10809 0.0
C1063 C 0.83762 0.16098 0.08431 0.0
C1064 C 0.83723 0.16086 0.03631 0.0
H1065 H 0.90501 0.08593 0.15487 0.0
H1066 H 0.88878 0.1064 0.11649 0.0
C1067 C 0.82565 0.16968 0.01252 0.0
C1068 C 0.84898 0.15048 0.10961 0.0
H1069 H 0.88998 0.14246 0.12185 0.0
C1070 C 0.84183 0.13799 0.13915 0.0
C1071 C 0.8666 0.15225 0.10371 0.0
C1072 C 0.87513 0.16588 0.07409 0.0
C1073 C 0.85172 0.12698 0.16204 0.0
C1074 C 0.8693 0.12865 0.15582 0.0
C1075 C 0.8765 0.1412 0.12654 0.0
C1076 C 0.88032 0.1173 0.1791 0.0
C1077 C 0.8432 0.11333 0.19168 0.0
C1078 C 0.88138 0.11698 0.227 0.0
C1079 C 0.89065 0.10533 0.24903 0.0
C1080 C 0.89911 0.09378 0.22358 0.0
C1081 C 0.89863 0.09462 0.17552 0.0
C1082 C 0.88935 0.1063 0.15351 0.0
H1083 H 0.82955 0.11129 0.18444 0.0
H1084 H 0.84887 0.1013 0.18657 0.0
H1085 H 0.84478 0.11695 0.22816 0.0
H1086 H 0.87476 0.12556 0.24742 0.0
H1087 H 0.89081 0.10511 0.28607 0.0
H1088 H 0.83438 0.69553 0.96527 0.0
H1089 H 0.85149 0.67562 0.92855 0.0
H1090 H 0.80961 0.63787 0.93095 0.0
H1091 H 0.79224 0.65788 0.96692 0.0
H1092 H 0.86079 0.6451 0.95508 0.0
H1093 H 0.82249 0.63828 0.79666 0.0
H1094 H 0.81987 0.65443 0.83845 0.0
H1095 H 0.81105 0.63329 0.84838 0.0
C1096 C 0.82879 0.68297 0.95827 0.0
C1097 C 0.81188 0.67835 0.9688 0.0
C1098 C 0.83861 0.67159 0.93719 0.0
C1099 C 0.83176 0.65534 0.92606 0.0
C1100 C 0.81506 0.65046 0.93811 0.0
H1101 H 0.87747 0.57247 0.79312 0.0
H1102 H 0.85801 0.58992 0.83137 0.0
C1103 C 0.80518 0.66188 0.95908 0.0
C1104 C 0.84218 0.64365 0.90173 0.0
H1105 H 0.84504 0.62121 0.80285 0.0
C1106 C 0.85733 0.63988 0.92181 0.0
C1107 C 0.83768 0.63683 0.85825 0.0
C1108 C 0.82197 0.641 0.83388 0.0
C1109 C 0.86805 0.62948 0.89974 0.0
C1110 C 0.86364 0.62282 0.85611 0.0
C1111 C 0.84839 0.62634 0.83629 0.0
C1112 C 0.87495 0.61252 0.83022 0.0
C1113 C 0.88399 0.62561 0.92344 0.0
C1114 C 0.89071 0.61956 0.81564 0.0
C1115 C 0.9018 0.60968 0.7936 0.0
C1116 C 0.89736 0.59252 0.78563 0.0
C1117 C 0.8813 0.58563 0.79876 0.0
C1118 C 0.87017 0.59557 0.82069 0.0
H1119 H 0.88359 0.62823 0.96072 0.0
H1120 H 0.88635 0.61226 0.91843 0.0
H1121 H 0.8947 0.63354 0.9086 0.0
H1122 H 0.89454 0.63269 0.82192 0.0
H1123 H 0.91403 0.61542 0.78386 0.0
H1124 H 0.2009 0.1789 0.52775 0.0
H1125 H 0.1834 0.15592 0.56277 0.0
H1126 H 0.2264 0.12746 0.57625 0.0
H1127 H 0.24417 0.15068 0.542 0.0
H1128 H 0.17611 0.12287 0.54069 0.0
H1129 H 0.20962 0.12883 0.70746 0.0
H1130 H 0.21288 0.14434 0.66283 0.0
H1131 H 0.2224 0.12489 0.65886 0.0
C1132 C 0.20666 0.1677 0.53765 0.0
C1133 C 0.22398 0.1667 0.53241 0.0
C1134 C 0.19661 0.15455 0.55774 0.0
C1135 C 0.20364 0.14011 0.57306 0.0
C1136 C 0.22078 0.13866 0.56571 0.0
H1137 H 0.14702 0.05493 0.71179 0.0
H1138 H 0.1698 0.072 0.67302 0.0
C1139 C 0.23089 0.15187 0.54571 0.0
C1140 C 0.19294 0.12695 0.59785 0.0
H1141 H 0.18657 0.10847 0.70271 0.0
C1142 C 0.17851 0.1196 0.57595 0.0
C1143 C 0.19604 0.12273 0.644 0.0
C1144 C 0.21099 0.13068 0.66994 0.0
C1145 C 0.16693 0.10848 0.59918 0.0
C1146 C 0.16981 0.10464 0.64552 0.0
C1147 C 0.18449 0.11146 0.66709 0.0
C1148 C 0.15696 0.09465 0.6728 0.0
C1149 C 0.15143 0.10117 0.57446 0.0
C1150 C 0.14251 0.10192 0.68659 0.0
C1151 C 0.12959 0.0923 0.7089 0.0
C1152 C 0.13084 0.07517 0.71772 0.0
C1153 C 0.14568 0.06808 0.70556 0.0
C1154 C 0.15867 0.07778 0.68334 0.0
H1155 H 0.15244 0.103 0.53686 0.0
H1156 H 0.14909 0.08755 0.58181 0.0
H1157 H 0.14043 0.10739 0.58681 0.0
H1158 H 0.14104 0.11496 0.67897 0.0
H1159 H 0.11837 0.09819 0.71779 0.0
H1160 H 0.68239 0.38333 0.47867 0.0
H1161 H 0.66489 0.4029 0.44179 0.0
H1162 H 0.70775 0.43916 0.42865 0.0
H1163 H 0.72547 0.41948 0.4647 0.0
H1164 H 0.65742 0.43447 0.46431 0.0
H1165 H 0.69087 0.43575 0.29787 0.0
H1166 H 0.69424 0.4206 0.34188 0.0
H1167 H 0.704 0.44167 0.34602 0.0
C1168 C 0.68811 0.3955 0.46819 0.0
C1169 C 0.70537 0.39978 0.4744 0.0
C1170 C 0.67807 0.40668 0.44703 0.0
C1171 C 0.68505 0.42238 0.43152 0.0
C1172 C 0.70215 0.42695 0.43922 0.0
H1173 H 0.63827 0.50366 0.29344 0.0
H1174 H 0.6582 0.48657 0.33121 0.0
C1175 C 0.71224 0.41574 0.46023 0.0
C1176 C 0.67434 0.43383 0.40728 0.0
H1177 H 0.66932 0.45397 0.30556 0.0
C1178 C 0.66004 0.43872 0.42961 0.0
C1179 C 0.67774 0.43941 0.36193 0.0
C1180 C 0.69245 0.43399 0.33527 0.0
C1181 C 0.6491 0.44901 0.40797 0.0
C1182 C 0.65241 0.45443 0.36254 0.0
C1183 C 0.66683 0.4498 0.3404 0.0
C1184 C 0.64072 0.46448 0.33716 0.0
C1185 C 0.63411 0.45411 0.434 0.0
C1186 C 0.62445 0.45757 0.32679 0.0
C1187 C 0.61309 0.46724 0.30505 0.0
C1188 C 0.61776 0.48405 0.29316 0.0
C1189 C 0.63426 0.49077 0.30217 0.0
C1190 C 0.64566 0.48104 0.32381 0.0
H1191 H 0.63552 0.45238 0.47147 0.0
H1192 H 0.63209 0.46744 0.42718 0.0
H1193 H 0.62275 0.44624 0.42269 0.0
H1194 H 0.62047 0.44473 0.33608 0.0
H1195 H 0.60052 0.46162 0.29853 0.0
H1196 H 0.40127 0.98263 0.21174 0.0
H1197 H 0.37836 0.96562 0.17465 0.0
H1198 H 0.34785 0.00731 0.17903 0.0
H1199 H 0.37086 0.02463 0.21618 0.0
H1200 H 0.33238 0.9711 0.20564 0.0
H1201 H 0.36423 0.97779 0.03697 0.0
H1202 H 0.37712 0.97276 0.08458 0.0
H1203 H 0.36844 0.99267 0.08295 0.0
C1204 C 0.38963 0.98818 0.20547 0.0
C1205 C 0.38794 1.00504 0.21671 0.0
C1206 C 0.37657 0.97844 0.18412 0.0
C1207 C 0.36154 0.9853 0.17365 0.0
C1208 C 0.35942 1.00185 0.18672 0.0
H1209 H 0.27412 0.92797 0.04649 0.0
H1210 H 0.29164 0.95142 0.08068 0.0
C1211 C 0.37256 0.01169 0.208 0.0
C1212 C 0.34848 0.97523 0.14722 0.0
H1213 H 0.34136 0.95693 0.04276 0.0
C1214 C 0.33413 0.96818 0.16984 0.0
C1215 C 0.3509 0.9715 0.10058 0.0
C1216 C 0.36594 0.97914 0.07454 0.0
C1217 C 0.32251 0.95672 0.14754 0.0
C1218 C 0.32523 0.95253 0.10121 0.0
C1219 C 0.33928 0.96015 0.07821 0.0
C1220 C 0.31459 0.93911 0.07727 0.0
C1221 C 0.30793 0.94854 0.17443 0.0
C1222 C 0.3218 0.92474 0.06219 0.0
C1223 C 0.3119 0.91145 0.04228 0.0
C1224 C 0.29454 0.91224 0.03691 0.0
C1225 C 0.28743 0.92695 0.05026 0.0
C1226 C 0.2974 0.94029 0.07019 0.0
H1227 H 0.30948 0.95064 0.21182 0.0
H1228 H 0.29626 0.9539 0.16356 0.0
H1229 H 0.30638 0.93482 0.16791 0.0
H1230 H 0.33505 0.92359 0.06706 0.0
H1231 H 0.3178 0.90035 0.03232 0.0
H1232 H 0.81676 0.40061 0.52476 0.0
H1233 H 0.83397 0.42318 0.56302 0.0
H1234 H 0.79026 0.4498 0.58531 0.0
H1235 H 0.77279 0.42718 0.54711 0.0
H1236 H 0.82783 0.46751 0.54799 0.0
H1237 H 0.8226 0.43207 0.71215 0.0
H1238 H 0.82515 0.42064 0.65985 0.0
H1239 H 0.80614 0.4303 0.66965 0.0
C1240 C 0.8108 0.41138 0.537 0.0
C1241 C 0.79337 0.41205 0.53302 0.0
C1242 C 0.82067 0.42425 0.55892 0.0
C1243 C 0.81333 0.43804 0.57714 0.0
C1244 C 0.7961 0.43921 0.57141 0.0
H1245 H 0.86986 0.52409 0.71201 0.0
H1246 H 0.84675 0.50659 0.67628 0.0
C1247 C 0.78617 0.4263 0.54951 0.0
C1248 C 0.82364 0.45056 0.60467 0.0
H1249 H 0.8418 0.45616 0.70982 0.0
C1250 C 0.83074 0.46523 0.58356 0.0
C1251 C 0.8274 0.44739 0.65089 0.0
C1252 C 0.81992 0.4318 0.67485 0.0
C1253 C 0.84209 0.47657 0.60714 0.0
C1254 C 0.84616 0.47323 0.65326 0.0
C1255 C 0.83862 0.45875 0.67461 0.0
C1256 C 0.8593 0.48374 0.67862 0.0
C1257 C 0.85025 0.49156 0.58181 0.0
C1258 C 0.87366 0.47656 0.69381 0.0
C1259 C 0.88675 0.48644 0.71468 0.0
C1260 C 0.88577 0.50375 0.72089 0.0
C1261 C 0.87104 0.51081 0.70759 0.0
C1262 C 0.85788 0.50086 0.68676 0.0
H1263 H 0.84846 0.49038 0.54422 0.0
H1264 H 0.8446 0.50302 0.59322 0.0
H1265 H 0.86389 0.49327 0.58916 0.0
H1266 H 0.87499 0.46336 0.68816 0.0
H1267 H 0.89788 0.48057 0.72456 0.0
H1268 H 0.33546 0.19566 0.47883 0.0
H1269 H 0.35279 0.17602 0.44171 0.0
H1270 H 0.30978 0.13989 0.42927 0.0
H1271 H 0.29224 0.15965 0.46559 0.0
H1272 H 0.36011 0.14439 0.46458 0.0
H1273 H 0.32649 0.14315 0.29825 0.0
H1274 H 0.32326 0.15837 0.34216 0.0
H1275 H 0.31343 0.13735 0.34656 0.0
C1276 C 0.32967 0.18351 0.46844 0.0
C1277 C 0.31242 0.17928 0.47495 0.0
C1278 C 0.33961 0.17229 0.44714 0.0
C1279 C 0.33254 0.1566 0.4318 0.0
C1280 C 0.31544 0.15208 0.43973 0.0
H1281 H 0.37909 0.07526 0.29345 0.0
H1282 H 0.35915 0.09237 0.33104 0.0
C1283 C 0.30545 0.16334 0.46089 0.0
C1284 C 0.34317 0.14508 0.40757 0.0
H1285 H 0.34806 0.12496 0.30582 0.0
C1286 C 0.35746 0.14014 0.42989 0.0
C1287 C 0.33971 0.13951 0.36224 0.0
C1288 C 0.32498 0.14497 0.33565 0.0
C1289 C 0.36835 0.12983 0.40822 0.0
C1290 C 0.36501 0.12445 0.36277 0.0
C1291 C 0.35058 0.1291 0.34066 0.0
C1292 C 0.37668 0.11441 0.33735 0.0
C1293 C 0.38334 0.12468 0.43425 0.0
C1294 C 0.39297 0.12129 0.3272 0.0
C1295 C 0.40433 0.11162 0.30559 0.0
C1296 C 0.39965 0.09482 0.29358 0.0
C1297 C 0.38311 0.08814 0.30228 0.0
C1298 C 0.37171 0.09788 0.32381 0.0
H1299 H 0.38191 0.12634 0.47174 0.0
H1300 H 0.38536 0.11136 0.42727 0.0
H1301 H 0.39469 0.13257 0.42311 0.0
H1302 H 0.39697 0.13412 0.33661 0.0
H1303 H 0.41693 0.11721 0.29929 0.0
H1304 H 0.64635 0.55438 0.21646 0.0
H1305 H 0.66988 0.57245 0.18459 0.0
H1306 H 0.6398 0.61453 0.18736 0.0
H1307 H 0.6165 0.59678 0.21964 0.0
H1308 H 0.67023 0.58952 0.10237 0.0
H1309 H 0.68313 0.63453 0.24411 0.0
H1310 H 0.67073 0.61476 0.25169 0.0
H1311 H 0.66139 0.63261 0.22859 0.0
C1312 C 0.64489 0.56756 0.21114 0.0
C1313 C 0.62957 0.57415 0.22079 0.0
C1314 C 0.65831 0.57784 0.19274 0.0
C1315 C 0.65668 0.5949 0.18413 0.0
C1316 C 0.64151 0.60152 0.19465 0.0
H1317 H 0.69973 0.67968 0.04034 0.0
H1318 H 0.6827 0.65693 0.07804 0.0
C1319 C 0.62814 0.5913 0.21294 0.0
C1320 C 0.67028 0.60566 0.16135 0.0
H1321 H 0.6928 0.64382 0.16947 0.0
C1322 C 0.67543 0.60124 0.11736 0.0
C1323 C 0.67711 0.62092 0.181 0.0
C1324 C 0.67293 0.6259 0.22914 0.0
C1325 C 0.68649 0.61214 0.09155 0.0
C1326 C 0.69254 0.62778 0.11035 0.0
C1327 C 0.68799 0.63187 0.15501 0.0
C1328 C 0.70272 0.64062 0.08336 0.0
C1329 C 0.69104 0.6073 0.04361 0.0
C1330 C 0.71957 0.63883 0.0731 0.0
C1331 C 0.72942 0.65188 0.05148 0.0
C1332 C 0.72253 0.6669 0.03991 0.0
C1333 C 0.70546 0.6683 0.04872 0.0
C1334 C 0.69569 0.65533 0.0704 0.0
H1335 H 0.68402 0.5954 0.03242 0.0
H1336 H 0.68846 0.61742 0.01928 0.0
H1337 H 0.70465 0.60573 0.04197 0.0
H1338 H 0.72524 0.6276 0.08318 0.0
H1339 H 0.74255 0.65043 0.04538 0.0
H1340 H 0.18307 0.88383 0.97015 0.0
H1341 H 0.16583 0.90368 0.93352 0.0
H1342 H 0.20807 0.94102 0.93137 0.0
H1343 H 0.22556 0.92108 0.96725 0.0
H1344 H 0.15712 0.93458 0.95891 0.0
H1345 H 0.19396 0.93962 0.79788 0.0
H1346 H 0.19677 0.92377 0.84041 0.0
H1347 H 0.20593 0.94489 0.8486 0.0
C1348 C 0.18871 0.8963 0.96219 0.0
C1349 C 0.20575 0.90081 0.9714 0.0
C1350 C 0.17881 0.90764 0.94116 0.0
C1351 C 0.18572 0.92374 0.92876 0.0
C1352 C 0.20256 0.92853 0.93953 0.0
H1353 H 0.13984 1.00613 0.79364 0.0
H1354 H 0.15943 0.98874 0.83169 0.0
C1355 C 0.2125 0.91716 0.96045 0.0
C1356 C 0.17521 0.93535 0.90439 0.0
H1357 H 0.17171 0.95705 0.80445 0.0
C1358 C 0.16033 0.93949 0.92515 0.0
C1359 C 0.17939 0.94177 0.86027 0.0
C1360 C 0.19479 0.9372 0.8352 0.0
C1361 C 0.14954 0.94986 0.90315 0.0
C1362 C 0.15362 0.95611 0.8589 0.0
C1363 C 0.16862 0.95223 0.83837 0.0
C1364 C 0.14221 0.96635 0.8331 0.0
C1365 C 0.1339 0.95414 0.92759 0.0
C1366 C 0.12623 0.95939 0.82 0.0
C1367 C 0.11506 0.96923 0.79809 0.0
C1368 C 0.11964 0.98628 0.78875 0.0
C1369 C 0.1359 0.99306 0.80035 0.0
C1370 C 0.14711 0.98316 0.82217 0.0
H1371 H 0.13464 0.95185 0.96499 0.0
H1372 H 0.13164 0.96748 0.9219 0.0
H1373 H 0.12297 0.94619 0.91395 0.0
H1374 H 0.12231 0.94636 0.82735 0.0
H1375 H 0.10268 0.96356 0.78953 0.0
loop_
_geom_bond_atom_site_label_1
_geom_bond_atom_site_label_2
_geom_bond_distance
_geom_bond_site_symmetry_2
_ccdc_geom_bond_type
O0 Cd1 2.223 1_556 S
O0 C8 1.315 . S
Cd1 O0 2.223 1_554 S
Cd1 O4 2.297 . S
Cd1 O5 2.439 . S
Cd1 O11 2.240 . S
Cd2 O3 2.240 . S
Cd2 O10 2.223 . S
Cd2 O12 2.297 1_556 S
Cd2 O13 2.439 1_556 S
O3 Cd2 2.240 . S
O3 C8 1.279 . S
O4 Cd1 2.297 . S
O4 C6 1.247 . S
O5 Cd1 2.439 . S
O5 C6 1.208 . S
C6 O4 1.247 . S
C6 O5 1.208 . S
C7 O12 1.247 . S
C7 O13 1.208 . S
C8 O0 1.315 . S
C8 O3 1.279 . S
C9 O10 1.315 . S
C9 O11 1.279 1_556 S
O10 Cd2 2.223 . S
O10 C9 1.315 . S
O11 Cd1 2.240 . S
O11 C9 1.279 1_554 S
O12 Cd2 2.297 1_554 S
O12 C7 1.247 . S
O13 Cd2 2.439 1_554 S
O13 C7 1.208 . S
O14 Cd15 2.223 . S
O14 C22 1.315 . S
Cd15 O14 2.223 . S
Cd15 O18 2.297 . S
Cd15 O19 2.439 . S
Cd15 O25 2.240 . S
Cd16 O17 2.240 . S
Cd16 O24 2.223 . S
Cd16 O26 2.297 . S
Cd16 O27 2.439 . S
O17 Cd16 2.240 . S
O17 C22 1.279 . S
O18 Cd15 2.297 . S
O18 C20 1.247 . S
O19 Cd15 2.439 . S
O19 C20 1.208 . S
C20 O18 1.247 . S
C20 O19 1.208 . S
C21 O26 1.247 . S
C21 O27 1.208 . S
C22 O14 1.315 . S
C22 O17 1.279 . S
C23 O24 1.315 . S
C23 O25 1.279 . S
O24 Cd16 2.223 . S
O24 C23 1.315 . S
O25 Cd15 2.240 . S
O25 C23 1.279 . S
O26 Cd16 2.297 . S
O26 C21 1.247 . S
O27 Cd16 2.439 . S
O27 C21 1.208 . S
O28 Cd29 2.223 . S
O28 C36 1.315 . S
Cd29 O28 2.223 . S
Cd29 O32 2.297 . S
Cd29 O33 2.439 . S
Cd29 O39 2.240 . S
Cd30 O31 2.240 . S
Cd30 O38 2.223 . S
Cd30 O40 2.297 . S
Cd30 O41 2.439 . S
O31 Cd30 2.240 . S
O31 C36 1.279 . S
O32 Cd29 2.297 . S
O32 C34 1.247 . S
O33 Cd29 2.439 . S
O33 C34 1.208 . S
C34 O32 1.247 . S
C34 O33 1.208 . S
C35 O40 1.247 . S
C35 O41 1.208 . S
C36 O28 1.315 . S
C36 O31 1.279 . S
C37 O38 1.315 . S
C37 O39 1.279 . S
O38 Cd30 2.223 . S
O38 C37 1.315 . S
O39 Cd29 2.240 . S
O39 C37 1.279 . S
O40 Cd30 2.297 . S
O40 C35 1.247 . S
O41 Cd30 2.439 . S
O41 C35 1.208 . S
O42 Cd43 2.223 . S
O42 C50 1.315 . S
Cd43 O42 2.223 . S
Cd43 O46 2.297 . S
Cd43 O47 2.439 . S
Cd43 O53 2.240 . S
Cd44 O45 2.240 . S
Cd44 O52 2.223 . S
Cd44 O54 2.297 . S
Cd44 O55 2.439 . S
O45 Cd44 2.240 . S
O45 C50 1.279 . S
O46 Cd43 2.297 . S
O46 C48 1.247 . S
O47 Cd43 2.439 . S
O47 C48 1.208 . S
C48 O46 1.247 . S
C48 O47 1.208 . S
C49 O54 1.247 . S
C49 O55 1.208 . S
C50 O42 1.315 . S
C50 O45 1.279 . S
C51 O52 1.315 . S
C51 O53 1.279 . S
O52 Cd44 2.223 . S
O52 C51 1.315 . S
O53 Cd43 2.240 . S
O53 C51 1.279 . S
O54 Cd44 2.297 . S
O54 C49 1.247 . S
O55 Cd44 2.439 . S
O55 C49 1.208 . S
O56 Cd57 2.223 1_556 S
O56 C64 1.315 . S
Cd57 O56 2.223 1_554 S
Cd57 O60 2.297 1_554 S
Cd57 O61 2.439 1_554 S
Cd57 O67 2.240 . S
Cd58 O59 2.240 1_554 S
Cd58 O66 2.223 . S
Cd58 O68 2.297 . S
Cd58 O69 2.439 . S
O59 Cd58 2.240 1_556 S
O59 C64 1.279 . S
O60 Cd57 2.297 1_556 S
O60 C62 1.247 . S
O61 Cd57 2.439 1_556 S
O61 C62 1.208 . S
C62 O60 1.247 . S
C62 O61 1.208 . S
C63 O68 1.247 . S
C63 O69 1.208 . S
C64 O56 1.315 . S
C64 O59 1.279 . S
C65 O66 1.315 . S
C65 O67 1.279 . S
O66 Cd58 2.223 . S
O66 C65 1.315 . S
O67 Cd57 2.240 . S
O67 C65 1.279 . S
O68 Cd58 2.297 . S
O68 C63 1.247 . S
O69 Cd58 2.439 . S
O69 C63 1.208 . S
O70 Cd71 2.223 . S
O70 C78 1.315 1_565 S
Cd71 O70 2.223 . S
Cd71 O74 2.297 . S
Cd71 O75 2.439 . S
Cd71 O81 2.240 1_565 S
Cd72 O73 2.240 . S
Cd72 O80 2.223 . S
Cd72 O82 2.297 . S
Cd72 O83 2.439 . S
O73 Cd72 2.240 . S
O73 C78 1.279 . S
O74 Cd71 2.297 . S
O74 C76 1.247 . S
O75 Cd71 2.439 . S
O75 C76 1.208 . S
C76 O74 1.247 . S
C76 O75 1.208 . S
C77 O82 1.247 . S
C77 O83 1.208 . S
C78 O70 1.315 1_545 S
C78 O73 1.279 . S
C79 O80 1.315 . S
C79 O81 1.279 . S
O80 Cd72 2.223 . S
O80 C79 1.315 . S
O81 Cd71 2.240 1_545 S
O81 C79 1.279 . S
O82 Cd72 2.297 . S
O82 C77 1.247 . S
O83 Cd72 2.439 . S
O83 C77 1.208 . S
O84 Cd85 2.223 . S
O84 C92 1.315 . S
Cd85 O84 2.223 . S
Cd85 O88 2.297 . S
Cd85 O89 2.439 . S
Cd85 O95 2.240 . S
Cd86 O87 2.240 . S
Cd86 O94 2.223 . S
Cd86 O96 2.297 . S
Cd86 O97 2.439 . S
O87 Cd86 2.240 . S
O87 C92 1.279 . S
O88 Cd85 2.297 . S
O88 C90 1.247 . S
O89 Cd85 2.439 . S
O89 C90 1.208 . S
C90 O88 1.247 . S
C90 O89 1.208 . S
C91 O96 1.247 . S
C91 O97 1.208 . S
C92 O84 1.315 . S
C92 O87 1.279 . S
C93 O94 1.315 . S
C93 O95 1.279 . S
O94 Cd86 2.223 . S
O94 C93 1.315 . S
O95 Cd85 2.240 . S
O95 C93 1.279 . S
O96 Cd86 2.297 . S
O96 C91 1.247 . S
O97 Cd86 2.439 . S
O97 C91 1.208 . S
O98 Cd99 2.223 . S
O98 C106 1.315 . S
Cd99 O98 2.223 . S
Cd99 O102 2.297 . S
Cd99 O103 2.439 . S
Cd99 O109 2.240 . S
Cd100 O101 2.240 . S
Cd100 O108 2.223 . S
Cd100 O110 2.297 . S
Cd100 O111 2.439 . S
O101 Cd100 2.240 . S
O101 C106 1.279 . S
O102 Cd99 2.297 . S
O102 C104 1.247 . S
O103 Cd99 2.439 . S
O103 C104 1.208 . S
C104 O102 1.247 . S
C104 O103 1.208 . S
C105 O110 1.247 . S
C105 O111 1.208 . S
C106 O98 1.315 . S
C106 O101 1.279 . S
C107 O108 1.315 . S
C107 O109 1.279 . S
O108 Cd100 2.223 . S
O108 C107 1.315 . S
O109 Cd99 2.240 . S
O109 C107 1.279 . S
O110 Cd100 2.297 . S
O110 C105 1.247 . S
O111 Cd100 2.439 . S
O111 C105 1.208 . S
O112 Cd113 2.223 . S
O112 C120 1.315 . S
Cd113 O112 2.223 . S
Cd113 O116 2.297 . S
Cd113 O117 2.439 . S
Cd113 O123 2.240 . S
Cd114 O115 2.240 . S
Cd114 O122 2.223 . S
Cd114 O124 2.297 . S
Cd114 O125 2.439 . S
O115 Cd114 2.240 . S
O115 C120 1.279 . S
O116 Cd113 2.297 . S
O116 C118 1.247 . S
O117 Cd113 2.439 . S
O117 C118 1.208 . S
C118 O116 1.247 . S
C118 O117 1.208 . S
C119 O124 1.247 . S
C119 O125 1.208 . S
C120 O112 1.315 . S
C120 O115 1.279 . S
C121 O122 1.315 . S
C121 O123 1.279 . S
O122 Cd114 2.223 . S
O122 C121 1.315 . S
O123 Cd113 2.240 . S
O123 C121 1.279 . S
O124 Cd114 2.297 . S
O124 C119 1.247 . S
O125 Cd114 2.439 . S
O125 C119 1.208 . S
O126 Cd127 2.223 . S
O126 C134 1.315 . S
Cd127 O126 2.223 . S
Cd127 O130 2.297 . S
Cd127 O131 2.439 . S
Cd127 O137 2.240 . S
Cd128 O129 2.240 . S
Cd128 O136 2.223 . S
Cd128 O138 2.297 . S
Cd128 O139 2.439 . S
O129 Cd128 2.240 . S
O129 C134 1.279 . S
O130 Cd127 2.297 . S
O130 C132 1.247 . S
O131 Cd127 2.439 . S
O131 C132 1.208 . S
C132 O130 1.247 . S
C132 O131 1.208 . S
C133 O138 1.247 . S
C133 O139 1.208 . S
C134 O126 1.315 . S
C134 O129 1.279 . S
C135 O136 1.315 . S
C135 O137 1.279 . S
O136 Cd128 2.223 . S
O136 C135 1.315 . S
O137 Cd127 2.240 . S
O137 C135 1.279 . S
O138 Cd128 2.297 . S
O138 C133 1.247 . S
O139 Cd128 2.439 . S
O139 C133 1.208 . S
O140 Cd141 2.223 1_556 S
O140 C148 1.315 . S
Cd141 O140 2.223 1_554 S
Cd141 O144 2.297 . S
Cd141 O145 2.439 . S
Cd141 O151 2.240 . S
Cd142 O143 2.240 . S
Cd142 O150 2.223 . S
Cd142 O152 2.297 1_556 S
Cd142 O153 2.439 1_556 S
O143 Cd142 2.240 . S
O143 C148 1.279 . S
O144 Cd141 2.297 . S
O144 C146 1.247 . S
O145 Cd141 2.439 . S
O145 C146 1.208 . S
C146 O144 1.247 . S
C146 O145 1.208 . S
C147 O152 1.247 . S
C147 O153 1.208 . S
C148 O140 1.315 . S
C148 O143 1.279 . S
C149 O150 1.315 . S
C149 O151 1.279 1_556 S
O150 Cd142 2.223 . S
O150 C149 1.315 . S
O151 Cd141 2.240 . S
O151 C149 1.279 1_554 S
O152 Cd142 2.297 1_554 S
O152 C147 1.247 . S
O153 Cd142 2.439 1_554 S
O153 C147 1.208 . S
O154 Cd155 2.223 . S
O154 C162 1.315 . S
Cd155 O154 2.223 . S
Cd155 O158 2.297 . S
Cd155 O159 2.439 . S
Cd155 O165 2.240 . S
Cd156 O157 2.240 . S
Cd156 O164 2.223 . S
Cd156 O166 2.297 . S
Cd156 O167 2.439 . S
O157 Cd156 2.240 . S
O157 C162 1.279 . S
O158 Cd155 2.297 . S
O158 C160 1.247 . S
O159 Cd155 2.439 . S
O159 C160 1.208 . S
C160 O158 1.247 . S
C160 O159 1.208 . S
C161 O166 1.247 . S
C161 O167 1.208 . S
C162 O154 1.315 . S
C162 O157 1.279 . S
C163 O164 1.315 . S
C163 O165 1.279 . S
O164 Cd156 2.223 . S
O164 C163 1.315 . S
O165 Cd155 2.240 . S
O165 C163 1.279 . S
O166 Cd156 2.297 . S
O166 C161 1.247 . S
O167 Cd156 2.439 . S
O167 C161 1.208 . S
O168 Cd169 2.223 . S
O168 C176 1.315 . S
Cd169 O168 2.223 . S
Cd169 O172 2.297 . S
Cd169 O173 2.439 . S
Cd169 O179 2.240 . S
Cd170 O171 2.240 . S
Cd170 O178 2.223 . S
Cd170 O180 2.297 . S
Cd170 O181 2.439 . S
O171 Cd170 2.240 . S
O171 C176 1.279 . S
O172 Cd169 2.297 . S
O172 C174 1.247 . S
O173 Cd169 2.439 . S
O173 C174 1.208 . S
C174 O172 1.247 . S
C174 O173 1.208 . S
C175 O180 1.247 . S
C175 O181 1.208 . S
C176 O168 1.315 . S
C176 O171 1.279 . S
C177 O178 1.315 . S
C177 O179 1.279 . S
O178 Cd170 2.223 . S
O178 C177 1.315 . S
O179 Cd169 2.240 . S
O179 C177 1.279 . S
O180 Cd170 2.297 . S
O180 C175 1.247 . S
O181 Cd170 2.439 . S
O181 C175 1.208 . S
O182 Cd183 2.223 . S
O182 C190 1.315 . S
Cd183 O182 2.223 . S
Cd183 O186 2.297 . S
Cd183 O187 2.439 . S
Cd183 O193 2.240 . S
Cd184 O185 2.240 . S
Cd184 O192 2.223 . S
Cd184 O194 2.297 . S
Cd184 O195 2.439 . S
O185 Cd184 2.240 . S
O185 C190 1.279 . S
O186 Cd183 2.297 . S
O186 C188 1.247 . S
O187 Cd183 2.439 . S
O187 C188 1.208 . S
C188 O186 1.247 . S
C188 O187 1.208 . S
C189 O194 1.247 . S
C189 O195 1.208 . S
C190 O182 1.315 . S
C190 O185 1.279 . S
C191 O192 1.315 . S
C191 O193 1.279 . S
O192 Cd184 2.223 . S
O192 C191 1.315 . S
O193 Cd183 2.240 . S
O193 C191 1.279 . S
O194 Cd184 2.297 . S
O194 C189 1.247 . S
O195 Cd184 2.439 . S
O195 C189 1.208 . S
O196 Cd197 2.223 1_556 S
O196 C204 1.315 . S
Cd197 O196 2.223 1_554 S
Cd197 O200 2.297 1_554 S
Cd197 O201 2.439 1_554 S
Cd197 O207 2.240 . S
Cd198 O199 2.240 1_554 S
Cd198 O206 2.223 . S
Cd198 O208 2.297 . S
Cd198 O209 2.439 . S
O199 Cd198 2.240 1_556 S
O199 C204 1.279 . S
O200 Cd197 2.297 1_556 S
O200 C202 1.247 . S
O201 Cd197 2.439 1_556 S
O201 C202 1.208 . S
C202 O200 1.247 . S
C202 O201 1.208 . S
C203 O208 1.247 . S
C203 O209 1.208 . S
C204 O196 1.315 . S
C204 O199 1.279 . S
C205 O206 1.315 . S
C205 O207 1.279 . S
O206 Cd198 2.223 . S
O206 C205 1.315 . S
O207 Cd197 2.240 . S
O207 C205 1.279 . S
O208 Cd198 2.297 . S
O208 C203 1.247 . S
O209 Cd198 2.439 . S
O209 C203 1.208 . S
O210 Cd211 2.223 . S
O210 C218 1.315 . S
Cd211 O210 2.223 . S
Cd211 O214 2.297 . S
Cd211 O215 2.439 . S
Cd211 O221 2.240 . S
Cd212 O213 2.240 . S
Cd212 O220 2.223 . S
Cd212 O222 2.297 . S
Cd212 O223 2.439 . S
O213 Cd212 2.240 . S
O213 C218 1.279 . S
O214 Cd211 2.297 . S
O214 C216 1.247 . S
O215 Cd211 2.439 . S
O215 C216 1.208 . S
C216 O214 1.247 . S
C216 O215 1.208 . S
C217 O222 1.247 . S
C217 O223 1.208 . S
C218 O210 1.315 . S
C218 O213 1.279 . S
C219 O220 1.315 . S
C219 O221 1.279 . S
O220 Cd212 2.223 . S
O220 C219 1.315 . S
O221 Cd211 2.240 . S
O221 C219 1.279 . S
O222 Cd212 2.297 . S
O222 C217 1.247 . S
O223 Cd212 2.439 . S
O223 C217 1.208 . S
H224 C232 0.929 . S
H225 C234 0.930 . S
H226 C236 0.930 . S
H227 C239 0.929 . S
H228 C242 0.930 . S
H229 C244 0.960 . S
H230 C244 0.960 . S
H231 C244 0.960 . S
C232 H224 0.929 . S
C232 C233 1.377 . S
C232 C234 1.384 . S
C233 C232 1.377 . S
C233 C239 1.390 . S
C234 H225 0.930 . S
C234 C232 1.384 . S
C234 C235 1.372 . S
C235 C234 1.372 . S
C235 C236 1.400 . S
C235 C240 1.490 . S
C236 H226 0.930 . S
C236 C235 1.400 . S
C236 C239 1.386 . S
H237 C253 0.930 . S
H238 C254 0.931 . S
C239 H227 0.929 . S
C239 C233 1.390 . S
C239 C236 1.386 . S
C240 C235 1.490 . S
C240 C242 1.395 . S
C240 C243 1.403 . S
H241 C247 0.930 . S
C242 H228 0.930 . S
C242 C240 1.395 . S
C242 C245 1.403 . S
C243 C240 1.403 . S
C243 C244 1.524 . S
C243 C247 1.400 . S
C244 H229 0.960 . S
C244 H230 0.960 . S
C244 H231 0.960 . S
C244 C243 1.524 . S
C245 C242 1.403 . S
C245 C246 1.392 . S
C245 C249 1.495 . S
C246 C245 1.392 . S
C246 C247 1.385 . S
C246 C248 1.478 . S
C247 H241 0.930 . S
C247 C243 1.400 . S
C247 C246 1.385 . S
C248 C246 1.478 . S
C248 C250 1.381 . S
C248 C254 1.383 . S
C249 C245 1.495 . S
C249 H255 0.959 . S
C249 H256 0.961 . S
C249 H257 0.960 . S
C250 C248 1.381 . S
C250 C251 1.394 . S
C250 H258 0.930 . S
C251 C250 1.394 . S
C251 C252 1.383 . S
C251 H259 0.929 . S
C252 C251 1.383 . S
C252 C253 1.377 . S
C253 H237 0.930 . S
C253 C252 1.377 . S
C253 C254 1.379 . S
C254 H238 0.931 . S
C254 C248 1.383 . S
C254 C253 1.379 . S
H255 C249 0.959 . S
H256 C249 0.961 . S
H257 C249 0.960 . S
H258 C250 0.930 . S
H259 C251 0.929 . S
H260 C268 0.929 1_565 S
H261 C270 0.930 1_565 S
H262 C272 0.930 . S
H263 C275 0.929 . S
H264 C278 0.937 . S
H265 C280 0.960 . S
H266 C280 0.960 . S
H267 C280 0.960 . S
C268 H260 0.929 1_545 S
C268 C269 1.377 . S
C268 C270 1.384 . S
C269 C268 1.377 . S
C269 C275 1.390 . S
C270 H261 0.930 1_545 S
C270 C268 1.384 . S
C270 C271 1.372 . S
C271 C270 1.372 . S
C271 C272 1.400 . S
C271 C276 1.490 . S
C272 H262 0.930 . S
C272 C271 1.400 . S
C272 C275 1.386 . S
H273 C289 0.930 . S
H274 C290 0.931 . S
C275 H263 0.929 . S
C275 C269 1.390 . S
C275 C272 1.386 . S
C276 C271 1.490 . S
C276 C278 1.365 1_655 S
C276 C279 1.403 . S
H277 C283 0.930 . S
C278 H264 0.937 . S
C278 C276 1.365 1_455 S
C278 C281 1.426 . S
C279 C276 1.403 . S
C279 C280 1.524 . S
C279 C283 1.400 . S
C280 H265 0.960 . S
C280 H266 0.960 . S
C280 H267 0.960 . S
C280 C279 1.524 . S
C281 C278 1.426 . S
C281 C282 1.392 . S
C281 C285 1.495 . S
C282 C281 1.392 . S
C282 C283 1.385 1_455 S
C282 C284 1.478 . S
C283 H277 0.930 . S
C283 C279 1.400 . S
C283 C282 1.385 1_655 S
C284 C282 1.478 . S
C284 C286 1.381 . S
C284 C290 1.383 . S
C285 C281 1.495 . S
C285 H291 0.959 . S
C285 H292 0.961 . S
C285 H293 0.960 . S
C286 C284 1.381 . S
C286 C287 1.394 . S
C286 H294 0.930 1_545 S
C287 C286 1.394 . S
C287 C288 1.383 . S
C287 H295 0.929 1_545 S
C288 C287 1.383 . S
C288 C289 1.377 . S
C289 H273 0.930 . S
C289 C288 1.377 . S
C289 C290 1.379 . S
C290 H274 0.931 . S
C290 C284 1.383 . S
C290 C289 1.379 . S
H291 C285 0.959 . S
H292 C285 0.961 . S
H293 C285 0.960 . S
H294 C286 0.930 1_565 S
H295 C287 0.929 1_565 S
H296 C304 0.929 . S
H297 C306 0.930 . S
H298 C308 0.930 . S
H299 C311 0.929 . S
H300 C314 0.930 . S
H301 C316 0.960 . S
H302 C316 0.960 . S
H303 C316 0.960 . S
C304 H296 0.929 . S
C304 C305 1.377 . S
C304 C306 1.384 . S
C305 C304 1.377 . S
C305 C311 1.390 . S
C306 H297 0.930 . S
C306 C304 1.384 . S
C306 C307 1.372 . S
C307 C306 1.372 . S
C307 C308 1.400 . S
C307 C312 1.490 . S
C308 H298 0.930 . S
C308 C307 1.400 . S
C308 C311 1.386 . S
H309 C325 0.930 . S
H310 C326 0.931 . S
C311 H299 0.929 . S
C311 C305 1.390 . S
C311 C308 1.386 . S
C312 C307 1.490 . S
C312 C314 1.395 . S
C312 C315 1.403 . S
H313 C319 0.930 . S
C314 H300 0.930 . S
C314 C312 1.395 . S
C314 C317 1.403 . S
C315 C312 1.403 . S
C315 C316 1.524 . S
C315 C319 1.400 . S
C316 H301 0.960 . S
C316 H302 0.960 . S
C316 H303 0.960 . S
C316 C315 1.524 . S
C317 C314 1.403 . S
C317 C318 1.392 . S
C317 C321 1.495 . S
C318 C317 1.392 . S
C318 C319 1.385 . S
C318 C320 1.478 . S
C319 H313 0.930 . S
C319 C315 1.400 . S
C319 C318 1.385 . S
C320 C318 1.478 . S
C320 C322 1.381 . S
C320 C326 1.383 . S
C321 C317 1.495 . S
C321 H327 0.959 . S
C321 H328 0.961 . S
C321 H329 0.960 . S
C322 C320 1.381 . S
C322 C323 1.394 . S
C322 H330 0.930 . S
C323 C322 1.394 . S
C323 C324 1.383 . S
C323 H331 0.929 . S
C324 C323 1.383 . S
C324 C325 1.377 . S
C325 H309 0.930 . S
C325 C324 1.377 . S
C325 C326 1.379 . S
C326 H310 0.931 . S
C326 C320 1.383 . S
C326 C325 1.379 . S
H327 C321 0.959 . S
H328 C321 0.961 . S
H329 C321 0.960 . S
H330 C322 0.930 . S
H331 C323 0.929 . S
H332 C340 0.929 . S
H333 C342 0.930 . S
H334 C344 0.930 . S
H335 C347 0.929 . S
H336 C350 0.930 . S
H337 C352 0.960 . S
H338 C352 0.960 . S
H339 C352 0.960 . S
C340 H332 0.929 . S
C340 C341 1.377 . S
C340 C342 1.384 . S
C341 C340 1.377 . S
C341 C347 1.390 . S
C342 H333 0.930 . S
C342 C340 1.384 . S
C342 C343 1.372 . S
C343 C342 1.372 . S
C343 C344 1.400 . S
C343 C348 1.490 . S
C344 H334 0.930 . S
C344 C343 1.400 . S
C344 C347 1.386 . S
H345 C361 0.930 . S
H346 C362 0.931 . S
C347 H335 0.929 . S
C347 C341 1.390 . S
C347 C344 1.386 . S
C348 C343 1.490 . S
C348 C350 1.395 1_554 S
C348 C351 1.403 . S
H349 C355 0.930 . S
C350 H336 0.930 . S
C350 C348 1.395 1_556 S
C350 C353 1.403 . S
C351 C348 1.403 . S
C351 C352 1.524 . S
C351 C355 1.400 1_554 S
C352 H337 0.960 . S
C352 H338 0.960 . S
C352 H339 0.960 . S
C352 C351 1.524 . S
C353 C350 1.403 . S
C353 C354 1.392 . S
C353 C357 1.495 . S
C354 C353 1.392 . S
C354 C355 1.385 . S
C354 C356 1.478 . S
C355 H349 0.930 . S
C355 C351 1.400 1_556 S
C355 C354 1.385 . S
C356 C354 1.478 . S
C356 C358 1.381 . S
C356 C362 1.383 . S
C357 C353 1.495 . S
C357 H363 0.959 . S
C357 H364 0.961 . S
C357 H365 0.960 . S
C358 C356 1.381 . S
C358 C359 1.394 . S
C358 H366 0.930 . S
C359 C358 1.394 . S
C359 C360 1.383 . S
C359 H367 0.929 . S
C360 C359 1.383 . S
C360 C361 1.377 . S
C361 H345 0.930 . S
C361 C360 1.377 . S
C361 C362 1.379 . S
C362 H346 0.931 . S
C362 C356 1.383 . S
C362 C361 1.379 . S
H363 C357 0.959 . S
H364 C357 0.961 . S
H365 C357 0.960 . S
H366 C358 0.930 . S
H367 C359 0.929 . S
H368 C376 0.929 . S
H369 C378 0.930 . S
H370 C380 0.930 . S
H371 C383 0.929 . S
H372 C386 0.930 . S
H373 C388 0.960 . S
H374 C388 0.960 . S
H375 C388 0.960 . S
C376 H368 0.929 . S
C376 C377 1.377 . S
C376 C378 1.384 . S
C377 C376 1.377 . S
C377 C383 1.390 . S
C378 H369 0.930 . S
C378 C376 1.384 . S
C378 C379 1.372 . S
C379 C378 1.372 . S
C379 C380 1.400 . S
C379 C384 1.490 . S
C380 H370 0.930 . S
C380 C379 1.400 . S
C380 C383 1.386 . S
H381 C397 0.930 . S
H382 C398 0.931 . S
C383 H371 0.929 . S
C383 C377 1.390 . S
C383 C380 1.386 . S
C384 C379 1.490 . S
C384 C386 1.395 . S
C384 C387 1.403 . S
H385 C391 0.930 . S
C386 H372 0.930 . S
C386 C384 1.395 . S
C386 C389 1.403 . S
C387 C384 1.403 . S
C387 C388 1.524 . S
C387 C391 1.400 . S
C388 H373 0.960 . S
C388 H374 0.960 . S
C388 H375 0.960 . S
C388 C387 1.524 . S
C389 C386 1.403 . S
C389 C390 1.392 . S
C389 C393 1.495 . S
C390 C389 1.392 . S
C390 C391 1.385 . S
C390 C392 1.478 . S
C391 H385 0.930 . S
C391 C387 1.400 . S
C391 C390 1.385 . S
C392 C390 1.478 . S
C392 C394 1.381 . S
C392 C398 1.383 . S
C393 C389 1.495 . S
C393 H399 0.959 . S
C393 H400 0.961 . S
C393 H401 0.960 . S
C394 C392 1.381 . S
C394 C395 1.394 . S
C394 H402 0.930 . S
C395 C394 1.394 . S
C395 C396 1.383 . S
C395 H403 0.929 . S
C396 C395 1.383 . S
C396 C397 1.377 . S
C397 H381 0.930 . S
C397 C396 1.377 . S
C397 C398 1.379 . S
C398 H382 0.931 . S
C398 C392 1.383 . S
C398 C397 1.379 . S
H399 C393 0.959 . S
H400 C393 0.961 . S
H401 C393 0.960 . S
H402 C394 0.930 . S
H403 C395 0.929 . S
H404 C412 0.929 . S
H405 C414 0.930 . S
H406 C416 0.930 . S
H407 C419 0.929 . S
H408 C422 0.930 . S
H409 C424 0.960 . S
H410 C424 0.960 . S
H411 C424 0.960 . S
C412 H404 0.929 . S
C412 C413 1.377 . S
C412 C414 1.384 . S
C413 C412 1.377 . S
C413 C419 1.390 . S
C414 H405 0.930 . S
C414 C412 1.384 . S
C414 C415 1.372 . S
C415 C414 1.372 . S
C415 C416 1.400 . S
C415 C420 1.490 . S
C416 H406 0.930 . S
C416 C415 1.400 . S
C416 C419 1.386 . S
H417 C433 0.930 . S
H418 C434 0.931 . S
C419 H407 0.929 . S
C419 C413 1.390 . S
C419 C416 1.386 . S
C420 C415 1.490 . S
C420 C422 1.395 . S
C420 C423 1.403 . S
H421 C427 0.930 . S
C422 H408 0.930 . S
C422 C420 1.395 . S
C422 C425 1.403 . S
C423 C420 1.403 . S
C423 C424 1.524 . S
C423 C427 1.400 . S
C424 H409 0.960 . S
C424 H410 0.960 . S
C424 H411 0.960 . S
C424 C423 1.524 . S
C425 C422 1.403 . S
C425 C426 1.392 . S
C425 C429 1.495 . S
C426 C425 1.392 . S
C426 C427 1.385 . S
C426 C428 1.478 . S
C427 H421 0.930 . S
C427 C423 1.400 . S
C427 C426 1.385 . S
C428 C426 1.478 . S
C428 C430 1.381 . S
C428 C434 1.383 . S
C429 C425 1.495 . S
C429 H435 0.959 . S
C429 H436 0.961 . S
C429 H437 0.960 . S
C430 C428 1.381 . S
C430 C431 1.394 . S
C430 H438 0.930 . S
C431 C430 1.394 . S
C431 C432 1.383 . S
C431 H439 0.929 . S
C432 C431 1.383 . S
C432 C433 1.377 . S
C433 H417 0.930 . S
C433 C432 1.377 . S
C433 C434 1.379 . S
C434 H418 0.931 . S
C434 C428 1.383 . S
C434 C433 1.379 . S
H435 C429 0.959 . S
H436 C429 0.961 . S
H437 C429 0.960 . S
H438 C430 0.930 . S
H439 C431 0.929 . S
H440 C448 0.929 . S
H441 C450 0.930 . S
H442 C452 0.930 . S
H443 C455 0.929 . S
H444 C458 0.930 . S
H445 C460 0.960 . S
H446 C460 0.960 . S
H447 C460 0.960 . S
C448 H440 0.929 . S
C448 C449 1.377 . S
C448 C450 1.384 . S
C449 C448 1.377 . S
C449 C455 1.390 . S
C450 H441 0.930 . S
C450 C448 1.384 . S
C450 C451 1.372 . S
C451 C450 1.372 . S
C451 C452 1.400 . S
C451 C456 1.490 . S
C452 H442 0.930 . S
C452 C451 1.400 . S
C452 C455 1.386 . S
H453 C469 0.930 . S
H454 C470 0.931 . S
C455 H443 0.929 . S
C455 C449 1.390 . S
C455 C452 1.386 . S
C456 C451 1.490 . S
C456 C458 1.395 . S
C456 C459 1.403 . S
H457 C463 0.930 . S
C458 H444 0.930 . S
C458 C456 1.395 . S
C458 C461 1.403 . S
C459 C456 1.403 . S
C459 C460 1.524 . S
C459 C463 1.400 . S
C460 H445 0.960 . S
C460 H446 0.960 . S
C460 H447 0.960 . S
C460 C459 1.524 . S
C461 C458 1.403 . S
C461 C462 1.392 . S
C461 C465 1.495 . S
C462 C461 1.392 . S
C462 C463 1.385 . S
C462 C464 1.478 . S
C463 H457 0.930 . S
C463 C459 1.400 . S
C463 C462 1.385 . S
C464 C462 1.478 . S
C464 C466 1.381 . S
C464 C470 1.383 . S
C465 C461 1.495 . S
C465 H471 0.959 . S
C465 H472 0.961 . S
C465 H473 0.960 . S
C466 C464 1.381 . S
C466 C467 1.394 . S
C466 H474 0.930 . S
C467 C466 1.394 . S
C467 C468 1.383 . S
C467 H475 0.929 . S
C468 C467 1.383 . S
C468 C469 1.377 . S
C469 H453 0.930 . S
C469 C468 1.377 . S
C469 C470 1.379 . S
C470 H454 0.931 . S
C470 C464 1.383 . S
C470 C469 1.379 . S
H471 C465 0.959 . S
H472 C465 0.961 . S
H473 C465 0.960 . S
H474 C466 0.930 . S
H475 C467 0.929 . S
H476 C484 0.898 1_565 S
H477 C486 0.873 1_565 S
H478 C488 0.930 . S
H479 C491 0.929 . S
H480 C494 0.976 . S
H481 C496 0.960 . S
H482 C496 0.960 . S
H483 C496 0.960 1_455 S
C484 H476 0.898 1_545 S
C484 C485 1.405 . S
C484 C486 1.381 . S
C485 C484 1.405 . S
C485 C491 1.390 . S
C486 H477 0.873 1_545 S
C486 C484 1.381 . S
C486 C487 1.437 . S
C487 C486 1.437 . S
C487 C488 1.400 . S
C487 C492 1.490 . S
C488 H478 0.930 . S
C488 C487 1.400 . S
C488 C491 1.386 . S
H489 C505 0.930 . S
H490 C506 0.931 . S
C491 H479 0.929 . S
C491 C485 1.390 . S
C491 C488 1.386 . S
C492 C487 1.490 . S
C492 C494 1.395 . S
C492 C495 1.403 1_455 S
H493 C499 0.930 . S
C494 H480 0.976 . S
C494 C492 1.395 . S
C494 C497 1.403 1_556 S
C495 C492 1.403 1_655 S
C495 C496 1.524 . S
C495 C499 1.400 . S
C496 H481 0.960 . S
C496 H482 0.960 . S
C496 H483 0.960 1_655 S
C496 C495 1.524 . S
C497 C494 1.403 1_554 S
C497 C498 1.392 1_455 S
C497 C501 1.495 1_545 S
C498 C497 1.392 1_655 S
C498 C499 1.385 1_554 S
C498 C500 1.478 . S
C499 H493 0.930 . S
C499 C495 1.400 . S
C499 C498 1.385 1_556 S
C500 C498 1.478 . S
C500 C502 1.381 . S
C500 C506 1.383 . S
C501 C497 1.495 1_565 S
C501 H507 0.959 . S
C501 H508 0.961 1_565 S
C501 H509 0.960 1_455 S
C502 C500 1.381 . S
C502 C503 1.394 . S
C502 H510 0.930 1_545 S
C503 C502 1.394 . S
C503 C504 1.383 . S
C503 H511 0.929 1_545 S
C504 C503 1.383 . S
C504 C505 1.377 . S
C505 H489 0.930 . S
C505 C504 1.377 . S
C505 C506 1.379 . S
C506 H490 0.931 . S
C506 C500 1.383 . S
C506 C505 1.379 . S
H507 C501 0.959 . S
H508 C501 0.961 1_545 S
H509 C501 0.960 1_655 S
H510 C502 0.930 1_565 S
H511 C503 0.929 1_565 S
H512 C520 0.929 . S
H513 C522 0.930 . S
H514 C524 0.930 . S
H515 C527 0.929 . S
H516 C530 0.930 . S
H517 C532 0.960 . S
H518 C532 0.960 . S
H519 C532 0.960 . S
C520 H512 0.929 . S
C520 C521 1.377 . S
C520 C522 1.384 . S
C521 C520 1.377 . S
C521 C527 1.390 . S
C522 H513 0.930 . S
C522 C520 1.384 . S
C522 C523 1.372 . S
C523 C522 1.372 . S
C523 C524 1.400 . S
C523 C528 1.490 . S
C524 H514 0.930 . S
C524 C523 1.400 . S
C524 C527 1.386 . S
H525 C541 0.930 . S
H526 C542 0.931 . S
C527 H515 0.929 . S
C527 C521 1.390 . S
C527 C524 1.386 . S
C528 C523 1.490 . S
C528 C530 1.395 . S
C528 C531 1.403 . S
H529 C535 0.930 . S
C530 H516 0.930 . S
C530 C528 1.395 . S
C530 C533 1.403 . S
C531 C528 1.403 . S
C531 C532 1.524 . S
C531 C535 1.400 . S
C532 H517 0.960 . S
C532 H518 0.960 . S
C532 H519 0.960 . S
C532 C531 1.524 . S
C533 C530 1.403 . S
C533 C534 1.392 . S
C533 C537 1.495 . S
C534 C533 1.392 . S
C534 C535 1.385 . S
C534 C536 1.478 . S
C535 H529 0.930 . S
C535 C531 1.400 . S
C535 C534 1.385 . S
C536 C534 1.478 . S
C536 C538 1.381 . S
C536 C542 1.383 . S
C537 C533 1.495 . S
C537 H543 0.959 . S
C537 H544 0.961 . S
C537 H545 0.960 . S
C538 C536 1.381 . S
C538 C539 1.394 . S
C538 H546 0.930 . S
C539 C538 1.394 . S
C539 C540 1.383 . S
C539 H547 0.929 . S
C540 C539 1.383 . S
C540 C541 1.377 . S
C541 H525 0.930 . S
C541 C540 1.377 . S
C541 C542 1.379 . S
C542 H526 0.931 . S
C542 C536 1.383 . S
C542 C541 1.379 . S
H543 C537 0.959 . S
H544 C537 0.961 . S
H545 C537 0.960 . S
H546 C538 0.930 . S
H547 C539 0.929 . S
H548 C556 0.929 . S
H549 C558 0.930 . S
H550 C560 0.930 . S
H551 C563 0.929 . S
H552 C566 0.930 . S
H553 C568 0.960 . S
H554 C568 0.960 . S
H555 C568 0.960 . S
C556 H548 0.929 . S
C556 C557 1.377 . S
C556 C558 1.384 . S
C557 C556 1.377 . S
C557 C563 1.390 . S
C558 H549 0.930 . S
C558 C556 1.384 . S
C558 C559 1.372 . S
C559 C558 1.372 . S
C559 C560 1.400 . S
C559 C564 1.490 . S
C560 H550 0.930 . S
C560 C559 1.400 . S
C560 C563 1.386 . S
H561 C577 0.930 . S
H562 C578 0.931 . S
C563 H551 0.929 . S
C563 C557 1.390 . S
C563 C560 1.386 . S
C564 C559 1.490 . S
C564 C566 1.395 . S
C564 C567 1.403 . S
H565 C571 0.930 . S
C566 H552 0.930 . S
C566 C564 1.395 . S
C566 C569 1.403 . S
C567 C564 1.403 . S
C567 C568 1.524 . S
C567 C571 1.400 . S
C568 H553 0.960 . S
C568 H554 0.960 . S
C568 H555 0.960 . S
C568 C567 1.524 . S
C569 C566 1.403 . S
C569 C570 1.392 . S
C569 C573 1.495 . S
C570 C569 1.392 . S
C570 C571 1.385 . S
C570 C572 1.478 . S
C571 H565 0.930 . S
C571 C567 1.400 . S
C571 C570 1.385 . S
C572 C570 1.478 . S
C572 C574 1.381 . S
C572 C578 1.383 . S
C573 C569 1.495 . S
C573 H579 0.959 . S
C573 H580 0.961 . S
C573 H581 0.960 . S
C574 C572 1.381 . S
C574 C575 1.394 . S
C574 H582 0.930 . S
C575 C574 1.394 . S
C575 C576 1.383 . S
C575 H583 0.929 . S
C576 C575 1.383 . S
C576 C577 1.377 . S
C577 H561 0.930 . S
C577 C576 1.377 . S
C577 C578 1.379 . S
C578 H562 0.931 . S
C578 C572 1.383 . S
C578 C577 1.379 . S
H579 C573 0.959 . S
H580 C573 0.961 . S
H581 C573 0.960 . S
H582 C574 0.930 . S
H583 C575 0.929 . S
H584 C592 0.929 . S
H585 C594 0.930 . S
H586 C596 0.930 . S
H587 C599 0.929 . S
H588 C602 0.930 . S
H589 C604 0.960 . S
H590 C604 0.960 . S
H591 C604 0.960 . S
C592 H584 0.929 . S
C592 C593 1.377 . S
C592 C594 1.384 . S
C593 C592 1.377 . S
C593 C599 1.390 . S
C594 H585 0.930 . S
C594 C592 1.384 . S
C594 C595 1.372 . S
C595 C594 1.372 . S
C595 C596 1.400 . S
C595 C600 1.490 . S
C596 H586 0.930 . S
C596 C595 1.400 . S
C596 C599 1.386 . S
H597 C613 0.930 . S
H598 C614 0.931 . S
C599 H587 0.929 . S
C599 C593 1.390 . S
C599 C596 1.386 . S
C600 C595 1.490 . S
C600 C602 1.395 . S
C600 C603 1.403 . S
H601 C607 0.930 . S
C602 H588 0.930 . S
C602 C600 1.395 . S
C602 C605 1.403 . S
C603 C600 1.403 . S
C603 C604 1.524 . S
C603 C607 1.400 . S
C604 H589 0.960 . S
C604 H590 0.960 . S
C604 H591 0.960 . S
C604 C603 1.524 . S
C605 C602 1.403 . S
C605 C606 1.392 . S
C605 C609 1.495 . S
C606 C605 1.392 . S
C606 C607 1.385 . S
C606 C608 1.478 . S
C607 H601 0.930 . S
C607 C603 1.400 . S
C607 C606 1.385 . S
C608 C606 1.478 . S
C608 C610 1.381 . S
C608 C614 1.383 . S
C609 C605 1.495 . S
C609 H615 0.959 . S
C609 H616 0.961 . S
C609 H617 0.960 . S
C610 C608 1.381 . S
C610 C611 1.394 . S
C610 H618 0.930 . S
C611 C610 1.394 . S
C611 C612 1.383 . S
C611 H619 0.929 . S
C612 C611 1.383 . S
C612 C613 1.377 . S
C613 H597 0.930 . S
C613 C612 1.377 . S
C613 C614 1.379 . S
C614 H598 0.931 . S
C614 C608 1.383 . S
C614 C613 1.379 . S
H615 C609 0.959 . S
H616 C609 0.961 . S
H617 C609 0.960 . S
H618 C610 0.930 . S
H619 C611 0.929 . S
H620 C628 0.929 . S
H621 C630 0.930 . S
H622 C632 0.930 . S
H623 C635 0.929 . S
H624 C638 0.930 . S
H625 C640 0.960 . S
H626 C640 0.960 . S
H627 C640 0.960 . S
C628 H620 0.929 . S
C628 C629 1.377 . S
C628 C630 1.384 . S
C629 C628 1.377 . S
C629 C635 1.390 . S
C630 H621 0.930 . S
C630 C628 1.384 . S
C630 C631 1.372 . S
C631 C630 1.372 . S
C631 C632 1.400 . S
C631 C636 1.490 . S
C632 H622 0.930 . S
C632 C631 1.400 . S
C632 C635 1.386 . S
H633 C649 0.930 . S
H634 C650 0.931 . S
C635 H623 0.929 . S
C635 C629 1.390 . S
C635 C632 1.386 . S
C636 C631 1.490 . S
C636 C638 1.395 . S
C636 C639 1.403 . S
H637 C643 0.930 . S
C638 H624 0.930 . S
C638 C636 1.395 . S
C638 C641 1.403 . S
C639 C636 1.403 . S
C639 C640 1.524 . S
C639 C643 1.400 . S
C640 H625 0.960 . S
C640 H626 0.960 . S
C640 H627 0.960 . S
C640 C639 1.524 . S
C641 C638 1.403 . S
C641 C642 1.392 . S
C641 C645 1.495 . S
C642 C641 1.392 . S
C642 C643 1.385 . S
C642 C644 1.478 . S
C643 H637 0.930 . S
C643 C639 1.400 . S
C643 C642 1.385 . S
C644 C642 1.478 . S
C644 C646 1.381 . S
C644 C650 1.383 . S
C645 C641 1.495 . S
C645 H651 0.959 . S
C645 H652 0.961 . S
C645 H653 0.960 . S
C646 C644 1.381 . S
C646 C647 1.394 . S
C646 H654 0.930 . S
C647 C646 1.394 . S
C647 C648 1.383 . S
C647 H655 0.929 . S
C648 C647 1.383 . S
C648 C649 1.377 . S
C649 H633 0.930 . S
C649 C648 1.377 . S
C649 C650 1.379 . S
C650 H634 0.931 . S
C650 C644 1.383 . S
C650 C649 1.379 . S
H651 C645 0.959 . S
H652 C645 0.961 . S
H653 C645 0.960 . S
H654 C646 0.930 . S
H655 C647 0.929 . S
H656 C664 0.929 . S
H657 C666 0.930 . S
H658 C668 0.930 . S
H659 C671 0.929 . S
H660 C674 0.930 . S
H661 C676 0.960 . S
H662 C676 0.960 . S
H663 C676 0.960 . S
C664 H656 0.929 . S
C664 C665 1.377 . S
C664 C666 1.384 . S
C665 C664 1.377 . S
C665 C671 1.390 . S
C666 H657 0.930 . S
C666 C664 1.384 . S
C666 C667 1.372 . S
C667 C666 1.372 . S
C667 C668 1.400 . S
C667 C672 1.490 . S
C668 H658 0.930 . S
C668 C667 1.400 . S
C668 C671 1.386 . S
H669 C685 0.930 . S
H670 C686 0.931 . S
C671 H659 0.929 . S
C671 C665 1.390 . S
C671 C668 1.386 . S
C672 C667 1.490 . S
C672 C674 1.395 . S
C672 C675 1.403 1_554 S
H673 C679 0.930 . S
C674 H660 0.930 . S
C674 C672 1.395 . S
C674 C677 1.403 1_554 S
C675 C672 1.403 1_556 S
C675 C676 1.524 . S
C675 C679 1.400 . S
C676 H661 0.960 . S
C676 H662 0.960 . S
C676 H663 0.960 . S
C676 C675 1.524 . S
C677 C674 1.403 1_556 S
C677 C678 1.392 . S
C677 C681 1.495 . S
C678 C677 1.392 . S
C678 C679 1.385 . S
C678 C680 1.478 . S
C679 H673 0.930 . S
C679 C675 1.400 . S
C679 C678 1.385 . S
C680 C678 1.478 . S
C680 C682 1.381 . S
C680 C686 1.383 . S
C681 C677 1.495 . S
C681 H687 0.959 1_556 S
C681 H688 0.961 . S
C681 H689 0.960 . S
C682 C680 1.381 . S
C682 C683 1.394 . S
C682 H690 0.930 . S
C683 C682 1.394 . S
C683 C684 1.383 . S
C683 H691 0.929 . S
C684 C683 1.383 . S
C684 C685 1.377 . S
C685 H669 0.930 . S
C685 C684 1.377 . S
C685 C686 1.379 . S
C686 H670 0.931 . S
C686 C680 1.383 . S
C686 C685 1.379 . S
H687 C681 0.959 1_554 S
H688 C681 0.961 . S
H689 C681 0.960 . S
H690 C682 0.930 . S
H691 C683 0.929 . S
H692 C700 0.929 . S
H693 C702 0.930 . S
H694 C704 0.930 . S
H695 C707 0.929 . S
H696 C710 0.921 1_655 S
H697 C712 0.960 . S
H698 C712 0.960 . S
H699 C712 0.960 . S
C700 H692 0.929 . S
C700 C701 1.377 . S
C700 C702 1.384 . S
C701 C700 1.377 . S
C701 C707 1.390 . S
C702 H693 0.930 . S
C702 C700 1.384 . S
C702 C703 1.372 . S
C703 C702 1.372 . S
C703 C704 1.400 . S
C703 C708 1.490 . S
C704 H694 0.930 . S
C704 C703 1.400 . S
C704 C707 1.386 . S
H705 C721 0.930 . S
H706 C722 0.931 . S
C707 H695 0.929 . S
C707 C701 1.390 . S
C707 C704 1.386 . S
C708 C703 1.490 . S
C708 C710 1.395 . S
C708 C711 1.403 . S
H709 C715 0.930 . S
C710 H696 0.921 1_455 S
C710 C708 1.395 . S
C710 C713 1.403 1_455 S
C711 C708 1.403 . S
C711 C712 1.524 . S
C711 C715 1.400 . S
C712 H697 0.960 . S
C712 H698 0.960 . S
C712 H699 0.960 . S
C712 C711 1.524 . S
C713 C710 1.403 1_655 S
C713 C714 1.392 . S
C713 C717 1.495 . S
C714 C713 1.392 . S
C714 C715 1.385 1_655 S
C714 C716 1.478 . S
C715 H709 0.930 . S
C715 C711 1.400 . S
C715 C714 1.385 1_455 S
C716 C714 1.478 . S
C716 C718 1.381 . S
C716 C722 1.383 . S
C717 C713 1.495 . S
C717 H723 0.959 . S
C717 H724 0.961 . S
C717 H725 0.960 . S
C718 C716 1.381 . S
C718 C719 1.394 . S
C718 H726 0.930 . S
C719 C718 1.394 . S
C719 C720 1.383 . S
C719 H727 0.929 . S
C720 C719 1.383 . S
C720 C721 1.377 . S
C721 H705 0.930 . S
C721 C720 1.377 . S
C721 C722 1.379 . S
C722 H706 0.931 . S
C722 C716 1.383 . S
C722 C721 1.379 . S
H723 C717 0.959 . S
H724 C717 0.961 . S
H725 C717 0.960 . S
H726 C718 0.930 . S
H727 C719 0.929 . S
H728 C736 0.929 . S
H729 C738 0.930 . S
H730 C740 0.930 . S
H731 C743 0.929 . S
H732 C746 0.930 . S
H733 C748 0.960 . S
H734 C748 0.960 . S
H735 C748 0.960 . S
C736 H728 0.929 . S
C736 C737 1.377 . S
C736 C738 1.384 . S
C737 C736 1.377 . S
C737 C743 1.390 . S
C738 H729 0.930 . S
C738 C736 1.384 . S
C738 C739 1.372 . S
C739 C738 1.372 . S
C739 C740 1.400 . S
C739 C744 1.475 1_554 S
C740 H730 0.930 . S
C740 C739 1.400 . S
C740 C743 1.386 . S
H741 C757 0.930 . S
H742 C758 0.931 . S
C743 H731 0.929 . S
C743 C737 1.390 . S
C743 C740 1.386 . S
C744 C739 1.475 1_556 S
C744 C746 1.390 1_456 S
C744 C747 1.422 . S
H745 C751 0.930 . S
C746 H732 0.930 . S
C746 C744 1.390 1_654 S
C746 C749 1.403 1_554 S
C747 C744 1.422 . S
C747 C748 1.524 . S
C747 C751 1.400 . S
C748 H733 0.960 . S
C748 H734 0.960 . S
C748 H735 0.960 . S
C748 C747 1.524 . S
C749 C746 1.403 1_556 S
C749 C750 1.392 . S
C749 C753 1.495 . S
C750 C749 1.392 . S
C750 C751 1.385 1_655 S
C750 C752 1.478 . S
C751 H745 0.930 . S
C751 C747 1.400 . S
C751 C750 1.385 1_455 S
C752 C750 1.478 . S
C752 C754 1.381 . S
C752 C758 1.383 . S
C753 C749 1.495 . S
C753 H759 0.959 1_556 S
C753 H760 0.961 . S
C753 H761 0.960 . S
C754 C752 1.381 . S
C754 C755 1.394 . S
C754 H762 0.930 . S
C755 C754 1.394 . S
C755 C756 1.383 . S
C755 H763 0.929 . S
C756 C755 1.383 . S
C756 C757 1.377 . S
C757 H741 0.930 . S
C757 C756 1.377 . S
C757 C758 1.379 . S
C758 H742 0.931 . S
C758 C752 1.383 . S
C758 C757 1.379 . S
H759 C753 0.959 1_554 S
H760 C753 0.961 . S
H761 C753 0.960 . S
H762 C754 0.930 . S
H763 C755 0.929 . S
H764 C772 0.929 . S
H765 C774 0.930 . S
H766 C776 0.930 . S
H767 C779 0.929 . S
H768 C782 0.930 . S
H769 C784 0.960 . S
H770 C784 0.960 . S
H771 C784 0.960 . S
C772 H764 0.929 . S
C772 C773 1.377 . S
C772 C774 1.384 . S
C773 C772 1.377 . S
C773 C779 1.390 . S
C774 H765 0.930 . S
C774 C772 1.384 . S
C774 C775 1.372 . S
C775 C774 1.372 . S
C775 C776 1.400 . S
C775 C780 1.490 . S
C776 H766 0.930 . S
C776 C775 1.400 . S
C776 C779 1.386 . S
H777 C793 0.930 . S
H778 C794 0.931 . S
C779 H767 0.929 . S
C779 C773 1.390 . S
C779 C776 1.386 . S
C780 C775 1.490 . S
C780 C782 1.395 . S
C780 C783 1.403 . S
H781 C787 0.930 . S
C782 H768 0.930 . S
C782 C780 1.395 . S
C782 C785 1.403 . S
C783 C780 1.403 . S
C783 C784 1.524 . S
C783 C787 1.400 . S
C784 H769 0.960 . S
C784 H770 0.960 . S
C784 H771 0.960 . S
C784 C783 1.524 . S
C785 C782 1.403 . S
C785 C786 1.392 . S
C785 C789 1.495 . S
C786 C785 1.392 . S
C786 C787 1.385 . S
C786 C788 1.478 . S
C787 H781 0.930 . S
C787 C783 1.400 . S
C787 C786 1.385 . S
C788 C786 1.478 . S
C788 C790 1.381 . S
C788 C794 1.383 . S
C789 C785 1.495 . S
C789 H795 0.959 . S
C789 H796 0.961 . S
C789 H797 0.960 . S
C790 C788 1.381 . S
C790 C791 1.394 . S
C790 H798 0.930 . S
C791 C790 1.394 . S
C791 C792 1.383 . S
C791 H799 0.929 . S
C792 C791 1.383 . S
C792 C793 1.377 . S
C793 H777 0.930 . S
C793 C792 1.377 . S
C793 C794 1.379 . S
C794 H778 0.931 . S
C794 C788 1.383 . S
C794 C793 1.379 . S
H795 C789 0.959 . S
H796 C789 0.961 . S
H797 C789 0.960 . S
H798 C790 0.930 . S
H799 C791 0.929 . S
H800 C808 0.929 . S
H801 C810 0.930 . S
H802 C812 0.930 . S
H803 C815 0.929 . S
H804 C818 0.930 . S
H805 C820 0.960 . S
H806 C820 0.960 . S
H807 C820 0.960 . S
C808 H800 0.929 . S
C808 C809 1.377 . S
C808 C810 1.384 . S
C809 C808 1.377 . S
C809 C815 1.390 . S
C810 H801 0.930 . S
C810 C808 1.384 . S
C810 C811 1.372 . S
C811 C810 1.372 . S
C811 C812 1.400 . S
C811 C816 1.490 . S
C812 H802 0.930 . S
C812 C811 1.400 . S
C812 C815 1.386 . S
H813 C829 0.930 . S
H814 C830 0.931 . S
C815 H803 0.929 . S
C815 C809 1.390 . S
C815 C812 1.386 . S
C816 C811 1.490 . S
C816 C818 1.395 . S
C816 C819 1.403 . S
H817 C823 0.930 . S
C818 H804 0.930 . S
C818 C816 1.395 . S
C818 C821 1.403 . S
C819 C816 1.403 . S
C819 C820 1.524 . S
C819 C823 1.400 . S
C820 H805 0.960 . S
C820 H806 0.960 . S
C820 H807 0.960 . S
C820 C819 1.524 . S
C821 C818 1.403 . S
C821 C822 1.392 . S
C821 C825 1.495 . S
C822 C821 1.392 . S
C822 C823 1.385 . S
C822 C824 1.478 . S
C823 H817 0.930 . S
C823 C819 1.400 . S
C823 C822 1.385 . S
C824 C822 1.478 . S
C824 C826 1.381 . S
C824 C830 1.383 . S
C825 C821 1.495 . S
C825 H831 0.959 . S
C825 H832 0.961 . S
C825 H833 0.960 . S
C826 C824 1.381 . S
C826 C827 1.394 . S
C826 H834 0.930 . S
C827 C826 1.394 . S
C827 C828 1.383 . S
C827 H835 0.929 . S
C828 C827 1.383 . S
C828 C829 1.377 . S
C829 H813 0.930 . S
C829 C828 1.377 . S
C829 C830 1.379 . S
C830 H814 0.931 . S
C830 C824 1.383 . S
C830 C829 1.379 . S
H831 C825 0.959 . S
H832 C825 0.961 . S
H833 C825 0.960 . S
H834 C826 0.930 . S
H835 C827 0.929 . S
H836 C844 0.929 . S
H837 C846 0.930 . S
H838 C848 0.930 . S
H839 C851 0.929 . S
H840 C854 0.930 . S
H841 C856 0.960 . S
H842 C856 0.960 . S
H843 C856 0.960 . S
C844 H836 0.929 . S
C844 C845 1.377 . S
C844 C846 1.384 . S
C845 C844 1.377 . S
C845 C851 1.390 . S
C846 H837 0.930 . S
C846 C844 1.384 . S
C846 C847 1.372 . S
C847 C846 1.372 . S
C847 C848 1.400 . S
C847 C852 1.490 . S
C848 H838 0.930 . S
C848 C847 1.400 . S
C848 C851 1.386 . S
H849 C865 0.930 . S
H850 C866 0.931 . S
C851 H839 0.929 . S
C851 C845 1.390 . S
C851 C848 1.386 . S
C852 C847 1.490 . S
C852 C854 1.395 . S
C852 C855 1.403 . S
H853 C859 0.930 . S
C854 H840 0.930 . S
C854 C852 1.395 . S
C854 C857 1.403 . S
C855 C852 1.403 . S
C855 C856 1.524 . S
C855 C859 1.400 . S
C856 H841 0.960 . S
C856 H842 0.960 . S
C856 H843 0.960 . S
C856 C855 1.524 . S
C857 C854 1.403 . S
C857 C858 1.392 . S
C857 C861 1.495 . S
C858 C857 1.392 . S
C858 C859 1.385 . S
C858 C860 1.478 . S
C859 H853 0.930 . S
C859 C855 1.400 . S
C859 C858 1.385 . S
C860 C858 1.478 . S
C860 C862 1.381 . S
C860 C866 1.383 . S
C861 C857 1.495 . S
C861 H867 0.959 . S
C861 H868 0.961 . S
C861 H869 0.960 . S
C862 C860 1.381 . S
C862 C863 1.406 . S
C862 H870 0.930 . S
C863 C862 1.406 . S
C863 C864 1.392 . S
C863 H871 0.909 1_565 S
C864 C863 1.392 . S
C864 C865 1.377 . S
C865 H849 0.930 . S
C865 C864 1.377 . S
C865 C866 1.379 . S
C866 H850 0.931 . S
C866 C860 1.383 . S
C866 C865 1.379 . S
H867 C861 0.959 . S
H868 C861 0.961 . S
H869 C861 0.960 . S
H870 C862 0.930 . S
H871 C863 0.909 1_545 S
H872 C880 0.929 . S
H873 C882 0.930 . S
H874 C884 0.930 . S
H875 C887 0.929 . S
H876 C890 0.930 . S
H877 C892 0.960 . S
H878 C892 0.960 . S
H879 C892 0.960 . S
C880 H872 0.929 . S
C880 C881 1.377 . S
C880 C882 1.384 . S
C881 C880 1.377 . S
C881 C887 1.390 . S
C882 H873 0.930 . S
C882 C880 1.384 . S
C882 C883 1.372 . S
C883 C882 1.372 . S
C883 C884 1.400 . S
C883 C888 1.490 . S
C884 H874 0.930 . S
C884 C883 1.400 . S
C884 C887 1.386 . S
H885 C901 0.930 . S
H886 C902 0.931 . S
C887 H875 0.929 . S
C887 C881 1.390 . S
C887 C884 1.386 . S
C888 C883 1.490 . S
C888 C890 1.395 . S
C888 C891 1.403 . S
H889 C895 0.930 . S
C890 H876 0.930 . S
C890 C888 1.395 . S
C890 C893 1.403 . S
C891 C888 1.403 . S
C891 C892 1.524 . S
C891 C895 1.400 . S
C892 H877 0.960 . S
C892 H878 0.960 . S
C892 H879 0.960 . S
C892 C891 1.524 . S
C893 C890 1.403 . S
C893 C894 1.392 . S
C893 C897 1.495 . S
C894 C893 1.392 . S
C894 C895 1.385 . S
C894 C896 1.478 . S
C895 H889 0.930 . S
C895 C891 1.400 . S
C895 C894 1.385 . S
C896 C894 1.478 . S
C896 C898 1.381 . S
C896 C902 1.383 . S
C897 C893 1.495 . S
C897 H903 0.959 . S
C897 H904 0.961 . S
C897 H905 0.960 . S
C898 C896 1.381 . S
C898 C899 1.394 . S
C898 H906 0.930 . S
C899 C898 1.394 . S
C899 C900 1.383 . S
C899 H907 0.929 . S
C900 C899 1.383 . S
C900 C901 1.377 . S
C901 H885 0.930 . S
C901 C900 1.377 . S
C901 C902 1.379 . S
C902 H886 0.931 . S
C902 C896 1.383 . S
C902 C901 1.379 . S
H903 C897 0.959 . S
H904 C897 0.961 . S
H905 C897 0.960 . S
H906 C898 0.930 . S
H907 C899 0.929 . S
H908 C916 0.929 1_554 S
H909 C918 0.930 . S
H910 C920 0.930 . S
H911 C923 0.929 . S
H912 C926 0.930 . S
H913 C928 0.960 . S
H914 C928 0.960 . S
H915 C928 0.960 . S
C916 H908 0.929 1_556 S
C916 C917 1.377 . S
C916 C918 1.384 . S
C917 C916 1.377 . S
C917 C923 1.390 . S
C918 H909 0.930 . S
C918 C916 1.384 . S
C918 C919 1.372 . S
C919 C918 1.372 . S
C919 C920 1.400 . S
C919 C924 1.490 . S
C920 H910 0.930 . S
C920 C919 1.400 . S
C920 C923 1.386 . S
H921 C937 0.930 . S
H922 C938 0.931 . S
C923 H911 0.929 . S
C923 C917 1.390 . S
C923 C920 1.386 . S
C924 C919 1.490 . S
C924 C926 1.395 . S
C924 C927 1.403 . S
H925 C931 0.930 . S
C926 H912 0.930 . S
C926 C924 1.395 . S
C926 C929 1.403 . S
C927 C924 1.403 . S
C927 C928 1.524 . S
C927 C931 1.400 . S
C928 H913 0.960 . S
C928 H914 0.960 . S
C928 H915 0.960 . S
C928 C927 1.524 . S
C929 C926 1.403 . S
C929 C930 1.392 . S
C929 C933 1.495 . S
C930 C929 1.392 . S
C930 C931 1.385 . S
C930 C932 1.478 . S
C931 H925 0.930 . S
C931 C927 1.400 . S
C931 C930 1.385 . S
C932 C930 1.478 . S
C932 C934 1.381 . S
C932 C938 1.383 . S
C933 C929 1.495 . S
C933 H939 0.959 . S
C933 H940 0.961 . S
C933 H941 0.960 . S
C934 C932 1.381 . S
C934 C935 1.394 . S
C934 H942 0.930 . S
C935 C934 1.394 . S
C935 C936 1.383 . S
C935 H943 0.929 . S
C936 C935 1.383 . S
C936 C937 1.377 . S
C937 H921 0.930 . S
C937 C936 1.377 . S
C937 C938 1.379 . S
C938 H922 0.931 . S
C938 C932 1.383 . S
C938 C937 1.379 . S
H939 C933 0.959 . S
H940 C933 0.961 . S
H941 C933 0.960 . S
H942 C934 0.930 . S
H943 C935 0.929 . S
H944 C952 0.929 . S
H945 C954 0.930 . S
H946 C956 0.930 . S
H947 C959 0.929 . S
H948 C962 0.930 . S
H949 C964 0.960 . S
H950 C964 0.960 . S
H951 C964 0.960 . S
C952 H944 0.929 . S
C952 C953 1.377 . S
C952 C954 1.384 . S
C953 C952 1.377 . S
C953 C959 1.390 . S
C954 H945 0.930 . S
C954 C952 1.384 . S
C954 C955 1.372 . S
C955 C954 1.372 . S
C955 C956 1.400 . S
C955 C960 1.490 . S
C956 H946 0.930 . S
C956 C955 1.400 . S
C956 C959 1.386 . S
H957 C973 0.930 . S
H958 C974 0.931 . S
C959 H947 0.929 . S
C959 C953 1.390 . S
C959 C956 1.386 . S
C960 C955 1.490 . S
C960 C962 1.395 . S
C960 C963 1.403 . S
H961 C967 0.930 . S
C962 H948 0.930 . S
C962 C960 1.395 . S
C962 C965 1.403 . S
C963 C960 1.403 . S
C963 C964 1.524 . S
C963 C967 1.400 . S
C964 H949 0.960 . S
C964 H950 0.960 . S
C964 H951 0.960 . S
C964 C963 1.524 . S
C965 C962 1.403 . S
C965 C966 1.392 . S
C965 C969 1.495 . S
C966 C965 1.392 . S
C966 C967 1.385 . S
C966 C968 1.478 . S
C967 H961 0.930 . S
C967 C963 1.400 . S
C967 C966 1.385 . S
C968 C966 1.478 . S
C968 C970 1.381 . S
C968 C974 1.383 . S
C969 C965 1.495 . S
C969 H975 0.959 . S
C969 H976 0.961 . S
C969 H977 0.960 . S
C970 C968 1.381 . S
C970 C971 1.394 . S
C970 H978 0.930 . S
C971 C970 1.394 . S
C971 C972 1.383 . S
C971 H979 0.929 . S
C972 C971 1.383 . S
C972 C973 1.377 . S
C973 H957 0.930 . S
C973 C972 1.377 . S
C973 C974 1.379 . S
C974 H958 0.931 . S
C974 C968 1.383 . S
C974 C973 1.379 . S
H975 C969 0.959 . S
H976 C969 0.961 . S
H977 C969 0.960 . S
H978 C970 0.930 . S
H979 C971 0.929 . S
H980 C988 0.929 . S
H981 C990 0.930 . S
H982 C992 0.931 . S
H983 C995 0.929 . S
H984 C998 0.930 . S
H985 C1000 0.960 . S
H986 C1000 0.960 . S
H987 C1000 0.960 . S
C988 H980 0.929 . S
C988 C989 1.377 1_565 S
C988 C990 1.384 . S
C989 C988 1.377 1_545 S
C989 C995 1.390 . S
C990 H981 0.930 . S
C990 C988 1.384 . S
C990 C991 1.372 . S
C991 C990 1.372 . S
C991 C992 1.400 . S
C991 C996 1.490 . S
C992 H982 0.931 . S
C992 C991 1.400 . S
C992 C995 1.386 1_565 S
H993 C1009 0.930 . S
H994 C1010 0.931 . S
C995 H983 0.929 . S
C995 C989 1.390 . S
C995 C992 1.386 1_545 S
C996 C991 1.490 . S
C996 C998 1.395 . S
C996 C999 1.403 . S
H997 C1003 0.930 . S
C998 H984 0.930 . S
C998 C996 1.395 . S
C998 C1001 1.403 . S
C999 C996 1.403 . S
C999 C1000 1.524 . S
C999 C1003 1.400 . S
C1000 H985 0.960 . S
C1000 H986 0.960 . S
C1000 H987 0.960 . S
C1000 C999 1.524 . S
C1001 C998 1.403 . S
C1001 C1002 1.392 . S
C1001 C1005 1.495 . S
C1002 C1001 1.392 . S
C1002 C1003 1.385 . S
C1002 C1004 1.478 . S
C1003 H997 0.930 . S
C1003 C999 1.400 . S
C1003 C1002 1.385 . S
C1004 C1002 1.478 . S
C1004 C1006 1.381 . S
C1004 C1010 1.383 . S
C1005 C1001 1.495 . S
C1005 H1011 0.959 . S
C1005 H1012 0.961 . S
C1005 H1013 0.960 . S
C1006 C1004 1.381 . S
C1006 C1007 1.394 . S
C1006 H1014 0.930 . S
C1007 C1006 1.394 . S
C1007 C1008 1.383 . S
C1007 H1015 0.929 . S
C1008 C1007 1.383 . S
C1008 C1009 1.377 . S
C1009 H993 0.930 . S
C1009 C1008 1.377 . S
C1009 C1010 1.379 . S
C1010 H994 0.931 . S
C1010 C1004 1.383 . S
C1010 C1009 1.379 . S
H1011 C1005 0.959 . S
H1012 C1005 0.961 . S
H1013 C1005 0.960 . S
H1014 C1006 0.930 . S
H1015 C1007 0.929 . S
H1016 C1024 0.929 . S
H1017 C1026 0.930 . S
H1018 C1028 0.930 . S
H1019 C1031 0.929 . S
H1020 C1034 0.930 . S
H1021 C1036 0.960 . S
H1022 C1036 0.960 . S
H1023 C1036 0.960 . S
C1024 H1016 0.929 . S
C1024 C1025 1.377 . S
C1024 C1026 1.384 . S
C1025 C1024 1.377 . S
C1025 C1031 1.390 . S
C1026 H1017 0.930 . S
C1026 C1024 1.384 . S
C1026 C1027 1.372 . S
C1027 C1026 1.372 . S
C1027 C1028 1.400 . S
C1027 C1032 1.490 . S
C1028 H1018 0.930 . S
C1028 C1027 1.400 . S
C1028 C1031 1.386 . S
H1029 C1045 0.930 . S
H1030 C1046 0.931 . S
C1031 H1019 0.929 . S
C1031 C1025 1.390 . S
C1031 C1028 1.386 . S
C1032 C1027 1.490 . S
C1032 C1034 1.395 . S
C1032 C1035 1.403 . S
H1033 C1039 0.930 . S
C1034 H1020 0.930 . S
C1034 C1032 1.395 . S
C1034 C1037 1.403 . S
C1035 C1032 1.403 . S
C1035 C1036 1.524 . S
C1035 C1039 1.400 . S
C1036 H1021 0.960 . S
C1036 H1022 0.960 . S
C1036 H1023 0.960 . S
C1036 C1035 1.524 . S
C1037 C1034 1.403 . S
C1037 C1038 1.392 . S
C1037 C1041 1.495 . S
C1038 C1037 1.392 . S
C1038 C1039 1.385 . S
C1038 C1040 1.478 . S
C1039 H1033 0.930 . S
C1039 C1035 1.400 . S
C1039 C1038 1.385 . S
C1040 C1038 1.478 . S
C1040 C1042 1.381 . S
C1040 C1046 1.383 . S
C1041 C1037 1.495 . S
C1041 H1047 0.959 . S
C1041 H1048 0.961 . S
C1041 H1049 0.960 . S
C1042 C1040 1.381 . S
C1042 C1043 1.394 . S
C1042 H1050 0.930 . S
C1043 C1042 1.394 . S
C1043 C1044 1.383 . S
C1043 H1051 0.929 1_556 S
C1044 C1043 1.383 . S
C1044 C1045 1.377 . S
C1045 H1029 0.930 . S
C1045 C1044 1.377 . S
C1045 C1046 1.379 . S
C1046 H1030 0.931 . S
C1046 C1040 1.383 . S
C1046 C1045 1.379 . S
H1047 C1041 0.959 . S
H1048 C1041 0.961 . S
H1049 C1041 0.960 . S
H1050 C1042 0.930 . S
H1051 C1043 0.929 1_554 S
H1052 C1060 0.929 . S
H1053 C1062 0.930 . S
H1054 C1064 0.930 . S
H1055 C1067 0.929 . S
H1056 C1070 0.930 . S
H1057 C1072 0.960 . S
H1058 C1072 0.960 . S
H1059 C1072 0.960 . S
C1060 H1052 0.929 . S
C1060 C1061 1.377 . S
C1060 C1062 1.384 . S
C1061 C1060 1.377 . S
C1061 C1067 1.390 . S
C1062 H1053 0.930 . S
C1062 C1060 1.384 . S
C1062 C1063 1.372 . S
C1063 C1062 1.372 . S
C1063 C1064 1.400 . S
C1063 C1068 1.490 . S
C1064 H1054 0.930 . S
C1064 C1063 1.400 . S
C1064 C1067 1.386 . S
H1065 C1081 0.930 . S
H1066 C1082 0.931 . S
C1067 H1055 0.929 . S
C1067 C1061 1.390 . S
C1067 C1064 1.386 . S
C1068 C1063 1.490 . S
C1068 C1070 1.395 . S
C1068 C1071 1.403 . S
H1069 C1075 0.930 . S
C1070 H1056 0.930 . S
C1070 C1068 1.395 . S
C1070 C1073 1.403 . S
C1071 C1068 1.403 . S
C1071 C1072 1.524 . S
C1071 C1075 1.400 . S
C1072 H1057 0.960 . S
C1072 H1058 0.960 . S
C1072 H1059 0.960 . S
C1072 C1071 1.524 . S
C1073 C1070 1.403 . S
C1073 C1074 1.392 . S
C1073 C1077 1.495 . S
C1074 C1073 1.392 . S
C1074 C1075 1.385 . S
C1074 C1076 1.478 . S
C1075 H1069 0.930 . S
C1075 C1071 1.400 . S
C1075 C1074 1.385 . S
C1076 C1074 1.478 . S
C1076 C1078 1.381 . S
C1076 C1082 1.383 . S
C1077 C1073 1.495 . S
C1077 H1083 0.959 . S
C1077 H1084 0.961 . S
C1077 H1085 0.960 . S
C1078 C1076 1.381 . S
C1078 C1079 1.394 . S
C1078 H1086 0.930 . S
C1079 C1078 1.394 . S
C1079 C1080 1.383 . S
C1079 H1087 0.929 . S
C1080 C1079 1.383 . S
C1080 C1081 1.377 . S
C1081 H1065 0.930 . S
C1081 C1080 1.377 . S
C1081 C1082 1.379 . S
C1082 H1066 0.931 . S
C1082 C1076 1.383 . S
C1082 C1081 1.379 . S
H1083 C1077 0.959 . S
H1084 C1077 0.961 . S
H1085 C1077 0.960 . S
H1086 C1078 0.930 . S
H1087 C1079 0.929 . S
H1088 C1096 0.929 . S
H1089 C1098 0.930 . S
H1090 C1100 0.930 . S
H1091 C1103 0.929 1_554 S
H1092 C1106 0.930 . S
H1093 C1108 0.960 . S
H1094 C1108 0.960 . S
H1095 C1108 0.960 . S
C1096 H1088 0.929 . S
C1096 C1097 1.377 . S
C1096 C1098 1.384 . S
C1097 C1096 1.377 . S
C1097 C1103 1.390 . S
C1098 H1089 0.930 . S
C1098 C1096 1.384 . S
C1098 C1099 1.372 . S
C1099 C1098 1.372 . S
C1099 C1100 1.400 . S
C1099 C1104 1.490 . S
C1100 H1090 0.930 . S
C1100 C1099 1.400 . S
C1100 C1103 1.386 . S
H1101 C1117 0.930 . S
H1102 C1118 0.931 . S
C1103 H1091 0.929 1_556 S
C1103 C1097 1.390 . S
C1103 C1100 1.386 . S
C1104 C1099 1.490 . S
C1104 C1106 1.395 . S
C1104 C1107 1.403 . S
H1105 C1111 0.930 . S
C1106 H1092 0.930 . S
C1106 C1104 1.395 . S
C1106 C1109 1.403 . S
C1107 C1104 1.403 . S
C1107 C1108 1.524 . S
C1107 C1111 1.400 . S
C1108 H1093 0.960 . S
C1108 H1094 0.960 . S
C1108 H1095 0.960 . S
C1108 C1107 1.524 . S
C1109 C1106 1.403 . S
C1109 C1110 1.392 . S
C1109 C1113 1.495 . S
C1110 C1109 1.392 . S
C1110 C1111 1.385 . S
C1110 C1112 1.478 . S
C1111 H1105 0.930 . S
C1111 C1107 1.400 . S
C1111 C1110 1.385 . S
C1112 C1110 1.478 . S
C1112 C1114 1.381 . S
C1112 C1118 1.383 . S
C1113 C1109 1.495 . S
C1113 H1119 0.959 . S
C1113 H1120 0.961 . S
C1113 H1121 0.960 . S
C1114 C1112 1.381 . S
C1114 C1115 1.394 . S
C1114 H1122 0.930 . S
C1115 C1114 1.394 . S
C1115 C1116 1.383 . S
C1115 H1123 0.929 . S
C1116 C1115 1.383 . S
C1116 C1117 1.377 . S
C1117 H1101 0.930 . S
C1117 C1116 1.377 . S
C1117 C1118 1.379 . S
C1118 H1102 0.931 . S
C1118 C1112 1.383 . S
C1118 C1117 1.379 . S
H1119 C1113 0.959 . S
H1120 C1113 0.961 . S
H1121 C1113 0.960 . S
H1122 C1114 0.930 . S
H1123 C1115 0.929 . S
H1124 C1132 0.929 . S
H1125 C1134 0.930 . S
H1126 C1136 0.930 . S
H1127 C1139 0.929 . S
H1128 C1142 0.930 . S
H1129 C1144 0.960 . S
H1130 C1144 0.960 . S
H1131 C1144 0.960 . S
C1132 H1124 0.929 . S
C1132 C1133 1.377 . S
C1132 C1134 1.384 . S
C1133 C1132 1.377 . S
C1133 C1139 1.390 . S
C1134 H1125 0.930 . S
C1134 C1132 1.384 . S
C1134 C1135 1.372 . S
C1135 C1134 1.372 . S
C1135 C1136 1.400 . S
C1135 C1140 1.490 . S
C1136 H1126 0.930 . S
C1136 C1135 1.400 . S
C1136 C1139 1.386 . S
H1137 C1153 0.930 . S
H1138 C1154 0.931 . S
C1139 H1127 0.929 . S
C1139 C1133 1.390 . S
C1139 C1136 1.386 . S
C1140 C1135 1.490 . S
C1140 C1142 1.395 . S
C1140 C1143 1.403 . S
H1141 C1147 0.930 . S
C1142 H1128 0.930 . S
C1142 C1140 1.395 . S
C1142 C1145 1.403 . S
C1143 C1140 1.403 . S
C1143 C1144 1.524 . S
C1143 C1147 1.400 . S
C1144 H1129 0.960 . S
C1144 H1130 0.960 . S
C1144 H1131 0.960 . S
C1144 C1143 1.524 . S
C1145 C1142 1.403 . S
C1145 C1146 1.392 . S
C1145 C1149 1.495 . S
C1146 C1145 1.392 . S
C1146 C1147 1.385 . S
C1146 C1148 1.478 . S
C1147 H1141 0.930 . S
C1147 C1143 1.400 . S
C1147 C1146 1.385 . S
C1148 C1146 1.478 . S
C1148 C1150 1.381 . S
C1148 C1154 1.383 . S
C1149 C1145 1.495 . S
C1149 H1155 0.959 . S
C1149 H1156 0.961 . S
C1149 H1157 0.960 . S
C1150 C1148 1.381 . S
C1150 C1151 1.394 . S
C1150 H1158 0.930 . S
C1151 C1150 1.394 . S
C1151 C1152 1.383 . S
C1151 H1159 0.929 . S
C1152 C1151 1.383 . S
C1152 C1153 1.377 . S
C1153 H1137 0.930 . S
C1153 C1152 1.377 . S
C1153 C1154 1.379 . S
C1154 H1138 0.931 . S
C1154 C1148 1.383 . S
C1154 C1153 1.379 . S
H1155 C1149 0.959 . S
H1156 C1149 0.961 . S
H1157 C1149 0.960 . S
H1158 C1150 0.930 . S
H1159 C1151 0.929 . S
H1160 C1168 0.929 . S
H1161 C1170 0.930 . S
H1162 C1172 0.930 . S
H1163 C1175 0.929 . S
H1164 C1178 0.930 . S
H1165 C1180 0.960 . S
H1166 C1180 0.960 . S
H1167 C1180 0.960 . S
C1168 H1160 0.929 . S
C1168 C1169 1.377 . S
C1168 C1170 1.384 . S
C1169 C1168 1.377 . S
C1169 C1175 1.390 . S
C1170 H1161 0.930 . S
C1170 C1168 1.384 . S
C1170 C1171 1.372 . S
C1171 C1170 1.372 . S
C1171 C1172 1.400 . S
C1171 C1176 1.490 . S
C1172 H1162 0.930 . S
C1172 C1171 1.400 . S
C1172 C1175 1.386 . S
H1173 C1189 0.930 . S
H1174 C1190 0.931 . S
C1175 H1163 0.929 . S
C1175 C1169 1.390 . S
C1175 C1172 1.386 . S
C1176 C1171 1.490 . S
C1176 C1178 1.395 . S
C1176 C1179 1.403 . S
H1177 C1183 0.930 . S
C1178 H1164 0.930 . S
C1178 C1176 1.395 . S
C1178 C1181 1.403 . S
C1179 C1176 1.403 . S
C1179 C1180 1.524 . S
C1179 C1183 1.400 . S
C1180 H1165 0.960 . S
C1180 H1166 0.960 . S
C1180 H1167 0.960 . S
C1180 C1179 1.524 . S
C1181 C1178 1.403 . S
C1181 C1182 1.392 . S
C1181 C1185 1.495 . S
C1182 C1181 1.392 . S
C1182 C1183 1.385 . S
C1182 C1184 1.478 . S
C1183 H1177 0.930 . S
C1183 C1179 1.400 . S
C1183 C1182 1.385 . S
C1184 C1182 1.478 . S
C1184 C1186 1.381 . S
C1184 C1190 1.383 . S
C1185 C1181 1.495 . S
C1185 H1191 0.959 . S
C1185 H1192 0.961 . S
C1185 H1193 0.960 . S
C1186 C1184 1.381 . S
C1186 C1187 1.394 . S
C1186 H1194 0.930 . S
C1187 C1186 1.394 . S
C1187 C1188 1.383 . S
C1187 H1195 0.929 . S
C1188 C1187 1.383 . S
C1188 C1189 1.377 . S
C1189 H1173 0.930 . S
C1189 C1188 1.377 . S
C1189 C1190 1.379 . S
C1190 H1174 0.931 . S
C1190 C1184 1.383 . S
C1190 C1189 1.379 . S
H1191 C1185 0.959 . S
H1192 C1185 0.961 . S
H1193 C1185 0.960 . S
H1194 C1186 0.930 . S
H1195 C1187 0.929 . S
H1196 C1204 0.929 . S
H1197 C1206 0.930 . S
H1198 C1208 0.930 . S
H1199 C1211 0.929 . S
H1200 C1214 0.930 . S
H1201 C1216 0.960 . S
H1202 C1216 0.960 . S
H1203 C1216 0.960 . S
C1204 H1196 0.929 . S
C1204 C1205 1.377 1_565 S
C1204 C1206 1.384 . S
C1205 C1204 1.377 1_545 S
C1205 C1211 1.390 . S
C1206 H1197 0.930 . S
C1206 C1204 1.384 . S
C1206 C1207 1.372 . S
C1207 C1206 1.372 . S
C1207 C1208 1.400 . S
C1207 C1212 1.490 . S
C1208 H1198 0.930 . S
C1208 C1207 1.400 . S
C1208 C1211 1.386 1_565 S
H1209 C1225 0.930 . S
H1210 C1226 0.931 . S
C1211 H1199 0.929 . S
C1211 C1205 1.390 . S
C1211 C1208 1.386 1_545 S
C1212 C1207 1.490 . S
C1212 C1214 1.395 . S
C1212 C1215 1.403 . S
H1213 C1219 0.930 . S
C1214 H1200 0.930 . S
C1214 C1212 1.395 . S
C1214 C1217 1.403 . S
C1215 C1212 1.403 . S
C1215 C1216 1.524 . S
C1215 C1219 1.400 . S
C1216 H1201 0.960 . S
C1216 H1202 0.960 . S
C1216 H1203 0.960 . S
C1216 C1215 1.524 . S
C1217 C1214 1.403 . S
C1217 C1218 1.392 . S
C1217 C1221 1.495 . S
C1218 C1217 1.392 . S
C1218 C1219 1.385 . S
C1218 C1220 1.478 . S
C1219 H1213 0.930 . S
C1219 C1215 1.400 . S
C1219 C1218 1.385 . S
C1220 C1218 1.478 . S
C1220 C1222 1.381 . S
C1220 C1226 1.383 . S
C1221 C1217 1.495 . S
C1221 H1227 0.959 . S
C1221 H1228 0.961 . S
C1221 H1229 0.960 . S
C1222 C1220 1.381 . S
C1222 C1223 1.394 . S
C1222 H1230 0.930 . S
C1223 C1222 1.394 . S
C1223 C1224 1.383 . S
C1223 H1231 0.929 . S
C1224 C1223 1.383 . S
C1224 C1225 1.377 . S
C1225 H1209 0.930 . S
C1225 C1224 1.377 . S
C1225 C1226 1.379 . S
C1226 H1210 0.931 . S
C1226 C1220 1.383 . S
C1226 C1225 1.379 . S
H1227 C1221 0.959 . S
H1228 C1221 0.961 . S
H1229 C1221 0.960 . S
H1230 C1222 0.930 . S
H1231 C1223 0.929 . S
H1232 C1240 0.929 . S
H1233 C1242 0.930 . S
H1234 C1244 0.930 . S
H1235 C1247 0.929 . S
H1236 C1250 0.930 . S
H1237 C1252 0.960 . S
H1238 C1252 0.960 . S
H1239 C1252 0.960 . S
C1240 H1232 0.929 . S
C1240 C1241 1.377 . S
C1240 C1242 1.384 . S
C1241 C1240 1.377 . S
C1241 C1247 1.390 . S
C1242 H1233 0.930 . S
C1242 C1240 1.384 . S
C1242 C1243 1.372 . S
C1243 C1242 1.372 . S
C1243 C1244 1.400 . S
C1243 C1248 1.490 . S
C1244 H1234 0.930 . S
C1244 C1243 1.400 . S
C1244 C1247 1.386 . S
H1245 C1261 0.930 . S
H1246 C1262 0.931 . S
C1247 H1235 0.929 . S
C1247 C1241 1.390 . S
C1247 C1244 1.386 . S
C1248 C1243 1.490 . S
C1248 C1250 1.395 . S
C1248 C1251 1.403 . S
H1249 C1255 0.930 . S
C1250 H1236 0.930 . S
C1250 C1248 1.395 . S
C1250 C1253 1.403 . S
C1251 C1248 1.403 . S
C1251 C1252 1.524 . S
C1251 C1255 1.400 . S
C1252 H1237 0.960 . S
C1252 H1238 0.960 . S
C1252 H1239 0.960 . S
C1252 C1251 1.524 . S
C1253 C1250 1.403 . S
C1253 C1254 1.392 . S
C1253 C1257 1.495 . S
C1254 C1253 1.392 . S
C1254 C1255 1.385 . S
C1254 C1256 1.478 . S
C1255 H1249 0.930 . S
C1255 C1251 1.400 . S
C1255 C1254 1.385 . S
C1256 C1254 1.478 . S
C1256 C1258 1.381 . S
C1256 C1262 1.383 . S
C1257 C1253 1.495 . S
C1257 H1263 0.959 . S
C1257 H1264 0.961 . S
C1257 H1265 0.960 . S
C1258 C1256 1.381 . S
C1258 C1259 1.394 . S
C1258 H1266 0.930 . S
C1259 C1258 1.394 . S
C1259 C1260 1.383 . S
C1259 H1267 0.929 . S
C1260 C1259 1.383 . S
C1260 C1261 1.377 . S
C1261 H1245 0.930 . S
C1261 C1260 1.377 . S
C1261 C1262 1.379 . S
C1262 H1246 0.931 . S
C1262 C1256 1.383 . S
C1262 C1261 1.379 . S
H1263 C1257 0.959 . S
H1264 C1257 0.961 . S
H1265 C1257 0.960 . S
H1266 C1258 0.930 . S
H1267 C1259 0.929 . S
H1268 C1276 0.929 . S
H1269 C1278 0.930 . S
H1270 C1280 0.930 . S
H1271 C1283 0.929 . S
H1272 C1286 0.930 . S
H1273 C1288 0.960 . S
H1274 C1288 0.960 . S
H1275 C1288 0.960 . S
C1276 H1268 0.929 . S
C1276 C1277 1.377 . S
C1276 C1278 1.384 . S
C1277 C1276 1.377 . S
C1277 C1283 1.390 . S
C1278 H1269 0.930 . S
C1278 C1276 1.384 . S
C1278 C1279 1.372 . S
C1279 C1278 1.372 . S
C1279 C1280 1.400 . S
C1279 C1284 1.490 . S
C1280 H1270 0.930 . S
C1280 C1279 1.400 . S
C1280 C1283 1.386 . S
H1281 C1297 0.930 . S
H1282 C1298 0.931 . S
C1283 H1271 0.929 . S
C1283 C1277 1.390 . S
C1283 C1280 1.386 . S
C1284 C1279 1.490 . S
C1284 C1286 1.395 . S
C1284 C1287 1.403 . S
H1285 C1291 0.930 . S
C1286 H1272 0.930 . S
C1286 C1284 1.395 . S
C1286 C1289 1.403 . S
C1287 C1284 1.403 . S
C1287 C1288 1.524 . S
C1287 C1291 1.400 . S
C1288 H1273 0.960 . S
C1288 H1274 0.960 . S
C1288 H1275 0.960 . S
C1288 C1287 1.524 . S
C1289 C1286 1.403 . S
C1289 C1290 1.392 . S
C1289 C1293 1.495 . S
C1290 C1289 1.392 . S
C1290 C1291 1.385 . S
C1290 C1292 1.478 . S
C1291 H1285 0.930 . S
C1291 C1287 1.400 . S
C1291 C1290 1.385 . S
C1292 C1290 1.478 . S
C1292 C1294 1.381 . S
C1292 C1298 1.383 . S
C1293 C1289 1.495 . S
C1293 H1299 0.959 . S
C1293 H1300 0.961 . S
C1293 H1301 0.960 . S
C1294 C1292 1.381 . S
C1294 C1295 1.394 . S
C1294 H1302 0.930 . S
C1295 C1294 1.394 . S
C1295 C1296 1.383 . S
C1295 H1303 0.929 . S
C1296 C1295 1.383 . S
C1296 C1297 1.377 . S
C1297 H1281 0.930 . S
C1297 C1296 1.377 . S
C1297 C1298 1.379 . S
C1298 H1282 0.931 . S
C1298 C1292 1.383 . S
C1298 C1297 1.379 . S
H1299 C1293 0.959 . S
H1300 C1293 0.961 . S
H1301 C1293 0.960 . S
H1302 C1294 0.930 . S
H1303 C1295 0.929 . S
H1304 C1312 0.929 . S
H1305 C1314 0.930 . S
H1306 C1316 0.930 . S
H1307 C1319 0.929 . S
H1308 C1322 0.930 . S
H1309 C1324 0.960 . S
H1310 C1324 0.960 . S
H1311 C1324 0.960 . S
C1312 H1304 0.929 . S
C1312 C1313 1.377 . S
C1312 C1314 1.384 . S
C1313 C1312 1.377 . S
C1313 C1319 1.390 . S
C1314 H1305 0.930 . S
C1314 C1312 1.384 . S
C1314 C1315 1.372 . S
C1315 C1314 1.372 . S
C1315 C1316 1.400 . S
C1315 C1320 1.490 . S
C1316 H1306 0.930 . S
C1316 C1315 1.400 . S
C1316 C1319 1.386 . S
H1317 C1333 0.930 . S
H1318 C1334 0.931 . S
C1319 H1307 0.929 . S
C1319 C1313 1.390 . S
C1319 C1316 1.386 . S
C1320 C1315 1.490 . S
C1320 C1322 1.395 . S
C1320 C1323 1.403 . S
H1321 C1327 0.930 . S
C1322 H1308 0.930 . S
C1322 C1320 1.395 . S
C1322 C1325 1.403 . S
C1323 C1320 1.403 . S
C1323 C1324 1.524 . S
C1323 C1327 1.400 . S
C1324 H1309 0.960 . S
C1324 H1310 0.960 . S
C1324 H1311 0.960 . S
C1324 C1323 1.524 . S
C1325 C1322 1.403 . S
C1325 C1326 1.392 . S
C1325 C1329 1.495 . S
C1326 C1325 1.392 . S
C1326 C1327 1.385 . S
C1326 C1328 1.478 . S
C1327 H1321 0.930 . S
C1327 C1323 1.400 . S
C1327 C1326 1.385 . S
C1328 C1326 1.478 . S
C1328 C1330 1.381 . S
C1328 C1334 1.383 . S
C1329 C1325 1.495 . S
C1329 H1335 0.959 . S
C1329 H1336 0.961 . S
C1329 H1337 0.960 . S
C1330 C1328 1.381 . S
C1330 C1331 1.394 . S
C1330 H1338 0.930 . S
C1331 C1330 1.394 . S
C1331 C1332 1.383 . S
C1331 H1339 0.929 . S
C1332 C1331 1.383 . S
C1332 C1333 1.377 . S
C1333 H1317 0.930 . S
C1333 C1332 1.377 . S
C1333 C1334 1.379 . S
C1334 H1318 0.931 . S
C1334 C1328 1.383 . S
C1334 C1333 1.379 . S
H1335 C1329 0.959 . S
H1336 C1329 0.961 . S
H1337 C1329 0.960 . S
H1338 C1330 0.930 . S
H1339 C1331 0.929 . S
H1340 C1348 0.929 . S
H1341 C1350 0.930 . S
H1342 C1352 0.930 . S
H1343 C1355 0.929 . S
H1344 C1358 0.930 . S
H1345 C1360 0.960 . S
H1346 C1360 0.960 . S
H1347 C1360 0.960 . S
C1348 H1340 0.929 . S
C1348 C1349 1.377 . S
C1348 C1350 1.384 . S
C1349 C1348 1.377 . S
C1349 C1355 1.390 . S
C1350 H1341 0.930 . S
C1350 C1348 1.384 . S
C1350 C1351 1.372 . S
C1351 C1350 1.372 . S
C1351 C1352 1.400 . S
C1351 C1356 1.490 . S
C1352 H1342 0.930 . S
C1352 C1351 1.400 . S
C1352 C1355 1.386 . S
H1353 C1369 0.930 . S
H1354 C1370 0.931 . S
C1355 H1343 0.929 . S
C1355 C1349 1.390 . S
C1355 C1352 1.386 . S
C1356 C1351 1.490 . S
C1356 C1358 1.395 . S
C1356 C1359 1.403 . S
H1357 C1363 0.930 . S
C1358 H1344 0.930 . S
C1358 C1356 1.395 . S
C1358 C1361 1.403 . S
C1359 C1356 1.403 . S
C1359 C1360 1.524 . S
C1359 C1363 1.400 . S
C1360 H1345 0.960 . S
C1360 H1346 0.960 . S
C1360 H1347 0.960 . S
C1360 C1359 1.524 . S
C1361 C1358 1.403 . S
C1361 C1362 1.392 . S
C1361 C1365 1.495 . S
C1362 C1361 1.392 . S
C1362 C1363 1.385 . S
C1362 C1364 1.478 . S
C1363 H1357 0.930 . S
C1363 C1359 1.400 . S
C1363 C1362 1.385 . S
C1364 C1362 1.478 . S
C1364 C1366 1.381 . S
C1364 C1370 1.383 . S
C1365 C1361 1.495 . S
C1365 H1371 0.959 . S
C1365 H1372 0.961 . S
C1365 H1373 0.960 . S
C1366 C1364 1.381 . S
C1366 C1367 1.394 . S
C1366 H1374 0.930 . S
C1367 C1366 1.394 . S
C1367 C1368 1.383 . S
C1367 H1375 0.929 . S
C1368 C1367 1.383 . S
C1368 C1369 1.377 . S
C1369 H1353 0.930 . S
C1369 C1368 1.377 . S
C1369 C1370 1.379 . S
C1370 H1354 0.931 . S
C1370 C1364 1.383 . S
C1370 C1369 1.379 . S
H1371 C1365 0.959 . S
H1372 C1365 0.961 . S
H1373 C1365 0.960 . S
H1374 C1366 0.930 . S
H1375 C1367 0.929 . S
C233 C6 1.307 . S
C252 C176 1.334 . S
C269 C23 1.881 . S
C288 C79 1.873 . S
C305 C34 1.315 . S
C324 C204 1.303 . S
C341 C107 1.875 . S
C360 C51 1.866 . S
C377 C205 1.876 . S
C396 C36 1.872 . S
C413 C106 1.318 . S
C432 C49 1.313 . S
C449 C177 1.876 . S
C468 C8 1.870 . S
C485 C78 1.320 . S
C504 C21 1.296 . S
C521 C64 1.320 . S
C540 C118 1.298 . S
C557 C92 1.318 . S
C576 C146 1.329 . S
C593 C148 1.881 . S
C612 C93 1.872 . S
C629 C65 1.875 . S
C648 C120 1.866 . S
C665 C191 1.881 . S
C684 C135 1.890 . S
C701 C163 1.881 . S
C720 C219 1.874 . S
C737 C161 1.315 . S
C756 C218 1.306 . S
C773 C133 1.308 . S
C792 C190 1.318 . S
C809 C160 1.576 . S
C828 C7 1.569 . S
C845 C121 1.395 . S
C864 C22 1.391 1_565 S
C881 C35 1.573 . S
C900 C132 1.567 . S
C917 C149 1.396 . S
C936 C50 1.404 . S
C953 C162 1.395 . S
C972 C37 1.389 . S
C989 C48 1.572 . S
C1008 C119 1.556 . S
C1025 C134 1.402 . S
C1044 C9 1.392 . S
C1061 C147 1.572 . S
C1080 C20 1.556 . S
C1097 C62 1.330 . S
C1116 C216 1.308 . S
C1133 C175 1.539 . S
C1152 C77 1.516 . S
C1169 C90 1.326 . S
C1188 C188 1.328 . S
C1205 C105 1.533 . S
C1224 C203 1.551 . S
C1241 C91 1.532 . S
C1260 C217 1.552 . S
C1277 C174 1.330 . S
C1296 C104 1.309 . S
C1313 C189 1.531 . S
C1332 C63 1.549 . S
C1349 C202 1.328 . S
C1368 C76 1.316 . S
