# Generated by pormake.
# Topology zfo, (5)-cn, num edge types: 1
# Building blocks:
#     Node 0, Type 0, BuildingBlock: XOMCOT_clean_sbu_0, # of connection points: 5
#     Node 1, Type 0, BuildingBlock: XOMCOT_clean_sbu_0, # of connection points: 5
#     Node 2, Type 0, BuildingBlock: XOMCOT_clean_sbu_0, # of connection points: 5
#     Node 3, Type 0, BuildingBlock: XOMCOT_clean_sbu_0, # of connection points: 5
#     Node 4, Type 0, BuildingBlock: XOMCOT_clean_sbu_0, # of connection points: 5
#     Node 5, Type 0, BuildingBlock: XOMCOT_clean_sbu_0, # of connection points: 5
#     Node 6, Type 0, BuildingBlock: XOMCOT_clean_sbu_0, # of connection points: 5
#     Node 7, Type 0, BuildingBlock: XOMCOT_clean_sbu_0, # of connection points: 5
#     Node 8, Type 0, BuildingBlock: XOMCOT_clean_sbu_0, # of connection points: 5
#     Node 9, Type 0, BuildingBlock: XOMCOT_clean_sbu_0, # of connection points: 5
#     Node 10, Type 0, BuildingBlock: XOMCOT_clean_sbu_0, # of connection points: 5
#     Node 11, Type 0, BuildingBlock: XOMCOT_clean_sbu_0, # of connection points: 5
#     Node 12, Type 0, BuildingBlock: XOMCOT_clean_sbu_0, # of connection points: 5
#     Node 13, Type 0, BuildingBlock: XOMCOT_clean_sbu_0, # of connection points: 5
#     Node 14, Type 0, BuildingBlock: XOMCOT_clean_sbu_0, # of connection points: 5
#     Node 15, Type 0, BuildingBlock: XOMCOT_clean_sbu_0, # of connection points: 5
#     Edge 16, Type (0, 0), BuildingBlock: UVAHIK_clean_linker_0, # of connection points: 2
#     Edge 17, Type (0, 0), BuildingBlock: UVAHIK_clean_linker_0, # of connection points: 2
#     Edge 18, Type (0, 0), BuildingBlock: UVAHIK_clean_linker_0, # of connection points: 2
#     Edge 19, Type (0, 0), BuildingBlock: UVAHIK_clean_linker_0, # of connection points: 2
#     Edge 20, Type (0, 0), BuildingBlock: UVAHIK_clean_linker_0, # of connection points: 2
#     Edge 21, Type (0, 0), BuildingBlock: UVAHIK_clean_linker_0, # of connection points: 2
#     Edge 22, Type (0, 0), BuildingBlock: UVAHIK_clean_linker_0, # of connection points: 2
#     Edge 23, Type (0, 0), BuildingBlock: UVAHIK_clean_linker_0, # of connection points: 2
#     Edge 24, Type (0, 0), BuildingBlock: UVAHIK_clean_linker_0, # of connection points: 2
#     Edge 25, Type (0, 0), BuildingBlock: UVAHIK_clean_linker_0, # of connection points: 2
#     Edge 26, Type (0, 0), BuildingBlock: UVAHIK_clean_linker_0, # of connection points: 2
#     Edge 27, Type (0, 0), BuildingBlock: UVAHIK_clean_linker_0, # of connection points: 2
#     Edge 28, Type (0, 0), BuildingBlock: UVAHIK_clean_linker_0, # of connection points: 2
#     Edge 29, Type (0, 0), BuildingBlock: UVAHIK_clean_linker_0, # of connection points: 2
#     Edge 30, Type (0, 0), BuildingBlock: UVAHIK_clean_linker_0, # of connection points: 2
#     Edge 31, Type (0, 0), BuildingBlock: UVAHIK_clean_linker_0, # of connection points: 2
#     Edge 32, Type (0, 0), BuildingBlock: UVAHIK_clean_linker_0, # of connection points: 2
#     Edge 33, Type (0, 0), BuildingBlock: UVAHIK_clean_linker_0, # of connection points: 2
#     Edge 34, Type (0, 0), BuildingBlock: UVAHIK_clean_linker_0, # of connection points: 2
#     Edge 35, Type (0, 0), BuildingBlock: UVAHIK_clean_linker_0, # of connection points: 2
#     Edge 36, Type (0, 0), BuildingBlock: UVAHIK_clean_linker_0, # of connection points: 2
#     Edge 37, Type (0, 0), BuildingBlock: UVAHIK_clean_linker_0, # of connection points: 2
#     Edge 38, Type (0, 0), BuildingBlock: UVAHIK_clean_linker_0, # of connection points: 2
#     Edge 39, Type (0, 0), BuildingBlock: UVAHIK_clean_linker_0, # of connection points: 2
#     Edge 40, Type (0, 0), BuildingBlock: UVAHIK_clean_linker_0, # of connection points: 2
#     Edge 41, Type (0, 0), BuildingBlock: UVAHIK_clean_linker_0, # of connection points: 2
#     Edge 42, Type (0, 0), BuildingBlock: UVAHIK_clean_linker_0, # of connection points: 2
#     Edge 43, Type (0, 0), BuildingBlock: UVAHIK_clean_linker_0, # of connection points: 2
#     Edge 44, Type (0, 0), BuildingBlock: UVAHIK_clean_linker_0, # of connection points: 2
#     Edge 45, Type (0, 0), BuildingBlock: UVAHIK_clean_linker_0, # of connection points: 2
#     Edge 46, Type (0, 0), BuildingBlock: UVAHIK_clean_linker_0, # of connection points: 2
#     Edge 47, Type (0, 0), BuildingBlock: UVAHIK_clean_linker_0, # of connection points: 2
#     Edge 48, Type (0, 0), BuildingBlock: UVAHIK_clean_linker_0, # of connection points: 2
#     Edge 49, Type (0, 0), BuildingBlock: UVAHIK_clean_linker_0, # of connection points: 2
#     Edge 50, Type (0, 0), BuildingBlock: UVAHIK_clean_linker_0, # of connection points: 2
#     Edge 51, Type (0, 0), BuildingBlock: UVAHIK_clean_linker_0, # of connection points: 2
#     Edge 52, Type (0, 0), BuildingBlock: UVAHIK_clean_linker_0, # of connection points: 2
#     Edge 53, Type (0, 0), BuildingBlock: UVAHIK_clean_linker_0, # of connection points: 2
#     Edge 54, Type (0, 0), BuildingBlock: UVAHIK_clean_linker_0, # of connection points: 2
#     Edge 55, Type (0, 0), BuildingBlock: UVAHIK_clean_linker_0, # of connection points: 2
# Relax obj value: 0.175
# Max RMSD: 0.183
# Mean RMSD: 0.183
data_MOF--net-zfo--node1-XOMCOT_clean_sbu_0--edge1-UVAHIK_clean_linker_0
_symmetry_space_group_name_H-M    P1
_symmetry_Int_Tables_number       1
_symmetry_cell_setting            triclinic
loop_
_symmetry_equiv_pos_as_xyz
'x, y, z'
_cell_length_a     43.068236
_cell_length_b     43.030262
_cell_length_c     73.786555
_cell_angle_alpha  89.968361
_cell_angle_beta   89.979173
_cell_angle_gamma 90.000817
loop_
_atom_site_label
_atom_site_type_symbol
_atom_site_fract_x
_atom_site_fract_y
_atom_site_fract_z
_atom_type_partial_charge
Co0 Co 0.08085 0.2233 0.16084 0.0
C1 C 0.14685 0.21042 0.16474 0.0
C2 C 0.12037 0.18304 0.18352 0.0
C3 C 0.15158 0.17858 0.18703 0.0
N4 N 0.11768 0.20304 0.16956 0.0
N5 N 0.16802 0.1958 0.17512 0.0
H6 H 0.15243 0.2277 0.15459 0.0
H7 H 0.10108 0.17359 0.19113 0.0
C8 C 0.03761 0.17219 0.1503 0.0
O9 O 0.02946 0.18919 0.13629 0.0
N10 N 0.04362 0.2444 0.15249 0.0
C11 C 0.0407 0.26593 0.13927 0.0
C12 C 0.01031 0.2753 0.13835 0.0
C13 C 0.01499 0.24194 0.15986 0.0
N14 N 0.99418 0.26016 0.15124 0.0
C15 C 0.10701 0.24071 0.12627 0.0
C16 C 0.10683 0.18195 0.11129 0.0
C17 C 0.1147 0.20731 0.10032 0.0
C18 C 0.11602 0.23687 0.10822 0.0
C19 C 0.09832 0.18688 0.1293 0.0
N20 N 0.09564 0.21632 0.1361 0.0
H21 H 0.10881 0.26351 0.13226 0.0
H22 H 0.09405 0.16682 0.13769 0.0
H23 H 0.05901 0.27527 0.13103 0.0
H24 H 0.00945 0.22671 0.17109 0.0
O25 O 0.09982 0.26321 0.16555 0.0
O26 O 0.07162 0.23636 0.18527 0.0
O27 O 0.05814 0.18218 0.16138 0.0
C28 C 0.08825 0.26089 0.18178 0.0
H29 H 0.16137 0.1645 0.19776 0.0
H30 H 0.00091 0.29255 0.12918 0.0
H31 H 0.10726 0.15848 0.10599 0.0
H32 H 0.12304 0.25699 0.1004 0.0
Co33 Co 0.78622 0.08259 0.66195 0.0
C34 C 0.78591 0.15156 0.66548 0.0
C35 C 0.81736 0.13005 0.68408 0.0
C36 C 0.81678 0.16149 0.68759 0.0
N37 N 0.7985 0.12388 0.66991 0.0
N38 N 0.79699 0.17491 0.67581 0.0
H39 H 0.76733 0.15461 0.65594 0.0
H40 H 0.82989 0.11269 0.69176 0.0
C41 C 0.85473 0.08335 0.65922 0.0
O42 O 0.85115 0.11041 0.65121 0.0
N43 N 0.77327 0.04164 0.65463 0.0
C44 C 0.75318 0.03543 0.64112 0.0
C45 C 0.74964 0.00383 0.6398 0.0
C46 C 0.78121 0.01383 0.66169 0.0
N47 N 0.76718 0.99034 0.65271 0.0
C48 C 0.77216 0.11264 0.62785 0.0
C49 C 0.81404 0.07906 0.60737 0.0
C50 C 0.79464 0.10044 0.59865 0.0
C51 C 0.77357 0.11748 0.60913 0.0
C52 C 0.81192 0.07503 0.62606 0.0
N53 N 0.79206 0.09259 0.6363 0.0
H54 H 0.75349 0.12338 0.63523 0.0
H55 H 0.82525 0.05649 0.63209 0.0
H56 H 0.74175 0.05272 0.63284 0.0
H57 H 0.79686 0.01086 0.67304 0.0
O58 O 0.74326 0.09438 0.66454 0.0
O59 O 0.77241 0.07441 0.68641 0.0
O60 O 0.83081 0.068 0.66438 0.0
C61 C 0.74575 0.08582 0.68139 0.0
H62 H 0.82946 0.17338 0.69817 0.0
H63 H 0.73467 0.99168 0.63039 0.0
H64 H 0.83018 0.06484 0.59976 0.0
H65 H 0.75709 0.13311 0.60281 0.0
Co66 Co 0.92037 0.79079 0.14977 0.0
C67 C 0.85255 0.79536 0.15672 0.0
C68 C 0.87675 0.83556 0.16613 0.0
C69 C 0.84622 0.83795 0.17133 0.0
N70 N 0.88065 0.80936 0.15633 0.0
N71 N 0.83097 0.81252 0.16546 0.0
H72 H 0.84854 0.77183 0.15227 0.0
H73 H 0.89512 0.85106 0.17033 0.0
C74 C 0.92895 0.8571 0.14019 0.0
O75 O 0.90306 0.85421 0.13091 0.0
N76 N 0.95963 0.77168 0.14411 0.0
C77 C 0.96375 0.74756 0.13271 0.0
C78 C 0.99473 0.74011 0.13235 0.0
C79 C 0.98793 0.77815 0.15092 0.0
N80 N 0.0098 0.75926 0.1438 0.0
C81 C 0.88525 0.77802 0.11701 0.0
C82 C 0.9288 0.80269 0.09351 0.0
C83 C 0.90186 0.78932 0.08639 0.0
C84 C 0.87977 0.77706 0.09833 0.0
C85 C 0.93309 0.80366 0.11221 0.0
N86 N 0.91122 0.79196 0.12382 0.0
H87 H 0.86919 0.76634 0.1258 0.0
H88 H 0.95454 0.81321 0.11737 0.0
H89 H 0.94541 0.73616 0.12523 0.0
H90 H 0.9924 0.79619 0.1608 0.0
O91 O 0.90421 0.75012 0.15549 0.0
O92 O 0.92667 0.78212 0.17515 0.0
O93 O 0.93999 0.83362 0.14871 0.0
C94 C 0.91293 0.75568 0.17206 0.0
H95 H 0.83648 0.85653 0.17939 0.0
H96 H 0.00532 0.72154 0.12461 0.0
H97 H 0.94659 0.81206 0.08467 0.0
H98 H 0.85911 0.76565 0.09325 0.0
Co99 Co 0.21527 0.91649 0.66364 0.0
C100 C 0.19808 0.85112 0.66708 0.0
C101 C 0.17342 0.87912 0.68639 0.0
C102 C 0.16665 0.84827 0.68967 0.0
N103 N 0.19313 0.88066 0.67224 0.0
N104 N 0.18217 0.83086 0.67746 0.0
H105 H 0.21439 0.84449 0.65661 0.0
H106 H 0.16562 0.89889 0.69421 0.0
C107 C 0.16585 0.96343 0.65516 0.0
O108 O 0.18204 0.97221 0.64095 0.0
N109 N 0.23815 0.95272 0.65542 0.0
C110 C 0.25994 0.95475 0.64231 0.0
C111 C 0.27091 0.98467 0.64162 0.0
C112 C 0.23717 0.98128 0.66299 0.0
N113 N 0.25651 0.00133 0.65457 0.0
C114 C 0.22964 0.89095 0.62854 0.0
C115 C 0.17091 0.89666 0.61394 0.0
C116 C 0.19542 0.88759 0.60265 0.0
C117 C 0.22487 0.88349 0.61033 0.0
C118 C 0.17672 0.9035 0.63212 0.0
N119 N 0.20634 0.90335 0.6388 0.0
H120 H 0.25236 0.88718 0.63428 0.0
H121 H 0.1572 0.90881 0.64072 0.0
H122 H 0.26837 0.93604 0.63402 0.0
H123 H 0.22214 0.98735 0.6742 0.0
O124 O 0.25403 0.89481 0.66748 0.0
O125 O 0.23011 0.92399 0.68792 0.0
O126 O 0.17569 0.94146 0.66531 0.0
C127 C 0.25335 0.90597 0.68386 0.0
H128 H 0.15205 0.8393 0.70041 0.0
H129 H 0.28867 0.99335 0.63255 0.0
H130 H 0.14745 0.89844 0.60877 0.0
H131 H 0.2443 0.87556 0.60224 0.0
Co132 Co 0.58383 0.28386 0.83911 0.0
C133 C 0.653 0.28683 0.83678 0.0
C134 C 0.63061 0.31502 0.81676 0.0
C135 C 0.66214 0.31598 0.81372 0.0
N136 N 0.62487 0.29704 0.83138 0.0
N137 N 0.67607 0.29827 0.82638 0.0
H138 H 0.65683 0.27002 0.84731 0.0
H139 H 0.61292 0.32598 0.80855 0.0
C140 C 0.58464 0.35228 0.84308 0.0
O141 O 0.61198 0.34848 0.85068 0.0
N142 N 0.543 0.27036 0.84606 0.0
C143 C 0.53616 0.24946 0.85907 0.0
C144 C 0.50453 0.24561 0.85963 0.0
C145 C 0.51565 0.27854 0.83861 0.0
N146 N 0.49175 0.26381 0.84676 0.0
C147 C 0.6132 0.2658 0.87265 0.0
C148 C 0.58136 0.30701 0.89449 0.0
C149 C 0.60187 0.2859 0.90256 0.0
C150 C 0.61804 0.26519 0.89138 0.0
C151 C 0.57732 0.30692 0.87575 0.0
N152 N 0.59404 0.28733 0.86487 0.0
H153 H 0.62343 0.24759 0.86461 0.0
H154 H 0.55935 0.32154 0.8702 0.0
H155 H 0.55302 0.23754 0.8674 0.0
H156 H 0.51332 0.29476 0.82748 0.0
O157 O 0.59575 0.24117 0.83511 0.0
O158 O 0.57532 0.27226 0.81432 0.0
O159 O 0.56907 0.32852 0.83795 0.0
C160 C 0.58685 0.24519 0.81843 0.0
H161 H 0.67384 0.32835 0.80292 0.0
H162 H 0.49192 0.22991 0.86844 0.0
H163 H 0.56781 0.32296 0.90265 0.0
H164 H 0.633 0.24751 0.89712 0.0
Co165 Co 0.72017 0.57429 0.33185 0.0
C166 C 0.70258 0.64006 0.33059 0.0
C167 C 0.67384 0.61275 0.31294 0.0
C168 C 0.66626 0.64368 0.31071 0.0
N169 N 0.69658 0.61068 0.3254 0.0
N170 N 0.68438 0.66072 0.32184 0.0
H171 H 0.72095 0.64623 0.33992 0.0
H172 H 0.6643 0.59329 0.30553 0.0
C173 C 0.6711 0.52925 0.34328 0.0
O174 O 0.68849 0.52223 0.35734 0.0
N175 N 0.74475 0.5375 0.3377 0.0
C176 C 0.77408 0.53712 0.34412 0.0
C177 C 0.78502 0.50721 0.34401 0.0
C178 C 0.73906 0.50768 0.33286 0.0
N179 N 0.76294 0.48851 0.33706 0.0
C180 C 0.7394 0.59107 0.36814 0.0
C181 C 0.68022 0.59694 0.38221 0.0
C182 C 0.70568 0.60074 0.39381 0.0
C183 C 0.73561 0.59844 0.38645 0.0
C184 C 0.6851 0.58975 0.364 0.0
N185 N 0.71439 0.58496 0.35737 0.0
H186 H 0.76246 0.59111 0.36263 0.0
H187 H 0.66515 0.58814 0.35518 0.0
H188 H 0.7879 0.55722 0.34738 0.0
H189 H 0.71819 0.5003 0.32597 0.0
O190 O 0.75797 0.59699 0.32703 0.0
O191 O 0.73165 0.56939 0.30675 0.0
O192 O 0.68058 0.54911 0.33163 0.0
C193 C 0.75519 0.58732 0.3104 0.0
H194 H 0.64916 0.65293 0.30142 0.0
H195 H 0.8082 0.50019 0.34789 0.0
H196 H 0.65669 0.5999 0.38711 0.0
H197 H 0.756 0.60201 0.39478 0.0
Co198 Co 0.42931 0.71873 0.84761 0.0
C199 C 0.36366 0.70708 0.83687 0.0
C200 C 0.38608 0.66555 0.84611 0.0
C201 C 0.35539 0.65892 0.84268 0.0
N202 N 0.39142 0.69575 0.84237 0.0
N203 N 0.34125 0.68511 0.83696 0.0
H204 H 0.3593 0.7313 0.83396 0.0
H205 H 0.40275 0.64964 0.85189 0.0
C206 C 0.48045 0.66882 0.84983 0.0
O207 O 0.50123 0.68834 0.85607 0.0
N208 N 0.46637 0.74271 0.85296 0.0
C209 C 0.47001 0.76192 0.86723 0.0
C210 C 0.4989 0.7753 0.86631 0.0
C211 C 0.49238 0.7463 0.84289 0.0
N212 N 0.51309 0.76521 0.85113 0.0
C213 C 0.39297 0.72626 0.87978 0.0
C214 C 0.43561 0.7012 0.90367 0.0
C215 C 0.40801 0.71368 0.91051 0.0
C216 C 0.3862 0.72579 0.89833 0.0
C217 C 0.44123 0.70168 0.88508 0.0
N218 N 0.42033 0.71454 0.87337 0.0
H219 H 0.37652 0.7367 0.87056 0.0
H220 H 0.46311 0.69305 0.8804 0.0
H221 H 0.45291 0.76597 0.87769 0.0
H222 H 0.49679 0.73385 0.83041 0.0
O223 O 0.40852 0.75771 0.84276 0.0
O224 O 0.43343 0.72917 0.82236 0.0
O225 O 0.45249 0.67755 0.84687 0.0
C226 C 0.41732 0.75397 0.82599 0.0
H227 H 0.34424 0.63667 0.84478 0.0
H228 H 0.50887 0.791 0.87618 0.0
H229 H 0.453 0.69156 0.91267 0.0
H230 H 0.36467 0.73586 0.90315 0.0
Co231 Co 0.2884 0.41927 0.34266 0.0
C232 C 0.2859 0.35037 0.33986 0.0
C233 C 0.32256 0.36978 0.3239 0.0
C234 C 0.32097 0.3384 0.32037 0.0
N235 N 0.30097 0.37723 0.33645 0.0
N236 N 0.29788 0.32633 0.33047 0.0
H237 H 0.26494 0.34855 0.34771 0.0
H238 H 0.33747 0.38631 0.31709 0.0
C239 C 0.35628 0.41775 0.34955 0.0
O240 O 0.3513 0.39155 0.35825 0.0
N241 N 0.27543 0.46097 0.34819 0.0
C242 C 0.25308 0.46881 0.36012 0.0
C243 C 0.2506 0.50059 0.36053 0.0
C244 C 0.28587 0.48794 0.34117 0.0
N245 N 0.27115 0.51252 0.34862 0.0
C246 C 0.26755 0.39127 0.37619 0.0
C247 C 0.30656 0.4247 0.39858 0.0
C248 C 0.28572 0.4036 0.40639 0.0
C249 C 0.26598 0.38677 0.39494 0.0
C250 C 0.3074 0.42837 0.37982 0.0
N251 N 0.28906 0.41076 0.3687 0.0
H252 H 0.2501 0.38048 0.36789 0.0
H253 H 0.32207 0.44641 0.37434 0.0
H254 H 0.23947 0.4525 0.36795 0.0
H255 H 0.30385 0.48954 0.33095 0.0
O256 O 0.24573 0.40858 0.33737 0.0
O257 O 0.27998 0.42612 0.31733 0.0
O258 O 0.33342 0.43272 0.3427 0.0
C259 C 0.25211 0.41593 0.32066 0.0
H260 H 0.33507 0.32568 0.31076 0.0
H261 H 0.23441 0.51394 0.36862 0.0
H262 H 0.3218 0.43873 0.40691 0.0
H263 H 0.24848 0.37136 0.40046 0.0
Co264 Co 0.92607 0.76863 0.8294 0.0
C265 C 0.86028 0.78604 0.82988 0.0
C266 C 0.88637 0.81591 0.81221 0.0
C267 C 0.8553 0.82333 0.8107 0.0
N268 N 0.8893 0.79254 0.82424 0.0
N269 N 0.83904 0.8045 0.82184 0.0
H270 H 0.85473 0.76709 0.83897 0.0
H271 H 0.90531 0.82594 0.80456 0.0
C272 C 0.97022 0.81807 0.84185 0.0
O273 O 0.9778 0.80029 0.85565 0.0
N274 N 0.96321 0.74362 0.83397 0.0
C275 C 0.96354 0.71311 0.8383 0.0
C276 C 0.99352 0.70256 0.83843 0.0
C277 C 0.99335 0.75054 0.83049 0.0
N278 N 0.01242 0.72611 0.83368 0.0
C279 C 0.91272 0.74509 0.86512 0.0
C280 C 0.90488 0.80215 0.88167 0.0
C281 C 0.90394 0.77516 0.89228 0.0
C282 C 0.90716 0.74635 0.8837 0.0
C283 C 0.91083 0.79981 0.86308 0.0
N284 N 0.91652 0.77158 0.85521 0.0
H285 H 0.91335 0.72272 0.85874 0.0
H286 H 0.91116 0.82081 0.85505 0.0
H287 H 0.9434 0.69853 0.8401 0.0
H288 H 0.00119 0.77267 0.82531 0.0
O289 O 0.90319 0.73139 0.82373 0.0
O290 O 0.93014 0.75934 0.80392 0.0
O291 O 0.95076 0.8085 0.83004 0.0
C292 C 0.91234 0.73546 0.80709 0.0
H293 H 0.84539 0.84076 0.80184 0.0
H294 H 0.00062 0.67884 0.841 0.0
H295 H 0.90176 0.82486 0.88772 0.0
H296 H 0.9051 0.72488 0.89129 0.0
Co297 Co 0.19986 0.91898 0.34572 0.0
C298 C 0.20511 0.85058 0.34092 0.0
C299 C 0.17388 0.87124 0.32185 0.0
C300 C 0.17793 0.84052 0.31722 0.0
N301 N 0.19049 0.87748 0.33693 0.0
N302 N 0.19764 0.82766 0.32924 0.0
H303 H 0.22296 0.84822 0.35101 0.0
H304 H 0.16106 0.88832 0.31412 0.0
C305 C 0.13107 0.91527 0.34542 0.0
O306 O 0.13429 0.88775 0.35293 0.0
N307 N 0.20983 0.96032 0.35374 0.0
C308 C 0.2265 0.968 0.36852 0.0
C309 C 0.22973 -0.00025 0.36901 0.0
C310 C 0.20362 0.9873 0.34521 0.0
N311 N 0.21545 0.01178 0.35433 0.0
C312 C 0.21295 0.8887 0.37973 0.0
C313 C 0.16584 0.91646 0.39928 0.0
C314 C 0.18636 0.89647 0.40834 0.0
C315 C 0.21023 0.88259 0.39826 0.0
C316 C 0.1697 0.92229 0.38082 0.0
N317 N 0.19222 0.90747 0.37099 0.0
H318 H 0.23303 0.87985 0.37275 0.0
H319 H 0.15529 0.9399 0.37471 0.0
H320 H 0.23628 0.95165 0.37807 0.0
H321 H 0.19113 0.98892 0.33252 0.0
O322 O 0.24358 0.90942 0.34427 0.0
O323 O 0.21531 0.92866 0.32181 0.0
O324 O 0.1551 0.93173 0.34193 0.0
C325 C 0.24197 0.91812 0.3274 0.0
H326 H 0.16802 0.8289 0.30558 0.0
H327 H 0.24265 0.01291 0.37897 0.0
H328 H 0.14725 0.92816 0.40642 0.0
H329 H 0.22764 0.86824 0.40474 0.0
Co330 Co 0.08494 0.20026 0.84413 0.0
C331 C 0.1531 0.20126 0.83816 0.0
C332 C 0.12985 0.17101 0.81958 0.0
C333 C 0.1607 0.17264 0.81472 0.0
N334 N 0.12519 0.1886 0.83448 0.0
N335 N 0.17519 0.19168 0.82648 0.0
H336 H 0.15704 0.21897 0.84816 0.0
H337 H 0.11176 0.15891 0.81227 0.0
C338 C 0.087 0.1315 0.84622 0.0
O339 O 0.11509 0.13503 0.85287 0.0
N340 N 0.04485 0.2126 0.85314 0.0
C341 C 0.03968 0.2313 0.86748 0.0
C342 C 0.00837 0.23647 0.86894 0.0
C343 C 0.01671 0.20713 0.84581 0.0
N344 N 0.99399 0.22138 0.85532 0.0
C345 C 0.11789 0.21604 0.87697 0.0
C346 C 0.09056 0.17134 0.89857 0.0
C347 C 0.11115 0.19249 0.90659 0.0
C348 C 0.12489 0.21508 0.89547 0.0
C349 C 0.08374 0.17354 0.88016 0.0
N350 N 0.09837 0.19475 0.86929 0.0
H351 H 0.12655 0.23534 0.86917 0.0
H352 H 0.06541 0.15902 0.87497 0.0
H353 H 0.05748 0.24134 0.87596 0.0
H354 H 0.01306 0.19362 0.83363 0.0
O355 O 0.09573 0.2435 0.8408 0.0
O356 O 0.07343 0.21366 0.82007 0.0
O357 O 0.07068 0.15546 0.84226 0.0
C358 C 0.0851 0.24056 0.82438 0.0
H359 H 0.17141 0.16139 0.80319 0.0
H360 H 0.99716 0.25142 0.87876 0.0
H361 H 0.07899 0.1536 0.90649 0.0
H362 H 0.13973 0.23294 0.90111 0.0
Co363 Co 0.76702 0.07125 0.34169 0.0
C364 C 0.77883 0.13712 0.33137 0.0
C365 C 0.82083 0.11313 0.33821 0.0
C366 C 0.8278 0.14387 0.33512 0.0
N367 N 0.79011 0.10874 0.33574 0.0
N368 N 0.80134 0.15897 0.33091 0.0
H369 H 0.75444 0.14229 0.32973 0.0
H370 H 0.83695 0.09577 0.34301 0.0
C371 C 0.81549 0.01868 0.3413 0.0
O372 O 0.79634 0.99869 0.34871 0.0
N373 N 0.74302 0.03465 0.34796 0.0
C374 C 0.72638 0.03088 0.36328 0.0
C375 C 0.7125 0.00219 0.36294 0.0
C376 C 0.73742 0.00889 0.33799 0.0
N377 N 0.71983 0.98815 0.34718 0.0
C378 C 0.76194 0.10563 0.37465 0.0
C379 C 0.79541 0.0654 0.3963 0.0
C380 C 0.78125 0.09127 0.40433 0.0
C381 C 0.76473 0.11187 0.39318 0.0
C382 C 0.79181 0.05991 0.37783 0.0
N383 N 0.77492 0.07963 0.36722 0.0
H384 H 0.74871 0.12142 0.36629 0.0
H385 H 0.80195 0.03921 0.37245 0.0
H386 H 0.72457 0.04767 0.37411 0.0
H387 H 0.74789 0.00451 0.32489 0.0
O388 O 0.72809 0.09307 0.33897 0.0
O389 O 0.75284 0.06818 0.31696 0.0
O390 O 0.80729 0.04695 0.33871 0.0
C391 C 0.72911 0.0848 0.322 0.0
H392 H 0.85048 0.15442 0.3365 0.0
H393 H 0.69859 0.99215 0.37367 0.0
H394 H 0.80897 0.04916 0.40425 0.0
H395 H 0.75326 0.1321 0.39877 0.0
Co396 Co 0.41856 0.72375 0.16846 0.0
C397 C 0.35247 0.70962 0.16568 0.0
C398 C 0.37516 0.6783 0.18406 0.0
C399 C 0.34357 0.67303 0.18485 0.0
N400 N 0.38049 0.70129 0.17207 0.0
N401 N 0.32952 0.69275 0.17324 0.0
H402 H 0.3488 0.72908 0.15662 0.0
H403 H 0.39277 0.66741 0.19236 0.0
C404 C 0.46186 0.67327 0.15662 0.0
O405 O 0.47134 0.69149 0.14342 0.0
N406 N 0.457 0.74721 0.16557 0.0
C407 C 0.45922 0.77812 0.16241 0.0
C408 C 0.48932 0.78753 0.16494 0.0
C409 C 0.48594 0.73867 0.17072 0.0
N410 N 0.50601 0.7627 0.17009 0.0
C411 C 0.41028 0.74928 0.13265 0.0
C412 C 0.4004 0.69332 0.1152 0.0
C413 C 0.40174 0.72066 0.10491 0.0
C414 C 0.40611 0.74895 0.11392 0.0
C415 C 0.40499 0.6947 0.13394 0.0
N416 N 0.41147 0.7223 0.14234 0.0
H417 H 0.41191 0.77136 0.13932 0.0
H418 H 0.40354 0.67345 0.1417 0.0
H419 H 0.44008 0.79367 0.15983 0.0
H420 H 0.49198 0.716 0.17596 0.0
O421 O 0.3968 0.76176 0.17403 0.0
O422 O 0.42063 0.73177 0.19417 0.0
O423 O 0.44159 0.68291 0.16795 0.0
C424 C 0.40438 0.75665 0.19085 0.0
H425 H 0.33178 0.65679 0.1937 0.0
H426 H 0.49812 0.81099 0.16363 0.0
H427 H 0.39645 0.67102 0.1088 0.0
H428 H 0.40592 0.77074 0.10656 0.0
Co429 Co 0.26819 0.4178 0.66467 0.0
C430 C 0.28012 0.34933 0.66772 0.0
C431 C 0.30331 0.37602 0.68813 0.0
C432 C 0.30849 0.34505 0.69158 0.0
N433 N 0.28575 0.37879 0.67306 0.0
N434 N 0.29392 0.3284 0.67869 0.0
H435 H 0.26511 0.34285 0.65671 0.0
H436 H 0.31116 0.39532 0.69632 0.0
C437 C 0.33603 0.42364 0.66076 0.0
O438 O 0.33424 0.39596 0.65331 0.0
N439 N 0.25011 0.45657 0.65707 0.0
C440 C 0.22818 0.45974 0.64419 0.0
C441 C 0.22041 0.49055 0.64281 0.0
C442 C 0.25501 0.48536 0.66367 0.0
N443 N 0.23721 0.50659 0.65505 0.0
C444 C 0.25519 0.38555 0.63108 0.0
C445 C 0.29227 0.42284 0.60961 0.0
C446 C 0.27426 0.39983 0.6013 0.0
C447 C 0.25565 0.38086 0.61229 0.0
C448 C 0.29099 0.42681 0.62831 0.0
N449 N 0.27363 0.40752 0.63903 0.0
H450 H 0.23846 0.37281 0.63901 0.0
H451 H 0.30282 0.44665 0.63395 0.0
H452 H 0.21821 0.44085 0.63648 0.0
H453 H 0.27109 0.49061 0.67452 0.0
O454 O 0.22708 0.40115 0.66837 0.0
O455 O 0.25484 0.42551 0.68929 0.0
O456 O 0.31113 0.43732 0.66598 0.0
C457 C 0.22946 0.41077 0.68502 0.0
H458 H 0.32163 0.3355 0.70278 0.0
H459 H 0.20302 0.50032 0.63387 0.0
H460 H 0.30665 0.4384 0.60169 0.0
H461 H 0.24036 0.36366 0.60638 0.0
Co462 Co 0.57836 0.29109 0.16028 0.0
C463 C 0.64731 0.29861 0.16339 0.0
C464 C 0.62211 0.32599 0.18265 0.0
C465 C 0.65332 0.32928 0.18613 0.0
N466 N 0.61829 0.30698 0.16827 0.0
N467 N 0.66902 0.31208 0.17395 0.0
H468 H 0.65284 0.28191 0.15306 0.0
H469 H 0.60334 0.33612 0.1904 0.0
C470 C 0.57631 0.35893 0.1542 0.0
O471 O 0.60382 0.35543 0.14676 0.0
N472 N 0.53859 0.27484 0.15308 0.0
C473 C 0.53373 0.25279 0.14044 0.0
C474 C 0.50255 0.24639 0.13971 0.0
C475 C 0.51046 0.28113 0.16021 0.0
N476 N 0.48802 0.26412 0.15216 0.0
C477 C 0.61029 0.27219 0.12765 0.0
C478 C 0.5768 0.30959 0.10434 0.0
C479 C 0.59871 0.28905 0.09707 0.0
C480 C 0.61573 0.27029 0.10899 0.0
C481 C 0.57211 0.31073 0.12301 0.0
N482 N 0.58958 0.2931 0.1346 0.0
H483 H 0.62136 0.25538 0.13634 0.0
H484 H 0.5531 0.32465 0.12795 0.0
H485 H 0.55169 0.24166 0.13252 0.0
H486 H 0.50657 0.29754 0.17109 0.0
O487 O 0.59213 0.24938 0.16564 0.0
O488 O 0.56922 0.28103 0.18522 0.0
O489 O 0.56154 0.33509 0.16005 0.0
C490 C 0.58213 0.25423 0.18204 0.0
H491 H 0.66365 0.34294 0.19686 0.0
H492 H 0.49148 0.22925 0.13114 0.0
H493 H 0.56265 0.32411 0.09565 0.0
H494 H 0.63189 0.25309 0.10391 0.0
Co495 Co 0.70011 0.58284 0.64862 0.0
C496 C 0.69799 0.65039 0.65268 0.0
C497 C 0.66384 0.62822 0.66949 0.0
C498 C 0.66428 0.65951 0.6735 0.0
N499 N 0.68504 0.62268 0.65647 0.0
N500 N 0.68587 0.67331 0.66294 0.0
H501 H 0.71743 0.6533 0.64353 0.0
H502 H 0.65029 0.61055 0.67628 0.0
C503 C 0.64377 0.54388 0.64178 0.0
O504 O 0.65825 0.53133 0.62792 0.0
N505 N 0.71578 0.54242 0.64124 0.0
C506 C 0.73152 0.53422 0.62614 0.0
C507 C 0.738 0.50301 0.62688 0.0
C508 C 0.71358 0.51603 0.6511 0.0
N509 N 0.7267 0.49163 0.64254 0.0
C510 C 0.71889 0.60442 0.61357 0.0
C511 C 0.66056 0.60827 0.59824 0.0
C512 C 0.68664 0.61386 0.58733 0.0
C513 C 0.71604 0.61276 0.5954 0.0
C514 C 0.66451 0.60012 0.61646 0.0
N515 N 0.69355 0.59599 0.62356 0.0
H516 H 0.74186 0.60343 0.61936 0.0
H517 H 0.64407 0.59747 0.62474 0.0
H518 H 0.73829 0.54927 0.61521 0.0
H519 H 0.702 0.51463 0.66409 0.0
O520 O 0.74221 0.59717 0.65179 0.0
O521 O 0.71395 0.57455 0.67312 0.0
O522 O 0.65675 0.5654 0.65099 0.0
C523 C 0.73997 0.58771 0.66846 0.0
H524 H 0.65055 0.67101 0.68379 0.0
H525 H 0.75056 0.48978 0.61678 0.0
H526 H 0.63731 0.61029 0.59278 0.0
H527 H 0.7369 0.61723 0.58762 0.0
C528 C 0.00194 0.1296 0.14044 0.0
C529 C 0.02585 0.13997 0.15188 0.0
C530 C 0.9919 0.09877 0.14109 0.0
C531 C 0.01732 0.02019 0.15369 0.0
H532 H 0.92965 0.00131 0.14919 0.0
C533 C 0.96704 0.89415 0.15449 0.0
C534 C 0.94317 0.88828 0.14196 0.0
C535 C 0.97826 0.92445 0.15699 0.0
C536 C 0.95425 0.00617 0.15031 0.0
H537 H 0.05773 0.12611 0.17318 0.0
H538 H 0.04005 0.07213 0.17431 0.0
H539 H 0.94634 0.05517 0.15175 0.0
H540 H 0.91336 0.90938 0.12166 0.0
H541 H 0.93308 0.96167 0.12584 0.0
H542 H 0.02517 0.97105 0.15196 0.0
C543 C 0.02926 0.08791 0.16476 0.0
C544 C 0.9638 0.03704 0.1518 0.0
C545 C 0.0392 0.11888 0.1642 0.0
C546 C 0.93151 0.91308 0.13159 0.0
C547 C 0.94267 0.94317 0.13407 0.0
C548 C 0.00774 0.98919 0.15216 0.0
C549 C 0.00558 0.0775 0.15315 0.0
C550 C 0.99546 0.04448 0.15318 0.0
C551 C 0.96576 0.94937 0.14701 0.0
C552 C 0.97612 0.9819 0.1501 0.0
H553 H 0.99115 0.1452 0.13079 0.0
H554 H 0.97387 0.09142 0.1318 0.0
H555 H 0.04192 0.02519 0.1546 0.0
H556 H 0.9765 0.87553 0.16269 0.0
H557 H 0.99606 0.92849 0.16709 0.0
C558 C 0.12482 0.00326 0.64891 0.0
C559 C 0.13447 0.97644 0.6582 0.0
C560 C 0.09472 0.01477 0.65117 0.0
C561 C 0.0159 0.99059 0.66313 0.0
H562 H 0.00143 0.07895 0.66888 0.0
C563 C 0.89192 0.04246 0.67047 0.0
C564 C 0.88641 0.07035 0.66108 0.0
C565 C 0.92214 0.0306 0.67197 0.0
C566 C 0.00501 0.05423 0.66711 0.0
H567 H 0.12013 0.94077 0.67727 0.0
H568 H 0.06745 0.9608 0.68106 0.0
H569 H 0.05446 0.0593 0.66789 0.0
H570 H 0.90831 0.10744 0.64574 0.0
H571 H 0.96036 0.08659 0.64797 0.0
H572 H 0.96649 0.98557 0.66177 0.0
C573 C 0.08322 0.97287 0.67204 0.0
C574 C 0.03542 0.043 0.66659 0.0
C575 C 0.11345 0.96154 0.66994 0.0
C576 C 0.91167 0.08602 0.65321 0.0
C577 C 0.94168 0.07415 0.6546 0.0
C578 C 0.98543 0.00186 0.66348 0.0
C579 C 0.07352 -0.00047 0.66263 0.0
C580 C 0.0412 0.01113 0.66436 0.0
C581 C 0.94741 0.04637 0.66405 0.0
C582 C 0.97961 0.0339 0.66519 0.0
H583 H 0.14046 0.01528 0.63979 0.0
H584 H 0.0878 0.03522 0.64362 0.0
H585 H 0.01969 0.96592 0.66125 0.0
H586 H 0.87295 0.02985 0.67672 0.0
H587 H 0.92574 0.00927 0.67947 0.0
C588 C 0.4677 0.6141 0.84036 0.0
C589 C 0.48921 0.63582 0.84711 0.0
C590 C 0.47618 0.58297 0.83795 0.0
C591 C 0.54494 0.53253 0.83246 0.0
H592 H 0.49099 0.46664 0.84967 0.0
C593 C 0.59025 0.40975 0.84605 0.0
C594 C 0.57177 0.38406 0.84138 0.0
C595 C 0.57856 0.43987 0.84479 0.0
C596 C 0.50609 0.48473 0.84452 0.0
H597 H 0.53662 0.64173 0.85649 0.0
H598 H 0.55127 0.58765 0.85232 0.0
H599 H 0.47348 0.52064 0.85112 0.0
H600 H 0.5264 0.36992 0.83167 0.0
H601 H 0.50586 0.42292 0.82944 0.0
H602 H 0.57772 0.49685 0.8261 0.0
C603 C 0.52792 0.5947 0.84875 0.0
C604 C 0.49608 0.51566 0.84537 0.0
C605 C 0.51943 0.62572 0.85124 0.0
C606 C 0.54123 0.38924 0.83535 0.0
C607 C 0.52943 0.41954 0.83416 0.0
C608 C 0.55489 0.50171 0.83159 0.0
C609 C 0.50642 0.57296 0.84208 0.0
C610 C 0.51569 0.53994 0.83971 0.0
C611 C 0.54805 0.44519 0.83884 0.0
C612 C 0.53589 0.47749 0.83798 0.0
H613 H 0.44433 0.6211 0.83685 0.0
H614 H 0.45918 0.56682 0.83263 0.0
H615 H 0.56031 0.55064 0.82761 0.0
H616 H 0.61386 0.40667 0.85077 0.0
H617 H 0.59335 0.45902 0.84882 0.0
C618 C 0.62992 0.49191 0.35325 0.0
C619 C 0.6394 0.51625 0.34182 0.0
C620 C 0.59945 0.4808 0.35263 0.0
C621 C 0.52039 0.50452 0.3406 0.0
H622 H 0.50304 0.41618 0.3425 0.0
C623 C 0.39516 0.4554 0.33677 0.0
C624 C 0.38834 0.42982 0.34793 0.0
C625 C 0.42574 0.46602 0.33498 0.0
C626 C 0.50744 0.44095 0.34218 0.0
H627 H 0.62439 0.54778 0.32059 0.0
H628 H 0.57112 0.5284 0.31958 0.0
H629 H 0.55666 0.43411 0.34113 0.0
H630 H 0.4082 0.39576 0.36627 0.0
H631 H 0.46111 0.41464 0.36352 0.0
H632 H 0.47124 0.51146 0.34206 0.0
C633 C 0.58729 0.51802 0.32906 0.0
C634 C 0.53819 0.45119 0.34133 0.0
C635 C 0.61785 0.52895 0.32956 0.0
C636 C 0.41265 0.41537 0.35744 0.0
C637 C 0.4431 0.42608 0.35575 0.0
C638 C 0.48961 0.49429 0.34158 0.0
C639 C 0.57772 0.49396 0.34066 0.0
C640 C 0.54501 0.48308 0.34068 0.0
C641 C 0.45012 0.45138 0.3444 0.0
C642 C 0.48275 0.46237 0.34255 0.0
H643 H 0.64594 0.48161 0.36285 0.0
H644 H 0.59268 0.46241 0.36186 0.0
H645 H 0.52495 0.52927 0.34031 0.0
H646 H 0.37696 0.46698 0.32922 0.0
H647 H 0.43033 0.48538 0.32599 0.0
C648 C 0.08963 0.07459 0.85253 0.0
C649 C 0.07397 0.09978 0.84458 0.0
C650 C 0.07796 0.04447 0.85104 0.0
C651 C 0.00645 -8e-05 0.84066 0.0
H652 H 0.0649 0.93173 0.83623 0.0
C653 C 0.96876 0.87202 0.82906 0.0
C654 C 0.98277 0.85001 0.84055 0.0
C655 C 0.97966 0.90262 0.82847 0.0
C656 C 0.04832 0.95053 0.83755 0.0
H657 H 0.03365 0.1131 0.82882 0.0
H658 H 0.01352 0.06019 0.82581 0.0
H659 H 0.08396 0.98501 0.83675 0.0
H660 H 0.01952 0.84272 0.86017 0.0
H661 H 0.03883 0.89605 0.85892 0.0
H662 H 0.9708 0.96513 0.84121 0.0
C663 C 0.03462 0.06385 0.83349 0.0
C664 C 0.05921 0.9811 0.83792 0.0
C665 C 0.04621 0.09417 0.83513 0.0
C666 C 0.00823 0.85912 0.85119 0.0
C667 C 0.01937 0.88961 0.85042 0.0
C668 C 0.99553 0.96929 0.84009 0.0
C669 C 0.05045 0.03859 0.84138 0.0
C670 C 0.03848 0.0062 0.83977 0.0
C671 C 0.00505 0.91173 0.83916 0.0
C672 C 0.01641 0.94428 0.83878 0.0
H673 H 0.11091 0.07808 0.86008 0.0
H674 H 0.09041 0.02582 0.85769 0.0
H675 H 0.98981 0.01857 0.84231 0.0
H676 H 0.949 0.86577 0.82074 0.0
H677 H 0.96833 0.91912 0.81957 0.0
C678 C 0.09487 0.95789 0.33548 0.0
C679 C 0.0995 0.92748 0.34192 0.0
C680 C 0.06478 0.96925 0.33262 0.0
C681 C 0.98337 0.94309 0.32642 0.0
H682 H 0.96187 0.02492 0.34447 0.0
C683 C 0.8578 0.97883 0.34219 0.0
C684 C 0.84813 0.00923 0.33805 0.0
C685 C 0.8888 0.9701 0.34007 0.0
C686 C 0.9676 0.00222 0.33908 0.0
H687 H 0.07614 0.88511 0.35026 0.0
H688 H 0.02404 0.90492 0.34548 0.0
H689 H 0.01583 0.00756 0.34546 0.0
H690 H 0.86347 0.05393 0.32778 0.0
H691 H 0.91775 0.03867 0.32425 0.0
H692 H 0.93508 0.93742 0.32047 0.0
C693 C 0.04353 0.91992 0.34238 0.0
C694 C -0.00148 0.99228 0.33964 0.0
C695 C 0.07347 0.90863 0.34526 0.0
C696 C 0.87014 0.03048 0.33134 0.0
C697 C 0.90127 0.02176 0.32932 0.0
C698 C 0.95251 0.95299 0.3259 0.0
C699 C 0.03877 0.95036 0.33606 0.0
C700 C 0.00664 0.96233 0.33368 0.0
C701 C 0.91096 0.99152 0.33378 0.0
C702 C 0.94417 0.9824 0.33257 0.0
H703 H 0.11445 0.97299 0.33275 0.0
H704 H 0.06188 0.99275 0.32763 0.0
H705 H 0.98895 0.92014 0.32136 0.0
H706 H 0.84153 0.96179 0.34735 0.0
H707 H 0.89556 0.94672 0.34383 0.0
C708 C 0.53564 0.39645 0.16531 0.0
C709 C 0.56263 0.39045 0.15519 0.0
C710 C 0.52394 0.42678 0.16665 0.0
C711 C 0.54836 0.50903 0.16067 0.0
H712 H 0.45999 0.52576 0.15861 0.0
C713 C 0.49903 0.6314 0.14737 0.0
C714 C 0.47365 0.64104 0.15793 0.0
C715 C 0.50962 0.60074 0.14823 0.0
C716 C 0.48473 0.5214 0.1594 0.0
H717 H 0.5979 0.41141 0.13807 0.0
H718 H 0.57726 0.46367 0.14004 0.0
H719 H 0.47848 0.47207 0.15781 0.0
H720 H 0.43945 0.62598 0.17769 0.0
H721 H 0.45793 0.57237 0.1791 0.0
H722 H 0.55464 0.55832 0.16187 0.0
C723 C 0.56552 0.44531 0.14739 0.0
C724 C 0.49532 0.49065 0.15898 0.0
C725 C 0.57725 0.41521 0.14616 0.0
C726 C 0.45914 0.61933 0.16941 0.0
C727 C 0.46956 0.58857 0.17014 0.0
C728 C 0.5378 0.53969 0.16096 0.0
C729 C 0.53896 0.45163 0.15782 0.0
C730 C 0.52731 0.48411 0.15938 0.0
C731 C 0.49491 0.57895 0.15955 0.0
C732 C 0.5059 0.54625 0.16013 0.0
H733 H 0.52388 0.37786 0.17245 0.0
H734 H 0.50352 0.43084 0.17488 0.0
H735 H 0.57313 0.50486 0.16144 0.0
H736 H 0.51072 0.64753 0.13839 0.0
H737 H 0.52902 0.59393 0.13977 0.0
C738 C 0.37067 0.46896 0.66896 0.0
C739 C 0.36684 0.43886 0.66189 0.0
C740 C 0.40026 0.48265 0.6696 0.0
C741 C 0.48409 0.46172 0.66735 0.0
H742 H 0.49631 0.5467 0.65139 0.0
C743 C 0.60036 0.50557 0.6396 0.0
C744 C 0.61177 0.53395 0.64621 0.0
C745 C 0.57032 0.49582 0.64388 0.0
C746 C 0.49317 0.52307 0.6561 0.0
H747 H 0.39115 0.3997 0.64987 0.0
H748 H 0.44185 0.42347 0.65068 0.0
H749 H 0.4435 0.52642 0.655 0.0
H750 H 0.60048 0.57463 0.66228 0.0
H751 H 0.54752 0.55771 0.66945 0.0
H752 H 0.53363 0.45793 0.6677 0.0
C753 C 0.4224 0.43642 0.65612 0.0
C754 C 0.46296 0.51148 0.65823 0.0
C755 C 0.3931 0.42284 0.65551 0.0
C756 C 0.59236 0.55256 0.65705 0.0
C757 C 0.56205 0.543 0.66109 0.0
C758 C 0.51413 0.47317 0.66504 0.0
C759 C 0.42649 0.4664 0.66323 0.0
C760 C 0.45811 0.48037 0.66341 0.0
C761 C 0.55086 0.51441 0.65465 0.0
C762 C 0.51898 0.50369 0.65898 0.0
H763 H 0.35087 0.48191 0.67396 0.0
H764 H 0.40265 0.50579 0.6752 0.0
H765 H 0.48122 0.43791 0.67182 0.0
H766 H 0.61475 0.49068 0.63126 0.0
H767 H 0.56216 0.47381 0.63857 0.0
C768 C 0.14504 0.21772 0.0718 0.0
C769 C 0.12016 0.20302 0.08064 0.0
C770 C 0.14896 0.21455 0.05306 0.0
C771 C 0.12206 0.16731 0.01357 0.0
H772 H 0.14611 0.23989 0.98571 0.0
C773 C 0.09212 0.18398 0.93844 0.0
C774 C 0.11636 0.1923 0.92658 0.0
C775 C 0.09673 0.18367 0.95714 0.0
C776 C 0.13977 0.21935 0.99336 0.0
H777 H 0.07969 0.17384 0.07684 0.0
H778 H 0.08588 0.16898 0.04427 0.0
H779 H 0.14653 0.24221 0.01879 0.0
H780 H 0.16455 0.20709 0.92538 0.0
H781 H 0.17206 0.20775 0.95826 0.0
H782 H 0.11371 0.14513 0.98804 0.0
C783 C 0.10308 0.18212 0.05173 0.0
C784 C 0.1401 0.22058 0.01231 0.0
C785 C 0.09941 0.18499 0.07043 0.0
C786 C 0.14524 0.20085 0.93404 0.0
C787 C 0.14965 0.20109 0.95285 0.0
C788 C 0.12127 0.16629 0.99467 0.0
C789 C 0.12784 0.1969 0.04275 0.0
C790 C 0.13064 0.19474 0.02266 0.0
C791 C 0.12547 0.19226 0.96452 0.0
C792 C 0.1296 0.19245 0.98441 0.0
H793 H 0.16153 0.23157 0.07939 0.0
H794 H 0.16854 0.22591 0.04666 0.0
H795 H 0.11543 0.14669 0.02104 0.0
H796 H 0.06926 0.1782 0.93337 0.0
H797 H 0.07755 0.17732 0.9659 0.0
C798 C 0.78144 0.06996 0.43592 0.0
C799 C 0.78296 0.09581 0.42429 0.0
C800 C 0.78416 0.07362 0.4546 0.0
C801 C 0.77414 0.12814 0.49187 0.0
H802 H 0.82941 0.07159 0.51708 0.0
C803 C 0.79313 0.13185 0.5699 0.0
C804 C 0.79461 0.10282 0.5786 0.0
C805 C 0.79326 0.13371 0.55095 0.0
C806 C 0.81367 0.0874 0.51029 0.0
H807 H 0.78776 0.146 0.42333 0.0
H808 H 0.79187 0.1524 0.45625 0.0
H809 H 0.8263 0.07001 0.48416 0.0
H810 H 0.79608 0.05299 0.57431 0.0
H811 H 0.79601 0.05616 0.54146 0.0
H812 H 0.7608 0.14489 0.5181 0.0
C813 C 0.78876 0.1293 0.45071 0.0
C814 C 0.81199 0.08654 0.49143 0.0
C815 C 0.78633 0.12561 0.4319 0.0
C816 C 0.79571 0.07574 0.56801 0.0
C817 C 0.7957 0.07757 0.54916 0.0
C818 C 0.77564 0.12885 0.51082 0.0
C819 C 0.78814 0.10325 0.46219 0.0
C820 C 0.79179 0.10647 0.48205 0.0
C821 C 0.79473 0.10656 0.54037 0.0
C822 C 0.79498 0.10802 0.52025 0.0
H823 H 0.77795 0.04676 0.43061 0.0
H824 H 0.78292 0.0532 0.46317 0.0
H825 H 0.75828 0.14367 0.48495 0.0
H826 H 0.79236 0.15311 0.57774 0.0
H827 H 0.79269 0.1564 0.5446 0.0
C828 C 0.87731 0.79546 0.9202 0.0
C829 C 0.90025 0.77674 0.91221 0.0
C830 C 0.8738 0.79618 0.93906 0.0
C831 C 0.89572 0.75212 0.98068 0.0
H832 H 0.87732 0.82966 0.00521 0.0
C833 C 0.92168 0.77369 0.05597 0.0
C834 C 0.89788 0.78665 0.06655 0.0
C835 C 0.91847 0.7715 0.03721 0.0
C836 C 0.88209 0.80779 0.99849 0.0
H837 H 0.93814 0.74497 0.91761 0.0
H838 H 0.93277 0.74687 0.95037 0.0
H839 H 0.87871 0.82818 0.97211 0.0
H840 H 0.85214 0.80751 0.06595 0.0
H841 H 0.8468 0.80436 0.03283 0.0
H842 H 0.90046 0.73217 0.00714 0.0
C843 C 0.91667 0.76017 0.9422 0.0
C844 C 0.88281 0.80687 0.97954 0.0
C845 C 0.9199 0.75918 0.92341 0.0
C846 C 0.87073 0.79734 0.05804 0.0
C847 C 0.86776 0.79569 0.03917 0.0
C848 C 0.89543 0.75318 0.99958 0.0
C849 C 0.89341 0.77844 0.9503 0.0
C850 C 0.89017 0.77912 0.9704 0.0
C851 C 0.8916 0.78267 0.02862 0.0
C852 C 0.88905 0.78109 0.00865 0.0
H853 H 0.86172 0.80907 0.91184 0.0
H854 H 0.85544 0.81027 0.9448 0.0
H855 H 0.90062 0.73014 0.97415 0.0
H856 H 0.94274 0.7651 0.06225 0.0
H857 H 0.93728 0.76158 0.02936 0.0
C858 C 0.17495 0.91639 0.43972 0.0
C859 C 0.18419 0.89182 0.42833 0.0
C860 C 0.17361 0.91238 0.45848 0.0
C861 C 0.20763 0.86827 0.49542 0.0
H862 H 0.13629 0.89686 0.52281 0.0
C863 C 0.20351 0.85842 0.57351 0.0
C864 C 0.19059 0.88371 0.58288 0.0
C865 C 0.20042 0.8561 0.55468 0.0
C866 C 0.15656 0.88905 0.51542 0.0
H867 H 0.19887 0.84354 0.42797 0.0
H868 H 0.19748 0.83699 0.46086 0.0
H869 H 0.13552 0.89943 0.48981 0.0
H870 H 0.16443 0.92642 0.57994 0.0
H871 H 0.15969 0.92291 0.54719 0.0
H872 H 0.22932 0.85912 0.52092 0.0
C873 C 0.19117 0.85928 0.4551 0.0
C874 C 0.156 0.89039 0.4965 0.0
C875 C 0.19209 0.86313 0.43628 0.0
C876 C 0.17421 0.9064 0.57311 0.0
C877 C 0.17143 0.9043 0.5543 0.0
C878 C 0.20838 0.8673 0.51436 0.0
C879 C 0.1819 0.88388 0.46636 0.0
C880 C 0.18165 0.88034 0.48634 0.0
C881 C 0.18466 0.87923 0.54479 0.0
C882 C 0.18299 0.87805 0.52462 0.0
H883 H 0.16944 0.93907 0.43423 0.0
H884 H 0.16685 0.93189 0.46688 0.0
H885 H 0.22784 0.86064 0.48789 0.0
H886 H 0.21601 0.84043 0.58074 0.0
H887 H 0.21045 0.83619 0.54788 0.0
C888 C 0.57529 0.28528 0.0661 0.0
C889 C 0.60188 0.28561 0.07713 0.0
C890 C 0.57791 0.28236 0.04735 0.0
C891 C 0.63205 0.29435 0.00946 0.0
H892 H 0.57143 0.24516 0.98326 0.0
C893 C 0.63334 0.28015 0.93109 0.0
C894 C 0.60436 0.28382 0.92258 0.0
C895 C 0.63535 0.27804 0.94999 0.0
C896 C 0.58844 0.2591 0.99038 0.0
H897 H 0.65213 0.2828 0.0771 0.0
H898 H 0.65674 0.27737 0.04416 0.0
H899 H 0.57103 0.24516 0.01627 0.0
H900 H 0.55474 0.2874 0.9272 0.0
H901 H 0.55827 0.28408 0.96005 0.0
H902 H 0.64917 0.30855 0.98346 0.0
C903 C 0.63386 0.27969 0.05011 0.0
C904 C 0.58821 0.25912 0.00929 0.0
C905 C 0.63122 0.28255 0.06895 0.0
C906 C 0.57746 0.28504 0.93334 0.0
C907 C 0.57944 0.28273 0.95216 0.0
C908 C 0.63233 0.29426 0.9905 0.0
C909 C 0.60719 0.27958 0.0391 0.0
C910 C 0.60958 0.27725 0.01906 0.0
C911 C 0.60838 0.27919 0.96071 0.0
C912 C 0.6101 0.27713 0.98076 0.0
H913 H 0.5523 0.28707 0.07198 0.0
H914 H 0.55692 0.28276 0.03927 0.0
H915 H 0.64867 0.30874 0.01659 0.0
H916 H 0.65446 0.27922 0.92313 0.0
H917 H 0.65795 0.27516 0.9562 0.0
C918 C 0.66306 0.60141 0.55709 0.0
C919 C 0.6836 0.61943 0.56753 0.0
C920 C 0.66292 0.60383 0.5382 0.0
C921 C 0.71481 0.62518 0.50073 0.0
H922 H 0.64025 0.61896 0.47153 0.0
C923 C 0.71969 0.62858 0.42263 0.0
C924 C 0.701 0.60696 0.41343 0.0
C925 C 0.71593 0.63346 0.44124 0.0
C926 C 0.66131 0.6205 0.4795 0.0
H927 H 0.71863 0.65559 0.56634 0.0
H928 H 0.71837 0.65981 0.53338 0.0
H929 H 0.63596 0.6221 0.50448 0.0
H930 H 0.66367 0.57356 0.41656 0.0
H931 H 0.65728 0.58187 0.44899 0.0
H932 H 0.74023 0.62288 0.47588 0.0
C933 C 0.70283 0.64335 0.5398 0.0
C934 C 0.65883 0.62234 0.49837 0.0
C935 C 0.70295 0.64095 0.55868 0.0
C936 C 0.67817 0.59068 0.4232 0.0
C937 C 0.67447 0.5955 0.4418 0.0
C938 C 0.71729 0.62326 0.48189 0.0
C939 C 0.68331 0.62433 0.52931 0.0
C940 C 0.68558 0.62444 0.50921 0.0
C941 C 0.69346 0.61677 0.45108 0.0
C942 C 0.69059 0.6206 0.47105 0.0
H943 H 0.64811 0.58436 0.56346 0.0
H944 H 0.64782 0.58863 0.53052 0.0
H945 H 0.73591 0.62622 0.50869 0.0
H946 H 0.73714 0.64186 0.41544 0.0
H947 H 0.73062 0.65038 0.4479 0.0
C948 C 0.41981 0.7371 0.07419 0.0
C949 C 0.39901 0.71993 0.08488 0.0
C950 C 0.41745 0.73684 0.05534 0.0
C951 C 0.38387 0.69254 0.01694 0.0
H952 H 0.40462 0.76768 0.99051 0.0
C953 C 0.37562 0.70459 0.93835 0.0
C954 C 0.40311 0.71557 0.93033 0.0
C955 C 0.37188 0.7056 0.95721 0.0
C956 C 0.39874 0.74655 0.99773 0.0
H957 H 0.35929 0.68906 0.08424 0.0
H958 H 0.35464 0.68907 0.0512 0.0
H959 H 0.40363 0.76851 0.02351 0.0
H960 H 0.44776 0.73698 0.93553 0.0
H961 H 0.44102 0.73925 0.96834 0.0
H962 H 0.37879 0.67081 0.99093 0.0
C963 C 0.3732 0.70231 0.05739 0.0
C964 C 0.39836 0.74692 0.01664 0.0
C965 C 0.37579 0.70233 0.0763 0.0
C966 C 0.42645 0.72815 0.9414 0.0
C967 C 0.4225 0.72964 0.96014 0.0
C968 C 0.38388 0.69231 0.99796 0.0
C969 C 0.39397 0.71966 0.04666 0.0
C970 C 0.39163 0.71975 0.02652 0.0
C971 C 0.3953 0.71822 0.96824 0.0
C972 C 0.39197 0.71915 0.98821 0.0
H973 H 0.43828 0.75045 0.08042 0.0
H974 H 0.43438 0.74982 0.04757 0.0
H975 H 0.37885 0.67112 0.02406 0.0
H976 H 0.35735 0.69471 0.93008 0.0
H977 H 0.35065 0.69674 0.96315 0.0
C978 C 0.27341 0.36833 0.57248 0.0
C979 C 0.27347 0.39739 0.58121 0.0
C980 C 0.27423 0.36654 0.55352 0.0
C981 C 0.2985 0.41235 0.51391 0.0
H982 H 0.24503 0.35775 0.48612 0.0
C983 C 0.28429 0.42744 0.43732 0.0
C984 C 0.28339 0.40073 0.4264 0.0
C985 C 0.28294 0.42499 0.45615 0.0
C986 C 0.26041 0.37282 0.49371 0.0
H987 H 0.27245 0.44727 0.57682 0.0
H988 H 0.27421 0.4441 0.54397 0.0
H989 H 0.24286 0.35675 0.51929 0.0
H990 H 0.27985 0.35048 0.42666 0.0
H991 H 0.27772 0.34614 0.45972 0.0
H992 H 0.31613 0.42848 0.48854 0.0
C993 C 0.27426 0.42272 0.55173 0.0
C994 C 0.25914 0.37225 0.51268 0.0
C995 C 0.27333 0.42451 0.57058 0.0
C996 C 0.28046 0.37148 0.43474 0.0
C997 C 0.2792 0.36901 0.45365 0.0
C998 C 0.29986 0.41284 0.49503 0.0
C999 C 0.27519 0.39377 0.54298 0.0
C1000 C 0.2778 0.39244 0.52294 0.0
C1001 C 0.28076 0.39575 0.46457 0.0
C1002 C 0.28046 0.3935 0.48468 0.0
H1003 H 0.27358 0.34703 0.5803 0.0
H1004 H 0.27498 0.3439 0.54712 0.0
H1005 H 0.31366 0.4277 0.52146 0.0
H1006 H 0.28577 0.45036 0.43131 0.0
H1007 H 0.28341 0.44611 0.46412 0.0
C1008 C 0.10497 0.31387 0.19161 0.0
C1009 C 0.09627 0.28341 0.19606 0.0
C1010 C 0.11564 0.33417 0.20503 0.0
C1011 C 0.12635 0.34129 0.25557 0.0
H1012 H 0.19272 0.39667 0.24102 0.0
C1013 C 0.19814 0.40665 0.30933 0.0
C1014 C 0.23003 0.4096 0.30586 0.0
C1015 C 0.17782 0.3974 0.29555 0.0
C1016 C 0.17447 0.3811 0.24543 0.0
H1017 H 0.0914 0.25025 0.21795 0.0
H1018 H 0.11163 0.28464 0.24113 0.0
H1019 H 0.16477 0.36778 0.21821 0.0
H1020 H 0.26574 0.40561 0.28533 0.0
H1021 H 0.23102 0.38792 0.26168 0.0
H1022 H 0.13802 0.35237 0.28289 0.0
C1023 C 0.10911 0.29372 0.22753 0.0
C1024 C 0.15785 0.36489 0.23221 0.0
C1025 C 0.09766 0.27378 0.21419 0.0
C1026 C 0.24117 0.40388 0.28832 0.0
C1027 C 0.22107 0.3939 0.27469 0.0
C1028 C 0.14353 0.35686 0.26882 0.0
C1029 C 0.11874 0.32412 0.22313 0.0
C1030 C 0.13395 0.34419 0.23709 0.0
C1031 C 0.18911 0.39008 0.27813 0.0
C1032 C 0.16834 0.37648 0.26397 0.0
H1033 H 0.10385 0.32191 0.1777 0.0
H1034 H 0.12194 0.35756 0.2011 0.0
H1035 H 0.10757 0.32635 0.25994 0.0
H1036 H 0.18895 0.41112 0.32274 0.0
H1037 H 0.15334 0.39553 0.2987 0.0
C1038 C 0.72512 0.08624 0.71311 0.0
C1039 C 0.72078 0.09233 0.69458 0.0
C1040 C 0.70359 0.0969 0.72587 0.0
C1041 C 0.64903 0.16089 0.73142 0.0
H1042 H 0.62617 0.11847 0.77583 0.0
C1043 C 0.58143 0.22538 0.78672 0.0
C1044 C 0.59273 0.22142 0.80442 0.0
C1045 C 0.59058 0.20517 0.77289 0.0
C1046 C 0.63243 0.13067 0.76353 0.0
H1047 H 0.68951 0.11253 0.67476 0.0
H1048 H 0.65195 0.13098 0.69701 0.0
H1049 H 0.65439 0.09034 0.75222 0.0
H1050 H 0.62125 0.19236 0.82172 0.0
H1051 H 0.63787 0.15769 0.79759 0.0
H1052 H 0.62856 0.20153 0.74286 0.0
C1053 C 0.67216 0.11835 0.70171 0.0
C1054 C 0.64852 0.11453 0.75 0.0
C1055 C 0.69362 0.10764 0.68896 0.0
C1056 C 0.6121 0.19598 0.80821 0.0
C1057 C 0.62149 0.17596 0.79436 0.0
C1058 C 0.63318 0.17705 0.74495 0.0
C1059 C 0.67738 0.11391 0.72033 0.0
C1060 C 0.6574 0.12962 0.73392 0.0
C1061 C 0.61151 0.18078 0.77642 0.0
C1062 C 0.62512 0.16234 0.76131 0.0
H1063 H 0.74581 0.07448 0.71785 0.0
H1064 H 0.70837 0.09329 0.74013 0.0
H1065 H 0.656 0.17336 0.71933 0.0
H1066 H 0.56623 0.24464 0.78344 0.0
H1067 H 0.58189 0.20919 0.75932 0.0
C1068 C 0.76608 0.60091 0.27822 0.0
C1069 C 0.77655 0.59802 0.29612 0.0
C1070 C 0.78519 0.61401 0.26496 0.0
C1071 C 0.85593 0.66353 0.26031 0.0
H1072 H 0.84322 0.64481 0.20953 0.0
C1073 C 0.89904 0.74591 0.20431 0.0
C1074 C 0.90485 0.73428 0.1869 0.0
C1075 C 0.88766 0.7264 0.21791 0.0
C1076 C 0.84774 0.65003 0.22363 0.0
H1077 H 0.81557 0.60496 0.31414 0.0
H1078 H 0.84976 0.62601 0.29085 0.0
H1079 H 0.81683 0.61424 0.23227 0.0
H1080 H 0.90508 0.69298 0.17019 0.0
H1081 H 0.88719 0.65834 0.19416 0.0
H1082 H 0.88818 0.69817 0.2517 0.0
C1083 C 0.82636 0.61957 0.28706 0.0
C1084 C 0.83195 0.63279 0.23676 0.0
C1085 C 0.8069 0.60722 0.30042 0.0
C1086 C 0.90052 0.70252 0.18351 0.0
C1087 C 0.88994 0.68277 0.19724 0.0
C1088 C 0.87235 0.68024 0.2472 0.0
C1089 C 0.81557 0.62381 0.2692 0.0
C1090 C 0.8351 0.63983 0.2553 0.0
C1091 C 0.88254 0.69456 0.21453 0.0
C1092 C 0.86786 0.67435 0.22862 0.0
H1093 H 0.74261 0.59429 0.27461 0.0
H1094 H 0.77558 0.6174 0.25156 0.0
H1095 H 0.85895 0.67005 0.27437 0.0
H1096 H 0.90185 0.77044 0.2072 0.0
H1097 H 0.88173 0.73671 0.23082 0.0
C1098 C 0.3856 0.79896 0.81496 0.0
C1099 C 0.40714 0.77521 0.81142 0.0
C1100 C 0.37351 0.8168 0.80077 0.0
C1101 C 0.35848 0.81129 0.75193 0.0
H1102 H 0.33997 0.89922 0.75574 0.0
C1103 C 0.30112 0.87685 0.69297 0.0
C1104 C 0.2764 0.89656 0.69763 0.0
C1105 C 0.32098 0.86526 0.70633 0.0
C1106 C 0.34485 0.87463 0.75451 0.0
H1107 H 0.43405 0.7525 0.7904 0.0
H1108 H 0.41322 0.7838 0.76571 0.0
H1109 H 0.36771 0.8731 0.78031 0.0
H1110 H 0.25379 0.92057 0.71985 0.0
H1111 H 0.28809 0.89998 0.74319 0.0
H1112 H 0.33504 0.81243 0.72644 0.0
C1113 C 0.40525 0.78831 0.77938 0.0
C1114 C 0.36075 0.85969 0.76858 0.0
C1115 C 0.4173 0.77048 0.79354 0.0
C1116 C 0.27267 0.90544 0.71582 0.0
C1117 C 0.29245 0.89375 0.7292 0.0
C1118 C 0.34257 0.82616 0.73792 0.0
C1119 C 0.38274 0.81123 0.78277 0.0
C1120 C 0.36752 0.82778 0.76749 0.0
C1121 C 0.31646 0.87301 0.72466 0.0
C1122 C 0.33531 0.85795 0.73909 0.0
H1123 H 0.37727 0.80308 0.8286 0.0
H1124 H 0.356 0.8341 0.80381 0.0
H1125 H 0.36281 0.78657 0.7508 0.0
H1126 H 0.30472 0.86975 0.67904 0.0
H1127 H 0.3396 0.84979 0.70232 0.0
C1128 C 0.87989 0.69129 0.79608 0.0
C1129 C 0.90167 0.71476 0.79242 0.0
C1130 C 0.86778 0.67324 0.78204 0.0
C1131 C 0.85385 0.67683 0.73297 0.0
H1132 H 0.83057 0.59039 0.73916 0.0
C1133 C 0.79147 0.61054 0.67634 0.0
C1134 C 0.76456 0.59461 0.68179 0.0
C1135 C 0.81282 0.621 0.68919 0.0
C1136 C 0.83691 0.61453 0.73726 0.0
H1137 H 0.92891 0.73689 0.77134 0.0
H1138 H 0.90812 0.70503 0.74682 0.0
H1139 H 0.86018 0.6167 0.76287 0.0
H1140 H 0.73973 0.57564 0.70484 0.0
H1141 H 0.77696 0.5941 0.72732 0.0
H1142 H 0.83014 0.67493 0.70757 0.0
C1143 C 0.89994 0.70095 0.7605 0.0
C1144 C 0.85382 0.62962 0.75083 0.0
C1145 C 0.91197 0.7191 0.77455 0.0
C1146 C 0.76025 0.58788 0.70024 0.0
C1147 C 0.78165 0.59834 0.71311 0.0
C1148 C 0.83709 0.66174 0.7194 0.0
C1149 C 0.87728 0.67818 0.76404 0.0
C1150 C 0.86205 0.66111 0.74896 0.0
C1151 C 0.80773 0.61574 0.70775 0.0
C1152 C 0.82803 0.63057 0.7215 0.0
H1153 H 0.87147 0.6874 0.80973 0.0
H1154 H 0.85008 0.65622 0.78524 0.0
H1155 H 0.85928 0.70122 0.7312 0.0
H1156 H 0.79556 0.6159 0.6622 0.0
H1157 H 0.83296 0.63391 0.68462 0.0
C1158 C 0.26389 0.91784 0.29603 0.0
C1159 C 0.26747 0.91151 0.31459 0.0
C1160 C 0.28513 0.90612 0.28344 0.0
C1161 C 0.33625 0.83921 0.27836 0.0
H1162 H 0.36108 0.87976 0.23372 0.0
C1163 C 0.40456 0.77331 0.22335 0.0
C1164 C 0.39448 0.7779 0.20545 0.0
C1165 C 0.39408 0.79274 0.23724 0.0
C1166 C 0.3542 0.86807 0.24609 0.0
H1167 H 0.29731 0.88991 0.33466 0.0
H1168 H 0.33446 0.86966 0.31268 0.0
H1169 H 0.33445 0.90964 0.2572 0.0
H1170 H 0.36603 0.80676 0.18798 0.0
H1171 H 0.34722 0.84014 0.21222 0.0
H1172 H 0.3548 0.79743 0.26711 0.0
C1173 C 0.315 0.88328 0.30785 0.0
C1174 C 0.33905 0.88522 0.25954 0.0
C1175 C 0.29383 0.89507 0.32043 0.0
C1176 C 0.37425 0.80266 0.20165 0.0
C1177 C 0.36366 0.82197 0.21554 0.0
C1178 C 0.35124 0.82206 0.2649 0.0
C1179 C 0.3103 0.88779 0.28918 0.0
C1180 C 0.3295 0.87084 0.27571 0.0
C1181 C 0.37319 0.81706 0.23355 0.0
C1182 C 0.35994 0.83613 0.24847 0.0
H1183 H 0.24382 0.93045 0.29112 0.0
H1184 H 0.28075 0.90986 0.26916 0.0
H1185 H 0.3287 0.82729 0.29052 0.0
H1186 H 0.42035 0.75456 0.22666 0.0
H1187 H 0.40224 0.78858 0.25091 0.0
C1188 C 0.109 0.29065 0.81434 0.0
C1189 C 0.08965 0.26515 0.81065 0.0
C1190 C 0.11735 0.3113 0.80054 0.0
C1191 C 0.12638 0.31198 0.75097 0.0
H1192 H 0.14501 0.39924 0.75833 0.0
C1193 C 0.17984 0.38476 0.69387 0.0
C1194 C 0.20612 0.40212 0.69883 0.0
C1195 C 0.16014 0.3725 0.70711 0.0
C1196 C 0.13993 0.37489 0.75609 0.0
H1197 H 0.06213 0.24247 0.78993 0.0
H1198 H 0.07605 0.2789 0.76593 0.0
H1199 H 0.11949 0.36964 0.7824 0.0
H1200 H 0.23141 0.42173 0.7215 0.0
H1201 H 0.19717 0.40012 0.74465 0.0
H1202 H 0.14736 0.31691 0.7249 0.0
C1203 C 0.08546 0.28254 0.77937 0.0
C1204 C 0.12535 0.35792 0.76987 0.0
C1205 C 0.0773 0.26177 0.79315 0.0
C1206 C 0.21134 0.40844 0.71725 0.0
C1207 C 0.19162 0.39616 0.73052 0.0
C1208 C 0.14081 0.32893 0.73721 0.0
C1209 C 0.10637 0.30699 0.78276 0.0
C1210 C 0.11883 0.32611 0.76758 0.0
C1211 C 0.1663 0.3773 0.72561 0.0
C1212 C 0.14819 0.36046 0.73969 0.0
H1213 H 0.11897 0.29383 0.82769 0.0
H1214 H 0.1337 0.32966 0.80363 0.0
H1215 H 0.12235 0.28742 0.74882 0.0
H1216 H 0.17505 0.37965 0.67977 0.0
H1217 H 0.14053 0.35853 0.70288 0.0
C1218 C 0.7085 0.08814 0.29038 0.0
C1219 C 0.70603 0.09618 0.30877 0.0
C1220 C 0.68876 0.10155 0.27755 0.0
C1221 C 0.64339 0.17252 0.27049 0.0
H1222 H 0.61303 0.12908 0.22801 0.0
C1223 C 0.57772 0.23782 0.21446 0.0
C1224 C 0.58782 0.23161 0.19673 0.0
C1225 C 0.58638 0.21836 0.22876 0.0
C1226 C 0.62142 0.14154 0.23978 0.0
H1227 H 0.68005 0.12347 0.32828 0.0
H1228 H 0.64542 0.1467 0.30589 0.0
H1229 H 0.63879 0.09996 0.25214 0.0
H1230 H 0.61369 0.19939 0.17992 0.0
H1231 H 0.62916 0.16572 0.20486 0.0
H1232 H 0.62699 0.21418 0.25798 0.0
C1233 C 0.66289 0.13035 0.30135 0.0
C1234 C 0.63616 0.12486 0.25359 0.0
C1235 C 0.68261 0.11691 0.31418 0.0
C1236 C 0.60553 0.20479 0.19344 0.0
C1237 C 0.61425 0.18537 0.20774 0.0
C1238 C 0.62872 0.18917 0.25669 0.0
C1239 C 0.66616 0.12331 0.28284 0.0
C1240 C 0.64775 0.14026 0.26897 0.0
C1241 C 0.60539 0.19233 0.22563 0.0
C1242 C 0.618 0.17397 0.24104 0.0
H1243 H 0.72633 0.07222 0.28579 0.0
H1244 H 0.69212 0.09586 0.26339 0.0
H1245 H 0.65249 0.18519 0.282 0.0
H1246 H 0.56387 0.25822 0.2174 0.0
H1247 H 0.57872 0.22408 0.24234 0.0
C1248 C 0.43377 0.25881 0.14245 0.0
C1249 C 0.45549 0.26312 0.15638 0.0
C1250 C 0.4024 0.25488 0.14646 0.0
C1251 C 0.35095 0.22529 0.18129 0.0
H1252 H 0.28723 0.26543 0.15248 0.0
C1253 C 0.21854 0.20229 0.19058 0.0
C1254 C 0.20097 0.20098 0.17457 0.0
C1255 C 0.24983 0.2111 0.19002 0.0
C1256 C 0.30474 0.25381 0.16055 0.0
H1257 H 0.46161 0.26724 0.1854 0.0
H1258 H 0.40634 0.25996 0.19253 0.0
H1259 H 0.34128 0.28077 0.14875 0.0
H1260 H 0.2026 0.20585 0.14539 0.0
H1261 H 0.25714 0.22049 0.14428 0.0
H1262 H 0.31447 0.19756 0.19265 0.0
C1263 C 0.41374 0.25978 0.1785 0.0
C1264 C 0.33564 0.26275 0.15848 0.0
C1265 C 0.44519 0.2642 0.17444 0.0
C1266 C 0.21552 0.20723 0.15795 0.0
C1267 C 0.24669 0.2158 0.15736 0.0
C1268 C 0.31995 0.21615 0.18329 0.0
C1269 C 0.39213 0.25484 0.16453 0.0
C1270 C 0.35912 0.24814 0.16853 0.0
C1271 C 0.26404 0.21858 0.17341 0.0
C1272 C 0.29661 0.22983 0.17261 0.0
H1273 H 0.44118 0.25807 0.12844 0.0
H1274 H 0.38631 0.25084 0.13543 0.0
H1275 H 0.36867 0.21349 0.18911 0.0
H1276 H 0.20777 0.19783 0.20359 0.0
H1277 H 0.26255 0.21309 0.20262 0.0
C1278 C 0.78869 0.22622 0.69032 0.0
C1279 C 0.78783 0.20708 0.67488 0.0
C1280 C 0.77881 0.25717 0.68933 0.0
C1281 C 0.73132 0.30996 0.661 0.0
H1282 H 0.78086 0.37558 0.68245 0.0
C1283 C 0.72753 0.43562 0.63592 0.0
C1284 C 0.72846 0.45991 0.6486 0.0
C1285 C 0.73095 0.40486 0.64149 0.0
C1286 C 0.76647 0.35748 0.67666 0.0
H1287 H 0.777 0.20578 0.6462 0.0
H1288 H 0.75995 0.25948 0.64445 0.0
H1289 H 0.79479 0.32128 0.68783 0.0
H1290 H 0.73325 0.47113 0.67707 0.0
H1291 H 0.73952 0.41698 0.68688 0.0
H1292 H 0.70364 0.34609 0.64934 0.0
C1293 C 0.76748 0.25047 0.65743 0.0
C1294 C 0.77445 0.3264 0.67973 0.0
C1295 C 0.77732 0.21967 0.65842 0.0
C1296 C 0.73227 0.45279 0.66705 0.0
C1297 C 0.73608 0.42191 0.67263 0.0
C1298 C 0.72343 0.34094 0.65789 0.0
C1299 C 0.76788 0.26954 0.67288 0.0
C1300 C 0.75743 0.30234 0.67152 0.0
C1301 C 0.73561 0.39767 0.65986 0.0
C1302 C 0.7414 0.36502 0.6653 0.0
H1303 H 0.79638 0.21713 0.70324 0.0
H1304 H 0.77925 0.27126 0.70149 0.0
H1305 H 0.71729 0.29193 0.65484 0.0
H1306 H 0.72427 0.44044 0.62165 0.0
H1307 H 0.73082 0.38674 0.6313 0.0
C1308 C 0.55123 0.78704 0.18449 0.0
C1309 C 0.53846 0.76261 0.1744 0.0
C1310 C 0.58328 0.78939 0.18673 0.0
C1311 C 0.65854 0.74796 0.17909 0.0
H1312 H 0.68964 0.83232 0.17522 0.0
C1313 C 0.78424 0.78105 0.15851 0.0
C1314 C 0.79897 0.80426 0.16886 0.0
C1315 C 0.75307 0.77363 0.16146 0.0
C1316 C 0.6813 0.80867 0.17654 0.0
H1317 H 0.54859 0.72078 0.15934 0.0
H1318 H 0.60493 0.72539 0.1625 0.0
H1319 H 0.63406 0.8233 0.17647 0.0
H1320 H 0.79213 0.83708 0.19091 0.0
H1321 H 0.73763 0.82477 0.19553 0.0
H1322 H 0.70624 0.73357 0.17821 0.0
C1323 C 0.59031 0.74238 0.16915 0.0
C1324 C 0.64939 0.80343 0.17737 0.0
C1325 C 0.5581 0.73971 0.16725 0.0
C1326 C 0.78169 0.81953 0.1824 0.0
C1327 C 0.75043 0.81237 0.18516 0.0
C1328 C 0.69054 0.75323 0.17798 0.0
C1329 C 0.60334 0.76775 0.17853 0.0
C1330 C 0.63752 0.77301 0.17862 0.0
C1331 C 0.7358 0.78952 0.17464 0.0
C1332 C 0.70214 0.78365 0.17665 0.0
H1333 H 0.53636 0.80467 0.19035 0.0
H1334 H 0.59234 0.80866 0.19454 0.0
H1335 H 0.65032 0.72427 0.1803 0.0
H1336 H 0.79647 0.76904 0.1478 0.0
H1337 H 0.74218 0.75618 0.153 0.0
C1338 C 0.22874 0.55984 0.64414 0.0
C1339 C 0.23471 0.53935 0.65852 0.0
C1340 C 0.22288 0.59115 0.64745 0.0
C1341 C 0.22918 0.65347 0.68181 0.0
H1342 H 0.16472 0.69109 0.65234 0.0
C1343 C 0.18445 0.77954 0.69242 0.0
C1344 C 0.18419 0.79758 0.67654 0.0
C1345 C 0.18904 0.74739 0.69146 0.0
C1346 C 0.1828 0.6809 0.66064 0.0
H1347 H 0.24024 0.53557 0.68758 0.0
H1348 H 0.22948 0.59055 0.69353 0.0
H1349 H 0.17702 0.63629 0.64848 0.0
H1350 H 0.1874 0.79626 0.64728 0.0
H1351 H 0.19501 0.74013 0.64555 0.0
H1352 H 0.23466 0.69839 0.69401 0.0
C1353 C 0.2297 0.58243 0.67964 0.0
C1354 C 0.19001 0.64956 0.65838 0.0
C1355 C 0.23589 0.551 0.67627 0.0
C1356 C 0.1877 0.78286 0.6597 0.0
C1357 C 0.19184 0.75077 0.65872 0.0
C1358 C 0.22175 0.68487 0.68418 0.0
C1359 C 0.22248 0.60271 0.66527 0.0
C1360 C 0.21372 0.6356 0.66866 0.0
C1361 C 0.19291 0.73277 0.67459 0.0
C1362 C 0.19888 0.69896 0.67337 0.0
H1363 H 0.22828 0.55149 0.63031 0.0
H1364 H 0.21836 0.60627 0.63602 0.0
H1365 H 0.24767 0.6435 0.68988 0.0
H1366 H 0.1821 0.79041 0.70557 0.0
H1367 H 0.18963 0.73398 0.70389 0.0
C1368 C 0.93974 0.22638 0.86511 0.0
C1369 C 0.96151 0.22355 0.85107 0.0
C1370 C 0.90877 0.23294 0.86128 0.0
C1371 C 0.84933 0.23494 0.82523 0.0
H1372 H 0.81276 0.29757 0.85646 0.0
C1373 C 0.7278 0.28962 0.81271 0.0
C1374 C 0.70858 0.29127 0.82808 0.0
C1375 C 0.75912 0.28153 0.81446 0.0
C1376 C 0.82258 0.27992 0.8477 0.0
H1377 H 0.96782 0.22388 0.82195 0.0
H1378 H 0.9134 0.23563 0.81515 0.0
H1379 H 0.86618 0.28136 0.8614 0.0
H1380 H 0.70715 0.28653 0.8573 0.0
H1381 H 0.76162 0.27236 0.86037 0.0
H1382 H 0.80543 0.2337 0.81153 0.0
C1383 C 0.92032 0.23254 0.82915 0.0
C1384 C 0.85314 0.27054 0.85055 0.0
C1385 C 0.95141 0.22576 0.83301 0.0
C1386 C 0.72134 0.28514 0.84521 0.0
C1387 C 0.75258 0.27731 0.84698 0.0
C1388 C 0.81865 0.24443 0.82233 0.0
C1389 C 0.89888 0.23705 0.84329 0.0
C1390 C 0.86672 0.24759 0.83956 0.0
C1391 C 0.77179 0.27533 0.83163 0.0
C1392 C 0.80487 0.26669 0.83373 0.0
H1393 H 0.94687 0.2242 0.87912 0.0
H1394 H 0.89265 0.23541 0.87246 0.0
H1395 H 0.85914 0.21715 0.81658 0.0
H1396 H 0.71848 0.29395 0.79932 0.0
H1397 H 0.77346 0.28035 0.80242 0.0
C1398 C 0.68019 0.713 0.30804 0.0
C1399 C 0.68604 0.69407 0.32319 0.0
C1400 C 0.68371 0.74528 0.30916 0.0
C1401 C 0.7223 0.80546 0.33728 0.0
H1402 H 0.66567 0.86229 0.31333 0.0
C1403 C 0.71419 0.93364 0.35681 0.0
C1404 C 0.71485 0.95588 0.34286 0.0
C1405 C 0.71095 0.90216 0.35287 0.0
C1406 C 0.68185 0.84664 0.31989 0.0
H1407 H 0.69879 0.69417 0.35156 0.0
H1408 H 0.70427 0.75033 0.35371 0.0
H1409 H 0.65877 0.80616 0.30968 0.0
H1410 H 0.71214 0.96254 0.31382 0.0
H1411 H 0.70597 0.90696 0.30685 0.0
H1412 H 0.74476 0.84586 0.34791 0.0
C1413 C 0.69792 0.74032 0.34077 0.0
C1414 C 0.67796 0.81451 0.31781 0.0
C1415 C 0.69466 0.70812 0.33959 0.0
C1416 C 0.71177 0.94588 0.32481 0.0
C1417 C 0.7081 0.9142 0.32085 0.0
C1418 C 0.72598 0.83744 0.33948 0.0
C1419 C 0.69295 0.75932 0.32551 0.0
C1420 C 0.69785 0.79352 0.32674 0.0
C1421 C 0.70807 0.89206 0.33488 0.0
C1422 C 0.70553 0.85834 0.33105 0.0
H1423 H 0.67383 0.70278 0.29516 0.0
H1424 H 0.67997 0.75913 0.2971 0.0
H1425 H 0.73861 0.79008 0.34394 0.0
H1426 H 0.717 0.94046 0.37083 0.0
H1427 H 0.71072 0.88564 0.36396 0.0
C1428 C 0.06235 0.70178 0.84191 0.0
C1429 C 0.04584 0.72452 0.83218 0.0
C1430 C 0.0944 0.6989 0.84007 0.0
C1431 C 0.16545 0.74018 0.82758 0.0
H1432 H 0.19849 0.6566 0.82352 0.0
C1433 C 0.29782 0.71434 0.82287 0.0
C1434 C 0.30847 0.68966 0.83376 0.0
C1435 C 0.26596 0.7194 0.82042 0.0
C1436 C 0.18969 0.68008 0.82475 0.0
H1437 H 0.05064 0.76277 0.81321 0.0
H1438 H 0.10713 0.75795 0.81021 0.0
H1439 H 0.14254 0.66466 0.82349 0.0
H1440 H 0.29366 0.65121 0.85072 0.0
H1441 H 0.23853 0.6599 0.84643 0.0
H1442 H 0.21274 0.75549 0.82931 0.0
C1443 C 0.09488 0.74226 0.81919 0.0
C1444 C 0.15763 0.6847 0.8247 0.0
C1445 C 0.06254 0.74504 0.82094 0.0
C1446 C 0.28647 0.67004 0.84197 0.0
C1447 C 0.25474 0.67506 0.8395 0.0
C1448 C 0.19766 0.73554 0.82769 0.0
C1449 C 0.11103 0.71881 0.82855 0.0
C1450 C 0.14511 0.7147 0.82654 0.0
C1451 C 0.24405 0.69982 0.82875 0.0
C1452 C 0.21011 0.70534 0.8267 0.0
H1453 H 0.05055 0.68616 0.85111 0.0
H1454 H 0.10626 0.68113 0.84784 0.0
H1455 H 0.15646 0.76355 0.82909 0.0
H1456 H 0.31408 0.72968 0.81616 0.0
H1457 H 0.2585 0.73848 0.8119 0.0
C1458 C 0.27234 0.28256 0.34596 0.0
C1459 C 0.28634 0.29494 0.33037 0.0
C1460 C 0.26044 0.25243 0.34592 0.0
C1461 C 0.26651 0.17736 0.32227 0.0
H1462 H 0.19234 0.15897 0.35014 0.0
C1463 C 0.21956 0.05227 0.33073 0.0
C1464 C 0.21563 0.04388 0.34899 0.0
C1465 C 0.22352 0.08348 0.32592 0.0
C1466 C 0.213 0.16381 0.34225 0.0
H1467 H 0.29859 0.28555 0.30241 0.0
H1468 H 0.27761 0.23277 0.30228 0.0
H1469 H 0.20878 0.21281 0.34627 0.0
H1470 H 0.21095 0.06131 0.37635 0.0
H1471 H 0.21751 0.11579 0.368 0.0
H1472 H 0.27088 0.1282 0.31852 0.0
C1473 C 0.27621 0.24629 0.31463 0.0
C1474 C 0.22253 0.19458 0.3401 0.0
C1475 C 0.28829 0.27648 0.3147 0.0
C1476 C 0.21419 0.06724 0.36221 0.0
C1477 C 0.21769 0.09838 0.3574 0.0
C1478 C 0.25682 0.14656 0.32431 0.0
C1479 C 0.26208 0.23396 0.33024 0.0
C1480 C 0.2499 0.20166 0.33054 0.0
C1481 C 0.22305 0.10676 0.33927 0.0
C1482 C 0.23046 0.13946 0.33474 0.0
H1483 H 0.27097 0.29606 0.35831 0.0
H1484 H 0.25043 0.24344 0.35833 0.0
H1485 H 0.28781 0.18195 0.31494 0.0
H1486 H 0.22097 0.03462 0.32031 0.0
H1487 H 0.2275 0.08938 0.31184 0.0
C1488 C 0.55496 0.77132 0.82834 0.0
C1489 C 0.54525 0.76979 0.8465 0.0
C1490 C 0.58648 0.77523 0.82411 0.0
C1491 C 0.66382 0.76052 0.84249 0.0
H1492 H 0.69285 0.82704 0.81134 0.0
C1493 C 0.79268 0.79356 0.84035 0.0
C1494 C 0.80583 0.80237 0.82373 0.0
C1495 C 0.76061 0.78983 0.84206 0.0
C1496 C 0.68516 0.80802 0.81984 0.0
H1497 H 0.56091 0.77046 0.87442 0.0
H1498 H 0.61562 0.77692 0.86708 0.0
H1499 H 0.63705 0.81906 0.81559 0.0
H1500 H 0.79572 0.81432 0.79583 0.0
H1501 H 0.73966 0.80716 0.79863 0.0
H1502 H 0.71148 0.749 0.84665 0.0
C1503 C 0.59896 0.7754 0.85611 0.0
C1504 C 0.6532 0.80353 0.82227 0.0
C1505 C 0.5676 0.77202 0.86031 0.0
C1506 C 0.78617 0.80785 0.80887 0.0
C1507 C 0.75404 0.80375 0.8105 0.0
C1508 C 0.69564 0.76473 0.8399 0.0
C1509 C 0.60876 0.77697 0.838 0.0
C1510 C 0.64231 0.7801 0.8339 0.0
C1511 C 0.74086 0.79438 0.82708 0.0
C1512 C 0.7068 0.78893 0.82885 0.0
H1513 H 0.53816 0.76972 0.81746 0.0
H1514 H 0.59351 0.77631 0.81003 0.0
H1515 H 0.656 0.74197 0.85132 0.0
H1516 H 0.80725 0.78968 0.85209 0.0
H1517 H 0.75132 0.78343 0.85518 0.0
C1518 C 0.27794 0.55488 0.3264 0.0
C1519 C 0.27484 0.54488 0.34442 0.0
C1520 C 0.27692 0.58662 0.32224 0.0
C1521 C 0.28256 0.66523 0.34221 0.0
H1522 H 0.21791 0.68717 0.30795 0.0
C1523 C 0.22006 0.78245 0.34502 0.0
C1524 C 0.21067 0.79686 0.32885 0.0
C1525 C 0.23303 0.75276 0.34478 0.0
C1526 C 0.2365 0.68158 0.31727 0.0
H1527 H 0.2704 0.55983 0.37229 0.0
H1528 H 0.26901 0.61514 0.36515 0.0
H1529 H 0.23384 0.63306 0.31101 0.0
H1530 H 0.20815 0.79167 0.29967 0.0
H1531 H 0.23094 0.7397 0.2992 0.0
H1532 H 0.28478 0.71355 0.34882 0.0
C1533 C 0.27205 0.59866 0.35419 0.0
C1534 C 0.24565 0.65055 0.319 0.0
C1535 C 0.27258 0.56706 0.35829 0.0
C1536 C 0.2147 0.78096 0.31238 0.0
C1537 C 0.22784 0.75124 0.31211 0.0
C1538 C 0.27359 0.69625 0.3404 0.0
C1539 C 0.27339 0.60875 0.3361 0.0
C1540 C 0.26806 0.64198 0.3319 0.0
C1541 C 0.23711 0.73678 0.32833 0.0
C1542 C 0.24973 0.70464 0.32835 0.0
H1543 H 0.27953 0.53812 0.3155 0.0
H1544 H 0.2781 0.59383 0.30819 0.0
H1545 H 0.30019 0.65927 0.35209 0.0
H1546 H 0.21685 0.79395 0.35793 0.0
H1547 H 0.23922 0.74207 0.35756 0.0
C1548 C 0.44979 0.26672 0.82404 0.0
C1549 C 0.45939 0.26531 0.84222 0.0
C1550 C 0.41825 0.26453 0.81966 0.0
C1551 C 0.33948 0.27134 0.83884 0.0
H1552 H 0.3178 0.20472 0.80579 0.0
C1553 C 0.22175 0.21098 0.84215 0.0
C1554 C 0.20688 0.2022 0.82602 0.0
C1555 C 0.25193 0.22259 0.84183 0.0
C1556 C 0.32339 0.22382 0.81477 0.0
H1557 H 0.44385 0.26229 0.87005 0.0
H1558 H 0.38885 0.2588 0.8625 0.0
H1559 H 0.37204 0.22032 0.80903 0.0
H1560 H 0.21206 0.19858 0.79687 0.0
H1561 H 0.26511 0.2189 0.7963 0.0
H1562 H 0.29106 0.27445 0.84493 0.0
C1563 C 0.40553 0.26146 0.85161 0.0
C1564 C 0.35444 0.23275 0.81661 0.0
C1565 C 0.43696 0.26318 0.85594 0.0
C1566 C 0.22306 0.20485 0.80954 0.0
C1567 C 0.25336 0.21658 0.80921 0.0
C1568 C 0.30849 0.26255 0.83694 0.0
C1569 C 0.3959 0.26149 0.83343 0.0
C1570 C 0.36283 0.25592 0.82909 0.0
C1571 C 0.26801 0.2258 0.82536 0.0
C1572 C 0.30023 0.23799 0.82534 0.0
H1573 H 0.46673 0.26816 0.81323 0.0
H1574 H 0.41137 0.26469 0.80554 0.0
H1575 H 0.34531 0.28959 0.84836 0.0
H1576 H 0.2101 0.20865 0.85508 0.0
H1577 H 0.26282 0.22868 0.85457 0.0
C1578 C 0.81774 0.21293 0.33722 0.0
C1579 C 0.79728 0.19206 0.32875 0.0
C1580 C 0.81328 0.24495 0.33576 0.0
C1581 C 0.75341 0.30411 0.32601 0.0
H1582 H 0.82505 0.35853 0.3235 0.0
C1583 C 0.74546 0.43948 0.32228 0.0
C1584 C 0.76526 0.45528 0.33437 0.0
C1585 C 0.74834 0.40733 0.31968 0.0
C1586 C 0.80482 0.34363 0.32423 0.0
H1587 H 0.75636 0.18863 0.31178 0.0
H1588 H 0.74865 0.24474 0.30909 0.0
H1589 H 0.8323 0.30247 0.32194 0.0
H1590 H 0.80279 0.44888 0.3537 0.0
H1591 H 0.8081 0.3935 0.34886 0.0
H1592 H 0.72602 0.34558 0.3284 0.0
C1593 C 0.76792 0.23622 0.3171 0.0
C1594 C 0.80895 0.31149 0.3234 0.0
C1595 C 0.77235 0.20407 0.31862 0.0
C1596 C 0.78766 0.43795 0.34391 0.0
C1597 C 0.79069 0.40604 0.34119 0.0
C1598 C 0.74925 0.33637 0.32673 0.0
C1599 C 0.78831 0.25706 0.32571 0.0
C1600 C 0.7834 0.29128 0.32471 0.0
C1601 C 0.77123 0.39038 0.32899 0.0
C1602 C 0.77501 0.35641 0.32627 0.0
H1603 H 0.8368 0.20458 0.34544 0.0
H1604 H 0.82906 0.26023 0.34291 0.0
H1605 H 0.73322 0.28924 0.3272 0.0
H1606 H 0.72805 0.45188 0.31459 0.0
H1607 H 0.73306 0.39582 0.31016 0.0
C1608 C 0.05278 0.76045 0.16587 0.0
C1609 C 0.04234 0.75823 0.1479 0.0
C1610 C 0.0842 0.7559 0.16994 0.0
C1611 C 0.16227 0.75787 0.15056 0.0
H1612 H 0.18209 0.69196 0.18451 0.0
C1613 C 0.28498 0.70685 0.15413 0.0
C1614 C 0.29685 0.69829 0.1711 0.0
C1615 C 0.25379 0.71491 0.15221 0.0
C1616 C 0.17707 0.7108 0.17524 0.0
H1617 H 0.05627 0.75109 0.12004 0.0
H1618 H 0.11129 0.74395 0.12703 0.0
H1619 H 0.12809 0.7075 0.18013 0.0
H1620 H 0.28558 0.69119 0.19938 0.0
H1621 H 0.23113 0.70603 0.19624 0.0
H1622 H 0.21099 0.76167 0.14575 0.0
C1623 C 0.09526 0.74883 0.13799 0.0
C1624 C 0.14613 0.71964 0.17273 0.0
C1625 C 0.06387 0.75274 0.134 0.0
C1626 C 0.27683 0.69732 0.1861 0.0
C1627 C 0.24566 0.70584 0.18427 0.0
C1628 C 0.1932 0.74938 0.15324 0.0
C1629 C 0.10562 0.7498 0.15601 0.0
C1630 C 0.13847 0.74286 0.16014 0.0
C1631 C 0.23383 0.7151 0.16732 0.0
C1632 C 0.20098 0.7253 0.16534 0.0
H1633 H 0.03647 0.76442 0.1768 0.0
H1634 H 0.09173 0.75684 0.18393 0.0
H1635 H 0.15691 0.77605 0.1409 0.0
H1636 H 0.29996 0.70742 0.14234 0.0
H1637 H 0.24537 0.72104 0.13885 0.0
C1638 C 0.29106 0.27665 0.69307 0.0
C1639 C 0.29197 0.29514 0.67737 0.0
C1640 C 0.28834 0.24437 0.69172 0.0
C1641 C 0.30273 0.17936 0.66094 0.0
H1642 H 0.23905 0.13628 0.68837 0.0
C1643 C 0.26789 0.05433 0.64395 0.0
C1644 C 0.26063 0.0339 0.65817 0.0
C1645 C 0.27249 0.08586 0.64729 0.0
C1646 C 0.25729 0.14784 0.68084 0.0
H1647 H 0.29139 0.2945 0.64803 0.0
H1648 H 0.2869 0.23804 0.64564 0.0
H1649 H 0.24643 0.19211 0.69257 0.0
H1650 H 0.25247 0.0304 0.68705 0.0
H1651 H 0.2611 0.08564 0.69304 0.0
H1652 H 0.31392 0.13534 0.64931 0.0
C1653 C 0.28819 0.24852 0.65896 0.0
C1654 C 0.26143 0.1798 0.68322 0.0
C1655 C 0.29049 0.28077 0.66032 0.0
C1656 C 0.25779 0.04571 0.67583 0.0
C1657 C 0.2627 0.07732 0.67923 0.0
C1658 C 0.29882 0.14742 0.6587 0.0
C1659 C 0.28695 0.23003 0.67464 0.0
C1660 C 0.28387 0.1959 0.67307 0.0
C1661 C 0.27027 0.09774 0.66498 0.0
C1662 C 0.2757 0.13134 0.66838 0.0
H1663 H 0.29187 0.28719 0.70637 0.0
H1664 H 0.28756 0.23059 0.704 0.0
H1665 H 0.32053 0.19116 0.65317 0.0
H1666 H 0.26959 0.04597 0.63015 0.0
H1667 H 0.27747 0.10098 0.63591 0.0
C1668 C 0.72039 0.30718 0.18859 0.0
C1669 C 0.70205 0.30762 0.17284 0.0
C1670 C 0.7524 0.3021 0.18743 0.0
C1671 C 0.81789 0.30954 0.15624 0.0
H1672 H 0.85796 0.24673 0.18583 0.0
C1673 C 0.94101 0.26871 0.14027 0.0
C1674 C 0.96148 0.26317 0.1547 0.0
C1675 C 0.90954 0.2737 0.14349 0.0
C1676 C 0.84723 0.26467 0.17766 0.0
H1677 H 0.70271 0.30366 0.14359 0.0
H1678 H 0.75864 0.29509 0.14151 0.0
H1679 H 0.80257 0.25735 0.18984 0.0
H1680 H 0.9651 0.25779 0.18379 0.0
H1681 H 0.90986 0.26716 0.18957 0.0
H1682 H 0.86224 0.31731 0.14417 0.0
C1683 C 0.74828 0.29854 0.15474 0.0
C1684 C 0.81554 0.27068 0.17994 0.0
C1685 C 0.7163 0.3032 0.15593 0.0
C1686 C 0.94971 0.26186 0.17244 0.0
C1687 C 0.91813 0.2672 0.17571 0.0
C1688 C 0.84952 0.30379 0.15408 0.0
C1689 C 0.76663 0.29788 0.17047 0.0
C1690 C 0.80052 0.29282 0.16903 0.0
C1691 C 0.89777 0.27366 0.16126 0.0
C1692 C 0.86449 0.28088 0.16451 0.0
H1693 H 0.7099 0.31023 0.2018 0.0
H1694 H 0.76608 0.30181 0.19974 0.0
H1695 H 0.80697 0.32713 0.14788 0.0
H1696 H 0.94938 0.26916 0.12644 0.0
H1697 H 0.89442 0.27767 0.13199 0.0
C1698 C 0.76675 0.94633 0.67419 0.0
C1699 C 0.76859 0.9576 0.65637 0.0
C1700 C 0.76319 0.91444 0.6774 0.0
C1701 C 0.77041 0.83694 0.65621 0.0
H1702 H 0.69795 0.81557 0.68483 0.0
C1703 C 0.7093 0.71932 0.64846 0.0
C1704 C 0.69676 0.7049 0.66389 0.0
C1705 C 0.72123 0.74942 0.64947 0.0
C1706 C 0.71861 0.82099 0.67707 0.0
H1707 H 0.77026 0.94468 0.62806 0.0
H1708 H 0.76456 0.8891 0.63359 0.0
H1709 H 0.71584 0.86931 0.68385 0.0
H1710 H 0.68716 0.71063 0.69253 0.0
H1711 H 0.70821 0.76319 0.69436 0.0
H1712 H 0.77302 0.78882 0.64919 0.0
C1713 C 0.76564 0.90468 0.64509 0.0
C1714 C 0.72887 0.8518 0.67654 0.0
C1715 C 0.76869 0.93646 0.6419 0.0
C1716 C 0.69622 0.72132 0.68034 0.0
C1717 C 0.70836 0.75141 0.68139 0.0
C1718 C 0.76032 0.80613 0.65684 0.0
C1719 C 0.76204 0.8934 0.66283 0.0
C1720 C 0.75438 0.86019 0.66573 0.0
C1721 C 0.72114 0.76578 0.66597 0.0
C1722 C 0.73378 0.79791 0.66688 0.0
H1723 H 0.76642 0.9623 0.68553 0.0
H1724 H 0.76059 0.9063 0.69121 0.0
H1725 H 0.79038 0.84274 0.64793 0.0
H1726 H 0.70965 0.70738 0.63556 0.0
H1727 H 0.73019 0.76001 0.63722 0.0
loop_
_geom_bond_atom_site_label_1
_geom_bond_atom_site_label_2
_geom_bond_distance
_geom_bond_site_symmetry_2
_ccdc_geom_bond_type
Co0 N4 2.148 . S
Co0 N10 2.128 . S
Co0 N20 2.194 . S
Co0 O25 2.351 . S
Co0 O26 2.155 . S
Co0 O27 2.096 . S
C1 N4 1.301 . S
C1 N5 1.328 . S
C1 H6 0.930 . S
C2 C3 1.333 . S
C2 N4 1.317 . S
C2 H7 0.930 . S
C3 C2 1.333 . S
C3 N5 1.350 . S
C3 H29 0.931 . S
N4 Co0 2.148 . S
N4 C1 1.301 . S
N4 C2 1.317 . S
N5 C1 1.328 . S
N5 C3 1.350 . S
H6 C1 0.930 . S
H7 C2 0.930 . S
C8 O9 1.224 . S
C8 O27 1.247 . S
O9 C8 1.224 . S
N10 Co0 2.128 . S
N10 C11 1.355 . S
N10 C13 1.311 1_455 S
C11 N10 1.355 . S
C11 C12 1.363 1_455 S
C11 H23 0.929 . S
C12 C11 1.363 1_655 S
C12 N14 1.375 . S
C12 H30 0.931 . S
C13 N10 1.311 1_655 S
C13 N14 1.347 . S
C13 H24 0.929 . S
N14 C12 1.375 . S
N14 C13 1.347 . S
C15 C18 1.365 . S
C15 N20 1.328 . S
C15 H21 0.929 . S
C16 C17 1.362 . S
C16 C19 1.378 . S
C16 H31 0.929 . S
C17 C16 1.362 . S
C17 C18 1.366 . S
C18 C15 1.365 . S
C18 C17 1.366 . S
C18 H32 0.930 . S
C19 C16 1.378 . S
C19 N20 1.315 . S
C19 H22 0.930 . S
N20 Co0 2.194 . S
N20 C15 1.328 . S
N20 C19 1.315 . S
H21 C15 0.929 . S
H22 C19 0.930 . S
H23 C11 0.929 . S
H24 C13 0.929 . S
O25 Co0 2.351 . S
O25 C28 1.244 . S
O26 Co0 2.155 . S
O26 C28 1.240 . S
O27 Co0 2.096 . S
O27 C8 1.247 . S
C28 O25 1.244 . S
C28 O26 1.240 . S
H29 C3 0.931 . S
H30 C12 0.931 . S
H31 C16 0.929 . S
H32 C18 0.930 . S
Co33 N37 2.148 . S
Co33 N43 2.128 . S
Co33 N53 2.194 . S
Co33 O58 2.351 . S
Co33 O59 2.155 . S
Co33 O60 2.096 . S
C34 N37 1.301 . S
C34 N38 1.328 . S
C34 H39 0.930 . S
C35 C36 1.333 . S
C35 N37 1.317 . S
C35 H40 0.930 . S
C36 C35 1.333 . S
C36 N38 1.350 . S
C36 H62 0.931 . S
N37 Co33 2.148 . S
N37 C34 1.301 . S
N37 C35 1.317 . S
N38 C34 1.328 . S
N38 C36 1.350 . S
H39 C34 0.930 . S
H40 C35 0.930 . S
C41 O42 1.224 . S
C41 O60 1.247 . S
O42 C41 1.224 . S
N43 Co33 2.128 . S
N43 C44 1.355 . S
N43 C46 1.311 1_545 S
C44 N43 1.355 . S
C44 C45 1.363 1_545 S
C44 H56 0.929 . S
C45 C44 1.363 1_565 S
C45 N47 1.375 . S
C45 H63 0.931 . S
C46 N43 1.311 1_565 S
C46 N47 1.347 . S
C46 H57 0.929 . S
N47 C45 1.375 . S
N47 C46 1.347 . S
C48 C51 1.365 . S
C48 N53 1.328 . S
C48 H54 0.929 . S
C49 C50 1.362 . S
C49 C52 1.378 . S
C49 H64 0.929 . S
C50 C49 1.362 . S
C50 C51 1.366 . S
C51 C48 1.365 . S
C51 C50 1.366 . S
C51 H65 0.930 . S
C52 C49 1.378 . S
C52 N53 1.315 . S
C52 H55 0.930 . S
N53 Co33 2.194 . S
N53 C48 1.328 . S
N53 C52 1.315 . S
H54 C48 0.929 . S
H55 C52 0.930 . S
H56 C44 0.929 . S
H57 C46 0.929 . S
O58 Co33 2.351 . S
O58 C61 1.244 . S
O59 Co33 2.155 . S
O59 C61 1.240 . S
O60 Co33 2.096 . S
O60 C41 1.247 . S
C61 O58 1.244 . S
C61 O59 1.240 . S
H62 C36 0.931 . S
H63 C45 0.931 . S
H64 C49 0.929 . S
H65 C51 0.930 . S
Co66 N70 2.148 . S
Co66 N76 2.128 . S
Co66 N86 2.194 . S
Co66 O91 2.351 . S
Co66 O92 2.155 . S
Co66 O93 2.096 . S
C67 N70 1.301 . S
C67 N71 1.328 . S
C67 H72 0.930 . S
C68 C69 1.333 . S
C68 N70 1.317 . S
C68 H73 0.930 . S
C69 C68 1.333 . S
C69 N71 1.350 . S
C69 H95 0.931 . S
N70 Co66 2.148 . S
N70 C67 1.301 . S
N70 C68 1.317 . S
N71 C67 1.328 . S
N71 C69 1.350 . S
H72 C67 0.930 . S
H73 C68 0.930 . S
C74 O75 1.224 . S
C74 O93 1.247 . S
O75 C74 1.224 . S
N76 Co66 2.128 . S
N76 C77 1.355 . S
N76 C79 1.311 1_655 S
C77 N76 1.355 . S
C77 C78 1.363 1_655 S
C77 H89 0.929 . S
C78 C77 1.363 1_455 S
C78 N80 1.375 . S
C78 H96 0.931 . S
C79 N76 1.311 1_455 S
C79 N80 1.347 . S
C79 H90 0.929 . S
N80 C78 1.375 . S
N80 C79 1.347 . S
C81 C84 1.365 . S
C81 N86 1.328 . S
C81 H87 0.929 . S
C82 C83 1.362 . S
C82 C85 1.378 . S
C82 H97 0.929 . S
C83 C82 1.362 . S
C83 C84 1.366 . S
C84 C81 1.365 . S
C84 C83 1.366 . S
C84 H98 0.930 . S
C85 C82 1.378 . S
C85 N86 1.315 . S
C85 H88 0.930 . S
N86 Co66 2.194 . S
N86 C81 1.328 . S
N86 C85 1.315 . S
H87 C81 0.929 . S
H88 C85 0.930 . S
H89 C77 0.929 . S
H90 C79 0.929 . S
O91 Co66 2.351 . S
O91 C94 1.244 . S
O92 Co66 2.155 . S
O92 C94 1.240 . S
O93 Co66 2.096 . S
O93 C74 1.247 . S
C94 O91 1.244 . S
C94 O92 1.240 . S
H95 C69 0.931 . S
H96 C78 0.931 . S
H97 C82 0.929 . S
H98 C84 0.930 . S
Co99 N103 2.148 . S
Co99 N109 2.128 . S
Co99 N119 2.194 . S
Co99 O124 2.351 . S
Co99 O125 2.155 . S
Co99 O126 2.096 . S
C100 N103 1.301 . S
C100 N104 1.328 . S
C100 H105 0.930 . S
C101 C102 1.333 . S
C101 N103 1.317 . S
C101 H106 0.930 . S
C102 C101 1.333 . S
C102 N104 1.350 . S
C102 H128 0.931 . S
N103 Co99 2.148 . S
N103 C100 1.301 . S
N103 C101 1.317 . S
N104 C100 1.328 . S
N104 C102 1.350 . S
H105 C100 0.930 . S
H106 C101 0.930 . S
C107 O108 1.224 . S
C107 O126 1.247 . S
O108 C107 1.224 . S
N109 Co99 2.128 . S
N109 C110 1.355 . S
N109 C112 1.311 1_565 S
C110 N109 1.355 . S
C110 C111 1.363 1_565 S
C110 H122 0.929 . S
C111 C110 1.363 1_545 S
C111 N113 1.375 . S
C111 H129 0.931 . S
C112 N109 1.311 1_545 S
C112 N113 1.347 . S
C112 H123 0.929 . S
N113 C111 1.375 . S
N113 C112 1.347 . S
C114 C117 1.365 . S
C114 N119 1.328 . S
C114 H120 0.929 . S
C115 C116 1.362 . S
C115 C118 1.378 . S
C115 H130 0.929 . S
C116 C115 1.362 . S
C116 C117 1.366 . S
C117 C114 1.365 . S
C117 C116 1.366 . S
C117 H131 0.930 . S
C118 C115 1.378 . S
C118 N119 1.315 . S
C118 H121 0.930 . S
N119 Co99 2.194 . S
N119 C114 1.328 . S
N119 C118 1.315 . S
H120 C114 0.929 . S
H121 C118 0.930 . S
H122 C110 0.929 . S
H123 C112 0.929 . S
O124 Co99 2.351 . S
O124 C127 1.244 . S
O125 Co99 2.155 . S
O125 C127 1.240 . S
O126 Co99 2.096 . S
O126 C107 1.247 . S
C127 O124 1.244 . S
C127 O125 1.240 . S
H128 C102 0.931 . S
H129 C111 0.931 . S
H130 C115 0.929 . S
H131 C117 0.930 . S
Co132 N136 2.148 . S
Co132 N142 2.128 . S
Co132 N152 2.194 . S
Co132 O157 2.351 . S
Co132 O158 2.155 . S
Co132 O159 2.096 . S
C133 N136 1.301 . S
C133 N137 1.328 . S
C133 H138 0.930 . S
C134 C135 1.333 . S
C134 N136 1.317 . S
C134 H139 0.930 . S
C135 C134 1.333 . S
C135 N137 1.350 . S
C135 H161 0.931 . S
N136 Co132 2.148 . S
N136 C133 1.301 . S
N136 C134 1.317 . S
N137 C133 1.328 . S
N137 C135 1.350 . S
H138 C133 0.930 . S
H139 C134 0.930 . S
C140 O141 1.224 . S
C140 O159 1.247 . S
O141 C140 1.224 . S
N142 Co132 2.128 . S
N142 C143 1.355 . S
N142 C145 1.311 . S
C143 N142 1.355 . S
C143 C144 1.363 . S
C143 H155 0.929 . S
C144 C143 1.363 . S
C144 N146 1.375 . S
C144 H162 0.931 . S
C145 N142 1.311 . S
C145 N146 1.347 . S
C145 H156 0.929 . S
N146 C144 1.375 . S
N146 C145 1.347 . S
C147 C150 1.365 . S
C147 N152 1.328 . S
C147 H153 0.929 . S
C148 C149 1.362 . S
C148 C151 1.378 . S
C148 H163 0.929 . S
C149 C148 1.362 . S
C149 C150 1.366 . S
C150 C147 1.365 . S
C150 C149 1.366 . S
C150 H164 0.930 . S
C151 C148 1.378 . S
C151 N152 1.315 . S
C151 H154 0.930 . S
N152 Co132 2.194 . S
N152 C147 1.328 . S
N152 C151 1.315 . S
H153 C147 0.929 . S
H154 C151 0.930 . S
H155 C143 0.929 . S
H156 C145 0.929 . S
O157 Co132 2.351 . S
O157 C160 1.244 . S
O158 Co132 2.155 . S
O158 C160 1.240 . S
O159 Co132 2.096 . S
O159 C140 1.247 . S
C160 O157 1.244 . S
C160 O158 1.240 . S
H161 C135 0.931 . S
H162 C144 0.931 . S
H163 C148 0.929 . S
H164 C150 0.930 . S
Co165 N169 2.148 . S
Co165 N175 2.128 . S
Co165 N185 2.194 . S
Co165 O190 2.351 . S
Co165 O191 2.155 . S
Co165 O192 2.096 . S
C166 N169 1.301 . S
C166 N170 1.328 . S
C166 H171 0.930 . S
C167 C168 1.333 . S
C167 N169 1.317 . S
C167 H172 0.930 . S
C168 C167 1.333 . S
C168 N170 1.350 . S
C168 H194 0.931 . S
N169 Co165 2.148 . S
N169 C166 1.301 . S
N169 C167 1.317 . S
N170 C166 1.328 . S
N170 C168 1.350 . S
H171 C166 0.930 . S
H172 C167 0.930 . S
C173 O174 1.224 . S
C173 O192 1.247 . S
O174 C173 1.224 . S
N175 Co165 2.128 . S
N175 C176 1.355 . S
N175 C178 1.311 . S
C176 N175 1.355 . S
C176 C177 1.363 . S
C176 H188 0.929 . S
C177 C176 1.363 . S
C177 N179 1.375 . S
C177 H195 0.931 . S
C178 N175 1.311 . S
C178 N179 1.347 . S
C178 H189 0.929 . S
N179 C177 1.375 . S
N179 C178 1.347 . S
C180 C183 1.365 . S
C180 N185 1.328 . S
C180 H186 0.929 . S
C181 C182 1.362 . S
C181 C184 1.378 . S
C181 H196 0.929 . S
C182 C181 1.362 . S
C182 C183 1.366 . S
C183 C180 1.365 . S
C183 C182 1.366 . S
C183 H197 0.930 . S
C184 C181 1.378 . S
C184 N185 1.315 . S
C184 H187 0.930 . S
N185 Co165 2.194 . S
N185 C180 1.328 . S
N185 C184 1.315 . S
H186 C180 0.929 . S
H187 C184 0.930 . S
H188 C176 0.929 . S
H189 C178 0.929 . S
O190 Co165 2.351 . S
O190 C193 1.244 . S
O191 Co165 2.155 . S
O191 C193 1.240 . S
O192 Co165 2.096 . S
O192 C173 1.247 . S
C193 O190 1.244 . S
C193 O191 1.240 . S
H194 C168 0.931 . S
H195 C177 0.931 . S
H196 C181 0.929 . S
H197 C183 0.930 . S
Co198 N202 2.148 . S
Co198 N208 2.128 . S
Co198 N218 2.194 . S
Co198 O223 2.351 . S
Co198 O224 2.155 . S
Co198 O225 2.096 . S
C199 N202 1.301 . S
C199 N203 1.328 . S
C199 H204 0.930 . S
C200 C201 1.333 . S
C200 N202 1.317 . S
C200 H205 0.930 . S
C201 C200 1.333 . S
C201 N203 1.350 . S
C201 H227 0.931 . S
N202 Co198 2.148 . S
N202 C199 1.301 . S
N202 C200 1.317 . S
N203 C199 1.328 . S
N203 C201 1.350 . S
H204 C199 0.930 . S
H205 C200 0.930 . S
C206 O207 1.224 . S
C206 O225 1.247 . S
O207 C206 1.224 . S
N208 Co198 2.128 . S
N208 C209 1.355 . S
N208 C211 1.311 . S
C209 N208 1.355 . S
C209 C210 1.363 . S
C209 H221 0.929 . S
C210 C209 1.363 . S
C210 N212 1.375 . S
C210 H228 0.931 . S
C211 N208 1.311 . S
C211 N212 1.347 . S
C211 H222 0.929 . S
N212 C210 1.375 . S
N212 C211 1.347 . S
C213 C216 1.365 . S
C213 N218 1.328 . S
C213 H219 0.929 . S
C214 C215 1.362 . S
C214 C217 1.378 . S
C214 H229 0.929 . S
C215 C214 1.362 . S
C215 C216 1.366 . S
C216 C213 1.365 . S
C216 C215 1.366 . S
C216 H230 0.930 . S
C217 C214 1.378 . S
C217 N218 1.315 . S
C217 H220 0.930 . S
N218 Co198 2.194 . S
N218 C213 1.328 . S
N218 C217 1.315 . S
H219 C213 0.929 . S
H220 C217 0.930 . S
H221 C209 0.929 . S
H222 C211 0.929 . S
O223 Co198 2.351 . S
O223 C226 1.244 . S
O224 Co198 2.155 . S
O224 C226 1.240 . S
O225 Co198 2.096 . S
O225 C206 1.247 . S
C226 O223 1.244 . S
C226 O224 1.240 . S
H227 C201 0.931 . S
H228 C210 0.931 . S
H229 C214 0.929 . S
H230 C216 0.930 . S
Co231 N235 2.148 . S
Co231 N241 2.128 . S
Co231 N251 2.194 . S
Co231 O256 2.351 . S
Co231 O257 2.155 . S
Co231 O258 2.096 . S
C232 N235 1.301 . S
C232 N236 1.328 . S
C232 H237 0.930 . S
C233 C234 1.333 . S
C233 N235 1.317 . S
C233 H238 0.930 . S
C234 C233 1.333 . S
C234 N236 1.350 . S
C234 H260 0.931 . S
N235 Co231 2.148 . S
N235 C232 1.301 . S
N235 C233 1.317 . S
N236 C232 1.328 . S
N236 C234 1.350 . S
H237 C232 0.930 . S
H238 C233 0.930 . S
C239 O240 1.224 . S
C239 O258 1.247 . S
O240 C239 1.224 . S
N241 Co231 2.128 . S
N241 C242 1.355 . S
N241 C244 1.311 . S
C242 N241 1.355 . S
C242 C243 1.363 . S
C242 H254 0.929 . S
C243 C242 1.363 . S
C243 N245 1.375 . S
C243 H261 0.931 . S
C244 N241 1.311 . S
C244 N245 1.347 . S
C244 H255 0.929 . S
N245 C243 1.375 . S
N245 C244 1.347 . S
C246 C249 1.365 . S
C246 N251 1.328 . S
C246 H252 0.929 . S
C247 C248 1.362 . S
C247 C250 1.378 . S
C247 H262 0.929 . S
C248 C247 1.362 . S
C248 C249 1.366 . S
C249 C246 1.365 . S
C249 C248 1.366 . S
C249 H263 0.930 . S
C250 C247 1.378 . S
C250 N251 1.315 . S
C250 H253 0.930 . S
N251 Co231 2.194 . S
N251 C246 1.328 . S
N251 C250 1.315 . S
H252 C246 0.929 . S
H253 C250 0.930 . S
H254 C242 0.929 . S
H255 C244 0.929 . S
O256 Co231 2.351 . S
O256 C259 1.244 . S
O257 Co231 2.155 . S
O257 C259 1.240 . S
O258 Co231 2.096 . S
O258 C239 1.247 . S
C259 O256 1.244 . S
C259 O257 1.240 . S
H260 C234 0.931 . S
H261 C243 0.931 . S
H262 C247 0.929 . S
H263 C249 0.930 . S
Co264 N268 2.148 . S
Co264 N274 2.128 . S
Co264 N284 2.194 . S
Co264 O289 2.351 . S
Co264 O290 2.155 . S
Co264 O291 2.096 . S
C265 N268 1.301 . S
C265 N269 1.328 . S
C265 H270 0.930 . S
C266 C267 1.333 . S
C266 N268 1.317 . S
C266 H271 0.930 . S
C267 C266 1.333 . S
C267 N269 1.350 . S
C267 H293 0.931 . S
N268 Co264 2.148 . S
N268 C265 1.301 . S
N268 C266 1.317 . S
N269 C265 1.328 . S
N269 C267 1.350 . S
H270 C265 0.930 . S
H271 C266 0.930 . S
C272 O273 1.224 . S
C272 O291 1.247 . S
O273 C272 1.224 . S
N274 Co264 2.128 . S
N274 C275 1.355 . S
N274 C277 1.311 1_655 S
C275 N274 1.355 . S
C275 C276 1.363 1_655 S
C275 H287 0.929 . S
C276 C275 1.363 1_455 S
C276 N278 1.375 . S
C276 H294 0.931 . S
C277 N274 1.311 1_455 S
C277 N278 1.347 . S
C277 H288 0.929 . S
N278 C276 1.375 . S
N278 C277 1.347 . S
C279 C282 1.365 . S
C279 N284 1.328 . S
C279 H285 0.929 . S
C280 C281 1.362 . S
C280 C283 1.378 . S
C280 H295 0.929 . S
C281 C280 1.362 . S
C281 C282 1.366 . S
C282 C279 1.365 . S
C282 C281 1.366 . S
C282 H296 0.930 . S
C283 C280 1.378 . S
C283 N284 1.315 . S
C283 H286 0.930 . S
N284 Co264 2.194 . S
N284 C279 1.328 . S
N284 C283 1.315 . S
H285 C279 0.929 . S
H286 C283 0.930 . S
H287 C275 0.929 . S
H288 C277 0.929 . S
O289 Co264 2.351 . S
O289 C292 1.244 . S
O290 Co264 2.155 . S
O290 C292 1.240 . S
O291 Co264 2.096 . S
O291 C272 1.247 . S
C292 O289 1.244 . S
C292 O290 1.240 . S
H293 C267 0.931 . S
H294 C276 0.931 . S
H295 C280 0.929 . S
H296 C282 0.930 . S
Co297 N301 2.148 . S
Co297 N307 2.128 . S
Co297 N317 2.194 . S
Co297 O322 2.351 . S
Co297 O323 2.155 . S
Co297 O324 2.096 . S
C298 N301 1.301 . S
C298 N302 1.328 . S
C298 H303 0.930 . S
C299 C300 1.333 . S
C299 N301 1.317 . S
C299 H304 0.930 . S
C300 C299 1.333 . S
C300 N302 1.350 . S
C300 H326 0.931 . S
N301 Co297 2.148 . S
N301 C298 1.301 . S
N301 C299 1.317 . S
N302 C298 1.328 . S
N302 C300 1.350 . S
H303 C298 0.930 . S
H304 C299 0.930 . S
C305 O306 1.224 . S
C305 O324 1.247 . S
O306 C305 1.224 . S
N307 Co297 2.128 . S
N307 C308 1.355 . S
N307 C310 1.311 1_565 S
C308 N307 1.355 . S
C308 C309 1.363 1_565 S
C308 H320 0.929 . S
C309 C308 1.363 1_545 S
C309 N311 1.375 . S
C309 H327 0.931 . S
C310 N307 1.311 1_545 S
C310 N311 1.347 . S
C310 H321 0.929 . S
N311 C309 1.375 . S
N311 C310 1.347 . S
C312 C315 1.365 . S
C312 N317 1.328 . S
C312 H318 0.929 . S
C313 C314 1.362 . S
C313 C316 1.378 . S
C313 H328 0.929 . S
C314 C313 1.362 . S
C314 C315 1.366 . S
C315 C312 1.365 . S
C315 C314 1.366 . S
C315 H329 0.930 . S
C316 C313 1.378 . S
C316 N317 1.315 . S
C316 H319 0.930 . S
N317 Co297 2.194 . S
N317 C312 1.328 . S
N317 C316 1.315 . S
H318 C312 0.929 . S
H319 C316 0.930 . S
H320 C308 0.929 . S
H321 C310 0.929 . S
O322 Co297 2.351 . S
O322 C325 1.244 . S
O323 Co297 2.155 . S
O323 C325 1.240 . S
O324 Co297 2.096 . S
O324 C305 1.247 . S
C325 O322 1.244 . S
C325 O323 1.240 . S
H326 C300 0.931 . S
H327 C309 0.931 . S
H328 C313 0.929 . S
H329 C315 0.930 . S
Co330 N334 2.148 . S
Co330 N340 2.128 . S
Co330 N350 2.194 . S
Co330 O355 2.351 . S
Co330 O356 2.155 . S
Co330 O357 2.096 . S
C331 N334 1.301 . S
C331 N335 1.328 . S
C331 H336 0.930 . S
C332 C333 1.333 . S
C332 N334 1.317 . S
C332 H337 0.930 . S
C333 C332 1.333 . S
C333 N335 1.350 . S
C333 H359 0.931 . S
N334 Co330 2.148 . S
N334 C331 1.301 . S
N334 C332 1.317 . S
N335 C331 1.328 . S
N335 C333 1.350 . S
H336 C331 0.930 . S
H337 C332 0.930 . S
C338 O339 1.224 . S
C338 O357 1.247 . S
O339 C338 1.224 . S
N340 Co330 2.128 . S
N340 C341 1.355 . S
N340 C343 1.311 1_455 S
C341 N340 1.355 . S
C341 C342 1.363 1_455 S
C341 H353 0.929 . S
C342 C341 1.363 1_655 S
C342 N344 1.375 . S
C342 H360 0.931 . S
C343 N340 1.311 1_655 S
C343 N344 1.347 . S
C343 H354 0.929 . S
N344 C342 1.375 . S
N344 C343 1.347 . S
C345 C348 1.365 . S
C345 N350 1.328 . S
C345 H351 0.929 . S
C346 C347 1.362 . S
C346 C349 1.378 . S
C346 H361 0.929 . S
C347 C346 1.362 . S
C347 C348 1.366 . S
C348 C345 1.365 . S
C348 C347 1.366 . S
C348 H362 0.930 . S
C349 C346 1.378 . S
C349 N350 1.315 . S
C349 H352 0.930 . S
N350 Co330 2.194 . S
N350 C345 1.328 . S
N350 C349 1.315 . S
H351 C345 0.929 . S
H352 C349 0.930 . S
H353 C341 0.929 . S
H354 C343 0.929 . S
O355 Co330 2.351 . S
O355 C358 1.244 . S
O356 Co330 2.155 . S
O356 C358 1.240 . S
O357 Co330 2.096 . S
O357 C338 1.247 . S
C358 O355 1.244 . S
C358 O356 1.240 . S
H359 C333 0.931 . S
H360 C342 0.931 . S
H361 C346 0.929 . S
H362 C348 0.930 . S
Co363 N367 2.148 . S
Co363 N373 2.128 . S
Co363 N383 2.194 . S
Co363 O388 2.351 . S
Co363 O389 2.155 . S
Co363 O390 2.096 . S
C364 N367 1.301 . S
C364 N368 1.328 . S
C364 H369 0.930 . S
C365 C366 1.333 . S
C365 N367 1.317 . S
C365 H370 0.930 . S
C366 C365 1.333 . S
C366 N368 1.350 . S
C366 H392 0.931 . S
N367 Co363 2.148 . S
N367 C364 1.301 . S
N367 C365 1.317 . S
N368 C364 1.328 . S
N368 C366 1.350 . S
H369 C364 0.930 . S
H370 C365 0.930 . S
C371 O372 1.224 . S
C371 O390 1.247 . S
O372 C371 1.224 . S
N373 Co363 2.128 . S
N373 C374 1.355 . S
N373 C376 1.311 1_545 S
C374 N373 1.355 . S
C374 C375 1.363 1_545 S
C374 H386 0.929 . S
C375 C374 1.363 1_565 S
C375 N377 1.375 . S
C375 H393 0.931 . S
C376 N373 1.311 1_565 S
C376 N377 1.347 . S
C376 H387 0.929 . S
N377 C375 1.375 . S
N377 C376 1.347 . S
C378 C381 1.365 . S
C378 N383 1.328 . S
C378 H384 0.929 . S
C379 C380 1.362 . S
C379 C382 1.378 . S
C379 H394 0.929 . S
C380 C379 1.362 . S
C380 C381 1.366 . S
C381 C378 1.365 . S
C381 C380 1.366 . S
C381 H395 0.930 . S
C382 C379 1.378 . S
C382 N383 1.315 . S
C382 H385 0.930 . S
N383 Co363 2.194 . S
N383 C378 1.328 . S
N383 C382 1.315 . S
H384 C378 0.929 . S
H385 C382 0.930 . S
H386 C374 0.929 . S
H387 C376 0.929 . S
O388 Co363 2.351 . S
O388 C391 1.244 . S
O389 Co363 2.155 . S
O389 C391 1.240 . S
O390 Co363 2.096 . S
O390 C371 1.247 . S
C391 O388 1.244 . S
C391 O389 1.240 . S
H392 C366 0.931 . S
H393 C375 0.931 . S
H394 C379 0.929 . S
H395 C381 0.930 . S
Co396 N400 2.148 . S
Co396 N406 2.128 . S
Co396 N416 2.194 . S
Co396 O421 2.351 . S
Co396 O422 2.155 . S
Co396 O423 2.096 . S
C397 N400 1.301 . S
C397 N401 1.328 . S
C397 H402 0.930 . S
C398 C399 1.333 . S
C398 N400 1.317 . S
C398 H403 0.930 . S
C399 C398 1.333 . S
C399 N401 1.350 . S
C399 H425 0.931 . S
N400 Co396 2.148 . S
N400 C397 1.301 . S
N400 C398 1.317 . S
N401 C397 1.328 . S
N401 C399 1.350 . S
H402 C397 0.930 . S
H403 C398 0.930 . S
C404 O405 1.224 . S
C404 O423 1.247 . S
O405 C404 1.224 . S
N406 Co396 2.128 . S
N406 C407 1.355 . S
N406 C409 1.311 . S
C407 N406 1.355 . S
C407 C408 1.363 . S
C407 H419 0.929 . S
C408 C407 1.363 . S
C408 N410 1.375 . S
C408 H426 0.931 . S
C409 N406 1.311 . S
C409 N410 1.347 . S
C409 H420 0.929 . S
N410 C408 1.375 . S
N410 C409 1.347 . S
C411 C414 1.365 . S
C411 N416 1.328 . S
C411 H417 0.929 . S
C412 C413 1.362 . S
C412 C415 1.378 . S
C412 H427 0.929 . S
C413 C412 1.362 . S
C413 C414 1.366 . S
C414 C411 1.365 . S
C414 C413 1.366 . S
C414 H428 0.930 . S
C415 C412 1.378 . S
C415 N416 1.315 . S
C415 H418 0.930 . S
N416 Co396 2.194 . S
N416 C411 1.328 . S
N416 C415 1.315 . S
H417 C411 0.929 . S
H418 C415 0.930 . S
H419 C407 0.929 . S
H420 C409 0.929 . S
O421 Co396 2.351 . S
O421 C424 1.244 . S
O422 Co396 2.155 . S
O422 C424 1.240 . S
O423 Co396 2.096 . S
O423 C404 1.247 . S
C424 O421 1.244 . S
C424 O422 1.240 . S
H425 C399 0.931 . S
H426 C408 0.931 . S
H427 C412 0.929 . S
H428 C414 0.930 . S
Co429 N433 2.148 . S
Co429 N439 2.128 . S
Co429 N449 2.194 . S
Co429 O454 2.351 . S
Co429 O455 2.155 . S
Co429 O456 2.096 . S
C430 N433 1.301 . S
C430 N434 1.328 . S
C430 H435 0.930 . S
C431 C432 1.333 . S
C431 N433 1.317 . S
C431 H436 0.930 . S
C432 C431 1.333 . S
C432 N434 1.350 . S
C432 H458 0.931 . S
N433 Co429 2.148 . S
N433 C430 1.301 . S
N433 C431 1.317 . S
N434 C430 1.328 . S
N434 C432 1.350 . S
H435 C430 0.930 . S
H436 C431 0.930 . S
C437 O438 1.224 . S
C437 O456 1.247 . S
O438 C437 1.224 . S
N439 Co429 2.128 . S
N439 C440 1.355 . S
N439 C442 1.311 . S
C440 N439 1.355 . S
C440 C441 1.363 . S
C440 H452 0.929 . S
C441 C440 1.363 . S
C441 N443 1.375 . S
C441 H459 0.931 . S
C442 N439 1.311 . S
C442 N443 1.347 . S
C442 H453 0.929 . S
N443 C441 1.375 . S
N443 C442 1.347 . S
C444 C447 1.365 . S
C444 N449 1.328 . S
C444 H450 0.929 . S
C445 C446 1.362 . S
C445 C448 1.378 . S
C445 H460 0.929 . S
C446 C445 1.362 . S
C446 C447 1.366 . S
C447 C444 1.365 . S
C447 C446 1.366 . S
C447 H461 0.930 . S
C448 C445 1.378 . S
C448 N449 1.315 . S
C448 H451 0.930 . S
N449 Co429 2.194 . S
N449 C444 1.328 . S
N449 C448 1.315 . S
H450 C444 0.929 . S
H451 C448 0.930 . S
H452 C440 0.929 . S
H453 C442 0.929 . S
O454 Co429 2.351 . S
O454 C457 1.244 . S
O455 Co429 2.155 . S
O455 C457 1.240 . S
O456 Co429 2.096 . S
O456 C437 1.247 . S
C457 O454 1.244 . S
C457 O455 1.240 . S
H458 C432 0.931 . S
H459 C441 0.931 . S
H460 C445 0.929 . S
H461 C447 0.930 . S
Co462 N466 2.148 . S
Co462 N472 2.128 . S
Co462 N482 2.194 . S
Co462 O487 2.351 . S
Co462 O488 2.155 . S
Co462 O489 2.096 . S
C463 N466 1.301 . S
C463 N467 1.328 . S
C463 H468 0.930 . S
C464 C465 1.333 . S
C464 N466 1.317 . S
C464 H469 0.930 . S
C465 C464 1.333 . S
C465 N467 1.350 . S
C465 H491 0.931 . S
N466 Co462 2.148 . S
N466 C463 1.301 . S
N466 C464 1.317 . S
N467 C463 1.328 . S
N467 C465 1.350 . S
H468 C463 0.930 . S
H469 C464 0.930 . S
C470 O471 1.224 . S
C470 O489 1.247 . S
O471 C470 1.224 . S
N472 Co462 2.128 . S
N472 C473 1.355 . S
N472 C475 1.311 . S
C473 N472 1.355 . S
C473 C474 1.363 . S
C473 H485 0.929 . S
C474 C473 1.363 . S
C474 N476 1.375 . S
C474 H492 0.931 . S
C475 N472 1.311 . S
C475 N476 1.347 . S
C475 H486 0.929 . S
N476 C474 1.375 . S
N476 C475 1.347 . S
C477 C480 1.365 . S
C477 N482 1.328 . S
C477 H483 0.929 . S
C478 C479 1.362 . S
C478 C481 1.378 . S
C478 H493 0.929 . S
C479 C478 1.362 . S
C479 C480 1.366 . S
C480 C477 1.365 . S
C480 C479 1.366 . S
C480 H494 0.930 . S
C481 C478 1.378 . S
C481 N482 1.315 . S
C481 H484 0.930 . S
N482 Co462 2.194 . S
N482 C477 1.328 . S
N482 C481 1.315 . S
H483 C477 0.929 . S
H484 C481 0.930 . S
H485 C473 0.929 . S
H486 C475 0.929 . S
O487 Co462 2.351 . S
O487 C490 1.244 . S
O488 Co462 2.155 . S
O488 C490 1.240 . S
O489 Co462 2.096 . S
O489 C470 1.247 . S
C490 O487 1.244 . S
C490 O488 1.240 . S
H491 C465 0.931 . S
H492 C474 0.931 . S
H493 C478 0.929 . S
H494 C480 0.930 . S
Co495 N499 2.148 . S
Co495 N505 2.128 . S
Co495 N515 2.194 . S
Co495 O520 2.351 . S
Co495 O521 2.155 . S
Co495 O522 2.096 . S
C496 N499 1.301 . S
C496 N500 1.328 . S
C496 H501 0.930 . S
C497 C498 1.333 . S
C497 N499 1.317 . S
C497 H502 0.930 . S
C498 C497 1.333 . S
C498 N500 1.350 . S
C498 H524 0.931 . S
N499 Co495 2.148 . S
N499 C496 1.301 . S
N499 C497 1.317 . S
N500 C496 1.328 . S
N500 C498 1.350 . S
H501 C496 0.930 . S
H502 C497 0.930 . S
C503 O504 1.224 . S
C503 O522 1.247 . S
O504 C503 1.224 . S
N505 Co495 2.128 . S
N505 C506 1.355 . S
N505 C508 1.311 . S
C506 N505 1.355 . S
C506 C507 1.363 . S
C506 H518 0.929 . S
C507 C506 1.363 . S
C507 N509 1.375 . S
C507 H525 0.931 . S
C508 N505 1.311 . S
C508 N509 1.347 . S
C508 H519 0.929 . S
N509 C507 1.375 . S
N509 C508 1.347 . S
C510 C513 1.365 . S
C510 N515 1.328 . S
C510 H516 0.929 . S
C511 C512 1.362 . S
C511 C514 1.378 . S
C511 H526 0.929 . S
C512 C511 1.362 . S
C512 C513 1.366 . S
C513 C510 1.365 . S
C513 C512 1.366 . S
C513 H527 0.930 . S
C514 C511 1.378 . S
C514 N515 1.315 . S
C514 H517 0.930 . S
N515 Co495 2.194 . S
N515 C510 1.328 . S
N515 C514 1.315 . S
H516 C510 0.929 . S
H517 C514 0.930 . S
H518 C506 0.929 . S
H519 C508 0.929 . S
O520 Co495 2.351 . S
O520 C523 1.244 . S
O521 Co495 2.155 . S
O521 C523 1.240 . S
O522 Co495 2.096 . S
O522 C503 1.247 . S
C523 O520 1.244 . S
C523 O521 1.240 . S
H524 C498 0.931 . S
H525 C507 0.931 . S
H526 C511 0.929 . S
H527 C513 0.930 . S
C528 C529 1.349 . S
C528 C530 1.327 . S
C528 H553 0.950 . S
C529 C528 1.349 . S
C529 C545 1.349 . S
C530 C528 1.327 . S
C530 C549 1.429 . S
C530 H554 0.950 1_455 S
C531 C548 1.574 1_545 S
C531 C550 1.368 . S
C531 H555 0.949 . S
H532 C536 0.949 . S
C533 C534 1.349 . S
C533 C535 1.327 . S
C533 H556 0.950 . S
C534 C533 1.349 . S
C534 C546 1.349 . S
C535 C533 1.327 . S
C535 C551 1.429 . S
C535 H557 0.950 1_655 S
C536 H532 0.949 . S
C536 C544 1.574 1_565 S
C536 C552 1.368 . S
H537 C545 0.950 . S
H538 C543 0.950 . S
H539 C544 0.949 . S
H540 C546 0.950 . S
H541 C547 0.950 . S
H542 C548 0.949 . S
C543 H538 0.950 . S
C543 C545 1.327 . S
C543 C549 1.429 . S
C544 C536 1.574 1_545 S
C544 H539 0.949 . S
C544 C550 1.368 1_655 S
C545 C529 1.349 . S
C545 H537 0.950 . S
C545 C543 1.327 . S
C546 C534 1.349 . S
C546 H540 0.950 . S
C546 C547 1.327 . S
C547 H541 0.950 . S
C547 C546 1.327 . S
C547 C551 1.429 . S
C548 C531 1.574 1_565 S
C548 H542 0.949 . S
C548 C552 1.368 1_455 S
C549 C530 1.429 . S
C549 C543 1.429 . S
C549 C550 1.523 . S
C550 C531 1.368 . S
C550 C544 1.368 1_455 S
C550 C549 1.523 . S
C551 C535 1.429 . S
C551 C547 1.429 . S
C551 C552 1.523 . S
C552 C536 1.368 . S
C552 C548 1.368 1_655 S
C552 C551 1.523 . S
H553 C528 0.950 . S
H554 C530 0.950 1_655 S
H555 C531 0.949 . S
H556 C533 0.950 . S
H557 C535 0.950 1_455 S
C558 C559 1.349 . S
C558 C560 1.327 . S
C558 H583 0.950 . S
C559 C558 1.349 . S
C559 C575 1.349 . S
C560 C558 1.327 . S
C560 C579 1.429 . S
C560 H584 0.950 1_565 S
C561 C578 1.574 1_455 S
C561 C580 1.368 . S
C561 H585 0.949 . S
H562 C566 0.949 . S
C563 C564 1.349 . S
C563 C565 1.327 . S
C563 H586 0.950 . S
C564 C563 1.349 . S
C564 C576 1.349 . S
C565 C563 1.327 . S
C565 C581 1.429 . S
C565 H587 0.950 1_545 S
C566 H562 0.949 . S
C566 C574 1.574 1_655 S
C566 C582 1.368 . S
H567 C575 0.950 . S
H568 C573 0.950 . S
H569 C574 0.949 . S
H570 C576 0.950 . S
H571 C577 0.950 . S
H572 C578 0.949 . S
C573 H568 0.950 . S
C573 C575 1.327 . S
C573 C579 1.429 . S
C574 C566 1.574 1_455 S
C574 H569 0.949 . S
C574 C580 1.368 1_545 S
C575 C559 1.349 . S
C575 H567 0.950 . S
C575 C573 1.327 . S
C576 C564 1.349 . S
C576 H570 0.950 . S
C576 C577 1.327 . S
C577 H571 0.950 . S
C577 C576 1.327 . S
C577 C581 1.429 . S
C578 C561 1.574 1_655 S
C578 H572 0.949 . S
C578 C582 1.368 1_565 S
C579 C560 1.429 . S
C579 C573 1.429 . S
C579 C580 1.523 . S
C580 C561 1.368 . S
C580 C574 1.368 1_565 S
C580 C579 1.523 . S
C581 C565 1.429 . S
C581 C577 1.429 . S
C581 C582 1.523 . S
C582 C566 1.368 . S
C582 C578 1.368 1_545 S
C582 C581 1.523 . S
H583 C558 0.950 . S
H584 C560 0.950 1_545 S
H585 C561 0.949 . S
H586 C563 0.950 . S
H587 C565 0.950 1_565 S
C588 C589 1.349 . S
C588 C590 1.327 . S
C588 H613 0.950 . S
C589 C588 1.349 . S
C589 C605 1.349 . S
C590 C588 1.327 . S
C590 C609 1.429 . S
C590 H614 0.950 . S
C591 C608 1.574 . S
C591 C610 1.368 . S
C591 H615 0.949 . S
H592 C596 0.949 . S
C593 C594 1.349 . S
C593 C595 1.327 . S
C593 H616 0.950 . S
C594 C593 1.349 . S
C594 C606 1.349 . S
C595 C593 1.327 . S
C595 C611 1.429 . S
C595 H617 0.950 . S
C596 H592 0.949 . S
C596 C604 1.574 . S
C596 C612 1.368 . S
H597 C605 0.950 . S
H598 C603 0.950 . S
H599 C604 0.949 . S
H600 C606 0.950 . S
H601 C607 0.950 . S
H602 C608 0.949 . S
C603 H598 0.950 . S
C603 C605 1.327 . S
C603 C609 1.429 . S
C604 C596 1.574 . S
C604 H599 0.949 . S
C604 C610 1.368 . S
C605 C589 1.349 . S
C605 H597 0.950 . S
C605 C603 1.327 . S
C606 C594 1.349 . S
C606 H600 0.950 . S
C606 C607 1.327 . S
C607 H601 0.950 . S
C607 C606 1.327 . S
C607 C611 1.429 . S
C608 C591 1.574 . S
C608 H602 0.949 . S
C608 C612 1.368 . S
C609 C590 1.429 . S
C609 C603 1.429 . S
C609 C610 1.523 . S
C610 C591 1.368 . S
C610 C604 1.368 . S
C610 C609 1.523 . S
C611 C595 1.429 . S
C611 C607 1.429 . S
C611 C612 1.523 . S
C612 C596 1.368 . S
C612 C608 1.368 . S
C612 C611 1.523 . S
H613 C588 0.950 . S
H614 C590 0.950 . S
H615 C591 0.949 . S
H616 C593 0.950 . S
H617 C595 0.950 . S
C618 C619 1.349 . S
C618 C620 1.327 . S
C618 H643 0.950 . S
C619 C618 1.349 . S
C619 C635 1.349 . S
C620 C618 1.327 . S
C620 C639 1.429 . S
C620 H644 0.950 . S
C621 C638 1.574 . S
C621 C640 1.368 . S
C621 H645 0.949 . S
H622 C626 0.949 . S
C623 C624 1.349 . S
C623 C625 1.327 . S
C623 H646 0.950 . S
C624 C623 1.349 . S
C624 C636 1.349 . S
C625 C623 1.327 . S
C625 C641 1.429 . S
C625 H647 0.950 . S
C626 H622 0.949 . S
C626 C634 1.574 . S
C626 C642 1.368 . S
H627 C635 0.950 . S
H628 C633 0.950 . S
H629 C634 0.949 . S
H630 C636 0.950 . S
H631 C637 0.950 . S
H632 C638 0.949 . S
C633 H628 0.950 . S
C633 C635 1.327 . S
C633 C639 1.429 . S
C634 C626 1.574 . S
C634 H629 0.949 . S
C634 C640 1.368 . S
C635 C619 1.349 . S
C635 H627 0.950 . S
C635 C633 1.327 . S
C636 C624 1.349 . S
C636 H630 0.950 . S
C636 C637 1.327 . S
C637 H631 0.950 . S
C637 C636 1.327 . S
C637 C641 1.429 . S
C638 C621 1.574 . S
C638 H632 0.949 . S
C638 C642 1.368 . S
C639 C620 1.429 . S
C639 C633 1.429 . S
C639 C640 1.523 . S
C640 C621 1.368 . S
C640 C634 1.368 . S
C640 C639 1.523 . S
C641 C625 1.429 . S
C641 C637 1.429 . S
C641 C642 1.523 . S
C642 C626 1.368 . S
C642 C638 1.368 . S
C642 C641 1.523 . S
H643 C618 0.950 . S
H644 C620 0.950 . S
H645 C621 0.949 . S
H646 C623 0.950 . S
H647 C625 0.950 . S
C648 C649 1.349 . S
C648 C650 1.327 . S
C648 H673 0.950 . S
C649 C648 1.349 . S
C649 C665 1.349 . S
C650 C648 1.327 . S
C650 C669 1.429 . S
C650 H674 0.950 . S
C651 C668 1.574 1_545 S
C651 C670 1.368 1_655 S
C651 H675 0.949 . S
H652 C656 0.949 . S
C653 C654 1.349 . S
C653 C655 1.327 . S
C653 H676 0.950 . S
C654 C653 1.349 . S
C654 C666 1.349 . S
C655 C653 1.327 . S
C655 C671 1.429 . S
C655 H677 0.950 . S
C656 H652 0.949 . S
C656 C664 1.574 1_565 S
C656 C672 1.368 1_455 S
H657 C665 0.950 . S
H658 C663 0.950 1_655 S
H659 C664 0.949 . S
H660 C666 0.950 . S
H661 C667 0.950 1_455 S
H662 C668 0.949 . S
C663 H658 0.950 1_455 S
C663 C665 1.327 . S
C663 C669 1.429 . S
C664 C656 1.574 1_545 S
C664 H659 0.949 . S
C664 C670 1.368 . S
C665 C649 1.349 . S
C665 H657 0.950 . S
C665 C663 1.327 . S
C666 C654 1.349 . S
C666 H660 0.950 . S
C666 C667 1.327 . S
C667 H661 0.950 1_655 S
C667 C666 1.327 . S
C667 C671 1.429 . S
C668 C651 1.574 1_565 S
C668 H662 0.949 . S
C668 C672 1.368 . S
C669 C650 1.429 . S
C669 C663 1.429 . S
C669 C670 1.523 . S
C670 C651 1.368 1_455 S
C670 C664 1.368 . S
C670 C669 1.523 . S
C671 C655 1.429 . S
C671 C667 1.429 . S
C671 C672 1.523 . S
C672 C656 1.368 1_655 S
C672 C668 1.368 . S
C672 C671 1.523 . S
H673 C648 0.950 . S
H674 C650 0.950 . S
H675 C651 0.949 . S
H676 C653 0.950 . S
H677 C655 0.950 . S
C678 C679 1.349 . S
C678 C680 1.327 . S
C678 H703 0.950 . S
C679 C678 1.349 . S
C679 C695 1.349 . S
C680 C678 1.327 . S
C680 C699 1.429 . S
C680 H704 0.950 1_565 S
C681 C698 1.574 1_455 S
C681 C700 1.368 . S
C681 H705 0.949 . S
H682 C686 0.949 . S
C683 C684 1.349 . S
C683 C685 1.327 . S
C683 H706 0.950 . S
C684 C683 1.349 . S
C684 C696 1.349 . S
C685 C683 1.327 . S
C685 C701 1.429 . S
C685 H707 0.950 1_545 S
C686 H682 0.949 . S
C686 C694 1.574 1_655 S
C686 C702 1.368 . S
H687 C695 0.950 . S
H688 C693 0.950 . S
H689 C694 0.949 . S
H690 C696 0.950 . S
H691 C697 0.950 . S
H692 C698 0.949 . S
C693 H688 0.950 . S
C693 C695 1.327 . S
C693 C699 1.429 . S
C694 C686 1.574 1_455 S
C694 H689 0.949 . S
C694 C700 1.368 1_545 S
C695 C679 1.349 . S
C695 H687 0.950 . S
C695 C693 1.327 . S
C696 C684 1.349 . S
C696 H690 0.950 . S
C696 C697 1.327 . S
C697 H691 0.950 . S
C697 C696 1.327 . S
C697 C701 1.429 . S
C698 C681 1.574 1_655 S
C698 H692 0.949 . S
C698 C702 1.368 1_565 S
C699 C680 1.429 . S
C699 C693 1.429 . S
C699 C700 1.523 . S
C700 C681 1.368 . S
C700 C694 1.368 1_565 S
C700 C699 1.523 . S
C701 C685 1.429 . S
C701 C697 1.429 . S
C701 C702 1.523 . S
C702 C686 1.368 . S
C702 C698 1.368 1_545 S
C702 C701 1.523 . S
H703 C678 0.950 . S
H704 C680 0.950 1_545 S
H705 C681 0.949 . S
H706 C683 0.950 . S
H707 C685 0.950 1_565 S
C708 C709 1.349 . S
C708 C710 1.327 . S
C708 H733 0.950 . S
C709 C708 1.349 . S
C709 C725 1.349 . S
C710 C708 1.327 . S
C710 C729 1.429 . S
C710 H734 0.950 . S
C711 C728 1.574 . S
C711 C730 1.368 . S
C711 H735 0.949 . S
H712 C716 0.949 . S
C713 C714 1.349 . S
C713 C715 1.327 . S
C713 H736 0.950 . S
C714 C713 1.349 . S
C714 C726 1.349 . S
C715 C713 1.327 . S
C715 C731 1.429 . S
C715 H737 0.950 . S
C716 H712 0.949 . S
C716 C724 1.574 . S
C716 C732 1.368 . S
H717 C725 0.950 . S
H718 C723 0.950 . S
H719 C724 0.949 . S
H720 C726 0.950 . S
H721 C727 0.950 . S
H722 C728 0.949 . S
C723 H718 0.950 . S
C723 C725 1.327 . S
C723 C729 1.429 . S
C724 C716 1.574 . S
C724 H719 0.949 . S
C724 C730 1.368 . S
C725 C709 1.349 . S
C725 H717 0.950 . S
C725 C723 1.327 . S
C726 C714 1.349 . S
C726 H720 0.950 . S
C726 C727 1.327 . S
C727 H721 0.950 . S
C727 C726 1.327 . S
C727 C731 1.429 . S
C728 C711 1.574 . S
C728 H722 0.949 . S
C728 C732 1.368 . S
C729 C710 1.429 . S
C729 C723 1.429 . S
C729 C730 1.523 . S
C730 C711 1.368 . S
C730 C724 1.368 . S
C730 C729 1.523 . S
C731 C715 1.429 . S
C731 C727 1.429 . S
C731 C732 1.523 . S
C732 C716 1.368 . S
C732 C728 1.368 . S
C732 C731 1.523 . S
H733 C708 0.950 . S
H734 C710 0.950 . S
H735 C711 0.949 . S
H736 C713 0.950 . S
H737 C715 0.950 . S
C738 C739 1.349 . S
C738 C740 1.327 . S
C738 H763 0.950 . S
C739 C738 1.349 . S
C739 C755 1.349 . S
C740 C738 1.327 . S
C740 C759 1.429 . S
C740 H764 0.950 . S
C741 C758 1.574 . S
C741 C760 1.368 . S
C741 H765 0.949 . S
H742 C746 0.949 . S
C743 C744 1.349 . S
C743 C745 1.327 . S
C743 H766 0.950 . S
C744 C743 1.349 . S
C744 C756 1.349 . S
C745 C743 1.327 . S
C745 C761 1.429 . S
C745 H767 0.950 . S
C746 H742 0.949 . S
C746 C754 1.574 . S
C746 C762 1.368 . S
H747 C755 0.950 . S
H748 C753 0.950 . S
H749 C754 0.949 . S
H750 C756 0.950 . S
H751 C757 0.950 . S
H752 C758 0.949 . S
C753 H748 0.950 . S
C753 C755 1.327 . S
C753 C759 1.429 . S
C754 C746 1.574 . S
C754 H749 0.949 . S
C754 C760 1.368 . S
C755 C739 1.349 . S
C755 H747 0.950 . S
C755 C753 1.327 . S
C756 C744 1.349 . S
C756 H750 0.950 . S
C756 C757 1.327 . S
C757 H751 0.950 . S
C757 C756 1.327 . S
C757 C761 1.429 . S
C758 C741 1.574 . S
C758 H752 0.949 . S
C758 C762 1.368 . S
C759 C740 1.429 . S
C759 C753 1.429 . S
C759 C760 1.523 . S
C760 C741 1.368 . S
C760 C754 1.368 . S
C760 C759 1.523 . S
C761 C745 1.429 . S
C761 C757 1.429 . S
C761 C762 1.523 . S
C762 C746 1.368 . S
C762 C758 1.368 . S
C762 C761 1.523 . S
H763 C738 0.950 . S
H764 C740 0.950 . S
H765 C741 0.949 . S
H766 C743 0.950 . S
H767 C745 0.950 . S
C768 C769 1.349 . S
C768 C770 1.327 . S
C768 H793 0.950 . S
C769 C768 1.349 . S
C769 C785 1.349 . S
C770 C768 1.327 . S
C770 C789 1.429 . S
C770 H794 0.950 . S
C771 C788 1.574 1_554 S
C771 C790 1.368 . S
C771 H795 0.949 . S
H772 C776 0.949 . S
C773 C774 1.349 . S
C773 C775 1.327 . S
C773 H796 0.950 . S
C774 C773 1.349 . S
C774 C786 1.349 . S
C775 C773 1.327 . S
C775 C791 1.429 . S
C775 H797 0.950 . S
C776 H772 0.949 . S
C776 C784 1.574 1_556 S
C776 C792 1.368 . S
H777 C785 0.950 . S
H778 C783 0.950 . S
H779 C784 0.949 . S
H780 C786 0.950 . S
H781 C787 0.950 . S
H782 C788 0.949 . S
C783 H778 0.950 . S
C783 C785 1.327 . S
C783 C789 1.429 . S
C784 C776 1.574 1_554 S
C784 H779 0.949 . S
C784 C790 1.368 . S
C785 C769 1.349 . S
C785 H777 0.950 . S
C785 C783 1.327 . S
C786 C774 1.349 . S
C786 H780 0.950 . S
C786 C787 1.327 . S
C787 H781 0.950 . S
C787 C786 1.327 . S
C787 C791 1.429 . S
C788 C771 1.574 1_556 S
C788 H782 0.949 . S
C788 C792 1.368 . S
C789 C770 1.429 . S
C789 C783 1.429 . S
C789 C790 1.523 . S
C790 C771 1.368 . S
C790 C784 1.368 . S
C790 C789 1.523 . S
C791 C775 1.429 . S
C791 C787 1.429 . S
C791 C792 1.523 . S
C792 C776 1.368 . S
C792 C788 1.368 . S
C792 C791 1.523 . S
H793 C768 0.950 . S
H794 C770 0.950 . S
H795 C771 0.949 . S
H796 C773 0.950 . S
H797 C775 0.950 . S
C798 C799 1.349 . S
C798 C800 1.327 . S
C798 H823 0.950 . S
C799 C798 1.349 . S
C799 C815 1.349 . S
C800 C798 1.327 . S
C800 C819 1.429 . S
C800 H824 0.950 . S
C801 C818 1.574 . S
C801 C820 1.368 . S
C801 H825 0.949 . S
H802 C806 0.949 . S
C803 C804 1.349 . S
C803 C805 1.327 . S
C803 H826 0.950 . S
C804 C803 1.349 . S
C804 C816 1.349 . S
C805 C803 1.327 . S
C805 C821 1.429 . S
C805 H827 0.950 . S
C806 H802 0.949 . S
C806 C814 1.574 . S
C806 C822 1.368 . S
H807 C815 0.950 . S
H808 C813 0.950 . S
H809 C814 0.949 . S
H810 C816 0.950 . S
H811 C817 0.950 . S
H812 C818 0.949 . S
C813 H808 0.950 . S
C813 C815 1.327 . S
C813 C819 1.429 . S
C814 C806 1.574 . S
C814 H809 0.949 . S
C814 C820 1.368 . S
C815 C799 1.349 . S
C815 H807 0.950 . S
C815 C813 1.327 . S
C816 C804 1.349 . S
C816 H810 0.950 . S
C816 C817 1.327 . S
C817 H811 0.950 . S
C817 C816 1.327 . S
C817 C821 1.429 . S
C818 C801 1.574 . S
C818 H812 0.949 . S
C818 C822 1.368 . S
C819 C800 1.429 . S
C819 C813 1.429 . S
C819 C820 1.523 . S
C820 C801 1.368 . S
C820 C814 1.368 . S
C820 C819 1.523 . S
C821 C805 1.429 . S
C821 C817 1.429 . S
C821 C822 1.523 . S
C822 C806 1.368 . S
C822 C818 1.368 . S
C822 C821 1.523 . S
H823 C798 0.950 . S
H824 C800 0.950 . S
H825 C801 0.949 . S
H826 C803 0.950 . S
H827 C805 0.950 . S
C828 C829 1.349 . S
C828 C830 1.327 . S
C828 H853 0.950 . S
C829 C828 1.349 . S
C829 C845 1.349 . S
C830 C828 1.327 . S
C830 C849 1.429 . S
C830 H854 0.950 . S
C831 C848 1.574 1_556 S
C831 C850 1.368 . S
C831 H855 0.949 . S
H832 C836 0.949 . S
C833 C834 1.349 . S
C833 C835 1.327 . S
C833 H856 0.950 . S
C834 C833 1.349 . S
C834 C846 1.349 . S
C835 C833 1.327 . S
C835 C851 1.429 . S
C835 H857 0.950 . S
C836 H832 0.949 . S
C836 C844 1.574 1_554 S
C836 C852 1.368 . S
H837 C845 0.950 . S
H838 C843 0.950 . S
H839 C844 0.949 . S
H840 C846 0.950 . S
H841 C847 0.950 . S
H842 C848 0.949 . S
C843 H838 0.950 . S
C843 C845 1.327 . S
C843 C849 1.429 . S
C844 C836 1.574 1_556 S
C844 H839 0.949 . S
C844 C850 1.368 . S
C845 C829 1.349 . S
C845 H837 0.950 . S
C845 C843 1.327 . S
C846 C834 1.349 . S
C846 H840 0.950 . S
C846 C847 1.327 . S
C847 H841 0.950 . S
C847 C846 1.327 . S
C847 C851 1.429 . S
C848 C831 1.574 1_554 S
C848 H842 0.949 . S
C848 C852 1.368 . S
C849 C830 1.429 . S
C849 C843 1.429 . S
C849 C850 1.523 . S
C850 C831 1.368 . S
C850 C844 1.368 . S
C850 C849 1.523 . S
C851 C835 1.429 . S
C851 C847 1.429 . S
C851 C852 1.523 . S
C852 C836 1.368 . S
C852 C848 1.368 . S
C852 C851 1.523 . S
H853 C828 0.950 . S
H854 C830 0.950 . S
H855 C831 0.949 . S
H856 C833 0.950 . S
H857 C835 0.950 . S
C858 C859 1.349 . S
C858 C860 1.327 . S
C858 H883 0.950 . S
C859 C858 1.349 . S
C859 C875 1.349 . S
C860 C858 1.327 . S
C860 C879 1.429 . S
C860 H884 0.950 . S
C861 C878 1.574 . S
C861 C880 1.368 . S
C861 H885 0.949 . S
H862 C866 0.949 . S
C863 C864 1.349 . S
C863 C865 1.327 . S
C863 H886 0.950 . S
C864 C863 1.349 . S
C864 C876 1.349 . S
C865 C863 1.327 . S
C865 C881 1.429 . S
C865 H887 0.950 . S
C866 H862 0.949 . S
C866 C874 1.574 . S
C866 C882 1.368 . S
H867 C875 0.950 . S
H868 C873 0.950 . S
H869 C874 0.949 . S
H870 C876 0.950 . S
H871 C877 0.950 . S
H872 C878 0.949 . S
C873 H868 0.950 . S
C873 C875 1.327 . S
C873 C879 1.429 . S
C874 C866 1.574 . S
C874 H869 0.949 . S
C874 C880 1.368 . S
C875 C859 1.349 . S
C875 H867 0.950 . S
C875 C873 1.327 . S
C876 C864 1.349 . S
C876 H870 0.950 . S
C876 C877 1.327 . S
C877 H871 0.950 . S
C877 C876 1.327 . S
C877 C881 1.429 . S
C878 C861 1.574 . S
C878 H872 0.949 . S
C878 C882 1.368 . S
C879 C860 1.429 . S
C879 C873 1.429 . S
C879 C880 1.523 . S
C880 C861 1.368 . S
C880 C874 1.368 . S
C880 C879 1.523 . S
C881 C865 1.429 . S
C881 C877 1.429 . S
C881 C882 1.523 . S
C882 C866 1.368 . S
C882 C878 1.368 . S
C882 C881 1.523 . S
H883 C858 0.950 . S
H884 C860 0.950 . S
H885 C861 0.949 . S
H886 C863 0.950 . S
H887 C865 0.950 . S
C888 C889 1.349 . S
C888 C890 1.327 . S
C888 H913 0.950 . S
C889 C888 1.349 . S
C889 C905 1.349 . S
C890 C888 1.327 . S
C890 C909 1.429 . S
C890 H914 0.950 . S
C891 C908 1.574 1_554 S
C891 C910 1.368 . S
C891 H915 0.949 . S
H892 C896 0.949 . S
C893 C894 1.349 . S
C893 C895 1.327 . S
C893 H916 0.950 . S
C894 C893 1.349 . S
C894 C906 1.349 . S
C895 C893 1.327 . S
C895 C911 1.429 . S
C895 H917 0.950 . S
C896 H892 0.949 . S
C896 C904 1.574 1_556 S
C896 C912 1.368 . S
H897 C905 0.950 . S
H898 C903 0.950 . S
H899 C904 0.949 . S
H900 C906 0.950 . S
H901 C907 0.950 . S
H902 C908 0.949 . S
C903 H898 0.950 . S
C903 C905 1.327 . S
C903 C909 1.429 . S
C904 C896 1.574 1_554 S
C904 H899 0.949 . S
C904 C910 1.368 . S
C905 C889 1.349 . S
C905 H897 0.950 . S
C905 C903 1.327 . S
C906 C894 1.349 . S
C906 H900 0.950 . S
C906 C907 1.327 . S
C907 H901 0.950 . S
C907 C906 1.327 . S
C907 C911 1.429 . S
C908 C891 1.574 1_556 S
C908 H902 0.949 . S
C908 C912 1.368 . S
C909 C890 1.429 . S
C909 C903 1.429 . S
C909 C910 1.523 . S
C910 C891 1.368 . S
C910 C904 1.368 . S
C910 C909 1.523 . S
C911 C895 1.429 . S
C911 C907 1.429 . S
C911 C912 1.523 . S
C912 C896 1.368 . S
C912 C908 1.368 . S
C912 C911 1.523 . S
H913 C888 0.950 . S
H914 C890 0.950 . S
H915 C891 0.949 . S
H916 C893 0.950 . S
H917 C895 0.950 . S
C918 C919 1.349 . S
C918 C920 1.327 . S
C918 H943 0.950 . S
C919 C918 1.349 . S
C919 C935 1.349 . S
C920 C918 1.327 . S
C920 C939 1.429 . S
C920 H944 0.950 . S
C921 C938 1.574 . S
C921 C940 1.368 . S
C921 H945 0.949 . S
H922 C926 0.949 . S
C923 C924 1.349 . S
C923 C925 1.327 . S
C923 H946 0.950 . S
C924 C923 1.349 . S
C924 C936 1.349 . S
C925 C923 1.327 . S
C925 C941 1.429 . S
C925 H947 0.950 . S
C926 H922 0.949 . S
C926 C934 1.574 . S
C926 C942 1.368 . S
H927 C935 0.950 . S
H928 C933 0.950 . S
H929 C934 0.949 . S
H930 C936 0.950 . S
H931 C937 0.950 . S
H932 C938 0.949 . S
C933 H928 0.950 . S
C933 C935 1.327 . S
C933 C939 1.429 . S
C934 C926 1.574 . S
C934 H929 0.949 . S
C934 C940 1.368 . S
C935 C919 1.349 . S
C935 H927 0.950 . S
C935 C933 1.327 . S
C936 C924 1.349 . S
C936 H930 0.950 . S
C936 C937 1.327 . S
C937 H931 0.950 . S
C937 C936 1.327 . S
C937 C941 1.429 . S
C938 C921 1.574 . S
C938 H932 0.949 . S
C938 C942 1.368 . S
C939 C920 1.429 . S
C939 C933 1.429 . S
C939 C940 1.523 . S
C940 C921 1.368 . S
C940 C934 1.368 . S
C940 C939 1.523 . S
C941 C925 1.429 . S
C941 C937 1.429 . S
C941 C942 1.523 . S
C942 C926 1.368 . S
C942 C938 1.368 . S
C942 C941 1.523 . S
H943 C918 0.950 . S
H944 C920 0.950 . S
H945 C921 0.949 . S
H946 C923 0.950 . S
H947 C925 0.950 . S
C948 C949 1.349 . S
C948 C950 1.327 . S
C948 H973 0.950 . S
C949 C948 1.349 . S
C949 C965 1.349 . S
C950 C948 1.327 . S
C950 C969 1.429 . S
C950 H974 0.950 . S
C951 C968 1.574 1_554 S
C951 C970 1.368 . S
C951 H975 0.949 . S
H952 C956 0.949 . S
C953 C954 1.349 . S
C953 C955 1.327 . S
C953 H976 0.950 . S
C954 C953 1.349 . S
C954 C966 1.349 . S
C955 C953 1.327 . S
C955 C971 1.429 . S
C955 H977 0.950 . S
C956 H952 0.949 . S
C956 C964 1.574 1_556 S
C956 C972 1.368 . S
H957 C965 0.950 . S
H958 C963 0.950 . S
H959 C964 0.949 . S
H960 C966 0.950 . S
H961 C967 0.950 . S
H962 C968 0.949 . S
C963 H958 0.950 . S
C963 C965 1.327 . S
C963 C969 1.429 . S
C964 C956 1.574 1_554 S
C964 H959 0.949 . S
C964 C970 1.368 . S
C965 C949 1.349 . S
C965 H957 0.950 . S
C965 C963 1.327 . S
C966 C954 1.349 . S
C966 H960 0.950 . S
C966 C967 1.327 . S
C967 H961 0.950 . S
C967 C966 1.327 . S
C967 C971 1.429 . S
C968 C951 1.574 1_556 S
C968 H962 0.949 . S
C968 C972 1.368 . S
C969 C950 1.429 . S
C969 C963 1.429 . S
C969 C970 1.523 . S
C970 C951 1.368 . S
C970 C964 1.368 . S
C970 C969 1.523 . S
C971 C955 1.429 . S
C971 C967 1.429 . S
C971 C972 1.523 . S
C972 C956 1.368 . S
C972 C968 1.368 . S
C972 C971 1.523 . S
H973 C948 0.950 . S
H974 C950 0.950 . S
H975 C951 0.949 . S
H976 C953 0.950 . S
H977 C955 0.950 . S
C978 C979 1.349 . S
C978 C980 1.327 . S
C978 H1003 0.950 . S
C979 C978 1.349 . S
C979 C995 1.349 . S
C980 C978 1.327 . S
C980 C999 1.429 . S
C980 H1004 0.950 . S
C981 C998 1.574 . S
C981 C1000 1.368 . S
C981 H1005 0.949 . S
H982 C986 0.949 . S
C983 C984 1.349 . S
C983 C985 1.327 . S
C983 H1006 0.950 . S
C984 C983 1.349 . S
C984 C996 1.349 . S
C985 C983 1.327 . S
C985 C1001 1.429 . S
C985 H1007 0.950 . S
C986 H982 0.949 . S
C986 C994 1.574 . S
C986 C1002 1.368 . S
H987 C995 0.950 . S
H988 C993 0.950 . S
H989 C994 0.949 . S
H990 C996 0.950 . S
H991 C997 0.950 . S
H992 C998 0.949 . S
C993 H988 0.950 . S
C993 C995 1.327 . S
C993 C999 1.429 . S
C994 C986 1.574 . S
C994 H989 0.949 . S
C994 C1000 1.368 . S
C995 C979 1.349 . S
C995 H987 0.950 . S
C995 C993 1.327 . S
C996 C984 1.349 . S
C996 H990 0.950 . S
C996 C997 1.327 . S
C997 H991 0.950 . S
C997 C996 1.327 . S
C997 C1001 1.429 . S
C998 C981 1.574 . S
C998 H992 0.949 . S
C998 C1002 1.368 . S
C999 C980 1.429 . S
C999 C993 1.429 . S
C999 C1000 1.523 . S
C1000 C981 1.368 . S
C1000 C994 1.368 . S
C1000 C999 1.523 . S
C1001 C985 1.429 . S
C1001 C997 1.429 . S
C1001 C1002 1.523 . S
C1002 C986 1.368 . S
C1002 C998 1.368 . S
C1002 C1001 1.523 . S
H1003 C978 0.950 . S
H1004 C980 0.950 . S
H1005 C981 0.949 . S
H1006 C983 0.950 . S
H1007 C985 0.950 . S
C1008 C1009 1.349 . S
C1008 C1010 1.327 . S
C1008 H1033 0.950 . S
C1009 C1008 1.349 . S
C1009 C1025 1.349 . S
C1010 C1008 1.327 . S
C1010 C1029 1.429 . S
C1010 H1034 0.950 . S
C1011 C1028 1.574 . S
C1011 C1030 1.368 . S
C1011 H1035 0.949 . S
H1012 C1016 0.949 . S
C1013 C1014 1.349 . S
C1013 C1015 1.327 . S
C1013 H1036 0.950 . S
C1014 C1013 1.349 . S
C1014 C1026 1.349 . S
C1015 C1013 1.327 . S
C1015 C1031 1.429 . S
C1015 H1037 0.950 . S
C1016 H1012 0.949 . S
C1016 C1024 1.574 . S
C1016 C1032 1.368 . S
H1017 C1025 0.950 . S
H1018 C1023 0.950 . S
H1019 C1024 0.949 . S
H1020 C1026 0.950 . S
H1021 C1027 0.950 . S
H1022 C1028 0.949 . S
C1023 H1018 0.950 . S
C1023 C1025 1.327 . S
C1023 C1029 1.429 . S
C1024 C1016 1.574 . S
C1024 H1019 0.949 . S
C1024 C1030 1.368 . S
C1025 C1009 1.349 . S
C1025 H1017 0.950 . S
C1025 C1023 1.327 . S
C1026 C1014 1.349 . S
C1026 H1020 0.950 . S
C1026 C1027 1.327 . S
C1027 H1021 0.950 . S
C1027 C1026 1.327 . S
C1027 C1031 1.429 . S
C1028 C1011 1.574 . S
C1028 H1022 0.949 . S
C1028 C1032 1.368 . S
C1029 C1010 1.429 . S
C1029 C1023 1.429 . S
C1029 C1030 1.523 . S
C1030 C1011 1.368 . S
C1030 C1024 1.368 . S
C1030 C1029 1.523 . S
C1031 C1015 1.429 . S
C1031 C1027 1.429 . S
C1031 C1032 1.523 . S
C1032 C1016 1.368 . S
C1032 C1028 1.368 . S
C1032 C1031 1.523 . S
H1033 C1008 0.950 . S
H1034 C1010 0.950 . S
H1035 C1011 0.949 . S
H1036 C1013 0.950 . S
H1037 C1015 0.950 . S
C1038 C1039 1.349 . S
C1038 C1040 1.327 . S
C1038 H1063 0.950 . S
C1039 C1038 1.349 . S
C1039 C1055 1.349 . S
C1040 C1038 1.327 . S
C1040 C1059 1.429 . S
C1040 H1064 0.950 . S
C1041 C1058 1.574 . S
C1041 C1060 1.368 . S
C1041 H1065 0.949 . S
H1042 C1046 0.949 . S
C1043 C1044 1.349 . S
C1043 C1045 1.327 . S
C1043 H1066 0.950 . S
C1044 C1043 1.349 . S
C1044 C1056 1.349 . S
C1045 C1043 1.327 . S
C1045 C1061 1.429 . S
C1045 H1067 0.950 . S
C1046 H1042 0.949 . S
C1046 C1054 1.574 . S
C1046 C1062 1.368 . S
H1047 C1055 0.950 . S
H1048 C1053 0.950 . S
H1049 C1054 0.949 . S
H1050 C1056 0.950 . S
H1051 C1057 0.950 . S
H1052 C1058 0.949 . S
C1053 H1048 0.950 . S
C1053 C1055 1.327 . S
C1053 C1059 1.429 . S
C1054 C1046 1.574 . S
C1054 H1049 0.949 . S
C1054 C1060 1.368 . S
C1055 C1039 1.349 . S
C1055 H1047 0.950 . S
C1055 C1053 1.327 . S
C1056 C1044 1.349 . S
C1056 H1050 0.950 . S
C1056 C1057 1.327 . S
C1057 H1051 0.950 . S
C1057 C1056 1.327 . S
C1057 C1061 1.429 . S
C1058 C1041 1.574 . S
C1058 H1052 0.949 . S
C1058 C1062 1.368 . S
C1059 C1040 1.429 . S
C1059 C1053 1.429 . S
C1059 C1060 1.523 . S
C1060 C1041 1.368 . S
C1060 C1054 1.368 . S
C1060 C1059 1.523 . S
C1061 C1045 1.429 . S
C1061 C1057 1.429 . S
C1061 C1062 1.523 . S
C1062 C1046 1.368 . S
C1062 C1058 1.368 . S
C1062 C1061 1.523 . S
H1063 C1038 0.950 . S
H1064 C1040 0.950 . S
H1065 C1041 0.949 . S
H1066 C1043 0.950 . S
H1067 C1045 0.950 . S
C1068 C1069 1.349 . S
C1068 C1070 1.327 . S
C1068 H1093 0.950 . S
C1069 C1068 1.349 . S
C1069 C1085 1.349 . S
C1070 C1068 1.327 . S
C1070 C1089 1.429 . S
C1070 H1094 0.950 . S
C1071 C1088 1.574 . S
C1071 C1090 1.368 . S
C1071 H1095 0.949 . S
H1072 C1076 0.949 . S
C1073 C1074 1.349 . S
C1073 C1075 1.327 . S
C1073 H1096 0.950 . S
C1074 C1073 1.349 . S
C1074 C1086 1.349 . S
C1075 C1073 1.327 . S
C1075 C1091 1.429 . S
C1075 H1097 0.950 . S
C1076 H1072 0.949 . S
C1076 C1084 1.574 . S
C1076 C1092 1.368 . S
H1077 C1085 0.950 . S
H1078 C1083 0.950 . S
H1079 C1084 0.949 . S
H1080 C1086 0.950 . S
H1081 C1087 0.950 . S
H1082 C1088 0.949 . S
C1083 H1078 0.950 . S
C1083 C1085 1.327 . S
C1083 C1089 1.429 . S
C1084 C1076 1.574 . S
C1084 H1079 0.949 . S
C1084 C1090 1.368 . S
C1085 C1069 1.349 . S
C1085 H1077 0.950 . S
C1085 C1083 1.327 . S
C1086 C1074 1.349 . S
C1086 H1080 0.950 . S
C1086 C1087 1.327 . S
C1087 H1081 0.950 . S
C1087 C1086 1.327 . S
C1087 C1091 1.429 . S
C1088 C1071 1.574 . S
C1088 H1082 0.949 . S
C1088 C1092 1.368 . S
C1089 C1070 1.429 . S
C1089 C1083 1.429 . S
C1089 C1090 1.523 . S
C1090 C1071 1.368 . S
C1090 C1084 1.368 . S
C1090 C1089 1.523 . S
C1091 C1075 1.429 . S
C1091 C1087 1.429 . S
C1091 C1092 1.523 . S
C1092 C1076 1.368 . S
C1092 C1088 1.368 . S
C1092 C1091 1.523 . S
H1093 C1068 0.950 . S
H1094 C1070 0.950 . S
H1095 C1071 0.949 . S
H1096 C1073 0.950 . S
H1097 C1075 0.950 . S
C1098 C1099 1.349 . S
C1098 C1100 1.327 . S
C1098 H1123 0.950 . S
C1099 C1098 1.349 . S
C1099 C1115 1.349 . S
C1100 C1098 1.327 . S
C1100 C1119 1.429 . S
C1100 H1124 0.950 . S
C1101 C1118 1.574 . S
C1101 C1120 1.368 . S
C1101 H1125 0.949 . S
H1102 C1106 0.949 . S
C1103 C1104 1.349 . S
C1103 C1105 1.327 . S
C1103 H1126 0.950 . S
C1104 C1103 1.349 . S
C1104 C1116 1.349 . S
C1105 C1103 1.327 . S
C1105 C1121 1.429 . S
C1105 H1127 0.950 . S
C1106 H1102 0.949 . S
C1106 C1114 1.574 . S
C1106 C1122 1.368 . S
H1107 C1115 0.950 . S
H1108 C1113 0.950 . S
H1109 C1114 0.949 . S
H1110 C1116 0.950 . S
H1111 C1117 0.950 . S
H1112 C1118 0.949 . S
C1113 H1108 0.950 . S
C1113 C1115 1.327 . S
C1113 C1119 1.429 . S
C1114 C1106 1.574 . S
C1114 H1109 0.949 . S
C1114 C1120 1.368 . S
C1115 C1099 1.349 . S
C1115 H1107 0.950 . S
C1115 C1113 1.327 . S
C1116 C1104 1.349 . S
C1116 H1110 0.950 . S
C1116 C1117 1.327 . S
C1117 H1111 0.950 . S
C1117 C1116 1.327 . S
C1117 C1121 1.429 . S
C1118 C1101 1.574 . S
C1118 H1112 0.949 . S
C1118 C1122 1.368 . S
C1119 C1100 1.429 . S
C1119 C1113 1.429 . S
C1119 C1120 1.523 . S
C1120 C1101 1.368 . S
C1120 C1114 1.368 . S
C1120 C1119 1.523 . S
C1121 C1105 1.429 . S
C1121 C1117 1.429 . S
C1121 C1122 1.523 . S
C1122 C1106 1.368 . S
C1122 C1118 1.368 . S
C1122 C1121 1.523 . S
H1123 C1098 0.950 . S
H1124 C1100 0.950 . S
H1125 C1101 0.949 . S
H1126 C1103 0.950 . S
H1127 C1105 0.950 . S
C1128 C1129 1.349 . S
C1128 C1130 1.327 . S
C1128 H1153 0.950 . S
C1129 C1128 1.349 . S
C1129 C1145 1.349 . S
C1130 C1128 1.327 . S
C1130 C1149 1.429 . S
C1130 H1154 0.950 . S
C1131 C1148 1.574 . S
C1131 C1150 1.368 . S
C1131 H1155 0.949 . S
H1132 C1136 0.949 . S
C1133 C1134 1.349 . S
C1133 C1135 1.327 . S
C1133 H1156 0.950 . S
C1134 C1133 1.349 . S
C1134 C1146 1.349 . S
C1135 C1133 1.327 . S
C1135 C1151 1.429 . S
C1135 H1157 0.950 . S
C1136 H1132 0.949 . S
C1136 C1144 1.574 . S
C1136 C1152 1.368 . S
H1137 C1145 0.950 . S
H1138 C1143 0.950 . S
H1139 C1144 0.949 . S
H1140 C1146 0.950 . S
H1141 C1147 0.950 . S
H1142 C1148 0.949 . S
C1143 H1138 0.950 . S
C1143 C1145 1.327 . S
C1143 C1149 1.429 . S
C1144 C1136 1.574 . S
C1144 H1139 0.949 . S
C1144 C1150 1.368 . S
C1145 C1129 1.349 . S
C1145 H1137 0.950 . S
C1145 C1143 1.327 . S
C1146 C1134 1.349 . S
C1146 H1140 0.950 . S
C1146 C1147 1.327 . S
C1147 H1141 0.950 . S
C1147 C1146 1.327 . S
C1147 C1151 1.429 . S
C1148 C1131 1.574 . S
C1148 H1142 0.949 . S
C1148 C1152 1.368 . S
C1149 C1130 1.429 . S
C1149 C1143 1.429 . S
C1149 C1150 1.523 . S
C1150 C1131 1.368 . S
C1150 C1144 1.368 . S
C1150 C1149 1.523 . S
C1151 C1135 1.429 . S
C1151 C1147 1.429 . S
C1151 C1152 1.523 . S
C1152 C1136 1.368 . S
C1152 C1148 1.368 . S
C1152 C1151 1.523 . S
H1153 C1128 0.950 . S
H1154 C1130 0.950 . S
H1155 C1131 0.949 . S
H1156 C1133 0.950 . S
H1157 C1135 0.950 . S
C1158 C1159 1.349 . S
C1158 C1160 1.327 . S
C1158 H1183 0.950 . S
C1159 C1158 1.349 . S
C1159 C1175 1.349 . S
C1160 C1158 1.327 . S
C1160 C1179 1.429 . S
C1160 H1184 0.950 . S
C1161 C1178 1.574 . S
C1161 C1180 1.368 . S
C1161 H1185 0.949 . S
H1162 C1166 0.949 . S
C1163 C1164 1.349 . S
C1163 C1165 1.327 . S
C1163 H1186 0.950 . S
C1164 C1163 1.349 . S
C1164 C1176 1.349 . S
C1165 C1163 1.327 . S
C1165 C1181 1.429 . S
C1165 H1187 0.950 . S
C1166 H1162 0.949 . S
C1166 C1174 1.574 . S
C1166 C1182 1.368 . S
H1167 C1175 0.950 . S
H1168 C1173 0.950 . S
H1169 C1174 0.949 . S
H1170 C1176 0.950 . S
H1171 C1177 0.950 . S
H1172 C1178 0.949 . S
C1173 H1168 0.950 . S
C1173 C1175 1.327 . S
C1173 C1179 1.429 . S
C1174 C1166 1.574 . S
C1174 H1169 0.949 . S
C1174 C1180 1.368 . S
C1175 C1159 1.349 . S
C1175 H1167 0.950 . S
C1175 C1173 1.327 . S
C1176 C1164 1.349 . S
C1176 H1170 0.950 . S
C1176 C1177 1.327 . S
C1177 H1171 0.950 . S
C1177 C1176 1.327 . S
C1177 C1181 1.429 . S
C1178 C1161 1.574 . S
C1178 H1172 0.949 . S
C1178 C1182 1.368 . S
C1179 C1160 1.429 . S
C1179 C1173 1.429 . S
C1179 C1180 1.523 . S
C1180 C1161 1.368 . S
C1180 C1174 1.368 . S
C1180 C1179 1.523 . S
C1181 C1165 1.429 . S
C1181 C1177 1.429 . S
C1181 C1182 1.523 . S
C1182 C1166 1.368 . S
C1182 C1178 1.368 . S
C1182 C1181 1.523 . S
H1183 C1158 0.950 . S
H1184 C1160 0.950 . S
H1185 C1161 0.949 . S
H1186 C1163 0.950 . S
H1187 C1165 0.950 . S
C1188 C1189 1.349 . S
C1188 C1190 1.327 . S
C1188 H1213 0.950 . S
C1189 C1188 1.349 . S
C1189 C1205 1.349 . S
C1190 C1188 1.327 . S
C1190 C1209 1.429 . S
C1190 H1214 0.950 . S
C1191 C1208 1.574 . S
C1191 C1210 1.368 . S
C1191 H1215 0.949 . S
H1192 C1196 0.949 . S
C1193 C1194 1.349 . S
C1193 C1195 1.327 . S
C1193 H1216 0.950 . S
C1194 C1193 1.349 . S
C1194 C1206 1.349 . S
C1195 C1193 1.327 . S
C1195 C1211 1.429 . S
C1195 H1217 0.950 . S
C1196 H1192 0.949 . S
C1196 C1204 1.574 . S
C1196 C1212 1.368 . S
H1197 C1205 0.950 . S
H1198 C1203 0.950 . S
H1199 C1204 0.949 . S
H1200 C1206 0.950 . S
H1201 C1207 0.950 . S
H1202 C1208 0.949 . S
C1203 H1198 0.950 . S
C1203 C1205 1.327 . S
C1203 C1209 1.429 . S
C1204 C1196 1.574 . S
C1204 H1199 0.949 . S
C1204 C1210 1.368 . S
C1205 C1189 1.349 . S
C1205 H1197 0.950 . S
C1205 C1203 1.327 . S
C1206 C1194 1.349 . S
C1206 H1200 0.950 . S
C1206 C1207 1.327 . S
C1207 H1201 0.950 . S
C1207 C1206 1.327 . S
C1207 C1211 1.429 . S
C1208 C1191 1.574 . S
C1208 H1202 0.949 . S
C1208 C1212 1.368 . S
C1209 C1190 1.429 . S
C1209 C1203 1.429 . S
C1209 C1210 1.523 . S
C1210 C1191 1.368 . S
C1210 C1204 1.368 . S
C1210 C1209 1.523 . S
C1211 C1195 1.429 . S
C1211 C1207 1.429 . S
C1211 C1212 1.523 . S
C1212 C1196 1.368 . S
C1212 C1208 1.368 . S
C1212 C1211 1.523 . S
H1213 C1188 0.950 . S
H1214 C1190 0.950 . S
H1215 C1191 0.949 . S
H1216 C1193 0.950 . S
H1217 C1195 0.950 . S
C1218 C1219 1.349 . S
C1218 C1220 1.327 . S
C1218 H1243 0.950 . S
C1219 C1218 1.349 . S
C1219 C1235 1.349 . S
C1220 C1218 1.327 . S
C1220 C1239 1.429 . S
C1220 H1244 0.950 . S
C1221 C1238 1.574 . S
C1221 C1240 1.368 . S
C1221 H1245 0.949 . S
H1222 C1226 0.949 . S
C1223 C1224 1.349 . S
C1223 C1225 1.327 . S
C1223 H1246 0.950 . S
C1224 C1223 1.349 . S
C1224 C1236 1.349 . S
C1225 C1223 1.327 . S
C1225 C1241 1.429 . S
C1225 H1247 0.950 . S
C1226 H1222 0.949 . S
C1226 C1234 1.574 . S
C1226 C1242 1.368 . S
H1227 C1235 0.950 . S
H1228 C1233 0.950 . S
H1229 C1234 0.949 . S
H1230 C1236 0.950 . S
H1231 C1237 0.950 . S
H1232 C1238 0.949 . S
C1233 H1228 0.950 . S
C1233 C1235 1.327 . S
C1233 C1239 1.429 . S
C1234 C1226 1.574 . S
C1234 H1229 0.949 . S
C1234 C1240 1.368 . S
C1235 C1219 1.349 . S
C1235 H1227 0.950 . S
C1235 C1233 1.327 . S
C1236 C1224 1.349 . S
C1236 H1230 0.950 . S
C1236 C1237 1.327 . S
C1237 H1231 0.950 . S
C1237 C1236 1.327 . S
C1237 C1241 1.429 . S
C1238 C1221 1.574 . S
C1238 H1232 0.949 . S
C1238 C1242 1.368 . S
C1239 C1220 1.429 . S
C1239 C1233 1.429 . S
C1239 C1240 1.523 . S
C1240 C1221 1.368 . S
C1240 C1234 1.368 . S
C1240 C1239 1.523 . S
C1241 C1225 1.429 . S
C1241 C1237 1.429 . S
C1241 C1242 1.523 . S
C1242 C1226 1.368 . S
C1242 C1238 1.368 . S
C1242 C1241 1.523 . S
H1243 C1218 0.950 . S
H1244 C1220 0.950 . S
H1245 C1221 0.949 . S
H1246 C1223 0.950 . S
H1247 C1225 0.950 . S
C1248 C1249 1.349 . S
C1248 C1250 1.327 . S
C1248 H1273 0.950 . S
C1249 C1248 1.349 . S
C1249 C1265 1.349 . S
C1250 C1248 1.327 . S
C1250 C1269 1.429 . S
C1250 H1274 0.950 . S
C1251 C1268 1.574 . S
C1251 C1270 1.368 . S
C1251 H1275 0.949 . S
H1252 C1256 0.949 . S
C1253 C1254 1.349 . S
C1253 C1255 1.327 . S
C1253 H1276 0.950 . S
C1254 C1253 1.349 . S
C1254 C1266 1.349 . S
C1255 C1253 1.327 . S
C1255 C1271 1.429 . S
C1255 H1277 0.950 . S
C1256 H1252 0.949 . S
C1256 C1264 1.574 . S
C1256 C1272 1.368 . S
H1257 C1265 0.950 . S
H1258 C1263 0.950 . S
H1259 C1264 0.949 . S
H1260 C1266 0.950 . S
H1261 C1267 0.950 . S
H1262 C1268 0.949 . S
C1263 H1258 0.950 . S
C1263 C1265 1.327 . S
C1263 C1269 1.429 . S
C1264 C1256 1.574 . S
C1264 H1259 0.949 . S
C1264 C1270 1.368 . S
C1265 C1249 1.349 . S
C1265 H1257 0.950 . S
C1265 C1263 1.327 . S
C1266 C1254 1.349 . S
C1266 H1260 0.950 . S
C1266 C1267 1.327 . S
C1267 H1261 0.950 . S
C1267 C1266 1.327 . S
C1267 C1271 1.429 . S
C1268 C1251 1.574 . S
C1268 H1262 0.949 . S
C1268 C1272 1.368 . S
C1269 C1250 1.429 . S
C1269 C1263 1.429 . S
C1269 C1270 1.523 . S
C1270 C1251 1.368 . S
C1270 C1264 1.368 . S
C1270 C1269 1.523 . S
C1271 C1255 1.429 . S
C1271 C1267 1.429 . S
C1271 C1272 1.523 . S
C1272 C1256 1.368 . S
C1272 C1268 1.368 . S
C1272 C1271 1.523 . S
H1273 C1248 0.950 . S
H1274 C1250 0.950 . S
H1275 C1251 0.949 . S
H1276 C1253 0.950 . S
H1277 C1255 0.950 . S
C1278 C1279 1.349 . S
C1278 C1280 1.327 . S
C1278 H1303 0.950 . S
C1279 C1278 1.349 . S
C1279 C1295 1.349 . S
C1280 C1278 1.327 . S
C1280 C1299 1.429 . S
C1280 H1304 0.950 . S
C1281 C1298 1.574 . S
C1281 C1300 1.368 . S
C1281 H1305 0.949 . S
H1282 C1286 0.949 . S
C1283 C1284 1.349 . S
C1283 C1285 1.327 . S
C1283 H1306 0.950 . S
C1284 C1283 1.349 . S
C1284 C1296 1.349 . S
C1285 C1283 1.327 . S
C1285 C1301 1.429 . S
C1285 H1307 0.950 . S
C1286 H1282 0.949 . S
C1286 C1294 1.574 . S
C1286 C1302 1.368 . S
H1287 C1295 0.950 . S
H1288 C1293 0.950 . S
H1289 C1294 0.949 . S
H1290 C1296 0.950 . S
H1291 C1297 0.950 . S
H1292 C1298 0.949 . S
C1293 H1288 0.950 . S
C1293 C1295 1.327 . S
C1293 C1299 1.429 . S
C1294 C1286 1.574 . S
C1294 H1289 0.949 . S
C1294 C1300 1.368 . S
C1295 C1279 1.349 . S
C1295 H1287 0.950 . S
C1295 C1293 1.327 . S
C1296 C1284 1.349 . S
C1296 H1290 0.950 . S
C1296 C1297 1.327 . S
C1297 H1291 0.950 . S
C1297 C1296 1.327 . S
C1297 C1301 1.429 . S
C1298 C1281 1.574 . S
C1298 H1292 0.949 . S
C1298 C1302 1.368 . S
C1299 C1280 1.429 . S
C1299 C1293 1.429 . S
C1299 C1300 1.523 . S
C1300 C1281 1.368 . S
C1300 C1294 1.368 . S
C1300 C1299 1.523 . S
C1301 C1285 1.429 . S
C1301 C1297 1.429 . S
C1301 C1302 1.523 . S
C1302 C1286 1.368 . S
C1302 C1298 1.368 . S
C1302 C1301 1.523 . S
H1303 C1278 0.950 . S
H1304 C1280 0.950 . S
H1305 C1281 0.949 . S
H1306 C1283 0.950 . S
H1307 C1285 0.950 . S
C1308 C1309 1.349 . S
C1308 C1310 1.327 . S
C1308 H1333 0.950 . S
C1309 C1308 1.349 . S
C1309 C1325 1.349 . S
C1310 C1308 1.327 . S
C1310 C1329 1.429 . S
C1310 H1334 0.950 . S
C1311 C1328 1.574 . S
C1311 C1330 1.368 . S
C1311 H1335 0.949 . S
H1312 C1316 0.949 . S
C1313 C1314 1.349 . S
C1313 C1315 1.327 . S
C1313 H1336 0.950 . S
C1314 C1313 1.349 . S
C1314 C1326 1.349 . S
C1315 C1313 1.327 . S
C1315 C1331 1.429 . S
C1315 H1337 0.950 . S
C1316 H1312 0.949 . S
C1316 C1324 1.574 . S
C1316 C1332 1.368 . S
H1317 C1325 0.950 . S
H1318 C1323 0.950 . S
H1319 C1324 0.949 . S
H1320 C1326 0.950 . S
H1321 C1327 0.950 . S
H1322 C1328 0.949 . S
C1323 H1318 0.950 . S
C1323 C1325 1.327 . S
C1323 C1329 1.429 . S
C1324 C1316 1.574 . S
C1324 H1319 0.949 . S
C1324 C1330 1.368 . S
C1325 C1309 1.349 . S
C1325 H1317 0.950 . S
C1325 C1323 1.327 . S
C1326 C1314 1.349 . S
C1326 H1320 0.950 . S
C1326 C1327 1.327 . S
C1327 H1321 0.950 . S
C1327 C1326 1.327 . S
C1327 C1331 1.429 . S
C1328 C1311 1.574 . S
C1328 H1322 0.949 . S
C1328 C1332 1.368 . S
C1329 C1310 1.429 . S
C1329 C1323 1.429 . S
C1329 C1330 1.523 . S
C1330 C1311 1.368 . S
C1330 C1324 1.368 . S
C1330 C1329 1.523 . S
C1331 C1315 1.429 . S
C1331 C1327 1.429 . S
C1331 C1332 1.523 . S
C1332 C1316 1.368 . S
C1332 C1328 1.368 . S
C1332 C1331 1.523 . S
H1333 C1308 0.950 . S
H1334 C1310 0.950 . S
H1335 C1311 0.949 . S
H1336 C1313 0.950 . S
H1337 C1315 0.950 . S
C1338 C1339 1.349 . S
C1338 C1340 1.327 . S
C1338 H1363 0.950 . S
C1339 C1338 1.349 . S
C1339 C1355 1.349 . S
C1340 C1338 1.327 . S
C1340 C1359 1.429 . S
C1340 H1364 0.950 . S
C1341 C1358 1.574 . S
C1341 C1360 1.368 . S
C1341 H1365 0.949 . S
H1342 C1346 0.949 . S
C1343 C1344 1.349 . S
C1343 C1345 1.327 . S
C1343 H1366 0.950 . S
C1344 C1343 1.349 . S
C1344 C1356 1.349 . S
C1345 C1343 1.327 . S
C1345 C1361 1.429 . S
C1345 H1367 0.950 . S
C1346 H1342 0.949 . S
C1346 C1354 1.574 . S
C1346 C1362 1.368 . S
H1347 C1355 0.950 . S
H1348 C1353 0.950 . S
H1349 C1354 0.949 . S
H1350 C1356 0.950 . S
H1351 C1357 0.950 . S
H1352 C1358 0.949 . S
C1353 H1348 0.950 . S
C1353 C1355 1.327 . S
C1353 C1359 1.429 . S
C1354 C1346 1.574 . S
C1354 H1349 0.949 . S
C1354 C1360 1.368 . S
C1355 C1339 1.349 . S
C1355 H1347 0.950 . S
C1355 C1353 1.327 . S
C1356 C1344 1.349 . S
C1356 H1350 0.950 . S
C1356 C1357 1.327 . S
C1357 H1351 0.950 . S
C1357 C1356 1.327 . S
C1357 C1361 1.429 . S
C1358 C1341 1.574 . S
C1358 H1352 0.949 . S
C1358 C1362 1.368 . S
C1359 C1340 1.429 . S
C1359 C1353 1.429 . S
C1359 C1360 1.523 . S
C1360 C1341 1.368 . S
C1360 C1354 1.368 . S
C1360 C1359 1.523 . S
C1361 C1345 1.429 . S
C1361 C1357 1.429 . S
C1361 C1362 1.523 . S
C1362 C1346 1.368 . S
C1362 C1358 1.368 . S
C1362 C1361 1.523 . S
H1363 C1338 0.950 . S
H1364 C1340 0.950 . S
H1365 C1341 0.949 . S
H1366 C1343 0.950 . S
H1367 C1345 0.950 . S
C1368 C1369 1.349 . S
C1368 C1370 1.327 . S
C1368 H1393 0.950 . S
C1369 C1368 1.349 . S
C1369 C1385 1.349 . S
C1370 C1368 1.327 . S
C1370 C1389 1.429 . S
C1370 H1394 0.950 . S
C1371 C1388 1.574 . S
C1371 C1390 1.368 . S
C1371 H1395 0.949 . S
H1372 C1376 0.949 . S
C1373 C1374 1.349 . S
C1373 C1375 1.327 . S
C1373 H1396 0.950 . S
C1374 C1373 1.349 . S
C1374 C1386 1.349 . S
C1375 C1373 1.327 . S
C1375 C1391 1.429 . S
C1375 H1397 0.950 . S
C1376 H1372 0.949 . S
C1376 C1384 1.574 . S
C1376 C1392 1.368 . S
H1377 C1385 0.950 . S
H1378 C1383 0.950 . S
H1379 C1384 0.949 . S
H1380 C1386 0.950 . S
H1381 C1387 0.950 . S
H1382 C1388 0.949 . S
C1383 H1378 0.950 . S
C1383 C1385 1.327 . S
C1383 C1389 1.429 . S
C1384 C1376 1.574 . S
C1384 H1379 0.949 . S
C1384 C1390 1.368 . S
C1385 C1369 1.349 . S
C1385 H1377 0.950 . S
C1385 C1383 1.327 . S
C1386 C1374 1.349 . S
C1386 H1380 0.950 . S
C1386 C1387 1.327 . S
C1387 H1381 0.950 . S
C1387 C1386 1.327 . S
C1387 C1391 1.429 . S
C1388 C1371 1.574 . S
C1388 H1382 0.949 . S
C1388 C1392 1.368 . S
C1389 C1370 1.429 . S
C1389 C1383 1.429 . S
C1389 C1390 1.523 . S
C1390 C1371 1.368 . S
C1390 C1384 1.368 . S
C1390 C1389 1.523 . S
C1391 C1375 1.429 . S
C1391 C1387 1.429 . S
C1391 C1392 1.523 . S
C1392 C1376 1.368 . S
C1392 C1388 1.368 . S
C1392 C1391 1.523 . S
H1393 C1368 0.950 . S
H1394 C1370 0.950 . S
H1395 C1371 0.949 . S
H1396 C1373 0.950 . S
H1397 C1375 0.950 . S
C1398 C1399 1.349 . S
C1398 C1400 1.327 . S
C1398 H1423 0.950 . S
C1399 C1398 1.349 . S
C1399 C1415 1.349 . S
C1400 C1398 1.327 . S
C1400 C1419 1.429 . S
C1400 H1424 0.950 . S
C1401 C1418 1.574 . S
C1401 C1420 1.368 . S
C1401 H1425 0.949 . S
H1402 C1406 0.949 . S
C1403 C1404 1.349 . S
C1403 C1405 1.327 . S
C1403 H1426 0.950 . S
C1404 C1403 1.349 . S
C1404 C1416 1.349 . S
C1405 C1403 1.327 . S
C1405 C1421 1.429 . S
C1405 H1427 0.950 . S
C1406 H1402 0.949 . S
C1406 C1414 1.574 . S
C1406 C1422 1.368 . S
H1407 C1415 0.950 . S
H1408 C1413 0.950 . S
H1409 C1414 0.949 . S
H1410 C1416 0.950 . S
H1411 C1417 0.950 . S
H1412 C1418 0.949 . S
C1413 H1408 0.950 . S
C1413 C1415 1.327 . S
C1413 C1419 1.429 . S
C1414 C1406 1.574 . S
C1414 H1409 0.949 . S
C1414 C1420 1.368 . S
C1415 C1399 1.349 . S
C1415 H1407 0.950 . S
C1415 C1413 1.327 . S
C1416 C1404 1.349 . S
C1416 H1410 0.950 . S
C1416 C1417 1.327 . S
C1417 H1411 0.950 . S
C1417 C1416 1.327 . S
C1417 C1421 1.429 . S
C1418 C1401 1.574 . S
C1418 H1412 0.949 . S
C1418 C1422 1.368 . S
C1419 C1400 1.429 . S
C1419 C1413 1.429 . S
C1419 C1420 1.523 . S
C1420 C1401 1.368 . S
C1420 C1414 1.368 . S
C1420 C1419 1.523 . S
C1421 C1405 1.429 . S
C1421 C1417 1.429 . S
C1421 C1422 1.523 . S
C1422 C1406 1.368 . S
C1422 C1418 1.368 . S
C1422 C1421 1.523 . S
H1423 C1398 0.950 . S
H1424 C1400 0.950 . S
H1425 C1401 0.949 . S
H1426 C1403 0.950 . S
H1427 C1405 0.950 . S
C1428 C1429 1.349 . S
C1428 C1430 1.327 . S
C1428 H1453 0.950 . S
C1429 C1428 1.349 . S
C1429 C1445 1.349 . S
C1430 C1428 1.327 . S
C1430 C1449 1.429 . S
C1430 H1454 0.950 . S
C1431 C1448 1.574 . S
C1431 C1450 1.368 . S
C1431 H1455 0.949 . S
H1432 C1436 0.949 . S
C1433 C1434 1.349 . S
C1433 C1435 1.327 . S
C1433 H1456 0.950 . S
C1434 C1433 1.349 . S
C1434 C1446 1.349 . S
C1435 C1433 1.327 . S
C1435 C1451 1.429 . S
C1435 H1457 0.950 . S
C1436 H1432 0.949 . S
C1436 C1444 1.574 . S
C1436 C1452 1.368 . S
H1437 C1445 0.950 . S
H1438 C1443 0.950 . S
H1439 C1444 0.949 . S
H1440 C1446 0.950 . S
H1441 C1447 0.950 . S
H1442 C1448 0.949 . S
C1443 H1438 0.950 . S
C1443 C1445 1.327 . S
C1443 C1449 1.429 . S
C1444 C1436 1.574 . S
C1444 H1439 0.949 . S
C1444 C1450 1.368 . S
C1445 C1429 1.349 . S
C1445 H1437 0.950 . S
C1445 C1443 1.327 . S
C1446 C1434 1.349 . S
C1446 H1440 0.950 . S
C1446 C1447 1.327 . S
C1447 H1441 0.950 . S
C1447 C1446 1.327 . S
C1447 C1451 1.429 . S
C1448 C1431 1.574 . S
C1448 H1442 0.949 . S
C1448 C1452 1.368 . S
C1449 C1430 1.429 . S
C1449 C1443 1.429 . S
C1449 C1450 1.523 . S
C1450 C1431 1.368 . S
C1450 C1444 1.368 . S
C1450 C1449 1.523 . S
C1451 C1435 1.429 . S
C1451 C1447 1.429 . S
C1451 C1452 1.523 . S
C1452 C1436 1.368 . S
C1452 C1448 1.368 . S
C1452 C1451 1.523 . S
H1453 C1428 0.950 . S
H1454 C1430 0.950 . S
H1455 C1431 0.949 . S
H1456 C1433 0.950 . S
H1457 C1435 0.950 . S
C1458 C1459 1.349 . S
C1458 C1460 1.327 . S
C1458 H1483 0.950 . S
C1459 C1458 1.349 . S
C1459 C1475 1.349 . S
C1460 C1458 1.327 . S
C1460 C1479 1.429 . S
C1460 H1484 0.950 . S
C1461 C1478 1.574 . S
C1461 C1480 1.368 . S
C1461 H1485 0.949 . S
H1462 C1466 0.949 . S
C1463 C1464 1.349 . S
C1463 C1465 1.327 . S
C1463 H1486 0.950 . S
C1464 C1463 1.349 . S
C1464 C1476 1.349 . S
C1465 C1463 1.327 . S
C1465 C1481 1.429 . S
C1465 H1487 0.950 . S
C1466 H1462 0.949 . S
C1466 C1474 1.574 . S
C1466 C1482 1.368 . S
H1467 C1475 0.950 . S
H1468 C1473 0.950 . S
H1469 C1474 0.949 . S
H1470 C1476 0.950 . S
H1471 C1477 0.950 . S
H1472 C1478 0.949 . S
C1473 H1468 0.950 . S
C1473 C1475 1.327 . S
C1473 C1479 1.429 . S
C1474 C1466 1.574 . S
C1474 H1469 0.949 . S
C1474 C1480 1.368 . S
C1475 C1459 1.349 . S
C1475 H1467 0.950 . S
C1475 C1473 1.327 . S
C1476 C1464 1.349 . S
C1476 H1470 0.950 . S
C1476 C1477 1.327 . S
C1477 H1471 0.950 . S
C1477 C1476 1.327 . S
C1477 C1481 1.429 . S
C1478 C1461 1.574 . S
C1478 H1472 0.949 . S
C1478 C1482 1.368 . S
C1479 C1460 1.429 . S
C1479 C1473 1.429 . S
C1479 C1480 1.523 . S
C1480 C1461 1.368 . S
C1480 C1474 1.368 . S
C1480 C1479 1.523 . S
C1481 C1465 1.429 . S
C1481 C1477 1.429 . S
C1481 C1482 1.523 . S
C1482 C1466 1.368 . S
C1482 C1478 1.368 . S
C1482 C1481 1.523 . S
H1483 C1458 0.950 . S
H1484 C1460 0.950 . S
H1485 C1461 0.949 . S
H1486 C1463 0.950 . S
H1487 C1465 0.950 . S
C1488 C1489 1.349 . S
C1488 C1490 1.327 . S
C1488 H1513 0.950 . S
C1489 C1488 1.349 . S
C1489 C1505 1.349 . S
C1490 C1488 1.327 . S
C1490 C1509 1.429 . S
C1490 H1514 0.950 . S
C1491 C1508 1.574 . S
C1491 C1510 1.368 . S
C1491 H1515 0.949 . S
H1492 C1496 0.949 . S
C1493 C1494 1.349 . S
C1493 C1495 1.327 . S
C1493 H1516 0.950 . S
C1494 C1493 1.349 . S
C1494 C1506 1.349 . S
C1495 C1493 1.327 . S
C1495 C1511 1.429 . S
C1495 H1517 0.950 . S
C1496 H1492 0.949 . S
C1496 C1504 1.574 . S
C1496 C1512 1.368 . S
H1497 C1505 0.950 . S
H1498 C1503 0.950 . S
H1499 C1504 0.949 . S
H1500 C1506 0.950 . S
H1501 C1507 0.950 . S
H1502 C1508 0.949 . S
C1503 H1498 0.950 . S
C1503 C1505 1.327 . S
C1503 C1509 1.429 . S
C1504 C1496 1.574 . S
C1504 H1499 0.949 . S
C1504 C1510 1.368 . S
C1505 C1489 1.349 . S
C1505 H1497 0.950 . S
C1505 C1503 1.327 . S
C1506 C1494 1.349 . S
C1506 H1500 0.950 . S
C1506 C1507 1.327 . S
C1507 H1501 0.950 . S
C1507 C1506 1.327 . S
C1507 C1511 1.429 . S
C1508 C1491 1.574 . S
C1508 H1502 0.949 . S
C1508 C1512 1.368 . S
C1509 C1490 1.429 . S
C1509 C1503 1.429 . S
C1509 C1510 1.523 . S
C1510 C1491 1.368 . S
C1510 C1504 1.368 . S
C1510 C1509 1.523 . S
C1511 C1495 1.429 . S
C1511 C1507 1.429 . S
C1511 C1512 1.523 . S
C1512 C1496 1.368 . S
C1512 C1508 1.368 . S
C1512 C1511 1.523 . S
H1513 C1488 0.950 . S
H1514 C1490 0.950 . S
H1515 C1491 0.949 . S
H1516 C1493 0.950 . S
H1517 C1495 0.950 . S
C1518 C1519 1.349 . S
C1518 C1520 1.327 . S
C1518 H1543 0.950 . S
C1519 C1518 1.349 . S
C1519 C1535 1.349 . S
C1520 C1518 1.327 . S
C1520 C1539 1.429 . S
C1520 H1544 0.950 . S
C1521 C1538 1.574 . S
C1521 C1540 1.368 . S
C1521 H1545 0.949 . S
H1522 C1526 0.949 . S
C1523 C1524 1.349 . S
C1523 C1525 1.327 . S
C1523 H1546 0.950 . S
C1524 C1523 1.349 . S
C1524 C1536 1.349 . S
C1525 C1523 1.327 . S
C1525 C1541 1.429 . S
C1525 H1547 0.950 . S
C1526 H1522 0.949 . S
C1526 C1534 1.574 . S
C1526 C1542 1.368 . S
H1527 C1535 0.950 . S
H1528 C1533 0.950 . S
H1529 C1534 0.949 . S
H1530 C1536 0.950 . S
H1531 C1537 0.950 . S
H1532 C1538 0.949 . S
C1533 H1528 0.950 . S
C1533 C1535 1.327 . S
C1533 C1539 1.429 . S
C1534 C1526 1.574 . S
C1534 H1529 0.949 . S
C1534 C1540 1.368 . S
C1535 C1519 1.349 . S
C1535 H1527 0.950 . S
C1535 C1533 1.327 . S
C1536 C1524 1.349 . S
C1536 H1530 0.950 . S
C1536 C1537 1.327 . S
C1537 H1531 0.950 . S
C1537 C1536 1.327 . S
C1537 C1541 1.429 . S
C1538 C1521 1.574 . S
C1538 H1532 0.949 . S
C1538 C1542 1.368 . S
C1539 C1520 1.429 . S
C1539 C1533 1.429 . S
C1539 C1540 1.523 . S
C1540 C1521 1.368 . S
C1540 C1534 1.368 . S
C1540 C1539 1.523 . S
C1541 C1525 1.429 . S
C1541 C1537 1.429 . S
C1541 C1542 1.523 . S
C1542 C1526 1.368 . S
C1542 C1538 1.368 . S
C1542 C1541 1.523 . S
H1543 C1518 0.950 . S
H1544 C1520 0.950 . S
H1545 C1521 0.949 . S
H1546 C1523 0.950 . S
H1547 C1525 0.950 . S
C1548 C1549 1.349 . S
C1548 C1550 1.327 . S
C1548 H1573 0.950 . S
C1549 C1548 1.349 . S
C1549 C1565 1.349 . S
C1550 C1548 1.327 . S
C1550 C1569 1.429 . S
C1550 H1574 0.950 . S
C1551 C1568 1.574 . S
C1551 C1570 1.368 . S
C1551 H1575 0.949 . S
H1552 C1556 0.949 . S
C1553 C1554 1.349 . S
C1553 C1555 1.327 . S
C1553 H1576 0.950 . S
C1554 C1553 1.349 . S
C1554 C1566 1.349 . S
C1555 C1553 1.327 . S
C1555 C1571 1.429 . S
C1555 H1577 0.950 . S
C1556 H1552 0.949 . S
C1556 C1564 1.574 . S
C1556 C1572 1.368 . S
H1557 C1565 0.950 . S
H1558 C1563 0.950 . S
H1559 C1564 0.949 . S
H1560 C1566 0.950 . S
H1561 C1567 0.950 . S
H1562 C1568 0.949 . S
C1563 H1558 0.950 . S
C1563 C1565 1.327 . S
C1563 C1569 1.429 . S
C1564 C1556 1.574 . S
C1564 H1559 0.949 . S
C1564 C1570 1.368 . S
C1565 C1549 1.349 . S
C1565 H1557 0.950 . S
C1565 C1563 1.327 . S
C1566 C1554 1.349 . S
C1566 H1560 0.950 . S
C1566 C1567 1.327 . S
C1567 H1561 0.950 . S
C1567 C1566 1.327 . S
C1567 C1571 1.429 . S
C1568 C1551 1.574 . S
C1568 H1562 0.949 . S
C1568 C1572 1.368 . S
C1569 C1550 1.429 . S
C1569 C1563 1.429 . S
C1569 C1570 1.523 . S
C1570 C1551 1.368 . S
C1570 C1564 1.368 . S
C1570 C1569 1.523 . S
C1571 C1555 1.429 . S
C1571 C1567 1.429 . S
C1571 C1572 1.523 . S
C1572 C1556 1.368 . S
C1572 C1568 1.368 . S
C1572 C1571 1.523 . S
H1573 C1548 0.950 . S
H1574 C1550 0.950 . S
H1575 C1551 0.949 . S
H1576 C1553 0.950 . S
H1577 C1555 0.950 . S
C1578 C1579 1.349 . S
C1578 C1580 1.327 . S
C1578 H1603 0.950 . S
C1579 C1578 1.349 . S
C1579 C1595 1.349 . S
C1580 C1578 1.327 . S
C1580 C1599 1.429 . S
C1580 H1604 0.950 . S
C1581 C1598 1.574 . S
C1581 C1600 1.368 . S
C1581 H1605 0.949 . S
H1582 C1586 0.949 . S
C1583 C1584 1.349 . S
C1583 C1585 1.327 . S
C1583 H1606 0.950 . S
C1584 C1583 1.349 . S
C1584 C1596 1.349 . S
C1585 C1583 1.327 . S
C1585 C1601 1.429 . S
C1585 H1607 0.950 . S
C1586 H1582 0.949 . S
C1586 C1594 1.574 . S
C1586 C1602 1.368 . S
H1587 C1595 0.950 . S
H1588 C1593 0.950 . S
H1589 C1594 0.949 . S
H1590 C1596 0.950 . S
H1591 C1597 0.950 . S
H1592 C1598 0.949 . S
C1593 H1588 0.950 . S
C1593 C1595 1.327 . S
C1593 C1599 1.429 . S
C1594 C1586 1.574 . S
C1594 H1589 0.949 . S
C1594 C1600 1.368 . S
C1595 C1579 1.349 . S
C1595 H1587 0.950 . S
C1595 C1593 1.327 . S
C1596 C1584 1.349 . S
C1596 H1590 0.950 . S
C1596 C1597 1.327 . S
C1597 H1591 0.950 . S
C1597 C1596 1.327 . S
C1597 C1601 1.429 . S
C1598 C1581 1.574 . S
C1598 H1592 0.949 . S
C1598 C1602 1.368 . S
C1599 C1580 1.429 . S
C1599 C1593 1.429 . S
C1599 C1600 1.523 . S
C1600 C1581 1.368 . S
C1600 C1594 1.368 . S
C1600 C1599 1.523 . S
C1601 C1585 1.429 . S
C1601 C1597 1.429 . S
C1601 C1602 1.523 . S
C1602 C1586 1.368 . S
C1602 C1598 1.368 . S
C1602 C1601 1.523 . S
H1603 C1578 0.950 . S
H1604 C1580 0.950 . S
H1605 C1581 0.949 . S
H1606 C1583 0.950 . S
H1607 C1585 0.950 . S
C1608 C1609 1.349 . S
C1608 C1610 1.327 . S
C1608 H1633 0.950 . S
C1609 C1608 1.349 . S
C1609 C1625 1.349 . S
C1610 C1608 1.327 . S
C1610 C1629 1.429 . S
C1610 H1634 0.950 . S
C1611 C1628 1.574 . S
C1611 C1630 1.368 . S
C1611 H1635 0.949 . S
H1612 C1616 0.949 . S
C1613 C1614 1.349 . S
C1613 C1615 1.327 . S
C1613 H1636 0.950 . S
C1614 C1613 1.349 . S
C1614 C1626 1.349 . S
C1615 C1613 1.327 . S
C1615 C1631 1.429 . S
C1615 H1637 0.950 . S
C1616 H1612 0.949 . S
C1616 C1624 1.574 . S
C1616 C1632 1.368 . S
H1617 C1625 0.950 . S
H1618 C1623 0.950 . S
H1619 C1624 0.949 . S
H1620 C1626 0.950 . S
H1621 C1627 0.950 . S
H1622 C1628 0.949 . S
C1623 H1618 0.950 . S
C1623 C1625 1.327 . S
C1623 C1629 1.429 . S
C1624 C1616 1.574 . S
C1624 H1619 0.949 . S
C1624 C1630 1.368 . S
C1625 C1609 1.349 . S
C1625 H1617 0.950 . S
C1625 C1623 1.327 . S
C1626 C1614 1.349 . S
C1626 H1620 0.950 . S
C1626 C1627 1.327 . S
C1627 H1621 0.950 . S
C1627 C1626 1.327 . S
C1627 C1631 1.429 . S
C1628 C1611 1.574 . S
C1628 H1622 0.949 . S
C1628 C1632 1.368 . S
C1629 C1610 1.429 . S
C1629 C1623 1.429 . S
C1629 C1630 1.523 . S
C1630 C1611 1.368 . S
C1630 C1624 1.368 . S
C1630 C1629 1.523 . S
C1631 C1615 1.429 . S
C1631 C1627 1.429 . S
C1631 C1632 1.523 . S
C1632 C1616 1.368 . S
C1632 C1628 1.368 . S
C1632 C1631 1.523 . S
H1633 C1608 0.950 . S
H1634 C1610 0.950 . S
H1635 C1611 0.949 . S
H1636 C1613 0.950 . S
H1637 C1615 0.950 . S
C1638 C1639 1.349 . S
C1638 C1640 1.327 . S
C1638 H1663 0.950 . S
C1639 C1638 1.349 . S
C1639 C1655 1.349 . S
C1640 C1638 1.327 . S
C1640 C1659 1.429 . S
C1640 H1664 0.950 . S
C1641 C1658 1.574 . S
C1641 C1660 1.368 . S
C1641 H1665 0.949 . S
H1642 C1646 0.949 . S
C1643 C1644 1.349 . S
C1643 C1645 1.327 . S
C1643 H1666 0.950 . S
C1644 C1643 1.349 . S
C1644 C1656 1.349 . S
C1645 C1643 1.327 . S
C1645 C1661 1.429 . S
C1645 H1667 0.950 . S
C1646 H1642 0.949 . S
C1646 C1654 1.574 . S
C1646 C1662 1.368 . S
H1647 C1655 0.950 . S
H1648 C1653 0.950 . S
H1649 C1654 0.949 . S
H1650 C1656 0.950 . S
H1651 C1657 0.950 . S
H1652 C1658 0.949 . S
C1653 H1648 0.950 . S
C1653 C1655 1.327 . S
C1653 C1659 1.429 . S
C1654 C1646 1.574 . S
C1654 H1649 0.949 . S
C1654 C1660 1.368 . S
C1655 C1639 1.349 . S
C1655 H1647 0.950 . S
C1655 C1653 1.327 . S
C1656 C1644 1.349 . S
C1656 H1650 0.950 . S
C1656 C1657 1.327 . S
C1657 H1651 0.950 . S
C1657 C1656 1.327 . S
C1657 C1661 1.429 . S
C1658 C1641 1.574 . S
C1658 H1652 0.949 . S
C1658 C1662 1.368 . S
C1659 C1640 1.429 . S
C1659 C1653 1.429 . S
C1659 C1660 1.523 . S
C1660 C1641 1.368 . S
C1660 C1654 1.368 . S
C1660 C1659 1.523 . S
C1661 C1645 1.429 . S
C1661 C1657 1.429 . S
C1661 C1662 1.523 . S
C1662 C1646 1.368 . S
C1662 C1658 1.368 . S
C1662 C1661 1.523 . S
H1663 C1638 0.950 . S
H1664 C1640 0.950 . S
H1665 C1641 0.949 . S
H1666 C1643 0.950 . S
H1667 C1645 0.950 . S
C1668 C1669 1.349 . S
C1668 C1670 1.327 . S
C1668 H1693 0.950 . S
C1669 C1668 1.349 . S
C1669 C1685 1.349 . S
C1670 C1668 1.327 . S
C1670 C1689 1.429 . S
C1670 H1694 0.950 . S
C1671 C1688 1.574 . S
C1671 C1690 1.368 . S
C1671 H1695 0.949 . S
H1672 C1676 0.949 . S
C1673 C1674 1.349 . S
C1673 C1675 1.327 . S
C1673 H1696 0.950 . S
C1674 C1673 1.349 . S
C1674 C1686 1.349 . S
C1675 C1673 1.327 . S
C1675 C1691 1.429 . S
C1675 H1697 0.950 . S
C1676 H1672 0.949 . S
C1676 C1684 1.574 . S
C1676 C1692 1.368 . S
H1677 C1685 0.950 . S
H1678 C1683 0.950 . S
H1679 C1684 0.949 . S
H1680 C1686 0.950 . S
H1681 C1687 0.950 . S
H1682 C1688 0.949 . S
C1683 H1678 0.950 . S
C1683 C1685 1.327 . S
C1683 C1689 1.429 . S
C1684 C1676 1.574 . S
C1684 H1679 0.949 . S
C1684 C1690 1.368 . S
C1685 C1669 1.349 . S
C1685 H1677 0.950 . S
C1685 C1683 1.327 . S
C1686 C1674 1.349 . S
C1686 H1680 0.950 . S
C1686 C1687 1.327 . S
C1687 H1681 0.950 . S
C1687 C1686 1.327 . S
C1687 C1691 1.429 . S
C1688 C1671 1.574 . S
C1688 H1682 0.949 . S
C1688 C1692 1.368 . S
C1689 C1670 1.429 . S
C1689 C1683 1.429 . S
C1689 C1690 1.523 . S
C1690 C1671 1.368 . S
C1690 C1684 1.368 . S
C1690 C1689 1.523 . S
C1691 C1675 1.429 . S
C1691 C1687 1.429 . S
C1691 C1692 1.523 . S
C1692 C1676 1.368 . S
C1692 C1688 1.368 . S
C1692 C1691 1.523 . S
H1693 C1668 0.950 . S
H1694 C1670 0.950 . S
H1695 C1671 0.949 . S
H1696 C1673 0.950 . S
H1697 C1675 0.950 . S
C1698 C1699 1.349 . S
C1698 C1700 1.327 . S
C1698 H1723 0.950 . S
C1699 C1698 1.349 . S
C1699 C1715 1.349 . S
C1700 C1698 1.327 . S
C1700 C1719 1.429 . S
C1700 H1724 0.950 . S
C1701 C1718 1.574 . S
C1701 C1720 1.368 . S
C1701 H1725 0.949 . S
H1702 C1706 0.949 . S
C1703 C1704 1.349 . S
C1703 C1705 1.327 . S
C1703 H1726 0.950 . S
C1704 C1703 1.349 . S
C1704 C1716 1.349 . S
C1705 C1703 1.327 . S
C1705 C1721 1.429 . S
C1705 H1727 0.950 . S
C1706 H1702 0.949 . S
C1706 C1714 1.574 . S
C1706 C1722 1.368 . S
H1707 C1715 0.950 . S
H1708 C1713 0.950 . S
H1709 C1714 0.949 . S
H1710 C1716 0.950 . S
H1711 C1717 0.950 . S
H1712 C1718 0.949 . S
C1713 H1708 0.950 . S
C1713 C1715 1.327 . S
C1713 C1719 1.429 . S
C1714 C1706 1.574 . S
C1714 H1709 0.949 . S
C1714 C1720 1.368 . S
C1715 C1699 1.349 . S
C1715 H1707 0.950 . S
C1715 C1713 1.327 . S
C1716 C1704 1.349 . S
C1716 H1710 0.950 . S
C1716 C1717 1.327 . S
C1717 H1711 0.950 . S
C1717 C1716 1.327 . S
C1717 C1721 1.429 . S
C1718 C1701 1.574 . S
C1718 H1712 0.949 . S
C1718 C1722 1.368 . S
C1719 C1700 1.429 . S
C1719 C1713 1.429 . S
C1719 C1720 1.523 . S
C1720 C1701 1.368 . S
C1720 C1714 1.368 . S
C1720 C1719 1.523 . S
C1721 C1705 1.429 . S
C1721 C1717 1.429 . S
C1721 C1722 1.523 . S
C1722 C1706 1.368 . S
C1722 C1718 1.368 . S
C1722 C1721 1.523 . S
H1723 C1698 0.950 . S
H1724 C1700 0.950 . S
H1725 C1701 0.949 . S
H1726 C1703 0.950 . S
H1727 C1705 0.950 . S
C529 C8 2.319 . S
C534 C74 2.319 . S
C559 C107 2.319 . S
C564 C41 2.319 . S
C589 C206 2.319 . S
C594 C140 2.319 . S
C619 C173 2.319 . S
C624 C239 2.319 . S
C649 C338 2.319 . S
C654 C272 2.319 . S
C679 C305 2.319 . S
C684 C371 2.319 . S
C709 C470 2.319 . S
C714 C404 2.319 . S
C739 C437 2.319 . S
C744 C503 2.319 . S
C769 C17 1.444 . S
C774 C347 1.444 . S
C799 C380 1.444 . S
C804 C50 1.444 . S
C829 C281 1.444 . S
C834 C83 1.444 . S
C859 C314 1.444 . S
C864 C116 1.444 . S
C889 C479 1.444 . S
C894 C149 1.444 . S
C919 C512 1.444 . S
C924 C182 1.444 . S
C949 C413 1.444 . S
C954 C215 1.444 . S
C979 C446 1.444 . S
C984 C248 1.444 . S
C1009 C28 0.881 . S
C1014 C259 0.881 . S
C1039 C61 0.881 . S
C1044 C160 0.881 . S
C1069 C193 0.881 . S
C1074 C94 0.881 . S
C1099 C226 0.881 . S
C1104 C127 0.881 . S
C1129 C292 0.881 . S
C1134 C523 0.881 . S
C1159 C325 0.881 . S
C1164 C424 0.881 . S
C1189 C358 0.881 . S
C1194 C457 0.881 . S
C1219 C391 0.881 . S
C1224 C490 0.881 . S
C1249 N476 0.931 . S
C1254 N5 0.942 . S
C1279 N38 0.942 . S
C1284 N509 0.931 . S
C1309 N410 0.931 . S
C1314 N71 0.942 . S
C1339 N443 0.931 . S
C1344 N104 0.942 . S
C1369 N344 0.931 . S
C1374 N137 0.942 . S
C1399 N170 0.942 . S
C1404 N377 0.931 . S
C1429 N278 0.931 . S
C1434 N203 0.942 . S
C1459 N236 0.942 . S
C1464 N311 0.931 . S
C1489 N212 0.931 . S
C1494 N269 0.942 . S
C1519 N245 0.931 . S
C1524 N302 0.942 . S
C1549 N146 0.931 . S
C1554 N335 0.942 . S
C1579 N368 0.942 . S
C1584 N179 0.931 . S
C1609 N80 0.931 . S
C1614 N401 0.942 . S
C1639 N434 0.942 . S
C1644 N113 0.931 . S
C1669 N467 0.942 . S
C1674 N14 0.931 . S
C1699 N47 0.931 . S
C1704 N500 0.942 . S
