# Generated by pormake.
# Topology uow, (4)-cn, num edge types: 1
# Building blocks:
#     Node 0, Type 0, BuildingBlock: CEKHIL_clean_sbu_0, # of connection points: 4
#     Node 1, Type 0, BuildingBlock: CEKHIL_clean_sbu_0, # of connection points: 4
#     Node 2, Type 0, BuildingBlock: CEKHIL_clean_sbu_0, # of connection points: 4
#     Node 3, Type 0, BuildingBlock: CEKHIL_clean_sbu_0, # of connection points: 4
#     Node 4, Type 0, BuildingBlock: CEKHIL_clean_sbu_0, # of connection points: 4
#     Node 5, Type 0, BuildingBlock: CEKHIL_clean_sbu_0, # of connection points: 4
#     Node 6, Type 0, BuildingBlock: CEKHIL_clean_sbu_0, # of connection points: 4
#     Node 7, Type 0, BuildingBlock: CEKHIL_clean_sbu_0, # of connection points: 4
#     Node 8, Type 0, BuildingBlock: CEKHIL_clean_sbu_0, # of connection points: 4
#     Node 9, Type 0, BuildingBlock: CEKHIL_clean_sbu_0, # of connection points: 4
#     Node 10, Type 0, BuildingBlock: CEKHIL_clean_sbu_0, # of connection points: 4
#     Node 11, Type 0, BuildingBlock: CEKHIL_clean_sbu_0, # of connection points: 4
#     Node 12, Type 0, BuildingBlock: CEKHIL_clean_sbu_0, # of connection points: 4
#     Node 13, Type 0, BuildingBlock: CEKHIL_clean_sbu_0, # of connection points: 4
#     Node 14, Type 0, BuildingBlock: CEKHIL_clean_sbu_0, # of connection points: 4
#     Node 15, Type 0, BuildingBlock: CEKHIL_clean_sbu_0, # of connection points: 4
#     Node 16, Type 0, BuildingBlock: CEKHIL_clean_sbu_0, # of connection points: 4
#     Node 17, Type 0, BuildingBlock: CEKHIL_clean_sbu_0, # of connection points: 4
#     Node 18, Type 0, BuildingBlock: CEKHIL_clean_sbu_0, # of connection points: 4
#     Node 19, Type 0, BuildingBlock: CEKHIL_clean_sbu_0, # of connection points: 4
#     Node 20, Type 0, BuildingBlock: CEKHIL_clean_sbu_0, # of connection points: 4
#     Node 21, Type 0, BuildingBlock: CEKHIL_clean_sbu_0, # of connection points: 4
#     Node 22, Type 0, BuildingBlock: CEKHIL_clean_sbu_0, # of connection points: 4
#     Node 23, Type 0, BuildingBlock: CEKHIL_clean_sbu_0, # of connection points: 4
#     Node 24, Type 0, BuildingBlock: CEKHIL_clean_sbu_0, # of connection points: 4
#     Node 25, Type 0, BuildingBlock: CEKHIL_clean_sbu_0, # of connection points: 4
#     Node 26, Type 0, BuildingBlock: CEKHIL_clean_sbu_0, # of connection points: 4
#     Node 27, Type 0, BuildingBlock: CEKHIL_clean_sbu_0, # of connection points: 4
#     Node 28, Type 0, BuildingBlock: CEKHIL_clean_sbu_0, # of connection points: 4
#     Node 29, Type 0, BuildingBlock: CEKHIL_clean_sbu_0, # of connection points: 4
#     Node 30, Type 0, BuildingBlock: CEKHIL_clean_sbu_0, # of connection points: 4
#     Node 31, Type 0, BuildingBlock: CEKHIL_clean_sbu_0, # of connection points: 4
#     Edge 32, Type (0, 0), BuildingBlock: XIVTED_clean_linker_0, # of connection points: 2
#     Edge 33, Type (0, 0), BuildingBlock: XIVTED_clean_linker_0, # of connection points: 2
#     Edge 34, Type (0, 0), BuildingBlock: XIVTED_clean_linker_0, # of connection points: 2
#     Edge 35, Type (0, 0), BuildingBlock: XIVTED_clean_linker_0, # of connection points: 2
#     Edge 36, Type (0, 0), BuildingBlock: XIVTED_clean_linker_0, # of connection points: 2
#     Edge 37, Type (0, 0), BuildingBlock: XIVTED_clean_linker_0, # of connection points: 2
#     Edge 38, Type (0, 0), BuildingBlock: XIVTED_clean_linker_0, # of connection points: 2
#     Edge 39, Type (0, 0), BuildingBlock: XIVTED_clean_linker_0, # of connection points: 2
#     Edge 40, Type (0, 0), BuildingBlock: XIVTED_clean_linker_0, # of connection points: 2
#     Edge 41, Type (0, 0), BuildingBlock: XIVTED_clean_linker_0, # of connection points: 2
#     Edge 42, Type (0, 0), BuildingBlock: XIVTED_clean_linker_0, # of connection points: 2
#     Edge 43, Type (0, 0), BuildingBlock: XIVTED_clean_linker_0, # of connection points: 2
#     Edge 44, Type (0, 0), BuildingBlock: XIVTED_clean_linker_0, # of connection points: 2
#     Edge 45, Type (0, 0), BuildingBlock: XIVTED_clean_linker_0, # of connection points: 2
#     Edge 46, Type (0, 0), BuildingBlock: XIVTED_clean_linker_0, # of connection points: 2
#     Edge 47, Type (0, 0), BuildingBlock: XIVTED_clean_linker_0, # of connection points: 2
#     Edge 48, Type (0, 0), BuildingBlock: XIVTED_clean_linker_0, # of connection points: 2
#     Edge 49, Type (0, 0), BuildingBlock: XIVTED_clean_linker_0, # of connection points: 2
#     Edge 50, Type (0, 0), BuildingBlock: XIVTED_clean_linker_0, # of connection points: 2
#     Edge 51, Type (0, 0), BuildingBlock: XIVTED_clean_linker_0, # of connection points: 2
#     Edge 52, Type (0, 0), BuildingBlock: XIVTED_clean_linker_0, # of connection points: 2
#     Edge 53, Type (0, 0), BuildingBlock: XIVTED_clean_linker_0, # of connection points: 2
#     Edge 54, Type (0, 0), BuildingBlock: XIVTED_clean_linker_0, # of connection points: 2
#     Edge 55, Type (0, 0), BuildingBlock: XIVTED_clean_linker_0, # of connection points: 2
#     Edge 56, Type (0, 0), BuildingBlock: XIVTED_clean_linker_0, # of connection points: 2
#     Edge 57, Type (0, 0), BuildingBlock: XIVTED_clean_linker_0, # of connection points: 2
#     Edge 58, Type (0, 0), BuildingBlock: XIVTED_clean_linker_0, # of connection points: 2
#     Edge 59, Type (0, 0), BuildingBlock: XIVTED_clean_linker_0, # of connection points: 2
#     Edge 60, Type (0, 0), BuildingBlock: XIVTED_clean_linker_0, # of connection points: 2
#     Edge 61, Type (0, 0), BuildingBlock: XIVTED_clean_linker_0, # of connection points: 2
#     Edge 62, Type (0, 0), BuildingBlock: XIVTED_clean_linker_0, # of connection points: 2
#     Edge 63, Type (0, 0), BuildingBlock: XIVTED_clean_linker_0, # of connection points: 2
#     Edge 64, Type (0, 0), BuildingBlock: XIVTED_clean_linker_0, # of connection points: 2
#     Edge 65, Type (0, 0), BuildingBlock: XIVTED_clean_linker_0, # of connection points: 2
#     Edge 66, Type (0, 0), BuildingBlock: XIVTED_clean_linker_0, # of connection points: 2
#     Edge 67, Type (0, 0), BuildingBlock: XIVTED_clean_linker_0, # of connection points: 2
#     Edge 68, Type (0, 0), BuildingBlock: XIVTED_clean_linker_0, # of connection points: 2
#     Edge 69, Type (0, 0), BuildingBlock: XIVTED_clean_linker_0, # of connection points: 2
#     Edge 70, Type (0, 0), BuildingBlock: XIVTED_clean_linker_0, # of connection points: 2
#     Edge 71, Type (0, 0), BuildingBlock: XIVTED_clean_linker_0, # of connection points: 2
#     Edge 72, Type (0, 0), BuildingBlock: XIVTED_clean_linker_0, # of connection points: 2
#     Edge 73, Type (0, 0), BuildingBlock: XIVTED_clean_linker_0, # of connection points: 2
#     Edge 74, Type (0, 0), BuildingBlock: XIVTED_clean_linker_0, # of connection points: 2
#     Edge 75, Type (0, 0), BuildingBlock: XIVTED_clean_linker_0, # of connection points: 2
#     Edge 76, Type (0, 0), BuildingBlock: XIVTED_clean_linker_0, # of connection points: 2
#     Edge 77, Type (0, 0), BuildingBlock: XIVTED_clean_linker_0, # of connection points: 2
#     Edge 78, Type (0, 0), BuildingBlock: XIVTED_clean_linker_0, # of connection points: 2
#     Edge 79, Type (0, 0), BuildingBlock: XIVTED_clean_linker_0, # of connection points: 2
#     Edge 80, Type (0, 0), BuildingBlock: XIVTED_clean_linker_0, # of connection points: 2
#     Edge 81, Type (0, 0), BuildingBlock: XIVTED_clean_linker_0, # of connection points: 2
#     Edge 82, Type (0, 0), BuildingBlock: XIVTED_clean_linker_0, # of connection points: 2
#     Edge 83, Type (0, 0), BuildingBlock: XIVTED_clean_linker_0, # of connection points: 2
#     Edge 84, Type (0, 0), BuildingBlock: XIVTED_clean_linker_0, # of connection points: 2
#     Edge 85, Type (0, 0), BuildingBlock: XIVTED_clean_linker_0, # of connection points: 2
#     Edge 86, Type (0, 0), BuildingBlock: XIVTED_clean_linker_0, # of connection points: 2
#     Edge 87, Type (0, 0), BuildingBlock: XIVTED_clean_linker_0, # of connection points: 2
#     Edge 88, Type (0, 0), BuildingBlock: XIVTED_clean_linker_0, # of connection points: 2
#     Edge 89, Type (0, 0), BuildingBlock: XIVTED_clean_linker_0, # of connection points: 2
#     Edge 90, Type (0, 0), BuildingBlock: XIVTED_clean_linker_0, # of connection points: 2
#     Edge 91, Type (0, 0), BuildingBlock: XIVTED_clean_linker_0, # of connection points: 2
#     Edge 92, Type (0, 0), BuildingBlock: XIVTED_clean_linker_0, # of connection points: 2
#     Edge 93, Type (0, 0), BuildingBlock: XIVTED_clean_linker_0, # of connection points: 2
#     Edge 94, Type (0, 0), BuildingBlock: XIVTED_clean_linker_0, # of connection points: 2
#     Edge 95, Type (0, 0), BuildingBlock: XIVTED_clean_linker_0, # of connection points: 2
# Relax obj value: 0.098
# Max RMSD: 0.128
# Mean RMSD: 0.128
data_MOF--net-uow--node1-CEKHIL_clean_sbu_0--edge1-XIVTED_clean_linker_0
_symmetry_space_group_name_H-M    P1
_symmetry_Int_Tables_number       1
_symmetry_cell_setting            triclinic
loop_
_symmetry_equiv_pos_as_xyz
'x, y, z'
_cell_length_a     62.049176
_cell_length_b     62.007084
_cell_length_c     40.067909
_cell_angle_alpha  89.986784
_cell_angle_beta   90.031876
_cell_angle_gamma 90.035371
loop_
_atom_site_label
_atom_site_type_symbol
_atom_site_fract_x
_atom_site_fract_y
_atom_site_fract_z
_atom_type_partial_charge
Co0 Co 0.04995 0.38266 0.27162 0.0
O1 O 0.04321 0.40555 0.24113 0.0
O2 O 0.07168 0.40503 0.27455 0.0
C3 C 0.01637 0.37922 0.29277 0.0
O4 O 0.06185 0.36204 0.30689 0.0
Co5 Co 0.02737 0.33773 0.26661 0.0
O6 O 0.03876 0.33428 0.31247 0.0
C7 C 0.06364 0.34879 0.22132 0.0
C8 C 0.06044 0.41513 0.252 0.0
C9 C 0.05503 0.34511 0.32225 0.0
O10 O 0.06662 0.36715 0.23564 0.0
O11 O 0.04842 0.33574 0.22902 0.0
O12 O 0.02921 0.39405 0.30423 0.0
O13 O 0.02356 0.36851 0.26762 0.0
Co14 Co 0.86048 0.78679 0.53428 0.0
O15 O 0.83398 0.77993 0.51177 0.0
O16 O 0.8412 0.81126 0.53605 0.0
C17 C 0.8631 0.75615 0.5644 0.0
O18 O 0.88559 0.79957 0.56045 0.0
Co19 Co 0.90151 0.75835 0.52472 0.0
O20 O 0.91202 0.77481 0.56402 0.0
C21 C 0.88797 0.78892 0.47188 0.0
C22 C 0.82769 0.79923 0.51962 0.0
C23 C 0.90362 0.79277 0.57238 0.0
O24 O 0.87347 0.79717 0.491 0.0
O25 O 0.89918 0.77236 0.47985 0.0
O26 O 0.85097 0.77185 0.5748 0.0
O27 O 0.87122 0.75864 0.53509 0.0
Co28 Co 0.45908 0.60577 0.76361 0.0
O29 O 0.46647 0.57849 0.74447 0.0
O30 O 0.43679 0.58497 0.77379 0.0
C31 C 0.49121 0.61383 0.78657 0.0
O32 O 0.44658 0.63204 0.78695 0.0
Co33 Co 0.48209 0.64654 0.73506 0.0
O34 O 0.46438 0.66163 0.76911 0.0
C35 C 0.44882 0.62497 0.69573 0.0
C36 C 0.44838 0.57148 0.75656 0.0
C37 C 0.45002 0.65253 0.78707 0.0
O38 O 0.44348 0.6139 0.72148 0.0
O39 O 0.46555 0.63702 0.6946 0.0
O40 O 0.47806 0.60082 0.80181 0.0
O41 O 0.4858 0.61886 0.75644 0.0
Co42 Co 0.63795 0.21444 0.03416 0.0
O43 O 0.66322 0.22043 0.00829 0.0
O44 O 0.65574 0.18883 0.03153 0.0
C45 C 0.63918 0.24451 0.06562 0.0
O46 O 0.61372 0.20247 0.06304 0.0
Co47 Co 0.59828 0.24519 0.03182 0.0
O48 O 0.58897 0.2284 0.0715 0.0
C49 C 0.607 0.21542 0.97565 0.0
C50 C 0.66871 0.20053 0.01355 0.0
C51 C 0.59678 0.20981 0.07768 0.0
O52 O 0.622 0.20599 0.99236 0.0
O53 O 0.59707 0.23224 0.98602 0.0
O54 O 0.6507 0.22783 0.07388 0.0
O55 O 0.62905 0.24307 0.03767 0.0
Co56 Co 0.03943 0.60343 0.21298 0.0
O57 O 0.03388 0.57346 0.22113 0.0
O58 O 0.06436 0.58657 0.20021 0.0
C59 C 0.00759 0.61124 0.18861 0.0
O60 O 0.05037 0.63331 0.2 0.0
Co61 Co 0.011 0.63841 0.24742 0.0
O62 O 0.02533 0.65783 0.21478 0.0
C63 C 0.04272 0.61386 0.28643 0.0
C64 C 0.05315 0.56998 0.20987 0.0
C65 C 0.04263 0.65259 0.19967 0.0
O66 O 0.0514 0.60681 0.25945 0.0
O67 O 0.02511 0.62459 0.28699 0.0
O68 O 0.02286 0.60226 0.17127 0.0
O69 O 0.01128 0.61279 0.22016 0.0
Co70 Co 0.63625 0.79842 0.47823 0.0
O71 O 0.66188 0.79216 0.50344 0.0
O72 O 0.65876 0.81868 0.46659 0.0
C73 C 0.62921 0.76415 0.46197 0.0
O74 O 0.61262 0.80968 0.44732 0.0
Co75 Co 0.59196 0.7785 0.49952 0.0
O76 O 0.58104 0.79347 0.45938 0.0
C77 C 0.60881 0.81736 0.53383 0.0
C78 C 0.67071 0.80821 0.48777 0.0
C79 C 0.59231 0.8067 0.44241 0.0
O80 O 0.62552 0.81808 0.51486 0.0
O81 O 0.59456 0.80246 0.53266 0.0
O82 O 0.64329 0.77574 0.44604 0.0
O83 O 0.62166 0.77274 0.48884 0.0
Co84 Co 0.46617 0.38302 0.7214 0.0
O85 O 0.46905 0.41075 0.74186 0.0
O86 O 0.44404 0.40213 0.70446 0.0
C87 C 0.50124 0.37799 0.70906 0.0
O88 O 0.4586 0.35584 0.69527 0.0
Co89 Co 0.48883 0.34385 0.75564 0.0
O90 O 0.47698 0.32776 0.71692 0.0
C91 C 0.45051 0.36338 0.78575 0.0
C92 C 0.45235 0.41642 0.72448 0.0
C93 C 0.46384 0.33572 0.69572 0.0
O94 O 0.44665 0.37364 0.75862 0.0
O95 O 0.46782 0.35274 0.79112 0.0
O96 O 0.48915 0.38957 0.68952 0.0
O97 O 0.49241 0.37221 0.73676 0.0
Co98 Co 0.85296 0.20615 0.95849 0.0
O99 O 0.82347 0.21126 0.97002 0.0
O100 O 0.83594 0.18083 0.948 0.0
C101 C 0.85924 0.23749 0.93198 0.0
O102 O 0.88226 0.19571 0.94247 0.0
Co103 Co 0.88833 0.23557 0.98969 0.0
O104 O 0.90784 0.21896 0.95995 0.0
C105 C 0.86848 0.20165 0.03035 0.0
C106 C 0.81971 0.1919 0.95929 0.0
C107 C 0.90196 0.20225 0.94373 0.0
O108 O 0.85895 0.19428 0.00428 0.0
O109 O 0.87907 0.21937 0.03065 0.0
O110 O 0.84951 0.22177 0.9167 0.0
O111 O 0.86209 0.2348 0.96365 0.0
Co112 Co 0.96486 0.61214 0.7262 0.0
O113 O 0.97177 0.58487 0.7461 0.0
O114 O 0.94354 0.59099 0.71338 0.0
C115 C 0.99816 0.62067 0.70783 0.0
O116 O 0.95269 0.63809 0.70148 0.0
Co117 Co 0.9854 0.65382 0.75607 0.0
O118 O 0.96796 0.66852 0.72124 0.0
C119 C 0.9517 0.63079 0.79267 0.0
C120 C 0.95437 0.57764 0.73198 0.0
C121 C 0.95481 0.65876 0.70195 0.0
O122 O 0.9472 0.61987 0.7664 0.0
O123 O 0.96815 0.64315 0.7951 0.0
O124 O 0.98601 0.60769 0.69058 0.0
O125 O 0.99082 0.62579 0.73686 0.0
Co126 Co 0.13474 0.20226 0.47476 0.0
O127 O 0.15563 0.20903 0.50857 0.0
O128 O 0.15939 0.18332 0.47067 0.0
C129 C 0.12857 0.2368 0.45939 0.0
O130 O 0.11707 0.19096 0.43546 0.0
Co131 Co 0.08751 0.21913 0.47774 0.0
O132 O 0.08735 0.21131 0.42982 0.0
C133 C 0.10046 0.18045 0.51691 0.0
C134 C 0.16747 0.19389 0.49578 0.0
C135 C 0.10027 0.19697 0.41904 0.0
O136 O 0.11986 0.18126 0.50559 0.0
O137 O 0.08591 0.19437 0.50981 0.0
O138 O 0.14504 0.22642 0.44745 0.0
O139 O 0.11754 0.22664 0.48164 0.0
Co140 Co 0.5417 0.39405 0.21734 0.0
O141 O 0.53164 0.42206 0.23042 0.0
O142 O 0.5636 0.41537 0.20774 0.0
C143 C 0.51166 0.3829 0.19079 0.0
O144 O 0.55734 0.36732 0.20055 0.0
Co145 Co 0.51897 0.35325 0.24636 0.0
O146 O 0.54016 0.33744 0.2185 0.0
C147 C 0.54552 0.38069 0.28934 0.0
C148 C 0.5502 0.42925 0.2204 0.0
C149 C 0.55529 0.34667 0.20235 0.0
O150 O 0.55388 0.38963 0.26347 0.0
O151 O 0.52931 0.36797 0.28789 0.0
O152 O 0.52532 0.39537 0.17549 0.0
O153 O 0.51537 0.37988 0.22209 0.0
Co154 Co 0.35873 0.77999 0.96658 0.0
O155 O 0.33224 0.76908 0.98364 0.0
O156 O 0.33696 0.80268 0.9665 0.0
C157 C 0.36582 0.75184 0.93283 0.0
O158 O 0.38439 0.79615 0.94677 0.0
Co159 Co 0.40023 0.75324 0.98244 0.0
O160 O 0.41404 0.77552 0.95404 0.0
C161 C 0.38025 0.77971 0.03468 0.0
C162 C 0.32422 0.78813 0.97927 0.0
C163 C 0.40471 0.79246 0.94313 0.0
O164 O 0.36793 0.78866 0.01291 0.0
O165 O 0.39231 0.76351 0.0282 0.0
O166 O 0.35307 0.76713 0.92269 0.0
O167 O 0.37172 0.75303 0.96355 0.0
Co168 Co 0.95205 0.38761 0.76957 0.0
O169 O 0.95784 0.41459 0.74829 0.0
O170 O 0.93061 0.40861 0.78306 0.0
C171 C 0.98591 0.38048 0.78668 0.0
O172 O 0.94165 0.36145 0.79585 0.0
Co173 Co 0.9739 0.34678 0.73873 0.0
O174 O 0.95996 0.33238 0.77734 0.0
C175 C 0.93736 0.36709 0.70476 0.0
C176 C 0.94095 0.42186 0.76358 0.0
C177 C 0.94623 0.34118 0.79675 0.0
O178 O 0.93358 0.37866 0.73066 0.0
O179 O 0.95406 0.35522 0.70141 0.0
O180 O 0.97373 0.39334 0.80395 0.0
O181 O 0.97825 0.37488 0.75804 0.0
Co182 Co 0.36078 0.20405 0.53492 0.0
O183 O 0.33293 0.21608 0.52598 0.0
O184 O 0.3386 0.18302 0.5452 0.0
C185 C 0.37445 0.23276 0.56214 0.0
O186 O 0.38723 0.18678 0.54845 0.0
Co187 Co 0.40122 0.22543 0.50301 0.0
O188 O 0.41708 0.20395 0.53047 0.0
C189 C 0.37323 0.19807 0.46197 0.0
C190 C 0.325 0.19785 0.53597 0.0
C191 C 0.40786 0.18861 0.54621 0.0
O192 O 0.36283 0.19225 0.48819 0.0
O193 O 0.38748 0.213 0.46195 0.0
O194 O 0.36211 0.2191 0.57764 0.0
O195 O 0.37596 0.23005 0.53029 0.0
Co196 Co 0.54783 0.61899 0.27705 0.0
O197 O 0.54253 0.59546 0.24682 0.0
O198 O 0.5684 0.59621 0.28503 0.0
C199 C 0.51317 0.62388 0.29252 0.0
O200 O 0.55803 0.64001 0.31305 0.0
Co201 Co 0.52758 0.66451 0.26677 0.0
O202 O 0.53591 0.6687 0.31403 0.0
C203 C 0.56645 0.65145 0.22841 0.0
C204 C 0.5585 0.58576 0.26142 0.0
C205 C 0.55105 0.65749 0.32663 0.0
O206 O 0.56744 0.6331 0.24334 0.0
O207 O 0.55151 0.66533 0.23335 0.0
O208 O 0.52472 0.60892 0.30652 0.0
O209 O 0.52228 0.6339 0.26812 0.0
Co210 Co 0.13225 0.79616 0.04184 0.0
O211 O 0.15833 0.7813 0.03133 0.0
O212 O 0.15664 0.81557 0.04695 0.0
C213 C 0.1179 0.76969 0.07347 0.0
O214 O 0.10792 0.81626 0.05586 0.0
Co215 Co 0.0888 0.77661 0.01666 0.0
O216 O 0.07612 0.80117 0.04153 0.0
C217 C 0.11856 0.79701 0.96947 0.0
C218 C 0.16834 0.79916 0.03789 0.0
C219 C 0.08715 0.81625 0.05488 0.0
O220 O 0.12908 0.80538 0.99386 0.0
O221 O 0.1037 0.78292 0.97338 0.0
O222 O 0.13193 0.78288 0.08633 0.0
O223 O 0.11486 0.77163 0.04181 0.0
Co224 Co 0.54131 0.895 0.79615 0.0
O225 O 0.53294 0.92438 0.78978 0.0
O226 O 0.56562 0.91378 0.80533 0.0
C227 C 0.51195 0.88496 0.82544 0.0
O228 O 0.55523 0.86613 0.80662 0.0
Co229 Co 0.5134 0.85842 0.76509 0.0
O230 O 0.53347 0.83917 0.7897 0.0
C231 C 0.54253 0.8836 0.72232 0.0
C232 C 0.55246 0.92946 0.79829 0.0
C233 C 0.55055 0.84597 0.80396 0.0
O234 O 0.55079 0.89259 0.74822 0.0
O235 O 0.52595 0.87132 0.72347 0.0
O236 O 0.52785 0.89475 0.84019 0.0
O237 O 0.51334 0.88368 0.79337 0.0
Co238 Co 0.35427 0.29601 0.03689 0.0
O239 O 0.32629 0.29117 0.01838 0.0
O240 O 0.33681 0.3215 0.0432 0.0
C241 C 0.35779 0.26453 0.06414 0.0
O242 O 0.38186 0.30651 0.05883 0.0
Co243 Co 0.39229 0.26635 0.0151 0.0
O244 O 0.40778 0.28148 0.05183 0.0
C245 C 0.37534 0.29909 0.96899 0.0
C246 C 0.32196 0.31081 0.02732 0.0
C247 C 0.40085 0.29904 0.06449 0.0
O248 O 0.36432 0.3074 0.99278 0.0
O249 O 0.38582 0.28139 0.97174 0.0
O250 O 0.34702 0.28027 0.07762 0.0
O251 O 0.36357 0.26749 0.03358 0.0
Co252 Co 0.96294 0.1134 0.27091 0.0
O253 O 0.96471 0.08502 0.25212 0.0
O254 O 0.94023 0.09561 0.28911 0.0
C255 C 0.99813 0.11769 0.28348 0.0
O256 O 0.95629 0.14117 0.29569 0.0
Co257 Co 0.98659 0.15136 0.23529 0.0
O258 O 0.975 0.16864 0.27297 0.0
C259 C 0.94708 0.13334 0.20635 0.0
C260 C 0.94798 0.08043 0.27024 0.0
C261 C 0.9618 0.16117 0.29448 0.0
O262 O 0.94354 0.12276 0.23334 0.0
O263 O 0.96454 0.14366 0.20056 0.0
O264 O 0.98559 0.10674 0.30317 0.0
O265 O 0.98968 0.12319 0.25528 0.0
Co266 Co 0.13293 0.7107 0.51574 0.0
O267 O 0.15395 0.71809 0.48261 0.0
O268 O 0.15837 0.69303 0.52147 0.0
C269 C 0.12484 0.74504 0.52958 0.0
O270 O 0.11503 0.69901 0.55451 0.0
Co271 Co 0.08501 0.72505 0.50956 0.0
O272 O 0.08411 0.71774 0.55765 0.0
C273 C 0.10074 0.68634 0.47316 0.0
C274 C 0.16625 0.70364 0.49624 0.0
C275 C 0.09748 0.70423 0.56962 0.0
O276 O 0.11983 0.68856 0.48516 0.0
O277 O 0.08524 0.69947 0.47894 0.0
O278 O 0.14157 0.73563 0.54259 0.0
O279 O 0.1147 0.73408 0.50719 0.0
Co280 Co 0.54106 0.11213 0.71966 0.0
O281 O 0.53339 0.08925 0.7494 0.0
O282 O 0.56541 0.09286 0.72547 0.0
C283 C 0.5109 0.11053 0.68841 0.0
O284 O 0.55455 0.1335 0.68716 0.0
Co285 Co 0.51271 0.15352 0.71523 0.0
O286 O 0.5298 0.15865 0.67415 0.0
C287 C 0.54279 0.14748 0.77199 0.0
C288 C 0.55279 0.08199 0.74524 0.0
C289 C 0.548 0.1496 0.6696 0.0
O290 O 0.55061 0.1303 0.75865 0.0
O291 O 0.5268 0.15788 0.75972 0.0
O292 O 0.52685 0.09759 0.68212 0.0
O293 O 0.51303 0.12247 0.71447 0.0
Co294 Co 0.14361 0.29623 0.94339 0.0
O295 O 0.17115 0.29146 0.96347 0.0
O296 O 0.16005 0.32274 0.9424 0.0
C297 C 0.14301 0.2663 0.91168 0.0
O298 O 0.11646 0.30691 0.9204 0.0
Co299 Co 0.10614 0.26379 0.95574 0.0
O300 O 0.09207 0.28005 0.91891 0.0
C301 C 0.12061 0.29291 0.00951 0.0
C302 C 0.17487 0.31171 0.95776 0.0
C303 C 0.09854 0.29876 0.9103 0.0
O304 O 0.13166 0.30394 0.98845 0.0
O305 O 0.11101 0.27526 0.00202 0.0
O306 O 0.153 0.28344 0.90109 0.0
O307 O 0.13572 0.26726 0.94173 0.0
Co308 Co 0.95806 0.89662 0.22434 0.0
O309 O 0.9624 0.92174 0.25148 0.0
O310 O 0.93183 0.91336 0.22578 0.0
C311 C 0.98868 0.89972 0.19442 0.0
O312 O 0.94759 0.87255 0.1939 0.0
Co313 Co 0.99025 0.8581 0.22562 0.0
O314 O 0.97428 0.84868 0.18522 0.0
C315 C 0.95778 0.86319 0.27955 0.0
C316 C 0.9426 0.92672 0.24444 0.0
C317 C 0.95551 0.85599 0.17898 0.0
O318 O 0.94912 0.87941 0.26465 0.0
O319 O 0.97491 0.85382 0.26912 0.0
O320 O 0.97171 0.91073 0.18606 0.0
O321 O 0.98716 0.88892 0.22179 0.0
Co322 Co 0.35942 0.71304 0.45343 0.0
O323 O 0.33267 0.72253 0.47208 0.0
O324 O 0.33654 0.69366 0.43987 0.0
C325 C 0.37055 0.74575 0.43582 0.0
O326 O 0.38444 0.69905 0.42883 0.0
Co327 Co 0.40277 0.73031 0.48286 0.0
O328 O 0.41469 0.71755 0.44127 0.0
C329 C 0.37825 0.69678 0.51851 0.0
C330 C 0.32391 0.70628 0.45688 0.0
C331 C 0.40452 0.70339 0.42439 0.0
O332 O 0.36546 0.6945 0.49355 0.0
O333 O 0.39269 0.71147 0.52046 0.0
O334 O 0.35699 0.73467 0.418 0.0
O335 O 0.37498 0.73777 0.46473 0.0
Co336 Co 0.45481 0.11128 0.21259 0.0
O337 O 0.46123 0.0833 0.23033 0.0
O338 O 0.4336 0.0907 0.19698 0.0
C339 C 0.4884 0.1199 0.19555 0.0
O340 O 0.44346 0.13824 0.18965 0.0
Co341 Co 0.47598 0.15139 0.2466 0.0
O342 O 0.46006 0.1674 0.21146 0.0
C343 C 0.44023 0.12892 0.27955 0.0
C344 C 0.44434 0.07659 0.21433 0.0
C345 C 0.44665 0.15875 0.19135 0.0
O346 O 0.43655 0.11804 0.25286 0.0
O347 O 0.45667 0.14111 0.28348 0.0
O348 O 0.47621 0.10767 0.17719 0.0
O349 O 0.48096 0.1241 0.2249 0.0
Co350 Co 0.64185 0.70363 0.95076 0.0
O351 O 0.67039 0.71065 0.96505 0.0
O352 O 0.66008 0.67847 0.94633 0.0
C353 C 0.63672 0.73345 0.91984 0.0
O354 O 0.61398 0.69092 0.93274 0.0
Co355 Co 0.60331 0.73313 0.97025 0.0
O356 O 0.58826 0.71647 0.93476 0.0
C357 C 0.62404 0.70533 0.0207 0.0
C358 C 0.67524 0.69083 0.95806 0.0
C359 C 0.59521 0.69818 0.92499 0.0
O360 O 0.63415 0.69506 -0.00231 0.0
O361 O 0.61269 0.72221 0.01517 0.0
O362 O 0.64692 0.71706 0.90718 0.0
O363 O 0.6318 0.73192 0.95097 0.0
Co364 Co 0.04322 0.88496 0.72036 0.0
O365 O 0.03634 0.90643 0.75317 0.0
O366 O 0.06245 0.90937 0.71575 0.0
C367 C 0.00896 0.8784 0.70398 0.0
O368 O 0.05474 0.86648 0.68223 0.0
Co369 Co 0.02601 0.83781 0.72577 0.0
O370 O 0.03404 0.83684 0.67799 0.0
C371 C 0.06452 0.85139 0.76454 0.0
C372 C 0.05192 0.9178 0.7406 0.0
C373 C 0.04853 0.84941 0.66666 0.0
O374 O 0.0638 0.87058 0.75238 0.0
O375 O 0.05066 0.83667 0.75794 0.0
O376 O 0.01942 0.89479 0.69182 0.0
O377 O 0.01874 0.868 0.72732 0.0
Co378 Co 0.85795 0.29533 0.44574 0.0
O379 O 0.82949 0.28518 0.45473 0.0
O380 O 0.83734 0.31789 0.43557 0.0
C381 C 0.86947 0.26581 0.41854 0.0
O382 O 0.88561 0.31059 0.43218 0.0
Co383 Co 0.89687 0.27088 0.47727 0.0
O384 O 0.91296 0.28774 0.44312 0.0
C385 C 0.87117 0.30046 0.51847 0.0
C386 C 0.82285 0.30391 0.44477 0.0
C387 C 0.90546 0.30482 0.42968 0.0
O388 O 0.86087 0.30679 0.49244 0.0
O389 O 0.88467 0.28485 0.51832 0.0
O390 O 0.85811 0.28027 0.40297 0.0
O391 O 0.87115 0.26843 0.45038 0.0
Co392 Co 0.46533 0.88971 0.26554 0.0
O393 O 0.46983 0.91395 0.23626 0.0
O394 O 0.44073 0.90864 0.26732 0.0
C395 C 0.49792 0.89022 0.29061 0.0
O396 O 0.45485 0.86744 0.29902 0.0
Co397 Co 0.49342 0.84809 0.26227 0.0
O398 O 0.47923 0.84096 0.30527 0.0
C399 C 0.45678 0.85417 0.21527 0.0
C400 C 0.45113 0.92076 0.24633 0.0
C401 C 0.46179 0.85034 0.31365 0.0
O402 O 0.45185 0.87246 0.2284 0.0
O403 O 0.47321 0.84303 0.22405 0.0
O404 O 0.48279 0.90325 0.30032 0.0
O405 O 0.49368 0.87915 0.26417 0.0
Co406 Co 0.85953 0.71462 0.03567 0.0
O407 O 0.83365 0.72279 0.01299 0.0
O408 O 0.83722 0.69366 0.04477 0.0
C409 C 0.86803 0.74739 0.0562 0.0
O410 O 0.88377 0.70117 0.06256 0.0
Co411 Co 0.9034 0.73451 0.01297 0.0
O412 O 0.91457 0.71956 0.05337 0.0
C413 C 0.88198 0.70148 0.97202 0.0
C414 C 0.82526 0.70524 0.02498 0.0
C415 C 0.90381 0.70495 0.06835 0.0
O416 O 0.86873 0.69747 0.99576 0.0
O417 O 0.89547 0.71711 0.97244 0.0
O418 O 0.85402 0.73537 0.07162 0.0
O419 O 0.87437 0.74023 0.02767 0.0
Co420 Co 0.04321 0.1087 0.78757 0.0
O421 O 0.03226 0.07999 0.7833 0.0
O422 O 0.06621 0.0881 0.79547 0.0
C423 C 0.01567 0.12132 0.81857 0.0
O424 O 0.05975 0.13657 0.79551 0.0
Co425 Co 0.01711 0.14689 0.75746 0.0
O426 O 0.03951 0.16488 0.77942 0.0
C427 C 0.04134 0.11792 0.7133 0.0
C428 C 0.05158 0.07343 0.7902 0.0
C429 C 0.05653 0.157 0.79247 0.0
O430 O 0.0508 0.10948 0.73868 0.0
O431 O 0.02563 0.1312 0.71577 0.0
O432 O 0.03133 0.11082 0.83274 0.0
O433 O 0.01623 0.12201 0.78644 0.0
Co434 Co 0.63741 0.28987 0.5241 0.0
O435 O 0.65776 0.28337 0.48956 0.0
O436 O 0.66204 0.30877 0.52795 0.0
C437 C 0.63087 0.25536 0.53898 0.0
O438 O 0.62022 0.30101 0.56373 0.0
Co439 Co 0.58994 0.27357 0.52108 0.0
O440 O 0.5898 0.28164 0.56893 0.0
C441 C 0.60337 0.31207 0.48207 0.0
C442 C 0.66953 0.29875 0.5019 0.0
C443 C 0.60317 0.29553 0.57988 0.0
O444 O 0.62256 0.3112 0.49408 0.0
O445 O 0.58872 0.2981 0.48851 0.0
O446 O 0.64764 0.26537 0.55082 0.0
O447 O 0.61991 0.26582 0.51701 0.0
H448 H 0.0857 0.37372 0.1757 0.0
H449 H 0.11104 0.26998 0.0654 0.0
H450 H 0.07481 0.30785 0.20612 0.0
H451 H 0.12456 0.33468 0.03157 0.0
H452 H 0.10303 0.28402 0.12057 0.0
H453 H 0.10522 0.36039 0.12639 0.0
C454 C 0.08775 0.35652 0.17228 0.0
C455 C 0.07826 0.34183 0.19448 0.0
C456 C 0.10789 0.29522 0.10125 0.0
C457 C 0.10038 0.32657 0.13866 0.0
C458 C 0.1124 0.28718 0.06966 0.0
C459 C 0.11806 0.30123 0.04374 0.0
C460 C 0.10865 0.31757 0.10695 0.0
C461 C 0.12003 0.32333 0.05086 0.0
C462 C 0.09881 0.34892 0.14418 0.0
C463 C 0.08143 0.31972 0.18915 0.0
N464 N 0.11497 0.3309 0.08174 0.0
N465 N 0.09202 0.3128 0.16168 0.0
H466 H 0.96844 0.8261 0.31194 0.0
H467 H 0.87826 0.8304 0.45176 0.0
H468 H 0.92171 0.87778 0.31321 0.0
H469 H 0.9112 0.7725 0.42033 0.0
H470 H 0.89396 0.84952 0.40378 0.0
H471 H 0.94888 0.8083 0.35622 0.0
C472 C 0.95412 0.83385 0.32165 0.0
C473 C 0.94672 0.8535 0.30863 0.0
C474 C 0.89745 0.83257 0.40732 0.0
C475 C 0.92397 0.83286 0.3596 0.0
C476 C 0.88844 0.82162 0.43453 0.0
C477 C 0.89372 0.7999 0.44039 0.0
C478 C 0.91186 0.82167 0.38622 0.0
C479 C 0.90698 0.78933 0.41726 0.0
C480 C 0.94281 0.82351 0.34685 0.0
C481 C 0.92798 0.86262 0.32245 0.0
N482 N 0.91575 0.80037 0.39151 0.0
N483 N 0.91721 0.85221 0.34734 0.0
H484 H 0.40542 0.62906 0.70054 0.0
H485 H 0.38847 0.65506 0.50825 0.0
H486 H 0.45717 0.62567 0.6289 0.0
H487 H 0.37179 0.70046 0.58542 0.0
H488 H 0.401 0.62972 0.55132 0.0
H489 H 0.38092 0.64063 0.65579 0.0
C490 C 0.4114 0.62999 0.67518 0.0
C491 C 0.43331 0.62667 0.66821 0.0
C492 C 0.39377 0.64489 0.55871 0.0
C493 C 0.40547 0.63924 0.61746 0.0
C494 C 0.38655 0.65923 0.53435 0.0
C495 C 0.37915 0.67971 0.54363 0.0
C496 C 0.39303 0.65104 0.59231 0.0
C497 C 0.37738 0.68472 0.57755 0.0
C498 C 0.39747 0.6366 0.64986 0.0
C499 C 0.4404 0.6283 0.63514 0.0
N500 N 0.38446 0.67048 0.60084 0.0
N501 N 0.4265 0.63463 0.61088 0.0
H502 H 0.57655 0.13079 0.80875 0.0
H503 H 0.57966 0.23313 0.93 0.0
H504 H 0.53293 0.18503 0.80385 0.0
H505 H 0.61787 0.1761 0.94826 0.0
H506 H 0.56522 0.21642 0.88013 0.0
H507 H 0.59407 0.14747 0.85725 0.0
C508 C 0.57061 0.14612 0.81785 0.0
C509 C 0.5532 0.15649 0.80214 0.0
C510 C 0.57679 0.2075 0.89494 0.0
C511 C 0.57326 0.17565 0.85719 0.0
C512 C 0.58511 0.21708 0.92349 0.0
C513 C 0.59985 0.20593 0.94365 0.0
C514 C 0.58315 0.18652 0.88628 0.0
C515 C 0.60646 0.18525 0.93354 0.0
C516 C 0.58064 0.15562 0.84547 0.0
C517 C 0.54623 0.17634 0.81503 0.0
N518 N 0.59794 0.17612 0.9056 0.0
N519 N 0.5563 0.18523 0.84166 0.0
H520 H 0.02636 0.60762 0.34846 0.0
H521 H 0.12753 0.66582 0.42874 0.0
H522 H 0.08615 0.61779 0.29598 0.0
H523 H 0.0632 0.66427 0.46945 0.0
H524 H 0.11681 0.63828 0.38777 0.0
H525 H 0.04431 0.61674 0.40071 0.0
C526 C 0.04345 0.61123 0.34816 0.0
C527 C 0.05472 0.61248 0.31797 0.0
C528 C 0.10521 0.6437 0.40614 0.0
C529 C 0.07515 0.62373 0.37727 0.0
C530 C 0.1113 0.65938 0.42942 0.0
C531 C 0.09601 0.66767 0.45175 0.0
C532 C 0.08382 0.63622 0.40571 0.0
C533 C 0.07529 0.65871 0.45198 0.0
C534 C 0.05369 0.61654 0.37792 0.0
C535 C 0.07688 0.61691 0.31883 0.0
N536 N 0.06975 0.64364 0.42908 0.0
N537 N 0.08631 0.62302 0.34799 0.0
H538 H 0.63212 0.83268 0.58721 0.0
H539 H 0.52597 0.8835 0.65939 0.0
H540 H 0.57405 0.84283 0.5304 0.0
H541 H 0.58613 0.88476 0.71329 0.0
H542 H 0.5456 0.87537 0.60831 0.0
H543 H 0.61846 0.85767 0.63004 0.0
C544 C 0.61681 0.8407 0.5834 0.0
C545 C 0.60396 0.83563 0.55577 0.0
C546 C 0.55466 0.87785 0.63109 0.0
C547 C 0.58821 0.86378 0.60418 0.0
C548 C 0.5434 0.88255 0.66024 0.0
C549 C 0.55443 0.8845 0.69056 0.0
C550 C 0.57704 0.87439 0.63248 0.0
C551 C 0.57703 0.88327 0.69034 0.0
C552 C 0.60898 0.85488 0.60777 0.0
C553 C 0.58422 0.8462 0.55176 0.0
N554 N 0.58759 0.87772 0.66186 0.0
N555 N 0.57682 0.85955 0.57591 0.0
H556 H 0.37982 0.28443 0.90514 0.0
H557 H 0.45158 0.37452 0.85119 0.0
H558 H 0.37816 0.34267 0.96401 0.0
H559 H 0.41104 0.34613 0.77567 0.0
H560 H 0.42559 0.36323 0.89392 0.0
H561 H 0.39147 0.30575 0.85683 0.0
C562 C 0.38151 0.30175 0.90763 0.0
C563 C 0.3783 0.31185 0.93848 0.0
C564 C 0.42209 0.36005 0.86788 0.0
C565 C 0.39195 0.33601 0.88406 0.0
C566 C 0.43689 0.36641 0.84368 0.0
C567 C 0.43324 0.36118 0.81022 0.0
C568 C 0.40417 0.34766 0.85844 0.0
C569 C 0.41418 0.35048 0.8014 0.0
C570 C 0.38797 0.31388 0.88013 0.0
C571 C 0.38056 0.33433 0.94056 0.0
N572 N 0.40056 0.34345 0.82557 0.0
N573 N 0.38789 0.34564 0.91389 0.0
H574 H 0.87204 0.15798 0.03005 0.0
H575 H 0.90699 0.14809 0.22024 0.0
H576 H 0.87113 0.21282 0.09632 0.0
H577 H 0.9473 0.12656 0.13926 0.0
H578 H 0.88031 0.16095 0.17931 0.0
H579 H 0.88569 0.13563 0.07588 0.0
C580 C 0.87392 0.16513 0.05455 0.0
C581 C 0.87073 0.18732 0.05944 0.0
C582 C 0.89471 0.15279 0.17073 0.0
C583 C 0.88589 0.16184 0.11159 0.0
C584 C 0.90981 0.1454 0.19388 0.0
C585 C 0.92925 0.13638 0.18282 0.0
C586 C 0.89896 0.15049 0.13658 0.0
C587 C 0.93246 0.13351 0.14854 0.0
C588 C 0.88178 0.15239 0.0805 0.0
C589 C 0.87363 0.19582 0.09156 0.0
N590 N 0.91744 0.14063 0.1265 0.0
N591 N 0.88125 0.18307 0.11648 0.0
H592 H 0.90914 0.63891 0.78532 0.0
H593 H 0.88744 0.65837 0.97802 0.0
H594 H 0.95799 0.62694 0.85961 0.0
H595 H 0.88162 0.70926 0.90523 0.0
H596 H 0.89881 0.63361 0.9334 0.0
H597 H 0.8846 0.65102 0.82966 0.0
C598 C 0.91434 0.638 0.81111 0.0
C599 C 0.93554 0.63216 0.81912 0.0
C600 C 0.89428 0.65 0.92723 0.0
C601 C 0.9077 0.64536 0.86924 0.0
C602 C 0.88781 0.66406 0.95245 0.0
C603 C 0.88384 0.68578 0.94498 0.0
C604 C 0.89608 0.65773 0.89452 0.0
C605 C 0.88475 0.6926 0.91174 0.0
C606 C 0.90041 0.64493 0.83618 0.0
C607 C 0.94175 0.6315 0.85268 0.0
N608 N 0.89092 0.67859 0.88758 0.0
N609 N 0.92788 0.63824 0.87667 0.0
H610 H 0.12564 0.15813 0.5618 0.0
H611 H 0.02057 0.1169 0.65352 0.0
H612 H 0.06088 0.16244 0.52314 0.0
H613 H 0.08396 0.11384 0.69741 0.0
H614 H 0.03691 0.12361 0.59923 0.0
H615 H 0.11264 0.13324 0.60511 0.0
C616 C 0.1088 0.15351 0.56205 0.0
C617 C 0.09417 0.16278 0.53954 0.0
C618 C 0.04735 0.12105 0.62053 0.0
C619 C 0.07928 0.1344 0.58852 0.0
C620 C 0.03799 0.11711 0.65149 0.0
C621 C 0.05094 0.11527 0.67997 0.0
C622 C 0.0698 0.12378 0.61824 0.0
C623 C 0.07342 0.11538 0.67601 0.0
C624 C 0.10139 0.13933 0.58672 0.0
C625 C 0.07258 0.15613 0.54065 0.0
N626 N 0.08217 0.12021 0.6458 0.0
N627 N 0.06577 0.14258 0.56497 0.0
H628 H 0.63033 0.33791 0.44485 0.0
H629 H 0.58887 0.38318 0.30099 0.0
H630 H 0.56329 0.32727 0.46841 0.0
H631 H 0.5274 0.38089 0.35093 0.0
H632 H 0.60662 0.374 0.35332 0.0
H633 H 0.61952 0.36431 0.4027 0.0
C634 C 0.61335 0.34124 0.44126 0.0
C635 C 0.59764 0.32988 0.45935 0.0
C636 C 0.58936 0.37623 0.35341 0.0
C637 C 0.58508 0.35978 0.41097 0.0
C638 C 0.57921 0.38156 0.32336 0.0
C639 C 0.55665 0.38224 0.32164 0.0
C640 C 0.5767 0.37167 0.3817 0.0
C641 C 0.54483 0.38001 0.35116 0.0
C642 C 0.60715 0.35624 0.41699 0.0
C643 C 0.57593 0.33513 0.45429 0.0
N644 N 0.55497 0.37444 0.37983 0.0
N645 N 0.57033 0.34949 0.4304 0.0
H646 H 0.42484 0.87357 0.17762 0.0
H647 H 0.39334 0.76124 0.09283 0.0
H648 H 0.45421 0.81187 0.19854 0.0
H649 H 0.375 0.82246 0.05017 0.0
H650 H 0.40769 0.78005 0.14131 0.0
H651 H 0.40012 0.85552 0.13844 0.0
C652 C 0.4261 0.8563 0.174 0.0
C653 C 0.44187 0.84427 0.19092 0.0
C654 C 0.40026 0.7894 0.12158 0.0
C655 C 0.41345 0.82363 0.1472 0.0
C656 C 0.39196 0.77864 0.094 0.0
C657 C 0.3834 0.79035 0.0672 0.0
C658 C 0.40031 0.81204 0.12217 0.0
C659 C 0.38167 0.81285 0.07024 0.0
C660 C 0.41196 0.84604 0.15183 0.0
C661 C 0.44264 0.82192 0.18561 0.0
N662 N 0.39051 0.82308 0.09699 0.0
N663 N 0.42868 0.81239 0.16428 0.0
H664 H 0.89754 0.35063 0.71439 0.0
H665 H 0.87036 0.34416 0.52086 0.0
H666 H 0.93932 0.37685 0.63866 0.0
H667 H 0.87168 0.28769 0.58372 0.0
H668 H 0.87997 0.36638 0.5693 0.0
H669 H 0.87281 0.33808 0.67041 0.0
C670 C 0.90102 0.35445 0.68855 0.0
C671 C 0.92034 0.36467 0.67978 0.0
C672 C 0.87735 0.34923 0.57256 0.0
C673 C 0.89229 0.35089 0.63014 0.0
C674 C 0.87179 0.33657 0.54512 0.0
C675 C 0.8705 0.31408 0.54844 0.0
C676 C 0.88101 0.33931 0.60343 0.0
C677 C 0.87275 0.30498 0.58025 0.0
C678 C 0.88702 0.34726 0.66367 0.0
C679 C 0.9245 0.36899 0.64614 0.0
N680 N 0.87812 0.31764 0.60661 0.0
N681 N 0.91058 0.36195 0.62236 0.0
H682 H 0.44273 0.11929 0.34569 0.0
H683 H 0.37335 0.21043 0.39655 0.0
H684 H 0.39988 0.14409 0.27025 0.0
H685 H 0.37224 0.15438 0.46024 0.0
H686 H 0.38231 0.18715 0.34905 0.0
H687 H 0.4174 0.13141 0.38884 0.0
C688 C 0.42763 0.12666 0.33831 0.0
C689 C 0.42317 0.13063 0.30465 0.0
C690 C 0.37937 0.1799 0.37323 0.0
C691 C 0.39484 0.14527 0.35339 0.0
C692 C 0.37429 0.19314 0.40023 0.0
C693 C 0.37213 0.18425 0.4322 0.0
C694 C 0.38315 0.15787 0.37869 0.0
C695 C 0.3737 0.16179 0.43587 0.0
C696 C 0.41322 0.13353 0.36279 0.0
C697 C 0.40365 0.14059 0.29609 0.0
N698 N 0.37985 0.14939 0.4096 0.0
N699 N 0.39043 0.14821 0.32042 0.0
H700 H 0.58754 0.6252 0.18372 0.0
H701 H 0.62136 0.72804 0.07843 0.0
H702 H 0.58296 0.69112 0.21733 0.0
H703 H 0.62701 0.66314 0.04071 0.0
H704 H 0.61527 0.71367 0.13411 0.0
H705 H 0.60951 0.63742 0.13623 0.0
C706 C 0.59159 0.64214 0.18148 0.0
C707 C 0.58306 0.65729 0.20383 0.0
C708 C 0.61809 0.70248 0.11384 0.0
C709 C 0.60794 0.67129 0.15008 0.0
C710 C 0.62154 0.71072 0.08202 0.0
C711 C 0.62419 0.69672 0.05493 0.0
C712 C 0.61674 0.68006 0.11851 0.0
C713 C 0.62476 0.67444 0.061 0.0
C714 C 0.60404 0.64911 0.15441 0.0
C715 C 0.5888 0.679 0.2001 0.0
N716 N 0.62055 0.66673 0.09212 0.0
N717 N 0.60065 0.68537 0.17352 0.0
H718 H 0.08489 0.81296 0.76908 0.0
H719 H 0.12756 0.83859 0.95126 0.0
H720 H 0.08354 0.87649 0.8128 0.0
H721 H 0.11586 0.77518 0.91093 0.0
H722 H 0.12304 0.85386 0.89515 0.0
H723 H 0.10804 0.80072 0.81433 0.0
C724 C 0.08976 0.82441 0.78808 0.0
C725 C 0.08189 0.84558 0.78785 0.0
C726 C 0.12203 0.83656 0.8985 0.0
C727 C 0.108 0.83159 0.84007 0.0
C728 C 0.12472 0.82784 0.93041 0.0
C729 C 0.12161 0.80567 0.93563 0.0
C730 C 0.11642 0.82291 0.8719 0.0
C731 C 0.11794 0.79241 0.90795 0.0
C732 C 0.103 0.81744 0.81387 0.0
C733 C 0.08908 0.85993 0.81248 0.0
N734 N 0.11517 0.80127 0.87735 0.0
N735 N 0.10136 0.85253 0.8382 0.0
H736 H 0.09895 0.3439 0.32809 0.0
H737 H 0.09353 0.25981 0.479 0.0
H738 H 0.04037 0.32415 0.37728 0.0
H739 H 0.1453 0.2603 0.40709 0.0
H740 H 0.07769 0.29102 0.45141 0.0
H741 H 0.11962 0.32103 0.3667 0.0
C742 C 0.09053 0.33526 0.34763 0.0
C743 C 0.06795 0.33574 0.34948 0.0
C744 C 0.09264 0.28445 0.44186 0.0
C745 C 0.09133 0.30968 0.39329 0.0
C746 C 0.10171 0.26661 0.45756 0.0
C747 C 0.12058 0.25721 0.44495 0.0
C748 C 0.10252 0.29307 0.41336 0.0
C749 C 0.1306 0.26692 0.41738 0.0
C750 C 0.10228 0.32208 0.36937 0.0
C751 C 0.05776 0.32406 0.37492 0.0
N752 N 0.12132 0.28426 0.40225 0.0
N753 N 0.06951 0.31141 0.39571 0.0
H754 H 0.92958 0.78017 0.62341 0.0
H755 H 0.98785 0.89204 0.64711 0.0
H756 H 0.90575 0.83694 0.57329 0.0
H757 H 0.98632 0.84323 0.72392 0.0
H758 H 0.95903 0.8726 0.61746 0.0
H759 H 0.95235 0.80306 0.65834 0.0
C760 C 0.92907 0.7975 0.61995 0.0
C761 C 0.91584 0.80671 0.59545 0.0
C762 C 0.96487 0.86639 0.64105 0.0
C763 C 0.94207 0.83297 0.63492 0.0
C764 C 0.98128 0.87745 0.65794 0.0
C765 C 0.98969 0.86908 0.68778 0.0
C766 C 0.95718 0.84676 0.65396 0.0
C767 C 0.98056 0.85013 0.70076 0.0
C768 C 0.94198 0.81056 0.63994 0.0
C769 C 0.91568 0.82926 0.59206 0.0
N770 N 0.96505 0.83947 0.68355 0.0
N771 N 0.92889 0.84166 0.61127 0.0
H772 H 0.38278 0.71305 0.94985 0.0
H773 H 0.441 0.69507 0.77732 0.0
H774 H 0.37053 0.75409 0.86499 0.0
H775 H 0.42728 0.64182 0.84346 0.0
H776 H 0.418 0.7182 0.81135 0.0
H777 H 0.40154 0.68764 0.91329 0.0
C778 C 0.3839 0.71658 0.92342 0.0
C779 C 0.37516 0.73564 0.91031 0.0
C780 C 0.41994 0.70143 0.81829 0.0
C781 C 0.39686 0.70694 0.86865 0.0
C782 C 0.43321 0.68825 0.79909 0.0
C783 C 0.43617 0.66651 0.80774 0.0
C784 C 0.40987 0.69294 0.8467 0.0
C785 C 0.42544 0.65849 0.83596 0.0
C786 C 0.39453 0.70208 0.90263 0.0
C787 C 0.37699 0.7395 0.87597 0.0
N788 N 0.41292 0.6718 0.8547 0.0
N789 N 0.38793 0.72539 0.85632 0.0
H790 H 0.57105 0.22141 0.12993 0.0
H791 H 0.51047 0.11015 0.13854 0.0
H792 H 0.59434 0.16578 0.07629 0.0
H793 H 0.50987 0.1547 0.22124 0.0
H794 H 0.54011 0.13067 0.11354 0.0
H795 H 0.54735 0.19785 0.16245 0.0
C796 C 0.57133 0.2042 0.12527 0.0
C797 C 0.58458 0.19552 0.10031 0.0
C798 C 0.53364 0.13578 0.13736 0.0
C799 C 0.55728 0.1686 0.13691 0.0
C800 C 0.51669 0.12414 0.15155 0.0
C801 C 0.5076 0.13085 0.18186 0.0
C802 C 0.5412 0.15448 0.15326 0.0
C803 C 0.51633 0.14903 0.19776 0.0
C804 C 0.55787 0.19077 0.14388 0.0
C805 C 0.58441 0.1731 0.09538 0.0
N806 N 0.53244 0.16042 0.18302 0.0
N807 N 0.57067 0.16043 0.11313 0.0
H808 H 0.0862 0.65705 0.19067 0.0
H809 H 0.07844 0.75241 0.06082 0.0
H810 H 0.02529 0.68688 0.16691 0.0
H811 H 0.13133 0.74957 0.13058 0.0
H812 H 0.06011 0.72391 0.09222 0.0
H813 H 0.10481 0.68646 0.16111 0.0
C814 C 0.07678 0.66971 0.17907 0.0
C815 C 0.05421 0.66963 0.18123 0.0
C816 C 0.07569 0.72961 0.10067 0.0
C817 C 0.07524 0.70287 0.14729 0.0
C818 C 0.08616 0.74579 0.08279 0.0
C819 C 0.10636 0.75333 0.09326 0.0
C820 C 0.08577 0.72051 0.12866 0.0
C821 C 0.11568 0.74425 0.12191 0.0
C822 C 0.08738 0.68649 0.1625 0.0
C823 C 0.04272 0.68645 0.16598 0.0
N824 N 0.10541 0.72807 0.13847 0.0
N825 N 0.05336 0.70229 0.14936 0.0
H826 H 0.49982 0.8944 0.3584 0.0
H827 H 0.60691 0.82501 0.38383 0.0
H828 H 0.53527 0.86972 0.27406 0.0
H829 H 0.55143 0.8213 0.4485 0.0
H830 H 0.58642 0.84925 0.34662 0.0
H831 H 0.52526 0.87632 0.39583 0.0
C832 C 0.51328 0.88566 0.34778 0.0
C833 C 0.51542 0.8834 0.31315 0.0
C834 C 0.57889 0.8431 0.36906 0.0
C835 C 0.54442 0.86273 0.35568 0.0
C836 C 0.5905 0.82931 0.39016 0.0
C837 C 0.58071 0.82091 0.41894 0.0
C838 C 0.55772 0.84895 0.37754 0.0
C839 C 0.55946 0.82708 0.42624 0.0
C840 C 0.52765 0.87521 0.36911 0.0
C841 C 0.53305 0.87171 0.30068 0.0
N842 N 0.54874 0.8408 0.40581 0.0
N843 N 0.54686 0.86167 0.32196 0.0
H844 H 0.39354 0.26922 0.53738 0.0
H845 H 0.46079 0.29205 0.70194 0.0
H846 H 0.38574 0.23225 0.62781 0.0
H847 H 0.44096 0.34465 0.63823 0.0
H848 H 0.43938 0.26738 0.66821 0.0
H849 H 0.41637 0.29491 0.56812 0.0
C850 C 0.39663 0.26654 0.56367 0.0
C851 C 0.38771 0.24868 0.58019 0.0
C852 C 0.43982 0.28431 0.66153 0.0
C853 C 0.41399 0.27755 0.61498 0.0
C854 C 0.45218 0.29843 0.68059 0.0
C855 C 0.45265 0.32054 0.67301 0.0
C856 C 0.42807 0.29219 0.63428 0.0
C857 C 0.44098 0.32776 0.64507 0.0
C858 C 0.40956 0.28119 0.58111 0.0
C859 C 0.39218 0.2459 0.61421 0.0
N860 N 0.42917 0.31358 0.6266 0.0
N861 N 0.40517 0.26007 0.63042 0.0
H862 H 0.97657 0.13442 0.79571 0.0
H863 H 0.94506 0.20068 0.95744 0.0
H864 H 0.01606 0.13342 0.88436 0.0
H865 H 0.89702 0.17526 0.89011 0.0
H866 H 0.9727 0.18005 0.92786 0.0
H867 H 0.94847 0.15335 0.82688 0.0
C868 C 0.97931 0.1382 0.82177 0.0
C869 C 0.99862 0.13236 0.83756 0.0
C870 C 0.95609 0.17895 0.91969 0.0
C871 C 0.96671 0.15419 0.87312 0.0
C872 C 0.94033 0.1908 0.93638 0.0
C873 C 0.91871 0.18971 0.92614 0.0
C874 C 0.95026 0.16626 0.89217 0.0
C875 C 0.91348 0.17651 0.89888 0.0
C876 C 0.96324 0.1489 0.83952 0.0
C877 C 0.00134 0.13757 0.87135 0.0
N878 N 0.92919 0.16543 0.88261 0.0
N879 N 0.9856 0.1484 0.888 0.0
H880 H 0.93198 0.64665 0.64617 0.0
H881 H 0.8686 0.75857 0.63208 0.0
H882 H 0.94375 0.70093 0.71119 0.0
H883 H 0.87873 0.71679 0.5475 0.0
H884 H 0.88965 0.73362 0.66673 0.0
H885 H 0.90655 0.66885 0.61417 0.0
C886 C 0.92927 0.66321 0.65366 0.0
C887 C 0.94018 0.67201 0.68118 0.0
C888 C 0.88697 0.7298 0.64068 0.0
C889 C 0.91082 0.69721 0.6453 0.0
C890 C 0.87479 0.74388 0.62105 0.0
C891 C 0.87196 0.73965 0.58697 0.0
C892 C 0.89607 0.71129 0.62615 0.0
C893 C 0.88061 0.72058 0.57372 0.0
C894 C 0.91475 0.67583 0.63547 0.0
C895 C 0.93594 0.69354 0.68989 0.0
N896 N 0.89233 0.7071 0.59332 0.0
N897 N 0.92153 0.70536 0.67212 0.0
H898 H 0.0208 0.15187 0.25804 0.0
H899 H 0.10505 0.15375 0.40866 0.0
H900 H 0.02241 0.104 0.33617 0.0
H901 H 0.07839 0.21123 0.36425 0.0
H902 H 0.08482 0.1319 0.36832 0.0
H903 H 0.05169 0.16994 0.28391 0.0
C904 C 0.02787 0.14492 0.28025 0.0
C905 C 0.01879 0.12664 0.29539 0.0
C906 C 0.08389 0.14932 0.36695 0.0
C907 C 0.05427 0.14696 0.32455 0.0
C908 C 0.09554 0.16179 0.3897 0.0
C909 C 0.09316 0.1843 0.38991 0.0
C910 C 0.07015 0.15949 0.344 0.0
C911 C 0.08045 0.1939 0.36505 0.0
C912 C 0.04547 0.15525 0.29495 0.0
C913 C 0.02875 0.11825 0.32401 0.0
N914 N 0.06925 0.18143 0.34323 0.0
N915 N 0.04589 0.12856 0.33783 0.0
H916 H 0.63052 0.28609 0.05063 0.0
H917 H 0.56454 0.30441 0.21529 0.0
H918 H 0.63405 0.24176 0.13332 0.0
H919 H 0.58272 0.35735 0.15117 0.0
H920 H 0.58991 0.2812 0.18573 0.0
H921 H 0.61379 0.31282 0.08718 0.0
C922 C 0.62819 0.28222 0.07675 0.0
C923 C 0.63365 0.26181 0.08912 0.0
C924 C 0.58853 0.29795 0.17837 0.0
C925 C 0.61394 0.29193 0.13074 0.0
C926 C 0.5739 0.31118 0.19502 0.0
C927 C 0.57131 0.33281 0.18542 0.0
C928 C 0.6004 0.30628 0.15152 0.0
C929 C 0.58411 0.34076 0.15929 0.0
C930 C 0.61862 0.29744 0.09757 0.0
C931 C 0.63022 0.25744 0.12301 0.0
N932 N 0.5979 0.3274 0.14293 0.0
N933 N 0.62016 0.27227 0.14257 0.0
H934 H 0.39486 0.8198 0.89107 0.0
H935 H 0.51088 0.87588 0.89203 0.0
H936 H 0.44606 0.80216 0.95865 0.0
H937 H 0.47362 0.86947 0.80161 0.0
H938 H 0.48308 0.85574 0.92212 0.0
H939 H 0.41979 0.84492 0.86295 0.0
C940 C 0.41123 0.82139 0.90014 0.0
C941 C 0.41852 0.80878 0.92694 0.0
C942 C 0.48094 0.85889 0.89573 0.0
C943 C 0.44675 0.83746 0.89555 0.0
C944 C 0.49675 0.87041 0.87859 0.0
C945 C 0.4946 0.87416 0.84426 0.0
C946 C 0.46272 0.85133 0.87852 0.0
C947 C 0.47595 0.86673 0.82805 0.0
C948 C 0.42541 0.83558 0.88408 0.0
C949 C 0.43988 0.81138 0.93778 0.0
N950 N 0.46067 0.85563 0.84534 0.0
N951 N 0.4532 0.82544 0.92213 0.0
H952 H 0.87684 0.275 0.95619 0.0
H953 H 0.94134 0.29783 0.79062 0.0
H954 H 0.86668 0.23915 0.86521 0.0
H955 H 0.92252 0.35142 0.853 0.0
H956 H 0.91908 0.27403 0.82424 0.0
H957 H 0.89776 0.3018 0.92435 0.0
C958 C 0.87885 0.27289 0.92953 0.0
C959 C 0.87006 0.25486 0.91325 0.0
C960 C 0.91984 0.29099 0.83061 0.0
C961 C 0.89416 0.28493 0.87725 0.0
C962 C 0.9327 0.30461 0.81162 0.0
C963 C 0.93381 0.32672 0.81896 0.0
C964 C 0.9082 0.29934 0.85759 0.0
C965 C 0.92205 0.33449 0.84642 0.0
C966 C 0.89071 0.28815 0.91149 0.0
C967 C 0.87312 0.25282 0.87875 0.0
N968 N 0.90976 0.32075 0.86497 0.0
N969 N 0.88514 0.26752 0.86199 0.0
H970 H 0.46951 0.12008 0.70291 0.0
H971 H 0.44988 0.17863 0.53262 0.0
H972 H 0.51318 0.11213 0.62024 0.0
H973 H 0.39728 0.16188 0.59819 0.0
H974 H 0.47332 0.15415 0.56374 0.0
H975 H 0.44245 0.13464 0.66472 0.0
C976 C 0.47316 0.12099 0.6765 0.0
C977 C 0.49347 0.1149 0.66454 0.0
C978 C 0.45658 0.15561 0.57101 0.0
C979 C 0.46297 0.13216 0.62096 0.0
C980 C 0.44322 0.1697 0.55344 0.0
C981 C 0.42165 0.1725 0.56309 0.0
C982 C 0.44843 0.14456 0.59883 0.0
C983 C 0.41383 0.1603 0.58999 0.0
C984 C 0.45775 0.1293 0.65474 0.0
C985 C 0.49758 0.11648 0.63025 0.0
N986 N 0.42731 0.14711 0.60727 0.0
N987 N 0.48258 0.12541 0.60966 0.0
H988 H 0.64434 0.74047 0.40934 0.0
H989 H 0.53498 0.68145 0.37788 0.0
H990 H 0.59293 0.7426 0.48175 0.0
H991 H 0.59443 0.65634 0.338 0.0
H992 H 0.55571 0.70382 0.41662 0.0
H993 H 0.62658 0.70974 0.3824 0.0
C994 C 0.62943 0.73435 0.41974 0.0
C995 C 0.61995 0.74427 0.44755 0.0
C996 C 0.56422 0.69308 0.39989 0.0
C997 C 0.5995 0.70937 0.41674 0.0
C998 C 0.55241 0.68032 0.37783 0.0
C999 C 0.56304 0.66712 0.35471 0.0
C1000 C 0.58682 0.6931 0.39813 0.0
C1001 C 0.58564 0.66625 0.35558 0.0
C1002 C 0.61937 0.71676 0.40448 0.0
C1003 C 0.6007 0.7356 0.46016 0.0
N1004 N 0.59683 0.67946 0.37644 0.0
N1005 N 0.59091 0.71888 0.44432 0.0
H1006 H 0.04702 0.83079 0.0389 0.0
H1007 H 0.02982 0.88887 0.20961 0.0
H1008 H 0.09992 0.84237 0.10653 0.0
H1009 H 0.98717 0.89924 0.12617 0.0
H1010 H 0.05669 0.87382 0.1716 0.0
H1011 H 0.02551 0.85727 0.06916 0.0
C1012 C 0.05418 0.83908 0.05997 0.0
C1013 C 0.07518 0.83416 0.07056 0.0
C1014 C 0.04167 0.87982 0.16144 0.0
C1015 C 0.05057 0.86437 0.10545 0.0
C1016 C 0.02635 0.88839 0.18311 0.0
C1017 C 0.00629 0.89516 0.17092 0.0
C1018 C 0.03662 0.87748 0.1275 0.0
C1019 C 0.0025 0.89423 0.13647 0.0
C1020 C 0.04194 0.8543 0.07708 0.0
C1021 C 0.08376 0.8456 0.09768 0.0
N1022 N 0.01738 0.88507 0.11598 0.0
N1023 N 0.07126 0.85991 0.11463 0.0
H1024 H 0.62895 0.77425 0.94029 0.0
H1025 H 0.55385 0.80315 0.78818 0.0
H1026 H 0.62454 0.73286 0.85409 0.0
H1027 H 0.5817 0.85218 0.85145 0.0
H1028 H 0.57806 0.77653 0.81316 0.0
H1029 H 0.61044 0.80268 0.90928 0.0
C1030 C 0.6243 0.7713 0.91462 0.0
C1031 C 0.62825 0.75129 0.8996 0.0
C1032 C 0.57899 0.79316 0.82131 0.0
C1033 C 0.60669 0.78347 0.86431 0.0
C1034 C 0.56508 0.80833 0.80728 0.0
C1035 C 0.56564 0.8299 0.81795 0.0
C1036 C 0.59328 0.79952 0.84659 0.0
C1037 C 0.58068 0.83573 0.84251 0.0
C1038 C 0.61379 0.78751 0.89695 0.0
C1039 C 0.62191 0.74818 0.86637 0.0
N1040 N 0.59373 0.82057 0.8563 0.0
N1041 N 0.61109 0.76404 0.84991 0.0
H1042 H 0.49167 0.34591 0.21054 0.0
H1043 H 0.40364 0.34289 0.06813 0.0
H1044 H 0.49267 0.3928 0.13095 0.0
H1045 H 0.4323 0.28453 0.10647 0.0
H1046 H 0.43046 0.36407 0.09919 0.0
H1047 H 0.46401 0.32568 0.18049 0.0
C1048 C 0.486 0.35203 0.18682 0.0
C1049 C 0.49453 0.37102 0.1731 0.0
C1050 C 0.43075 0.34664 0.1008 0.0
C1051 C 0.46264 0.34815 0.13906 0.0
C1052 C 0.41542 0.33457 0.0834 0.0
C1053 C 0.41583 0.31197 0.08483 0.0
C1054 C 0.44615 0.33598 0.12038 0.0
C1055 C 0.43153 0.30194 0.10465 0.0
C1056 C 0.47028 0.34042 0.1697 0.0
C1057 C 0.48657 0.37816 0.14225 0.0
N1058 N 0.446 0.31404 0.12191 0.0
N1059 N 0.47088 0.36678 0.1263 0.0
H1060 H 0.88181 0.26682 0.35328 0.0
H1061 H 0.93951 0.15288 0.35233 0.0
H1062 H 0.88766 0.2291 0.44334 0.0
H1063 H 0.95783 0.20464 0.28598 0.0
H1064 H 0.91721 0.1784 0.38388 0.0
H1065 H 0.90587 0.24151 0.32492 0.0
C1066 C 0.88799 0.25307 0.36696 0.0
C1067 C 0.88272 0.24993 0.4006 0.0
C1068 C 0.92632 0.18412 0.36259 0.0
C1069 C 0.91017 0.22104 0.36844 0.0
C1070 C 0.93904 0.16962 0.34462 0.0
C1071 C 0.95054 0.17663 0.31646 0.0
C1072 C 0.92477 0.20561 0.35184 0.0
C1073 C 0.94933 0.19851 0.30758 0.0
C1074 C 0.90185 0.23878 0.35089 0.0
C1075 C 0.89136 0.23202 0.41732 0.0
N1076 N 0.93645 0.21215 0.32495 0.0
N1077 N 0.90459 0.21811 0.40099 0.0
H1078 H 0.10277 0.66109 0.57966 0.0
H1079 H 0.01914 0.65649 0.73072 0.0
H1080 H 0.07445 0.7179 0.62354 0.0
H1081 H 0.02099 0.60876 0.6524 0.0
H1082 H 0.04855 0.6759 0.70328 0.0
H1083 H 0.08228 0.63869 0.619 0.0
C1084 C 0.09283 0.66887 0.59833 0.0
C1085 C 0.09015 0.69134 0.59834 0.0
C1086 C 0.04268 0.66102 0.69243 0.0
C1087 C 0.06681 0.66594 0.64302 0.0
C1088 C 0.0259 0.64992 0.708 0.0
C1089 C 0.0174 0.63116 0.69349 0.0
C1090 C 0.05127 0.65304 0.66254 0.0
C1091 C 0.02691 0.62332 0.66416 0.0
C1092 C 0.08101 0.65609 0.62045 0.0
C1093 C 0.07683 0.70061 0.62268 0.0
N1094 N 0.04333 0.63435 0.64953 0.0
N1095 N 0.06552 0.68785 0.64396 0.0
H1096 H 0.59742 0.23159 0.51575 0.0
H1097 H 0.59204 0.15233 0.67273 0.0
H1098 H 0.64448 0.23338 0.59506 0.0
H1099 H 0.53747 0.17022 0.61199 0.0
H1100 H 0.61534 0.17457 0.63695 0.0
H1101 H 0.57963 0.20146 0.54324 0.0
C1102 C 0.60417 0.22548 0.53883 0.0
C1103 C 0.62226 0.23523 0.55346 0.0
C1104 C 0.59832 0.17332 0.63126 0.0
C1105 C 0.60187 0.20068 0.5851 0.0
C1106 C 0.58507 0.16054 0.65144 0.0
C1107 C 0.5628 0.15964 0.64538 0.0
C1108 C 0.58921 0.18487 0.60463 0.0
C1109 C 0.55453 0.17069 0.61769 0.0
C1110 C 0.59397 0.20828 0.55451 0.0
C1111 C 0.63046 0.22642 0.58312 0.0
N1112 N 0.56772 0.18291 0.59844 0.0
N1113 N 0.62004 0.20972 0.59825 0.0
H1114 H 0.0075 0.34508 0.7637 0.0
H1115 H 0.09501 0.34269 0.90898 0.0
H1116 H 0.00802 0.39231 0.84282 0.0
H1117 H 0.06969 0.28485 0.86359 0.0
H1118 H 0.06939 0.36412 0.87612 0.0
H1119 H 0.03689 0.32593 0.79149 0.0
C1120 C 0.01392 0.35156 0.78672 0.0
C1121 C 0.00515 0.37017 0.80122 0.0
C1122 C 0.06961 0.34675 0.87328 0.0
C1123 C 0.0389 0.34852 0.83273 0.0
C1124 C 0.08424 0.33454 0.89182 0.0
C1125 C 0.08432 0.31198 0.88908 0.0
C1126 C 0.05538 0.33632 0.85138 0.0
C1127 C 0.06998 0.3022 0.86664 0.0
C1128 C 0.03064 0.34058 0.80256 0.0
C1129 C 0.01422 0.3779 0.83098 0.0
N1130 N 0.05611 0.31445 0.84854 0.0
N1131 N 0.03065 0.36702 0.84583 0.0
H1132 H 0.85788 0.76721 0.11548 0.0
H1133 H 0.96764 0.83092 0.12625 0.0
H1134 H 0.90234 0.77021 0.03279 0.0
H1135 H 0.91168 0.85199 0.18116 0.0
H1136 H 0.94466 0.80667 0.09373 0.0
H1137 H 0.87788 0.79659 0.14263 0.0
C1138 C 0.87173 0.77412 0.10297 0.0
C1139 C 0.87859 0.76613 0.07201 0.0
C1140 C 0.93738 0.8168 0.11262 0.0
C1141 C 0.90155 0.79935 0.10293 0.0
C1142 C 0.95048 0.83059 0.13118 0.0
C1143 C 0.94153 0.84343 0.1564 0.0
C1144 C 0.91528 0.81546 0.1199 0.0
C1145 C 0.91918 0.84243 0.16179 0.0
C1146 C 0.88306 0.79089 0.11838 0.0
C1147 C 0.89659 0.77571 0.0568 0.0
N1148 N 0.90684 0.8284 0.14403 0.0
N1149 N 0.90761 0.79161 0.0726 0.0
H1150 H 0.43401 0.71832 0.3802 0.0
H1151 H 0.49125 0.60873 0.34749 0.0
H1152 H 0.40358 0.65981 0.41437 0.0
H1153 H 0.48985 0.65862 0.27233 0.0
H1154 H 0.46117 0.62676 0.37614 0.0
H1155 H 0.45744 0.69685 0.34401 0.0
C1156 C 0.43216 0.70094 0.37974 0.0
C1157 C 0.41689 0.69074 0.40003 0.0
C1158 C 0.46734 0.63348 0.35309 0.0
C1159 C 0.44387 0.66616 0.35959 0.0
C1160 C 0.48447 0.62327 0.33681 0.0
C1161 C 0.49328 0.6324 0.30781 0.0
C1162 C 0.45941 0.65307 0.34052 0.0
C1163 C 0.48383 0.6512 0.29492 0.0
C1164 C 0.44544 0.68874 0.35911 0.0
C1165 C 0.4151 0.6682 0.39875 0.0
N1166 N 0.46768 0.66113 0.31169 0.0
N1167 N 0.42875 0.65654 0.37925 0.0
H1168 H 0.42422 0.14964 0.13375 0.0
H1169 H 0.36343 0.26302 0.13172 0.0
H1170 H 0.4372 0.20081 0.20405 0.0
H1171 H 0.37419 0.22649 0.04162 0.0
H1172 H 0.38403 0.23604 0.16299 0.0
H1173 H 0.40004 0.17408 0.10319 0.0
C1174 C 0.42204 0.16598 0.14268 0.0
C1175 C 0.43288 0.17326 0.17131 0.0
C1176 C 0.38167 0.23386 0.13642 0.0
C1177 C 0.40499 0.20091 0.13714 0.0
C1178 C 0.36978 0.24911 0.11866 0.0
C1179 C 0.36721 0.24696 0.08408 0.0
C1180 C 0.39075 0.21622 0.11952 0.0
C1181 C 0.37592 0.22874 0.06828 0.0
C1182 C 0.40827 0.17985 0.1253 0.0
C1183 C 0.4294 0.19457 0.18189 0.0
N1184 N 0.38736 0.21403 0.08613 0.0
N1185 N 0.41567 0.20758 0.16494 0.0
H1186 H 0.512 0.65097 0.76877 0.0
H1187 H 0.59297 0.65414 0.92215 0.0
H1188 H 0.51014 0.60211 0.84546 0.0
H1189 H 0.56543 0.71187 0.87974 0.0
H1190 H 0.56883 0.6324 0.88696 0.0
H1191 H 0.53836 0.67107 0.80185 0.0
C1192 C 0.5173 0.64434 0.79237 0.0
C1193 C 0.50876 0.62493 0.80454 0.0
C1194 C 0.56817 0.64982 0.88543 0.0
C1195 C 0.53904 0.64769 0.84215 0.0
C1196 C 0.58193 0.6622 0.90532 0.0
C1197 C 0.58105 0.6848 0.9039 0.0
C1198 C 0.55394 0.66016 0.86342 0.0
C1199 C 0.56644 0.69448 0.88178 0.0
C1200 C 0.53225 0.65587 0.81126 0.0
C1201 C 0.51625 0.61709 0.8353 0.0
N1202 N 0.55355 0.6821 0.8622 0.0
N1203 N 0.53105 0.62849 0.85308 0.0
H1204 H 0.09187 0.85266 0.65611 0.0
H1205 H 0.08814 0.76539 0.50981 0.0
H1206 H 0.03338 0.82766 0.61259 0.0
H1207 H 0.14113 0.771 0.57913 0.0
H1208 H 0.07105 0.79651 0.53592 0.0
H1209 H 0.11288 0.83136 0.61601 0.0
C1210 C 0.08347 0.84326 0.63739 0.0
C1211 C 0.06091 0.84169 0.63773 0.0
C1212 C 0.08655 0.79109 0.54514 0.0
C1213 C 0.08469 0.81738 0.59227 0.0
C1214 C 0.09631 0.77331 0.53032 0.0
C1215 C 0.11589 0.76535 0.54278 0.0
C1216 C 0.09647 0.8011 0.5725 0.0
C1217 C 0.12588 0.77646 0.56908 0.0
C1218 C 0.09544 0.83097 0.61481 0.0
C1219 C 0.05077 0.82911 0.61327 0.0
N1220 N 0.11594 0.7937 0.58334 0.0
N1221 N 0.06275 0.81728 0.59169 0.0
H1222 H 0.90757 0.34897 0.42461 0.0
H1223 H 0.98988 0.34646 0.27488 0.0
H1224 H 0.93674 0.2903 0.38855 0.0
H1225 H 0.99897 0.39439 0.35182 0.0
H1226 H 0.96139 0.3301 0.30797 0.0
H1227 H 0.93324 0.36993 0.39037 0.0
C1228 C 0.91929 0.34057 0.40939 0.0
C1229 C 0.92021 0.31794 0.40937 0.0
C1230 C 0.9695 0.34432 0.31742 0.0
C1231 C 0.94884 0.34153 0.37013 0.0
C1232 C 0.98576 0.35372 0.29861 0.0
C1233 C 0.99713 0.37159 0.31093 0.0
C1234 C 0.96421 0.35304 0.34855 0.0
C1235 C 0.99074 0.38048 0.34161 0.0
C1236 C 0.93389 0.35247 0.39014 0.0
C1237 C 0.93566 0.30772 0.38943 0.0
N1238 N 0.97465 0.37102 0.35961 0.0
N1239 N 0.94923 0.31959 0.37034 0.0
H1240 H 0.41794 0.85235 0.31714 0.0
H1241 H 0.40674 0.76471 0.46131 0.0
H1242 H 0.47314 0.82279 0.36411 0.0
H1243 H 0.36173 0.76904 0.37941 0.0
H1244 H 0.42831 0.7933 0.43579 0.0
H1245 H 0.39426 0.82931 0.35062 0.0
C1246 C 0.42507 0.84137 0.33503 0.0
C1247 C 0.44755 0.83934 0.33773 0.0
C1248 C 0.41361 0.78807 0.42363 0.0
C1249 C 0.42058 0.81313 0.37595 0.0
C1250 C 0.40127 0.77178 0.43811 0.0
C1251 C 0.38256 0.76429 0.42217 0.0
C1252 C 0.40692 0.79725 0.3934 0.0
C1253 C 0.37617 0.77421 0.39231 0.0
C1254 C 0.41155 0.82814 0.35385 0.0
C1255 C 0.45591 0.82471 0.3611 0.0
N1256 N 0.38835 0.79022 0.37883 0.0
N1257 N 0.4424 0.8121 0.37931 0.0
H1258 H 0.98067 0.64047 0.21771 0.0
H1259 H 0.9021 0.66123 0.06765 0.0
H1260 H 0.99293 0.60832 0.12404 0.0
H1261 H 0.93316 0.71479 0.1167 0.0
H1262 H 0.92591 0.63631 0.09813 0.0
H1263 H 0.95341 0.66263 0.1903 0.0
C1264 C 0.97755 0.6379 0.19146 0.0
C1265 C 0.98941 0.62278 0.17295 0.0
C1266 C 0.92721 0.65351 0.10242 0.0
C1267 C 0.95771 0.64757 0.14203 0.0
C1268 C 0.91359 0.66766 0.08543 0.0
C1269 C 0.91572 0.68999 0.08997 0.0
C1270 C 0.94247 0.66183 0.12472 0.0
C1271 C 0.93107 0.69764 0.1127 0.0
C1272 C 0.96198 0.65056 0.17596 0.0
C1273 C 0.98432 0.61996 0.1391 0.0
N1274 N 0.94382 0.68353 0.12952 0.0
N1275 N 0.96872 0.63226 0.12463 0.0
H1276 H 0.13764 0.22446 0.92859 0.0
H1277 H 0.06192 0.19957 0.77631 0.0
H1278 H 0.13231 0.26823 0.84541 0.0
H1279 H 0.0888 0.14898 0.83756 0.0
H1280 H 0.08752 0.22503 0.8008 0.0
H1281 H 0.12027 0.19637 0.89531 0.0
C1282 C 0.13316 0.22797 0.90301 0.0
C1283 C 0.13639 0.24858 0.88959 0.0
C1284 C 0.08799 0.2083 0.80854 0.0
C1285 C 0.11597 0.21681 0.85175 0.0
C1286 C 0.07328 0.19378 0.79477 0.0
C1287 C 0.07305 0.17214 0.80519 0.0
C1288 C 0.10231 0.20125 0.83335 0.0
C1289 C 0.08833 0.16551 0.82889 0.0
C1290 C 0.12325 0.21196 0.88405 0.0
C1291 C 0.13024 0.25243 0.85647 0.0
N1292 N 0.10213 0.18008 0.84254 0.0
N1293 N 0.11991 0.23678 0.8388 0.0
H1294 H 0.6092 0.33861 0.58897 0.0
H1295 H 0.52401 0.345 0.73732 0.0
H1296 H 0.5806 0.2825 0.63474 0.0
H1297 H 0.52553 0.39011 0.65529 0.0
H1298 H 0.55507 0.32634 0.71335 0.0
H1299 H 0.58909 0.36159 0.62781 0.0
C1300 C 0.59932 0.3311 0.60799 0.0
C1301 C 0.59632 0.30867 0.60855 0.0
C1302 C 0.54879 0.34057 0.70102 0.0
C1303 C 0.5735 0.33474 0.65272 0.0
C1304 C 0.53107 0.35121 0.71457 0.0
C1305 C 0.5219 0.36884 0.69781 0.0
C1306 C 0.55763 0.3479 0.67092 0.0
C1307 C 0.53191 0.37636 0.66868 0.0
C1308 C 0.58775 0.34422 0.62986 0.0
C1309 C 0.58314 0.29976 0.63339 0.0
N1310 N 0.5492 0.36573 0.65596 0.0
N1311 N 0.57203 0.31285 0.65437 0.0
H1312 H 0.08771 0.44462 0.2811 0.0
H1313 H 0.04372 0.53929 0.16436 0.0
H1314 H 0.04532 0.43566 0.19684 0.0
H1315 H 0.0803 0.55068 0.25398 0.0
H1316 H 0.05123 0.50068 0.16927 0.0
H1317 H 0.09183 0.4827 0.26548 0.0
C1318 C 0.07959 0.45057 0.25901 0.0
C1319 C 0.06589 0.43709 0.24051 0.0
C1320 C 0.05798 0.51159 0.1876 0.0
C1321 C 0.07049 0.48044 0.22256 0.0
C1322 C 0.0538 0.53359 0.18462 0.0
C1323 C 0.06156 0.54794 0.20868 0.0
C1324 C 0.06957 0.5039 0.21533 0.0
C1325 C 0.07427 0.53996 0.23479 0.0
C1326 C 0.08189 0.47229 0.25016 0.0
C1327 C 0.05577 0.44557 0.21211 0.0
N1328 N 0.07766 0.51835 0.23774 0.0
N1329 N 0.05813 0.46671 0.20419 0.0
H1330 H 0.8041 0.78981 0.46431 0.0
H1331 H 0.69351 0.80674 0.54564 0.0
H1332 H 0.80116 0.82431 0.55761 0.0
H1333 H 0.70008 0.82018 0.44057 0.0
H1334 H 0.73272 0.81017 0.55198 0.0
H1335 H 0.76579 0.7977 0.45506 0.0
C1336 C 0.79541 0.7993 0.48259 0.0
C1337 C 0.80566 0.80642 0.51176 0.0
C1338 C 0.7255 0.81275 0.52768 0.0
C1339 C 0.76199 0.81491 0.50182 0.0
C1340 C 0.70323 0.81072 0.52403 0.0
C1341 C 0.6937 0.8132 0.49256 0.0
C1342 C 0.7383 0.81649 0.49944 0.0
C1343 C 0.7069 0.81829 0.46527 0.0
C1344 C 0.77367 0.80385 0.47724 0.0
C1345 C 0.79378 0.81864 0.53474 0.0
N1346 N 0.72867 0.81927 0.46916 0.0
N1347 N 0.77237 0.82209 0.52967 0.0
H1348 H 0.43761 0.44325 0.67532 0.0
H1349 H 0.42619 0.5443 0.79808 0.0
H1350 H 0.4476 0.43907 0.78161 0.0
H1351 H 0.45506 0.54824 0.70039 0.0
H1352 H 0.41981 0.50552 0.78891 0.0
H1353 H 0.42958 0.48196 0.68159 0.0
C1354 C 0.43753 0.45039 0.69999 0.0
C1355 C 0.44354 0.43826 0.72795 0.0
C1356 C 0.42713 0.51507 0.76931 0.0
C1357 C 0.43411 0.48188 0.73532 0.0
C1358 C 0.43073 0.53708 0.7745 0.0
C1359 C 0.44148 0.5492 0.75015 0.0
C1360 C 0.43385 0.50549 0.7393 0.0
C1361 C 0.44707 0.53924 0.71997 0.0
C1362 C 0.43303 0.47236 0.70354 0.0
C1363 C 0.44332 0.4481 0.75943 0.0
N1364 N 0.44327 0.5179 0.71541 0.0
N1365 N 0.4388 0.46942 0.7623 0.0
H1366 H 0.78927 0.19825 0.91229 0.0
H1367 H 0.69402 0.16775 0.0379 0.0
H1368 H 0.80009 0.16854 0.00796 0.0
H1369 H 0.68973 0.21443 0.95836 0.0
H1370 H 0.7305 0.15824 0.01874 0.0
H1371 H 0.75037 0.19367 0.91994 0.0
C1372 C 0.78338 0.19008 0.93439 0.0
C1373 C 0.79764 0.18361 0.95947 0.0
C1374 C 0.72136 0.17028 0.00522 0.0
C1375 C 0.75342 0.17902 0.96902 0.0
C1376 C 0.7006 0.17566 0.01606 0.0
C1377 C 0.68911 0.19213 -2e-05 0.0
C1378 C 0.73037 0.18126 0.97786 0.0
C1379 C 0.69825 0.2019 0.9718 0.0
C1380 C 0.76124 0.18764 0.93892 0.0
C1381 C 0.78941 0.17352 0.98801 0.0
N1382 N 0.71838 0.19641 0.96178 0.0
N1383 N 0.76773 0.17177 0.9923 0.0
H1384 H 0.93828 0.44362 0.70535 0.0
H1385 H 0.96126 0.55357 0.78748 0.0
H1386 H 0.93037 0.45133 0.81151 0.0
H1387 H 0.93055 0.55149 0.69094 0.0
H1388 H 0.95095 0.51597 0.79673 0.0
H1389 H 0.93549 0.48276 0.69845 0.0
C1390 C 0.93546 0.45361 0.7271 0.0
C1391 C 0.93459 0.44445 0.75903 0.0
C1392 C 0.9462 0.52383 0.77373 0.0
C1393 C 0.93213 0.48901 0.7515 0.0
C1394 C 0.95226 0.54517 0.76829 0.0
C1395 C 0.94697 0.55545 0.73822 0.0
C1396 C 0.9353 0.51253 0.74854 0.0
C1397 C 0.93502 0.54402 0.71436 0.0
C1398 C 0.93384 0.47587 0.72316 0.0
C1399 C 0.93101 0.45791 0.7865 0.0
N1400 N 0.92996 0.52295 0.71973 0.0
N1401 N 0.93045 0.47967 0.78222 0.0
H1402 H 0.29474 0.22786 0.54937 0.0
H1403 H 0.19688 0.16353 0.47478 0.0
H1404 H 0.30198 0.16079 0.52338 0.0
H1405 H 0.18894 0.21649 0.54359 0.0
H1406 H 0.23519 0.16167 0.49019 0.0
H1407 H 0.25573 0.22404 0.54516 0.0
C1408 C 0.28803 0.21225 0.54301 0.0
C1409 C 0.30149 0.19462 0.53661 0.0
C1410 C 0.22492 0.17343 0.50223 0.0
C1411 C 0.25687 0.19019 0.5311 0.0
C1412 C 0.2031 0.17455 0.49342 0.0
C1413 C 0.18977 0.19037 0.50763 0.0
C1414 C 0.23339 0.18847 0.52494 0.0
C1415 C 0.19864 0.20417 0.53174 0.0
C1416 C 0.26578 0.21005 0.54074 0.0
C1417 C 0.29204 0.17472 0.52861 0.0
N1418 N 0.21993 0.20311 0.53924 0.0
N1419 N 0.27022 0.1731 0.52548 0.0
H1420 H 0.57496 0.55525 0.30321 0.0
H1421 H 0.57055 0.45658 0.17681 0.0
H1422 H 0.55305 0.56482 0.2021 0.0
H1423 H 0.54304 0.45327 0.27547 0.0
H1424 H 0.57743 0.49544 0.18542 0.0
H1425 H 0.57727 0.51633 0.2924 0.0
C1426 C 0.57117 0.54922 0.27853 0.0
C1427 C 0.56361 0.56313 0.25357 0.0
C1428 C 0.57015 0.48602 0.2052 0.0
C1429 C 0.56656 0.51901 0.24106 0.0
C1430 C 0.56627 0.464 0.20037 0.0
C1431 C 0.55604 0.45198 0.2254 0.0
C1432 C 0.56443 0.49562 0.23566 0.0
C1433 C 0.55073 0.46216 0.25549 0.0
C1434 C 0.5724 0.52709 0.27248 0.0
C1435 C 0.55875 0.55451 0.22205 0.0
N1436 N 0.55509 0.48342 0.25989 0.0
N1437 N 0.56026 0.53292 0.21665 0.0
H1438 H 0.19599 0.76652 0.04814 0.0
H1439 H 0.3003 0.82599 0.97473 0.0
H1440 H 0.19422 0.83361 0.01994 0.0
H1441 H 0.2969 0.75981 0.00792 0.0
H1442 H 0.26256 0.83097 0.99293 0.0
H1443 H 0.23426 0.7657 0.03669 0.0
C1444 C 0.20379 0.78118 0.03967 0.0
C1445 C 0.19196 0.80009 0.03473 0.0
C1446 C 0.27025 0.81544 0.99625 0.0
C1447 C 0.23604 0.79927 0.02075 0.0
C1448 C 0.29169 0.81258 0.9858 0.0
C1449 C 0.30174 0.79242 0.9896 0.0
C1450 C 0.25902 0.798 0.01054 0.0
C1451 C 0.28992 0.77562 0.00424 0.0
C1452 C 0.22571 0.78073 0.03305 0.0
C1453 C 0.2029 0.8187 0.02408 0.0
N1454 N 0.26933 0.77881 0.01403 0.0
N1455 N 0.2244 0.81779 0.01696 0.0
H1456 H 0.58893 0.9488 0.77339 0.0
H1457 H 0.5364 0.06488 0.80185 0.0
H1458 H 0.5297 0.96174 0.82576 0.0
H1459 H 0.58386 0.05295 0.72546 0.0
H1460 H 0.54201 0.0286 0.82326 0.0
H1461 H 0.59467 0.98802 0.76727 0.0
C1462 C 0.5775 0.95993 0.78434 0.0
C1463 C 0.55874 0.95226 0.79984 0.0
C1464 C 0.55142 0.03393 0.80204 0.0
C1465 C 0.56515 0.99658 0.7932 0.0
C1466 C 0.54823 0.05465 0.78982 0.0
C1467 C 0.55936 0.06169 0.76144 0.0
C1468 C 0.56559 0.01993 0.78545 0.0
C1469 C 0.57482 0.04797 0.74723 0.0
C1470 C 0.58069 0.9822 0.7807 0.0
C1471 C 0.54425 0.96712 0.81337 0.0
N1472 N 0.5772 0.02748 0.759 0.0
N1473 N 0.5477 0.98854 0.80961 0.0
H1474 H 0.30682 0.31453 0.9647 0.0
H1475 H 0.18961 0.31149 0.02095 0.0
H1476 H 0.29089 0.32861 0.06702 0.0
H1477 H 0.20545 0.33328 0.92186 0.0
H1478 H 0.22605 0.32068 0.03939 0.0
H1479 H 0.27018 0.3243 0.94811 0.0
C1480 C 0.29562 0.32015 0.98352 0.0
C1481 C 0.30157 0.32066 0.01719 0.0
C1482 C 0.22144 0.32403 0.01384 0.0
C1483 C 0.25969 0.33125 -0.00129 0.0
C1484 C 0.20073 0.31871 0.00333 0.0
C1485 C 0.19483 0.32153 0.96991 0.0
C1486 C 0.2365 0.33143 0.99038 0.0
C1487 C 0.20959 0.3309 0.94786 0.0
C1488 C 0.27479 0.32582 0.97407 0.0
C1489 C 0.2867 0.32803 0.04079 0.0
N1490 N 0.23004 0.33502 0.95829 0.0
N1491 N 0.26615 0.33253 0.03121 0.0
H1492 H 0.93482 0.0558 0.32293 0.0
H1493 H 0.91475 0.952 0.20932 0.0
H1494 H 0.94052 0.05581 0.21572 0.0
H1495 H 0.9516 0.94974 0.30053 0.0
H1496 H 0.90824 0.9906 0.2188 0.0
H1497 H 0.92545 0.01716 0.32096 0.0
C1498 C 0.9335 0.04778 0.299 0.0
C1499 C 0.93866 0.05869 0.26945 0.0
C1500 C 0.91718 0.98142 0.23717 0.0
C1501 C 0.92754 0.01523 0.267 0.0
C1502 C 0.92081 0.95946 0.2319 0.0
C1503 C 0.93397 0.9479 0.25398 0.0
C1504 C 0.9264 0.99156 0.26504 0.0
C1505 C 0.94161 0.95827 0.28275 0.0
C1506 C 0.92821 0.02587 0.29791 0.0
C1507 C 0.93688 0.04774 0.23902 0.0
N1508 N 0.93787 0.97964 0.28735 0.0
N1509 N 0.93152 0.02653 0.23855 0.0
H1510 H 0.3009 0.66837 0.45975 0.0
H1511 H 0.18781 0.7282 0.45114 0.0
H1512 H 0.2938 0.73752 0.45682 0.0
H1513 H 0.19577 0.6728 0.51528 0.0
H1514 H 0.22596 0.72642 0.43701 0.0
H1515 H 0.26136 0.66495 0.46554 0.0
C1516 C 0.29099 0.68274 0.45992 0.0
C1517 C 0.30044 0.70326 0.45802 0.0
C1518 C 0.21927 0.71451 0.45389 0.0
C1519 C 0.25583 0.69948 0.46376 0.0
C1520 C 0.19751 0.71546 0.46194 0.0
C1521 C 0.18868 0.7008 0.48481 0.0
C1522 C 0.2323 0.69864 0.46843 0.0
C1523 C 0.20204 0.68455 0.49783 0.0
C1524 C 0.2686 0.68079 0.46335 0.0
C1525 C 0.28708 0.72144 0.45851 0.0
N1526 N 0.22333 0.68394 0.48957 0.0
N1527 N 0.26544 0.71912 0.46112 0.0
H1528 H 0.43565 0.04912 0.16275 0.0
H1529 H 0.42323 0.94628 0.28093 0.0
H1530 H 0.43963 0.0525 0.27 0.0
H1531 H 0.46142 0.94444 0.19103 0.0
H1532 H 0.41543 0.98444 0.27025 0.0
H1533 H 0.43162 0.00959 0.16687 0.0
C1534 C 0.43507 0.04156 0.18711 0.0
C1535 C 0.43805 0.05382 0.21612 0.0
C1536 C 0.42512 0.97548 0.25256 0.0
C1537 C 0.43311 0.00927 0.22097 0.0
C1538 C 0.42952 0.95376 0.25853 0.0
C1539 C 0.44321 0.94235 0.23702 0.0
C1540 C 0.4341 0.98564 0.22455 0.0
C1541 C 0.45101 0.95281 0.2084 0.0
C1542 C 0.43289 0.01914 0.18942 0.0
C1543 C 0.43747 0.04344 0.24714 0.0
N1544 N 0.44643 0.97397 0.20304 0.0
N1545 N 0.43506 0.02171 0.24879 0.0
H1546 H 0.79776 0.67653 0.05553 0.0
H1547 H 0.70811 0.69259 0.91419 0.0
H1548 H 0.80425 0.71735 0.96886 0.0
H1549 H 0.69217 0.67415 0.01481 0.0
H1550 H 0.74645 0.69065 0.92848 0.0
H1551 H 0.76157 0.666 0.03606 0.0
C1552 C 0.79161 0.68315 0.03239 0.0
C1553 C 0.80376 0.6981 0.01404 0.0
C1554 C 0.73459 0.68649 0.94723 0.0
C1555 C 0.76305 0.68576 0.99136 0.0
C1556 C 0.71281 0.68735 0.93896 0.0
C1557 C 0.69725 0.68332 0.96336 0.0
C1558 C 0.7407 0.68184 0.98024 0.0
C1559 C 0.70391 0.67712 0.99535 0.0
C1560 C 0.77109 0.67711 0.02129 0.0
C1561 C 0.79524 0.70609 0.98409 0.0
N1562 N 0.72524 0.6768 0.00309 0.0
N1563 N 0.77542 0.69983 0.97371 0.0
H1564 H 0.02645 0.04253 0.81691 0.0
H1565 H 0.08122 0.9475 0.71696 0.0
H1566 H 0.08649 0.05172 0.76478 0.0
H1567 H 0.03309 0.93798 0.79331 0.0
H1568 H 0.08526 0.98508 0.73536 0.0
H1569 H 0.0303 0.00367 0.81059 0.0
C1570 C 0.04065 0.03624 0.80454 0.0
C1571 C 0.05614 0.0502 0.79124 0.0
C1572 C 0.07407 0.97462 0.74835 0.0
C1573 C 0.06043 0.00574 0.78297 0.0
C1574 C 0.07171 0.95322 0.73781 0.0
C1575 C 0.05654 0.9397 0.75329 0.0
C1576 C 0.06104 0.98249 0.77431 0.0
C1577 C 0.04475 0.94788 0.7803 0.0
C1578 C 0.04287 0.01406 0.80091 0.0
C1579 C 0.07426 0.04135 0.77548 0.0
N1580 N 0.04707 0.96877 0.78966 0.0
N1581 N 0.07574 0.01959 0.77116 0.0
H1582 H 0.6875 0.28138 0.4462 0.0
H1583 H 0.80165 0.33951 0.4687 0.0
H1584 H 0.69958 0.3282 0.52374 0.0
H1585 H 0.7917 0.27805 0.4209 0.0
H1586 H 0.76238 0.34246 0.47734 0.0
H1587 H 0.72376 0.2873 0.42489 0.0
C1588 C 0.69774 0.29304 0.45863 0.0
C1589 C 0.69068 0.304 0.48719 0.0
C1590 C 0.76884 0.32858 0.46437 0.0
C1591 C 0.73225 0.31085 0.46285 0.0
C1592 C 0.79111 0.32699 0.45924 0.0
C1593 C 0.79968 0.30847 0.44426 0.0
C1594 C 0.75533 0.31168 0.45385 0.0
C1595 C 0.78559 0.2925 0.43275 0.0
C1596 C 0.71843 0.29642 0.44641 0.0
C1597 C 0.70453 0.31919 0.50192 0.0
N1598 N 0.76411 0.29443 0.43789 0.0
N1599 N 0.72483 0.32201 0.48978 0.0
loop_
_geom_bond_atom_site_label_1
_geom_bond_atom_site_label_2
_geom_bond_distance
_geom_bond_site_symmetry_2
_ccdc_geom_bond_type
Co0 O1 2.216 . S
Co0 O2 2.091 . S
Co0 O4 2.004 . S
Co0 O10 2.021 . S
Co0 O12 2.137 . S
Co0 O13 2.244 . S
O1 Co0 2.216 . S
O1 C8 1.247 . S
O2 Co0 2.091 . S
O2 C8 1.261 . S
C3 O12 1.247 . S
C3 O13 1.272 . S
O4 Co0 2.004 . S
O4 C9 1.259 . S
Co5 O6 2.061 . S
Co5 O11 2.052 . S
Co5 O13 2.135 . S
O6 Co5 2.061 . S
O6 C9 1.235 . S
C7 O10 1.238 . S
C7 O11 1.241 . S
C8 O1 1.247 . S
C8 O2 1.261 . S
C9 O4 1.259 . S
C9 O6 1.235 . S
O10 Co0 2.021 . S
O10 C7 1.238 . S
O11 Co5 2.052 . S
O11 C7 1.241 . S
O12 Co0 2.137 . S
O12 C3 1.247 . S
O13 Co0 2.244 . S
O13 C3 1.272 . S
O13 Co5 2.135 . S
Co14 O15 2.216 . S
Co14 O16 2.091 . S
Co14 O18 2.004 . S
Co14 O24 2.021 . S
Co14 O26 2.137 . S
Co14 O27 2.244 . S
O15 Co14 2.216 . S
O15 C22 1.247 . S
O16 Co14 2.091 . S
O16 C22 1.261 . S
C17 O26 1.247 . S
C17 O27 1.272 . S
O18 Co14 2.004 . S
O18 C23 1.259 . S
Co19 O20 2.061 . S
Co19 O25 2.052 . S
Co19 O27 2.135 . S
O20 Co19 2.061 . S
O20 C23 1.235 . S
C21 O24 1.238 . S
C21 O25 1.241 . S
C22 O15 1.247 . S
C22 O16 1.261 . S
C23 O18 1.259 . S
C23 O20 1.235 . S
O24 Co14 2.021 . S
O24 C21 1.238 . S
O25 Co19 2.052 . S
O25 C21 1.241 . S
O26 Co14 2.137 . S
O26 C17 1.247 . S
O27 Co14 2.244 . S
O27 C17 1.272 . S
O27 Co19 2.135 . S
Co28 O29 2.216 . S
Co28 O30 2.091 . S
Co28 O32 2.004 . S
Co28 O38 2.021 . S
Co28 O40 2.137 . S
Co28 O41 2.244 . S
O29 Co28 2.216 . S
O29 C36 1.247 . S
O30 Co28 2.091 . S
O30 C36 1.261 . S
C31 O40 1.247 . S
C31 O41 1.272 . S
O32 Co28 2.004 . S
O32 C37 1.259 . S
Co33 O34 2.061 . S
Co33 O39 2.052 . S
Co33 O41 2.135 . S
O34 Co33 2.061 . S
O34 C37 1.235 . S
C35 O38 1.238 . S
C35 O39 1.241 . S
C36 O29 1.247 . S
C36 O30 1.261 . S
C37 O32 1.259 . S
C37 O34 1.235 . S
O38 Co28 2.021 . S
O38 C35 1.238 . S
O39 Co33 2.052 . S
O39 C35 1.241 . S
O40 Co28 2.137 . S
O40 C31 1.247 . S
O41 Co28 2.244 . S
O41 C31 1.272 . S
O41 Co33 2.135 . S
Co42 O43 2.216 . S
Co42 O44 2.091 . S
Co42 O46 2.004 . S
Co42 O52 2.021 . S
Co42 O54 2.137 . S
Co42 O55 2.244 . S
O43 Co42 2.216 . S
O43 C50 1.247 . S
O44 Co42 2.091 . S
O44 C50 1.261 . S
C45 O54 1.247 . S
C45 O55 1.272 . S
O46 Co42 2.004 . S
O46 C51 1.259 . S
Co47 O48 2.061 . S
Co47 O53 2.052 1_554 S
Co47 O55 2.135 . S
O48 Co47 2.061 . S
O48 C51 1.235 . S
C49 O52 1.238 1_556 S
C49 O53 1.241 . S
C50 O43 1.247 . S
C50 O44 1.261 . S
C51 O46 1.259 . S
C51 O48 1.235 . S
O52 Co42 2.021 . S
O52 C49 1.238 1_554 S
O53 Co47 2.052 1_556 S
O53 C49 1.241 . S
O54 Co42 2.137 . S
O54 C45 1.247 . S
O55 Co42 2.244 . S
O55 C45 1.272 . S
O55 Co47 2.135 . S
Co56 O57 2.216 . S
Co56 O58 2.091 . S
Co56 O60 2.004 . S
Co56 O66 2.021 . S
Co56 O68 2.137 . S
Co56 O69 2.244 . S
O57 Co56 2.216 . S
O57 C64 1.247 . S
O58 Co56 2.091 . S
O58 C64 1.261 . S
C59 O68 1.247 . S
C59 O69 1.272 . S
O60 Co56 2.004 . S
O60 C65 1.259 . S
Co61 O62 2.061 . S
Co61 O67 2.052 . S
Co61 O69 2.135 . S
O62 Co61 2.061 . S
O62 C65 1.235 . S
C63 O66 1.238 . S
C63 O67 1.241 . S
C64 O57 1.247 . S
C64 O58 1.261 . S
C65 O60 1.259 . S
C65 O62 1.235 . S
O66 Co56 2.021 . S
O66 C63 1.238 . S
O67 Co61 2.052 . S
O67 C63 1.241 . S
O68 Co56 2.137 . S
O68 C59 1.247 . S
O69 Co56 2.244 . S
O69 C59 1.272 . S
O69 Co61 2.135 . S
Co70 O71 2.216 . S
Co70 O72 2.091 . S
Co70 O74 2.004 . S
Co70 O80 2.021 . S
Co70 O82 2.137 . S
Co70 O83 2.244 . S
O71 Co70 2.216 . S
O71 C78 1.247 . S
O72 Co70 2.091 . S
O72 C78 1.261 . S
C73 O82 1.247 . S
C73 O83 1.272 . S
O74 Co70 2.004 . S
O74 C79 1.259 . S
Co75 O76 2.061 . S
Co75 O81 2.052 . S
Co75 O83 2.135 . S
O76 Co75 2.061 . S
O76 C79 1.235 . S
C77 O80 1.238 . S
C77 O81 1.241 . S
C78 O71 1.247 . S
C78 O72 1.261 . S
C79 O74 1.259 . S
C79 O76 1.235 . S
O80 Co70 2.021 . S
O80 C77 1.238 . S
O81 Co75 2.052 . S
O81 C77 1.241 . S
O82 Co70 2.137 . S
O82 C73 1.247 . S
O83 Co70 2.244 . S
O83 C73 1.272 . S
O83 Co75 2.135 . S
Co84 O85 2.216 . S
Co84 O86 2.091 . S
Co84 O88 2.004 . S
Co84 O94 2.021 . S
Co84 O96 2.137 . S
Co84 O97 2.244 . S
O85 Co84 2.216 . S
O85 C92 1.247 . S
O86 Co84 2.091 . S
O86 C92 1.261 . S
C87 O96 1.247 . S
C87 O97 1.272 . S
O88 Co84 2.004 . S
O88 C93 1.259 . S
Co89 O90 2.061 . S
Co89 O95 2.052 . S
Co89 O97 2.135 . S
O90 Co89 2.061 . S
O90 C93 1.235 . S
C91 O94 1.238 . S
C91 O95 1.241 . S
C92 O85 1.247 . S
C92 O86 1.261 . S
C93 O88 1.259 . S
C93 O90 1.235 . S
O94 Co84 2.021 . S
O94 C91 1.238 . S
O95 Co89 2.052 . S
O95 C91 1.241 . S
O96 Co84 2.137 . S
O96 C87 1.247 . S
O97 Co84 2.244 . S
O97 C87 1.272 . S
O97 Co89 2.135 . S
Co98 O99 2.216 . S
Co98 O100 2.091 . S
Co98 O102 2.004 . S
Co98 O108 2.021 . S
Co98 O110 2.137 . S
Co98 O111 2.244 . S
O99 Co98 2.216 . S
O99 C106 1.247 . S
O100 Co98 2.091 . S
O100 C106 1.261 . S
C101 O110 1.247 . S
C101 O111 1.272 . S
O102 Co98 2.004 . S
O102 C107 1.259 . S
Co103 O104 2.061 . S
Co103 O109 2.052 1_556 S
Co103 O111 2.135 . S
O104 Co103 2.061 . S
O104 C107 1.235 . S
C105 O108 1.238 1_554 S
C105 O109 1.241 . S
C106 O99 1.247 . S
C106 O100 1.261 . S
C107 O102 1.259 . S
C107 O104 1.235 . S
O108 Co98 2.021 . S
O108 C105 1.238 1_556 S
O109 Co103 2.052 1_554 S
O109 C105 1.241 . S
O110 Co98 2.137 . S
O110 C101 1.247 . S
O111 Co98 2.244 . S
O111 C101 1.272 . S
O111 Co103 2.135 . S
Co112 O113 2.216 . S
Co112 O114 2.091 . S
Co112 O116 2.004 . S
Co112 O122 2.021 . S
Co112 O124 2.137 . S
Co112 O125 2.244 . S
O113 Co112 2.216 . S
O113 C120 1.247 . S
O114 Co112 2.091 . S
O114 C120 1.261 . S
C115 O124 1.247 . S
C115 O125 1.272 . S
O116 Co112 2.004 . S
O116 C121 1.259 . S
Co117 O118 2.061 . S
Co117 O123 2.052 . S
Co117 O125 2.135 . S
O118 Co117 2.061 . S
O118 C121 1.235 . S
C119 O122 1.238 . S
C119 O123 1.241 . S
C120 O113 1.247 . S
C120 O114 1.261 . S
C121 O116 1.259 . S
C121 O118 1.235 . S
O122 Co112 2.021 . S
O122 C119 1.238 . S
O123 Co117 2.052 . S
O123 C119 1.241 . S
O124 Co112 2.137 . S
O124 C115 1.247 . S
O125 Co112 2.244 . S
O125 C115 1.272 . S
O125 Co117 2.135 . S
Co126 O127 2.216 . S
Co126 O128 2.091 . S
Co126 O130 2.004 . S
Co126 O136 2.021 . S
Co126 O138 2.137 . S
Co126 O139 2.244 . S
O127 Co126 2.216 . S
O127 C134 1.247 . S
O128 Co126 2.091 . S
O128 C134 1.261 . S
C129 O138 1.247 . S
C129 O139 1.272 . S
O130 Co126 2.004 . S
O130 C135 1.259 . S
Co131 O132 2.061 . S
Co131 O137 2.052 . S
Co131 O139 2.135 . S
O132 Co131 2.061 . S
O132 C135 1.235 . S
C133 O136 1.238 . S
C133 O137 1.241 . S
C134 O127 1.247 . S
C134 O128 1.261 . S
C135 O130 1.259 . S
C135 O132 1.235 . S
O136 Co126 2.021 . S
O136 C133 1.238 . S
O137 Co131 2.052 . S
O137 C133 1.241 . S
O138 Co126 2.137 . S
O138 C129 1.247 . S
O139 Co126 2.244 . S
O139 C129 1.272 . S
O139 Co131 2.135 . S
Co140 O141 2.216 . S
Co140 O142 2.091 . S
Co140 O144 2.004 . S
Co140 O150 2.021 . S
Co140 O152 2.137 . S
Co140 O153 2.244 . S
O141 Co140 2.216 . S
O141 C148 1.247 . S
O142 Co140 2.091 . S
O142 C148 1.261 . S
C143 O152 1.247 . S
C143 O153 1.272 . S
O144 Co140 2.004 . S
O144 C149 1.259 . S
Co145 O146 2.061 . S
Co145 O151 2.052 . S
Co145 O153 2.135 . S
O146 Co145 2.061 . S
O146 C149 1.235 . S
C147 O150 1.238 . S
C147 O151 1.241 . S
C148 O141 1.247 . S
C148 O142 1.261 . S
C149 O144 1.259 . S
C149 O146 1.235 . S
O150 Co140 2.021 . S
O150 C147 1.238 . S
O151 Co145 2.052 . S
O151 C147 1.241 . S
O152 Co140 2.137 . S
O152 C143 1.247 . S
O153 Co140 2.244 . S
O153 C143 1.272 . S
O153 Co145 2.135 . S
Co154 O155 2.216 . S
Co154 O156 2.091 . S
Co154 O158 2.004 . S
Co154 O164 2.021 . S
Co154 O166 2.137 . S
Co154 O167 2.244 . S
O155 Co154 2.216 . S
O155 C162 1.247 . S
O156 Co154 2.091 . S
O156 C162 1.261 . S
C157 O166 1.247 . S
C157 O167 1.272 . S
O158 Co154 2.004 . S
O158 C163 1.259 . S
Co159 O160 2.061 . S
Co159 O165 2.052 1_556 S
Co159 O167 2.135 . S
O160 Co159 2.061 . S
O160 C163 1.235 . S
C161 O164 1.238 1_554 S
C161 O165 1.241 . S
C162 O155 1.247 . S
C162 O156 1.261 . S
C163 O158 1.259 . S
C163 O160 1.235 . S
O164 Co154 2.021 . S
O164 C161 1.238 1_556 S
O165 Co159 2.052 1_554 S
O165 C161 1.241 . S
O166 Co154 2.137 . S
O166 C157 1.247 . S
O167 Co154 2.244 . S
O167 C157 1.272 . S
O167 Co159 2.135 . S
Co168 O169 2.216 . S
Co168 O170 2.091 . S
Co168 O172 2.004 . S
Co168 O178 2.021 . S
Co168 O180 2.137 . S
Co168 O181 2.244 . S
O169 Co168 2.216 . S
O169 C176 1.247 . S
O170 Co168 2.091 . S
O170 C176 1.261 . S
C171 O180 1.247 . S
C171 O181 1.272 . S
O172 Co168 2.004 . S
O172 C177 1.259 . S
Co173 O174 2.061 . S
Co173 O179 2.052 . S
Co173 O181 2.135 . S
O174 Co173 2.061 . S
O174 C177 1.235 . S
C175 O178 1.238 . S
C175 O179 1.241 . S
C176 O169 1.247 . S
C176 O170 1.261 . S
C177 O172 1.259 . S
C177 O174 1.235 . S
O178 Co168 2.021 . S
O178 C175 1.238 . S
O179 Co173 2.052 . S
O179 C175 1.241 . S
O180 Co168 2.137 . S
O180 C171 1.247 . S
O181 Co168 2.244 . S
O181 C171 1.272 . S
O181 Co173 2.135 . S
Co182 O183 2.216 . S
Co182 O184 2.091 . S
Co182 O186 2.004 . S
Co182 O192 2.021 . S
Co182 O194 2.137 . S
Co182 O195 2.244 . S
O183 Co182 2.216 . S
O183 C190 1.247 . S
O184 Co182 2.091 . S
O184 C190 1.261 . S
C185 O194 1.247 . S
C185 O195 1.272 . S
O186 Co182 2.004 . S
O186 C191 1.259 . S
Co187 O188 2.061 . S
Co187 O193 2.052 . S
Co187 O195 2.135 . S
O188 Co187 2.061 . S
O188 C191 1.235 . S
C189 O192 1.238 . S
C189 O193 1.241 . S
C190 O183 1.247 . S
C190 O184 1.261 . S
C191 O186 1.259 . S
C191 O188 1.235 . S
O192 Co182 2.021 . S
O192 C189 1.238 . S
O193 Co187 2.052 . S
O193 C189 1.241 . S
O194 Co182 2.137 . S
O194 C185 1.247 . S
O195 Co182 2.244 . S
O195 C185 1.272 . S
O195 Co187 2.135 . S
Co196 O197 2.216 . S
Co196 O198 2.091 . S
Co196 O200 2.004 . S
Co196 O206 2.021 . S
Co196 O208 2.137 . S
Co196 O209 2.244 . S
O197 Co196 2.216 . S
O197 C204 1.247 . S
O198 Co196 2.091 . S
O198 C204 1.261 . S
C199 O208 1.247 . S
C199 O209 1.272 . S
O200 Co196 2.004 . S
O200 C205 1.259 . S
Co201 O202 2.061 . S
Co201 O207 2.052 . S
Co201 O209 2.135 . S
O202 Co201 2.061 . S
O202 C205 1.235 . S
C203 O206 1.238 . S
C203 O207 1.241 . S
C204 O197 1.247 . S
C204 O198 1.261 . S
C205 O200 1.259 . S
C205 O202 1.235 . S
O206 Co196 2.021 . S
O206 C203 1.238 . S
O207 Co201 2.052 . S
O207 C203 1.241 . S
O208 Co196 2.137 . S
O208 C199 1.247 . S
O209 Co196 2.244 . S
O209 C199 1.272 . S
O209 Co201 2.135 . S
Co210 O211 2.216 . S
Co210 O212 2.091 . S
Co210 O214 2.004 . S
Co210 O220 2.021 . S
Co210 O222 2.137 . S
Co210 O223 2.244 . S
O211 Co210 2.216 . S
O211 C218 1.247 . S
O212 Co210 2.091 . S
O212 C218 1.261 . S
C213 O222 1.247 . S
C213 O223 1.272 . S
O214 Co210 2.004 . S
O214 C219 1.259 . S
Co215 O216 2.061 . S
Co215 O221 2.052 1_554 S
Co215 O223 2.135 . S
O216 Co215 2.061 . S
O216 C219 1.235 . S
C217 O220 1.238 1_556 S
C217 O221 1.241 . S
C218 O211 1.247 . S
C218 O212 1.261 . S
C219 O214 1.259 . S
C219 O216 1.235 . S
O220 Co210 2.021 . S
O220 C217 1.238 1_554 S
O221 Co215 2.052 1_556 S
O221 C217 1.241 . S
O222 Co210 2.137 . S
O222 C213 1.247 . S
O223 Co210 2.244 . S
O223 C213 1.272 . S
O223 Co215 2.135 . S
Co224 O225 2.216 . S
Co224 O226 2.091 . S
Co224 O228 2.004 . S
Co224 O234 2.021 . S
Co224 O236 2.137 . S
Co224 O237 2.244 . S
O225 Co224 2.216 . S
O225 C232 1.247 . S
O226 Co224 2.091 . S
O226 C232 1.261 . S
C227 O236 1.247 . S
C227 O237 1.272 . S
O228 Co224 2.004 . S
O228 C233 1.259 . S
Co229 O230 2.061 . S
Co229 O235 2.052 . S
Co229 O237 2.135 . S
O230 Co229 2.061 . S
O230 C233 1.235 . S
C231 O234 1.238 . S
C231 O235 1.241 . S
C232 O225 1.247 . S
C232 O226 1.261 . S
C233 O228 1.259 . S
C233 O230 1.235 . S
O234 Co224 2.021 . S
O234 C231 1.238 . S
O235 Co229 2.052 . S
O235 C231 1.241 . S
O236 Co224 2.137 . S
O236 C227 1.247 . S
O237 Co224 2.244 . S
O237 C227 1.272 . S
O237 Co229 2.135 . S
Co238 O239 2.216 . S
Co238 O240 2.091 . S
Co238 O242 2.004 . S
Co238 O248 2.021 . S
Co238 O250 2.137 . S
Co238 O251 2.244 . S
O239 Co238 2.216 . S
O239 C246 1.247 . S
O240 Co238 2.091 . S
O240 C246 1.261 . S
C241 O250 1.247 . S
C241 O251 1.272 . S
O242 Co238 2.004 . S
O242 C247 1.259 . S
Co243 O244 2.061 . S
Co243 O249 2.052 1_554 S
Co243 O251 2.135 . S
O244 Co243 2.061 . S
O244 C247 1.235 . S
C245 O248 1.238 1_556 S
C245 O249 1.241 . S
C246 O239 1.247 . S
C246 O240 1.261 . S
C247 O242 1.259 . S
C247 O244 1.235 . S
O248 Co238 2.021 . S
O248 C245 1.238 1_554 S
O249 Co243 2.052 1_556 S
O249 C245 1.241 . S
O250 Co238 2.137 . S
O250 C241 1.247 . S
O251 Co238 2.244 . S
O251 C241 1.272 . S
O251 Co243 2.135 . S
Co252 O253 2.216 . S
Co252 O254 2.091 . S
Co252 O256 2.004 . S
Co252 O262 2.021 . S
Co252 O264 2.137 . S
Co252 O265 2.244 . S
O253 Co252 2.216 . S
O253 C260 1.247 . S
O254 Co252 2.091 . S
O254 C260 1.261 . S
C255 O264 1.247 . S
C255 O265 1.272 . S
O256 Co252 2.004 . S
O256 C261 1.259 . S
Co257 O258 2.061 . S
Co257 O263 2.052 . S
Co257 O265 2.135 . S
O258 Co257 2.061 . S
O258 C261 1.235 . S
C259 O262 1.238 . S
C259 O263 1.241 . S
C260 O253 1.247 . S
C260 O254 1.261 . S
C261 O256 1.259 . S
C261 O258 1.235 . S
O262 Co252 2.021 . S
O262 C259 1.238 . S
O263 Co257 2.052 . S
O263 C259 1.241 . S
O264 Co252 2.137 . S
O264 C255 1.247 . S
O265 Co252 2.244 . S
O265 C255 1.272 . S
O265 Co257 2.135 . S
Co266 O267 2.216 . S
Co266 O268 2.091 . S
Co266 O270 2.004 . S
Co266 O276 2.021 . S
Co266 O278 2.137 . S
Co266 O279 2.244 . S
O267 Co266 2.216 . S
O267 C274 1.247 . S
O268 Co266 2.091 . S
O268 C274 1.261 . S
C269 O278 1.247 . S
C269 O279 1.272 . S
O270 Co266 2.004 . S
O270 C275 1.259 . S
Co271 O272 2.061 . S
Co271 O277 2.052 . S
Co271 O279 2.135 . S
O272 Co271 2.061 . S
O272 C275 1.235 . S
C273 O276 1.238 . S
C273 O277 1.241 . S
C274 O267 1.247 . S
C274 O268 1.261 . S
C275 O270 1.259 . S
C275 O272 1.235 . S
O276 Co266 2.021 . S
O276 C273 1.238 . S
O277 Co271 2.052 . S
O277 C273 1.241 . S
O278 Co266 2.137 . S
O278 C269 1.247 . S
O279 Co266 2.244 . S
O279 C269 1.272 . S
O279 Co271 2.135 . S
Co280 O281 2.216 . S
Co280 O282 2.091 . S
Co280 O284 2.004 . S
Co280 O290 2.021 . S
Co280 O292 2.137 . S
Co280 O293 2.244 . S
O281 Co280 2.216 . S
O281 C288 1.247 . S
O282 Co280 2.091 . S
O282 C288 1.261 . S
C283 O292 1.247 . S
C283 O293 1.272 . S
O284 Co280 2.004 . S
O284 C289 1.259 . S
Co285 O286 2.061 . S
Co285 O291 2.052 . S
Co285 O293 2.135 . S
O286 Co285 2.061 . S
O286 C289 1.235 . S
C287 O290 1.238 . S
C287 O291 1.241 . S
C288 O281 1.247 . S
C288 O282 1.261 . S
C289 O284 1.259 . S
C289 O286 1.235 . S
O290 Co280 2.021 . S
O290 C287 1.238 . S
O291 Co285 2.052 . S
O291 C287 1.241 . S
O292 Co280 2.137 . S
O292 C283 1.247 . S
O293 Co280 2.244 . S
O293 C283 1.272 . S
O293 Co285 2.135 . S
Co294 O295 2.216 . S
Co294 O296 2.091 . S
Co294 O298 2.004 . S
Co294 O304 2.021 . S
Co294 O306 2.137 . S
Co294 O307 2.244 . S
O295 Co294 2.216 . S
O295 C302 1.247 . S
O296 Co294 2.091 . S
O296 C302 1.261 . S
C297 O306 1.247 . S
C297 O307 1.272 . S
O298 Co294 2.004 . S
O298 C303 1.259 . S
Co299 O300 2.061 . S
Co299 O305 2.052 1_556 S
Co299 O307 2.135 . S
O300 Co299 2.061 . S
O300 C303 1.235 . S
C301 O304 1.238 1_554 S
C301 O305 1.241 . S
C302 O295 1.247 . S
C302 O296 1.261 . S
C303 O298 1.259 . S
C303 O300 1.235 . S
O304 Co294 2.021 . S
O304 C301 1.238 1_556 S
O305 Co299 2.052 1_554 S
O305 C301 1.241 . S
O306 Co294 2.137 . S
O306 C297 1.247 . S
O307 Co294 2.244 . S
O307 C297 1.272 . S
O307 Co299 2.135 . S
Co308 O309 2.216 . S
Co308 O310 2.091 . S
Co308 O312 2.004 . S
Co308 O318 2.021 . S
Co308 O320 2.137 . S
Co308 O321 2.244 . S
O309 Co308 2.216 . S
O309 C316 1.247 . S
O310 Co308 2.091 . S
O310 C316 1.261 . S
C311 O320 1.247 . S
C311 O321 1.272 . S
O312 Co308 2.004 . S
O312 C317 1.259 . S
Co313 O314 2.061 . S
Co313 O319 2.052 . S
Co313 O321 2.135 . S
O314 Co313 2.061 . S
O314 C317 1.235 . S
C315 O318 1.238 . S
C315 O319 1.241 . S
C316 O309 1.247 . S
C316 O310 1.261 . S
C317 O312 1.259 . S
C317 O314 1.235 . S
O318 Co308 2.021 . S
O318 C315 1.238 . S
O319 Co313 2.052 . S
O319 C315 1.241 . S
O320 Co308 2.137 . S
O320 C311 1.247 . S
O321 Co308 2.244 . S
O321 C311 1.272 . S
O321 Co313 2.135 . S
Co322 O323 2.216 . S
Co322 O324 2.091 . S
Co322 O326 2.004 . S
Co322 O332 2.021 . S
Co322 O334 2.137 . S
Co322 O335 2.244 . S
O323 Co322 2.216 . S
O323 C330 1.247 . S
O324 Co322 2.091 . S
O324 C330 1.261 . S
C325 O334 1.247 . S
C325 O335 1.272 . S
O326 Co322 2.004 . S
O326 C331 1.259 . S
Co327 O328 2.061 . S
Co327 O333 2.052 . S
Co327 O335 2.135 . S
O328 Co327 2.061 . S
O328 C331 1.235 . S
C329 O332 1.238 . S
C329 O333 1.241 . S
C330 O323 1.247 . S
C330 O324 1.261 . S
C331 O326 1.259 . S
C331 O328 1.235 . S
O332 Co322 2.021 . S
O332 C329 1.238 . S
O333 Co327 2.052 . S
O333 C329 1.241 . S
O334 Co322 2.137 . S
O334 C325 1.247 . S
O335 Co322 2.244 . S
O335 C325 1.272 . S
O335 Co327 2.135 . S
Co336 O337 2.216 . S
Co336 O338 2.091 . S
Co336 O340 2.004 . S
Co336 O346 2.021 . S
Co336 O348 2.137 . S
Co336 O349 2.244 . S
O337 Co336 2.216 . S
O337 C344 1.247 . S
O338 Co336 2.091 . S
O338 C344 1.261 . S
C339 O348 1.247 . S
C339 O349 1.272 . S
O340 Co336 2.004 . S
O340 C345 1.259 . S
Co341 O342 2.061 . S
Co341 O347 2.052 . S
Co341 O349 2.135 . S
O342 Co341 2.061 . S
O342 C345 1.235 . S
C343 O346 1.238 . S
C343 O347 1.241 . S
C344 O337 1.247 . S
C344 O338 1.261 . S
C345 O340 1.259 . S
C345 O342 1.235 . S
O346 Co336 2.021 . S
O346 C343 1.238 . S
O347 Co341 2.052 . S
O347 C343 1.241 . S
O348 Co336 2.137 . S
O348 C339 1.247 . S
O349 Co336 2.244 . S
O349 C339 1.272 . S
O349 Co341 2.135 . S
Co350 O351 2.216 . S
Co350 O352 2.091 . S
Co350 O354 2.004 . S
Co350 O360 2.021 . S
Co350 O362 2.137 . S
Co350 O363 2.244 . S
O351 Co350 2.216 . S
O351 C358 1.247 . S
O352 Co350 2.091 . S
O352 C358 1.261 . S
C353 O362 1.247 . S
C353 O363 1.272 . S
O354 Co350 2.004 . S
O354 C359 1.259 . S
Co355 O356 2.061 . S
Co355 O361 2.052 1_556 S
Co355 O363 2.135 . S
O356 Co355 2.061 . S
O356 C359 1.235 . S
C357 O360 1.238 1_554 S
C357 O361 1.241 . S
C358 O351 1.247 . S
C358 O352 1.261 . S
C359 O354 1.259 . S
C359 O356 1.235 . S
O360 Co350 2.021 . S
O360 C357 1.238 1_556 S
O361 Co355 2.052 1_554 S
O361 C357 1.241 . S
O362 Co350 2.137 . S
O362 C353 1.247 . S
O363 Co350 2.244 . S
O363 C353 1.272 . S
O363 Co355 2.135 . S
Co364 O365 2.216 . S
Co364 O366 2.091 . S
Co364 O368 2.004 . S
Co364 O374 2.021 . S
Co364 O376 2.137 . S
Co364 O377 2.244 . S
O365 Co364 2.216 . S
O365 C372 1.247 . S
O366 Co364 2.091 . S
O366 C372 1.261 . S
C367 O376 1.247 . S
C367 O377 1.272 . S
O368 Co364 2.004 . S
O368 C373 1.259 . S
Co369 O370 2.061 . S
Co369 O375 2.052 . S
Co369 O377 2.135 . S
O370 Co369 2.061 . S
O370 C373 1.235 . S
C371 O374 1.238 . S
C371 O375 1.241 . S
C372 O365 1.247 . S
C372 O366 1.261 . S
C373 O368 1.259 . S
C373 O370 1.235 . S
O374 Co364 2.021 . S
O374 C371 1.238 . S
O375 Co369 2.052 . S
O375 C371 1.241 . S
O376 Co364 2.137 . S
O376 C367 1.247 . S
O377 Co364 2.244 . S
O377 C367 1.272 . S
O377 Co369 2.135 . S
Co378 O379 2.216 . S
Co378 O380 2.091 . S
Co378 O382 2.004 . S
Co378 O388 2.021 . S
Co378 O390 2.137 . S
Co378 O391 2.244 . S
O379 Co378 2.216 . S
O379 C386 1.247 . S
O380 Co378 2.091 . S
O380 C386 1.261 . S
C381 O390 1.247 . S
C381 O391 1.272 . S
O382 Co378 2.004 . S
O382 C387 1.259 . S
Co383 O384 2.061 . S
Co383 O389 2.052 . S
Co383 O391 2.135 . S
O384 Co383 2.061 . S
O384 C387 1.235 . S
C385 O388 1.238 . S
C385 O389 1.241 . S
C386 O379 1.247 . S
C386 O380 1.261 . S
C387 O382 1.259 . S
C387 O384 1.235 . S
O388 Co378 2.021 . S
O388 C385 1.238 . S
O389 Co383 2.052 . S
O389 C385 1.241 . S
O390 Co378 2.137 . S
O390 C381 1.247 . S
O391 Co378 2.244 . S
O391 C381 1.272 . S
O391 Co383 2.135 . S
Co392 O393 2.216 . S
Co392 O394 2.091 . S
Co392 O396 2.004 . S
Co392 O402 2.021 . S
Co392 O404 2.137 . S
Co392 O405 2.244 . S
O393 Co392 2.216 . S
O393 C400 1.247 . S
O394 Co392 2.091 . S
O394 C400 1.261 . S
C395 O404 1.247 . S
C395 O405 1.272 . S
O396 Co392 2.004 . S
O396 C401 1.259 . S
Co397 O398 2.061 . S
Co397 O403 2.052 . S
Co397 O405 2.135 . S
O398 Co397 2.061 . S
O398 C401 1.235 . S
C399 O402 1.238 . S
C399 O403 1.241 . S
C400 O393 1.247 . S
C400 O394 1.261 . S
C401 O396 1.259 . S
C401 O398 1.235 . S
O402 Co392 2.021 . S
O402 C399 1.238 . S
O403 Co397 2.052 . S
O403 C399 1.241 . S
O404 Co392 2.137 . S
O404 C395 1.247 . S
O405 Co392 2.244 . S
O405 C395 1.272 . S
O405 Co397 2.135 . S
Co406 O407 2.216 . S
Co406 O408 2.091 . S
Co406 O410 2.004 . S
Co406 O416 2.021 . S
Co406 O418 2.137 . S
Co406 O419 2.244 . S
O407 Co406 2.216 . S
O407 C414 1.247 . S
O408 Co406 2.091 . S
O408 C414 1.261 . S
C409 O418 1.247 . S
C409 O419 1.272 . S
O410 Co406 2.004 . S
O410 C415 1.259 . S
Co411 O412 2.061 . S
Co411 O417 2.052 1_554 S
Co411 O419 2.135 . S
O412 Co411 2.061 . S
O412 C415 1.235 . S
C413 O416 1.238 1_556 S
C413 O417 1.241 . S
C414 O407 1.247 . S
C414 O408 1.261 . S
C415 O410 1.259 . S
C415 O412 1.235 . S
O416 Co406 2.021 . S
O416 C413 1.238 1_554 S
O417 Co411 2.052 1_556 S
O417 C413 1.241 . S
O418 Co406 2.137 . S
O418 C409 1.247 . S
O419 Co406 2.244 . S
O419 C409 1.272 . S
O419 Co411 2.135 . S
Co420 O421 2.216 . S
Co420 O422 2.091 . S
Co420 O424 2.004 . S
Co420 O430 2.021 . S
Co420 O432 2.137 . S
Co420 O433 2.244 . S
O421 Co420 2.216 . S
O421 C428 1.247 . S
O422 Co420 2.091 . S
O422 C428 1.261 . S
C423 O432 1.247 . S
C423 O433 1.272 . S
O424 Co420 2.004 . S
O424 C429 1.259 . S
Co425 O426 2.061 . S
Co425 O431 2.052 . S
Co425 O433 2.135 . S
O426 Co425 2.061 . S
O426 C429 1.235 . S
C427 O430 1.238 . S
C427 O431 1.241 . S
C428 O421 1.247 . S
C428 O422 1.261 . S
C429 O424 1.259 . S
C429 O426 1.235 . S
O430 Co420 2.021 . S
O430 C427 1.238 . S
O431 Co425 2.052 . S
O431 C427 1.241 . S
O432 Co420 2.137 . S
O432 C423 1.247 . S
O433 Co420 2.244 . S
O433 C423 1.272 . S
O433 Co425 2.135 . S
Co434 O435 2.216 . S
Co434 O436 2.091 . S
Co434 O438 2.004 . S
Co434 O444 2.021 . S
Co434 O446 2.137 . S
Co434 O447 2.244 . S
O435 Co434 2.216 . S
O435 C442 1.247 . S
O436 Co434 2.091 . S
O436 C442 1.261 . S
C437 O446 1.247 . S
C437 O447 1.272 . S
O438 Co434 2.004 . S
O438 C443 1.259 . S
Co439 O440 2.061 . S
Co439 O445 2.052 . S
Co439 O447 2.135 . S
O440 Co439 2.061 . S
O440 C443 1.235 . S
C441 O444 1.238 . S
C441 O445 1.241 . S
C442 O435 1.247 . S
C442 O436 1.261 . S
C443 O438 1.259 . S
C443 O440 1.235 . S
O444 Co434 2.021 . S
O444 C441 1.238 . S
O445 Co439 2.052 . S
O445 C441 1.241 . S
O446 Co434 2.137 . S
O446 C437 1.247 . S
O447 Co434 2.244 . S
O447 C437 1.272 . S
O447 Co439 2.135 . S
H448 C454 0.930 . S
H449 C458 0.930 . S
H450 C463 0.929 . S
H451 C461 0.929 . S
H452 C456 0.929 . S
H453 C462 0.929 . S
C454 H448 0.930 . S
C454 C455 1.367 . S
C454 C462 1.378 . S
C455 C454 1.367 . S
C455 C463 1.433 . S
C456 H452 0.929 . S
C456 C458 1.378 . S
C456 C460 1.350 . S
C457 C460 1.463 . S
C457 C462 1.350 . S
C457 N465 1.427 . S
C458 H449 0.930 . S
C458 C456 1.378 . S
C458 C459 1.367 . S
C459 C458 1.367 . S
C459 C461 1.433 . S
C460 C456 1.350 . S
C460 C457 1.463 . S
C460 N464 1.427 . S
C461 H451 0.929 . S
C461 C459 1.433 . S
C461 N464 1.384 . S
C462 H453 0.929 . S
C462 C454 1.378 . S
C462 C457 1.350 . S
C463 H450 0.929 . S
C463 C455 1.433 . S
C463 N465 1.384 . S
N464 C460 1.427 . S
N464 C461 1.384 . S
N465 C457 1.427 . S
N465 C463 1.384 . S
H466 C472 0.930 . S
H467 C476 0.930 . S
H468 C481 0.929 . S
H469 C479 0.929 . S
H470 C474 0.929 . S
H471 C480 0.929 . S
C472 H466 0.930 . S
C472 C473 1.367 . S
C472 C480 1.378 . S
C473 C472 1.367 . S
C473 C481 1.433 . S
C474 H470 0.929 . S
C474 C476 1.378 . S
C474 C478 1.350 . S
C475 C478 1.463 . S
C475 C480 1.350 . S
C475 N483 1.427 . S
C476 H467 0.930 . S
C476 C474 1.378 . S
C476 C477 1.367 . S
C477 C476 1.367 . S
C477 C479 1.433 . S
C478 C474 1.350 . S
C478 C475 1.463 . S
C478 N482 1.427 . S
C479 H469 0.929 . S
C479 C477 1.433 . S
C479 N482 1.384 . S
C480 H471 0.929 . S
C480 C472 1.378 . S
C480 C475 1.350 . S
C481 H468 0.929 . S
C481 C473 1.433 . S
C481 N483 1.384 . S
N482 C478 1.427 . S
N482 C479 1.384 . S
N483 C475 1.427 . S
N483 C481 1.384 . S
H484 C490 0.930 . S
H485 C494 0.930 . S
H486 C499 0.929 . S
H487 C497 0.929 . S
H488 C492 0.929 . S
H489 C498 0.929 . S
C490 H484 0.930 . S
C490 C491 1.367 . S
C490 C498 1.378 . S
C491 C490 1.367 . S
C491 C499 1.433 . S
C492 H488 0.929 . S
C492 C494 1.378 . S
C492 C496 1.350 . S
C493 C496 1.463 . S
C493 C498 1.350 . S
C493 N501 1.427 . S
C494 H485 0.930 . S
C494 C492 1.378 . S
C494 C495 1.367 . S
C495 C494 1.367 . S
C495 C497 1.433 . S
C496 C492 1.350 . S
C496 C493 1.463 . S
C496 N500 1.427 . S
C497 H487 0.929 . S
C497 C495 1.433 . S
C497 N500 1.384 . S
C498 H489 0.929 . S
C498 C490 1.378 . S
C498 C493 1.350 . S
C499 H486 0.929 . S
C499 C491 1.433 . S
C499 N501 1.384 . S
N500 C496 1.427 . S
N500 C497 1.384 . S
N501 C493 1.427 . S
N501 C499 1.384 . S
H502 C508 0.930 . S
H503 C512 0.930 . S
H504 C517 0.929 . S
H505 C515 0.929 . S
H506 C510 0.929 . S
H507 C516 0.929 . S
C508 H502 0.930 . S
C508 C509 1.367 . S
C508 C516 1.378 . S
C509 C508 1.367 . S
C509 C517 1.433 . S
C510 H506 0.929 . S
C510 C512 1.378 . S
C510 C514 1.350 . S
C511 C514 1.463 . S
C511 C516 1.350 . S
C511 N519 1.427 . S
C512 H503 0.930 . S
C512 C510 1.378 . S
C512 C513 1.367 . S
C513 C512 1.367 . S
C513 C515 1.433 . S
C514 C510 1.350 . S
C514 C511 1.463 . S
C514 N518 1.427 . S
C515 H505 0.929 . S
C515 C513 1.433 . S
C515 N518 1.384 . S
C516 H507 0.929 . S
C516 C508 1.378 . S
C516 C511 1.350 . S
C517 H504 0.929 . S
C517 C509 1.433 . S
C517 N519 1.384 . S
N518 C514 1.427 . S
N518 C515 1.384 . S
N519 C511 1.427 . S
N519 C517 1.384 . S
H520 C526 0.930 . S
H521 C530 0.930 . S
H522 C535 0.929 . S
H523 C533 0.929 . S
H524 C528 0.929 . S
H525 C534 0.929 . S
C526 H520 0.930 . S
C526 C527 1.367 . S
C526 C534 1.378 . S
C527 C526 1.367 . S
C527 C535 1.433 . S
C528 H524 0.929 . S
C528 C530 1.378 . S
C528 C532 1.350 . S
C529 C532 1.463 . S
C529 C534 1.350 . S
C529 N537 1.427 . S
C530 H521 0.930 . S
C530 C528 1.378 . S
C530 C531 1.367 . S
C531 C530 1.367 . S
C531 C533 1.433 . S
C532 C528 1.350 . S
C532 C529 1.463 . S
C532 N536 1.427 . S
C533 H523 0.929 . S
C533 C531 1.433 . S
C533 N536 1.384 . S
C534 H525 0.929 . S
C534 C526 1.378 . S
C534 C529 1.350 . S
C535 H522 0.929 . S
C535 C527 1.433 . S
C535 N537 1.384 . S
N536 C532 1.427 . S
N536 C533 1.384 . S
N537 C529 1.427 . S
N537 C535 1.384 . S
H538 C544 0.930 . S
H539 C548 0.930 . S
H540 C553 0.929 . S
H541 C551 0.929 . S
H542 C546 0.929 . S
H543 C552 0.929 . S
C544 H538 0.930 . S
C544 C545 1.367 . S
C544 C552 1.378 . S
C545 C544 1.367 . S
C545 C553 1.433 . S
C546 H542 0.929 . S
C546 C548 1.378 . S
C546 C550 1.350 . S
C547 C550 1.463 . S
C547 C552 1.350 . S
C547 N555 1.427 . S
C548 H539 0.930 . S
C548 C546 1.378 . S
C548 C549 1.367 . S
C549 C548 1.367 . S
C549 C551 1.433 . S
C550 C546 1.350 . S
C550 C547 1.463 . S
C550 N554 1.427 . S
C551 H541 0.929 . S
C551 C549 1.433 . S
C551 N554 1.384 . S
C552 H543 0.929 . S
C552 C544 1.378 . S
C552 C547 1.350 . S
C553 H540 0.929 . S
C553 C545 1.433 . S
C553 N555 1.384 . S
N554 C550 1.427 . S
N554 C551 1.384 . S
N555 C547 1.427 . S
N555 C553 1.384 . S
H556 C562 0.930 . S
H557 C566 0.930 . S
H558 C571 0.929 . S
H559 C569 0.929 . S
H560 C564 0.929 . S
H561 C570 0.929 . S
C562 H556 0.930 . S
C562 C563 1.367 . S
C562 C570 1.378 . S
C563 C562 1.367 . S
C563 C571 1.433 . S
C564 H560 0.929 . S
C564 C566 1.378 . S
C564 C568 1.350 . S
C565 C568 1.463 . S
C565 C570 1.350 . S
C565 N573 1.427 . S
C566 H557 0.930 . S
C566 C564 1.378 . S
C566 C567 1.367 . S
C567 C566 1.367 . S
C567 C569 1.433 . S
C568 C564 1.350 . S
C568 C565 1.463 . S
C568 N572 1.427 . S
C569 H559 0.929 . S
C569 C567 1.433 . S
C569 N572 1.384 . S
C570 H561 0.929 . S
C570 C562 1.378 . S
C570 C565 1.350 . S
C571 H558 0.929 . S
C571 C563 1.433 . S
C571 N573 1.384 . S
N572 C568 1.427 . S
N572 C569 1.384 . S
N573 C565 1.427 . S
N573 C571 1.384 . S
H574 C580 0.930 . S
H575 C584 0.930 . S
H576 C589 0.929 . S
H577 C587 0.929 . S
H578 C582 0.929 . S
H579 C588 0.929 . S
C580 H574 0.930 . S
C580 C581 1.367 . S
C580 C588 1.378 . S
C581 C580 1.367 . S
C581 C589 1.433 . S
C582 H578 0.929 . S
C582 C584 1.378 . S
C582 C586 1.350 . S
C583 C586 1.463 . S
C583 C588 1.350 . S
C583 N591 1.427 . S
C584 H575 0.930 . S
C584 C582 1.378 . S
C584 C585 1.367 . S
C585 C584 1.367 . S
C585 C587 1.433 . S
C586 C582 1.350 . S
C586 C583 1.463 . S
C586 N590 1.427 . S
C587 H577 0.929 . S
C587 C585 1.433 . S
C587 N590 1.384 . S
C588 H579 0.929 . S
C588 C580 1.378 . S
C588 C583 1.350 . S
C589 H576 0.929 . S
C589 C581 1.433 . S
C589 N591 1.384 . S
N590 C586 1.427 . S
N590 C587 1.384 . S
N591 C583 1.427 . S
N591 C589 1.384 . S
H592 C598 0.930 . S
H593 C602 0.930 . S
H594 C607 0.929 . S
H595 C605 0.929 . S
H596 C600 0.929 . S
H597 C606 0.929 . S
C598 H592 0.930 . S
C598 C599 1.367 . S
C598 C606 1.378 . S
C599 C598 1.367 . S
C599 C607 1.433 . S
C600 H596 0.929 . S
C600 C602 1.378 . S
C600 C604 1.350 . S
C601 C604 1.463 . S
C601 C606 1.350 . S
C601 N609 1.427 . S
C602 H593 0.930 . S
C602 C600 1.378 . S
C602 C603 1.367 . S
C603 C602 1.367 . S
C603 C605 1.433 . S
C604 C600 1.350 . S
C604 C601 1.463 . S
C604 N608 1.427 . S
C605 H595 0.929 . S
C605 C603 1.433 . S
C605 N608 1.384 . S
C606 H597 0.929 . S
C606 C598 1.378 . S
C606 C601 1.350 . S
C607 H594 0.929 . S
C607 C599 1.433 . S
C607 N609 1.384 . S
N608 C604 1.427 . S
N608 C605 1.384 . S
N609 C601 1.427 . S
N609 C607 1.384 . S
H610 C616 0.930 . S
H611 C620 0.930 . S
H612 C625 0.929 . S
H613 C623 0.929 . S
H614 C618 0.929 . S
H615 C624 0.929 . S
C616 H610 0.930 . S
C616 C617 1.367 . S
C616 C624 1.378 . S
C617 C616 1.367 . S
C617 C625 1.433 . S
C618 H614 0.929 . S
C618 C620 1.378 . S
C618 C622 1.350 . S
C619 C622 1.463 . S
C619 C624 1.350 . S
C619 N627 1.427 . S
C620 H611 0.930 . S
C620 C618 1.378 . S
C620 C621 1.367 . S
C621 C620 1.367 . S
C621 C623 1.433 . S
C622 C618 1.350 . S
C622 C619 1.463 . S
C622 N626 1.427 . S
C623 H613 0.929 . S
C623 C621 1.433 . S
C623 N626 1.384 . S
C624 H615 0.929 . S
C624 C616 1.378 . S
C624 C619 1.350 . S
C625 H612 0.929 . S
C625 C617 1.433 . S
C625 N627 1.384 . S
N626 C622 1.427 . S
N626 C623 1.384 . S
N627 C619 1.427 . S
N627 C625 1.384 . S
H628 C634 0.930 . S
H629 C638 0.930 . S
H630 C643 0.929 . S
H631 C641 0.929 . S
H632 C636 0.929 . S
H633 C642 0.929 . S
C634 H628 0.930 . S
C634 C635 1.367 . S
C634 C642 1.378 . S
C635 C634 1.367 . S
C635 C643 1.433 . S
C636 H632 0.929 . S
C636 C638 1.378 . S
C636 C640 1.350 . S
C637 C640 1.463 . S
C637 C642 1.350 . S
C637 N645 1.427 . S
C638 H629 0.930 . S
C638 C636 1.378 . S
C638 C639 1.367 . S
C639 C638 1.367 . S
C639 C641 1.433 . S
C640 C636 1.350 . S
C640 C637 1.463 . S
C640 N644 1.427 . S
C641 H631 0.929 . S
C641 C639 1.433 . S
C641 N644 1.384 . S
C642 H633 0.929 . S
C642 C634 1.378 . S
C642 C637 1.350 . S
C643 H630 0.929 . S
C643 C635 1.433 . S
C643 N645 1.384 . S
N644 C640 1.427 . S
N644 C641 1.384 . S
N645 C637 1.427 . S
N645 C643 1.384 . S
H646 C652 0.930 . S
H647 C656 0.930 . S
H648 C661 0.929 . S
H649 C659 0.929 . S
H650 C654 0.929 . S
H651 C660 0.929 . S
C652 H646 0.930 . S
C652 C653 1.367 . S
C652 C660 1.378 . S
C653 C652 1.367 . S
C653 C661 1.433 . S
C654 H650 0.929 . S
C654 C656 1.378 . S
C654 C658 1.350 . S
C655 C658 1.463 . S
C655 C660 1.350 . S
C655 N663 1.427 . S
C656 H647 0.930 . S
C656 C654 1.378 . S
C656 C657 1.367 . S
C657 C656 1.367 . S
C657 C659 1.433 . S
C658 C654 1.350 . S
C658 C655 1.463 . S
C658 N662 1.427 . S
C659 H649 0.929 . S
C659 C657 1.433 . S
C659 N662 1.384 . S
C660 H651 0.929 . S
C660 C652 1.378 . S
C660 C655 1.350 . S
C661 H648 0.929 . S
C661 C653 1.433 . S
C661 N663 1.384 . S
N662 C658 1.427 . S
N662 C659 1.384 . S
N663 C655 1.427 . S
N663 C661 1.384 . S
H664 C670 0.930 . S
H665 C674 0.930 . S
H666 C679 0.929 . S
H667 C677 0.929 . S
H668 C672 0.929 . S
H669 C678 0.929 . S
C670 H664 0.930 . S
C670 C671 1.367 . S
C670 C678 1.378 . S
C671 C670 1.367 . S
C671 C679 1.433 . S
C672 H668 0.929 . S
C672 C674 1.378 . S
C672 C676 1.350 . S
C673 C676 1.463 . S
C673 C678 1.350 . S
C673 N681 1.427 . S
C674 H665 0.930 . S
C674 C672 1.378 . S
C674 C675 1.367 . S
C675 C674 1.367 . S
C675 C677 1.433 . S
C676 C672 1.350 . S
C676 C673 1.463 . S
C676 N680 1.427 . S
C677 H667 0.929 . S
C677 C675 1.433 . S
C677 N680 1.384 . S
C678 H669 0.929 . S
C678 C670 1.378 . S
C678 C673 1.350 . S
C679 H666 0.929 . S
C679 C671 1.433 . S
C679 N681 1.384 . S
N680 C676 1.427 . S
N680 C677 1.384 . S
N681 C673 1.427 . S
N681 C679 1.384 . S
H682 C688 0.930 . S
H683 C692 0.930 . S
H684 C697 0.929 . S
H685 C695 0.929 . S
H686 C690 0.929 . S
H687 C696 0.929 . S
C688 H682 0.930 . S
C688 C689 1.367 . S
C688 C696 1.378 . S
C689 C688 1.367 . S
C689 C697 1.433 . S
C690 H686 0.929 . S
C690 C692 1.378 . S
C690 C694 1.350 . S
C691 C694 1.463 . S
C691 C696 1.350 . S
C691 N699 1.427 . S
C692 H683 0.930 . S
C692 C690 1.378 . S
C692 C693 1.367 . S
C693 C692 1.367 . S
C693 C695 1.433 . S
C694 C690 1.350 . S
C694 C691 1.463 . S
C694 N698 1.427 . S
C695 H685 0.929 . S
C695 C693 1.433 . S
C695 N698 1.384 . S
C696 H687 0.929 . S
C696 C688 1.378 . S
C696 C691 1.350 . S
C697 H684 0.929 . S
C697 C689 1.433 . S
C697 N699 1.384 . S
N698 C694 1.427 . S
N698 C695 1.384 . S
N699 C691 1.427 . S
N699 C697 1.384 . S
H700 C706 0.930 . S
H701 C710 0.930 . S
H702 C715 0.929 . S
H703 C713 0.929 . S
H704 C708 0.929 . S
H705 C714 0.929 . S
C706 H700 0.930 . S
C706 C707 1.367 . S
C706 C714 1.378 . S
C707 C706 1.367 . S
C707 C715 1.433 . S
C708 H704 0.929 . S
C708 C710 1.378 . S
C708 C712 1.350 . S
C709 C712 1.463 . S
C709 C714 1.350 . S
C709 N717 1.427 . S
C710 H701 0.930 . S
C710 C708 1.378 . S
C710 C711 1.367 . S
C711 C710 1.367 . S
C711 C713 1.433 . S
C712 C708 1.350 . S
C712 C709 1.463 . S
C712 N716 1.427 . S
C713 H703 0.929 . S
C713 C711 1.433 . S
C713 N716 1.384 . S
C714 H705 0.929 . S
C714 C706 1.378 . S
C714 C709 1.350 . S
C715 H702 0.929 . S
C715 C707 1.433 . S
C715 N717 1.384 . S
N716 C712 1.427 . S
N716 C713 1.384 . S
N717 C709 1.427 . S
N717 C715 1.384 . S
H718 C724 0.930 . S
H719 C728 0.930 . S
H720 C733 0.929 . S
H721 C731 0.929 . S
H722 C726 0.929 . S
H723 C732 0.929 . S
C724 H718 0.930 . S
C724 C725 1.367 . S
C724 C732 1.378 . S
C725 C724 1.367 . S
C725 C733 1.433 . S
C726 H722 0.929 . S
C726 C728 1.378 . S
C726 C730 1.350 . S
C727 C730 1.463 . S
C727 C732 1.350 . S
C727 N735 1.427 . S
C728 H719 0.930 . S
C728 C726 1.378 . S
C728 C729 1.367 . S
C729 C728 1.367 . S
C729 C731 1.433 . S
C730 C726 1.350 . S
C730 C727 1.463 . S
C730 N734 1.427 . S
C731 H721 0.929 . S
C731 C729 1.433 . S
C731 N734 1.384 . S
C732 H723 0.929 . S
C732 C724 1.378 . S
C732 C727 1.350 . S
C733 H720 0.929 . S
C733 C725 1.433 . S
C733 N735 1.384 . S
N734 C730 1.427 . S
N734 C731 1.384 . S
N735 C727 1.427 . S
N735 C733 1.384 . S
H736 C742 0.930 . S
H737 C746 0.930 . S
H738 C751 0.929 . S
H739 C749 0.929 . S
H740 C744 0.929 . S
H741 C750 0.929 . S
C742 H736 0.930 . S
C742 C743 1.367 . S
C742 C750 1.378 . S
C743 C742 1.367 . S
C743 C751 1.433 . S
C744 H740 0.929 . S
C744 C746 1.378 . S
C744 C748 1.350 . S
C745 C748 1.463 . S
C745 C750 1.350 . S
C745 N753 1.427 . S
C746 H737 0.930 . S
C746 C744 1.378 . S
C746 C747 1.367 . S
C747 C746 1.367 . S
C747 C749 1.433 . S
C748 C744 1.350 . S
C748 C745 1.463 . S
C748 N752 1.427 . S
C749 H739 0.929 . S
C749 C747 1.433 . S
C749 N752 1.384 . S
C750 H741 0.929 . S
C750 C742 1.378 . S
C750 C745 1.350 . S
C751 H738 0.929 . S
C751 C743 1.433 . S
C751 N753 1.384 . S
N752 C748 1.427 . S
N752 C749 1.384 . S
N753 C745 1.427 . S
N753 C751 1.384 . S
H754 C760 0.930 . S
H755 C764 0.930 . S
H756 C769 0.929 . S
H757 C767 0.929 . S
H758 C762 0.929 . S
H759 C768 0.929 . S
C760 H754 0.930 . S
C760 C761 1.367 . S
C760 C768 1.378 . S
C761 C760 1.367 . S
C761 C769 1.433 . S
C762 H758 0.929 . S
C762 C764 1.378 1_655 S
C762 C766 1.350 . S
C763 C766 1.463 . S
C763 C768 1.350 . S
C763 N771 1.427 . S
C764 H755 0.930 . S
C764 C762 1.378 1_455 S
C764 C765 1.367 . S
C765 C764 1.367 . S
C765 C767 1.433 . S
C766 C762 1.350 . S
C766 C763 1.463 . S
C766 N770 1.427 . S
C767 H757 0.929 . S
C767 C765 1.433 . S
C767 N770 1.384 1_455 S
C768 H759 0.929 . S
C768 C760 1.378 . S
C768 C763 1.350 . S
C769 H756 0.929 . S
C769 C761 1.433 . S
C769 N771 1.384 . S
N770 C766 1.427 . S
N770 C767 1.384 1_655 S
N771 C763 1.427 . S
N771 C769 1.384 . S
H772 C778 0.930 . S
H773 C782 0.930 . S
H774 C787 0.929 . S
H775 C785 0.929 . S
H776 C780 0.929 . S
H777 C786 0.929 . S
C778 H772 0.930 . S
C778 C779 1.367 . S
C778 C786 1.378 . S
C779 C778 1.367 . S
C779 C787 1.433 . S
C780 H776 0.929 . S
C780 C782 1.378 . S
C780 C784 1.350 . S
C781 C784 1.463 . S
C781 C786 1.350 . S
C781 N789 1.427 . S
C782 H773 0.930 . S
C782 C780 1.378 . S
C782 C783 1.367 . S
C783 C782 1.367 . S
C783 C785 1.433 . S
C784 C780 1.350 . S
C784 C781 1.463 . S
C784 N788 1.427 . S
C785 H775 0.929 . S
C785 C783 1.433 . S
C785 N788 1.384 . S
C786 H777 0.929 . S
C786 C778 1.378 . S
C786 C781 1.350 . S
C787 H774 0.929 . S
C787 C779 1.433 . S
C787 N789 1.384 . S
N788 C784 1.427 . S
N788 C785 1.384 . S
N789 C781 1.427 . S
N789 C787 1.384 . S
H790 C796 0.930 . S
H791 C800 0.930 . S
H792 C805 0.929 . S
H793 C803 0.929 . S
H794 C798 0.929 . S
H795 C804 0.929 . S
C796 H790 0.930 . S
C796 C797 1.367 . S
C796 C804 1.378 . S
C797 C796 1.367 . S
C797 C805 1.433 . S
C798 H794 0.929 . S
C798 C800 1.378 . S
C798 C802 1.350 . S
C799 C802 1.463 . S
C799 C804 1.350 . S
C799 N807 1.427 . S
C800 H791 0.930 . S
C800 C798 1.378 . S
C800 C801 1.367 . S
C801 C800 1.367 . S
C801 C803 1.433 . S
C802 C798 1.350 . S
C802 C799 1.463 . S
C802 N806 1.427 . S
C803 H793 0.929 . S
C803 C801 1.433 . S
C803 N806 1.384 . S
C804 H795 0.929 . S
C804 C796 1.378 . S
C804 C799 1.350 . S
C805 H792 0.929 . S
C805 C797 1.433 . S
C805 N807 1.384 . S
N806 C802 1.427 . S
N806 C803 1.384 . S
N807 C799 1.427 . S
N807 C805 1.384 . S
H808 C814 0.930 . S
H809 C818 0.930 . S
H810 C823 0.929 . S
H811 C821 0.929 . S
H812 C816 0.929 . S
H813 C822 0.929 . S
C814 H808 0.930 . S
C814 C815 1.367 . S
C814 C822 1.378 . S
C815 C814 1.367 . S
C815 C823 1.433 . S
C816 H812 0.929 . S
C816 C818 1.378 . S
C816 C820 1.350 . S
C817 C820 1.463 . S
C817 C822 1.350 . S
C817 N825 1.427 . S
C818 H809 0.930 . S
C818 C816 1.378 . S
C818 C819 1.367 . S
C819 C818 1.367 . S
C819 C821 1.433 . S
C820 C816 1.350 . S
C820 C817 1.463 . S
C820 N824 1.427 . S
C821 H811 0.929 . S
C821 C819 1.433 . S
C821 N824 1.384 . S
C822 H813 0.929 . S
C822 C814 1.378 . S
C822 C817 1.350 . S
C823 H810 0.929 . S
C823 C815 1.433 . S
C823 N825 1.384 . S
N824 C820 1.427 . S
N824 C821 1.384 . S
N825 C817 1.427 . S
N825 C823 1.384 . S
H826 C832 0.930 . S
H827 C836 0.930 . S
H828 C841 0.929 . S
H829 C839 0.929 . S
H830 C834 0.929 . S
H831 C840 0.929 . S
C832 H826 0.930 . S
C832 C833 1.367 . S
C832 C840 1.378 . S
C833 C832 1.367 . S
C833 C841 1.433 . S
C834 H830 0.929 . S
C834 C836 1.378 . S
C834 C838 1.350 . S
C835 C838 1.463 . S
C835 C840 1.350 . S
C835 N843 1.427 . S
C836 H827 0.930 . S
C836 C834 1.378 . S
C836 C837 1.367 . S
C837 C836 1.367 . S
C837 C839 1.433 . S
C838 C834 1.350 . S
C838 C835 1.463 . S
C838 N842 1.427 . S
C839 H829 0.929 . S
C839 C837 1.433 . S
C839 N842 1.384 . S
C840 H831 0.929 . S
C840 C832 1.378 . S
C840 C835 1.350 . S
C841 H828 0.929 . S
C841 C833 1.433 . S
C841 N843 1.384 . S
N842 C838 1.427 . S
N842 C839 1.384 . S
N843 C835 1.427 . S
N843 C841 1.384 . S
H844 C850 0.930 . S
H845 C854 0.930 . S
H846 C859 0.929 . S
H847 C857 0.929 . S
H848 C852 0.929 . S
H849 C858 0.929 . S
C850 H844 0.930 . S
C850 C851 1.367 . S
C850 C858 1.378 . S
C851 C850 1.367 . S
C851 C859 1.433 . S
C852 H848 0.929 . S
C852 C854 1.378 . S
C852 C856 1.350 . S
C853 C856 1.463 . S
C853 C858 1.350 . S
C853 N861 1.427 . S
C854 H845 0.930 . S
C854 C852 1.378 . S
C854 C855 1.367 . S
C855 C854 1.367 . S
C855 C857 1.433 . S
C856 C852 1.350 . S
C856 C853 1.463 . S
C856 N860 1.427 . S
C857 H847 0.929 . S
C857 C855 1.433 . S
C857 N860 1.384 . S
C858 H849 0.929 . S
C858 C850 1.378 . S
C858 C853 1.350 . S
C859 H846 0.929 . S
C859 C851 1.433 . S
C859 N861 1.384 . S
N860 C856 1.427 . S
N860 C857 1.384 . S
N861 C853 1.427 . S
N861 C859 1.384 . S
H862 C868 0.930 . S
H863 C872 0.930 . S
H864 C877 0.929 . S
H865 C875 0.929 . S
H866 C870 0.929 . S
H867 C876 0.929 . S
C868 H862 0.930 . S
C868 C869 1.367 1_655 S
C868 C876 1.378 . S
C869 C868 1.367 1_455 S
C869 C877 1.433 . S
C870 H866 0.929 . S
C870 C872 1.378 . S
C870 C874 1.350 . S
C871 C874 1.463 . S
C871 C876 1.350 . S
C871 N879 1.427 . S
C872 H863 0.930 . S
C872 C870 1.378 . S
C872 C873 1.367 . S
C873 C872 1.367 . S
C873 C875 1.433 . S
C874 C870 1.350 . S
C874 C871 1.463 . S
C874 N878 1.427 . S
C875 H865 0.929 . S
C875 C873 1.433 . S
C875 N878 1.384 . S
C876 H867 0.929 . S
C876 C868 1.378 . S
C876 C871 1.350 . S
C877 H864 0.929 . S
C877 C869 1.433 . S
C877 N879 1.384 1_455 S
N878 C874 1.427 . S
N878 C875 1.384 . S
N879 C871 1.427 . S
N879 C877 1.384 1_655 S
H880 C886 0.930 . S
H881 C890 0.930 . S
H882 C895 0.929 . S
H883 C893 0.929 . S
H884 C888 0.929 . S
H885 C894 0.929 . S
C886 H880 0.930 . S
C886 C887 1.367 . S
C886 C894 1.378 . S
C887 C886 1.367 . S
C887 C895 1.433 . S
C888 H884 0.929 . S
C888 C890 1.378 . S
C888 C892 1.350 . S
C889 C892 1.463 . S
C889 C894 1.350 . S
C889 N897 1.427 . S
C890 H881 0.930 . S
C890 C888 1.378 . S
C890 C891 1.367 . S
C891 C890 1.367 . S
C891 C893 1.433 . S
C892 C888 1.350 . S
C892 C889 1.463 . S
C892 N896 1.427 . S
C893 H883 0.929 . S
C893 C891 1.433 . S
C893 N896 1.384 . S
C894 H885 0.929 . S
C894 C886 1.378 . S
C894 C889 1.350 . S
C895 H882 0.929 . S
C895 C887 1.433 . S
C895 N897 1.384 . S
N896 C892 1.427 . S
N896 C893 1.384 . S
N897 C889 1.427 . S
N897 C895 1.384 . S
H898 C904 0.930 . S
H899 C908 0.930 . S
H900 C913 0.929 . S
H901 C911 0.929 . S
H902 C906 0.929 . S
H903 C912 0.929 . S
C904 H898 0.930 . S
C904 C905 1.367 . S
C904 C912 1.378 1_655 S
C905 C904 1.367 . S
C905 C913 1.433 . S
C906 H902 0.929 . S
C906 C908 1.378 . S
C906 C910 1.350 . S
C907 C910 1.463 . S
C907 C912 1.350 . S
C907 N915 1.427 . S
C908 H899 0.930 . S
C908 C906 1.378 . S
C908 C909 1.367 . S
C909 C908 1.367 . S
C909 C911 1.433 . S
C910 C906 1.350 . S
C910 C907 1.463 . S
C910 N914 1.427 . S
C911 H901 0.929 . S
C911 C909 1.433 . S
C911 N914 1.384 . S
C912 H903 0.929 . S
C912 C904 1.378 1_455 S
C912 C907 1.350 . S
C913 H900 0.929 . S
C913 C905 1.433 . S
C913 N915 1.384 1_655 S
N914 C910 1.427 . S
N914 C911 1.384 . S
N915 C907 1.427 . S
N915 C913 1.384 1_455 S
H916 C922 0.930 . S
H917 C926 0.930 . S
H918 C931 0.929 . S
H919 C929 0.929 . S
H920 C924 0.929 . S
H921 C930 0.929 . S
C922 H916 0.930 . S
C922 C923 1.367 . S
C922 C930 1.378 . S
C923 C922 1.367 . S
C923 C931 1.433 . S
C924 H920 0.929 . S
C924 C926 1.378 . S
C924 C928 1.350 . S
C925 C928 1.463 . S
C925 C930 1.350 . S
C925 N933 1.427 . S
C926 H917 0.930 . S
C926 C924 1.378 . S
C926 C927 1.367 . S
C927 C926 1.367 . S
C927 C929 1.433 . S
C928 C924 1.350 . S
C928 C925 1.463 . S
C928 N932 1.427 . S
C929 H919 0.929 . S
C929 C927 1.433 . S
C929 N932 1.384 . S
C930 H921 0.929 . S
C930 C922 1.378 . S
C930 C925 1.350 . S
C931 H918 0.929 . S
C931 C923 1.433 . S
C931 N933 1.384 . S
N932 C928 1.427 . S
N932 C929 1.384 . S
N933 C925 1.427 . S
N933 C931 1.384 . S
H934 C940 0.930 . S
H935 C944 0.930 . S
H936 C949 0.929 . S
H937 C947 0.929 . S
H938 C942 0.929 . S
H939 C948 0.929 . S
C940 H934 0.930 . S
C940 C941 1.367 . S
C940 C948 1.378 . S
C941 C940 1.367 . S
C941 C949 1.433 . S
C942 H938 0.929 . S
C942 C944 1.378 . S
C942 C946 1.350 . S
C943 C946 1.463 . S
C943 C948 1.350 . S
C943 N951 1.427 . S
C944 H935 0.930 . S
C944 C942 1.378 . S
C944 C945 1.367 . S
C945 C944 1.367 . S
C945 C947 1.433 . S
C946 C942 1.350 . S
C946 C943 1.463 . S
C946 N950 1.427 . S
C947 H937 0.929 . S
C947 C945 1.433 . S
C947 N950 1.384 . S
C948 H939 0.929 . S
C948 C940 1.378 . S
C948 C943 1.350 . S
C949 H936 0.929 . S
C949 C941 1.433 . S
C949 N951 1.384 . S
N950 C946 1.427 . S
N950 C947 1.384 . S
N951 C943 1.427 . S
N951 C949 1.384 . S
H952 C958 0.930 . S
H953 C962 0.930 . S
H954 C967 0.929 . S
H955 C965 0.929 . S
H956 C960 0.929 . S
H957 C966 0.929 . S
C958 H952 0.930 . S
C958 C959 1.367 . S
C958 C966 1.378 . S
C959 C958 1.367 . S
C959 C967 1.433 . S
C960 H956 0.929 . S
C960 C962 1.378 . S
C960 C964 1.350 . S
C961 C964 1.463 . S
C961 C966 1.350 . S
C961 N969 1.427 . S
C962 H953 0.930 . S
C962 C960 1.378 . S
C962 C963 1.367 . S
C963 C962 1.367 . S
C963 C965 1.433 . S
C964 C960 1.350 . S
C964 C961 1.463 . S
C964 N968 1.427 . S
C965 H955 0.929 . S
C965 C963 1.433 . S
C965 N968 1.384 . S
C966 H957 0.929 . S
C966 C958 1.378 . S
C966 C961 1.350 . S
C967 H954 0.929 . S
C967 C959 1.433 . S
C967 N969 1.384 . S
N968 C964 1.427 . S
N968 C965 1.384 . S
N969 C961 1.427 . S
N969 C967 1.384 . S
H970 C976 0.930 . S
H971 C980 0.930 . S
H972 C985 0.929 . S
H973 C983 0.929 . S
H974 C978 0.929 . S
H975 C984 0.929 . S
C976 H970 0.930 . S
C976 C977 1.367 . S
C976 C984 1.378 . S
C977 C976 1.367 . S
C977 C985 1.433 . S
C978 H974 0.929 . S
C978 C980 1.378 . S
C978 C982 1.350 . S
C979 C982 1.463 . S
C979 C984 1.350 . S
C979 N987 1.427 . S
C980 H971 0.930 . S
C980 C978 1.378 . S
C980 C981 1.367 . S
C981 C980 1.367 . S
C981 C983 1.433 . S
C982 C978 1.350 . S
C982 C979 1.463 . S
C982 N986 1.427 . S
C983 H973 0.929 . S
C983 C981 1.433 . S
C983 N986 1.384 . S
C984 H975 0.929 . S
C984 C976 1.378 . S
C984 C979 1.350 . S
C985 H972 0.929 . S
C985 C977 1.433 . S
C985 N987 1.384 . S
N986 C982 1.427 . S
N986 C983 1.384 . S
N987 C979 1.427 . S
N987 C985 1.384 . S
H988 C994 0.930 . S
H989 C998 0.930 . S
H990 C1003 0.929 . S
H991 C1001 0.929 . S
H992 C996 0.929 . S
H993 C1002 0.929 . S
C994 H988 0.930 . S
C994 C995 1.367 . S
C994 C1002 1.378 . S
C995 C994 1.367 . S
C995 C1003 1.433 . S
C996 H992 0.929 . S
C996 C998 1.378 . S
C996 C1000 1.350 . S
C997 C1000 1.463 . S
C997 C1002 1.350 . S
C997 N1005 1.427 . S
C998 H989 0.930 . S
C998 C996 1.378 . S
C998 C999 1.367 . S
C999 C998 1.367 . S
C999 C1001 1.433 . S
C1000 C996 1.350 . S
C1000 C997 1.463 . S
C1000 N1004 1.427 . S
C1001 H991 0.929 . S
C1001 C999 1.433 . S
C1001 N1004 1.384 . S
C1002 H993 0.929 . S
C1002 C994 1.378 . S
C1002 C997 1.350 . S
C1003 H990 0.929 . S
C1003 C995 1.433 . S
C1003 N1005 1.384 . S
N1004 C1000 1.427 . S
N1004 C1001 1.384 . S
N1005 C997 1.427 . S
N1005 C1003 1.384 . S
H1006 C1012 0.930 . S
H1007 C1016 0.930 . S
H1008 C1021 0.929 . S
H1009 C1019 0.929 . S
H1010 C1014 0.929 . S
H1011 C1020 0.929 . S
C1012 H1006 0.930 . S
C1012 C1013 1.367 . S
C1012 C1020 1.378 . S
C1013 C1012 1.367 . S
C1013 C1021 1.433 . S
C1014 H1010 0.929 . S
C1014 C1016 1.378 . S
C1014 C1018 1.350 . S
C1015 C1018 1.463 . S
C1015 C1020 1.350 . S
C1015 N1023 1.427 . S
C1016 H1007 0.930 . S
C1016 C1014 1.378 . S
C1016 C1017 1.367 1_455 S
C1017 C1016 1.367 1_655 S
C1017 C1019 1.433 . S
C1018 C1014 1.350 . S
C1018 C1015 1.463 . S
C1018 N1022 1.427 . S
C1019 H1009 0.929 . S
C1019 C1017 1.433 . S
C1019 N1022 1.384 1_655 S
C1020 H1011 0.929 . S
C1020 C1012 1.378 . S
C1020 C1015 1.350 . S
C1021 H1008 0.929 . S
C1021 C1013 1.433 . S
C1021 N1023 1.384 . S
N1022 C1018 1.427 . S
N1022 C1019 1.384 1_455 S
N1023 C1015 1.427 . S
N1023 C1021 1.384 . S
H1024 C1030 0.930 . S
H1025 C1034 0.930 . S
H1026 C1039 0.929 . S
H1027 C1037 0.929 . S
H1028 C1032 0.929 . S
H1029 C1038 0.929 . S
C1030 H1024 0.930 . S
C1030 C1031 1.367 . S
C1030 C1038 1.378 . S
C1031 C1030 1.367 . S
C1031 C1039 1.433 . S
C1032 H1028 0.929 . S
C1032 C1034 1.378 . S
C1032 C1036 1.350 . S
C1033 C1036 1.463 . S
C1033 C1038 1.350 . S
C1033 N1041 1.427 . S
C1034 H1025 0.930 . S
C1034 C1032 1.378 . S
C1034 C1035 1.367 . S
C1035 C1034 1.367 . S
C1035 C1037 1.433 . S
C1036 C1032 1.350 . S
C1036 C1033 1.463 . S
C1036 N1040 1.427 . S
C1037 H1027 0.929 . S
C1037 C1035 1.433 . S
C1037 N1040 1.384 . S
C1038 H1029 0.929 . S
C1038 C1030 1.378 . S
C1038 C1033 1.350 . S
C1039 H1026 0.929 . S
C1039 C1031 1.433 . S
C1039 N1041 1.384 . S
N1040 C1036 1.427 . S
N1040 C1037 1.384 . S
N1041 C1033 1.427 . S
N1041 C1039 1.384 . S
H1042 C1048 0.930 . S
H1043 C1052 0.930 . S
H1044 C1057 0.929 . S
H1045 C1055 0.929 . S
H1046 C1050 0.929 . S
H1047 C1056 0.929 . S
C1048 H1042 0.930 . S
C1048 C1049 1.367 . S
C1048 C1056 1.378 . S
C1049 C1048 1.367 . S
C1049 C1057 1.433 . S
C1050 H1046 0.929 . S
C1050 C1052 1.378 . S
C1050 C1054 1.350 . S
C1051 C1054 1.463 . S
C1051 C1056 1.350 . S
C1051 N1059 1.427 . S
C1052 H1043 0.930 . S
C1052 C1050 1.378 . S
C1052 C1053 1.367 . S
C1053 C1052 1.367 . S
C1053 C1055 1.433 . S
C1054 C1050 1.350 . S
C1054 C1051 1.463 . S
C1054 N1058 1.427 . S
C1055 H1045 0.929 . S
C1055 C1053 1.433 . S
C1055 N1058 1.384 . S
C1056 H1047 0.929 . S
C1056 C1048 1.378 . S
C1056 C1051 1.350 . S
C1057 H1044 0.929 . S
C1057 C1049 1.433 . S
C1057 N1059 1.384 . S
N1058 C1054 1.427 . S
N1058 C1055 1.384 . S
N1059 C1051 1.427 . S
N1059 C1057 1.384 . S
H1060 C1066 0.930 . S
H1061 C1070 0.930 . S
H1062 C1075 0.929 . S
H1063 C1073 0.929 . S
H1064 C1068 0.929 . S
H1065 C1074 0.929 . S
C1066 H1060 0.930 . S
C1066 C1067 1.367 . S
C1066 C1074 1.378 . S
C1067 C1066 1.367 . S
C1067 C1075 1.433 . S
C1068 H1064 0.929 . S
C1068 C1070 1.378 . S
C1068 C1072 1.350 . S
C1069 C1072 1.463 . S
C1069 C1074 1.350 . S
C1069 N1077 1.427 . S
C1070 H1061 0.930 . S
C1070 C1068 1.378 . S
C1070 C1071 1.367 . S
C1071 C1070 1.367 . S
C1071 C1073 1.433 . S
C1072 C1068 1.350 . S
C1072 C1069 1.463 . S
C1072 N1076 1.427 . S
C1073 H1063 0.929 . S
C1073 C1071 1.433 . S
C1073 N1076 1.384 . S
C1074 H1065 0.929 . S
C1074 C1066 1.378 . S
C1074 C1069 1.350 . S
C1075 H1062 0.929 . S
C1075 C1067 1.433 . S
C1075 N1077 1.384 . S
N1076 C1072 1.427 . S
N1076 C1073 1.384 . S
N1077 C1069 1.427 . S
N1077 C1075 1.384 . S
H1078 C1084 0.930 . S
H1079 C1088 0.930 . S
H1080 C1093 0.929 . S
H1081 C1091 0.921 1_655 S
H1082 C1086 0.929 . S
H1083 C1092 0.929 . S
C1084 H1078 0.930 . S
C1084 C1085 1.367 . S
C1084 C1092 1.378 . S
C1085 C1084 1.367 . S
C1085 C1093 1.433 . S
C1086 H1082 0.929 . S
C1086 C1088 1.378 1_455 S
C1086 C1090 1.350 . S
C1087 C1090 1.463 . S
C1087 C1092 1.350 . S
C1087 N1095 1.427 . S
C1088 H1079 0.930 . S
C1088 C1086 1.378 1_655 S
C1088 C1089 1.367 . S
C1089 C1088 1.367 . S
C1089 C1091 1.412 1_655 S
C1090 C1086 1.350 . S
C1090 C1087 1.463 . S
C1090 N1094 1.427 . S
C1091 H1081 0.921 1_455 S
C1091 C1089 1.412 1_455 S
C1091 N1094 1.414 . S
C1092 H1083 0.929 . S
C1092 C1084 1.378 . S
C1092 C1087 1.350 . S
C1093 H1080 0.929 . S
C1093 C1085 1.433 . S
C1093 N1095 1.384 . S
N1094 C1090 1.427 . S
N1094 C1091 1.414 . S
N1095 C1087 1.427 . S
N1095 C1093 1.384 . S
H1096 C1102 0.930 . S
H1097 C1106 0.930 . S
H1098 C1111 0.929 . S
H1099 C1109 0.929 . S
H1100 C1104 0.929 . S
H1101 C1110 0.929 . S
C1102 H1096 0.930 . S
C1102 C1103 1.367 . S
C1102 C1110 1.378 . S
C1103 C1102 1.367 . S
C1103 C1111 1.433 . S
C1104 H1100 0.929 . S
C1104 C1106 1.378 . S
C1104 C1108 1.350 . S
C1105 C1108 1.463 . S
C1105 C1110 1.350 . S
C1105 N1113 1.427 . S
C1106 H1097 0.930 . S
C1106 C1104 1.378 . S
C1106 C1107 1.367 . S
C1107 C1106 1.367 . S
C1107 C1109 1.433 . S
C1108 C1104 1.350 . S
C1108 C1105 1.463 . S
C1108 N1112 1.427 . S
C1109 H1099 0.929 . S
C1109 C1107 1.433 . S
C1109 N1112 1.384 . S
C1110 H1101 0.929 . S
C1110 C1102 1.378 . S
C1110 C1105 1.350 . S
C1111 H1098 0.929 . S
C1111 C1103 1.433 . S
C1111 N1113 1.384 . S
N1112 C1108 1.427 . S
N1112 C1109 1.384 . S
N1113 C1105 1.427 . S
N1113 C1111 1.384 . S
H1114 C1120 0.930 . S
H1115 C1124 0.930 . S
H1116 C1129 0.929 . S
H1117 C1127 0.929 . S
H1118 C1122 0.929 . S
H1119 C1128 0.929 . S
C1120 H1114 0.930 . S
C1120 C1121 1.367 . S
C1120 C1128 1.378 1_655 S
C1121 C1120 1.367 . S
C1121 C1129 1.433 . S
C1122 H1118 0.929 . S
C1122 C1124 1.378 . S
C1122 C1126 1.350 . S
C1123 C1126 1.463 . S
C1123 C1128 1.350 . S
C1123 N1131 1.427 . S
C1124 H1115 0.930 . S
C1124 C1122 1.378 . S
C1124 C1125 1.367 . S
C1125 C1124 1.367 . S
C1125 C1127 1.433 . S
C1126 C1122 1.350 . S
C1126 C1123 1.463 . S
C1126 N1130 1.427 . S
C1127 H1117 0.929 . S
C1127 C1125 1.433 . S
C1127 N1130 1.384 . S
C1128 H1119 0.929 . S
C1128 C1120 1.378 1_455 S
C1128 C1123 1.350 . S
C1129 H1116 0.929 . S
C1129 C1121 1.433 . S
C1129 N1131 1.384 1_655 S
N1130 C1126 1.427 . S
N1130 C1127 1.384 . S
N1131 C1123 1.427 . S
N1131 C1129 1.384 1_455 S
H1132 C1138 0.930 . S
H1133 C1142 0.930 . S
H1134 C1147 0.929 . S
H1135 C1145 0.929 . S
H1136 C1140 0.929 . S
H1137 C1146 0.929 . S
C1138 H1132 0.930 . S
C1138 C1139 1.367 . S
C1138 C1146 1.378 . S
C1139 C1138 1.367 . S
C1139 C1147 1.433 . S
C1140 H1136 0.929 . S
C1140 C1142 1.378 . S
C1140 C1144 1.350 . S
C1141 C1144 1.463 . S
C1141 C1146 1.350 . S
C1141 N1149 1.427 . S
C1142 H1133 0.930 . S
C1142 C1140 1.378 . S
C1142 C1143 1.367 . S
C1143 C1142 1.367 . S
C1143 C1145 1.433 . S
C1144 C1140 1.350 . S
C1144 C1141 1.463 . S
C1144 N1148 1.427 . S
C1145 H1135 0.929 . S
C1145 C1143 1.433 . S
C1145 N1148 1.384 . S
C1146 H1137 0.929 . S
C1146 C1138 1.378 . S
C1146 C1141 1.350 . S
C1147 H1134 0.929 . S
C1147 C1139 1.433 . S
C1147 N1149 1.384 . S
N1148 C1144 1.427 . S
N1148 C1145 1.384 . S
N1149 C1141 1.427 . S
N1149 C1147 1.384 . S
H1150 C1156 0.930 . S
H1151 C1160 0.930 . S
H1152 C1165 0.929 . S
H1153 C1163 0.929 . S
H1154 C1158 0.929 . S
H1155 C1164 0.929 . S
C1156 H1150 0.930 . S
C1156 C1157 1.367 . S
C1156 C1164 1.378 . S
C1157 C1156 1.367 . S
C1157 C1165 1.433 . S
C1158 H1154 0.929 . S
C1158 C1160 1.378 . S
C1158 C1162 1.350 . S
C1159 C1162 1.463 . S
C1159 C1164 1.350 . S
C1159 N1167 1.427 . S
C1160 H1151 0.930 . S
C1160 C1158 1.378 . S
C1160 C1161 1.367 . S
C1161 C1160 1.367 . S
C1161 C1163 1.433 . S
C1162 C1158 1.350 . S
C1162 C1159 1.463 . S
C1162 N1166 1.427 . S
C1163 H1153 0.929 . S
C1163 C1161 1.433 . S
C1163 N1166 1.384 . S
C1164 H1155 0.929 . S
C1164 C1156 1.378 . S
C1164 C1159 1.350 . S
C1165 H1152 0.929 . S
C1165 C1157 1.433 . S
C1165 N1167 1.384 . S
N1166 C1162 1.427 . S
N1166 C1163 1.384 . S
N1167 C1159 1.427 . S
N1167 C1165 1.384 . S
H1168 C1174 0.930 . S
H1169 C1178 0.930 . S
H1170 C1183 0.929 . S
H1171 C1181 0.929 . S
H1172 C1176 0.929 . S
H1173 C1182 0.929 . S
C1174 H1168 0.930 . S
C1174 C1175 1.367 . S
C1174 C1182 1.378 . S
C1175 C1174 1.367 . S
C1175 C1183 1.433 . S
C1176 H1172 0.929 . S
C1176 C1178 1.378 . S
C1176 C1180 1.350 . S
C1177 C1180 1.463 . S
C1177 C1182 1.350 . S
C1177 N1185 1.427 . S
C1178 H1169 0.930 . S
C1178 C1176 1.378 . S
C1178 C1179 1.367 . S
C1179 C1178 1.367 . S
C1179 C1181 1.433 . S
C1180 C1176 1.350 . S
C1180 C1177 1.463 . S
C1180 N1184 1.427 . S
C1181 H1171 0.929 . S
C1181 C1179 1.433 . S
C1181 N1184 1.384 . S
C1182 H1173 0.929 . S
C1182 C1174 1.378 . S
C1182 C1177 1.350 . S
C1183 H1170 0.929 . S
C1183 C1175 1.433 . S
C1183 N1185 1.384 . S
N1184 C1180 1.427 . S
N1184 C1181 1.384 . S
N1185 C1177 1.427 . S
N1185 C1183 1.384 . S
H1186 C1192 0.930 . S
H1187 C1196 0.930 . S
H1188 C1201 0.929 . S
H1189 C1199 0.929 . S
H1190 C1194 0.929 . S
H1191 C1200 0.929 . S
C1192 H1186 0.930 . S
C1192 C1193 1.367 . S
C1192 C1200 1.378 . S
C1193 C1192 1.367 . S
C1193 C1201 1.433 . S
C1194 H1190 0.929 . S
C1194 C1196 1.378 . S
C1194 C1198 1.350 . S
C1195 C1198 1.463 . S
C1195 C1200 1.350 . S
C1195 N1203 1.427 . S
C1196 H1187 0.930 . S
C1196 C1194 1.378 . S
C1196 C1197 1.367 . S
C1197 C1196 1.367 . S
C1197 C1199 1.433 . S
C1198 C1194 1.350 . S
C1198 C1195 1.463 . S
C1198 N1202 1.427 . S
C1199 H1189 0.929 . S
C1199 C1197 1.433 . S
C1199 N1202 1.384 . S
C1200 H1191 0.929 . S
C1200 C1192 1.378 . S
C1200 C1195 1.350 . S
C1201 H1188 0.929 . S
C1201 C1193 1.433 . S
C1201 N1203 1.384 . S
N1202 C1198 1.427 . S
N1202 C1199 1.384 . S
N1203 C1195 1.427 . S
N1203 C1201 1.384 . S
H1204 C1210 0.930 . S
H1205 C1214 0.930 . S
H1206 C1219 0.929 . S
H1207 C1217 0.929 . S
H1208 C1212 0.929 . S
H1209 C1218 0.929 . S
C1210 H1204 0.930 . S
C1210 C1211 1.367 . S
C1210 C1218 1.378 . S
C1211 C1210 1.367 . S
C1211 C1219 1.433 . S
C1212 H1208 0.929 . S
C1212 C1214 1.378 . S
C1212 C1216 1.350 . S
C1213 C1216 1.463 . S
C1213 C1218 1.350 . S
C1213 N1221 1.427 . S
C1214 H1205 0.930 . S
C1214 C1212 1.378 . S
C1214 C1215 1.367 . S
C1215 C1214 1.367 . S
C1215 C1217 1.433 . S
C1216 C1212 1.350 . S
C1216 C1213 1.463 . S
C1216 N1220 1.427 . S
C1217 H1207 0.929 . S
C1217 C1215 1.433 . S
C1217 N1220 1.384 . S
C1218 H1209 0.929 . S
C1218 C1210 1.378 . S
C1218 C1213 1.350 . S
C1219 H1206 0.929 . S
C1219 C1211 1.433 . S
C1219 N1221 1.384 . S
N1220 C1216 1.427 . S
N1220 C1217 1.384 . S
N1221 C1213 1.427 . S
N1221 C1219 1.384 . S
H1222 C1228 0.930 . S
H1223 C1232 0.930 . S
H1224 C1237 0.929 . S
H1225 C1235 0.930 1_455 S
H1226 C1230 0.929 . S
H1227 C1236 0.929 . S
C1228 H1222 0.930 . S
C1228 C1229 1.367 . S
C1228 C1236 1.378 . S
C1229 C1228 1.367 . S
C1229 C1237 1.433 . S
C1230 H1226 0.929 . S
C1230 C1232 1.378 1_655 S
C1230 C1234 1.350 . S
C1231 C1234 1.463 . S
C1231 C1236 1.350 . S
C1231 N1239 1.427 . S
C1232 H1223 0.930 . S
C1232 C1230 1.378 1_455 S
C1232 C1233 1.367 . S
C1233 C1232 1.367 . S
C1233 C1235 1.436 1_455 S
C1234 C1230 1.350 . S
C1234 C1231 1.463 . S
C1234 N1238 1.427 . S
C1235 H1225 0.930 1_655 S
C1235 C1233 1.436 1_655 S
C1235 N1238 1.380 . S
C1236 H1227 0.929 . S
C1236 C1228 1.378 . S
C1236 C1231 1.350 . S
C1237 H1224 0.929 . S
C1237 C1229 1.433 . S
C1237 N1239 1.384 . S
N1238 C1234 1.427 . S
N1238 C1235 1.380 . S
N1239 C1231 1.427 . S
N1239 C1237 1.384 . S
H1240 C1246 0.930 . S
H1241 C1250 0.930 . S
H1242 C1255 0.929 . S
H1243 C1253 0.929 . S
H1244 C1248 0.929 . S
H1245 C1254 0.929 . S
C1246 H1240 0.930 . S
C1246 C1247 1.367 . S
C1246 C1254 1.378 . S
C1247 C1246 1.367 . S
C1247 C1255 1.433 . S
C1248 H1244 0.929 . S
C1248 C1250 1.378 . S
C1248 C1252 1.350 . S
C1249 C1252 1.463 . S
C1249 C1254 1.350 . S
C1249 N1257 1.427 . S
C1250 H1241 0.930 . S
C1250 C1248 1.378 . S
C1250 C1251 1.367 . S
C1251 C1250 1.367 . S
C1251 C1253 1.433 . S
C1252 C1248 1.350 . S
C1252 C1249 1.463 . S
C1252 N1256 1.427 . S
C1253 H1243 0.929 . S
C1253 C1251 1.433 . S
C1253 N1256 1.384 . S
C1254 H1245 0.929 . S
C1254 C1246 1.378 . S
C1254 C1249 1.350 . S
C1255 H1242 0.929 . S
C1255 C1247 1.433 . S
C1255 N1257 1.384 . S
N1256 C1252 1.427 . S
N1256 C1253 1.384 . S
N1257 C1249 1.427 . S
N1257 C1255 1.384 . S
H1258 C1264 0.930 . S
H1259 C1268 0.930 . S
H1260 C1273 0.929 . S
H1261 C1271 0.929 . S
H1262 C1266 0.929 . S
H1263 C1272 0.929 . S
C1264 H1258 0.930 . S
C1264 C1265 1.367 . S
C1264 C1272 1.378 1_455 S
C1265 C1264 1.367 . S
C1265 C1273 1.433 . S
C1266 H1262 0.929 . S
C1266 C1268 1.378 . S
C1266 C1270 1.350 . S
C1267 C1270 1.463 . S
C1267 C1272 1.350 . S
C1267 N1275 1.427 . S
C1268 H1259 0.930 . S
C1268 C1266 1.378 . S
C1268 C1269 1.367 . S
C1269 C1268 1.367 . S
C1269 C1271 1.433 . S
C1270 C1266 1.350 . S
C1270 C1267 1.463 . S
C1270 N1274 1.427 . S
C1271 H1261 0.929 . S
C1271 C1269 1.433 . S
C1271 N1274 1.384 . S
C1272 H1263 0.929 . S
C1272 C1264 1.378 1_655 S
C1272 C1267 1.350 . S
C1273 H1260 0.929 . S
C1273 C1265 1.433 . S
C1273 N1275 1.384 1_455 S
N1274 C1270 1.427 . S
N1274 C1271 1.384 . S
N1275 C1267 1.427 . S
N1275 C1273 1.384 1_655 S
H1276 C1282 0.930 . S
H1277 C1286 0.930 . S
H1278 C1291 0.929 . S
H1279 C1289 0.929 . S
H1280 C1284 0.929 . S
H1281 C1290 0.929 . S
C1282 H1276 0.930 . S
C1282 C1283 1.367 . S
C1282 C1290 1.378 . S
C1283 C1282 1.367 . S
C1283 C1291 1.433 . S
C1284 H1280 0.929 . S
C1284 C1286 1.378 . S
C1284 C1288 1.350 . S
C1285 C1288 1.463 . S
C1285 C1290 1.350 . S
C1285 N1293 1.427 . S
C1286 H1277 0.930 . S
C1286 C1284 1.378 . S
C1286 C1287 1.367 . S
C1287 C1286 1.367 . S
C1287 C1289 1.433 . S
C1288 C1284 1.350 . S
C1288 C1285 1.463 . S
C1288 N1292 1.427 . S
C1289 H1279 0.929 . S
C1289 C1287 1.433 . S
C1289 N1292 1.384 . S
C1290 H1281 0.929 . S
C1290 C1282 1.378 . S
C1290 C1285 1.350 . S
C1291 H1278 0.929 . S
C1291 C1283 1.433 . S
C1291 N1293 1.384 . S
N1292 C1288 1.427 . S
N1292 C1289 1.384 . S
N1293 C1285 1.427 . S
N1293 C1291 1.384 . S
H1294 C1300 0.930 . S
H1295 C1304 0.930 . S
H1296 C1309 0.929 . S
H1297 C1307 0.929 . S
H1298 C1302 0.929 . S
H1299 C1308 0.929 . S
C1300 H1294 0.930 . S
C1300 C1301 1.367 . S
C1300 C1308 1.378 . S
C1301 C1300 1.367 . S
C1301 C1309 1.433 . S
C1302 H1298 0.929 . S
C1302 C1304 1.378 . S
C1302 C1306 1.350 . S
C1303 C1306 1.463 . S
C1303 C1308 1.350 . S
C1303 N1311 1.427 . S
C1304 H1295 0.930 . S
C1304 C1302 1.378 . S
C1304 C1305 1.367 . S
C1305 C1304 1.367 . S
C1305 C1307 1.433 . S
C1306 C1302 1.350 . S
C1306 C1303 1.463 . S
C1306 N1310 1.427 . S
C1307 H1297 0.929 . S
C1307 C1305 1.433 . S
C1307 N1310 1.384 . S
C1308 H1299 0.929 . S
C1308 C1300 1.378 . S
C1308 C1303 1.350 . S
C1309 H1296 0.929 . S
C1309 C1301 1.433 . S
C1309 N1311 1.384 . S
N1310 C1306 1.427 . S
N1310 C1307 1.384 . S
N1311 C1303 1.427 . S
N1311 C1309 1.384 . S
H1312 C1318 0.930 . S
H1313 C1322 0.930 . S
H1314 C1327 0.929 . S
H1315 C1325 0.929 . S
H1316 C1320 0.929 . S
H1317 C1326 0.929 . S
C1318 H1312 0.930 . S
C1318 C1319 1.367 . S
C1318 C1326 1.378 . S
C1319 C1318 1.367 . S
C1319 C1327 1.433 . S
C1320 H1316 0.929 . S
C1320 C1322 1.378 . S
C1320 C1324 1.350 . S
C1321 C1324 1.463 . S
C1321 C1326 1.350 . S
C1321 N1329 1.427 . S
C1322 H1313 0.930 . S
C1322 C1320 1.378 . S
C1322 C1323 1.367 . S
C1323 C1322 1.367 . S
C1323 C1325 1.433 . S
C1324 C1320 1.350 . S
C1324 C1321 1.463 . S
C1324 N1328 1.427 . S
C1325 H1315 0.929 . S
C1325 C1323 1.433 . S
C1325 N1328 1.384 . S
C1326 H1317 0.929 . S
C1326 C1318 1.378 . S
C1326 C1321 1.350 . S
C1327 H1314 0.929 . S
C1327 C1319 1.433 . S
C1327 N1329 1.384 . S
N1328 C1324 1.427 . S
N1328 C1325 1.384 . S
N1329 C1321 1.427 . S
N1329 C1327 1.384 . S
H1330 C1336 0.930 . S
H1331 C1340 0.930 . S
H1332 C1345 0.929 . S
H1333 C1343 0.929 . S
H1334 C1338 0.929 . S
H1335 C1344 0.929 . S
C1336 H1330 0.930 . S
C1336 C1337 1.367 . S
C1336 C1344 1.378 . S
C1337 C1336 1.367 . S
C1337 C1345 1.433 . S
C1338 H1334 0.929 . S
C1338 C1340 1.378 . S
C1338 C1342 1.350 . S
C1339 C1342 1.463 . S
C1339 C1344 1.350 . S
C1339 N1347 1.427 . S
C1340 H1331 0.930 . S
C1340 C1338 1.378 . S
C1340 C1341 1.367 . S
C1341 C1340 1.367 . S
C1341 C1343 1.433 . S
C1342 C1338 1.350 . S
C1342 C1339 1.463 . S
C1342 N1346 1.427 . S
C1343 H1333 0.929 . S
C1343 C1341 1.433 . S
C1343 N1346 1.384 . S
C1344 H1335 0.929 . S
C1344 C1336 1.378 . S
C1344 C1339 1.350 . S
C1345 H1332 0.929 . S
C1345 C1337 1.433 . S
C1345 N1347 1.384 . S
N1346 C1342 1.427 . S
N1346 C1343 1.384 . S
N1347 C1339 1.427 . S
N1347 C1345 1.384 . S
H1348 C1354 0.930 . S
H1349 C1358 0.930 . S
H1350 C1363 0.929 . S
H1351 C1361 0.929 . S
H1352 C1356 0.929 . S
H1353 C1362 0.929 . S
C1354 H1348 0.930 . S
C1354 C1355 1.367 . S
C1354 C1362 1.378 . S
C1355 C1354 1.367 . S
C1355 C1363 1.433 . S
C1356 H1352 0.929 . S
C1356 C1358 1.378 . S
C1356 C1360 1.350 . S
C1357 C1360 1.463 . S
C1357 C1362 1.350 . S
C1357 N1365 1.427 . S
C1358 H1349 0.930 . S
C1358 C1356 1.378 . S
C1358 C1359 1.367 . S
C1359 C1358 1.367 . S
C1359 C1361 1.433 . S
C1360 C1356 1.350 . S
C1360 C1357 1.463 . S
C1360 N1364 1.427 . S
C1361 H1351 0.929 . S
C1361 C1359 1.433 . S
C1361 N1364 1.384 . S
C1362 H1353 0.929 . S
C1362 C1354 1.378 . S
C1362 C1357 1.350 . S
C1363 H1350 0.929 . S
C1363 C1355 1.433 . S
C1363 N1365 1.384 . S
N1364 C1360 1.427 . S
N1364 C1361 1.384 . S
N1365 C1357 1.427 . S
N1365 C1363 1.384 . S
H1366 C1372 0.930 . S
H1367 C1376 0.930 . S
H1368 C1381 0.929 . S
H1369 C1379 0.929 . S
H1370 C1374 0.929 . S
H1371 C1380 0.929 . S
C1372 H1366 0.930 . S
C1372 C1373 1.367 . S
C1372 C1380 1.378 . S
C1373 C1372 1.367 . S
C1373 C1381 1.433 . S
C1374 H1370 0.929 . S
C1374 C1376 1.378 . S
C1374 C1378 1.350 . S
C1375 C1378 1.463 1_556 S
C1375 C1380 1.350 . S
C1375 N1383 1.427 . S
C1376 H1367 0.930 . S
C1376 C1374 1.378 . S
C1376 C1377 1.367 . S
C1377 C1376 1.367 . S
C1377 C1379 1.433 . S
C1378 C1374 1.350 . S
C1378 C1375 1.463 1_554 S
C1378 N1382 1.427 . S
C1379 H1369 0.929 . S
C1379 C1377 1.433 . S
C1379 N1382 1.384 . S
C1380 H1371 0.929 . S
C1380 C1372 1.378 . S
C1380 C1375 1.350 . S
C1381 H1368 0.929 . S
C1381 C1373 1.433 . S
C1381 N1383 1.384 . S
N1382 C1378 1.427 . S
N1382 C1379 1.384 . S
N1383 C1375 1.427 . S
N1383 C1381 1.384 . S
H1384 C1390 0.930 . S
H1385 C1394 0.930 . S
H1386 C1399 0.929 . S
H1387 C1397 0.929 . S
H1388 C1392 0.929 . S
H1389 C1398 0.929 . S
C1390 H1384 0.930 . S
C1390 C1391 1.367 . S
C1390 C1398 1.378 . S
C1391 C1390 1.367 . S
C1391 C1399 1.433 . S
C1392 H1388 0.929 . S
C1392 C1394 1.378 . S
C1392 C1396 1.350 . S
C1393 C1396 1.463 . S
C1393 C1398 1.350 . S
C1393 N1401 1.427 . S
C1394 H1385 0.930 . S
C1394 C1392 1.378 . S
C1394 C1395 1.367 . S
C1395 C1394 1.367 . S
C1395 C1397 1.433 . S
C1396 C1392 1.350 . S
C1396 C1393 1.463 . S
C1396 N1400 1.427 . S
C1397 H1387 0.929 . S
C1397 C1395 1.433 . S
C1397 N1400 1.384 . S
C1398 H1389 0.929 . S
C1398 C1390 1.378 . S
C1398 C1393 1.350 . S
C1399 H1386 0.929 . S
C1399 C1391 1.433 . S
C1399 N1401 1.384 . S
N1400 C1396 1.427 . S
N1400 C1397 1.384 . S
N1401 C1393 1.427 . S
N1401 C1399 1.384 . S
H1402 C1408 0.930 . S
H1403 C1412 0.930 . S
H1404 C1417 0.929 . S
H1405 C1415 0.929 . S
H1406 C1410 0.929 . S
H1407 C1416 0.929 . S
C1408 H1402 0.930 . S
C1408 C1409 1.367 . S
C1408 C1416 1.378 . S
C1409 C1408 1.367 . S
C1409 C1417 1.433 . S
C1410 H1406 0.929 . S
C1410 C1412 1.378 . S
C1410 C1414 1.350 . S
C1411 C1414 1.463 . S
C1411 C1416 1.350 . S
C1411 N1419 1.427 . S
C1412 H1403 0.930 . S
C1412 C1410 1.378 . S
C1412 C1413 1.367 . S
C1413 C1412 1.367 . S
C1413 C1415 1.433 . S
C1414 C1410 1.350 . S
C1414 C1411 1.463 . S
C1414 N1418 1.427 . S
C1415 H1405 0.929 . S
C1415 C1413 1.433 . S
C1415 N1418 1.384 . S
C1416 H1407 0.929 . S
C1416 C1408 1.378 . S
C1416 C1411 1.350 . S
C1417 H1404 0.929 . S
C1417 C1409 1.433 . S
C1417 N1419 1.384 . S
N1418 C1414 1.427 . S
N1418 C1415 1.384 . S
N1419 C1411 1.427 . S
N1419 C1417 1.384 . S
H1420 C1426 0.930 . S
H1421 C1430 0.930 . S
H1422 C1435 0.929 . S
H1423 C1433 0.929 . S
H1424 C1428 0.929 . S
H1425 C1434 0.929 . S
C1426 H1420 0.930 . S
C1426 C1427 1.367 . S
C1426 C1434 1.378 . S
C1427 C1426 1.367 . S
C1427 C1435 1.433 . S
C1428 H1424 0.929 . S
C1428 C1430 1.378 . S
C1428 C1432 1.350 . S
C1429 C1432 1.463 . S
C1429 C1434 1.350 . S
C1429 N1437 1.427 . S
C1430 H1421 0.930 . S
C1430 C1428 1.378 . S
C1430 C1431 1.367 . S
C1431 C1430 1.367 . S
C1431 C1433 1.433 . S
C1432 C1428 1.350 . S
C1432 C1429 1.463 . S
C1432 N1436 1.427 . S
C1433 H1423 0.929 . S
C1433 C1431 1.433 . S
C1433 N1436 1.384 . S
C1434 H1425 0.929 . S
C1434 C1426 1.378 . S
C1434 C1429 1.350 . S
C1435 H1422 0.929 . S
C1435 C1427 1.433 . S
C1435 N1437 1.384 . S
N1436 C1432 1.427 . S
N1436 C1433 1.384 . S
N1437 C1429 1.427 . S
N1437 C1435 1.384 . S
H1438 C1444 0.930 . S
H1439 C1448 0.930 . S
H1440 C1453 0.929 . S
H1441 C1451 0.929 . S
H1442 C1446 0.929 . S
H1443 C1452 0.929 . S
C1444 H1438 0.930 . S
C1444 C1445 1.367 . S
C1444 C1452 1.378 . S
C1445 C1444 1.367 . S
C1445 C1453 1.433 . S
C1446 H1442 0.929 . S
C1446 C1448 1.378 . S
C1446 C1450 1.350 . S
C1447 C1450 1.463 1_554 S
C1447 C1452 1.350 . S
C1447 N1455 1.427 . S
C1448 H1439 0.930 . S
C1448 C1446 1.378 . S
C1448 C1449 1.367 . S
C1449 C1448 1.367 . S
C1449 C1451 1.433 . S
C1450 C1446 1.350 . S
C1450 C1447 1.463 1_556 S
C1450 N1454 1.427 . S
C1451 H1441 0.929 . S
C1451 C1449 1.433 . S
C1451 N1454 1.384 . S
C1452 H1443 0.929 . S
C1452 C1444 1.378 . S
C1452 C1447 1.350 . S
C1453 H1440 0.929 . S
C1453 C1445 1.433 . S
C1453 N1455 1.384 . S
N1454 C1450 1.427 . S
N1454 C1451 1.384 . S
N1455 C1447 1.427 . S
N1455 C1453 1.384 . S
H1456 C1462 0.930 . S
H1457 C1466 0.930 . S
H1458 C1471 0.929 . S
H1459 C1469 0.929 . S
H1460 C1464 0.929 . S
H1461 C1470 0.929 . S
C1462 H1456 0.930 . S
C1462 C1463 1.367 . S
C1462 C1470 1.378 . S
C1463 C1462 1.367 . S
C1463 C1471 1.433 . S
C1464 H1460 0.929 . S
C1464 C1466 1.378 . S
C1464 C1468 1.350 . S
C1465 C1468 1.463 1_565 S
C1465 C1470 1.350 . S
C1465 N1473 1.427 . S
C1466 H1457 0.930 . S
C1466 C1464 1.378 . S
C1466 C1467 1.367 . S
C1467 C1466 1.367 . S
C1467 C1469 1.433 . S
C1468 C1464 1.350 . S
C1468 C1465 1.463 1_545 S
C1468 N1472 1.427 . S
C1469 H1459 0.929 . S
C1469 C1467 1.433 . S
C1469 N1472 1.384 . S
C1470 H1461 0.929 . S
C1470 C1462 1.378 . S
C1470 C1465 1.350 . S
C1471 H1458 0.929 . S
C1471 C1463 1.433 . S
C1471 N1473 1.384 . S
N1472 C1468 1.427 . S
N1472 C1469 1.384 . S
N1473 C1465 1.427 . S
N1473 C1471 1.384 . S
H1474 C1480 0.944 . S
H1475 C1484 0.944 . S
H1476 C1489 0.929 . S
H1477 C1487 0.929 . S
H1478 C1482 0.929 . S
H1479 C1488 0.929 . S
C1480 H1474 0.944 . S
C1480 C1481 1.345 1_556 S
C1480 C1488 1.387 . S
C1481 C1480 1.345 1_554 S
C1481 C1489 1.433 . S
C1482 H1478 0.929 . S
C1482 C1484 1.387 . S
C1482 C1486 1.350 1_554 S
C1483 C1486 1.463 1_554 S
C1483 C1488 1.350 1_554 S
C1483 N1491 1.427 . S
C1484 H1475 0.944 . S
C1484 C1482 1.387 . S
C1484 C1485 1.345 1_554 S
C1485 C1484 1.345 1_556 S
C1485 C1487 1.433 . S
C1486 C1482 1.350 1_556 S
C1486 C1483 1.463 1_556 S
C1486 N1490 1.427 . S
C1487 H1477 0.929 . S
C1487 C1485 1.433 . S
C1487 N1490 1.384 . S
C1488 H1479 0.929 . S
C1488 C1480 1.387 . S
C1488 C1483 1.350 1_556 S
C1489 H1476 0.929 . S
C1489 C1481 1.433 . S
C1489 N1491 1.384 . S
N1490 C1486 1.427 . S
N1490 C1487 1.384 . S
N1491 C1483 1.427 . S
N1491 C1489 1.384 . S
H1492 C1498 0.930 . S
H1493 C1502 0.930 . S
H1494 C1507 0.929 . S
H1495 C1505 0.929 . S
H1496 C1500 0.929 . S
H1497 C1506 0.929 . S
C1498 H1492 0.930 . S
C1498 C1499 1.367 . S
C1498 C1506 1.378 . S
C1499 C1498 1.367 . S
C1499 C1507 1.433 . S
C1500 H1496 0.929 . S
C1500 C1502 1.378 . S
C1500 C1504 1.350 . S
C1501 C1504 1.463 1_545 S
C1501 C1506 1.350 . S
C1501 N1509 1.427 . S
C1502 H1493 0.930 . S
C1502 C1500 1.378 . S
C1502 C1503 1.367 . S
C1503 C1502 1.367 . S
C1503 C1505 1.433 . S
C1504 C1500 1.350 . S
C1504 C1501 1.463 1_565 S
C1504 N1508 1.427 . S
C1505 H1495 0.929 . S
C1505 C1503 1.433 . S
C1505 N1508 1.384 . S
C1506 H1497 0.929 . S
C1506 C1498 1.378 . S
C1506 C1501 1.350 . S
C1507 H1494 0.929 . S
C1507 C1499 1.433 . S
C1507 N1509 1.384 . S
N1508 C1504 1.427 . S
N1508 C1505 1.384 . S
N1509 C1501 1.427 . S
N1509 C1507 1.384 . S
H1510 C1516 0.930 . S
H1511 C1520 0.930 . S
H1512 C1525 0.929 . S
H1513 C1523 0.929 . S
H1514 C1518 0.929 . S
H1515 C1524 0.929 . S
C1516 H1510 0.930 . S
C1516 C1517 1.367 . S
C1516 C1524 1.378 . S
C1517 C1516 1.367 . S
C1517 C1525 1.433 . S
C1518 H1514 0.929 . S
C1518 C1520 1.378 . S
C1518 C1522 1.350 . S
C1519 C1522 1.463 . S
C1519 C1524 1.350 . S
C1519 N1527 1.427 . S
C1520 H1511 0.930 . S
C1520 C1518 1.378 . S
C1520 C1521 1.367 . S
C1521 C1520 1.367 . S
C1521 C1523 1.433 . S
C1522 C1518 1.350 . S
C1522 C1519 1.463 . S
C1522 N1526 1.427 . S
C1523 H1513 0.929 . S
C1523 C1521 1.433 . S
C1523 N1526 1.384 . S
C1524 H1515 0.929 . S
C1524 C1516 1.378 . S
C1524 C1519 1.350 . S
C1525 H1512 0.929 . S
C1525 C1517 1.433 . S
C1525 N1527 1.384 . S
N1526 C1522 1.427 . S
N1526 C1523 1.384 . S
N1527 C1519 1.427 . S
N1527 C1525 1.384 . S
H1528 C1534 0.930 . S
H1529 C1538 0.930 . S
H1530 C1543 0.929 . S
H1531 C1541 0.929 . S
H1532 C1536 0.929 . S
H1533 C1542 0.929 . S
C1534 H1528 0.930 . S
C1534 C1535 1.367 . S
C1534 C1542 1.378 . S
C1535 C1534 1.367 . S
C1535 C1543 1.433 . S
C1536 H1532 0.929 . S
C1536 C1538 1.378 . S
C1536 C1540 1.350 . S
C1537 C1540 1.463 1_545 S
C1537 C1542 1.350 . S
C1537 N1545 1.427 . S
C1538 H1529 0.930 . S
C1538 C1536 1.378 . S
C1538 C1539 1.367 . S
C1539 C1538 1.367 . S
C1539 C1541 1.433 . S
C1540 C1536 1.350 . S
C1540 C1537 1.463 1_565 S
C1540 N1544 1.427 . S
C1541 H1531 0.929 . S
C1541 C1539 1.433 . S
C1541 N1544 1.384 . S
C1542 H1533 0.929 . S
C1542 C1534 1.378 . S
C1542 C1537 1.350 . S
C1543 H1530 0.929 . S
C1543 C1535 1.433 . S
C1543 N1545 1.384 . S
N1544 C1540 1.427 . S
N1544 C1541 1.384 . S
N1545 C1537 1.427 . S
N1545 C1543 1.384 . S
H1546 C1552 0.930 . S
H1547 C1556 0.930 . S
H1548 C1561 0.929 . S
H1549 C1559 0.929 . S
H1550 C1554 0.929 . S
H1551 C1560 0.929 . S
C1552 H1546 0.930 . S
C1552 C1553 1.367 . S
C1552 C1560 1.378 . S
C1553 C1552 1.367 . S
C1553 C1561 1.433 . S
C1554 H1550 0.929 . S
C1554 C1556 1.378 . S
C1554 C1558 1.350 . S
C1555 C1558 1.463 1_554 S
C1555 C1560 1.350 . S
C1555 N1563 1.427 . S
C1556 H1547 0.930 . S
C1556 C1554 1.378 . S
C1556 C1557 1.367 . S
C1557 C1556 1.367 . S
C1557 C1559 1.433 . S
C1558 C1554 1.350 . S
C1558 C1555 1.463 1_556 S
C1558 N1562 1.427 . S
C1559 H1549 0.929 . S
C1559 C1557 1.433 . S
C1559 N1562 1.384 . S
C1560 H1551 0.929 . S
C1560 C1552 1.378 . S
C1560 C1555 1.350 . S
C1561 H1548 0.929 . S
C1561 C1553 1.433 . S
C1561 N1563 1.384 . S
N1562 C1558 1.427 . S
N1562 C1559 1.384 . S
N1563 C1555 1.427 . S
N1563 C1561 1.384 . S
H1564 C1570 0.930 . S
H1565 C1574 0.930 . S
H1566 C1579 0.929 . S
H1567 C1577 0.929 . S
H1568 C1572 0.929 . S
H1569 C1578 0.929 . S
C1570 H1564 0.930 . S
C1570 C1571 1.367 . S
C1570 C1578 1.378 . S
C1571 C1570 1.367 . S
C1571 C1579 1.433 . S
C1572 H1568 0.929 . S
C1572 C1574 1.378 . S
C1572 C1576 1.350 . S
C1573 C1576 1.463 1_545 S
C1573 C1578 1.350 . S
C1573 N1581 1.427 . S
C1574 H1565 0.930 . S
C1574 C1572 1.378 . S
C1574 C1575 1.367 . S
C1575 C1574 1.367 . S
C1575 C1577 1.433 . S
C1576 C1572 1.350 . S
C1576 C1573 1.463 1_565 S
C1576 N1580 1.427 . S
C1577 H1567 0.929 . S
C1577 C1575 1.433 . S
C1577 N1580 1.384 . S
C1578 H1569 0.929 . S
C1578 C1570 1.378 . S
C1578 C1573 1.350 . S
C1579 H1566 0.929 . S
C1579 C1571 1.433 . S
C1579 N1581 1.384 . S
N1580 C1576 1.427 . S
N1580 C1577 1.384 . S
N1581 C1573 1.427 . S
N1581 C1579 1.384 . S
H1582 C1588 0.930 . S
H1583 C1592 0.930 . S
H1584 C1597 0.929 . S
H1585 C1595 0.929 . S
H1586 C1590 0.929 . S
H1587 C1596 0.929 . S
C1588 H1582 0.930 . S
C1588 C1589 1.367 . S
C1588 C1596 1.378 . S
C1589 C1588 1.367 . S
C1589 C1597 1.433 . S
C1590 H1586 0.929 . S
C1590 C1592 1.378 . S
C1590 C1594 1.350 . S
C1591 C1594 1.463 . S
C1591 C1596 1.350 . S
C1591 N1599 1.427 . S
C1592 H1583 0.930 . S
C1592 C1590 1.378 . S
C1592 C1593 1.367 . S
C1593 C1592 1.367 . S
C1593 C1595 1.433 . S
C1594 C1590 1.350 . S
C1594 C1591 1.463 . S
C1594 N1598 1.427 . S
C1595 H1585 0.929 . S
C1595 C1593 1.433 . S
C1595 N1598 1.384 . S
C1596 H1587 0.929 . S
C1596 C1588 1.378 . S
C1596 C1591 1.350 . S
C1597 H1584 0.929 . S
C1597 C1589 1.433 . S
C1597 N1599 1.384 . S
N1598 C1594 1.427 . S
N1598 C1595 1.384 . S
N1599 C1591 1.427 . S
N1599 C1597 1.384 . S
C455 C7 1.348 . S
C459 C301 1.337 . S
C473 C315 1.336 . S
C477 C21 1.344 . S
C491 C35 1.335 . S
C495 C329 1.346 . S
C509 C287 1.348 . S
C513 C49 1.338 . S
C527 C63 1.341 . S
C531 C273 1.347 . S
C545 C77 1.343 . S
C549 C231 1.345 . S
C563 C245 1.342 . S
C567 C91 1.346 . S
C581 C105 1.337 . S
C585 C259 1.341 . S
C599 C119 1.337 . S
C603 C413 1.342 . S
C617 C133 1.347 . S
C621 C427 1.341 . S
C635 C441 1.348 . S
C639 C147 1.336 . S
C653 C399 1.347 . S
C657 C161 1.340 . S
C671 C175 1.338 . S
C675 C385 1.340 . S
C689 C343 1.343 . S
C693 C189 1.345 . S
C707 C203 1.347 . S
C711 C357 1.341 . S
C725 C371 1.337 . S
C729 C217 1.342 . S
C743 C9 1.316 . S
C747 C129 1.383 . S
C761 C23 1.316 . S
C765 C367 1.382 . S
C779 C157 1.384 . S
C783 C37 1.311 . S
C797 C51 1.315 . S
C801 C339 1.382 . S
C815 C65 1.325 . S
C819 C213 1.382 . S
C833 C395 1.381 . S
C837 C79 1.324 . S
C851 C185 1.384 . S
C855 C93 1.310 . S
C869 C423 1.384 . S
C873 C107 1.312 . S
C887 C121 1.327 . S
C891 C17 1.381 . S
C905 C255 1.382 . S
C909 C135 1.322 . S
C923 C45 1.384 . S
C927 C149 1.310 . S
C941 C163 1.327 . S
C945 C227 1.381 . S
C959 C101 1.384 . S
C963 C177 1.311 . S
C977 C283 1.384 . S
C981 C191 1.310 . S
C995 C73 1.382 . S
C999 C205 1.319 . S
C1013 C219 1.310 . S
C1017 C311 1.384 . S
C1031 C353 1.384 . S
C1035 C233 1.310 . S
C1049 C143 1.382 . S
C1053 C247 1.323 . S
C1067 C381 1.381 . S
C1071 C261 1.328 . S
C1085 C275 1.327 . S
C1089 C115 1.381 . S
C1103 C437 1.382 . S
C1107 C289 1.324 . S
C1121 C171 1.382 . S
C1125 C303 1.325 . S
C1139 C409 1.383 . S
C1143 C317 1.310 . S
C1157 C331 1.310 . S
C1161 C199 1.383 . S
C1175 C345 1.328 . S
C1179 C241 1.381 . S
C1193 C31 1.381 . S
C1197 C359 1.327 . S
C1211 C373 1.327 . S
C1215 C269 1.381 . S
C1229 C387 1.327 . S
C1233 C3 1.381 . S
C1247 C401 1.322 . S
C1251 C325 1.382 . S
C1265 C59 1.382 . S
C1269 C415 1.325 . S
C1283 C297 1.384 . S
C1287 C429 1.310 . S
C1301 C443 1.315 . S
C1305 C87 1.383 . S
C1319 C8 1.301 . S
C1323 C64 1.300 . S
C1337 C22 1.293 . S
C1341 C78 1.292 . S
C1355 C92 1.294 . S
C1359 C36 1.296 . S
C1373 C106 1.295 . S
C1377 C50 1.298 . S
C1391 C176 1.292 . S
C1395 C120 1.292 . S
C1409 C190 1.294 . S
C1413 C134 1.297 . S
C1427 C204 1.298 . S
C1431 C148 1.300 . S
C1445 C218 1.296 . S
C1449 C162 1.299 . S
C1463 C232 1.297 . S
C1467 C288 1.295 . S
C1481 C246 1.292 . S
C1485 C302 1.292 . S
C1499 C260 1.301 . S
C1503 C316 1.300 . S
C1517 C330 1.297 . S
C1521 C274 1.294 . S
C1535 C344 1.301 . S
C1539 C400 1.299 . S
C1553 C414 1.298 . S
C1557 C358 1.295 . S
C1571 C428 1.299 . S
C1575 C372 1.300 . S
C1589 C442 1.294 . S
C1593 C386 1.297 . S
