# Generated by pormake.
# Topology wji, (4)-cn, num edge types: 1
# Building blocks:
#     Node 0, Type 0, BuildingBlock: CEKHIL_clean_sbu_0, # of connection points: 4
#     Node 1, Type 0, BuildingBlock: CEKHIL_clean_sbu_0, # of connection points: 4
#     Node 2, Type 0, BuildingBlock: CEKHIL_clean_sbu_0, # of connection points: 4
#     Node 3, Type 0, BuildingBlock: CEKHIL_clean_sbu_0, # of connection points: 4
#     Node 4, Type 0, BuildingBlock: CEKHIL_clean_sbu_0, # of connection points: 4
#     Node 5, Type 0, BuildingBlock: CEKHIL_clean_sbu_0, # of connection points: 4
#     Node 6, Type 0, BuildingBlock: CEKHIL_clean_sbu_0, # of connection points: 4
#     Node 7, Type 0, BuildingBlock: CEKHIL_clean_sbu_0, # of connection points: 4
#     Node 8, Type 0, BuildingBlock: CEKHIL_clean_sbu_0, # of connection points: 4
#     Node 9, Type 0, BuildingBlock: CEKHIL_clean_sbu_0, # of connection points: 4
#     Node 10, Type 0, BuildingBlock: CEKHIL_clean_sbu_0, # of connection points: 4
#     Node 11, Type 0, BuildingBlock: CEKHIL_clean_sbu_0, # of connection points: 4
#     Edge 12, Type (0, 0), BuildingBlock: AJUNOK_clean_linker_0, # of connection points: 2
#     Edge 13, Type (0, 0), BuildingBlock: AJUNOK_clean_linker_0, # of connection points: 2
#     Edge 14, Type (0, 0), BuildingBlock: AJUNOK_clean_linker_0, # of connection points: 2
#     Edge 15, Type (0, 0), BuildingBlock: AJUNOK_clean_linker_0, # of connection points: 2
#     Edge 16, Type (0, 0), BuildingBlock: AJUNOK_clean_linker_0, # of connection points: 2
#     Edge 17, Type (0, 0), BuildingBlock: AJUNOK_clean_linker_0, # of connection points: 2
#     Edge 18, Type (0, 0), BuildingBlock: AJUNOK_clean_linker_0, # of connection points: 2
#     Edge 19, Type (0, 0), BuildingBlock: AJUNOK_clean_linker_0, # of connection points: 2
#     Edge 20, Type (0, 0), BuildingBlock: AJUNOK_clean_linker_0, # of connection points: 2
#     Edge 21, Type (0, 0), BuildingBlock: AJUNOK_clean_linker_0, # of connection points: 2
#     Edge 22, Type (0, 0), BuildingBlock: AJUNOK_clean_linker_0, # of connection points: 2
#     Edge 23, Type (0, 0), BuildingBlock: AJUNOK_clean_linker_0, # of connection points: 2
#     Edge 24, Type (0, 0), BuildingBlock: AJUNOK_clean_linker_0, # of connection points: 2
#     Edge 25, Type (0, 0), BuildingBlock: AJUNOK_clean_linker_0, # of connection points: 2
#     Edge 26, Type (0, 0), BuildingBlock: AJUNOK_clean_linker_0, # of connection points: 2
#     Edge 27, Type (0, 0), BuildingBlock: AJUNOK_clean_linker_0, # of connection points: 2
#     Edge 28, Type (0, 0), BuildingBlock: AJUNOK_clean_linker_0, # of connection points: 2
#     Edge 29, Type (0, 0), BuildingBlock: AJUNOK_clean_linker_0, # of connection points: 2
#     Edge 30, Type (0, 0), BuildingBlock: AJUNOK_clean_linker_0, # of connection points: 2
#     Edge 31, Type (0, 0), BuildingBlock: AJUNOK_clean_linker_0, # of connection points: 2
#     Edge 32, Type (0, 0), BuildingBlock: AJUNOK_clean_linker_0, # of connection points: 2
#     Edge 33, Type (0, 0), BuildingBlock: AJUNOK_clean_linker_0, # of connection points: 2
#     Edge 34, Type (0, 0), BuildingBlock: AJUNOK_clean_linker_0, # of connection points: 2
#     Edge 35, Type (0, 0), BuildingBlock: AJUNOK_clean_linker_0, # of connection points: 2
# Relax obj value: 0.212
# Max RMSD: 0.138
# Mean RMSD: 0.138
data_MOF--net-wji--node1-CEKHIL_clean_sbu_0--edge1-AJUNOK_clean_linker_0
_symmetry_space_group_name_H-M    P1
_symmetry_Int_Tables_number       1
_symmetry_cell_setting            triclinic
loop_
_symmetry_equiv_pos_as_xyz
'x, y, z'
_cell_length_a     41.323443
_cell_length_b     41.234063
_cell_length_c     16.838406
_cell_angle_alpha  89.942504
_cell_angle_beta   89.956951
_cell_angle_gamma 120.08919
loop_
_atom_site_label
_atom_site_type_symbol
_atom_site_fract_x
_atom_site_fract_y
_atom_site_fract_z
_atom_type_partial_charge
Co0 Co 0.44212 0.33883 0.45205 0.0
O1 O 0.45801 0.32074 0.54134 0.0
O2 O 0.42595 0.28537 0.44063 0.0
C3 C 0.49799 0.39247 0.43458 0.0
O4 O 0.42122 0.34987 0.34947 0.0
Co5 Co 0.44248 0.41444 0.47515 0.0
O6 O 0.42328 0.40537 0.3661 0.0
C7 C 0.38096 0.34396 0.54122 0.0
C8 C 0.44139 0.28778 0.50962 0.0
C9 C 0.41484 0.37618 0.32555 0.0
O10 O 0.39415 0.3247 0.50973 0.0
O11 O 0.39746 0.37976 0.53843 0.0
O12 O 0.49233 0.36107 0.40441 0.0
O13 O 0.47149 0.38968 0.47961 0.0
Co14 Co 0.11782 0.43625 0.61352 0.0
O15 O 0.1519 0.45025 0.70242 0.0
O16 O 0.15335 0.41831 0.59917 0.0
C17 C 0.12284 0.49348 0.59973 0.0
O18 O 0.08561 0.41689 0.51102 0.0
Co19 Co 0.04458 0.44054 0.6366 0.0
O20 O 0.0346 0.42319 0.52618 0.0
C21 C 0.04989 0.37621 0.70012 0.0
C22 C 0.16713 0.43314 0.66821 0.0
C23 C 0.05406 0.41299 0.48603 0.0
O24 O 0.08248 0.3884 0.67 0.0
O25 O 0.03199 0.39408 0.69735 0.0
O26 O 0.14747 0.48675 0.56762 0.0
O27 O 0.09828 0.4669 0.64351 0.0
Co28 Co 0.69292 0.11138 0.77625 0.0
O29 O 0.71144 0.14543 0.86544 0.0
O30 O 0.74687 0.14658 0.76651 0.0
C31 C 0.64112 0.11651 0.75831 0.0
O32 O 0.68174 0.07971 0.67336 0.0
Co33 Co 0.6149 0.03782 0.79409 0.0
O34 O 0.62397 0.02859 0.68432 0.0
C35 C 0.68332 0.04225 0.86124 0.0
C36 C 0.74448 0.16047 0.83442 0.0
C37 C 0.6544 0.04833 0.6466 0.0
O38 O 0.70411 0.07556 0.83434 0.0
O39 O 0.64764 0.02403 0.85513 0.0
O40 O 0.67302 0.14135 0.72808 0.0
O41 O 0.64231 0.09163 0.80242 0.0
Co42 Co 0.595 0.6862 0.95131 0.0
O43 O 0.57857 0.70597 0.03667 0.0
O44 O 0.6139 0.74001 0.93684 0.0
C45 C 0.53828 0.63388 0.93305 0.0
O46 O 0.61653 0.67362 0.85201 0.0
Co47 Co 0.59077 0.60891 0.97812 0.0
O48 O 0.60972 0.61608 0.86884 0.0
C49 C 0.65378 0.67864 0.0439 0.0
C50 C 0.59695 0.7385 0.00327 0.0
C51 C 0.62081 0.64597 0.82861 0.0
O52 O 0.64147 0.69869 0.01261 0.0
O53 O 0.63656 0.64281 0.04053 0.0
O54 O 0.54578 0.66544 0.90022 0.0
O55 O 0.56373 0.63574 0.98009 0.0
Co56 Co 0.91835 0.58513 0.11636 0.0
O57 O 0.88349 0.57088 0.20398 0.0
O58 O 0.88299 0.60318 0.10034 0.0
C59 C 0.91342 0.52791 0.10339 0.0
O60 O 0.95164 0.60479 0.01507 0.0
Co61 Co 0.99139 0.58105 0.14355 0.0
O62 O 1.00233 0.59825 0.03296 0.0
C63 C 0.98475 0.64446 0.2074 0.0
C64 C 0.86867 0.58824 0.16913 0.0
C65 C 0.98337 0.6086 0.99148 0.0
O66 O 0.95302 0.63278 0.1737 0.0
O67 O 1.00263 0.62654 0.20655 0.0
O68 O 0.88914 0.53477 0.06998 0.0
O69 O 0.93758 0.55438 0.14782 0.0
Co70 Co 0.34476 0.9144 0.28849 0.0
O71 O 0.32342 0.87813 0.37354 0.0
O72 O 0.29127 0.87943 0.27064 0.0
C73 C 0.39655 0.90915 0.27395 0.0
O74 O 0.35917 0.94914 0.18938 0.0
Co75 Co 0.42171 0.98651 0.31856 0.0
O76 O 0.41672 0.99934 0.20865 0.0
C77 C 0.35202 0.98013 0.38291 0.0
C78 C 0.29143 0.86405 0.33834 0.0
C79 C 0.3874 0.98098 0.16686 0.0
O80 O 0.33189 0.94836 0.3491 0.0
O81 O 0.38781 0.99813 0.38154 0.0
O82 O 0.36565 0.88604 0.23802 0.0
O83 O 0.39446 0.93246 0.32159 0.0
Co84 Co 0.69284 0.58915 0.38775 0.0
O85 O 0.71172 0.57441 0.29796 0.0
O86 O 0.74581 0.60458 0.40192 0.0
C87 C 0.63877 0.53317 0.40083 0.0
O88 O 0.68108 0.60883 0.49124 0.0
Co89 Co 0.61826 0.59012 0.36411 0.0
O90 O 0.62539 0.60607 0.47537 0.0
C91 C 0.68938 0.65216 0.30219 0.0
C92 C 0.74412 0.59028 0.33191 0.0
C93 C 0.65431 0.61415 0.51634 0.0
O94 O 0.70806 0.63812 0.33281 0.0
O95 O 0.65367 0.63597 0.30396 0.0
O96 O 0.66966 0.53819 0.43218 0.0
O97 O 0.64233 0.5605 0.35729 0.0
Co98 Co 0.11603 0.68524 0.55461 0.0
O99 O 0.14986 0.70519 0.46517 0.0
O100 O 0.15147 0.73902 0.56776 0.0
C101 C 0.12142 0.6333 0.56916 0.0
O102 O 0.08387 0.67237 0.65739 0.0
Co103 Co 0.04293 0.60729 0.53218 0.0
O104 O 0.03246 0.61509 0.64196 0.0
C105 C 0.04813 0.67667 0.46752 0.0
C106 C 0.16491 0.73779 0.49839 0.0
C107 C 0.052 0.64484 0.68192 0.0
O108 O 0.08056 0.69726 0.49805 0.0
O109 O 0.03028 0.64081 0.47039 0.0
O110 O 0.14593 0.66493 0.60071 0.0
O111 O 0.09669 0.63487 0.52543 0.0
Co112 Co 0.44361 0.11175 0.72588 0.0
O113 O 0.45644 0.1455 0.63623 0.0
O114 O 0.42649 0.14784 0.74239 0.0
C115 C 0.50082 0.11669 0.73486 0.0
O116 O 0.42567 0.07996 0.82965 0.0
Co117 Co 0.44693 0.03803 0.70213 0.0
O118 O 0.43159 0.02868 0.81391 0.0
C119 C 0.38254 0.04378 0.64177 0.0
C120 C 0.44034 0.16126 0.67241 0.0
C121 C 0.42212 0.04849 0.85494 0.0
O122 O 0.39503 0.07636 0.67245 0.0
O123 O 0.40027 0.02572 0.64303 0.0
O124 O 0.49461 0.14146 0.76811 0.0
O125 O 0.47358 0.09183 0.69305 0.0
Co126 Co 0.34475 0.43667 0.88763 0.0
O127 O 0.32518 0.45116 0.79877 0.0
O128 O 0.29129 0.41928 0.90185 0.0
C129 C 0.39744 0.49357 0.9014 0.0
O130 O 0.35739 0.41677 0.98978 0.0
Co131 Co 0.42135 0.43946 0.86238 0.0
O132 O 0.41441 0.42259 0.97323 0.0
C133 C 0.351 0.3759 0.80015 0.0
C134 C 0.29267 0.43398 0.83236 0.0
C135 C 0.38496 0.41258 0.01413 0.0
O136 O 0.33137 0.38871 0.83118 0.0
O137 O 0.38679 0.39314 0.80189 0.0
O138 O 0.36618 0.4871 0.93364 0.0
O139 O 0.39506 0.46695 0.8573 0.0
Co140 Co 0.91889 0.33566 0.056 0.0
O141 O 0.88232 0.31505 0.97152 0.0
O142 O 0.88463 0.28183 0.07185 0.0
C143 C 0.91378 0.38757 0.07375 0.0
O144 O 0.95357 0.3491 0.15459 0.0
Co145 Co 0.99123 0.41363 0.02767 0.0
O146 O 1.00389 0.40686 0.13643 0.0
C147 C 0.98463 0.34435 0.95944 0.0
C148 C 0.86875 0.28272 0.00564 0.0
C149 C 0.98549 0.37707 0.1772 0.0
O150 O 0.95303 0.32371 0.99351 0.0
O151 O 1.00248 0.3802 0.96195 0.0
O152 O 0.89013 0.35606 0.10747 0.0
O153 O 0.93736 0.38585 0.02647 0.0
Co154 Co 0.59217 0.91222 0.21925 0.0
O155 O 0.57451 0.87444 0.13726 0.0
O156 O 0.61108 0.87744 0.23547 0.0
C157 C 0.53582 0.90819 0.23763 0.0
O158 O 0.61494 0.94814 0.31555 0.0
Co159 Co 0.58798 0.9847 0.18831 0.0
O160 O 0.60648 0.9977 0.29764 0.0
C161 C 0.64987 0.97682 0.12067 0.0
C162 C 0.59345 0.86094 0.17027 0.0
C163 C 0.61833 0.97979 0.33848 0.0
O164 O 0.63787 0.94488 0.15407 0.0
O165 O 0.63285 0.99555 0.12378 0.0
O166 O 0.54367 0.88523 0.27432 0.0
O167 O 0.56074 0.93067 0.18812 0.0
C168 C 0.40593 0.37766 0.10253 0.0
C169 C 0.38423 0.39527 0.09252 0.0
C170 C 0.41284 0.36772 0.17789 0.0
C171 C 0.3984 0.37509 0.24638 0.0
H172 H 0.4194 0.37322 0.05185 0.0
H173 H 0.4319 0.35698 0.18282 0.0
S174 S 0.33458 0.41422 0.2527 0.0
N175 N 0.34441 0.41481 0.15742 0.0
N176 N 0.35712 0.39613 0.29904 0.0
C177 C 0.37386 0.3894 0.23674 0.0
C178 C 0.36676 0.39942 0.1599 0.0
C179 C 0.99835 0.37555 0.39933 0.0
C180 C 0.03777 0.39581 0.40769 0.0
C181 C 0.98107 0.3661 0.3244 0.0
C182 C 1.00258 0.37683 0.2548 0.0
H183 H 0.98058 0.36866 0.45126 0.0
H184 H 0.9509 0.35295 0.32105 0.0
S185 S 0.10635 0.42443 0.24358 0.0
N186 N 0.0974 0.42183 0.33974 0.0
N187 N 0.06527 0.40427 0.19882 0.0
C188 C 0.04189 0.3941 0.26242 0.0
C189 C 0.05943 0.40347 0.33883 0.0
C190 C 0.65275 0.03681 0.42422 0.0
C191 C 0.63618 0.99746 0.41563 0.0
C192 C 0.66268 0.05424 0.499 0.0
C193 C 0.65627 0.03296 0.56817 0.0
H194 H 0.65624 0.05418 0.37298 0.0
H195 H 0.67252 0.08398 0.50309 0.0
S196 S 0.61954 0.93029 0.57822 0.0
N197 N 0.61842 0.93873 0.48262 0.0
N198 N 0.63689 0.97127 0.62309 0.0
C199 C 0.64291 0.99418 0.55991 0.0
C200 C 0.63299 0.97647 0.48372 0.0
C201 C 0.63689 0.65115 0.60651 0.0
C202 C 0.65517 0.63015 0.5961 0.0
C203 C 0.62869 0.65942 0.68229 0.0
C204 C 0.63824 0.64677 0.75072 0.0
H205 H 0.62692 0.65956 0.55537 0.0
H206 H 0.61238 0.67328 0.68698 0.0
S207 S 0.69219 0.59675 0.75701 0.0
N208 N 0.68685 0.60142 0.66124 0.0
N209 N 0.67175 0.61691 0.80379 0.0
C210 C 0.65955 0.62879 0.74132 0.0
C211 C 0.66804 0.62056 0.66405 0.0
C212 C 0.05722 0.65359 0.82966 0.0
C213 C 0.03587 0.64562 0.76036 0.0
C214 C 0.03983 0.6438 0.90458 0.0
C215 C 1.00043 0.62581 0.91329 0.0
H216 H 0.08714 0.66476 0.8258 0.0
H217 H 0.05741 0.64867 0.95604 0.0
S218 S 0.93277 0.60497 0.75026 0.0
N219 N 0.97378 0.62335 0.70527 0.0
N220 N 0.94138 0.60507 0.84608 0.0
C221 C 0.97919 0.62097 0.84492 0.0
C222 C 0.99686 0.63076 0.76854 0.0
C223 C 0.38572 0.99312 0.94401 0.0
C224 C 0.406 0.03258 0.93444 0.0
C225 C 0.37667 0.97617 0.01946 0.0
C226 C 0.38786 0.99802 0.08852 0.0
H227 H 0.3783 0.97504 0.89253 0.0
H228 H 0.36324 0.94593 0.02359 0.0
S229 S 0.43627 0.10214 0.09684 0.0
N230 N 0.43293 0.09268 1.00089 0.0
N231 N 0.4162 0.06118 0.14276 0.0
C232 C 0.40547 0.03742 0.0798 0.0
C233 C 0.41439 0.05463 0.00285 0.0
C234 C 0.60186 0.46343 0.41892 0.0
C235 C 0.60255 0.49773 0.41003 0.0
C236 C 0.56785 0.42932 0.42432 0.0
C237 C 0.53336 0.42841 0.42337 0.0
H238 H 0.62778 0.46285 0.42042 0.0
H239 H 0.56859 0.40357 0.43109 0.0
S240 S 0.51971 0.51025 0.40163 0.0
N241 N 0.56551 0.52836 0.3996 0.0
N242 N 0.502 0.46465 0.41248 0.0
C243 C 0.53368 0.46246 0.41512 0.0
C244 C 0.56818 0.49702 0.40768 0.0
C245 C 0.08949 0.52978 0.58817 0.0
C246 C 0.12333 0.5294 0.58986 0.0
C247 C 0.08913 0.56354 0.58128 0.0
C248 C 0.12262 0.59823 0.5786 0.0
H249 H 0.06303 0.50376 0.59124 0.0
H250 H 0.06242 0.56248 0.57908 0.0
S251 S 0.21867 0.61258 0.58255 0.0
N252 N 0.19118 0.56663 0.58789 0.0
N253 N 0.19053 0.63018 0.57819 0.0
C254 C 0.15665 0.59829 0.5813 0.0
C255 C 0.157 0.56383 0.58596 0.0
C256 C 0.53774 0.08382 0.74024 0.0
C257 C 0.53697 0.11754 0.74104 0.0
C258 C 0.57164 0.08381 0.74508 0.0
C259 C 0.60609 0.11754 0.74817 0.0
H260 H 0.5119 0.05719 0.73725 0.0
H261 H 0.57085 0.05716 0.74597 0.0
S262 S 0.61946 0.21342 0.7493 0.0
N263 N 0.57364 0.18557 0.74485 0.0
N264 N 0.63744 0.18554 0.75084 0.0
C265 C 0.6058 0.15146 0.74731 0.0
C266 C 0.5712 0.15146 0.74469 0.0
C267 C 0.50119 0.56403 0.92089 0.0
C268 C 0.50223 0.59866 0.92228 0.0
C269 C 0.46718 0.53014 0.91359 0.0
C270 C 0.43289 0.52959 0.91037 0.0
H271 H 0.5269 0.56314 0.92463 0.0
H272 H 0.4677 0.50415 0.91172 0.0
S273 S 0.42033 0.61255 0.91334 0.0
N274 N 0.46605 0.63034 0.9193 0.0
N275 N 0.40206 0.56661 0.90905 0.0
C276 C 0.43351 0.56398 0.91268 0.0
C277 C 0.46821 0.59853 0.91764 0.0
C278 C 0.94647 0.45729 0.08615 0.0
C279 C 0.91284 0.42271 0.08441 0.0
C280 C 0.94639 0.4912 0.09268 0.0
C281 C 0.91268 0.49182 0.09477 0.0
H282 H 0.97307 0.45816 0.08321 0.0
H283 H 0.97294 0.51716 0.09486 0.0
S284 S 0.81707 0.40897 0.09045 0.0
N285 N 0.84497 0.39109 0.08583 0.0
N286 N 0.8448 0.45491 0.09466 0.0
C287 C 0.87887 0.45747 0.09212 0.0
C288 C 0.87895 0.42288 0.08794 0.0
C289 C 0.45279 0.90973 0.33037 0.0
C290 C 0.43154 0.90817 0.2636 0.0
C291 C 0.48606 0.90855 0.32205 0.0
C292 C 0.49976 0.90716 0.24652 0.0
H293 H 0.44336 0.91141 0.38949 0.0
H294 H 0.50161 0.90968 0.37476 0.0
S295 S 0.45504 0.90349 0.05324 0.0
N296 N 0.42636 0.90475 0.11997 0.0
N297 N 0.48978 0.90452 0.1039 0.0
C298 C 0.47898 0.90604 0.17941 0.0
C299 C 0.44459 0.90599 0.18804 0.0
C300 C 0.31748 0.35023 0.67649 0.0
C301 C 0.33299 0.34424 0.74524 0.0
C302 C 0.32584 0.34108 0.6022 0.0
C303 C 0.34949 0.32577 0.59685 0.0
H304 H 0.30558 0.36842 0.67833 0.0
H305 H 0.32011 0.35264 0.54977 0.0
S306 S 0.37763 0.28623 0.76205 0.0
N307 N 0.35855 0.30852 0.80554 0.0
N308 N 0.37367 0.29052 0.66548 0.0
C309 C 0.35502 0.30986 0.66539 0.0
C310 C 0.34694 0.31956 0.7408 0.0
C311 C 0.03733 0.34207 0.8986 0.0
C312 C 0.99844 0.32747 0.9021 0.0
C313 C 0.05557 0.35009 0.82509 0.0
C314 C 0.03499 0.3444 0.75506 0.0
H315 H 0.05414 0.35336 0.95166 0.0
H316 H 0.08578 0.36748 0.82437 0.0
S317 S 0.93219 0.29091 0.73408 0.0
N318 N 0.93956 0.29514 0.83089 0.0
N319 N 0.97405 0.31082 0.69247 0.0
C320 C 0.99606 0.32093 0.75817 0.0
C321 C 0.97749 0.31241 0.83276 0.0
C322 C 0.70532 0.02907 0.05981 0.0
C323 C 0.68065 0.99016 0.06356 0.0
C324 C 0.715 0.04734 0.98627 0.0
C325 C 0.69937 0.02671 0.91655 0.0
H326 H 0.71141 0.04595 0.11297 0.0
H327 H 0.72817 0.07763 0.98566 0.0
S328 S 0.64967 0.92362 0.89581 0.0
N329 N 0.65373 0.93103 0.99265 0.0
N330 N 0.67109 0.96555 0.85396 0.0
C331 C 0.68356 0.98765 0.91951 0.0
C332 C 0.67425 0.96908 0.99418 0.0
C333 C 0.70927 0.681 0.10297 0.0
C334 C 0.68551 0.6962 0.09876 0.0
C335 C 0.72125 0.67545 0.17681 0.0
C336 C 0.708 0.68355 0.2465 0.0
H337 H 0.71319 0.66766 0.05133 0.0
H338 H 0.73352 0.6576 0.17918 0.0
S339 S 0.66232 0.74066 0.26261 0.0
N340 N 0.6626 0.73274 0.16653 0.0
N341 N 0.68423 0.72108 0.30571 0.0
C342 C 0.69381 0.70805 0.241 0.0
C343 C 0.68212 0.71428 0.16601 0.0
C344 C 0.0549 0.70891 0.34241 0.0
C345 C 0.03368 0.69356 0.41171 0.0
C346 C 0.03721 0.6996 0.26836 0.0
C347 C 0.99828 0.67561 0.26367 0.0
H348 H 0.08506 0.72146 0.34394 0.0
H349 H 0.05439 0.70531 0.21577 0.0
S350 S 0.93077 0.64569 0.42968 0.0
N351 N 0.9723 0.66626 0.47262 0.0
N352 N 0.93888 0.64983 0.33305 0.0
C353 C 0.97689 0.66967 0.33245 0.0
C354 C 0.99486 0.67848 0.40763 0.0
C355 C 0.34945 0.03282 0.44329 0.0
C356 C 0.33451 0.99382 0.43904 0.0
C357 C 0.35714 0.05064 0.5172 0.0
C358 C 0.35088 0.02952 0.58683 0.0
H359 H 0.36131 0.04997 0.3907 0.0
H360 H 0.37478 0.08089 0.51858 0.0
S361 S 0.29554 0.9264 0.6053 0.0
N362 N 0.30035 0.93438 0.50863 0.0
N363 N 0.31613 0.96809 0.64794 0.0
C364 C 0.32702 0.9906 0.58278 0.0
C365 C 0.31854 0.97246 0.50773 0.0
C366 C 0.43176 0.22208 0.51164 0.0
C367 C 0.4395 0.25496 0.55253 0.0
C368 C 0.43163 0.19181 0.55119 0.0
C369 C 0.43802 0.19262 0.6337 0.0
H370 H 0.42668 0.22003 0.44826 0.0
H371 H 0.42647 0.16749 0.51676 0.0
S372 S 0.45923 0.27155 0.76897 0.0
N373 N 0.45405 0.28623 0.68115 0.0
N374 N 0.45206 0.22883 0.75481 0.0
C375 C 0.44483 0.22478 0.67563 0.0
C376 C 0.44604 0.25603 0.63524 0.0
C377 C 0.23076 0.43243 0.83246 0.0
C378 C 0.25926 0.43067 0.79054 0.0
C379 C 0.20104 0.43284 0.79221 0.0
C380 C 0.19798 0.43047 0.70852 0.0
H381 H 0.23209 0.4348 0.89658 0.0
H382 H 0.18028 0.43518 0.82715 0.0
S383 S 0.26383 0.42234 0.57153 0.0
N384 N 0.28168 0.42494 0.6606 0.0
N385 N 0.22535 0.4244 0.58587 0.0
C386 C 0.2255 0.42717 0.66627 0.0
C387 C 0.25622 0.42765 0.70701 0.0
C388 C 0.80102 0.24416 0.97065 0.0
C389 C 0.8372 0.2491 0.96824 0.0
C390 C 0.77147 0.21547 0.92713 0.0
C391 C 0.77711 0.19131 0.87707 0.0
H392 H 0.79558 0.2629 0.00589 0.0
H393 H 0.74402 0.21265 0.93166 0.0
S394 S 0.86689 0.19269 0.85003 0.0
N395 N 0.87704 0.22711 0.91329 0.0
N396 N 0.822 0.17422 0.82895 0.0
C397 C 0.8133 0.19614 0.87384 0.0
C398 C 0.84319 0.22478 0.91996 0.0
C399 C 0.56381 0.80189 0.09005 0.0
C400 C 0.59534 0.82942 0.13131 0.0
C401 C 0.56492 0.77316 0.04727 0.0
C402 C 0.59801 0.77157 0.0412 0.0
H403 H 0.53781 0.80231 0.09147 0.0
H404 H 0.53963 0.75198 0.01865 0.0
S405 S 0.6887 0.83715 0.1357 0.0
N406 N 0.66075 0.85306 0.16294 0.0
N407 N 0.66319 0.79996 0.07978 0.0
C408 C 0.62991 0.79909 0.08106 0.0
C409 C 0.62851 0.82779 0.12672 0.0
C410 C 0.80496 0.58971 0.33243 0.0
C411 C 0.77715 0.59255 0.29024 0.0
C412 C 0.8344 0.58859 0.29253 0.0
C413 C 0.83794 0.59134 0.20891 0.0
H414 H 0.80331 0.58709 0.39652 0.0
H415 H 0.85458 0.58543 0.32773 0.0
S416 S 0.77399 0.60218 0.07127 0.0
N417 N 0.75587 0.59962 0.16011 0.0
N418 N 0.81176 0.59889 0.08601 0.0
C419 C 0.81111 0.59567 0.16637 0.0
C420 C 0.78062 0.59588 0.20676 0.0
C421 C 0.2248 0.8003 0.49998 0.0
C422 C 0.19532 0.77139 0.45704 0.0
C423 C 0.25538 0.8302 0.46077 0.0
C424 C 0.25729 0.83309 0.37704 0.0
H425 H 0.22493 0.79915 0.56424 0.0
H426 H 0.27791 0.8512 0.49656 0.0
S427 S 0.18587 0.76612 0.23719 0.0
N428 N 0.16929 0.74834 0.32586 0.0
N429 N 0.22595 0.80511 0.25297 0.0
C430 C 0.22726 0.80519 0.33358 0.0
C431 C 0.19657 0.77424 0.37334 0.0
loop_
_geom_bond_atom_site_label_1
_geom_bond_atom_site_label_2
_geom_bond_distance
_geom_bond_site_symmetry_2
_ccdc_geom_bond_type
Co0 O1 2.216 . S
Co0 O2 2.091 . S
Co0 O4 2.004 . S
Co0 O10 2.021 . S
Co0 O12 2.137 . S
Co0 O13 2.244 . S
O1 Co0 2.216 . S
O1 C8 1.247 . S
O2 Co0 2.091 . S
O2 C8 1.261 . S
C3 O12 1.247 . S
C3 O13 1.272 . S
O4 Co0 2.004 . S
O4 C9 1.259 . S
Co5 O6 2.061 . S
Co5 O11 2.052 . S
Co5 O13 2.135 . S
O6 Co5 2.061 . S
O6 C9 1.235 . S
C7 O10 1.238 . S
C7 O11 1.241 . S
C8 O1 1.247 . S
C8 O2 1.261 . S
C9 O4 1.259 . S
C9 O6 1.235 . S
O10 Co0 2.021 . S
O10 C7 1.238 . S
O11 Co5 2.052 . S
O11 C7 1.241 . S
O12 Co0 2.137 . S
O12 C3 1.247 . S
O13 Co0 2.244 . S
O13 C3 1.272 . S
O13 Co5 2.135 . S
Co14 O15 2.216 . S
Co14 O16 2.091 . S
Co14 O18 2.004 . S
Co14 O24 2.021 . S
Co14 O26 2.137 . S
Co14 O27 2.244 . S
O15 Co14 2.216 . S
O15 C22 1.247 . S
O16 Co14 2.091 . S
O16 C22 1.261 . S
C17 O26 1.247 . S
C17 O27 1.272 . S
O18 Co14 2.004 . S
O18 C23 1.259 . S
Co19 O20 2.061 . S
Co19 O25 2.052 . S
Co19 O27 2.135 . S
O20 Co19 2.061 . S
O20 C23 1.235 . S
C21 O24 1.238 . S
C21 O25 1.241 . S
C22 O15 1.247 . S
C22 O16 1.261 . S
C23 O18 1.259 . S
C23 O20 1.235 . S
O24 Co14 2.021 . S
O24 C21 1.238 . S
O25 Co19 2.052 . S
O25 C21 1.241 . S
O26 Co14 2.137 . S
O26 C17 1.247 . S
O27 Co14 2.244 . S
O27 C17 1.272 . S
O27 Co19 2.135 . S
Co28 O29 2.216 . S
Co28 O30 2.091 . S
Co28 O32 2.004 . S
Co28 O38 2.021 . S
Co28 O40 2.137 . S
Co28 O41 2.244 . S
O29 Co28 2.216 . S
O29 C36 1.247 . S
O30 Co28 2.091 . S
O30 C36 1.261 . S
C31 O40 1.247 . S
C31 O41 1.272 . S
O32 Co28 2.004 . S
O32 C37 1.259 . S
Co33 O34 2.061 . S
Co33 O39 2.052 . S
Co33 O41 2.135 . S
O34 Co33 2.061 . S
O34 C37 1.235 . S
C35 O38 1.238 . S
C35 O39 1.241 . S
C36 O29 1.247 . S
C36 O30 1.261 . S
C37 O32 1.259 . S
C37 O34 1.235 . S
O38 Co28 2.021 . S
O38 C35 1.238 . S
O39 Co33 2.052 . S
O39 C35 1.241 . S
O40 Co28 2.137 . S
O40 C31 1.247 . S
O41 Co28 2.244 . S
O41 C31 1.272 . S
O41 Co33 2.135 . S
Co42 O43 2.216 1_556 S
Co42 O44 2.091 . S
Co42 O46 2.004 . S
Co42 O52 2.021 . S
Co42 O54 2.137 . S
Co42 O55 2.244 . S
O43 Co42 2.216 1_554 S
O43 C50 1.247 1_554 S
O44 Co42 2.091 . S
O44 C50 1.261 . S
C45 O54 1.247 . S
C45 O55 1.272 . S
O46 Co42 2.004 . S
O46 C51 1.259 . S
Co47 O48 2.061 . S
Co47 O53 2.052 1_556 S
Co47 O55 2.135 . S
O48 Co47 2.061 . S
O48 C51 1.235 . S
C49 O52 1.238 1_554 S
C49 O53 1.241 . S
C50 O43 1.247 1_556 S
C50 O44 1.261 . S
C51 O46 1.259 . S
C51 O48 1.235 . S
O52 Co42 2.021 . S
O52 C49 1.238 1_556 S
O53 Co47 2.052 1_554 S
O53 C49 1.241 . S
O54 Co42 2.137 . S
O54 C45 1.247 . S
O55 Co42 2.244 . S
O55 C45 1.272 . S
O55 Co47 2.135 . S
Co56 O57 2.216 . S
Co56 O58 2.091 . S
Co56 O60 2.004 1_554 S
Co56 O66 2.021 . S
Co56 O68 2.137 . S
Co56 O69 2.244 . S
O57 Co56 2.216 . S
O57 C64 1.247 . S
O58 Co56 2.091 . S
O58 C64 1.261 . S
C59 O68 1.247 . S
C59 O69 1.272 . S
O60 Co56 2.004 1_556 S
O60 C65 1.259 . S
Co61 O62 2.061 . S
Co61 O67 2.052 . S
Co61 O69 2.135 . S
O62 Co61 2.061 . S
O62 C65 1.235 1_554 S
C63 O66 1.238 . S
C63 O67 1.241 . S
C64 O57 1.247 . S
C64 O58 1.261 . S
C65 O60 1.259 . S
C65 O62 1.235 1_556 S
O66 Co56 2.021 . S
O66 C63 1.238 . S
O67 Co61 2.052 . S
O67 C63 1.241 . S
O68 Co56 2.137 . S
O68 C59 1.247 . S
O69 Co56 2.244 . S
O69 C59 1.272 . S
O69 Co61 2.135 . S
Co70 O71 2.216 . S
Co70 O72 2.091 . S
Co70 O74 2.004 . S
Co70 O80 2.021 . S
Co70 O82 2.137 . S
Co70 O83 2.244 . S
O71 Co70 2.216 . S
O71 C78 1.247 . S
O72 Co70 2.091 . S
O72 C78 1.261 . S
C73 O82 1.247 . S
C73 O83 1.272 . S
O74 Co70 2.004 . S
O74 C79 1.259 . S
Co75 O76 2.061 . S
Co75 O81 2.052 . S
Co75 O83 2.135 . S
O76 Co75 2.061 . S
O76 C79 1.235 . S
C77 O80 1.238 . S
C77 O81 1.241 . S
C78 O71 1.247 . S
C78 O72 1.261 . S
C79 O74 1.259 . S
C79 O76 1.235 . S
O80 Co70 2.021 . S
O80 C77 1.238 . S
O81 Co75 2.052 . S
O81 C77 1.241 . S
O82 Co70 2.137 . S
O82 C73 1.247 . S
O83 Co70 2.244 . S
O83 C73 1.272 . S
O83 Co75 2.135 . S
Co84 O85 2.216 . S
Co84 O86 2.091 . S
Co84 O88 2.004 . S
Co84 O94 2.021 . S
Co84 O96 2.137 . S
Co84 O97 2.244 . S
O85 Co84 2.216 . S
O85 C92 1.247 . S
O86 Co84 2.091 . S
O86 C92 1.261 . S
C87 O96 1.247 . S
C87 O97 1.272 . S
O88 Co84 2.004 . S
O88 C93 1.259 . S
Co89 O90 2.061 . S
Co89 O95 2.052 . S
Co89 O97 2.135 . S
O90 Co89 2.061 . S
O90 C93 1.235 . S
C91 O94 1.238 . S
C91 O95 1.241 . S
C92 O85 1.247 . S
C92 O86 1.261 . S
C93 O88 1.259 . S
C93 O90 1.235 . S
O94 Co84 2.021 . S
O94 C91 1.238 . S
O95 Co89 2.052 . S
O95 C91 1.241 . S
O96 Co84 2.137 . S
O96 C87 1.247 . S
O97 Co84 2.244 . S
O97 C87 1.272 . S
O97 Co89 2.135 . S
Co98 O99 2.216 . S
Co98 O100 2.091 . S
Co98 O102 2.004 . S
Co98 O108 2.021 . S
Co98 O110 2.137 . S
Co98 O111 2.244 . S
O99 Co98 2.216 . S
O99 C106 1.247 . S
O100 Co98 2.091 . S
O100 C106 1.261 . S
C101 O110 1.247 . S
C101 O111 1.272 . S
O102 Co98 2.004 . S
O102 C107 1.259 . S
Co103 O104 2.061 . S
Co103 O109 2.052 . S
Co103 O111 2.135 . S
O104 Co103 2.061 . S
O104 C107 1.235 . S
C105 O108 1.238 . S
C105 O109 1.241 . S
C106 O99 1.247 . S
C106 O100 1.261 . S
C107 O102 1.259 . S
C107 O104 1.235 . S
O108 Co98 2.021 . S
O108 C105 1.238 . S
O109 Co103 2.052 . S
O109 C105 1.241 . S
O110 Co98 2.137 . S
O110 C101 1.247 . S
O111 Co98 2.244 . S
O111 C101 1.272 . S
O111 Co103 2.135 . S
Co112 O113 2.216 . S
Co112 O114 2.091 . S
Co112 O116 2.004 . S
Co112 O122 2.021 . S
Co112 O124 2.137 . S
Co112 O125 2.244 . S
O113 Co112 2.216 . S
O113 C120 1.247 . S
O114 Co112 2.091 . S
O114 C120 1.261 . S
C115 O124 1.247 . S
C115 O125 1.272 . S
O116 Co112 2.004 . S
O116 C121 1.259 . S
Co117 O118 2.061 . S
Co117 O123 2.052 . S
Co117 O125 2.135 . S
O118 Co117 2.061 . S
O118 C121 1.235 . S
C119 O122 1.238 . S
C119 O123 1.241 . S
C120 O113 1.247 . S
C120 O114 1.261 . S
C121 O116 1.259 . S
C121 O118 1.235 . S
O122 Co112 2.021 . S
O122 C119 1.238 . S
O123 Co117 2.052 . S
O123 C119 1.241 . S
O124 Co112 2.137 . S
O124 C115 1.247 . S
O125 Co112 2.244 . S
O125 C115 1.272 . S
O125 Co117 2.135 . S
Co126 O127 2.216 . S
Co126 O128 2.091 . S
Co126 O130 2.004 1_556 S
Co126 O136 2.021 . S
Co126 O138 2.137 . S
Co126 O139 2.244 . S
O127 Co126 2.216 . S
O127 C134 1.247 . S
O128 Co126 2.091 . S
O128 C134 1.261 . S
C129 O138 1.247 . S
C129 O139 1.272 . S
O130 Co126 2.004 1_554 S
O130 C135 1.259 . S
Co131 O132 2.061 . S
Co131 O137 2.052 . S
Co131 O139 2.135 . S
O132 Co131 2.061 . S
O132 C135 1.235 1_556 S
C133 O136 1.238 . S
C133 O137 1.241 . S
C134 O127 1.247 . S
C134 O128 1.261 . S
C135 O130 1.259 . S
C135 O132 1.235 1_554 S
O136 Co126 2.021 . S
O136 C133 1.238 . S
O137 Co131 2.052 . S
O137 C133 1.241 . S
O138 Co126 2.137 . S
O138 C129 1.247 . S
O139 Co126 2.244 . S
O139 C129 1.272 . S
O139 Co131 2.135 . S
Co140 O141 2.216 1_554 S
Co140 O142 2.091 . S
Co140 O144 2.004 . S
Co140 O150 2.021 . S
Co140 O152 2.137 . S
Co140 O153 2.244 . S
O141 Co140 2.216 1_556 S
O141 C148 1.247 1_556 S
O142 Co140 2.091 . S
O142 C148 1.261 . S
C143 O152 1.247 . S
C143 O153 1.272 . S
O144 Co140 2.004 . S
O144 C149 1.259 . S
Co145 O146 2.061 . S
Co145 O151 2.052 1_554 S
Co145 O153 2.135 . S
O146 Co145 2.061 . S
O146 C149 1.235 . S
C147 O150 1.238 1_556 S
C147 O151 1.241 . S
C148 O141 1.247 1_554 S
C148 O142 1.261 . S
C149 O144 1.259 . S
C149 O146 1.235 . S
O150 Co140 2.021 . S
O150 C147 1.238 1_554 S
O151 Co145 2.052 1_556 S
O151 C147 1.241 . S
O152 Co140 2.137 . S
O152 C143 1.247 . S
O153 Co140 2.244 . S
O153 C143 1.272 . S
O153 Co145 2.135 . S
Co154 O155 2.216 . S
Co154 O156 2.091 . S
Co154 O158 2.004 . S
Co154 O164 2.021 . S
Co154 O166 2.137 . S
Co154 O167 2.244 . S
O155 Co154 2.216 . S
O155 C162 1.247 . S
O156 Co154 2.091 . S
O156 C162 1.261 . S
C157 O166 1.247 . S
C157 O167 1.272 . S
O158 Co154 2.004 . S
O158 C163 1.259 . S
Co159 O160 2.061 . S
Co159 O165 2.052 . S
Co159 O167 2.135 . S
O160 Co159 2.061 . S
O160 C163 1.235 . S
C161 O164 1.238 . S
C161 O165 1.241 . S
C162 O155 1.247 . S
C162 O156 1.261 . S
C163 O158 1.259 . S
C163 O160 1.235 . S
O164 Co154 2.021 . S
O164 C161 1.238 . S
O165 Co159 2.052 . S
O165 C161 1.241 . S
O166 Co154 2.137 . S
O166 C157 1.247 . S
O167 Co154 2.244 . S
O167 C157 1.272 . S
O167 Co159 2.135 . S
C168 C169 1.369 . S
C168 C170 1.419 . S
C168 H172 0.930 . S
C169 C168 1.369 . S
C169 C178 1.429 . S
C170 C168 1.419 . S
C170 C171 1.363 . S
C170 H173 0.929 . S
C171 C170 1.363 . S
C171 C177 1.428 . S
H172 C168 0.930 . S
H173 C170 0.929 . S
S174 N175 1.613 . S
S174 N176 1.610 . S
N175 S174 1.613 . S
N175 C178 1.350 . S
N176 S174 1.610 . S
N176 C177 1.351 . S
C177 C171 1.428 . S
C177 N176 1.351 . S
C177 C178 1.434 . S
C178 C169 1.429 . S
C178 N175 1.350 . S
C178 C177 1.434 . S
C179 C180 1.369 . S
C179 C181 1.419 1_455 S
C179 H183 0.930 . S
C180 C179 1.369 . S
C180 C189 1.429 . S
C181 C179 1.419 1_655 S
C181 C182 1.363 . S
C181 H184 0.929 . S
C182 C181 1.363 . S
C182 C188 1.428 . S
H183 C179 0.930 . S
H184 C181 0.929 . S
S185 N186 1.613 . S
S185 N187 1.610 1_455 S
N186 S185 1.613 . S
N186 C189 1.350 . S
N187 S185 1.610 1_655 S
N187 C188 1.351 . S
C188 C182 1.428 . S
C188 N187 1.351 . S
C188 C189 1.434 1_655 S
C189 C180 1.429 . S
C189 N186 1.350 . S
C189 C188 1.434 1_455 S
C190 C191 1.369 1_545 S
C190 C192 1.419 . S
C190 H194 0.930 . S
C191 C190 1.369 1_565 S
C191 C200 1.429 . S
C192 C190 1.419 . S
C192 C193 1.363 . S
C192 H195 0.929 . S
C193 C192 1.363 . S
C193 C199 1.428 1_545 S
H194 C190 0.930 . S
H195 C192 0.929 . S
S196 N197 1.613 . S
S196 N198 1.610 . S
N197 S196 1.613 . S
N197 C200 1.350 . S
N198 S196 1.610 . S
N198 C199 1.351 . S
C199 C193 1.428 1_565 S
C199 N198 1.351 . S
C199 C200 1.434 . S
C200 C191 1.429 . S
C200 N197 1.350 . S
C200 C199 1.434 . S
C201 C202 1.369 . S
C201 C203 1.419 . S
C201 H205 0.930 . S
C202 C201 1.369 . S
C202 C211 1.429 . S
C203 C201 1.419 . S
C203 C204 1.363 . S
C203 H206 0.929 . S
C204 C203 1.363 . S
C204 C210 1.428 . S
H205 C201 0.930 . S
H206 C203 0.929 . S
S207 N208 1.613 . S
S207 N209 1.610 . S
N208 S207 1.613 . S
N208 C211 1.350 . S
N209 S207 1.610 . S
N209 C210 1.351 . S
C210 C204 1.428 . S
C210 N209 1.351 . S
C210 C211 1.434 . S
C211 C202 1.429 . S
C211 N208 1.350 . S
C211 C210 1.434 . S
C212 C213 1.369 . S
C212 C214 1.419 . S
C212 H216 0.930 . S
C213 C212 1.369 . S
C213 C222 1.429 1_455 S
C214 C212 1.419 . S
C214 C215 1.363 1_455 S
C214 H217 0.929 . S
C215 C214 1.363 1_655 S
C215 C221 1.428 . S
H216 C212 0.930 . S
H217 C214 0.929 . S
S218 N219 1.613 . S
S218 N220 1.610 . S
N219 S218 1.613 . S
N219 C222 1.350 . S
N220 S218 1.610 . S
N220 C221 1.351 . S
C221 C215 1.428 . S
C221 N220 1.351 . S
C221 C222 1.434 . S
C222 C213 1.429 1_655 S
C222 N219 1.350 . S
C222 C221 1.434 . S
C223 C224 1.369 1_565 S
C223 C225 1.419 . S
C223 H227 0.930 . S
C224 C223 1.369 1_545 S
C224 C233 1.429 1_556 S
C225 C223 1.419 . S
C225 C226 1.363 1_556 S
C225 H228 0.929 . S
C226 C225 1.363 1_554 S
C226 C232 1.428 1_565 S
H227 C223 0.930 . S
H228 C225 0.929 . S
S229 N230 1.613 . S
S229 N231 1.610 . S
N230 S229 1.613 . S
N230 C233 1.350 . S
N231 S229 1.610 . S
N231 C232 1.351 . S
C232 C226 1.428 1_545 S
C232 N231 1.351 . S
C232 C233 1.434 . S
C233 C224 1.429 1_554 S
C233 N230 1.350 . S
C233 C232 1.434 . S
C234 C235 1.369 . S
C234 C236 1.419 . S
C234 H238 0.930 . S
C235 C234 1.369 . S
C235 C244 1.429 . S
C236 C234 1.419 . S
C236 C237 1.363 . S
C236 H239 0.929 . S
C237 C236 1.363 . S
C237 C243 1.428 . S
H238 C234 0.930 . S
H239 C236 0.929 . S
S240 N241 1.613 . S
S240 N242 1.610 . S
N241 S240 1.613 . S
N241 C244 1.350 . S
N242 S240 1.610 . S
N242 C243 1.351 . S
C243 C237 1.428 . S
C243 N242 1.351 . S
C243 C244 1.434 . S
C244 C235 1.429 . S
C244 N241 1.350 . S
C244 C243 1.434 . S
C245 C246 1.369 . S
C245 C247 1.419 . S
C245 H249 0.930 . S
C246 C245 1.369 . S
C246 C255 1.429 . S
C247 C245 1.419 . S
C247 C248 1.363 . S
C247 H250 0.929 . S
C248 C247 1.363 . S
C248 C254 1.428 . S
H249 C245 0.930 . S
H250 C247 0.929 . S
S251 N252 1.613 . S
S251 N253 1.610 . S
N252 S251 1.613 . S
N252 C255 1.350 . S
N253 S251 1.610 . S
N253 C254 1.351 . S
C254 C248 1.428 . S
C254 N253 1.351 . S
C254 C255 1.434 . S
C255 C246 1.429 . S
C255 N252 1.350 . S
C255 C254 1.434 . S
C256 C257 1.369 . S
C256 C258 1.419 . S
C256 H260 0.930 . S
C257 C256 1.369 . S
C257 C266 1.429 . S
C258 C256 1.419 . S
C258 C259 1.363 . S
C258 H261 0.929 . S
C259 C258 1.363 . S
C259 C265 1.428 . S
H260 C256 0.930 . S
H261 C258 0.929 . S
S262 N263 1.613 . S
S262 N264 1.610 . S
N263 S262 1.613 . S
N263 C266 1.350 . S
N264 S262 1.610 . S
N264 C265 1.351 . S
C265 C259 1.428 . S
C265 N264 1.351 . S
C265 C266 1.434 . S
C266 C257 1.429 . S
C266 N263 1.350 . S
C266 C265 1.434 . S
C267 C268 1.369 . S
C267 C269 1.419 . S
C267 H271 0.930 1_556 S
C268 C267 1.369 . S
C268 C277 1.429 . S
C269 C267 1.419 . S
C269 C270 1.363 . S
C269 H272 0.929 1_556 S
C270 C269 1.363 . S
C270 C276 1.428 . S
H271 C267 0.930 1_554 S
H272 C269 0.929 1_554 S
S273 N274 1.613 . S
S273 N275 1.610 . S
N274 S273 1.613 . S
N274 C277 1.350 . S
N275 S273 1.610 . S
N275 C276 1.351 . S
C276 C270 1.428 . S
C276 N275 1.351 . S
C276 C277 1.434 . S
C277 C268 1.429 . S
C277 N274 1.350 . S
C277 C276 1.434 . S
C278 C279 1.369 . S
C278 C280 1.419 . S
C278 H282 0.930 1_554 S
C279 C278 1.369 . S
C279 C288 1.429 . S
C280 C278 1.419 . S
C280 C281 1.363 . S
C280 H283 0.929 1_554 S
C281 C280 1.363 . S
C281 C287 1.428 . S
H282 C278 0.930 1_556 S
H283 C280 0.929 1_556 S
S284 N285 1.613 . S
S284 N286 1.610 . S
N285 S284 1.613 . S
N285 C288 1.350 . S
N286 S284 1.610 . S
N286 C287 1.351 . S
C287 C281 1.428 . S
C287 N286 1.351 . S
C287 C288 1.434 . S
C288 C279 1.429 . S
C288 N285 1.350 . S
C288 C287 1.434 . S
C289 C290 1.369 . S
C289 C291 1.419 . S
C289 H293 0.930 . S
C290 C289 1.369 . S
C290 C299 1.429 . S
C291 C289 1.419 . S
C291 C292 1.363 . S
C291 H294 0.929 . S
C292 C291 1.363 . S
C292 C298 1.428 . S
H293 C289 0.930 . S
H294 C291 0.929 . S
S295 N296 1.613 . S
S295 N297 1.610 . S
N296 S295 1.613 . S
N296 C299 1.350 . S
N297 S295 1.610 . S
N297 C298 1.351 . S
C298 C292 1.428 . S
C298 N297 1.351 . S
C298 C299 1.434 . S
C299 C290 1.429 . S
C299 N296 1.350 . S
C299 C298 1.434 . S
C300 C301 1.369 . S
C300 C302 1.419 . S
C300 H304 0.930 . S
C301 C300 1.369 . S
C301 C310 1.429 . S
C302 C300 1.419 . S
C302 C303 1.363 . S
C302 H305 0.929 . S
C303 C302 1.363 . S
C303 C309 1.428 . S
H304 C300 0.930 . S
H305 C302 0.929 . S
S306 N307 1.613 . S
S306 N308 1.610 . S
N307 S306 1.613 . S
N307 C310 1.350 . S
N308 S306 1.610 . S
N308 C309 1.351 . S
C309 C303 1.428 . S
C309 N308 1.351 . S
C309 C310 1.434 . S
C310 C301 1.429 . S
C310 N307 1.350 . S
C310 C309 1.434 . S
C311 C312 1.369 1_455 S
C311 C313 1.419 . S
C311 H315 0.930 . S
C312 C311 1.369 1_655 S
C312 C321 1.429 . S
C313 C311 1.419 . S
C313 C314 1.363 . S
C313 H316 0.929 . S
C314 C313 1.363 . S
C314 C320 1.428 1_455 S
H315 C311 0.930 . S
H316 C313 0.929 . S
S317 N318 1.613 . S
S317 N319 1.610 . S
N318 S317 1.613 . S
N318 C321 1.350 . S
N319 S317 1.610 . S
N319 C320 1.351 . S
C320 C314 1.428 1_655 S
C320 N319 1.351 . S
C320 C321 1.434 . S
C321 C312 1.429 . S
C321 N318 1.350 . S
C321 C320 1.434 . S
C322 C323 1.369 1_545 S
C322 C324 1.419 . S
C322 H326 0.930 . S
C323 C322 1.369 1_565 S
C323 C332 1.429 1_554 S
C324 C322 1.419 . S
C324 C325 1.363 1_554 S
C324 H327 0.929 . S
C325 C324 1.363 1_556 S
C325 C331 1.428 1_545 S
H326 C322 0.930 . S
H327 C324 0.929 . S
S328 N329 1.613 . S
S328 N330 1.610 . S
N329 S328 1.613 . S
N329 C332 1.350 . S
N330 S328 1.610 . S
N330 C331 1.351 . S
C331 C325 1.428 1_565 S
C331 N330 1.351 . S
C331 C332 1.434 . S
C332 C323 1.429 1_556 S
C332 N329 1.350 . S
C332 C331 1.434 . S
C333 C334 1.369 . S
C333 C335 1.419 . S
C333 H337 0.930 . S
C334 C333 1.369 . S
C334 C343 1.429 . S
C335 C333 1.419 . S
C335 C336 1.363 . S
C335 H338 0.929 . S
C336 C335 1.363 . S
C336 C342 1.428 . S
H337 C333 0.930 . S
H338 C335 0.929 . S
S339 N340 1.613 . S
S339 N341 1.610 . S
N340 S339 1.613 . S
N340 C343 1.350 . S
N341 S339 1.610 . S
N341 C342 1.351 . S
C342 C336 1.428 . S
C342 N341 1.351 . S
C342 C343 1.434 . S
C343 C334 1.429 . S
C343 N340 1.350 . S
C343 C342 1.434 . S
C344 C345 1.369 . S
C344 C346 1.419 . S
C344 H348 0.930 . S
C345 C344 1.369 . S
C345 C354 1.429 1_455 S
C346 C344 1.419 . S
C346 C347 1.363 1_455 S
C346 H349 0.929 . S
C347 C346 1.363 1_655 S
C347 C353 1.428 . S
H348 C344 0.930 . S
H349 C346 0.929 . S
S350 N351 1.613 . S
S350 N352 1.610 . S
N351 S350 1.613 . S
N351 C354 1.350 . S
N352 S350 1.610 . S
N352 C353 1.351 . S
C353 C347 1.428 . S
C353 N352 1.351 . S
C353 C354 1.434 . S
C354 C345 1.429 1_655 S
C354 N351 1.350 . S
C354 C353 1.434 . S
C355 C356 1.369 1_545 S
C355 C357 1.419 . S
C355 H359 0.930 . S
C356 C355 1.369 1_565 S
C356 C365 1.429 . S
C357 C355 1.419 . S
C357 C358 1.363 . S
C357 H360 0.929 . S
C358 C357 1.363 . S
C358 C364 1.428 1_545 S
H359 C355 0.930 . S
H360 C357 0.929 . S
S361 N362 1.613 . S
S361 N363 1.610 . S
N362 S361 1.613 . S
N362 C365 1.350 . S
N363 S361 1.610 . S
N363 C364 1.351 . S
C364 C358 1.428 1_565 S
C364 N363 1.351 . S
C364 C365 1.434 . S
C365 C356 1.429 . S
C365 N362 1.350 . S
C365 C364 1.434 . S
C366 C367 1.369 . S
C366 C368 1.419 . S
C366 H370 0.930 . S
C367 C366 1.369 . S
C367 C376 1.429 . S
C368 C366 1.419 . S
C368 C369 1.363 . S
C368 H371 0.929 . S
C369 C368 1.363 . S
C369 C375 1.428 . S
H370 C366 0.930 . S
H371 C368 0.929 . S
S372 N373 1.613 . S
S372 N374 1.610 . S
N373 S372 1.613 . S
N373 C376 1.350 . S
N374 S372 1.610 . S
N374 C375 1.351 . S
C375 C369 1.428 . S
C375 N374 1.351 . S
C375 C376 1.434 . S
C376 C367 1.429 . S
C376 N373 1.350 . S
C376 C375 1.434 . S
C377 C378 1.369 . S
C377 C379 1.419 . S
C377 H381 0.930 . S
C378 C377 1.369 . S
C378 C387 1.429 . S
C379 C377 1.419 . S
C379 C380 1.363 . S
C379 H382 0.929 . S
C380 C379 1.363 . S
C380 C386 1.428 . S
H381 C377 0.930 . S
H382 C379 0.929 . S
S383 N384 1.613 . S
S383 N385 1.610 . S
N384 S383 1.613 . S
N384 C387 1.350 . S
N385 S383 1.610 . S
N385 C386 1.351 . S
C386 C380 1.428 . S
C386 N385 1.351 . S
C386 C387 1.434 . S
C387 C378 1.429 . S
C387 N384 1.350 . S
C387 C386 1.434 . S
C388 C389 1.369 . S
C388 C390 1.419 . S
C388 H392 0.939 . S
C389 C388 1.369 . S
C389 C398 1.429 . S
C390 C388 1.419 . S
C390 C391 1.363 . S
C390 H393 0.929 . S
C391 C390 1.363 . S
C391 C397 1.428 . S
H392 C388 0.939 . S
H393 C390 0.929 . S
S394 N395 1.613 . S
S394 N396 1.610 . S
N395 S394 1.613 . S
N395 C398 1.350 . S
N396 S394 1.610 . S
N396 C397 1.351 . S
C397 C391 1.428 . S
C397 N396 1.351 . S
C397 C398 1.434 . S
C398 C389 1.429 . S
C398 N395 1.350 . S
C398 C397 1.434 . S
C399 C400 1.369 . S
C399 C401 1.419 . S
C399 H403 0.930 . S
C400 C399 1.369 . S
C400 C409 1.429 . S
C401 C399 1.419 . S
C401 C402 1.363 . S
C401 H404 0.929 . S
C402 C401 1.363 . S
C402 C408 1.428 . S
H403 C399 0.930 . S
H404 C401 0.929 . S
S405 N406 1.613 . S
S405 N407 1.610 . S
N406 S405 1.613 . S
N406 C409 1.350 . S
N407 S405 1.610 . S
N407 C408 1.351 . S
C408 C402 1.428 . S
C408 N407 1.351 . S
C408 C409 1.434 . S
C409 C400 1.429 . S
C409 N406 1.350 . S
C409 C408 1.434 . S
C410 C411 1.369 . S
C410 C412 1.419 . S
C410 H414 0.930 . S
C411 C410 1.369 . S
C411 C420 1.429 . S
C412 C410 1.419 . S
C412 C413 1.363 . S
C412 H415 0.929 . S
C413 C412 1.363 . S
C413 C419 1.428 . S
H414 C410 0.930 . S
H415 C412 0.929 . S
S416 N417 1.613 . S
S416 N418 1.610 . S
N417 S416 1.613 . S
N417 C420 1.350 . S
N418 S416 1.610 . S
N418 C419 1.351 . S
C419 C413 1.428 . S
C419 N418 1.351 . S
C419 C420 1.434 . S
C420 C411 1.429 . S
C420 N417 1.350 . S
C420 C419 1.434 . S
C421 C422 1.369 . S
C421 C423 1.419 . S
C421 H425 0.930 . S
C422 C421 1.369 . S
C422 C431 1.429 . S
C423 C421 1.419 . S
C423 C424 1.363 . S
C423 H426 0.929 . S
C424 C423 1.363 . S
C424 C430 1.428 . S
H425 C421 0.930 . S
H426 C423 0.929 . S
S427 N428 1.613 . S
S427 N429 1.610 . S
N428 S427 1.613 . S
N428 C431 1.350 . S
N429 S427 1.610 . S
N429 C430 1.351 . S
C430 C424 1.428 . S
C430 N429 1.351 . S
C430 C431 1.434 . S
C431 C422 1.429 . S
C431 N428 1.350 . S
C431 C430 1.434 . S
C169 C135 1.525 . S
C171 C9 1.522 . S
C180 C23 1.530 . S
C182 C149 1.526 . S
C191 C163 1.528 . S
C193 C37 1.524 . S
C202 C93 1.527 . S
C204 C51 1.523 . S
C213 C107 1.523 . S
C215 C65 1.527 . S
C224 C121 1.524 . S
C226 C79 1.522 . S
C235 C87 1.580 . S
C237 C3 1.580 . S
C246 C17 1.585 . S
C248 C101 1.581 . S
C257 C115 1.585 . S
C259 C31 1.582 . S
C268 C45 1.585 . S
C270 C129 1.581 . S
C279 C143 1.585 . S
C281 C59 1.581 . S
C290 C73 1.585 . S
C292 C157 1.580 . S
C301 C133 1.396 . S
C303 C7 1.397 . S
C312 C147 1.401 . S
C314 C21 1.398 . S
C323 C161 1.405 . S
C325 C35 1.401 . S
C334 C49 1.403 . S
C336 C91 1.399 . S
C345 C105 1.400 . S
C347 C63 1.404 . S
C356 C77 1.402 . S
C358 C119 1.398 . S
C367 C8 1.304 . S
C369 C120 1.303 . S
C378 C134 1.301 . S
C380 C22 1.306 . S
C389 C148 1.302 1_556 S
C391 C36 1.305 . S
C400 C162 1.303 . S
C402 C50 1.304 1_554 S
C411 C92 1.301 . S
C413 C64 1.305 . S
C422 C106 1.305 . S
C424 C78 1.304 . S
