# Generated by pormake.
# Topology wju, (5)-cn, num edge types: 1
# Building blocks:
#     Node 0, Type 0, BuildingBlock: BEQFEK_clean_sbu_0, # of connection points: 5
#     Node 1, Type 0, BuildingBlock: BEQFEK_clean_sbu_0, # of connection points: 5
#     Node 2, Type 0, BuildingBlock: BEQFEK_clean_sbu_0, # of connection points: 5
#     Node 3, Type 0, BuildingBlock: BEQFEK_clean_sbu_0, # of connection points: 5
#     Node 4, Type 0, BuildingBlock: BEQFEK_clean_sbu_0, # of connection points: 5
#     Node 5, Type 0, BuildingBlock: BEQFEK_clean_sbu_0, # of connection points: 5
#     Node 6, Type 0, BuildingBlock: BEQFEK_clean_sbu_0, # of connection points: 5
#     Node 7, Type 0, BuildingBlock: BEQFEK_clean_sbu_0, # of connection points: 5
#     Node 8, Type 0, BuildingBlock: BEQFEK_clean_sbu_0, # of connection points: 5
#     Node 9, Type 0, BuildingBlock: BEQFEK_clean_sbu_0, # of connection points: 5
#     Node 10, Type 0, BuildingBlock: BEQFEK_clean_sbu_0, # of connection points: 5
#     Node 11, Type 0, BuildingBlock: BEQFEK_clean_sbu_0, # of connection points: 5
#     Edge 12, Type (0, 0), BuildingBlock: KIFKEQ_clean_linker_1, # of connection points: 2
#     Edge 13, Type (0, 0), BuildingBlock: KIFKEQ_clean_linker_1, # of connection points: 2
#     Edge 14, Type (0, 0), BuildingBlock: KIFKEQ_clean_linker_1, # of connection points: 2
#     Edge 15, Type (0, 0), BuildingBlock: KIFKEQ_clean_linker_1, # of connection points: 2
#     Edge 16, Type (0, 0), BuildingBlock: KIFKEQ_clean_linker_1, # of connection points: 2
#     Edge 17, Type (0, 0), BuildingBlock: KIFKEQ_clean_linker_1, # of connection points: 2
#     Edge 18, Type (0, 0), BuildingBlock: KIFKEQ_clean_linker_1, # of connection points: 2
#     Edge 19, Type (0, 0), BuildingBlock: KIFKEQ_clean_linker_1, # of connection points: 2
#     Edge 20, Type (0, 0), BuildingBlock: KIFKEQ_clean_linker_1, # of connection points: 2
#     Edge 21, Type (0, 0), BuildingBlock: KIFKEQ_clean_linker_1, # of connection points: 2
#     Edge 22, Type (0, 0), BuildingBlock: KIFKEQ_clean_linker_1, # of connection points: 2
#     Edge 23, Type (0, 0), BuildingBlock: KIFKEQ_clean_linker_1, # of connection points: 2
#     Edge 24, Type (0, 0), BuildingBlock: KIFKEQ_clean_linker_1, # of connection points: 2
#     Edge 25, Type (0, 0), BuildingBlock: KIFKEQ_clean_linker_1, # of connection points: 2
#     Edge 26, Type (0, 0), BuildingBlock: KIFKEQ_clean_linker_1, # of connection points: 2
#     Edge 27, Type (0, 0), BuildingBlock: KIFKEQ_clean_linker_1, # of connection points: 2
#     Edge 28, Type (0, 0), BuildingBlock: KIFKEQ_clean_linker_1, # of connection points: 2
#     Edge 29, Type (0, 0), BuildingBlock: KIFKEQ_clean_linker_1, # of connection points: 2
#     Edge 30, Type (0, 0), BuildingBlock: KIFKEQ_clean_linker_1, # of connection points: 2
#     Edge 31, Type (0, 0), BuildingBlock: KIFKEQ_clean_linker_1, # of connection points: 2
#     Edge 32, Type (0, 0), BuildingBlock: KIFKEQ_clean_linker_1, # of connection points: 2
#     Edge 33, Type (0, 0), BuildingBlock: KIFKEQ_clean_linker_1, # of connection points: 2
#     Edge 34, Type (0, 0), BuildingBlock: KIFKEQ_clean_linker_1, # of connection points: 2
#     Edge 35, Type (0, 0), BuildingBlock: KIFKEQ_clean_linker_1, # of connection points: 2
#     Edge 36, Type (0, 0), BuildingBlock: KIFKEQ_clean_linker_1, # of connection points: 2
#     Edge 37, Type (0, 0), BuildingBlock: KIFKEQ_clean_linker_1, # of connection points: 2
#     Edge 38, Type (0, 0), BuildingBlock: KIFKEQ_clean_linker_1, # of connection points: 2
#     Edge 39, Type (0, 0), BuildingBlock: KIFKEQ_clean_linker_1, # of connection points: 2
#     Edge 40, Type (0, 0), BuildingBlock: KIFKEQ_clean_linker_1, # of connection points: 2
#     Edge 41, Type (0, 0), BuildingBlock: KIFKEQ_clean_linker_1, # of connection points: 2
# Relax obj value: 0.122
# Max RMSD: 0.141
# Mean RMSD: 0.141
data_MOF--net-wju--node1-BEQFEK_clean_sbu_0--edge1-KIFKEQ_clean_linker_1
_symmetry_space_group_name_H-M    P1
_symmetry_Int_Tables_number       1
_symmetry_cell_setting            triclinic
loop_
_symmetry_equiv_pos_as_xyz
'x, y, z'
_cell_length_a     27.56784
_cell_length_b     27.552619
_cell_length_c     112.36463
_cell_angle_alpha  89.977111
_cell_angle_beta   90.008554
_cell_angle_gamma 119.95906
loop_
_atom_site_label
_atom_site_type_symbol
_atom_site_fract_x
_atom_site_fract_y
_atom_site_fract_z
_atom_type_partial_charge
Co0 Co 0.3069 0.18445 0.11594 0.0
Co1 Co 0.31216 0.17598 0.08804 0.0
C2 C 0.20273 0.12962 0.10109 0.0
O3 O 0.22696 0.14571 0.11113 0.0
O4 O 0.23083 0.13945 0.09152 0.0
C5 C 0.26969 0.14335 0.13951 0.0
O6 O 0.22701 0.10366 0.13367 0.0
C7 C 0.2871 0.11658 0.06524 0.0
C8 C 0.34993 0.18021 0.05319 0.0
C9 C 0.30548 0.12559 0.05349 0.0
N10 N 0.31889 0.16365 0.0715 0.0
N11 N 0.35629 0.2016 0.06423 0.0
C12 C 0.24303 0.06311 0.07073 0.0
H13 H 0.24977 0.06322 0.08047 0.0
H14 H 0.24325 0.02662 0.06661 0.0
H15 H 0.20141 0.05897 0.06921 0.0
C16 C 0.36874 0.12213 0.11447 0.0
N17 N 0.34263 0.14701 0.10932 0.0
N18 N 0.34493 0.14329 0.09766 0.0
C19 C 0.37252 0.11577 0.09504 0.0
C20 C 0.38813 0.10128 0.10559 0.0
C21 C 0.37342 0.11709 0.12762 0.0
H22 H 0.39244 0.15923 0.13175 0.0
H23 H 0.33089 0.09116 0.13141 0.0
H24 H 0.39885 0.09737 0.12985 0.0
O25 O 0.34691 0.26395 0.11068 0.0
O26 O 0.35167 0.25833 0.09101 0.0
H27 H 0.40133 0.14477 0.07733 0.0
H28 H 0.41952 0.09429 0.0828 0.0
C29 C 0.38658 0.10623 0.08272 0.0
H30 H 0.34854 0.07203 0.07847 0.0
H31 H 0.38629 0.24201 0.06682 0.0
O32 O 0.30955 0.18267 0.13369 0.0
C33 C 0.36267 0.2873 0.10052 0.0
Co34 Co 0.11865 0.30568 0.44946 0.0
Co35 Co 0.12962 0.31172 0.42147 0.0
C36 C 0.06619 0.20206 0.43463 0.0
O37 O 0.07558 0.2259 0.44473 0.0
O38 O 0.08392 0.23051 0.42509 0.0
C39 C 0.12348 0.26896 0.47307 0.0
O40 O 0.12006 0.22586 0.46732 0.0
C41 C 0.16745 0.28927 0.39859 0.0
C42 C 0.1557 0.34513 0.3863 0.0
C43 C 0.17316 0.30589 0.38674 0.0
N44 N 0.14808 0.31782 0.40484 0.0
N45 N 0.14126 0.35117 0.39742 0.0
C46 C 0.17685 0.24451 0.40377 0.0
H47 H 0.15941 0.23312 0.41286 0.0
H48 H 0.22232 0.25976 0.40439 0.0
H49 H 0.15783 0.20693 0.39795 0.0
C50 C 0.24221 0.3653 0.44753 0.0
N51 N 0.19089 0.33978 0.44258 0.0
N52 N 0.19585 0.34485 0.43091 0.0
C53 C 0.25065 0.37515 0.42811 0.0
C54 C 0.28162 0.38847 0.43854 0.0
C55 C 0.25302 0.37014 0.46064 0.0
H56 H 0.2289 0.38765 0.46496 0.0
H57 H 0.2384 0.32781 0.46439 0.0
H58 H 0.29813 0.39739 0.4627 0.0
O59 O 0.08146 0.34816 0.44441 0.0
O60 O 0.0871 0.35142 0.42464 0.0
H61 H 0.24719 0.40484 0.41065 0.0
H62 H 0.31718 0.42533 0.41562 0.0
C63 C 0.27289 0.39128 0.41571 0.0
H64 H 0.27059 0.35451 0.4112 0.0
H65 H 0.12619 0.37768 0.39993 0.0
O66 O 0.12403 0.30868 0.46718 0.0
C67 C 0.07205 0.36369 0.4344 0.0
Co68 Co 0.80403 0.11606 0.78273 0.0
Co69 Co 0.81386 0.13191 0.75493 0.0
C70 C 0.86177 0.06977 0.76799 0.0
O71 O 0.84496 0.07699 0.77803 0.0
O72 O 0.85173 0.08808 0.75843 0.0
C73 C 0.84564 0.12863 0.80658 0.0
O74 O 0.8925 0.1408 0.80111 0.0
C75 C 0.87351 0.16775 0.73208 0.0
C76 C 0.81074 0.17086 0.72039 0.0
C77 C 0.86484 0.17959 0.7205 0.0
N78 N 0.82674 0.15259 0.73845 0.0
N79 N 0.78928 0.15428 0.73139 0.0
C80 C 0.92664 0.17516 0.73735 0.0
H81 H 0.92697 0.1807 0.74714 0.0
H82 H 0.96346 0.21189 0.73334 0.0
H83 H 0.92974 0.13731 0.73549 0.0
C84 C 0.86439 0.24094 0.78163 0.0
N85 N 0.84065 0.19008 0.77642 0.0
N86 N 0.84401 0.19663 0.76477 0.0
C87 C 0.8694 0.25176 0.76223 0.0
C88 C 0.88338 0.28142 0.77281 0.0
C89 C 0.86673 0.25078 0.79476 0.0
H90 H 0.89987 0.24416 0.79869 0.0
H91 H 0.87652 0.29417 0.79679 0.0
H92 H 0.82609 0.22072 0.79888 0.0
O93 O 0.72511 0.07572 0.77716 0.0
O94 O 0.73143 0.08752 0.75754 0.0
H95 H 0.84201 0.25494 0.74456 0.0
H96 H 0.89755 0.3215 0.74993 0.0
C97 C 0.88099 0.27564 0.74991 0.0
H98 H 0.91239 0.26746 0.74563 0.0
H99 H 0.74924 0.14461 0.7341 0.0
O100 O 0.80249 0.11716 0.80043 0.0
C101 C 0.70213 0.06848 0.76697 0.0
Co102 Co 0.68048 0.80967 0.11586 0.0
Co103 Co 0.67511 0.81858 0.08796 0.0
C104 C 0.78457 0.86393 0.10095 0.0
O105 O 0.76032 0.84794 0.11099 0.0
O106 O 0.75651 0.85437 0.09138 0.0
C107 C 0.71791 0.8506 0.13943 0.0
O108 O 0.76053 0.89039 0.13359 0.0
C109 C 0.70016 0.87714 0.065 0.0
C110 C 0.63323 0.81523 0.05339 0.0
C111 C 0.67969 0.86863 0.05343 0.0
N112 N 0.66758 0.8309 0.07144 0.0
N113 N 0.62778 0.79393 0.06443 0.0
C114 C 0.7469 0.92988 0.07016 0.0
H115 H 0.78719 0.93157 0.06828 0.0
H116 H 0.74198 0.93091 0.07994 0.0
H117 H 0.74817 0.96711 0.06604 0.0
C118 C 0.61942 0.87278 0.11449 0.0
N119 N 0.6452 0.84765 0.10931 0.0
N120 N 0.6432 0.85187 0.09766 0.0
C121 C 0.61634 0.88017 0.09508 0.0
C122 C 0.60072 0.89446 0.10564 0.0
C123 C 0.61428 0.87714 0.12765 0.0
H124 H 0.65664 0.90319 0.1315 0.0
H125 H 0.58847 0.89643 0.12989 0.0
H126 H 0.59544 0.83484 0.1317 0.0
O127 O 0.63996 0.7303 0.1106 0.0
O128 O 0.63494 0.73612 0.09095 0.0
H129 H 0.57244 0.90567 0.08285 0.0
H130 H 0.64216 0.92312 0.07844 0.0
C131 C 0.60316 0.89082 0.08276 0.0
H132 H 0.58589 0.85183 0.07744 0.0
H133 H 0.59656 0.75437 0.0672 0.0
O134 O 0.67806 0.81131 0.13361 0.0
C135 C 0.62391 0.70706 0.10044 0.0
Co136 Co 0.86388 0.68082 0.44939 0.0
Co137 Co 0.85298 0.6748 0.4214 0.0
C138 C 0.91599 0.78446 0.43454 0.0
O139 O 0.90668 0.76057 0.44463 0.0
O140 O 0.89836 0.75606 0.425 0.0
C141 C 0.85801 0.71761 0.47288 0.0
O142 O 0.86003 0.7598 0.46699 0.0
C143 C 0.81515 0.69711 0.39851 0.0
C144 C 0.8274 0.64161 0.38622 0.0
C145 C 0.80973 0.68069 0.38665 0.0
N146 N 0.83457 0.66863 0.40477 0.0
N147 N 0.84168 0.63547 0.39736 0.0
C148 C 0.8055 0.74171 0.40369 0.0
H149 H 0.82491 0.77951 0.39794 0.0
H150 H 0.82238 0.7527 0.41283 0.0
H151 H 0.76001 0.7265 0.40419 0.0
C152 C 0.7403 0.62057 0.44745 0.0
N153 N 0.79163 0.64637 0.4425 0.0
N154 N 0.7867 0.6414 0.43084 0.0
C155 C 0.73192 0.61094 0.42803 0.0
C156 C 0.70092 0.59737 0.43846 0.0
C157 C 0.72945 0.61549 0.46057 0.0
H158 H 0.75427 0.5988 0.46489 0.0
H159 H 0.74314 0.65763 0.46431 0.0
H160 H 0.68446 0.58745 0.46262 0.0
O161 O 0.90139 0.63862 0.44438 0.0
O162 O 0.89579 0.63539 0.42461 0.0
H163 H 0.73545 0.5815 0.41056 0.0
H164 H 0.66543 0.56094 0.41553 0.0
C165 C 0.70973 0.59499 0.41563 0.0
H166 H 0.71207 0.63183 0.41113 0.0
H167 H 0.85688 0.60907 0.39987 0.0
O168 O 0.85862 0.6782 0.4671 0.0
C169 C 0.91091 0.62319 0.43436 0.0
Co170 Co 0.18047 0.86512 0.78256 0.0
Co171 Co 0.17152 0.85047 0.75469 0.0
C172 C 0.12531 0.91411 0.76772 0.0
O173 O 0.14173 0.90628 0.77775 0.0
O174 O 0.13476 0.8954 0.75816 0.0
C175 C 0.13926 0.85966 0.80616 0.0
O176 O 0.09782 0.85963 0.80038 0.0
C177 C 0.11286 0.81664 0.73174 0.0
C178 C 0.17505 0.81208 0.72013 0.0
C179 C 0.12152 0.80486 0.72016 0.0
N180 N 0.1591 0.8304 0.73819 0.0
N181 N 0.19623 0.82783 0.73117 0.0
C182 C 0.06006 0.81041 0.73694 0.0
H183 H 0.05904 0.80413 0.74671 0.0
H184 H 0.02289 0.77454 0.73279 0.0
H185 H 0.05828 0.84906 0.73516 0.0
C186 C 0.11779 0.74087 0.78128 0.0
N187 N 0.1427 0.79172 0.77608 0.0
N188 N 0.13983 0.78538 0.76443 0.0
C189 C 0.11365 0.73024 0.76187 0.0
C190 C 0.09866 0.70041 0.77246 0.0
C191 C 0.11455 0.73133 0.79444 0.0
H192 H 0.15646 0.75782 0.79846 0.0
H193 H 0.08543 0.74375 0.79836 0.0
H194 H 0.09951 0.68676 0.79662 0.0
O195 O 0.25977 0.90417 0.77719 0.0
O196 O 0.25384 0.89361 0.75754 0.0
H197 H 0.14154 0.72636 0.7443 0.0
H198 H 0.08412 0.66053 0.74953 0.0
C199 C 0.10218 0.70661 0.74953 0.0
H200 H 0.07205 0.71632 0.74514 0.0
H201 H 0.23584 0.83635 0.73395 0.0
O202 O 0.17962 0.86157 0.80029 0.0
C203 C 0.28295 0.91164 0.76702 0.0
Co204 Co 0.80738 0.68371 0.58638 0.0
Co205 Co 0.81224 0.67733 0.61436 0.0
C206 C 0.85964 0.78725 0.60124 0.0
O207 O 0.84488 0.7635 0.59114 0.0
O208 O 0.84867 0.7587 0.61077 0.0
C209 C 0.84894 0.72031 0.56277 0.0
O210 O 0.88878 0.76322 0.56853 0.0
C211 C 0.87251 0.69864 0.63721 0.0
C212 C 0.80471 0.64344 0.64951 0.0
C213 C 0.86154 0.68191 0.64905 0.0
N214 N 0.82448 0.67085 0.63098 0.0
N215 N 0.78418 0.6379 0.6384 0.0
C216 C 0.92686 0.74286 0.63202 0.0
H217 H 0.94591 0.78036 0.63786 0.0
H218 H 0.92096 0.75457 0.62295 0.0
H219 H 0.95656 0.72695 0.63136 0.0
C220 C 0.87016 0.62278 0.58826 0.0
N221 N 0.84478 0.64871 0.59323 0.0
N222 N 0.84458 0.64345 0.6049 0.0
C223 C 0.86854 0.61256 0.60767 0.0
C224 C 0.88598 0.59909 0.59723 0.0
C225 C 0.87625 0.61818 0.57514 0.0
H226 H 0.83476 0.60112 0.5708 0.0
H227 H 0.90423 0.66053 0.57144 0.0
H228 H 0.8938 0.59064 0.57306 0.0
O229 O 0.72774 0.64203 0.59143 0.0
O230 O 0.73008 0.63855 0.61119 0.0
H231 H 0.83547 0.58334 0.62515 0.0
H232 H 0.88375 0.56136 0.62011 0.0
C233 C 0.87444 0.5961 0.62005 0.0
H234 H 0.90944 0.63245 0.62455 0.0
H235 H 0.74251 0.61199 0.63591 0.0
O236 O 0.80967 0.68076 0.56867 0.0
C237 C 0.70279 0.62665 0.60144 0.0
Co238 Co 0.12175 0.80819 0.91963 0.0
Co239 Co 0.12678 0.81464 0.94772 0.0
C240 C 0.0609 0.8542 0.93347 0.0
O241 O 0.07491 0.84157 0.92367 0.0
O242 O 0.07669 0.84446 0.94339 0.0
C243 C 0.12989 0.85034 0.89606 0.0
O244 O 0.12616 0.88984 0.90181 0.0
C245 C 0.15813 0.87467 0.97078 0.0
C246 C 0.154 0.80953 0.98288 0.0
C247 C 0.16641 0.86485 0.98255 0.0
N248 N 0.14246 0.82755 0.96445 0.0
N249 N 0.13988 0.78878 0.97177 0.0
C250 C 0.16226 0.92701 0.96576 0.0
H251 H 0.13822 0.9183 0.9574 0.0
H252 H 0.20656 0.95775 0.96373 0.0
H253 H 0.14681 0.94628 0.97232 0.0
C254 C 0.24419 0.87746 0.92255 0.0
N255 N 0.19207 0.84975 0.92708 0.0
N256 N 0.19481 0.85212 0.9388 0.0
C257 C 0.24915 0.88125 0.94205 0.0
C258 C 0.28174 0.89862 0.93187 0.0
C259 C 0.25766 0.88276 0.90955 0.0
H260 H 0.23628 0.84067 0.90537 0.0
H261 H 0.24181 0.90841 0.90527 0.0
H262 H 0.30342 0.90292 0.90797 0.0
O263 O 0.08775 0.72908 0.9248 0.0
O264 O 0.08995 0.73243 0.9446 0.0
H265 H 0.24521 0.84918 0.95965 0.0
H266 H 0.31494 0.90011 0.95482 0.0
C267 C 0.27017 0.88849 0.95457 0.0
H268 H 0.26615 0.92238 0.9589 0.0
H269 H 0.12877 0.74817 0.96917 0.0
O270 O 0.12987 0.81089 0.90195 0.0
C271 C 0.07811 0.70477 0.93489 0.0
Co272 Co 0.30594 0.12127 0.25288 0.0
Co273 Co 0.31245 0.13574 0.28078 0.0
C274 C 0.20244 0.07143 0.26776 0.0
O275 O 0.22617 0.0798 0.25766 0.0
O276 O 0.23103 0.0898 0.27726 0.0
C277 C 0.26967 0.12709 0.22937 0.0
O278 O 0.22831 0.1267 0.23526 0.0
C279 C 0.29 0.1746 0.30354 0.0
C280 C 0.34627 0.16381 0.31588 0.0
C281 C 0.30653 0.18059 0.3154 0.0
N282 N 0.31899 0.15561 0.29733 0.0
N283 N 0.35266 0.14946 0.30477 0.0
C284 C 0.24482 0.1832 0.29832 0.0
H285 H 0.23427 0.16638 0.28917 0.0
H286 H 0.25921 0.22855 0.29784 0.0
H287 H 0.20695 0.16308 0.30404 0.0
C288 C 0.36725 0.24551 0.2542 0.0
N289 N 0.34127 0.19463 0.2594 0.0
N290 N 0.34573 0.2009 0.27105 0.0
C291 C 0.37593 0.25599 0.2736 0.0
C292 C 0.38997 0.28589 0.26302 0.0
C293 C 0.37266 0.25512 0.24105 0.0
H294 H 0.38838 0.22906 0.23692 0.0
H295 H 0.33081 0.24222 0.23725 0.0
H296 H 0.40158 0.29979 0.23884 0.0
O297 O 0.34663 0.08237 0.25822 0.0
O298 O 0.35219 0.0931 0.27789 0.0
H299 H 0.40549 0.25516 0.29121 0.0
H300 H 0.42406 0.32424 0.28589 0.0
C301 C 0.39102 0.27951 0.28592 0.0
H302 H 0.35348 0.2762 0.29027 0.0
H303 H 0.37944 0.13467 0.3023 0.0
O304 O 0.3084 0.12519 0.23514 0.0
C305 C 0.36292 0.07507 0.26836 0.0
Co306 Co 0.17803 0.30833 0.58649 0.0
Co307 Co 0.17317 0.31433 0.61449 0.0
C308 C 0.12745 0.2047 0.60136 0.0
O309 O 0.14181 0.2286 0.59126 0.0
O310 O 0.13801 0.23309 0.6109 0.0
C311 C 0.13549 0.27138 0.56299 0.0
O312 O 0.09557 0.22903 0.56886 0.0
C313 C 0.11327 0.29191 0.63742 0.0
C314 C 0.18083 0.34836 0.64963 0.0
C315 C 0.12428 0.30885 0.64926 0.0
N316 N 0.16098 0.32055 0.63113 0.0
N317 N 0.20113 0.35424 0.63849 0.0
C318 C 0.05921 0.24678 0.63231 0.0
H319 H 0.06526 0.2351 0.62325 0.0
H320 H 0.02882 0.26182 0.63164 0.0
H321 H 0.04093 0.20945 0.6382 0.0
C322 C 0.11367 0.36765 0.58843 0.0
N323 N 0.13964 0.34222 0.59338 0.0
N324 N 0.13968 0.3472 0.60505 0.0
C325 C 0.11493 0.37731 0.60785 0.0
C326 C 0.0972 0.39061 0.59743 0.0
C327 C 0.10783 0.37269 0.57532 0.0
H328 H 0.14935 0.38969 0.571 0.0
H329 H 0.07971 0.33049 0.57157 0.0
H330 H 0.09049 0.40044 0.57327 0.0
O331 O 0.25768 0.35119 0.59149 0.0
O332 O 0.25533 0.35435 0.61126 0.0
H333 H 0.14798 0.40718 0.6253 0.0
H334 H 0.09791 0.42702 0.62035 0.0
C335 C 0.10865 0.39328 0.62025 0.0
H336 H 0.0745 0.35633 0.62478 0.0
H337 H 0.24258 0.38091 0.63594 0.0
O338 O 0.17529 0.31092 0.56877 0.0
C339 C 0.2826 0.36679 0.6015 0.0
Co340 Co 0.8634 0.18142 0.91978 0.0
Co341 Co 0.8573 0.17481 0.94775 0.0
C342 C 0.91031 0.12135 0.93381 0.0
O343 O 0.89904 0.1367 0.924 0.0
O344 O 0.89846 0.13501 0.94374 0.0
C345 C 0.83868 0.13416 0.89636 0.0
O346 O 0.82016 0.08697 0.90226 0.0
C347 C 0.83101 0.12151 0.97143 0.0
C348 C 0.81839 0.18166 0.98209 0.0
C349 C 0.81654 0.13051 0.98274 0.0
N350 N 0.84076 0.16524 0.96446 0.0
N351 N 0.83377 0.20132 0.97093 0.0
C352 C 0.82958 0.06968 0.96691 0.0
H353 H 0.81888 0.06379 0.95731 0.0
H354 H 0.79852 0.03212 0.97189 0.0
H355 H 0.87159 0.07411 0.96805 0.0
C356 C 0.74043 0.12931 0.92263 0.0
N357 N 0.79233 0.14964 0.9271 0.0
N358 N 0.78933 0.14433 0.93877 0.0
C359 C 0.73506 0.11891 0.94206 0.0
C360 C 0.70235 0.10878 0.93194 0.0
C361 C 0.72791 0.1333 0.90982 0.0
H362 H 0.76212 0.17211 0.90581 0.0
H363 H 0.72435 0.0967 0.90493 0.0
H364 H 0.68787 0.13335 0.90886 0.0
O365 O 0.90768 0.26042 0.92477 0.0
O366 O 0.90318 0.25712 0.94452 0.0
H367 H 0.72709 0.13934 0.96005 0.0
H368 H 0.66898 0.07354 0.95502 0.0
C369 C 0.71493 0.10154 0.95455 0.0
H370 H 0.73486 0.07873 0.95833 0.0
H371 H 0.83802 0.23868 0.96764 0.0
O372 O 0.85797 0.17986 0.90211 0.0
C373 C 0.91926 0.28493 0.93483 0.0
Co374 Co 0.68107 0.86995 0.25283 0.0
Co375 Co 0.67432 0.85509 0.28073 0.0
C376 C 0.78445 0.91943 0.26774 0.0
O377 O 0.76078 0.91126 0.25765 0.0
O378 O 0.7558 0.90095 0.27724 0.0
C379 C 0.71765 0.86487 0.2293 0.0
O380 O 0.75916 0.86549 0.23518 0.0
C381 C 0.69626 0.81562 0.30347 0.0
C382 C 0.63972 0.8261 0.31578 0.0
C383 C 0.67938 0.80923 0.31532 0.0
N384 N 0.66752 0.8349 0.29726 0.0
N385 N 0.6337 0.84089 0.30469 0.0
C386 C 0.74147 0.80702 0.29828 0.0
H387 H 0.77907 0.82655 0.30408 0.0
H388 H 0.75254 0.82444 0.28918 0.0
H389 H 0.72683 0.76165 0.29767 0.0
C390 C 0.61965 0.74569 0.2541 0.0
N391 N 0.64562 0.7965 0.25931 0.0
N392 N 0.64099 0.79008 0.27096 0.0
C393 C 0.61064 0.73496 0.27349 0.0
C394 C 0.59672 0.7052 0.2629 0.0
C395 C 0.61451 0.73626 0.24094 0.0
H396 H 0.65649 0.74951 0.23717 0.0
H397 H 0.58586 0.69158 0.23871 0.0
H398 H 0.5986 0.76217 0.23681 0.0
O399 O 0.64042 0.90886 0.25819 0.0
O400 O 0.63475 0.8979 0.27785 0.0
H401 H 0.5809 0.7357 0.29108 0.0
H402 H 0.56203 0.66662 0.28573 0.0
C403 C 0.59526 0.71128 0.2858 0.0
H404 H 0.63262 0.71427 0.29017 0.0
H405 H 0.60702 0.8558 0.30221 0.0
O406 O 0.67872 0.86631 0.23509 0.0
C407 C 0.6241 0.91608 0.26833 0.0
H408 H 0.36582 0.11936 0.03502 0.0
H409 H 0.1967 0.04563 0.04833 0.0
H410 H 0.33198 0.05666 1.01788 0.0
H411 H 0.16293 0.98274 0.0313 0.0
H412 H 0.13292 0.84016 1.00559 0.0
H413 H 0.16622 0.90266 0.0228 0.0
H414 H 0.27683 0.03981 0.99994 0.0
H415 H 0.24527 0.97692 0.9829 0.0
C416 C 0.32144 0.08963 0.03431 0.0
C417 C 0.28422 0.08659 0.04321 0.0
C418 C 0.30199 0.05385 0.02447 0.0
C419 C 0.24473 0.0144 0.02324 0.0
C420 C 0.20743 0.01177 0.03209 0.0
C421 C 0.22691 0.04763 0.04193 0.0
C422 C 0.16421 0.88374 1.00426 0.0
C423 C 0.18539 0.90383 0.99282 0.0
C424 C 0.18304 0.91963 1.01409 0.0
C425 C 0.22399 0.97637 1.01274 0.0
C426 C 0.24542 -0.00368 1.00131 0.0
C427 C 0.22649 0.96044 0.99147 0.0
H428 H 0.25775 0.28042 0.3857 0.0
H429 H 0.133 0.2895 0.36411 0.0
H430 H 0.28789 0.24837 0.36856 0.0
H431 H 0.16375 0.2581 0.34684 0.0
H432 H 0.27904 0.26381 0.31652 0.0
H433 H 0.24498 0.29194 0.33365 0.0
H434 H 0.25627 0.16808 0.35519 0.0
H435 H 0.28968 0.13935 0.33793 0.0
C436 C 0.23569 0.27417 0.37739 0.0
C437 C 0.19179 0.28594 0.37638 0.0
C438 C 0.25337 0.25624 0.36751 0.0
C439 C 0.22799 0.25024 0.35634 0.0
C440 C 0.1845 0.26267 0.3553 0.0
C441 C 0.16676 0.28047 0.3652 0.0
C442 C 0.27275 0.24139 0.32478 0.0
C443 C 0.28554 0.19817 0.32575 0.0
C444 C 0.25364 0.25791 0.33466 0.0
C445 C 0.24747 0.23201 0.34578 0.0
C446 C 0.26093 0.18921 0.34678 0.0
C447 C 0.27991 0.17263 0.33689 0.0
H448 H 0.8737 0.25193 0.70305 0.0
H449 H 0.94261 0.14908 0.71439 0.0
H450 H 0.93657 0.28358 0.68595 0.0
H451 H 0.00546 0.18061 0.69732 0.0
H452 H 0.14842 0.29321 0.67192 0.0
H453 H 0.08672 0.2628 0.68925 0.0
H454 H 0.95183 0.24993 0.66739 0.0
H455 H 0.01418 0.28297 0.6503 0.0
C456 C 0.90239 0.23617 0.70191 0.0
C457 C 0.90398 0.19898 0.71024 0.0
C458 C 0.93827 0.2541 0.69207 0.0
C459 C 0.97631 0.23483 0.69027 0.0
C460 C 0.97756 0.19724 0.69857 0.0
C461 C 0.94169 0.17937 0.70841 0.0
C462 C 0.10554 0.28381 0.67083 0.0
C463 C 0.08585 0.28906 0.65964 0.0
C464 C 0.07004 0.26597 0.68074 0.0
C465 C 0.01411 0.25347 0.67971 0.0
C466 C -0.00532 0.25935 0.66853 0.0
C467 C 0.03019 0.2772 0.65863 0.0
H468 H 0.73374 0.11215 0.99832 0.0
H469 H 0.85796 0.06449 0.99095 0.0
H470 H 0.70131 0.04929 1.01547 0.0
H471 H 0.8248 0.00066 1.00796 0.0
H472 H 0.78873 0.93995 0.04691 0.0
H473 H 0.82245 0.00415 0.03001 0.0
H474 H 0.65172 0.94682 0.01936 0.0
H475 H 0.61804 0.88349 0.03646 0.0
C476 C 0.754 0.08809 1.00035 0.0
C477 C 0.79773 0.0925 0.99317 0.0
C478 C 0.73516 0.05179 1.01012 0.0
C479 C 0.76018 0.01966 1.01302 0.0
C480 C 0.80472 0.02493 1.00597 0.0
C481 C 0.82326 0.06094 0.99614 0.0
C482 C 0.7584 0.94179 0.0411 0.0
C483 C 0.7007 0.9076 0.04317 0.0
C484 C 0.77773 0.97798 0.03131 0.0
C485 C 0.73977 0.98081 0.02338 0.0
C486 C 0.68204 0.9462 0.0254 0.0
C487 C 0.66275 0.9097 0.03514 0.0
H488 H 0.70684 0.72595 0.31634 0.0
H489 H 0.69518 0.84924 0.33793 0.0
H490 H 0.74008 0.69688 0.33346 0.0
H491 H 0.72774 0.81956 0.35519 0.0
H492 H 0.72481 0.70564 0.38551 0.0
H493 H 0.69535 0.73839 0.36837 0.0
H494 H 0.82076 0.73015 0.34683 0.0
H495 H 0.85085 0.69808 0.3641 0.0
C496 C 0.71274 0.74792 0.32464 0.0
C497 C 0.6999 0.79109 0.32566 0.0
C498 C 0.73136 0.73086 0.33452 0.0
C499 C 0.73698 0.75614 0.34569 0.0
C500 C 0.72348 0.79889 0.34674 0.0
C501 C 0.705 0.81602 0.33685 0.0
C502 C 0.74729 0.71236 0.37725 0.0
C503 C 0.79137 0.70085 0.37628 0.0
C504 C 0.73 0.73069 0.36736 0.0
C505 C 0.75596 0.73734 0.35624 0.0
C506 C 0.79959 0.7251 0.35524 0.0
C507 C 0.81695 0.7069 0.36514 0.0
H508 H 0.04671 0.83907 0.71398 0.0
H509 H 0.11066 0.73195 0.70267 0.0
H510 H 0.98397 0.80935 0.6969 0.0
H511 H 0.04786 0.70207 0.68555 0.0
H512 H 0.97067 0.70464 0.64996 0.0
H513 H 0.03355 0.73649 0.66697 0.0
H514 H 0.90116 0.7284 0.68896 0.0
H515 H 0.83901 0.69918 0.67171 0.0
C516 C 0.04656 0.80825 0.708 0.0
C517 C 0.08277 0.78685 0.70985 0.0
C518 C 0.01075 0.79142 0.69815 0.0
C519 C 0.01058 0.75307 0.68986 0.0
C520 C 0.04727 0.73213 0.69167 0.0
C521 C 0.0831 0.74905 0.70151 0.0
C522 C 0.95538 0.71123 0.65831 0.0
C523 C 0.90029 0.70103 0.65938 0.0
C524 C 0.99116 0.72838 0.66815 0.0
C525 C 0.97257 0.73525 0.67935 0.0
C526 C 0.91721 0.72444 0.68044 0.0
C527 C 0.88145 0.70729 0.67058 0.0
H528 H 0.49745 0.85667 0.11512 0.0
H529 H 0.63644 0.00152 0.09905 0.0
H530 H 0.44491 0.90692 0.11621 0.0
H531 H 0.58451 0.0522 0.10026 0.0
H532 H 0.49037 0.13823 0.11557 0.0
H533 H 0.54298 0.08805 0.11671 0.0
H534 H 0.40583 0.94474 0.09965 0.0
H535 H 0.35384 -0.00467 0.09839 0.0
C536 C 0.51678 0.89951 0.11197 0.0
C537 C 0.57065 0.92563 0.10703 0.0
C538 C 0.48685 0.92805 0.11254 0.0
C539 C 0.51085 0.98334 0.10833 0.0
C540 C 0.56538 0.0098 0.10366 0.0
C541 C 0.5949 0.98093 0.10292 0.0
C542 C 0.47159 0.09584 0.11218 0.0
C543 C 0.41837 0.07023 0.10693 0.0
C544 C 0.50156 0.06734 0.11278 0.0
C545 C 0.47825 0.01261 0.10829 0.0
C546 C 0.4244 0.98669 0.10327 0.0
C547 C 0.39487 0.01553 0.10251 0.0
H548 H 0.34767 0.35009 0.4473 0.0
H549 H 0.3523 0.497 0.43265 0.0
H550 H 0.45019 0.40069 0.4485 0.0
H551 H 0.45472 0.54772 0.43371 0.0
H552 H 0.63489 0.63539 0.44738 0.0
H553 H 0.5324 0.5847 0.44864 0.0
H554 H 0.52779 0.43822 0.43353 0.0
H555 H 0.6302 0.48902 0.43243 0.0
C556 C 0.37091 0.39335 0.4444 0.0
C557 C 0.34286 0.41983 0.43978 0.0
C558 C 0.42929 0.42214 0.44503 0.0
C559 C 0.46031 0.47802 0.44115 0.0
C560 C 0.43184 0.50484 0.43684 0.0
C561 C 0.37351 0.47588 0.43614 0.0
C562 C 0.61165 0.59224 0.44443 0.0
C563 C 0.63967 0.56594 0.4397 0.0
C564 C 0.55328 0.5634 0.44508 0.0
C565 C 0.52223 0.50765 0.44114 0.0
C566 C 0.55069 0.481 0.43672 0.0
C567 C 0.60901 0.51001 0.436 0.0
H568 H -0.00344 0.63646 0.78248 0.0
H569 H 0.13285 0.62769 0.76581 0.0
H570 H 0.94326 0.53386 0.78393 0.0
H571 H 0.08003 0.52523 0.7673 0.0
H572 H 0.98659 0.34576 0.78227 0.0
H573 H 0.03999 0.44844 0.78348 0.0
H574 H 0.90056 0.45613 0.76798 0.0
H575 H 0.84773 0.3536 0.76668 0.0
C576 C 0.01508 0.61234 0.77924 0.0
C577 C 0.06827 0.63922 0.77397 0.0
C578 C 0.98471 0.55396 0.78002 0.0
C579 C 0.00761 0.52184 0.77571 0.0
C580 C 0.06167 0.5491 0.77078 0.0
C581 C 0.09166 0.60741 0.76986 0.0
C582 C 0.96751 0.36971 0.77923 0.0
C583 C 0.91358 0.34257 0.77433 0.0
C584 C -0.00208 0.42812 0.77988 0.0
C585 C 0.97431 0.45999 0.77581 0.0
C586 C 0.91949 0.43246 0.77127 0.0
C587 C 0.88946 0.37411 0.77047 0.0
H588 H 0.13428 0.49889 0.60345 0.0
H589 H -0.00687 0.35224 0.5885 0.0
H590 H 0.08236 0.54945 0.6023 0.0
H591 H 0.94101 0.4027 0.5872 0.0
H592 H 0.84813 0.49041 0.60306 0.0
H593 H 0.89992 0.43969 0.60203 0.0
H594 H 0.04232 0.5868 0.58731 0.0
H595 H 0.99034 0.63741 0.58849 0.0
C596 C 0.09215 0.47778 0.59987 0.0
C597 C 0.06712 0.42185 0.59618 0.0
C598 C 0.06265 0.50666 0.59912 0.0
C599 C 0.00761 0.47987 0.59469 0.0
C600 C 0.98314 0.42411 0.59077 0.0
C601 C 0.01285 0.3954 0.59145 0.0
C602 C 0.89045 0.51155 0.59958 0.0
C603 C 0.91582 0.56763 0.59597 0.0
C604 C 0.91988 0.48258 0.5989 0.0
C605 C 0.9752 0.50944 0.59463 0.0
C606 C -2e-05 0.56533 0.59076 0.0
C607 C 0.97034 0.59413 0.59138 0.0
H608 H 0.634 0.02584 0.91675 0.0
H609 H 0.63235 0.12955 0.94532 0.0
H610 H 0.53218 0.97798 0.91574 0.0
H611 H 0.53037 0.07894 0.94505 0.0
H612 H 0.34834 0.00962 0.93559 0.0
H613 H 0.45055 0.06364 0.9346 0.0
H614 H 0.45372 0.91174 0.92635 0.0
H615 H 0.35146 0.85912 0.92671 0.0
C616 C 0.61167 0.03832 0.92281 0.0
C617 C 0.64076 0.08094 0.93118 0.0
C618 C 0.55331 0.01041 0.92237 0.0
C619 C 0.52281 0.02407 0.9304 0.0
C620 C 0.55229 0.06759 0.93863 0.0
C621 C 0.61069 0.09608 0.93893 0.0
C622 C 0.37137 0.98835 0.93348 0.0
C623 C 0.34297 0.93076 0.93119 0.0
C624 C 0.42973 0.01895 0.933 0.0
C625 C 0.4606 0.99211 0.93042 0.0
C626 C 0.43149 0.93409 0.92813 0.0
C627 C 0.3731 0.90378 0.92843 0.0
H628 H 0.35159 0.35093 0.25365 0.0
H629 H 0.49815 0.35753 0.26897 0.0
H630 H 0.40162 0.45348 0.2522 0.0
H631 H 0.54838 0.45996 0.2676 0.0
H632 H 0.63526 0.64003 0.25369 0.0
H633 H 0.58522 0.53746 0.25232 0.0
H634 H 0.43802 0.53129 0.26738 0.0
H635 H 0.48827 0.63373 0.26868 0.0
C636 C 0.39468 0.37458 0.25662 0.0
C637 C 0.4212 0.34709 0.26151 0.0
C638 C 0.42315 0.43298 0.25584 0.0
C639 C 0.47876 0.46457 0.25982 0.0
C640 C 0.5057 0.43663 0.26438 0.0
C641 C 0.47703 0.37829 0.26524 0.0
C642 C 0.59206 0.61644 0.25659 0.0
C643 C 0.56543 0.64402 0.26138 0.0
C644 C 0.56359 0.55803 0.25587 0.0
C645 C 0.50786 0.52653 0.25979 0.0
C646 C 0.48079 0.55456 0.26421 0.0
C647 C 0.50947 0.6129 0.26503 0.0
H648 H 0.18874 0.12155 0.21453 0.0
H649 H 0.35425 0.14087 0.21439 0.0
H650 H 0.19041 0.12667 0.19289 0.0
H651 H 0.3556 0.14549 0.19264 0.0
H652 H 0.35641 0.21063 0.15441 0.0
H653 H 0.35774 0.20751 0.17617 0.0
H654 H 0.18818 0.06836 0.17605 0.0
H655 H 0.18656 0.07168 0.15441 0.0
C656 C 0.2255 0.12684 0.20989 0.0
C657 C 0.27127 0.13057 0.2162 0.0
C658 C 0.22631 0.12948 0.19747 0.0
C659 C 0.27302 0.13623 0.19105 0.0
C660 C 0.31916 0.14068 0.19735 0.0
C661 C 0.31822 0.13767 0.20979 0.0
C662 C 0.31942 0.17943 0.15904 0.0
C663 C 0.2713 0.14156 0.15268 0.0
C664 C 0.32033 0.17743 0.17149 0.0
C665 C 0.27299 0.13783 0.17782 0.0
C666 C 0.22506 0.09985 0.17144 0.0
C667 C 0.22428 0.10159 0.15902 0.0
H668 H 0.11303 0.18672 0.48818 0.0
H669 H 0.14118 0.35572 0.48779 0.0
H670 H 0.1168 0.18891 0.50984 0.0
H671 H 0.1444 0.3576 0.50954 0.0
H672 H 0.20546 0.35646 0.54802 0.0
H673 H 0.20341 0.35715 0.52627 0.0
H674 H 0.05947 0.19037 0.52647 0.0
H675 H 0.06176 0.18935 0.54812 0.0
C676 C 0.12001 0.22437 0.49271 0.0
C677 C 0.12661 0.27098 0.48625 0.0
C678 C 0.12184 0.22548 0.50513 0.0
C679 C 0.13061 0.27332 0.51141 0.0
C680 C 0.13797 0.32027 0.50496 0.0
C681 C 0.1358 0.31905 0.4925 0.0
C682 C 0.17339 0.31996 0.54342 0.0
C683 C 0.13392 0.27275 0.54981 0.0
C684 C 0.17203 0.3205 0.53096 0.0
C685 C 0.13144 0.27371 0.52464 0.0
C686 C 0.09177 0.22676 0.53106 0.0
C687 C 0.09291 0.22634 0.54349 0.0
H688 H 0.75297 0.08442 0.82088 0.0
H689 H 0.93379 0.17634 0.82203 0.0
H690 H 0.74997 0.08636 0.84262 0.0
H691 H 0.93059 0.17866 0.84375 0.0
H692 H 0.89597 0.22318 0.88138 0.0
H693 H 0.89677 0.22238 0.85963 0.0
H694 H 0.77957 0.04459 0.8598 0.0
H695 H 0.77909 0.04508 0.88156 0.0
C696 C 0.79204 0.10515 0.82576 0.0
C697 C 0.84363 0.1301 0.81974 0.0
C698 C 0.79028 0.10603 0.8382 0.0
C699 C 0.84004 0.13269 0.84485 0.0
C700 C 0.89159 0.15819 0.83883 0.0
C701 C 0.89339 0.15655 0.82641 0.0
C702 C 0.87021 0.18395 0.87678 0.0
C703 C 0.83759 0.13414 0.88319 0.0
C704 C 0.87092 0.18349 0.86434 0.0
C705 C 0.83833 0.13341 0.85804 0.0
C706 C 0.80484 0.08383 0.86443 0.0
C707 C 0.80481 0.0841 0.87688 0.0
H708 H 0.80079 0.92252 0.15435 0.0
H709 H 0.63147 0.7826 0.15433 0.0
H710 H 0.79915 0.92546 0.17599 0.0
H711 H 0.63013 0.78532 0.17608 0.0
H712 H 0.63284 0.85064 0.21435 0.0
H713 H 0.63162 0.84663 0.1926 0.0
H714 H 0.79751 0.86718 0.1928 0.0
H715 H 0.79905 0.87171 0.21444 0.0
C716 C 0.76319 0.89232 0.15896 0.0
C717 C 0.71632 0.85219 0.1526 0.0
C718 C 0.7624 0.89383 0.17138 0.0
C719 C 0.71461 0.85547 0.17775 0.0
C720 C 0.66743 0.8157 0.17141 0.0
C721 C 0.66834 0.81394 0.15896 0.0
C722 C 0.66905 0.85436 0.20974 0.0
C723 C 0.71614 0.86175 0.21613 0.0
C724 C 0.66819 0.8517 0.19729 0.0
C725 C 0.71456 0.8568 0.19098 0.0
C726 C 0.76143 0.86387 0.19739 0.0
C727 C 0.76216 0.86616 0.20981 0.0
H728 H 0.84322 0.63261 0.48785 0.0
H729 H 0.86623 0.79969 0.48773 0.0
H730 H 0.84062 0.63201 0.5096 0.0
H731 H 0.8631 0.79877 0.50939 0.0
H732 H 0.92067 0.80244 0.54766 0.0
H733 H 0.92215 0.8002 0.526 0.0
H734 H 0.78106 0.63168 0.52632 0.0
H735 H 0.77981 0.63362 0.54807 0.0
C736 C 0.84759 0.66913 0.49245 0.0
C737 C 0.85518 0.7163 0.48605 0.0
C738 C 0.84578 0.66863 0.5049 0.0
C739 C 0.85191 0.71544 0.51121 0.0
C740 C 0.85904 0.76236 0.5048 0.0
C741 C 0.86051 0.76273 0.49237 0.0
C742 C 0.88998 0.76482 0.54314 0.0
C743 C 0.84999 0.71827 0.5496 0.0
C744 C 0.89065 0.76368 0.53071 0.0
C745 C 0.85155 0.71587 0.52444 0.0
C746 C 0.81198 0.66899 0.5309 0.0
C747 C 0.81108 0.67024 0.54335 0.0
H748 H 0.11799 0.92132 0.88101 0.0
H749 H 0.14965 0.78271 0.88131 0.0
H750 H 0.12137 0.92294 0.85935 0.0
H751 H 0.15262 0.78419 0.85954 0.0
H752 H 0.21185 0.84773 0.82094 0.0
H753 H 0.21077 0.84509 0.8427 0.0
H754 H 0.06346 0.86236 0.84287 0.0
H755 H 0.06468 0.86545 0.82121 0.0
C756 C 0.12575 0.89121 0.87646 0.0
C757 C 0.13336 0.85175 0.88289 0.0
C758 C 0.12735 0.89195 0.86404 0.0
C759 C 0.13694 0.8535 0.85773 0.0
C760 C 0.14549 0.81458 0.86415 0.0
C761 C 0.14348 0.81355 0.87661 0.0
C762 C 0.17925 0.85098 0.82563 0.0
C763 C 0.13851 0.85708 0.81934 0.0
C764 C 0.17847 0.84913 0.83809 0.0
C765 C 0.13719 0.85379 0.8445 0.0
C766 C 0.09627 0.85945 0.83819 0.0
C767 C 0.09682 0.86093 0.82577 0.0
H768 H 0.60517 0.63071 0.11795 0.0
H769 H 0.56161 0.64314 0.08158 0.0
H770 H 0.54195 0.53 0.11749 0.0
H771 H 0.49673 0.54242 0.08125 0.0
H772 H 0.3818 0.36355 0.11807 0.0
H773 H 0.44478 0.46432 0.11758 0.0
H774 H 0.48858 0.45214 0.0812 0.0
H775 H 0.42396 0.3514 0.08158 0.0
C776 C 0.58209 0.61197 0.10985 0.0
C777 C 0.58846 0.64515 0.09982 0.0
C778 C 0.54535 0.55414 0.10961 0.0
C779 C 0.5135 0.52791 0.09939 0.0
C780 C 0.52083 0.56096 0.08925 0.0
C781 C 0.558 0.61883 0.08945 0.0
C782 C 0.40451 0.38236 0.10993 0.0
C783 C 0.39784 0.34924 0.09988 0.0
C784 C 0.4411 0.44022 0.10967 0.0
C785 C 0.4725 0.46653 0.0994 0.0
C786 C 0.46483 0.43355 0.08924 0.0
C787 C 0.4278 0.37565 0.08947 0.0
H788 H 0.02034 0.38445 0.41579 0.0
H789 H 0.068 0.42674 0.45258 0.0
H790 H 0.98123 0.44678 0.41562 0.0
H791 H 0.03219 0.49108 0.45227 0.0
H792 H 0.91548 0.56054 0.45259 0.0
H793 H 0.95147 0.49635 0.4523 0.0
H794 H 0.00181 0.54021 0.4156 0.0
H795 H 0.96252 0.60239 0.41575 0.0
C796 C 0.02263 0.40721 0.42382 0.0
C797 C 0.04675 0.40017 0.43423 0.0
C798 C 0.00069 0.44343 0.42371 0.0
C799 C 0.00325 0.47419 0.43395 0.0
C800 C 0.02798 0.46729 0.44429 0.0
C801 C 0.04887 0.43043 0.44447 0.0
C802 C 0.93451 0.55679 0.44446 0.0
C803 C 0.9364 0.58688 0.43421 0.0
C804 C 0.95551 0.52002 0.4443 0.0
C805 C 0.9801 0.51303 0.43394 0.0
C806 C 0.98245 0.54363 0.42369 0.0
C807 C 0.96042 0.57977 0.4238 0.0
H808 H 0.35945 0.9683 0.78455 0.0
H809 H 0.34662 0.91415 0.74802 0.0
H810 H 0.46004 0.00519 0.78402 0.0
H811 H 0.44719 0.94942 0.74761 0.0
H812 H 0.63842 0.06687 0.74806 0.0
H813 H 0.53777 0.03124 0.7477 0.0
H814 H 0.52494 0.97245 0.78386 0.0
H815 H 0.62559 0.00967 0.78435 0.0
C816 C 0.37808 0.96427 0.77639 0.0
C817 C 0.34482 0.9381 0.76634 0.0
C818 C 0.43582 0.985 0.77612 0.0
C819 C 0.46187 0.97966 0.76582 0.0
C820 C 0.42878 0.95471 0.75567 0.0
C821 C 0.37099 0.93435 0.75591 0.0
C822 C 0.61403 0.04588 0.7559 0.0
C823 C 0.64022 0.04142 0.76626 0.0
C824 C 0.5562 0.02532 0.75568 0.0
C825 C 0.5231 -0.00053 0.76579 0.0
C826 C 0.54916 0.99333 0.776 0.0
C827 C 0.60694 0.01425 0.77625 0.0
H828 H 0.63053 0.60562 0.6201 0.0
H829 H 0.63543 0.56479 0.58318 0.0
H830 H 0.52916 0.54357 0.62027 0.0
H831 H 0.53536 0.50074 0.58348 0.0
H832 H 0.34929 0.43048 0.58333 0.0
H833 H 0.44927 0.49514 0.58361 0.0
H834 H 0.45654 0.45017 0.6202 0.0
H835 H 0.35526 0.38753 0.62006 0.0
C836 C 0.60997 0.58327 0.61203 0.0
C837 C 0.641 0.5906 0.6016 0.0
C838 C 0.55184 0.5472 0.61215 0.0
C839 C 0.52354 0.51688 0.60188 0.0
C840 C 0.55501 0.52416 0.59149 0.0
C841 C 0.61274 0.56087 0.59132 0.0
C842 C 0.37221 0.4341 0.59143 0.0
C843 C 0.34429 0.40354 0.60165 0.0
C844 C 0.42987 0.47115 0.59159 0.0
C845 C 0.46162 0.47794 0.6019 0.0
C846 C 0.43363 0.44692 0.61213 0.0
C847 C 0.37557 0.41052 0.61203 0.0
H848 H 0.02367 0.63141 0.95322 0.0
H849 H 0.08414 0.63991 0.9174 0.0
H850 H 0.98761 0.5304 0.95348 0.0
H851 H 0.05136 0.54034 0.91785 0.0
H852 H 0.93254 0.35451 0.9164 0.0
H853 H 0.97029 0.45472 0.91683 0.0
H854 H 0.00884 0.45751 0.95422 0.0
H855 H 0.96783 0.35575 0.95389 0.0
C856 C 0.02955 0.61173 0.94544 0.0
C857 C 0.05601 0.6435 0.93523 0.0
C858 C 0.00937 0.55387 0.94561 0.0
C859 C 0.01609 0.5267 0.93565 0.0
C860 C 0.04385 0.55911 0.92558 0.0
C861 C 0.06296 0.61649 0.92533 0.0
C862 C 0.94948 0.37638 0.92471 0.0
C863 C 0.94732 0.34697 0.9351 0.0
C864 C 0.97152 0.43424 0.92495 0.0
C865 C -0.00688 0.46479 0.93554 0.0
C866 C 0.99188 0.43548 0.94593 0.0
C867 C 0.96888 0.37716 0.94573 0.0
H868 H 0.60512 0.97324 0.25073 0.0
H869 H 0.56217 0.91844 0.28718 0.0
H870 H 0.54208 0.01104 0.25117 0.0
H871 H 0.49751 0.95452 0.28749 0.0
H872 H 0.42483 0.07258 0.28721 0.0
H873 H 0.48954 0.03655 0.28751 0.0
H874 H 0.44513 0.98042 0.25116 0.0
H875 H 0.38205 0.01816 0.25074 0.0
C876 C 0.58222 0.96923 0.25885 0.0
C877 C 0.58873 0.94268 0.26891 0.0
C878 C 0.54558 0.99049 0.25907 0.0
C879 C 0.51399 0.98532 0.26932 0.0
C880 C 0.52142 0.9598 0.27947 0.0
C881 C 0.55848 0.93894 0.27929 0.0
C882 C 0.42857 0.05218 0.2793 0.0
C883 C 0.39835 0.04852 0.26893 0.0
C884 C 0.46565 0.03134 0.27948 0.0
C885 C 0.47314 0.00594 0.26932 0.0
C886 C 0.44159 0.00087 0.25907 0.0
C887 C 0.40492 0.0221 0.25886 0.0
H888 H 0.13805 0.06927 0.08226 0.0
H889 H 0.1274 0.10863 0.11903 0.0
H890 H 0.03844 0.0025 0.08213 0.0
H891 H 0.02685 0.04398 0.11875 0.0
H892 H 0.85972 0.88349 0.11884 0.0
H893 H 0.96033 0.94791 0.11864 0.0
H894 H 0.94917 0.99158 0.08216 0.0
H895 H 0.84949 0.92506 0.08221 0.0
C896 C 0.1143 0.06438 0.09027 0.0
C897 C 0.14092 0.09414 0.10067 0.0
C898 C 0.05687 0.02615 0.09019 0.0
C899 C 0.02426 0.01732 0.10046 0.0
C900 C 0.05066 0.04854 0.11075 0.0
C901 C 0.10832 0.0862 0.11088 0.0
C902 C 0.87892 0.90634 0.11074 0.0
C903 C 0.84642 0.8991 0.10054 0.0
C904 C 0.93661 0.94386 0.11065 0.0
C905 C 0.96313 0.97566 0.10043 0.0
C906 C 0.93063 0.96748 0.09017 0.0
C907 C 0.87317 0.92938 0.0902 0.0
H908 H 0.01028 0.12608 0.45233 0.0
H909 H 0.06318 0.13825 0.41572 0.0
H910 H 0.97482 0.02554 0.45195 0.0
H911 H 0.03015 0.03837 0.41549 0.0
H912 H 0.91832 0.84833 0.41569 0.0
H913 H 0.95112 0.94818 0.41551 0.0
H914 H 0.00726 0.96082 0.4519 0.0
H915 H 0.97205 0.86033 0.45224 0.0
C916 C 0.0142 0.10728 0.44419 0.0
C917 C 0.03954 0.14026 0.43406 0.0
C918 C -0.00556 0.04967 0.44401 0.0
C919 C 0.00017 0.0237 0.43374 0.0
C920 C 0.02438 0.0566 0.42352 0.0
C921 C 0.04349 0.11407 0.42366 0.0
C922 C 0.93814 0.87246 0.42362 0.0
C923 C 0.94242 0.84625 0.43399 0.0
C924 C 0.95711 0.92991 0.42352 0.0
C925 C 0.98149 0.96275 0.43373 0.0
C926 C 0.9875 0.93675 0.44396 0.0
C927 C 0.96789 0.87916 0.44412 0.0
H928 H 0.92352 0.0671 0.74922 0.0
H929 H 0.88189 0.01417 0.78579 0.0
H930 H 0.98958 0.03315 0.74903 0.0
H931 H 0.94594 0.97748 0.78545 0.0
H932 H 0.06475 0.91899 0.74894 0.0
H933 H -0.00087 0.95349 0.74889 0.0
H934 H 0.04203 0.00656 0.78546 0.0
H935 H 0.10562 0.96933 0.78566 0.0
C936 C 0.92781 0.04744 0.75718 0.0
C937 C 0.89755 0.04369 0.76753 0.0
C938 C 0.96563 0.02764 0.75706 0.0
C939 C 0.9736 0.00277 0.76725 0.0
C940 C 0.94202 -0.00247 0.77751 0.0
C941 C 0.90474 0.01805 0.77767 0.0
C942 C 0.06042 0.93823 0.75695 0.0
C943 C 0.09028 0.94103 0.76732 0.0
C944 C 0.02286 0.95835 0.75692 0.0
C945 C 0.01475 0.98258 0.7672 0.0
C946 C 0.04606 0.98701 0.77745 0.0
C947 C 0.08308 0.96619 0.77753 0.0
H948 H 0.92137 0.85061 0.6201 0.0
H949 H 0.87996 0.86354 0.58358 0.0
H950 H 0.98869 0.95035 0.62034 0.0
H951 H 0.94552 0.96392 0.58397 0.0
H952 H 0.10759 0.12894 0.58362 0.0
H953 H 0.04261 0.02842 0.58394 0.0
H954 H 0.00012 0.04071 0.62044 0.0
H955 H 0.06687 0.14058 0.62026 0.0
C956 C 0.92583 0.87493 0.61219 0.0
C957 C 0.89532 0.849 0.60181 0.0
C958 C 0.96446 0.93232 0.61233 0.0
C959 C 0.97308 0.96539 0.60214 0.0
C960 C 0.94109 0.93967 0.59189 0.0
C961 C 0.90296 0.88214 0.59171 0.0
C962 C 0.08491 0.11003 0.59176 0.0
C963 C 0.09249 0.14287 0.60191 0.0
C964 C 0.04709 0.05241 0.59191 0.0
C965 C 0.0154 0.02631 0.60217 0.0
C966 C 0.0241 0.05905 0.61241 0.0
C967 C 0.06241 0.11652 0.6123 0.0
H968 H 0.96382 0.09928 0.95173 0.0
H969 H 0.90613 0.05462 0.91551 0.0
H970 H -0.00298 0.03224 0.95154 0.0
H971 H 0.93604 0.98542 0.91551 0.0
H972 H 0.04873 0.90943 0.91461 0.0
H973 H 0.01332 0.97404 0.91475 0.0
H974 H 0.96998 0.93732 0.95195 0.0
H975 H 0.00878 0.87489 0.95194 0.0
C976 C 0.95813 0.07501 0.94374 0.0
C977 C 0.93295 0.0827 0.9336 0.0
C978 C 0.97654 0.036 0.94366 0.0
C979 C 0.96918 0.00298 0.93352 0.0
C980 C 0.94362 0.0107 0.92341 0.0
C981 C 0.92627 0.0504 0.92341 0.0
C982 C 0.0311 0.91459 0.9228 0.0
C983 C 0.03172 0.88702 0.93327 0.0
C984 C 0.01048 0.95167 0.92288 0.0
C985 C 0.98888 0.96143 0.93338 0.0
C986 C 0.98745 0.93203 0.94376 0.0
C987 C 0.00906 0.89563 0.94373 0.0
H988 H 0.12648 0.01525 0.25008 0.0
H989 H 0.13851 0.06873 0.28664 0.0
H990 H 0.02596 0.9794 0.25046 0.0
H991 H 0.03847 0.03507 0.28688 0.0
H992 H 0.84826 0.92162 0.28661 0.0
H993 H 0.94828 0.95519 0.28685 0.0
H994 H 0.96101 0.0117 0.25048 0.0
H995 H 0.86051 0.97594 0.2501 0.0
C996 C 0.10767 0.01924 0.25821 0.0
C997 C 0.14063 0.04486 0.26833 0.0
C998 C 0.05003 -0.00078 0.2584 0.0
C999 C 0.02395 0.00488 0.26865 0.0
C1000 C 0.05682 0.02939 0.27885 0.0
C1001 C 0.11436 0.04885 0.27871 0.0
C1002 C 0.87245 0.94166 0.2787 0.0
C1003 C 0.84625 0.94592 0.26832 0.0
C1004 C 0.92999 0.96108 0.27884 0.0
C1005 C 0.96291 0.9858 0.26865 0.0
C1006 C 0.9369 0.99171 0.25841 0.0
C1007 C 0.87927 0.97174 0.25822 0.0
loop_
_geom_bond_atom_site_label_1
_geom_bond_atom_site_label_2
_geom_bond_distance
_geom_bond_site_symmetry_2
_ccdc_geom_bond_type
Co0 O3 1.970 . S
Co0 N17 1.989 . S
Co0 O25 1.967 . S
Co0 O32 1.920 . S
Co1 O4 1.966 . S
Co1 N10 2.022 . S
Co1 N18 1.993 . S
Co1 O26 1.941 . S
C2 O3 1.258 . S
C2 O4 1.263 . S
O3 Co0 1.970 . S
O3 C2 1.258 . S
O4 Co1 1.966 . S
O4 C2 1.263 . S
C5 O6 1.235 . S
C5 O32 1.289 . S
O6 C5 1.235 . S
C7 C9 1.400 . S
C7 N10 1.351 . S
C7 C12 1.501 . S
C8 C9 1.387 . S
C8 N11 1.341 . S
C9 C7 1.400 . S
C9 C8 1.387 . S
N10 Co1 2.022 . S
N10 C7 1.351 . S
N10 N11 1.365 . S
N11 C8 1.341 . S
N11 N10 1.365 . S
N11 H31 0.862 . S
C12 C7 1.501 . S
C12 H13 0.961 . S
C12 H14 0.961 . S
C12 H15 0.960 . S
H13 C12 0.961 . S
H14 C12 0.961 . S
H15 C12 0.960 . S
C16 N17 1.342 . S
C16 C20 1.401 . S
C16 C21 1.499 . S
N17 Co0 1.989 . S
N17 C16 1.342 . S
N17 N18 1.388 . S
N18 Co1 1.993 . S
N18 N17 1.388 . S
N18 C19 1.346 . S
C19 N18 1.346 . S
C19 C20 1.396 . S
C19 C29 1.510 . S
C20 C16 1.401 . S
C20 C19 1.396 . S
C21 C16 1.499 . S
C21 H22 0.959 . S
C21 H23 0.960 . S
C21 H24 0.961 . S
H22 C21 0.959 . S
H23 C21 0.960 . S
H24 C21 0.961 . S
O25 Co0 1.967 . S
O25 C33 1.258 . S
O26 Co1 1.941 . S
O26 C33 1.266 . S
H27 C29 0.959 . S
H28 C29 0.961 . S
C29 C19 1.510 . S
C29 H27 0.959 . S
C29 H28 0.961 . S
C29 H30 0.960 . S
H30 C29 0.960 . S
H31 N11 0.862 . S
O32 Co0 1.920 . S
O32 C5 1.289 . S
C33 O25 1.258 . S
C33 O26 1.266 . S
Co34 O37 1.970 . S
Co34 N51 1.989 . S
Co34 O59 1.967 . S
Co34 O66 1.920 . S
Co35 O38 1.966 . S
Co35 N44 2.022 . S
Co35 N52 1.993 . S
Co35 O60 1.941 . S
C36 O37 1.258 . S
C36 O38 1.263 . S
O37 Co34 1.970 . S
O37 C36 1.258 . S
O38 Co35 1.966 . S
O38 C36 1.263 . S
C39 O40 1.235 . S
C39 O66 1.289 . S
O40 C39 1.235 . S
C41 C43 1.400 . S
C41 N44 1.351 . S
C41 C46 1.501 . S
C42 C43 1.387 . S
C42 N45 1.341 . S
C43 C41 1.400 . S
C43 C42 1.387 . S
N44 Co35 2.022 . S
N44 C41 1.351 . S
N44 N45 1.365 . S
N45 C42 1.341 . S
N45 N44 1.365 . S
N45 H65 0.862 . S
C46 C41 1.501 . S
C46 H47 0.961 . S
C46 H48 0.961 . S
C46 H49 0.960 . S
H47 C46 0.961 . S
H48 C46 0.961 . S
H49 C46 0.960 . S
C50 N51 1.342 . S
C50 C54 1.401 . S
C50 C55 1.499 . S
N51 Co34 1.989 . S
N51 C50 1.342 . S
N51 N52 1.388 . S
N52 Co35 1.993 . S
N52 N51 1.388 . S
N52 C53 1.346 . S
C53 N52 1.346 . S
C53 C54 1.396 . S
C53 C63 1.510 . S
C54 C50 1.401 . S
C54 C53 1.396 . S
C55 C50 1.499 . S
C55 H56 0.959 . S
C55 H57 0.960 . S
C55 H58 0.961 . S
H56 C55 0.959 . S
H57 C55 0.960 . S
H58 C55 0.961 . S
O59 Co34 1.967 . S
O59 C67 1.258 . S
O60 Co35 1.941 . S
O60 C67 1.266 . S
H61 C63 0.959 . S
H62 C63 0.961 . S
C63 C53 1.510 . S
C63 H61 0.959 . S
C63 H62 0.961 . S
C63 H64 0.960 . S
H64 C63 0.960 . S
H65 N45 0.862 . S
O66 Co34 1.920 . S
O66 C39 1.289 . S
C67 O59 1.258 . S
C67 O60 1.266 . S
Co68 O71 1.970 . S
Co68 N85 1.989 . S
Co68 O93 1.967 . S
Co68 O100 1.920 . S
Co69 O72 1.966 . S
Co69 N78 2.022 . S
Co69 N86 1.993 . S
Co69 O94 1.941 . S
C70 O71 1.258 . S
C70 O72 1.263 . S
O71 Co68 1.970 . S
O71 C70 1.258 . S
O72 Co69 1.966 . S
O72 C70 1.263 . S
C73 O74 1.235 . S
C73 O100 1.289 . S
O74 C73 1.235 . S
C75 C77 1.400 . S
C75 N78 1.351 . S
C75 C80 1.501 . S
C76 C77 1.387 . S
C76 N79 1.341 . S
C77 C75 1.400 . S
C77 C76 1.387 . S
N78 Co69 2.022 . S
N78 C75 1.351 . S
N78 N79 1.365 . S
N79 C76 1.341 . S
N79 N78 1.365 . S
N79 H99 0.862 . S
C80 C75 1.501 . S
C80 H81 0.961 . S
C80 H82 0.961 . S
C80 H83 0.960 . S
H81 C80 0.961 . S
H82 C80 0.961 . S
H83 C80 0.960 . S
C84 N85 1.342 . S
C84 C88 1.401 . S
C84 C89 1.499 . S
N85 Co68 1.989 . S
N85 C84 1.342 . S
N85 N86 1.388 . S
N86 Co69 1.993 . S
N86 N85 1.388 . S
N86 C87 1.346 . S
C87 N86 1.346 . S
C87 C88 1.396 . S
C87 C97 1.510 . S
C88 C84 1.401 . S
C88 C87 1.396 . S
C89 C84 1.499 . S
C89 H90 0.959 . S
C89 H91 0.960 . S
C89 H92 0.961 . S
H90 C89 0.959 . S
H91 C89 0.960 . S
H92 C89 0.961 . S
O93 Co68 1.967 . S
O93 C101 1.258 . S
O94 Co69 1.941 . S
O94 C101 1.266 . S
H95 C97 0.959 . S
H96 C97 0.961 . S
C97 C87 1.510 . S
C97 H95 0.959 . S
C97 H96 0.961 . S
C97 H98 0.960 . S
H98 C97 0.960 . S
H99 N79 0.862 . S
O100 Co68 1.920 . S
O100 C73 1.289 . S
C101 O93 1.258 . S
C101 O94 1.266 . S
Co102 O105 1.970 . S
Co102 N119 1.989 . S
Co102 O127 1.967 . S
Co102 O134 1.920 . S
Co103 O106 1.966 . S
Co103 N112 2.022 . S
Co103 N120 1.993 . S
Co103 O128 1.941 . S
C104 O105 1.258 . S
C104 O106 1.263 . S
O105 Co102 1.970 . S
O105 C104 1.258 . S
O106 Co103 1.966 . S
O106 C104 1.263 . S
C107 O108 1.235 . S
C107 O134 1.289 . S
O108 C107 1.235 . S
C109 C111 1.400 . S
C109 N112 1.351 . S
C109 C114 1.501 . S
C110 C111 1.387 . S
C110 N113 1.341 . S
C111 C109 1.400 . S
C111 C110 1.387 . S
N112 Co103 2.022 . S
N112 C109 1.351 . S
N112 N113 1.365 . S
N113 C110 1.341 . S
N113 N112 1.365 . S
N113 H133 0.862 . S
C114 C109 1.501 . S
C114 H115 0.961 . S
C114 H116 0.961 . S
C114 H117 0.960 . S
H115 C114 0.961 . S
H116 C114 0.961 . S
H117 C114 0.960 . S
C118 N119 1.342 . S
C118 C122 1.401 . S
C118 C123 1.499 . S
N119 Co102 1.989 . S
N119 C118 1.342 . S
N119 N120 1.388 . S
N120 Co103 1.993 . S
N120 N119 1.388 . S
N120 C121 1.346 . S
C121 N120 1.346 . S
C121 C122 1.396 . S
C121 C131 1.510 . S
C122 C118 1.401 . S
C122 C121 1.396 . S
C123 C118 1.499 . S
C123 H124 0.959 . S
C123 H125 0.960 . S
C123 H126 0.961 . S
H124 C123 0.959 . S
H125 C123 0.960 . S
H126 C123 0.961 . S
O127 Co102 1.967 . S
O127 C135 1.258 . S
O128 Co103 1.941 . S
O128 C135 1.266 . S
H129 C131 0.959 . S
H130 C131 0.961 . S
C131 C121 1.510 . S
C131 H129 0.959 . S
C131 H130 0.961 . S
C131 H132 0.960 . S
H132 C131 0.960 . S
H133 N113 0.862 . S
O134 Co102 1.920 . S
O134 C107 1.289 . S
C135 O127 1.258 . S
C135 O128 1.266 . S
Co136 O139 1.970 . S
Co136 N153 1.989 . S
Co136 O161 1.967 . S
Co136 O168 1.920 . S
Co137 O140 1.966 . S
Co137 N146 2.022 . S
Co137 N154 1.993 . S
Co137 O162 1.941 . S
C138 O139 1.258 . S
C138 O140 1.263 . S
O139 Co136 1.970 . S
O139 C138 1.258 . S
O140 Co137 1.966 . S
O140 C138 1.263 . S
C141 O142 1.235 . S
C141 O168 1.289 . S
O142 C141 1.235 . S
C143 C145 1.400 . S
C143 N146 1.351 . S
C143 C148 1.501 . S
C144 C145 1.387 . S
C144 N147 1.341 . S
C145 C143 1.400 . S
C145 C144 1.387 . S
N146 Co137 2.022 . S
N146 C143 1.351 . S
N146 N147 1.365 . S
N147 C144 1.341 . S
N147 N146 1.365 . S
N147 H167 0.862 . S
C148 C143 1.501 . S
C148 H149 0.961 . S
C148 H150 0.961 . S
C148 H151 0.960 . S
H149 C148 0.961 . S
H150 C148 0.961 . S
H151 C148 0.960 . S
C152 N153 1.342 . S
C152 C156 1.401 . S
C152 C157 1.499 . S
N153 Co136 1.989 . S
N153 C152 1.342 . S
N153 N154 1.388 . S
N154 Co137 1.993 . S
N154 N153 1.388 . S
N154 C155 1.346 . S
C155 N154 1.346 . S
C155 C156 1.396 . S
C155 C165 1.510 . S
C156 C152 1.401 . S
C156 C155 1.396 . S
C157 C152 1.499 . S
C157 H158 0.959 . S
C157 H159 0.960 . S
C157 H160 0.961 . S
H158 C157 0.959 . S
H159 C157 0.960 . S
H160 C157 0.961 . S
O161 Co136 1.967 . S
O161 C169 1.258 . S
O162 Co137 1.941 . S
O162 C169 1.266 . S
H163 C165 0.959 . S
H164 C165 0.961 . S
C165 C155 1.510 . S
C165 H163 0.959 . S
C165 H164 0.961 . S
C165 H166 0.960 . S
H166 C165 0.960 . S
H167 N147 0.862 . S
O168 Co136 1.920 . S
O168 C141 1.289 . S
C169 O161 1.258 . S
C169 O162 1.266 . S
Co170 O173 1.970 . S
Co170 N187 1.989 . S
Co170 O195 1.967 . S
Co170 O202 1.920 . S
Co171 O174 1.966 . S
Co171 N180 2.022 . S
Co171 N188 1.993 . S
Co171 O196 1.941 . S
C172 O173 1.258 . S
C172 O174 1.263 . S
O173 Co170 1.970 . S
O173 C172 1.258 . S
O174 Co171 1.966 . S
O174 C172 1.263 . S
C175 O176 1.235 . S
C175 O202 1.289 . S
O176 C175 1.235 . S
C177 C179 1.400 . S
C177 N180 1.351 . S
C177 C182 1.501 . S
C178 C179 1.387 . S
C178 N181 1.341 . S
C179 C177 1.400 . S
C179 C178 1.387 . S
N180 Co171 2.022 . S
N180 C177 1.351 . S
N180 N181 1.365 . S
N181 C178 1.341 . S
N181 N180 1.365 . S
N181 H201 0.862 . S
C182 C177 1.501 . S
C182 H183 0.961 . S
C182 H184 0.961 . S
C182 H185 0.960 . S
H183 C182 0.961 . S
H184 C182 0.961 . S
H185 C182 0.960 . S
C186 N187 1.342 . S
C186 C190 1.401 . S
C186 C191 1.499 . S
N187 Co170 1.989 . S
N187 C186 1.342 . S
N187 N188 1.388 . S
N188 Co171 1.993 . S
N188 N187 1.388 . S
N188 C189 1.346 . S
C189 N188 1.346 . S
C189 C190 1.396 . S
C189 C199 1.510 . S
C190 C186 1.401 . S
C190 C189 1.396 . S
C191 C186 1.499 . S
C191 H192 0.959 . S
C191 H193 0.960 . S
C191 H194 0.961 . S
H192 C191 0.959 . S
H193 C191 0.960 . S
H194 C191 0.961 . S
O195 Co170 1.967 . S
O195 C203 1.258 . S
O196 Co171 1.941 . S
O196 C203 1.266 . S
H197 C199 0.959 . S
H198 C199 0.961 . S
C199 C189 1.510 . S
C199 H197 0.959 . S
C199 H198 0.961 . S
C199 H200 0.960 . S
H200 C199 0.960 . S
H201 N181 0.862 . S
O202 Co170 1.920 . S
O202 C175 1.289 . S
C203 O195 1.258 . S
C203 O196 1.266 . S
Co204 O207 1.970 . S
Co204 N221 1.989 . S
Co204 O229 1.967 . S
Co204 O236 1.920 . S
Co205 O208 1.966 . S
Co205 N214 2.022 . S
Co205 N222 1.993 . S
Co205 O230 1.941 . S
C206 O207 1.258 . S
C206 O208 1.263 . S
O207 Co204 1.970 . S
O207 C206 1.258 . S
O208 Co205 1.966 . S
O208 C206 1.263 . S
C209 O210 1.235 . S
C209 O236 1.289 . S
O210 C209 1.235 . S
C211 C213 1.400 . S
C211 N214 1.351 . S
C211 C216 1.501 . S
C212 C213 1.387 . S
C212 N215 1.341 . S
C213 C211 1.400 . S
C213 C212 1.387 . S
N214 Co205 2.022 . S
N214 C211 1.351 . S
N214 N215 1.365 . S
N215 C212 1.341 . S
N215 N214 1.365 . S
N215 H235 0.862 . S
C216 C211 1.501 . S
C216 H217 0.961 . S
C216 H218 0.961 . S
C216 H219 0.960 . S
H217 C216 0.961 . S
H218 C216 0.961 . S
H219 C216 0.960 . S
C220 N221 1.342 . S
C220 C224 1.401 . S
C220 C225 1.499 . S
N221 Co204 1.989 . S
N221 C220 1.342 . S
N221 N222 1.388 . S
N222 Co205 1.993 . S
N222 N221 1.388 . S
N222 C223 1.346 . S
C223 N222 1.346 . S
C223 C224 1.396 . S
C223 C233 1.510 . S
C224 C220 1.401 . S
C224 C223 1.396 . S
C225 C220 1.499 . S
C225 H226 0.959 . S
C225 H227 0.960 . S
C225 H228 0.961 . S
H226 C225 0.959 . S
H227 C225 0.960 . S
H228 C225 0.961 . S
O229 Co204 1.967 . S
O229 C237 1.258 . S
O230 Co205 1.941 . S
O230 C237 1.266 . S
H231 C233 0.959 . S
H232 C233 0.961 . S
C233 C223 1.510 . S
C233 H231 0.959 . S
C233 H232 0.961 . S
C233 H234 0.960 . S
H234 C233 0.960 . S
H235 N215 0.862 . S
O236 Co204 1.920 . S
O236 C209 1.289 . S
C237 O229 1.258 . S
C237 O230 1.266 . S
Co238 O241 1.970 . S
Co238 N255 1.989 . S
Co238 O263 1.967 . S
Co238 O270 1.920 . S
Co239 O242 1.966 . S
Co239 N248 2.022 . S
Co239 N256 1.993 . S
Co239 O264 1.941 . S
C240 O241 1.258 . S
C240 O242 1.263 . S
O241 Co238 1.970 . S
O241 C240 1.258 . S
O242 Co239 1.966 . S
O242 C240 1.263 . S
C243 O244 1.235 . S
C243 O270 1.289 . S
O244 C243 1.235 . S
C245 C247 1.400 . S
C245 N248 1.351 . S
C245 C250 1.501 . S
C246 C247 1.387 . S
C246 N249 1.341 . S
C247 C245 1.400 . S
C247 C246 1.387 . S
N248 Co239 2.022 . S
N248 C245 1.351 . S
N248 N249 1.365 . S
N249 C246 1.341 . S
N249 N248 1.365 . S
N249 H269 0.862 . S
C250 C245 1.501 . S
C250 H251 0.961 . S
C250 H252 0.961 . S
C250 H253 0.960 . S
H251 C250 0.961 . S
H252 C250 0.961 . S
H253 C250 0.960 . S
C254 N255 1.342 . S
C254 C258 1.401 . S
C254 C259 1.499 . S
N255 Co238 1.989 . S
N255 C254 1.342 . S
N255 N256 1.388 . S
N256 Co239 1.993 . S
N256 N255 1.388 . S
N256 C257 1.346 . S
C257 N256 1.346 . S
C257 C258 1.396 . S
C257 C267 1.510 . S
C258 C254 1.401 . S
C258 C257 1.396 . S
C259 C254 1.499 . S
C259 H260 0.959 . S
C259 H261 0.960 . S
C259 H262 0.961 . S
H260 C259 0.959 . S
H261 C259 0.960 . S
H262 C259 0.961 . S
O263 Co238 1.967 . S
O263 C271 1.258 . S
O264 Co239 1.941 . S
O264 C271 1.266 . S
H265 C267 0.959 . S
H266 C267 0.961 . S
C267 C257 1.510 . S
C267 H265 0.959 . S
C267 H266 0.961 . S
C267 H268 0.960 . S
H268 C267 0.960 . S
H269 N249 0.862 . S
O270 Co238 1.920 . S
O270 C243 1.289 . S
C271 O263 1.258 . S
C271 O264 1.266 . S
Co272 O275 1.970 . S
Co272 N289 1.989 . S
Co272 O297 1.967 . S
Co272 O304 1.920 . S
Co273 O276 1.966 . S
Co273 N282 2.022 . S
Co273 N290 1.993 . S
Co273 O298 1.941 . S
C274 O275 1.258 . S
C274 O276 1.263 . S
O275 Co272 1.970 . S
O275 C274 1.258 . S
O276 Co273 1.966 . S
O276 C274 1.263 . S
C277 O278 1.235 . S
C277 O304 1.289 . S
O278 C277 1.235 . S
C279 C281 1.400 . S
C279 N282 1.351 . S
C279 C284 1.501 . S
C280 C281 1.387 . S
C280 N283 1.341 . S
C281 C279 1.400 . S
C281 C280 1.387 . S
N282 Co273 2.022 . S
N282 C279 1.351 . S
N282 N283 1.365 . S
N283 C280 1.341 . S
N283 N282 1.365 . S
N283 H303 0.862 . S
C284 C279 1.501 . S
C284 H285 0.961 . S
C284 H286 0.961 . S
C284 H287 0.960 . S
H285 C284 0.961 . S
H286 C284 0.961 . S
H287 C284 0.960 . S
C288 N289 1.342 . S
C288 C292 1.401 . S
C288 C293 1.499 . S
N289 Co272 1.989 . S
N289 C288 1.342 . S
N289 N290 1.388 . S
N290 Co273 1.993 . S
N290 N289 1.388 . S
N290 C291 1.346 . S
C291 N290 1.346 . S
C291 C292 1.396 . S
C291 C301 1.510 . S
C292 C288 1.401 . S
C292 C291 1.396 . S
C293 C288 1.499 . S
C293 H294 0.959 . S
C293 H295 0.960 . S
C293 H296 0.961 . S
H294 C293 0.959 . S
H295 C293 0.960 . S
H296 C293 0.961 . S
O297 Co272 1.967 . S
O297 C305 1.258 . S
O298 Co273 1.941 . S
O298 C305 1.266 . S
H299 C301 0.959 . S
H300 C301 0.961 . S
C301 C291 1.510 . S
C301 H299 0.959 . S
C301 H300 0.961 . S
C301 H302 0.960 . S
H302 C301 0.960 . S
H303 N283 0.862 . S
O304 Co272 1.920 . S
O304 C277 1.289 . S
C305 O297 1.258 . S
C305 O298 1.266 . S
Co306 O309 1.970 . S
Co306 N323 1.989 . S
Co306 O331 1.967 . S
Co306 O338 1.920 . S
Co307 O310 1.966 . S
Co307 N316 2.022 . S
Co307 N324 1.993 . S
Co307 O332 1.941 . S
C308 O309 1.258 . S
C308 O310 1.263 . S
O309 Co306 1.970 . S
O309 C308 1.258 . S
O310 Co307 1.966 . S
O310 C308 1.263 . S
C311 O312 1.235 . S
C311 O338 1.289 . S
O312 C311 1.235 . S
C313 C315 1.400 . S
C313 N316 1.351 . S
C313 C318 1.501 . S
C314 C315 1.387 . S
C314 N317 1.341 . S
C315 C313 1.400 . S
C315 C314 1.387 . S
N316 Co307 2.022 . S
N316 C313 1.351 . S
N316 N317 1.365 . S
N317 C314 1.341 . S
N317 N316 1.365 . S
N317 H337 0.862 . S
C318 C313 1.501 . S
C318 H319 0.961 . S
C318 H320 0.961 . S
C318 H321 0.960 . S
H319 C318 0.961 . S
H320 C318 0.961 . S
H321 C318 0.960 . S
C322 N323 1.342 . S
C322 C326 1.401 . S
C322 C327 1.499 . S
N323 Co306 1.989 . S
N323 C322 1.342 . S
N323 N324 1.388 . S
N324 Co307 1.993 . S
N324 N323 1.388 . S
N324 C325 1.346 . S
C325 N324 1.346 . S
C325 C326 1.396 . S
C325 C335 1.510 . S
C326 C322 1.401 . S
C326 C325 1.396 . S
C327 C322 1.499 . S
C327 H328 0.959 . S
C327 H329 0.960 . S
C327 H330 0.961 . S
H328 C327 0.959 . S
H329 C327 0.960 . S
H330 C327 0.961 . S
O331 Co306 1.967 . S
O331 C339 1.258 . S
O332 Co307 1.941 . S
O332 C339 1.266 . S
H333 C335 0.959 . S
H334 C335 0.961 . S
C335 C325 1.510 . S
C335 H333 0.959 . S
C335 H334 0.961 . S
C335 H336 0.960 . S
H336 C335 0.960 . S
H337 N317 0.862 . S
O338 Co306 1.920 . S
O338 C311 1.289 . S
C339 O331 1.258 . S
C339 O332 1.266 . S
Co340 O343 1.970 . S
Co340 N357 1.989 . S
Co340 O365 1.967 . S
Co340 O372 1.920 . S
Co341 O344 1.966 . S
Co341 N350 2.022 . S
Co341 N358 1.993 . S
Co341 O366 1.941 . S
C342 O343 1.258 . S
C342 O344 1.263 . S
O343 Co340 1.970 . S
O343 C342 1.258 . S
O344 Co341 1.966 . S
O344 C342 1.263 . S
C345 O346 1.235 . S
C345 O372 1.289 . S
O346 C345 1.235 . S
C347 C349 1.400 . S
C347 N350 1.351 . S
C347 C352 1.501 . S
C348 C349 1.387 . S
C348 N351 1.341 . S
C349 C347 1.400 . S
C349 C348 1.387 . S
N350 Co341 2.022 . S
N350 C347 1.351 . S
N350 N351 1.365 . S
N351 C348 1.341 . S
N351 N350 1.365 . S
N351 H371 0.862 . S
C352 C347 1.501 . S
C352 H353 0.961 . S
C352 H354 0.961 . S
C352 H355 0.960 . S
H353 C352 0.961 . S
H354 C352 0.961 . S
H355 C352 0.960 . S
C356 N357 1.342 . S
C356 C360 1.401 . S
C356 C361 1.499 . S
N357 Co340 1.989 . S
N357 C356 1.342 . S
N357 N358 1.388 . S
N358 Co341 1.993 . S
N358 N357 1.388 . S
N358 C359 1.346 . S
C359 N358 1.346 . S
C359 C360 1.396 . S
C359 C369 1.510 . S
C360 C356 1.401 . S
C360 C359 1.396 . S
C361 C356 1.499 . S
C361 H362 0.959 . S
C361 H363 0.960 . S
C361 H364 0.961 . S
H362 C361 0.959 . S
H363 C361 0.960 . S
H364 C361 0.961 . S
O365 Co340 1.967 . S
O365 C373 1.258 . S
O366 Co341 1.941 . S
O366 C373 1.266 . S
H367 C369 0.959 . S
H368 C369 0.961 . S
C369 C359 1.510 . S
C369 H367 0.959 . S
C369 H368 0.961 . S
C369 H370 0.960 . S
H370 C369 0.960 . S
H371 N351 0.862 . S
O372 Co340 1.920 . S
O372 C345 1.289 . S
C373 O365 1.258 . S
C373 O366 1.266 . S
Co374 O377 1.970 . S
Co374 N391 1.989 . S
Co374 O399 1.967 . S
Co374 O406 1.920 . S
Co375 O378 1.966 . S
Co375 N384 2.022 . S
Co375 N392 1.993 . S
Co375 O400 1.941 . S
C376 O377 1.258 . S
C376 O378 1.263 . S
O377 Co374 1.970 . S
O377 C376 1.258 . S
O378 Co375 1.966 . S
O378 C376 1.263 . S
C379 O380 1.235 . S
C379 O406 1.289 . S
O380 C379 1.235 . S
C381 C383 1.400 . S
C381 N384 1.351 . S
C381 C386 1.501 . S
C382 C383 1.387 . S
C382 N385 1.341 . S
C383 C381 1.400 . S
C383 C382 1.387 . S
N384 Co375 2.022 . S
N384 C381 1.351 . S
N384 N385 1.365 . S
N385 C382 1.341 . S
N385 N384 1.365 . S
N385 H405 0.862 . S
C386 C381 1.501 . S
C386 H387 0.961 . S
C386 H388 0.961 . S
C386 H389 0.960 . S
H387 C386 0.961 . S
H388 C386 0.961 . S
H389 C386 0.960 . S
C390 N391 1.342 . S
C390 C394 1.401 . S
C390 C395 1.499 . S
N391 Co374 1.989 . S
N391 C390 1.342 . S
N391 N392 1.388 . S
N392 Co375 1.993 . S
N392 N391 1.388 . S
N392 C393 1.346 . S
C393 N392 1.346 . S
C393 C394 1.396 . S
C393 C403 1.510 . S
C394 C390 1.401 . S
C394 C393 1.396 . S
C395 C390 1.499 . S
C395 H396 0.959 . S
C395 H397 0.960 . S
C395 H398 0.961 . S
H396 C395 0.959 . S
H397 C395 0.960 . S
H398 C395 0.961 . S
O399 Co374 1.967 . S
O399 C407 1.258 . S
O400 Co375 1.941 . S
O400 C407 1.266 . S
H401 C403 0.959 . S
H402 C403 0.961 . S
C403 C393 1.510 . S
C403 H401 0.959 . S
C403 H402 0.961 . S
C403 H404 0.960 . S
H404 C403 0.960 . S
H405 N385 0.862 . S
O406 Co374 1.920 . S
O406 C379 1.289 . S
C407 O399 1.258 . S
C407 O400 1.266 . S
H408 C416 0.950 . S
H409 C421 0.950 1_565 S
H410 C418 0.950 . S
H411 C420 0.950 . S
H412 C422 0.950 . S
H413 C424 0.950 . S
H414 C426 0.950 . S
H415 C427 0.950 1_545 S
C416 H408 0.950 . S
C416 C417 1.386 . S
C416 C418 1.391 . S
C417 C416 1.386 . S
C417 C421 1.393 . S
C418 H410 0.950 . S
C418 C416 1.391 . S
C418 C419 1.400 . S
C419 C418 1.400 . S
C419 C420 1.398 1_545 S
C419 C425 1.491 1_544 S
C420 H411 0.950 . S
C420 C419 1.398 1_565 S
C420 C421 1.391 1_565 S
C421 H409 0.950 1_545 S
C421 C417 1.393 . S
C421 C420 1.391 1_545 S
C422 H412 0.950 . S
C422 C423 1.386 . S
C422 C424 1.391 . S
C423 C422 1.386 . S
C423 C427 1.393 . S
C424 H413 0.950 . S
C424 C422 1.391 . S
C424 C425 1.400 . S
C425 C419 1.491 1_566 S
C425 C424 1.400 . S
C425 C426 1.398 1_565 S
C426 H414 0.950 . S
C426 C425 1.398 1_545 S
C426 C427 1.391 1_545 S
C427 H415 0.950 1_565 S
C427 C423 1.393 . S
C427 C426 1.391 1_565 S
H428 C436 0.950 . S
H429 C441 0.950 . S
H430 C438 0.950 . S
H431 C440 0.950 . S
H432 C442 0.950 . S
H433 C444 0.950 . S
H434 C446 0.950 . S
H435 C447 0.950 . S
C436 H428 0.950 . S
C436 C437 1.386 . S
C436 C438 1.391 . S
C437 C436 1.386 . S
C437 C441 1.393 . S
C438 H430 0.950 . S
C438 C436 1.391 . S
C438 C439 1.400 . S
C439 C438 1.400 . S
C439 C440 1.398 . S
C439 C445 1.491 . S
C440 H431 0.950 . S
C440 C439 1.398 . S
C440 C441 1.391 . S
C441 H429 0.950 . S
C441 C437 1.393 . S
C441 C440 1.391 . S
C442 H432 0.950 . S
C442 C443 1.386 . S
C442 C444 1.391 . S
C443 C442 1.386 . S
C443 C447 1.393 . S
C444 H433 0.950 . S
C444 C442 1.391 . S
C444 C445 1.400 . S
C445 C439 1.491 . S
C445 C444 1.400 . S
C445 C446 1.398 . S
C446 H434 0.950 . S
C446 C445 1.398 . S
C446 C447 1.391 . S
C447 H435 0.950 . S
C447 C443 1.393 . S
C447 C446 1.391 . S
H448 C456 0.950 . S
H449 C461 0.950 1_455 S
H450 C458 0.950 . S
H451 C460 0.950 . S
H452 C462 0.950 . S
H453 C464 0.950 . S
H454 C466 0.950 . S
H455 C467 0.950 1_655 S
C456 H448 0.950 . S
C456 C457 1.386 . S
C456 C458 1.391 . S
C457 C456 1.386 . S
C457 C461 1.393 . S
C458 H450 0.950 . S
C458 C456 1.391 . S
C458 C459 1.400 . S
C459 C458 1.400 . S
C459 C460 1.398 1_655 S
C459 C465 1.491 1_655 S
C460 H451 0.950 . S
C460 C459 1.398 1_455 S
C460 C461 1.391 1_455 S
C461 H449 0.950 1_655 S
C461 C457 1.393 . S
C461 C460 1.391 1_655 S
C462 H452 0.950 . S
C462 C463 1.386 . S
C462 C464 1.391 . S
C463 C462 1.386 . S
C463 C467 1.393 . S
C464 H453 0.950 . S
C464 C462 1.391 . S
C464 C465 1.400 . S
C465 C459 1.491 1_455 S
C465 C464 1.400 . S
C465 C466 1.398 1_455 S
C466 H454 0.950 . S
C466 C465 1.398 1_655 S
C466 C467 1.391 1_655 S
C467 H455 0.950 1_455 S
C467 C463 1.393 . S
C467 C466 1.391 1_455 S
H468 C476 0.950 . S
H469 C481 0.950 . S
H470 C478 0.950 . S
H471 C480 0.950 . S
H472 C482 0.950 . S
H473 C484 0.950 . S
H474 C486 0.950 . S
H475 C487 0.950 . S
C476 H468 0.950 . S
C476 C477 1.386 . S
C476 C478 1.391 . S
C477 C476 1.386 . S
C477 C481 1.393 . S
C478 H470 0.950 . S
C478 C476 1.391 . S
C478 C479 1.400 . S
C479 C478 1.400 . S
C479 C480 1.398 1_545 S
C479 C485 1.491 1_546 S
C480 H471 0.950 . S
C480 C479 1.398 1_565 S
C480 C481 1.391 1_565 S
C481 H469 0.950 . S
C481 C477 1.393 . S
C481 C480 1.391 1_545 S
C482 H472 0.950 . S
C482 C483 1.386 . S
C482 C484 1.391 . S
C483 C482 1.386 . S
C483 C487 1.393 . S
C484 H473 0.950 . S
C484 C482 1.391 . S
C484 C485 1.400 . S
C485 C479 1.491 1_564 S
C485 C484 1.400 . S
C485 C486 1.398 1_565 S
C486 H474 0.950 . S
C486 C485 1.398 1_545 S
C486 C487 1.391 1_545 S
C487 H475 0.950 . S
C487 C483 1.393 . S
C487 C486 1.391 1_565 S
H488 C496 0.950 . S
H489 C501 0.950 . S
H490 C498 0.950 . S
H491 C500 0.950 . S
H492 C502 0.950 . S
H493 C504 0.950 . S
H494 C506 0.950 . S
H495 C507 0.950 . S
C496 H488 0.950 . S
C496 C497 1.386 . S
C496 C498 1.391 . S
C497 C496 1.386 . S
C497 C501 1.393 . S
C498 H490 0.950 . S
C498 C496 1.391 . S
C498 C499 1.400 . S
C499 C498 1.400 . S
C499 C500 1.398 . S
C499 C505 1.491 . S
C500 H491 0.950 . S
C500 C499 1.398 . S
C500 C501 1.391 . S
C501 H489 0.950 . S
C501 C497 1.393 . S
C501 C500 1.391 . S
C502 H492 0.950 . S
C502 C503 1.386 . S
C502 C504 1.391 . S
C503 C502 1.386 . S
C503 C507 1.393 . S
C504 H493 0.950 . S
C504 C502 1.391 . S
C504 C505 1.400 . S
C505 C499 1.491 . S
C505 C504 1.400 . S
C505 C506 1.398 . S
C506 H494 0.950 . S
C506 C505 1.398 . S
C506 C507 1.391 . S
C507 H495 0.950 . S
C507 C503 1.393 . S
C507 C506 1.391 . S
H508 C516 0.950 . S
H509 C521 0.950 . S
H510 C518 0.950 . S
H511 C520 0.950 . S
H512 C522 0.950 . S
H513 C524 0.950 . S
H514 C526 0.950 . S
H515 C527 0.950 . S
C516 H508 0.950 . S
C516 C517 1.386 . S
C516 C518 1.391 1_455 S
C517 C516 1.386 . S
C517 C521 1.393 . S
C518 H510 0.950 . S
C518 C516 1.391 1_655 S
C518 C519 1.400 1_655 S
C519 C518 1.400 1_455 S
C519 C520 1.398 . S
C519 C525 1.491 1_455 S
C520 H511 0.950 . S
C520 C519 1.398 . S
C520 C521 1.391 . S
C521 H509 0.950 . S
C521 C517 1.393 . S
C521 C520 1.391 . S
C522 H512 0.950 . S
C522 C523 1.386 . S
C522 C524 1.391 1_655 S
C523 C522 1.386 . S
C523 C527 1.393 . S
C524 H513 0.950 . S
C524 C522 1.391 1_455 S
C524 C525 1.400 1_455 S
C525 C519 1.491 1_655 S
C525 C524 1.400 1_655 S
C525 C526 1.398 . S
C526 H514 0.950 . S
C526 C525 1.398 . S
C526 C527 1.391 . S
C527 H515 0.950 . S
C527 C523 1.393 . S
C527 C526 1.391 . S
H528 C536 0.950 . S
H529 C541 0.950 . S
H530 C538 0.950 . S
H531 C540 0.950 1_545 S
H532 C542 0.950 . S
H533 C544 0.950 . S
H534 C546 0.950 1_565 S
H535 C547 0.950 . S
C536 H528 0.950 . S
C536 C537 1.386 . S
C536 C538 1.391 . S
C537 C536 1.386 . S
C537 C541 1.393 . S
C538 H530 0.950 . S
C538 C536 1.391 . S
C538 C539 1.400 . S
C539 C538 1.400 . S
C539 C540 1.398 . S
C539 C545 1.491 1_565 S
C540 H531 0.950 1_565 S
C540 C539 1.398 . S
C540 C541 1.391 . S
C541 H529 0.950 . S
C541 C537 1.393 . S
C541 C540 1.391 . S
C542 H532 0.950 . S
C542 C543 1.386 . S
C542 C544 1.391 . S
C543 C542 1.386 . S
C543 C547 1.393 . S
C544 H533 0.950 . S
C544 C542 1.391 . S
C544 C545 1.400 . S
C545 C539 1.491 1_545 S
C545 C544 1.400 . S
C545 C546 1.398 . S
C546 H534 0.950 1_545 S
C546 C545 1.398 . S
C546 C547 1.391 . S
C547 H535 0.950 . S
C547 C543 1.393 . S
C547 C546 1.391 . S
H548 C556 0.950 . S
H549 C561 0.950 . S
H550 C558 0.950 . S
H551 C560 0.950 . S
H552 C562 0.950 . S
H553 C564 0.950 . S
H554 C566 0.950 . S
H555 C567 0.950 . S
C556 H548 0.950 . S
C556 C557 1.386 . S
C556 C558 1.391 . S
C557 C556 1.386 . S
C557 C561 1.393 . S
C558 H550 0.950 . S
C558 C556 1.391 . S
C558 C559 1.400 . S
C559 C558 1.400 . S
C559 C560 1.398 . S
C559 C565 1.491 . S
C560 H551 0.950 . S
C560 C559 1.398 . S
C560 C561 1.391 . S
C561 H549 0.950 . S
C561 C557 1.393 . S
C561 C560 1.391 . S
C562 H552 0.950 . S
C562 C563 1.386 . S
C562 C564 1.391 . S
C563 C562 1.386 . S
C563 C567 1.393 . S
C564 H553 0.950 . S
C564 C562 1.391 . S
C564 C565 1.400 . S
C565 C559 1.491 . S
C565 C564 1.400 . S
C565 C566 1.398 . S
C566 H554 0.950 . S
C566 C565 1.398 . S
C566 C567 1.391 . S
C567 H555 0.950 . S
C567 C563 1.393 . S
C567 C566 1.391 . S
H568 C576 0.950 . S
H569 C581 0.950 . S
H570 C578 0.950 1_655 S
H571 C580 0.950 . S
H572 C582 0.950 . S
H573 C584 0.950 1_455 S
H574 C586 0.950 . S
H575 C587 0.950 . S
C576 H568 0.950 . S
C576 C577 1.386 . S
C576 C578 1.391 . S
C577 C576 1.386 . S
C577 C581 1.393 . S
C578 H570 0.950 1_455 S
C578 C576 1.391 . S
C578 C579 1.400 . S
C579 C578 1.400 . S
C579 C580 1.398 . S
C579 C585 1.491 1_455 S
C580 H571 0.950 . S
C580 C579 1.398 . S
C580 C581 1.391 . S
C581 H569 0.950 . S
C581 C577 1.393 . S
C581 C580 1.391 . S
C582 H572 0.950 . S
C582 C583 1.386 . S
C582 C584 1.391 . S
C583 C582 1.386 . S
C583 C587 1.393 . S
C584 H573 0.950 1_655 S
C584 C582 1.391 . S
C584 C585 1.400 . S
C585 C579 1.491 1_655 S
C585 C584 1.400 . S
C585 C586 1.398 . S
C586 H574 0.950 . S
C586 C585 1.398 . S
C586 C587 1.391 . S
C587 H575 0.950 . S
C587 C583 1.393 . S
C587 C586 1.391 . S
H588 C596 0.950 . S
H589 C601 0.950 . S
H590 C598 0.950 . S
H591 C600 0.950 1_655 S
H592 C602 0.950 . S
H593 C604 0.950 . S
H594 C606 0.950 1_455 S
H595 C607 0.950 . S
C596 H588 0.950 . S
C596 C597 1.386 . S
C596 C598 1.391 . S
C597 C596 1.386 . S
C597 C601 1.393 . S
C598 H590 0.950 . S
C598 C596 1.391 . S
C598 C599 1.400 . S
C599 C598 1.400 . S
C599 C600 1.398 . S
C599 C605 1.491 1_455 S
C600 H591 0.950 1_455 S
C600 C599 1.398 . S
C600 C601 1.391 . S
C601 H589 0.950 . S
C601 C597 1.393 . S
C601 C600 1.391 . S
C602 H592 0.950 . S
C602 C603 1.386 . S
C602 C604 1.391 . S
C603 C602 1.386 . S
C603 C607 1.393 . S
C604 H593 0.950 . S
C604 C602 1.391 . S
C604 C605 1.400 . S
C605 C599 1.491 1_655 S
C605 C604 1.400 . S
C605 C606 1.398 . S
C606 H594 0.950 1_655 S
C606 C605 1.398 . S
C606 C607 1.391 . S
C607 H595 0.950 . S
C607 C603 1.393 . S
C607 C606 1.391 . S
H608 C616 0.950 . S
H609 C621 0.950 . S
H610 C618 0.950 . S
H611 C620 0.950 . S
H612 C622 0.950 . S
H613 C624 0.950 . S
H614 C626 0.950 . S
H615 C627 0.950 . S
C616 H608 0.950 . S
C616 C617 1.386 . S
C616 C618 1.391 1_545 S
C617 C616 1.386 . S
C617 C621 1.393 . S
C618 H610 0.950 . S
C618 C616 1.391 1_565 S
C618 C619 1.400 1_565 S
C619 C618 1.400 1_545 S
C619 C620 1.398 . S
C619 C625 1.491 1_545 S
C620 H611 0.950 . S
C620 C619 1.398 . S
C620 C621 1.391 . S
C621 H609 0.950 . S
C621 C617 1.393 . S
C621 C620 1.391 . S
C622 H612 0.950 . S
C622 C623 1.386 . S
C622 C624 1.391 1_565 S
C623 C622 1.386 . S
C623 C627 1.393 . S
C624 H613 0.950 . S
C624 C622 1.391 1_545 S
C624 C625 1.400 1_545 S
C625 C619 1.491 1_565 S
C625 C624 1.400 1_565 S
C625 C626 1.398 . S
C626 H614 0.950 . S
C626 C625 1.398 . S
C626 C627 1.391 . S
C627 H615 0.950 . S
C627 C623 1.393 . S
C627 C626 1.391 . S
H628 C636 0.950 . S
H629 C641 0.950 . S
H630 C638 0.950 . S
H631 C640 0.950 . S
H632 C642 0.950 . S
H633 C644 0.950 . S
H634 C646 0.950 . S
H635 C647 0.950 . S
C636 H628 0.950 . S
C636 C637 1.386 . S
C636 C638 1.391 . S
C637 C636 1.386 . S
C637 C641 1.393 . S
C638 H630 0.950 . S
C638 C636 1.391 . S
C638 C639 1.400 . S
C639 C638 1.400 . S
C639 C640 1.398 . S
C639 C645 1.491 . S
C640 H631 0.950 . S
C640 C639 1.398 . S
C640 C641 1.391 . S
C641 H629 0.950 . S
C641 C637 1.393 . S
C641 C640 1.391 . S
C642 H632 0.950 . S
C642 C643 1.386 . S
C642 C644 1.391 . S
C643 C642 1.386 . S
C643 C647 1.393 . S
C644 H633 0.950 . S
C644 C642 1.391 . S
C644 C645 1.400 . S
C645 C639 1.491 . S
C645 C644 1.400 . S
C645 C646 1.398 . S
C646 H634 0.950 . S
C646 C645 1.398 . S
C646 C647 1.391 . S
C647 H635 0.950 . S
C647 C643 1.393 . S
C647 C646 1.391 . S
H648 C656 0.950 . S
H649 C661 0.950 . S
H650 C658 0.950 . S
H651 C660 0.950 . S
H652 C662 0.950 . S
H653 C664 0.950 . S
H654 C666 0.950 . S
H655 C667 0.950 . S
C656 H648 0.950 . S
C656 C657 1.386 . S
C656 C658 1.391 . S
C657 C656 1.386 . S
C657 C661 1.393 . S
C658 H650 0.950 . S
C658 C656 1.391 . S
C658 C659 1.400 . S
C659 C658 1.400 . S
C659 C660 1.398 . S
C659 C665 1.491 . S
C660 H651 0.950 . S
C660 C659 1.398 . S
C660 C661 1.391 . S
C661 H649 0.950 . S
C661 C657 1.393 . S
C661 C660 1.391 . S
C662 H652 0.950 . S
C662 C663 1.386 . S
C662 C664 1.391 . S
C663 C662 1.386 . S
C663 C667 1.393 . S
C664 H653 0.950 . S
C664 C662 1.391 . S
C664 C665 1.400 . S
C665 C659 1.491 . S
C665 C664 1.400 . S
C665 C666 1.398 . S
C666 H654 0.950 . S
C666 C665 1.398 . S
C666 C667 1.391 . S
C667 H655 0.950 . S
C667 C663 1.393 . S
C667 C666 1.391 . S
H668 C676 0.950 . S
H669 C681 0.950 . S
H670 C678 0.950 . S
H671 C680 0.950 . S
H672 C682 0.950 . S
H673 C684 0.950 . S
H674 C686 0.950 . S
H675 C687 0.950 . S
C676 H668 0.950 . S
C676 C677 1.386 . S
C676 C678 1.391 . S
C677 C676 1.386 . S
C677 C681 1.393 . S
C678 H670 0.950 . S
C678 C676 1.391 . S
C678 C679 1.400 . S
C679 C678 1.400 . S
C679 C680 1.398 . S
C679 C685 1.491 . S
C680 H671 0.950 . S
C680 C679 1.398 . S
C680 C681 1.391 . S
C681 H669 0.950 . S
C681 C677 1.393 . S
C681 C680 1.391 . S
C682 H672 0.950 . S
C682 C683 1.386 . S
C682 C684 1.391 . S
C683 C682 1.386 . S
C683 C687 1.393 . S
C684 H673 0.950 . S
C684 C682 1.391 . S
C684 C685 1.400 . S
C685 C679 1.491 . S
C685 C684 1.400 . S
C685 C686 1.398 . S
C686 H674 0.950 . S
C686 C685 1.398 . S
C686 C687 1.391 . S
C687 H675 0.950 . S
C687 C683 1.393 . S
C687 C686 1.391 . S
H688 C696 0.950 . S
H689 C701 0.950 . S
H690 C698 0.950 . S
H691 C700 0.950 . S
H692 C702 0.950 . S
H693 C704 0.950 . S
H694 C706 0.950 . S
H695 C707 0.950 . S
C696 H688 0.950 . S
C696 C697 1.386 . S
C696 C698 1.391 . S
C697 C696 1.386 . S
C697 C701 1.393 . S
C698 H690 0.950 . S
C698 C696 1.391 . S
C698 C699 1.400 . S
C699 C698 1.400 . S
C699 C700 1.398 . S
C699 C705 1.491 . S
C700 H691 0.950 . S
C700 C699 1.398 . S
C700 C701 1.391 . S
C701 H689 0.950 . S
C701 C697 1.393 . S
C701 C700 1.391 . S
C702 H692 0.950 . S
C702 C703 1.386 . S
C702 C704 1.391 . S
C703 C702 1.386 . S
C703 C707 1.393 . S
C704 H693 0.950 . S
C704 C702 1.391 . S
C704 C705 1.400 . S
C705 C699 1.491 . S
C705 C704 1.400 . S
C705 C706 1.398 . S
C706 H694 0.950 . S
C706 C705 1.398 . S
C706 C707 1.391 . S
C707 H695 0.950 . S
C707 C703 1.393 . S
C707 C706 1.391 . S
H708 C716 0.950 . S
H709 C721 0.950 . S
H710 C718 0.950 . S
H711 C720 0.950 . S
H712 C722 0.950 . S
H713 C724 0.950 . S
H714 C726 0.950 . S
H715 C727 0.950 . S
C716 H708 0.950 . S
C716 C717 1.386 . S
C716 C718 1.391 . S
C717 C716 1.386 . S
C717 C721 1.393 . S
C718 H710 0.950 . S
C718 C716 1.391 . S
C718 C719 1.400 . S
C719 C718 1.400 . S
C719 C720 1.398 . S
C719 C725 1.491 . S
C720 H711 0.950 . S
C720 C719 1.398 . S
C720 C721 1.391 . S
C721 H709 0.950 . S
C721 C717 1.393 . S
C721 C720 1.391 . S
C722 H712 0.950 . S
C722 C723 1.386 . S
C722 C724 1.391 . S
C723 C722 1.386 . S
C723 C727 1.393 . S
C724 H713 0.950 . S
C724 C722 1.391 . S
C724 C725 1.400 . S
C725 C719 1.491 . S
C725 C724 1.400 . S
C725 C726 1.398 . S
C726 H714 0.950 . S
C726 C725 1.398 . S
C726 C727 1.391 . S
C727 H715 0.950 . S
C727 C723 1.393 . S
C727 C726 1.391 . S
H728 C736 0.950 . S
H729 C741 0.950 . S
H730 C738 0.950 . S
H731 C740 0.950 . S
H732 C742 0.950 . S
H733 C744 0.950 . S
H734 C746 0.950 . S
H735 C747 0.950 . S
C736 H728 0.950 . S
C736 C737 1.386 . S
C736 C738 1.391 . S
C737 C736 1.386 . S
C737 C741 1.393 . S
C738 H730 0.950 . S
C738 C736 1.391 . S
C738 C739 1.400 . S
C739 C738 1.400 . S
C739 C740 1.398 . S
C739 C745 1.491 . S
C740 H731 0.950 . S
C740 C739 1.398 . S
C740 C741 1.391 . S
C741 H729 0.950 . S
C741 C737 1.393 . S
C741 C740 1.391 . S
C742 H732 0.950 . S
C742 C743 1.386 . S
C742 C744 1.391 . S
C743 C742 1.386 . S
C743 C747 1.393 . S
C744 H733 0.950 . S
C744 C742 1.391 . S
C744 C745 1.400 . S
C745 C739 1.491 . S
C745 C744 1.400 . S
C745 C746 1.398 . S
C746 H734 0.950 . S
C746 C745 1.398 . S
C746 C747 1.391 . S
C747 H735 0.950 . S
C747 C743 1.393 . S
C747 C746 1.391 . S
H748 C756 0.950 . S
H749 C761 0.950 . S
H750 C758 0.950 . S
H751 C760 0.950 . S
H752 C762 0.950 . S
H753 C764 0.950 . S
H754 C766 0.950 . S
H755 C767 0.950 . S
C756 H748 0.950 . S
C756 C757 1.386 . S
C756 C758 1.391 . S
C757 C756 1.386 . S
C757 C761 1.393 . S
C758 H750 0.950 . S
C758 C756 1.391 . S
C758 C759 1.400 . S
C759 C758 1.400 . S
C759 C760 1.398 . S
C759 C765 1.491 . S
C760 H751 0.950 . S
C760 C759 1.398 . S
C760 C761 1.391 . S
C761 H749 0.950 . S
C761 C757 1.393 . S
C761 C760 1.391 . S
C762 H752 0.950 . S
C762 C763 1.386 . S
C762 C764 1.391 . S
C763 C762 1.386 . S
C763 C767 1.393 . S
C764 H753 0.950 . S
C764 C762 1.391 . S
C764 C765 1.400 . S
C765 C759 1.491 . S
C765 C764 1.400 . S
C765 C766 1.398 . S
C766 H754 0.950 . S
C766 C765 1.398 . S
C766 C767 1.391 . S
C767 H755 0.950 . S
C767 C763 1.393 . S
C767 C766 1.391 . S
H768 C776 0.950 . S
H769 C781 0.950 . S
H770 C778 0.950 . S
H771 C780 0.950 . S
H772 C782 0.950 . S
H773 C784 0.950 . S
H774 C786 0.950 . S
H775 C787 0.950 . S
C776 H768 0.950 . S
C776 C777 1.386 . S
C776 C778 1.391 . S
C777 C776 1.386 . S
C777 C781 1.393 . S
C778 H770 0.950 . S
C778 C776 1.391 . S
C778 C779 1.400 . S
C779 C778 1.400 . S
C779 C780 1.398 . S
C779 C785 1.491 . S
C780 H771 0.950 . S
C780 C779 1.398 . S
C780 C781 1.391 . S
C781 H769 0.950 . S
C781 C777 1.393 . S
C781 C780 1.391 . S
C782 H772 0.950 . S
C782 C783 1.386 . S
C782 C784 1.391 . S
C783 C782 1.386 . S
C783 C787 1.393 . S
C784 H773 0.950 . S
C784 C782 1.391 . S
C784 C785 1.400 . S
C785 C779 1.491 . S
C785 C784 1.400 . S
C785 C786 1.398 . S
C786 H774 0.950 . S
C786 C785 1.398 . S
C786 C787 1.391 . S
C787 H775 0.950 . S
C787 C783 1.393 . S
C787 C786 1.391 . S
H788 C796 0.950 . S
H789 C801 0.950 1_655 S
H790 C798 0.950 . S
H791 C800 0.950 . S
H792 C802 0.950 . S
H793 C804 0.950 . S
H794 C806 0.950 . S
H795 C807 0.950 1_455 S
C796 H788 0.950 . S
C796 C797 1.386 . S
C796 C798 1.391 . S
C797 C796 1.386 . S
C797 C801 1.393 . S
C798 H790 0.950 . S
C798 C796 1.391 . S
C798 C799 1.400 . S
C799 C798 1.400 . S
C799 C800 1.398 1_455 S
C799 C805 1.491 1_455 S
C800 H791 0.950 . S
C800 C799 1.398 1_655 S
C800 C801 1.391 1_655 S
C801 H789 0.950 1_455 S
C801 C797 1.393 . S
C801 C800 1.391 1_455 S
C802 H792 0.950 . S
C802 C803 1.386 . S
C802 C804 1.391 . S
C803 C802 1.386 . S
C803 C807 1.393 . S
C804 H793 0.950 . S
C804 C802 1.391 . S
C804 C805 1.400 . S
C805 C799 1.491 1_655 S
C805 C804 1.400 . S
C805 C806 1.398 1_655 S
C806 H794 0.950 . S
C806 C805 1.398 1_455 S
C806 C807 1.391 1_455 S
C807 H795 0.950 1_655 S
C807 C803 1.393 . S
C807 C806 1.391 1_655 S
H808 C816 0.950 1_545 S
H809 C821 0.950 . S
H810 C818 0.950 . S
H811 C820 0.950 . S
H812 C822 0.950 1_565 S
H813 C824 0.950 . S
H814 C826 0.950 . S
H815 C827 0.950 . S
C816 H808 0.950 1_565 S
C816 C817 1.386 . S
C816 C818 1.391 1_565 S
C817 C816 1.386 . S
C817 C821 1.393 . S
C818 H810 0.950 . S
C818 C816 1.391 1_545 S
C818 C819 1.400 1_545 S
C819 C818 1.400 1_565 S
C819 C820 1.398 . S
C819 C825 1.491 1_565 S
C820 H811 0.950 . S
C820 C819 1.398 . S
C820 C821 1.391 . S
C821 H809 0.950 . S
C821 C817 1.393 . S
C821 C820 1.391 . S
C822 H812 0.950 1_545 S
C822 C823 1.386 . S
C822 C824 1.391 1_545 S
C823 C822 1.386 . S
C823 C827 1.393 . S
C824 H813 0.950 . S
C824 C822 1.391 1_565 S
C824 C825 1.400 1_565 S
C825 C819 1.491 1_545 S
C825 C824 1.400 1_545 S
C825 C826 1.398 . S
C826 H814 0.950 . S
C826 C825 1.398 . S
C826 C827 1.391 . S
C827 H815 0.950 . S
C827 C823 1.393 . S
C827 C826 1.391 . S
H828 C836 0.950 . S
H829 C841 0.950 . S
H830 C838 0.950 . S
H831 C840 0.950 . S
H832 C842 0.950 . S
H833 C844 0.950 . S
H834 C846 0.950 . S
H835 C847 0.950 . S
C836 H828 0.950 . S
C836 C837 1.386 . S
C836 C838 1.391 . S
C837 C836 1.386 . S
C837 C841 1.393 . S
C838 H830 0.950 . S
C838 C836 1.391 . S
C838 C839 1.400 . S
C839 C838 1.400 . S
C839 C840 1.398 . S
C839 C845 1.491 . S
C840 H831 0.950 . S
C840 C839 1.398 . S
C840 C841 1.391 . S
C841 H829 0.950 . S
C841 C837 1.393 . S
C841 C840 1.391 . S
C842 H832 0.950 . S
C842 C843 1.386 . S
C842 C844 1.391 . S
C843 C842 1.386 . S
C843 C847 1.393 . S
C844 H833 0.950 . S
C844 C842 1.391 . S
C844 C845 1.400 . S
C845 C839 1.491 . S
C845 C844 1.400 . S
C845 C846 1.398 . S
C846 H834 0.950 . S
C846 C845 1.398 . S
C846 C847 1.391 . S
C847 H835 0.950 . S
C847 C843 1.393 . S
C847 C846 1.391 . S
H848 C856 0.950 1_655 S
H849 C861 0.950 . S
H850 C858 0.950 . S
H851 C860 0.950 . S
H852 C862 0.950 1_455 S
H853 C864 0.950 . S
H854 C866 0.950 . S
H855 C867 0.950 . S
C856 H848 0.950 1_455 S
C856 C857 1.386 . S
C856 C858 1.391 1_455 S
C857 C856 1.386 . S
C857 C861 1.393 . S
C858 H850 0.950 . S
C858 C856 1.391 1_655 S
C858 C859 1.400 1_655 S
C859 C858 1.400 1_455 S
C859 C860 1.398 . S
C859 C865 1.491 1_455 S
C860 H851 0.950 . S
C860 C859 1.398 . S
C860 C861 1.391 . S
C861 H849 0.950 . S
C861 C857 1.393 . S
C861 C860 1.391 . S
C862 H852 0.950 1_655 S
C862 C863 1.386 . S
C862 C864 1.391 1_655 S
C863 C862 1.386 . S
C863 C867 1.393 . S
C864 H853 0.950 . S
C864 C862 1.391 1_455 S
C864 C865 1.400 1_455 S
C865 C859 1.491 1_655 S
C865 C864 1.400 1_655 S
C865 C866 1.398 . S
C866 H854 0.950 . S
C866 C865 1.398 . S
C866 C867 1.391 . S
C867 H855 0.950 . S
C867 C863 1.393 . S
C867 C866 1.391 . S
H868 C876 0.950 . S
H869 C881 0.950 . S
H870 C878 0.950 . S
H871 C880 0.950 . S
H872 C882 0.950 . S
H873 C884 0.950 . S
H874 C886 0.950 . S
H875 C887 0.950 . S
C876 H868 0.950 . S
C876 C877 1.386 . S
C876 C878 1.391 1_565 S
C877 C876 1.386 . S
C877 C881 1.393 . S
C878 H870 0.950 . S
C878 C876 1.391 1_545 S
C878 C879 1.400 1_545 S
C879 C878 1.400 1_565 S
C879 C880 1.398 . S
C879 C885 1.491 1_565 S
C880 H871 0.950 . S
C880 C879 1.398 . S
C880 C881 1.391 . S
C881 H869 0.950 . S
C881 C877 1.393 . S
C881 C880 1.391 . S
C882 H872 0.950 . S
C882 C883 1.386 . S
C882 C884 1.391 1_545 S
C883 C882 1.386 . S
C883 C887 1.393 . S
C884 H873 0.950 . S
C884 C882 1.391 1_565 S
C884 C885 1.400 1_565 S
C885 C879 1.491 1_545 S
C885 C884 1.400 1_545 S
C885 C886 1.398 . S
C886 H874 0.950 . S
C886 C885 1.398 . S
C886 C887 1.391 . S
C887 H875 0.950 . S
C887 C883 1.393 . S
C887 C886 1.391 . S
H888 C896 0.950 . S
H889 C901 0.950 . S
H890 C898 0.950 . S
H891 C900 0.950 1_565 S
H892 C902 0.950 . S
H893 C904 0.950 . S
H894 C906 0.950 1_545 S
H895 C907 0.950 . S
C896 H888 0.950 . S
C896 C897 1.386 . S
C896 C898 1.391 . S
C897 C896 1.386 . S
C897 C901 1.393 . S
C898 H890 0.950 . S
C898 C896 1.391 . S
C898 C899 1.400 . S
C899 C898 1.400 . S
C899 C900 1.398 . S
C899 C905 1.491 1_445 S
C900 H891 0.950 1_545 S
C900 C899 1.398 . S
C900 C901 1.391 . S
C901 H889 0.950 . S
C901 C897 1.393 . S
C901 C900 1.391 . S
C902 H892 0.950 . S
C902 C903 1.386 . S
C902 C904 1.391 . S
C903 C902 1.386 . S
C903 C907 1.393 . S
C904 H893 0.950 . S
C904 C902 1.391 . S
C904 C905 1.400 . S
C905 C899 1.491 1_665 S
C905 C904 1.400 . S
C905 C906 1.398 . S
C906 H894 0.950 1_565 S
C906 C905 1.398 . S
C906 C907 1.391 . S
C907 H895 0.950 . S
C907 C903 1.393 . S
C907 C906 1.391 . S
H908 C916 0.950 . S
H909 C921 0.950 . S
H910 C918 0.950 . S
H911 C920 0.950 . S
H912 C922 0.950 . S
H913 C924 0.950 . S
H914 C926 0.950 . S
H915 C927 0.950 . S
C916 H908 0.950 . S
C916 C917 1.386 . S
C916 C918 1.391 . S
C917 C916 1.386 . S
C917 C921 1.393 . S
C918 H910 0.950 . S
C918 C916 1.391 . S
C918 C919 1.400 . S
C919 C918 1.400 . S
C919 C920 1.398 1_455 S
C919 C925 1.491 1_445 S
C920 H911 0.950 . S
C920 C919 1.398 1_655 S
C920 C921 1.391 1_655 S
C921 H909 0.950 . S
C921 C917 1.393 . S
C921 C920 1.391 1_455 S
C922 H912 0.950 . S
C922 C923 1.386 . S
C922 C924 1.391 . S
C923 C922 1.386 . S
C923 C927 1.393 . S
C924 H913 0.950 . S
C924 C922 1.391 . S
C924 C925 1.400 . S
C925 C919 1.491 1_665 S
C925 C924 1.400 . S
C925 C926 1.398 1_655 S
C926 H914 0.950 . S
C926 C925 1.398 1_455 S
C926 C927 1.391 1_455 S
C927 H915 0.950 . S
C927 C923 1.393 . S
C927 C926 1.391 1_655 S
H928 C936 0.950 . S
H929 C941 0.950 1_565 S
H930 C938 0.950 . S
H931 C940 0.950 . S
H932 C942 0.950 . S
H933 C944 0.950 . S
H934 C946 0.950 . S
H935 C947 0.950 1_545 S
C936 H928 0.950 . S
C936 C937 1.386 . S
C936 C938 1.391 1_655 S
C937 C936 1.386 . S
C937 C941 1.393 . S
C938 H930 0.950 . S
C938 C936 1.391 1_455 S
C938 C939 1.400 1_455 S
C939 C938 1.400 1_655 S
C939 C940 1.398 1_545 S
C939 C945 1.491 1_645 S
C940 H931 0.950 . S
C940 C939 1.398 1_565 S
C940 C941 1.391 1_565 S
C941 H929 0.950 1_545 S
C941 C937 1.393 . S
C941 C940 1.391 1_545 S
C942 H932 0.950 . S
C942 C943 1.386 . S
C942 C944 1.391 1_455 S
C943 C942 1.386 . S
C943 C947 1.393 . S
C944 H933 0.950 . S
C944 C942 1.391 1_655 S
C944 C945 1.400 1_655 S
C945 C939 1.491 1_465 S
C945 C944 1.400 1_455 S
C945 C946 1.398 1_565 S
C946 H934 0.950 . S
C946 C945 1.398 1_545 S
C946 C947 1.391 1_545 S
C947 H935 0.950 1_565 S
C947 C943 1.393 . S
C947 C946 1.391 1_565 S
H948 C956 0.950 . S
H949 C961 0.950 . S
H950 C958 0.950 1_455 S
H951 C960 0.950 . S
H952 C962 0.950 . S
H953 C964 0.950 1_655 S
H954 C966 0.950 . S
H955 C967 0.950 . S
C956 H948 0.950 . S
C956 C957 1.386 . S
C956 C958 1.391 . S
C957 C956 1.386 . S
C957 C961 1.393 . S
C958 H950 0.950 1_655 S
C958 C956 1.391 . S
C958 C959 1.400 . S
C959 C958 1.400 . S
C959 C960 1.398 . S
C959 C965 1.491 1_665 S
C960 H951 0.950 . S
C960 C959 1.398 . S
C960 C961 1.391 . S
C961 H949 0.950 . S
C961 C957 1.393 . S
C961 C960 1.391 . S
C962 H952 0.950 . S
C962 C963 1.386 . S
C962 C964 1.391 . S
C963 C962 1.386 . S
C963 C967 1.393 . S
C964 H953 0.950 1_455 S
C964 C962 1.391 . S
C964 C965 1.400 . S
C965 C959 1.491 1_445 S
C965 C964 1.400 . S
C965 C966 1.398 . S
C966 H954 0.950 . S
C966 C965 1.398 . S
C966 C967 1.391 . S
C967 H955 0.950 . S
C967 C963 1.393 . S
C967 C966 1.391 . S
H968 C976 0.950 . S
H969 C981 0.950 . S
H970 C978 0.950 . S
H971 C980 0.950 . S
H972 C982 0.950 . S
H973 C984 0.950 . S
H974 C986 0.950 . S
H975 C987 0.950 . S
C976 H968 0.950 . S
C976 C977 1.386 . S
C976 C978 1.391 . S
C977 C976 1.386 . S
C977 C981 1.393 . S
C978 H970 0.950 . S
C978 C976 1.391 . S
C978 C979 1.400 . S
C979 C978 1.400 . S
C979 C980 1.398 . S
C979 C985 1.491 1_645 S
C980 H971 0.950 . S
C980 C979 1.398 . S
C980 C981 1.391 . S
C981 H969 0.950 . S
C981 C977 1.393 . S
C981 C980 1.391 . S
C982 H972 0.950 . S
C982 C983 1.386 . S
C982 C984 1.391 . S
C983 C982 1.386 . S
C983 C987 1.393 . S
C984 H973 0.950 . S
C984 C982 1.391 . S
C984 C985 1.400 . S
C985 C979 1.491 1_465 S
C985 C984 1.400 . S
C985 C986 1.398 . S
C986 H974 0.950 . S
C986 C985 1.398 . S
C986 C987 1.391 . S
C987 H975 0.950 . S
C987 C983 1.393 . S
C987 C986 1.391 . S
H988 C996 0.950 . S
H989 C1001 0.950 . S
H990 C998 0.950 . S
H991 C1000 0.950 . S
H992 C1002 0.950 . S
H993 C1004 0.950 . S
H994 C1006 0.950 . S
H995 C1007 0.950 . S
C996 H988 0.950 . S
C996 C997 1.386 . S
C996 C998 1.391 . S
C997 C996 1.386 . S
C997 C1001 1.393 . S
C998 H990 0.950 . S
C998 C996 1.391 . S
C998 C999 1.400 . S
C999 C998 1.400 . S
C999 C1000 1.398 1_545 S
C999 C1005 1.491 1_445 S
C1000 H991 0.950 . S
C1000 C999 1.398 1_565 S
C1000 C1001 1.391 1_565 S
C1001 H989 0.950 . S
C1001 C997 1.393 . S
C1001 C1000 1.391 1_545 S
C1002 H992 0.950 . S
C1002 C1003 1.386 . S
C1002 C1004 1.391 . S
C1003 C1002 1.386 . S
C1003 C1007 1.393 . S
C1004 H993 0.950 . S
C1004 C1002 1.391 . S
C1004 C1005 1.400 . S
C1005 C999 1.491 1_665 S
C1005 C1004 1.400 . S
C1005 C1006 1.398 1_565 S
C1006 H994 0.950 . S
C1006 C1005 1.398 1_545 S
C1006 C1007 1.391 1_545 S
C1007 H995 0.950 . S
C1007 C1003 1.393 . S
C1007 C1006 1.391 1_565 S
C417 C9 1.465 . S
C423 C247 1.471 . S
C437 C43 1.457 . S
C443 C281 1.450 . S
C457 C77 1.464 . S
C463 C315 1.470 . S
C477 C349 1.468 . S
C483 C111 1.471 . S
C497 C383 1.458 . S
C503 C145 1.450 . S
C517 C179 1.452 . S
C523 C213 1.448 . S
C537 C122 0.533 . S
C543 C20 0.533 . S
C557 C54 0.549 . S
C563 C156 0.548 . S
C577 C190 0.538 . S
C583 C88 0.537 . S
C597 C326 0.556 . S
C603 C224 0.557 . S
C617 C360 0.544 . S
C623 C258 0.543 . S
C637 C292 0.537 . S
C643 C394 0.537 . S
C657 C277 1.495 . S
C663 C5 1.493 . S
C677 C39 1.492 . S
C683 C311 1.496 . S
C697 C73 1.494 . S
C703 C345 1.501 . S
C717 C107 1.497 . S
C723 C379 1.491 . S
C737 C141 1.496 . S
C743 C209 1.501 . S
C757 C243 1.492 . S
C763 C175 1.497 . S
C777 C135 2.247 . S
C783 C33 2.247 . S
C797 C67 2.248 . S
C803 C169 2.249 . S
C817 C203 2.245 . S
C823 C101 2.245 . S
C837 C237 2.248 . S
C843 C339 2.249 . S
C857 C271 2.249 . S
C863 C373 2.248 . S
C877 C407 2.245 . S
C883 C305 2.245 . S
C897 C2 1.458 . S
C903 C104 1.457 . S
C917 C36 1.472 . S
C923 C138 1.473 . S
C937 C70 1.467 . S
C943 C172 1.468 . S
C957 C206 1.460 . S
C963 C308 1.462 . S
C977 C342 1.457 . S
C983 C240 1.457 . S
C997 C274 1.473 . S
C1003 C376 1.474 . S
