# Generated by pormake.
# Topology cag, (4)-cn, num edge types: 1
# Building blocks:
#     Node 0, Type 0, BuildingBlock: QUQFOY_clean_sbu_3, # of connection points: 4
#     Node 1, Type 0, BuildingBlock: QUQFOY_clean_sbu_3, # of connection points: 4
#     Node 2, Type 0, BuildingBlock: QUQFOY_clean_sbu_3, # of connection points: 4
#     Node 3, Type 0, BuildingBlock: QUQFOY_clean_sbu_3, # of connection points: 4
#     Node 4, Type 0, BuildingBlock: QUQFOY_clean_sbu_3, # of connection points: 4
#     Node 5, Type 0, BuildingBlock: QUQFOY_clean_sbu_3, # of connection points: 4
#     Node 6, Type 0, BuildingBlock: QUQFOY_clean_sbu_3, # of connection points: 4
#     Node 7, Type 0, BuildingBlock: QUQFOY_clean_sbu_3, # of connection points: 4
#     Node 8, Type 0, BuildingBlock: QUQFOY_clean_sbu_3, # of connection points: 4
#     Node 9, Type 0, BuildingBlock: QUQFOY_clean_sbu_3, # of connection points: 4
#     Node 10, Type 0, BuildingBlock: QUQFOY_clean_sbu_3, # of connection points: 4
#     Node 11, Type 0, BuildingBlock: QUQFOY_clean_sbu_3, # of connection points: 4
#     Node 12, Type 0, BuildingBlock: QUQFOY_clean_sbu_3, # of connection points: 4
#     Node 13, Type 0, BuildingBlock: QUQFOY_clean_sbu_3, # of connection points: 4
#     Node 14, Type 0, BuildingBlock: QUQFOY_clean_sbu_3, # of connection points: 4
#     Node 15, Type 0, BuildingBlock: QUQFOY_clean_sbu_3, # of connection points: 4
#     Edge 16, Type (0, 0), BuildingBlock: XUDNAN_clean_linker_2, # of connection points: 2
#     Edge 17, Type (0, 0), BuildingBlock: XUDNAN_clean_linker_2, # of connection points: 2
#     Edge 18, Type (0, 0), BuildingBlock: XUDNAN_clean_linker_2, # of connection points: 2
#     Edge 19, Type (0, 0), BuildingBlock: XUDNAN_clean_linker_2, # of connection points: 2
#     Edge 20, Type (0, 0), BuildingBlock: XUDNAN_clean_linker_2, # of connection points: 2
#     Edge 21, Type (0, 0), BuildingBlock: XUDNAN_clean_linker_2, # of connection points: 2
#     Edge 22, Type (0, 0), BuildingBlock: XUDNAN_clean_linker_2, # of connection points: 2
#     Edge 23, Type (0, 0), BuildingBlock: XUDNAN_clean_linker_2, # of connection points: 2
#     Edge 24, Type (0, 0), BuildingBlock: XUDNAN_clean_linker_2, # of connection points: 2
#     Edge 25, Type (0, 0), BuildingBlock: XUDNAN_clean_linker_2, # of connection points: 2
#     Edge 26, Type (0, 0), BuildingBlock: XUDNAN_clean_linker_2, # of connection points: 2
#     Edge 27, Type (0, 0), BuildingBlock: XUDNAN_clean_linker_2, # of connection points: 2
#     Edge 28, Type (0, 0), BuildingBlock: XUDNAN_clean_linker_2, # of connection points: 2
#     Edge 29, Type (0, 0), BuildingBlock: XUDNAN_clean_linker_2, # of connection points: 2
#     Edge 30, Type (0, 0), BuildingBlock: XUDNAN_clean_linker_2, # of connection points: 2
#     Edge 31, Type (0, 0), BuildingBlock: XUDNAN_clean_linker_2, # of connection points: 2
#     Edge 32, Type (0, 0), BuildingBlock: XUDNAN_clean_linker_2, # of connection points: 2
#     Edge 33, Type (0, 0), BuildingBlock: XUDNAN_clean_linker_2, # of connection points: 2
#     Edge 34, Type (0, 0), BuildingBlock: XUDNAN_clean_linker_2, # of connection points: 2
#     Edge 35, Type (0, 0), BuildingBlock: XUDNAN_clean_linker_2, # of connection points: 2
#     Edge 36, Type (0, 0), BuildingBlock: XUDNAN_clean_linker_2, # of connection points: 2
#     Edge 37, Type (0, 0), BuildingBlock: XUDNAN_clean_linker_2, # of connection points: 2
#     Edge 38, Type (0, 0), BuildingBlock: XUDNAN_clean_linker_2, # of connection points: 2
#     Edge 39, Type (0, 0), BuildingBlock: XUDNAN_clean_linker_2, # of connection points: 2
#     Edge 40, Type (0, 0), BuildingBlock: XUDNAN_clean_linker_2, # of connection points: 2
#     Edge 41, Type (0, 0), BuildingBlock: XUDNAN_clean_linker_2, # of connection points: 2
#     Edge 42, Type (0, 0), BuildingBlock: XUDNAN_clean_linker_2, # of connection points: 2
#     Edge 43, Type (0, 0), BuildingBlock: XUDNAN_clean_linker_2, # of connection points: 2
#     Edge 44, Type (0, 0), BuildingBlock: XUDNAN_clean_linker_2, # of connection points: 2
#     Edge 45, Type (0, 0), BuildingBlock: XUDNAN_clean_linker_2, # of connection points: 2
#     Edge 46, Type (0, 0), BuildingBlock: XUDNAN_clean_linker_2, # of connection points: 2
#     Edge 47, Type (0, 0), BuildingBlock: XUDNAN_clean_linker_2, # of connection points: 2
# Relax obj value: 0.111
# Max RMSD: 0.144
# Mean RMSD: 0.144
data_MOF--net-cag--node1-QUQFOY_clean_sbu_3--edge1-XUDNAN_clean_linker_2
_symmetry_space_group_name_H-M    P1
_symmetry_Int_Tables_number       1
_symmetry_cell_setting            triclinic
loop_
_symmetry_equiv_pos_as_xyz
'x, y, z'
_cell_length_a     44.994917
_cell_length_b     50.604315
_cell_length_c     42.52885
_cell_angle_alpha  89.982945
_cell_angle_beta   90.041661
_cell_angle_gamma 90.01761
loop_
_atom_site_label
_atom_site_type_symbol
_atom_site_fract_x
_atom_site_fract_y
_atom_site_fract_z
_atom_type_partial_charge
C0 C 0.3549 0.1535 0.0612 0.0
O1 O 0.35252 0.16125 0.03292 0.0
Cd2 Cd 0.30482 0.16029 0.00635 0.0
O3 O 0.33213 0.14529 0.07598 0.0
Cd4 Cd 0.27874 0.13795 0.0679 0.0
C5 C 0.28986 0.09464 0.00837 0.0
O6 O 0.26667 0.17884 0.04008 0.0
O7 O 0.23252 0.14877 0.04105 0.0
O8 O 0.26853 0.15051 0.12221 0.0
C9 C 0.24001 0.17223 0.0342 0.0
O10 O 0.29533 0.11433 0.99065 0.0
C11 C 0.25807 0.12816 0.13006 0.0
O12 O 0.28523 0.09791 0.03759 0.0
O13 O 0.25674 0.11059 0.10882 0.0
C14 C 0.12728 0.84093 0.55332 0.0
O15 O 0.13422 0.84008 0.52441 0.0
Cd16 Cd 0.18336 0.84726 0.50549 0.0
O17 O 0.14696 0.84478 0.5744 0.0
Cd18 Cd 0.2019 0.84977 0.5771 0.0
C19 C 0.19911 0.90788 0.53752 0.0
O20 O 0.21146 0.81727 0.53721 0.0
O21 O 0.25024 0.83922 0.55155 0.0
O22 O 0.2021 0.82105 0.62314 0.0
C23 C 0.23933 0.82012 0.53602 0.0
O24 O 0.19394 0.89443 0.5128 0.0
C25 C 0.21444 0.83766 0.64127 0.0
O26 O 0.20182 0.89652 0.56403 0.0
O27 O 0.22113 0.85995 0.62952 0.0
C28 C 0.35859 0.83993 0.9386 0.0
O29 O 0.35766 0.84119 0.96841 0.0
Cd30 Cd 0.31098 0.84581 -0.00389 0.0
O31 O 0.33471 0.84074 0.92256 0.0
Cd32 Cd 0.28063 0.8445 0.92846 0.0
C33 C 0.28753 0.90423 0.9649 0.0
O34 O 0.27664 0.81462 0.97315 0.0
O35 O 0.2358 0.83355 0.9581 0.0
O36 O 0.27432 0.81577 0.88271 0.0
C37 C 0.24879 0.81738 0.97623 0.0
O38 O 0.29678 0.89216 0.98928 0.0
C39 C 0.26081 0.83302 0.86636 0.0
O40 O 0.28147 0.89158 0.93988 0.0
O41 O 0.25599 0.85525 0.87922 0.0
C42 C 0.12412 0.15547 0.43653 0.0
O43 O 0.1312 0.16501 0.46312 0.0
Cd44 Cd 0.18059 0.16289 0.48452 0.0
O45 O 0.1437 0.14492 0.41894 0.0
Cd46 Cd 0.19803 0.13712 0.41926 0.0
C47 C 0.19366 0.09625 0.48231 0.0
O48 O 0.21276 0.17845 0.44355 0.0
O49 O 0.24751 0.14932 0.43918 0.0
O50 O 0.20172 0.14925 0.36401 0.0
C51 C 0.23999 0.17264 0.44664 0.0
O52 O 0.18989 0.11667 0.49936 0.0
C53 C 0.2109 0.1268 0.35492 0.0
O54 O 0.19558 0.09828 0.45258 0.0
O55 O 0.21432 0.10916 0.37584 0.0
C56 C 0.55863 0.87674 0.86192 0.0
O57 O 0.56283 0.89238 0.83896 0.0
Cd58 Cd 0.60923 0.91096 0.8229 0.0
O59 O 0.58018 0.86928 0.87932 0.0
Cd60 Cd 0.63492 0.87723 0.87984 0.0
C61 C 0.62845 0.94413 0.88916 0.0
O62 O 0.63992 0.87239 0.82344 0.0
O63 O 0.68059 0.88182 0.84749 0.0
O64 O 0.64284 0.83345 0.90366 0.0
C65 C 0.6677 0.87571 0.82205 0.0
O66 O 0.62185 0.94631 0.86018 0.0
C67 C 0.66011 0.84223 0.92492 0.0
O68 O 0.63241 0.92151 0.9014 0.0
O69 O 0.6647 0.86695 0.9253 0.0
C70 C 0.92167 0.11727 0.36659 0.0
O71 O 0.92085 0.09685 0.34929 0.0
Cd72 Cd 0.87342 0.07486 0.34208 0.0
O73 O 0.89785 0.12612 0.37861 0.0
Cd74 Cd 0.84459 0.11654 0.38003 0.0
C75 C 0.85717 0.05898 0.4173 0.0
O76 O 0.83456 0.10529 0.3245 0.0
O77 O 0.80055 0.09597 0.35867 0.0
O78 O 0.83949 0.1645 0.38116 0.0
C79 C 0.80791 0.09836 0.33006 0.0
O80 O 0.86368 0.04949 0.39046 0.0
C81 C 0.82195 0.16485 0.40452 0.0
O82 O 0.85127 0.08339 0.42023 0.0
O83 O 0.81436 0.14268 0.41593 0.0
C84 C 0.56216 0.12073 0.11694 0.0
O85 O 0.56929 0.09984 0.13172 0.0
Cd86 Cd 0.61828 0.08219 0.13607 0.0
O87 O 0.58182 0.13491 0.10338 0.0
Cd88 Cd 0.63729 0.13461 0.09804 0.0
C89 C 0.63522 0.0763 0.05786 0.0
O90 O 0.64506 0.12067 0.1518 0.0
O91 O 0.68531 0.12448 0.12512 0.0
O92 O 0.63301 0.18307 0.0958 0.0
C93 C 0.67308 0.11951 0.15127 0.0
O94 O 0.63013 0.06459 0.08381 0.0
C95 C 0.65251 0.18563 0.07441 0.0
O96 O 0.63748 0.10132 0.05677 0.0
O97 O 0.66455 0.16463 0.06427 0.0
C98 C 0.92099 0.85551 0.6194 0.0
O99 O 0.91708 0.87093 0.64255 0.0
Cd100 Cd 0.86785 0.88947 0.6503 0.0
O101 O 0.89931 0.84951 0.60169 0.0
Cd102 Cd 0.84634 0.8558 0.59372 0.0
C103 C 0.85727 0.92043 0.57941 0.0
O104 O 0.82966 0.85571 0.64912 0.0
O105 O 0.798 0.86703 0.61317 0.0
O106 O 0.84959 0.80917 0.58034 0.0
C107 C 0.80313 0.86188 0.64181 0.0
O108 O 0.86103 0.92253 0.609 0.0
C109 C 0.83335 0.81076 0.55602 0.0
O110 O 0.85346 0.89788 0.56677 0.0
O111 O 0.82298 0.83338 0.54913 0.0
C112 C 0.8653 0.65766 0.07215 0.0
O113 O 0.86683 0.66708 0.04452 0.0
Cd114 Cd 0.82355 0.67487 0.01294 0.0
O115 O 0.84015 0.65246 0.08441 0.0
Cd116 Cd 0.7872 0.65562 0.06909 0.0
C117 C 0.79709 0.61226 0.00967 0.0
O118 O 0.78945 0.69921 0.04583 0.0
O119 O 0.74878 0.67776 0.03711 0.0
O120 O 0.77465 0.6664 0.12338 0.0
C121 C 0.76286 0.69946 0.03609 0.0
O122 O 0.80766 0.63129 0.99361 0.0
C123 C 0.75601 0.64773 0.12642 0.0
O124 O 0.78969 0.61569 0.03817 0.0
O125 O 0.75178 0.63301 0.10268 0.0
C126 C 0.62432 0.33373 0.55947 0.0
O127 O 0.62509 0.32527 0.53137 0.0
Cd128 Cd 0.6718 0.32272 0.50314 0.0
O129 O 0.64818 0.34046 0.57334 0.0
Cd130 Cd 0.70181 0.34405 0.566 0.0
C131 C 0.6925 0.38764 0.50638 0.0
O132 O 0.70921 0.30339 0.53685 0.0
O133 O 0.74653 0.33035 0.53837 0.0
O134 O 0.71043 0.33115 0.62069 0.0
C135 C 0.73607 0.30823 0.52973 0.0
O136 O 0.68453 0.3684 0.48898 0.0
C137 C 0.72117 0.35342 0.62852 0.0
O138 O 0.69806 0.38414 0.53538 0.0
O139 O 0.72428 0.37051 0.60692 0.0
C140 C 0.84971 0.35579 0.92434 0.0
O141 O 0.84918 0.35521 0.9542 0.0
Cd142 Cd 0.80343 0.36103 0.98295 0.0
O143 O 0.82583 0.35935 0.90887 0.0
Cd144 Cd 0.77258 0.36677 0.91859 0.0
C145 C 0.78641 0.42301 0.96003 0.0
O146 O 0.76718 0.33225 0.9578 0.0
O147 O 0.72841 0.35668 0.95063 0.0
O148 O 0.763 0.34637 0.86722 0.0
C149 C 0.73991 0.33642 0.9633 0.0
O150 O 0.79382 0.40906 0.98366 0.0
C151 C 0.74956 0.36653 0.85643 0.0
O152 O 0.77948 0.41204 0.93424 0.0
O153 O 0.74549 0.38568 0.87519 0.0
C154 C 0.62564 0.6404 0.44836 0.0
O155 O 0.63646 0.64256 0.47583 0.0
Cd156 Cd 0.68862 0.63858 0.48614 0.0
O157 O 0.64249 0.63678 0.42469 0.0
Cd158 Cd 0.6961 0.63252 0.4134 0.0
C159 C 0.70178 0.57695 0.45798 0.0
O160 O 0.71113 0.66777 0.44779 0.0
O161 O 0.74733 0.64481 0.42872 0.0
O162 O 0.69373 0.65413 0.36165 0.0
C163 C 0.73883 0.66503 0.44388 0.0
O164 O 0.69981 0.59084 0.48284 0.0
C165 C 0.6999 0.63307 0.34676 0.0
O166 O 0.70022 0.58778 0.43116 0.0
O167 O 0.70472 0.61244 0.36286 0.0
C168 C 0.056 0.36912 0.85459 0.0
O169 O 0.06545 0.38284 0.83169 0.0
Cd170 Cd 0.11638 0.39665 0.82784 0.0
O171 O 0.0739 0.36064 0.87547 0.0
Cd172 Cd 0.12797 0.36095 0.88585 0.0
C173 C 0.12595 0.42644 0.89957 0.0
O174 O 0.147 0.35795 0.83166 0.0
O175 O 0.17855 0.36783 0.8681 0.0
O176 O 0.12241 0.31453 0.90025 0.0
C177 C 0.17385 0.36163 0.83968 0.0
O178 O 0.12457 0.42905 0.86982 0.0
C179 C 0.13806 0.31613 0.92502 0.0
O180 O 0.12571 0.4036 0.91208 0.0
O181 O 0.14814 0.33879 0.93215 0.0
C182 C 0.41726 0.61075 0.39217 0.0
O183 O 0.41567 0.5914 0.37323 0.0
Cd184 Cd 0.36838 0.57422 0.35655 0.0
O185 O 0.39382 0.62245 0.40139 0.0
Cd186 Cd 0.33969 0.62188 0.39366 0.0
C187 C 0.33686 0.56161 0.42838 0.0
O188 O 0.34101 0.61197 0.33752 0.0
O189 O 0.29772 0.61164 0.35936 0.0
O190 O 0.34537 0.6698 0.39874 0.0
C191 C 0.31307 0.60994 0.33447 0.0
O192 O 0.34782 0.55206 0.40322 0.0
C193 C 0.32344 0.67253 0.41722 0.0
O194 O 0.33281 0.58636 0.43116 0.0
O195 O 0.30882 0.65183 0.42404 0.0
C196 C 0.06655 0.60705 0.13295 0.0
O197 O 0.07416 0.58636 0.14779 0.0
Cd198 Cd 0.12382 0.56913 0.14545 0.0
O199 O 0.08565 0.62012 0.11725 0.0
Cd200 Cd 0.13951 0.61841 0.10597 0.0
C201 C 0.13283 0.56066 0.06645 0.0
O202 O 0.1571 0.60495 0.15782 0.0
O203 O 0.18938 0.60326 0.1203 0.0
O204 O 0.14538 0.66615 0.11238 0.0
C205 C 0.18397 0.60215 0.14953 0.0
O206 O 0.13012 0.54948 0.09312 0.0
C207 C 0.15435 0.67021 0.08451 0.0
O208 O 0.13516 0.58565 0.06454 0.0
O209 O 0.15572 0.65029 0.06644 0.0
C210 C 0.42052 0.37301 0.62636 0.0
O211 O 0.41234 0.38849 0.64822 0.0
Cd212 Cd 0.36195 0.39843 0.66096 0.0
O213 O 0.40142 0.36148 0.60894 0.0
Cd214 Cd 0.34631 0.35913 0.60475 0.0
C215 C 0.33905 0.42498 0.59111 0.0
O216 O 0.33999 0.35552 0.66093 0.0
O217 O 0.29904 0.35859 0.63526 0.0
O218 O 0.35502 0.31405 0.58605 0.0
C219 C 0.31195 0.35526 0.66145 0.0
O220 O 0.34358 0.42855 0.62035 0.0
C221 C 0.3354 0.31502 0.5646 0.0
O222 O 0.34075 0.40199 0.57914 0.0
O223 O 0.32128 0.33659 0.56162 0.0
H224 H 0.24655 0.22556 0.02563 0.0
H225 H 0.18606 0.16034 0.00823 0.0
H226 H 0.15155 0.19075 0.9812 0.0
H227 H 0.18913 0.27517 0.04016 0.0
H228 H 0.20982 0.30115 0.02114 0.0
H229 H 0.22919 0.27442 0.04022 0.0
H230 H 0.25734 0.26429 0.98845 0.0
H231 H 0.23815 0.291 0.96927 0.0
H232 H 0.23649 0.25815 0.95298 0.0
H233 H 0.12565 0.22753 0.95246 0.0
H234 H 0.10944 0.26847 0.92567 0.0
H235 H 0.18549 0.31001 0.96436 0.0
C236 C 0.22596 0.21771 0.01629 0.0
C237 C 0.21899 0.1906 0.01892 0.0
C238 C 0.1918 0.18107 0.0065 0.0
C239 C 0.17205 0.19818 0.99114 0.0
C240 C 0.17966 0.22479 0.9888 0.0
C241 C 0.20584 0.23456 0.00126 0.0
C242 C 0.20901 0.26387 -0.00496 0.0
C243 C 0.20929 0.27958 0.02599 0.0
C244 C 0.23689 0.26965 0.97525 0.0
C245 C 0.18084 0.26896 0.97655 0.0
C246 C 0.1642 0.24617 0.97321 0.0
C247 C 0.13824 0.2456 0.95532 0.0
C248 C 0.12923 0.26889 0.94018 0.0
C249 C 0.14602 0.29241 0.9433 0.0
C250 C 0.17189 0.29245 0.96211 0.0
H251 H 0.27119 0.68645 0.4449 0.0
H252 H 0.3587 0.71657 0.42153 0.0
H253 H 0.34692 0.75851 0.44885 0.0
H254 H 0.23203 0.74873 0.43439 0.0
H255 H 0.20681 0.74222 0.46638 0.0
H256 H 0.22219 0.71518 0.44418 0.0
H257 H 0.24228 0.69438 0.49572 0.0
H258 H 0.22715 0.72142 0.51803 0.0
H259 H 0.26614 0.71362 0.52095 0.0
H260 H 0.32623 0.79605 0.48248 0.0
H261 H 0.2969 0.82705 0.51539 0.0
H262 H 0.22279 0.77221 0.51369 0.0
C263 C 0.28781 0.70193 0.44531 0.0
C264 C 0.31586 0.69831 0.43125 0.0
C265 C 0.33699 0.71906 0.43211 0.0
C266 C 0.33054 0.74287 0.44764 0.0
C267 C 0.30275 0.74566 0.46172 0.0
C268 C 0.28161 0.72584 0.46025 0.0
C269 C 0.25342 0.73358 0.47714 0.0
C270 C 0.22706 0.73502 0.45415 0.0
C271 C 0.24689 0.71462 0.50459 0.0
C272 C 0.2621 0.76068 0.48882 0.0
C273 C 0.29065 0.76736 0.47991 0.0
C274 C 0.30372 0.79113 0.48927 0.0
C275 C 0.287 0.80854 0.50801 0.0
C276 C 0.25755 0.80208 0.51681 0.0
C277 C 0.24512 0.77785 0.507 0.0
H278 H 0.2155 0.77478 0.96072 0.0
H279 H 0.24592 0.82139 0.03979 0.0
H280 H 0.22018 0.79084 0.07645 0.0
H281 H 0.14303 0.75437 0.99348 0.0
H282 H 0.14579 0.72155 0.97729 0.0
H283 H 0.16311 0.74897 0.95738 0.0
H284 H 0.21372 0.72453 0.95887 0.0
H285 H 0.19659 0.6971 0.97875 0.0
H286 H 0.22829 0.71334 -0.00394 0.0
H287 H 0.19317 0.75405 0.1042 0.0
H288 H 0.17098 0.71179 0.1215 0.0
H289 H 0.16132 0.6877 0.02412 0.0
C290 C 0.21609 0.77874 0.98575 0.0
C291 C 0.23199 0.80047 -0.00227 0.0
C292 C 0.23334 0.80489 0.03047 0.0
C293 C 0.21877 0.78774 0.05132 0.0
C294 C 0.20336 0.76622 0.03886 0.0
C295 C 0.20213 0.76156 0.00683 0.0
C296 C 0.18665 0.73571 -0.00037 0.0
C297 C 0.15794 0.74045 0.98084 0.0
C298 C 0.20757 0.71655 0.98232 0.0
C299 C 0.17992 0.72625 0.03261 0.0
C300 C 0.18913 0.74438 0.05488 0.0
C301 C 0.18575 0.73976 0.08698 0.0
C302 C 0.17308 0.71574 0.09657 0.0
C303 C 0.16452 0.69652 0.07413 0.0
C304 C 0.16768 0.70205 0.04177 0.0
H305 H 0.28667 0.30796 0.52734 0.0
H306 H 0.36768 0.2694 0.55834 0.0
H307 H 0.35393 0.22954 0.52794 0.0
H308 H 0.24082 0.25232 0.53466 0.0
H309 H 0.21823 0.25978 0.50079 0.0
H310 H 0.23601 0.28609 0.52213 0.0
H311 H 0.26155 0.30206 0.4709 0.0
H312 H 0.24376 0.27579 0.44935 0.0
H313 H 0.28363 0.27919 0.44832 0.0
H314 H 0.32986 0.1931 0.49624 0.0
H315 H 0.29645 0.16245 0.46783 0.0
H316 H 0.23069 0.2248 0.45953 0.0
C317 C 0.30179 0.29131 0.52729 0.0
C318 C 0.32835 0.2918 0.54496 0.0
C319 C 0.34726 0.26944 0.54483 0.0
C320 C 0.33969 0.24677 0.52758 0.0
C321 C 0.3131 0.24681 0.51073 0.0
C322 C 0.29443 0.2685 0.51053 0.0
C323 C 0.26617 0.26294 0.49244 0.0
C324 C 0.23869 0.26542 0.51379 0.0
C325 C 0.26365 0.28107 0.46353 0.0
C326 C 0.2716 0.23458 0.4829 0.0
C327 C 0.29894 0.2257 0.49327 0.0
C328 C 0.30847 0.19989 0.48785 0.0
C329 C 0.28937 0.18264 0.4717 0.0
C330 C 0.26099 0.19125 0.46155 0.0
C331 C 0.25226 0.21764 0.467 0.0
H332 H 0.71481 0.70452 -0.00342 0.0
H333 H 0.78066 0.74966 0.0484 0.0
H334 H 0.75882 0.79108 0.02847 0.0
H335 H 0.71631 0.74509 0.92829 0.0
H336 H 0.67713 0.74216 0.92013 0.0
H337 H 0.69624 0.71601 0.9405 0.0
H338 H 0.65859 0.71939 0.98641 0.0
H339 H 0.6394 0.74564 0.9662 0.0
H340 H 0.65296 0.75075 0.00562 0.0
H341 H 0.73114 0.82726 0.00247 0.0
H342 H 0.7015 0.85645 0.96844 0.0
H343 H 0.6546 0.78824 0.93115 0.0
C344 C 0.72436 0.72316 0.00396 0.0
C345 C 0.74928 0.72398 0.02415 0.0
C346 C 0.76157 0.74865 0.03291 0.0
C347 C 0.74924 0.77227 0.02187 0.0
C348 C 0.72479 0.77084 0.00189 0.0
C349 C 0.71259 0.74698 0.99274 0.0
C350 C 0.68757 0.75108 0.96933 0.0
C351 C 0.69476 0.7378 0.93769 0.0
C352 C 0.65787 0.74112 0.9827 0.0
C353 C 0.6879 0.78093 0.96657 0.0
C354 C 0.70927 0.79188 0.98594 0.0
C355 C 0.71427 0.81898 0.98724 0.0
C356 C 0.69727 0.83539 0.96781 0.0
C357 C 0.67575 0.82462 0.94712 0.0
C358 C 0.67081 0.79704 0.9468 0.0
H359 H 0.77555 0.17223 0.44509 0.0
H360 H 0.84632 0.21382 0.39652 0.0
H361 H 0.83213 0.25516 0.42353 0.0
H362 H 0.72204 0.22607 0.4416 0.0
H363 H 0.7068 0.21877 0.47982 0.0
H364 H 0.72237 0.19264 0.45628 0.0
H365 H 0.7578 0.18027 0.50207 0.0
H366 H 0.74251 0.2065 0.52565 0.0
H367 H 0.78195 0.20517 0.51841 0.0
H368 H 0.81233 0.2911 0.45837 0.0
H369 H 0.78502 0.32042 0.4947 0.0
H370 H 0.72552 0.25588 0.5183 0.0
C371 C 0.78793 0.19008 0.44 0.0
C372 C 0.81207 0.18988 0.41883 0.0
C373 C 0.82766 0.21361 0.4126 0.0
C374 C 0.81986 0.23714 0.4279 0.0
C375 C 0.79619 0.23658 0.44899 0.0
C376 C 0.78016 0.21378 0.45469 0.0
C377 C 0.75545 0.21859 0.47813 0.0
C378 C 0.72486 0.21374 0.46304 0.0
C379 C 0.7597 0.20163 0.50782 0.0
C380 C 0.76032 0.2476 0.48501 0.0
C381 C 0.78408 0.25755 0.46817 0.0
C382 C 0.7935 0.28362 0.47145 0.0
C383 C 0.77796 0.30006 0.49223 0.0
C384 C 0.75311 0.2904 0.50913 0.0
C385 C 0.74429 0.26382 0.50545 0.0
H386 H 0.75411 0.28572 0.97856 0.0
H387 H 0.68598 0.34536 0.99151 0.0
H388 H 0.65667 0.3138 0.02351 0.0
H389 H 0.70435 0.23179 0.96868 0.0
H390 H 0.72793 0.2084 0.98868 0.0
H391 H 0.7441 0.23624 0.96867 0.0
H392 H 0.77068 0.25032 0.02013 0.0
H393 H 0.75457 0.2225 0.04031 0.0
H394 H 0.7491 0.25545 0.0553 0.0
H395 H 0.63505 0.27522 0.05437 0.0
H396 H 0.62137 0.23216 0.07809 0.0
H397 H 0.70275 0.19783 0.04181 0.0
C398 C 0.73316 0.29225 0.98837 0.0
C399 C 0.72238 0.31802 0.98284 0.0
C400 C 0.69463 0.32568 -0.00441 0.0
C401 C 0.67791 0.30794 0.01383 0.0
C402 C 0.68917 0.28259 0.01875 0.0
C403 C 0.71606 0.27474 0.00614 0.0
C404 C 0.72262 0.24608 0.01342 0.0
C405 C 0.72487 0.22967 0.98306 0.0
C406 C 0.75092 0.24345 0.03349 0.0
C407 C 0.69519 0.23894 0.03206 0.0
C408 C 0.67628 0.26029 0.03527 0.0
C409 C 0.64966 0.25836 0.05191 0.0
C410 C 0.6421 0.23389 0.06534 0.0
C411 C 0.66092 0.21169 0.0616 0.0
C412 C 0.68781 0.21441 0.04485 0.0
H413 H 0.78366 0.80221 0.52085 0.0
H414 H 0.8665 0.76587 0.54991 0.0
H415 H 0.85325 0.72535 0.52044 0.0
H416 H 0.74016 0.7452 0.53141 0.0
H417 H 0.71589 0.75159 0.49854 0.0
H418 H 0.73357 0.77866 0.51861 0.0
H419 H 0.75628 0.79473 0.46594 0.0
H420 H 0.73862 0.76769 0.44568 0.0
H421 H 0.77825 0.77225 0.4427 0.0
H422 H 0.83001 0.68833 0.48874 0.0
H423 H 0.79668 0.65655 0.4617 0.0
H424 H 0.72792 0.71648 0.45737 0.0
C425 C 0.79923 0.78589 0.52048 0.0
C426 C 0.82623 0.78716 0.53723 0.0
C427 C 0.84574 0.76522 0.53703 0.0
C428 C 0.83848 0.74222 0.52027 0.0
C429 C 0.81147 0.74146 0.50424 0.0
C430 C 0.79204 0.76265 0.50449 0.0
C431 C 0.76329 0.75605 0.48786 0.0
C432 C 0.73667 0.75798 0.51046 0.0
C433 C 0.75886 0.77373 0.45882 0.0
C434 C 0.7694 0.72775 0.47853 0.0
C435 C 0.7975 0.7198 0.48759 0.0
C436 C 0.80796 0.69434 0.48152 0.0
C437 C 0.78897 0.67647 0.46614 0.0
C438 C 0.75979 0.6841 0.45773 0.0
C439 C 0.7501 0.71011 0.46378 0.0
H440 H 0.29177 0.04805 0.04075 0.0
H441 H 0.2853 0.08017 0.94631 0.0
H442 H 0.2822 0.03478 0.92491 0.0
H443 H 0.33814 0.99321 0.02074 0.0
H444 H 0.32081 0.97111 0.04846 0.0
H445 H 0.32156 0.00608 0.05615 0.0
H446 H 0.2642 0.00621 0.06181 0.0
H447 H 0.26324 0.97124 0.054 0.0
H448 H 0.24157 0.99355 0.03021 0.0
H449 H 0.27917 0.98581 0.91414 0.0
H450 H 0.28 0.93704 0.91427 0.0
H451 H 0.29013 0.93742 0.01583 0.0
C452 C 0.28958 0.0456 0.01555 0.0
C453 C 0.28861 0.06765 -0.00482 0.0
C454 C 0.28611 0.06355 0.96234 0.0
C455 C 0.28421 0.03788 0.95 0.0
C456 C 0.28509 0.0166 0.97082 0.0
C457 C 0.28798 0.02021 0.00287 0.0
C458 C 0.28938 0.9941 0.02014 0.0
C459 C 0.31925 0.99095 0.03738 0.0
C460 C 0.26302 0.99111 0.04288 0.0
C461 C 0.28687 0.97515 0.99279 0.0
C462 C 0.28414 0.98849 0.96457 0.0
C463 C 0.28136 0.97515 0.93609 0.0
C464 C 0.28177 0.94745 0.93644 0.0
C465 C 0.2852 0.93339 0.96506 0.0
C466 C 0.28757 0.94755 0.99356 0.0
H467 H 0.19744 0.93884 0.48452 0.0
H468 H 0.20428 0.94303 0.58628 0.0
H469 H 0.20453 0.99173 0.58332 0.0
H470 H 0.24533 -0.00512 0.468 0.0
H471 H 0.22333 0.00571 0.43498 0.0
H472 H 0.22461 0.97117 0.44516 0.0
H473 H 0.16713 0.97028 0.44914 0.0
H474 H 0.16567 0.00482 0.43911 0.0
H475 H 0.14858 0.99327 0.47488 0.0
H476 H 0.20173 0.04009 0.56936 0.0
H477 H 0.1981 0.0844 0.54518 0.0
H478 H 0.19395 0.04821 0.45269 0.0
C479 C 0.19919 0.94994 0.5062 0.0
C480 C 0.20081 0.93706 0.53563 0.0
C481 C 0.20307 0.95241 0.56343 0.0
C482 C 0.20319 0.9801 0.56201 0.0
C483 C 0.20123 0.99214 0.53263 0.0
C484 C 0.19948 0.97756 0.50522 0.0
C485 C 0.19727 -0.00472 0.47666 0.0
C486 C 0.22424 0.99154 0.45493 0.0
C487 C 0.16791 0.99063 0.45892 0.0
C488 C 0.19774 0.02212 0.49231 0.0
C489 C 0.20001 0.01992 0.5246 0.0
C490 C 0.20014 0.04207 0.54407 0.0
C491 C 0.19799 0.06714 0.53013 0.0
C492 C 0.19584 0.06981 0.49704 0.0
C493 C 0.19577 0.0469 0.47803 0.0
H494 H 0.63195 0.94584 0.95329 0.0
H495 H 0.63081 -0.00384 0.87058 0.0
H496 H 0.63485 0.03558 0.90474 0.0
H497 H 0.58706 0.98719 0.00101 0.0
H498 H 0.60701 0.97996 0.03676 0.0
H499 H 0.60565 0.95587 0.00567 0.0
H500 H 0.66322 0.95419 0.00459 0.0
H501 H 0.66478 0.97833 0.03567 0.0
H502 H 0.68398 0.98433 -0.00083 0.0
H503 H 0.63826 0.06943 0.94826 0.0
H504 H 0.63831 0.09521 -0.00249 0.0
H505 H 0.63596 0.02231 0.05139 0.0
C506 C 0.6328 0.96511 0.94224 0.0
C507 C 0.63122 0.96791 0.90921 0.0
C508 C 0.63201 0.99354 0.89582 0.0
C509 C 0.63439 0.01601 0.91502 0.0
C510 C 0.63583 0.01249 0.94751 0.0
C511 C 0.63492 0.98767 0.96099 0.0
C512 C 0.63559 0.9892 -0.00348 0.0
C513 C 0.60713 0.97736 0.01082 0.0
C514 C 0.66356 0.97572 0.00976 0.0
C515 C 0.63681 0.01881 0.00101 0.0
C516 C 0.6372 0.03191 0.97249 0.0
C517 C 0.63801 0.05938 0.97072 0.0
C518 C 0.63808 0.07384 -0.00114 0.0
C519 C 0.63711 0.06081 0.02838 0.0
C520 C 0.63672 0.0329 0.02928 0.0
H521 H 0.85984 0.00458 0.42014 0.0
H522 H 0.85367 0.07483 0.47849 0.0
H523 H 0.85337 0.04699 0.52594 0.0
H524 H 0.81105 0.96427 0.46722 0.0
H525 H 0.83211 0.93438 0.46137 0.0
H526 H 0.83233 0.9598 0.43171 0.0
H527 H 0.88984 0.96164 0.43427 0.0
H528 H 0.8898 0.93624 0.46394 0.0
H529 H 0.90787 0.96739 0.47151 0.0
H530 H 0.85449 0.01203 0.56705 0.0
H531 H 0.85511 0.97169 0.59949 0.0
H532 H 0.8592 0.92378 0.51484 0.0
C533 C 0.85849 0.0141 0.44289 0.0
C534 C 0.85683 0.04191 0.44555 0.0
C535 C 0.85489 0.05358 0.47579 0.0
C536 C 0.85477 0.03795 0.50294 0.0
C537 C 0.85642 0.01065 0.4995 0.0
C538 C 0.8581 -0.00124 0.47031 0.0
C539 C 0.85918 0.96893 0.47332 0.0
C540 C 0.83205 0.9561 0.45747 0.0
C541 C 0.88842 0.95791 0.45997 0.0
C542 C 0.85792 0.966 0.50876 0.0
C543 C 0.85649 0.99034 0.52336 0.0
C544 C 0.85552 0.99283 0.55593 0.0
C545 C 0.85594 0.96978 0.57415 0.0
C546 C 0.85713 0.94455 0.55974 0.0
C547 C 0.85812 0.94274 0.52657 0.0
H548 H 0.78805 0.45479 0.01269 0.0
H549 H 0.7858 0.4573 0.91062 0.0
H550 H 0.78768 0.50589 0.91214 0.0
H551 H 0.74122 0.51224 0.02447 0.0
H552 H 0.76159 0.52357 0.05839 0.0
H553 H 0.7601 0.48881 0.0494 0.0
H554 H 0.81767 0.48687 0.04897 0.0
H555 H 0.81932 0.52162 0.05795 0.0
H556 H 0.83812 0.50896 0.02371 0.0
H557 H 0.79209 0.55412 0.92442 0.0
H558 H 0.79585 0.599 0.94716 0.0
H559 H 0.7928 0.56527 0.04098 0.0
C560 C 0.78792 0.46557 0.99069 0.0
C561 C 0.78682 0.45221 0.96156 0.0
C562 C 0.78651 0.46706 0.93327 0.0
C563 C 0.78765 0.4947 0.93383 0.0
C564 C 0.78878 0.50726 0.96288 0.0
C565 C 0.78866 0.49324 0.9908 0.0
C566 C 0.78967 0.51167 0.01882 0.0
C567 C 0.76146 0.50891 0.03895 0.0
C568 C 0.81788 0.507 0.03851 0.0
C569 C 0.79067 0.53814 0.00221 0.0
C570 C 0.79031 0.53517 0.96995 0.0
C571 C 0.79212 0.55676 0.94967 0.0
C572 C 0.79431 0.58213 0.96276 0.0
C573 C 0.79435 0.58562 -0.00423 0.0
C574 C 0.7924 0.56327 0.01563 0.0
H575 H 0.69621 0.43449 0.53834 0.0
H576 H 0.69535 0.40136 0.44413 0.0
H577 H 0.70068 0.44622 0.42192 0.0
H578 H 0.65274 0.49124 0.52021 0.0
H579 H 0.67283 0.5129 0.5463 0.0
H580 H 0.67061 0.47811 0.55481 0.0
H581 H 0.7281 0.47551 0.55687 0.0
H582 H 0.73052 0.51031 0.54824 0.0
H583 H 0.74954 0.48675 0.52366 0.0
H584 H 0.70543 0.49423 0.41004 0.0
H585 H 0.70595 0.54276 0.40859 0.0
H586 H 0.70234 0.54505 0.51068 0.0
C587 C 0.69737 0.43662 0.51303 0.0
C588 C 0.69553 0.41441 0.49293 0.0
C589 C 0.69671 0.41808 0.45995 0.0
C590 C 0.69987 0.44345 0.44714 0.0
C591 C 0.70166 0.46487 0.46764 0.0
C592 C 0.70025 0.46177 0.49985 0.0
C593 C 0.70127 0.48819 0.5166 0.0
C594 C 0.67266 0.49288 0.53559 0.0
C595 C 0.72901 0.4903 0.53758 0.0
C596 C 0.70325 0.50668 0.4887 0.0
C597 C 0.70377 0.49275 0.46074 0.0
C598 C 0.70508 0.50537 0.43175 0.0
C599 C 0.70537 0.533 0.43125 0.0
C600 C 0.70414 0.54781 0.45956 0.0
C601 C 0.70343 0.53436 0.48866 0.0
H602 H 0.12945 0.50658 0.0612 0.0
H603 H 0.13628 0.57843 0.00572 0.0
H604 H 0.13559 0.55191 0.95711 0.0
H605 H 0.17637 0.4664 0.01183 0.0
H606 H 0.15432 0.43698 0.01707 0.0
H607 H 0.15556 0.46162 0.0476 0.0
H608 H 0.0981 0.46512 0.0463 0.0
H609 H 0.09668 0.44052 0.01575 0.0
H610 H 0.07964 0.47234 0.00965 0.0
H611 H 0.13337 0.51773 0.9145 0.0
H612 H 0.13047 0.47813 0.88082 0.0
H613 H 0.12548 0.4286 0.96412 0.0
C614 C 0.13087 0.51677 0.03886 0.0
C615 C 0.13291 0.54462 0.03734 0.0
C616 C 0.13472 0.55713 0.00756 0.0
C617 C 0.13433 0.54224 0.97978 0.0
C618 C 0.1322 0.51487 0.98214 0.0
C619 C 0.13057 0.50223 0.01089 0.0
C620 C 0.12833 0.47257 0.00689 0.0
C621 C 0.15525 0.45857 0.02172 0.0
C622 C 0.09893 0.46203 0.02045 0.0
C623 C 0.12887 0.47053 0.97139 0.0
C624 C 0.13109 0.49515 0.95756 0.0
C625 C 0.1317 0.49832 0.92504 0.0
C626 C 0.13001 0.47569 0.90611 0.0
C627 C 0.12779 0.45021 0.91978 0.0
C628 C 0.12725 0.44774 0.95289 0.0
H629 H 0.34382 0.50768 0.43198 0.0
H630 H 0.3163 0.57601 0.48648 0.0
H631 H 0.31038 0.54773 0.53321 0.0
H632 H 0.29395 0.45967 0.47075 0.0
H633 H 0.32125 0.43365 0.4692 0.0
H634 H 0.32072 0.45884 0.43924 0.0
H635 H 0.37593 0.46961 0.451 0.0
H636 H 0.37661 0.44459 0.48106 0.0
H637 H 0.38684 0.4781 0.49053 0.0
H638 H 0.31242 0.51317 0.57521 0.0
H639 H 0.32006 0.47408 0.60903 0.0
H640 H 0.34481 0.42798 0.52706 0.0
C641 C 0.33605 0.51665 0.45357 0.0
C642 C 0.33053 0.5441 0.45548 0.0
C643 C 0.32062 0.55504 0.48433 0.0
C644 C 0.31715 0.53913 0.51104 0.0
C645 C 0.32338 0.51228 0.5085 0.0
C646 C 0.33232 0.50104 0.48045 0.0
C647 C 0.33891 0.47188 0.48443 0.0
C648 C 0.31742 0.45501 0.46474 0.0
C649 C 0.37151 0.4657 0.47628 0.0
C650 C 0.33303 0.46866 0.51927 0.0
C651 C 0.32399 0.49218 0.53269 0.0
C652 C 0.31904 0.49453 0.5649 0.0
C653 C 0.32355 0.47226 0.58393 0.0
C654 C 0.33281 0.44795 0.57066 0.0
C655 C 0.33726 0.44617 0.53783 0.0
H656 H 0.53209 0.14523 0.06882 0.0
H657 H 0.52095 0.11269 0.16246 0.0
H658 H 0.46729 0.1224 0.16017 0.0
H659 H 0.47421 0.19736 0.0743 0.0
H660 H 0.46193 0.19228 0.0344 0.0
H661 H 0.50017 0.18626 0.04486 0.0
H662 H 0.49604 0.13859 0.02307 0.0
H663 H 0.45786 0.14444 0.0126 0.0
H664 H 0.46731 0.11703 0.03777 0.0
H665 H 0.41505 0.13233 0.14677 0.0
H666 H 0.36636 0.1394 0.12193 0.0
H667 H 0.41011 0.16387 0.03563 0.0
C668 C 0.51838 0.14077 0.08906 0.0
C669 C 0.53059 0.12848 0.11596 0.0
C670 C 0.51196 0.12217 0.14169 0.0
C671 C 0.48152 0.12774 0.14067 0.0
C672 C 0.47001 0.13943 0.11365 0.0
C673 C 0.48774 0.14577 0.08821 0.0
C674 C 0.46915 0.15575 0.0609 0.0
C675 C 0.47683 0.18463 0.05317 0.0
C676 C 0.47281 0.13788 0.03188 0.0
C677 C 0.43822 0.15345 0.07479 0.0
C678 C 0.43938 0.14443 0.10543 0.0
C679 C 0.41381 0.13961 0.12287 0.0
C680 C 0.38622 0.14365 0.10848 0.0
C681 C 0.38433 0.15219 0.07678 0.0
C682 C 0.41077 0.15756 0.05995 0.0
H683 H 0.9755 0.87209 0.64189 0.0
H684 H 0.93389 0.81686 0.57718 0.0
H685 H 0.98295 0.80434 0.55688 0.0
H686 H 0.02857 0.89565 0.59056 0.0
H687 H 0.05847 0.8983 0.61861 0.0
H688 H 0.02055 0.90056 0.63168 0.0
H689 H 0.02928 0.86214 0.67088 0.0
H690 H 0.06741 0.85993 0.65816 0.0
H691 H 0.04383 0.83115 0.65673 0.0
H692 H 0.03446 0.80274 0.53776 0.0
H693 H 0.08726 0.80918 0.52417 0.0
H694 H 0.09708 0.86348 0.60243 0.0
C695 C 0.97681 0.85684 0.6241 0.0
C696 C 0.95083 0.84553 0.6111 0.0
C697 C 0.95344 0.82591 0.58746 0.0
C698 C 0.98123 0.81856 0.57579 0.0
C699 C 0.0063 0.83073 0.58824 0.0
C700 C 0.00454 0.84912 0.6122 0.0
C701 C 0.03496 0.86037 0.6198 0.0
C702 C 0.03566 0.8905 0.61485 0.0
C703 C 0.04442 0.85294 0.65339 0.0
C704 C 0.05374 0.84616 0.59553 0.0
C705 C 0.03669 0.8291 0.57769 0.0
C706 C 0.04826 0.81554 0.55199 0.0
C707 C 0.07815 0.81947 0.54431 0.0
C708 C 0.09614 0.8366 0.56246 0.0
C709 C 0.08386 0.84986 0.58861 0.0
H710 H 0.41497 0.84338 0.96384 0.0
H711 H 0.36739 0.8364 0.87527 0.0
H712 H 0.4144 0.8412 0.84648 0.0
H713 H 0.46386 0.89255 0.94026 0.0
H714 H 0.49587 0.88016 0.96108 0.0
H715 H 0.45911 0.87297 0.97533 0.0
H716 H 0.47049 0.82281 0.97352 0.0
H717 H 0.50744 0.82985 0.95947 0.0
H718 H 0.48345 0.80815 0.93742 0.0
H719 H 0.46445 0.8527 0.8271 0.0
H720 H 0.51612 0.8671 0.81817 0.0
H721 H 0.53272 0.86473 0.91864 0.0
C722 C 0.41454 0.84225 0.93842 0.0
C723 C 0.38742 0.83953 0.92187 0.0
C724 C 0.3878 0.83847 0.88856 0.0
C725 C 0.41443 0.84113 0.87192 0.0
C726 C 0.44059 0.84452 0.88888 0.0
C727 C 0.44103 0.84473 0.92137 0.0
C728 C 0.47208 0.85018 0.93368 0.0
C729 C 0.47275 0.87547 0.95376 0.0
C730 C 0.48407 0.82632 0.95211 0.0
C731 C 0.48872 0.85389 0.90301 0.0
C732 C 0.47006 0.85043 0.8775 0.0
C733 C 0.47948 0.85493 0.8468 0.0
C734 C 0.50877 0.86326 0.84198 0.0
C735 C 0.52836 0.86676 0.8677 0.0
C736 C 0.5183 0.86167 0.89856 0.0
H737 H 0.09694 0.12322 0.39347 0.0
H738 H 0.08047 0.18887 0.45677 0.0
H739 H 0.02761 0.18892 0.44116 0.0
H740 H 0.04378 0.14237 0.3316 0.0
H741 H 0.03246 0.10873 0.3244 0.0
H742 H 0.06967 0.11569 0.33779 0.0
H743 H 0.06217 0.08395 0.38496 0.0
H744 H 0.02503 0.07688 0.37171 0.0
H745 H 0.03112 0.08897 0.41106 0.0
H746 H 0.97655 0.1804 0.42126 0.0
H747 H 0.92958 0.16207 0.40128 0.0
H748 H 0.97847 0.10068 0.3521 0.0
C749 C 0.0823 0.13791 0.4036 0.0
C750 C 0.09281 0.15621 0.42613 0.0
C751 C 0.07287 0.17472 0.43943 0.0
C752 C 0.04287 0.17499 0.43058 0.0
C753 C 0.03316 0.15654 0.40854 0.0
C754 C 0.05219 0.13823 0.39534 0.0
C755 C 0.03555 0.11912 0.37425 0.0
C756 C 0.04599 0.12164 0.33998 0.0
C757 C 0.03865 0.09055 0.38623 0.0
C758 C 0.00409 0.12925 0.37817 0.0
C759 C 0.00335 0.15111 0.39764 0.0
C760 C 0.97683 0.1634 0.40582 0.0
C761 C 0.95024 0.15278 0.39433 0.0
C762 C 0.95027 0.12988 0.3751 0.0
C763 C 0.97768 0.1183 0.3665 0.0
H764 H 0.03982 0.64061 0.0913 0.0
H765 H 0.02193 0.59129 0.17265 0.0
H766 H 0.96858 0.60248 0.16893 0.0
H767 H 0.98351 0.69178 0.10713 0.0
H768 H 0.97429 0.69516 0.06607 0.0
H769 H 0.01141 0.68587 0.07755 0.0
H770 H 0.00781 0.64403 0.0426 0.0
H771 H 0.97073 0.65312 0.0311 0.0
H772 H 0.97755 0.6212 0.04849 0.0
H773 H 0.91686 0.61655 0.15404 0.0
H774 H 0.87058 0.63073 0.12783 0.0
H775 H 0.92253 0.66962 0.05527 0.0
C776 C 0.02481 0.6326 0.10877 0.0
C777 C 0.03504 0.61525 0.13243 0.0
C778 C 0.01457 0.6047 0.15439 0.0
C779 C 0.98426 0.61102 0.15254 0.0
C780 C 0.97485 0.62785 0.12858 0.0
C781 C -0.00548 0.63846 0.10706 0.0
C782 C 0.9785 0.65419 0.08199 0.0
C783 C 0.98746 0.68349 0.08328 0.0
C784 C 0.98397 0.64242 0.04911 0.0
C785 C 0.94666 0.6503 0.09234 0.0
C786 C 0.94502 0.6354 0.11953 0.0
C787 C 0.91787 0.62842 0.13289 0.0
C788 C 0.8917 0.63657 0.11782 0.0
C789 C 0.8929 0.65129 0.08947 0.0
C790 C 0.92082 0.65848 0.07694 0.0
H791 H 0.56752 0.3268 0.53623 0.0
H792 H 0.6164 0.35028 0.61988 0.0
H793 H 0.56947 0.36141 0.64618 0.0
H794 H 0.51387 0.37739 0.53924 0.0
H795 H 0.48314 0.35719 0.52648 0.0
H796 H 0.52039 0.34906 0.51449 0.0
H797 H 0.51447 0.30202 0.53775 0.0
H798 H 0.47706 0.30993 0.54957 0.0
H799 H 0.50346 0.29817 0.57824 0.0
H800 H 0.51845 0.37359 0.66203 0.0
H801 H 0.46511 0.3831 0.66809 0.0
H802 H 0.44829 0.35073 0.57515 0.0
C803 C 0.56831 0.33386 0.56024 0.0
C804 C 0.5957 0.33769 0.57591 0.0
C805 C 0.59576 0.34719 0.60729 0.0
C806 C 0.5692 0.35359 0.6225 0.0
C807 C 0.5427 0.35019 0.60618 0.0
C808 C 0.5419 0.34027 0.57592 0.0
C809 C 0.5103 0.33928 0.56356 0.0
C810 C 0.50673 0.35678 0.53421 0.0
C811 C 0.50077 0.31064 0.5569 0.0
C812 C 0.49366 0.35064 0.59142 0.0
C813 C 0.51285 0.3568 0.61569 0.0
C814 C 0.50309 0.36858 0.64337 0.0
C815 C 0.47276 0.37404 0.6465 0.0
C816 C 0.45252 0.36758 0.62214 0.0
C817 C 0.46319 0.35567 0.59428 0.0
H818 H 0.02593 0.35514 0.90793 0.0
H819 H 0.01336 0.37221 0.80878 0.0
H820 H 0.95918 0.36636 0.81511 0.0
H821 H 0.9656 0.30634 0.91617 0.0
H822 H 0.95541 0.31819 0.95465 0.0
H823 H -0.00659 0.32061 0.94155 0.0
H824 H -0.00724 0.37101 0.95237 0.0
H825 H 0.95482 0.36877 0.96541 0.0
H826 H 0.96458 0.39123 0.93418 0.0
H827 H 0.90649 0.36153 0.83281 0.0
H828 H 0.85868 0.36029 0.86094 0.0
H829 H 0.90552 0.34787 0.94908 0.0
C830 C 0.01185 0.35711 0.8874 0.0
C831 C 0.02384 0.3639 0.85779 0.0
C832 C 0.00462 0.36693 0.83166 0.0
C833 C 0.97386 0.36353 0.83499 0.0
C834 C 0.96272 0.35722 0.86462 0.0
C835 C 0.9811 0.35411 0.8904 0.0
C836 C 0.96334 0.34951 0.92014 0.0
C837 C 0.96983 0.32202 0.93393 0.0
C838 C 0.96923 0.37144 0.94444 0.0
C839 C 0.93206 0.35108 0.90717 0.0
C840 C 0.93222 0.35512 0.87503 0.0
C841 C 0.90606 0.35816 0.85794 0.0
C842 C 0.879 0.35745 0.87418 0.0
C843 C 0.8783 0.354 0.90727 0.0
C844 C 0.90525 0.35041 0.9238 0.0
H845 H 0.59397 0.6186 0.40016 0.0
H846 H 0.58409 0.66277 0.48699 0.0
H847 H 0.52948 0.66188 0.48052 0.0
H848 H 0.53192 0.64796 0.35762 0.0
H849 H 0.52141 0.61715 0.33948 0.0
H850 H 0.55969 0.62318 0.34966 0.0
H851 H 0.56047 0.58013 0.38271 0.0
H852 H 0.5222 0.57401 0.37274 0.0
H853 H 0.53334 0.57558 0.41342 0.0
H854 H 0.47623 0.65544 0.46508 0.0
H855 H 0.4277 0.64175 0.44354 0.0
H856 H 0.47252 0.59968 0.36827 0.0
C857 C 0.58033 0.62844 0.41756 0.0
C858 C 0.59317 0.64098 0.44393 0.0
C859 C 0.57462 0.65312 0.46658 0.0
C860 C 0.54365 0.65279 0.46305 0.0
C861 C 0.53169 0.64002 0.43691 0.0
C862 C 0.54943 0.62792 0.41466 0.0
C863 C 0.53099 0.6141 0.38984 0.0
C864 C 0.53632 0.62634 0.35722 0.0
C865 C 0.53712 0.58419 0.38969 0.0
C866 C 0.50007 0.62015 0.40174 0.0
C867 C 0.50097 0.63541 0.42867 0.0
C868 C 0.47522 0.6435 0.444 0.0
C869 C 0.44778 0.63565 0.43155 0.0
C870 C 0.44636 0.61957 0.4043 0.0
C871 C 0.47291 0.61184 0.38922 0.0
H872 H 0.24788 0.16381 0.17719 0.0
H873 H 0.24787 0.07981 0.15654 0.0
H874 H 0.23531 0.07021 0.21193 0.0
H875 H 0.28029 0.15986 0.25315 0.0
H876 H 0.25759 0.1856 0.26988 0.0
H877 H 0.26595 0.18589 0.22849 0.0
H878 H 0.20967 0.18713 0.21546 0.0
H879 H 0.20114 0.18698 0.25683 0.0
H880 H 0.18551 0.16207 0.23143 0.0
H881 H 0.2258 0.06975 0.27017 0.0
H882 H 0.21607 0.07862 0.3264 0.0
H883 H 0.21991 0.16295 0.30815 0.0
C884 C 0.24508 0.1434 0.18429 0.0
C885 C 0.24892 0.12253 0.16267 0.0
C886 C 0.24493 0.09609 0.17276 0.0
C887 C 0.23789 0.09044 0.20415 0.0
C888 C 0.23457 0.11148 0.22497 0.0
C889 C 0.23767 0.13743 0.21539 0.0
C890 C 0.23274 0.15641 0.24237 0.0
C891 C 0.26082 0.1729 0.24885 0.0
C892 C 0.20565 0.17419 0.23615 0.0
C893 C 0.22676 0.13705 0.26872 0.0
C894 C 0.22809 0.11123 0.25826 0.0
C895 C 0.2244 0.08989 0.27859 0.0
C896 C 0.21901 0.09511 0.31046 0.0
C897 C 0.21707 0.12144 0.3215 0.0
C898 C 0.22096 0.14261 0.30028 0.0
H899 H 0.2494 0.8696 0.82086 0.0
H900 H 0.25373 0.78509 0.83748 0.0
H901 H 0.24105 0.77692 0.78167 0.0
H902 H 0.18876 0.86919 0.76498 0.0
H903 H 0.20481 0.89485 0.74099 0.0
H904 H 0.21246 0.89384 0.78254 0.0
H905 H 0.26901 0.89311 0.77095 0.0
H906 H 0.26155 0.89402 0.72937 0.0
H907 H 0.28398 0.86785 0.74562 0.0
H908 H 0.22761 0.77821 0.72407 0.0
H909 H 0.21726 0.78875 0.66834 0.0
H910 H 0.22498 0.87241 0.68919 0.0
C911 C 0.24733 0.84937 0.81284 0.0
C912 C 0.25222 0.82794 0.83346 0.0
C913 C 0.24993 0.80176 0.82201 0.0
C914 C 0.24271 0.79694 0.79042 0.0
C915 C 0.23823 0.81855 0.77063 0.0
C916 C 0.24066 0.84424 0.78135 0.0
C917 C 0.23624 0.86397 0.75503 0.0
C918 C 0.20894 0.88149 0.76127 0.0
C919 C 0.26437 0.88072 0.74995 0.0
C920 C 0.23091 0.84539 0.72777 0.0
C921 C 0.23182 0.81928 0.73729 0.0
C922 C 0.22696 0.79857 0.71632 0.0
C923 C 0.22108 0.80474 0.68477 0.0
C924 C 0.22052 0.83136 0.67451 0.0
C925 C 0.22556 0.85187 0.69634 0.0
H926 H 0.72816 0.87351 0.812 0.0
H927 H 0.64303 0.87291 0.7638 0.0
H928 H 0.66872 0.86884 0.71296 0.0
H929 H 0.76819 0.91119 0.75384 0.0
H930 H 0.80209 0.89253 0.75787 0.0
H931 H 0.77717 0.89564 0.79079 0.0
H932 H 0.77448 0.84464 0.79547 0.0
H933 H 0.79935 0.84137 0.76252 0.0
H934 H 0.76358 0.82533 0.76176 0.0
H935 H 0.70281 0.86578 0.66761 0.0
H936 H 0.74392 0.86278 0.62966 0.0
H937 H 0.80759 0.86375 0.70646 0.0
C938 C 0.715 0.87261 0.79073 0.0
C939 C 0.68362 0.87359 0.79182 0.0
C940 C 0.6671 0.87215 0.76352 0.0
C941 C 0.68146 0.86986 0.73451 0.0
C942 C 0.71235 0.86884 0.7342 0.0
C943 C 0.72901 0.87006 0.76146 0.0
C944 C 0.76197 0.8682 0.75431 0.0
C945 C 0.77831 0.8934 0.76482 0.0
C946 C 0.77564 0.84341 0.76941 0.0
C947 C 0.76113 0.86592 0.71877 0.0
C948 C 0.73223 0.86643 0.70778 0.0
C949 C 0.72555 0.86524 0.67588 0.0
C950 C 0.74907 0.86359 0.65452 0.0
C951 C 0.77891 0.86295 0.66514 0.0
C952 C 0.78498 0.86397 0.69772 0.0
H953 H 0.81242 0.11254 0.26765 0.0
H954 H 0.75245 0.07757 0.33595 0.0
H955 H 0.71279 0.07626 0.2961 0.0
H956 H 0.76023 0.15457 0.23292 0.0
H957 H 0.77367 0.15107 0.19322 0.0
H958 H 0.7987 0.14662 0.22582 0.0
H959 H 0.81251 0.1 0.20538 0.0
H960 H 0.78764 0.10437 0.17254 0.0
H961 H 0.7835 0.07619 0.19809 0.0
H962 H 0.67835 0.08278 0.25147 0.0
H963 H 0.65125 0.09523 0.20336 0.0
H964 H 0.73299 0.12548 0.16279 0.0
C965 C 0.79114 0.10407 0.27396 0.0
C966 C 0.78555 0.09508 0.30488 0.0
C967 C 0.75726 0.08456 0.31242 0.0
C968 C 0.73458 0.08367 0.28993 0.0
C969 C 0.74054 0.09326 0.25993 0.0
C970 C 0.76814 0.10307 0.25173 0.0
C971 C 0.76796 0.11357 0.2183 0.0
C972 C 0.77558 0.14321 0.21754 0.0
C973 C 0.78916 0.09757 0.19733 0.0
C974 C 0.73577 0.10873 0.20938 0.0
C975 C 0.72048 0.09685 0.23375 0.0
C976 C 0.69013 0.09174 0.23202 0.0
C977 C 0.67492 0.09901 0.20465 0.0
C978 C 0.69005 0.1112 0.17932 0.0
C979 C 0.72095 0.11587 0.18164 0.0
H980 H 0.71881 0.67213 0.30706 0.0
H981 H 0.68574 0.59165 0.30925 0.0
H982 H 0.69157 0.58853 0.25164 0.0
H983 H 0.68808 0.69116 0.22941 0.0
H984 H 0.72088 0.7096 0.21885 0.0
H985 H 0.71 0.70698 0.25952 0.0
H986 H 0.76197 0.68823 0.27345 0.0
H987 H 0.77296 0.69073 0.2329 0.0
H988 H 0.77548 0.65944 0.25299 0.0
H989 H 0.70373 0.59302 0.19491 0.0
H990 H 0.72512 0.6035 0.143 0.0
H991 H 0.75348 0.68006 0.17801 0.0
C992 C 0.71217 0.65413 0.2952 0.0
C993 C 0.7015 0.63222 0.31229 0.0
C994 C 0.69384 0.60865 0.29635 0.0
C995 C 0.69691 0.60676 0.2637 0.0
C996 C 0.70798 0.62853 0.24748 0.0
C997 C 0.71572 0.65171 0.26265 0.0
C998 C 0.73008 0.67109 0.24017 0.0
C999 C 0.71112 0.69619 0.23679 0.0
C1000 C 0.76201 0.67774 0.2505 0.0
C1001 C 0.72976 0.65493 0.21022 0.0
C1002 C 0.71634 0.63068 0.21483 0.0
C1003 C 0.71412 0.61201 0.1909 0.0
C1004 C 0.72633 0.61814 0.16153 0.0
C1005 C 0.74098 0.64255 0.15656 0.0
C1006 C 0.74237 0.66126 0.18115 0.0
H1007 H 0.73032 0.31952 0.6781 0.0
H1008 H 0.72435 0.40267 0.65366 0.0
H1009 H 0.72867 0.41457 0.70966 0.0
H1010 H 0.6893 0.32226 0.74978 0.0
H1011 H 0.71285 0.29942 0.77069 0.0
H1012 H 0.70927 0.29703 0.7286 0.0
H1013 H 0.7664 0.30094 0.72242 0.0
H1014 H 0.77019 0.30296 0.76451 0.0
H1015 H 0.78556 0.32856 0.73993 0.0
H1016 H 0.73031 0.41749 0.76783 0.0
H1017 H 0.73709 0.41187 0.82488 0.0
H1018 H 0.74564 0.32706 0.81208 0.0
C1019 C 0.73017 0.34022 0.68459 0.0
C1020 C 0.72692 0.3602 0.66165 0.0
C1021 C 0.72698 0.38707 0.67089 0.0
C1022 C 0.72919 0.39403 0.70263 0.0
C1023 C 0.7318 0.37388 0.72473 0.0
C1024 C 0.73296 0.34756 0.71618 0.0
C1025 C 0.73704 0.32995 0.74469 0.0
C1026 C 0.71053 0.31105 0.74866 0.0
C1027 C 0.76656 0.31471 0.74277 0.0
C1028 C 0.73775 0.35052 0.77056 0.0
C1029 C 0.73421 0.37567 0.75847 0.0
C1030 C 0.73337 0.39793 0.77761 0.0
C1031 C 0.73705 0.3945 0.81001 0.0
C1032 C 0.74196 0.36904 0.82285 0.0
C1033 C 0.74199 0.34675 0.80286 0.0
H1034 H 0.25137 0.35514 0.67078 0.0
H1035 H 0.33588 0.35356 0.72019 0.0
H1036 H 0.30951 0.35398 0.77087 0.0
H1037 H 0.2143 0.39886 0.72341 0.0
H1038 H 0.17892 0.38226 0.72107 0.0
H1039 H 0.20426 0.38091 0.68836 0.0
H1040 H 0.20275 0.32973 0.68978 0.0
H1041 H 0.17732 0.33092 0.72246 0.0
H1042 H 0.21159 0.3127 0.72583 0.0
H1043 H 0.27471 0.35672 0.81591 0.0
H1044 H 0.23295 0.35991 0.8532 0.0
H1045 H 0.17058 0.35862 0.77523 0.0
C1046 C 0.26428 0.3547 0.69227 0.0
C1047 C 0.29567 0.35435 0.69155 0.0
C1048 C 0.31181 0.35382 0.72016 0.0
C1049 C 0.29706 0.35406 0.74909 0.0
C1050 C 0.26616 0.35465 0.74902 0.0
C1051 C 0.24988 0.3548 0.72145 0.0
C1052 C 0.21682 0.35575 0.72817 0.0
C1053 C 0.20276 0.38095 0.71444 0.0
C1054 C 0.20121 0.33078 0.71583 0.0
C1055 C 0.21717 0.35642 0.76379 0.0
C1056 C 0.24589 0.3558 0.77526 0.0
C1057 C 0.25208 0.35702 0.80729 0.0
C1058 C 0.22822 0.35891 0.82825 0.0
C1059 C 0.19857 0.35942 0.81709 0.0
C1060 C 0.19302 0.35804 0.78442 0.0
H1061 H 0.25368 0.60751 0.32113 0.0
H1062 H 0.34085 0.60338 0.27772 0.0
H1063 H 0.31723 0.59798 0.22563 0.0
H1064 H 0.21716 0.5596 0.26996 0.0
H1065 H 0.18274 0.5778 0.26916 0.0
H1066 H 0.20658 0.57964 0.30315 0.0
H1067 H 0.20798 0.6307 0.29828 0.0
H1068 H 0.18415 0.62902 0.26435 0.0
H1069 H 0.21956 0.64554 0.26174 0.0
H1070 H 0.28397 0.59535 0.17803 0.0
H1071 H 0.24365 0.59646 0.13854 0.0
H1072 H 0.17854 0.60226 0.21351 0.0
C1073 C 0.26783 0.6052 0.30072 0.0
C1074 C 0.29909 0.6058 0.30345 0.0
C1075 C 0.31683 0.60294 0.27615 0.0
C1076 C 0.30363 0.5998 0.2465 0.0
C1077 C 0.27271 0.59948 0.24462 0.0
C1078 C 0.25505 0.60208 0.27101 0.0
C1079 C 0.2224 0.60225 0.26253 0.0
C1080 C 0.20628 0.5784 0.27706 0.0
C1081 C 0.20767 0.62843 0.2723 0.0
C1082 C 0.22444 0.59978 0.22717 0.0
C1083 C 0.25362 0.598 0.21728 0.0
C1084 C 0.26103 0.59652 0.18551 0.0
C1085 C 0.23799 0.59716 0.16328 0.0
C1086 C 0.20798 0.59937 0.17297 0.0
C1087 C 0.20124 0.60036 0.20537 0.0
loop_
_geom_bond_atom_site_label_1
_geom_bond_atom_site_label_2
_geom_bond_distance
_geom_bond_site_symmetry_2
_ccdc_geom_bond_type
C0 O1 1.306 . S
C0 O3 1.160 . S
O1 C0 1.306 . S
O1 Cd2 2.228 . S
Cd2 O1 2.228 . S
Cd2 O6 2.273 . S
Cd2 O10 2.277 . S
O3 C0 1.160 . S
O3 Cd4 2.203 . S
Cd4 O3 2.203 . S
Cd4 O6 2.411 . S
Cd4 O7 2.333 . S
Cd4 O8 2.352 . S
Cd4 O12 2.277 . S
Cd4 O13 2.356 . S
C5 O10 1.209 . S
C5 O12 1.226 . S
O6 Cd2 2.273 . S
O6 Cd4 2.411 . S
O6 C9 1.320 . S
O7 Cd4 2.333 . S
O7 C9 1.214 . S
O8 Cd4 2.352 . S
O8 C11 1.258 . S
C9 O6 1.320 . S
C9 O7 1.214 . S
O10 Cd2 2.277 . S
O10 C5 1.209 . S
C11 O8 1.258 . S
C11 O13 1.282 . S
O12 Cd4 2.277 . S
O12 C5 1.226 . S
O13 Cd4 2.356 . S
O13 C11 1.282 . S
C14 O15 1.306 . S
C14 O17 1.160 . S
O15 C14 1.306 . S
O15 Cd16 2.228 . S
Cd16 O15 2.228 . S
Cd16 O20 2.273 . S
Cd16 O24 2.277 . S
O17 C14 1.160 . S
O17 Cd18 2.203 . S
Cd18 O17 2.203 . S
Cd18 O20 2.411 . S
Cd18 O21 2.333 . S
Cd18 O22 2.352 . S
Cd18 O26 2.277 . S
Cd18 O27 2.356 . S
C19 O24 1.209 . S
C19 O26 1.226 . S
O20 Cd16 2.273 . S
O20 Cd18 2.411 . S
O20 C23 1.320 . S
O21 Cd18 2.333 . S
O21 C23 1.214 . S
O22 Cd18 2.352 . S
O22 C25 1.258 . S
C23 O20 1.320 . S
C23 O21 1.214 . S
O24 Cd16 2.277 . S
O24 C19 1.209 . S
C25 O22 1.258 . S
C25 O27 1.282 . S
O26 Cd18 2.277 . S
O26 C19 1.226 . S
O27 Cd18 2.356 . S
O27 C25 1.282 . S
C28 O29 1.306 . S
C28 O31 1.160 . S
O29 C28 1.306 . S
O29 Cd30 2.228 . S
Cd30 O29 2.228 . S
Cd30 O34 2.273 . S
Cd30 O38 2.277 . S
O31 C28 1.160 . S
O31 Cd32 2.203 . S
Cd32 O31 2.203 . S
Cd32 O34 2.411 . S
Cd32 O35 2.333 . S
Cd32 O36 2.352 . S
Cd32 O40 2.277 . S
Cd32 O41 2.356 . S
C33 O38 1.209 . S
C33 O40 1.226 . S
O34 Cd30 2.273 . S
O34 Cd32 2.411 . S
O34 C37 1.320 . S
O35 Cd32 2.333 . S
O35 C37 1.214 . S
O36 Cd32 2.352 . S
O36 C39 1.258 . S
C37 O34 1.320 . S
C37 O35 1.214 . S
O38 Cd30 2.277 . S
O38 C33 1.209 . S
C39 O36 1.258 . S
C39 O41 1.282 . S
O40 Cd32 2.277 . S
O40 C33 1.226 . S
O41 Cd32 2.356 . S
O41 C39 1.282 . S
C42 O43 1.306 . S
C42 O45 1.160 . S
O43 C42 1.306 . S
O43 Cd44 2.228 . S
Cd44 O43 2.228 . S
Cd44 O48 2.273 . S
Cd44 O52 2.277 . S
O45 C42 1.160 . S
O45 Cd46 2.203 . S
Cd46 O45 2.203 . S
Cd46 O48 2.411 . S
Cd46 O49 2.333 . S
Cd46 O50 2.352 . S
Cd46 O54 2.277 . S
Cd46 O55 2.356 . S
C47 O52 1.209 . S
C47 O54 1.226 . S
O48 Cd44 2.273 . S
O48 Cd46 2.411 . S
O48 C51 1.320 . S
O49 Cd46 2.333 . S
O49 C51 1.214 . S
O50 Cd46 2.352 . S
O50 C53 1.258 . S
C51 O48 1.320 . S
C51 O49 1.214 . S
O52 Cd44 2.277 . S
O52 C47 1.209 . S
C53 O50 1.258 . S
C53 O55 1.282 . S
O54 Cd46 2.277 . S
O54 C47 1.226 . S
O55 Cd46 2.356 . S
O55 C53 1.282 . S
C56 O57 1.306 . S
C56 O59 1.160 . S
O57 C56 1.306 . S
O57 Cd58 2.228 . S
Cd58 O57 2.228 . S
Cd58 O62 2.273 . S
Cd58 O66 2.277 . S
O59 C56 1.160 . S
O59 Cd60 2.203 . S
Cd60 O59 2.203 . S
Cd60 O62 2.411 . S
Cd60 O63 2.333 . S
Cd60 O64 2.352 . S
Cd60 O68 2.277 . S
Cd60 O69 2.356 . S
C61 O66 1.209 . S
C61 O68 1.226 . S
O62 Cd58 2.273 . S
O62 Cd60 2.411 . S
O62 C65 1.320 . S
O63 Cd60 2.333 . S
O63 C65 1.214 . S
O64 Cd60 2.352 . S
O64 C67 1.258 . S
C65 O62 1.320 . S
C65 O63 1.214 . S
O66 Cd58 2.277 . S
O66 C61 1.209 . S
C67 O64 1.258 . S
C67 O69 1.282 . S
O68 Cd60 2.277 . S
O68 C61 1.226 . S
O69 Cd60 2.356 . S
O69 C67 1.282 . S
C70 O71 1.306 . S
C70 O73 1.160 . S
O71 C70 1.306 . S
O71 Cd72 2.228 . S
Cd72 O71 2.228 . S
Cd72 O76 2.273 . S
Cd72 O80 2.277 . S
O73 C70 1.160 . S
O73 Cd74 2.203 . S
Cd74 O73 2.203 . S
Cd74 O76 2.411 . S
Cd74 O77 2.333 . S
Cd74 O78 2.352 . S
Cd74 O82 2.277 . S
Cd74 O83 2.356 . S
C75 O80 1.209 . S
C75 O82 1.226 . S
O76 Cd72 2.273 . S
O76 Cd74 2.411 . S
O76 C79 1.320 . S
O77 Cd74 2.333 . S
O77 C79 1.214 . S
O78 Cd74 2.352 . S
O78 C81 1.258 . S
C79 O76 1.320 . S
C79 O77 1.214 . S
O80 Cd72 2.277 . S
O80 C75 1.209 . S
C81 O78 1.258 . S
C81 O83 1.282 . S
O82 Cd74 2.277 . S
O82 C75 1.226 . S
O83 Cd74 2.356 . S
O83 C81 1.282 . S
C84 O85 1.306 . S
C84 O87 1.160 . S
O85 C84 1.306 . S
O85 Cd86 2.228 . S
Cd86 O85 2.228 . S
Cd86 O90 2.273 . S
Cd86 O94 2.277 . S
O87 C84 1.160 . S
O87 Cd88 2.203 . S
Cd88 O87 2.203 . S
Cd88 O90 2.411 . S
Cd88 O91 2.333 . S
Cd88 O92 2.352 . S
Cd88 O96 2.277 . S
Cd88 O97 2.356 . S
C89 O94 1.209 . S
C89 O96 1.226 . S
O90 Cd86 2.273 . S
O90 Cd88 2.411 . S
O90 C93 1.320 . S
O91 Cd88 2.333 . S
O91 C93 1.214 . S
O92 Cd88 2.352 . S
O92 C95 1.258 . S
C93 O90 1.320 . S
C93 O91 1.214 . S
O94 Cd86 2.277 . S
O94 C89 1.209 . S
C95 O92 1.258 . S
C95 O97 1.282 . S
O96 Cd88 2.277 . S
O96 C89 1.226 . S
O97 Cd88 2.356 . S
O97 C95 1.282 . S
C98 O99 1.306 . S
C98 O101 1.160 . S
O99 C98 1.306 . S
O99 Cd100 2.228 . S
Cd100 O99 2.228 . S
Cd100 O104 2.273 . S
Cd100 O108 2.277 . S
O101 C98 1.160 . S
O101 Cd102 2.203 . S
Cd102 O101 2.203 . S
Cd102 O104 2.411 . S
Cd102 O105 2.333 . S
Cd102 O106 2.352 . S
Cd102 O110 2.277 . S
Cd102 O111 2.356 . S
C103 O108 1.209 . S
C103 O110 1.226 . S
O104 Cd100 2.273 . S
O104 Cd102 2.411 . S
O104 C107 1.320 . S
O105 Cd102 2.333 . S
O105 C107 1.214 . S
O106 Cd102 2.352 . S
O106 C109 1.258 . S
C107 O104 1.320 . S
C107 O105 1.214 . S
O108 Cd100 2.277 . S
O108 C103 1.209 . S
C109 O106 1.258 . S
C109 O111 1.282 . S
O110 Cd102 2.277 . S
O110 C103 1.226 . S
O111 Cd102 2.356 . S
O111 C109 1.282 . S
C112 O113 1.306 . S
C112 O115 1.160 . S
O113 C112 1.306 . S
O113 Cd114 2.228 . S
Cd114 O113 2.228 . S
Cd114 O118 2.273 . S
Cd114 O122 2.277 . S
O115 C112 1.160 . S
O115 Cd116 2.203 . S
Cd116 O115 2.203 . S
Cd116 O118 2.411 . S
Cd116 O119 2.333 . S
Cd116 O120 2.352 . S
Cd116 O124 2.277 . S
Cd116 O125 2.356 . S
C117 O122 1.209 . S
C117 O124 1.226 . S
O118 Cd114 2.273 . S
O118 Cd116 2.411 . S
O118 C121 1.320 . S
O119 Cd116 2.333 . S
O119 C121 1.214 . S
O120 Cd116 2.352 . S
O120 C123 1.258 . S
C121 O118 1.320 . S
C121 O119 1.214 . S
O122 Cd114 2.277 . S
O122 C117 1.209 . S
C123 O120 1.258 . S
C123 O125 1.282 . S
O124 Cd116 2.277 . S
O124 C117 1.226 . S
O125 Cd116 2.356 . S
O125 C123 1.282 . S
C126 O127 1.306 . S
C126 O129 1.160 . S
O127 C126 1.306 . S
O127 Cd128 2.228 . S
Cd128 O127 2.228 . S
Cd128 O132 2.273 . S
Cd128 O136 2.277 . S
O129 C126 1.160 . S
O129 Cd130 2.203 . S
Cd130 O129 2.203 . S
Cd130 O132 2.411 . S
Cd130 O133 2.333 . S
Cd130 O134 2.352 . S
Cd130 O138 2.277 . S
Cd130 O139 2.356 . S
C131 O136 1.209 . S
C131 O138 1.226 . S
O132 Cd128 2.273 . S
O132 Cd130 2.411 . S
O132 C135 1.320 . S
O133 Cd130 2.333 . S
O133 C135 1.214 . S
O134 Cd130 2.352 . S
O134 C137 1.258 . S
C135 O132 1.320 . S
C135 O133 1.214 . S
O136 Cd128 2.277 . S
O136 C131 1.209 . S
C137 O134 1.258 . S
C137 O139 1.282 . S
O138 Cd130 2.277 . S
O138 C131 1.226 . S
O139 Cd130 2.356 . S
O139 C137 1.282 . S
C140 O141 1.306 . S
C140 O143 1.160 . S
O141 C140 1.306 . S
O141 Cd142 2.228 . S
Cd142 O141 2.228 . S
Cd142 O146 2.273 . S
Cd142 O150 2.277 . S
O143 C140 1.160 . S
O143 Cd144 2.203 . S
Cd144 O143 2.203 . S
Cd144 O146 2.411 . S
Cd144 O147 2.333 . S
Cd144 O148 2.352 . S
Cd144 O152 2.277 . S
Cd144 O153 2.356 . S
C145 O150 1.209 . S
C145 O152 1.226 . S
O146 Cd142 2.273 . S
O146 Cd144 2.411 . S
O146 C149 1.320 . S
O147 Cd144 2.333 . S
O147 C149 1.214 . S
O148 Cd144 2.352 . S
O148 C151 1.258 . S
C149 O146 1.320 . S
C149 O147 1.214 . S
O150 Cd142 2.277 . S
O150 C145 1.209 . S
C151 O148 1.258 . S
C151 O153 1.282 . S
O152 Cd144 2.277 . S
O152 C145 1.226 . S
O153 Cd144 2.356 . S
O153 C151 1.282 . S
C154 O155 1.306 . S
C154 O157 1.160 . S
O155 C154 1.306 . S
O155 Cd156 2.228 . S
Cd156 O155 2.228 . S
Cd156 O160 2.273 . S
Cd156 O164 2.277 . S
O157 C154 1.160 . S
O157 Cd158 2.203 . S
Cd158 O157 2.203 . S
Cd158 O160 2.411 . S
Cd158 O161 2.333 . S
Cd158 O162 2.352 . S
Cd158 O166 2.277 . S
Cd158 O167 2.356 . S
C159 O164 1.209 . S
C159 O166 1.226 . S
O160 Cd156 2.273 . S
O160 Cd158 2.411 . S
O160 C163 1.320 . S
O161 Cd158 2.333 . S
O161 C163 1.214 . S
O162 Cd158 2.352 . S
O162 C165 1.258 . S
C163 O160 1.320 . S
C163 O161 1.214 . S
O164 Cd156 2.277 . S
O164 C159 1.209 . S
C165 O162 1.258 . S
C165 O167 1.282 . S
O166 Cd158 2.277 . S
O166 C159 1.226 . S
O167 Cd158 2.356 . S
O167 C165 1.282 . S
C168 O169 1.306 . S
C168 O171 1.160 . S
O169 C168 1.306 . S
O169 Cd170 2.228 . S
Cd170 O169 2.228 . S
Cd170 O174 2.273 . S
Cd170 O178 2.277 . S
O171 C168 1.160 . S
O171 Cd172 2.203 . S
Cd172 O171 2.203 . S
Cd172 O174 2.411 . S
Cd172 O175 2.333 . S
Cd172 O176 2.352 . S
Cd172 O180 2.277 . S
Cd172 O181 2.356 . S
C173 O178 1.209 . S
C173 O180 1.226 . S
O174 Cd170 2.273 . S
O174 Cd172 2.411 . S
O174 C177 1.320 . S
O175 Cd172 2.333 . S
O175 C177 1.214 . S
O176 Cd172 2.352 . S
O176 C179 1.258 . S
C177 O174 1.320 . S
C177 O175 1.214 . S
O178 Cd170 2.277 . S
O178 C173 1.209 . S
C179 O176 1.258 . S
C179 O181 1.282 . S
O180 Cd172 2.277 . S
O180 C173 1.226 . S
O181 Cd172 2.356 . S
O181 C179 1.282 . S
C182 O183 1.306 . S
C182 O185 1.160 . S
O183 C182 1.306 . S
O183 Cd184 2.228 . S
Cd184 O183 2.228 . S
Cd184 O188 2.273 . S
Cd184 O192 2.277 . S
O185 C182 1.160 . S
O185 Cd186 2.203 . S
Cd186 O185 2.203 . S
Cd186 O188 2.411 . S
Cd186 O189 2.333 . S
Cd186 O190 2.352 . S
Cd186 O194 2.277 . S
Cd186 O195 2.356 . S
C187 O192 1.209 . S
C187 O194 1.226 . S
O188 Cd184 2.273 . S
O188 Cd186 2.411 . S
O188 C191 1.320 . S
O189 Cd186 2.333 . S
O189 C191 1.214 . S
O190 Cd186 2.352 . S
O190 C193 1.258 . S
C191 O188 1.320 . S
C191 O189 1.214 . S
O192 Cd184 2.277 . S
O192 C187 1.209 . S
C193 O190 1.258 . S
C193 O195 1.282 . S
O194 Cd186 2.277 . S
O194 C187 1.226 . S
O195 Cd186 2.356 . S
O195 C193 1.282 . S
C196 O197 1.306 . S
C196 O199 1.160 . S
O197 C196 1.306 . S
O197 Cd198 2.228 . S
Cd198 O197 2.228 . S
Cd198 O202 2.273 . S
Cd198 O206 2.277 . S
O199 C196 1.160 . S
O199 Cd200 2.203 . S
Cd200 O199 2.203 . S
Cd200 O202 2.411 . S
Cd200 O203 2.333 . S
Cd200 O204 2.352 . S
Cd200 O208 2.277 . S
Cd200 O209 2.356 . S
C201 O206 1.209 . S
C201 O208 1.226 . S
O202 Cd198 2.273 . S
O202 Cd200 2.411 . S
O202 C205 1.320 . S
O203 Cd200 2.333 . S
O203 C205 1.214 . S
O204 Cd200 2.352 . S
O204 C207 1.258 . S
C205 O202 1.320 . S
C205 O203 1.214 . S
O206 Cd198 2.277 . S
O206 C201 1.209 . S
C207 O204 1.258 . S
C207 O209 1.282 . S
O208 Cd200 2.277 . S
O208 C201 1.226 . S
O209 Cd200 2.356 . S
O209 C207 1.282 . S
C210 O211 1.306 . S
C210 O213 1.160 . S
O211 C210 1.306 . S
O211 Cd212 2.228 . S
Cd212 O211 2.228 . S
Cd212 O216 2.273 . S
Cd212 O220 2.277 . S
O213 C210 1.160 . S
O213 Cd214 2.203 . S
Cd214 O213 2.203 . S
Cd214 O216 2.411 . S
Cd214 O217 2.333 . S
Cd214 O218 2.352 . S
Cd214 O222 2.277 . S
Cd214 O223 2.356 . S
C215 O220 1.209 . S
C215 O222 1.226 . S
O216 Cd212 2.273 . S
O216 Cd214 2.411 . S
O216 C219 1.320 . S
O217 Cd214 2.333 . S
O217 C219 1.214 . S
O218 Cd214 2.352 . S
O218 C221 1.258 . S
C219 O216 1.320 . S
C219 O217 1.214 . S
O220 Cd212 2.277 . S
O220 C215 1.209 . S
C221 O218 1.258 . S
C221 O223 1.282 . S
O222 Cd214 2.277 . S
O222 C215 1.226 . S
O223 Cd214 2.356 . S
O223 C221 1.282 . S
H224 C236 0.930 . S
H225 C238 0.930 1_556 S
H226 C239 0.930 . S
H227 C243 0.959 . S
H228 C243 0.959 . S
H229 C243 0.961 . S
H230 C244 0.960 . S
H231 C244 0.961 . S
H232 C244 0.959 . S
H233 C247 0.929 . S
H234 C248 0.931 . S
H235 C250 0.930 . S
C236 H224 0.930 . S
C236 C237 1.399 . S
C236 C241 1.399 . S
C237 C236 1.399 . S
C237 C238 1.376 . S
C238 H225 0.930 1_554 S
C238 C237 1.376 . S
C238 C239 1.388 1_554 S
C239 H226 0.930 . S
C239 C238 1.388 1_556 S
C239 C240 1.390 . S
C240 C239 1.390 . S
C240 C241 1.394 1_556 S
C240 C246 1.465 . S
C241 C236 1.399 . S
C241 C240 1.394 1_554 S
C241 C242 1.516 . S
C242 C241 1.516 . S
C242 C243 1.502 . S
C242 C244 1.561 . S
C242 C245 1.526 1_554 S
C243 H227 0.959 . S
C243 H228 0.959 . S
C243 H229 0.961 . S
C243 C242 1.502 . S
C244 H230 0.960 . S
C244 H231 0.961 . S
C244 H232 0.959 . S
C244 C242 1.561 . S
C245 C242 1.526 1_556 S
C245 C246 1.396 . S
C245 C250 1.390 . S
C246 C240 1.465 . S
C246 C245 1.396 . S
C246 C247 1.399 . S
C247 H233 0.929 . S
C247 C246 1.399 . S
C247 C248 1.385 . S
C248 H234 0.931 . S
C248 C247 1.385 . S
C248 C249 1.389 . S
C249 C248 1.389 . S
C249 C250 1.387 . S
C250 H235 0.930 . S
C250 C245 1.390 . S
C250 C249 1.387 . S
H251 C263 0.930 . S
H252 C265 0.930 . S
H253 C266 0.930 . S
H254 C270 0.959 . S
H255 C270 0.959 . S
H256 C270 0.961 . S
H257 C271 0.960 . S
H258 C271 0.961 . S
H259 C271 0.959 . S
H260 C274 0.929 . S
H261 C275 0.931 . S
H262 C277 0.930 . S
C263 H251 0.930 . S
C263 C264 1.399 . S
C263 C268 1.399 . S
C264 C263 1.399 . S
C264 C265 1.376 . S
C265 H252 0.930 . S
C265 C264 1.376 . S
C265 C266 1.388 . S
C266 H253 0.930 . S
C266 C265 1.388 . S
C266 C267 1.390 . S
C267 C266 1.390 . S
C267 C268 1.394 . S
C267 C273 1.465 . S
C268 C263 1.399 . S
C268 C267 1.394 . S
C268 C269 1.516 . S
C269 C268 1.516 . S
C269 C270 1.502 . S
C269 C271 1.561 . S
C269 C272 1.526 . S
C270 H254 0.959 . S
C270 H255 0.959 . S
C270 H256 0.961 . S
C270 C269 1.502 . S
C271 H257 0.960 . S
C271 H258 0.961 . S
C271 H259 0.959 . S
C271 C269 1.561 . S
C272 C269 1.526 . S
C272 C273 1.396 . S
C272 C277 1.390 . S
C273 C267 1.465 . S
C273 C272 1.396 . S
C273 C274 1.399 . S
C274 H260 0.929 . S
C274 C273 1.399 . S
C274 C275 1.385 . S
C275 H261 0.931 . S
C275 C274 1.385 . S
C275 C276 1.389 . S
C276 C275 1.389 . S
C276 C277 1.387 . S
C277 H262 0.930 . S
C277 C272 1.390 . S
C277 C276 1.387 . S
H278 C290 0.930 . S
H279 C292 0.930 . S
H280 C293 0.924 1_554 S
H281 C297 0.959 . S
H282 C297 0.959 . S
H283 C297 0.961 1_556 S
H284 C298 0.960 . S
H285 C298 0.961 . S
H286 C298 0.959 . S
H287 C301 0.929 . S
H288 C302 0.931 . S
H289 C304 0.930 . S
C290 H278 0.930 . S
C290 C291 1.399 . S
C290 C295 1.399 . S
C291 C290 1.399 . S
C291 C292 1.376 . S
C292 H279 0.930 . S
C292 C291 1.376 . S
C292 C293 1.396 . S
C293 H280 0.924 1_556 S
C293 C292 1.396 . S
C293 C294 1.389 1_556 S
C294 C293 1.389 1_554 S
C294 C295 1.394 1_554 S
C294 C300 1.465 . S
C295 C290 1.399 . S
C295 C294 1.394 1_556 S
C295 C296 1.516 . S
C296 C295 1.516 . S
C296 C297 1.502 1_556 S
C296 C298 1.561 . S
C296 C299 1.526 1_556 S
C297 H281 0.959 . S
C297 H282 0.959 . S
C297 H283 0.961 1_554 S
C297 C296 1.502 1_554 S
C298 H284 0.960 . S
C298 H285 0.961 . S
C298 H286 0.959 . S
C298 C296 1.561 . S
C299 C296 1.526 1_554 S
C299 C300 1.396 . S
C299 C304 1.390 . S
C300 C294 1.465 . S
C300 C299 1.396 . S
C300 C301 1.399 . S
C301 H287 0.929 . S
C301 C300 1.399 . S
C301 C302 1.385 . S
C302 H288 0.931 . S
C302 C301 1.385 . S
C302 C303 1.389 . S
C303 C302 1.389 . S
C303 C304 1.387 . S
C304 H289 0.930 . S
C304 C299 1.390 . S
C304 C303 1.387 . S
H305 C317 0.930 . S
H306 C319 0.930 . S
H307 C320 0.930 . S
H308 C324 0.959 . S
H309 C324 0.959 . S
H310 C324 0.961 . S
H311 C325 0.960 . S
H312 C325 0.961 . S
H313 C325 0.959 . S
H314 C328 0.929 . S
H315 C329 0.931 . S
H316 C331 0.930 . S
C317 H305 0.930 . S
C317 C318 1.399 . S
C317 C322 1.399 . S
C318 C317 1.399 . S
C318 C319 1.376 . S
C319 H306 0.930 . S
C319 C318 1.376 . S
C319 C320 1.388 . S
C320 H307 0.930 . S
C320 C319 1.388 . S
C320 C321 1.390 . S
C321 C320 1.390 . S
C321 C322 1.394 . S
C321 C327 1.465 . S
C322 C317 1.399 . S
C322 C321 1.394 . S
C322 C323 1.516 . S
C323 C322 1.516 . S
C323 C324 1.502 . S
C323 C325 1.561 . S
C323 C326 1.526 . S
C324 H308 0.959 . S
C324 H309 0.959 . S
C324 H310 0.961 . S
C324 C323 1.502 . S
C325 H311 0.960 . S
C325 H312 0.961 . S
C325 H313 0.959 . S
C325 C323 1.561 . S
C326 C323 1.526 . S
C326 C327 1.396 . S
C326 C331 1.390 . S
C327 C321 1.465 . S
C327 C326 1.396 . S
C327 C328 1.399 . S
C328 H314 0.929 . S
C328 C327 1.399 . S
C328 C329 1.385 . S
C329 H315 0.931 . S
C329 C328 1.385 . S
C329 C330 1.389 . S
C330 C329 1.389 . S
C330 C331 1.387 . S
C331 H316 0.930 . S
C331 C326 1.390 . S
C331 C330 1.387 . S
H332 C344 0.930 1_556 S
H333 C346 0.930 . S
H334 C347 0.930 . S
H335 C351 0.959 . S
H336 C351 0.959 . S
H337 C351 0.961 . S
H338 C352 0.960 . S
H339 C352 0.961 . S
H340 C352 0.959 . S
H341 C355 0.929 . S
H342 C356 0.931 . S
H343 C358 0.930 . S
C344 H332 0.930 1_554 S
C344 C345 1.399 . S
C344 C349 1.399 1_554 S
C345 C344 1.399 . S
C345 C346 1.376 . S
C346 H333 0.930 . S
C346 C345 1.376 . S
C346 C347 1.388 . S
C347 H334 0.930 . S
C347 C346 1.388 . S
C347 C348 1.390 . S
C348 C347 1.390 . S
C348 C349 1.394 1_554 S
C348 C354 1.465 1_554 S
C349 C344 1.399 1_556 S
C349 C348 1.394 1_556 S
C349 C350 1.516 . S
C350 C349 1.516 . S
C350 C351 1.502 . S
C350 C352 1.561 . S
C350 C353 1.526 . S
C351 H335 0.959 . S
C351 H336 0.959 . S
C351 H337 0.961 . S
C351 C350 1.502 . S
C352 H338 0.960 . S
C352 H339 0.961 . S
C352 H340 0.959 . S
C352 C350 1.561 . S
C353 C350 1.526 . S
C353 C354 1.396 . S
C353 C358 1.390 . S
C354 C348 1.465 1_556 S
C354 C353 1.396 . S
C354 C355 1.399 1_556 S
C355 H341 0.929 . S
C355 C354 1.399 1_554 S
C355 C356 1.385 1_554 S
C356 H342 0.931 . S
C356 C355 1.385 1_556 S
C356 C357 1.389 . S
C357 C356 1.389 . S
C357 C358 1.387 . S
C358 H343 0.930 . S
C358 C353 1.390 . S
C358 C357 1.387 . S
H359 C371 0.930 . S
H360 C373 0.930 . S
H361 C374 0.930 . S
H362 C378 0.959 . S
H363 C378 0.959 . S
H364 C378 0.961 . S
H365 C379 0.960 . S
H366 C379 0.961 . S
H367 C379 0.959 . S
H368 C382 0.929 . S
H369 C383 0.931 . S
H370 C385 0.930 . S
C371 H359 0.930 . S
C371 C372 1.399 . S
C371 C376 1.399 . S
C372 C371 1.399 . S
C372 C373 1.376 . S
C373 H360 0.930 . S
C373 C372 1.376 . S
C373 C374 1.388 . S
C374 H361 0.930 . S
C374 C373 1.388 . S
C374 C375 1.390 . S
C375 C374 1.390 . S
C375 C376 1.394 . S
C375 C381 1.465 . S
C376 C371 1.399 . S
C376 C375 1.394 . S
C376 C377 1.516 . S
C377 C376 1.516 . S
C377 C378 1.502 . S
C377 C379 1.561 . S
C377 C380 1.526 . S
C378 H362 0.959 . S
C378 H363 0.959 . S
C378 H364 0.961 . S
C378 C377 1.502 . S
C379 H365 0.960 . S
C379 H366 0.961 . S
C379 H367 0.959 . S
C379 C377 1.561 . S
C380 C377 1.526 . S
C380 C381 1.396 . S
C380 C385 1.390 . S
C381 C375 1.465 . S
C381 C380 1.396 . S
C381 C382 1.399 . S
C382 H368 0.929 . S
C382 C381 1.399 . S
C382 C383 1.385 . S
C383 H369 0.931 . S
C383 C382 1.385 . S
C383 C384 1.389 . S
C384 C383 1.389 . S
C384 C385 1.387 . S
C385 H370 0.930 . S
C385 C380 1.390 . S
C385 C384 1.387 . S
H386 C398 0.930 . S
H387 C400 0.930 . S
H388 C401 0.930 . S
H389 C405 0.959 . S
H390 C405 0.959 . S
H391 C405 0.961 . S
H392 C406 0.960 . S
H393 C406 0.961 . S
H394 C406 0.959 . S
H395 C409 0.929 1_556 S
H396 C410 0.931 . S
H397 C412 0.930 . S
C398 H386 0.930 . S
C398 C399 1.399 . S
C398 C403 1.399 1_556 S
C399 C398 1.399 . S
C399 C400 1.376 . S
C400 H387 0.930 . S
C400 C399 1.376 . S
C400 C401 1.388 . S
C401 H388 0.930 . S
C401 C400 1.388 . S
C401 C402 1.390 . S
C402 C401 1.390 . S
C402 C403 1.394 1_556 S
C402 C408 1.465 1_556 S
C403 C398 1.399 1_554 S
C403 C402 1.394 1_554 S
C403 C404 1.516 . S
C404 C403 1.516 . S
C404 C405 1.502 . S
C404 C406 1.561 . S
C404 C407 1.526 . S
C405 H389 0.959 . S
C405 H390 0.959 . S
C405 H391 0.961 . S
C405 C404 1.502 . S
C406 H392 0.960 . S
C406 H393 0.961 . S
C406 H394 0.959 . S
C406 C404 1.561 . S
C407 C404 1.526 . S
C407 C408 1.396 . S
C407 C412 1.390 . S
C408 C402 1.465 1_554 S
C408 C407 1.396 . S
C408 C409 1.399 . S
C409 H395 0.929 1_554 S
C409 C408 1.399 . S
C409 C410 1.385 . S
C410 H396 0.931 . S
C410 C409 1.385 . S
C410 C411 1.389 . S
C411 C410 1.389 . S
C411 C412 1.387 . S
C412 H397 0.930 . S
C412 C407 1.390 . S
C412 C411 1.387 . S
H413 C425 0.930 . S
H414 C427 0.930 . S
H415 C428 0.930 . S
H416 C432 0.959 . S
H417 C432 0.959 . S
H418 C432 0.961 . S
H419 C433 0.960 . S
H420 C433 0.961 . S
H421 C433 0.959 . S
H422 C436 0.929 . S
H423 C437 0.931 . S
H424 C439 0.930 . S
C425 H413 0.930 . S
C425 C426 1.399 . S
C425 C430 1.399 . S
C426 C425 1.399 . S
C426 C427 1.376 . S
C427 H414 0.930 . S
C427 C426 1.376 . S
C427 C428 1.388 . S
C428 H415 0.930 . S
C428 C427 1.388 . S
C428 C429 1.390 . S
C429 C428 1.390 . S
C429 C430 1.394 . S
C429 C435 1.465 . S
C430 C425 1.399 . S
C430 C429 1.394 . S
C430 C431 1.516 . S
C431 C430 1.516 . S
C431 C432 1.502 . S
C431 C433 1.561 . S
C431 C434 1.526 . S
C432 H416 0.959 . S
C432 H417 0.959 . S
C432 H418 0.961 . S
C432 C431 1.502 . S
C433 H419 0.960 . S
C433 H420 0.961 . S
C433 H421 0.959 . S
C433 C431 1.561 . S
C434 C431 1.526 . S
C434 C435 1.396 . S
C434 C439 1.390 . S
C435 C429 1.465 . S
C435 C434 1.396 . S
C435 C436 1.399 . S
C436 H422 0.929 . S
C436 C435 1.399 . S
C436 C437 1.385 . S
C437 H423 0.931 . S
C437 C436 1.385 . S
C437 C438 1.389 . S
C438 C437 1.389 . S
C438 C439 1.387 . S
C439 H424 0.930 . S
C439 C434 1.390 . S
C439 C438 1.387 . S
H440 C452 0.930 . S
H441 C454 0.930 . S
H442 C455 0.930 . S
H443 C459 0.959 . S
H444 C459 0.959 . S
H445 C459 0.962 1_545 S
H446 C460 0.960 . S
H447 C460 0.961 . S
H448 C460 0.959 . S
H449 C463 0.929 . S
H450 C464 0.931 . S
H451 C466 0.928 . S
C452 H440 0.930 . S
C452 C453 1.399 . S
C452 C457 1.399 . S
C453 C452 1.399 . S
C453 C454 1.376 1_554 S
C454 H441 0.930 . S
C454 C453 1.376 1_556 S
C454 C455 1.388 . S
C455 H442 0.930 . S
C455 C454 1.388 . S
C455 C456 1.390 . S
C456 C455 1.390 . S
C456 C457 1.394 1_556 S
C456 C462 1.465 1_545 S
C457 C452 1.399 . S
C457 C456 1.394 1_554 S
C457 C458 1.516 1_545 S
C458 C457 1.516 1_565 S
C458 C459 1.502 . S
C458 C460 1.561 . S
C458 C461 1.526 . S
C459 H443 0.959 . S
C459 H444 0.959 . S
C459 H445 0.962 1_565 S
C459 C458 1.502 . S
C460 H446 0.960 . S
C460 H447 0.961 . S
C460 H448 0.959 . S
C460 C458 1.561 . S
C461 C458 1.526 . S
C461 C462 1.396 1_554 S
C461 C466 1.389 . S
C462 C456 1.465 1_565 S
C462 C461 1.396 1_556 S
C462 C463 1.399 . S
C463 H449 0.929 . S
C463 C462 1.399 . S
C463 C464 1.385 . S
C464 H450 0.931 . S
C464 C463 1.385 . S
C464 C465 1.389 . S
C465 C464 1.389 . S
C465 C466 1.389 1_556 S
C466 H451 0.928 . S
C466 C461 1.389 . S
C466 C465 1.389 1_554 S
H467 C479 0.930 . S
H468 C481 0.930 . S
H469 C482 0.930 . S
H470 C486 0.959 . S
H471 C486 0.959 . S
H472 C486 0.961 . S
H473 C487 0.960 . S
H474 C487 0.961 . S
H475 C487 0.959 . S
H476 C490 0.929 . S
H477 C491 0.931 . S
H478 C493 0.930 . S
C479 H467 0.930 . S
C479 C480 1.399 . S
C479 C484 1.399 . S
C480 C479 1.399 . S
C480 C481 1.376 . S
C481 H468 0.930 . S
C481 C480 1.376 . S
C481 C482 1.388 . S
C482 H469 0.930 . S
C482 C481 1.388 . S
C482 C483 1.390 . S
C483 C482 1.390 . S
C483 C484 1.394 . S
C483 C489 1.465 1_565 S
C484 C479 1.399 . S
C484 C483 1.394 . S
C484 C485 1.516 . S
C485 C484 1.516 . S
C485 C486 1.502 . S
C485 C487 1.561 . S
C485 C488 1.526 1_565 S
C486 H470 0.959 . S
C486 H471 0.959 . S
C486 H472 0.961 . S
C486 C485 1.502 . S
C487 H473 0.960 . S
C487 H474 0.961 . S
C487 H475 0.959 . S
C487 C485 1.561 . S
C488 C485 1.526 1_545 S
C488 C489 1.396 . S
C488 C493 1.390 . S
C489 C483 1.465 1_545 S
C489 C488 1.396 . S
C489 C490 1.399 . S
C490 H476 0.929 . S
C490 C489 1.399 . S
C490 C491 1.385 . S
C491 H477 0.931 . S
C491 C490 1.385 . S
C491 C492 1.389 . S
C492 C491 1.389 . S
C492 C493 1.387 . S
C493 H478 0.930 . S
C493 C488 1.390 . S
C493 C492 1.387 . S
H494 C506 0.930 . S
H495 C508 0.930 . S
H496 C509 0.930 1_545 S
H497 C513 0.959 . S
H498 C513 0.959 . S
H499 C513 0.961 . S
H500 C514 0.960 . S
H501 C514 0.961 . S
H502 C514 0.959 . S
H503 C517 0.929 . S
H504 C518 0.931 . S
H505 C520 0.930 . S
C506 H494 0.930 . S
C506 C507 1.399 . S
C506 C511 1.399 . S
C507 C506 1.399 . S
C507 C508 1.376 . S
C508 H495 0.930 . S
C508 C507 1.376 . S
C508 C509 1.388 . S
C509 H496 0.930 1_565 S
C509 C508 1.388 . S
C509 C510 1.390 . S
C510 C509 1.390 . S
C510 C511 1.394 . S
C510 C516 1.465 1_566 S
C511 C506 1.399 . S
C511 C510 1.394 . S
C511 C512 1.516 1_556 S
C512 C511 1.516 1_554 S
C512 C513 1.502 . S
C512 C514 1.561 . S
C512 C515 1.526 1_565 S
C513 H497 0.959 . S
C513 H498 0.959 . S
C513 H499 0.961 . S
C513 C512 1.502 . S
C514 H500 0.960 . S
C514 H501 0.961 . S
C514 H502 0.959 . S
C514 C512 1.561 . S
C515 C512 1.526 1_545 S
C515 C516 1.396 . S
C515 C520 1.390 . S
C516 C510 1.465 1_544 S
C516 C515 1.396 . S
C516 C517 1.399 1_554 S
C517 H503 0.929 . S
C517 C516 1.399 1_556 S
C517 C518 1.385 1_556 S
C518 H504 0.931 . S
C518 C517 1.385 1_554 S
C518 C519 1.389 . S
C519 C518 1.389 . S
C519 C520 1.387 . S
C520 H505 0.930 . S
C520 C515 1.390 . S
C520 C519 1.387 . S
H521 C533 0.930 . S
H522 C535 0.930 . S
H523 C536 0.930 . S
H524 C540 0.959 . S
H525 C540 0.959 . S
H526 C540 0.961 . S
H527 C541 0.960 . S
H528 C541 0.961 . S
H529 C541 0.959 . S
H530 C544 0.929 1_545 S
H531 C545 0.931 . S
H532 C547 0.930 . S
C533 H521 0.930 . S
C533 C534 1.399 . S
C533 C538 1.399 . S
C534 C533 1.399 . S
C534 C535 1.376 . S
C535 H522 0.930 . S
C535 C534 1.376 . S
C535 C536 1.388 . S
C536 H523 0.930 . S
C536 C535 1.388 . S
C536 C537 1.390 . S
C537 C536 1.390 . S
C537 C538 1.394 . S
C537 C543 1.465 1_545 S
C538 C533 1.399 . S
C538 C537 1.394 . S
C538 C539 1.516 1_545 S
C539 C538 1.516 1_565 S
C539 C540 1.502 . S
C539 C541 1.561 . S
C539 C542 1.526 . S
C540 H524 0.959 . S
C540 H525 0.959 . S
C540 H526 0.961 . S
C540 C539 1.502 . S
C541 H527 0.960 . S
C541 H528 0.961 . S
C541 H529 0.959 . S
C541 C539 1.561 . S
C542 C539 1.526 . S
C542 C543 1.396 . S
C542 C547 1.390 . S
C543 C537 1.465 1_565 S
C543 C542 1.396 . S
C543 C544 1.399 . S
C544 H530 0.929 1_565 S
C544 C543 1.399 . S
C544 C545 1.385 . S
C545 H531 0.931 . S
C545 C544 1.385 . S
C545 C546 1.389 . S
C546 C545 1.389 . S
C546 C547 1.387 . S
C547 H532 0.930 . S
C547 C542 1.390 . S
C547 C546 1.387 . S
H548 C560 0.930 . S
H549 C562 0.930 . S
H550 C563 0.930 . S
H551 C567 0.959 1_556 S
H552 C567 0.959 . S
H553 C567 0.961 . S
H554 C568 0.960 . S
H555 C568 0.961 . S
H556 C568 0.959 . S
H557 C571 0.929 . S
H558 C572 0.931 . S
H559 C574 0.930 . S
C560 H548 0.930 . S
C560 C561 1.399 . S
C560 C565 1.403 . S
C561 C560 1.399 . S
C561 C562 1.376 . S
C562 H549 0.930 . S
C562 C561 1.376 . S
C562 C563 1.388 . S
C563 H550 0.930 . S
C563 C562 1.388 . S
C563 C564 1.390 . S
C564 C563 1.390 . S
C564 C565 1.397 . S
C564 C570 1.465 1_556 S
C565 C560 1.403 . S
C565 C564 1.397 . S
C565 C566 1.508 1_556 S
C566 C565 1.508 1_554 S
C566 C567 1.502 . S
C566 C568 1.561 . S
C566 C569 1.526 . S
C567 H551 0.959 1_554 S
C567 H552 0.959 . S
C567 H553 0.961 . S
C567 C566 1.502 . S
C568 H554 0.960 . S
C568 H555 0.961 . S
C568 H556 0.959 . S
C568 C566 1.561 . S
C569 C566 1.526 . S
C569 C570 1.396 . S
C569 C574 1.390 . S
C570 C564 1.465 1_554 S
C570 C569 1.396 . S
C570 C571 1.399 1_554 S
C571 H557 0.929 . S
C571 C570 1.399 1_556 S
C571 C572 1.385 1_556 S
C572 H558 0.931 . S
C572 C571 1.385 1_554 S
C572 C573 1.389 . S
C573 C572 1.389 . S
C573 C574 1.387 . S
C574 H559 0.930 . S
C574 C569 1.390 . S
C574 C573 1.387 . S
H575 C587 0.930 . S
H576 C589 0.930 . S
H577 C590 0.930 . S
H578 C594 0.959 . S
H579 C594 0.959 . S
H580 C594 0.961 . S
H581 C595 0.960 . S
H582 C595 0.961 . S
H583 C595 0.959 . S
H584 C598 0.929 . S
H585 C599 0.931 . S
H586 C601 0.930 . S
C587 H575 0.930 . S
C587 C588 1.399 . S
C587 C592 1.399 . S
C588 C587 1.399 . S
C588 C589 1.376 . S
C589 H576 0.930 . S
C589 C588 1.376 . S
C589 C590 1.388 . S
C590 H577 0.930 . S
C590 C589 1.388 . S
C590 C591 1.390 . S
C591 C590 1.390 . S
C591 C592 1.394 . S
C591 C597 1.465 . S
C592 C587 1.399 . S
C592 C591 1.394 . S
C592 C593 1.516 . S
C593 C592 1.516 . S
C593 C594 1.502 . S
C593 C595 1.561 . S
C593 C596 1.526 . S
C594 H578 0.959 . S
C594 H579 0.959 . S
C594 H580 0.961 . S
C594 C593 1.502 . S
C595 H581 0.960 . S
C595 H582 0.961 . S
C595 H583 0.959 . S
C595 C593 1.561 . S
C596 C593 1.526 . S
C596 C597 1.396 . S
C596 C601 1.390 . S
C597 C591 1.465 . S
C597 C596 1.396 . S
C597 C598 1.399 . S
C598 H584 0.929 . S
C598 C597 1.399 . S
C598 C599 1.385 . S
C599 H585 0.931 . S
C599 C598 1.385 . S
C599 C600 1.389 . S
C600 C599 1.389 . S
C600 C601 1.387 . S
C601 H586 0.930 . S
C601 C596 1.390 . S
C601 C600 1.387 . S
H602 C614 0.930 . S
H603 C616 0.930 . S
H604 C617 0.930 . S
H605 C621 0.959 . S
H606 C621 0.959 . S
H607 C621 0.961 . S
H608 C622 0.960 . S
H609 C622 0.961 . S
H610 C622 0.959 . S
H611 C625 0.929 . S
H612 C626 0.931 . S
H613 C628 0.930 . S
C614 H602 0.930 . S
C614 C615 1.399 . S
C614 C619 1.399 . S
C615 C614 1.399 . S
C615 C616 1.376 . S
C616 H603 0.930 . S
C616 C615 1.376 . S
C616 C617 1.388 1_554 S
C617 H604 0.930 . S
C617 C616 1.388 1_556 S
C617 C618 1.390 . S
C618 C617 1.390 . S
C618 C619 1.394 1_556 S
C618 C624 1.465 . S
C619 C614 1.399 . S
C619 C618 1.394 1_554 S
C619 C620 1.516 . S
C620 C619 1.516 . S
C620 C621 1.502 . S
C620 C622 1.561 . S
C620 C623 1.526 1_554 S
C621 H605 0.959 . S
C621 H606 0.959 . S
C621 H607 0.961 . S
C621 C620 1.502 . S
C622 H608 0.960 . S
C622 H609 0.961 . S
C622 H610 0.959 . S
C622 C620 1.561 . S
C623 C620 1.526 1_556 S
C623 C624 1.396 . S
C623 C628 1.390 . S
C624 C618 1.465 . S
C624 C623 1.396 . S
C624 C625 1.399 . S
C625 H611 0.929 . S
C625 C624 1.399 . S
C625 C626 1.385 . S
C626 H612 0.931 . S
C626 C625 1.385 . S
C626 C627 1.389 . S
C627 C626 1.389 . S
C627 C628 1.387 . S
C628 H613 0.930 . S
C628 C623 1.390 . S
C628 C627 1.387 . S
H629 C641 0.930 . S
H630 C643 0.930 . S
H631 C644 0.930 . S
H632 C648 0.959 . S
H633 C648 0.959 . S
H634 C648 0.961 . S
H635 C649 0.960 . S
H636 C649 0.961 . S
H637 C649 0.959 . S
H638 C652 0.929 . S
H639 C653 0.931 . S
H640 C655 0.930 . S
C641 H629 0.930 . S
C641 C642 1.399 . S
C641 C646 1.399 . S
C642 C641 1.399 . S
C642 C643 1.376 . S
C643 H630 0.930 . S
C643 C642 1.376 . S
C643 C644 1.388 . S
C644 H631 0.930 . S
C644 C643 1.388 . S
C644 C645 1.390 . S
C645 C644 1.390 . S
C645 C646 1.394 . S
C645 C651 1.465 . S
C646 C641 1.399 . S
C646 C645 1.394 . S
C646 C647 1.516 . S
C647 C646 1.516 . S
C647 C648 1.502 . S
C647 C649 1.561 . S
C647 C650 1.526 . S
C648 H632 0.959 . S
C648 H633 0.959 . S
C648 H634 0.961 . S
C648 C647 1.502 . S
C649 H635 0.960 . S
C649 H636 0.961 . S
C649 H637 0.959 . S
C649 C647 1.561 . S
C650 C647 1.526 . S
C650 C651 1.396 . S
C650 C655 1.390 . S
C651 C645 1.465 . S
C651 C650 1.396 . S
C651 C652 1.399 . S
C652 H638 0.929 . S
C652 C651 1.399 . S
C652 C653 1.385 . S
C653 H639 0.931 . S
C653 C652 1.385 . S
C653 C654 1.389 . S
C654 C653 1.389 . S
C654 C655 1.387 . S
C655 H640 0.930 . S
C655 C650 1.390 . S
C655 C654 1.387 . S
H656 C668 0.930 . S
H657 C670 0.930 . S
H658 C671 0.930 . S
H659 C675 0.959 . S
H660 C675 0.959 . S
H661 C675 0.961 . S
H662 C676 0.960 . S
H663 C676 0.961 . S
H664 C676 0.959 . S
H665 C679 0.929 . S
H666 C680 0.931 . S
H667 C682 0.930 . S
C668 H656 0.930 . S
C668 C669 1.399 . S
C668 C673 1.399 . S
C669 C668 1.399 . S
C669 C670 1.376 . S
C670 H657 0.930 . S
C670 C669 1.376 . S
C670 C671 1.388 . S
C671 H658 0.930 . S
C671 C670 1.388 . S
C671 C672 1.390 . S
C672 C671 1.390 . S
C672 C673 1.394 . S
C672 C678 1.465 . S
C673 C668 1.399 . S
C673 C672 1.394 . S
C673 C674 1.516 . S
C674 C673 1.516 . S
C674 C675 1.502 . S
C674 C676 1.561 . S
C674 C677 1.526 . S
C675 H659 0.959 . S
C675 H660 0.959 . S
C675 H661 0.961 . S
C675 C674 1.502 . S
C676 H662 0.960 . S
C676 H663 0.961 . S
C676 H664 0.959 . S
C676 C674 1.561 . S
C677 C674 1.526 . S
C677 C678 1.396 . S
C677 C682 1.390 . S
C678 C672 1.465 . S
C678 C677 1.396 . S
C678 C679 1.399 . S
C679 H665 0.929 . S
C679 C678 1.399 . S
C679 C680 1.385 . S
C680 H666 0.931 . S
C680 C679 1.385 . S
C680 C681 1.389 . S
C681 C680 1.389 . S
C681 C682 1.387 . S
C682 H667 0.930 . S
C682 C677 1.390 . S
C682 C681 1.387 . S
H683 C695 0.930 . S
H684 C697 0.930 . S
H685 C698 0.930 . S
H686 C702 0.959 . S
H687 C702 0.959 . S
H688 C702 0.961 1_655 S
H689 C703 0.960 1_655 S
H690 C703 0.961 . S
H691 C703 0.959 . S
H692 C706 0.929 . S
H693 C707 0.931 . S
H694 C709 0.930 . S
C695 H683 0.930 . S
C695 C696 1.399 . S
C695 C700 1.399 . S
C696 C695 1.399 . S
C696 C697 1.376 . S
C697 H684 0.930 . S
C697 C696 1.376 . S
C697 C698 1.388 . S
C698 H685 0.930 . S
C698 C697 1.388 . S
C698 C699 1.390 . S
C699 C698 1.390 . S
C699 C700 1.394 . S
C699 C705 1.465 1_655 S
C700 C695 1.399 . S
C700 C699 1.394 . S
C700 C701 1.516 1_655 S
C701 C700 1.516 1_455 S
C701 C702 1.502 . S
C701 C703 1.561 . S
C701 C704 1.526 . S
C702 H686 0.959 . S
C702 H687 0.959 . S
C702 H688 0.961 1_455 S
C702 C701 1.502 . S
C703 H689 0.960 1_455 S
C703 H690 0.961 . S
C703 H691 0.959 . S
C703 C701 1.561 . S
C704 C701 1.526 . S
C704 C705 1.396 . S
C704 C709 1.390 . S
C705 C699 1.465 1_455 S
C705 C704 1.396 . S
C705 C706 1.399 . S
C706 H692 0.929 . S
C706 C705 1.399 . S
C706 C707 1.385 . S
C707 H693 0.931 . S
C707 C706 1.385 . S
C707 C708 1.389 . S
C708 C707 1.389 . S
C708 C709 1.387 . S
C709 H694 0.930 . S
C709 C704 1.390 . S
C709 C708 1.387 . S
H710 C722 0.930 . S
H711 C724 0.930 . S
H712 C725 0.930 . S
H713 C729 0.959 . S
H714 C729 0.959 . S
H715 C729 0.961 . S
H716 C730 0.960 . S
H717 C730 0.961 . S
H718 C730 0.959 . S
H719 C733 0.929 . S
H720 C734 0.931 . S
H721 C736 0.930 . S
C722 H710 0.930 . S
C722 C723 1.399 . S
C722 C727 1.399 . S
C723 C722 1.399 . S
C723 C724 1.376 . S
C724 H711 0.930 . S
C724 C723 1.376 . S
C724 C725 1.388 . S
C725 H712 0.930 . S
C725 C724 1.388 . S
C725 C726 1.390 . S
C726 C725 1.390 . S
C726 C727 1.394 . S
C726 C732 1.465 . S
C727 C722 1.399 . S
C727 C726 1.394 . S
C727 C728 1.516 . S
C728 C727 1.516 . S
C728 C729 1.502 . S
C728 C730 1.561 . S
C728 C731 1.526 . S
C729 H713 0.959 . S
C729 H714 0.959 . S
C729 H715 0.961 . S
C729 C728 1.502 . S
C730 H716 0.960 . S
C730 H717 0.961 . S
C730 H718 0.959 . S
C730 C728 1.561 . S
C731 C728 1.526 . S
C731 C732 1.396 . S
C731 C736 1.390 . S
C732 C726 1.465 . S
C732 C731 1.396 . S
C732 C733 1.399 . S
C733 H719 0.929 . S
C733 C732 1.399 . S
C733 C734 1.385 . S
C734 H720 0.931 . S
C734 C733 1.385 . S
C734 C735 1.389 . S
C735 C734 1.389 . S
C735 C736 1.387 . S
C736 H721 0.930 . S
C736 C731 1.390 . S
C736 C735 1.387 . S
H737 C749 0.930 . S
H738 C751 0.930 . S
H739 C752 0.930 . S
H740 C756 0.959 . S
H741 C756 0.959 1_655 S
H742 C756 0.961 . S
H743 C757 0.960 . S
H744 C757 0.961 1_655 S
H745 C757 0.959 . S
H746 C760 0.929 . S
H747 C761 0.931 . S
H748 C763 0.930 . S
C749 H737 0.930 . S
C749 C750 1.399 . S
C749 C754 1.399 . S
C750 C749 1.399 . S
C750 C751 1.376 . S
C751 H738 0.930 . S
C751 C750 1.376 . S
C751 C752 1.388 . S
C752 H739 0.930 . S
C752 C751 1.388 . S
C752 C753 1.390 . S
C753 C752 1.390 . S
C753 C754 1.394 . S
C753 C759 1.465 1_455 S
C754 C749 1.399 . S
C754 C753 1.394 . S
C754 C755 1.516 . S
C755 C754 1.516 . S
C755 C756 1.502 . S
C755 C757 1.561 . S
C755 C758 1.526 1_455 S
C756 H740 0.959 . S
C756 H741 0.959 1_455 S
C756 H742 0.961 . S
C756 C755 1.502 . S
C757 H743 0.960 . S
C757 H744 0.961 1_455 S
C757 H745 0.959 . S
C757 C755 1.561 . S
C758 C755 1.526 1_655 S
C758 C759 1.396 . S
C758 C763 1.390 . S
C759 C753 1.465 1_655 S
C759 C758 1.396 . S
C759 C760 1.399 . S
C760 H746 0.929 . S
C760 C759 1.399 . S
C760 C761 1.385 . S
C761 H747 0.931 . S
C761 C760 1.385 . S
C761 C762 1.389 . S
C762 C761 1.389 . S
C762 C763 1.387 . S
C763 H748 0.930 . S
C763 C758 1.390 . S
C763 C762 1.387 . S
H764 C776 0.930 . S
H765 C778 0.930 . S
H766 C779 0.930 . S
H767 C783 0.959 . S
H768 C783 0.959 . S
H769 C783 0.961 1_455 S
H770 C784 0.960 1_455 S
H771 C784 0.961 . S
H772 C784 0.959 . S
H773 C787 0.929 . S
H774 C788 0.931 . S
H775 C790 0.930 . S
C776 H764 0.930 . S
C776 C777 1.399 . S
C776 C781 1.399 . S
C777 C776 1.399 . S
C777 C778 1.376 . S
C778 H765 0.930 . S
C778 C777 1.376 . S
C778 C779 1.388 . S
C779 H766 0.930 . S
C779 C778 1.388 . S
C779 C780 1.390 . S
C780 C779 1.390 . S
C780 C781 1.394 . S
C780 C786 1.465 1_455 S
C781 C776 1.399 . S
C781 C780 1.394 . S
C781 C782 1.516 1_455 S
C782 C781 1.516 1_655 S
C782 C783 1.502 . S
C782 C784 1.561 . S
C782 C785 1.526 . S
C783 H767 0.959 . S
C783 H768 0.959 . S
C783 H769 0.961 1_655 S
C783 C782 1.502 . S
C784 H770 0.960 1_655 S
C784 H771 0.961 . S
C784 H772 0.959 . S
C784 C782 1.561 . S
C785 C782 1.526 . S
C785 C786 1.396 . S
C785 C790 1.390 . S
C786 C780 1.465 1_655 S
C786 C785 1.396 . S
C786 C787 1.399 . S
C787 H773 0.929 . S
C787 C786 1.399 . S
C787 C788 1.385 . S
C788 H774 0.931 . S
C788 C787 1.385 . S
C788 C789 1.389 . S
C789 C788 1.389 . S
C789 C790 1.387 . S
C790 H775 0.930 . S
C790 C785 1.390 . S
C790 C789 1.387 . S
H791 C803 0.930 . S
H792 C805 0.930 . S
H793 C806 0.930 . S
H794 C810 0.959 . S
H795 C810 0.959 . S
H796 C810 0.961 . S
H797 C811 0.960 . S
H798 C811 0.961 . S
H799 C811 0.959 . S
H800 C814 0.929 . S
H801 C815 0.931 . S
H802 C817 0.930 . S
C803 H791 0.930 . S
C803 C804 1.399 . S
C803 C808 1.399 . S
C804 C803 1.399 . S
C804 C805 1.376 . S
C805 H792 0.930 . S
C805 C804 1.376 . S
C805 C806 1.388 . S
C806 H793 0.930 . S
C806 C805 1.388 . S
C806 C807 1.390 . S
C807 C806 1.390 . S
C807 C808 1.394 . S
C807 C813 1.465 . S
C808 C803 1.399 . S
C808 C807 1.394 . S
C808 C809 1.516 . S
C809 C808 1.516 . S
C809 C810 1.502 . S
C809 C811 1.561 . S
C809 C812 1.526 . S
C810 H794 0.959 . S
C810 H795 0.959 . S
C810 H796 0.961 . S
C810 C809 1.502 . S
C811 H797 0.960 . S
C811 H798 0.961 . S
C811 H799 0.959 . S
C811 C809 1.561 . S
C812 C809 1.526 . S
C812 C813 1.396 . S
C812 C817 1.390 . S
C813 C807 1.465 . S
C813 C812 1.396 . S
C813 C814 1.399 . S
C814 H800 0.929 . S
C814 C813 1.399 . S
C814 C815 1.385 . S
C815 H801 0.931 . S
C815 C814 1.385 . S
C815 C816 1.389 . S
C816 C815 1.389 . S
C816 C817 1.387 . S
C817 H802 0.930 . S
C817 C812 1.390 . S
C817 C816 1.387 . S
H818 C830 0.930 . S
H819 C832 0.930 . S
H820 C833 0.930 . S
H821 C837 0.959 . S
H822 C837 0.959 . S
H823 C837 0.961 1_455 S
H824 C838 0.960 1_455 S
H825 C838 0.961 . S
H826 C838 0.959 . S
H827 C841 0.929 . S
H828 C842 0.931 . S
H829 C844 0.930 . S
C830 H818 0.930 . S
C830 C831 1.399 . S
C830 C835 1.399 . S
C831 C830 1.399 . S
C831 C832 1.376 . S
C832 H819 0.930 . S
C832 C831 1.376 . S
C832 C833 1.388 . S
C833 H820 0.930 . S
C833 C832 1.388 . S
C833 C834 1.390 . S
C834 C833 1.390 . S
C834 C835 1.394 . S
C834 C840 1.465 1_455 S
C835 C830 1.399 . S
C835 C834 1.394 . S
C835 C836 1.516 1_455 S
C836 C835 1.516 1_655 S
C836 C837 1.502 . S
C836 C838 1.561 . S
C836 C839 1.526 . S
C837 H821 0.959 . S
C837 H822 0.959 . S
C837 H823 0.961 1_655 S
C837 C836 1.502 . S
C838 H824 0.960 1_655 S
C838 H825 0.961 . S
C838 H826 0.959 . S
C838 C836 1.561 . S
C839 C836 1.526 . S
C839 C840 1.396 . S
C839 C844 1.390 . S
C840 C834 1.465 1_655 S
C840 C839 1.396 . S
C840 C841 1.399 . S
C841 H827 0.929 . S
C841 C840 1.399 . S
C841 C842 1.385 . S
C842 H828 0.931 . S
C842 C841 1.385 . S
C842 C843 1.389 . S
C843 C842 1.389 . S
C843 C844 1.387 . S
C844 H829 0.930 . S
C844 C839 1.390 . S
C844 C843 1.387 . S
H845 C857 0.930 . S
H846 C859 0.930 . S
H847 C860 0.930 . S
H848 C864 0.959 . S
H849 C864 0.959 . S
H850 C864 0.961 . S
H851 C865 0.960 . S
H852 C865 0.961 . S
H853 C865 0.959 . S
H854 C868 0.929 . S
H855 C869 0.931 . S
H856 C871 0.930 . S
C857 H845 0.930 . S
C857 C858 1.399 . S
C857 C862 1.399 . S
C858 C857 1.399 . S
C858 C859 1.376 . S
C859 H846 0.930 . S
C859 C858 1.376 . S
C859 C860 1.388 . S
C860 H847 0.930 . S
C860 C859 1.388 . S
C860 C861 1.390 . S
C861 C860 1.390 . S
C861 C862 1.394 . S
C861 C867 1.465 . S
C862 C857 1.399 . S
C862 C861 1.394 . S
C862 C863 1.516 . S
C863 C862 1.516 . S
C863 C864 1.502 . S
C863 C865 1.561 . S
C863 C866 1.526 . S
C864 H848 0.959 . S
C864 H849 0.959 . S
C864 H850 0.961 . S
C864 C863 1.502 . S
C865 H851 0.960 . S
C865 H852 0.961 . S
C865 H853 0.959 . S
C865 C863 1.561 . S
C866 C863 1.526 . S
C866 C867 1.396 . S
C866 C871 1.390 . S
C867 C861 1.465 . S
C867 C866 1.396 . S
C867 C868 1.399 . S
C868 H854 0.929 . S
C868 C867 1.399 . S
C868 C869 1.385 . S
C869 H855 0.931 . S
C869 C868 1.385 . S
C869 C870 1.389 . S
C870 C869 1.389 . S
C870 C871 1.387 . S
C871 H856 0.930 . S
C871 C866 1.390 . S
C871 C870 1.387 . S
H872 C884 0.930 . S
H873 C886 0.930 . S
H874 C887 0.930 . S
H875 C891 0.959 . S
H876 C891 0.959 . S
H877 C891 0.961 . S
H878 C892 0.960 . S
H879 C892 0.961 . S
H880 C892 0.959 . S
H881 C895 0.929 . S
H882 C896 0.931 . S
H883 C898 0.930 . S
C884 H872 0.930 . S
C884 C885 1.399 . S
C884 C889 1.399 . S
C885 C884 1.399 . S
C885 C886 1.376 . S
C886 H873 0.930 . S
C886 C885 1.376 . S
C886 C887 1.388 . S
C887 H874 0.930 . S
C887 C886 1.388 . S
C887 C888 1.390 . S
C888 C887 1.390 . S
C888 C889 1.394 . S
C888 C894 1.465 . S
C889 C884 1.399 . S
C889 C888 1.394 . S
C889 C890 1.516 . S
C890 C889 1.516 . S
C890 C891 1.502 . S
C890 C892 1.561 . S
C890 C893 1.526 . S
C891 H875 0.959 . S
C891 H876 0.959 . S
C891 H877 0.961 . S
C891 C890 1.502 . S
C892 H878 0.960 . S
C892 H879 0.961 . S
C892 H880 0.959 . S
C892 C890 1.561 . S
C893 C890 1.526 . S
C893 C894 1.396 . S
C893 C898 1.390 . S
C894 C888 1.465 . S
C894 C893 1.396 . S
C894 C895 1.399 . S
C895 H881 0.929 . S
C895 C894 1.399 . S
C895 C896 1.385 . S
C896 H882 0.931 . S
C896 C895 1.385 . S
C896 C897 1.389 . S
C897 C896 1.389 . S
C897 C898 1.387 . S
C898 H883 0.930 . S
C898 C893 1.390 . S
C898 C897 1.387 . S
H899 C911 0.930 . S
H900 C913 0.930 . S
H901 C914 0.930 . S
H902 C918 0.959 . S
H903 C918 0.959 . S
H904 C918 0.961 . S
H905 C919 0.960 . S
H906 C919 0.961 . S
H907 C919 0.959 . S
H908 C922 0.929 . S
H909 C923 0.931 . S
H910 C925 0.930 . S
C911 H899 0.930 . S
C911 C912 1.399 . S
C911 C916 1.399 . S
C912 C911 1.399 . S
C912 C913 1.376 . S
C913 H900 0.930 . S
C913 C912 1.376 . S
C913 C914 1.388 . S
C914 H901 0.930 . S
C914 C913 1.388 . S
C914 C915 1.390 . S
C915 C914 1.390 . S
C915 C916 1.394 . S
C915 C921 1.465 . S
C916 C911 1.399 . S
C916 C915 1.394 . S
C916 C917 1.516 . S
C917 C916 1.516 . S
C917 C918 1.502 . S
C917 C919 1.561 . S
C917 C920 1.526 . S
C918 H902 0.959 . S
C918 H903 0.959 . S
C918 H904 0.961 . S
C918 C917 1.502 . S
C919 H905 0.960 . S
C919 H906 0.961 . S
C919 H907 0.959 . S
C919 C917 1.561 . S
C920 C917 1.526 . S
C920 C921 1.396 . S
C920 C925 1.390 . S
C921 C915 1.465 . S
C921 C920 1.396 . S
C921 C922 1.399 . S
C922 H908 0.929 . S
C922 C921 1.399 . S
C922 C923 1.385 . S
C923 H909 0.931 . S
C923 C922 1.385 . S
C923 C924 1.389 . S
C924 C923 1.389 . S
C924 C925 1.387 . S
C925 H910 0.930 . S
C925 C920 1.390 . S
C925 C924 1.387 . S
H926 C938 0.930 . S
H927 C940 0.930 . S
H928 C941 0.930 . S
H929 C945 0.959 . S
H930 C945 0.959 . S
H931 C945 0.961 . S
H932 C946 0.960 . S
H933 C946 0.961 . S
H934 C946 0.959 . S
H935 C949 0.929 . S
H936 C950 0.931 . S
H937 C952 0.930 . S
C938 H926 0.930 . S
C938 C939 1.399 . S
C938 C943 1.399 . S
C939 C938 1.399 . S
C939 C940 1.376 . S
C940 H927 0.930 . S
C940 C939 1.376 . S
C940 C941 1.388 . S
C941 H928 0.930 . S
C941 C940 1.388 . S
C941 C942 1.390 . S
C942 C941 1.390 . S
C942 C943 1.394 . S
C942 C948 1.465 . S
C943 C938 1.399 . S
C943 C942 1.394 . S
C943 C944 1.516 . S
C944 C943 1.516 . S
C944 C945 1.502 . S
C944 C946 1.561 . S
C944 C947 1.526 . S
C945 H929 0.959 . S
C945 H930 0.959 . S
C945 H931 0.961 . S
C945 C944 1.502 . S
C946 H932 0.960 . S
C946 H933 0.961 . S
C946 H934 0.959 . S
C946 C944 1.561 . S
C947 C944 1.526 . S
C947 C948 1.396 . S
C947 C952 1.390 . S
C948 C942 1.465 . S
C948 C947 1.396 . S
C948 C949 1.399 . S
C949 H935 0.929 . S
C949 C948 1.399 . S
C949 C950 1.385 . S
C950 H936 0.931 . S
C950 C949 1.385 . S
C950 C951 1.389 . S
C951 C950 1.389 . S
C951 C952 1.387 . S
C952 H937 0.930 . S
C952 C947 1.390 . S
C952 C951 1.387 . S
H953 C965 0.930 . S
H954 C967 0.930 . S
H955 C968 0.930 . S
H956 C972 0.959 . S
H957 C972 0.959 . S
H958 C972 0.961 . S
H959 C973 0.960 . S
H960 C973 0.961 . S
H961 C973 0.959 . S
H962 C976 0.929 . S
H963 C977 0.931 . S
H964 C979 0.930 . S
C965 H953 0.930 . S
C965 C966 1.399 . S
C965 C970 1.399 . S
C966 C965 1.399 . S
C966 C967 1.376 . S
C967 H954 0.930 . S
C967 C966 1.376 . S
C967 C968 1.388 . S
C968 H955 0.930 . S
C968 C967 1.388 . S
C968 C969 1.390 . S
C969 C968 1.390 . S
C969 C970 1.394 . S
C969 C975 1.465 . S
C970 C965 1.399 . S
C970 C969 1.394 . S
C970 C971 1.516 . S
C971 C970 1.516 . S
C971 C972 1.502 . S
C971 C973 1.561 . S
C971 C974 1.526 . S
C972 H956 0.959 . S
C972 H957 0.959 . S
C972 H958 0.961 . S
C972 C971 1.502 . S
C973 H959 0.960 . S
C973 H960 0.961 . S
C973 H961 0.959 . S
C973 C971 1.561 . S
C974 C971 1.526 . S
C974 C975 1.396 . S
C974 C979 1.390 . S
C975 C969 1.465 . S
C975 C974 1.396 . S
C975 C976 1.399 . S
C976 H962 0.929 . S
C976 C975 1.399 . S
C976 C977 1.385 . S
C977 H963 0.931 . S
C977 C976 1.385 . S
C977 C978 1.389 . S
C978 C977 1.389 . S
C978 C979 1.387 . S
C979 H964 0.930 . S
C979 C974 1.390 . S
C979 C978 1.387 . S
H980 C992 0.930 . S
H981 C994 0.930 . S
H982 C995 0.930 . S
H983 C999 0.959 . S
H984 C999 0.959 . S
H985 C999 0.961 . S
H986 C1000 0.960 . S
H987 C1000 0.961 . S
H988 C1000 0.959 . S
H989 C1003 0.929 . S
H990 C1004 0.931 . S
H991 C1006 0.930 . S
C992 H980 0.930 . S
C992 C993 1.399 . S
C992 C997 1.399 . S
C993 C992 1.399 . S
C993 C994 1.376 . S
C994 H981 0.930 . S
C994 C993 1.376 . S
C994 C995 1.388 . S
C995 H982 0.930 . S
C995 C994 1.388 . S
C995 C996 1.390 . S
C996 C995 1.390 . S
C996 C997 1.394 . S
C996 C1002 1.465 . S
C997 C992 1.399 . S
C997 C996 1.394 . S
C997 C998 1.516 . S
C998 C997 1.516 . S
C998 C999 1.502 . S
C998 C1000 1.561 . S
C998 C1001 1.526 . S
C999 H983 0.959 . S
C999 H984 0.959 . S
C999 H985 0.961 . S
C999 C998 1.502 . S
C1000 H986 0.960 . S
C1000 H987 0.961 . S
C1000 H988 0.959 . S
C1000 C998 1.561 . S
C1001 C998 1.526 . S
C1001 C1002 1.396 . S
C1001 C1006 1.390 . S
C1002 C996 1.465 . S
C1002 C1001 1.396 . S
C1002 C1003 1.399 . S
C1003 H989 0.929 . S
C1003 C1002 1.399 . S
C1003 C1004 1.385 . S
C1004 H990 0.931 . S
C1004 C1003 1.385 . S
C1004 C1005 1.389 . S
C1005 C1004 1.389 . S
C1005 C1006 1.387 . S
C1006 H991 0.930 . S
C1006 C1001 1.390 . S
C1006 C1005 1.387 . S
H1007 C1019 0.930 . S
H1008 C1021 0.930 . S
H1009 C1022 0.930 . S
H1010 C1026 0.959 . S
H1011 C1026 0.959 . S
H1012 C1026 0.961 . S
H1013 C1027 0.960 . S
H1014 C1027 0.961 . S
H1015 C1027 0.959 . S
H1016 C1030 0.929 . S
H1017 C1031 0.931 . S
H1018 C1033 0.930 . S
C1019 H1007 0.930 . S
C1019 C1020 1.399 . S
C1019 C1024 1.399 . S
C1020 C1019 1.399 . S
C1020 C1021 1.376 . S
C1021 H1008 0.930 . S
C1021 C1020 1.376 . S
C1021 C1022 1.388 . S
C1022 H1009 0.930 . S
C1022 C1021 1.388 . S
C1022 C1023 1.390 . S
C1023 C1022 1.390 . S
C1023 C1024 1.394 . S
C1023 C1029 1.465 . S
C1024 C1019 1.399 . S
C1024 C1023 1.394 . S
C1024 C1025 1.516 . S
C1025 C1024 1.516 . S
C1025 C1026 1.502 . S
C1025 C1027 1.561 . S
C1025 C1028 1.526 . S
C1026 H1010 0.959 . S
C1026 H1011 0.959 . S
C1026 H1012 0.961 . S
C1026 C1025 1.502 . S
C1027 H1013 0.960 . S
C1027 H1014 0.961 . S
C1027 H1015 0.959 . S
C1027 C1025 1.561 . S
C1028 C1025 1.526 . S
C1028 C1029 1.396 . S
C1028 C1033 1.390 . S
C1029 C1023 1.465 . S
C1029 C1028 1.396 . S
C1029 C1030 1.399 . S
C1030 H1016 0.929 . S
C1030 C1029 1.399 . S
C1030 C1031 1.385 . S
C1031 H1017 0.931 . S
C1031 C1030 1.385 . S
C1031 C1032 1.389 . S
C1032 C1031 1.389 . S
C1032 C1033 1.387 . S
C1033 H1018 0.930 . S
C1033 C1028 1.390 . S
C1033 C1032 1.387 . S
H1034 C1046 0.930 . S
H1035 C1048 0.930 . S
H1036 C1049 0.930 . S
H1037 C1053 0.959 . S
H1038 C1053 0.959 . S
H1039 C1053 0.961 . S
H1040 C1054 0.960 . S
H1041 C1054 0.961 . S
H1042 C1054 0.959 . S
H1043 C1057 0.929 . S
H1044 C1058 0.931 . S
H1045 C1060 0.930 . S
C1046 H1034 0.930 . S
C1046 C1047 1.399 . S
C1046 C1051 1.399 . S
C1047 C1046 1.399 . S
C1047 C1048 1.376 . S
C1048 H1035 0.930 . S
C1048 C1047 1.376 . S
C1048 C1049 1.388 . S
C1049 H1036 0.930 . S
C1049 C1048 1.388 . S
C1049 C1050 1.390 . S
C1050 C1049 1.390 . S
C1050 C1051 1.394 . S
C1050 C1056 1.465 . S
C1051 C1046 1.399 . S
C1051 C1050 1.394 . S
C1051 C1052 1.516 . S
C1052 C1051 1.516 . S
C1052 C1053 1.502 . S
C1052 C1054 1.561 . S
C1052 C1055 1.526 . S
C1053 H1037 0.959 . S
C1053 H1038 0.959 . S
C1053 H1039 0.961 . S
C1053 C1052 1.502 . S
C1054 H1040 0.960 . S
C1054 H1041 0.961 . S
C1054 H1042 0.959 . S
C1054 C1052 1.561 . S
C1055 C1052 1.526 . S
C1055 C1056 1.396 . S
C1055 C1060 1.390 . S
C1056 C1050 1.465 . S
C1056 C1055 1.396 . S
C1056 C1057 1.399 . S
C1057 H1043 0.929 . S
C1057 C1056 1.399 . S
C1057 C1058 1.385 . S
C1058 H1044 0.931 . S
C1058 C1057 1.385 . S
C1058 C1059 1.389 . S
C1059 C1058 1.389 . S
C1059 C1060 1.387 . S
C1060 H1045 0.930 . S
C1060 C1055 1.390 . S
C1060 C1059 1.387 . S
H1061 C1073 0.930 . S
H1062 C1075 0.930 . S
H1063 C1076 0.930 . S
H1064 C1080 0.959 . S
H1065 C1080 0.959 . S
H1066 C1080 0.961 . S
H1067 C1081 0.960 . S
H1068 C1081 0.961 . S
H1069 C1081 0.959 . S
H1070 C1084 0.929 . S
H1071 C1085 0.931 . S
H1072 C1087 0.930 . S
C1073 H1061 0.930 . S
C1073 C1074 1.399 . S
C1073 C1078 1.399 . S
C1074 C1073 1.399 . S
C1074 C1075 1.376 . S
C1075 H1062 0.930 . S
C1075 C1074 1.376 . S
C1075 C1076 1.388 . S
C1076 H1063 0.930 . S
C1076 C1075 1.388 . S
C1076 C1077 1.390 . S
C1077 C1076 1.390 . S
C1077 C1078 1.394 . S
C1077 C1083 1.465 . S
C1078 C1073 1.399 . S
C1078 C1077 1.394 . S
C1078 C1079 1.516 . S
C1079 C1078 1.516 . S
C1079 C1080 1.502 . S
C1079 C1081 1.561 . S
C1079 C1082 1.526 . S
C1080 H1064 0.959 . S
C1080 H1065 0.959 . S
C1080 H1066 0.961 . S
C1080 C1079 1.502 . S
C1081 H1067 0.960 . S
C1081 H1068 0.961 . S
C1081 H1069 0.959 . S
C1081 C1079 1.561 . S
C1082 C1079 1.526 . S
C1082 C1083 1.396 . S
C1082 C1087 1.390 . S
C1083 C1077 1.465 . S
C1083 C1082 1.396 . S
C1083 C1084 1.399 . S
C1084 H1070 0.929 . S
C1084 C1083 1.399 . S
C1084 C1085 1.385 . S
C1085 H1071 0.931 . S
C1085 C1084 1.385 . S
C1085 C1086 1.389 . S
C1086 C1085 1.389 . S
C1086 C1087 1.387 . S
C1087 H1072 0.930 . S
C1087 C1082 1.390 . S
C1087 C1086 1.387 . S
C237 C9 1.502 . S
C249 C179 1.489 . S
C264 C193 1.506 . S
C276 C23 1.506 . S
C291 C37 1.495 . S
C303 C207 1.472 . S
C318 C221 1.497 . S
C330 C51 1.500 . S
C345 C121 1.492 . S
C357 C67 1.477 . S
C372 C81 1.494 . S
C384 C135 1.504 . S
C399 C149 1.498 . S
C411 C95 1.491 . S
C426 C109 1.503 . S
C438 C163 1.507 . S
C453 C5 1.481 . S
C465 C33 1.447 . S
C480 C19 1.440 . S
C492 C47 1.481 . S
C507 C61 1.684 . S
C519 C89 1.658 . S
C534 C75 1.652 . S
C546 C103 1.686 . S
C561 C145 1.456 . S
C573 C117 1.462 . S
C588 C131 1.485 . S
C600 C159 1.438 . S
C615 C201 1.650 . S
C627 C173 1.690 . S
C642 C187 1.665 . S
C654 C215 1.673 . S
C669 C84 1.449 . S
C681 C0 1.496 . S
C696 C98 1.493 . S
C708 C14 1.457 . S
C723 C28 1.476 . S
C735 C56 1.493 . S
C750 C42 1.474 . S
C762 C70 1.467 . S
C777 C196 1.459 . S
C789 C112 1.502 . S
C804 C126 1.503 . S
C816 C210 1.450 . S
C831 C168 1.456 . S
C843 C140 1.503 . S
C858 C154 1.467 . S
C870 C182 1.475 . S
C885 C11 1.168 . S
C897 C53 1.181 . S
C912 C39 1.215 . S
C924 C25 1.203 . S
C939 C65 1.766 . S
C951 C107 1.766 . S
C966 C79 1.770 . S
C978 C93 1.770 . S
C993 C165 1.168 . S
C1005 C123 1.181 . S
C1020 C137 1.168 . S
C1032 C151 1.176 . S
C1047 C219 1.765 . S
C1059 C177 1.765 . S
C1074 C191 1.759 . S
C1086 C205 1.758 . S
