# Generated by pormake.
# Topology ukk, (4)-cn, num edge types: 1
# Building blocks:
#     Node 0, Type 0, BuildingBlock: KOZSID_clean_sbu_0, # of connection points: 4
#     Node 1, Type 0, BuildingBlock: KOZSID_clean_sbu_0, # of connection points: 4
#     Node 2, Type 0, BuildingBlock: KOZSID_clean_sbu_0, # of connection points: 4
#     Node 3, Type 0, BuildingBlock: KOZSID_clean_sbu_0, # of connection points: 4
#     Node 4, Type 0, BuildingBlock: KOZSID_clean_sbu_0, # of connection points: 4
#     Node 5, Type 0, BuildingBlock: KOZSID_clean_sbu_0, # of connection points: 4
#     Node 6, Type 0, BuildingBlock: KOZSID_clean_sbu_0, # of connection points: 4
#     Node 7, Type 0, BuildingBlock: KOZSID_clean_sbu_0, # of connection points: 4
#     Node 8, Type 0, BuildingBlock: KOZSID_clean_sbu_0, # of connection points: 4
#     Node 9, Type 0, BuildingBlock: KOZSID_clean_sbu_0, # of connection points: 4
#     Node 10, Type 0, BuildingBlock: KOZSID_clean_sbu_0, # of connection points: 4
#     Node 11, Type 0, BuildingBlock: KOZSID_clean_sbu_0, # of connection points: 4
#     Node 12, Type 0, BuildingBlock: KOZSID_clean_sbu_0, # of connection points: 4
#     Node 13, Type 0, BuildingBlock: KOZSID_clean_sbu_0, # of connection points: 4
#     Node 14, Type 0, BuildingBlock: KOZSID_clean_sbu_0, # of connection points: 4
#     Node 15, Type 0, BuildingBlock: KOZSID_clean_sbu_0, # of connection points: 4
#     Edge 16, Type (0, 0), BuildingBlock: ZUJKAS_clean_linker_0, # of connection points: 2
#     Edge 17, Type (0, 0), BuildingBlock: ZUJKAS_clean_linker_0, # of connection points: 2
#     Edge 18, Type (0, 0), BuildingBlock: ZUJKAS_clean_linker_0, # of connection points: 2
#     Edge 19, Type (0, 0), BuildingBlock: ZUJKAS_clean_linker_0, # of connection points: 2
#     Edge 20, Type (0, 0), BuildingBlock: ZUJKAS_clean_linker_0, # of connection points: 2
#     Edge 21, Type (0, 0), BuildingBlock: ZUJKAS_clean_linker_0, # of connection points: 2
#     Edge 22, Type (0, 0), BuildingBlock: ZUJKAS_clean_linker_0, # of connection points: 2
#     Edge 23, Type (0, 0), BuildingBlock: ZUJKAS_clean_linker_0, # of connection points: 2
#     Edge 24, Type (0, 0), BuildingBlock: ZUJKAS_clean_linker_0, # of connection points: 2
#     Edge 25, Type (0, 0), BuildingBlock: ZUJKAS_clean_linker_0, # of connection points: 2
#     Edge 26, Type (0, 0), BuildingBlock: ZUJKAS_clean_linker_0, # of connection points: 2
#     Edge 27, Type (0, 0), BuildingBlock: ZUJKAS_clean_linker_0, # of connection points: 2
#     Edge 28, Type (0, 0), BuildingBlock: ZUJKAS_clean_linker_0, # of connection points: 2
#     Edge 29, Type (0, 0), BuildingBlock: ZUJKAS_clean_linker_0, # of connection points: 2
#     Edge 30, Type (0, 0), BuildingBlock: ZUJKAS_clean_linker_0, # of connection points: 2
#     Edge 31, Type (0, 0), BuildingBlock: ZUJKAS_clean_linker_0, # of connection points: 2
#     Edge 32, Type (0, 0), BuildingBlock: ZUJKAS_clean_linker_0, # of connection points: 2
#     Edge 33, Type (0, 0), BuildingBlock: ZUJKAS_clean_linker_0, # of connection points: 2
#     Edge 34, Type (0, 0), BuildingBlock: ZUJKAS_clean_linker_0, # of connection points: 2
#     Edge 35, Type (0, 0), BuildingBlock: ZUJKAS_clean_linker_0, # of connection points: 2
#     Edge 36, Type (0, 0), BuildingBlock: ZUJKAS_clean_linker_0, # of connection points: 2
#     Edge 37, Type (0, 0), BuildingBlock: ZUJKAS_clean_linker_0, # of connection points: 2
#     Edge 38, Type (0, 0), BuildingBlock: ZUJKAS_clean_linker_0, # of connection points: 2
#     Edge 39, Type (0, 0), BuildingBlock: ZUJKAS_clean_linker_0, # of connection points: 2
#     Edge 40, Type (0, 0), BuildingBlock: ZUJKAS_clean_linker_0, # of connection points: 2
#     Edge 41, Type (0, 0), BuildingBlock: ZUJKAS_clean_linker_0, # of connection points: 2
#     Edge 42, Type (0, 0), BuildingBlock: ZUJKAS_clean_linker_0, # of connection points: 2
#     Edge 43, Type (0, 0), BuildingBlock: ZUJKAS_clean_linker_0, # of connection points: 2
#     Edge 44, Type (0, 0), BuildingBlock: ZUJKAS_clean_linker_0, # of connection points: 2
#     Edge 45, Type (0, 0), BuildingBlock: ZUJKAS_clean_linker_0, # of connection points: 2
#     Edge 46, Type (0, 0), BuildingBlock: ZUJKAS_clean_linker_0, # of connection points: 2
#     Edge 47, Type (0, 0), BuildingBlock: ZUJKAS_clean_linker_0, # of connection points: 2
# Relax obj value: 0.064
# Max RMSD: 0.199
# Mean RMSD: 0.199
data_MOF--net-ukk--node1-KOZSID_clean_sbu_0--edge1-ZUJKAS_clean_linker_0
_symmetry_space_group_name_H-M    P1
_symmetry_Int_Tables_number       1
_symmetry_cell_setting            triclinic
loop_
_symmetry_equiv_pos_as_xyz
'x, y, z'
_cell_length_a     81.913786
_cell_length_b     81.921909
_cell_length_c     31.767623
_cell_angle_alpha  89.976069
_cell_angle_beta   90.004766
_cell_angle_gamma 89.993254
loop_
_atom_site_label
_atom_site_type_symbol
_atom_site_fract_x
_atom_site_fract_y
_atom_site_fract_z
_atom_type_partial_charge
C0 C 0.36808 0.09619 0.16539 0.0
C1 C 0.3582 0.08982 0.19692 0.0
C2 C 0.3484 0.10232 0.2105 0.0
C3 C 0.35277 0.11556 0.18654 0.0
N4 N 0.36475 0.11219 0.15889 0.0
Co5 Co 0.37419 0.12774 0.11764 0.0
N6 N 0.36604 0.14686 0.14975 0.0
C7 C 0.35403 0.14656 0.17866 0.0
C8 C 0.35057 0.16168 0.1949 0.0
C9 C 0.36096 0.17219 0.17472 0.0
C10 C 0.37027 0.16284 0.14721 0.0
N11 N 0.38345 0.14336 0.07619 0.0
C12 C 0.38626 0.15965 0.07964 0.0
C13 C 0.39311 0.16573 0.04286 0.0
C14 C 0.39424 0.15288 0.01532 0.0
C15 C 0.38816 0.13965 0.03674 0.0
N16 N 0.3823 0.1085 0.08583 0.0
C17 C 0.38714 0.10853 0.04537 0.0
C18 C 0.39244 0.09348 0.03206 0.0
C19 C 0.3907 0.08335 0.06622 0.0
C20 C 0.38431 0.09279 0.09855 0.0
N21 N 0.3537 0.12721 0.08482 0.0
C22 C 0.32623 0.12643 0.03078 0.0
C23 C 0.33282 0.11202 0.04786 0.0
C24 C 0.3464 0.11268 0.07484 0.0
C25 C 0.33348 0.14125 0.04284 0.0
C26 C 0.34712 0.14137 0.06951 0.0
N27 N 0.39476 0.1283 0.14955 0.0
C28 C 0.4242 0.12806 0.14951 0.0
C29 C 0.42463 0.12956 0.19343 0.0
C30 C 0.40967 0.13022 0.21501 0.0
C31 C 0.39489 0.12967 0.19249 0.0
C32 C 0.40926 0.12738 0.12837 0.0
H33 H 0.38357 0.13043 0.20975 0.0
H34 H 0.40951 0.12612 0.09466 0.0
H35 H 0.35123 0.10134 0.08682 0.0
H36 H 0.35251 0.15301 0.07705 0.0
C37 C 0.34793 0.1317 0.19365 0.0
C38 C 0.37943 0.08639 0.14007 0.0
C39 C 0.38162 0.16978 0.11611 0.0
C40 C 0.38921 0.12332 0.02376 0.0
H41 H 0.35797 0.07741 0.20859 0.0
H42 H 0.33955 0.10191 0.23577 0.0
H43 H 0.3418 0.16468 0.21918 0.0
H44 H 0.36137 0.18528 0.17913 0.0
H45 H 0.39689 0.17814 0.03645 0.0
H46 H 0.39946 0.15306 0.98402 0.0
H47 H 0.39761 0.09038 1.00176 0.0
H48 H 0.39381 0.07053 0.06712 0.0
H49 H 0.32788 0.1002 0.03961 0.0
H50 H 0.32873 0.15281 0.03171 0.0
H51 H 0.43538 0.12721 0.13144 0.0
H52 H 0.40936 0.13145 0.24893 0.0
C53 C 0.09235 0.63248 0.91143 0.0
C54 C 0.08324 0.62413 0.94128 0.0
C55 C 0.094 0.61846 0.9707 0.0
C56 C 0.10904 0.62367 0.95733 0.0
N57 N 0.10852 0.63252 0.92137 0.0
Co58 Co 0.12773 0.64172 0.88992 0.0
N59 N 0.14378 0.6317 0.93031 0.0
C60 C 0.14017 0.62312 0.96549 0.0
C61 C 0.15368 0.6175 0.9865 0.0
C62 C 0.16671 0.62272 0.96326 0.0
C63 C 0.16039 0.63127 0.92927 0.0
N64 N 0.14688 0.65071 0.85796 0.0
C65 C 0.16316 0.64842 0.86352 0.0
C66 C 0.17224 0.65685 0.83366 0.0
C67 C 0.16135 0.66454 0.80801 0.0
C68 C 0.14632 0.66044 0.82362 0.0
N69 N 0.11174 0.65175 0.8495 0.0
C70 C 0.11535 0.66143 0.81628 0.0
C71 C 0.10204 0.66596 0.79301 0.0
C72 C 0.08909 0.65864 0.81221 0.0
C73 C 0.09527 0.65009 0.84649 0.0
N74 N 0.12704 0.66199 0.92573 0.0
C75 C 0.12742 0.6902 0.97828 0.0
C76 C 0.12868 0.69151 0.93438 0.0
C77 C 0.12852 0.6774 0.90898 0.0
C78 C 0.12559 0.67454 0.99499 0.0
C79 C 0.12536 0.66087 0.96861 0.0
N80 N 0.12843 0.62152 0.85495 0.0
C81 C 0.12959 0.60768 0.78741 0.0
C82 C 0.12849 0.59233 0.80689 0.0
C83 C 0.12769 0.59201 0.85082 0.0
C84 C 0.12766 0.6065 0.87386 0.0
C85 C 0.12952 0.62203 0.81186 0.0
H86 H 0.12698 0.60522 0.9071 0.0
H87 H 0.13027 0.63341 0.79544 0.0
H88 H 0.12972 0.67927 0.87593 0.0
H89 H 0.12383 0.64953 0.98407 0.0
C90 C 0.12395 0.61967 0.97641 0.0
C91 C 0.08507 0.64008 0.87413 0.0
C92 C 0.17064 0.63836 0.89624 0.0
C93 C 0.13147 0.66498 0.80574 0.0
H94 H 0.07017 0.62218 0.94146 0.0
H95 H 0.09123 0.61109 0.99807 0.0
H96 H 0.154 0.61015 0.01482 0.0
H97 H 0.17941 0.62029 0.97016 0.0
H98 H 0.18539 0.6573 0.83053 0.0
H99 H 0.16406 0.67203 0.78081 0.0
H100 H 0.10183 0.67327 0.76461 0.0
H101 H 0.07659 0.65925 0.80141 0.0
H102 H 0.13012 0.70335 0.91964 0.0
H103 H 0.12415 0.67276 0.02858 0.0
H104 H 0.13021 0.60867 0.75346 0.0
H105 H 0.12726 0.58054 0.86776 0.0
C106 C 0.65026 0.9224 0.1591 0.0
C107 C 0.659 0.92837 0.19329 0.0
C108 C 0.66619 0.91528 0.21215 0.0
C109 C 0.66142 0.90209 0.18876 0.0
N110 N 0.6517 0.90591 0.15581 0.0
Co111 Co 0.64152 0.89016 0.11504 0.0
N112 N 0.65035 0.87078 0.14649 0.0
C113 C 0.65963 0.87117 0.18167 0.0
C114 C 0.66323 0.85608 0.19768 0.0
C115 C 0.65575 0.84533 0.17128 0.0
C116 C 0.64809 0.85453 0.14025 0.0
N117 N 0.63151 0.87437 0.07403 0.0
C118 C 0.63127 0.85776 0.07397 0.0
C119 C 0.62308 0.8517 0.03909 0.0
C120 C 0.61782 0.86489 0.01656 0.0
C121 C 0.62313 0.87824 0.0387 0.0
N122 N 0.63232 0.90958 0.08438 0.0
C123 C 0.6233 0.90927 0.04871 0.0
C124 C 0.61805 0.92439 0.03599 0.0
C125 C 0.62388 0.93498 0.06559 0.0
C126 C 0.63236 0.9257 0.09484 0.0
N127 N 0.6618 0.89091 0.07931 0.0
C128 C 0.69001 0.89042 0.02669 0.0
C129 C 0.67446 0.89349 0.0104 0.0
C130 C 0.66079 0.89373 0.03681 0.0
C131 C 0.69121 0.888 0.0703 0.0
C132 C 0.6771 0.88825 0.09574 0.0
N133 N 0.62127 0.8894 0.14999 0.0
C134 C 0.59173 0.88985 0.15401 0.0
C135 C 0.59204 0.88942 0.19798 0.0
C136 C 0.60738 0.88864 0.21754 0.0
C137 C 0.62175 0.88867 0.19314 0.0
C138 C 0.60626 0.88983 0.131 0.0
H139 H 0.63311 0.88821 0.20969 0.0
H140 H 0.60498 0.89023 0.09772 0.0
H141 H 0.64953 0.8962 0.02171 0.0
H142 H 0.67887 0.88614 0.12856 0.0
C143 C 0.6645 0.88591 0.19947 0.0
C144 C 0.64022 0.93279 0.132 0.0
C145 C 0.63869 0.84721 0.10595 0.0
C146 C 0.61952 0.8945 0.02873 0.0
H147 H 0.65977 0.94083 0.20435 0.0
H148 H 0.67351 0.91531 0.24053 0.0
H149 H 0.67026 0.85324 0.22559 0.0
H150 H 0.65581 0.8322 0.17487 0.0
H151 H 0.62104 0.83904 0.0309 0.0
H152 H 0.61072 0.86477 0.98782 0.0
H153 H 0.61064 0.92732 0.00881 0.0
H154 H 0.62199 0.94806 0.06584 0.0
H155 H 0.67277 0.89587 0.97714 0.0
H156 H 0.70293 0.88557 0.08475 0.0
H157 H 0.58026 0.89006 0.13705 0.0
H158 H 0.60835 0.88831 0.25153 0.0
C159 C 0.92378 0.38305 0.90891 0.0
C160 C 0.93353 0.38885 0.94133 0.0
C161 C 0.92357 0.39061 0.97584 0.0
C162 C 0.90834 0.38578 0.96267 0.0
N163 N 0.90811 0.38119 0.92202 0.0
Co164 Co 0.88868 0.37319 0.89082 0.0
N165 N 0.87334 0.38248 0.93287 0.0
C166 C 0.87726 0.38697 0.97235 0.0
C167 C 0.86411 0.39282 0.99452 0.0
C168 C 0.85109 0.3918 0.96738 0.0
C169 C 0.85703 0.3853 0.93006 0.0
N170 N 0.86934 0.36517 0.85936 0.0
C171 C 0.85342 0.36955 0.8624 0.0
C172 C 0.84386 0.36051 0.83481 0.0
C173 C 0.85417 0.3501 0.81405 0.0
C174 C 0.8694 0.35331 0.83004 0.0
N175 N 0.90398 0.36374 0.8489 0.0
C176 C 0.90033 0.35208 0.82058 0.0
C177 C 0.9133 0.34805 0.7953 0.0
C178 C 0.92593 0.3577 0.80872 0.0
C179 C 0.91997 0.36704 0.84182 0.0
N180 N 0.88933 0.35266 0.92354 0.0
C181 C 0.8904 0.32537 0.97803 0.0
C182 C 0.8755 0.33258 0.96654 0.0
C183 C 0.87523 0.34614 0.93954 0.0
C184 C 0.90471 0.33187 0.96035 0.0
C185 C 0.90391 0.34535 0.93304 0.0
N186 N 0.88802 0.39383 0.8591 0.0
C187 C 0.88538 0.40889 0.79403 0.0
C188 C 0.88663 0.42383 0.81558 0.0
C189 C 0.8888 0.42327 0.85935 0.0
C190 C 0.88945 0.40828 0.88031 0.0
C191 C 0.88607 0.39406 0.81633 0.0
H192 H 0.8911 0.40844 0.91392 0.0
H193 H 0.88493 0.38279 0.79902 0.0
H194 H 0.86357 0.3516 0.93256 0.0
H195 H 0.91517 0.35007 0.92036 0.0
C196 C 0.89367 0.38782 0.9849 0.0
C197 C 0.93001 0.37813 0.86738 0.0
C198 C 0.84676 0.38094 0.89371 0.0
C199 C 0.88413 0.34734 0.81402 0.0
H200 H 0.94649 0.39138 0.94024 0.0
H201 H 0.92694 0.39536 0.00641 0.0
H202 H 0.86406 0.39775 0.02612 0.0
H203 H 0.83866 0.39534 0.97438 0.0
H204 H 0.83076 0.36119 0.83057 0.0
H205 H 0.851 0.34156 0.78938 0.0
H206 H 0.9134 0.33962 0.76908 0.0
H207 H 0.93811 0.3578 0.79558 0.0
H208 H 0.8641 0.32814 0.9794 0.0
H209 H 0.91651 0.3266 0.96757 0.0
H210 H 0.88358 0.40862 0.76027 0.0
H211 H 0.89016 0.43437 0.87751 0.0
C212 C 0.36839 0.41968 0.09582 0.0
C213 C 0.35874 0.42612 0.06394 0.0
C214 C 0.34898 0.41367 0.04988 0.0
C215 C 0.35318 0.40037 0.07389 0.0
N216 N 0.36501 0.40367 0.10201 0.0
Co217 Co 0.37434 0.38801 0.14318 0.0
N218 N 0.36625 0.36898 0.11064 0.0
C219 C 0.35431 0.36936 0.08154 0.0
C220 C 0.35084 0.35428 0.06508 0.0
C221 C 0.36116 0.34371 0.08533 0.0
C222 C 0.37043 0.35299 0.11307 0.0
N223 N 0.38356 0.37229 0.18445 0.0
C224 C 0.38639 0.35601 0.18074 0.0
C225 C 0.39318 0.34983 0.21749 0.0
C226 C 0.39425 0.36261 0.24528 0.0
C227 C 0.38821 0.37589 0.22402 0.0
N228 N 0.38232 0.40716 0.17556 0.0
C229 C 0.38698 0.40703 0.21617 0.0
C230 C 0.39198 0.4221 0.23007 0.0
C231 C 0.39026 0.43234 0.19612 0.0
C232 C 0.38423 0.42293 0.16332 0.0
N233 N 0.35376 0.38847 0.17566 0.0
C234 C 0.326 0.38931 0.22852 0.0
C235 C 0.33257 0.40368 0.21128 0.0
C236 C 0.34631 0.40299 0.18493 0.0
C237 C 0.33347 0.37448 0.21756 0.0
C238 C 0.34724 0.37432 0.19129 0.0
N239 N 0.39498 0.3876 0.11151 0.0
C240 C 0.42441 0.38895 0.11153 0.0
C241 C 0.42492 0.38769 0.06751 0.0
C242 C 0.40997 0.38619 0.04608 0.0
C243 C 0.39518 0.38618 0.0686 0.0
C244 C 0.40945 0.3889 0.13273 0.0
H245 H 0.3839 0.38512 0.05129 0.0
H246 H 0.40964 0.38996 0.16649 0.0
H247 H 0.35107 0.4143 0.17264 0.0
H248 H 0.3528 0.3627 0.18443 0.0
C249 C 0.34832 0.38426 0.0665 0.0
C250 C 0.37957 0.4294 0.12181 0.0
C251 C 0.38175 0.34597 0.14413 0.0
C252 C 0.3891 0.39218 0.23746 0.0
H253 H 0.35864 0.43854 0.05235 0.0
H254 H 0.34028 0.41413 0.02425 0.0
H255 H 0.34213 0.35135 0.04061 0.0
H256 H 0.36154 0.33063 0.08075 0.0
H257 H 0.39692 0.3374 0.22374 0.0
H258 H 0.39939 0.36234 0.27667 0.0
H259 H 0.39692 0.42516 0.26066 0.0
H260 H 0.39311 0.44524 0.19562 0.0
H261 H 0.32713 0.41544 0.21802 0.0
H262 H 0.32902 0.36303 0.23015 0.0
H263 H 0.43553 0.38979 0.12984 0.0
H264 H 0.40963 0.3853 0.01209 0.0
C265 C 0.42522 0.6344 0.84565 0.0
C266 C 0.43437 0.62696 0.81434 0.0
C267 C 0.42357 0.62147 0.7848 0.0
C268 C 0.40847 0.6259 0.79951 0.0
N269 N 0.40898 0.63402 0.83656 0.0
Co270 Co 0.38974 0.64247 0.86919 0.0
N271 N 0.37369 0.63212 0.82936 0.0
C272 C 0.37734 0.62329 0.79461 0.0
C273 C 0.36388 0.61733 0.7741 0.0
C274 C 0.35083 0.62253 0.79728 0.0
C275 C 0.3571 0.63142 0.83077 0.0
N276 N 0.37056 0.65119 0.90151 0.0
C277 C 0.35426 0.64908 0.89565 0.0
C278 C 0.34522 0.65724 0.9261 0.0
C279 C 0.35613 0.66487 0.95179 0.0
C280 C 0.37114 0.66091 0.93586 0.0
N281 N 0.40573 0.65233 0.9099 0.0
C282 C 0.40207 0.66131 0.94432 0.0
C283 C 0.41535 0.66551 0.9681 0.0
C284 C 0.42833 0.65865 0.94803 0.0
C285 C 0.42222 0.65074 0.91269 0.0
N286 N 0.38997 0.66294 0.8341 0.0
C287 C 0.38971 0.69155 0.78301 0.0
C288 C 0.39075 0.69255 0.827 0.0
C289 C 0.39075 0.67824 0.85171 0.0
C290 C 0.38903 0.67597 0.76535 0.0
C291 C 0.38924 0.66208 0.79099 0.0
N292 N 0.3895 0.62206 0.90347 0.0
C293 C 0.38675 0.60766 0.96998 0.0
C294 C 0.38945 0.59256 0.95031 0.0
C295 C 0.39198 0.59262 0.90682 0.0
C296 C 0.39197 0.60727 0.88439 0.0
C297 C 0.38689 0.62217 0.94615 0.0
H298 H 0.39397 0.60627 0.85143 0.0
H299 H 0.3849 0.63337 0.96274 0.0
H300 H 0.39131 0.67989 0.88499 0.0
H301 H 0.3888 0.65079 0.77478 0.0
C302 C 0.39357 0.62103 0.78187 0.0
C303 C 0.43251 0.64147 0.8836 0.0
C304 C 0.34675 0.63918 0.86259 0.0
C305 C 0.38596 0.66503 0.95444 0.0
H306 H 0.44749 0.62543 0.81336 0.0
H307 H 0.42636 0.61456 0.75666 0.0
H308 H 0.36358 0.61007 0.74566 0.0
H309 H 0.33813 0.62012 0.79027 0.0
H310 H 0.3321 0.65747 0.92991 0.0
H311 H 0.35345 0.67208 0.97948 0.0
H312 H 0.41551 0.67239 0.9972 0.0
H313 H 0.44084 0.65917 0.95887 0.0
H314 H 0.39126 0.70433 0.84242 0.0
H315 H 0.38854 0.6744 0.73151 0.0
H316 H 0.38479 0.60833 0.00364 0.0
H317 H 0.39376 0.58133 0.8897 0.0
C318 C 0.65117 0.59647 0.08836 0.0
C319 C 0.66077 0.58943 0.05723 0.0
C320 C 0.67081 0.6015 0.04227 0.0
C321 C 0.66684 0.61516 0.06506 0.0
N322 N 0.65491 0.61247 0.09333 0.0
Co323 Co 0.6458 0.62883 0.13298 0.0
N324 N 0.65441 0.64731 0.09909 0.0
C325 C 0.6661 0.64627 0.0694 0.0
C326 C 0.66946 0.66097 0.05061 0.0
C327 C 0.65939 0.672 0.06999 0.0
C328 C 0.65051 0.6634 0.09997 0.0
N329 N 0.63682 0.64523 0.17279 0.0
C330 C 0.63458 0.66156 0.16802 0.0
C331 C 0.62843 0.66842 0.20469 0.0
C332 C 0.62688 0.65595 0.2333 0.0
C333 C 0.63219 0.6422 0.2127 0.0
N334 N 0.63725 0.61025 0.16661 0.0
C335 C 0.63248 0.61095 0.20708 0.0
C336 C 0.627 0.59619 0.22195 0.0
C337 C 0.62852 0.58553 0.18879 0.0
C338 C 0.63493 0.5944 0.15546 0.0
N339 N 0.66626 0.6283 0.16609 0.0
C340 C 0.69335 0.62757 0.22143 0.0
C341 C 0.68668 0.61312 0.20483 0.0
C342 C 0.67326 0.61375 0.17728 0.0
C343 C 0.68643 0.6424 0.20813 0.0
C344 C 0.67302 0.6425 0.18067 0.0
N345 N 0.62524 0.62937 0.10088 0.0
C346 C 0.59578 0.62927 0.10074 0.0
C347 C 0.59533 0.62985 0.0566 0.0
C348 C 0.61037 0.63032 0.03519 0.0
C349 C 0.62514 0.63009 0.05785 0.0
C350 C 0.61071 0.62895 0.12204 0.0
H351 H 0.63646 0.63043 0.04056 0.0
H352 H 0.61044 0.6284 0.15588 0.0
H353 H 0.66829 0.60239 0.16592 0.0
H354 H 0.66791 0.65415 0.17203 0.0
C355 C 0.67184 0.63108 0.05588 0.0
C356 C 0.63956 0.58735 0.11453 0.0
C357 C 0.63963 0.67113 0.13099 0.0
C358 C 0.63081 0.62609 0.22731 0.0
H359 H 0.6606 0.57688 0.0466 0.0
H360 H 0.67949 0.60055 0.0167 0.0
H361 H 0.67783 0.66332 0.02497 0.0
H362 H 0.6588 0.68491 0.06303 0.0
H363 H 0.62559 0.68113 0.21036 0.0
H364 H 0.62207 0.65676 0.26496 0.0
H365 H 0.6219 0.5936 0.25266 0.0
H366 H 0.62529 0.57273 0.18918 0.0
H367 H 0.69142 0.60131 0.21401 0.0
H368 H 0.69128 0.65395 0.21895 0.0
H369 H 0.58465 0.62925 0.11909 0.0
H370 H 0.6108 0.63063 1.00115 0.0
C371 C 0.59395 0.38381 0.84811 0.0
C372 C 0.58471 0.39002 0.8152 0.0
C373 C 0.59503 0.39148 0.7813 0.0
C374 C 0.60998 0.38616 0.79534 0.0
N375 N 0.6097 0.38155 0.83598 0.0
Co376 Co 0.62864 0.37321 0.8686 0.0
N377 N 0.64459 0.38214 0.82754 0.0
C378 C 0.64117 0.38657 0.7877 0.0
C379 C 0.65469 0.39191 0.76616 0.0
C380 C 0.66742 0.39062 0.79412 0.0
C381 C 0.66092 0.38455 0.83132 0.0
N382 N 0.64749 0.36487 0.90156 0.0
C383 C 0.66353 0.36891 0.89957 0.0
C384 C 0.67253 0.36004 0.92874 0.0
C385 C 0.66179 0.3499 0.94895 0.0
C386 C 0.64685 0.35318 0.93132 0.0
N387 N 0.61275 0.36411 0.90945 0.0
C388 C 0.61579 0.35227 0.93774 0.0
C389 C 0.60237 0.34828 0.9615 0.0
C390 C 0.5901 0.35821 0.94714 0.0
C391 C 0.59678 0.36776 0.91537 0.0
N392 N 0.62795 0.35264 0.83605 0.0
C393 C 0.62691 0.3253 0.78196 0.0
C394 C 0.64183 0.33191 0.79529 0.0
C395 C 0.64209 0.34559 0.8219 0.0
C396 C 0.61253 0.33238 0.79749 0.0
C397 C 0.61331 0.34582 0.82485 0.0
N398 N 0.62931 0.39388 0.90016 0.0
C399 C 0.63065 0.40898 0.96543 0.0
C400 C 0.62963 0.42392 0.94373 0.0
C401 C 0.62863 0.42333 0.89967 0.0
C402 C 0.62845 0.40833 0.87871 0.0
C403 C 0.63047 0.39414 0.94313 0.0
H404 H 0.62759 0.40849 0.8449 0.0
H405 H 0.63116 0.38287 0.96063 0.0
H406 H 0.65379 0.35068 0.8301 0.0
H407 H 0.60199 0.35092 0.83617 0.0
C408 C 0.62491 0.38781 0.77406 0.0
C409 C 0.58734 0.37925 0.88958 0.0
C410 C 0.6708 0.3799 0.86814 0.0
C411 C 0.63183 0.34736 0.94593 0.0
H412 H 0.57187 0.39311 0.81558 0.0
H413 H 0.5921 0.39642 0.75062 0.0
H414 H 0.65519 0.39663 0.73436 0.0
H415 H 0.68005 0.39359 0.78772 0.0
H416 H 0.68554 0.36066 0.93452 0.0
H417 H 0.66448 0.3415 0.97434 0.0
H418 H 0.60172 0.33966 0.98727 0.0
H419 H 0.57766 0.35834 0.9586 0.0
H420 H 0.65327 0.3269 0.78407 0.0
H421 H 0.60071 0.32756 0.78855 0.0
H422 H 0.63132 0.40868 0.99946 0.0
H423 H 0.62817 0.43442 0.88116 0.0
C424 C 0.86672 0.59621 0.66534 0.0
C425 C 0.85677 0.58958 0.69634 0.0
C426 C 0.8467 0.60188 0.70985 0.0
C427 C 0.85101 0.61528 0.6864 0.0
N428 N 0.8632 0.61219 0.65913 0.0
Co429 Co 0.87266 0.62803 0.61869 0.0
N430 N 0.86407 0.64688 0.651 0.0
C431 C 0.85185 0.64632 0.6793 0.0
C432 C 0.84816 0.66132 0.69593 0.0
C433 C 0.85863 0.67202 0.67666 0.0
C434 C 0.8682 0.66289 0.64929 0.0
N435 N 0.88198 0.64396 0.57814 0.0
C436 C 0.88465 0.66024 0.58237 0.0
C437 C 0.89155 0.66663 0.54601 0.0
C438 C 0.89293 0.65394 0.51799 0.0
C439 C 0.88691 0.64052 0.53871 0.0
N440 N 0.88117 0.60905 0.5866 0.0
C441 C 0.8862 0.60933 0.54628 0.0
C442 C 0.8917 0.5944 0.53266 0.0
C443 C 0.88991 0.58409 0.56646 0.0
C444 C 0.8833 0.5933 0.5989 0.0
N445 N 0.85235 0.62738 0.585 0.0
C446 C 0.82518 0.6264 0.53002 0.0
C447 C 0.83174 0.61205 0.54744 0.0
C448 C 0.84519 0.61281 0.57484 0.0
C449 C 0.83234 0.64128 0.54194 0.0
C450 C 0.8458 0.6415 0.56926 0.0
N451 N 0.89306 0.62871 0.65141 0.0
C452 C 0.92252 0.62875 0.65243 0.0
C453 C 0.92272 0.63025 0.69638 0.0
C454 C 0.90762 0.63074 0.7174 0.0
C455 C 0.89296 0.63004 0.69436 0.0
C456 C 0.90769 0.62795 0.63075 0.0
H457 H 0.88154 0.63066 0.71122 0.0
H458 H 0.90812 0.62675 0.59704 0.0
H459 H 0.84998 0.60151 0.58718 0.0
H460 H 0.85114 0.65317 0.57679 0.0
C461 C 0.84587 0.63132 0.69369 0.0
C462 C 0.87833 0.58667 0.6401 0.0
C463 C 0.87982 0.67005 0.61924 0.0
C464 C 0.88819 0.62426 0.5252 0.0
H465 H 0.85665 0.57712 0.70767 0.0
H466 H 0.83771 0.60124 0.73477 0.0
H467 H 0.83922 0.66411 0.71997 0.0
H468 H 0.85894 0.68508 0.68165 0.0
H469 H 0.89518 0.67912 0.54023 0.0
H470 H 0.89827 0.65437 0.48684 0.0
H471 H 0.89703 0.59149 0.50241 0.0
H472 H 0.89314 0.57129 0.56705 0.0
H473 H 0.82653 0.60025 0.54001 0.0
H474 H 0.82791 0.65273 0.52929 0.0
H475 H 0.93378 0.628 0.6347 0.0
H476 H 0.90712 0.63196 0.75131 0.0
C477 C 0.59426 0.13495 0.40657 0.0
C478 C 0.58493 0.12881 0.43939 0.0
C479 C 0.59523 0.12711 0.47325 0.0
C480 C 0.61024 0.13231 0.45932 0.0
N481 N 0.61001 0.13707 0.41879 0.0
Co482 Co 0.62897 0.1456 0.38665 0.0
N483 N 0.64486 0.1365 0.42759 0.0
C484 C 0.6414 0.13183 0.46723 0.0
C485 C 0.65486 0.12613 0.48843 0.0
C486 C 0.66758 0.12744 0.46048 0.0
C487 C 0.66117 0.13396 0.42367 0.0
N488 N 0.64785 0.15408 0.35416 0.0
C489 C 0.66385 0.14991 0.35603 0.0
C490 C 0.67301 0.1592 0.32805 0.0
C491 C 0.66233 0.16954 0.30822 0.0
C492 C 0.64732 0.16605 0.32514 0.0
N493 N 0.61312 0.15494 0.34595 0.0
C494 C 0.61629 0.1668 0.31774 0.0
C495 C 0.60302 0.17069 0.29337 0.0
C496 C 0.5907 0.16076 0.3073 0.0
C497 C 0.59714 0.15139 0.33978 0.0
N498 N 0.62823 0.16601 0.41986 0.0
C499 C 0.62722 0.19317 0.4746 0.0
C500 C 0.64213 0.18657 0.46117 0.0
C501 C 0.64237 0.17299 0.43425 0.0
C502 C 0.61282 0.18616 0.45888 0.0
C503 C 0.61359 0.1728 0.4312 0.0
N504 N 0.62973 0.12511 0.35438 0.0
C505 C 0.63167 0.11038 0.28864 0.0
C506 C 0.63128 0.09534 0.30993 0.0
C507 C 0.6299 0.09565 0.35391 0.0
C508 C 0.62909 0.11053 0.37533 0.0
C509 C 0.63097 0.12509 0.31141 0.0
H510 H 0.62797 0.11019 0.40908 0.0
H511 H 0.63151 0.13646 0.2943 0.0
H512 H 0.65408 0.16791 0.42598 0.0
H513 H 0.60228 0.16776 0.41973 0.0
C514 C 0.62513 0.13054 0.4807 0.0
C515 C 0.58755 0.14 0.36563 0.0
C516 C 0.67098 0.13851 0.38664 0.0
C517 C 0.63234 0.17184 0.31024 0.0
H518 H 0.57201 0.12604 0.43901 0.0
H519 H 0.59223 0.12218 0.5039 0.0
H520 H 0.65529 0.12107 0.51989 0.0
H521 H 0.68012 0.12405 0.46658 0.0
H522 H 0.68606 0.15873 0.32294 0.0
H523 H 0.66513 0.17821 0.28355 0.0
H524 H 0.60253 0.17922 0.26736 0.0
H525 H 0.57841 0.16047 0.29485 0.0
H526 H 0.65357 0.19152 0.47255 0.0
H527 H 0.60101 0.19097 0.46791 0.0
H528 H 0.63281 0.1108 0.2547 0.0
H529 H 0.62926 0.08442 0.37184 0.0
C530 C 0.14855 0.42023 0.65888 0.0
C531 C 0.15829 0.42683 0.69035 0.0
C532 C 0.16814 0.41447 0.70455 0.0
C533 C 0.16392 0.40107 0.68103 0.0
N534 N 0.15198 0.40421 0.65308 0.0
Co535 Co 0.14261 0.38837 0.61251 0.0
N536 N 0.15083 0.3695 0.64547 0.0
C537 C 0.16284 0.37003 0.67437 0.0
C538 C 0.16636 0.35502 0.69126 0.0
C539 C 0.15601 0.34435 0.67151 0.0
C540 C 0.14666 0.35349 0.64361 0.0
N541 N 0.13338 0.37246 0.57177 0.0
C542 C 0.13061 0.35619 0.57599 0.0
C543 C 0.12379 0.34984 0.53949 0.0
C544 C 0.12263 0.3625 0.51134 0.0
C545 C 0.12866 0.37589 0.53214 0.0
N546 N 0.13445 0.40735 0.57976 0.0
C547 C 0.12969 0.40705 0.53924 0.0
C548 C 0.12453 0.42204 0.52508 0.0
C549 C 0.12626 0.4324 0.55875 0.0
C550 C 0.13247 0.42315 0.59166 0.0
N551 N 0.16311 0.38876 0.57971 0.0
C552 C 0.19071 0.38937 0.52614 0.0
C553 C 0.18415 0.40382 0.543 0.0
C554 C 0.17048 0.40325 0.56967 0.0
C555 C 0.18333 0.37459 0.53805 0.0
C556 C 0.16966 0.37455 0.56461 0.0
N557 N 0.12203 0.38795 0.64447 0.0
C558 C 0.09258 0.38826 0.64464 0.0
C559 C 0.09218 0.38703 0.68864 0.0
C560 C 0.10718 0.38645 0.7101 0.0
C561 C 0.12193 0.38683 0.68746 0.0
C562 C 0.1075 0.38876 0.62335 0.0
H563 H 0.13327 0.38615 0.70469 0.0
H564 H 0.10724 0.38982 0.58958 0.0
H565 H 0.16565 0.41463 0.5814 0.0
H566 H 0.16422 0.36295 0.57227 0.0
C567 C 0.16884 0.385 0.68883 0.0
C568 C 0.13723 0.4298 0.63292 0.0
C569 C 0.1353 0.34633 0.6129 0.0
C570 C 0.12764 0.39212 0.51832 0.0
H571 H 0.15839 0.43931 0.70156 0.0
H572 H 0.17693 0.41507 0.72996 0.0
H573 H 0.17513 0.3522 0.7157 0.0
H574 H 0.15564 0.33129 0.67651 0.0
H575 H 0.12008 0.33737 0.53366 0.0
H576 H 0.11744 0.36209 0.48002 0.0
H577 H 0.11948 0.42496 0.49451 0.0
H578 H 0.12329 0.44527 0.55899 0.0
H579 H 0.18921 0.41561 0.53479 0.0
H580 H 0.18805 0.36302 0.52694 0.0
H581 H 0.08138 0.38904 0.6266 0.0
H582 H 0.10753 0.38542 0.74407 0.0
C583 C 0.42331 0.88439 0.41679 0.0
C584 C 0.43243 0.89081 0.44966 0.0
C585 C 0.42198 0.89252 0.4832 0.0
C586 C 0.40708 0.88714 0.469 0.0
N587 N 0.40752 0.88226 0.42859 0.0
Co588 Co 0.38868 0.87381 0.39584 0.0
N589 N 0.37258 0.88304 0.43604 0.0
C590 C 0.37587 0.88792 0.4756 0.0
C591 C 0.36236 0.89391 0.496 0.0
C592 C 0.34978 0.89257 0.46763 0.0
C593 C 0.3563 0.88569 0.4314 0.0
N594 N 0.36996 0.86525 0.36289 0.0
C595 C 0.35393 0.86932 0.36428 0.0
C596 C 0.34493 0.85976 0.33657 0.0
C597 C 0.35573 0.84938 0.31741 0.0
C598 C 0.37067 0.85309 0.33445 0.0
N599 N 0.40468 0.86446 0.35569 0.0
C600 C 0.40173 0.85236 0.32809 0.0
C601 C 0.41522 0.84819 0.30483 0.0
C602 C 0.42744 0.85825 0.31883 0.0
C603 C 0.42067 0.86806 0.34992 0.0
N604 N 0.38922 0.85345 0.42926 0.0
C605 C 0.39006 0.82629 0.4842 0.0
C606 C 0.37521 0.83335 0.47173 0.0
C607 C 0.37505 0.84683 0.44448 0.0
C608 C 0.40447 0.83291 0.46734 0.0
C609 C 0.40379 0.84634 0.43987 0.0
N610 N 0.38811 0.89427 0.36339 0.0
C611 C 0.38602 0.90898 0.29765 0.0
C612 C 0.38682 0.92404 0.31881 0.0
C613 C 0.38849 0.92371 0.36273 0.0
C614 C 0.38909 0.90884 0.38422 0.0
C615 C 0.38666 0.89426 0.32048 0.0
H616 H 0.39033 0.90919 0.41793 0.0
H617 H 0.38589 0.88289 0.30348 0.0
H618 H 0.3634 0.85213 0.4366 0.0
H619 H 0.41512 0.85117 0.42789 0.0
C620 C 0.39207 0.88913 0.48965 0.0
C621 C 0.43008 0.87959 0.37565 0.0
C622 C 0.34662 0.88085 0.3943 0.0
C623 C 0.38574 0.8472 0.32033 0.0
H624 H 0.44526 0.89394 0.44949 0.0
H625 H 0.42479 0.89772 0.51367 0.0
H626 H 0.36181 0.89921 0.52718 0.0
H627 H 0.33727 0.89619 0.47312 0.0
H628 H 0.33188 0.86003 0.33128 0.0
H629 H 0.35306 0.84048 0.2932 0.0
H630 H 0.41597 0.83929 0.27971 0.0
H631 H 0.43994 0.85823 0.30776 0.0
H632 H 0.36372 0.82883 0.48394 0.0
H633 H 0.41625 0.82777 0.47527 0.0
H634 H 0.38462 0.90852 0.26378 0.0
H635 H 0.38952 0.93491 0.38064 0.0
C636 C 0.86728 0.92068 0.60204 0.0
C637 C 0.85891 0.92644 0.567 0.0
C638 C 0.85174 0.91326 0.5485 0.0
C639 C 0.85624 0.90022 0.57283 0.0
N640 N 0.8657 0.90424 0.60615 0.0
Co641 Co 0.87614 0.88867 0.64698 0.0
N642 N 0.86707 0.8692 0.61667 0.0
C643 C 0.85653 0.86942 0.58393 0.0
C644 C 0.85204 0.85423 0.57016 0.0
C645 C 0.86028 0.84361 0.59544 0.0
C646 C 0.86948 0.85298 0.6231 0.0
N647 N 0.8871 0.87304 0.68681 0.0
C648 C 0.88814 0.85646 0.68583 0.0
C649 C 0.89783 0.85056 0.7183 0.0
C650 C 0.90306 0.86382 0.74059 0.0
C651 C 0.89641 0.87704 0.72043 0.0
N652 N 0.88491 0.90822 0.6777 0.0
C653 C 0.89342 0.90808 0.71419 0.0
C654 C 0.89793 0.92333 0.72766 0.0
C655 C 0.89207 0.93384 0.69787 0.0
C656 C 0.88435 0.92436 0.66764 0.0
N657 N 0.85613 0.88919 0.68388 0.0
C658 C 0.82815 0.89004 0.73745 0.0
C659 C 0.84397 0.88916 0.75376 0.0
C660 C 0.85753 0.88878 0.72693 0.0
C661 C 0.82663 0.89036 0.69346 0.0
C662 C 0.84061 0.88994 0.66758 0.0
N663 N 0.89606 0.88818 0.61089 0.0
C664 C 0.92538 0.89109 0.60421 0.0
C665 C 0.92481 0.88779 0.56107 0.0
C666 C 0.90946 0.8845 0.54334 0.0
C667 C 0.89533 0.88484 0.5686 0.0
C668 C 0.91109 0.8912 0.62817 0.0
H669 H 0.88391 0.88241 0.55343 0.0
H670 H 0.91254 0.89374 0.66081 0.0
H671 H 0.86902 0.88812 0.74219 0.0
H672 H 0.8385 0.89028 0.63449 0.0
C673 C 0.8522 0.88403 0.56451 0.0
C674 C 0.87689 0.93125 0.6297 0.0
C675 C 0.88046 0.84586 0.6544 0.0
C676 C 0.89868 0.89337 0.73213 0.0
H677 H 0.85823 0.93884 0.5554 0.0
H678 H 0.84443 0.91315 0.52011 0.0
H679 H 0.84404 0.85124 0.54417 0.0
H680 H 0.85971 0.83044 0.59338 0.0
H681 H 0.90092 0.83798 0.72499 0.0
H682 H 0.91092 0.86383 0.76798 0.0
H683 H 0.90515 0.9264 0.75507 0.0
H684 H 0.89356 0.94696 0.69793 0.0
H685 H 0.84602 0.88851 0.7874 0.0
H686 H 0.81471 0.89117 0.67885 0.0
H687 H 0.93691 0.89338 0.61984 0.0
H688 H 0.9083 0.88193 0.51004 0.0
C689 C 0.92518 0.1334 0.34558 0.0
C690 C 0.93461 0.12535 0.31584 0.0
C691 C 0.92411 0.11962 0.28589 0.0
C692 C 0.90891 0.12451 0.29884 0.0
N693 N 0.90907 0.13317 0.3351 0.0
Co694 Co 0.88956 0.14225 0.36553 0.0
N695 N 0.87391 0.13193 0.32466 0.0
C696 C 0.87785 0.12303 0.29025 0.0
C697 C 0.86457 0.11722 0.2687 0.0
C698 C 0.85133 0.12261 0.29079 0.0
C699 C 0.85731 0.13142 0.32476 0.0
N700 N 0.87011 0.15135 0.39602 0.0
C701 C 0.85388 0.14922 0.3892 0.0
C702 C 0.84456 0.15749 0.41886 0.0
C703 C 0.85522 0.16518 0.44511 0.0
C704 C 0.87038 0.16113 0.43028 0.0
N705 N 0.90517 0.15232 0.40686 0.0
C706 C 0.90123 0.16179 0.44021 0.0
C707 C 0.91431 0.16625 0.46443 0.0
C708 C 0.92745 0.15908 0.44577 0.0
C709 C 0.92162 0.15071 0.41081 0.0
N710 N 0.89047 0.16245 0.3295 0.0
C711 C 0.89047 0.19072 0.27712 0.0
C712 C 0.89012 0.19203 0.3211 0.0
C713 C 0.89004 0.17789 0.34643 0.0
C714 C 0.89114 0.17501 0.26014 0.0
C715 C 0.89124 0.1613 0.28644 0.0
N716 N 0.88859 0.1221 0.40082 0.0
C717 C 0.88532 0.10839 0.46813 0.0
C718 C 0.88633 0.09301 0.44893 0.0
C719 C 0.88882 0.09257 0.40544 0.0
C720 C 0.88997 0.10704 0.38237 0.0
C721 C 0.88637 0.12268 0.44363 0.0
H722 H 0.89195 0.1057 0.34948 0.0
H723 H 0.88528 0.13409 0.45977 0.0
H724 H 0.8895 0.17977 0.3796 0.0
H725 H 0.89191 0.1499 0.27083 0.0
C726 C 0.89418 0.12004 0.27962 0.0
C727 C 0.93211 0.14094 0.38335 0.0
C728 C 0.8467 0.13917 0.35596 0.0
C729 C 0.88503 0.16549 0.44942 0.0
H730 H 0.94771 0.12363 0.31609 0.0
H731 H 0.92715 0.11237 0.25853 0.0
H732 H 0.86452 0.10981 0.24049 0.0
H733 H 0.83869 0.12029 0.28288 0.0
H734 H 0.8314 0.15775 0.42177 0.0
H735 H 0.85227 0.17252 0.47239 0.0
H736 H 0.91424 0.17345 0.49298 0.0
H737 H 0.93985 0.15968 0.45733 0.0
H738 H 0.88956 0.2039 0.336 0.0
H739 H 0.89178 0.17323 0.22638 0.0
H740 H 0.88338 0.1094 0.50175 0.0
H741 H 0.89005 0.08104 0.38907 0.0
C742 C 0.15044 0.09713 0.59368 0.0
C743 C 0.16004 0.09112 0.56113 0.0
C744 C 0.16979 0.10373 0.54806 0.0
C745 C 0.16556 0.11673 0.57299 0.0
N746 N 0.15367 0.11313 0.60074 0.0
Co747 Co 0.14393 0.12846 0.64208 0.0
N748 N 0.15219 0.14777 0.61085 0.0
C749 C 0.16431 0.14767 0.58224 0.0
C750 C 0.16775 0.16288 0.56653 0.0
C751 C 0.1572 0.17323 0.58672 0.0
C752 C 0.14783 0.1637 0.61367 0.0
N753 N 0.13436 0.14385 0.68362 0.0
C754 C 0.13144 0.16013 0.68043 0.0
C755 C 0.12438 0.16603 0.71713 0.0
C756 C 0.12322 0.15306 0.74435 0.0
C757 C 0.12949 0.13996 0.72282 0.0
N758 N 0.13569 0.10908 0.67307 0.0
C759 C 0.13079 0.10889 0.71348 0.0
C760 C 0.12586 0.09368 0.72655 0.0
C761 C 0.1279 0.08369 0.69225 0.0
C762 C 0.13394 0.0934 0.66005 0.0
N763 N 0.16424 0.12784 0.67563 0.0
C764 C 0.19158 0.12691 0.73007 0.0
C765 C 0.1851 0.11256 0.71242 0.0
C766 C 0.17158 0.1133 0.68525 0.0
C767 C 0.18426 0.14176 0.71848 0.0
C768 C 0.17069 0.14196 0.69159 0.0
N769 N 0.12355 0.12912 0.60937 0.0
C770 C 0.0941 0.12886 0.60811 0.0
C771 C 0.09396 0.1308 0.56428 0.0
C772 C 0.10906 0.13165 0.54342 0.0
C773 C 0.12369 0.13087 0.56653 0.0
C774 C 0.10891 0.12799 0.62987 0.0
H775 H 0.13511 0.13179 0.54978 0.0
H776 H 0.10846 0.12645 0.6635 0.0
H777 H 0.16685 0.10201 0.67279 0.0
H778 H 0.16525 0.1536 0.68435 0.0
C779 C 0.17038 0.13291 0.56661 0.0
C780 C 0.13919 0.08712 0.61886 0.0
C781 C 0.13618 0.1704 0.64433 0.0
C782 C 0.12854 0.12357 0.73545 0.0
H783 H 0.16005 0.07891 0.54816 0.0
H784 H 0.17844 0.10359 0.52231 0.0
H785 H 0.17655 0.16603 0.54246 0.0
H786 H 0.1567 0.18634 0.58258 0.0
H787 H 0.12049 0.17839 0.72369 0.0
H788 H 0.11786 0.15309 0.7755 0.0
H789 H 0.12087 0.09035 0.7569 0.0
H790 H 0.12538 0.07072 0.69115 0.0
H791 H 0.19009 0.10072 0.72031 0.0
H792 H 0.18892 0.15328 0.73007 0.0
H793 H 0.08281 0.12785 0.62565 0.0
H794 H 0.1096 0.13322 0.50961 0.0
C795 C 0.0927 0.88557 0.3382 0.0
C796 C 0.08351 0.89424 0.30912 0.0
C797 C 0.09418 0.89995 0.27952 0.0
C798 C 0.10924 0.89447 0.29212 0.0
N799 N 0.10881 0.88543 0.32774 0.0
Co800 Co 0.12806 0.87589 0.35836 0.0
N801 N 0.14402 0.88592 0.31777 0.0
C802 C 0.14032 0.89463 0.28284 0.0
C803 C 0.15377 0.90042 0.26192 0.0
C804 C 0.16684 0.89519 0.28495 0.0
C805 C 0.16063 0.88643 0.31872 0.0
N806 N 0.14725 0.86663 0.3896 0.0
C807 C 0.16352 0.86893 0.38386 0.0
C808 C 0.17265 0.86017 0.41302 0.0
C809 C 0.1618 0.85238 0.4386 0.0
C810 C 0.14673 0.85671 0.42359 0.0
N811 N 0.11218 0.86581 0.39889 0.0
C812 C 0.11578 0.85578 0.43141 0.0
C813 C 0.10245 0.85101 0.45434 0.0
C814 C 0.08951 0.85856 0.43564 0.0
C815 C 0.09574 0.86754 0.40222 0.0
N816 N 0.12702 0.85578 0.32199 0.0
C817 C 0.12622 0.8277 0.26878 0.0
C818 C 0.12834 0.82629 0.31246 0.0
C819 C 0.12867 0.84031 0.33817 0.0
C820 C 0.1245 0.84348 0.2526 0.0
C821 C 0.12485 0.85707 0.27928 0.0
N822 N 0.12914 0.89593 0.3939 0.0
C823 C 0.13091 0.90944 0.4618 0.0
C824 C 0.13104 0.92485 0.44257 0.0
C825 C 0.12996 0.92542 0.39873 0.0
C826 C 0.12896 0.91103 0.37537 0.0
C827 C 0.13009 0.8952 0.437 0.0
H828 H 0.12803 0.91248 0.3422 0.0
H829 H 0.13029 0.88372 0.45313 0.0
H830 H 0.13028 0.83827 0.37102 0.0
H831 H 0.12341 0.8685 0.26418 0.0
C832 C 0.12409 0.89835 0.27261 0.0
C833 C 0.08559 0.87792 0.37556 0.0
C834 C 0.17093 0.87932 0.35169 0.0
C835 C 0.13192 0.8521 0.44157 0.0
H836 H 0.07047 0.89639 0.30966 0.0
H837 H 0.09135 0.90752 0.25255 0.0
H838 H 0.15402 0.90798 0.23398 0.0
H839 H 0.17951 0.89785 0.27813 0.0
H840 H 0.1858 0.85955 0.41576 0.0
H841 H 0.16456 0.84466 0.46533 0.0
H842 H 0.10222 0.84335 0.4821 0.0
H843 H 0.07694 0.8578 0.44598 0.0
H844 H 0.12955 0.8144 0.32705 0.0
H845 H 0.12314 0.8455 0.2191 0.0
H846 H 0.13176 0.90834 0.49571 0.0
H847 H 0.12969 0.937 0.38228 0.0
H848 H 0.37124 0.95215 0.34353 0.0
H849 H 0.37083 0.97864 0.30852 0.0
H850 H 0.3993 0.95897 0.20634 0.0
H851 H 0.4003 0.93244 0.24209 0.0
H852 H 0.41078 0.9888 0.23152 0.0
H853 H 0.34396 0.99265 0.20825 0.0
H854 H 0.34937 0.9892 0.26225 0.0
H855 H 0.35402 0.97393 0.22331 0.0
C856 C 0.37751 0.9534 0.3137 0.0
C857 C 0.38585 0.94004 0.29584 0.0
C858 C 0.37708 0.96858 0.29338 0.0
C859 C 0.38481 0.97084 0.25435 0.0
C860 C 0.39313 0.95756 0.23628 0.0
H861 H 0.36737 0.05878 0.10262 0.0
H862 H 0.36977 0.03045 0.12718 0.0
C863 C 0.39359 0.94232 0.25665 0.0
C864 C 0.38456 0.98719 0.23324 0.0
H865 H 0.35894 0.01742 0.19909 0.0
C866 C 0.39944 0.99499 0.22413 0.0
C867 C 0.36979 0.99528 0.22291 0.0
C868 C 0.35339 0.98727 0.22927 0.0
C869 C 0.39994 0.01075 0.20629 0.0
C870 C 0.38517 0.01916 0.1979 0.0
C871 C 0.3703 0.01115 0.20585 0.0
C872 C 0.38478 0.03627 0.18126 0.0
C873 C 0.41634 0.01815 0.19615 0.0
C874 C 0.39239 0.0491 0.20325 0.0
C875 C 0.39119 0.06525 0.18886 0.0
C876 C 0.38233 0.06897 0.15221 0.0
C877 C 0.37468 0.05619 0.13024 0.0
C878 C 0.37593 0.04003 0.14453 0.0
H879 H 0.42585 1.0086 0.19211 0.0
H880 H 0.41579 0.02562 0.16701 0.0
H881 H 0.42018 0.02615 0.22252 0.0
H882 H 0.39887 0.04669 0.23229 0.0
H883 H 0.39683 0.07494 0.20694 0.0
H884 H 0.06053 0.66267 0.87822 0.0
H885 H 0.0323 0.65987 0.85345 0.0
H886 H 0.04147 0.60944 0.82236 0.0
H887 H 0.06989 0.61246 0.84599 0.0
H888 H 0.02667 0.6242 0.75892 0.0
H889 H 0.99249 0.63933 0.90373 0.0
H890 H 1.0066 0.65515 0.88966 0.0
H891 H 0.01414 0.63526 0.90409 0.0
C892 C 0.05639 0.65094 0.86668 0.0
C893 C 0.06735 0.63778 0.86401 0.0
C894 C 0.04021 0.64929 0.85275 0.0
C895 C 0.03453 0.63436 0.83647 0.0
C896 C 0.04544 0.62108 0.83486 0.0
H897 H 0.9316 0.61541 0.77098 0.0
H898 H 0.95839 0.61589 0.80567 0.0
C899 C 0.06165 0.62276 0.84856 0.0
C900 C 0.01766 0.63292 0.81849 0.0
H901 H 0.97722 0.63994 0.83931 0.0
C902 C 0.01588 0.62752 0.77673 0.0
C903 C 1.00342 0.63701 0.84162 0.0
C904 C 1.00422 0.64184 0.88738 0.0
C905 C 1.00046 0.62654 0.75724 0.0
C906 C 0.98631 0.63146 0.77962 0.0
C907 C 0.98802 0.63639 0.82179 0.0
C908 C 0.96974 0.63171 0.7596 0.0
C909 C 0.9995 0.61999 0.71291 0.0
C910 C 0.96694 0.64079 0.72276 0.0
C911 C 0.95167 0.64051 0.70286 0.0
C912 C 0.93867 0.63128 0.71947 0.0
C913 C 0.94128 0.62269 0.75731 0.0
C914 C 0.95664 0.62291 0.77712 0.0
H915 H 0.0102 0.61218 0.70531 0.0
H916 H 0.98821 0.61273 0.70805 0.0
H917 H 0.99943 0.63035 0.69042 0.0
H918 H 0.97661 0.64811 0.70922 0.0
H919 H 0.95005 0.64758 0.67436 0.0
H920 H 0.66294 0.95721 0.12762 0.0
H921 H 0.66049 0.98533 0.15367 0.0
H922 H 0.61011 0.9764 0.18578 0.0
H923 H 0.61277 0.94811 0.16088 0.0
H924 H 0.64191 0.01148 0.13437 0.0
H925 H 0.62775 0.99176 0.29725 0.0
H926 H 0.63456 0.97768 0.25733 0.0
H927 H 0.61357 0.98414 0.25898 0.0
C928 C 0.65133 0.96134 0.13997 0.0
C929 C 0.63809 0.95048 0.1427 0.0
C930 C 0.64992 0.97741 0.15487 0.0
C931 C 0.63522 0.98298 0.17272 0.0
C932 C 0.62172 0.97234 0.17331 0.0
H933 H 0.61607 0.0862 0.23617 0.0
H934 H 0.61677 0.05949 0.2014 0.0
C935 C 0.62317 0.95623 0.15867 0.0
C936 C 0.63425 0.99972 0.19165 0.0
H937 H 0.62601 0.02008 0.2833 0.0
C938 C 0.63841 0.01335 0.16693 0.0
C939 C 0.62996 1.00225 0.2344 0.0
C940 C 0.62636 0.98819 0.2637 0.0
C941 C 0.63832 0.02932 0.18357 0.0
C942 C 0.6336 0.03188 0.22601 0.0
C943 C 0.62949 0.01824 0.25071 0.0
C944 C 0.63342 0.04845 0.24609 0.0
C945 C 0.6438 0.04322 0.15579 0.0
C946 C 0.64227 0.05125 0.28332 0.0
C947 C 0.64175 0.06646 0.30346 0.0
C948 C 0.63235 0.07937 0.28701 0.0
C949 C 0.62362 0.07664 0.24945 0.0
C950 C 0.62405 0.06134 0.22944 0.0
H951 H 0.65128 0.03884 0.12891 0.0
H952 H 0.6329 0.04948 0.14274 0.0
H953 H 0.65104 0.05228 0.17386 0.0
H954 H 0.64962 0.0416 0.29693 0.0
H955 H 0.64879 0.06812 0.33199 0.0
H956 H 0.06479 0.36972 0.6672 0.0
H957 H 0.03817 0.36963 0.7018 0.0
H958 H 0.05637 0.40275 0.79621 0.0
H959 H 0.08322 0.40271 0.76189 0.0
H960 H 0.0376 0.37948 0.8316 0.0
H961 H 1.00444 0.40513 0.69518 0.0
H962 H 0.01514 0.38676 0.68179 0.0
H963 H 0.02643 0.4046 0.69768 0.0
C964 C 0.06314 0.37708 0.69519 0.0
C965 C 0.07616 0.38638 0.7114 0.0
C966 C 0.04784 0.37706 0.71492 0.0
C967 C 0.04502 0.38652 0.7511 0.0
C968 C 0.05813 0.39544 0.76816 0.0
H969 H 0.94441 0.40556 0.8355 0.0
H970 H 0.97276 0.40881 0.81122 0.0
C971 C 0.07352 0.39537 0.74857 0.0
C972 C 0.02844 0.38697 0.77108 0.0
H973 H 0.98802 0.39355 0.74967 0.0
C974 C 0.02679 0.38268 0.81372 0.0
C975 C 0.01426 0.39147 0.74824 0.0
C976 C 0.01514 0.39742 0.70334 0.0
C977 C 0.01139 0.38223 0.83361 0.0
C978 C 0.99711 0.3858 0.81006 0.0
C979 C 0.99885 0.39061 0.76781 0.0
C980 C 0.98026 0.38431 0.8281 0.0
C981 C 0.01066 0.37813 0.87988 0.0
C982 C 0.97492 0.36953 0.84604 0.0
C983 C 0.95881 0.36778 0.8603 0.0
C984 C 0.94757 0.38064 0.85624 0.0
C985 C 0.95288 0.3955 0.83904 0.0
C986 C 0.96905 0.3973 0.82502 0.0
H987 H 0.02232 0.38119 0.89596 0.0
H988 H 1.00058 0.38475 0.89582 0.0
H989 H 1.00861 0.36482 0.88362 0.0
H990 H 0.98306 0.35915 0.8479 0.0
H991 H 0.95496 0.35617 0.87331 0.0
H992 H 0.39955 0.44148 0.06081 0.0
H993 H 0.40208 0.46992 0.03698 0.0
H994 H 0.36719 0.48481 0.13116 0.0
H995 H 0.36497 0.45643 0.15539 0.0
H996 H 0.37882 0.48906 0.00368 0.0
H997 H 0.402 0.51888 0.1484 0.0
H998 H 0.40179 0.497 0.14198 0.0
H999 H 0.38344 0.50769 0.15651 0.0
C1000 C 0.39274 0.45094 0.07694 0.0
C1001 C 0.38238 0.44688 0.11054 0.0
C1002 C 0.3941 0.46716 0.06322 0.0
C1003 C 0.38507 0.47967 0.08269 0.0
C1004 C 0.37468 0.47556 0.11635 0.0
H1005 H 0.36947 0.58276 0.01575 0.0
H1006 H 0.36836 0.55579 0.04953 0.0
C1007 C 0.37338 0.45934 0.13017 0.0
C1008 C 0.38576 0.49675 0.06597 0.0
H1009 H 0.39344 0.53651 0.09303 0.0
C1010 C 0.38211 0.4994 0.02326 0.0
C1011 C 0.38992 0.51035 0.09142 0.0
C1012 C 0.39466 0.50837 0.13702 0.0
C1013 C 0.38241 0.51513 0.00547 0.0
C1014 C 0.38667 0.52869 0.03082 0.0
C1015 C 0.39014 0.52614 0.07362 0.0
C1016 C 0.38806 0.54548 0.01281 0.0
C1017 C 0.37794 0.51715 0.95968 0.0
C1018 C 0.39983 0.54886 0.98192 0.0
C1019 C 0.40058 0.56425 0.96284 0.0
C1020 C 0.38955 0.57672 0.97405 0.0
C1021 C 0.37819 0.57352 0.00634 0.0
C1022 C 0.37749 0.55807 0.02557 0.0
H1023 H 0.37113 0.50642 0.94747 0.0
H1024 H 0.3704 0.52826 0.95486 0.0
H1025 H 0.38927 0.51848 0.94082 0.0
H1026 H 0.40836 0.53949 0.97218 0.0
H1027 H 0.40977 0.56632 0.93892 0.0
H1028 H 0.44872 0.61365 0.9065 0.0
H1029 H 0.47724 0.61111 0.93027 0.0
H1030 H 0.48474 0.66238 0.90667 0.0
H1031 H 0.45634 0.66487 0.88237 0.0
H1032 H 0.50949 0.62229 0.8862 0.0
H1033 H 0.49441 0.65281 0.03785 0.0
H1034 H 0.47907 0.64296 0.00583 0.0
H1035 H 0.48726 0.66233 0.99016 0.0
C1036 C 0.45658 0.62428 0.90569 0.0
C1037 C 0.45035 0.63947 0.89285 0.0
C1038 C 0.47284 0.62284 0.91933 0.0
C1039 C 0.4831 0.63659 0.92063 0.0
C1040 C 0.47704 0.65163 0.9062 0.0
H1041 H 0.58711 0.64609 0.98317 0.0
H1042 H 0.56045 0.64721 0.94821 0.0
C1043 C 0.46085 0.65304 0.89224 0.0
C1044 C 0.4998 0.63544 0.9392 0.0
H1045 H 0.52196 0.64576 0.02654 0.0
C1046 C 0.51225 0.62745 0.91682 0.0
C1047 C 0.50336 0.64207 0.9793 0.0
C1048 C 0.49036 0.65046 0.00502 0.0
C1049 C 0.52818 0.62607 0.93336 0.0
C1050 C 0.53178 0.63283 0.97333 0.0
C1051 C 0.51926 0.64067 0.99582 0.0
C1052 C 0.54829 0.6315 0.99304 0.0
C1053 C 0.54103 0.61713 0.90838 0.0
C1054 C 0.55042 0.62228 0.02988 0.0
C1055 C 0.56568 0.62145 0.04971 0.0
C1056 C 0.57926 0.63004 0.03365 0.0
C1057 C 0.5771 0.63913 0.99635 0.0
C1058 C 0.56181 0.63984 0.97631 0.0
H1059 H 0.53568 0.6102 0.88167 0.0
H1060 H 0.54989 0.62608 0.89553 0.0
H1061 H 0.54785 0.60854 0.92893 0.0
H1062 H 0.54021 0.61569 0.04336 0.0
H1063 H 0.5668 0.61402 0.07774 0.0
H1064 H 0.61227 0.45168 0.92425 0.0
H1065 H 0.61356 0.47843 0.9578 0.0
H1066 H 0.6475 0.45962 0.04946 0.0
H1067 H 0.64686 0.43292 0.01487 0.0
H1068 H 0.60586 0.48891 0.03596 0.0
H1069 H 0.67192 0.49928 0.00828 0.0
H1070 H 0.66085 0.48287 0.98342 0.0
H1071 H 0.66755 0.48096 0.03713 0.0
C1072 C 0.6202 0.45321 0.95121 0.0
C1073 C 0.62965 0.44005 0.96629 0.0
C1074 C 0.62081 0.46856 0.97066 0.0
C1075 C 0.63088 0.47126 0.00577 0.0
C1076 C 0.63993 0.45804 0.02182 0.0
H1077 H 0.65228 0.55991 0.15129 0.0
H1078 H 0.64937 0.53147 0.12775 0.0
C1079 C 0.63937 0.44266 1.00227 0.0
C1080 C 0.6318 0.48789 0.02529 0.0
H1081 H 0.65814 0.51896 0.04957 0.0
C1082 C 0.61731 0.49546 0.03889 0.0
C1083 C 0.64671 0.49656 0.02922 0.0
C1084 C 0.66263 0.4896 0.01341 0.0
C1085 C 0.61733 0.51127 0.05642 0.0
C1086 C 0.63221 0.51996 0.06007 0.0
C1087 C 0.64672 0.51234 0.04696 0.0
C1088 C 0.63299 0.5371 0.07629 0.0
C1089 C 0.6014 0.51846 0.07142 0.0
C1090 C 0.62476 0.54981 0.05538 0.0
C1091 C 0.62636 0.56603 0.06898 0.0
C1092 C 0.63615 0.56989 0.10387 0.0
C1093 C 0.6443 0.5572 0.12499 0.0
C1094 C 0.64275 0.54098 0.11132 0.0
H1095 H 0.59211 0.50885 0.07734 0.0
H1096 H 0.60316 0.52563 0.10073 0.0
H1097 H 0.59653 0.52677 0.04685 0.0
H1098 H 0.61748 0.54726 0.02769 0.0
H1099 H 0.62029 0.57565 0.05156 0.0
H1100 H 0.45221 0.40595 0.08566 0.0
H1101 H 0.47888 0.40525 0.05142 0.0
H1102 H 0.46105 0.3696 0.96297 0.0
H1103 H 0.4343 0.37 0.99753 0.0
H1104 H 0.4996 0.37825 0.04242 0.0
H1105 H 0.48288 0.40359 0.88611 0.0
H1106 H 0.46977 0.40544 0.93157 0.0
H1107 H 0.47082 0.38651 0.9032 0.0
C1108 C 0.4539 0.39787 0.05904 0.0
C1109 C 0.44098 0.38795 0.04467 0.0
C1110 C 0.46919 0.39758 0.03929 0.0
C1111 C 0.47202 0.3875 0.0043 0.0
C1112 C 0.45914 0.37773 0.98939 0.0
H1113 H 0.5596 0.36597 0.85586 0.0
H1114 H 0.53154 0.36831 0.88271 0.0
C1115 C 0.4438 0.37798 0.00924 0.0
C1116 C 0.48865 0.38675 0.98489 0.0
H1117 H 0.50992 0.39375 0.89385 0.0
C1118 C 0.50185 0.3817 0.00997 0.0
C1119 C 0.49163 0.39113 0.94244 0.0
C1120 C 0.47808 0.39711 0.91423 0.0
C1121 C 0.51783 0.38074 0.9938 0.0
C1122 C 0.52089 0.38537 0.95151 0.0
C1123 C 0.50766 0.39028 0.92628 0.0
C1124 C 0.5377 0.38503 0.93301 0.0
C1125 C 0.53122 0.37435 0.022 0.0
C1126 C 0.5505 0.39402 0.95135 0.0
C1127 C 0.5665 0.39269 0.93596 0.0
C1128 C 0.57 0.3826 0.90141 0.0
C1129 C 0.55715 0.37408 0.88203 0.0
C1130 C 0.54114 0.37535 0.89753 0.0
H1131 H 0.52622 0.36702 0.04848 0.0
H1132 H 0.53997 0.36666 0.00413 0.0
H1133 H 0.538 0.3848 0.03567 0.0
H1134 H 0.54818 0.40184 0.97815 0.0
H1135 H 0.57624 0.39923 0.95171 0.0
H1136 H 0.87153 0.45197 0.84202 0.0
H1137 H 0.87097 0.47859 0.80762 0.0
H1138 H 0.89844 0.45913 0.70339 0.0
H1139 H 0.89954 0.43244 0.73839 0.0
H1140 H 0.91031 0.48897 0.72944 0.0
H1141 H 0.84335 0.49285 0.70838 0.0
H1142 H 0.84913 0.48909 0.76198 0.0
H1143 H 0.85352 0.47406 0.72225 0.0
C1144 C 0.87754 0.45329 0.81186 0.0
C1145 C 0.88562 0.43994 0.79316 0.0
C1146 C 0.87703 0.46855 0.79192 0.0
C1147 C 0.88444 0.47091 0.75251 0.0
C1148 C 0.89252 0.45764 0.73365 0.0
H1149 H 0.86658 0.55907 0.602 0.0
H1150 H 0.86913 0.5307 0.6262 0.0
C1151 C 0.89303 0.44232 0.75359 0.0
C1152 C 0.8841 0.48732 0.73176 0.0
H1153 H 0.8583 0.51758 0.69865 0.0
C1154 C 0.89893 0.49517 0.72243 0.0
C1155 C 0.86928 0.49541 0.72196 0.0
C1156 C 0.85292 0.48737 0.72874 0.0
C1157 C 0.89934 0.51097 0.70483 0.0
C1158 C 0.88452 0.51936 0.69687 0.0
C1159 C 0.86969 0.51131 0.70507 0.0
C1160 C 0.88404 0.5365 0.68044 0.0
C1161 C 0.91568 0.51845 0.69451 0.0
C1162 C 0.89156 0.54932 0.70266 0.0
C1163 C 0.89025 0.56551 0.68852 0.0
C1164 C 0.8814 0.56925 0.65188 0.0
C1165 C 0.87388 0.55647 0.62964 0.0
C1166 C 0.87521 0.54028 0.64371 0.0
H1167 H 0.92524 0.50896 0.69039 0.0
H1168 H 0.91504 0.52591 0.66537 0.0
H1169 H 0.91951 0.52649 0.72082 0.0
H1170 H 0.89805 0.54689 0.73168 0.0
H1171 H 0.8958 0.57519 0.7068 0.0
H1172 H 0.56238 0.1616 0.37318 0.0
H1173 H 0.53413 0.1583 0.3492 0.0
H1174 H 0.54476 0.10878 0.31189 0.0
H1175 H 0.57325 0.11238 0.33463 0.0
H1176 H 0.52895 0.12382 0.2512 0.0
H1177 H 0.49544 0.13589 0.39877 0.0
H1178 H 0.50887 0.15243 0.38587 0.0
H1179 H 0.51722 0.13261 0.39778 0.0
C1180 C 0.55857 0.14996 0.36034 0.0
C1181 C 0.56994 0.13725 0.35557 0.0
C1182 C 0.54238 0.14801 0.34692 0.0
C1183 C 0.5371 0.13319 0.32921 0.0
C1184 C 0.54843 0.12032 0.32553 0.0
H1185 H 0.43391 0.11408 0.26669 0.0
H1186 H 0.46091 0.11423 0.30028 0.0
C1187 C 0.56468 0.12233 0.33866 0.0
C1188 C 0.52016 0.13152 0.3119 0.0
H1189 H 0.47976 0.13758 0.33497 0.0
C1190 C 0.51821 0.12669 0.26974 0.0
C1191 C 0.50599 0.13499 0.336 0.0
C1192 C 0.50696 0.13909 0.38223 0.0
C1193 C 0.50271 0.12571 0.25078 0.0
C1194 C 0.48863 0.13013 0.27414 0.0
C1195 C 0.4905 0.13444 0.31671 0.0
C1196 C 0.47196 0.13051 0.25477 0.0
C1197 C 0.5016 0.11973 0.20594 0.0
C1198 C 0.46893 0.13996 0.21866 0.0
C1199 C 0.45355 0.13982 0.19935 0.0
C1200 C 0.44067 0.13043 0.21594 0.0
C1201 C 0.44351 0.12149 0.2531 0.0
C1202 C 0.45898 0.12152 0.27226 0.0
H1203 H 0.51229 0.11206 0.19745 0.0
H1204 H 0.49031 0.11251 0.20072 0.0
H1205 H 0.50144 0.13038 0.18434 0.0
H1206 H 0.47849 0.14744 0.20523 0.0
H1207 H 0.45174 0.14714 0.17134 0.0
H1208 H 0.11034 0.56486 0.82263 0.0
H1209 H 0.11158 0.53847 0.78728 0.0
H1210 H 0.14652 0.5578 0.69889 0.0
H1211 H 0.14588 0.58417 0.73536 0.0
H1212 H 0.10462 0.52875 0.70799 0.0
H1213 H 0.17028 0.51766 0.74052 0.0
H1214 H 0.15902 0.53395 0.76535 0.0
H1215 H 0.16622 0.53618 0.71218 0.0
C1216 C 0.11845 0.56352 0.79593 0.0
C1217 C 0.12823 0.57667 0.78244 0.0
C1218 C 0.11903 0.5484 0.77548 0.0
C1219 C 0.1294 0.54594 0.74087 0.0
C1220 C 0.13872 0.5592 0.72614 0.0
H1221 H 0.15105 0.45686 0.59723 0.0
H1222 H 0.1485 0.4854 0.62029 0.0
C1223 C 0.13817 0.57438 0.74674 0.0
C1224 C 0.13042 0.52944 0.7208 0.0
H1225 H 0.15665 0.49801 0.69904 0.0
C1226 C 0.11602 0.52206 0.706 0.0
C1227 C 0.14527 0.5206 0.71814 0.0
C1228 C 0.16106 0.5274 0.73521 0.0
C1229 C 0.11605 0.50623 0.68868 0.0
C1230 C 0.13085 0.49735 0.6865 0.0
C1231 C 0.1453 0.5048 0.70061 0.0
C1232 C 0.13157 0.48016 0.67083 0.0
C1233 C 0.10023 0.49921 0.67247 0.0
C1234 C 0.12295 0.46765 0.6915 0.0
C1235 C 0.12436 0.45138 0.6782 0.0
C1236 C 0.13434 0.4473 0.64387 0.0
C1237 C 0.14295 0.45977 0.62312 0.0
C1238 C 0.14159 0.47603 0.63649 0.0
H1239 H 0.09114 0.50893 0.66563 0.0
H1240 H 0.10225 0.49195 0.64343 0.0
H1241 H 0.09495 0.49102 0.69675 0.0
H1242 H 0.11547 0.4704 0.71868 0.0
H1243 H 0.11791 0.44191 0.69528 0.0
H1244 H 0.44187 0.8985 0.31199 0.0
H1245 H 0.47029 0.90094 0.28781 0.0
H1246 H 0.48588 0.86937 0.38876 0.0
H1247 H 0.45744 0.86679 0.41255 0.0
H1248 H 0.49911 0.91182 0.32911 0.0
H1249 H 0.5038 0.84655 0.28336 0.0
H1250 H 0.4845 0.85627 0.29453 0.0
H1251 H 0.49768 0.85011 0.33687 0.0
C1252 C 0.45144 0.89231 0.32932 0.0
C1253 C 0.44754 0.88269 0.36451 0.0
C1254 C 0.46765 0.89366 0.31546 0.0
C1255 C 0.48026 0.88519 0.33611 0.0
C1256 C 0.47639 0.87584 0.37191 0.0
H1257 H 0.58387 0.87226 0.26984 0.0
H1258 H 0.55753 0.87189 0.30671 0.0
C1259 C 0.46018 0.87453 0.38582 0.0
C1260 C 0.49734 0.88588 0.31961 0.0
H1261 H 0.52768 0.86246 0.27666 0.0
C1262 C 0.50536 0.90102 0.31769 0.0
C1263 C 0.50558 0.87179 0.30481 0.0
C1264 C 0.49745 0.85526 0.30457 0.0
C1265 C 0.52134 0.90245 0.30164 0.0
C1266 C 0.52947 0.88841 0.28608 0.0
C1267 C 0.52153 0.87323 0.28861 0.0
C1268 C 0.54585 0.8893 0.26525 0.0
C1269 C 0.52942 0.91899 0.30208 0.0
C1270 C 0.54816 0.89918 0.2296 0.0
C1271 C 0.56321 0.8995 0.20869 0.0
C1272 C 0.57638 0.8898 0.22247 0.0
C1273 C 0.57411 0.88003 0.25851 0.0
C1274 C 0.559 0.87972 0.27948 0.0
H1275 H 0.52405 0.92704 0.32659 0.0
H1276 H 0.54275 0.91795 0.30782 0.0
H1277 H 0.52755 0.92499 0.27112 0.0
H1278 H 0.53819 0.90645 0.21732 0.0
H1279 H 0.56447 0.90734 0.18143 0.0
H1280 H 0.85365 0.95523 0.63095 0.0
H1281 H 0.8561 0.98342 0.60531 0.0
H1282 H 0.90721 0.97543 0.57996 0.0
H1283 H 0.90458 0.94707 0.6044 0.0
H1284 H 0.87397 0.00993 0.62708 0.0
H1285 H 0.89129 0.9903 0.46615 0.0
H1286 H 0.88395 0.97616 0.50532 0.0
H1287 H 0.90485 0.98292 0.50621 0.0
C1288 C 0.86541 0.95958 0.62012 0.0
C1289 C 0.87888 0.94896 0.61908 0.0
C1290 C 0.86682 0.97568 0.60551 0.0
C1291 C 0.88175 0.98153 0.58968 0.0
C1292 C 0.89544 0.97114 0.59086 0.0
H1293 H 0.9002 0.0849 0.52525 0.0
H1294 H 0.89928 0.05844 0.56148 0.0
C1295 C 0.89399 0.95499 0.6052 0.0
C1296 C 0.88279 0.99826 0.5708 0.0
H1297 H 0.89216 0.01864 0.47992 0.0
C1298 C 0.87798 0.01184 0.59491 0.0
C1299 C 0.88776 1.00081 0.52856 0.0
C1300 C 0.8921 0.98678 0.49987 0.0
C1301 C 0.87805 0.02779 0.57811 0.0
C1302 C 0.88339 0.03036 0.53618 0.0
C1303 C 0.88819 0.01677 0.51213 0.0
C1304 C 0.88347 0.04686 0.51574 0.0
C1305 C 0.87191 0.04164 0.60506 0.0
C1306 C 0.87508 0.04926 0.47766 0.0
C1307 C 0.87572 0.0643 0.45676 0.0
C1308 C 0.8848 0.07742 0.47328 0.0
C1309 C 0.89294 0.07515 0.51187 0.0
C1310 C 0.89239 0.06 0.53269 0.0
H1311 H 0.8642 0.03717 0.63144 0.0
H1312 H 0.88248 0.04821 0.61882 0.0
H1313 H 0.86469 0.05046 0.58615 0.0
H1314 H 0.86806 0.03942 0.46384 0.0
H1315 H 0.86912 0.06564 0.42741 0.0
H1316 H 0.9475 0.11322 0.41014 0.0
H1317 H 0.97574 0.11039 0.43533 0.0
H1318 H 0.98446 0.16121 0.40775 0.0
H1319 H 0.9564 0.16384 0.38136 0.0
H1320 H 0.01076 0.14298 0.38742 0.0
H1321 H 0.99055 0.12676 0.54862 0.0
H1322 H 0.98313 0.11303 0.50903 0.0
H1323 H 0.97658 0.134 0.50892 0.0
C1324 C 0.95556 0.12369 0.40899 0.0
C1325 C 0.94977 0.13878 0.39423 0.0
C1326 C 0.97164 0.12213 0.42378 0.0
C1327 C 0.98219 0.1357 0.42457 0.0
C1328 C 0.97659 0.15059 0.40788 0.0
H1329 H 0.06658 0.1479 0.58688 0.0
H1330 H 0.0402 0.14899 0.55114 0.0
C1331 C 0.96057 0.1521 0.39281 0.0
C1332 C 0.99886 0.13457 0.44379 0.0
H1333 H 0.01892 0.12536 0.53526 0.0
C1334 C 0.01254 0.13911 0.41974 0.0
C1335 C 1.00125 0.12979 0.48625 0.0
C1336 C 0.9871 0.12578 0.51489 0.0
C1337 C 0.02845 0.13891 0.43676 0.0
C1338 C 0.03088 0.1337 0.47887 0.0
C1339 C 0.01718 0.12922 0.50291 0.0
C1340 C 0.04736 0.13339 0.49936 0.0
C1341 C 0.04242 0.14479 0.40979 0.0
C1342 C 0.06035 0.12427 0.48239 0.0
C1343 C 0.07557 0.1237 0.50279 0.0
C1344 C 0.07809 0.13202 0.54103 0.0
C1345 C 0.06507 0.14117 0.5578 0.0
C1346 C 0.04994 0.14184 0.53728 0.0
H1347 H 0.03809 0.15255 0.38335 0.0
H1348 H 0.05136 0.15188 0.42865 0.0
H1349 H 0.04881 0.13409 0.39611 0.0
H1350 H 0.05865 0.1173 0.45378 0.0
H1351 H 0.08522 0.11635 0.48924 0.0
H1352 H 0.15021 0.95135 0.42569 0.0
H1353 H 0.15064 0.97772 0.46146 0.0
H1354 H 0.11477 0.96031 0.55009 0.0
H1355 H 0.1145 0.93368 0.5146 0.0
H1356 H 0.12658 0.99923 0.46937 0.0
H1357 H 0.1472 0.98111 0.62891 0.0
H1358 H 0.1483 0.96749 0.58439 0.0
H1359 H 0.12926 0.97052 0.61147 0.0
C1360 C 0.14248 0.95306 0.453 0.0
C1361 C 0.13228 0.94037 0.46717 0.0
C1362 C 0.14275 0.96818 0.4735 0.0
C1363 C 0.13283 0.97109 0.50879 0.0
C1364 C 0.12281 0.95835 0.52354 0.0
H1365 H 0.11202 0.07246 0.58633 0.0
H1366 H 0.10913 0.04403 0.56245 0.0
C1367 C 0.12264 0.94311 0.50316 0.0
C1368 C 0.13251 0.98773 0.52835 0.0
H1369 H 0.13871 1.00861 0.62033 0.0
C1370 C 0.12921 1.00125 0.50242 0.0
C1371 C 0.1361 0.99048 0.57142 0.0
C1372 C 0.14057 0.97667 0.60064 0.0
C1373 C 0.1295 0.01732 0.51806 0.0
C1374 C 0.13276 0.02007 0.56131 0.0
C1375 C 0.13601 1.00656 0.58733 0.0
C1376 C 0.13374 0.03691 0.57944 0.0
C1377 C 0.1269 0.03124 0.48761 0.0
C1378 C 0.1482 0.04224 0.59898 0.0
C1379 C 0.14973 0.05836 0.61317 0.0
C1380 C 0.13686 0.06954 0.60797 0.0
C1381 C 0.12215 0.06409 0.59026 0.0
C1382 C 0.12057 0.0479 0.57631 0.0
H1383 H 0.12891 0.02738 0.45448 0.0
H1384 H 0.11414 0.03565 0.4903 0.0
H1385 H 0.13522 0.04158 0.49466 0.0
H1386 H 0.15851 0.03404 0.60212 0.0
H1387 H 0.16115 0.06229 0.62705 0.0
H1388 H 0.95065 0.90896 0.56634 0.0
H1389 H 0.97678 0.90768 0.52955 0.0
H1390 H 0.96041 0.86524 0.46142 0.0
H1391 H 0.93412 0.86643 0.49832 0.0
H1392 H 0.99914 0.88295 0.53221 0.0
H1393 H 0.97942 0.89296 0.36709 0.0
H1394 H 0.96628 0.8971 0.41143 0.0
H1395 H 0.96913 0.8765 0.39339 0.0
C1396 C 0.95254 0.89935 0.54346 0.0
C1397 C 0.94022 0.88774 0.53558 0.0
C1398 C 0.96752 0.89868 0.52227 0.0
C1399 C 0.97062 0.88646 0.49234 0.0
C1400 C 0.95826 0.87501 0.48369 0.0
H1401 H 0.05935 0.85893 0.35507 0.0
H1402 H 0.03125 0.86118 0.38196 0.0
C1403 C 0.9432 0.87569 0.50489 0.0
C1404 C 0.98712 0.88528 0.47225 0.0
H1405 H 1.00719 0.88571 0.37764 0.0
C1406 C 1.00087 0.88363 0.4984 0.0
C1407 C 0.98947 0.88605 0.42809 0.0
C1408 C 0.97533 0.88839 0.39829 0.0
C1409 C 0.01677 0.8826 0.4818 0.0
C1410 C 0.01915 0.88358 0.43769 0.0
C1411 C 1.00541 0.88504 0.41142 0.0
C1412 C 0.03583 0.883 0.41851 0.0
C1413 C 0.03087 0.88012 0.51172 0.0
C1414 C 0.04767 0.89476 0.42895 0.0
C1415 C 0.06367 0.89348 0.41352 0.0
C1416 C 0.06809 0.88052 0.38702 0.0
C1417 C 0.05615 0.8691 0.37519 0.0
C1418 C 0.04014 0.87037 0.39064 0.0
H1419 H 0.02673 0.87526 0.54259 0.0
H1420 H 0.04003 0.87158 0.49831 0.0
H1421 H 0.03696 0.89201 0.51744 0.0
H1422 H 0.04462 0.90479 0.44972 0.0
H1423 H 0.07272 0.90237 0.42321 0.0
H1424 H 0.39925 0.32785 0.08784 0.0
H1425 H 0.40071 0.29794 0.08243 0.0
H1426 H 0.3712 0.29352 0.19431 0.0
H1427 H 0.3693 0.32334 0.19879 0.0
H1428 H 0.41208 0.27372 0.13356 0.0
H1429 H 0.3454 0.2665 0.11175 0.0
H1430 H 0.35532 0.28613 0.10969 0.0
H1431 H 0.35051 0.27691 0.15962 0.0
C1432 C 0.39327 0.32044 0.1115 0.0
C1433 C 0.38437 0.32788 0.14406 0.0
C1434 C 0.39407 0.30336 0.10838 0.0
C1435 C 0.38585 0.29338 0.13756 0.0
C1436 C 0.37738 0.30087 0.17088 0.0
H1437 H 0.39887 0.18798 0.17271 0.0
H1438 H 0.40067 0.21786 0.17724 0.0
C1439 C 0.37649 0.31792 0.17382 0.0
C1440 C 0.38585 0.27521 0.13265 0.0
H1441 H 0.36058 0.24217 0.12307 0.0
C1442 C 0.40082 0.26683 0.13115 0.0
C1443 C 0.37118 0.26616 0.12867 0.0
C1444 C 0.3547 0.27438 0.12706 0.0
C1445 C 0.40151 0.24972 0.12663 0.0
C1446 C 0.38682 0.2406 0.12439 0.0
C1447 C 0.37187 0.24904 0.12518 0.0
C1448 C 0.38656 0.22238 0.12073 0.0
C1449 C 0.41801 0.24163 0.12335 0.0
C1450 C 0.37776 0.21482 0.08807 0.0
C1451 C 0.37659 0.19777 0.08581 0.0
C1452 C 0.38432 0.18785 0.11593 0.0
C1453 C 0.39315 0.19535 0.14853 0.0
C1454 C 0.39423 0.21243 0.15099 0.0
H1455 H 0.42753 0.25038 0.1128 0.0
H1456 H 0.42164 0.23698 0.1548 0.0
H1457 H 0.41772 0.2312 0.10108 0.0
H1458 H 0.37159 0.22214 0.06455 0.0
H1459 H 0.36932 0.19232 0.06105 0.0
H1460 H 0.19345 0.65334 0.94575 0.0
H1461 H 0.22334 0.65202 0.93903 0.0
H1462 H 0.21833 0.61685 0.83884 0.0
H1463 H 0.18847 0.61848 0.84509 0.0
H1464 H 0.24584 0.62759 0.94617 0.0
H1465 H 0.24606 0.65146 0.7829 0.0
H1466 H 0.22808 0.65183 0.81564 0.0
H1467 H 0.23399 0.63334 0.78915 0.0
C1468 C 0.19881 0.6452 0.92272 0.0
C1469 C 0.18874 0.63596 0.89604 0.0
C1470 C 0.21586 0.64447 0.91876 0.0
C1471 C 0.22318 0.63457 0.88784 0.0
C1472 C 0.21305 0.62487 0.86226 0.0
H1473 H 0.3284 0.61223 0.88127 0.0
H1474 H 0.29849 0.6103 0.88603 0.0
C1475 C 0.19601 0.62565 0.86612 0.0
C1476 C 0.24131 0.63464 0.88196 0.0
H1477 H 0.27141 0.64203 0.80961 0.0
C1478 C 0.25142 0.63074 0.91628 0.0
C1479 C 0.24869 0.639 0.84317 0.0
C1480 C 0.23868 0.64431 0.80571 0.0
C1481 C 0.26858 0.63092 0.91283 0.0
C1482 C 0.27595 0.63479 0.87368 0.0
C1483 C 0.26584 0.63884 0.83948 0.0
C1484 C 0.29409 0.63543 0.86806 0.0
C1485 C 0.27864 0.62742 0.95158 0.0
C1486 C 0.30165 0.64992 0.85441 0.0
C1487 C 0.31869 0.65092 0.85108 0.0
C1488 C 0.32856 0.63746 0.86126 0.0
C1489 C 0.32104 0.62278 0.87334 0.0
C1490 C 0.30397 0.62175 0.87651 0.0
H1491 H 0.27143 0.62904 0.9809 0.0
H1492 H 0.28293 0.61458 0.95057 0.0
H1493 H 0.28951 0.63551 0.9531 0.0
H1494 H 0.29437 0.66062 0.8474 0.0
H1495 H 0.32422 0.66237 0.84171 0.0
H1496 H 0.66256 0.82487 0.08901 0.0
H1497 H 0.66073 0.79494 0.09293 0.0
H1498 H 0.60947 0.79862 0.12192 0.0
H1499 H 0.61134 0.82863 0.11855 0.0
H1500 H 0.64341 0.77763 0.17632 0.0
H1501 H 0.61971 0.7633 0.01614 0.0
H1502 H 0.63288 0.78066 0.02497 0.0
H1503 H 0.61234 0.78098 0.04425 0.0
C1504 C 0.65088 0.81925 0.0957 0.0
C1505 C 0.63709 0.82901 0.10352 0.0
C1506 C 0.64985 0.80219 0.09804 0.0
C1507 C 0.63497 0.79455 0.10774 0.0
C1508 C 0.62105 0.80426 0.11428 0.0
H1509 H 0.61243 0.68947 0.11415 0.0
H1510 H 0.61027 0.71945 0.11124 0.0
C1511 C 0.62211 0.82136 0.11222 0.0
C1512 C 0.63424 0.77649 0.11298 0.0
H1513 H 0.62522 0.74109 0.06101 0.0
C1514 C 0.63939 0.76961 0.1512 0.0
C1515 C 0.6288 0.76609 0.08041 0.0
C1516 C 0.6231 0.77299 0.03895 0.0
C1517 C 0.63936 0.75259 0.15762 0.0
C1518 C 0.6345 0.74206 0.12444 0.0
C1519 C 0.62902 0.74904 0.08646 0.0
C1520 C 0.63552 0.72385 0.12797 0.0
C1521 C 0.6443 0.74613 0.20024 0.0
C1522 C 0.65038 0.71623 0.13833 0.0
C1523 C 0.65153 0.69919 0.14047 0.0
C1524 C 0.63796 0.68932 0.13135 0.0
C1525 C 0.62306 0.69684 0.12125 0.0
C1526 C 0.62186 0.71394 0.11944 0.0
H1527 H 0.64223 0.75535 0.22532 0.0
H1528 H 0.63745 0.73488 0.20845 0.0
H1529 H 0.65753 0.74322 0.19991 0.0
H1530 H 0.66123 0.72345 0.14403 0.0
H1531 H 0.66315 0.69366 0.14834 0.0
H1532 H 0.68859 0.40676 0.89083 0.0
H1533 H 0.71852 0.40949 0.89335 0.0
H1534 H 0.72348 0.36015 0.84768 0.0
H1535 H 0.69368 0.35765 0.84421 0.0
H1536 H 0.74057 0.39283 0.93925 0.0
H1537 H 0.7546 0.3835 0.77072 0.0
H1538 H 0.73413 0.38721 0.78937 0.0
H1539 H 0.74279 0.36703 0.79209 0.0
C1540 C 0.69615 0.39664 0.8808 0.0
C1541 C 0.68891 0.38203 0.86721 0.0
C1542 C 0.71323 0.39815 0.88238 0.0
C1543 C 0.72338 0.38511 0.87014 0.0
C1544 C 0.71604 0.37054 0.85631 0.0
H1545 H 0.82394 0.36634 0.94372 0.0
H1546 H 0.79413 0.36855 0.93893 0.0
C1547 C 0.69901 0.36907 0.85456 0.0
C1548 C 0.74157 0.38642 0.87357 0.0
H1549 H 0.77707 0.38101 0.8185 0.0
C1550 C 0.74853 0.39038 0.91271 0.0
C1551 C 0.75207 0.38348 0.83892 0.0
C1552 C 0.74552 0.38024 0.79532 0.0
C1553 C 0.76559 0.39099 0.91844 0.0
C1554 C 0.77609 0.38721 0.88433 0.0
C1555 C 0.76912 0.38374 0.84488 0.0
C1556 C 0.79428 0.38652 0.8889 0.0
C1557 C 0.77216 0.39589 0.96096 0.0
C1558 C 0.80444 0.39561 0.86193 0.0
C1559 C 0.8215 0.39427 0.86456 0.0
C1560 C 0.82875 0.38386 0.89431 0.0
C1561 C 0.81864 0.3748 0.92135 0.0
C1562 C 0.8016 0.37609 0.91862 0.0
H1563 H 0.76314 0.40328 0.97884 0.0
H1564 H 0.77479 0.38475 0.97961 0.0
H1565 H 0.78362 0.40304 0.95791 0.0
H1566 H 0.79917 0.40363 0.83846 0.0
H1567 H 0.82905 0.40111 0.84281 0.0
H1568 H 0.89758 0.68736 0.67657 0.0
H1569 H 0.89927 0.7172 0.68423 0.0
H1570 H 0.86948 0.72311 0.57331 0.0
H1571 H 0.86749 0.69335 0.56635 0.0
H1572 H 0.91063 0.74201 0.63284 0.0
H1573 H 0.84423 0.74915 0.66045 0.0
H1574 H 0.85419 0.7295 0.66105 0.0
H1575 H 0.84891 0.73902 0.61184 0.0
C1576 C 0.89162 0.69509 0.65355 0.0
C1577 C 0.88263 0.68809 0.62051 0.0
C1578 C 0.89254 0.71212 0.65798 0.0
C1579 C 0.88431 0.72247 0.62973 0.0
C1580 C 0.8757 0.71544 0.59598 0.0
H1581 H 0.89635 0.82753 0.59564 0.0
H1582 H 0.89812 0.79767 0.59137 0.0
C1583 C 0.87475 0.69844 0.59164 0.0
C1584 C 0.88443 0.74057 0.63605 0.0
H1585 H 0.85939 0.77356 0.65012 0.0
C1586 C 0.89943 0.74889 0.63675 0.0
C1587 C 0.86985 0.7496 0.64197 0.0
C1588 C 0.85339 0.74137 0.64424 0.0
C1589 C 0.90021 0.76596 0.64214 0.0
C1590 C 0.88558 0.77507 0.64631 0.0
C1591 C 0.87062 0.76668 0.64657 0.0
C1592 C 0.88544 0.79328 0.65011 0.0
C1593 C 0.91675 0.77403 0.64402 0.0
C1594 C 0.87753 0.8009 0.68418 0.0
C1595 C 0.87642 0.81798 0.68643 0.0
C1596 C 0.88318 0.82779 0.65462 0.0
C1597 C 0.89126 0.82022 0.62085 0.0
C1598 C 0.89233 0.80315 0.61852 0.0
H1599 H 0.92644 0.76521 0.65316 0.0
H1600 H 0.91987 0.7789 0.61243 0.0
H1601 H 0.91681 0.78432 0.66676 0.0
H1602 H 0.87201 0.79362 0.70882 0.0
H1603 H 0.86992 0.82353 0.71245 0.0
H1604 H 0.82865 0.11211 0.37484 0.0
H1605 H 0.79873 0.10963 0.37727 0.0
H1606 H 0.79419 0.15972 0.33692 0.0
H1607 H 0.82403 0.16201 0.33363 0.0
H1608 H 0.77732 0.12609 0.42598 0.0
H1609 H 0.76228 0.13768 0.25884 0.0
H1610 H 0.7828 0.13336 0.27628 0.0
H1611 H 0.77451 0.15362 0.28124 0.0
C1612 C 0.82119 0.12245 0.36579 0.0
C1613 C 0.82857 0.13721 0.3538 0.0
C1614 C 0.80412 0.12108 0.36737 0.0
C1615 C 0.7941 0.13442 0.35676 0.0
C1616 C 0.80155 0.14912 0.3443 0.0
H1617 H 0.69418 0.15297 0.43566 0.0
H1618 H 0.72395 0.15084 0.42914 0.0
C1619 C 0.81859 0.15046 0.3426 0.0
C1620 C 0.77594 0.13326 0.36085 0.0
H1621 H 0.74013 0.13947 0.3077 0.0
C1622 C 0.76921 0.12889 0.39997 0.0
C1623 C 0.76525 0.13667 0.32689 0.0
C1624 C 0.77157 0.14043 0.28334 0.0
C1625 C 0.7522 0.12829 0.40638 0.0
C1626 C 0.74152 0.13251 0.37299 0.0
C1627 C 0.74824 0.1364 0.33352 0.0
C1628 C 0.72339 0.13319 0.37841 0.0
C1629 C 0.74586 0.12297 0.44881 0.0
C1630 C 0.71302 0.12426 0.35163 0.0
C1631 C 0.69599 0.12554 0.35529 0.0
C1632 C 0.689 0.13574 0.38587 0.0
C1633 C 0.69931 0.14468 0.41264 0.0
C1634 C 0.71632 0.14344 0.40891 0.0
H1635 H 0.75498 0.11544 0.46593 0.0
H1636 H 0.7433 0.13393 0.46823 0.0
H1637 H 0.7344 0.11584 0.4457 0.0
H1638 H 0.71812 0.11639 0.32758 0.0
H1639 H 0.68827 0.1188 0.33375 0.0
H1640 H 0.11779 0.32845 0.66966 0.0
H1641 H 0.11636 0.29855 0.67591 0.0
H1642 H 0.14598 0.29372 0.56435 0.0
H1643 H 0.14783 0.32353 0.55901 0.0
H1644 H 0.10508 0.27412 0.62494 0.0
H1645 H 0.17171 0.26714 0.64832 0.0
H1646 H 0.16172 0.28675 0.64977 0.0
H1647 H 0.1667 0.27741 0.60013 0.0
C1648 C 0.1238 0.32094 0.64625 0.0
C1649 C 0.13271 0.32826 0.61352 0.0
C1650 C 0.12302 0.30388 0.64985 0.0
C1651 C 0.13127 0.29381 0.62099 0.0
C1652 C 0.13977 0.30116 0.58752 0.0
H1653 H 0.11895 0.18838 0.58725 0.0
H1654 H 0.11692 0.21824 0.58248 0.0
C1655 C 0.14063 0.3182 0.58409 0.0
C1656 C 0.1313 0.27567 0.62642 0.0
H1657 H 0.15663 0.24274 0.63734 0.0
C1658 C 0.11635 0.26726 0.62778 0.0
C1659 C 0.14598 0.26668 0.63094 0.0
C1660 C 0.16243 0.27496 0.63267 0.0
C1661 C 0.11569 0.25016 0.63267 0.0
C1662 C 0.13041 0.24111 0.63545 0.0
C1663 C 0.14533 0.24957 0.63483 0.0
C1664 C 0.13071 0.2229 0.63941 0.0
C1665 C 0.09921 0.24203 0.63569 0.0
C1666 C 0.13938 0.21544 0.67245 0.0
C1667 C 0.14068 0.19841 0.67488 0.0
C1668 C 0.13321 0.18842 0.64453 0.0
C1669 C 0.12446 0.19582 0.6116 0.0
C1670 C 0.12326 0.21288 0.60899 0.0
H1671 H 0.08961 0.25078 0.64581 0.0
H1672 H 0.09572 0.23728 0.60425 0.0
H1673 H 0.09946 0.23166 0.65819 0.0
H1674 H 0.14539 0.22283 0.6961 0.0
H1675 H 0.14789 0.19303 0.69989 0.0
H1676 H 0.19388 0.86792 0.29628 0.0
H1677 H 0.22374 0.87003 0.30193 0.0
H1678 H 0.21848 0.89817 0.41586 0.0
H1679 H 0.18864 0.89639 0.40951 0.0
H1680 H 0.24274 0.91039 0.36598 0.0
H1681 H 0.25062 0.84356 0.38428 0.0
H1682 H 0.2404 0.84922 0.33651 0.0
H1683 H 0.23088 0.85327 0.38647 0.0
C1684 C 0.19915 0.87476 0.32209 0.0
C1685 C 0.189 0.88206 0.35237 0.0
C1686 C 0.2162 0.87582 0.32561 0.0
C1687 C 0.22345 0.88398 0.35983 0.0
C1688 C 0.21325 0.89174 0.38929 0.0
H1689 H 0.32325 0.86862 0.44712 0.0
H1690 H 0.29349 0.87055 0.43986 0.0
C1691 C 0.19622 0.89075 0.38565 0.0
C1692 C 0.24158 0.88414 0.36557 0.0
H1693 H 0.2748 0.85923 0.3775 0.0
C1694 C 0.24974 0.8992 0.36851 0.0
C1695 C 0.25077 0.86957 0.36967 0.0
C1696 C 0.24273 0.85299 0.36951 0.0
C1697 C 0.26676 0.90007 0.37482 0.0
C1698 C 0.27601 0.88549 0.37756 0.0
C1699 C 0.26781 0.87044 0.3751 0.0
C1700 C 0.29415 0.88545 0.38355 0.0
C1701 C 0.2746 0.91664 0.37953 0.0
C1702 C 0.30456 0.89321 0.35453 0.0
C1703 C 0.32158 0.8923 0.3591 0.0
C1704 C 0.32856 0.88358 0.39267 0.0
C1705 C 0.31819 0.87582 0.42167 0.0
C1706 C 0.30118 0.87679 0.41724 0.0
H1707 H 0.26555 0.92607 0.38893 0.0
H1708 H 0.28453 0.91637 0.40329 0.0
H1709 H 0.27991 0.92038 0.34889 0.0
H1710 H 0.29954 0.89957 0.3276 0.0
H1711 H 0.32933 0.89803 0.33574 0.0
H1712 H 0.19737 0.1471 0.79806 0.0
H1713 H 0.22027 0.14671 0.84704 0.0
H1714 H 0.24006 0.10458 0.78386 0.0
H1715 H 0.21775 0.10548 0.73297 0.0
H1716 H 0.22996 0.12543 0.90335 0.0
H1717 H 0.27997 0.13236 0.78762 0.0
H1718 H 0.25882 0.13498 0.77346 0.0
H1719 H 0.2675 0.11483 0.77721 0.0
C1720 C 0.20673 0.13792 0.79377 0.0
C1721 C 0.20562 0.12645 0.76078 0.0
C1722 C 0.21981 0.13761 0.82232 0.0
C1723 C 0.2322 0.1258 0.81901 0.0
C1724 C 0.23098 0.11411 0.78671 0.0
H1725 H 0.30017 0.10488 0.02724 0.0
H1726 H 0.27784 0.10414 0.97638 0.0
C1727 C 0.21798 0.1145 0.75785 0.0
C1728 C 0.2461 0.1256 0.84987 0.0
H1729 H 0.28781 0.1257 0.8576 0.0
C1730 C 0.24261 0.12553 0.89324 0.0
C1731 C 0.26269 0.12598 0.83709 0.0
C1732 C 0.2675 0.12722 0.79134 0.0
C1733 C 0.25508 0.12572 0.92388 0.0
C1734 C 0.27167 0.12549 0.91108 0.0
C1735 C 0.27517 0.12568 0.86771 0.0
C1736 C 0.28558 0.1256 0.94195 0.0
C1737 C 0.25027 0.12668 0.96966 0.0
C1738 C 0.2979 0.13749 0.93901 0.0
C1739 C 0.31098 0.13771 0.96754 0.0
C1740 C 0.31217 0.12606 1.00013 0.0
C1741 C 0.29988 0.11404 1.00268 0.0
C1742 C 0.28687 0.11374 0.97384 0.0
H1743 H 0.23777 0.13173 0.97356 0.0
H1744 H 0.25034 0.11422 0.98337 0.0
H1745 H 0.2589 0.13439 0.9878 0.0
H1746 H 0.29738 0.14672 0.91461 0.0
H1747 H 0.32029 0.14696 0.96353 0.0
H1748 H 0.14377 0.7989 0.27485 0.0
H1749 H 0.14398 0.77579 0.22583 0.0
H1750 H 0.1085 0.80015 0.14793 0.0
H1751 H 0.10785 0.82305 0.197 0.0
H1752 H 0.11748 0.75532 0.19703 0.0
H1753 H 0.14598 0.78934 0.06497 0.0
H1754 H 0.14641 0.79667 0.11858 0.0
H1755 H 0.12823 0.79882 0.08747 0.0
C1756 C 0.13585 0.79932 0.2476 0.0
C1757 C 0.12593 0.81308 0.23999 0.0
C1758 C 0.13607 0.78609 0.21937 0.0
C1759 C 0.1265 0.78631 0.18261 0.0
C1760 C 0.11631 0.79981 0.17543 0.0
H1761 H 0.11314 0.72048 0.96734 0.0
H1762 H 0.11287 0.74355 0.01663 0.0
C1763 C 0.116 0.81297 0.20367 0.0
C1764 C 0.12701 0.77242 0.15195 0.0
H1765 H 0.1365 0.76267 0.04998 0.0
C1766 C 0.12172 0.75691 0.16495 0.0
C1767 C 0.13241 0.77446 0.10989 0.0
C1768 C 0.13872 0.79067 0.09431 0.0
C1769 C 0.12139 0.74352 0.13701 0.0
C1770 C 0.12695 0.7455 0.09497 0.0
C1771 C 0.13223 0.76105 0.08202 0.0
C1772 C 0.12753 0.73159 0.06422 0.0
C1773 C 0.11461 0.7275 0.15262 0.0
C1774 C 0.13622 0.71725 0.07366 0.0
C1775 C 0.13636 0.70404 0.04558 0.0
C1776 C 0.12797 0.70481 0.00687 0.0
C1777 C 0.11977 0.71941 0.9967 0.0
C1778 C 0.11955 0.73262 0.02502 0.0
H1779 H 0.1064 0.72926 0.18007 0.0
H1780 H 0.10773 0.72108 0.12748 0.0
H1781 H 0.12484 0.71955 0.16285 0.0
H1782 H 0.14295 0.71624 0.10287 0.0
H1783 H 0.14314 0.69319 0.0542 0.0
H1784 H 0.72119 0.90225 0.04037 0.0
H1785 H 0.74439 0.9023 0.99144 0.0
H1786 H 0.71527 0.87695 0.89932 0.0
H1787 H 0.69212 0.87692 0.94771 0.0
H1788 H 0.76175 0.87806 0.95348 0.0
H1789 H 0.73136 0.91481 0.82993 0.0
H1790 H 0.72296 0.91258 0.8821 0.0
H1791 H 0.72014 0.89676 0.84346 0.0
C1792 C 0.71973 0.8966 0.00979 0.0
C1793 C 0.70461 0.88978 0.99799 0.0
C1794 C 0.73302 0.8967 0.98168 0.0
C1795 C 0.73156 0.89 0.94103 0.0
C1796 C 0.71666 0.8827 0.92979 0.0
H1797 H 0.79764 0.8761 0.72653 0.0
H1798 H 0.77448 0.87617 0.77544 0.0
C1799 C 0.70338 0.88266 0.95771 0.0
C1800 C 0.7456 0.89043 0.9106 0.0
H1801 H 0.75656 0.90234 0.81104 0.0
C1802 C 0.76061 0.88347 0.92247 0.0
C1803 C 0.74425 0.89746 0.86989 0.0
C1804 C 0.72887 0.90597 0.85567 0.0
C1805 C 0.77407 0.88305 0.89472 0.0
C1806 C 0.77267 0.88998 0.85396 0.0
C1807 C 0.75768 0.89695 0.84209 0.0
C1808 C 0.78667 0.89033 0.82353 0.0
C1809 C 0.78959 0.87483 0.909 0.0
C1810 C 0.80118 0.8986 0.83352 0.0
C1811 C 0.81441 0.89872 0.80545 0.0
C1812 C 0.81357 0.89056 0.76638 0.0
C1813 C 0.79883 0.88262 0.756 0.0
C1814 C 0.78555 0.88256 0.78414 0.0
H1815 H 0.78742 0.86651 0.93605 0.0
H1816 H 0.7952 0.86773 0.88297 0.0
H1817 H 0.79847 0.88428 0.91916 0.0
H1818 H 0.80228 0.90507 0.86311 0.0
H1819 H 0.82531 0.90535 0.81438 0.0
H1820 H 0.90717 0.21982 0.28514 0.0
H1821 H 0.90727 0.24316 0.23643 0.0
H1822 H 0.87314 0.21814 0.15594 0.0
H1823 H 0.87292 0.19489 0.20432 0.0
H1824 H 0.91558 0.24232 0.14576 0.0
H1825 H 0.85243 0.26419 0.17501 0.0
H1826 H 0.86321 0.25119 0.21161 0.0
H1827 H 0.85444 0.2427 0.16467 0.0
C1828 C 0.89954 0.21936 0.25732 0.0
C1829 C 0.89005 0.2054 0.24877 0.0
C1830 C 0.89969 0.23269 0.22934 0.0
C1831 C 0.89012 0.23252 0.19255 0.0
C1832 C 0.88051 0.21869 0.18423 0.0
H1833 H 0.86989 0.29881 0.98376 0.0
H1834 H 0.87048 0.27658 0.03529 0.0
C1835 C 0.88049 0.20533 0.21187 0.0
C1836 C 0.89047 0.24651 0.16219 0.0
H1837 H 0.86655 0.27615 0.1178 0.0
C1838 C 0.9049 0.24981 0.13985 0.0
C1839 C 0.87651 0.25621 0.15408 0.0
C1840 C 0.86077 0.25355 0.17776 0.0
C1841 C 0.90564 0.2622 0.10899 0.0
C1842 C 0.89168 0.272 0.10094 0.0
C1843 C 0.87728 0.26874 0.12366 0.0
C1844 C 0.89163 0.28554 0.06895 0.0
C1845 C 0.92124 0.26421 0.08428 0.0
C1846 C 0.90322 0.29822 0.07044 0.0
C1847 C 0.90298 0.31092 0.04067 0.0
C1848 C 0.89098 0.31148 0.00893 0.0
C1849 C 0.87927 0.29889 0.00779 0.0
C1850 C 0.87961 0.28611 0.03732 0.0
H1851 H 0.92868 0.25287 0.08469 0.0
H1852 H 0.91871 0.26753 0.05102 0.0
H1853 H 0.92866 0.27406 0.09869 0.0
H1854 H 0.91233 0.29849 0.09511 0.0
H1855 H 0.912 0.32054 0.04318 0.0
H1856 H 0.19632 0.36936 0.45783 0.0
H1857 H 0.21933 0.36964 0.40903 0.0
H1858 H 0.23985 0.41089 0.47444 0.0
H1859 H 0.21728 0.41023 0.52471 0.0
H1860 H 0.22951 0.39237 0.35406 0.0
H1861 H 0.27907 0.38149 0.46941 0.0
H1862 H 0.2578 0.37903 0.48273 0.0
H1863 H 0.26687 0.39904 0.48169 0.0
C1864 C 0.20585 0.37833 0.46253 0.0
C1865 C 0.20486 0.38967 0.49586 0.0
C1866 C 0.21899 0.37856 0.43417 0.0
C1867 C 0.2316 0.39009 0.43821 0.0
C1868 C 0.23056 0.40159 0.471 0.0
H1869 H 0.31958 0.41163 0.29124 0.0
H1870 H 0.29659 0.41211 0.34052 0.0
C1871 C 0.21744 0.40134 0.49952 0.0
C1872 C 0.24554 0.39028 0.40751 0.0
H1873 H 0.28725 0.38855 0.40001 0.0
C1874 C 0.24212 0.39146 0.3642 0.0
C1875 C 0.26208 0.3891 0.42041 0.0
C1876 C 0.26671 0.38693 0.46604 0.0
C1877 C 0.25466 0.39174 0.33377 0.0
C1878 C 0.27118 0.39058 0.34669 0.0
C1879 C 0.27463 0.38948 0.38996 0.0
C1880 C 0.28504 0.39039 0.31587 0.0
C1881 C 0.25011 0.3936 0.28801 0.0
C1882 C 0.28639 0.37796 0.28556 0.0
C1883 C 0.29953 0.37766 0.25716 0.0
C1884 C 0.31173 0.38979 0.25829 0.0
C1885 C 0.31035 0.40221 0.2888 0.0
C1886 C 0.29723 0.40245 0.31731 0.0
H1887 H 0.23759 0.3986 0.28419 0.0
H1888 H 0.25883 0.40175 0.27143 0.0
H1889 H 0.25049 0.38146 0.27258 0.0
H1890 H 0.27735 0.36833 0.28411 0.0
H1891 H 0.30006 0.36795 0.23408 0.0
H1892 H 0.41161 0.82119 0.54949 0.0
H1893 H 0.41195 0.79878 0.60066 0.0
H1894 H 0.36962 0.77769 0.54136 0.0
H1895 H 0.36934 0.79986 0.48969 0.0
H1896 H 0.38699 0.78903 0.65845 0.0
H1897 H 0.40199 0.7392 0.54675 0.0
H1898 H 0.40479 0.76048 0.53384 0.0
H1899 H 0.38479 0.75151 0.53176 0.0
C1900 C 0.40248 0.81168 0.54691 0.0
C1901 C 0.39049 0.81238 0.5151 0.0
C1902 C 0.40263 0.79891 0.57648 0.0
C1903 C 0.39093 0.78638 0.57477 0.0
C1904 C 0.37893 0.78704 0.54314 0.0
H1905 H 0.37057 0.69709 0.7136 0.0
H1906 H 0.37099 0.72038 0.66557 0.0
C1907 C 0.37871 0.79986 0.51375 0.0
C1908 C 0.39108 0.77278 0.60636 0.0
H1909 H 0.39458 0.73131 0.61588 0.0
C1910 C 0.38874 0.77641 0.64919 0.0
C1911 C 0.39333 0.75627 0.59444 0.0
C1912 C 0.39651 0.75157 0.54927 0.0
C1913 C 0.38812 0.76403 0.6801 0.0
C1914 C 0.39033 0.74748 0.66818 0.0
C1915 C 0.39284 0.74391 0.62532 0.0
C1916 C 0.38976 0.73362 0.69919 0.0
C1917 C 0.38453 0.7688 0.72501 0.0
C1918 C 0.40012 0.73312 0.73457 0.0
C1919 C 0.39982 0.71977 0.76245 0.0
C1920 C 0.38935 0.70641 0.75528 0.0
C1921 C 0.37894 0.70701 0.71999 0.0
C1922 C 0.37915 0.72039 0.69241 0.0
H1923 H 0.37847 0.78092 0.72684 0.0
H1924 H 0.37659 0.75964 0.74066 0.0
H1925 H 0.39616 0.76959 0.74276 0.0
H1926 H 0.40874 0.74289 0.74018 0.0
H1927 H 0.40817 0.71966 0.78888 0.0
H1928 H 0.69841 0.64791 0.28935 0.0
H1929 H 0.72065 0.64747 0.34049 0.0
H1930 H 0.74169 0.60583 0.27799 0.0
H1931 H 0.71958 0.6063 0.22609 0.0
H1932 H 0.74076 0.60232 0.36575 0.0
H1933 H 0.7678 0.66212 0.32323 0.0
H1934 H 0.7464 0.66302 0.33519 0.0
H1935 H 0.75326 0.65177 0.28993 0.0
C1936 C 0.70787 0.63879 0.28584 0.0
C1937 C 0.70712 0.62724 0.25295 0.0
C1938 C 0.72063 0.63854 0.31536 0.0
C1939 C 0.73309 0.62678 0.31293 0.0
C1940 C 0.7323 0.61508 0.28061 0.0
H1941 H 0.81954 0.60409 0.46668 0.0
H1942 H 0.79741 0.60376 0.41502 0.0
C1943 C 0.71955 0.61533 0.25095 0.0
C1944 C 0.74673 0.62653 0.34452 0.0
H1945 H 0.77783 0.64957 0.38539 0.0
C1946 C 0.74892 0.61262 0.36984 0.0
C1947 C 0.75742 0.63997 0.35019 0.0
C1948 C 0.75625 0.65502 0.32298 0.0
C1949 C 0.76116 0.61192 0.4011 0.0
C1950 C 0.77186 0.62536 0.40681 0.0
C1951 C 0.76969 0.63925 0.38133 0.0
C1952 C 0.78532 0.62534 0.43896 0.0
C1953 C 0.76217 0.59693 0.42858 0.0
C1954 C 0.78631 0.63777 0.4694 0.0
C1955 C 0.79905 0.63803 0.49903 0.0
C1956 C 0.81126 0.62589 0.49905 0.0
C1957 C 0.81025 0.61347 0.46842 0.0
C1958 C 0.79753 0.61326 0.43872 0.0
H1959 H 0.75048 0.59005 0.42876 0.0
H1960 H 0.77179 0.58869 0.41618 0.0
H1961 H 0.76535 0.60019 0.4615 0.0
H1962 H 0.77713 0.64728 0.47041 0.0
H1963 H 0.79923 0.64771 0.52221 0.0
H1964 H 0.64419 0.22206 0.47257 0.0
H1965 H 0.64367 0.24434 0.52393 0.0
H1966 H 0.60923 0.21733 0.59949 0.0
H1967 H 0.60909 0.19546 0.54692 0.0
H1968 H 0.60057 0.24698 0.60156 0.0
H1969 H 0.66695 0.24773 0.63152 0.0
H1970 H 0.6627 0.25171 0.57719 0.0
H1971 H 0.65746 0.23218 0.59977 0.0
C1972 C 0.63653 0.22088 0.50019 0.0
C1973 C 0.62673 0.20693 0.50566 0.0
C1974 C 0.63634 0.23359 0.52989 0.0
C1975 C 0.62677 0.23249 0.56665 0.0
C1976 C 0.61682 0.2186 0.57176 0.0
H1977 H 0.64392 0.29641 0.78448 0.0
H1978 H 0.64316 0.27384 0.73389 0.0
C1979 C 0.61673 0.20606 0.5416 0.0
C1980 C 0.62683 0.24585 0.59926 0.0
H1981 H 0.65186 0.2704 0.65807 0.0
C1982 C 0.61183 0.25199 0.61405 0.0
C1983 C 0.64143 0.25234 0.61666 0.0
C1984 C 0.65801 0.24552 0.60581 0.0
C1985 C 0.611 0.26438 0.64486 0.0
C1986 C 0.62561 0.27152 0.66042 0.0
C1987 C 0.6406 0.26524 0.64605 0.0
C1988 C 0.62569 0.28527 0.69195 0.0
C1989 C 0.5944 0.26922 0.66126 0.0
C1990 C 0.61627 0.29946 0.6857 0.0
C1991 C 0.61641 0.31222 0.71524 0.0
C1992 C 0.62638 0.31142 0.75126 0.0
C1993 C 0.63611 0.29744 0.75709 0.0
C1994 C 0.63568 0.28451 0.72802 0.0
H1995 H 0.58545 0.25912 0.65772 0.0
H1996 H 0.59491 0.27271 0.69499 0.0
H1997 H 0.58978 0.27974 0.6428 0.0
H1998 H 0.60892 0.30082 0.65761 0.0
H1999 H 0.60901 0.32294 0.70934 0.0
loop_
_geom_bond_atom_site_label_1
_geom_bond_atom_site_label_2
_geom_bond_distance
_geom_bond_site_symmetry_2
_ccdc_geom_bond_type
C0 C1 1.443 . S
C0 N4 1.376 . S
C0 C38 1.389 . S
C1 C0 1.443 . S
C1 C2 1.340 . S
C1 H41 0.951 . S
C2 C1 1.340 . S
C2 C3 1.439 . S
C2 H42 0.950 . S
C3 C2 1.439 . S
C3 N4 1.374 . S
C3 C37 1.395 . S
N4 C0 1.376 . S
N4 C3 1.374 . S
N4 Co5 2.008 . S
Co5 N4 2.008 . S
Co5 N6 1.995 . S
Co5 N11 2.008 . S
Co5 N16 1.995 . S
Co5 N21 2.282 . S
Co5 N27 2.282 . S
N6 Co5 1.995 . S
N6 C7 1.376 . S
N6 C10 1.383 . S
C7 N6 1.376 . S
C7 C8 1.446 . S
C7 C37 1.391 . S
C8 C7 1.446 . S
C8 C9 1.339 . S
C8 H43 0.949 . S
C9 C8 1.339 . S
C9 C10 1.439 . S
C9 H44 0.950 . S
C10 N6 1.383 . S
C10 C9 1.439 . S
C10 C39 1.392 . S
N11 Co5 2.008 . S
N11 C12 1.376 . S
N11 C15 1.374 . S
C12 N11 1.376 . S
C12 C13 1.443 . S
C12 C39 1.389 . S
C13 C12 1.443 . S
C13 C14 1.340 . S
C13 H45 0.951 . S
C14 C13 1.340 . S
C14 C15 1.439 . S
C14 H46 0.949 . S
C15 N11 1.374 . S
C15 C14 1.439 . S
C15 C40 1.395 . S
N16 Co5 1.995 . S
N16 C17 1.376 . S
N16 C20 1.383 . S
C17 N16 1.376 . S
C17 C18 1.446 . S
C17 C40 1.391 . S
C18 C17 1.446 . S
C18 C19 1.339 . S
C18 H47 0.949 . S
C19 C18 1.339 . S
C19 C20 1.439 . S
C19 H48 0.950 . S
C20 N16 1.383 . S
C20 C19 1.439 . S
C20 C38 1.392 . S
N21 Co5 2.282 . S
N21 C24 1.332 . S
N21 C26 1.332 . S
C22 C23 1.386 . S
C22 C25 1.388 . S
C23 C22 1.386 . S
C23 C24 1.382 . S
C23 H49 0.950 . S
C24 N21 1.332 . S
C24 C23 1.382 . S
C24 H35 0.952 . S
C25 C22 1.388 . S
C25 C26 1.382 . S
C25 H50 0.950 . S
C26 N21 1.332 . S
C26 C25 1.382 . S
C26 H36 0.948 . S
N27 Co5 2.282 . S
N27 C31 1.332 . S
N27 C32 1.332 . S
C28 C29 1.388 . S
C28 C32 1.382 . S
C28 H51 0.950 . S
C29 C28 1.388 . S
C29 C30 1.386 . S
C30 C29 1.386 . S
C30 C31 1.382 . S
C30 H52 0.950 . S
C31 N27 1.332 . S
C31 C30 1.382 . S
C31 H33 0.952 . S
C32 N27 1.332 . S
C32 C28 1.382 . S
C32 H34 0.948 . S
H33 C31 0.952 . S
H34 C32 0.948 . S
H35 C24 0.952 . S
H36 C26 0.948 . S
C37 C3 1.395 . S
C37 C7 1.391 . S
C38 C0 1.389 . S
C38 C20 1.392 . S
C39 C10 1.392 . S
C39 C12 1.389 . S
C40 C15 1.395 . S
C40 C17 1.391 . S
H41 C1 0.951 . S
H42 C2 0.950 . S
H43 C8 0.949 . S
H44 C9 0.950 . S
H45 C13 0.951 . S
H46 C14 0.949 . S
H47 C18 0.949 . S
H48 C19 0.950 . S
H49 C23 0.950 . S
H50 C25 0.950 . S
H51 C28 0.950 . S
H52 C30 0.950 . S
C53 C54 1.443 . S
C53 N57 1.376 . S
C53 C91 1.389 . S
C54 C53 1.443 . S
C54 C55 1.340 . S
C54 H94 0.951 . S
C55 C54 1.340 . S
C55 C56 1.439 . S
C55 H95 0.950 . S
C56 C55 1.439 . S
C56 N57 1.374 . S
C56 C90 1.395 . S
N57 C53 1.376 . S
N57 C56 1.374 . S
N57 Co58 2.008 . S
Co58 N57 2.008 . S
Co58 N59 1.995 . S
Co58 N64 2.008 . S
Co58 N69 1.995 . S
Co58 N74 2.282 . S
Co58 N80 2.282 . S
N59 Co58 1.995 . S
N59 C60 1.376 . S
N59 C63 1.383 . S
C60 N59 1.376 . S
C60 C61 1.446 . S
C60 C90 1.391 . S
C61 C60 1.446 . S
C61 C62 1.339 . S
C61 H96 0.949 . S
C62 C61 1.339 . S
C62 C63 1.439 . S
C62 H97 0.950 . S
C63 N59 1.383 . S
C63 C62 1.439 . S
C63 C92 1.392 . S
N64 Co58 2.008 . S
N64 C65 1.376 . S
N64 C68 1.374 . S
C65 N64 1.376 . S
C65 C66 1.443 . S
C65 C92 1.389 . S
C66 C65 1.443 . S
C66 C67 1.340 . S
C66 H98 0.951 . S
C67 C66 1.340 . S
C67 C68 1.439 . S
C67 H99 0.950 . S
C68 N64 1.374 . S
C68 C67 1.439 . S
C68 C93 1.395 . S
N69 Co58 1.995 . S
N69 C70 1.376 . S
N69 C73 1.383 . S
C70 N69 1.376 . S
C70 C71 1.446 . S
C70 C93 1.391 . S
C71 C70 1.446 . S
C71 C72 1.339 . S
C71 H100 0.949 . S
C72 C71 1.339 . S
C72 C73 1.439 . S
C72 H101 0.950 . S
C73 N69 1.383 . S
C73 C72 1.439 . S
C73 C91 1.392 . S
N74 Co58 2.282 . S
N74 C77 1.332 . S
N74 C79 1.332 . S
C75 C76 1.386 . S
C75 C78 1.388 . S
C76 C75 1.386 . S
C76 C77 1.382 . S
C76 H102 0.950 . S
C77 N74 1.332 . S
C77 C76 1.382 . S
C77 H88 0.952 . S
C78 C75 1.388 . S
C78 C79 1.382 . S
C78 H103 0.950 . S
C79 N74 1.332 . S
C79 C78 1.382 . S
C79 H89 0.948 . S
N80 Co58 2.282 . S
N80 C84 1.332 . S
N80 C85 1.332 . S
C81 C82 1.388 . S
C81 C85 1.382 . S
C81 H104 0.950 . S
C82 C81 1.388 . S
C82 C83 1.386 . S
C83 C82 1.386 . S
C83 C84 1.382 . S
C83 H105 0.950 . S
C84 N80 1.332 . S
C84 C83 1.382 . S
C84 H86 0.952 . S
C85 N80 1.332 . S
C85 C81 1.382 . S
C85 H87 0.948 . S
H86 C84 0.952 . S
H87 C85 0.948 . S
H88 C77 0.952 . S
H89 C79 0.948 . S
C90 C56 1.395 . S
C90 C60 1.391 . S
C91 C53 1.389 . S
C91 C73 1.392 . S
C92 C63 1.392 . S
C92 C65 1.389 . S
C93 C68 1.395 . S
C93 C70 1.391 . S
H94 C54 0.951 . S
H95 C55 0.950 . S
H96 C61 0.949 . S
H97 C62 0.950 . S
H98 C66 0.951 . S
H99 C67 0.950 . S
H100 C71 0.949 . S
H101 C72 0.950 . S
H102 C76 0.950 . S
H103 C78 0.950 . S
H104 C81 0.950 . S
H105 C83 0.950 . S
C106 C107 1.443 . S
C106 N110 1.376 . S
C106 C144 1.389 . S
C107 C106 1.443 . S
C107 C108 1.340 . S
C107 H147 0.951 . S
C108 C107 1.340 . S
C108 C109 1.439 . S
C108 H148 0.950 . S
C109 C108 1.439 . S
C109 N110 1.374 . S
C109 C143 1.395 . S
N110 C106 1.376 . S
N110 C109 1.374 . S
N110 Co111 2.008 . S
Co111 N110 2.008 . S
Co111 N112 1.995 . S
Co111 N117 2.008 . S
Co111 N122 1.995 . S
Co111 N127 2.282 . S
Co111 N133 2.282 . S
N112 Co111 1.995 . S
N112 C113 1.376 . S
N112 C116 1.383 . S
C113 N112 1.376 . S
C113 C114 1.446 . S
C113 C143 1.391 . S
C114 C113 1.446 . S
C114 C115 1.339 . S
C114 H149 0.949 . S
C115 C114 1.339 . S
C115 C116 1.439 . S
C115 H150 0.950 . S
C116 N112 1.383 . S
C116 C115 1.439 . S
C116 C145 1.392 . S
N117 Co111 2.008 . S
N117 C118 1.376 . S
N117 C121 1.374 . S
C118 N117 1.376 . S
C118 C119 1.443 . S
C118 C145 1.389 . S
C119 C118 1.443 . S
C119 C120 1.340 . S
C119 H151 0.951 . S
C120 C119 1.340 . S
C120 C121 1.439 . S
C120 H152 0.949 . S
C121 N117 1.374 . S
C121 C120 1.439 . S
C121 C146 1.395 . S
N122 Co111 1.995 . S
N122 C123 1.376 . S
N122 C126 1.383 . S
C123 N122 1.376 . S
C123 C124 1.446 . S
C123 C146 1.391 . S
C124 C123 1.446 . S
C124 C125 1.339 . S
C124 H153 0.949 . S
C125 C124 1.339 . S
C125 C126 1.439 . S
C125 H154 0.950 . S
C126 N122 1.383 . S
C126 C125 1.439 . S
C126 C144 1.392 . S
N127 Co111 2.282 . S
N127 C130 1.332 . S
N127 C132 1.332 . S
C128 C129 1.386 . S
C128 C131 1.388 . S
C129 C128 1.386 . S
C129 C130 1.382 . S
C129 H155 0.950 . S
C130 N127 1.332 . S
C130 C129 1.382 . S
C130 H141 0.952 . S
C131 C128 1.388 . S
C131 C132 1.382 . S
C131 H156 0.950 . S
C132 N127 1.332 . S
C132 C131 1.382 . S
C132 H142 0.948 . S
N133 Co111 2.282 . S
N133 C137 1.332 . S
N133 C138 1.332 . S
C134 C135 1.388 . S
C134 C138 1.382 . S
C134 H157 0.950 . S
C135 C134 1.388 . S
C135 C136 1.386 . S
C136 C135 1.386 . S
C136 C137 1.382 . S
C136 H158 0.950 . S
C137 N133 1.332 . S
C137 C136 1.382 . S
C137 H139 0.952 . S
C138 N133 1.332 . S
C138 C134 1.382 . S
C138 H140 0.948 . S
H139 C137 0.952 . S
H140 C138 0.948 . S
H141 C130 0.952 . S
H142 C132 0.948 . S
C143 C109 1.395 . S
C143 C113 1.391 . S
C144 C106 1.389 . S
C144 C126 1.392 . S
C145 C116 1.392 . S
C145 C118 1.389 . S
C146 C121 1.395 . S
C146 C123 1.391 . S
H147 C107 0.951 . S
H148 C108 0.950 . S
H149 C114 0.949 . S
H150 C115 0.950 . S
H151 C119 0.951 . S
H152 C120 0.949 . S
H153 C124 0.949 . S
H154 C125 0.950 . S
H155 C129 0.950 . S
H156 C131 0.950 . S
H157 C134 0.950 . S
H158 C136 0.950 . S
C159 C160 1.443 . S
C159 N163 1.376 . S
C159 C197 1.389 . S
C160 C159 1.443 . S
C160 C161 1.340 . S
C160 H200 0.951 . S
C161 C160 1.340 . S
C161 C162 1.439 . S
C161 H201 0.950 . S
C162 C161 1.439 . S
C162 N163 1.374 . S
C162 C196 1.395 . S
N163 C159 1.376 . S
N163 C162 1.374 . S
N163 Co164 2.008 . S
Co164 N163 2.008 . S
Co164 N165 1.995 . S
Co164 N170 2.008 . S
Co164 N175 1.995 . S
Co164 N180 2.282 . S
Co164 N186 2.282 . S
N165 Co164 1.995 . S
N165 C166 1.376 . S
N165 C169 1.383 . S
C166 N165 1.376 . S
C166 C167 1.446 . S
C166 C196 1.391 . S
C167 C166 1.446 . S
C167 C168 1.339 . S
C167 H202 0.949 . S
C168 C167 1.339 . S
C168 C169 1.439 . S
C168 H203 0.950 . S
C169 N165 1.383 . S
C169 C168 1.439 . S
C169 C198 1.392 . S
N170 Co164 2.008 . S
N170 C171 1.376 . S
N170 C174 1.374 . S
C171 N170 1.376 . S
C171 C172 1.443 . S
C171 C198 1.389 . S
C172 C171 1.443 . S
C172 C173 1.340 . S
C172 H204 0.951 . S
C173 C172 1.340 . S
C173 C174 1.439 . S
C173 H205 0.950 . S
C174 N170 1.374 . S
C174 C173 1.439 . S
C174 C199 1.395 . S
N175 Co164 1.995 . S
N175 C176 1.376 . S
N175 C179 1.383 . S
C176 N175 1.376 . S
C176 C177 1.446 . S
C176 C199 1.391 . S
C177 C176 1.446 . S
C177 C178 1.339 . S
C177 H206 0.949 . S
C178 C177 1.339 . S
C178 C179 1.439 . S
C178 H207 0.950 . S
C179 N175 1.383 . S
C179 C178 1.439 . S
C179 C197 1.392 . S
N180 Co164 2.282 . S
N180 C183 1.332 . S
N180 C185 1.332 . S
C181 C182 1.386 . S
C181 C184 1.388 . S
C182 C181 1.386 . S
C182 C183 1.382 . S
C182 H208 0.950 . S
C183 N180 1.332 . S
C183 C182 1.382 . S
C183 H194 0.952 . S
C184 C181 1.388 . S
C184 C185 1.382 . S
C184 H209 0.950 . S
C185 N180 1.332 . S
C185 C184 1.382 . S
C185 H195 0.948 . S
N186 Co164 2.282 . S
N186 C190 1.332 . S
N186 C191 1.332 . S
C187 C188 1.388 . S
C187 C191 1.382 . S
C187 H210 0.950 . S
C188 C187 1.388 . S
C188 C189 1.386 . S
C189 C188 1.386 . S
C189 C190 1.382 . S
C189 H211 0.950 . S
C190 N186 1.332 . S
C190 C189 1.382 . S
C190 H192 0.952 . S
C191 N186 1.332 . S
C191 C187 1.382 . S
C191 H193 0.948 . S
H192 C190 0.952 . S
H193 C191 0.948 . S
H194 C183 0.952 . S
H195 C185 0.948 . S
C196 C162 1.395 . S
C196 C166 1.391 . S
C197 C159 1.389 . S
C197 C179 1.392 . S
C198 C169 1.392 . S
C198 C171 1.389 . S
C199 C174 1.395 . S
C199 C176 1.391 . S
H200 C160 0.951 . S
H201 C161 0.950 . S
H202 C167 0.949 . S
H203 C168 0.950 . S
H204 C172 0.951 . S
H205 C173 0.950 . S
H206 C177 0.949 . S
H207 C178 0.950 . S
H208 C182 0.950 . S
H209 C184 0.950 . S
H210 C187 0.950 . S
H211 C189 0.950 . S
C212 C213 1.443 . S
C212 N216 1.376 . S
C212 C250 1.389 . S
C213 C212 1.443 . S
C213 C214 1.340 1_554 S
C213 H253 0.961 . S
C214 C213 1.340 1_556 S
C214 C215 1.439 1_556 S
C214 H254 0.950 . S
C215 C214 1.439 1_554 S
C215 N216 1.374 . S
C215 C249 1.395 . S
N216 C212 1.376 . S
N216 C215 1.374 . S
N216 Co217 2.008 . S
Co217 N216 2.008 . S
Co217 N218 1.995 . S
Co217 N223 2.008 . S
Co217 N228 1.995 . S
Co217 N233 2.282 . S
Co217 N239 2.282 . S
N218 Co217 1.995 . S
N218 C219 1.376 . S
N218 C222 1.383 . S
C219 N218 1.376 . S
C219 C220 1.446 . S
C219 C249 1.391 . S
C220 C219 1.446 . S
C220 C221 1.339 . S
C220 H255 0.949 . S
C221 C220 1.339 . S
C221 C222 1.439 . S
C221 H256 0.950 . S
C222 N218 1.383 . S
C222 C221 1.439 . S
C222 C251 1.392 . S
N223 Co217 2.008 . S
N223 C224 1.376 . S
N223 C227 1.374 . S
C224 N223 1.376 . S
C224 C225 1.443 . S
C224 C251 1.389 . S
C225 C224 1.443 . S
C225 C226 1.340 . S
C225 H257 0.951 . S
C226 C225 1.340 . S
C226 C227 1.439 . S
C226 H258 0.950 . S
C227 N223 1.374 . S
C227 C226 1.439 . S
C227 C252 1.395 . S
N228 Co217 1.995 . S
N228 C229 1.376 . S
N228 C232 1.383 . S
C229 N228 1.376 . S
C229 C230 1.446 . S
C229 C252 1.391 . S
C230 C229 1.446 . S
C230 C231 1.339 . S
C230 H259 0.949 . S
C231 C230 1.339 . S
C231 C232 1.439 . S
C231 H260 0.950 . S
C232 N228 1.383 . S
C232 C231 1.439 . S
C232 C250 1.392 . S
N233 Co217 2.282 . S
N233 C236 1.332 . S
N233 C238 1.332 . S
C234 C235 1.386 . S
C234 C237 1.388 . S
C235 C234 1.386 . S
C235 C236 1.382 . S
C235 H261 0.950 . S
C236 N233 1.332 . S
C236 C235 1.382 . S
C236 H247 0.952 . S
C237 C234 1.388 . S
C237 C238 1.382 . S
C237 H262 0.950 . S
C238 N233 1.332 . S
C238 C237 1.382 . S
C238 H248 0.948 . S
N239 Co217 2.282 . S
N239 C243 1.332 . S
N239 C244 1.332 . S
C240 C241 1.388 . S
C240 C244 1.382 . S
C240 H263 0.950 . S
C241 C240 1.388 . S
C241 C242 1.386 . S
C242 C241 1.386 . S
C242 C243 1.382 . S
C242 H264 0.950 1_554 S
C243 N239 1.332 . S
C243 C242 1.382 . S
C243 H245 0.952 . S
C244 N239 1.332 . S
C244 C240 1.382 . S
C244 H246 0.948 . S
H245 C243 0.952 . S
H246 C244 0.948 . S
H247 C236 0.952 . S
H248 C238 0.948 . S
C249 C215 1.395 . S
C249 C219 1.391 . S
C250 C212 1.389 . S
C250 C232 1.392 . S
C251 C222 1.392 . S
C251 C224 1.389 . S
C252 C227 1.395 . S
C252 C229 1.391 . S
H253 C213 0.961 . S
H254 C214 0.950 . S
H255 C220 0.949 . S
H256 C221 0.950 . S
H257 C225 0.951 . S
H258 C226 0.950 . S
H259 C230 0.949 . S
H260 C231 0.950 . S
H261 C235 0.950 . S
H262 C237 0.950 . S
H263 C240 0.950 . S
H264 C242 0.950 1_556 S
C265 C266 1.443 . S
C265 N269 1.376 . S
C265 C303 1.389 . S
C266 C265 1.443 . S
C266 C267 1.340 . S
C266 H306 0.951 . S
C267 C266 1.340 . S
C267 C268 1.439 . S
C267 H307 0.950 . S
C268 C267 1.439 . S
C268 N269 1.374 . S
C268 C302 1.395 . S
N269 C265 1.376 . S
N269 C268 1.374 . S
N269 Co270 2.008 . S
Co270 N269 2.008 . S
Co270 N271 1.995 . S
Co270 N276 2.008 . S
Co270 N281 1.995 . S
Co270 N286 2.282 . S
Co270 N292 2.282 . S
N271 Co270 1.995 . S
N271 C272 1.376 . S
N271 C275 1.383 . S
C272 N271 1.376 . S
C272 C273 1.446 . S
C272 C302 1.391 . S
C273 C272 1.446 . S
C273 C274 1.339 . S
C273 H308 0.949 . S
C274 C273 1.339 . S
C274 C275 1.439 . S
C274 H309 0.950 . S
C275 N271 1.383 . S
C275 C274 1.439 . S
C275 C304 1.392 . S
N276 Co270 2.008 . S
N276 C277 1.376 . S
N276 C280 1.374 . S
C277 N276 1.376 . S
C277 C278 1.443 . S
C277 C304 1.389 . S
C278 C277 1.443 . S
C278 C279 1.340 . S
C278 H310 0.951 . S
C279 C278 1.340 . S
C279 C280 1.439 . S
C279 H311 0.950 . S
C280 N276 1.374 . S
C280 C279 1.439 . S
C280 C305 1.395 . S
N281 Co270 1.995 . S
N281 C282 1.376 . S
N281 C285 1.383 . S
C282 N281 1.376 . S
C282 C283 1.446 . S
C282 C305 1.391 . S
C283 C282 1.446 . S
C283 C284 1.339 . S
C283 H312 0.949 1_556 S
C284 C283 1.339 . S
C284 C285 1.439 . S
C284 H313 0.950 . S
C285 N281 1.383 . S
C285 C284 1.439 . S
C285 C303 1.392 . S
N286 Co270 2.282 . S
N286 C289 1.332 . S
N286 C291 1.332 . S
C287 C288 1.386 . S
C287 C290 1.388 . S
C288 C287 1.386 . S
C288 C289 1.382 . S
C288 H314 0.950 . S
C289 N286 1.332 . S
C289 C288 1.382 . S
C289 H300 0.952 . S
C290 C287 1.388 . S
C290 C291 1.382 . S
C290 H315 0.950 . S
C291 N286 1.332 . S
C291 C290 1.382 . S
C291 H301 0.948 . S
N292 Co270 2.282 . S
N292 C296 1.332 . S
N292 C297 1.332 . S
C293 C294 1.388 . S
C293 C297 1.382 . S
C293 H316 0.950 1_556 S
C294 C293 1.388 . S
C294 C295 1.386 . S
C295 C294 1.386 . S
C295 C296 1.382 . S
C295 H317 0.950 . S
C296 N292 1.332 . S
C296 C295 1.382 . S
C296 H298 0.952 . S
C297 N292 1.332 . S
C297 C293 1.382 . S
C297 H299 0.948 . S
H298 C296 0.952 . S
H299 C297 0.948 . S
H300 C289 0.952 . S
H301 C291 0.948 . S
C302 C268 1.395 . S
C302 C272 1.391 . S
C303 C265 1.389 . S
C303 C285 1.392 . S
C304 C275 1.392 . S
C304 C277 1.389 . S
C305 C280 1.395 . S
C305 C282 1.391 . S
H306 C266 0.951 . S
H307 C267 0.950 . S
H308 C273 0.949 . S
H309 C274 0.950 . S
H310 C278 0.951 . S
H311 C279 0.950 . S
H312 C283 0.949 1_554 S
H313 C284 0.950 . S
H314 C288 0.950 . S
H315 C290 0.950 . S
H316 C293 0.950 1_554 S
H317 C295 0.950 . S
C318 C319 1.443 . S
C318 N322 1.376 . S
C318 C356 1.389 . S
C319 C318 1.443 . S
C319 C320 1.340 1_554 S
C319 H359 0.961 . S
C320 C319 1.340 1_556 S
C320 C321 1.439 1_556 S
C320 H360 0.950 . S
C321 C320 1.439 1_554 S
C321 N322 1.374 . S
C321 C355 1.395 . S
N322 C318 1.376 . S
N322 C321 1.374 . S
N322 Co323 2.008 . S
Co323 N322 2.008 . S
Co323 N324 1.995 . S
Co323 N329 2.008 . S
Co323 N334 1.995 . S
Co323 N339 2.282 . S
Co323 N345 2.282 . S
N324 Co323 1.995 . S
N324 C325 1.376 . S
N324 C328 1.383 . S
C325 N324 1.376 . S
C325 C326 1.446 . S
C325 C355 1.391 . S
C326 C325 1.446 . S
C326 C327 1.339 . S
C326 H361 0.949 . S
C327 C326 1.339 . S
C327 C328 1.439 . S
C327 H362 0.950 . S
C328 N324 1.383 . S
C328 C327 1.439 . S
C328 C357 1.392 . S
N329 Co323 2.008 . S
N329 C330 1.376 . S
N329 C333 1.374 . S
C330 N329 1.376 . S
C330 C331 1.443 . S
C330 C357 1.389 . S
C331 C330 1.443 . S
C331 C332 1.340 . S
C331 H363 0.951 . S
C332 C331 1.340 . S
C332 C333 1.439 . S
C332 H364 0.950 . S
C333 N329 1.374 . S
C333 C332 1.439 . S
C333 C358 1.395 . S
N334 Co323 1.995 . S
N334 C335 1.376 . S
N334 C338 1.383 . S
C335 N334 1.376 . S
C335 C336 1.446 . S
C335 C358 1.391 . S
C336 C335 1.446 . S
C336 C337 1.339 . S
C336 H365 0.949 . S
C337 C336 1.339 . S
C337 C338 1.439 . S
C337 H366 0.950 . S
C338 N334 1.383 . S
C338 C337 1.439 . S
C338 C356 1.392 . S
N339 Co323 2.282 . S
N339 C342 1.332 . S
N339 C344 1.332 . S
C340 C341 1.386 . S
C340 C343 1.388 . S
C341 C340 1.386 . S
C341 C342 1.382 . S
C341 H367 0.950 . S
C342 N339 1.332 . S
C342 C341 1.382 . S
C342 H353 0.952 . S
C343 C340 1.388 . S
C343 C344 1.382 . S
C343 H368 0.950 . S
C344 N339 1.332 . S
C344 C343 1.382 . S
C344 H354 0.948 . S
N345 Co323 2.282 . S
N345 C349 1.332 . S
N345 C350 1.332 . S
C346 C347 1.388 . S
C346 C350 1.382 . S
C346 H369 0.950 . S
C347 C346 1.388 . S
C347 C348 1.386 . S
C348 C347 1.386 . S
C348 C349 1.382 . S
C348 H370 0.950 1_554 S
C349 N345 1.332 . S
C349 C348 1.382 . S
C349 H351 0.952 . S
C350 N345 1.332 . S
C350 C346 1.382 . S
C350 H352 0.948 . S
H351 C349 0.952 . S
H352 C350 0.948 . S
H353 C342 0.952 . S
H354 C344 0.948 . S
C355 C321 1.395 . S
C355 C325 1.391 . S
C356 C318 1.389 . S
C356 C338 1.392 . S
C357 C328 1.392 . S
C357 C330 1.389 . S
C358 C333 1.395 . S
C358 C335 1.391 . S
H359 C319 0.961 . S
H360 C320 0.950 . S
H361 C326 0.949 . S
H362 C327 0.950 . S
H363 C331 0.951 . S
H364 C332 0.950 . S
H365 C336 0.949 . S
H366 C337 0.950 . S
H367 C341 0.950 . S
H368 C343 0.950 . S
H369 C346 0.950 . S
H370 C348 0.950 1_556 S
C371 C372 1.443 . S
C371 N375 1.376 . S
C371 C409 1.389 . S
C372 C371 1.443 . S
C372 C373 1.340 . S
C372 H412 0.951 . S
C373 C372 1.340 . S
C373 C374 1.439 . S
C373 H413 0.950 . S
C374 C373 1.439 . S
C374 N375 1.374 . S
C374 C408 1.395 . S
N375 C371 1.376 . S
N375 C374 1.374 . S
N375 Co376 2.008 . S
Co376 N375 2.008 . S
Co376 N377 1.995 . S
Co376 N382 2.008 . S
Co376 N387 1.995 . S
Co376 N392 2.282 . S
Co376 N398 2.282 . S
N377 Co376 1.995 . S
N377 C378 1.376 . S
N377 C381 1.383 . S
C378 N377 1.376 . S
C378 C379 1.446 . S
C378 C408 1.391 . S
C379 C378 1.446 . S
C379 C380 1.339 . S
C379 H414 0.949 . S
C380 C379 1.339 . S
C380 C381 1.439 . S
C380 H415 0.950 . S
C381 N377 1.383 . S
C381 C380 1.439 . S
C381 C410 1.392 . S
N382 Co376 2.008 . S
N382 C383 1.376 . S
N382 C386 1.374 . S
C383 N382 1.376 . S
C383 C384 1.443 . S
C383 C410 1.389 . S
C384 C383 1.443 . S
C384 C385 1.340 . S
C384 H416 0.951 . S
C385 C384 1.340 . S
C385 C386 1.439 . S
C385 H417 0.950 . S
C386 N382 1.374 . S
C386 C385 1.439 . S
C386 C411 1.395 . S
N387 Co376 1.995 . S
N387 C388 1.376 . S
N387 C391 1.383 . S
C388 N387 1.376 . S
C388 C389 1.446 . S
C388 C411 1.391 . S
C389 C388 1.446 . S
C389 C390 1.339 . S
C389 H418 0.949 1_556 S
C390 C389 1.339 . S
C390 C391 1.439 . S
C390 H419 0.950 . S
C391 N387 1.383 . S
C391 C390 1.439 . S
C391 C409 1.392 . S
N392 Co376 2.282 . S
N392 C395 1.332 . S
N392 C397 1.332 . S
C393 C394 1.386 . S
C393 C396 1.388 . S
C394 C393 1.386 . S
C394 C395 1.382 . S
C394 H420 0.950 . S
C395 N392 1.332 . S
C395 C394 1.382 . S
C395 H406 0.952 . S
C396 C393 1.388 . S
C396 C397 1.382 . S
C396 H421 0.950 . S
C397 N392 1.332 . S
C397 C396 1.382 . S
C397 H407 0.948 . S
N398 Co376 2.282 . S
N398 C402 1.332 . S
N398 C403 1.332 . S
C399 C400 1.388 . S
C399 C403 1.382 . S
C399 H422 0.950 1_556 S
C400 C399 1.388 . S
C400 C401 1.386 . S
C401 C400 1.386 . S
C401 C402 1.382 . S
C401 H423 0.950 . S
C402 N398 1.332 . S
C402 C401 1.382 . S
C402 H404 0.952 . S
C403 N398 1.332 . S
C403 C399 1.382 . S
C403 H405 0.948 . S
H404 C402 0.952 . S
H405 C403 0.948 . S
H406 C395 0.952 . S
H407 C397 0.948 . S
C408 C374 1.395 . S
C408 C378 1.391 . S
C409 C371 1.389 . S
C409 C391 1.392 . S
C410 C381 1.392 . S
C410 C383 1.389 . S
C411 C386 1.395 . S
C411 C388 1.391 . S
H412 C372 0.951 . S
H413 C373 0.950 . S
H414 C379 0.949 . S
H415 C380 0.950 . S
H416 C384 0.951 . S
H417 C385 0.950 . S
H418 C389 0.949 1_554 S
H419 C390 0.950 . S
H420 C394 0.950 . S
H421 C396 0.950 . S
H422 C399 0.950 1_554 S
H423 C401 0.950 . S
C424 C425 1.443 . S
C424 N428 1.376 . S
C424 C462 1.389 . S
C425 C424 1.443 . S
C425 C426 1.340 . S
C425 H465 0.951 . S
C426 C425 1.340 . S
C426 C427 1.439 . S
C426 H466 0.950 . S
C427 C426 1.439 . S
C427 N428 1.374 . S
C427 C461 1.395 . S
N428 C424 1.376 . S
N428 C427 1.374 . S
N428 Co429 2.008 . S
Co429 N428 2.008 . S
Co429 N430 1.995 . S
Co429 N435 2.008 . S
Co429 N440 1.995 . S
Co429 N445 2.282 . S
Co429 N451 2.282 . S
N430 Co429 1.995 . S
N430 C431 1.376 . S
N430 C434 1.383 . S
C431 N430 1.376 . S
C431 C432 1.446 . S
C431 C461 1.391 . S
C432 C431 1.446 . S
C432 C433 1.339 . S
C432 H467 0.949 . S
C433 C432 1.339 . S
C433 C434 1.439 . S
C433 H468 0.950 . S
C434 N430 1.383 . S
C434 C433 1.439 . S
C434 C463 1.392 . S
N435 Co429 2.008 . S
N435 C436 1.376 . S
N435 C439 1.374 . S
C436 N435 1.376 . S
C436 C437 1.443 . S
C436 C463 1.389 . S
C437 C436 1.443 . S
C437 C438 1.340 . S
C437 H469 0.951 . S
C438 C437 1.340 . S
C438 C439 1.439 . S
C438 H470 0.950 . S
C439 N435 1.374 . S
C439 C438 1.439 . S
C439 C464 1.395 . S
N440 Co429 1.995 . S
N440 C441 1.376 . S
N440 C444 1.383 . S
C441 N440 1.376 . S
C441 C442 1.446 . S
C441 C464 1.391 . S
C442 C441 1.446 . S
C442 C443 1.339 . S
C442 H471 0.949 . S
C443 C442 1.339 . S
C443 C444 1.439 . S
C443 H472 0.950 . S
C444 N440 1.383 . S
C444 C443 1.439 . S
C444 C462 1.392 . S
N445 Co429 2.282 . S
N445 C448 1.332 . S
N445 C450 1.332 . S
C446 C447 1.386 . S
C446 C449 1.388 . S
C447 C446 1.386 . S
C447 C448 1.382 . S
C447 H473 0.950 . S
C448 N445 1.332 . S
C448 C447 1.382 . S
C448 H459 0.952 . S
C449 C446 1.388 . S
C449 C450 1.382 . S
C449 H474 0.950 . S
C450 N445 1.332 . S
C450 C449 1.382 . S
C450 H460 0.948 . S
N451 Co429 2.282 . S
N451 C455 1.332 . S
N451 C456 1.332 . S
C452 C453 1.388 . S
C452 C456 1.382 . S
C452 H475 0.950 . S
C453 C452 1.388 . S
C453 C454 1.386 . S
C454 C453 1.386 . S
C454 C455 1.382 . S
C454 H476 0.950 . S
C455 N451 1.332 . S
C455 C454 1.382 . S
C455 H457 0.952 . S
C456 N451 1.332 . S
C456 C452 1.382 . S
C456 H458 0.948 . S
H457 C455 0.952 . S
H458 C456 0.948 . S
H459 C448 0.952 . S
H460 C450 0.948 . S
C461 C427 1.395 . S
C461 C431 1.391 . S
C462 C424 1.389 . S
C462 C444 1.392 . S
C463 C434 1.392 . S
C463 C436 1.389 . S
C464 C439 1.395 . S
C464 C441 1.391 . S
H465 C425 0.951 . S
H466 C426 0.950 . S
H467 C432 0.949 . S
H468 C433 0.950 . S
H469 C437 0.951 . S
H470 C438 0.950 . S
H471 C442 0.949 . S
H472 C443 0.950 . S
H473 C447 0.950 . S
H474 C449 0.950 . S
H475 C452 0.950 . S
H476 C454 0.950 . S
C477 C478 1.443 . S
C477 N481 1.376 . S
C477 C515 1.389 . S
C478 C477 1.443 . S
C478 C479 1.340 . S
C478 H518 0.951 . S
C479 C478 1.340 . S
C479 C480 1.439 . S
C479 H519 0.950 . S
C480 C479 1.439 . S
C480 N481 1.374 . S
C480 C514 1.395 . S
N481 C477 1.376 . S
N481 C480 1.374 . S
N481 Co482 2.008 . S
Co482 N481 2.008 . S
Co482 N483 1.995 . S
Co482 N488 2.008 . S
Co482 N493 1.995 . S
Co482 N498 2.282 . S
Co482 N504 2.282 . S
N483 Co482 1.995 . S
N483 C484 1.376 . S
N483 C487 1.383 . S
C484 N483 1.376 . S
C484 C485 1.446 . S
C484 C514 1.391 . S
C485 C484 1.446 . S
C485 C486 1.339 . S
C485 H520 0.949 . S
C486 C485 1.339 . S
C486 C487 1.439 . S
C486 H521 0.950 . S
C487 N483 1.383 . S
C487 C486 1.439 . S
C487 C516 1.392 . S
N488 Co482 2.008 . S
N488 C489 1.376 . S
N488 C492 1.374 . S
C489 N488 1.376 . S
C489 C490 1.443 . S
C489 C516 1.389 . S
C490 C489 1.443 . S
C490 C491 1.340 . S
C490 H522 0.951 . S
C491 C490 1.340 . S
C491 C492 1.439 . S
C491 H523 0.950 . S
C492 N488 1.374 . S
C492 C491 1.439 . S
C492 C517 1.395 . S
N493 Co482 1.995 . S
N493 C494 1.376 . S
N493 C497 1.383 . S
C494 N493 1.376 . S
C494 C495 1.446 . S
C494 C517 1.391 . S
C495 C494 1.446 . S
C495 C496 1.339 . S
C495 H524 0.949 . S
C496 C495 1.339 . S
C496 C497 1.439 . S
C496 H525 0.950 . S
C497 N493 1.383 . S
C497 C496 1.439 . S
C497 C515 1.392 . S
N498 Co482 2.282 . S
N498 C501 1.332 . S
N498 C503 1.332 . S
C499 C500 1.386 . S
C499 C502 1.388 . S
C500 C499 1.386 . S
C500 C501 1.382 . S
C500 H526 0.950 . S
C501 N498 1.332 . S
C501 C500 1.382 . S
C501 H512 0.952 . S
C502 C499 1.388 . S
C502 C503 1.382 . S
C502 H527 0.950 . S
C503 N498 1.332 . S
C503 C502 1.382 . S
C503 H513 0.948 . S
N504 Co482 2.282 . S
N504 C508 1.332 . S
N504 C509 1.332 . S
C505 C506 1.388 . S
C505 C509 1.382 . S
C505 H528 0.950 . S
C506 C505 1.388 . S
C506 C507 1.386 . S
C507 C506 1.386 . S
C507 C508 1.382 . S
C507 H529 0.950 . S
C508 N504 1.332 . S
C508 C507 1.382 . S
C508 H510 0.952 . S
C509 N504 1.332 . S
C509 C505 1.382 . S
C509 H511 0.948 . S
H510 C508 0.952 . S
H511 C509 0.948 . S
H512 C501 0.952 . S
H513 C503 0.948 . S
C514 C480 1.395 . S
C514 C484 1.391 . S
C515 C477 1.389 . S
C515 C497 1.392 . S
C516 C487 1.392 . S
C516 C489 1.389 . S
C517 C492 1.395 . S
C517 C494 1.391 . S
H518 C478 0.951 . S
H519 C479 0.950 . S
H520 C485 0.949 . S
H521 C486 0.950 . S
H522 C490 0.951 . S
H523 C491 0.950 . S
H524 C495 0.949 . S
H525 C496 0.950 . S
H526 C500 0.950 . S
H527 C502 0.950 . S
H528 C505 0.950 . S
H529 C507 0.950 . S
C530 C531 1.443 . S
C530 N534 1.376 . S
C530 C568 1.389 . S
C531 C530 1.443 . S
C531 C532 1.340 . S
C531 H571 0.951 . S
C532 C531 1.340 . S
C532 C533 1.439 . S
C532 H572 0.950 . S
C533 C532 1.439 . S
C533 N534 1.374 . S
C533 C567 1.395 . S
N534 C530 1.376 . S
N534 C533 1.374 . S
N534 Co535 2.008 . S
Co535 N534 2.008 . S
Co535 N536 1.995 . S
Co535 N541 2.008 . S
Co535 N546 1.995 . S
Co535 N551 2.282 . S
Co535 N557 2.282 . S
N536 Co535 1.995 . S
N536 C537 1.376 . S
N536 C540 1.383 . S
C537 N536 1.376 . S
C537 C538 1.446 . S
C537 C567 1.391 . S
C538 C537 1.446 . S
C538 C539 1.339 . S
C538 H573 0.949 . S
C539 C538 1.339 . S
C539 C540 1.439 . S
C539 H574 0.950 . S
C540 N536 1.383 . S
C540 C539 1.439 . S
C540 C569 1.392 . S
N541 Co535 2.008 . S
N541 C542 1.376 . S
N541 C545 1.374 . S
C542 N541 1.376 . S
C542 C543 1.443 . S
C542 C569 1.389 . S
C543 C542 1.443 . S
C543 C544 1.340 . S
C543 H575 0.951 . S
C544 C543 1.340 . S
C544 C545 1.439 . S
C544 H576 0.950 . S
C545 N541 1.374 . S
C545 C544 1.439 . S
C545 C570 1.395 . S
N546 Co535 1.995 . S
N546 C547 1.376 . S
N546 C550 1.383 . S
C547 N546 1.376 . S
C547 C548 1.446 . S
C547 C570 1.391 . S
C548 C547 1.446 . S
C548 C549 1.339 . S
C548 H577 0.949 . S
C549 C548 1.339 . S
C549 C550 1.439 . S
C549 H578 0.950 . S
C550 N546 1.383 . S
C550 C549 1.439 . S
C550 C568 1.392 . S
N551 Co535 2.282 . S
N551 C554 1.332 . S
N551 C556 1.332 . S
C552 C553 1.386 . S
C552 C555 1.388 . S
C553 C552 1.386 . S
C553 C554 1.382 . S
C553 H579 0.950 . S
C554 N551 1.332 . S
C554 C553 1.382 . S
C554 H565 0.952 . S
C555 C552 1.388 . S
C555 C556 1.382 . S
C555 H580 0.950 . S
C556 N551 1.332 . S
C556 C555 1.382 . S
C556 H566 0.948 . S
N557 Co535 2.282 . S
N557 C561 1.332 . S
N557 C562 1.332 . S
C558 C559 1.388 . S
C558 C562 1.382 . S
C558 H581 0.950 . S
C559 C558 1.388 . S
C559 C560 1.386 . S
C560 C559 1.386 . S
C560 C561 1.382 . S
C560 H582 0.950 . S
C561 N557 1.332 . S
C561 C560 1.382 . S
C561 H563 0.952 . S
C562 N557 1.332 . S
C562 C558 1.382 . S
C562 H564 0.948 . S
H563 C561 0.952 . S
H564 C562 0.948 . S
H565 C554 0.952 . S
H566 C556 0.948 . S
C567 C533 1.395 . S
C567 C537 1.391 . S
C568 C530 1.389 . S
C568 C550 1.392 . S
C569 C540 1.392 . S
C569 C542 1.389 . S
C570 C545 1.395 . S
C570 C547 1.391 . S
H571 C531 0.951 . S
H572 C532 0.950 . S
H573 C538 0.949 . S
H574 C539 0.950 . S
H575 C543 0.951 . S
H576 C544 0.950 . S
H577 C548 0.949 . S
H578 C549 0.950 . S
H579 C553 0.950 . S
H580 C555 0.950 . S
H581 C558 0.950 . S
H582 C560 0.950 . S
C583 C584 1.443 . S
C583 N587 1.376 . S
C583 C621 1.389 . S
C584 C583 1.443 . S
C584 C585 1.340 . S
C584 H624 0.951 . S
C585 C584 1.340 . S
C585 C586 1.439 . S
C585 H625 0.950 . S
C586 C585 1.439 . S
C586 N587 1.374 . S
C586 C620 1.395 . S
N587 C583 1.376 . S
N587 C586 1.374 . S
N587 Co588 2.008 . S
Co588 N587 2.008 . S
Co588 N589 1.995 . S
Co588 N594 2.008 . S
Co588 N599 1.995 . S
Co588 N604 2.282 . S
Co588 N610 2.282 . S
N589 Co588 1.995 . S
N589 C590 1.376 . S
N589 C593 1.383 . S
C590 N589 1.376 . S
C590 C591 1.446 . S
C590 C620 1.391 . S
C591 C590 1.446 . S
C591 C592 1.339 . S
C591 H626 0.949 . S
C592 C591 1.339 . S
C592 C593 1.439 . S
C592 H627 0.950 . S
C593 N589 1.383 . S
C593 C592 1.439 . S
C593 C622 1.392 . S
N594 Co588 2.008 . S
N594 C595 1.376 . S
N594 C598 1.374 . S
C595 N594 1.376 . S
C595 C596 1.443 . S
C595 C622 1.389 . S
C596 C595 1.443 . S
C596 C597 1.340 . S
C596 H628 0.951 . S
C597 C596 1.340 . S
C597 C598 1.439 . S
C597 H629 0.950 . S
C598 N594 1.374 . S
C598 C597 1.439 . S
C598 C623 1.395 . S
N599 Co588 1.995 . S
N599 C600 1.376 . S
N599 C603 1.383 . S
C600 N599 1.376 . S
C600 C601 1.446 . S
C600 C623 1.391 . S
C601 C600 1.446 . S
C601 C602 1.339 . S
C601 H630 0.949 . S
C602 C601 1.339 . S
C602 C603 1.439 . S
C602 H631 0.950 . S
C603 N599 1.383 . S
C603 C602 1.439 . S
C603 C621 1.392 . S
N604 Co588 2.282 . S
N604 C607 1.332 . S
N604 C609 1.332 . S
C605 C606 1.386 . S
C605 C608 1.388 . S
C606 C605 1.386 . S
C606 C607 1.382 . S
C606 H632 0.950 . S
C607 N604 1.332 . S
C607 C606 1.382 . S
C607 H618 0.952 . S
C608 C605 1.388 . S
C608 C609 1.382 . S
C608 H633 0.950 . S
C609 N604 1.332 . S
C609 C608 1.382 . S
C609 H619 0.948 . S
N610 Co588 2.282 . S
N610 C614 1.332 . S
N610 C615 1.332 . S
C611 C612 1.388 . S
C611 C615 1.382 . S
C611 H634 0.950 . S
C612 C611 1.388 . S
C612 C613 1.386 . S
C613 C612 1.386 . S
C613 C614 1.382 . S
C613 H635 0.950 . S
C614 N610 1.332 . S
C614 C613 1.382 . S
C614 H616 0.952 . S
C615 N610 1.332 . S
C615 C611 1.382 . S
C615 H617 0.948 . S
H616 C614 0.952 . S
H617 C615 0.948 . S
H618 C607 0.952 . S
H619 C609 0.948 . S
C620 C586 1.395 . S
C620 C590 1.391 . S
C621 C583 1.389 . S
C621 C603 1.392 . S
C622 C593 1.392 . S
C622 C595 1.389 . S
C623 C598 1.395 . S
C623 C600 1.391 . S
H624 C584 0.951 . S
H625 C585 0.950 . S
H626 C591 0.949 . S
H627 C592 0.950 . S
H628 C596 0.951 . S
H629 C597 0.950 . S
H630 C601 0.949 . S
H631 C602 0.950 . S
H632 C606 0.950 . S
H633 C608 0.950 . S
H634 C611 0.950 . S
H635 C613 0.950 . S
C636 C637 1.443 . S
C636 N640 1.376 . S
C636 C674 1.389 . S
C637 C636 1.443 . S
C637 C638 1.340 . S
C637 H677 0.951 . S
C638 C637 1.340 . S
C638 C639 1.439 . S
C638 H678 0.950 . S
C639 C638 1.439 . S
C639 N640 1.374 . S
C639 C673 1.395 . S
N640 C636 1.376 . S
N640 C639 1.374 . S
N640 Co641 2.008 . S
Co641 N640 2.008 . S
Co641 N642 1.995 . S
Co641 N647 2.008 . S
Co641 N652 1.995 . S
Co641 N657 2.282 . S
Co641 N663 2.282 . S
N642 Co641 1.995 . S
N642 C643 1.376 . S
N642 C646 1.383 . S
C643 N642 1.376 . S
C643 C644 1.446 . S
C643 C673 1.391 . S
C644 C643 1.446 . S
C644 C645 1.339 . S
C644 H679 0.949 . S
C645 C644 1.339 . S
C645 C646 1.439 . S
C645 H680 0.950 . S
C646 N642 1.383 . S
C646 C645 1.439 . S
C646 C675 1.392 . S
N647 Co641 2.008 . S
N647 C648 1.376 . S
N647 C651 1.374 . S
C648 N647 1.376 . S
C648 C649 1.443 . S
C648 C675 1.389 . S
C649 C648 1.443 . S
C649 C650 1.340 . S
C649 H681 0.951 . S
C650 C649 1.340 . S
C650 C651 1.439 . S
C650 H682 0.950 . S
C651 N647 1.374 . S
C651 C650 1.439 . S
C651 C676 1.395 . S
N652 Co641 1.995 . S
N652 C653 1.376 . S
N652 C656 1.383 . S
C653 N652 1.376 . S
C653 C654 1.446 . S
C653 C676 1.391 . S
C654 C653 1.446 . S
C654 C655 1.339 . S
C654 H683 0.949 . S
C655 C654 1.339 . S
C655 C656 1.439 . S
C655 H684 0.950 . S
C656 N652 1.383 . S
C656 C655 1.439 . S
C656 C674 1.392 . S
N657 Co641 2.282 . S
N657 C660 1.332 . S
N657 C662 1.332 . S
C658 C659 1.386 . S
C658 C661 1.388 . S
C659 C658 1.386 . S
C659 C660 1.382 . S
C659 H685 0.950 . S
C660 N657 1.332 . S
C660 C659 1.382 . S
C660 H671 0.952 . S
C661 C658 1.388 . S
C661 C662 1.382 . S
C661 H686 0.950 . S
C662 N657 1.332 . S
C662 C661 1.382 . S
C662 H672 0.948 . S
N663 Co641 2.282 . S
N663 C667 1.332 . S
N663 C668 1.332 . S
C664 C665 1.388 . S
C664 C668 1.382 . S
C664 H687 0.950 . S
C665 C664 1.388 . S
C665 C666 1.386 . S
C666 C665 1.386 . S
C666 C667 1.382 . S
C666 H688 0.950 . S
C667 N663 1.332 . S
C667 C666 1.382 . S
C667 H669 0.952 . S
C668 N663 1.332 . S
C668 C664 1.382 . S
C668 H670 0.948 . S
H669 C667 0.952 . S
H670 C668 0.948 . S
H671 C660 0.952 . S
H672 C662 0.948 . S
C673 C639 1.395 . S
C673 C643 1.391 . S
C674 C636 1.389 . S
C674 C656 1.392 . S
C675 C646 1.392 . S
C675 C648 1.389 . S
C676 C651 1.395 . S
C676 C653 1.391 . S
H677 C637 0.951 . S
H678 C638 0.950 . S
H679 C644 0.949 . S
H680 C645 0.950 . S
H681 C649 0.951 . S
H682 C650 0.950 . S
H683 C654 0.949 . S
H684 C655 0.950 . S
H685 C659 0.950 . S
H686 C661 0.950 . S
H687 C664 0.950 . S
H688 C666 0.950 . S
C689 C690 1.443 . S
C689 N693 1.376 . S
C689 C727 1.389 . S
C690 C689 1.443 . S
C690 C691 1.340 . S
C690 H730 0.951 . S
C691 C690 1.340 . S
C691 C692 1.439 . S
C691 H731 0.950 . S
C692 C691 1.439 . S
C692 N693 1.374 . S
C692 C726 1.395 . S
N693 C689 1.376 . S
N693 C692 1.374 . S
N693 Co694 2.008 . S
Co694 N693 2.008 . S
Co694 N695 1.995 . S
Co694 N700 2.008 . S
Co694 N705 1.995 . S
Co694 N710 2.282 . S
Co694 N716 2.282 . S
N695 Co694 1.995 . S
N695 C696 1.376 . S
N695 C699 1.383 . S
C696 N695 1.376 . S
C696 C697 1.446 . S
C696 C726 1.391 . S
C697 C696 1.446 . S
C697 C698 1.339 . S
C697 H732 0.949 . S
C698 C697 1.339 . S
C698 C699 1.439 . S
C698 H733 0.950 . S
C699 N695 1.383 . S
C699 C698 1.439 . S
C699 C728 1.392 . S
N700 Co694 2.008 . S
N700 C701 1.376 . S
N700 C704 1.374 . S
C701 N700 1.376 . S
C701 C702 1.443 . S
C701 C728 1.389 . S
C702 C701 1.443 . S
C702 C703 1.340 . S
C702 H734 0.951 . S
C703 C702 1.340 . S
C703 C704 1.439 . S
C703 H735 0.950 . S
C704 N700 1.374 . S
C704 C703 1.439 . S
C704 C729 1.395 . S
N705 Co694 1.995 . S
N705 C706 1.376 . S
N705 C709 1.383 . S
C706 N705 1.376 . S
C706 C707 1.446 . S
C706 C729 1.391 . S
C707 C706 1.446 . S
C707 C708 1.339 . S
C707 H736 0.949 . S
C708 C707 1.339 . S
C708 C709 1.439 . S
C708 H737 0.950 . S
C709 N705 1.383 . S
C709 C708 1.439 . S
C709 C727 1.392 . S
N710 Co694 2.282 . S
N710 C713 1.332 . S
N710 C715 1.332 . S
C711 C712 1.386 . S
C711 C714 1.388 . S
C712 C711 1.386 . S
C712 C713 1.382 . S
C712 H738 0.950 . S
C713 N710 1.332 . S
C713 C712 1.382 . S
C713 H724 0.952 . S
C714 C711 1.388 . S
C714 C715 1.382 . S
C714 H739 0.950 . S
C715 N710 1.332 . S
C715 C714 1.382 . S
C715 H725 0.948 . S
N716 Co694 2.282 . S
N716 C720 1.332 . S
N716 C721 1.332 . S
C717 C718 1.388 . S
C717 C721 1.382 . S
C717 H740 0.950 . S
C718 C717 1.388 . S
C718 C719 1.386 . S
C719 C718 1.386 . S
C719 C720 1.382 . S
C719 H741 0.950 . S
C720 N716 1.332 . S
C720 C719 1.382 . S
C720 H722 0.952 . S
C721 N716 1.332 . S
C721 C717 1.382 . S
C721 H723 0.948 . S
H722 C720 0.952 . S
H723 C721 0.948 . S
H724 C713 0.952 . S
H725 C715 0.948 . S
C726 C692 1.395 . S
C726 C696 1.391 . S
C727 C689 1.389 . S
C727 C709 1.392 . S
C728 C699 1.392 . S
C728 C701 1.389 . S
C729 C704 1.395 . S
C729 C706 1.391 . S
H730 C690 0.951 . S
H731 C691 0.950 . S
H732 C697 0.949 . S
H733 C698 0.950 . S
H734 C702 0.951 . S
H735 C703 0.950 . S
H736 C707 0.949 . S
H737 C708 0.950 . S
H738 C712 0.950 . S
H739 C714 0.950 . S
H740 C717 0.950 . S
H741 C719 0.950 . S
C742 C743 1.443 . S
C742 N746 1.376 . S
C742 C780 1.389 . S
C743 C742 1.443 . S
C743 C744 1.340 . S
C743 H783 0.951 . S
C744 C743 1.340 . S
C744 C745 1.439 . S
C744 H784 0.950 . S
C745 C744 1.439 . S
C745 N746 1.374 . S
C745 C779 1.395 . S
N746 C742 1.376 . S
N746 C745 1.374 . S
N746 Co747 2.008 . S
Co747 N746 2.008 . S
Co747 N748 1.995 . S
Co747 N753 2.008 . S
Co747 N758 1.995 . S
Co747 N763 2.282 . S
Co747 N769 2.282 . S
N748 Co747 1.995 . S
N748 C749 1.376 . S
N748 C752 1.383 . S
C749 N748 1.376 . S
C749 C750 1.446 . S
C749 C779 1.391 . S
C750 C749 1.446 . S
C750 C751 1.339 . S
C750 H785 0.949 . S
C751 C750 1.339 . S
C751 C752 1.439 . S
C751 H786 0.950 . S
C752 N748 1.383 . S
C752 C751 1.439 . S
C752 C781 1.392 . S
N753 Co747 2.008 . S
N753 C754 1.376 . S
N753 C757 1.374 . S
C754 N753 1.376 . S
C754 C755 1.443 . S
C754 C781 1.389 . S
C755 C754 1.443 . S
C755 C756 1.340 . S
C755 H787 0.951 . S
C756 C755 1.340 . S
C756 C757 1.439 . S
C756 H788 0.950 . S
C757 N753 1.374 . S
C757 C756 1.439 . S
C757 C782 1.395 . S
N758 Co747 1.995 . S
N758 C759 1.376 . S
N758 C762 1.383 . S
C759 N758 1.376 . S
C759 C760 1.446 . S
C759 C782 1.391 . S
C760 C759 1.446 . S
C760 C761 1.339 . S
C760 H789 0.949 . S
C761 C760 1.339 . S
C761 C762 1.439 . S
C761 H790 0.950 . S
C762 N758 1.383 . S
C762 C761 1.439 . S
C762 C780 1.392 . S
N763 Co747 2.282 . S
N763 C766 1.332 . S
N763 C768 1.332 . S
C764 C765 1.386 . S
C764 C767 1.388 . S
C765 C764 1.386 . S
C765 C766 1.382 . S
C765 H791 0.950 . S
C766 N763 1.332 . S
C766 C765 1.382 . S
C766 H777 0.952 . S
C767 C764 1.388 . S
C767 C768 1.382 . S
C767 H792 0.950 . S
C768 N763 1.332 . S
C768 C767 1.382 . S
C768 H778 0.948 . S
N769 Co747 2.282 . S
N769 C773 1.332 . S
N769 C774 1.332 . S
C770 C771 1.388 . S
C770 C774 1.382 . S
C770 H793 0.950 . S
C771 C770 1.388 . S
C771 C772 1.386 . S
C772 C771 1.386 . S
C772 C773 1.382 . S
C772 H794 0.950 . S
C773 N769 1.332 . S
C773 C772 1.382 . S
C773 H775 0.952 . S
C774 N769 1.332 . S
C774 C770 1.382 . S
C774 H776 0.948 . S
H775 C773 0.952 . S
H776 C774 0.948 . S
H777 C766 0.952 . S
H778 C768 0.948 . S
C779 C745 1.395 . S
C779 C749 1.391 . S
C780 C742 1.389 . S
C780 C762 1.392 . S
C781 C752 1.392 . S
C781 C754 1.389 . S
C782 C757 1.395 . S
C782 C759 1.391 . S
H783 C743 0.951 . S
H784 C744 0.950 . S
H785 C750 0.949 . S
H786 C751 0.950 . S
H787 C755 0.951 . S
H788 C756 0.950 . S
H789 C760 0.949 . S
H790 C761 0.950 . S
H791 C765 0.950 . S
H792 C767 0.950 . S
H793 C770 0.950 . S
H794 C772 0.950 . S
C795 C796 1.443 . S
C795 N799 1.376 . S
C795 C833 1.389 . S
C796 C795 1.443 . S
C796 C797 1.340 . S
C796 H836 0.951 . S
C797 C796 1.340 . S
C797 C798 1.439 . S
C797 H837 0.950 . S
C798 C797 1.439 . S
C798 N799 1.374 . S
C798 C832 1.395 . S
N799 C795 1.376 . S
N799 C798 1.374 . S
N799 Co800 2.008 . S
Co800 N799 2.008 . S
Co800 N801 1.995 . S
Co800 N806 2.008 . S
Co800 N811 1.995 . S
Co800 N816 2.282 . S
Co800 N822 2.282 . S
N801 Co800 1.995 . S
N801 C802 1.376 . S
N801 C805 1.383 . S
C802 N801 1.376 . S
C802 C803 1.446 . S
C802 C832 1.391 . S
C803 C802 1.446 . S
C803 C804 1.339 . S
C803 H838 0.949 . S
C804 C803 1.339 . S
C804 C805 1.439 . S
C804 H839 0.950 . S
C805 N801 1.383 . S
C805 C804 1.439 . S
C805 C834 1.392 . S
N806 Co800 2.008 . S
N806 C807 1.376 . S
N806 C810 1.374 . S
C807 N806 1.376 . S
C807 C808 1.443 . S
C807 C834 1.389 . S
C808 C807 1.443 . S
C808 C809 1.340 . S
C808 H840 0.951 . S
C809 C808 1.340 . S
C809 C810 1.439 . S
C809 H841 0.950 . S
C810 N806 1.374 . S
C810 C809 1.439 . S
C810 C835 1.395 . S
N811 Co800 1.995 . S
N811 C812 1.376 . S
N811 C815 1.383 . S
C812 N811 1.376 . S
C812 C813 1.446 . S
C812 C835 1.391 . S
C813 C812 1.446 . S
C813 C814 1.339 . S
C813 H842 0.949 . S
C814 C813 1.339 . S
C814 C815 1.439 . S
C814 H843 0.950 . S
C815 N811 1.383 . S
C815 C814 1.439 . S
C815 C833 1.392 . S
N816 Co800 2.282 . S
N816 C819 1.332 . S
N816 C821 1.332 . S
C817 C818 1.386 . S
C817 C820 1.388 . S
C818 C817 1.386 . S
C818 C819 1.382 . S
C818 H844 0.950 . S
C819 N816 1.332 . S
C819 C818 1.382 . S
C819 H830 0.952 . S
C820 C817 1.388 . S
C820 C821 1.382 . S
C820 H845 0.950 . S
C821 N816 1.332 . S
C821 C820 1.382 . S
C821 H831 0.948 . S
N822 Co800 2.282 . S
N822 C826 1.332 . S
N822 C827 1.332 . S
C823 C824 1.388 . S
C823 C827 1.382 . S
C823 H846 0.950 . S
C824 C823 1.388 . S
C824 C825 1.386 . S
C825 C824 1.386 . S
C825 C826 1.382 . S
C825 H847 0.950 . S
C826 N822 1.332 . S
C826 C825 1.382 . S
C826 H828 0.952 . S
C827 N822 1.332 . S
C827 C823 1.382 . S
C827 H829 0.948 . S
H828 C826 0.952 . S
H829 C827 0.948 . S
H830 C819 0.952 . S
H831 C821 0.948 . S
C832 C798 1.395 . S
C832 C802 1.391 . S
C833 C795 1.389 . S
C833 C815 1.392 . S
C834 C805 1.392 . S
C834 C807 1.389 . S
C835 C810 1.395 . S
C835 C812 1.391 . S
H836 C796 0.951 . S
H837 C797 0.950 . S
H838 C803 0.949 . S
H839 C804 0.950 . S
H840 C808 0.951 . S
H841 C809 0.950 . S
H842 C813 0.949 . S
H843 C814 0.950 . S
H844 C818 0.950 . S
H845 C820 0.950 . S
H846 C823 0.950 . S
H847 C825 0.950 . S
H848 C856 0.929 . S
H849 C858 0.930 . S
H850 C860 0.930 . S
H851 C863 0.929 . S
H852 C866 0.930 . S
H853 C868 0.960 . S
H854 C868 0.960 . S
H855 C868 0.960 . S
C856 H848 0.929 . S
C856 C857 1.377 . S
C856 C858 1.384 . S
C857 C856 1.377 . S
C857 C863 1.390 . S
C858 H849 0.930 . S
C858 C856 1.384 . S
C858 C859 1.372 . S
C859 C858 1.372 . S
C859 C860 1.400 . S
C859 C864 1.490 . S
C860 H850 0.930 . S
C860 C859 1.400 . S
C860 C863 1.386 . S
H861 C877 0.930 . S
H862 C878 0.931 . S
C863 H851 0.929 . S
C863 C857 1.390 . S
C863 C860 1.386 . S
C864 C859 1.490 . S
C864 C866 1.395 . S
C864 C867 1.403 . S
H865 C871 0.930 . S
C866 H852 0.930 . S
C866 C864 1.395 . S
C866 C869 1.403 1_565 S
C867 C864 1.403 . S
C867 C868 1.524 . S
C867 C871 1.400 1_565 S
C868 H853 0.960 . S
C868 H854 0.960 . S
C868 H855 0.960 . S
C868 C867 1.524 . S
C869 C866 1.403 1_545 S
C869 C870 1.392 . S
C869 C873 1.495 . S
C870 C869 1.392 . S
C870 C871 1.385 . S
C870 C872 1.478 . S
C871 H865 0.930 . S
C871 C867 1.400 1_545 S
C871 C870 1.385 . S
C872 C870 1.478 . S
C872 C874 1.381 . S
C872 C878 1.383 . S
C873 C869 1.495 . S
C873 H879 0.959 . S
C873 H880 0.961 . S
C873 H881 0.960 . S
C874 C872 1.381 . S
C874 C875 1.394 . S
C874 H882 0.930 . S
C875 C874 1.394 . S
C875 C876 1.383 . S
C875 H883 0.929 . S
C876 C875 1.383 . S
C876 C877 1.377 . S
C877 H861 0.930 . S
C877 C876 1.377 . S
C877 C878 1.379 . S
C878 H862 0.931 . S
C878 C872 1.383 . S
C878 C877 1.379 . S
H879 C873 0.959 . S
H880 C873 0.961 . S
H881 C873 0.960 . S
H882 C874 0.930 . S
H883 C875 0.929 . S
H884 C892 0.929 . S
H885 C894 0.930 . S
H886 C896 0.930 . S
H887 C899 0.929 . S
H888 C902 0.930 . S
H889 C904 0.960 1_655 S
H890 C904 0.960 . S
H891 C904 0.960 . S
C892 H884 0.929 . S
C892 C893 1.377 . S
C892 C894 1.384 . S
C893 C892 1.377 . S
C893 C899 1.390 . S
C894 H885 0.930 . S
C894 C892 1.384 . S
C894 C895 1.372 . S
C895 C894 1.372 . S
C895 C896 1.400 . S
C895 C900 1.490 . S
C896 H886 0.930 . S
C896 C895 1.400 . S
C896 C899 1.386 . S
H897 C913 0.930 . S
H898 C914 0.931 . S
C899 H887 0.929 . S
C899 C893 1.390 . S
C899 C896 1.386 . S
C900 C895 1.490 . S
C900 C902 1.395 . S
C900 C903 1.403 . S
H901 C907 0.930 . S
C902 H888 0.930 . S
C902 C900 1.395 . S
C902 C905 1.403 1_455 S
C903 C900 1.403 . S
C903 C904 1.524 . S
C903 C907 1.400 1_455 S
C904 H889 0.960 1_455 S
C904 H890 0.960 . S
C904 H891 0.960 . S
C904 C903 1.524 . S
C905 C902 1.403 1_655 S
C905 C906 1.392 . S
C905 C909 1.495 . S
C906 C905 1.392 . S
C906 C907 1.385 . S
C906 C908 1.478 . S
C907 H901 0.930 . S
C907 C903 1.400 1_655 S
C907 C906 1.385 . S
C908 C906 1.478 . S
C908 C910 1.381 . S
C908 C914 1.383 . S
C909 C905 1.495 . S
C909 H915 0.959 1_655 S
C909 H916 0.961 . S
C909 H917 0.960 . S
C910 C908 1.381 . S
C910 C911 1.394 . S
C910 H918 0.930 . S
C911 C910 1.394 . S
C911 C912 1.383 . S
C911 H919 0.929 . S
C912 C911 1.383 . S
C912 C913 1.377 . S
C913 H897 0.930 . S
C913 C912 1.377 . S
C913 C914 1.379 . S
C914 H898 0.931 . S
C914 C908 1.383 . S
C914 C913 1.379 . S
H915 C909 0.959 1_455 S
H916 C909 0.961 . S
H917 C909 0.960 . S
H918 C910 0.930 . S
H919 C911 0.929 . S
H920 C928 0.929 . S
H921 C930 0.930 . S
H922 C932 0.930 . S
H923 C935 0.929 . S
H924 C938 0.930 . S
H925 C940 0.960 . S
H926 C940 0.960 . S
H927 C940 0.960 . S
C928 H920 0.929 . S
C928 C929 1.377 . S
C928 C930 1.384 . S
C929 C928 1.377 . S
C929 C935 1.390 . S
C930 H921 0.930 . S
C930 C928 1.384 . S
C930 C931 1.372 . S
C931 C930 1.372 . S
C931 C932 1.400 . S
C931 C936 1.490 . S
C932 H922 0.930 . S
C932 C931 1.400 . S
C932 C935 1.386 . S
H933 C949 0.930 . S
H934 C950 0.931 . S
C935 H923 0.929 . S
C935 C929 1.390 . S
C935 C932 1.386 . S
C936 C931 1.490 . S
C936 C938 1.395 . S
C936 C939 1.403 . S
H937 C943 0.930 . S
C938 H924 0.930 . S
C938 C936 1.395 . S
C938 C941 1.403 1_565 S
C939 C936 1.403 . S
C939 C940 1.524 . S
C939 C943 1.400 1_565 S
C940 H925 0.960 . S
C940 H926 0.960 . S
C940 H927 0.960 . S
C940 C939 1.524 . S
C941 C938 1.403 1_545 S
C941 C942 1.392 . S
C941 C945 1.495 . S
C942 C941 1.392 . S
C942 C943 1.385 . S
C942 C944 1.478 . S
C943 H937 0.930 . S
C943 C939 1.400 1_545 S
C943 C942 1.385 . S
C944 C942 1.478 . S
C944 C946 1.381 . S
C944 C950 1.383 . S
C945 C941 1.495 . S
C945 H951 0.959 . S
C945 H952 0.961 . S
C945 H953 0.960 . S
C946 C944 1.381 . S
C946 C947 1.394 . S
C946 H954 0.930 . S
C947 C946 1.394 . S
C947 C948 1.383 . S
C947 H955 0.929 . S
C948 C947 1.383 . S
C948 C949 1.377 . S
C949 H933 0.930 . S
C949 C948 1.377 . S
C949 C950 1.379 . S
C950 H934 0.931 . S
C950 C944 1.383 . S
C950 C949 1.379 . S
H951 C945 0.959 . S
H952 C945 0.961 . S
H953 C945 0.960 . S
H954 C946 0.930 . S
H955 C947 0.929 . S
H956 C964 0.929 . S
H957 C966 0.930 . S
H958 C968 0.930 . S
H959 C971 0.929 . S
H960 C974 0.930 . S
H961 C976 0.944 1_655 S
H962 C976 0.960 . S
H963 C976 0.960 . S
C964 H956 0.929 . S
C964 C965 1.377 . S
C964 C966 1.384 . S
C965 C964 1.377 . S
C965 C971 1.390 . S
C966 H957 0.930 . S
C966 C964 1.384 . S
C966 C967 1.372 . S
C967 C966 1.372 . S
C967 C968 1.400 . S
C967 C972 1.490 . S
C968 H958 0.930 . S
C968 C967 1.400 . S
C968 C971 1.386 . S
H969 C985 0.930 . S
H970 C986 0.931 . S
C971 H959 0.929 . S
C971 C965 1.390 . S
C971 C968 1.386 . S
C972 C967 1.490 . S
C972 C974 1.395 . S
C972 C975 1.403 . S
H973 C979 0.930 . S
C974 H960 0.930 . S
C974 C972 1.395 . S
C974 C977 1.403 1_455 S
C975 C972 1.403 . S
C975 C976 1.524 . S
C975 C979 1.400 1_455 S
C976 H961 0.944 1_455 S
C976 H962 0.960 . S
C976 H963 0.960 . S
C976 C975 1.524 . S
C977 C974 1.403 1_655 S
C977 C978 1.392 . S
C977 C981 1.495 . S
C978 C977 1.392 . S
C978 C979 1.385 . S
C978 C980 1.478 . S
C979 H973 0.930 . S
C979 C975 1.400 1_655 S
C979 C978 1.385 . S
C980 C978 1.478 . S
C980 C982 1.381 . S
C980 C986 1.383 . S
C981 C977 1.495 . S
C981 H987 0.959 . S
C981 H988 0.961 . S
C981 H989 0.960 . S
C982 C980 1.381 . S
C982 C983 1.394 . S
C982 H990 0.930 . S
C983 C982 1.394 . S
C983 C984 1.383 . S
C983 H991 0.929 . S
C984 C983 1.383 . S
C984 C985 1.377 . S
C985 H969 0.930 . S
C985 C984 1.377 . S
C985 C986 1.379 . S
C986 H970 0.931 . S
C986 C980 1.383 . S
C986 C985 1.379 . S
H987 C981 0.959 . S
H988 C981 0.961 . S
H989 C981 0.960 . S
H990 C982 0.930 . S
H991 C983 0.929 . S
H992 C1000 0.929 . S
H993 C1002 0.930 . S
H994 C1004 0.930 . S
H995 C1007 0.929 . S
H996 C1010 0.930 . S
H997 C1012 0.960 . S
H998 C1012 0.960 . S
H999 C1012 0.960 . S
C1000 H992 0.929 . S
C1000 C1001 1.377 . S
C1000 C1002 1.384 . S
C1001 C1000 1.377 . S
C1001 C1007 1.390 . S
C1002 H993 0.930 . S
C1002 C1000 1.384 . S
C1002 C1003 1.372 . S
C1003 C1002 1.372 . S
C1003 C1004 1.400 . S
C1003 C1008 1.490 . S
C1004 H994 0.930 . S
C1004 C1003 1.400 . S
C1004 C1007 1.386 . S
H1005 C1021 0.930 . S
H1006 C1022 0.931 . S
C1007 H995 0.929 . S
C1007 C1001 1.390 . S
C1007 C1004 1.386 . S
C1008 C1003 1.490 . S
C1008 C1010 1.395 1_554 S
C1008 C1011 1.403 . S
H1009 C1015 0.930 . S
C1010 H996 0.930 . S
C1010 C1008 1.395 1_556 S
C1010 C1013 1.403 . S
C1011 C1008 1.403 . S
C1011 C1012 1.524 . S
C1011 C1015 1.400 . S
C1012 H997 0.960 . S
C1012 H998 0.960 . S
C1012 H999 0.960 . S
C1012 C1011 1.524 . S
C1013 C1010 1.403 . S
C1013 C1014 1.392 1_556 S
C1013 C1017 1.495 . S
C1014 C1013 1.392 1_554 S
C1014 C1015 1.385 . S
C1014 C1016 1.478 . S
C1015 H1009 0.930 . S
C1015 C1011 1.400 . S
C1015 C1014 1.385 . S
C1016 C1014 1.478 . S
C1016 C1018 1.381 1_554 S
C1016 C1022 1.383 . S
C1017 C1013 1.495 . S
C1017 H1023 0.959 . S
C1017 H1024 0.961 . S
C1017 H1025 0.960 . S
C1018 C1016 1.381 1_556 S
C1018 C1019 1.394 . S
C1018 H1026 0.930 . S
C1019 C1018 1.394 . S
C1019 C1020 1.383 . S
C1019 H1027 0.929 . S
C1020 C1019 1.383 . S
C1020 C1021 1.377 1_556 S
C1021 H1005 0.930 . S
C1021 C1020 1.377 1_554 S
C1021 C1022 1.379 . S
C1022 H1006 0.931 . S
C1022 C1016 1.383 . S
C1022 C1021 1.379 . S
H1023 C1017 0.959 . S
H1024 C1017 0.961 . S
H1025 C1017 0.960 . S
H1026 C1018 0.930 . S
H1027 C1019 0.929 . S
H1028 C1036 0.929 . S
H1029 C1038 0.930 . S
H1030 C1040 0.930 . S
H1031 C1043 0.929 . S
H1032 C1046 0.930 . S
H1033 C1048 0.960 . S
H1034 C1048 0.960 . S
H1035 C1048 0.960 . S
C1036 H1028 0.929 . S
C1036 C1037 1.377 . S
C1036 C1038 1.384 . S
C1037 C1036 1.377 . S
C1037 C1043 1.390 . S
C1038 H1029 0.930 . S
C1038 C1036 1.384 . S
C1038 C1039 1.372 . S
C1039 C1038 1.372 . S
C1039 C1040 1.400 . S
C1039 C1044 1.490 . S
C1040 H1030 0.930 . S
C1040 C1039 1.400 . S
C1040 C1043 1.386 . S
H1041 C1057 0.930 . S
H1042 C1058 0.931 . S
C1043 H1031 0.929 . S
C1043 C1037 1.390 . S
C1043 C1040 1.386 . S
C1044 C1039 1.490 . S
C1044 C1046 1.395 . S
C1044 C1047 1.403 . S
H1045 C1051 0.930 1_554 S
C1046 H1032 0.930 . S
C1046 C1044 1.395 . S
C1046 C1049 1.403 . S
C1047 C1044 1.403 . S
C1047 C1048 1.524 1_556 S
C1047 C1051 1.400 . S
C1048 H1033 0.960 . S
C1048 H1034 0.960 . S
C1048 H1035 0.960 . S
C1048 C1047 1.524 1_554 S
C1049 C1046 1.403 . S
C1049 C1050 1.392 . S
C1049 C1053 1.495 . S
C1050 C1049 1.392 . S
C1050 C1051 1.385 . S
C1050 C1052 1.478 . S
C1051 H1045 0.930 1_556 S
C1051 C1047 1.400 . S
C1051 C1050 1.385 . S
C1052 C1050 1.478 . S
C1052 C1054 1.381 . S
C1052 C1058 1.383 . S
C1053 C1049 1.495 . S
C1053 H1059 0.959 . S
C1053 H1060 0.961 . S
C1053 H1061 0.960 . S
C1054 C1052 1.381 . S
C1054 C1055 1.394 1_556 S
C1054 H1062 0.930 . S
C1055 C1054 1.394 1_554 S
C1055 C1056 1.383 . S
C1055 H1063 0.929 . S
C1056 C1055 1.383 . S
C1056 C1057 1.377 1_554 S
C1057 H1041 0.930 . S
C1057 C1056 1.377 1_556 S
C1057 C1058 1.379 . S
C1058 H1042 0.931 . S
C1058 C1052 1.383 . S
C1058 C1057 1.379 . S
H1059 C1053 0.959 . S
H1060 C1053 0.961 . S
H1061 C1053 0.960 . S
H1062 C1054 0.930 . S
H1063 C1055 0.929 . S
H1064 C1072 0.929 . S
H1065 C1074 0.930 . S
H1066 C1076 0.930 . S
H1067 C1079 0.929 . S
H1068 C1082 0.930 1_556 S
H1069 C1084 0.960 . S
H1070 C1084 0.960 . S
H1071 C1084 0.960 . S
C1072 H1064 0.929 . S
C1072 C1073 1.377 . S
C1072 C1074 1.384 . S
C1073 C1072 1.377 . S
C1073 C1079 1.390 1_556 S
C1074 H1065 0.930 . S
C1074 C1072 1.384 . S
C1074 C1075 1.372 1_556 S
C1075 C1074 1.372 1_554 S
C1075 C1076 1.400 . S
C1075 C1080 1.490 . S
C1076 H1066 0.930 . S
C1076 C1075 1.400 . S
C1076 C1079 1.386 . S
H1077 C1093 0.930 . S
H1078 C1094 0.931 . S
C1079 H1067 0.929 . S
C1079 C1073 1.390 1_554 S
C1079 C1076 1.386 . S
C1080 C1075 1.490 . S
C1080 C1082 1.395 . S
C1080 C1083 1.403 . S
H1081 C1087 0.930 . S
C1082 H1068 0.930 1_554 S
C1082 C1080 1.395 . S
C1082 C1085 1.403 . S
C1083 C1080 1.403 . S
C1083 C1084 1.524 . S
C1083 C1087 1.400 . S
C1084 H1069 0.960 . S
C1084 H1070 0.960 . S
C1084 H1071 0.960 . S
C1084 C1083 1.524 . S
C1085 C1082 1.403 . S
C1085 C1086 1.392 . S
C1085 C1089 1.495 1_554 S
C1086 C1085 1.392 . S
C1086 C1087 1.385 . S
C1086 C1088 1.478 . S
C1087 H1081 0.930 . S
C1087 C1083 1.400 . S
C1087 C1086 1.385 . S
C1088 C1086 1.478 . S
C1088 C1090 1.381 . S
C1088 C1094 1.383 . S
C1089 C1085 1.495 1_556 S
C1089 H1095 0.959 . S
C1089 H1096 0.961 1_556 S
C1089 H1097 0.960 . S
C1090 C1088 1.381 . S
C1090 C1091 1.394 . S
C1090 H1098 0.930 1_554 S
C1091 C1090 1.394 . S
C1091 C1092 1.383 . S
C1091 H1099 0.929 . S
C1092 C1091 1.383 . S
C1092 C1093 1.377 . S
C1093 H1077 0.930 . S
C1093 C1092 1.377 . S
C1093 C1094 1.379 . S
C1094 H1078 0.931 . S
C1094 C1088 1.383 . S
C1094 C1093 1.379 . S
H1095 C1089 0.959 . S
H1096 C1089 0.961 1_554 S
H1097 C1089 0.960 . S
H1098 C1090 0.930 1_556 S
H1099 C1091 0.929 . S
H1100 C1108 0.929 . S
H1101 C1110 0.930 . S
H1102 C1112 0.930 . S
H1103 C1115 0.929 . S
H1104 C1118 0.930 . S
H1105 C1120 0.960 . S
H1106 C1120 0.960 . S
H1107 C1120 0.960 . S
C1108 H1100 0.929 . S
C1108 C1109 1.377 . S
C1108 C1110 1.384 . S
C1109 C1108 1.377 . S
C1109 C1115 1.390 1_554 S
C1110 H1101 0.930 . S
C1110 C1108 1.384 . S
C1110 C1111 1.372 1_554 S
C1111 C1110 1.372 1_556 S
C1111 C1112 1.400 . S
C1111 C1116 1.490 . S
C1112 H1102 0.930 . S
C1112 C1111 1.400 . S
C1112 C1115 1.386 . S
H1113 C1129 0.930 . S
H1114 C1130 0.931 . S
C1115 H1103 0.929 . S
C1115 C1109 1.390 1_556 S
C1115 C1112 1.386 . S
C1116 C1111 1.490 . S
C1116 C1118 1.395 1_556 S
C1116 C1119 1.403 . S
H1117 C1123 0.930 . S
C1118 H1104 0.930 . S
C1118 C1116 1.395 1_554 S
C1118 C1121 1.403 . S
C1119 C1116 1.403 . S
C1119 C1120 1.524 . S
C1119 C1123 1.400 . S
C1120 H1105 0.960 . S
C1120 H1106 0.960 . S
C1120 H1107 0.960 . S
C1120 C1119 1.524 . S
C1121 C1118 1.403 . S
C1121 C1122 1.392 1_554 S
C1121 C1125 1.495 . S
C1122 C1121 1.392 1_556 S
C1122 C1123 1.385 . S
C1122 C1124 1.478 . S
C1123 H1117 0.930 . S
C1123 C1119 1.400 . S
C1123 C1122 1.385 . S
C1124 C1122 1.478 . S
C1124 C1126 1.381 . S
C1124 C1130 1.383 . S
C1125 C1121 1.495 . S
C1125 H1131 0.959 . S
C1125 H1132 0.961 . S
C1125 H1133 0.960 . S
C1126 C1124 1.381 . S
C1126 C1127 1.394 . S
C1126 H1134 0.930 . S
C1127 C1126 1.394 . S
C1127 C1128 1.383 . S
C1127 H1135 0.929 . S
C1128 C1127 1.383 . S
C1128 C1129 1.377 . S
C1129 H1113 0.930 . S
C1129 C1128 1.377 . S
C1129 C1130 1.379 . S
C1130 H1114 0.931 . S
C1130 C1124 1.383 . S
C1130 C1129 1.379 . S
H1131 C1125 0.959 . S
H1132 C1125 0.961 . S
H1133 C1125 0.960 . S
H1134 C1126 0.930 . S
H1135 C1127 0.929 . S
H1136 C1144 0.929 . S
H1137 C1146 0.930 . S
H1138 C1148 0.930 . S
H1139 C1151 0.929 . S
H1140 C1154 0.930 . S
H1141 C1156 0.960 . S
H1142 C1156 0.960 . S
H1143 C1156 0.960 . S
C1144 H1136 0.929 . S
C1144 C1145 1.377 . S
C1144 C1146 1.384 . S
C1145 C1144 1.377 . S
C1145 C1151 1.390 . S
C1146 H1137 0.930 . S
C1146 C1144 1.384 . S
C1146 C1147 1.372 . S
C1147 C1146 1.372 . S
C1147 C1148 1.400 . S
C1147 C1152 1.490 . S
C1148 H1138 0.930 . S
C1148 C1147 1.400 . S
C1148 C1151 1.386 . S
H1149 C1165 0.930 . S
H1150 C1166 0.931 . S
C1151 H1139 0.929 . S
C1151 C1145 1.390 . S
C1151 C1148 1.386 . S
C1152 C1147 1.490 . S
C1152 C1154 1.395 . S
C1152 C1155 1.403 . S
H1153 C1159 0.930 . S
C1154 H1140 0.930 . S
C1154 C1152 1.395 . S
C1154 C1157 1.403 . S
C1155 C1152 1.403 . S
C1155 C1156 1.524 . S
C1155 C1159 1.400 . S
C1156 H1141 0.960 . S
C1156 H1142 0.960 . S
C1156 H1143 0.960 . S
C1156 C1155 1.524 . S
C1157 C1154 1.403 . S
C1157 C1158 1.392 . S
C1157 C1161 1.495 . S
C1158 C1157 1.392 . S
C1158 C1159 1.385 . S
C1158 C1160 1.478 . S
C1159 H1153 0.930 . S
C1159 C1155 1.400 . S
C1159 C1158 1.385 . S
C1160 C1158 1.478 . S
C1160 C1162 1.381 . S
C1160 C1166 1.383 . S
C1161 C1157 1.495 . S
C1161 H1167 0.959 . S
C1161 H1168 0.961 . S
C1161 H1169 0.960 . S
C1162 C1160 1.381 . S
C1162 C1163 1.394 . S
C1162 H1170 0.930 . S
C1163 C1162 1.394 . S
C1163 C1164 1.383 . S
C1163 H1171 0.929 . S
C1164 C1163 1.383 . S
C1164 C1165 1.377 . S
C1165 H1149 0.930 . S
C1165 C1164 1.377 . S
C1165 C1166 1.379 . S
C1166 H1150 0.931 . S
C1166 C1160 1.383 . S
C1166 C1165 1.379 . S
H1167 C1161 0.959 . S
H1168 C1161 0.961 . S
H1169 C1161 0.960 . S
H1170 C1162 0.930 . S
H1171 C1163 0.929 . S
H1172 C1180 0.929 . S
H1173 C1182 0.930 . S
H1174 C1184 0.930 . S
H1175 C1187 0.929 . S
H1176 C1190 0.930 . S
H1177 C1192 0.960 . S
H1178 C1192 0.960 . S
H1179 C1192 0.960 . S
C1180 H1172 0.929 . S
C1180 C1181 1.377 . S
C1180 C1182 1.384 . S
C1181 C1180 1.377 . S
C1181 C1187 1.390 . S
C1182 H1173 0.930 . S
C1182 C1180 1.384 . S
C1182 C1183 1.372 . S
C1183 C1182 1.372 . S
C1183 C1184 1.400 . S
C1183 C1188 1.490 . S
C1184 H1174 0.930 . S
C1184 C1183 1.400 . S
C1184 C1187 1.386 . S
H1185 C1201 0.930 . S
H1186 C1202 0.931 . S
C1187 H1175 0.929 . S
C1187 C1181 1.390 . S
C1187 C1184 1.386 . S
C1188 C1183 1.490 . S
C1188 C1190 1.395 . S
C1188 C1191 1.403 . S
H1189 C1195 0.930 . S
C1190 H1176 0.930 . S
C1190 C1188 1.395 . S
C1190 C1193 1.403 . S
C1191 C1188 1.403 . S
C1191 C1192 1.524 . S
C1191 C1195 1.400 . S
C1192 H1177 0.960 . S
C1192 H1178 0.960 . S
C1192 H1179 0.960 . S
C1192 C1191 1.524 . S
C1193 C1190 1.403 . S
C1193 C1194 1.392 . S
C1193 C1197 1.495 . S
C1194 C1193 1.392 . S
C1194 C1195 1.385 . S
C1194 C1196 1.478 . S
C1195 H1189 0.930 . S
C1195 C1191 1.400 . S
C1195 C1194 1.385 . S
C1196 C1194 1.478 . S
C1196 C1198 1.381 . S
C1196 C1202 1.383 . S
C1197 C1193 1.495 . S
C1197 H1203 0.959 . S
C1197 H1204 0.961 . S
C1197 H1205 0.960 . S
C1198 C1196 1.381 . S
C1198 C1199 1.394 . S
C1198 H1206 0.930 . S
C1199 C1198 1.394 . S
C1199 C1200 1.383 . S
C1199 H1207 0.929 . S
C1200 C1199 1.383 . S
C1200 C1201 1.377 . S
C1201 H1185 0.930 . S
C1201 C1200 1.377 . S
C1201 C1202 1.379 . S
C1202 H1186 0.931 . S
C1202 C1196 1.383 . S
C1202 C1201 1.379 . S
H1203 C1197 0.959 . S
H1204 C1197 0.961 . S
H1205 C1197 0.960 . S
H1206 C1198 0.930 . S
H1207 C1199 0.929 . S
H1208 C1216 0.929 . S
H1209 C1218 0.930 . S
H1210 C1220 0.930 . S
H1211 C1223 0.929 . S
H1212 C1226 0.930 . S
H1213 C1228 0.960 . S
H1214 C1228 0.960 . S
H1215 C1228 0.960 . S
C1216 H1208 0.929 . S
C1216 C1217 1.377 . S
C1216 C1218 1.384 . S
C1217 C1216 1.377 . S
C1217 C1223 1.390 . S
C1218 H1209 0.930 . S
C1218 C1216 1.384 . S
C1218 C1219 1.372 . S
C1219 C1218 1.372 . S
C1219 C1220 1.400 . S
C1219 C1224 1.490 . S
C1220 H1210 0.930 . S
C1220 C1219 1.400 . S
C1220 C1223 1.386 . S
H1221 C1237 0.930 . S
H1222 C1238 0.931 . S
C1223 H1211 0.929 . S
C1223 C1217 1.390 . S
C1223 C1220 1.386 . S
C1224 C1219 1.490 . S
C1224 C1226 1.395 . S
C1224 C1227 1.403 . S
H1225 C1231 0.930 . S
C1226 H1212 0.930 . S
C1226 C1224 1.395 . S
C1226 C1229 1.403 . S
C1227 C1224 1.403 . S
C1227 C1228 1.524 . S
C1227 C1231 1.400 . S
C1228 H1213 0.960 . S
C1228 H1214 0.960 . S
C1228 H1215 0.960 . S
C1228 C1227 1.524 . S
C1229 C1226 1.403 . S
C1229 C1230 1.392 . S
C1229 C1233 1.495 . S
C1230 C1229 1.392 . S
C1230 C1231 1.385 . S
C1230 C1232 1.478 . S
C1231 H1225 0.930 . S
C1231 C1227 1.400 . S
C1231 C1230 1.385 . S
C1232 C1230 1.478 . S
C1232 C1234 1.381 . S
C1232 C1238 1.383 . S
C1233 C1229 1.495 . S
C1233 H1239 0.959 . S
C1233 H1240 0.961 . S
C1233 H1241 0.960 . S
C1234 C1232 1.381 . S
C1234 C1235 1.394 . S
C1234 H1242 0.930 . S
C1235 C1234 1.394 . S
C1235 C1236 1.383 . S
C1235 H1243 0.929 . S
C1236 C1235 1.383 . S
C1236 C1237 1.377 . S
C1237 H1221 0.930 . S
C1237 C1236 1.377 . S
C1237 C1238 1.379 . S
C1238 H1222 0.931 . S
C1238 C1232 1.383 . S
C1238 C1237 1.379 . S
H1239 C1233 0.959 . S
H1240 C1233 0.961 . S
H1241 C1233 0.960 . S
H1242 C1234 0.930 . S
H1243 C1235 0.929 . S
H1244 C1252 0.929 . S
H1245 C1254 0.930 . S
H1246 C1256 0.930 . S
H1247 C1259 0.929 . S
H1248 C1262 0.930 . S
H1249 C1264 0.960 . S
H1250 C1264 0.960 . S
H1251 C1264 0.960 . S
C1252 H1244 0.929 . S
C1252 C1253 1.377 . S
C1252 C1254 1.384 . S
C1253 C1252 1.377 . S
C1253 C1259 1.390 . S
C1254 H1245 0.930 . S
C1254 C1252 1.384 . S
C1254 C1255 1.372 . S
C1255 C1254 1.372 . S
C1255 C1256 1.400 . S
C1255 C1260 1.490 . S
C1256 H1246 0.930 . S
C1256 C1255 1.400 . S
C1256 C1259 1.386 . S
H1257 C1273 0.930 . S
H1258 C1274 0.931 . S
C1259 H1247 0.929 . S
C1259 C1253 1.390 . S
C1259 C1256 1.386 . S
C1260 C1255 1.490 . S
C1260 C1262 1.395 . S
C1260 C1263 1.403 . S
H1261 C1267 0.930 . S
C1262 H1248 0.930 . S
C1262 C1260 1.395 . S
C1262 C1265 1.403 . S
C1263 C1260 1.403 . S
C1263 C1264 1.524 . S
C1263 C1267 1.400 . S
C1264 H1249 0.960 . S
C1264 H1250 0.960 . S
C1264 H1251 0.960 . S
C1264 C1263 1.524 . S
C1265 C1262 1.403 . S
C1265 C1266 1.392 . S
C1265 C1269 1.495 . S
C1266 C1265 1.392 . S
C1266 C1267 1.385 . S
C1266 C1268 1.478 . S
C1267 H1261 0.930 . S
C1267 C1263 1.400 . S
C1267 C1266 1.385 . S
C1268 C1266 1.478 . S
C1268 C1270 1.381 . S
C1268 C1274 1.383 . S
C1269 C1265 1.495 . S
C1269 H1275 0.959 . S
C1269 H1276 0.961 . S
C1269 H1277 0.960 . S
C1270 C1268 1.381 . S
C1270 C1271 1.394 . S
C1270 H1278 0.930 . S
C1271 C1270 1.394 . S
C1271 C1272 1.383 . S
C1271 H1279 0.929 . S
C1272 C1271 1.383 . S
C1272 C1273 1.377 . S
C1273 H1257 0.930 . S
C1273 C1272 1.377 . S
C1273 C1274 1.379 . S
C1274 H1258 0.931 . S
C1274 C1268 1.383 . S
C1274 C1273 1.379 . S
H1275 C1269 0.959 . S
H1276 C1269 0.961 . S
H1277 C1269 0.960 . S
H1278 C1270 0.930 . S
H1279 C1271 0.929 . S
H1280 C1288 0.929 . S
H1281 C1290 0.930 . S
H1282 C1292 0.930 . S
H1283 C1295 0.929 . S
H1284 C1298 0.930 . S
H1285 C1300 0.960 . S
H1286 C1300 0.960 . S
H1287 C1300 0.960 . S
C1288 H1280 0.929 . S
C1288 C1289 1.377 . S
C1288 C1290 1.384 . S
C1289 C1288 1.377 . S
C1289 C1295 1.390 . S
C1290 H1281 0.930 . S
C1290 C1288 1.384 . S
C1290 C1291 1.372 . S
C1291 C1290 1.372 . S
C1291 C1292 1.400 . S
C1291 C1296 1.490 . S
C1292 H1282 0.930 . S
C1292 C1291 1.400 . S
C1292 C1295 1.386 . S
H1293 C1309 0.930 . S
H1294 C1310 0.931 . S
C1295 H1283 0.929 . S
C1295 C1289 1.390 . S
C1295 C1292 1.386 . S
C1296 C1291 1.490 . S
C1296 C1298 1.395 . S
C1296 C1299 1.403 . S
H1297 C1303 0.930 . S
C1298 H1284 0.930 . S
C1298 C1296 1.395 . S
C1298 C1301 1.403 1_565 S
C1299 C1296 1.403 . S
C1299 C1300 1.524 . S
C1299 C1303 1.400 1_565 S
C1300 H1285 0.960 . S
C1300 H1286 0.960 . S
C1300 H1287 0.960 . S
C1300 C1299 1.524 . S
C1301 C1298 1.403 1_545 S
C1301 C1302 1.392 . S
C1301 C1305 1.495 . S
C1302 C1301 1.392 . S
C1302 C1303 1.385 . S
C1302 C1304 1.478 . S
C1303 H1297 0.930 . S
C1303 C1299 1.400 1_545 S
C1303 C1302 1.385 . S
C1304 C1302 1.478 . S
C1304 C1306 1.381 . S
C1304 C1310 1.383 . S
C1305 C1301 1.495 . S
C1305 H1311 0.959 . S
C1305 H1312 0.961 . S
C1305 H1313 0.960 . S
C1306 C1304 1.381 . S
C1306 C1307 1.394 . S
C1306 H1314 0.930 . S
C1307 C1306 1.394 . S
C1307 C1308 1.383 . S
C1307 H1315 0.929 . S
C1308 C1307 1.383 . S
C1308 C1309 1.377 . S
C1309 H1293 0.930 . S
C1309 C1308 1.377 . S
C1309 C1310 1.379 . S
C1310 H1294 0.931 . S
C1310 C1304 1.383 . S
C1310 C1309 1.379 . S
H1311 C1305 0.959 . S
H1312 C1305 0.961 . S
H1313 C1305 0.960 . S
H1314 C1306 0.930 . S
H1315 C1307 0.929 . S
H1316 C1324 0.929 . S
H1317 C1326 0.930 . S
H1318 C1328 0.930 . S
H1319 C1331 0.929 . S
H1320 C1334 0.930 . S
H1321 C1336 0.960 . S
H1322 C1336 0.960 . S
H1323 C1336 0.960 . S
C1324 H1316 0.929 . S
C1324 C1325 1.377 . S
C1324 C1326 1.384 . S
C1325 C1324 1.377 . S
C1325 C1331 1.390 . S
C1326 H1317 0.930 . S
C1326 C1324 1.384 . S
C1326 C1327 1.372 . S
C1327 C1326 1.372 . S
C1327 C1328 1.400 . S
C1327 C1332 1.490 . S
C1328 H1318 0.930 . S
C1328 C1327 1.400 . S
C1328 C1331 1.386 . S
H1329 C1345 0.930 . S
H1330 C1346 0.931 . S
C1331 H1319 0.929 . S
C1331 C1325 1.390 . S
C1331 C1328 1.386 . S
C1332 C1327 1.490 . S
C1332 C1334 1.395 . S
C1332 C1335 1.403 . S
H1333 C1339 0.930 . S
C1334 H1320 0.930 . S
C1334 C1332 1.395 . S
C1334 C1337 1.403 1_655 S
C1335 C1332 1.403 . S
C1335 C1336 1.524 . S
C1335 C1339 1.400 1_655 S
C1336 H1321 0.960 . S
C1336 H1322 0.960 . S
C1336 H1323 0.960 . S
C1336 C1335 1.524 . S
C1337 C1334 1.403 1_455 S
C1337 C1338 1.392 . S
C1337 C1341 1.495 . S
C1338 C1337 1.392 . S
C1338 C1339 1.385 . S
C1338 C1340 1.478 . S
C1339 H1333 0.930 . S
C1339 C1335 1.400 1_455 S
C1339 C1338 1.385 . S
C1340 C1338 1.478 . S
C1340 C1342 1.381 . S
C1340 C1346 1.383 . S
C1341 C1337 1.495 . S
C1341 H1347 0.959 . S
C1341 H1348 0.961 . S
C1341 H1349 0.960 . S
C1342 C1340 1.381 . S
C1342 C1343 1.394 . S
C1342 H1350 0.930 . S
C1343 C1342 1.394 . S
C1343 C1344 1.383 . S
C1343 H1351 0.929 . S
C1344 C1343 1.383 . S
C1344 C1345 1.377 . S
C1345 H1329 0.930 . S
C1345 C1344 1.377 . S
C1345 C1346 1.379 . S
C1346 H1330 0.931 . S
C1346 C1340 1.383 . S
C1346 C1345 1.379 . S
H1347 C1341 0.959 . S
H1348 C1341 0.961 . S
H1349 C1341 0.960 . S
H1350 C1342 0.930 . S
H1351 C1343 0.929 . S
H1352 C1360 0.929 . S
H1353 C1362 0.930 . S
H1354 C1364 0.930 . S
H1355 C1367 0.929 . S
H1356 C1370 0.930 . S
H1357 C1372 0.960 . S
H1358 C1372 0.960 . S
H1359 C1372 0.960 . S
C1360 H1352 0.929 . S
C1360 C1361 1.377 . S
C1360 C1362 1.384 . S
C1361 C1360 1.377 . S
C1361 C1367 1.390 . S
C1362 H1353 0.930 . S
C1362 C1360 1.384 . S
C1362 C1363 1.372 . S
C1363 C1362 1.372 . S
C1363 C1364 1.400 . S
C1363 C1368 1.490 . S
C1364 H1354 0.930 . S
C1364 C1363 1.400 . S
C1364 C1367 1.386 . S
H1365 C1381 0.930 . S
H1366 C1382 0.931 . S
C1367 H1355 0.929 . S
C1367 C1361 1.390 . S
C1367 C1364 1.386 . S
C1368 C1363 1.490 . S
C1368 C1370 1.395 . S
C1368 C1371 1.403 . S
H1369 C1375 0.930 . S
C1370 H1356 0.930 . S
C1370 C1368 1.395 . S
C1370 C1373 1.403 1_565 S
C1371 C1368 1.403 . S
C1371 C1372 1.524 . S
C1371 C1375 1.400 1_565 S
C1372 H1357 0.960 . S
C1372 H1358 0.960 . S
C1372 H1359 0.960 . S
C1372 C1371 1.524 . S
C1373 C1370 1.403 1_545 S
C1373 C1374 1.392 . S
C1373 C1377 1.495 . S
C1374 C1373 1.392 . S
C1374 C1375 1.385 . S
C1374 C1376 1.478 . S
C1375 H1369 0.930 . S
C1375 C1371 1.400 1_545 S
C1375 C1374 1.385 . S
C1376 C1374 1.478 . S
C1376 C1378 1.381 . S
C1376 C1382 1.383 . S
C1377 C1373 1.495 . S
C1377 H1383 0.959 . S
C1377 H1384 0.961 . S
C1377 H1385 0.960 . S
C1378 C1376 1.381 . S
C1378 C1379 1.394 . S
C1378 H1386 0.930 . S
C1379 C1378 1.394 . S
C1379 C1380 1.383 . S
C1379 H1387 0.929 . S
C1380 C1379 1.383 . S
C1380 C1381 1.377 . S
C1381 H1365 0.930 . S
C1381 C1380 1.377 . S
C1381 C1382 1.379 . S
C1382 H1366 0.931 . S
C1382 C1376 1.383 . S
C1382 C1381 1.379 . S
H1383 C1377 0.959 . S
H1384 C1377 0.961 . S
H1385 C1377 0.960 . S
H1386 C1378 0.930 . S
H1387 C1379 0.929 . S
H1388 C1396 0.929 . S
H1389 C1398 0.930 . S
H1390 C1400 0.930 . S
H1391 C1403 0.929 . S
H1392 C1406 0.930 . S
H1393 C1408 0.960 . S
H1394 C1408 0.960 . S
H1395 C1408 0.960 . S
C1396 H1388 0.929 . S
C1396 C1397 1.377 . S
C1396 C1398 1.384 . S
C1397 C1396 1.377 . S
C1397 C1403 1.390 . S
C1398 H1389 0.930 . S
C1398 C1396 1.384 . S
C1398 C1399 1.372 . S
C1399 C1398 1.372 . S
C1399 C1400 1.400 . S
C1399 C1404 1.490 . S
C1400 H1390 0.930 . S
C1400 C1399 1.400 . S
C1400 C1403 1.386 . S
H1401 C1417 0.930 . S
H1402 C1418 0.931 . S
C1403 H1391 0.929 . S
C1403 C1397 1.390 . S
C1403 C1400 1.386 . S
C1404 C1399 1.490 . S
C1404 C1406 1.395 . S
C1404 C1407 1.403 . S
H1405 C1411 0.930 . S
C1406 H1392 0.930 . S
C1406 C1404 1.395 . S
C1406 C1409 1.403 1_655 S
C1407 C1404 1.403 . S
C1407 C1408 1.524 . S
C1407 C1411 1.400 1_655 S
C1408 H1393 0.960 . S
C1408 H1394 0.960 . S
C1408 H1395 0.960 . S
C1408 C1407 1.524 . S
C1409 C1406 1.403 1_455 S
C1409 C1410 1.392 . S
C1409 C1413 1.495 . S
C1410 C1409 1.392 . S
C1410 C1411 1.385 . S
C1410 C1412 1.478 . S
C1411 H1405 0.930 . S
C1411 C1407 1.400 1_455 S
C1411 C1410 1.385 . S
C1412 C1410 1.478 . S
C1412 C1414 1.381 . S
C1412 C1418 1.383 . S
C1413 C1409 1.495 . S
C1413 H1419 0.959 . S
C1413 H1420 0.961 . S
C1413 H1421 0.960 . S
C1414 C1412 1.381 . S
C1414 C1415 1.394 . S
C1414 H1422 0.930 . S
C1415 C1414 1.394 . S
C1415 C1416 1.383 . S
C1415 H1423 0.929 . S
C1416 C1415 1.383 . S
C1416 C1417 1.377 . S
C1417 H1401 0.930 . S
C1417 C1416 1.377 . S
C1417 C1418 1.379 . S
C1418 H1402 0.931 . S
C1418 C1412 1.383 . S
C1418 C1417 1.379 . S
H1419 C1413 0.959 . S
H1420 C1413 0.961 . S
H1421 C1413 0.960 . S
H1422 C1414 0.930 . S
H1423 C1415 0.929 . S
H1424 C1432 0.929 . S
H1425 C1434 0.930 . S
H1426 C1436 0.930 . S
H1427 C1439 0.929 . S
H1428 C1442 0.930 . S
H1429 C1444 0.960 . S
H1430 C1444 0.960 . S
H1431 C1444 0.960 . S
C1432 H1424 0.929 . S
C1432 C1433 1.377 . S
C1432 C1434 1.384 . S
C1433 C1432 1.377 . S
C1433 C1439 1.390 . S
C1434 H1425 0.930 . S
C1434 C1432 1.384 . S
C1434 C1435 1.372 . S
C1435 C1434 1.372 . S
C1435 C1436 1.400 . S
C1435 C1440 1.490 . S
C1436 H1426 0.930 . S
C1436 C1435 1.400 . S
C1436 C1439 1.386 . S
H1437 C1453 0.930 . S
H1438 C1454 0.931 . S
C1439 H1427 0.929 . S
C1439 C1433 1.390 . S
C1439 C1436 1.386 . S
C1440 C1435 1.490 . S
C1440 C1442 1.395 . S
C1440 C1443 1.403 . S
H1441 C1447 0.930 . S
C1442 H1428 0.930 . S
C1442 C1440 1.395 . S
C1442 C1445 1.403 . S
C1443 C1440 1.403 . S
C1443 C1444 1.524 . S
C1443 C1447 1.400 . S
C1444 H1429 0.960 . S
C1444 H1430 0.960 . S
C1444 H1431 0.960 . S
C1444 C1443 1.524 . S
C1445 C1442 1.403 . S
C1445 C1446 1.392 . S
C1445 C1449 1.495 . S
C1446 C1445 1.392 . S
C1446 C1447 1.385 . S
C1446 C1448 1.478 . S
C1447 H1441 0.930 . S
C1447 C1443 1.400 . S
C1447 C1446 1.385 . S
C1448 C1446 1.478 . S
C1448 C1450 1.381 . S
C1448 C1454 1.383 . S
C1449 C1445 1.495 . S
C1449 H1455 0.959 . S
C1449 H1456 0.961 . S
C1449 H1457 0.960 . S
C1450 C1448 1.381 . S
C1450 C1451 1.394 . S
C1450 H1458 0.930 . S
C1451 C1450 1.394 . S
C1451 C1452 1.383 . S
C1451 H1459 0.929 . S
C1452 C1451 1.383 . S
C1452 C1453 1.377 . S
C1453 H1437 0.930 . S
C1453 C1452 1.377 . S
C1453 C1454 1.379 . S
C1454 H1438 0.931 . S
C1454 C1448 1.383 . S
C1454 C1453 1.379 . S
H1455 C1449 0.959 . S
H1456 C1449 0.961 . S
H1457 C1449 0.960 . S
H1458 C1450 0.930 . S
H1459 C1451 0.929 . S
H1460 C1468 0.929 . S
H1461 C1470 0.930 . S
H1462 C1472 0.930 . S
H1463 C1475 0.929 . S
H1464 C1478 0.930 . S
H1465 C1480 0.960 . S
H1466 C1480 0.960 . S
H1467 C1480 0.960 . S
C1468 H1460 0.929 . S
C1468 C1469 1.377 . S
C1468 C1470 1.384 . S
C1469 C1468 1.377 . S
C1469 C1475 1.390 . S
C1470 H1461 0.930 . S
C1470 C1468 1.384 . S
C1470 C1471 1.372 . S
C1471 C1470 1.372 . S
C1471 C1472 1.400 . S
C1471 C1476 1.490 . S
C1472 H1462 0.930 . S
C1472 C1471 1.400 . S
C1472 C1475 1.386 . S
H1473 C1489 0.930 . S
H1474 C1490 0.931 . S
C1475 H1463 0.929 . S
C1475 C1469 1.390 . S
C1475 C1472 1.386 . S
C1476 C1471 1.490 . S
C1476 C1478 1.395 . S
C1476 C1479 1.403 . S
H1477 C1483 0.930 . S
C1478 H1464 0.930 . S
C1478 C1476 1.395 . S
C1478 C1481 1.403 . S
C1479 C1476 1.403 . S
C1479 C1480 1.524 . S
C1479 C1483 1.400 . S
C1480 H1465 0.960 . S
C1480 H1466 0.960 . S
C1480 H1467 0.960 . S
C1480 C1479 1.524 . S
C1481 C1478 1.403 . S
C1481 C1482 1.392 . S
C1481 C1485 1.495 . S
C1482 C1481 1.392 . S
C1482 C1483 1.385 . S
C1482 C1484 1.478 . S
C1483 H1477 0.930 . S
C1483 C1479 1.400 . S
C1483 C1482 1.385 . S
C1484 C1482 1.478 . S
C1484 C1486 1.381 . S
C1484 C1490 1.383 . S
C1485 C1481 1.495 . S
C1485 H1491 0.959 . S
C1485 H1492 0.961 . S
C1485 H1493 0.960 . S
C1486 C1484 1.381 . S
C1486 C1487 1.394 . S
C1486 H1494 0.930 . S
C1487 C1486 1.394 . S
C1487 C1488 1.383 . S
C1487 H1495 0.929 . S
C1488 C1487 1.383 . S
C1488 C1489 1.377 . S
C1489 H1473 0.930 . S
C1489 C1488 1.377 . S
C1489 C1490 1.379 . S
C1490 H1474 0.931 . S
C1490 C1484 1.383 . S
C1490 C1489 1.379 . S
H1491 C1485 0.959 . S
H1492 C1485 0.961 . S
H1493 C1485 0.960 . S
H1494 C1486 0.930 . S
H1495 C1487 0.929 . S
H1496 C1504 0.929 . S
H1497 C1506 0.930 . S
H1498 C1508 0.930 . S
H1499 C1511 0.929 . S
H1500 C1514 0.930 . S
H1501 C1516 0.960 . S
H1502 C1516 0.960 . S
H1503 C1516 0.960 . S
C1504 H1496 0.929 . S
C1504 C1505 1.377 . S
C1504 C1506 1.384 . S
C1505 C1504 1.377 . S
C1505 C1511 1.390 . S
C1506 H1497 0.930 . S
C1506 C1504 1.384 . S
C1506 C1507 1.372 . S
C1507 C1506 1.372 . S
C1507 C1508 1.400 . S
C1507 C1512 1.490 . S
C1508 H1498 0.930 . S
C1508 C1507 1.400 . S
C1508 C1511 1.386 . S
H1509 C1525 0.930 . S
H1510 C1526 0.931 . S
C1511 H1499 0.929 . S
C1511 C1505 1.390 . S
C1511 C1508 1.386 . S
C1512 C1507 1.490 . S
C1512 C1514 1.395 . S
C1512 C1515 1.403 . S
H1513 C1519 0.930 . S
C1514 H1500 0.930 . S
C1514 C1512 1.395 . S
C1514 C1517 1.403 . S
C1515 C1512 1.403 . S
C1515 C1516 1.524 . S
C1515 C1519 1.400 . S
C1516 H1501 0.960 . S
C1516 H1502 0.960 . S
C1516 H1503 0.960 . S
C1516 C1515 1.524 . S
C1517 C1514 1.403 . S
C1517 C1518 1.392 . S
C1517 C1521 1.495 . S
C1518 C1517 1.392 . S
C1518 C1519 1.385 . S
C1518 C1520 1.478 . S
C1519 H1513 0.930 . S
C1519 C1515 1.400 . S
C1519 C1518 1.385 . S
C1520 C1518 1.478 . S
C1520 C1522 1.381 . S
C1520 C1526 1.383 . S
C1521 C1517 1.495 . S
C1521 H1527 0.959 . S
C1521 H1528 0.961 . S
C1521 H1529 0.960 . S
C1522 C1520 1.381 . S
C1522 C1523 1.394 . S
C1522 H1530 0.930 . S
C1523 C1522 1.394 . S
C1523 C1524 1.383 . S
C1523 H1531 0.929 . S
C1524 C1523 1.383 . S
C1524 C1525 1.377 . S
C1525 H1509 0.930 . S
C1525 C1524 1.377 . S
C1525 C1526 1.379 . S
C1526 H1510 0.931 . S
C1526 C1520 1.383 . S
C1526 C1525 1.379 . S
H1527 C1521 0.959 . S
H1528 C1521 0.961 . S
H1529 C1521 0.960 . S
H1530 C1522 0.930 . S
H1531 C1523 0.929 . S
H1532 C1540 0.929 . S
H1533 C1542 0.930 . S
H1534 C1544 0.930 . S
H1535 C1547 0.929 . S
H1536 C1550 0.930 . S
H1537 C1552 0.960 . S
H1538 C1552 0.960 . S
H1539 C1552 0.960 . S
C1540 H1532 0.929 . S
C1540 C1541 1.377 . S
C1540 C1542 1.384 . S
C1541 C1540 1.377 . S
C1541 C1547 1.390 . S
C1542 H1533 0.930 . S
C1542 C1540 1.384 . S
C1542 C1543 1.372 . S
C1543 C1542 1.372 . S
C1543 C1544 1.400 . S
C1543 C1548 1.490 . S
C1544 H1534 0.930 . S
C1544 C1543 1.400 . S
C1544 C1547 1.386 . S
H1545 C1561 0.930 . S
H1546 C1562 0.931 . S
C1547 H1535 0.929 . S
C1547 C1541 1.390 . S
C1547 C1544 1.386 . S
C1548 C1543 1.490 . S
C1548 C1550 1.395 . S
C1548 C1551 1.403 . S
H1549 C1555 0.930 . S
C1550 H1536 0.930 . S
C1550 C1548 1.395 . S
C1550 C1553 1.403 . S
C1551 C1548 1.403 . S
C1551 C1552 1.524 . S
C1551 C1555 1.400 . S
C1552 H1537 0.960 . S
C1552 H1538 0.960 . S
C1552 H1539 0.960 . S
C1552 C1551 1.524 . S
C1553 C1550 1.403 . S
C1553 C1554 1.392 . S
C1553 C1557 1.495 . S
C1554 C1553 1.392 . S
C1554 C1555 1.385 . S
C1554 C1556 1.478 . S
C1555 H1549 0.930 . S
C1555 C1551 1.400 . S
C1555 C1554 1.385 . S
C1556 C1554 1.478 . S
C1556 C1558 1.381 . S
C1556 C1562 1.383 . S
C1557 C1553 1.495 . S
C1557 H1563 0.959 . S
C1557 H1564 0.961 . S
C1557 H1565 0.960 . S
C1558 C1556 1.381 . S
C1558 C1559 1.394 . S
C1558 H1566 0.930 . S
C1559 C1558 1.394 . S
C1559 C1560 1.383 . S
C1559 H1567 0.929 . S
C1560 C1559 1.383 . S
C1560 C1561 1.377 . S
C1561 H1545 0.930 . S
C1561 C1560 1.377 . S
C1561 C1562 1.379 . S
C1562 H1546 0.931 . S
C1562 C1556 1.383 . S
C1562 C1561 1.379 . S
H1563 C1557 0.959 . S
H1564 C1557 0.961 . S
H1565 C1557 0.960 . S
H1566 C1558 0.930 . S
H1567 C1559 0.929 . S
H1568 C1576 0.929 . S
H1569 C1578 0.930 . S
H1570 C1580 0.930 . S
H1571 C1583 0.929 . S
H1572 C1586 0.930 . S
H1573 C1588 0.960 . S
H1574 C1588 0.960 . S
H1575 C1588 0.960 . S
C1576 H1568 0.929 . S
C1576 C1577 1.377 . S
C1576 C1578 1.384 . S
C1577 C1576 1.377 . S
C1577 C1583 1.390 . S
C1578 H1569 0.930 . S
C1578 C1576 1.384 . S
C1578 C1579 1.372 . S
C1579 C1578 1.372 . S
C1579 C1580 1.400 . S
C1579 C1584 1.490 . S
C1580 H1570 0.930 . S
C1580 C1579 1.400 . S
C1580 C1583 1.386 . S
H1581 C1597 0.930 . S
H1582 C1598 0.931 . S
C1583 H1571 0.929 . S
C1583 C1577 1.390 . S
C1583 C1580 1.386 . S
C1584 C1579 1.490 . S
C1584 C1586 1.395 . S
C1584 C1587 1.403 . S
H1585 C1591 0.930 . S
C1586 H1572 0.930 . S
C1586 C1584 1.395 . S
C1586 C1589 1.403 . S
C1587 C1584 1.403 . S
C1587 C1588 1.524 . S
C1587 C1591 1.400 . S
C1588 H1573 0.960 . S
C1588 H1574 0.960 . S
C1588 H1575 0.960 . S
C1588 C1587 1.524 . S
C1589 C1586 1.403 . S
C1589 C1590 1.392 . S
C1589 C1593 1.495 . S
C1590 C1589 1.392 . S
C1590 C1591 1.385 . S
C1590 C1592 1.478 . S
C1591 H1585 0.930 . S
C1591 C1587 1.400 . S
C1591 C1590 1.385 . S
C1592 C1590 1.478 . S
C1592 C1594 1.381 . S
C1592 C1598 1.383 . S
C1593 C1589 1.495 . S
C1593 H1599 0.959 . S
C1593 H1600 0.961 . S
C1593 H1601 0.960 . S
C1594 C1592 1.381 . S
C1594 C1595 1.394 . S
C1594 H1602 0.930 . S
C1595 C1594 1.394 . S
C1595 C1596 1.383 . S
C1595 H1603 0.929 . S
C1596 C1595 1.383 . S
C1596 C1597 1.377 . S
C1597 H1581 0.930 . S
C1597 C1596 1.377 . S
C1597 C1598 1.379 . S
C1598 H1582 0.931 . S
C1598 C1592 1.383 . S
C1598 C1597 1.379 . S
H1599 C1593 0.959 . S
H1600 C1593 0.961 . S
H1601 C1593 0.960 . S
H1602 C1594 0.930 . S
H1603 C1595 0.929 . S
H1604 C1612 0.929 . S
H1605 C1614 0.930 . S
H1606 C1616 0.930 . S
H1607 C1619 0.929 . S
H1608 C1622 0.930 . S
H1609 C1624 0.960 . S
H1610 C1624 0.960 . S
H1611 C1624 0.960 . S
C1612 H1604 0.929 . S
C1612 C1613 1.377 . S
C1612 C1614 1.384 . S
C1613 C1612 1.377 . S
C1613 C1619 1.390 . S
C1614 H1605 0.930 . S
C1614 C1612 1.384 . S
C1614 C1615 1.372 . S
C1615 C1614 1.372 . S
C1615 C1616 1.400 . S
C1615 C1620 1.490 . S
C1616 H1606 0.930 . S
C1616 C1615 1.400 . S
C1616 C1619 1.386 . S
H1617 C1633 0.930 . S
H1618 C1634 0.931 . S
C1619 H1607 0.929 . S
C1619 C1613 1.390 . S
C1619 C1616 1.386 . S
C1620 C1615 1.490 . S
C1620 C1622 1.395 . S
C1620 C1623 1.403 . S
H1621 C1627 0.930 . S
C1622 H1608 0.930 . S
C1622 C1620 1.395 . S
C1622 C1625 1.403 . S
C1623 C1620 1.403 . S
C1623 C1624 1.524 . S
C1623 C1627 1.400 . S
C1624 H1609 0.960 . S
C1624 H1610 0.960 . S
C1624 H1611 0.960 . S
C1624 C1623 1.524 . S
C1625 C1622 1.403 . S
C1625 C1626 1.392 . S
C1625 C1629 1.495 . S
C1626 C1625 1.392 . S
C1626 C1627 1.385 . S
C1626 C1628 1.478 . S
C1627 H1621 0.930 . S
C1627 C1623 1.400 . S
C1627 C1626 1.385 . S
C1628 C1626 1.478 . S
C1628 C1630 1.381 . S
C1628 C1634 1.383 . S
C1629 C1625 1.495 . S
C1629 H1635 0.959 . S
C1629 H1636 0.961 . S
C1629 H1637 0.960 . S
C1630 C1628 1.381 . S
C1630 C1631 1.394 . S
C1630 H1638 0.930 . S
C1631 C1630 1.394 . S
C1631 C1632 1.383 . S
C1631 H1639 0.929 . S
C1632 C1631 1.383 . S
C1632 C1633 1.377 . S
C1633 H1617 0.930 . S
C1633 C1632 1.377 . S
C1633 C1634 1.379 . S
C1634 H1618 0.931 . S
C1634 C1628 1.383 . S
C1634 C1633 1.379 . S
H1635 C1629 0.959 . S
H1636 C1629 0.961 . S
H1637 C1629 0.960 . S
H1638 C1630 0.930 . S
H1639 C1631 0.929 . S
H1640 C1648 0.929 . S
H1641 C1650 0.930 . S
H1642 C1652 0.930 . S
H1643 C1655 0.929 . S
H1644 C1658 0.930 . S
H1645 C1660 0.960 . S
H1646 C1660 0.960 . S
H1647 C1660 0.960 . S
C1648 H1640 0.929 . S
C1648 C1649 1.377 . S
C1648 C1650 1.384 . S
C1649 C1648 1.377 . S
C1649 C1655 1.390 . S
C1650 H1641 0.930 . S
C1650 C1648 1.384 . S
C1650 C1651 1.372 . S
C1651 C1650 1.372 . S
C1651 C1652 1.400 . S
C1651 C1656 1.490 . S
C1652 H1642 0.930 . S
C1652 C1651 1.400 . S
C1652 C1655 1.386 . S
H1653 C1669 0.930 . S
H1654 C1670 0.931 . S
C1655 H1643 0.929 . S
C1655 C1649 1.390 . S
C1655 C1652 1.386 . S
C1656 C1651 1.490 . S
C1656 C1658 1.395 . S
C1656 C1659 1.403 . S
H1657 C1663 0.930 . S
C1658 H1644 0.930 . S
C1658 C1656 1.395 . S
C1658 C1661 1.403 . S
C1659 C1656 1.403 . S
C1659 C1660 1.524 . S
C1659 C1663 1.400 . S
C1660 H1645 0.960 . S
C1660 H1646 0.960 . S
C1660 H1647 0.960 . S
C1660 C1659 1.524 . S
C1661 C1658 1.403 . S
C1661 C1662 1.392 . S
C1661 C1665 1.495 . S
C1662 C1661 1.392 . S
C1662 C1663 1.385 . S
C1662 C1664 1.478 . S
C1663 H1657 0.930 . S
C1663 C1659 1.400 . S
C1663 C1662 1.385 . S
C1664 C1662 1.478 . S
C1664 C1666 1.381 . S
C1664 C1670 1.383 . S
C1665 C1661 1.495 . S
C1665 H1671 0.959 . S
C1665 H1672 0.961 . S
C1665 H1673 0.960 . S
C1666 C1664 1.381 . S
C1666 C1667 1.394 . S
C1666 H1674 0.930 . S
C1667 C1666 1.394 . S
C1667 C1668 1.383 . S
C1667 H1675 0.929 . S
C1668 C1667 1.383 . S
C1668 C1669 1.377 . S
C1669 H1653 0.930 . S
C1669 C1668 1.377 . S
C1669 C1670 1.379 . S
C1670 H1654 0.931 . S
C1670 C1664 1.383 . S
C1670 C1669 1.379 . S
H1671 C1665 0.959 . S
H1672 C1665 0.961 . S
H1673 C1665 0.960 . S
H1674 C1666 0.930 . S
H1675 C1667 0.929 . S
H1676 C1684 0.929 . S
H1677 C1686 0.930 . S
H1678 C1688 0.930 . S
H1679 C1691 0.929 . S
H1680 C1694 0.930 . S
H1681 C1696 0.960 . S
H1682 C1696 0.960 . S
H1683 C1696 0.960 . S
C1684 H1676 0.929 . S
C1684 C1685 1.377 . S
C1684 C1686 1.384 . S
C1685 C1684 1.377 . S
C1685 C1691 1.390 . S
C1686 H1677 0.930 . S
C1686 C1684 1.384 . S
C1686 C1687 1.372 . S
C1687 C1686 1.372 . S
C1687 C1688 1.400 . S
C1687 C1692 1.490 . S
C1688 H1678 0.930 . S
C1688 C1687 1.400 . S
C1688 C1691 1.386 . S
H1689 C1705 0.930 . S
H1690 C1706 0.931 . S
C1691 H1679 0.929 . S
C1691 C1685 1.390 . S
C1691 C1688 1.386 . S
C1692 C1687 1.490 . S
C1692 C1694 1.395 . S
C1692 C1695 1.403 . S
H1693 C1699 0.930 . S
C1694 H1680 0.930 . S
C1694 C1692 1.395 . S
C1694 C1697 1.403 . S
C1695 C1692 1.403 . S
C1695 C1696 1.524 . S
C1695 C1699 1.400 . S
C1696 H1681 0.960 . S
C1696 H1682 0.960 . S
C1696 H1683 0.960 . S
C1696 C1695 1.524 . S
C1697 C1694 1.403 . S
C1697 C1698 1.392 . S
C1697 C1701 1.495 . S
C1698 C1697 1.392 . S
C1698 C1699 1.385 . S
C1698 C1700 1.478 . S
C1699 H1693 0.930 . S
C1699 C1695 1.400 . S
C1699 C1698 1.385 . S
C1700 C1698 1.478 . S
C1700 C1702 1.381 . S
C1700 C1706 1.383 . S
C1701 C1697 1.495 . S
C1701 H1707 0.959 . S
C1701 H1708 0.961 . S
C1701 H1709 0.960 . S
C1702 C1700 1.381 . S
C1702 C1703 1.394 . S
C1702 H1710 0.930 . S
C1703 C1702 1.394 . S
C1703 C1704 1.383 . S
C1703 H1711 0.929 . S
C1704 C1703 1.383 . S
C1704 C1705 1.377 . S
C1705 H1689 0.930 . S
C1705 C1704 1.377 . S
C1705 C1706 1.379 . S
C1706 H1690 0.931 . S
C1706 C1700 1.383 . S
C1706 C1705 1.379 . S
H1707 C1701 0.959 . S
H1708 C1701 0.961 . S
H1709 C1701 0.960 . S
H1710 C1702 0.930 . S
H1711 C1703 0.929 . S
H1712 C1720 0.929 . S
H1713 C1722 0.930 . S
H1714 C1724 0.930 . S
H1715 C1727 0.929 . S
H1716 C1730 0.930 . S
H1717 C1732 0.960 . S
H1718 C1732 0.960 . S
H1719 C1732 0.960 . S
C1720 H1712 0.929 . S
C1720 C1721 1.377 . S
C1720 C1722 1.384 . S
C1721 C1720 1.377 . S
C1721 C1727 1.390 . S
C1722 H1713 0.930 . S
C1722 C1720 1.384 . S
C1722 C1723 1.372 . S
C1723 C1722 1.372 . S
C1723 C1724 1.400 . S
C1723 C1728 1.490 . S
C1724 H1714 0.930 . S
C1724 C1723 1.400 . S
C1724 C1727 1.386 . S
H1725 C1741 0.936 . S
H1726 C1742 0.931 . S
C1727 H1715 0.929 . S
C1727 C1721 1.390 . S
C1727 C1724 1.386 . S
C1728 C1723 1.490 . S
C1728 C1730 1.395 . S
C1728 C1731 1.403 . S
H1729 C1735 0.930 . S
C1730 H1716 0.930 . S
C1730 C1728 1.395 . S
C1730 C1733 1.403 . S
C1731 C1728 1.403 . S
C1731 C1732 1.524 . S
C1731 C1735 1.400 . S
C1732 H1717 0.960 . S
C1732 H1718 0.960 . S
C1732 H1719 0.960 . S
C1732 C1731 1.524 . S
C1733 C1730 1.403 . S
C1733 C1734 1.392 . S
C1733 C1737 1.495 . S
C1734 C1733 1.392 . S
C1734 C1735 1.385 . S
C1734 C1736 1.478 . S
C1735 H1729 0.930 . S
C1735 C1731 1.400 . S
C1735 C1734 1.385 . S
C1736 C1734 1.478 . S
C1736 C1738 1.381 . S
C1736 C1742 1.383 . S
C1737 C1733 1.495 . S
C1737 H1743 0.959 . S
C1737 H1744 0.961 . S
C1737 H1745 0.960 . S
C1738 C1736 1.381 . S
C1738 C1739 1.394 . S
C1738 H1746 0.930 . S
C1739 C1738 1.394 . S
C1739 C1740 1.383 1_556 S
C1739 H1747 0.929 1_556 S
C1740 C1739 1.383 1_554 S
C1740 C1741 1.383 . S
C1741 H1725 0.936 . S
C1741 C1740 1.383 . S
C1741 C1742 1.367 1_554 S
C1742 H1726 0.931 . S
C1742 C1736 1.383 . S
C1742 C1741 1.367 1_556 S
H1743 C1737 0.959 . S
H1744 C1737 0.961 . S
H1745 C1737 0.960 . S
H1746 C1738 0.930 . S
H1747 C1739 0.929 1_554 S
H1748 C1756 0.929 . S
H1749 C1758 0.930 . S
H1750 C1760 0.930 . S
H1751 C1763 0.929 . S
H1752 C1766 0.930 . S
H1753 C1768 0.960 . S
H1754 C1768 0.960 . S
H1755 C1768 0.960 . S
C1756 H1748 0.929 . S
C1756 C1757 1.377 . S
C1756 C1758 1.384 . S
C1757 C1756 1.377 . S
C1757 C1763 1.390 . S
C1758 H1749 0.930 . S
C1758 C1756 1.384 . S
C1758 C1759 1.372 . S
C1759 C1758 1.372 . S
C1759 C1760 1.400 . S
C1759 C1764 1.490 . S
C1760 H1750 0.930 . S
C1760 C1759 1.400 . S
C1760 C1763 1.386 . S
H1761 C1777 0.930 . S
H1762 C1778 0.931 . S
C1763 H1751 0.929 . S
C1763 C1757 1.390 . S
C1763 C1760 1.386 . S
C1764 C1759 1.490 . S
C1764 C1766 1.395 . S
C1764 C1767 1.403 . S
H1765 C1771 0.930 . S
C1766 H1752 0.930 . S
C1766 C1764 1.395 . S
C1766 C1769 1.403 . S
C1767 C1764 1.403 . S
C1767 C1768 1.524 . S
C1767 C1771 1.400 . S
C1768 H1753 0.960 . S
C1768 H1754 0.960 . S
C1768 H1755 0.960 . S
C1768 C1767 1.524 . S
C1769 C1766 1.403 . S
C1769 C1770 1.392 . S
C1769 C1773 1.495 . S
C1770 C1769 1.392 . S
C1770 C1771 1.385 . S
C1770 C1772 1.478 . S
C1771 H1765 0.930 . S
C1771 C1767 1.400 . S
C1771 C1770 1.385 . S
C1772 C1770 1.478 . S
C1772 C1774 1.381 . S
C1772 C1778 1.383 . S
C1773 C1769 1.495 . S
C1773 H1779 0.959 . S
C1773 H1780 0.961 . S
C1773 H1781 0.960 . S
C1774 C1772 1.381 . S
C1774 C1775 1.394 . S
C1774 H1782 0.930 . S
C1775 C1774 1.394 . S
C1775 C1776 1.383 1_554 S
C1775 H1783 0.929 . S
C1776 C1775 1.383 1_556 S
C1776 C1777 1.377 . S
C1777 H1761 0.930 . S
C1777 C1776 1.377 . S
C1777 C1778 1.379 1_556 S
C1778 H1762 0.931 . S
C1778 C1772 1.383 . S
C1778 C1777 1.379 1_554 S
H1779 C1773 0.959 . S
H1780 C1773 0.961 . S
H1781 C1773 0.960 . S
H1782 C1774 0.930 . S
H1783 C1775 0.929 . S
H1784 C1792 0.929 . S
H1785 C1794 0.930 . S
H1786 C1796 0.930 . S
H1787 C1799 0.929 . S
H1788 C1802 0.930 . S
H1789 C1804 0.960 . S
H1790 C1804 0.960 . S
H1791 C1804 0.960 . S
C1792 H1784 0.929 . S
C1792 C1793 1.377 . S
C1792 C1794 1.384 1_554 S
C1793 C1792 1.377 . S
C1793 C1799 1.390 1_554 S
C1794 H1785 0.930 . S
C1794 C1792 1.384 1_556 S
C1794 C1795 1.372 . S
C1795 C1794 1.372 . S
C1795 C1796 1.400 . S
C1795 C1800 1.490 . S
C1796 H1786 0.930 . S
C1796 C1795 1.400 . S
C1796 C1799 1.386 . S
H1797 C1813 0.930 . S
H1798 C1814 0.931 . S
C1799 H1787 0.929 . S
C1799 C1793 1.390 1_556 S
C1799 C1796 1.386 . S
C1800 C1795 1.490 . S
C1800 C1802 1.395 . S
C1800 C1803 1.403 . S
H1801 C1807 0.930 . S
C1802 H1788 0.930 . S
C1802 C1800 1.395 . S
C1802 C1805 1.403 . S
C1803 C1800 1.403 . S
C1803 C1804 1.524 . S
C1803 C1807 1.400 . S
C1804 H1789 0.960 . S
C1804 H1790 0.960 . S
C1804 H1791 0.960 . S
C1804 C1803 1.524 . S
C1805 C1802 1.403 . S
C1805 C1806 1.392 . S
C1805 C1809 1.495 . S
C1806 C1805 1.392 . S
C1806 C1807 1.385 . S
C1806 C1808 1.478 . S
C1807 H1801 0.930 . S
C1807 C1803 1.400 . S
C1807 C1806 1.385 . S
C1808 C1806 1.478 . S
C1808 C1810 1.381 . S
C1808 C1814 1.383 . S
C1809 C1805 1.495 . S
C1809 H1815 0.959 . S
C1809 H1816 0.961 . S
C1809 H1817 0.960 . S
C1810 C1808 1.381 . S
C1810 C1811 1.394 . S
C1810 H1818 0.930 . S
C1811 C1810 1.394 . S
C1811 C1812 1.383 . S
C1811 H1819 0.929 . S
C1812 C1811 1.383 . S
C1812 C1813 1.377 . S
C1813 H1797 0.930 . S
C1813 C1812 1.377 . S
C1813 C1814 1.379 . S
C1814 H1798 0.931 . S
C1814 C1808 1.383 . S
C1814 C1813 1.379 . S
H1815 C1809 0.959 . S
H1816 C1809 0.961 . S
H1817 C1809 0.960 . S
H1818 C1810 0.930 . S
H1819 C1811 0.929 . S
H1820 C1828 0.929 . S
H1821 C1830 0.930 . S
H1822 C1832 0.930 . S
H1823 C1835 0.929 . S
H1824 C1838 0.930 . S
H1825 C1840 0.960 . S
H1826 C1840 0.960 . S
H1827 C1840 0.960 . S
C1828 H1820 0.929 . S
C1828 C1829 1.377 . S
C1828 C1830 1.384 . S
C1829 C1828 1.377 . S
C1829 C1835 1.390 . S
C1830 H1821 0.930 . S
C1830 C1828 1.384 . S
C1830 C1831 1.372 . S
C1831 C1830 1.372 . S
C1831 C1832 1.400 . S
C1831 C1836 1.490 . S
C1832 H1822 0.930 . S
C1832 C1831 1.400 . S
C1832 C1835 1.386 . S
H1833 C1849 0.930 . S
H1834 C1850 0.931 . S
C1835 H1823 0.929 . S
C1835 C1829 1.390 . S
C1835 C1832 1.386 . S
C1836 C1831 1.490 . S
C1836 C1838 1.395 . S
C1836 C1839 1.403 . S
H1837 C1843 0.930 . S
C1838 H1824 0.930 . S
C1838 C1836 1.395 . S
C1838 C1841 1.403 . S
C1839 C1836 1.403 . S
C1839 C1840 1.524 . S
C1839 C1843 1.400 . S
C1840 H1825 0.960 . S
C1840 H1826 0.960 . S
C1840 H1827 0.960 . S
C1840 C1839 1.524 . S
C1841 C1838 1.403 . S
C1841 C1842 1.392 . S
C1841 C1845 1.495 . S
C1842 C1841 1.392 . S
C1842 C1843 1.385 . S
C1842 C1844 1.478 . S
C1843 H1837 0.930 . S
C1843 C1839 1.400 . S
C1843 C1842 1.385 . S
C1844 C1842 1.478 . S
C1844 C1846 1.381 . S
C1844 C1850 1.383 . S
C1845 C1841 1.495 . S
C1845 H1851 0.959 . S
C1845 H1852 0.961 . S
C1845 H1853 0.960 . S
C1846 C1844 1.381 . S
C1846 C1847 1.394 . S
C1846 H1854 0.930 . S
C1847 C1846 1.394 . S
C1847 C1848 1.383 1_554 S
C1847 H1855 0.929 . S
C1848 C1847 1.383 1_556 S
C1848 C1849 1.377 . S
C1849 H1833 0.930 . S
C1849 C1848 1.377 . S
C1849 C1850 1.379 1_556 S
C1850 H1834 0.931 . S
C1850 C1844 1.383 . S
C1850 C1849 1.379 1_554 S
H1851 C1845 0.959 . S
H1852 C1845 0.961 . S
H1853 C1845 0.960 . S
H1854 C1846 0.930 . S
H1855 C1847 0.929 . S
H1856 C1864 0.929 . S
H1857 C1866 0.930 . S
H1858 C1868 0.930 . S
H1859 C1871 0.929 . S
H1860 C1874 0.930 . S
H1861 C1876 0.960 . S
H1862 C1876 0.960 . S
H1863 C1876 0.960 . S
C1864 H1856 0.929 . S
C1864 C1865 1.377 . S
C1864 C1866 1.384 . S
C1865 C1864 1.377 . S
C1865 C1871 1.390 . S
C1866 H1857 0.930 . S
C1866 C1864 1.384 . S
C1866 C1867 1.372 . S
C1867 C1866 1.372 . S
C1867 C1868 1.400 . S
C1867 C1872 1.490 . S
C1868 H1858 0.930 . S
C1868 C1867 1.400 . S
C1868 C1871 1.386 . S
H1869 C1885 0.930 . S
H1870 C1886 0.931 . S
C1871 H1859 0.929 . S
C1871 C1865 1.390 . S
C1871 C1868 1.386 . S
C1872 C1867 1.490 . S
C1872 C1874 1.395 . S
C1872 C1875 1.403 . S
H1873 C1879 0.930 . S
C1874 H1860 0.930 . S
C1874 C1872 1.395 . S
C1874 C1877 1.403 . S
C1875 C1872 1.403 . S
C1875 C1876 1.524 . S
C1875 C1879 1.400 . S
C1876 H1861 0.960 . S
C1876 H1862 0.960 . S
C1876 H1863 0.960 . S
C1876 C1875 1.524 . S
C1877 C1874 1.403 . S
C1877 C1878 1.392 . S
C1877 C1881 1.495 . S
C1878 C1877 1.392 . S
C1878 C1879 1.385 . S
C1878 C1880 1.478 . S
C1879 H1873 0.930 . S
C1879 C1875 1.400 . S
C1879 C1878 1.385 . S
C1880 C1878 1.478 . S
C1880 C1882 1.381 . S
C1880 C1886 1.383 . S
C1881 C1877 1.495 . S
C1881 H1887 0.959 . S
C1881 H1888 0.961 . S
C1881 H1889 0.960 . S
C1882 C1880 1.381 . S
C1882 C1883 1.394 . S
C1882 H1890 0.930 . S
C1883 C1882 1.394 . S
C1883 C1884 1.383 . S
C1883 H1891 0.929 . S
C1884 C1883 1.383 . S
C1884 C1885 1.377 . S
C1885 H1869 0.930 . S
C1885 C1884 1.377 . S
C1885 C1886 1.379 . S
C1886 H1870 0.931 . S
C1886 C1880 1.383 . S
C1886 C1885 1.379 . S
H1887 C1881 0.959 . S
H1888 C1881 0.961 . S
H1889 C1881 0.960 . S
H1890 C1882 0.930 . S
H1891 C1883 0.929 . S
H1892 C1900 0.929 . S
H1893 C1902 0.930 . S
H1894 C1904 0.930 . S
H1895 C1907 0.929 . S
H1896 C1910 0.930 . S
H1897 C1912 0.960 . S
H1898 C1912 0.960 . S
H1899 C1912 0.960 . S
C1900 H1892 0.929 . S
C1900 C1901 1.377 . S
C1900 C1902 1.384 . S
C1901 C1900 1.377 . S
C1901 C1907 1.390 . S
C1902 H1893 0.930 . S
C1902 C1900 1.384 . S
C1902 C1903 1.372 . S
C1903 C1902 1.372 . S
C1903 C1904 1.400 . S
C1903 C1908 1.490 . S
C1904 H1894 0.930 . S
C1904 C1903 1.400 . S
C1904 C1907 1.386 . S
H1905 C1921 0.930 . S
H1906 C1922 0.931 . S
C1907 H1895 0.929 . S
C1907 C1901 1.390 . S
C1907 C1904 1.386 . S
C1908 C1903 1.490 . S
C1908 C1910 1.395 . S
C1908 C1911 1.403 . S
H1909 C1915 0.930 . S
C1910 H1896 0.930 . S
C1910 C1908 1.395 . S
C1910 C1913 1.403 . S
C1911 C1908 1.403 . S
C1911 C1912 1.524 . S
C1911 C1915 1.400 . S
C1912 H1897 0.960 . S
C1912 H1898 0.960 . S
C1912 H1899 0.960 . S
C1912 C1911 1.524 . S
C1913 C1910 1.403 . S
C1913 C1914 1.392 . S
C1913 C1917 1.495 . S
C1914 C1913 1.392 . S
C1914 C1915 1.385 . S
C1914 C1916 1.478 . S
C1915 H1909 0.930 . S
C1915 C1911 1.400 . S
C1915 C1914 1.385 . S
C1916 C1914 1.478 . S
C1916 C1918 1.381 . S
C1916 C1922 1.383 . S
C1917 C1913 1.495 . S
C1917 H1923 0.959 . S
C1917 H1924 0.961 . S
C1917 H1925 0.960 . S
C1918 C1916 1.381 . S
C1918 C1919 1.394 . S
C1918 H1926 0.930 . S
C1919 C1918 1.394 . S
C1919 C1920 1.383 . S
C1919 H1927 0.929 . S
C1920 C1919 1.383 . S
C1920 C1921 1.377 . S
C1921 H1905 0.930 . S
C1921 C1920 1.377 . S
C1921 C1922 1.379 . S
C1922 H1906 0.931 . S
C1922 C1916 1.383 . S
C1922 C1921 1.379 . S
H1923 C1917 0.959 . S
H1924 C1917 0.961 . S
H1925 C1917 0.960 . S
H1926 C1918 0.930 . S
H1927 C1919 0.929 . S
H1928 C1936 0.929 . S
H1929 C1938 0.930 . S
H1930 C1940 0.930 . S
H1931 C1943 0.929 . S
H1932 C1946 0.930 . S
H1933 C1948 0.960 . S
H1934 C1948 0.960 . S
H1935 C1948 0.960 . S
C1936 H1928 0.929 . S
C1936 C1937 1.377 . S
C1936 C1938 1.384 . S
C1937 C1936 1.377 . S
C1937 C1943 1.390 . S
C1938 H1929 0.930 . S
C1938 C1936 1.384 . S
C1938 C1939 1.372 . S
C1939 C1938 1.372 . S
C1939 C1940 1.400 . S
C1939 C1944 1.490 . S
C1940 H1930 0.930 . S
C1940 C1939 1.400 . S
C1940 C1943 1.386 . S
H1941 C1957 0.930 . S
H1942 C1958 0.931 . S
C1943 H1931 0.929 . S
C1943 C1937 1.390 . S
C1943 C1940 1.386 . S
C1944 C1939 1.490 . S
C1944 C1946 1.395 . S
C1944 C1947 1.403 . S
H1945 C1951 0.930 . S
C1946 H1932 0.930 . S
C1946 C1944 1.395 . S
C1946 C1949 1.403 . S
C1947 C1944 1.403 . S
C1947 C1948 1.524 . S
C1947 C1951 1.400 . S
C1948 H1933 0.960 . S
C1948 H1934 0.960 . S
C1948 H1935 0.960 . S
C1948 C1947 1.524 . S
C1949 C1946 1.403 . S
C1949 C1950 1.392 . S
C1949 C1953 1.495 . S
C1950 C1949 1.392 . S
C1950 C1951 1.385 . S
C1950 C1952 1.478 . S
C1951 H1945 0.930 . S
C1951 C1947 1.400 . S
C1951 C1950 1.385 . S
C1952 C1950 1.478 . S
C1952 C1954 1.381 . S
C1952 C1958 1.383 . S
C1953 C1949 1.495 . S
C1953 H1959 0.959 . S
C1953 H1960 0.961 . S
C1953 H1961 0.960 . S
C1954 C1952 1.381 . S
C1954 C1955 1.394 . S
C1954 H1962 0.930 . S
C1955 C1954 1.394 . S
C1955 C1956 1.383 . S
C1955 H1963 0.929 . S
C1956 C1955 1.383 . S
C1956 C1957 1.377 . S
C1957 H1941 0.930 . S
C1957 C1956 1.377 . S
C1957 C1958 1.379 . S
C1958 H1942 0.931 . S
C1958 C1952 1.383 . S
C1958 C1957 1.379 . S
H1959 C1953 0.959 . S
H1960 C1953 0.961 . S
H1961 C1953 0.960 . S
H1962 C1954 0.930 . S
H1963 C1955 0.929 . S
H1964 C1972 0.929 . S
H1965 C1974 0.930 . S
H1966 C1976 0.930 . S
H1967 C1979 0.929 . S
H1968 C1982 0.930 . S
H1969 C1984 0.960 . S
H1970 C1984 0.960 . S
H1971 C1984 0.960 . S
C1972 H1964 0.929 . S
C1972 C1973 1.377 . S
C1972 C1974 1.384 . S
C1973 C1972 1.377 . S
C1973 C1979 1.390 . S
C1974 H1965 0.930 . S
C1974 C1972 1.384 . S
C1974 C1975 1.372 . S
C1975 C1974 1.372 . S
C1975 C1976 1.400 . S
C1975 C1980 1.490 . S
C1976 H1966 0.930 . S
C1976 C1975 1.400 . S
C1976 C1979 1.386 . S
H1977 C1993 0.930 . S
H1978 C1994 0.931 . S
C1979 H1967 0.929 . S
C1979 C1973 1.390 . S
C1979 C1976 1.386 . S
C1980 C1975 1.490 . S
C1980 C1982 1.395 . S
C1980 C1983 1.403 . S
H1981 C1987 0.930 . S
C1982 H1968 0.930 . S
C1982 C1980 1.395 . S
C1982 C1985 1.403 . S
C1983 C1980 1.403 . S
C1983 C1984 1.524 . S
C1983 C1987 1.400 . S
C1984 H1969 0.960 . S
C1984 H1970 0.960 . S
C1984 H1971 0.960 . S
C1984 C1983 1.524 . S
C1985 C1982 1.403 . S
C1985 C1986 1.392 . S
C1985 C1989 1.495 . S
C1986 C1985 1.392 . S
C1986 C1987 1.385 . S
C1986 C1988 1.478 . S
C1987 H1981 0.930 . S
C1987 C1983 1.400 . S
C1987 C1986 1.385 . S
C1988 C1986 1.478 . S
C1988 C1990 1.381 . S
C1988 C1994 1.383 . S
C1989 C1985 1.495 . S
C1989 H1995 0.959 . S
C1989 H1996 0.961 . S
C1989 H1997 0.960 . S
C1990 C1988 1.381 . S
C1990 C1991 1.394 . S
C1990 H1998 0.930 . S
C1991 C1990 1.394 . S
C1991 C1992 1.383 . S
C1991 H1999 0.929 . S
C1992 C1991 1.383 . S
C1992 C1993 1.377 . S
C1993 H1977 0.930 . S
C1993 C1992 1.377 . S
C1993 C1994 1.379 . S
C1994 H1978 0.931 . S
C1994 C1988 1.383 . S
C1994 C1993 1.379 . S
H1995 C1989 0.959 . S
H1996 C1989 0.961 . S
H1997 C1989 0.960 . S
H1998 C1990 0.930 . S
H1999 C1991 0.929 . S
C857 C612 1.724 . S
C876 C38 1.752 . S
C893 C91 1.751 . S
C912 C453 1.707 . S
C929 C144 1.751 . S
C948 C506 1.728 . S
C965 C559 1.719 . S
C984 C197 1.744 . S
C1001 C250 1.752 . S
C1020 C294 1.711 . S
C1037 C303 1.753 . S
C1056 C347 1.735 . S
C1073 C400 1.724 . S
C1092 C356 1.753 . S
C1109 C241 1.725 . S
C1128 C409 1.750 . S
C1145 C188 1.724 . S
C1164 C462 1.752 . S
C1181 C515 1.751 . S
C1200 C29 1.704 . S
C1217 C82 1.724 . S
C1236 C568 1.751 . S
C1253 C621 1.753 . S
C1272 C135 1.734 . S
C1289 C674 1.751 . S
C1308 C718 1.727 . S
C1325 C727 1.753 . S
C1344 C771 1.734 . S
C1361 C824 1.725 . S
C1380 C780 1.751 . S
C1397 C665 1.725 . S
C1416 C833 1.751 . S
C1433 C251 1.336 . S
C1452 C39 1.330 . S
C1469 C92 1.335 . S
C1488 C304 1.312 . S
C1505 C145 1.341 . S
C1524 C357 1.350 . S
C1541 C410 1.338 . S
C1560 C198 1.330 . S
C1577 C463 1.336 . S
C1596 C675 1.327 . S
C1613 C728 1.335 . S
C1632 C516 1.351 . S
C1649 C569 1.335 . S
C1668 C781 1.325 . S
C1685 C834 1.338 . S
C1704 C622 1.319 . S
C1721 C764 2.207 . S
C1740 C22 2.212 . S
C1757 C817 2.199 . S
C1776 C75 2.181 . S
C1793 C128 2.203 . S
C1812 C658 2.192 . S
C1829 C711 2.200 . S
C1848 C181 2.199 . S
C1865 C552 2.206 . S
C1884 C234 2.211 . S
C1901 C605 2.198 . S
C1920 C287 2.207 . S
C1937 C340 2.205 . S
C1956 C446 2.206 . S
C1973 C499 2.200 . S
C1992 C393 2.185 . S
