# Generated by pormake.
# Topology noo, (5)-cn, num edge types: 1
# Building blocks:
#     Node 0, Type 0, BuildingBlock: BEQFEK_clean_sbu_0, # of connection points: 5
#     Node 1, Type 0, BuildingBlock: BEQFEK_clean_sbu_0, # of connection points: 5
#     Node 2, Type 0, BuildingBlock: BEQFEK_clean_sbu_0, # of connection points: 5
#     Node 3, Type 0, BuildingBlock: BEQFEK_clean_sbu_0, # of connection points: 5
#     Node 4, Type 0, BuildingBlock: BEQFEK_clean_sbu_0, # of connection points: 5
#     Node 5, Type 0, BuildingBlock: BEQFEK_clean_sbu_0, # of connection points: 5
#     Node 6, Type 0, BuildingBlock: BEQFEK_clean_sbu_0, # of connection points: 5
#     Node 7, Type 0, BuildingBlock: BEQFEK_clean_sbu_0, # of connection points: 5
#     Edge 8, Type (0, 0), BuildingBlock: KIFKEQ_clean_linker_1, # of connection points: 2
#     Edge 9, Type (0, 0), BuildingBlock: KIFKEQ_clean_linker_1, # of connection points: 2
#     Edge 10, Type (0, 0), BuildingBlock: KIFKEQ_clean_linker_1, # of connection points: 2
#     Edge 11, Type (0, 0), BuildingBlock: KIFKEQ_clean_linker_1, # of connection points: 2
#     Edge 12, Type (0, 0), BuildingBlock: KIFKEQ_clean_linker_1, # of connection points: 2
#     Edge 13, Type (0, 0), BuildingBlock: KIFKEQ_clean_linker_1, # of connection points: 2
#     Edge 14, Type (0, 0), BuildingBlock: KIFKEQ_clean_linker_1, # of connection points: 2
#     Edge 15, Type (0, 0), BuildingBlock: KIFKEQ_clean_linker_1, # of connection points: 2
#     Edge 16, Type (0, 0), BuildingBlock: KIFKEQ_clean_linker_1, # of connection points: 2
#     Edge 17, Type (0, 0), BuildingBlock: KIFKEQ_clean_linker_1, # of connection points: 2
#     Edge 18, Type (0, 0), BuildingBlock: KIFKEQ_clean_linker_1, # of connection points: 2
#     Edge 19, Type (0, 0), BuildingBlock: KIFKEQ_clean_linker_1, # of connection points: 2
#     Edge 20, Type (0, 0), BuildingBlock: KIFKEQ_clean_linker_1, # of connection points: 2
#     Edge 21, Type (0, 0), BuildingBlock: KIFKEQ_clean_linker_1, # of connection points: 2
#     Edge 22, Type (0, 0), BuildingBlock: KIFKEQ_clean_linker_1, # of connection points: 2
#     Edge 23, Type (0, 0), BuildingBlock: KIFKEQ_clean_linker_1, # of connection points: 2
#     Edge 24, Type (0, 0), BuildingBlock: KIFKEQ_clean_linker_1, # of connection points: 2
#     Edge 25, Type (0, 0), BuildingBlock: KIFKEQ_clean_linker_1, # of connection points: 2
#     Edge 26, Type (0, 0), BuildingBlock: KIFKEQ_clean_linker_1, # of connection points: 2
#     Edge 27, Type (0, 0), BuildingBlock: KIFKEQ_clean_linker_1, # of connection points: 2
# Relax obj value: 0.154
# Max RMSD: 0.152
# Mean RMSD: 0.152
data_MOF--net-noo--node1-BEQFEK_clean_sbu_0--edge1-KIFKEQ_clean_linker_1
_symmetry_space_group_name_H-M    P1
_symmetry_Int_Tables_number       1
_symmetry_cell_setting            triclinic
loop_
_symmetry_equiv_pos_as_xyz
'x, y, z'
_cell_length_a     40.9429
_cell_length_b     40.959337
_cell_length_c     29.529914
_cell_angle_alpha  90.013493
_cell_angle_beta   90.079424
_cell_angle_gamma 89.956664
loop_
_atom_site_label
_atom_site_type_symbol
_atom_site_fract_x
_atom_site_fract_y
_atom_site_fract_z
_atom_type_partial_charge
Co0 Co 0.37884 0.26967 0.05462 0.0
Co1 Co 0.40673 0.19894 0.0629 0.0
C2 C 0.3677 0.21713 0.98243 0.0
O3 O 0.3642 0.24624 0.99743 0.0
O4 O 0.3835 0.19573 1.00487 0.0
C5 C 0.33846 0.3249 0.02904 0.0
O6 O 0.32912 0.30638 0.99511 0.0
C7 C 0.42557 0.12901 0.06264 0.0
C8 C 0.45692 0.12802 0.12372 0.0
C9 C 0.44503 0.10876 0.08895 0.0
N10 N 0.42592 0.15895 0.08129 0.0
N11 N 0.4449 0.15818 0.11751 0.0
C12 C 0.40622 0.12009 0.02149 0.0
H13 H 0.41918 0.12908 0.99096 0.0
H14 H 0.38196 0.13212 0.02274 0.0
H15 H 0.40297 0.09327 0.01878 0.0
C16 C 0.35159 0.2516 0.14578 0.0
N17 N 0.36814 0.24484 0.1073 0.0
N18 N 0.37856 0.21449 0.10901 0.0
C19 C 0.36804 0.20062 0.14765 0.0
C20 C 0.35122 0.22375 0.17289 0.0
C21 C 0.33833 0.28461 0.1572 0.0
H22 H 0.35656 0.3036 0.14838 0.0
H23 H 0.31612 0.28918 0.13658 0.0
H24 H 0.33204 0.28656 0.19364 0.0
O25 O 0.42673 0.27817 0.05253 0.0
O26 O 0.44497 0.22739 0.05544 0.0
H27 H 0.39546 0.16166 0.17749 0.0
H28 H 0.35197 0.15674 0.18134 0.0
C29 C 0.3721 0.16523 0.15913 0.0
H30 H 0.37229 0.15025 0.12786 0.0
H31 H 0.44971 0.17842 0.13794 0.0
O32 O 0.35833 0.31355 0.05815 0.0
C33 C 0.45022 0.25783 0.05239 0.0
Co34 Co 0.73787 0.37788 0.05463 0.0
Co35 Co 0.80753 0.40748 0.06685 0.0
C36 C 0.79264 0.3662 0.9867 0.0
O37 O 0.76314 0.36255 0.99994 0.0
O38 O 0.81307 0.38274 1.00991 0.0
C39 C 0.687 0.32754 0.05108 0.0
O40 O 0.71063 0.30585 0.04943 0.0
C41 C 0.87643 0.42927 0.06729 0.0
C42 C 0.87334 0.46798 0.11942 0.0
C43 C 0.89403 0.45404 0.08797 0.0
N44 N 0.84645 0.42868 0.08578 0.0
N45 N 0.84496 0.45162 0.11722 0.0
C46 C 0.88635 0.40939 0.02716 0.0
H47 H 0.8739 0.41912 0.9966 0.0
H48 H 0.87838 0.38373 0.03187 0.0
H49 H 0.91315 0.41028 0.02175 0.0
C50 C 0.75368 0.35199 0.14792 0.0
N51 N 0.76107 0.36853 0.10965 0.0
N52 N 0.79081 0.38047 0.11361 0.0
C53 C 0.80341 0.37147 0.15388 0.0
C54 C 0.7803 0.35335 0.17721 0.0
C55 C 0.7211 0.3371 0.15761 0.0
H56 H 0.70139 0.35238 0.14293 0.0
H57 H 0.72 0.31255 0.14184 0.0
H58 H 0.71715 0.33438 0.19459 0.0
O59 O 0.7286 0.42547 0.04961 0.0
O60 O 0.77869 0.44489 0.05557 0.0
H61 H 0.83791 0.40401 0.18395 0.0
H62 H 0.84577 0.36155 0.19542 0.0
C63 C 0.83741 0.37911 0.16922 0.0
H64 H 0.85443 0.37826 0.14008 0.0
H65 H 0.82393 0.45716 0.13564 0.0
O66 O 0.69395 0.35767 0.05391 0.0
C67 C 0.74832 0.44941 0.04995 0.0
Co68 Co 0.6318 0.73798 0.05689 0.0
Co69 Co 0.60204 0.80765 0.06836 0.0
C70 C 0.64072 0.79208 0.98652 0.0
O71 O 0.64496 0.76278 1.00046 0.0
O72 O 0.62479 0.81283 1.00999 0.0
C73 C 0.67161 0.68311 0.02793 0.0
O74 O 0.67829 0.70106 0.99228 0.0
C75 C 0.57011 0.87228 0.06468 0.0
C76 C 0.5464 0.87263 0.13195 0.0
C77 C 0.54879 0.88995 0.09188 0.0
N78 N 0.58006 0.8459 0.08811 0.0
N79 N 0.56566 0.84627 0.12812 0.0
C80 C 0.57698 0.87736 1.01542 0.0
H81 H 0.57711 0.85354 0.99756 0.0
H82 H 0.60153 0.88849 1.01166 0.0
H83 H 0.55854 0.89353 0.99943 0.0
C84 C 0.66154 0.75574 0.14632 0.0
N85 N 0.64264 0.76243 0.10997 0.0
N86 N 0.6318 0.79258 0.11326 0.0
C87 C 0.64459 0.8065 0.15072 0.0
C88 C 0.66349 0.78349 0.17339 0.0
C89 C 0.67819 0.72369 0.15391 0.0
H90 H 0.6596 0.70402 0.15534 0.0
H91 H 0.69448 0.71841 0.1248 0.0
H92 H 0.69281 0.72371 0.18558 0.0
O93 O 0.58435 0.72761 0.05468 0.0
O94 O 0.56507 0.77773 0.06026 0.0
H95 H 0.61812 0.84148 0.18996 0.0
H96 H 0.66004 0.85184 0.1817 0.0
C97 C 0.63837 0.84104 0.16507 0.0
H98 H 0.63196 0.85637 0.13547 0.0
H99 H 0.56757 0.82751 0.15188 0.0
O100 O 0.65357 0.69472 0.05899 0.0
C101 C 0.56039 0.74732 0.05573 0.0
Co102 Co 0.27153 0.63041 0.05783 0.0
Co103 Co 0.20195 0.59981 0.06687 0.0
C104 C 0.21759 0.64158 0.98786 0.0
O105 O 0.24685 0.64559 1.00213 0.0
O106 O 0.19704 0.62463 1.01016 0.0
C107 C 0.32641 0.67129 0.03201 0.0
O108 O 0.3085 0.67927 0.99677 0.0
C109 C 0.13327 0.57713 0.06568 0.0
C110 C 0.13643 0.5383 0.11762 0.0
C111 C 0.11577 0.55218 0.08601 0.0
N112 N 0.16318 0.57785 0.08448 0.0
N113 N 0.16472 0.55483 0.1158 0.0
C114 C 0.12327 0.59731 0.02585 0.0
H115 H 0.13586 0.58797 0.99521 0.0
H116 H 0.13105 0.62298 0.03109 0.0
H117 H 0.09649 0.59626 0.02021 0.0
C118 C 0.25346 0.65564 0.1501 0.0
N119 N 0.24697 0.63898 0.11161 0.0
N120 N 0.21725 0.62697 0.1141 0.0
C121 C 0.20358 0.63613 0.15351 0.0
C122 C 0.22614 0.65424 0.17818 0.0
C123 C 0.28581 0.67084 0.16049 0.0
H124 H 0.30572 0.65382 0.15088 0.0
H125 H 0.28861 0.69334 0.13993 0.0
H126 H 0.28811 0.6771 0.19691 0.0
O127 O 0.28185 0.58296 0.0526 0.0
O128 O 0.23181 0.56314 0.0566 0.0
H129 H 0.16735 0.60453 0.18154 0.0
H130 H 0.1596 0.64734 0.1909 0.0
C131 C 0.16886 0.62918 0.16614 0.0
H132 H 0.15314 0.62972 0.13556 0.0
H133 H 0.18567 0.54948 0.13456 0.0
O134 O 0.31476 0.65214 0.06171 0.0
C135 C 0.2623 0.55885 0.05208 0.0
Co136 Co 0.87545 0.23801 0.60546 0.0
Co137 Co 0.90542 0.30762 0.59419 0.0
C138 C 0.86691 0.29172 0.6763 0.0
O139 O 0.86224 0.26259 0.66199 0.0
O140 O 0.88313 0.31237 0.65308 0.0
C141 C 0.8461 0.17936 0.63923 0.0
O142 O 0.85048 0.19336 0.6788 0.0
C143 C 0.92924 0.37611 0.59353 0.0
C144 C 0.95696 0.37549 0.52928 0.0
C145 C 0.94875 0.39512 0.56563 0.0
N146 N 0.92594 0.34656 0.57417 0.0
N147 N 0.94282 0.34635 0.53607 0.0
C148 C 0.91363 0.38573 0.63729 0.0
H149 H 0.92702 0.37398 0.66563 0.0
H150 H 0.88806 0.3768 0.63808 0.0
H151 H 0.9139 0.4126 0.64201 0.0
C152 C 0.84483 0.25625 0.51683 0.0
N153 N 0.86429 0.26254 0.55275 0.0
N154 N 0.87557 0.2925 0.54936 0.0
C155 C 0.86278 0.30662 0.51205 0.0
C156 C 0.84312 0.28405 0.48986 0.0
C157 C 0.82737 0.22462 0.50966 0.0
H158 H 0.81143 0.21967 0.53923 0.0
H159 H 0.81233 0.22502 0.47837 0.0
H160 H 0.84551 0.20453 0.50764 0.0
O161 O 0.92298 0.22798 0.60725 0.0
O162 O 0.94282 0.27796 0.60187 0.0
H163 H 0.89263 0.34099 0.47691 0.0
H164 H 0.85019 0.35106 0.47591 0.0
C165 C 0.86992 0.34089 0.49731 0.0
H166 H 0.87322 0.3569 0.52721 0.0
H167 H 0.94503 0.32604 0.51494 0.0
O168 O 0.85385 0.19471 0.60344 0.0
C169 C 0.94713 0.24745 0.60625 0.0
Co170 Co 0.77036 0.87611 0.60791 0.0
Co171 Co 0.70237 0.91028 0.59786 0.0
C172 C 0.71616 0.86719 0.67704 0.0
O173 O 0.74527 0.86193 0.66319 0.0
O174 O 0.69645 0.88508 0.65449 0.0
C175 C 0.82672 0.83959 0.6379 0.0
O176 O 0.81153 0.83883 0.67703 0.0
C177 C 0.63293 0.93097 0.59507 0.0
C178 C 0.63826 0.97702 0.55661 0.0
C179 C 0.61594 0.9582 0.57997 0.0
N180 N 0.66411 0.93378 0.58135 0.0
N181 N 0.66694 0.96114 0.55794 0.0
C182 C 0.62093 0.90498 0.62641 0.0
H183 H 0.62561 0.91274 0.66184 0.0
H184 H 0.63432 0.88184 0.62022 0.0
H185 H 0.5943 0.90105 0.62225 0.0
C186 C 0.75059 0.84941 0.5176 0.0
N187 N 0.74533 0.86824 0.55438 0.0
N188 N 0.71689 0.8829 0.55008 0.0
C189 C 0.70321 0.87411 0.51038 0.0
C190 C 0.72405 0.85243 0.48831 0.0
C191 C 0.77977 0.82776 0.51204 0.0
H192 H 0.78463 0.81463 0.5442 0.0
H193 H 0.77618 0.80972 0.48447 0.0
H194 H 0.80144 0.84304 0.50437 0.0
O195 O 0.78253 0.92317 0.61313 0.0
O196 O 0.7335 0.94556 0.60963 0.0
H197 H 0.6732 0.91489 0.49295 0.0
H198 H 0.66584 0.87963 0.4584 0.0
C199 C 0.67165 0.88789 0.4932 0.0
H200 H 0.6516 0.88087 0.5165 0.0
H201 H 0.68889 0.96966 0.54447 0.0
O202 O 0.81292 0.85302 0.60413 0.0
C203 C 0.76415 0.94819 0.61432 0.0
Co204 Co 0.13108 0.7705 0.60822 0.0
Co205 Co 0.10123 0.70069 0.59852 0.0
C206 C 0.14192 0.71643 0.67836 0.0
O207 O 0.14598 0.74562 0.66396 0.0
O208 O 0.12519 0.69573 0.6559 0.0
C209 C 0.16161 0.82892 0.64104 0.0
O210 O 0.15815 0.81485 0.68071 0.0
C211 C 0.0776 0.63206 0.59755 0.0
C212 C 0.04957 0.63292 0.53344 0.0
C213 C 0.0582 0.61308 0.56938 0.0
N214 N 0.08047 0.6618 0.57868 0.0
N215 N 0.06338 0.66217 0.5407 0.0
C216 C 0.09363 0.6222 0.64097 0.0
H217 H 0.11938 0.63062 0.64107 0.0
H218 H 0.09287 0.59535 0.64585 0.0
H219 H 0.08094 0.63435 0.66958 0.0
C220 C 0.15709 0.75304 0.51618 0.0
N221 N 0.14037 0.74629 0.55451 0.0
N222 N 0.12941 0.71617 0.55231 0.0
C223 C 0.13982 0.70238 0.51352 0.0
C224 C 0.15704 0.72539 0.48867 0.0
C225 C 0.17123 0.78578 0.50546 0.0
H226 H 0.1538 0.80523 0.51549 0.0
H227 H 0.19394 0.7892 0.52546 0.0
H228 H 0.17699 0.78813 0.4689 0.0
O229 O 0.08358 0.78037 0.61244 0.0
O230 O 0.06394 0.73022 0.60813 0.0
H231 H 0.11333 0.66353 0.48181 0.0
H232 H 0.15682 0.65831 0.48126 0.0
C233 C 0.13592 0.66697 0.50196 0.0
H234 H 0.13445 0.65205 0.5332 0.0
H235 H 0.06098 0.68259 0.51982 0.0
O236 O 0.15283 0.8137 0.60555 0.0
C237 C 0.05955 0.76072 0.61259 0.0
Co238 Co 0.23622 0.1318 0.60435 0.0
Co239 Co 0.30471 0.09847 0.59648 0.0
C240 C 0.29085 0.14286 0.67339 0.0
O241 O 0.26165 0.14741 0.65916 0.0
O242 O 0.31079 0.12471 0.65177 0.0
C243 C 0.17917 0.16684 0.63412 0.0
O244 O 0.19333 0.16554 0.67403 0.0
C245 C 0.37259 0.07326 0.59806 0.0
C246 C 0.36829 0.03437 0.54632 0.0
C247 C 0.38945 0.04775 0.57775 0.0
N248 N 0.34265 0.07473 0.57939 0.0
N249 N 0.34041 0.05162 0.54829 0.0
C250 C 0.38298 0.0933 0.63787 0.0
H251 H 0.36762 0.08675 0.66743 0.0
H252 H 0.37876 0.11953 0.63044 0.0
H253 H 0.409 0.08922 0.64666 0.0
C254 C 0.25502 0.15475 0.51143 0.0
N255 N 0.26086 0.13824 0.55021 0.0
N256 N 0.29012 0.12507 0.54805 0.0
C257 C 0.30418 0.13339 0.50853 0.0
C258 C 0.28232 0.15214 0.48349 0.0
C259 C 0.22329 0.17119 0.50076 0.0
H260 H 0.20271 0.15544 0.5116 0.0
H261 H 0.22177 0.19439 0.52005 0.0
H262 H 0.22093 0.17647 0.46406 0.0
O263 O 0.22426 0.08496 0.61151 0.0
O264 O 0.27363 0.06318 0.60932 0.0
H265 H 0.33979 0.1007 0.48123 0.0
H266 H 0.34875 0.14325 0.47177 0.0
C267 C 0.3388 0.12544 0.49647 0.0
H268 H 0.3543 0.12564 0.52728 0.0
H269 H 0.31931 0.04684 0.52958 0.0
O270 O 0.19386 0.15513 0.59988 0.0
C271 C 0.24297 0.06022 0.61379 0.0
H272 H 0.48647 0.90228 0.11672 0.0
H273 H 0.56789 0.94424 0.04443 0.0
H274 H 0.45626 0.95321 0.10856 0.0
H275 H 0.53748 0.99537 0.03606 0.0
H276 H 0.46477 0.0787 1.01086 0.0
H277 H 0.48631 0.02297 1.00364 0.0
H278 H 0.46784 0.00667 0.14587 0.0
H279 H 0.4464 0.06191 0.15284 0.0
C280 C 0.4977 0.92228 0.09849 0.0
C281 C 0.52949 0.91937 0.08117 0.0
C282 C 0.4804 0.95136 0.09377 0.0
C283 C 0.49461 0.97822 0.07191 0.0
C284 C 0.5258 0.97486 0.05257 0.0
C285 C 0.54318 0.94564 0.05732 0.0
C286 C 0.46456 0.06277 0.04013 0.0
C287 C 0.45365 0.07424 0.0823 0.0
C288 C 0.47715 0.03113 0.03613 0.0
C289 C 0.47859 0.01054 0.07414 0.0
C290 C 0.46657 0.02182 0.11584 0.0
C291 C 0.45446 0.05343 0.11993 0.0
H292 H 0.90765 0.51378 0.05436 0.0
H293 H 0.95249 0.42344 0.09607 0.0
H294 H 0.96141 0.538 0.04268 0.0
H295 H 0.00643 0.44789 0.08748 0.0
H296 H 0.10175 0.4924 0.0528 0.0
H297 H 0.04783 0.46822 0.04221 0.0
H298 H 0.00342 0.55865 0.08678 0.0
H299 H 0.05748 0.58305 0.09427 0.0
C300 C 0.92923 0.49914 0.06071 0.0
C301 C 0.9263 0.46689 0.07596 0.0
C302 C 0.96001 0.51302 0.05449 0.0
C303 C 0.98846 0.49515 0.06464 0.0
C304 C 0.98525 0.46235 0.07854 0.0
C305 C 0.95441 0.44829 0.08378 0.0
C306 C 0.08026 0.50713 0.05928 0.0
C307 C 0.08339 0.53945 0.07417 0.0
C308 C 0.04939 0.49327 0.0537 0.0
C309 C 0.02108 0.51123 0.0642 0.0
C310 C 0.02448 0.54411 0.07763 0.0
C311 C 0.0554 0.55815 0.08221 0.0
H312 H 0.94955 0.44329 0.50377 0.0
H313 H 0.9771 0.42122 0.64147 0.0
H314 H 0.97701 0.49578 0.50913 0.0
H315 H 0.00578 0.47362 0.64668 0.0
H316 H 0.02926 0.58596 0.64388 0.0
H317 H 1.00105 0.53321 0.64715 0.0
H318 H 0.03269 0.5124 0.5105 0.0
H319 H 0.05959 0.56526 0.50701 0.0
C320 C 0.96128 0.44995 0.53537 0.0
C321 C 0.96113 0.42848 0.57225 0.0
C322 C 0.97733 0.47981 0.53835 0.0
C323 C 0.99425 0.48857 0.57801 0.0
C324 C 0.99292 0.46762 0.61572 0.0
C325 C 0.97641 0.43774 0.61286 0.0
C326 C 0.03068 0.56964 0.61508 0.0
C327 C 0.04652 0.57942 0.5752 0.0
C328 C 0.01447 0.53957 0.61683 0.0
C329 C 0.01403 0.51892 0.57873 0.0
C330 C 0.03166 0.52813 0.53995 0.0
C331 C 0.04739 0.5582 0.53805 0.0
H332 H 0.55968 0.92664 0.5583 0.0
H333 H 0.59714 0.01325 0.6229 0.0
H334 H 0.50423 0.94804 0.56452 0.0
H335 H 0.54173 0.03418 0.63174 0.0
H336 H 0.44707 0.08068 0.57852 0.0
H337 H 0.50167 0.05748 0.58597 0.0
H338 H 0.45931 0.96211 0.60888 0.0
H339 H 0.40493 0.98541 0.59888 0.0
C340 C 0.55578 0.94983 0.57509 0.0
C341 C 0.58235 0.96836 0.5902 0.0
C342 C 0.52405 0.96216 0.57885 0.0
C343 C 0.51836 0.99307 0.59837 0.0
C344 C 0.54513 0.0107 0.61555 0.0
C345 C 0.57682 0.99864 0.61096 0.0
C346 C 0.44963 0.0549 0.58591 0.0
C347 C 0.42207 0.03478 0.58832 0.0
C348 C 0.48087 0.04151 0.59037 0.0
C349 C 0.48507 0.00777 0.59791 0.0
C350 C 0.45716 0.988 0.60216 0.0
C351 C 0.426 1.00133 0.59684 0.0
H352 H 0.22629 0.50383 0.03855 0.0
H353 H 0.32591 0.53704 0.054 0.0
H354 H 0.24531 0.44787 0.03244 0.0
H355 H 0.34499 0.48053 0.0475 0.0
H356 H 0.35878 0.3717 0.08891 0.0
H357 H 0.34155 0.4287 0.09272 0.0
H358 H 0.27655 0.41306 0.9795 0.0
H359 H 0.29357 0.35604 0.97574 0.0
C360 C 0.25232 0.49925 0.04044 0.0
C361 C 0.2746 0.52501 0.04681 0.0
C362 C 0.2632 0.46711 0.03666 0.0
C363 C 0.29663 0.45979 0.0394 0.0
C364 C 0.31903 0.48545 0.04562 0.0
C365 C 0.30813 0.5178 0.04907 0.0
C366 C 0.34077 0.38039 0.06485 0.0
C367 C 0.32747 0.35928 0.03207 0.0
C368 C 0.33113 0.41311 0.06683 0.0
C369 C 0.30778 0.42536 0.03635 0.0
C370 C 0.29442 0.40425 1.00368 0.0
C371 C 0.30422 0.3716 1.00148 0.0
H372 H 0.50308 0.22293 0.02479 0.0
H373 H 0.47479 0.31815 0.07386 0.0
H374 H 0.55981 0.24001 0.0228 0.0
H375 H 0.53196 0.33494 0.07413 0.0
H376 H 0.63398 0.36512 0.03116 0.0
H377 H 0.57691 0.34889 0.02926 0.0
H378 H 0.60441 0.25113 0.0696 0.0
H379 H 0.66171 0.26715 0.06921 0.0
C380 C 0.50905 0.24753 0.03542 0.0
C381 C 0.48445 0.2692 0.04954 0.0
C382 C 0.5417 0.25727 0.03467 0.0
C383 C 0.55074 0.28879 0.04874 0.0
C384 C 0.526 0.31061 0.06244 0.0
C385 C 0.49318 0.301 0.06248 0.0
C386 C 0.62782 0.34013 0.03952 0.0
C387 C 0.65236 0.31736 0.05021 0.0
C388 C 0.595 0.33085 0.03875 0.0
C389 C 0.58581 0.29867 0.04933 0.0
C390 C 0.61047 0.27597 0.06036 0.0
C391 C 0.64337 0.28515 0.06042 0.0
H392 H 0.65417 0.63677 0.08993 0.0
H393 H 0.71478 0.6519 0.97205 0.0
H394 H 0.67178 0.57991 0.09326 0.0
H395 H 0.73233 0.59495 0.97551 0.0
H396 H 0.78448 0.50406 0.03417 0.0
H397 H 0.76558 0.56019 0.02798 0.0
H398 H 0.66613 0.52814 0.04722 0.0
H399 H 0.68501 0.47158 0.05354 0.0
C400 C 0.6713 0.62801 0.06477 0.0
C401 C 0.68313 0.6489 0.03074 0.0
C402 C 0.68115 0.59536 0.0665 0.0
C403 C 0.7033 0.58298 0.03455 0.0
C404 C 0.71536 0.6039 1.00075 0.0
C405 C 0.70526 0.63648 0.99873 0.0
C406 C 0.75853 0.50885 0.03693 0.0
C407 C 0.73624 0.48329 0.04444 0.0
C408 C 0.74773 0.54104 0.03312 0.0
C409 C 0.71441 0.54854 0.03713 0.0
C410 C 0.69201 0.52305 0.04436 0.0
C411 C 0.70279 0.49069 0.04771 0.0
H412 H 0.37273 0.65174 0.09308 0.0
H413 H 0.35764 0.71632 0.97919 0.0
H414 H 0.42961 0.6692 0.09779 0.0
H415 H 0.41456 0.73368 0.98399 0.0
H416 H 0.50536 0.78379 0.04397 0.0
H417 H 0.44921 0.76509 0.03811 0.0
H418 H 0.48156 0.66523 0.05202 0.0
H419 H 0.53821 0.68394 0.05808 0.0
C420 C 0.3815 0.66971 0.06911 0.0
C421 C 0.36061 0.6827 0.03578 0.0
C422 C 0.41416 0.67948 0.07162 0.0
C423 C 0.42655 0.70271 0.04119 0.0
C424 C 0.40562 0.71589 1.0081 0.0
C425 C 0.37304 0.70589 1.0053 0.0
C426 C 0.50065 0.7578 0.04575 0.0
C427 C 0.52636 0.73534 0.05154 0.0
C428 C 0.46842 0.74711 0.0421 0.0
C429 C 0.46099 0.71373 0.0445 0.0
C430 C 0.48659 0.69117 0.05039 0.0
C431 C 0.519 0.70186 0.05362 0.0
H432 H 0.73265 1.00185 0.64608 0.0
H433 H 0.82661 0.96926 0.59714 0.0
H434 H 0.75365 0.05721 0.65349 0.0
H435 H 0.84753 0.02522 0.60407 0.0
H436 H 0.85054 0.13761 0.56729 0.0
H437 H 0.83283 0.08066 0.56366 0.0
H438 H 0.7977 0.08703 0.7011 0.0
H439 H 0.81578 0.14385 0.70515 0.0
C440 C 0.75786 0.00649 0.63704 0.0
C441 C 0.77799 0.9812 0.62093 0.0
C442 C 0.76988 0.03817 0.64151 0.0
C443 C 0.80215 0.04543 0.6293 0.0
C444 C 0.82247 0.0202 0.61348 0.0
C445 C 0.81059 0.98824 0.60978 0.0
C446 C 0.83901 0.12688 0.59673 0.0
C447 C 0.83445 0.14524 0.63649 0.0
C448 C 0.82917 0.09423 0.59474 0.0
C449 C 0.81407 0.0795 0.63216 0.0
C450 C 0.80925 0.09789 0.67176 0.0
C451 C 0.8196 0.13036 0.67405 0.0
H452 H 0.03702 0.8234 0.60155 0.0
H453 H 0.00546 0.72568 0.63516 0.0
H454 H 0.98048 0.84255 0.60782 0.0
H455 H 0.94936 0.7449 0.64164 0.0
H456 H 0.86023 0.80141 0.69804 0.0
H457 H 0.91693 0.7831 0.69291 0.0
H458 H 0.92678 0.83228 0.56438 0.0
H459 H 0.87003 0.85042 0.56917 0.0
C460 C 0.01812 0.80608 0.6105 0.0
C461 C 0.02573 0.77303 0.61777 0.0
C462 C 0.98578 0.817 0.61382 0.0
C463 C 0.9606 0.79517 0.6252 0.0
C464 C 0.96831 0.76229 0.63316 0.0
C465 C 1.00045 0.7513 0.62921 0.0
C466 C 0.87443 0.80821 0.66861 0.0
C467 C 0.86061 0.82731 0.63399 0.0
C468 C 0.90686 0.7977 0.66566 0.0
C469 C 0.92625 0.80643 0.62836 0.0
C470 C 0.91247 0.82551 0.59374 0.0
C471 C 0.87991 0.83564 0.59636 0.0
H472 H 0.18055 0.03867 0.59759 0.0
H473 H 0.27508 0.00686 0.64575 0.0
H474 H 0.16002 0.98266 0.60513 0.0
H475 H 0.25447 0.95138 0.65367 0.0
H476 H 0.19328 0.86431 0.70603 0.0
H477 H 0.21145 0.92107 0.7015 0.0
H478 H 0.17406 0.9275 0.56506 0.0
H479 H 0.1562 0.87064 0.5692 0.0
C480 C 0.19679 0.01985 0.61019 0.0
C481 C 0.22943 0.02714 0.62095 0.0
C482 C 0.18513 0.98784 0.61423 0.0
C483 C 0.20572 0.96277 0.62993 0.0
C484 C 0.23804 0.97028 0.64178 0.0
C485 C 0.24983 1.00203 0.63702 0.0
C486 C 0.18899 0.8778 0.67504 0.0
C487 C 0.17342 0.86297 0.63793 0.0
C488 C 0.1994 0.91024 0.67246 0.0
C489 C 0.19397 0.92865 0.63302 0.0
C490 C 0.17821 0.91393 0.59603 0.0
C491 C 0.16828 0.88133 0.59831 0.0
H492 H 0.96938 0.18487 0.59333 0.0
H493 H 1.00137 0.28198 0.62962 0.0
H494 H 0.02581 0.1653 0.59987 0.0
H495 H 0.05733 0.26229 0.63659 0.0
H496 H 0.14475 0.20334 0.69509 0.0
H497 H 0.08824 0.22217 0.68873 0.0
H498 H 0.08049 0.17674 0.55727 0.0
H499 H 0.1371 0.1582 0.56319 0.0
C500 C 0.98837 0.20196 0.60286 0.0
C501 C 0.98092 0.23497 0.61085 0.0
C502 C 0.02062 0.19081 0.60637 0.0
C503 C 0.04584 0.21232 0.61876 0.0
C504 C 0.03831 0.24516 0.62729 0.0
C505 C 0.00628 0.25642 0.62305 0.0
C506 C 0.13105 0.19748 0.66475 0.0
C507 C 0.14541 0.17937 0.62961 0.0
C508 C 0.09875 0.20829 0.66112 0.0
C509 C 0.08003 0.20075 0.6226 0.0
C510 C 0.09432 0.1826 0.5875 0.0
C511 C 0.12678 0.17224 0.59079 0.0
H512 H 0.38558 0.19943 0.24343 0.0
H513 H 0.29085 0.2384 0.20883 0.0
H514 H 0.36541 0.18404 0.318 0.0
H515 H 0.2707 0.22369 0.28483 0.0
H516 H 0.2705 0.21392 0.45058 0.0
H517 H 0.28462 0.23517 0.37509 0.0
H518 H 0.32033 0.13995 0.3369 0.0
H519 H 0.30538 0.11864 0.41111 0.0
C520 C 0.36045 0.20494 0.25199 0.0
C521 C 0.33959 0.21955 0.22012 0.0
C522 C 0.34895 0.19618 0.29468 0.0
C523 C 0.31639 0.20223 0.30686 0.0
C524 C 0.29591 0.21873 0.27614 0.0
C525 C 0.30742 0.2272 0.23287 0.0
C526 C 0.28071 0.19747 0.42561 0.0
C527 C 0.28727 0.16474 0.43684 0.0
C528 C 0.28884 0.20963 0.38259 0.0
C529 C 0.30397 0.18928 0.35051 0.0
C530 C 0.30918 0.15629 0.36127 0.0
C531 C 0.30072 0.14413 0.40377 0.0
H532 H 0.77232 0.29068 0.20747 0.0
H533 H 0.79504 0.38821 0.25241 0.0
H534 H 0.78207 0.27002 0.2846 0.0
H535 H 0.8046 0.36793 0.32901 0.0
H536 H 0.79536 0.32792 0.46966 0.0
H537 H 0.77487 0.3425 0.39442 0.0
H538 H 0.83245 0.26498 0.33566 0.0
H539 H 0.8532 0.25077 0.41116 0.0
C540 C 0.77895 0.30767 0.23404 0.0
C541 C 0.78306 0.34096 0.22421 0.0
C542 C 0.7847 0.29589 0.27798 0.0
C543 C 0.79404 0.31736 0.31292 0.0
C544 C 0.79707 0.35081 0.30307 0.0
C545 C 0.79181 0.36242 0.25919 0.0
C546 C 0.80326 0.3138 0.44064 0.0
C547 C 0.82622 0.28863 0.4459 0.0
C548 C 0.79161 0.32213 0.39764 0.0
C549 C 0.80239 0.30518 0.35902 0.0
C550 C 0.8236 0.27843 0.36475 0.0
C551 C 0.83548 0.27029 0.40786 0.0
H552 H 0.76657 0.84993 0.41715 0.0
H553 H 0.67046 0.81926 0.45859 0.0
H554 H 0.75693 0.82736 0.34172 0.0
H555 H 0.65974 0.79858 0.3827 0.0
H556 H 0.65094 0.7482 0.24946 0.0
H557 H 0.66973 0.75948 0.32655 0.0
H558 H 0.72746 0.84005 0.27617 0.0
H559 H 0.71022 0.82712 0.19925 0.0
C560 C 0.74342 0.83818 0.4101 0.0
C561 C 0.71911 0.83668 0.44349 0.0
C562 C 0.73769 0.82555 0.3667 0.0
C563 C 0.70737 0.81135 0.35559 0.0
C564 C 0.68352 0.80892 0.38978 0.0
C565 C 0.68944 0.82121 0.43322 0.0
C566 C 0.66826 0.76779 0.25501 0.0
C567 C 0.67869 0.7872 0.21869 0.0
C568 C 0.67873 0.77459 0.29921 0.0
C569 C 0.69969 0.80115 0.30807 0.0
C570 C 0.71148 0.81933 0.27104 0.0
C571 C 0.70128 0.81225 0.22689 0.0
H572 H 0.12317 0.70151 0.41745 0.0
H573 H 0.21787 0.73961 0.4538 0.0
H574 H 0.14384 0.68621 0.34311 0.0
H575 H 0.23854 0.725 0.37801 0.0
H576 H 0.23892 0.71573 0.21148 0.0
H577 H 0.22502 0.7369 0.28719 0.0
H578 H 0.18906 0.64176 0.32501 0.0
H579 H 0.20369 0.62059 0.25059 0.0
C580 C 0.14841 0.70682 0.40934 0.0
C581 C 0.16909 0.72117 0.44164 0.0
C582 C 0.1602 0.69814 0.36677 0.0
C583 C 0.19289 0.70398 0.35512 0.0
C584 C 0.21323 0.7202 0.38627 0.0
C585 C 0.20142 0.72862 0.42943 0.0
C586 C 0.22873 0.69929 0.23644 0.0
C587 C 0.22192 0.66665 0.22505 0.0
C588 C 0.22073 0.71139 0.27958 0.0
C589 C 0.20554 0.69104 0.31159 0.0
C590 C 0.20027 0.65809 0.30071 0.0
C591 C 0.20855 0.64601 0.25811 0.0
H592 H 0.63368 0.85129 0.94498 0.0
H593 H 0.67663 0.75586 0.92571 0.0
H594 H 0.65241 0.86763 0.87035 0.0
H595 H 0.69514 0.77231 0.85036 0.0
H596 H 0.75091 0.82904 0.73688 0.0
H597 H 0.73364 0.80992 0.81154 0.0
H598 H 0.63939 0.85509 0.79157 0.0
H599 H 0.65658 0.87446 0.71758 0.0
C600 C 0.64714 0.83373 0.9249 0.0
C601 C 0.65349 0.80215 0.94149 0.0
C602 C 0.65771 0.84309 0.88186 0.0
C603 C 0.67502 0.8212 0.85414 0.0
C604 C 0.68201 0.78982 0.87095 0.0
C605 C 0.67127 0.78036 0.91409 0.0
C606 C 0.72644 0.83474 0.74831 0.0
C607 C 0.70526 0.85353 0.72119 0.0
C608 C 0.71651 0.82366 0.79106 0.0
C609 C 0.68524 0.83124 0.80775 0.0
C610 C 0.66385 0.84932 0.78015 0.0
C611 C 0.67369 0.86028 0.7375 0.0
H612 H 0.13517 0.65753 0.72059 0.0
H613 H 0.17966 0.75246 0.73747 0.0
H614 H 0.15465 0.64147 0.79496 0.0
H615 H 0.19904 0.73619 0.81271 0.0
H616 H 0.15769 0.63712 0.94758 0.0
H617 H 0.14123 0.65649 0.87335 0.0
H618 H 0.23733 0.697 0.8523 0.0
H619 H 0.25403 0.67768 0.92738 0.0
C620 C 0.1492 0.67502 0.74004 0.0
C621 C 0.15563 0.70642 0.72294 0.0
C622 C 0.16022 0.66582 0.78293 0.0
C623 C 0.17808 0.68767 0.81002 0.0
C624 C 0.18541 0.71877 0.79259 0.0
C625 C 0.17419 0.72811 0.74956 0.0
C626 C 0.17542 0.65024 0.92742 0.0
C627 C 0.20734 0.65555 0.94353 0.0
C628 C 0.16597 0.66123 0.88463 0.0
C629 C 0.18807 0.67793 0.85663 0.0
C630 C 0.2197 0.68426 0.87312 0.0
C631 C 0.22928 0.67308 0.91608 0.0
H632 H 0.25517 0.18002 0.73357 0.0
H633 H 0.35122 0.13889 0.71241 0.0
H634 H 0.27254 0.19984 0.80811 0.0
H635 H 0.36833 0.15874 0.78614 0.0
H636 H 0.37409 0.15865 0.93913 0.0
H637 H 0.35469 0.14338 0.86449 0.0
H638 H 0.31152 0.2388 0.8477 0.0
H639 H 0.3309 0.25433 0.92332 0.0
C640 C 0.28001 0.17545 0.74451 0.0
C641 C 0.30165 0.1575 0.71704 0.0
C642 C 0.28997 0.18692 0.78716 0.0
C643 C 0.32168 0.18049 0.80328 0.0
C644 C 0.34354 0.16355 0.77513 0.0
C645 C 0.3337 0.15226 0.73265 0.0
C646 C 0.3604 0.1765 0.91984 0.0
C647 C 0.35427 0.20786 0.93737 0.0
C648 C 0.34942 0.16774 0.87677 0.0
C649 C 0.33189 0.18998 0.84989 0.0
C650 C 0.32492 0.2211 0.86766 0.0
C651 C 0.33613 0.23001 0.9109 0.0
H652 H 0.82929 0.25613 0.73573 0.0
H653 H 0.87596 0.35003 0.71955 0.0
H654 H 0.81086 0.27233 0.81128 0.0
H655 H 0.85735 0.36611 0.79436 0.0
H656 H 0.85283 0.37078 0.94721 0.0
H657 H 0.8696 0.35156 0.87297 0.0
H658 H 0.77347 0.31135 0.85061 0.0
H659 H 0.75655 0.3304 0.92554 0.0
C660 C 0.83549 0.28024 0.74808 0.0
C661 C 0.85427 0.30168 0.72147 0.0
C662 C 0.8248 0.28956 0.79132 0.0
C663 C 0.83287 0.32041 0.80904 0.0
C664 C 0.85118 0.34196 0.78211 0.0
C665 C 0.86168 0.33276 0.73896 0.0
C666 C 0.8352 0.35772 0.92674 0.0
C667 C 0.80321 0.35239 0.94244 0.0
C668 C 0.84481 0.34685 0.88394 0.0
C669 C 0.82279 0.33023 0.85559 0.0
C670 C 0.79108 0.32397 0.87168 0.0
C671 C 0.78136 0.33501 0.91459 0.0
loop_
_geom_bond_atom_site_label_1
_geom_bond_atom_site_label_2
_geom_bond_distance
_geom_bond_site_symmetry_2
_ccdc_geom_bond_type
Co0 O3 1.970 1_554 S
Co0 N17 1.989 . S
Co0 O25 1.967 . S
Co0 O32 1.920 . S
Co1 O4 1.966 1_554 S
Co1 N10 2.022 . S
Co1 N18 1.993 . S
Co1 O26 1.941 . S
C2 O3 1.258 . S
C2 O4 1.263 . S
O3 Co0 1.970 1_556 S
O3 C2 1.258 . S
O4 Co1 1.966 1_556 S
O4 C2 1.263 . S
C5 O6 1.235 . S
C5 O32 1.289 . S
O6 C5 1.235 . S
C7 C9 1.400 . S
C7 N10 1.351 . S
C7 C12 1.501 1_554 S
C8 C9 1.387 . S
C8 N11 1.341 . S
C9 C7 1.400 . S
C9 C8 1.387 . S
N10 Co1 2.022 . S
N10 C7 1.351 . S
N10 N11 1.365 . S
N11 C8 1.341 . S
N11 N10 1.365 . S
N11 H31 0.862 . S
C12 C7 1.501 1_556 S
C12 H13 0.961 . S
C12 H14 0.966 . S
C12 H15 0.960 . S
H13 C12 0.961 . S
H14 C12 0.966 . S
H15 C12 0.960 . S
C16 N17 1.342 . S
C16 C20 1.401 . S
C16 C21 1.499 . S
N17 Co0 1.989 . S
N17 C16 1.342 . S
N17 N18 1.388 . S
N18 Co1 1.993 . S
N18 N17 1.388 . S
N18 C19 1.346 . S
C19 N18 1.346 . S
C19 C20 1.396 . S
C19 C29 1.510 . S
C20 C16 1.401 . S
C20 C19 1.396 . S
C21 C16 1.499 . S
C21 H22 0.959 . S
C21 H23 0.960 . S
C21 H24 0.961 . S
H22 C21 0.959 . S
H23 C21 0.960 . S
H24 C21 0.961 . S
O25 Co0 1.967 . S
O25 C33 1.258 . S
O26 Co1 1.941 . S
O26 C33 1.266 . S
H27 C29 0.959 . S
H28 C29 0.961 . S
C29 C19 1.510 . S
C29 H27 0.959 . S
C29 H28 0.961 . S
C29 H30 0.960 . S
H30 C29 0.960 . S
H31 N11 0.862 . S
O32 Co0 1.920 . S
O32 C5 1.289 . S
C33 O25 1.258 . S
C33 O26 1.266 . S
Co34 O37 1.970 1_554 S
Co34 N51 1.989 . S
Co34 O59 1.967 . S
Co34 O66 1.920 . S
Co35 O38 1.966 1_554 S
Co35 N44 2.022 . S
Co35 N52 1.993 . S
Co35 O60 1.941 . S
C36 O37 1.258 . S
C36 O38 1.263 . S
O37 Co34 1.970 1_556 S
O37 C36 1.258 . S
O38 Co35 1.966 1_556 S
O38 C36 1.263 . S
C39 O40 1.235 . S
C39 O66 1.289 . S
O40 C39 1.235 . S
C41 C43 1.400 . S
C41 N44 1.351 . S
C41 C46 1.501 1_554 S
C42 C43 1.387 . S
C42 N45 1.341 . S
C43 C41 1.400 . S
C43 C42 1.387 . S
N44 Co35 2.022 . S
N44 C41 1.351 . S
N44 N45 1.365 . S
N45 C42 1.341 . S
N45 N44 1.365 . S
N45 H65 0.862 . S
C46 C41 1.501 1_556 S
C46 H47 0.961 . S
C46 H48 0.966 . S
C46 H49 0.960 . S
H47 C46 0.961 . S
H48 C46 0.966 . S
H49 C46 0.960 . S
C50 N51 1.342 . S
C50 C54 1.401 . S
C50 C55 1.499 . S
N51 Co34 1.989 . S
N51 C50 1.342 . S
N51 N52 1.388 . S
N52 Co35 1.993 . S
N52 N51 1.388 . S
N52 C53 1.346 . S
C53 N52 1.346 . S
C53 C54 1.396 . S
C53 C63 1.510 . S
C54 C50 1.401 . S
C54 C53 1.396 . S
C55 C50 1.499 . S
C55 H56 0.959 . S
C55 H57 0.960 . S
C55 H58 0.961 . S
H56 C55 0.959 . S
H57 C55 0.960 . S
H58 C55 0.961 . S
O59 Co34 1.967 . S
O59 C67 1.258 . S
O60 Co35 1.941 . S
O60 C67 1.266 . S
H61 C63 0.959 . S
H62 C63 0.961 . S
C63 C53 1.510 . S
C63 H61 0.959 . S
C63 H62 0.961 . S
C63 H64 0.960 . S
H64 C63 0.960 . S
H65 N45 0.862 . S
O66 Co34 1.920 . S
O66 C39 1.289 . S
C67 O59 1.258 . S
C67 O60 1.266 . S
Co68 O71 1.970 1_554 S
Co68 N85 1.989 . S
Co68 O93 1.967 . S
Co68 O100 1.920 . S
Co69 O72 1.966 1_554 S
Co69 N78 2.022 . S
Co69 N86 1.993 . S
Co69 O94 1.941 . S
C70 O71 1.258 . S
C70 O72 1.263 . S
O71 Co68 1.970 1_556 S
O71 C70 1.258 . S
O72 Co69 1.966 1_556 S
O72 C70 1.263 . S
C73 O74 1.235 . S
C73 O100 1.289 . S
O74 C73 1.235 . S
C75 C77 1.400 . S
C75 N78 1.351 . S
C75 C80 1.501 1_554 S
C76 C77 1.387 . S
C76 N79 1.341 . S
C77 C75 1.400 . S
C77 C76 1.387 . S
N78 Co69 2.022 . S
N78 C75 1.351 . S
N78 N79 1.365 . S
N79 C76 1.341 . S
N79 N78 1.365 . S
N79 H99 0.862 . S
C80 C75 1.501 1_556 S
C80 H81 0.961 . S
C80 H82 0.966 . S
C80 H83 0.960 . S
H81 C80 0.961 . S
H82 C80 0.966 . S
H83 C80 0.960 . S
C84 N85 1.342 . S
C84 C88 1.401 . S
C84 C89 1.499 . S
N85 Co68 1.989 . S
N85 C84 1.342 . S
N85 N86 1.388 . S
N86 Co69 1.993 . S
N86 N85 1.388 . S
N86 C87 1.346 . S
C87 N86 1.346 . S
C87 C88 1.396 . S
C87 C97 1.510 . S
C88 C84 1.401 . S
C88 C87 1.396 . S
C89 C84 1.499 . S
C89 H90 0.959 . S
C89 H91 0.960 . S
C89 H92 0.961 . S
H90 C89 0.959 . S
H91 C89 0.960 . S
H92 C89 0.961 . S
O93 Co68 1.967 . S
O93 C101 1.258 . S
O94 Co69 1.941 . S
O94 C101 1.266 . S
H95 C97 0.959 . S
H96 C97 0.961 . S
C97 C87 1.510 . S
C97 H95 0.959 . S
C97 H96 0.961 . S
C97 H98 0.960 . S
H98 C97 0.960 . S
H99 N79 0.862 . S
O100 Co68 1.920 . S
O100 C73 1.289 . S
C101 O93 1.258 . S
C101 O94 1.266 . S
Co102 O105 1.970 1_554 S
Co102 N119 1.989 . S
Co102 O127 1.967 . S
Co102 O134 1.920 . S
Co103 O106 1.966 1_554 S
Co103 N112 2.022 . S
Co103 N120 1.993 . S
Co103 O128 1.941 . S
C104 O105 1.258 . S
C104 O106 1.263 . S
O105 Co102 1.970 1_556 S
O105 C104 1.258 . S
O106 Co103 1.966 1_556 S
O106 C104 1.263 . S
C107 O108 1.235 . S
C107 O134 1.289 . S
O108 C107 1.235 . S
C109 C111 1.400 . S
C109 N112 1.351 . S
C109 C114 1.501 1_554 S
C110 C111 1.387 . S
C110 N113 1.341 . S
C111 C109 1.400 . S
C111 C110 1.387 . S
N112 Co103 2.022 . S
N112 C109 1.351 . S
N112 N113 1.365 . S
N113 C110 1.341 . S
N113 N112 1.365 . S
N113 H133 0.862 . S
C114 C109 1.501 1_556 S
C114 H115 0.961 . S
C114 H116 0.966 . S
C114 H117 0.960 . S
H115 C114 0.961 . S
H116 C114 0.966 . S
H117 C114 0.960 . S
C118 N119 1.342 . S
C118 C122 1.401 . S
C118 C123 1.499 . S
N119 Co102 1.989 . S
N119 C118 1.342 . S
N119 N120 1.388 . S
N120 Co103 1.993 . S
N120 N119 1.388 . S
N120 C121 1.346 . S
C121 N120 1.346 . S
C121 C122 1.396 . S
C121 C131 1.510 . S
C122 C118 1.401 . S
C122 C121 1.396 . S
C123 C118 1.499 . S
C123 H124 0.959 . S
C123 H125 0.960 . S
C123 H126 0.961 . S
H124 C123 0.959 . S
H125 C123 0.960 . S
H126 C123 0.961 . S
O127 Co102 1.967 . S
O127 C135 1.258 . S
O128 Co103 1.941 . S
O128 C135 1.266 . S
H129 C131 0.959 . S
H130 C131 0.961 . S
C131 C121 1.510 . S
C131 H129 0.959 . S
C131 H130 0.961 . S
C131 H132 0.960 . S
H132 C131 0.960 . S
H133 N113 0.862 . S
O134 Co102 1.920 . S
O134 C107 1.289 . S
C135 O127 1.258 . S
C135 O128 1.266 . S
Co136 O139 1.970 . S
Co136 N153 1.989 . S
Co136 O161 1.967 . S
Co136 O168 1.920 . S
Co137 O140 1.966 . S
Co137 N146 2.022 . S
Co137 N154 1.993 . S
Co137 O162 1.941 . S
C138 O139 1.258 . S
C138 O140 1.263 . S
O139 Co136 1.970 . S
O139 C138 1.258 . S
O140 Co137 1.966 . S
O140 C138 1.263 . S
C141 O142 1.235 . S
C141 O168 1.289 . S
O142 C141 1.235 . S
C143 C145 1.400 . S
C143 N146 1.351 . S
C143 C148 1.501 . S
C144 C145 1.387 . S
C144 N147 1.341 . S
C145 C143 1.400 . S
C145 C144 1.387 . S
N146 Co137 2.022 . S
N146 C143 1.351 . S
N146 N147 1.365 . S
N147 C144 1.341 . S
N147 N146 1.365 . S
N147 H167 0.862 . S
C148 C143 1.501 . S
C148 H149 0.961 . S
C148 H150 0.961 . S
C148 H151 0.960 . S
H149 C148 0.961 . S
H150 C148 0.961 . S
H151 C148 0.960 . S
C152 N153 1.342 . S
C152 C156 1.401 . S
C152 C157 1.499 . S
N153 Co136 1.989 . S
N153 C152 1.342 . S
N153 N154 1.388 . S
N154 Co137 1.993 . S
N154 N153 1.388 . S
N154 C155 1.346 . S
C155 N154 1.346 . S
C155 C156 1.396 . S
C155 C165 1.510 . S
C156 C152 1.401 . S
C156 C155 1.396 . S
C157 C152 1.499 . S
C157 H158 0.959 . S
C157 H159 0.960 . S
C157 H160 0.961 . S
H158 C157 0.959 . S
H159 C157 0.960 . S
H160 C157 0.961 . S
O161 Co136 1.967 . S
O161 C169 1.258 . S
O162 Co137 1.941 . S
O162 C169 1.266 . S
H163 C165 0.959 . S
H164 C165 0.961 . S
C165 C155 1.510 . S
C165 H163 0.959 . S
C165 H164 0.961 . S
C165 H166 0.960 . S
H166 C165 0.960 . S
H167 N147 0.862 . S
O168 Co136 1.920 . S
O168 C141 1.289 . S
C169 O161 1.258 . S
C169 O162 1.266 . S
Co170 O173 1.970 . S
Co170 N187 1.989 . S
Co170 O195 1.967 . S
Co170 O202 1.920 . S
Co171 O174 1.966 . S
Co171 N180 2.022 . S
Co171 N188 1.993 . S
Co171 O196 1.941 . S
C172 O173 1.258 . S
C172 O174 1.263 . S
O173 Co170 1.970 . S
O173 C172 1.258 . S
O174 Co171 1.966 . S
O174 C172 1.263 . S
C175 O176 1.235 . S
C175 O202 1.289 . S
O176 C175 1.235 . S
C177 C179 1.400 . S
C177 N180 1.351 . S
C177 C182 1.501 . S
C178 C179 1.387 . S
C178 N181 1.341 . S
C179 C177 1.400 . S
C179 C178 1.387 . S
N180 Co171 2.022 . S
N180 C177 1.351 . S
N180 N181 1.365 . S
N181 C178 1.341 . S
N181 N180 1.365 . S
N181 H201 0.862 . S
C182 C177 1.501 . S
C182 H183 0.961 . S
C182 H184 0.961 . S
C182 H185 0.960 . S
H183 C182 0.961 . S
H184 C182 0.961 . S
H185 C182 0.960 . S
C186 N187 1.342 . S
C186 C190 1.401 . S
C186 C191 1.499 . S
N187 Co170 1.989 . S
N187 C186 1.342 . S
N187 N188 1.388 . S
N188 Co171 1.993 . S
N188 N187 1.388 . S
N188 C189 1.346 . S
C189 N188 1.346 . S
C189 C190 1.396 . S
C189 C199 1.510 . S
C190 C186 1.401 . S
C190 C189 1.396 . S
C191 C186 1.499 . S
C191 H192 0.959 . S
C191 H193 0.960 . S
C191 H194 0.961 . S
H192 C191 0.959 . S
H193 C191 0.960 . S
H194 C191 0.961 . S
O195 Co170 1.967 . S
O195 C203 1.258 . S
O196 Co171 1.941 . S
O196 C203 1.266 . S
H197 C199 0.959 . S
H198 C199 0.961 . S
C199 C189 1.510 . S
C199 H197 0.959 . S
C199 H198 0.961 . S
C199 H200 0.960 . S
H200 C199 0.960 . S
H201 N181 0.862 . S
O202 Co170 1.920 . S
O202 C175 1.289 . S
C203 O195 1.258 . S
C203 O196 1.266 . S
Co204 O207 1.970 . S
Co204 N221 1.989 . S
Co204 O229 1.967 . S
Co204 O236 1.920 . S
Co205 O208 1.966 . S
Co205 N214 2.022 . S
Co205 N222 1.993 . S
Co205 O230 1.941 . S
C206 O207 1.258 . S
C206 O208 1.263 . S
O207 Co204 1.970 . S
O207 C206 1.258 . S
O208 Co205 1.966 . S
O208 C206 1.263 . S
C209 O210 1.235 . S
C209 O236 1.289 . S
O210 C209 1.235 . S
C211 C213 1.400 . S
C211 N214 1.351 . S
C211 C216 1.501 . S
C212 C213 1.387 . S
C212 N215 1.341 . S
C213 C211 1.400 . S
C213 C212 1.387 . S
N214 Co205 2.022 . S
N214 C211 1.351 . S
N214 N215 1.365 . S
N215 C212 1.341 . S
N215 N214 1.365 . S
N215 H235 0.862 . S
C216 C211 1.501 . S
C216 H217 0.961 . S
C216 H218 0.961 . S
C216 H219 0.960 . S
H217 C216 0.961 . S
H218 C216 0.961 . S
H219 C216 0.960 . S
C220 N221 1.342 . S
C220 C224 1.401 . S
C220 C225 1.499 . S
N221 Co204 1.989 . S
N221 C220 1.342 . S
N221 N222 1.388 . S
N222 Co205 1.993 . S
N222 N221 1.388 . S
N222 C223 1.346 . S
C223 N222 1.346 . S
C223 C224 1.396 . S
C223 C233 1.510 . S
C224 C220 1.401 . S
C224 C223 1.396 . S
C225 C220 1.499 . S
C225 H226 0.959 . S
C225 H227 0.960 . S
C225 H228 0.961 . S
H226 C225 0.959 . S
H227 C225 0.960 . S
H228 C225 0.961 . S
O229 Co204 1.967 . S
O229 C237 1.258 . S
O230 Co205 1.941 . S
O230 C237 1.266 . S
H231 C233 0.959 . S
H232 C233 0.961 . S
C233 C223 1.510 . S
C233 H231 0.959 . S
C233 H232 0.961 . S
C233 H234 0.960 . S
H234 C233 0.960 . S
H235 N215 0.862 . S
O236 Co204 1.920 . S
O236 C209 1.289 . S
C237 O229 1.258 . S
C237 O230 1.266 . S
Co238 O241 1.970 . S
Co238 N255 1.989 . S
Co238 O263 1.967 . S
Co238 O270 1.920 . S
Co239 O242 1.966 . S
Co239 N248 2.022 . S
Co239 N256 1.993 . S
Co239 O264 1.941 . S
C240 O241 1.258 . S
C240 O242 1.263 . S
O241 Co238 1.970 . S
O241 C240 1.258 . S
O242 Co239 1.966 . S
O242 C240 1.263 . S
C243 O244 1.235 . S
C243 O270 1.289 . S
O244 C243 1.235 . S
C245 C247 1.400 . S
C245 N248 1.351 . S
C245 C250 1.501 . S
C246 C247 1.387 . S
C246 N249 1.341 . S
C247 C245 1.400 . S
C247 C246 1.387 . S
N248 Co239 2.022 . S
N248 C245 1.351 . S
N248 N249 1.365 . S
N249 C246 1.341 . S
N249 N248 1.365 . S
N249 H269 0.862 . S
C250 C245 1.501 . S
C250 H251 0.961 . S
C250 H252 0.961 . S
C250 H253 0.960 . S
H251 C250 0.961 . S
H252 C250 0.961 . S
H253 C250 0.960 . S
C254 N255 1.342 . S
C254 C258 1.401 . S
C254 C259 1.499 . S
N255 Co238 1.989 . S
N255 C254 1.342 . S
N255 N256 1.388 . S
N256 Co239 1.993 . S
N256 N255 1.388 . S
N256 C257 1.346 . S
C257 N256 1.346 . S
C257 C258 1.396 . S
C257 C267 1.510 . S
C258 C254 1.401 . S
C258 C257 1.396 . S
C259 C254 1.499 . S
C259 H260 0.959 . S
C259 H261 0.960 . S
C259 H262 0.961 . S
H260 C259 0.959 . S
H261 C259 0.960 . S
H262 C259 0.961 . S
O263 Co238 1.967 . S
O263 C271 1.258 . S
O264 Co239 1.941 . S
O264 C271 1.266 . S
H265 C267 0.959 . S
H266 C267 0.961 . S
C267 C257 1.510 . S
C267 H265 0.959 . S
C267 H266 0.961 . S
C267 H268 0.960 . S
H268 C267 0.960 . S
H269 N249 0.862 . S
O270 Co238 1.920 . S
O270 C243 1.289 . S
C271 O263 1.258 . S
C271 O264 1.266 . S
H272 C280 0.950 . S
H273 C285 0.950 . S
H274 C282 0.950 . S
H275 C284 0.950 1_545 S
H276 C286 0.950 . S
H277 C288 0.950 . S
H278 C290 0.950 1_565 S
H279 C291 0.950 . S
C280 H272 0.950 . S
C280 C281 1.386 . S
C280 C282 1.391 . S
C281 C280 1.386 . S
C281 C285 1.393 . S
C282 H274 0.950 . S
C282 C280 1.391 . S
C282 C283 1.400 . S
C283 C282 1.400 . S
C283 C284 1.398 . S
C283 C289 1.491 1_565 S
C284 H275 0.950 1_565 S
C284 C283 1.398 . S
C284 C285 1.391 . S
C285 H273 0.950 . S
C285 C281 1.393 . S
C285 C284 1.391 . S
C286 H276 0.950 . S
C286 C287 1.386 . S
C286 C288 1.391 . S
C287 C286 1.386 . S
C287 C291 1.393 . S
C288 H277 0.950 . S
C288 C286 1.391 . S
C288 C289 1.400 . S
C289 C283 1.491 1_545 S
C289 C288 1.400 . S
C289 C290 1.398 . S
C290 H278 0.950 1_545 S
C290 C289 1.398 . S
C290 C291 1.391 . S
C291 H279 0.950 . S
C291 C287 1.393 . S
C291 C290 1.391 . S
H292 C300 0.950 . S
H293 C305 0.950 . S
H294 C302 0.950 . S
H295 C304 0.950 1_455 S
H296 C306 0.950 . S
H297 C308 0.950 . S
H298 C310 0.950 1_655 S
H299 C311 0.950 . S
C300 H292 0.950 . S
C300 C301 1.386 . S
C300 C302 1.391 . S
C301 C300 1.386 . S
C301 C305 1.393 . S
C302 H294 0.950 . S
C302 C300 1.391 . S
C302 C303 1.400 . S
C303 C302 1.400 . S
C303 C304 1.398 . S
C303 C309 1.491 1_655 S
C304 H295 0.950 1_655 S
C304 C303 1.398 . S
C304 C305 1.391 . S
C305 H293 0.950 . S
C305 C301 1.393 . S
C305 C304 1.391 . S
C306 H296 0.950 . S
C306 C307 1.386 . S
C306 C308 1.391 . S
C307 C306 1.386 . S
C307 C311 1.393 . S
C308 H297 0.950 . S
C308 C306 1.391 . S
C308 C309 1.400 . S
C309 C303 1.491 1_455 S
C309 C308 1.400 . S
C309 C310 1.398 . S
C310 H298 0.950 1_455 S
C310 C309 1.398 . S
C310 C311 1.391 . S
C311 H299 0.950 . S
C311 C307 1.393 . S
C311 C310 1.391 . S
H312 C320 0.950 . S
H313 C325 0.950 . S
H314 C322 0.950 . S
H315 C324 0.950 . S
H316 C326 0.950 . S
H317 C328 0.950 . S
H318 C330 0.950 . S
H319 C331 0.950 . S
C320 H312 0.950 . S
C320 C321 1.386 . S
C320 C322 1.391 . S
C321 C320 1.386 . S
C321 C325 1.393 . S
C322 H314 0.950 . S
C322 C320 1.391 . S
C322 C323 1.400 . S
C323 C322 1.400 . S
C323 C324 1.398 . S
C323 C329 1.491 1_655 S
C324 H315 0.950 . S
C324 C323 1.398 . S
C324 C325 1.391 . S
C325 H313 0.950 . S
C325 C321 1.393 . S
C325 C324 1.391 . S
C326 H316 0.950 . S
C326 C327 1.386 . S
C326 C328 1.391 . S
C327 C326 1.386 . S
C327 C331 1.393 . S
C328 H317 0.950 . S
C328 C326 1.391 . S
C328 C329 1.400 . S
C329 C323 1.491 1_455 S
C329 C328 1.400 . S
C329 C330 1.398 . S
C330 H318 0.950 . S
C330 C329 1.398 . S
C330 C331 1.391 . S
C331 H319 0.950 . S
C331 C327 1.393 . S
C331 C330 1.391 . S
H332 C340 0.950 . S
H333 C345 0.950 . S
H334 C342 0.950 . S
H335 C344 0.950 . S
H336 C346 0.950 . S
H337 C348 0.950 . S
H338 C350 0.950 . S
H339 C351 0.950 . S
C340 H332 0.950 . S
C340 C341 1.386 . S
C340 C342 1.391 . S
C341 C340 1.386 . S
C341 C345 1.393 . S
C342 H334 0.950 . S
C342 C340 1.391 . S
C342 C343 1.400 . S
C343 C342 1.400 . S
C343 C344 1.398 1_565 S
C343 C349 1.491 1_565 S
C344 H335 0.950 . S
C344 C343 1.398 1_545 S
C344 C345 1.391 1_545 S
C345 H333 0.950 . S
C345 C341 1.393 . S
C345 C344 1.391 1_565 S
C346 H336 0.950 . S
C346 C347 1.386 . S
C346 C348 1.391 . S
C347 C346 1.386 . S
C347 C351 1.393 . S
C348 H337 0.950 . S
C348 C346 1.391 . S
C348 C349 1.400 . S
C349 C343 1.491 1_545 S
C349 C348 1.400 . S
C349 C350 1.398 1_545 S
C350 H338 0.950 . S
C350 C349 1.398 1_565 S
C350 C351 1.391 1_565 S
C351 H339 0.950 . S
C351 C347 1.393 . S
C351 C350 1.391 1_545 S
H352 C360 0.950 . S
H353 C365 0.950 . S
H354 C362 0.950 . S
H355 C364 0.950 . S
H356 C366 0.950 1_556 S
H357 C368 0.950 1_556 S
H358 C370 0.950 . S
H359 C371 0.950 . S
C360 H352 0.950 . S
C360 C361 1.386 . S
C360 C362 1.391 . S
C361 C360 1.386 . S
C361 C365 1.393 1_554 S
C362 H354 0.950 . S
C362 C360 1.391 . S
C362 C363 1.400 . S
C363 C362 1.400 . S
C363 C364 1.398 1_554 S
C363 C369 1.491 . S
C364 H355 0.950 . S
C364 C363 1.398 1_556 S
C364 C365 1.391 . S
C365 H353 0.950 . S
C365 C361 1.393 1_556 S
C365 C364 1.391 . S
C366 H356 0.950 1_554 S
C366 C367 1.386 . S
C366 C368 1.391 . S
C367 C366 1.386 . S
C367 C371 1.393 . S
C368 H357 0.950 1_554 S
C368 C366 1.391 . S
C368 C369 1.400 . S
C369 C363 1.491 . S
C369 C368 1.400 . S
C369 C370 1.398 . S
C370 H358 0.950 . S
C370 C369 1.398 . S
C370 C371 1.391 . S
C371 H359 0.950 . S
C371 C367 1.393 . S
C371 C370 1.391 . S
H372 C380 0.950 . S
H373 C385 0.950 . S
H374 C382 0.950 . S
H375 C384 0.950 . S
H376 C386 0.950 . S
H377 C388 0.950 . S
H378 C390 0.950 . S
H379 C391 0.950 . S
C380 H372 0.950 . S
C380 C381 1.386 . S
C380 C382 1.391 . S
C381 C380 1.386 . S
C381 C385 1.393 . S
C382 H374 0.950 . S
C382 C380 1.391 . S
C382 C383 1.400 . S
C383 C382 1.400 . S
C383 C384 1.398 . S
C383 C389 1.491 . S
C384 H375 0.950 . S
C384 C383 1.398 . S
C384 C385 1.391 . S
C385 H373 0.950 . S
C385 C381 1.393 . S
C385 C384 1.391 . S
C386 H376 0.950 . S
C386 C387 1.386 . S
C386 C388 1.391 . S
C387 C386 1.386 . S
C387 C391 1.393 . S
C388 H377 0.950 . S
C388 C386 1.391 . S
C388 C389 1.400 . S
C389 C383 1.491 . S
C389 C388 1.400 . S
C389 C390 1.398 . S
C390 H378 0.950 . S
C390 C389 1.398 . S
C390 C391 1.391 . S
C391 H379 0.950 . S
C391 C387 1.393 . S
C391 C390 1.391 . S
H392 C400 0.950 . S
H393 C405 0.950 . S
H394 C402 0.950 . S
H395 C404 0.950 . S
H396 C406 0.950 . S
H397 C408 0.950 . S
H398 C410 0.950 . S
H399 C411 0.950 . S
C400 H392 0.950 . S
C400 C401 1.386 . S
C400 C402 1.391 . S
C401 C400 1.386 . S
C401 C405 1.393 . S
C402 H394 0.950 . S
C402 C400 1.391 . S
C402 C403 1.400 . S
C403 C402 1.400 . S
C403 C404 1.398 . S
C403 C409 1.491 . S
C404 H395 0.950 . S
C404 C403 1.398 . S
C404 C405 1.391 . S
C405 H393 0.950 . S
C405 C401 1.393 . S
C405 C404 1.391 . S
C406 H396 0.950 . S
C406 C407 1.386 . S
C406 C408 1.391 . S
C407 C406 1.386 . S
C407 C411 1.393 . S
C408 H397 0.950 . S
C408 C406 1.391 . S
C408 C409 1.400 . S
C409 C403 1.491 . S
C409 C408 1.400 . S
C409 C410 1.398 . S
C410 H398 0.950 . S
C410 C409 1.398 . S
C410 C411 1.391 . S
C411 H399 0.950 . S
C411 C407 1.393 . S
C411 C410 1.391 . S
H412 C420 0.950 1_556 S
H413 C425 0.950 . S
H414 C422 0.950 1_556 S
H415 C424 0.950 . S
H416 C426 0.950 . S
H417 C428 0.950 . S
H418 C430 0.950 1_556 S
H419 C431 0.950 1_556 S
C420 H412 0.950 1_554 S
C420 C421 1.386 . S
C420 C422 1.391 . S
C421 C420 1.386 . S
C421 C425 1.393 . S
C422 H414 0.950 1_554 S
C422 C420 1.391 . S
C422 C423 1.400 . S
C423 C422 1.400 . S
C423 C424 1.398 . S
C423 C429 1.491 . S
C424 H415 0.950 . S
C424 C423 1.398 . S
C424 C425 1.391 . S
C425 H413 0.950 . S
C425 C421 1.393 . S
C425 C424 1.391 . S
C426 H416 0.950 . S
C426 C427 1.386 . S
C426 C428 1.391 . S
C427 C426 1.386 . S
C427 C431 1.393 . S
C428 H417 0.950 . S
C428 C426 1.391 . S
C428 C429 1.400 . S
C429 C423 1.491 . S
C429 C428 1.400 . S
C429 C430 1.398 . S
C430 H418 0.950 1_554 S
C430 C429 1.398 . S
C430 C431 1.391 . S
C431 H419 0.950 1_554 S
C431 C427 1.393 . S
C431 C430 1.391 . S
H432 C440 0.950 . S
H433 C445 0.950 1_565 S
H434 C442 0.950 . S
H435 C444 0.950 . S
H436 C446 0.950 . S
H437 C448 0.950 . S
H438 C450 0.950 . S
H439 C451 0.950 . S
C440 H432 0.950 . S
C440 C441 1.386 1_545 S
C440 C442 1.391 . S
C441 C440 1.386 1_565 S
C441 C445 1.393 1_565 S
C442 H434 0.950 . S
C442 C440 1.391 . S
C442 C443 1.400 . S
C443 C442 1.400 . S
C443 C444 1.398 . S
C443 C449 1.491 . S
C444 H435 0.950 . S
C444 C443 1.398 . S
C444 C445 1.391 . S
C445 H433 0.950 1_545 S
C445 C441 1.393 1_545 S
C445 C444 1.391 . S
C446 H436 0.950 . S
C446 C447 1.386 . S
C446 C448 1.391 . S
C447 C446 1.386 . S
C447 C451 1.393 . S
C448 H437 0.950 . S
C448 C446 1.391 . S
C448 C449 1.400 . S
C449 C443 1.491 . S
C449 C448 1.400 . S
C449 C450 1.398 . S
C450 H438 0.950 . S
C450 C449 1.398 . S
C450 C451 1.391 . S
C451 H439 0.950 . S
C451 C447 1.393 . S
C451 C450 1.391 . S
H452 C460 0.950 1_455 S
H453 C465 0.950 . S
H454 C462 0.950 . S
H455 C464 0.950 . S
H456 C466 0.950 . S
H457 C468 0.950 . S
H458 C470 0.950 . S
H459 C471 0.950 . S
C460 H452 0.950 1_655 S
C460 C461 1.386 1_655 S
C460 C462 1.391 . S
C461 C460 1.386 1_455 S
C461 C465 1.393 1_455 S
C462 H454 0.950 . S
C462 C460 1.391 . S
C462 C463 1.400 . S
C463 C462 1.400 . S
C463 C464 1.398 . S
C463 C469 1.491 . S
C464 H455 0.950 . S
C464 C463 1.398 . S
C464 C465 1.391 . S
C465 H453 0.950 . S
C465 C461 1.393 1_655 S
C465 C464 1.391 . S
C466 H456 0.950 . S
C466 C467 1.386 . S
C466 C468 1.391 . S
C467 C466 1.386 . S
C467 C471 1.393 . S
C468 H457 0.950 . S
C468 C466 1.391 . S
C468 C469 1.400 . S
C469 C463 1.491 . S
C469 C468 1.400 . S
C469 C470 1.398 . S
C470 H458 0.950 . S
C470 C469 1.398 . S
C470 C471 1.391 . S
C471 H459 0.950 . S
C471 C467 1.393 . S
C471 C470 1.391 . S
H472 C480 0.950 1_545 S
H473 C485 0.950 . S
H474 C482 0.950 . S
H475 C484 0.950 . S
H476 C486 0.950 . S
H477 C488 0.950 . S
H478 C490 0.950 . S
H479 C491 0.950 . S
C480 H472 0.950 1_565 S
C480 C481 1.386 1_565 S
C480 C482 1.391 . S
C481 C480 1.386 1_545 S
C481 C485 1.393 1_545 S
C482 H474 0.950 . S
C482 C480 1.391 . S
C482 C483 1.400 . S
C483 C482 1.400 . S
C483 C484 1.398 . S
C483 C489 1.491 . S
C484 H475 0.950 . S
C484 C483 1.398 . S
C484 C485 1.391 . S
C485 H473 0.950 . S
C485 C481 1.393 1_565 S
C485 C484 1.391 . S
C486 H476 0.950 . S
C486 C487 1.386 . S
C486 C488 1.391 . S
C487 C486 1.386 . S
C487 C491 1.393 . S
C488 H477 0.950 . S
C488 C486 1.391 . S
C488 C489 1.400 . S
C489 C483 1.491 . S
C489 C488 1.400 . S
C489 C490 1.398 . S
C490 H478 0.950 . S
C490 C489 1.398 . S
C490 C491 1.391 . S
C491 H479 0.950 . S
C491 C487 1.393 . S
C491 C490 1.391 . S
H492 C500 0.950 1_655 S
H493 C505 0.950 . S
H494 C502 0.950 . S
H495 C504 0.950 . S
H496 C506 0.950 . S
H497 C508 0.950 . S
H498 C510 0.950 . S
H499 C511 0.950 . S
C500 H492 0.950 1_455 S
C500 C501 1.386 1_455 S
C500 C502 1.391 . S
C501 C500 1.386 1_655 S
C501 C505 1.393 1_655 S
C502 H494 0.950 . S
C502 C500 1.391 . S
C502 C503 1.400 . S
C503 C502 1.400 . S
C503 C504 1.398 . S
C503 C509 1.491 . S
C504 H495 0.950 . S
C504 C503 1.398 . S
C504 C505 1.391 . S
C505 H493 0.950 . S
C505 C501 1.393 1_455 S
C505 C504 1.391 . S
C506 H496 0.950 . S
C506 C507 1.386 . S
C506 C508 1.391 . S
C507 C506 1.386 . S
C507 C511 1.393 . S
C508 H497 0.950 . S
C508 C506 1.391 . S
C508 C509 1.400 . S
C509 C503 1.491 . S
C509 C508 1.400 . S
C509 C510 1.398 . S
C510 H498 0.950 . S
C510 C509 1.398 . S
C510 C511 1.391 . S
C511 H499 0.950 . S
C511 C507 1.393 . S
C511 C510 1.391 . S
H512 C520 0.950 . S
H513 C525 0.950 . S
H514 C522 0.950 . S
H515 C524 0.950 . S
H516 C526 0.950 . S
H517 C528 0.950 . S
H518 C530 0.950 . S
H519 C531 0.950 . S
C520 H512 0.950 . S
C520 C521 1.386 . S
C520 C522 1.391 . S
C521 C520 1.386 . S
C521 C525 1.393 . S
C522 H514 0.950 . S
C522 C520 1.391 . S
C522 C523 1.400 . S
C523 C522 1.400 . S
C523 C524 1.398 . S
C523 C529 1.491 . S
C524 H515 0.950 . S
C524 C523 1.398 . S
C524 C525 1.391 . S
C525 H513 0.950 . S
C525 C521 1.393 . S
C525 C524 1.391 . S
C526 H516 0.950 . S
C526 C527 1.386 . S
C526 C528 1.391 . S
C527 C526 1.386 . S
C527 C531 1.393 . S
C528 H517 0.950 . S
C528 C526 1.391 . S
C528 C529 1.400 . S
C529 C523 1.491 . S
C529 C528 1.400 . S
C529 C530 1.398 . S
C530 H518 0.950 . S
C530 C529 1.398 . S
C530 C531 1.391 . S
C531 H519 0.950 . S
C531 C527 1.393 . S
C531 C530 1.391 . S
H532 C540 0.950 . S
H533 C545 0.950 . S
H534 C542 0.950 . S
H535 C544 0.950 . S
H536 C546 0.950 . S
H537 C548 0.950 . S
H538 C550 0.950 . S
H539 C551 0.950 . S
C540 H532 0.950 . S
C540 C541 1.386 . S
C540 C542 1.391 . S
C541 C540 1.386 . S
C541 C545 1.393 . S
C542 H534 0.950 . S
C542 C540 1.391 . S
C542 C543 1.400 . S
C543 C542 1.400 . S
C543 C544 1.398 . S
C543 C549 1.491 . S
C544 H535 0.950 . S
C544 C543 1.398 . S
C544 C545 1.391 . S
C545 H533 0.950 . S
C545 C541 1.393 . S
C545 C544 1.391 . S
C546 H536 0.950 . S
C546 C547 1.386 . S
C546 C548 1.391 . S
C547 C546 1.386 . S
C547 C551 1.393 . S
C548 H537 0.950 . S
C548 C546 1.391 . S
C548 C549 1.400 . S
C549 C543 1.491 . S
C549 C548 1.400 . S
C549 C550 1.398 . S
C550 H538 0.950 . S
C550 C549 1.398 . S
C550 C551 1.391 . S
C551 H539 0.950 . S
C551 C547 1.393 . S
C551 C550 1.391 . S
H552 C560 0.950 . S
H553 C565 0.950 . S
H554 C562 0.950 . S
H555 C564 0.950 . S
H556 C566 0.950 . S
H557 C568 0.950 . S
H558 C570 0.950 . S
H559 C571 0.950 . S
C560 H552 0.950 . S
C560 C561 1.386 . S
C560 C562 1.391 . S
C561 C560 1.386 . S
C561 C565 1.393 . S
C562 H554 0.950 . S
C562 C560 1.391 . S
C562 C563 1.400 . S
C563 C562 1.400 . S
C563 C564 1.398 . S
C563 C569 1.491 . S
C564 H555 0.950 . S
C564 C563 1.398 . S
C564 C565 1.391 . S
C565 H553 0.950 . S
C565 C561 1.393 . S
C565 C564 1.391 . S
C566 H556 0.950 . S
C566 C567 1.386 . S
C566 C568 1.391 . S
C567 C566 1.386 . S
C567 C571 1.393 . S
C568 H557 0.950 . S
C568 C566 1.391 . S
C568 C569 1.400 . S
C569 C563 1.491 . S
C569 C568 1.400 . S
C569 C570 1.398 . S
C570 H558 0.950 . S
C570 C569 1.398 . S
C570 C571 1.391 . S
C571 H559 0.950 . S
C571 C567 1.393 . S
C571 C570 1.391 . S
H572 C580 0.950 . S
H573 C585 0.950 . S
H574 C582 0.950 . S
H575 C584 0.950 . S
H576 C586 0.950 . S
H577 C588 0.950 . S
H578 C590 0.950 . S
H579 C591 0.950 . S
C580 H572 0.950 . S
C580 C581 1.386 . S
C580 C582 1.391 . S
C581 C580 1.386 . S
C581 C585 1.393 . S
C582 H574 0.950 . S
C582 C580 1.391 . S
C582 C583 1.400 . S
C583 C582 1.400 . S
C583 C584 1.398 . S
C583 C589 1.491 . S
C584 H575 0.950 . S
C584 C583 1.398 . S
C584 C585 1.391 . S
C585 H573 0.950 . S
C585 C581 1.393 . S
C585 C584 1.391 . S
C586 H576 0.950 . S
C586 C587 1.386 . S
C586 C588 1.391 . S
C587 C586 1.386 . S
C587 C591 1.393 . S
C588 H577 0.950 . S
C588 C586 1.391 . S
C588 C589 1.400 . S
C589 C583 1.491 . S
C589 C588 1.400 . S
C589 C590 1.398 . S
C590 H578 0.950 . S
C590 C589 1.398 . S
C590 C591 1.391 . S
C591 H579 0.950 . S
C591 C587 1.393 . S
C591 C590 1.391 . S
H592 C600 0.950 . S
H593 C605 0.950 . S
H594 C602 0.950 . S
H595 C604 0.950 . S
H596 C606 0.950 . S
H597 C608 0.950 . S
H598 C610 0.950 . S
H599 C611 0.950 . S
C600 H592 0.950 . S
C600 C601 1.386 . S
C600 C602 1.391 . S
C601 C600 1.386 . S
C601 C605 1.393 . S
C602 H594 0.950 . S
C602 C600 1.391 . S
C602 C603 1.400 . S
C603 C602 1.400 . S
C603 C604 1.398 . S
C603 C609 1.491 . S
C604 H595 0.950 . S
C604 C603 1.398 . S
C604 C605 1.391 . S
C605 H593 0.950 . S
C605 C601 1.393 . S
C605 C604 1.391 . S
C606 H596 0.950 . S
C606 C607 1.386 . S
C606 C608 1.391 . S
C607 C606 1.386 . S
C607 C611 1.393 . S
C608 H597 0.950 . S
C608 C606 1.391 . S
C608 C609 1.400 . S
C609 C603 1.491 . S
C609 C608 1.400 . S
C609 C610 1.398 . S
C610 H598 0.950 . S
C610 C609 1.398 . S
C610 C611 1.391 . S
C611 H599 0.950 . S
C611 C607 1.393 . S
C611 C610 1.391 . S
H612 C620 0.950 . S
H613 C625 0.950 . S
H614 C622 0.950 . S
H615 C624 0.950 . S
H616 C626 0.950 . S
H617 C628 0.950 . S
H618 C630 0.950 . S
H619 C631 0.950 . S
C620 H612 0.950 . S
C620 C621 1.386 . S
C620 C622 1.391 . S
C621 C620 1.386 . S
C621 C625 1.393 . S
C622 H614 0.950 . S
C622 C620 1.391 . S
C622 C623 1.400 . S
C623 C622 1.400 . S
C623 C624 1.398 . S
C623 C629 1.491 . S
C624 H615 0.950 . S
C624 C623 1.398 . S
C624 C625 1.391 . S
C625 H613 0.950 . S
C625 C621 1.393 . S
C625 C624 1.391 . S
C626 H616 0.950 . S
C626 C627 1.386 . S
C626 C628 1.391 . S
C627 C626 1.386 . S
C627 C631 1.393 . S
C628 H617 0.950 . S
C628 C626 1.391 . S
C628 C629 1.400 . S
C629 C623 1.491 . S
C629 C628 1.400 . S
C629 C630 1.398 . S
C630 H618 0.950 . S
C630 C629 1.398 . S
C630 C631 1.391 . S
C631 H619 0.950 . S
C631 C627 1.393 . S
C631 C630 1.391 . S
H632 C640 0.950 . S
H633 C645 0.950 . S
H634 C642 0.950 . S
H635 C644 0.950 . S
H636 C646 0.950 . S
H637 C648 0.950 . S
H638 C650 0.950 . S
H639 C651 0.950 . S
C640 H632 0.950 . S
C640 C641 1.386 . S
C640 C642 1.391 . S
C641 C640 1.386 . S
C641 C645 1.393 . S
C642 H634 0.950 . S
C642 C640 1.391 . S
C642 C643 1.400 . S
C643 C642 1.400 . S
C643 C644 1.398 . S
C643 C649 1.491 . S
C644 H635 0.950 . S
C644 C643 1.398 . S
C644 C645 1.391 . S
C645 H633 0.950 . S
C645 C641 1.393 . S
C645 C644 1.391 . S
C646 H636 0.950 . S
C646 C647 1.386 . S
C646 C648 1.391 . S
C647 C646 1.386 . S
C647 C651 1.393 . S
C648 H637 0.950 . S
C648 C646 1.391 . S
C648 C649 1.400 . S
C649 C643 1.491 . S
C649 C648 1.400 . S
C649 C650 1.398 . S
C650 H638 0.950 . S
C650 C649 1.398 . S
C650 C651 1.391 . S
C651 H639 0.950 . S
C651 C647 1.393 . S
C651 C650 1.391 . S
H652 C660 0.950 . S
H653 C665 0.950 . S
H654 C662 0.950 . S
H655 C664 0.950 . S
H656 C666 0.950 . S
H657 C668 0.950 . S
H658 C670 0.950 . S
H659 C671 0.950 . S
C660 H652 0.950 . S
C660 C661 1.386 . S
C660 C662 1.391 . S
C661 C660 1.386 . S
C661 C665 1.393 . S
C662 H654 0.950 . S
C662 C660 1.391 . S
C662 C663 1.400 . S
C663 C662 1.400 . S
C663 C664 1.398 . S
C663 C669 1.491 . S
C664 H655 0.950 . S
C664 C663 1.398 . S
C664 C665 1.391 . S
C665 H653 0.950 . S
C665 C661 1.393 . S
C665 C664 1.391 . S
C666 H656 0.950 . S
C666 C667 1.386 . S
C666 C668 1.391 . S
C667 C666 1.386 . S
C667 C671 1.393 . S
C668 H657 0.950 . S
C668 C666 1.391 . S
C668 C669 1.400 . S
C669 C663 1.491 . S
C669 C668 1.400 . S
C669 C670 1.398 . S
C670 H658 0.950 . S
C670 C669 1.398 . S
C670 C671 1.391 . S
C671 H659 0.950 . S
C671 C667 1.393 . S
C671 C670 1.391 . S
C281 C77 0.968 . S
C287 C9 0.980 . S
C301 C43 0.954 . S
C307 C111 0.967 . S
C321 C145 0.986 . S
C327 C213 0.980 . S
C341 C179 0.958 . S
C347 C247 0.945 . S
C361 C135 1.654 . S
C367 C5 1.680 . S
C381 C33 1.662 . S
C387 C39 1.681 . S
C401 C73 1.677 . S
C407 C67 1.658 . S
C421 C107 1.678 . S
C427 C101 1.661 . S
C441 C203 1.665 . S
C447 C141 1.680 . S
C461 C237 1.651 . S
C467 C175 1.677 . S
C481 C271 1.651 . S
C487 C209 1.678 . S
C501 C169 1.651 . S
C507 C243 1.678 . S
C521 C20 1.740 . S
C527 C258 1.739 . S
C541 C54 1.735 . S
C547 C156 1.737 . S
C561 C190 1.737 . S
C567 C88 1.735 . S
C581 C224 1.740 . S
C587 C122 1.739 . S
C601 C70 1.914 . S
C607 C172 1.915 . S
C621 C206 1.923 . S
C627 C104 1.922 . S
C641 C240 1.925 . S
C647 C2 1.925 . S
C661 C138 1.922 . S
C667 C36 1.923 . S
