# Generated by pormake.
# Topology vcd, (5)-cn, num edge types: 1
# Building blocks:
#     Node 0, Type 0, BuildingBlock: BEQFEK_clean_sbu_0, # of connection points: 5
#     Node 1, Type 0, BuildingBlock: BEQFEK_clean_sbu_0, # of connection points: 5
#     Node 2, Type 0, BuildingBlock: BEQFEK_clean_sbu_0, # of connection points: 5
#     Node 3, Type 0, BuildingBlock: BEQFEK_clean_sbu_0, # of connection points: 5
#     Node 4, Type 0, BuildingBlock: BEQFEK_clean_sbu_0, # of connection points: 5
#     Node 5, Type 0, BuildingBlock: BEQFEK_clean_sbu_0, # of connection points: 5
#     Node 6, Type 0, BuildingBlock: BEQFEK_clean_sbu_0, # of connection points: 5
#     Node 7, Type 0, BuildingBlock: BEQFEK_clean_sbu_0, # of connection points: 5
#     Node 8, Type 0, BuildingBlock: BEQFEK_clean_sbu_0, # of connection points: 5
#     Node 9, Type 0, BuildingBlock: BEQFEK_clean_sbu_0, # of connection points: 5
#     Node 10, Type 0, BuildingBlock: BEQFEK_clean_sbu_0, # of connection points: 5
#     Node 11, Type 0, BuildingBlock: BEQFEK_clean_sbu_0, # of connection points: 5
#     Node 12, Type 0, BuildingBlock: BEQFEK_clean_sbu_0, # of connection points: 5
#     Node 13, Type 0, BuildingBlock: BEQFEK_clean_sbu_0, # of connection points: 5
#     Node 14, Type 0, BuildingBlock: BEQFEK_clean_sbu_0, # of connection points: 5
#     Node 15, Type 0, BuildingBlock: BEQFEK_clean_sbu_0, # of connection points: 5
#     Node 16, Type 0, BuildingBlock: BEQFEK_clean_sbu_0, # of connection points: 5
#     Node 17, Type 0, BuildingBlock: BEQFEK_clean_sbu_0, # of connection points: 5
#     Node 18, Type 0, BuildingBlock: BEQFEK_clean_sbu_0, # of connection points: 5
#     Node 19, Type 0, BuildingBlock: BEQFEK_clean_sbu_0, # of connection points: 5
#     Node 20, Type 0, BuildingBlock: BEQFEK_clean_sbu_0, # of connection points: 5
#     Node 21, Type 0, BuildingBlock: BEQFEK_clean_sbu_0, # of connection points: 5
#     Node 22, Type 0, BuildingBlock: BEQFEK_clean_sbu_0, # of connection points: 5
#     Node 23, Type 0, BuildingBlock: BEQFEK_clean_sbu_0, # of connection points: 5
#     Node 24, Type 0, BuildingBlock: BEQFEK_clean_sbu_0, # of connection points: 5
#     Node 25, Type 0, BuildingBlock: BEQFEK_clean_sbu_0, # of connection points: 5
#     Node 26, Type 0, BuildingBlock: BEQFEK_clean_sbu_0, # of connection points: 5
#     Node 27, Type 0, BuildingBlock: BEQFEK_clean_sbu_0, # of connection points: 5
#     Node 28, Type 0, BuildingBlock: BEQFEK_clean_sbu_0, # of connection points: 5
#     Node 29, Type 0, BuildingBlock: BEQFEK_clean_sbu_0, # of connection points: 5
#     Node 30, Type 0, BuildingBlock: BEQFEK_clean_sbu_0, # of connection points: 5
#     Node 31, Type 0, BuildingBlock: BEQFEK_clean_sbu_0, # of connection points: 5
#     Edge 32, Type (0, 0), BuildingBlock: ZUJKAS_clean_linker_0, # of connection points: 2
#     Edge 33, Type (0, 0), BuildingBlock: ZUJKAS_clean_linker_0, # of connection points: 2
#     Edge 34, Type (0, 0), BuildingBlock: ZUJKAS_clean_linker_0, # of connection points: 2
#     Edge 35, Type (0, 0), BuildingBlock: ZUJKAS_clean_linker_0, # of connection points: 2
#     Edge 36, Type (0, 0), BuildingBlock: ZUJKAS_clean_linker_0, # of connection points: 2
#     Edge 37, Type (0, 0), BuildingBlock: ZUJKAS_clean_linker_0, # of connection points: 2
#     Edge 38, Type (0, 0), BuildingBlock: ZUJKAS_clean_linker_0, # of connection points: 2
#     Edge 39, Type (0, 0), BuildingBlock: ZUJKAS_clean_linker_0, # of connection points: 2
#     Edge 40, Type (0, 0), BuildingBlock: ZUJKAS_clean_linker_0, # of connection points: 2
#     Edge 41, Type (0, 0), BuildingBlock: ZUJKAS_clean_linker_0, # of connection points: 2
#     Edge 42, Type (0, 0), BuildingBlock: ZUJKAS_clean_linker_0, # of connection points: 2
#     Edge 43, Type (0, 0), BuildingBlock: ZUJKAS_clean_linker_0, # of connection points: 2
#     Edge 44, Type (0, 0), BuildingBlock: ZUJKAS_clean_linker_0, # of connection points: 2
#     Edge 45, Type (0, 0), BuildingBlock: ZUJKAS_clean_linker_0, # of connection points: 2
#     Edge 46, Type (0, 0), BuildingBlock: ZUJKAS_clean_linker_0, # of connection points: 2
#     Edge 47, Type (0, 0), BuildingBlock: ZUJKAS_clean_linker_0, # of connection points: 2
#     Edge 48, Type (0, 0), BuildingBlock: ZUJKAS_clean_linker_0, # of connection points: 2
#     Edge 49, Type (0, 0), BuildingBlock: ZUJKAS_clean_linker_0, # of connection points: 2
#     Edge 50, Type (0, 0), BuildingBlock: ZUJKAS_clean_linker_0, # of connection points: 2
#     Edge 51, Type (0, 0), BuildingBlock: ZUJKAS_clean_linker_0, # of connection points: 2
#     Edge 52, Type (0, 0), BuildingBlock: ZUJKAS_clean_linker_0, # of connection points: 2
#     Edge 53, Type (0, 0), BuildingBlock: ZUJKAS_clean_linker_0, # of connection points: 2
#     Edge 54, Type (0, 0), BuildingBlock: ZUJKAS_clean_linker_0, # of connection points: 2
#     Edge 55, Type (0, 0), BuildingBlock: ZUJKAS_clean_linker_0, # of connection points: 2
#     Edge 56, Type (0, 0), BuildingBlock: ZUJKAS_clean_linker_0, # of connection points: 2
#     Edge 57, Type (0, 0), BuildingBlock: ZUJKAS_clean_linker_0, # of connection points: 2
#     Edge 58, Type (0, 0), BuildingBlock: ZUJKAS_clean_linker_0, # of connection points: 2
#     Edge 59, Type (0, 0), BuildingBlock: ZUJKAS_clean_linker_0, # of connection points: 2
#     Edge 60, Type (0, 0), BuildingBlock: ZUJKAS_clean_linker_0, # of connection points: 2
#     Edge 61, Type (0, 0), BuildingBlock: ZUJKAS_clean_linker_0, # of connection points: 2
#     Edge 62, Type (0, 0), BuildingBlock: ZUJKAS_clean_linker_0, # of connection points: 2
#     Edge 63, Type (0, 0), BuildingBlock: ZUJKAS_clean_linker_0, # of connection points: 2
#     Edge 64, Type (0, 0), BuildingBlock: ZUJKAS_clean_linker_0, # of connection points: 2
#     Edge 65, Type (0, 0), BuildingBlock: ZUJKAS_clean_linker_0, # of connection points: 2
#     Edge 66, Type (0, 0), BuildingBlock: ZUJKAS_clean_linker_0, # of connection points: 2
#     Edge 67, Type (0, 0), BuildingBlock: ZUJKAS_clean_linker_0, # of connection points: 2
#     Edge 68, Type (0, 0), BuildingBlock: ZUJKAS_clean_linker_0, # of connection points: 2
#     Edge 69, Type (0, 0), BuildingBlock: ZUJKAS_clean_linker_0, # of connection points: 2
#     Edge 70, Type (0, 0), BuildingBlock: ZUJKAS_clean_linker_0, # of connection points: 2
#     Edge 71, Type (0, 0), BuildingBlock: ZUJKAS_clean_linker_0, # of connection points: 2
#     Edge 72, Type (0, 0), BuildingBlock: ZUJKAS_clean_linker_0, # of connection points: 2
#     Edge 73, Type (0, 0), BuildingBlock: ZUJKAS_clean_linker_0, # of connection points: 2
#     Edge 74, Type (0, 0), BuildingBlock: ZUJKAS_clean_linker_0, # of connection points: 2
#     Edge 75, Type (0, 0), BuildingBlock: ZUJKAS_clean_linker_0, # of connection points: 2
#     Edge 76, Type (0, 0), BuildingBlock: ZUJKAS_clean_linker_0, # of connection points: 2
#     Edge 77, Type (0, 0), BuildingBlock: ZUJKAS_clean_linker_0, # of connection points: 2
#     Edge 78, Type (0, 0), BuildingBlock: ZUJKAS_clean_linker_0, # of connection points: 2
#     Edge 79, Type (0, 0), BuildingBlock: ZUJKAS_clean_linker_0, # of connection points: 2
#     Edge 80, Type (0, 0), BuildingBlock: ZUJKAS_clean_linker_0, # of connection points: 2
#     Edge 81, Type (0, 0), BuildingBlock: ZUJKAS_clean_linker_0, # of connection points: 2
#     Edge 82, Type (0, 0), BuildingBlock: ZUJKAS_clean_linker_0, # of connection points: 2
#     Edge 83, Type (0, 0), BuildingBlock: ZUJKAS_clean_linker_0, # of connection points: 2
#     Edge 84, Type (0, 0), BuildingBlock: ZUJKAS_clean_linker_0, # of connection points: 2
#     Edge 85, Type (0, 0), BuildingBlock: ZUJKAS_clean_linker_0, # of connection points: 2
#     Edge 86, Type (0, 0), BuildingBlock: ZUJKAS_clean_linker_0, # of connection points: 2
#     Edge 87, Type (0, 0), BuildingBlock: ZUJKAS_clean_linker_0, # of connection points: 2
#     Edge 88, Type (0, 0), BuildingBlock: ZUJKAS_clean_linker_0, # of connection points: 2
#     Edge 89, Type (0, 0), BuildingBlock: ZUJKAS_clean_linker_0, # of connection points: 2
#     Edge 90, Type (0, 0), BuildingBlock: ZUJKAS_clean_linker_0, # of connection points: 2
#     Edge 91, Type (0, 0), BuildingBlock: ZUJKAS_clean_linker_0, # of connection points: 2
#     Edge 92, Type (0, 0), BuildingBlock: ZUJKAS_clean_linker_0, # of connection points: 2
#     Edge 93, Type (0, 0), BuildingBlock: ZUJKAS_clean_linker_0, # of connection points: 2
#     Edge 94, Type (0, 0), BuildingBlock: ZUJKAS_clean_linker_0, # of connection points: 2
#     Edge 95, Type (0, 0), BuildingBlock: ZUJKAS_clean_linker_0, # of connection points: 2
#     Edge 96, Type (0, 0), BuildingBlock: ZUJKAS_clean_linker_0, # of connection points: 2
#     Edge 97, Type (0, 0), BuildingBlock: ZUJKAS_clean_linker_0, # of connection points: 2
#     Edge 98, Type (0, 0), BuildingBlock: ZUJKAS_clean_linker_0, # of connection points: 2
#     Edge 99, Type (0, 0), BuildingBlock: ZUJKAS_clean_linker_0, # of connection points: 2
#     Edge 100, Type (0, 0), BuildingBlock: ZUJKAS_clean_linker_0, # of connection points: 2
#     Edge 101, Type (0, 0), BuildingBlock: ZUJKAS_clean_linker_0, # of connection points: 2
#     Edge 102, Type (0, 0), BuildingBlock: ZUJKAS_clean_linker_0, # of connection points: 2
#     Edge 103, Type (0, 0), BuildingBlock: ZUJKAS_clean_linker_0, # of connection points: 2
#     Edge 104, Type (0, 0), BuildingBlock: ZUJKAS_clean_linker_0, # of connection points: 2
#     Edge 105, Type (0, 0), BuildingBlock: ZUJKAS_clean_linker_0, # of connection points: 2
#     Edge 106, Type (0, 0), BuildingBlock: ZUJKAS_clean_linker_0, # of connection points: 2
#     Edge 107, Type (0, 0), BuildingBlock: ZUJKAS_clean_linker_0, # of connection points: 2
#     Edge 108, Type (0, 0), BuildingBlock: ZUJKAS_clean_linker_0, # of connection points: 2
#     Edge 109, Type (0, 0), BuildingBlock: ZUJKAS_clean_linker_0, # of connection points: 2
#     Edge 110, Type (0, 0), BuildingBlock: ZUJKAS_clean_linker_0, # of connection points: 2
#     Edge 111, Type (0, 0), BuildingBlock: ZUJKAS_clean_linker_0, # of connection points: 2
# Relax obj value: 0.029
# Max RMSD: 0.078
# Mean RMSD: 0.078
data_MOF--net-vcd--node1-BEQFEK_clean_sbu_0--edge1-ZUJKAS_clean_linker_0
_symmetry_space_group_name_H-M    P1
_symmetry_Int_Tables_number       1
_symmetry_cell_setting            triclinic
loop_
_symmetry_equiv_pos_as_xyz
'x, y, z'
_cell_length_a     187.56295
_cell_length_b     70.073587
_cell_length_c     28.284538
_cell_angle_alpha  89.998079
_cell_angle_beta   90.006932
_cell_angle_gamma 90.002809
loop_
_atom_site_label
_atom_site_type_symbol
_atom_site_fract_x
_atom_site_fract_y
_atom_site_fract_z
_atom_type_partial_charge
Co0 Co 0.07641 0.46289 0.12172 0.0
Co1 Co 0.05954 0.46499 0.11859 0.0
C2 C 0.06801 0.44428 0.04444 0.0
O3 O 0.07395 0.44863 0.0635 0.0
O4 O 0.0621 0.44974 0.06215 0.0
C5 C 0.09103 0.46741 0.09054 0.0
O6 O 0.08822 0.46845 0.04806 0.0
C7 C 0.04479 0.47338 0.08436 0.0
C8 C 0.03895 0.47354 0.15218 0.0
C9 C 0.03803 0.47578 0.10391 0.0
N10 N 0.04946 0.47007 0.11966 0.0
N11 N 0.04591 0.47021 0.16001 0.0
C12 C 0.0467 0.4734 0.03296 0.0
H13 H 0.05173 0.46562 0.02664 0.0
H14 H 0.04744 0.48833 0.0209 0.0
H15 H 0.04236 0.46688 0.01169 0.0
C16 C 0.07459 0.50485 0.12515 0.0
N17 N 0.0719 0.48706 0.1227 0.0
N18 N 0.06489 0.48802 0.12113 0.0
C19 C 0.06291 0.5065 0.1224 0.0
C20 C 0.06899 0.51775 0.12496 0.0
C21 C 0.08237 0.50927 0.12995 0.0
H22 H 0.0848 0.49965 0.15657 0.0
H23 H 0.08504 0.50673 0.09554 0.0
H24 H 0.08327 0.52429 0.14083 0.0
O25 O 0.0734 0.44749 0.17656 0.0
O26 O 0.06158 0.44898 0.17476 0.0
H27 H 0.0523 0.50798 0.1499 0.0
H28 H 0.05494 0.52892 0.11674 0.0
C29 C 0.05535 0.51316 0.11882 0.0
H30 H 0.05289 0.50702 0.08664 0.0
H31 H 0.04824 0.46791 0.19301 0.0
O32 O 0.08695 0.46534 0.12608 0.0
C33 C 0.06734 0.443 0.19348 0.0
Co34 Co 0.18146 0.77811 0.12135 0.0
Co35 Co 0.19829 0.77591 0.12405 0.0
C36 C 0.19045 0.79591 0.04577 0.0
O37 O 0.18437 0.79192 0.0634 0.0
O38 O 0.19621 0.79044 0.06542 0.0
C39 C 0.16679 0.77632 0.0878 0.0
O40 O 0.1696 0.77845 0.04558 0.0
C41 C 0.21289 0.76673 0.09253 0.0
C42 C 0.21877 0.76702 0.16019 0.0
C43 C 0.21964 0.76418 0.11203 0.0
N44 N 0.2083 0.77091 0.12759 0.0
N45 N 0.21187 0.77114 0.16788 0.0
C46 C 0.21066 0.76403 0.04219 0.0
H47 H 0.20493 0.76019 0.04032 0.0
H48 H 0.21391 0.75275 0.025 0.0
H49 H 0.21144 0.77762 0.02271 0.0
C50 C 0.18318 0.73618 0.12502 0.0
N51 N 0.18592 0.75393 0.12442 0.0
N52 N 0.19293 0.7529 0.12607 0.0
C53 C 0.19487 0.73439 0.12815 0.0
C54 C 0.18876 0.72319 0.12741 0.0
C55 C 0.1754 0.7319 0.12026 0.0
H56 H 0.17327 0.73932 0.08863 0.0
H57 H 0.17435 0.7164 0.11665 0.0
H58 H 0.17253 0.73749 0.15165 0.0
O59 O 0.18411 0.79397 0.17642 0.0
O60 O 0.19592 0.79245 0.17843 0.0
H61 H 0.20267 0.7123 0.14258 0.0
H62 H 0.20522 0.7298 0.09886 0.0
C63 C 0.2024 0.72762 0.13288 0.0
H64 H 0.20517 0.73605 0.16048 0.0
H65 H 0.20956 0.77397 0.20073 0.0
O66 O 0.17087 0.77555 0.12367 0.0
C67 C 0.19004 0.79861 0.19495 0.0
Co68 Co 0.07589 0.77699 0.12405 0.0
Co69 Co 0.05902 0.77518 0.1251 0.0
C70 C 0.06736 0.79674 0.19871 0.0
O71 O 0.07334 0.79217 0.18053 0.0
O72 O 0.06149 0.79101 0.18098 0.0
C73 C 0.09066 0.77567 0.15502 0.0
O74 O 0.08801 0.77883 0.1973 0.0
C75 C 0.0445 0.7655 0.15954 0.0
C76 C 0.03812 0.77108 0.09536 0.0
C77 C 0.03757 0.76552 0.14219 0.0
N78 N 0.04894 0.77075 0.12439 0.0
N79 N 0.04507 0.77395 0.08612 0.0
C80 C 0.04683 0.76197 0.20938 0.0
H81 H 0.0433 0.7698 0.23425 0.0
H82 H 0.05245 0.76636 0.21462 0.0
H83 H 0.04638 0.74654 0.21748 0.0
C84 C 0.07399 0.7351 0.12564 0.0
N85 N 0.0713 0.75291 0.12526 0.0
N86 N 0.06428 0.75201 0.12462 0.0
C87 C 0.06229 0.73353 0.12376 0.0
C88 C 0.06837 0.72222 0.12468 0.0
C89 C 0.08178 0.73071 0.12935 0.0
H90 H 0.08449 0.73525 0.09634 0.0
H91 H 0.0841 0.73895 0.15903 0.0
H92 H 0.08277 0.71532 0.13552 0.0
O93 O 0.07302 0.79166 0.06735 0.0
O94 O 0.0612 0.79035 0.06811 0.0
H95 H 0.05183 0.73616 0.09384 0.0
H96 H 0.0545 0.71191 0.10595 0.0
C97 C 0.05475 0.72685 0.11888 0.0
H98 H 0.05209 0.72761 0.15381 0.0
H99 H 0.04717 0.77844 0.05382 0.0
O100 O 0.08645 0.7741 0.11999 0.0
C101 C 0.06701 0.79598 0.04945 0.0
Co102 Co 0.1819 0.46351 0.12132 0.0
Co103 Co 0.19871 0.4665 0.12228 0.0
C104 C 0.19079 0.44427 0.19586 0.0
O105 O 0.18477 0.44846 0.17757 0.0
O106 O 0.19661 0.45045 0.17835 0.0
C107 C 0.16721 0.46428 0.15421 0.0
O108 O 0.16995 0.4612 0.19627 0.0
C109 C 0.21343 0.4742 0.15486 0.0
C110 C 0.2189 0.47951 0.08692 0.0
C111 C 0.22003 0.47881 0.13532 0.0
N112 N 0.20868 0.47228 0.11953 0.0
N113 N 0.212 0.47537 0.07906 0.0
C114 C 0.21149 0.47317 0.20609 0.0
H115 H 0.20576 0.47664 0.211 0.0
H116 H 0.21479 0.48315 0.22724 0.0
H117 H 0.21241 0.45843 0.21906 0.0
C118 C 0.18335 0.50553 0.122 0.0
N119 N 0.1862 0.4879 0.1221 0.0
N120 N 0.1932 0.48927 0.12297 0.0
C121 C 0.19502 0.50787 0.1237 0.0
C122 C 0.18884 0.51878 0.12303 0.0
C123 C 0.17552 0.50945 0.11854 0.0
H124 H 0.17317 0.50067 0.08987 0.0
H125 H 0.17291 0.5053 0.15223 0.0
H126 H 0.17441 0.52472 0.11123 0.0
O127 O 0.18477 0.44915 0.06448 0.0
O128 O 0.19658 0.45109 0.06527 0.0
H129 H 0.20544 0.51147 0.09443 0.0
H130 H 0.20275 0.5306 0.13347 0.0
C131 C 0.20253 0.51498 0.12741 0.0
H132 H 0.20523 0.50774 0.15722 0.0
H133 H 0.20952 0.47486 0.04603 0.0
O134 O 0.17133 0.46579 0.11875 0.0
C135 C 0.19082 0.44514 0.0466 0.0
Co136 Co 0.93151 0.5269 0.87043 0.0
Co137 Co 0.94838 0.5248 0.87395 0.0
C138 C 0.93991 0.54602 0.94705 0.0
O139 O 0.93398 0.54157 0.92805 0.0
O140 O 0.94582 0.54039 0.92975 0.0
C141 C 0.91691 0.52314 0.90234 0.0
O142 O 0.91977 0.5232 0.94475 0.0
C143 C 0.96314 0.51667 0.90853 0.0
C144 C 0.96899 0.51617 0.84074 0.0
C145 C 0.9699 0.51421 0.88909 0.0
N146 N 0.95846 0.51974 0.87309 0.0
N147 N 0.96202 0.5194 0.83277 0.0
C148 C 0.96123 0.51693 0.95992 0.0
H149 H 0.95618 0.52468 0.96593 0.0
H150 H 0.9605 0.50207 0.97252 0.0
H151 H 0.96555 0.52363 0.98094 0.0
C152 C 0.93333 0.48492 0.86871 0.0
N153 N 0.93602 0.50272 0.87048 0.0
N154 N 0.94303 0.50177 0.87218 0.0
C155 C 0.94502 0.4833 0.87165 0.0
C156 C 0.93894 0.47202 0.86944 0.0
C157 C 0.92556 0.48048 0.86407 0.0
H158 H 0.92314 0.48979 0.83671 0.0
H159 H 0.92287 0.48348 0.89821 0.0
H160 H 0.92465 0.46534 0.8543 0.0
O161 O 0.93453 0.54203 0.81508 0.0
O162 O 0.94635 0.54051 0.81734 0.0
H163 H 0.95563 0.48162 0.84431 0.0
H164 H 0.95298 0.46093 0.87842 0.0
C165 C 0.95258 0.47667 0.8756 0.0
H166 H 0.95503 0.48305 0.90751 0.0
H167 H 0.95969 0.5215 0.79968 0.0
O168 O 0.92095 0.52433 0.86635 0.0
C169 C 0.94061 0.54643 0.79828 0.0
Co170 Co 0.82649 0.2126 0.86991 0.0
Co171 Co 0.80961 0.21443 0.87194 0.0
C172 C 0.81805 0.19255 0.94445 0.0
O173 O 0.824 0.19727 0.9262 0.0
O174 O 0.81216 0.19827 0.92703 0.0
C175 C 0.84122 0.21393 0.901 0.0
O176 O 0.83852 0.21062 0.94306 0.0
C177 C 0.79505 0.22352 0.90747 0.0
C178 C 0.78884 0.22148 0.8413 0.0
C179 C 0.78817 0.22515 0.88924 0.0
N180 N 0.79953 0.21924 0.87176 0.0
N181 N 0.79576 0.21807 0.83238 0.0
C182 C 0.79729 0.22499 0.95813 0.0
H183 H 0.80252 0.21806 0.96382 0.0
H184 H 0.79783 0.24025 0.9679 0.0
H185 H 0.79323 0.21839 0.98152 0.0
C186 C 0.8246 0.25447 0.87284 0.0
N187 N 0.82192 0.23666 0.87192 0.0
N188 N 0.8149 0.23755 0.87195 0.0
C189 C 0.81291 0.25603 0.87222 0.0
C190 C 0.81898 0.26734 0.87307 0.0
C191 C 0.8324 0.25885 0.87607 0.0
H192 H 0.83475 0.25075 0.90592 0.0
H193 H 0.83341 0.27427 0.88172 0.0
H194 H 0.83508 0.25412 0.84312 0.0
O195 O 0.82353 0.19808 0.8132 0.0
O196 O 0.81171 0.19947 0.81442 0.0
H197 H 0.80245 0.25417 0.84193 0.0
H198 H 0.80503 0.278 0.85872 0.0
C199 C 0.80534 0.26272 0.86874 0.0
H200 H 0.80269 0.26073 0.90338 0.0
H201 H 0.79792 0.21482 0.79935 0.0
O202 O 0.83704 0.21555 0.86577 0.0
C203 C 0.81749 0.19384 0.79548 0.0
Co204 Co 0.93203 0.21283 0.87198 0.0
Co205 Co 0.9489 0.21442 0.87243 0.0
C206 C 0.94065 0.19329 0.79759 0.0
O207 O 0.93464 0.19798 0.81515 0.0
O208 O 0.94649 0.19877 0.81619 0.0
C209 C 0.91742 0.2153 0.83889 0.0
O210 O 0.92027 0.21348 0.79671 0.0
C211 C 0.96351 0.22369 0.83872 0.0
C212 C 0.96968 0.21998 0.9046 0.0
C213 C 0.97039 0.22455 0.85717 0.0
N214 N 0.95898 0.21895 0.87383 0.0
N215 N 0.96273 0.21682 0.91306 0.0
C216 C 0.96131 0.2262 0.78823 0.0
H217 H 0.95598 0.21995 0.78183 0.0
H218 H 0.96102 0.24164 0.77988 0.0
H219 H 0.96528 0.21954 0.76428 0.0
C220 C 0.934 0.25473 0.87201 0.0
N221 N 0.93664 0.23687 0.87214 0.0
N222 N 0.94366 0.23764 0.87315 0.0
C223 C 0.9457 0.25607 0.87435 0.0
C224 C 0.93966 0.2675 0.87337 0.0
C225 C 0.92623 0.25929 0.86794 0.0
H226 H 0.92341 0.25398 0.89982 0.0
H227 H 0.924 0.25178 0.83679 0.0
H228 H 0.92526 0.2748 0.86387 0.0
O229 O 0.93478 0.19768 0.92811 0.0
O230 O 0.94661 0.19891 0.92874 0.0
H231 H 0.95608 0.25357 0.90541 0.0
H232 H 0.95356 0.2777 0.89089 0.0
C233 C 0.95326 0.2626 0.87927 0.0
H234 H 0.95599 0.2612 0.8447 0.0
H235 H 0.96053 0.21299 0.94562 0.0
O236 O 0.92146 0.21573 0.87498 0.0
C237 C 0.94075 0.19315 0.94642 0.0
Co238 Co 0.82605 0.52663 0.8772 0.0
Co239 Co 0.80921 0.52455 0.8766 0.0
C240 C 0.8173 0.54581 0.80207 0.0
O241 O 0.82329 0.54144 0.82039 0.0
O242 O 0.81144 0.54009 0.82003 0.0
C243 C 0.84063 0.52368 0.84319 0.0
O244 O 0.83774 0.52488 0.80096 0.0
C245 C 0.79449 0.51738 0.84328 0.0
C246 C 0.78883 0.51309 0.91092 0.0
C247 C 0.78781 0.51337 0.86237 0.0
N248 N 0.79918 0.51937 0.87898 0.0
N249 N 0.79574 0.5169 0.91927 0.0
C250 C 0.79657 0.51776 0.79221 0.0
H251 H 0.80228 0.51393 0.78812 0.0
H252 H 0.79324 0.50773 0.77137 0.0
H253 H 0.79579 0.5324 0.77819 0.0
C254 C 0.82427 0.48469 0.87828 0.0
N255 N 0.82157 0.50248 0.87745 0.0
N256 N 0.81455 0.50151 0.87677 0.0
C257 C 0.81258 0.48303 0.87688 0.0
C258 C 0.81867 0.47177 0.87793 0.0
C259 C 0.83206 0.48029 0.8817 0.0
H260 H 0.83454 0.48939 0.90927 0.0
H261 H 0.83465 0.48364 0.84742 0.0
H262 H 0.83302 0.46508 0.89053 0.0
O263 O 0.82329 0.54144 0.93358 0.0
O264 O 0.81146 0.54012 0.93315 0.0
H265 H 0.80212 0.48043 0.90619 0.0
H266 H 0.80465 0.46067 0.8686 0.0
C267 C 0.80501 0.47634 0.87354 0.0
H268 H 0.80238 0.48338 0.84315 0.0
H269 H 0.79815 0.51759 0.95251 0.0
O270 O 0.83662 0.52397 0.87943 0.0
C271 C 0.81729 0.54583 0.95151 0.0
Co272 Co 0.07591 0.96268 0.62563 0.0
Co273 Co 0.0591 0.96523 0.62366 0.0
C274 C 0.06724 0.94452 0.54851 0.0
O275 O 0.07321 0.94858 0.56762 0.0
O276 O 0.06137 0.95019 0.56629 0.0
C277 C 0.09048 0.96697 0.59287 0.0
O278 O 0.08757 0.9684 0.55075 0.0
C279 C 0.04445 0.97285 0.5898 0.0
C280 C 0.03869 0.97652 0.6573 0.0
C281 C 0.03774 0.97663 0.6087 0.0
N282 N 0.04909 0.9706 0.62566 0.0
N283 N 0.0456 0.97273 0.66587 0.0
C284 C 0.0466 0.97286 0.53885 0.0
H285 H 0.04585 0.95831 0.52413 0.0
H286 H 0.05231 0.97676 0.5353 0.0
H287 H 0.04329 0.98302 0.51825 0.0
C288 C 0.07429 0.0047 0.62927 0.0
N289 N 0.07153 0.98699 0.62719 0.0
N290 N 0.06452 0.98814 0.62579 0.0
C291 C 0.06261 0.00667 0.62658 0.0
C292 C 0.06874 0.01777 0.62887 0.0
C293 C 0.08208 0.00892 0.63371 0.0
H294 H 0.08454 -0.00092 0.65974 0.0
H295 H 0.08469 0.00658 0.59899 0.0
H296 H 0.08304 0.02385 0.64513 0.0
O297 O 0.07298 0.94731 0.68066 0.0
O298 O 0.06117 0.94897 0.67933 0.0
H299 H 0.05208 0.00939 0.65462 0.0
H300 H 0.05478 0.02925 0.61793 0.0
C301 C 0.05508 0.01356 0.62247 0.0
H302 H 0.05251 0.00671 0.59157 0.0
H303 H 0.04795 0.97174 0.69921 0.0
O304 O 0.08648 0.96477 0.62875 0.0
C305 C 0.06693 0.94287 0.69775 0.0
Co306 Co 0.18182 0.27828 0.62318 0.0
Co307 Co 0.19863 0.27553 0.622 0.0
C308 C 0.19064 0.29655 0.54674 0.0
O309 O 0.18465 0.29252 0.56553 0.0
O310 O 0.19648 0.29073 0.56465 0.0
C311 C 0.16733 0.27386 0.58911 0.0
O312 O 0.17033 0.27229 0.54733 0.0
C313 C 0.21333 0.26765 0.58955 0.0
C314 C 0.21888 0.26331 0.65761 0.0
C315 C 0.21996 0.2634 0.60913 0.0
N316 N 0.20861 0.26996 0.62492 0.0
N317 N 0.21198 0.26745 0.66546 0.0
C318 C 0.21133 0.26796 0.53835 0.0
H319 H 0.21216 0.28256 0.52421 0.0
H320 H 0.20562 0.2642 0.53397 0.0
H321 H 0.21467 0.25785 0.51782 0.0
C322 C 0.18338 0.23622 0.62783 0.0
N323 N 0.18616 0.2539 0.62493 0.0
N324 N 0.19316 0.25269 0.62371 0.0
C325 C 0.19505 0.23415 0.62538 0.0
C326 C 0.18892 0.22312 0.62821 0.0
C327 C 0.17558 0.2321 0.63289 0.0
H328 H 0.17317 0.24219 0.6585 0.0
H329 H 0.17294 0.23417 0.59818 0.0
H330 H 0.17462 0.21728 0.64513 0.0
O331 O 0.18469 0.29351 0.67868 0.0
O332 O 0.1965 0.29171 0.67768 0.0
H333 H 0.20549 0.23114 0.65475 0.0
H334 H 0.20285 0.21147 0.61728 0.0
C335 C 0.20258 0.22716 0.6221 0.0
H336 H 0.20525 0.23405 0.59167 0.0
H337 H 0.20954 0.26835 0.69854 0.0
O338 O 0.17124 0.27625 0.62534 0.0
C339 C 0.19074 0.29783 0.69602 0.0
Co340 Co 0.07635 0.27689 0.61861 0.0
Co341 Co 0.05948 0.27527 0.62016 0.0
C342 C 0.06791 0.29726 0.69257 0.0
O343 O 0.07387 0.29243 0.67457 0.0
O344 O 0.06202 0.29154 0.67509 0.0
C345 C 0.09111 0.27632 0.64929 0.0
O346 O 0.08845 0.28083 0.69079 0.0
C347 C 0.04494 0.26628 0.65582 0.0
C348 C 0.03863 0.26946 0.59036 0.0
C349 C 0.03802 0.26529 0.63808 0.0
N350 N 0.04939 0.27072 0.62005 0.0
N351 N 0.04556 0.27253 0.58107 0.0
C352 C 0.04726 0.26419 0.70621 0.0
H353 H 0.0526 0.27051 0.71177 0.0
H354 H 0.04757 0.24882 0.71529 0.0
H355 H 0.04333 0.27102 0.7302 0.0
C356 C 0.07439 0.23506 0.6222 0.0
N357 N 0.07173 0.25289 0.62099 0.0
N358 N 0.06472 0.25206 0.6206 0.0
C359 C 0.0627 0.2336 0.62076 0.0
C360 C 0.06876 0.22223 0.62206 0.0
C361 C 0.08218 0.23062 0.62593 0.0
H362 H 0.08456 0.23924 0.65477 0.0
H363 H 0.08315 0.2153 0.63335 0.0
H364 H 0.08486 0.23465 0.59242 0.0
O365 O 0.07345 0.2913 0.56155 0.0
O366 O 0.06163 0.29005 0.56246 0.0
H367 H 0.05484 0.21182 0.60532 0.0
H368 H 0.05245 0.22852 0.65118 0.0
C369 C 0.05514 0.22698 0.61648 0.0
H370 H 0.05226 0.23586 0.59026 0.0
H371 H 0.04769 0.27609 0.54812 0.0
O372 O 0.0869 0.27374 0.61459 0.0
C373 C 0.06743 0.29556 0.54359 0.0
Co374 Co 0.18137 0.96379 0.62288 0.0
Co375 Co 0.19818 0.96601 0.6212 0.0
C376 C 0.19028 0.94304 0.69404 0.0
O377 O 0.18422 0.94773 0.67725 0.0
O378 O 0.19607 0.94925 0.67603 0.0
C379 C 0.16666 0.96344 0.65549 0.0
O380 O 0.16938 0.95837 0.6964 0.0
C381 C 0.21271 0.97429 0.65539 0.0
C382 C 0.2187 0.97616 0.58832 0.0
C383 C 0.21948 0.97757 0.63694 0.0
N384 N 0.2082 0.97109 0.61931 0.0
N385 N 0.21182 0.97212 0.57936 0.0
C386 C 0.21039 0.97546 0.70591 0.0
H387 H 0.20463 0.97902 0.70802 0.0
H388 H 0.21355 0.98633 0.72528 0.0
H389 H 0.21122 0.96138 0.723 0.0
C390 C 0.1831 0.00564 0.62918 0.0
N391 N 0.18584 0.98794 0.62592 0.0
N392 N 0.19285 0.98903 0.62453 0.0
C393 C 0.19478 0.00754 0.62637 0.0
C394 C 0.18867 0.01867 0.62957 0.0
C395 C 0.17531 0.00975 0.63436 0.0
H396 H 0.17309 0.00082 0.66317 0.0
H397 H 0.17428 0.02497 0.64264 0.0
H398 H 0.17252 0.00585 0.60113 0.0
O399 O 0.18404 0.95016 0.56433 0.0
O400 O 0.19586 0.95165 0.56307 0.0
H401 H 0.20506 0.00677 0.59341 0.0
H402 H 0.20256 0.02999 0.61507 0.0
C403 C 0.20231 0.01446 0.62238 0.0
H404 H 0.20517 0.01145 0.65589 0.0
H405 H 0.20958 0.97027 0.5459 0.0
O406 O 0.1708 0.96661 0.62079 0.0
C407 C 0.18999 0.94621 0.54495 0.0
Co408 Co 0.93173 0.02694 0.3721 0.0
Co409 Co 0.94854 0.02405 0.37178 0.0
C410 C 0.9406 0.04587 0.44648 0.0
O411 O 0.93456 0.04176 0.42855 0.0
O412 O 0.94639 0.03982 0.42831 0.0
C413 C 0.917 0.02714 0.40402 0.0
O414 O 0.91971 0.03144 0.44549 0.0
C415 C 0.96297 0.01493 0.40651 0.0
C416 C 0.96907 0.01353 0.33982 0.0
C417 C 0.96976 0.01167 0.3884 0.0
N418 N 0.95852 0.01857 0.37027 0.0
N419 N 0.96222 0.01779 0.33055 0.0
C420 C 0.96056 0.01338 0.45678 0.0
H421 H 0.95481 0.00971 0.45828 0.0
H422 H 0.96371 0.00243 0.47597 0.0
H423 H 0.96132 0.02736 0.47451 0.0
C424 C 0.9332 0.98499 0.37359 0.0
N425 N 0.93606 0.0026 0.37263 0.0
N426 N 0.94306 0.00123 0.37189 0.0
C427 C 0.94488 0.98262 0.37192 0.0
C428 C 0.93869 0.97173 0.37311 0.0
C429 C 0.92538 0.98116 0.37773 0.0
H430 H 0.92267 0.98593 0.34492 0.0
H431 H 0.92317 0.98953 0.4076 0.0
H432 H 0.92423 0.96583 0.38385 0.0
O433 O 0.9346 0.04156 0.31549 0.0
O434 O 0.94641 0.03959 0.31517 0.0
H435 H 0.95523 0.9833 0.34014 0.0
H436 H 0.95257 0.95998 0.3603 0.0
C437 C 0.95238 0.97546 0.3684 0.0
H438 H 0.95517 0.9781 0.40235 0.0
H439 H 0.96004 0.02003 0.29704 0.0
O440 O 0.92115 0.02451 0.36909 0.0
C441 C 0.94061 0.04562 0.29717 0.0
Co442 Co 0.82574 0.71299 0.37734 0.0
Co443 Co 0.80889 0.71405 0.3762 0.0
C444 C 0.81715 0.69329 0.45158 0.0
O445 O 0.82315 0.69815 0.43418 0.0
O446 O 0.8113 0.69855 0.43273 0.0
C447 C 0.8404 0.70261 0.3837 0.0
O448 O 0.83761 0.68587 0.39355 0.0
C449 C 0.79418 0.72301 0.40873 0.0
C450 C 0.78814 0.71905 0.34241 0.0
C451 C 0.78733 0.72372 0.38972 0.0
N452 N 0.79878 0.71827 0.37406 0.0
N453 N 0.79511 0.71597 0.33457 0.0
C454 C 0.79629 0.72569 0.45934 0.0
H455 H 0.8016 0.71939 0.46631 0.0
H456 H 0.7966 0.74115 0.46735 0.0
H457 H 0.79226 0.71916 0.48312 0.0
C458 C 0.82361 0.75472 0.37754 0.0
N459 N 0.82102 0.73682 0.37712 0.0
N460 N 0.81401 0.73743 0.37568 0.0
C461 C 0.81192 0.75583 0.37427 0.0
C462 C 0.81793 0.76738 0.37568 0.0
C463 C 0.83137 0.75942 0.38209 0.0
H464 H 0.83409 0.75608 0.34828 0.0
H465 H 0.83379 0.75045 0.41013 0.0
H466 H 0.83222 0.77467 0.39094 0.0
O467 O 0.82317 0.69775 0.32092 0.0
O468 O 0.81134 0.69866 0.32005 0.0
H469 H 0.80159 0.75294 0.34257 0.0
H470 H 0.80403 0.7772 0.35624 0.0
C471 C 0.80435 0.76219 0.36852 0.0
H472 H 0.80156 0.76098 0.40295 0.0
H473 H 0.79738 0.71212 0.30224 0.0
O474 O 0.83626 0.71663 0.37583 0.0
C475 C 0.81723 0.69309 0.30245 0.0
Co476 Co 0.93127 0.71198 0.37387 0.0
Co477 Co 0.94807 0.71543 0.37067 0.0
C478 C 0.94006 0.69364 0.29721 0.0
O479 O 0.9341 0.69755 0.31665 0.0
O480 O 0.94593 0.69976 0.31414 0.0
C481 C 0.91678 0.71564 0.33983 0.0
O482 O 0.91982 0.71757 0.29825 0.0
C483 C 0.96287 0.72257 0.33822 0.0
C484 C 0.96808 0.73066 0.40539 0.0
C485 C 0.96935 0.72828 0.35753 0.0
N486 N 0.95802 0.72163 0.37319 0.0
N487 N 0.96119 0.72635 0.41325 0.0
C488 C 0.96115 0.71963 0.28711 0.0
H489 H 0.96181 0.7043 0.27832 0.0
H490 H 0.95553 0.72368 0.28002 0.0
H491 H 0.96475 0.72814 0.26419 0.0
C492 C 0.93257 0.75411 0.37561 0.0
N493 N 0.93545 0.73652 0.37396 0.0
N494 N 0.94244 0.73801 0.3714 0.0
C495 C 0.94422 0.75665 0.37064 0.0
C496 C 0.93803 0.76745 0.37352 0.0
C497 C 0.92477 0.75798 0.38144 0.0
H498 H 0.92246 0.74782 0.40726 0.0
H499 H 0.92206 0.75586 0.34697 0.0
H500 H 0.92379 0.77277 0.39377 0.0
O501 O 0.93432 0.69731 0.42973 0.0
O502 O 0.94612 0.69955 0.42724 0.0
H503 H 0.95468 0.76184 0.39768 0.0
H504 H 0.95174 0.77928 0.3549 0.0
C505 C 0.95166 0.76393 0.36435 0.0
H506 H 0.95435 0.75579 0.33592 0.0
H507 H 0.95861 0.72691 0.44591 0.0
O508 O 0.92067 0.71342 0.37622 0.0
C509 C 0.94044 0.69334 0.44652 0.0
Co510 Co 0.82628 0.02669 0.37356 0.0
Co511 Co 0.80941 0.02475 0.37015 0.0
C512 C 0.81789 0.04568 0.29665 0.0
O513 O 0.82382 0.0412 0.31574 0.0
O514 O 0.81197 0.0402 0.31408 0.0
C515 C 0.84083 0.02208 0.3416 0.0
O516 O 0.83794 0.02091 0.29938 0.0
C517 C 0.79458 0.01692 0.33632 0.0
C518 C 0.78889 0.01551 0.40462 0.0
C519 C 0.78788 0.01407 0.35626 0.0
N520 N 0.79933 0.01969 0.37148 0.0
N521 N 0.79587 0.01883 0.41211 0.0
C522 C 0.79638 0.01775 0.28479 0.0
H523 H 0.80129 0.0261 0.27871 0.0
H524 H 0.7973 0.00307 0.27148 0.0
H525 H 0.79193 0.02417 0.2644 0.0
C526 C 0.82441 0.98472 0.37608 0.0
N527 N 0.82175 0.00255 0.37391 0.0
N528 N 0.81474 0.00168 0.37198 0.0
C529 C 0.81272 0.98322 0.37256 0.0
C530 C 0.81878 0.97188 0.37523 0.0
C531 C 0.83216 0.98019 0.38132 0.0
H532 H 0.8346 0.98988 0.40778 0.0
H533 H 0.83487 0.98254 0.34695 0.0
H534 H 0.83302 0.9652 0.3926 0.0
O535 O 0.8233 0.04186 0.42883 0.0
O536 O 0.81148 0.04052 0.42669 0.0
H537 H 0.80212 0.98121 0.39982 0.0
H538 H 0.80475 0.96097 0.36412 0.0
C539 C 0.80516 0.97666 0.36812 0.0
H540 H 0.80271 0.98344 0.33672 0.0
H541 H 0.79827 0.02058 0.4451 0.0
O542 O 0.83682 0.02422 0.37745 0.0
C543 C 0.81724 0.04634 0.4457 0.0
Co544 Co 0.57606 0.46269 0.62484 0.0
Co545 Co 0.55921 0.4644 0.62391 0.0
C546 C 0.56742 0.44381 0.54877 0.0
O547 O 0.57338 0.44817 0.56749 0.0
O548 O 0.56153 0.44933 0.56669 0.0
C549 C 0.59069 0.46427 0.59185 0.0
O550 O 0.58786 0.46121 0.55005 0.0
C551 C 0.54466 0.47275 0.58982 0.0
C552 C 0.5386 0.47319 0.65677 0.0
C553 C 0.53785 0.4754 0.60831 0.0
N554 N 0.54916 0.46914 0.62574 0.0
N555 N 0.54549 0.46933 0.6656 0.0
C556 C 0.54701 0.47487 0.53956 0.0
H557 H 0.55274 0.47876 0.53806 0.0
H558 H 0.54379 0.48589 0.52117 0.0
H559 H 0.54631 0.46104 0.52103 0.0
C560 C 0.57414 0.50456 0.62656 0.0
N561 N 0.57148 0.48672 0.62569 0.0
N562 N 0.56446 0.48755 0.62532 0.0
C563 C 0.56244 0.506 0.62601 0.0
C564 C 0.5685 0.51735 0.6267 0.0
C565 C 0.58193 0.50908 0.6249 0.0
H566 H 0.58457 0.50317 0.65682 0.0
H567 H 0.58434 0.5021 0.59353 0.0
H568 H 0.58294 0.52465 0.62286 0.0
O569 O 0.57329 0.44735 0.6805 0.0
O570 O 0.56146 0.44849 0.67967 0.0
H571 H 0.55201 0.50467 0.65641 0.0
H572 H 0.55448 0.52809 0.63585 0.0
C573 C 0.55486 0.5126 0.6283 0.0
H574 H 0.55221 0.50957 0.59407 0.0
H575 H 0.54772 0.46698 0.69892 0.0
O576 O 0.58663 0.46565 0.62771 0.0
C577 C 0.56727 0.4427 0.69794 0.0
Co578 Co 0.68128 0.7784 0.6262 0.0
Co579 Co 0.69814 0.77616 0.62293 0.0
C580 C 0.68968 0.79749 0.54978 0.0
O581 O 0.68376 0.79313 0.56901 0.0
O582 O 0.6956 0.79179 0.56687 0.0
C583 C 0.6666 0.77691 0.59491 0.0
O584 O 0.66937 0.7794 0.55271 0.0
C585 C 0.7127 0.76661 0.58795 0.0
C586 C 0.71891 0.76966 0.65387 0.0
C587 C 0.71958 0.76542 0.60624 0.0
N588 N 0.70821 0.77125 0.62336 0.0
N589 N 0.71198 0.77298 0.66259 0.0
C590 C 0.71047 0.7645 0.53742 0.0
H591 H 0.70518 0.77105 0.53132 0.0
H592 H 0.71007 0.74912 0.52855 0.0
H593 H 0.71448 0.77109 0.51364 0.0
C594 C 0.68302 0.73649 0.62532 0.0
N595 N 0.68577 0.75423 0.62525 0.0
N596 N 0.69278 0.75315 0.62465 0.0
C597 C 0.69471 0.73463 0.625 0.0
C598 C 0.68859 0.72347 0.62518 0.0
C599 C 0.6752 0.73231 0.62256 0.0
H600 H 0.67288 0.74008 0.59209 0.0
H601 H 0.67411 0.71686 0.61814 0.0
H602 H 0.67255 0.73756 0.65514 0.0
O603 O 0.68433 0.79334 0.682 0.0
O604 O 0.69614 0.79173 0.67957 0.0
H605 H 0.70526 0.73643 0.65383 0.0
H606 H 0.70253 0.71254 0.63849 0.0
C607 C 0.70225 0.72776 0.62782 0.0
H608 H 0.70481 0.72942 0.59275 0.0
H609 H 0.70982 0.77664 0.69536 0.0
O610 O 0.67071 0.77579 0.63054 0.0
C611 C 0.69042 0.79763 0.69883 0.0
Co612 Co 0.57575 0.77667 0.62185 0.0
Co613 Co 0.55892 0.77455 0.62274 0.0
C614 C 0.56706 0.79566 0.69739 0.0
O615 O 0.57305 0.79137 0.67888 0.0
O616 O 0.5612 0.78997 0.67946 0.0
C617 C 0.59036 0.77455 0.65503 0.0
O618 O 0.58752 0.77631 0.69724 0.0
C619 C 0.54441 0.76628 0.65741 0.0
C620 C 0.53833 0.76504 0.59055 0.0
C621 C 0.53759 0.76336 0.63915 0.0
N622 N 0.5489 0.76955 0.62123 0.0
N623 N 0.54522 0.76887 0.58142 0.0
C624 C 0.54677 0.76475 0.70777 0.0
H625 H 0.55251 0.76091 0.7095 0.0
H626 H 0.54357 0.75391 0.72695 0.0
H627 H 0.54606 0.77877 0.72536 0.0
C628 C 0.57399 0.73473 0.62239 0.0
N629 N 0.57127 0.7525 0.62187 0.0
N630 N 0.56425 0.7515 0.62236 0.0
C631 C 0.5623 0.733 0.62328 0.0
C632 C 0.5684 0.7218 0.62344 0.0
C633 C 0.5818 0.73042 0.62477 0.0
H634 H 0.5845 0.73673 0.59359 0.0
H635 H 0.58407 0.73714 0.65689 0.0
H636 H 0.58286 0.71486 0.62602 0.0
O637 O 0.57292 0.79159 0.56567 0.0
O638 O 0.5611 0.79016 0.56628 0.0
H639 H 0.55178 0.73359 0.59391 0.0
H640 H 0.55441 0.71055 0.61633 0.0
C641 C 0.55474 0.72616 0.62241 0.0
H642 H 0.55216 0.72961 0.65661 0.0
H643 H 0.54744 0.77089 0.54794 0.0
O644 O 0.58631 0.77408 0.61897 0.0
C645 C 0.5669 0.79596 0.54789 0.0
Co646 Co 0.68163 0.46386 0.61884 0.0
Co647 Co 0.69843 0.46706 0.62484 0.0
C648 C 0.69005 0.44552 0.69711 0.0
O649 O 0.68418 0.44945 0.67665 0.0
O650 O 0.69599 0.45156 0.68111 0.0
C651 C 0.667 0.46739 0.65027 0.0
O652 O 0.66985 0.46833 0.69262 0.0
C653 C 0.71297 0.47499 0.66082 0.0
C654 C 0.7188 0.47996 0.59406 0.0
C655 C 0.71967 0.47949 0.64271 0.0
N656 N 0.70841 0.47292 0.62446 0.0
N657 N 0.71194 0.47581 0.58471 0.0
C658 C 0.71076 0.47417 0.71159 0.0
H659 H 0.70502 0.47769 0.71511 0.0
H660 H 0.71396 0.48421 0.73326 0.0
H661 H 0.7116 0.45947 0.72511 0.0
C662 C 0.68304 0.50595 0.6174 0.0
N663 N 0.68589 0.48832 0.61936 0.0
N664 N 0.69287 0.48973 0.62258 0.0
C665 C 0.69469 0.50833 0.62316 0.0
C666 C 0.68852 0.5192 0.61979 0.0
C667 C 0.67526 0.50991 0.61122 0.0
H668 H 0.673 0.50013 0.58429 0.0
H669 H 0.67248 0.50728 0.64521 0.0
H670 H 0.67429 0.52487 0.60009 0.0
O671 O 0.68489 0.44903 0.56365 0.0
O672 O 0.69668 0.45113 0.56819 0.0
H673 H 0.70533 0.51198 0.59768 0.0
H674 H 0.70231 0.53111 0.63563 0.0
C675 C 0.70214 0.51549 0.62956 0.0
H676 H 0.70461 0.50828 0.66032 0.0
H677 H 0.70964 0.47514 0.55114 0.0
O678 O 0.67105 0.46569 0.61445 0.0
C679 C 0.69107 0.44496 0.54798 0.0
Co680 Co 0.4321 0.52732 0.3718 0.0
Co681 Co 0.44893 0.52502 0.37018 0.0
C682 C 0.44105 0.54722 0.44439 0.0
O683 O 0.435 0.54274 0.42714 0.0
O684 O 0.44684 0.54119 0.42613 0.0
C685 C 0.41749 0.52758 0.40561 0.0
O686 O 0.42034 0.53244 0.44629 0.0
C687 C 0.46344 0.51634 0.404 0.0
C688 C 0.46948 0.51539 0.33699 0.0
C689 C 0.47024 0.51339 0.3855 0.0
N690 N 0.45894 0.51992 0.36804 0.0
N691 N 0.4626 0.51942 0.32813 0.0
C692 C 0.46109 0.51455 0.45433 0.0
H693 H 0.45534 0.5109 0.45599 0.0
H694 H 0.46425 0.50348 0.473 0.0
H695 H 0.46188 0.52843 0.47247 0.0
C696 C 0.4338 0.48543 0.37464 0.0
N697 N 0.43656 0.50314 0.37309 0.0
N698 N 0.44357 0.50201 0.37185 0.0
C699 C 0.44548 0.48347 0.37214 0.0
C700 C 0.43935 0.47236 0.37405 0.0
C701 C 0.42599 0.48132 0.37903 0.0
H702 H 0.42375 0.48976 0.40868 0.0
H703 H 0.42493 0.46598 0.3856 0.0
H704 H 0.42325 0.48583 0.34613 0.0
O705 O 0.43478 0.54156 0.31412 0.0
O706 O 0.44659 0.54004 0.31302 0.0
H707 H 0.45577 0.48451 0.33943 0.0
H708 H 0.45324 0.46109 0.35959 0.0
C709 C 0.453 0.47654 0.36785 0.0
H710 H 0.45585 0.4792 0.40158 0.0
H711 H 0.46037 0.52168 0.29478 0.0
O712 O 0.42153 0.52457 0.37027 0.0
C713 C 0.44073 0.54569 0.29514 0.0
Co714 Co 0.32601 0.21268 0.36727 0.0
Co715 Co 0.30924 0.21585 0.373 0.0
C716 C 0.31742 0.19268 0.44274 0.0
O717 O 0.32333 0.197 0.42311 0.0
O718 O 0.31151 0.19915 0.42729 0.0
C719 C 0.34056 0.21603 0.40033 0.0
O720 O 0.33763 0.21655 0.44251 0.0
C721 C 0.29455 0.22291 0.40782 0.0
C722 C 0.28904 0.23004 0.34108 0.0
C723 C 0.28795 0.22813 0.38931 0.0
N724 N 0.29927 0.22183 0.37205 0.0
N725 N 0.29592 0.226 0.33229 0.0
C726 C 0.29655 0.22057 0.45871 0.0
H727 H 0.3023 0.2237 0.46388 0.0
H728 H 0.29332 0.23017 0.48145 0.0
H729 H 0.29556 0.20559 0.46954 0.0
C730 C 0.32462 0.25482 0.36919 0.0
N731 N 0.32178 0.23717 0.3702 0.0
N732 N 0.31481 0.23853 0.37458 0.0
C733 C 0.31301 0.2571 0.37778 0.0
C734 C 0.31917 0.26808 0.37416 0.0
C735 C 0.33235 0.25879 0.36033 0.0
H736 H 0.33447 0.24856 0.33395 0.0
H737 H 0.33536 0.25691 0.39379 0.0
H738 H 0.33319 0.27352 0.3471 0.0
O739 O 0.32289 0.19911 0.30995 0.0
O740 O 0.3111 0.20111 0.31428 0.0
H741 H 0.30236 0.26257 0.35448 0.0
H742 H 0.30553 0.27914 0.39884 0.0
C743 C 0.3056 0.26404 0.38712 0.0
H744 H 0.30313 0.25523 0.41514 0.0
H745 H 0.29837 0.2263 0.29915 0.0
O746 O 0.33658 0.21457 0.36413 0.0
C747 C 0.31673 0.19539 0.29347 0.0
Co748 Co 0.43145 0.21303 0.37588 0.0
Co749 Co 0.44831 0.21505 0.37125 0.0
C750 C 0.43977 0.19283 0.30045 0.0
O751 O 0.43387 0.19754 0.31957 0.0
O752 O 0.44571 0.19869 0.3168 0.0
C753 C 0.41687 0.21593 0.34356 0.0
O754 O 0.41974 0.21483 0.30129 0.0
C755 C 0.46303 0.22292 0.33549 0.0
C756 C 0.46893 0.22443 0.40298 0.0
C757 C 0.46979 0.22582 0.35447 0.0
N758 N 0.45839 0.22017 0.37132 0.0
N759 N 0.46198 0.22109 0.41146 0.0
C760 C 0.46106 0.222 0.28422 0.0
H761 H 0.45609 0.21381 0.27898 0.0
H762 H 0.46017 0.23667 0.27074 0.0
H763 H 0.46543 0.21539 0.2634 0.0
C764 C 0.43326 0.25497 0.37448 0.0
N765 N 0.43595 0.23717 0.3735 0.0
N766 N 0.44296 0.23811 0.37132 0.0
C767 C 0.44494 0.25659 0.37074 0.0
C768 C 0.43886 0.26788 0.37272 0.0
C769 C 0.4255 0.2594 0.37982 0.0
H770 H 0.42318 0.25036 0.40809 0.0
H771 H 0.42271 0.256 0.34625 0.0
H772 H 0.42459 0.27462 0.38873 0.0
O773 O 0.43451 0.19881 0.43259 0.0
O774 O 0.44633 0.20017 0.42939 0.0
H775 H 0.45555 0.25861 0.39806 0.0
H776 H 0.45289 0.27893 0.36266 0.0
C777 C 0.4525 0.26322 0.36644 0.0
H778 H 0.45496 0.25654 0.33495 0.0
H779 H 0.45969 0.21936 0.44478 0.0
O780 O 0.4209 0.21567 0.37973 0.0
C781 C 0.44061 0.19464 0.44943 0.0
Co782 Co 0.32657 0.52853 0.37832 0.0
Co783 Co 0.3099 0.52532 0.36497 0.0
C784 C 0.31866 0.54592 0.29484 0.0
O785 O 0.32428 0.54275 0.31907 0.0
O786 O 0.31261 0.53945 0.30754 0.0
C787 C 0.3412 0.52355 0.34931 0.0
O788 O 0.33837 0.52085 0.30732 0.0
C789 C 0.29527 0.51767 0.32925 0.0
C790 C 0.28965 0.51158 0.39626 0.0
C791 C 0.28864 0.51273 0.34781 0.0
N792 N 0.29993 0.51935 0.36521 0.0
N793 N 0.29652 0.51578 0.4051 0.0
C794 C 0.29732 0.51921 0.27828 0.0
H795 H 0.30304 0.51562 0.27362 0.0
H796 H 0.29403 0.50955 0.25615 0.0
H797 H 0.29649 0.53411 0.26625 0.0
C798 C 0.32511 0.48648 0.38352 0.0
N799 N 0.32233 0.50407 0.37833 0.0
N800 N 0.31542 0.50266 0.37102 0.0
C801 C 0.31362 0.48405 0.36983 0.0
C802 C 0.31969 0.47314 0.37809 0.0
C803 C 0.33273 0.48268 0.39612 0.0
H804 H 0.3347 0.49381 0.42075 0.0
H805 H 0.33602 0.48317 0.36353 0.0
H806 H 0.33337 0.46848 0.41294 0.0
O807 O 0.32308 0.54352 0.4323 0.0
O808 O 0.31139 0.54294 0.41926 0.0
H809 H 0.30276 0.47854 0.38814 0.0
H810 H 0.30643 0.46175 0.34616 0.0
C811 C 0.30634 0.47693 0.35719 0.0
H812 H 0.30416 0.48551 0.32768 0.0
H813 H 0.29891 0.51601 0.43841 0.0
O814 O 0.33712 0.52681 0.38431 0.0
C815 C 0.31677 0.54861 0.44283 0.0
Co816 Co 0.57578 0.96247 0.12318 0.0
Co817 Co 0.55893 0.96441 0.12243 0.0
C818 C 0.56722 0.94274 0.04881 0.0
O819 O 0.57321 0.94737 0.06666 0.0
O820 O 0.56137 0.94842 0.06685 0.0
C821 C 0.59046 0.96372 0.0913 0.0
O822 O 0.58772 0.96022 0.04946 0.0
C823 C 0.54438 0.97372 0.08744 0.0
C824 C 0.53813 0.97072 0.15317 0.0
C825 C 0.53748 0.97488 0.10547 0.0
N826 N 0.54885 0.96919 0.12303 0.0
N827 N 0.54506 0.96749 0.16217 0.0
C828 C 0.54666 0.97578 0.03696 0.0
H829 H 0.55198 0.96939 0.03117 0.0
H830 H 0.547 0.99115 0.02789 0.0
H831 H 0.5427 0.969 0.01311 0.0
C832 C 0.57394 0.00434 0.12193 0.0
N833 N 0.57123 0.98655 0.12219 0.0
N834 N 0.56422 0.98751 0.12264 0.0
C835 C 0.56225 0.00601 0.12327 0.0
C836 C 0.56834 0.01726 0.12262 0.0
C837 C 0.58174 0.00868 0.11865 0.0
H838 H 0.58444 0.00372 0.15134 0.0
H839 H 0.58406 0.00075 0.08842 0.0
H840 H 0.58277 0.02412 0.11358 0.0
O841 O 0.57292 0.94773 0.1797 0.0
O842 O 0.5611 0.9492 0.1795 0.0
H843 H 0.55183 0.00401 0.15392 0.0
H844 H 0.55444 0.02796 0.13824 0.0
C845 C 0.55471 0.01276 0.12745 0.0
H846 H 0.55201 0.01109 0.09284 0.0
H847 H 0.5472 0.96389 0.19504 0.0
O848 O 0.58634 0.96543 0.12672 0.0
C849 C 0.56691 0.94345 0.19781 0.0
Co850 Co 0.68186 0.27918 0.12628 0.0
Co851 Co 0.69869 0.27637 0.11927 0.0
C852 C 0.69015 0.298 0.04803 0.0
O853 O 0.68429 0.29378 0.06832 0.0
O854 O 0.69611 0.29208 0.06392 0.0
C855 C 0.66731 0.27341 0.09556 0.0
O856 O 0.67024 0.2702 0.05412 0.0
C857 C 0.71354 0.26857 0.08499 0.0
C858 C 0.71908 0.26508 0.15337 0.0
C859 C 0.72018 0.2648 0.10498 0.0
N860 N 0.70874 0.27072 0.12013 0.0
N861 N 0.71213 0.26862 0.16081 0.0
C862 C 0.71187 0.27081 0.03353 0.0
H863 H 0.70722 0.28024 0.02833 0.0
H864 H 0.71058 0.25664 0.0183 0.0
H865 H 0.71652 0.27675 0.01421 0.0
C866 C 0.68347 0.23712 0.12962 0.0
N867 N 0.68622 0.25481 0.12613 0.0
N868 N 0.69318 0.25359 0.12105 0.0
C869 C 0.69506 0.23504 0.1197 0.0
C870 C 0.68897 0.22395 0.12537 0.0
C871 C 0.67579 0.23304 0.14012 0.0
H872 H 0.67364 0.24395 0.16462 0.0
H873 H 0.6727 0.23358 0.10674 0.0
H874 H 0.67512 0.21873 0.15634 0.0
O875 O 0.68508 0.29408 0.18113 0.0
O876 O 0.69687 0.2922 0.17633 0.0
H877 H 0.70582 0.23037 0.14166 0.0
H878 H 0.70258 0.21294 0.09958 0.0
C879 C 0.70247 0.22821 0.10979 0.0
H880 H 0.70477 0.23665 0.08048 0.0
H881 H 0.70967 0.26968 0.19381 0.0
O882 O 0.67129 0.27723 0.13069 0.0
C883 C 0.69125 0.29826 0.19666 0.0
Co884 Co 0.57629 0.27646 0.12355 0.0
Co885 Co 0.55938 0.27445 0.12463 0.0
C886 C 0.56764 0.29638 0.19765 0.0
O887 O 0.57363 0.29173 0.17979 0.0
O888 O 0.56178 0.29059 0.17987 0.0
C889 C 0.59105 0.27712 0.15476 0.0
O890 O 0.58839 0.28295 0.19521 0.0
C891 C 0.54456 0.26634 0.15787 0.0
C892 C 0.53887 0.26533 0.08955 0.0
C893 C 0.53786 0.26358 0.13786 0.0
N894 N 0.54931 0.26935 0.1228 0.0
N895 N 0.54584 0.26873 0.08215 0.0
C896 C 0.54637 0.26691 0.20942 0.0
H897 H 0.55134 0.27499 0.21566 0.0
H898 H 0.5472 0.25215 0.22245 0.0
H899 H 0.54195 0.27344 0.22991 0.0
C900 C 0.57445 0.23461 0.12405 0.0
N901 N 0.57174 0.25239 0.12449 0.0
N902 N 0.56473 0.25142 0.12497 0.0
C903 C 0.56276 0.23293 0.12479 0.0
C904 C 0.56885 0.22168 0.12422 0.0
C905 C 0.58225 0.23028 0.12086 0.0
H906 H 0.58463 0.23851 0.0913 0.0
H907 H 0.58491 0.23489 0.15402 0.0
H908 H 0.58327 0.21487 0.115 0.0
O909 O 0.57345 0.29102 0.06688 0.0
O910 O 0.56162 0.28962 0.06743 0.0
H911 H 0.55228 0.23122 0.0953 0.0
H912 H 0.55478 0.21052 0.12981 0.0
C913 C 0.55519 0.22626 0.12716 0.0
H914 H 0.55259 0.2326 0.1586 0.0
H915 H 0.54824 0.27071 0.04922 0.0
O916 O 0.58685 0.27346 0.12061 0.0
C917 C 0.56743 0.2953 0.0489 0.0
Co918 Co 0.68127 0.96389 0.12108 0.0
Co919 Co 0.69811 0.96615 0.12724 0.0
C920 C 0.68953 0.94469 0.19873 0.0
O921 O 0.68365 0.94912 0.17884 0.0
O922 O 0.69548 0.95043 0.18247 0.0
C923 C 0.66666 0.96813 0.15213 0.0
O924 O 0.66948 0.96901 0.1946 0.0
C925 C 0.71297 0.9734 0.1617 0.0
C926 C 0.71855 0.97699 0.09345 0.0
C927 C 0.71963 0.97707 0.14187 0.0
N928 N 0.70818 0.9715 0.12646 0.0
N929 N 0.71158 0.97365 0.08586 0.0
C930 C 0.71128 0.97104 0.2131 0.0
H931 H 0.7066 0.96172 0.21807 0.0
H932 H 0.71003 0.98519 0.22858 0.0
H933 H 0.7159 0.96491 0.23236 0.0
C934 C 0.68303 0.00586 0.11895 0.0
N935 N 0.68573 0.98809 0.12155 0.0
N936 N 0.6927 0.98911 0.126 0.0
C937 C 0.69465 0.0076 0.12767 0.0
C938 C 0.68859 0.01887 0.12298 0.0
C939 C 0.67533 0.01014 0.10979 0.0
H940 H 0.67314 -0.00025 0.08405 0.0
H941 H 0.67231 0.00875 0.14333 0.0
H942 H 0.6746 0.02476 0.09561 0.0
O943 O 0.68439 0.949 0.06596 0.0
O944 O 0.6962 0.95051 0.07002 0.0
H945 H 0.7054 0.01188 0.105 0.0
H946 H 0.70231 0.02947 0.14714 0.0
C947 C 0.70211 0.0142 0.13705 0.0
H948 H 0.70441 0.00571 0.16628 0.0
H949 H 0.70912 0.97278 0.05281 0.0
O950 O 0.67072 0.96624 0.11649 0.0
C951 C 0.69052 0.94466 0.04998 0.0
Co952 Co 0.43124 0.02728 0.87047 0.0
Co953 Co 0.44811 0.02514 0.87435 0.0
C954 C 0.43961 0.04594 0.94804 0.0
O955 O 0.4337 0.04164 0.92854 0.0
O956 O 0.44554 0.0404 0.93083 0.0
C957 C 0.41651 0.02566 0.90134 0.0
O958 O 0.41919 0.02862 0.94362 0.0
C959 C 0.4629 0.01688 0.90815 0.0
C960 C 0.46869 0.01684 0.84012 0.0
C961 C 0.46964 0.01462 0.88835 0.0
N962 N 0.45819 0.0201 0.87303 0.0
N963 N 0.46171 0.02002 0.83255 0.0
C964 C 0.46104 0.01687 0.95964 0.0
H965 H 0.45597 0.02446 0.96608 0.0
H966 H 0.46039 0.00193 0.97189 0.0
H967 H 0.46537 0.02358 0.98062 0.0
C968 C 0.43304 0.98537 0.86844 0.0
N969 N 0.43575 0.00314 0.87005 0.0
N970 N 0.44276 0.00213 0.8718 0.0
C971 C 0.44472 0.98363 0.87134 0.0
C972 C 0.43862 0.9724 0.86926 0.0
C973 C 0.42525 0.98106 0.86424 0.0
H974 H 0.42289 0.98991 0.83572 0.0
H975 H 0.42255 0.98487 0.89787 0.0
H976 H 0.42427 0.96579 0.85626 0.0
O977 O 0.43426 0.04269 0.81556 0.0
O978 O 0.44607 0.04119 0.81831 0.0
H979 H 0.45536 0.982 0.84454 0.0
H980 H 0.45266 0.96117 0.87789 0.0
C981 C 0.45227 0.97692 0.87552 0.0
H982 H 0.45468 0.98316 0.90772 0.0
H983 H 0.45934 0.0223 0.79963 0.0
O984 O 0.42069 0.02446 0.86606 0.0
C985 C 0.44035 0.0472 0.79918 0.0
Co986 Co 0.32581 0.71354 0.86552 0.0
Co987 Co 0.30904 0.71532 0.87593 0.0
C988 C 0.31788 0.6931 0.94365 0.0
O989 O 0.32355 0.69729 0.92111 0.0
O990 O 0.31182 0.69962 0.93109 0.0
C991 C 0.34059 0.71459 0.8947 0.0
O992 O 0.33796 0.71148 0.93703 0.0
C993 C 0.29464 0.72358 0.91393 0.0
C994 C 0.28834 0.72476 0.84799 0.0
C995 C 0.28777 0.72658 0.89665 0.0
N996 N 0.299 0.72017 0.87709 0.0
N997 N 0.29518 0.72079 0.83787 0.0
C998 C 0.29718 0.72516 0.9639 0.0
H999 H 0.30296 0.72861 0.96474 0.0
H1000 H 0.29413 0.73627 0.9832 0.0
H1001 H 0.29639 0.71126 0.98195 0.0
C1002 C 0.32402 0.75542 0.87115 0.0
N1003 N 0.32132 0.73762 0.87081 0.0
N1004 N 0.31433 0.73852 0.87418 0.0
C1005 C 0.31235 0.757 0.87637 0.0
C1006 C 0.31843 0.76831 0.87468 0.0
C1007 C 0.33184 0.75974 0.87065 0.0
H1008 H 0.33448 0.75173 0.89953 0.0
H1009 H 0.33294 0.77516 0.87553 0.0
H1010 H 0.33416 0.75486 0.83667 0.0
O1011 O 0.32251 0.70021 0.8079 0.0
O1012 O 0.31078 0.69978 0.81871 0.0
H1013 H 0.30435 0.77921 0.87039 0.0
H1014 H 0.30243 0.76049 0.91242 0.0
C1015 C 0.30477 0.76368 0.87731 0.0
H1016 H 0.30166 0.75596 0.85009 0.0
H1017 H 0.29727 0.71872 0.80407 0.0
O1018 O 0.33636 0.71626 0.85979 0.0
C1019 C 0.31629 0.6952 0.79508 0.0
Co1020 Co 0.43143 0.71287 0.86886 0.0
Co1021 Co 0.44825 0.71532 0.87116 0.0
C1022 C 0.44043 0.69507 0.79332 0.0
O1023 O 0.43435 0.69901 0.81098 0.0
O1024 O 0.44619 0.70065 0.81284 0.0
C1025 C 0.41684 0.71479 0.83462 0.0
O1026 O 0.41973 0.71288 0.79258 0.0
C1027 C 0.46282 0.72423 0.83876 0.0
C1028 C 0.46878 0.72445 0.90614 0.0
C1029 C 0.4696 0.72684 0.85779 0.0
N1030 N 0.45826 0.72042 0.87425 0.0
N1031 N 0.46187 0.72051 0.91439 0.0
C1032 C 0.46054 0.7265 0.78838 0.0
H1033 H 0.45483 0.73054 0.78658 0.0
H1034 H 0.46383 0.73748 0.77031 0.0
H1035 H 0.46122 0.71269 0.76973 0.0
C1036 C 0.4331 0.75487 0.87165 0.0
N1037 N 0.43586 0.73714 0.87154 0.0
N1038 N 0.44287 0.73825 0.87286 0.0
C1039 C 0.44478 0.75678 0.87413 0.0
C1040 C 0.43866 0.76791 0.87325 0.0
C1041 C 0.4253 0.75905 0.86698 0.0
H1042 H 0.42322 0.75186 0.83493 0.0
H1043 H 0.42422 0.77456 0.8641 0.0
H1044 H 0.42244 0.75315 0.89802 0.0
O1045 O 0.43413 0.6971 0.92407 0.0
O1046 O 0.44594 0.69885 0.92574 0.0
H1047 H 0.45258 0.77907 0.88667 0.0
H1048 H 0.45509 0.76115 0.84388 0.0
C1049 C 0.45232 0.76365 0.87794 0.0
H1050 H 0.45513 0.75553 0.90587 0.0
H1051 H 0.45959 0.71797 0.94747 0.0
O1052 O 0.42085 0.71537 0.87086 0.0
C1053 C 0.44009 0.69259 0.94247 0.0
Co1054 Co 0.32572 0.02802 0.87267 0.0
Co1055 Co 0.30892 0.02522 0.86937 0.0
C1056 C 0.31716 0.04511 0.79336 0.0
O1057 O 0.32309 0.04137 0.81339 0.0
O1058 O 0.31125 0.03957 0.81097 0.0
C1059 C 0.34027 0.02336 0.8406 0.0
O1060 O 0.33736 0.02158 0.79859 0.0
C1061 C 0.2943 0.01706 0.83558 0.0
C1062 C 0.28852 0.01393 0.9032 0.0
C1063 C 0.28759 0.01335 0.8546 0.0
N1064 N 0.29892 0.01974 0.87137 0.0
N1065 N 0.29542 0.01793 0.91164 0.0
C1066 C 0.29646 0.01663 0.78467 0.0
H1067 H 0.30217 0.01272 0.78141 0.0
H1068 H 0.29316 0.00628 0.76457 0.0
H1069 H 0.29572 0.03104 0.76918 0.0
C1070 C 0.32415 0.98599 0.87909 0.0
N1071 N 0.32137 0.00366 0.87569 0.0
N1072 N 0.31437 0.00241 0.87379 0.0
C1073 C 0.31248 0.98387 0.87566 0.0
C1074 C 0.31862 0.97287 0.87913 0.0
C1075 C 0.33194 0.98187 0.884 0.0
H1076 H 0.33437 0.99195 0.90962 0.0
H1077 H 0.33458 0.98395 0.84926 0.0
H1078 H 0.3329 0.96704 0.89618 0.0
O1079 O 0.32267 0.04411 0.92634 0.0
O1080 O 0.31087 0.04221 0.92381 0.0
H1081 H 0.3019 0.98134 0.9029 0.0
H1082 H 0.30471 0.9611 0.86791 0.0
C1083 C 0.30497 0.97684 0.87133 0.0
H1084 H 0.30246 0.98331 0.83973 0.0
H1085 H 0.29776 0.01927 0.94494 0.0
O1086 O 0.33628 0.02597 0.87636 0.0
C1087 C 0.31656 0.04866 0.94237 0.0
H1088 H 0.07657 0.54088 0.06659 0.0
H1089 H 0.07709 0.57588 0.06784 0.0
H1090 H 0.06273 0.57668 0.18697 0.0
H1091 H 0.06234 0.54169 0.18641 0.0
H1092 H 0.06554 0.60094 0.0574 0.0
H1093 H 0.0791 0.61141 0.22991 0.0
H1094 H 0.07903 0.58876 0.19945 0.0
H1095 H 0.07136 0.59635 0.23263 0.0
C1096 C 0.0736 0.54859 0.0933 0.0
C1097 C 0.06941 0.53875 0.12639 0.0
C1098 C 0.07388 0.5685 0.09391 0.0
C1099 C 0.07002 0.57881 0.12785 0.0
C1100 C 0.06585 0.56896 0.16104 0.0
H1101 H 0.06144 0.6978 0.18341 0.0
H1102 H 0.06193 0.6628 0.18293 0.0
C1103 C 0.06557 0.54905 0.16043 0.0
C1104 C 0.07009 0.5999 0.12723 0.0
H1105 H 0.07411 0.63904 0.1939 0.0
C1106 C 0.06746 0.6093 0.08705 0.0
C1107 C 0.07259 0.6107 0.16607 0.0
C1108 C 0.07574 0.60132 0.20932 0.0
C1109 C 0.0671 0.62927 0.08509 0.0
C1110 C 0.06955 0.64006 0.12408 0.0
C1111 C 0.07223 0.63067 0.16413 0.0
C1112 C 0.0693 0.66113 0.12421 0.0
C1113 C 0.06394 0.63865 0.04187 0.0
C1114 C 0.07333 0.67169 0.09163 0.0
C1115 C 0.07304 0.6916 0.09176 0.0
C1116 C 0.06874 0.7012 0.12467 0.0
C1117 C 0.06475 0.69064 0.15751 0.0
C1118 C 0.06505 0.67073 0.15739 0.0
H1119 H 0.06081 0.62841 0.02022 0.0
H1120 H 0.06043 0.65073 0.052 0.0
H1121 H 0.06831 0.64437 0.01952 0.0
H1122 H 0.07672 0.66452 0.06622 0.0
H1123 H 0.07612 0.6995 0.06596 0.0
H1124 H 0.18118 0.54093 0.18349 0.0
H1125 H 0.18035 0.57591 0.18412 0.0
H1126 H 0.19451 0.57862 0.06409 0.0
H1127 H 0.19522 0.54368 0.06281 0.0
H1128 H 0.19167 0.60188 0.19465 0.0
H1129 H 0.17767 0.61228 0.02375 0.0
H1130 H 0.17802 0.58949 0.05347 0.0
H1131 H 0.18553 0.59773 0.01962 0.0
C1132 C 0.18404 0.54906 0.157 0.0
C1133 C 0.18825 0.53977 0.12305 0.0
C1134 C 0.18359 0.56896 0.15747 0.0
C1135 C 0.1873 0.57979 0.12375 0.0
C1136 C 0.19151 0.57049 0.08984 0.0
H1137 H 0.19548 0.69855 0.06826 0.0
H1138 H 0.19491 0.66358 0.06915 0.0
C1139 C 0.19196 0.55061 0.08939 0.0
C1140 C 0.187 0.60087 0.12514 0.0
H1141 H 0.18267 0.64002 0.05942 0.0
C1142 C 0.18964 0.61025 0.16532 0.0
C1143 C 0.18436 0.61168 0.08675 0.0
C1144 C 0.18117 0.60231 0.04361 0.0
C1145 C 0.18991 0.63024 0.16754 0.0
C1146 C 0.18737 0.64104 0.12883 0.0
C1147 C 0.18463 0.63166 0.08895 0.0
C1148 C 0.18766 0.66212 0.12854 0.0
C1149 C 0.19311 0.63963 0.21061 0.0
C1150 C 0.18371 0.6728 0.16135 0.0
C1151 C 0.18406 0.69272 0.16098 0.0
C1152 C 0.18833 0.70218 0.12765 0.0
C1153 C 0.19221 0.69149 0.09453 0.0
C1154 C 0.19186 0.6716 0.09489 0.0
H1155 H 0.19625 0.62939 0.23222 0.0
H1156 H 0.19663 0.65168 0.20029 0.0
H1157 H 0.18877 0.6454 0.23308 0.0
H1158 H 0.18035 0.66573 0.18711 0.0
H1159 H 0.18104 0.70073 0.1869 0.0
H1160 H 0.94563 0.4479 0.80867 0.0
H1161 H 0.94531 0.4129 0.80905 0.0
H1162 H 0.93105 0.41403 0.9287 0.0
H1163 H 0.93137 0.44904 0.92837 0.0
H1164 H 0.94941 0.38905 0.88484 0.0
H1165 H 0.92106 0.3779 0.83483 0.0
H1166 H 0.92559 0.40037 0.82618 0.0
H1167 H 0.92246 0.39374 0.88392 0.0
C1168 C 0.94242 0.44061 0.83492 0.0
C1169 C 0.93853 0.45101 0.86856 0.0
C1170 C 0.94223 0.4207 0.83505 0.0
C1171 C 0.93809 0.41093 0.86857 0.0
C1172 C 0.93416 0.42133 0.902 0.0
H1173 H 0.93211 0.29065 0.93228 0.0
H1174 H 0.93174 0.32569 0.9318 0.0
C1175 C 0.93436 0.44125 0.90189 0.0
C1176 C 0.93816 0.38985 0.86978 0.0
H1177 H 0.92759 0.35049 0.858 0.0
C1178 C 0.94465 0.38059 0.8788 0.0
C1179 C 0.93193 0.37893 0.86214 0.0
C1180 C 0.92487 0.38819 0.85082 0.0
C1181 C 0.94507 0.36063 0.88087 0.0
C1182 C 0.93885 0.3497 0.87284 0.0
C1183 C 0.93234 0.35896 0.86412 0.0
C1184 C 0.93901 0.32861 0.87279 0.0
C1185 C 0.95213 0.35144 0.89248 0.0
C1186 C 0.94313 0.31875 0.83936 0.0
C1187 C 0.94332 0.29884 0.83957 0.0
C1188 C 0.93936 0.28853 0.87296 0.0
C1189 C 0.93517 0.29837 0.90602 0.0
C1190 C 0.93497 0.3183 0.90583 0.0
H1191 H 0.95584 0.36165 0.90968 0.0
H1192 H 0.9514 0.33895 0.91618 0.0
H1193 H 0.95466 0.34637 0.85932 0.0
H1194 H 0.94617 0.32646 0.81298 0.0
H1195 H 0.94653 0.29149 0.81346 0.0
H1196 H 0.82613 0.44891 0.81808 0.0
H1197 H 0.82648 0.41387 0.81756 0.0
H1198 H 0.81252 0.41259 0.93873 0.0
H1199 H 0.81217 0.44758 0.93928 0.0
H1200 H 0.83074 0.38823 0.89026 0.0
H1201 H 0.80231 0.37883 0.84054 0.0
H1202 H 0.80691 0.40132 0.83447 0.0
H1203 H 0.80374 0.39369 0.89138 0.0
C1204 C 0.82318 0.44108 0.84466 0.0
C1205 C 0.81907 0.45077 0.87847 0.0
C1206 C 0.82337 0.42115 0.8443 0.0
C1207 C 0.81943 0.41071 0.87763 0.0
C1208 C 0.81547 0.42042 0.91213 0.0
H1209 H 0.81229 0.29107 0.93454 0.0
H1210 H 0.81269 0.32606 0.93592 0.0
C1211 C 0.81528 0.44033 0.91248 0.0
C1212 C 0.81947 0.38964 0.87637 0.0
H1213 H 0.80865 0.35091 0.8624 0.0
C1214 C 0.82593 0.38003 0.88395 0.0
C1215 C 0.81317 0.37908 0.86807 0.0
C1216 C 0.80614 0.38872 0.85772 0.0
C1217 C 0.82623 0.36003 0.8845 0.0
C1218 C 0.81992 0.34947 0.87652 0.0
C1219 C 0.81347 0.3591 0.86867 0.0
C1220 C 0.81986 0.32839 0.87626 0.0
C1221 C 0.83325 0.35036 0.8947 0.0
C1222 C 0.82371 0.31822 0.842 0.0
C1223 C 0.82347 0.2983 0.84113 0.0
C1224 C 0.81935 0.28834 0.87436 0.0
C1225 C 0.81548 0.29852 0.9085 0.0
C1226 C 0.81572 0.31843 0.90937 0.0
H1227 H 0.83714 0.36029 0.91122 0.0
H1228 H 0.83249 0.33791 0.91847 0.0
H1229 H 0.83558 0.34512 0.86106 0.0
H1230 H 0.82682 0.32569 0.81553 0.0
H1231 H 0.82641 0.29069 0.81409 0.0
H1232 H 0.07651 0.04043 0.57042 0.0
H1233 H 0.07715 0.07542 0.57071 0.0
H1234 H 0.06258 0.07716 0.68865 0.0
H1235 H 0.06206 0.04218 0.68904 0.0
H1236 H 0.06564 0.10071 0.55883 0.0
H1237 H 0.07907 0.11166 0.73166 0.0
H1238 H 0.07899 0.0889 0.70171 0.0
H1239 H 0.07129 0.09673 0.73426 0.0
C1240 C 0.07352 0.04834 0.59669 0.0
C1241 C 0.06924 0.03876 0.62972 0.0
C1242 C 0.07387 0.06825 0.59674 0.0
C1243 C 0.06998 0.07881 0.63007 0.0
C1244 C 0.06572 0.06923 0.6632 0.0
H1245 H 0.06183 0.19828 0.68198 0.0
H1246 H 0.06222 0.16328 0.68276 0.0
C1247 C 0.06537 0.04933 0.66313 0.0
C1248 C 0.07014 0.09989 0.62884 0.0
H1249 H 0.07425 0.13924 0.69449 0.0
C1250 C 0.06757 0.10916 0.5883 0.0
C1251 C 0.07264 0.11081 0.66746 0.0
C1252 C 0.07572 0.10155 0.71111 0.0
C1253 C 0.06729 0.12913 0.58575 0.0
C1254 C 0.06975 0.14005 0.62449 0.0
C1255 C 0.07236 0.13078 0.66491 0.0
C1256 C 0.06957 0.16113 0.62399 0.0
C1257 C 0.06418 0.13837 0.54216 0.0
C1258 C 0.07362 0.17142 0.59101 0.0
C1259 C 0.07337 0.19134 0.5904 0.0
C1260 C 0.0691 0.20121 0.62297 0.0
C1261 C 0.06511 0.19091 0.6563 0.0
C1262 C 0.06536 0.171 0.6569 0.0
H1263 H 0.06101 0.12812 0.52084 0.0
H1264 H 0.06072 0.15063 0.55181 0.0
H1265 H 0.06858 0.14381 0.51965 0.0
H1266 H 0.07699 0.16405 0.56582 0.0
H1267 H 0.07646 0.19903 0.56425 0.0
H1268 H 0.19555 0.04208 0.69114 0.0
H1269 H 0.19508 0.07706 0.69419 0.0
H1270 H 0.18038 0.0773 0.57682 0.0
H1271 H 0.18086 0.04234 0.5737 0.0
H1272 H 0.1988 0.10221 0.62104 0.0
H1273 H 0.17054 0.11169 0.67474 0.0
H1274 H 0.17517 0.08923 0.68055 0.0
H1275 H 0.17181 0.09667 0.62398 0.0
C1276 C 0.19221 0.04966 0.66616 0.0
C1277 C 0.18822 0.03966 0.6323 0.0
C1278 C 0.19193 0.06956 0.66799 0.0
C1279 C 0.18762 0.07971 0.63618 0.0
C1280 C 0.18362 0.0697 0.60234 0.0
H1281 H 0.18111 0.19935 0.57258 0.0
H1282 H 0.18071 0.16434 0.57576 0.0
C1283 C 0.18391 0.0498 0.6005 0.0
C1284 C 0.18758 0.1008 0.63687 0.0
H1285 H 0.17679 0.13961 0.65097 0.0
C1286 C 0.194 0.11041 0.62789 0.0
C1287 C 0.1813 0.11139 0.64563 0.0
C1288 C 0.17432 0.10176 0.65719 0.0
C1289 C 0.19429 0.1304 0.62653 0.0
C1290 C 0.18801 0.141 0.63524 0.0
C1291 C 0.18159 0.1314 0.64432 0.0
C1292 C 0.18801 0.16209 0.63477 0.0
C1293 C 0.20127 0.13998 0.61467 0.0
C1294 C 0.19212 0.17233 0.66753 0.0
C1295 C 0.19234 0.19223 0.66574 0.0
C1296 C 0.18843 0.20215 0.63132 0.0
C1297 C 0.18416 0.19194 0.59943 0.0
C1298 C 0.18394 0.17202 0.60119 0.0
H1299 H 0.20507 0.12996 0.59764 0.0
H1300 H 0.20042 0.15233 0.59072 0.0
H1301 H 0.20376 0.14534 0.64769 0.0
H1302 H 0.19518 0.16492 0.69434 0.0
H1303 H 0.19559 0.19988 0.69114 0.0
H1304 H 0.93089 0.94934 0.31414 0.0
H1305 H 0.92989 0.91441 0.31539 0.0
H1306 H 0.94435 0.91217 0.43392 0.0
H1307 H 0.9452 0.94709 0.43346 0.0
H1308 H 0.94085 0.88798 0.30453 0.0
H1309 H 0.92756 0.87949 0.47852 0.0
H1310 H 0.92799 0.90208 0.44794 0.0
H1311 H 0.93556 0.89353 0.48067 0.0
C1312 C 0.93378 0.94133 0.34073 0.0
C1313 C 0.93809 0.95076 0.37386 0.0
C1314 C 0.93322 0.92146 0.34133 0.0
C1315 C 0.93695 0.91077 0.37521 0.0
C1316 C 0.94131 0.9202 0.40812 0.0
H1317 H 0.94503 0.7921 0.43122 0.0
H1318 H 0.94442 0.82707 0.43057 0.0
C1319 C 0.94185 0.94006 0.40756 0.0
C1320 C 0.93653 0.88971 0.37493 0.0
H1321 H 0.9322 0.85123 0.4431 0.0
C1322 C 0.9389 0.87992 0.33461 0.0
C1323 C 0.93398 0.87931 0.41428 0.0
C1324 C 0.93106 0.88912 0.45766 0.0
C1325 C 0.93898 0.85992 0.33312 0.0
C1326 C 0.93654 0.84952 0.37276 0.0
C1327 C 0.93408 0.8593 0.41284 0.0
C1328 C 0.9367 0.82846 0.37381 0.0
C1329 C 0.94188 0.85007 0.28976 0.0
C1330 C 0.93247 0.81776 0.34259 0.0
C1331 C 0.93284 0.79785 0.34283 0.0
C1332 C 0.93742 0.78842 0.37435 0.0
C1333 C 0.94152 0.79913 0.40625 0.0
C1334 C 0.94115 0.81902 0.40605 0.0
H1335 H 0.94492 0.86001 0.26674 0.0
H1336 H 0.94542 0.83802 0.29985 0.0
H1337 H 0.93739 0.84418 0.26882 0.0
H1338 H 0.92893 0.82482 0.31793 0.0
H1339 H 0.92964 0.78982 0.3179 0.0
H1340 H 0.81183 0.94805 0.43541 0.0
H1341 H 0.8121 0.91304 0.43583 0.0
H1342 H 0.82681 0.9136 0.31859 0.0
H1343 H 0.82652 0.94861 0.31802 0.0
H1344 H 0.80828 0.88894 0.35926 0.0
H1345 H 0.83636 0.8778 0.4157 0.0
H1346 H 0.83179 0.90029 0.42317 0.0
H1347 H 0.83519 0.89356 0.36618 0.0
C1348 C 0.81512 0.94063 0.40983 0.0
C1349 C 0.81915 0.95087 0.37661 0.0
C1350 C 0.81529 0.92072 0.41018 0.0
C1351 C 0.81953 0.9108 0.37758 0.0
C1352 C 0.8236 0.92103 0.34457 0.0
H1353 H 0.8258 0.79034 0.31822 0.0
H1354 H 0.82616 0.82536 0.31801 0.0
C1355 C 0.82343 0.94095 0.34419 0.0
C1356 C 0.81944 0.88972 0.37686 0.0
H1357 H 0.8299 0.85035 0.392 0.0
C1358 C 0.81299 0.88047 0.36658 0.0
C1359 C 0.82562 0.8788 0.38617 0.0
C1360 C 0.83263 0.88806 0.39882 0.0
C1361 C 0.81257 0.86052 0.36488 0.0
C1362 C 0.81873 0.84958 0.3746 0.0
C1363 C 0.82519 0.85882 0.38459 0.0
C1364 C 0.81855 0.8285 0.37503 0.0
C1365 C 0.80556 0.85132 0.35183 0.0
C1366 C 0.81424 0.81875 0.40758 0.0
C1367 C 0.81404 0.79884 0.40775 0.0
C1368 C 0.8182 0.78841 0.37563 0.0
C1369 C 0.82258 0.79814 0.34348 0.0
C1370 C 0.82278 0.81807 0.34327 0.0
H1371 H 0.80195 0.8615 0.3335 0.0
H1372 H 0.80641 0.83874 0.32862 0.0
H1373 H 0.80284 0.84641 0.38448 0.0
H1374 H 0.81105 0.82655 0.43302 0.0
H1375 H 0.81069 0.79158 0.43324 0.0
H1376 H 0.56281 0.69882 0.69102 0.0
H1377 H 0.56334 0.66387 0.69481 0.0
H1378 H 0.57524 0.66293 0.56422 0.0
H1379 H 0.57484 0.69791 0.56109 0.0
H1380 H 0.55803 0.63826 0.63356 0.0
H1381 H 0.58729 0.6289 0.64741 0.0
H1382 H 0.583 0.65172 0.65556 0.0
H1383 H 0.58471 0.6428 0.59697 0.0
C1384 C 0.56557 0.69107 0.6634 0.0
C1385 C 0.56882 0.70085 0.62593 0.0
C1386 C 0.56588 0.67119 0.66556 0.0
C1387 C 0.56944 0.66083 0.63022 0.0
C1388 C 0.57264 0.67066 0.59251 0.0
H1389 H 0.56265 0.54171 0.56317 0.0
H1390 H 0.56294 0.57669 0.56474 0.0
C1391 C 0.57237 0.69056 0.59057 0.0
C1392 C 0.5695 0.63972 0.63172 0.0
H1393 H 0.5805 0.60093 0.63013 0.0
C1394 C 0.56294 0.63009 0.63311 0.0
C1395 C 0.57592 0.62912 0.63183 0.0
C1396 C 0.58313 0.63865 0.63336 0.0
C1397 C 0.56262 0.61011 0.63365 0.0
C1398 C 0.56903 0.5995 0.63149 0.0
C1399 C 0.57559 0.60912 0.63116 0.0
C1400 C 0.56903 0.57841 0.62968 0.0
C1401 C 0.55542 0.60058 0.63722 0.0
C1402 C 0.57256 0.56783 0.66473 0.0
C1403 C 0.57246 0.54791 0.66349 0.0
C1404 C 0.56883 0.53834 0.6272 0.0
C1405 C 0.56541 0.54889 0.59172 0.0
C1406 C 0.56555 0.56879 0.59276 0.0
H1407 H 0.55135 0.61035 0.65235 0.0
H1408 H 0.55362 0.59639 0.60134 0.0
H1409 H 0.55569 0.58755 0.65947 0.0
H1410 H 0.57531 0.575 0.69338 0.0
H1411 H 0.57512 0.53997 0.69124 0.0
H1412 H 0.69538 0.54407 0.56188 0.0
H1413 H 0.69476 0.57905 0.56348 0.0
H1414 H 0.67959 0.5763 0.6779 0.0
H1415 H 0.6803 0.54131 0.67691 0.0
H1416 H 0.68245 0.60318 0.5532 0.0
H1417 H 0.69575 0.61134 0.72788 0.0
H1418 H 0.69617 0.58951 0.69406 0.0
H1419 H 0.68824 0.5954 0.72646 0.0
C1420 C 0.69194 0.551 0.58742 0.0
C1421 C 0.68793 0.54017 0.61953 0.0
C1422 C 0.69157 0.57089 0.58818 0.0
C1423 C 0.6872 0.58018 0.62122 0.0
C1424 C 0.68307 0.56935 0.65265 0.0
H1425 H 0.68114 0.70056 0.68503 0.0
H1426 H 0.68033 0.6656 0.68315 0.0
C1427 C 0.68343 0.54945 0.65184 0.0
C1428 C 0.68703 0.60123 0.62283 0.0
H1429 H 0.69145 0.63942 0.69163 0.0
C1430 C 0.68441 0.61115 0.58342 0.0
C1431 C 0.68958 0.61147 0.66242 0.0
C1432 C 0.69265 0.60145 0.70504 0.0
C1433 C 0.68424 0.63115 0.58263 0.0
C1434 C 0.68689 0.64141 0.62195 0.0
C1435 C 0.68943 0.63147 0.66158 0.0
C1436 C 0.68723 0.66247 0.6223 0.0
C1437 C 0.68115 0.64112 0.54002 0.0
C1438 C 0.69144 0.67218 0.58907 0.0
C1439 C 0.69187 0.69206 0.58998 0.0
C1440 C 0.68813 0.70248 0.62433 0.0
C1441 C 0.68399 0.69277 0.6579 0.0
C1442 C 0.68355 0.67288 0.65695 0.0
H1443 H 0.67762 0.63151 0.51932 0.0
H1444 H 0.67805 0.65393 0.55063 0.0
H1445 H 0.68555 0.6458 0.51654 0.0
H1446 H 0.69444 0.66437 0.56269 0.0
H1447 H 0.69509 0.69931 0.56377 0.0
H1448 H 0.43163 0.44967 0.31527 0.0
H1449 H 0.43088 0.4147 0.3162 0.0
H1450 H 0.44541 0.41299 0.43439 0.0
H1451 H 0.44604 0.44796 0.43412 0.0
H1452 H 0.44225 0.38878 0.30552 0.0
H1453 H 0.42863 0.37956 0.4783 0.0
H1454 H 0.42887 0.40211 0.4474 0.0
H1455 H 0.43649 0.39418 0.48052 0.0
C1456 C 0.43459 0.44177 0.34172 0.0
C1457 C 0.43886 0.45136 0.37479 0.0
C1458 C 0.43418 0.42188 0.34212 0.0
C1459 C 0.438 0.41133 0.37579 0.0
C1460 C 0.44231 0.42091 0.40871 0.0
H1461 H 0.44561 0.29213 0.43287 0.0
H1462 H 0.44521 0.32713 0.43246 0.0
C1463 C 0.44272 0.44081 0.40828 0.0
C1464 C 0.43772 0.39025 0.37534 0.0
H1465 H 0.4333 0.35153 0.4424 0.0
C1466 C 0.44024 0.3806 0.33525 0.0
C1467 C 0.4351 0.3797 0.41427 0.0
C1468 C 0.43206 0.38938 0.45743 0.0
C1469 C 0.4404 0.36061 0.33351 0.0
C1470 C 0.43785 0.35006 0.37261 0.0
C1471 C 0.43526 0.3597 0.41254 0.0
C1472 C 0.43796 0.32897 0.37313 0.0
C1473 C 0.44349 0.35095 0.29043 0.0
C1474 C 0.43392 0.31849 0.34037 0.0
C1475 C 0.43418 0.29857 0.34042 0.0
C1476 C 0.43845 0.28889 0.37336 0.0
C1477 C 0.44236 0.29936 0.40677 0.0
C1478 C 0.44211 0.31927 0.40669 0.0
H1479 H 0.44672 0.36094 0.26871 0.0
H1480 H 0.44689 0.33866 0.30072 0.0
H1481 H 0.43908 0.34548 0.26807 0.0
H1482 H 0.43059 0.32572 0.31475 0.0
H1483 H 0.43112 0.29071 0.31443 0.0
H1484 H 0.32869 0.28995 0.42306 0.0
H1485 H 0.32961 0.3248 0.42362 0.0
H1486 H 0.31159 0.32842 0.32916 0.0
H1487 H 0.31102 0.29361 0.32569 0.0
H1488 H 0.32134 0.35258 0.30315 0.0
H1489 H 0.31734 0.36066 0.49619 0.0
H1490 H 0.32495 0.34627 0.48224 0.0
H1491 H 0.31616 0.33815 0.46634 0.0
C1492 C 0.32499 0.29822 0.40203 0.0
C1493 C 0.31974 0.28913 0.37467 0.0
C1494 C 0.32545 0.31812 0.40293 0.0
C1495 C 0.32055 0.32927 0.37742 0.0
C1496 C 0.31538 0.32015 0.3495 0.0
H1497 H 0.31093 0.44829 0.42403 0.0
H1498 H 0.31138 0.41342 0.42263 0.0
C1499 C 0.31502 0.30027 0.34788 0.0
C1500 C 0.32084 0.35042 0.37904 0.0
H1501 H 0.32061 0.3886 0.45397 0.0
C1502 C 0.32115 0.36046 0.33614 0.0
C1503 C 0.32051 0.36071 0.42207 0.0
C1504 C 0.31965 0.35091 0.46926 0.0
C1505 C 0.3211 0.38047 0.33496 0.0
C1506 C 0.32102 0.39076 0.37805 0.0
C1507 C 0.32075 0.38072 0.42098 0.0
C1508 C 0.3209 0.41192 0.37942 0.0
C1509 C 0.32086 0.3903 0.28747 0.0
C1510 C 0.32616 0.4227 0.35629 0.0
C1511 C 0.32578 0.44262 0.35595 0.0
C1512 C 0.32025 0.45209 0.37976 0.0
C1513 C 0.31517 0.44132 0.40456 0.0
C1514 C 0.31546 0.42142 0.40414 0.0
H1515 H 0.31879 0.38066 0.25944 0.0
H1516 H 0.31745 0.40324 0.28862 0.0
H1517 H 0.32633 0.39463 0.27721 0.0
H1518 H 0.33052 0.41573 0.33816 0.0
H1519 H 0.32976 0.45058 0.33643 0.0
H1520 H 0.56258 0.19744 0.06188 0.0
H1521 H 0.56293 0.16244 0.06269 0.0
H1522 H 0.57661 0.16386 0.18528 0.0
H1523 H 0.57612 0.19887 0.1852 0.0
H1524 H 0.57476 0.13793 0.05672 0.0
H1525 H 0.56019 0.12885 0.22635 0.0
H1526 H 0.56031 0.15114 0.19439 0.0
H1527 H 0.56786 0.14412 0.22941 0.0
C1528 C 0.56562 0.19021 0.0891 0.0
C1529 C 0.56927 0.20068 0.12375 0.0
C1530 C 0.56584 0.1703 0.08942 0.0
C1531 C 0.5697 0.16061 0.12447 0.0
C1532 C 0.57349 0.17109 0.15849 0.0
H1533 H 0.57581 0.03987 0.18305 0.0
H1534 H 0.57651 0.07487 0.18275 0.0
C1535 C 0.57326 0.19101 0.15821 0.0
C1536 C 0.56977 0.13952 0.12518 0.0
H1537 H 0.5649 0.10091 0.19124 0.0
C1538 C 0.5726 0.12981 0.08607 0.0
C1539 C 0.56695 0.12904 0.1636 0.0
C1540 C 0.5636 0.13877 0.20569 0.0
C1541 C 0.57273 0.10981 0.08448 0.0
C1542 C 0.56986 0.09934 0.12274 0.0
C1543 C 0.5671 0.10904 0.16204 0.0
C1544 C 0.56955 0.07829 0.12228 0.0
C1545 C 0.576 0.10003 0.04222 0.0
C1546 C 0.56535 0.06875 0.08873 0.0
C1547 C 0.56496 0.04885 0.08885 0.0
C1548 C 0.56876 0.03826 0.12258 0.0
C1549 C 0.57291 0.04781 0.15639 0.0
C1550 C 0.57329 0.06771 0.15634 0.0
H1551 H 0.57951 0.10983 0.02184 0.0
H1552 H 0.57917 0.08741 0.05326 0.0
H1553 H 0.5717 0.09504 0.01834 0.0
H1554 H 0.56233 0.0767 0.06271 0.0
H1555 H 0.56173 0.04172 0.06248 0.0
H1556 H 0.69697 0.04367 0.07399 0.0
H1557 H 0.69671 0.07852 0.07663 0.0
H1558 H 0.67851 0.07636 0.16987 0.0
H1559 H 0.67916 0.0415 0.17047 0.0
H1560 H 0.6874 0.10329 0.0496 0.0
H1561 H 0.69085 0.11157 0.24294 0.0
H1562 H 0.69186 0.08889 0.21369 0.0
H1563 H 0.68312 0.09773 0.22859 0.0
C1564 C 0.69301 0.05067 0.09575 0.0
C1565 C 0.68816 0.03994 0.1226 0.0
C1566 C 0.69281 0.07056 0.09689 0.0
C1567 C 0.68769 0.0801 0.12429 0.0
C1568 C 0.68265 0.06936 0.14967 0.0
H1569 H 0.67926 0.20145 0.08002 0.0
H1570 H 0.67847 0.16663 0.08131 0.0
C1571 C 0.68295 0.04945 0.14937 0.0
C1572 C 0.68758 0.10126 0.12559 0.0
H1573 H 0.68775 0.13956 0.20012 0.0
C1574 C 0.68751 0.11123 0.08253 0.0
C1575 C 0.68784 0.11162 0.16855 0.0
C1576 C 0.6885 0.1019 0.216 0.0
C1577 C 0.6877 0.13122 0.08113 0.0
C1578 C 0.68765 0.14158 0.12411 0.0
C1579 C 0.6877 0.13162 0.16718 0.0
C1580 C 0.68781 0.16274 0.12533 0.0
C1581 C 0.68822 0.14092 0.03358 0.0
C1582 C 0.69308 0.1722 0.15175 0.0
C1583 C 0.69336 0.19209 0.15254 0.0
C1584 C 0.68845 0.20289 0.1263 0.0
C1585 C 0.6831 0.19346 0.10063 0.0
C1586 C 0.68272 0.17356 0.10071 0.0
H1587 H 0.69044 0.13119 0.00628 0.0
H1588 H 0.68281 0.14521 0.02184 0.0
H1589 H 0.69163 0.15386 0.03533 0.0
H1590 H 0.69702 0.16418 0.17145 0.0
H1591 H 0.69743 0.19903 0.17352 0.0
H1592 H 0.43104 0.94996 0.92931 0.0
H1593 H 0.43044 0.91497 0.93016 0.0
H1594 H 0.44468 0.91276 0.81051 0.0
H1595 H 0.44515 0.94777 0.80896 0.0
H1596 H 0.43266 0.88852 0.80301 0.0
H1597 H 0.44663 0.87968 0.97498 0.0
H1598 H 0.43904 0.89532 0.97627 0.0
H1599 H 0.44676 0.9018 0.94226 0.0
C1600 C 0.434 0.94194 0.90312 0.0
C1601 C 0.43818 0.95139 0.86927 0.0
C1602 C 0.43371 0.92203 0.90386 0.0
C1603 C 0.43761 0.91133 0.87088 0.0
C1604 C 0.44167 0.92079 0.83644 0.0
H1605 H 0.44521 0.79205 0.81205 0.0
H1606 H 0.44464 0.82702 0.81122 0.0
C1607 C 0.44196 0.9407 0.8357 0.0
C1608 C 0.43745 0.89024 0.87206 0.0
H1609 H 0.44194 0.85176 0.93976 0.0
C1610 C 0.43469 0.88045 0.83284 0.0
C1611 C 0.4401 0.87983 0.91113 0.0
C1612 C 0.44336 0.88964 0.95344 0.0
C1613 C 0.43446 0.86045 0.83179 0.0
C1614 C 0.43717 0.85004 0.87067 0.0
C1615 C 0.43986 0.85983 0.91008 0.0
C1616 C 0.43742 0.82896 0.87071 0.0
C1617 C 0.43124 0.85063 0.78939 0.0
C1618 C 0.43367 0.81856 0.90508 0.0
C1619 C 0.43404 0.79865 0.90578 0.0
C1620 C 0.4382 0.78892 0.87233 0.0
C1621 C 0.44198 0.79933 0.83818 0.0
C1622 C 0.44161 0.81922 0.83744 0.0
H1623 H 0.42777 0.86041 0.76877 0.0
H1624 H 0.43558 0.84565 0.76576 0.0
H1625 H 0.42806 0.83801 0.80026 0.0
H1626 H 0.43046 0.82586 0.93127 0.0
H1627 H 0.43114 0.79085 0.93269 0.0
H1628 H 0.31248 0.79214 0.93948 0.0
H1629 H 0.31286 0.82714 0.94036 0.0
H1630 H 0.32587 0.82662 0.81453 0.0
H1631 H 0.32529 0.79167 0.81274 0.0
H1632 H 0.32452 0.85149 0.94582 0.0
H1633 H 0.30964 0.86241 0.77828 0.0
H1634 H 0.30989 0.83971 0.80841 0.0
H1635 H 0.3173 0.84723 0.77262 0.0
C1636 C 0.31537 0.79957 0.91189 0.0
C1637 C 0.31883 0.78934 0.87592 0.0
C1638 C 0.31562 0.81949 0.91253 0.0
C1639 C 0.31931 0.82945 0.87712 0.0
C1640 C 0.32288 0.81921 0.84165 0.0
H1641 H 0.32634 0.94988 0.82118 0.0
H1642 H 0.32691 0.91487 0.82231 0.0
C1643 C 0.3226 0.79929 0.8409 0.0
C1644 C 0.31945 0.85057 0.87753 0.0
H1645 H 0.31484 0.88986 0.81309 0.0
C1646 C 0.32239 0.8599 0.91689 0.0
C1647 C 0.31665 0.86146 0.83972 0.0
C1648 C 0.31313 0.85223 0.79754 0.0
C1649 C 0.32269 0.87989 0.91917 0.0
C1650 C 0.3199 0.89074 0.88133 0.0
C1651 C 0.31699 0.88143 0.84192 0.0
C1652 C 0.31983 0.91183 0.88223 0.0
C1653 C 0.32606 0.88925 0.96167 0.0
C1654 C 0.31564 0.9216 0.91546 0.0
C1655 C 0.31531 0.94151 0.91481 0.0
C1656 C 0.31914 0.95188 0.88083 0.0
C1657 C 0.32338 0.94212 0.84786 0.0
C1658 C 0.32369 0.9222 0.8484 0.0
H1659 H 0.3294 0.87907 0.98213 0.0
H1660 H 0.32942 0.90155 0.95082 0.0
H1661 H 0.32181 0.89469 0.98537 0.0
H1662 H 0.31254 0.91381 0.94137 0.0
H1663 H 0.31204 0.94881 0.94065 0.0
H1664 H 0.02501 0.46234 0.12957 0.0
H1665 H 0.01347 0.46881 0.09253 0.0
H1666 H 0.02378 0.5047 0.9893 0.0
H1667 H 0.03531 0.49848 0.02642 0.0
H1668 H 0.00676 0.50395 0.07964 0.0
H1669 H 0.01184 0.4685 0.90731 0.0
H1670 H 0.01737 0.46451 0.95863 0.0
H1671 H 0.01842 0.48584 0.92405 0.0
C1672 C 0.02483 0.47151 0.09876 0.0
C1673 C 0.03112 0.47946 0.08015 0.0
C1674 C 0.01823 0.47518 0.07766 0.0
C1675 C 0.01778 0.48691 0.03758 0.0
C1676 C 0.02403 0.49515 0.01936 0.0
H1677 H 0.9829 0.52771 0.86321 0.0
H1678 H 0.99445 0.52146 0.90042 0.0
C1679 C 0.03064 0.49146 0.04046 0.0
C1680 C 0.01074 0.49101 0.01589 0.0
H1681 H 1.00119 0.48654 0.91369 0.0
C1682 C 0.00552 0.50008 0.04342 0.0
C1683 C 0.00916 0.48597 0.96861 0.0
C1684 C 0.01446 0.47551 0.93795 0.0
C1685 C 0.99879 0.50455 0.02471 0.0
C1686 C 0.9972 0.49949 0.97744 0.0
C1687 C 1.00242 0.49042 0.94991 0.0
C1688 C 0.99015 0.50353 0.95577 0.0
C1689 C 0.99349 0.51502 0.05536 0.0
C1690 C 0.98391 0.49532 0.97418 0.0
C1691 C 0.9773 0.49888 0.953 0.0
C1692 C 0.97681 0.51073 0.91301 0.0
C1693 C 0.98309 0.51866 0.89424 0.0
C1694 C 0.98969 0.51511 0.91544 0.0
H1695 H 0.99612 0.52211 0.08585 0.0
H1696 H 0.99056 0.52595 0.03464 0.0
H1697 H 0.98955 0.50468 0.06952 0.0
H1698 H 0.98417 0.48587 0.00443 0.0
H1699 H 0.97263 0.49189 0.96719 0.0
H1700 H 0.22455 0.7757 0.02479 0.0
H1701 H 0.23611 0.76857 0.98896 0.0
H1702 H 0.24199 0.73567 0.11173 0.0
H1703 H 0.23042 0.74265 0.1477 0.0
H1704 H 0.25244 0.76115 0.08418 0.0
H1705 H 0.2431 0.71866 0.93066 0.0
H1706 H 0.23894 0.74164 0.93573 0.0
H1707 H 0.23745 0.72393 0.98065 0.0
C1708 C 0.22821 0.7665 0.04363 0.0
C1709 C 0.22649 0.75933 0.08862 0.0
C1710 C 0.23484 0.76253 0.02319 0.0
C1711 C 0.23987 0.75129 0.04729 0.0
C1712 C 0.23818 0.74426 0.09236 0.0
H1713 H 0.28332 0.71398 0.98428 0.0
H1714 H 0.27189 0.72038 0.02279 0.0
C1715 C 0.23156 0.74826 0.11283 0.0
C1716 C 0.24699 0.74747 0.0264 0.0
H1717 H 0.2553 0.72776 0.93073 0.0
C1718 C 0.25308 0.75375 0.05077 0.0
C1719 C 0.2478 0.7378 0.98283 0.0
C1720 C 0.24148 0.72995 0.95608 0.0
C1721 C 0.25995 0.75102 0.0322 0.0
C1722 C 0.26075 0.7415 0.98843 0.0
C1723 C 0.25467 0.7351 0.96424 0.0
C1724 C 0.26785 0.73831 0.96654 0.0
C1725 C 0.26628 0.75878 0.05894 0.0
C1726 C 0.26934 0.74606 0.92193 0.0
C1727 C 0.27588 0.7425 0.9 0.0
C1728 C 0.28108 0.73113 0.9222 0.0
C1729 C 0.27957 0.72336 0.96693 0.0
C1730 C 0.27301 0.72691 0.98889 0.0
H1731 H 0.26467 0.76955 0.08572 0.0
H1732 H 0.26899 0.7469 0.07765 0.0
H1733 H 0.27018 0.76541 0.03442 0.0
H1734 H 0.26543 0.75481 0.90394 0.0
H1735 H 0.27686 0.74863 0.86543 0.0
H1736 H 0.97863 0.75711 0.37512 0.0
H1737 H 0.99019 0.76301 0.33788 0.0
H1738 H 0.98744 0.71279 0.25149 0.0
H1739 H 0.97577 0.70717 0.28783 0.0
H1740 H 1.00197 0.7425 0.3375 0.0
H1741 H 0.99278 0.75105 0.15249 0.0
H1742 H 0.98668 0.75038 0.20174 0.0
H1743 H 0.99024 0.72858 0.17775 0.0
C1744 C 0.98046 0.74745 0.34782 0.0
C1745 C 0.97624 0.73192 0.33363 0.0
C1746 C 0.98708 0.7508 0.32663 0.0
C1747 C 0.98964 0.73856 0.29119 0.0
C1748 C 0.98548 0.7228 0.27762 0.0
H1749 H 0.0345 0.73647 0.20411 0.0
H1750 H 0.02301 0.72954 0.24143 0.0
C1751 C 0.97881 0.71959 0.2984 0.0
C1752 C 0.99676 0.74211 0.26964 0.0
H1753 H 0.00529 0.74902 0.16436 0.0
C1754 C 1.00269 0.74398 0.29963 0.0
C1755 C 0.9977 0.74427 0.22026 0.0
C1756 C 0.9915 0.74366 0.18622 0.0
C1757 C 0.00952 0.74797 0.28172 0.0
C1758 C 0.01049 0.74954 0.23224 0.0
C1759 C 0.00456 0.74765 0.20226 0.0
C1760 C 0.01756 0.75381 0.21074 0.0
C1761 C 0.01556 0.75102 0.31617 0.0
C1762 C 0.0183 0.76945 0.18008 0.0
C1763 C 0.02483 0.77328 0.15837 0.0
C1764 C 0.03079 0.7617 0.16727 0.0
C1765 C 0.03007 0.74604 0.1979 0.0
C1766 C 0.02349 0.74204 0.21918 0.0
H1767 H 0.01356 0.75485 0.35191 0.0
H1768 H 0.01866 0.73761 0.3195 0.0
H1769 H 0.01921 0.76247 0.30386 0.0
H1770 H 0.0138 0.7787 0.17282 0.0
H1771 H 0.02523 0.78538 0.13467 0.0
H1772 H 0.27847 0.48719 0.3734 0.0
H1773 H 0.2669 0.48147 0.33617 0.0
H1774 H 0.27159 0.52428 0.23116 0.0
H1775 H 0.28315 0.53021 0.26847 0.0
H1776 H 0.25589 0.50766 0.32282 0.0
H1777 H 0.26526 0.47843 0.15117 0.0
H1778 H 0.271 0.48038 0.20217 0.0
H1779 H 0.26904 0.50109 0.16701 0.0
C1780 C 0.27706 0.49529 0.34213 0.0
C1781 C 0.2818 0.50884 0.32325 0.0
C1782 C 0.27045 0.492 0.32092 0.0
C1783 C 0.26843 0.5022 0.28043 0.0
C1784 C 0.27312 0.51587 0.26164 0.0
H1785 H 0.23019 0.50404 0.1077 0.0
H1786 H 0.24181 0.51008 0.14411 0.0
C1787 C 0.27975 0.51917 0.28286 0.0
C1788 C 0.2613 0.49902 0.25916 0.0
H1789 H 0.25288 0.48457 0.15825 0.0
C1790 C 0.25523 0.50255 0.28689 0.0
C1791 C 0.26045 0.49239 0.21227 0.0
C1792 C 0.26677 0.48768 0.18145 0.0
C1793 C 0.24833 0.49989 0.26878 0.0
C1794 C 0.24748 0.49319 0.22193 0.0
C1795 C 0.25355 0.48971 0.19416 0.0
C1796 C 0.24034 0.48978 0.20091 0.0
C1797 C 0.24201 0.50466 0.29961 0.0
C1798 C 0.23568 0.47622 0.22049 0.0
C1799 C 0.22902 0.47277 0.19978 0.0
C1800 C 0.22692 0.4828 0.15906 0.0
C1801 C 0.23164 0.49618 0.13926 0.0
C1802 C 0.23828 0.49965 0.16 0.0
H1803 H 0.24352 0.51419 0.32937 0.0
H1804 H 0.23773 0.51168 0.27875 0.0
H1805 H 0.23981 0.4913 0.31481 0.0
H1806 H 0.23724 0.46804 0.25126 0.0
H1807 H 0.22564 0.46185 0.21488 0.0
H1808 H 0.77506 0.21163 0.8661 0.0
H1809 H 0.76361 0.21897 0.90311 0.0
H1810 H 0.77426 0.25504 0.00447 0.0
H1811 H 0.78567 0.2485 0.96633 0.0
H1812 H 0.759 0.21253 0.99372 0.0
H1813 H 0.75881 0.2901 0.95401 0.0
H1814 H 0.76502 0.27381 0.92672 0.0
H1815 H 0.76655 0.28227 0.98589 0.0
C1816 C 0.77497 0.22117 0.89623 0.0
C1817 C 0.78132 0.22919 0.9137 0.0
C1818 C 0.76842 0.2253 0.91743 0.0
C1819 C 0.76806 0.23769 0.95628 0.0
C1820 C 0.77439 0.24563 0.97412 0.0
H1821 H 0.73324 0.2766 0.13435 0.0
H1822 H 0.74485 0.26983 0.0983 0.0
C1823 C 0.78095 0.24155 0.9528 0.0
C1824 C 0.76106 0.2421 0.97819 0.0
H1825 H 0.74961 0.27859 0.00409 0.0
C1826 C 0.75693 0.22697 0.99584 0.0
C1827 C 0.75837 0.26095 0.98086 0.0
C1828 C 0.76238 0.27771 0.96048 0.0
C1829 C 0.75024 0.23018 0.01667 0.0
C1830 C 0.74757 0.24902 0.01938 0.0
C1831 C 0.75169 0.26417 0.00194 0.0
C1832 C 0.74051 0.25329 0.0405 0.0
C1833 C 0.74615 0.21345 0.03638 0.0
C1834 C 0.73423 0.24639 0.01964 0.0
C1835 C 0.72759 0.25027 0.0401 0.0
C1836 C 0.72712 0.26125 0.08158 0.0
C1837 C 0.73343 0.26817 0.10226 0.0
C1838 C 0.74006 0.26436 0.0817 0.0
H1839 H 0.7496 0.20072 0.04129 0.0
H1840 H 0.74367 0.21715 0.07085 0.0
H1841 H 0.74181 0.20957 0.01145 0.0
H1842 H 0.73446 0.23794 0.98762 0.0
H1843 H 0.72286 0.24426 0.02405 0.0
H1844 H 0.02509 0.28088 0.61917 0.0
H1845 H 0.01368 0.27414 0.65747 0.0
H1846 H 0.02402 0.23381 0.74993 0.0
H1847 H 0.03543 0.24033 0.71152 0.0
H1848 H 0.00661 0.23943 0.66338 0.0
H1849 H 0.01284 0.26735 0.84243 0.0
H1850 H 0.01822 0.27284 0.79132 0.0
H1851 H 0.01911 0.25016 0.82041 0.0
C1852 C 0.02495 0.27067 0.64792 0.0
C1853 C 0.03122 0.26151 0.66307 0.0
C1854 C 0.01842 0.26685 0.66976 0.0
C1855 C 0.01802 0.25375 0.70715 0.0
C1856 C 0.02424 0.24438 0.72205 0.0
H1857 H 0.9833 0.20888 0.87663 0.0
H1858 H 0.99477 0.21572 0.83914 0.0
C1859 C 0.03079 0.24823 0.70022 0.0
C1860 C 0.01102 0.24939 0.72919 0.0
H1861 H 1.00193 0.25059 0.83376 0.0
C1862 C 0.00557 0.24194 0.70059 0.0
C1863 C 0.00969 0.25265 0.77775 0.0
C1864 C 0.01524 0.26135 0.80978 0.0
C1865 C 0.99885 0.23738 0.71939 0.0
C1866 C 0.99752 0.24066 0.76793 0.0
C1867 C 1.00297 0.24808 0.79655 0.0
C1868 C 0.99051 0.23637 0.78983 0.0
C1869 C 0.99329 0.22871 0.68735 0.0
C1870 C 0.98431 0.24589 0.77494 0.0
C1871 C 0.97774 0.242 0.79631 0.0
C1872 C 0.97725 0.22851 0.83296 0.0
C1873 C 0.98349 0.21924 0.84823 0.0
C1874 C 0.99005 0.22312 0.82686 0.0
H1875 H 0.9957 0.22273 0.65465 0.0
H1876 H 0.99032 0.2172 0.70578 0.0
H1877 H 0.98942 0.2399 0.67682 0.0
H1878 H 0.98458 0.25658 0.74734 0.0
H1879 H 0.97312 0.25 0.78499 0.0
H1880 H 0.77736 0.48905 0.89044 0.0
H1881 H 0.76582 0.4832 0.85284 0.0
H1882 H 0.77102 0.52375 0.74349 0.0
H1883 H 0.78254 0.52978 0.78106 0.0
H1884 H 0.75495 0.50901 0.83509 0.0
H1885 H 0.76473 0.47698 0.66772 0.0
H1886 H 0.77035 0.47982 0.71905 0.0
H1887 H 0.76853 0.49986 0.68126 0.0
C1888 C 0.77607 0.49663 0.85817 0.0
C1889 C 0.78095 0.50953 0.8381 0.0
C1890 C 0.76947 0.49326 0.83675 0.0
C1891 C 0.76761 0.50275 0.79487 0.0
C1892 C 0.77243 0.51585 0.77505 0.0
H1893 H 0.73006 0.50426 0.61622 0.0
H1894 H 0.74154 0.51017 0.65459 0.0
C1895 C 0.77904 0.51921 0.79645 0.0
C1896 C 0.76052 0.4994 0.77296 0.0
H1897 H 0.75238 0.484 0.67193 0.0
C1898 C 0.75438 0.50346 0.79949 0.0
C1899 C 0.7598 0.49217 0.72651 0.0
C1900 C 0.76619 0.48678 0.69704 0.0
C1901 C 0.74753 0.50081 0.78052 0.0
C1902 C 0.7468 0.49362 0.73404 0.0
C1903 C 0.75295 0.48954 0.70754 0.0
C1904 C 0.73972 0.49036 0.71199 0.0
C1905 C 0.74112 0.50616 0.80999 0.0
C1906 C 0.73491 0.47714 0.73131 0.0
C1907 C 0.72833 0.47374 0.70943 0.0
C1908 C 0.72646 0.48351 0.66783 0.0
C1909 C 0.73133 0.4966 0.64841 0.0
C1910 C 0.73788 0.5 0.67028 0.0
H1911 H 0.74259 0.51581 0.83962 0.0
H1912 H 0.73699 0.51326 0.78804 0.0
H1913 H 0.73876 0.49303 0.82532 0.0
H1914 H 0.7363 0.46914 0.76275 0.0
H1915 H 0.72484 0.46303 0.72434 0.0
H1916 H 0.03267 0.961 0.52579 0.0
H1917 H 0.02117 0.96697 0.48798 0.0
H1918 H 0.01553 0.00573 0.60029 0.0
H1919 H 0.02708 4e-05 0.63801 0.0
H1920 H 0.00489 0.97874 0.5789 0.0
H1921 H 0.01465 0.01523 0.41695 0.0
H1922 H 0.01873 0.99253 0.42887 0.0
H1923 H 0.02014 0.01211 0.46882 0.0
C1924 C 0.02909 0.9712 0.54179 0.0
C1925 C 0.03088 0.98044 0.58429 0.0
C1926 C 0.02248 0.9745 0.52028 0.0
C1927 C 0.01754 0.98705 0.54091 0.0
C1928 C 0.01928 -0.00391 0.58361 0.0
H1929 H 0.9745 0.02515 0.47427 0.0
H1930 H 0.98592 0.01849 0.51253 0.0
C1931 C 0.02588 0.99282 0.60509 0.0
C1932 C 0.01047 0.99032 0.51887 0.0
H1933 H 1.00235 0.00764 0.41969 0.0
C1934 C 0.00433 0.98512 0.54415 0.0
C1935 C 0.00975 -0.0014 0.47352 0.0
C1936 C 0.01615 0.00511 0.44551 0.0
C1937 C 0.99748 0.98769 0.52497 0.0
C1938 C 0.99677 -0.00397 0.47966 0.0
C1939 C 1.00291 0.00122 0.45439 0.0
C1940 C 0.98969 -0.00051 0.45765 0.0
C1941 C 0.9911 0.98105 0.55295 0.0
C1942 C 0.98806 0.99131 0.41368 0.0
C1943 C 0.98153 0.99508 0.39179 0.0
C1944 C 0.97648 0.00705 0.41348 0.0
C1945 C 0.97814 0.0153 0.45744 0.0
C1946 C 0.98469 0.01158 0.47927 0.0
H1947 H 0.99261 0.97048 0.58046 0.0
H1948 H 0.98864 0.99347 0.57099 0.0
H1949 H 0.98702 0.97453 0.52948 0.0
H1950 H 0.99186 0.98205 0.39619 0.0
H1951 H 0.98044 0.98862 0.35776 0.0
H1952 H 0.23012 0.23827 0.63736 0.0
H1953 H 0.24169 0.23191 0.60071 0.0
H1954 H 0.23704 0.27311 0.49174 0.0
H1955 H 0.22546 0.27959 0.52833 0.0
H1956 H 0.2427 0.23906 0.45679 0.0
H1957 H 0.25906 0.26681 0.60514 0.0
H1958 H 0.25277 0.24878 0.62222 0.0
H1959 H 0.24962 0.27135 0.60035 0.0
C1960 C 0.23156 0.24597 0.60556 0.0
C1961 C 0.22683 0.25923 0.58536 0.0
C1962 C 0.23819 0.24239 0.5848 0.0
C1963 C 0.24026 0.25222 0.54385 0.0
C1964 C 0.23553 0.26535 0.52332 0.0
H1965 H 0.2778 0.25392 0.36495 0.0
H1966 H 0.26624 0.25943 0.4024 0.0
C1967 C 0.22888 0.2689 0.54402 0.0
C1968 C 0.24735 0.24866 0.52219 0.0
H1969 H 0.26526 0.25065 0.54386 0.0
C1970 C 0.24763 0.24167 0.47573 0.0
C1971 C 0.25378 0.25203 0.54704 0.0
C1972 C 0.25382 0.26032 0.59629 0.0
C1973 C 0.25417 0.23771 0.45366 0.0
C1974 C 0.2606 0.2411 0.47849 0.0
C1975 C 0.26032 0.24801 0.525 0.0
C1976 C 0.26767 0.23791 0.45641 0.0
C1977 C 0.25415 0.22961 0.40422 0.0
C1978 C 0.27238 0.22428 0.475 0.0
C1979 C 0.27902 0.22111 0.45369 0.0
C1980 C 0.28109 0.23174 0.41381 0.0
C1981 C 0.27636 0.24548 0.3956 0.0
C1982 C 0.26974 0.24862 0.41684 0.0
H1983 H 0.2489 0.22336 0.39486 0.0
H1984 H 0.25533 0.2412 0.37864 0.0
H1985 H 0.25831 0.21844 0.40023 0.0
H1986 H 0.27087 0.21584 0.50548 0.0
H1987 H 0.28241 0.21 0.46775 0.0
H1988 H 0.27701 0.98989 0.88487 0.0
H1989 H 0.26547 0.98377 0.84752 0.0
H1990 H 0.27099 0.02192 0.73366 0.0
H1991 H 0.2825 0.02828 0.77105 0.0
H1992 H 0.2548 0.01029 0.82585 0.0
H1993 H 0.26445 0.97349 0.66415 0.0
H1994 H 0.27 0.97697 0.71557 0.0
H1995 H 0.26848 -0.00369 0.6751 0.0
C1996 C 0.27579 -0.00313 0.85167 0.0
C1997 C 0.28075 0.0092 0.83034 0.0
C1998 C 0.26919 0.99335 0.8304 0.0
C1999 C 0.26742 0.00211 0.7874 0.0
C2000 C 0.27233 0.0146 0.7662 0.0
H2001 H 0.23015 0.00064 0.6062 0.0
H2002 H 0.24162 0.00702 0.64413 0.0
C2003 C 0.27893 0.01813 0.78749 0.0
C2004 C 0.26033 -0.00133 0.76571 0.0
H2005 H 0.25215 0.98115 0.667 0.0
C2006 C 0.25421 0.00385 0.7912 0.0
C2007 C 0.25959 0.99029 0.72049 0.0
C2008 C 0.26597 0.98377 0.6923 0.0
C2009 C 0.24735 0.00119 0.77232 0.0
C2010 C 0.2466 0.99279 0.72709 0.0
C2011 C 0.25273 0.9876 0.70164 0.0
C2012 C 0.23952 0.98936 0.70529 0.0
C2013 C 0.24098 0.00779 0.80048 0.0
C2014 C 0.23454 0.97719 0.72691 0.0
C2015 C 0.22796 0.97356 0.70534 0.0
C2016 C 0.22625 0.982 0.66168 0.0
C2017 C 0.23128 0.99403 0.63999 0.0
C2018 C 0.23784 -0.00231 0.6616 0.0
H2019 H 0.24251 0.01829 0.82813 0.0
H2020 H 0.2369 0.01438 0.77714 0.0
H2021 H 0.23852 -0.00467 0.81834 0.0
H2022 H 0.2358 0.97017 0.75997 0.0
H2023 H 0.22434 0.96366 0.72214 0.0
H2024 H 0.72221 0.74039 0.5329 0.0
H2025 H 0.73369 0.73338 0.49581 0.0
H2026 H 0.744 0.77348 0.58905 0.0
H2027 H 0.73253 0.78072 0.62598 0.0
H2028 H 0.74341 0.75794 0.44986 0.0
H2029 H 0.75554 0.72454 0.60855 0.0
H2030 H 0.74609 0.7289 0.60351 0.0
H2031 H 0.75205 0.74804 0.61865 0.0
C2032 C 0.72687 0.74804 0.54487 0.0
C2033 C 0.72642 0.76136 0.58191 0.0
C2034 C 0.73346 0.74385 0.52396 0.0
C2035 C 0.73971 0.75273 0.54008 0.0
C2036 C 0.73926 0.76618 0.57666 0.0
H2037 H 0.78445 0.7492 0.46166 0.0
H2038 H 0.77288 0.75593 0.49786 0.0
C2039 C 0.7327 0.77035 0.59757 0.0
C2040 C 0.74671 0.74806 0.51851 0.0
H2041 H 0.76329 0.73065 0.54386 0.0
C2042 C 0.74775 0.75187 0.4703 0.0
C2043 C 0.75236 0.74017 0.54533 0.0
C2044 C 0.75146 0.735 0.59678 0.0
C2045 C 0.75434 0.74837 0.44836 0.0
C2046 C 0.76 0.74056 0.47523 0.0
C2047 C 0.75895 0.7367 0.52341 0.0
C2048 C 0.76703 0.73613 0.45389 0.0
C2049 C 0.75524 0.75348 0.39688 0.0
C2050 C 0.76759 0.72254 0.41768 0.0
C2051 C 0.77421 0.71849 0.39733 0.0
C2052 C 0.78042 0.72776 0.41316 0.0
C2053 C 0.77984 0.7413 0.44965 0.0
C2054 C 0.77321 0.74535 0.47004 0.0
H2055 H 0.75109 0.76367 0.38476 0.0
H2056 H 0.76057 0.75985 0.39032 0.0
H2057 H 0.75478 0.74034 0.37518 0.0
H2058 H 0.76291 0.71501 0.40524 0.0
H2059 H 0.77447 0.70798 0.36929 0.0
H2060 H 0.78507 0.9928 0.27643 0.0
H2061 H 0.77348 0.98721 0.23934 0.0
H2062 H 0.76326 0.02021 0.3487 0.0
H2063 H 0.77486 0.0265 0.38495 0.0
H2064 H 0.76164 0.96935 0.27768 0.0
H2065 H 0.75516 0.04404 0.22862 0.0
H2066 H 0.76403 0.03666 0.24541 0.0
H2067 H 0.75737 0.04095 0.2899 0.0
C2068 C 0.78039 -0.00064 0.29182 0.0
C2069 C 0.78092 0.01062 0.33283 0.0
C2070 C 0.77376 -0.00407 0.27091 0.0
C2071 C 0.76752 0.00363 0.29066 0.0
C2072 C 0.76802 0.01453 0.33214 0.0
H2073 H 0.72238 -0.00295 0.22358 0.0
H2074 H 0.73397 0.00255 0.2608 0.0
C2075 C 0.77465 0.01799 0.353 0.0
C2076 C 0.76048 -0.00029 0.26888 0.0
H2077 H 0.74584 0.0213 0.22087 0.0
C2078 C 0.7582 0.98069 0.265 0.0
C2079 C 0.75599 0.01454 0.25251 0.0
C2080 C 0.75827 0.03519 0.25385 0.0
C2081 C 0.7515 0.97612 0.24593 0.0
C2082 C 0.74701 0.99095 0.22968 0.0
C2083 C 0.74928 0.00997 0.23354 0.0
C2084 C 0.73996 0.98703 0.20792 0.0
C2085 C 0.74922 0.95548 0.24421 0.0
C2086 C 0.73949 0.97666 0.16561 0.0
C2087 C 0.73287 0.97334 0.14455 0.0
C2088 C 0.72658 0.98026 0.1655 0.0
C2089 C 0.72708 0.99089 0.20751 0.0
C2090 C 0.73371 0.99425 0.22851 0.0
H2091 H 0.75241 0.94648 0.26866 0.0
H2092 H 0.74349 0.95397 0.25344 0.0
H2093 H 0.74999 0.94993 0.20782 0.0
H2094 H 0.74426 0.97134 0.14853 0.0
H2095 H 0.73266 0.9653 0.11187 0.0
H2096 H 0.52697 0.49723 0.6412 0.0
H2097 H 0.51547 0.50362 0.60363 0.0
H2098 H 0.52171 0.46961 0.48352 0.0
H2099 H 0.5332 0.46301 0.52105 0.0
H2100 H 0.51532 0.50467 0.4591 0.0
H2101 H 0.49907 0.46542 0.59118 0.0
H2102 H 0.50484 0.48322 0.61618 0.0
H2103 H 0.50863 0.46279 0.58706 0.0
C2104 C 0.5259 0.49113 0.60673 0.0
C2105 C 0.53105 0.47985 0.58383 0.0
C2106 C 0.51931 0.49472 0.58543 0.0
C2107 C 0.5177 0.4869 0.54106 0.0
C2108 C 0.52285 0.47581 0.51778 0.0
H2109 H 0.48106 0.49126 0.35299 0.0
H2110 H 0.49255 0.48482 0.39059 0.0
C2111 C 0.52946 0.47223 0.53907 0.0
C2112 C 0.51064 0.49038 0.51888 0.0
H2113 H 0.49274 0.48396 0.53482 0.0
C2114 C 0.51038 0.50006 0.47549 0.0
C2115 C 0.50421 0.48439 0.54044 0.0
C2116 C 0.50417 0.47323 0.58607 0.0
C2117 C 0.50385 0.50423 0.45346 0.0
C2118 C 0.49742 0.49825 0.47504 0.0
C2119 C 0.49768 0.48856 0.51843 0.0
C2120 C 0.49037 0.50176 0.45288 0.0
C2121 C 0.50389 0.51537 0.4078 0.0
C2122 C 0.48524 0.51299 0.47598 0.0
C2123 C 0.47865 0.51663 0.45465 0.0
C2124 C 0.47703 0.50889 0.41005 0.0
C2125 C 0.48215 0.49746 0.38734 0.0
C2126 C 0.48873 0.49382 0.40867 0.0
H2127 H 0.509 0.52309 0.40252 0.0
H2128 H 0.50318 0.50537 0.37775 0.0
H2129 H 0.49945 0.52587 0.40692 0.0
H2130 H 0.48641 0.51928 0.5101 0.0
H2131 H 0.47493 0.52597 0.47251 0.0
H2132 H 0.52668 0.74133 0.60757 0.0
H2133 H 0.51516 0.73553 0.64538 0.0
H2134 H 0.52155 0.7701 0.76415 0.0
H2135 H 0.53299 0.77653 0.72583 0.0
H2136 H 0.51207 0.71883 0.73277 0.0
H2137 H 0.5025 0.79377 0.72499 0.0
H2138 H 0.51009 0.78551 0.69159 0.0
H2139 H 0.51097 0.79073 0.75353 0.0
C2140 C 0.52564 0.7477 0.64178 0.0
C2141 C 0.53081 0.75915 0.66398 0.0
C2142 C 0.51906 0.74432 0.66337 0.0
C2143 C 0.51747 0.75253 0.70735 0.0
C2144 C 0.52264 0.76381 0.72993 0.0
H2145 H 0.48048 0.74854 0.89134 0.0
H2146 H 0.49208 0.75455 0.85464 0.0
C2147 C 0.52923 0.7672 0.70832 0.0
C2148 C 0.5104 0.74919 0.72942 0.0
H2149 H 0.49529 0.77179 0.76706 0.0
C2150 C 0.50839 0.73039 0.74016 0.0
C2151 C 0.50561 0.76431 0.73895 0.0
C2152 C 0.50735 0.78471 0.72633 0.0
C2153 C 0.50175 0.72632 0.76087 0.0
C2154 C 0.49696 0.74143 0.77032 0.0
C2155 C 0.49898 0.76023 0.75971 0.0
C2156 C 0.48985 0.73804 0.79174 0.0
C2157 C 0.49999 0.70592 0.77336 0.0
C2158 C 0.48471 0.72697 0.76825 0.0
C2159 C 0.47807 0.7235 0.78917 0.0
C2160 C 0.47643 0.73121 0.83375 0.0
C2161 C 0.48157 0.74244 0.85691 0.0
C2162 C 0.4882 0.74593 0.83597 0.0
H2163 H 0.50484 0.69683 0.77473 0.0
H2164 H 0.49724 0.7051 0.80806 0.0
H2165 H 0.49638 0.69993 0.74609 0.0
H2166 H 0.48585 0.72092 0.73385 0.0
H2167 H 0.47433 0.71435 0.77093 0.0
H2168 H 0.48289 0.21321 0.38086 0.0
H2169 H 0.49439 0.21988 0.34348 0.0
H2170 H 0.4838 0.25324 0.23632 0.0
H2171 H 0.47233 0.24719 0.27439 0.0
H2172 H 0.49897 0.2116 0.25106 0.0
H2173 H 0.49919 0.28958 0.28626 0.0
H2174 H 0.49312 0.27347 0.31559 0.0
H2175 H 0.49139 0.28108 0.25602 0.0
C2176 C 0.48301 0.22197 0.34931 0.0
C2177 C 0.47667 0.22937 0.33013 0.0
C2178 C 0.48958 0.22572 0.32795 0.0
C2179 C 0.48996 0.23717 0.28735 0.0
C2180 C 0.48364 0.24452 0.26792 0.0
H2181 H 0.52483 0.27632 0.1103 0.0
H2182 H 0.51323 0.26952 0.14621 0.0
C2183 C 0.47706 0.24076 0.28928 0.0
C2184 C 0.49697 0.2413 0.26535 0.0
H2185 H 0.50845 0.27748 0.23785 0.0
C2186 C 0.50106 0.22599 0.24828 0.0
C2187 C 0.49968 0.26009 0.26178 0.0
C2188 C 0.49566 0.27701 0.28123 0.0
C2189 C 0.50773 0.229 0.22703 0.0
C2190 C 0.51045 0.24779 0.22359 0.0
C2191 C 0.50636 0.2631 0.24056 0.0
C2192 C 0.51751 0.2519 0.20222 0.0
C2193 C 0.51175 0.21208 0.20755 0.0
C2194 C 0.52377 0.24439 0.22205 0.0
C2195 C 0.53041 0.24822 0.20153 0.0
C2196 C 0.53091 0.25985 0.16115 0.0
C2197 C 0.52462 0.26738 0.14151 0.0
C2198 C 0.518 0.26355 0.16203 0.0
H2199 H 0.50819 0.1996 0.20191 0.0
H2200 H 0.51437 0.21569 0.1735 0.0
H2201 H 0.51595 0.20781 0.23307 0.0
H2202 H 0.52353 0.23553 0.25337 0.0
H2203 H 0.5351 0.24168 0.21672 0.0
H2204 H 0.4725 0.99164 0.96498 0.0
H2205 H 0.4841 0.98568 0.00178 0.0
H2206 H 0.49417 0.02234 0.89921 0.0
H2207 H 0.48257 0.0288 0.86303 0.0
H2208 H 0.49633 0.96984 0.9576 0.0
H2209 H 0.5017 0.04267 0.0266 0.0
H2210 H 0.49291 0.03496 0.00881 0.0
H2211 H 0.49939 0.04161 0.96501 0.0
C2212 C 0.47714 -0.00114 0.95105 0.0
C2213 C 0.47658 0.01112 0.91188 0.0
C2214 C 0.48378 -0.00475 0.97176 0.0
C2215 C 0.48997 0.00385 0.95376 0.0
C2216 C 0.48944 0.01589 0.91431 0.0
H2217 H 0.53488 -0.00062 0.03096 0.0
H2218 H 0.52347 0.00551 0.99202 0.0
C2219 C 0.48282 0.01946 0.89351 0.0
C2220 C 0.49702 -0.00032 0.97513 0.0
H2221 H 0.51116 0.02035 0.03141 0.0
C2222 C 0.49957 0.98085 0.97393 0.0
C2223 C 0.50124 0.01411 0.99609 0.0
C2224 C 0.49867 0.03446 -0.00032 0.0
C2225 C 0.50627 0.9761 0.99264 0.0
C2226 C 0.51048 0.9905 0.01397 0.0
C2227 C 0.50794 0.00935 0.01496 0.0
C2228 C 0.51745 0.98623 0.03646 0.0
C2229 C 0.50886 0.95577 0.98853 0.0
C2230 C 0.51784 0.97353 0.07469 0.0
C2231 C 0.52437 0.96979 0.09655 0.0
C2232 C 0.53066 0.97869 0.0807 0.0
C2233 C 0.53023 0.99168 0.0429 0.0
C2234 C 0.52368 -0.0046 0.02098 0.0
H2235 H 0.50602 0.94793 0.96001 0.0
H2236 H 0.51467 0.95525 0.98134 0.0
H2237 H 0.50783 0.94821 0.02232 0.0
H2238 H 0.51308 0.96666 0.08805 0.0
H2239 H 0.5245 0.95988 0.12594 0.0
H2240 H 0.05543 0.42758 0.23468 0.0
H2241 H 0.055 0.40282 0.29563 0.0
H2242 H 0.07796 0.40246 0.30242 0.0
H2243 H 0.07848 0.42728 0.24209 0.0
H2244 H 0.06114 0.36629 0.28787 0.0
H2245 H 0.07204 0.40587 0.44158 0.0
H2246 H 0.06871 0.41772 0.38936 0.0
H2247 H 0.07749 0.40741 0.38953 0.0
C2248 C 0.06039 0.42245 0.24963 0.0
C2249 C 0.06699 0.42943 0.23348 0.0
C2250 C 0.06013 0.40827 0.28433 0.0
C2251 C 0.06644 0.40097 0.30374 0.0
C2252 C 0.07302 0.40816 0.28844 0.0
H2253 H 0.07865 0.3118 0.49659 0.0
H2254 H 0.07813 0.33642 0.43556 0.0
C2255 C 0.0733 0.4223 0.25378 0.0
C2256 C 0.0662 0.38506 0.33798 0.0
H2257 H 0.07137 0.37206 0.44898 0.0
C2258 C 0.06332 0.36755 0.32327 0.0
C2259 C 0.06906 0.38682 0.384 0.0
C2260 C 0.07194 0.40551 0.40231 0.0
C2261 C 0.0634 0.35154 0.35304 0.0
C2262 C 0.06636 0.35323 0.39878 0.0
C2263 C 0.06915 0.37081 0.41369 0.0
C2264 C 0.06662 0.337 0.43207 0.0
C2265 C 0.0605 0.33283 0.33492 0.0
C2266 C 0.0603 0.32901 0.44971 0.0
C2267 C 0.06057 0.31489 0.48454 0.0
C2268 C 0.06716 0.30864 0.50255 0.0
C2269 C 0.07348 0.31627 0.48357 0.0
C2270 C 0.0732 0.33037 0.44878 0.0
H2271 H 0.06 0.33277 0.29578 0.0
H2272 H 0.06398 0.32077 0.34574 0.0
H2273 H 0.05513 0.33039 0.3502 0.0
H2274 H 0.05516 0.33415 0.43774 0.0
H2275 H 0.0556 0.30938 0.49843 0.0
H2276 H 0.20168 0.81391 0.23953 0.0
H2277 H 0.20179 0.83914 0.29924 0.0
H2278 H 0.17881 0.84064 0.29774 0.0
H2279 H 0.17862 0.81533 0.23847 0.0
H2280 H 0.19586 0.87604 0.28768 0.0
H2281 H 0.18373 0.83751 0.43919 0.0
H2282 H 0.18741 0.8253 0.38855 0.0
H2283 H 0.17872 0.83601 0.38519 0.0
C2284 C 0.19664 0.8194 0.25234 0.0
C2285 C 0.19014 0.81257 0.23421 0.0
C2286 C 0.19672 0.83386 0.28634 0.0
C2287 C 0.19031 0.84161 0.30307 0.0
C2288 C 0.18381 0.83461 0.28578 0.0
H2289 H 0.17858 0.93125 0.49741 0.0
H2290 H 0.17879 0.90706 0.43529 0.0
C2291 C 0.18372 0.82018 0.25177 0.0
C2292 C 0.19041 0.85768 0.33688 0.0
H2293 H 0.18495 0.87109 0.44694 0.0
C2294 C 0.19352 0.87497 0.32264 0.0
C2295 C 0.18732 0.85618 0.38229 0.0
C2296 C 0.18416 0.83771 0.40001 0.0
C2297 C 0.19349 0.89099 0.35238 0.0
C2298 C 0.19036 0.88951 0.3977 0.0
C2299 C 0.1873 0.87218 0.412 0.0
C2300 C 0.1903 0.90564 0.43139 0.0
C2301 C 0.19665 0.90946 0.3347 0.0
C2302 C 0.19671 0.91304 0.44917 0.0
C2303 C 0.19661 0.92693 0.4846 0.0
C2304 C 0.1901 0.93351 0.50316 0.0
C2305 C 0.18369 0.9265 0.48402 0.0
C2306 C 0.18379 0.91265 0.44857 0.0
H2307 H 0.19712 0.90963 0.29554 0.0
H2308 H 0.19338 0.92185 0.34597 0.0
H2309 H 0.20208 0.91121 0.34975 0.0
H2310 H 0.20178 0.90758 0.43692 0.0
H2311 H 0.20165 0.93195 0.49862 0.0
H2312 H 0.05516 0.80986 0.00453 0.0
H2313 H 0.05473 0.83397 0.94214 0.0
H2314 H 0.0777 0.83624 0.94004 0.0
H2315 H 0.07822 0.81203 0.002 0.0
H2316 H 0.06037 0.87092 0.95024 0.0
H2317 H 0.07248 0.83186 0.79971 0.0
H2318 H 0.06907 0.81988 0.85152 0.0
H2319 H 0.07769 0.83108 0.85295 0.0
C2320 C 0.06013 0.81525 0.99033 0.0
C2321 C 0.06673 0.80902 0.00834 0.0
C2322 C 0.05987 0.82905 0.95476 0.0
C2323 C 0.06618 0.83673 0.9363 0.0
C2324 C 0.07277 0.83023 0.95329 0.0
H2325 H 0.07808 0.92677 0.74554 0.0
H2326 H 0.07755 0.90168 0.80532 0.0
C2327 C 0.07305 0.81644 0.98887 0.0
C2328 C 0.06589 0.85247 0.90158 0.0
H2329 H 0.07131 0.86553 0.79114 0.0
C2330 C 0.0627 0.86972 0.91526 0.0
C2331 C 0.06895 0.85081 0.85613 0.0
C2332 C 0.07219 0.83236 0.83893 0.0
C2333 C 0.06266 0.8856 0.88508 0.0
C2334 C 0.06582 0.88402 0.8399 0.0
C2335 C 0.06893 0.86669 0.82598 0.0
C2336 C 0.06604 0.90022 0.80648 0.0
C2337 C 0.05944 0.90408 0.90224 0.0
C2338 C 0.05972 0.90782 0.78779 0.0
C2339 C 0.05999 0.92222 0.75368 0.0
C2340 C 0.06659 0.92915 0.73744 0.0
C2341 C 0.07291 0.92178 0.75719 0.0
C2342 C 0.07262 0.90741 0.79127 0.0
H2343 H 0.05877 0.90422 0.94127 0.0
H2344 H 0.0628 0.91643 0.89183 0.0
H2345 H 0.05411 0.90595 0.88593 0.0
H2346 H 0.05459 0.90224 0.79859 0.0
H2347 H 0.05503 0.92751 0.73909 0.0
H2348 H 0.20266 0.31256 0.73852 0.0
H2349 H 0.20316 0.33719 0.79969 0.0
H2350 H 0.18019 0.33887 0.80419 0.0
H2351 H 0.17961 0.31417 0.74355 0.0
H2352 H 0.19732 0.37409 0.79174 0.0
H2353 H 0.18579 0.33484 0.94395 0.0
H2354 H 0.18914 0.32291 0.89191 0.0
H2355 H 0.18045 0.33372 0.89133 0.0
C2356 C 0.19771 0.31795 0.75298 0.0
C2357 C 0.19109 0.31137 0.73611 0.0
C2358 C 0.19801 0.33206 0.78783 0.0
C2359 C 0.19171 0.33969 0.80668 0.0
C2360 C 0.18511 0.33291 0.79065 0.0
H2361 H 0.17967 0.42915 -0.00149 0.0
H2362 H 0.18023 0.40444 0.93778 0.0
C2363 C 0.18479 0.31884 0.75582 0.0
C2364 C 0.19201 0.35552 0.84114 0.0
H2365 H 0.18674 0.36859 0.95187 0.0
C2366 C 0.19507 0.37288 0.82694 0.0
C2367 C 0.18906 0.35383 0.8869 0.0
C2368 C 0.18598 0.33527 0.9047 0.0
C2369 C 0.19507 0.38883 0.85691 0.0
C2370 C 0.192 0.38722 0.90237 0.0
C2371 C 0.18904 0.36978 0.91681 0.0
C2372 C 0.19175 0.40345 0.93568 0.0
C2373 C 0.19814 0.40741 0.83927 0.0
C2374 C 0.19806 0.41124 0.95404 0.0
C2375 C 0.19777 0.42542 0.98872 0.0
C2376 C 0.19116 0.43193 0.00586 0.0
C2377 C 0.18485 0.42447 0.98621 0.0
C2378 C 0.18516 0.41032 0.95157 0.0
H2379 H 0.19876 0.40749 0.8002 0.0
H2380 H 0.19472 0.41963 0.84975 0.0
H2381 H 0.20349 0.40957 0.85522 0.0
H2382 H 0.2032 0.40591 0.94271 0.0
H2383 H 0.20272 0.43079 0.00317 0.0
H2384 H 0.95259 0.56098 0.75604 0.0
H2385 H 0.95317 0.58646 0.69699 0.0
H2386 H 0.93021 0.58834 0.6915 0.0
H2387 H 0.92954 0.56304 0.75067 0.0
H2388 H 0.94719 0.58909 0.60375 0.0
H2389 H 0.93619 0.64347 0.72651 0.0
H2390 H 0.9396 0.62077 0.74658 0.0
H2391 H 0.93085 0.62231 0.72095 0.0
C2392 C 0.94766 0.56668 0.74198 0.0
C2393 C 0.94101 0.5601 0.75849 0.0
C2394 C 0.94801 0.58124 0.7083 0.0
C2395 C 0.94173 0.58949 0.69079 0.0
C2396 C 0.93511 0.58238 0.70545 0.0
H2397 H 0.92952 0.67684 0.49576 0.0
H2398 H 0.93037 0.65223 0.55655 0.0
C2399 C 0.93474 0.56784 0.73906 0.0
C2400 C 0.94208 0.60581 0.65783 0.0
H2401 H 0.93725 0.65251 0.64581 0.0
C2402 C 0.94508 0.60302 0.61295 0.0
C2403 C 0.93935 0.62393 0.67026 0.0
C2404 C 0.93637 0.62792 0.71884 0.0
C2405 C 0.94517 0.61775 0.57937 0.0
C2406 C 0.9423 0.63577 0.5915 0.0
C2407 C 0.93944 0.63865 0.63672 0.0
C2408 C 0.9419 0.65154 0.55694 0.0
C2409 C 0.94811 0.61375 0.53069 0.0
C2410 C 0.94812 0.65967 0.53813 0.0
C2411 C 0.94766 0.67377 0.50333 0.0
C2412 C 0.94097 0.67999 0.48692 0.0
C2413 C 0.93476 0.67233 0.50738 0.0
C2414 C 0.93523 0.65826 0.54212 0.0
H2415 H 0.94872 0.5982 0.52405 0.0
H2416 H 0.94458 0.61987 0.50301 0.0
H2417 H 0.95343 0.6205 0.52723 0.0
H2418 H 0.95332 0.65491 0.54988 0.0
H2419 H 0.95255 0.67944 0.48855 0.0
H2420 H 0.82866 0.1774 0.74843 0.0
H2421 H 0.82808 0.15266 0.68774 0.0
H2422 H 0.80511 0.15512 0.69048 0.0
H2423 H 0.80561 0.18002 0.75086 0.0
H2424 H 0.82125 0.11707 0.70173 0.0
H2425 H 0.80991 0.15632 0.54833 0.0
H2426 H 0.81395 0.16833 0.59808 0.0
H2427 H 0.80508 0.15884 0.60285 0.0
C2428 C 0.82348 0.17294 0.73562 0.0
C2429 C 0.81718 0.18066 0.75466 0.0
C2430 C 0.82316 0.15877 0.70102 0.0
C2431 C 0.81656 0.15217 0.68456 0.0
C2432 C 0.81026 0.16024 0.70226 0.0
H2433 H 0.80533 0.0617 0.48696 0.0
H2434 H 0.80488 0.08636 0.54813 0.0
C2435 C 0.81056 0.17442 0.73691 0.0
C2436 C 0.81627 0.1359 0.65141 0.0
H2437 H 0.81106 0.12282 0.54051 0.0
C2438 C 0.81904 0.11831 0.66642 0.0
C2439 C 0.81331 0.13759 0.60566 0.0
C2440 C 0.81044 0.15631 0.58745 0.0
C2441 C 0.81893 0.10228 0.63679 0.0
C2442 C 0.81608 0.10404 0.59074 0.0
C2443 C 0.81322 0.12155 0.57595 0.0
C2444 C 0.81633 0.08812 0.55651 0.0
C2445 C 0.82179 0.08357 0.6552 0.0
C2446 C 0.82291 0.08091 0.54132 0.0
C2447 C 0.82319 0.06682 0.50651 0.0
C2448 C 0.81689 0.05979 0.48597 0.0
C2449 C 0.81028 0.06677 0.50208 0.0
C2450 C 0.81001 0.08089 0.53691 0.0
H2451 H 0.82187 0.08323 0.69447 0.0
H2452 H 0.81856 0.07138 0.64219 0.0
H2453 H 0.82734 0.08165 0.64254 0.0
H2454 H 0.82785 0.08656 0.55544 0.0
H2455 H 0.82837 0.06184 0.49487 0.0
H2456 H 0.95245 0.17823 0.99097 0.0
H2457 H 0.95267 0.15276 0.05002 0.0
H2458 H 0.92968 0.15165 0.05132 0.0
H2459 H 0.92939 0.17693 0.99193 0.0
H2460 H 0.94655 0.15029 0.1414 0.0
H2461 H 0.93529 0.09635 0.01842 0.0
H2462 H 0.93879 0.11895 -0.00159 0.0
H2463 H 0.93004 0.11766 0.02415 0.0
C2464 C 0.94744 0.17271 0.00407 0.0
C2465 C 0.9409 0.17949 0.98631 0.0
C2466 C 0.94757 0.15814 0.03777 0.0
C2467 C 0.94119 0.15009 0.05413 0.0
C2468 C 0.93466 0.15742 0.03824 0.0
H2469 H 0.92939 0.06191 0.25039 0.0
H2470 H 0.92988 0.08674 0.18989 0.0
C2471 C 0.93451 0.17196 0.00454 0.0
C2472 C 0.94136 0.13379 0.08724 0.0
H2473 H 0.93645 0.08712 0.09883 0.0
C2474 C 0.94439 0.13644 0.13209 0.0
C2475 C 0.93855 0.11575 0.07472 0.0
C2476 C 0.93554 0.11188 0.02617 0.0
C2477 C 0.9445 0.12161 0.16541 0.0
C2478 C 0.94161 0.10364 0.15307 0.0
C2479 C 0.93865 0.10094 0.10805 0.0
C2480 C 0.9414 0.08766 0.18707 0.0
C2481 C 0.94752 0.12544 0.21395 0.0
C2482 C 0.94772 0.07957 0.2043 0.0
C2483 C 0.94747 0.06535 0.23886 0.0
C2484 C 0.94088 0.05897 0.25666 0.0
C2485 C 0.93455 0.06655 0.23768 0.0
C2486 C 0.93481 0.08075 0.20311 0.0
H2487 H 0.94809 0.14096 0.22102 0.0
H2488 H 0.94407 0.11909 0.24175 0.0
H2489 H 0.95287 0.1188 0.21672 0.0
H2490 H 0.95285 0.08449 0.19158 0.0
H2491 H 0.95245 0.05975 0.25248 0.0
H2492 H 0.82864 0.67649 0.25831 0.0
H2493 H 0.82838 0.65164 0.19774 0.0
H2494 H 0.80541 0.65372 0.19618 0.0
H2495 H 0.80559 0.67873 0.25624 0.0
H2496 H 0.82176 0.61595 0.20879 0.0
H2497 H 0.81062 0.65554 0.05549 0.0
H2498 H 0.81434 0.66744 0.10645 0.0
H2499 H 0.80551 0.65757 0.10896 0.0
C2500 C 0.82353 0.67191 0.24458 0.0
C2501 C 0.81713 0.67961 0.26219 0.0
C2502 C 0.8234 0.65767 0.21007 0.0
C2503 C 0.81688 0.65097 0.19232 0.0
C2504 C 0.81049 0.65893 0.20888 0.0
H2505 H 0.80552 0.56108 0.99472 0.0
H2506 H 0.80528 0.58553 0.05639 0.0
C2507 C 0.81061 0.67318 0.24337 0.0
C2508 C 0.81675 0.63484 0.1587 0.0
H2509 H 0.81158 0.62194 0.04759 0.0
C2510 C 0.81956 0.61725 0.17345 0.0
C2511 C 0.81383 0.6366 0.11285 0.0
C2512 C 0.81095 0.65534 0.09471 0.0
C2513 C 0.81948 0.60129 0.14359 0.0
C2514 C 0.81661 0.60309 0.09763 0.0
C2515 C 0.81375 0.62063 0.08299 0.0
C2516 C 0.81675 0.58716 0.06341 0.0
C2517 C 0.82237 0.58257 0.16169 0.0
C2518 C 0.82328 0.57992 0.04736 0.0
C2519 C 0.82345 0.56595 0.01221 0.0
C2520 C 0.81707 0.55907 0.99224 0.0
C2521 C 0.81053 0.56603 0.00935 0.0
C2522 C 0.81037 0.58003 0.04449 0.0
H2523 H 0.82257 0.58222 0.20094 0.0
H2524 H 0.81908 0.5704 0.14913 0.0
H2525 H 0.82788 0.58057 0.14825 0.0
H2526 H 0.82826 0.58548 0.06099 0.0
H2527 H 0.82858 0.56096 -0.00019 0.0
H2528 H 0.5787 0.31084 0.00107 0.0
H2529 H 0.57831 0.33582 0.94096 0.0
H2530 H 0.55533 0.33531 0.94528 0.0
H2531 H 0.55563 0.31015 0.00519 0.0
H2532 H 0.56136 0.3374 0.85252 0.0
H2533 H 0.57283 0.39132 0.9748 0.0
H2534 H 0.57799 0.36985 0.96909 0.0
H2535 H 0.56926 0.36884 0.9951 0.0
C2536 C 0.57355 0.31587 0.98897 0.0
C2537 C 0.56719 0.30863 0.00836 0.0
C2538 C 0.57335 0.33022 0.95482 0.0
C2539 C 0.5668 0.33765 0.93961 0.0
C2540 C 0.56044 0.32984 0.95701 0.0
H2541 H 0.55546 0.42806 0.74182 0.0
H2542 H 0.5551 0.40304 0.802 0.0
C2543 C 0.56063 0.31546 0.99119 0.0
C2544 C 0.56661 0.35391 0.90642 0.0
H2545 H 0.57158 0.40051 0.89449 0.0
C2546 C 0.56355 0.35125 0.86168 0.0
C2547 C 0.56945 0.37193 0.91877 0.0
C2548 C 0.57251 0.37579 0.96719 0.0
C2549 C 0.56344 0.36604 0.82828 0.0
C2550 C 0.56637 0.384 0.84045 0.0
C2551 C 0.56935 0.38671 0.88538 0.0
C2552 C 0.56656 0.39999 0.80649 0.0
C2553 C 0.56039 0.3622 0.77982 0.0
C2554 C 0.57313 0.40706 0.79065 0.0
C2555 C 0.57337 0.42143 0.75652 0.0
C2556 C 0.56703 0.42904 0.73777 0.0
C2557 C 0.56045 0.42244 0.75526 0.0
C2558 C 0.56022 0.40806 0.7894 0.0
H2559 H 0.55984 0.34667 0.77276 0.0
H2560 H 0.55503 0.36877 0.77725 0.0
H2561 H 0.56381 0.36859 0.75191 0.0
H2562 H 0.57808 0.40108 0.80378 0.0
H2563 H 0.57853 0.42621 0.74401 0.0
H2564 H 0.67943 0.81483 0.74607 0.0
H2565 H 0.68026 0.83953 0.80671 0.0
H2566 H 0.7032 0.83549 0.80384 0.0
H2567 H 0.70245 0.8109 0.74272 0.0
H2568 H 0.68678 0.83908 0.89696 0.0
H2569 H 0.69925 0.89234 0.77675 0.0
H2570 H 0.69502 0.87089 0.75524 0.0
H2571 H 0.70376 0.86979 0.78096 0.0
C2572 C 0.68466 0.81906 0.75852 0.0
C2573 C 0.69088 0.81101 0.73917 0.0
C2574 C 0.68512 0.83319 0.79315 0.0
C2575 C 0.69179 0.83955 0.80895 0.0
C2576 C 0.698 0.83102 0.79128 0.0
H2577 H 0.70258 0.92922 0.01069 0.0
H2578 H 0.70321 0.90375 0.95154 0.0
C2579 C 0.69756 0.81689 0.7566 0.0
C2580 C 0.69221 0.85535 0.84341 0.0
H2581 H 0.6976 0.90162 0.85629 0.0
C2582 C 0.68916 0.85274 0.88816 0.0
C2583 C 0.69533 0.87312 0.83167 0.0
C2584 C 0.69848 0.87685 0.78345 0.0
C2585 C 0.68912 0.86749 0.92163 0.0
C2586 C 0.69211 0.88536 0.90958 0.0
C2587 C 0.6953 0.88787 0.86519 0.0
C2588 C 0.69179 0.90174 0.94232 0.0
C2589 C 0.68591 0.8638 0.9697 0.0
C2590 C 0.68517 0.90942 0.95523 0.0
C2591 C 0.68478 0.92394 0.98883 0.0
C2592 C 0.69102 0.93109 0.01004 0.0
C2593 C 0.69768 0.92398 0.99522 0.0
C2594 C 0.69805 0.90943 0.96152 0.0
H2595 H 0.6855 0.84829 0.97739 0.0
H2596 H 0.68912 0.87069 0.99794 0.0
H2597 H 0.68046 0.86992 0.97088 0.0
H2598 H 0.68029 0.9039 0.93998 0.0
H2599 H 0.67957 0.92918 -0.00093 0.0
H2600 H 0.55508 0.81074 0.50442 0.0
H2601 H 0.55472 0.83529 0.44303 0.0
H2602 H 0.5777 0.8364 0.43941 0.0
H2603 H 0.57814 0.81177 0.5003 0.0
H2604 H 0.56069 0.87198 0.45199 0.0
H2605 H 0.5722 0.83294 0.29932 0.0
H2606 H 0.56877 0.82092 0.351 0.0
H2607 H 0.57749 0.83156 0.35217 0.0
C2608 C 0.56006 0.81597 0.49008 0.0
C2609 C 0.56664 0.80929 0.50735 0.0
C2610 C 0.55984 0.83003 0.4551 0.0
C2611 C 0.56618 0.83751 0.43651 0.0
C2612 C 0.57275 0.83056 0.45277 0.0
H2613 H 0.57817 0.92736 0.24462 0.0
H2614 H 0.57774 0.90253 0.30513 0.0
C2615 C 0.57298 0.81653 0.48775 0.0
C2616 C 0.56596 0.85344 0.40232 0.0
H2617 H 0.57126 0.86668 0.29176 0.0
C2618 C 0.56294 0.87082 0.41678 0.0
C2619 C 0.56893 0.85182 0.35657 0.0
C2620 C 0.57197 0.83326 0.33857 0.0
C2621 C 0.56298 0.88683 0.38703 0.0
C2622 C 0.56603 0.88527 0.34151 0.0
C2623 C 0.56897 0.86783 0.32687 0.0
C2624 C 0.56622 0.90152 0.30823 0.0
C2625 C 0.55994 0.90541 0.40497 0.0
C2626 C 0.55988 0.90932 0.29049 0.0
C2627 C 0.5601 0.92356 0.25599 0.0
C2628 C 0.56667 0.93013 0.23837 0.0
C2629 C 0.57302 0.92265 0.25734 0.0
C2630 C 0.57279 0.90842 0.29184 0.0
H2631 H 0.55942 0.90547 0.4441 0.0
H2632 H 0.56333 0.91764 0.39418 0.0
H2633 H 0.55456 0.90754 0.38959 0.0
H2634 H 0.55476 0.90395 0.30219 0.0
H2635 H 0.55511 0.92896 0.24206 0.0
H2636 H 0.68045 0.31468 0.24709 0.0
H2637 H 0.68141 0.33999 0.30595 0.0
H2638 H 0.70432 0.33835 0.29506 0.0
H2639 H 0.70346 0.31287 0.23606 0.0
H2640 H 0.69852 0.34095 0.39065 0.0
H2641 H 0.68742 0.39517 0.26785 0.0
H2642 H 0.68213 0.37393 0.27355 0.0
H2643 H 0.69087 0.37251 0.24783 0.0
C2644 C 0.68571 0.31953 0.25742 0.0
C2645 C 0.69188 0.31187 0.23644 0.0
C2646 C 0.68624 0.33406 0.2909 0.0
C2647 C 0.69292 0.34124 0.30395 0.0
C2648 C 0.69911 0.33306 0.28498 0.0
H2649 H 0.70333 0.43142 0.5073 0.0
H2650 H 0.70435 0.40696 0.44596 0.0
C2651 C 0.6986 0.3185 0.25135 0.0
C2652 C 0.6934 0.35763 0.33659 0.0
H2653 H 0.68846 0.40423 0.3486 0.0
C2654 C 0.6964 0.35486 0.38144 0.0
C2655 C 0.69064 0.37572 0.32412 0.0
C2656 C 0.68764 0.37964 0.27557 0.0
C2657 C 0.69645 0.36958 0.41508 0.0
C2658 C 0.69352 0.38754 0.40299 0.0
C2659 C 0.69069 0.39042 0.35767 0.0
C2660 C 0.69297 0.40321 0.43775 0.0
C2661 C 0.69936 0.36559 0.46383 0.0
C2662 C 0.68623 0.40968 0.45196 0.0
C2663 C 0.68562 0.42372 0.48669 0.0
C2664 C 0.69174 0.43159 0.50776 0.0
C2665 C 0.6985 0.42558 0.49204 0.0
C2666 C 0.6991 0.41152 0.45723 0.0
H2667 H 0.70005 0.35006 0.47032 0.0
H2668 H 0.70464 0.37254 0.46759 0.0
H2669 H 0.69578 0.37151 0.49143 0.0
H2670 H 0.68144 0.4035 0.43702 0.0
H2671 H 0.68033 0.42804 0.49778 0.0
H2672 H 0.45242 0.55979 0.24877 0.0
H2673 H 0.45261 0.58416 0.18691 0.0
H2674 H 0.42963 0.58574 0.18697 0.0
H2675 H 0.42936 0.56129 0.24849 0.0
H2676 H 0.4361 0.58597 0.09512 0.0
H2677 H 0.44761 0.64059 0.21577 0.0
H2678 H 0.45248 0.61856 0.21182 0.0
H2679 H 0.44369 0.61868 0.2371 0.0
C2680 C 0.4474 0.56516 0.23533 0.0
C2681 C 0.44087 0.55872 0.25396 0.0
C2682 C 0.44753 0.57916 0.20019 0.0
C2683 C 0.44114 0.58696 0.18318 0.0
C2684 C 0.43462 0.57996 0.2 0.0
H2685 H 0.42875 0.67548 0.9863 0.0
H2686 H 0.42911 0.65002 0.04526 0.0
C2687 C 0.43448 0.56598 0.23515 0.0
C2688 C 0.44124 0.60284 0.14883 0.0
H2689 H 0.44599 0.64958 0.136 0.0
C2690 C 0.43826 0.59989 0.10396 0.0
C2691 C 0.44406 0.62094 0.16069 0.0
C2692 C 0.44709 0.62503 0.20906 0.0
C2693 C 0.43809 0.61457 0.07027 0.0
C2694 C 0.44084 0.63273 0.08229 0.0
C2695 C 0.44387 0.63563 0.12704 0.0
C2696 C 0.44062 0.64892 0.04881 0.0
C2697 C 0.43508 0.61043 0.02186 0.0
C2698 C 0.44698 0.65726 0.03291 0.0
C2699 C 0.44681 0.67193 -0.00049 0.0
C2700 C 0.44026 0.67855 0.98155 0.0
C2701 C 0.43389 0.67064 -0.00092 0.0
C2702 C 0.43408 0.656 0.03252 0.0
H2703 H 0.43491 0.59486 0.01445 0.0
H2704 H 0.42955 0.61597 0.01987 0.0
H2705 H 0.43827 0.61753 0.99388 0.0
H2706 H 0.45208 0.65208 0.04546 0.0
H2707 H 0.45181 0.67773 0.98692 0.0
H2708 H 0.32751 0.06667 0.98814 0.0
H2709 H 0.32665 0.09227 0.04644 0.0
H2710 H 0.30371 0.08899 0.04125 0.0
H2711 H 0.30448 0.06323 0.9832 0.0
H2712 H 0.31962 0.12776 0.03118 0.0
H2713 H 0.30829 0.08801 0.18401 0.0
H2714 H 0.31251 0.07615 0.1347 0.0
H2715 H 0.30362 0.08537 0.12891 0.0
C2716 C 0.32227 0.07118 -0.00021 0.0
C2717 C 0.31606 0.06288 0.98095 0.0
C2718 C 0.3218 0.08586 0.033 0.0
C2719 C 0.31512 0.09241 0.04826 0.0
C2720 C 0.30891 0.08393 0.03037 0.0
H2721 H 0.30455 0.18134 0.25276 0.0
H2722 H 0.30369 0.15782 0.18907 0.0
C2723 C 0.30937 0.06924 0.9971 0.0
C2724 C 0.3147 0.10872 0.08125 0.0
H2725 H 0.30963 0.12132 0.19278 0.0
C2726 C 0.31743 0.12639 0.06651 0.0
C2727 C 0.31177 0.10687 0.12705 0.0
C2728 C 0.30892 0.08807 0.14495 0.0
C2729 C 0.31737 0.14228 0.09661 0.0
C2730 C 0.31462 0.14031 0.14286 0.0
C2731 C 0.31173 0.12276 0.15721 0.0
C2732 C 0.31508 0.15589 0.17798 0.0
C2733 C 0.32023 0.16105 0.07859 0.0
C2734 C 0.32176 0.16268 0.19245 0.0
C2735 C 0.32228 0.1761 0.22872 0.0
C2736 C 0.31611 0.18289 0.25149 0.0
C2737 C 0.3094 0.17644 0.23596 0.0
C2738 C 0.3089 0.16298 0.19966 0.0
H2739 H 0.32012 0.16171 0.03934 0.0
H2740 H 0.31712 0.17324 0.09288 0.0
H2741 H 0.32585 0.16267 0.09009 0.0
H2742 H 0.32661 0.15712 0.17678 0.0
H2743 H 0.32753 0.1807 0.23982 0.0
H2744 H 0.42934 0.06429 0.75202 0.0
H2745 H 0.43009 0.08963 0.69298 0.0
H2746 H 0.45305 0.08729 0.69891 0.0
H2747 H 0.45237 0.06178 0.75769 0.0
H2748 H 0.43688 0.12533 0.70857 0.0
H2749 H 0.44863 0.08633 0.55606 0.0
H2750 H 0.44444 0.07422 0.60512 0.0
H2751 H 0.45328 0.08377 0.61125 0.0
C2752 C 0.43455 0.06893 0.74032 0.0
C2753 C 0.4408 0.061 0.75968 0.0
C2754 C 0.43497 0.08345 0.70667 0.0
C2755 C 0.44162 0.09023 0.6915 0.0
C2756 C 0.44786 0.08205 0.70972 0.0
H2757 H 0.45262 0.1802 0.49149 0.0
H2758 H 0.45322 0.15618 0.55414 0.0
C2759 C 0.44746 0.06751 0.74342 0.0
C2760 C 0.44199 0.10658 0.65863 0.0
H2761 H 0.44728 0.1197 0.54794 0.0
C2762 C 0.43915 0.12413 0.67342 0.0
C2763 C 0.44502 0.10495 0.61307 0.0
C2764 C 0.44797 0.08629 0.5951 0.0
C2765 C 0.43923 0.14013 0.6437 0.0
C2766 C 0.44212 0.1384 0.59776 0.0
C2767 C 0.44508 0.12096 0.58328 0.0
C2768 C 0.44179 0.15419 0.56316 0.0
C2769 C 0.43628 0.15877 0.66184 0.0
C2770 C 0.43516 0.16111 0.54788 0.0
C2771 C 0.43479 0.17483 0.51221 0.0
C2772 C 0.44105 0.18178 0.49086 0.0
C2773 C 0.44769 0.17518 0.50719 0.0
C2774 C 0.44805 0.16143 0.54289 0.0
H2775 H 0.43623 0.15923 0.70111 0.0
H2776 H 0.43942 0.17107 0.64848 0.0
H2777 H 0.4307 0.16041 0.64941 0.0
H2778 H 0.43026 0.15545 0.56247 0.0
H2779 H 0.42959 0.17954 0.50045 0.0
H2780 H 0.30808 0.57944 0.43985 0.0
H2781 H 0.30764 0.60591 0.49606 0.0
H2782 H 0.32243 0.57612 0.5869 0.0
H2783 H 0.32332 0.5504 0.5286 0.0
H2784 H 0.30367 0.61133 0.57919 0.0
H2785 H 0.33266 0.62471 0.57882 0.0
H2786 H 0.32858 0.60795 0.5389 0.0
H2787 H 0.3309 0.60088 0.59834 0.0
C2788 C 0.31121 0.57857 0.47198 0.0
C2789 C 0.31578 0.56305 0.47993 0.0
C2790 C 0.31097 0.5937 0.50406 0.0
C2791 C 0.31518 0.59335 0.54518 0.0
C2792 C 0.31938 0.57717 0.55453 0.0
H2793 H 0.30743 0.66487 0.78836 0.0
H2794 H 0.30695 0.6412 0.72532 0.0
C2795 C 0.31982 0.56235 0.52162 0.0
C2796 C 0.31515 0.60991 0.57802 0.0
H2797 H 0.32606 0.63913 0.64182 0.0
C2798 C 0.30858 0.61755 0.59241 0.0
C2799 C 0.32154 0.61851 0.59432 0.0
C2800 C 0.3288 0.61272 0.5763 0.0
C2801 C 0.3082 0.63313 0.62345 0.0
C2802 C 0.31457 0.64062 0.64293 0.0
C2803 C 0.32115 0.6333 0.62759 0.0
C2804 C 0.31459 0.65559 0.68019 0.0
C2805 C 0.30097 0.64159 0.63388 0.0
C2806 C 0.31926 0.67127 0.67704 0.0
C2807 C 0.31977 0.68437 0.71416 0.0
C2808 C 0.31548 0.6823 0.75444 0.0
C2809 C 0.31069 0.66696 0.75716 0.0
C2810 C 0.31036 0.65351 0.72086 0.0
H2811 H 0.29729 0.63964 0.60347 0.0
H2812 H 0.29858 0.63411 0.66461 0.0
H2813 H 0.30131 0.65707 0.64192 0.0
H2814 H 0.3226 0.67321 0.64618 0.0
H2815 H 0.32352 0.69609 0.71144 0.0
H2816 H 0.07934 0.3133 0.7377 0.0
H2817 H 0.07915 0.33828 0.79792 0.0
H2818 H 0.05616 0.33784 0.79649 0.0
H2819 H 0.05627 0.31267 0.73678 0.0
H2820 H 0.07305 0.37439 0.78673 0.0
H2821 H 0.06087 0.33552 0.93762 0.0
H2822 H 0.06458 0.3234 0.88694 0.0
H2823 H 0.05589 0.33411 0.88352 0.0
C2824 C 0.07424 0.31829 0.75064 0.0
C2825 C 0.06782 0.31098 0.73234 0.0
C2826 C 0.07415 0.33261 0.78496 0.0
C2827 C 0.06765 0.33978 0.80184 0.0
C2828 C 0.06123 0.33226 0.78448 0.0
H2829 H 0.05639 0.43008 0.99764 0.0
H2830 H 0.05627 0.40584 0.93554 0.0
C2831 C 0.06131 0.31792 0.7502 0.0
C2832 C 0.0676 0.35588 0.83564 0.0
H2833 H 0.06217 0.36903 0.94602 0.0
C2834 C 0.0707 0.37322 0.82165 0.0
C2835 C 0.06449 0.35429 0.88099 0.0
C2836 C 0.06132 0.33579 0.89846 0.0
C2837 C 0.07071 0.38913 0.85174 0.0
C2838 C 0.06763 0.38751 0.89713 0.0
C2839 C 0.0645 0.37021 0.91104 0.0
C2840 C 0.06775 0.40342 0.93142 0.0
C2841 C 0.07391 0.40761 0.83446 0.0
C2842 C 0.07425 0.41021 0.94919 0.0
C2843 C 0.07435 0.42407 0.98464 0.0
C2844 C 0.06793 0.4313 0.00317 0.0
C2845 C 0.06143 0.42484 0.98422 0.0
C2846 C 0.06134 0.41096 0.9488 0.0
H2847 H 0.07435 0.40794 0.79529 0.0
H2848 H 0.07069 0.42002 0.8462 0.0
H2849 H 0.07936 0.40917 0.84936 0.0
H2850 H 0.07925 0.40433 0.93673 0.0
H2851 H 0.07945 0.42868 -0.00152 0.0
H2852 H 0.20239 0.80922 0.00074 0.0
H2853 H 0.20295 0.83332 0.9383 0.0
H2854 H 0.17999 0.83585 0.93461 0.0
H2855 H 0.17934 0.81165 0.99658 0.0
H2856 H 0.18663 0.83581 0.84419 0.0
H2857 H 0.19835 0.88993 0.96535 0.0
H2858 H 0.20309 0.8677 0.96155 0.0
H2859 H 0.19429 0.8682 0.98654 0.0
C2860 C 0.19745 0.81474 0.98634 0.0
C2861 C 0.19082 0.80865 0.00408 0.0
C2862 C 0.19779 0.82859 0.95087 0.0
C2863 C 0.19152 0.83661 0.93267 0.0
C2864 C 0.18489 0.82991 0.94854 0.0
H2865 H 0.17913 0.92567 0.73917 0.0
H2866 H 0.1797 0.89992 0.79716 0.0
C2867 C 0.18454 0.81607 0.98397 0.0
C2868 C 0.19181 0.85244 0.89816 0.0
H2869 H 0.19676 0.89907 0.88574 0.0
C2870 C 0.18885 0.84964 0.85317 0.0
C2871 C 0.19472 0.87043 0.91014 0.0
C2872 C 0.19775 0.87439 0.95861 0.0
C2873 C 0.18874 0.86439 0.81965 0.0
C2874 C 0.19154 0.88247 0.8319 0.0
C2875 C 0.1946 0.88519 0.87661 0.0
C2876 C 0.19122 0.89883 0.79895 0.0
C2877 C 0.18569 0.86043 0.77125 0.0
C2878 C 0.19752 0.90729 0.78237 0.0
C2879 C 0.19723 0.92213 0.74944 0.0
C2880 C 0.19062 0.92882 0.7327 0.0
C2881 C 0.18431 0.9208 0.75099 0.0
C2882 C 0.18462 0.90598 0.78389 0.0
H2883 H 0.18552 0.8449 0.76348 0.0
H2884 H 0.18016 0.86599 0.76958 0.0
H2885 H 0.18886 0.86765 0.74333 0.0
H2886 H 0.20267 0.90206 0.79401 0.0
H2887 H 0.20218 0.92802 0.73628 0.0
H2888 H 0.07863 0.9291 0.50169 0.0
H2889 H 0.07839 0.90451 0.44053 0.0
H2890 H 0.0554 0.90517 0.44219 0.0
H2891 H 0.05557 0.92995 0.50292 0.0
H2892 H 0.07222 0.86856 0.45273 0.0
H2893 H 0.06006 0.90682 0.30083 0.0
H2894 H 0.06381 0.91914 0.35109 0.0
H2895 H 0.05511 0.90852 0.35502 0.0
C2896 C 0.07352 0.92427 0.48853 0.0
C2897 C 0.06712 0.93146 0.50736 0.0
C2898 C 0.0734 0.91019 0.45365 0.0
C2899 C 0.06689 0.90312 0.43671 0.0
C2900 C 0.06049 0.91067 0.45426 0.0
H2901 H 0.05566 0.81155 0.24363 0.0
H2902 H 0.05547 0.83644 0.3042 0.0
C2903 C 0.06059 0.92478 0.48912 0.0
C2904 C 0.06681 0.8869 0.40327 0.0
H2905 H 0.06135 0.87326 0.29327 0.0
C2906 C 0.06988 0.86959 0.41776 0.0
C2907 C 0.06369 0.88829 0.3579 0.0
C2908 C 0.06053 0.90673 0.33999 0.0
C2909 C 0.06987 0.85354 0.38816 0.0
C2910 C 0.0668 0.85497 0.34268 0.0
C2911 C 0.06368 0.87223 0.32829 0.0
C2912 C 0.06695 0.8389 0.30884 0.0
C2913 C 0.07304 0.83512 0.40606 0.0
C2914 C 0.07347 0.83196 0.29179 0.0
C2915 C 0.07361 0.81773 0.25726 0.0
C2916 C 0.06722 0.81027 0.2389 0.0
C2917 C 0.06069 0.81695 0.25698 0.0
C2918 C 0.06056 0.8312 0.29149 0.0
H2919 H 0.07343 0.83493 0.44526 0.0
H2920 H 0.06983 0.82266 0.39441 0.0
H2921 H 0.07851 0.8335 0.39157 0.0
H2922 H 0.07845 0.83794 0.3042 0.0
H2923 H 0.07873 0.81298 0.24406 0.0
H2924 H 0.20239 0.31116 0.50197 0.0
H2925 H 0.20265 0.33633 0.44211 0.0
H2926 H 0.17967 0.33721 0.43938 0.0
H2927 H 0.17933 0.31224 0.49955 0.0
H2928 H 0.19669 0.33884 0.35024 0.0
H2929 H 0.18512 0.39255 0.47254 0.0
H2930 H 0.18862 0.36998 0.49275 0.0
H2931 H 0.17991 0.37119 0.46636 0.0
C2932 C 0.19739 0.31655 0.48833 0.0
C2933 C 0.19083 0.30984 0.50603 0.0
C2934 C 0.19755 0.33095 0.45417 0.0
C2935 C 0.19118 0.3389 0.43723 0.0
C2936 C 0.18464 0.33155 0.4529 0.0
H2937 H 0.17953 0.42763 0.24158 0.0
H2938 H 0.17997 0.40247 0.30124 0.0
C2939 C 0.18446 0.31718 0.48708 0.0
C2940 C 0.19137 0.35521 0.40408 0.0
H2941 H 0.18638 0.40183 0.39228 0.0
C2942 C 0.19448 0.35265 0.35943 0.0
C2943 C 0.1885 0.37321 0.41643 0.0
C2944 C 0.18541 0.37703 0.46477 0.0
C2945 C 0.19461 0.36751 0.32616 0.0
C2946 C 0.19166 0.38544 0.33833 0.0
C2947 C 0.18863 0.38805 0.38315 0.0
C2948 C 0.19148 0.40149 0.30443 0.0
C2949 C 0.19772 0.36376 0.27784 0.0
C2950 C 0.19782 0.40966 0.28763 0.0
C2951 C 0.1976 0.42409 0.25354 0.0
C2952 C 0.19103 0.43061 0.23578 0.0
C2953 C 0.18469 0.42291 0.25426 0.0
C2954 C 0.18492 0.40851 0.28834 0.0
H2955 H 0.19831 0.34825 0.27069 0.0
H2956 H 0.19432 0.37014 0.24981 0.0
H2957 H 0.20308 0.37041 0.27557 0.0
H2958 H 0.20294 0.40468 0.30039 0.0
H2959 H 0.20259 0.42977 0.24032 0.0
H2960 H 0.95152 0.56041 0.99357 0.0
H2961 H 0.95164 0.5851 0.05454 0.0
H2962 H 0.92867 0.58702 0.05236 0.0
H2963 H 0.92846 0.56222 0.99173 0.0
H2964 H 0.94585 0.62203 0.04283 0.0
H2965 H 0.93346 0.58388 0.19404 0.0
H2966 H 0.93714 0.57155 0.14356 0.0
H2967 H 0.92849 0.58253 0.13983 0.0
C2968 C 0.94648 0.56584 0.00653 0.0
C2969 C 0.93998 0.55934 0.98766 0.0
C2970 C 0.94657 0.57999 0.04128 0.0
C2971 C 0.94017 0.58776 0.05808 0.0
C2972 C 0.93366 0.58097 0.04034 0.0
H2973 H 0.92865 0.67818 0.25077 0.0
H2974 H 0.92884 0.65346 0.18996 0.0
C2975 C 0.93356 0.56684 0.00555 0.0
C2976 C 0.9403 0.60382 0.09194 0.0
H2977 H 0.93486 0.61741 0.20192 0.0
C2978 C 0.94349 0.62102 0.07776 0.0
C2979 C 0.93719 0.60242 0.13729 0.0
C2980 C 0.93393 0.58406 0.15489 0.0
C2981 C 0.94352 0.63704 0.10749 0.0
C2982 C 0.94038 0.63566 0.15278 0.0
C2983 C 0.93723 0.61842 0.16703 0.0
C2984 C 0.94034 0.65185 0.1863 0.0
C2985 C 0.94675 0.65542 0.08976 0.0
C2986 C 0.94676 0.6593 0.20387 0.0
C2987 C 0.94668 0.6735 0.23853 0.0
C2988 C 0.94017 0.68036 0.25654 0.0
C2989 C 0.93375 0.67322 0.23779 0.0
C2990 C 0.93385 0.65906 0.20311 0.0
H2991 H 0.94723 0.65555 0.0506 0.0
H2992 H 0.94352 0.6679 0.10094 0.0
H2993 H 0.95218 0.65704 0.10483 0.0
H2994 H 0.95183 0.65369 0.19192 0.0
H2995 H 0.95172 0.67861 0.25231 0.0
H2996 H 0.80642 0.17747 0.98944 0.0
H2997 H 0.80631 0.15246 0.04956 0.0
H2998 H 0.8293 0.15165 0.05 0.0
H2999 H 0.82949 0.17648 0.9894 0.0
H3000 H 0.82308 0.11562 0.03929 0.0
H3001 H 0.81119 0.15491 0.19051 0.0
H3002 H 0.80616 0.1564 0.13663 0.0
H3003 H 0.81489 0.16689 0.13959 0.0
C3004 C 0.81146 0.17218 0.00273 0.0
C3005 C 0.81796 0.17896 0.98448 0.0
C3006 C 0.81138 0.15793 0.03725 0.0
C3007 C 0.8178 0.15034 0.05442 0.0
C3008 C 0.8243 0.15738 0.03718 0.0
H3009 H 0.82939 0.06108 0.25083 0.0
H3010 H 0.82927 0.08553 0.18933 0.0
C3011 C 0.82438 0.1716 0.00264 0.0
C3012 C 0.81774 0.1343 0.08835 0.0
H3013 H 0.81236 0.12136 0.19899 0.0
C3014 C 0.82077 0.11687 0.07431 0.0
C3015 C 0.81469 0.13601 0.13383 0.0
C3016 C 0.8116 0.1546 0.15132 0.0
C3017 C 0.82074 0.10098 0.10445 0.0
C3018 C 0.8177 0.10271 0.14994 0.0
C3019 C 0.81466 0.12011 0.16393 0.0
C3020 C 0.81777 0.08679 0.1842 0.0
C3021 C 0.82386 0.08241 0.08711 0.0
C3022 C 0.81134 0.07942 0.20161 0.0
C3023 C 0.81138 0.06548 0.23688 0.0
C3024 C 0.81786 0.05879 0.25564 0.0
C3025 C 0.8243 0.06587 0.23713 0.0
C3026 C 0.82425 0.07979 0.20182 0.0
H3027 H 0.82428 0.08206 0.04794 0.0
H3028 H 0.8293 0.08066 0.10194 0.0
H3029 H 0.82058 0.0701 0.09889 0.0
H3030 H 0.80629 0.08471 0.18846 0.0
H3031 H 0.80632 0.06038 0.25031 0.0
H3032 H 0.92941 0.06236 0.49316 0.0
H3033 H 0.92994 0.08727 0.5534 0.0
H3034 H 0.95291 0.08483 0.55161 0.0
H3035 H 0.95247 0.05999 0.49091 0.0
H3036 H 0.93643 0.08764 0.64417 0.0
H3037 H 0.94831 0.14133 0.5226 0.0
H3038 H 0.94428 0.11951 0.50166 0.0
H3039 H 0.95305 0.11913 0.52715 0.0
C3040 C 0.93459 0.06698 0.50577 0.0
C3041 C 0.9409 0.05931 0.48681 0.0
C3042 C 0.93487 0.08122 0.54019 0.0
C3043 C 0.94146 0.0881 0.55616 0.0
C3044 C 0.94777 0.07994 0.53894 0.0
H3045 H 0.95241 0.17838 0.75366 0.0
H3046 H 0.95268 0.15305 0.69424 0.0
C3047 C 0.9475 0.06567 0.50449 0.0
C3048 C 0.94169 0.10409 0.5902 0.0
H3049 H 0.9467 0.15068 0.60217 0.0
C3050 C 0.93867 0.10143 0.63507 0.0
C3051 C 0.94462 0.12202 0.57803 0.0
C3052 C 0.9477 0.12582 0.52964 0.0
C3053 C 0.93856 0.11624 0.66838 0.0
C3054 C 0.94141 0.13425 0.65602 0.0
C3055 C 0.9445 0.13685 0.61135 0.0
C3056 C 0.94121 0.15055 0.68913 0.0
C3057 C 0.93547 0.11241 0.71674 0.0
C3058 C 0.93467 0.15795 0.70455 0.0
C3059 C 0.93448 0.17241 0.73846 0.0
C3060 C 0.94085 0.17978 0.75741 0.0
C3061 C 0.9474 0.17296 0.74005 0.0
C3062 C 0.94758 0.15848 0.70613 0.0
H3063 H 0.93518 0.09689 0.72448 0.0
H3064 H 0.9387 0.11944 0.7447 0.0
H3065 H 0.92998 0.11828 0.71842 0.0
H3066 H 0.9297 0.15227 0.69098 0.0
H3067 H 0.92934 0.17742 0.75072 0.0
H3068 H 0.80556 0.56033 0.75703 0.0
H3069 H 0.80531 0.58491 0.69572 0.0
H3070 H 0.82829 0.58647 0.69494 0.0
H3071 H 0.82863 0.5618 0.75579 0.0
H3072 H 0.81116 0.62171 0.70574 0.0
H3073 H 0.8232 0.5831 0.55414 0.0
H3074 H 0.81966 0.57093 0.6053 0.0
H3075 H 0.82832 0.58184 0.60767 0.0
C3076 C 0.81057 0.56566 0.74333 0.0
C3077 C 0.81712 0.5591 0.76141 0.0
C3078 C 0.81041 0.57974 0.70839 0.0
C3079 C 0.81678 0.58737 0.69063 0.0
C3080 C 0.82332 0.58052 0.70765 0.0
H3081 H 0.8285 0.6776 0.49829 0.0
H3082 H 0.82821 0.65281 0.55894 0.0
C3083 C 0.82349 0.56647 0.7426 0.0
C3084 C 0.8166 0.60334 0.65652 0.0
H3085 H 0.82202 0.61675 0.54632 0.0
C3086 C 0.81348 0.62062 0.67072 0.0
C3087 C 0.81967 0.60183 0.61104 0.0
C3088 C 0.82285 0.58338 0.59335 0.0
C3089 C 0.81348 0.63662 0.64093 0.0
C3090 C 0.8166 0.63515 0.59559 0.0
C3091 C 0.81967 0.61783 0.58127 0.0
C3092 C 0.8167 0.65135 0.56211 0.0
C3093 C 0.81032 0.65509 0.65863 0.0
C3094 C 0.81032 0.65888 0.54431 0.0
C3095 C 0.81045 0.67311 0.50973 0.0
C3096 C 0.81699 0.67993 0.49208 0.0
C3097 C 0.82338 0.6727 0.51105 0.0
C3098 C 0.82323 0.65849 0.54563 0.0
H3099 H 0.8098 0.6552 0.69777 0.0
H3100 H 0.81362 0.66747 0.64766 0.0
H3101 H 0.80492 0.65692 0.6433 0.0
H3102 H 0.80523 0.65333 0.55605 0.0
H3103 H 0.80543 0.67831 0.49583 0.0
H3104 H 0.55577 0.42891 0.50347 0.0
H3105 H 0.55568 0.40384 0.44333 0.0
H3106 H 0.57866 0.40369 0.44155 0.0
H3107 H 0.57884 0.42855 0.502 0.0
H3108 H 0.5618 0.40183 0.35159 0.0
H3109 H 0.57335 0.34811 0.47405 0.0
H3110 H 0.56972 0.37053 0.49431 0.0
H3111 H 0.57847 0.36965 0.46848 0.0
C3112 C 0.56081 0.42369 0.49 0.0
C3113 C 0.56732 0.43058 0.50802 0.0
C3114 C 0.56074 0.40936 0.45567 0.0
C3115 C 0.56716 0.40166 0.43892 0.0
C3116 C 0.57365 0.40917 0.45493 0.0
H3117 H 0.57896 0.313 0.2428 0.0
H3118 H 0.57858 0.33822 0.30239 0.0
C3119 C 0.57374 0.42347 0.48926 0.0
C3120 C 0.56707 0.38543 0.40559 0.0
H3121 H 0.57215 0.3389 0.39375 0.0
C3122 C 0.56403 0.38803 0.36079 0.0
C3123 C 0.56996 0.36746 0.41796 0.0
C3124 C 0.57301 0.36364 0.46645 0.0
C3125 C 0.56396 0.37322 0.32743 0.0
C3126 C 0.56691 0.35531 0.33968 0.0
C3127 C 0.56991 0.35267 0.38459 0.0
C3128 C 0.56707 0.33924 0.30588 0.0
C3129 C 0.56089 0.37698 0.27898 0.0
C3130 C 0.56071 0.33111 0.28933 0.0
C3131 C 0.5609 0.31667 0.25533 0.0
C3132 C 0.56745 0.31009 0.23742 0.0
C3133 C 0.57382 0.31776 0.25565 0.0
C3134 C 0.57362 0.33219 0.28966 0.0
H3135 H 0.56032 0.39249 0.27181 0.0
H3136 H 0.5643 0.37058 0.25108 0.0
H3137 H 0.55553 0.37037 0.27653 0.0
H3138 H 0.55561 0.33613 0.30222 0.0
H3139 H 0.55589 0.31101 0.24232 0.0
H3140 H 0.67794 0.92873 0.24248 0.0
H3141 H 0.67797 0.90402 0.30352 0.0
H3142 H 0.70096 0.90508 0.30619 0.0
H3143 H 0.70101 0.92989 0.24576 0.0
H3144 H 0.68427 0.8681 0.29384 0.0
H3145 H 0.69574 0.9074 0.44631 0.0
H3146 H 0.69217 0.91937 0.39497 0.0
H3147 H 0.70095 0.90905 0.39319 0.0
C3148 C 0.68301 0.92394 0.25656 0.0
C3149 C 0.68947 0.93131 0.23919 0.0
C3150 C 0.68301 0.90979 0.29134 0.0
C3151 C 0.68946 0.90287 0.30958 0.0
C3152 C 0.69592 0.91049 0.29319 0.0
H3153 H 0.70123 0.81257 0.50374 0.0
H3154 H 0.70117 0.83716 0.44239 0.0
C3155 C 0.69593 0.92464 0.25848 0.0
C3156 C 0.68947 0.88681 0.34345 0.0
H3157 H 0.69487 0.87369 0.45393 0.0
C3158 C 0.68655 0.86933 0.32898 0.0
C3159 C 0.69249 0.88848 0.38907 0.0
C3160 C 0.69546 0.90713 0.40708 0.0
C3161 C 0.68664 0.85333 0.35875 0.0
C3162 C 0.68967 0.855 0.40431 0.0
C3163 C 0.6926 0.87247 0.4188 0.0
C3164 C 0.68968 0.83896 0.43818 0.0
C3165 C 0.68364 0.83469 0.34095 0.0
C3166 C 0.68322 0.83174 0.45564 0.0
C3167 C 0.68322 0.8177 0.49064 0.0
C3168 C 0.68969 0.81072 0.50902 0.0
C3169 C 0.69615 0.81762 0.49039 0.0
C3170 C 0.69614 0.83169 0.45543 0.0
H3171 H 0.68321 0.83449 0.30177 0.0
H3172 H 0.68699 0.82248 0.35242 0.0
H3173 H 0.67821 0.83265 0.35576 0.0
H3174 H 0.67818 0.8374 0.44327 0.0
H3175 H 0.67815 0.81275 0.50421 0.0
H3176 H 0.57855 0.92656 0.00292 0.0
H3177 H 0.57821 0.9017 0.94244 0.0
H3178 H 0.55523 0.9029 0.9444 0.0
H3179 H 0.55548 0.92795 0.00442 0.0
H3180 H 0.57187 0.8658 0.95444 0.0
H3181 H 0.55991 0.90483 0.80299 0.0
H3182 H 0.56373 0.91691 0.85339 0.0
H3183 H 0.55498 0.90658 0.85724 0.0
C3184 C 0.57342 0.92177 0.99002 0.0
C3185 C 0.56704 0.92923 0.00862 0.0
C3186 C 0.57324 0.90753 0.95554 0.0
C3187 C 0.5667 0.90058 0.9388 0.0
C3188 C 0.56033 0.9083 0.95633 0.0
H3189 H 0.55535 0.81016 0.74267 0.0
H3190 H 0.55514 0.83454 0.80449 0.0
C3191 C 0.56049 0.92257 0.99079 0.0
C3192 C 0.56655 0.88443 0.9052 0.0
H3193 H 0.56112 0.87131 0.7948 0.0
C3194 C 0.56955 0.867 0.91945 0.0
C3195 C 0.56347 0.88606 0.85979 0.0
C3196 C 0.56039 0.90464 0.84214 0.0
C3197 C 0.5695 0.85105 0.88952 0.0
C3198 C 0.56646 0.85272 0.844 0.0
C3199 C 0.56341 0.8701 0.82987 0.0
C3200 C 0.56661 0.83682 0.8097 0.0
C3201 C 0.57261 0.83249 0.90708 0.0
C3202 C 0.57314 0.82994 0.7926 0.0
C3203 C 0.57329 0.81601 0.75735 0.0
C3204 C 0.5669 0.8088 0.73832 0.0
C3205 C 0.56037 0.81538 0.75652 0.0
C3206 C 0.56023 0.82934 0.79176 0.0
H3207 H 0.57295 0.83214 0.94629 0.0
H3208 H 0.56937 0.82015 0.89499 0.0
H3209 H 0.57808 0.83082 0.89277 0.0
H3210 H 0.57812 0.83577 0.80548 0.0
H3211 H 0.57842 0.81131 0.7441 0.0
H3212 H 0.70154 0.43051 0.74399 0.0
H3213 H 0.70142 0.40541 0.80401 0.0
H3214 H 0.67843 0.40531 0.8024 0.0
H3215 H 0.67847 0.43019 0.74195 0.0
H3216 H 0.69517 0.40341 0.89428 0.0
H3217 H 0.68361 0.34974 0.77168 0.0
H3218 H 0.68725 0.37215 0.75144 0.0
H3219 H 0.67849 0.37129 0.7772 0.0
C3220 C 0.69645 0.4253 0.75667 0.0
C3221 C 0.69001 0.4322 0.7377 0.0
C3222 C 0.6964 0.41094 0.79092 0.0
C3223 C 0.68992 0.40324 0.80671 0.0
C3224 C 0.68349 0.41077 0.78974 0.0
H3225 H 0.67857 0.31424 0.00489 0.0
H3226 H 0.67861 0.33948 0.94517 0.0
C3227 C 0.68352 0.42508 0.75542 0.0
C3228 C 0.6899 0.38704 0.84018 0.0
H3229 H 0.68483 0.34048 0.85189 0.0
C3230 C 0.69294 0.38962 0.88503 0.0
C3231 C 0.68699 0.36909 0.82779 0.0
C3232 C 0.68396 0.36527 0.77927 0.0
C3233 C 0.69302 0.37478 0.91828 0.0
C3234 C 0.69009 0.35686 0.90592 0.0
C3235 C 0.68706 0.35427 0.8611 0.0
C3236 C 0.6901 0.34067 0.93933 0.0
C3237 C 0.69612 0.37847 0.96667 0.0
C3238 C 0.69654 0.33261 0.95448 0.0
C3239 C 0.69655 0.31817 0.98847 0.0
C3240 C 0.6901 0.31152 0.00784 0.0
C3241 C 0.68363 0.31908 0.99091 0.0
C3242 C 0.68364 0.3335 0.95684 0.0
H3243 H 0.69667 0.39398 0.97403 0.0
H3244 H 0.69275 0.37195 0.9946 0.0
H3245 H 0.7015 0.37193 0.96883 0.0
H3246 H 0.70157 0.33774 0.94061 0.0
H3247 H 0.70163 0.31263 0.00048 0.0
H3248 H 0.45292 0.56248 0.48641 0.0
H3249 H 0.45333 0.5881 0.54503 0.0
H3250 H 0.43035 0.58908 0.55004 0.0
H3251 H 0.42986 0.56368 0.4911 0.0
H3252 H 0.43666 0.62502 0.53502 0.0
H3253 H 0.44897 0.58722 0.68735 0.0
H3254 H 0.45372 0.58512 0.63241 0.0
H3255 H 0.44501 0.57471 0.63811 0.0
C3256 C 0.44795 0.56794 0.50045 0.0
C3257 C 0.44136 0.56105 0.48391 0.0
C3258 C 0.4482 0.58254 0.53407 0.0
C3259 C 0.44187 0.59037 0.552 0.0
C3260 C 0.43529 0.58319 0.53658 0.0
H3261 H 0.42935 0.67928 0.74396 0.0
H3262 H 0.43004 0.65512 0.68202 0.0
C3263 C 0.43503 0.56863 0.50298 0.0
C3264 C 0.44207 0.6068 0.58478 0.0
H3265 H 0.44739 0.62057 0.69494 0.0
C3266 C 0.439 0.62407 0.57003 0.0
C3267 C 0.44518 0.6055 0.63019 0.0
C3268 C 0.44836 0.58712 0.64828 0.0
C3269 C 0.43894 0.64013 0.59958 0.0
C3270 C 0.44194 0.63875 0.64528 0.0
C3271 C 0.44512 0.62157 0.65977 0.0
C3272 C 0.44157 0.65465 0.67955 0.0
C3273 C 0.43574 0.65849 0.5815 0.0
C3274 C 0.44783 0.66239 0.69866 0.0
C3275 C 0.44747 0.67618 0.73426 0.0
C3276 C 0.44082 0.68233 0.75166 0.0
C3277 C 0.43456 0.67493 0.73135 0.0
C3278 C 0.43493 0.66116 0.69576 0.0
H3279 H 0.43554 0.65879 0.54224 0.0
H3280 H 0.4302 0.65979 0.59485 0.0
H3281 H 0.43881 0.67104 0.59406 0.0
H3282 H 0.453 0.65748 0.68666 0.0
H3283 H 0.4524 0.68156 0.74908 0.0
H3284 H 0.30585 0.17797 0.4893 0.0
H3285 H 0.30579 0.15266 0.5488 0.0
H3286 H 0.32874 0.14997 0.54353 0.0
H3287 H 0.32889 0.17535 0.48437 0.0
H3288 H 0.31144 0.1154 0.53592 0.0
H3289 H 0.32434 0.15316 0.68589 0.0
H3290 H 0.32055 0.16562 0.63597 0.0
H3291 H 0.32914 0.15447 0.63103 0.0
C3292 C 0.3109 0.1722 0.50121 0.0
C3293 C 0.31738 0.1787 0.48201 0.0
C3294 C 0.31084 0.1577 0.53511 0.0
C3295 C 0.31726 0.14957 0.55072 0.0
C3296 C 0.32374 0.15627 0.53242 0.0
H3297 H 0.32864 0.05952 0.74555 0.0
H3298 H 0.32855 0.08362 0.6832 0.0
C3299 C 0.32381 0.17074 0.49849 0.0
C3300 C 0.31716 0.13345 0.58447 0.0
H3301 H 0.32278 0.11974 0.69399 0.0
C3302 C 0.31388 0.11634 0.57061 0.0
C3303 C 0.32038 0.13476 0.62951 0.0
C3304 C 0.32375 0.15303 0.6468 0.0
C3305 C 0.31385 0.10031 0.60039 0.0
C3306 C 0.31708 0.10162 0.64543 0.0
C3307 C 0.32034 0.11877 0.65929 0.0
C3308 C 0.31706 0.08552 0.67929 0.0
C3309 C 0.3105 0.08204 0.583 0.0
C3310 C 0.31061 0.07837 0.69718 0.0
C3311 C 0.31063 0.06452 0.73271 0.0
C3312 C 0.31711 0.05772 0.75135 0.0
C3313 C 0.32356 0.06446 0.73213 0.0
C3314 C 0.32352 0.07826 0.69654 0.0
H3315 H 0.31003 0.08182 0.54384 0.0
H3316 H 0.31365 0.06943 0.59441 0.0
H3317 H 0.30506 0.08072 0.59804 0.0
H3318 H 0.30556 0.08402 0.68493 0.0
H3319 H 0.30557 0.05971 0.74679 0.0
H3320 H 0.45127 0.17757 0.25437 0.0
H3321 H 0.4512 0.15265 0.19391 0.0
H3322 H 0.42822 0.15165 0.197 0.0
H3323 H 0.4282 0.17666 0.2571 0.0
H3324 H 0.44514 0.11585 0.20553 0.0
H3325 H 0.43294 0.15499 0.05512 0.0
H3326 H 0.43675 0.16701 0.10563 0.0
H3327 H 0.42804 0.15644 0.10958 0.0
C3328 C 0.44619 0.17226 0.24176 0.0
C3329 C 0.43974 0.17912 0.26064 0.0
C3330 C 0.44617 0.15798 0.20732 0.0
C3331 C 0.4397 0.15044 0.19084 0.0
C3332 C 0.43326 0.15751 0.20877 0.0
H3333 H 0.42809 0.06126 0.99369 0.0
H3334 H 0.42816 0.08551 0.05573 0.0
C3335 C 0.43327 0.17177 0.24326 0.0
C3336 C 0.43971 0.13445 0.15677 0.0
H3337 H 0.43424 0.12151 0.04635 0.0
C3338 C 0.44279 0.11707 0.17061 0.0
C3339 C 0.43661 0.13614 0.11144 0.0
C3340 C 0.43345 0.15469 0.09425 0.0
C3341 C 0.44275 0.10117 0.14047 0.0
C3342 C 0.43966 0.10287 0.09511 0.0
C3343 C 0.43658 0.12026 0.08129 0.0
C3344 C 0.43965 0.08692 0.06087 0.0
C3345 C 0.44589 0.08262 0.15779 0.0
C3346 C 0.4461 0.07953 0.04366 0.0
C3347 C 0.44609 0.06561 0.00833 0.0
C3348 C 0.43962 0.05897 0.98923 0.0
C3349 C 0.43317 0.06605 0.00754 0.0
C3350 C 0.43319 0.07994 0.04293 0.0
H3351 H 0.44626 0.08222 0.19699 0.0
H3352 H 0.44266 0.07026 0.14571 0.0
H3353 H 0.45136 0.08102 0.14336 0.0
H3354 H 0.45115 0.08497 0.05645 0.0
H3355 H 0.45116 0.06054 0.99496 0.0
H3356 H 0.33002 0.56752 0.26623 0.0
H3357 H 0.33011 0.59222 0.20513 0.0
H3358 H 0.30833 0.57886 0.16972 0.0
H3359 H 0.30813 0.55416 0.23091 0.0
H3360 H 0.3195 0.58491 0.08942 0.0
H3361 H 0.31698 0.64255 0.22413 0.0
H3362 H 0.32349 0.62413 0.23452 0.0
H3363 H 0.31419 0.61831 0.23555 0.0
C3364 C 0.32527 0.56961 0.24506 0.0
C3365 C 0.31905 0.55896 0.25375 0.0
C3366 C 0.32534 0.58377 0.21031 0.0
C3367 C 0.3192 0.58741 0.18351 0.0
C3368 C 0.3131 0.57624 0.19035 0.0
H3369 H 0.3072 0.68222 0.00406 0.0
H3370 H 0.30761 0.65673 0.06324 0.0
C3371 C 0.313 0.56216 0.22531 0.0
C3372 C 0.31906 0.60349 0.14989 0.0
H3373 H 0.31821 0.65211 0.14451 0.0
C3374 C 0.31923 0.59961 0.10131 0.0
C3375 C 0.31863 0.62257 0.16585 0.0
C3376 C 0.31827 0.62729 0.21783 0.0
C3377 C 0.31909 0.61446 0.06805 0.0
C3378 C 0.31877 0.63356 0.08403 0.0
C3379 C 0.3185 0.63742 0.1326 0.0
C3380 C 0.31867 0.6497 0.05055 0.0
C3381 C 0.31921 0.6097 0.01604 0.0
C3382 C 0.32481 0.65442 0.02495 0.0
C3383 C 0.32463 0.66903 0.99143 0.0
C3384 C 0.31826 0.67911 0.98277 0.0
C3385 C 0.31217 0.67471 0.0097 0.0
C3386 C 0.31239 0.66016 0.04348 0.0
H3387 H 0.31831 0.59426 0.00948 0.0
H3388 H 0.31507 0.61802 0.99691 0.0
H3389 H 0.32447 0.61366 0.00107 0.0
H3390 H 0.32972 0.64658 0.03042 0.0
H3391 H 0.32942 0.67205 0.97141 0.0
H3392 H 0.15678 0.45992 0.2212 0.0
H3393 H 0.14385 0.46124 0.20964 0.0
H3394 H 0.14698 0.47333 0.06163 0.0
H3395 H 0.15989 0.47184 0.07264 0.0
H3396 H 0.13532 0.49136 0.17487 0.0
H3397 H 0.13348 0.42723 0.06011 0.0
H3398 H 0.14129 0.43257 0.09504 0.0
H3399 H 0.13974 0.44492 0.0403 0.0
C3400 C 0.15472 0.46285 0.18617 0.0
C3401 C 0.15937 0.46562 0.14778 0.0
C3402 C 0.14733 0.46361 0.17965 0.0
C3403 C 0.14446 0.46707 0.13464 0.0
C3404 C 0.14908 0.47023 0.09646 0.0
H3405 H 0.10128 0.47297 0.02296 0.0
H3406 H 0.11422 0.47391 0.03403 0.0
C3407 C 0.15647 0.46946 0.1029 0.0
C3408 C 0.13662 0.46752 0.12768 0.0
H3409 H 0.12298 0.44563 0.06886 0.0
C3410 C 0.13261 0.48133 0.15183 0.0
C3411 C 0.13311 0.45445 0.09748 0.0
C3412 C 0.1371 0.43883 0.07202 0.0
C3413 C 0.12518 0.48262 0.14604 0.0
C3414 C 0.12166 0.46949 0.11599 0.0
C3415 C 0.12568 0.45571 0.09176 0.0
C3416 C 0.1138 0.46957 0.10972 0.0
C3417 C 0.1212 0.49828 0.1714 0.0
C3418 C 0.10927 0.46668 0.14853 0.0
C3419 C 0.10188 0.46621 0.14237 0.0
C3420 C 0.09886 0.46842 0.09713 0.0
C3421 C 0.10342 0.47125 0.05827 0.0
C3422 C 0.11082 0.47178 0.06452 0.0
H3423 H 0.1248 0.51016 0.18172 0.0
H3424 H 0.11685 0.50412 0.14903 0.0
H3425 H 0.11879 0.4924 0.20414 0.0
H3426 H 0.11145 0.4645 0.18356 0.0
H3427 H 0.09853 0.46388 0.17304 0.0
H3428 H 0.09791 0.77176 0.07155 0.0
H3429 H 0.11083 0.77053 0.05984 0.0
H3430 H 0.11405 0.77544 0.21025 0.0
H3431 H 0.10114 0.77665 0.22242 0.0
H3432 H 0.12092 0.79913 0.08848 0.0
H3433 H 0.12635 0.72875 0.1715 0.0
H3434 H 0.11755 0.7359 0.15266 0.0
H3435 H 0.12121 0.74506 0.20675 0.0
C3436 C 0.10136 0.77245 0.10222 0.0
C3437 C 0.09848 0.77428 0.14797 0.0
C3438 C 0.10874 0.77177 0.09542 0.0
C3439 C 0.11339 0.77268 0.13419 0.0
C3440 C 0.11055 0.77441 0.1799 0.0
H3441 H 0.15926 0.77424 0.17052 0.0
H3442 H 0.14632 0.77341 0.18048 0.0
C3443 C 0.10317 0.77519 0.18675 0.0
C3444 C 0.12122 0.77258 0.12665 0.0
H3445 H 0.13639 0.74741 0.15029 0.0
C3446 C 0.12431 0.78779 0.10173 0.0
C3447 C 0.12561 0.7578 0.1442 0.0
C3448 C 0.12253 0.74085 0.16996 0.0
C3449 C 0.13172 0.78882 0.09471 0.0
C3450 C 0.13612 0.77399 0.11211 0.0
C3451 C 0.13301 0.75875 0.13691 0.0
C3452 C 0.14399 0.77417 0.10559 0.0
C3453 C 0.13476 0.80607 0.06993 0.0
C3454 C 0.14699 0.77454 0.06012 0.0
C3455 C 0.1544 0.77513 0.05428 0.0
C3456 C 0.15895 0.77515 0.09382 0.0
C3457 C 0.15592 0.77431 0.13929 0.0
C3458 C 0.14852 0.77381 0.14508 0.0
H3459 H 0.13099 0.8183 0.07051 0.0
H3460 H 0.13985 0.81062 0.08646 0.0
H3461 H 0.13583 0.80243 0.03241 0.0
H3462 H 0.14361 0.77435 0.0291 0.0
H3463 H 0.15655 0.7756 0.01877 0.0
H3464 H 0.90931 0.5231 0.81969 0.0
H3465 H 0.89635 0.52249 0.81014 0.0
H3466 H 0.89378 0.51983 0.96148 0.0
H3467 H 0.90673 0.52071 0.97147 0.0
H3468 H 0.88637 0.49527 0.83927 0.0
H3469 H 0.88129 0.56531 0.9246 0.0
H3470 H 0.89008 0.55784 0.90637 0.0
H3471 H 0.88629 0.54889 0.96037 0.0
C3472 C 0.90599 0.52241 0.851 0.0
C3473 C 0.90906 0.52211 0.89639 0.0
C3474 C 0.89858 0.52203 0.84544 0.0
C3475 C 0.8941 0.52144 0.8851 0.0
C3476 C 0.89714 0.52071 0.93041 0.0
H3477 H 0.84823 0.52076 0.92543 0.0
H3478 H 0.86118 0.51936 0.93475 0.0
C3479 C 0.90455 0.5211 0.93603 0.0
C3480 C 0.88624 0.52148 0.87898 0.0
H3481 H 0.87116 0.54662 0.90561 0.0
C3482 C 0.88304 0.50652 0.8536 0.0
C3483 C 0.8819 0.53619 0.8977 0.0
C3484 C 0.88505 0.55307 0.92342 0.0
C3485 C 0.87562 0.5057 0.84717 0.0
C3486 C 0.87129 0.52039 0.86599 0.0
C3487 C 0.87449 0.53534 0.89133 0.0
C3488 C 0.86343 0.52058 0.8598 0.0
C3489 C 0.87246 0.48892 0.82116 0.0
C3490 C 0.8604 0.52184 0.81454 0.0
C3491 C 0.85299 0.52263 0.80905 0.0
C3492 C 0.84847 0.52231 0.84877 0.0
C3493 C 0.85154 0.52103 0.89406 0.0
C3494 C 0.85895 0.52024 0.89949 0.0
H3495 H 0.87622 0.47668 0.81965 0.0
H3496 H 0.86743 0.48411 0.83821 0.0
H3497 H 0.87121 0.49323 0.78434 0.0
H3498 H 0.86376 0.5225 0.78347 0.0
H3499 H 0.8508 0.52371 0.77369 0.0
H3500 H 0.90976 0.21595 0.92127 0.0
H3501 H 0.8968 0.21657 0.93039 0.0
H3502 H 0.89434 0.21847 0.77887 0.0
H3503 H 0.90729 0.21742 0.76935 0.0
H3504 H 0.88687 0.24297 0.90256 0.0
H3505 H 0.88175 0.17364 0.81405 0.0
H3506 H 0.89057 0.18112 0.8315 0.0
H3507 H 0.88661 0.19029 0.77821 0.0
C3508 C 0.90647 0.21647 0.88983 0.0
C3509 C 0.90957 0.21646 0.84454 0.0
C3510 C 0.89906 0.21684 0.89514 0.0
C3511 C 0.89459 0.2172 0.85532 0.0
C3512 C 0.89767 0.21771 0.81009 0.0
H3513 H 0.84856 0.21913 0.81832 0.0
H3514 H 0.86149 0.22084 0.80753 0.0
C3515 C 0.90509 0.21722 0.80472 0.0
C3516 C 0.88672 0.21715 0.86126 0.0
H3517 H 0.87162 0.19229 0.83351 0.0
C3518 C 0.88354 0.23186 0.88759 0.0
C3519 C 0.88238 0.20262 0.84176 0.0
C3520 C 0.8855 0.18592 0.81518 0.0
C3521 C 0.87612 0.23257 0.89441 0.0
C3522 C 0.87179 0.21808 0.8748 0.0
C3523 C 0.87496 0.20342 0.84834 0.0
C3524 C 0.86396 0.21769 0.88182 0.0
C3525 C 0.87297 0.24897 0.92189 0.0
C3526 C 0.86106 0.21523 0.92716 0.0
C3527 C 0.85367 0.2142 0.93347 0.0
C3528 C 0.84904 0.21554 0.8945 0.0
C3529 C 0.85197 0.21807 0.84912 0.0
C3530 C 0.85936 0.21904 0.84285 0.0
H3531 H 0.87675 0.26114 0.92474 0.0
H3532 H 0.86797 0.25408 0.90508 0.0
H3533 H 0.87167 0.24409 0.9582 0.0
H3534 H 0.86452 0.21383 0.95762 0.0
H3535 H 0.8516 0.21218 0.96887 0.0
H3536 H 0.15932 0.97246 0.57488 0.0
H3537 H 0.1464 0.97439 0.56439 0.0
H3538 H 0.14333 0.96001 0.7112 0.0
H3539 H 0.15626 0.95814 0.72219 0.0
H3540 H 0.13635 0.94476 0.58081 0.0
H3541 H 0.13098 0.00823 0.6929 0.0
H3542 H 0.1398 0.00234 0.67171 0.0
H3543 H 0.13606 0.98969 0.72107 0.0
C3544 C 0.15591 0.96982 0.60507 0.0
C3545 C 0.15883 0.96517 0.64943 0.0
C3546 C 0.14852 0.97092 0.59896 0.0
C3547 C 0.14391 0.96756 0.63712 0.0
C3548 C 0.1468 0.96298 0.68147 0.0
H3549 H 0.09815 0.96266 0.67445 0.0
H3550 H 0.1111 0.96287 0.68372 0.0
C3551 C 0.15419 0.96182 0.68761 0.0
C3552 C 0.13608 0.96816 0.63005 0.0
H3553 H 0.12092 0.99114 0.66495 0.0
C3554 C 0.13297 0.95496 0.59896 0.0
C3555 C 0.1317 0.98144 0.65393 0.0
C3556 C 0.13479 -0.00364 0.6865 0.0
C3557 C 0.12556 0.95441 0.59184 0.0
C3558 C 0.12117 0.96771 0.61571 0.0
C3559 C 0.12429 0.98097 0.64666 0.0
C3560 C 0.1133 0.9679 0.60968 0.0
C3561 C 0.1225 0.93923 0.5599 0.0
C3562 C 0.11022 0.97096 0.56506 0.0
C3563 C 0.10281 0.97076 0.55956 0.0
C3564 C 0.09833 0.96767 0.59869 0.0
C3565 C 0.10143 0.96502 0.64351 0.0
C3566 C 0.10884 0.96515 0.64892 0.0
H3567 H 0.12629 0.92724 0.55453 0.0
H3568 H 0.11745 0.93343 0.57455 0.0
H3569 H 0.12133 0.94557 0.52479 0.0
H3570 H 0.11356 0.97355 0.53446 0.0
H3571 H 0.1006 0.973 0.52463 0.0
H3572 H 0.09836 0.26803 0.5678 0.0
H3573 H 0.11129 0.26606 0.55679 0.0
H3574 H 0.11447 0.27894 0.70433 0.0
H3575 H 0.10157 0.28082 0.71584 0.0
H3576 H 0.12139 0.29514 0.57401 0.0
H3577 H 0.12677 0.23104 0.6837 0.0
H3578 H 0.11793 0.23723 0.6634 0.0
H3579 H 0.12178 0.2494 0.71318 0.0
C3580 C 0.10181 0.27032 0.59802 0.0
C3581 C 0.09893 0.27455 0.64276 0.0
C3582 C 0.10919 0.2692 0.59162 0.0
C3583 C 0.11383 0.27211 0.62985 0.0
C3584 C 0.11098 0.27629 0.67454 0.0
H3585 H 0.15947 0.27791 0.66995 0.0
H3586 H 0.1465 0.27734 0.67799 0.0
C3587 C 0.1036 0.27745 0.68098 0.0
C3588 C 0.12166 0.27152 0.62262 0.0
H3589 H 0.13685 0.24863 0.65757 0.0
C3590 C 0.12478 0.28489 0.59198 0.0
C3591 C 0.12606 0.25817 0.64623 0.0
C3592 C 0.12298 0.24302 0.67817 0.0
C3593 C 0.13219 0.28559 0.58522 0.0
C3594 C 0.1366 0.27229 0.60902 0.0
C3595 C 0.13347 0.25882 0.63937 0.0
C3596 C 0.14447 0.27237 0.6037 0.0
C3597 C 0.13526 0.30095 0.5538 0.0
C3598 C 0.14766 0.26948 0.55934 0.0
C3599 C 0.15508 0.26989 0.55455 0.0
C3600 C 0.15947 0.27302 0.59414 0.0
C3601 C 0.15626 0.27553 0.63868 0.0
C3602 C 0.14884 0.27518 0.64338 0.0
H3603 H 0.13142 0.31282 0.54819 0.0
H3604 H 0.14024 0.30689 0.56907 0.0
H3605 H 0.13654 0.29473 0.51875 0.0
H3606 H 0.1444 0.26687 0.52841 0.0
H3607 H 0.15737 0.26775 0.51982 0.0
H3608 H 0.84849 0.02603 0.42336 0.0
H3609 H 0.86144 0.02608 0.4326 0.0
H3610 H 0.86392 0.01617 0.28303 0.0
H3611 H 0.85096 0.01646 0.27325 0.0
H3612 H 0.8714 -0.00183 0.41272 0.0
H3613 H 0.87641 0.0629 0.30452 0.0
H3614 H 0.86762 0.0563 0.32451 0.0
H3615 H 0.87153 0.04457 0.27427 0.0
C3616 C 0.85178 0.02388 0.39236 0.0
C3617 C 0.84868 0.02139 0.34747 0.0
C3618 C 0.85919 0.0239 0.39774 0.0
C3619 C 0.86365 0.02147 0.3584 0.0
C3620 C 0.86058 0.01852 0.31372 0.0
H3621 H 0.90968 0.01888 0.32284 0.0
H3622 H 0.89676 0.0167 0.31234 0.0
C3623 C 0.85317 0.01857 0.30824 0.0
C3624 C 0.87152 0.0219 0.36435 0.0
H3625 H 0.88657 0.04562 0.33013 0.0
C3626 C 0.87472 0.00857 0.39477 0.0
C3627 C 0.87584 0.0355 0.34093 0.0
C3628 C 0.87268 0.05075 0.30956 0.0
C3629 C 0.88213 0.00832 0.40191 0.0
C3630 C 0.88644 0.02191 0.37849 0.0
C3631 C 0.88325 0.03519 0.34793 0.0
C3632 C 0.89427 0.02275 0.38547 0.0
C3633 C 0.8853 0.9933 0.43384 0.0
C3634 C 0.89715 0.02701 0.43004 0.0
C3635 C 0.90453 0.0283 0.4362 0.0
C3636 C 0.90918 0.02543 0.3978 0.0
C3637 C 0.90626 0.02116 0.35318 0.0
C3638 C 0.89888 0.01991 0.34707 0.0
H3639 H 0.88157 0.98121 0.43962 0.0
H3640 H 0.89035 0.98765 0.41888 0.0
H3641 H 0.88651 -0.00024 0.46874 0.0
H3642 H 0.89367 0.0296 0.45996 0.0
H3643 H 0.90659 0.03169 0.47097 0.0
H3644 H 0.85064 0.67594 0.40249 0.0
H3645 H 0.86357 0.6795 0.396 0.0
H3646 H 0.86086 0.73775 0.3502 0.0
H3647 H 0.84792 0.73445 0.35749 0.0
H3648 H 0.87153 0.68768 0.31797 0.0
H3649 H 0.87554 0.74331 0.455 0.0
H3650 H 0.86732 0.7301 0.44938 0.0
H3651 H 0.86918 0.74973 0.41034 0.0
C3652 C 0.85279 0.68957 0.39134 0.0
C3653 C 0.84824 0.70494 0.38067 0.0
C3654 C 0.86018 0.69156 0.38759 0.0
C3655 C 0.86319 0.70896 0.37321 0.0
C3656 C 0.85867 0.72432 0.36234 0.0
H3657 H 0.90686 0.72118 0.27003 0.0
H3658 H 0.89387 0.72018 0.27737 0.0
C3659 C 0.85127 0.72237 0.36627 0.0
C3660 C 0.87105 0.71073 0.36819 0.0
H3661 H 0.88555 0.7357 0.40718 0.0
C3662 C 0.8746 0.69817 0.3375 0.0
C3663 C 0.87506 0.72428 0.3941 0.0
C3664 C 0.8716 0.73751 0.42941 0.0
C3665 C 0.88203 0.69884 0.3318 0.0
C3666 C 0.88602 0.71272 0.35675 0.0
C3667 C 0.88248 0.7252 0.3877 0.0
C3668 C 0.89389 0.7141 0.35239 0.0
C3669 C 0.88556 0.68435 0.3 0.0
C3670 C 0.89822 0.71164 0.39239 0.0
C3671 C 0.90565 0.71237 0.38841 0.0
C3672 C 0.9089 0.71561 0.34429 0.0
C3673 C 0.90454 0.71849 0.30445 0.0
C3674 C 0.89711 0.71782 0.30852 0.0
H3675 H 0.88206 0.67183 0.29345 0.0
H3676 H 0.88676 0.69107 0.26538 0.0
H3677 H 0.89066 0.67924 0.31551 0.0
H3678 H 0.89586 0.70885 0.42664 0.0
H3679 H 0.90884 0.71017 0.41986 0.0
H3680 H 0.65939 0.46494 0.56787 0.0
H3681 H 0.64643 0.46561 0.55814 0.0
H3682 H 0.64385 0.47196 0.70878 0.0
H3683 H 0.65681 0.47145 0.71891 0.0
H3684 H 0.63641 0.44037 0.59846 0.0
H3685 H 0.63147 0.51518 0.65435 0.0
H3686 H 0.64022 0.50657 0.63846 0.0
H3687 H 0.63654 0.50117 0.69557 0.0
C3688 C 0.65608 0.46659 0.59896 0.0
C3689 C 0.65915 0.46818 0.6442 0.0
C3690 C 0.64867 0.46696 0.5933 0.0
C3691 C 0.64419 0.46907 0.63265 0.0
C3692 C 0.64722 0.47067 0.67784 0.0
H3693 H 0.59829 0.47007 0.67332 0.0
H3694 H 0.61126 0.47114 0.68257 0.0
C3695 C 0.65463 0.47027 0.68357 0.0
C3696 C 0.63633 0.46892 0.6265 0.0
H3697 H 0.62129 0.49567 0.6425 0.0
C3698 C 0.6331 0.45248 0.60785 0.0
C3699 C 0.63203 0.48472 0.63897 0.0
C3700 C 0.63523 0.50299 0.65759 0.0
C3701 C 0.62568 0.45129 0.60206 0.0
C3702 C 0.62138 0.46712 0.61438 0.0
C3703 C 0.6246 0.48356 0.63307 0.0
C3704 C 0.61351 0.46686 0.60832 0.0
C3705 C 0.6225 0.43292 0.5839 0.0
C3706 C 0.61047 0.46444 0.56336 0.0
C3707 C 0.60306 0.46377 0.55794 0.0
C3708 C 0.59854 0.46564 0.59737 0.0
C3709 C 0.60161 0.46849 0.64223 0.0
C3710 C 0.60902 0.46914 0.6476 0.0
H3711 H 0.62623 0.42073 0.58804 0.0
H3712 H 0.61746 0.42948 0.60265 0.0
H3713 H 0.62129 0.43447 0.5457 0.0
H3714 H 0.61383 0.46307 0.53241 0.0
H3715 H 0.60088 0.46169 0.52286 0.0
H3716 H 0.59796 0.77296 0.57253 0.0
H3717 H 0.61092 0.77214 0.56308 0.0
H3718 H 0.61351 0.77303 0.71452 0.0
H3719 H 0.60055 0.7738 0.72443 0.0
H3720 H 0.6208 0.79994 0.59779 0.0
H3721 H 0.62609 0.7277 0.6709 0.0
H3722 H 0.61733 0.7352 0.65188 0.0
H3723 H 0.6208 0.74309 0.70774 0.0
C3724 C 0.60128 0.77285 0.60389 0.0
C3725 C 0.59821 0.77342 0.64928 0.0
C3726 C 0.60868 0.7724 0.59839 0.0
C3727 C 0.61317 0.77231 0.63808 0.0
C3728 C 0.61014 0.77278 0.68343 0.0
H3729 H 0.65909 0.77336 0.67752 0.0
H3730 H 0.64614 0.77239 0.6875 0.0
C3731 C 0.60273 0.77331 0.689 0.0
C3732 C 0.62102 0.7725 0.63192 0.0
H3733 H 0.63616 0.74685 0.65342 0.0
C3734 C 0.62416 0.78831 0.60974 0.0
C3735 C 0.62538 0.75734 0.64781 0.0
C3736 C 0.62225 0.73978 0.67059 0.0
C3737 C 0.63158 0.78952 0.60364 0.0
C3738 C 0.63595 0.77429 0.61918 0.0
C3739 C 0.6328 0.75849 0.64147 0.0
C3740 C 0.64381 0.77453 0.61278 0.0
C3741 C 0.63467 0.80731 0.58166 0.0
C3742 C 0.6468 0.77571 0.56739 0.0
C3743 C 0.6542 0.77636 0.56156 0.0
C3744 C 0.65876 0.77566 0.60101 0.0
C3745 C 0.65574 0.77401 0.64638 0.0
C3746 C 0.64834 0.77343 0.65217 0.0
H3747 H 0.63091 0.81953 0.58379 0.0
H3748 H 0.63974 0.81143 0.59918 0.0
H3749 H 0.6358 0.80458 0.54375 0.0
H3750 H 0.64341 0.77612 0.53641 0.0
H3751 H 0.65634 0.77746 0.5261 0.0
H3752 H 0.40732 0.53354 0.47343 0.0
H3753 H 0.39436 0.5315 0.46458 0.0
H3754 H 0.39693 0.51629 0.31784 0.0
H3755 H 0.40988 0.51801 0.32647 0.0
H3756 H 0.38573 0.55252 0.40442 0.0
H3757 H 0.38333 0.47516 0.36567 0.0
H3758 H 0.39135 0.48559 0.38978 0.0
H3759 H 0.38944 0.48757 0.32767 0.0
C3760 C 0.40513 0.52961 0.43935 0.0
C3761 C 0.40964 0.52589 0.40069 0.0
C3762 C 0.39772 0.52847 0.43435 0.0
C3763 C 0.39468 0.52348 0.39074 0.0
C3764 C 0.39916 0.51977 0.35208 0.0
H3765 H 0.35143 0.51666 0.28242 0.0
H3766 H 0.36439 0.5167 0.29308 0.0
C3767 C 0.40657 0.52088 0.35703 0.0
C3768 C 0.38681 0.52293 0.38522 0.0
H3769 H 0.37291 0.49394 0.35454 0.0
C3770 C 0.38292 0.53968 0.39381 0.0
C3771 C 0.38316 0.50618 0.37123 0.0
C3772 C 0.38702 0.48755 0.36345 0.0
C3773 C 0.37549 0.54024 0.38796 0.0
C3774 C 0.37184 0.52351 0.37385 0.0
C3775 C 0.37573 0.50675 0.36528 0.0
C3776 C 0.36399 0.52315 0.36781 0.0
C3777 C 0.37162 0.55885 0.3959 0.0
C3778 C 0.35947 0.52646 0.40647 0.0
C3779 C 0.35207 0.52644 0.40055 0.0
C3780 C 0.34904 0.52305 0.35581 0.0
C3781 C 0.35359 0.5194 0.3173 0.0
C3782 C 0.36099 0.51939 0.32331 0.0
H3783 H 0.37531 0.57124 0.3952 0.0
H3784 H 0.36743 0.56105 0.3687 0.0
H3785 H 0.36899 0.55852 0.43106 0.0
H3786 H 0.36167 0.52904 0.4413 0.0
H3787 H 0.34872 0.52918 0.43103 0.0
H3788 H 0.40924 0.21873 0.4258 0.0
H3789 H 0.39627 0.21931 0.43499 0.0
H3790 H 0.39376 0.21646 0.28363 0.0
H3791 H 0.40671 0.21563 0.27404 0.0
H3792 H 0.38619 0.24524 0.39901 0.0
H3793 H 0.38147 0.17197 0.33107 0.0
H3794 H 0.39021 0.18037 0.34798 0.0
H3795 H 0.38647 0.18706 0.29186 0.0
C3796 C 0.40593 0.21821 0.39442 0.0
C3797 C 0.40902 0.21699 0.34917 0.0
C3798 C 0.39852 0.21857 0.39977 0.0
C3799 C 0.39405 0.21762 0.36006 0.0
C3800 C 0.39711 0.21681 0.31481 0.0
H3801 H 0.34825 0.2155 0.31815 0.0
H3802 H 0.36121 0.21666 0.30912 0.0
C3803 C 0.40452 0.21645 0.3094 0.0
C3804 C 0.38619 0.21756 0.36602 0.0
H3805 H 0.37125 0.19098 0.34533 0.0
C3806 C 0.38292 0.23336 0.38746 0.0
C3807 C 0.38194 0.20202 0.35093 0.0
C3808 C 0.38519 0.1843 0.32955 0.0
C3809 C 0.37549 0.2342 0.39341 0.0
C3810 C 0.37124 0.21868 0.37822 0.0
C3811 C 0.37452 0.20287 0.35684 0.0
C3812 C 0.36338 0.21852 0.38409 0.0
C3813 C 0.37223 0.25186 0.41495 0.0
C3814 C 0.3603 0.21904 0.4293 0.0
C3815 C 0.35288 0.21838 0.43463 0.0
C3816 C 0.34841 0.21707 0.39482 0.0
C3817 C 0.35153 0.21652 0.34958 0.0
C3818 C 0.35894 0.21717 0.34431 0.0
H3819 H 0.37594 0.26421 0.41357 0.0
H3820 H 0.36721 0.2558 0.39655 0.0
H3821 H 0.37095 0.24903 0.4526 0.0
H3822 H 0.36363 0.2197 0.46052 0.0
H3823 H 0.35066 0.21874 0.46997 0.0
H3824 H 0.65638 0.97156 0.22045 0.0
H3825 H 0.64342 0.9716 0.20963 0.0
H3826 H 0.64623 0.96666 0.05885 0.0
H3827 H 0.65917 0.96645 0.06922 0.0
H3828 H 0.63474 -0.00327 0.15515 0.0
H3829 H 0.6329 0.92184 0.09192 0.0
H3830 H 0.64071 0.93109 0.12138 0.0
H3831 H 0.63914 0.93648 0.06015 0.0
C3832 C 0.65425 0.97049 0.18497 0.0
C3833 C 0.65882 0.96886 0.14573 0.0
C3834 C 0.64684 0.97053 0.17887 0.0
C3835 C 0.64387 0.96883 0.13353 0.0
C3836 C 0.64841 0.96761 0.09423 0.0
H3837 H 0.60078 0.96132 0.0231 0.0
H3838 H 0.6137 0.96356 0.03351 0.0
C3839 C 0.65581 0.96759 0.10025 0.0
C3840 C 0.63603 0.96836 0.12725 0.0
H3841 H 0.62237 0.94038 0.0876 0.0
C3842 C 0.63202 0.9844 0.14056 0.0
C3843 C 0.63251 0.95226 0.10813 0.0
C3844 C 0.63651 0.93436 0.09491 0.0
C3845 C 0.62459 0.98491 0.13442 0.0
C3846 C 0.62107 0.96878 0.11534 0.0
C3847 C 0.62508 0.95275 0.1021 0.0
C3848 C 0.61321 0.96814 0.10909 0.0
C3849 C 0.6206 0.00285 0.14744 0.0
C3850 C 0.60865 0.96986 0.14817 0.0
C3851 C 0.60126 0.96865 0.14234 0.0
C3852 C 0.59829 0.96551 0.09731 0.0
C3853 C 0.60288 0.96377 0.05824 0.0
C3854 C 0.61027 0.96503 0.06412 0.0
H3855 H 0.6242 0.01543 0.14904 0.0
H3856 H 0.61627 0.00584 0.12168 0.0
H3857 H 0.61815 0.001 0.18286 0.0
H3858 H 0.6108 0.97185 0.18335 0.0
H3859 H 0.59788 0.96996 0.17323 0.0
H3860 H 0.60154 0.28625 0.21813 0.0
H3861 H 0.61445 0.28451 0.2065 0.0
H3862 H 0.61121 0.26221 0.06607 0.0
H3863 H 0.59829 0.26409 0.07709 0.0
H3864 H 0.62307 0.25283 0.18505 0.0
H3865 H 0.62451 0.30777 0.04375 0.0
H3866 H 0.61674 0.30473 0.08067 0.0
H3867 H 0.61837 0.28863 0.03242 0.0
C3868 C 0.60356 0.28097 0.18474 0.0
C3869 C 0.59887 0.27544 0.14841 0.0
C3870 C 0.61094 0.27998 0.17819 0.0
C3871 C 0.61378 0.27353 0.13516 0.0
C3872 C 0.60913 0.26762 0.09919 0.0
H3873 H 0.65729 0.26305 0.02989 0.0
H3874 H 0.64433 0.26201 0.0398 0.0
C3875 C 0.60174 0.26862 0.10567 0.0
C3876 C 0.62162 0.27287 0.12819 0.0
H3877 H 0.63516 0.29117 0.06132 0.0
C3878 C 0.62572 0.26123 0.15806 0.0
C3879 C 0.62506 0.2838 0.09283 0.0
C3880 C 0.62097 0.29708 0.06079 0.0
C3881 C 0.63316 0.26005 0.15325 0.0
C3882 C 0.63661 0.27114 0.11822 0.0
C3883 C 0.63251 0.28267 0.08811 0.0
C3884 C 0.64449 0.27129 0.11276 0.0
C3885 C 0.63724 0.24668 0.18518 0.0
C3886 C 0.64889 0.27703 0.15032 0.0
C3887 C 0.6563 0.27754 0.14486 0.0
C3888 C 0.65946 0.27255 0.10148 0.0
C3889 C 0.65504 0.26696 0.06377 0.0
C3890 C 0.64763 0.26637 0.06936 0.0
H3891 H 0.63373 0.23535 0.19985 0.0
H3892 H 0.64173 0.23982 0.16608 0.0
H3893 H 0.63946 0.25489 0.21533 0.0
H3894 H 0.64659 0.28135 0.18376 0.0
H3895 H 0.65953 0.28206 0.17453 0.0
H3896 H 0.35035 0.01683 0.77239 0.0
H3897 H 0.36331 0.01565 0.78223 0.0
H3898 H 0.36093 0.02693 0.93126 0.0
H3899 H 0.34798 0.02782 0.92198 0.0
H3900 H 0.37231 0.04407 0.81452 0.0
H3901 H 0.37399 0.98058 0.93105 0.0
H3902 H 0.36602 0.98659 0.89851 0.0
H3903 H 0.3681 -0.00124 0.95277 0.0
C3904 C 0.35258 0.01894 0.80734 0.0
C3905 C 0.34812 0.02236 0.84643 0.0
C3906 C 0.35999 0.01827 0.81288 0.0
C3907 C 0.36308 0.0209 0.8576 0.0
C3908 C 0.35865 0.02442 0.89662 0.0
H3909 H 0.40603 0.0302 0.96776 0.0
H3910 H 0.39312 0.02887 0.95579 0.0
C3911 C 0.35125 0.02505 0.89116 0.0
C3912 C 0.37096 0.02072 0.86315 0.0
H3913 H 0.38458 -0.00103 0.92249 0.0
C3914 C 0.375 0.03412 0.83783 0.0
C3915 C 0.37446 0.00775 0.89369 0.0
C3916 C 0.37043 0.99248 0.92024 0.0
C3917 C 0.38244 0.0352 0.84307 0.0
C3918 C 0.38593 0.02232 0.87388 0.0
C3919 C 0.38189 0.00885 0.89897 0.0
C3920 C 0.39377 0.02275 0.88095 0.0
C3921 C 0.38647 0.05048 0.81658 0.0
C3922 C 0.39843 0.01942 0.843 0.0
C3923 C 0.40581 0.02022 0.84967 0.0
C3924 C 0.40868 0.02422 0.89455 0.0
C3925 C 0.404 0.02713 0.93271 0.0
C3926 C 0.39662 0.02637 0.92597 0.0
H3927 H 0.38288 0.06206 0.80416 0.0
H3928 H 0.3907 0.05685 0.83906 0.0
H3929 H 0.38905 0.04405 0.78509 0.0
H3930 H 0.39635 0.01619 0.80818 0.0
H3931 H 0.40927 0.01774 0.81959 0.0
H3932 H 0.40675 0.71583 0.76466 0.0
H3933 H 0.39379 0.7175 0.77379 0.0
H3934 H 0.39619 0.71785 0.92542 0.0
H3935 H 0.40913 0.71659 0.91667 0.0
H3936 H 0.38487 0.69216 0.81719 0.0
H3937 H 0.3829 0.76265 0.90513 0.0
H3938 H 0.39095 0.75459 0.87643 0.0
H3939 H 0.38878 0.74644 0.93502 0.0
C3940 C 0.40452 0.71642 0.79997 0.0
C3941 C 0.40899 0.71616 0.83993 0.0
C3942 C 0.39711 0.71735 0.80511 0.0
C3943 C 0.39401 0.71812 0.85026 0.0
C3944 C 0.39845 0.71776 0.89021 0.0
H3945 H 0.35107 0.71293 0.96192 0.0
H3946 H 0.36399 0.71404 0.94976 0.0
C3947 C 0.40586 0.7169 0.88512 0.0
C3948 C 0.38613 0.71848 0.85561 0.0
H3949 H 0.37239 0.74351 0.90513 0.0
C3950 C 0.38214 0.70347 0.83607 0.0
C3951 C 0.38257 0.73324 0.8803 0.0
C3952 C 0.38651 0.75024 0.90003 0.0
C3953 C 0.3747 0.70259 0.8415 0.0
C3954 C 0.37116 0.71722 0.86667 0.0
C3955 C 0.37513 0.73229 0.88597 0.0
C3956 C 0.36332 0.71701 0.87378 0.0
C3957 C 0.37071 0.68577 0.82129 0.0
C3958 C 0.35867 0.71862 0.83513 0.0
C3959 C 0.35129 0.71804 0.84193 0.0
C3960 C 0.34841 0.71585 0.88757 0.0
C3961 C 0.3531 0.71456 0.92629 0.0
C3962 C 0.36048 0.71521 0.91944 0.0
H3963 H 0.37434 0.6738 0.81213 0.0
H3964 H 0.36664 0.68051 0.8467 0.0
H3965 H 0.3679 0.69027 0.78859 0.0
H3966 H 0.36076 0.72033 0.79967 0.0
H3967 H 0.34784 0.71917 0.81135 0.0
loop_
_geom_bond_atom_site_label_1
_geom_bond_atom_site_label_2
_geom_bond_distance
_geom_bond_site_symmetry_2
_ccdc_geom_bond_type
Co0 O3 1.970 . S
Co0 N17 1.989 . S
Co0 O25 1.967 . S
Co0 O32 1.920 . S
Co1 O4 1.966 . S
Co1 N10 2.022 . S
Co1 N18 1.993 . S
Co1 O26 1.941 . S
C2 O3 1.258 . S
C2 O4 1.263 . S
O3 Co0 1.970 . S
O3 C2 1.258 . S
O4 Co1 1.966 . S
O4 C2 1.263 . S
C5 O6 1.235 . S
C5 O32 1.289 . S
O6 C5 1.235 . S
C7 C9 1.400 . S
C7 N10 1.351 . S
C7 C12 1.501 . S
C8 C9 1.387 . S
C8 N11 1.341 . S
C9 C7 1.400 . S
C9 C8 1.387 . S
N10 Co1 2.022 . S
N10 C7 1.351 . S
N10 N11 1.365 . S
N11 C8 1.341 . S
N11 N10 1.365 . S
N11 H31 0.862 . S
C12 C7 1.501 . S
C12 H13 0.961 . S
C12 H14 0.961 1_554 S
C12 H15 0.960 . S
H13 C12 0.961 . S
H14 C12 0.961 1_556 S
H15 C12 0.960 . S
C16 N17 1.342 . S
C16 C20 1.401 . S
C16 C21 1.499 . S
N17 Co0 1.989 . S
N17 C16 1.342 . S
N17 N18 1.388 . S
N18 Co1 1.993 . S
N18 N17 1.388 . S
N18 C19 1.346 . S
C19 N18 1.346 . S
C19 C20 1.396 . S
C19 C29 1.510 . S
C20 C16 1.401 . S
C20 C19 1.396 . S
C21 C16 1.499 . S
C21 H22 0.959 . S
C21 H23 0.960 . S
C21 H24 0.961 . S
H22 C21 0.959 . S
H23 C21 0.960 . S
H24 C21 0.961 . S
O25 Co0 1.967 . S
O25 C33 1.258 . S
O26 Co1 1.941 . S
O26 C33 1.266 . S
H27 C29 0.959 . S
H28 C29 0.961 . S
C29 C19 1.510 . S
C29 H27 0.959 . S
C29 H28 0.961 . S
C29 H30 0.960 . S
H30 C29 0.960 . S
H31 N11 0.862 . S
O32 Co0 1.920 . S
O32 C5 1.289 . S
C33 O25 1.258 . S
C33 O26 1.266 . S
Co34 O37 1.970 . S
Co34 N51 1.989 . S
Co34 O59 1.967 . S
Co34 O66 1.920 . S
Co35 O38 1.966 . S
Co35 N44 2.022 . S
Co35 N52 1.993 . S
Co35 O60 1.941 . S
C36 O37 1.258 . S
C36 O38 1.263 . S
O37 Co34 1.970 . S
O37 C36 1.258 . S
O38 Co35 1.966 . S
O38 C36 1.263 . S
C39 O40 1.235 . S
C39 O66 1.289 . S
O40 C39 1.235 . S
C41 C43 1.400 . S
C41 N44 1.351 . S
C41 C46 1.501 . S
C42 C43 1.387 . S
C42 N45 1.341 . S
C43 C41 1.400 . S
C43 C42 1.387 . S
N44 Co35 2.022 . S
N44 C41 1.351 . S
N44 N45 1.365 . S
N45 C42 1.341 . S
N45 N44 1.365 . S
N45 H65 0.862 . S
C46 C41 1.501 . S
C46 H47 0.961 . S
C46 H48 0.961 1_554 S
C46 H49 0.960 . S
H47 C46 0.961 . S
H48 C46 0.961 1_556 S
H49 C46 0.960 . S
C50 N51 1.342 . S
C50 C54 1.401 . S
C50 C55 1.499 . S
N51 Co34 1.989 . S
N51 C50 1.342 . S
N51 N52 1.388 . S
N52 Co35 1.993 . S
N52 N51 1.388 . S
N52 C53 1.346 . S
C53 N52 1.346 . S
C53 C54 1.396 . S
C53 C63 1.510 . S
C54 C50 1.401 . S
C54 C53 1.396 . S
C55 C50 1.499 . S
C55 H56 0.959 . S
C55 H57 0.960 . S
C55 H58 0.961 . S
H56 C55 0.959 . S
H57 C55 0.960 . S
H58 C55 0.961 . S
O59 Co34 1.967 . S
O59 C67 1.258 . S
O60 Co35 1.941 . S
O60 C67 1.266 . S
H61 C63 0.959 . S
H62 C63 0.961 . S
C63 C53 1.510 . S
C63 H61 0.959 . S
C63 H62 0.961 . S
C63 H64 0.960 . S
H64 C63 0.960 . S
H65 N45 0.862 . S
O66 Co34 1.920 . S
O66 C39 1.289 . S
C67 O59 1.258 . S
C67 O60 1.266 . S
Co68 O71 1.970 . S
Co68 N85 1.989 . S
Co68 O93 1.967 . S
Co68 O100 1.920 . S
Co69 O72 1.966 . S
Co69 N78 2.022 . S
Co69 N86 1.993 . S
Co69 O94 1.941 . S
C70 O71 1.258 . S
C70 O72 1.263 . S
O71 Co68 1.970 . S
O71 C70 1.258 . S
O72 Co69 1.966 . S
O72 C70 1.263 . S
C73 O74 1.235 . S
C73 O100 1.289 . S
O74 C73 1.235 . S
C75 C77 1.400 . S
C75 N78 1.351 . S
C75 C80 1.501 . S
C76 C77 1.387 . S
C76 N79 1.341 . S
C77 C75 1.400 . S
C77 C76 1.387 . S
N78 Co69 2.022 . S
N78 C75 1.351 . S
N78 N79 1.365 . S
N79 C76 1.341 . S
N79 N78 1.365 . S
N79 H99 0.862 . S
C80 C75 1.501 . S
C80 H81 0.961 . S
C80 H82 0.961 . S
C80 H83 0.960 . S
H81 C80 0.961 . S
H82 C80 0.961 . S
H83 C80 0.960 . S
C84 N85 1.342 . S
C84 C88 1.401 . S
C84 C89 1.499 . S
N85 Co68 1.989 . S
N85 C84 1.342 . S
N85 N86 1.388 . S
N86 Co69 1.993 . S
N86 N85 1.388 . S
N86 C87 1.346 . S
C87 N86 1.346 . S
C87 C88 1.396 . S
C87 C97 1.510 . S
C88 C84 1.401 . S
C88 C87 1.396 . S
C89 C84 1.499 . S
C89 H90 0.959 . S
C89 H91 0.960 . S
C89 H92 0.961 . S
H90 C89 0.959 . S
H91 C89 0.960 . S
H92 C89 0.961 . S
O93 Co68 1.967 . S
O93 C101 1.258 . S
O94 Co69 1.941 . S
O94 C101 1.266 . S
H95 C97 0.959 . S
H96 C97 0.961 . S
C97 C87 1.510 . S
C97 H95 0.959 . S
C97 H96 0.961 . S
C97 H98 0.960 . S
H98 C97 0.960 . S
H99 N79 0.862 . S
O100 Co68 1.920 . S
O100 C73 1.289 . S
C101 O93 1.258 . S
C101 O94 1.266 . S
Co102 O105 1.970 . S
Co102 N119 1.989 . S
Co102 O127 1.967 . S
Co102 O134 1.920 . S
Co103 O106 1.966 . S
Co103 N112 2.022 . S
Co103 N120 1.993 . S
Co103 O128 1.941 . S
C104 O105 1.258 . S
C104 O106 1.263 . S
O105 Co102 1.970 . S
O105 C104 1.258 . S
O106 Co103 1.966 . S
O106 C104 1.263 . S
C107 O108 1.235 . S
C107 O134 1.289 . S
O108 C107 1.235 . S
C109 C111 1.400 . S
C109 N112 1.351 . S
C109 C114 1.501 . S
C110 C111 1.387 . S
C110 N113 1.341 . S
C111 C109 1.400 . S
C111 C110 1.387 . S
N112 Co103 2.022 . S
N112 C109 1.351 . S
N112 N113 1.365 . S
N113 C110 1.341 . S
N113 N112 1.365 . S
N113 H133 0.862 . S
C114 C109 1.501 . S
C114 H115 0.961 . S
C114 H116 0.961 . S
C114 H117 0.960 . S
H115 C114 0.961 . S
H116 C114 0.961 . S
H117 C114 0.960 . S
C118 N119 1.342 . S
C118 C122 1.401 . S
C118 C123 1.499 . S
N119 Co102 1.989 . S
N119 C118 1.342 . S
N119 N120 1.388 . S
N120 Co103 1.993 . S
N120 N119 1.388 . S
N120 C121 1.346 . S
C121 N120 1.346 . S
C121 C122 1.396 . S
C121 C131 1.510 . S
C122 C118 1.401 . S
C122 C121 1.396 . S
C123 C118 1.499 . S
C123 H124 0.959 . S
C123 H125 0.960 . S
C123 H126 0.961 . S
H124 C123 0.959 . S
H125 C123 0.960 . S
H126 C123 0.961 . S
O127 Co102 1.967 . S
O127 C135 1.258 . S
O128 Co103 1.941 . S
O128 C135 1.266 . S
H129 C131 0.959 . S
H130 C131 0.961 . S
C131 C121 1.510 . S
C131 H129 0.959 . S
C131 H130 0.961 . S
C131 H132 0.960 . S
H132 C131 0.960 . S
H133 N113 0.862 . S
O134 Co102 1.920 . S
O134 C107 1.289 . S
C135 O127 1.258 . S
C135 O128 1.266 . S
Co136 O139 1.970 . S
Co136 N153 1.989 . S
Co136 O161 1.967 . S
Co136 O168 1.920 . S
Co137 O140 1.966 . S
Co137 N146 2.022 . S
Co137 N154 1.993 . S
Co137 O162 1.941 . S
C138 O139 1.258 . S
C138 O140 1.263 . S
O139 Co136 1.970 . S
O139 C138 1.258 . S
O140 Co137 1.966 . S
O140 C138 1.263 . S
C141 O142 1.235 . S
C141 O168 1.289 . S
O142 C141 1.235 . S
C143 C145 1.400 . S
C143 N146 1.351 . S
C143 C148 1.501 . S
C144 C145 1.387 . S
C144 N147 1.341 . S
C145 C143 1.400 . S
C145 C144 1.387 . S
N146 Co137 2.022 . S
N146 C143 1.351 . S
N146 N147 1.365 . S
N147 C144 1.341 . S
N147 N146 1.365 . S
N147 H167 0.862 . S
C148 C143 1.501 . S
C148 H149 0.961 . S
C148 H150 0.961 1_556 S
C148 H151 0.960 . S
H149 C148 0.961 . S
H150 C148 0.961 1_554 S
H151 C148 0.960 . S
C152 N153 1.342 . S
C152 C156 1.401 . S
C152 C157 1.499 . S
N153 Co136 1.989 . S
N153 C152 1.342 . S
N153 N154 1.388 . S
N154 Co137 1.993 . S
N154 N153 1.388 . S
N154 C155 1.346 . S
C155 N154 1.346 . S
C155 C156 1.396 . S
C155 C165 1.510 . S
C156 C152 1.401 . S
C156 C155 1.396 . S
C157 C152 1.499 . S
C157 H158 0.959 . S
C157 H159 0.960 . S
C157 H160 0.961 . S
H158 C157 0.959 . S
H159 C157 0.960 . S
H160 C157 0.961 . S
O161 Co136 1.967 . S
O161 C169 1.258 . S
O162 Co137 1.941 . S
O162 C169 1.266 . S
H163 C165 0.959 . S
H164 C165 0.961 . S
C165 C155 1.510 . S
C165 H163 0.959 . S
C165 H164 0.961 . S
C165 H166 0.960 . S
H166 C165 0.960 . S
H167 N147 0.862 . S
O168 Co136 1.920 . S
O168 C141 1.289 . S
C169 O161 1.258 . S
C169 O162 1.266 . S
Co170 O173 1.970 . S
Co170 N187 1.989 . S
Co170 O195 1.967 . S
Co170 O202 1.920 . S
Co171 O174 1.966 . S
Co171 N180 2.022 . S
Co171 N188 1.993 . S
Co171 O196 1.941 . S
C172 O173 1.258 . S
C172 O174 1.263 . S
O173 Co170 1.970 . S
O173 C172 1.258 . S
O174 Co171 1.966 . S
O174 C172 1.263 . S
C175 O176 1.235 . S
C175 O202 1.289 . S
O176 C175 1.235 . S
C177 C179 1.400 . S
C177 N180 1.351 . S
C177 C182 1.501 . S
C178 C179 1.387 . S
C178 N181 1.341 . S
C179 C177 1.400 . S
C179 C178 1.387 . S
N180 Co171 2.022 . S
N180 C177 1.351 . S
N180 N181 1.365 . S
N181 C178 1.341 . S
N181 N180 1.365 . S
N181 H201 0.862 . S
C182 C177 1.501 . S
C182 H183 0.961 . S
C182 H184 0.961 1_556 S
C182 H185 0.960 . S
H183 C182 0.961 . S
H184 C182 0.961 1_554 S
H185 C182 0.960 . S
C186 N187 1.342 . S
C186 C190 1.401 . S
C186 C191 1.499 . S
N187 Co170 1.989 . S
N187 C186 1.342 . S
N187 N188 1.388 . S
N188 Co171 1.993 . S
N188 N187 1.388 . S
N188 C189 1.346 . S
C189 N188 1.346 . S
C189 C190 1.396 . S
C189 C199 1.510 . S
C190 C186 1.401 . S
C190 C189 1.396 . S
C191 C186 1.499 . S
C191 H192 0.959 . S
C191 H193 0.960 . S
C191 H194 0.961 . S
H192 C191 0.959 . S
H193 C191 0.960 . S
H194 C191 0.961 . S
O195 Co170 1.967 . S
O195 C203 1.258 . S
O196 Co171 1.941 . S
O196 C203 1.266 . S
H197 C199 0.959 . S
H198 C199 0.961 . S
C199 C189 1.510 . S
C199 H197 0.959 . S
C199 H198 0.961 . S
C199 H200 0.960 . S
H200 C199 0.960 . S
H201 N181 0.862 . S
O202 Co170 1.920 . S
O202 C175 1.289 . S
C203 O195 1.258 . S
C203 O196 1.266 . S
Co204 O207 1.970 . S
Co204 N221 1.989 . S
Co204 O229 1.967 . S
Co204 O236 1.920 . S
Co205 O208 1.966 . S
Co205 N214 2.022 . S
Co205 N222 1.993 . S
Co205 O230 1.941 . S
C206 O207 1.258 . S
C206 O208 1.263 . S
O207 Co204 1.970 . S
O207 C206 1.258 . S
O208 Co205 1.966 . S
O208 C206 1.263 . S
C209 O210 1.235 . S
C209 O236 1.289 . S
O210 C209 1.235 . S
C211 C213 1.400 . S
C211 N214 1.351 . S
C211 C216 1.501 . S
C212 C213 1.387 . S
C212 N215 1.341 . S
C213 C211 1.400 . S
C213 C212 1.387 . S
N214 Co205 2.022 . S
N214 C211 1.351 . S
N214 N215 1.365 . S
N215 C212 1.341 . S
N215 N214 1.365 . S
N215 H235 0.862 . S
C216 C211 1.501 . S
C216 H217 0.961 . S
C216 H218 0.961 . S
C216 H219 0.960 . S
H217 C216 0.961 . S
H218 C216 0.961 . S
H219 C216 0.960 . S
C220 N221 1.342 . S
C220 C224 1.401 . S
C220 C225 1.499 . S
N221 Co204 1.989 . S
N221 C220 1.342 . S
N221 N222 1.388 . S
N222 Co205 1.993 . S
N222 N221 1.388 . S
N222 C223 1.346 . S
C223 N222 1.346 . S
C223 C224 1.396 . S
C223 C233 1.510 . S
C224 C220 1.401 . S
C224 C223 1.396 . S
C225 C220 1.499 . S
C225 H226 0.959 . S
C225 H227 0.960 . S
C225 H228 0.961 . S
H226 C225 0.959 . S
H227 C225 0.960 . S
H228 C225 0.961 . S
O229 Co204 1.967 . S
O229 C237 1.258 . S
O230 Co205 1.941 . S
O230 C237 1.266 . S
H231 C233 0.959 . S
H232 C233 0.961 . S
C233 C223 1.510 . S
C233 H231 0.959 . S
C233 H232 0.961 . S
C233 H234 0.960 . S
H234 C233 0.960 . S
H235 N215 0.862 . S
O236 Co204 1.920 . S
O236 C209 1.289 . S
C237 O229 1.258 . S
C237 O230 1.266 . S
Co238 O241 1.970 . S
Co238 N255 1.989 . S
Co238 O263 1.967 . S
Co238 O270 1.920 . S
Co239 O242 1.966 . S
Co239 N248 2.022 . S
Co239 N256 1.993 . S
Co239 O264 1.941 . S
C240 O241 1.258 . S
C240 O242 1.263 . S
O241 Co238 1.970 . S
O241 C240 1.258 . S
O242 Co239 1.966 . S
O242 C240 1.263 . S
C243 O244 1.235 . S
C243 O270 1.289 . S
O244 C243 1.235 . S
C245 C247 1.400 . S
C245 N248 1.351 . S
C245 C250 1.501 . S
C246 C247 1.387 . S
C246 N249 1.341 . S
C247 C245 1.400 . S
C247 C246 1.387 . S
N248 Co239 2.022 . S
N248 C245 1.351 . S
N248 N249 1.365 . S
N249 C246 1.341 . S
N249 N248 1.365 . S
N249 H269 0.862 . S
C250 C245 1.501 . S
C250 H251 0.961 . S
C250 H252 0.961 . S
C250 H253 0.960 . S
H251 C250 0.961 . S
H252 C250 0.961 . S
H253 C250 0.960 . S
C254 N255 1.342 . S
C254 C258 1.401 . S
C254 C259 1.499 . S
N255 Co238 1.989 . S
N255 C254 1.342 . S
N255 N256 1.388 . S
N256 Co239 1.993 . S
N256 N255 1.388 . S
N256 C257 1.346 . S
C257 N256 1.346 . S
C257 C258 1.396 . S
C257 C267 1.510 . S
C258 C254 1.401 . S
C258 C257 1.396 . S
C259 C254 1.499 . S
C259 H260 0.959 . S
C259 H261 0.960 . S
C259 H262 0.961 . S
H260 C259 0.959 . S
H261 C259 0.960 . S
H262 C259 0.961 . S
O263 Co238 1.967 . S
O263 C271 1.258 . S
O264 Co239 1.941 . S
O264 C271 1.266 . S
H265 C267 0.959 . S
H266 C267 0.961 . S
C267 C257 1.510 . S
C267 H265 0.959 . S
C267 H266 0.961 . S
C267 H268 0.960 . S
H268 C267 0.960 . S
H269 N249 0.862 . S
O270 Co238 1.920 . S
O270 C243 1.289 . S
C271 O263 1.258 . S
C271 O264 1.266 . S
Co272 O275 1.970 . S
Co272 N289 1.989 . S
Co272 O297 1.967 . S
Co272 O304 1.920 . S
Co273 O276 1.966 . S
Co273 N282 2.022 . S
Co273 N290 1.993 . S
Co273 O298 1.941 . S
C274 O275 1.258 . S
C274 O276 1.263 . S
O275 Co272 1.970 . S
O275 C274 1.258 . S
O276 Co273 1.966 . S
O276 C274 1.263 . S
C277 O278 1.235 . S
C277 O304 1.289 . S
O278 C277 1.235 . S
C279 C281 1.400 . S
C279 N282 1.351 . S
C279 C284 1.501 . S
C280 C281 1.387 . S
C280 N283 1.341 . S
C281 C279 1.400 . S
C281 C280 1.387 . S
N282 Co273 2.022 . S
N282 C279 1.351 . S
N282 N283 1.365 . S
N283 C280 1.341 . S
N283 N282 1.365 . S
N283 H303 0.862 . S
C284 C279 1.501 . S
C284 H285 0.961 . S
C284 H286 0.961 . S
C284 H287 0.960 . S
H285 C284 0.961 . S
H286 C284 0.961 . S
H287 C284 0.960 . S
C288 N289 1.342 1_545 S
C288 C292 1.401 . S
C288 C293 1.499 . S
N289 Co272 1.989 . S
N289 C288 1.342 1_565 S
N289 N290 1.388 . S
N290 Co273 1.993 . S
N290 N289 1.388 . S
N290 C291 1.346 1_565 S
C291 N290 1.346 1_545 S
C291 C292 1.396 . S
C291 C301 1.510 . S
C292 C288 1.401 . S
C292 C291 1.396 . S
C293 C288 1.499 . S
C293 H294 0.959 . S
C293 H295 0.960 . S
C293 H296 0.961 . S
H294 C293 0.959 . S
H295 C293 0.960 . S
H296 C293 0.961 . S
O297 Co272 1.967 . S
O297 C305 1.258 . S
O298 Co273 1.941 . S
O298 C305 1.266 . S
H299 C301 0.959 . S
H300 C301 0.961 . S
C301 C291 1.510 . S
C301 H299 0.959 . S
C301 H300 0.961 . S
C301 H302 0.960 . S
H302 C301 0.960 . S
H303 N283 0.862 . S
O304 Co272 1.920 . S
O304 C277 1.289 . S
C305 O297 1.258 . S
C305 O298 1.266 . S
Co306 O309 1.970 . S
Co306 N323 1.989 . S
Co306 O331 1.967 . S
Co306 O338 1.920 . S
Co307 O310 1.966 . S
Co307 N316 2.022 . S
Co307 N324 1.993 . S
Co307 O332 1.941 . S
C308 O309 1.258 . S
C308 O310 1.263 . S
O309 Co306 1.970 . S
O309 C308 1.258 . S
O310 Co307 1.966 . S
O310 C308 1.263 . S
C311 O312 1.235 . S
C311 O338 1.289 . S
O312 C311 1.235 . S
C313 C315 1.400 . S
C313 N316 1.351 . S
C313 C318 1.501 . S
C314 C315 1.387 . S
C314 N317 1.341 . S
C315 C313 1.400 . S
C315 C314 1.387 . S
N316 Co307 2.022 . S
N316 C313 1.351 . S
N316 N317 1.365 . S
N317 C314 1.341 . S
N317 N316 1.365 . S
N317 H337 0.862 . S
C318 C313 1.501 . S
C318 H319 0.961 . S
C318 H320 0.961 . S
C318 H321 0.960 . S
H319 C318 0.961 . S
H320 C318 0.961 . S
H321 C318 0.960 . S
C322 N323 1.342 . S
C322 C326 1.401 . S
C322 C327 1.499 . S
N323 Co306 1.989 . S
N323 C322 1.342 . S
N323 N324 1.388 . S
N324 Co307 1.993 . S
N324 N323 1.388 . S
N324 C325 1.346 . S
C325 N324 1.346 . S
C325 C326 1.396 . S
C325 C335 1.510 . S
C326 C322 1.401 . S
C326 C325 1.396 . S
C327 C322 1.499 . S
C327 H328 0.959 . S
C327 H329 0.960 . S
C327 H330 0.961 . S
H328 C327 0.959 . S
H329 C327 0.960 . S
H330 C327 0.961 . S
O331 Co306 1.967 . S
O331 C339 1.258 . S
O332 Co307 1.941 . S
O332 C339 1.266 . S
H333 C335 0.959 . S
H334 C335 0.961 . S
C335 C325 1.510 . S
C335 H333 0.959 . S
C335 H334 0.961 . S
C335 H336 0.960 . S
H336 C335 0.960 . S
H337 N317 0.862 . S
O338 Co306 1.920 . S
O338 C311 1.289 . S
C339 O331 1.258 . S
C339 O332 1.266 . S
Co340 O343 1.970 . S
Co340 N357 1.989 . S
Co340 O365 1.967 . S
Co340 O372 1.920 . S
Co341 O344 1.966 . S
Co341 N350 2.022 . S
Co341 N358 1.993 . S
Co341 O366 1.941 . S
C342 O343 1.258 . S
C342 O344 1.263 . S
O343 Co340 1.970 . S
O343 C342 1.258 . S
O344 Co341 1.966 . S
O344 C342 1.263 . S
C345 O346 1.235 . S
C345 O372 1.289 . S
O346 C345 1.235 . S
C347 C349 1.400 . S
C347 N350 1.351 . S
C347 C352 1.501 . S
C348 C349 1.387 . S
C348 N351 1.341 . S
C349 C347 1.400 . S
C349 C348 1.387 . S
N350 Co341 2.022 . S
N350 C347 1.351 . S
N350 N351 1.365 . S
N351 C348 1.341 . S
N351 N350 1.365 . S
N351 H371 0.862 . S
C352 C347 1.501 . S
C352 H353 0.961 . S
C352 H354 0.961 . S
C352 H355 0.960 . S
H353 C352 0.961 . S
H354 C352 0.961 . S
H355 C352 0.960 . S
C356 N357 1.342 . S
C356 C360 1.401 . S
C356 C361 1.499 . S
N357 Co340 1.989 . S
N357 C356 1.342 . S
N357 N358 1.388 . S
N358 Co341 1.993 . S
N358 N357 1.388 . S
N358 C359 1.346 . S
C359 N358 1.346 . S
C359 C360 1.396 . S
C359 C369 1.510 . S
C360 C356 1.401 . S
C360 C359 1.396 . S
C361 C356 1.499 . S
C361 H362 0.959 . S
C361 H363 0.960 . S
C361 H364 0.961 . S
H362 C361 0.959 . S
H363 C361 0.960 . S
H364 C361 0.961 . S
O365 Co340 1.967 . S
O365 C373 1.258 . S
O366 Co341 1.941 . S
O366 C373 1.266 . S
H367 C369 0.959 . S
H368 C369 0.961 . S
C369 C359 1.510 . S
C369 H367 0.959 . S
C369 H368 0.961 . S
C369 H370 0.960 . S
H370 C369 0.960 . S
H371 N351 0.862 . S
O372 Co340 1.920 . S
O372 C345 1.289 . S
C373 O365 1.258 . S
C373 O366 1.266 . S
Co374 O377 1.970 . S
Co374 N391 1.989 . S
Co374 O399 1.967 . S
Co374 O406 1.920 . S
Co375 O378 1.966 . S
Co375 N384 2.022 . S
Co375 N392 1.993 . S
Co375 O400 1.941 . S
C376 O377 1.258 . S
C376 O378 1.263 . S
O377 Co374 1.970 . S
O377 C376 1.258 . S
O378 Co375 1.966 . S
O378 C376 1.263 . S
C379 O380 1.235 . S
C379 O406 1.289 . S
O380 C379 1.235 . S
C381 C383 1.400 . S
C381 N384 1.351 . S
C381 C386 1.501 . S
C382 C383 1.387 . S
C382 N385 1.341 . S
C383 C381 1.400 . S
C383 C382 1.387 . S
N384 Co375 2.022 . S
N384 C381 1.351 . S
N384 N385 1.365 . S
N385 C382 1.341 . S
N385 N384 1.365 . S
N385 H405 0.862 . S
C386 C381 1.501 . S
C386 H387 0.961 . S
C386 H388 0.961 . S
C386 H389 0.960 . S
H387 C386 0.961 . S
H388 C386 0.961 . S
H389 C386 0.960 . S
C390 N391 1.342 1_545 S
C390 C394 1.401 . S
C390 C395 1.499 . S
N391 Co374 1.989 . S
N391 C390 1.342 1_565 S
N391 N392 1.388 . S
N392 Co375 1.993 . S
N392 N391 1.388 . S
N392 C393 1.346 1_565 S
C393 N392 1.346 1_545 S
C393 C394 1.396 . S
C393 C403 1.510 . S
C394 C390 1.401 . S
C394 C393 1.396 . S
C395 C390 1.499 . S
C395 H396 0.959 . S
C395 H397 0.960 . S
C395 H398 0.961 . S
H396 C395 0.959 . S
H397 C395 0.960 . S
H398 C395 0.961 . S
O399 Co374 1.967 . S
O399 C407 1.258 . S
O400 Co375 1.941 . S
O400 C407 1.266 . S
H401 C403 0.959 . S
H402 C403 0.961 . S
C403 C393 1.510 . S
C403 H401 0.959 . S
C403 H402 0.961 . S
C403 H404 0.960 . S
H404 C403 0.960 . S
H405 N385 0.862 . S
O406 Co374 1.920 . S
O406 C379 1.289 . S
C407 O399 1.258 . S
C407 O400 1.266 . S
Co408 O411 1.970 . S
Co408 N425 1.989 . S
Co408 O433 1.967 . S
Co408 O440 1.920 . S
Co409 O412 1.966 . S
Co409 N418 2.022 . S
Co409 N426 1.993 . S
Co409 O434 1.941 . S
C410 O411 1.258 . S
C410 O412 1.263 . S
O411 Co408 1.970 . S
O411 C410 1.258 . S
O412 Co409 1.966 . S
O412 C410 1.263 . S
C413 O414 1.235 . S
C413 O440 1.289 . S
O414 C413 1.235 . S
C415 C417 1.400 . S
C415 N418 1.351 . S
C415 C420 1.501 . S
C416 C417 1.387 . S
C416 N419 1.341 . S
C417 C415 1.400 . S
C417 C416 1.387 . S
N418 Co409 2.022 . S
N418 C415 1.351 . S
N418 N419 1.365 . S
N419 C416 1.341 . S
N419 N418 1.365 . S
N419 H439 0.862 . S
C420 C415 1.501 . S
C420 H421 0.961 . S
C420 H422 0.961 . S
C420 H423 0.960 . S
H421 C420 0.961 . S
H422 C420 0.961 . S
H423 C420 0.960 . S
C424 N425 1.342 1_565 S
C424 C428 1.401 . S
C424 C429 1.499 . S
N425 Co408 1.989 . S
N425 C424 1.342 1_545 S
N425 N426 1.388 . S
N426 Co409 1.993 . S
N426 N425 1.388 . S
N426 C427 1.346 1_545 S
C427 N426 1.346 1_565 S
C427 C428 1.396 . S
C427 C437 1.510 . S
C428 C424 1.401 . S
C428 C427 1.396 . S
C429 C424 1.499 . S
C429 H430 0.959 . S
C429 H431 0.960 . S
C429 H432 0.961 . S
H430 C429 0.959 . S
H431 C429 0.960 . S
H432 C429 0.961 . S
O433 Co408 1.967 . S
O433 C441 1.258 . S
O434 Co409 1.941 . S
O434 C441 1.266 . S
H435 C437 0.959 . S
H436 C437 0.961 . S
C437 C427 1.510 . S
C437 H435 0.959 . S
C437 H436 0.961 . S
C437 H438 0.960 . S
H438 C437 0.960 . S
H439 N419 0.862 . S
O440 Co408 1.920 . S
O440 C413 1.289 . S
C441 O433 1.258 . S
C441 O434 1.266 . S
Co442 O445 1.970 . S
Co442 N459 1.989 . S
Co442 O467 1.967 . S
Co442 O474 1.920 . S
Co443 O446 1.966 . S
Co443 N452 2.022 . S
Co443 N460 1.993 . S
Co443 O468 1.941 . S
C444 O445 1.258 . S
C444 O446 1.263 . S
O445 Co442 1.970 . S
O445 C444 1.258 . S
O446 Co443 1.966 . S
O446 C444 1.263 . S
C447 O448 1.235 . S
C447 O474 1.289 . S
O448 C447 1.235 . S
C449 C451 1.400 . S
C449 N452 1.351 . S
C449 C454 1.501 . S
C450 C451 1.387 . S
C450 N453 1.341 . S
C451 C449 1.400 . S
C451 C450 1.387 . S
N452 Co443 2.022 . S
N452 C449 1.351 . S
N452 N453 1.365 . S
N453 C450 1.341 . S
N453 N452 1.365 . S
N453 H473 0.862 . S
C454 C449 1.501 . S
C454 H455 0.961 . S
C454 H456 0.961 . S
C454 H457 0.960 . S
H455 C454 0.961 . S
H456 C454 0.961 . S
H457 C454 0.960 . S
C458 N459 1.342 . S
C458 C462 1.401 . S
C458 C463 1.499 . S
N459 Co442 1.989 . S
N459 C458 1.342 . S
N459 N460 1.388 . S
N460 Co443 1.993 . S
N460 N459 1.388 . S
N460 C461 1.346 . S
C461 N460 1.346 . S
C461 C462 1.396 . S
C461 C471 1.510 . S
C462 C458 1.401 . S
C462 C461 1.396 . S
C463 C458 1.499 . S
C463 H464 0.959 . S
C463 H465 0.960 . S
C463 H466 0.961 . S
H464 C463 0.959 . S
H465 C463 0.960 . S
H466 C463 0.961 . S
O467 Co442 1.967 . S
O467 C475 1.258 . S
O468 Co443 1.941 . S
O468 C475 1.266 . S
H469 C471 0.959 . S
H470 C471 0.961 . S
C471 C461 1.510 . S
C471 H469 0.959 . S
C471 H470 0.961 . S
C471 H472 0.960 . S
H472 C471 0.960 . S
H473 N453 0.862 . S
O474 Co442 1.920 . S
O474 C447 1.289 . S
C475 O467 1.258 . S
C475 O468 1.266 . S
Co476 O479 1.970 . S
Co476 N493 1.989 . S
Co476 O501 1.967 . S
Co476 O508 1.920 . S
Co477 O480 1.966 . S
Co477 N486 2.022 . S
Co477 N494 1.993 . S
Co477 O502 1.941 . S
C478 O479 1.258 . S
C478 O480 1.263 . S
O479 Co476 1.970 . S
O479 C478 1.258 . S
O480 Co477 1.966 . S
O480 C478 1.263 . S
C481 O482 1.235 . S
C481 O508 1.289 . S
O482 C481 1.235 . S
C483 C485 1.400 . S
C483 N486 1.351 . S
C483 C488 1.501 . S
C484 C485 1.387 . S
C484 N487 1.341 . S
C485 C483 1.400 . S
C485 C484 1.387 . S
N486 Co477 2.022 . S
N486 C483 1.351 . S
N486 N487 1.365 . S
N487 C484 1.341 . S
N487 N486 1.365 . S
N487 H507 0.862 . S
C488 C483 1.501 . S
C488 H489 0.961 . S
C488 H490 0.961 . S
C488 H491 0.960 . S
H489 C488 0.961 . S
H490 C488 0.961 . S
H491 C488 0.960 . S
C492 N493 1.342 . S
C492 C496 1.401 . S
C492 C497 1.499 . S
N493 Co476 1.989 . S
N493 C492 1.342 . S
N493 N494 1.388 . S
N494 Co477 1.993 . S
N494 N493 1.388 . S
N494 C495 1.346 . S
C495 N494 1.346 . S
C495 C496 1.396 . S
C495 C505 1.510 . S
C496 C492 1.401 . S
C496 C495 1.396 . S
C497 C492 1.499 . S
C497 H498 0.959 . S
C497 H499 0.960 . S
C497 H500 0.961 . S
H498 C497 0.959 . S
H499 C497 0.960 . S
H500 C497 0.961 . S
O501 Co476 1.967 . S
O501 C509 1.258 . S
O502 Co477 1.941 . S
O502 C509 1.266 . S
H503 C505 0.959 . S
H504 C505 0.961 . S
C505 C495 1.510 . S
C505 H503 0.959 . S
C505 H504 0.961 . S
C505 H506 0.960 . S
H506 C505 0.960 . S
H507 N487 0.862 . S
O508 Co476 1.920 . S
O508 C481 1.289 . S
C509 O501 1.258 . S
C509 O502 1.266 . S
Co510 O513 1.970 . S
Co510 N527 1.989 . S
Co510 O535 1.967 . S
Co510 O542 1.920 . S
Co511 O514 1.966 . S
Co511 N520 2.022 . S
Co511 N528 1.993 . S
Co511 O536 1.941 . S
C512 O513 1.258 . S
C512 O514 1.263 . S
O513 Co510 1.970 . S
O513 C512 1.258 . S
O514 Co511 1.966 . S
O514 C512 1.263 . S
C515 O516 1.235 . S
C515 O542 1.289 . S
O516 C515 1.235 . S
C517 C519 1.400 . S
C517 N520 1.351 . S
C517 C522 1.501 . S
C518 C519 1.387 . S
C518 N521 1.341 . S
C519 C517 1.400 . S
C519 C518 1.387 . S
N520 Co511 2.022 . S
N520 C517 1.351 . S
N520 N521 1.365 . S
N521 C518 1.341 . S
N521 N520 1.365 . S
N521 H541 0.862 . S
C522 C517 1.501 . S
C522 H523 0.961 . S
C522 H524 0.961 . S
C522 H525 0.960 . S
H523 C522 0.961 . S
H524 C522 0.961 . S
H525 C522 0.960 . S
C526 N527 1.342 1_565 S
C526 C530 1.401 . S
C526 C531 1.499 . S
N527 Co510 1.989 . S
N527 C526 1.342 1_545 S
N527 N528 1.388 . S
N528 Co511 1.993 . S
N528 N527 1.388 . S
N528 C529 1.346 1_545 S
C529 N528 1.346 1_565 S
C529 C530 1.396 . S
C529 C539 1.510 . S
C530 C526 1.401 . S
C530 C529 1.396 . S
C531 C526 1.499 . S
C531 H532 0.959 . S
C531 H533 0.960 . S
C531 H534 0.961 . S
H532 C531 0.959 . S
H533 C531 0.960 . S
H534 C531 0.961 . S
O535 Co510 1.967 . S
O535 C543 1.258 . S
O536 Co511 1.941 . S
O536 C543 1.266 . S
H537 C539 0.959 . S
H538 C539 0.961 . S
C539 C529 1.510 . S
C539 H537 0.959 . S
C539 H538 0.961 . S
C539 H540 0.960 . S
H540 C539 0.960 . S
H541 N521 0.862 . S
O542 Co510 1.920 . S
O542 C515 1.289 . S
C543 O535 1.258 . S
C543 O536 1.266 . S
Co544 O547 1.970 . S
Co544 N561 1.989 . S
Co544 O569 1.967 . S
Co544 O576 1.920 . S
Co545 O548 1.966 . S
Co545 N554 2.022 . S
Co545 N562 1.993 . S
Co545 O570 1.941 . S
C546 O547 1.258 . S
C546 O548 1.263 . S
O547 Co544 1.970 . S
O547 C546 1.258 . S
O548 Co545 1.966 . S
O548 C546 1.263 . S
C549 O550 1.235 . S
C549 O576 1.289 . S
O550 C549 1.235 . S
C551 C553 1.400 . S
C551 N554 1.351 . S
C551 C556 1.501 . S
C552 C553 1.387 . S
C552 N555 1.341 . S
C553 C551 1.400 . S
C553 C552 1.387 . S
N554 Co545 2.022 . S
N554 C551 1.351 . S
N554 N555 1.365 . S
N555 C552 1.341 . S
N555 N554 1.365 . S
N555 H575 0.862 . S
C556 C551 1.501 . S
C556 H557 0.961 . S
C556 H558 0.961 . S
C556 H559 0.960 . S
H557 C556 0.961 . S
H558 C556 0.961 . S
H559 C556 0.960 . S
C560 N561 1.342 . S
C560 C564 1.401 . S
C560 C565 1.499 . S
N561 Co544 1.989 . S
N561 C560 1.342 . S
N561 N562 1.388 . S
N562 Co545 1.993 . S
N562 N561 1.388 . S
N562 C563 1.346 . S
C563 N562 1.346 . S
C563 C564 1.396 . S
C563 C573 1.510 . S
C564 C560 1.401 . S
C564 C563 1.396 . S
C565 C560 1.499 . S
C565 H566 0.959 . S
C565 H567 0.960 . S
C565 H568 0.961 . S
H566 C565 0.959 . S
H567 C565 0.960 . S
H568 C565 0.961 . S
O569 Co544 1.967 . S
O569 C577 1.258 . S
O570 Co545 1.941 . S
O570 C577 1.266 . S
H571 C573 0.959 . S
H572 C573 0.961 . S
C573 C563 1.510 . S
C573 H571 0.959 . S
C573 H572 0.961 . S
C573 H574 0.960 . S
H574 C573 0.960 . S
H575 N555 0.862 . S
O576 Co544 1.920 . S
O576 C549 1.289 . S
C577 O569 1.258 . S
C577 O570 1.266 . S
Co578 O581 1.970 . S
Co578 N595 1.989 . S
Co578 O603 1.967 . S
Co578 O610 1.920 . S
Co579 O582 1.966 . S
Co579 N588 2.022 . S
Co579 N596 1.993 . S
Co579 O604 1.941 . S
C580 O581 1.258 . S
C580 O582 1.263 . S
O581 Co578 1.970 . S
O581 C580 1.258 . S
O582 Co579 1.966 . S
O582 C580 1.263 . S
C583 O584 1.235 . S
C583 O610 1.289 . S
O584 C583 1.235 . S
C585 C587 1.400 . S
C585 N588 1.351 . S
C585 C590 1.501 . S
C586 C587 1.387 . S
C586 N589 1.341 . S
C587 C585 1.400 . S
C587 C586 1.387 . S
N588 Co579 2.022 . S
N588 C585 1.351 . S
N588 N589 1.365 . S
N589 C586 1.341 . S
N589 N588 1.365 . S
N589 H609 0.862 . S
C590 C585 1.501 . S
C590 H591 0.961 . S
C590 H592 0.961 . S
C590 H593 0.960 . S
H591 C590 0.961 . S
H592 C590 0.961 . S
H593 C590 0.960 . S
C594 N595 1.342 . S
C594 C598 1.401 . S
C594 C599 1.499 . S
N595 Co578 1.989 . S
N595 C594 1.342 . S
N595 N596 1.388 . S
N596 Co579 1.993 . S
N596 N595 1.388 . S
N596 C597 1.346 . S
C597 N596 1.346 . S
C597 C598 1.396 . S
C597 C607 1.510 . S
C598 C594 1.401 . S
C598 C597 1.396 . S
C599 C594 1.499 . S
C599 H600 0.959 . S
C599 H601 0.960 . S
C599 H602 0.961 . S
H600 C599 0.959 . S
H601 C599 0.960 . S
H602 C599 0.961 . S
O603 Co578 1.967 . S
O603 C611 1.258 . S
O604 Co579 1.941 . S
O604 C611 1.266 . S
H605 C607 0.959 . S
H606 C607 0.961 . S
C607 C597 1.510 . S
C607 H605 0.959 . S
C607 H606 0.961 . S
C607 H608 0.960 . S
H608 C607 0.960 . S
H609 N589 0.862 . S
O610 Co578 1.920 . S
O610 C583 1.289 . S
C611 O603 1.258 . S
C611 O604 1.266 . S
Co612 O615 1.970 . S
Co612 N629 1.989 . S
Co612 O637 1.967 . S
Co612 O644 1.920 . S
Co613 O616 1.966 . S
Co613 N622 2.022 . S
Co613 N630 1.993 . S
Co613 O638 1.941 . S
C614 O615 1.258 . S
C614 O616 1.263 . S
O615 Co612 1.970 . S
O615 C614 1.258 . S
O616 Co613 1.966 . S
O616 C614 1.263 . S
C617 O618 1.235 . S
C617 O644 1.289 . S
O618 C617 1.235 . S
C619 C621 1.400 . S
C619 N622 1.351 . S
C619 C624 1.501 . S
C620 C621 1.387 . S
C620 N623 1.341 . S
C621 C619 1.400 . S
C621 C620 1.387 . S
N622 Co613 2.022 . S
N622 C619 1.351 . S
N622 N623 1.365 . S
N623 C620 1.341 . S
N623 N622 1.365 . S
N623 H643 0.862 . S
C624 C619 1.501 . S
C624 H625 0.961 . S
C624 H626 0.961 . S
C624 H627 0.960 . S
H625 C624 0.961 . S
H626 C624 0.961 . S
H627 C624 0.960 . S
C628 N629 1.342 . S
C628 C632 1.401 . S
C628 C633 1.499 . S
N629 Co612 1.989 . S
N629 C628 1.342 . S
N629 N630 1.388 . S
N630 Co613 1.993 . S
N630 N629 1.388 . S
N630 C631 1.346 . S
C631 N630 1.346 . S
C631 C632 1.396 . S
C631 C641 1.510 . S
C632 C628 1.401 . S
C632 C631 1.396 . S
C633 C628 1.499 . S
C633 H634 0.959 . S
C633 H635 0.960 . S
C633 H636 0.961 . S
H634 C633 0.959 . S
H635 C633 0.960 . S
H636 C633 0.961 . S
O637 Co612 1.967 . S
O637 C645 1.258 . S
O638 Co613 1.941 . S
O638 C645 1.266 . S
H639 C641 0.959 . S
H640 C641 0.961 . S
C641 C631 1.510 . S
C641 H639 0.959 . S
C641 H640 0.961 . S
C641 H642 0.960 . S
H642 C641 0.960 . S
H643 N623 0.862 . S
O644 Co612 1.920 . S
O644 C617 1.289 . S
C645 O637 1.258 . S
C645 O638 1.266 . S
Co646 O649 1.970 . S
Co646 N663 1.989 . S
Co646 O671 1.967 . S
Co646 O678 1.920 . S
Co647 O650 1.966 . S
Co647 N656 2.022 . S
Co647 N664 1.993 . S
Co647 O672 1.941 . S
C648 O649 1.258 . S
C648 O650 1.263 . S
O649 Co646 1.970 . S
O649 C648 1.258 . S
O650 Co647 1.966 . S
O650 C648 1.263 . S
C651 O652 1.235 . S
C651 O678 1.289 . S
O652 C651 1.235 . S
C653 C655 1.400 . S
C653 N656 1.351 . S
C653 C658 1.501 . S
C654 C655 1.387 . S
C654 N657 1.341 . S
C655 C653 1.400 . S
C655 C654 1.387 . S
N656 Co647 2.022 . S
N656 C653 1.351 . S
N656 N657 1.365 . S
N657 C654 1.341 . S
N657 N656 1.365 . S
N657 H677 0.862 . S
C658 C653 1.501 . S
C658 H659 0.961 . S
C658 H660 0.961 . S
C658 H661 0.960 . S
H659 C658 0.961 . S
H660 C658 0.961 . S
H661 C658 0.960 . S
C662 N663 1.342 . S
C662 C666 1.401 . S
C662 C667 1.499 . S
N663 Co646 1.989 . S
N663 C662 1.342 . S
N663 N664 1.388 . S
N664 Co647 1.993 . S
N664 N663 1.388 . S
N664 C665 1.346 . S
C665 N664 1.346 . S
C665 C666 1.396 . S
C665 C675 1.510 . S
C666 C662 1.401 . S
C666 C665 1.396 . S
C667 C662 1.499 . S
C667 H668 0.959 . S
C667 H669 0.960 . S
C667 H670 0.961 . S
H668 C667 0.959 . S
H669 C667 0.960 . S
H670 C667 0.961 . S
O671 Co646 1.967 . S
O671 C679 1.258 . S
O672 Co647 1.941 . S
O672 C679 1.266 . S
H673 C675 0.959 . S
H674 C675 0.961 . S
C675 C665 1.510 . S
C675 H673 0.959 . S
C675 H674 0.961 . S
C675 H676 0.960 . S
H676 C675 0.960 . S
H677 N657 0.862 . S
O678 Co646 1.920 . S
O678 C651 1.289 . S
C679 O671 1.258 . S
C679 O672 1.266 . S
Co680 O683 1.970 . S
Co680 N697 1.989 . S
Co680 O705 1.967 . S
Co680 O712 1.920 . S
Co681 O684 1.966 . S
Co681 N690 2.022 . S
Co681 N698 1.993 . S
Co681 O706 1.941 . S
C682 O683 1.258 . S
C682 O684 1.263 . S
O683 Co680 1.970 . S
O683 C682 1.258 . S
O684 Co681 1.966 . S
O684 C682 1.263 . S
C685 O686 1.235 . S
C685 O712 1.289 . S
O686 C685 1.235 . S
C687 C689 1.400 . S
C687 N690 1.351 . S
C687 C692 1.501 . S
C688 C689 1.387 . S
C688 N691 1.341 . S
C689 C687 1.400 . S
C689 C688 1.387 . S
N690 Co681 2.022 . S
N690 C687 1.351 . S
N690 N691 1.365 . S
N691 C688 1.341 . S
N691 N690 1.365 . S
N691 H711 0.862 . S
C692 C687 1.501 . S
C692 H693 0.961 . S
C692 H694 0.961 . S
C692 H695 0.960 . S
H693 C692 0.961 . S
H694 C692 0.961 . S
H695 C692 0.960 . S
C696 N697 1.342 . S
C696 C700 1.401 . S
C696 C701 1.499 . S
N697 Co680 1.989 . S
N697 C696 1.342 . S
N697 N698 1.388 . S
N698 Co681 1.993 . S
N698 N697 1.388 . S
N698 C699 1.346 . S
C699 N698 1.346 . S
C699 C700 1.396 . S
C699 C709 1.510 . S
C700 C696 1.401 . S
C700 C699 1.396 . S
C701 C696 1.499 . S
C701 H702 0.959 . S
C701 H703 0.960 . S
C701 H704 0.961 . S
H702 C701 0.959 . S
H703 C701 0.960 . S
H704 C701 0.961 . S
O705 Co680 1.967 . S
O705 C713 1.258 . S
O706 Co681 1.941 . S
O706 C713 1.266 . S
H707 C709 0.959 . S
H708 C709 0.961 . S
C709 C699 1.510 . S
C709 H707 0.959 . S
C709 H708 0.961 . S
C709 H710 0.960 . S
H710 C709 0.960 . S
H711 N691 0.862 . S
O712 Co680 1.920 . S
O712 C685 1.289 . S
C713 O705 1.258 . S
C713 O706 1.266 . S
Co714 O717 1.970 . S
Co714 N731 1.989 . S
Co714 O739 1.967 . S
Co714 O746 1.920 . S
Co715 O718 1.966 . S
Co715 N724 2.022 . S
Co715 N732 1.993 . S
Co715 O740 1.941 . S
C716 O717 1.258 . S
C716 O718 1.263 . S
O717 Co714 1.970 . S
O717 C716 1.258 . S
O718 Co715 1.966 . S
O718 C716 1.263 . S
C719 O720 1.235 . S
C719 O746 1.289 . S
O720 C719 1.235 . S
C721 C723 1.400 . S
C721 N724 1.351 . S
C721 C726 1.501 . S
C722 C723 1.387 . S
C722 N725 1.341 . S
C723 C721 1.400 . S
C723 C722 1.387 . S
N724 Co715 2.022 . S
N724 C721 1.351 . S
N724 N725 1.365 . S
N725 C722 1.341 . S
N725 N724 1.365 . S
N725 H745 0.862 . S
C726 C721 1.501 . S
C726 H727 0.961 . S
C726 H728 0.961 . S
C726 H729 0.960 . S
H727 C726 0.961 . S
H728 C726 0.961 . S
H729 C726 0.960 . S
C730 N731 1.342 . S
C730 C734 1.401 . S
C730 C735 1.499 . S
N731 Co714 1.989 . S
N731 C730 1.342 . S
N731 N732 1.388 . S
N732 Co715 1.993 . S
N732 N731 1.388 . S
N732 C733 1.346 . S
C733 N732 1.346 . S
C733 C734 1.396 . S
C733 C743 1.510 . S
C734 C730 1.401 . S
C734 C733 1.396 . S
C735 C730 1.499 . S
C735 H736 0.959 . S
C735 H737 0.960 . S
C735 H738 0.961 . S
H736 C735 0.959 . S
H737 C735 0.960 . S
H738 C735 0.961 . S
O739 Co714 1.967 . S
O739 C747 1.258 . S
O740 Co715 1.941 . S
O740 C747 1.266 . S
H741 C743 0.959 . S
H742 C743 0.961 . S
C743 C733 1.510 . S
C743 H741 0.959 . S
C743 H742 0.961 . S
C743 H744 0.960 . S
H744 C743 0.960 . S
H745 N725 0.862 . S
O746 Co714 1.920 . S
O746 C719 1.289 . S
C747 O739 1.258 . S
C747 O740 1.266 . S
Co748 O751 1.970 . S
Co748 N765 1.989 . S
Co748 O773 1.967 . S
Co748 O780 1.920 . S
Co749 O752 1.966 . S
Co749 N758 2.022 . S
Co749 N766 1.993 . S
Co749 O774 1.941 . S
C750 O751 1.258 . S
C750 O752 1.263 . S
O751 Co748 1.970 . S
O751 C750 1.258 . S
O752 Co749 1.966 . S
O752 C750 1.263 . S
C753 O754 1.235 . S
C753 O780 1.289 . S
O754 C753 1.235 . S
C755 C757 1.400 . S
C755 N758 1.351 . S
C755 C760 1.501 . S
C756 C757 1.387 . S
C756 N759 1.341 . S
C757 C755 1.400 . S
C757 C756 1.387 . S
N758 Co749 2.022 . S
N758 C755 1.351 . S
N758 N759 1.365 . S
N759 C756 1.341 . S
N759 N758 1.365 . S
N759 H779 0.862 . S
C760 C755 1.501 . S
C760 H761 0.961 . S
C760 H762 0.961 . S
C760 H763 0.960 . S
H761 C760 0.961 . S
H762 C760 0.961 . S
H763 C760 0.960 . S
C764 N765 1.342 . S
C764 C768 1.401 . S
C764 C769 1.499 . S
N765 Co748 1.989 . S
N765 C764 1.342 . S
N765 N766 1.388 . S
N766 Co749 1.993 . S
N766 N765 1.388 . S
N766 C767 1.346 . S
C767 N766 1.346 . S
C767 C768 1.396 . S
C767 C777 1.510 . S
C768 C764 1.401 . S
C768 C767 1.396 . S
C769 C764 1.499 . S
C769 H770 0.959 . S
C769 H771 0.960 . S
C769 H772 0.961 . S
H770 C769 0.959 . S
H771 C769 0.960 . S
H772 C769 0.961 . S
O773 Co748 1.967 . S
O773 C781 1.258 . S
O774 Co749 1.941 . S
O774 C781 1.266 . S
H775 C777 0.959 . S
H776 C777 0.961 . S
C777 C767 1.510 . S
C777 H775 0.959 . S
C777 H776 0.961 . S
C777 H778 0.960 . S
H778 C777 0.960 . S
H779 N759 0.862 . S
O780 Co748 1.920 . S
O780 C753 1.289 . S
C781 O773 1.258 . S
C781 O774 1.266 . S
Co782 O785 1.970 . S
Co782 N799 1.989 . S
Co782 O807 1.967 . S
Co782 O814 1.920 . S
Co783 O786 1.966 . S
Co783 N792 2.022 . S
Co783 N800 1.993 . S
Co783 O808 1.941 . S
C784 O785 1.258 . S
C784 O786 1.263 . S
O785 Co782 1.970 . S
O785 C784 1.258 . S
O786 Co783 1.966 . S
O786 C784 1.263 . S
C787 O788 1.235 . S
C787 O814 1.289 . S
O788 C787 1.235 . S
C789 C791 1.400 . S
C789 N792 1.351 . S
C789 C794 1.501 . S
C790 C791 1.387 . S
C790 N793 1.341 . S
C791 C789 1.400 . S
C791 C790 1.387 . S
N792 Co783 2.022 . S
N792 C789 1.351 . S
N792 N793 1.365 . S
N793 C790 1.341 . S
N793 N792 1.365 . S
N793 H813 0.862 . S
C794 C789 1.501 . S
C794 H795 0.961 . S
C794 H796 0.961 . S
C794 H797 0.960 . S
H795 C794 0.961 . S
H796 C794 0.961 . S
H797 C794 0.960 . S
C798 N799 1.342 . S
C798 C802 1.401 . S
C798 C803 1.499 . S
N799 Co782 1.989 . S
N799 C798 1.342 . S
N799 N800 1.388 . S
N800 Co783 1.993 . S
N800 N799 1.388 . S
N800 C801 1.346 . S
C801 N800 1.346 . S
C801 C802 1.396 . S
C801 C811 1.510 . S
C802 C798 1.401 . S
C802 C801 1.396 . S
C803 C798 1.499 . S
C803 H804 0.959 . S
C803 H805 0.960 . S
C803 H806 0.961 . S
H804 C803 0.959 . S
H805 C803 0.960 . S
H806 C803 0.961 . S
O807 Co782 1.967 . S
O807 C815 1.258 . S
O808 Co783 1.941 . S
O808 C815 1.266 . S
H809 C811 0.959 . S
H810 C811 0.961 . S
C811 C801 1.510 . S
C811 H809 0.959 . S
C811 H810 0.961 . S
C811 H812 0.960 . S
H812 C811 0.960 . S
H813 N793 0.862 . S
O814 Co782 1.920 . S
O814 C787 1.289 . S
C815 O807 1.258 . S
C815 O808 1.266 . S
Co816 O819 1.970 . S
Co816 N833 1.989 . S
Co816 O841 1.967 . S
Co816 O848 1.920 . S
Co817 O820 1.966 . S
Co817 N826 2.022 . S
Co817 N834 1.993 . S
Co817 O842 1.941 . S
C818 O819 1.258 . S
C818 O820 1.263 . S
O819 Co816 1.970 . S
O819 C818 1.258 . S
O820 Co817 1.966 . S
O820 C818 1.263 . S
C821 O822 1.235 . S
C821 O848 1.289 . S
O822 C821 1.235 . S
C823 C825 1.400 . S
C823 N826 1.351 . S
C823 C828 1.501 . S
C824 C825 1.387 . S
C824 N827 1.341 . S
C825 C823 1.400 . S
C825 C824 1.387 . S
N826 Co817 2.022 . S
N826 C823 1.351 . S
N826 N827 1.365 . S
N827 C824 1.341 . S
N827 N826 1.365 . S
N827 H847 0.862 . S
C828 C823 1.501 . S
C828 H829 0.961 . S
C828 H830 0.961 1_554 S
C828 H831 0.960 . S
H829 C828 0.961 . S
H830 C828 0.961 1_556 S
H831 C828 0.960 . S
C832 N833 1.342 1_545 S
C832 C836 1.401 . S
C832 C837 1.499 . S
N833 Co816 1.989 . S
N833 C832 1.342 1_565 S
N833 N834 1.388 . S
N834 Co817 1.993 . S
N834 N833 1.388 . S
N834 C835 1.346 1_565 S
C835 N834 1.346 1_545 S
C835 C836 1.396 . S
C835 C845 1.510 . S
C836 C832 1.401 . S
C836 C835 1.396 . S
C837 C832 1.499 . S
C837 H838 0.959 . S
C837 H839 0.960 . S
C837 H840 0.961 . S
H838 C837 0.959 . S
H839 C837 0.960 . S
H840 C837 0.961 . S
O841 Co816 1.967 . S
O841 C849 1.258 . S
O842 Co817 1.941 . S
O842 C849 1.266 . S
H843 C845 0.959 . S
H844 C845 0.961 . S
C845 C835 1.510 . S
C845 H843 0.959 . S
C845 H844 0.961 . S
C845 H846 0.960 . S
H846 C845 0.960 . S
H847 N827 0.862 . S
O848 Co816 1.920 . S
O848 C821 1.289 . S
C849 O841 1.258 . S
C849 O842 1.266 . S
Co850 O853 1.970 . S
Co850 N867 1.989 . S
Co850 O875 1.967 . S
Co850 O882 1.920 . S
Co851 O854 1.966 . S
Co851 N860 2.022 . S
Co851 N868 1.993 . S
Co851 O876 1.941 . S
C852 O853 1.258 . S
C852 O854 1.263 . S
O853 Co850 1.970 . S
O853 C852 1.258 . S
O854 Co851 1.966 . S
O854 C852 1.263 . S
C855 O856 1.235 . S
C855 O882 1.289 . S
O856 C855 1.235 . S
C857 C859 1.400 . S
C857 N860 1.351 . S
C857 C862 1.501 . S
C858 C859 1.387 . S
C858 N861 1.341 . S
C859 C857 1.400 . S
C859 C858 1.387 . S
N860 Co851 2.022 . S
N860 C857 1.351 . S
N860 N861 1.365 . S
N861 C858 1.341 . S
N861 N860 1.365 . S
N861 H881 0.862 . S
C862 C857 1.501 . S
C862 H863 0.961 . S
C862 H864 0.961 1_554 S
C862 H865 0.960 . S
H863 C862 0.961 . S
H864 C862 0.961 1_556 S
H865 C862 0.960 . S
C866 N867 1.342 . S
C866 C870 1.401 . S
C866 C871 1.499 . S
N867 Co850 1.989 . S
N867 C866 1.342 . S
N867 N868 1.388 . S
N868 Co851 1.993 . S
N868 N867 1.388 . S
N868 C869 1.346 . S
C869 N868 1.346 . S
C869 C870 1.396 . S
C869 C879 1.510 . S
C870 C866 1.401 . S
C870 C869 1.396 . S
C871 C866 1.499 . S
C871 H872 0.959 . S
C871 H873 0.960 . S
C871 H874 0.961 . S
H872 C871 0.959 . S
H873 C871 0.960 . S
H874 C871 0.961 . S
O875 Co850 1.967 . S
O875 C883 1.258 . S
O876 Co851 1.941 . S
O876 C883 1.266 . S
H877 C879 0.959 . S
H878 C879 0.961 . S
C879 C869 1.510 . S
C879 H877 0.959 . S
C879 H878 0.961 . S
C879 H880 0.960 . S
H880 C879 0.960 . S
H881 N861 0.862 . S
O882 Co850 1.920 . S
O882 C855 1.289 . S
C883 O875 1.258 . S
C883 O876 1.266 . S
Co884 O887 1.970 . S
Co884 N901 1.989 . S
Co884 O909 1.967 . S
Co884 O916 1.920 . S
Co885 O888 1.966 . S
Co885 N894 2.022 . S
Co885 N902 1.993 . S
Co885 O910 1.941 . S
C886 O887 1.258 . S
C886 O888 1.263 . S
O887 Co884 1.970 . S
O887 C886 1.258 . S
O888 Co885 1.966 . S
O888 C886 1.263 . S
C889 O890 1.235 . S
C889 O916 1.289 . S
O890 C889 1.235 . S
C891 C893 1.400 . S
C891 N894 1.351 . S
C891 C896 1.501 . S
C892 C893 1.387 . S
C892 N895 1.341 . S
C893 C891 1.400 . S
C893 C892 1.387 . S
N894 Co885 2.022 . S
N894 C891 1.351 . S
N894 N895 1.365 . S
N895 C892 1.341 . S
N895 N894 1.365 . S
N895 H915 0.862 . S
C896 C891 1.501 . S
C896 H897 0.961 . S
C896 H898 0.961 . S
C896 H899 0.960 . S
H897 C896 0.961 . S
H898 C896 0.961 . S
H899 C896 0.960 . S
C900 N901 1.342 . S
C900 C904 1.401 . S
C900 C905 1.499 . S
N901 Co884 1.989 . S
N901 C900 1.342 . S
N901 N902 1.388 . S
N902 Co885 1.993 . S
N902 N901 1.388 . S
N902 C903 1.346 . S
C903 N902 1.346 . S
C903 C904 1.396 . S
C903 C913 1.510 . S
C904 C900 1.401 . S
C904 C903 1.396 . S
C905 C900 1.499 . S
C905 H906 0.959 . S
C905 H907 0.960 . S
C905 H908 0.961 . S
H906 C905 0.959 . S
H907 C905 0.960 . S
H908 C905 0.961 . S
O909 Co884 1.967 . S
O909 C917 1.258 . S
O910 Co885 1.941 . S
O910 C917 1.266 . S
H911 C913 0.959 . S
H912 C913 0.961 . S
C913 C903 1.510 . S
C913 H911 0.959 . S
C913 H912 0.961 . S
C913 H914 0.960 . S
H914 C913 0.960 . S
H915 N895 0.862 . S
O916 Co884 1.920 . S
O916 C889 1.289 . S
C917 O909 1.258 . S
C917 O910 1.266 . S
Co918 O921 1.970 . S
Co918 N935 1.989 . S
Co918 O943 1.967 . S
Co918 O950 1.920 . S
Co919 O922 1.966 . S
Co919 N928 2.022 . S
Co919 N936 1.993 . S
Co919 O944 1.941 . S
C920 O921 1.258 . S
C920 O922 1.263 . S
O921 Co918 1.970 . S
O921 C920 1.258 . S
O922 Co919 1.966 . S
O922 C920 1.263 . S
C923 O924 1.235 . S
C923 O950 1.289 . S
O924 C923 1.235 . S
C925 C927 1.400 . S
C925 N928 1.351 . S
C925 C930 1.501 . S
C926 C927 1.387 . S
C926 N929 1.341 . S
C927 C925 1.400 . S
C927 C926 1.387 . S
N928 Co919 2.022 . S
N928 C925 1.351 . S
N928 N929 1.365 . S
N929 C926 1.341 . S
N929 N928 1.365 . S
N929 H949 0.862 . S
C930 C925 1.501 . S
C930 H931 0.961 . S
C930 H932 0.961 . S
C930 H933 0.960 . S
H931 C930 0.961 . S
H932 C930 0.961 . S
H933 C930 0.960 . S
C934 N935 1.342 1_545 S
C934 C938 1.401 . S
C934 C939 1.499 . S
N935 Co918 1.989 . S
N935 C934 1.342 1_565 S
N935 N936 1.388 . S
N936 Co919 1.993 . S
N936 N935 1.388 . S
N936 C937 1.346 1_565 S
C937 N936 1.346 1_545 S
C937 C938 1.396 . S
C937 C947 1.510 . S
C938 C934 1.401 . S
C938 C937 1.396 . S
C939 C934 1.499 . S
C939 H940 0.959 . S
C939 H941 0.960 . S
C939 H942 0.961 . S
H940 C939 0.959 . S
H941 C939 0.960 . S
H942 C939 0.961 . S
O943 Co918 1.967 . S
O943 C951 1.258 . S
O944 Co919 1.941 . S
O944 C951 1.266 . S
H945 C947 0.959 . S
H946 C947 0.961 . S
C947 C937 1.510 . S
C947 H945 0.959 . S
C947 H946 0.961 . S
C947 H948 0.960 . S
H948 C947 0.960 . S
H949 N929 0.862 . S
O950 Co918 1.920 . S
O950 C923 1.289 . S
C951 O943 1.258 . S
C951 O944 1.266 . S
Co952 O955 1.970 . S
Co952 N969 1.989 . S
Co952 O977 1.967 . S
Co952 O984 1.920 . S
Co953 O956 1.966 . S
Co953 N962 2.022 . S
Co953 N970 1.993 . S
Co953 O978 1.941 . S
C954 O955 1.258 . S
C954 O956 1.263 . S
O955 Co952 1.970 . S
O955 C954 1.258 . S
O956 Co953 1.966 . S
O956 C954 1.263 . S
C957 O958 1.235 . S
C957 O984 1.289 . S
O958 C957 1.235 . S
C959 C961 1.400 . S
C959 N962 1.351 . S
C959 C964 1.501 . S
C960 C961 1.387 . S
C960 N963 1.341 . S
C961 C959 1.400 . S
C961 C960 1.387 . S
N962 Co953 2.022 . S
N962 C959 1.351 . S
N962 N963 1.365 . S
N963 C960 1.341 . S
N963 N962 1.365 . S
N963 H983 0.862 . S
C964 C959 1.501 . S
C964 H965 0.961 . S
C964 H966 0.961 1_556 S
C964 H967 0.960 . S
H965 C964 0.961 . S
H966 C964 0.961 1_554 S
H967 C964 0.960 . S
C968 N969 1.342 1_565 S
C968 C972 1.401 . S
C968 C973 1.499 . S
N969 Co952 1.989 . S
N969 C968 1.342 1_545 S
N969 N970 1.388 . S
N970 Co953 1.993 . S
N970 N969 1.388 . S
N970 C971 1.346 1_545 S
C971 N970 1.346 1_565 S
C971 C972 1.396 . S
C971 C981 1.510 . S
C972 C968 1.401 . S
C972 C971 1.396 . S
C973 C968 1.499 . S
C973 H974 0.959 . S
C973 H975 0.960 . S
C973 H976 0.961 . S
H974 C973 0.959 . S
H975 C973 0.960 . S
H976 C973 0.961 . S
O977 Co952 1.967 . S
O977 C985 1.258 . S
O978 Co953 1.941 . S
O978 C985 1.266 . S
H979 C981 0.959 . S
H980 C981 0.961 . S
C981 C971 1.510 . S
C981 H979 0.959 . S
C981 H980 0.961 . S
C981 H982 0.960 . S
H982 C981 0.960 . S
H983 N963 0.862 . S
O984 Co952 1.920 . S
O984 C957 1.289 . S
C985 O977 1.258 . S
C985 O978 1.266 . S
Co986 O989 1.970 . S
Co986 N1003 1.989 . S
Co986 O1011 1.967 . S
Co986 O1018 1.920 . S
Co987 O990 1.966 . S
Co987 N996 2.022 . S
Co987 N1004 1.993 . S
Co987 O1012 1.941 . S
C988 O989 1.258 . S
C988 O990 1.263 . S
O989 Co986 1.970 . S
O989 C988 1.258 . S
O990 Co987 1.966 . S
O990 C988 1.263 . S
C991 O992 1.235 . S
C991 O1018 1.289 . S
O992 C991 1.235 . S
C993 C995 1.400 . S
C993 N996 1.351 . S
C993 C998 1.501 . S
C994 C995 1.387 . S
C994 N997 1.341 . S
C995 C993 1.400 . S
C995 C994 1.387 . S
N996 Co987 2.022 . S
N996 C993 1.351 . S
N996 N997 1.365 . S
N997 C994 1.341 . S
N997 N996 1.365 . S
N997 H1017 0.862 . S
C998 C993 1.501 . S
C998 H999 0.961 . S
C998 H1000 0.961 1_556 S
C998 H1001 0.960 . S
H999 C998 0.961 . S
H1000 C998 0.961 1_554 S
H1001 C998 0.960 . S
C1002 N1003 1.342 . S
C1002 C1006 1.401 . S
C1002 C1007 1.499 . S
N1003 Co986 1.989 . S
N1003 C1002 1.342 . S
N1003 N1004 1.388 . S
N1004 Co987 1.993 . S
N1004 N1003 1.388 . S
N1004 C1005 1.346 . S
C1005 N1004 1.346 . S
C1005 C1006 1.396 . S
C1005 C1015 1.510 . S
C1006 C1002 1.401 . S
C1006 C1005 1.396 . S
C1007 C1002 1.499 . S
C1007 H1008 0.959 . S
C1007 H1009 0.960 . S
C1007 H1010 0.961 . S
H1008 C1007 0.959 . S
H1009 C1007 0.960 . S
H1010 C1007 0.961 . S
O1011 Co986 1.967 . S
O1011 C1019 1.258 . S
O1012 Co987 1.941 . S
O1012 C1019 1.266 . S
H1013 C1015 0.959 . S
H1014 C1015 0.961 . S
C1015 C1005 1.510 . S
C1015 H1013 0.959 . S
C1015 H1014 0.961 . S
C1015 H1016 0.960 . S
H1016 C1015 0.960 . S
H1017 N997 0.862 . S
O1018 Co986 1.920 . S
O1018 C991 1.289 . S
C1019 O1011 1.258 . S
C1019 O1012 1.266 . S
Co1020 O1023 1.970 . S
Co1020 N1037 1.989 . S
Co1020 O1045 1.967 . S
Co1020 O1052 1.920 . S
Co1021 O1024 1.966 . S
Co1021 N1030 2.022 . S
Co1021 N1038 1.993 . S
Co1021 O1046 1.941 . S
C1022 O1023 1.258 . S
C1022 O1024 1.263 . S
O1023 Co1020 1.970 . S
O1023 C1022 1.258 . S
O1024 Co1021 1.966 . S
O1024 C1022 1.263 . S
C1025 O1026 1.235 . S
C1025 O1052 1.289 . S
O1026 C1025 1.235 . S
C1027 C1029 1.400 . S
C1027 N1030 1.351 . S
C1027 C1032 1.501 . S
C1028 C1029 1.387 . S
C1028 N1031 1.341 . S
C1029 C1027 1.400 . S
C1029 C1028 1.387 . S
N1030 Co1021 2.022 . S
N1030 C1027 1.351 . S
N1030 N1031 1.365 . S
N1031 C1028 1.341 . S
N1031 N1030 1.365 . S
N1031 H1051 0.862 . S
C1032 C1027 1.501 . S
C1032 H1033 0.961 . S
C1032 H1034 0.961 . S
C1032 H1035 0.960 . S
H1033 C1032 0.961 . S
H1034 C1032 0.961 . S
H1035 C1032 0.960 . S
C1036 N1037 1.342 . S
C1036 C1040 1.401 . S
C1036 C1041 1.499 . S
N1037 Co1020 1.989 . S
N1037 C1036 1.342 . S
N1037 N1038 1.388 . S
N1038 Co1021 1.993 . S
N1038 N1037 1.388 . S
N1038 C1039 1.346 . S
C1039 N1038 1.346 . S
C1039 C1040 1.396 . S
C1039 C1049 1.510 . S
C1040 C1036 1.401 . S
C1040 C1039 1.396 . S
C1041 C1036 1.499 . S
C1041 H1042 0.959 . S
C1041 H1043 0.960 . S
C1041 H1044 0.961 . S
H1042 C1041 0.959 . S
H1043 C1041 0.960 . S
H1044 C1041 0.961 . S
O1045 Co1020 1.967 . S
O1045 C1053 1.258 . S
O1046 Co1021 1.941 . S
O1046 C1053 1.266 . S
H1047 C1049 0.959 . S
H1048 C1049 0.961 . S
C1049 C1039 1.510 . S
C1049 H1047 0.959 . S
C1049 H1048 0.961 . S
C1049 H1050 0.960 . S
H1050 C1049 0.960 . S
H1051 N1031 0.862 . S
O1052 Co1020 1.920 . S
O1052 C1025 1.289 . S
C1053 O1045 1.258 . S
C1053 O1046 1.266 . S
Co1054 O1057 1.970 . S
Co1054 N1071 1.989 . S
Co1054 O1079 1.967 . S
Co1054 O1086 1.920 . S
Co1055 O1058 1.966 . S
Co1055 N1064 2.022 . S
Co1055 N1072 1.993 . S
Co1055 O1080 1.941 . S
C1056 O1057 1.258 . S
C1056 O1058 1.263 . S
O1057 Co1054 1.970 . S
O1057 C1056 1.258 . S
O1058 Co1055 1.966 . S
O1058 C1056 1.263 . S
C1059 O1060 1.235 . S
C1059 O1086 1.289 . S
O1060 C1059 1.235 . S
C1061 C1063 1.400 . S
C1061 N1064 1.351 . S
C1061 C1066 1.501 . S
C1062 C1063 1.387 . S
C1062 N1065 1.341 . S
C1063 C1061 1.400 . S
C1063 C1062 1.387 . S
N1064 Co1055 2.022 . S
N1064 C1061 1.351 . S
N1064 N1065 1.365 . S
N1065 C1062 1.341 . S
N1065 N1064 1.365 . S
N1065 H1085 0.862 . S
C1066 C1061 1.501 . S
C1066 H1067 0.961 . S
C1066 H1068 0.961 . S
C1066 H1069 0.960 . S
H1067 C1066 0.961 . S
H1068 C1066 0.961 . S
H1069 C1066 0.960 . S
C1070 N1071 1.342 1_565 S
C1070 C1074 1.401 . S
C1070 C1075 1.499 . S
N1071 Co1054 1.989 . S
N1071 C1070 1.342 1_545 S
N1071 N1072 1.388 . S
N1072 Co1055 1.993 . S
N1072 N1071 1.388 . S
N1072 C1073 1.346 1_545 S
C1073 N1072 1.346 1_565 S
C1073 C1074 1.396 . S
C1073 C1083 1.510 . S
C1074 C1070 1.401 . S
C1074 C1073 1.396 . S
C1075 C1070 1.499 . S
C1075 H1076 0.959 . S
C1075 H1077 0.960 . S
C1075 H1078 0.961 . S
H1076 C1075 0.959 . S
H1077 C1075 0.960 . S
H1078 C1075 0.961 . S
O1079 Co1054 1.967 . S
O1079 C1087 1.258 . S
O1080 Co1055 1.941 . S
O1080 C1087 1.266 . S
H1081 C1083 0.959 . S
H1082 C1083 0.961 . S
C1083 C1073 1.510 . S
C1083 H1081 0.959 . S
C1083 H1082 0.961 . S
C1083 H1084 0.960 . S
H1084 C1083 0.960 . S
H1085 N1065 0.862 . S
O1086 Co1054 1.920 . S
O1086 C1059 1.289 . S
C1087 O1079 1.258 . S
C1087 O1080 1.266 . S
H1088 C1096 0.929 . S
H1089 C1098 0.930 . S
H1090 C1100 0.930 . S
H1091 C1103 0.929 . S
H1092 C1106 0.930 . S
H1093 C1108 0.960 . S
H1094 C1108 0.960 . S
H1095 C1108 0.960 . S
C1096 H1088 0.929 . S
C1096 C1097 1.377 . S
C1096 C1098 1.384 . S
C1097 C1096 1.377 . S
C1097 C1103 1.390 . S
C1098 H1089 0.930 . S
C1098 C1096 1.384 . S
C1098 C1099 1.372 . S
C1099 C1098 1.372 . S
C1099 C1100 1.400 . S
C1099 C1104 1.490 . S
C1100 H1090 0.930 . S
C1100 C1099 1.400 . S
C1100 C1103 1.386 . S
H1101 C1117 0.930 . S
H1102 C1118 0.931 . S
C1103 H1091 0.929 . S
C1103 C1097 1.390 . S
C1103 C1100 1.386 . S
C1104 C1099 1.490 . S
C1104 C1106 1.395 . S
C1104 C1107 1.403 . S
H1105 C1111 0.930 . S
C1106 H1092 0.930 . S
C1106 C1104 1.395 . S
C1106 C1109 1.403 . S
C1107 C1104 1.403 . S
C1107 C1108 1.524 . S
C1107 C1111 1.400 . S
C1108 H1093 0.960 . S
C1108 H1094 0.960 . S
C1108 H1095 0.960 . S
C1108 C1107 1.524 . S
C1109 C1106 1.403 . S
C1109 C1110 1.392 . S
C1109 C1113 1.495 . S
C1110 C1109 1.392 . S
C1110 C1111 1.385 . S
C1110 C1112 1.478 . S
C1111 H1105 0.930 . S
C1111 C1107 1.400 . S
C1111 C1110 1.385 . S
C1112 C1110 1.478 . S
C1112 C1114 1.381 . S
C1112 C1118 1.383 . S
C1113 C1109 1.495 . S
C1113 H1119 0.959 . S
C1113 H1120 0.961 . S
C1113 H1121 0.960 . S
C1114 C1112 1.381 . S
C1114 C1115 1.394 . S
C1114 H1122 0.930 . S
C1115 C1114 1.394 . S
C1115 C1116 1.383 . S
C1115 H1123 0.929 . S
C1116 C1115 1.383 . S
C1116 C1117 1.377 . S
C1117 H1101 0.930 . S
C1117 C1116 1.377 . S
C1117 C1118 1.379 . S
C1118 H1102 0.931 . S
C1118 C1112 1.383 . S
C1118 C1117 1.379 . S
H1119 C1113 0.959 . S
H1120 C1113 0.961 . S
H1121 C1113 0.960 . S
H1122 C1114 0.930 . S
H1123 C1115 0.929 . S
H1124 C1132 0.929 . S
H1125 C1134 0.930 . S
H1126 C1136 0.930 . S
H1127 C1139 0.929 . S
H1128 C1142 0.930 . S
H1129 C1144 0.960 . S
H1130 C1144 0.960 . S
H1131 C1144 0.960 . S
C1132 H1124 0.929 . S
C1132 C1133 1.377 . S
C1132 C1134 1.384 . S
C1133 C1132 1.377 . S
C1133 C1139 1.390 . S
C1134 H1125 0.930 . S
C1134 C1132 1.384 . S
C1134 C1135 1.372 . S
C1135 C1134 1.372 . S
C1135 C1136 1.400 . S
C1135 C1140 1.490 . S
C1136 H1126 0.930 . S
C1136 C1135 1.400 . S
C1136 C1139 1.386 . S
H1137 C1153 0.930 . S
H1138 C1154 0.931 . S
C1139 H1127 0.929 . S
C1139 C1133 1.390 . S
C1139 C1136 1.386 . S
C1140 C1135 1.490 . S
C1140 C1142 1.395 . S
C1140 C1143 1.403 . S
H1141 C1147 0.930 . S
C1142 H1128 0.930 . S
C1142 C1140 1.395 . S
C1142 C1145 1.403 . S
C1143 C1140 1.403 . S
C1143 C1144 1.524 . S
C1143 C1147 1.400 . S
C1144 H1129 0.960 . S
C1144 H1130 0.960 . S
C1144 H1131 0.960 . S
C1144 C1143 1.524 . S
C1145 C1142 1.403 . S
C1145 C1146 1.392 . S
C1145 C1149 1.495 . S
C1146 C1145 1.392 . S
C1146 C1147 1.385 . S
C1146 C1148 1.478 . S
C1147 H1141 0.930 . S
C1147 C1143 1.400 . S
C1147 C1146 1.385 . S
C1148 C1146 1.478 . S
C1148 C1150 1.381 . S
C1148 C1154 1.383 . S
C1149 C1145 1.495 . S
C1149 H1155 0.959 . S
C1149 H1156 0.961 . S
C1149 H1157 0.960 . S
C1150 C1148 1.381 . S
C1150 C1151 1.394 . S
C1150 H1158 0.930 . S
C1151 C1150 1.394 . S
C1151 C1152 1.383 . S
C1151 H1159 0.929 . S
C1152 C1151 1.383 . S
C1152 C1153 1.377 . S
C1153 H1137 0.930 . S
C1153 C1152 1.377 . S
C1153 C1154 1.379 . S
C1154 H1138 0.931 . S
C1154 C1148 1.383 . S
C1154 C1153 1.379 . S
H1155 C1149 0.959 . S
H1156 C1149 0.961 . S
H1157 C1149 0.960 . S
H1158 C1150 0.930 . S
H1159 C1151 0.929 . S
H1160 C1168 0.929 . S
H1161 C1170 0.930 . S
H1162 C1172 0.930 . S
H1163 C1175 0.929 . S
H1164 C1178 0.930 . S
H1165 C1180 0.960 . S
H1166 C1180 0.960 . S
H1167 C1180 0.960 . S
C1168 H1160 0.929 . S
C1168 C1169 1.377 . S
C1168 C1170 1.384 . S
C1169 C1168 1.377 . S
C1169 C1175 1.390 . S
C1170 H1161 0.930 . S
C1170 C1168 1.384 . S
C1170 C1171 1.372 . S
C1171 C1170 1.372 . S
C1171 C1172 1.400 . S
C1171 C1176 1.490 . S
C1172 H1162 0.930 . S
C1172 C1171 1.400 . S
C1172 C1175 1.386 . S
H1173 C1189 0.930 . S
H1174 C1190 0.931 . S
C1175 H1163 0.929 . S
C1175 C1169 1.390 . S
C1175 C1172 1.386 . S
C1176 C1171 1.490 . S
C1176 C1178 1.395 . S
C1176 C1179 1.403 . S
H1177 C1183 0.930 . S
C1178 H1164 0.930 . S
C1178 C1176 1.395 . S
C1178 C1181 1.403 . S
C1179 C1176 1.403 . S
C1179 C1180 1.524 . S
C1179 C1183 1.400 . S
C1180 H1165 0.960 . S
C1180 H1166 0.960 . S
C1180 H1167 0.960 . S
C1180 C1179 1.524 . S
C1181 C1178 1.403 . S
C1181 C1182 1.392 . S
C1181 C1185 1.495 . S
C1182 C1181 1.392 . S
C1182 C1183 1.385 . S
C1182 C1184 1.478 . S
C1183 H1177 0.930 . S
C1183 C1179 1.400 . S
C1183 C1182 1.385 . S
C1184 C1182 1.478 . S
C1184 C1186 1.381 . S
C1184 C1190 1.383 . S
C1185 C1181 1.495 . S
C1185 H1191 0.959 . S
C1185 H1192 0.961 . S
C1185 H1193 0.960 . S
C1186 C1184 1.381 . S
C1186 C1187 1.394 . S
C1186 H1194 0.930 . S
C1187 C1186 1.394 . S
C1187 C1188 1.383 . S
C1187 H1195 0.929 . S
C1188 C1187 1.383 . S
C1188 C1189 1.377 . S
C1189 H1173 0.930 . S
C1189 C1188 1.377 . S
C1189 C1190 1.379 . S
C1190 H1174 0.931 . S
C1190 C1184 1.383 . S
C1190 C1189 1.379 . S
H1191 C1185 0.959 . S
H1192 C1185 0.961 . S
H1193 C1185 0.960 . S
H1194 C1186 0.930 . S
H1195 C1187 0.929 . S
H1196 C1204 0.929 . S
H1197 C1206 0.930 . S
H1198 C1208 0.930 . S
H1199 C1211 0.929 . S
H1200 C1214 0.930 . S
H1201 C1216 0.960 . S
H1202 C1216 0.960 . S
H1203 C1216 0.960 . S
C1204 H1196 0.929 . S
C1204 C1205 1.377 . S
C1204 C1206 1.384 . S
C1205 C1204 1.377 . S
C1205 C1211 1.390 . S
C1206 H1197 0.930 . S
C1206 C1204 1.384 . S
C1206 C1207 1.372 . S
C1207 C1206 1.372 . S
C1207 C1208 1.400 . S
C1207 C1212 1.490 . S
C1208 H1198 0.930 . S
C1208 C1207 1.400 . S
C1208 C1211 1.386 . S
H1209 C1225 0.930 . S
H1210 C1226 0.931 . S
C1211 H1199 0.929 . S
C1211 C1205 1.390 . S
C1211 C1208 1.386 . S
C1212 C1207 1.490 . S
C1212 C1214 1.395 . S
C1212 C1215 1.403 . S
H1213 C1219 0.930 . S
C1214 H1200 0.930 . S
C1214 C1212 1.395 . S
C1214 C1217 1.403 . S
C1215 C1212 1.403 . S
C1215 C1216 1.524 . S
C1215 C1219 1.400 . S
C1216 H1201 0.960 . S
C1216 H1202 0.960 . S
C1216 H1203 0.960 . S
C1216 C1215 1.524 . S
C1217 C1214 1.403 . S
C1217 C1218 1.392 . S
C1217 C1221 1.495 . S
C1218 C1217 1.392 . S
C1218 C1219 1.385 . S
C1218 C1220 1.478 . S
C1219 H1213 0.930 . S
C1219 C1215 1.400 . S
C1219 C1218 1.385 . S
C1220 C1218 1.478 . S
C1220 C1222 1.381 . S
C1220 C1226 1.383 . S
C1221 C1217 1.495 . S
C1221 H1227 0.959 . S
C1221 H1228 0.961 . S
C1221 H1229 0.960 . S
C1222 C1220 1.381 . S
C1222 C1223 1.394 . S
C1222 H1230 0.930 . S
C1223 C1222 1.394 . S
C1223 C1224 1.383 . S
C1223 H1231 0.929 . S
C1224 C1223 1.383 . S
C1224 C1225 1.377 . S
C1225 H1209 0.930 . S
C1225 C1224 1.377 . S
C1225 C1226 1.379 . S
C1226 H1210 0.931 . S
C1226 C1220 1.383 . S
C1226 C1225 1.379 . S
H1227 C1221 0.959 . S
H1228 C1221 0.961 . S
H1229 C1221 0.960 . S
H1230 C1222 0.930 . S
H1231 C1223 0.929 . S
H1232 C1240 0.929 . S
H1233 C1242 0.930 . S
H1234 C1244 0.930 . S
H1235 C1247 0.929 . S
H1236 C1250 0.930 . S
H1237 C1252 0.960 . S
H1238 C1252 0.960 . S
H1239 C1252 0.960 . S
C1240 H1232 0.929 . S
C1240 C1241 1.377 . S
C1240 C1242 1.384 . S
C1241 C1240 1.377 . S
C1241 C1247 1.390 . S
C1242 H1233 0.930 . S
C1242 C1240 1.384 . S
C1242 C1243 1.372 . S
C1243 C1242 1.372 . S
C1243 C1244 1.400 . S
C1243 C1248 1.490 . S
C1244 H1234 0.930 . S
C1244 C1243 1.400 . S
C1244 C1247 1.386 . S
H1245 C1261 0.930 . S
H1246 C1262 0.931 . S
C1247 H1235 0.929 . S
C1247 C1241 1.390 . S
C1247 C1244 1.386 . S
C1248 C1243 1.490 . S
C1248 C1250 1.395 . S
C1248 C1251 1.403 . S
H1249 C1255 0.930 . S
C1250 H1236 0.930 . S
C1250 C1248 1.395 . S
C1250 C1253 1.403 . S
C1251 C1248 1.403 . S
C1251 C1252 1.524 . S
C1251 C1255 1.400 . S
C1252 H1237 0.960 . S
C1252 H1238 0.960 . S
C1252 H1239 0.960 . S
C1252 C1251 1.524 . S
C1253 C1250 1.403 . S
C1253 C1254 1.392 . S
C1253 C1257 1.495 . S
C1254 C1253 1.392 . S
C1254 C1255 1.385 . S
C1254 C1256 1.478 . S
C1255 H1249 0.930 . S
C1255 C1251 1.400 . S
C1255 C1254 1.385 . S
C1256 C1254 1.478 . S
C1256 C1258 1.381 . S
C1256 C1262 1.383 . S
C1257 C1253 1.495 . S
C1257 H1263 0.959 . S
C1257 H1264 0.961 . S
C1257 H1265 0.960 . S
C1258 C1256 1.381 . S
C1258 C1259 1.394 . S
C1258 H1266 0.930 . S
C1259 C1258 1.394 . S
C1259 C1260 1.383 . S
C1259 H1267 0.929 . S
C1260 C1259 1.383 . S
C1260 C1261 1.377 . S
C1261 H1245 0.930 . S
C1261 C1260 1.377 . S
C1261 C1262 1.379 . S
C1262 H1246 0.931 . S
C1262 C1256 1.383 . S
C1262 C1261 1.379 . S
H1263 C1257 0.959 . S
H1264 C1257 0.961 . S
H1265 C1257 0.960 . S
H1266 C1258 0.930 . S
H1267 C1259 0.929 . S
H1268 C1276 0.929 . S
H1269 C1278 0.930 . S
H1270 C1280 0.930 . S
H1271 C1283 0.929 . S
H1272 C1286 0.930 . S
H1273 C1288 0.960 . S
H1274 C1288 0.960 . S
H1275 C1288 0.960 . S
C1276 H1268 0.929 . S
C1276 C1277 1.377 . S
C1276 C1278 1.384 . S
C1277 C1276 1.377 . S
C1277 C1283 1.390 . S
C1278 H1269 0.930 . S
C1278 C1276 1.384 . S
C1278 C1279 1.372 . S
C1279 C1278 1.372 . S
C1279 C1280 1.400 . S
C1279 C1284 1.490 . S
C1280 H1270 0.930 . S
C1280 C1279 1.400 . S
C1280 C1283 1.386 . S
H1281 C1297 0.930 . S
H1282 C1298 0.931 . S
C1283 H1271 0.929 . S
C1283 C1277 1.390 . S
C1283 C1280 1.386 . S
C1284 C1279 1.490 . S
C1284 C1286 1.395 . S
C1284 C1287 1.403 . S
H1285 C1291 0.930 . S
C1286 H1272 0.930 . S
C1286 C1284 1.395 . S
C1286 C1289 1.403 . S
C1287 C1284 1.403 . S
C1287 C1288 1.524 . S
C1287 C1291 1.400 . S
C1288 H1273 0.960 . S
C1288 H1274 0.960 . S
C1288 H1275 0.960 . S
C1288 C1287 1.524 . S
C1289 C1286 1.403 . S
C1289 C1290 1.392 . S
C1289 C1293 1.495 . S
C1290 C1289 1.392 . S
C1290 C1291 1.385 . S
C1290 C1292 1.478 . S
C1291 H1285 0.930 . S
C1291 C1287 1.400 . S
C1291 C1290 1.385 . S
C1292 C1290 1.478 . S
C1292 C1294 1.381 . S
C1292 C1298 1.383 . S
C1293 C1289 1.495 . S
C1293 H1299 0.959 . S
C1293 H1300 0.961 . S
C1293 H1301 0.960 . S
C1294 C1292 1.381 . S
C1294 C1295 1.394 . S
C1294 H1302 0.930 . S
C1295 C1294 1.394 . S
C1295 C1296 1.383 . S
C1295 H1303 0.929 . S
C1296 C1295 1.383 . S
C1296 C1297 1.377 . S
C1297 H1281 0.930 . S
C1297 C1296 1.377 . S
C1297 C1298 1.379 . S
C1298 H1282 0.931 . S
C1298 C1292 1.383 . S
C1298 C1297 1.379 . S
H1299 C1293 0.959 . S
H1300 C1293 0.961 . S
H1301 C1293 0.960 . S
H1302 C1294 0.930 . S
H1303 C1295 0.929 . S
H1304 C1312 0.929 . S
H1305 C1314 0.930 . S
H1306 C1316 0.930 . S
H1307 C1319 0.929 . S
H1308 C1322 0.930 . S
H1309 C1324 0.960 . S
H1310 C1324 0.960 . S
H1311 C1324 0.960 . S
C1312 H1304 0.929 . S
C1312 C1313 1.377 . S
C1312 C1314 1.384 . S
C1313 C1312 1.377 . S
C1313 C1319 1.390 . S
C1314 H1305 0.930 . S
C1314 C1312 1.384 . S
C1314 C1315 1.372 . S
C1315 C1314 1.372 . S
C1315 C1316 1.400 . S
C1315 C1320 1.490 . S
C1316 H1306 0.930 . S
C1316 C1315 1.400 . S
C1316 C1319 1.386 . S
H1317 C1333 0.930 . S
H1318 C1334 0.931 . S
C1319 H1307 0.929 . S
C1319 C1313 1.390 . S
C1319 C1316 1.386 . S
C1320 C1315 1.490 . S
C1320 C1322 1.395 . S
C1320 C1323 1.403 . S
H1321 C1327 0.930 . S
C1322 H1308 0.930 . S
C1322 C1320 1.395 . S
C1322 C1325 1.403 . S
C1323 C1320 1.403 . S
C1323 C1324 1.524 . S
C1323 C1327 1.400 . S
C1324 H1309 0.960 . S
C1324 H1310 0.960 . S
C1324 H1311 0.960 . S
C1324 C1323 1.524 . S
C1325 C1322 1.403 . S
C1325 C1326 1.392 . S
C1325 C1329 1.495 . S
C1326 C1325 1.392 . S
C1326 C1327 1.385 . S
C1326 C1328 1.478 . S
C1327 H1321 0.930 . S
C1327 C1323 1.400 . S
C1327 C1326 1.385 . S
C1328 C1326 1.478 . S
C1328 C1330 1.381 . S
C1328 C1334 1.383 . S
C1329 C1325 1.495 . S
C1329 H1335 0.959 . S
C1329 H1336 0.961 . S
C1329 H1337 0.960 . S
C1330 C1328 1.381 . S
C1330 C1331 1.394 . S
C1330 H1338 0.930 . S
C1331 C1330 1.394 . S
C1331 C1332 1.383 . S
C1331 H1339 0.929 . S
C1332 C1331 1.383 . S
C1332 C1333 1.377 . S
C1333 H1317 0.930 . S
C1333 C1332 1.377 . S
C1333 C1334 1.379 . S
C1334 H1318 0.931 . S
C1334 C1328 1.383 . S
C1334 C1333 1.379 . S
H1335 C1329 0.959 . S
H1336 C1329 0.961 . S
H1337 C1329 0.960 . S
H1338 C1330 0.930 . S
H1339 C1331 0.929 . S
H1340 C1348 0.929 . S
H1341 C1350 0.930 . S
H1342 C1352 0.930 . S
H1343 C1355 0.929 . S
H1344 C1358 0.930 . S
H1345 C1360 0.960 . S
H1346 C1360 0.960 . S
H1347 C1360 0.960 . S
C1348 H1340 0.929 . S
C1348 C1349 1.377 . S
C1348 C1350 1.384 . S
C1349 C1348 1.377 . S
C1349 C1355 1.390 . S
C1350 H1341 0.930 . S
C1350 C1348 1.384 . S
C1350 C1351 1.372 . S
C1351 C1350 1.372 . S
C1351 C1352 1.400 . S
C1351 C1356 1.490 . S
C1352 H1342 0.930 . S
C1352 C1351 1.400 . S
C1352 C1355 1.386 . S
H1353 C1369 0.930 . S
H1354 C1370 0.931 . S
C1355 H1343 0.929 . S
C1355 C1349 1.390 . S
C1355 C1352 1.386 . S
C1356 C1351 1.490 . S
C1356 C1358 1.395 . S
C1356 C1359 1.403 . S
H1357 C1363 0.930 . S
C1358 H1344 0.930 . S
C1358 C1356 1.395 . S
C1358 C1361 1.403 . S
C1359 C1356 1.403 . S
C1359 C1360 1.524 . S
C1359 C1363 1.400 . S
C1360 H1345 0.960 . S
C1360 H1346 0.960 . S
C1360 H1347 0.960 . S
C1360 C1359 1.524 . S
C1361 C1358 1.403 . S
C1361 C1362 1.392 . S
C1361 C1365 1.495 . S
C1362 C1361 1.392 . S
C1362 C1363 1.385 . S
C1362 C1364 1.478 . S
C1363 H1357 0.930 . S
C1363 C1359 1.400 . S
C1363 C1362 1.385 . S
C1364 C1362 1.478 . S
C1364 C1366 1.381 . S
C1364 C1370 1.383 . S
C1365 C1361 1.495 . S
C1365 H1371 0.959 . S
C1365 H1372 0.961 . S
C1365 H1373 0.960 . S
C1366 C1364 1.381 . S
C1366 C1367 1.394 . S
C1366 H1374 0.930 . S
C1367 C1366 1.394 . S
C1367 C1368 1.383 . S
C1367 H1375 0.929 . S
C1368 C1367 1.383 . S
C1368 C1369 1.377 . S
C1369 H1353 0.930 . S
C1369 C1368 1.377 . S
C1369 C1370 1.379 . S
C1370 H1354 0.931 . S
C1370 C1364 1.383 . S
C1370 C1369 1.379 . S
H1371 C1365 0.959 . S
H1372 C1365 0.961 . S
H1373 C1365 0.960 . S
H1374 C1366 0.930 . S
H1375 C1367 0.929 . S
H1376 C1384 0.929 . S
H1377 C1386 0.930 . S
H1378 C1388 0.930 . S
H1379 C1391 0.929 . S
H1380 C1394 0.930 . S
H1381 C1396 0.960 . S
H1382 C1396 0.960 . S
H1383 C1396 0.960 . S
C1384 H1376 0.929 . S
C1384 C1385 1.377 . S
C1384 C1386 1.384 . S
C1385 C1384 1.377 . S
C1385 C1391 1.390 . S
C1386 H1377 0.930 . S
C1386 C1384 1.384 . S
C1386 C1387 1.372 . S
C1387 C1386 1.372 . S
C1387 C1388 1.400 . S
C1387 C1392 1.490 . S
C1388 H1378 0.930 . S
C1388 C1387 1.400 . S
C1388 C1391 1.386 . S
H1389 C1405 0.930 . S
H1390 C1406 0.931 . S
C1391 H1379 0.929 . S
C1391 C1385 1.390 . S
C1391 C1388 1.386 . S
C1392 C1387 1.490 . S
C1392 C1394 1.395 . S
C1392 C1395 1.403 . S
H1393 C1399 0.930 . S
C1394 H1380 0.930 . S
C1394 C1392 1.395 . S
C1394 C1397 1.403 . S
C1395 C1392 1.403 . S
C1395 C1396 1.524 . S
C1395 C1399 1.400 . S
C1396 H1381 0.960 . S
C1396 H1382 0.960 . S
C1396 H1383 0.960 . S
C1396 C1395 1.524 . S
C1397 C1394 1.403 . S
C1397 C1398 1.392 . S
C1397 C1401 1.495 . S
C1398 C1397 1.392 . S
C1398 C1399 1.385 . S
C1398 C1400 1.478 . S
C1399 H1393 0.930 . S
C1399 C1395 1.400 . S
C1399 C1398 1.385 . S
C1400 C1398 1.478 . S
C1400 C1402 1.381 . S
C1400 C1406 1.383 . S
C1401 C1397 1.495 . S
C1401 H1407 0.959 . S
C1401 H1408 0.961 . S
C1401 H1409 0.960 . S
C1402 C1400 1.381 . S
C1402 C1403 1.394 . S
C1402 H1410 0.930 . S
C1403 C1402 1.394 . S
C1403 C1404 1.383 . S
C1403 H1411 0.929 . S
C1404 C1403 1.383 . S
C1404 C1405 1.377 . S
C1405 H1389 0.930 . S
C1405 C1404 1.377 . S
C1405 C1406 1.379 . S
C1406 H1390 0.931 . S
C1406 C1400 1.383 . S
C1406 C1405 1.379 . S
H1407 C1401 0.959 . S
H1408 C1401 0.961 . S
H1409 C1401 0.960 . S
H1410 C1402 0.930 . S
H1411 C1403 0.929 . S
H1412 C1420 0.929 . S
H1413 C1422 0.930 . S
H1414 C1424 0.930 . S
H1415 C1427 0.929 . S
H1416 C1430 0.930 . S
H1417 C1432 0.960 . S
H1418 C1432 0.960 . S
H1419 C1432 0.960 . S
C1420 H1412 0.929 . S
C1420 C1421 1.377 . S
C1420 C1422 1.384 . S
C1421 C1420 1.377 . S
C1421 C1427 1.390 . S
C1422 H1413 0.930 . S
C1422 C1420 1.384 . S
C1422 C1423 1.372 . S
C1423 C1422 1.372 . S
C1423 C1424 1.400 . S
C1423 C1428 1.490 . S
C1424 H1414 0.930 . S
C1424 C1423 1.400 . S
C1424 C1427 1.386 . S
H1425 C1441 0.930 . S
H1426 C1442 0.931 . S
C1427 H1415 0.929 . S
C1427 C1421 1.390 . S
C1427 C1424 1.386 . S
C1428 C1423 1.490 . S
C1428 C1430 1.395 . S
C1428 C1431 1.403 . S
H1429 C1435 0.930 . S
C1430 H1416 0.930 . S
C1430 C1428 1.395 . S
C1430 C1433 1.403 . S
C1431 C1428 1.403 . S
C1431 C1432 1.524 . S
C1431 C1435 1.400 . S
C1432 H1417 0.960 . S
C1432 H1418 0.960 . S
C1432 H1419 0.960 . S
C1432 C1431 1.524 . S
C1433 C1430 1.403 . S
C1433 C1434 1.392 . S
C1433 C1437 1.495 . S
C1434 C1433 1.392 . S
C1434 C1435 1.385 . S
C1434 C1436 1.478 . S
C1435 H1429 0.930 . S
C1435 C1431 1.400 . S
C1435 C1434 1.385 . S
C1436 C1434 1.478 . S
C1436 C1438 1.381 . S
C1436 C1442 1.383 . S
C1437 C1433 1.495 . S
C1437 H1443 0.959 . S
C1437 H1444 0.961 . S
C1437 H1445 0.960 . S
C1438 C1436 1.381 . S
C1438 C1439 1.394 . S
C1438 H1446 0.930 . S
C1439 C1438 1.394 . S
C1439 C1440 1.383 . S
C1439 H1447 0.929 . S
C1440 C1439 1.383 . S
C1440 C1441 1.377 . S
C1441 H1425 0.930 . S
C1441 C1440 1.377 . S
C1441 C1442 1.379 . S
C1442 H1426 0.931 . S
C1442 C1436 1.383 . S
C1442 C1441 1.379 . S
H1443 C1437 0.959 . S
H1444 C1437 0.961 . S
H1445 C1437 0.960 . S
H1446 C1438 0.930 . S
H1447 C1439 0.929 . S
H1448 C1456 0.929 . S
H1449 C1458 0.930 . S
H1450 C1460 0.930 . S
H1451 C1463 0.929 . S
H1452 C1466 0.930 . S
H1453 C1468 0.960 . S
H1454 C1468 0.960 . S
H1455 C1468 0.960 . S
C1456 H1448 0.929 . S
C1456 C1457 1.377 . S
C1456 C1458 1.384 . S
C1457 C1456 1.377 . S
C1457 C1463 1.390 . S
C1458 H1449 0.930 . S
C1458 C1456 1.384 . S
C1458 C1459 1.372 . S
C1459 C1458 1.372 . S
C1459 C1460 1.400 . S
C1459 C1464 1.490 . S
C1460 H1450 0.930 . S
C1460 C1459 1.400 . S
C1460 C1463 1.386 . S
H1461 C1477 0.930 . S
H1462 C1478 0.931 . S
C1463 H1451 0.929 . S
C1463 C1457 1.390 . S
C1463 C1460 1.386 . S
C1464 C1459 1.490 . S
C1464 C1466 1.395 . S
C1464 C1467 1.403 . S
H1465 C1471 0.930 . S
C1466 H1452 0.930 . S
C1466 C1464 1.395 . S
C1466 C1469 1.403 . S
C1467 C1464 1.403 . S
C1467 C1468 1.524 . S
C1467 C1471 1.400 . S
C1468 H1453 0.960 . S
C1468 H1454 0.960 . S
C1468 H1455 0.960 . S
C1468 C1467 1.524 . S
C1469 C1466 1.403 . S
C1469 C1470 1.392 . S
C1469 C1473 1.495 . S
C1470 C1469 1.392 . S
C1470 C1471 1.385 . S
C1470 C1472 1.478 . S
C1471 H1465 0.930 . S
C1471 C1467 1.400 . S
C1471 C1470 1.385 . S
C1472 C1470 1.478 . S
C1472 C1474 1.381 . S
C1472 C1478 1.383 . S
C1473 C1469 1.495 . S
C1473 H1479 0.959 . S
C1473 H1480 0.961 . S
C1473 H1481 0.960 . S
C1474 C1472 1.381 . S
C1474 C1475 1.394 . S
C1474 H1482 0.930 . S
C1475 C1474 1.394 . S
C1475 C1476 1.383 . S
C1475 H1483 0.929 . S
C1476 C1475 1.383 . S
C1476 C1477 1.377 . S
C1477 H1461 0.930 . S
C1477 C1476 1.377 . S
C1477 C1478 1.379 . S
C1478 H1462 0.931 . S
C1478 C1472 1.383 . S
C1478 C1477 1.379 . S
H1479 C1473 0.959 . S
H1480 C1473 0.961 . S
H1481 C1473 0.960 . S
H1482 C1474 0.930 . S
H1483 C1475 0.929 . S
H1484 C1492 0.929 . S
H1485 C1494 0.930 . S
H1486 C1496 0.930 . S
H1487 C1499 0.929 . S
H1488 C1502 0.930 . S
H1489 C1504 0.960 . S
H1490 C1504 0.960 . S
H1491 C1504 0.960 . S
C1492 H1484 0.929 . S
C1492 C1493 1.377 . S
C1492 C1494 1.384 . S
C1493 C1492 1.377 . S
C1493 C1499 1.390 . S
C1494 H1485 0.930 . S
C1494 C1492 1.384 . S
C1494 C1495 1.372 . S
C1495 C1494 1.372 . S
C1495 C1496 1.400 . S
C1495 C1500 1.490 . S
C1496 H1486 0.930 . S
C1496 C1495 1.400 . S
C1496 C1499 1.386 . S
H1497 C1513 0.930 . S
H1498 C1514 0.931 . S
C1499 H1487 0.929 . S
C1499 C1493 1.390 . S
C1499 C1496 1.386 . S
C1500 C1495 1.490 . S
C1500 C1502 1.395 . S
C1500 C1503 1.403 . S
H1501 C1507 0.930 . S
C1502 H1488 0.930 . S
C1502 C1500 1.395 . S
C1502 C1505 1.403 . S
C1503 C1500 1.403 . S
C1503 C1504 1.524 . S
C1503 C1507 1.400 . S
C1504 H1489 0.960 . S
C1504 H1490 0.960 . S
C1504 H1491 0.960 . S
C1504 C1503 1.524 . S
C1505 C1502 1.403 . S
C1505 C1506 1.392 . S
C1505 C1509 1.495 . S
C1506 C1505 1.392 . S
C1506 C1507 1.385 . S
C1506 C1508 1.478 . S
C1507 H1501 0.930 . S
C1507 C1503 1.400 . S
C1507 C1506 1.385 . S
C1508 C1506 1.478 . S
C1508 C1510 1.381 . S
C1508 C1514 1.383 . S
C1509 C1505 1.495 . S
C1509 H1515 0.959 . S
C1509 H1516 0.961 . S
C1509 H1517 0.960 . S
C1510 C1508 1.381 . S
C1510 C1511 1.394 . S
C1510 H1518 0.930 . S
C1511 C1510 1.394 . S
C1511 C1512 1.383 . S
C1511 H1519 0.929 . S
C1512 C1511 1.383 . S
C1512 C1513 1.377 . S
C1513 H1497 0.930 . S
C1513 C1512 1.377 . S
C1513 C1514 1.379 . S
C1514 H1498 0.931 . S
C1514 C1508 1.383 . S
C1514 C1513 1.379 . S
H1515 C1509 0.959 . S
H1516 C1509 0.961 . S
H1517 C1509 0.960 . S
H1518 C1510 0.930 . S
H1519 C1511 0.929 . S
H1520 C1528 0.929 . S
H1521 C1530 0.930 . S
H1522 C1532 0.930 . S
H1523 C1535 0.929 . S
H1524 C1538 0.930 . S
H1525 C1540 0.960 . S
H1526 C1540 0.960 . S
H1527 C1540 0.960 . S
C1528 H1520 0.929 . S
C1528 C1529 1.377 . S
C1528 C1530 1.384 . S
C1529 C1528 1.377 . S
C1529 C1535 1.390 . S
C1530 H1521 0.930 . S
C1530 C1528 1.384 . S
C1530 C1531 1.372 . S
C1531 C1530 1.372 . S
C1531 C1532 1.400 . S
C1531 C1536 1.490 . S
C1532 H1522 0.930 . S
C1532 C1531 1.400 . S
C1532 C1535 1.386 . S
H1533 C1549 0.930 . S
H1534 C1550 0.931 . S
C1535 H1523 0.929 . S
C1535 C1529 1.390 . S
C1535 C1532 1.386 . S
C1536 C1531 1.490 . S
C1536 C1538 1.395 . S
C1536 C1539 1.403 . S
H1537 C1543 0.930 . S
C1538 H1524 0.930 . S
C1538 C1536 1.395 . S
C1538 C1541 1.403 . S
C1539 C1536 1.403 . S
C1539 C1540 1.524 . S
C1539 C1543 1.400 . S
C1540 H1525 0.960 . S
C1540 H1526 0.960 . S
C1540 H1527 0.960 . S
C1540 C1539 1.524 . S
C1541 C1538 1.403 . S
C1541 C1542 1.392 . S
C1541 C1545 1.495 . S
C1542 C1541 1.392 . S
C1542 C1543 1.385 . S
C1542 C1544 1.478 . S
C1543 H1537 0.930 . S
C1543 C1539 1.400 . S
C1543 C1542 1.385 . S
C1544 C1542 1.478 . S
C1544 C1546 1.381 . S
C1544 C1550 1.383 . S
C1545 C1541 1.495 . S
C1545 H1551 0.959 . S
C1545 H1552 0.961 . S
C1545 H1553 0.960 . S
C1546 C1544 1.381 . S
C1546 C1547 1.394 . S
C1546 H1554 0.930 . S
C1547 C1546 1.394 . S
C1547 C1548 1.383 . S
C1547 H1555 0.929 . S
C1548 C1547 1.383 . S
C1548 C1549 1.377 . S
C1549 H1533 0.930 . S
C1549 C1548 1.377 . S
C1549 C1550 1.379 . S
C1550 H1534 0.931 . S
C1550 C1544 1.383 . S
C1550 C1549 1.379 . S
H1551 C1545 0.959 . S
H1552 C1545 0.961 . S
H1553 C1545 0.960 . S
H1554 C1546 0.930 . S
H1555 C1547 0.929 . S
H1556 C1564 0.929 . S
H1557 C1566 0.930 . S
H1558 C1568 0.930 . S
H1559 C1571 0.929 . S
H1560 C1574 0.930 . S
H1561 C1576 0.960 . S
H1562 C1576 0.960 . S
H1563 C1576 0.960 . S
C1564 H1556 0.929 . S
C1564 C1565 1.377 . S
C1564 C1566 1.384 . S
C1565 C1564 1.377 . S
C1565 C1571 1.390 . S
C1566 H1557 0.930 . S
C1566 C1564 1.384 . S
C1566 C1567 1.372 . S
C1567 C1566 1.372 . S
C1567 C1568 1.400 . S
C1567 C1572 1.490 . S
C1568 H1558 0.930 . S
C1568 C1567 1.400 . S
C1568 C1571 1.386 . S
H1569 C1585 0.930 . S
H1570 C1586 0.931 . S
C1571 H1559 0.929 . S
C1571 C1565 1.390 . S
C1571 C1568 1.386 . S
C1572 C1567 1.490 . S
C1572 C1574 1.395 . S
C1572 C1575 1.403 . S
H1573 C1579 0.930 . S
C1574 H1560 0.930 . S
C1574 C1572 1.395 . S
C1574 C1577 1.403 . S
C1575 C1572 1.403 . S
C1575 C1576 1.524 . S
C1575 C1579 1.400 . S
C1576 H1561 0.960 . S
C1576 H1562 0.960 . S
C1576 H1563 0.960 . S
C1576 C1575 1.524 . S
C1577 C1574 1.403 . S
C1577 C1578 1.392 . S
C1577 C1581 1.495 . S
C1578 C1577 1.392 . S
C1578 C1579 1.385 . S
C1578 C1580 1.478 . S
C1579 H1573 0.930 . S
C1579 C1575 1.400 . S
C1579 C1578 1.385 . S
C1580 C1578 1.478 . S
C1580 C1582 1.381 . S
C1580 C1586 1.383 . S
C1581 C1577 1.495 . S
C1581 H1587 0.959 . S
C1581 H1588 0.961 . S
C1581 H1589 0.960 . S
C1582 C1580 1.381 . S
C1582 C1583 1.394 . S
C1582 H1590 0.930 . S
C1583 C1582 1.394 . S
C1583 C1584 1.383 . S
C1583 H1591 0.929 . S
C1584 C1583 1.383 . S
C1584 C1585 1.377 . S
C1585 H1569 0.930 . S
C1585 C1584 1.377 . S
C1585 C1586 1.379 . S
C1586 H1570 0.931 . S
C1586 C1580 1.383 . S
C1586 C1585 1.379 . S
H1587 C1581 0.959 . S
H1588 C1581 0.961 . S
H1589 C1581 0.960 . S
H1590 C1582 0.930 . S
H1591 C1583 0.929 . S
H1592 C1600 0.929 . S
H1593 C1602 0.930 . S
H1594 C1604 0.930 . S
H1595 C1607 0.929 . S
H1596 C1610 0.930 . S
H1597 C1612 0.960 . S
H1598 C1612 0.960 . S
H1599 C1612 0.960 . S
C1600 H1592 0.929 . S
C1600 C1601 1.377 . S
C1600 C1602 1.384 . S
C1601 C1600 1.377 . S
C1601 C1607 1.390 . S
C1602 H1593 0.930 . S
C1602 C1600 1.384 . S
C1602 C1603 1.372 . S
C1603 C1602 1.372 . S
C1603 C1604 1.400 . S
C1603 C1608 1.490 . S
C1604 H1594 0.930 . S
C1604 C1603 1.400 . S
C1604 C1607 1.386 . S
H1605 C1621 0.930 . S
H1606 C1622 0.931 . S
C1607 H1595 0.929 . S
C1607 C1601 1.390 . S
C1607 C1604 1.386 . S
C1608 C1603 1.490 . S
C1608 C1610 1.395 . S
C1608 C1611 1.403 . S
H1609 C1615 0.930 . S
C1610 H1596 0.930 . S
C1610 C1608 1.395 . S
C1610 C1613 1.403 . S
C1611 C1608 1.403 . S
C1611 C1612 1.524 . S
C1611 C1615 1.400 . S
C1612 H1597 0.960 . S
C1612 H1598 0.960 . S
C1612 H1599 0.960 . S
C1612 C1611 1.524 . S
C1613 C1610 1.403 . S
C1613 C1614 1.392 . S
C1613 C1617 1.495 . S
C1614 C1613 1.392 . S
C1614 C1615 1.385 . S
C1614 C1616 1.478 . S
C1615 H1609 0.930 . S
C1615 C1611 1.400 . S
C1615 C1614 1.385 . S
C1616 C1614 1.478 . S
C1616 C1618 1.381 . S
C1616 C1622 1.383 . S
C1617 C1613 1.495 . S
C1617 H1623 0.959 . S
C1617 H1624 0.961 . S
C1617 H1625 0.960 . S
C1618 C1616 1.381 . S
C1618 C1619 1.394 . S
C1618 H1626 0.930 . S
C1619 C1618 1.394 . S
C1619 C1620 1.383 . S
C1619 H1627 0.929 . S
C1620 C1619 1.383 . S
C1620 C1621 1.377 . S
C1621 H1605 0.930 . S
C1621 C1620 1.377 . S
C1621 C1622 1.379 . S
C1622 H1606 0.931 . S
C1622 C1616 1.383 . S
C1622 C1621 1.379 . S
H1623 C1617 0.959 . S
H1624 C1617 0.961 . S
H1625 C1617 0.960 . S
H1626 C1618 0.930 . S
H1627 C1619 0.929 . S
H1628 C1636 0.929 . S
H1629 C1638 0.930 . S
H1630 C1640 0.930 . S
H1631 C1643 0.929 . S
H1632 C1646 0.930 . S
H1633 C1648 0.960 . S
H1634 C1648 0.960 . S
H1635 C1648 0.960 . S
C1636 H1628 0.929 . S
C1636 C1637 1.377 . S
C1636 C1638 1.384 . S
C1637 C1636 1.377 . S
C1637 C1643 1.390 . S
C1638 H1629 0.930 . S
C1638 C1636 1.384 . S
C1638 C1639 1.372 . S
C1639 C1638 1.372 . S
C1639 C1640 1.400 . S
C1639 C1644 1.490 . S
C1640 H1630 0.930 . S
C1640 C1639 1.400 . S
C1640 C1643 1.386 . S
H1641 C1657 0.930 . S
H1642 C1658 0.931 . S
C1643 H1631 0.929 . S
C1643 C1637 1.390 . S
C1643 C1640 1.386 . S
C1644 C1639 1.490 . S
C1644 C1646 1.395 . S
C1644 C1647 1.403 . S
H1645 C1651 0.930 . S
C1646 H1632 0.930 . S
C1646 C1644 1.395 . S
C1646 C1649 1.403 . S
C1647 C1644 1.403 . S
C1647 C1648 1.524 . S
C1647 C1651 1.400 . S
C1648 H1633 0.960 . S
C1648 H1634 0.960 . S
C1648 H1635 0.960 . S
C1648 C1647 1.524 . S
C1649 C1646 1.403 . S
C1649 C1650 1.392 . S
C1649 C1653 1.495 . S
C1650 C1649 1.392 . S
C1650 C1651 1.385 . S
C1650 C1652 1.478 . S
C1651 H1645 0.930 . S
C1651 C1647 1.400 . S
C1651 C1650 1.385 . S
C1652 C1650 1.478 . S
C1652 C1654 1.381 . S
C1652 C1658 1.383 . S
C1653 C1649 1.495 . S
C1653 H1659 0.959 . S
C1653 H1660 0.961 . S
C1653 H1661 0.960 . S
C1654 C1652 1.381 . S
C1654 C1655 1.394 . S
C1654 H1662 0.930 . S
C1655 C1654 1.394 . S
C1655 C1656 1.383 . S
C1655 H1663 0.929 . S
C1656 C1655 1.383 . S
C1656 C1657 1.377 . S
C1657 H1641 0.930 . S
C1657 C1656 1.377 . S
C1657 C1658 1.379 . S
C1658 H1642 0.931 . S
C1658 C1652 1.383 . S
C1658 C1657 1.379 . S
H1659 C1653 0.959 . S
H1660 C1653 0.961 . S
H1661 C1653 0.960 . S
H1662 C1654 0.930 . S
H1663 C1655 0.929 . S
H1664 C1672 0.929 . S
H1665 C1674 0.930 . S
H1666 C1676 0.930 . S
H1667 C1679 0.929 1_556 S
H1668 C1682 0.930 . S
H1669 C1684 0.960 . S
H1670 C1684 0.960 . S
H1671 C1684 0.960 . S
C1672 H1664 0.929 . S
C1672 C1673 1.377 . S
C1672 C1674 1.384 . S
C1673 C1672 1.377 . S
C1673 C1679 1.390 . S
C1674 H1665 0.930 . S
C1674 C1672 1.384 . S
C1674 C1675 1.372 . S
C1675 C1674 1.372 . S
C1675 C1676 1.400 1_554 S
C1675 C1680 1.490 . S
C1676 H1666 0.930 . S
C1676 C1675 1.400 1_556 S
C1676 C1679 1.386 1_556 S
H1677 C1693 0.930 . S
H1678 C1694 0.931 . S
C1679 H1667 0.929 1_554 S
C1679 C1673 1.390 . S
C1679 C1676 1.386 1_554 S
C1680 C1675 1.490 . S
C1680 C1682 1.395 . S
C1680 C1683 1.403 1_554 S
H1681 C1687 0.930 . S
C1682 H1668 0.930 . S
C1682 C1680 1.395 . S
C1682 C1685 1.403 1_455 S
C1683 C1680 1.403 1_556 S
C1683 C1684 1.524 . S
C1683 C1687 1.400 1_455 S
C1684 H1669 0.960 . S
C1684 H1670 0.960 . S
C1684 H1671 0.960 . S
C1684 C1683 1.524 . S
C1685 C1682 1.403 1_655 S
C1685 C1686 1.392 1_554 S
C1685 C1689 1.495 . S
C1686 C1685 1.392 1_556 S
C1686 C1687 1.385 . S
C1686 C1688 1.478 . S
C1687 H1681 0.930 . S
C1687 C1683 1.400 1_655 S
C1687 C1686 1.385 . S
C1688 C1686 1.478 . S
C1688 C1690 1.381 1_556 S
C1688 C1694 1.383 . S
C1689 C1685 1.495 . S
C1689 H1695 0.959 . S
C1689 H1696 0.961 . S
C1689 H1697 0.960 . S
C1690 C1688 1.381 1_554 S
C1690 C1691 1.393 1_554 S
C1690 H1698 0.930 . S
C1691 C1690 1.393 1_556 S
C1691 C1692 1.387 . S
C1691 H1699 0.927 1_556 S
C1692 C1691 1.387 . S
C1692 C1693 1.377 . S
C1693 H1677 0.930 . S
C1693 C1692 1.377 . S
C1693 C1694 1.379 . S
C1694 H1678 0.931 . S
C1694 C1688 1.383 . S
C1694 C1693 1.379 . S
H1695 C1689 0.959 . S
H1696 C1689 0.961 . S
H1697 C1689 0.960 . S
H1698 C1690 0.930 . S
H1699 C1691 0.927 1_554 S
H1700 C1708 0.929 . S
H1701 C1710 0.930 . S
H1702 C1712 0.930 . S
H1703 C1715 0.929 . S
H1704 C1718 0.930 . S
H1705 C1720 0.960 . S
H1706 C1720 0.960 . S
H1707 C1720 0.960 . S
C1708 H1700 0.929 . S
C1708 C1709 1.377 . S
C1708 C1710 1.384 . S
C1709 C1708 1.377 . S
C1709 C1715 1.390 . S
C1710 H1701 0.930 . S
C1710 C1708 1.384 . S
C1710 C1711 1.372 . S
C1711 C1710 1.372 . S
C1711 C1712 1.400 . S
C1711 C1716 1.490 . S
C1712 H1702 0.930 . S
C1712 C1711 1.400 . S
C1712 C1715 1.386 . S
H1713 C1729 0.930 . S
H1714 C1730 0.931 1_554 S
C1715 H1703 0.929 . S
C1715 C1709 1.390 . S
C1715 C1712 1.386 . S
C1716 C1711 1.490 . S
C1716 C1718 1.395 . S
C1716 C1719 1.403 1_554 S
H1717 C1723 0.930 . S
C1718 H1704 0.930 . S
C1718 C1716 1.395 . S
C1718 C1721 1.403 . S
C1719 C1716 1.403 1_556 S
C1719 C1720 1.524 . S
C1719 C1723 1.400 . S
C1720 H1705 0.960 . S
C1720 H1706 0.960 . S
C1720 H1707 0.960 . S
C1720 C1719 1.524 . S
C1721 C1718 1.403 . S
C1721 C1722 1.392 1_554 S
C1721 C1725 1.495 . S
C1722 C1721 1.392 1_556 S
C1722 C1723 1.385 . S
C1722 C1724 1.478 . S
C1723 H1717 0.930 . S
C1723 C1719 1.400 . S
C1723 C1722 1.385 . S
C1724 C1722 1.478 . S
C1724 C1726 1.381 . S
C1724 C1730 1.383 . S
C1725 C1721 1.495 . S
C1725 H1731 0.959 . S
C1725 H1732 0.961 . S
C1725 H1733 0.960 . S
C1726 C1724 1.381 . S
C1726 C1727 1.394 . S
C1726 H1734 0.930 . S
C1727 C1726 1.394 . S
C1727 C1728 1.383 . S
C1727 H1735 0.929 . S
C1728 C1727 1.383 . S
C1728 C1729 1.377 . S
C1729 H1713 0.930 . S
C1729 C1728 1.377 . S
C1729 C1730 1.379 . S
C1730 H1714 0.931 1_556 S
C1730 C1724 1.383 . S
C1730 C1729 1.379 . S
H1731 C1725 0.959 . S
H1732 C1725 0.961 . S
H1733 C1725 0.960 . S
H1734 C1726 0.930 . S
H1735 C1727 0.929 . S
H1736 C1744 0.929 . S
H1737 C1746 0.930 . S
H1738 C1748 0.930 . S
H1739 C1751 0.929 . S
H1740 C1754 0.930 . S
H1741 C1756 0.960 . S
H1742 C1756 0.960 . S
H1743 C1756 0.960 . S
C1744 H1736 0.929 . S
C1744 C1745 1.377 . S
C1744 C1746 1.384 . S
C1745 C1744 1.377 . S
C1745 C1751 1.390 . S
C1746 H1737 0.930 . S
C1746 C1744 1.384 . S
C1746 C1747 1.372 . S
C1747 C1746 1.372 . S
C1747 C1748 1.400 . S
C1747 C1752 1.490 . S
C1748 H1738 0.930 . S
C1748 C1747 1.400 . S
C1748 C1751 1.386 . S
H1749 C1765 0.930 . S
H1750 C1766 0.931 . S
C1751 H1739 0.929 . S
C1751 C1745 1.390 . S
C1751 C1748 1.386 . S
C1752 C1747 1.490 . S
C1752 C1754 1.395 . S
C1752 C1755 1.403 . S
H1753 C1759 0.930 . S
C1754 H1740 0.930 . S
C1754 C1752 1.395 . S
C1754 C1757 1.403 1_655 S
C1755 C1752 1.403 . S
C1755 C1756 1.524 . S
C1755 C1759 1.400 1_655 S
C1756 H1741 0.960 . S
C1756 H1742 0.960 . S
C1756 H1743 0.960 . S
C1756 C1755 1.524 . S
C1757 C1754 1.403 1_455 S
C1757 C1758 1.392 . S
C1757 C1761 1.495 . S
C1758 C1757 1.392 . S
C1758 C1759 1.385 . S
C1758 C1760 1.478 . S
C1759 H1753 0.930 . S
C1759 C1755 1.400 1_455 S
C1759 C1758 1.385 . S
C1760 C1758 1.478 . S
C1760 C1762 1.381 . S
C1760 C1766 1.383 . S
C1761 C1757 1.495 . S
C1761 H1767 0.959 . S
C1761 H1768 0.961 . S
C1761 H1769 0.960 . S
C1762 C1760 1.381 . S
C1762 C1763 1.394 . S
C1762 H1770 0.930 . S
C1763 C1762 1.394 . S
C1763 C1764 1.383 . S
C1763 H1771 0.929 . S
C1764 C1763 1.383 . S
C1764 C1765 1.377 . S
C1765 H1749 0.930 . S
C1765 C1764 1.377 . S
C1765 C1766 1.379 . S
C1766 H1750 0.931 . S
C1766 C1760 1.383 . S
C1766 C1765 1.379 . S
H1767 C1761 0.959 . S
H1768 C1761 0.961 . S
H1769 C1761 0.960 . S
H1770 C1762 0.930 . S
H1771 C1763 0.929 . S
H1772 C1780 0.929 . S
H1773 C1782 0.930 . S
H1774 C1784 0.930 . S
H1775 C1787 0.929 . S
H1776 C1790 0.930 . S
H1777 C1792 0.960 . S
H1778 C1792 0.960 . S
H1779 C1792 0.960 . S
C1780 H1772 0.929 . S
C1780 C1781 1.377 . S
C1780 C1782 1.384 . S
C1781 C1780 1.377 . S
C1781 C1787 1.390 . S
C1782 H1773 0.930 . S
C1782 C1780 1.384 . S
C1782 C1783 1.372 . S
C1783 C1782 1.372 . S
C1783 C1784 1.400 . S
C1783 C1788 1.490 . S
C1784 H1774 0.930 . S
C1784 C1783 1.400 . S
C1784 C1787 1.386 . S
H1785 C1801 0.930 . S
H1786 C1802 0.931 . S
C1787 H1775 0.929 . S
C1787 C1781 1.390 . S
C1787 C1784 1.386 . S
C1788 C1783 1.490 . S
C1788 C1790 1.395 . S
C1788 C1791 1.403 . S
H1789 C1795 0.930 . S
C1790 H1776 0.930 . S
C1790 C1788 1.395 . S
C1790 C1793 1.403 . S
C1791 C1788 1.403 . S
C1791 C1792 1.524 . S
C1791 C1795 1.400 . S
C1792 H1777 0.960 . S
C1792 H1778 0.960 . S
C1792 H1779 0.960 . S
C1792 C1791 1.524 . S
C1793 C1790 1.403 . S
C1793 C1794 1.392 . S
C1793 C1797 1.495 . S
C1794 C1793 1.392 . S
C1794 C1795 1.385 . S
C1794 C1796 1.478 . S
C1795 H1789 0.930 . S
C1795 C1791 1.400 . S
C1795 C1794 1.385 . S
C1796 C1794 1.478 . S
C1796 C1798 1.381 . S
C1796 C1802 1.383 . S
C1797 C1793 1.495 . S
C1797 H1803 0.959 . S
C1797 H1804 0.961 . S
C1797 H1805 0.960 . S
C1798 C1796 1.381 . S
C1798 C1799 1.394 . S
C1798 H1806 0.930 . S
C1799 C1798 1.394 . S
C1799 C1800 1.383 . S
C1799 H1807 0.929 . S
C1800 C1799 1.383 . S
C1800 C1801 1.377 . S
C1801 H1785 0.930 . S
C1801 C1800 1.377 . S
C1801 C1802 1.379 . S
C1802 H1786 0.931 . S
C1802 C1796 1.383 . S
C1802 C1801 1.379 . S
H1803 C1797 0.959 . S
H1804 C1797 0.961 . S
H1805 C1797 0.960 . S
H1806 C1798 0.930 . S
H1807 C1799 0.929 . S
H1808 C1816 0.929 . S
H1809 C1818 0.930 . S
H1810 C1820 0.930 . S
H1811 C1823 0.929 1_554 S
H1812 C1826 0.930 . S
H1813 C1828 0.960 . S
H1814 C1828 0.960 . S
H1815 C1828 0.960 . S
C1816 H1808 0.929 . S
C1816 C1817 1.377 . S
C1816 C1818 1.384 . S
C1817 C1816 1.377 . S
C1817 C1823 1.390 . S
C1818 H1809 0.930 . S
C1818 C1816 1.384 . S
C1818 C1819 1.372 . S
C1819 C1818 1.372 . S
C1819 C1820 1.400 1_556 S
C1819 C1824 1.490 . S
C1820 H1810 0.930 . S
C1820 C1819 1.400 1_554 S
C1820 C1823 1.386 1_554 S
H1821 C1837 0.930 . S
H1822 C1838 0.931 . S
C1823 H1811 0.929 1_556 S
C1823 C1817 1.390 . S
C1823 C1820 1.386 1_556 S
C1824 C1819 1.490 . S
C1824 C1826 1.398 . S
C1824 C1827 1.403 . S
H1825 C1831 0.930 . S
C1826 H1812 0.930 . S
C1826 C1824 1.398 . S
C1826 C1829 1.400 1_556 S
C1827 C1824 1.403 . S
C1827 C1828 1.524 . S
C1827 C1831 1.400 . S
C1828 H1813 0.960 . S
C1828 H1814 0.960 . S
C1828 H1815 0.960 . S
C1828 C1827 1.524 . S
C1829 C1826 1.400 1_554 S
C1829 C1830 1.392 . S
C1829 C1833 1.495 . S
C1830 C1829 1.392 . S
C1830 C1831 1.385 1_554 S
C1830 C1832 1.478 . S
C1831 H1825 0.930 . S
C1831 C1827 1.400 . S
C1831 C1830 1.385 1_556 S
C1832 C1830 1.478 . S
C1832 C1834 1.381 1_554 S
C1832 C1838 1.383 . S
C1833 C1829 1.495 . S
C1833 H1839 0.959 . S
C1833 H1840 0.961 . S
C1833 H1841 0.960 . S
C1834 C1832 1.381 1_556 S
C1834 C1835 1.394 1_556 S
C1834 H1842 0.930 . S
C1835 C1834 1.394 1_554 S
C1835 C1836 1.383 . S
C1835 H1843 0.929 1_554 S
C1836 C1835 1.383 . S
C1836 C1837 1.377 . S
C1837 H1821 0.930 . S
C1837 C1836 1.377 . S
C1837 C1838 1.379 . S
C1838 H1822 0.931 . S
C1838 C1832 1.383 . S
C1838 C1837 1.379 . S
H1839 C1833 0.959 . S
H1840 C1833 0.961 . S
H1841 C1833 0.960 . S
H1842 C1834 0.930 . S
H1843 C1835 0.929 1_556 S
H1844 C1852 0.929 . S
H1845 C1854 0.930 . S
H1846 C1856 0.930 . S
H1847 C1859 0.929 . S
H1848 C1862 0.930 . S
H1849 C1864 0.960 . S
H1850 C1864 0.960 . S
H1851 C1864 0.960 . S
C1852 H1844 0.929 . S
C1852 C1853 1.377 . S
C1852 C1854 1.384 . S
C1853 C1852 1.377 . S
C1853 C1859 1.390 . S
C1854 H1845 0.930 . S
C1854 C1852 1.384 . S
C1854 C1855 1.372 . S
C1855 C1854 1.372 . S
C1855 C1856 1.400 . S
C1855 C1860 1.490 . S
C1856 H1846 0.930 . S
C1856 C1855 1.400 . S
C1856 C1859 1.386 . S
H1857 C1873 0.930 . S
H1858 C1874 0.931 . S
C1859 H1847 0.929 . S
C1859 C1853 1.390 . S
C1859 C1856 1.386 . S
C1860 C1855 1.490 . S
C1860 C1862 1.395 . S
C1860 C1863 1.403 . S
H1861 C1867 0.930 . S
C1862 H1848 0.930 . S
C1862 C1860 1.395 . S
C1862 C1865 1.403 1_455 S
C1863 C1860 1.403 . S
C1863 C1864 1.524 . S
C1863 C1867 1.400 1_455 S
C1864 H1849 0.960 . S
C1864 H1850 0.960 . S
C1864 H1851 0.960 . S
C1864 C1863 1.524 . S
C1865 C1862 1.403 1_655 S
C1865 C1866 1.392 . S
C1865 C1869 1.495 . S
C1866 C1865 1.392 . S
C1866 C1867 1.385 . S
C1866 C1868 1.478 . S
C1867 H1861 0.930 . S
C1867 C1863 1.400 1_655 S
C1867 C1866 1.385 . S
C1868 C1866 1.478 . S
C1868 C1870 1.381 . S
C1868 C1874 1.383 . S
C1869 C1865 1.495 . S
C1869 H1875 0.959 . S
C1869 H1876 0.961 . S
C1869 H1877 0.960 . S
C1870 C1868 1.381 . S
C1870 C1871 1.394 . S
C1870 H1878 0.930 . S
C1871 C1870 1.394 . S
C1871 C1872 1.383 . S
C1871 H1879 0.929 . S
C1872 C1871 1.383 . S
C1872 C1873 1.377 . S
C1873 H1857 0.930 . S
C1873 C1872 1.377 . S
C1873 C1874 1.379 . S
C1874 H1858 0.931 . S
C1874 C1868 1.383 . S
C1874 C1873 1.379 . S
H1875 C1869 0.959 . S
H1876 C1869 0.961 . S
H1877 C1869 0.960 . S
H1878 C1870 0.930 . S
H1879 C1871 0.929 . S
H1880 C1888 0.929 . S
H1881 C1890 0.930 . S
H1882 C1892 0.930 . S
H1883 C1895 0.929 . S
H1884 C1898 0.930 . S
H1885 C1900 0.960 . S
H1886 C1900 0.960 . S
H1887 C1900 0.960 . S
C1888 H1880 0.929 . S
C1888 C1889 1.377 . S
C1888 C1890 1.384 . S
C1889 C1888 1.377 . S
C1889 C1895 1.390 . S
C1890 H1881 0.930 . S
C1890 C1888 1.384 . S
C1890 C1891 1.372 . S
C1891 C1890 1.372 . S
C1891 C1892 1.400 . S
C1891 C1896 1.490 . S
C1892 H1882 0.930 . S
C1892 C1891 1.400 . S
C1892 C1895 1.386 . S
H1893 C1909 0.930 . S
H1894 C1910 0.931 . S
C1895 H1883 0.929 . S
C1895 C1889 1.390 . S
C1895 C1892 1.386 . S
C1896 C1891 1.490 . S
C1896 C1898 1.395 . S
C1896 C1899 1.403 . S
H1897 C1903 0.930 . S
C1898 H1884 0.930 . S
C1898 C1896 1.395 . S
C1898 C1901 1.403 . S
C1899 C1896 1.403 . S
C1899 C1900 1.524 . S
C1899 C1903 1.400 . S
C1900 H1885 0.960 . S
C1900 H1886 0.960 . S
C1900 H1887 0.960 . S
C1900 C1899 1.524 . S
C1901 C1898 1.403 . S
C1901 C1902 1.392 . S
C1901 C1905 1.495 . S
C1902 C1901 1.392 . S
C1902 C1903 1.385 . S
C1902 C1904 1.478 . S
C1903 H1897 0.930 . S
C1903 C1899 1.400 . S
C1903 C1902 1.385 . S
C1904 C1902 1.478 . S
C1904 C1906 1.381 . S
C1904 C1910 1.383 . S
C1905 C1901 1.495 . S
C1905 H1911 0.959 . S
C1905 H1912 0.961 . S
C1905 H1913 0.960 . S
C1906 C1904 1.381 . S
C1906 C1907 1.394 . S
C1906 H1914 0.930 . S
C1907 C1906 1.394 . S
C1907 C1908 1.383 . S
C1907 H1915 0.929 . S
C1908 C1907 1.383 . S
C1908 C1909 1.377 . S
C1909 H1893 0.930 . S
C1909 C1908 1.377 . S
C1909 C1910 1.379 . S
C1910 H1894 0.931 . S
C1910 C1904 1.383 . S
C1910 C1909 1.379 . S
H1911 C1905 0.959 . S
H1912 C1905 0.961 . S
H1913 C1905 0.960 . S
H1914 C1906 0.930 . S
H1915 C1907 0.929 . S
H1916 C1924 0.929 . S
H1917 C1926 0.930 . S
H1918 C1928 0.930 . S
H1919 C1931 0.929 . S
H1920 C1934 0.930 . S
H1921 C1936 0.960 . S
H1922 C1936 0.960 1_565 S
H1923 C1936 0.960 . S
C1924 H1916 0.929 . S
C1924 C1925 1.377 . S
C1924 C1926 1.384 . S
C1925 C1924 1.377 . S
C1925 C1931 1.390 1_565 S
C1926 H1917 0.930 . S
C1926 C1924 1.384 . S
C1926 C1927 1.372 . S
C1927 C1926 1.372 . S
C1927 C1928 1.400 1_565 S
C1927 C1932 1.490 . S
C1928 H1918 0.930 . S
C1928 C1927 1.400 1_545 S
C1928 C1931 1.386 . S
H1929 C1945 0.930 . S
H1930 C1946 0.931 . S
C1931 H1919 0.929 . S
C1931 C1925 1.390 1_545 S
C1931 C1928 1.386 . S
C1932 C1927 1.490 . S
C1932 C1934 1.395 . S
C1932 C1935 1.403 1_565 S
H1933 C1939 0.930 . S
C1934 H1920 0.930 . S
C1934 C1932 1.395 . S
C1934 C1937 1.403 1_455 S
C1935 C1932 1.403 1_545 S
C1935 C1936 1.524 . S
C1935 C1939 1.400 1_455 S
C1936 H1921 0.960 . S
C1936 H1922 0.960 1_545 S
C1936 H1923 0.960 . S
C1936 C1935 1.524 . S
C1937 C1934 1.403 1_655 S
C1937 C1938 1.392 1_565 S
C1937 C1941 1.495 . S
C1938 C1937 1.392 1_545 S
C1938 C1939 1.385 . S
C1938 C1940 1.478 . S
C1939 H1933 0.930 . S
C1939 C1935 1.400 1_655 S
C1939 C1938 1.385 . S
C1940 C1938 1.478 . S
C1940 C1942 1.381 1_545 S
C1940 C1946 1.383 . S
C1941 C1937 1.495 . S
C1941 H1947 0.959 . S
C1941 H1948 0.960 1_565 S
C1941 H1949 0.960 . S
C1942 C1940 1.381 1_565 S
C1942 C1943 1.394 . S
C1942 H1950 0.930 . S
C1943 C1942 1.394 . S
C1943 C1944 1.383 1_565 S
C1943 H1951 0.929 . S
C1944 C1943 1.383 1_545 S
C1944 C1945 1.377 . S
C1945 H1929 0.930 . S
C1945 C1944 1.377 . S
C1945 C1946 1.379 . S
C1946 H1930 0.931 . S
C1946 C1940 1.383 . S
C1946 C1945 1.379 . S
H1947 C1941 0.959 . S
H1948 C1941 0.960 1_545 S
H1949 C1941 0.960 . S
H1950 C1942 0.930 . S
H1951 C1943 0.929 . S
H1952 C1960 0.929 . S
H1953 C1962 0.930 . S
H1954 C1964 0.930 . S
H1955 C1967 0.929 . S
H1956 C1970 0.930 . S
H1957 C1972 0.960 . S
H1958 C1972 0.960 . S
H1959 C1972 0.960 . S
C1960 H1952 0.929 . S
C1960 C1961 1.377 . S
C1960 C1962 1.384 . S
C1961 C1960 1.377 . S
C1961 C1967 1.390 . S
C1962 H1953 0.930 . S
C1962 C1960 1.384 . S
C1962 C1963 1.372 . S
C1963 C1962 1.372 . S
C1963 C1964 1.400 . S
C1963 C1968 1.490 . S
C1964 H1954 0.930 . S
C1964 C1963 1.400 . S
C1964 C1967 1.386 . S
H1965 C1981 0.930 . S
H1966 C1982 0.931 . S
C1967 H1955 0.929 . S
C1967 C1961 1.390 . S
C1967 C1964 1.386 . S
C1968 C1963 1.490 . S
C1968 C1970 1.395 . S
C1968 C1971 1.403 . S
H1969 C1975 0.930 . S
C1970 H1956 0.930 . S
C1970 C1968 1.395 . S
C1970 C1973 1.403 . S
C1971 C1968 1.403 . S
C1971 C1972 1.524 . S
C1971 C1975 1.400 . S
C1972 H1957 0.960 . S
C1972 H1958 0.960 . S
C1972 H1959 0.960 . S
C1972 C1971 1.524 . S
C1973 C1970 1.403 . S
C1973 C1974 1.392 . S
C1973 C1977 1.495 . S
C1974 C1973 1.392 . S
C1974 C1975 1.385 . S
C1974 C1976 1.478 . S
C1975 H1969 0.930 . S
C1975 C1971 1.400 . S
C1975 C1974 1.385 . S
C1976 C1974 1.478 . S
C1976 C1978 1.381 . S
C1976 C1982 1.383 . S
C1977 C1973 1.495 . S
C1977 H1983 0.959 . S
C1977 H1984 0.961 . S
C1977 H1985 0.960 . S
C1978 C1976 1.381 . S
C1978 C1979 1.394 . S
C1978 H1986 0.930 . S
C1979 C1978 1.394 . S
C1979 C1980 1.383 . S
C1979 H1987 0.929 . S
C1980 C1979 1.383 . S
C1980 C1981 1.377 . S
C1981 H1965 0.930 . S
C1981 C1980 1.377 . S
C1981 C1982 1.379 . S
C1982 H1966 0.931 . S
C1982 C1976 1.383 . S
C1982 C1981 1.379 . S
H1983 C1977 0.959 . S
H1984 C1977 0.961 . S
H1985 C1977 0.960 . S
H1986 C1978 0.930 . S
H1987 C1979 0.929 . S
H1988 C1996 0.929 . S
H1989 C1998 0.930 . S
H1990 C2000 0.930 . S
H1991 C2003 0.929 . S
H1992 C2006 0.930 . S
H1993 C2008 0.960 . S
H1994 C2008 0.960 . S
H1995 C2008 0.960 1_545 S
C1996 H1988 0.929 . S
C1996 C1997 1.377 1_565 S
C1996 C1998 1.384 . S
C1997 C1996 1.377 1_545 S
C1997 C2003 1.390 . S
C1998 H1989 0.930 . S
C1998 C1996 1.384 . S
C1998 C1999 1.372 1_565 S
C1999 C1998 1.372 1_545 S
C1999 C2000 1.400 . S
C1999 C2004 1.490 . S
C2000 H1990 0.930 . S
C2000 C1999 1.400 . S
C2000 C2003 1.386 . S
H2001 C2017 0.930 . S
H2002 C2018 0.931 . S
C2003 H1991 0.929 . S
C2003 C1997 1.390 . S
C2003 C2000 1.386 . S
C2004 C1999 1.490 . S
C2004 C2006 1.395 . S
C2004 C2007 1.403 1_545 S
H2005 C2011 0.930 . S
C2006 H1992 0.930 . S
C2006 C2004 1.395 . S
C2006 C2009 1.411 . S
C2007 C2004 1.403 1_565 S
C2007 C2008 1.524 . S
C2007 C2011 1.400 . S
C2008 H1993 0.960 . S
C2008 H1994 0.960 . S
C2008 H1995 0.960 1_565 S
C2008 C2007 1.524 . S
C2009 C2006 1.411 . S
C2009 C2010 1.383 1_545 S
C2009 C2013 1.501 . S
C2010 C2009 1.383 1_565 S
C2010 C2011 1.385 . S
C2010 C2012 1.478 . S
C2011 H2005 0.930 . S
C2011 C2007 1.400 . S
C2011 C2010 1.385 . S
C2012 C2010 1.478 . S
C2012 C2014 1.381 . S
C2012 C2018 1.383 1_565 S
C2013 C2009 1.501 . S
C2013 H2019 0.959 . S
C2013 H2020 0.961 . S
C2013 H2021 0.960 1_545 S
C2014 C2012 1.381 . S
C2014 C2015 1.394 . S
C2014 H2022 0.930 . S
C2015 C2014 1.394 . S
C2015 C2016 1.383 . S
C2015 H2023 0.929 . S
C2016 C2015 1.383 . S
C2016 C2017 1.377 1_565 S
C2017 H2001 0.930 . S
C2017 C2016 1.377 1_545 S
C2017 C2018 1.379 . S
C2018 H2002 0.931 . S
C2018 C2012 1.383 1_545 S
C2018 C2017 1.379 . S
H2019 C2013 0.959 . S
H2020 C2013 0.961 . S
H2021 C2013 0.960 1_565 S
H2022 C2014 0.930 . S
H2023 C2015 0.929 . S
H2024 C2032 0.929 . S
H2025 C2034 0.930 . S
H2026 C2036 0.930 . S
H2027 C2039 0.929 . S
H2028 C2042 0.930 . S
H2029 C2044 0.960 . S
H2030 C2044 0.960 . S
H2031 C2044 0.960 . S
C2032 H2024 0.929 . S
C2032 C2033 1.377 . S
C2032 C2034 1.384 . S
C2033 C2032 1.377 . S
C2033 C2039 1.390 . S
C2034 H2025 0.930 . S
C2034 C2032 1.384 . S
C2034 C2035 1.372 . S
C2035 C2034 1.372 . S
C2035 C2036 1.400 . S
C2035 C2040 1.490 . S
C2036 H2026 0.930 . S
C2036 C2035 1.400 . S
C2036 C2039 1.386 . S
H2037 C2053 0.930 . S
H2038 C2054 0.931 . S
C2039 H2027 0.929 . S
C2039 C2033 1.390 . S
C2039 C2036 1.386 . S
C2040 C2035 1.490 . S
C2040 C2042 1.395 . S
C2040 C2043 1.403 . S
H2041 C2047 0.930 . S
C2042 H2028 0.930 . S
C2042 C2040 1.395 . S
C2042 C2045 1.403 . S
C2043 C2040 1.403 . S
C2043 C2044 1.524 . S
C2043 C2047 1.400 . S
C2044 H2029 0.960 . S
C2044 H2030 0.960 . S
C2044 H2031 0.960 . S
C2044 C2043 1.524 . S
C2045 C2042 1.403 . S
C2045 C2046 1.392 . S
C2045 C2049 1.495 . S
C2046 C2045 1.392 . S
C2046 C2047 1.385 . S
C2046 C2048 1.478 . S
C2047 H2041 0.930 . S
C2047 C2043 1.400 . S
C2047 C2046 1.385 . S
C2048 C2046 1.478 . S
C2048 C2050 1.381 . S
C2048 C2054 1.383 . S
C2049 C2045 1.495 . S
C2049 H2055 0.959 . S
C2049 H2056 0.961 . S
C2049 H2057 0.960 . S
C2050 C2048 1.381 . S
C2050 C2051 1.394 . S
C2050 H2058 0.930 . S
C2051 C2050 1.394 . S
C2051 C2052 1.383 . S
C2051 H2059 0.929 . S
C2052 C2051 1.383 . S
C2052 C2053 1.377 . S
C2053 H2037 0.930 . S
C2053 C2052 1.377 . S
C2053 C2054 1.379 . S
C2054 H2038 0.931 . S
C2054 C2048 1.383 . S
C2054 C2053 1.379 . S
H2055 C2049 0.959 . S
H2056 C2049 0.961 . S
H2057 C2049 0.960 . S
H2058 C2050 0.930 . S
H2059 C2051 0.929 . S
H2060 C2068 0.929 . S
H2061 C2070 0.930 . S
H2062 C2072 0.930 . S
H2063 C2075 0.929 . S
H2064 C2078 0.930 . S
H2065 C2080 0.960 . S
H2066 C2080 0.960 . S
H2067 C2080 0.960 . S
C2068 H2060 0.929 . S
C2068 C2069 1.377 . S
C2068 C2070 1.384 . S
C2069 C2068 1.377 . S
C2069 C2075 1.390 . S
C2070 H2061 0.930 . S
C2070 C2068 1.384 . S
C2070 C2071 1.372 . S
C2071 C2070 1.372 . S
C2071 C2072 1.400 . S
C2071 C2076 1.490 . S
C2072 H2062 0.930 . S
C2072 C2071 1.400 . S
C2072 C2075 1.386 . S
H2073 C2089 0.930 . S
H2074 C2090 0.931 . S
C2075 H2063 0.929 . S
C2075 C2069 1.390 . S
C2075 C2072 1.386 . S
C2076 C2071 1.490 . S
C2076 C2078 1.395 1_545 S
C2076 C2079 1.403 . S
H2077 C2083 0.930 . S
C2078 H2064 0.930 . S
C2078 C2076 1.395 1_565 S
C2078 C2081 1.403 . S
C2079 C2076 1.403 . S
C2079 C2080 1.524 . S
C2079 C2083 1.400 . S
C2080 H2065 0.960 . S
C2080 H2066 0.960 . S
C2080 H2067 0.960 . S
C2080 C2079 1.524 . S
C2081 C2078 1.403 . S
C2081 C2082 1.392 . S
C2081 C2085 1.495 . S
C2082 C2081 1.392 . S
C2082 C2083 1.385 1_565 S
C2082 C2084 1.478 . S
C2083 H2077 0.930 . S
C2083 C2079 1.400 . S
C2083 C2082 1.385 1_545 S
C2084 C2082 1.478 . S
C2084 C2086 1.381 . S
C2084 C2090 1.383 . S
C2085 C2081 1.495 . S
C2085 H2091 0.959 . S
C2085 H2092 0.961 . S
C2085 H2093 0.960 . S
C2086 C2084 1.381 . S
C2086 C2087 1.394 . S
C2086 H2094 0.930 . S
C2087 C2086 1.394 . S
C2087 C2088 1.383 . S
C2087 H2095 0.929 . S
C2088 C2087 1.383 . S
C2088 C2089 1.377 . S
C2089 H2073 0.930 . S
C2089 C2088 1.377 . S
C2089 C2090 1.379 . S
C2090 H2074 0.931 . S
C2090 C2084 1.383 . S
C2090 C2089 1.379 . S
H2091 C2085 0.959 . S
H2092 C2085 0.961 . S
H2093 C2085 0.960 . S
H2094 C2086 0.930 . S
H2095 C2087 0.929 . S
H2096 C2104 0.929 . S
H2097 C2106 0.930 . S
H2098 C2108 0.930 . S
H2099 C2111 0.929 . S
H2100 C2114 0.930 . S
H2101 C2116 0.960 . S
H2102 C2116 0.960 . S
H2103 C2116 0.960 . S
C2104 H2096 0.929 . S
C2104 C2105 1.377 . S
C2104 C2106 1.384 . S
C2105 C2104 1.377 . S
C2105 C2111 1.390 . S
C2106 H2097 0.930 . S
C2106 C2104 1.384 . S
C2106 C2107 1.372 . S
C2107 C2106 1.372 . S
C2107 C2108 1.400 . S
C2107 C2112 1.490 . S
C2108 H2098 0.930 . S
C2108 C2107 1.400 . S
C2108 C2111 1.386 . S
H2109 C2125 0.930 . S
H2110 C2126 0.931 . S
C2111 H2099 0.929 . S
C2111 C2105 1.390 . S
C2111 C2108 1.386 . S
C2112 C2107 1.490 . S
C2112 C2114 1.395 . S
C2112 C2115 1.403 . S
H2113 C2119 0.930 . S
C2114 H2100 0.930 . S
C2114 C2112 1.395 . S
C2114 C2117 1.403 . S
C2115 C2112 1.403 . S
C2115 C2116 1.524 . S
C2115 C2119 1.400 . S
C2116 H2101 0.960 . S
C2116 H2102 0.960 . S
C2116 H2103 0.960 . S
C2116 C2115 1.524 . S
C2117 C2114 1.403 . S
C2117 C2118 1.392 . S
C2117 C2121 1.495 . S
C2118 C2117 1.392 . S
C2118 C2119 1.385 . S
C2118 C2120 1.478 . S
C2119 H2113 0.930 . S
C2119 C2115 1.400 . S
C2119 C2118 1.385 . S
C2120 C2118 1.478 . S
C2120 C2122 1.381 . S
C2120 C2126 1.383 . S
C2121 C2117 1.495 . S
C2121 H2127 0.959 . S
C2121 H2128 0.961 . S
C2121 H2129 0.960 . S
C2122 C2120 1.381 . S
C2122 C2123 1.394 . S
C2122 H2130 0.930 . S
C2123 C2122 1.394 . S
C2123 C2124 1.383 . S
C2123 H2131 0.929 . S
C2124 C2123 1.383 . S
C2124 C2125 1.377 . S
C2125 H2109 0.930 . S
C2125 C2124 1.377 . S
C2125 C2126 1.379 . S
C2126 H2110 0.931 . S
C2126 C2120 1.383 . S
C2126 C2125 1.379 . S
H2127 C2121 0.959 . S
H2128 C2121 0.961 . S
H2129 C2121 0.960 . S
H2130 C2122 0.930 . S
H2131 C2123 0.929 . S
H2132 C2140 0.929 . S
H2133 C2142 0.930 . S
H2134 C2144 0.930 . S
H2135 C2147 0.929 . S
H2136 C2150 0.930 . S
H2137 C2152 0.960 . S
H2138 C2152 0.960 . S
H2139 C2152 0.960 . S
C2140 H2132 0.929 . S
C2140 C2141 1.377 . S
C2140 C2142 1.384 . S
C2141 C2140 1.377 . S
C2141 C2147 1.390 . S
C2142 H2133 0.930 . S
C2142 C2140 1.384 . S
C2142 C2143 1.372 . S
C2143 C2142 1.372 . S
C2143 C2144 1.400 . S
C2143 C2148 1.490 . S
C2144 H2134 0.930 . S
C2144 C2143 1.400 . S
C2144 C2147 1.386 . S
H2145 C2161 0.930 . S
H2146 C2162 0.931 . S
C2147 H2135 0.929 . S
C2147 C2141 1.390 . S
C2147 C2144 1.386 . S
C2148 C2143 1.490 . S
C2148 C2150 1.395 . S
C2148 C2151 1.403 . S
H2149 C2155 0.930 . S
C2150 H2136 0.930 . S
C2150 C2148 1.395 . S
C2150 C2153 1.403 . S
C2151 C2148 1.403 . S
C2151 C2152 1.524 . S
C2151 C2155 1.400 . S
C2152 H2137 0.960 . S
C2152 H2138 0.960 . S
C2152 H2139 0.960 . S
C2152 C2151 1.524 . S
C2153 C2150 1.403 . S
C2153 C2154 1.392 . S
C2153 C2157 1.495 . S
C2154 C2153 1.392 . S
C2154 C2155 1.385 . S
C2154 C2156 1.478 . S
C2155 H2149 0.930 . S
C2155 C2151 1.400 . S
C2155 C2154 1.385 . S
C2156 C2154 1.478 . S
C2156 C2158 1.381 . S
C2156 C2162 1.383 . S
C2157 C2153 1.495 . S
C2157 H2163 0.959 . S
C2157 H2164 0.961 . S
C2157 H2165 0.960 . S
C2158 C2156 1.381 . S
C2158 C2159 1.394 . S
C2158 H2166 0.930 . S
C2159 C2158 1.394 . S
C2159 C2160 1.383 . S
C2159 H2167 0.929 . S
C2160 C2159 1.383 . S
C2160 C2161 1.377 . S
C2161 H2145 0.930 . S
C2161 C2160 1.377 . S
C2161 C2162 1.379 . S
C2162 H2146 0.931 . S
C2162 C2156 1.383 . S
C2162 C2161 1.379 . S
H2163 C2157 0.959 . S
H2164 C2157 0.961 . S
H2165 C2157 0.960 . S
H2166 C2158 0.930 . S
H2167 C2159 0.929 . S
H2168 C2176 0.929 . S
H2169 C2178 0.930 . S
H2170 C2180 0.930 . S
H2171 C2183 0.929 . S
H2172 C2186 0.930 . S
H2173 C2188 0.960 . S
H2174 C2188 0.960 . S
H2175 C2188 0.960 . S
C2176 H2168 0.929 . S
C2176 C2177 1.377 . S
C2176 C2178 1.384 . S
C2177 C2176 1.377 . S
C2177 C2183 1.390 . S
C2178 H2169 0.930 . S
C2178 C2176 1.384 . S
C2178 C2179 1.372 . S
C2179 C2178 1.372 . S
C2179 C2180 1.400 . S
C2179 C2184 1.490 . S
C2180 H2170 0.930 . S
C2180 C2179 1.400 . S
C2180 C2183 1.386 . S
H2181 C2197 0.930 . S
H2182 C2198 0.931 . S
C2183 H2171 0.929 . S
C2183 C2177 1.390 . S
C2183 C2180 1.386 . S
C2184 C2179 1.490 . S
C2184 C2186 1.395 . S
C2184 C2187 1.403 . S
H2185 C2191 0.930 . S
C2186 H2172 0.930 . S
C2186 C2184 1.395 . S
C2186 C2189 1.403 . S
C2187 C2184 1.403 . S
C2187 C2188 1.524 . S
C2187 C2191 1.400 . S
C2188 H2173 0.960 . S
C2188 H2174 0.960 . S
C2188 H2175 0.960 . S
C2188 C2187 1.524 . S
C2189 C2186 1.403 . S
C2189 C2190 1.392 . S
C2189 C2193 1.495 . S
C2190 C2189 1.392 . S
C2190 C2191 1.385 . S
C2190 C2192 1.478 . S
C2191 H2185 0.930 . S
C2191 C2187 1.400 . S
C2191 C2190 1.385 . S
C2192 C2190 1.478 . S
C2192 C2194 1.381 . S
C2192 C2198 1.383 . S
C2193 C2189 1.495 . S
C2193 H2199 0.959 . S
C2193 H2200 0.961 . S
C2193 H2201 0.960 . S
C2194 C2192 1.381 . S
C2194 C2195 1.394 . S
C2194 H2202 0.930 . S
C2195 C2194 1.394 . S
C2195 C2196 1.383 . S
C2195 H2203 0.929 . S
C2196 C2195 1.383 . S
C2196 C2197 1.377 . S
C2197 H2181 0.930 . S
C2197 C2196 1.377 . S
C2197 C2198 1.379 . S
C2198 H2182 0.931 . S
C2198 C2192 1.383 . S
C2198 C2197 1.379 . S
H2199 C2193 0.959 . S
H2200 C2193 0.961 . S
H2201 C2193 0.960 . S
H2202 C2194 0.930 . S
H2203 C2195 0.929 . S
H2204 C2212 0.929 . S
H2205 C2214 0.930 1_554 S
H2206 C2216 0.930 . S
H2207 C2219 0.929 . S
H2208 C2222 0.930 . S
H2209 C2224 0.960 . S
H2210 C2224 0.960 . S
H2211 C2224 0.960 . S
C2212 H2204 0.929 . S
C2212 C2213 1.377 1_565 S
C2212 C2214 1.384 . S
C2213 C2212 1.377 1_545 S
C2213 C2219 1.390 . S
C2214 H2205 0.930 1_556 S
C2214 C2212 1.384 . S
C2214 C2215 1.372 1_565 S
C2215 C2214 1.372 1_545 S
C2215 C2216 1.400 . S
C2215 C2220 1.490 . S
C2216 H2206 0.930 . S
C2216 C2215 1.400 . S
C2216 C2219 1.386 . S
H2217 C2233 0.930 1_546 S
H2218 C2234 0.931 . S
C2219 H2207 0.929 . S
C2219 C2213 1.390 . S
C2219 C2216 1.386 . S
C2220 C2215 1.490 . S
C2220 C2222 1.395 1_545 S
C2220 C2223 1.403 1_556 S
H2221 C2227 0.930 . S
C2222 H2208 0.930 . S
C2222 C2220 1.395 1_565 S
C2222 C2225 1.403 . S
C2223 C2220 1.403 1_554 S
C2223 C2224 1.524 . S
C2223 C2227 1.400 . S
C2224 H2209 0.960 . S
C2224 H2210 0.960 . S
C2224 H2211 0.960 . S
C2224 C2223 1.524 . S
C2225 C2222 1.403 . S
C2225 C2226 1.392 1_556 S
C2225 C2229 1.495 . S
C2226 C2225 1.392 1_554 S
C2226 C2227 1.385 1_565 S
C2226 C2228 1.478 . S
C2227 H2221 0.930 . S
C2227 C2223 1.400 . S
C2227 C2226 1.385 1_545 S
C2228 C2226 1.478 . S
C2228 C2230 1.381 . S
C2228 C2234 1.383 1_564 S
C2229 C2225 1.495 . S
C2229 H2235 0.959 . S
C2229 H2236 0.961 . S
C2229 H2237 0.960 . S
C2230 C2228 1.381 . S
C2230 C2231 1.394 . S
C2230 H2238 0.930 . S
C2231 C2230 1.394 . S
C2231 C2232 1.383 . S
C2231 H2239 0.929 . S
C2232 C2231 1.383 . S
C2232 C2233 1.376 . S
C2233 H2217 0.930 1_564 S
C2233 C2232 1.376 . S
C2233 C2234 1.380 1_564 S
C2234 H2218 0.931 . S
C2234 C2228 1.383 1_546 S
C2234 C2233 1.380 1_546 S
H2235 C2229 0.959 . S
H2236 C2229 0.961 . S
H2237 C2229 0.960 . S
H2238 C2230 0.930 . S
H2239 C2231 0.929 . S
H2240 C2248 0.929 . S
H2241 C2250 0.930 . S
H2242 C2252 0.930 . S
H2243 C2255 0.929 . S
H2244 C2258 0.930 . S
H2245 C2260 0.960 . S
H2246 C2260 0.960 . S
H2247 C2260 0.960 . S
C2248 H2240 0.929 . S
C2248 C2249 1.377 . S
C2248 C2250 1.384 . S
C2249 C2248 1.377 . S
C2249 C2255 1.390 . S
C2250 H2241 0.930 . S
C2250 C2248 1.384 . S
C2250 C2251 1.372 . S
C2251 C2250 1.372 . S
C2251 C2252 1.400 . S
C2251 C2256 1.490 . S
C2252 H2242 0.930 . S
C2252 C2251 1.400 . S
C2252 C2255 1.386 . S
H2253 C2269 0.930 . S
H2254 C2270 0.931 . S
C2255 H2243 0.929 . S
C2255 C2249 1.390 . S
C2255 C2252 1.386 . S
C2256 C2251 1.490 . S
C2256 C2258 1.395 . S
C2256 C2259 1.403 . S
H2257 C2263 0.930 . S
C2258 H2244 0.930 . S
C2258 C2256 1.395 . S
C2258 C2261 1.403 . S
C2259 C2256 1.403 . S
C2259 C2260 1.524 . S
C2259 C2263 1.400 . S
C2260 H2245 0.960 . S
C2260 H2246 0.960 . S
C2260 H2247 0.960 . S
C2260 C2259 1.524 . S
C2261 C2258 1.403 . S
C2261 C2262 1.392 . S
C2261 C2265 1.495 . S
C2262 C2261 1.392 . S
C2262 C2263 1.385 . S
C2262 C2264 1.478 . S
C2263 H2257 0.930 . S
C2263 C2259 1.400 . S
C2263 C2262 1.385 . S
C2264 C2262 1.478 . S
C2264 C2266 1.381 . S
C2264 C2270 1.383 . S
C2265 C2261 1.495 . S
C2265 H2271 0.959 . S
C2265 H2272 0.961 . S
C2265 H2273 0.960 . S
C2266 C2264 1.381 . S
C2266 C2267 1.394 . S
C2266 H2274 0.930 . S
C2267 C2266 1.394 . S
C2267 C2268 1.383 . S
C2267 H2275 0.929 . S
C2268 C2267 1.383 . S
C2268 C2269 1.377 . S
C2269 H2253 0.930 . S
C2269 C2268 1.377 . S
C2269 C2270 1.379 . S
C2270 H2254 0.931 . S
C2270 C2264 1.383 . S
C2270 C2269 1.379 . S
H2271 C2265 0.959 . S
H2272 C2265 0.961 . S
H2273 C2265 0.960 . S
H2274 C2266 0.930 . S
H2275 C2267 0.929 . S
H2276 C2284 0.929 . S
H2277 C2286 0.930 . S
H2278 C2288 0.930 . S
H2279 C2291 0.929 . S
H2280 C2294 0.930 . S
H2281 C2296 0.960 . S
H2282 C2296 0.960 . S
H2283 C2296 0.960 . S
C2284 H2276 0.929 . S
C2284 C2285 1.377 . S
C2284 C2286 1.384 . S
C2285 C2284 1.377 . S
C2285 C2291 1.390 . S
C2286 H2277 0.930 . S
C2286 C2284 1.384 . S
C2286 C2287 1.372 . S
C2287 C2286 1.372 . S
C2287 C2288 1.400 . S
C2287 C2292 1.490 . S
C2288 H2278 0.930 . S
C2288 C2287 1.400 . S
C2288 C2291 1.386 . S
H2289 C2305 0.930 . S
H2290 C2306 0.931 . S
C2291 H2279 0.929 . S
C2291 C2285 1.390 . S
C2291 C2288 1.386 . S
C2292 C2287 1.490 . S
C2292 C2294 1.395 . S
C2292 C2295 1.403 . S
H2293 C2299 0.930 . S
C2294 H2280 0.930 . S
C2294 C2292 1.395 . S
C2294 C2297 1.403 . S
C2295 C2292 1.403 . S
C2295 C2296 1.524 . S
C2295 C2299 1.400 . S
C2296 H2281 0.960 . S
C2296 H2282 0.960 . S
C2296 H2283 0.960 . S
C2296 C2295 1.524 . S
C2297 C2294 1.403 . S
C2297 C2298 1.392 . S
C2297 C2301 1.495 . S
C2298 C2297 1.392 . S
C2298 C2299 1.385 . S
C2298 C2300 1.478 . S
C2299 H2293 0.930 . S
C2299 C2295 1.400 . S
C2299 C2298 1.385 . S
C2300 C2298 1.478 . S
C2300 C2302 1.381 . S
C2300 C2306 1.383 . S
C2301 C2297 1.495 . S
C2301 H2307 0.959 . S
C2301 H2308 0.961 . S
C2301 H2309 0.960 . S
C2302 C2300 1.381 . S
C2302 C2303 1.394 . S
C2302 H2310 0.930 . S
C2303 C2302 1.394 . S
C2303 C2304 1.383 . S
C2303 H2311 0.929 . S
C2304 C2303 1.383 . S
C2304 C2305 1.377 . S
C2305 H2289 0.930 . S
C2305 C2304 1.377 . S
C2305 C2306 1.379 . S
C2306 H2290 0.931 . S
C2306 C2300 1.383 . S
C2306 C2305 1.379 . S
H2307 C2301 0.959 . S
H2308 C2301 0.961 . S
H2309 C2301 0.960 . S
H2310 C2302 0.930 . S
H2311 C2303 0.929 . S
H2312 C2320 0.929 . S
H2313 C2322 0.930 . S
H2314 C2324 0.930 . S
H2315 C2327 0.929 . S
H2316 C2330 0.930 . S
H2317 C2332 0.960 . S
H2318 C2332 0.960 . S
H2319 C2332 0.960 . S
C2320 H2312 0.929 . S
C2320 C2321 1.377 . S
C2320 C2322 1.384 1_554 S
C2321 C2320 1.377 . S
C2321 C2327 1.390 1_554 S
C2322 H2313 0.930 . S
C2322 C2320 1.384 1_556 S
C2322 C2323 1.372 . S
C2323 C2322 1.372 . S
C2323 C2324 1.400 . S
C2323 C2328 1.490 . S
C2324 H2314 0.930 . S
C2324 C2323 1.400 . S
C2324 C2327 1.386 . S
H2325 C2341 0.930 . S
H2326 C2342 0.931 . S
C2327 H2315 0.929 . S
C2327 C2321 1.390 1_556 S
C2327 C2324 1.386 . S
C2328 C2323 1.490 . S
C2328 C2330 1.395 . S
C2328 C2331 1.403 . S
H2329 C2335 0.930 . S
C2330 H2316 0.930 . S
C2330 C2328 1.395 . S
C2330 C2333 1.403 . S
C2331 C2328 1.403 . S
C2331 C2332 1.524 . S
C2331 C2335 1.400 . S
C2332 H2317 0.960 . S
C2332 H2318 0.960 . S
C2332 H2319 0.960 . S
C2332 C2331 1.524 . S
C2333 C2330 1.403 . S
C2333 C2334 1.392 . S
C2333 C2337 1.495 . S
C2334 C2333 1.392 . S
C2334 C2335 1.385 . S
C2334 C2336 1.478 . S
C2335 H2329 0.930 . S
C2335 C2331 1.400 . S
C2335 C2334 1.385 . S
C2336 C2334 1.478 . S
C2336 C2338 1.381 . S
C2336 C2342 1.383 . S
C2337 C2333 1.495 . S
C2337 H2343 0.959 . S
C2337 H2344 0.961 . S
C2337 H2345 0.960 . S
C2338 C2336 1.381 . S
C2338 C2339 1.394 . S
C2338 H2346 0.930 . S
C2339 C2338 1.394 . S
C2339 C2340 1.383 . S
C2339 H2347 0.929 . S
C2340 C2339 1.383 . S
C2340 C2341 1.377 . S
C2341 H2325 0.930 . S
C2341 C2340 1.377 . S
C2341 C2342 1.379 . S
C2342 H2326 0.931 . S
C2342 C2336 1.383 . S
C2342 C2341 1.379 . S
H2343 C2337 0.959 . S
H2344 C2337 0.961 . S
H2345 C2337 0.960 . S
H2346 C2338 0.930 . S
H2347 C2339 0.929 . S
H2348 C2356 0.929 . S
H2349 C2358 0.930 . S
H2350 C2360 0.930 . S
H2351 C2363 0.929 . S
H2352 C2366 0.930 . S
H2353 C2368 0.960 . S
H2354 C2368 0.960 . S
H2355 C2368 0.960 . S
C2356 H2348 0.929 . S
C2356 C2357 1.377 . S
C2356 C2358 1.384 . S
C2357 C2356 1.377 . S
C2357 C2363 1.390 . S
C2358 H2349 0.930 . S
C2358 C2356 1.384 . S
C2358 C2359 1.372 . S
C2359 C2358 1.372 . S
C2359 C2360 1.400 . S
C2359 C2364 1.490 . S
C2360 H2350 0.930 . S
C2360 C2359 1.400 . S
C2360 C2363 1.386 . S
H2361 C2377 0.930 . S
H2362 C2378 0.931 . S
C2363 H2351 0.929 . S
C2363 C2357 1.390 . S
C2363 C2360 1.386 . S
C2364 C2359 1.490 . S
C2364 C2366 1.395 . S
C2364 C2367 1.403 . S
H2365 C2371 0.930 . S
C2366 H2352 0.930 . S
C2366 C2364 1.395 . S
C2366 C2369 1.403 . S
C2367 C2364 1.403 . S
C2367 C2368 1.524 . S
C2367 C2371 1.400 . S
C2368 H2353 0.960 . S
C2368 H2354 0.960 . S
C2368 H2355 0.960 . S
C2368 C2367 1.524 . S
C2369 C2366 1.403 . S
C2369 C2370 1.392 . S
C2369 C2373 1.495 . S
C2370 C2369 1.392 . S
C2370 C2371 1.385 . S
C2370 C2372 1.478 . S
C2371 H2365 0.930 . S
C2371 C2367 1.400 . S
C2371 C2370 1.385 . S
C2372 C2370 1.478 . S
C2372 C2374 1.381 . S
C2372 C2378 1.383 . S
C2373 C2369 1.495 . S
C2373 H2379 0.959 . S
C2373 H2380 0.961 . S
C2373 H2381 0.960 . S
C2374 C2372 1.381 . S
C2374 C2375 1.394 . S
C2374 H2382 0.930 . S
C2375 C2374 1.394 . S
C2375 C2376 1.383 1_556 S
C2375 H2383 0.929 . S
C2376 C2375 1.383 1_554 S
C2376 C2377 1.377 . S
C2377 H2361 0.930 . S
C2377 C2376 1.377 . S
C2377 C2378 1.379 1_554 S
C2378 H2362 0.931 . S
C2378 C2372 1.383 . S
C2378 C2377 1.379 1_556 S
H2379 C2373 0.959 . S
H2380 C2373 0.961 . S
H2381 C2373 0.960 . S
H2382 C2374 0.930 . S
H2383 C2375 0.929 . S
H2384 C2392 0.929 . S
H2385 C2394 0.930 . S
H2386 C2396 0.930 . S
H2387 C2399 0.929 . S
H2388 C2402 0.930 . S
H2389 C2404 0.960 . S
H2390 C2404 0.960 . S
H2391 C2404 0.960 . S
C2392 H2384 0.929 . S
C2392 C2393 1.377 . S
C2392 C2394 1.384 . S
C2393 C2392 1.377 . S
C2393 C2399 1.390 . S
C2394 H2385 0.930 . S
C2394 C2392 1.384 . S
C2394 C2395 1.372 . S
C2395 C2394 1.372 . S
C2395 C2396 1.400 . S
C2395 C2400 1.490 . S
C2396 H2386 0.930 . S
C2396 C2395 1.400 . S
C2396 C2399 1.386 . S
H2397 C2413 0.930 . S
H2398 C2414 0.931 . S
C2399 H2387 0.929 . S
C2399 C2393 1.390 . S
C2399 C2396 1.386 . S
C2400 C2395 1.490 . S
C2400 C2402 1.395 . S
C2400 C2403 1.403 . S
H2401 C2407 0.930 . S
C2402 H2388 0.930 . S
C2402 C2400 1.395 . S
C2402 C2405 1.403 . S
C2403 C2400 1.403 . S
C2403 C2404 1.524 . S
C2403 C2407 1.400 . S
C2404 H2389 0.960 . S
C2404 H2390 0.960 . S
C2404 H2391 0.960 . S
C2404 C2403 1.524 . S
C2405 C2402 1.403 . S
C2405 C2406 1.392 . S
C2405 C2409 1.495 . S
C2406 C2405 1.392 . S
C2406 C2407 1.385 . S
C2406 C2408 1.478 . S
C2407 H2401 0.930 . S
C2407 C2403 1.400 . S
C2407 C2406 1.385 . S
C2408 C2406 1.478 . S
C2408 C2410 1.381 . S
C2408 C2414 1.383 . S
C2409 C2405 1.495 . S
C2409 H2415 0.959 . S
C2409 H2416 0.961 . S
C2409 H2417 0.960 . S
C2410 C2408 1.381 . S
C2410 C2411 1.394 . S
C2410 H2418 0.930 . S
C2411 C2410 1.394 . S
C2411 C2412 1.383 . S
C2411 H2419 0.929 . S
C2412 C2411 1.383 . S
C2412 C2413 1.377 . S
C2413 H2397 0.930 . S
C2413 C2412 1.377 . S
C2413 C2414 1.379 . S
C2414 H2398 0.931 . S
C2414 C2408 1.383 . S
C2414 C2413 1.379 . S
H2415 C2409 0.959 . S
H2416 C2409 0.961 . S
H2417 C2409 0.960 . S
H2418 C2410 0.930 . S
H2419 C2411 0.929 . S
H2420 C2428 0.929 . S
H2421 C2430 0.930 . S
H2422 C2432 0.930 . S
H2423 C2435 0.929 . S
H2424 C2438 0.930 . S
H2425 C2440 0.960 . S
H2426 C2440 0.960 . S
H2427 C2440 0.960 . S
C2428 H2420 0.929 . S
C2428 C2429 1.377 . S
C2428 C2430 1.384 . S
C2429 C2428 1.377 . S
C2429 C2435 1.390 . S
C2430 H2421 0.930 . S
C2430 C2428 1.384 . S
C2430 C2431 1.372 . S
C2431 C2430 1.372 . S
C2431 C2432 1.400 . S
C2431 C2436 1.490 . S
C2432 H2422 0.930 . S
C2432 C2431 1.400 . S
C2432 C2435 1.386 . S
H2433 C2449 0.930 . S
H2434 C2450 0.931 . S
C2435 H2423 0.929 . S
C2435 C2429 1.390 . S
C2435 C2432 1.386 . S
C2436 C2431 1.490 . S
C2436 C2438 1.395 . S
C2436 C2439 1.403 . S
H2437 C2443 0.930 . S
C2438 H2424 0.930 . S
C2438 C2436 1.395 . S
C2438 C2441 1.403 . S
C2439 C2436 1.403 . S
C2439 C2440 1.524 . S
C2439 C2443 1.400 . S
C2440 H2425 0.960 . S
C2440 H2426 0.960 . S
C2440 H2427 0.960 . S
C2440 C2439 1.524 . S
C2441 C2438 1.403 . S
C2441 C2442 1.392 . S
C2441 C2445 1.495 . S
C2442 C2441 1.392 . S
C2442 C2443 1.385 . S
C2442 C2444 1.478 . S
C2443 H2437 0.930 . S
C2443 C2439 1.400 . S
C2443 C2442 1.385 . S
C2444 C2442 1.478 . S
C2444 C2446 1.381 . S
C2444 C2450 1.383 . S
C2445 C2441 1.495 . S
C2445 H2451 0.959 . S
C2445 H2452 0.961 . S
C2445 H2453 0.960 . S
C2446 C2444 1.381 . S
C2446 C2447 1.394 . S
C2446 H2454 0.930 . S
C2447 C2446 1.394 . S
C2447 C2448 1.383 . S
C2447 H2455 0.929 . S
C2448 C2447 1.383 . S
C2448 C2449 1.377 . S
C2449 H2433 0.930 . S
C2449 C2448 1.377 . S
C2449 C2450 1.379 . S
C2450 H2434 0.931 . S
C2450 C2444 1.383 . S
C2450 C2449 1.379 . S
H2451 C2445 0.959 . S
H2452 C2445 0.961 . S
H2453 C2445 0.960 . S
H2454 C2446 0.930 . S
H2455 C2447 0.929 . S
H2456 C2464 0.929 . S
H2457 C2466 0.930 . S
H2458 C2468 0.930 . S
H2459 C2471 0.929 . S
H2460 C2474 0.930 . S
H2461 C2476 0.960 . S
H2462 C2476 0.960 . S
H2463 C2476 0.960 . S
C2464 H2456 0.929 . S
C2464 C2465 1.377 1_554 S
C2464 C2466 1.384 . S
C2465 C2464 1.377 1_556 S
C2465 C2471 1.390 . S
C2466 H2457 0.930 . S
C2466 C2464 1.384 . S
C2466 C2467 1.372 . S
C2467 C2466 1.372 . S
C2467 C2468 1.400 . S
C2467 C2472 1.490 . S
C2468 H2458 0.930 . S
C2468 C2467 1.400 . S
C2468 C2471 1.386 1_554 S
H2469 C2485 0.930 . S
H2470 C2486 0.931 . S
C2471 H2459 0.929 . S
C2471 C2465 1.390 . S
C2471 C2468 1.386 1_556 S
C2472 C2467 1.490 . S
C2472 C2474 1.395 . S
C2472 C2475 1.403 . S
H2473 C2479 0.930 . S
C2474 H2460 0.930 . S
C2474 C2472 1.395 . S
C2474 C2477 1.403 . S
C2475 C2472 1.403 . S
C2475 C2476 1.524 . S
C2475 C2479 1.400 . S
C2476 H2461 0.960 . S
C2476 H2462 0.960 . S
C2476 H2463 0.960 . S
C2476 C2475 1.524 . S
C2477 C2474 1.403 . S
C2477 C2478 1.392 . S
C2477 C2481 1.495 . S
C2478 C2477 1.392 . S
C2478 C2479 1.385 . S
C2478 C2480 1.478 . S
C2479 H2473 0.930 . S
C2479 C2475 1.400 . S
C2479 C2478 1.385 . S
C2480 C2478 1.478 . S
C2480 C2482 1.381 . S
C2480 C2486 1.383 . S
C2481 C2477 1.495 . S
C2481 H2487 0.959 . S
C2481 H2488 0.961 . S
C2481 H2489 0.960 . S
C2482 C2480 1.381 . S
C2482 C2483 1.394 . S
C2482 H2490 0.930 . S
C2483 C2482 1.394 . S
C2483 C2484 1.383 . S
C2483 H2491 0.929 . S
C2484 C2483 1.383 . S
C2484 C2485 1.377 . S
C2485 H2469 0.930 . S
C2485 C2484 1.377 . S
C2485 C2486 1.379 . S
C2486 H2470 0.931 . S
C2486 C2480 1.383 . S
C2486 C2485 1.379 . S
H2487 C2481 0.959 . S
H2488 C2481 0.961 . S
H2489 C2481 0.960 . S
H2490 C2482 0.930 . S
H2491 C2483 0.929 . S
H2492 C2500 0.929 . S
H2493 C2502 0.930 . S
H2494 C2504 0.930 . S
H2495 C2507 0.929 . S
H2496 C2510 0.930 . S
H2497 C2512 0.960 . S
H2498 C2512 0.960 . S
H2499 C2512 0.960 . S
C2500 H2492 0.929 . S
C2500 C2501 1.377 . S
C2500 C2502 1.384 . S
C2501 C2500 1.377 . S
C2501 C2507 1.390 . S
C2502 H2493 0.930 . S
C2502 C2500 1.384 . S
C2502 C2503 1.372 . S
C2503 C2502 1.372 . S
C2503 C2504 1.400 . S
C2503 C2508 1.490 . S
C2504 H2494 0.930 . S
C2504 C2503 1.400 . S
C2504 C2507 1.386 . S
H2505 C2521 0.930 . S
H2506 C2522 0.931 . S
C2507 H2495 0.929 . S
C2507 C2501 1.390 . S
C2507 C2504 1.386 . S
C2508 C2503 1.490 . S
C2508 C2510 1.395 . S
C2508 C2511 1.403 . S
H2509 C2515 0.930 . S
C2510 H2496 0.930 . S
C2510 C2508 1.395 . S
C2510 C2513 1.403 . S
C2511 C2508 1.403 . S
C2511 C2512 1.524 . S
C2511 C2515 1.400 . S
C2512 H2497 0.960 . S
C2512 H2498 0.960 . S
C2512 H2499 0.960 . S
C2512 C2511 1.524 . S
C2513 C2510 1.403 . S
C2513 C2514 1.392 . S
C2513 C2517 1.495 . S
C2514 C2513 1.392 . S
C2514 C2515 1.385 . S
C2514 C2516 1.478 . S
C2515 H2509 0.930 . S
C2515 C2511 1.400 . S
C2515 C2514 1.385 . S
C2516 C2514 1.478 . S
C2516 C2518 1.381 . S
C2516 C2522 1.383 . S
C2517 C2513 1.495 . S
C2517 H2523 0.959 . S
C2517 H2524 0.961 . S
C2517 H2525 0.960 . S
C2518 C2516 1.381 . S
C2518 C2519 1.394 . S
C2518 H2526 0.930 . S
C2519 C2518 1.394 . S
C2519 C2520 1.383 1_554 S
C2519 H2527 0.929 1_554 S
C2520 C2519 1.383 1_556 S
C2520 C2521 1.377 . S
C2521 H2505 0.930 . S
C2521 C2520 1.377 . S
C2521 C2522 1.379 1_556 S
C2522 H2506 0.931 . S
C2522 C2516 1.383 . S
C2522 C2521 1.379 1_554 S
H2523 C2517 0.959 . S
H2524 C2517 0.961 . S
H2525 C2517 0.960 . S
H2526 C2518 0.930 . S
H2527 C2519 0.929 1_556 S
H2528 C2536 0.929 . S
H2529 C2538 0.930 . S
H2530 C2540 0.930 1_554 S
H2531 C2543 0.929 . S
H2532 C2546 0.930 . S
H2533 C2548 0.960 . S
H2534 C2548 0.960 . S
H2535 C2548 0.960 . S
C2536 H2528 0.929 . S
C2536 C2537 1.377 1_556 S
C2536 C2538 1.384 . S
C2537 C2536 1.377 1_554 S
C2537 C2543 1.390 . S
C2538 H2529 0.930 . S
C2538 C2536 1.384 . S
C2538 C2539 1.372 . S
C2539 C2538 1.372 . S
C2539 C2540 1.400 . S
C2539 C2544 1.490 . S
C2540 H2530 0.930 1_556 S
C2540 C2539 1.400 . S
C2540 C2543 1.386 1_556 S
H2541 C2557 0.930 . S
H2542 C2558 0.931 . S
C2543 H2531 0.929 . S
C2543 C2537 1.390 . S
C2543 C2540 1.386 1_554 S
C2544 C2539 1.490 . S
C2544 C2546 1.395 . S
C2544 C2547 1.403 . S
H2545 C2551 0.930 . S
C2546 H2532 0.930 . S
C2546 C2544 1.395 . S
C2546 C2549 1.403 . S
C2547 C2544 1.403 . S
C2547 C2548 1.524 . S
C2547 C2551 1.400 . S
C2548 H2533 0.960 . S
C2548 H2534 0.960 . S
C2548 H2535 0.960 . S
C2548 C2547 1.524 . S
C2549 C2546 1.403 . S
C2549 C2550 1.392 . S
C2549 C2553 1.495 . S
C2550 C2549 1.392 . S
C2550 C2551 1.385 . S
C2550 C2552 1.478 . S
C2551 H2545 0.930 . S
C2551 C2547 1.400 . S
C2551 C2550 1.385 . S
C2552 C2550 1.478 . S
C2552 C2554 1.381 . S
C2552 C2558 1.383 . S
C2553 C2549 1.495 . S
C2553 H2559 0.959 . S
C2553 H2560 0.961 . S
C2553 H2561 0.960 . S
C2554 C2552 1.381 . S
C2554 C2555 1.394 . S
C2554 H2562 0.930 . S
C2555 C2554 1.394 . S
C2555 C2556 1.383 . S
C2555 H2563 0.929 . S
C2556 C2555 1.383 . S
C2556 C2557 1.377 . S
C2557 H2541 0.930 . S
C2557 C2556 1.377 . S
C2557 C2558 1.379 . S
C2558 H2542 0.931 . S
C2558 C2552 1.383 . S
C2558 C2557 1.379 . S
H2559 C2553 0.959 . S
H2560 C2553 0.961 . S
H2561 C2553 0.960 . S
H2562 C2554 0.930 . S
H2563 C2555 0.929 . S
H2564 C2572 0.929 . S
H2565 C2574 0.930 . S
H2566 C2576 0.930 . S
H2567 C2579 0.929 . S
H2568 C2582 0.930 . S
H2569 C2584 0.960 . S
H2570 C2584 0.960 . S
H2571 C2584 0.960 . S
C2572 H2564 0.929 . S
C2572 C2573 1.377 . S
C2572 C2574 1.384 . S
C2573 C2572 1.377 . S
C2573 C2579 1.390 . S
C2574 H2565 0.930 . S
C2574 C2572 1.384 . S
C2574 C2575 1.372 . S
C2575 C2574 1.372 . S
C2575 C2576 1.400 . S
C2575 C2580 1.490 . S
C2576 H2566 0.930 . S
C2576 C2575 1.400 . S
C2576 C2579 1.386 . S
H2577 C2593 0.930 . S
H2578 C2594 0.931 1_554 S
C2579 H2567 0.929 . S
C2579 C2573 1.390 . S
C2579 C2576 1.386 . S
C2580 C2575 1.490 . S
C2580 C2582 1.395 . S
C2580 C2583 1.403 . S
H2581 C2587 0.930 . S
C2582 H2568 0.930 . S
C2582 C2580 1.395 . S
C2582 C2585 1.403 . S
C2583 C2580 1.403 . S
C2583 C2584 1.524 . S
C2583 C2587 1.400 . S
C2584 H2569 0.960 . S
C2584 H2570 0.960 . S
C2584 H2571 0.960 . S
C2584 C2583 1.524 . S
C2585 C2582 1.403 . S
C2585 C2586 1.392 . S
C2585 C2589 1.495 . S
C2586 C2585 1.392 . S
C2586 C2587 1.385 . S
C2586 C2588 1.478 . S
C2587 H2581 0.930 . S
C2587 C2583 1.400 . S
C2587 C2586 1.385 . S
C2588 C2586 1.478 . S
C2588 C2590 1.381 . S
C2588 C2594 1.383 . S
C2589 C2585 1.495 . S
C2589 H2595 0.959 . S
C2589 H2596 0.961 . S
C2589 H2597 0.960 . S
C2590 C2588 1.381 . S
C2590 C2591 1.394 . S
C2590 H2598 0.930 . S
C2591 C2590 1.394 . S
C2591 C2592 1.383 1_556 S
C2591 H2599 0.929 . S
C2592 C2591 1.383 1_554 S
C2592 C2593 1.377 . S
C2593 H2577 0.930 . S
C2593 C2592 1.377 . S
C2593 C2594 1.379 1_554 S
C2594 H2578 0.931 1_556 S
C2594 C2588 1.383 . S
C2594 C2593 1.379 1_556 S
H2595 C2589 0.959 . S
H2596 C2589 0.961 . S
H2597 C2589 0.960 . S
H2598 C2590 0.930 . S
H2599 C2591 0.929 . S
H2600 C2608 0.929 . S
H2601 C2610 0.930 . S
H2602 C2612 0.930 . S
H2603 C2615 0.929 . S
H2604 C2618 0.930 . S
H2605 C2620 0.960 . S
H2606 C2620 0.960 . S
H2607 C2620 0.960 . S
C2608 H2600 0.929 . S
C2608 C2609 1.377 . S
C2608 C2610 1.384 . S
C2609 C2608 1.377 . S
C2609 C2615 1.390 . S
C2610 H2601 0.930 . S
C2610 C2608 1.384 . S
C2610 C2611 1.372 . S
C2611 C2610 1.372 . S
C2611 C2612 1.400 . S
C2611 C2616 1.490 . S
C2612 H2602 0.930 . S
C2612 C2611 1.400 . S
C2612 C2615 1.386 . S
H2613 C2629 0.930 . S
H2614 C2630 0.931 . S
C2615 H2603 0.929 . S
C2615 C2609 1.390 . S
C2615 C2612 1.386 . S
C2616 C2611 1.490 . S
C2616 C2618 1.395 . S
C2616 C2619 1.403 . S
H2617 C2623 0.930 . S
C2618 H2604 0.930 . S
C2618 C2616 1.395 . S
C2618 C2621 1.403 . S
C2619 C2616 1.403 . S
C2619 C2620 1.524 . S
C2619 C2623 1.400 . S
C2620 H2605 0.960 . S
C2620 H2606 0.960 . S
C2620 H2607 0.960 . S
C2620 C2619 1.524 . S
C2621 C2618 1.403 . S
C2621 C2622 1.392 . S
C2621 C2625 1.495 . S
C2622 C2621 1.392 . S
C2622 C2623 1.385 . S
C2622 C2624 1.478 . S
C2623 H2617 0.930 . S
C2623 C2619 1.400 . S
C2623 C2622 1.385 . S
C2624 C2622 1.478 . S
C2624 C2626 1.381 . S
C2624 C2630 1.383 . S
C2625 C2621 1.495 . S
C2625 H2631 0.959 . S
C2625 H2632 0.961 . S
C2625 H2633 0.960 . S
C2626 C2624 1.381 . S
C2626 C2627 1.394 . S
C2626 H2634 0.930 . S
C2627 C2626 1.394 . S
C2627 C2628 1.383 . S
C2627 H2635 0.929 . S
C2628 C2627 1.383 . S
C2628 C2629 1.377 . S
C2629 H2613 0.930 . S
C2629 C2628 1.377 . S
C2629 C2630 1.379 . S
C2630 H2614 0.931 . S
C2630 C2624 1.383 . S
C2630 C2629 1.379 . S
H2631 C2625 0.959 . S
H2632 C2625 0.961 . S
H2633 C2625 0.960 . S
H2634 C2626 0.930 . S
H2635 C2627 0.929 . S
H2636 C2644 0.929 . S
H2637 C2646 0.930 . S
H2638 C2648 0.930 . S
H2639 C2651 0.929 . S
H2640 C2654 0.930 . S
H2641 C2656 0.960 . S
H2642 C2656 0.960 . S
H2643 C2656 0.960 . S
C2644 H2636 0.929 . S
C2644 C2645 1.377 . S
C2644 C2646 1.384 . S
C2645 C2644 1.377 . S
C2645 C2651 1.390 . S
C2646 H2637 0.930 . S
C2646 C2644 1.384 . S
C2646 C2647 1.372 . S
C2647 C2646 1.372 . S
C2647 C2648 1.400 . S
C2647 C2652 1.490 . S
C2648 H2638 0.930 . S
C2648 C2647 1.400 . S
C2648 C2651 1.386 . S
H2649 C2665 0.930 . S
H2650 C2666 0.931 . S
C2651 H2639 0.929 . S
C2651 C2645 1.390 . S
C2651 C2648 1.386 . S
C2652 C2647 1.490 . S
C2652 C2654 1.395 . S
C2652 C2655 1.403 . S
H2653 C2659 0.930 . S
C2654 H2640 0.930 . S
C2654 C2652 1.395 . S
C2654 C2657 1.403 . S
C2655 C2652 1.403 . S
C2655 C2656 1.524 . S
C2655 C2659 1.400 . S
C2656 H2641 0.960 . S
C2656 H2642 0.960 . S
C2656 H2643 0.960 . S
C2656 C2655 1.524 . S
C2657 C2654 1.403 . S
C2657 C2658 1.392 . S
C2657 C2661 1.495 . S
C2658 C2657 1.392 . S
C2658 C2659 1.385 . S
C2658 C2660 1.478 . S
C2659 H2653 0.930 . S
C2659 C2655 1.400 . S
C2659 C2658 1.385 . S
C2660 C2658 1.478 . S
C2660 C2662 1.381 . S
C2660 C2666 1.383 . S
C2661 C2657 1.495 . S
C2661 H2667 0.959 . S
C2661 H2668 0.961 . S
C2661 H2669 0.960 . S
C2662 C2660 1.381 . S
C2662 C2663 1.394 . S
C2662 H2670 0.930 . S
C2663 C2662 1.394 . S
C2663 C2664 1.383 . S
C2663 H2671 0.929 . S
C2664 C2663 1.383 . S
C2664 C2665 1.377 . S
C2665 H2649 0.930 . S
C2665 C2664 1.377 . S
C2665 C2666 1.379 . S
C2666 H2650 0.931 . S
C2666 C2660 1.383 . S
C2666 C2665 1.379 . S
H2667 C2661 0.959 . S
H2668 C2661 0.961 . S
H2669 C2661 0.960 . S
H2670 C2662 0.930 . S
H2671 C2663 0.929 . S
H2672 C2680 0.929 . S
H2673 C2682 0.930 . S
H2674 C2684 0.930 . S
H2675 C2687 0.929 . S
H2676 C2690 0.930 . S
H2677 C2692 0.960 . S
H2678 C2692 0.960 . S
H2679 C2692 0.960 . S
C2680 H2672 0.929 . S
C2680 C2681 1.377 . S
C2680 C2682 1.384 . S
C2681 C2680 1.377 . S
C2681 C2687 1.390 . S
C2682 H2673 0.930 . S
C2682 C2680 1.384 . S
C2682 C2683 1.372 . S
C2683 C2682 1.372 . S
C2683 C2684 1.400 . S
C2683 C2688 1.490 . S
C2684 H2674 0.930 . S
C2684 C2683 1.400 . S
C2684 C2687 1.386 . S
H2685 C2701 0.930 . S
H2686 C2702 0.931 . S
C2687 H2675 0.929 . S
C2687 C2681 1.390 . S
C2687 C2684 1.386 . S
C2688 C2683 1.490 . S
C2688 C2690 1.395 . S
C2688 C2691 1.403 . S
H2689 C2695 0.930 . S
C2690 H2676 0.930 . S
C2690 C2688 1.395 . S
C2690 C2693 1.403 . S
C2691 C2688 1.403 . S
C2691 C2692 1.524 . S
C2691 C2695 1.400 . S
C2692 H2677 0.960 . S
C2692 H2678 0.960 . S
C2692 H2679 0.960 . S
C2692 C2691 1.524 . S
C2693 C2690 1.403 . S
C2693 C2694 1.392 . S
C2693 C2697 1.495 . S
C2694 C2693 1.392 . S
C2694 C2695 1.385 . S
C2694 C2696 1.478 . S
C2695 H2689 0.930 . S
C2695 C2691 1.400 . S
C2695 C2694 1.385 . S
C2696 C2694 1.478 . S
C2696 C2698 1.381 . S
C2696 C2702 1.383 . S
C2697 C2693 1.495 . S
C2697 H2703 0.959 . S
C2697 H2704 0.961 . S
C2697 H2705 0.960 . S
C2698 C2696 1.381 . S
C2698 C2699 1.394 1_554 S
C2698 H2706 0.930 1_554 S
C2699 C2698 1.394 1_556 S
C2699 C2700 1.383 . S
C2699 H2707 0.929 . S
C2700 C2699 1.383 . S
C2700 C2701 1.377 1_556 S
C2701 H2685 0.930 . S
C2701 C2700 1.377 1_554 S
C2701 C2702 1.379 . S
C2702 H2686 0.931 . S
C2702 C2696 1.383 . S
C2702 C2701 1.379 . S
H2703 C2697 0.959 . S
H2704 C2697 0.961 . S
H2705 C2697 0.960 . S
H2706 C2698 0.930 1_556 S
H2707 C2699 0.929 . S
H2708 C2716 0.929 . S
H2709 C2718 0.930 . S
H2710 C2720 0.930 . S
H2711 C2723 0.929 . S
H2712 C2726 0.930 . S
H2713 C2728 0.960 . S
H2714 C2728 0.960 . S
H2715 C2728 0.960 . S
C2716 H2708 0.929 . S
C2716 C2717 1.377 . S
C2716 C2718 1.384 1_556 S
C2717 C2716 1.377 . S
C2717 C2723 1.390 1_556 S
C2718 H2709 0.930 . S
C2718 C2716 1.384 1_554 S
C2718 C2719 1.372 . S
C2719 C2718 1.372 . S
C2719 C2720 1.400 . S
C2719 C2724 1.490 . S
C2720 H2710 0.930 . S
C2720 C2719 1.400 . S
C2720 C2723 1.386 . S
H2721 C2737 0.930 . S
H2722 C2738 0.931 . S
C2723 H2711 0.929 . S
C2723 C2717 1.390 1_554 S
C2723 C2720 1.386 . S
C2724 C2719 1.490 . S
C2724 C2726 1.395 . S
C2724 C2727 1.403 . S
H2725 C2731 0.930 . S
C2726 H2712 0.930 . S
C2726 C2724 1.395 . S
C2726 C2729 1.403 . S
C2727 C2724 1.403 . S
C2727 C2728 1.524 . S
C2727 C2731 1.400 . S
C2728 H2713 0.960 . S
C2728 H2714 0.960 . S
C2728 H2715 0.960 . S
C2728 C2727 1.524 . S
C2729 C2726 1.403 . S
C2729 C2730 1.392 . S
C2729 C2733 1.495 . S
C2730 C2729 1.392 . S
C2730 C2731 1.385 . S
C2730 C2732 1.478 . S
C2731 H2725 0.930 . S
C2731 C2727 1.400 . S
C2731 C2730 1.385 . S
C2732 C2730 1.478 . S
C2732 C2734 1.381 . S
C2732 C2738 1.383 . S
C2733 C2729 1.495 . S
C2733 H2739 0.959 . S
C2733 H2740 0.961 . S
C2733 H2741 0.960 . S
C2734 C2732 1.381 . S
C2734 C2735 1.394 . S
C2734 H2742 0.930 . S
C2735 C2734 1.394 . S
C2735 C2736 1.383 . S
C2735 H2743 0.929 . S
C2736 C2735 1.383 . S
C2736 C2737 1.377 . S
C2737 H2721 0.930 . S
C2737 C2736 1.377 . S
C2737 C2738 1.379 . S
C2738 H2722 0.931 . S
C2738 C2732 1.383 . S
C2738 C2737 1.379 . S
H2739 C2733 0.959 . S
H2740 C2733 0.961 . S
H2741 C2733 0.960 . S
H2742 C2734 0.930 . S
H2743 C2735 0.929 . S
H2744 C2752 0.929 . S
H2745 C2754 0.930 . S
H2746 C2756 0.930 . S
H2747 C2759 0.929 . S
H2748 C2762 0.930 . S
H2749 C2764 0.960 . S
H2750 C2764 0.960 . S
H2751 C2764 0.960 . S
C2752 H2744 0.929 . S
C2752 C2753 1.377 . S
C2752 C2754 1.384 . S
C2753 C2752 1.377 . S
C2753 C2759 1.390 . S
C2754 H2745 0.930 . S
C2754 C2752 1.384 . S
C2754 C2755 1.372 . S
C2755 C2754 1.372 . S
C2755 C2756 1.400 . S
C2755 C2760 1.490 . S
C2756 H2746 0.930 . S
C2756 C2755 1.400 . S
C2756 C2759 1.386 . S
H2757 C2773 0.930 . S
H2758 C2774 0.931 . S
C2759 H2747 0.929 . S
C2759 C2753 1.390 . S
C2759 C2756 1.386 . S
C2760 C2755 1.490 . S
C2760 C2762 1.395 . S
C2760 C2763 1.403 . S
H2761 C2767 0.930 . S
C2762 H2748 0.930 . S
C2762 C2760 1.395 . S
C2762 C2765 1.403 . S
C2763 C2760 1.403 . S
C2763 C2764 1.524 . S
C2763 C2767 1.400 . S
C2764 H2749 0.960 . S
C2764 H2750 0.960 . S
C2764 H2751 0.960 . S
C2764 C2763 1.524 . S
C2765 C2762 1.403 . S
C2765 C2766 1.392 . S
C2765 C2769 1.495 . S
C2766 C2765 1.392 . S
C2766 C2767 1.385 . S
C2766 C2768 1.478 . S
C2767 H2761 0.930 . S
C2767 C2763 1.400 . S
C2767 C2766 1.385 . S
C2768 C2766 1.478 . S
C2768 C2770 1.381 . S
C2768 C2774 1.383 . S
C2769 C2765 1.495 . S
C2769 H2775 0.959 . S
C2769 H2776 0.961 . S
C2769 H2777 0.960 . S
C2770 C2768 1.381 . S
C2770 C2771 1.394 . S
C2770 H2778 0.930 . S
C2771 C2770 1.394 . S
C2771 C2772 1.383 . S
C2771 H2779 0.929 . S
C2772 C2771 1.383 . S
C2772 C2773 1.377 . S
C2773 H2757 0.930 . S
C2773 C2772 1.377 . S
C2773 C2774 1.379 . S
C2774 H2758 0.931 . S
C2774 C2768 1.383 . S
C2774 C2773 1.379 . S
H2775 C2769 0.959 . S
H2776 C2769 0.961 . S
H2777 C2769 0.960 . S
H2778 C2770 0.930 . S
H2779 C2771 0.929 . S
H2780 C2788 0.929 . S
H2781 C2790 0.930 . S
H2782 C2792 0.930 . S
H2783 C2795 0.929 . S
H2784 C2798 0.930 . S
H2785 C2800 0.960 . S
H2786 C2800 0.960 . S
H2787 C2800 0.960 . S
C2788 H2780 0.929 . S
C2788 C2789 1.377 . S
C2788 C2790 1.384 . S
C2789 C2788 1.377 . S
C2789 C2795 1.390 . S
C2790 H2781 0.930 . S
C2790 C2788 1.384 . S
C2790 C2791 1.372 . S
C2791 C2790 1.372 . S
C2791 C2792 1.400 . S
C2791 C2796 1.490 . S
C2792 H2782 0.930 . S
C2792 C2791 1.400 . S
C2792 C2795 1.386 . S
H2793 C2809 0.930 . S
H2794 C2810 0.931 . S
C2795 H2783 0.929 . S
C2795 C2789 1.390 . S
C2795 C2792 1.386 . S
C2796 C2791 1.490 . S
C2796 C2798 1.395 . S
C2796 C2799 1.403 . S
H2797 C2803 0.930 . S
C2798 H2784 0.930 . S
C2798 C2796 1.395 . S
C2798 C2801 1.403 . S
C2799 C2796 1.403 . S
C2799 C2800 1.524 . S
C2799 C2803 1.400 . S
C2800 H2785 0.960 . S
C2800 H2786 0.960 . S
C2800 H2787 0.960 . S
C2800 C2799 1.524 . S
C2801 C2798 1.403 . S
C2801 C2802 1.392 . S
C2801 C2805 1.495 . S
C2802 C2801 1.392 . S
C2802 C2803 1.385 . S
C2802 C2804 1.478 . S
C2803 H2797 0.930 . S
C2803 C2799 1.400 . S
C2803 C2802 1.385 . S
C2804 C2802 1.478 . S
C2804 C2806 1.381 . S
C2804 C2810 1.383 . S
C2805 C2801 1.495 . S
C2805 H2811 0.959 . S
C2805 H2812 0.961 . S
C2805 H2813 0.960 . S
C2806 C2804 1.381 . S
C2806 C2807 1.394 . S
C2806 H2814 0.930 . S
C2807 C2806 1.394 . S
C2807 C2808 1.383 . S
C2807 H2815 0.929 . S
C2808 C2807 1.383 . S
C2808 C2809 1.377 . S
C2809 H2793 0.930 . S
C2809 C2808 1.377 . S
C2809 C2810 1.379 . S
C2810 H2794 0.931 . S
C2810 C2804 1.383 . S
C2810 C2809 1.379 . S
H2811 C2805 0.959 . S
H2812 C2805 0.961 . S
H2813 C2805 0.960 . S
H2814 C2806 0.930 . S
H2815 C2807 0.929 . S
H2816 C2824 0.929 . S
H2817 C2826 0.930 . S
H2818 C2828 0.930 . S
H2819 C2831 0.929 . S
H2820 C2834 0.930 . S
H2821 C2836 0.960 . S
H2822 C2836 0.960 . S
H2823 C2836 0.960 . S
C2824 H2816 0.929 . S
C2824 C2825 1.377 . S
C2824 C2826 1.384 . S
C2825 C2824 1.377 . S
C2825 C2831 1.390 . S
C2826 H2817 0.930 . S
C2826 C2824 1.384 . S
C2826 C2827 1.372 . S
C2827 C2826 1.372 . S
C2827 C2828 1.400 . S
C2827 C2832 1.490 . S
C2828 H2818 0.930 . S
C2828 C2827 1.400 . S
C2828 C2831 1.386 . S
H2829 C2845 0.930 . S
H2830 C2846 0.931 . S
C2831 H2819 0.929 . S
C2831 C2825 1.390 . S
C2831 C2828 1.386 . S
C2832 C2827 1.490 . S
C2832 C2834 1.395 . S
C2832 C2835 1.403 . S
H2833 C2839 0.930 . S
C2834 H2820 0.930 . S
C2834 C2832 1.395 . S
C2834 C2837 1.403 . S
C2835 C2832 1.403 . S
C2835 C2836 1.524 . S
C2835 C2839 1.400 . S
C2836 H2821 0.960 . S
C2836 H2822 0.960 . S
C2836 H2823 0.960 . S
C2836 C2835 1.524 . S
C2837 C2834 1.403 . S
C2837 C2838 1.392 . S
C2837 C2841 1.495 . S
C2838 C2837 1.392 . S
C2838 C2839 1.385 . S
C2838 C2840 1.478 . S
C2839 H2833 0.930 . S
C2839 C2835 1.400 . S
C2839 C2838 1.385 . S
C2840 C2838 1.478 . S
C2840 C2842 1.381 . S
C2840 C2846 1.383 . S
C2841 C2837 1.495 . S
C2841 H2847 0.959 . S
C2841 H2848 0.961 . S
C2841 H2849 0.960 . S
C2842 C2840 1.381 . S
C2842 C2843 1.394 . S
C2842 H2850 0.930 . S
C2843 C2842 1.394 . S
C2843 C2844 1.383 1_556 S
C2843 H2851 0.929 . S
C2844 C2843 1.383 1_554 S
C2844 C2845 1.377 . S
C2845 H2829 0.930 . S
C2845 C2844 1.377 . S
C2845 C2846 1.379 1_554 S
C2846 H2830 0.931 . S
C2846 C2840 1.383 . S
C2846 C2845 1.379 1_556 S
H2847 C2841 0.959 . S
H2848 C2841 0.961 . S
H2849 C2841 0.960 . S
H2850 C2842 0.930 . S
H2851 C2843 0.929 . S
H2852 C2860 0.929 . S
H2853 C2862 0.930 . S
H2854 C2864 0.930 . S
H2855 C2867 0.929 . S
H2856 C2870 0.930 . S
H2857 C2872 0.960 . S
H2858 C2872 0.960 . S
H2859 C2872 0.960 . S
C2860 H2852 0.929 . S
C2860 C2861 1.377 1_556 S
C2860 C2862 1.384 . S
C2861 C2860 1.377 1_554 S
C2861 C2867 1.390 . S
C2862 H2853 0.930 . S
C2862 C2860 1.384 . S
C2862 C2863 1.372 . S
C2863 C2862 1.372 . S
C2863 C2864 1.400 . S
C2863 C2868 1.490 . S
C2864 H2854 0.930 . S
C2864 C2863 1.400 . S
C2864 C2867 1.386 1_556 S
H2865 C2881 0.930 . S
H2866 C2882 0.931 . S
C2867 H2855 0.929 . S
C2867 C2861 1.390 . S
C2867 C2864 1.386 1_554 S
C2868 C2863 1.490 . S
C2868 C2870 1.395 . S
C2868 C2871 1.403 . S
H2869 C2875 0.930 . S
C2870 H2856 0.930 . S
C2870 C2868 1.395 . S
C2870 C2873 1.403 . S
C2871 C2868 1.403 . S
C2871 C2872 1.524 . S
C2871 C2875 1.400 . S
C2872 H2857 0.960 . S
C2872 H2858 0.960 . S
C2872 H2859 0.960 . S
C2872 C2871 1.524 . S
C2873 C2870 1.403 . S
C2873 C2874 1.392 . S
C2873 C2877 1.495 . S
C2874 C2873 1.392 . S
C2874 C2875 1.385 . S
C2874 C2876 1.478 . S
C2875 H2869 0.930 . S
C2875 C2871 1.400 . S
C2875 C2874 1.385 . S
C2876 C2874 1.478 . S
C2876 C2878 1.381 . S
C2876 C2882 1.383 . S
C2877 C2873 1.495 . S
C2877 H2883 0.959 . S
C2877 H2884 0.961 . S
C2877 H2885 0.960 . S
C2878 C2876 1.381 . S
C2878 C2879 1.394 . S
C2878 H2886 0.930 . S
C2879 C2878 1.394 . S
C2879 C2880 1.383 . S
C2879 H2887 0.929 . S
C2880 C2879 1.383 . S
C2880 C2881 1.377 . S
C2881 H2865 0.930 . S
C2881 C2880 1.377 . S
C2881 C2882 1.379 . S
C2882 H2866 0.931 . S
C2882 C2876 1.383 . S
C2882 C2881 1.379 . S
H2883 C2877 0.959 . S
H2884 C2877 0.961 . S
H2885 C2877 0.960 . S
H2886 C2878 0.930 . S
H2887 C2879 0.929 . S
H2888 C2896 0.929 . S
H2889 C2898 0.930 . S
H2890 C2900 0.930 . S
H2891 C2903 0.929 . S
H2892 C2906 0.930 . S
H2893 C2908 0.960 . S
H2894 C2908 0.960 . S
H2895 C2908 0.960 . S
C2896 H2888 0.929 . S
C2896 C2897 1.377 . S
C2896 C2898 1.384 . S
C2897 C2896 1.377 . S
C2897 C2903 1.390 . S
C2898 H2889 0.930 . S
C2898 C2896 1.384 . S
C2898 C2899 1.372 . S
C2899 C2898 1.372 . S
C2899 C2900 1.400 . S
C2899 C2904 1.490 . S
C2900 H2890 0.930 . S
C2900 C2899 1.400 . S
C2900 C2903 1.386 . S
H2901 C2917 0.930 . S
H2902 C2918 0.931 . S
C2903 H2891 0.929 . S
C2903 C2897 1.390 . S
C2903 C2900 1.386 . S
C2904 C2899 1.490 . S
C2904 C2906 1.395 . S
C2904 C2907 1.403 . S
H2905 C2911 0.930 . S
C2906 H2892 0.930 . S
C2906 C2904 1.395 . S
C2906 C2909 1.403 . S
C2907 C2904 1.403 . S
C2907 C2908 1.524 . S
C2907 C2911 1.400 . S
C2908 H2893 0.960 . S
C2908 H2894 0.960 . S
C2908 H2895 0.960 . S
C2908 C2907 1.524 . S
C2909 C2906 1.403 . S
C2909 C2910 1.392 . S
C2909 C2913 1.495 . S
C2910 C2909 1.392 . S
C2910 C2911 1.385 . S
C2910 C2912 1.478 . S
C2911 H2905 0.930 . S
C2911 C2907 1.400 . S
C2911 C2910 1.385 . S
C2912 C2910 1.478 . S
C2912 C2914 1.381 . S
C2912 C2918 1.383 . S
C2913 C2909 1.495 . S
C2913 H2919 0.959 . S
C2913 H2920 0.961 . S
C2913 H2921 0.960 . S
C2914 C2912 1.381 . S
C2914 C2915 1.394 . S
C2914 H2922 0.930 . S
C2915 C2914 1.394 . S
C2915 C2916 1.383 . S
C2915 H2923 0.929 . S
C2916 C2915 1.383 . S
C2916 C2917 1.377 . S
C2917 H2901 0.930 . S
C2917 C2916 1.377 . S
C2917 C2918 1.379 . S
C2918 H2902 0.931 . S
C2918 C2912 1.383 . S
C2918 C2917 1.379 . S
H2919 C2913 0.959 . S
H2920 C2913 0.961 . S
H2921 C2913 0.960 . S
H2922 C2914 0.930 . S
H2923 C2915 0.929 . S
H2924 C2932 0.929 . S
H2925 C2934 0.930 . S
H2926 C2936 0.930 . S
H2927 C2939 0.929 . S
H2928 C2942 0.930 . S
H2929 C2944 0.960 . S
H2930 C2944 0.960 . S
H2931 C2944 0.960 . S
C2932 H2924 0.929 . S
C2932 C2933 1.377 . S
C2932 C2934 1.384 . S
C2933 C2932 1.377 . S
C2933 C2939 1.390 . S
C2934 H2925 0.930 . S
C2934 C2932 1.384 . S
C2934 C2935 1.372 . S
C2935 C2934 1.372 . S
C2935 C2936 1.400 . S
C2935 C2940 1.490 . S
C2936 H2926 0.930 . S
C2936 C2935 1.400 . S
C2936 C2939 1.386 . S
H2937 C2953 0.930 . S
H2938 C2954 0.931 . S
C2939 H2927 0.929 . S
C2939 C2933 1.390 . S
C2939 C2936 1.386 . S
C2940 C2935 1.490 . S
C2940 C2942 1.395 . S
C2940 C2943 1.403 . S
H2941 C2947 0.930 . S
C2942 H2928 0.930 . S
C2942 C2940 1.395 . S
C2942 C2945 1.403 . S
C2943 C2940 1.403 . S
C2943 C2944 1.524 . S
C2943 C2947 1.400 . S
C2944 H2929 0.960 . S
C2944 H2930 0.960 . S
C2944 H2931 0.960 . S
C2944 C2943 1.524 . S
C2945 C2942 1.403 . S
C2945 C2946 1.392 . S
C2945 C2949 1.495 . S
C2946 C2945 1.392 . S
C2946 C2947 1.385 . S
C2946 C2948 1.478 . S
C2947 H2941 0.930 . S
C2947 C2943 1.400 . S
C2947 C2946 1.385 . S
C2948 C2946 1.478 . S
C2948 C2950 1.381 . S
C2948 C2954 1.383 . S
C2949 C2945 1.495 . S
C2949 H2955 0.959 . S
C2949 H2956 0.961 . S
C2949 H2957 0.960 . S
C2950 C2948 1.381 . S
C2950 C2951 1.394 . S
C2950 H2958 0.930 . S
C2951 C2950 1.394 . S
C2951 C2952 1.383 . S
C2951 H2959 0.929 . S
C2952 C2951 1.383 . S
C2952 C2953 1.377 . S
C2953 H2937 0.930 . S
C2953 C2952 1.377 . S
C2953 C2954 1.379 . S
C2954 H2938 0.931 . S
C2954 C2948 1.383 . S
C2954 C2953 1.379 . S
H2955 C2949 0.959 . S
H2956 C2949 0.961 . S
H2957 C2949 0.960 . S
H2958 C2950 0.930 . S
H2959 C2951 0.929 . S
H2960 C2968 0.929 . S
H2961 C2970 0.930 . S
H2962 C2972 0.930 . S
H2963 C2975 0.929 . S
H2964 C2978 0.930 . S
H2965 C2980 0.960 . S
H2966 C2980 0.960 . S
H2967 C2980 0.960 . S
C2968 H2960 0.929 . S
C2968 C2969 1.377 . S
C2968 C2970 1.384 1_556 S
C2969 C2968 1.377 . S
C2969 C2975 1.390 1_556 S
C2970 H2961 0.930 . S
C2970 C2968 1.384 1_554 S
C2970 C2971 1.372 . S
C2971 C2970 1.372 . S
C2971 C2972 1.400 . S
C2971 C2976 1.490 . S
C2972 H2962 0.930 . S
C2972 C2971 1.400 . S
C2972 C2975 1.386 . S
H2973 C2989 0.930 . S
H2974 C2990 0.931 . S
C2975 H2963 0.929 . S
C2975 C2969 1.390 1_554 S
C2975 C2972 1.386 . S
C2976 C2971 1.490 . S
C2976 C2978 1.395 . S
C2976 C2979 1.403 . S
H2977 C2983 0.930 . S
C2978 H2964 0.930 . S
C2978 C2976 1.395 . S
C2978 C2981 1.403 . S
C2979 C2976 1.403 . S
C2979 C2980 1.524 . S
C2979 C2983 1.400 . S
C2980 H2965 0.960 . S
C2980 H2966 0.960 . S
C2980 H2967 0.960 . S
C2980 C2979 1.524 . S
C2981 C2978 1.403 . S
C2981 C2982 1.392 . S
C2981 C2985 1.495 . S
C2982 C2981 1.392 . S
C2982 C2983 1.385 . S
C2982 C2984 1.478 . S
C2983 H2977 0.930 . S
C2983 C2979 1.400 . S
C2983 C2982 1.385 . S
C2984 C2982 1.478 . S
C2984 C2986 1.381 . S
C2984 C2990 1.383 . S
C2985 C2981 1.495 . S
C2985 H2991 0.959 . S
C2985 H2992 0.961 . S
C2985 H2993 0.960 . S
C2986 C2984 1.381 . S
C2986 C2987 1.394 . S
C2986 H2994 0.930 . S
C2987 C2986 1.394 . S
C2987 C2988 1.383 . S
C2987 H2995 0.929 . S
C2988 C2987 1.383 . S
C2988 C2989 1.377 . S
C2989 H2973 0.930 . S
C2989 C2988 1.377 . S
C2989 C2990 1.379 . S
C2990 H2974 0.931 . S
C2990 C2984 1.383 . S
C2990 C2989 1.379 . S
H2991 C2985 0.959 . S
H2992 C2985 0.961 . S
H2993 C2985 0.960 . S
H2994 C2986 0.930 . S
H2995 C2987 0.929 . S
H2996 C3004 0.929 . S
H2997 C3006 0.930 . S
H2998 C3008 0.930 . S
H2999 C3011 0.929 . S
H3000 C3014 0.930 . S
H3001 C3016 0.960 . S
H3002 C3016 0.960 . S
H3003 C3016 0.960 . S
C3004 H2996 0.929 . S
C3004 C3005 1.377 . S
C3004 C3006 1.384 1_556 S
C3005 C3004 1.377 . S
C3005 C3011 1.390 1_556 S
C3006 H2997 0.930 . S
C3006 C3004 1.384 1_554 S
C3006 C3007 1.372 . S
C3007 C3006 1.372 . S
C3007 C3008 1.400 . S
C3007 C3012 1.490 . S
C3008 H2998 0.930 . S
C3008 C3007 1.400 . S
C3008 C3011 1.386 . S
H3009 C3025 0.930 . S
H3010 C3026 0.931 . S
C3011 H2999 0.929 . S
C3011 C3005 1.390 1_554 S
C3011 C3008 1.386 . S
C3012 C3007 1.490 . S
C3012 C3014 1.395 . S
C3012 C3015 1.403 . S
H3013 C3019 0.930 . S
C3014 H3000 0.930 . S
C3014 C3012 1.395 . S
C3014 C3017 1.403 . S
C3015 C3012 1.403 . S
C3015 C3016 1.524 . S
C3015 C3019 1.400 . S
C3016 H3001 0.960 . S
C3016 H3002 0.960 . S
C3016 H3003 0.960 . S
C3016 C3015 1.524 . S
C3017 C3014 1.403 . S
C3017 C3018 1.392 . S
C3017 C3021 1.495 . S
C3018 C3017 1.392 . S
C3018 C3019 1.385 . S
C3018 C3020 1.478 . S
C3019 H3013 0.930 . S
C3019 C3015 1.400 . S
C3019 C3018 1.385 . S
C3020 C3018 1.478 . S
C3020 C3022 1.381 . S
C3020 C3026 1.383 . S
C3021 C3017 1.495 . S
C3021 H3027 0.959 . S
C3021 H3028 0.961 . S
C3021 H3029 0.960 . S
C3022 C3020 1.381 . S
C3022 C3023 1.394 . S
C3022 H3030 0.930 . S
C3023 C3022 1.394 . S
C3023 C3024 1.383 . S
C3023 H3031 0.929 . S
C3024 C3023 1.383 . S
C3024 C3025 1.377 . S
C3025 H3009 0.930 . S
C3025 C3024 1.377 . S
C3025 C3026 1.379 . S
C3026 H3010 0.931 . S
C3026 C3020 1.383 . S
C3026 C3025 1.379 . S
H3027 C3021 0.959 . S
H3028 C3021 0.961 . S
H3029 C3021 0.960 . S
H3030 C3022 0.930 . S
H3031 C3023 0.929 . S
H3032 C3040 0.929 . S
H3033 C3042 0.930 . S
H3034 C3044 0.930 . S
H3035 C3047 0.929 . S
H3036 C3050 0.930 . S
H3037 C3052 0.960 . S
H3038 C3052 0.960 . S
H3039 C3052 0.960 . S
C3040 H3032 0.929 . S
C3040 C3041 1.377 . S
C3040 C3042 1.384 . S
C3041 C3040 1.377 . S
C3041 C3047 1.390 . S
C3042 H3033 0.930 . S
C3042 C3040 1.384 . S
C3042 C3043 1.372 . S
C3043 C3042 1.372 . S
C3043 C3044 1.400 . S
C3043 C3048 1.490 . S
C3044 H3034 0.930 . S
C3044 C3043 1.400 . S
C3044 C3047 1.386 . S
H3045 C3061 0.930 . S
H3046 C3062 0.931 . S
C3047 H3035 0.929 . S
C3047 C3041 1.390 . S
C3047 C3044 1.386 . S
C3048 C3043 1.490 . S
C3048 C3050 1.395 . S
C3048 C3051 1.403 . S
H3049 C3055 0.930 . S
C3050 H3036 0.930 . S
C3050 C3048 1.395 . S
C3050 C3053 1.403 . S
C3051 C3048 1.403 . S
C3051 C3052 1.524 . S
C3051 C3055 1.400 . S
C3052 H3037 0.960 . S
C3052 H3038 0.960 . S
C3052 H3039 0.960 . S
C3052 C3051 1.524 . S
C3053 C3050 1.403 . S
C3053 C3054 1.392 . S
C3053 C3057 1.495 . S
C3054 C3053 1.392 . S
C3054 C3055 1.385 . S
C3054 C3056 1.478 . S
C3055 H3049 0.930 . S
C3055 C3051 1.400 . S
C3055 C3054 1.385 . S
C3056 C3054 1.478 . S
C3056 C3058 1.381 . S
C3056 C3062 1.383 . S
C3057 C3053 1.495 . S
C3057 H3063 0.959 . S
C3057 H3064 0.961 . S
C3057 H3065 0.960 . S
C3058 C3056 1.381 . S
C3058 C3059 1.394 . S
C3058 H3066 0.930 . S
C3059 C3058 1.394 . S
C3059 C3060 1.383 . S
C3059 H3067 0.929 . S
C3060 C3059 1.383 . S
C3060 C3061 1.377 . S
C3061 H3045 0.930 . S
C3061 C3060 1.377 . S
C3061 C3062 1.379 . S
C3062 H3046 0.931 . S
C3062 C3056 1.383 . S
C3062 C3061 1.379 . S
H3063 C3057 0.959 . S
H3064 C3057 0.961 . S
H3065 C3057 0.960 . S
H3066 C3058 0.930 . S
H3067 C3059 0.929 . S
H3068 C3076 0.929 . S
H3069 C3078 0.930 . S
H3070 C3080 0.930 . S
H3071 C3083 0.929 . S
H3072 C3086 0.930 . S
H3073 C3088 0.960 . S
H3074 C3088 0.960 . S
H3075 C3088 0.960 . S
C3076 H3068 0.929 . S
C3076 C3077 1.377 . S
C3076 C3078 1.384 . S
C3077 C3076 1.377 . S
C3077 C3083 1.390 . S
C3078 H3069 0.930 . S
C3078 C3076 1.384 . S
C3078 C3079 1.372 . S
C3079 C3078 1.372 . S
C3079 C3080 1.400 . S
C3079 C3084 1.490 . S
C3080 H3070 0.930 . S
C3080 C3079 1.400 . S
C3080 C3083 1.386 . S
H3081 C3097 0.930 . S
H3082 C3098 0.931 . S
C3083 H3071 0.929 . S
C3083 C3077 1.390 . S
C3083 C3080 1.386 . S
C3084 C3079 1.490 . S
C3084 C3086 1.395 . S
C3084 C3087 1.403 . S
H3085 C3091 0.930 . S
C3086 H3072 0.930 . S
C3086 C3084 1.395 . S
C3086 C3089 1.403 . S
C3087 C3084 1.403 . S
C3087 C3088 1.524 . S
C3087 C3091 1.400 . S
C3088 H3073 0.960 . S
C3088 H3074 0.960 . S
C3088 H3075 0.960 . S
C3088 C3087 1.524 . S
C3089 C3086 1.403 . S
C3089 C3090 1.392 . S
C3089 C3093 1.495 . S
C3090 C3089 1.392 . S
C3090 C3091 1.385 . S
C3090 C3092 1.478 . S
C3091 H3085 0.930 . S
C3091 C3087 1.400 . S
C3091 C3090 1.385 . S
C3092 C3090 1.478 . S
C3092 C3094 1.381 . S
C3092 C3098 1.383 . S
C3093 C3089 1.495 . S
C3093 H3099 0.959 . S
C3093 H3100 0.961 . S
C3093 H3101 0.960 . S
C3094 C3092 1.381 . S
C3094 C3095 1.394 . S
C3094 H3102 0.930 . S
C3095 C3094 1.394 . S
C3095 C3096 1.383 . S
C3095 H3103 0.929 . S
C3096 C3095 1.383 . S
C3096 C3097 1.377 . S
C3097 H3081 0.930 . S
C3097 C3096 1.377 . S
C3097 C3098 1.379 . S
C3098 H3082 0.931 . S
C3098 C3092 1.383 . S
C3098 C3097 1.379 . S
H3099 C3093 0.959 . S
H3100 C3093 0.961 . S
H3101 C3093 0.960 . S
H3102 C3094 0.930 . S
H3103 C3095 0.929 . S
H3104 C3112 0.929 . S
H3105 C3114 0.930 . S
H3106 C3116 0.930 . S
H3107 C3119 0.929 . S
H3108 C3122 0.930 . S
H3109 C3124 0.960 . S
H3110 C3124 0.960 . S
H3111 C3124 0.960 . S
C3112 H3104 0.929 . S
C3112 C3113 1.377 . S
C3112 C3114 1.384 . S
C3113 C3112 1.377 . S
C3113 C3119 1.390 . S
C3114 H3105 0.930 . S
C3114 C3112 1.384 . S
C3114 C3115 1.372 . S
C3115 C3114 1.372 . S
C3115 C3116 1.400 . S
C3115 C3120 1.490 . S
C3116 H3106 0.930 . S
C3116 C3115 1.400 . S
C3116 C3119 1.386 . S
H3117 C3133 0.930 . S
H3118 C3134 0.931 . S
C3119 H3107 0.929 . S
C3119 C3113 1.390 . S
C3119 C3116 1.386 . S
C3120 C3115 1.490 . S
C3120 C3122 1.395 . S
C3120 C3123 1.403 . S
H3121 C3127 0.930 . S
C3122 H3108 0.930 . S
C3122 C3120 1.395 . S
C3122 C3125 1.403 . S
C3123 C3120 1.403 . S
C3123 C3124 1.524 . S
C3123 C3127 1.400 . S
C3124 H3109 0.960 . S
C3124 H3110 0.960 . S
C3124 H3111 0.960 . S
C3124 C3123 1.524 . S
C3125 C3122 1.403 . S
C3125 C3126 1.392 . S
C3125 C3129 1.495 . S
C3126 C3125 1.392 . S
C3126 C3127 1.385 . S
C3126 C3128 1.478 . S
C3127 H3121 0.930 . S
C3127 C3123 1.400 . S
C3127 C3126 1.385 . S
C3128 C3126 1.478 . S
C3128 C3130 1.381 . S
C3128 C3134 1.383 . S
C3129 C3125 1.495 . S
C3129 H3135 0.959 . S
C3129 H3136 0.961 . S
C3129 H3137 0.960 . S
C3130 C3128 1.381 . S
C3130 C3131 1.394 . S
C3130 H3138 0.930 . S
C3131 C3130 1.394 . S
C3131 C3132 1.383 . S
C3131 H3139 0.929 . S
C3132 C3131 1.383 . S
C3132 C3133 1.377 . S
C3133 H3117 0.930 . S
C3133 C3132 1.377 . S
C3133 C3134 1.379 . S
C3134 H3118 0.931 . S
C3134 C3128 1.383 . S
C3134 C3133 1.379 . S
H3135 C3129 0.959 . S
H3136 C3129 0.961 . S
H3137 C3129 0.960 . S
H3138 C3130 0.930 . S
H3139 C3131 0.929 . S
H3140 C3148 0.929 . S
H3141 C3150 0.930 . S
H3142 C3152 0.930 . S
H3143 C3155 0.929 . S
H3144 C3158 0.930 . S
H3145 C3160 0.960 . S
H3146 C3160 0.960 . S
H3147 C3160 0.960 . S
C3148 H3140 0.929 . S
C3148 C3149 1.377 . S
C3148 C3150 1.384 . S
C3149 C3148 1.377 . S
C3149 C3155 1.390 . S
C3150 H3141 0.930 . S
C3150 C3148 1.384 . S
C3150 C3151 1.372 . S
C3151 C3150 1.372 . S
C3151 C3152 1.400 . S
C3151 C3156 1.490 . S
C3152 H3142 0.930 . S
C3152 C3151 1.400 . S
C3152 C3155 1.386 . S
H3153 C3169 0.930 . S
H3154 C3170 0.931 . S
C3155 H3143 0.929 . S
C3155 C3149 1.390 . S
C3155 C3152 1.386 . S
C3156 C3151 1.490 . S
C3156 C3158 1.395 . S
C3156 C3159 1.403 . S
H3157 C3163 0.930 . S
C3158 H3144 0.930 . S
C3158 C3156 1.395 . S
C3158 C3161 1.403 . S
C3159 C3156 1.403 . S
C3159 C3160 1.524 . S
C3159 C3163 1.400 . S
C3160 H3145 0.960 . S
C3160 H3146 0.960 . S
C3160 H3147 0.960 . S
C3160 C3159 1.524 . S
C3161 C3158 1.403 . S
C3161 C3162 1.392 . S
C3161 C3165 1.495 . S
C3162 C3161 1.392 . S
C3162 C3163 1.385 . S
C3162 C3164 1.478 . S
C3163 H3157 0.930 . S
C3163 C3159 1.400 . S
C3163 C3162 1.385 . S
C3164 C3162 1.478 . S
C3164 C3166 1.381 . S
C3164 C3170 1.383 . S
C3165 C3161 1.495 . S
C3165 H3171 0.959 . S
C3165 H3172 0.961 . S
C3165 H3173 0.960 . S
C3166 C3164 1.381 . S
C3166 C3167 1.394 . S
C3166 H3174 0.930 . S
C3167 C3166 1.394 . S
C3167 C3168 1.383 . S
C3167 H3175 0.929 . S
C3168 C3167 1.383 . S
C3168 C3169 1.377 . S
C3169 H3153 0.930 . S
C3169 C3168 1.377 . S
C3169 C3170 1.379 . S
C3170 H3154 0.931 . S
C3170 C3164 1.383 . S
C3170 C3169 1.379 . S
H3171 C3165 0.959 . S
H3172 C3165 0.961 . S
H3173 C3165 0.960 . S
H3174 C3166 0.930 . S
H3175 C3167 0.929 . S
H3176 C3184 0.929 . S
H3177 C3186 0.930 . S
H3178 C3188 0.930 . S
H3179 C3191 0.929 . S
H3180 C3194 0.930 . S
H3181 C3196 0.960 . S
H3182 C3196 0.960 . S
H3183 C3196 0.960 . S
C3184 H3176 0.929 . S
C3184 C3185 1.377 1_556 S
C3184 C3186 1.384 . S
C3185 C3184 1.377 1_554 S
C3185 C3191 1.390 . S
C3186 H3177 0.930 . S
C3186 C3184 1.384 . S
C3186 C3187 1.372 . S
C3187 C3186 1.372 . S
C3187 C3188 1.400 . S
C3187 C3192 1.490 . S
C3188 H3178 0.930 . S
C3188 C3187 1.400 . S
C3188 C3191 1.386 1_556 S
H3189 C3205 0.930 . S
H3190 C3206 0.931 . S
C3191 H3179 0.929 . S
C3191 C3185 1.390 . S
C3191 C3188 1.386 1_554 S
C3192 C3187 1.490 . S
C3192 C3194 1.395 . S
C3192 C3195 1.403 . S
H3193 C3199 0.930 . S
C3194 H3180 0.930 . S
C3194 C3192 1.395 . S
C3194 C3197 1.403 . S
C3195 C3192 1.403 . S
C3195 C3196 1.524 . S
C3195 C3199 1.400 . S
C3196 H3181 0.960 . S
C3196 H3182 0.960 . S
C3196 H3183 0.960 . S
C3196 C3195 1.524 . S
C3197 C3194 1.403 . S
C3197 C3198 1.392 . S
C3197 C3201 1.495 . S
C3198 C3197 1.392 . S
C3198 C3199 1.385 . S
C3198 C3200 1.478 . S
C3199 H3193 0.930 . S
C3199 C3195 1.400 . S
C3199 C3198 1.385 . S
C3200 C3198 1.478 . S
C3200 C3202 1.381 . S
C3200 C3206 1.383 . S
C3201 C3197 1.495 . S
C3201 H3207 0.959 . S
C3201 H3208 0.961 . S
C3201 H3209 0.960 . S
C3202 C3200 1.381 . S
C3202 C3203 1.394 . S
C3202 H3210 0.930 . S
C3203 C3202 1.394 . S
C3203 C3204 1.383 . S
C3203 H3211 0.929 . S
C3204 C3203 1.383 . S
C3204 C3205 1.377 . S
C3205 H3189 0.930 . S
C3205 C3204 1.377 . S
C3205 C3206 1.379 . S
C3206 H3190 0.931 . S
C3206 C3200 1.383 . S
C3206 C3205 1.379 . S
H3207 C3201 0.959 . S
H3208 C3201 0.961 . S
H3209 C3201 0.960 . S
H3210 C3202 0.930 . S
H3211 C3203 0.929 . S
H3212 C3220 0.929 . S
H3213 C3222 0.930 . S
H3214 C3224 0.930 . S
H3215 C3227 0.929 . S
H3216 C3230 0.930 . S
H3217 C3232 0.960 . S
H3218 C3232 0.960 . S
H3219 C3232 0.960 . S
C3220 H3212 0.929 . S
C3220 C3221 1.377 . S
C3220 C3222 1.384 . S
C3221 C3220 1.377 . S
C3221 C3227 1.390 . S
C3222 H3213 0.930 . S
C3222 C3220 1.384 . S
C3222 C3223 1.372 . S
C3223 C3222 1.372 . S
C3223 C3224 1.400 . S
C3223 C3228 1.490 . S
C3224 H3214 0.930 . S
C3224 C3223 1.400 . S
C3224 C3227 1.386 . S
H3225 C3241 0.930 . S
H3226 C3242 0.931 . S
C3227 H3215 0.929 . S
C3227 C3221 1.390 . S
C3227 C3224 1.386 . S
C3228 C3223 1.490 . S
C3228 C3230 1.395 . S
C3228 C3231 1.403 . S
H3229 C3235 0.930 . S
C3230 H3216 0.930 . S
C3230 C3228 1.395 . S
C3230 C3233 1.403 . S
C3231 C3228 1.403 . S
C3231 C3232 1.524 . S
C3231 C3235 1.400 . S
C3232 H3217 0.960 . S
C3232 H3218 0.960 . S
C3232 H3219 0.960 . S
C3232 C3231 1.524 . S
C3233 C3230 1.403 . S
C3233 C3234 1.392 . S
C3233 C3237 1.495 . S
C3234 C3233 1.392 . S
C3234 C3235 1.385 . S
C3234 C3236 1.478 . S
C3235 H3229 0.930 . S
C3235 C3231 1.400 . S
C3235 C3234 1.385 . S
C3236 C3234 1.478 . S
C3236 C3238 1.381 . S
C3236 C3242 1.383 . S
C3237 C3233 1.495 . S
C3237 H3243 0.959 . S
C3237 H3244 0.961 . S
C3237 H3245 0.960 . S
C3238 C3236 1.381 . S
C3238 C3239 1.394 1_556 S
C3238 H3246 0.930 . S
C3239 C3238 1.394 1_554 S
C3239 C3240 1.383 . S
C3239 H3247 0.929 . S
C3240 C3239 1.383 . S
C3240 C3241 1.377 1_554 S
C3241 H3225 0.930 . S
C3241 C3240 1.377 1_556 S
C3241 C3242 1.379 . S
C3242 H3226 0.931 . S
C3242 C3236 1.383 . S
C3242 C3241 1.379 . S
H3243 C3237 0.959 . S
H3244 C3237 0.961 . S
H3245 C3237 0.960 . S
H3246 C3238 0.930 . S
H3247 C3239 0.929 . S
H3248 C3256 0.929 . S
H3249 C3258 0.930 . S
H3250 C3260 0.930 . S
H3251 C3263 0.929 . S
H3252 C3266 0.930 . S
H3253 C3268 0.960 . S
H3254 C3268 0.960 . S
H3255 C3268 0.960 . S
C3256 H3248 0.929 . S
C3256 C3257 1.377 . S
C3256 C3258 1.384 . S
C3257 C3256 1.377 . S
C3257 C3263 1.390 . S
C3258 H3249 0.930 . S
C3258 C3256 1.384 . S
C3258 C3259 1.372 . S
C3259 C3258 1.372 . S
C3259 C3260 1.400 . S
C3259 C3264 1.490 . S
C3260 H3250 0.930 . S
C3260 C3259 1.400 . S
C3260 C3263 1.386 . S
H3261 C3277 0.930 . S
H3262 C3278 0.931 . S
C3263 H3251 0.929 . S
C3263 C3257 1.390 . S
C3263 C3260 1.386 . S
C3264 C3259 1.490 . S
C3264 C3266 1.395 . S
C3264 C3267 1.403 . S
H3265 C3271 0.930 . S
C3266 H3252 0.930 . S
C3266 C3264 1.395 . S
C3266 C3269 1.403 . S
C3267 C3264 1.403 . S
C3267 C3268 1.524 . S
C3267 C3271 1.400 . S
C3268 H3253 0.960 . S
C3268 H3254 0.960 . S
C3268 H3255 0.960 . S
C3268 C3267 1.524 . S
C3269 C3266 1.403 . S
C3269 C3270 1.392 . S
C3269 C3273 1.495 . S
C3270 C3269 1.392 . S
C3270 C3271 1.385 . S
C3270 C3272 1.478 . S
C3271 H3265 0.930 . S
C3271 C3267 1.400 . S
C3271 C3270 1.385 . S
C3272 C3270 1.478 . S
C3272 C3274 1.381 . S
C3272 C3278 1.383 . S
C3273 C3269 1.495 . S
C3273 H3279 0.959 . S
C3273 H3280 0.961 . S
C3273 H3281 0.960 . S
C3274 C3272 1.381 . S
C3274 C3275 1.394 . S
C3274 H3282 0.930 . S
C3275 C3274 1.394 . S
C3275 C3276 1.383 . S
C3275 H3283 0.929 . S
C3276 C3275 1.383 . S
C3276 C3277 1.377 . S
C3277 H3261 0.930 . S
C3277 C3276 1.377 . S
C3277 C3278 1.379 . S
C3278 H3262 0.931 . S
C3278 C3272 1.383 . S
C3278 C3277 1.379 . S
H3279 C3273 0.959 . S
H3280 C3273 0.961 . S
H3281 C3273 0.960 . S
H3282 C3274 0.930 . S
H3283 C3275 0.929 . S
H3284 C3292 0.929 . S
H3285 C3294 0.930 . S
H3286 C3296 0.930 . S
H3287 C3299 0.929 . S
H3288 C3302 0.930 . S
H3289 C3304 0.960 . S
H3290 C3304 0.960 . S
H3291 C3304 0.960 . S
C3292 H3284 0.929 . S
C3292 C3293 1.377 . S
C3292 C3294 1.384 . S
C3293 C3292 1.377 . S
C3293 C3299 1.390 . S
C3294 H3285 0.930 . S
C3294 C3292 1.384 . S
C3294 C3295 1.372 . S
C3295 C3294 1.372 . S
C3295 C3296 1.400 . S
C3295 C3300 1.490 . S
C3296 H3286 0.930 . S
C3296 C3295 1.400 . S
C3296 C3299 1.386 . S
H3297 C3313 0.930 . S
H3298 C3314 0.931 . S
C3299 H3287 0.929 . S
C3299 C3293 1.390 . S
C3299 C3296 1.386 . S
C3300 C3295 1.490 . S
C3300 C3302 1.395 . S
C3300 C3303 1.403 . S
H3301 C3307 0.930 . S
C3302 H3288 0.930 . S
C3302 C3300 1.395 . S
C3302 C3305 1.403 . S
C3303 C3300 1.403 . S
C3303 C3304 1.524 . S
C3303 C3307 1.400 . S
C3304 H3289 0.960 . S
C3304 H3290 0.960 . S
C3304 H3291 0.960 . S
C3304 C3303 1.524 . S
C3305 C3302 1.403 . S
C3305 C3306 1.392 . S
C3305 C3309 1.495 . S
C3306 C3305 1.392 . S
C3306 C3307 1.385 . S
C3306 C3308 1.478 . S
C3307 H3301 0.930 . S
C3307 C3303 1.400 . S
C3307 C3306 1.385 . S
C3308 C3306 1.478 . S
C3308 C3310 1.381 . S
C3308 C3314 1.383 . S
C3309 C3305 1.495 . S
C3309 H3315 0.959 . S
C3309 H3316 0.961 . S
C3309 H3317 0.960 . S
C3310 C3308 1.381 . S
C3310 C3311 1.394 . S
C3310 H3318 0.930 . S
C3311 C3310 1.394 . S
C3311 C3312 1.383 . S
C3311 H3319 0.929 . S
C3312 C3311 1.383 . S
C3312 C3313 1.377 . S
C3313 H3297 0.930 . S
C3313 C3312 1.377 . S
C3313 C3314 1.379 . S
C3314 H3298 0.931 . S
C3314 C3308 1.383 . S
C3314 C3313 1.379 . S
H3315 C3309 0.959 . S
H3316 C3309 0.961 . S
H3317 C3309 0.960 . S
H3318 C3310 0.930 . S
H3319 C3311 0.929 . S
H3320 C3328 0.929 . S
H3321 C3330 0.930 . S
H3322 C3332 0.930 . S
H3323 C3335 0.929 . S
H3324 C3338 0.930 . S
H3325 C3340 0.960 . S
H3326 C3340 0.960 . S
H3327 C3340 0.960 . S
C3328 H3320 0.929 . S
C3328 C3329 1.377 . S
C3328 C3330 1.384 . S
C3329 C3328 1.377 . S
C3329 C3335 1.390 . S
C3330 H3321 0.930 . S
C3330 C3328 1.384 . S
C3330 C3331 1.372 . S
C3331 C3330 1.372 . S
C3331 C3332 1.400 . S
C3331 C3336 1.490 . S
C3332 H3322 0.930 . S
C3332 C3331 1.400 . S
C3332 C3335 1.386 . S
H3333 C3349 0.930 . S
H3334 C3350 0.931 . S
C3335 H3323 0.929 . S
C3335 C3329 1.390 . S
C3335 C3332 1.386 . S
C3336 C3331 1.490 . S
C3336 C3338 1.395 . S
C3336 C3339 1.403 . S
H3337 C3343 0.930 . S
C3338 H3324 0.930 . S
C3338 C3336 1.395 . S
C3338 C3341 1.403 . S
C3339 C3336 1.403 . S
C3339 C3340 1.524 . S
C3339 C3343 1.400 . S
C3340 H3325 0.960 . S
C3340 H3326 0.960 . S
C3340 H3327 0.960 . S
C3340 C3339 1.524 . S
C3341 C3338 1.403 . S
C3341 C3342 1.392 . S
C3341 C3345 1.495 . S
C3342 C3341 1.392 . S
C3342 C3343 1.385 . S
C3342 C3344 1.478 . S
C3343 H3337 0.930 . S
C3343 C3339 1.400 . S
C3343 C3342 1.385 . S
C3344 C3342 1.478 . S
C3344 C3346 1.381 . S
C3344 C3350 1.383 . S
C3345 C3341 1.495 . S
C3345 H3351 0.959 . S
C3345 H3352 0.961 . S
C3345 H3353 0.960 . S
C3346 C3344 1.381 . S
C3346 C3347 1.394 1_554 S
C3346 H3354 0.930 . S
C3347 C3346 1.394 1_556 S
C3347 C3348 1.383 . S
C3347 H3355 0.929 . S
C3348 C3347 1.383 . S
C3348 C3349 1.377 1_556 S
C3349 H3333 0.930 . S
C3349 C3348 1.377 1_554 S
C3349 C3350 1.379 . S
C3350 H3334 0.931 . S
C3350 C3344 1.383 . S
C3350 C3349 1.379 . S
H3351 C3345 0.959 . S
H3352 C3345 0.961 . S
H3353 C3345 0.960 . S
H3354 C3346 0.930 . S
H3355 C3347 0.929 . S
H3356 C3364 0.929 . S
H3357 C3366 0.930 . S
H3358 C3368 0.930 . S
H3359 C3371 0.929 . S
H3360 C3374 0.930 . S
H3361 C3376 0.960 . S
H3362 C3376 0.960 . S
H3363 C3376 0.960 . S
C3364 H3356 0.929 . S
C3364 C3365 1.377 . S
C3364 C3366 1.384 . S
C3365 C3364 1.377 . S
C3365 C3371 1.390 . S
C3366 H3357 0.930 . S
C3366 C3364 1.384 . S
C3366 C3367 1.372 . S
C3367 C3366 1.372 . S
C3367 C3368 1.400 . S
C3367 C3372 1.490 . S
C3368 H3358 0.930 . S
C3368 C3367 1.400 . S
C3368 C3371 1.386 . S
H3369 C3385 0.930 . S
H3370 C3386 0.931 . S
C3371 H3359 0.929 . S
C3371 C3365 1.390 . S
C3371 C3368 1.386 . S
C3372 C3367 1.490 . S
C3372 C3374 1.395 . S
C3372 C3375 1.403 . S
H3373 C3379 0.930 . S
C3374 H3360 0.930 . S
C3374 C3372 1.395 . S
C3374 C3377 1.403 . S
C3375 C3372 1.403 . S
C3375 C3376 1.524 . S
C3375 C3379 1.400 . S
C3376 H3361 0.960 . S
C3376 H3362 0.960 . S
C3376 H3363 0.960 . S
C3376 C3375 1.524 . S
C3377 C3374 1.403 . S
C3377 C3378 1.392 . S
C3377 C3381 1.495 . S
C3378 C3377 1.392 . S
C3378 C3379 1.385 . S
C3378 C3380 1.478 . S
C3379 H3373 0.930 . S
C3379 C3375 1.400 . S
C3379 C3378 1.385 . S
C3380 C3378 1.478 . S
C3380 C3382 1.381 . S
C3380 C3386 1.383 . S
C3381 C3377 1.495 . S
C3381 H3387 0.959 . S
C3381 H3388 0.961 . S
C3381 H3389 0.960 . S
C3382 C3380 1.381 . S
C3382 C3383 1.394 1_554 S
C3382 H3390 0.930 . S
C3383 C3382 1.394 1_556 S
C3383 C3384 1.383 . S
C3383 H3391 0.929 . S
C3384 C3383 1.383 . S
C3384 C3385 1.377 1_556 S
C3385 H3369 0.930 . S
C3385 C3384 1.377 1_554 S
C3385 C3386 1.379 . S
C3386 H3370 0.931 . S
C3386 C3380 1.383 . S
C3386 C3385 1.379 . S
H3387 C3381 0.959 . S
H3388 C3381 0.961 . S
H3389 C3381 0.960 . S
H3390 C3382 0.930 . S
H3391 C3383 0.929 . S
H3392 C3400 0.929 . S
H3393 C3402 0.930 . S
H3394 C3404 0.930 . S
H3395 C3407 0.929 . S
H3396 C3410 0.930 . S
H3397 C3412 0.960 . S
H3398 C3412 0.960 . S
H3399 C3412 0.960 . S
C3400 H3392 0.929 . S
C3400 C3401 1.377 . S
C3400 C3402 1.384 . S
C3401 C3400 1.377 . S
C3401 C3407 1.390 . S
C3402 H3393 0.930 . S
C3402 C3400 1.384 . S
C3402 C3403 1.372 . S
C3403 C3402 1.372 . S
C3403 C3404 1.400 . S
C3403 C3408 1.490 . S
C3404 H3394 0.930 . S
C3404 C3403 1.400 . S
C3404 C3407 1.386 . S
H3405 C3421 0.930 . S
H3406 C3422 0.931 . S
C3407 H3395 0.929 . S
C3407 C3401 1.390 . S
C3407 C3404 1.386 . S
C3408 C3403 1.490 . S
C3408 C3410 1.395 . S
C3408 C3411 1.403 . S
H3409 C3415 0.930 . S
C3410 H3396 0.930 . S
C3410 C3408 1.395 . S
C3410 C3413 1.403 . S
C3411 C3408 1.403 . S
C3411 C3412 1.524 . S
C3411 C3415 1.400 . S
C3412 H3397 0.960 . S
C3412 H3398 0.960 . S
C3412 H3399 0.960 . S
C3412 C3411 1.524 . S
C3413 C3410 1.403 . S
C3413 C3414 1.392 . S
C3413 C3417 1.495 . S
C3414 C3413 1.392 . S
C3414 C3415 1.385 . S
C3414 C3416 1.478 . S
C3415 H3409 0.930 . S
C3415 C3411 1.400 . S
C3415 C3414 1.385 . S
C3416 C3414 1.478 . S
C3416 C3418 1.381 . S
C3416 C3422 1.383 . S
C3417 C3413 1.495 . S
C3417 H3423 0.959 . S
C3417 H3424 0.961 . S
C3417 H3425 0.960 . S
C3418 C3416 1.381 . S
C3418 C3419 1.394 . S
C3418 H3426 0.930 . S
C3419 C3418 1.394 . S
C3419 C3420 1.383 . S
C3419 H3427 0.929 . S
C3420 C3419 1.383 . S
C3420 C3421 1.377 . S
C3421 H3405 0.930 . S
C3421 C3420 1.377 . S
C3421 C3422 1.379 . S
C3422 H3406 0.931 . S
C3422 C3416 1.383 . S
C3422 C3421 1.379 . S
H3423 C3417 0.959 . S
H3424 C3417 0.961 . S
H3425 C3417 0.960 . S
H3426 C3418 0.930 . S
H3427 C3419 0.929 . S
H3428 C3436 0.929 . S
H3429 C3438 0.930 . S
H3430 C3440 0.930 . S
H3431 C3443 0.929 . S
H3432 C3446 0.930 . S
H3433 C3448 0.960 . S
H3434 C3448 0.960 . S
H3435 C3448 0.960 . S
C3436 H3428 0.929 . S
C3436 C3437 1.377 . S
C3436 C3438 1.384 . S
C3437 C3436 1.377 . S
C3437 C3443 1.390 . S
C3438 H3429 0.930 . S
C3438 C3436 1.384 . S
C3438 C3439 1.372 . S
C3439 C3438 1.372 . S
C3439 C3440 1.400 . S
C3439 C3444 1.490 . S
C3440 H3430 0.930 . S
C3440 C3439 1.400 . S
C3440 C3443 1.386 . S
H3441 C3457 0.930 . S
H3442 C3458 0.931 . S
C3443 H3431 0.929 . S
C3443 C3437 1.390 . S
C3443 C3440 1.386 . S
C3444 C3439 1.490 . S
C3444 C3446 1.395 . S
C3444 C3447 1.403 . S
H3445 C3451 0.930 . S
C3446 H3432 0.930 . S
C3446 C3444 1.395 . S
C3446 C3449 1.403 . S
C3447 C3444 1.403 . S
C3447 C3448 1.524 . S
C3447 C3451 1.400 . S
C3448 H3433 0.960 . S
C3448 H3434 0.960 . S
C3448 H3435 0.960 . S
C3448 C3447 1.524 . S
C3449 C3446 1.403 . S
C3449 C3450 1.392 . S
C3449 C3453 1.495 . S
C3450 C3449 1.392 . S
C3450 C3451 1.385 . S
C3450 C3452 1.478 . S
C3451 H3445 0.930 . S
C3451 C3447 1.400 . S
C3451 C3450 1.385 . S
C3452 C3450 1.478 . S
C3452 C3454 1.381 . S
C3452 C3458 1.383 . S
C3453 C3449 1.495 . S
C3453 H3459 0.959 . S
C3453 H3460 0.961 . S
C3453 H3461 0.960 . S
C3454 C3452 1.381 . S
C3454 C3455 1.394 . S
C3454 H3462 0.930 . S
C3455 C3454 1.394 . S
C3455 C3456 1.383 . S
C3455 H3463 0.929 . S
C3456 C3455 1.383 . S
C3456 C3457 1.377 . S
C3457 H3441 0.930 . S
C3457 C3456 1.377 . S
C3457 C3458 1.379 . S
C3458 H3442 0.931 . S
C3458 C3452 1.383 . S
C3458 C3457 1.379 . S
H3459 C3453 0.959 . S
H3460 C3453 0.961 . S
H3461 C3453 0.960 . S
H3462 C3454 0.930 . S
H3463 C3455 0.929 . S
H3464 C3472 0.929 . S
H3465 C3474 0.930 . S
H3466 C3476 0.930 . S
H3467 C3479 0.929 . S
H3468 C3482 0.930 . S
H3469 C3484 0.960 . S
H3470 C3484 0.960 . S
H3471 C3484 0.960 . S
C3472 H3464 0.929 . S
C3472 C3473 1.377 . S
C3472 C3474 1.384 . S
C3473 C3472 1.377 . S
C3473 C3479 1.390 . S
C3474 H3465 0.930 . S
C3474 C3472 1.384 . S
C3474 C3475 1.372 . S
C3475 C3474 1.372 . S
C3475 C3476 1.400 . S
C3475 C3480 1.490 . S
C3476 H3466 0.930 . S
C3476 C3475 1.400 . S
C3476 C3479 1.386 . S
H3477 C3493 0.930 . S
H3478 C3494 0.931 . S
C3479 H3467 0.929 . S
C3479 C3473 1.390 . S
C3479 C3476 1.386 . S
C3480 C3475 1.490 . S
C3480 C3482 1.395 . S
C3480 C3483 1.403 . S
H3481 C3487 0.930 . S
C3482 H3468 0.930 . S
C3482 C3480 1.395 . S
C3482 C3485 1.403 . S
C3483 C3480 1.403 . S
C3483 C3484 1.524 . S
C3483 C3487 1.400 . S
C3484 H3469 0.960 . S
C3484 H3470 0.960 . S
C3484 H3471 0.960 . S
C3484 C3483 1.524 . S
C3485 C3482 1.403 . S
C3485 C3486 1.392 . S
C3485 C3489 1.495 . S
C3486 C3485 1.392 . S
C3486 C3487 1.385 . S
C3486 C3488 1.478 . S
C3487 H3481 0.930 . S
C3487 C3483 1.400 . S
C3487 C3486 1.385 . S
C3488 C3486 1.478 . S
C3488 C3490 1.381 . S
C3488 C3494 1.383 . S
C3489 C3485 1.495 . S
C3489 H3495 0.959 . S
C3489 H3496 0.961 . S
C3489 H3497 0.960 . S
C3490 C3488 1.381 . S
C3490 C3491 1.394 . S
C3490 H3498 0.930 . S
C3491 C3490 1.394 . S
C3491 C3492 1.383 . S
C3491 H3499 0.929 . S
C3492 C3491 1.383 . S
C3492 C3493 1.377 . S
C3493 H3477 0.930 . S
C3493 C3492 1.377 . S
C3493 C3494 1.379 . S
C3494 H3478 0.931 . S
C3494 C3488 1.383 . S
C3494 C3493 1.379 . S
H3495 C3489 0.959 . S
H3496 C3489 0.961 . S
H3497 C3489 0.960 . S
H3498 C3490 0.930 . S
H3499 C3491 0.929 . S
H3500 C3508 0.929 . S
H3501 C3510 0.930 . S
H3502 C3512 0.930 . S
H3503 C3515 0.929 . S
H3504 C3518 0.930 . S
H3505 C3520 0.960 . S
H3506 C3520 0.960 . S
H3507 C3520 0.960 . S
C3508 H3500 0.929 . S
C3508 C3509 1.377 . S
C3508 C3510 1.384 . S
C3509 C3508 1.377 . S
C3509 C3515 1.390 . S
C3510 H3501 0.930 . S
C3510 C3508 1.384 . S
C3510 C3511 1.372 . S
C3511 C3510 1.372 . S
C3511 C3512 1.400 . S
C3511 C3516 1.490 . S
C3512 H3502 0.930 . S
C3512 C3511 1.400 . S
C3512 C3515 1.386 . S
H3513 C3529 0.930 . S
H3514 C3530 0.931 . S
C3515 H3503 0.929 . S
C3515 C3509 1.390 . S
C3515 C3512 1.386 . S
C3516 C3511 1.490 . S
C3516 C3518 1.395 . S
C3516 C3519 1.403 . S
H3517 C3523 0.930 . S
C3518 H3504 0.930 . S
C3518 C3516 1.395 . S
C3518 C3521 1.403 . S
C3519 C3516 1.403 . S
C3519 C3520 1.524 . S
C3519 C3523 1.400 . S
C3520 H3505 0.960 . S
C3520 H3506 0.960 . S
C3520 H3507 0.960 . S
C3520 C3519 1.524 . S
C3521 C3518 1.403 . S
C3521 C3522 1.392 . S
C3521 C3525 1.495 . S
C3522 C3521 1.392 . S
C3522 C3523 1.385 . S
C3522 C3524 1.478 . S
C3523 H3517 0.930 . S
C3523 C3519 1.400 . S
C3523 C3522 1.385 . S
C3524 C3522 1.478 . S
C3524 C3526 1.381 . S
C3524 C3530 1.383 . S
C3525 C3521 1.495 . S
C3525 H3531 0.959 . S
C3525 H3532 0.961 . S
C3525 H3533 0.960 . S
C3526 C3524 1.381 . S
C3526 C3527 1.394 . S
C3526 H3534 0.930 . S
C3527 C3526 1.394 . S
C3527 C3528 1.383 . S
C3527 H3535 0.929 . S
C3528 C3527 1.383 . S
C3528 C3529 1.377 . S
C3529 H3513 0.930 . S
C3529 C3528 1.377 . S
C3529 C3530 1.379 . S
C3530 H3514 0.931 . S
C3530 C3524 1.383 . S
C3530 C3529 1.379 . S
H3531 C3525 0.959 . S
H3532 C3525 0.961 . S
H3533 C3525 0.960 . S
H3534 C3526 0.930 . S
H3535 C3527 0.929 . S
H3536 C3544 0.929 . S
H3537 C3546 0.930 . S
H3538 C3548 0.930 . S
H3539 C3551 0.929 . S
H3540 C3554 0.930 . S
H3541 C3556 0.960 . S
H3542 C3556 0.960 1_545 S
H3543 C3556 0.960 . S
C3544 H3536 0.929 . S
C3544 C3545 1.377 . S
C3544 C3546 1.384 . S
C3545 C3544 1.377 . S
C3545 C3551 1.390 . S
C3546 H3537 0.930 . S
C3546 C3544 1.384 . S
C3546 C3547 1.372 . S
C3547 C3546 1.372 . S
C3547 C3548 1.400 . S
C3547 C3552 1.490 . S
C3548 H3538 0.930 . S
C3548 C3547 1.400 . S
C3548 C3551 1.386 . S
H3549 C3565 0.930 . S
H3550 C3566 0.931 . S
C3551 H3539 0.929 . S
C3551 C3545 1.390 . S
C3551 C3548 1.386 . S
C3552 C3547 1.490 . S
C3552 C3554 1.395 . S
C3552 C3555 1.403 . S
H3553 C3559 0.930 . S
C3554 H3540 0.930 . S
C3554 C3552 1.395 . S
C3554 C3557 1.403 . S
C3555 C3552 1.403 . S
C3555 C3556 1.524 . S
C3555 C3559 1.400 . S
C3556 H3541 0.960 . S
C3556 H3542 0.960 1_565 S
C3556 H3543 0.960 . S
C3556 C3555 1.524 . S
C3557 C3554 1.403 . S
C3557 C3558 1.392 . S
C3557 C3561 1.495 . S
C3558 C3557 1.392 . S
C3558 C3559 1.385 . S
C3558 C3560 1.478 . S
C3559 H3553 0.930 . S
C3559 C3555 1.400 . S
C3559 C3558 1.385 . S
C3560 C3558 1.478 . S
C3560 C3562 1.381 . S
C3560 C3566 1.383 . S
C3561 C3557 1.495 . S
C3561 H3567 0.959 . S
C3561 H3568 0.961 . S
C3561 H3569 0.960 . S
C3562 C3560 1.381 . S
C3562 C3563 1.394 . S
C3562 H3570 0.930 . S
C3563 C3562 1.394 . S
C3563 C3564 1.383 . S
C3563 H3571 0.929 . S
C3564 C3563 1.383 . S
C3564 C3565 1.377 . S
C3565 H3549 0.930 . S
C3565 C3564 1.377 . S
C3565 C3566 1.379 . S
C3566 H3550 0.931 . S
C3566 C3560 1.383 . S
C3566 C3565 1.379 . S
H3567 C3561 0.959 . S
H3568 C3561 0.961 . S
H3569 C3561 0.960 . S
H3570 C3562 0.930 . S
H3571 C3563 0.929 . S
H3572 C3580 0.929 . S
H3573 C3582 0.930 . S
H3574 C3584 0.930 . S
H3575 C3587 0.929 . S
H3576 C3590 0.930 . S
H3577 C3592 0.960 . S
H3578 C3592 0.960 . S
H3579 C3592 0.960 . S
C3580 H3572 0.929 . S
C3580 C3581 1.377 . S
C3580 C3582 1.384 . S
C3581 C3580 1.377 . S
C3581 C3587 1.390 . S
C3582 H3573 0.930 . S
C3582 C3580 1.384 . S
C3582 C3583 1.372 . S
C3583 C3582 1.372 . S
C3583 C3584 1.400 . S
C3583 C3588 1.490 . S
C3584 H3574 0.930 . S
C3584 C3583 1.400 . S
C3584 C3587 1.386 . S
H3585 C3601 0.930 . S
H3586 C3602 0.931 . S
C3587 H3575 0.929 . S
C3587 C3581 1.390 . S
C3587 C3584 1.386 . S
C3588 C3583 1.490 . S
C3588 C3590 1.395 . S
C3588 C3591 1.403 . S
H3589 C3595 0.930 . S
C3590 H3576 0.930 . S
C3590 C3588 1.395 . S
C3590 C3593 1.403 . S
C3591 C3588 1.403 . S
C3591 C3592 1.524 . S
C3591 C3595 1.400 . S
C3592 H3577 0.960 . S
C3592 H3578 0.960 . S
C3592 H3579 0.960 . S
C3592 C3591 1.524 . S
C3593 C3590 1.403 . S
C3593 C3594 1.392 . S
C3593 C3597 1.495 . S
C3594 C3593 1.392 . S
C3594 C3595 1.385 . S
C3594 C3596 1.478 . S
C3595 H3589 0.930 . S
C3595 C3591 1.400 . S
C3595 C3594 1.385 . S
C3596 C3594 1.478 . S
C3596 C3598 1.381 . S
C3596 C3602 1.383 . S
C3597 C3593 1.495 . S
C3597 H3603 0.959 . S
C3597 H3604 0.961 . S
C3597 H3605 0.960 . S
C3598 C3596 1.381 . S
C3598 C3599 1.394 . S
C3598 H3606 0.930 . S
C3599 C3598 1.394 . S
C3599 C3600 1.383 . S
C3599 H3607 0.929 . S
C3600 C3599 1.383 . S
C3600 C3601 1.377 . S
C3601 H3585 0.930 . S
C3601 C3600 1.377 . S
C3601 C3602 1.379 . S
C3602 H3586 0.931 . S
C3602 C3596 1.383 . S
C3602 C3601 1.379 . S
H3603 C3597 0.959 . S
H3604 C3597 0.961 . S
H3605 C3597 0.960 . S
H3606 C3598 0.930 . S
H3607 C3599 0.929 . S
H3608 C3616 0.929 . S
H3609 C3618 0.930 . S
H3610 C3620 0.930 . S
H3611 C3623 0.929 . S
H3612 C3626 0.930 . S
H3613 C3628 0.960 . S
H3614 C3628 0.960 . S
H3615 C3628 0.960 . S
C3616 H3608 0.929 . S
C3616 C3617 1.377 . S
C3616 C3618 1.384 . S
C3617 C3616 1.377 . S
C3617 C3623 1.390 . S
C3618 H3609 0.930 . S
C3618 C3616 1.384 . S
C3618 C3619 1.372 . S
C3619 C3618 1.372 . S
C3619 C3620 1.400 . S
C3619 C3624 1.490 . S
C3620 H3610 0.930 . S
C3620 C3619 1.400 . S
C3620 C3623 1.386 . S
H3621 C3637 0.930 . S
H3622 C3638 0.931 . S
C3623 H3611 0.929 . S
C3623 C3617 1.390 . S
C3623 C3620 1.386 . S
C3624 C3619 1.490 . S
C3624 C3626 1.395 . S
C3624 C3627 1.403 . S
H3625 C3631 0.930 . S
C3626 H3612 0.930 . S
C3626 C3624 1.395 . S
C3626 C3629 1.403 . S
C3627 C3624 1.403 . S
C3627 C3628 1.524 . S
C3627 C3631 1.400 . S
C3628 H3613 0.960 . S
C3628 H3614 0.960 . S
C3628 H3615 0.960 . S
C3628 C3627 1.524 . S
C3629 C3626 1.403 . S
C3629 C3630 1.392 . S
C3629 C3633 1.495 . S
C3630 C3629 1.392 . S
C3630 C3631 1.385 . S
C3630 C3632 1.478 . S
C3631 H3625 0.930 . S
C3631 C3627 1.400 . S
C3631 C3630 1.385 . S
C3632 C3630 1.478 . S
C3632 C3634 1.381 . S
C3632 C3638 1.383 . S
C3633 C3629 1.495 . S
C3633 H3639 0.959 . S
C3633 H3640 0.961 . S
C3633 H3641 0.960 . S
C3634 C3632 1.381 . S
C3634 C3635 1.394 . S
C3634 H3642 0.930 . S
C3635 C3634 1.394 . S
C3635 C3636 1.383 . S
C3635 H3643 0.929 . S
C3636 C3635 1.383 . S
C3636 C3637 1.377 . S
C3637 H3621 0.930 . S
C3637 C3636 1.377 . S
C3637 C3638 1.379 . S
C3638 H3622 0.931 . S
C3638 C3632 1.383 . S
C3638 C3637 1.379 . S
H3639 C3633 0.959 . S
H3640 C3633 0.961 . S
H3641 C3633 0.960 . S
H3642 C3634 0.930 . S
H3643 C3635 0.929 . S
H3644 C3652 0.929 . S
H3645 C3654 0.930 . S
H3646 C3656 0.930 . S
H3647 C3659 0.929 . S
H3648 C3662 0.930 . S
H3649 C3664 0.960 . S
H3650 C3664 0.960 . S
H3651 C3664 0.960 . S
C3652 H3644 0.929 . S
C3652 C3653 1.377 . S
C3652 C3654 1.384 . S
C3653 C3652 1.377 . S
C3653 C3659 1.390 . S
C3654 H3645 0.930 . S
C3654 C3652 1.384 . S
C3654 C3655 1.372 . S
C3655 C3654 1.372 . S
C3655 C3656 1.400 . S
C3655 C3660 1.490 . S
C3656 H3646 0.930 . S
C3656 C3655 1.400 . S
C3656 C3659 1.386 . S
H3657 C3673 0.930 . S
H3658 C3674 0.931 . S
C3659 H3647 0.929 . S
C3659 C3653 1.390 . S
C3659 C3656 1.386 . S
C3660 C3655 1.490 . S
C3660 C3662 1.395 . S
C3660 C3663 1.403 . S
H3661 C3667 0.930 . S
C3662 H3648 0.930 . S
C3662 C3660 1.395 . S
C3662 C3665 1.403 . S
C3663 C3660 1.403 . S
C3663 C3664 1.524 . S
C3663 C3667 1.400 . S
C3664 H3649 0.960 . S
C3664 H3650 0.960 . S
C3664 H3651 0.960 . S
C3664 C3663 1.524 . S
C3665 C3662 1.403 . S
C3665 C3666 1.392 . S
C3665 C3669 1.495 . S
C3666 C3665 1.392 . S
C3666 C3667 1.385 . S
C3666 C3668 1.478 . S
C3667 H3661 0.930 . S
C3667 C3663 1.400 . S
C3667 C3666 1.385 . S
C3668 C3666 1.478 . S
C3668 C3670 1.381 . S
C3668 C3674 1.383 . S
C3669 C3665 1.495 . S
C3669 H3675 0.959 . S
C3669 H3676 0.961 . S
C3669 H3677 0.960 . S
C3670 C3668 1.381 . S
C3670 C3671 1.394 . S
C3670 H3678 0.930 . S
C3671 C3670 1.394 . S
C3671 C3672 1.383 . S
C3671 H3679 0.929 . S
C3672 C3671 1.383 . S
C3672 C3673 1.377 . S
C3673 H3657 0.930 . S
C3673 C3672 1.377 . S
C3673 C3674 1.379 . S
C3674 H3658 0.931 . S
C3674 C3668 1.383 . S
C3674 C3673 1.379 . S
H3675 C3669 0.959 . S
H3676 C3669 0.961 . S
H3677 C3669 0.960 . S
H3678 C3670 0.930 . S
H3679 C3671 0.929 . S
H3680 C3688 0.929 . S
H3681 C3690 0.930 . S
H3682 C3692 0.930 . S
H3683 C3695 0.929 . S
H3684 C3698 0.930 . S
H3685 C3700 0.960 . S
H3686 C3700 0.960 . S
H3687 C3700 0.960 . S
C3688 H3680 0.929 . S
C3688 C3689 1.377 . S
C3688 C3690 1.384 . S
C3689 C3688 1.377 . S
C3689 C3695 1.390 . S
C3690 H3681 0.930 . S
C3690 C3688 1.384 . S
C3690 C3691 1.372 . S
C3691 C3690 1.372 . S
C3691 C3692 1.400 . S
C3691 C3696 1.490 . S
C3692 H3682 0.930 . S
C3692 C3691 1.400 . S
C3692 C3695 1.386 . S
H3693 C3709 0.930 . S
H3694 C3710 0.931 . S
C3695 H3683 0.929 . S
C3695 C3689 1.390 . S
C3695 C3692 1.386 . S
C3696 C3691 1.490 . S
C3696 C3698 1.395 . S
C3696 C3699 1.403 . S
H3697 C3703 0.930 . S
C3698 H3684 0.930 . S
C3698 C3696 1.395 . S
C3698 C3701 1.403 . S
C3699 C3696 1.403 . S
C3699 C3700 1.524 . S
C3699 C3703 1.400 . S
C3700 H3685 0.960 . S
C3700 H3686 0.960 . S
C3700 H3687 0.960 . S
C3700 C3699 1.524 . S
C3701 C3698 1.403 . S
C3701 C3702 1.392 . S
C3701 C3705 1.495 . S
C3702 C3701 1.392 . S
C3702 C3703 1.385 . S
C3702 C3704 1.478 . S
C3703 H3697 0.930 . S
C3703 C3699 1.400 . S
C3703 C3702 1.385 . S
C3704 C3702 1.478 . S
C3704 C3706 1.381 . S
C3704 C3710 1.383 . S
C3705 C3701 1.495 . S
C3705 H3711 0.959 . S
C3705 H3712 0.961 . S
C3705 H3713 0.960 . S
C3706 C3704 1.381 . S
C3706 C3707 1.394 . S
C3706 H3714 0.930 . S
C3707 C3706 1.394 . S
C3707 C3708 1.383 . S
C3707 H3715 0.929 . S
C3708 C3707 1.383 . S
C3708 C3709 1.377 . S
C3709 H3693 0.930 . S
C3709 C3708 1.377 . S
C3709 C3710 1.379 . S
C3710 H3694 0.931 . S
C3710 C3704 1.383 . S
C3710 C3709 1.379 . S
H3711 C3705 0.959 . S
H3712 C3705 0.961 . S
H3713 C3705 0.960 . S
H3714 C3706 0.930 . S
H3715 C3707 0.929 . S
H3716 C3724 0.929 . S
H3717 C3726 0.930 . S
H3718 C3728 0.930 . S
H3719 C3731 0.929 . S
H3720 C3734 0.930 . S
H3721 C3736 0.960 . S
H3722 C3736 0.960 . S
H3723 C3736 0.960 . S
C3724 H3716 0.929 . S
C3724 C3725 1.377 . S
C3724 C3726 1.384 . S
C3725 C3724 1.377 . S
C3725 C3731 1.390 . S
C3726 H3717 0.930 . S
C3726 C3724 1.384 . S
C3726 C3727 1.372 . S
C3727 C3726 1.372 . S
C3727 C3728 1.400 . S
C3727 C3732 1.490 . S
C3728 H3718 0.930 . S
C3728 C3727 1.400 . S
C3728 C3731 1.386 . S
H3729 C3745 0.930 . S
H3730 C3746 0.931 . S
C3731 H3719 0.929 . S
C3731 C3725 1.390 . S
C3731 C3728 1.386 . S
C3732 C3727 1.490 . S
C3732 C3734 1.395 . S
C3732 C3735 1.403 . S
H3733 C3739 0.930 . S
C3734 H3720 0.930 . S
C3734 C3732 1.395 . S
C3734 C3737 1.403 . S
C3735 C3732 1.403 . S
C3735 C3736 1.524 . S
C3735 C3739 1.400 . S
C3736 H3721 0.960 . S
C3736 H3722 0.960 . S
C3736 H3723 0.960 . S
C3736 C3735 1.524 . S
C3737 C3734 1.403 . S
C3737 C3738 1.392 . S
C3737 C3741 1.495 . S
C3738 C3737 1.392 . S
C3738 C3739 1.385 . S
C3738 C3740 1.478 . S
C3739 H3733 0.930 . S
C3739 C3735 1.400 . S
C3739 C3738 1.385 . S
C3740 C3738 1.478 . S
C3740 C3742 1.381 . S
C3740 C3746 1.383 . S
C3741 C3737 1.495 . S
C3741 H3747 0.959 . S
C3741 H3748 0.961 . S
C3741 H3749 0.960 . S
C3742 C3740 1.381 . S
C3742 C3743 1.394 . S
C3742 H3750 0.930 . S
C3743 C3742 1.394 . S
C3743 C3744 1.383 . S
C3743 H3751 0.929 . S
C3744 C3743 1.383 . S
C3744 C3745 1.377 . S
C3745 H3729 0.930 . S
C3745 C3744 1.377 . S
C3745 C3746 1.379 . S
C3746 H3730 0.931 . S
C3746 C3740 1.383 . S
C3746 C3745 1.379 . S
H3747 C3741 0.959 . S
H3748 C3741 0.961 . S
H3749 C3741 0.960 . S
H3750 C3742 0.930 . S
H3751 C3743 0.929 . S
H3752 C3760 0.929 . S
H3753 C3762 0.930 . S
H3754 C3764 0.930 . S
H3755 C3767 0.929 . S
H3756 C3770 0.930 . S
H3757 C3772 0.960 . S
H3758 C3772 0.960 . S
H3759 C3772 0.960 . S
C3760 H3752 0.929 . S
C3760 C3761 1.377 . S
C3760 C3762 1.384 . S
C3761 C3760 1.377 . S
C3761 C3767 1.390 . S
C3762 H3753 0.930 . S
C3762 C3760 1.384 . S
C3762 C3763 1.372 . S
C3763 C3762 1.372 . S
C3763 C3764 1.400 . S
C3763 C3768 1.490 . S
C3764 H3754 0.930 . S
C3764 C3763 1.400 . S
C3764 C3767 1.386 . S
H3765 C3781 0.930 . S
H3766 C3782 0.931 . S
C3767 H3755 0.929 . S
C3767 C3761 1.390 . S
C3767 C3764 1.386 . S
C3768 C3763 1.490 . S
C3768 C3770 1.395 . S
C3768 C3771 1.403 . S
H3769 C3775 0.930 . S
C3770 H3756 0.930 . S
C3770 C3768 1.395 . S
C3770 C3773 1.403 . S
C3771 C3768 1.403 . S
C3771 C3772 1.524 . S
C3771 C3775 1.400 . S
C3772 H3757 0.960 . S
C3772 H3758 0.960 . S
C3772 H3759 0.960 . S
C3772 C3771 1.524 . S
C3773 C3770 1.403 . S
C3773 C3774 1.392 . S
C3773 C3777 1.495 . S
C3774 C3773 1.392 . S
C3774 C3775 1.385 . S
C3774 C3776 1.478 . S
C3775 H3769 0.930 . S
C3775 C3771 1.400 . S
C3775 C3774 1.385 . S
C3776 C3774 1.478 . S
C3776 C3778 1.381 . S
C3776 C3782 1.383 . S
C3777 C3773 1.495 . S
C3777 H3783 0.959 . S
C3777 H3784 0.961 . S
C3777 H3785 0.960 . S
C3778 C3776 1.381 . S
C3778 C3779 1.394 . S
C3778 H3786 0.930 . S
C3779 C3778 1.394 . S
C3779 C3780 1.383 . S
C3779 H3787 0.929 . S
C3780 C3779 1.383 . S
C3780 C3781 1.377 . S
C3781 H3765 0.930 . S
C3781 C3780 1.377 . S
C3781 C3782 1.379 . S
C3782 H3766 0.931 . S
C3782 C3776 1.383 . S
C3782 C3781 1.379 . S
H3783 C3777 0.959 . S
H3784 C3777 0.961 . S
H3785 C3777 0.960 . S
H3786 C3778 0.930 . S
H3787 C3779 0.929 . S
H3788 C3796 0.929 . S
H3789 C3798 0.930 . S
H3790 C3800 0.930 . S
H3791 C3803 0.929 . S
H3792 C3806 0.930 . S
H3793 C3808 0.960 . S
H3794 C3808 0.960 . S
H3795 C3808 0.960 . S
C3796 H3788 0.929 . S
C3796 C3797 1.377 . S
C3796 C3798 1.384 . S
C3797 C3796 1.377 . S
C3797 C3803 1.390 . S
C3798 H3789 0.930 . S
C3798 C3796 1.384 . S
C3798 C3799 1.372 . S
C3799 C3798 1.372 . S
C3799 C3800 1.400 . S
C3799 C3804 1.490 . S
C3800 H3790 0.930 . S
C3800 C3799 1.400 . S
C3800 C3803 1.386 . S
H3801 C3817 0.930 . S
H3802 C3818 0.931 . S
C3803 H3791 0.929 . S
C3803 C3797 1.390 . S
C3803 C3800 1.386 . S
C3804 C3799 1.490 . S
C3804 C3806 1.395 . S
C3804 C3807 1.403 . S
H3805 C3811 0.930 . S
C3806 H3792 0.930 . S
C3806 C3804 1.395 . S
C3806 C3809 1.403 . S
C3807 C3804 1.403 . S
C3807 C3808 1.524 . S
C3807 C3811 1.400 . S
C3808 H3793 0.960 . S
C3808 H3794 0.960 . S
C3808 H3795 0.960 . S
C3808 C3807 1.524 . S
C3809 C3806 1.403 . S
C3809 C3810 1.392 . S
C3809 C3813 1.495 . S
C3810 C3809 1.392 . S
C3810 C3811 1.385 . S
C3810 C3812 1.478 . S
C3811 H3805 0.930 . S
C3811 C3807 1.400 . S
C3811 C3810 1.385 . S
C3812 C3810 1.478 . S
C3812 C3814 1.381 . S
C3812 C3818 1.383 . S
C3813 C3809 1.495 . S
C3813 H3819 0.959 . S
C3813 H3820 0.961 . S
C3813 H3821 0.960 . S
C3814 C3812 1.381 . S
C3814 C3815 1.394 . S
C3814 H3822 0.930 . S
C3815 C3814 1.394 . S
C3815 C3816 1.383 . S
C3815 H3823 0.929 . S
C3816 C3815 1.383 . S
C3816 C3817 1.377 . S
C3817 H3801 0.930 . S
C3817 C3816 1.377 . S
C3817 C3818 1.379 . S
C3818 H3802 0.931 . S
C3818 C3812 1.383 . S
C3818 C3817 1.379 . S
H3819 C3813 0.959 . S
H3820 C3813 0.961 . S
H3821 C3813 0.960 . S
H3822 C3814 0.930 . S
H3823 C3815 0.929 . S
H3824 C3832 0.929 . S
H3825 C3834 0.930 . S
H3826 C3836 0.930 . S
H3827 C3839 0.929 . S
H3828 C3842 0.930 . S
H3829 C3844 0.960 . S
H3830 C3844 0.960 . S
H3831 C3844 0.960 . S
C3832 H3824 0.929 . S
C3832 C3833 1.377 . S
C3832 C3834 1.384 . S
C3833 C3832 1.377 . S
C3833 C3839 1.390 . S
C3834 H3825 0.930 . S
C3834 C3832 1.384 . S
C3834 C3835 1.372 . S
C3835 C3834 1.372 . S
C3835 C3836 1.400 . S
C3835 C3840 1.490 . S
C3836 H3826 0.930 . S
C3836 C3835 1.400 . S
C3836 C3839 1.386 . S
H3837 C3853 0.930 . S
H3838 C3854 0.931 . S
C3839 H3827 0.929 . S
C3839 C3833 1.390 . S
C3839 C3836 1.386 . S
C3840 C3835 1.490 . S
C3840 C3842 1.395 . S
C3840 C3843 1.403 . S
H3841 C3847 0.930 . S
C3842 H3828 0.930 . S
C3842 C3840 1.395 . S
C3842 C3845 1.403 . S
C3843 C3840 1.403 . S
C3843 C3844 1.524 . S
C3843 C3847 1.400 . S
C3844 H3829 0.960 . S
C3844 H3830 0.960 . S
C3844 H3831 0.960 . S
C3844 C3843 1.524 . S
C3845 C3842 1.403 . S
C3845 C3846 1.392 . S
C3845 C3849 1.495 . S
C3846 C3845 1.392 . S
C3846 C3847 1.385 . S
C3846 C3848 1.478 . S
C3847 H3841 0.930 . S
C3847 C3843 1.400 . S
C3847 C3846 1.385 . S
C3848 C3846 1.478 . S
C3848 C3850 1.381 . S
C3848 C3854 1.383 . S
C3849 C3845 1.495 . S
C3849 H3855 0.959 . S
C3849 H3856 1.001 . S
C3849 H3857 0.960 . S
C3850 C3848 1.381 . S
C3850 C3851 1.394 . S
C3850 H3858 0.930 . S
C3851 C3850 1.394 . S
C3851 C3852 1.383 . S
C3851 H3859 0.929 . S
C3852 C3851 1.383 . S
C3852 C3853 1.377 . S
C3853 H3837 0.930 . S
C3853 C3852 1.377 . S
C3853 C3854 1.379 . S
C3854 H3838 0.931 . S
C3854 C3848 1.383 . S
C3854 C3853 1.379 . S
H3855 C3849 0.959 . S
H3856 C3849 1.001 . S
H3857 C3849 0.960 . S
H3858 C3850 0.930 . S
H3859 C3851 0.929 . S
H3860 C3868 0.929 . S
H3861 C3870 0.930 . S
H3862 C3872 0.930 . S
H3863 C3875 0.929 . S
H3864 C3878 0.930 . S
H3865 C3880 0.960 . S
H3866 C3880 0.960 . S
H3867 C3880 0.960 . S
C3868 H3860 0.929 . S
C3868 C3869 1.377 . S
C3868 C3870 1.384 . S
C3869 C3868 1.377 . S
C3869 C3875 1.390 . S
C3870 H3861 0.930 . S
C3870 C3868 1.384 . S
C3870 C3871 1.372 . S
C3871 C3870 1.372 . S
C3871 C3872 1.400 . S
C3871 C3876 1.490 . S
C3872 H3862 0.930 . S
C3872 C3871 1.400 . S
C3872 C3875 1.386 . S
H3873 C3889 0.930 . S
H3874 C3890 0.931 . S
C3875 H3863 0.929 . S
C3875 C3869 1.390 . S
C3875 C3872 1.386 . S
C3876 C3871 1.490 . S
C3876 C3878 1.395 . S
C3876 C3879 1.403 . S
H3877 C3883 0.930 . S
C3878 H3864 0.930 . S
C3878 C3876 1.395 . S
C3878 C3881 1.403 . S
C3879 C3876 1.403 . S
C3879 C3880 1.524 . S
C3879 C3883 1.400 . S
C3880 H3865 0.960 . S
C3880 H3866 0.960 . S
C3880 H3867 0.960 . S
C3880 C3879 1.524 . S
C3881 C3878 1.403 . S
C3881 C3882 1.392 . S
C3881 C3885 1.495 . S
C3882 C3881 1.392 . S
C3882 C3883 1.385 . S
C3882 C3884 1.478 . S
C3883 H3877 0.930 . S
C3883 C3879 1.400 . S
C3883 C3882 1.385 . S
C3884 C3882 1.478 . S
C3884 C3886 1.381 . S
C3884 C3890 1.383 . S
C3885 C3881 1.495 . S
C3885 H3891 0.959 . S
C3885 H3892 0.961 . S
C3885 H3893 0.960 . S
C3886 C3884 1.381 . S
C3886 C3887 1.394 . S
C3886 H3894 0.930 . S
C3887 C3886 1.394 . S
C3887 C3888 1.383 . S
C3887 H3895 0.929 . S
C3888 C3887 1.383 . S
C3888 C3889 1.377 . S
C3889 H3873 0.930 . S
C3889 C3888 1.377 . S
C3889 C3890 1.379 . S
C3890 H3874 0.931 . S
C3890 C3884 1.383 . S
C3890 C3889 1.379 . S
H3891 C3885 0.959 . S
H3892 C3885 0.961 . S
H3893 C3885 0.960 . S
H3894 C3886 0.930 . S
H3895 C3887 0.929 . S
H3896 C3904 0.929 . S
H3897 C3906 0.930 . S
H3898 C3908 0.930 . S
H3899 C3911 0.929 . S
H3900 C3914 0.930 . S
H3901 C3916 0.960 . S
H3902 C3916 0.960 . S
H3903 C3916 0.960 . S
C3904 H3896 0.929 . S
C3904 C3905 1.377 . S
C3904 C3906 1.384 . S
C3905 C3904 1.377 . S
C3905 C3911 1.390 . S
C3906 H3897 0.930 . S
C3906 C3904 1.384 . S
C3906 C3907 1.372 . S
C3907 C3906 1.372 . S
C3907 C3908 1.400 . S
C3907 C3912 1.490 . S
C3908 H3898 0.930 . S
C3908 C3907 1.400 . S
C3908 C3911 1.386 . S
H3909 C3925 0.930 . S
H3910 C3926 0.931 . S
C3911 H3899 0.929 . S
C3911 C3905 1.390 . S
C3911 C3908 1.386 . S
C3912 C3907 1.490 . S
C3912 C3914 1.395 . S
C3912 C3915 1.403 . S
H3913 C3919 0.930 . S
C3914 H3900 0.930 . S
C3914 C3912 1.395 . S
C3914 C3917 1.403 . S
C3915 C3912 1.403 . S
C3915 C3916 1.524 . S
C3915 C3919 1.400 . S
C3916 H3901 0.960 . S
C3916 H3902 0.960 . S
C3916 H3903 0.960 . S
C3916 C3915 1.524 . S
C3917 C3914 1.403 . S
C3917 C3918 1.392 . S
C3917 C3921 1.495 . S
C3918 C3917 1.392 . S
C3918 C3919 1.385 . S
C3918 C3920 1.478 . S
C3919 H3913 0.930 . S
C3919 C3915 1.400 . S
C3919 C3918 1.385 . S
C3920 C3918 1.478 . S
C3920 C3922 1.381 . S
C3920 C3926 1.383 . S
C3921 C3917 1.495 . S
C3921 H3927 0.959 . S
C3921 H3928 0.961 . S
C3921 H3929 0.960 . S
C3922 C3920 1.381 . S
C3922 C3923 1.394 . S
C3922 H3930 0.930 . S
C3923 C3922 1.394 . S
C3923 C3924 1.383 . S
C3923 H3931 0.929 . S
C3924 C3923 1.383 . S
C3924 C3925 1.377 . S
C3925 H3909 0.930 . S
C3925 C3924 1.377 . S
C3925 C3926 1.379 . S
C3926 H3910 0.931 . S
C3926 C3920 1.383 . S
C3926 C3925 1.379 . S
H3927 C3921 0.959 . S
H3928 C3921 0.961 . S
H3929 C3921 0.960 . S
H3930 C3922 0.930 . S
H3931 C3923 0.929 . S
H3932 C3940 0.929 . S
H3933 C3942 0.930 . S
H3934 C3944 0.930 . S
H3935 C3947 0.929 . S
H3936 C3950 0.930 . S
H3937 C3952 0.960 . S
H3938 C3952 0.960 . S
H3939 C3952 0.960 . S
C3940 H3932 0.929 . S
C3940 C3941 1.377 . S
C3940 C3942 1.384 . S
C3941 C3940 1.377 . S
C3941 C3947 1.390 . S
C3942 H3933 0.930 . S
C3942 C3940 1.384 . S
C3942 C3943 1.372 . S
C3943 C3942 1.372 . S
C3943 C3944 1.400 . S
C3943 C3948 1.490 . S
C3944 H3934 0.930 . S
C3944 C3943 1.400 . S
C3944 C3947 1.386 . S
H3945 C3961 0.930 . S
H3946 C3962 0.931 . S
C3947 H3935 0.929 . S
C3947 C3941 1.390 . S
C3947 C3944 1.386 . S
C3948 C3943 1.490 . S
C3948 C3950 1.395 . S
C3948 C3951 1.403 . S
H3949 C3955 0.930 . S
C3950 H3936 0.930 . S
C3950 C3948 1.395 . S
C3950 C3953 1.403 . S
C3951 C3948 1.403 . S
C3951 C3952 1.524 . S
C3951 C3955 1.400 . S
C3952 H3937 0.960 . S
C3952 H3938 0.960 . S
C3952 H3939 0.960 . S
C3952 C3951 1.524 . S
C3953 C3950 1.403 . S
C3953 C3954 1.392 . S
C3953 C3957 1.495 . S
C3954 C3953 1.392 . S
C3954 C3955 1.385 . S
C3954 C3956 1.478 . S
C3955 H3949 0.930 . S
C3955 C3951 1.400 . S
C3955 C3954 1.385 . S
C3956 C3954 1.478 . S
C3956 C3958 1.381 . S
C3956 C3962 1.383 . S
C3957 C3953 1.495 . S
C3957 H3963 0.959 . S
C3957 H3964 0.961 . S
C3957 H3965 0.960 . S
C3958 C3956 1.381 . S
C3958 C3959 1.394 . S
C3958 H3966 0.930 . S
C3959 C3958 1.394 . S
C3959 C3960 1.383 . S
C3959 H3967 0.929 . S
C3960 C3959 1.383 . S
C3960 C3961 1.377 . S
C3961 H3945 0.930 . S
C3961 C3960 1.377 . S
C3961 C3962 1.379 . S
C3962 H3946 0.931 . S
C3962 C3956 1.383 . S
C3962 C3961 1.379 . S
H3963 C3957 0.959 . S
H3964 C3957 0.961 . S
H3965 C3957 0.960 . S
H3966 C3958 0.930 . S
H3967 C3959 0.929 . S
C1097 C20 1.329 . S
C1116 C88 1.335 . S
C1133 C122 1.331 . S
C1152 C54 1.339 . S
C1169 C156 1.332 . S
C1188 C224 1.328 . S
C1205 C258 1.328 . S
C1224 C190 1.323 . S
C1241 C292 1.331 . S
C1260 C360 1.339 . S
C1277 C394 1.328 . S
C1296 C326 1.329 . S
C1313 C428 1.331 . S
C1332 C496 1.321 . S
C1349 C530 1.332 . S
C1368 C462 1.326 . S
C1385 C632 1.329 . S
C1404 C564 1.334 . S
C1421 C666 1.331 . S
C1440 C598 1.318 . S
C1457 C700 1.331 . S
C1476 C768 1.320 . S
C1493 C734 1.328 . S
C1512 C802 1.316 . S
C1529 C904 1.331 . S
C1548 C836 1.318 . S
C1565 C938 1.329 . S
C1584 C870 1.317 . S
C1601 C972 1.328 . S
C1620 C1040 1.318 . S
C1637 C1006 1.331 . S
C1656 C1074 1.338 . S
C1673 C9 1.427 . S
C1692 C145 1.446 . S
C1709 C43 1.434 . S
C1728 C995 1.450 . S
C1745 C485 1.434 . S
C1764 C77 1.447 . S
C1781 C791 1.431 . S
C1800 C111 1.454 . S
C1817 C179 1.423 . S
C1836 C859 1.422 . S
C1853 C349 1.426 . S
C1872 C213 1.443 . S
C1889 C247 1.432 . S
C1908 C655 1.454 . S
C1925 C281 1.432 . S
C1944 C417 1.453 . S
C1961 C315 1.425 . S
C1980 C723 1.399 . S
C1997 C1063 1.430 . S
C2016 C383 1.453 . S
C2033 C587 1.426 . S
C2052 C451 1.397 . S
C2069 C519 1.431 . S
C2088 C927 1.411 . S
C2105 C553 1.425 . S
C2124 C689 1.398 . S
C2141 C621 1.423 . S
C2160 C1029 1.406 . S
C2177 C757 1.423 . S
C2196 C893 1.418 . S
C2213 C961 1.434 . S
C2232 C825 1.439 . S
C2249 C33 1.784 . S
C2268 C373 1.787 . S
C2285 C67 1.784 . S
C2304 C407 1.786 . S
C2321 C101 1.784 . S
C2340 C305 1.786 . S
C2357 C339 1.784 . S
C2376 C135 1.787 . S
C2393 C169 1.783 . S
C2412 C509 1.773 . S
C2429 C203 1.784 . S
C2448 C543 1.786 . S
C2465 C237 1.783 . S
C2484 C441 1.773 . S
C2501 C475 1.785 . S
C2520 C271 1.787 . S
C2537 C917 1.784 . S
C2556 C577 1.774 . S
C2573 C611 1.782 . S
C2592 C951 1.782 . S
C2609 C645 1.785 . S
C2628 C849 1.779 . S
C2645 C883 1.784 . S
C2664 C679 1.775 . S
C2681 C713 1.783 . S
C2700 C1053 1.775 . S
C2717 C1087 1.784 . S
C2736 C747 1.786 . S
C2753 C985 1.785 . S
C2772 C781 1.786 . S
C2789 C815 1.783 . S
C2808 C1019 1.781 . S
C2825 C342 1.138 . S
C2844 C2 1.137 . S
C2861 C36 1.138 . S
C2880 C376 1.133 . S
C2897 C274 1.137 . S
C2916 C70 1.134 . S
C2933 C308 1.138 . S
C2952 C104 1.137 . S
C2969 C138 1.138 . S
C2988 C478 1.137 . S
C3005 C172 1.138 . S
C3024 C512 1.136 . S
C3041 C410 1.137 . S
C3060 C206 1.133 . S
C3077 C240 1.138 . S
C3096 C444 1.138 . S
C3113 C546 1.138 . S
C3132 C886 1.134 . S
C3149 C920 1.138 . S
C3168 C580 1.133 . S
C3185 C818 1.138 . S
C3204 C614 1.134 . S
C3221 C648 1.138 . S
C3240 C852 1.134 . S
C3257 C682 1.138 . S
C3276 C1022 1.136 . S
C3293 C716 1.138 . S
C3312 C1056 1.137 . S
C3329 C750 1.138 . S
C3348 C954 1.137 . S
C3365 C784 1.138 . S
C3384 C988 1.135 . S
C3401 C107 1.495 . S
C3420 C5 1.498 . S
C3437 C73 1.494 . S
C3456 C39 1.493 . S
C3473 C141 1.494 . S
C3492 C243 1.481 . S
C3509 C209 1.493 . S
C3528 C175 1.483 . S
C3545 C379 1.493 . S
C3564 C277 1.486 . S
C3581 C345 1.492 . S
C3600 C311 1.484 . S
C3617 C515 1.494 . S
C3636 C413 1.482 . S
C3653 C447 1.492 . S
C3672 C481 1.487 . S
C3689 C651 1.494 . S
C3708 C549 1.496 . S
C3725 C617 1.495 . S
C3744 C583 1.497 . S
C3761 C685 1.491 . S
C3780 C787 1.491 . S
C3797 C753 1.495 . S
C3816 C719 1.489 . S
C3833 C923 1.495 . S
C3852 C821 1.496 . S
C3869 C889 1.495 . S
C3888 C855 1.499 . S
C3905 C1059 1.493 . S
C3924 C957 1.499 . S
C3941 C1025 1.492 . S
C3960 C991 1.498 . S
