# Generated by pormake.
# Topology ilc, (8)-cn, num edge types: 1
# Building blocks:
#     Node 0, Type 0, BuildingBlock: NUHRAL_clean_sbu_3, # of connection points: 8
#     Node 1, Type 0, BuildingBlock: NUHRAL_clean_sbu_3, # of connection points: 8
#     Node 2, Type 0, BuildingBlock: NUHRAL_clean_sbu_3, # of connection points: 8
#     Edge 3, Type (0, 0), BuildingBlock: EZIPEK_clean_linker_0, # of connection points: 2
#     Edge 4, Type (0, 0), BuildingBlock: EZIPEK_clean_linker_0, # of connection points: 2
#     Edge 5, Type (0, 0), BuildingBlock: EZIPEK_clean_linker_0, # of connection points: 2
#     Edge 6, Type (0, 0), BuildingBlock: EZIPEK_clean_linker_0, # of connection points: 2
#     Edge 7, Type (0, 0), BuildingBlock: EZIPEK_clean_linker_0, # of connection points: 2
#     Edge 8, Type (0, 0), BuildingBlock: EZIPEK_clean_linker_0, # of connection points: 2
#     Edge 9, Type (0, 0), BuildingBlock: EZIPEK_clean_linker_0, # of connection points: 2
#     Edge 10, Type (0, 0), BuildingBlock: EZIPEK_clean_linker_0, # of connection points: 2
#     Edge 11, Type (0, 0), BuildingBlock: EZIPEK_clean_linker_0, # of connection points: 2
#     Edge 12, Type (0, 0), BuildingBlock: EZIPEK_clean_linker_0, # of connection points: 2
#     Edge 13, Type (0, 0), BuildingBlock: EZIPEK_clean_linker_0, # of connection points: 2
#     Edge 14, Type (0, 0), BuildingBlock: EZIPEK_clean_linker_0, # of connection points: 2
# Relax obj value: 0.198
# Max RMSD: 0.208
# Mean RMSD: 0.208
data_MOF--net-ilc--node1-NUHRAL_clean_sbu_3--edge1-EZIPEK_clean_linker_0
_symmetry_space_group_name_H-M    P1
_symmetry_Int_Tables_number       1
_symmetry_cell_setting            triclinic
loop_
_symmetry_equiv_pos_as_xyz
'x, y, z'
_cell_length_a     17.979587
_cell_length_b     24.422081
_cell_length_c     15.161935
_cell_angle_alpha  102.31571
_cell_angle_beta   73.335648
_cell_angle_gamma 142.02023
loop_
_atom_site_label
_atom_site_type_symbol
_atom_site_fract_x
_atom_site_fract_y
_atom_site_fract_z
_atom_type_partial_charge
C0 C 0.17418 0.01494 0.19106 0.0
C1 C 0.15944 0.04558 0.27457 0.0
C2 C 0.17595 0.03889 0.35407 0.0
C3 C 0.21914 0.01032 0.34935 0.0
C4 C 0.21051 0.9633 0.2735 0.0
C5 C 0.19406 0.96897 0.19092 0.0
O6 O 0.88255 0.97022 0.15051 0.0
Tb7 Tb 0.07447 0.06548 0.07755 0.0
O8 O 0.10202 0.15473 0.18482 0.0
O9 O 0.79773 0.84035 0.09525 0.0
Eu10 Eu 0.8559 0.88878 0.95027 0.0
O11 O 0.22476 0.11281 0.10499 0.0
C12 C 0.78191 0.94294 0.93097 0.0
O13 O 0.05971 0.97127 0.08376 0.0
O14 O 0.04708 0.98345 0.86403 0.0
O15 O 0.14392 0.11432 0.93426 0.0
C16 C 0.16782 0.03269 0.10776 0.0
C17 C 0.8821 0.78552 0.81132 0.0
O18 O 0.96089 0.82424 0.86285 0.0
C19 C 0.81081 0.88744 0.16669 0.0
C20 C 0.13617 0.07061 0.86016 0.0
O21 O 0.80901 0.789 0.84054 0.0
C22 C 0.82122 0.99111 0.85126 0.0
C23 C 0.90464 0.11622 0.7842 0.0
C24 C 0.82673 0.05247 0.8561 0.0
C25 C 0.87447 0.98566 0.76884 0.0
C26 C 0.96548 0.05722 0.70537 0.0
C27 C -0.00625 0.13012 0.72555 0.0
C28 C 0.09756 0.20526 0.17809 0.0
O29 O 0.08826 0.21089 0.09849 0.0
O30 O 0.71974 0.86102 0.9151 0.0
O31 O 0.87164 0.98874 0.97416 0.0
H32 H 0.13378 0.07387 0.27793 0.0
H33 H 0.23391 0.00794 0.41241 0.0
H34 H 0.18985 0.93441 0.13033 0.0
H35 H 0.76996 0.04911 0.91117 0.0
H36 H 0.84495 0.92601 0.75731 0.0
H37 H 0.06952 0.19009 0.68296 0.0
C38 C 0.79765 0.30894 0.52938 0.0
C39 C 0.74177 0.31403 0.60996 0.0
C40 C 0.72722 0.29012 0.69421 0.0
C41 C 0.76446 0.25923 0.70079 0.0
C42 C 0.81888 0.25182 0.62278 0.0
C43 C 0.83576 0.27627 0.53517 0.0
O44 O 0.58181 0.32796 0.49638 0.0
Tb45 Tb 0.76652 0.4078 0.41595 0.0
O46 O 0.81839 0.50763 0.51866 0.0
O47 O 0.46578 0.19293 0.4274 0.0
Eu48 Eu 0.54456 0.24777 0.2811 0.0
O49 O 0.89451 0.43077 0.44914 0.0
C50 C 0.50158 0.3247 0.26158 0.0
O51 O 0.72546 0.29902 0.4102 0.0
O52 O 0.74022 0.33406 0.2113 0.0
O53 O 0.842 0.46529 0.27593 0.0
C54 C 0.82261 0.346 0.44437 0.0
C55 C 0.55548 0.13667 0.13549 0.0
O56 O 0.63403 0.17204 0.1853 0.0
C57 C 0.48374 0.24046 0.50076 0.0
C58 C 0.82181 0.41938 0.2003 0.0
O59 O 0.49218 0.14896 0.16504 0.0
C60 C 0.52027 0.35899 0.17811 0.0
C61 C 0.53123 0.44018 0.0906 0.0
C62 C 0.52638 0.4206 0.17591 0.0
C63 C 0.53322 0.32699 0.0959 0.0
C64 C 0.5454 0.35071 1.01362 0.0
C65 C 0.53404 0.39987 1.01106 0.0
C66 C 0.76125 0.52448 0.53647 0.0
O67 O 0.69255 0.49281 0.47849 0.0
O68 O 0.41952 0.23801 0.26198 0.0
O69 O 0.60204 0.36774 0.28576 0.0
H70 H 0.71372 0.33999 0.60783 0.0
H71 H 0.75261 0.24218 0.7683 0.0
H72 H 0.87838 0.27091 0.47397 0.0
H73 H 0.52846 0.45241 0.23851 0.0
H74 H 0.53693 0.28472 0.09532 0.0
H75 H 0.53811 0.41262 0.94443 0.0
C76 C 0.48415 0.67205 0.84508 0.0
C77 C 0.4597 0.69946 0.92553 0.0
C78 C 0.4577 0.68492 1.00968 0.0
C79 C 0.48543 0.647 0.01523 0.0
C80 C 0.49065 0.6055 0.93953 0.0
C81 C 0.49351 0.6202 0.85153 0.0
O82 O 0.23435 0.66328 0.81655 0.0
Tb83 Tb 0.42136 0.7492 0.73615 0.0
O84 O 0.47756 0.85182 0.83811 0.0
O85 O 0.13468 0.52774 0.76607 0.0
Eu86 Eu 0.18905 0.56426 0.6148 0.0
O87 O 0.56366 0.78021 0.75167 0.0
C88 C 0.11729 0.61898 0.58909 0.0
O89 O 0.38352 0.64284 0.73818 0.0
O90 O 0.38648 0.65387 0.54355 0.0
O91 O 0.47629 0.78745 0.59126 0.0
C92 C 0.49057 0.69562 0.7589 0.0
C93 C 0.19026 0.44987 0.46144 0.0
O94 O 0.30418 0.51163 0.47279 0.0
C95 C 0.15523 0.5792 0.83547 0.0
C96 C 0.46908 0.73852 0.52593 0.0
O97 O 0.12063 0.45418 0.50945 0.0
C98 C 0.12082 0.64046 0.50358 0.0
C99 C 0.12195 0.71224 0.41203 0.0
C100 C 0.1081 0.69002 0.4992 0.0
C101 C 0.14887 0.61592 0.42225 0.0
C102 C 0.16851 0.64262 0.33818 0.0
C103 C 0.14812 0.6855 0.33259 0.0
C104 C 0.42318 0.87112 0.85811 0.0
O105 O 0.35625 0.84305 0.80062 0.0
O106 O 0.04483 0.53499 0.59682 0.0
O107 O 0.22531 0.67274 0.60869 0.0
H108 H 0.43887 0.73028 0.92314 0.0
H109 H 0.48296 0.63754 0.08297 0.0
H110 H 0.49839 0.59045 0.79026 0.0
H111 H 0.09512 0.71513 0.5611 0.0
H112 H 0.1624 0.58028 0.4243 0.0
H113 H 0.1685 0.70827 0.26561 0.0
C114 C 0.0735 0.10593 0.53838 0.0
C115 C 0.02258 0.05342 0.61564 0.0
C116 C 0.05084 0.97817 0.51348 0.0
C117 C 0.12548 0.04441 0.44477 0.0
N118 N 0.24627 0.19075 0.41229 0.0
N119 N 0.01112 0.96274 0.67657 0.0
C120 C 0.14993 0.11522 0.46407 0.0
C121 C 0.02634 0.99635 0.60347 0.0
N122 N 0.03609 0.13514 0.5276 0.0
N123 N -0.00309 0.89679 0.49312 0.0
H124 H 0.02138 0.92543 0.67006 0.0
H125 H 0.02138 0.92543 0.67006 0.0
H126 H -0.00398 0.87556 0.42578 0.0
H127 H 0.93942 0.84694 0.54292 0.0
H128 H 0.07036 0.16947 0.46799 0.0
H129 H 0.9578 0.11203 0.56885 0.0
H130 H 0.27582 0.24832 0.43203 0.0
H131 H 0.27582 0.24832 0.43203 0.0
C132 C 0.55737 0.23245 0.82128 0.0
C133 C 0.68218 0.30462 0.7787 0.0
C134 C 0.72031 0.40595 0.89537 0.0
C135 C 0.59145 0.33654 0.92939 0.0
N136 N 0.38601 0.18755 0.92552 0.0
N137 N 0.88806 0.45577 0.77793 0.0
C138 C 0.50946 0.25048 0.89283 0.0
C139 C 0.76549 0.39051 0.81633 0.0
N140 N 0.4865 0.14756 0.79382 0.0
N141 N 0.799 0.48384 0.94203 0.0
H142 H 0.92602 0.44144 0.73126 0.0
H143 H 0.95135 0.52307 0.7919 0.0
H144 H 0.89453 0.53386 0.92534 0.0
H145 H 0.76925 0.49676 1.00239 0.0
H146 H 0.39906 0.09137 0.82934 0.0
H147 H 0.5188 0.13231 0.73971 0.0
H148 H 0.32037 0.12146 0.90648 0.0
H149 H 0.3494 0.20429 0.96795 0.0
C150 C 0.44582 0.74666 0.15803 0.0
C151 C 0.38643 0.67922 0.09236 0.0
C152 C 0.18676 0.58023 0.19624 0.0
C153 C 0.24433 0.65041 0.25884 0.0
N154 N 0.4242 0.8008 0.30341 0.0
N155 N 0.20991 0.53672 0.04066 0.0
C156 C 0.37294 0.73398 0.24102 0.0
C157 C 0.2583 0.59697 0.10956 0.0
N158 N 0.57142 0.82059 0.14209 0.0
N159 N 0.06533 0.49872 0.22085 0.0
H160 H 0.11721 0.47428 0.04402 0.0
H161 H 0.11721 0.47428 0.04402 0.0
H162 H 0.01228 0.48585 0.28507 0.0
H163 H 0.01765 0.44217 0.18122 0.0
H164 H 0.62187 0.8701 0.18973 0.0
H165 H 0.62655 0.82956 0.08236 0.0
H166 H 0.51346 0.86634 0.2898 0.0
H167 H 0.37597 0.79196 0.36888 0.0
C168 C 0.24867 0.86702 0.39125 0.0
C169 C 0.13185 0.77546 0.39536 0.0
C170 C 0.06811 0.80491 0.31009 0.0
C171 C 0.19025 0.89538 0.29641 0.0
N172 N 0.39834 0.01182 0.32248 0.0
N173 N 0.93456 0.65448 0.35008 0.0
C174 C 0.28108 0.92554 0.33575 0.0
C175 C 0.04253 0.74388 0.35287 0.0
N176 N 0.32845 0.89847 0.44167 0.0
N177 N 0.97441 0.7777 0.28713 0.0
H178 H 0.91525 0.60791 0.37731 0.0
H179 H 0.8688 0.62588 0.31435 0.0
H180 H 0.98644 0.81803 0.25417 0.0
H181 H 0.88161 0.7167 0.30817 0.0
H182 H 0.40939 0.96576 0.45033 0.0
H183 H 0.3091 0.8578 0.48238 0.0
H184 H 0.47342 0.03521 0.336 0.0
H185 H 0.42128 0.05985 0.29467 0.0
C186 C 0.07476 0.34103 0.33174 0.0
C187 C 0.14224 0.37339 0.39987 0.0
C188 C 0.17973 0.29546 0.32394 0.0
C189 C 0.10424 0.25674 0.25976 0.0
N190 N 0.94605 0.22162 0.22685 0.0
N191 N 0.22042 0.35379 0.47673 0.0
C192 C 0.04082 0.27274 0.27132 0.0
C193 C 0.18093 0.3408 0.40137 0.0
N194 N 0.04886 0.37833 0.32029 0.0
N195 N 0.26292 0.29986 0.30633 0.0
H196 H 0.21381 0.38044 0.53746 0.0
H197 H 0.24701 0.32944 0.48226 0.0
H198 H 0.27305 0.27267 0.24922 0.0
H199 H 0.3356 0.34404 0.34142 0.0
H200 H 0.01022 0.36244 0.26574 0.0
H201 H 0.07529 0.43014 0.36029 0.0
H202 H 0.89126 0.22639 0.23853 0.0
H203 H 0.91238 0.16714 0.1878 0.0
C204 C 0.68802 0.86155 0.43074 0.0
C205 C 0.56076 0.77787 0.43541 0.0
C206 C 0.61434 0.75456 0.27526 0.0
C207 C 0.73263 0.84615 0.26266 0.0
N208 N 0.88567 0.98661 0.33758 0.0
N209 N 0.40223 0.65066 0.35022 0.0
C210 C 0.76994 0.89982 0.34299 0.0
C211 C 0.52383 0.72626 0.35414 0.0
N212 N 0.73408 0.90107 0.50966 0.0
N213 N 0.58901 0.6925 0.21698 0.0
H214 H 0.33242 0.62956 0.40377 0.0
H215 H 0.3722 0.61512 0.28981 0.0
H216 H 0.65596 0.70651 0.16685 0.0
H217 H 0.50558 0.62455 0.22907 0.0
H218 H 0.82804 0.95671 0.50942 0.0
H219 H 0.68099 0.87189 0.57487 0.0
H220 H 0.90965 0.03163 0.38909 0.0
H221 H 0.95663 0.01321 0.28179 0.0
C222 C 0.95722 0.27746 0.68799 0.0
C223 C 0.85619 0.21929 0.64236 0.0
C224 C 0.7817 0.09154 0.6951 0.0
C225 C 0.87596 0.14929 0.74833 0.0
N226 N 0.05256 0.29634 0.7969 0.0
N227 N 0.66576 0.07045 0.60917 0.0
C228 C 0.96428 0.24226 0.74417 0.0
C229 C 0.76746 0.12622 0.64704 0.0
N230 N 0.04356 0.36691 0.68087 0.0
N231 N 0.71008 0.00429 0.68557 0.0
H232 H 0.65625 0.09351 0.56843 0.0
H233 H 0.58818 0.00202 0.62205 0.0
H234 H 0.71471 0.97438 0.71925 0.0
H235 H 0.65185 0.9626 0.63841 0.0
H236 H 0.13055 0.41413 0.69631 0.0
H237 H 0.0278 0.39366 0.65769 0.0
H238 H 0.11913 0.36494 0.80042 0.0
H239 H 0.05579 0.27155 0.84189 0.0
C240 C 0.86939 0.62948 0.6692 0.0
C241 C 0.78618 0.58776 0.61129 0.0
C242 C 0.78244 0.68852 0.67193 0.0
C243 C 0.86728 0.73072 0.72889 0.0
N244 N 0.03351 0.76587 0.7408 0.0
N245 N 0.62097 0.55252 0.59726 0.0
C246 C 0.92362 0.70883 0.71532 0.0
C247 C 0.73199 0.61111 0.62198 0.0
N248 N 0.88702 0.58875 0.68932 0.0
N249 N 0.75008 0.72221 0.66407 0.0
H250 H 0.56601 0.48684 0.58071 0.0
H251 H 0.57201 0.56234 0.61029 0.0
H252 H 0.79065 0.78179 0.6931 0.0
H253 H 0.69734 0.69871 0.61731 0.0
H254 H 0.93884 0.61332 0.73765 0.0
H255 H 0.83446 0.52399 0.67011 0.0
H256 H 0.08024 0.75411 0.72743 0.0
H257 H 0.08809 0.83092 0.76001 0.0
C258 C 0.35878 0.12959 0.63168 0.0
C259 C 0.39328 0.19616 0.59173 0.0
C260 C 0.27269 0.1895 0.7319 0.0
C261 C 0.23107 0.11833 0.76998 0.0
N262 N 0.22832 0.01523 0.74788 0.0
N263 N 0.36736 0.27987 0.5977 0.0
C264 C 0.27185 0.08674 0.71703 0.0
C265 C 0.34712 0.22418 0.6408 0.0
N266 N 0.41585 0.11121 0.59139 0.0
N267 N 0.23907 0.22326 0.78119 0.0
H268 H 0.4185 0.3054 0.53116 0.0
H269 H 0.32388 0.29418 0.62352 0.0
H270 H 0.16972 0.19247 0.83973 0.0
H271 H 0.28255 0.28393 0.76518 0.0
H272 H 0.40388 0.06923 0.62044 0.0
H273 H 0.4846 0.14383 0.5322 0.0
H274 H 0.2317 0.97762 0.7048 0.0
H275 H 0.18973 0.99335 0.81626 0.0
C276 C 0.62411 0.55983 0.99557 0.0
C277 C 0.53886 0.50331 0.07455 0.0
C278 C 0.39783 0.48936 0.04413 0.0
C279 C 0.4827 0.54396 0.96348 0.0
N280 N 0.62634 0.57134 0.84219 0.0
N281 N 0.37589 0.45481 0.19401 0.0
C282 C 0.58519 0.56594 0.93357 0.0
C283 C 0.43274 0.47777 0.10427 0.0
N284 N 0.73851 0.60067 0.97542 0.0
N285 N 0.28397 0.44928 0.06282 0.0
H286 H 0.4116 0.4586 0.24146 0.0
H287 H 0.30986 0.44897 0.22273 0.0
H288 H 0.25652 0.45472 0.01675 0.0
H289 H 0.21472 0.40415 0.11745 0.0
H290 H 0.80457 0.64365 0.91854 0.0
H291 H 0.76822 0.59655 0.02069 0.0
H292 H 0.68325 0.56825 0.8165 0.0
H293 H 0.58345 0.56021 0.79507 0.0
C294 C 0.53036 0.97275 0.99381 0.0
C295 C 0.44464 0.93033 0.93832 0.0
C296 C 0.43422 0.02648 1.00774 0.0
C297 C 0.5274 0.07348 0.05786 0.0
N298 N 0.69842 0.11126 0.06083 0.0
N299 N 0.27023 0.888 0.93593 0.0
C300 C 0.585 0.05213 0.04063 0.0
C301 C 0.3837 0.94906 0.95723 0.0
N302 N 0.55137 0.93324 1.00997 0.0
N303 N 0.4001 0.05925 1.00175 0.0
H304 H 0.22026 0.82419 0.91448 0.0
H305 H 0.21659 0.8941 0.95457 0.0
H306 H 0.44946 0.12306 0.02219 0.0
H307 H 0.3338 0.02862 0.96534 0.0
H308 H 0.60474 0.95793 0.05694 0.0
H309 H 0.50093 0.86944 0.98821 0.0
H310 H 0.74429 0.09894 0.04866 0.0
H311 H 0.75583 0.1779 0.0739 0.0
C312 C 0.97068 0.44599 0.94827 0.0
C313 C 0.07554 0.53979 0.93222 0.0
C314 C 0.00221 0.5561 0.08904 0.0
C315 C 0.89934 0.46249 0.10426 0.0
N316 N 0.75862 0.3246 0.02312 0.0
N317 N 0.21036 0.68213 1.0081 0.0
C318 C 0.87543 0.40907 0.02662 0.0
C319 C 0.09651 0.5946 1.00813 0.0
N320 N 0.96713 0.39151 0.89556 0.0
N321 N 0.00372 0.60812 0.14609 0.0
H322 H 0.28717 0.7106 0.95811 0.0
H323 H 0.23307 0.72232 0.06513 0.0
H324 H 0.92631 0.58039 0.19477 0.0
H325 H 0.07091 0.67603 0.13422 0.0
H326 H 0.89478 0.32305 0.90803 0.0
H327 H 0.04622 0.41652 0.85364 0.0
H328 H 0.73555 0.28585 0.96459 0.0
H329 H 0.6829 0.29997 0.07157 0.0
loop_
_geom_bond_atom_site_label_1
_geom_bond_atom_site_label_2
_geom_bond_distance
_geom_bond_site_symmetry_2
_ccdc_geom_bond_type
C0 C1 1.387 . S
C0 C5 1.380 1_545 S
C0 C16 1.494 . S
C1 C0 1.387 . S
C1 C2 1.386 1_545 S
C1 H32 0.930 . S
C2 C1 1.386 1_565 S
C2 C3 1.397 . S
C3 C2 1.397 . S
C3 C4 1.393 . S
C3 H33 0.930 . S
C4 C3 1.393 . S
C4 C5 1.395 . S
C5 C0 1.380 1_565 S
C5 C4 1.395 . S
C5 H34 0.930 . S
O6 Tb7 2.293 1_665 S
O6 C19 1.244 . S
Tb7 O6 2.293 1_445 S
Tb7 O8 2.312 . S
Tb7 O11 2.438 . S
Tb7 O13 2.472 . S
Tb7 O15 2.308 1_554 S
Tb7 C16 2.821 . S
O8 Tb7 2.312 . S
O8 C28 1.264 . S
O9 Eu10 2.308 1_554 S
O9 C19 1.243 . S
Eu10 O9 2.308 1_556 S
Eu10 C12 2.821 . S
Eu10 O14 2.292 1_665 S
Eu10 O21 2.312 . S
Eu10 O30 2.438 . S
Eu10 O31 2.472 . S
O11 Tb7 2.438 . S
O11 C16 1.263 . S
C12 Eu10 2.821 . S
C12 C22 1.494 . S
C12 O30 1.263 . S
C12 O31 1.264 . S
O13 Tb7 2.472 . S
O13 C16 1.264 . S
O14 Eu10 2.292 1_445 S
O14 C20 1.246 . S
O15 Tb7 2.308 1_556 S
O15 C20 1.243 . S
C16 C0 1.494 . S
C16 Tb7 2.821 . S
C16 O11 1.263 . S
C16 O13 1.264 . S
C17 O18 1.260 . S
C17 O21 1.264 . S
O18 C17 1.260 . S
C19 O6 1.244 . S
C19 O9 1.243 . S
C20 O14 1.246 . S
C20 O15 1.243 . S
O21 Eu10 2.312 . S
O21 C17 1.264 . S
C22 C12 1.494 . S
C22 C24 1.380 1_565 S
C22 C25 1.387 . S
C23 C24 1.395 . S
C23 C27 1.393 . S
C24 C22 1.380 1_545 S
C24 C23 1.395 . S
C24 H35 0.930 . S
C25 C22 1.387 . S
C25 C26 1.386 1_565 S
C25 H36 0.930 . S
C26 C25 1.386 1_545 S
C26 C27 1.397 . S
C27 C23 1.393 . S
C27 C26 1.397 . S
C27 H37 0.930 . S
C28 O8 1.264 . S
C28 O29 1.260 . S
O29 C28 1.260 . S
O30 Eu10 2.438 . S
O30 C12 1.263 . S
O31 Eu10 2.472 . S
O31 C12 1.264 . S
H32 C1 0.930 . S
H33 C3 0.930 . S
H34 C5 0.930 . S
H35 C24 0.930 . S
H36 C25 0.930 . S
H37 C27 0.930 . S
C38 C39 1.387 . S
C38 C43 1.380 . S
C38 C54 1.494 . S
C39 C38 1.387 . S
C39 C40 1.386 . S
C39 H70 0.930 . S
C40 C39 1.386 . S
C40 C41 1.397 . S
C41 C40 1.397 . S
C41 C42 1.393 . S
C41 H71 0.930 . S
C42 C41 1.393 . S
C42 C43 1.395 . S
C43 C38 1.380 . S
C43 C42 1.395 . S
C43 H72 0.930 . S
O44 Tb45 2.295 . S
O44 C57 1.242 . S
Tb45 O44 2.295 . S
Tb45 O46 2.312 . S
Tb45 O49 2.438 . S
Tb45 O51 2.472 . S
Tb45 O53 2.308 . S
Tb45 C54 2.821 . S
O46 Tb45 2.312 . S
O46 C66 1.264 . S
O47 Eu48 2.308 . S
O47 C57 1.243 . S
Eu48 O47 2.308 . S
Eu48 C50 2.821 . S
Eu48 O52 2.295 . S
Eu48 O59 2.312 . S
Eu48 O68 2.438 . S
Eu48 O69 2.472 . S
O49 Tb45 2.438 . S
O49 C54 1.263 . S
C50 Eu48 2.821 . S
C50 C60 1.494 . S
C50 O68 1.263 . S
C50 O69 1.264 . S
O51 Tb45 2.472 . S
O51 C54 1.264 . S
O52 Eu48 2.295 . S
O52 C58 1.242 . S
O53 Tb45 2.308 . S
O53 C58 1.243 . S
C54 C38 1.494 . S
C54 Tb45 2.821 . S
C54 O49 1.263 . S
C54 O51 1.264 . S
C55 O56 1.260 . S
C55 O59 1.264 . S
O56 C55 1.260 . S
C57 O44 1.242 . S
C57 O47 1.243 . S
C58 O52 1.242 . S
C58 O53 1.243 . S
O59 Eu48 2.312 . S
O59 C55 1.264 . S
C60 C50 1.494 . S
C60 C62 1.380 . S
C60 C63 1.387 . S
C61 C62 1.395 . S
C61 C65 1.393 . S
C62 C60 1.380 . S
C62 C61 1.395 . S
C62 H73 0.930 . S
C63 C60 1.387 . S
C63 C64 1.386 1_554 S
C63 H74 0.930 . S
C64 C63 1.386 1_556 S
C64 C65 1.397 1_556 S
C65 C61 1.393 . S
C65 C64 1.397 1_554 S
C65 H75 0.930 1_554 S
C66 O46 1.264 . S
C66 O67 1.260 . S
O67 C66 1.260 . S
O68 Eu48 2.438 . S
O68 C50 1.263 . S
O69 Eu48 2.472 . S
O69 C50 1.264 . S
H70 C39 0.930 . S
H71 C41 0.930 . S
H72 C43 0.930 . S
H73 C62 0.930 . S
H74 C63 0.930 . S
H75 C65 0.930 1_556 S
C76 C77 1.387 . S
C76 C81 1.380 . S
C76 C92 1.494 . S
C77 C76 1.387 . S
C77 C78 1.386 1_556 S
C77 H108 0.930 . S
C78 C77 1.386 1_554 S
C78 C79 1.397 1_554 S
C79 C78 1.397 1_556 S
C79 C80 1.393 . S
C79 H109 0.930 1_556 S
C80 C79 1.393 . S
C80 C81 1.395 . S
C81 C76 1.380 . S
C81 C80 1.395 . S
C81 H110 0.930 . S
O82 Tb83 2.295 . S
O82 C95 1.242 . S
Tb83 O82 2.295 . S
Tb83 O84 2.312 . S
Tb83 O87 2.438 . S
Tb83 O89 2.472 . S
Tb83 O91 2.308 . S
Tb83 C92 2.821 . S
O84 Tb83 2.312 . S
O84 C104 1.264 . S
O85 Eu86 2.308 . S
O85 C95 1.243 . S
Eu86 O85 2.308 . S
Eu86 C88 2.821 . S
Eu86 O90 2.295 . S
Eu86 O97 2.312 . S
Eu86 O106 2.438 . S
Eu86 O107 2.472 . S
O87 Tb83 2.438 . S
O87 C92 1.263 . S
C88 Eu86 2.821 . S
C88 C98 1.494 . S
C88 O106 1.263 . S
C88 O107 1.264 . S
O89 Tb83 2.472 . S
O89 C92 1.264 . S
O90 Eu86 2.295 . S
O90 C96 1.242 . S
O91 Tb83 2.308 . S
O91 C96 1.243 . S
C92 C76 1.494 . S
C92 Tb83 2.821 . S
C92 O87 1.263 . S
C92 O89 1.264 . S
C93 O94 1.260 . S
C93 O97 1.264 . S
O94 C93 1.260 . S
C95 O82 1.242 . S
C95 O85 1.243 . S
C96 O90 1.242 . S
C96 O91 1.243 . S
O97 Eu86 2.312 . S
O97 C93 1.264 . S
C98 C88 1.494 . S
C98 C100 1.380 . S
C98 C101 1.387 . S
C99 C100 1.395 . S
C99 C103 1.393 . S
C100 C98 1.380 . S
C100 C99 1.395 . S
C100 H111 0.930 . S
C101 C98 1.387 . S
C101 C102 1.386 . S
C101 H112 0.930 . S
C102 C101 1.386 . S
C102 C103 1.397 . S
C103 C99 1.393 . S
C103 C102 1.397 . S
C103 H113 0.930 . S
C104 O84 1.264 . S
C104 O105 1.260 . S
O105 C104 1.260 . S
O106 Eu86 2.438 . S
O106 C88 1.263 . S
O107 Eu86 2.472 . S
O107 C88 1.264 . S
H108 C77 0.930 . S
H109 C79 0.930 1_554 S
H110 C81 0.930 . S
H111 C100 0.930 . S
H112 C101 0.930 . S
H113 C103 0.930 . S
C114 C115 1.363 . S
C114 C120 1.379 1_655 S
C114 N122 1.356 . S
C115 C114 1.363 . S
C115 C121 1.361 1_545 S
C116 C117 1.363 1_565 S
C116 C121 1.379 1_455 S
C116 N123 1.356 . S
C117 C116 1.363 1_545 S
C117 C120 1.361 . S
N118 C120 1.356 . S
N118 H130 0.984 . S
N118 H131 0.985 . S
N119 C121 1.356 . S
N119 H124 0.984 . S
N119 H125 0.985 . S
C120 C114 1.379 1_455 S
C120 C117 1.361 . S
C120 N118 1.356 . S
C121 C115 1.361 1_565 S
C121 C116 1.379 1_655 S
C121 N119 1.356 . S
N122 C114 1.356 . S
N122 H128 0.984 . S
N122 H129 0.984 . S
N123 C116 1.356 . S
N123 H126 0.984 . S
N123 H127 0.985 . S
H124 N119 0.984 . S
H125 N119 0.985 . S
H126 N123 0.984 . S
H127 N123 0.985 . S
H128 N122 0.984 . S
H129 N122 0.984 . S
H130 N118 0.984 . S
H131 N118 0.985 . S
C132 C133 1.363 . S
C132 C138 1.379 . S
C132 N140 1.356 . S
C133 C132 1.363 . S
C133 C139 1.363 . S
C134 C135 1.363 . S
C134 C139 1.379 . S
C134 N141 1.356 . S
C135 C134 1.363 . S
C135 C138 1.363 . S
N136 C138 1.356 . S
N136 H148 0.984 . S
N136 H149 0.985 . S
N137 C139 1.356 . S
N137 H142 0.984 . S
N137 H143 0.985 1_655 S
C138 C132 1.379 . S
C138 C135 1.363 . S
C138 N136 1.356 . S
C139 C133 1.363 . S
C139 C134 1.379 . S
C139 N137 1.356 . S
N140 C132 1.356 . S
N140 H146 0.984 . S
N140 H147 0.984 . S
N141 C134 1.356 . S
N141 H144 0.984 . S
N141 H145 0.985 . S
H142 N137 0.984 . S
H143 N137 0.985 1_455 S
H144 N141 0.984 . S
H145 N141 0.985 . S
H146 N140 0.984 . S
H147 N140 0.984 . S
H148 N136 0.984 . S
H149 N136 0.985 . S
C150 C151 1.363 . S
C150 C156 1.379 . S
C150 N158 1.356 1_554 S
C151 C150 1.363 . S
C151 C157 1.363 . S
C152 C153 1.363 . S
C152 C157 1.379 . S
C152 N159 1.356 . S
C153 C152 1.363 . S
C153 C156 1.363 . S
N154 C156 1.356 . S
N154 H166 0.984 . S
N154 H167 0.985 . S
N155 C157 1.356 . S
N155 H160 0.984 . S
N155 H161 0.985 . S
C156 C150 1.379 . S
C156 C153 1.363 . S
C156 N154 1.356 . S
C157 C151 1.363 . S
C157 C152 1.379 . S
C157 N155 1.356 . S
N158 C150 1.356 1_556 S
N158 H164 0.984 . S
N158 H165 0.984 . S
N159 C152 1.356 . S
N159 H162 0.984 . S
N159 H163 0.985 . S
H160 N155 0.984 . S
H161 N155 0.985 . S
H162 N159 0.984 . S
H163 N159 0.985 . S
H164 N158 0.984 . S
H165 N158 0.984 . S
H166 N154 0.984 . S
H167 N154 0.985 . S
C168 C169 1.363 . S
C168 C174 1.379 . S
C168 N176 1.356 . S
C169 C168 1.363 . S
C169 C175 1.363 . S
C170 C171 1.363 . S
C170 C175 1.379 . S
C170 N177 1.356 1_455 S
C171 C170 1.363 . S
C171 C174 1.363 . S
N172 C174 1.356 . S
N172 H184 0.984 . S
N172 H185 0.985 . S
N173 C175 1.356 1_655 S
N173 H178 0.984 1_655 S
N173 H179 0.985 . S
C174 C168 1.379 . S
C174 C171 1.363 . S
C174 N172 1.356 . S
C175 C169 1.363 . S
C175 C170 1.379 . S
C175 N173 1.356 1_455 S
N176 C168 1.356 . S
N176 H182 0.984 . S
N176 H183 0.984 . S
N177 C170 1.356 1_655 S
N177 H180 0.984 . S
N177 H181 0.985 . S
H178 N173 0.984 1_455 S
H179 N173 0.985 . S
H180 N177 0.984 . S
H181 N177 0.985 . S
H182 N176 0.984 . S
H183 N176 0.984 . S
H184 N172 0.984 . S
H185 N172 0.985 . S
C186 C187 1.363 . S
C186 C192 1.379 . S
C186 N194 1.356 . S
C187 C186 1.363 . S
C187 C193 1.363 . S
C188 C189 1.363 . S
C188 C193 1.379 . S
C188 N195 1.356 . S
C189 C188 1.363 . S
C189 C192 1.363 . S
N190 C192 1.356 . S
N190 H202 0.984 . S
N190 H203 0.985 . S
N191 C193 1.356 . S
N191 H196 0.984 . S
N191 H197 0.985 . S
C192 C186 1.379 . S
C192 C189 1.363 . S
C192 N190 1.356 . S
C193 C187 1.363 . S
C193 C188 1.379 . S
C193 N191 1.356 . S
N194 C186 1.356 . S
N194 H200 0.984 . S
N194 H201 0.984 . S
N195 C188 1.356 . S
N195 H198 0.984 . S
N195 H199 0.985 . S
H196 N191 0.984 . S
H197 N191 0.985 . S
H198 N195 0.984 . S
H199 N195 0.985 . S
H200 N194 0.984 . S
H201 N194 0.984 . S
H202 N190 0.984 . S
H203 N190 0.985 . S
C204 C205 1.363 . S
C204 C210 1.379 . S
C204 N212 1.356 . S
C205 C204 1.363 . S
C205 C211 1.363 . S
C206 C207 1.363 . S
C206 C211 1.379 . S
C206 N213 1.356 . S
C207 C206 1.363 . S
C207 C210 1.363 . S
N208 C210 1.356 1_545 S
N208 H220 0.984 . S
N208 H221 0.985 . S
N209 C211 1.356 . S
N209 H214 0.984 . S
N209 H215 0.985 . S
C210 C204 1.379 . S
C210 C207 1.363 . S
C210 N208 1.356 1_565 S
C211 C205 1.363 . S
C211 C206 1.379 . S
C211 N209 1.356 . S
N212 C204 1.356 . S
N212 H218 0.984 . S
N212 H219 0.984 . S
N213 C206 1.356 . S
N213 H216 0.984 . S
N213 H217 0.985 . S
H214 N209 0.984 . S
H215 N209 0.985 . S
H216 N213 0.984 . S
H217 N213 0.985 . S
H218 N212 0.984 . S
H219 N212 0.984 . S
H220 N208 0.984 . S
H221 N208 0.985 . S
C222 C223 1.363 . S
C222 C228 1.379 . S
C222 N230 1.356 . S
C223 C222 1.363 . S
C223 C229 1.363 . S
C224 C225 1.363 . S
C224 C229 1.379 . S
C224 N231 1.356 . S
C225 C224 1.363 . S
C225 C228 1.363 . S
N226 C228 1.356 . S
N226 H238 0.984 1_655 S
N226 H239 0.985 . S
N227 C229 1.356 . S
N227 H232 0.984 . S
N227 H233 0.985 . S
C228 C222 1.379 . S
C228 C225 1.363 . S
C228 N226 1.356 . S
C229 C223 1.363 . S
C229 C224 1.379 . S
C229 N227 1.356 . S
N230 C222 1.356 . S
N230 H236 0.984 1_655 S
N230 H237 0.984 . S
N231 C224 1.356 . S
N231 H234 0.984 . S
N231 H235 0.985 1_545 S
H232 N227 0.984 . S
H233 N227 0.985 . S
H234 N231 0.984 . S
H235 N231 0.985 1_565 S
H236 N230 0.984 1_455 S
H237 N230 0.984 . S
H238 N226 0.984 1_455 S
H239 N226 0.985 . S
C240 C241 1.363 . S
C240 C246 1.379 . S
C240 N248 1.356 . S
C241 C240 1.363 . S
C241 C247 1.363 . S
C242 C243 1.363 . S
C242 C247 1.379 . S
C242 N249 1.356 . S
C243 C242 1.363 . S
C243 C246 1.363 . S
N244 C246 1.356 1_455 S
N244 H256 0.984 . S
N244 H257 0.985 . S
N245 C247 1.356 . S
N245 H250 0.984 . S
N245 H251 0.985 . S
C246 C240 1.379 . S
C246 C243 1.363 . S
C246 N244 1.356 1_655 S
C247 C241 1.363 . S
C247 C242 1.379 . S
C247 N245 1.356 . S
N248 C240 1.356 . S
N248 H254 0.984 1_655 S
N248 H255 0.984 . S
N249 C242 1.356 . S
N249 H252 0.984 . S
N249 H253 0.985 . S
H250 N245 0.984 . S
H251 N245 0.985 . S
H252 N249 0.984 . S
H253 N249 0.985 . S
H254 N248 0.984 1_455 S
H255 N248 0.984 . S
H256 N244 0.984 . S
H257 N244 0.985 . S
C258 C259 1.363 . S
C258 C264 1.379 . S
C258 N266 1.356 . S
C259 C258 1.363 . S
C259 C265 1.363 . S
C260 C261 1.363 . S
C260 C265 1.379 . S
C260 N267 1.356 . S
C261 C260 1.363 . S
C261 C264 1.363 . S
N262 C264 1.356 1_565 S
N262 H274 0.984 . S
N262 H275 0.985 . S
N263 C265 1.356 . S
N263 H268 0.984 . S
N263 H269 0.985 . S
C264 C258 1.379 . S
C264 C261 1.363 . S
C264 N262 1.356 1_545 S
C265 C259 1.363 . S
C265 C260 1.379 . S
C265 N263 1.356 . S
N266 C258 1.356 . S
N266 H272 0.984 . S
N266 H273 0.984 . S
N267 C260 1.356 . S
N267 H270 0.984 . S
N267 H271 0.985 . S
H268 N263 0.984 . S
H269 N263 0.985 . S
H270 N267 0.984 . S
H271 N267 0.985 . S
H272 N266 0.984 . S
H273 N266 0.984 . S
H274 N262 0.984 . S
H275 N262 0.985 . S
C276 C277 1.363 1_556 S
C276 C282 1.379 . S
C276 N284 1.356 . S
C277 C276 1.363 1_554 S
C277 C283 1.363 . S
C278 C279 1.363 1_554 S
C278 C283 1.379 . S
C278 N285 1.356 . S
C279 C278 1.363 1_556 S
C279 C282 1.363 . S
N280 C282 1.356 . S
N280 H292 0.984 . S
N280 H293 0.985 . S
N281 C283 1.356 . S
N281 H286 0.984 . S
N281 H287 0.985 . S
C282 C276 1.379 . S
C282 C279 1.363 . S
C282 N280 1.356 . S
C283 C277 1.363 . S
C283 C278 1.379 . S
C283 N281 1.356 . S
N284 C276 1.356 . S
N284 H290 0.984 . S
N284 H291 0.984 1_556 S
N285 C278 1.356 . S
N285 H288 0.984 1_554 S
N285 H289 0.985 . S
H286 N281 0.984 . S
H287 N281 0.985 . S
H288 N285 0.984 1_556 S
H289 N285 0.985 . S
H290 N284 0.984 . S
H291 N284 0.984 1_554 S
H292 N280 0.984 . S
H293 N280 0.985 . S
C294 C295 1.363 . S
C294 C300 1.379 1_566 S
C294 N302 1.356 . S
C295 C294 1.363 . S
C295 C301 1.363 . S
C296 C297 1.363 . S
C296 C301 1.379 1_544 S
C296 N303 1.356 . S
C297 C296 1.363 . S
C297 C300 1.363 . S
N298 C300 1.356 . S
N298 H310 0.984 . S
N298 H311 0.985 . S
N299 C301 1.356 . S
N299 H304 0.984 . S
N299 H305 0.985 . S
C300 C294 1.379 1_544 S
C300 C297 1.363 . S
C300 N298 1.356 . S
C301 C295 1.363 . S
C301 C296 1.379 1_566 S
C301 N299 1.356 . S
N302 C294 1.356 . S
N302 H308 0.984 . S
N302 H309 0.984 . S
N303 C296 1.356 . S
N303 H306 0.984 . S
N303 H307 0.985 . S
H304 N299 0.984 . S
H305 N299 0.985 . S
H306 N303 0.984 . S
H307 N303 0.985 . S
H308 N302 0.984 . S
H309 N302 0.984 . S
H310 N298 0.984 . S
H311 N298 0.985 . S
C312 C313 1.363 1_655 S
C312 C318 1.379 1_556 S
C312 N320 1.356 . S
C313 C312 1.363 1_455 S
C313 C319 1.363 . S
C314 C315 1.363 1_455 S
C314 C319 1.379 1_554 S
C314 N321 1.356 . S
C315 C314 1.363 1_655 S
C315 C318 1.363 . S
N316 C318 1.356 . S
N316 H328 0.984 . S
N316 H329 0.985 . S
N317 C319 1.356 . S
N317 H322 0.984 . S
N317 H323 0.985 . S
C318 C312 1.379 1_554 S
C318 C315 1.363 . S
C318 N316 1.356 . S
C319 C313 1.363 . S
C319 C314 1.379 1_556 S
C319 N317 1.356 . S
N320 C312 1.356 . S
N320 H326 0.984 . S
N320 H327 0.984 . S
N321 C314 1.356 . S
N321 H324 0.984 . S
N321 H325 0.985 . S
H322 N317 0.984 . S
H323 N317 0.985 . S
H324 N321 0.984 . S
H325 N321 0.985 . S
H326 N320 0.984 . S
H327 N320 0.984 . S
H328 N316 0.984 . S
H329 N316 0.985 . S
C115 C26 1.484 . S
C117 C2 1.484 1_545 S
C133 C40 1.483 . S
C135 C64 1.483 . S
C151 C78 1.483 . S
C153 C102 1.483 . S
C169 C99 2.224 . S
C171 C4 2.224 . S
C187 C93 1.501 . S
C189 C28 1.499 . S
C205 C96 1.777 . S
C207 C19 1.776 . S
C223 C42 2.224 . S
C225 C23 2.224 . S
C241 C66 1.501 . S
C243 C17 1.503 . S
C259 C57 1.777 . S
C261 C20 1.778 . S
C277 C61 2.224 . S
C279 C80 2.224 . S
C295 C104 1.501 . S
C297 C55 1.501 . S
C313 C95 1.777 . S
C315 C58 1.777 . S
