# Generated by pormake.
# Topology fna, (5)-cn, num edge types: 1
# Building blocks:
#     Node 0, Type 0, BuildingBlock: XOMCOT_clean_sbu_1, # of connection points: 5
#     Node 1, Type 0, BuildingBlock: XOMCOT_clean_sbu_1, # of connection points: 5
#     Node 2, Type 0, BuildingBlock: XOMCOT_clean_sbu_1, # of connection points: 5
#     Node 3, Type 0, BuildingBlock: XOMCOT_clean_sbu_1, # of connection points: 5
#     Node 4, Type 0, BuildingBlock: XOMCOT_clean_sbu_1, # of connection points: 5
#     Node 5, Type 0, BuildingBlock: XOMCOT_clean_sbu_1, # of connection points: 5
#     Node 6, Type 0, BuildingBlock: XOMCOT_clean_sbu_1, # of connection points: 5
#     Node 7, Type 0, BuildingBlock: XOMCOT_clean_sbu_1, # of connection points: 5
#     Node 8, Type 0, BuildingBlock: XOMCOT_clean_sbu_1, # of connection points: 5
#     Node 9, Type 0, BuildingBlock: XOMCOT_clean_sbu_1, # of connection points: 5
#     Node 10, Type 0, BuildingBlock: XOMCOT_clean_sbu_1, # of connection points: 5
#     Node 11, Type 0, BuildingBlock: XOMCOT_clean_sbu_1, # of connection points: 5
#     Edge 12, Type (0, 0), BuildingBlock: TEMPAE_clean_linker_10, # of connection points: 2
#     Edge 13, Type (0, 0), BuildingBlock: TEMPAE_clean_linker_10, # of connection points: 2
#     Edge 14, Type (0, 0), BuildingBlock: TEMPAE_clean_linker_10, # of connection points: 2
#     Edge 15, Type (0, 0), BuildingBlock: TEMPAE_clean_linker_10, # of connection points: 2
#     Edge 16, Type (0, 0), BuildingBlock: TEMPAE_clean_linker_10, # of connection points: 2
#     Edge 17, Type (0, 0), BuildingBlock: TEMPAE_clean_linker_10, # of connection points: 2
#     Edge 18, Type (0, 0), BuildingBlock: TEMPAE_clean_linker_10, # of connection points: 2
#     Edge 19, Type (0, 0), BuildingBlock: TEMPAE_clean_linker_10, # of connection points: 2
#     Edge 20, Type (0, 0), BuildingBlock: TEMPAE_clean_linker_10, # of connection points: 2
#     Edge 21, Type (0, 0), BuildingBlock: TEMPAE_clean_linker_10, # of connection points: 2
#     Edge 22, Type (0, 0), BuildingBlock: TEMPAE_clean_linker_10, # of connection points: 2
#     Edge 23, Type (0, 0), BuildingBlock: TEMPAE_clean_linker_10, # of connection points: 2
#     Edge 24, Type (0, 0), BuildingBlock: TEMPAE_clean_linker_10, # of connection points: 2
#     Edge 25, Type (0, 0), BuildingBlock: TEMPAE_clean_linker_10, # of connection points: 2
#     Edge 26, Type (0, 0), BuildingBlock: TEMPAE_clean_linker_10, # of connection points: 2
#     Edge 27, Type (0, 0), BuildingBlock: TEMPAE_clean_linker_10, # of connection points: 2
#     Edge 28, Type (0, 0), BuildingBlock: TEMPAE_clean_linker_10, # of connection points: 2
#     Edge 29, Type (0, 0), BuildingBlock: TEMPAE_clean_linker_10, # of connection points: 2
#     Edge 30, Type (0, 0), BuildingBlock: TEMPAE_clean_linker_10, # of connection points: 2
#     Edge 31, Type (0, 0), BuildingBlock: TEMPAE_clean_linker_10, # of connection points: 2
#     Edge 32, Type (0, 0), BuildingBlock: TEMPAE_clean_linker_10, # of connection points: 2
#     Edge 33, Type (0, 0), BuildingBlock: TEMPAE_clean_linker_10, # of connection points: 2
#     Edge 34, Type (0, 0), BuildingBlock: TEMPAE_clean_linker_10, # of connection points: 2
#     Edge 35, Type (0, 0), BuildingBlock: TEMPAE_clean_linker_10, # of connection points: 2
#     Edge 36, Type (0, 0), BuildingBlock: TEMPAE_clean_linker_10, # of connection points: 2
#     Edge 37, Type (0, 0), BuildingBlock: TEMPAE_clean_linker_10, # of connection points: 2
#     Edge 38, Type (0, 0), BuildingBlock: TEMPAE_clean_linker_10, # of connection points: 2
#     Edge 39, Type (0, 0), BuildingBlock: TEMPAE_clean_linker_10, # of connection points: 2
#     Edge 40, Type (0, 0), BuildingBlock: TEMPAE_clean_linker_10, # of connection points: 2
#     Edge 41, Type (0, 0), BuildingBlock: TEMPAE_clean_linker_10, # of connection points: 2
# Relax obj value: 0.385
# Max RMSD: 0.208
# Mean RMSD: 0.208
data_MOF--net-fna--node1-XOMCOT_clean_sbu_1--edge1-TEMPAE_clean_linker_10
_symmetry_space_group_name_H-M    P1
_symmetry_Int_Tables_number       1
_symmetry_cell_setting            triclinic
loop_
_symmetry_equiv_pos_as_xyz
'x, y, z'
_cell_length_a     46.921586
_cell_length_b     46.948186
_cell_length_c     42.456752
_cell_angle_alpha  90.034816
_cell_angle_beta   89.971987
_cell_angle_gamma 119.91806
loop_
_atom_site_label
_atom_site_type_symbol
_atom_site_fract_x
_atom_site_fract_y
_atom_site_fract_z
_atom_type_partial_charge
C0 C 0.38857 0.32167 0.51072 0.0
C1 C 0.39217 0.32982 0.54211 0.0
N2 N 0.36199 0.31749 0.55502 0.0
N3 N 0.35632 0.3048 0.50366 0.0
C4 C 0.3407 0.30238 0.53107 0.0
H5 H 0.40817 0.3274 0.49407 0.0
Co6 Co 0.33885 0.28557 0.46501 0.0
C7 C 0.28844 0.3076 0.46 0.0
O8 O 0.30223 0.32607 0.43511 0.0
N9 N 0.32183 0.26444 0.42635 0.0
C10 C 0.29293 0.23869 0.38362 0.0
C11 C 0.29766 0.26117 0.4068 0.0
C12 C 0.33126 0.24375 0.4144 0.0
N13 N 0.31399 0.22751 0.38859 0.0
O14 O 0.31578 0.24418 0.48575 0.0
H15 H 0.28295 0.27269 0.40955 0.0
H16 H 0.34954 0.23955 0.4255 0.0
O17 O 0.30084 0.2914 0.47233 0.0
C18 C 0.33312 0.23135 0.49328 0.0
O19 O 0.36401 0.24596 0.4842 0.0
N20 N 0.36374 0.32704 0.44526 0.0
C21 C 0.41514 0.38884 0.42724 0.0
C22 C 0.39217 0.38595 0.44998 0.0
C23 C 0.36684 0.35492 0.45877 0.0
C24 C 0.38495 0.32944 0.42206 0.0
C25 C 0.41054 0.36008 0.41243 0.0
H26 H 0.35126 0.35326 0.47827 0.0
H27 H 0.38363 0.30754 0.4124 0.0
H28 H 0.31423 0.28871 0.53354 0.0
H29 H 0.41533 0.3438 0.55432 0.0
H30 H 0.27466 0.23058 0.36514 0.0
H31 H 0.39499 0.40726 0.4626 0.0
H32 H 0.42748 0.36106 0.39456 0.0
C33 C 0.07028 0.38665 0.67556 0.0
C34 C 0.06567 0.39047 0.70692 0.0
N35 N 0.04648 0.36043 0.71939 0.0
N36 N 0.05399 0.35438 0.6684 0.0
C37 C 0.0397 0.33898 0.69558 0.0
H38 H 0.08557 0.406 0.65925 0.0
Co39 Co 0.05813 0.33672 0.63085 0.0
C40 C 0.98815 0.28177 0.62184 0.0
O41 O 0.98545 0.29218 0.59396 0.0
N42 N 0.06449 0.31956 0.59254 0.0
C43 C 0.06723 0.30701 0.54222 0.0
C44 C 0.05021 0.31479 0.56384 0.0
C45 C 0.09033 0.31488 0.5873 0.0
N46 N 0.09269 0.30742 0.55712 0.0
O47 O 0.0772 0.31572 0.65425 0.0
H48 H 0.03063 0.31956 0.55794 0.0
H49 H 0.10829 0.31824 0.60486 0.0
O50 O 0.01489 0.29758 0.63741 0.0
C51 C 0.10694 0.33486 0.66227 0.0
O52 O 0.12229 0.36494 0.65097 0.0
N53 N 0.04094 0.35988 0.60943 0.0
C54 C 0.0299 0.41095 0.59172 0.0
C55 C 1.00755 0.38541 0.61128 0.0
C56 C 0.01353 0.36015 0.6199 0.0
C57 C 0.0621 0.38356 0.58923 0.0
C58 C 0.05668 0.40889 0.57954 0.0
H59 H 0.99785 0.34271 0.63748 0.0
H60 H 0.08456 0.38414 0.58225 0.0
H61 H 0.02638 0.31257 0.69836 0.0
H62 H 0.07612 0.41345 0.71974 0.0
H63 H 0.06271 0.30382 0.51711 0.0
H64 H 0.98695 0.38614 0.62192 0.0
H65 H 0.07437 0.42763 0.56397 0.0
C66 C 0.7011 0.07376 0.8419 0.0
C67 C 0.69335 0.06941 0.87343 0.0
N68 N 0.70216 0.04824 0.88523 0.0
N69 N 0.71441 0.05517 0.83378 0.0
C70 C 0.71496 0.04009 0.86063 0.0
H71 H 0.69801 0.09001 0.826 0.0
Co72 Co 0.73264 0.05571 0.79487 0.0
C73 C 0.70866 0.98286 0.79039 0.0
O74 O 0.69076 0.97857 0.76513 0.0
N75 N 0.75306 0.05864 0.75588 0.0
C76 C 0.78095 0.05452 0.71536 0.0
C77 C 0.75792 0.03742 0.73832 0.0
C78 C 0.77335 0.08831 0.74289 0.0
N79 N 0.79099 0.08672 0.7185 0.0
O80 O 0.77409 0.07293 0.81499 0.0
H81 H 0.74765 0.01158 0.7428 0.0
H82 H 0.77666 0.11102 0.7526 0.0
O83 O 0.7254 0.01147 0.80252 0.0
C84 C 0.78837 0.10353 0.82086 0.0
O85 O 0.77502 0.1206 0.81056 0.0
N86 N 0.69099 0.0402 0.77581 0.0
C87 C 0.6294 0.03154 0.75912 0.0
C88 C 0.63214 0.01117 0.78162 0.0
C89 C 0.66307 0.01603 0.78976 0.0
C90 C 0.68872 0.05932 0.7529 0.0
C91 C 0.65817 0.05516 0.74395 0.0
H92 H 0.66468 1.00194 0.8091 0.0
H93 H 0.71071 0.07948 0.74293 0.0
H94 H 0.725 0.02381 0.86213 0.0
H95 H 0.68301 0.08174 0.88677 0.0
H96 H 0.79056 0.04404 0.69863 0.0
H97 H 0.61084 0.99309 0.79451 0.0
H98 H 0.65731 0.07133 0.72628 0.0
C99 C 0.63258 0.68077 0.00622 0.0
C100 C 0.62937 0.67145 0.03728 0.0
N101 N 0.65945 0.68673 0.05071 0.0
N102 N 0.66458 0.70135 -0.00013 0.0
C103 C 0.68031 0.70471 0.0274 0.0
H104 H 0.61282 0.67339 0.9894 0.0
Co105 Co 0.68157 0.72368 0.96226 0.0
C106 C 0.7376 0.70973 0.95361 0.0
O107 O 0.72736 0.69569 0.92604 0.0
N108 N 0.69797 0.74758 0.9242 0.0
C109 C 0.71193 0.76405 0.87442 0.0
C110 C 0.70516 0.73944 0.89589 0.0
C111 C 0.69997 0.77695 0.91886 0.0
N112 N 0.7084 0.78755 0.88898 0.0
O113 O 0.70208 0.76369 0.98576 0.0
H114 H 0.70287 0.71605 0.89006 0.0
H115 H 0.69417 0.79004 0.93621 0.0
O116 O 0.72139 0.7207 0.96851 0.0
C117 C 0.68301 0.77371 0.99564 0.0
O118 O 0.65211 0.75809 0.98652 0.0
N119 N 0.65933 0.68341 0.94036 0.0
C120 C 0.61008 0.62097 0.92126 0.0
C121 C 0.63541 0.62471 0.9415 0.0
C122 C 0.65979 0.65608 0.95071 0.0
C123 C 0.63596 0.68043 0.91946 0.0
C124 C 0.61159 0.64953 0.90906 0.0
H125 H 0.67702 0.65813 0.96867 0.0
H126 H 0.63484 0.70197 0.91237 0.0
H127 H 0.70637 0.72128 0.03051 0.0
H128 H 0.60652 0.65481 0.04894 0.0
H129 H 0.71685 0.76361 0.84956 0.0
H130 H 0.63514 0.60368 0.95224 0.0
H131 H 0.59311 0.64813 0.89289 0.0
C132 C 0.94848 0.62926 0.17605 0.0
C133 C 0.95345 0.62547 0.20729 0.0
N134 N 0.97148 0.65555 0.22032 0.0
N135 N 0.96377 0.66153 0.16918 0.0
C136 C 0.97725 0.67696 0.19658 0.0
H137 H 0.93464 0.60978 0.15932 0.0
Co138 Co 0.96262 0.67948 0.13059 0.0
C139 C 0.03496 0.72969 0.12639 0.0
O140 O 0.03942 0.71643 0.10093 0.0
N141 N 0.95905 0.69707 0.09193 0.0
C142 C 0.96287 0.72846 0.05103 0.0
C143 C 0.98018 0.72253 0.07374 0.0
C144 C 0.92917 0.68808 0.07957 0.0
N145 N 0.93061 0.70699 0.05495 0.0
O146 O 0.94372 0.70214 0.15129 0.0
H147 H 1.00618 0.73766 0.07744 0.0
H148 H 0.9065 0.66922 0.08984 0.0
O149 O 1.00635 0.71739 0.13873 0.0
C150 C 0.91337 0.68483 0.15811 0.0
O151 O 0.89718 0.6542 0.1483 0.0
N152 N 0.97999 0.65504 0.11103 0.0
C153 C 0.99229 0.6046 0.09416 0.0
C154 C 0.01144 0.62769 0.11707 0.0
C155 C 1.00476 0.65247 0.12533 0.0
C156 C 0.96219 0.63378 0.08744 0.0
C157 C 0.9682 0.60852 0.07838 0.0
H158 H 0.01797 0.66808 0.14503 0.0
H159 H 0.94161 0.63472 0.07717 0.0
H160 H 0.99019 0.7034 0.19911 0.0
H161 H 0.94457 0.60223 0.21926 0.0
H162 H 0.97333 0.74805 0.03382 0.0
H163 H 0.03026 0.62551 0.12981 0.0
H164 H 0.95255 0.59084 0.06086 0.0
C165 C 0.32169 0.94018 0.34558 0.0
C166 C 0.33012 0.94452 0.37699 0.0
N167 N 0.32193 0.966 0.38911 0.0
N168 N 0.30842 0.95898 0.33808 0.0
C169 C 0.30875 0.97427 0.36507 0.0
H170 H 0.32422 0.92378 0.32939 0.0
Co171 Co 0.28849 0.95839 0.3003 0.0
C172 C 0.31138 0.03 0.29286 0.0
O173 O 0.32305 0.03071 0.26453 0.0
N174 N 0.26616 0.95547 0.26265 0.0
C175 C 0.2297 0.95594 0.2294 0.0
C176 C 0.25335 0.9737 0.2516 0.0
C177 C 0.24934 0.92661 0.2471 0.0
N178 N 0.22682 0.92603 0.22691 0.0
O179 O 0.24805 0.94172 0.32224 0.0
H180 H 0.25748 0.99664 0.26136 0.0
H181 H 0.25179 0.90545 0.25253 0.0
O182 O 0.29719 1.00304 0.30825 0.0
C183 C 0.23278 0.91081 0.3265 0.0
O184 O 0.24446 0.89338 0.3134 0.0
N185 N 0.32925 0.97349 0.27937 0.0
C186 C 0.3906 0.98335 0.25996 0.0
C187 C 0.38834 1.00409 0.28236 0.0
C188 C 0.35753 0.99864 0.29186 0.0
C189 C 0.33105 0.95394 0.25659 0.0
C190 C 0.36141 0.95872 0.24625 0.0
H191 H 0.35649 0.0131 0.31116 0.0
H192 H 0.30904 0.93303 0.24779 0.0
H193 H 0.29801 0.98988 0.36748 0.0
H194 H 0.34114 0.93262 0.38996 0.0
H195 H 0.21353 0.96333 0.21854 0.0
H196 H 0.41002 0.02294 0.29419 0.0
H197 H 0.36189 0.94222 0.2287 0.0
C198 C 0.69452 0.63068 0.32163 0.0
C199 C 0.68632 0.62628 0.29024 0.0
N200 N 0.69868 0.6561 0.2766 0.0
N201 N 0.71146 0.6631 0.32793 0.0
C202 C 0.71389 0.67797 0.30009 0.0
H203 H 0.68872 0.61152 0.33879 0.0
Co204 Co 0.7306 0.68191 0.3662 0.0
C205 C 0.70796 0.73122 0.37221 0.0
O206 O 0.69411 0.71935 0.39965 0.0
N207 N 0.75187 0.70042 0.4046 0.0
C208 C 0.7831 0.73441 0.44253 0.0
C209 C 0.76088 0.72933 0.41909 0.0
C210 C 0.76954 0.68889 0.41949 0.0
N211 N 0.78909 0.70916 0.44249 0.0
O212 O 0.77181 0.70523 0.34524 0.0
H213 H 0.75474 0.74752 0.41171 0.0
H214 H 0.76995 0.66718 0.4117 0.0
O215 O 0.72301 0.71868 0.35774 0.0
C216 C 0.78612 0.68873 0.34011 0.0
O217 O 0.77316 0.65895 0.3519 0.0
N218 N 0.68916 0.65677 0.38609 0.0
C219 C 0.62694 0.60515 0.40245 0.0
C220 C 0.63031 0.62919 0.38088 0.0
C221 C 0.66154 0.65449 0.37276 0.0
C222 C 0.68624 0.63462 0.40848 0.0
C223 C 0.65529 0.60875 0.41724 0.0
H224 H 0.66348 0.67057 0.35367 0.0
H225 H 0.70792 0.6352 0.4178 0.0
H226 H 0.72762 0.70434 0.29702 0.0
H227 H 0.67224 0.60282 0.27855 0.0
H228 H 0.79532 0.75618 0.45706 0.0
H229 H 0.60907 0.62738 0.36893 0.0
H230 H 0.65381 0.59041 0.43365 0.0
C231 C 0.06685 0.68802 0.49032 0.0
C232 C 0.06234 0.67927 0.45904 0.0
N233 N 0.04602 0.69283 0.44522 0.0
N234 N 0.05291 0.7065 0.49639 0.0
C235 C 0.04077 0.70932 0.46851 0.0
H236 H 0.07953 0.68143 0.50757 0.0
Co237 Co 0.05404 0.72667 0.5343 0.0
C238 C 0.98329 0.70747 0.54131 0.0
O239 O 0.98224 0.6965 0.57002 0.0
N240 N 0.05761 0.74909 0.5721 0.0
C241 C 0.05912 0.78688 0.60487 0.0
C242 C 0.04089 0.76386 0.58237 0.0
C243 C 0.08619 0.76423 0.58837 0.0
N244 N 0.08795 0.78752 0.60832 0.0
O245 O 0.07264 0.76745 0.51277 0.0
H246 H 0.01901 0.76162 0.57175 0.0
H247 H 0.10654 0.76025 0.58347 0.0
O248 O 0.01018 0.72012 0.52571 0.0
C249 C 0.10362 0.78236 0.50897 0.0
O250 O 0.12054 0.77016 0.52218 0.0
N251 N 0.03667 0.68542 0.55489 0.0
C252 C 0.024 0.62249 0.57124 0.0
C253 C 1.00353 0.62667 0.5501 0.0
C254 C 0.01035 0.65824 0.54209 0.0
C255 C 0.05571 0.68169 0.57695 0.0
C256 C 0.04956 0.65038 0.58576 0.0
H257 H 0.99629 0.66067 0.52322 0.0
H258 H 0.07748 0.70282 0.58588 0.0
H259 H 0.02928 0.72415 0.46532 0.0
H260 H 0.07043 0.66395 0.44759 0.0
H261 H 0.05308 0.80431 0.61515 0.0
H262 H 0.98363 0.60575 0.53827 0.0
H263 H 0.06628 0.64816 0.60182 0.0
C264 C 0.3839 0.07303 0.65534 0.0
C265 C 0.38835 0.06852 0.62411 0.0
N266 N 0.35911 0.04591 0.61199 0.0
N267 N 0.3521 0.05319 0.66295 0.0
C268 C 0.33753 0.03715 0.6361 0.0
H269 H 0.40246 0.09011 0.6714 0.0
Co270 Co 0.33372 0.05297 0.70163 0.0
C271 C 0.28577 0.98011 0.7063 0.0
O272 O 0.29897 0.97687 0.73239 0.0
N273 N 0.31562 0.05525 0.74052 0.0
C274 C 0.28194 0.05086 0.77955 0.0
C275 C 0.28816 0.03412 0.75643 0.0
C276 C 0.32542 0.08459 0.75455 0.0
N277 N 0.30518 0.08284 0.77807 0.0
O278 O 0.30918 0.0699 0.68133 0.0
H279 H 0.27169 0.00883 0.75044 0.0
H280 H 0.34574 0.10732 0.74597 0.0
O281 O 0.29729 0.00839 0.69348 0.0
C282 C 0.32484 0.10065 0.67604 0.0
O283 O 0.35475 0.11824 0.68734 0.0
N284 N 0.36013 0.03768 0.72066 0.0
C285 C 0.41327 0.02892 0.73593 0.0
C286 C 0.38954 0.0083 0.71411 0.0
C287 C 0.3635 0.01332 0.70653 0.0
C288 C 0.38204 0.05693 0.74321 0.0
C289 C 0.40867 0.05275 0.75143 0.0
H290 H 0.34749 0.99913 0.68742 0.0
H291 H 0.38053 0.0773 0.75318 0.0
H292 H 0.31155 0.01958 0.63428 0.0
H293 H 0.4112 0.08163 0.6112 0.0
H294 H 0.26082 0.0404 0.79504 0.0
H295 H 0.39202 0.98949 0.70168 0.0
H296 H 0.42671 0.06957 0.76808 0.0
C297 C 0.3372 0.38331 0.82509 0.0
C298 C 0.34592 0.38622 0.79388 0.0
N299 N 0.32944 0.35622 0.78042 0.0
N300 N 0.31575 0.35155 0.83152 0.0
C301 C 0.31132 0.33567 0.80387 0.0
H302 H 0.34561 0.40315 0.84197 0.0
Co303 Co 0.29406 0.33523 0.86953 0.0
C304 C 0.30236 0.27612 0.87899 0.0
O305 O 0.31212 0.28392 0.90824 0.0
N306 N 0.27091 0.31946 0.90837 0.0
C307 C 0.25692 0.30913 0.95915 0.0
C308 C 0.28161 0.31728 0.9374 0.0
C309 C 0.23965 0.31275 0.91354 0.0
N310 N 0.23048 0.30638 0.94402 0.0
O311 O 0.25363 0.31623 0.84689 0.0
H312 H 0.30635 0.32302 0.94307 0.0
H313 H 0.22421 0.31436 0.89572 0.0
O314 O 0.2952 0.29453 0.86265 0.0
C315 C 0.24394 0.33616 0.83906 0.0
O316 O 0.26011 0.36647 0.84972 0.0
N317 N 0.33494 0.35622 0.89025 0.0
C318 C 0.39898 0.40396 0.90572 0.0
C319 C 0.39304 0.37633 0.88804 0.0
C320 C 0.36078 0.35265 0.88053 0.0
C321 C 0.34024 0.38217 0.90876 0.0
C322 C 0.3721 0.40607 0.91725 0.0
H323 H 0.35699 0.33349 0.86414 0.0
H324 H 0.31984 0.3857 0.91492 0.0
H325 H 0.29403 0.30977 0.80081 0.0
H326 H 0.36306 0.40881 0.78213 0.0
H327 H 0.25872 0.30638 0.98425 0.0
H328 H 0.41325 0.37416 0.87839 0.0
H329 H 0.37578 0.42741 0.93043 0.0
C330 C 0.95048 0.32585 0.98859 0.0
C331 C 0.95616 0.33561 0.95764 0.0
N332 N 0.97605 0.32556 0.9449 0.0
N333 N 0.96676 0.30983 0.99547 0.0
C334 C 0.98207 0.30996 0.96853 0.0
H335 H 0.93453 0.32911 0.00478 0.0
Co336 Co 0.96253 0.28776 0.03274 0.0
C337 C 0.01329 0.26954 0.02611 0.0
O338 O 0.99058 0.23911 0.0323 0.0
N339 N 0.9566 0.26479 0.07016 0.0
C340 C 0.96019 0.24171 0.11446 0.0
C341 C 0.97755 0.26603 0.09252 0.0
C342 C 0.92687 0.24057 0.07944 0.0
N343 N 0.92814 0.22547 0.10603 0.0
O344 O 0.94281 0.24769 0.00962 0.0
H345 H 1.00379 0.2829 0.09247 0.0
H346 H 0.90465 0.23436 0.06673 0.0
O347 O 1.00585 0.29229 0.02649 0.0
C348 C 0.91302 0.23618 0.00143 0.0
O349 O 0.89728 0.25128 0.01085 0.0
N350 N 0.98016 0.3275 0.05459 0.0
C351 C 0.9912 0.38957 0.07169 0.0
C352 C 0.01449 0.38616 0.05368 0.0
C353 C 1.00858 0.35479 0.04548 0.0
C354 C 0.95865 0.33018 0.07419 0.0
C355 C 0.96397 0.36095 0.08345 0.0
H356 H 0.02509 0.35265 0.02914 0.0
H357 H 0.93584 0.30848 0.08058 0.0
H358 H 0.99661 0.29805 0.96626 0.0
H359 H 0.94524 0.34796 0.94533 0.0
H360 H 0.97069 0.23609 0.13453 0.0
H361 H 0.03575 0.40739 0.04383 0.0
H362 H 0.94576 0.36224 0.09811 0.0
C363 C 0.63644 0.9393 0.14929 0.0
C364 C 0.63414 0.94375 0.11757 0.0
N365 N 0.66419 0.96617 0.10703 0.0
N366 N 0.66775 0.95893 0.15864 0.0
C367 C 0.68414 0.97494 0.13238 0.0
H368 H 0.61676 0.9224 0.16452 0.0
Co369 Co 0.68371 0.95829 0.1984 0.0
C370 C 0.73241 0.03076 0.20377 0.0
O371 O 0.71742 0.03492 0.228 0.0
N372 N 0.69944 0.95534 0.2383 0.0
C373 C 0.72955 0.95929 0.28035 0.0
C374 C 0.72495 0.97642 0.25648 0.0
C375 C 0.68905 0.92572 0.25184 0.0
N376 N 0.70713 0.92719 0.27716 0.0
O377 O 0.70819 0.94026 0.17992 0.0
H378 H 0.74108 1.00213 0.25192 0.0
H379 H 0.66982 0.90309 0.24191 0.0
O380 O 0.72135 1.00227 0.19156 0.0
C381 C 0.69169 0.90956 0.17445 0.0
O382 O 0.66103 0.89302 0.18411 0.0
N383 N 0.65731 0.9745 0.21564 0.0
C384 C 0.60564 0.9857 0.23059 0.0
C385 C 0.62915 1.00498 0.20798 0.0
C386 C 0.65451 0.99877 0.20062 0.0
C387 C 0.63532 0.95629 0.23857 0.0
C388 C 0.60951 0.96174 0.24667 0.0
H389 H 0.6708 0.0123 0.18142 0.0
H390 H 0.63625 0.9359 0.24922 0.0
H391 H 0.71039 0.99175 0.13158 0.0
H392 H 0.6121 0.93143 0.10335 0.0
H393 H 0.74901 0.96962 0.29771 0.0
H394 H 0.62716 0.0238 0.19505 0.0
H395 H 0.59152 0.94585 0.26386 0.0
C396 C 0.32755 0.14965 0.65094 0.0
C397 C 0.31322 0.11542 0.65225 0.0
C398 C 0.3231 0.16501 0.62467 0.0
C399 C 0.30398 0.1456 0.59901 0.0
C400 C 0.28699 0.11089 0.60145 0.0
C401 C 0.2918 0.09613 0.62817 0.0
C402 C 0.34136 0.20212 0.62324 0.0
C403 C 0.26602 0.08932 0.57484 0.0
C404 C 0.29354 0.19616 0.53519 0.0
C405 C 0.32115 0.20427 0.51638 0.0
C406 C 0.28595 0.17494 0.56111 0.0
C407 C 0.30657 0.16181 0.56826 0.0
C408 C 0.3329 0.16794 0.54784 0.0
C409 C 0.33982 0.18905 0.52215 0.0
C410 C 0.25726 0.16842 0.58194 0.0
C411 C 0.35537 0.15419 0.55442 0.0
H412 H 0.34378 0.16458 0.66974 0.0
H413 H 0.28066 0.06961 0.62907 0.0
H414 H 0.36172 0.21062 0.60592 0.0
H415 H 0.32482 0.2112 0.61524 0.0
H416 H 0.35194 0.21346 0.64642 0.0
H417 H 0.24883 0.0639 0.58299 0.0
H418 H 0.25163 0.09958 0.56383 0.0
H419 H 0.28211 0.08803 0.55641 0.0
H420 H 0.2789 0.20775 0.53078 0.0
H421 H 0.36091 0.19486 0.50741 0.0
H422 H 0.2665 0.18352 0.60362 0.0
H423 H 0.24353 0.14225 0.58924 0.0
H424 H 0.24006 0.17471 0.57 0.0
H425 H 0.36972 0.16556 0.57617 0.0
H426 H 0.37289 0.15895 0.53482 0.0
H427 H 0.34082 0.1273 0.55844 0.0
C428 C 0.10532 0.30204 0.70923 0.0
C429 C 0.12345 0.32501 0.68577 0.0
C430 C 0.12126 0.29718 0.73494 0.0
C431 C 0.15601 0.31555 0.73686 0.0
C432 C 0.17438 0.33689 0.71194 0.0
C433 C 0.15784 0.34151 0.6868 0.0
C434 C 0.10085 0.27417 0.76101 0.0
C435 C 0.2115 0.35659 0.71282 0.0
C436 C 0.20166 0.34567 0.81377 0.0
C437 C 0.21697 0.32669 0.81626 0.0
C438 C 0.17973 0.34055 0.78919 0.0
C439 C 0.17329 0.31608 0.76634 0.0
C440 C 0.18699 0.29538 0.76989 0.0
C441 C 0.20867 0.30086 0.79497 0.0
C442 C 0.16522 0.36285 0.78654 0.0
C443 C 0.18059 0.26896 0.74609 0.0
H444 H 0.07867 0.28935 0.7085 0.0
H445 H 0.17187 0.35901 0.66845 0.0
H446 H 0.11163 0.25911 0.7691 0.0
H447 H 0.10055 0.28875 0.78145 0.0
H448 H 0.07505 0.25753 0.75349 0.0
H449 H 0.22211 0.36936 0.69017 0.0
H450 H 0.21949 0.37534 0.73176 0.0
H451 H 0.22184 0.34045 0.71827 0.0
H452 H 0.20771 0.36538 0.83046 0.0
H453 H 0.22049 0.28613 0.79684 0.0
H454 H 0.13831 0.34824 0.78254 0.0
H455 H 0.17619 0.37944 0.766 0.0
H456 H 0.16982 0.37818 0.80794 0.0
H457 H 0.15413 0.25492 0.73981 0.0
H458 H 0.18832 0.25157 0.75493 0.0
H459 H 0.19451 0.28052 0.7242 0.0
C460 C 0.81748 0.09946 0.86834 0.0
C461 C 0.81506 0.1185 0.84418 0.0
C462 C 0.83733 0.11452 0.89479 0.0
C463 C 0.85507 0.14925 0.89681 0.0
C464 C 0.8551 0.16838 0.87101 0.0
C465 C 0.83495 0.15272 0.84504 0.0
C466 C 0.83695 0.09326 0.92161 0.0
C467 C 0.87401 0.2055 0.872 0.0
C468 C 0.86366 0.19415 0.97291 0.0
C469 C 0.89753 0.20917 0.97837 0.0
C470 C 0.8491 0.17251 0.94763 0.0
C471 C 0.86899 0.16585 0.92728 0.0
C472 C 0.90277 0.17892 0.93411 0.0
C473 C 0.91672 0.20053 0.95968 0.0
C474 C 0.81284 0.15873 0.94142 0.0
C475 C 0.92461 0.17192 0.91327 0.0
H476 H 0.80205 0.07294 0.86774 0.0
H477 H 0.83337 0.16741 0.82614 0.0
H478 H 0.8616 0.1037 0.93261 0.0
H479 H 0.81955 0.09205 0.93999 0.0
H480 H 0.82884 0.06778 0.91367 0.0
H481 H 0.87455 0.21654 0.84871 0.0
H482 H 0.86235 0.21429 0.88928 0.0
H483 H 0.89967 0.2146 0.87981 0.0
H484 H 0.84865 0.20036 0.98763 0.0
H485 H 0.94294 0.21197 0.96392 0.0
H486 H 0.80047 0.13177 0.93776 0.0
H487 H 0.80958 0.16977 0.91958 0.0
H488 H 0.80035 0.16381 0.96105 0.0
H489 H 0.91203 0.14564 0.90631 0.0
H490 H 0.94819 0.17828 0.92504 0.0
H491 H 0.93028 0.1867 0.8914 0.0
C492 C 0.72199 0.80904 0.03779 0.0
C493 C 0.6941 0.80028 0.01919 0.0
C494 C 0.72956 0.83059 0.06343 0.0
C495 C 0.70876 0.84356 0.07041 0.0
C496 C 0.6819 0.83648 0.05036 0.0
C497 C 0.67487 0.81485 0.02506 0.0
C498 C 0.75859 0.83785 0.08406 0.0
C499 C 0.65929 0.85012 0.05672 0.0
C500 C 0.68924 0.85957 0.15226 0.0
C501 C 0.70351 0.89382 0.152 0.0
C502 C 0.69345 0.84298 0.12688 0.0
C503 C 0.7121 0.86116 0.10048 0.0
C504 C 0.72912 0.89595 0.10142 0.0
C505 C 0.72469 0.91196 0.12733 0.0
C506 C 0.67532 0.80585 0.1271 0.0
C507 C 0.74953 0.9162 0.07392 0.0
H508 H 0.73696 0.79782 0.03331 0.0
H509 H 0.65355 0.80848 0.01048 0.0
H510 H 0.77242 0.86425 0.09056 0.0
H511 H 0.7497 0.82351 0.1062 0.0
H512 H 0.77563 0.83117 0.07234 0.0
H513 H 0.64121 0.84441 0.03745 0.0
H514 H 0.64558 0.83955 0.07894 0.0
H515 H 0.67372 0.87717 0.05974 0.0
H516 H 0.67318 0.84557 0.17154 0.0
H517 H 0.73573 0.93849 0.12705 0.0
H518 H 0.69161 0.79646 0.11913 0.0
H519 H 0.65428 0.79646 0.1105 0.0
H520 H 0.66568 0.79569 0.15086 0.0
H521 H 0.76655 0.94211 0.08084 0.0
H522 H 0.73301 0.91614 0.05519 0.0
H523 H 0.76405 0.90566 0.06373 0.0
C524 C 0.86362 0.67892 0.18489 0.0
C525 C 0.89786 0.69631 0.18132 0.0
C526 C 0.84854 0.68482 0.21056 0.0
C527 C 0.86823 0.70867 0.23328 0.0
C528 C 0.90257 0.72816 0.22846 0.0
C529 C 0.91705 0.72175 0.20244 0.0
C530 C 0.81175 0.66372 0.21456 0.0
C531 C 0.92431 0.75414 0.2519 0.0
C532 C 0.81725 0.72316 0.2937 0.0
C533 C 0.81258 0.69952 0.31642 0.0
C534 C 0.83744 0.72839 0.26736 0.0
C535 C 0.85317 0.7095 0.26383 0.0
C536 C 0.85064 0.68764 0.28805 0.0
C537 C 0.83036 0.68292 0.31403 0.0
C538 C 0.83993 0.75229 0.24229 0.0
C539 C 0.86727 0.66723 0.28541 0.0
H540 H 0.84866 0.65953 0.16837 0.0
H541 H 0.94357 0.73532 0.19976 0.0
H542 H 0.80638 0.64693 0.23489 0.0
H543 H 0.80058 0.67921 0.21966 0.0
H544 H 0.79969 0.64865 0.19332 0.0
H545 H 0.94892 0.77124 0.24186 0.0
H546 H 0.91277 0.76853 0.25993 0.0
H547 H 0.92777 0.74214 0.27291 0.0
H548 H 0.80359 0.73612 0.29544 0.0
H549 H 0.82716 0.66494 0.33176 0.0
H550 H 0.82373 0.7385 0.22224 0.0
H551 H 0.86542 0.76657 0.23314 0.0
H552 H 0.83222 0.76965 0.25129 0.0
H553 H 0.85553 0.64887 0.26628 0.0
H554 H 0.86556 0.65394 0.3076 0.0
H555 H 0.89359 0.68295 0.27923 0.0
C556 C 0.18903 0.86115 0.35331 0.0
C557 C 0.20651 0.89544 0.35038 0.0
C558 C 0.16876 0.84601 0.37936 0.0
C559 C 0.16581 0.86568 0.40299 0.0
C560 C 0.18123 0.90014 0.39889 0.0
C561 C 0.20153 0.91469 0.37258 0.0
C562 C 0.1525 0.80911 0.38267 0.0
C563 C 0.17814 0.92184 0.42328 0.0
C564 C 0.10078 0.81469 0.46343 0.0
C565 C 0.11961 0.80895 0.48549 0.0
C566 C 0.11574 0.83528 0.4374 0.0
C567 C 0.1502 0.85026 0.43346 0.0
C568 C 0.1695 0.84665 0.45704 0.0
C569 C 0.15394 0.82604 0.48279 0.0
C570 C 0.09442 0.83904 0.41306 0.0
C571 C 0.2064 0.86248 0.45389 0.0
H572 H 0.19242 0.84613 0.33598 0.0
H573 H 0.21488 0.94123 0.37037 0.0
H574 H 0.16395 0.80303 0.4025 0.0
H575 H 0.12601 0.7984 0.38819 0.0
H576 H 0.15489 0.79721 0.36098 0.0
H577 H 0.18584 0.94671 0.41382 0.0
H578 H 0.15248 0.91068 0.43198 0.0
H579 H 0.19402 0.92461 0.44375 0.0
H580 H 0.07421 0.80168 0.46547 0.0
H581 H 0.16865 0.82207 0.50003 0.0
H582 H 0.09161 0.8234 0.39237 0.0
H583 H 0.10595 0.86484 0.40473 0.0
H584 H 0.06953 0.83151 0.42241 0.0
H585 H 0.21238 0.85085 0.43413 0.0
H586 H 0.21806 0.8599 0.47566 0.0
H587 H 0.21748 0.88899 0.44836 0.0
C588 C 0.3434 0.19784 0.37427 0.0
C589 C 0.31515 0.20091 0.37256 0.0
C590 C 0.34404 0.17079 0.3609 0.0
C591 C 0.31588 0.14633 0.34509 0.0
C592 C 0.2876 0.14966 0.34249 0.0
C593 C 0.28754 0.1768 0.35632 0.0
C594 C 0.37465 0.16809 0.36421 0.0
C595 C 0.25712 0.12414 0.32568 0.0
C596 C 0.32478 0.08862 0.28819 0.0
C597 C 0.31332 0.06004 0.30641 0.0
C598 C 0.32595 0.11696 0.30053 0.0
C599 C 0.31564 0.1168 0.3319 0.0
C600 C 0.30454 0.08821 0.35058 0.0
C601 C 0.30336 0.06016 0.33756 0.0
C602 C 0.33785 0.14695 0.27987 0.0
C603 C 0.29366 0.08714 0.38426 0.0
H604 H 0.36507 0.21653 0.38622 0.0
H605 H 0.26544 0.17856 0.35511 0.0
H606 H 0.36885 0.14547 0.37746 0.0
H607 H 0.38368 0.16603 0.34064 0.0
H608 H 0.39472 0.18954 0.37667 0.0
H609 H 0.2377 0.13106 0.3245 0.0
H610 H 0.26335 0.1205 0.30135 0.0
H611 H 0.24699 0.1002 0.33803 0.0
H612 H 0.33251 0.08879 0.2641 0.0
H613 H 0.29455 0.03826 0.35187 0.0
H614 H 0.35899 0.1684 0.29115 0.0
H615 H 0.31805 0.15313 0.27701 0.0
H616 H 0.34553 0.14329 0.25615 0.0
H617 H 0.31362 0.10731 0.39804 0.0
H618 H 0.28682 0.06341 0.39595 0.0
H619 H 0.27216 0.09095 0.38495 0.0
C620 C 0.2466 0.3258 0.46226 0.0
C621 C 0.25836 0.30554 0.47367 0.0
C622 C 0.21865 0.32479 0.47538 0.0
C623 C 0.2018 0.30277 0.50036 0.0
C624 C 0.21319 0.28185 0.51167 0.0
C625 C 0.24143 0.28359 0.4983 0.0
C626 C 0.20755 0.34782 0.46292 0.0
C627 C 0.19583 0.25794 0.53819 0.0
C628 C 0.15172 0.32489 0.55501 0.0
C629 C 0.11973 0.3055 0.54319 0.0
C630 C 0.1785 0.32392 0.54152 0.0
C631 C 0.17324 0.30289 0.5156 0.0
C632 C 0.14097 0.28294 0.50374 0.0
C633 C 0.11461 0.28467 0.51755 0.0
C634 C 0.21255 0.34592 0.55465 0.0
C635 C 0.13435 0.2599 0.47639 0.0
H636 H 0.25952 0.34289 0.44329 0.0
H637 H 0.25026 0.26776 0.50723 0.0
H638 H 0.18158 0.33365 0.45507 0.0
H639 H 0.20877 0.36458 0.48197 0.0
H640 H 0.22286 0.36289 0.44287 0.0
H641 H 0.20658 0.24198 0.54295 0.0
H642 H 0.19735 0.2716 0.56003 0.0
H643 H 0.16937 0.24213 0.5325 0.0
H644 H 0.156 0.34153 0.57442 0.0
H645 H 0.08992 0.26951 0.50852 0.0
H646 H 0.22856 0.36322 0.53617 0.0
H647 H 0.22378 0.33101 0.56189 0.0
H648 H 0.21236 0.36039 0.57528 0.0
H649 H 0.14764 0.27413 0.45518 0.0
H650 H 0.10774 0.24513 0.47073 0.0
H651 H 0.14372 0.24292 0.48181 0.0
C652 C 0.82082 0.14523 0.70238 0.0
C653 C 0.81839 0.11417 0.70294 0.0
C654 C 0.84839 0.17266 0.68937 0.0
C655 C 0.87413 0.16899 0.67624 0.0
C656 C 0.87163 0.13767 0.67618 0.0
C657 C 0.84391 0.11072 0.68957 0.0
C658 C 0.85011 0.20564 0.68991 0.0
C659 C 0.89846 0.1327 0.66226 0.0
C660 C 0.93146 0.23307 0.61734 0.0
C661 C 0.95932 0.25265 0.63583 0.0
C662 C 0.9037 0.20574 0.63016 0.0
C663 C 0.90356 0.19788 0.66236 0.0
C664 C 0.93156 0.21755 0.6812 0.0
C665 C 0.95917 0.24455 0.66766 0.0
C666 C 0.87447 0.18527 0.6092 0.0
C667 C 0.93228 0.21021 0.71572 0.0
H668 H 0.80114 0.14818 0.71216 0.0
H669 H 0.84271 0.08712 0.69021 0.0
H670 H 0.87237 0.22372 0.70291 0.0
H671 H 0.85223 0.21501 0.66555 0.0
H672 H 0.82818 0.20445 0.7012 0.0
H673 H 0.89249 0.10666 0.66343 0.0
H674 H 0.90264 0.14067 0.63727 0.0
H675 H 0.92187 0.14809 0.67503 0.0
H676 H 0.93134 0.239 0.5927 0.0
H677 H 0.98049 0.2595 0.68217 0.0
H678 H 0.85236 0.18518 0.61861 0.0
H679 H 0.86908 0.15942 0.60895 0.0
H680 H 0.87855 0.19451 0.58459 0.0
H681 H 0.9116 0.21043 0.72819 0.0
H682 H 0.95567 0.22824 0.72726 0.0
H683 H 0.92901 0.18526 0.71856 0.0
C684 C 0.73082 0.95924 0.83004 0.0
C685 C 0.70983 0.95456 0.80458 0.0
C686 C 0.7319 0.93259 0.84385 0.0
C687 C 0.71137 0.90044 0.83206 0.0
C688 C 0.69021 0.89558 0.80633 0.0
C689 C 0.68977 0.92268 0.79286 0.0
C690 C 0.75484 0.93883 0.8712 0.0
C691 C 0.6677 0.86166 0.79327 0.0
C692 C 0.73102 0.83254 0.84984 0.0
C693 C 0.70961 0.81614 0.87494 0.0
C694 C 0.73222 0.8603 0.83592 0.0
C695 C 0.71126 0.87172 0.84716 0.0
C696 C 0.68961 0.85526 0.8725 0.0
C697 C 0.6891 0.82777 0.88609 0.0
C698 C 0.75588 0.8774 0.80916 0.0
C699 C 0.66662 0.86641 0.885 0.0
H700 H 0.74647 0.98377 0.83926 0.0
H701 H 0.67341 0.91876 0.77327 0.0
H702 H 0.74048 0.9256 0.89238 0.0
H703 H 0.77158 0.92917 0.86573 0.0
H704 H 0.7699 0.96538 0.87699 0.0
H705 H 0.65303 0.86207 0.77293 0.0
H706 H 0.68229 0.85019 0.78563 0.0
H707 H 0.65057 0.84575 0.8119 0.0
H708 H 0.74709 0.82384 0.84133 0.0
H709 H 0.67205 0.81491 0.90507 0.0
H710 H 0.77249 0.90363 0.81515 0.0
H711 H 0.74211 0.87673 0.78768 0.0
H712 H 0.77107 0.86593 0.80365 0.0
H713 H 0.68084 0.89241 0.89275 0.0
H714 H 0.65165 0.85124 0.90516 0.0
H715 H 0.64976 0.86511 0.86603 0.0
C716 C 0.78618 0.70127 0.95099 0.0
C717 C 0.76656 0.71037 0.96844 0.0
C718 C 0.8131 0.70073 0.96478 0.0
C719 C 0.82053 0.70926 0.99691 0.0
C720 C 0.80092 0.71858 0.01468 0.0
C721 C 0.77426 0.71915 0.0002 0.0
C722 C 0.83357 0.69095 0.94494 0.0
C723 C 0.80782 0.72757 0.04908 0.0
C724 C 0.87187 0.67903 0.03946 0.0
C725 C 0.90323 0.70721 0.03949 0.0
C726 C 0.84472 0.67941 0.02595 0.0
C727 C 0.84897 0.70858 0.0118 0.0
C728 C 0.88053 0.737 0.01143 0.0
C729 C 0.90718 0.73601 0.02532 0.0
C730 C 0.81145 0.64857 0.02684 0.0
C731 C 0.88611 0.76859 0.99654 0.0
H732 H 0.78054 0.69455 0.92642 0.0
H733 H 0.75922 0.72609 0.01394 0.0
H734 H 0.85957 0.71108 0.94475 0.0
H735 H 0.83313 0.66903 0.95526 0.0
H736 H 0.8247 0.68525 0.92023 0.0
H737 H 0.79118 0.73568 0.05919 0.0
H738 H 0.8048 0.70606 0.06268 0.0
H739 H 0.83361 0.74756 0.05226 0.0
H740 H 0.86851 0.65654 0.04993 0.0
H741 H 0.93101 0.75813 0.0256 0.0
H742 H 0.80232 0.64059 0.00251 0.0
H743 H 0.79345 0.65359 0.03896 0.0
H744 H 0.81212 0.62805 0.03917 0.0
H745 H 0.87863 0.76432 0.97141 0.0
H746 H 0.91221 0.78846 0.99792 0.0
H747 H 0.87063 0.77712 0.00841 0.0
C748 C 0.18456 0.90165 0.18519 0.0
C749 C 0.20057 0.89768 0.21131 0.0
C750 C 0.15754 0.87458 0.17111 0.0
C751 C 0.14639 0.84265 0.18321 0.0
C752 C 0.16272 0.83832 0.2092 0.0
C753 C 0.18946 0.86585 0.22301 0.0
C754 C 0.14066 0.8802 0.1435 0.0
C755 C 0.15168 0.80462 0.22269 0.0
C756 C 0.05869 0.77529 0.16615 0.0
C757 C 0.06331 0.75871 0.1409 0.0
C758 C 0.08548 0.80275 0.18005 0.0
C759 C 0.11768 0.81371 0.16862 0.0
C760 C 0.12251 0.79695 0.1433 0.0
C761 C 0.09528 0.76978 0.12967 0.0
C762 C 0.07932 0.82007 0.20693 0.0
C763 C 0.1565 0.80759 0.13075 0.0
H764 H 0.19312 0.92603 0.1758 0.0
H765 H 0.20104 0.86235 0.24352 0.0
H766 H 0.14139 0.86627 0.1227 0.0
H767 H 0.1144 0.87094 0.14918 0.0
H768 H 0.15222 0.90659 0.13704 0.0
H769 H 0.16764 0.80532 0.24235 0.0
H770 H 0.12609 0.79365 0.2315 0.0
H771 H 0.15177 0.78811 0.20403 0.0
H772 H 0.03409 0.76691 0.175 0.0
H773 H 0.09915 0.75702 0.11031 0.0
H774 H 0.08902 0.84631 0.2009 0.0
H775 H 0.09255 0.81936 0.22828 0.0
H776 H 0.05276 0.80882 0.21267 0.0
H777 H 0.1682 0.83334 0.1223 0.0
H778 H 0.15609 0.79178 0.11108 0.0
H779 H 0.17221 0.80683 0.14988 0.0
C780 C 0.92603 0.69808 0.54602 0.0
C781 C 0.95357 0.70576 0.52726 0.0
C782 C 0.89801 0.69718 0.53318 0.0
C783 C 0.89737 0.70381 0.50074 0.0
C784 C 0.92485 0.71095 0.48155 0.0
C785 C 0.95266 0.71199 0.49507 0.0
C786 C 0.86934 0.6898 0.55447 0.0
C787 C 0.92502 0.71778 0.44678 0.0
C788 C 0.81527 0.67743 0.4608 0.0
C789 C 0.81511 0.70725 0.459 0.0
C790 C 0.84175 0.67585 0.47444 0.0
C791 C 0.86855 0.70465 0.4871 0.0
C792 C 0.86819 0.73458 0.48627 0.0
C793 C 0.84167 0.73556 0.47212 0.0
C794 C 0.84132 0.64348 0.47478 0.0
C795 C 0.8962 0.76582 0.49976 0.0
H796 H 0.92652 0.69326 0.57092 0.0
H797 H 0.97371 0.71766 0.48035 0.0
H798 H 0.86535 0.71118 0.55501 0.0
H799 H 0.84651 0.66858 0.54519 0.0
H800 H 0.87328 0.68418 0.57896 0.0
H801 H 0.94814 0.72244 0.43509 0.0
H802 H 0.904 0.69662 0.43504 0.0
H803 H 0.92198 0.73952 0.44319 0.0
H804 H 0.79481 0.65524 0.45134 0.0
H805 H 0.84239 0.75889 0.47072 0.0
H806 H 0.84369 0.63675 0.49929 0.0
H807 H 0.86266 0.64578 0.46135 0.0
H808 H 0.81844 0.6232 0.46438 0.0
H809 H 0.90044 0.76197 0.52471 0.0
H810 H 0.89149 0.78676 0.49857 0.0
H811 H 0.91917 0.77257 0.48666 0.0
C812 C 0.24618 0.91949 0.70438 0.0
C813 C 0.25711 0.95103 0.69211 0.0
C814 C 0.21901 0.89173 0.69132 0.0
C815 C 0.20215 0.89558 0.6655 0.0
C816 C 0.21312 0.92733 0.65291 0.0
C817 C 0.24052 0.95464 0.66628 0.0
C818 C 0.20832 0.85827 0.70518 0.0
C819 C 0.19575 0.9325 0.62546 0.0
C820 C 0.14849 0.82253 0.61284 0.0
C821 C 0.11679 0.81285 0.62417 0.0
C822 C 0.1765 0.84899 0.62643 0.0
C823 C 0.17282 0.86645 0.65183 0.0
C824 C 0.14103 0.85647 0.66377 0.0
C825 C 0.11348 0.82974 0.64991 0.0
C826 C 0.21 0.85875 0.61311 0.0
C827 C 0.13604 0.87448 0.69078 0.0
H828 H 0.25893 0.9164 0.72421 0.0
H829 H 0.24876 0.97888 0.65661 0.0
H830 H 0.18271 0.84715 0.71399 0.0
H831 H 0.20858 0.84167 0.6867 0.0
H832 H 0.2244 0.85937 0.72489 0.0
H833 H 0.20748 0.95872 0.61831 0.0
H834 H 0.19566 0.91784 0.60492 0.0
H835 H 0.16972 0.92379 0.63173 0.0
H836 H 0.15151 0.81019 0.59267 0.0
H837 H 0.08919 0.82225 0.65906 0.0
H838 H 0.22652 0.85935 0.63211 0.0
H839 H 0.22126 0.88386 0.60306 0.0
H840 H 0.20884 0.84166 0.59439 0.0
H841 H 0.15036 0.87455 0.71158 0.0
H842 H 0.10978 0.86331 0.69766 0.0
H843 H 0.14528 0.90049 0.68412 0.0
C844 C 0.29674 0.24127 0.83186 0.0
C845 C 0.30228 0.24735 0.86428 0.0
C846 C 0.29751 0.21459 0.81766 0.0
C847 C 0.30387 0.19336 0.83633 0.0
C848 C 0.30931 0.19927 0.86908 0.0
C849 C 0.30852 0.22618 0.88262 0.0
C850 C 0.29177 0.2093 0.78263 0.0
C851 C 0.31595 0.17712 0.88986 0.0
C852 C 0.27583 0.10714 0.80581 0.0
C853 C 0.30519 0.11015 0.79397 0.0
C854 C 0.27511 0.13393 0.81971 0.0
C855 C 0.30441 0.1647 0.82176 0.0
C856 C 0.33417 0.16796 0.8101 0.0
C857 C 0.33423 0.14067 0.79649 0.0
C858 C 0.24285 0.1294 0.83189 0.0
C859 C 0.36595 0.20035 0.81185 0.0
H860 H 0.29204 0.25751 0.81743 0.0
H861 H 0.31279 0.23058 0.90769 0.0
H862 H 0.31413 0.21185 0.77105 0.0
H863 H 0.27142 0.18404 0.7778 0.0
H864 H 0.28566 0.22709 0.77173 0.0
H865 H 0.31975 0.1851 0.91489 0.0
H866 H 0.29503 0.15157 0.88854 0.0
H867 H 0.33812 0.1767 0.88144 0.0
H868 H 0.25309 0.08402 0.80359 0.0
H869 H 0.35712 0.14327 0.78783 0.0
H870 H 0.23645 0.1461 0.81918 0.0
H871 H 0.24513 0.136 0.85722 0.0
H872 H 0.22235 0.10377 0.82902 0.0
H873 H 0.36333 0.21953 0.79908 0.0
H874 H 0.38698 0.1989 0.80159 0.0
H875 H 0.37175 0.20842 0.83673 0.0
C876 C 0.05553 0.2523 0.02003 0.0
C877 C 0.04679 0.27674 0.01711 0.0
C878 C 0.08622 0.25764 0.00966 0.0
C879 C 0.10878 0.28814 0.99587 0.0
C880 C 0.10046 0.31323 0.99349 0.0
C881 C 0.06959 0.30727 0.00421 0.0
C882 C 0.09417 0.2303 0.01278 0.0
C883 C 0.12379 0.34604 0.9788 0.0
C884 C 0.19833 0.30975 0.98881 0.0
C885 C 0.19987 0.30108 0.95745 0.0
C886 C 0.16894 0.30587 0.00162 0.0
C887 C 0.14038 0.2931 0.98261 0.0
C888 C 0.14171 0.28421 0.95101 0.0
C889 C 0.17131 0.28814 0.9389 0.0
C890 C 0.16847 0.31554 0.03545 0.0
C891 C 0.11181 0.27043 0.92994 0.0
H892 H 0.03818 0.22868 0.0301 0.0
H893 H 0.06301 0.32625 0.00176 0.0
H894 H 0.09723 0.22227 0.98906 0.0
H895 H 0.11775 0.23922 0.02553 0.0
H896 H 0.07466 0.20865 0.0255 0.0
H897 H 0.11441 0.36355 0.98025 0.0
H898 H 0.1481 0.35714 0.9906 0.0
H899 H 0.12771 0.34254 0.95364 0.0
H900 H 0.22025 0.32015 0.00326 0.0
H901 H 0.17199 0.28083 0.91486 0.0
H902 H 0.14989 0.29402 0.04896 0.0
H903 H 0.1612 0.33467 0.03658 0.0
H904 H 0.19275 0.32513 0.04711 0.0
H905 H 0.0919 0.24716 0.94 0.0
H906 H 0.11714 0.26551 0.90567 0.0
H907 H 0.10237 0.28786 0.92858 0.0
C908 C 0.7843 0.05424 0.17218 0.0
C909 C 0.76243 0.05913 0.19083 0.0
C910 C 0.8127 0.08101 0.15954 0.0
C911 C 0.81894 0.11338 0.1651 0.0
C912 C 0.79694 0.11843 0.18395 0.0
C913 C 0.76914 0.09125 0.19686 0.0
C914 C 0.83585 0.07465 0.14 0.0
C915 C 0.80229 0.15249 0.18978 0.0
C916 C 0.90414 0.18712 0.15132 0.0
C917 C 0.90098 0.19712 0.12095 0.0
C918 C 0.87789 0.15956 0.16579 0.0
C919 C 0.84747 0.14187 0.14982 0.0
C920 C 0.84401 0.15168 0.11927 0.0
C921 C 0.87079 0.17879 0.10512 0.0
C922 C 0.88266 0.14939 0.1982 0.0
C923 C 0.81184 0.1337 0.10153 0.0
H924 H 0.77934 0.02945 0.16761 0.0
H925 H 0.7522 0.09516 0.21109 0.0
H926 H 0.83625 0.08277 0.1154 0.0
H927 H 0.86126 0.08909 0.14931 0.0
H928 H 0.82867 0.04824 0.1397 0.0
H929 H 0.78326 0.15228 0.20552 0.0
H930 H 0.8268 0.1683 0.20052 0.0
H931 H 0.80187 0.16393 0.16705 0.0
H932 H 0.92703 0.20084 0.16403 0.0
H933 H 0.86778 0.18528 0.08145 0.0
H934 H 0.87657 0.12332 0.1979 0.0
H935 H 0.86569 0.1513 0.21515 0.0
H936 H 0.90825 0.16477 0.20689 0.0
H937 H 0.80501 0.10765 0.09793 0.0
H938 H 0.81297 0.14485 0.07817 0.0
H939 H 0.79189 0.13377 0.11552 0.0
C940 C 0.73452 0.9027 0.30776 0.0
C941 C 0.70618 0.89961 0.29331 0.0
C942 C 0.73464 0.87546 0.32124 0.0
C943 C 0.70582 0.84423 0.32009 0.0
C944 C 0.67697 0.84097 0.3061 0.0
C945 C 0.67744 0.86869 0.2931 0.0
C946 C 0.76585 0.87998 0.33618 0.0
C947 C 0.64575 0.80806 0.30439 0.0
C948 C 0.71592 0.76897 0.32718 0.0
C949 C 0.70714 0.75989 0.3587 0.0
C950 C 0.71525 0.79615 0.3142 0.0
C951 C 0.70598 0.81493 0.33331 0.0
C952 C 0.69713 0.8059 0.36515 0.0
C953 C 0.69763 0.77838 0.3774 0.0
C954 C 0.72446 0.80473 0.28002 0.0
C955 C 0.6874 0.82547 0.38636 0.0
H956 H 0.75701 0.92621 0.30778 0.0
H957 H 0.65526 0.86604 0.28252 0.0
H958 H 0.76099 0.87088 0.36081 0.0
H959 H 0.77462 0.86529 0.3232 0.0
H960 H 0.78578 0.90609 0.33627 0.0
H961 H 0.62534 0.80969 0.29292 0.0
H962 H 0.65028 0.79042 0.29097 0.0
H963 H 0.63785 0.79784 0.32841 0.0
H964 H 0.7231 0.75469 0.31253 0.0
H965 H 0.69093 0.77162 0.40182 0.0
H966 H 0.74588 0.82993 0.27813 0.0
H967 H 0.7038 0.8045 0.2671 0.0
H968 H 0.7307 0.78738 0.26827 0.0
H969 H 0.70782 0.85127 0.38786 0.0
H970 H 0.68113 0.81517 0.41055 0.0
H971 H 0.66587 0.82607 0.37635 0.0
C972 C 0.44418 0.45044 0.42166 0.0
C973 C 0.44538 0.42114 0.42154 0.0
C974 C 0.47299 0.48116 0.41895 0.0
C975 C 0.50374 0.48266 0.41575 0.0
C976 C 0.50509 0.45321 0.41502 0.0
C977 C 0.47598 0.42289 0.4181 0.0
C978 C 0.47056 0.51203 0.41982 0.0
C979 C 0.53738 0.45374 0.41138 0.0
C980 C 0.57567 0.55851 0.37981 0.0
C981 C 0.59462 0.57468 0.40644 0.0
C982 C 0.54587 0.52885 0.38257 0.0
C983 C 0.53456 0.51496 0.41273 0.0
C984 C 0.5533 0.53136 0.43979 0.0
C985 C 0.58324 0.56095 0.4363 0.0
C986 C 0.5269 0.51196 0.35311 0.0
C987 C 0.54188 0.51744 0.47236 0.0
H988 H 0.42067 0.44939 0.42398 0.0
H989 H 0.47738 0.40055 0.41865 0.0
H990 H 0.48552 0.52796 0.43956 0.0
H991 H 0.48066 0.52621 0.39776 0.0
H992 H 0.44482 0.50669 0.42271 0.0
H993 H 0.53414 0.42864 0.41049 0.0
H994 H 0.54992 0.46695 0.38949 0.0
H995 H 0.55387 0.46723 0.43136 0.0
H996 H 0.58464 0.56863 0.3566 0.0
H997 H 0.59774 0.57341 0.45693 0.0
H998 H 0.50141 0.50753 0.35475 0.0
H999 H 0.52523 0.48764 0.35066 0.0
H1000 H 0.53852 0.52654 0.33151 0.0
H1001 H 0.51681 0.5134 0.47669 0.0
H1002 H 0.55857 0.53383 0.49106 0.0
H1003 H 0.54046 0.4932 0.47428 0.0
C1004 C 0.99653 0.43926 0.58512 0.0
C1005 C 0.02731 0.44111 0.58696 0.0
C1006 C 0.99401 0.46782 0.58317 0.0
C1007 C 0.02294 0.499 0.58241 0.0
C1008 C 0.05405 0.50106 0.58361 0.0
C1009 C 0.05584 0.47221 0.58622 0.0
C1010 C 0.96039 0.46467 0.58221 0.0
C1011 C 0.08552 0.53381 0.58239 0.0
C1012 C 0.02015 0.57203 0.54761 0.0
C1013 C 0.02148 0.58985 0.57465 0.0
C1014 C 0.02005 0.54218 0.54984 0.0
C1015 C 0.0209 0.52958 0.57987 0.0
C1016 C 0.02145 0.54707 0.60733 0.0
C1017 C 0.0221 0.57723 0.60438 0.0
C1018 C 0.02018 0.52472 0.51999 0.0
C1019 C 0.02187 0.53416 0.63977 0.0
H1020 H 0.97431 0.41546 0.58531 0.0
H1021 H 0.07977 0.47422 0.58844 0.0
H1022 H 0.95776 0.47864 0.602 0.0
H1023 H 0.95741 0.47544 0.56007 0.0
H1024 H 0.94028 0.43869 0.58374 0.0
H1025 H 0.10775 0.53112 0.58248 0.0
H1026 H 0.08598 0.5474 0.56084 0.0
H1027 H 0.08681 0.54905 0.6029 0.0
H1028 H 0.02028 0.58202 0.52456 0.0
H1029 H 0.02308 0.59096 0.62528 0.0
H1030 H 0.9994 0.49907 0.52011 0.0
H1031 H 0.0432 0.52355 0.51866 0.0
H1032 H 0.01834 0.53721 0.4985 0.0
H1033 H 1.00112 0.50864 0.64234 0.0
H1034 H 0.02011 0.54956 0.6587 0.0
H1035 H 0.04492 0.53339 0.64312 0.0
C1036 C 0.5961 0.05938 0.75086 0.0
C1037 C 0.5973 0.03021 0.75396 0.0
C1038 C 0.566 0.05882 0.74812 0.0
C1039 C 0.53623 0.02837 0.74876 0.0
C1040 C 0.53719 0.99881 0.75166 0.0
C1041 C 0.56767 1.00007 0.7541 0.0
C1042 C 0.56606 0.09088 0.74485 0.0
C1043 C 0.50598 0.96585 0.75238 0.0
C1044 C 0.458 0.02998 0.76958 0.0
C1045 C 0.44422 0.02776 0.73975 0.0
C1046 C 0.48769 0.02969 0.77295 0.0
C1047 C 0.50413 0.0275 0.74582 0.0
C1048 C 0.4903 0.02525 0.71568 0.0
C1049 C 0.46057 0.02538 0.71304 0.0
C1050 C 0.50158 0.03191 0.8055 0.0
C1051 C 0.50719 0.02328 0.68615 0.0
H1052 H 0.61871 0.08285 0.75139 0.0
H1053 H 0.5683 0.97738 0.75617 0.0
H1054 H 0.55308 0.0907 0.72295 0.0
H1055 H 0.55261 0.09394 0.76486 0.0
H1056 H 0.59134 0.11243 0.74421 0.0
H1057 H 0.51089 0.94516 0.75517 0.0
H1058 H 0.49011 0.9651 0.77213 0.0
H1059 H 0.49191 0.96212 0.7303 0.0
H1060 H 0.44543 0.03171 0.79029 0.0
H1061 H 0.45045 0.02435 0.68984 0.0
H1062 H 0.52609 0.05435 0.8074 0.0
H1063 H 0.50506 0.01053 0.80977 0.0
H1064 H 0.48541 0.03263 0.82423 0.0
H1065 H 0.53175 0.04563 0.68402 0.0
H1066 H 0.49284 0.02096 0.66454 0.0
H1067 H 0.51113 1.00189 0.68744 0.0
C1068 C 0.5832 0.5593 0.91547 0.0
C1069 C 0.58056 0.58785 0.91596 0.0
C1070 C 0.55511 0.52789 0.91386 0.0
C1071 C 0.52361 0.52487 0.91185 0.0
C1072 C 0.52078 0.55349 0.9112 0.0
C1073 C 0.54913 0.58448 0.9137 0.0
C1074 C 0.55908 0.49792 0.91504 0.0
C1075 C 0.48767 0.55139 0.90846 0.0
C1076 C 0.45064 0.44676 0.88045 0.0
C1077 C 0.4326 0.43269 0.90802 0.0
C1078 C 0.48075 0.47634 0.88141 0.0
C1079 C 0.49341 0.49188 0.91075 0.0
C1080 C 0.47594 0.47698 0.93883 0.0
C1081 C 0.44546 0.44776 0.93708 0.0
C1082 C 0.49813 0.49178 0.85088 0.0
C1083 C 0.48895 0.49243 0.97062 0.0
H1084 H 0.60724 0.56141 0.9167 0.0
H1085 H 0.54639 0.60604 0.91482 0.0
H1086 H 0.54573 0.48263 0.93574 0.0
H1087 H 0.54809 0.48258 0.89376 0.0
H1088 H 0.58527 0.50441 0.91661 0.0
H1089 H 0.48984 0.57597 0.90622 0.0
H1090 H 0.47421 0.53639 0.88765 0.0
H1091 H 0.47258 0.53903 0.92955 0.0
H1092 H 0.44041 0.43539 0.8579 0.0
H1093 H 0.43146 0.43685 0.95838 0.0
H1094 H 0.5241 0.49759 0.85188 0.0
H1095 H 0.49835 0.51529 0.8472 0.0
H1096 H 0.48609 0.4756 0.83027 0.0
H1097 H 0.51481 0.49822 0.97344 0.0
H1098 H 0.4741 0.4762 0.99029 0.0
H1099 H 0.48878 0.51592 0.97242 0.0
C1100 C 0.02356 0.45123 0.0786 0.0
C1101 C 0.99319 0.42217 0.07524 0.0
C1102 C 0.02539 0.48203 0.08045 0.0
C1103 C 0.99615 0.48382 0.07932 0.0
C1104 C 0.96548 0.45466 0.076 0.0
C1105 C 0.96441 0.42435 0.07369 0.0
C1106 C 0.05859 0.51265 0.08371 0.0
C1107 C 0.93367 0.45541 0.07504 0.0
C1108 C 0.99439 0.55651 0.11636 0.0
C1109 C 0.99484 0.57456 0.08985 0.0
C1110 C 0.99539 0.5273 0.11324 0.0
C1111 C 0.99727 0.51595 0.08286 0.0
C1112 C 0.99836 0.53438 0.05597 0.0
C1113 C 0.99678 0.56335 0.05978 0.0
C1114 C 0.99344 0.50807 0.14248 0.0
C1115 C 1.00079 0.52328 0.02321 0.0
H1116 H 0.04594 0.44993 0.07998 0.0
H1117 H 0.94086 0.40231 0.07014 0.0
H1118 H 0.06207 0.53029 0.06467 0.0
H1119 H 0.05994 0.52495 0.10643 0.0
H1120 H 0.0791 0.50727 0.08275 0.0
H1121 H 0.91182 0.43049 0.07257 0.0
H1122 H 0.93094 0.46677 0.09692 0.0
H1123 H 0.93399 0.47074 0.05503 0.0
H1124 H 0.99232 0.56482 0.13964 0.0
H1125 H 0.99723 0.57733 0.03928 0.0
H1126 H 0.01467 0.50386 0.14344 0.0
H1127 H 0.97081 0.48359 0.14174 0.0
H1128 H 0.99311 0.5208 0.16442 0.0
H1129 H 0.02212 0.51924 0.02166 0.0
H1130 H 1.00349 0.5414 0.00494 0.0
H1131 H 0.97843 0.49949 0.01789 0.0
C1132 C 0.45199 0.01574 0.25223 0.0
C1133 C 0.42276 0.98528 0.25349 0.0
C1134 C 0.48265 0.01758 0.24864 0.0
C1135 C 0.48413 0.98828 0.24598 0.0
C1136 C 0.45473 0.95751 0.24668 0.0
C1137 C 0.42449 0.95638 0.25058 0.0
C1138 C 0.51348 0.05085 0.24802 0.0
C1139 C 0.45524 0.9257 0.24372 0.0
C1140 C 0.55866 0.99034 0.20856 0.0
C1141 C 0.57559 0.98834 0.23496 0.0
C1142 C 0.52922 0.99095 0.21185 0.0
C1143 C 0.51637 0.98965 0.2423 0.0
C1144 C 0.53362 0.98824 0.26911 0.0
C1145 C 0.56295 0.98743 0.26511 0.0
C1146 C 0.51141 0.99206 0.18267 0.0
C1147 C 0.52081 0.98708 0.30198 0.0
H1148 H 0.45093 0.0382 0.25416 0.0
H1149 H 0.40223 0.93269 0.25222 0.0
H1150 H 0.53011 0.05261 0.26743 0.0
H1151 H 0.52692 0.05404 0.22561 0.0
H1152 H 0.50815 0.0713 0.25045 0.0
H1153 H 0.43014 0.90384 0.24385 0.0
H1154 H 0.46772 0.9256 0.22155 0.0
H1155 H 0.46945 0.92342 0.26347 0.0
H1156 H 0.56794 0.99043 0.18515 0.0
H1157 H 0.57603 0.98608 0.28557 0.0
H1158 H 0.50689 0.01308 0.18396 0.0
H1159 H 0.48707 0.96933 0.18112 0.0
H1160 H 0.52537 0.99436 0.16077 0.0
H1161 H 0.51683 0.00822 0.30578 0.0
H1162 H 0.53789 0.98759 0.32038 0.0
H1163 H 0.49669 0.96437 0.305 0.0
C1164 C 0.32118 0.31593 0.73862 0.0
C1165 C 0.33035 0.34817 0.74772 0.0
C1166 C 0.32319 0.30821 0.70701 0.0
C1167 C 0.33512 0.3334 0.68405 0.0
C1168 C 0.34369 0.36576 0.6929 0.0
C1169 C 0.34095 0.37266 0.72451 0.0
C1170 C 0.31343 0.27331 0.69835 0.0
C1171 C 0.3567 0.39337 0.66913 0.0
C1172 C 0.37782 0.32625 0.61121 0.0
C1173 C 0.35433 0.31952 0.58763 0.0
C1174 C 0.37157 0.33013 0.64274 0.0
C1175 C 0.34081 0.32664 0.65112 0.0
C1176 C 0.31645 0.31862 0.62776 0.0
C1177 C 0.32358 0.31539 0.59626 0.0
C1178 C 0.39829 0.33888 0.66694 0.0
C1179 C 0.28316 0.31422 0.63592 0.0
H1180 H 0.31316 0.29681 0.75624 0.0
H1181 H 0.34733 0.39743 0.73099 0.0
H1182 H 0.29648 0.26501 0.67787 0.0
H1183 H 0.33557 0.27208 0.69134 0.0
H1184 H 0.30129 0.25599 0.71818 0.0
H1185 H 0.36126 0.41695 0.67965 0.0
H1186 H 0.38009 0.39702 0.65898 0.0
H1187 H 0.33903 0.38699 0.64941 0.0
H1188 H 0.40132 0.32869 0.60512 0.0
H1189 H 0.30526 0.3104 0.57835 0.0
H1190 H 0.38909 0.32065 0.68634 0.0
H1191 H 0.40545 0.3632 0.67744 0.0
H1192 H 0.42057 0.33988 0.6567 0.0
H1193 H 0.27196 0.29649 0.65559 0.0
H1194 H 0.26602 0.30534 0.61554 0.0
H1195 H 0.28594 0.33796 0.64397 0.0
C1196 C 1.00574 0.32736 0.75984 0.0
C1197 C 0.03721 0.35275 0.75185 0.0
C1198 C 0.99576 0.32091 0.79144 0.0
C1199 C 0.01807 0.33999 0.81551 0.0
C1200 C 0.0504 0.36468 0.80755 0.0
C1201 C 0.05946 0.37098 0.77576 0.0
C1202 C 0.96096 0.29464 0.79897 0.0
C1203 C 0.07517 0.38495 0.83256 0.0
C1204 C 0.98479 0.352 0.89267 0.0
C1205 C 0.98685 0.32914 0.91248 0.0
C1206 C 0.99433 0.35529 0.86099 0.0
C1207 C 1.00701 0.33581 0.84882 0.0
C1208 C 0.00963 0.31298 0.86859 0.0
C1209 C 0.99923 0.30968 0.90007 0.0
C1210 C 0.9909 0.37975 0.84055 0.0
C1211 C 0.02353 0.29214 0.85652 0.0
H1212 H 0.9886 0.31333 0.74125 0.0
H1213 H 0.08402 0.39015 0.76952 0.0
H1214 H 0.96091 0.27733 0.81677 0.0
H1215 H 0.94742 0.30618 0.80927 0.0
H1216 H 0.94749 0.28044 0.77775 0.0
H1217 H 0.10005 0.40111 0.82257 0.0
H1218 H 0.06708 0.40056 0.84485 0.0
H1219 H 0.07687 0.36867 0.85049 0.0
H1220 H 0.97591 0.36764 0.90184 0.0
H1221 H 1.00063 0.2916 0.91473 0.0
H1222 H 0.97584 0.36722 0.81947 0.0
H1223 H 0.01545 0.39888 0.8321 0.0
H1224 H 0.97928 0.39203 0.85326 0.0
H1225 H 1.00822 0.2764 0.83684 0.0
H1226 H 0.0247 0.27612 0.87513 0.0
H1227 H 0.04867 0.30811 0.84709 0.0
C1228 C 0.71992 0.0263 0.92941 0.0
C1229 C 0.69915 0.03726 0.91745 0.0
C1230 C 0.71668 0.01493 0.96053 0.0
C1231 C 0.69228 0.01479 0.98025 0.0
C1232 C 0.67164 0.02633 0.96852 0.0
C1233 C 0.67523 0.03725 0.93728 0.0
C1234 C 0.73909 1.00273 0.97217 0.0
C1235 C 0.6454 0.0267 0.98886 0.0
C1236 C 0.65722 0.95677 0.04979 0.0
C1237 C 0.67308 0.97784 0.07522 0.0
C1238 C 0.66424 0.9682 0.01867 0.0
C1239 C 0.68741 1.00163 0.01288 0.0
C1240 C 0.70424 0.02283 0.03843 0.0
C1241 C 0.69698 0.0106 0.06934 0.0
C1242 C 0.64621 0.94467 0.99204 0.0
C1243 C 0.72897 0.05868 0.03324 0.0
H1244 H 0.7389 0.02676 0.91454 0.0
H1245 H 0.6588 0.04524 0.92822 0.0
H1246 H 0.75259 0.01669 0.99342 0.0
H1247 H 0.72427 0.97652 0.97913 0.0
H1248 H 0.75724 1.00507 0.95406 0.0
H1249 H 0.63233 0.03775 0.97661 0.0
H1250 H 0.6271 1.00125 0.99588 0.0
H1251 H 0.6565 0.0408 0.01078 0.0
H1252 H 0.63922 0.93128 0.0543 0.0
H1253 H 0.70914 0.02695 0.08899 0.0
H1254 H 0.66398 0.94536 0.97438 0.0
H1255 H 0.6301 0.95222 0.9799 0.0
H1256 H 0.6308 0.91897 0.00039 0.0
H1257 H 0.74761 0.06135 0.01562 0.0
H1258 H 0.7418 0.07121 0.05534 0.0
H1259 H 0.7163 0.07142 0.02369 0.0
C1260 C 0.6429 0.67477 0.10659 0.0
C1261 C 0.66736 0.68517 0.08333 0.0
C1262 C 0.64979 0.67193 0.13817 0.0
C1263 C 0.6821 0.68019 0.14694 0.0
C1264 C 0.7072 0.69166 0.12388 0.0
C1265 C 0.69949 0.69378 0.09232 0.0
C1266 C 0.62227 0.65936 0.16205 0.0
C1267 C 0.74205 0.70109 0.13246 0.0
C1268 C 0.70073 0.6936 0.23449 0.0
C1269 C 0.69644 0.66299 0.24381 0.0
C1270 C 0.69734 0.70004 0.20282 0.0
C1271 C 0.68899 0.67513 0.18 0.0
C1272 C 0.6853 0.64448 0.18907 0.0
C1273 C 0.68935 0.63891 0.22075 0.0
C1274 C 0.70192 0.73321 0.19393 0.0
C1275 C 0.67616 0.61718 0.16544 0.0
H1276 H 0.6182 0.66877 0.10023 0.0
H1277 H 0.71859 0.70158 0.07466 0.0
H1278 H 0.61869 0.63622 0.17269 0.0
H1279 H 0.62872 0.67743 0.18141 0.0
H1280 H 0.59861 0.65455 0.1515 0.0
H1281 H 0.75916 0.71169 0.1122 0.0
H1282 H 0.75099 0.71928 0.15195 0.0
H1283 H 0.74283 0.67916 0.14097 0.0
H1284 H 0.70596 0.71236 0.25197 0.0
H1285 H 0.68675 0.61549 0.22739 0.0
H1286 H 0.6782 0.73041 0.18577 0.0
H1287 H 0.7196 0.74389 0.17413 0.0
H1288 H 0.71098 0.75079 0.21396 0.0
H1289 H 0.65175 0.60991 0.15509 0.0
H1290 H 0.67513 0.59511 0.17616 0.0
H1291 H 0.69419 0.62582 0.14585 0.0
C1292 C 0.96659 0.63923 0.27633 0.0
C1293 C 0.98202 0.66309 0.25275 0.0
C1294 C 0.97733 0.64562 0.30768 0.0
C1295 C 1.00381 0.67687 0.31593 0.0
C1296 C 0.01898 0.70144 0.29257 0.0
C1297 C 1.0081 0.69418 0.26124 0.0
C1298 C 0.96068 0.61866 0.33189 0.0
C1299 C 0.04698 0.73525 0.30059 0.0
C1300 C 0.01194 0.6975 0.40314 0.0
C1301 C 0.03649 0.69043 0.4125 0.0
C1302 C 1.00188 0.69436 0.37157 0.0
C1303 C 0.01622 0.68327 0.34886 0.0
C1304 C 0.04128 0.67657 0.35794 0.0
C1305 C 0.05131 0.68052 0.38952 0.0
C1306 C 0.97536 0.70216 0.36268 0.0
C1307 C 0.05698 0.66441 0.33443 0.0
H1308 H 0.94601 0.6154 0.27042 0.0
H1309 H 0.02052 0.71279 0.24338 0.0
H1310 H 0.9789 0.613 0.34249 0.0
H1311 H 0.95059 0.62691 0.35122 0.0
H1312 H 0.94035 0.59571 0.32165 0.0
H1313 H 0.05488 0.75217 0.28007 0.0
H1314 H 0.0396 0.74613 0.31995 0.0
H1315 H 0.06838 0.73346 0.30908 0.0
H1316 H 0.99996 0.70484 0.4205 0.0
H1317 H 0.07073 0.67566 0.3961 0.0
H1318 H 0.95266 0.67921 0.35602 0.0
H1319 H 0.98308 0.71872 0.34193 0.0
H1320 H 0.96937 0.71398 0.38227 0.0
H1321 H 0.03802 0.64055 0.32444 0.0
H1322 H 0.0767 0.66104 0.34513 0.0
H1323 H 0.06762 0.68198 0.31457 0.0
C1324 C 0.32061 0.02084 0.56728 0.0
C1325 C 0.35239 0.03414 0.57992 0.0
C1326 C 0.31385 0.00916 0.53617 0.0
C1327 C 0.33955 0.01116 0.51713 0.0
C1328 C 0.37168 0.02476 0.52961 0.0
C1329 C 0.37765 0.03588 0.56086 0.0
C1330 C 0.27922 0.99465 0.5237 0.0
C1331 C 0.39979 0.02746 0.50997 0.0
C1332 C 0.32153 0.95569 0.44606 0.0
C1333 C 0.3252 0.97692 0.42125 0.0
C1334 C 0.32511 0.9662 0.47747 0.0
C1335 C 0.33301 0.99889 0.48415 0.0
C1336 C 0.33623 0.0203 0.45919 0.0
C1337 C 0.3321 0.00897 0.42803 0.0
C1338 C 0.32083 0.94247 0.50349 0.0
C1339 C 0.34493 0.05542 0.46533 0.0
H1340 H 0.30101 0.01985 0.58154 0.0
H1341 H 0.40213 0.04559 0.57045 0.0
H1342 H 0.27889 0.00899 0.5031 0.0
H1343 H 0.27023 0.96911 0.5155 0.0
H1344 H 0.26189 0.99434 0.54173 0.0
H1345 H 0.42349 0.0394 0.52297 0.0
H1346 H 0.39444 1.00265 0.50242 0.0
H1347 H 0.40261 0.04189 0.48834 0.0
H1348 H 0.31557 0.93072 0.44086 0.0
H1349 H 0.33512 0.02546 0.40884 0.0
H1350 H 0.30236 0.94092 0.52077 0.0
H1351 H 0.34438 0.95146 0.51632 0.0
H1352 H 0.31286 0.91739 0.49442 0.0
H1353 H 0.32745 0.0562 0.48242 0.0
H1354 H 0.34468 0.06828 0.44346 0.0
H1355 H 0.36981 0.0691 0.47596 0.0
loop_
_geom_bond_atom_site_label_1
_geom_bond_atom_site_label_2
_geom_bond_distance
_geom_bond_site_symmetry_2
_ccdc_geom_bond_type
C0 C1 1.351 . S
C0 N3 1.368 . S
C0 H5 0.931 . S
C1 C0 1.351 . S
C1 N2 1.373 . S
C1 H29 0.930 . S
N2 C1 1.373 . S
N2 C4 1.340 . S
N3 C0 1.368 . S
N3 C4 1.321 . S
N3 Co6 2.135 . S
C4 N2 1.340 . S
C4 N3 1.321 . S
C4 H28 0.930 . S
H5 C0 0.931 . S
Co6 N3 2.135 . S
Co6 N9 2.121 . S
Co6 O14 2.055 . S
Co6 O17 2.039 . S
Co6 N20 2.140 . S
C7 O8 1.227 . S
C7 O17 1.265 . S
O8 C7 1.227 . S
N9 Co6 2.121 . S
N9 C11 1.375 . S
N9 C12 1.313 . S
C10 C11 1.338 . S
C10 N13 1.377 . S
C10 H30 0.930 . S
C11 N9 1.375 . S
C11 C10 1.338 . S
C11 H15 0.931 . S
C12 N9 1.313 . S
C12 N13 1.344 . S
C12 H16 0.930 . S
N13 C10 1.377 . S
N13 C12 1.344 . S
O14 Co6 2.055 . S
O14 C18 1.253 . S
H15 C11 0.931 . S
H16 C12 0.930 . S
O17 Co6 2.039 . S
O17 C7 1.265 . S
C18 O14 1.253 . S
C18 O19 1.227 . S
O19 C18 1.227 . S
N20 Co6 2.140 . S
N20 C23 1.346 . S
N20 C24 1.345 . S
C21 C22 1.387 . S
C21 C25 1.391 . S
C22 C21 1.387 . S
C22 C23 1.369 . S
C22 H31 0.929 . S
C23 N20 1.346 . S
C23 C22 1.369 . S
C23 H26 0.928 . S
C24 N20 1.345 . S
C24 C25 1.371 . S
C24 H27 0.931 . S
C25 C21 1.391 . S
C25 C24 1.371 . S
C25 H32 0.930 . S
H26 C23 0.928 . S
H27 C24 0.931 . S
H28 C4 0.930 . S
H29 C1 0.930 . S
H30 C10 0.930 . S
H31 C22 0.929 . S
H32 C25 0.930 . S
C33 C34 1.351 . S
C33 N36 1.368 . S
C33 H38 0.931 . S
C34 C33 1.351 . S
C34 N35 1.373 . S
C34 H62 0.930 . S
N35 C34 1.373 . S
N35 C37 1.340 . S
N36 C33 1.368 . S
N36 C37 1.321 . S
N36 Co39 2.135 . S
C37 N35 1.340 . S
C37 N36 1.321 . S
C37 H61 0.930 1_455 S
H38 C33 0.931 . S
Co39 N36 2.135 . S
Co39 N42 2.121 . S
Co39 O47 2.055 . S
Co39 O50 2.039 . S
Co39 N53 2.140 . S
C40 O41 1.227 . S
C40 O50 1.265 1_655 S
O41 C40 1.227 . S
N42 Co39 2.121 . S
N42 C44 1.375 . S
N42 C45 1.313 . S
C43 C44 1.338 . S
C43 N46 1.377 . S
C43 H63 0.930 . S
C44 N42 1.375 . S
C44 C43 1.338 . S
C44 H48 0.931 . S
C45 N42 1.313 . S
C45 N46 1.344 . S
C45 H49 0.930 . S
N46 C43 1.377 . S
N46 C45 1.344 . S
O47 Co39 2.055 . S
O47 C51 1.253 . S
H48 C44 0.931 . S
H49 C45 0.930 . S
O50 Co39 2.039 . S
O50 C40 1.265 1_455 S
C51 O47 1.253 . S
C51 O52 1.227 . S
O52 C51 1.227 . S
N53 Co39 2.140 . S
N53 C56 1.346 . S
N53 C57 1.345 . S
C54 C55 1.387 . S
C54 C58 1.391 . S
C55 C54 1.387 . S
C55 C56 1.369 . S
C55 H64 0.929 . S
C56 N53 1.346 . S
C56 C55 1.369 . S
C56 H59 0.928 . S
C57 N53 1.345 . S
C57 C58 1.371 . S
C57 H60 0.931 . S
C58 C54 1.391 . S
C58 C57 1.371 . S
C58 H65 0.930 . S
H59 C56 0.928 . S
H60 C57 0.931 . S
H61 C37 0.930 1_655 S
H62 C34 0.930 . S
H63 C43 0.930 . S
H64 C55 0.929 . S
H65 C58 0.930 . S
C66 C67 1.351 . S
C66 N69 1.368 . S
C66 H71 0.931 . S
C67 C66 1.351 . S
C67 N68 1.373 . S
C67 H95 0.930 . S
N68 C67 1.373 . S
N68 C70 1.340 . S
N69 C66 1.368 . S
N69 C70 1.321 . S
N69 Co72 2.135 . S
C70 N68 1.340 . S
C70 N69 1.321 . S
C70 H94 0.930 1_545 S
H71 C66 0.931 . S
Co72 N69 2.135 . S
Co72 N75 2.121 . S
Co72 O80 2.055 . S
Co72 O83 2.039 . S
Co72 N86 2.140 . S
C73 O74 1.227 . S
C73 O83 1.265 1_565 S
O74 C73 1.227 . S
N75 Co72 2.121 . S
N75 C77 1.375 . S
N75 C78 1.313 . S
C76 C77 1.338 . S
C76 N79 1.377 . S
C76 H96 0.930 . S
C77 N75 1.375 . S
C77 C76 1.338 . S
C77 H81 0.931 . S
C78 N75 1.313 . S
C78 N79 1.344 . S
C78 H82 0.930 . S
N79 C76 1.377 . S
N79 C78 1.344 . S
O80 Co72 2.055 . S
O80 C84 1.253 . S
H81 C77 0.931 . S
H82 C78 0.930 . S
O83 Co72 2.039 . S
O83 C73 1.265 1_545 S
C84 O80 1.253 . S
C84 O85 1.227 . S
O85 C84 1.227 . S
N86 Co72 2.140 . S
N86 C89 1.346 . S
N86 C90 1.345 . S
C87 C88 1.387 . S
C87 C91 1.391 . S
C88 C87 1.387 . S
C88 C89 1.369 . S
C88 H97 0.929 . S
C89 N86 1.346 . S
C89 C88 1.369 . S
C89 H92 0.928 . S
C90 N86 1.345 . S
C90 C91 1.371 . S
C90 H93 0.931 . S
C91 C87 1.391 . S
C91 C90 1.371 . S
C91 H98 0.930 . S
H92 C89 0.928 . S
H93 C90 0.931 . S
H94 C70 0.930 1_565 S
H95 C67 0.930 . S
H96 C76 0.930 . S
H97 C88 0.929 . S
H98 C91 0.930 . S
C99 C100 1.351 . S
C99 N102 1.368 . S
C99 H104 0.931 . S
C100 C99 1.351 . S
C100 N101 1.373 . S
C100 H128 0.930 . S
N101 C100 1.373 . S
N101 C103 1.340 . S
N102 C99 1.368 . S
N102 C103 1.321 . S
N102 Co105 2.135 1_554 S
C103 N101 1.340 . S
C103 N102 1.321 . S
C103 H127 0.930 . S
H104 C99 0.931 . S
Co105 N102 2.135 1_556 S
Co105 N108 2.121 . S
Co105 O113 2.055 1_556 S
Co105 O116 2.039 . S
Co105 N119 2.140 . S
C106 O107 1.227 . S
C106 O116 1.265 . S
O107 C106 1.227 . S
N108 Co105 2.121 . S
N108 C110 1.375 . S
N108 C111 1.313 . S
C109 C110 1.338 . S
C109 N112 1.377 . S
C109 H129 0.930 . S
C110 N108 1.375 . S
C110 C109 1.338 . S
C110 H114 0.931 . S
C111 N108 1.313 . S
C111 N112 1.344 . S
C111 H115 0.930 . S
N112 C109 1.377 . S
N112 C111 1.344 . S
O113 Co105 2.055 1_554 S
O113 C117 1.253 . S
H114 C110 0.931 . S
H115 C111 0.930 . S
O116 Co105 2.039 . S
O116 C106 1.265 . S
C117 O113 1.253 . S
C117 O118 1.227 1_554 S
O118 C117 1.227 1_556 S
N119 Co105 2.140 . S
N119 C122 1.346 . S
N119 C123 1.345 . S
C120 C121 1.387 . S
C120 C124 1.391 . S
C121 C120 1.387 . S
C121 C122 1.369 . S
C121 H130 0.929 . S
C122 N119 1.346 . S
C122 C121 1.369 . S
C122 H125 0.928 . S
C123 N119 1.345 . S
C123 C124 1.371 . S
C123 H126 0.931 . S
C124 C120 1.391 . S
C124 C123 1.371 . S
C124 H131 0.930 . S
H125 C122 0.928 . S
H126 C123 0.931 . S
H127 C103 0.930 . S
H128 C100 0.930 . S
H129 C109 0.930 . S
H130 C121 0.929 . S
H131 C124 0.930 . S
C132 C133 1.351 . S
C132 N135 1.368 . S
C132 H137 0.931 . S
C133 C132 1.351 . S
C133 N134 1.373 . S
C133 H161 0.930 . S
N134 C133 1.373 . S
N134 C136 1.340 . S
N135 C132 1.368 . S
N135 C136 1.321 . S
N135 Co138 2.135 . S
C136 N134 1.340 . S
C136 N135 1.321 . S
C136 H160 0.930 1_655 S
H137 C132 0.931 . S
Co138 N135 2.135 . S
Co138 N141 2.121 . S
Co138 O146 2.055 . S
Co138 O149 2.039 . S
Co138 N152 2.140 . S
C139 O140 1.227 . S
C139 O149 1.265 1_455 S
O140 C139 1.227 . S
N141 Co138 2.121 . S
N141 C143 1.375 . S
N141 C144 1.313 . S
C142 C143 1.338 . S
C142 N145 1.377 . S
C142 H162 0.930 . S
C143 N141 1.375 . S
C143 C142 1.338 . S
C143 H147 0.931 . S
C144 N141 1.313 . S
C144 N145 1.344 . S
C144 H148 0.930 . S
N145 C142 1.377 . S
N145 C144 1.344 . S
O146 Co138 2.055 . S
O146 C150 1.253 . S
H147 C143 0.931 . S
H148 C144 0.930 . S
O149 Co138 2.039 . S
O149 C139 1.265 1_655 S
C150 O146 1.253 . S
C150 O151 1.227 . S
O151 C150 1.227 . S
N152 Co138 2.140 . S
N152 C155 1.346 . S
N152 C156 1.345 . S
C153 C154 1.387 . S
C153 C157 1.391 . S
C154 C153 1.387 . S
C154 C155 1.369 . S
C154 H163 0.929 . S
C155 N152 1.346 . S
C155 C154 1.369 . S
C155 H158 0.928 . S
C156 N152 1.345 . S
C156 C157 1.371 . S
C156 H159 0.931 . S
C157 C153 1.391 . S
C157 C156 1.371 . S
C157 H164 0.930 . S
H158 C155 0.928 . S
H159 C156 0.931 . S
H160 C136 0.930 1_455 S
H161 C133 0.930 . S
H162 C142 0.930 . S
H163 C154 0.929 . S
H164 C157 0.930 . S
C165 C166 1.351 . S
C165 N168 1.368 . S
C165 H170 0.931 . S
C166 C165 1.351 . S
C166 N167 1.373 . S
C166 H194 0.930 . S
N167 C166 1.373 . S
N167 C169 1.340 . S
N168 C165 1.368 . S
N168 C169 1.321 . S
N168 Co171 2.135 . S
C169 N167 1.340 . S
C169 N168 1.321 . S
C169 H193 0.930 1_565 S
H170 C165 0.931 . S
Co171 N168 2.135 . S
Co171 N174 2.121 . S
Co171 O179 2.055 . S
Co171 O182 2.039 . S
Co171 N185 2.140 . S
C172 O173 1.227 . S
C172 O182 1.265 1_545 S
O173 C172 1.227 . S
N174 Co171 2.121 . S
N174 C176 1.375 . S
N174 C177 1.313 . S
C175 C176 1.338 . S
C175 N178 1.377 . S
C175 H195 0.930 . S
C176 N174 1.375 . S
C176 C175 1.338 . S
C176 H180 0.931 . S
C177 N174 1.313 . S
C177 N178 1.344 . S
C177 H181 0.930 . S
N178 C175 1.377 . S
N178 C177 1.344 . S
O179 Co171 2.055 . S
O179 C183 1.253 . S
H180 C176 0.931 . S
H181 C177 0.930 . S
O182 Co171 2.039 . S
O182 C172 1.265 1_565 S
C183 O179 1.253 . S
C183 O184 1.227 . S
O184 C183 1.227 . S
N185 Co171 2.140 . S
N185 C188 1.346 . S
N185 C189 1.345 . S
C186 C187 1.387 . S
C186 C190 1.391 . S
C187 C186 1.387 . S
C187 C188 1.369 . S
C187 H196 0.929 . S
C188 N185 1.346 . S
C188 C187 1.369 . S
C188 H191 0.928 . S
C189 N185 1.345 . S
C189 C190 1.371 . S
C189 H192 0.931 . S
C190 C186 1.391 . S
C190 C189 1.371 . S
C190 H197 0.930 . S
H191 C188 0.928 . S
H192 C189 0.931 . S
H193 C169 0.930 1_545 S
H194 C166 0.930 . S
H195 C175 0.930 . S
H196 C187 0.929 . S
H197 C190 0.930 . S
C198 C199 1.351 . S
C198 N201 1.368 . S
C198 H203 0.931 . S
C199 C198 1.351 . S
C199 N200 1.373 . S
C199 H227 0.930 . S
N200 C199 1.373 . S
N200 C202 1.340 . S
N201 C198 1.368 . S
N201 C202 1.321 . S
N201 Co204 2.135 . S
C202 N200 1.340 . S
C202 N201 1.321 . S
C202 H226 0.930 . S
H203 C198 0.931 . S
Co204 N201 2.135 . S
Co204 N207 2.121 . S
Co204 O212 2.055 . S
Co204 O215 2.039 . S
Co204 N218 2.140 . S
C205 O206 1.227 . S
C205 O215 1.265 . S
O206 C205 1.227 . S
N207 Co204 2.121 . S
N207 C209 1.375 . S
N207 C210 1.313 . S
C208 C209 1.338 . S
C208 N211 1.377 . S
C208 H228 0.930 . S
C209 N207 1.375 . S
C209 C208 1.338 . S
C209 H213 0.931 . S
C210 N207 1.313 . S
C210 N211 1.344 . S
C210 H214 0.930 . S
N211 C208 1.377 . S
N211 C210 1.344 . S
O212 Co204 2.055 . S
O212 C216 1.253 . S
H213 C209 0.931 . S
H214 C210 0.930 . S
O215 Co204 2.039 . S
O215 C205 1.265 . S
C216 O212 1.253 . S
C216 O217 1.227 . S
O217 C216 1.227 . S
N218 Co204 2.140 . S
N218 C221 1.346 . S
N218 C222 1.345 . S
C219 C220 1.387 . S
C219 C223 1.391 . S
C220 C219 1.387 . S
C220 C221 1.369 . S
C220 H229 0.929 . S
C221 N218 1.346 . S
C221 C220 1.369 . S
C221 H224 0.928 . S
C222 N218 1.345 . S
C222 C223 1.371 . S
C222 H225 0.931 . S
C223 C219 1.391 . S
C223 C222 1.371 . S
C223 H230 0.930 . S
H224 C221 0.928 . S
H225 C222 0.931 . S
H226 C202 0.930 . S
H227 C199 0.930 . S
H228 C208 0.930 . S
H229 C220 0.929 . S
H230 C223 0.930 . S
C231 C232 1.351 . S
C231 N234 1.368 . S
C231 H236 0.931 . S
C232 C231 1.351 . S
C232 N233 1.373 . S
C232 H260 0.930 . S
N233 C232 1.373 . S
N233 C235 1.340 . S
N234 C231 1.368 . S
N234 C235 1.321 . S
N234 Co237 2.135 . S
C235 N233 1.340 . S
C235 N234 1.321 . S
C235 H259 0.930 1_455 S
H236 C231 0.931 . S
Co237 N234 2.135 . S
Co237 N240 2.121 . S
Co237 O245 2.055 . S
Co237 O248 2.039 . S
Co237 N251 2.140 . S
C238 O239 1.227 . S
C238 O248 1.265 1_655 S
O239 C238 1.227 . S
N240 Co237 2.121 . S
N240 C242 1.375 . S
N240 C243 1.313 . S
C241 C242 1.338 . S
C241 N244 1.377 . S
C241 H261 0.930 . S
C242 N240 1.375 . S
C242 C241 1.338 . S
C242 H246 0.931 . S
C243 N240 1.313 . S
C243 N244 1.344 . S
C243 H247 0.930 . S
N244 C241 1.377 . S
N244 C243 1.344 . S
O245 Co237 2.055 . S
O245 C249 1.253 . S
H246 C242 0.931 . S
H247 C243 0.930 . S
O248 Co237 2.039 . S
O248 C238 1.265 1_455 S
C249 O245 1.253 . S
C249 O250 1.227 . S
O250 C249 1.227 . S
N251 Co237 2.140 . S
N251 C254 1.346 . S
N251 C255 1.345 . S
C252 C253 1.387 . S
C252 C256 1.391 . S
C253 C252 1.387 . S
C253 C254 1.369 . S
C253 H262 0.929 . S
C254 N251 1.346 . S
C254 C253 1.369 . S
C254 H257 0.928 . S
C255 N251 1.345 . S
C255 C256 1.371 . S
C255 H258 0.931 . S
C256 C252 1.391 . S
C256 C255 1.371 . S
C256 H263 0.930 . S
H257 C254 0.928 . S
H258 C255 0.931 . S
H259 C235 0.930 1_655 S
H260 C232 0.930 . S
H261 C241 0.930 . S
H262 C253 0.929 . S
H263 C256 0.930 . S
C264 C265 1.351 . S
C264 N267 1.368 . S
C264 H269 0.931 . S
C265 C264 1.351 . S
C265 N266 1.373 . S
C265 H293 0.930 . S
N266 C265 1.373 . S
N266 C268 1.340 . S
N267 C264 1.368 . S
N267 C268 1.321 . S
N267 Co270 2.135 . S
C268 N266 1.340 . S
C268 N267 1.321 . S
C268 H292 0.930 1_545 S
H269 C264 0.931 . S
Co270 N267 2.135 . S
Co270 N273 2.121 . S
Co270 O278 2.055 . S
Co270 O281 2.039 . S
Co270 N284 2.140 . S
C271 O272 1.227 . S
C271 O281 1.265 1_565 S
O272 C271 1.227 . S
N273 Co270 2.121 . S
N273 C275 1.375 . S
N273 C276 1.313 . S
C274 C275 1.338 . S
C274 N277 1.377 . S
C274 H294 0.930 . S
C275 N273 1.375 . S
C275 C274 1.338 . S
C275 H279 0.931 . S
C276 N273 1.313 . S
C276 N277 1.344 . S
C276 H280 0.930 . S
N277 C274 1.377 . S
N277 C276 1.344 . S
O278 Co270 2.055 . S
O278 C282 1.253 . S
H279 C275 0.931 . S
H280 C276 0.930 . S
O281 Co270 2.039 . S
O281 C271 1.265 1_545 S
C282 O278 1.253 . S
C282 O283 1.227 . S
O283 C282 1.227 . S
N284 Co270 2.140 . S
N284 C287 1.346 . S
N284 C288 1.345 . S
C285 C286 1.387 . S
C285 C289 1.391 . S
C286 C285 1.387 . S
C286 C287 1.369 . S
C286 H295 0.929 . S
C287 N284 1.346 . S
C287 C286 1.369 . S
C287 H290 0.928 . S
C288 N284 1.345 . S
C288 C289 1.371 . S
C288 H291 0.931 . S
C289 C285 1.391 . S
C289 C288 1.371 . S
C289 H296 0.930 . S
H290 C287 0.928 . S
H291 C288 0.931 . S
H292 C268 0.930 1_565 S
H293 C265 0.930 . S
H294 C274 0.930 . S
H295 C286 0.929 . S
H296 C289 0.930 . S
C297 C298 1.351 . S
C297 N300 1.368 . S
C297 H302 0.931 . S
C298 C297 1.351 . S
C298 N299 1.373 . S
C298 H326 0.930 . S
N299 C298 1.373 . S
N299 C301 1.340 . S
N300 C297 1.368 . S
N300 C301 1.321 . S
N300 Co303 2.135 . S
C301 N299 1.340 . S
C301 N300 1.321 . S
C301 H325 0.930 . S
H302 C297 0.931 . S
Co303 N300 2.135 . S
Co303 N306 2.121 . S
Co303 O311 2.055 . S
Co303 O314 2.039 . S
Co303 N317 2.140 . S
C304 O305 1.227 . S
C304 O314 1.265 . S
O305 C304 1.227 . S
N306 Co303 2.121 . S
N306 C308 1.375 . S
N306 C309 1.313 . S
C307 C308 1.338 . S
C307 N310 1.377 . S
C307 H327 0.930 . S
C308 N306 1.375 . S
C308 C307 1.338 . S
C308 H312 0.931 . S
C309 N306 1.313 . S
C309 N310 1.344 . S
C309 H313 0.930 . S
N310 C307 1.377 . S
N310 C309 1.344 . S
O311 Co303 2.055 . S
O311 C315 1.253 . S
H312 C308 0.931 . S
H313 C309 0.930 . S
O314 Co303 2.039 . S
O314 C304 1.265 . S
C315 O311 1.253 . S
C315 O316 1.227 . S
O316 C315 1.227 . S
N317 Co303 2.140 . S
N317 C320 1.346 . S
N317 C321 1.345 . S
C318 C319 1.387 . S
C318 C322 1.391 . S
C319 C318 1.387 . S
C319 C320 1.369 . S
C319 H328 0.929 . S
C320 N317 1.346 . S
C320 C319 1.369 . S
C320 H323 0.928 . S
C321 N317 1.345 . S
C321 C322 1.371 . S
C321 H324 0.931 . S
C322 C318 1.391 . S
C322 C321 1.371 . S
C322 H329 0.930 . S
H323 C320 0.928 . S
H324 C321 0.931 . S
H325 C301 0.930 . S
H326 C298 0.930 . S
H327 C307 0.930 . S
H328 C319 0.929 . S
H329 C322 0.930 . S
C330 C331 1.351 . S
C330 N333 1.368 . S
C330 H335 0.931 . S
C331 C330 1.351 . S
C331 N332 1.373 . S
C331 H359 0.930 . S
N332 C331 1.373 . S
N332 C334 1.340 . S
N333 C330 1.368 . S
N333 C334 1.321 . S
N333 Co336 2.135 1_556 S
C334 N332 1.340 . S
C334 N333 1.321 . S
C334 H358 0.930 1_655 S
H335 C330 0.931 . S
Co336 N333 2.135 1_554 S
Co336 N339 2.121 . S
Co336 O344 2.055 1_554 S
Co336 O347 2.039 . S
Co336 N350 2.140 . S
C337 O338 1.227 . S
C337 O347 1.265 1_455 S
O338 C337 1.227 . S
N339 Co336 2.121 . S
N339 C341 1.375 . S
N339 C342 1.313 . S
C340 C341 1.338 . S
C340 N343 1.377 . S
C340 H360 0.930 . S
C341 N339 1.375 . S
C341 C340 1.338 . S
C341 H345 0.931 . S
C342 N339 1.313 . S
C342 N343 1.344 . S
C342 H346 0.930 . S
N343 C340 1.377 . S
N343 C342 1.344 . S
O344 Co336 2.055 1_556 S
O344 C348 1.253 . S
H345 C341 0.931 . S
H346 C342 0.930 . S
O347 Co336 2.039 . S
O347 C337 1.265 1_655 S
C348 O344 1.253 . S
C348 O349 1.227 1_556 S
O349 C348 1.227 1_554 S
N350 Co336 2.140 . S
N350 C353 1.346 . S
N350 C354 1.345 . S
C351 C352 1.387 . S
C351 C355 1.391 . S
C352 C351 1.387 . S
C352 C353 1.369 . S
C352 H361 0.929 . S
C353 N350 1.346 . S
C353 C352 1.369 . S
C353 H356 0.928 . S
C354 N350 1.345 . S
C354 C355 1.371 . S
C354 H357 0.931 . S
C355 C351 1.391 . S
C355 C354 1.371 . S
C355 H362 0.930 . S
H356 C353 0.928 . S
H357 C354 0.931 . S
H358 C334 0.930 1_455 S
H359 C331 0.930 . S
H360 C340 0.930 . S
H361 C352 0.929 . S
H362 C355 0.930 . S
C363 C364 1.351 . S
C363 N366 1.368 . S
C363 H368 0.931 . S
C364 C363 1.351 . S
C364 N365 1.373 . S
C364 H392 0.930 . S
N365 C364 1.373 . S
N365 C367 1.340 . S
N366 C363 1.368 . S
N366 C367 1.321 . S
N366 Co369 2.135 . S
C367 N365 1.340 . S
C367 N366 1.321 . S
C367 H391 0.930 1_565 S
H368 C363 0.931 . S
Co369 N366 2.135 . S
Co369 N372 2.121 . S
Co369 O377 2.055 . S
Co369 O380 2.039 . S
Co369 N383 2.140 . S
C370 O371 1.227 . S
C370 O380 1.265 1_545 S
O371 C370 1.227 . S
N372 Co369 2.121 . S
N372 C374 1.375 . S
N372 C375 1.313 . S
C373 C374 1.338 . S
C373 N376 1.377 . S
C373 H393 0.930 . S
C374 N372 1.375 . S
C374 C373 1.338 . S
C374 H378 0.931 . S
C375 N372 1.313 . S
C375 N376 1.344 . S
C375 H379 0.930 . S
N376 C373 1.377 . S
N376 C375 1.344 . S
O377 Co369 2.055 . S
O377 C381 1.253 . S
H378 C374 0.931 . S
H379 C375 0.930 . S
O380 Co369 2.039 . S
O380 C370 1.265 1_565 S
C381 O377 1.253 . S
C381 O382 1.227 . S
O382 C381 1.227 . S
N383 Co369 2.140 . S
N383 C386 1.346 . S
N383 C387 1.345 . S
C384 C385 1.387 . S
C384 C388 1.391 . S
C385 C384 1.387 . S
C385 C386 1.369 . S
C385 H394 0.929 . S
C386 N383 1.346 . S
C386 C385 1.369 . S
C386 H389 0.928 . S
C387 N383 1.345 . S
C387 C388 1.371 . S
C387 H390 0.931 . S
C388 C384 1.391 . S
C388 C387 1.371 . S
C388 H395 0.930 . S
H389 C386 0.928 . S
H390 C387 0.931 . S
H391 C367 0.930 1_545 S
H392 C364 0.930 . S
H393 C373 0.930 . S
H394 C385 0.929 . S
H395 C388 0.930 . S
C396 C397 1.391 . S
C396 C398 1.394 . S
C396 H412 0.931 . S
C397 C396 1.391 . S
C397 C401 1.376 . S
C398 C396 1.394 . S
C398 C399 1.369 . S
C398 C402 1.531 . S
C399 C398 1.369 . S
C399 C400 1.410 . S
C399 C407 1.503 . S
C400 C399 1.410 . S
C400 C401 1.392 . S
C400 C403 1.511 . S
C401 C397 1.376 . S
C401 C400 1.392 . S
C401 H413 0.929 . S
C402 C398 1.531 . S
C402 H414 0.960 . S
C402 H415 0.962 . S
C402 H416 0.960 . S
C403 C400 1.511 . S
C403 H417 0.961 . S
C403 H418 0.961 . S
C403 H419 0.961 . S
C404 C405 1.370 . S
C404 C406 1.363 . S
C404 H420 0.931 . S
C405 C404 1.370 . S
C405 C409 1.408 . S
C406 C404 1.363 . S
C406 C407 1.370 . S
C406 C410 1.524 . S
C407 C399 1.503 . S
C407 C406 1.370 . S
C407 C408 1.403 . S
C408 C407 1.403 . S
C408 C409 1.404 . S
C408 C411 1.539 . S
C409 C405 1.408 . S
C409 C408 1.404 . S
C409 H421 0.930 . S
C410 C406 1.524 . S
C410 H422 0.956 . S
C410 H423 0.961 . S
C410 H424 0.961 . S
C411 C408 1.539 . S
C411 H425 0.958 . S
C411 H426 0.961 . S
C411 H427 0.960 . S
H412 C396 0.931 . S
H413 C401 0.929 . S
H414 C402 0.960 . S
H415 C402 0.962 . S
H416 C402 0.960 . S
H417 C403 0.961 . S
H418 C403 0.961 . S
H419 C403 0.961 . S
H420 C404 0.931 . S
H421 C409 0.930 . S
H422 C410 0.956 . S
H423 C410 0.961 . S
H424 C410 0.961 . S
H425 C411 0.958 . S
H426 C411 0.961 . S
H427 C411 0.960 . S
C428 C429 1.391 . S
C428 C430 1.394 . S
C428 H444 0.931 . S
C429 C428 1.391 . S
C429 C433 1.376 . S
C430 C428 1.394 . S
C430 C431 1.369 . S
C430 C434 1.531 . S
C431 C430 1.369 . S
C431 C432 1.410 . S
C431 C439 1.503 . S
C432 C431 1.410 . S
C432 C433 1.392 . S
C432 C435 1.511 . S
C433 C429 1.376 . S
C433 C432 1.392 . S
C433 H445 0.929 . S
C434 C430 1.531 . S
C434 H446 0.960 . S
C434 H447 0.962 . S
C434 H448 0.960 . S
C435 C432 1.511 . S
C435 H449 0.961 . S
C435 H450 0.961 . S
C435 H451 0.961 . S
C436 C437 1.370 . S
C436 C438 1.363 . S
C436 H452 0.931 . S
C437 C436 1.370 . S
C437 C441 1.408 . S
C438 C436 1.363 . S
C438 C439 1.370 . S
C438 C442 1.524 . S
C439 C431 1.503 . S
C439 C438 1.370 . S
C439 C440 1.403 . S
C440 C439 1.403 . S
C440 C441 1.404 . S
C440 C443 1.539 . S
C441 C437 1.408 . S
C441 C440 1.404 . S
C441 H453 0.930 . S
C442 C438 1.524 . S
C442 H454 0.956 . S
C442 H455 0.961 . S
C442 H456 0.961 . S
C443 C440 1.539 . S
C443 H457 0.958 . S
C443 H458 0.961 . S
C443 H459 0.960 . S
H444 C428 0.931 . S
H445 C433 0.929 . S
H446 C434 0.960 . S
H447 C434 0.962 . S
H448 C434 0.960 . S
H449 C435 0.961 . S
H450 C435 0.961 . S
H451 C435 0.961 . S
H452 C436 0.931 . S
H453 C441 0.930 . S
H454 C442 0.956 . S
H455 C442 0.961 . S
H456 C442 0.961 . S
H457 C443 0.958 . S
H458 C443 0.961 . S
H459 C443 0.960 . S
C460 C461 1.391 . S
C460 C462 1.394 . S
C460 H476 0.931 . S
C461 C460 1.391 . S
C461 C465 1.376 . S
C462 C460 1.394 . S
C462 C463 1.369 . S
C462 C466 1.531 . S
C463 C462 1.369 . S
C463 C464 1.410 . S
C463 C471 1.503 . S
C464 C463 1.410 . S
C464 C465 1.392 . S
C464 C467 1.511 . S
C465 C461 1.376 . S
C465 C464 1.392 . S
C465 H477 0.929 . S
C466 C462 1.531 . S
C466 H478 0.960 . S
C466 H479 0.962 . S
C466 H480 0.960 . S
C467 C464 1.511 . S
C467 H481 0.961 . S
C467 H482 0.961 . S
C467 H483 0.961 . S
C468 C469 1.370 . S
C468 C470 1.363 . S
C468 H484 0.931 . S
C469 C468 1.370 . S
C469 C473 1.408 . S
C470 C468 1.363 . S
C470 C471 1.370 . S
C470 C474 1.524 . S
C471 C463 1.503 . S
C471 C470 1.370 . S
C471 C472 1.403 . S
C472 C471 1.403 . S
C472 C473 1.404 . S
C472 C475 1.539 . S
C473 C469 1.408 . S
C473 C472 1.404 . S
C473 H485 0.930 . S
C474 C470 1.524 . S
C474 H486 0.956 . S
C474 H487 0.961 . S
C474 H488 0.961 . S
C475 C472 1.539 . S
C475 H489 0.958 . S
C475 H490 0.961 . S
C475 H491 0.960 . S
H476 C460 0.931 . S
H477 C465 0.929 . S
H478 C466 0.960 . S
H479 C466 0.962 . S
H480 C466 0.960 . S
H481 C467 0.961 . S
H482 C467 0.961 . S
H483 C467 0.961 . S
H484 C468 0.931 . S
H485 C473 0.930 . S
H486 C474 0.956 . S
H487 C474 0.961 . S
H488 C474 0.961 . S
H489 C475 0.958 . S
H490 C475 0.961 . S
H491 C475 0.960 . S
C492 C493 1.391 . S
C492 C494 1.394 . S
C492 H508 0.931 . S
C493 C492 1.391 . S
C493 C497 1.376 . S
C494 C492 1.394 . S
C494 C495 1.369 . S
C494 C498 1.531 . S
C495 C494 1.369 . S
C495 C496 1.410 . S
C495 C503 1.503 . S
C496 C495 1.410 . S
C496 C497 1.392 . S
C496 C499 1.511 . S
C497 C493 1.376 . S
C497 C496 1.392 . S
C497 H509 0.929 . S
C498 C494 1.531 . S
C498 H510 0.960 . S
C498 H511 0.962 . S
C498 H512 0.960 . S
C499 C496 1.511 . S
C499 H513 0.961 . S
C499 H514 0.961 . S
C499 H515 0.961 . S
C500 C501 1.370 . S
C500 C502 1.363 . S
C500 H516 0.931 . S
C501 C500 1.370 . S
C501 C505 1.408 . S
C502 C500 1.363 . S
C502 C503 1.370 . S
C502 C506 1.524 . S
C503 C495 1.503 . S
C503 C502 1.370 . S
C503 C504 1.403 . S
C504 C503 1.403 . S
C504 C505 1.404 . S
C504 C507 1.539 . S
C505 C501 1.408 . S
C505 C504 1.404 . S
C505 H517 0.930 . S
C506 C502 1.524 . S
C506 H518 0.956 . S
C506 H519 0.961 . S
C506 H520 0.961 . S
C507 C504 1.539 . S
C507 H521 0.958 . S
C507 H522 0.961 . S
C507 H523 0.960 . S
H508 C492 0.931 . S
H509 C497 0.929 . S
H510 C498 0.960 . S
H511 C498 0.962 . S
H512 C498 0.960 . S
H513 C499 0.961 . S
H514 C499 0.961 . S
H515 C499 0.961 . S
H516 C500 0.931 . S
H517 C505 0.930 . S
H518 C506 0.956 . S
H519 C506 0.961 . S
H520 C506 0.961 . S
H521 C507 0.958 . S
H522 C507 0.961 . S
H523 C507 0.960 . S
C524 C525 1.391 . S
C524 C526 1.394 . S
C524 H540 0.931 . S
C525 C524 1.391 . S
C525 C529 1.376 . S
C526 C524 1.394 . S
C526 C527 1.369 . S
C526 C530 1.531 . S
C527 C526 1.369 . S
C527 C528 1.410 . S
C527 C535 1.503 . S
C528 C527 1.410 . S
C528 C529 1.392 . S
C528 C531 1.511 . S
C529 C525 1.376 . S
C529 C528 1.392 . S
C529 H541 0.929 . S
C530 C526 1.531 . S
C530 H542 0.960 . S
C530 H543 0.962 . S
C530 H544 0.960 . S
C531 C528 1.511 . S
C531 H545 0.961 . S
C531 H546 0.961 . S
C531 H547 0.961 . S
C532 C533 1.370 . S
C532 C534 1.363 . S
C532 H548 0.931 . S
C533 C532 1.370 . S
C533 C537 1.408 . S
C534 C532 1.363 . S
C534 C535 1.370 . S
C534 C538 1.524 . S
C535 C527 1.503 . S
C535 C534 1.370 . S
C535 C536 1.403 . S
C536 C535 1.403 . S
C536 C537 1.404 . S
C536 C539 1.539 . S
C537 C533 1.408 . S
C537 C536 1.404 . S
C537 H549 0.930 . S
C538 C534 1.524 . S
C538 H550 0.956 . S
C538 H551 0.961 . S
C538 H552 0.961 . S
C539 C536 1.539 . S
C539 H553 0.958 . S
C539 H554 0.961 . S
C539 H555 0.960 . S
H540 C524 0.931 . S
H541 C529 0.929 . S
H542 C530 0.960 . S
H543 C530 0.962 . S
H544 C530 0.960 . S
H545 C531 0.961 . S
H546 C531 0.961 . S
H547 C531 0.961 . S
H548 C532 0.931 . S
H549 C537 0.930 . S
H550 C538 0.956 . S
H551 C538 0.961 . S
H552 C538 0.961 . S
H553 C539 0.958 . S
H554 C539 0.961 . S
H555 C539 0.960 . S
C556 C557 1.391 . S
C556 C558 1.394 . S
C556 H572 0.931 . S
C557 C556 1.391 . S
C557 C561 1.376 . S
C558 C556 1.394 . S
C558 C559 1.369 . S
C558 C562 1.531 . S
C559 C558 1.369 . S
C559 C560 1.410 . S
C559 C567 1.503 . S
C560 C559 1.410 . S
C560 C561 1.392 . S
C560 C563 1.511 . S
C561 C557 1.376 . S
C561 C560 1.392 . S
C561 H573 0.929 . S
C562 C558 1.531 . S
C562 H574 0.960 . S
C562 H575 0.962 . S
C562 H576 0.960 . S
C563 C560 1.511 . S
C563 H577 0.961 . S
C563 H578 0.961 . S
C563 H579 0.961 . S
C564 C565 1.370 . S
C564 C566 1.363 . S
C564 H580 0.931 . S
C565 C564 1.370 . S
C565 C569 1.408 . S
C566 C564 1.363 . S
C566 C567 1.370 . S
C566 C570 1.524 . S
C567 C559 1.503 . S
C567 C566 1.370 . S
C567 C568 1.403 . S
C568 C567 1.403 . S
C568 C569 1.404 . S
C568 C571 1.539 . S
C569 C565 1.408 . S
C569 C568 1.404 . S
C569 H581 0.930 . S
C570 C566 1.524 . S
C570 H582 0.956 . S
C570 H583 0.961 . S
C570 H584 0.961 . S
C571 C568 1.539 . S
C571 H585 0.958 . S
C571 H586 0.961 . S
C571 H587 0.960 . S
H572 C556 0.931 . S
H573 C561 0.929 . S
H574 C562 0.960 . S
H575 C562 0.962 . S
H576 C562 0.960 . S
H577 C563 0.961 . S
H578 C563 0.961 . S
H579 C563 0.961 . S
H580 C564 0.931 . S
H581 C569 0.930 . S
H582 C570 0.956 . S
H583 C570 0.961 . S
H584 C570 0.961 . S
H585 C571 0.958 . S
H586 C571 0.961 . S
H587 C571 0.960 . S
C588 C589 1.391 . S
C588 C590 1.394 . S
C588 H604 0.931 . S
C589 C588 1.391 . S
C589 C593 1.376 . S
C590 C588 1.394 . S
C590 C591 1.369 . S
C590 C594 1.531 . S
C591 C590 1.369 . S
C591 C592 1.410 . S
C591 C599 1.503 . S
C592 C591 1.410 . S
C592 C593 1.392 . S
C592 C595 1.511 . S
C593 C589 1.376 . S
C593 C592 1.392 . S
C593 H605 0.929 . S
C594 C590 1.531 . S
C594 H606 0.960 . S
C594 H607 0.962 . S
C594 H608 0.960 . S
C595 C592 1.511 . S
C595 H609 0.961 . S
C595 H610 0.961 . S
C595 H611 0.961 . S
C596 C597 1.370 . S
C596 C598 1.363 . S
C596 H612 0.931 . S
C597 C596 1.370 . S
C597 C601 1.408 . S
C598 C596 1.363 . S
C598 C599 1.370 . S
C598 C602 1.524 . S
C599 C591 1.503 . S
C599 C598 1.370 . S
C599 C600 1.403 . S
C600 C599 1.403 . S
C600 C601 1.404 . S
C600 C603 1.539 . S
C601 C597 1.408 . S
C601 C600 1.404 . S
C601 H613 0.930 . S
C602 C598 1.524 . S
C602 H614 0.956 . S
C602 H615 0.961 . S
C602 H616 0.961 . S
C603 C600 1.539 . S
C603 H617 0.958 . S
C603 H618 0.961 . S
C603 H619 0.960 . S
H604 C588 0.931 . S
H605 C593 0.929 . S
H606 C594 0.960 . S
H607 C594 0.962 . S
H608 C594 0.960 . S
H609 C595 0.961 . S
H610 C595 0.961 . S
H611 C595 0.961 . S
H612 C596 0.931 . S
H613 C601 0.930 . S
H614 C602 0.956 . S
H615 C602 0.961 . S
H616 C602 0.961 . S
H617 C603 0.958 . S
H618 C603 0.961 . S
H619 C603 0.960 . S
C620 C621 1.391 . S
C620 C622 1.394 . S
C620 H636 0.931 . S
C621 C620 1.391 . S
C621 C625 1.376 . S
C622 C620 1.394 . S
C622 C623 1.369 . S
C622 C626 1.531 . S
C623 C622 1.369 . S
C623 C624 1.410 . S
C623 C631 1.503 . S
C624 C623 1.410 . S
C624 C625 1.392 . S
C624 C627 1.511 . S
C625 C621 1.376 . S
C625 C624 1.392 . S
C625 H637 0.929 . S
C626 C622 1.531 . S
C626 H638 0.960 . S
C626 H639 0.962 . S
C626 H640 0.960 . S
C627 C624 1.511 . S
C627 H641 0.961 . S
C627 H642 0.961 . S
C627 H643 0.961 . S
C628 C629 1.370 . S
C628 C630 1.363 . S
C628 H644 0.931 . S
C629 C628 1.370 . S
C629 C633 1.408 . S
C630 C628 1.363 . S
C630 C631 1.370 . S
C630 C634 1.524 . S
C631 C623 1.503 . S
C631 C630 1.370 . S
C631 C632 1.403 . S
C632 C631 1.403 . S
C632 C633 1.404 . S
C632 C635 1.539 . S
C633 C629 1.408 . S
C633 C632 1.404 . S
C633 H645 0.930 . S
C634 C630 1.524 . S
C634 H646 0.956 . S
C634 H647 0.961 . S
C634 H648 0.961 . S
C635 C632 1.539 . S
C635 H649 0.958 . S
C635 H650 0.961 . S
C635 H651 0.960 . S
H636 C620 0.931 . S
H637 C625 0.929 . S
H638 C626 0.960 . S
H639 C626 0.962 . S
H640 C626 0.960 . S
H641 C627 0.961 . S
H642 C627 0.961 . S
H643 C627 0.961 . S
H644 C628 0.931 . S
H645 C633 0.930 . S
H646 C634 0.956 . S
H647 C634 0.961 . S
H648 C634 0.961 . S
H649 C635 0.958 . S
H650 C635 0.961 . S
H651 C635 0.960 . S
C652 C653 1.391 . S
C652 C654 1.394 . S
C652 H668 0.931 . S
C653 C652 1.391 . S
C653 C657 1.376 . S
C654 C652 1.394 . S
C654 C655 1.369 . S
C654 C658 1.531 . S
C655 C654 1.369 . S
C655 C656 1.410 . S
C655 C663 1.503 . S
C656 C655 1.410 . S
C656 C657 1.392 . S
C656 C659 1.511 . S
C657 C653 1.376 . S
C657 C656 1.392 . S
C657 H669 0.929 . S
C658 C654 1.531 . S
C658 H670 0.960 . S
C658 H671 0.962 . S
C658 H672 0.960 . S
C659 C656 1.511 . S
C659 H673 0.961 . S
C659 H674 0.961 . S
C659 H675 0.961 . S
C660 C661 1.370 . S
C660 C662 1.363 . S
C660 H676 0.931 . S
C661 C660 1.370 . S
C661 C665 1.408 . S
C662 C660 1.363 . S
C662 C663 1.370 . S
C662 C666 1.524 . S
C663 C655 1.503 . S
C663 C662 1.370 . S
C663 C664 1.403 . S
C664 C663 1.403 . S
C664 C665 1.404 . S
C664 C667 1.539 . S
C665 C661 1.408 . S
C665 C664 1.404 . S
C665 H677 0.930 . S
C666 C662 1.524 . S
C666 H678 0.956 . S
C666 H679 0.961 . S
C666 H680 0.961 . S
C667 C664 1.539 . S
C667 H681 0.958 . S
C667 H682 0.961 . S
C667 H683 0.960 . S
H668 C652 0.931 . S
H669 C657 0.929 . S
H670 C658 0.960 . S
H671 C658 0.962 . S
H672 C658 0.960 . S
H673 C659 0.961 . S
H674 C659 0.961 . S
H675 C659 0.961 . S
H676 C660 0.931 . S
H677 C665 0.930 . S
H678 C666 0.956 . S
H679 C666 0.961 . S
H680 C666 0.961 . S
H681 C667 0.958 . S
H682 C667 0.961 . S
H683 C667 0.960 . S
C684 C685 1.391 . S
C684 C686 1.394 . S
C684 H700 0.931 . S
C685 C684 1.391 . S
C685 C689 1.376 . S
C686 C684 1.394 . S
C686 C687 1.369 . S
C686 C690 1.531 . S
C687 C686 1.369 . S
C687 C688 1.410 . S
C687 C695 1.503 . S
C688 C687 1.410 . S
C688 C689 1.392 . S
C688 C691 1.511 . S
C689 C685 1.376 . S
C689 C688 1.392 . S
C689 H701 0.929 . S
C690 C686 1.531 . S
C690 H702 0.960 . S
C690 H703 0.962 . S
C690 H704 0.960 . S
C691 C688 1.511 . S
C691 H705 0.961 . S
C691 H706 0.961 . S
C691 H707 0.961 . S
C692 C693 1.370 . S
C692 C694 1.363 . S
C692 H708 0.931 . S
C693 C692 1.370 . S
C693 C697 1.408 . S
C694 C692 1.363 . S
C694 C695 1.370 . S
C694 C698 1.524 . S
C695 C687 1.503 . S
C695 C694 1.370 . S
C695 C696 1.403 . S
C696 C695 1.403 . S
C696 C697 1.404 . S
C696 C699 1.539 . S
C697 C693 1.408 . S
C697 C696 1.404 . S
C697 H709 0.930 . S
C698 C694 1.524 . S
C698 H710 0.956 . S
C698 H711 0.961 . S
C698 H712 0.961 . S
C699 C696 1.539 . S
C699 H713 0.958 . S
C699 H714 0.961 . S
C699 H715 0.960 . S
H700 C684 0.931 . S
H701 C689 0.929 . S
H702 C690 0.960 . S
H703 C690 0.962 . S
H704 C690 0.960 . S
H705 C691 0.961 . S
H706 C691 0.961 . S
H707 C691 0.961 . S
H708 C692 0.931 . S
H709 C697 0.930 . S
H710 C698 0.956 . S
H711 C698 0.961 . S
H712 C698 0.961 . S
H713 C699 0.958 . S
H714 C699 0.961 . S
H715 C699 0.960 . S
C716 C717 1.391 . S
C716 C718 1.394 . S
C716 H732 0.931 . S
C717 C716 1.391 . S
C717 C721 1.376 1_556 S
C718 C716 1.394 . S
C718 C719 1.369 1_556 S
C718 C722 1.531 . S
C719 C718 1.369 1_554 S
C719 C720 1.410 . S
C719 C727 1.503 . S
C720 C719 1.410 . S
C720 C721 1.392 . S
C720 C723 1.511 . S
C721 C717 1.376 1_554 S
C721 C720 1.392 . S
C721 H733 0.929 . S
C722 C718 1.531 . S
C722 H734 0.960 . S
C722 H735 0.962 . S
C722 H736 0.960 . S
C723 C720 1.511 . S
C723 H737 0.961 . S
C723 H738 0.961 . S
C723 H739 0.961 . S
C724 C725 1.370 . S
C724 C726 1.363 . S
C724 H740 0.931 . S
C725 C724 1.370 . S
C725 C729 1.408 . S
C726 C724 1.363 . S
C726 C727 1.370 . S
C726 C730 1.524 . S
C727 C719 1.503 . S
C727 C726 1.370 . S
C727 C728 1.403 . S
C728 C727 1.403 . S
C728 C729 1.404 . S
C728 C731 1.539 . S
C729 C725 1.408 . S
C729 C728 1.404 . S
C729 H741 0.930 . S
C730 C726 1.524 . S
C730 H742 0.956 1_554 S
C730 H743 0.961 . S
C730 H744 0.961 . S
C731 C728 1.539 . S
C731 H745 0.958 . S
C731 H746 0.961 . S
C731 H747 0.960 . S
H732 C716 0.931 . S
H733 C721 0.929 . S
H734 C722 0.960 . S
H735 C722 0.962 . S
H736 C722 0.960 . S
H737 C723 0.961 . S
H738 C723 0.961 . S
H739 C723 0.961 . S
H740 C724 0.931 . S
H741 C729 0.930 . S
H742 C730 0.956 1_556 S
H743 C730 0.961 . S
H744 C730 0.961 . S
H745 C731 0.958 . S
H746 C731 0.961 . S
H747 C731 0.960 . S
C748 C749 1.391 . S
C748 C750 1.394 . S
C748 H764 0.931 . S
C749 C748 1.391 . S
C749 C753 1.376 . S
C750 C748 1.394 . S
C750 C751 1.369 . S
C750 C754 1.531 . S
C751 C750 1.369 . S
C751 C752 1.410 . S
C751 C759 1.503 . S
C752 C751 1.410 . S
C752 C753 1.392 . S
C752 C755 1.511 . S
C753 C749 1.376 . S
C753 C752 1.392 . S
C753 H765 0.929 . S
C754 C750 1.531 . S
C754 H766 0.960 . S
C754 H767 0.962 . S
C754 H768 0.960 . S
C755 C752 1.511 . S
C755 H769 0.961 . S
C755 H770 0.961 . S
C755 H771 0.961 . S
C756 C757 1.370 . S
C756 C758 1.363 . S
C756 H772 0.931 . S
C757 C756 1.370 . S
C757 C761 1.408 . S
C758 C756 1.363 . S
C758 C759 1.370 . S
C758 C762 1.524 . S
C759 C751 1.503 . S
C759 C758 1.370 . S
C759 C760 1.403 . S
C760 C759 1.403 . S
C760 C761 1.404 . S
C760 C763 1.539 . S
C761 C757 1.408 . S
C761 C760 1.404 . S
C761 H773 0.930 . S
C762 C758 1.524 . S
C762 H774 0.956 . S
C762 H775 0.961 . S
C762 H776 0.961 . S
C763 C760 1.539 . S
C763 H777 0.958 . S
C763 H778 0.961 . S
C763 H779 0.960 . S
H764 C748 0.931 . S
H765 C753 0.929 . S
H766 C754 0.960 . S
H767 C754 0.962 . S
H768 C754 0.960 . S
H769 C755 0.961 . S
H770 C755 0.961 . S
H771 C755 0.961 . S
H772 C756 0.931 . S
H773 C761 0.930 . S
H774 C762 0.956 . S
H775 C762 0.961 . S
H776 C762 0.961 . S
H777 C763 0.958 . S
H778 C763 0.961 . S
H779 C763 0.960 . S
C780 C781 1.391 . S
C780 C782 1.394 . S
C780 H796 0.931 . S
C781 C780 1.391 . S
C781 C785 1.376 . S
C782 C780 1.394 . S
C782 C783 1.369 . S
C782 C786 1.531 . S
C783 C782 1.369 . S
C783 C784 1.410 . S
C783 C791 1.503 . S
C784 C783 1.410 . S
C784 C785 1.392 . S
C784 C787 1.511 . S
C785 C781 1.376 . S
C785 C784 1.392 . S
C785 H797 0.929 . S
C786 C782 1.531 . S
C786 H798 0.960 . S
C786 H799 0.962 . S
C786 H800 0.960 . S
C787 C784 1.511 . S
C787 H801 0.961 . S
C787 H802 0.961 . S
C787 H803 0.961 . S
C788 C789 1.370 . S
C788 C790 1.363 . S
C788 H804 0.931 . S
C789 C788 1.370 . S
C789 C793 1.408 . S
C790 C788 1.363 . S
C790 C791 1.370 . S
C790 C794 1.524 . S
C791 C783 1.503 . S
C791 C790 1.370 . S
C791 C792 1.403 . S
C792 C791 1.403 . S
C792 C793 1.404 . S
C792 C795 1.539 . S
C793 C789 1.408 . S
C793 C792 1.404 . S
C793 H805 0.930 . S
C794 C790 1.524 . S
C794 H806 0.956 . S
C794 H807 0.961 . S
C794 H808 0.961 . S
C795 C792 1.539 . S
C795 H809 0.958 . S
C795 H810 0.961 . S
C795 H811 0.960 . S
H796 C780 0.931 . S
H797 C785 0.929 . S
H798 C786 0.960 . S
H799 C786 0.962 . S
H800 C786 0.960 . S
H801 C787 0.961 . S
H802 C787 0.961 . S
H803 C787 0.961 . S
H804 C788 0.931 . S
H805 C793 0.930 . S
H806 C794 0.956 . S
H807 C794 0.961 . S
H808 C794 0.961 . S
H809 C795 0.958 . S
H810 C795 0.961 . S
H811 C795 0.960 . S
C812 C813 1.391 . S
C812 C814 1.394 . S
C812 H828 0.931 . S
C813 C812 1.391 . S
C813 C817 1.376 . S
C814 C812 1.394 . S
C814 C815 1.369 . S
C814 C818 1.531 . S
C815 C814 1.369 . S
C815 C816 1.410 . S
C815 C823 1.503 . S
C816 C815 1.410 . S
C816 C817 1.392 . S
C816 C819 1.511 . S
C817 C813 1.376 . S
C817 C816 1.392 . S
C817 H829 0.929 . S
C818 C814 1.531 . S
C818 H830 0.960 . S
C818 H831 0.962 . S
C818 H832 0.960 . S
C819 C816 1.511 . S
C819 H833 0.961 . S
C819 H834 0.961 . S
C819 H835 0.961 . S
C820 C821 1.370 . S
C820 C822 1.363 . S
C820 H836 0.931 . S
C821 C820 1.370 . S
C821 C825 1.408 . S
C822 C820 1.363 . S
C822 C823 1.370 . S
C822 C826 1.524 . S
C823 C815 1.503 . S
C823 C822 1.370 . S
C823 C824 1.403 . S
C824 C823 1.403 . S
C824 C825 1.404 . S
C824 C827 1.539 . S
C825 C821 1.408 . S
C825 C824 1.404 . S
C825 H837 0.930 . S
C826 C822 1.524 . S
C826 H838 0.956 . S
C826 H839 0.961 . S
C826 H840 0.961 . S
C827 C824 1.539 . S
C827 H841 0.958 . S
C827 H842 0.961 . S
C827 H843 0.960 . S
H828 C812 0.931 . S
H829 C817 0.929 . S
H830 C818 0.960 . S
H831 C818 0.962 . S
H832 C818 0.960 . S
H833 C819 0.961 . S
H834 C819 0.961 . S
H835 C819 0.961 . S
H836 C820 0.931 . S
H837 C825 0.930 . S
H838 C826 0.956 . S
H839 C826 0.961 . S
H840 C826 0.961 . S
H841 C827 0.958 . S
H842 C827 0.961 . S
H843 C827 0.960 . S
C844 C845 1.391 . S
C844 C846 1.394 . S
C844 H860 0.931 . S
C845 C844 1.391 . S
C845 C849 1.376 . S
C846 C844 1.394 . S
C846 C847 1.369 . S
C846 C850 1.531 . S
C847 C846 1.369 . S
C847 C848 1.410 . S
C847 C855 1.503 . S
C848 C847 1.410 . S
C848 C849 1.392 . S
C848 C851 1.511 . S
C849 C845 1.376 . S
C849 C848 1.392 . S
C849 H861 0.929 . S
C850 C846 1.531 . S
C850 H862 0.960 . S
C850 H863 0.962 . S
C850 H864 0.960 . S
C851 C848 1.511 . S
C851 H865 0.961 . S
C851 H866 0.961 . S
C851 H867 0.961 . S
C852 C853 1.370 . S
C852 C854 1.363 . S
C852 H868 0.931 . S
C853 C852 1.370 . S
C853 C857 1.408 . S
C854 C852 1.363 . S
C854 C855 1.370 . S
C854 C858 1.524 . S
C855 C847 1.503 . S
C855 C854 1.370 . S
C855 C856 1.403 . S
C856 C855 1.403 . S
C856 C857 1.404 . S
C856 C859 1.539 . S
C857 C853 1.408 . S
C857 C856 1.404 . S
C857 H869 0.930 . S
C858 C854 1.524 . S
C858 H870 0.956 . S
C858 H871 0.961 . S
C858 H872 0.961 . S
C859 C856 1.539 . S
C859 H873 0.958 . S
C859 H874 0.961 . S
C859 H875 0.960 . S
H860 C844 0.931 . S
H861 C849 0.929 . S
H862 C850 0.960 . S
H863 C850 0.962 . S
H864 C850 0.960 . S
H865 C851 0.961 . S
H866 C851 0.961 . S
H867 C851 0.961 . S
H868 C852 0.931 . S
H869 C857 0.930 . S
H870 C858 0.956 . S
H871 C858 0.961 . S
H872 C858 0.961 . S
H873 C859 0.958 . S
H874 C859 0.961 . S
H875 C859 0.960 . S
C876 C877 1.391 . S
C876 C878 1.394 . S
C876 H892 0.931 . S
C877 C876 1.391 . S
C877 C881 1.376 1_554 S
C878 C876 1.394 . S
C878 C879 1.369 1_554 S
C878 C882 1.531 . S
C879 C878 1.369 1_556 S
C879 C880 1.410 . S
C879 C887 1.503 . S
C880 C879 1.410 . S
C880 C881 1.392 . S
C880 C883 1.511 . S
C881 C877 1.376 1_556 S
C881 C880 1.392 . S
C881 H893 0.929 . S
C882 C878 1.531 . S
C882 H894 0.960 . S
C882 H895 0.962 . S
C882 H896 0.960 . S
C883 C880 1.511 . S
C883 H897 0.961 . S
C883 H898 0.961 . S
C883 H899 0.961 . S
C884 C885 1.370 . S
C884 C886 1.363 . S
C884 H900 0.931 . S
C885 C884 1.370 . S
C885 C889 1.408 . S
C886 C884 1.363 . S
C886 C887 1.370 . S
C886 C890 1.524 1_556 S
C887 C879 1.503 . S
C887 C886 1.370 . S
C887 C888 1.403 . S
C888 C887 1.403 . S
C888 C889 1.404 . S
C888 C891 1.539 . S
C889 C885 1.408 . S
C889 C888 1.404 . S
C889 H901 0.930 . S
C890 C886 1.524 1_554 S
C890 H902 0.956 . S
C890 H903 0.961 . S
C890 H904 0.961 . S
C891 C888 1.539 . S
C891 H905 0.958 . S
C891 H906 0.961 . S
C891 H907 0.960 . S
H892 C876 0.931 . S
H893 C881 0.929 . S
H894 C882 0.960 . S
H895 C882 0.962 . S
H896 C882 0.960 . S
H897 C883 0.961 . S
H898 C883 0.961 . S
H899 C883 0.961 . S
H900 C884 0.931 . S
H901 C889 0.930 . S
H902 C890 0.956 . S
H903 C890 0.961 . S
H904 C890 0.961 . S
H905 C891 0.958 . S
H906 C891 0.961 . S
H907 C891 0.960 . S
C908 C909 1.391 . S
C908 C910 1.394 . S
C908 H924 0.931 . S
C909 C908 1.391 . S
C909 C913 1.376 . S
C910 C908 1.394 . S
C910 C911 1.369 . S
C910 C914 1.531 . S
C911 C910 1.369 . S
C911 C912 1.410 . S
C911 C919 1.503 . S
C912 C911 1.410 . S
C912 C913 1.392 . S
C912 C915 1.511 . S
C913 C909 1.376 . S
C913 C912 1.392 . S
C913 H925 0.929 . S
C914 C910 1.531 . S
C914 H926 0.960 . S
C914 H927 0.962 . S
C914 H928 0.960 . S
C915 C912 1.511 . S
C915 H929 0.961 . S
C915 H930 0.961 . S
C915 H931 0.961 . S
C916 C917 1.370 . S
C916 C918 1.363 . S
C916 H932 0.931 . S
C917 C916 1.370 . S
C917 C921 1.408 . S
C918 C916 1.363 . S
C918 C919 1.370 . S
C918 C922 1.524 . S
C919 C911 1.503 . S
C919 C918 1.370 . S
C919 C920 1.403 . S
C920 C919 1.403 . S
C920 C921 1.404 . S
C920 C923 1.539 . S
C921 C917 1.408 . S
C921 C920 1.404 . S
C921 H933 0.930 . S
C922 C918 1.524 . S
C922 H934 0.956 . S
C922 H935 0.961 . S
C922 H936 0.961 . S
C923 C920 1.539 . S
C923 H937 0.958 . S
C923 H938 0.961 . S
C923 H939 0.960 . S
H924 C908 0.931 . S
H925 C913 0.929 . S
H926 C914 0.960 . S
H927 C914 0.962 . S
H928 C914 0.960 . S
H929 C915 0.961 . S
H930 C915 0.961 . S
H931 C915 0.961 . S
H932 C916 0.931 . S
H933 C921 0.930 . S
H934 C922 0.956 . S
H935 C922 0.961 . S
H936 C922 0.961 . S
H937 C923 0.958 . S
H938 C923 0.961 . S
H939 C923 0.960 . S
C940 C941 1.391 . S
C940 C942 1.394 . S
C940 H956 0.931 . S
C941 C940 1.391 . S
C941 C945 1.376 . S
C942 C940 1.394 . S
C942 C943 1.369 . S
C942 C946 1.531 . S
C943 C942 1.369 . S
C943 C944 1.410 . S
C943 C951 1.503 . S
C944 C943 1.410 . S
C944 C945 1.392 . S
C944 C947 1.511 . S
C945 C941 1.376 . S
C945 C944 1.392 . S
C945 H957 0.929 . S
C946 C942 1.531 . S
C946 H958 0.960 . S
C946 H959 0.962 . S
C946 H960 0.960 . S
C947 C944 1.511 . S
C947 H961 0.961 . S
C947 H962 0.961 . S
C947 H963 0.961 . S
C948 C949 1.370 . S
C948 C950 1.363 . S
C948 H964 0.931 . S
C949 C948 1.370 . S
C949 C953 1.408 . S
C950 C948 1.363 . S
C950 C951 1.370 . S
C950 C954 1.524 . S
C951 C943 1.503 . S
C951 C950 1.370 . S
C951 C952 1.403 . S
C952 C951 1.403 . S
C952 C953 1.404 . S
C952 C955 1.539 . S
C953 C949 1.408 . S
C953 C952 1.404 . S
C953 H965 0.930 . S
C954 C950 1.524 . S
C954 H966 0.956 . S
C954 H967 0.961 . S
C954 H968 0.961 . S
C955 C952 1.539 . S
C955 H969 0.958 . S
C955 H970 0.961 . S
C955 H971 0.960 . S
H956 C940 0.931 . S
H957 C945 0.929 . S
H958 C946 0.960 . S
H959 C946 0.962 . S
H960 C946 0.960 . S
H961 C947 0.961 . S
H962 C947 0.961 . S
H963 C947 0.961 . S
H964 C948 0.931 . S
H965 C953 0.930 . S
H966 C954 0.956 . S
H967 C954 0.961 . S
H968 C954 0.961 . S
H969 C955 0.958 . S
H970 C955 0.961 . S
H971 C955 0.960 . S
C972 C973 1.391 . S
C972 C974 1.394 . S
C972 H988 0.931 . S
C973 C972 1.391 . S
C973 C977 1.376 . S
C974 C972 1.394 . S
C974 C975 1.369 . S
C974 C978 1.531 . S
C975 C974 1.369 . S
C975 C976 1.410 . S
C975 C983 1.503 . S
C976 C975 1.410 . S
C976 C977 1.392 . S
C976 C979 1.511 . S
C977 C973 1.376 . S
C977 C976 1.392 . S
C977 H989 0.929 . S
C978 C974 1.531 . S
C978 H990 0.960 . S
C978 H991 0.962 . S
C978 H992 0.960 . S
C979 C976 1.511 . S
C979 H993 0.961 . S
C979 H994 0.961 . S
C979 H995 0.961 . S
C980 C981 1.370 . S
C980 C982 1.363 . S
C980 H996 0.931 . S
C981 C980 1.370 . S
C981 C985 1.408 . S
C982 C980 1.363 . S
C982 C983 1.370 . S
C982 C986 1.524 . S
C983 C975 1.503 . S
C983 C982 1.370 . S
C983 C984 1.403 . S
C984 C983 1.403 . S
C984 C985 1.404 . S
C984 C987 1.539 . S
C985 C981 1.408 . S
C985 C984 1.404 . S
C985 H997 0.930 . S
C986 C982 1.524 . S
C986 H998 0.956 . S
C986 H999 0.961 . S
C986 H1000 0.961 . S
C987 C984 1.539 . S
C987 H1001 0.958 . S
C987 H1002 0.961 . S
C987 H1003 0.960 . S
H988 C972 0.931 . S
H989 C977 0.929 . S
H990 C978 0.960 . S
H991 C978 0.962 . S
H992 C978 0.960 . S
H993 C979 0.961 . S
H994 C979 0.961 . S
H995 C979 0.961 . S
H996 C980 0.931 . S
H997 C985 0.930 . S
H998 C986 0.956 . S
H999 C986 0.961 . S
H1000 C986 0.961 . S
H1001 C987 0.958 . S
H1002 C987 0.961 . S
H1003 C987 0.960 . S
C1004 C1005 1.391 . S
C1004 C1006 1.394 . S
C1004 H1020 0.931 . S
C1005 C1004 1.391 . S
C1005 C1009 1.376 . S
C1006 C1004 1.394 . S
C1006 C1007 1.369 . S
C1006 C1010 1.531 1_455 S
C1007 C1006 1.369 . S
C1007 C1008 1.410 . S
C1007 C1015 1.503 . S
C1008 C1007 1.410 . S
C1008 C1009 1.392 . S
C1008 C1011 1.511 . S
C1009 C1005 1.376 . S
C1009 C1008 1.392 . S
C1009 H1021 0.929 . S
C1010 C1006 1.531 1_655 S
C1010 H1022 0.960 . S
C1010 H1023 0.962 . S
C1010 H1024 0.960 . S
C1011 C1008 1.511 . S
C1011 H1025 0.961 . S
C1011 H1026 0.961 . S
C1011 H1027 0.961 . S
C1012 C1013 1.370 . S
C1012 C1014 1.363 . S
C1012 H1028 0.931 . S
C1013 C1012 1.370 . S
C1013 C1017 1.408 . S
C1014 C1012 1.363 . S
C1014 C1015 1.370 . S
C1014 C1018 1.524 . S
C1015 C1007 1.503 . S
C1015 C1014 1.370 . S
C1015 C1016 1.403 . S
C1016 C1015 1.403 . S
C1016 C1017 1.404 . S
C1016 C1019 1.539 . S
C1017 C1013 1.408 . S
C1017 C1016 1.404 . S
C1017 H1029 0.930 . S
C1018 C1014 1.524 . S
C1018 H1030 0.956 . S
C1018 H1031 0.961 . S
C1018 H1032 0.961 . S
C1019 C1016 1.539 . S
C1019 H1033 0.958 . S
C1019 H1034 0.961 . S
C1019 H1035 0.960 . S
H1020 C1004 0.931 . S
H1021 C1009 0.929 . S
H1022 C1010 0.960 . S
H1023 C1010 0.962 . S
H1024 C1010 0.960 . S
H1025 C1011 0.961 . S
H1026 C1011 0.961 . S
H1027 C1011 0.961 . S
H1028 C1012 0.931 . S
H1029 C1017 0.930 . S
H1030 C1018 0.956 . S
H1031 C1018 0.961 . S
H1032 C1018 0.961 . S
H1033 C1019 0.958 . S
H1034 C1019 0.961 . S
H1035 C1019 0.960 . S
C1036 C1037 1.391 . S
C1036 C1038 1.394 . S
C1036 H1052 0.931 . S
C1037 C1036 1.391 . S
C1037 C1041 1.376 . S
C1038 C1036 1.394 . S
C1038 C1039 1.369 . S
C1038 C1042 1.531 . S
C1039 C1038 1.369 . S
C1039 C1040 1.410 . S
C1039 C1047 1.503 . S
C1040 C1039 1.410 . S
C1040 C1041 1.392 . S
C1040 C1043 1.511 . S
C1041 C1037 1.376 . S
C1041 C1040 1.392 . S
C1041 H1053 0.929 . S
C1042 C1038 1.531 . S
C1042 H1054 0.960 . S
C1042 H1055 0.962 . S
C1042 H1056 0.960 . S
C1043 C1040 1.511 . S
C1043 H1057 0.961 1_545 S
C1043 H1058 0.961 . S
C1043 H1059 0.961 . S
C1044 C1045 1.370 . S
C1044 C1046 1.363 . S
C1044 H1060 0.931 . S
C1045 C1044 1.370 . S
C1045 C1049 1.408 . S
C1046 C1044 1.363 . S
C1046 C1047 1.370 . S
C1046 C1050 1.524 . S
C1047 C1039 1.503 . S
C1047 C1046 1.370 . S
C1047 C1048 1.403 . S
C1048 C1047 1.403 . S
C1048 C1049 1.404 . S
C1048 C1051 1.539 . S
C1049 C1045 1.408 . S
C1049 C1048 1.404 . S
C1049 H1061 0.930 . S
C1050 C1046 1.524 . S
C1050 H1062 0.956 . S
C1050 H1063 0.961 . S
C1050 H1064 0.961 . S
C1051 C1048 1.539 . S
C1051 H1065 0.958 . S
C1051 H1066 0.961 . S
C1051 H1067 0.960 . S
H1052 C1036 0.931 . S
H1053 C1041 0.929 . S
H1054 C1042 0.960 . S
H1055 C1042 0.962 . S
H1056 C1042 0.960 . S
H1057 C1043 0.961 1_565 S
H1058 C1043 0.961 . S
H1059 C1043 0.961 . S
H1060 C1044 0.931 . S
H1061 C1049 0.930 . S
H1062 C1050 0.956 . S
H1063 C1050 0.961 . S
H1064 C1050 0.961 . S
H1065 C1051 0.958 . S
H1066 C1051 0.961 . S
H1067 C1051 0.960 . S
C1068 C1069 1.391 . S
C1068 C1070 1.394 . S
C1068 H1084 0.931 . S
C1069 C1068 1.391 . S
C1069 C1073 1.376 . S
C1070 C1068 1.394 . S
C1070 C1071 1.369 . S
C1070 C1074 1.531 . S
C1071 C1070 1.369 . S
C1071 C1072 1.410 . S
C1071 C1079 1.503 . S
C1072 C1071 1.410 . S
C1072 C1073 1.392 . S
C1072 C1075 1.511 . S
C1073 C1069 1.376 . S
C1073 C1072 1.392 . S
C1073 H1085 0.929 . S
C1074 C1070 1.531 . S
C1074 H1086 0.960 . S
C1074 H1087 0.962 . S
C1074 H1088 0.960 . S
C1075 C1072 1.511 . S
C1075 H1089 0.961 . S
C1075 H1090 0.961 . S
C1075 H1091 0.961 . S
C1076 C1077 1.370 . S
C1076 C1078 1.363 . S
C1076 H1092 0.931 . S
C1077 C1076 1.370 . S
C1077 C1081 1.408 . S
C1078 C1076 1.363 . S
C1078 C1079 1.370 . S
C1078 C1082 1.524 . S
C1079 C1071 1.503 . S
C1079 C1078 1.370 . S
C1079 C1080 1.403 . S
C1080 C1079 1.403 . S
C1080 C1081 1.404 . S
C1080 C1083 1.539 . S
C1081 C1077 1.408 . S
C1081 C1080 1.404 . S
C1081 H1093 0.930 . S
C1082 C1078 1.524 . S
C1082 H1094 0.956 . S
C1082 H1095 0.961 . S
C1082 H1096 0.961 . S
C1083 C1080 1.539 . S
C1083 H1097 0.958 . S
C1083 H1098 0.961 . S
C1083 H1099 0.960 . S
H1084 C1068 0.931 . S
H1085 C1073 0.929 . S
H1086 C1074 0.960 . S
H1087 C1074 0.962 . S
H1088 C1074 0.960 . S
H1089 C1075 0.961 . S
H1090 C1075 0.961 . S
H1091 C1075 0.961 . S
H1092 C1076 0.931 . S
H1093 C1081 0.930 . S
H1094 C1082 0.956 . S
H1095 C1082 0.961 . S
H1096 C1082 0.961 . S
H1097 C1083 0.958 . S
H1098 C1083 0.961 . S
H1099 C1083 0.960 . S
C1100 C1101 1.391 . S
C1100 C1102 1.394 . S
C1100 H1116 0.931 . S
C1101 C1100 1.391 . S
C1101 C1105 1.376 . S
C1102 C1100 1.394 . S
C1102 C1103 1.369 . S
C1102 C1106 1.531 . S
C1103 C1102 1.369 . S
C1103 C1104 1.410 . S
C1103 C1111 1.503 . S
C1104 C1103 1.410 . S
C1104 C1105 1.392 . S
C1104 C1107 1.511 . S
C1105 C1101 1.376 . S
C1105 C1104 1.392 . S
C1105 H1117 0.929 . S
C1106 C1102 1.531 . S
C1106 H1118 0.960 1_655 S
C1106 H1119 0.962 . S
C1106 H1120 0.960 1_655 S
C1107 C1104 1.511 . S
C1107 H1121 0.961 . S
C1107 H1122 0.961 . S
C1107 H1123 0.961 . S
C1108 C1109 1.370 . S
C1108 C1110 1.363 . S
C1108 H1124 0.931 . S
C1109 C1108 1.370 . S
C1109 C1113 1.408 . S
C1110 C1108 1.363 . S
C1110 C1111 1.370 . S
C1110 C1114 1.524 . S
C1111 C1103 1.503 . S
C1111 C1110 1.370 . S
C1111 C1112 1.403 . S
C1112 C1111 1.403 . S
C1112 C1113 1.404 . S
C1112 C1115 1.539 . S
C1113 C1109 1.408 . S
C1113 C1112 1.404 . S
C1113 H1125 0.930 . S
C1114 C1110 1.524 . S
C1114 H1126 0.956 . S
C1114 H1127 0.961 . S
C1114 H1128 0.961 . S
C1115 C1112 1.539 . S
C1115 H1129 0.958 1_655 S
C1115 H1130 0.960 1_655 S
C1115 H1131 0.960 . S
H1116 C1100 0.931 . S
H1117 C1105 0.929 . S
H1118 C1106 0.960 1_455 S
H1119 C1106 0.962 . S
H1120 C1106 0.960 1_455 S
H1121 C1107 0.961 . S
H1122 C1107 0.961 . S
H1123 C1107 0.961 . S
H1124 C1108 0.931 . S
H1125 C1113 0.930 . S
H1126 C1114 0.956 . S
H1127 C1114 0.961 . S
H1128 C1114 0.961 . S
H1129 C1115 0.958 1_455 S
H1130 C1115 0.960 1_455 S
H1131 C1115 0.960 . S
C1132 C1133 1.391 . S
C1132 C1134 1.394 . S
C1132 H1148 0.931 . S
C1133 C1132 1.391 . S
C1133 C1137 1.376 . S
C1134 C1132 1.394 . S
C1134 C1135 1.369 . S
C1134 C1138 1.531 1_565 S
C1135 C1134 1.369 . S
C1135 C1136 1.410 . S
C1135 C1143 1.503 . S
C1136 C1135 1.410 . S
C1136 C1137 1.392 . S
C1136 C1139 1.511 . S
C1137 C1133 1.376 . S
C1137 C1136 1.392 . S
C1137 H1149 0.929 . S
C1138 C1134 1.531 1_545 S
C1138 H1150 0.960 . S
C1138 H1151 0.962 1_545 S
C1138 H1152 0.960 . S
C1139 C1136 1.511 . S
C1139 H1153 0.961 . S
C1139 H1154 0.961 . S
C1139 H1155 0.961 . S
C1140 C1141 1.370 . S
C1140 C1142 1.363 . S
C1140 H1156 0.931 . S
C1141 C1140 1.370 . S
C1141 C1145 1.408 . S
C1142 C1140 1.363 . S
C1142 C1143 1.370 . S
C1142 C1146 1.524 . S
C1143 C1135 1.503 . S
C1143 C1142 1.370 . S
C1143 C1144 1.403 . S
C1144 C1143 1.403 . S
C1144 C1145 1.404 . S
C1144 C1147 1.539 . S
C1145 C1141 1.408 . S
C1145 C1144 1.404 . S
C1145 H1157 0.930 . S
C1146 C1142 1.524 . S
C1146 H1158 0.956 . S
C1146 H1159 0.961 . S
C1146 H1160 0.961 . S
C1147 C1144 1.539 . S
C1147 H1161 0.958 1_565 S
C1147 H1162 0.961 . S
C1147 H1163 0.960 . S
H1148 C1132 0.931 . S
H1149 C1137 0.929 . S
H1150 C1138 0.960 . S
H1151 C1138 0.962 1_565 S
H1152 C1138 0.960 . S
H1153 C1139 0.961 . S
H1154 C1139 0.961 . S
H1155 C1139 0.961 . S
H1156 C1140 0.931 . S
H1157 C1145 0.930 . S
H1158 C1146 0.956 . S
H1159 C1146 0.961 . S
H1160 C1146 0.961 . S
H1161 C1147 0.958 1_545 S
H1162 C1147 0.961 . S
H1163 C1147 0.960 . S
C1164 C1165 1.391 . S
C1164 C1166 1.394 . S
C1164 H1180 0.931 . S
C1165 C1164 1.391 . S
C1165 C1169 1.376 . S
C1166 C1164 1.394 . S
C1166 C1167 1.369 . S
C1166 C1170 1.531 . S
C1167 C1166 1.369 . S
C1167 C1168 1.410 . S
C1167 C1175 1.503 . S
C1168 C1167 1.410 . S
C1168 C1169 1.392 . S
C1168 C1171 1.511 . S
C1169 C1165 1.376 . S
C1169 C1168 1.392 . S
C1169 H1181 0.929 . S
C1170 C1166 1.531 . S
C1170 H1182 0.960 . S
C1170 H1183 0.962 . S
C1170 H1184 0.960 . S
C1171 C1168 1.511 . S
C1171 H1185 0.961 . S
C1171 H1186 0.961 . S
C1171 H1187 0.961 . S
C1172 C1173 1.370 . S
C1172 C1174 1.363 . S
C1172 H1188 0.931 . S
C1173 C1172 1.370 . S
C1173 C1177 1.408 . S
C1174 C1172 1.363 . S
C1174 C1175 1.370 . S
C1174 C1178 1.524 . S
C1175 C1167 1.503 . S
C1175 C1174 1.370 . S
C1175 C1176 1.403 . S
C1176 C1175 1.403 . S
C1176 C1177 1.404 . S
C1176 C1179 1.539 . S
C1177 C1173 1.408 . S
C1177 C1176 1.404 . S
C1177 H1189 0.930 . S
C1178 C1174 1.524 . S
C1178 H1190 0.956 . S
C1178 H1191 0.961 . S
C1178 H1192 0.961 . S
C1179 C1176 1.539 . S
C1179 H1193 0.958 . S
C1179 H1194 0.961 . S
C1179 H1195 0.960 . S
H1180 C1164 0.931 . S
H1181 C1169 0.929 . S
H1182 C1170 0.960 . S
H1183 C1170 0.962 . S
H1184 C1170 0.960 . S
H1185 C1171 0.961 . S
H1186 C1171 0.961 . S
H1187 C1171 0.961 . S
H1188 C1172 0.931 . S
H1189 C1177 0.930 . S
H1190 C1178 0.956 . S
H1191 C1178 0.961 . S
H1192 C1178 0.961 . S
H1193 C1179 0.958 . S
H1194 C1179 0.961 . S
H1195 C1179 0.960 . S
C1196 C1197 1.391 1_655 S
C1196 C1198 1.394 . S
C1196 H1212 0.931 . S
C1197 C1196 1.391 1_455 S
C1197 C1201 1.376 . S
C1198 C1196 1.394 . S
C1198 C1199 1.369 1_655 S
C1198 C1202 1.531 . S
C1199 C1198 1.369 1_455 S
C1199 C1200 1.410 . S
C1199 C1207 1.505 . S
C1200 C1199 1.410 . S
C1200 C1201 1.392 . S
C1200 C1203 1.511 . S
C1201 C1197 1.376 . S
C1201 C1200 1.392 . S
C1201 H1213 0.929 . S
C1202 C1198 1.531 . S
C1202 H1214 0.960 . S
C1202 H1215 0.962 . S
C1202 H1216 0.960 . S
C1203 C1200 1.511 . S
C1203 H1217 0.961 . S
C1203 H1218 0.961 . S
C1203 H1219 0.961 . S
C1204 C1205 1.370 . S
C1204 C1206 1.363 . S
C1204 H1220 0.931 . S
C1205 C1204 1.370 . S
C1205 C1209 1.408 1_655 S
C1206 C1204 1.363 . S
C1206 C1207 1.357 1_655 S
C1206 C1210 1.524 . S
C1207 C1199 1.505 . S
C1207 C1206 1.357 1_455 S
C1207 C1208 1.414 . S
C1208 C1207 1.414 . S
C1208 C1209 1.404 . S
C1208 C1211 1.539 . S
C1209 C1205 1.408 1_455 S
C1209 C1208 1.404 . S
C1209 H1221 0.930 . S
C1210 C1206 1.524 . S
C1210 H1222 0.956 . S
C1210 H1223 0.961 1_655 S
C1210 H1224 0.961 . S
C1211 C1208 1.539 . S
C1211 H1225 0.958 1_455 S
C1211 H1226 0.961 . S
C1211 H1227 0.960 . S
H1212 C1196 0.931 . S
H1213 C1201 0.929 . S
H1214 C1202 0.960 . S
H1215 C1202 0.962 . S
H1216 C1202 0.960 . S
H1217 C1203 0.961 . S
H1218 C1203 0.961 . S
H1219 C1203 0.961 . S
H1220 C1204 0.931 . S
H1221 C1209 0.930 . S
H1222 C1210 0.956 . S
H1223 C1210 0.961 1_455 S
H1224 C1210 0.961 . S
H1225 C1211 0.958 1_655 S
H1226 C1211 0.961 . S
H1227 C1211 0.960 . S
C1228 C1229 1.391 . S
C1228 C1230 1.394 . S
C1228 H1244 0.931 . S
C1229 C1228 1.391 . S
C1229 C1233 1.376 1_545 S
C1230 C1228 1.394 . S
C1230 C1231 1.369 . S
C1230 C1234 1.531 . S
C1231 C1230 1.369 . S
C1231 C1232 1.410 1_545 S
C1231 C1239 1.503 1_556 S
C1232 C1231 1.410 1_565 S
C1232 C1233 1.392 . S
C1232 C1235 1.511 . S
C1233 C1229 1.376 1_565 S
C1233 C1232 1.392 . S
C1233 H1245 0.929 . S
C1234 C1230 1.531 . S
C1234 H1246 0.960 1_556 S
C1234 H1247 0.962 . S
C1234 H1248 0.960 . S
C1235 C1232 1.511 . S
C1235 H1249 0.961 . S
C1235 H1250 0.961 1_556 S
C1235 H1251 0.961 1_565 S
C1236 C1237 1.370 . S
C1236 C1238 1.363 . S
C1236 H1252 0.931 . S
C1237 C1236 1.370 . S
C1237 C1241 1.408 1_565 S
C1238 C1236 1.363 . S
C1238 C1239 1.370 1_565 S
C1238 C1242 1.524 . S
C1239 C1231 1.503 1_554 S
C1239 C1238 1.370 1_545 S
C1239 C1240 1.403 . S
C1240 C1239 1.403 . S
C1240 C1241 1.404 . S
C1240 C1243 1.539 . S
C1241 C1237 1.408 1_545 S
C1241 C1240 1.404 . S
C1241 H1253 0.930 . S
C1242 C1238 1.524 . S
C1242 H1254 0.958 . S
C1242 H1255 0.961 1_554 S
C1242 H1256 0.961 . S
C1243 C1240 1.539 . S
C1243 H1257 0.958 . S
C1243 H1258 0.961 . S
C1243 H1259 0.960 . S
H1244 C1228 0.931 . S
H1245 C1233 0.929 . S
H1246 C1234 0.960 1_554 S
H1247 C1234 0.962 . S
H1248 C1234 0.960 . S
H1249 C1235 0.961 . S
H1250 C1235 0.961 1_554 S
H1251 C1235 0.961 1_545 S
H1252 C1236 0.931 . S
H1253 C1241 0.930 . S
H1254 C1242 0.958 . S
H1255 C1242 0.961 1_556 S
H1256 C1242 0.961 . S
H1257 C1243 0.958 . S
H1258 C1243 0.961 . S
H1259 C1243 0.960 . S
C1260 C1261 1.391 . S
C1260 C1262 1.394 . S
C1260 H1276 0.931 . S
C1261 C1260 1.391 . S
C1261 C1265 1.376 . S
C1262 C1260 1.394 . S
C1262 C1263 1.369 . S
C1262 C1266 1.531 . S
C1263 C1262 1.369 . S
C1263 C1264 1.410 . S
C1263 C1271 1.503 . S
C1264 C1263 1.410 . S
C1264 C1265 1.392 . S
C1264 C1267 1.511 . S
C1265 C1261 1.376 . S
C1265 C1264 1.392 . S
C1265 H1277 0.929 . S
C1266 C1262 1.531 . S
C1266 H1278 0.960 . S
C1266 H1279 0.962 . S
C1266 H1280 0.960 . S
C1267 C1264 1.511 . S
C1267 H1281 0.961 . S
C1267 H1282 0.961 . S
C1267 H1283 0.961 . S
C1268 C1269 1.370 . S
C1268 C1270 1.363 . S
C1268 H1284 0.931 . S
C1269 C1268 1.370 . S
C1269 C1273 1.408 . S
C1270 C1268 1.363 . S
C1270 C1271 1.370 . S
C1270 C1274 1.524 . S
C1271 C1263 1.503 . S
C1271 C1270 1.370 . S
C1271 C1272 1.403 . S
C1272 C1271 1.403 . S
C1272 C1273 1.404 . S
C1272 C1275 1.539 . S
C1273 C1269 1.408 . S
C1273 C1272 1.404 . S
C1273 H1285 0.930 . S
C1274 C1270 1.524 . S
C1274 H1286 0.956 . S
C1274 H1287 0.961 . S
C1274 H1288 0.961 . S
C1275 C1272 1.539 . S
C1275 H1289 0.958 . S
C1275 H1290 0.961 . S
C1275 H1291 0.960 . S
H1276 C1260 0.931 . S
H1277 C1265 0.929 . S
H1278 C1266 0.960 . S
H1279 C1266 0.962 . S
H1280 C1266 0.960 . S
H1281 C1267 0.961 . S
H1282 C1267 0.961 . S
H1283 C1267 0.961 . S
H1284 C1268 0.931 . S
H1285 C1273 0.930 . S
H1286 C1274 0.956 . S
H1287 C1274 0.961 . S
H1288 C1274 0.961 . S
H1289 C1275 0.958 . S
H1290 C1275 0.961 . S
H1291 C1275 0.960 . S
C1292 C1293 1.391 . S
C1292 C1294 1.394 . S
C1292 H1308 0.931 . S
C1293 C1292 1.391 . S
C1293 C1297 1.376 1_655 S
C1294 C1292 1.394 . S
C1294 C1295 1.369 1_655 S
C1294 C1298 1.531 . S
C1295 C1294 1.369 1_455 S
C1295 C1296 1.410 . S
C1295 C1303 1.503 . S
C1296 C1295 1.410 . S
C1296 C1297 1.392 . S
C1296 C1299 1.511 . S
C1297 C1293 1.376 1_455 S
C1297 C1296 1.392 . S
C1297 H1309 0.929 . S
C1298 C1294 1.531 . S
C1298 H1310 0.960 . S
C1298 H1311 0.962 . S
C1298 H1312 0.960 . S
C1299 C1296 1.511 . S
C1299 H1313 0.961 . S
C1299 H1314 0.961 . S
C1299 H1315 0.961 . S
C1300 C1301 1.370 1_655 S
C1300 C1302 1.363 . S
C1300 H1316 0.931 . S
C1301 C1300 1.370 1_455 S
C1301 C1305 1.408 . S
C1302 C1300 1.363 . S
C1302 C1303 1.370 1_655 S
C1302 C1306 1.524 . S
C1303 C1295 1.503 . S
C1303 C1302 1.370 1_455 S
C1303 C1304 1.403 . S
C1304 C1303 1.403 . S
C1304 C1305 1.404 . S
C1304 C1307 1.539 . S
C1305 C1301 1.408 . S
C1305 C1304 1.404 . S
C1305 H1317 0.930 . S
C1306 C1302 1.524 . S
C1306 H1318 0.956 . S
C1306 H1319 0.961 . S
C1306 H1320 0.961 . S
C1307 C1304 1.539 . S
C1307 H1321 0.958 . S
C1307 H1322 0.961 . S
C1307 H1323 0.960 . S
H1308 C1292 0.931 . S
H1309 C1297 0.929 . S
H1310 C1298 0.960 . S
H1311 C1298 0.962 . S
H1312 C1298 0.960 . S
H1313 C1299 0.961 . S
H1314 C1299 0.961 . S
H1315 C1299 0.961 . S
H1316 C1300 0.931 . S
H1317 C1305 0.930 . S
H1318 C1306 0.956 . S
H1319 C1306 0.961 . S
H1320 C1306 0.961 . S
H1321 C1307 0.958 . S
H1322 C1307 0.961 . S
H1323 C1307 0.960 . S
C1324 C1325 1.391 . S
C1324 C1326 1.394 . S
C1324 H1340 0.931 . S
C1325 C1324 1.391 . S
C1325 C1329 1.376 1_545 S
C1326 C1324 1.394 . S
C1326 C1327 1.369 . S
C1326 C1330 1.531 . S
C1327 C1326 1.369 . S
C1327 C1328 1.410 1_545 S
C1327 C1335 1.503 . S
C1328 C1327 1.410 1_565 S
C1328 C1329 1.392 . S
C1328 C1331 1.511 . S
C1329 C1325 1.376 1_565 S
C1329 C1328 1.392 . S
C1329 H1341 0.929 . S
C1330 C1326 1.531 . S
C1330 H1342 0.960 . S
C1330 H1343 0.962 . S
C1330 H1344 0.960 . S
C1331 C1328 1.511 . S
C1331 H1345 0.961 . S
C1331 H1346 0.961 . S
C1331 H1347 0.961 . S
C1332 C1333 1.370 . S
C1332 C1334 1.363 . S
C1332 H1348 0.931 . S
C1333 C1332 1.370 . S
C1333 C1337 1.408 1_565 S
C1334 C1332 1.363 . S
C1334 C1335 1.370 1_565 S
C1334 C1338 1.524 . S
C1335 C1327 1.503 . S
C1335 C1334 1.370 1_545 S
C1335 C1336 1.403 . S
C1336 C1335 1.403 . S
C1336 C1337 1.404 . S
C1336 C1339 1.539 . S
C1337 C1333 1.408 1_545 S
C1337 C1336 1.404 . S
C1337 H1349 0.930 . S
C1338 C1334 1.524 . S
C1338 H1350 0.956 . S
C1338 H1351 0.961 . S
C1338 H1352 0.961 . S
C1339 C1336 1.539 . S
C1339 H1353 0.958 . S
C1339 H1354 0.961 . S
C1339 H1355 0.960 . S
H1340 C1324 0.931 . S
H1341 C1329 0.929 . S
H1342 C1330 0.960 . S
H1343 C1330 0.962 . S
H1344 C1330 0.960 . S
H1345 C1331 0.961 . S
H1346 C1331 0.961 . S
H1347 C1331 0.961 . S
H1348 C1332 0.931 . S
H1349 C1337 0.930 . S
H1350 C1338 0.956 . S
H1351 C1338 0.961 . S
H1352 C1338 0.961 . S
H1353 C1339 0.958 . S
H1354 C1339 0.961 . S
H1355 C1339 0.960 . S
C397 C282 0.912 . S
C405 C18 0.891 . S
C429 C51 0.894 . S
C437 C315 0.880 . S
C461 C84 0.899 . S
C469 C348 0.879 . S
C493 C117 0.931 . S
C501 C381 0.876 . S
C525 C150 0.880 . S
C533 C216 0.903 . S
C557 C183 0.848 . S
C565 C249 0.906 . S
C589 N13 1.770 . S
C597 C172 1.729 . S
C621 C7 1.758 . S
C629 N46 1.789 . S
C653 N79 1.772 . S
C661 C40 1.727 . S
C685 C73 1.705 . S
C693 N112 1.784 . S
C717 C106 1.733 . S
C725 N145 1.783 . S
C749 N178 1.792 . S
C757 C139 1.730 . S
C781 C238 1.740 . S
C789 N211 1.784 . S
C813 C271 1.757 . S
C821 N244 1.791 . S
C845 C304 1.718 . S
C853 N277 1.791 . S
C877 C337 1.725 . S
C885 N310 1.782 . S
C909 C370 1.712 . S
C917 N343 1.783 . S
C941 N376 1.794 . S
C949 C205 1.744 . S
C973 C21 1.298 . S
C981 C219 1.325 . S
C1005 C54 1.298 . S
C1013 C252 1.325 . S
C1037 C87 1.328 . S
C1045 C285 1.311 . S
C1069 C120 1.298 . S
C1077 C318 1.325 . S
C1101 C351 1.302 . S
C1109 C153 1.323 . S
C1133 C186 1.300 . S
C1141 C384 1.324 . S
C1165 N299 0.651 . S
C1173 N2 0.776 . S
C1197 N35 0.689 . S
C1205 N332 0.748 . S
C1229 N68 0.690 . S
C1237 N365 0.790 . S
C1261 N101 0.844 . S
C1269 N200 0.724 . S
C1293 N134 0.841 . S
C1301 N233 0.726 . S
C1325 N266 0.696 . S
C1333 N167 0.789 . S
