# Generated by pormake.
# Topology ukb, (4)-cn, num edge types: 1
# Building blocks:
#     Node 0, Type 0, BuildingBlock: QUQFOY_clean_sbu_3, # of connection points: 4
#     Node 1, Type 0, BuildingBlock: QUQFOY_clean_sbu_3, # of connection points: 4
#     Node 2, Type 0, BuildingBlock: QUQFOY_clean_sbu_3, # of connection points: 4
#     Node 3, Type 0, BuildingBlock: QUQFOY_clean_sbu_3, # of connection points: 4
#     Node 4, Type 0, BuildingBlock: QUQFOY_clean_sbu_3, # of connection points: 4
#     Node 5, Type 0, BuildingBlock: QUQFOY_clean_sbu_3, # of connection points: 4
#     Node 6, Type 0, BuildingBlock: QUQFOY_clean_sbu_3, # of connection points: 4
#     Node 7, Type 0, BuildingBlock: QUQFOY_clean_sbu_3, # of connection points: 4
#     Node 8, Type 0, BuildingBlock: QUQFOY_clean_sbu_3, # of connection points: 4
#     Node 9, Type 0, BuildingBlock: QUQFOY_clean_sbu_3, # of connection points: 4
#     Node 10, Type 0, BuildingBlock: QUQFOY_clean_sbu_3, # of connection points: 4
#     Node 11, Type 0, BuildingBlock: QUQFOY_clean_sbu_3, # of connection points: 4
#     Node 12, Type 0, BuildingBlock: QUQFOY_clean_sbu_3, # of connection points: 4
#     Node 13, Type 0, BuildingBlock: QUQFOY_clean_sbu_3, # of connection points: 4
#     Node 14, Type 0, BuildingBlock: QUQFOY_clean_sbu_3, # of connection points: 4
#     Node 15, Type 0, BuildingBlock: QUQFOY_clean_sbu_3, # of connection points: 4
#     Edge 16, Type (0, 0), BuildingBlock: OJICUG_clean_linker_0, # of connection points: 2
#     Edge 17, Type (0, 0), BuildingBlock: OJICUG_clean_linker_0, # of connection points: 2
#     Edge 18, Type (0, 0), BuildingBlock: OJICUG_clean_linker_0, # of connection points: 2
#     Edge 19, Type (0, 0), BuildingBlock: OJICUG_clean_linker_0, # of connection points: 2
#     Edge 20, Type (0, 0), BuildingBlock: OJICUG_clean_linker_0, # of connection points: 2
#     Edge 21, Type (0, 0), BuildingBlock: OJICUG_clean_linker_0, # of connection points: 2
#     Edge 22, Type (0, 0), BuildingBlock: OJICUG_clean_linker_0, # of connection points: 2
#     Edge 23, Type (0, 0), BuildingBlock: OJICUG_clean_linker_0, # of connection points: 2
#     Edge 24, Type (0, 0), BuildingBlock: OJICUG_clean_linker_0, # of connection points: 2
#     Edge 25, Type (0, 0), BuildingBlock: OJICUG_clean_linker_0, # of connection points: 2
#     Edge 26, Type (0, 0), BuildingBlock: OJICUG_clean_linker_0, # of connection points: 2
#     Edge 27, Type (0, 0), BuildingBlock: OJICUG_clean_linker_0, # of connection points: 2
#     Edge 28, Type (0, 0), BuildingBlock: OJICUG_clean_linker_0, # of connection points: 2
#     Edge 29, Type (0, 0), BuildingBlock: OJICUG_clean_linker_0, # of connection points: 2
#     Edge 30, Type (0, 0), BuildingBlock: OJICUG_clean_linker_0, # of connection points: 2
#     Edge 31, Type (0, 0), BuildingBlock: OJICUG_clean_linker_0, # of connection points: 2
#     Edge 32, Type (0, 0), BuildingBlock: OJICUG_clean_linker_0, # of connection points: 2
#     Edge 33, Type (0, 0), BuildingBlock: OJICUG_clean_linker_0, # of connection points: 2
#     Edge 34, Type (0, 0), BuildingBlock: OJICUG_clean_linker_0, # of connection points: 2
#     Edge 35, Type (0, 0), BuildingBlock: OJICUG_clean_linker_0, # of connection points: 2
#     Edge 36, Type (0, 0), BuildingBlock: OJICUG_clean_linker_0, # of connection points: 2
#     Edge 37, Type (0, 0), BuildingBlock: OJICUG_clean_linker_0, # of connection points: 2
#     Edge 38, Type (0, 0), BuildingBlock: OJICUG_clean_linker_0, # of connection points: 2
#     Edge 39, Type (0, 0), BuildingBlock: OJICUG_clean_linker_0, # of connection points: 2
#     Edge 40, Type (0, 0), BuildingBlock: OJICUG_clean_linker_0, # of connection points: 2
#     Edge 41, Type (0, 0), BuildingBlock: OJICUG_clean_linker_0, # of connection points: 2
#     Edge 42, Type (0, 0), BuildingBlock: OJICUG_clean_linker_0, # of connection points: 2
#     Edge 43, Type (0, 0), BuildingBlock: OJICUG_clean_linker_0, # of connection points: 2
#     Edge 44, Type (0, 0), BuildingBlock: OJICUG_clean_linker_0, # of connection points: 2
#     Edge 45, Type (0, 0), BuildingBlock: OJICUG_clean_linker_0, # of connection points: 2
#     Edge 46, Type (0, 0), BuildingBlock: OJICUG_clean_linker_0, # of connection points: 2
#     Edge 47, Type (0, 0), BuildingBlock: OJICUG_clean_linker_0, # of connection points: 2
# Relax obj value: 0.083
# Max RMSD: 0.049
# Mean RMSD: 0.049
data_MOF--net-ukb--node1-QUQFOY_clean_sbu_3--edge1-OJICUG_clean_linker_0
_symmetry_space_group_name_H-M    P1
_symmetry_Int_Tables_number       1
_symmetry_cell_setting            triclinic
loop_
_symmetry_equiv_pos_as_xyz
'x, y, z'
_cell_length_a     34.454911
_cell_length_b     34.364971
_cell_length_c     30.471811
_cell_angle_alpha  90.141318
_cell_angle_beta   90.084496
_cell_angle_gamma 90.00886
loop_
_atom_site_label
_atom_site_type_symbol
_atom_site_fract_x
_atom_site_fract_y
_atom_site_fract_z
_atom_type_partial_charge
C0 C 0.51399 0.1841 0.03953 0.0
O1 O 0.5464 0.16667 0.03869 0.0
Cd2 Cd 0.58237 0.15913 0.105 0.0
O3 O 0.496 0.18916 0.07565 0.0
Cd4 Cd 0.50198 0.16307 0.15257 0.0
C5 C 0.55516 0.24303 0.16301 0.0
O6 O 0.55243 0.11201 0.14995 0.0
O7 O 0.54429 0.14189 0.2115 0.0
O8 O 0.44477 0.12234 0.14219 0.0
C9 C 0.56158 0.11536 0.19018 0.0
O10 O 0.57948 0.22327 0.14062 0.0
C11 C 0.42838 0.13202 0.17789 0.0
O12 O 0.52209 0.22896 0.17299 0.0
O13 O 0.44522 0.15788 0.20098 0.0
C14 C 0.26695 0.51701 0.53941 0.0
O15 O 0.28386 0.54977 0.5391 0.0
Cd16 Cd 0.29093 0.58549 0.60576 0.0
O17 O 0.26192 0.49865 0.57529 0.0
Cd18 Cd 0.28718 0.50456 0.65266 0.0
C19 C 0.20715 0.5575 0.66272 0.0
O20 O 0.33797 0.55527 0.65069 0.0
O21 O 0.30813 0.54683 0.71202 0.0
O22 O 0.32793 0.44734 0.64231 0.0
C23 C 0.3346 0.56427 0.69095 0.0
O24 O 0.22683 0.58213 0.64075 0.0
C25 C 0.31822 0.43076 0.67784 0.0
O26 O 0.2213 0.52435 0.67253 0.0
O27 O 0.29235 0.44752 0.70084 0.0
C28 C 0.9345 0.26658 0.04069 0.0
O29 O 0.90197 0.2838 0.04021 0.0
Cd30 Cd 0.8665 0.29139 0.10676 0.0
O31 O 0.95284 0.26157 0.07663 0.0
Cd32 Cd 0.94749 0.28743 0.15384 0.0
C33 C 0.89434 0.20746 0.16403 0.0
O34 O 0.89706 0.33845 0.15161 0.0
O35 O 0.90564 0.30889 0.21313 0.0
O36 O 0.00463 0.32803 0.14294 0.0
C37 C 0.88817 0.33528 0.19187 0.0
O38 O 0.86986 0.22724 0.14193 0.0
C39 C 0.02138 0.3185 0.17847 0.0
O40 O 0.92748 0.22151 0.17394 0.0
O41 O 0.00473 0.29279 0.20176 0.0
C42 C 0.18416 0.93675 0.54054 0.0
O43 O 0.16696 0.90415 0.53989 0.0
Cd44 Cd 0.15944 0.86861 0.60637 0.0
O45 O 0.18909 0.95511 0.57656 0.0
Cd46 Cd 0.16303 0.94959 0.65354 0.0
C47 C 0.24295 0.8967 0.6643 0.0
O48 O 0.11222 0.89888 0.65098 0.0
O49 O 0.14185 0.90741 0.71257 0.0
O50 O 0.12225 0.00671 0.64273 0.0
C51 C 0.11545 0.88994 0.69124 0.0
O52 O 0.22334 0.8721 0.64201 0.0
C53 C 0.13165 0.0234 0.67842 0.0
O54 O 0.22879 0.92987 0.67416 0.0
O55 O 0.15741 0.00678 0.7017 0.0
C56 C 0.51388 0.2677 0.88081 0.0
O57 O 0.5463 0.28513 0.88173 0.0
Cd58 Cd 0.58215 0.29278 0.81547 0.0
O59 O 0.49583 0.26271 0.84465 0.0
Cd60 Cd 0.50173 0.289 0.76784 0.0
C61 C 0.55479 0.20905 0.75715 0.0
O62 O 0.55224 0.34004 0.77057 0.0
O63 O 0.54394 0.31021 0.70898 0.0
O64 O 0.44462 0.32978 0.77827 0.0
C65 C 0.56129 0.33672 0.73033 0.0
O66 O 0.57916 0.22875 0.77963 0.0
C67 C 0.42815 0.32019 0.74253 0.0
O68 O 0.5217 0.22315 0.74719 0.0
O69 O 0.44489 0.29433 0.7194 0.0
C70 C 0.18518 0.51587 0.3793 0.0
O71 O 0.16805 0.54851 0.37986 0.0
Cd72 Cd 0.16024 0.58397 0.31336 0.0
O73 O 0.19001 0.49742 0.34334 0.0
Cd74 Cd 0.16389 0.50277 0.26629 0.0
C75 C 0.24369 0.55589 0.25556 0.0
O76 O 0.11302 0.55333 0.26893 0.0
O77 O 0.14229 0.54481 0.20722 0.0
O78 O 0.12329 0.44558 0.27735 0.0
C79 C 0.11599 0.56225 0.22865 0.0
O80 O 0.22407 0.58047 0.27779 0.0
C81 C 0.13254 0.42883 0.24167 0.0
O82 O 0.22959 0.52267 0.24572 0.0
O83 O 0.15815 0.44546 0.21827 0.0
C84 C 0.93408 0.18476 0.88033 0.0
O85 O 0.90148 0.16766 0.88058 0.0
Cd86 Cd 0.86597 0.16038 0.81391 0.0
O87 O 0.95245 0.18987 0.84448 0.0
Cd88 Cd 0.94694 0.16446 0.76708 0.0
C89 C 0.89382 0.24448 0.75707 0.0
O90 O 0.89648 0.11346 0.76895 0.0
O91 O 0.90502 0.14326 0.70759 0.0
O92 O 0.00408 0.1238 0.77773 0.0
C93 C 0.88756 0.11678 0.72867 0.0
O94 O 0.8693 0.22465 0.77899 0.0
C95 C 0.02074 0.13349 0.74225 0.0
O96 O 0.92696 0.23044 0.74726 0.0
O97 O 0.00405 0.15933 0.71913 0.0
C98 C 0.26649 0.93594 0.38103 0.0
O99 O 0.28362 0.9033 0.38161 0.0
Cd100 Cd 0.29084 0.86745 0.31509 0.0
O101 O 0.26145 0.95413 0.34503 0.0
Cd102 Cd 0.28708 0.9481 0.2679 0.0
C103 C 0.20712 0.89509 0.25757 0.0
O104 O 0.33796 0.89746 0.27023 0.0
O105 O 0.30808 0.90568 0.20879 0.0
O106 O 0.32783 0.00536 0.27829 0.0
C107 C 0.33461 0.88837 0.22998 0.0
O108 O 0.22679 0.87059 0.27977 0.0
C109 C 0.3182 0.02183 0.24264 0.0
O110 O 0.22125 0.92822 0.24766 0.0
O111 O 0.29234 0.00502 0.21957 0.0
C112 C 0.43567 0.76855 0.88111 0.0
O113 O 0.40322 0.78591 0.88191 0.0
Cd114 Cd 0.36728 0.79335 0.81555 0.0
O115 O 0.45368 0.76349 0.84501 0.0
Cd116 Cd 0.44765 0.78948 0.76806 0.0
C117 C 0.39456 0.70948 0.7576 0.0
O118 O 0.39714 0.84052 0.77056 0.0
O119 O 0.40534 0.81054 0.70907 0.0
O120 O 0.50483 0.83026 0.77831 0.0
C121 C 0.38803 0.8371 0.73032 0.0
O122 O 0.3702 0.72921 0.77995 0.0
C123 C 0.5212 0.82052 0.74263 0.0
O124 O 0.42763 0.72358 0.74767 0.0
O125 O 0.50437 0.7946 0.71961 0.0
C126 C 0.68331 0.43535 0.38077 0.0
O127 O 0.66639 0.4026 0.38109 0.0
Cd128 Cd 0.65916 0.3669 0.31445 0.0
O129 O 0.68831 0.45372 0.34489 0.0
Cd130 Cd 0.66296 0.44789 0.26754 0.0
C131 C 0.74291 0.39481 0.25737 0.0
O132 O 0.61212 0.39724 0.26965 0.0
O133 O 0.64181 0.40564 0.20822 0.0
O134 O 0.62228 0.50515 0.27801 0.0
C135 C 0.61537 0.38824 0.22938 0.0
O136 O 0.72322 0.37022 0.27938 0.0
C137 C 0.63192 0.52173 0.24246 0.0
O138 O 0.72881 0.42798 0.24756 0.0
O139 O 0.65774 0.50496 0.21939 0.0
C140 C 0.01575 0.68494 0.87998 0.0
O141 O 0.04839 0.66792 0.88026 0.0
Cd142 Cd 0.08375 0.66054 0.81361 0.0
O143 O -0.00272 0.68997 0.84413 0.0
Cd144 Cd 0.00261 0.66453 0.76675 0.0
C145 C 0.05574 0.74455 0.75661 0.0
O146 O 0.05308 0.61356 0.76876 0.0
O147 O 0.04437 0.64319 0.7073 0.0
O148 O 0.9455 0.62388 0.77753 0.0
C149 C 0.06191 0.61679 0.72848 0.0
O150 O 0.0803 0.72475 0.77857 0.0
C151 C 0.92873 0.63351 0.74205 0.0
O152 O 0.02257 0.7305 0.74682 0.0
O153 O 0.94535 0.6593 0.71885 0.0
C154 C 0.76522 0.01542 0.37962 0.0
O155 O 0.78251 0.04798 0.38035 0.0
Cd156 Cd 0.79025 0.08355 0.31392 0.0
O157 O 0.76032 -0.00291 0.34358 0.0
Cd158 Cd 0.78654 0.00254 0.26667 0.0
C159 C 0.70673 0.05561 0.25588 0.0
O160 O 0.83744 0.05314 0.26941 0.0
O161 O 0.80796 0.04469 0.20771 0.0
O162 O 0.82717 0.94533 0.27758 0.0
C163 C 0.83433 0.0621 0.22915 0.0
O164 O 0.72637 0.08016 0.27821 0.0
C165 C 0.81782 0.92866 0.24186 0.0
O166 O 0.72083 0.02243 0.24598 0.0
O167 O 0.79214 0.94533 0.21851 0.0
C168 C 0.43612 0.68494 0.03984 0.0
O169 O 0.40374 0.66742 0.03887 0.0
Cd170 Cd 0.36787 0.65966 0.10509 0.0
O171 O 0.45413 0.68995 0.07601 0.0
Cd172 Cd 0.44829 0.66356 0.1528 0.0
C173 C 0.39509 0.74343 0.16345 0.0
O174 O 0.39785 0.61246 0.14998 0.0
O175 O 0.40608 0.64223 0.21161 0.0
O176 O 0.50545 0.62284 0.14227 0.0
C177 C 0.38876 0.61573 0.1902 0.0
O178 O 0.37078 0.7237 0.14094 0.0
C179 C 0.52191 0.63237 0.17803 0.0
O180 O 0.42819 0.72938 0.17347 0.0
O181 O 0.50515 0.65818 0.20122 0.0
C182 C 0.76501 0.43628 0.54095 0.0
O183 O 0.78209 0.40362 0.54044 0.0
Cd184 Cd 0.78977 0.3682 0.607 0.0
O185 O 0.76016 0.45476 0.57688 0.0
Cd186 Cd 0.78619 0.44939 0.65397 0.0
C187 C 0.70633 0.3964 0.66471 0.0
O188 O 0.83701 0.39875 0.6515 0.0
O189 O 0.80762 0.40736 0.71312 0.0
O190 O 0.82688 0.50653 0.643 0.0
C191 C 0.83394 0.38987 0.69177 0.0
O192 O 0.72593 0.37177 0.64252 0.0
C193 C 0.81757 0.52329 0.67865 0.0
O194 O 0.72046 0.42961 0.67451 0.0
O195 O 0.7919 0.5067 0.70199 0.0
C196 C 0.01534 0.76677 0.04034 0.0
O197 O 0.04784 0.78407 0.0399 0.0
Cd198 Cd 0.08343 0.79164 0.10648 0.0
O199 O -0.00292 0.76169 0.07626 0.0
Cd200 Cd 0.00255 0.78751 0.15349 0.0
C201 C 0.05581 0.7076 0.1636 0.0
O202 O 0.05292 0.8386 0.15139 0.0
O203 O 0.0445 0.80892 0.21284 0.0
O204 O 0.94534 0.82805 0.14271 0.0
C205 C 0.0619 0.83537 0.19166 0.0
O206 O 0.08024 0.72744 0.14155 0.0
C207 C 0.92871 0.81845 0.17824 0.0
O208 O 0.02268 0.72161 0.1735 0.0
O209 O 0.94545 0.79271 0.20145 0.0
C210 C 0.68276 0.01654 0.53905 0.0
O211 O 0.66569 0.04921 0.53853 0.0
Cd212 Cd 0.65859 0.08504 0.60509 0.0
O213 O 0.68783 -0.00168 0.57503 0.0
Cd214 Cd 0.66234 0.00436 0.65221 0.0
C215 C 0.74235 0.05732 0.66248 0.0
O216 O 0.61151 0.05506 0.65004 0.0
O217 O 0.64151 0.04675 0.7114 0.0
O218 O 0.62154 0.94713 0.64194 0.0
C219 C 0.61496 0.0641 0.6903 0.0
O220 O 0.72267 0.08187 0.64034 0.0
C221 C 0.63127 0.93065 0.67755 0.0
O222 O 0.7282 0.02418 0.67232 0.0
O223 O 0.65719 0.94745 0.70053 0.0
C224 C 0.38813 0.10647 0.23958 0.0
C225 C 0.39433 0.11027 0.19423 0.0
H226 H 0.35909 0.07507 0.29061 0.0
C227 C 0.37106 0.08873 0.16506 0.0
H228 H 0.40572 0.12258 0.26285 0.0
C229 C 0.34378 0.06213 0.18096 0.0
C230 C 0.33997 0.05592 0.22631 0.0
H231 H 0.37517 0.09116 0.12993 0.0
H232 H 0.32766 0.04453 0.15769 0.0
C233 C 0.36152 0.07919 0.25548 0.0
C234 C 0.34373 0.39027 0.73947 0.0
C235 C 0.33991 0.39659 0.69413 0.0
H236 H 0.37508 0.36104 0.79049 0.0
C237 C 0.36137 0.37334 0.66494 0.0
H238 H 0.32767 0.40786 0.76274 0.0
C239 C 0.3879 0.34595 0.68083 0.0
C240 C 0.39413 0.34204 0.72618 0.0
H241 H 0.35892 0.37754 0.62982 0.0
H242 H 0.40544 0.32986 0.65755 0.0
C243 C 0.37095 0.36356 0.75536 0.0
C244 C 0.0787 0.36149 0.1649 0.0
C245 C 0.05568 0.34024 0.19439 0.0
H246 H 0.12215 0.4055 0.15691 0.0
C247 C 0.06239 0.34434 0.23966 0.0
H248 H 0.07421 0.35882 0.12983 0.0
C249 C 0.08925 0.37165 0.25518 0.0
C250 C 0.11055 0.39465 0.2257 0.0
H251 H 0.045 0.32845 0.26317 0.0
H252 H 0.09208 0.37602 0.29027 0.0
C253 C 0.10624 0.38812 0.18042 0.0
C254 C 0.1056 0.06393 0.73986 0.0
C255 C 0.1097 0.05752 0.69455 0.0
H256 H 0.07379 0.09308 0.79063 0.0
C257 C 0.08826 0.08057 0.66519 0.0
H258 H 0.12163 0.04649 0.76326 0.0
C259 C 0.06147 0.10783 0.68088 0.0
C260 C 0.05497 0.11181 0.72618 0.0
H261 H 0.09092 0.07629 0.63009 0.0
H262 H 0.04395 0.12377 0.65747 0.0
C263 C 0.07813 0.0905 0.75554 0.0
C264 C 0.57853 0.86382 0.75531 0.0
C265 C 0.55523 0.84226 0.7262 0.0
H266 H 0.62194 0.90803 0.76254 0.0
C267 C 0.56137 0.84601 0.68083 0.0
H268 H 0.57447 0.86142 0.79045 0.0
C269 C 0.58794 0.87328 0.66485 0.0
C270 C 0.60953 0.89657 0.69396 0.0
H271 H 0.54374 0.82988 0.65762 0.0
H272 H 0.59033 0.87737 0.62971 0.0
C273 C 0.60579 0.8904 0.73932 0.0
C274 C 0.56222 0.60654 0.23966 0.0
C275 C 0.55595 0.61051 0.19432 0.0
H276 H 0.59125 0.5749 0.2906 0.0
C277 C 0.57912 0.58902 0.16509 0.0
H278 H 0.5447 0.62261 0.26298 0.0
C279 C 0.60636 0.5623 0.18092 0.0
C280 C 0.61021 0.55592 0.22624 0.0
H281 H 0.57496 0.59158 0.12996 0.0
H282 H 0.62239 0.54474 0.15759 0.0
C283 C 0.58877 0.57914 0.25548 0.0
C284 C 0.87138 0.59055 0.75553 0.0
C285 C 0.89442 0.61181 0.72608 0.0
H286 H 0.82791 0.54655 0.76343 0.0
C287 C 0.88775 0.60775 0.6808 0.0
H288 H 0.87585 0.59319 0.79061 0.0
C289 C 0.86089 0.58046 0.66523 0.0
C290 C 0.83956 0.55745 0.69467 0.0
H291 H 0.90517 0.62365 0.65733 0.0
H292 H 0.85809 0.57612 0.63014 0.0
C293 C 0.84384 0.56395 0.73996 0.0
C294 C 0.86116 0.87146 0.25518 0.0
C295 C 0.83975 0.89451 0.22579 0.0
H296 H 0.90543 0.82826 0.263 0.0
C297 C 0.84387 0.88805 0.18048 0.0
H298 H 0.85847 0.87577 0.29028 0.0
C299 C 0.87134 0.86144 0.16486 0.0
C300 C 0.89447 0.84015 0.19426 0.0
H301 H 0.82787 0.90547 0.15705 0.0
H302 H 0.87569 0.85883 0.12977 0.0
C303 C 0.88794 0.84417 0.23955 0.0
C304 C 0.55214 0.29821 0.2173 0.0
C305 C 0.56661 0.28233 0.17804 0.0
H306 H 0.55653 0.34431 0.2648 0.0
C307 C 0.59454 0.30322 0.15427 0.0
H308 H 0.53062 0.28266 0.2363 0.0
C309 C 0.60884 0.33851 0.1701 0.0
C310 C 0.59607 0.3535 0.21052 0.0
H311 H 0.60596 0.29191 0.12368 0.0
H312 H 0.63105 0.35328 0.15131 0.0
C313 C 0.56702 0.33339 0.23363 0.0
C314 C 0.14691 0.59666 0.65378 0.0
C315 C 0.16786 0.56868 0.67752 0.0
H316 H 0.09678 0.63298 0.6507 0.0
C317 C 0.15202 0.55393 0.71658 0.0
H318 H 0.1582 0.60829 0.62334 0.0
C319 C 0.11682 0.56858 0.73276 0.0
C320 C 0.09665 0.59767 0.70969 0.0
H321 H 0.16762 0.53237 0.73556 0.0
H322 H 0.10594 0.55788 0.76381 0.0
C323 C 0.11159 0.61072 0.66944 0.0
C324 C 0.88258 0.11704 0.23403 0.0
C325 C 0.85365 0.09686 0.2106 0.0
H326 H 0.91883 0.16788 0.23724 0.0
C327 C 0.84097 0.1118 0.17016 0.0
H328 H 0.89299 0.10615 0.26523 0.0
C329 C 0.85522 0.14714 0.15464 0.0
C330 C 0.88302 0.16811 0.17873 0.0
H331 H 0.81886 0.09698 0.15113 0.0
H332 H 0.84387 0.15843 0.12403 0.0
C333 C 0.89742 0.15226 0.218 0.0
C334 C 0.30321 0.85762 0.65535 0.0
C335 C 0.2822 0.88549 0.67927 0.0
H336 H 0.35333 0.82131 0.65217 0.0
C337 C 0.29794 0.90006 0.71861 0.0
H338 H 0.29201 0.84614 0.6247 0.0
C339 C 0.3331 0.88533 0.73486 0.0
C340 C 0.35332 0.85633 0.71158 0.0
H341 H 0.28229 0.92153 0.73772 0.0
H342 H 0.34391 0.89588 0.76609 0.0
C343 C 0.33847 0.84348 0.67109 0.0
C344 C 0.59417 0.14885 0.76571 0.0
C345 C 0.5662 0.1698 0.74198 0.0
H346 H 0.6307 0.09881 0.76853 0.0
C347 C 0.55169 0.15404 0.70263 0.0
H348 H 0.60562 0.16007 0.79638 0.0
C349 C 0.56657 0.11892 0.68617 0.0
C350 C 0.59566 0.09876 0.70925 0.0
H351 H 0.53015 0.16965 0.68366 0.0
H352 H 0.55605 0.1081 0.65493 0.0
C353 C 0.60847 0.11363 0.74976 0.0
C354 C 0.33921 0.60916 0.24924 0.0
C355 C 0.35406 0.59643 0.20876 0.0
H356 H 0.29275 0.60636 0.29548 0.0
C357 C 0.33383 0.56749 0.18531 0.0
H358 H 0.35407 0.63128 0.26829 0.0
C359 C 0.29867 0.5527 0.2014 0.0
C360 C 0.28294 0.56716 0.24074 0.0
H361 H 0.34463 0.55704 0.15408 0.0
H362 H 0.28301 0.53127 0.18216 0.0
C363 C 0.30395 0.59496 0.26482 0.0
C364 C 0.8822 0.33498 0.68715 0.0
C365 C 0.85321 0.35512 0.71042 0.0
H366 H 0.91848 0.28417 0.68411 0.0
C367 C 0.84043 0.34011 0.75075 0.0
H368 H 0.8927 0.3459 0.65604 0.0
C369 C 0.85464 0.30477 0.76631 0.0
C370 C 0.88252 0.28385 0.74238 0.0
H371 H 0.81826 0.35491 0.76964 0.0
H372 H 0.84321 0.29343 0.79682 0.0
C373 C 0.89702 0.29975 0.70323 0.0
C374 C 0.11678 0.88363 0.18728 0.0
C375 C 0.09664 0.8546 0.21044 0.0
H376 H 0.16755 0.91989 0.18446 0.0
C377 C 0.11161 0.84174 0.25079 0.0
H378 H 0.10588 0.89419 0.15615 0.0
C379 C 0.14691 0.8559 0.2665 0.0
C380 C 0.16783 0.88381 0.24268 0.0
H381 H 0.09681 0.81954 0.26961 0.0
H382 H 0.15821 0.84441 0.29703 0.0
C383 C 0.15197 0.89839 0.2035 0.0
C384 C 0.38293 0.61914 0.68689 0.0
C385 C 0.35383 0.59901 0.70989 0.0
H386 H 0.41932 0.66989 0.68438 0.0
C387 C 0.34093 0.61398 0.75027 0.0
H388 H 0.39352 0.60824 0.65575 0.0
C389 C 0.35517 0.64927 0.76617 0.0
C390 C 0.38317 0.67018 0.74252 0.0
H391 H 0.31868 0.59919 0.76897 0.0
H392 H 0.34367 0.66057 0.79673 0.0
C393 C 0.39775 0.65432 0.7033 0.0
C394 C 0.83845 0.34153 0.25085 0.0
C395 C 0.85342 0.35446 0.21057 0.0
H396 H 0.79184 0.34411 0.29693 0.0
C397 C 0.83326 0.3835 0.18738 0.0
H398 H 0.85325 0.31932 0.26968 0.0
C399 C 0.79806 0.39822 0.2035 0.0
C400 C 0.78221 0.38357 0.24261 0.0
H401 H 0.84415 0.3941 0.1563 0.0
H402 H 0.78248 0.41973 0.18444 0.0
C403 C 0.80314 0.35565 0.26645 0.0
C404 C 0.05241 0.79979 0.70271 0.0
C405 C 0.06701 0.78391 0.74188 0.0
H406 H 0.05661 0.84592 0.65549 0.0
C407 C 0.09494 0.80485 0.7658 0.0
H408 H 0.03089 0.78419 0.6836 0.0
C409 C 0.10911 0.84019 0.75021 0.0
C410 C 0.09623 0.85517 0.70987 0.0
H411 H 0.10644 0.79354 0.79632 0.0
H412 H 0.13133 0.855 0.76911 0.0
C413 C 0.06718 0.83501 0.68661 0.0
C414 C 0.61125 0.10893 0.2493 0.0
C415 C 0.59632 0.09611 0.20883 0.0
H416 H 0.65777 0.10621 0.2956 0.0
C417 C 0.6165 0.06713 0.18548 0.0
H418 H 0.59642 0.13108 0.26827 0.0
C419 C 0.65168 0.05236 0.20164 0.0
C420 C 0.66748 0.0669 0.24096 0.0
H421 H 0.60564 0.05661 0.15426 0.0
H422 H 0.66729 0.0309 0.18248 0.0
C423 C 0.64652 0.09475 0.26495 0.0
C424 C 0.35567 0.80359 0.15471 0.0
C425 C 0.38361 0.78268 0.17855 0.0
H426 H 0.3191 0.85359 0.15173 0.0
C427 C 0.398 0.79849 0.21794 0.0
H428 H 0.34432 0.79234 0.12402 0.0
C429 C 0.38304 0.8336 0.23431 0.0
C430 C 0.35399 0.85372 0.21112 0.0
H431 H 0.41951 0.78292 0.23699 0.0
H432 H 0.39348 0.84445 0.26558 0.0
C433 C 0.3413 0.83881 0.17059 0.0
C434 C 0.6514 0.3997 0.71892 0.0
C435 C 0.66708 0.38518 0.67959 0.0
H436 H 0.60548 0.39544 0.76631 0.0
C437 C 0.64603 0.35736 0.65557 0.0
H438 H 0.66708 0.42113 0.7381 0.0
C439 C 0.61078 0.3432 0.67121 0.0
C440 C 0.59598 0.35598 0.7117 0.0
H441 H 0.65719 0.34592 0.62492 0.0
H442 H 0.59589 0.32106 0.65222 0.0
C443 C 0.61625 0.38494 0.73507 0.0
C444 C 0.10929 0.61201 0.16972 0.0
C445 C 0.09665 0.597 0.2101 0.0
H446 H 0.10632 0.65868 0.12365 0.0
C447 C 0.06772 0.61713 0.2335 0.0
H448 H 0.1314 0.59723 0.15073 0.0
C449 C 0.05284 0.65235 0.21748 0.0
C450 C 0.0672 0.66825 0.17827 0.0
H451 H 0.05734 0.60619 0.26465 0.0
H452 H 0.03143 0.66792 0.23669 0.0
C453 C 0.095 0.64734 0.15422 0.0
C454 C 0.83784 0.11069 0.66952 0.0
C455 C 0.85282 0.09764 0.70979 0.0
H456 H 0.79123 0.10821 0.62328 0.0
C457 C 0.83269 0.06851 0.7328 0.0
H458 H 0.85263 0.13297 0.65083 0.0
C459 C 0.7975 0.05381 0.7165 0.0
C460 C 0.78163 0.06857 0.67741 0.0
H461 H 0.84359 0.05781 0.76386 0.0
H462 H 0.78193 0.03223 0.73543 0.0
C463 C 0.80254 0.09658 0.65374 0.0
C464 C 0.49964 0.24557 0.00034 0.0
C465 C 0.50175 0.20477 -0.00037 0.0
H466 H 0.50233 0.29801 -0.0377 0.0
C467 C 0.50066 0.18516 0.9592 0.0
H468 H 0.5012 0.26127 0.03118 0.0
C469 C 0.49988 0.20614 0.91991 0.0
C470 C 0.5017 0.24695 0.92064 0.0
H471 H 0.50285 0.15372 0.95797 0.0
H472 H 0.50164 0.19045 0.88909 0.0
C473 C 0.50036 0.26656 -0.03894 0.0
C474 C 0.18585 0.5017 0.45938 0.0
C475 C 0.20577 0.50387 0.41933 0.0
H476 H 0.19039 0.50218 0.52959 0.0
C477 C 0.2465 0.50322 0.41929 0.0
H478 H 0.15443 0.5028 0.46007 0.0
C479 C 0.26701 0.50429 0.45894 0.0
C480 C 0.24702 0.50454 0.49904 0.0
H481 H 0.26239 0.50566 0.38876 0.0
H482 H 0.2983 0.50736 0.45828 0.0
C483 C 0.2064 0.50127 0.49902 0.0
C484 C 0.94778 0.2053 0.00045 0.0
C485 C 0.94656 0.24613 0.00053 0.0
H486 H 0.9443 0.15336 -0.03865 0.0
C487 C 0.94834 0.26618 -0.03949 0.0
H488 H 0.94565 0.1893 0.03096 0.0
C489 C 0.94897 0.24562 0.92082 0.0
C490 C 0.94631 0.20485 0.92071 0.0
H491 H 0.94682 0.29766 0.9599 0.0
H492 H 0.94778 0.26169 0.89029 0.0
C493 C 0.94692 0.18478 -0.03924 0.0
C494 C 0.2056 0.95097 0.42086 0.0
C495 C 0.24626 0.94835 0.42117 0.0
H496 H 0.15352 0.94886 0.4594 0.0
C497 C 0.2661 0.94913 0.46142 0.0
H498 H 0.18972 0.94965 0.39016 0.0
C499 C 0.24544 0.9501 0.50091 0.0
C500 C 0.20472 0.94881 0.50057 0.0
H501 H 0.29743 0.94655 0.46234 0.0
H502 H 0.26127 0.94809 0.53158 0.0
C503 C 0.18492 0.95045 0.46034 0.0
C504 C 0.45048 0.7072 0.92036 0.0
C505 C 0.44797 0.74798 0.92106 0.0
H506 H 0.44819 0.65474 0.9584 0.0
C507 C 0.44877 0.7676 -0.0385 0.0
H508 H 0.44915 0.69149 0.88952 0.0
C509 C 0.44965 0.74662 0.00079 0.0
C510 C 0.44823 0.7058 6e-05 0.0
H511 H 0.44628 0.79901 -0.03728 0.0
H512 H 0.44766 0.7623 0.03161 0.0
C513 C 0.44985 0.68621 0.95964 0.0
C514 C 0.76447 0.45027 0.46081 0.0
C515 C 0.74452 0.44832 0.50086 0.0
H516 H 0.75996 0.44969 0.3906 0.0
C517 C 0.70379 0.44925 0.50086 0.0
H518 H 0.79588 0.44896 0.46014 0.0
C519 C 0.6833 0.44825 0.46121 0.0
C520 C 0.7033 0.44778 0.42112 0.0
H521 H 0.68786 0.44698 0.5314 0.0
H522 H 0.65199 0.44539 0.46185 0.0
C523 C 0.74394 0.45076 0.42116 0.0
C524 C 0.00223 0.70544 9e-05 0.0
C525 C 0.00327 0.74627 0.00017 0.0
H526 H 0.00585 0.65351 -0.03901 0.0
C527 C 0.00133 0.76631 0.96015 0.0
H528 H 0.00449 0.68945 0.0306 0.0
C529 C 0.00071 0.74575 0.92046 0.0
C530 C 0.00355 0.70499 0.92036 0.0
H531 H 0.00272 0.7978 0.95954 0.0
H532 H 0.00177 0.76182 0.88993 0.0
C533 C 0.0031 0.68491 -0.0396 0.0
C534 C 0.74352 0.00094 0.49919 0.0
C535 C 0.70289 0.00409 0.49885 0.0
H536 H 0.79566 0.00255 0.46071 0.0
C537 C 0.68308 0.00373 0.45858 0.0
H538 H 0.75939 0.00192 0.52991 0.0
C539 C 0.70376 0.00267 0.41911 0.0
C540 C 0.74449 0.00343 0.41951 0.0
H541 H 0.65179 0.00672 0.45764 0.0
H542 H 0.68799 0.00502 0.38844 0.0
C543 C 0.76424 0.00137 0.45974 0.0
loop_
_geom_bond_atom_site_label_1
_geom_bond_atom_site_label_2
_geom_bond_distance
_geom_bond_site_symmetry_2
_ccdc_geom_bond_type
C0 O1 1.306 . S
C0 O3 1.160 . S
O1 C0 1.306 . S
O1 Cd2 2.228 . S
Cd2 O1 2.228 . S
Cd2 O6 2.273 . S
Cd2 O10 2.277 . S
O3 C0 1.160 . S
O3 Cd4 2.203 . S
Cd4 O3 2.203 . S
Cd4 O6 2.411 . S
Cd4 O7 2.333 . S
Cd4 O8 2.352 . S
Cd4 O12 2.277 . S
Cd4 O13 2.356 . S
C5 O10 1.209 . S
C5 O12 1.226 . S
O6 Cd2 2.273 . S
O6 Cd4 2.411 . S
O6 C9 1.320 . S
O7 Cd4 2.333 . S
O7 C9 1.214 . S
O8 Cd4 2.352 . S
O8 C11 1.258 . S
C9 O6 1.320 . S
C9 O7 1.214 . S
O10 Cd2 2.277 . S
O10 C5 1.209 . S
C11 O8 1.258 . S
C11 O13 1.282 . S
O12 Cd4 2.277 . S
O12 C5 1.226 . S
O13 Cd4 2.356 . S
O13 C11 1.282 . S
C14 O15 1.306 . S
C14 O17 1.160 . S
O15 C14 1.306 . S
O15 Cd16 2.228 . S
Cd16 O15 2.228 . S
Cd16 O20 2.273 . S
Cd16 O24 2.277 . S
O17 C14 1.160 . S
O17 Cd18 2.203 . S
Cd18 O17 2.203 . S
Cd18 O20 2.411 . S
Cd18 O21 2.333 . S
Cd18 O22 2.352 . S
Cd18 O26 2.277 . S
Cd18 O27 2.356 . S
C19 O24 1.209 . S
C19 O26 1.226 . S
O20 Cd16 2.273 . S
O20 Cd18 2.411 . S
O20 C23 1.320 . S
O21 Cd18 2.333 . S
O21 C23 1.214 . S
O22 Cd18 2.352 . S
O22 C25 1.258 . S
C23 O20 1.320 . S
C23 O21 1.214 . S
O24 Cd16 2.277 . S
O24 C19 1.209 . S
C25 O22 1.258 . S
C25 O27 1.282 . S
O26 Cd18 2.277 . S
O26 C19 1.226 . S
O27 Cd18 2.356 . S
O27 C25 1.282 . S
C28 O29 1.306 . S
C28 O31 1.160 1_655 S
O29 C28 1.306 . S
O29 Cd30 2.228 . S
Cd30 O29 2.228 . S
Cd30 O34 2.273 . S
Cd30 O38 2.277 . S
O31 C28 1.160 1_455 S
O31 Cd32 2.203 1_455 S
Cd32 O31 2.203 1_655 S
Cd32 O34 2.411 . S
Cd32 O35 2.333 . S
Cd32 O36 2.352 1_655 S
Cd32 O40 2.277 . S
Cd32 O41 2.356 1_655 S
C33 O38 1.209 . S
C33 O40 1.226 . S
O34 Cd30 2.273 . S
O34 Cd32 2.411 . S
O34 C37 1.320 . S
O35 Cd32 2.333 . S
O35 C37 1.214 . S
O36 Cd32 2.352 1_455 S
O36 C39 1.258 . S
C37 O34 1.320 . S
C37 O35 1.214 . S
O38 Cd30 2.277 . S
O38 C33 1.209 . S
C39 O36 1.258 . S
C39 O41 1.282 . S
O40 Cd32 2.277 . S
O40 C33 1.226 . S
O41 Cd32 2.356 1_455 S
O41 C39 1.282 . S
C42 O43 1.306 . S
C42 O45 1.160 1_565 S
O43 C42 1.306 . S
O43 Cd44 2.228 . S
Cd44 O43 2.228 . S
Cd44 O48 2.273 . S
Cd44 O52 2.277 . S
O45 C42 1.160 1_545 S
O45 Cd46 2.203 1_545 S
Cd46 O45 2.203 1_565 S
Cd46 O48 2.411 . S
Cd46 O49 2.333 . S
Cd46 O50 2.352 1_565 S
Cd46 O54 2.277 . S
Cd46 O55 2.356 1_565 S
C47 O52 1.209 . S
C47 O54 1.226 . S
O48 Cd44 2.273 . S
O48 Cd46 2.411 . S
O48 C51 1.320 . S
O49 Cd46 2.333 . S
O49 C51 1.214 . S
O50 Cd46 2.352 1_545 S
O50 C53 1.258 . S
C51 O48 1.320 . S
C51 O49 1.214 . S
O52 Cd44 2.277 . S
O52 C47 1.209 . S
C53 O50 1.258 . S
C53 O55 1.282 . S
O54 Cd46 2.277 . S
O54 C47 1.226 . S
O55 Cd46 2.356 1_545 S
O55 C53 1.282 . S
C56 O57 1.306 . S
C56 O59 1.160 . S
O57 C56 1.306 . S
O57 Cd58 2.228 . S
Cd58 O57 2.228 . S
Cd58 O62 2.273 . S
Cd58 O66 2.277 . S
O59 C56 1.160 . S
O59 Cd60 2.203 . S
Cd60 O59 2.203 . S
Cd60 O62 2.411 . S
Cd60 O63 2.333 . S
Cd60 O64 2.352 . S
Cd60 O68 2.277 . S
Cd60 O69 2.356 . S
C61 O66 1.209 . S
C61 O68 1.226 . S
O62 Cd58 2.273 . S
O62 Cd60 2.411 . S
O62 C65 1.320 . S
O63 Cd60 2.333 . S
O63 C65 1.214 . S
O64 Cd60 2.352 . S
O64 C67 1.258 . S
C65 O62 1.320 . S
C65 O63 1.214 . S
O66 Cd58 2.277 . S
O66 C61 1.209 . S
C67 O64 1.258 . S
C67 O69 1.282 . S
O68 Cd60 2.277 . S
O68 C61 1.226 . S
O69 Cd60 2.356 . S
O69 C67 1.282 . S
C70 O71 1.306 . S
C70 O73 1.160 . S
O71 C70 1.306 . S
O71 Cd72 2.228 . S
Cd72 O71 2.228 . S
Cd72 O76 2.273 . S
Cd72 O80 2.277 . S
O73 C70 1.160 . S
O73 Cd74 2.203 . S
Cd74 O73 2.203 . S
Cd74 O76 2.411 . S
Cd74 O77 2.333 . S
Cd74 O78 2.352 . S
Cd74 O82 2.277 . S
Cd74 O83 2.356 . S
C75 O80 1.209 . S
C75 O82 1.226 . S
O76 Cd72 2.273 . S
O76 Cd74 2.411 . S
O76 C79 1.320 . S
O77 Cd74 2.333 . S
O77 C79 1.214 . S
O78 Cd74 2.352 . S
O78 C81 1.258 . S
C79 O76 1.320 . S
C79 O77 1.214 . S
O80 Cd72 2.277 . S
O80 C75 1.209 . S
C81 O78 1.258 . S
C81 O83 1.282 . S
O82 Cd74 2.277 . S
O82 C75 1.226 . S
O83 Cd74 2.356 . S
O83 C81 1.282 . S
C84 O85 1.306 . S
C84 O87 1.160 1_655 S
O85 C84 1.306 . S
O85 Cd86 2.228 . S
Cd86 O85 2.228 . S
Cd86 O90 2.273 . S
Cd86 O94 2.277 . S
O87 C84 1.160 1_455 S
O87 Cd88 2.203 1_455 S
Cd88 O87 2.203 1_655 S
Cd88 O90 2.411 . S
Cd88 O91 2.333 . S
Cd88 O92 2.352 1_655 S
Cd88 O96 2.277 . S
Cd88 O97 2.356 1_655 S
C89 O94 1.209 . S
C89 O96 1.226 . S
O90 Cd86 2.273 . S
O90 Cd88 2.411 . S
O90 C93 1.320 . S
O91 Cd88 2.333 . S
O91 C93 1.214 . S
O92 Cd88 2.352 1_455 S
O92 C95 1.258 . S
C93 O90 1.320 . S
C93 O91 1.214 . S
O94 Cd86 2.277 . S
O94 C89 1.209 . S
C95 O92 1.258 . S
C95 O97 1.282 . S
O96 Cd88 2.277 . S
O96 C89 1.226 . S
O97 Cd88 2.356 1_455 S
O97 C95 1.282 . S
C98 O99 1.306 . S
C98 O101 1.160 1_565 S
O99 C98 1.306 . S
O99 Cd100 2.228 . S
Cd100 O99 2.228 . S
Cd100 O104 2.273 . S
Cd100 O108 2.277 . S
O101 C98 1.160 1_545 S
O101 Cd102 2.203 1_545 S
Cd102 O101 2.203 1_565 S
Cd102 O104 2.411 . S
Cd102 O105 2.333 . S
Cd102 O106 2.352 1_565 S
Cd102 O110 2.277 . S
Cd102 O111 2.356 1_565 S
C103 O108 1.209 . S
C103 O110 1.226 . S
O104 Cd100 2.273 . S
O104 Cd102 2.411 . S
O104 C107 1.320 . S
O105 Cd102 2.333 . S
O105 C107 1.214 . S
O106 Cd102 2.352 1_545 S
O106 C109 1.258 . S
C107 O104 1.320 . S
C107 O105 1.214 . S
O108 Cd100 2.277 . S
O108 C103 1.209 . S
C109 O106 1.258 . S
C109 O111 1.282 . S
O110 Cd102 2.277 . S
O110 C103 1.226 . S
O111 Cd102 2.356 1_545 S
O111 C109 1.282 . S
C112 O113 1.306 . S
C112 O115 1.160 . S
O113 C112 1.306 . S
O113 Cd114 2.228 . S
Cd114 O113 2.228 . S
Cd114 O118 2.273 . S
Cd114 O122 2.277 . S
O115 C112 1.160 . S
O115 Cd116 2.203 . S
Cd116 O115 2.203 . S
Cd116 O118 2.411 . S
Cd116 O119 2.333 . S
Cd116 O120 2.352 . S
Cd116 O124 2.277 . S
Cd116 O125 2.356 . S
C117 O122 1.209 . S
C117 O124 1.226 . S
O118 Cd114 2.273 . S
O118 Cd116 2.411 . S
O118 C121 1.320 . S
O119 Cd116 2.333 . S
O119 C121 1.214 . S
O120 Cd116 2.352 . S
O120 C123 1.258 . S
C121 O118 1.320 . S
C121 O119 1.214 . S
O122 Cd114 2.277 . S
O122 C117 1.209 . S
C123 O120 1.258 . S
C123 O125 1.282 . S
O124 Cd116 2.277 . S
O124 C117 1.226 . S
O125 Cd116 2.356 . S
O125 C123 1.282 . S
C126 O127 1.306 . S
C126 O129 1.160 . S
O127 C126 1.306 . S
O127 Cd128 2.228 . S
Cd128 O127 2.228 . S
Cd128 O132 2.273 . S
Cd128 O136 2.277 . S
O129 C126 1.160 . S
O129 Cd130 2.203 . S
Cd130 O129 2.203 . S
Cd130 O132 2.411 . S
Cd130 O133 2.333 . S
Cd130 O134 2.352 . S
Cd130 O138 2.277 . S
Cd130 O139 2.356 . S
C131 O136 1.209 . S
C131 O138 1.226 . S
O132 Cd128 2.273 . S
O132 Cd130 2.411 . S
O132 C135 1.320 . S
O133 Cd130 2.333 . S
O133 C135 1.214 . S
O134 Cd130 2.352 . S
O134 C137 1.258 . S
C135 O132 1.320 . S
C135 O133 1.214 . S
O136 Cd128 2.277 . S
O136 C131 1.209 . S
C137 O134 1.258 . S
C137 O139 1.282 . S
O138 Cd130 2.277 . S
O138 C131 1.226 . S
O139 Cd130 2.356 . S
O139 C137 1.282 . S
C140 O141 1.306 . S
C140 O143 1.160 1_455 S
O141 C140 1.306 . S
O141 Cd142 2.228 . S
Cd142 O141 2.228 . S
Cd142 O146 2.273 . S
Cd142 O150 2.277 . S
O143 C140 1.160 1_655 S
O143 Cd144 2.203 1_655 S
Cd144 O143 2.203 1_455 S
Cd144 O146 2.411 . S
Cd144 O147 2.333 . S
Cd144 O148 2.352 1_455 S
Cd144 O152 2.277 . S
Cd144 O153 2.356 1_455 S
C145 O150 1.209 . S
C145 O152 1.226 . S
O146 Cd142 2.273 . S
O146 Cd144 2.411 . S
O146 C149 1.320 . S
O147 Cd144 2.333 . S
O147 C149 1.214 . S
O148 Cd144 2.352 1_655 S
O148 C151 1.258 . S
C149 O146 1.320 . S
C149 O147 1.214 . S
O150 Cd142 2.277 . S
O150 C145 1.209 . S
C151 O148 1.258 . S
C151 O153 1.282 . S
O152 Cd144 2.277 . S
O152 C145 1.226 . S
O153 Cd144 2.356 1_655 S
O153 C151 1.282 . S
C154 O155 1.306 . S
C154 O157 1.160 1_545 S
O155 C154 1.306 . S
O155 Cd156 2.228 . S
Cd156 O155 2.228 . S
Cd156 O160 2.273 . S
Cd156 O164 2.277 . S
O157 C154 1.160 1_565 S
O157 Cd158 2.203 1_565 S
Cd158 O157 2.203 1_545 S
Cd158 O160 2.411 . S
Cd158 O161 2.333 . S
Cd158 O162 2.352 1_545 S
Cd158 O166 2.277 . S
Cd158 O167 2.356 1_545 S
C159 O164 1.209 . S
C159 O166 1.226 . S
O160 Cd156 2.273 . S
O160 Cd158 2.411 . S
O160 C163 1.320 . S
O161 Cd158 2.333 . S
O161 C163 1.214 . S
O162 Cd158 2.352 1_565 S
O162 C165 1.258 . S
C163 O160 1.320 . S
C163 O161 1.214 . S
O164 Cd156 2.277 . S
O164 C159 1.209 . S
C165 O162 1.258 . S
C165 O167 1.282 . S
O166 Cd158 2.277 . S
O166 C159 1.226 . S
O167 Cd158 2.356 1_565 S
O167 C165 1.282 . S
C168 O169 1.306 . S
C168 O171 1.160 . S
O169 C168 1.306 . S
O169 Cd170 2.228 . S
Cd170 O169 2.228 . S
Cd170 O174 2.273 . S
Cd170 O178 2.277 . S
O171 C168 1.160 . S
O171 Cd172 2.203 . S
Cd172 O171 2.203 . S
Cd172 O174 2.411 . S
Cd172 O175 2.333 . S
Cd172 O176 2.352 . S
Cd172 O180 2.277 . S
Cd172 O181 2.356 . S
C173 O178 1.209 . S
C173 O180 1.226 . S
O174 Cd170 2.273 . S
O174 Cd172 2.411 . S
O174 C177 1.320 . S
O175 Cd172 2.333 . S
O175 C177 1.214 . S
O176 Cd172 2.352 . S
O176 C179 1.258 . S
C177 O174 1.320 . S
C177 O175 1.214 . S
O178 Cd170 2.277 . S
O178 C173 1.209 . S
C179 O176 1.258 . S
C179 O181 1.282 . S
O180 Cd172 2.277 . S
O180 C173 1.226 . S
O181 Cd172 2.356 . S
O181 C179 1.282 . S
C182 O183 1.306 . S
C182 O185 1.160 . S
O183 C182 1.306 . S
O183 Cd184 2.228 . S
Cd184 O183 2.228 . S
Cd184 O188 2.273 . S
Cd184 O192 2.277 . S
O185 C182 1.160 . S
O185 Cd186 2.203 . S
Cd186 O185 2.203 . S
Cd186 O188 2.411 . S
Cd186 O189 2.333 . S
Cd186 O190 2.352 . S
Cd186 O194 2.277 . S
Cd186 O195 2.356 . S
C187 O192 1.209 . S
C187 O194 1.226 . S
O188 Cd184 2.273 . S
O188 Cd186 2.411 . S
O188 C191 1.320 . S
O189 Cd186 2.333 . S
O189 C191 1.214 . S
O190 Cd186 2.352 . S
O190 C193 1.258 . S
C191 O188 1.320 . S
C191 O189 1.214 . S
O192 Cd184 2.277 . S
O192 C187 1.209 . S
C193 O190 1.258 . S
C193 O195 1.282 . S
O194 Cd186 2.277 . S
O194 C187 1.226 . S
O195 Cd186 2.356 . S
O195 C193 1.282 . S
C196 O197 1.306 . S
C196 O199 1.160 1_455 S
O197 C196 1.306 . S
O197 Cd198 2.228 . S
Cd198 O197 2.228 . S
Cd198 O202 2.273 . S
Cd198 O206 2.277 . S
O199 C196 1.160 1_655 S
O199 Cd200 2.203 1_655 S
Cd200 O199 2.203 1_455 S
Cd200 O202 2.411 . S
Cd200 O203 2.333 . S
Cd200 O204 2.352 1_455 S
Cd200 O208 2.277 . S
Cd200 O209 2.356 1_455 S
C201 O206 1.209 . S
C201 O208 1.226 . S
O202 Cd198 2.273 . S
O202 Cd200 2.411 . S
O202 C205 1.320 . S
O203 Cd200 2.333 . S
O203 C205 1.214 . S
O204 Cd200 2.352 1_655 S
O204 C207 1.258 . S
C205 O202 1.320 . S
C205 O203 1.214 . S
O206 Cd198 2.277 . S
O206 C201 1.209 . S
C207 O204 1.258 . S
C207 O209 1.282 . S
O208 Cd200 2.277 . S
O208 C201 1.226 . S
O209 Cd200 2.356 1_655 S
O209 C207 1.282 . S
C210 O211 1.306 . S
C210 O213 1.160 1_545 S
O211 C210 1.306 . S
O211 Cd212 2.228 . S
Cd212 O211 2.228 . S
Cd212 O216 2.273 . S
Cd212 O220 2.277 . S
O213 C210 1.160 1_565 S
O213 Cd214 2.203 1_565 S
Cd214 O213 2.203 1_545 S
Cd214 O216 2.411 . S
Cd214 O217 2.333 . S
Cd214 O218 2.352 1_545 S
Cd214 O222 2.277 . S
Cd214 O223 2.356 1_545 S
C215 O220 1.209 . S
C215 O222 1.226 . S
O216 Cd212 2.273 . S
O216 Cd214 2.411 . S
O216 C219 1.320 . S
O217 Cd214 2.333 . S
O217 C219 1.214 . S
O218 Cd214 2.352 1_565 S
O218 C221 1.258 . S
C219 O216 1.320 . S
C219 O217 1.214 . S
O220 Cd212 2.277 . S
O220 C215 1.209 . S
C221 O218 1.258 . S
C221 O223 1.282 . S
O222 Cd214 2.277 . S
O222 C215 1.226 . S
O223 Cd214 2.356 1_565 S
O223 C221 1.282 . S
C224 C225 1.387 . S
C224 H228 0.950 . S
C224 C233 1.390 . S
C225 C224 1.387 . S
C225 C227 1.387 . S
H226 C233 0.950 . S
C227 C225 1.387 . S
C227 C229 1.390 . S
C227 H231 0.950 . S
H228 C224 0.950 . S
C229 C227 1.390 . S
C229 C230 1.387 . S
C229 H232 0.950 . S
C230 C229 1.387 . S
C230 C233 1.387 . S
H231 C227 0.950 . S
H232 C229 0.950 . S
C233 C224 1.390 . S
C233 H226 0.950 . S
C233 C230 1.387 . S
C234 C235 1.387 . S
C234 H238 0.950 . S
C234 C243 1.390 . S
C235 C234 1.387 . S
C235 C237 1.387 . S
H236 C243 0.950 . S
C237 C235 1.387 . S
C237 C239 1.390 . S
C237 H241 0.950 . S
H238 C234 0.950 . S
C239 C237 1.390 . S
C239 C240 1.387 . S
C239 H242 0.950 . S
C240 C239 1.387 . S
C240 C243 1.387 . S
H241 C237 0.950 . S
H242 C239 0.950 . S
C243 C234 1.390 . S
C243 H236 0.950 . S
C243 C240 1.387 . S
C244 C245 1.387 . S
C244 H248 0.950 . S
C244 C253 1.390 . S
C245 C244 1.387 . S
C245 C247 1.387 . S
H246 C253 0.950 . S
C247 C245 1.387 . S
C247 C249 1.390 . S
C247 H251 0.950 . S
H248 C244 0.950 . S
C249 C247 1.390 . S
C249 C250 1.387 . S
C249 H252 0.950 . S
C250 C249 1.387 . S
C250 C253 1.387 . S
H251 C247 0.950 . S
H252 C249 0.950 . S
C253 C244 1.390 . S
C253 H246 0.950 . S
C253 C250 1.387 . S
C254 C255 1.387 . S
C254 H258 0.950 . S
C254 C263 1.390 . S
C255 C254 1.387 . S
C255 C257 1.387 . S
H256 C263 0.950 . S
C257 C255 1.387 . S
C257 C259 1.390 . S
C257 H261 0.950 . S
H258 C254 0.950 . S
C259 C257 1.390 . S
C259 C260 1.387 . S
C259 H262 0.950 . S
C260 C259 1.387 . S
C260 C263 1.387 . S
H261 C257 0.950 . S
H262 C259 0.950 . S
C263 C254 1.390 . S
C263 H256 0.950 . S
C263 C260 1.387 . S
C264 C265 1.387 . S
C264 H268 0.950 . S
C264 C273 1.390 . S
C265 C264 1.387 . S
C265 C267 1.387 . S
H266 C273 0.950 . S
C267 C265 1.387 . S
C267 C269 1.390 . S
C267 H271 0.950 . S
H268 C264 0.950 . S
C269 C267 1.390 . S
C269 C270 1.387 . S
C269 H272 0.950 . S
C270 C269 1.387 . S
C270 C273 1.387 . S
H271 C267 0.950 . S
H272 C269 0.950 . S
C273 C264 1.390 . S
C273 H266 0.950 . S
C273 C270 1.387 . S
C274 C275 1.387 . S
C274 H278 0.950 . S
C274 C283 1.390 . S
C275 C274 1.387 . S
C275 C277 1.387 . S
H276 C283 0.950 . S
C277 C275 1.387 . S
C277 C279 1.390 . S
C277 H281 0.950 . S
H278 C274 0.950 . S
C279 C277 1.390 . S
C279 C280 1.387 . S
C279 H282 0.950 . S
C280 C279 1.387 . S
C280 C283 1.387 . S
H281 C277 0.950 . S
H282 C279 0.950 . S
C283 C274 1.390 . S
C283 H276 0.950 . S
C283 C280 1.387 . S
C284 C285 1.387 . S
C284 H288 0.950 . S
C284 C293 1.390 . S
C285 C284 1.387 . S
C285 C287 1.387 . S
H286 C293 0.950 . S
C287 C285 1.387 . S
C287 C289 1.390 . S
C287 H291 0.950 . S
H288 C284 0.950 . S
C289 C287 1.390 . S
C289 C290 1.387 . S
C289 H292 0.950 . S
C290 C289 1.387 . S
C290 C293 1.387 . S
H291 C287 0.950 . S
H292 C289 0.950 . S
C293 C284 1.390 . S
C293 H286 0.950 . S
C293 C290 1.387 . S
C294 C295 1.387 . S
C294 H298 0.950 . S
C294 C303 1.390 . S
C295 C294 1.387 . S
C295 C297 1.387 . S
H296 C303 0.950 . S
C297 C295 1.387 . S
C297 C299 1.390 . S
C297 H301 0.950 . S
H298 C294 0.950 . S
C299 C297 1.390 . S
C299 C300 1.387 . S
C299 H302 0.950 . S
C300 C299 1.387 . S
C300 C303 1.387 . S
H301 C297 0.950 . S
H302 C299 0.950 . S
C303 C294 1.390 . S
C303 H296 0.950 . S
C303 C300 1.387 . S
C304 C305 1.387 . S
C304 H308 0.950 . S
C304 C313 1.390 . S
C305 C304 1.387 . S
C305 C307 1.387 . S
H306 C313 0.950 . S
C307 C305 1.387 . S
C307 C309 1.390 . S
C307 H311 0.950 . S
H308 C304 0.950 . S
C309 C307 1.390 . S
C309 C310 1.387 . S
C309 H312 0.950 . S
C310 C309 1.387 . S
C310 C313 1.387 . S
H311 C307 0.950 . S
H312 C309 0.950 . S
C313 C304 1.390 . S
C313 H306 0.950 . S
C313 C310 1.387 . S
C314 C315 1.387 . S
C314 H318 0.950 . S
C314 C323 1.390 . S
C315 C314 1.387 . S
C315 C317 1.387 . S
H316 C323 0.950 . S
C317 C315 1.387 . S
C317 C319 1.390 . S
C317 H321 0.950 . S
H318 C314 0.950 . S
C319 C317 1.390 . S
C319 C320 1.387 . S
C319 H322 0.950 . S
C320 C319 1.387 . S
C320 C323 1.387 . S
H321 C317 0.950 . S
H322 C319 0.950 . S
C323 C314 1.390 . S
C323 H316 0.950 . S
C323 C320 1.387 . S
C324 C325 1.387 . S
C324 H328 0.950 . S
C324 C333 1.390 . S
C325 C324 1.387 . S
C325 C327 1.387 . S
H326 C333 0.950 . S
C327 C325 1.387 . S
C327 C329 1.390 . S
C327 H331 0.950 . S
H328 C324 0.950 . S
C329 C327 1.390 . S
C329 C330 1.387 . S
C329 H332 0.950 . S
C330 C329 1.387 . S
C330 C333 1.387 . S
H331 C327 0.950 . S
H332 C329 0.950 . S
C333 C324 1.390 . S
C333 H326 0.950 . S
C333 C330 1.387 . S
C334 C335 1.387 . S
C334 H338 0.950 . S
C334 C343 1.390 . S
C335 C334 1.387 . S
C335 C337 1.387 . S
H336 C343 0.950 . S
C337 C335 1.387 . S
C337 C339 1.390 . S
C337 H341 0.950 . S
H338 C334 0.950 . S
C339 C337 1.390 . S
C339 C340 1.387 . S
C339 H342 0.950 . S
C340 C339 1.387 . S
C340 C343 1.387 . S
H341 C337 0.950 . S
H342 C339 0.950 . S
C343 C334 1.390 . S
C343 H336 0.950 . S
C343 C340 1.387 . S
C344 C345 1.387 . S
C344 H348 0.950 . S
C344 C353 1.390 . S
C345 C344 1.387 . S
C345 C347 1.387 . S
H346 C353 0.950 . S
C347 C345 1.387 . S
C347 C349 1.390 . S
C347 H351 0.950 . S
H348 C344 0.950 . S
C349 C347 1.390 . S
C349 C350 1.387 . S
C349 H352 0.950 . S
C350 C349 1.387 . S
C350 C353 1.387 . S
H351 C347 0.950 . S
H352 C349 0.950 . S
C353 C344 1.390 . S
C353 H346 0.950 . S
C353 C350 1.387 . S
C354 C355 1.387 . S
C354 H358 0.950 . S
C354 C363 1.390 . S
C355 C354 1.387 . S
C355 C357 1.387 . S
H356 C363 0.950 . S
C357 C355 1.387 . S
C357 C359 1.390 . S
C357 H361 0.950 . S
H358 C354 0.950 . S
C359 C357 1.390 . S
C359 C360 1.387 . S
C359 H362 0.950 . S
C360 C359 1.387 . S
C360 C363 1.387 . S
H361 C357 0.950 . S
H362 C359 0.950 . S
C363 C354 1.390 . S
C363 H356 0.950 . S
C363 C360 1.387 . S
C364 C365 1.387 . S
C364 H368 0.950 . S
C364 C373 1.390 . S
C365 C364 1.387 . S
C365 C367 1.387 . S
H366 C373 0.950 . S
C367 C365 1.387 . S
C367 C369 1.390 . S
C367 H371 0.950 . S
H368 C364 0.950 . S
C369 C367 1.390 . S
C369 C370 1.387 . S
C369 H372 0.950 . S
C370 C369 1.387 . S
C370 C373 1.387 . S
H371 C367 0.950 . S
H372 C369 0.950 . S
C373 C364 1.390 . S
C373 H366 0.950 . S
C373 C370 1.387 . S
C374 C375 1.387 . S
C374 H378 0.950 . S
C374 C383 1.390 . S
C375 C374 1.387 . S
C375 C377 1.387 . S
H376 C383 0.950 . S
C377 C375 1.387 . S
C377 C379 1.390 . S
C377 H381 0.950 . S
H378 C374 0.950 . S
C379 C377 1.390 . S
C379 C380 1.387 . S
C379 H382 0.950 . S
C380 C379 1.387 . S
C380 C383 1.387 . S
H381 C377 0.950 . S
H382 C379 0.950 . S
C383 C374 1.390 . S
C383 H376 0.950 . S
C383 C380 1.387 . S
C384 C385 1.387 . S
C384 H388 0.950 . S
C384 C393 1.390 . S
C385 C384 1.387 . S
C385 C387 1.387 . S
H386 C393 0.950 . S
C387 C385 1.387 . S
C387 C389 1.390 . S
C387 H391 0.950 . S
H388 C384 0.950 . S
C389 C387 1.390 . S
C389 C390 1.387 . S
C389 H392 0.950 . S
C390 C389 1.387 . S
C390 C393 1.387 . S
H391 C387 0.950 . S
H392 C389 0.950 . S
C393 C384 1.390 . S
C393 H386 0.950 . S
C393 C390 1.387 . S
C394 C395 1.387 . S
C394 H398 0.950 . S
C394 C403 1.390 . S
C395 C394 1.387 . S
C395 C397 1.387 . S
H396 C403 0.950 . S
C397 C395 1.387 . S
C397 C399 1.390 . S
C397 H401 0.950 . S
H398 C394 0.950 . S
C399 C397 1.390 . S
C399 C400 1.387 . S
C399 H402 0.950 . S
C400 C399 1.387 . S
C400 C403 1.387 . S
H401 C397 0.950 . S
H402 C399 0.950 . S
C403 C394 1.390 . S
C403 H396 0.950 . S
C403 C400 1.387 . S
C404 C405 1.387 . S
C404 H408 0.950 . S
C404 C413 1.390 . S
C405 C404 1.387 . S
C405 C407 1.387 . S
H406 C413 0.950 . S
C407 C405 1.387 . S
C407 C409 1.390 . S
C407 H411 0.950 . S
H408 C404 0.950 . S
C409 C407 1.390 . S
C409 C410 1.387 . S
C409 H412 0.950 . S
C410 C409 1.387 . S
C410 C413 1.387 . S
H411 C407 0.950 . S
H412 C409 0.950 . S
C413 C404 1.390 . S
C413 H406 0.950 . S
C413 C410 1.387 . S
C414 C415 1.387 . S
C414 H418 0.950 . S
C414 C423 1.390 . S
C415 C414 1.387 . S
C415 C417 1.387 . S
H416 C423 0.950 . S
C417 C415 1.387 . S
C417 C419 1.390 . S
C417 H421 0.950 . S
H418 C414 0.950 . S
C419 C417 1.390 . S
C419 C420 1.387 . S
C419 H422 0.950 . S
C420 C419 1.387 . S
C420 C423 1.387 . S
H421 C417 0.950 . S
H422 C419 0.950 . S
C423 C414 1.390 . S
C423 H416 0.950 . S
C423 C420 1.387 . S
C424 C425 1.387 . S
C424 H428 0.950 . S
C424 C433 1.390 . S
C425 C424 1.387 . S
C425 C427 1.387 . S
H426 C433 0.950 . S
C427 C425 1.387 . S
C427 C429 1.390 . S
C427 H431 0.950 . S
H428 C424 0.950 . S
C429 C427 1.390 . S
C429 C430 1.387 . S
C429 H432 0.950 . S
C430 C429 1.387 . S
C430 C433 1.387 . S
H431 C427 0.950 . S
H432 C429 0.950 . S
C433 C424 1.390 . S
C433 H426 0.950 . S
C433 C430 1.387 . S
C434 C435 1.387 . S
C434 H438 0.950 . S
C434 C443 1.390 . S
C435 C434 1.387 . S
C435 C437 1.387 . S
H436 C443 0.950 . S
C437 C435 1.387 . S
C437 C439 1.390 . S
C437 H441 0.950 . S
H438 C434 0.950 . S
C439 C437 1.390 . S
C439 C440 1.387 . S
C439 H442 0.950 . S
C440 C439 1.387 . S
C440 C443 1.387 . S
H441 C437 0.950 . S
H442 C439 0.950 . S
C443 C434 1.390 . S
C443 H436 0.950 . S
C443 C440 1.387 . S
C444 C445 1.387 . S
C444 H448 0.950 . S
C444 C453 1.390 . S
C445 C444 1.387 . S
C445 C447 1.387 . S
H446 C453 0.950 . S
C447 C445 1.387 . S
C447 C449 1.390 . S
C447 H451 0.950 . S
H448 C444 0.950 . S
C449 C447 1.390 . S
C449 C450 1.387 . S
C449 H452 0.950 . S
C450 C449 1.387 . S
C450 C453 1.387 . S
H451 C447 0.950 . S
H452 C449 0.950 . S
C453 C444 1.390 . S
C453 H446 0.950 . S
C453 C450 1.387 . S
C454 C455 1.387 . S
C454 H458 0.950 . S
C454 C463 1.390 . S
C455 C454 1.387 . S
C455 C457 1.387 . S
H456 C463 0.950 . S
C457 C455 1.387 . S
C457 C459 1.390 . S
C457 H461 0.950 . S
H458 C454 0.950 . S
C459 C457 1.390 . S
C459 C460 1.387 . S
C459 H462 0.950 . S
C460 C459 1.387 . S
C460 C463 1.387 . S
H461 C457 0.950 . S
H462 C459 0.950 . S
C463 C454 1.390 . S
C463 H456 0.950 . S
C463 C460 1.387 . S
C464 C465 1.387 . S
C464 H468 0.950 . S
C464 C473 1.390 1_554 S
C465 C464 1.387 . S
C465 C467 1.387 . S
H466 C473 0.950 . S
C467 C465 1.387 . S
C467 C469 1.390 1_554 S
C467 H471 0.950 . S
H468 C464 0.950 . S
C469 C467 1.390 1_556 S
C469 C470 1.387 . S
C469 H472 0.950 . S
C470 C469 1.387 . S
C470 C473 1.387 . S
H471 C467 0.950 . S
H472 C469 0.950 . S
C473 C464 1.390 1_556 S
C473 H466 0.950 . S
C473 C470 1.387 . S
C474 C475 1.387 . S
C474 H478 0.950 . S
C474 C483 1.390 . S
C475 C474 1.387 . S
C475 C477 1.387 . S
H476 C483 0.950 . S
C477 C475 1.387 . S
C477 C479 1.390 . S
C477 H481 0.950 . S
H478 C474 0.950 . S
C479 C477 1.390 . S
C479 C480 1.387 . S
C479 H482 0.950 . S
C480 C479 1.387 . S
C480 C483 1.387 . S
H481 C477 0.950 . S
H482 C479 0.950 . S
C483 C474 1.390 . S
C483 H476 0.950 . S
C483 C480 1.387 . S
C484 C485 1.387 . S
C484 H488 0.950 . S
C484 C493 1.390 1_554 S
C485 C484 1.387 . S
C485 C487 1.387 1_655 S
H486 C493 0.950 . S
C487 C485 1.387 1_455 S
C487 C489 1.390 1_554 S
C487 H491 0.950 . S
H488 C484 0.950 . S
C489 C487 1.390 1_556 S
C489 C490 1.387 1_455 S
C489 H492 0.950 . S
C490 C489 1.387 1_655 S
C490 C493 1.387 . S
H491 C487 0.950 . S
H492 C489 0.950 . S
C493 C484 1.390 1_556 S
C493 H486 0.950 . S
C493 C490 1.387 . S
C494 C495 1.387 1_545 S
C494 H498 0.950 . S
C494 C503 1.390 . S
C495 C494 1.387 1_565 S
C495 C497 1.387 . S
H496 C503 0.950 . S
C497 C495 1.387 . S
C497 C499 1.390 . S
C497 H501 0.950 . S
H498 C494 0.950 . S
C499 C497 1.390 . S
C499 C500 1.387 . S
C499 H502 0.950 . S
C500 C499 1.387 . S
C500 C503 1.387 1_565 S
H501 C497 0.950 . S
H502 C499 0.950 . S
C503 C494 1.390 . S
C503 H496 0.950 . S
C503 C500 1.387 1_545 S
C504 C505 1.387 . S
C504 H508 0.950 . S
C504 C513 1.390 1_556 S
C505 C504 1.387 . S
C505 C507 1.387 . S
H506 C513 0.950 . S
C507 C505 1.387 . S
C507 C509 1.390 1_556 S
C507 H511 0.950 . S
H508 C504 0.950 . S
C509 C507 1.390 1_554 S
C509 C510 1.387 . S
C509 H512 0.950 . S
C510 C509 1.387 . S
C510 C513 1.387 . S
H511 C507 0.950 . S
H512 C509 0.950 . S
C513 C504 1.390 1_554 S
C513 H506 0.950 . S
C513 C510 1.387 . S
C514 C515 1.387 . S
C514 H518 0.950 . S
C514 C523 1.390 . S
C515 C514 1.387 . S
C515 C517 1.387 . S
H516 C523 0.950 . S
C517 C515 1.387 . S
C517 C519 1.390 . S
C517 H521 0.950 . S
H518 C514 0.950 . S
C519 C517 1.390 . S
C519 C520 1.387 . S
C519 H522 0.950 . S
C520 C519 1.387 . S
C520 C523 1.387 . S
H521 C517 0.950 . S
H522 C519 0.950 . S
C523 C514 1.390 . S
C523 H516 0.950 . S
C523 C520 1.387 . S
C524 C525 1.387 . S
C524 H528 0.950 . S
C524 C533 1.390 1_554 S
C525 C524 1.387 . S
C525 C527 1.387 1_455 S
H526 C533 0.950 . S
C527 C525 1.387 1_655 S
C527 C529 1.390 1_554 S
C527 H531 0.950 . S
H528 C524 0.950 . S
C529 C527 1.390 1_556 S
C529 C530 1.387 1_655 S
C529 H532 0.950 . S
C530 C529 1.387 1_455 S
C530 C533 1.387 . S
H531 C527 0.950 . S
H532 C529 0.950 . S
C533 C524 1.390 1_556 S
C533 H526 0.950 . S
C533 C530 1.387 . S
C534 C535 1.387 1_565 S
C534 H538 0.950 . S
C534 C543 1.390 . S
C535 C534 1.387 1_545 S
C535 C537 1.387 . S
H536 C543 0.950 . S
C537 C535 1.387 . S
C537 C539 1.390 . S
C537 H541 0.950 . S
H538 C534 0.950 . S
C539 C537 1.390 . S
C539 C540 1.387 . S
C539 H542 0.950 . S
C540 C539 1.387 . S
C540 C543 1.387 1_545 S
H541 C537 0.950 . S
H542 C539 0.950 . S
C543 C534 1.390 . S
C543 H536 0.950 . S
C543 C540 1.387 1_565 S
C225 C11 1.379 . S
C230 C109 1.381 . S
C235 C25 1.380 . S
C240 C67 1.381 . S
C245 C39 1.381 . S
C250 C81 1.380 . S
C255 C53 1.379 . S
C260 C95 1.380 . S
C265 C123 1.379 . S
C270 C221 1.380 . S
C275 C179 1.381 . S
C280 C137 1.380 . S
C285 C151 1.379 . S
C290 C193 1.380 . S
C295 C165 1.380 . S
C300 C207 1.381 . S
C305 C5 1.472 . S
C310 C135 1.499 . S
C315 C19 1.470 . S
C320 C149 1.498 . S
C325 C163 1.499 . S
C330 C33 1.472 . S
C335 C47 1.471 . S
C340 C121 1.499 . S
C345 C61 1.470 . S
C350 C219 1.498 . S
C355 C177 1.498 . S
C360 C75 1.470 . S
C365 C191 1.499 . S
C370 C89 1.472 . S
C375 C205 1.499 . S
C380 C103 1.472 . S
C385 C23 1.498 . S
C390 C117 1.470 . S
C395 C37 1.499 . S
C400 C131 1.472 . S
C405 C145 1.470 . S
C410 C51 1.498 . S
C415 C9 1.499 . S
C420 C159 1.472 . S
C425 C173 1.472 . S
C430 C107 1.499 . S
C435 C187 1.470 . S
C440 C65 1.498 . S
C445 C79 1.499 . S
C450 C201 1.472 . S
C455 C93 1.499 . S
C460 C215 1.472 . S
C465 C0 1.564 . S
C470 C56 1.564 . S
C475 C70 1.564 . S
C480 C14 1.564 . S
C485 C28 1.564 . S
C490 C84 1.564 . S
C495 C98 1.564 . S
C500 C42 1.564 . S
C505 C112 1.564 . S
C510 C168 1.564 . S
C515 C182 1.564 . S
C520 C126 1.564 . S
C525 C196 1.564 . S
C530 C140 1.564 . S
C535 C210 1.564 . S
C540 C154 1.564 . S
