# Generated by pormake.
# Topology wje, (4)-cn, num edge types: 1
# Building blocks:
#     Node 0, Type 0, BuildingBlock: ICAMEG_clean_sbu_1, # of connection points: 4
#     Node 1, Type 0, BuildingBlock: ICAMEG_clean_sbu_1, # of connection points: 4
#     Node 2, Type 0, BuildingBlock: ICAMEG_clean_sbu_1, # of connection points: 4
#     Node 3, Type 0, BuildingBlock: ICAMEG_clean_sbu_1, # of connection points: 4
#     Node 4, Type 0, BuildingBlock: ICAMEG_clean_sbu_1, # of connection points: 4
#     Node 5, Type 0, BuildingBlock: ICAMEG_clean_sbu_1, # of connection points: 4
#     Node 6, Type 0, BuildingBlock: ICAMEG_clean_sbu_1, # of connection points: 4
#     Node 7, Type 0, BuildingBlock: ICAMEG_clean_sbu_1, # of connection points: 4
#     Node 8, Type 0, BuildingBlock: ICAMEG_clean_sbu_1, # of connection points: 4
#     Node 9, Type 0, BuildingBlock: ICAMEG_clean_sbu_1, # of connection points: 4
#     Node 10, Type 0, BuildingBlock: ICAMEG_clean_sbu_1, # of connection points: 4
#     Node 11, Type 0, BuildingBlock: ICAMEG_clean_sbu_1, # of connection points: 4
#     Edge 12, Type (0, 0), BuildingBlock: AJUNOK_clean_linker_0, # of connection points: 2
#     Edge 13, Type (0, 0), BuildingBlock: AJUNOK_clean_linker_0, # of connection points: 2
#     Edge 14, Type (0, 0), BuildingBlock: AJUNOK_clean_linker_0, # of connection points: 2
#     Edge 15, Type (0, 0), BuildingBlock: AJUNOK_clean_linker_0, # of connection points: 2
#     Edge 16, Type (0, 0), BuildingBlock: AJUNOK_clean_linker_0, # of connection points: 2
#     Edge 17, Type (0, 0), BuildingBlock: AJUNOK_clean_linker_0, # of connection points: 2
#     Edge 18, Type (0, 0), BuildingBlock: AJUNOK_clean_linker_0, # of connection points: 2
#     Edge 19, Type (0, 0), BuildingBlock: AJUNOK_clean_linker_0, # of connection points: 2
#     Edge 20, Type (0, 0), BuildingBlock: AJUNOK_clean_linker_0, # of connection points: 2
#     Edge 21, Type (0, 0), BuildingBlock: AJUNOK_clean_linker_0, # of connection points: 2
#     Edge 22, Type (0, 0), BuildingBlock: AJUNOK_clean_linker_0, # of connection points: 2
#     Edge 23, Type (0, 0), BuildingBlock: AJUNOK_clean_linker_0, # of connection points: 2
#     Edge 24, Type (0, 0), BuildingBlock: AJUNOK_clean_linker_0, # of connection points: 2
#     Edge 25, Type (0, 0), BuildingBlock: AJUNOK_clean_linker_0, # of connection points: 2
#     Edge 26, Type (0, 0), BuildingBlock: AJUNOK_clean_linker_0, # of connection points: 2
#     Edge 27, Type (0, 0), BuildingBlock: AJUNOK_clean_linker_0, # of connection points: 2
#     Edge 28, Type (0, 0), BuildingBlock: AJUNOK_clean_linker_0, # of connection points: 2
#     Edge 29, Type (0, 0), BuildingBlock: AJUNOK_clean_linker_0, # of connection points: 2
#     Edge 30, Type (0, 0), BuildingBlock: AJUNOK_clean_linker_0, # of connection points: 2
#     Edge 31, Type (0, 0), BuildingBlock: AJUNOK_clean_linker_0, # of connection points: 2
#     Edge 32, Type (0, 0), BuildingBlock: AJUNOK_clean_linker_0, # of connection points: 2
#     Edge 33, Type (0, 0), BuildingBlock: AJUNOK_clean_linker_0, # of connection points: 2
#     Edge 34, Type (0, 0), BuildingBlock: AJUNOK_clean_linker_0, # of connection points: 2
#     Edge 35, Type (0, 0), BuildingBlock: AJUNOK_clean_linker_0, # of connection points: 2
# Relax obj value: 0.118
# Max RMSD: 0.099
# Mean RMSD: 0.099
data_MOF--net-wje--node1-ICAMEG_clean_sbu_1--edge1-AJUNOK_clean_linker_0
_symmetry_space_group_name_H-M    P1
_symmetry_Int_Tables_number       1
_symmetry_cell_setting            triclinic
loop_
_symmetry_equiv_pos_as_xyz
'x, y, z'
_cell_length_a     31.766007
_cell_length_b     31.758817
_cell_length_c     30.699051
_cell_angle_alpha  90.039326
_cell_angle_beta   89.955703
_cell_angle_gamma 119.99565
loop_
_atom_site_label
_atom_site_type_symbol
_atom_site_fract_x
_atom_site_fract_y
_atom_site_fract_z
_atom_type_partial_charge
Co0 Co 0.31626 0.96793 0.33241 0.0
Co1 Co 0.30776 0.07129 0.33928 0.0
O2 O 0.33546 0.03401 0.31234 0.0
C3 C 0.42429 0.01337 0.33429 0.0
O4 O 0.42674 0.05194 0.35254 0.0
C5 C 0.295 0.08451 0.24511 0.0
O6 O 0.27615 0.03741 0.24 0.0
O7 O 0.24043 0.01785 0.32574 0.0
O8 O 0.24831 0.95364 0.34397 0.0
H9 H 0.19108 0.09328 0.43419 0.0
H10 H 0.36307 1.00127 0.24637 0.0
O11 O 0.38344 0.97851 0.32166 0.0
H12 H 0.20347 0.85719 0.21591 0.0
H13 H 0.31576 0.80915 0.33145 0.0
H14 H 0.25887 0.90822 0.40758 0.0
H15 H 0.22875 0.88464 0.29145 0.0
H16 H 0.33267 0.88808 0.30128 0.0
O17 O 0.31082 0.10366 0.28228 0.0
H18 H 0.22577 0.04732 0.39961 0.0
H19 H 0.33021 0.1744 0.33357 0.0
H20 H 0.24013 0.829 0.43823 0.0
H21 H 0.33929 0.97489 0.17024 0.0
H22 H 0.26975 0.77952 0.40075 0.0
H23 H 0.25885 0.90246 0.15469 0.0
O24 O 0.33546 0.99218 0.39294 0.0
H25 H 0.48328 0.18755 0.30522 0.0
H26 H 0.35693 0.12881 0.41913 0.0
H27 H 0.44052 0.19261 0.43696 0.0
H28 H 0.50437 0.22248 0.37975 0.0
H29 H 0.39922 0.12342 0.28889 0.0
H30 H 0.29611 0.22162 0.36677 0.0
H31 H 0.22631 0.18116 0.41779 0.0
O32 O 0.30381 0.04122 0.39762 0.0
C33 C 0.22255 0.97304 0.33532 0.0
C34 C 0.22168 0.11142 0.41221 0.0
C35 C 0.28058 0.18341 0.37433 0.0
N36 N 0.28051 0.10824 0.36522 0.0
C37 C 0.24166 0.0856 0.39274 0.0
C38 C 0.29967 0.15644 0.35556 0.0
C39 C 0.24142 0.1607 0.40296 0.0
C40 C 0.32823 0.96946 0.23979 0.0
N41 N 0.29745 0.9445 0.27326 0.0
C42 C 0.31489 0.95477 0.19666 0.0
C43 C 0.26974 0.91415 0.18795 0.0
C44 C 0.23865 0.88872 0.2223 0.0
C45 C 0.25315 0.90452 0.265 0.0
C46 C 0.30293 0.83057 0.34825 0.0
C47 C 0.27105 0.88646 0.39054 0.0
C48 C 0.31242 0.87528 0.33133 0.0
N49 N 0.29736 0.90305 0.35292 0.0
C50 C 0.26044 0.84169 0.40816 0.0
C51 C 0.27706 0.81393 0.38709 0.0
C52 C 0.32088 0.0164 0.41494 0.0
C53 C 0.45575 0.17493 0.33039 0.0
C54 C 0.38453 0.14145 0.39409 0.0
C55 C 0.43178 0.1777 0.40436 0.0
C56 C 0.46757 0.19446 0.37223 0.0
N57 N 0.37319 0.12256 0.35293 0.0
C58 C 0.40808 0.13877 0.32129 0.0
Co59 Co 0.35676 0.31676 0.66179 0.0
Co60 Co 0.24435 0.30681 0.67508 0.0
O61 O 0.30785 0.33468 0.6453 0.0
C62 C 0.41679 0.42447 0.66749 0.0
O63 O 0.38148 0.42394 0.69021 0.0
C64 C 0.21412 0.29373 0.58173 0.0
O65 O 0.24468 0.27811 0.57404 0.0
O66 O 0.23033 0.23941 0.66148 0.0
O67 O 0.30437 0.24785 0.67196 0.0
H68 H 0.11143 0.19051 0.77505 0.0
H69 H 0.36525 0.36591 0.57774 0.0
O70 O 0.41141 0.38501 0.6517 0.0
H71 H 0.35965 0.21229 0.53963 0.0
H72 H 0.51874 0.32428 0.65379 0.0
H73 H 0.36229 0.25528 0.73162 0.0
H74 H 0.35577 0.23307 0.61641 0.0
H75 H 0.45474 0.34076 0.62844 0.0
O76 O 0.21143 0.3084 0.61968 0.0
H77 H 0.18953 0.22459 0.73603 0.0
H78 H 0.16403 0.33006 0.67587 0.0
H79 H 0.42488 0.23692 0.75734 0.0
H80 H 0.36877 0.34635 0.50041 0.0
H81 H 0.50424 0.27266 0.7191 0.0
H82 H 0.36589 0.26898 0.48101 0.0
O83 O 0.3535 0.33311 0.72386 0.0
H84 H 0.30186 0.48181 0.64027 0.0
H85 H 0.24093 0.35753 0.75601 0.0
H86 H 0.26258 0.44166 0.77396 0.0
H87 H 0.2933 0.50449 0.71585 0.0
H88 H 0.28007 0.39722 0.6238 0.0
H89 H 0.08511 0.29655 0.71356 0.0
H90 H 0.0586 0.22658 0.76396 0.0
O91 O 0.27351 0.30384 0.73178 0.0
C92 C 0.25843 0.22191 0.667 0.0
C93 C 0.12267 0.22114 0.75333 0.0
C94 C 0.1079 0.28062 0.7188 0.0
N95 N 0.18172 0.27966 0.70412 0.0
C96 C 0.167 0.24073 0.73129 0.0
C97 C 0.15257 0.29935 0.69744 0.0
C98 C 0.09302 0.24136 0.74706 0.0
C99 C 0.36407 0.33225 0.56946 0.0
N100 N 0.36035 0.30073 0.60147 0.0
C101 C 0.36603 0.32133 0.52567 0.0
C102 C 0.36439 0.27791 0.5148 0.0
C103 C 0.36083 0.24605 0.54767 0.0
C104 C 0.35864 0.25802 0.59108 0.0
C105 C 0.48444 0.30887 0.67097 0.0
C106 C 0.39631 0.27003 0.71412 0.0
C107 C 0.44808 0.31811 0.6568 0.0
N108 N 0.40488 0.29922 0.67864 0.0
C109 C 0.4317 0.25973 0.72903 0.0
C110 C 0.47623 0.27979 0.70754 0.0
C111 C 0.31591 0.31948 0.74735 0.0
C112 C 0.28836 0.45472 0.66583 0.0
C113 C 0.25434 0.38465 0.73053 0.0
C114 C 0.26644 0.43222 0.74089 0.0
C115 C 0.28362 0.46744 0.70827 0.0
N116 N 0.259 0.37243 0.6888 0.0
C117 C 0.27578 0.40675 0.65666 0.0
Co118 Co 0.05283 0.35202 0.99783 0.0
Co119 Co 0.95105 0.23893 0.00551 0.0
O120 O 0.98678 0.30401 0.9789 0.0
C121 C 1.00483 0.41175 1.00323 0.0
O122 O 0.96936 0.3757 0.0247 0.0
C123 C 0.93671 0.21385 0.91097 0.0
O124 O 0.9836 0.24284 0.90531 0.0
O125 O 1.00528 0.2266 0.99092 0.0
O126 O 0.06912 0.29955 0.00798 0.0
H127 H 0.93413 0.09957 0.09623 0.0
H128 H 0.01614 0.36408 0.91289 0.0
O129 O 0.03959 0.407 0.98819 0.0
H130 H 0.16248 0.35396 0.87827 0.0
H131 H 0.20807 0.5136 0.99499 0.0
H132 H 0.11693 0.35557 0.0697 0.0
H133 H 0.13652 0.35091 0.9545 0.0
H134 H 0.12812 0.45074 0.96746 0.0
O135 O 0.91815 0.20958 0.9486 0.0
H136 H 0.97791 0.18094 0.06281 0.0
H137 H 0.84826 0.15728 1.00128 0.0
H138 H 0.19731 0.41698 0.09759 0.0
H139 H 0.0409 0.36742 0.83611 0.0
H140 H 0.24292 0.497 0.06075 0.0
H141 H 0.11444 0.36209 0.81844 0.0
O142 O 0.03028 0.34596 0.05917 0.0
H143 H 0.83294 0.29676 0.97491 0.0
H144 H 0.89405 0.22875 0.08621 0.0
H145 H 0.83007 0.24774 0.10577 0.0
H146 H 0.79908 0.28201 0.0499 0.0
H147 H 0.89714 0.27745 0.9568 0.0
H148 H 0.8031 0.07523 0.03347 0.0
H149 H 0.84607 0.04607 0.0816 0.0
O150 O 0.98162 0.26516 0.06375 0.0
C151 C 0.05013 0.25427 0.99996 0.0
C152 C 0.91492 0.11202 0.07561 0.0
C153 C 0.84141 0.09835 0.04034 0.0
N154 N 0.91552 0.1744 0.03101 0.0
C155 C 0.93949 0.15824 0.05686 0.0
C156 C 0.86719 0.14485 0.0222 0.0
C157 C 0.86551 0.08199 0.06733 0.0
C158 C 0.04844 0.36224 0.9054 0.0
N159 N 0.07489 0.35745 0.93808 0.0
C160 C 0.06221 0.36399 0.8619 0.0
C161 C 0.10345 0.36096 0.85201 0.0
C162 C 0.13042 0.3564 0.88556 0.0
C163 C 0.1155 0.35464 0.92866 0.0
C164 C 0.18836 0.47894 0.01149 0.0
C165 C 0.13698 0.38994 0.05291 0.0
C166 C 0.14305 0.44323 0.99609 0.0
N167 N 0.11776 0.39956 0.01702 0.0
C168 C 0.18238 0.42465 0.06902 0.0
C169 C 0.20795 0.46957 0.04833 0.0
C170 C 1.00677 0.30701 0.08118 0.0
C171 C 0.84603 0.28169 0.99949 0.0
C172 C 0.88081 0.2437 0.06171 0.0
C173 C 0.8445 0.2543 0.07297 0.0
C174 C 0.82711 0.27348 0.0416 0.0
N175 N 0.89913 0.25177 0.02031 0.0
C176 C 0.88223 0.27053 0.98938 0.0
Co177 Co 0.70772 0.04627 0.33174 0.0
Co178 Co 0.71861 0.94418 0.3382 0.0
O179 O 0.69012 0.9807 0.3117 0.0
C180 C 0.60005 0.99779 0.33489 0.0
O181 O 0.60031 0.96162 0.35534 0.0
C182 C 0.73234 0.93231 0.2438 0.0
O183 O 0.75059 0.97935 0.23892 0.0
O184 O 0.7857 0.99881 0.32553 0.0
O185 O 0.776 0.06217 0.34312 0.0
H186 H 0.83899 0.92403 0.42917 0.0
H187 H 0.66044 0.01209 0.24588 0.0
O188 O 0.6398 0.03329 0.32116 0.0
H189 H 0.81922 0.157 0.2147 0.0
H190 H 0.70213 0.20193 0.33036 0.0
H191 H 0.76662 0.10875 0.40518 0.0
H192 H 0.79417 0.13008 0.29039 0.0
H193 H 0.68518 0.12231 0.30193 0.0
O194 O 0.71668 0.91284 0.28087 0.0
H195 H 0.80278 0.96926 0.39609 0.0
H196 H 0.69643 0.84118 0.33264 0.0
H197 H 0.78547 0.18878 0.43395 0.0
H198 H 0.68373 0.03826 0.16966 0.0
H199 H 0.75244 0.23553 0.39695 0.0
H200 H 0.76377 0.11107 0.15372 0.0
O201 O 0.68984 0.02239 0.39256 0.0
H202 H 0.54362 0.82728 0.30281 0.0
H203 H 0.66917 0.88515 0.4173 0.0
H204 H 0.58552 0.82096 0.43451 0.0
H205 H 0.52206 0.79159 0.37702 0.0
H206 H 0.62773 0.89169 0.28707 0.0
H207 H 0.73189 0.79462 0.36448 0.0
H208 H 0.80344 0.83595 0.41346 0.0
O209 O 0.72125 0.97311 0.39693 0.0
C210 C 0.80255 0.04343 0.33547 0.0
C211 C 0.80752 0.90546 0.40823 0.0
C212 C 0.74745 0.83287 0.3719 0.0
N213 N 0.74668 0.90769 0.3635 0.0
C214 C 0.78664 0.93086 0.38966 0.0
C215 C 0.7275 0.85944 0.35399 0.0
C216 C 0.78761 0.85608 0.39935 0.0
C217 C 0.69502 0.04419 0.23916 0.0
N218 N 0.72578 0.0696 0.27249 0.0
C219 C 0.70811 0.05871 0.19597 0.0
C220 C 0.75305 0.09953 0.18705 0.0
C221 C 0.78417 0.12535 0.22125 0.0
C222 C 0.76982 0.10984 0.26404 0.0
C223 C 0.71658 0.18178 0.34687 0.0
C224 C 0.75284 0.12925 0.38836 0.0
C225 C 0.70704 0.13665 0.33096 0.0
N226 N 0.72478 0.11081 0.3519 0.0
C227 C 0.76347 0.17446 0.40496 0.0
C228 C 0.74487 0.20065 0.3842 0.0
C229 C 0.70442 0.9981 0.41453 0.0
C230 C 0.57099 0.83965 0.32808 0.0
C231 C 0.64176 0.87264 0.39211 0.0
C232 C 0.59447 0.83619 0.40203 0.0
C233 C 0.55889 0.81971 0.36975 0.0
N234 N 0.65335 0.89198 0.35113 0.0
C235 C 0.61869 0.87596 0.31931 0.0
Co236 Co 0.67161 0.70665 0.66492 0.0
Co237 Co 0.78388 0.71662 0.67458 0.0
O238 O 0.71998 0.689 0.64531 0.0
C239 C 0.60937 0.5986 0.66468 0.0
O240 O 0.64507 0.59576 0.68328 0.0
C241 C 0.81348 0.73035 0.58066 0.0
O242 O 0.78254 0.74551 0.57316 0.0
O243 O 0.79741 0.78402 0.66206 0.0
O244 O 0.72426 0.77424 0.67904 0.0
H245 H 0.91563 0.83104 0.77629 0.0
H246 H 0.66045 0.66283 0.5777 0.0
O247 O 0.61576 0.6396 0.652 0.0
H248 H 0.6777 0.82392 0.55124 0.0
H249 H 0.51254 0.70538 0.66125 0.0
H250 H 0.66607 0.76122 0.74101 0.0
H251 H 0.67755 0.7958 0.6261 0.0
H252 H 0.57596 0.69003 0.63197 0.0
O253 O 0.81665 0.71602 0.61861 0.0
H254 H 0.83701 0.79635 0.73819 0.0
H255 H 0.86549 0.69522 0.67303 0.0
H256 H 0.60428 0.77862 0.77069 0.0
H257 H 0.65957 0.68918 0.50216 0.0
H258 H 0.52633 0.74947 0.73137 0.0
H259 H 0.66848 0.77038 0.48862 0.0
O260 O 0.67448 0.68527 0.72496 0.0
H261 H 0.72861 0.54275 0.63684 0.0
H262 H 0.78886 0.66512 0.75428 0.0
H263 H 0.76917 0.58123 0.77058 0.0
H264 H 0.73892 0.51938 0.71159 0.0
H265 H 0.74831 0.62706 0.62205 0.0
H266 H 0.9449 0.72939 0.70991 0.0
H267 H 0.97019 0.79757 0.76226 0.0
O268 O 0.75495 0.71833 0.73199 0.0
C269 C 0.76965 0.80087 0.67192 0.0
C270 C 0.90502 0.80136 0.75355 0.0
C271 C 0.92144 0.74432 0.71628 0.0
N272 N 0.84662 0.74383 0.70331 0.0
C273 C 0.86048 0.78152 0.73188 0.0
C274 C 0.87655 0.72529 0.69531 0.0
C275 C 0.93563 0.78256 0.74565 0.0
C276 C 0.66379 0.69796 0.57197 0.0
N277 N 0.66894 0.72764 0.60618 0.0
C278 C 0.66346 0.71277 0.52919 0.0
C279 C 0.66851 0.75836 0.5216 0.0
C280 C 0.67367 0.78842 0.55672 0.0
C281 C 0.67374 0.77235 0.59904 0.0
C282 C 0.54631 0.71809 0.67879 0.0
C283 C 0.6327 0.74934 0.72313 0.0
C284 C 0.58234 0.70951 0.66236 0.0
N285 N 0.62447 0.72422 0.68495 0.0
C286 C 0.59777 0.75915 0.74024 0.0
C287 C 0.55406 0.74283 0.71812 0.0
C288 C 0.71238 0.69952 0.74808 0.0
C289 C 0.74189 0.56941 0.66278 0.0
C290 C 0.77551 0.6384 0.72845 0.0
C291 C 0.76455 0.59097 0.73786 0.0
C292 C 0.74762 0.5563 0.70475 0.0
N293 N 0.76993 0.65101 0.68716 0.0
C294 C 0.75327 0.61721 0.65456 0.0
Co295 Co 0.97457 0.66513 0.99806 0.0
Co296 Co 0.077 0.77762 0.00856 0.0
O297 O 0.04102 0.71341 0.97986 0.0
C298 C 0.02114 0.60351 1.00091 0.0
O299 O 0.05906 0.63953 0.01996 0.0
C300 C 0.09079 0.80575 0.91501 0.0
O301 O 0.04387 0.77664 0.9098 0.0
O302 O 0.02332 0.79115 0.99555 0.0
O303 O 0.95884 0.71774 0.00985 0.0
H304 H 0.0953 0.91004 0.11004 0.0
H305 H 1.01123 0.65467 0.91258 0.0
O306 O 0.98659 0.60943 0.98718 0.0
H307 H 0.86624 0.66772 0.87956 0.0
H308 H 0.81793 0.50502 0.99294 0.0
H309 H 0.9119 0.65998 0.07178 0.0
H310 H 0.89175 0.66875 0.95558 0.0
H311 H 0.89707 0.56883 0.96467 0.0
O312 O 0.10996 0.80914 0.95219 0.0
H313 H 0.05104 0.83088 0.07268 0.0
H314 H 0.17915 0.86051 1.00407 0.0
H315 H 0.83239 0.59771 0.10052 0.0
H316 H 0.98699 0.65351 0.83594 0.0
H317 H 0.78566 0.51893 0.06185 0.0
H318 H 0.91412 0.66028 0.8191 0.0
O319 O 0.99683 0.66885 0.059 0.0
H320 H 0.1958 0.72198 0.97285 0.0
H321 H 0.1336 0.78429 0.08852 0.0
H322 H 0.198 0.76518 0.10577 0.0
H323 H 0.2296 0.73386 0.04768 0.0
H324 H 0.13107 0.74121 0.95709 0.0
H325 H 0.22462 0.94039 0.04023 0.0
H326 H 0.18269 0.96535 0.09395 0.0
O327 O 0.04614 0.74922 0.06612 0.0
C328 C 0.97823 0.76332 1.00338 0.0
C329 C 0.11397 0.89949 0.08679 0.0
C330 C 0.18654 0.91653 0.04757 0.0
N331 N 0.11254 0.84085 0.03646 0.0
C332 C 0.08913 0.85463 0.0656 0.0
C333 C 0.16055 0.87133 0.02707 0.0
C334 C 0.16302 0.93054 0.07771 0.0
C335 C 0.97926 0.65722 0.90541 0.0
N336 N 0.95292 0.66165 0.93843 0.0
C337 C 0.96578 0.65667 0.86201 0.0
C338 C 0.92491 0.66052 0.85257 0.0
C339 C 0.89804 0.66472 0.88648 0.0
C340 C 0.91271 0.66533 0.92947 0.0
C341 C 0.8382 0.53907 0.0103 0.0
C342 C 0.89121 0.62629 0.05411 0.0
C343 C 0.88298 0.57534 0.99441 0.0
N344 N 0.90935 0.61787 0.01678 0.0
C345 C 0.84632 0.59107 0.07069 0.0
C346 C 0.82007 0.54691 0.04892 0.0
C347 C 0.02078 0.70675 0.08212 0.0
C348 C 0.18242 0.73573 0.9984 0.0
C349 C 0.14703 0.77053 0.06308 0.0
C350 C 0.18359 0.75988 0.07303 0.0
C351 C 0.20133 0.74234 0.04041 0.0
N352 N 0.12875 0.76405 0.02176 0.0
C353 C 0.14592 0.74684 0.98963 0.0
Co354 Co 0.05111 0.70449 0.35285 0.0
Co355 Co 0.9481 0.71363 0.34488 0.0
O356 O 0.98524 0.68633 0.37275 0.0
C357 C 1.00519 0.59649 0.35189 0.0
O358 O 0.9668 0.59415 0.33345 0.0
C359 C 0.9365 0.72924 0.43893 0.0
O360 O 0.98354 0.74735 0.4436 0.0
O361 O 1.00202 0.78129 0.35633 0.0
O362 O 0.06583 0.77214 0.33967 0.0
H363 H 0.92575 0.82638 0.24503 0.0
H364 H 0.0184 0.65927 0.43954 0.0
O365 O 0.03999 0.63729 0.36477 0.0
H366 H 0.16078 0.8208 0.46787 0.0
H367 H 0.20933 0.70406 0.35578 0.0
H368 H 0.11093 0.75966 0.27685 0.0
H369 H 0.13394 0.79328 0.39264 0.0
H370 H 0.13044 0.68812 0.38526 0.0
O371 O 0.91679 0.71308 0.40199 0.0
H372 H 0.97141 0.79172 0.28018 0.0
H373 H 0.84591 0.69356 0.35199 0.0
H374 H 0.19011 0.77737 0.24685 0.0
H375 H 0.04457 0.68502 0.51539 0.0
H376 H 0.23935 0.74855 0.28583 0.0
H377 H 0.11609 0.76645 0.52988 0.0
O378 O 0.02678 0.68416 0.29265 0.0
H379 H 0.83134 0.53972 0.38404 0.0
H380 H 0.88901 0.66187 0.26654 0.0
H381 H 0.82442 0.57786 0.25113 0.0
H382 H 0.7951 0.51612 0.31016 0.0
H383 H 0.8962 0.62415 0.39794 0.0
H384 H 0.79906 0.72757 0.318 0.0
H385 H 0.8389 0.79426 0.26389 0.0
O386 O 0.97718 0.71501 0.28654 0.0
C387 C 0.04666 0.79843 0.34652 0.0
C388 C 0.90793 0.79722 0.26846 0.0
C389 C 0.83685 0.74181 0.30945 0.0
N390 N 0.91132 0.74043 0.3179 0.0
C391 C 0.93358 0.77736 0.2884 0.0
C392 C 0.86363 0.7228 0.3287 0.0
C393 C 0.85922 0.77922 0.27908 0.0
C394 C 0.04995 0.69446 0.44566 0.0
N395 N 0.07465 0.72462 0.41177 0.0
C396 C 0.06448 0.70894 0.48863 0.0
C397 C 0.10457 0.75466 0.49674 0.0
C398 C 0.12969 0.78516 0.46196 0.0
C399 C 0.1142 0.76942 0.41943 0.0
C400 C 0.18809 0.71667 0.3384 0.0
C401 C 0.13256 0.7478 0.29452 0.0
C402 C 0.14341 0.70776 0.35493 0.0
N403 N 0.11584 0.72246 0.3326 0.0
C404 C 0.17731 0.75784 0.27726 0.0
C405 C 0.20493 0.74164 0.29917 0.0
C406 C 1.00207 0.69757 0.26999 0.0
C407 C 0.84371 0.56633 0.35809 0.0
C408 C 0.87657 0.63519 0.29238 0.0
C409 C 0.8399 0.5877 0.28347 0.0
C410 C 0.82345 0.55309 0.31661 0.0
N411 N 0.89619 0.64792 0.33318 0.0
C412 C 0.88029 0.6142 0.36581 0.0
Co413 Co 0.35467 0.04797 0.68605 0.0
Co414 Co 0.24118 0.94708 0.67949 0.0
O415 O 0.30611 0.98266 0.70666 0.0
C416 C 0.41395 0.99934 0.68418 0.0
O417 O 0.37768 0.9629 0.66381 0.0
C418 C 0.21419 0.93137 0.77424 0.0
O419 O 0.24529 0.9774 0.78195 0.0
O420 O 0.2296 1.00204 0.6934 0.0
O421 O 0.30253 0.06411 0.67381 0.0
H422 H 0.10216 0.93212 0.58941 0.0
H423 H 0.36724 0.01518 0.77279 0.0
O424 O 0.40944 0.03484 0.69753 0.0
H425 H 0.35631 0.16243 0.80052 0.0
H426 H 0.51678 0.20267 0.68536 0.0
H427 H 0.35829 0.1096 0.61189 0.0
H428 H 0.35297 0.13308 0.72553 0.0
H429 H 0.45377 0.12398 0.715 0.0
O430 O 0.21038 0.91415 0.73607 0.0
H431 H 0.18317 0.97521 0.62333 0.0
H432 H 0.1603 0.8436 0.68024 0.0
H433 H 0.41955 0.18897 0.5822 0.0
H434 H 0.37145 0.04368 0.84841 0.0
H435 H 0.49989 0.23557 0.6184 0.0
H436 H 0.36574 0.1177 0.8626 0.0
O437 O 0.34883 0.02311 0.62562 0.0
H438 H 0.29687 0.82785 0.71284 0.0
H439 H 0.23241 0.88986 0.59907 0.0
H440 H 0.25129 0.8255 0.58079 0.0
H441 H 0.28372 0.79402 0.63791 0.0
H442 H 0.27782 0.89253 0.72965 0.0
H443 H 0.07869 0.79909 0.6473 0.0
H444 H 0.04925 0.84342 0.60128 0.0
O445 O 0.26797 0.97704 0.62126 0.0
C446 C 0.25753 0.04628 0.68238 0.0
C447 C 0.11467 0.91236 0.6092 0.0
C448 C 0.10152 0.83773 0.64167 0.0
N449 N 0.17696 0.91195 0.6532 0.0
C450 C 0.16066 0.93657 0.62839 0.0
C451 C 0.1478 0.86316 0.66025 0.0
C452 C 0.08499 0.86258 0.61589 0.0
C453 C 0.36528 0.0477 0.77878 0.0
N454 N 0.36003 0.07248 0.74485 0.0
C455 C 0.36749 0.06357 0.82162 0.0
C456 C 0.36424 0.10508 0.82957 0.0
C457 C 0.35896 0.13021 0.79475 0.0
C458 C 0.35697 0.11332 0.75236 0.0
C459 C 0.48199 0.18256 0.66916 0.0
C460 C 0.39273 0.13011 0.62846 0.0
C461 C 0.44621 0.13792 0.68574 0.0
N462 N 0.40242 0.11205 0.66515 0.0
C463 C 0.42741 0.17492 0.61129 0.0
C464 C 0.47248 0.20102 0.63161 0.0
C465 C 0.30984 1.00038 0.60359 0.0
C466 C 0.28258 0.84114 0.68772 0.0
C467 C 0.24665 0.87648 0.62411 0.0
C468 C 0.25714 0.83992 0.61357 0.0
C469 C 0.27529 0.82224 0.64565 0.0
N470 N 0.25378 0.89475 0.6655 0.0
C471 C 0.27156 0.8776 0.69709 0.0
Co472 Co 0.31966 0.35096 0.01908 0.0
Co473 Co 0.30864 0.23807 0.01075 0.0
O474 O 0.33714 0.3026 0.03852 0.0
C475 C 0.42735 0.4109 0.01598 0.0
O476 O 0.42738 0.37512 0.99453 0.0
C477 C 0.296 0.20977 0.10492 0.0
O478 O 0.2802 0.24022 0.11244 0.0
O479 O 0.24165 0.22542 0.02437 0.0
O480 O 0.25144 0.29862 0.00722 0.0
H481 H 0.18648 0.09878 0.91945 0.0
H482 H 0.36641 0.36309 0.10507 0.0
O483 O 0.38748 0.40587 0.0303 0.0
H484 H 0.20799 0.35021 0.136 0.0
H485 H 0.32518 0.51218 0.02212 0.0
H486 H 0.26083 0.35519 0.94596 0.0
H487 H 0.23301 0.34792 0.06038 0.0
H488 H 0.34204 0.44926 0.04989 0.0
O489 O 0.31063 0.20687 0.06703 0.0
H490 H 0.22286 0.17937 0.95421 0.0
H491 H 0.33279 0.15834 0.01098 0.0
H492 H 0.24189 0.41653 0.91793 0.0
H493 H 0.34315 0.36633 0.18125 0.0
H494 H 0.27496 0.49604 0.95555 0.0
H495 H 0.26331 0.35965 0.19706 0.0
O496 O 0.33798 0.34599 0.95809 0.0
H497 H 0.48367 0.2954 0.04504 0.0
H498 H 0.35824 0.23119 0.93035 0.0
H499 H 0.44195 0.25145 0.91241 0.0
H500 H 0.50536 0.28377 0.97 0.0
H501 H 0.39949 0.275 0.06151 0.0
H502 H 0.29732 0.07726 0.9772 0.0
H503 H 0.2238 0.04706 0.93078 0.0
O504 O 0.30558 0.26537 0.95288 0.0
C505 C 0.22482 0.25331 0.0148 0.0
C506 C 0.21872 0.11163 0.93935 0.0
C507 C 0.28091 0.09958 0.97174 0.0
N508 N 0.28054 0.17415 0.98389 0.0
C509 C 0.23964 0.1574 0.95899 0.0
C510 C 0.30086 0.14559 0.99076 0.0
C511 C 0.23964 0.08263 0.94575 0.0
C512 C 0.33187 0.36071 0.11175 0.0
N513 N 0.30123 0.35549 0.07838 0.0
C514 C 0.3188 0.36238 0.15491 0.0
C515 C 0.27398 0.35858 0.16376 0.0
C516 C 0.24293 0.3533 0.12952 0.0
C517 C 0.25725 0.35189 0.08677 0.0
C518 C 0.31077 0.47774 1.00531 0.0
C519 C 0.27459 0.38932 0.96308 0.0
C520 C 0.32028 0.44201 0.02083 0.0
N521 N 0.30262 0.39863 0.99951 0.0
C522 C 0.26393 0.42401 0.94688 0.0
C523 C 0.28252 0.46864 0.968 0.0
C524 C 0.3229 0.30735 0.93567 0.0
C525 C 0.45633 0.28118 0.01972 0.0
C526 C 0.38563 0.24537 0.95559 0.0
C527 C 0.43295 0.25665 0.94525 0.0
C528 C 0.46849 0.27473 0.97758 0.0
N529 N 0.37394 0.25167 0.99704 0.0
C530 C 0.40858 0.26939 0.02889 0.0
Co531 Co 0.97354 0.31329 0.35306 0.0
Co532 Co 0.076 0.3031 0.34634 0.0
O533 O 0.03942 0.33168 0.37259 0.0
C534 C 0.02135 0.42101 0.3486 0.0
O535 O 0.05727 0.42076 0.32764 0.0
C536 C 0.08887 0.29143 0.44094 0.0
O537 O 0.04184 0.27303 0.44602 0.0
O538 O 0.02197 0.23618 0.36011 0.0
O539 O 0.95789 0.24477 0.34275 0.0
H540 H 0.09637 0.1824 0.25587 0.0
H541 H 1.00901 0.36193 0.43826 0.0
O542 O 0.98624 0.38129 0.36285 0.0
H543 H 0.86353 0.20444 0.47183 0.0
H544 H 0.81759 0.31826 0.3549 0.0
H545 H 0.91038 0.25287 0.2806 0.0
H546 H 0.88993 0.22784 0.39577 0.0
H547 H 0.8975 0.33587 0.38293 0.0
O548 O 0.10804 0.30643 0.40362 0.0
H549 H 0.05108 0.21875 0.28871 0.0
H550 H 0.17906 0.32557 0.35187 0.0
H551 H 0.83011 0.23351 0.25213 0.0
H552 H 0.98367 0.34008 0.51485 0.0
H553 H 0.7836 0.26703 0.28883 0.0
H554 H 0.91056 0.26069 0.53199 0.0
O555 O 0.99668 0.33011 0.29187 0.0
H556 H 0.19235 0.47906 0.37885 0.0
H557 H 0.13391 0.35115 0.26638 0.0
H558 H 0.1975 0.4346 0.24777 0.0
H559 H 0.22714 0.49926 0.30423 0.0
H560 H 0.12854 0.3951 0.39599 0.0
H561 H 0.22567 0.28994 0.32035 0.0
H562 H 0.18441 0.21806 0.27167 0.0
O563 O 0.04619 0.29888 0.28779 0.0
C564 C 0.97716 0.21874 0.35074 0.0
C565 C 0.11489 0.21398 0.27672 0.0
C566 C 0.18742 0.27429 0.31295 0.0
N567 N 0.11256 0.27497 0.32126 0.0
C568 C 0.08946 0.23494 0.29512 0.0
C569 C 0.16081 0.2943 0.3307 0.0
C570 C 0.16425 0.23395 0.28565 0.0
C571 C 0.97686 0.32758 0.44551 0.0
N572 N 0.95093 0.29632 0.41263 0.0
C573 C 0.96277 0.31532 0.4889 0.0
C574 C 0.92178 0.27075 0.4985 0.0
C575 C 0.89536 0.23918 0.46475 0.0
C576 C 0.91054 0.25262 0.42176 0.0
C577 C 0.83766 0.30363 0.33849 0.0
C578 C 0.88997 0.26687 0.29729 0.0
C579 C 0.88295 0.31353 0.35417 0.0
N580 N 0.90869 0.29555 0.33337 0.0
C581 C 0.84463 0.25594 0.28087 0.0
C582 C 0.81856 0.27481 0.30147 0.0
C583 C 0.02072 0.31505 0.2701 0.0
C584 C 0.17985 0.45117 0.35401 0.0
C585 C 0.14656 0.37908 0.29113 0.0
C586 C 0.18266 0.42626 0.28041 0.0
C587 C 0.1993 0.4625 0.31211 0.0
N588 N 0.12771 0.36824 0.33232 0.0
C589 C 0.14388 0.40355 0.36358 0.0
Co590 Co 0.66874 0.97054 0.68663 0.0
Co591 Co 0.78066 0.07348 0.67695 0.0
O592 O 0.71637 0.03707 0.70554 0.0
C593 C 0.60586 0.01589 0.68451 0.0
O594 O 0.64152 0.05404 0.66537 0.0
C595 C 0.80993 0.09071 0.77073 0.0
O596 O 0.77992 0.0444 0.77835 0.0
O597 O 0.79478 0.02041 0.69143 0.0
O598 O 0.72218 0.95581 0.67493 0.0
H599 H 0.91618 0.09109 0.57997 0.0
H600 H 0.65702 1.00573 0.7724 0.0
O601 O 0.61233 0.98149 0.69771 0.0
H602 H 0.6701 0.86046 0.8041 0.0
H603 H 0.51004 0.81229 0.69011 0.0
H604 H 0.66516 0.90926 0.61228 0.0
H605 H 0.67286 0.88759 0.72838 0.0
H606 H 0.57287 0.89141 0.71931 0.0
O607 O 0.81231 0.10801 0.73281 0.0
H608 H 0.83722 0.04666 0.61755 0.0
H609 H 0.86045 0.17738 0.67681 0.0
H610 H 0.60392 0.82979 0.58264 0.0
H611 H 0.65409 0.97983 0.84874 0.0
H612 H 0.52508 0.78151 0.62083 0.0
H613 H 0.66081 0.90677 0.86492 0.0
O614 O 0.67251 0.99342 0.62574 0.0
H615 H 0.72276 0.19105 0.71006 0.0
H616 H 0.78558 0.12784 0.59572 0.0
H617 H 0.76484 0.19079 0.57715 0.0
H618 H 0.73329 0.22293 0.63457 0.0
H619 H 0.74352 0.12765 0.72712 0.0
H620 H 0.94016 0.22319 0.6405 0.0
H621 H 0.96826 0.18004 0.59131 0.0
O622 O 0.75302 0.04155 0.6196 0.0
C623 C 0.76751 0.97531 0.68298 0.0
C624 C 0.90427 0.11034 0.6012 0.0
C625 C 0.91772 0.18445 0.63518 0.0
N626 N 0.84391 0.10937 0.64902 0.0
C627 C 0.85946 0.08536 0.62245 0.0
C628 C 0.87261 0.15827 0.65577 0.0
C629 C 0.93349 0.16024 0.60761 0.0
C630 C 0.65968 0.97375 0.77928 0.0
N631 N 0.66501 0.9482 0.74605 0.0
C632 C 0.6581 0.95932 0.82251 0.0
C633 C 0.6619 0.91834 0.83157 0.0
C634 C 0.66713 0.89234 0.79746 0.0
C635 C 0.66875 0.90795 0.75465 0.0
C636 C 0.54409 0.83326 0.67293 0.0
C637 C 0.6314 0.88797 0.6297 0.0
C638 C 0.57977 0.87807 0.6893 0.0
N639 N 0.62231 0.90531 0.66719 0.0
C640 C 0.59679 0.84307 0.61262 0.0
C641 C 0.55259 0.81596 0.63411 0.0
C642 C 0.71082 0.01664 0.603 0.0
C643 C 0.73661 0.17744 0.68479 0.0
C644 C 0.77164 0.14143 0.62086 0.0
C645 C 0.76011 0.17721 0.61017 0.0
C646 C 0.74245 0.19525 0.64241 0.0
N647 N 0.76596 0.12425 0.66256 0.0
C648 C 0.7486 0.1417 0.6943 0.0
Co649 Co 0.70945 0.666 0.01952 0.0
Co650 Co 0.71864 0.77796 0.00937 0.0
O651 O 0.69118 0.71405 0.03863 0.0
C652 C 0.60144 0.6035 0.0186 0.0
O653 O 0.59875 0.6392 0.99981 0.0
C654 C 0.73206 0.80781 0.10302 0.0
O655 O 0.74787 0.77738 0.11056 0.0
O656 O 0.78608 0.79206 0.02252 0.0
O657 O 0.77715 0.719 0.00644 0.0
H658 H 0.83327 0.91092 0.90857 0.0
H659 H 0.66421 0.6546 0.10611 0.0
O660 O 0.64233 0.60991 0.03162 0.0
H661 H 0.8245 0.67099 0.13495 0.0
H662 H 0.70859 0.5071 0.02334 0.0
H663 H 0.76575 0.66141 0.94446 0.0
H664 H 0.79783 0.67162 0.05969 0.0
H665 H 0.69259 0.57019 0.0524 0.0
O666 O 0.71721 0.81042 0.06517 0.0
H667 H 0.79897 0.83211 0.94641 0.0
H668 H 0.69602 0.85867 0.01052 0.0
H669 H 0.78393 0.60002 0.91509 0.0
H670 H 0.68921 0.65318 0.18204 0.0
H671 H 0.75397 0.52161 0.95388 0.0
H672 H 0.76998 0.66164 0.19679 0.0
O673 O 0.68905 0.669 0.95909 0.0
H674 H 0.54417 0.72127 0.04566 0.0
H675 H 0.66758 0.78234 0.92911 0.0
H676 H 0.58365 0.76187 0.91207 0.0
H677 H 0.52127 0.73121 0.97061 0.0
H678 H 0.62854 0.74174 0.06119 0.0
H679 H 0.72969 0.93815 0.97391 0.0
H680 H 0.79861 0.96461 0.92226 0.0
O681 O 0.72135 0.7494 0.95212 0.0
C682 C 0.80337 0.76443 0.01364 0.0
C683 C 0.80325 0.89983 0.93102 0.0
C684 C 0.74514 0.91511 0.96769 0.0
N685 N 0.74557 0.84075 0.98074 0.0
C686 C 0.78365 0.85519 0.95254 0.0
C687 C 0.72638 0.87016 0.9885 0.0
C688 C 0.7838 0.92993 0.93871 0.0
C689 C 0.69919 0.65783 0.11237 0.0
N690 N 0.72943 0.66309 0.07859 0.0
C691 C 0.71323 0.65717 0.15537 0.0
C692 C 0.75858 0.66196 0.16363 0.0
C693 C 0.78919 0.66722 0.12895 0.0
C694 C 0.77393 0.66769 0.0864 0.0
C695 C 0.72158 0.54103 0.006 0.0
C696 C 0.75358 0.62786 0.96215 0.0
C697 C 0.71261 0.57687 0.02229 0.0
N698 N 0.72767 0.61919 0.99991 0.0
C699 C 0.76381 0.59315 0.94521 0.0
C700 C 0.74706 0.5492 0.96704 0.0
C701 C 0.70328 0.70692 0.936 0.0
C702 C 0.57105 0.73473 0.01991 0.0
C703 C 0.64063 0.7688 0.95475 0.0
C704 C 0.59318 0.75741 0.94491 0.0
C705 C 0.55821 0.74024 0.97777 0.0
N706 N 0.65298 0.76342 0.9962 0.0
C707 C 0.61889 0.74655 0.02856 0.0
C708 C 0.29974 0.16126 0.21755 0.0
C709 C 0.29567 0.11575 0.20863 0.0
C710 C 0.29933 0.1912 0.18403 0.0
C711 C 0.29576 0.17733 0.14008 0.0
H712 H 0.30264 0.17376 0.25084 0.0
H713 H 0.3024 0.22571 0.19263 0.0
S714 S 0.28383 0.06166 0.099 0.0
N715 N 0.28744 0.05823 0.15239 0.0
N716 N 0.28715 0.11439 0.08955 0.0
C717 C 0.29175 0.13195 0.13069 0.0
C718 C 0.29154 0.10121 0.16485 0.0
C719 C 0.19543 0.29638 0.50263 0.0
C720 C 0.18168 0.29343 0.54655 0.0
C721 C 0.1655 0.29639 0.46895 0.0
C722 C 0.12006 0.29253 0.47767 0.0
H723 H 0.22987 0.2992 0.49413 0.0
H724 H 0.17794 0.29879 0.4357 0.0
S725 S 0.06629 0.2824 0.58721 0.0
N726 N 0.11901 0.2858 0.59692 0.0
N727 N 0.06273 0.28523 0.53375 0.0
C728 C 0.10564 0.28908 0.52145 0.0
C729 C 0.13643 0.28974 0.5558 0.0
C730 C 0.82936 0.11216 0.84984 0.0
C731 C 0.8426 0.12301 0.80581 0.0
C732 C 0.85968 0.1421 0.88339 0.0
C733 C 0.90502 0.18372 0.87443 0.0
H734 H 0.79507 0.08049 0.85852 0.0
H735 H 0.84765 0.13203 0.91672 0.0
S736 S 0.95756 0.22744 0.76453 0.0
N737 N 0.90474 0.17811 0.75513 0.0
N738 N 0.96168 0.23381 0.81799 0.0
C739 C 0.91891 0.19475 0.83054 0.0
C740 C 0.88774 0.16462 0.79635 0.0
C741 C 0.72898 0.82633 0.18217 0.0
C742 C 0.7322 0.84017 0.13826 0.0
C743 C 0.72846 0.85608 0.21584 0.0
C744 C 0.73203 0.9014 0.20711 0.0
H745 H 0.72627 0.79194 0.19064 0.0
H746 H 0.72581 0.84357 0.24908 0.0
S747 S 0.7428 0.95538 0.09766 0.0
N748 N 0.73997 0.9029 0.08796 0.0
N749 N 0.73942 0.95874 0.15109 0.0
C750 C 0.73582 0.91594 0.16338 0.0
C751 C 0.73574 0.88537 0.12905 0.0
C752 C 0.86076 0.72616 0.46739 0.0
C753 C 0.90596 0.72937 0.47579 0.0
C754 C 0.83141 0.72703 0.5013 0.0
C755 C 0.84553 0.73025 0.54515 0.0
H756 H 0.84805 0.72352 0.43423 0.0
H757 H 0.79709 0.72457 0.49305 0.0
S758 S 0.96053 0.73978 0.58492 0.0
N759 N 0.96345 0.73631 0.53145 0.0
N760 N 0.90838 0.7375 0.59498 0.0
C761 C 0.89061 0.73341 0.55402 0.0
C762 C 0.92077 0.73314 0.51946 0.0
C763 C 0.19649 0.90908 0.85351 0.0
C764 C 0.18222 0.89893 0.80963 0.0
C765 C 0.16705 0.87843 0.88718 0.0
C766 C 0.12166 0.83678 0.87847 0.0
H767 H 0.23094 0.94066 0.86195 0.0
H768 H 0.17983 0.88792 0.92039 0.0
S769 S 0.06666 0.79464 0.76914 0.0
N770 N 0.11899 0.84443 0.75948 0.0
N771 N 0.06387 0.78738 0.82249 0.0
C772 C 0.10675 0.82648 0.83477 0.0
C773 C 0.13694 0.85734 0.80049 0.0
C774 C 0.51481 0.04965 0.32783 0.0
C775 C 0.46839 1.00829 0.33179 0.0
C776 C 0.55699 0.04571 0.32737 0.0
C777 C 0.55457 1.00032 0.3318 0.0
H778 H 0.51863 0.08542 0.32517 0.0
H779 H 0.59185 0.07877 0.32475 0.0
S780 S 0.44193 0.88084 0.34358 0.0
N781 N 0.42275 0.92037 0.34019 0.0
N782 N 0.5017 0.91312 0.33979 0.0
C783 C 0.5084 0.95868 0.33553 0.0
C784 C 0.46545 0.96262 0.33537 0.0
C785 C 0.55373 0.50862 0.65547 0.0
C786 C 0.55984 0.55503 0.66286 0.0
C787 C 0.50724 0.46689 0.65555 0.0
C788 C 0.46503 0.46973 0.66404 0.0
H789 H 0.58511 0.50448 0.64963 0.0
H790 H 0.50464 0.43197 0.65009 0.0
S791 S 0.46148 0.58265 0.68677 0.0
N792 N 0.51967 0.60119 0.67953 0.0
N793 N 0.43278 0.52312 0.68005 0.0
C794 C 0.47073 0.51597 0.67145 0.0
C795 C 0.51794 0.55846 0.67075 0.0
C796 C 0.05674 0.54878 0.99298 0.0
C797 C 0.01591 0.55426 0.9993 0.0
C798 C 0.05252 0.50251 0.9929 0.0
C799 C 1.00745 0.45986 1.00014 0.0
H800 H 0.09225 0.58049 0.98803 0.0
H801 H 0.08519 0.50036 0.98824 0.0
S802 S 0.88967 0.4546 0.01987 0.0
N803 N 0.92907 0.51304 0.01372 0.0
N804 N 0.92121 0.42654 0.01394 0.0
C805 C 0.96639 0.46494 0.00655 0.0
C806 C 0.9706 0.51195 0.00603 0.0
C807 C 0.96943 0.50607 0.35873 0.0
C808 C 1.01049 0.5525 0.35369 0.0
C809 C 0.97354 0.46397 0.35845 0.0
C810 C 0.01877 0.46647 0.35213 0.0
H811 H 0.93378 0.50219 0.36285 0.0
H812 H 0.94069 0.42908 0.36205 0.0
S813 S 0.13734 0.57927 0.33639 0.0
N814 N 0.09785 0.5983 0.34185 0.0
N815 N 0.10546 0.51953 0.3409 0.0
C816 C 0.0601 0.5127 0.34716 0.0
C817 C 0.05599 0.55556 0.34808 0.0
C818 C 0.55128 0.05196 0.69027 0.0
C819 C 0.55655 0.01063 0.68732 0.0
C820 C 0.50506 0.04782 0.6908 0.0
C821 C 0.46214 1.00222 0.68744 0.0
H822 H 0.58315 0.08787 0.69203 0.0
H823 H 0.5031 0.08086 0.69256 0.0
S824 S 0.45575 0.88269 0.67865 0.0
N825 N 0.51446 0.9225 0.68111 0.0
N826 N 0.4281 0.91488 0.6816 0.0
C827 C 0.46688 0.96063 0.68476 0.0
C828 C 0.51387 0.96478 0.68487 0.0
C829 C 0.4696 0.50152 0.02693 0.0
C830 C 0.47255 0.45918 0.01951 0.0
C831 C 0.51134 0.548 0.02693 0.0
C832 C 0.55784 0.554 0.02049 0.0
H833 H 0.43463 0.49901 0.03161 0.0
H834 H 0.50713 0.57947 0.03194 0.0
S835 S 0.58575 0.45525 0.99962 0.0
N836 N 0.52615 0.42666 0.00559 0.0
N837 N 0.6042 0.51355 0.00591 0.0
C838 C 0.56136 0.51197 0.01369 0.0
C839 C 0.51888 0.46475 0.01311 0.0
C840 C 0.10327 0.87752 0.38049 0.0
C841 C 0.07972 0.85114 0.34286 0.0
C842 C 0.14772 0.92127 0.37755 0.0
C843 C 0.16959 0.94022 0.33696 0.0
H844 H 0.08994 0.86186 0.41238 0.0
H845 H 0.16713 0.93799 0.40729 0.0
S846 S 0.11986 0.88704 0.22883 0.0
N847 N 0.07942 0.84855 0.26386 0.0
N848 N 0.16237 0.93145 0.2584 0.0
C849 C 0.14421 0.91635 0.29909 0.0
C850 C 0.09933 0.87153 0.30205 0.0
C851 C 0.23118 0.14586 0.70897 0.0
C852 C 0.23852 0.16896 0.66831 0.0
C853 C 0.23101 0.10169 0.71308 0.0
C854 C 0.2384 0.07959 0.67653 0.0
H855 H 0.22987 0.16406 0.73821 0.0
H856 H 0.22994 0.08744 0.74537 0.0
S857 S 0.25324 0.12233 0.56228 0.0
N858 N 0.24798 0.16382 0.59045 0.0
N859 N 0.24849 0.08137 0.59807 0.0
C860 C 0.24152 0.10019 0.63533 0.0
C861 C 0.24134 0.14482 0.6312 0.0
C862 C 0.14469 0.23036 0.04722 0.0
C863 C 0.17223 0.23392 0.01017 0.0
C864 C 0.10092 0.23096 0.04333 0.0
C865 C 0.08329 0.23464 1.00229 0.0
H866 H 0.15938 0.23206 0.07944 0.0
H867 H 0.08308 0.23293 0.07272 0.0
S868 S 0.14016 0.2411 0.89544 0.0
N869 N 0.17743 0.23825 0.93128 0.0
N870 N 0.09472 0.23829 0.92402 0.0
C871 C 0.10845 0.23417 0.96498 0.0
C872 C 0.15314 0.23409 0.96893 0.0
C873 C 0.92656 0.14478 0.30713 0.0
C874 C 0.94425 0.16593 0.34823 0.0
C875 C 0.88271 0.10052 0.30312 0.0
C876 C 0.85514 0.07651 0.34012 0.0
H877 H 0.9444 0.16471 0.2778 0.0
H878 H 0.86798 0.08769 0.27087 0.0
S879 S 0.88736 0.11521 0.45497 0.0
N880 N 0.93287 0.15787 0.4265 0.0
N881 N 0.84999 0.0753 0.41902 0.0
C882 C 0.87429 0.09553 0.38141 0.0
C883 C 0.91909 0.14019 0.38548 0.0
C884 C 0.79238 0.88021 0.63822 0.0
C885 C 0.78892 0.85353 0.67581 0.0
C886 C 0.79146 0.92387 0.64113 0.0
C887 C 0.78761 0.94241 0.68164 0.0
H888 H 0.79079 0.86487 0.60631 0.0
H889 H 0.78941 0.94086 0.61135 0.0
S890 S 0.78253 0.88853 0.78974 0.0
N891 N 0.78521 0.85035 0.75478 0.0
N892 N 0.78473 0.93306 0.76017 0.0
C893 C 0.78848 0.91826 0.71954 0.0
C894 C 0.78881 0.87356 0.71661 0.0
C895 C 0.88176 0.78575 0.04851 0.0
C896 C 0.85611 0.784 0.01066 0.0
C897 C 0.92551 0.78497 0.04583 0.0
C898 C 0.94507 0.78298 1.00526 0.0
H899 H 0.86554 0.78274 0.08025 0.0
H900 H 0.94184 0.78156 0.07564 0.0
S901 S 0.89369 0.78176 0.89681 0.0
N902 N 0.85477 0.78326 0.93163 0.0
N903 N 0.93755 0.78296 0.92666 0.0
C904 C 0.92186 0.78532 0.96729 0.0
C905 C 0.87712 0.78554 0.97 0.0
C906 C 0.35733 0.01552 0.48722 0.0
C907 C 0.31804 0.01129 0.4627 0.0
C908 C 0.35478 0.01235 0.53296 0.0
C909 C 0.31238 1.00352 0.55537 0.0
H910 H 0.39046 0.0223 0.47104 0.0
H911 H 0.38601 0.01642 0.5508 0.0
S912 S 0.19876 0.98729 0.50504 0.0
N913 N 0.2355 0.99672 0.46363 0.0
N914 N 0.22998 0.98959 0.54873 0.0
C915 C 0.27264 0.99822 0.53073 0.0
C916 C 0.27567 1.0024 0.48461 0.0
C917 C 0.35504 0.35321 0.86522 0.0
C918 C 0.32236 0.31025 0.88747 0.0
C919 C 0.35418 0.35598 0.81947 0.0
C920 C 0.31983 0.31627 0.79486 0.0
H921 H 0.38155 0.38474 0.8832 0.0
H922 H 0.37956 0.38961 0.8034 0.0
S923 S 0.22705 0.19565 0.83672 0.0
N924 N 0.25548 0.22704 0.8805 0.0
N925 N 0.25363 0.23289 0.79549 0.0
C926 C 0.28743 0.27335 0.81661 0.0
C927 C 0.28873 0.27016 0.86268 0.0
C928 C 0.01495 0.34994 0.19834 0.0
C929 C 0.01673 0.31294 0.22207 0.0
C930 C 0.0126 0.34849 0.15254 0.0
C931 C 1.01083 0.30944 0.12922 0.0
H932 H 0.01612 0.38047 0.21521 0.0
H933 H 1.01141 0.37765 0.13534 0.0
S934 S 0.01371 0.20329 0.17624 0.0
N935 N 0.01573 0.23601 0.21876 0.0
N936 N 1.01174 0.2335 0.13337 0.0
C937 C 1.01235 0.2723 0.15272 0.0
C938 C 0.01518 0.27399 0.19898 0.0
C939 C 0.67189 0.01096 0.48506 0.0
C940 C 0.70493 1.00125 0.46274 0.0
C941 C 0.67282 0.01472 0.53077 0.0
C942 C 0.70768 0.01022 0.55535 0.0
H943 H 0.64501 0.01542 0.46713 0.0
H944 H 0.64698 0.02233 0.54687 0.0
S945 S 0.80157 0.98401 0.51322 0.0
N946 N 0.77259 0.98614 0.46951 0.0
N947 N 0.77489 0.99447 0.55454 0.0
C948 C 0.74056 1.00035 0.53352 0.0
C949 C 0.73905 0.99554 0.48744 0.0
C950 C 0.74274 0.74007 0.86486 0.0
C951 C 0.70387 0.70298 0.88825 0.0
C952 C 0.74519 0.73805 0.81962 0.0
C953 C 0.70823 0.69946 0.79585 0.0
H954 H 0.77196 0.77077 0.88166 0.0
H955 H 0.77604 0.76742 0.80312 0.0
S956 S 0.59822 0.59352 0.84154 0.0
N957 N 0.62764 0.62629 0.8846 0.0
N958 N 0.63143 0.62328 0.79877 0.0
C959 C 0.66879 0.66228 0.81866 0.0
C960 C 0.66688 0.66377 0.86509 0.0
C961 C 1.00659 0.73594 0.19844 0.0
C962 C 1.00604 0.69781 0.22214 0.0
C963 C 1.01188 0.73857 0.1532 0.0
C964 C 0.01567 0.70256 0.12982 0.0
H965 H 1.00376 0.76454 0.21501 0.0
H966 H 1.01236 0.76877 0.13634 0.0
S967 S 0.0151 0.59459 0.17628 0.0
N968 N 1.00966 0.62317 0.21903 0.0
N969 N 0.01802 0.62731 0.13334 0.0
C970 C 0.01442 0.66377 0.1529 0.0
C971 C 1.01014 0.66167 0.19926 0.0
loop_
_geom_bond_atom_site_label_1
_geom_bond_atom_site_label_2
_geom_bond_distance
_geom_bond_site_symmetry_2
_ccdc_geom_bond_type
Co0 O2 2.143 1_565 S
Co0 O8 2.074 . S
Co0 O11 2.093 . S
Co0 O24 2.097 . S
Co0 N41 2.151 . S
Co0 N49 2.214 . S
Co1 O2 2.160 . S
Co1 O7 2.058 1_545 S
Co1 O17 2.057 . S
Co1 O32 2.037 . S
Co1 N36 2.145 . S
Co1 N57 2.257 . S
O2 Co0 2.143 1_545 S
O2 Co1 2.160 . S
C3 O4 1.278 . S
C3 O11 1.224 1_545 S
O4 C3 1.278 . S
C5 O6 1.245 . S
C5 O17 1.232 . S
O6 C5 1.245 . S
O7 Co1 2.058 1_565 S
O7 C33 1.269 . S
O8 Co0 2.074 . S
O8 C33 1.257 . S
H9 C34 0.930 . S
H10 C40 0.930 . S
O11 Co0 2.093 . S
O11 C3 1.224 1_565 S
H12 C44 0.929 . S
H13 C46 0.930 . S
H14 C47 0.930 . S
H15 C45 0.929 . S
H16 C48 0.928 . S
O17 Co1 2.057 . S
O17 C5 1.232 . S
H18 C37 0.929 . S
H19 C38 0.929 . S
H20 C50 0.931 . S
H21 C42 0.929 . S
H22 C51 0.930 . S
H23 C43 0.931 . S
O24 Co0 2.097 . S
O24 C52 1.214 1_565 S
H25 C53 0.929 . S
H26 C54 0.929 . S
H27 C55 0.930 . S
H28 C56 0.929 . S
H29 C58 0.930 . S
H30 C35 0.930 . S
H31 C39 0.930 . S
O32 Co1 2.037 . S
O32 C52 1.234 . S
C33 O7 1.269 . S
C33 O8 1.257 . S
C34 H9 0.930 . S
C34 C37 1.388 . S
C34 C39 1.418 . S
C35 H30 0.930 . S
C35 C38 1.404 . S
C35 C39 1.353 . S
N36 Co1 2.145 . S
N36 C37 1.397 . S
N36 C38 1.334 . S
C37 H18 0.929 . S
C37 C34 1.388 . S
C37 N36 1.397 . S
C38 H19 0.929 . S
C38 C35 1.404 . S
C38 N36 1.334 . S
C39 H31 0.930 . S
C39 C34 1.418 . S
C39 C35 1.353 . S
C40 H10 0.930 . S
C40 N41 1.330 . S
C40 C42 1.446 . S
N41 Co0 2.151 . S
N41 C40 1.330 . S
N41 C45 1.418 . S
C42 H21 0.929 . S
C42 C40 1.446 . S
C42 C43 1.332 . S
C43 H23 0.931 . S
C43 C42 1.332 . S
C43 C44 1.267 . S
C44 H12 0.929 . S
C44 C43 1.267 . S
C44 C45 1.251 . S
C45 H15 0.929 . S
C45 N41 1.418 . S
C45 C44 1.251 . S
C46 H13 0.930 . S
C46 C48 1.406 . S
C46 C51 1.261 . S
C47 H14 0.930 . S
C47 N49 1.325 . S
C47 C50 1.357 . S
C48 H16 0.928 . S
C48 C46 1.406 . S
C48 N49 1.261 . S
N49 Co0 2.214 . S
N49 C47 1.325 . S
N49 C48 1.261 . S
C50 H20 0.931 . S
C50 C47 1.357 . S
C50 C51 1.312 . S
C51 H22 0.930 . S
C51 C46 1.261 . S
C51 C50 1.312 . S
C52 O24 1.214 1_545 S
C52 O32 1.234 . S
C53 H25 0.929 . S
C53 C56 1.391 . S
C53 C58 1.391 . S
C54 H26 0.929 . S
C54 C55 1.390 . S
C54 N57 1.391 . S
C55 H27 0.930 . S
C55 C54 1.390 . S
C55 C56 1.392 . S
C56 H28 0.929 . S
C56 C53 1.391 . S
C56 C55 1.392 . S
N57 Co1 2.257 . S
N57 C54 1.391 . S
N57 C58 1.388 . S
C58 H29 0.930 . S
C58 C53 1.391 . S
C58 N57 1.388 . S
Co59 O61 2.143 . S
Co59 O67 2.074 . S
Co59 O70 2.093 . S
Co59 O83 2.097 . S
Co59 N100 2.151 . S
Co59 N108 2.214 . S
Co60 O61 2.160 . S
Co60 O66 2.058 . S
Co60 O76 2.057 . S
Co60 O91 2.037 . S
Co60 N95 2.145 . S
Co60 N116 2.257 . S
O61 Co59 2.143 . S
O61 Co60 2.160 . S
C62 O63 1.278 . S
C62 O70 1.224 . S
O63 C62 1.278 . S
C64 O65 1.245 . S
C64 O76 1.232 . S
O65 C64 1.245 . S
O66 Co60 2.058 . S
O66 C92 1.269 . S
O67 Co59 2.074 . S
O67 C92 1.257 . S
H68 C93 0.930 . S
H69 C99 0.930 . S
O70 Co59 2.093 . S
O70 C62 1.224 . S
H71 C103 0.929 . S
H72 C105 0.930 . S
H73 C106 0.930 . S
H74 C104 0.929 . S
H75 C107 0.928 . S
O76 Co60 2.057 . S
O76 C64 1.232 . S
H77 C96 0.929 . S
H78 C97 0.929 . S
H79 C109 0.931 . S
H80 C101 0.929 . S
H81 C110 0.930 . S
H82 C102 0.931 . S
O83 Co59 2.097 . S
O83 C111 1.214 . S
H84 C112 0.929 . S
H85 C113 0.929 . S
H86 C114 0.930 . S
H87 C115 0.929 . S
H88 C117 0.930 . S
H89 C94 0.930 . S
H90 C98 0.930 . S
O91 Co60 2.037 . S
O91 C111 1.234 . S
C92 O66 1.269 . S
C92 O67 1.257 . S
C93 H68 0.930 . S
C93 C96 1.388 . S
C93 C98 1.418 . S
C94 H89 0.930 . S
C94 C97 1.404 . S
C94 C98 1.353 . S
N95 Co60 2.145 . S
N95 C96 1.397 . S
N95 C97 1.334 . S
C96 H77 0.929 . S
C96 C93 1.388 . S
C96 N95 1.397 . S
C97 H78 0.929 . S
C97 C94 1.404 . S
C97 N95 1.334 . S
C98 H90 0.930 . S
C98 C93 1.418 . S
C98 C94 1.353 . S
C99 H69 0.930 . S
C99 N100 1.330 . S
C99 C101 1.446 . S
N100 Co59 2.151 . S
N100 C99 1.330 . S
N100 C104 1.418 . S
C101 H80 0.929 . S
C101 C99 1.446 . S
C101 C102 1.332 . S
C102 H82 0.931 . S
C102 C101 1.332 . S
C102 C103 1.267 . S
C103 H71 0.929 . S
C103 C102 1.267 . S
C103 C104 1.251 . S
C104 H74 0.929 . S
C104 N100 1.418 . S
C104 C103 1.251 . S
C105 H72 0.930 . S
C105 C107 1.406 . S
C105 C110 1.261 . S
C106 H73 0.930 . S
C106 N108 1.325 . S
C106 C109 1.357 . S
C107 H75 0.928 . S
C107 C105 1.406 . S
C107 N108 1.261 . S
N108 Co59 2.214 . S
N108 C106 1.325 . S
N108 C107 1.261 . S
C109 H79 0.931 . S
C109 C106 1.357 . S
C109 C110 1.312 . S
C110 H81 0.930 . S
C110 C105 1.261 . S
C110 C109 1.312 . S
C111 O83 1.214 . S
C111 O91 1.234 . S
C112 H84 0.929 . S
C112 C115 1.391 . S
C112 C117 1.391 . S
C113 H85 0.929 . S
C113 C114 1.390 . S
C113 N116 1.391 . S
C114 H86 0.930 . S
C114 C113 1.390 . S
C114 C115 1.392 . S
C115 H87 0.929 . S
C115 C112 1.391 . S
C115 C114 1.392 . S
N116 Co60 2.257 . S
N116 C113 1.391 . S
N116 C117 1.388 . S
C117 H88 0.930 . S
C117 C112 1.391 . S
C117 N116 1.388 . S
Co118 O120 2.143 1_454 S
Co118 O126 2.074 . S
Co118 O129 2.093 . S
Co118 O142 2.097 . S
Co118 N159 2.151 1_554 S
Co118 N167 2.214 . S
Co119 O120 2.160 1_554 S
Co119 O125 2.058 1_654 S
Co119 O135 2.057 1_554 S
Co119 O150 2.037 . S
Co119 N154 2.145 . S
Co119 N175 2.257 . S
O120 Co118 2.143 1_656 S
O120 Co119 2.160 1_556 S
C121 O122 1.278 . S
C121 O129 1.224 1_656 S
O122 C121 1.278 . S
C123 O124 1.245 . S
C123 O135 1.232 . S
O124 C123 1.245 . S
O125 Co119 2.058 1_456 S
O125 C151 1.269 . S
O126 Co118 2.074 . S
O126 C151 1.257 1_554 S
H127 C152 0.930 . S
H128 C158 0.930 . S
O129 Co118 2.093 . S
O129 C121 1.224 1_454 S
H130 C162 0.929 . S
H131 C164 0.930 . S
H132 C165 0.930 . S
H133 C163 0.929 . S
H134 C166 0.928 . S
O135 Co119 2.057 1_556 S
O135 C123 1.232 . S
H136 C155 0.929 . S
H137 C156 0.929 1_556 S
H138 C168 0.931 . S
H139 C160 0.929 . S
H140 C169 0.930 . S
H141 C161 0.931 . S
O142 Co118 2.097 . S
O142 C170 1.214 1_455 S
H143 C171 0.929 1_556 S
H144 C172 0.929 . S
H145 C173 0.930 . S
H146 C174 0.929 . S
H147 C176 0.930 . S
H148 C153 0.930 1_556 S
H149 C157 0.930 . S
O150 Co119 2.037 . S
O150 C170 1.234 . S
C151 O125 1.269 . S
C151 O126 1.257 1_556 S
C152 H127 0.930 . S
C152 C155 1.388 . S
C152 C157 1.418 . S
C153 H148 0.930 1_554 S
C153 C156 1.404 . S
C153 C157 1.353 . S
N154 Co119 2.145 . S
N154 C155 1.397 . S
N154 C156 1.334 . S
C155 H136 0.929 . S
C155 C152 1.388 . S
C155 N154 1.397 . S
C156 H137 0.929 1_554 S
C156 C153 1.404 . S
C156 N154 1.334 . S
C157 H149 0.930 . S
C157 C152 1.418 . S
C157 C153 1.353 . S
C158 H128 0.930 . S
C158 N159 1.330 . S
C158 C160 1.446 . S
N159 Co118 2.151 1_556 S
N159 C158 1.330 . S
N159 C163 1.418 . S
C160 H139 0.929 . S
C160 C158 1.446 . S
C160 C161 1.332 . S
C161 H141 0.931 . S
C161 C160 1.332 . S
C161 C162 1.267 . S
C162 H130 0.929 . S
C162 C161 1.267 . S
C162 C163 1.251 . S
C163 H133 0.929 . S
C163 N159 1.418 . S
C163 C162 1.251 . S
C164 H131 0.930 . S
C164 C166 1.406 . S
C164 C169 1.261 . S
C165 H132 0.930 . S
C165 N167 1.325 . S
C165 C168 1.357 . S
C166 H134 0.928 . S
C166 C164 1.406 . S
C166 N167 1.261 . S
N167 Co118 2.214 . S
N167 C165 1.325 . S
N167 C166 1.261 . S
C168 H138 0.931 . S
C168 C165 1.357 . S
C168 C169 1.312 . S
C169 H140 0.930 . S
C169 C164 1.261 . S
C169 C168 1.312 . S
C170 O142 1.214 1_655 S
C170 O150 1.234 . S
C171 H143 0.929 1_554 S
C171 C174 1.391 . S
C171 C176 1.391 1_554 S
C172 H144 0.929 . S
C172 C173 1.390 . S
C172 N175 1.391 . S
C173 H145 0.930 . S
C173 C172 1.390 . S
C173 C174 1.392 . S
C174 H146 0.929 . S
C174 C171 1.391 . S
C174 C173 1.392 . S
N175 Co119 2.257 . S
N175 C172 1.391 . S
N175 C176 1.388 1_554 S
C176 H147 0.930 . S
C176 C171 1.391 1_556 S
C176 N175 1.388 1_556 S
Co177 O179 2.143 1_545 S
Co177 O185 2.074 . S
Co177 O188 2.093 . S
Co177 O201 2.097 . S
Co177 N218 2.151 . S
Co177 N226 2.214 . S
Co178 O179 2.160 . S
Co178 O184 2.058 1_565 S
Co178 O194 2.057 . S
Co178 O209 2.037 . S
Co178 N213 2.145 . S
Co178 N234 2.257 . S
O179 Co177 2.143 1_565 S
O179 Co178 2.160 . S
C180 O181 1.278 . S
C180 O188 1.224 1_565 S
O181 C180 1.278 . S
C182 O183 1.245 . S
C182 O194 1.232 . S
O183 C182 1.245 . S
O184 Co178 2.058 1_545 S
O184 C210 1.269 . S
O185 Co177 2.074 . S
O185 C210 1.257 . S
H186 C211 0.930 . S
H187 C217 0.930 . S
O188 Co177 2.093 . S
O188 C180 1.224 1_545 S
H189 C221 0.929 . S
H190 C223 0.930 . S
H191 C224 0.930 . S
H192 C222 0.929 . S
H193 C225 0.928 . S
O194 Co178 2.057 . S
O194 C182 1.232 . S
H195 C214 0.929 . S
H196 C215 0.929 . S
H197 C227 0.931 . S
H198 C219 0.929 . S
H199 C228 0.930 . S
H200 C220 0.931 . S
O201 Co177 2.097 . S
O201 C229 1.214 1_545 S
H202 C230 0.929 . S
H203 C231 0.929 . S
H204 C232 0.930 . S
H205 C233 0.929 . S
H206 C235 0.930 . S
H207 C212 0.930 . S
H208 C216 0.930 . S
O209 Co178 2.037 . S
O209 C229 1.234 . S
C210 O184 1.269 . S
C210 O185 1.257 . S
C211 H186 0.930 . S
C211 C214 1.388 . S
C211 C216 1.418 . S
C212 H207 0.930 . S
C212 C215 1.404 . S
C212 C216 1.353 . S
N213 Co178 2.145 . S
N213 C214 1.397 . S
N213 C215 1.334 . S
C214 H195 0.929 . S
C214 C211 1.388 . S
C214 N213 1.397 . S
C215 H196 0.929 . S
C215 C212 1.404 . S
C215 N213 1.334 . S
C216 H208 0.930 . S
C216 C211 1.418 . S
C216 C212 1.353 . S
C217 H187 0.930 . S
C217 N218 1.330 . S
C217 C219 1.446 . S
N218 Co177 2.151 . S
N218 C217 1.330 . S
N218 C222 1.418 . S
C219 H198 0.929 . S
C219 C217 1.446 . S
C219 C220 1.332 . S
C220 H200 0.931 . S
C220 C219 1.332 . S
C220 C221 1.267 . S
C221 H189 0.929 . S
C221 C220 1.267 . S
C221 C222 1.251 . S
C222 H192 0.929 . S
C222 N218 1.418 . S
C222 C221 1.251 . S
C223 H190 0.930 . S
C223 C225 1.406 . S
C223 C228 1.261 . S
C224 H191 0.930 . S
C224 N226 1.325 . S
C224 C227 1.357 . S
C225 H193 0.928 . S
C225 C223 1.406 . S
C225 N226 1.261 . S
N226 Co177 2.214 . S
N226 C224 1.325 . S
N226 C225 1.261 . S
C227 H197 0.931 . S
C227 C224 1.357 . S
C227 C228 1.312 . S
C228 H199 0.930 . S
C228 C223 1.261 . S
C228 C227 1.312 . S
C229 O201 1.214 1_565 S
C229 O209 1.234 . S
C230 H202 0.929 . S
C230 C233 1.391 . S
C230 C235 1.391 . S
C231 H203 0.929 . S
C231 C232 1.390 . S
C231 N234 1.391 . S
C232 H204 0.930 . S
C232 C231 1.390 . S
C232 C233 1.392 . S
C233 H205 0.929 . S
C233 C230 1.391 . S
C233 C232 1.392 . S
N234 Co178 2.257 . S
N234 C231 1.391 . S
N234 C235 1.388 . S
C235 H206 0.930 . S
C235 C230 1.391 . S
C235 N234 1.388 . S
Co236 O238 2.143 . S
Co236 O244 2.074 . S
Co236 O247 2.093 . S
Co236 O260 2.097 . S
Co236 N277 2.151 . S
Co236 N285 2.214 . S
Co237 O238 2.160 . S
Co237 O243 2.058 . S
Co237 O253 2.057 . S
Co237 O268 2.037 . S
Co237 N272 2.145 . S
Co237 N293 2.257 . S
O238 Co236 2.143 . S
O238 Co237 2.160 . S
C239 O240 1.278 . S
C239 O247 1.224 . S
O240 C239 1.278 . S
C241 O242 1.245 . S
C241 O253 1.232 . S
O242 C241 1.245 . S
O243 Co237 2.058 . S
O243 C269 1.269 . S
O244 Co236 2.074 . S
O244 C269 1.257 . S
H245 C270 0.930 . S
H246 C276 0.930 . S
O247 Co236 2.093 . S
O247 C239 1.224 . S
H248 C280 0.929 . S
H249 C282 0.930 . S
H250 C283 0.930 . S
H251 C281 0.929 . S
H252 C284 0.928 . S
O253 Co237 2.057 . S
O253 C241 1.232 . S
H254 C273 0.929 . S
H255 C274 0.929 . S
H256 C286 0.931 . S
H257 C278 0.929 . S
H258 C287 0.930 . S
H259 C279 0.931 . S
O260 Co236 2.097 . S
O260 C288 1.214 . S
H261 C289 0.929 . S
H262 C290 0.929 . S
H263 C291 0.930 . S
H264 C292 0.929 . S
H265 C294 0.930 . S
H266 C271 0.930 . S
H267 C275 0.930 . S
O268 Co237 2.037 . S
O268 C288 1.234 . S
C269 O243 1.269 . S
C269 O244 1.257 . S
C270 H245 0.930 . S
C270 C273 1.388 . S
C270 C275 1.418 . S
C271 H266 0.930 . S
C271 C274 1.404 . S
C271 C275 1.353 . S
N272 Co237 2.145 . S
N272 C273 1.397 . S
N272 C274 1.334 . S
C273 H254 0.929 . S
C273 C270 1.388 . S
C273 N272 1.397 . S
C274 H255 0.929 . S
C274 C271 1.404 . S
C274 N272 1.334 . S
C275 H267 0.930 . S
C275 C270 1.418 . S
C275 C271 1.353 . S
C276 H246 0.930 . S
C276 N277 1.330 . S
C276 C278 1.446 . S
N277 Co236 2.151 . S
N277 C276 1.330 . S
N277 C281 1.418 . S
C278 H257 0.929 . S
C278 C276 1.446 . S
C278 C279 1.332 . S
C279 H259 0.931 . S
C279 C278 1.332 . S
C279 C280 1.267 . S
C280 H248 0.929 . S
C280 C279 1.267 . S
C280 C281 1.251 . S
C281 H251 0.929 . S
C281 N277 1.418 . S
C281 C280 1.251 . S
C282 H249 0.930 . S
C282 C284 1.406 . S
C282 C287 1.261 . S
C283 H250 0.930 . S
C283 N285 1.325 . S
C283 C286 1.357 . S
C284 H252 0.928 . S
C284 C282 1.406 . S
C284 N285 1.261 . S
N285 Co236 2.214 . S
N285 C283 1.325 . S
N285 C284 1.261 . S
C286 H256 0.931 . S
C286 C283 1.357 . S
C286 C287 1.312 . S
C287 H258 0.930 . S
C287 C282 1.261 . S
C287 C286 1.312 . S
C288 O260 1.214 . S
C288 O268 1.234 . S
C289 H261 0.929 . S
C289 C292 1.391 . S
C289 C294 1.391 . S
C290 H262 0.929 . S
C290 C291 1.390 . S
C290 N293 1.391 . S
C291 H263 0.930 . S
C291 C290 1.390 . S
C291 C292 1.392 . S
C292 H264 0.929 . S
C292 C289 1.391 . S
C292 C291 1.392 . S
N293 Co237 2.257 . S
N293 C290 1.391 . S
N293 C294 1.388 . S
C294 H265 0.930 . S
C294 C289 1.391 . S
C294 N293 1.388 . S
Co295 O297 2.143 1_654 S
Co295 O303 2.074 . S
Co295 O306 2.093 . S
Co295 O319 2.097 . S
Co295 N336 2.151 1_554 S
Co295 N344 2.214 . S
Co296 O297 2.160 1_554 S
Co296 O302 2.058 1_454 S
Co296 O312 2.057 1_554 S
Co296 O327 2.037 . S
Co296 N331 2.145 . S
Co296 N352 2.257 . S
O297 Co295 2.143 1_456 S
O297 Co296 2.160 1_556 S
C298 O299 1.278 . S
C298 O306 1.224 1_456 S
O299 C298 1.278 . S
C300 O301 1.245 . S
C300 O312 1.232 . S
O301 C300 1.245 . S
O302 Co296 2.058 1_656 S
O302 C328 1.269 . S
O303 Co295 2.074 . S
O303 C328 1.257 1_554 S
H304 C329 0.930 . S
H305 C335 0.930 . S
O306 Co295 2.093 . S
O306 C298 1.224 1_654 S
H307 C339 0.929 . S
H308 C341 0.930 . S
H309 C342 0.930 . S
H310 C340 0.929 . S
H311 C343 0.928 . S
O312 Co296 2.057 1_556 S
O312 C300 1.232 . S
H313 C332 0.929 . S
H314 C333 0.929 1_556 S
H315 C345 0.931 . S
H316 C337 0.929 . S
H317 C346 0.930 . S
H318 C338 0.931 . S
O319 Co295 2.097 . S
O319 C347 1.214 1_655 S
H320 C348 0.929 1_556 S
H321 C349 0.929 . S
H322 C350 0.930 . S
H323 C351 0.929 . S
H324 C353 0.930 . S
H325 C330 0.930 1_556 S
H326 C334 0.930 . S
O327 Co296 2.037 . S
O327 C347 1.234 . S
C328 O302 1.269 . S
C328 O303 1.257 1_556 S
C329 H304 0.930 . S
C329 C332 1.388 . S
C329 C334 1.418 . S
C330 H325 0.930 1_554 S
C330 C333 1.404 . S
C330 C334 1.353 . S
N331 Co296 2.145 . S
N331 C332 1.397 . S
N331 C333 1.334 . S
C332 H313 0.929 . S
C332 C329 1.388 . S
C332 N331 1.397 . S
C333 H314 0.929 1_554 S
C333 C330 1.404 . S
C333 N331 1.334 . S
C334 H326 0.930 . S
C334 C329 1.418 . S
C334 C330 1.353 . S
C335 H305 0.930 . S
C335 N336 1.330 . S
C335 C337 1.446 . S
N336 Co295 2.151 1_556 S
N336 C335 1.330 . S
N336 C340 1.418 . S
C337 H316 0.929 . S
C337 C335 1.446 . S
C337 C338 1.332 . S
C338 H318 0.931 . S
C338 C337 1.332 . S
C338 C339 1.267 . S
C339 H307 0.929 . S
C339 C338 1.267 . S
C339 C340 1.251 . S
C340 H310 0.929 . S
C340 N336 1.418 . S
C340 C339 1.251 . S
C341 H308 0.930 . S
C341 C343 1.406 . S
C341 C346 1.261 . S
C342 H309 0.930 . S
C342 N344 1.325 . S
C342 C345 1.357 . S
C343 H311 0.928 . S
C343 C341 1.406 . S
C343 N344 1.261 . S
N344 Co295 2.214 . S
N344 C342 1.325 . S
N344 C343 1.261 . S
C345 H315 0.931 . S
C345 C342 1.357 . S
C345 C346 1.312 . S
C346 H317 0.930 . S
C346 C341 1.261 . S
C346 C345 1.312 . S
C347 O319 1.214 1_455 S
C347 O327 1.234 . S
C348 H320 0.929 1_554 S
C348 C351 1.391 . S
C348 C353 1.391 1_554 S
C349 H321 0.929 . S
C349 C350 1.390 . S
C349 N352 1.391 . S
C350 H322 0.930 . S
C350 C349 1.390 . S
C350 C351 1.392 . S
C351 H323 0.929 . S
C351 C348 1.391 . S
C351 C350 1.392 . S
N352 Co296 2.257 . S
N352 C349 1.391 . S
N352 C353 1.388 1_554 S
C353 H324 0.930 . S
C353 C348 1.391 1_556 S
C353 N352 1.388 1_556 S
Co354 O356 2.143 1_455 S
Co354 O362 2.074 . S
Co354 O365 2.093 . S
Co354 O378 2.097 . S
Co354 N395 2.151 . S
Co354 N403 2.214 . S
Co355 O356 2.160 . S
Co355 O361 2.058 1_655 S
Co355 O371 2.057 . S
Co355 O386 2.037 . S
Co355 N390 2.145 . S
Co355 N411 2.257 . S
O356 Co354 2.143 1_655 S
O356 Co355 2.160 . S
C357 O358 1.278 . S
C357 O365 1.224 1_655 S
O358 C357 1.278 . S
C359 O360 1.245 . S
C359 O371 1.232 . S
O360 C359 1.245 . S
O361 Co355 2.058 1_455 S
O361 C387 1.269 . S
O362 Co354 2.074 . S
O362 C387 1.257 . S
H363 C388 0.930 . S
H364 C394 0.930 . S
O365 Co354 2.093 . S
O365 C357 1.224 1_455 S
H366 C398 0.929 . S
H367 C400 0.930 . S
H368 C401 0.930 . S
H369 C399 0.929 . S
H370 C402 0.928 . S
O371 Co355 2.057 . S
O371 C359 1.232 . S
H372 C391 0.929 . S
H373 C392 0.929 . S
H374 C404 0.931 . S
H375 C396 0.929 . S
H376 C405 0.930 . S
H377 C397 0.931 . S
O378 Co354 2.097 . S
O378 C406 1.214 1_455 S
H379 C407 0.929 . S
H380 C408 0.929 . S
H381 C409 0.930 . S
H382 C410 0.929 . S
H383 C412 0.930 . S
H384 C389 0.930 . S
H385 C393 0.930 . S
O386 Co355 2.037 . S
O386 C406 1.234 . S
C387 O361 1.269 . S
C387 O362 1.257 . S
C388 H363 0.930 . S
C388 C391 1.388 . S
C388 C393 1.418 . S
C389 H384 0.930 . S
C389 C392 1.404 . S
C389 C393 1.353 . S
N390 Co355 2.145 . S
N390 C391 1.397 . S
N390 C392 1.334 . S
C391 H372 0.929 . S
C391 C388 1.388 . S
C391 N390 1.397 . S
C392 H373 0.929 . S
C392 C389 1.404 . S
C392 N390 1.334 . S
C393 H385 0.930 . S
C393 C388 1.418 . S
C393 C389 1.353 . S
C394 H364 0.930 . S
C394 N395 1.330 . S
C394 C396 1.446 . S
N395 Co354 2.151 . S
N395 C394 1.330 . S
N395 C399 1.418 . S
C396 H375 0.929 . S
C396 C394 1.446 . S
C396 C397 1.332 . S
C397 H377 0.931 . S
C397 C396 1.332 . S
C397 C398 1.267 . S
C398 H366 0.929 . S
C398 C397 1.267 . S
C398 C399 1.251 . S
C399 H369 0.929 . S
C399 N395 1.418 . S
C399 C398 1.251 . S
C400 H367 0.930 . S
C400 C402 1.406 . S
C400 C405 1.261 . S
C401 H368 0.930 . S
C401 N403 1.325 . S
C401 C404 1.357 . S
C402 H370 0.928 . S
C402 C400 1.406 . S
C402 N403 1.261 . S
N403 Co354 2.214 . S
N403 C401 1.325 . S
N403 C402 1.261 . S
C404 H374 0.931 . S
C404 C401 1.357 . S
C404 C405 1.312 . S
C405 H376 0.930 . S
C405 C400 1.261 . S
C405 C404 1.312 . S
C406 O378 1.214 1_655 S
C406 O386 1.234 . S
C407 H379 0.929 . S
C407 C410 1.391 . S
C407 C412 1.391 . S
C408 H380 0.929 . S
C408 C409 1.390 . S
C408 N411 1.391 . S
C409 H381 0.930 . S
C409 C408 1.390 . S
C409 C410 1.392 . S
C410 H382 0.929 . S
C410 C407 1.391 . S
C410 C409 1.392 . S
N411 Co355 2.257 . S
N411 C408 1.391 . S
N411 C412 1.388 . S
C412 H383 0.930 . S
C412 C407 1.391 . S
C412 N411 1.388 . S
Co413 O415 2.143 1_545 S
Co413 O421 2.074 . S
Co413 O424 2.093 . S
Co413 O437 2.097 . S
Co413 N454 2.151 . S
Co413 N462 2.214 . S
Co414 O415 2.160 . S
Co414 O420 2.058 1_565 S
Co414 O430 2.057 . S
Co414 O445 2.037 . S
Co414 N449 2.145 . S
Co414 N470 2.257 . S
O415 Co413 2.143 1_565 S
O415 Co414 2.160 . S
C416 O417 1.278 . S
C416 O424 1.224 1_565 S
O417 C416 1.278 . S
C418 O419 1.245 . S
C418 O430 1.232 . S
O419 C418 1.245 . S
O420 Co414 2.058 1_545 S
O420 C446 1.269 . S
O421 Co413 2.074 . S
O421 C446 1.257 . S
H422 C447 0.930 . S
H423 C453 0.930 . S
O424 Co413 2.093 . S
O424 C416 1.224 1_545 S
H425 C457 0.929 . S
H426 C459 0.930 . S
H427 C460 0.930 . S
H428 C458 0.929 . S
H429 C461 0.928 . S
O430 Co414 2.057 . S
O430 C418 1.232 . S
H431 C450 0.929 . S
H432 C451 0.929 . S
H433 C463 0.931 . S
H434 C455 0.929 . S
H435 C464 0.930 . S
H436 C456 0.931 . S
O437 Co413 2.097 . S
O437 C465 1.214 1_545 S
H438 C466 0.929 . S
H439 C467 0.929 . S
H440 C468 0.930 . S
H441 C469 0.929 . S
H442 C471 0.930 . S
H443 C448 0.930 . S
H444 C452 0.930 . S
O445 Co414 2.037 . S
O445 C465 1.234 . S
C446 O420 1.269 . S
C446 O421 1.257 . S
C447 H422 0.930 . S
C447 C450 1.388 . S
C447 C452 1.418 . S
C448 H443 0.930 . S
C448 C451 1.404 . S
C448 C452 1.353 . S
N449 Co414 2.145 . S
N449 C450 1.397 . S
N449 C451 1.334 . S
C450 H431 0.929 . S
C450 C447 1.388 . S
C450 N449 1.397 . S
C451 H432 0.929 . S
C451 C448 1.404 . S
C451 N449 1.334 . S
C452 H444 0.930 . S
C452 C447 1.418 . S
C452 C448 1.353 . S
C453 H423 0.930 . S
C453 N454 1.330 . S
C453 C455 1.446 . S
N454 Co413 2.151 . S
N454 C453 1.330 . S
N454 C458 1.418 . S
C455 H434 0.929 . S
C455 C453 1.446 . S
C455 C456 1.332 . S
C456 H436 0.931 . S
C456 C455 1.332 . S
C456 C457 1.267 . S
C457 H425 0.929 . S
C457 C456 1.267 . S
C457 C458 1.251 . S
C458 H428 0.929 . S
C458 N454 1.418 . S
C458 C457 1.251 . S
C459 H426 0.930 . S
C459 C461 1.406 . S
C459 C464 1.261 . S
C460 H427 0.930 . S
C460 N462 1.325 . S
C460 C463 1.357 . S
C461 H429 0.928 . S
C461 C459 1.406 . S
C461 N462 1.261 . S
N462 Co413 2.214 . S
N462 C460 1.325 . S
N462 C461 1.261 . S
C463 H433 0.931 . S
C463 C460 1.357 . S
C463 C464 1.312 . S
C464 H435 0.930 . S
C464 C459 1.261 . S
C464 C463 1.312 . S
C465 O437 1.214 1_565 S
C465 O445 1.234 . S
C466 H438 0.929 . S
C466 C469 1.391 . S
C466 C471 1.391 . S
C467 H439 0.929 . S
C467 C468 1.390 . S
C467 N470 1.391 . S
C468 H440 0.930 . S
C468 C467 1.390 . S
C468 C469 1.392 . S
C469 H441 0.929 . S
C469 C466 1.391 . S
C469 C468 1.392 . S
N470 Co414 2.257 . S
N470 C467 1.391 . S
N470 C471 1.388 . S
C471 H442 0.930 . S
C471 C466 1.391 . S
C471 N470 1.388 . S
Co472 O474 2.134 1_556 S
Co472 O480 2.074 . S
Co472 O483 2.092 1_556 S
Co472 O496 2.116 . S
Co472 N513 2.133 1_556 S
Co472 N521 2.223 . S
Co473 O474 2.160 . S
Co473 O479 2.058 . S
Co473 O489 2.057 . S
Co473 O504 2.037 1_554 S
Co473 N508 2.145 1_554 S
Co473 N529 2.257 1_554 S
O474 Co472 2.134 1_554 S
O474 Co473 2.160 . S
C475 O476 1.278 . S
C475 O483 1.224 . S
O476 C475 1.278 . S
C477 O478 1.245 . S
C477 O489 1.232 . S
O478 C477 1.245 . S
O479 Co473 2.058 . S
O479 C505 1.269 . S
O480 Co472 2.074 . S
O480 C505 1.257 1_556 S
H481 C506 0.930 . S
H482 C512 0.930 . S
O483 Co472 2.092 1_554 S
O483 C475 1.224 . S
H484 C516 0.929 . S
H485 C518 0.930 . S
H486 C519 0.930 . S
H487 C517 0.929 . S
H488 C520 0.928 . S
O489 Co473 2.057 . S
O489 C477 1.232 . S
H490 C509 0.929 . S
H491 C510 0.929 . S
H492 C522 0.931 . S
H493 C514 0.929 . S
H494 C523 0.930 . S
H495 C515 0.931 . S
O496 Co472 2.116 . S
O496 C524 1.214 . S
H497 C525 0.917 1_554 S
H498 C526 0.929 . S
H499 C527 0.930 . S
H500 C528 0.929 . S
H501 C530 0.930 . S
H502 C507 0.930 1_554 S
H503 C511 0.930 . S
O504 Co473 2.037 1_556 S
O504 C524 1.234 . S
C505 O479 1.269 . S
C505 O480 1.257 1_554 S
C506 H481 0.930 . S
C506 C509 1.388 . S
C506 C511 1.418 . S
C507 H502 0.930 1_556 S
C507 C510 1.404 1_556 S
C507 C511 1.353 . S
N508 Co473 2.145 1_556 S
N508 C509 1.397 . S
N508 C510 1.334 1_556 S
C509 H490 0.929 . S
C509 C506 1.388 . S
C509 N508 1.397 . S
C510 H491 0.929 . S
C510 C507 1.404 1_554 S
C510 N508 1.334 1_554 S
C511 H503 0.930 . S
C511 C506 1.418 . S
C511 C507 1.353 . S
C512 H482 0.930 . S
C512 N513 1.330 . S
C512 C514 1.446 . S
N513 Co472 2.133 1_554 S
N513 C512 1.330 . S
N513 C517 1.418 . S
C514 H493 0.929 . S
C514 C512 1.446 . S
C514 C515 1.332 . S
C515 H495 0.931 . S
C515 C514 1.332 . S
C515 C516 1.267 . S
C516 H484 0.929 . S
C516 C515 1.267 . S
C516 C517 1.251 . S
C517 H487 0.929 . S
C517 N513 1.418 . S
C517 C516 1.251 . S
C518 H485 0.930 . S
C518 C520 1.406 . S
C518 C523 1.261 . S
C519 H486 0.930 . S
C519 N521 1.325 . S
C519 C522 1.357 . S
C520 H488 0.928 . S
C520 C518 1.406 . S
C520 N521 1.261 . S
N521 Co472 2.223 . S
N521 C519 1.325 . S
N521 C520 1.261 . S
C522 H492 0.931 . S
C522 C519 1.357 . S
C522 C523 1.312 . S
C523 H494 0.930 . S
C523 C518 1.261 . S
C523 C522 1.312 . S
C524 O496 1.214 . S
C524 O504 1.234 . S
C525 H497 0.917 1_556 S
C525 C528 1.409 . S
C525 C530 1.385 1_556 S
C526 H498 0.929 . S
C526 C527 1.390 . S
C526 N529 1.391 . S
C527 H499 0.930 . S
C527 C526 1.390 . S
C527 C528 1.392 . S
C528 H500 0.929 . S
C528 C525 1.409 . S
C528 C527 1.392 . S
N529 Co473 2.257 1_556 S
N529 C526 1.391 . S
N529 C530 1.388 1_556 S
C530 H501 0.930 . S
C530 C525 1.385 1_554 S
C530 N529 1.388 1_554 S
Co531 O533 2.143 1_655 S
Co531 O539 2.074 . S
Co531 O542 2.093 . S
Co531 O555 2.097 . S
Co531 N572 2.151 . S
Co531 N580 2.214 . S
Co532 O533 2.160 . S
Co532 O538 2.058 1_455 S
Co532 O548 2.057 . S
Co532 O563 2.037 . S
Co532 N567 2.145 . S
Co532 N588 2.257 . S
O533 Co531 2.143 1_455 S
O533 Co532 2.160 . S
C534 O535 1.278 . S
C534 O542 1.224 1_455 S
O535 C534 1.278 . S
C536 O537 1.245 . S
C536 O548 1.232 . S
O537 C536 1.245 . S
O538 Co532 2.058 1_655 S
O538 C564 1.269 . S
O539 Co531 2.074 . S
O539 C564 1.257 . S
H540 C565 0.930 . S
H541 C571 0.930 . S
O542 Co531 2.093 . S
O542 C534 1.224 1_655 S
H543 C575 0.929 . S
H544 C577 0.930 . S
H545 C578 0.930 . S
H546 C576 0.929 . S
H547 C579 0.928 . S
O548 Co532 2.057 . S
O548 C536 1.232 . S
H549 C568 0.929 . S
H550 C569 0.929 . S
H551 C581 0.931 . S
H552 C573 0.929 . S
H553 C582 0.930 . S
H554 C574 0.931 . S
O555 Co531 2.097 . S
O555 C583 1.214 1_655 S
H556 C584 0.929 . S
H557 C585 0.929 . S
H558 C586 0.930 . S
H559 C587 0.929 . S
H560 C589 0.930 . S
H561 C566 0.930 . S
H562 C570 0.930 . S
O563 Co532 2.037 . S
O563 C583 1.234 . S
C564 O538 1.269 . S
C564 O539 1.257 . S
C565 H540 0.930 . S
C565 C568 1.388 . S
C565 C570 1.418 . S
C566 H561 0.930 . S
C566 C569 1.404 . S
C566 C570 1.353 . S
N567 Co532 2.145 . S
N567 C568 1.397 . S
N567 C569 1.334 . S
C568 H549 0.929 . S
C568 C565 1.388 . S
C568 N567 1.397 . S
C569 H550 0.929 . S
C569 C566 1.404 . S
C569 N567 1.334 . S
C570 H562 0.930 . S
C570 C565 1.418 . S
C570 C566 1.353 . S
C571 H541 0.930 . S
C571 N572 1.330 . S
C571 C573 1.446 . S
N572 Co531 2.151 . S
N572 C571 1.330 . S
N572 C576 1.418 . S
C573 H552 0.929 . S
C573 C571 1.446 . S
C573 C574 1.332 . S
C574 H554 0.931 . S
C574 C573 1.332 . S
C574 C575 1.267 . S
C575 H543 0.929 . S
C575 C574 1.267 . S
C575 C576 1.251 . S
C576 H546 0.929 . S
C576 N572 1.418 . S
C576 C575 1.251 . S
C577 H544 0.930 . S
C577 C579 1.406 . S
C577 C582 1.261 . S
C578 H545 0.930 . S
C578 N580 1.325 . S
C578 C581 1.357 . S
C579 H547 0.928 . S
C579 C577 1.406 . S
C579 N580 1.261 . S
N580 Co531 2.214 . S
N580 C578 1.325 . S
N580 C579 1.261 . S
C581 H551 0.931 . S
C581 C578 1.357 . S
C581 C582 1.312 . S
C582 H553 0.930 . S
C582 C577 1.261 . S
C582 C581 1.312 . S
C583 O555 1.214 1_455 S
C583 O563 1.234 . S
C584 H556 0.929 . S
C584 C587 1.391 . S
C584 C589 1.391 . S
C585 H557 0.929 . S
C585 C586 1.390 . S
C585 N588 1.391 . S
C586 H558 0.930 . S
C586 C585 1.390 . S
C586 C587 1.392 . S
C587 H559 0.929 . S
C587 C584 1.391 . S
C587 C586 1.392 . S
N588 Co532 2.257 . S
N588 C585 1.391 . S
N588 C589 1.388 . S
C589 H560 0.930 . S
C589 C584 1.391 . S
C589 N588 1.388 . S
Co590 O592 2.143 1_565 S
Co590 O598 2.074 . S
Co590 O601 2.093 . S
Co590 O614 2.097 . S
Co590 N631 2.151 . S
Co590 N639 2.214 . S
Co591 O592 2.160 . S
Co591 O597 2.058 1_545 S
Co591 O607 2.057 . S
Co591 O622 2.037 . S
Co591 N626 2.145 . S
Co591 N647 2.257 . S
O592 Co590 2.143 1_545 S
O592 Co591 2.160 . S
C593 O594 1.278 . S
C593 O601 1.224 1_545 S
O594 C593 1.278 . S
C595 O596 1.245 . S
C595 O607 1.232 . S
O596 C595 1.245 . S
O597 Co591 2.058 1_565 S
O597 C623 1.269 . S
O598 Co590 2.074 . S
O598 C623 1.257 . S
H599 C624 0.930 . S
H600 C630 0.930 . S
O601 Co590 2.093 . S
O601 C593 1.224 1_565 S
H602 C634 0.929 . S
H603 C636 0.930 . S
H604 C637 0.930 . S
H605 C635 0.929 . S
H606 C638 0.928 . S
O607 Co591 2.057 . S
O607 C595 1.232 . S
H608 C627 0.929 . S
H609 C628 0.929 . S
H610 C640 0.931 . S
H611 C632 0.929 . S
H612 C641 0.930 . S
H613 C633 0.931 . S
O614 Co590 2.097 . S
O614 C642 1.214 1_565 S
H615 C643 0.929 . S
H616 C644 0.929 . S
H617 C645 0.930 . S
H618 C646 0.929 . S
H619 C648 0.930 . S
H620 C625 0.930 . S
H621 C629 0.930 . S
O622 Co591 2.037 . S
O622 C642 1.234 . S
C623 O597 1.269 . S
C623 O598 1.257 . S
C624 H599 0.930 . S
C624 C627 1.388 . S
C624 C629 1.418 . S
C625 H620 0.930 . S
C625 C628 1.404 . S
C625 C629 1.353 . S
N626 Co591 2.145 . S
N626 C627 1.397 . S
N626 C628 1.334 . S
C627 H608 0.929 . S
C627 C624 1.388 . S
C627 N626 1.397 . S
C628 H609 0.929 . S
C628 C625 1.404 . S
C628 N626 1.334 . S
C629 H621 0.930 . S
C629 C624 1.418 . S
C629 C625 1.353 . S
C630 H600 0.930 . S
C630 N631 1.330 . S
C630 C632 1.446 . S
N631 Co590 2.151 . S
N631 C630 1.330 . S
N631 C635 1.418 . S
C632 H611 0.929 . S
C632 C630 1.446 . S
C632 C633 1.332 . S
C633 H613 0.931 . S
C633 C632 1.332 . S
C633 C634 1.267 . S
C634 H602 0.929 . S
C634 C633 1.267 . S
C634 C635 1.251 . S
C635 H605 0.929 . S
C635 N631 1.418 . S
C635 C634 1.251 . S
C636 H603 0.930 . S
C636 C638 1.406 . S
C636 C641 1.261 . S
C637 H604 0.930 . S
C637 N639 1.325 . S
C637 C640 1.357 . S
C638 H606 0.928 . S
C638 C636 1.406 . S
C638 N639 1.261 . S
N639 Co590 2.214 . S
N639 C637 1.325 . S
N639 C638 1.261 . S
C640 H610 0.931 . S
C640 C637 1.357 . S
C640 C641 1.312 . S
C641 H612 0.930 . S
C641 C636 1.261 . S
C641 C640 1.312 . S
C642 O614 1.214 1_545 S
C642 O622 1.234 . S
C643 H615 0.929 . S
C643 C646 1.391 . S
C643 C648 1.391 . S
C644 H616 0.929 . S
C644 C645 1.390 . S
C644 N647 1.391 . S
C645 H617 0.930 . S
C645 C644 1.390 . S
C645 C646 1.392 . S
C646 H618 0.929 . S
C646 C643 1.391 . S
C646 C645 1.392 . S
N647 Co591 2.257 . S
N647 C644 1.391 . S
N647 C648 1.388 . S
C648 H619 0.930 . S
C648 C643 1.391 . S
C648 N647 1.388 . S
Co649 O651 2.134 1_556 S
Co649 O657 2.074 . S
Co649 O660 2.092 1_556 S
Co649 O673 2.116 . S
Co649 N690 2.133 1_556 S
Co649 N698 2.223 . S
Co650 O651 2.160 . S
Co650 O656 2.058 . S
Co650 O666 2.057 . S
Co650 O681 2.037 1_554 S
Co650 N685 2.145 1_554 S
Co650 N706 2.257 1_554 S
O651 Co649 2.134 1_554 S
O651 Co650 2.160 . S
C652 O653 1.278 . S
C652 O660 1.224 . S
O653 C652 1.278 . S
C654 O655 1.245 . S
C654 O666 1.232 . S
O655 C654 1.245 . S
O656 Co650 2.058 . S
O656 C682 1.269 . S
O657 Co649 2.074 . S
O657 C682 1.257 1_556 S
H658 C683 0.930 . S
H659 C689 0.930 . S
O660 Co649 2.092 1_554 S
O660 C652 1.224 . S
H661 C693 0.929 . S
H662 C695 0.930 . S
H663 C696 0.930 . S
H664 C694 0.929 . S
H665 C697 0.928 . S
O666 Co650 2.057 . S
O666 C654 1.232 . S
H667 C686 0.929 . S
H668 C687 0.929 . S
H669 C699 0.931 . S
H670 C691 0.929 . S
H671 C700 0.930 . S
H672 C692 0.931 . S
O673 Co649 2.116 . S
O673 C701 1.214 . S
H674 C702 0.917 1_554 S
H675 C703 0.929 . S
H676 C704 0.930 . S
H677 C705 0.929 . S
H678 C707 0.930 . S
H679 C684 0.930 1_554 S
H680 C688 0.930 . S
O681 Co650 2.037 1_556 S
O681 C701 1.234 . S
C682 O656 1.269 . S
C682 O657 1.257 1_554 S
C683 H658 0.930 . S
C683 C686 1.388 . S
C683 C688 1.418 . S
C684 H679 0.930 1_556 S
C684 C687 1.404 1_556 S
C684 C688 1.353 . S
N685 Co650 2.145 1_556 S
N685 C686 1.397 . S
N685 C687 1.334 1_556 S
C686 H667 0.929 . S
C686 C683 1.388 . S
C686 N685 1.397 . S
C687 H668 0.929 . S
C687 C684 1.404 1_554 S
C687 N685 1.334 1_554 S
C688 H680 0.930 . S
C688 C683 1.418 . S
C688 C684 1.353 . S
C689 H659 0.930 . S
C689 N690 1.330 . S
C689 C691 1.446 . S
N690 Co649 2.133 1_554 S
N690 C689 1.330 . S
N690 C694 1.418 . S
C691 H670 0.929 . S
C691 C689 1.446 . S
C691 C692 1.332 . S
C692 H672 0.931 . S
C692 C691 1.332 . S
C692 C693 1.267 . S
C693 H661 0.929 . S
C693 C692 1.267 . S
C693 C694 1.251 . S
C694 H664 0.929 . S
C694 N690 1.418 . S
C694 C693 1.251 . S
C695 H662 0.930 . S
C695 C697 1.406 . S
C695 C700 1.261 . S
C696 H663 0.930 . S
C696 N698 1.325 . S
C696 C699 1.357 . S
C697 H665 0.928 . S
C697 C695 1.406 . S
C697 N698 1.261 . S
N698 Co649 2.223 . S
N698 C696 1.325 . S
N698 C697 1.261 . S
C699 H669 0.931 . S
C699 C696 1.357 . S
C699 C700 1.312 . S
C700 H671 0.930 . S
C700 C695 1.261 . S
C700 C699 1.312 . S
C701 O673 1.214 . S
C701 O681 1.234 . S
C702 H674 0.917 1_556 S
C702 C705 1.409 . S
C702 C707 1.385 1_556 S
C703 H675 0.929 . S
C703 C704 1.390 . S
C703 N706 1.391 . S
C704 H676 0.930 . S
C704 C703 1.390 . S
C704 C705 1.392 . S
C705 H677 0.929 . S
C705 C702 1.409 . S
C705 C704 1.392 . S
N706 Co650 2.257 1_556 S
N706 C703 1.391 . S
N706 C707 1.388 1_556 S
C707 H678 0.930 . S
C707 C702 1.385 1_554 S
C707 N706 1.388 1_554 S
C708 C709 1.369 . S
C708 C710 1.419 . S
C708 H712 0.930 . S
C709 C708 1.369 . S
C709 C718 1.429 . S
C710 C708 1.419 . S
C710 C711 1.363 . S
C710 H713 0.929 . S
C711 C710 1.363 . S
C711 C717 1.428 . S
H712 C708 0.930 . S
H713 C710 0.929 . S
S714 N715 1.613 . S
S714 N716 1.610 . S
N715 S714 1.613 . S
N715 C718 1.350 . S
N716 S714 1.610 . S
N716 C717 1.351 . S
C717 C711 1.428 . S
C717 N716 1.351 . S
C717 C718 1.434 . S
C718 C709 1.429 . S
C718 N715 1.350 . S
C718 C717 1.434 . S
C719 C720 1.369 . S
C719 C721 1.419 . S
C719 H723 0.930 . S
C720 C719 1.369 . S
C720 C729 1.429 . S
C721 C719 1.419 . S
C721 C722 1.363 . S
C721 H724 0.929 . S
C722 C721 1.363 . S
C722 C728 1.428 . S
H723 C719 0.930 . S
H724 C721 0.929 . S
S725 N726 1.613 . S
S725 N727 1.610 . S
N726 S725 1.613 . S
N726 C729 1.350 . S
N727 S725 1.610 . S
N727 C728 1.351 . S
C728 C722 1.428 . S
C728 N727 1.351 . S
C728 C729 1.434 . S
C729 C720 1.429 . S
C729 N726 1.350 . S
C729 C728 1.434 . S
C730 C731 1.369 . S
C730 C732 1.419 . S
C730 H734 0.930 . S
C731 C730 1.369 . S
C731 C740 1.429 . S
C732 C730 1.419 . S
C732 C733 1.363 . S
C732 H735 0.929 . S
C733 C732 1.363 . S
C733 C739 1.428 . S
H734 C730 0.930 . S
H735 C732 0.929 . S
S736 N737 1.613 . S
S736 N738 1.610 . S
N737 S736 1.613 . S
N737 C740 1.350 . S
N738 S736 1.610 . S
N738 C739 1.351 . S
C739 C733 1.428 . S
C739 N738 1.351 . S
C739 C740 1.434 . S
C740 C731 1.429 . S
C740 N737 1.350 . S
C740 C739 1.434 . S
C741 C742 1.369 . S
C741 C743 1.419 . S
C741 H745 0.930 . S
C742 C741 1.369 . S
C742 C751 1.429 . S
C743 C741 1.419 . S
C743 C744 1.363 . S
C743 H746 0.929 . S
C744 C743 1.363 . S
C744 C750 1.428 . S
H745 C741 0.930 . S
H746 C743 0.929 . S
S747 N748 1.613 . S
S747 N749 1.610 . S
N748 S747 1.613 . S
N748 C751 1.350 . S
N749 S747 1.610 . S
N749 C750 1.351 . S
C750 C744 1.428 . S
C750 N749 1.351 . S
C750 C751 1.434 . S
C751 C742 1.429 . S
C751 N748 1.350 . S
C751 C750 1.434 . S
C752 C753 1.369 . S
C752 C754 1.419 . S
C752 H756 0.930 . S
C753 C752 1.369 . S
C753 C762 1.429 . S
C754 C752 1.419 . S
C754 C755 1.363 . S
C754 H757 0.929 . S
C755 C754 1.363 . S
C755 C761 1.428 . S
H756 C752 0.930 . S
H757 C754 0.929 . S
S758 N759 1.613 . S
S758 N760 1.610 . S
N759 S758 1.613 . S
N759 C762 1.350 . S
N760 S758 1.610 . S
N760 C761 1.351 . S
C761 C755 1.428 . S
C761 N760 1.351 . S
C761 C762 1.434 . S
C762 C753 1.429 . S
C762 N759 1.350 . S
C762 C761 1.434 . S
C763 C764 1.369 . S
C763 C765 1.419 . S
C763 H767 0.930 . S
C764 C763 1.369 . S
C764 C773 1.429 . S
C765 C763 1.419 . S
C765 C766 1.363 . S
C765 H768 0.929 . S
C766 C765 1.363 . S
C766 C772 1.428 . S
H767 C763 0.930 . S
H768 C765 0.929 . S
S769 N770 1.613 . S
S769 N771 1.610 . S
N770 S769 1.613 . S
N770 C773 1.350 . S
N771 S769 1.610 . S
N771 C772 1.351 . S
C772 C766 1.428 . S
C772 N771 1.351 . S
C772 C773 1.434 . S
C773 C764 1.429 . S
C773 N770 1.350 . S
C773 C772 1.434 . S
C774 C775 1.369 . S
C774 C776 1.419 . S
C774 H778 0.930 . S
C775 C774 1.369 . S
C775 C784 1.429 1_545 S
C776 C774 1.419 . S
C776 C777 1.363 1_545 S
C776 H779 0.929 . S
C777 C776 1.363 1_565 S
C777 C783 1.428 . S
H778 C774 0.930 . S
H779 C776 0.929 . S
S780 N781 1.613 . S
S780 N782 1.610 . S
N781 S780 1.613 . S
N781 C784 1.350 . S
N782 S780 1.610 . S
N782 C783 1.351 . S
C783 C777 1.428 . S
C783 N782 1.351 . S
C783 C784 1.434 . S
C784 C775 1.429 1_565 S
C784 N781 1.350 . S
C784 C783 1.434 . S
C785 C786 1.369 . S
C785 C787 1.419 . S
C785 H789 0.930 . S
C786 C785 1.369 . S
C786 C795 1.429 . S
C787 C785 1.419 . S
C787 C788 1.363 . S
C787 H790 0.929 . S
C788 C787 1.363 . S
C788 C794 1.428 . S
H789 C785 0.930 . S
H790 C787 0.929 . S
S791 N792 1.613 . S
S791 N793 1.610 . S
N792 S791 1.613 . S
N792 C795 1.350 . S
N793 S791 1.610 . S
N793 C794 1.351 . S
C794 C788 1.428 . S
C794 N793 1.351 . S
C794 C795 1.434 . S
C795 C786 1.429 . S
C795 N792 1.350 . S
C795 C794 1.434 . S
C796 C797 1.369 . S
C796 C798 1.419 . S
C796 H800 0.930 . S
C797 C796 1.369 . S
C797 C806 1.429 1_456 S
C798 C796 1.419 . S
C798 C799 1.363 1_455 S
C798 H801 0.929 . S
C799 C798 1.363 1_655 S
C799 C805 1.428 1_556 S
H800 C796 0.930 . S
H801 C798 0.929 . S
S802 N803 1.613 . S
S802 N804 1.610 . S
N803 S802 1.613 . S
N803 C806 1.350 . S
N804 S802 1.610 . S
N804 C805 1.351 . S
C805 C799 1.428 1_554 S
C805 N804 1.351 . S
C805 C806 1.434 . S
C806 C797 1.429 1_654 S
C806 N803 1.350 . S
C806 C805 1.434 . S
C807 C808 1.369 . S
C807 C809 1.419 . S
C807 H811 0.930 . S
C808 C807 1.369 . S
C808 C817 1.429 1_655 S
C809 C807 1.419 . S
C809 C810 1.363 1_655 S
C809 H812 0.929 . S
C810 C809 1.363 1_455 S
C810 C816 1.428 . S
H811 C807 0.930 . S
H812 C809 0.929 . S
S813 N814 1.613 . S
S813 N815 1.610 . S
N814 S813 1.613 . S
N814 C817 1.350 . S
N815 S813 1.610 . S
N815 C816 1.351 . S
C816 C810 1.428 . S
C816 N815 1.351 . S
C816 C817 1.434 . S
C817 C808 1.429 1_455 S
C817 N814 1.350 . S
C817 C816 1.434 . S
C818 C819 1.369 . S
C818 C820 1.419 . S
C818 H822 0.930 . S
C819 C818 1.369 . S
C819 C828 1.429 1_545 S
C820 C818 1.419 . S
C820 C821 1.363 1_545 S
C820 H823 0.929 . S
C821 C820 1.363 1_565 S
C821 C827 1.428 . S
H822 C818 0.930 . S
H823 C820 0.929 . S
S824 N825 1.613 . S
S824 N826 1.610 . S
N825 S824 1.613 . S
N825 C828 1.350 . S
N826 S824 1.610 . S
N826 C827 1.351 . S
C827 C821 1.428 . S
C827 N826 1.351 . S
C827 C828 1.434 . S
C828 C819 1.429 1_565 S
C828 N825 1.350 . S
C828 C827 1.434 . S
C829 C830 1.369 . S
C829 C831 1.419 . S
C829 H833 0.930 . S
C830 C829 1.369 . S
C830 C839 1.429 1_554 S
C831 C829 1.419 . S
C831 C832 1.363 . S
C831 H834 0.929 . S
C832 C831 1.363 . S
C832 C838 1.428 1_554 S
H833 C829 0.930 . S
H834 C831 0.929 . S
S835 N836 1.613 . S
S835 N837 1.610 . S
N836 S835 1.613 . S
N836 C839 1.350 . S
N837 S835 1.610 . S
N837 C838 1.351 . S
C838 C832 1.428 1_556 S
C838 N837 1.351 . S
C838 C839 1.434 . S
C839 C830 1.429 1_556 S
C839 N836 1.350 . S
C839 C838 1.434 . S
C840 C841 1.369 . S
C840 C842 1.419 . S
C840 H844 0.930 . S
C841 C840 1.369 . S
C841 C850 1.429 . S
C842 C840 1.419 . S
C842 C843 1.363 . S
C842 H845 0.929 . S
C843 C842 1.363 . S
C843 C849 1.428 . S
H844 C840 0.930 . S
H845 C842 0.929 . S
S846 N847 1.613 . S
S846 N848 1.610 . S
N847 S846 1.613 . S
N847 C850 1.350 . S
N848 S846 1.610 . S
N848 C849 1.351 . S
C849 C843 1.428 . S
C849 N848 1.351 . S
C849 C850 1.434 . S
C850 C841 1.429 . S
C850 N847 1.350 . S
C850 C849 1.434 . S
C851 C852 1.369 . S
C851 C853 1.419 . S
C851 H855 0.930 . S
C852 C851 1.369 . S
C852 C861 1.429 . S
C853 C851 1.419 . S
C853 C854 1.363 . S
C853 H856 0.929 . S
C854 C853 1.363 . S
C854 C860 1.428 . S
H855 C851 0.930 . S
H856 C853 0.929 . S
S857 N858 1.613 . S
S857 N859 1.610 . S
N858 S857 1.613 . S
N858 C861 1.350 . S
N859 S857 1.610 . S
N859 C860 1.351 . S
C860 C854 1.428 . S
C860 N859 1.351 . S
C860 C861 1.434 . S
C861 C852 1.429 . S
C861 N858 1.350 . S
C861 C860 1.434 . S
C862 C863 1.369 . S
C862 C864 1.419 . S
C862 H866 0.930 . S
C863 C862 1.369 . S
C863 C872 1.429 1_554 S
C864 C862 1.419 . S
C864 C865 1.363 1_554 S
C864 H867 0.929 . S
C865 C864 1.363 1_556 S
C865 C871 1.428 . S
H866 C862 0.930 . S
H867 C864 0.929 . S
S868 N869 1.613 . S
S868 N870 1.610 . S
N869 S868 1.613 . S
N869 C872 1.350 . S
N870 S868 1.610 . S
N870 C871 1.351 . S
C871 C865 1.428 . S
C871 N870 1.351 . S
C871 C872 1.434 . S
C872 C863 1.429 1_556 S
C872 N869 1.350 . S
C872 C871 1.434 . S
C873 C874 1.369 . S
C873 C875 1.419 . S
C873 H877 0.930 . S
C874 C873 1.369 . S
C874 C883 1.429 . S
C875 C873 1.419 . S
C875 C876 1.363 . S
C875 H878 0.929 . S
C876 C875 1.363 . S
C876 C882 1.428 . S
H877 C873 0.930 . S
H878 C875 0.929 . S
S879 N880 1.613 . S
S879 N881 1.610 . S
N880 S879 1.613 . S
N880 C883 1.350 . S
N881 S879 1.610 . S
N881 C882 1.351 . S
C882 C876 1.428 . S
C882 N881 1.351 . S
C882 C883 1.434 . S
C883 C874 1.429 . S
C883 N880 1.350 . S
C883 C882 1.434 . S
C884 C885 1.369 . S
C884 C886 1.419 . S
C884 H888 0.930 . S
C885 C884 1.369 . S
C885 C894 1.429 . S
C886 C884 1.419 . S
C886 C887 1.363 . S
C886 H889 0.929 . S
C887 C886 1.363 . S
C887 C893 1.428 . S
H888 C884 0.930 . S
H889 C886 0.929 . S
S890 N891 1.613 . S
S890 N892 1.610 . S
N891 S890 1.613 . S
N891 C894 1.350 . S
N892 S890 1.610 . S
N892 C893 1.351 . S
C893 C887 1.428 . S
C893 N892 1.351 . S
C893 C894 1.434 . S
C894 C885 1.429 . S
C894 N891 1.350 . S
C894 C893 1.434 . S
C895 C896 1.369 . S
C895 C897 1.419 . S
C895 H899 0.930 . S
C896 C895 1.369 . S
C896 C905 1.422 1_554 S
C897 C895 1.419 . S
C897 C898 1.363 1_554 S
C897 H900 0.929 . S
C898 C897 1.363 1_556 S
C898 C904 1.428 . S
H899 C895 0.930 . S
H900 C897 0.929 . S
S901 N902 1.613 . S
S901 N903 1.610 . S
N902 S901 1.613 . S
N902 C905 1.352 . S
N903 S901 1.610 . S
N903 C904 1.351 . S
C904 C898 1.428 . S
C904 N903 1.351 . S
C904 C905 1.439 . S
C905 C896 1.422 1_556 S
C905 N902 1.352 . S
C905 C904 1.439 . S
C906 C907 1.369 1_565 S
C906 C908 1.419 . S
C906 H910 0.930 . S
C907 C906 1.369 1_545 S
C907 C916 1.429 . S
C908 C906 1.419 . S
C908 C909 1.363 . S
C908 H911 0.929 . S
C909 C908 1.363 . S
C909 C915 1.428 1_565 S
H910 C906 0.930 . S
H911 C908 0.929 . S
S912 N913 1.613 . S
S912 N914 1.610 . S
N913 S912 1.613 . S
N913 C916 1.350 . S
N914 S912 1.610 . S
N914 C915 1.351 . S
C915 C909 1.428 1_545 S
C915 N914 1.351 . S
C915 C916 1.434 . S
C916 C907 1.429 . S
C916 N913 1.350 . S
C916 C915 1.434 . S
C917 C918 1.369 . S
C917 C919 1.419 . S
C917 H921 0.930 . S
C918 C917 1.369 . S
C918 C927 1.429 . S
C919 C917 1.419 . S
C919 C920 1.363 . S
C919 H922 0.929 . S
C920 C919 1.363 . S
C920 C926 1.428 . S
H921 C917 0.930 . S
H922 C919 0.929 . S
S923 N924 1.613 . S
S923 N925 1.610 . S
N924 S923 1.613 . S
N924 C927 1.350 . S
N925 S923 1.610 . S
N925 C926 1.351 . S
C926 C920 1.428 . S
C926 N925 1.351 . S
C926 C927 1.434 . S
C927 C918 1.429 . S
C927 N924 1.350 . S
C927 C926 1.434 . S
C928 C929 1.369 1_655 S
C928 C930 1.419 . S
C928 H932 0.930 . S
C929 C928 1.369 1_455 S
C929 C938 1.429 . S
C930 C928 1.419 . S
C930 C931 1.363 . S
C930 H933 0.929 . S
C931 C930 1.363 . S
C931 C937 1.428 1_655 S
H932 C928 0.930 . S
H933 C930 0.929 . S
S934 N935 1.613 . S
S934 N936 1.610 . S
N935 S934 1.613 . S
N935 C938 1.350 . S
N936 S934 1.610 . S
N936 C937 1.351 . S
C937 C931 1.428 1_455 S
C937 N936 1.351 . S
C937 C938 1.434 . S
C938 C929 1.429 . S
C938 N935 1.350 . S
C938 C937 1.434 . S
C939 C940 1.369 1_545 S
C939 C941 1.419 . S
C939 H943 0.930 . S
C940 C939 1.369 1_565 S
C940 C949 1.429 . S
C941 C939 1.419 . S
C941 C942 1.363 . S
C941 H944 0.929 . S
C942 C941 1.363 . S
C942 C948 1.428 1_545 S
H943 C939 0.930 . S
H944 C941 0.929 . S
S945 N946 1.613 . S
S945 N947 1.610 . S
N946 S945 1.613 . S
N946 C949 1.350 . S
N947 S945 1.610 . S
N947 C948 1.351 . S
C948 C942 1.428 1_565 S
C948 N947 1.351 . S
C948 C949 1.434 . S
C949 C940 1.429 . S
C949 N946 1.350 . S
C949 C948 1.434 . S
C950 C951 1.369 . S
C950 C952 1.419 . S
C950 H954 0.930 . S
C951 C950 1.369 . S
C951 C960 1.429 . S
C952 C950 1.419 . S
C952 C953 1.363 . S
C952 H955 0.929 . S
C953 C952 1.363 . S
C953 C959 1.428 . S
H954 C950 0.930 . S
H955 C952 0.929 . S
S956 N957 1.613 . S
S956 N958 1.610 . S
N957 S956 1.613 . S
N957 C960 1.350 . S
N958 S956 1.610 . S
N958 C959 1.351 . S
C959 C953 1.428 . S
C959 N958 1.351 . S
C959 C960 1.434 . S
C960 C951 1.429 . S
C960 N957 1.350 . S
C960 C959 1.434 . S
C961 C962 1.369 . S
C961 C963 1.419 . S
C961 H965 0.930 . S
C962 C961 1.369 . S
C962 C971 1.429 1_655 S
C963 C961 1.419 . S
C963 C964 1.363 1_655 S
C963 H966 0.929 . S
C964 C963 1.363 1_455 S
C964 C970 1.428 . S
H965 C961 0.930 . S
H966 C963 0.929 . S
S967 N968 1.613 . S
S967 N969 1.610 . S
N968 S967 1.613 . S
N968 C971 1.350 . S
N969 S967 1.610 . S
N969 C970 1.351 . S
C970 C964 1.428 . S
C970 N969 1.351 . S
C970 C971 1.434 . S
C971 C962 1.429 1_455 S
C971 N968 1.350 . S
C971 C970 1.434 . S
C709 C5 1.624 . S
C711 C477 1.624 . S
C720 C64 1.624 . S
C722 C536 1.624 . S
C731 C595 1.624 . S
C733 C123 1.624 . S
C742 C654 1.623 . S
C744 C182 1.623 . S
C753 C359 1.624 . S
C755 C241 1.624 . S
C764 C418 1.623 . S
C766 C300 1.623 . S
C775 C3 1.757 . S
C777 C180 1.763 . S
C786 C239 1.759 . S
C788 C62 1.760 . S
C797 C298 1.759 . S
C799 C121 1.760 . S
C808 C357 1.757 . S
C810 C534 1.762 . S
C819 C593 1.759 . S
C821 C416 1.765 . S
C830 C475 1.762 . S
C832 C652 1.758 . S
C841 C387 1.269 . S
C843 C33 1.270 . S
C852 C92 1.273 . S
C854 C446 1.269 . S
C863 C505 1.268 . S
C865 C151 1.271 . S
C874 C564 1.274 . S
C876 C210 1.271 . S
C885 C269 1.269 . S
C887 C623 1.273 . S
C896 C682 1.269 . S
C898 C328 1.269 . S
C907 C52 1.302 . S
C909 C465 1.300 . S
C918 C524 1.301 . S
C920 C111 1.302 . S
C929 C583 1.302 . S
C931 C170 1.300 . S
C940 C229 1.302 . S
C942 C642 1.300 . S
C951 C701 1.299 . S
C953 C288 1.300 . S
C962 C406 1.299 . S
C964 C347 1.300 . S
