# Generated by pormake.
# Topology fno, (5)-cn, num edge types: 1
# Building blocks:
#     Node 0, Type 0, BuildingBlock: XOMCOT_clean_sbu_1, # of connection points: 5
#     Node 1, Type 0, BuildingBlock: XOMCOT_clean_sbu_1, # of connection points: 5
#     Node 2, Type 0, BuildingBlock: XOMCOT_clean_sbu_1, # of connection points: 5
#     Node 3, Type 0, BuildingBlock: XOMCOT_clean_sbu_1, # of connection points: 5
#     Node 4, Type 0, BuildingBlock: XOMCOT_clean_sbu_1, # of connection points: 5
#     Node 5, Type 0, BuildingBlock: XOMCOT_clean_sbu_1, # of connection points: 5
#     Node 6, Type 0, BuildingBlock: XOMCOT_clean_sbu_1, # of connection points: 5
#     Node 7, Type 0, BuildingBlock: XOMCOT_clean_sbu_1, # of connection points: 5
#     Node 8, Type 0, BuildingBlock: XOMCOT_clean_sbu_1, # of connection points: 5
#     Node 9, Type 0, BuildingBlock: XOMCOT_clean_sbu_1, # of connection points: 5
#     Node 10, Type 0, BuildingBlock: XOMCOT_clean_sbu_1, # of connection points: 5
#     Node 11, Type 0, BuildingBlock: XOMCOT_clean_sbu_1, # of connection points: 5
#     Node 12, Type 0, BuildingBlock: XOMCOT_clean_sbu_1, # of connection points: 5
#     Node 13, Type 0, BuildingBlock: XOMCOT_clean_sbu_1, # of connection points: 5
#     Node 14, Type 0, BuildingBlock: XOMCOT_clean_sbu_1, # of connection points: 5
#     Node 15, Type 0, BuildingBlock: XOMCOT_clean_sbu_1, # of connection points: 5
#     Node 16, Type 0, BuildingBlock: XOMCOT_clean_sbu_1, # of connection points: 5
#     Node 17, Type 0, BuildingBlock: XOMCOT_clean_sbu_1, # of connection points: 5
#     Node 18, Type 0, BuildingBlock: XOMCOT_clean_sbu_1, # of connection points: 5
#     Node 19, Type 0, BuildingBlock: XOMCOT_clean_sbu_1, # of connection points: 5
#     Node 20, Type 0, BuildingBlock: XOMCOT_clean_sbu_1, # of connection points: 5
#     Node 21, Type 0, BuildingBlock: XOMCOT_clean_sbu_1, # of connection points: 5
#     Node 22, Type 0, BuildingBlock: XOMCOT_clean_sbu_1, # of connection points: 5
#     Node 23, Type 0, BuildingBlock: XOMCOT_clean_sbu_1, # of connection points: 5
#     Node 24, Type 0, BuildingBlock: XOMCOT_clean_sbu_1, # of connection points: 5
#     Node 25, Type 0, BuildingBlock: XOMCOT_clean_sbu_1, # of connection points: 5
#     Node 26, Type 0, BuildingBlock: XOMCOT_clean_sbu_1, # of connection points: 5
#     Node 27, Type 0, BuildingBlock: XOMCOT_clean_sbu_1, # of connection points: 5
#     Node 28, Type 0, BuildingBlock: XOMCOT_clean_sbu_1, # of connection points: 5
#     Node 29, Type 0, BuildingBlock: XOMCOT_clean_sbu_1, # of connection points: 5
#     Node 30, Type 0, BuildingBlock: XOMCOT_clean_sbu_1, # of connection points: 5
#     Node 31, Type 0, BuildingBlock: XOMCOT_clean_sbu_1, # of connection points: 5
#     Node 32, Type 0, BuildingBlock: XOMCOT_clean_sbu_1, # of connection points: 5
#     Node 33, Type 0, BuildingBlock: XOMCOT_clean_sbu_1, # of connection points: 5
#     Node 34, Type 0, BuildingBlock: XOMCOT_clean_sbu_1, # of connection points: 5
#     Node 35, Type 0, BuildingBlock: XOMCOT_clean_sbu_1, # of connection points: 5
#     Node 36, Type 0, BuildingBlock: XOMCOT_clean_sbu_1, # of connection points: 5
#     Node 37, Type 0, BuildingBlock: XOMCOT_clean_sbu_1, # of connection points: 5
#     Node 38, Type 0, BuildingBlock: XOMCOT_clean_sbu_1, # of connection points: 5
#     Node 39, Type 0, BuildingBlock: XOMCOT_clean_sbu_1, # of connection points: 5
#     Node 40, Type 0, BuildingBlock: XOMCOT_clean_sbu_1, # of connection points: 5
#     Node 41, Type 0, BuildingBlock: XOMCOT_clean_sbu_1, # of connection points: 5
#     Node 42, Type 0, BuildingBlock: XOMCOT_clean_sbu_1, # of connection points: 5
#     Node 43, Type 0, BuildingBlock: XOMCOT_clean_sbu_1, # of connection points: 5
#     Node 44, Type 0, BuildingBlock: XOMCOT_clean_sbu_1, # of connection points: 5
#     Node 45, Type 0, BuildingBlock: XOMCOT_clean_sbu_1, # of connection points: 5
#     Node 46, Type 0, BuildingBlock: XOMCOT_clean_sbu_1, # of connection points: 5
#     Node 47, Type 0, BuildingBlock: XOMCOT_clean_sbu_1, # of connection points: 5
#     Edge 48, Type (0, 0), BuildingBlock: XIVTED_clean_linker_0, # of connection points: 2
#     Edge 49, Type (0, 0), BuildingBlock: XIVTED_clean_linker_0, # of connection points: 2
#     Edge 50, Type (0, 0), BuildingBlock: XIVTED_clean_linker_0, # of connection points: 2
#     Edge 51, Type (0, 0), BuildingBlock: XIVTED_clean_linker_0, # of connection points: 2
#     Edge 52, Type (0, 0), BuildingBlock: XIVTED_clean_linker_0, # of connection points: 2
#     Edge 53, Type (0, 0), BuildingBlock: XIVTED_clean_linker_0, # of connection points: 2
#     Edge 54, Type (0, 0), BuildingBlock: XIVTED_clean_linker_0, # of connection points: 2
#     Edge 55, Type (0, 0), BuildingBlock: XIVTED_clean_linker_0, # of connection points: 2
#     Edge 56, Type (0, 0), BuildingBlock: XIVTED_clean_linker_0, # of connection points: 2
#     Edge 57, Type (0, 0), BuildingBlock: XIVTED_clean_linker_0, # of connection points: 2
#     Edge 58, Type (0, 0), BuildingBlock: XIVTED_clean_linker_0, # of connection points: 2
#     Edge 59, Type (0, 0), BuildingBlock: XIVTED_clean_linker_0, # of connection points: 2
#     Edge 60, Type (0, 0), BuildingBlock: XIVTED_clean_linker_0, # of connection points: 2
#     Edge 61, Type (0, 0), BuildingBlock: XIVTED_clean_linker_0, # of connection points: 2
#     Edge 62, Type (0, 0), BuildingBlock: XIVTED_clean_linker_0, # of connection points: 2
#     Edge 63, Type (0, 0), BuildingBlock: XIVTED_clean_linker_0, # of connection points: 2
#     Edge 64, Type (0, 0), BuildingBlock: XIVTED_clean_linker_0, # of connection points: 2
#     Edge 65, Type (0, 0), BuildingBlock: XIVTED_clean_linker_0, # of connection points: 2
#     Edge 66, Type (0, 0), BuildingBlock: XIVTED_clean_linker_0, # of connection points: 2
#     Edge 67, Type (0, 0), BuildingBlock: XIVTED_clean_linker_0, # of connection points: 2
#     Edge 68, Type (0, 0), BuildingBlock: XIVTED_clean_linker_0, # of connection points: 2
#     Edge 69, Type (0, 0), BuildingBlock: XIVTED_clean_linker_0, # of connection points: 2
#     Edge 70, Type (0, 0), BuildingBlock: XIVTED_clean_linker_0, # of connection points: 2
#     Edge 71, Type (0, 0), BuildingBlock: XIVTED_clean_linker_0, # of connection points: 2
#     Edge 72, Type (0, 0), BuildingBlock: XIVTED_clean_linker_0, # of connection points: 2
#     Edge 73, Type (0, 0), BuildingBlock: XIVTED_clean_linker_0, # of connection points: 2
#     Edge 74, Type (0, 0), BuildingBlock: XIVTED_clean_linker_0, # of connection points: 2
#     Edge 75, Type (0, 0), BuildingBlock: XIVTED_clean_linker_0, # of connection points: 2
#     Edge 76, Type (0, 0), BuildingBlock: XIVTED_clean_linker_0, # of connection points: 2
#     Edge 77, Type (0, 0), BuildingBlock: XIVTED_clean_linker_0, # of connection points: 2
#     Edge 78, Type (0, 0), BuildingBlock: XIVTED_clean_linker_0, # of connection points: 2
#     Edge 79, Type (0, 0), BuildingBlock: XIVTED_clean_linker_0, # of connection points: 2
#     Edge 80, Type (0, 0), BuildingBlock: XIVTED_clean_linker_0, # of connection points: 2
#     Edge 81, Type (0, 0), BuildingBlock: XIVTED_clean_linker_0, # of connection points: 2
#     Edge 82, Type (0, 0), BuildingBlock: XIVTED_clean_linker_0, # of connection points: 2
#     Edge 83, Type (0, 0), BuildingBlock: XIVTED_clean_linker_0, # of connection points: 2
#     Edge 84, Type (0, 0), BuildingBlock: XIVTED_clean_linker_0, # of connection points: 2
#     Edge 85, Type (0, 0), BuildingBlock: XIVTED_clean_linker_0, # of connection points: 2
#     Edge 86, Type (0, 0), BuildingBlock: XIVTED_clean_linker_0, # of connection points: 2
#     Edge 87, Type (0, 0), BuildingBlock: XIVTED_clean_linker_0, # of connection points: 2
#     Edge 88, Type (0, 0), BuildingBlock: XIVTED_clean_linker_0, # of connection points: 2
#     Edge 89, Type (0, 0), BuildingBlock: XIVTED_clean_linker_0, # of connection points: 2
#     Edge 90, Type (0, 0), BuildingBlock: XIVTED_clean_linker_0, # of connection points: 2
#     Edge 91, Type (0, 0), BuildingBlock: XIVTED_clean_linker_0, # of connection points: 2
#     Edge 92, Type (0, 0), BuildingBlock: XIVTED_clean_linker_0, # of connection points: 2
#     Edge 93, Type (0, 0), BuildingBlock: XIVTED_clean_linker_0, # of connection points: 2
#     Edge 94, Type (0, 0), BuildingBlock: XIVTED_clean_linker_0, # of connection points: 2
#     Edge 95, Type (0, 0), BuildingBlock: XIVTED_clean_linker_0, # of connection points: 2
#     Edge 96, Type (0, 0), BuildingBlock: XIVTED_clean_linker_0, # of connection points: 2
#     Edge 97, Type (0, 0), BuildingBlock: XIVTED_clean_linker_0, # of connection points: 2
#     Edge 98, Type (0, 0), BuildingBlock: XIVTED_clean_linker_0, # of connection points: 2
#     Edge 99, Type (0, 0), BuildingBlock: XIVTED_clean_linker_0, # of connection points: 2
#     Edge 100, Type (0, 0), BuildingBlock: XIVTED_clean_linker_0, # of connection points: 2
#     Edge 101, Type (0, 0), BuildingBlock: XIVTED_clean_linker_0, # of connection points: 2
#     Edge 102, Type (0, 0), BuildingBlock: XIVTED_clean_linker_0, # of connection points: 2
#     Edge 103, Type (0, 0), BuildingBlock: XIVTED_clean_linker_0, # of connection points: 2
#     Edge 104, Type (0, 0), BuildingBlock: XIVTED_clean_linker_0, # of connection points: 2
#     Edge 105, Type (0, 0), BuildingBlock: XIVTED_clean_linker_0, # of connection points: 2
#     Edge 106, Type (0, 0), BuildingBlock: XIVTED_clean_linker_0, # of connection points: 2
#     Edge 107, Type (0, 0), BuildingBlock: XIVTED_clean_linker_0, # of connection points: 2
#     Edge 108, Type (0, 0), BuildingBlock: XIVTED_clean_linker_0, # of connection points: 2
#     Edge 109, Type (0, 0), BuildingBlock: XIVTED_clean_linker_0, # of connection points: 2
#     Edge 110, Type (0, 0), BuildingBlock: XIVTED_clean_linker_0, # of connection points: 2
#     Edge 111, Type (0, 0), BuildingBlock: XIVTED_clean_linker_0, # of connection points: 2
#     Edge 112, Type (0, 0), BuildingBlock: XIVTED_clean_linker_0, # of connection points: 2
#     Edge 113, Type (0, 0), BuildingBlock: XIVTED_clean_linker_0, # of connection points: 2
#     Edge 114, Type (0, 0), BuildingBlock: XIVTED_clean_linker_0, # of connection points: 2
#     Edge 115, Type (0, 0), BuildingBlock: XIVTED_clean_linker_0, # of connection points: 2
#     Edge 116, Type (0, 0), BuildingBlock: XIVTED_clean_linker_0, # of connection points: 2
#     Edge 117, Type (0, 0), BuildingBlock: XIVTED_clean_linker_0, # of connection points: 2
#     Edge 118, Type (0, 0), BuildingBlock: XIVTED_clean_linker_0, # of connection points: 2
#     Edge 119, Type (0, 0), BuildingBlock: XIVTED_clean_linker_0, # of connection points: 2
#     Edge 120, Type (0, 0), BuildingBlock: XIVTED_clean_linker_0, # of connection points: 2
#     Edge 121, Type (0, 0), BuildingBlock: XIVTED_clean_linker_0, # of connection points: 2
#     Edge 122, Type (0, 0), BuildingBlock: XIVTED_clean_linker_0, # of connection points: 2
#     Edge 123, Type (0, 0), BuildingBlock: XIVTED_clean_linker_0, # of connection points: 2
#     Edge 124, Type (0, 0), BuildingBlock: XIVTED_clean_linker_0, # of connection points: 2
#     Edge 125, Type (0, 0), BuildingBlock: XIVTED_clean_linker_0, # of connection points: 2
#     Edge 126, Type (0, 0), BuildingBlock: XIVTED_clean_linker_0, # of connection points: 2
#     Edge 127, Type (0, 0), BuildingBlock: XIVTED_clean_linker_0, # of connection points: 2
#     Edge 128, Type (0, 0), BuildingBlock: XIVTED_clean_linker_0, # of connection points: 2
#     Edge 129, Type (0, 0), BuildingBlock: XIVTED_clean_linker_0, # of connection points: 2
#     Edge 130, Type (0, 0), BuildingBlock: XIVTED_clean_linker_0, # of connection points: 2
#     Edge 131, Type (0, 0), BuildingBlock: XIVTED_clean_linker_0, # of connection points: 2
#     Edge 132, Type (0, 0), BuildingBlock: XIVTED_clean_linker_0, # of connection points: 2
#     Edge 133, Type (0, 0), BuildingBlock: XIVTED_clean_linker_0, # of connection points: 2
#     Edge 134, Type (0, 0), BuildingBlock: XIVTED_clean_linker_0, # of connection points: 2
#     Edge 135, Type (0, 0), BuildingBlock: XIVTED_clean_linker_0, # of connection points: 2
#     Edge 136, Type (0, 0), BuildingBlock: XIVTED_clean_linker_0, # of connection points: 2
#     Edge 137, Type (0, 0), BuildingBlock: XIVTED_clean_linker_0, # of connection points: 2
#     Edge 138, Type (0, 0), BuildingBlock: XIVTED_clean_linker_0, # of connection points: 2
#     Edge 139, Type (0, 0), BuildingBlock: XIVTED_clean_linker_0, # of connection points: 2
#     Edge 140, Type (0, 0), BuildingBlock: XIVTED_clean_linker_0, # of connection points: 2
#     Edge 141, Type (0, 0), BuildingBlock: XIVTED_clean_linker_0, # of connection points: 2
#     Edge 142, Type (0, 0), BuildingBlock: XIVTED_clean_linker_0, # of connection points: 2
#     Edge 143, Type (0, 0), BuildingBlock: XIVTED_clean_linker_0, # of connection points: 2
#     Edge 144, Type (0, 0), BuildingBlock: XIVTED_clean_linker_0, # of connection points: 2
#     Edge 145, Type (0, 0), BuildingBlock: XIVTED_clean_linker_0, # of connection points: 2
#     Edge 146, Type (0, 0), BuildingBlock: XIVTED_clean_linker_0, # of connection points: 2
#     Edge 147, Type (0, 0), BuildingBlock: XIVTED_clean_linker_0, # of connection points: 2
#     Edge 148, Type (0, 0), BuildingBlock: XIVTED_clean_linker_0, # of connection points: 2
#     Edge 149, Type (0, 0), BuildingBlock: XIVTED_clean_linker_0, # of connection points: 2
#     Edge 150, Type (0, 0), BuildingBlock: XIVTED_clean_linker_0, # of connection points: 2
#     Edge 151, Type (0, 0), BuildingBlock: XIVTED_clean_linker_0, # of connection points: 2
#     Edge 152, Type (0, 0), BuildingBlock: XIVTED_clean_linker_0, # of connection points: 2
#     Edge 153, Type (0, 0), BuildingBlock: XIVTED_clean_linker_0, # of connection points: 2
#     Edge 154, Type (0, 0), BuildingBlock: XIVTED_clean_linker_0, # of connection points: 2
#     Edge 155, Type (0, 0), BuildingBlock: XIVTED_clean_linker_0, # of connection points: 2
#     Edge 156, Type (0, 0), BuildingBlock: XIVTED_clean_linker_0, # of connection points: 2
#     Edge 157, Type (0, 0), BuildingBlock: XIVTED_clean_linker_0, # of connection points: 2
#     Edge 158, Type (0, 0), BuildingBlock: XIVTED_clean_linker_0, # of connection points: 2
#     Edge 159, Type (0, 0), BuildingBlock: XIVTED_clean_linker_0, # of connection points: 2
#     Edge 160, Type (0, 0), BuildingBlock: XIVTED_clean_linker_0, # of connection points: 2
#     Edge 161, Type (0, 0), BuildingBlock: XIVTED_clean_linker_0, # of connection points: 2
#     Edge 162, Type (0, 0), BuildingBlock: XIVTED_clean_linker_0, # of connection points: 2
#     Edge 163, Type (0, 0), BuildingBlock: XIVTED_clean_linker_0, # of connection points: 2
#     Edge 164, Type (0, 0), BuildingBlock: XIVTED_clean_linker_0, # of connection points: 2
#     Edge 165, Type (0, 0), BuildingBlock: XIVTED_clean_linker_0, # of connection points: 2
#     Edge 166, Type (0, 0), BuildingBlock: XIVTED_clean_linker_0, # of connection points: 2
#     Edge 167, Type (0, 0), BuildingBlock: XIVTED_clean_linker_0, # of connection points: 2
# Relax obj value: 0.380
# Max RMSD: 0.268
# Mean RMSD: 0.180
data_MOF--net-fno--node1-XOMCOT_clean_sbu_1--edge1-XIVTED_clean_linker_0
_symmetry_space_group_name_H-M    P1
_symmetry_Int_Tables_number       1
_symmetry_cell_setting            triclinic
loop_
_symmetry_equiv_pos_as_xyz
'x, y, z'
_cell_length_a     58.729673
_cell_length_b     57.800287
_cell_length_c     58.374125
_cell_angle_alpha  91.927799
_cell_angle_beta   90.909519
_cell_angle_gamma 94.113503
loop_
_atom_site_label
_atom_site_type_symbol
_atom_site_fract_x
_atom_site_fract_y
_atom_site_fract_z
_atom_type_partial_charge
C0 C 0.11489 0.32391 0.07468 0.0
C1 C 0.11917 0.32396 0.05161 0.0
N2 N 0.11422 0.34472 0.04382 0.0
N3 N 0.10759 0.34463 0.08126 0.0
C4 C 0.10685 0.35675 0.06204 0.0
H5 H 0.11835 0.3103 0.08625 0.0
Co6 Co 0.10439 0.35422 0.11118 0.0
C7 C 0.11359 0.40476 0.11371 0.0
O8 O 0.12493 0.40079 0.13261 0.0
N9 N 0.09993 0.36309 0.14191 0.0
C10 C 0.08215 0.3784 0.17153 0.0
C11 C 0.0836 0.3773 0.14817 0.0
C12 C 0.1076 0.35517 0.1619 0.0
N13 N 0.09721 0.3644 0.18009 0.0
O14 O 0.07205 0.34728 0.10824 0.0
H15 H 0.07299 0.38598 0.13636 0.0
H16 H 0.11943 0.34189 0.16336 0.0
O17 O 0.10274 0.38761 0.10261 0.0
C18 C 0.069 0.32718 0.11656 0.0
O19 O 0.08702 0.31679 0.12327 0.0
N20 N 0.13676 0.35844 0.11374 0.0
C21 C 0.1844 0.36198 0.11579 0.0
C22 C 0.17258 0.37523 0.10062 0.0
C23 C 0.14891 0.37278 0.09944 0.0
C24 C 0.14809 0.34372 0.12688 0.0
C25 C 0.17195 0.34575 0.12883 0.0
H26 H 0.1405 0.38246 0.08676 0.0
H27 H 0.13875 0.32974 0.13521 0.0
H28 H 0.10312 0.3748 0.06172 0.0
H29 H 0.12661 0.31038 0.04165 0.0
H30 H 0.07074 0.38855 0.18142 0.0
H31 H 0.1815 0.38763 0.08981 0.0
H32 H 0.18058 0.33436 0.1399 0.0
C33 C 0.93734 0.83782 0.31829 0.0
C34 C 0.9299 0.83973 0.29602 0.0
N35 N 0.90767 0.83217 0.29453 0.0
N36 N 0.91987 0.82932 0.33095 0.0
C37 C 0.90211 0.8256 0.31584 0.0
H38 H 0.95388 0.84416 0.32526 0.0
Co39 Co 0.9207 0.83117 0.36311 0.0
C40 C 0.87169 0.82718 0.37843 0.0
O41 O 0.87761 0.82953 0.40018 0.0
N42 N 0.92253 0.83343 0.39644 0.0
C43 C 0.92704 0.82315 0.43279 0.0
C44 C 0.92482 0.81537 0.41031 0.0
C45 C 0.92289 0.85205 0.41152 0.0
N46 N 0.92594 0.84629 0.43362 0.0
O47 O 0.92745 0.79888 0.36352 0.0
H48 H 0.92462 0.79735 0.40476 0.0
H49 H 0.92069 0.8696 0.40673 0.0
O50 O 0.88697 0.82406 0.36339 0.0
C51 C 0.94923 0.7991 0.36445 0.0
O52 O 0.96093 0.81936 0.36434 0.0
N53 N 0.91662 0.86271 0.36138 0.0
C54 C 0.9128 0.91002 0.35971 0.0
C55 C 0.89509 0.89445 0.35129 0.0
C56 C 0.89744 0.87085 0.35204 0.0
C57 C 0.93511 0.87759 0.36698 0.0
C58 C 0.9333 0.90154 0.36711 0.0
H59 H 0.88378 0.85933 0.34489 0.0
H60 H 0.95082 0.87078 0.37274 0.0
H61 H 0.88491 0.82039 0.32066 0.0
H62 H 0.93963 0.84758 0.28233 0.0
H63 H 0.92885 0.81243 0.44747 0.0
H64 H 0.87909 0.90039 0.34513 0.0
H65 H 0.94741 0.91323 0.37344 0.0
C66 C 0.44953 0.66172 0.668 0.0
C67 C 0.4484 0.66266 0.69154 0.0
N68 N 0.42938 0.67301 0.69766 0.0
N69 N 0.43105 0.67094 0.65919 0.0
C70 C 0.42018 0.67927 0.67759 0.0
H71 H 0.4615 0.65243 0.65798 0.0
Co72 Co 0.4204 0.66647 0.62874 0.0
C73 C 0.373 0.66051 0.65217 0.0
O74 O 0.37996 0.65084 0.67071 0.0
N75 N 0.40947 0.66253 0.59819 0.0
C76 C 0.38658 0.64985 0.56904 0.0
C77 C 0.38955 0.65041 0.59228 0.0
C78 C 0.41863 0.66869 0.57792 0.0
N79 N 0.40481 0.66129 0.56006 0.0
O80 O 0.42444 0.69938 0.62524 0.0
H81 H 0.37836 0.64131 0.60401 0.0
H82 H 0.43513 0.67796 0.57615 0.0
O83 O 0.38741 0.66772 0.6372 0.0
C84 C 0.44505 0.70228 0.61864 0.0
O85 O 0.4569 0.68391 0.61625 0.0
N86 N 0.41923 0.63358 0.63127 0.0
C87 C 0.41178 0.58558 0.6299 0.0
C88 C 0.40883 0.59842 0.65023 0.0
C89 C 0.4132 0.62231 0.65067 0.0
C90 C 0.42601 0.62086 0.6127 0.0
C91 C 0.42162 0.59683 0.61128 0.0
H92 H 0.41189 0.63139 0.66681 0.0
H93 H 0.43386 0.62932 0.5983 0.0
H94 H 0.40462 0.68802 0.67619 0.0
H95 H 0.45938 0.65388 0.70291 0.0
H96 H 0.37257 0.64084 0.55933 0.0
H97 H 0.40219 0.59032 0.66545 0.0
H98 H 0.4253 0.58728 0.59565 0.0
C99 C 0.59688 0.1779 0.91905 0.0
C100 C 0.59912 0.17491 0.94231 0.0
N101 N 0.59725 0.15198 0.9459 0.0
N102 N 0.59351 0.15695 0.90817 0.0
C103 C 0.59362 0.14159 0.92506 0.0
H104 H 0.59846 0.19426 0.91057 0.0
Co105 Co 0.59167 0.15138 0.87659 0.0
C106 C 0.59032 0.1 0.86891 0.0
O107 O 0.60211 0.10427 0.85041 0.0
N108 N 0.5892 0.14629 0.84412 0.0
C109 C 0.57374 0.13307 0.8106 0.0
C110 C 0.57025 0.13581 0.83372 0.0
C111 C 0.60367 0.15048 0.82656 0.0
N112 N 0.5948 0.14228 0.80617 0.0
O113 O 0.56004 0.15999 0.87661 0.0
H114 H 0.55508 0.12962 0.84257 0.0
H115 H 0.62072 0.15854 0.82834 0.0
O116 O 0.58348 0.11717 0.88102 0.0
C117 C 0.56165 0.18122 0.87082 0.0
O118 O 0.58221 0.19064 0.8669 0.0
N119 N 0.62309 0.14632 0.87706 0.0
C120 C 0.66976 0.14129 0.87346 0.0
C121 C 0.65587 0.12557 0.88581 0.0
C122 C 0.63265 0.12855 0.88767 0.0
C123 C 0.63692 0.16373 0.86845 0.0
C124 C 0.6602 0.16122 0.86563 0.0
H125 H 0.62256 0.11636 0.89753 0.0
H126 H 0.62956 0.17911 0.86244 0.0
H127 H 0.59172 0.12307 0.92228 0.0
H128 H 0.60301 0.18841 0.95538 0.0
H129 H 0.56182 0.12468 0.79805 0.0
H130 H 0.66274 0.11082 0.89372 0.0
H131 H 0.67023 0.17431 0.85659 0.0
C132 C 0.10405 0.67436 0.41638 0.0
C133 C 0.10841 0.67087 0.43919 0.0
N134 N 0.10326 0.64828 0.44321 0.0
N135 N 0.09626 0.65409 0.40602 0.0
C136 C 0.09556 0.63864 0.42291 0.0
H137 H 0.10759 0.69037 0.40761 0.0
Co138 Co 0.09291 0.64957 0.37435 0.0
C139 C 0.09314 0.59871 0.36495 0.0
O140 O 0.10427 0.60389 0.34625 0.0
N141 N 0.08911 0.64573 0.34183 0.0
C142 C 0.07299 0.63279 0.3085 0.0
C143 C 0.07043 0.63425 0.33186 0.0
C144 C 0.10233 0.65194 0.32379 0.0
N145 N 0.09302 0.64401 0.30349 0.0
O146 O 0.06117 0.65628 0.37636 0.0
H147 H 0.05625 0.6264 0.34114 0.0
H148 H 0.11888 0.66122 0.32511 0.0
O149 O 0.0862 0.61522 0.37784 0.0
C150 C 0.06095 0.67804 0.37325 0.0
O151 O 0.08039 0.68966 0.36897 0.0
N152 N 0.12438 0.6458 0.3732 0.0
C153 C 0.17096 0.64249 0.36842 0.0
C154 C 0.15798 0.626 0.38069 0.0
C155 C 0.13477 0.62827 0.38334 0.0
C156 C 0.13738 0.6639 0.36472 0.0
C157 C 0.16071 0.66231 0.36142 0.0
H158 H 0.12531 0.61575 0.39343 0.0
H159 H 0.12938 0.67921 0.3595 0.0
H160 H 0.09106 0.62036 0.42016 0.0
H161 H 0.11566 0.68376 0.45161 0.0
H162 H 0.0613 0.6237 0.29618 0.0
H163 H 0.1656 0.61123 0.38779 0.0
H164 H 0.17028 0.67593 0.35263 0.0
C165 C 0.61651 0.82824 0.57609 0.0
C166 C 0.62009 0.82967 0.55304 0.0
N167 N 0.61489 0.85089 0.54672 0.0
N168 N 0.6091 0.84843 0.58408 0.0
C169 C 0.60804 0.86186 0.56581 0.0
H170 H 0.62 0.81381 0.5866 0.0
Co171 Co 0.60427 0.85435 0.61428 0.0
C172 C 0.60805 0.90486 0.62284 0.0
O173 O 0.61799 0.89997 0.64223 0.0
N174 N 0.59835 0.85896 0.64525 0.0
C175 C 0.57901 0.86762 0.67649 0.0
C176 C 0.57908 0.86782 0.65303 0.0
C177 C 0.60961 0.85336 0.66433 0.0
N178 N 0.59831 0.85863 0.68337 0.0
O179 O 0.57237 0.84539 0.60929 0.0
H180 H 0.56588 0.87415 0.64227 0.0
H181 H 0.62549 0.8452 0.66471 0.0
O182 O 0.60001 0.88808 0.60927 0.0
C183 C 0.56899 0.82363 0.61196 0.0
O184 O 0.58645 0.81183 0.61751 0.0
N185 N 0.63642 0.86117 0.61806 0.0
C186 C 0.68405 0.86781 0.61899 0.0
C187 C 0.67081 0.88274 0.60712 0.0
C188 C 0.64725 0.87874 0.60629 0.0
C189 C 0.64919 0.84532 0.6281 0.0
C190 C 0.67307 0.84875 0.62952 0.0
H191 H 0.638 0.88946 0.59523 0.0
H192 H 0.64092 0.82954 0.6344 0.0
H193 H 0.60314 0.87954 0.56659 0.0
H194 H 0.62721 0.81665 0.54207 0.0
H195 H 0.56604 0.87383 0.68764 0.0
H196 H 0.67861 0.89729 0.59813 0.0
H197 H 0.68285 0.83619 0.63795 0.0
C198 C 0.43142 0.33841 0.81712 0.0
C199 C 0.42238 0.33937 0.79521 0.0
N200 N 0.39965 0.33473 0.79618 0.0
N201 N 0.41449 0.33294 0.83179 0.0
C202 C 0.39538 0.3306 0.81834 0.0
H203 H 0.44905 0.3427 0.82219 0.0
Co204 Co 0.41743 0.33407 0.86406 0.0
C205 C 0.36934 0.32821 0.88187 0.0
O206 O 0.37607 0.33046 0.9034 0.0
N207 N 0.42105 0.33542 0.89719 0.0
C208 C 0.4274 0.32439 0.933 0.0
C209 C 0.42502 0.31721 0.91035 0.0
C210 C 0.42066 0.35346 0.91284 0.0
N211 N 0.42476 0.34728 0.9346 0.0
O212 O 0.42576 0.302 0.86309 0.0
H213 H 0.42576 0.29946 0.90424 0.0
H214 H 0.41684 0.37078 0.90874 0.0
O215 O 0.38407 0.32531 0.86621 0.0
C216 C 0.44755 0.30279 0.86211 0.0
O217 O 0.45862 0.32339 0.86209 0.0
N218 N 0.41176 0.36551 0.86365 0.0
C219 C 0.40435 0.41222 0.86533 0.0
C220 C 0.38749 0.39598 0.85654 0.0
C221 C 0.39159 0.37275 0.85566 0.0
C222 C 0.42945 0.3814 0.86939 0.0
C223 C 0.42581 0.40504 0.87137 0.0
H224 H 0.37834 0.36081 0.84852 0.0
H225 H 0.44589 0.37552 0.87416 0.0
H226 H 0.37842 0.32692 0.8246 0.0
H227 H 0.43157 0.34441 0.78002 0.0
H228 H 0.43026 0.31337 0.94724 0.0
H229 H 0.37082 0.40109 0.85132 0.0
H230 H 0.43926 0.41739 0.87798 0.0
C231 C 0.93883 0.15224 0.16679 0.0
C232 C 0.93404 0.14736 0.18912 0.0
N233 N 0.91291 0.1538 0.19354 0.0
N234 N 0.9208 0.16161 0.15719 0.0
C235 C 0.90538 0.16273 0.17401 0.0
H236 H 0.95397 0.148 0.1577 0.0
Co237 Co 0.91896 0.16659 0.12623 0.0
C238 C 0.87039 0.16794 0.11324 0.0
O239 O 0.87564 0.15756 0.09388 0.0
N240 N 0.9184 0.17239 0.09462 0.0
C241 C 0.91356 0.19196 0.06287 0.0
C242 C 0.91245 0.19274 0.0863 0.0
C243 C 0.92337 0.15967 0.07569 0.0
N244 N 0.92032 0.17109 0.05629 0.0
O245 O 0.9291 0.19849 0.13193 0.0
H246 H 0.90688 0.2071 0.0966 0.0
H247 H 0.92905 0.14241 0.07568 0.0
O248 O 0.88619 0.17368 0.1283 0.0
C249 C 0.95074 0.20185 0.13199 0.0
O250 O 0.96313 0.18393 0.12949 0.0
N251 N 0.91023 0.13449 0.12151 0.0
C252 C 0.89722 0.08761 0.11372 0.0
C253 C 0.88346 0.10185 0.12638 0.0
C254 C 0.89054 0.12499 0.13061 0.0
C255 C 0.92536 0.12016 0.11216 0.0
C256 C 0.91895 0.09661 0.10746 0.0
H257 H 0.87998 0.13509 0.14135 0.0
H258 H 0.94227 0.12712 0.10782 0.0
H259 H 0.88837 0.16831 0.17157 0.0
H260 H 0.94482 0.13879 0.20087 0.0
H261 H 0.90896 0.20538 0.05152 0.0
H262 H 0.86725 0.09513 0.133 0.0
H263 H 0.93056 0.08578 0.09863 0.0
C264 C 0.13069 0.06723 0.38286 0.0
C265 C 0.15382 0.06499 0.3832 0.0
N266 N 0.16344 0.07932 0.36781 0.0
N267 N 0.12571 0.08332 0.36771 0.0
C268 C 0.14588 0.08943 0.35801 0.0
H269 H 0.11843 0.05883 0.39408 0.0
Co270 Co 0.09661 0.09439 0.36454 0.0
C271 C 0.12316 0.14424 0.3562 0.0
O272 O 0.14207 0.13985 0.34585 0.0
N273 N 0.06646 0.10449 0.36112 0.0
C274 C 0.03764 0.12637 0.35395 0.0
C275 C 0.06082 0.12487 0.35279 0.0
C276 C 0.04598 0.09359 0.36647 0.0
N277 N 0.02822 0.10676 0.36273 0.0
O278 O 0.09718 0.08607 0.33255 0.0
H279 H 0.07268 0.13815 0.34637 0.0
H280 H 0.04397 0.07622 0.3728 0.0
O281 O 0.10897 0.12742 0.3615 0.0
C282 C 0.08805 0.06533 0.33102 0.0
O283 O 0.07852 0.05655 0.34931 0.0
N284 N 0.09651 0.10065 0.39607 0.0
C285 C 0.09596 0.11239 0.44238 0.0
C286 C 0.11465 0.11963 0.4292 0.0
C287 C 0.11445 0.11383 0.40605 0.0
C288 C 0.08 0.09053 0.40932 0.0
C289 C 0.07889 0.09682 0.43247 0.0
H290 H 0.129 0.11983 0.39623 0.0
H291 H 0.06755 0.07769 0.4021 0.0
H292 H 0.14787 0.10095 0.34403 0.0
H293 H 0.16304 0.05511 0.39524 0.0
H294 H 0.02854 0.14122 0.34935 0.0
H295 H 0.12905 0.1303 0.43648 0.0
H296 H 0.06445 0.09011 0.44213 0.0
C297 C 0.19506 0.95758 0.60139 0.0
C298 C 0.18721 0.97912 0.60639 0.0
N299 N 0.16418 0.97744 0.60507 0.0
N300 N 0.17721 0.94209 0.5968 0.0
C301 C 0.15863 0.95479 0.59904 0.0
H302 H 0.21267 0.95328 0.602 0.0
Co303 Co 0.17938 0.90938 0.5938 0.0
C304 C 0.13309 0.88977 0.57624 0.0
O305 O 0.13855 0.86817 0.57619 0.0
N306 N 0.18166 0.87611 0.59125 0.0
C307 C 0.18642 0.84059 0.57641 0.0
C308 C 0.18632 0.86375 0.57195 0.0
C309 C 0.17854 0.85944 0.60713 0.0
N310 N 0.18149 0.83783 0.59858 0.0
O311 O 0.19322 0.91261 0.56316 0.0
H312 H 0.18831 0.87067 0.55511 0.0
H313 H 0.17362 0.86267 0.62456 0.0
O314 O 0.14833 0.90638 0.5805 0.0
C315 C 0.21477 0.9102 0.56226 0.0
O316 O 0.22582 0.90722 0.58155 0.0
N317 N 0.16795 0.90684 0.62385 0.0
C318 C 0.15394 0.89952 0.6686 0.0
C319 C 0.13831 0.90495 0.65165 0.0
C320 C 0.14564 0.90867 0.62948 0.0
C321 C 0.18379 0.90355 0.64061 0.0
C322 C 0.17704 0.89912 0.66309 0.0
H323 H 0.13312 0.91318 0.61716 0.0
H324 H 0.20157 0.903 0.63618 0.0
H325 H 0.14125 0.94738 0.59751 0.0
H326 H 0.19777 0.99473 0.61103 0.0
H327 H 0.18893 0.82673 0.56398 0.0
H328 H 0.12039 0.90592 0.65543 0.0
H329 H 0.18965 0.89543 0.67595 0.0
C330 C 0.40473 0.89488 0.84277 0.0
C331 C 0.42774 0.89239 0.84545 0.0
N332 N 0.43477 0.90271 0.86562 0.0
N333 N 0.39733 0.90656 0.86125 0.0
C334 C 0.4161 0.91146 0.87466 0.0
H335 H 0.39386 0.88771 0.82878 0.0
Co336 Co 0.36695 0.91051 0.86747 0.0
C337 C 0.36467 0.91331 0.91891 0.0
O338 O 0.34398 0.90313 0.91703 0.0
N339 N 0.33556 0.91482 0.87327 0.0
C340 C 0.30406 0.9301 0.8861 0.0
C341 C 0.32753 0.93314 0.88483 0.0
C342 C 0.3164 0.90165 0.86665 0.0
N343 N 0.29721 0.91025 0.87455 0.0
O344 O 0.3707 0.94163 0.85693 0.0
H345 H 0.33817 0.94757 0.89234 0.0
H346 H 0.31602 0.88597 0.85619 0.0
O347 O 0.37545 0.91888 0.90059 0.0
C348 C 0.36414 0.93776 0.83601 0.0
O349 O 0.35686 0.91644 0.82964 0.0
N350 N 0.36339 0.87934 0.87388 0.0
C351 C 0.35231 0.83317 0.88099 0.0
C352 C 0.36768 0.84599 0.89593 0.0
C353 C 0.37352 0.86906 0.89164 0.0
C354 C 0.35241 0.86595 0.85694 0.0
C355 C 0.34573 0.84287 0.86051 0.0
H356 H 0.38608 0.87848 0.90252 0.0
H357 H 0.34763 0.87357 0.84108 0.0
H358 H 0.41596 0.92017 0.89131 0.0
H359 H 0.43832 0.88317 0.83377 0.0
H360 H 0.2929 0.94167 0.89457 0.0
H361 H 0.3748 0.8384 0.91092 0.0
H362 H 0.3348 0.83321 0.8479 0.0
C363 C 0.34204 0.07616 0.10674 0.0
C364 C 0.34464 0.0533 0.11145 0.0
N365 N 0.36632 0.04869 0.1069 0.0
N366 N 0.36198 0.08587 0.09931 0.0
C367 C 0.37636 0.06866 0.09934 0.0
H368 H 0.32685 0.08538 0.10932 0.0
Co369 Co 0.36756 0.11717 0.09431 0.0
C370 C 0.41774 0.12644 0.09111 0.0
O371 O 0.41514 0.14642 0.10178 0.0
N372 N 0.37257 0.14891 0.0885 0.0
C373 C 0.38238 0.17988 0.06823 0.0
C374 C 0.38057 0.15618 0.06814 0.0
C375 C 0.36944 0.16877 0.10061 0.0
N376 N 0.37543 0.18774 0.08867 0.0
O377 O 0.35618 0.11244 0.06234 0.0
H378 H 0.38542 0.14488 0.05418 0.0
H379 H 0.3629 0.16966 0.11772 0.0
O380 O 0.40009 0.11253 0.08615 0.0
C381 C 0.336 0.11934 0.06013 0.0
O382 O 0.32569 0.12593 0.0788 0.0
N383 N 0.37608 0.12168 0.12606 0.0
C384 C 0.38446 0.12883 0.17341 0.0
C385 C 0.39921 0.11646 0.15979 0.0
C386 C 0.3945 0.11269 0.1363 0.0
C387 C 0.36045 0.1317 0.13946 0.0
C388 C 0.36458 0.13606 0.16297 0.0
H389 H 0.40559 0.10217 0.12663 0.0
H390 H 0.34469 0.13658 0.13179 0.0
H391 H 0.39415 0.07095 0.09503 0.0
H392 H 0.33168 0.04116 0.11804 0.0
H393 H 0.38899 0.1905 0.05457 0.0
H394 H 0.41441 0.10988 0.16714 0.0
H395 H 0.35212 0.14474 0.17294 0.0
C396 C 0.15569 0.93423 0.18437 0.0
C397 C 0.17862 0.93305 0.18055 0.0
N398 N 0.18268 0.91051 0.17812 0.0
N399 N 0.1456 0.91252 0.18455 0.0
C400 C 0.16251 0.89847 0.18071 0.0
H401 H 0.14691 0.94994 0.18647 0.0
Co402 Co 0.115 0.90521 0.18848 0.0
C403 C 0.10736 0.85336 0.18716 0.0
O404 O 0.08683 0.85637 0.17912 0.0
N405 N 0.08357 0.89882 0.19325 0.0
C406 C 0.0514 0.88663 0.21019 0.0
C407 C 0.07471 0.89 0.21264 0.0
C408 C 0.06517 0.90128 0.17962 0.0
N409 N 0.04555 0.89359 0.18929 0.0
O410 O 0.11861 0.91469 0.22032 0.0
H411 H 0.08466 0.88533 0.2273 0.0
H412 H 0.06577 0.90827 0.16281 0.0
O413 O 0.12058 0.87137 0.19345 0.0
C414 C 0.11254 0.93552 0.22095 0.0
O415 O 0.10547 0.94436 0.20188 0.0
N416 N 0.11187 0.89921 0.15671 0.0
C417 C 0.10285 0.89355 0.11001 0.0
C418 C 0.11473 0.8772 0.12157 0.0
C419 C 0.11965 0.8807 0.14482 0.0
C420 C 0.10344 0.91686 0.14507 0.0
C421 C 0.09811 0.91415 0.12172 0.0
H422 H 0.12987 0.8685 0.15291 0.0
H423 H 0.09946 0.93256 0.1543 0.0
H424 H 0.16021 0.8798 0.17961 0.0
H425 H 0.19114 0.94755 0.17892 0.0
H426 H 0.03983 0.87876 0.22242 0.0
H427 H 0.12027 0.86189 0.11269 0.0
H428 H 0.08972 0.92764 0.11319 0.0
C429 C 0.38171 0.83913 0.42949 0.0
C430 C 0.38369 0.8162 0.42319 0.0
N431 N 0.37082 0.81114 0.40412 0.0
N432 N 0.36803 0.84854 0.41417 0.0
C433 C 0.3612 0.83091 0.39925 0.0
H434 H 0.39113 0.84884 0.44317 0.0
Co435 Co 0.36526 0.88011 0.41158 0.0
C436 C 0.36437 0.88794 0.36163 0.0
O437 O 0.37573 0.90786 0.36698 0.0
N438 N 0.36142 0.91217 0.40937 0.0
C439 C 0.34314 0.94318 0.40058 0.0
C440 C 0.34218 0.91947 0.39987 0.0
C441 C 0.37353 0.93206 0.41638 0.0
N442 N 0.36291 0.95119 0.41095 0.0
O443 O 0.33328 0.87629 0.42199 0.0
H444 H 0.32842 0.90814 0.39232 0.0
H445 H 0.38962 0.93284 0.42549 0.0
O446 O 0.35691 0.87507 0.3779 0.0
C447 C 0.33059 0.88427 0.44251 0.0
O448 O 0.34867 0.89307 0.45414 0.0
N449 N 0.39715 0.88352 0.40359 0.0
C450 C 0.44307 0.89029 0.39084 0.0
C451 C 0.4277 0.87486 0.37832 0.0
C452 C 0.40516 0.87125 0.3853 0.0
C453 C 0.41259 0.89594 0.4178 0.0
C454 C 0.43551 0.90013 0.41145 0.0
H455 H 0.39413 0.8586 0.37568 0.0
H456 H 0.40723 0.90262 0.43418 0.0
H457 H 0.35117 0.83295 0.38386 0.0
H458 H 0.39497 0.80461 0.43104 0.0
H459 H 0.3305 0.9536 0.39322 0.0
H460 H 0.43304 0.86552 0.36317 0.0
H461 H 0.44699 0.91127 0.42237 0.0
C462 C 0.40991 0.09873 0.70203 0.0
C463 C 0.43272 0.10367 0.69824 0.0
N464 N 0.43789 0.09288 0.67839 0.0
N465 N 0.40088 0.08526 0.6844 0.0
C466 C 0.41844 0.0814 0.67065 0.0
H467 H 0.40012 0.10612 0.71562 0.0
Co468 Co 0.37022 0.07881 0.67883 0.0
C469 C 0.36276 0.07935 0.62842 0.0
O470 O 0.34391 0.08909 0.63369 0.0
N471 N 0.3387 0.07115 0.67404 0.0
C472 C 0.30694 0.05137 0.66074 0.0
C473 C 0.33031 0.05155 0.66255 0.0
C474 C 0.3199 0.08187 0.6801 0.0
N475 N 0.30058 0.07046 0.6719 0.0
O476 O 0.37313 0.04784 0.68847 0.0
H477 H 0.34069 0.03867 0.65503 0.0
H478 H 0.31988 0.09814 0.68952 0.0
O479 O 0.37535 0.07216 0.64475 0.0
C480 C 0.37043 0.05093 0.71006 0.0
O481 O 0.36542 0.07154 0.71783 0.0
N482 N 0.36827 0.11024 0.67264 0.0
C483 C 0.36288 0.15602 0.66297 0.0
C484 C 0.37884 0.14362 0.65107 0.0
C485 C 0.38138 0.12076 0.65629 0.0
C486 C 0.357 0.12362 0.68767 0.0
C487 C 0.35301 0.14636 0.68254 0.0
H488 H 0.39361 0.11148 0.64674 0.0
H489 H 0.35049 0.11641 0.7033 0.0
H490 H 0.41657 0.07264 0.65399 0.0
H491 H 0.44412 0.11585 0.70816 0.0
H492 H 0.29558 0.03861 0.65148 0.0
H493 H 0.38851 0.15109 0.63714 0.0
H494 H 0.34154 0.15566 0.69318 0.0
C495 C 0.18913 0.21416 0.93648 0.0
C496 C 0.19231 0.23704 0.93046 0.0
N497 N 0.2023 0.2379 0.9098 0.0
N498 N 0.19659 0.20037 0.91953 0.0
C499 C 0.20606 0.21548 0.90444 0.0
H500 H 0.17949 0.20787 0.95092 0.0
Co501 Co 0.18812 0.16787 0.91574 0.0
C502 C 0.18375 0.18112 0.86502 0.0
O503 O 0.1759 0.20121 0.86997 0.0
N504 N 0.18022 0.13554 0.91116 0.0
C505 C 0.16269 0.10395 0.89408 0.0
C506 C 0.16637 0.12745 0.89347 0.0
C507 C 0.18457 0.1162 0.92259 0.0
N508 N 0.17409 0.09684 0.91228 0.0
O509 O 0.22016 0.16125 0.92003 0.0
H510 H 0.15783 0.13822 0.88182 0.0
H511 H 0.19453 0.11635 0.93836 0.0
O512 O 0.19016 0.16829 0.88113 0.0
C513 C 0.22462 0.16156 0.94164 0.0
O514 O 0.20843 0.16685 0.95575 0.0
N515 N 0.15594 0.17375 0.91492 0.0
C516 C 0.10949 0.1729 0.90451 0.0
C517 C 0.12395 0.19247 0.90006 0.0
C518 C 0.14702 0.19283 0.90609 0.0
C519 C 0.14109 0.15755 0.92442 0.0
C520 C 0.11787 0.15612 0.91853 0.0
H521 H 0.15743 0.2084 0.9031 0.0
H522 H 0.14736 0.14424 0.93492 0.0
H523 H 0.2139 0.21002 0.88873 0.0
H524 H 0.18536 0.25154 0.93945 0.0
H525 H 0.15153 0.09294 0.8827 0.0
H526 H 0.11771 0.20697 0.89116 0.0
H527 H 0.10713 0.14122 0.92359 0.0
C528 C 0.87632 0.3375 0.92941 0.0
C529 C 0.87406 0.31385 0.92464 0.0
N530 N 0.86106 0.30986 0.90548 0.0
N531 N 0.86532 0.34843 0.91293 0.0
C532 C 0.85504 0.33099 0.89958 0.0
H533 H 0.8869 0.34627 0.94283 0.0
Co534 Co 0.86604 0.3807 0.9082 0.0
C535 C 0.86621 0.3629 0.85826 0.0
O536 O 0.88114 0.34786 0.86248 0.0
N537 N 0.86516 0.4128 0.90356 0.0
C538 C 0.86789 0.44676 0.88665 0.0
C539 C 0.86604 0.42322 0.88314 0.0
C540 C 0.86579 0.43066 0.91931 0.0
N541 N 0.86795 0.45139 0.9093 0.0
O542 O 0.83378 0.38019 0.9172 0.0
H543 H 0.86681 0.41461 0.86657 0.0
H544 H 0.86688 0.4285 0.93763 0.0
O545 O 0.85829 0.37529 0.87458 0.0
C546 C 0.83377 0.38239 0.93913 0.0
O547 O 0.85371 0.38352 0.94984 0.0
N548 N 0.8994 0.38231 0.90218 0.0
C549 C 0.94611 0.38824 0.89096 0.0
C550 C 0.9345 0.36623 0.88987 0.0
C551 C 0.91145 0.36359 0.89604 0.0
C552 C 0.91185 0.40313 0.90632 0.0
C553 C 0.93468 0.40662 0.90018 0.0
H554 H 0.90367 0.34619 0.89543 0.0
H555 H 0.90481 0.41758 0.91477 0.0
H556 H 0.84421 0.33366 0.88491 0.0
H557 H 0.88299 0.30087 0.93339 0.0
H558 H 0.8705 0.45956 0.87364 0.0
H559 H 0.94291 0.35119 0.88376 0.0
H560 H 0.94337 0.42369 0.90288 0.0
C561 C 0.91884 0.60028 0.20213 0.0
C562 C 0.94171 0.59896 0.19862 0.0
N563 N 0.94428 0.5883 0.17813 0.0
N564 N 0.90676 0.59055 0.18385 0.0
C565 C 0.923 0.58236 0.17024 0.0
H566 H 0.91213 0.61068 0.21579 0.0
Co567 Co 0.87592 0.59404 0.17435 0.0
C568 C 0.8856 0.58873 0.13228 0.0
O569 O 0.89245 0.60987 0.13957 0.0
N570 N 0.84654 0.59754 0.16444 0.0
C571 C 0.81872 0.61344 0.14606 0.0
C572 C 0.84172 0.61447 0.15017 0.0
C573 C 0.82619 0.58658 0.16915 0.0
N574 N 0.80909 0.59592 0.15795 0.0
O575 O 0.86587 0.56813 0.19545 0.0
H576 H 0.8541 0.62734 0.14385 0.0
H577 H 0.82381 0.57283 0.1812 0.0
O578 O 0.87879 0.57392 0.1472 0.0
C579 C 0.86934 0.5685 0.21737 0.0
O580 O 0.87967 0.58693 0.22761 0.0
N581 N 0.87244 0.6177 0.1965 0.0
C582 C 0.8562 0.66129 0.20331 0.0
C583 C 0.87789 0.65895 0.19426 0.0
C584 C 0.88544 0.63698 0.19058 0.0
C585 C 0.85269 0.61985 0.20832 0.0
C586 C 0.84416 0.64164 0.21176 0.0
H587 H 0.90013 0.63531 0.17989 0.0
H588 H 0.84175 0.60467 0.21204 0.0
H589 H 0.91986 0.5749 0.15323 0.0
H590 H 0.95533 0.60829 0.20861 0.0
H591 H 0.80953 0.62549 0.13628 0.0
H592 H 0.88758 0.6735 0.18702 0.0
H593 H 0.82729 0.64277 0.21875 0.0
C594 C 0.68358 0.70616 0.43941 0.0
C595 C 0.68288 0.72953 0.43572 0.0
N596 N 0.69408 0.73444 0.41629 0.0
N597 N 0.69488 0.69624 0.42221 0.0
C598 C 0.7019 0.71413 0.40898 0.0
H599 H 0.67411 0.69659 0.45221 0.0
Co600 Co 0.69164 0.6643 0.41413 0.0
C601 C 0.70382 0.67561 0.36188 0.0
O602 O 0.72462 0.68396 0.35746 0.0
N603 N 0.68865 0.63215 0.40581 0.0
C604 C 0.6901 0.59922 0.38522 0.0
C605 C 0.69486 0.62264 0.38557 0.0
C606 C 0.68072 0.61358 0.4178 0.0
N607 N 0.68126 0.59337 0.40547 0.0
O608 O 0.7232 0.66121 0.42248 0.0
H609 H 0.7026 0.63169 0.37157 0.0
H610 H 0.6749 0.61473 0.43527 0.0
O611 O 0.69896 0.67112 0.38258 0.0
C612 C 0.72497 0.65845 0.44401 0.0
O613 O 0.70648 0.65889 0.45634 0.0
N614 N 0.6606 0.66712 0.40757 0.0
C615 C 0.61483 0.66715 0.39513 0.0
C616 C 0.63082 0.68368 0.38662 0.0
C617 C 0.65365 0.68332 0.39299 0.0
C618 C 0.6448 0.65341 0.41868 0.0
C619 C 0.62178 0.65263 0.41226 0.0
H620 H 0.66577 0.69543 0.38526 0.0
H621 H 0.65002 0.64249 0.4321 0.0
H622 H 0.70985 0.712 0.39259 0.0
H623 H 0.67294 0.74147 0.44531 0.0
H624 H 0.69255 0.58738 0.37085 0.0
H625 H 0.62597 0.69601 0.37419 0.0
H626 H 0.60988 0.64002 0.41982 0.0
C627 C 0.91064 0.40674 0.33582 0.0
C628 C 0.93387 0.4055 0.3389 0.0
N629 N 0.93963 0.41235 0.36068 0.0
N630 N 0.90162 0.4144 0.3555 0.0
C631 C 0.91981 0.41797 0.37017 0.0
H632 H 0.90078 0.40095 0.32063 0.0
Co633 Co 0.87015 0.41306 0.36234 0.0
C634 C 0.87345 0.43164 0.41284 0.0
O635 O 0.85845 0.44733 0.41114 0.0
N636 N 0.83846 0.41077 0.37008 0.0
C637 C 0.8083 0.39955 0.39079 0.0
C638 C 0.83154 0.40214 0.39031 0.0
C639 C 0.81855 0.41236 0.35808 0.0
N640 N 0.80001 0.40584 0.37059 0.0
O641 O 0.86873 0.44516 0.354 0.0
H642 H 0.84262 0.39632 0.40353 0.0
H643 H 0.81765 0.41737 0.34041 0.0
O644 O 0.87833 0.41968 0.39502 0.0
C645 C 0.86425 0.4426 0.3324 0.0
O646 O 0.86101 0.42129 0.3238 0.0
N647 N 0.8708 0.38184 0.36663 0.0
C648 C 0.86159 0.33533 0.37355 0.0
C649 C 0.87775 0.34834 0.38752 0.0
C650 C 0.88234 0.37175 0.38356 0.0
C651 C 0.85714 0.36887 0.3513 0.0
C652 C 0.85205 0.34544 0.35458 0.0
H653 H 0.89441 0.38181 0.39455 0.0
H654 H 0.84885 0.37716 0.33743 0.0
H655 H 0.91844 0.42295 0.38804 0.0
H656 H 0.94538 0.39912 0.32627 0.0
H657 H 0.79818 0.3923 0.40452 0.0
H658 H 0.88598 0.34073 0.40189 0.0
H659 H 0.83963 0.3358 0.34335 0.0
C660 C 0.63088 0.56901 0.86493 0.0
C661 C 0.65386 0.57023 0.86976 0.0
N662 N 0.66123 0.59272 0.87346 0.0
N663 N 0.62364 0.59058 0.86533 0.0
C664 C 0.64252 0.60472 0.87039 0.0
H665 H 0.61998 0.5533 0.86184 0.0
Co666 Co 0.59313 0.59611 0.86169 0.0
C667 C 0.58976 0.64708 0.86402 0.0
O668 O 0.57094 0.6425 0.87536 0.0
N669 N 0.56146 0.60086 0.85744 0.0
C670 C 0.52928 0.6102 0.84044 0.0
C671 C 0.55257 0.60982 0.83848 0.0
C672 C 0.54301 0.59571 0.87053 0.0
N673 N 0.52324 0.60128 0.86067 0.0
O674 O 0.59497 0.58694 0.82973 0.0
H675 H 0.56246 0.6158 0.82408 0.0
H676 H 0.54382 0.5883 0.88714 0.0
O677 O 0.60128 0.6302 0.85675 0.0
C678 C 0.58581 0.56613 0.82854 0.0
O679 O 0.57606 0.55773 0.8469 0.0
N680 N 0.59184 0.60107 0.89325 0.0
C681 C 0.59095 0.60057 0.94061 0.0
C682 C 0.60233 0.61911 0.9297 0.0
C683 C 0.60288 0.61888 0.90592 0.0
C684 C 0.58268 0.58195 0.90377 0.0
C685 C 0.58124 0.58165 0.92752 0.0
H686 H 0.61274 0.63274 0.898 0.0
H687 H 0.57606 0.56695 0.89353 0.0
H688 H 0.64236 0.62333 0.87266 0.0
H689 H 0.66418 0.55552 0.87069 0.0
H690 H 0.51775 0.6163 0.82772 0.0
H691 H 0.61053 0.63375 0.93947 0.0
H692 H 0.57288 0.56678 0.93556 0.0
C693 C 0.90363 0.68367 0.95878 0.0
C694 C 0.90236 0.67703 0.98118 0.0
N695 N 0.90387 0.6539 0.98162 0.0
N696 N 0.90578 0.66487 0.94494 0.0
C697 C 0.90638 0.64699 0.95944 0.0
H698 H 0.9013 0.70085 0.95275 0.0
Co699 Co 0.90024 0.66578 0.91315 0.0
C700 C 0.89413 0.6168 0.89766 0.0
O701 O 0.87792 0.62291 0.88381 0.0
N702 N 0.89464 0.66771 0.88064 0.0
C703 C 0.88197 0.68105 0.84774 0.0
C704 C 0.88146 0.68317 0.87109 0.0
C705 C 0.90396 0.65708 0.86214 0.0
N706 N 0.89612 0.66469 0.84195 0.0
O707 O 0.93229 0.67581 0.90812 0.0
H708 H 0.87291 0.69642 0.8801 0.0
H709 H 0.9165 0.64432 0.86343 0.0
O710 O 0.90601 0.63248 0.9096 0.0
C711 C 0.93457 0.6974 0.9037 0.0
O712 O 0.91626 0.70919 0.9039 0.0
N713 N 0.86854 0.65819 0.91887 0.0
C714 C 0.82141 0.64759 0.92006 0.0
C715 C 0.83667 0.63209 0.92834 0.0
C716 C 0.86011 0.63787 0.92793 0.0
C717 C 0.85398 0.67521 0.91586 0.0
C718 C 0.83033 0.67007 0.91524 0.0
H719 H 0.87128 0.62551 0.93428 0.0
H720 H 0.86065 0.69281 0.91356 0.0
H721 H 0.90652 0.62898 0.9538 0.0
H722 H 0.89937 0.68821 0.99592 0.0
H723 H 0.87283 0.69115 0.83584 0.0
H724 H 0.83072 0.61529 0.93448 0.0
H725 H 0.81945 0.68342 0.91022 0.0
C726 C 0.09007 0.19433 0.63182 0.0
C727 C 0.08943 0.19809 0.6087 0.0
N728 N 0.07823 0.17942 0.59814 0.0
N729 N 0.07957 0.17335 0.63551 0.0
C730 C 0.0722 0.1649 0.61485 0.0
H731 H 0.09831 0.20571 0.64503 0.0
Co732 Co 0.0772 0.1598 0.66309 0.0
C733 C 0.06258 0.10895 0.6387 0.0
O734 O 0.04148 0.10691 0.6307 0.0
N735 N 0.07498 0.14677 0.69201 0.0
C736 C 0.08087 0.12224 0.71961 0.0
C737 C 0.0728 0.12426 0.69758 0.0
C738 C 0.08297 0.15811 0.71138 0.0
N739 N 0.08802 0.14356 0.72808 0.0
O740 O 0.0455 0.16754 0.66324 0.0
H741 H 0.06802 0.1098 0.68591 0.0
H742 H 0.08722 0.17662 0.71226 0.0
O743 O 0.07004 0.12827 0.64857 0.0
C744 C 0.0436 0.18841 0.67071 0.0
O745 O 0.06134 0.19949 0.68115 0.0
N746 N 0.10839 0.15455 0.66205 0.0
C747 C 0.15407 0.14493 0.66189 0.0
C748 C 0.13911 0.13604 0.64433 0.0
C749 C 0.11651 0.14155 0.64443 0.0
C750 C 0.1233 0.1656 0.67766 0.0
C751 C 0.14618 0.1606 0.67826 0.0
H752 H 0.10554 0.13489 0.63038 0.0
H753 H 0.11762 0.1784 0.68968 0.0
H754 H 0.06383 0.14781 0.61191 0.0
H755 H 0.09737 0.21291 0.60028 0.0
H756 H 0.08362 0.10604 0.72762 0.0
H757 H 0.14447 0.12421 0.63103 0.0
H758 H 0.15751 0.16882 0.69143 0.0
C759 C 0.56488 0.36584 0.33791 0.0
C760 C 0.56777 0.36986 0.31505 0.0
N761 N 0.58924 0.36524 0.30962 0.0
N762 N 0.58442 0.35877 0.3467 0.0
C763 C 0.59886 0.35826 0.32905 0.0
H764 H 0.54983 0.36868 0.34777 0.0
Co765 Co 0.58871 0.35379 0.3771 0.0
C766 C 0.63852 0.3544 0.38627 0.0
O767 O 0.63392 0.36461 0.40595 0.0
N768 N 0.59181 0.34773 0.40808 0.0
C769 C 0.59899 0.32818 0.43925 0.0
C770 C 0.60038 0.32827 0.41585 0.0
C771 C 0.58466 0.35874 0.42704 0.0
N772 N 0.58917 0.34746 0.44612 0.0
O773 O 0.57778 0.3214 0.372 0.0
H774 H 0.60745 0.31506 0.40512 0.0
H775 H 0.57582 0.37438 0.42724 0.0
O776 O 0.62188 0.34745 0.37242 0.0
C777 C 0.55728 0.31764 0.3788 0.0
O778 O 0.54665 0.33521 0.38714 0.0
N779 N 0.59745 0.38632 0.38165 0.0
C780 C 0.61037 0.43366 0.38925 0.0
C781 C 0.62343 0.41951 0.37555 0.0
C782 C 0.61625 0.39631 0.37128 0.0
C783 C 0.58311 0.40039 0.3927 0.0
C784 C 0.5896 0.42396 0.39746 0.0
H785 H 0.6261 0.38655 0.35951 0.0
H786 H 0.56643 0.39343 0.3977 0.0
H787 H 0.61626 0.35347 0.33049 0.0
H788 H 0.55543 0.37673 0.30364 0.0
H789 H 0.60525 0.31533 0.45036 0.0
H790 H 0.63928 0.42615 0.36817 0.0
H791 H 0.57827 0.43454 0.40697 0.0
C792 C 0.39734 0.81614 0.08755 0.0
C793 C 0.39787 0.82024 0.06438 0.0
N794 N 0.40989 0.84062 0.06135 0.0
N795 N 0.40876 0.83396 0.09931 0.0
C796 C 0.41708 0.848 0.08269 0.0
H797 H 0.38739 0.80219 0.09545 0.0
Co798 Co 0.40704 0.84007 0.13166 0.0
C799 C 0.40763 0.89065 0.11588 0.0
O800 O 0.39274 0.88596 0.09928 0.0
N801 N 0.40556 0.84759 0.16405 0.0
C802 C 0.39463 0.86906 0.19384 0.0
C803 C 0.39571 0.86717 0.17061 0.0
C804 C 0.40992 0.83745 0.18429 0.0
N805 N 0.40341 0.85046 0.2026 0.0
O806 O 0.43875 0.83368 0.13525 0.0
H807 H 0.3878 0.87849 0.15909 0.0
H808 H 0.41697 0.82074 0.18554 0.0
O809 O 0.41466 0.87445 0.12812 0.0
C810 C 0.43816 0.81148 0.13577 0.0
O811 O 0.41823 0.79966 0.13385 0.0
N812 N 0.37477 0.84185 0.12897 0.0
C813 C 0.32874 0.84712 0.1344 0.0
C814 C 0.33927 0.8535 0.11401 0.0
C815 C 0.36232 0.84984 0.11129 0.0
C816 C 0.36324 0.83089 0.14617 0.0
C817 C 0.34045 0.83427 0.14989 0.0
H818 H 0.3697 0.85306 0.09489 0.0
H819 H 0.37199 0.82047 0.15802 0.0
H820 H 0.42718 0.86414 0.08609 0.0
H821 H 0.3883 0.81011 0.05105 0.0
H822 H 0.38682 0.88253 0.20365 0.0
H823 H 0.33009 0.86193 0.10079 0.0
H824 H 0.33229 0.8276 0.16508 0.0
C825 C 0.89537 0.31752 0.58193 0.0
C826 C 0.89281 0.32271 0.5591 0.0
N827 N 0.89682 0.3458 0.55718 0.0
N828 N 0.90117 0.3372 0.59438 0.0
C829 C 0.90203 0.35398 0.5787 0.0
H830 H 0.89269 0.30054 0.58907 0.0
Co831 Co 0.90506 0.34011 0.62661 0.0
C832 C 0.91644 0.39109 0.63773 0.0
O833 O 0.9084 0.38823 0.65834 0.0
N834 N 0.90932 0.34279 0.65937 0.0
C835 C 0.92787 0.35093 0.69271 0.0
C836 C 0.93016 0.34692 0.66958 0.0
C837 C 0.89464 0.34393 0.67715 0.0
N838 N 0.90552 0.3492 0.69745 0.0
O839 O 0.93504 0.32747 0.62437 0.0
H840 H 0.94614 0.3485 0.66065 0.0
H841 H 0.87631 0.34274 0.67541 0.0
O842 O 0.91736 0.37338 0.62385 0.0
C843 C 0.93286 0.30604 0.62957 0.0
O844 O 0.91231 0.29697 0.63395 0.0
N845 N 0.87506 0.34912 0.62859 0.0
C846 C 0.83012 0.35866 0.63696 0.0
C847 C 0.8451 0.37504 0.62667 0.0
C848 C 0.86742 0.36975 0.62222 0.0
C849 C 0.85997 0.33198 0.63578 0.0
C850 C 0.83749 0.33652 0.64063 0.0
H851 H 0.87832 0.38232 0.61371 0.0
H852 H 0.86592 0.31517 0.63936 0.0
H853 H 0.90649 0.37188 0.58277 0.0
H854 H 0.88769 0.31055 0.54514 0.0
H855 H 0.94159 0.35555 0.70499 0.0
H856 H 0.83971 0.39189 0.62229 0.0
H857 H 0.8264 0.32317 0.64817 0.0
C858 C 0.40497 0.18163 0.45754 0.0
C859 C 0.40437 0.17528 0.48007 0.0
N860 N 0.40342 0.15197 0.48053 0.0
N861 N 0.40405 0.16247 0.44366 0.0
C862 C 0.40323 0.14458 0.45824 0.0
H863 H 0.40455 0.19911 0.45156 0.0
Co864 Co 0.39883 0.16448 0.41184 0.0
C865 C 0.3988 0.11677 0.39233 0.0
O866 O 0.3822 0.12178 0.3784 0.0
N867 N 0.39347 0.16797 0.37946 0.0
C868 C 0.37946 0.18205 0.34746 0.0
C869 C 0.37859 0.18237 0.37083 0.0
C870 C 0.40415 0.16001 0.36044 0.0
N871 N 0.39547 0.16796 0.34077 0.0
O872 O 0.43035 0.17654 0.40787 0.0
H873 H 0.36838 0.19366 0.3806 0.0
H874 H 0.41808 0.14874 0.361 0.0
O875 O 0.40747 0.13234 0.40671 0.0
C876 C 0.43318 0.19763 0.40191 0.0
O877 O 0.41522 0.20969 0.39963 0.0
N878 N 0.36757 0.15405 0.41629 0.0
C879 C 0.32119 0.14015 0.41191 0.0
C880 C 0.33695 0.12451 0.41887 0.0
C881 C 0.36001 0.1319 0.42132 0.0
C882 C 0.35203 0.17036 0.41491 0.0
C883 C 0.32878 0.16377 0.41162 0.0
H884 H 0.37166 0.11934 0.42625 0.0
H885 H 0.35777 0.18854 0.41512 0.0
H886 H 0.40086 0.12652 0.45278 0.0
H887 H 0.40339 0.18683 0.49496 0.0
H888 H 0.36911 0.19165 0.33617 0.0
H889 H 0.33175 0.10648 0.42158 0.0
H890 H 0.3173 0.17698 0.40774 0.0
C891 C 0.59243 0.6905 0.12283 0.0
C892 C 0.59188 0.68784 0.09934 0.0
N893 N 0.57858 0.6685 0.09361 0.0
N894 N 0.58009 0.67248 0.13163 0.0
C895 C 0.57127 0.6598 0.11343 0.0
H896 H 0.60292 0.70335 0.1329 0.0
Co897 Co 0.58046 0.66461 0.1618 0.0
C898 C 0.58324 0.61278 0.16095 0.0
O899 O 0.59586 0.61624 0.1797 0.0
N900 N 0.5801 0.65744 0.19346 0.0
C901 C 0.57238 0.6407 0.22671 0.0
C902 C 0.56562 0.64214 0.20402 0.0
C903 C 0.59408 0.6664 0.21064 0.0
N904 N 0.59066 0.65581 0.23065 0.0
O905 O 0.54888 0.6719 0.16315 0.0
H906 H 0.55175 0.63175 0.19547 0.0
H907 H 0.60627 0.68092 0.20908 0.0
O908 O 0.5736 0.63017 0.15255 0.0
C909 C 0.54873 0.69293 0.17075 0.0
O910 O 0.56791 0.70317 0.17915 0.0
N911 N 0.61212 0.66021 0.15926 0.0
C912 C 0.65719 0.64915 0.1578 0.0
C913 C 0.64109 0.63863 0.14219 0.0
C914 C 0.61894 0.64517 0.14262 0.0
C915 C 0.62845 0.67394 0.1711 0.0
C916 C 0.6511 0.66797 0.17158 0.0
H917 H 0.60713 0.6376 0.12983 0.0
H918 H 0.62415 0.68967 0.17988 0.0
H919 H 0.56196 0.64305 0.11459 0.0
H920 H 0.60219 0.69795 0.08753 0.0
H921 H 0.56508 0.62877 0.23896 0.0
H922 H 0.64519 0.62482 0.13028 0.0
H923 H 0.66362 0.67789 0.18246 0.0
C924 C 0.06284 0.87719 0.8477 0.0
C925 C 0.05982 0.87957 0.82461 0.0
N926 N 0.07251 0.86443 0.81335 0.0
N927 N 0.07746 0.86073 0.85118 0.0
C928 C 0.08128 0.85185 0.83006 0.0
H929 H 0.05623 0.88804 0.86112 0.0
Co930 Co 0.09007 0.85636 0.88002 0.0
C931 C 0.13489 0.85205 0.8511 0.0
O932 O 0.12719 0.85808 0.83114 0.0
N933 N 0.10155 0.85238 0.90913 0.0
C934 C 0.12305 0.86073 0.94023 0.0
C935 C 0.12272 0.8597 0.91681 0.0
C936 C 0.08922 0.84918 0.9282 0.0
N937 N 0.10195 0.85432 0.94732 0.0
O938 O 0.07956 0.82346 0.8776 0.0
H939 H 0.13585 0.8677 0.90641 0.0
H940 H 0.07078 0.84649 0.92801 0.0
O941 O 0.12147 0.85072 0.8683 0.0
C942 C 0.05817 0.82018 0.88137 0.0
O943 O 0.04652 0.83838 0.88556 0.0
N944 N 0.09871 0.88878 0.88343 0.0
C945 C 0.11495 0.93466 0.89432 0.0
C946 C 0.1212 0.92341 0.87393 0.0
C947 C 0.11271 0.90061 0.86871 0.0
C948 C 0.09065 0.90021 0.90214 0.0
C949 C 0.09885 0.92296 0.90814 0.0
H950 H 0.11744 0.89264 0.8528 0.0
H951 H 0.07845 0.89135 0.91307 0.0
H952 H 0.09173 0.83747 0.82698 0.0
H953 H 0.05057 0.89293 0.81692 0.0
H954 H 0.13678 0.86863 0.95111 0.0
H955 H 0.13262 0.9321 0.86205 0.0
H956 H 0.09315 0.93092 0.92388 0.0
C957 C 0.95361 0.92595 0.66227 0.0
C958 C 0.97658 0.9228 0.6612 0.0
N959 N 0.98327 0.92624 0.63953 0.0
N960 N 0.94589 0.93112 0.64134 0.0
C961 C 0.9644 0.93149 0.6279 0.0
H962 H 0.94294 0.92353 0.67705 0.0
Co963 Co 0.91534 0.93289 0.63405 0.0
C964 C 0.91006 0.92576 0.5835 0.0
O965 O 0.89074 0.91389 0.58762 0.0
N966 N 0.88393 0.93546 0.62723 0.0
C967 C 0.85307 0.95009 0.61236 0.0
C968 C 0.87637 0.95295 0.615 0.0
C969 C 0.86461 0.92262 0.63242 0.0
N970 N 0.84576 0.93095 0.62332 0.0
O971 O 0.91853 0.96605 0.64001 0.0
H972 H 0.88727 0.96666 0.60783 0.0
H973 H 0.86398 0.90708 0.64205 0.0
O974 O 0.92225 0.93524 0.60034 0.0
C975 C 0.91 0.96956 0.65973 0.0
O976 O 0.90229 0.95145 0.6711 0.0
N977 N 0.91248 0.90032 0.63116 0.0
C978 C 0.90449 0.85243 0.62763 0.0
C979 C 0.91952 0.86401 0.61274 0.0
C980 C 0.9237 0.88793 0.61517 0.0
C981 C 0.90116 0.88894 0.64813 0.0
C982 C 0.89618 0.86495 0.6463 0.0
H983 H 0.93584 0.89639 0.60405 0.0
H984 H 0.895 0.8987 0.66261 0.0
H985 H 0.96385 0.93394 0.60962 0.0
H986 H 0.98734 0.91762 0.67507 0.0
H987 H 0.84238 0.96108 0.60292 0.0
H988 H 0.92773 0.85473 0.59911 0.0
H989 H 0.8853 0.85655 0.65882 0.0
C990 C 0.79793 0.06529 0.39797 0.0
C991 C 0.80258 0.04274 0.39293 0.0
N992 N 0.82317 0.03933 0.4022 0.0
N993 N 0.8157 0.07587 0.41002 0.0
C994 C 0.8305 0.05953 0.41285 0.0
H995 H 0.78346 0.07395 0.39172 0.0
Co996 Co 0.81991 0.10712 0.41577 0.0
C997 C 0.86959 0.12011 0.41446 0.0
O998 O 0.86353 0.13887 0.40459 0.0
N999 N 0.82307 0.13889 0.42259 0.0
C1000 C 0.83308 0.17161 0.4425 0.0
C1001 C 0.83318 0.14794 0.4422 0.0
C1002 C 0.81635 0.15745 0.41161 0.0
N1003 N 0.82259 0.17746 0.42315 0.0
O1004 O 0.81257 0.10278 0.44747 0.0
H1005 H 0.84096 0.13795 0.45515 0.0
H1006 H 0.8073 0.15679 0.39546 0.0
O1007 O 0.8539 0.10538 0.42149 0.0
C1008 C 0.79102 0.10262 0.44989 0.0
O1009 O 0.77801 0.10364 0.43148 0.0
N1010 N 0.82528 0.11056 0.38381 0.0
C1011 C 0.833 0.11554 0.33708 0.0
C1012 C 0.84735 0.10295 0.35046 0.0
C1013 C 0.84283 0.1001 0.3735 0.0
C1014 C 0.80942 0.12006 0.37038 0.0
C1015 C 0.81339 0.12364 0.34709 0.0
H1016 H 0.85366 0.08935 0.38292 0.0
H1017 H 0.79359 0.12492 0.3777 0.0
H1018 H 0.84736 0.06293 0.42046 0.0
H1019 H 0.7924 0.03037 0.38199 0.0
H1020 H 0.84117 0.18359 0.45531 0.0
H1021 H 0.86232 0.09568 0.34336 0.0
H1022 H 0.8012 0.13237 0.33701 0.0
C1023 C 0.60357 0.11557 0.1671 0.0
C1024 C 0.58034 0.11618 0.16355 0.0
N1025 N 0.57478 0.10541 0.14324 0.0
N1026 N 0.61261 0.10481 0.14891 0.0
C1027 C 0.59454 0.09868 0.13471 0.0
H1028 H 0.61341 0.12323 0.1816 0.0
Co1029 Co 0.64375 0.10158 0.14486 0.0
C1030 C 0.64964 0.09747 0.09416 0.0
O1031 O 0.67053 0.10709 0.09639 0.0
N1032 N 0.6754 0.0976 0.14115 0.0
C1033 C 0.70667 0.08076 0.13013 0.0
C1034 C 0.68337 0.07788 0.13222 0.0
C1035 C 0.69454 0.11184 0.14517 0.0
N1036 N 0.71359 0.10213 0.13835 0.0
O1037 O 0.63944 0.06927 0.15284 0.0
H1038 H 0.67277 0.0627 0.12637 0.0
H1039 H 0.69489 0.1294 0.1519 0.0
O1040 O 0.63768 0.09366 0.112 0.0
C1041 C 0.64427 0.06603 0.17383 0.0
O1042 O 0.65036 0.0841 0.18734 0.0
N1043 N 0.64774 0.13386 0.1389 0.0
C1044 C 0.65822 0.18111 0.13154 0.0
C1045 C 0.64473 0.16711 0.11568 0.0
C1046 C 0.63931 0.14373 0.11991 0.0
C1047 C 0.658 0.14785 0.15592 0.0
C1048 C 0.66409 0.17134 0.15235 0.0
H1049 H 0.62816 0.1338 0.10789 0.0
H1050 H 0.66271 0.1404 0.17193 0.0
H1051 H 0.59576 0.08997 0.11816 0.0
H1052 H 0.56859 0.12471 0.17454 0.0
H1053 H 0.71759 0.06841 0.12251 0.0
H1054 H 0.63824 0.17413 0.10011 0.0
H1055 H 0.6739 0.18145 0.16552 0.0
C1056 C 0.66702 0.92091 0.91249 0.0
C1057 C 0.6662 0.94434 0.90964 0.0
N1058 N 0.64693 0.95122 0.91896 0.0
N1059 N 0.64776 0.91241 0.92256 0.0
C1060 C 0.63682 0.93186 0.92789 0.0
H1061 H 0.6807 0.91083 0.90676 0.0
Co1062 Co 0.63814 0.87991 0.92522 0.0
C1063 C 0.59404 0.90042 0.91623 0.0
O1064 O 0.60336 0.91173 0.89916 0.0
N1065 N 0.62889 0.84797 0.92815 0.0
C1066 C 0.60797 0.81636 0.93787 0.0
C1067 C 0.61275 0.83971 0.94251 0.0
C1068 C 0.6341 0.82906 0.9153 0.0
N1069 N 0.6213 0.80963 0.92066 0.0
O1070 O 0.6435 0.88314 0.95753 0.0
H1071 H 0.60423 0.85023 0.95491 0.0
H1072 H 0.64591 0.82979 0.90125 0.0
O1073 O 0.60587 0.88728 0.92819 0.0
C1074 C 0.66247 0.87437 0.96115 0.0
O1075 O 0.67356 0.86642 0.9435 0.0
N1076 N 0.635 0.87532 0.89345 0.0
C1077 C 0.63475 0.86278 0.8471 0.0
C1078 C 0.61444 0.86158 0.85939 0.0
C1079 C 0.61508 0.86706 0.8827 0.0
C1080 C 0.65506 0.87492 0.88208 0.0
C1081 C 0.65533 0.86924 0.85875 0.0
H1082 H 0.59969 0.86355 0.89215 0.0
H1083 H 0.67106 0.87739 0.8914 0.0
H1084 H 0.62077 0.9318 0.93668 0.0
H1085 H 0.67824 0.95528 0.90023 0.0
H1086 H 0.59509 0.80529 0.94605 0.0
H1087 H 0.59816 0.85615 0.85122 0.0
H1088 H 0.67152 0.86909 0.85014 0.0
C1089 C 0.85469 0.08456 0.81285 0.0
C1090 C 0.83174 0.08278 0.81742 0.0
N1091 N 0.82551 0.10399 0.82393 0.0
N1092 N 0.86286 0.10677 0.81642 0.0
C1093 C 0.84472 0.11817 0.82307 0.0
H1094 H 0.8649 0.07052 0.80765 0.0
Co1095 Co 0.89312 0.11716 0.81418 0.0
C1096 C 0.89574 0.16964 0.81731 0.0
O1097 O 0.91719 0.16973 0.82392 0.0
N1098 N 0.92446 0.12693 0.81144 0.0
C1099 C 0.95687 0.14283 0.79767 0.0
C1100 C 0.93414 0.13696 0.79303 0.0
C1101 C 0.94196 0.12635 0.82671 0.0
N1102 N 0.96176 0.13627 0.81902 0.0
O1103 O 0.89075 0.11166 0.78138 0.0
H1104 H 0.92502 0.14089 0.77756 0.0
H1105 H 0.94033 0.11924 0.84338 0.0
O1106 O 0.88438 0.15022 0.8121 0.0
C1107 C 0.90058 0.09342 0.77547 0.0
O1108 O 0.91107 0.08226 0.79127 0.0
N1109 N 0.89501 0.11975 0.84643 0.0
C1110 C 0.90287 0.12185 0.89347 0.0
C1111 C 0.8914 0.13908 0.88291 0.0
C1112 C 0.88724 0.13746 0.85947 0.0
C1113 C 0.90327 0.1012 0.85688 0.0
C1114 C 0.90785 0.10208 0.88053 0.0
H1115 H 0.87769 0.15051 0.85222 0.0
H1116 H 0.90787 0.08642 0.84655 0.0
H1117 H 0.84572 0.13632 0.82801 0.0
H1118 H 0.8206 0.06703 0.81613 0.0
H1119 H 0.96851 0.15212 0.78645 0.0
H1120 H 0.88602 0.15395 0.89267 0.0
H1121 H 0.91612 0.08808 0.88833 0.0
C1122 C 0.65255 0.18547 0.57538 0.0
C1123 C 0.65143 0.20864 0.58127 0.0
N1124 N 0.65456 0.21156 0.60412 0.0
N1125 N 0.65606 0.17361 0.59446 0.0
C1126 C 0.65782 0.19015 0.61165 0.0
H1127 H 0.64838 0.17746 0.55869 0.0
Co1128 Co 0.64886 0.14132 0.59615 0.0
C1129 C 0.63667 0.14416 0.64698 0.0
O1130 O 0.61463 0.14266 0.64309 0.0
N1131 N 0.64103 0.10845 0.59874 0.0
C1132 C 0.62013 0.07642 0.60812 0.0
C1133 C 0.62264 0.09998 0.61041 0.0
C1134 C 0.64966 0.08895 0.58969 0.0
N1135 N 0.63694 0.06944 0.595 0.0
O1136 O 0.68082 0.1357 0.59411 0.0
H1137 H 0.61044 0.1101 0.6188 0.0
H1138 H 0.66457 0.08893 0.57918 0.0
O1139 O 0.65087 0.14377 0.63049 0.0
C1140 C 0.68365 0.13319 0.57249 0.0
O1141 O 0.66593 0.13493 0.55878 0.0
N1142 N 0.61774 0.14669 0.59347 0.0
C1143 C 0.57077 0.14388 0.58968 0.0
C1144 C 0.58225 0.16161 0.6034 0.0
C1145 C 0.60605 0.16318 0.60449 0.0
C1146 C 0.60709 0.13321 0.57626 0.0
C1147 C 0.58342 0.13095 0.5745 0.0
H1148 H 0.61466 0.17589 0.61617 0.0
H1149 H 0.61689 0.12236 0.5653 0.0
H1150 H 0.65835 0.18635 0.62964 0.0
H1151 H 0.64659 0.22196 0.56991 0.0
H1152 H 0.60669 0.06516 0.61523 0.0
H1153 H 0.57312 0.17259 0.6149 0.0
H1154 H 0.57518 0.11793 0.56275 0.0
C1155 C 0.71442 0.94045 0.32875 0.0
C1156 C 0.73669 0.9356 0.33297 0.0
N1157 N 0.73899 0.91319 0.3269 0.0
N1158 N 0.70258 0.92117 0.32024 0.0
C1159 C 0.7182 0.90504 0.31866 0.0
H1160 H 0.70686 0.95642 0.33346 0.0
Co1161 Co 0.67055 0.91778 0.31929 0.0
C1162 C 0.6577 0.86752 0.32351 0.0
O1163 O 0.63958 0.87393 0.3342 0.0
N1164 N 0.63747 0.91473 0.31784 0.0
C1165 C 0.60312 0.90363 0.30253 0.0
C1166 C 0.6262 0.9053 0.29897 0.0
C1167 C 0.62031 0.91882 0.33263 0.0
N1168 N 0.59933 0.91201 0.32379 0.0
O1169 O 0.67062 0.92418 0.28685 0.0
H1170 H 0.63432 0.8989 0.28377 0.0
H1171 H 0.62272 0.92608 0.34976 0.0
O1172 O 0.67133 0.88308 0.31458 0.0
C1173 C 0.66595 0.94541 0.28573 0.0
O1174 O 0.66352 0.95725 0.30505 0.0
N1175 N 0.67137 0.91453 0.35105 0.0
C1176 C 0.66723 0.90858 0.39747 0.0
C1177 C 0.68014 0.89385 0.38437 0.0
C1178 C 0.68227 0.89734 0.36116 0.0
C1179 C 0.66316 0.93175 0.36435 0.0
C1180 C 0.66004 0.92872 0.38774 0.0
H1181 H 0.69203 0.88566 0.35133 0.0
H1182 H 0.6573 0.94697 0.35646 0.0
H1183 H 0.71399 0.88706 0.31373 0.0
H1184 H 0.74978 0.94727 0.34125 0.0
H1185 H 0.59021 0.89581 0.29068 0.0
H1186 H 0.68735 0.87895 0.3917 0.0
H1187 H 0.65079 0.94106 0.39758 0.0
C1188 C 0.81755 0.81498 0.08654 0.0
C1189 C 0.81778 0.79193 0.09158 0.0
N1190 N 0.80933 0.78922 0.1127 0.0
N1191 N 0.80962 0.82667 0.10473 0.0
C1192 C 0.80426 0.81046 0.12016 0.0
H1193 H 0.82466 0.82307 0.07155 0.0
Co1194 Co 0.81159 0.85849 0.10819 0.0
C1195 C 0.81939 0.87042 0.15749 0.0
O1196 O 0.83217 0.88837 0.15066 0.0
N1197 N 0.81257 0.89134 0.1108 0.0
C1198 C 0.80109 0.92618 0.12081 0.0
C1199 C 0.79602 0.90267 0.12133 0.0
C1200 C 0.82724 0.90862 0.10357 0.0
N1201 N 0.82084 0.9298 0.10976 0.0
O1202 O 0.77937 0.85806 0.10295 0.0
H1203 H 0.78139 0.89431 0.12952 0.0
H1204 H 0.84228 0.9063 0.09381 0.0
O1205 O 0.80844 0.85687 0.14245 0.0
C1206 C 0.7754 0.86242 0.08209 0.0
O1207 O 0.79267 0.86622 0.06835 0.0
N1208 N 0.84364 0.8577 0.11174 0.0
C1209 C 0.89008 0.86189 0.12111 0.0
C1210 C 0.87558 0.84776 0.13432 0.0
C1211 C 0.85247 0.8455 0.12903 0.0
C1212 C 0.85805 0.86695 0.09582 0.0
C1213 C 0.88152 0.87021 0.10063 0.0
H1214 H 0.84164 0.83467 0.13961 0.0
H1215 H 0.85124 0.87289 0.07992 0.0
H1216 H 0.79923 0.81438 0.13753 0.0
H1217 H 0.82559 0.77865 0.08153 0.0
H1218 H 0.7914 0.93953 0.12856 0.0
H1219 H 0.88186 0.83942 0.14928 0.0
H1220 H 0.89248 0.88005 0.08917 0.0
C1221 C 0.14891 0.68501 0.07375 0.0
C1222 C 0.14674 0.7081 0.0793 0.0
N1223 N 0.15119 0.71172 0.10191 0.0
N1224 N 0.15437 0.67399 0.09282 0.0
C1225 C 0.15604 0.69083 0.10965 0.0
H1226 H 0.1452 0.67645 0.05721 0.0
Co1227 Co 0.1538 0.64167 0.09485 0.0
C1228 C 0.14232 0.63249 0.14281 0.0
O1229 O 0.12822 0.61545 0.13456 0.0
N1230 N 0.15401 0.60861 0.0972 0.0
C1231 C 0.16752 0.57632 0.1101 0.0
C1232 C 0.16919 0.6 0.11172 0.0
C1233 C 0.14343 0.58928 0.08656 0.0
N1234 N 0.15147 0.5695 0.09418 0.0
O1235 O 0.18652 0.64306 0.09257 0.0
H1236 H 0.18099 0.61043 0.12291 0.0
H1237 H 0.13077 0.58934 0.07299 0.0
O1238 O 0.15447 0.64494 0.1291 0.0
C1239 C 0.18996 0.63679 0.07176 0.0
O1240 O 0.17224 0.63221 0.05792 0.0
N1241 N 0.12199 0.64058 0.09376 0.0
C1242 C 0.07491 0.63562 0.08954 0.0
C1243 C 0.08543 0.64979 0.10721 0.0
C1244 C 0.10911 0.65233 0.10883 0.0
C1245 C 0.11206 0.62992 0.07457 0.0
C1246 C 0.08839 0.62635 0.07252 0.0
H1247 H 0.117 0.66317 0.1226 0.0
H1248 H 0.1226 0.62369 0.06103 0.0
H1249 H 0.1588 0.68762 0.12759 0.0
H1250 H 0.14111 0.72098 0.06785 0.0
H1251 H 0.17744 0.5649 0.1199 0.0
H1252 H 0.07553 0.65769 0.12047 0.0
H1253 H 0.08076 0.61604 0.05818 0.0
C1254 C 0.21422 0.4475 0.83769 0.0
C1255 C 0.23619 0.44273 0.84345 0.0
N1256 N 0.24 0.42145 0.83478 0.0
N1257 N 0.20406 0.42932 0.82549 0.0
C1258 C 0.22048 0.41411 0.82332 0.0
H1259 H 0.20556 0.46233 0.84382 0.0
Co1260 Co 0.17223 0.42425 0.82132 0.0
C1261 C 0.16297 0.37157 0.81636 0.0
O1262 O 0.14076 0.37275 0.81546 0.0
N1263 N 0.13949 0.41943 0.81739 0.0
C1264 C 0.10464 0.41785 0.80118 0.0
C1265 C 0.12767 0.42098 0.79746 0.0
C1266 C 0.12278 0.41472 0.83289 0.0
N1267 N 0.10154 0.41397 0.82351 0.0
O1268 O 0.1751 0.4336 0.78927 0.0
H1269 H 0.13505 0.42411 0.78093 0.0
H1270 H 0.12585 0.4116 0.85075 0.0
O1271 O 0.17609 0.39028 0.81513 0.0
C1272 C 0.17304 0.45558 0.79105 0.0
O1273 O 0.16981 0.46441 0.8117 0.0
N1274 N 0.17022 0.4192 0.85263 0.0
C1275 C 0.16506 0.41449 0.89941 0.0
C1276 C 0.17668 0.39838 0.88651 0.0
C1277 C 0.1795 0.40135 0.86323 0.0
C1278 C 0.16124 0.43646 0.86531 0.0
C1279 C 0.15794 0.43419 0.88877 0.0
H1280 H 0.18935 0.3894 0.85396 0.0
H1281 H 0.15549 0.45144 0.8569 0.0
H1282 H 0.21768 0.39719 0.81508 0.0
H1283 H 0.24787 0.45352 0.85446 0.0
H1284 H 0.09119 0.41817 0.78831 0.0
H1285 H 0.18292 0.38314 0.89408 0.0
H1286 H 0.14951 0.44739 0.89833 0.0
C1287 C 0.30813 0.32742 0.57966 0.0
C1288 C 0.30352 0.30376 0.57807 0.0
N1289 N 0.30264 0.29585 0.59946 0.0
N1290 N 0.31041 0.33437 0.60199 0.0
C1291 C 0.30639 0.3147 0.61344 0.0
H1292 H 0.31177 0.33827 0.56534 0.0
Co1293 Co 0.32097 0.36367 0.61484 0.0
C1294 C 0.31679 0.35071 0.65481 0.0
O1295 O 0.33622 0.345 0.6461 0.0
N1296 N 0.33074 0.39234 0.62786 0.0
C1297 C 0.35211 0.41847 0.64869 0.0
C1298 C 0.34838 0.39542 0.64302 0.0
C1299 C 0.32413 0.41383 0.62436 0.0
N1300 N 0.337 0.43 0.63685 0.0
O1301 O 0.29573 0.37648 0.59607 0.0
H1302 H 0.35887 0.38202 0.64858 0.0
H1303 H 0.3113 0.41773 0.61184 0.0
O1304 O 0.30201 0.35903 0.64144 0.0
C1305 C 0.29463 0.38094 0.57464 0.0
O1306 O 0.31324 0.38136 0.56254 0.0
N1307 N 0.34455 0.36706 0.5927 0.0
C1308 C 0.39222 0.375 0.59143 0.0
C1309 C 0.38196 0.35263 0.59407 0.0
C1310 C 0.3583 0.34906 0.59464 0.0
C1311 C 0.35414 0.38825 0.58654 0.0
C1312 C 0.37794 0.39258 0.58593 0.0
H1313 H 0.35164 0.33252 0.6006 0.0
H1314 H 0.34386 0.40291 0.58525 0.0
H1315 H 0.30845 0.31351 0.63168 0.0
H1316 H 0.30284 0.29307 0.56245 0.0
H1317 H 0.36618 0.42641 0.6591 0.0
H1318 H 0.39191 0.33835 0.5986 0.0
H1319 H 0.38497 0.41007 0.58313 0.0
C1320 C 0.10173 0.59734 0.66655 0.0
C1321 C 0.07832 0.59393 0.66585 0.0
N1322 N 0.07155 0.59006 0.64389 0.0
N1323 N 0.10992 0.59606 0.64504 0.0
C1324 C 0.09086 0.59123 0.63173 0.0
H1325 H 0.11157 0.60296 0.68166 0.0
Co1326 Co 0.14006 0.60531 0.63505 0.0
C1327 C 0.12947 0.59438 0.59407 0.0
O1328 O 0.12328 0.61535 0.59898 0.0
N1329 N 0.16925 0.6147 0.62431 0.0
C1330 C 0.19473 0.63752 0.60635 0.0
C1331 C 0.17197 0.63221 0.60966 0.0
C1332 C 0.19082 0.60966 0.62978 0.0
N1333 N 0.20667 0.62354 0.61914 0.0
O1334 O 0.15253 0.5821 0.65643 0.0
H1335 H 0.15831 0.6417 0.60293 0.0
H1336 H 0.19482 0.59712 0.64232 0.0
O1337 O 0.13718 0.58256 0.61025 0.0
C1338 C 0.15519 0.58218 0.67837 0.0
O1339 O 0.15109 0.60079 0.69061 0.0
N1340 N 0.14253 0.63128 0.65613 0.0
C1341 C 0.15255 0.67937 0.65993 0.0
C1342 C 0.13067 0.67012 0.65331 0.0
C1343 C 0.12611 0.6461 0.65127 0.0
C1344 C 0.16298 0.64006 0.66561 0.0
C1345 C 0.16843 0.66408 0.66733 0.0
H1346 H 0.11044 0.63967 0.64257 0.0
H1347 H 0.17642 0.62875 0.66892 0.0
H1348 H 0.09052 0.59077 0.61327 0.0
H1349 H 0.06703 0.59622 0.6801 0.0
H1350 H 0.20193 0.65182 0.59665 0.0
H1351 H 0.11796 0.68123 0.64716 0.0
H1352 H 0.18553 0.67052 0.67268 0.0
C1353 C 0.45238 0.42687 0.16127 0.0
C1354 C 0.47539 0.42472 0.1588 0.0
N1355 N 0.48114 0.43136 0.13763 0.0
N1356 N 0.44374 0.43441 0.1416 0.0
C1357 C 0.46175 0.43745 0.12766 0.0
H1358 H 0.44228 0.42174 0.17584 0.0
Co1359 Co 0.41302 0.43507 0.13501 0.0
C1360 C 0.4069 0.4253 0.08502 0.0
O1361 O 0.38808 0.41292 0.08984 0.0
N1362 N 0.38138 0.43659 0.12858 0.0
C1363 C 0.35014 0.44979 0.11299 0.0
C1364 C 0.37333 0.45355 0.11595 0.0
C1365 C 0.36242 0.42309 0.13361 0.0
N1366 N 0.34337 0.43056 0.12406 0.0
O1367 O 0.4159 0.4682 0.13885 0.0
H1368 H 0.38384 0.46737 0.1085 0.0
H1369 H 0.36223 0.40747 0.1431 0.0
O1370 O 0.41903 0.43587 0.10126 0.0
C1371 C 0.40732 0.47372 0.15803 0.0
O1372 O 0.39853 0.45717 0.1708 0.0
N1373 N 0.41093 0.40242 0.1338 0.0
C1374 C 0.40557 0.35436 0.13216 0.0
C1375 C 0.42028 0.36607 0.11709 0.0
C1376 C 0.4231 0.3901 0.11855 0.0
C1377 C 0.39994 0.3912 0.15108 0.0
C1378 C 0.39629 0.36701 0.15018 0.0
H1379 H 0.43502 0.39872 0.10731 0.0
H1380 H 0.39307 0.40113 0.16506 0.0
H1381 H 0.46045 0.44208 0.10992 0.0
H1382 H 0.48676 0.4176 0.17107 0.0
H1383 H 0.33919 0.46008 0.10303 0.0
H1384 H 0.42912 0.35676 0.10393 0.0
H1385 H 0.38562 0.3585 0.1628 0.0
C1386 C 0.69939 0.46431 0.09954 0.0
C1387 C 0.69182 0.48619 0.10363 0.0
N1388 N 0.6701 0.48614 0.09585 0.0
N1389 N 0.68256 0.45043 0.0892 0.0
C1390 C 0.66518 0.4645 0.08679 0.0
H1391 H 0.71544 0.45838 0.10548 0.0
Co1392 Co 0.68168 0.41748 0.08635 0.0
C1393 C 0.63288 0.40184 0.08232 0.0
O1394 O 0.63777 0.38482 0.09551 0.0
N1395 N 0.68076 0.38412 0.08285 0.0
C1396 C 0.67259 0.3502 0.06406 0.0
C1397 C 0.67242 0.37378 0.06302 0.0
C1398 C 0.68639 0.36592 0.09557 0.0
N1399 N 0.68149 0.34511 0.08448 0.0
O1400 O 0.69357 0.41901 0.05508 0.0
H1401 H 0.66577 0.38288 0.04878 0.0
H1402 H 0.69396 0.36752 0.11253 0.0
O1403 O 0.64899 0.41637 0.07603 0.0
C1404 C 0.71481 0.4156 0.05714 0.0
O1405 O 0.72314 0.41469 0.07812 0.0
N1406 N 0.67287 0.41636 0.11732 0.0
C1407 C 0.66081 0.4113 0.16289 0.0
C1408 C 0.64757 0.42368 0.14809 0.0
C1409 C 0.6539 0.42605 0.12543 0.0
C1410 C 0.68787 0.40787 0.13239 0.0
C1411 C 0.68184 0.40434 0.15516 0.0
H1412 H 0.64307 0.43523 0.11439 0.0
H1413 H 0.70432 0.40309 0.12653 0.0
H1414 H 0.64859 0.4587 0.08002 0.0
H1415 H 0.70085 0.50034 0.11339 0.0
H1416 H 0.66593 0.33774 0.05094 0.0
H1417 H 0.63197 0.43085 0.15372 0.0
H1418 H 0.69311 0.39547 0.16618 0.0
C1419 C 0.83973 0.57114 0.60006 0.0
C1420 C 0.84195 0.54771 0.60213 0.0
N1421 N 0.86438 0.54434 0.60311 0.0
N1422 N 0.86067 0.58232 0.59955 0.0
C1423 C 0.87529 0.56547 0.60139 0.0
H1424 H 0.82387 0.57948 0.59888 0.0
Co1425 Co 0.86682 0.61386 0.59571 0.0
C1426 C 0.9167 0.62233 0.5936 0.0
O1427 O 0.91391 0.64154 0.6056 0.0
N1428 N 0.87251 0.64581 0.59054 0.0
C1429 C 0.88354 0.67641 0.57026 0.0
C1430 C 0.88185 0.65277 0.57064 0.0
C1431 C 0.86825 0.66584 0.60182 0.0
N1432 N 0.87494 0.68465 0.58983 0.0
O1433 O 0.85568 0.6102 0.56393 0.0
H1434 H 0.88753 0.64127 0.55725 0.0
H1435 H 0.86015 0.66691 0.61821 0.0
O1436 O 0.89912 0.60882 0.58753 0.0
C1437 C 0.83581 0.61796 0.56335 0.0
O1438 O 0.82667 0.62355 0.58301 0.0
N1439 N 0.87513 0.61751 0.6276 0.0
C1440 C 0.88325 0.62454 0.67496 0.0
C1441 C 0.89757 0.61142 0.66161 0.0
C1442 C 0.89308 0.60788 0.63806 0.0
C1443 C 0.85987 0.62834 0.64079 0.0
C1444 C 0.86393 0.63269 0.6643 0.0
H1445 H 0.90422 0.59733 0.62847 0.0
H1446 H 0.84442 0.63381 0.63297 0.0
H1447 H 0.89362 0.5684 0.60115 0.0
H1448 H 0.82822 0.53429 0.60321 0.0
H1449 H 0.89107 0.68671 0.5568 0.0
H1450 H 0.91237 0.6043 0.6692 0.0
H1451 H 0.85188 0.64212 0.67412 0.0
C1452 C 0.65095 0.43385 0.68517 0.0
C1453 C 0.67417 0.43298 0.68371 0.0
N1454 N 0.67909 0.4106 0.68443 0.0
N1455 N 0.64123 0.41217 0.68694 0.0
C1456 C 0.65882 0.39838 0.68659 0.0
H1457 H 0.64166 0.44926 0.68399 0.0
Co1458 Co 0.60993 0.40523 0.68651 0.0
C1459 C 0.60197 0.35379 0.68105 0.0
O1460 O 0.58384 0.358 0.66886 0.0
N1461 N 0.57751 0.39911 0.68657 0.0
C1462 C 0.54341 0.3841 0.69738 0.0
C1463 C 0.56625 0.3875 0.70323 0.0
C1464 C 0.56076 0.40355 0.67139 0.0
N1465 N 0.54009 0.39429 0.67737 0.0
O1466 O 0.60941 0.41311 0.71868 0.0
H1467 H 0.57436 0.38083 0.71814 0.0
H1468 H 0.5633 0.41247 0.65567 0.0
O1469 O 0.61414 0.37101 0.69077 0.0
C1470 C 0.60475 0.43441 0.71906 0.0
O1471 O 0.60036 0.44409 0.69959 0.0
N1472 N 0.61123 0.40091 0.65487 0.0
C1473 C 0.60739 0.39595 0.60792 0.0
C1474 C 0.61946 0.38035 0.62027 0.0
C1475 C 0.62178 0.38356 0.64383 0.0
C1476 C 0.60355 0.41856 0.6427 0.0
C1477 C 0.60071 0.41612 0.61901 0.0
H1478 H 0.63159 0.37173 0.65303 0.0
H1479 H 0.59799 0.4338 0.65162 0.0
H1480 H 0.65683 0.37971 0.68719 0.0
H1481 H 0.68633 0.44756 0.68101 0.0
H1482 H 0.53037 0.37445 0.70679 0.0
H1483 H 0.62635 0.36543 0.6119 0.0
H1484 H 0.59221 0.42908 0.60979 0.0
C1485 C 0.29043 0.56917 0.88734 0.0
C1486 C 0.28972 0.54543 0.884 0.0
N1487 N 0.30553 0.53726 0.89799 0.0
N1488 N 0.30695 0.57573 0.90298 0.0
C1489 C 0.31512 0.55595 0.90975 0.0
H1490 H 0.28108 0.58103 0.87754 0.0
Co1491 Co 0.31902 0.60535 0.90951 0.0
C1492 C 0.36559 0.58636 0.92536 0.0
O1493 O 0.36203 0.57767 0.9456 0.0
N1494 N 0.33063 0.63517 0.91647 0.0
C1495 C 0.35151 0.66702 0.92812 0.0
C1496 C 0.35119 0.64338 0.92533 0.0
C1497 C 0.3187 0.65398 0.91452 0.0
N1498 N 0.33106 0.67346 0.92123 0.0
O1499 O 0.31094 0.60236 0.94125 0.0
H1500 H 0.36528 0.6332 0.9294 0.0
H1501 H 0.3013 0.65353 0.90808 0.0
O1502 O 0.34946 0.59528 0.91471 0.0
C1503 C 0.29188 0.61064 0.94566 0.0
O1504 O 0.27993 0.61844 0.92873 0.0
N1505 N 0.32626 0.60877 0.87805 0.0
C1506 C 0.3428 0.61962 0.83479 0.0
C1507 C 0.34974 0.60015 0.84597 0.0
C1508 C 0.34101 0.59481 0.86742 0.0
C1509 C 0.31707 0.62585 0.86611 0.0
C1510 C 0.32536 0.63184 0.84459 0.0
H1511 H 0.34691 0.57992 0.87582 0.0
H1512 H 0.30381 0.6355 0.8735 0.0
H1513 H 0.32962 0.55536 0.9212 0.0
H1514 H 0.27993 0.53531 0.87081 0.0
H1515 H 0.36593 0.67868 0.93373 0.0
H1516 H 0.36236 0.5895 0.83856 0.0
H1517 H 0.31897 0.64663 0.83633 0.0
C1518 C 0.16583 0.41641 0.41133 0.0
C1519 C 0.16555 0.43941 0.4059 0.0
N1520 N 0.14576 0.44728 0.41307 0.0
N1521 N 0.14616 0.40963 0.42158 0.0
C1522 C 0.13439 0.42899 0.4226 0.0
H1523 H 0.17878 0.40486 0.40652 0.0
Co1524 Co 0.13673 0.37827 0.42562 0.0
C1525 C 0.08968 0.3947 0.442 0.0
O1526 O 0.0948 0.40471 0.46214 0.0
N1527 N 0.12698 0.3463 0.42931 0.0
C1528 C 0.10539 0.31503 0.43916 0.0
C1529 C 0.10971 0.33861 0.44266 0.0
C1530 C 0.13336 0.32666 0.41845 0.0
N1531 N 0.12018 0.30734 0.4237 0.0
O1532 O 0.14561 0.38148 0.45802 0.0
H1533 H 0.10031 0.34949 0.45394 0.0
H1534 H 0.14731 0.32649 0.40673 0.0
O1535 O 0.10524 0.38591 0.43025 0.0
C1536 C 0.16583 0.37455 0.45897 0.0
O1537 O 0.17462 0.36724 0.43969 0.0
N1538 N 0.13079 0.37511 0.39412 0.0
C1539 C 0.12465 0.36719 0.34715 0.0
C1540 C 0.10992 0.38081 0.3595 0.0
C1541 C 0.11345 0.38481 0.38294 0.0
C1542 C 0.14668 0.36408 0.38201 0.0
C1543 C 0.14361 0.35928 0.35858 0.0
H1544 H 0.10246 0.39613 0.39179 0.0
H1545 H 0.16172 0.35872 0.39068 0.0
H1546 H 0.11704 0.42942 0.42826 0.0
H1547 H 0.17834 0.44925 0.39634 0.0
H1548 H 0.09189 0.30465 0.44713 0.0
H1549 H 0.09592 0.38858 0.3511 0.0
H1550 H 0.15581 0.34924 0.34966 0.0
C1551 C 0.35732 0.5878 0.31689 0.0
C1552 C 0.33416 0.58637 0.31993 0.0
N1553 N 0.32699 0.608 0.31966 0.0
N1554 N 0.36467 0.61018 0.31472 0.0
C1555 C 0.34584 0.62211 0.31622 0.0
H1556 H 0.36832 0.57358 0.31708 0.0
Co1557 Co 0.39499 0.61951 0.31284 0.0
C1558 C 0.40022 0.67065 0.31635 0.0
O1559 O 0.419 0.66802 0.32819 0.0
N1560 N 0.42637 0.62795 0.3101 0.0
C1561 C 0.45852 0.64388 0.29587 0.0
C1562 C 0.43551 0.63926 0.29211 0.0
C1563 C 0.44441 0.62518 0.3241 0.0
N1564 N 0.46398 0.63517 0.31615 0.0
O1565 O 0.39343 0.61222 0.28051 0.0
H1566 H 0.42584 0.6448 0.27763 0.0
H1567 H 0.44356 0.61634 0.33997 0.0
O1568 O 0.38808 0.65264 0.30838 0.0
C1569 C 0.40312 0.59358 0.27609 0.0
O1570 O 0.41213 0.58278 0.29309 0.0
N1571 N 0.39581 0.62449 0.34515 0.0
C1572 C 0.39809 0.63033 0.39276 0.0
C1573 C 0.3857 0.64493 0.3795 0.0
C1574 C 0.38417 0.64125 0.35591 0.0
C1575 C 0.40556 0.60841 0.35798 0.0
C1576 C 0.40767 0.61145 0.38185 0.0
H1577 H 0.37333 0.65191 0.34654 0.0
H1578 H 0.41226 0.59344 0.34959 0.0
H1579 H 0.34599 0.64076 0.3154 0.0
H1580 H 0.32365 0.57073 0.32326 0.0
H1581 H 0.47004 0.65387 0.28507 0.0
H1582 H 0.37732 0.65928 0.38721 0.0
H1583 H 0.4164 0.59906 0.39163 0.0
H1584 H 0.15167 0.33612 0.0196 0.0
H1585 H 0.12428 0.4202 0.91991 0.0
H1586 H 0.0927 0.3765 0.02045 0.0
H1587 H 0.19129 0.39657 0.93268 0.0
H1588 H 0.11174 0.40439 0.95624 0.0
H1589 H 0.16519 0.35637 0.98588 0.0
C1590 C 0.14139 0.34899 0.01241 0.0
C1591 C 0.12097 0.35458 0.02259 0.0
C1592 C 0.12927 0.40296 0.95121 0.0
C1593 C 0.13653 0.37817 0.98449 0.0
C1594 C 0.13651 0.41218 0.9306 0.0
C1595 C 0.15877 0.40939 0.92316 0.0
C1596 C 0.14435 0.39071 0.96422 0.0
C1597 C 0.17382 0.3986 0.93756 0.0
C1598 C 0.14927 0.36081 0.99342 0.0
C1599 C 0.10855 0.37179 0.01299 0.0
N1600 N 0.16623 0.38934 0.95728 0.0
N1601 N 0.1165 0.38299 0.99437 0.0
H1602 H 0.8725 0.80308 0.27756 0.0
H1603 H 0.83086 0.89879 0.1941 0.0
H1604 H 0.90685 0.87066 0.2698 0.0
H1605 H 0.81969 0.82613 0.17475 0.0
H1606 H 0.85005 0.88846 0.22917 0.0
H1607 H 0.84593 0.81095 0.24587 0.0
C1608 C 0.87439 0.81952 0.26918 0.0
C1609 C 0.89203 0.83614 0.27602 0.0
C1610 C 0.84307 0.87472 0.21747 0.0
C1611 C 0.86155 0.84547 0.24059 0.0
C1612 C 0.83187 0.88057 0.19753 0.0
C1613 C 0.82383 0.86334 0.18127 0.0
C1614 C 0.84625 0.85138 0.22146 0.0
C1615 C 0.82561 0.84001 0.18676 0.0
C1616 C 0.85931 0.82397 0.25119 0.0
C1617 C 0.89376 0.85723 0.26478 0.0
N1618 N 0.83695 0.83467 0.20631 0.0
N1619 N 0.87868 0.86133 0.24779 0.0
H1620 H 0.44122 0.64821 0.53615 0.0
H1621 H 0.365 0.64238 0.42204 0.0
H1622 H 0.3759 0.67685 0.52956 0.0
H1623 H 0.43628 0.62878 0.42043 0.0
H1624 H 0.36946 0.654 0.46223 0.0
H1625 H 0.44155 0.64161 0.49416 0.0
C1626 C 0.42737 0.65379 0.5257 0.0
C1627 C 0.40846 0.66302 0.53601 0.0
C1628 C 0.38423 0.64859 0.45317 0.0
C1629 C 0.40831 0.65503 0.4887 0.0
C1630 C 0.38166 0.6419 0.43018 0.0
C1631 C 0.40037 0.63489 0.41781 0.0
C1632 C 0.40564 0.6481 0.46412 0.0
C1633 C 0.42141 0.63401 0.42943 0.0
C1634 C 0.4274 0.64981 0.50189 0.0
C1635 C 0.39069 0.66963 0.52206 0.0
N1636 N 0.42352 0.64059 0.45203 0.0
N1637 N 0.39091 0.66527 0.49916 0.0
H1638 H 0.64771 0.18082 0.67646 0.0
H1639 H 0.59119 0.10762 0.77387 0.0
H1640 H 0.6382 0.10627 0.67221 0.0
H1641 H 0.62447 0.17537 0.78918 0.0
H1642 H 0.60936 0.10715 0.73654 0.0
H1643 H 0.64229 0.17981 0.71807 0.0
C1644 C 0.64569 0.16419 0.68451 0.0
C1645 C 0.64386 0.14355 0.67109 0.0
C1646 C 0.61293 0.12206 0.74811 0.0
C1647 C 0.63628 0.14229 0.71819 0.0
C1648 C 0.60234 0.12241 0.76931 0.0
C1649 C 0.60615 0.14166 0.78448 0.0
C1650 C 0.62716 0.14129 0.74176 0.0
C1651 C 0.62111 0.16022 0.77791 0.0
C1652 C 0.64223 0.16362 0.70818 0.0
C1653 C 0.64022 0.1225 0.68212 0.0
N1654 N 0.63082 0.15975 0.75686 0.0
N1655 N 0.63608 0.12241 0.70494 0.0
H1656 H 0.13773 0.65948 0.47391 0.0
H1657 H 0.09407 0.57526 0.56785 0.0
H1658 H 0.08118 0.60916 0.45895 0.0
H1659 H 0.16417 0.60219 0.56524 0.0
H1660 H 0.08878 0.58482 0.5276 0.0
H1661 H 0.14686 0.63855 0.50807 0.0
C1662 C 0.12714 0.64408 0.47787 0.0
C1663 C 0.10851 0.63619 0.46364 0.0
C1664 C 0.10557 0.5878 0.53554 0.0
C1665 C 0.11913 0.61185 0.50265 0.0
C1666 C 0.10871 0.58189 0.55837 0.0
C1667 C 0.1297 0.58754 0.5697 0.0
C1668 C 0.1234 0.60004 0.52433 0.0
C1669 C 0.14786 0.59711 0.55696 0.0
C1670 C 0.13258 0.63192 0.4972 0.0
C1671 C 0.09569 0.61582 0.46944 0.0
N1672 N 0.14414 0.60367 0.53515 0.0
N1673 N 0.10106 0.60448 0.48867 0.0
H1674 H 0.65988 0.8844 0.81391 0.0
H1675 H 0.57218 0.84338 0.71784 0.0
H1676 H 0.60859 0.82837 0.82386 0.0
H1677 H 0.64101 0.86653 0.70068 0.0
H1678 H 0.58475 0.83939 0.75758 0.0
H1679 H 0.65406 0.87893 0.77251 0.0
C1680 C 0.64773 0.87067 0.80741 0.0
C1681 C 0.63424 0.85722 0.82231 0.0
C1682 C 0.59716 0.84502 0.74504 0.0
C1683 C 0.62726 0.85132 0.77533 0.0
C1684 C 0.58995 0.84752 0.72257 0.0
C1685 C 0.60563 0.85538 0.70633 0.0
C1686 C 0.62008 0.85095 0.75122 0.0
C1687 C 0.62855 0.86034 0.71292 0.0
C1688 C 0.64441 0.86761 0.78383 0.0
C1689 C 0.61873 0.8397 0.81297 0.0
N1690 N 0.6351 0.85838 0.73509 0.0
N1691 N 0.61531 0.83755 0.79002 0.0
H1692 H 0.4471 0.34018 0.97472 0.0
H1693 H 0.38531 0.43496 0.04568 0.0
H1694 H 0.40458 0.38791 0.94226 0.0
H1695 H 0.44648 0.40688 0.07098 0.0
H1696 H 0.39267 0.41892 0.0074 0.0
H1697 H 0.44686 0.36386 0.01021 0.0
C1698 C 0.43773 0.35563 0.97497 0.0
C1699 C 0.42566 0.36184 0.95536 0.0
C1700 C 0.40477 0.41665 0.02119 0.0
C1701 C 0.42556 0.38927 0.99608 0.0
C1702 C 0.4007 0.42603 0.04298 0.0
C1703 C 0.41537 0.42243 0.06148 0.0
C1704 C 0.42325 0.40282 0.018 0.0
C1705 C 0.43478 0.41021 0.0572 0.0
C1706 C 0.43783 0.36929 0.99522 0.0
C1707 C 0.4142 0.38237 0.95677 0.0
N1708 N 0.4379 0.4004 0.03601 0.0
N1709 N 0.41422 0.39515 0.9768 0.0
H1710 H 0.91458 0.11548 0.21844 0.0
H1711 H 0.83181 0.15667 0.31515 0.0
H1712 H 0.88053 0.17878 0.21309 0.0
H1713 H 0.84889 0.08575 0.30474 0.0
H1714 H 0.84912 0.16602 0.27828 0.0
H1715 H 0.89154 0.10546 0.25145 0.0
C1716 C 0.90235 0.12738 0.22439 0.0
C1717 C 0.8996 0.14811 0.21325 0.0
C1718 C 0.84875 0.14836 0.28397 0.0
C1719 C 0.87289 0.13663 0.25088 0.0
C1720 C 0.83874 0.14298 0.30489 0.0
C1721 C 0.83923 0.12049 0.31315 0.0
C1722 C 0.8594 0.13114 0.27144 0.0
C1723 C 0.8486 0.10344 0.29927 0.0
C1724 C 0.889 0.12153 0.24306 0.0
C1725 C 0.88311 0.16264 0.22131 0.0
N1726 N 0.85858 0.10919 0.27927 0.0
N1727 N 0.87046 0.15674 0.23984 0.0
H1728 H 0.88927 0.07745 0.41682 0.0
H1729 H 0.99158 0.12327 0.34191 0.0
H1730 H 0.90521 0.14994 0.40421 0.0
H1731 H 0.01028 0.08072 0.39752 0.0
H1732 H 0.95282 0.12274 0.3564 0.0
H1733 H 0.92806 0.06938 0.40393 0.0
C1734 C 0.90094 0.09169 0.41187 0.0
C1735 C 0.89381 0.11444 0.41156 0.0
C1736 C 0.96535 0.11325 0.36526 0.0
C1737 C 0.93749 0.10517 0.39612 0.0
C1738 C 0.98751 0.11361 0.35706 0.0
C1739 C 0.00447 0.10256 0.36881 0.0
C1740 C 0.95977 0.10158 0.38531 0.0
C1741 C 0.99783 0.08964 0.388 0.0
C1742 C 0.92295 0.08702 0.40438 0.0
C1743 C 0.90966 0.13211 0.40461 0.0
N1744 N 0.976 0.08973 0.39588 0.0
N1745 N 0.93042 0.12705 0.39686 0.0
H1746 H 0.15457 0.82725 0.63504 0.0
H1747 H 0.19064 0.69612 0.63792 0.0
H1748 H 0.20249 0.79849 0.5887 0.0
H1749 H 0.12993 0.71849 0.66998 0.0
H1750 H 0.19926 0.73555 0.625 0.0
H1751 H 0.14929 0.7895 0.65296 0.0
C1752 C 0.16414 0.81311 0.62874 0.0
C1753 C 0.1789 0.81608 0.61018 0.0
C1754 C 0.1842 0.73193 0.63511 0.0
C1755 C 0.17289 0.77278 0.63063 0.0
C1756 C 0.1794 0.70947 0.64273 0.0
C1757 C 0.1596 0.70401 0.65523 0.0
C1758 C 0.1692 0.74922 0.64011 0.0
C1759 C 0.14537 0.72194 0.66041 0.0
C1760 C 0.161 0.79151 0.6389 0.0
C1761 C 0.19068 0.79697 0.60269 0.0
N1762 N 0.15042 0.74372 0.65282 0.0
N1763 N 0.18742 0.77622 0.6129 0.0
H1764 H 0.45536 0.93494 0.8954 0.0
H1765 H 0.56411 0.86222 0.91578 0.0
H1766 H 0.4641 0.86874 0.86156 0.0
H1767 H 0.56787 0.93701 0.91868 0.0
H1768 H 0.52305 0.86184 0.90684 0.0
H1769 H 0.49282 0.9333 0.91424 0.0
C1770 C 0.46511 0.92003 0.89203 0.0
C1771 C 0.45677 0.90208 0.87668 0.0
C1772 C 0.5328 0.87829 0.91004 0.0
C1773 C 0.49924 0.89996 0.89837 0.0
C1774 C 0.55608 0.87851 0.91539 0.0
C1775 C 0.56915 0.8997 0.91793 0.0
C1776 C 0.52268 0.8994 0.9077 0.0
C1777 C 0.55818 0.92036 0.91684 0.0
C1778 C 0.48641 0.91912 0.90275 0.0
C1779 C 0.47009 0.88315 0.8729 0.0
N1780 N 0.53552 0.91973 0.91168 0.0
N1781 N 0.49069 0.88257 0.88368 0.0
H1782 H 0.40124 0.3191 0.16291 0.0
H1783 H 0.36862 0.22424 0.06268 0.0
H1784 H 0.39407 0.33337 0.09114 0.0
H1785 H 0.38321 0.20553 0.13201 0.0
H1786 H 0.37352 0.26496 0.07459 0.0
H1787 H 0.39064 0.27783 0.15367 0.0
C1788 C 0.39737 0.31355 0.14529 0.0
C1789 C 0.39887 0.32952 0.12769 0.0
C1790 C 0.37555 0.25203 0.08731 0.0
C1791 C 0.38671 0.28284 0.11711 0.0
C1792 C 0.3728 0.22878 0.08046 0.0
C1793 C 0.37581 0.21159 0.09631 0.0
C1794 C 0.38148 0.25822 0.11021 0.0
C1795 C 0.38071 0.21834 0.1193 0.0
C1796 C 0.39139 0.29009 0.14003 0.0
C1797 C 0.39365 0.32155 0.10516 0.0
N1798 N 0.38364 0.24124 0.12557 0.0
N1799 N 0.38789 0.29881 0.10054 0.0
H1800 H 0.0356 0.88819 0.1437 0.0
H1801 H 0.90159 0.87613 0.16459 0.0
H1802 H 0.00478 0.89354 0.21016 0.0
H1803 H 0.93083 0.86481 0.09811 0.0
H1804 H 0.93949 0.88597 0.18068 0.0
H1805 H 0.99765 0.88316 0.12593 0.0
C1806 C 0.02086 0.88859 0.15456 0.0
C1807 C 0.02333 0.89134 0.17851 0.0
C1808 C 0.93773 0.88137 0.16256 0.0
C1809 C 0.97994 0.8852 0.15825 0.0
C1810 C 0.9161 0.87561 0.15338 0.0
C1811 C 0.91318 0.86914 0.13008 0.0
C1812 C 0.95671 0.88076 0.14838 0.0
C1813 C 0.93243 0.86955 0.11619 0.0
C1814 C 0.99921 0.88554 0.14438 0.0
C1815 C 1.00365 0.89122 0.19171 0.0
N1816 N 0.95352 0.87508 0.12563 0.0
N1817 N 0.98277 0.88815 0.18139 0.0
H1818 H 0.33627 0.78583 0.38148 0.0
H1819 H 0.42446 0.71158 0.31329 0.0
H1820 H 0.40936 0.79272 0.39064 0.0
H1821 H 0.3565 0.68241 0.32645 0.0
H1822 H 0.41522 0.74798 0.33192 0.0
H1823 H 0.34024 0.75303 0.35382 0.0
C1824 C 0.35308 0.78035 0.37764 0.0
C1825 C 0.37251 0.79157 0.38854 0.0
C1826 C 0.40213 0.7338 0.33032 0.0
C1827 C 0.37722 0.75511 0.35662 0.0
C1828 C 0.40727 0.71314 0.31936 0.0
C1829 C 0.39133 0.69386 0.31856 0.0
C1830 C 0.38086 0.7353 0.34062 0.0
C1831 C 0.36933 0.69681 0.32679 0.0
C1832 C 0.35534 0.76181 0.36191 0.0
C1833 C 0.39397 0.78416 0.38294 0.0
N1834 N 0.36483 0.71707 0.33796 0.0
N1835 N 0.39575 0.76651 0.36732 0.0
H1836 H 0.53463 0.17012 0.59871 0.0
H1837 H 0.46028 0.06411 0.65103 0.0
H1838 H 0.55337 0.09925 0.59346 0.0
H1839 H 0.45677 0.13588 0.6722 0.0
H1840 H 0.48957 0.07585 0.62323 0.0
H1841 H 0.49955 0.15668 0.61767 0.0
C1842 C 0.53111 0.15172 0.60109 0.0
C1843 C 0.54705 0.13586 0.59484 0.0
C1844 C 0.4824 0.08898 0.63403 0.0
C1845 C 0.50736 0.12047 0.61669 0.0
C1846 C 0.46597 0.08228 0.64993 0.0
C1847 C 0.45673 0.09905 0.66414 0.0
C1848 C 0.48914 0.11264 0.6322 0.0
C1849 C 0.46408 0.12243 0.66196 0.0
C1850 C 0.5112 0.14407 0.61198 0.0
C1851 C 0.54152 0.11211 0.59794 0.0
N1852 N 0.47986 0.12856 0.64622 0.0
N1853 N 0.52226 0.10515 0.60902 0.0
H1854 H 0.20106 0.23596 0.86259 0.0
H1855 H 0.20755 0.36304 0.82895 0.0
H1856 H 0.20218 0.28426 0.92069 0.0
H1857 H 0.13924 0.33007 0.82504 0.0
H1858 H 0.21967 0.33077 0.85113 0.0
H1859 H 0.19235 0.2673 0.8375 0.0
C1860 C 0.19962 0.25302 0.87024 0.0
C1861 C 0.20166 0.25703 0.89418 0.0
C1862 C 0.20212 0.33061 0.84509 0.0
C1863 C 0.19275 0.29333 0.865 0.0
C1864 C 0.19511 0.34902 0.83229 0.0
C1865 C 0.17211 0.34986 0.82529 0.0
C1866 C 0.18628 0.31236 0.85028 0.0
C1867 C 0.15707 0.33056 0.83014 0.0
C1868 C 0.19473 0.27093 0.85575 0.0
C1869 C 0.2003 0.28006 0.90254 0.0
N1870 N 0.16438 0.31269 0.84234 0.0
N1871 N 0.19594 0.2973 0.88801 0.0
H1872 H 0.39809 0.91592 0.15465 0.0
H1873 H 0.40242 0.0324 0.08454 0.0
H1874 H 0.4276 0.92193 0.08783 0.0
H1875 H 0.35515 0.01671 0.13864 0.0
H1876 H 0.41997 0.99599 0.09115 0.0
H1877 H 0.39169 0.95716 0.15508 0.0
C1878 C 0.40424 0.92606 0.14053 0.0
C1879 C 0.41345 0.91545 0.12117 0.0
C1880 C 0.40586 1.00064 0.10166 0.0
C1881 C 0.40567 0.96259 0.1213 0.0
C1882 C 0.39585 0.02141 0.09793 0.0
C1883 C 0.3771 0.0275 0.11088 0.0
C1884 C 0.39724 0.98594 0.11864 0.0
C1885 C 0.36925 0.01251 0.12795 0.0
C1886 C 0.40023 0.9496 0.14063 0.0
C1887 C 0.42064 0.92954 0.10317 0.0
N1888 N 0.3793 0.9924 0.13128 0.0
N1889 N 0.41632 0.95234 0.10351 0.0
H1890 H 0.85517 0.59019 0.90276 0.0
H1891 H 0.91015 0.47236 0.91109 0.0
H1892 H 0.9282 0.58891 0.91093 0.0
H1893 H 0.84038 0.48148 0.92816 0.0
H1894 H 0.91885 0.51452 0.91512 0.0
H1895 H 0.85047 0.55062 0.915 0.0
C1896 C 0.87032 0.58147 0.90704 0.0
C1897 C 0.89217 0.5927 0.90538 0.0
C1898 C 0.90184 0.50729 0.91884 0.0
C1899 C 0.88685 0.54691 0.91934 0.0
C1900 C 0.89696 0.4833 0.91674 0.0
C1901 C 0.87458 0.47373 0.91947 0.0
C1902 C 0.88402 0.52165 0.92322 0.0
C1903 C 0.85784 0.48837 0.92617 0.0
C1904 C 0.86758 0.55888 0.91432 0.0
C1905 C 0.91109 0.5807 0.91171 0.0
N1906 N 0.86278 0.51169 0.92739 0.0
N1907 N 0.90804 0.55816 0.91797 0.0
H1908 H 0.77722 0.5813 0.12679 0.0
H1909 H 0.68104 0.64153 0.19705 0.0
H1910 H 0.78751 0.60549 0.1969 0.0
H1911 H 0.68406 0.63465 0.12328 0.0
H1912 H 0.71607 0.62099 0.20001 0.0
H1913 H 0.73721 0.59018 0.12875 0.0
C1914 C 0.77061 0.58759 0.14287 0.0
C1915 C 0.78525 0.5927 0.1617 0.0
C1916 C 0.70892 0.62395 0.18324 0.0
C1917 C 0.74036 0.60411 0.16385 0.0
C1918 C 0.68923 0.63594 0.18152 0.0
C1919 C 0.67971 0.63974 0.15989 0.0
C1920 C 0.71889 0.61565 0.16318 0.0
C1921 C 0.69066 0.63181 0.1403 0.0
C1922 C 0.74801 0.59301 0.14394 0.0
C1923 C 0.77638 0.6012 0.18217 0.0
N1924 N 0.70963 0.62007 0.14243 0.0
N1925 N 0.75447 0.6072 0.18261 0.0
H1926 H 0.63142 0.46374 0.35984 0.0
H1927 H 0.64376 0.5801 0.43035 0.0
H1928 H 0.60764 0.46029 0.42937 0.0
H1929 H 0.69921 0.55373 0.39228 0.0
H1930 H 0.62497 0.54035 0.42993 0.0
H1931 H 0.6496 0.50208 0.3689 0.0
C1932 C 0.63003 0.47098 0.37707 0.0
C1933 C 0.61848 0.4584 0.39404 0.0
C1934 C 0.64147 0.54337 0.42211 0.0
C1935 C 0.63887 0.50281 0.40429 0.0
C1936 C 0.65223 0.56591 0.42247 0.0
C1937 C 0.67279 0.57022 0.41082 0.0
C1938 C 0.65131 0.5255 0.40972 0.0
C1939 C 0.68307 0.55127 0.40086 0.0
C1940 C 0.64038 0.49293 0.38218 0.0
C1941 C 0.61647 0.46932 0.4158 0.0
N1942 N 0.672 0.5299 0.40007 0.0
N1943 N 0.62666 0.491 0.42039 0.0
H1944 H 0.28862 0.84208 0.10965 0.0
H1945 H 0.22487 0.92646 0.19267 0.0
H1946 H 0.31906 0.87109 0.17297 0.0
H1947 H 0.18821 0.87328 0.1502 0.0
H1948 H 0.26083 0.91026 0.18199 0.0
H1949 H 0.25215 0.85725 0.12072 0.0
C1950 C 0.28751 0.85161 0.12585 0.0
C1951 C 0.30655 0.8553 0.14055 0.0
C1952 C 0.24487 0.90213 0.17511 0.0
C1953 C 0.2656 0.8728 0.15303 0.0
C1954 C 0.22449 0.91142 0.18106 0.0
C1955 C 0.20376 0.90111 0.17228 0.0
C1956 C 0.24437 0.8827 0.15997 0.0
C1957 C 0.20394 0.88152 0.15747 0.0
C1958 C 0.26684 0.86014 0.13218 0.0
C1959 C 0.30453 0.86772 0.16136 0.0
N1960 N 0.22402 0.87299 0.1516 0.0
N1961 N 0.2844 0.87621 0.16695 0.0
H1962 H 0.12007 0.98058 0.59017 0.0
H1963 H 0.10277 0.09972 0.66154 0.0
H1964 H 0.17303 0.01638 0.63268 0.0
H1965 H 0.05657 0.07207 0.60767 0.0
H1966 H 0.12745 0.06803 0.65346 0.0
H1967 H 0.09522 0.012 0.59894 0.0
C1968 C 0.12652 0.99493 0.6014 0.0
C1969 C 0.14894 0.99569 0.61046 0.0
C1970 C 0.11195 0.06893 0.64333 0.0
C1971 C 0.12028 0.03204 0.6207 0.0
C1972 C 0.09791 0.08726 0.64779 0.0
C1973 C 0.07773 0.0892 0.63487 0.0
C1974 C 0.10565 0.05189 0.62611 0.0
C1975 C 0.07198 0.07161 0.61802 0.0
C1976 C 0.1123 0.013 0.60633 0.0
C1977 C 0.15615 0.01501 0.62489 0.0
N1978 N 0.08577 0.05386 0.61416 0.0
N1979 N 0.14195 0.03223 0.62955 0.0
H1980 H 0.65657 0.35616 0.34219 0.0
H1981 H 0.76701 0.42637 0.39245 0.0
H1982 H 0.6758 0.36099 0.41394 0.0
H1983 H 0.77853 0.37784 0.33711 0.0
H1984 H 0.72669 0.41241 0.3922 0.0
H1985 H 0.69591 0.37084 0.33287 0.0
C1986 C 0.66907 0.3597 0.3559 0.0
C1987 C 0.66273 0.3574 0.37894 0.0
C1988 C 0.73787 0.40525 0.37964 0.0
C1989 C 0.7071 0.37497 0.36843 0.0
C1990 C 0.76075 0.41343 0.37958 0.0
C1991 C 0.77602 0.40339 0.36469 0.0
C1992 C 0.72998 0.38682 0.36466 0.0
C1993 C 0.76717 0.38623 0.34863 0.0
C1994 C 0.6914 0.36828 0.35056 0.0
C1995 C 0.67968 0.36264 0.39597 0.0
N1996 N 0.74468 0.37818 0.3492 0.0
N1997 N 0.70078 0.37151 0.39042 0.0
H1998 H 0.80356 0.60372 0.90755 0.0
H1999 H 0.68 0.6374 0.87224 0.0
H2000 H 0.78309 0.67336 0.92039 0.0
H2001 H 0.69462 0.56856 0.89215 0.0
H2002 H 0.71852 0.65161 0.88524 0.0
H2003 H 0.7644 0.59112 0.89753 0.0
C2004 C 0.7909 0.61641 0.90872 0.0
C2005 C 0.79696 0.63974 0.91519 0.0
C2006 C 0.71311 0.63342 0.88678 0.0
C2007 C 0.75179 0.62528 0.90257 0.0
C2008 C 0.69111 0.62525 0.87938 0.0
C2009 C 0.68388 0.60162 0.88088 0.0
C2010 C 0.72802 0.61782 0.89547 0.0
C2011 C 0.69933 0.58677 0.89009 0.0
C2012 C 0.76846 0.60914 0.90269 0.0
C2013 C 0.77954 0.65529 0.91529 0.0
N2014 N 0.72062 0.59509 0.89688 0.0
N2015 N 0.75777 0.64782 0.9089 0.0
H2016 H 0.84923 0.59521 0.10485 0.0
H2017 H 0.92467 0.61511 0.99288 0.0
H2018 H 0.91928 0.57806 0.10294 0.0
H2019 H 0.87278 0.65956 0.01479 0.0
H2020 H 0.91793 0.59212 0.02739 0.0
H2021 H 0.85219 0.60832 0.06546 0.0
C2022 C 0.86486 0.59295 0.09571 0.0
C2023 C 0.88386 0.58493 0.1071 0.0
C2024 C 0.90795 0.60682 0.02448 0.0
C2025 C 0.88763 0.60067 0.06208 0.0
C2026 C 0.91177 0.61989 0.00483 0.0
C2027 C 0.89951 0.63946 1.00112 0.0
C2028 C 0.89129 0.61298 0.04017 0.0
C2029 C 0.8829 0.64487 0.01715 0.0
C2030 C 0.86668 0.60091 0.07335 0.0
C2031 C 0.90401 0.58343 0.09461 0.0
N2032 N 0.87925 0.63172 0.03585 0.0
N2033 N 0.90545 0.59139 0.07287 0.0
H2034 H 0.1754 0.13553 0.84794 0.0
H2035 H 0.11838 0.18143 0.73451 0.0
H2036 H 0.18213 0.20651 0.82706 0.0
H2037 H 0.09526 0.11692 0.76488 0.0
H2038 H 0.14716 0.18793 0.76458 0.0
H2039 H 0.15293 0.12503 0.81286 0.0
C2040 C 0.17245 0.14885 0.83596 0.0
C2041 C 0.1795 0.1722 0.84112 0.0
C2042 C 0.13581 0.17232 0.76467 0.0
C2043 C 0.15455 0.16022 0.80074 0.0
C2044 C 0.11902 0.16868 0.74756 0.0
C2045 C 0.10397 0.14859 0.74705 0.0
C2046 C 0.13783 0.15581 0.7815 0.0
C2047 C 0.10644 0.13258 0.76441 0.0
C2048 C 0.15961 0.14283 0.81591 0.0
C2049 C 0.1764 0.1884 0.82414 0.0
N2050 N 0.12303 0.13653 0.78093 0.0
N2051 N 0.16383 0.18221 0.80496 0.0
H2052 H 0.58828 0.35473 0.59148 0.0
H2053 H 0.59104 0.39213 0.46173 0.0
H2054 H 0.60968 0.42384 0.57087 0.0
H2055 H 0.58065 0.32138 0.48289 0.0
H2056 H 0.59016 0.40553 0.50173 0.0
H2057 H 0.5781 0.34382 0.55185 0.0
C2058 C 0.5909 0.36757 0.57849 0.0
C2059 C 0.60033 0.39001 0.58417 0.0
C2060 C 0.58782 0.3871 0.49759 0.0
C2061 C 0.58852 0.37779 0.539 0.0
C2062 C 0.58816 0.37945 0.4748 0.0
C2063 C 0.58617 0.3556 0.46917 0.0
C2064 C 0.58549 0.37073 0.51472 0.0
C2065 C 0.58271 0.33987 0.48667 0.0
C2066 C 0.58493 0.36141 0.55596 0.0
C2067 C 0.60266 0.40628 0.567 0.0
N2068 N 0.58267 0.34773 0.50876 0.0
N2069 N 0.59703 0.39975 0.54499 0.0
H2070 H 0.37519 0.81999 0.225 0.0
H2071 H 0.3759 0.91282 0.32457 0.0
H2072 H 0.42865 0.87432 0.23496 0.0
H2073 H 0.35928 0.8422 0.34373 0.0
H2074 H 0.38817 0.8986 0.28752 0.0
H2075 H 0.36433 0.82572 0.26549 0.0
C2076 C 0.38539 0.83224 0.23606 0.0
C2077 C 0.40316 0.84641 0.2268 0.0
C2078 C 0.38172 0.88616 0.29975 0.0
C2079 C 0.39004 0.85401 0.27237 0.0
C2080 C 0.37445 0.89426 0.32093 0.0
C2081 C 0.36664 0.87874 0.33759 0.0
C2082 C 0.38092 0.86226 0.29465 0.0
C2083 C 0.36507 0.85485 0.33148 0.0
C2084 C 0.37896 0.83576 0.25899 0.0
C2085 C 0.41519 0.86275 0.24157 0.0
N2086 N 0.37219 0.84728 0.31044 0.0
N2087 N 0.40812 0.86647 0.26335 0.0
H2088 H 0.85293 0.43885 0.45448 0.0
H2089 H 0.90759 0.33345 0.51359 0.0
H2090 H 0.90833 0.40434 0.4241 0.0
H2091 H 0.88127 0.38884 0.55416 0.0
H2092 H 0.90375 0.35643 0.47923 0.0
H2093 H 0.85961 0.41903 0.4903 0.0
C2094 C 0.86662 0.42731 0.4553 0.0
C2095 C 0.8797 0.42291 0.43584 0.0
C2096 C 0.8989 0.36359 0.49567 0.0
C2097 C 0.88698 0.39962 0.47675 0.0
C2098 C 0.90096 0.35041 0.51524 0.0
C2099 C 0.89481 0.35922 0.5368 0.0
C2100 C 0.89011 0.38558 0.49749 0.0
C2101 C 0.88642 0.38145 0.53794 0.0
C2102 C 0.87032 0.41588 0.47576 0.0
C2103 C 0.89716 0.40764 0.43816 0.0
N2104 N 0.8841 0.39373 0.51858 0.0
N2105 N 0.90004 0.39632 0.45799 0.0
H2106 H 0.39785 0.19799 0.30659 0.0
H2107 H 0.40151 0.10057 0.20594 0.0
H2108 H 0.40442 0.12613 0.32086 0.0
H2109 H 0.37946 0.16944 0.1976 0.0
H2110 H 0.40891 0.11007 0.24691 0.0
H2111 H 0.39839 0.18843 0.26568 0.0
C2112 C 0.39973 0.18018 0.30104 0.0
C2113 C 0.40078 0.16281 0.31715 0.0
C2114 C 0.40252 0.12307 0.23606 0.0
C2115 C 0.40117 0.15153 0.27001 0.0
C2116 C 0.39836 0.11772 0.21265 0.0
C2117 C 0.38962 0.13417 0.19826 0.0
C2118 C 0.3982 0.14514 0.24509 0.0
C2119 C 0.38579 0.15605 0.20801 0.0
C2120 C 0.39995 0.17469 0.27764 0.0
C2121 C 0.40357 0.14004 0.30899 0.0
N2122 N 0.39009 0.16084 0.23069 0.0
N2123 N 0.40339 0.13497 0.28592 0.0
H2124 H 0.55172 0.5972 0.96464 0.0
H2125 H 0.61656 0.65276 0.0763 0.0
H2126 H 0.62489 0.6073 0.97267 0.0
H2127 H 0.54382 0.65178 0.06578 0.0
H2128 H 0.61924 0.62813 0.04171 0.0
H2129 H 0.54781 0.60847 0.00517 0.0
C2130 C 0.56694 0.60117 0.97519 0.0
C2131 C 0.58863 0.60176 0.96553 0.0
C2132 C 0.60266 0.63331 0.04684 0.0
C2133 C 0.58438 0.61485 0.01131 0.0
C2134 C 0.60123 0.64753 0.06632 0.0
C2135 C 0.58008 0.65481 0.07303 0.0
C2136 C 0.58277 0.6266 0.03392 0.0
C2137 C 0.56044 0.64687 0.0605 0.0
C2138 C 0.56472 0.60774 0.99817 0.0
C2139 C 0.60789 0.60705 0.97961 0.0
N2140 N 0.56226 0.63339 0.04121 0.0
N2141 N 0.6053 0.6137 1.00181 0.0
H2142 H 0.15752 0.86 0.6928 0.0
H2143 H 0.07312 0.90358 0.78856 0.0
H2144 H 0.13045 0.92735 0.69628 0.0
H2145 H 0.09616 0.83417 0.78736 0.0
H2146 H 0.09479 0.9118 0.75492 0.0
H2147 H 0.13739 0.85007 0.7283 0.0
C2148 C 0.14772 0.87282 0.70135 0.0
C2149 C 0.14554 0.89451 0.69174 0.0
C2150 C 0.09505 0.89466 0.76181 0.0
C2151 C 0.12231 0.88325 0.73175 0.0
C2152 C 0.08227 0.88974 0.78107 0.0
C2153 C 0.08248 0.86796 0.79108 0.0
C2154 C 0.10831 0.87779 0.7521 0.0
C2155 C 0.09546 0.85122 0.78042 0.0
C2156 C 0.13608 0.86709 0.72139 0.0
C2157 C 0.13246 0.91043 0.70314 0.0
N2158 N 0.10793 0.8565 0.76153 0.0
N2159 N 0.12129 0.90445 0.72243 0.0
H2160 H 0.11224 0.93021 0.56978 0.0
H2161 H 0.01068 0.8929 0.65169 0.0
H2162 H 0.0994 0.86033 0.5927 0.0
H2163 H 0.00491 0.94858 0.6051 0.0
H2164 H 0.04631 0.88362 0.63359 0.0
H2165 H 0.07506 0.93973 0.58478 0.0
C2166 C 0.10142 0.91677 0.5775 0.0
C2167 C 0.10894 0.89445 0.57994 0.0
C2168 C 0.03724 0.89787 0.62731 0.0
C2169 C 0.06686 0.90534 0.59756 0.0
C2170 C 0.01707 0.90332 0.6378 0.0
C2171 C 0.0049 0.92154 0.62987 0.0
C2172 C 0.0455 0.91093 0.60895 0.0
C2173 C 0.01377 0.9343 0.61157 0.0
C2174 C 0.08029 0.92223 0.58612 0.0
C2175 C 0.09427 0.8777 0.5902 0.0
N2176 N 0.03365 0.92885 0.60177 0.0
N2177 N 0.07412 0.88359 0.59893 0.0
H2178 H 0.84826 0.32281 0.41575 0.0
H2179 H 0.82419 0.1898 0.3788 0.0
H2180 H 0.85396 0.29606 0.34629 0.0
H2181 H 0.81989 0.21714 0.44821 0.0
H2182 H 0.82911 0.22923 0.36541 0.0
H2183 H 0.83296 0.28474 0.42697 0.0
C2184 C 0.84648 0.30876 0.40293 0.0
C2185 C 0.85282 0.31224 0.38022 0.0
C2186 C 0.82677 0.22662 0.38353 0.0
C2187 C 0.83499 0.2689 0.39276 0.0
C2188 C 0.82376 0.20413 0.39118 0.0
C2189 C 0.82192 0.20032 0.41471 0.0
C2190 C 0.82805 0.24527 0.39959 0.0
C2191 C 0.82174 0.21944 0.43 0.0
C2192 C 0.8375 0.28714 0.40925 0.0
C2193 C 0.84945 0.29384 0.36404 0.0
N2194 N 0.82506 0.24116 0.42219 0.0
N2195 N 0.84092 0.27277 0.37069 0.0
H2196 H 0.56215 0.13876 0.11595 0.0
H2197 H 0.43329 0.08349 0.0998 0.0
H2198 H 0.53891 0.0733 0.14337 0.0
H2199 H 0.45608 0.15313 0.08239 0.0
H2200 H 0.47297 0.07599 0.10918 0.0
H2201 H 0.52457 0.1412 0.09754 0.0
C2202 C 0.54905 0.12482 0.11782 0.0
C2203 C 0.55336 0.10588 0.13111 0.0
C2204 C 0.46931 0.09275 0.10284 0.0
C2205 C 0.51035 0.10838 0.1103 0.0
C2206 C 0.44668 0.09693 0.09718 0.0
C2207 C 0.44135 0.11898 0.09029 0.0
C2208 C 0.48669 0.11071 0.10141 0.0
C2209 C 0.45942 0.13588 0.08765 0.0
C2210 C 0.52764 0.12615 0.10738 0.0
C2211 C 0.53602 0.08816 0.13321 0.0
N2212 N 0.48115 0.13148 0.09339 0.0
N2213 N 0.51517 0.08988 0.12301 0.0
H2214 H 0.65539 0.78434 0.9039 0.0
H2215 H 0.56494 0.68317 0.85552 0.0
H2216 H 0.58234 0.78389 0.90961 0.0
H2217 H 0.63328 0.66759 0.87423 0.0
H2218 H 0.57452 0.72386 0.86603 0.0
H2219 H 0.65064 0.74502 0.88536 0.0
C2220 C 0.6384 0.77606 0.90108 0.0
C2221 C 0.61922 0.78728 0.90853 0.0
C2222 C 0.58764 0.71172 0.8675 0.0
C2223 C 0.61366 0.74277 0.88707 0.0
C2224 C 0.58225 0.68847 0.86122 0.0
C2225 C 0.59833 0.67192 0.86385 0.0
C2226 C 0.60934 0.71877 0.87674 0.0
C2227 C 0.62044 0.67982 0.87161 0.0
C2228 C 0.63572 0.75365 0.89062 0.0
C2229 C 0.5976 0.7758 0.90449 0.0
N2230 N 0.62525 0.70269 0.87808 0.0
N2231 N 0.59544 0.75437 0.89405 0.0
H2232 H 0.96899 0.13309 0.86532 0.0
H2233 H 0.09881 0.18277 0.86054 0.0
H2234 H 1.00357 0.15017 0.80253 0.0
H2235 H 0.06899 0.15338 0.92117 0.0
H2236 H 0.06282 0.17379 0.83992 0.0
H2237 H 0.00453 0.14209 0.88646 0.0
C2238 C 0.98393 0.13851 0.85578 0.0
C2239 C 0.98298 0.14081 0.83183 0.0
C2240 C 0.06409 0.16936 0.85775 0.0
C2241 C 0.02388 0.15174 0.85644 0.0
C2242 C 0.08457 0.17476 0.86967 0.0
C2243 C 0.08691 0.16903 0.89274 0.0
C2244 C 0.04568 0.15812 0.86891 0.0
C2245 C 0.068 0.15803 0.9034 0.0
C2246 C 0.00429 0.14382 0.86804 0.0
C2247 C 1.00316 0.14837 0.82088 0.0
N2248 N 0.04814 0.15294 0.89139 0.0
N2249 N 0.02271 0.15364 0.83327 0.0
H2250 H 0.67788 0.23307 0.64049 0.0
H2251 H 0.57684 0.31412 0.6688 0.0
H2252 H 0.61638 0.23441 0.5996 0.0
H2253 H 0.64657 0.33973 0.68322 0.0
H2254 H 0.59037 0.27862 0.6521 0.0
H2255 H 0.66616 0.26682 0.6636 0.0
C2256 C 0.66196 0.24049 0.63643 0.0
C2257 C 0.64823 0.23123 0.61793 0.0
C2258 C 0.60274 0.29185 0.65919 0.0
C2259 C 0.63445 0.26907 0.64452 0.0
C2260 C 0.59505 0.31213 0.66895 0.0
C2261 C 0.61055 0.33027 0.67725 0.0
C2262 C 0.62622 0.28924 0.65783 0.0
C2263 C 0.63395 0.32636 0.67704 0.0
C2264 C 0.65532 0.25968 0.64953 0.0
C2265 C 0.62764 0.24128 0.61344 0.0
N2266 N 0.64112 0.30634 0.66724 0.0
N2267 N 0.62134 0.25946 0.62668 0.0
H2268 H 0.59054 0.90971 0.36967 0.0
H2269 H 0.45508 0.89776 0.34661 0.0
H2270 H 0.55774 0.91368 0.30342 0.0
H2271 H 0.4846 0.89595 0.41462 0.0
H2272 H 0.49307 0.90487 0.33131 0.0
H2273 H 0.55271 0.90642 0.38725 0.0
C2274 C 0.57547 0.91015 0.35882 0.0
C2275 C 0.57743 0.91181 0.33491 0.0
C2276 C 0.49138 0.90299 0.34961 0.0
C2277 C 0.53406 0.90779 0.35494 0.0
C2278 C 0.46959 0.89876 0.35838 0.0
C2279 C 0.46652 0.89591 0.38196 0.0
C2280 C 0.51058 0.9044 0.36439 0.0
C2281 C 0.48608 0.89804 0.39634 0.0
C2282 C 0.55386 0.90812 0.36888 0.0
C2283 C 0.55719 0.91203 0.3218 0.0
N2284 N 0.50729 0.90199 0.38732 0.0
N2285 N 0.53651 0.90996 0.33193 0.0
H2286 H 0.85065 0.78095 0.1286 0.0
H2287 H 0.81319 0.66402 0.18556 0.0
H2288 H 0.77949 0.75791 0.13135 0.0
H2289 H 0.87341 0.70655 0.20793 0.0
H2290 H 0.79948 0.69711 0.16592 0.0
H2291 H 0.85954 0.75182 0.15629 0.0
C2292 C 0.83701 0.76944 0.13499 0.0
C2293 C 0.81447 0.77122 0.12763 0.0
C2294 C 0.81539 0.69934 0.17566 0.0
C2295 C 0.82419 0.7384 0.15935 0.0
C2296 C 0.82312 0.68055 0.18714 0.0
C2297 C 0.8446 0.6825 0.19829 0.0
C2298 C 0.82941 0.71997 0.17506 0.0
C2299 C 0.85691 0.70423 0.19928 0.0
C2300 C 0.84195 0.75313 0.15094 0.0
C2301 C 0.7971 0.75655 0.13657 0.0
N2302 N 0.84939 0.72199 0.18735 0.0
N2303 N 0.80234 0.74043 0.15188 0.0
H2304 H 0.59289 0.0602 0.84372 0.0
H2305 H 0.62489 0.98017 0.94765 0.0
H2306 H 0.59046 0.08505 0.91403 0.0
H2307 H 0.64351 0.96928 0.87728 0.0
H2308 H 0.60665 0.01566 0.93679 0.0
H2309 H 0.60422 0.02315 0.85679 0.0
C2310 C 0.5943 0.05777 0.862 0.0
C2311 C 0.59093 0.07609 0.87771 0.0
C2312 C 0.61471 1.00543 0.92378 0.0
C2313 C 0.60453 0.03338 0.89296 0.0
C2314 C 0.62509 0.98526 0.92997 0.0
C2315 C 0.63604 0.97204 0.91339 0.0
C2316 C 0.61479 0.01196 0.90075 0.0
C2317 C 0.63569 0.97922 0.89068 0.0
C2318 C 0.60102 0.03658 0.86946 0.0
C2319 C 0.59295 0.07165 0.90121 0.0
N2320 N 0.62525 0.99853 0.88507 0.0
N2321 N 0.59991 0.05086 0.90814 0.0
H2322 H 0.08795 0.42761 0.08183 0.0
H2323 H 0.18031 0.53605 0.08781 0.0
H2324 H 0.14991 0.43484 0.12307 0.0
H2325 H 0.10893 0.54858 0.08458 0.0
H2326 H 0.1702 0.49443 0.08523 0.0
H2327 H 0.09636 0.46797 0.06928 0.0
C2328 C 0.10325 0.43753 0.08811 0.0
C2329 C 0.11796 0.428 0.10391 0.0
C2330 C 0.1567 0.50623 0.0846 0.0
C2331 C 0.12785 0.4733 0.0893 0.0
C2332 C 0.16247 0.52997 0.08611 0.0
C2333 C 0.14542 0.5457 0.08705 0.0
C2334 C 0.13365 0.49795 0.08416 0.0
C2335 C 0.12254 0.53692 0.08422 0.0
C2336 C 0.10799 0.46044 0.081 0.0
C2337 C 0.13774 0.44146 0.11128 0.0
N2338 N 0.11721 0.51347 0.0834 0.0
N2339 N 0.14203 0.46324 0.10395 0.0
H2340 H 0.34395 0.32144 0.84129 0.0
H2341 H 0.26579 0.42525 0.87397 0.0
H2342 H 0.34398 0.35674 0.90758 0.0
H2343 H 0.25596 0.38481 0.81066 0.0
H2344 H 0.29536 0.40049 0.88547 0.0
H2345 H 0.31218 0.34386 0.82901 0.0
C2346 C 0.33722 0.3337 0.85332 0.0
C2347 C 0.34705 0.33738 0.8754 0.0
C2348 C 0.28683 0.39697 0.86902 0.0
C2349 C 0.31049 0.36299 0.86154 0.0
C2350 C 0.27003 0.41136 0.86227 0.0
C2351 C 0.25842 0.40739 0.84112 0.0
C2352 C 0.29236 0.37835 0.85456 0.0
C2353 C 0.26441 0.38855 0.8271 0.0
C2354 C 0.31902 0.34647 0.84632 0.0
C2355 C 0.33711 0.35315 0.89041 0.0
N2356 N 0.28102 0.3748 0.834 0.0
N2357 N 0.31965 0.36545 0.88314 0.0
H2358 H 0.41508 0.5521 0.66129 0.0
H2359 H 0.34132 0.45121 0.59651 0.0
H2360 H 0.38713 0.56402 0.59418 0.0
H2361 H 0.34094 0.4633 0.66968 0.0
H2362 H 0.35978 0.49041 0.59244 0.0
H2363 H 0.39233 0.51521 0.66157 0.0
C2364 C 0.40433 0.54679 0.64651 0.0
C2365 C 0.40261 0.56123 0.62788 0.0
C2366 C 0.35501 0.48466 0.60928 0.0
C2367 C 0.37656 0.51928 0.62814 0.0
C2368 C 0.34424 0.46256 0.61157 0.0
C2369 C 0.33981 0.45432 0.63349 0.0
C2370 C 0.36147 0.49804 0.62912 0.0
C2371 C 0.34426 0.46925 0.65258 0.0
C2372 C 0.39125 0.52589 0.64675 0.0
C2373 C 0.38889 0.55331 0.60888 0.0
N2374 N 0.3553 0.4903 0.65002 0.0
N2375 N 0.37617 0.53278 0.60952 0.0
H2376 H 0.80878 0.14682 0.82495 0.0
H2377 H 0.68592 0.09876 0.8645 0.0
H2378 H 0.7916 0.07524 0.84064 0.0
H2379 H 0.70784 0.17182 0.86863 0.0
H2380 H 0.72412 0.09012 0.85366 0.0
H2381 H 0.7714 0.15662 0.83851 0.0
C2382 C 0.79727 0.13316 0.83133 0.0
C2383 C 0.80342 0.11009 0.83156 0.0
C2384 C 0.72064 0.10805 0.85707 0.0
C2385 C 0.76052 0.12123 0.84684 0.0
C2386 C 0.69879 0.11304 0.8635 0.0
C2387 C 0.69351 0.1361 0.86775 0.0
C2388 C 0.73742 0.12621 0.85446 0.0
C2389 C 0.71093 0.15381 0.86531 0.0
C2390 C 0.77591 0.13879 0.83902 0.0
C2391 C 0.78757 0.09314 0.83973 0.0
N2392 N 0.73211 0.14849 0.85871 0.0
N2393 N 0.76687 0.09905 0.84697 0.0
H2394 H 0.89541 0.93879 0.32902 0.0
H2395 H 0.85554 0.02297 0.42916 0.0
H2396 H 0.91812 0.93568 0.3994 0.0
H2397 H 0.82438 0.01555 0.36166 0.0
H2398 H 0.88348 0.9957 0.41734 0.0
H2399 H 0.87571 0.9734 0.33906 0.0
C2400 C 0.89682 0.94592 0.34644 0.0
C2401 C 0.90809 0.9344 0.3635 0.0
C2402 C 0.87048 1.00001 0.40516 0.0
C2403 C 0.88523 0.97329 0.37522 0.0
C2404 C 0.85451 0.01537 0.41193 0.0
C2405 C 0.83756 0.02117 0.39643 0.0
C2406 C 0.86949 0.99057 0.38268 0.0
C2407 C 0.83688 0.01108 0.37427 0.0
C2408 C 0.8854 0.96545 0.35222 0.0
C2409 C 0.90959 0.94419 0.3858 0.0
N2410 N 0.85269 0.99626 0.36803 0.0
N2411 N 0.89784 0.96291 0.39116 0.0
H2412 H 0.34978 0.66912 0.61188 0.0
H2413 H 0.22957 0.6172 0.659 0.0
H2414 H 0.33901 0.64753 0.68122 0.0
H2415 H 0.23913 0.63777 0.58929 0.0
H2416 H 0.27004 0.62781 0.66712 0.0
H2417 H 0.30925 0.65883 0.60317 0.0
C2418 C 0.33896 0.66241 0.62531 0.0
C2419 C 0.34803 0.65875 0.64719 0.0
C2420 C 0.26334 0.62989 0.64998 0.0
C2421 C 0.30163 0.64702 0.63739 0.0
C2422 C 0.24027 0.62356 0.6453 0.0
C2423 C 0.23096 0.62662 0.62345 0.0
C2424 C 0.27723 0.63935 0.63269 0.0
C2425 C 0.24559 0.63536 0.60644 0.0
C2426 C 0.3158 0.65646 0.62031 0.0
C2427 C 0.33296 0.65037 0.664 0.0
N2428 N 0.26795 0.64149 0.61142 0.0
N2429 N 0.31065 0.64467 0.65871 0.0
H2430 H 0.31315 0.42845 0.08867 0.0
H2431 H 0.21102 0.36671 0.15491 0.0
H2432 H 0.32303 0.40506 0.15727 0.0
H2433 H 0.21483 0.36603 0.08114 0.0
H2434 H 0.25148 0.3808 0.15746 0.0
H2435 H 0.27568 0.40742 0.08688 0.0
C2436 C 0.30732 0.41899 0.10343 0.0
C2437 C 0.32107 0.4186 0.1232 0.0
C2438 C 0.24349 0.37718 0.14075 0.0
C2439 C 0.27834 0.3942 0.1212 0.0
C2440 C 0.2205 0.36902 0.13929 0.0
C2441 C 0.20953 0.36567 0.11778 0.0
C2442 C 0.25531 0.38213 0.12057 0.0
C2443 C 0.22252 0.36898 0.09806 0.0
C2444 C 0.28607 0.40674 0.1023 0.0
C2445 C 0.31289 0.40569 0.14169 0.0
N2446 N 0.24462 0.37737 0.09993 0.0
N2447 N 0.29189 0.39411 0.14035 0.0
H2448 H 0.6503 0.8655 0.40735 0.0
H2449 H 0.62749 0.89585 0.53856 0.0
H2450 H 0.66389 0.93442 0.43764 0.0
H2451 H 0.61272 0.82839 0.50556 0.0
H2452 H 0.6388 0.91132 0.50168 0.0
H2453 H 0.63532 0.85235 0.44338 0.0
C2454 C 0.65038 0.87783 0.42176 0.0
C2455 C 0.65875 0.90098 0.41973 0.0
C2456 C 0.63289 0.89319 0.50251 0.0
C2457 C 0.64103 0.88613 0.46098 0.0
C2458 C 0.62626 0.8844 0.52347 0.0
C2459 C 0.61928 0.86078 0.52499 0.0
C2460 C 0.6325 0.87818 0.48311 0.0
C2461 C 0.61833 0.8466 0.50509 0.0
C2462 C 0.64158 0.87036 0.44228 0.0
C2463 C 0.65769 0.91639 0.43865 0.0
N2464 N 0.62501 0.85551 0.48495 0.0
N2465 N 0.64906 0.90863 0.45867 0.0
H2466 H 0.3156 0.31017 0.67591 0.0
H2467 H 0.36198 0.35921 0.7975 0.0
H2468 H 0.31703 0.38394 0.68936 0.0
H2469 H 0.39974 0.31509 0.75362 0.0
H2470 H 0.33438 0.3632 0.76565 0.0
H2471 H 0.33354 0.30576 0.71345 0.0
C2472 C 0.31834 0.32529 0.68738 0.0
C2473 C 0.31441 0.34741 0.67961 0.0
C2474 C 0.34863 0.35254 0.76316 0.0
C2475 C 0.33558 0.34252 0.72237 0.0
C2476 C 0.36427 0.35021 0.78121 0.0
C2477 C 0.38307 0.33677 0.77803 0.0
C2478 C 0.35145 0.34066 0.74215 0.0
C2479 C 0.38549 0.3256 0.75664 0.0
C2480 C 0.32905 0.3228 0.70857 0.0
C2481 C 0.3192 0.36653 0.6949 0.0
N2482 N 0.36974 0.32758 0.73959 0.0
N2483 N 0.32988 0.36372 0.71549 0.0
H2484 H 0.93348 0.19552 0.01972 0.0
H2485 H 0.89602 0.09284 0.92951 0.0
H2486 H 0.91121 0.12671 0.04027 0.0
H2487 H 0.92663 0.1598 0.91188 0.0
H2488 H 0.90421 0.10303 0.97024 0.0
H2489 H 0.93343 0.18132 0.97999 0.0
C2490 C 0.92868 0.17737 0.0158 0.0
C2491 C 0.9222 0.16231 0.03317 0.0
C2492 C 0.90939 0.11533 0.95739 0.0
C2493 C 0.92203 0.14579 0.98777 0.0
C2494 C 0.9048 0.10948 0.93425 0.0
C2495 C 0.91036 0.1257 0.91756 0.0
C2496 C 0.91958 0.13748 0.96359 0.0
C2497 C 0.9217 0.14702 0.92437 0.0
C2498 C 0.92876 0.16919 0.99315 0.0
C2499 C 0.91644 0.13884 0.02731 0.0
N2500 N 0.92572 0.15238 0.94686 0.0
N2501 N 0.91623 0.13131 0.00499 0.0
H2502 H 0.14628 0.60104 0.17511 0.0
H2503 H 0.11443 0.68088 0.28287 0.0
H2504 H 0.13752 0.67371 0.16715 0.0
H2505 H 0.09596 0.60765 0.27408 0.0
H2506 H 0.13117 0.68052 0.24419 0.0
H2507 H 0.13784 0.60542 0.21572 0.0
C2508 C 0.14307 0.61808 0.18211 0.0
C2509 C 0.1427 0.63703 0.16786 0.0
C2510 C 0.12353 0.66458 0.25085 0.0
C2511 C 0.13221 0.64207 0.21428 0.0
C2512 C 0.11407 0.66476 0.27282 0.0
C2513 C 0.10365 0.64428 0.28142 0.0
C2514 C 0.12306 0.64361 0.23786 0.0
C2515 C 0.10356 0.62382 0.26789 0.0
C2516 C 0.13805 0.62054 0.20524 0.0
C2517 C 0.13828 0.65874 0.17773 0.0
N2518 N 0.11317 0.62399 0.24691 0.0
N2519 N 0.13289 0.66066 0.20039 0.0
H2520 H 0.58432 0.1647 0.9885 0.0
H2521 H 0.66888 0.09056 0.05263 0.0
H2522 H 0.62054 0.11379 0.95104 0.0
H2523 H 0.60542 0.10643 0.08365 0.0
H2524 H 0.65328 0.10041 0.01531 0.0
H2525 H 0.59386 0.14614 0.02439 0.0
C2526 C 0.59415 0.14955 0.9879 0.0
C2527 C 0.60165 0.14071 0.96692 0.0
C2528 C 0.64264 0.10125 0.03026 0.0
C2529 C 0.61279 0.11968 0.00756 0.0
C2530 C 0.65148 0.09557 0.05151 0.0
C2531 C 0.63846 0.09769 0.0713 0.0
C2532 C 0.6209 0.10978 0.02896 0.0
C2533 C 0.61604 0.1044 0.0689 0.0
C2534 C 0.59943 0.13889 0.00825 0.0
C2535 C 0.61429 0.12099 0.9669 0.0
N2536 N 0.60815 0.11076 0.04819 0.0
N2537 N 0.61979 0.11133 0.98696 0.0
H2538 H 0.13655 0.35299 0.20024 0.0
H2539 H 0.08351 0.35745 0.32514 0.0
H2540 H 0.06632 0.36516 0.21385 0.0
H2541 H 0.15601 0.36451 0.31284 0.0
H2542 H 0.07641 0.35213 0.28404 0.0
H2543 H 0.14321 0.34852 0.24131 0.0
C2544 C 0.12249 0.35445 0.21185 0.0
C2545 C 0.10095 0.35982 0.20377 0.0
C2546 C 0.09387 0.35466 0.29038 0.0
C2547 C 0.10843 0.3549 0.25047 0.0
C2548 C 0.09795 0.35787 0.31381 0.0
C2549 C 0.12038 0.36188 0.32244 0.0
C2550 C 0.11234 0.3553 0.27544 0.0
C2551 C 0.13844 0.36146 0.30699 0.0
C2552 C 0.12632 0.35204 0.23523 0.0
C2553 C 0.08331 0.3616 0.21947 0.0
N2554 N 0.13401 0.35842 0.28417 0.0
N2555 N 0.08748 0.35928 0.24212 0.0
H2556 H 0.88866 0.93578 0.54416 0.0
H2557 H 0.94875 0.83965 0.47352 0.0
H2558 H 0.94985 0.90757 0.56922 0.0
H2559 H 0.90689 0.88763 0.44064 0.0
H2560 H 0.9493 0.86395 0.5087 0.0
H2561 H 0.89571 0.91954 0.50589 0.0
C2562 C 0.90403 0.92682 0.54141 0.0
C2563 C 0.91874 0.92321 0.55991 0.0
C2564 C 0.94023 0.86932 0.49371 0.0
C2565 C 0.92626 0.90334 0.51633 0.0
C2566 C 0.93969 0.85532 0.47364 0.0
C2567 C 0.92754 0.8614 0.45403 0.0
C2568 C 0.92826 0.88951 0.49443 0.0
C2569 C 0.91651 0.8822 0.45521 0.0
C2570 C 0.90791 0.91731 0.5196 0.0
C2571 C 0.93809 0.91092 0.55549 0.0
N2572 N 0.91688 0.89529 0.47512 0.0
N2573 N 0.94101 0.90097 0.53429 0.0
H2574 H 0.44728 0.66155 0.73888 0.0
H2575 H 0.32485 0.63783 0.79581 0.0
H2576 H 0.38402 0.67803 0.70655 0.0
H2577 H 0.38859 0.62126 0.82687 0.0
H2578 H 0.34602 0.65367 0.7633 0.0
H2579 H 0.42598 0.64899 0.77218 0.0
C2580 C 0.42897 0.66257 0.73861 0.0
C2581 C 0.41758 0.67013 0.71918 0.0
C2582 C 0.35534 0.64655 0.77724 0.0
C2583 C 0.39288 0.6557 0.75768 0.0
C2584 C 0.34326 0.63751 0.79581 0.0
C2585 C 0.35491 0.62809 0.81411 0.0
C2586 C 0.37927 0.64633 0.77703 0.0
C2587 C 0.37879 0.62796 0.81303 0.0
C2588 C 0.41676 0.65534 0.75774 0.0
C2589 C 0.39377 0.67177 0.72056 0.0
N2590 N 0.39012 0.63695 0.79489 0.0
N2591 N 0.38224 0.66432 0.73928 0.0
H2592 H 0.50843 0.5726 0.89453 0.0
H2593 H 0.38088 0.61274 0.88983 0.0
H2594 H 0.48556 0.62318 0.84815 0.0
H2595 H 0.40352 0.56421 0.93839 0.0
H2596 H 0.41875 0.61545 0.87349 0.0
H2597 H 0.4702 0.56854 0.91019 0.0
C2598 C 0.49552 0.58297 0.88764 0.0
C2599 C 0.5005 0.59837 0.86992 0.0
C2600 C 0.41549 0.60413 0.88767 0.0
C2601 C 0.45629 0.59344 0.88774 0.0
C2602 C 0.39371 0.60238 0.89693 0.0
C2603 C 0.38878 0.58792 0.91538 0.0
C2604 C 0.43274 0.59149 0.89697 0.0
C2605 C 0.40647 0.57552 0.92418 0.0
C2606 C 0.47356 0.5805 0.89656 0.0
C2607 C 0.48267 0.61092 0.86157 0.0
N2608 N 0.42765 0.57759 0.9149 0.0
N2609 N 0.46145 0.60819 0.87054 0.0
H2610 H 0.68699 0.30632 0.05846 0.0
H2611 H 0.66426 0.21986 0.16096 0.0
H2612 H 0.68145 0.33056 0.12871 0.0
H2613 H 0.67022 0.1984 0.08985 0.0
H2614 H 0.67493 0.25994 0.15085 0.0
H2615 H 0.68517 0.26662 0.07093 0.0
C2616 C 0.68544 0.30333 0.07658 0.0
C2617 C 0.68379 0.32192 0.09245 0.0
C2618 C 0.67394 0.24641 0.13751 0.0
C2619 C 0.68187 0.27601 0.10705 0.0
C2620 C 0.66794 0.22344 0.14327 0.0
C2621 C 0.66583 0.20558 0.1262 0.0
C2622 C 0.67785 0.25164 0.1145 0.0
C2623 C 0.67086 0.21151 0.10357 0.0
C2624 C 0.68452 0.28054 0.08374 0.0
C2625 C 0.68258 0.31683 0.11582 0.0
N2626 N 0.67642 0.23394 0.09842 0.0
N2627 N 0.68135 0.29432 0.1224 0.0
H2628 H 0.95528 0.43527 0.40019 0.0
H2629 H 0.07085 0.36928 0.40505 0.0
H2630 H 0.97411 0.38534 0.34851 0.0
H2631 H 0.05595 0.42359 0.45384 0.0
H2632 H 0.03488 0.37425 0.38496 0.0
H2633 H 0.99121 0.43061 0.42071 0.0
C2634 C 0.96688 0.42333 0.39309 0.0
C2635 C 0.96142 0.41071 0.37244 0.0
C2636 C 0.03939 0.38509 0.40008 0.0
C2637 C 1.0029 0.40534 0.39603 0.0
C2638 C 0.06003 0.3823 0.41158 0.0
C2639 C 0.0667 0.39624 0.43109 0.0
C2640 C 0.02495 0.40178 0.40819 0.0
C2641 C 0.05159 0.41243 0.43893 0.0
C2642 C 0.9875 0.42074 0.40484 0.0
C2643 C 0.97748 0.3957 0.36411 0.0
N2644 N 0.03149 0.4148 0.42745 0.0
N2645 N 0.99734 0.39341 0.37593 0.0
H2646 H 0.89343 0.83161 0.58618 0.0
H2647 H 0.87616 0.70367 0.63317 0.0
H2648 H 0.89788 0.8173 0.65818 0.0
H2649 H 0.87235 0.72064 0.56183 0.0
H2650 H 0.8799 0.74522 0.64357 0.0
H2651 H 0.88242 0.79095 0.57773 0.0
C2652 C 0.89219 0.81984 0.60024 0.0
C2653 C 0.89699 0.82776 0.62288 0.0
C2654 C 0.87809 0.73977 0.62567 0.0
C2655 C 0.88393 0.78107 0.61335 0.0
C2656 C 0.8758 0.7161 0.61974 0.0
C2657 C 0.87435 0.70871 0.59657 0.0
C2658 C 0.87894 0.75601 0.60827 0.0
C2659 C 0.87403 0.72553 0.57986 0.0
C2660 C 0.88569 0.79662 0.59542 0.0
C2661 C 0.8944 0.81187 0.64047 0.0
N2662 N 0.87653 0.74835 0.58603 0.0
N2663 N 0.8882 0.78915 0.63531 0.0
H2664 H 0.52218 0.42918 0.65505 0.0
H2665 H 0.42833 0.34705 0.58707 0.0
H2666 H 0.51176 0.35626 0.66772 0.0
H2667 H 0.41226 0.41485 0.61287 0.0
H2668 H 0.46524 0.35245 0.60714 0.0
H2669 H 0.48734 0.42619 0.63061 0.0
C2670 C 0.51251 0.41259 0.65262 0.0
C2671 C 0.51954 0.39298 0.66353 0.0
C2672 C 0.45366 0.36621 0.60806 0.0
C2673 C 0.48051 0.38929 0.63524 0.0
C2674 C 0.43254 0.36319 0.59666 0.0
C2675 C 0.4167 0.38029 0.59854 0.0
C2676 C 0.4594 0.38674 0.62095 0.0
C2677 C 0.42373 0.40115 0.61066 0.0
C2678 C 0.49277 0.4109 0.63876 0.0
C2679 C 0.50663 0.3718 0.65984 0.0
N2680 N 0.44451 0.40374 0.62149 0.0
N2681 N 0.48782 0.37045 0.64584 0.0
H2682 H 0.85783 0.26486 0.91811 0.0
H2683 H 0.91302 0.21399 0.81293 0.0
H2684 H 0.86256 0.30752 0.85897 0.0
H2685 H 0.85306 0.17461 0.83598 0.0
H2686 H 0.90012 0.24858 0.83281 0.0
H2687 H 0.8612 0.23034 0.89261 0.0
C2688 C 0.85933 0.26695 0.89982 0.0
C2689 C 0.86002 0.28918 0.89073 0.0
C2690 C 0.88966 0.23238 0.83316 0.0
C2691 C 0.86445 0.25012 0.86178 0.0
C2692 C 0.89686 0.21269 0.82168 0.0
C2693 C 0.88427 0.19118 0.8229 0.0
C2694 C 0.87011 0.23042 0.84661 0.0
C2695 C 0.86353 0.19059 0.83471 0.0
C2696 C 0.86115 0.24733 0.88534 0.0
C2697 C 0.86201 0.29089 0.86684 0.0
N2698 N 0.85743 0.20975 0.84672 0.0
N2699 N 0.86469 0.27174 0.85328 0.0
H2700 H 0.05597 0.59132 0.08746 0.0
H2701 H 0.96327 0.63098 0.1716 0.0
H2702 H 0.0391 0.66237 0.09681 0.0
H2703 H 0.96394 0.55959 0.14811 0.0
H2704 H 0.98975 0.64229 0.1418 0.0
H2705 H 0.0198 0.57846 0.10467 0.0
C2706 C 0.04419 0.60415 0.09227 0.0
C2707 C 0.05062 0.62794 0.09132 0.0
C2708 C 0.98426 0.6241 0.14309 0.0
C2709 C 0.00985 0.61349 0.1115 0.0
C2710 C 0.96959 0.61761 0.16045 0.0
C2711 C 0.96232 0.59423 0.1628 0.0
C2712 C 0.99201 0.60705 0.12806 0.0
C2713 C 0.96991 0.57768 0.14717 0.0
C2714 C 0.02367 0.59682 0.10229 0.0
C2715 C 0.03489 0.64389 0.09779 0.0
N2716 N 0.9847 0.58436 0.13055 0.0
N2717 N 0.01539 0.63638 0.10814 0.0
H2718 H 0.72492 0.75545 0.38798 0.0
H2719 H 0.62995 0.82975 0.33249 0.0
H2720 H 0.6556 0.75682 0.41079 0.0
H2721 H 0.70142 0.85198 0.32842 0.0
H2722 H 0.64001 0.7965 0.35394 0.0
H2723 H 0.71758 0.78605 0.3608 0.0
C2724 C 0.70828 0.76237 0.38742 0.0
C2725 C 0.69096 0.75389 0.40194 0.0
C2726 C 0.65356 0.80848 0.34813 0.0
C2727 C 0.68224 0.78804 0.3705 0.0
C2728 C 0.64786 0.82736 0.33558 0.0
C2729 C 0.6648 0.84408 0.32894 0.0
C2730 C 0.67645 0.80598 0.35408 0.0
C2731 C 0.68773 0.83978 0.33332 0.0
C2732 C 0.70409 0.7797 0.3719 0.0
C2733 C 0.6696 0.76319 0.40035 0.0
N2734 N 0.69291 0.82132 0.34597 0.0
N2735 N 0.66583 0.77956 0.38486 0.0
H2736 H 0.9264 0.43119 0.66282 0.0
H2737 H 0.85054 0.50218 0.58427 0.0
H2738 H 0.90718 0.40657 0.59426 0.0
H2739 H 0.9019 0.53777 0.62874 0.0
H2740 H 0.86847 0.46564 0.5901 0.0
H2741 H 0.91648 0.47004 0.65271 0.0
C2742 C 0.92068 0.43396 0.64545 0.0
C2743 C 0.91741 0.41522 0.62946 0.0
C2744 C 0.87591 0.48152 0.5984 0.0
C2745 C 0.90526 0.45944 0.61811 0.0
C2746 C 0.86558 0.50223 0.59525 0.0
C2747 C 0.87479 0.52287 0.60608 0.0
C2748 C 0.89522 0.48145 0.61292 0.0
C2749 C 0.89442 0.52218 0.62001 0.0
C2750 C 0.91489 0.45611 0.63977 0.0
C2751 C 0.9099 0.42 0.60726 0.0
N2752 N 0.90383 0.50171 0.6233 0.0
N2753 N 0.90352 0.44146 0.60241 0.0
H2754 H 0.40729 0.96837 0.41788 0.0
H2755 H 0.38821 0.08148 0.36159 0.0
H2756 H 0.3385 0.98929 0.40966 0.0
H2757 H 0.41554 0.09541 0.43018 0.0
H2758 H 0.38271 0.04039 0.36988 0.0
H2759 H 0.4216 0.00923 0.41587 0.0
C2760 C 0.39513 0.98141 0.41606 0.0
C2761 C 0.37158 0.97517 0.41337 0.0
C2762 C 0.39039 0.05247 0.38288 0.0
C2763 C 0.38801 0.02147 0.41072 0.0
C2764 C 0.39361 0.07585 0.37821 0.0
C2765 C 0.40194 0.09195 0.39537 0.0
C2766 C 0.39578 0.04508 0.40472 0.0
C2767 C 0.40887 0.08358 0.41655 0.0
C2768 C 0.40339 1.00465 0.4149 0.0
C2769 C 0.35677 0.993 0.41101 0.0
N2770 N 0.40526 0.06058 0.42085 0.0
N2771 N 0.36527 0.01526 0.40924 0.0
H2772 H 0.28125 0.09294 0.70688 0.0
H2773 H 0.18328 0.13608 0.62702 0.0
H2774 H 0.27053 0.06945 0.63643 0.0
H2775 H 0.17748 0.13475 0.70068 0.0
H2776 H 0.21887 0.11698 0.62997 0.0
H2777 H 0.24588 0.11295 0.70486 0.0
C2778 C 0.27122 0.09183 0.6911 0.0
C2779 C 0.27854 0.07951 0.67183 0.0
C2780 C 0.2098 0.12096 0.64546 0.0
C2781 C 0.2387 0.10255 0.66921 0.0
C2782 C 0.18953 0.13186 0.64382 0.0
C2783 C 0.17725 0.13673 0.66362 0.0
C2784 C 0.21797 0.11517 0.66706 0.0
C2785 C 0.18647 0.13146 0.68499 0.0
C2786 C 0.25117 0.10321 0.68993 0.0
C2787 C 0.26517 0.07851 0.65171 0.0
N2788 N 0.20629 0.12085 0.68614 0.0
N2789 N 0.24593 0.09012 0.65083 0.0
H2790 H 0.09484 0.97083 0.91612 0.0
H2791 H 0.20046 0.06257 0.90042 0.0
H2792 H 0.15909 0.95238 0.8884 0.0
H2793 H 0.14052 0.07791 0.93759 0.0
H2794 H 0.18768 0.02119 0.89964 0.0
H2795 H 0.11242 0.00927 0.92688 0.0
C2796 C 0.11269 0.97472 0.91246 0.0
C2797 C 0.12539 0.95824 0.90117 0.0
C2798 C 0.17761 0.03345 0.90863 0.0
C2799 C 0.14567 1.00253 0.91333 0.0
C2800 C 0.18516 0.05697 0.90942 0.0
C2801 C 0.17176 0.07342 0.91957 0.0
C2802 C 0.15624 0.02648 0.91769 0.0
C2803 C 0.15153 0.06556 0.93014 0.0
C2804 C 0.12273 0.99676 0.9186 0.0
C2805 C 0.14842 0.96459 0.89662 0.0
N2806 N 0.14417 0.0427 0.92861 0.0
N2807 N 0.15774 0.98622 0.90257 0.0
H2808 H 0.78903 0.33245 0.63452 0.0
H2809 H 0.72059 0.4324 0.69416 0.0
H2810 H 0.81969 0.39946 0.65769 0.0
H2811 H 0.68772 0.36857 0.66535 0.0
H2812 H 0.75753 0.41888 0.68378 0.0
H2813 H 0.75215 0.34374 0.64841 0.0
C2814 C 0.78802 0.3495 0.64255 0.0
C2815 C 0.80744 0.36511 0.64475 0.0
C2816 C 0.74226 0.40775 0.67982 0.0
C2817 C 0.76537 0.37812 0.66062 0.0
C2818 C 0.72115 0.4155 0.68571 0.0
C2819 C 0.70101 0.40171 0.68046 0.0
C2820 C 0.7433 0.38603 0.66853 0.0
C2821 C 0.70279 0.37973 0.66988 0.0
C2822 C 0.76697 0.35595 0.6504 0.0
C2823 C 0.8051 0.38703 0.65519 0.0
N2824 N 0.72358 0.37263 0.66411 0.0
N2825 N 0.78448 0.39286 0.6627 0.0
H2826 H 0.58823 0.60621 0.11353 0.0
H2827 H 0.63008 0.47832 0.11759 0.0
H2828 H 0.58874 0.56984 0.17683 0.0
H2829 H 0.67336 0.53246 0.08834 0.0
H2830 H 0.60419 0.50756 0.13068 0.0
H2831 H 0.60859 0.57487 0.09524 0.0
C2832 C 0.59208 0.59152 0.12353 0.0
C2833 C 0.58724 0.59113 0.14709 0.0
C2834 C 0.61916 0.51297 0.12107 0.0
C2835 C 0.60967 0.5547 0.12582 0.0
C2836 C 0.63388 0.49632 0.11356 0.0
C2837 C 0.65388 0.503 0.10185 0.0
C2838 C 0.62402 0.53644 0.11626 0.0
C2839 C 0.65814 0.52665 0.09734 0.0
C2840 C 0.60381 0.57366 0.11302 0.0
C2841 C 0.59223 0.57109 0.15874 0.0
N2842 N 0.64329 0.54251 0.10442 0.0
N2843 N 0.60314 0.5538 0.14807 0.0
H2844 H 0.27937 0.88821 0.83614 0.0
H2845 H 0.16067 0.84555 0.89064 0.0
H2846 H 0.26311 0.90806 0.90546 0.0
H2847 H 0.16755 0.86231 0.81949 0.0
H2848 H 0.20088 0.85923 0.89738 0.0
H2849 H 0.24078 0.86957 0.83083 0.0
C2850 C 0.26766 0.88854 0.85027 0.0
C2851 C 0.27432 0.89982 0.87121 0.0
C2852 C 0.19344 0.85982 0.88033 0.0
C2853 C 0.23033 0.8782 0.8654 0.0
C2854 C 0.17042 0.85229 0.87651 0.0
C2855 C 0.16015 0.8541 0.85479 0.0
C2856 C 0.20649 0.86822 0.86204 0.0
C2857 C 0.17435 0.86115 0.83672 0.0
C2858 C 0.24568 0.87794 0.84723 0.0
C2859 C 0.25846 0.89982 0.88896 0.0
N2860 N 0.19667 0.86807 0.84078 0.0
N2861 N 0.23718 0.88906 0.88571 0.0
H2862 H 0.28085 0.16251 0.41357 0.0
H2863 H 0.19981 0.05375 0.37338 0.0
H2864 H 0.3078 0.09817 0.39056 0.0
H2865 H 0.1812 0.12353 0.36339 0.0
H2866 H 0.23919 0.069 0.38186 0.0
H2867 H 0.24345 0.14812 0.39799 0.0
C2868 C 0.27909 0.14544 0.40527 0.0
C2869 C 0.29776 0.13155 0.40371 0.0
C2870 C 0.22655 0.08092 0.37739 0.0
C2871 C 0.2547 0.11487 0.38618 0.0
C2872 C 0.20415 0.07222 0.37252 0.0
C2873 C 0.18722 0.08738 0.36777 0.0
C2874 C 0.23193 0.10501 0.37799 0.0
C2875 C 0.19372 0.11121 0.36683 0.0
C2876 C 0.25766 0.13726 0.39637 0.0
C2877 C 0.29399 0.10938 0.39294 0.0
N2878 N 0.21548 0.11935 0.37233 0.0
N2879 N 0.27292 0.1017 0.38481 0.0
H2880 H 0.40726 0.08511 0.61206 0.0
H2881 H 0.36462 0.15136 0.50431 0.0
H2882 H 0.33656 0.08371 0.59054 0.0
H2883 H 0.43011 0.1226 0.50223 0.0
H2884 H 0.35588 0.1302 0.53923 0.0
H2885 H 0.41817 0.10096 0.57461 0.0
C2886 C 0.39409 0.08742 0.59931 0.0
C2887 C 0.37091 0.08295 0.60456 0.0
C2888 C 0.37212 0.1283 0.5311 0.0
C2889 C 0.38323 0.10187 0.56215 0.0
C2890 C 0.37706 0.14038 0.51122 0.0
C2891 C 0.39794 0.13843 0.50031 0.0
C2892 C 0.38838 0.11445 0.5406 0.0
C2893 C 0.4137 0.12424 0.51006 0.0
C2894 C 0.40032 0.09671 0.57804 0.0
C2895 C 0.35463 0.0869 0.58743 0.0
N2896 N 0.40871 0.11293 0.52979 0.0
N2897 N 0.36104 0.0964 0.56734 0.0
H2898 H 0.70628 0.693 0.31916 0.0
H2899 H 0.5809 0.64639 0.2753 0.0
H2900 H 0.66195 0.64982 0.36089 0.0
H2901 H 0.63566 0.66992 0.23136 0.0
H2902 H 0.60788 0.65061 0.30824 0.0
H2903 H 0.67815 0.68802 0.28804 0.0
C2904 C 0.69056 0.68256 0.3219 0.0
C2905 C 0.6864 0.67223 0.34297 0.0
C2906 C 0.61383 0.6549 0.29134 0.0
C2907 C 0.65375 0.66652 0.30713 0.0
C2908 C 0.59847 0.65247 0.27255 0.0
C2909 C 0.60583 0.65821 0.2505 0.0
C2910 C 0.63663 0.66316 0.28799 0.0
C2911 C 0.62887 0.66596 0.248 0.0
C2912 C 0.67443 0.67973 0.30406 0.0
C2913 C 0.66565 0.65876 0.34527 0.0
N2914 N 0.64329 0.66826 0.26643 0.0
N2915 N 0.65002 0.6564 0.32764 0.0
H2916 H 0.08398 0.85308 0.09045 0.0
H2917 H 0.10067 0.89777 0.96423 0.0
H2918 H 0.10558 0.92364 0.07471 0.0
H2919 H 0.08488 0.82621 0.97962 0.0
H2920 H 0.09386 0.90907 1.00417 0.0
H2921 H 0.07627 0.84438 0.04977 0.0
C2922 C 0.08698 0.86677 0.07839 0.0
C2923 C 0.09585 0.88898 0.08582 0.0
C2924 C 0.09147 0.89092 0.99883 0.0
C2925 C 0.08688 0.87923 0.03939 0.0
C2926 C 0.09529 0.88455 0.97613 0.0
C2927 C 0.09356 0.86109 0.96912 0.0
C2928 C 0.08616 0.87358 0.01455 0.0
C2929 C 0.08644 0.84443 0.98472 0.0
C2930 C 0.08242 0.86184 0.05523 0.0
C2931 C 0.09883 0.90626 0.06966 0.0
N2932 N 0.08333 0.85096 0.00695 0.0
N2933 N 0.09464 0.90092 0.04711 0.0
H2934 H 0.92084 0.38242 0.72884 0.0
H2935 H 0.84277 0.33362 0.82763 0.0
H2936 H 0.86727 0.32848 0.71567 0.0
H2937 H 0.88269 0.39903 0.83351 0.0
H2938 H 0.84849 0.33282 0.7861 0.0
H2939 H 0.90531 0.38983 0.76673 0.0
C2940 C 0.90577 0.37213 0.73397 0.0
C2941 C 0.89551 0.35457 0.71923 0.0
C2942 C 0.8553 0.34778 0.79633 0.0
C2943 C 0.87749 0.363 0.76269 0.0
C2944 C 0.85175 0.34839 0.81998 0.0
C2945 C 0.86162 0.3668 0.83391 0.0
C2946 C 0.8694 0.36541 0.78666 0.0
C2947 C 0.87402 0.38499 0.82333 0.0
C2948 C 0.89676 0.37651 0.75553 0.0
C2949 C 0.87571 0.34211 0.72656 0.0
N2950 N 0.87788 0.38365 0.80042 0.0
N2951 N 0.86752 0.34632 0.74792 0.0
H2952 H 0.34749 0.91819 0.96163 0.0
H2953 H 0.4132 0.82556 0.01698 0.0
H2954 H 0.40902 0.90156 0.92732 0.0
H2955 H 0.4042 0.88687 0.05886 0.0
H2956 H 0.40678 0.84805 0.98253 0.0
H2957 H 0.36277 0.9032 0.99714 0.0
C2958 C 0.36444 0.91191 0.96166 0.0
C2959 C 0.37684 0.91104 0.94128 0.0
C2960 C 0.40655 0.85656 0.99934 0.0
C2961 C 0.39382 0.8927 0.98161 0.0
C2962 C 0.41013 0.84376 0.01894 0.0
C2963 C 0.40921 0.85426 0.04095 0.0
C2964 C 0.40118 0.8798 1.00176 0.0
C2965 C 0.40506 0.87796 0.04243 0.0
C2966 C 0.37303 0.9032 0.98188 0.0
C2967 C 0.39867 0.90245 0.94241 0.0
N2968 N 0.40067 0.88975 0.0232 0.0
N2969 N 0.40617 0.89294 0.96202 0.0
H2970 H 0.90074 0.62101 0.82381 0.0
H2971 H 0.8829 0.66655 0.69746 0.0
H2972 H 0.90229 0.69299 0.80666 0.0
H2973 H 0.89586 0.5953 0.70871 0.0
H2974 H 0.89067 0.67581 0.73797 0.0
H2975 H 0.90096 0.61027 0.78244 0.0
C2976 C 0.90164 0.63453 0.81138 0.0
C2977 C 0.90114 0.65792 0.81862 0.0
C2978 C 0.89194 0.65812 0.73169 0.0
C2979 C 0.90089 0.64587 0.77156 0.0
C2980 C 0.88731 0.65281 0.70852 0.0
C2981 C 0.88851 0.63009 0.69969 0.0
C2982 C 0.89754 0.64056 0.74646 0.0
C2983 C 0.89475 0.61306 0.71482 0.0
C2984 C 0.90157 0.62842 0.78781 0.0
C2985 C 0.90221 0.67475 0.80182 0.0
N2986 N 0.8988 0.61857 0.73753 0.0
N2987 N 0.90174 0.66841 0.77923 0.0
H2988 H 0.1097 0.15645 0.45734 0.0
H2989 H 0.04763 0.14904 0.57586 0.0
H2990 H 0.07616 0.09234 0.48011 0.0
H2991 H 0.10781 0.19486 0.56595 0.0
H2992 H 0.05187 0.13221 0.5374 0.0
H2993 H 0.1042 0.17422 0.49476 0.0
C2994 C 0.10148 0.14591 0.47025 0.0
C2995 C 0.09358 0.12269 0.46556 0.0
C2996 C 0.06399 0.14608 0.54369 0.0
C2997 C 0.08627 0.14353 0.50802 0.0
C2998 C 0.06158 0.15573 0.56552 0.0
C2999 C 0.07763 0.17311 0.57423 0.0
C3000 C 0.08228 0.15425 0.53044 0.0
C3001 C 0.09501 0.1816 0.55992 0.0
C3002 C 0.09812 0.15625 0.49151 0.0
C3003 C 0.08227 0.11034 0.48282 0.0
N3004 N 0.09697 0.17194 0.53868 0.0
N3005 N 0.0788 0.12101 0.50337 0.0
H3006 H 0.6838 0.40721 0.20426 0.0
H3007 H 0.56945 0.36375 0.26754 0.0
H3008 H 0.61665 0.39833 0.17242 0.0
H3009 H 0.6343 0.37691 0.30313 0.0
H3010 H 0.58773 0.37418 0.23187 0.0
H3011 H 0.6672 0.39396 0.24027 0.0
C3012 C 0.66563 0.40256 0.2048 0.0
C3013 C 0.65158 0.40421 0.1853 0.0
C3014 C 0.59804 0.37473 0.24745 0.0
C3015 C 0.63259 0.38918 0.22628 0.0
C3016 C 0.58756 0.36882 0.26781 0.0
C3017 C 0.60031 0.3696 0.2883 0.0
C3018 C 0.62149 0.38156 0.24754 0.0
C3019 C 0.62386 0.37588 0.28765 0.0
C3020 C 0.65618 0.39508 0.22536 0.0
C3021 C 0.62814 0.39799 0.18706 0.0
N3022 N 0.63371 0.38177 0.26757 0.0
N3023 N 0.61944 0.39083 0.20714 0.0
H3024 H 0.61363 0.44415 0.07883 0.0
H3025 H 0.50447 0.39317 0.13962 0.0
H3026 H 0.59632 0.37066 0.08282 0.0
H3027 H 0.50433 0.4598 0.10874 0.0
H3028 H 0.53932 0.38566 0.11933 0.0
H3029 H 0.57447 0.45152 0.0885 0.0
C3030 C 0.60158 0.42952 0.08102 0.0
C3031 C 0.60853 0.40675 0.08051 0.0
C3032 C 0.53167 0.40191 0.11684 0.0
C3033 C 0.56372 0.41508 0.09181 0.0
C3034 C 0.512 0.40629 0.12867 0.0
C3035 C 0.5019 0.42725 0.12607 0.0
C3036 C 0.54162 0.41881 0.10263 0.0
C3037 C 0.51189 0.44351 0.11123 0.0
C3038 C 0.57915 0.43377 0.08663 0.0
C3039 C 0.59186 0.38852 0.08344 0.0
N3040 N 0.53149 0.43912 0.10025 0.0
N3041 N 0.57038 0.39309 0.08939 0.0
H3042 H 0.31086 0.68836 0.8834 0.0
H3043 H 0.33858 0.82011 0.92309 0.0
H3044 H 0.3394 0.71054 0.94968 0.0
H3045 H 0.34351 0.79437 0.85308 0.0
H3046 H 0.32512 0.78128 0.93414 0.0
H3047 H 0.30853 0.72907 0.87376 0.0
C3048 C 0.31594 0.70189 0.89613 0.0
C3049 C 0.3255 0.69651 0.91725 0.0
C3050 C 0.32886 0.78431 0.91633 0.0
C3051 C 0.32294 0.74237 0.90648 0.0
C3052 C 0.3368 0.80628 0.91005 0.0
C3053 C 0.34272 0.81021 0.88727 0.0
C3054 C 0.32669 0.76631 0.89965 0.0
C3055 C 0.33926 0.79199 0.87086 0.0
C3056 C 0.31474 0.72493 0.8906 0.0
C3057 C 0.33217 0.71433 0.93317 0.0
N3058 N 0.33166 0.77062 0.87745 0.0
N3059 N 0.33097 0.73666 0.92738 0.0
H3060 H 0.9319 0.57786 0.59205 0.0
H3061 H 0.04597 0.62573 0.65268 0.0
H3062 H 0.95537 0.65036 0.59341 0.0
H3063 H 0.04681 0.56132 0.61358 0.0
H3064 H 0.00893 0.63218 0.63523 0.0
H3065 H 0.97103 0.56827 0.60189 0.0
C3066 C 0.94531 0.59167 0.59373 0.0
C3067 C 0.94029 0.615 0.59234 0.0
C3068 C 0.01714 0.61657 0.63048 0.0
C3069 C 0.98455 0.60422 0.60402 0.0
C3070 C 0.03808 0.61281 0.64062 0.0
C3071 C 0.04913 0.59287 0.6347 0.0
C3072 C 0.00692 0.60009 0.61456 0.0
C3073 C 0.03855 0.5768 0.61859 0.0
C3074 C 0.96757 0.58619 0.59947 0.0
C3075 C 0.95837 0.63218 0.59472 0.0
N3076 N 0.01778 0.5806 0.60919 0.0
N3077 N 0.97953 0.6265 0.60091 0.0
H3078 H 0.147 0.29186 0.38898 0.0
H3079 H 0.09057 0.16075 0.38546 0.0
H3080 H 0.09405 0.2681 0.43506 0.0
H3081 H 0.15044 0.18336 0.34802 0.0
H3082 H 0.08923 0.20051 0.40162 0.0
H3083 H 0.14651 0.25279 0.37213 0.0
C3084 C 0.13528 0.27865 0.39576 0.0
C3085 C 0.12057 0.28385 0.41375 0.0
C3086 C 0.1026 0.19673 0.3898 0.0
C3087 C 0.1198 0.23841 0.39395 0.0
C3088 C 0.10329 0.17403 0.38043 0.0
C3089 C 0.12061 0.16852 0.36519 0.0
C3090 C 0.11931 0.21414 0.38392 0.0
C3091 C 0.13672 0.18658 0.35959 0.0
C3092 C 0.13499 0.25615 0.38596 0.0
C3093 C 0.10572 0.26543 0.4213 0.0
N3094 N 0.13569 0.20839 0.36892 0.0
N3095 N 0.10572 0.24371 0.41139 0.0
H3096 H 0.60449 0.66882 0.34977 0.0
H3097 H 0.47149 0.63556 0.36231 0.0
H3098 H 0.57336 0.656 0.41515 0.0
H3099 H 0.50571 0.64242 0.29766 0.0
H3100 H 0.50811 0.64308 0.38232 0.0
H3101 H 0.5677 0.66062 0.33093 0.0
C3102 C 0.58982 0.66461 0.36025 0.0
C3103 C 0.59199 0.66338 0.38414 0.0
C3104 C 0.50758 0.64284 0.36376 0.0
C3105 C 0.54971 0.65319 0.36245 0.0
C3106 C 0.4867 0.63834 0.35227 0.0
C3107 C 0.48553 0.63834 0.32819 0.0
C3108 C 0.52735 0.6475 0.35108 0.0
C3109 C 0.50577 0.64256 0.31619 0.0
C3110 C 0.56881 0.65962 0.34941 0.0
C3111 C 0.57245 0.65708 0.39669 0.0
N3112 N 0.52583 0.64704 0.32778 0.0
N3113 N 0.55204 0.65221 0.38566 0.0
H3114 H 0.15242 0.84037 0.18497 0.0
H3115 H 0.11472 0.73711 0.09783 0.0
H3116 H 0.08237 0.8134 0.17514 0.0
H3117 H 0.17645 0.73214 0.13762 0.0
H3118 H 0.1056 0.77041 0.12207 0.0
H3119 H 0.16469 0.80497 0.16534 0.0
C3120 C 0.13965 0.82698 0.17917 0.0
C3121 C 0.11625 0.83028 0.1814 0.0
C3122 C 0.1212 0.76211 0.1255 0.0
C3123 C 0.13017 0.79013 0.15857 0.0
C3124 C 0.12649 0.74325 0.11155 0.0
C3125 C 0.1464 0.73196 0.11568 0.0
C3126 C 0.13612 0.77019 0.14355 0.0
C3127 C 0.16091 0.74042 0.13396 0.0
C3128 C 0.14668 0.80682 0.16788 0.0
C3129 C 0.10057 0.81204 0.17358 0.0
N3130 N 0.15562 0.75922 0.14715 0.0
N3131 N 0.10776 0.79313 0.16218 0.0
H3132 H 0.09162 0.388 0.86078 0.0
H3133 H 0.96252 0.42373 0.86491 0.0
H3134 H 0.06195 0.43238 0.81232 0.0
H3135 H 0.98346 0.36237 0.89705 0.0
H3136 H 1.00091 0.43066 0.85006 0.0
H3137 H 0.0541 0.38187 0.87872 0.0
C3138 C 0.07729 0.39653 0.85398 0.0
C3139 C 0.0799 0.41055 0.83485 0.0
C3140 C 0.99716 0.41567 0.86037 0.0
C3141 C 0.03708 0.40372 0.8553 0.0
C3142 C 0.97526 0.41177 0.86899 0.0
C3143 C 0.96971 0.39241 0.88224 0.0
C3144 C 0.01389 0.40024 0.86513 0.0
C3145 C 0.98693 0.37738 0.88671 0.0
C3146 C 0.05588 0.39291 0.86413 0.0
C3147 C 0.06069 0.42111 0.82673 0.0
N3148 N 0.00828 0.38164 0.87824 0.0
N3149 N 0.0402 0.41754 0.83701 0.0
H3150 H 0.35856 0.16562 0.61779 0.0
H3151 H 0.29004 0.27719 0.63956 0.0
H3152 H 0.34775 0.19455 0.68578 0.0
H3153 H 0.32383 0.26254 0.57611 0.0
H3154 H 0.30527 0.24289 0.6557 0.0
H3155 H 0.34177 0.19841 0.6015 0.0
C3156 C 0.35309 0.17905 0.6294 0.0
C3157 C 0.35478 0.17729 0.65331 0.0
C3158 C 0.30907 0.24709 0.63815 0.0
C3159 C 0.33442 0.21441 0.63449 0.0
C3160 C 0.30025 0.26645 0.62888 0.0
C3161 C 0.30589 0.27281 0.60655 0.0
C3162 C 0.32325 0.23384 0.62481 0.0
C3163 C 0.31891 0.25822 0.5933 0.0
C3164 C 0.34318 0.19763 0.61998 0.0
C3165 C 0.34654 0.19496 0.66728 0.0
N3166 N 0.32735 0.23947 0.60274 0.0
N3167 N 0.33653 0.21279 0.65763 0.0
H3168 H 0.1233 0.47603 0.44103 0.0
H3169 H 0.09714 0.55975 0.33873 0.0
H3170 H 0.14692 0.46742 0.37204 0.0
H3171 H 0.0935 0.58281 0.40951 0.0
H3172 H 0.10851 0.5224 0.35109 0.0
H3173 H 0.10704 0.51251 0.43038 0.0
C3174 C 0.12499 0.48186 0.42367 0.0
C3175 C 0.13658 0.46889 0.40741 0.0
C3176 C 0.10506 0.53554 0.36398 0.0
C3177 C 0.11763 0.50999 0.39497 0.0
C3178 C 0.09834 0.55686 0.35694 0.0
C3179 C 0.09449 0.57468 0.37305 0.0
C3180 C 0.10801 0.53173 0.38742 0.0
C3181 C 0.09623 0.56972 0.39643 0.0
C3182 C 0.11576 0.5026 0.41761 0.0
C3183 C 0.13839 0.47709 0.38514 0.0
N3184 N 0.1031 0.54878 0.40293 0.0
N3185 N 0.12891 0.49697 0.37956 0.0
H3186 H 0.62748 0.94157 0.64786 0.0
H3187 H 0.61042 0.04181 0.56609 0.0
H3188 H 0.59901 0.92354 0.58036 0.0
H3189 H 0.66741 0.04257 0.61324 0.0
H3190 H 0.60477 0.99941 0.56888 0.0
H3191 H 0.63933 0.97985 0.63524 0.0
C3192 C 0.62352 0.94563 0.63033 0.0
C3193 C 0.61217 0.92907 0.61516 0.0
C3194 C 0.61906 0.00871 0.5779 0.0
C3195 C 0.62597 0.97355 0.60055 0.0
C3196 C 0.62245 0.03279 0.5761 0.0
C3197 C 0.63961 0.04551 0.58922 0.0
C3198 C 0.63257 0.9975 0.59346 0.0
C3199 C 0.65429 0.03329 0.60258 0.0
C3200 C 0.6306 0.96756 0.62308 0.0
C3201 C 0.60756 0.93574 0.59269 0.0
N3202 N 0.65012 0.01003 0.6048 0.0
N3203 N 0.61432 0.95762 0.58607 0.0
H3204 H 0.84272 0.85153 0.40437 0.0
H3205 H 0.75403 0.87558 0.30389 0.0
H3206 H 0.84946 0.82268 0.33587 0.0
H3207 H 0.76616 0.91912 0.36488 0.0
H3208 H 0.78507 0.85191 0.31616 0.0
H3209 H 0.80993 0.87125 0.3914 0.0
C3210 C 0.83717 0.84898 0.38662 0.0
C3211 C 0.84926 0.83551 0.37116 0.0
C3212 C 0.78094 0.86672 0.32676 0.0
C3213 C 0.81147 0.85857 0.35606 0.0
C3214 C 0.76325 0.88018 0.31979 0.0
C3215 C 0.75767 0.89954 0.33322 0.0
C3216 C 0.79273 0.87236 0.34758 0.0
C3217 C 0.77012 0.90468 0.35373 0.0
C3218 C 0.8185 0.86052 0.37918 0.0
C3219 C 0.84102 0.83312 0.34835 0.0
N3220 N 0.78688 0.89115 0.36029 0.0
N3221 N 0.82272 0.84462 0.34144 0.0
H3222 H 0.86686 0.9386 0.10909 0.0
H3223 H 0.85581 0.07427 0.0949 0.0
H3224 H 0.80317 0.9709 0.10309 0.0
H3225 H 0.91809 0.04678 0.11838 0.0
H3226 H 0.8382 0.03496 0.09019 0.0
H3227 H 0.88753 0.9767 0.1056 0.0
C3228 C 0.85725 0.95367 0.10675 0.0
C3229 C 0.83327 0.95171 0.10646 0.0
C3230 C 0.85578 0.03743 0.0962 0.0
C3231 C 0.8567 0.99507 0.1025 0.0
C3232 C 0.86584 0.05984 0.09885 0.0
C3233 C 0.88827 0.0637 0.10741 0.0
C3234 C 0.86821 0.01863 0.10215 0.0
C3235 C 0.9007 0.04445 0.11183 0.0
C3236 C 0.86904 0.97536 0.10489 0.0
C3237 C 0.82163 0.97175 0.10368 0.0
N3238 N 0.89038 0.02263 0.10941 0.0
N3239 N 0.83346 0.99259 0.10184 0.0
H3240 H 0.31524 0.64942 0.33785 0.0
H3241 H 0.18601 0.60144 0.35336 0.0
H3242 H 0.28722 0.58175 0.31353 0.0
H3243 H 0.20902 0.67327 0.36726 0.0
H3244 H 0.22395 0.59388 0.34059 0.0
H3245 H 0.27709 0.65886 0.34937 0.0
C3246 C 0.30107 0.63664 0.33465 0.0
C3247 C 0.30447 0.61465 0.32483 0.0
C3248 C 0.22077 0.61132 0.34641 0.0
C3249 C 0.26096 0.62522 0.33837 0.0
C3250 C 0.19915 0.61561 0.35397 0.0
C3251 C 0.19439 0.63799 0.36158 0.0
C3252 C 0.23789 0.62953 0.34639 0.0
C3253 C 0.21196 0.65578 0.36142 0.0
C3254 C 0.27933 0.64201 0.34139 0.0
C3255 C 0.2855 0.59871 0.32141 0.0
N3256 N 0.23303 0.65115 0.35397 0.0
N3257 N 0.2646 0.60427 0.32829 0.0
H3258 H 0.32674 0.5139 0.9303 0.0
H3259 H 0.39157 0.44322 0.83484 0.0
H3260 H 0.31206 0.51449 0.85771 0.0
H3261 H 0.39986 0.43271 0.90713 0.0
H3262 H 0.36659 0.47419 0.84357 0.0
H3263 H 0.35554 0.48613 0.92287 0.0
C3264 C 0.3292 0.50766 0.91288 0.0
C3265 C 0.31706 0.51645 0.8946 0.0
C3266 C 0.37422 0.46548 0.85759 0.0
C3267 C 0.35021 0.48541 0.88591 0.0
C3268 C 0.38881 0.44819 0.85259 0.0
C3269 C 0.39772 0.43571 0.87034 0.0
C3270 C 0.36842 0.47001 0.88046 0.0
C3271 C 0.39342 0.44228 0.89307 0.0
C3272 C 0.34578 0.49211 0.90862 0.0
C3273 C 0.32084 0.50798 0.87232 0.0
N3274 N 0.37868 0.45882 0.89753 0.0
N3275 N 0.33729 0.49311 0.86858 0.0
H3276 H 0.73625 0.13061 0.17027 0.0
H3277 H 0.83459 0.16654 0.08355 0.0
H3278 H 0.74146 0.10042 0.10226 0.0
H3279 H 0.85036 0.16443 0.15586 0.0
H3280 H 0.79541 0.15248 0.09092 0.0
H3281 H 0.77413 0.1514 0.16597 0.0
C3282 C 0.74543 0.1284 0.1545 0.0
C3283 C 0.73596 0.11371 0.13664 0.0
C3284 C 0.80735 0.15544 0.10523 0.0
C3285 C 0.77847 0.13773 0.13139 0.0
C3286 C 0.82967 0.16367 0.1011 0.0
C3287 C 0.8459 0.1664 0.11907 0.0
C3288 C 0.801 0.15001 0.12755 0.0
C3289 C 0.83845 0.16257 0.14149 0.0
C3290 C 0.7669 0.14018 0.15208 0.0
C3291 C 0.74835 0.11134 0.1165 0.0
N3292 N 0.8165 0.15424 0.14512 0.0
N3293 N 0.76885 0.12338 0.11435 0.0
H3294 H 0.71122 0.87728 0.58271 0.0
H3295 H 0.82586 0.90567 0.65696 0.0
H3296 H 0.71391 0.86837 0.65575 0.0
H3297 H 0.81373 0.93139 0.58967 0.0
H3298 H 0.78711 0.88657 0.65594 0.0
H3299 H 0.75146 0.89082 0.58388 0.0
C3300 C 0.72039 0.87802 0.599 0.0
C3301 C 0.70919 0.87209 0.61924 0.0
C3302 C 0.79299 0.89642 0.64144 0.0
C3303 C 0.75527 0.88765 0.62073 0.0
C3304 C 0.81505 0.90725 0.64198 0.0
C3305 C 0.82291 0.92023 0.62341 0.0
C3306 C 0.77891 0.89837 0.62206 0.0
C3307 C 0.80823 0.92188 0.60449 0.0
C3308 C 0.74334 0.8858 0.59967 0.0
C3309 C 0.72197 0.87286 0.6398 0.0
N3310 N 0.78698 0.91102 0.60428 0.0
N3311 N 0.74438 0.88078 0.64008 0.0
H3312 H 0.98313 0.21734 0.16297 0.0
H3313 H 0.0304 0.32188 0.08858 0.0
H3314 H 0.94562 0.23846 0.10419 0.0
H3315 H 0.0567 0.30644 0.15526 0.0
H3316 H 0.99666 0.29499 0.09497 0.0
H3317 H 0.00777 0.253 0.1619 0.0
C3318 C 0.97985 0.22986 0.15012 0.0
C3319 C 0.96233 0.22522 0.13381 0.0
C3320 C 0.00959 0.29794 0.10838 0.0
C3321 C 0.99099 0.26576 0.13174 0.0
C3322 C 0.02871 0.31336 0.10477 0.0
C3323 C 0.04633 0.31607 0.12134 0.0
C3324 C 0.00835 0.28537 0.12865 0.0
C3325 C 0.04357 0.30454 0.14194 0.0
C3326 C 0.99394 0.25021 0.1494 0.0
C3327 C 0.95886 0.24173 0.11725 0.0
N3328 N 0.02514 0.28956 0.14488 0.0
N3329 N 0.97338 0.26117 0.11635 0.0
H3330 H 0.05955 0.7174 0.3984 0.0
H3331 H 0.93786 0.75263 0.35167 0.0
H3332 H 0.01689 0.66999 0.35498 0.0
H3333 H 0.98981 0.79811 0.3863 0.0
H3334 H 0.96248 0.71994 0.3564 0.0
H3335 H 0.02988 0.74446 0.39879 0.0
C3336 C 0.04363 0.71253 0.38923 0.0
C3337 C 0.04066 0.69143 0.37671 0.0
C3338 C 0.96828 0.73709 0.36307 0.0
C3339 C 0.00644 0.7229 0.37639 0.0
C3340 C 0.95423 0.75568 0.36046 0.0
C3341 C 0.96187 0.77818 0.36842 0.0
C3342 C 0.98983 0.74114 0.37402 0.0
C3343 C 0.98324 0.7812 0.3796 0.0
C3344 C 0.02667 0.72809 0.3893 0.0
C3345 C 0.01971 0.68604 0.36505 0.0
N3346 N 0.99632 0.76305 0.38199 0.0
N3347 N 1.00341 0.70186 0.3649 0.0
H3348 H 0.56064 0.7859 0.58431 0.0
H3349 H 0.44436 0.74465 0.64205 0.0
H3350 H 0.52738 0.83153 0.63076 0.0
H3351 H 0.47236 0.71088 0.58303 0.0
H3352 H 0.47158 0.77859 0.63679 0.0
H3353 H 0.52615 0.75996 0.58201 0.0
C3354 C 0.54577 0.79063 0.59368 0.0
C3355 C 0.54668 0.81086 0.60758 0.0
C3356 C 0.47132 0.76396 0.62468 0.0
C3357 C 0.50714 0.78083 0.60573 0.0
C3358 C 0.4557 0.74472 0.62759 0.0
C3359 C 0.45629 0.72498 0.61301 0.0
C3360 C 0.48749 0.76319 0.60715 0.0
C3361 C 0.4715 0.7257 0.59476 0.0
C3362 C 0.52604 0.7758 0.59244 0.0
C3363 C 0.52711 0.81615 0.61962 0.0
N3364 N 0.48661 0.74429 0.59253 0.0
N3365 N 0.50817 0.80097 0.61875 0.0
H3366 H 0.43562 0.25724 0.87502 0.0
H3367 H 0.56196 0.22072 0.8477 0.0
H3368 H 0.49112 0.30101 0.84876 0.0
H3369 H 0.51647 0.17572 0.8865 0.0
H3370 H 0.5328 0.24761 0.84453 0.0
H3371 H 0.46141 0.22507 0.87643 0.0
C3372 C 0.45304 0.26004 0.86934 0.0
C3373 C 0.46117 0.28194 0.86175 0.0
C3374 C 0.5289 0.23192 0.85376 0.0
C3375 C 0.49058 0.24545 0.86336 0.0
C3376 C 0.54571 0.21636 0.85559 0.0
C3377 C 0.54193 0.19586 0.86763 0.0
C3378 C 0.5077 0.2274 0.86407 0.0
C3379 C 0.5202 0.19132 0.8771 0.0
C3380 C 0.46776 0.24175 0.8703 0.0
C3381 C 0.48395 0.28461 0.85484 0.0
N3382 N 0.50388 0.20709 0.87528 0.0
N3383 N 0.49764 0.26676 0.85583 0.0
H3384 H 0.14669 0.96377 0.24109 0.0
H3385 H 0.05653 0.03405 0.31203 0.0
H3386 H 0.07529 0.94231 0.24588 0.0
H3387 H 0.12727 0.05852 0.30729 0.0
H3388 H 0.06354 1.00054 0.28736 0.0
H3389 H 0.14109 0.99734 0.26693 0.0
C3390 C 0.13005 0.96564 0.24842 0.0
C3391 C 0.11155 0.94993 0.24205 0.0
C3392 C 0.07756 0.01331 0.29138 0.0
C3393 C 0.10468 0.98884 0.27037 0.0
C3394 C 0.07346 0.03262 0.30522 0.0
C3395 C 0.09125 0.04923 0.31137 0.0
C3396 C 0.09977 0.01024 0.28385 0.0
C3397 C 0.11298 0.04635 0.30248 0.0
C3398 C 0.12675 0.98502 0.26275 0.0
C3399 C 0.0901 0.95366 0.25101 0.0
N3400 N 0.11671 0.02705 0.28932 0.0
N3401 N 0.08723 0.97277 0.26457 0.0
H3402 H 0.30736 0.9231 0.4483 0.0
H3403 H 0.2341 0.87039 0.55051 0.0
H3404 H 0.30376 0.85065 0.46353 0.0
H3405 H 0.22338 0.93776 0.52478 0.0
H3406 H 0.25825 0.8626 0.51777 0.0
H3407 H 0.27563 0.92871 0.47444 0.0
C3408 C 0.29934 0.90819 0.45657 0.0
C3409 C 0.30785 0.88623 0.4532 0.0
C3410 C 0.25043 0.87899 0.51899 0.0
C3411 C 0.27204 0.89272 0.48414 0.0
C3412 C 0.23654 0.88344 0.53771 0.0
C3413 C 0.22644 0.90468 0.54033 0.0
C3414 C 0.25499 0.89614 0.50283 0.0
C3415 C 0.23052 0.92103 0.52331 0.0
C3416 C 0.28134 0.91145 0.47169 0.0
C3417 C 0.29738 0.86773 0.4651 0.0
N3418 N 0.2447 0.91656 0.5055 0.0
N3419 N 0.28028 0.87143 0.48015 0.0
H3420 H 0.38877 0.05803 0.75247 0.0
H3421 H 0.34486 0.93318 0.79358 0.0
H3422 H 0.35845 1.00385 0.70675 0.0
H3423 H 0.38604 0.98212 0.83711 0.0
H3424 H 0.34893 0.95945 0.76226 0.0
H3425 H 0.38826 0.03084 0.78352 0.0
C3426 C 0.38228 0.04022 0.74891 0.0
C3427 C 0.37361 0.03311 0.72704 0.0
C3428 C 0.35715 0.96453 0.77859 0.0
C3429 C 0.37257 1.002 0.76271 0.0
C3430 C 0.35477 0.94956 0.79665 0.0
C3431 C 0.36525 0.95538 0.81813 0.0
C3432 C 0.37001 0.98573 0.78182 0.0
C3433 C 0.37763 0.97696 0.82092 0.0
C3434 C 0.38196 0.02475 0.76669 0.0
C3435 C 0.36547 0.00993 0.72332 0.0
N3436 N 0.37969 0.99139 0.80292 0.0
N3437 N 0.3649 0.99522 0.7411 0.0
H3438 H 0.2477 0.12143 0.93798 0.0
H3439 H 0.32597 0.16212 0.04843 0.0
H3440 H 0.25101 0.18936 0.97091 0.0
H3441 H 0.32209 0.09161 0.02166 0.0
H3442 H 0.30304 0.17308 0.01591 0.0
H3443 H 0.27885 0.1109 0.96382 0.0
C3444 C 0.25555 0.13439 0.95003 0.0
C3445 C 0.24704 0.1565 0.95197 0.0
C3446 C 0.30736 0.15522 0.01679 0.0
C3447 C 0.2822 0.1444 0.98203 0.0
C3448 C 0.32064 0.14899 0.03537 0.0
C3449 C 0.32617 0.12596 0.03773 0.0
C3450 C 0.29898 0.13829 1.0003 0.0
C3451 C 0.31851 0.10963 0.02036 0.0
C3452 C 0.27311 0.12828 0.96501 0.0
C3453 C 0.25725 0.17228 0.96853 0.0
N3454 N 0.30509 0.11604 1.00251 0.0
N3455 N 0.27408 0.16593 0.98284 0.0
H3456 H 0.75891 0.40555 0.06033 0.0
H3457 H 0.7892 0.39381 0.92711 0.0
H3458 H 0.70625 0.413 0.00923 0.0
H3459 H 0.83072 0.37574 0.98451 0.0
H3460 H 0.758 0.40112 0.95415 0.0
H3461 H 0.78476 0.39587 0.0307 0.0
C3462 C 0.75264 0.40528 0.04277 0.0
C3463 C 0.73015 0.41038 0.03755 0.0
C3464 C 0.77394 0.39538 0.96064 0.0
C3465 C 0.76058 0.39889 1.0025 0.0
C3466 C 0.79172 0.3911 0.9452 0.0
C3467 C 0.81289 0.38435 0.95344 0.0
C3468 C 0.77746 0.39294 0.98439 0.0
C3469 C 0.81504 0.38119 0.97712 0.0
C3470 C 0.76762 0.39957 0.02563 0.0
C3471 C 0.72345 0.40942 0.01416 0.0
N3472 N 0.79784 0.38561 0.99149 0.0
N3473 N 0.73863 0.40388 0.99746 0.0
H3474 H 0.86599 0.52089 0.2074 0.0
H3475 H 0.8654 0.49049 0.34122 0.0
H3476 H 0.8591 0.57159 0.26229 0.0
H3477 H 0.86097 0.43872 0.28597 0.0
H3478 H 0.86344 0.52071 0.31254 0.0
H3479 H 0.86329 0.49018 0.23577 0.0
C3480 C 0.86341 0.52551 0.22525 0.0
C3481 C 0.86292 0.54886 0.23243 0.0
C3482 C 0.86281 0.50267 0.30678 0.0
C3483 C 0.86044 0.51404 0.26509 0.0
C3484 C 0.86402 0.48546 0.32319 0.0
C3485 C 0.86331 0.46197 0.31616 0.0
C3486 C 0.86108 0.49635 0.28319 0.0
C3487 C 0.86149 0.45653 0.29241 0.0
C3488 C 0.86212 0.50805 0.24153 0.0
C3489 C 0.85984 0.55385 0.25594 0.0
N3490 N 0.86053 0.47347 0.27691 0.0
N3491 N 0.85897 0.53673 0.27135 0.0
H3492 H 0.74315 0.68584 0.47867 0.0
H3493 H 0.83429 0.59752 0.51913 0.0
H3494 H 0.75566 0.62476 0.43788 0.0
H3495 H 0.81158 0.65535 0.55902 0.0
H3496 H 0.81107 0.60931 0.48622 0.0
H3497 H 0.77413 0.67776 0.5047 0.0
C3498 C 0.75287 0.67095 0.47494 0.0
C3499 C 0.747 0.65609 0.45604 0.0
C3500 C 0.81142 0.61946 0.50217 0.0
C3501 C 0.78215 0.64594 0.48647 0.0
C3502 C 0.82472 0.61279 0.52088 0.0
C3503 C 0.82459 0.62525 0.54198 0.0
C3504 C 0.79833 0.6389 0.50462 0.0
C3505 C 0.81191 0.64491 0.54329 0.0
C3506 C 0.77048 0.66617 0.48993 0.0
C3507 C 0.75994 0.63683 0.45215 0.0
N3508 N 0.79936 0.65099 0.52505 0.0
N3509 N 0.77674 0.63208 0.46745 0.0
H3510 H 0.55374 0.53422 0.81185 0.0
H3511 H 0.63909 0.46505 0.7341 0.0
H3512 H 0.62372 0.5593 0.80249 0.0
H3513 H 0.57029 0.43986 0.74864 0.0
H3514 H 0.63491 0.49898 0.75976 0.0
H3515 H 0.5597 0.50025 0.78747 0.0
C3516 C 0.57026 0.53283 0.80409 0.0
C3517 C 0.58817 0.54973 0.80892 0.0
C3518 C 0.6209 0.48579 0.75779 0.0
C3519 C 0.59547 0.51026 0.78157 0.0
C3520 C 0.62343 0.46623 0.74352 0.0
C3521 C 0.60524 0.44934 0.73992 0.0
C3522 C 0.59981 0.48866 0.76815 0.0
C3523 C 0.58494 0.45214 0.75158 0.0
C3524 C 0.57376 0.51324 0.79042 0.0
C3525 C 0.60933 0.5469 0.79877 0.0
N3526 N 0.58271 0.47151 0.76502 0.0
N3527 N 0.61247 0.52738 0.78569 0.0
H3528 H 0.97817 0.69603 0.92274 0.0
H3529 H 0.02407 0.80615 0.85152 0.0
H3530 H 0.94051 0.72765 0.86971 0.0
H3531 H 0.06168 0.78271 0.90912 0.0
H3532 H 0.99671 0.77255 0.85414 0.0
H3533 H 0.01176 0.72269 0.91472 0.0
C3534 C 0.97715 0.70815 0.90907 0.0
C3535 C 0.9565 0.70965 0.8969 0.0
C3536 C 0.0111 0.77438 0.86605 0.0
C3537 C 0.99467 0.74021 0.88771 0.0
C3538 C 0.02688 0.7935 0.86437 0.0
C3539 C 0.04539 0.79702 0.87984 0.0
C3540 C 0.01339 0.75868 0.88372 0.0
C3541 C 0.0479 0.78035 0.89653 0.0
C3542 C 0.99624 0.72349 0.90462 0.0
C3543 C 0.95602 0.72594 0.87962 0.0
N3544 N 0.03193 0.76204 0.89822 0.0
N3545 N 0.97464 0.74051 0.87564 0.0
H3546 H 0.94441 0.2924 0.6716 0.0
H3547 H 0.02735 0.19613 0.62736 0.0
H3548 H 0.9639 0.28634 0.60102 0.0
H3549 H 0.01827 0.21463 0.6985 0.0
H3550 H 1.00212 0.22654 0.61662 0.0
H3551 H 0.97014 0.26261 0.68123 0.0
C3552 C 0.95466 0.2852 0.65821 0.0
C3553 C 0.95243 0.2923 0.63558 0.0
C3554 C 0.00534 0.22367 0.63458 0.0
C3555 C 0.98144 0.25718 0.6463 0.0
C3556 C 0.0194 0.20603 0.64072 0.0
C3557 C 0.0244 0.20238 0.66392 0.0
C3558 C 0.99607 0.23769 0.65177 0.0
C3559 C 0.01449 0.21649 0.68046 0.0
C3560 C 0.96919 0.26796 0.66366 0.0
C3561 C 0.96555 0.2818 0.61877 0.0
N3562 N 1.00082 0.23334 0.67411 0.0
N3563 N 0.97938 0.26466 0.62442 0.0
H3564 H 0.44482 0.21786 0.36221 0.0
H3565 H 0.55031 0.29342 0.41728 0.0
H3566 H 0.47219 0.20387 0.42878 0.0
H3567 H 0.53653 0.28985 0.34458 0.0
H3568 H 0.52338 0.25945 0.42171 0.0
H3569 H 0.47929 0.24273 0.35486 0.0
C3570 C 0.45838 0.2197 0.3751 0.0
C3571 C 0.45578 0.2087 0.39606 0.0
C3572 C 0.52665 0.26565 0.40469 0.0
C3573 C 0.49504 0.23782 0.38811 0.0
C3574 C 0.54214 0.28494 0.40215 0.0
C3575 C 0.54597 0.29408 0.38047 0.0
C3576 C 0.51438 0.25579 0.38547 0.0
C3577 C 0.5344 0.28299 0.3615 0.0
C3578 C 0.47804 0.23393 0.37092 0.0
C3579 C 0.4737 0.21183 0.41229 0.0
N3580 N 0.5189 0.26464 0.36447 0.0
N3581 N 0.4924 0.22643 0.40815 0.0
H3582 H 0.53466 0.7266 0.19942 0.0
H3583 H 0.45362 0.77987 0.10576 0.0
H3584 H 0.52052 0.69444 0.13259 0.0
H3585 H 0.46656 0.81039 0.17338 0.0
H3586 H 0.4794 0.74964 0.11436 0.0
H3587 H 0.50956 0.75706 0.19021 0.0
C3588 C 0.52582 0.72569 0.18294 0.0
C3589 C 0.52944 0.70773 0.1669 0.0
C3590 C 0.47696 0.76311 0.12723 0.0
C3591 C 0.50123 0.74327 0.15578 0.0
C3592 C 0.46252 0.78059 0.1222 0.0
C3593 C 0.45847 0.79803 0.13866 0.0
C3594 C 0.48714 0.76271 0.14914 0.0
C3595 C 0.46979 0.79772 0.15996 0.0
C3596 C 0.51167 0.74326 0.17758 0.0
C3597 C 0.51783 0.70765 0.14566 0.0
N3598 N 0.48345 0.78025 0.16464 0.0
N3599 N 0.50442 0.72526 0.14065 0.0
H3600 H 0.86329 0.07445 0.75157 0.0
H3601 H 0.9396 0.00897 0.66039 0.0
H3602 H 0.93614 0.08778 0.7473 0.0
H3603 H 0.87338 0.98276 0.68275 0.0
H3604 H 0.93578 0.0447 0.68398 0.0
H3605 H 0.86394 0.04786 0.71788 0.0
C3606 C 0.87926 0.07249 0.74291 0.0
C3607 C 0.89964 0.08347 0.7519 0.0
C3608 C 0.92194 0.03126 0.68333 0.0
C3609 C 0.90069 0.05281 0.71382 0.0
C3610 C 0.92406 0.01101 0.66977 0.0
C3611 C 0.90684 0.99292 0.66979 0.0
C3612 C 0.90232 0.03344 0.69659 0.0
C3613 C 0.88714 0.99625 0.68244 0.0
C3614 C 0.87971 0.05711 0.7239 0.0
C3615 C 0.92005 0.07976 0.74062 0.0
N3616 N 0.88546 0.016 0.69538 0.0
N3617 N 0.92011 0.06463 0.72224 0.0
H3618 H 0.753 0.07721 0.46119 0.0
H3619 H 0.7277 0.15388 0.57265 0.0
H3620 H 0.80326 0.12888 0.48916 0.0
H3621 H 0.68577 0.09439 0.54635 0.0
H3622 H 0.75785 0.14374 0.54572 0.0
H3623 H 0.73036 0.0816 0.49532 0.0
C3624 C 0.75946 0.08919 0.47485 0.0
C3625 C 0.78008 0.1025 0.4725 0.0
C3626 C 0.7423 0.13256 0.54642 0.0
C3627 C 0.75378 0.10837 0.51166 0.0
C3628 C 0.72523 0.13819 0.56195 0.0
C3629 C 0.7044 0.12465 0.56208 0.0
C3630 C 0.73826 0.11336 0.53098 0.0
C3631 C 0.7017 0.10503 0.54725 0.0
C3632 C 0.74649 0.09182 0.49438 0.0
C3633 C 0.78757 0.11802 0.49057 0.0
N3634 N 0.71825 0.10013 0.53233 0.0
N3635 N 0.77422 0.12084 0.50931 0.0
H3636 H 0.61204 0.04717 0.20149 0.0
H3637 H 0.68952 0.94767 0.24492 0.0
H3638 H 0.67569 0.03331 0.1701 0.0
H3639 H 0.62925 0.96947 0.27807 0.0
H3640 H 0.68201 0.97348 0.21312 0.0
H3641 H 0.61495 0.01326 0.225 0.0
C3642 C 0.62633 0.03651 0.19913 0.0
C3643 C 0.64341 0.04273 0.18361 0.0
C3644 C 0.67023 0.97225 0.22718 0.0
C3645 C 0.64752 1.0043 0.21118 0.0
C3646 C 0.67442 0.95738 0.24518 0.0
C3647 C 0.65997 0.95648 0.26411 0.0
C3648 C 0.65139 0.98606 0.22815 0.0
C3649 C 0.64086 0.96971 0.26384 0.0
C3650 C 0.62815 0.01725 0.21271 0.0
C3651 C 0.66193 0.02874 0.18161 0.0
N3652 N 0.63723 0.98395 0.24632 0.0
N3653 N 0.66365 0.01029 0.19543 0.0
H3654 H 0.67848 0.83528 0.97657 0.0
H3655 H 0.75151 0.90036 0.07665 0.0
H3656 H 0.66833 0.90593 0.99752 0.0
H3657 H 0.74823 0.82636 0.06425 0.0
H3658 H 0.71797 0.9025 0.05131 0.0
H3659 H 0.70071 0.83101 0.01153 0.0
C3660 C 0.68061 0.84978 0.98888 0.0
C3661 C 0.67165 0.87097 0.98428 0.0
C3662 C 0.72414 0.88571 0.05464 0.0
C3663 C 0.69765 0.86649 0.02414 0.0
C3664 C 0.74313 0.88449 0.06919 0.0
C3665 C 0.75221 0.86311 0.07269 0.0
C3666 C 0.71463 0.86542 0.04317 0.0
C3667 C 0.74137 0.84308 0.06222 0.0
C3668 C 0.69332 0.84736 0.00885 0.0
C3669 C 0.67488 0.88926 1.00063 0.0
N3670 N 0.72332 0.84476 0.04768 0.0
N3671 N 0.68805 0.88675 0.01973 0.0
H3672 H 0.28328 0.65178 0.96555 0.0
H3673 H 0.20703 0.59545 0.06205 0.0
H3674 H 0.28198 0.57887 0.9788 0.0
H3675 H 0.22238 0.6691 0.05802 0.0
H3676 H 0.23752 0.58872 0.03493 0.0
H3677 H 0.26421 0.65852 1.00182 0.0
C3678 C 0.27931 0.63724 0.97641 0.0
C3679 C 0.28425 0.61477 0.96932 0.0
C3680 C 0.23478 0.60635 0.04049 0.0
C3681 C 0.26177 0.62218 0.01064 0.0
C3682 C 0.21755 0.61017 0.05618 0.0
C3683 C 0.21263 0.63285 0.06264 0.0
C3684 C 0.24675 0.6254 0.03073 0.0
C3685 C 0.22608 0.65137 0.05389 0.0
C3686 C 0.2684 0.64107 0.99712 0.0
C3687 C 0.27864 0.59648 0.98385 0.0
N3688 N 0.24228 0.64725 0.03812 0.0
N3689 N 0.26732 0.60051 1.00368 0.0
H3690 H 0.14985 0.53463 0.66587 0.0
H3691 H 0.18128 0.50193 0.79459 0.0
H3692 H 0.17416 0.58217 0.72086 0.0
H3693 H 0.16538 0.44745 0.7433 0.0
H3694 H 0.17864 0.53048 0.76587 0.0
H3695 H 0.1558 0.50186 0.69122 0.0
C3696 C 0.15678 0.53822 0.68302 0.0
C3697 C 0.16143 0.56136 0.69117 0.0
C3698 C 0.17588 0.51236 0.76052 0.0
C3699 C 0.16799 0.52402 0.72029 0.0
C3700 C 0.17738 0.49582 0.77712 0.0
C3701 C 0.17358 0.47199 0.7716 0.0
C3702 C 0.17043 0.50554 0.73766 0.0
C3703 C 0.16863 0.46557 0.74841 0.0
C3704 C 0.16002 0.51949 0.69754 0.0
C3705 C 0.17011 0.56482 0.71368 0.0
N3706 N 0.16704 0.48226 0.73228 0.0
N3707 N 0.17294 0.54658 0.72723 0.0
H3708 H 0.28638 0.35576 0.5356 0.0
H3709 H 0.16709 0.40309 0.49899 0.0
H3710 H 0.25286 0.40062 0.58269 0.0
H3711 H 0.19786 0.34479 0.46738 0.0
H3712 H 0.19636 0.40394 0.53026 0.0
H3713 H 0.25305 0.35327 0.5107 0.0
C3714 C 0.27185 0.36507 0.54081 0.0
C3715 C 0.27259 0.37849 0.56133 0.0
C3716 C 0.19638 0.3908 0.5166 0.0
C3717 C 0.23361 0.37587 0.53223 0.0
C3718 C 0.17961 0.39022 0.49883 0.0
C3719 C 0.18006 0.37393 0.48037 0.0
C3720 C 0.2136 0.37499 0.51574 0.0
C3721 C 0.19687 0.35786 0.48099 0.0
C3722 C 0.25262 0.36359 0.52649 0.0
C3723 C 0.25301 0.39 0.56707 0.0
N3724 N 0.21284 0.35894 0.49809 0.0
N3725 N 0.23434 0.38867 0.55244 0.0
H3726 H 0.44069 0.57732 0.25719 0.0
H3727 H 0.36994 0.4951 0.17068 0.0
H3728 H 0.36996 0.58698 0.24243 0.0
H3729 H 0.443 0.50606 0.1661 0.0
H3730 H 0.36935 0.53091 0.19417 0.0
H3731 H 0.44242 0.55379 0.22179 0.0
C3732 C 0.42565 0.57486 0.24614 0.0
C3733 C 0.40514 0.58394 0.25264 0.0
C3734 C 0.38546 0.52592 0.18752 0.0
C3735 C 0.40676 0.55656 0.21246 0.0
C3736 C 0.38578 0.50554 0.17408 0.0
C3737 C 0.40653 0.49787 0.16642 0.0
C3738 C 0.40615 0.53827 0.19394 0.0
C3739 C 0.42665 0.51166 0.1715 0.0
C3740 C 0.42664 0.56147 0.22593 0.0
C3741 C 0.38611 0.58031 0.23786 0.0
N3742 N 0.42604 0.53099 0.18541 0.0
N3743 N 0.38722 0.56641 0.21865 0.0
loop_
_geom_bond_atom_site_label_1
_geom_bond_atom_site_label_2
_geom_bond_distance
_geom_bond_site_symmetry_2
_ccdc_geom_bond_type
C0 C1 1.351 . S
C0 N3 1.368 . S
C0 H5 0.931 . S
C1 C0 1.351 . S
C1 N2 1.373 . S
C1 H29 0.930 . S
N2 C1 1.373 . S
N2 C4 1.340 . S
N3 C0 1.368 . S
N3 C4 1.321 . S
N3 Co6 2.135 . S
C4 N2 1.340 . S
C4 N3 1.321 . S
C4 H28 0.930 . S
H5 C0 0.931 . S
Co6 N3 2.135 . S
Co6 N9 2.121 . S
Co6 O14 2.055 . S
Co6 O17 2.039 . S
Co6 N20 2.140 . S
C7 O8 1.227 . S
C7 O17 1.265 . S
O8 C7 1.227 . S
N9 Co6 2.121 . S
N9 C11 1.375 . S
N9 C12 1.313 . S
C10 C11 1.338 . S
C10 N13 1.377 . S
C10 H30 0.930 . S
C11 N9 1.375 . S
C11 C10 1.338 . S
C11 H15 0.931 . S
C12 N9 1.313 . S
C12 N13 1.344 . S
C12 H16 0.930 . S
N13 C10 1.377 . S
N13 C12 1.344 . S
O14 Co6 2.055 . S
O14 C18 1.253 . S
H15 C11 0.931 . S
H16 C12 0.930 . S
O17 Co6 2.039 . S
O17 C7 1.265 . S
C18 O14 1.253 . S
C18 O19 1.227 . S
O19 C18 1.227 . S
N20 Co6 2.140 . S
N20 C23 1.346 . S
N20 C24 1.345 . S
C21 C22 1.387 . S
C21 C25 1.391 . S
C22 C21 1.387 . S
C22 C23 1.369 . S
C22 H31 0.929 . S
C23 N20 1.346 . S
C23 C22 1.369 . S
C23 H26 0.928 . S
C24 N20 1.345 . S
C24 C25 1.371 . S
C24 H27 0.931 . S
C25 C21 1.391 . S
C25 C24 1.371 . S
C25 H32 0.930 . S
H26 C23 0.928 . S
H27 C24 0.931 . S
H28 C4 0.930 . S
H29 C1 0.930 . S
H30 C10 0.930 . S
H31 C22 0.929 . S
H32 C25 0.930 . S
C33 C34 1.351 . S
C33 N36 1.368 . S
C33 H38 0.931 . S
C34 C33 1.351 . S
C34 N35 1.373 . S
C34 H62 0.930 . S
N35 C34 1.373 . S
N35 C37 1.340 . S
N36 C33 1.368 . S
N36 C37 1.321 . S
N36 Co39 2.135 . S
C37 N35 1.340 . S
C37 N36 1.321 . S
C37 H61 0.930 . S
H38 C33 0.931 . S
Co39 N36 2.135 . S
Co39 N42 2.121 . S
Co39 O47 2.055 . S
Co39 O50 2.039 . S
Co39 N53 2.140 . S
C40 O41 1.227 . S
C40 O50 1.265 . S
O41 C40 1.227 . S
N42 Co39 2.121 . S
N42 C44 1.375 . S
N42 C45 1.313 . S
C43 C44 1.338 . S
C43 N46 1.377 . S
C43 H63 0.930 . S
C44 N42 1.375 . S
C44 C43 1.338 . S
C44 H48 0.931 . S
C45 N42 1.313 . S
C45 N46 1.344 . S
C45 H49 0.930 . S
N46 C43 1.377 . S
N46 C45 1.344 . S
O47 Co39 2.055 . S
O47 C51 1.253 . S
H48 C44 0.931 . S
H49 C45 0.930 . S
O50 Co39 2.039 . S
O50 C40 1.265 . S
C51 O47 1.253 . S
C51 O52 1.227 . S
O52 C51 1.227 . S
N53 Co39 2.140 . S
N53 C56 1.346 . S
N53 C57 1.345 . S
C54 C55 1.387 . S
C54 C58 1.391 . S
C55 C54 1.387 . S
C55 C56 1.369 . S
C55 H64 0.929 . S
C56 N53 1.346 . S
C56 C55 1.369 . S
C56 H59 0.928 . S
C57 N53 1.345 . S
C57 C58 1.371 . S
C57 H60 0.931 . S
C58 C54 1.391 . S
C58 C57 1.371 . S
C58 H65 0.930 . S
H59 C56 0.928 . S
H60 C57 0.931 . S
H61 C37 0.930 . S
H62 C34 0.930 . S
H63 C43 0.930 . S
H64 C55 0.929 . S
H65 C58 0.930 . S
C66 C67 1.351 . S
C66 N69 1.368 . S
C66 H71 0.931 . S
C67 C66 1.351 . S
C67 N68 1.373 . S
C67 H95 0.930 . S
N68 C67 1.373 . S
N68 C70 1.340 . S
N69 C66 1.368 . S
N69 C70 1.321 . S
N69 Co72 2.135 . S
C70 N68 1.340 . S
C70 N69 1.321 . S
C70 H94 0.930 . S
H71 C66 0.931 . S
Co72 N69 2.135 . S
Co72 N75 2.121 . S
Co72 O80 2.055 . S
Co72 O83 2.039 . S
Co72 N86 2.140 . S
C73 O74 1.227 . S
C73 O83 1.265 . S
O74 C73 1.227 . S
N75 Co72 2.121 . S
N75 C77 1.375 . S
N75 C78 1.313 . S
C76 C77 1.338 . S
C76 N79 1.377 . S
C76 H96 0.930 . S
C77 N75 1.375 . S
C77 C76 1.338 . S
C77 H81 0.931 . S
C78 N75 1.313 . S
C78 N79 1.344 . S
C78 H82 0.930 . S
N79 C76 1.377 . S
N79 C78 1.344 . S
O80 Co72 2.055 . S
O80 C84 1.253 . S
H81 C77 0.931 . S
H82 C78 0.930 . S
O83 Co72 2.039 . S
O83 C73 1.265 . S
C84 O80 1.253 . S
C84 O85 1.227 . S
O85 C84 1.227 . S
N86 Co72 2.140 . S
N86 C89 1.346 . S
N86 C90 1.345 . S
C87 C88 1.387 . S
C87 C91 1.391 . S
C88 C87 1.387 . S
C88 C89 1.369 . S
C88 H97 0.929 . S
C89 N86 1.346 . S
C89 C88 1.369 . S
C89 H92 0.928 . S
C90 N86 1.345 . S
C90 C91 1.371 . S
C90 H93 0.931 . S
C91 C87 1.391 . S
C91 C90 1.371 . S
C91 H98 0.930 . S
H92 C89 0.928 . S
H93 C90 0.931 . S
H94 C70 0.930 . S
H95 C67 0.930 . S
H96 C76 0.930 . S
H97 C88 0.929 . S
H98 C91 0.930 . S
C99 C100 1.351 . S
C99 N102 1.368 . S
C99 H104 0.931 . S
C100 C99 1.351 . S
C100 N101 1.373 . S
C100 H128 0.930 . S
N101 C100 1.373 . S
N101 C103 1.340 . S
N102 C99 1.368 . S
N102 C103 1.321 . S
N102 Co105 2.135 . S
C103 N101 1.340 . S
C103 N102 1.321 . S
C103 H127 0.930 . S
H104 C99 0.931 . S
Co105 N102 2.135 . S
Co105 N108 2.121 . S
Co105 O113 2.055 . S
Co105 O116 2.039 . S
Co105 N119 2.140 . S
C106 O107 1.227 . S
C106 O116 1.265 . S
O107 C106 1.227 . S
N108 Co105 2.121 . S
N108 C110 1.375 . S
N108 C111 1.313 . S
C109 C110 1.338 . S
C109 N112 1.377 . S
C109 H129 0.930 . S
C110 N108 1.375 . S
C110 C109 1.338 . S
C110 H114 0.931 . S
C111 N108 1.313 . S
C111 N112 1.344 . S
C111 H115 0.930 . S
N112 C109 1.377 . S
N112 C111 1.344 . S
O113 Co105 2.055 . S
O113 C117 1.253 . S
H114 C110 0.931 . S
H115 C111 0.930 . S
O116 Co105 2.039 . S
O116 C106 1.265 . S
C117 O113 1.253 . S
C117 O118 1.227 . S
O118 C117 1.227 . S
N119 Co105 2.140 . S
N119 C122 1.346 . S
N119 C123 1.345 . S
C120 C121 1.387 . S
C120 C124 1.391 . S
C121 C120 1.387 . S
C121 C122 1.369 . S
C121 H130 0.929 . S
C122 N119 1.346 . S
C122 C121 1.369 . S
C122 H125 0.928 . S
C123 N119 1.345 . S
C123 C124 1.371 . S
C123 H126 0.931 . S
C124 C120 1.391 . S
C124 C123 1.371 . S
C124 H131 0.930 . S
H125 C122 0.928 . S
H126 C123 0.931 . S
H127 C103 0.930 . S
H128 C100 0.930 . S
H129 C109 0.930 . S
H130 C121 0.929 . S
H131 C124 0.930 . S
C132 C133 1.351 . S
C132 N135 1.368 . S
C132 H137 0.931 . S
C133 C132 1.351 . S
C133 N134 1.373 . S
C133 H161 0.930 . S
N134 C133 1.373 . S
N134 C136 1.340 . S
N135 C132 1.368 . S
N135 C136 1.321 . S
N135 Co138 2.135 . S
C136 N134 1.340 . S
C136 N135 1.321 . S
C136 H160 0.930 . S
H137 C132 0.931 . S
Co138 N135 2.135 . S
Co138 N141 2.121 . S
Co138 O146 2.055 . S
Co138 O149 2.039 . S
Co138 N152 2.140 . S
C139 O140 1.227 . S
C139 O149 1.265 . S
O140 C139 1.227 . S
N141 Co138 2.121 . S
N141 C143 1.375 . S
N141 C144 1.313 . S
C142 C143 1.338 . S
C142 N145 1.377 . S
C142 H162 0.930 . S
C143 N141 1.375 . S
C143 C142 1.338 . S
C143 H147 0.931 . S
C144 N141 1.313 . S
C144 N145 1.344 . S
C144 H148 0.930 . S
N145 C142 1.377 . S
N145 C144 1.344 . S
O146 Co138 2.055 . S
O146 C150 1.253 . S
H147 C143 0.931 . S
H148 C144 0.930 . S
O149 Co138 2.039 . S
O149 C139 1.265 . S
C150 O146 1.253 . S
C150 O151 1.227 . S
O151 C150 1.227 . S
N152 Co138 2.140 . S
N152 C155 1.346 . S
N152 C156 1.345 . S
C153 C154 1.387 . S
C153 C157 1.391 . S
C154 C153 1.387 . S
C154 C155 1.369 . S
C154 H163 0.929 . S
C155 N152 1.346 . S
C155 C154 1.369 . S
C155 H158 0.928 . S
C156 N152 1.345 . S
C156 C157 1.371 . S
C156 H159 0.931 . S
C157 C153 1.391 . S
C157 C156 1.371 . S
C157 H164 0.930 . S
H158 C155 0.928 . S
H159 C156 0.931 . S
H160 C136 0.930 . S
H161 C133 0.930 . S
H162 C142 0.930 . S
H163 C154 0.929 . S
H164 C157 0.930 . S
C165 C166 1.351 . S
C165 N168 1.368 . S
C165 H170 0.931 . S
C166 C165 1.351 . S
C166 N167 1.373 . S
C166 H194 0.930 . S
N167 C166 1.373 . S
N167 C169 1.340 . S
N168 C165 1.368 . S
N168 C169 1.321 . S
N168 Co171 2.135 . S
C169 N167 1.340 . S
C169 N168 1.321 . S
C169 H193 0.930 . S
H170 C165 0.931 . S
Co171 N168 2.135 . S
Co171 N174 2.121 . S
Co171 O179 2.055 . S
Co171 O182 2.039 . S
Co171 N185 2.140 . S
C172 O173 1.227 . S
C172 O182 1.265 . S
O173 C172 1.227 . S
N174 Co171 2.121 . S
N174 C176 1.375 . S
N174 C177 1.313 . S
C175 C176 1.338 . S
C175 N178 1.377 . S
C175 H195 0.930 . S
C176 N174 1.375 . S
C176 C175 1.338 . S
C176 H180 0.931 . S
C177 N174 1.313 . S
C177 N178 1.344 . S
C177 H181 0.930 . S
N178 C175 1.377 . S
N178 C177 1.344 . S
O179 Co171 2.055 . S
O179 C183 1.253 . S
H180 C176 0.931 . S
H181 C177 0.930 . S
O182 Co171 2.039 . S
O182 C172 1.265 . S
C183 O179 1.253 . S
C183 O184 1.227 . S
O184 C183 1.227 . S
N185 Co171 2.140 . S
N185 C188 1.346 . S
N185 C189 1.345 . S
C186 C187 1.387 . S
C186 C190 1.391 . S
C187 C186 1.387 . S
C187 C188 1.369 . S
C187 H196 0.929 . S
C188 N185 1.346 . S
C188 C187 1.369 . S
C188 H191 0.928 . S
C189 N185 1.345 . S
C189 C190 1.371 . S
C189 H192 0.931 . S
C190 C186 1.391 . S
C190 C189 1.371 . S
C190 H197 0.930 . S
H191 C188 0.928 . S
H192 C189 0.931 . S
H193 C169 0.930 . S
H194 C166 0.930 . S
H195 C175 0.930 . S
H196 C187 0.929 . S
H197 C190 0.930 . S
C198 C199 1.351 . S
C198 N201 1.368 . S
C198 H203 0.931 . S
C199 C198 1.351 . S
C199 N200 1.373 . S
C199 H227 0.930 . S
N200 C199 1.373 . S
N200 C202 1.340 . S
N201 C198 1.368 . S
N201 C202 1.321 . S
N201 Co204 2.135 . S
C202 N200 1.340 . S
C202 N201 1.321 . S
C202 H226 0.930 . S
H203 C198 0.931 . S
Co204 N201 2.135 . S
Co204 N207 2.121 . S
Co204 O212 2.055 . S
Co204 O215 2.039 . S
Co204 N218 2.140 . S
C205 O206 1.227 . S
C205 O215 1.265 . S
O206 C205 1.227 . S
N207 Co204 2.121 . S
N207 C209 1.375 . S
N207 C210 1.313 . S
C208 C209 1.338 . S
C208 N211 1.377 . S
C208 H228 0.930 . S
C209 N207 1.375 . S
C209 C208 1.338 . S
C209 H213 0.931 . S
C210 N207 1.313 . S
C210 N211 1.344 . S
C210 H214 0.930 . S
N211 C208 1.377 . S
N211 C210 1.344 . S
O212 Co204 2.055 . S
O212 C216 1.253 . S
H213 C209 0.931 . S
H214 C210 0.930 . S
O215 Co204 2.039 . S
O215 C205 1.265 . S
C216 O212 1.253 . S
C216 O217 1.227 . S
O217 C216 1.227 . S
N218 Co204 2.140 . S
N218 C221 1.346 . S
N218 C222 1.345 . S
C219 C220 1.387 . S
C219 C223 1.391 . S
C220 C219 1.387 . S
C220 C221 1.369 . S
C220 H229 0.929 . S
C221 N218 1.346 . S
C221 C220 1.369 . S
C221 H224 0.928 . S
C222 N218 1.345 . S
C222 C223 1.371 . S
C222 H225 0.931 . S
C223 C219 1.391 . S
C223 C222 1.371 . S
C223 H230 0.930 . S
H224 C221 0.928 . S
H225 C222 0.931 . S
H226 C202 0.930 . S
H227 C199 0.930 . S
H228 C208 0.930 . S
H229 C220 0.929 . S
H230 C223 0.930 . S
C231 C232 1.351 . S
C231 N234 1.368 . S
C231 H236 0.931 . S
C232 C231 1.351 . S
C232 N233 1.373 . S
C232 H260 0.930 . S
N233 C232 1.373 . S
N233 C235 1.340 . S
N234 C231 1.368 . S
N234 C235 1.321 . S
N234 Co237 2.135 . S
C235 N233 1.340 . S
C235 N234 1.321 . S
C235 H259 0.930 . S
H236 C231 0.931 . S
Co237 N234 2.135 . S
Co237 N240 2.121 . S
Co237 O245 2.055 . S
Co237 O248 2.039 . S
Co237 N251 2.140 . S
C238 O239 1.227 . S
C238 O248 1.265 . S
O239 C238 1.227 . S
N240 Co237 2.121 . S
N240 C242 1.375 . S
N240 C243 1.313 . S
C241 C242 1.338 . S
C241 N244 1.377 . S
C241 H261 0.930 . S
C242 N240 1.375 . S
C242 C241 1.338 . S
C242 H246 0.931 . S
C243 N240 1.313 . S
C243 N244 1.344 . S
C243 H247 0.930 . S
N244 C241 1.377 . S
N244 C243 1.344 . S
O245 Co237 2.055 . S
O245 C249 1.253 . S
H246 C242 0.931 . S
H247 C243 0.930 . S
O248 Co237 2.039 . S
O248 C238 1.265 . S
C249 O245 1.253 . S
C249 O250 1.227 . S
O250 C249 1.227 . S
N251 Co237 2.140 . S
N251 C254 1.346 . S
N251 C255 1.345 . S
C252 C253 1.387 . S
C252 C256 1.391 . S
C253 C252 1.387 . S
C253 C254 1.369 . S
C253 H262 0.929 . S
C254 N251 1.346 . S
C254 C253 1.369 . S
C254 H257 0.928 . S
C255 N251 1.345 . S
C255 C256 1.371 . S
C255 H258 0.931 . S
C256 C252 1.391 . S
C256 C255 1.371 . S
C256 H263 0.930 . S
H257 C254 0.928 . S
H258 C255 0.931 . S
H259 C235 0.930 . S
H260 C232 0.930 . S
H261 C241 0.930 . S
H262 C253 0.929 . S
H263 C256 0.930 . S
C264 C265 1.351 . S
C264 N267 1.368 . S
C264 H269 0.931 . S
C265 C264 1.351 . S
C265 N266 1.373 . S
C265 H293 0.930 . S
N266 C265 1.373 . S
N266 C268 1.340 . S
N267 C264 1.368 . S
N267 C268 1.321 . S
N267 Co270 2.135 . S
C268 N266 1.340 . S
C268 N267 1.321 . S
C268 H292 0.930 . S
H269 C264 0.931 . S
Co270 N267 2.135 . S
Co270 N273 2.121 . S
Co270 O278 2.055 . S
Co270 O281 2.039 . S
Co270 N284 2.140 . S
C271 O272 1.227 . S
C271 O281 1.265 . S
O272 C271 1.227 . S
N273 Co270 2.121 . S
N273 C275 1.375 . S
N273 C276 1.313 . S
C274 C275 1.338 . S
C274 N277 1.377 . S
C274 H294 0.930 . S
C275 N273 1.375 . S
C275 C274 1.338 . S
C275 H279 0.931 . S
C276 N273 1.313 . S
C276 N277 1.344 . S
C276 H280 0.930 . S
N277 C274 1.377 . S
N277 C276 1.344 . S
O278 Co270 2.055 . S
O278 C282 1.253 . S
H279 C275 0.931 . S
H280 C276 0.930 . S
O281 Co270 2.039 . S
O281 C271 1.265 . S
C282 O278 1.253 . S
C282 O283 1.227 . S
O283 C282 1.227 . S
N284 Co270 2.140 . S
N284 C287 1.346 . S
N284 C288 1.345 . S
C285 C286 1.387 . S
C285 C289 1.391 . S
C286 C285 1.387 . S
C286 C287 1.369 . S
C286 H295 0.929 . S
C287 N284 1.346 . S
C287 C286 1.369 . S
C287 H290 0.928 . S
C288 N284 1.345 . S
C288 C289 1.371 . S
C288 H291 0.931 . S
C289 C285 1.391 . S
C289 C288 1.371 . S
C289 H296 0.930 . S
H290 C287 0.928 . S
H291 C288 0.931 . S
H292 C268 0.930 . S
H293 C265 0.930 . S
H294 C274 0.930 . S
H295 C286 0.929 . S
H296 C289 0.930 . S
C297 C298 1.351 . S
C297 N300 1.368 . S
C297 H302 0.931 . S
C298 C297 1.351 . S
C298 N299 1.373 . S
C298 H326 0.930 . S
N299 C298 1.373 . S
N299 C301 1.340 . S
N300 C297 1.368 . S
N300 C301 1.321 . S
N300 Co303 2.135 . S
C301 N299 1.340 . S
C301 N300 1.321 . S
C301 H325 0.930 . S
H302 C297 0.931 . S
Co303 N300 2.135 . S
Co303 N306 2.121 . S
Co303 O311 2.055 . S
Co303 O314 2.039 . S
Co303 N317 2.140 . S
C304 O305 1.227 . S
C304 O314 1.265 . S
O305 C304 1.227 . S
N306 Co303 2.121 . S
N306 C308 1.375 . S
N306 C309 1.313 . S
C307 C308 1.338 . S
C307 N310 1.377 . S
C307 H327 0.930 . S
C308 N306 1.375 . S
C308 C307 1.338 . S
C308 H312 0.931 . S
C309 N306 1.313 . S
C309 N310 1.344 . S
C309 H313 0.930 . S
N310 C307 1.377 . S
N310 C309 1.344 . S
O311 Co303 2.055 . S
O311 C315 1.253 . S
H312 C308 0.931 . S
H313 C309 0.930 . S
O314 Co303 2.039 . S
O314 C304 1.265 . S
C315 O311 1.253 . S
C315 O316 1.227 . S
O316 C315 1.227 . S
N317 Co303 2.140 . S
N317 C320 1.346 . S
N317 C321 1.345 . S
C318 C319 1.387 . S
C318 C322 1.391 . S
C319 C318 1.387 . S
C319 C320 1.369 . S
C319 H328 0.929 . S
C320 N317 1.346 . S
C320 C319 1.369 . S
C320 H323 0.928 . S
C321 N317 1.345 . S
C321 C322 1.371 . S
C321 H324 0.931 . S
C322 C318 1.391 . S
C322 C321 1.371 . S
C322 H329 0.930 . S
H323 C320 0.928 . S
H324 C321 0.931 . S
H325 C301 0.930 . S
H326 C298 0.930 . S
H327 C307 0.930 . S
H328 C319 0.929 . S
H329 C322 0.930 . S
C330 C331 1.351 . S
C330 N333 1.368 . S
C330 H335 0.931 . S
C331 C330 1.351 . S
C331 N332 1.373 . S
C331 H359 0.930 . S
N332 C331 1.373 . S
N332 C334 1.340 . S
N333 C330 1.368 . S
N333 C334 1.321 . S
N333 Co336 2.135 . S
C334 N332 1.340 . S
C334 N333 1.321 . S
C334 H358 0.930 . S
H335 C330 0.931 . S
Co336 N333 2.135 . S
Co336 N339 2.121 . S
Co336 O344 2.055 . S
Co336 O347 2.039 . S
Co336 N350 2.140 . S
C337 O338 1.227 . S
C337 O347 1.265 . S
O338 C337 1.227 . S
N339 Co336 2.121 . S
N339 C341 1.375 . S
N339 C342 1.313 . S
C340 C341 1.338 . S
C340 N343 1.377 . S
C340 H360 0.930 . S
C341 N339 1.375 . S
C341 C340 1.338 . S
C341 H345 0.931 . S
C342 N339 1.313 . S
C342 N343 1.344 . S
C342 H346 0.930 . S
N343 C340 1.377 . S
N343 C342 1.344 . S
O344 Co336 2.055 . S
O344 C348 1.253 . S
H345 C341 0.931 . S
H346 C342 0.930 . S
O347 Co336 2.039 . S
O347 C337 1.265 . S
C348 O344 1.253 . S
C348 O349 1.227 . S
O349 C348 1.227 . S
N350 Co336 2.140 . S
N350 C353 1.346 . S
N350 C354 1.345 . S
C351 C352 1.387 . S
C351 C355 1.391 . S
C352 C351 1.387 . S
C352 C353 1.369 . S
C352 H361 0.929 . S
C353 N350 1.346 . S
C353 C352 1.369 . S
C353 H356 0.928 . S
C354 N350 1.345 . S
C354 C355 1.371 . S
C354 H357 0.931 . S
C355 C351 1.391 . S
C355 C354 1.371 . S
C355 H362 0.930 . S
H356 C353 0.928 . S
H357 C354 0.931 . S
H358 C334 0.930 . S
H359 C331 0.930 . S
H360 C340 0.930 . S
H361 C352 0.929 . S
H362 C355 0.930 . S
C363 C364 1.351 . S
C363 N366 1.368 . S
C363 H368 0.931 . S
C364 C363 1.351 . S
C364 N365 1.373 . S
C364 H392 0.930 . S
N365 C364 1.373 . S
N365 C367 1.340 . S
N366 C363 1.368 . S
N366 C367 1.321 . S
N366 Co369 2.135 . S
C367 N365 1.340 . S
C367 N366 1.321 . S
C367 H391 0.930 . S
H368 C363 0.931 . S
Co369 N366 2.135 . S
Co369 N372 2.121 . S
Co369 O377 2.055 . S
Co369 O380 2.039 . S
Co369 N383 2.140 . S
C370 O371 1.227 . S
C370 O380 1.265 . S
O371 C370 1.227 . S
N372 Co369 2.121 . S
N372 C374 1.375 . S
N372 C375 1.313 . S
C373 C374 1.338 . S
C373 N376 1.377 . S
C373 H393 0.930 . S
C374 N372 1.375 . S
C374 C373 1.338 . S
C374 H378 0.931 . S
C375 N372 1.313 . S
C375 N376 1.344 . S
C375 H379 0.930 . S
N376 C373 1.377 . S
N376 C375 1.344 . S
O377 Co369 2.055 . S
O377 C381 1.253 . S
H378 C374 0.931 . S
H379 C375 0.930 . S
O380 Co369 2.039 . S
O380 C370 1.265 . S
C381 O377 1.253 . S
C381 O382 1.227 . S
O382 C381 1.227 . S
N383 Co369 2.140 . S
N383 C386 1.346 . S
N383 C387 1.345 . S
C384 C385 1.387 . S
C384 C388 1.391 . S
C385 C384 1.387 . S
C385 C386 1.369 . S
C385 H394 0.929 . S
C386 N383 1.346 . S
C386 C385 1.369 . S
C386 H389 0.928 . S
C387 N383 1.345 . S
C387 C388 1.371 . S
C387 H390 0.931 . S
C388 C384 1.391 . S
C388 C387 1.371 . S
C388 H395 0.930 . S
H389 C386 0.928 . S
H390 C387 0.931 . S
H391 C367 0.930 . S
H392 C364 0.930 . S
H393 C373 0.930 . S
H394 C385 0.929 . S
H395 C388 0.930 . S
C396 C397 1.351 . S
C396 N399 1.368 . S
C396 H401 0.931 . S
C397 C396 1.351 . S
C397 N398 1.373 . S
C397 H425 0.930 . S
N398 C397 1.373 . S
N398 C400 1.340 . S
N399 C396 1.368 . S
N399 C400 1.321 . S
N399 Co402 2.135 . S
C400 N398 1.340 . S
C400 N399 1.321 . S
C400 H424 0.930 . S
H401 C396 0.931 . S
Co402 N399 2.135 . S
Co402 N405 2.121 . S
Co402 O410 2.055 . S
Co402 O413 2.039 . S
Co402 N416 2.140 . S
C403 O404 1.227 . S
C403 O413 1.265 . S
O404 C403 1.227 . S
N405 Co402 2.121 . S
N405 C407 1.375 . S
N405 C408 1.313 . S
C406 C407 1.338 . S
C406 N409 1.377 . S
C406 H426 0.930 . S
C407 N405 1.375 . S
C407 C406 1.338 . S
C407 H411 0.931 . S
C408 N405 1.313 . S
C408 N409 1.344 . S
C408 H412 0.930 . S
N409 C406 1.377 . S
N409 C408 1.344 . S
O410 Co402 2.055 . S
O410 C414 1.253 . S
H411 C407 0.931 . S
H412 C408 0.930 . S
O413 Co402 2.039 . S
O413 C403 1.265 . S
C414 O410 1.253 . S
C414 O415 1.227 . S
O415 C414 1.227 . S
N416 Co402 2.140 . S
N416 C419 1.346 . S
N416 C420 1.345 . S
C417 C418 1.387 . S
C417 C421 1.391 . S
C418 C417 1.387 . S
C418 C419 1.369 . S
C418 H427 0.929 . S
C419 N416 1.346 . S
C419 C418 1.369 . S
C419 H422 0.928 . S
C420 N416 1.345 . S
C420 C421 1.371 . S
C420 H423 0.931 . S
C421 C417 1.391 . S
C421 C420 1.371 . S
C421 H428 0.930 . S
H422 C419 0.928 . S
H423 C420 0.931 . S
H424 C400 0.930 . S
H425 C397 0.930 . S
H426 C406 0.930 . S
H427 C418 0.929 . S
H428 C421 0.930 . S
C429 C430 1.351 . S
C429 N432 1.368 . S
C429 H434 0.931 . S
C430 C429 1.351 . S
C430 N431 1.373 . S
C430 H458 0.930 . S
N431 C430 1.373 . S
N431 C433 1.340 . S
N432 C429 1.368 . S
N432 C433 1.321 . S
N432 Co435 2.135 . S
C433 N431 1.340 . S
C433 N432 1.321 . S
C433 H457 0.930 . S
H434 C429 0.931 . S
Co435 N432 2.135 . S
Co435 N438 2.121 . S
Co435 O443 2.055 . S
Co435 O446 2.039 . S
Co435 N449 2.140 . S
C436 O437 1.227 . S
C436 O446 1.265 . S
O437 C436 1.227 . S
N438 Co435 2.121 . S
N438 C440 1.375 . S
N438 C441 1.313 . S
C439 C440 1.338 . S
C439 N442 1.377 . S
C439 H459 0.930 . S
C440 N438 1.375 . S
C440 C439 1.338 . S
C440 H444 0.931 . S
C441 N438 1.313 . S
C441 N442 1.344 . S
C441 H445 0.930 . S
N442 C439 1.377 . S
N442 C441 1.344 . S
O443 Co435 2.055 . S
O443 C447 1.253 . S
H444 C440 0.931 . S
H445 C441 0.930 . S
O446 Co435 2.039 . S
O446 C436 1.265 . S
C447 O443 1.253 . S
C447 O448 1.227 . S
O448 C447 1.227 . S
N449 Co435 2.140 . S
N449 C452 1.346 . S
N449 C453 1.345 . S
C450 C451 1.387 . S
C450 C454 1.391 . S
C451 C450 1.387 . S
C451 C452 1.369 . S
C451 H460 0.929 . S
C452 N449 1.346 . S
C452 C451 1.369 . S
C452 H455 0.928 . S
C453 N449 1.345 . S
C453 C454 1.371 . S
C453 H456 0.931 . S
C454 C450 1.391 . S
C454 C453 1.371 . S
C454 H461 0.930 . S
H455 C452 0.928 . S
H456 C453 0.931 . S
H457 C433 0.930 . S
H458 C430 0.930 . S
H459 C439 0.930 . S
H460 C451 0.929 . S
H461 C454 0.930 . S
C462 C463 1.351 . S
C462 N465 1.368 . S
C462 H467 0.931 . S
C463 C462 1.351 . S
C463 N464 1.373 . S
C463 H491 0.930 . S
N464 C463 1.373 . S
N464 C466 1.340 . S
N465 C462 1.368 . S
N465 C466 1.321 . S
N465 Co468 2.135 . S
C466 N464 1.340 . S
C466 N465 1.321 . S
C466 H490 0.930 . S
H467 C462 0.931 . S
Co468 N465 2.135 . S
Co468 N471 2.121 . S
Co468 O476 2.055 . S
Co468 O479 2.039 . S
Co468 N482 2.140 . S
C469 O470 1.227 . S
C469 O479 1.265 . S
O470 C469 1.227 . S
N471 Co468 2.121 . S
N471 C473 1.375 . S
N471 C474 1.313 . S
C472 C473 1.338 . S
C472 N475 1.377 . S
C472 H492 0.930 . S
C473 N471 1.375 . S
C473 C472 1.338 . S
C473 H477 0.931 . S
C474 N471 1.313 . S
C474 N475 1.344 . S
C474 H478 0.930 . S
N475 C472 1.377 . S
N475 C474 1.344 . S
O476 Co468 2.055 . S
O476 C480 1.253 . S
H477 C473 0.931 . S
H478 C474 0.930 . S
O479 Co468 2.039 . S
O479 C469 1.265 . S
C480 O476 1.253 . S
C480 O481 1.227 . S
O481 C480 1.227 . S
N482 Co468 2.140 . S
N482 C485 1.346 . S
N482 C486 1.345 . S
C483 C484 1.387 . S
C483 C487 1.391 . S
C484 C483 1.387 . S
C484 C485 1.369 . S
C484 H493 0.929 . S
C485 N482 1.346 . S
C485 C484 1.369 . S
C485 H488 0.928 . S
C486 N482 1.345 . S
C486 C487 1.371 . S
C486 H489 0.931 . S
C487 C483 1.391 . S
C487 C486 1.371 . S
C487 H494 0.930 . S
H488 C485 0.928 . S
H489 C486 0.931 . S
H490 C466 0.930 . S
H491 C463 0.930 . S
H492 C472 0.930 . S
H493 C484 0.929 . S
H494 C487 0.930 . S
C495 C496 1.351 . S
C495 N498 1.368 . S
C495 H500 0.931 . S
C496 C495 1.351 . S
C496 N497 1.373 . S
C496 H524 0.930 . S
N497 C496 1.373 . S
N497 C499 1.340 . S
N498 C495 1.368 . S
N498 C499 1.321 . S
N498 Co501 2.135 . S
C499 N497 1.340 . S
C499 N498 1.321 . S
C499 H523 0.930 . S
H500 C495 0.931 . S
Co501 N498 2.135 . S
Co501 N504 2.121 . S
Co501 O509 2.055 . S
Co501 O512 2.039 . S
Co501 N515 2.140 . S
C502 O503 1.227 . S
C502 O512 1.265 . S
O503 C502 1.227 . S
N504 Co501 2.121 . S
N504 C506 1.375 . S
N504 C507 1.313 . S
C505 C506 1.338 . S
C505 N508 1.377 . S
C505 H525 0.930 . S
C506 N504 1.375 . S
C506 C505 1.338 . S
C506 H510 0.931 . S
C507 N504 1.313 . S
C507 N508 1.344 . S
C507 H511 0.930 . S
N508 C505 1.377 . S
N508 C507 1.344 . S
O509 Co501 2.055 . S
O509 C513 1.253 . S
H510 C506 0.931 . S
H511 C507 0.930 . S
O512 Co501 2.039 . S
O512 C502 1.265 . S
C513 O509 1.253 . S
C513 O514 1.227 . S
O514 C513 1.227 . S
N515 Co501 2.140 . S
N515 C518 1.346 . S
N515 C519 1.345 . S
C516 C517 1.387 . S
C516 C520 1.391 . S
C517 C516 1.387 . S
C517 C518 1.369 . S
C517 H526 0.929 . S
C518 N515 1.346 . S
C518 C517 1.369 . S
C518 H521 0.928 . S
C519 N515 1.345 . S
C519 C520 1.371 . S
C519 H522 0.931 . S
C520 C516 1.391 . S
C520 C519 1.371 . S
C520 H527 0.930 . S
H521 C518 0.928 . S
H522 C519 0.931 . S
H523 C499 0.930 . S
H524 C496 0.930 . S
H525 C505 0.930 . S
H526 C517 0.929 . S
H527 C520 0.930 . S
C528 C529 1.351 . S
C528 N531 1.368 . S
C528 H533 0.931 . S
C529 C528 1.351 . S
C529 N530 1.373 . S
C529 H557 0.930 . S
N530 C529 1.373 . S
N530 C532 1.340 . S
N531 C528 1.368 . S
N531 C532 1.321 . S
N531 Co534 2.135 . S
C532 N530 1.340 . S
C532 N531 1.321 . S
C532 H556 0.930 . S
H533 C528 0.931 . S
Co534 N531 2.135 . S
Co534 N537 2.121 . S
Co534 O542 2.055 . S
Co534 O545 2.039 . S
Co534 N548 2.140 . S
C535 O536 1.227 . S
C535 O545 1.265 . S
O536 C535 1.227 . S
N537 Co534 2.121 . S
N537 C539 1.375 . S
N537 C540 1.313 . S
C538 C539 1.338 . S
C538 N541 1.377 . S
C538 H558 0.930 . S
C539 N537 1.375 . S
C539 C538 1.338 . S
C539 H543 0.931 . S
C540 N537 1.313 . S
C540 N541 1.344 . S
C540 H544 0.930 . S
N541 C538 1.377 . S
N541 C540 1.344 . S
O542 Co534 2.055 . S
O542 C546 1.253 . S
H543 C539 0.931 . S
H544 C540 0.930 . S
O545 Co534 2.039 . S
O545 C535 1.265 . S
C546 O542 1.253 . S
C546 O547 1.227 . S
O547 C546 1.227 . S
N548 Co534 2.140 . S
N548 C551 1.346 . S
N548 C552 1.345 . S
C549 C550 1.387 . S
C549 C553 1.391 . S
C550 C549 1.387 . S
C550 C551 1.369 . S
C550 H559 0.929 . S
C551 N548 1.346 . S
C551 C550 1.369 . S
C551 H554 0.928 . S
C552 N548 1.345 . S
C552 C553 1.371 . S
C552 H555 0.931 . S
C553 C549 1.391 . S
C553 C552 1.371 . S
C553 H560 0.930 . S
H554 C551 0.928 . S
H555 C552 0.931 . S
H556 C532 0.930 . S
H557 C529 0.930 . S
H558 C538 0.930 . S
H559 C550 0.929 . S
H560 C553 0.930 . S
C561 C562 1.351 . S
C561 N564 1.368 . S
C561 H566 0.931 . S
C562 C561 1.351 . S
C562 N563 1.373 . S
C562 H590 0.930 . S
N563 C562 1.373 . S
N563 C565 1.340 . S
N564 C561 1.368 . S
N564 C565 1.321 . S
N564 Co567 2.135 . S
C565 N563 1.340 . S
C565 N564 1.321 . S
C565 H589 0.930 . S
H566 C561 0.931 . S
Co567 N564 2.135 . S
Co567 N570 2.121 . S
Co567 O575 2.055 . S
Co567 O578 2.039 . S
Co567 N581 2.140 . S
C568 O569 1.227 . S
C568 O578 1.265 . S
O569 C568 1.227 . S
N570 Co567 2.121 . S
N570 C572 1.375 . S
N570 C573 1.313 . S
C571 C572 1.338 . S
C571 N574 1.377 . S
C571 H591 0.930 . S
C572 N570 1.375 . S
C572 C571 1.338 . S
C572 H576 0.931 . S
C573 N570 1.313 . S
C573 N574 1.344 . S
C573 H577 0.930 . S
N574 C571 1.377 . S
N574 C573 1.344 . S
O575 Co567 2.055 . S
O575 C579 1.253 . S
H576 C572 0.931 . S
H577 C573 0.930 . S
O578 Co567 2.039 . S
O578 C568 1.265 . S
C579 O575 1.253 . S
C579 O580 1.227 . S
O580 C579 1.227 . S
N581 Co567 2.140 . S
N581 C584 1.346 . S
N581 C585 1.345 . S
C582 C583 1.387 . S
C582 C586 1.391 . S
C583 C582 1.387 . S
C583 C584 1.369 . S
C583 H592 0.929 . S
C584 N581 1.346 . S
C584 C583 1.369 . S
C584 H587 0.928 . S
C585 N581 1.345 . S
C585 C586 1.371 . S
C585 H588 0.931 . S
C586 C582 1.391 . S
C586 C585 1.371 . S
C586 H593 0.930 . S
H587 C584 0.928 . S
H588 C585 0.931 . S
H589 C565 0.930 . S
H590 C562 0.930 . S
H591 C571 0.930 . S
H592 C583 0.929 . S
H593 C586 0.930 . S
C594 C595 1.351 . S
C594 N597 1.368 . S
C594 H599 0.931 . S
C595 C594 1.351 . S
C595 N596 1.373 . S
C595 H623 0.930 . S
N596 C595 1.373 . S
N596 C598 1.340 . S
N597 C594 1.368 . S
N597 C598 1.321 . S
N597 Co600 2.135 . S
C598 N596 1.340 . S
C598 N597 1.321 . S
C598 H622 0.930 . S
H599 C594 0.931 . S
Co600 N597 2.135 . S
Co600 N603 2.121 . S
Co600 O608 2.055 . S
Co600 O611 2.039 . S
Co600 N614 2.140 . S
C601 O602 1.227 . S
C601 O611 1.265 . S
O602 C601 1.227 . S
N603 Co600 2.121 . S
N603 C605 1.375 . S
N603 C606 1.313 . S
C604 C605 1.338 . S
C604 N607 1.377 . S
C604 H624 0.930 . S
C605 N603 1.375 . S
C605 C604 1.338 . S
C605 H609 0.931 . S
C606 N603 1.313 . S
C606 N607 1.344 . S
C606 H610 0.930 . S
N607 C604 1.377 . S
N607 C606 1.344 . S
O608 Co600 2.055 . S
O608 C612 1.253 . S
H609 C605 0.931 . S
H610 C606 0.930 . S
O611 Co600 2.039 . S
O611 C601 1.265 . S
C612 O608 1.253 . S
C612 O613 1.227 . S
O613 C612 1.227 . S
N614 Co600 2.140 . S
N614 C617 1.346 . S
N614 C618 1.345 . S
C615 C616 1.387 . S
C615 C619 1.391 . S
C616 C615 1.387 . S
C616 C617 1.369 . S
C616 H625 0.929 . S
C617 N614 1.346 . S
C617 C616 1.369 . S
C617 H620 0.928 . S
C618 N614 1.345 . S
C618 C619 1.371 . S
C618 H621 0.931 . S
C619 C615 1.391 . S
C619 C618 1.371 . S
C619 H626 0.930 . S
H620 C617 0.928 . S
H621 C618 0.931 . S
H622 C598 0.930 . S
H623 C595 0.930 . S
H624 C604 0.930 . S
H625 C616 0.929 . S
H626 C619 0.930 . S
C627 C628 1.351 . S
C627 N630 1.368 . S
C627 H632 0.931 . S
C628 C627 1.351 . S
C628 N629 1.373 . S
C628 H656 0.930 . S
N629 C628 1.373 . S
N629 C631 1.340 . S
N630 C627 1.368 . S
N630 C631 1.321 . S
N630 Co633 2.135 . S
C631 N629 1.340 . S
C631 N630 1.321 . S
C631 H655 0.930 . S
H632 C627 0.931 . S
Co633 N630 2.135 . S
Co633 N636 2.121 . S
Co633 O641 2.055 . S
Co633 O644 2.039 . S
Co633 N647 2.140 . S
C634 O635 1.227 . S
C634 O644 1.265 . S
O635 C634 1.227 . S
N636 Co633 2.121 . S
N636 C638 1.375 . S
N636 C639 1.313 . S
C637 C638 1.338 . S
C637 N640 1.377 . S
C637 H657 0.930 . S
C638 N636 1.375 . S
C638 C637 1.338 . S
C638 H642 0.931 . S
C639 N636 1.313 . S
C639 N640 1.344 . S
C639 H643 0.930 . S
N640 C637 1.377 . S
N640 C639 1.344 . S
O641 Co633 2.055 . S
O641 C645 1.253 . S
H642 C638 0.931 . S
H643 C639 0.930 . S
O644 Co633 2.039 . S
O644 C634 1.265 . S
C645 O641 1.253 . S
C645 O646 1.227 . S
O646 C645 1.227 . S
N647 Co633 2.140 . S
N647 C650 1.346 . S
N647 C651 1.345 . S
C648 C649 1.387 . S
C648 C652 1.391 . S
C649 C648 1.387 . S
C649 C650 1.369 . S
C649 H658 0.929 . S
C650 N647 1.346 . S
C650 C649 1.369 . S
C650 H653 0.928 . S
C651 N647 1.345 . S
C651 C652 1.371 . S
C651 H654 0.931 . S
C652 C648 1.391 . S
C652 C651 1.371 . S
C652 H659 0.930 . S
H653 C650 0.928 . S
H654 C651 0.931 . S
H655 C631 0.930 . S
H656 C628 0.930 . S
H657 C637 0.930 . S
H658 C649 0.929 . S
H659 C652 0.930 . S
C660 C661 1.351 . S
C660 N663 1.368 . S
C660 H665 0.931 . S
C661 C660 1.351 . S
C661 N662 1.373 . S
C661 H689 0.930 . S
N662 C661 1.373 . S
N662 C664 1.340 . S
N663 C660 1.368 . S
N663 C664 1.321 . S
N663 Co666 2.135 . S
C664 N662 1.340 . S
C664 N663 1.321 . S
C664 H688 0.930 . S
H665 C660 0.931 . S
Co666 N663 2.135 . S
Co666 N669 2.121 . S
Co666 O674 2.055 . S
Co666 O677 2.039 . S
Co666 N680 2.140 . S
C667 O668 1.227 . S
C667 O677 1.265 . S
O668 C667 1.227 . S
N669 Co666 2.121 . S
N669 C671 1.375 . S
N669 C672 1.313 . S
C670 C671 1.338 . S
C670 N673 1.377 . S
C670 H690 0.930 . S
C671 N669 1.375 . S
C671 C670 1.338 . S
C671 H675 0.931 . S
C672 N669 1.313 . S
C672 N673 1.344 . S
C672 H676 0.930 . S
N673 C670 1.377 . S
N673 C672 1.344 . S
O674 Co666 2.055 . S
O674 C678 1.253 . S
H675 C671 0.931 . S
H676 C672 0.930 . S
O677 Co666 2.039 . S
O677 C667 1.265 . S
C678 O674 1.253 . S
C678 O679 1.227 . S
O679 C678 1.227 . S
N680 Co666 2.140 . S
N680 C683 1.346 . S
N680 C684 1.345 . S
C681 C682 1.387 . S
C681 C685 1.391 . S
C682 C681 1.387 . S
C682 C683 1.369 . S
C682 H691 0.929 . S
C683 N680 1.346 . S
C683 C682 1.369 . S
C683 H686 0.928 . S
C684 N680 1.345 . S
C684 C685 1.371 . S
C684 H687 0.931 . S
C685 C681 1.391 . S
C685 C684 1.371 . S
C685 H692 0.930 . S
H686 C683 0.928 . S
H687 C684 0.931 . S
H688 C664 0.930 . S
H689 C661 0.930 . S
H690 C670 0.930 . S
H691 C682 0.929 . S
H692 C685 0.930 . S
C693 C694 1.351 . S
C693 N696 1.368 . S
C693 H698 0.931 . S
C694 C693 1.351 . S
C694 N695 1.373 . S
C694 H722 0.930 . S
N695 C694 1.373 . S
N695 C697 1.340 . S
N696 C693 1.368 . S
N696 C697 1.321 . S
N696 Co699 2.135 . S
C697 N695 1.340 . S
C697 N696 1.321 . S
C697 H721 0.930 . S
H698 C693 0.931 . S
Co699 N696 2.135 . S
Co699 N702 2.121 . S
Co699 O707 2.055 . S
Co699 O710 2.039 . S
Co699 N713 2.140 . S
C700 O701 1.227 . S
C700 O710 1.265 . S
O701 C700 1.227 . S
N702 Co699 2.121 . S
N702 C704 1.375 . S
N702 C705 1.313 . S
C703 C704 1.338 . S
C703 N706 1.377 . S
C703 H723 0.930 . S
C704 N702 1.375 . S
C704 C703 1.338 . S
C704 H708 0.931 . S
C705 N702 1.313 . S
C705 N706 1.344 . S
C705 H709 0.930 . S
N706 C703 1.377 . S
N706 C705 1.344 . S
O707 Co699 2.055 . S
O707 C711 1.253 . S
H708 C704 0.931 . S
H709 C705 0.930 . S
O710 Co699 2.039 . S
O710 C700 1.265 . S
C711 O707 1.253 . S
C711 O712 1.227 . S
O712 C711 1.227 . S
N713 Co699 2.140 . S
N713 C716 1.346 . S
N713 C717 1.345 . S
C714 C715 1.387 . S
C714 C718 1.391 . S
C715 C714 1.387 . S
C715 C716 1.369 . S
C715 H724 0.929 . S
C716 N713 1.346 . S
C716 C715 1.369 . S
C716 H719 0.928 . S
C717 N713 1.345 . S
C717 C718 1.371 . S
C717 H720 0.931 . S
C718 C714 1.391 . S
C718 C717 1.371 . S
C718 H725 0.930 . S
H719 C716 0.928 . S
H720 C717 0.931 . S
H721 C697 0.930 . S
H722 C694 0.930 . S
H723 C703 0.930 . S
H724 C715 0.929 . S
H725 C718 0.930 . S
C726 C727 1.351 . S
C726 N729 1.368 . S
C726 H731 0.931 . S
C727 C726 1.351 . S
C727 N728 1.373 . S
C727 H755 0.930 . S
N728 C727 1.373 . S
N728 C730 1.340 . S
N729 C726 1.368 . S
N729 C730 1.321 . S
N729 Co732 2.135 . S
C730 N728 1.340 . S
C730 N729 1.321 . S
C730 H754 0.930 . S
H731 C726 0.931 . S
Co732 N729 2.135 . S
Co732 N735 2.121 . S
Co732 O740 2.055 . S
Co732 O743 2.039 . S
Co732 N746 2.140 . S
C733 O734 1.227 . S
C733 O743 1.265 . S
O734 C733 1.227 . S
N735 Co732 2.121 . S
N735 C737 1.375 . S
N735 C738 1.313 . S
C736 C737 1.338 . S
C736 N739 1.377 . S
C736 H756 0.930 . S
C737 N735 1.375 . S
C737 C736 1.338 . S
C737 H741 0.931 . S
C738 N735 1.313 . S
C738 N739 1.344 . S
C738 H742 0.930 . S
N739 C736 1.377 . S
N739 C738 1.344 . S
O740 Co732 2.055 . S
O740 C744 1.253 . S
H741 C737 0.931 . S
H742 C738 0.930 . S
O743 Co732 2.039 . S
O743 C733 1.265 . S
C744 O740 1.253 . S
C744 O745 1.227 . S
O745 C744 1.227 . S
N746 Co732 2.140 . S
N746 C749 1.346 . S
N746 C750 1.345 . S
C747 C748 1.387 . S
C747 C751 1.391 . S
C748 C747 1.387 . S
C748 C749 1.369 . S
C748 H757 0.929 . S
C749 N746 1.346 . S
C749 C748 1.369 . S
C749 H752 0.928 . S
C750 N746 1.345 . S
C750 C751 1.371 . S
C750 H753 0.931 . S
C751 C747 1.391 . S
C751 C750 1.371 . S
C751 H758 0.930 . S
H752 C749 0.928 . S
H753 C750 0.931 . S
H754 C730 0.930 . S
H755 C727 0.930 . S
H756 C736 0.930 . S
H757 C748 0.929 . S
H758 C751 0.930 . S
C759 C760 1.351 . S
C759 N762 1.368 . S
C759 H764 0.931 . S
C760 C759 1.351 . S
C760 N761 1.373 . S
C760 H788 0.930 . S
N761 C760 1.373 . S
N761 C763 1.340 . S
N762 C759 1.368 . S
N762 C763 1.321 . S
N762 Co765 2.135 . S
C763 N761 1.340 . S
C763 N762 1.321 . S
C763 H787 0.930 . S
H764 C759 0.931 . S
Co765 N762 2.135 . S
Co765 N768 2.121 . S
Co765 O773 2.055 . S
Co765 O776 2.039 . S
Co765 N779 2.140 . S
C766 O767 1.227 . S
C766 O776 1.265 . S
O767 C766 1.227 . S
N768 Co765 2.121 . S
N768 C770 1.375 . S
N768 C771 1.313 . S
C769 C770 1.338 . S
C769 N772 1.377 . S
C769 H789 0.930 . S
C770 N768 1.375 . S
C770 C769 1.338 . S
C770 H774 0.931 . S
C771 N768 1.313 . S
C771 N772 1.344 . S
C771 H775 0.930 . S
N772 C769 1.377 . S
N772 C771 1.344 . S
O773 Co765 2.055 . S
O773 C777 1.253 . S
H774 C770 0.931 . S
H775 C771 0.930 . S
O776 Co765 2.039 . S
O776 C766 1.265 . S
C777 O773 1.253 . S
C777 O778 1.227 . S
O778 C777 1.227 . S
N779 Co765 2.140 . S
N779 C782 1.346 . S
N779 C783 1.345 . S
C780 C781 1.387 . S
C780 C784 1.391 . S
C781 C780 1.387 . S
C781 C782 1.369 . S
C781 H790 0.929 . S
C782 N779 1.346 . S
C782 C781 1.369 . S
C782 H785 0.928 . S
C783 N779 1.345 . S
C783 C784 1.371 . S
C783 H786 0.931 . S
C784 C780 1.391 . S
C784 C783 1.371 . S
C784 H791 0.930 . S
H785 C782 0.928 . S
H786 C783 0.931 . S
H787 C763 0.930 . S
H788 C760 0.930 . S
H789 C769 0.930 . S
H790 C781 0.929 . S
H791 C784 0.930 . S
C792 C793 1.351 . S
C792 N795 1.368 . S
C792 H797 0.931 . S
C793 C792 1.351 . S
C793 N794 1.373 . S
C793 H821 0.930 . S
N794 C793 1.373 . S
N794 C796 1.340 . S
N795 C792 1.368 . S
N795 C796 1.321 . S
N795 Co798 2.135 . S
C796 N794 1.340 . S
C796 N795 1.321 . S
C796 H820 0.930 . S
H797 C792 0.931 . S
Co798 N795 2.135 . S
Co798 N801 2.121 . S
Co798 O806 2.055 . S
Co798 O809 2.039 . S
Co798 N812 2.140 . S
C799 O800 1.227 . S
C799 O809 1.265 . S
O800 C799 1.227 . S
N801 Co798 2.121 . S
N801 C803 1.375 . S
N801 C804 1.313 . S
C802 C803 1.338 . S
C802 N805 1.377 . S
C802 H822 0.930 . S
C803 N801 1.375 . S
C803 C802 1.338 . S
C803 H807 0.931 . S
C804 N801 1.313 . S
C804 N805 1.344 . S
C804 H808 0.930 . S
N805 C802 1.377 . S
N805 C804 1.344 . S
O806 Co798 2.055 . S
O806 C810 1.253 . S
H807 C803 0.931 . S
H808 C804 0.930 . S
O809 Co798 2.039 . S
O809 C799 1.265 . S
C810 O806 1.253 . S
C810 O811 1.227 . S
O811 C810 1.227 . S
N812 Co798 2.140 . S
N812 C815 1.346 . S
N812 C816 1.345 . S
C813 C814 1.387 . S
C813 C817 1.391 . S
C814 C813 1.387 . S
C814 C815 1.369 . S
C814 H823 0.929 . S
C815 N812 1.346 . S
C815 C814 1.369 . S
C815 H818 0.928 . S
C816 N812 1.345 . S
C816 C817 1.371 . S
C816 H819 0.931 . S
C817 C813 1.391 . S
C817 C816 1.371 . S
C817 H824 0.930 . S
H818 C815 0.928 . S
H819 C816 0.931 . S
H820 C796 0.930 . S
H821 C793 0.930 . S
H822 C802 0.930 . S
H823 C814 0.929 . S
H824 C817 0.930 . S
C825 C826 1.351 . S
C825 N828 1.368 . S
C825 H830 0.931 . S
C826 C825 1.351 . S
C826 N827 1.373 . S
C826 H854 0.930 . S
N827 C826 1.373 . S
N827 C829 1.340 . S
N828 C825 1.368 . S
N828 C829 1.321 . S
N828 Co831 2.135 . S
C829 N827 1.340 . S
C829 N828 1.321 . S
C829 H853 0.930 . S
H830 C825 0.931 . S
Co831 N828 2.135 . S
Co831 N834 2.121 . S
Co831 O839 2.055 . S
Co831 O842 2.039 . S
Co831 N845 2.140 . S
C832 O833 1.227 . S
C832 O842 1.265 . S
O833 C832 1.227 . S
N834 Co831 2.121 . S
N834 C836 1.375 . S
N834 C837 1.313 . S
C835 C836 1.338 . S
C835 N838 1.377 . S
C835 H855 0.930 . S
C836 N834 1.375 . S
C836 C835 1.338 . S
C836 H840 0.931 . S
C837 N834 1.313 . S
C837 N838 1.344 . S
C837 H841 0.930 . S
N838 C835 1.377 . S
N838 C837 1.344 . S
O839 Co831 2.055 . S
O839 C843 1.253 . S
H840 C836 0.931 . S
H841 C837 0.930 . S
O842 Co831 2.039 . S
O842 C832 1.265 . S
C843 O839 1.253 . S
C843 O844 1.227 . S
O844 C843 1.227 . S
N845 Co831 2.140 . S
N845 C848 1.346 . S
N845 C849 1.345 . S
C846 C847 1.387 . S
C846 C850 1.391 . S
C847 C846 1.387 . S
C847 C848 1.369 . S
C847 H856 0.929 . S
C848 N845 1.346 . S
C848 C847 1.369 . S
C848 H851 0.928 . S
C849 N845 1.345 . S
C849 C850 1.371 . S
C849 H852 0.931 . S
C850 C846 1.391 . S
C850 C849 1.371 . S
C850 H857 0.930 . S
H851 C848 0.928 . S
H852 C849 0.931 . S
H853 C829 0.930 . S
H854 C826 0.930 . S
H855 C835 0.930 . S
H856 C847 0.929 . S
H857 C850 0.930 . S
C858 C859 1.351 . S
C858 N861 1.368 . S
C858 H863 0.931 . S
C859 C858 1.351 . S
C859 N860 1.373 . S
C859 H887 0.930 . S
N860 C859 1.373 . S
N860 C862 1.340 . S
N861 C858 1.368 . S
N861 C862 1.321 . S
N861 Co864 2.135 . S
C862 N860 1.340 . S
C862 N861 1.321 . S
C862 H886 0.930 . S
H863 C858 0.931 . S
Co864 N861 2.135 . S
Co864 N867 2.121 . S
Co864 O872 2.055 . S
Co864 O875 2.039 . S
Co864 N878 2.140 . S
C865 O866 1.227 . S
C865 O875 1.265 . S
O866 C865 1.227 . S
N867 Co864 2.121 . S
N867 C869 1.375 . S
N867 C870 1.313 . S
C868 C869 1.338 . S
C868 N871 1.377 . S
C868 H888 0.930 . S
C869 N867 1.375 . S
C869 C868 1.338 . S
C869 H873 0.931 . S
C870 N867 1.313 . S
C870 N871 1.344 . S
C870 H874 0.930 . S
N871 C868 1.377 . S
N871 C870 1.344 . S
O872 Co864 2.055 . S
O872 C876 1.253 . S
H873 C869 0.931 . S
H874 C870 0.930 . S
O875 Co864 2.039 . S
O875 C865 1.265 . S
C876 O872 1.253 . S
C876 O877 1.227 . S
O877 C876 1.227 . S
N878 Co864 2.140 . S
N878 C881 1.346 . S
N878 C882 1.345 . S
C879 C880 1.387 . S
C879 C883 1.391 . S
C880 C879 1.387 . S
C880 C881 1.369 . S
C880 H889 0.929 . S
C881 N878 1.346 . S
C881 C880 1.369 . S
C881 H884 0.928 . S
C882 N878 1.345 . S
C882 C883 1.371 . S
C882 H885 0.931 . S
C883 C879 1.391 . S
C883 C882 1.371 . S
C883 H890 0.930 . S
H884 C881 0.928 . S
H885 C882 0.931 . S
H886 C862 0.930 . S
H887 C859 0.930 . S
H888 C868 0.930 . S
H889 C880 0.929 . S
H890 C883 0.930 . S
C891 C892 1.351 . S
C891 N894 1.368 . S
C891 H896 0.931 . S
C892 C891 1.351 . S
C892 N893 1.373 . S
C892 H920 0.930 . S
N893 C892 1.373 . S
N893 C895 1.340 . S
N894 C891 1.368 . S
N894 C895 1.321 . S
N894 Co897 2.135 . S
C895 N893 1.340 . S
C895 N894 1.321 . S
C895 H919 0.930 . S
H896 C891 0.931 . S
Co897 N894 2.135 . S
Co897 N900 2.121 . S
Co897 O905 2.055 . S
Co897 O908 2.039 . S
Co897 N911 2.140 . S
C898 O899 1.227 . S
C898 O908 1.265 . S
O899 C898 1.227 . S
N900 Co897 2.121 . S
N900 C902 1.375 . S
N900 C903 1.313 . S
C901 C902 1.338 . S
C901 N904 1.377 . S
C901 H921 0.930 . S
C902 N900 1.375 . S
C902 C901 1.338 . S
C902 H906 0.931 . S
C903 N900 1.313 . S
C903 N904 1.344 . S
C903 H907 0.930 . S
N904 C901 1.377 . S
N904 C903 1.344 . S
O905 Co897 2.055 . S
O905 C909 1.253 . S
H906 C902 0.931 . S
H907 C903 0.930 . S
O908 Co897 2.039 . S
O908 C898 1.265 . S
C909 O905 1.253 . S
C909 O910 1.227 . S
O910 C909 1.227 . S
N911 Co897 2.140 . S
N911 C914 1.346 . S
N911 C915 1.345 . S
C912 C913 1.387 . S
C912 C916 1.391 . S
C913 C912 1.387 . S
C913 C914 1.369 . S
C913 H922 0.929 . S
C914 N911 1.346 . S
C914 C913 1.369 . S
C914 H917 0.928 . S
C915 N911 1.345 . S
C915 C916 1.371 . S
C915 H918 0.931 . S
C916 C912 1.391 . S
C916 C915 1.371 . S
C916 H923 0.930 . S
H917 C914 0.928 . S
H918 C915 0.931 . S
H919 C895 0.930 . S
H920 C892 0.930 . S
H921 C901 0.930 . S
H922 C913 0.929 . S
H923 C916 0.930 . S
C924 C925 1.351 . S
C924 N927 1.368 . S
C924 H929 0.931 . S
C925 C924 1.351 . S
C925 N926 1.373 . S
C925 H953 0.930 . S
N926 C925 1.373 . S
N926 C928 1.340 . S
N927 C924 1.368 . S
N927 C928 1.321 . S
N927 Co930 2.135 . S
C928 N926 1.340 . S
C928 N927 1.321 . S
C928 H952 0.930 . S
H929 C924 0.931 . S
Co930 N927 2.135 . S
Co930 N933 2.121 . S
Co930 O938 2.055 . S
Co930 O941 2.039 . S
Co930 N944 2.140 . S
C931 O932 1.227 . S
C931 O941 1.265 . S
O932 C931 1.227 . S
N933 Co930 2.121 . S
N933 C935 1.375 . S
N933 C936 1.313 . S
C934 C935 1.338 . S
C934 N937 1.377 . S
C934 H954 0.930 . S
C935 N933 1.375 . S
C935 C934 1.338 . S
C935 H939 0.931 . S
C936 N933 1.313 . S
C936 N937 1.344 . S
C936 H940 0.930 . S
N937 C934 1.377 . S
N937 C936 1.344 . S
O938 Co930 2.055 . S
O938 C942 1.253 . S
H939 C935 0.931 . S
H940 C936 0.930 . S
O941 Co930 2.039 . S
O941 C931 1.265 . S
C942 O938 1.253 . S
C942 O943 1.227 . S
O943 C942 1.227 . S
N944 Co930 2.140 . S
N944 C947 1.346 . S
N944 C948 1.345 . S
C945 C946 1.387 . S
C945 C949 1.391 . S
C946 C945 1.387 . S
C946 C947 1.369 . S
C946 H955 0.929 . S
C947 N944 1.346 . S
C947 C946 1.369 . S
C947 H950 0.928 . S
C948 N944 1.345 . S
C948 C949 1.371 . S
C948 H951 0.931 . S
C949 C945 1.391 . S
C949 C948 1.371 . S
C949 H956 0.930 . S
H950 C947 0.928 . S
H951 C948 0.931 . S
H952 C928 0.930 . S
H953 C925 0.930 . S
H954 C934 0.930 . S
H955 C946 0.929 . S
H956 C949 0.930 . S
C957 C958 1.351 . S
C957 N960 1.368 . S
C957 H962 0.931 . S
C958 C957 1.351 . S
C958 N959 1.373 . S
C958 H986 0.930 . S
N959 C958 1.373 . S
N959 C961 1.340 . S
N960 C957 1.368 . S
N960 C961 1.321 . S
N960 Co963 2.135 . S
C961 N959 1.340 . S
C961 N960 1.321 . S
C961 H985 0.930 . S
H962 C957 0.931 . S
Co963 N960 2.135 . S
Co963 N966 2.121 . S
Co963 O971 2.055 . S
Co963 O974 2.039 . S
Co963 N977 2.140 . S
C964 O965 1.227 . S
C964 O974 1.265 . S
O965 C964 1.227 . S
N966 Co963 2.121 . S
N966 C968 1.375 . S
N966 C969 1.313 . S
C967 C968 1.338 . S
C967 N970 1.377 . S
C967 H987 0.930 . S
C968 N966 1.375 . S
C968 C967 1.338 . S
C968 H972 0.931 . S
C969 N966 1.313 . S
C969 N970 1.344 . S
C969 H973 0.930 . S
N970 C967 1.377 . S
N970 C969 1.344 . S
O971 Co963 2.055 . S
O971 C975 1.253 . S
H972 C968 0.931 . S
H973 C969 0.930 . S
O974 Co963 2.039 . S
O974 C964 1.265 . S
C975 O971 1.253 . S
C975 O976 1.227 . S
O976 C975 1.227 . S
N977 Co963 2.140 . S
N977 C980 1.346 . S
N977 C981 1.345 . S
C978 C979 1.387 . S
C978 C982 1.391 . S
C979 C978 1.387 . S
C979 C980 1.369 . S
C979 H988 0.929 . S
C980 N977 1.346 . S
C980 C979 1.369 . S
C980 H983 0.928 . S
C981 N977 1.345 . S
C981 C982 1.371 . S
C981 H984 0.931 . S
C982 C978 1.391 . S
C982 C981 1.371 . S
C982 H989 0.930 . S
H983 C980 0.928 . S
H984 C981 0.931 . S
H985 C961 0.930 . S
H986 C958 0.930 . S
H987 C967 0.930 . S
H988 C979 0.929 . S
H989 C982 0.930 . S
C990 C991 1.351 . S
C990 N993 1.368 . S
C990 H995 0.931 . S
C991 C990 1.351 . S
C991 N992 1.373 . S
C991 H1019 0.930 . S
N992 C991 1.373 . S
N992 C994 1.340 . S
N993 C990 1.368 . S
N993 C994 1.321 . S
N993 Co996 2.135 . S
C994 N992 1.340 . S
C994 N993 1.321 . S
C994 H1018 0.930 . S
H995 C990 0.931 . S
Co996 N993 2.135 . S
Co996 N999 2.121 . S
Co996 O1004 2.055 . S
Co996 O1007 2.039 . S
Co996 N1010 2.140 . S
C997 O998 1.227 . S
C997 O1007 1.265 . S
O998 C997 1.227 . S
N999 Co996 2.121 . S
N999 C1001 1.375 . S
N999 C1002 1.313 . S
C1000 C1001 1.338 . S
C1000 N1003 1.377 . S
C1000 H1020 0.930 . S
C1001 N999 1.375 . S
C1001 C1000 1.338 . S
C1001 H1005 0.931 . S
C1002 N999 1.313 . S
C1002 N1003 1.344 . S
C1002 H1006 0.930 . S
N1003 C1000 1.377 . S
N1003 C1002 1.344 . S
O1004 Co996 2.055 . S
O1004 C1008 1.253 . S
H1005 C1001 0.931 . S
H1006 C1002 0.930 . S
O1007 Co996 2.039 . S
O1007 C997 1.265 . S
C1008 O1004 1.253 . S
C1008 O1009 1.227 . S
O1009 C1008 1.227 . S
N1010 Co996 2.140 . S
N1010 C1013 1.346 . S
N1010 C1014 1.345 . S
C1011 C1012 1.387 . S
C1011 C1015 1.391 . S
C1012 C1011 1.387 . S
C1012 C1013 1.369 . S
C1012 H1021 0.929 . S
C1013 N1010 1.346 . S
C1013 C1012 1.369 . S
C1013 H1016 0.928 . S
C1014 N1010 1.345 . S
C1014 C1015 1.371 . S
C1014 H1017 0.931 . S
C1015 C1011 1.391 . S
C1015 C1014 1.371 . S
C1015 H1022 0.930 . S
H1016 C1013 0.928 . S
H1017 C1014 0.931 . S
H1018 C994 0.930 . S
H1019 C991 0.930 . S
H1020 C1000 0.930 . S
H1021 C1012 0.929 . S
H1022 C1015 0.930 . S
C1023 C1024 1.351 . S
C1023 N1026 1.368 . S
C1023 H1028 0.931 . S
C1024 C1023 1.351 . S
C1024 N1025 1.373 . S
C1024 H1052 0.930 . S
N1025 C1024 1.373 . S
N1025 C1027 1.340 . S
N1026 C1023 1.368 . S
N1026 C1027 1.321 . S
N1026 Co1029 2.135 . S
C1027 N1025 1.340 . S
C1027 N1026 1.321 . S
C1027 H1051 0.930 . S
H1028 C1023 0.931 . S
Co1029 N1026 2.135 . S
Co1029 N1032 2.121 . S
Co1029 O1037 2.055 . S
Co1029 O1040 2.039 . S
Co1029 N1043 2.140 . S
C1030 O1031 1.227 . S
C1030 O1040 1.265 . S
O1031 C1030 1.227 . S
N1032 Co1029 2.121 . S
N1032 C1034 1.375 . S
N1032 C1035 1.313 . S
C1033 C1034 1.338 . S
C1033 N1036 1.377 . S
C1033 H1053 0.930 . S
C1034 N1032 1.375 . S
C1034 C1033 1.338 . S
C1034 H1038 0.931 . S
C1035 N1032 1.313 . S
C1035 N1036 1.344 . S
C1035 H1039 0.930 . S
N1036 C1033 1.377 . S
N1036 C1035 1.344 . S
O1037 Co1029 2.055 . S
O1037 C1041 1.253 . S
H1038 C1034 0.931 . S
H1039 C1035 0.930 . S
O1040 Co1029 2.039 . S
O1040 C1030 1.265 . S
C1041 O1037 1.253 . S
C1041 O1042 1.227 . S
O1042 C1041 1.227 . S
N1043 Co1029 2.140 . S
N1043 C1046 1.346 . S
N1043 C1047 1.345 . S
C1044 C1045 1.387 . S
C1044 C1048 1.391 . S
C1045 C1044 1.387 . S
C1045 C1046 1.369 . S
C1045 H1054 0.929 . S
C1046 N1043 1.346 . S
C1046 C1045 1.369 . S
C1046 H1049 0.928 . S
C1047 N1043 1.345 . S
C1047 C1048 1.371 . S
C1047 H1050 0.931 . S
C1048 C1044 1.391 . S
C1048 C1047 1.371 . S
C1048 H1055 0.930 . S
H1049 C1046 0.928 . S
H1050 C1047 0.931 . S
H1051 C1027 0.930 . S
H1052 C1024 0.930 . S
H1053 C1033 0.930 . S
H1054 C1045 0.929 . S
H1055 C1048 0.930 . S
C1056 C1057 1.351 . S
C1056 N1059 1.368 . S
C1056 H1061 0.931 . S
C1057 C1056 1.351 . S
C1057 N1058 1.373 . S
C1057 H1085 0.930 . S
N1058 C1057 1.373 . S
N1058 C1060 1.340 . S
N1059 C1056 1.368 . S
N1059 C1060 1.321 . S
N1059 Co1062 2.135 . S
C1060 N1058 1.340 . S
C1060 N1059 1.321 . S
C1060 H1084 0.930 . S
H1061 C1056 0.931 . S
Co1062 N1059 2.135 . S
Co1062 N1065 2.121 . S
Co1062 O1070 2.055 . S
Co1062 O1073 2.039 . S
Co1062 N1076 2.140 . S
C1063 O1064 1.227 . S
C1063 O1073 1.265 . S
O1064 C1063 1.227 . S
N1065 Co1062 2.121 . S
N1065 C1067 1.375 . S
N1065 C1068 1.313 . S
C1066 C1067 1.338 . S
C1066 N1069 1.377 . S
C1066 H1086 0.930 . S
C1067 N1065 1.375 . S
C1067 C1066 1.338 . S
C1067 H1071 0.931 . S
C1068 N1065 1.313 . S
C1068 N1069 1.344 . S
C1068 H1072 0.930 . S
N1069 C1066 1.377 . S
N1069 C1068 1.344 . S
O1070 Co1062 2.055 . S
O1070 C1074 1.253 . S
H1071 C1067 0.931 . S
H1072 C1068 0.930 . S
O1073 Co1062 2.039 . S
O1073 C1063 1.265 . S
C1074 O1070 1.253 . S
C1074 O1075 1.227 . S
O1075 C1074 1.227 . S
N1076 Co1062 2.140 . S
N1076 C1079 1.346 . S
N1076 C1080 1.345 . S
C1077 C1078 1.387 . S
C1077 C1081 1.391 . S
C1078 C1077 1.387 . S
C1078 C1079 1.369 . S
C1078 H1087 0.929 . S
C1079 N1076 1.346 . S
C1079 C1078 1.369 . S
C1079 H1082 0.928 . S
C1080 N1076 1.345 . S
C1080 C1081 1.371 . S
C1080 H1083 0.931 . S
C1081 C1077 1.391 . S
C1081 C1080 1.371 . S
C1081 H1088 0.930 . S
H1082 C1079 0.928 . S
H1083 C1080 0.931 . S
H1084 C1060 0.930 . S
H1085 C1057 0.930 . S
H1086 C1066 0.930 . S
H1087 C1078 0.929 . S
H1088 C1081 0.930 . S
C1089 C1090 1.351 . S
C1089 N1092 1.368 . S
C1089 H1094 0.931 . S
C1090 C1089 1.351 . S
C1090 N1091 1.373 . S
C1090 H1118 0.930 . S
N1091 C1090 1.373 . S
N1091 C1093 1.340 . S
N1092 C1089 1.368 . S
N1092 C1093 1.321 . S
N1092 Co1095 2.135 . S
C1093 N1091 1.340 . S
C1093 N1092 1.321 . S
C1093 H1117 0.930 . S
H1094 C1089 0.931 . S
Co1095 N1092 2.135 . S
Co1095 N1098 2.121 . S
Co1095 O1103 2.055 . S
Co1095 O1106 2.039 . S
Co1095 N1109 2.140 . S
C1096 O1097 1.227 . S
C1096 O1106 1.265 . S
O1097 C1096 1.227 . S
N1098 Co1095 2.121 . S
N1098 C1100 1.375 . S
N1098 C1101 1.313 . S
C1099 C1100 1.338 . S
C1099 N1102 1.377 . S
C1099 H1119 0.930 . S
C1100 N1098 1.375 . S
C1100 C1099 1.338 . S
C1100 H1104 0.931 . S
C1101 N1098 1.313 . S
C1101 N1102 1.344 . S
C1101 H1105 0.930 . S
N1102 C1099 1.377 . S
N1102 C1101 1.344 . S
O1103 Co1095 2.055 . S
O1103 C1107 1.253 . S
H1104 C1100 0.931 . S
H1105 C1101 0.930 . S
O1106 Co1095 2.039 . S
O1106 C1096 1.265 . S
C1107 O1103 1.253 . S
C1107 O1108 1.227 . S
O1108 C1107 1.227 . S
N1109 Co1095 2.140 . S
N1109 C1112 1.346 . S
N1109 C1113 1.345 . S
C1110 C1111 1.387 . S
C1110 C1114 1.391 . S
C1111 C1110 1.387 . S
C1111 C1112 1.369 . S
C1111 H1120 0.929 . S
C1112 N1109 1.346 . S
C1112 C1111 1.369 . S
C1112 H1115 0.928 . S
C1113 N1109 1.345 . S
C1113 C1114 1.371 . S
C1113 H1116 0.931 . S
C1114 C1110 1.391 . S
C1114 C1113 1.371 . S
C1114 H1121 0.930 . S
H1115 C1112 0.928 . S
H1116 C1113 0.931 . S
H1117 C1093 0.930 . S
H1118 C1090 0.930 . S
H1119 C1099 0.930 . S
H1120 C1111 0.929 . S
H1121 C1114 0.930 . S
C1122 C1123 1.351 . S
C1122 N1125 1.368 . S
C1122 H1127 0.931 . S
C1123 C1122 1.351 . S
C1123 N1124 1.373 . S
C1123 H1151 0.930 . S
N1124 C1123 1.373 . S
N1124 C1126 1.340 . S
N1125 C1122 1.368 . S
N1125 C1126 1.321 . S
N1125 Co1128 2.135 . S
C1126 N1124 1.340 . S
C1126 N1125 1.321 . S
C1126 H1150 0.930 . S
H1127 C1122 0.931 . S
Co1128 N1125 2.135 . S
Co1128 N1131 2.121 . S
Co1128 O1136 2.055 . S
Co1128 O1139 2.039 . S
Co1128 N1142 2.140 . S
C1129 O1130 1.227 . S
C1129 O1139 1.265 . S
O1130 C1129 1.227 . S
N1131 Co1128 2.121 . S
N1131 C1133 1.375 . S
N1131 C1134 1.313 . S
C1132 C1133 1.338 . S
C1132 N1135 1.377 . S
C1132 H1152 0.930 . S
C1133 N1131 1.375 . S
C1133 C1132 1.338 . S
C1133 H1137 0.931 . S
C1134 N1131 1.313 . S
C1134 N1135 1.344 . S
C1134 H1138 0.930 . S
N1135 C1132 1.377 . S
N1135 C1134 1.344 . S
O1136 Co1128 2.055 . S
O1136 C1140 1.253 . S
H1137 C1133 0.931 . S
H1138 C1134 0.930 . S
O1139 Co1128 2.039 . S
O1139 C1129 1.265 . S
C1140 O1136 1.253 . S
C1140 O1141 1.227 . S
O1141 C1140 1.227 . S
N1142 Co1128 2.140 . S
N1142 C1145 1.346 . S
N1142 C1146 1.345 . S
C1143 C1144 1.387 . S
C1143 C1147 1.391 . S
C1144 C1143 1.387 . S
C1144 C1145 1.369 . S
C1144 H1153 0.929 . S
C1145 N1142 1.346 . S
C1145 C1144 1.369 . S
C1145 H1148 0.928 . S
C1146 N1142 1.345 . S
C1146 C1147 1.371 . S
C1146 H1149 0.931 . S
C1147 C1143 1.391 . S
C1147 C1146 1.371 . S
C1147 H1154 0.930 . S
H1148 C1145 0.928 . S
H1149 C1146 0.931 . S
H1150 C1126 0.930 . S
H1151 C1123 0.930 . S
H1152 C1132 0.930 . S
H1153 C1144 0.929 . S
H1154 C1147 0.930 . S
C1155 C1156 1.351 . S
C1155 N1158 1.368 . S
C1155 H1160 0.931 . S
C1156 C1155 1.351 . S
C1156 N1157 1.373 . S
C1156 H1184 0.930 . S
N1157 C1156 1.373 . S
N1157 C1159 1.340 . S
N1158 C1155 1.368 . S
N1158 C1159 1.321 . S
N1158 Co1161 2.135 . S
C1159 N1157 1.340 . S
C1159 N1158 1.321 . S
C1159 H1183 0.930 . S
H1160 C1155 0.931 . S
Co1161 N1158 2.135 . S
Co1161 N1164 2.121 . S
Co1161 O1169 2.055 . S
Co1161 O1172 2.039 . S
Co1161 N1175 2.140 . S
C1162 O1163 1.227 . S
C1162 O1172 1.265 . S
O1163 C1162 1.227 . S
N1164 Co1161 2.121 . S
N1164 C1166 1.375 . S
N1164 C1167 1.313 . S
C1165 C1166 1.338 . S
C1165 N1168 1.377 . S
C1165 H1185 0.930 . S
C1166 N1164 1.375 . S
C1166 C1165 1.338 . S
C1166 H1170 0.931 . S
C1167 N1164 1.313 . S
C1167 N1168 1.344 . S
C1167 H1171 0.930 . S
N1168 C1165 1.377 . S
N1168 C1167 1.344 . S
O1169 Co1161 2.055 . S
O1169 C1173 1.253 . S
H1170 C1166 0.931 . S
H1171 C1167 0.930 . S
O1172 Co1161 2.039 . S
O1172 C1162 1.265 . S
C1173 O1169 1.253 . S
C1173 O1174 1.227 . S
O1174 C1173 1.227 . S
N1175 Co1161 2.140 . S
N1175 C1178 1.346 . S
N1175 C1179 1.345 . S
C1176 C1177 1.387 . S
C1176 C1180 1.391 . S
C1177 C1176 1.387 . S
C1177 C1178 1.369 . S
C1177 H1186 0.929 . S
C1178 N1175 1.346 . S
C1178 C1177 1.369 . S
C1178 H1181 0.928 . S
C1179 N1175 1.345 . S
C1179 C1180 1.371 . S
C1179 H1182 0.931 . S
C1180 C1176 1.391 . S
C1180 C1179 1.371 . S
C1180 H1187 0.930 . S
H1181 C1178 0.928 . S
H1182 C1179 0.931 . S
H1183 C1159 0.930 . S
H1184 C1156 0.930 . S
H1185 C1165 0.930 . S
H1186 C1177 0.929 . S
H1187 C1180 0.930 . S
C1188 C1189 1.351 . S
C1188 N1191 1.368 . S
C1188 H1193 0.931 . S
C1189 C1188 1.351 . S
C1189 N1190 1.373 . S
C1189 H1217 0.930 . S
N1190 C1189 1.373 . S
N1190 C1192 1.340 . S
N1191 C1188 1.368 . S
N1191 C1192 1.321 . S
N1191 Co1194 2.135 . S
C1192 N1190 1.340 . S
C1192 N1191 1.321 . S
C1192 H1216 0.930 . S
H1193 C1188 0.931 . S
Co1194 N1191 2.135 . S
Co1194 N1197 2.121 . S
Co1194 O1202 2.055 . S
Co1194 O1205 2.039 . S
Co1194 N1208 2.140 . S
C1195 O1196 1.227 . S
C1195 O1205 1.265 . S
O1196 C1195 1.227 . S
N1197 Co1194 2.121 . S
N1197 C1199 1.375 . S
N1197 C1200 1.313 . S
C1198 C1199 1.338 . S
C1198 N1201 1.377 . S
C1198 H1218 0.930 . S
C1199 N1197 1.375 . S
C1199 C1198 1.338 . S
C1199 H1203 0.931 . S
C1200 N1197 1.313 . S
C1200 N1201 1.344 . S
C1200 H1204 0.930 . S
N1201 C1198 1.377 . S
N1201 C1200 1.344 . S
O1202 Co1194 2.055 . S
O1202 C1206 1.253 . S
H1203 C1199 0.931 . S
H1204 C1200 0.930 . S
O1205 Co1194 2.039 . S
O1205 C1195 1.265 . S
C1206 O1202 1.253 . S
C1206 O1207 1.227 . S
O1207 C1206 1.227 . S
N1208 Co1194 2.140 . S
N1208 C1211 1.346 . S
N1208 C1212 1.345 . S
C1209 C1210 1.387 . S
C1209 C1213 1.391 . S
C1210 C1209 1.387 . S
C1210 C1211 1.369 . S
C1210 H1219 0.929 . S
C1211 N1208 1.346 . S
C1211 C1210 1.369 . S
C1211 H1214 0.928 . S
C1212 N1208 1.345 . S
C1212 C1213 1.371 . S
C1212 H1215 0.931 . S
C1213 C1209 1.391 . S
C1213 C1212 1.371 . S
C1213 H1220 0.930 . S
H1214 C1211 0.928 . S
H1215 C1212 0.931 . S
H1216 C1192 0.930 . S
H1217 C1189 0.930 . S
H1218 C1198 0.930 . S
H1219 C1210 0.929 . S
H1220 C1213 0.930 . S
C1221 C1222 1.351 . S
C1221 N1224 1.368 . S
C1221 H1226 0.931 . S
C1222 C1221 1.351 . S
C1222 N1223 1.373 . S
C1222 H1250 0.930 . S
N1223 C1222 1.373 . S
N1223 C1225 1.340 . S
N1224 C1221 1.368 . S
N1224 C1225 1.321 . S
N1224 Co1227 2.135 . S
C1225 N1223 1.340 . S
C1225 N1224 1.321 . S
C1225 H1249 0.930 . S
H1226 C1221 0.931 . S
Co1227 N1224 2.135 . S
Co1227 N1230 2.121 . S
Co1227 O1235 2.055 . S
Co1227 O1238 2.039 . S
Co1227 N1241 2.140 . S
C1228 O1229 1.227 . S
C1228 O1238 1.265 . S
O1229 C1228 1.227 . S
N1230 Co1227 2.121 . S
N1230 C1232 1.375 . S
N1230 C1233 1.313 . S
C1231 C1232 1.338 . S
C1231 N1234 1.377 . S
C1231 H1251 0.930 . S
C1232 N1230 1.375 . S
C1232 C1231 1.338 . S
C1232 H1236 0.931 . S
C1233 N1230 1.313 . S
C1233 N1234 1.344 . S
C1233 H1237 0.930 . S
N1234 C1231 1.377 . S
N1234 C1233 1.344 . S
O1235 Co1227 2.055 . S
O1235 C1239 1.253 . S
H1236 C1232 0.931 . S
H1237 C1233 0.930 . S
O1238 Co1227 2.039 . S
O1238 C1228 1.265 . S
C1239 O1235 1.253 . S
C1239 O1240 1.227 . S
O1240 C1239 1.227 . S
N1241 Co1227 2.140 . S
N1241 C1244 1.346 . S
N1241 C1245 1.345 . S
C1242 C1243 1.387 . S
C1242 C1246 1.391 . S
C1243 C1242 1.387 . S
C1243 C1244 1.369 . S
C1243 H1252 0.929 . S
C1244 N1241 1.346 . S
C1244 C1243 1.369 . S
C1244 H1247 0.928 . S
C1245 N1241 1.345 . S
C1245 C1246 1.371 . S
C1245 H1248 0.931 . S
C1246 C1242 1.391 . S
C1246 C1245 1.371 . S
C1246 H1253 0.930 . S
H1247 C1244 0.928 . S
H1248 C1245 0.931 . S
H1249 C1225 0.930 . S
H1250 C1222 0.930 . S
H1251 C1231 0.930 . S
H1252 C1243 0.929 . S
H1253 C1246 0.930 . S
C1254 C1255 1.351 . S
C1254 N1257 1.368 . S
C1254 H1259 0.931 . S
C1255 C1254 1.351 . S
C1255 N1256 1.373 . S
C1255 H1283 0.930 . S
N1256 C1255 1.373 . S
N1256 C1258 1.340 . S
N1257 C1254 1.368 . S
N1257 C1258 1.321 . S
N1257 Co1260 2.135 . S
C1258 N1256 1.340 . S
C1258 N1257 1.321 . S
C1258 H1282 0.930 . S
H1259 C1254 0.931 . S
Co1260 N1257 2.135 . S
Co1260 N1263 2.121 . S
Co1260 O1268 2.055 . S
Co1260 O1271 2.039 . S
Co1260 N1274 2.140 . S
C1261 O1262 1.227 . S
C1261 O1271 1.265 . S
O1262 C1261 1.227 . S
N1263 Co1260 2.121 . S
N1263 C1265 1.375 . S
N1263 C1266 1.313 . S
C1264 C1265 1.338 . S
C1264 N1267 1.377 . S
C1264 H1284 0.930 . S
C1265 N1263 1.375 . S
C1265 C1264 1.338 . S
C1265 H1269 0.931 . S
C1266 N1263 1.313 . S
C1266 N1267 1.344 . S
C1266 H1270 0.930 . S
N1267 C1264 1.377 . S
N1267 C1266 1.344 . S
O1268 Co1260 2.055 . S
O1268 C1272 1.253 . S
H1269 C1265 0.931 . S
H1270 C1266 0.930 . S
O1271 Co1260 2.039 . S
O1271 C1261 1.265 . S
C1272 O1268 1.253 . S
C1272 O1273 1.227 . S
O1273 C1272 1.227 . S
N1274 Co1260 2.140 . S
N1274 C1277 1.346 . S
N1274 C1278 1.345 . S
C1275 C1276 1.387 . S
C1275 C1279 1.391 . S
C1276 C1275 1.387 . S
C1276 C1277 1.369 . S
C1276 H1285 0.929 . S
C1277 N1274 1.346 . S
C1277 C1276 1.369 . S
C1277 H1280 0.928 . S
C1278 N1274 1.345 . S
C1278 C1279 1.371 . S
C1278 H1281 0.931 . S
C1279 C1275 1.391 . S
C1279 C1278 1.371 . S
C1279 H1286 0.930 . S
H1280 C1277 0.928 . S
H1281 C1278 0.931 . S
H1282 C1258 0.930 . S
H1283 C1255 0.930 . S
H1284 C1264 0.930 . S
H1285 C1276 0.929 . S
H1286 C1279 0.930 . S
C1287 C1288 1.351 . S
C1287 N1290 1.368 . S
C1287 H1292 0.931 . S
C1288 C1287 1.351 . S
C1288 N1289 1.373 . S
C1288 H1316 0.930 . S
N1289 C1288 1.373 . S
N1289 C1291 1.340 . S
N1290 C1287 1.368 . S
N1290 C1291 1.321 . S
N1290 Co1293 2.135 . S
C1291 N1289 1.340 . S
C1291 N1290 1.321 . S
C1291 H1315 0.930 . S
H1292 C1287 0.931 . S
Co1293 N1290 2.135 . S
Co1293 N1296 2.121 . S
Co1293 O1301 2.055 . S
Co1293 O1304 2.039 . S
Co1293 N1307 2.140 . S
C1294 O1295 1.227 . S
C1294 O1304 1.265 . S
O1295 C1294 1.227 . S
N1296 Co1293 2.121 . S
N1296 C1298 1.375 . S
N1296 C1299 1.313 . S
C1297 C1298 1.338 . S
C1297 N1300 1.377 . S
C1297 H1317 0.930 . S
C1298 N1296 1.375 . S
C1298 C1297 1.338 . S
C1298 H1302 0.931 . S
C1299 N1296 1.313 . S
C1299 N1300 1.344 . S
C1299 H1303 0.930 . S
N1300 C1297 1.377 . S
N1300 C1299 1.344 . S
O1301 Co1293 2.055 . S
O1301 C1305 1.253 . S
H1302 C1298 0.931 . S
H1303 C1299 0.930 . S
O1304 Co1293 2.039 . S
O1304 C1294 1.265 . S
C1305 O1301 1.253 . S
C1305 O1306 1.227 . S
O1306 C1305 1.227 . S
N1307 Co1293 2.140 . S
N1307 C1310 1.346 . S
N1307 C1311 1.345 . S
C1308 C1309 1.387 . S
C1308 C1312 1.391 . S
C1309 C1308 1.387 . S
C1309 C1310 1.369 . S
C1309 H1318 0.929 . S
C1310 N1307 1.346 . S
C1310 C1309 1.369 . S
C1310 H1313 0.928 . S
C1311 N1307 1.345 . S
C1311 C1312 1.371 . S
C1311 H1314 0.931 . S
C1312 C1308 1.391 . S
C1312 C1311 1.371 . S
C1312 H1319 0.930 . S
H1313 C1310 0.928 . S
H1314 C1311 0.931 . S
H1315 C1291 0.930 . S
H1316 C1288 0.930 . S
H1317 C1297 0.930 . S
H1318 C1309 0.929 . S
H1319 C1312 0.930 . S
C1320 C1321 1.351 . S
C1320 N1323 1.368 . S
C1320 H1325 0.931 . S
C1321 C1320 1.351 . S
C1321 N1322 1.373 . S
C1321 H1349 0.930 . S
N1322 C1321 1.373 . S
N1322 C1324 1.340 . S
N1323 C1320 1.368 . S
N1323 C1324 1.321 . S
N1323 Co1326 2.135 . S
C1324 N1322 1.340 . S
C1324 N1323 1.321 . S
C1324 H1348 0.930 . S
H1325 C1320 0.931 . S
Co1326 N1323 2.135 . S
Co1326 N1329 2.121 . S
Co1326 O1334 2.055 . S
Co1326 O1337 2.039 . S
Co1326 N1340 2.140 . S
C1327 O1328 1.227 . S
C1327 O1337 1.265 . S
O1328 C1327 1.227 . S
N1329 Co1326 2.121 . S
N1329 C1331 1.375 . S
N1329 C1332 1.313 . S
C1330 C1331 1.338 . S
C1330 N1333 1.377 . S
C1330 H1350 0.930 . S
C1331 N1329 1.375 . S
C1331 C1330 1.338 . S
C1331 H1335 0.931 . S
C1332 N1329 1.313 . S
C1332 N1333 1.344 . S
C1332 H1336 0.930 . S
N1333 C1330 1.377 . S
N1333 C1332 1.344 . S
O1334 Co1326 2.055 . S
O1334 C1338 1.253 . S
H1335 C1331 0.931 . S
H1336 C1332 0.930 . S
O1337 Co1326 2.039 . S
O1337 C1327 1.265 . S
C1338 O1334 1.253 . S
C1338 O1339 1.227 . S
O1339 C1338 1.227 . S
N1340 Co1326 2.140 . S
N1340 C1343 1.346 . S
N1340 C1344 1.345 . S
C1341 C1342 1.387 . S
C1341 C1345 1.391 . S
C1342 C1341 1.387 . S
C1342 C1343 1.369 . S
C1342 H1351 0.929 . S
C1343 N1340 1.346 . S
C1343 C1342 1.369 . S
C1343 H1346 0.928 . S
C1344 N1340 1.345 . S
C1344 C1345 1.371 . S
C1344 H1347 0.931 . S
C1345 C1341 1.391 . S
C1345 C1344 1.371 . S
C1345 H1352 0.930 . S
H1346 C1343 0.928 . S
H1347 C1344 0.931 . S
H1348 C1324 0.930 . S
H1349 C1321 0.930 . S
H1350 C1330 0.930 . S
H1351 C1342 0.929 . S
H1352 C1345 0.930 . S
C1353 C1354 1.351 . S
C1353 N1356 1.368 . S
C1353 H1358 0.931 . S
C1354 C1353 1.351 . S
C1354 N1355 1.373 . S
C1354 H1382 0.930 . S
N1355 C1354 1.373 . S
N1355 C1357 1.340 . S
N1356 C1353 1.368 . S
N1356 C1357 1.321 . S
N1356 Co1359 2.135 . S
C1357 N1355 1.340 . S
C1357 N1356 1.321 . S
C1357 H1381 0.930 . S
H1358 C1353 0.931 . S
Co1359 N1356 2.135 . S
Co1359 N1362 2.121 . S
Co1359 O1367 2.055 . S
Co1359 O1370 2.039 . S
Co1359 N1373 2.140 . S
C1360 O1361 1.227 . S
C1360 O1370 1.265 . S
O1361 C1360 1.227 . S
N1362 Co1359 2.121 . S
N1362 C1364 1.375 . S
N1362 C1365 1.313 . S
C1363 C1364 1.338 . S
C1363 N1366 1.377 . S
C1363 H1383 0.930 . S
C1364 N1362 1.375 . S
C1364 C1363 1.338 . S
C1364 H1368 0.931 . S
C1365 N1362 1.313 . S
C1365 N1366 1.344 . S
C1365 H1369 0.930 . S
N1366 C1363 1.377 . S
N1366 C1365 1.344 . S
O1367 Co1359 2.055 . S
O1367 C1371 1.253 . S
H1368 C1364 0.931 . S
H1369 C1365 0.930 . S
O1370 Co1359 2.039 . S
O1370 C1360 1.265 . S
C1371 O1367 1.253 . S
C1371 O1372 1.227 . S
O1372 C1371 1.227 . S
N1373 Co1359 2.140 . S
N1373 C1376 1.346 . S
N1373 C1377 1.345 . S
C1374 C1375 1.387 . S
C1374 C1378 1.391 . S
C1375 C1374 1.387 . S
C1375 C1376 1.369 . S
C1375 H1384 0.929 . S
C1376 N1373 1.346 . S
C1376 C1375 1.369 . S
C1376 H1379 0.928 . S
C1377 N1373 1.345 . S
C1377 C1378 1.371 . S
C1377 H1380 0.931 . S
C1378 C1374 1.391 . S
C1378 C1377 1.371 . S
C1378 H1385 0.930 . S
H1379 C1376 0.928 . S
H1380 C1377 0.931 . S
H1381 C1357 0.930 . S
H1382 C1354 0.930 . S
H1383 C1363 0.930 . S
H1384 C1375 0.929 . S
H1385 C1378 0.930 . S
C1386 C1387 1.351 . S
C1386 N1389 1.368 . S
C1386 H1391 0.931 . S
C1387 C1386 1.351 . S
C1387 N1388 1.373 . S
C1387 H1415 0.930 . S
N1388 C1387 1.373 . S
N1388 C1390 1.340 . S
N1389 C1386 1.368 . S
N1389 C1390 1.321 . S
N1389 Co1392 2.135 . S
C1390 N1388 1.340 . S
C1390 N1389 1.321 . S
C1390 H1414 0.930 . S
H1391 C1386 0.931 . S
Co1392 N1389 2.135 . S
Co1392 N1395 2.121 . S
Co1392 O1400 2.055 . S
Co1392 O1403 2.039 . S
Co1392 N1406 2.140 . S
C1393 O1394 1.227 . S
C1393 O1403 1.265 . S
O1394 C1393 1.227 . S
N1395 Co1392 2.121 . S
N1395 C1397 1.375 . S
N1395 C1398 1.313 . S
C1396 C1397 1.338 . S
C1396 N1399 1.377 . S
C1396 H1416 0.930 . S
C1397 N1395 1.375 . S
C1397 C1396 1.338 . S
C1397 H1401 0.931 . S
C1398 N1395 1.313 . S
C1398 N1399 1.344 . S
C1398 H1402 0.930 . S
N1399 C1396 1.377 . S
N1399 C1398 1.344 . S
O1400 Co1392 2.055 . S
O1400 C1404 1.253 . S
H1401 C1397 0.931 . S
H1402 C1398 0.930 . S
O1403 Co1392 2.039 . S
O1403 C1393 1.265 . S
C1404 O1400 1.253 . S
C1404 O1405 1.227 . S
O1405 C1404 1.227 . S
N1406 Co1392 2.140 . S
N1406 C1409 1.346 . S
N1406 C1410 1.345 . S
C1407 C1408 1.387 . S
C1407 C1411 1.391 . S
C1408 C1407 1.387 . S
C1408 C1409 1.369 . S
C1408 H1417 0.929 . S
C1409 N1406 1.346 . S
C1409 C1408 1.369 . S
C1409 H1412 0.928 . S
C1410 N1406 1.345 . S
C1410 C1411 1.371 . S
C1410 H1413 0.931 . S
C1411 C1407 1.391 . S
C1411 C1410 1.371 . S
C1411 H1418 0.930 . S
H1412 C1409 0.928 . S
H1413 C1410 0.931 . S
H1414 C1390 0.930 . S
H1415 C1387 0.930 . S
H1416 C1396 0.930 . S
H1417 C1408 0.929 . S
H1418 C1411 0.930 . S
C1419 C1420 1.351 . S
C1419 N1422 1.368 . S
C1419 H1424 0.931 . S
C1420 C1419 1.351 . S
C1420 N1421 1.373 . S
C1420 H1448 0.930 . S
N1421 C1420 1.373 . S
N1421 C1423 1.340 . S
N1422 C1419 1.368 . S
N1422 C1423 1.321 . S
N1422 Co1425 2.135 . S
C1423 N1421 1.340 . S
C1423 N1422 1.321 . S
C1423 H1447 0.930 . S
H1424 C1419 0.931 . S
Co1425 N1422 2.135 . S
Co1425 N1428 2.121 . S
Co1425 O1433 2.055 . S
Co1425 O1436 2.039 . S
Co1425 N1439 2.140 . S
C1426 O1427 1.227 . S
C1426 O1436 1.265 . S
O1427 C1426 1.227 . S
N1428 Co1425 2.121 . S
N1428 C1430 1.375 . S
N1428 C1431 1.313 . S
C1429 C1430 1.338 . S
C1429 N1432 1.377 . S
C1429 H1449 0.930 . S
C1430 N1428 1.375 . S
C1430 C1429 1.338 . S
C1430 H1434 0.931 . S
C1431 N1428 1.313 . S
C1431 N1432 1.344 . S
C1431 H1435 0.930 . S
N1432 C1429 1.377 . S
N1432 C1431 1.344 . S
O1433 Co1425 2.055 . S
O1433 C1437 1.253 . S
H1434 C1430 0.931 . S
H1435 C1431 0.930 . S
O1436 Co1425 2.039 . S
O1436 C1426 1.265 . S
C1437 O1433 1.253 . S
C1437 O1438 1.227 . S
O1438 C1437 1.227 . S
N1439 Co1425 2.140 . S
N1439 C1442 1.346 . S
N1439 C1443 1.345 . S
C1440 C1441 1.387 . S
C1440 C1444 1.391 . S
C1441 C1440 1.387 . S
C1441 C1442 1.369 . S
C1441 H1450 0.929 . S
C1442 N1439 1.346 . S
C1442 C1441 1.369 . S
C1442 H1445 0.928 . S
C1443 N1439 1.345 . S
C1443 C1444 1.371 . S
C1443 H1446 0.931 . S
C1444 C1440 1.391 . S
C1444 C1443 1.371 . S
C1444 H1451 0.930 . S
H1445 C1442 0.928 . S
H1446 C1443 0.931 . S
H1447 C1423 0.930 . S
H1448 C1420 0.930 . S
H1449 C1429 0.930 . S
H1450 C1441 0.929 . S
H1451 C1444 0.930 . S
C1452 C1453 1.351 . S
C1452 N1455 1.368 . S
C1452 H1457 0.931 . S
C1453 C1452 1.351 . S
C1453 N1454 1.373 . S
C1453 H1481 0.930 . S
N1454 C1453 1.373 . S
N1454 C1456 1.340 . S
N1455 C1452 1.368 . S
N1455 C1456 1.321 . S
N1455 Co1458 2.135 . S
C1456 N1454 1.340 . S
C1456 N1455 1.321 . S
C1456 H1480 0.930 . S
H1457 C1452 0.931 . S
Co1458 N1455 2.135 . S
Co1458 N1461 2.121 . S
Co1458 O1466 2.055 . S
Co1458 O1469 2.039 . S
Co1458 N1472 2.140 . S
C1459 O1460 1.227 . S
C1459 O1469 1.265 . S
O1460 C1459 1.227 . S
N1461 Co1458 2.121 . S
N1461 C1463 1.375 . S
N1461 C1464 1.313 . S
C1462 C1463 1.338 . S
C1462 N1465 1.377 . S
C1462 H1482 0.930 . S
C1463 N1461 1.375 . S
C1463 C1462 1.338 . S
C1463 H1467 0.931 . S
C1464 N1461 1.313 . S
C1464 N1465 1.344 . S
C1464 H1468 0.930 . S
N1465 C1462 1.377 . S
N1465 C1464 1.344 . S
O1466 Co1458 2.055 . S
O1466 C1470 1.253 . S
H1467 C1463 0.931 . S
H1468 C1464 0.930 . S
O1469 Co1458 2.039 . S
O1469 C1459 1.265 . S
C1470 O1466 1.253 . S
C1470 O1471 1.227 . S
O1471 C1470 1.227 . S
N1472 Co1458 2.140 . S
N1472 C1475 1.346 . S
N1472 C1476 1.345 . S
C1473 C1474 1.387 . S
C1473 C1477 1.391 . S
C1474 C1473 1.387 . S
C1474 C1475 1.369 . S
C1474 H1483 0.929 . S
C1475 N1472 1.346 . S
C1475 C1474 1.369 . S
C1475 H1478 0.928 . S
C1476 N1472 1.345 . S
C1476 C1477 1.371 . S
C1476 H1479 0.931 . S
C1477 C1473 1.391 . S
C1477 C1476 1.371 . S
C1477 H1484 0.930 . S
H1478 C1475 0.928 . S
H1479 C1476 0.931 . S
H1480 C1456 0.930 . S
H1481 C1453 0.930 . S
H1482 C1462 0.930 . S
H1483 C1474 0.929 . S
H1484 C1477 0.930 . S
C1485 C1486 1.351 . S
C1485 N1488 1.368 . S
C1485 H1490 0.931 . S
C1486 C1485 1.351 . S
C1486 N1487 1.373 . S
C1486 H1514 0.930 . S
N1487 C1486 1.373 . S
N1487 C1489 1.340 . S
N1488 C1485 1.368 . S
N1488 C1489 1.321 . S
N1488 Co1491 2.135 . S
C1489 N1487 1.340 . S
C1489 N1488 1.321 . S
C1489 H1513 0.930 . S
H1490 C1485 0.931 . S
Co1491 N1488 2.135 . S
Co1491 N1494 2.121 . S
Co1491 O1499 2.055 . S
Co1491 O1502 2.039 . S
Co1491 N1505 2.140 . S
C1492 O1493 1.227 . S
C1492 O1502 1.265 . S
O1493 C1492 1.227 . S
N1494 Co1491 2.121 . S
N1494 C1496 1.375 . S
N1494 C1497 1.313 . S
C1495 C1496 1.338 . S
C1495 N1498 1.377 . S
C1495 H1515 0.930 . S
C1496 N1494 1.375 . S
C1496 C1495 1.338 . S
C1496 H1500 0.931 . S
C1497 N1494 1.313 . S
C1497 N1498 1.344 . S
C1497 H1501 0.930 . S
N1498 C1495 1.377 . S
N1498 C1497 1.344 . S
O1499 Co1491 2.055 . S
O1499 C1503 1.253 . S
H1500 C1496 0.931 . S
H1501 C1497 0.930 . S
O1502 Co1491 2.039 . S
O1502 C1492 1.265 . S
C1503 O1499 1.253 . S
C1503 O1504 1.227 . S
O1504 C1503 1.227 . S
N1505 Co1491 2.140 . S
N1505 C1508 1.346 . S
N1505 C1509 1.345 . S
C1506 C1507 1.387 . S
C1506 C1510 1.391 . S
C1507 C1506 1.387 . S
C1507 C1508 1.369 . S
C1507 H1516 0.929 . S
C1508 N1505 1.346 . S
C1508 C1507 1.369 . S
C1508 H1511 0.928 . S
C1509 N1505 1.345 . S
C1509 C1510 1.371 . S
C1509 H1512 0.931 . S
C1510 C1506 1.391 . S
C1510 C1509 1.371 . S
C1510 H1517 0.930 . S
H1511 C1508 0.928 . S
H1512 C1509 0.931 . S
H1513 C1489 0.930 . S
H1514 C1486 0.930 . S
H1515 C1495 0.930 . S
H1516 C1507 0.929 . S
H1517 C1510 0.930 . S
C1518 C1519 1.351 . S
C1518 N1521 1.368 . S
C1518 H1523 0.931 . S
C1519 C1518 1.351 . S
C1519 N1520 1.373 . S
C1519 H1547 0.930 . S
N1520 C1519 1.373 . S
N1520 C1522 1.340 . S
N1521 C1518 1.368 . S
N1521 C1522 1.321 . S
N1521 Co1524 2.135 . S
C1522 N1520 1.340 . S
C1522 N1521 1.321 . S
C1522 H1546 0.930 . S
H1523 C1518 0.931 . S
Co1524 N1521 2.135 . S
Co1524 N1527 2.121 . S
Co1524 O1532 2.055 . S
Co1524 O1535 2.039 . S
Co1524 N1538 2.140 . S
C1525 O1526 1.227 . S
C1525 O1535 1.265 . S
O1526 C1525 1.227 . S
N1527 Co1524 2.121 . S
N1527 C1529 1.375 . S
N1527 C1530 1.313 . S
C1528 C1529 1.338 . S
C1528 N1531 1.377 . S
C1528 H1548 0.930 . S
C1529 N1527 1.375 . S
C1529 C1528 1.338 . S
C1529 H1533 0.931 . S
C1530 N1527 1.313 . S
C1530 N1531 1.344 . S
C1530 H1534 0.930 . S
N1531 C1528 1.377 . S
N1531 C1530 1.344 . S
O1532 Co1524 2.055 . S
O1532 C1536 1.253 . S
H1533 C1529 0.931 . S
H1534 C1530 0.930 . S
O1535 Co1524 2.039 . S
O1535 C1525 1.265 . S
C1536 O1532 1.253 . S
C1536 O1537 1.227 . S
O1537 C1536 1.227 . S
N1538 Co1524 2.140 . S
N1538 C1541 1.346 . S
N1538 C1542 1.345 . S
C1539 C1540 1.387 . S
C1539 C1543 1.391 . S
C1540 C1539 1.387 . S
C1540 C1541 1.369 . S
C1540 H1549 0.929 . S
C1541 N1538 1.346 . S
C1541 C1540 1.369 . S
C1541 H1544 0.928 . S
C1542 N1538 1.345 . S
C1542 C1543 1.371 . S
C1542 H1545 0.931 . S
C1543 C1539 1.391 . S
C1543 C1542 1.371 . S
C1543 H1550 0.930 . S
H1544 C1541 0.928 . S
H1545 C1542 0.931 . S
H1546 C1522 0.930 . S
H1547 C1519 0.930 . S
H1548 C1528 0.930 . S
H1549 C1540 0.929 . S
H1550 C1543 0.930 . S
C1551 C1552 1.351 . S
C1551 N1554 1.368 . S
C1551 H1556 0.931 . S
C1552 C1551 1.351 . S
C1552 N1553 1.373 . S
C1552 H1580 0.930 . S
N1553 C1552 1.373 . S
N1553 C1555 1.340 . S
N1554 C1551 1.368 . S
N1554 C1555 1.321 . S
N1554 Co1557 2.135 . S
C1555 N1553 1.340 . S
C1555 N1554 1.321 . S
C1555 H1579 0.930 . S
H1556 C1551 0.931 . S
Co1557 N1554 2.135 . S
Co1557 N1560 2.121 . S
Co1557 O1565 2.055 . S
Co1557 O1568 2.039 . S
Co1557 N1571 2.140 . S
C1558 O1559 1.227 . S
C1558 O1568 1.265 . S
O1559 C1558 1.227 . S
N1560 Co1557 2.121 . S
N1560 C1562 1.375 . S
N1560 C1563 1.313 . S
C1561 C1562 1.338 . S
C1561 N1564 1.377 . S
C1561 H1581 0.930 . S
C1562 N1560 1.375 . S
C1562 C1561 1.338 . S
C1562 H1566 0.931 . S
C1563 N1560 1.313 . S
C1563 N1564 1.344 . S
C1563 H1567 0.930 . S
N1564 C1561 1.377 . S
N1564 C1563 1.344 . S
O1565 Co1557 2.055 . S
O1565 C1569 1.253 . S
H1566 C1562 0.931 . S
H1567 C1563 0.930 . S
O1568 Co1557 2.039 . S
O1568 C1558 1.265 . S
C1569 O1565 1.253 . S
C1569 O1570 1.227 . S
O1570 C1569 1.227 . S
N1571 Co1557 2.140 . S
N1571 C1574 1.346 . S
N1571 C1575 1.345 . S
C1572 C1573 1.387 . S
C1572 C1576 1.391 . S
C1573 C1572 1.387 . S
C1573 C1574 1.369 . S
C1573 H1582 0.929 . S
C1574 N1571 1.346 . S
C1574 C1573 1.369 . S
C1574 H1577 0.928 . S
C1575 N1571 1.345 . S
C1575 C1576 1.371 . S
C1575 H1578 0.931 . S
C1576 C1572 1.391 . S
C1576 C1575 1.371 . S
C1576 H1583 0.930 . S
H1577 C1574 0.928 . S
H1578 C1575 0.931 . S
H1579 C1555 0.930 . S
H1580 C1552 0.930 . S
H1581 C1561 0.930 . S
H1582 C1573 0.929 . S
H1583 C1576 0.930 . S
H1584 C1590 0.930 . S
H1585 C1594 0.930 . S
H1586 C1599 0.929 . S
H1587 C1597 0.929 . S
H1588 C1592 0.929 . S
H1589 C1598 0.929 . S
C1590 H1584 0.930 . S
C1590 C1591 1.367 . S
C1590 C1598 1.378 1_554 S
C1591 C1590 1.367 . S
C1591 C1599 1.433 . S
C1592 H1588 0.929 . S
C1592 C1594 1.378 . S
C1592 C1596 1.350 . S
C1593 C1596 1.463 . S
C1593 C1598 1.350 . S
C1593 N1601 1.427 1_556 S
C1594 H1585 0.930 . S
C1594 C1592 1.378 . S
C1594 C1595 1.367 . S
C1595 C1594 1.367 . S
C1595 C1597 1.433 . S
C1596 C1592 1.350 . S
C1596 C1593 1.463 . S
C1596 N1600 1.427 . S
C1597 H1587 0.929 . S
C1597 C1595 1.433 . S
C1597 N1600 1.384 . S
C1598 H1589 0.929 . S
C1598 C1590 1.378 1_556 S
C1598 C1593 1.350 . S
C1599 H1586 0.929 . S
C1599 C1591 1.433 . S
C1599 N1601 1.384 . S
N1600 C1596 1.427 . S
N1600 C1597 1.384 . S
N1601 C1593 1.427 1_554 S
N1601 C1599 1.384 . S
H1602 C1608 0.930 . S
H1603 C1612 0.930 . S
H1604 C1617 0.929 . S
H1605 C1615 0.929 . S
H1606 C1610 0.929 . S
H1607 C1616 0.929 . S
C1608 H1602 0.930 . S
C1608 C1609 1.367 . S
C1608 C1616 1.378 . S
C1609 C1608 1.367 . S
C1609 C1617 1.433 . S
C1610 H1606 0.929 . S
C1610 C1612 1.378 . S
C1610 C1614 1.350 . S
C1611 C1614 1.463 . S
C1611 C1616 1.350 . S
C1611 N1619 1.427 . S
C1612 H1603 0.930 . S
C1612 C1610 1.378 . S
C1612 C1613 1.367 . S
C1613 C1612 1.367 . S
C1613 C1615 1.433 . S
C1614 C1610 1.350 . S
C1614 C1611 1.463 . S
C1614 N1618 1.427 . S
C1615 H1605 0.929 . S
C1615 C1613 1.433 . S
C1615 N1618 1.384 . S
C1616 H1607 0.929 . S
C1616 C1608 1.378 . S
C1616 C1611 1.350 . S
C1617 H1604 0.929 . S
C1617 C1609 1.433 . S
C1617 N1619 1.384 . S
N1618 C1614 1.427 . S
N1618 C1615 1.384 . S
N1619 C1611 1.427 . S
N1619 C1617 1.384 . S
H1620 C1626 0.930 . S
H1621 C1630 0.930 . S
H1622 C1635 0.929 . S
H1623 C1633 0.929 . S
H1624 C1628 0.929 . S
H1625 C1634 0.929 . S
C1626 H1620 0.930 . S
C1626 C1627 1.367 . S
C1626 C1634 1.378 . S
C1627 C1626 1.367 . S
C1627 C1635 1.433 . S
C1628 H1624 0.929 . S
C1628 C1630 1.378 . S
C1628 C1632 1.350 . S
C1629 C1632 1.463 . S
C1629 C1634 1.350 . S
C1629 N1637 1.427 . S
C1630 H1621 0.930 . S
C1630 C1628 1.378 . S
C1630 C1631 1.367 . S
C1631 C1630 1.367 . S
C1631 C1633 1.433 . S
C1632 C1628 1.350 . S
C1632 C1629 1.463 . S
C1632 N1636 1.427 . S
C1633 H1623 0.929 . S
C1633 C1631 1.433 . S
C1633 N1636 1.384 . S
C1634 H1625 0.929 . S
C1634 C1626 1.378 . S
C1634 C1629 1.350 . S
C1635 H1622 0.929 . S
C1635 C1627 1.433 . S
C1635 N1637 1.384 . S
N1636 C1632 1.427 . S
N1636 C1633 1.384 . S
N1637 C1629 1.427 . S
N1637 C1635 1.384 . S
H1638 C1644 0.930 . S
H1639 C1648 0.930 . S
H1640 C1653 0.929 . S
H1641 C1651 0.929 . S
H1642 C1646 0.929 . S
H1643 C1652 0.929 . S
C1644 H1638 0.930 . S
C1644 C1645 1.367 . S
C1644 C1652 1.378 . S
C1645 C1644 1.367 . S
C1645 C1653 1.433 . S
C1646 H1642 0.929 . S
C1646 C1648 1.378 . S
C1646 C1650 1.350 . S
C1647 C1650 1.463 . S
C1647 C1652 1.350 . S
C1647 N1655 1.427 . S
C1648 H1639 0.930 . S
C1648 C1646 1.378 . S
C1648 C1649 1.367 . S
C1649 C1648 1.367 . S
C1649 C1651 1.433 . S
C1650 C1646 1.350 . S
C1650 C1647 1.463 . S
C1650 N1654 1.427 . S
C1651 H1641 0.929 . S
C1651 C1649 1.433 . S
C1651 N1654 1.384 . S
C1652 H1643 0.929 . S
C1652 C1644 1.378 . S
C1652 C1647 1.350 . S
C1653 H1640 0.929 . S
C1653 C1645 1.433 . S
C1653 N1655 1.384 . S
N1654 C1650 1.427 . S
N1654 C1651 1.384 . S
N1655 C1647 1.427 . S
N1655 C1653 1.384 . S
H1656 C1662 0.930 . S
H1657 C1666 0.930 . S
H1658 C1671 0.929 . S
H1659 C1669 0.929 . S
H1660 C1664 0.929 . S
H1661 C1670 0.929 . S
C1662 H1656 0.930 . S
C1662 C1663 1.367 . S
C1662 C1670 1.378 . S
C1663 C1662 1.367 . S
C1663 C1671 1.433 . S
C1664 H1660 0.929 . S
C1664 C1666 1.378 . S
C1664 C1668 1.350 . S
C1665 C1668 1.463 . S
C1665 C1670 1.350 . S
C1665 N1673 1.427 . S
C1666 H1657 0.930 . S
C1666 C1664 1.378 . S
C1666 C1667 1.367 . S
C1667 C1666 1.367 . S
C1667 C1669 1.433 . S
C1668 C1664 1.350 . S
C1668 C1665 1.463 . S
C1668 N1672 1.427 . S
C1669 H1659 0.929 . S
C1669 C1667 1.433 . S
C1669 N1672 1.384 . S
C1670 H1661 0.929 . S
C1670 C1662 1.378 . S
C1670 C1665 1.350 . S
C1671 H1658 0.929 . S
C1671 C1663 1.433 . S
C1671 N1673 1.384 . S
N1672 C1668 1.427 . S
N1672 C1669 1.384 . S
N1673 C1665 1.427 . S
N1673 C1671 1.384 . S
H1674 C1680 0.930 . S
H1675 C1684 0.930 . S
H1676 C1689 0.929 . S
H1677 C1687 0.929 . S
H1678 C1682 0.929 . S
H1679 C1688 0.929 . S
C1680 H1674 0.930 . S
C1680 C1681 1.367 . S
C1680 C1688 1.378 . S
C1681 C1680 1.367 . S
C1681 C1689 1.433 . S
C1682 H1678 0.929 . S
C1682 C1684 1.378 . S
C1682 C1686 1.350 . S
C1683 C1686 1.463 . S
C1683 C1688 1.350 . S
C1683 N1691 1.427 . S
C1684 H1675 0.930 . S
C1684 C1682 1.378 . S
C1684 C1685 1.367 . S
C1685 C1684 1.367 . S
C1685 C1687 1.433 . S
C1686 C1682 1.350 . S
C1686 C1683 1.463 . S
C1686 N1690 1.427 . S
C1687 H1677 0.929 . S
C1687 C1685 1.433 . S
C1687 N1690 1.384 . S
C1688 H1679 0.929 . S
C1688 C1680 1.378 . S
C1688 C1683 1.350 . S
C1689 H1676 0.929 . S
C1689 C1681 1.433 . S
C1689 N1691 1.384 . S
N1690 C1686 1.427 . S
N1690 C1687 1.384 . S
N1691 C1683 1.427 . S
N1691 C1689 1.384 . S
H1692 C1698 0.930 . S
H1693 C1702 0.930 . S
H1694 C1707 0.929 . S
H1695 C1705 0.929 . S
H1696 C1700 0.929 . S
H1697 C1706 0.929 1_554 S
C1698 H1692 0.930 . S
C1698 C1699 1.367 . S
C1698 C1706 1.378 . S
C1699 C1698 1.367 . S
C1699 C1707 1.433 . S
C1700 H1696 0.929 . S
C1700 C1702 1.378 . S
C1700 C1704 1.350 . S
C1701 C1704 1.463 1_556 S
C1701 C1706 1.350 . S
C1701 N1709 1.427 . S
C1702 H1693 0.930 . S
C1702 C1700 1.378 . S
C1702 C1703 1.367 . S
C1703 C1702 1.367 . S
C1703 C1705 1.433 . S
C1704 C1700 1.350 . S
C1704 C1701 1.463 1_554 S
C1704 N1708 1.427 . S
C1705 H1695 0.929 . S
C1705 C1703 1.433 . S
C1705 N1708 1.384 . S
C1706 H1697 0.929 1_556 S
C1706 C1698 1.378 . S
C1706 C1701 1.350 . S
C1707 H1694 0.929 . S
C1707 C1699 1.433 . S
C1707 N1709 1.384 . S
N1708 C1704 1.427 . S
N1708 C1705 1.384 . S
N1709 C1701 1.427 . S
N1709 C1707 1.384 . S
H1710 C1716 0.930 . S
H1711 C1720 0.930 . S
H1712 C1725 0.929 . S
H1713 C1723 0.929 . S
H1714 C1718 0.929 . S
H1715 C1724 0.929 . S
C1716 H1710 0.930 . S
C1716 C1717 1.367 . S
C1716 C1724 1.378 . S
C1717 C1716 1.367 . S
C1717 C1725 1.433 . S
C1718 H1714 0.929 . S
C1718 C1720 1.378 . S
C1718 C1722 1.350 . S
C1719 C1722 1.463 . S
C1719 C1724 1.350 . S
C1719 N1727 1.427 . S
C1720 H1711 0.930 . S
C1720 C1718 1.378 . S
C1720 C1721 1.367 . S
C1721 C1720 1.367 . S
C1721 C1723 1.433 . S
C1722 C1718 1.350 . S
C1722 C1719 1.463 . S
C1722 N1726 1.427 . S
C1723 H1713 0.929 . S
C1723 C1721 1.433 . S
C1723 N1726 1.384 . S
C1724 H1715 0.929 . S
C1724 C1716 1.378 . S
C1724 C1719 1.350 . S
C1725 H1712 0.929 . S
C1725 C1717 1.433 . S
C1725 N1727 1.384 . S
N1726 C1722 1.427 . S
N1726 C1723 1.384 . S
N1727 C1719 1.427 . S
N1727 C1725 1.384 . S
H1728 C1734 0.930 . S
H1729 C1738 0.930 1_455 S
H1730 C1743 0.929 . S
H1731 C1741 0.916 1_455 S
H1732 C1736 0.929 . S
H1733 C1742 0.929 . S
C1734 H1728 0.930 . S
C1734 C1735 1.367 . S
C1734 C1742 1.378 . S
C1735 C1734 1.367 . S
C1735 C1743 1.433 . S
C1736 H1732 0.929 . S
C1736 C1738 1.378 . S
C1736 C1740 1.350 . S
C1737 C1740 1.463 . S
C1737 C1742 1.350 . S
C1737 N1745 1.427 . S
C1738 H1729 0.930 1_655 S
C1738 C1736 1.378 . S
C1738 C1739 1.367 1_655 S
C1739 C1738 1.367 1_455 S
C1739 C1741 1.425 1_455 S
C1740 C1736 1.350 . S
C1740 C1737 1.463 . S
C1740 N1744 1.427 . S
C1741 H1731 0.916 1_655 S
C1741 C1739 1.425 1_655 S
C1741 N1744 1.406 . S
C1742 H1733 0.929 . S
C1742 C1734 1.378 . S
C1742 C1737 1.350 . S
C1743 H1730 0.929 . S
C1743 C1735 1.433 . S
C1743 N1745 1.384 . S
N1744 C1740 1.427 . S
N1744 C1741 1.406 . S
N1745 C1737 1.427 . S
N1745 C1743 1.384 . S
H1746 C1752 0.930 . S
H1747 C1756 0.930 . S
H1748 C1761 0.929 . S
H1749 C1759 0.929 . S
H1750 C1754 0.929 . S
H1751 C1760 0.929 . S
C1752 H1746 0.930 . S
C1752 C1753 1.367 . S
C1752 C1760 1.378 . S
C1753 C1752 1.367 . S
C1753 C1761 1.433 . S
C1754 H1750 0.929 . S
C1754 C1756 1.378 . S
C1754 C1758 1.350 . S
C1755 C1758 1.463 . S
C1755 C1760 1.350 . S
C1755 N1763 1.427 . S
C1756 H1747 0.930 . S
C1756 C1754 1.378 . S
C1756 C1757 1.367 . S
C1757 C1756 1.367 . S
C1757 C1759 1.433 . S
C1758 C1754 1.350 . S
C1758 C1755 1.463 . S
C1758 N1762 1.427 . S
C1759 H1749 0.929 . S
C1759 C1757 1.433 . S
C1759 N1762 1.384 . S
C1760 H1751 0.929 . S
C1760 C1752 1.378 . S
C1760 C1755 1.350 . S
C1761 H1748 0.929 . S
C1761 C1753 1.433 . S
C1761 N1763 1.384 . S
N1762 C1758 1.427 . S
N1762 C1759 1.384 . S
N1763 C1755 1.427 . S
N1763 C1761 1.384 . S
H1764 C1770 0.930 . S
H1765 C1774 0.930 . S
H1766 C1779 0.929 . S
H1767 C1777 0.929 . S
H1768 C1772 0.929 . S
H1769 C1778 0.929 . S
C1770 H1764 0.930 . S
C1770 C1771 1.367 . S
C1770 C1778 1.378 . S
C1771 C1770 1.367 . S
C1771 C1779 1.433 . S
C1772 H1768 0.929 . S
C1772 C1774 1.378 . S
C1772 C1776 1.350 . S
C1773 C1776 1.463 . S
C1773 C1778 1.350 . S
C1773 N1781 1.427 . S
C1774 H1765 0.930 . S
C1774 C1772 1.378 . S
C1774 C1775 1.367 . S
C1775 C1774 1.367 . S
C1775 C1777 1.433 . S
C1776 C1772 1.350 . S
C1776 C1773 1.463 . S
C1776 N1780 1.427 . S
C1777 H1767 0.929 . S
C1777 C1775 1.433 . S
C1777 N1780 1.384 . S
C1778 H1769 0.929 . S
C1778 C1770 1.378 . S
C1778 C1773 1.350 . S
C1779 H1766 0.929 . S
C1779 C1771 1.433 . S
C1779 N1781 1.384 . S
N1780 C1776 1.427 . S
N1780 C1777 1.384 . S
N1781 C1773 1.427 . S
N1781 C1779 1.384 . S
H1782 C1788 0.930 . S
H1783 C1792 0.930 . S
H1784 C1797 0.929 . S
H1785 C1795 0.929 . S
H1786 C1790 0.929 . S
H1787 C1796 0.929 . S
C1788 H1782 0.930 . S
C1788 C1789 1.367 . S
C1788 C1796 1.378 . S
C1789 C1788 1.367 . S
C1789 C1797 1.433 . S
C1790 H1786 0.929 . S
C1790 C1792 1.378 . S
C1790 C1794 1.350 . S
C1791 C1794 1.463 . S
C1791 C1796 1.350 . S
C1791 N1799 1.427 . S
C1792 H1783 0.930 . S
C1792 C1790 1.378 . S
C1792 C1793 1.367 . S
C1793 C1792 1.367 . S
C1793 C1795 1.433 . S
C1794 C1790 1.350 . S
C1794 C1791 1.463 . S
C1794 N1798 1.427 . S
C1795 H1785 0.929 . S
C1795 C1793 1.433 . S
C1795 N1798 1.384 . S
C1796 H1787 0.929 . S
C1796 C1788 1.378 . S
C1796 C1791 1.350 . S
C1797 H1784 0.929 . S
C1797 C1789 1.433 . S
C1797 N1799 1.384 . S
N1798 C1794 1.427 . S
N1798 C1795 1.384 . S
N1799 C1791 1.427 . S
N1799 C1797 1.384 . S
H1800 C1806 0.930 . S
H1801 C1810 0.930 . S
H1802 C1815 0.932 . S
H1803 C1813 0.929 . S
H1804 C1808 0.929 . S
H1805 C1814 0.929 . S
C1806 H1800 0.930 . S
C1806 C1807 1.367 . S
C1806 C1814 1.378 . S
C1807 C1806 1.367 . S
C1807 C1815 1.469 . S
C1808 H1804 0.929 . S
C1808 C1810 1.378 . S
C1808 C1812 1.350 . S
C1809 C1812 1.463 . S
C1809 C1814 1.350 1_655 S
C1809 N1817 1.427 . S
C1810 H1801 0.930 . S
C1810 C1808 1.378 . S
C1810 C1811 1.367 . S
C1811 C1810 1.367 . S
C1811 C1813 1.433 . S
C1812 C1808 1.350 . S
C1812 C1809 1.463 . S
C1812 N1816 1.427 . S
C1813 H1803 0.929 . S
C1813 C1811 1.433 . S
C1813 N1816 1.384 . S
C1814 H1805 0.929 . S
C1814 C1806 1.378 . S
C1814 C1809 1.350 1_455 S
C1815 H1802 0.932 . S
C1815 C1807 1.469 . S
C1815 N1817 1.347 1_455 S
N1816 C1812 1.427 . S
N1816 C1813 1.384 . S
N1817 C1809 1.427 . S
N1817 C1815 1.347 1_655 S
H1818 C1824 0.930 . S
H1819 C1828 0.930 . S
H1820 C1833 0.929 . S
H1821 C1831 0.929 . S
H1822 C1826 0.929 . S
H1823 C1832 0.929 . S
C1824 H1818 0.930 . S
C1824 C1825 1.367 . S
C1824 C1832 1.378 . S
C1825 C1824 1.367 . S
C1825 C1833 1.433 . S
C1826 H1822 0.929 . S
C1826 C1828 1.378 . S
C1826 C1830 1.350 . S
C1827 C1830 1.463 . S
C1827 C1832 1.350 . S
C1827 N1835 1.427 . S
C1828 H1819 0.930 . S
C1828 C1826 1.378 . S
C1828 C1829 1.367 . S
C1829 C1828 1.367 . S
C1829 C1831 1.433 . S
C1830 C1826 1.350 . S
C1830 C1827 1.463 . S
C1830 N1834 1.427 . S
C1831 H1821 0.929 . S
C1831 C1829 1.433 . S
C1831 N1834 1.384 . S
C1832 H1823 0.929 . S
C1832 C1824 1.378 . S
C1832 C1827 1.350 . S
C1833 H1820 0.929 . S
C1833 C1825 1.433 . S
C1833 N1835 1.384 . S
N1834 C1830 1.427 . S
N1834 C1831 1.384 . S
N1835 C1827 1.427 . S
N1835 C1833 1.384 . S
H1836 C1842 0.930 . S
H1837 C1846 0.930 . S
H1838 C1851 0.929 . S
H1839 C1849 0.929 . S
H1840 C1844 0.929 . S
H1841 C1850 0.929 . S
C1842 H1836 0.930 . S
C1842 C1843 1.367 . S
C1842 C1850 1.378 . S
C1843 C1842 1.367 . S
C1843 C1851 1.433 . S
C1844 H1840 0.929 . S
C1844 C1846 1.378 . S
C1844 C1848 1.350 . S
C1845 C1848 1.463 . S
C1845 C1850 1.350 . S
C1845 N1853 1.427 . S
C1846 H1837 0.930 . S
C1846 C1844 1.378 . S
C1846 C1847 1.367 . S
C1847 C1846 1.367 . S
C1847 C1849 1.433 . S
C1848 C1844 1.350 . S
C1848 C1845 1.463 . S
C1848 N1852 1.427 . S
C1849 H1839 0.929 . S
C1849 C1847 1.433 . S
C1849 N1852 1.384 . S
C1850 H1841 0.929 . S
C1850 C1842 1.378 . S
C1850 C1845 1.350 . S
C1851 H1838 0.929 . S
C1851 C1843 1.433 . S
C1851 N1853 1.384 . S
N1852 C1848 1.427 . S
N1852 C1849 1.384 . S
N1853 C1845 1.427 . S
N1853 C1851 1.384 . S
H1854 C1860 0.930 . S
H1855 C1864 0.930 . S
H1856 C1869 0.929 . S
H1857 C1867 0.929 . S
H1858 C1862 0.929 . S
H1859 C1868 0.929 . S
C1860 H1854 0.930 . S
C1860 C1861 1.367 . S
C1860 C1868 1.378 . S
C1861 C1860 1.367 . S
C1861 C1869 1.433 . S
C1862 H1858 0.929 . S
C1862 C1864 1.378 . S
C1862 C1866 1.350 . S
C1863 C1866 1.463 . S
C1863 C1868 1.350 . S
C1863 N1871 1.427 . S
C1864 H1855 0.930 . S
C1864 C1862 1.378 . S
C1864 C1865 1.367 . S
C1865 C1864 1.367 . S
C1865 C1867 1.433 . S
C1866 C1862 1.350 . S
C1866 C1863 1.463 . S
C1866 N1870 1.427 . S
C1867 H1857 0.929 . S
C1867 C1865 1.433 . S
C1867 N1870 1.384 . S
C1868 H1859 0.929 . S
C1868 C1860 1.378 . S
C1868 C1863 1.350 . S
C1869 H1856 0.929 . S
C1869 C1861 1.433 . S
C1869 N1871 1.384 . S
N1870 C1866 1.427 . S
N1870 C1867 1.384 . S
N1871 C1863 1.427 . S
N1871 C1869 1.384 . S
H1872 C1878 0.930 . S
H1873 C1882 0.930 . S
H1874 C1887 0.929 . S
H1875 C1885 0.929 . S
H1876 C1880 0.929 1_565 S
H1877 C1886 0.929 . S
C1878 H1872 0.930 . S
C1878 C1879 1.367 . S
C1878 C1886 1.378 . S
C1879 C1878 1.367 . S
C1879 C1887 1.433 . S
C1880 H1876 0.929 1_545 S
C1880 C1882 1.378 . S
C1880 C1884 1.350 1_545 S
C1881 C1884 1.463 . S
C1881 C1886 1.350 . S
C1881 N1889 1.427 . S
C1882 H1873 0.930 . S
C1882 C1880 1.378 . S
C1882 C1883 1.367 . S
C1883 C1882 1.367 . S
C1883 C1885 1.433 . S
C1884 C1880 1.350 1_565 S
C1884 C1881 1.463 . S
C1884 N1888 1.427 . S
C1885 H1875 0.929 . S
C1885 C1883 1.433 . S
C1885 N1888 1.384 1_545 S
C1886 H1877 0.929 . S
C1886 C1878 1.378 . S
C1886 C1881 1.350 . S
C1887 H1874 0.929 . S
C1887 C1879 1.433 . S
C1887 N1889 1.384 . S
N1888 C1884 1.427 . S
N1888 C1885 1.384 1_565 S
N1889 C1881 1.427 . S
N1889 C1887 1.384 . S
H1890 C1896 0.930 . S
H1891 C1900 0.930 . S
H1892 C1905 0.929 . S
H1893 C1903 0.929 . S
H1894 C1898 0.929 . S
H1895 C1904 0.929 . S
C1896 H1890 0.930 . S
C1896 C1897 1.367 . S
C1896 C1904 1.378 . S
C1897 C1896 1.367 . S
C1897 C1905 1.433 . S
C1898 H1894 0.929 . S
C1898 C1900 1.378 . S
C1898 C1902 1.350 . S
C1899 C1902 1.463 . S
C1899 C1904 1.350 . S
C1899 N1907 1.427 . S
C1900 H1891 0.930 . S
C1900 C1898 1.378 . S
C1900 C1901 1.367 . S
C1901 C1900 1.367 . S
C1901 C1903 1.433 . S
C1902 C1898 1.350 . S
C1902 C1899 1.463 . S
C1902 N1906 1.427 . S
C1903 H1893 0.929 . S
C1903 C1901 1.433 . S
C1903 N1906 1.384 . S
C1904 H1895 0.929 . S
C1904 C1896 1.378 . S
C1904 C1899 1.350 . S
C1905 H1892 0.929 . S
C1905 C1897 1.433 . S
C1905 N1907 1.384 . S
N1906 C1902 1.427 . S
N1906 C1903 1.384 . S
N1907 C1899 1.427 . S
N1907 C1905 1.384 . S
H1908 C1914 0.930 . S
H1909 C1918 0.930 . S
H1910 C1923 0.929 . S
H1911 C1921 0.929 . S
H1912 C1916 0.929 . S
H1913 C1922 0.929 . S
C1914 H1908 0.930 . S
C1914 C1915 1.367 . S
C1914 C1922 1.378 . S
C1915 C1914 1.367 . S
C1915 C1923 1.433 . S
C1916 H1912 0.929 . S
C1916 C1918 1.378 . S
C1916 C1920 1.350 . S
C1917 C1920 1.463 . S
C1917 C1922 1.350 . S
C1917 N1925 1.427 . S
C1918 H1909 0.930 . S
C1918 C1916 1.378 . S
C1918 C1919 1.367 . S
C1919 C1918 1.367 . S
C1919 C1921 1.433 . S
C1920 C1916 1.350 . S
C1920 C1917 1.463 . S
C1920 N1924 1.427 . S
C1921 H1911 0.929 . S
C1921 C1919 1.433 . S
C1921 N1924 1.384 . S
C1922 H1913 0.929 . S
C1922 C1914 1.378 . S
C1922 C1917 1.350 . S
C1923 H1910 0.929 . S
C1923 C1915 1.433 . S
C1923 N1925 1.384 . S
N1924 C1920 1.427 . S
N1924 C1921 1.384 . S
N1925 C1917 1.427 . S
N1925 C1923 1.384 . S
H1926 C1932 0.930 . S
H1927 C1936 0.930 . S
H1928 C1941 0.929 . S
H1929 C1939 0.929 . S
H1930 C1934 0.929 . S
H1931 C1940 0.929 . S
C1932 H1926 0.930 . S
C1932 C1933 1.367 . S
C1932 C1940 1.378 . S
C1933 C1932 1.367 . S
C1933 C1941 1.433 . S
C1934 H1930 0.929 . S
C1934 C1936 1.378 . S
C1934 C1938 1.350 . S
C1935 C1938 1.463 . S
C1935 C1940 1.350 . S
C1935 N1943 1.427 . S
C1936 H1927 0.930 . S
C1936 C1934 1.378 . S
C1936 C1937 1.367 . S
C1937 C1936 1.367 . S
C1937 C1939 1.433 . S
C1938 C1934 1.350 . S
C1938 C1935 1.463 . S
C1938 N1942 1.427 . S
C1939 H1929 0.929 . S
C1939 C1937 1.433 . S
C1939 N1942 1.384 . S
C1940 H1931 0.929 . S
C1940 C1932 1.378 . S
C1940 C1935 1.350 . S
C1941 H1928 0.929 . S
C1941 C1933 1.433 . S
C1941 N1943 1.384 . S
N1942 C1938 1.427 . S
N1942 C1939 1.384 . S
N1943 C1935 1.427 . S
N1943 C1941 1.384 . S
H1944 C1950 0.930 . S
H1945 C1954 0.930 . S
H1946 C1959 0.929 . S
H1947 C1957 0.929 . S
H1948 C1952 0.929 . S
H1949 C1958 0.929 . S
C1950 H1944 0.930 . S
C1950 C1951 1.367 . S
C1950 C1958 1.378 . S
C1951 C1950 1.367 . S
C1951 C1959 1.433 . S
C1952 H1948 0.929 . S
C1952 C1954 1.378 . S
C1952 C1956 1.350 . S
C1953 C1956 1.463 . S
C1953 C1958 1.350 . S
C1953 N1961 1.427 . S
C1954 H1945 0.930 . S
C1954 C1952 1.378 . S
C1954 C1955 1.367 . S
C1955 C1954 1.367 . S
C1955 C1957 1.433 . S
C1956 C1952 1.350 . S
C1956 C1953 1.463 . S
C1956 N1960 1.427 . S
C1957 H1947 0.929 . S
C1957 C1955 1.433 . S
C1957 N1960 1.384 . S
C1958 H1949 0.929 . S
C1958 C1950 1.378 . S
C1958 C1953 1.350 . S
C1959 H1946 0.929 . S
C1959 C1951 1.433 . S
C1959 N1961 1.384 . S
N1960 C1956 1.427 . S
N1960 C1957 1.384 . S
N1961 C1953 1.427 . S
N1961 C1959 1.384 . S
H1962 C1968 0.930 . S
H1963 C1972 0.930 . S
H1964 C1977 0.929 . S
H1965 C1975 0.929 . S
H1966 C1970 0.929 . S
H1967 C1976 0.929 . S
C1968 H1962 0.930 . S
C1968 C1969 1.367 . S
C1968 C1976 1.378 . S
C1969 C1968 1.367 . S
C1969 C1977 1.433 . S
C1970 H1966 0.929 . S
C1970 C1972 1.378 . S
C1970 C1974 1.350 . S
C1971 C1974 1.463 . S
C1971 C1976 1.350 1_545 S
C1971 N1979 1.427 . S
C1972 H1963 0.930 . S
C1972 C1970 1.378 . S
C1972 C1973 1.367 . S
C1973 C1972 1.367 . S
C1973 C1975 1.433 . S
C1974 C1970 1.350 . S
C1974 C1971 1.463 . S
C1974 N1978 1.427 . S
C1975 H1965 0.929 . S
C1975 C1973 1.433 . S
C1975 N1978 1.384 . S
C1976 H1967 0.929 . S
C1976 C1968 1.378 . S
C1976 C1971 1.350 1_565 S
C1977 H1964 0.929 . S
C1977 C1969 1.433 . S
C1977 N1979 1.384 1_565 S
N1978 C1974 1.427 . S
N1978 C1975 1.384 . S
N1979 C1971 1.427 . S
N1979 C1977 1.384 1_545 S
H1980 C1986 0.930 . S
H1981 C1990 0.930 . S
H1982 C1995 0.929 . S
H1983 C1993 0.929 . S
H1984 C1988 0.929 . S
H1985 C1994 0.929 . S
C1986 H1980 0.930 . S
C1986 C1987 1.367 . S
C1986 C1994 1.378 . S
C1987 C1986 1.367 . S
C1987 C1995 1.433 . S
C1988 H1984 0.929 . S
C1988 C1990 1.378 . S
C1988 C1992 1.350 . S
C1989 C1992 1.463 . S
C1989 C1994 1.350 . S
C1989 N1997 1.427 . S
C1990 H1981 0.930 . S
C1990 C1988 1.378 . S
C1990 C1991 1.367 . S
C1991 C1990 1.367 . S
C1991 C1993 1.433 . S
C1992 C1988 1.350 . S
C1992 C1989 1.463 . S
C1992 N1996 1.427 . S
C1993 H1983 0.929 . S
C1993 C1991 1.433 . S
C1993 N1996 1.384 . S
C1994 H1985 0.929 . S
C1994 C1986 1.378 . S
C1994 C1989 1.350 . S
C1995 H1982 0.929 . S
C1995 C1987 1.433 . S
C1995 N1997 1.384 . S
N1996 C1992 1.427 . S
N1996 C1993 1.384 . S
N1997 C1989 1.427 . S
N1997 C1995 1.384 . S
H1998 C2004 0.930 . S
H1999 C2008 0.930 . S
H2000 C2013 0.929 . S
H2001 C2011 0.929 . S
H2002 C2006 0.929 . S
H2003 C2012 0.929 . S
C2004 H1998 0.930 . S
C2004 C2005 1.367 . S
C2004 C2012 1.378 . S
C2005 C2004 1.367 . S
C2005 C2013 1.433 . S
C2006 H2002 0.929 . S
C2006 C2008 1.378 . S
C2006 C2010 1.350 . S
C2007 C2010 1.463 . S
C2007 C2012 1.350 . S
C2007 N2015 1.427 . S
C2008 H1999 0.930 . S
C2008 C2006 1.378 . S
C2008 C2009 1.367 . S
C2009 C2008 1.367 . S
C2009 C2011 1.433 . S
C2010 C2006 1.350 . S
C2010 C2007 1.463 . S
C2010 N2014 1.427 . S
C2011 H2001 0.929 . S
C2011 C2009 1.433 . S
C2011 N2014 1.384 . S
C2012 H2003 0.929 . S
C2012 C2004 1.378 . S
C2012 C2007 1.350 . S
C2013 H2000 0.929 . S
C2013 C2005 1.433 . S
C2013 N2015 1.384 . S
N2014 C2010 1.427 . S
N2014 C2011 1.384 . S
N2015 C2007 1.427 . S
N2015 C2013 1.384 . S
H2016 C2022 0.930 . S
H2017 C2026 0.930 . S
H2018 C2031 0.929 . S
H2019 C2029 0.929 . S
H2020 C2024 0.930 . S
H2021 C2030 0.929 . S
C2022 H2016 0.930 . S
C2022 C2023 1.367 . S
C2022 C2030 1.378 . S
C2023 C2022 1.367 . S
C2023 C2031 1.433 . S
C2024 H2020 0.930 . S
C2024 C2026 1.378 1_554 S
C2024 C2028 1.350 . S
C2025 C2028 1.463 . S
C2025 C2030 1.350 . S
C2025 N2033 1.427 . S
C2026 H2017 0.930 . S
C2026 C2024 1.378 1_556 S
C2026 C2027 1.367 . S
C2027 C2026 1.367 . S
C2027 C2029 1.433 1_556 S
C2028 C2024 1.350 . S
C2028 C2025 1.463 . S
C2028 N2032 1.427 . S
C2029 H2019 0.929 . S
C2029 C2027 1.433 1_554 S
C2029 N2032 1.384 . S
C2030 H2021 0.929 . S
C2030 C2022 1.378 . S
C2030 C2025 1.350 . S
C2031 H2018 0.929 . S
C2031 C2023 1.433 . S
C2031 N2033 1.384 . S
N2032 C2028 1.427 . S
N2032 C2029 1.384 . S
N2033 C2025 1.427 . S
N2033 C2031 1.384 . S
H2034 C2040 0.930 . S
H2035 C2044 0.930 . S
H2036 C2049 0.929 . S
H2037 C2047 0.929 . S
H2038 C2042 0.929 . S
H2039 C2048 0.929 . S
C2040 H2034 0.930 . S
C2040 C2041 1.367 . S
C2040 C2048 1.378 . S
C2041 C2040 1.367 . S
C2041 C2049 1.433 . S
C2042 H2038 0.929 . S
C2042 C2044 1.378 . S
C2042 C2046 1.350 . S
C2043 C2046 1.463 . S
C2043 C2048 1.350 . S
C2043 N2051 1.427 . S
C2044 H2035 0.930 . S
C2044 C2042 1.378 . S
C2044 C2045 1.367 . S
C2045 C2044 1.367 . S
C2045 C2047 1.433 . S
C2046 C2042 1.350 . S
C2046 C2043 1.463 . S
C2046 N2050 1.427 . S
C2047 H2037 0.929 . S
C2047 C2045 1.433 . S
C2047 N2050 1.384 . S
C2048 H2039 0.929 . S
C2048 C2040 1.378 . S
C2048 C2043 1.350 . S
C2049 H2036 0.929 . S
C2049 C2041 1.433 . S
C2049 N2051 1.384 . S
N2050 C2046 1.427 . S
N2050 C2047 1.384 . S
N2051 C2043 1.427 . S
N2051 C2049 1.384 . S
H2052 C2058 0.930 . S
H2053 C2062 0.930 . S
H2054 C2067 0.929 . S
H2055 C2065 0.929 . S
H2056 C2060 0.929 . S
H2057 C2066 0.929 . S
C2058 H2052 0.930 . S
C2058 C2059 1.367 . S
C2058 C2066 1.378 . S
C2059 C2058 1.367 . S
C2059 C2067 1.433 . S
C2060 H2056 0.929 . S
C2060 C2062 1.378 . S
C2060 C2064 1.350 . S
C2061 C2064 1.463 . S
C2061 C2066 1.350 . S
C2061 N2069 1.427 . S
C2062 H2053 0.930 . S
C2062 C2060 1.378 . S
C2062 C2063 1.367 . S
C2063 C2062 1.367 . S
C2063 C2065 1.433 . S
C2064 C2060 1.350 . S
C2064 C2061 1.463 . S
C2064 N2068 1.427 . S
C2065 H2055 0.929 . S
C2065 C2063 1.433 . S
C2065 N2068 1.384 . S
C2066 H2057 0.929 . S
C2066 C2058 1.378 . S
C2066 C2061 1.350 . S
C2067 H2054 0.929 . S
C2067 C2059 1.433 . S
C2067 N2069 1.384 . S
N2068 C2064 1.427 . S
N2068 C2065 1.384 . S
N2069 C2061 1.427 . S
N2069 C2067 1.384 . S
H2070 C2076 0.930 . S
H2071 C2080 0.930 . S
H2072 C2085 0.929 . S
H2073 C2083 0.929 . S
H2074 C2078 0.929 . S
H2075 C2084 0.929 . S
C2076 H2070 0.930 . S
C2076 C2077 1.367 . S
C2076 C2084 1.378 . S
C2077 C2076 1.367 . S
C2077 C2085 1.433 . S
C2078 H2074 0.929 . S
C2078 C2080 1.378 . S
C2078 C2082 1.350 . S
C2079 C2082 1.463 . S
C2079 C2084 1.350 . S
C2079 N2087 1.427 . S
C2080 H2071 0.930 . S
C2080 C2078 1.378 . S
C2080 C2081 1.367 . S
C2081 C2080 1.367 . S
C2081 C2083 1.433 . S
C2082 C2078 1.350 . S
C2082 C2079 1.463 . S
C2082 N2086 1.427 . S
C2083 H2073 0.929 . S
C2083 C2081 1.433 . S
C2083 N2086 1.384 . S
C2084 H2075 0.929 . S
C2084 C2076 1.378 . S
C2084 C2079 1.350 . S
C2085 H2072 0.929 . S
C2085 C2077 1.433 . S
C2085 N2087 1.384 . S
N2086 C2082 1.427 . S
N2086 C2083 1.384 . S
N2087 C2079 1.427 . S
N2087 C2085 1.384 . S
H2088 C2094 0.930 . S
H2089 C2098 0.930 . S
H2090 C2103 0.929 . S
H2091 C2101 0.929 . S
H2092 C2096 0.929 . S
H2093 C2102 0.929 . S
C2094 H2088 0.930 . S
C2094 C2095 1.367 . S
C2094 C2102 1.378 . S
C2095 C2094 1.367 . S
C2095 C2103 1.433 . S
C2096 H2092 0.929 . S
C2096 C2098 1.378 . S
C2096 C2100 1.350 . S
C2097 C2100 1.463 . S
C2097 C2102 1.350 . S
C2097 N2105 1.427 . S
C2098 H2089 0.930 . S
C2098 C2096 1.378 . S
C2098 C2099 1.367 . S
C2099 C2098 1.367 . S
C2099 C2101 1.433 . S
C2100 C2096 1.350 . S
C2100 C2097 1.463 . S
C2100 N2104 1.427 . S
C2101 H2091 0.929 . S
C2101 C2099 1.433 . S
C2101 N2104 1.384 . S
C2102 H2093 0.929 . S
C2102 C2094 1.378 . S
C2102 C2097 1.350 . S
C2103 H2090 0.929 . S
C2103 C2095 1.433 . S
C2103 N2105 1.384 . S
N2104 C2100 1.427 . S
N2104 C2101 1.384 . S
N2105 C2097 1.427 . S
N2105 C2103 1.384 . S
H2106 C2112 0.930 . S
H2107 C2116 0.930 . S
H2108 C2121 0.929 . S
H2109 C2119 0.929 . S
H2110 C2114 0.929 . S
H2111 C2120 0.929 . S
C2112 H2106 0.930 . S
C2112 C2113 1.367 . S
C2112 C2120 1.378 . S
C2113 C2112 1.367 . S
C2113 C2121 1.433 . S
C2114 H2110 0.929 . S
C2114 C2116 1.378 . S
C2114 C2118 1.350 . S
C2115 C2118 1.463 . S
C2115 C2120 1.350 . S
C2115 N2123 1.427 . S
C2116 H2107 0.930 . S
C2116 C2114 1.378 . S
C2116 C2117 1.367 . S
C2117 C2116 1.367 . S
C2117 C2119 1.433 . S
C2118 C2114 1.350 . S
C2118 C2115 1.463 . S
C2118 N2122 1.427 . S
C2119 H2109 0.929 . S
C2119 C2117 1.433 . S
C2119 N2122 1.384 . S
C2120 H2111 0.929 . S
C2120 C2112 1.378 . S
C2120 C2115 1.350 . S
C2121 H2108 0.929 . S
C2121 C2113 1.433 . S
C2121 N2123 1.384 . S
N2122 C2118 1.427 . S
N2122 C2119 1.384 . S
N2123 C2115 1.427 . S
N2123 C2121 1.384 . S
H2124 C2130 0.930 . S
H2125 C2134 0.930 . S
H2126 C2139 0.929 . S
H2127 C2137 0.929 . S
H2128 C2132 0.929 . S
H2129 C2138 0.929 . S
C2130 H2124 0.930 . S
C2130 C2131 1.367 . S
C2130 C2138 1.378 . S
C2131 C2130 1.367 . S
C2131 C2139 1.433 . S
C2132 H2128 0.929 . S
C2132 C2134 1.378 . S
C2132 C2136 1.350 . S
C2133 C2136 1.463 . S
C2133 C2138 1.350 1_554 S
C2133 N2141 1.422 1_554 S
C2134 H2125 0.930 . S
C2134 C2132 1.378 . S
C2134 C2135 1.367 . S
C2135 C2134 1.367 . S
C2135 C2137 1.433 . S
C2136 C2132 1.350 . S
C2136 C2133 1.463 . S
C2136 N2140 1.427 . S
C2137 H2127 0.929 . S
C2137 C2135 1.433 . S
C2137 N2140 1.384 . S
C2138 H2129 0.929 . S
C2138 C2130 1.378 . S
C2138 C2133 1.350 1_556 S
C2139 H2126 0.929 . S
C2139 C2131 1.433 . S
C2139 N2141 1.416 . S
N2140 C2136 1.427 . S
N2140 C2137 1.384 . S
N2141 C2133 1.422 1_556 S
N2141 C2139 1.416 . S
H2142 C2148 0.930 . S
H2143 C2152 0.930 . S
H2144 C2157 0.929 . S
H2145 C2155 0.929 . S
H2146 C2150 0.929 . S
H2147 C2156 0.929 . S
C2148 H2142 0.930 . S
C2148 C2149 1.367 . S
C2148 C2156 1.378 . S
C2149 C2148 1.367 . S
C2149 C2157 1.433 . S
C2150 H2146 0.929 . S
C2150 C2152 1.378 . S
C2150 C2154 1.350 . S
C2151 C2154 1.463 . S
C2151 C2156 1.350 . S
C2151 N2159 1.427 . S
C2152 H2143 0.930 . S
C2152 C2150 1.378 . S
C2152 C2153 1.367 . S
C2153 C2152 1.367 . S
C2153 C2155 1.433 . S
C2154 C2150 1.350 . S
C2154 C2151 1.463 . S
C2154 N2158 1.427 . S
C2155 H2145 0.929 . S
C2155 C2153 1.433 . S
C2155 N2158 1.384 . S
C2156 H2147 0.929 . S
C2156 C2148 1.378 . S
C2156 C2151 1.350 . S
C2157 H2144 0.929 . S
C2157 C2149 1.433 . S
C2157 N2159 1.384 . S
N2158 C2154 1.427 . S
N2158 C2155 1.384 . S
N2159 C2151 1.427 . S
N2159 C2157 1.384 . S
H2160 C2166 0.930 . S
H2161 C2170 0.930 1_655 S
H2162 C2175 0.929 . S
H2163 C2173 0.929 1_655 S
H2164 C2168 0.929 . S
H2165 C2174 0.929 . S
C2166 H2160 0.930 . S
C2166 C2167 1.367 . S
C2166 C2174 1.378 . S
C2167 C2166 1.367 . S
C2167 C2175 1.433 . S
C2168 H2164 0.929 . S
C2168 C2170 1.378 . S
C2168 C2172 1.350 . S
C2169 C2172 1.463 . S
C2169 C2174 1.350 . S
C2169 N2177 1.427 . S
C2170 H2161 0.930 1_455 S
C2170 C2168 1.378 . S
C2170 C2171 1.367 1_455 S
C2171 C2170 1.367 1_655 S
C2171 C2173 1.433 1_655 S
C2172 C2168 1.350 . S
C2172 C2169 1.463 . S
C2172 N2176 1.427 . S
C2173 H2163 0.929 1_455 S
C2173 C2171 1.433 1_455 S
C2173 N2176 1.384 . S
C2174 H2165 0.929 . S
C2174 C2166 1.378 . S
C2174 C2169 1.350 . S
C2175 H2162 0.929 . S
C2175 C2167 1.433 . S
C2175 N2177 1.384 . S
N2176 C2172 1.427 . S
N2176 C2173 1.384 . S
N2177 C2169 1.427 . S
N2177 C2175 1.384 . S
H2178 C2184 0.930 . S
H2179 C2188 0.930 . S
H2180 C2193 0.929 . S
H2181 C2191 0.929 . S
H2182 C2186 0.929 . S
H2183 C2192 0.929 . S
C2184 H2178 0.930 . S
C2184 C2185 1.367 . S
C2184 C2192 1.378 . S
C2185 C2184 1.367 . S
C2185 C2193 1.433 . S
C2186 H2182 0.929 . S
C2186 C2188 1.378 . S
C2186 C2190 1.350 . S
C2187 C2190 1.463 . S
C2187 C2192 1.350 . S
C2187 N2195 1.427 . S
C2188 H2179 0.930 . S
C2188 C2186 1.378 . S
C2188 C2189 1.367 . S
C2189 C2188 1.367 . S
C2189 C2191 1.433 . S
C2190 C2186 1.350 . S
C2190 C2187 1.463 . S
C2190 N2194 1.427 . S
C2191 H2181 0.929 . S
C2191 C2189 1.433 . S
C2191 N2194 1.384 . S
C2192 H2183 0.929 . S
C2192 C2184 1.378 . S
C2192 C2187 1.350 . S
C2193 H2180 0.929 . S
C2193 C2185 1.433 . S
C2193 N2195 1.384 . S
N2194 C2190 1.427 . S
N2194 C2191 1.384 . S
N2195 C2187 1.427 . S
N2195 C2193 1.384 . S
H2196 C2202 0.930 . S
H2197 C2206 0.930 . S
H2198 C2211 0.929 . S
H2199 C2209 0.929 . S
H2200 C2204 0.929 . S
H2201 C2210 0.929 . S
C2202 H2196 0.930 . S
C2202 C2203 1.367 . S
C2202 C2210 1.378 . S
C2203 C2202 1.367 . S
C2203 C2211 1.433 . S
C2204 H2200 0.929 . S
C2204 C2206 1.378 . S
C2204 C2208 1.350 . S
C2205 C2208 1.463 . S
C2205 C2210 1.350 . S
C2205 N2213 1.427 . S
C2206 H2197 0.930 . S
C2206 C2204 1.378 . S
C2206 C2207 1.367 . S
C2207 C2206 1.367 . S
C2207 C2209 1.433 . S
C2208 C2204 1.350 . S
C2208 C2205 1.463 . S
C2208 N2212 1.427 . S
C2209 H2199 0.929 . S
C2209 C2207 1.433 . S
C2209 N2212 1.384 . S
C2210 H2201 0.929 . S
C2210 C2202 1.378 . S
C2210 C2205 1.350 . S
C2211 H2198 0.929 . S
C2211 C2203 1.433 . S
C2211 N2213 1.384 . S
N2212 C2208 1.427 . S
N2212 C2209 1.384 . S
N2213 C2205 1.427 . S
N2213 C2211 1.384 . S
H2214 C2220 0.930 . S
H2215 C2224 0.930 . S
H2216 C2229 0.929 . S
H2217 C2227 0.929 . S
H2218 C2222 0.929 . S
H2219 C2228 0.929 . S
C2220 H2214 0.930 . S
C2220 C2221 1.367 . S
C2220 C2228 1.378 . S
C2221 C2220 1.367 . S
C2221 C2229 1.433 . S
C2222 H2218 0.929 . S
C2222 C2224 1.378 . S
C2222 C2226 1.350 . S
C2223 C2226 1.463 . S
C2223 C2228 1.350 . S
C2223 N2231 1.427 . S
C2224 H2215 0.930 . S
C2224 C2222 1.378 . S
C2224 C2225 1.367 . S
C2225 C2224 1.367 . S
C2225 C2227 1.433 . S
C2226 C2222 1.350 . S
C2226 C2223 1.463 . S
C2226 N2230 1.427 . S
C2227 H2217 0.929 . S
C2227 C2225 1.433 . S
C2227 N2230 1.384 . S
C2228 H2219 0.929 . S
C2228 C2220 1.378 . S
C2228 C2223 1.350 . S
C2229 H2216 0.929 . S
C2229 C2221 1.433 . S
C2229 N2231 1.384 . S
N2230 C2226 1.427 . S
N2230 C2227 1.384 . S
N2231 C2223 1.427 . S
N2231 C2229 1.384 . S
H2232 C2238 0.930 . S
H2233 C2242 0.930 . S
H2234 C2247 0.929 . S
H2235 C2245 0.929 . S
H2236 C2240 0.929 . S
H2237 C2246 0.929 . S
C2238 H2232 0.930 . S
C2238 C2239 1.367 . S
C2238 C2246 1.378 . S
C2239 C2238 1.367 . S
C2239 C2247 1.433 . S
C2240 H2236 0.929 . S
C2240 C2242 1.378 . S
C2240 C2244 1.350 . S
C2241 C2244 1.463 . S
C2241 C2246 1.350 1_455 S
C2241 N2249 1.427 . S
C2242 H2233 0.930 . S
C2242 C2240 1.378 . S
C2242 C2243 1.367 . S
C2243 C2242 1.367 . S
C2243 C2245 1.433 . S
C2244 C2240 1.350 . S
C2244 C2241 1.463 . S
C2244 N2248 1.427 . S
C2245 H2235 0.929 . S
C2245 C2243 1.433 . S
C2245 N2248 1.384 . S
C2246 H2237 0.929 . S
C2246 C2238 1.378 . S
C2246 C2241 1.350 1_655 S
C2247 H2234 0.929 . S
C2247 C2239 1.433 . S
C2247 N2249 1.384 1_655 S
N2248 C2244 1.427 . S
N2248 C2245 1.384 . S
N2249 C2241 1.427 . S
N2249 C2247 1.384 1_455 S
H2250 C2256 0.930 . S
H2251 C2260 0.930 . S
H2252 C2265 0.929 . S
H2253 C2263 0.929 . S
H2254 C2258 0.929 . S
H2255 C2264 0.929 . S
C2256 H2250 0.930 . S
C2256 C2257 1.367 . S
C2256 C2264 1.378 . S
C2257 C2256 1.367 . S
C2257 C2265 1.433 . S
C2258 H2254 0.929 . S
C2258 C2260 1.378 . S
C2258 C2262 1.350 . S
C2259 C2262 1.463 . S
C2259 C2264 1.350 . S
C2259 N2267 1.427 . S
C2260 H2251 0.930 . S
C2260 C2258 1.378 . S
C2260 C2261 1.367 . S
C2261 C2260 1.367 . S
C2261 C2263 1.433 . S
C2262 C2258 1.350 . S
C2262 C2259 1.463 . S
C2262 N2266 1.427 . S
C2263 H2253 0.929 . S
C2263 C2261 1.433 . S
C2263 N2266 1.384 . S
C2264 H2255 0.929 . S
C2264 C2256 1.378 . S
C2264 C2259 1.350 . S
C2265 H2252 0.929 . S
C2265 C2257 1.433 . S
C2265 N2267 1.384 . S
N2266 C2262 1.427 . S
N2266 C2263 1.384 . S
N2267 C2259 1.427 . S
N2267 C2265 1.384 . S
H2268 C2274 0.930 . S
H2269 C2278 0.930 . S
H2270 C2283 0.929 . S
H2271 C2281 0.929 . S
H2272 C2276 0.929 . S
H2273 C2282 0.929 . S
C2274 H2268 0.930 . S
C2274 C2275 1.367 . S
C2274 C2282 1.378 . S
C2275 C2274 1.367 . S
C2275 C2283 1.433 . S
C2276 H2272 0.929 . S
C2276 C2278 1.378 . S
C2276 C2280 1.350 . S
C2277 C2280 1.463 . S
C2277 C2282 1.350 . S
C2277 N2285 1.427 . S
C2278 H2269 0.930 . S
C2278 C2276 1.378 . S
C2278 C2279 1.367 . S
C2279 C2278 1.367 . S
C2279 C2281 1.433 . S
C2280 C2276 1.350 . S
C2280 C2277 1.463 . S
C2280 N2284 1.427 . S
C2281 H2271 0.929 . S
C2281 C2279 1.433 . S
C2281 N2284 1.384 . S
C2282 H2273 0.929 . S
C2282 C2274 1.378 . S
C2282 C2277 1.350 . S
C2283 H2270 0.929 . S
C2283 C2275 1.433 . S
C2283 N2285 1.384 . S
N2284 C2280 1.427 . S
N2284 C2281 1.384 . S
N2285 C2277 1.427 . S
N2285 C2283 1.384 . S
H2286 C2292 0.930 . S
H2287 C2296 0.930 . S
H2288 C2301 0.929 . S
H2289 C2299 0.929 . S
H2290 C2294 0.929 . S
H2291 C2300 0.929 . S
C2292 H2286 0.930 . S
C2292 C2293 1.367 . S
C2292 C2300 1.378 . S
C2293 C2292 1.367 . S
C2293 C2301 1.433 . S
C2294 H2290 0.929 . S
C2294 C2296 1.378 . S
C2294 C2298 1.350 . S
C2295 C2298 1.463 . S
C2295 C2300 1.350 . S
C2295 N2303 1.427 . S
C2296 H2287 0.930 . S
C2296 C2294 1.378 . S
C2296 C2297 1.367 . S
C2297 C2296 1.367 . S
C2297 C2299 1.433 . S
C2298 C2294 1.350 . S
C2298 C2295 1.463 . S
C2298 N2302 1.427 . S
C2299 H2289 0.929 . S
C2299 C2297 1.433 . S
C2299 N2302 1.384 . S
C2300 H2291 0.929 . S
C2300 C2292 1.378 . S
C2300 C2295 1.350 . S
C2301 H2288 0.929 . S
C2301 C2293 1.433 . S
C2301 N2303 1.384 . S
N2302 C2298 1.427 . S
N2302 C2299 1.384 . S
N2303 C2295 1.427 . S
N2303 C2301 1.384 . S
H2304 C2310 0.930 . S
H2305 C2314 0.930 . S
H2306 C2319 0.929 . S
H2307 C2317 0.929 . S
H2308 C2312 0.929 . S
H2309 C2318 0.929 . S
C2310 H2304 0.930 . S
C2310 C2311 1.367 . S
C2310 C2318 1.378 . S
C2311 C2310 1.367 . S
C2311 C2319 1.433 . S
C2312 H2308 0.929 . S
C2312 C2314 1.378 1_545 S
C2312 C2316 1.350 . S
C2313 C2316 1.463 . S
C2313 C2318 1.350 . S
C2313 N2321 1.427 . S
C2314 H2305 0.930 . S
C2314 C2312 1.378 1_565 S
C2314 C2315 1.367 . S
C2315 C2314 1.367 . S
C2315 C2317 1.433 . S
C2316 C2312 1.350 . S
C2316 C2313 1.463 . S
C2316 N2320 1.427 1_545 S
C2317 H2307 0.929 . S
C2317 C2315 1.433 . S
C2317 N2320 1.384 . S
C2318 H2309 0.929 . S
C2318 C2310 1.378 . S
C2318 C2313 1.350 . S
C2319 H2306 0.929 . S
C2319 C2311 1.433 . S
C2319 N2321 1.384 . S
N2320 C2316 1.427 1_565 S
N2320 C2317 1.384 . S
N2321 C2313 1.427 . S
N2321 C2319 1.384 . S
H2322 C2328 0.930 . S
H2323 C2332 0.930 . S
H2324 C2337 0.929 . S
H2325 C2335 0.929 . S
H2326 C2330 0.929 . S
H2327 C2336 0.929 . S
C2328 H2322 0.930 . S
C2328 C2329 1.367 . S
C2328 C2336 1.378 . S
C2329 C2328 1.367 . S
C2329 C2337 1.433 . S
C2330 H2326 0.929 . S
C2330 C2332 1.378 . S
C2330 C2334 1.350 . S
C2331 C2334 1.463 . S
C2331 C2336 1.350 . S
C2331 N2339 1.427 . S
C2332 H2323 0.930 . S
C2332 C2330 1.378 . S
C2332 C2333 1.367 . S
C2333 C2332 1.367 . S
C2333 C2335 1.433 . S
C2334 C2330 1.350 . S
C2334 C2331 1.463 . S
C2334 N2338 1.427 . S
C2335 H2325 0.929 . S
C2335 C2333 1.433 . S
C2335 N2338 1.384 . S
C2336 H2327 0.929 . S
C2336 C2328 1.378 . S
C2336 C2331 1.350 . S
C2337 H2324 0.929 . S
C2337 C2329 1.433 . S
C2337 N2339 1.384 . S
N2338 C2334 1.427 . S
N2338 C2335 1.384 . S
N2339 C2331 1.427 . S
N2339 C2337 1.384 . S
H2340 C2346 0.930 . S
H2341 C2350 0.930 . S
H2342 C2355 0.929 . S
H2343 C2353 0.929 . S
H2344 C2348 0.929 . S
H2345 C2354 0.929 . S
C2346 H2340 0.930 . S
C2346 C2347 1.367 . S
C2346 C2354 1.378 . S
C2347 C2346 1.367 . S
C2347 C2355 1.433 . S
C2348 H2344 0.929 . S
C2348 C2350 1.378 . S
C2348 C2352 1.350 . S
C2349 C2352 1.463 . S
C2349 C2354 1.350 . S
C2349 N2357 1.427 . S
C2350 H2341 0.930 . S
C2350 C2348 1.378 . S
C2350 C2351 1.367 . S
C2351 C2350 1.367 . S
C2351 C2353 1.433 . S
C2352 C2348 1.350 . S
C2352 C2349 1.463 . S
C2352 N2356 1.427 . S
C2353 H2343 0.929 . S
C2353 C2351 1.433 . S
C2353 N2356 1.384 . S
C2354 H2345 0.929 . S
C2354 C2346 1.378 . S
C2354 C2349 1.350 . S
C2355 H2342 0.929 . S
C2355 C2347 1.433 . S
C2355 N2357 1.384 . S
N2356 C2352 1.427 . S
N2356 C2353 1.384 . S
N2357 C2349 1.427 . S
N2357 C2355 1.384 . S
H2358 C2364 0.930 . S
H2359 C2368 0.930 . S
H2360 C2373 0.929 . S
H2361 C2371 0.929 . S
H2362 C2366 0.929 . S
H2363 C2372 0.929 . S
C2364 H2358 0.930 . S
C2364 C2365 1.367 . S
C2364 C2372 1.378 . S
C2365 C2364 1.367 . S
C2365 C2373 1.433 . S
C2366 H2362 0.929 . S
C2366 C2368 1.378 . S
C2366 C2370 1.350 . S
C2367 C2370 1.463 . S
C2367 C2372 1.350 . S
C2367 N2375 1.427 . S
C2368 H2359 0.930 . S
C2368 C2366 1.378 . S
C2368 C2369 1.367 . S
C2369 C2368 1.367 . S
C2369 C2371 1.433 . S
C2370 C2366 1.350 . S
C2370 C2367 1.463 . S
C2370 N2374 1.427 . S
C2371 H2361 0.929 . S
C2371 C2369 1.433 . S
C2371 N2374 1.384 . S
C2372 H2363 0.929 . S
C2372 C2364 1.378 . S
C2372 C2367 1.350 . S
C2373 H2360 0.929 . S
C2373 C2365 1.433 . S
C2373 N2375 1.384 . S
N2374 C2370 1.427 . S
N2374 C2371 1.384 . S
N2375 C2367 1.427 . S
N2375 C2373 1.384 . S
H2376 C2382 0.930 . S
H2377 C2386 0.930 . S
H2378 C2391 0.929 . S
H2379 C2389 0.929 . S
H2380 C2384 0.929 . S
H2381 C2390 0.929 . S
C2382 H2376 0.930 . S
C2382 C2383 1.367 . S
C2382 C2390 1.378 . S
C2383 C2382 1.367 . S
C2383 C2391 1.433 . S
C2384 H2380 0.929 . S
C2384 C2386 1.378 . S
C2384 C2388 1.350 . S
C2385 C2388 1.463 . S
C2385 C2390 1.350 . S
C2385 N2393 1.427 . S
C2386 H2377 0.930 . S
C2386 C2384 1.378 . S
C2386 C2387 1.367 . S
C2387 C2386 1.367 . S
C2387 C2389 1.433 . S
C2388 C2384 1.350 . S
C2388 C2385 1.463 . S
C2388 N2392 1.427 . S
C2389 H2379 0.929 . S
C2389 C2387 1.433 . S
C2389 N2392 1.384 . S
C2390 H2381 0.929 . S
C2390 C2382 1.378 . S
C2390 C2385 1.350 . S
C2391 H2378 0.929 . S
C2391 C2383 1.433 . S
C2391 N2393 1.384 . S
N2392 C2388 1.427 . S
N2392 C2389 1.384 . S
N2393 C2385 1.427 . S
N2393 C2391 1.384 . S
H2394 C2400 0.930 . S
H2395 C2404 0.930 . S
H2396 C2409 0.929 . S
H2397 C2407 0.929 . S
H2398 C2402 0.929 . S
H2399 C2408 0.929 . S
C2400 H2394 0.930 . S
C2400 C2401 1.367 . S
C2400 C2408 1.378 . S
C2401 C2400 1.367 . S
C2401 C2409 1.433 . S
C2402 H2398 0.929 . S
C2402 C2404 1.378 1_565 S
C2402 C2406 1.350 . S
C2403 C2406 1.463 . S
C2403 C2408 1.350 . S
C2403 N2411 1.427 . S
C2404 H2395 0.930 . S
C2404 C2402 1.378 1_545 S
C2404 C2405 1.367 . S
C2405 C2404 1.367 . S
C2405 C2407 1.433 . S
C2406 C2402 1.350 . S
C2406 C2403 1.463 . S
C2406 N2410 1.444 . S
C2407 H2397 0.929 . S
C2407 C2405 1.433 . S
C2407 N2410 1.356 1_545 S
C2408 H2399 0.929 . S
C2408 C2400 1.378 . S
C2408 C2403 1.350 . S
C2409 H2396 0.929 . S
C2409 C2401 1.433 . S
C2409 N2411 1.384 . S
N2410 C2406 1.444 . S
N2410 C2407 1.356 1_565 S
N2411 C2403 1.427 . S
N2411 C2409 1.384 . S
H2412 C2418 0.930 . S
H2413 C2422 0.930 . S
H2414 C2427 0.929 . S
H2415 C2425 0.929 . S
H2416 C2420 0.929 . S
H2417 C2426 0.929 . S
C2418 H2412 0.930 . S
C2418 C2419 1.367 . S
C2418 C2426 1.378 . S
C2419 C2418 1.367 . S
C2419 C2427 1.433 . S
C2420 H2416 0.929 . S
C2420 C2422 1.378 . S
C2420 C2424 1.350 . S
C2421 C2424 1.463 . S
C2421 C2426 1.350 . S
C2421 N2429 1.427 . S
C2422 H2413 0.930 . S
C2422 C2420 1.378 . S
C2422 C2423 1.367 . S
C2423 C2422 1.367 . S
C2423 C2425 1.433 . S
C2424 C2420 1.350 . S
C2424 C2421 1.463 . S
C2424 N2428 1.427 . S
C2425 H2415 0.929 . S
C2425 C2423 1.433 . S
C2425 N2428 1.384 . S
C2426 H2417 0.929 . S
C2426 C2418 1.378 . S
C2426 C2421 1.350 . S
C2427 H2414 0.929 . S
C2427 C2419 1.433 . S
C2427 N2429 1.384 . S
N2428 C2424 1.427 . S
N2428 C2425 1.384 . S
N2429 C2421 1.427 . S
N2429 C2427 1.384 . S
H2430 C2436 0.930 . S
H2431 C2440 0.930 . S
H2432 C2445 0.929 . S
H2433 C2443 0.929 . S
H2434 C2438 0.929 . S
H2435 C2444 0.929 . S
C2436 H2430 0.930 . S
C2436 C2437 1.367 . S
C2436 C2444 1.378 . S
C2437 C2436 1.367 . S
C2437 C2445 1.433 . S
C2438 H2434 0.929 . S
C2438 C2440 1.378 . S
C2438 C2442 1.350 . S
C2439 C2442 1.463 . S
C2439 C2444 1.350 . S
C2439 N2447 1.427 . S
C2440 H2431 0.930 . S
C2440 C2438 1.378 . S
C2440 C2441 1.367 . S
C2441 C2440 1.367 . S
C2441 C2443 1.433 . S
C2442 C2438 1.350 . S
C2442 C2439 1.463 . S
C2442 N2446 1.427 . S
C2443 H2433 0.929 . S
C2443 C2441 1.433 . S
C2443 N2446 1.384 . S
C2444 H2435 0.929 . S
C2444 C2436 1.378 . S
C2444 C2439 1.350 . S
C2445 H2432 0.929 . S
C2445 C2437 1.433 . S
C2445 N2447 1.384 . S
N2446 C2442 1.427 . S
N2446 C2443 1.384 . S
N2447 C2439 1.427 . S
N2447 C2445 1.384 . S
H2448 C2454 0.930 . S
H2449 C2458 0.930 . S
H2450 C2463 0.929 . S
H2451 C2461 0.929 . S
H2452 C2456 0.929 . S
H2453 C2462 0.929 . S
C2454 H2448 0.930 . S
C2454 C2455 1.367 . S
C2454 C2462 1.378 . S
C2455 C2454 1.367 . S
C2455 C2463 1.433 . S
C2456 H2452 0.929 . S
C2456 C2458 1.378 . S
C2456 C2460 1.350 . S
C2457 C2460 1.463 . S
C2457 C2462 1.350 . S
C2457 N2465 1.427 . S
C2458 H2449 0.930 . S
C2458 C2456 1.378 . S
C2458 C2459 1.367 . S
C2459 C2458 1.367 . S
C2459 C2461 1.433 . S
C2460 C2456 1.350 . S
C2460 C2457 1.463 . S
C2460 N2464 1.427 . S
C2461 H2451 0.929 . S
C2461 C2459 1.433 . S
C2461 N2464 1.384 . S
C2462 H2453 0.929 . S
C2462 C2454 1.378 . S
C2462 C2457 1.350 . S
C2463 H2450 0.929 . S
C2463 C2455 1.433 . S
C2463 N2465 1.384 . S
N2464 C2460 1.427 . S
N2464 C2461 1.384 . S
N2465 C2457 1.427 . S
N2465 C2463 1.384 . S
H2466 C2472 0.930 . S
H2467 C2476 0.930 . S
H2468 C2481 0.929 . S
H2469 C2479 0.929 . S
H2470 C2474 0.929 . S
H2471 C2480 0.929 . S
C2472 H2466 0.930 . S
C2472 C2473 1.367 . S
C2472 C2480 1.378 . S
C2473 C2472 1.367 . S
C2473 C2481 1.433 . S
C2474 H2470 0.929 . S
C2474 C2476 1.378 . S
C2474 C2478 1.350 . S
C2475 C2478 1.463 . S
C2475 C2480 1.350 . S
C2475 N2483 1.427 . S
C2476 H2467 0.930 . S
C2476 C2474 1.378 . S
C2476 C2477 1.367 . S
C2477 C2476 1.367 . S
C2477 C2479 1.433 . S
C2478 C2474 1.350 . S
C2478 C2475 1.463 . S
C2478 N2482 1.427 . S
C2479 H2469 0.929 . S
C2479 C2477 1.433 . S
C2479 N2482 1.384 . S
C2480 H2471 0.929 . S
C2480 C2472 1.378 . S
C2480 C2475 1.350 . S
C2481 H2468 0.929 . S
C2481 C2473 1.433 . S
C2481 N2483 1.384 . S
N2482 C2478 1.427 . S
N2482 C2479 1.384 . S
N2483 C2475 1.427 . S
N2483 C2481 1.384 . S
H2484 C2490 0.930 . S
H2485 C2494 0.930 . S
H2486 C2499 0.929 . S
H2487 C2497 0.929 . S
H2488 C2492 0.929 . S
H2489 C2498 0.929 . S
C2490 H2484 0.930 . S
C2490 C2491 1.367 . S
C2490 C2498 1.378 1_554 S
C2491 C2490 1.367 . S
C2491 C2499 1.433 . S
C2492 H2488 0.929 . S
C2492 C2494 1.378 . S
C2492 C2496 1.350 . S
C2493 C2496 1.463 . S
C2493 C2498 1.350 . S
C2493 N2501 1.427 1_556 S
C2494 H2485 0.930 . S
C2494 C2492 1.378 . S
C2494 C2495 1.367 . S
C2495 C2494 1.367 . S
C2495 C2497 1.433 . S
C2496 C2492 1.350 . S
C2496 C2493 1.463 . S
C2496 N2500 1.427 . S
C2497 H2487 0.929 . S
C2497 C2495 1.433 . S
C2497 N2500 1.384 . S
C2498 H2489 0.929 . S
C2498 C2490 1.378 1_556 S
C2498 C2493 1.350 . S
C2499 H2486 0.929 . S
C2499 C2491 1.433 . S
C2499 N2501 1.384 . S
N2500 C2496 1.427 . S
N2500 C2497 1.384 . S
N2501 C2493 1.427 1_554 S
N2501 C2499 1.384 . S
H2502 C2508 0.930 . S
H2503 C2512 0.930 . S
H2504 C2517 0.929 . S
H2505 C2515 0.929 . S
H2506 C2510 0.929 . S
H2507 C2516 0.929 . S
C2508 H2502 0.930 . S
C2508 C2509 1.367 . S
C2508 C2516 1.378 . S
C2509 C2508 1.367 . S
C2509 C2517 1.433 . S
C2510 H2506 0.929 . S
C2510 C2512 1.378 . S
C2510 C2514 1.350 . S
C2511 C2514 1.463 . S
C2511 C2516 1.350 . S
C2511 N2519 1.427 . S
C2512 H2503 0.930 . S
C2512 C2510 1.378 . S
C2512 C2513 1.367 . S
C2513 C2512 1.367 . S
C2513 C2515 1.433 . S
C2514 C2510 1.350 . S
C2514 C2511 1.463 . S
C2514 N2518 1.427 . S
C2515 H2505 0.929 . S
C2515 C2513 1.433 . S
C2515 N2518 1.384 . S
C2516 H2507 0.929 . S
C2516 C2508 1.378 . S
C2516 C2511 1.350 . S
C2517 H2504 0.929 . S
C2517 C2509 1.433 . S
C2517 N2519 1.384 . S
N2518 C2514 1.427 . S
N2518 C2515 1.384 . S
N2519 C2511 1.427 . S
N2519 C2517 1.384 . S
H2520 C2526 0.930 . S
H2521 C2530 0.930 . S
H2522 C2535 0.929 . S
H2523 C2533 0.929 . S
H2524 C2528 0.929 . S
H2525 C2534 0.929 1_554 S
C2526 H2520 0.930 . S
C2526 C2527 1.367 . S
C2526 C2534 1.378 . S
C2527 C2526 1.367 . S
C2527 C2535 1.433 . S
C2528 H2524 0.929 . S
C2528 C2530 1.378 . S
C2528 C2532 1.350 . S
C2529 C2532 1.463 1_556 S
C2529 C2534 1.350 . S
C2529 N2537 1.427 . S
C2530 H2521 0.930 . S
C2530 C2528 1.378 . S
C2530 C2531 1.367 . S
C2531 C2530 1.367 . S
C2531 C2533 1.433 . S
C2532 C2528 1.350 . S
C2532 C2529 1.463 1_554 S
C2532 N2536 1.427 . S
C2533 H2523 0.929 . S
C2533 C2531 1.433 . S
C2533 N2536 1.384 . S
C2534 H2525 0.929 1_556 S
C2534 C2526 1.378 . S
C2534 C2529 1.350 . S
C2535 H2522 0.929 . S
C2535 C2527 1.433 . S
C2535 N2537 1.384 . S
N2536 C2532 1.427 . S
N2536 C2533 1.384 . S
N2537 C2529 1.427 . S
N2537 C2535 1.384 . S
H2538 C2544 0.930 . S
H2539 C2548 0.930 . S
H2540 C2553 0.929 . S
H2541 C2551 0.929 . S
H2542 C2546 0.929 . S
H2543 C2552 0.929 . S
C2544 H2538 0.930 . S
C2544 C2545 1.367 . S
C2544 C2552 1.378 . S
C2545 C2544 1.367 . S
C2545 C2553 1.433 . S
C2546 H2542 0.929 . S
C2546 C2548 1.378 . S
C2546 C2550 1.350 . S
C2547 C2550 1.463 . S
C2547 C2552 1.350 . S
C2547 N2555 1.427 . S
C2548 H2539 0.930 . S
C2548 C2546 1.378 . S
C2548 C2549 1.367 . S
C2549 C2548 1.367 . S
C2549 C2551 1.433 . S
C2550 C2546 1.350 . S
C2550 C2547 1.463 . S
C2550 N2554 1.427 . S
C2551 H2541 0.929 . S
C2551 C2549 1.433 . S
C2551 N2554 1.384 . S
C2552 H2543 0.929 . S
C2552 C2544 1.378 . S
C2552 C2547 1.350 . S
C2553 H2540 0.929 . S
C2553 C2545 1.433 . S
C2553 N2555 1.384 . S
N2554 C2550 1.427 . S
N2554 C2551 1.384 . S
N2555 C2547 1.427 . S
N2555 C2553 1.384 . S
H2556 C2562 0.930 . S
H2557 C2566 0.930 . S
H2558 C2571 0.929 . S
H2559 C2569 0.929 . S
H2560 C2564 0.929 . S
H2561 C2570 0.929 . S
C2562 H2556 0.930 . S
C2562 C2563 1.367 . S
C2562 C2570 1.378 . S
C2563 C2562 1.367 . S
C2563 C2571 1.433 . S
C2564 H2560 0.929 . S
C2564 C2566 1.378 . S
C2564 C2568 1.350 . S
C2565 C2568 1.463 . S
C2565 C2570 1.350 . S
C2565 N2573 1.427 . S
C2566 H2557 0.930 . S
C2566 C2564 1.378 . S
C2566 C2567 1.367 . S
C2567 C2566 1.367 . S
C2567 C2569 1.433 . S
C2568 C2564 1.350 . S
C2568 C2565 1.463 . S
C2568 N2572 1.427 . S
C2569 H2559 0.929 . S
C2569 C2567 1.433 . S
C2569 N2572 1.384 . S
C2570 H2561 0.929 . S
C2570 C2562 1.378 . S
C2570 C2565 1.350 . S
C2571 H2558 0.929 . S
C2571 C2563 1.433 . S
C2571 N2573 1.384 . S
N2572 C2568 1.427 . S
N2572 C2569 1.384 . S
N2573 C2565 1.427 . S
N2573 C2571 1.384 . S
H2574 C2580 0.930 . S
H2575 C2584 0.930 . S
H2576 C2589 0.929 . S
H2577 C2587 0.929 . S
H2578 C2582 0.929 . S
H2579 C2588 0.929 . S
C2580 H2574 0.930 . S
C2580 C2581 1.367 . S
C2580 C2588 1.378 . S
C2581 C2580 1.367 . S
C2581 C2589 1.433 . S
C2582 H2578 0.929 . S
C2582 C2584 1.378 . S
C2582 C2586 1.350 . S
C2583 C2586 1.463 . S
C2583 C2588 1.350 . S
C2583 N2591 1.427 . S
C2584 H2575 0.930 . S
C2584 C2582 1.378 . S
C2584 C2585 1.367 . S
C2585 C2584 1.367 . S
C2585 C2587 1.433 . S
C2586 C2582 1.350 . S
C2586 C2583 1.463 . S
C2586 N2590 1.427 . S
C2587 H2577 0.929 . S
C2587 C2585 1.433 . S
C2587 N2590 1.384 . S
C2588 H2579 0.929 . S
C2588 C2580 1.378 . S
C2588 C2583 1.350 . S
C2589 H2576 0.929 . S
C2589 C2581 1.433 . S
C2589 N2591 1.384 . S
N2590 C2586 1.427 . S
N2590 C2587 1.384 . S
N2591 C2583 1.427 . S
N2591 C2589 1.384 . S
H2592 C2598 0.930 . S
H2593 C2602 0.930 . S
H2594 C2607 0.929 . S
H2595 C2605 0.929 . S
H2596 C2600 0.929 . S
H2597 C2606 0.929 . S
C2598 H2592 0.930 . S
C2598 C2599 1.367 . S
C2598 C2606 1.378 . S
C2599 C2598 1.367 . S
C2599 C2607 1.433 . S
C2600 H2596 0.929 . S
C2600 C2602 1.378 . S
C2600 C2604 1.350 . S
C2601 C2604 1.463 . S
C2601 C2606 1.350 . S
C2601 N2609 1.427 . S
C2602 H2593 0.930 . S
C2602 C2600 1.378 . S
C2602 C2603 1.367 . S
C2603 C2602 1.367 . S
C2603 C2605 1.433 . S
C2604 C2600 1.350 . S
C2604 C2601 1.463 . S
C2604 N2608 1.427 . S
C2605 H2595 0.929 . S
C2605 C2603 1.433 . S
C2605 N2608 1.384 . S
C2606 H2597 0.929 . S
C2606 C2598 1.378 . S
C2606 C2601 1.350 . S
C2607 H2594 0.929 . S
C2607 C2599 1.433 . S
C2607 N2609 1.384 . S
N2608 C2604 1.427 . S
N2608 C2605 1.384 . S
N2609 C2601 1.427 . S
N2609 C2607 1.384 . S
H2610 C2616 0.930 . S
H2611 C2620 0.930 . S
H2612 C2625 0.929 . S
H2613 C2623 0.929 . S
H2614 C2618 0.929 . S
H2615 C2624 0.929 . S
C2616 H2610 0.930 . S
C2616 C2617 1.367 . S
C2616 C2624 1.378 . S
C2617 C2616 1.367 . S
C2617 C2625 1.433 . S
C2618 H2614 0.929 . S
C2618 C2620 1.378 . S
C2618 C2622 1.350 . S
C2619 C2622 1.463 . S
C2619 C2624 1.350 . S
C2619 N2627 1.427 . S
C2620 H2611 0.930 . S
C2620 C2618 1.378 . S
C2620 C2621 1.367 . S
C2621 C2620 1.367 . S
C2621 C2623 1.433 . S
C2622 C2618 1.350 . S
C2622 C2619 1.463 . S
C2622 N2626 1.427 . S
C2623 H2613 0.929 . S
C2623 C2621 1.433 . S
C2623 N2626 1.384 . S
C2624 H2615 0.929 . S
C2624 C2616 1.378 . S
C2624 C2619 1.350 . S
C2625 H2612 0.929 . S
C2625 C2617 1.433 . S
C2625 N2627 1.384 . S
N2626 C2622 1.427 . S
N2626 C2623 1.384 . S
N2627 C2619 1.427 . S
N2627 C2625 1.384 . S
H2628 C2634 0.930 . S
H2629 C2638 0.930 . S
H2630 C2643 0.929 . S
H2631 C2641 0.929 . S
H2632 C2636 0.929 . S
H2633 C2642 0.929 . S
C2634 H2628 0.930 . S
C2634 C2635 1.367 . S
C2634 C2642 1.378 . S
C2635 C2634 1.367 . S
C2635 C2643 1.433 . S
C2636 H2632 0.929 . S
C2636 C2638 1.378 . S
C2636 C2640 1.350 . S
C2637 C2640 1.463 1_655 S
C2637 C2642 1.350 . S
C2637 N2645 1.427 . S
C2638 H2629 0.930 . S
C2638 C2636 1.378 . S
C2638 C2639 1.367 . S
C2639 C2638 1.367 . S
C2639 C2641 1.433 . S
C2640 C2636 1.350 . S
C2640 C2637 1.463 1_455 S
C2640 N2644 1.427 . S
C2641 H2631 0.929 . S
C2641 C2639 1.433 . S
C2641 N2644 1.384 . S
C2642 H2633 0.929 . S
C2642 C2634 1.378 . S
C2642 C2637 1.350 . S
C2643 H2630 0.929 . S
C2643 C2635 1.433 . S
C2643 N2645 1.384 . S
N2644 C2640 1.427 . S
N2644 C2641 1.384 . S
N2645 C2637 1.427 . S
N2645 C2643 1.384 . S
H2646 C2652 0.930 . S
H2647 C2656 0.930 . S
H2648 C2661 0.929 . S
H2649 C2659 0.929 . S
H2650 C2654 0.929 . S
H2651 C2660 0.929 . S
C2652 H2646 0.930 . S
C2652 C2653 1.367 . S
C2652 C2660 1.378 . S
C2653 C2652 1.367 . S
C2653 C2661 1.433 . S
C2654 H2650 0.929 . S
C2654 C2656 1.378 . S
C2654 C2658 1.350 . S
C2655 C2658 1.463 . S
C2655 C2660 1.350 . S
C2655 N2663 1.427 . S
C2656 H2647 0.930 . S
C2656 C2654 1.378 . S
C2656 C2657 1.367 . S
C2657 C2656 1.367 . S
C2657 C2659 1.433 . S
C2658 C2654 1.350 . S
C2658 C2655 1.463 . S
C2658 N2662 1.427 . S
C2659 H2649 0.929 . S
C2659 C2657 1.433 . S
C2659 N2662 1.384 . S
C2660 H2651 0.929 . S
C2660 C2652 1.378 . S
C2660 C2655 1.350 . S
C2661 H2648 0.929 . S
C2661 C2653 1.433 . S
C2661 N2663 1.384 . S
N2662 C2658 1.427 . S
N2662 C2659 1.384 . S
N2663 C2655 1.427 . S
N2663 C2661 1.384 . S
H2664 C2670 0.930 . S
H2665 C2674 0.930 . S
H2666 C2679 0.929 . S
H2667 C2677 0.929 . S
H2668 C2672 0.929 . S
H2669 C2678 0.929 . S
C2670 H2664 0.930 . S
C2670 C2671 1.367 . S
C2670 C2678 1.378 . S
C2671 C2670 1.367 . S
C2671 C2679 1.433 . S
C2672 H2668 0.929 . S
C2672 C2674 1.378 . S
C2672 C2676 1.350 . S
C2673 C2676 1.463 . S
C2673 C2678 1.350 . S
C2673 N2681 1.427 . S
C2674 H2665 0.930 . S
C2674 C2672 1.378 . S
C2674 C2675 1.367 . S
C2675 C2674 1.367 . S
C2675 C2677 1.433 . S
C2676 C2672 1.350 . S
C2676 C2673 1.463 . S
C2676 N2680 1.427 . S
C2677 H2667 0.929 . S
C2677 C2675 1.433 . S
C2677 N2680 1.384 . S
C2678 H2669 0.929 . S
C2678 C2670 1.378 . S
C2678 C2673 1.350 . S
C2679 H2666 0.929 . S
C2679 C2671 1.433 . S
C2679 N2681 1.384 . S
N2680 C2676 1.427 . S
N2680 C2677 1.384 . S
N2681 C2673 1.427 . S
N2681 C2679 1.384 . S
H2682 C2688 0.930 . S
H2683 C2692 0.930 . S
H2684 C2697 0.929 . S
H2685 C2695 0.929 . S
H2686 C2690 0.929 . S
H2687 C2696 0.929 . S
C2688 H2682 0.930 . S
C2688 C2689 1.367 . S
C2688 C2696 1.378 . S
C2689 C2688 1.367 . S
C2689 C2697 1.433 . S
C2690 H2686 0.929 . S
C2690 C2692 1.378 . S
C2690 C2694 1.350 . S
C2691 C2694 1.463 . S
C2691 C2696 1.350 . S
C2691 N2699 1.427 . S
C2692 H2683 0.930 . S
C2692 C2690 1.378 . S
C2692 C2693 1.367 . S
C2693 C2692 1.367 . S
C2693 C2695 1.433 . S
C2694 C2690 1.350 . S
C2694 C2691 1.463 . S
C2694 N2698 1.427 . S
C2695 H2685 0.929 . S
C2695 C2693 1.433 . S
C2695 N2698 1.384 . S
C2696 H2687 0.929 . S
C2696 C2688 1.378 . S
C2696 C2691 1.350 . S
C2697 H2684 0.929 . S
C2697 C2689 1.433 . S
C2697 N2699 1.384 . S
N2698 C2694 1.427 . S
N2698 C2695 1.384 . S
N2699 C2691 1.427 . S
N2699 C2697 1.384 . S
H2700 C2706 0.930 . S
H2701 C2710 0.930 . S
H2702 C2715 0.929 . S
H2703 C2713 0.929 . S
H2704 C2708 0.929 . S
H2705 C2714 0.929 . S
C2706 H2700 0.930 . S
C2706 C2707 1.367 . S
C2706 C2714 1.378 . S
C2707 C2706 1.367 . S
C2707 C2715 1.433 . S
C2708 H2704 0.929 . S
C2708 C2710 1.378 . S
C2708 C2712 1.350 . S
C2709 C2712 1.463 . S
C2709 C2714 1.350 1_655 S
C2709 N2717 1.427 1_655 S
C2710 H2701 0.930 . S
C2710 C2708 1.378 . S
C2710 C2711 1.367 . S
C2711 C2710 1.367 . S
C2711 C2713 1.433 . S
C2712 C2708 1.350 . S
C2712 C2709 1.463 . S
C2712 N2716 1.427 . S
C2713 H2703 0.929 . S
C2713 C2711 1.433 . S
C2713 N2716 1.384 . S
C2714 H2705 0.929 . S
C2714 C2706 1.378 . S
C2714 C2709 1.350 1_455 S
C2715 H2702 0.929 . S
C2715 C2707 1.433 . S
C2715 N2717 1.384 . S
N2716 C2712 1.427 . S
N2716 C2713 1.384 . S
N2717 C2709 1.427 1_455 S
N2717 C2715 1.384 . S
H2718 C2724 0.930 . S
H2719 C2728 0.930 . S
H2720 C2733 0.929 . S
H2721 C2731 0.929 . S
H2722 C2726 0.929 . S
H2723 C2732 0.929 . S
C2724 H2718 0.930 . S
C2724 C2725 1.367 . S
C2724 C2732 1.378 . S
C2725 C2724 1.367 . S
C2725 C2733 1.433 . S
C2726 H2722 0.929 . S
C2726 C2728 1.378 . S
C2726 C2730 1.350 . S
C2727 C2730 1.463 . S
C2727 C2732 1.350 . S
C2727 N2735 1.427 . S
C2728 H2719 0.930 . S
C2728 C2726 1.378 . S
C2728 C2729 1.367 . S
C2729 C2728 1.367 . S
C2729 C2731 1.433 . S
C2730 C2726 1.350 . S
C2730 C2727 1.463 . S
C2730 N2734 1.427 . S
C2731 H2721 0.929 . S
C2731 C2729 1.433 . S
C2731 N2734 1.384 . S
C2732 H2723 0.929 . S
C2732 C2724 1.378 . S
C2732 C2727 1.350 . S
C2733 H2720 0.929 . S
C2733 C2725 1.433 . S
C2733 N2735 1.384 . S
N2734 C2730 1.427 . S
N2734 C2731 1.384 . S
N2735 C2727 1.427 . S
N2735 C2733 1.384 . S
H2736 C2742 0.930 . S
H2737 C2746 0.930 . S
H2738 C2751 0.929 . S
H2739 C2749 0.929 . S
H2740 C2744 0.929 . S
H2741 C2750 0.929 . S
C2742 H2736 0.930 . S
C2742 C2743 1.367 . S
C2742 C2750 1.378 . S
C2743 C2742 1.367 . S
C2743 C2751 1.433 . S
C2744 H2740 0.929 . S
C2744 C2746 1.378 . S
C2744 C2748 1.350 . S
C2745 C2748 1.463 . S
C2745 C2750 1.350 . S
C2745 N2753 1.427 . S
C2746 H2737 0.930 . S
C2746 C2744 1.378 . S
C2746 C2747 1.367 . S
C2747 C2746 1.367 . S
C2747 C2749 1.433 . S
C2748 C2744 1.350 . S
C2748 C2745 1.463 . S
C2748 N2752 1.427 . S
C2749 H2739 0.929 . S
C2749 C2747 1.433 . S
C2749 N2752 1.384 . S
C2750 H2741 0.929 . S
C2750 C2742 1.378 . S
C2750 C2745 1.350 . S
C2751 H2738 0.929 . S
C2751 C2743 1.433 . S
C2751 N2753 1.384 . S
N2752 C2748 1.427 . S
N2752 C2749 1.384 . S
N2753 C2745 1.427 . S
N2753 C2751 1.384 . S
H2754 C2760 0.930 . S
H2755 C2764 0.930 . S
H2756 C2769 0.929 . S
H2757 C2767 0.929 . S
H2758 C2762 0.929 . S
H2759 C2768 0.929 . S
C2760 H2754 0.930 . S
C2760 C2761 1.367 . S
C2760 C2768 1.378 1_565 S
C2761 C2760 1.367 . S
C2761 C2769 1.433 . S
C2762 H2758 0.929 . S
C2762 C2764 1.378 . S
C2762 C2766 1.350 . S
C2763 C2766 1.463 . S
C2763 C2768 1.350 . S
C2763 N2771 1.427 . S
C2764 H2755 0.930 . S
C2764 C2762 1.378 . S
C2764 C2765 1.367 . S
C2765 C2764 1.367 . S
C2765 C2767 1.433 . S
C2766 C2762 1.350 . S
C2766 C2763 1.463 . S
C2766 N2770 1.427 . S
C2767 H2757 0.929 . S
C2767 C2765 1.433 . S
C2767 N2770 1.384 . S
C2768 H2759 0.929 . S
C2768 C2760 1.378 1_545 S
C2768 C2763 1.350 . S
C2769 H2756 0.929 . S
C2769 C2761 1.433 . S
C2769 N2771 1.384 1_565 S
N2770 C2766 1.427 . S
N2770 C2767 1.384 . S
N2771 C2763 1.427 . S
N2771 C2769 1.384 1_545 S
H2772 C2778 0.930 . S
H2773 C2782 0.930 . S
H2774 C2787 0.929 . S
H2775 C2785 0.929 . S
H2776 C2780 0.929 . S
H2777 C2786 0.929 . S
C2778 H2772 0.930 . S
C2778 C2779 1.367 . S
C2778 C2786 1.378 . S
C2779 C2778 1.367 . S
C2779 C2787 1.433 . S
C2780 H2776 0.929 . S
C2780 C2782 1.378 . S
C2780 C2784 1.350 . S
C2781 C2784 1.463 . S
C2781 C2786 1.350 . S
C2781 N2789 1.427 . S
C2782 H2773 0.930 . S
C2782 C2780 1.378 . S
C2782 C2783 1.367 . S
C2783 C2782 1.367 . S
C2783 C2785 1.433 . S
C2784 C2780 1.350 . S
C2784 C2781 1.463 . S
C2784 N2788 1.427 . S
C2785 H2775 0.929 . S
C2785 C2783 1.433 . S
C2785 N2788 1.384 . S
C2786 H2777 0.929 . S
C2786 C2778 1.378 . S
C2786 C2781 1.350 . S
C2787 H2774 0.929 . S
C2787 C2779 1.433 . S
C2787 N2789 1.384 . S
N2788 C2784 1.427 . S
N2788 C2785 1.384 . S
N2789 C2781 1.427 . S
N2789 C2787 1.384 . S
H2790 C2796 0.930 . S
H2791 C2800 0.930 . S
H2792 C2805 0.929 . S
H2793 C2803 0.929 . S
H2794 C2798 0.929 . S
H2795 C2804 0.901 1_545 S
C2796 H2790 0.930 . S
C2796 C2797 1.367 . S
C2796 C2804 1.407 . S
C2797 C2796 1.367 . S
C2797 C2805 1.433 . S
C2798 H2794 0.929 . S
C2798 C2800 1.378 . S
C2798 C2802 1.350 . S
C2799 C2802 1.463 . S
C2799 C2804 1.350 1_545 S
C2799 N2807 1.427 1_545 S
C2800 H2791 0.930 . S
C2800 C2798 1.378 . S
C2800 C2801 1.367 . S
C2801 C2800 1.367 . S
C2801 C2803 1.433 . S
C2802 C2798 1.350 . S
C2802 C2799 1.463 . S
C2802 N2806 1.427 . S
C2803 H2793 0.929 . S
C2803 C2801 1.433 . S
C2803 N2806 1.384 . S
C2804 H2795 0.901 1_565 S
C2804 C2796 1.407 . S
C2804 C2799 1.350 1_565 S
C2805 H2792 0.929 . S
C2805 C2797 1.433 . S
C2805 N2807 1.384 . S
N2806 C2802 1.427 . S
N2806 C2803 1.384 . S
N2807 C2799 1.427 1_565 S
N2807 C2805 1.384 . S
H2808 C2814 0.930 . S
H2809 C2818 0.930 . S
H2810 C2823 0.929 . S
H2811 C2821 0.929 . S
H2812 C2816 0.929 . S
H2813 C2822 0.929 . S
C2814 H2808 0.930 . S
C2814 C2815 1.367 . S
C2814 C2822 1.378 . S
C2815 C2814 1.367 . S
C2815 C2823 1.433 . S
C2816 H2812 0.929 . S
C2816 C2818 1.378 . S
C2816 C2820 1.350 . S
C2817 C2820 1.463 . S
C2817 C2822 1.350 . S
C2817 N2825 1.427 . S
C2818 H2809 0.930 . S
C2818 C2816 1.378 . S
C2818 C2819 1.367 . S
C2819 C2818 1.367 . S
C2819 C2821 1.433 . S
C2820 C2816 1.350 . S
C2820 C2817 1.463 . S
C2820 N2824 1.427 . S
C2821 H2811 0.929 . S
C2821 C2819 1.433 . S
C2821 N2824 1.384 . S
C2822 H2813 0.929 . S
C2822 C2814 1.378 . S
C2822 C2817 1.350 . S
C2823 H2810 0.929 . S
C2823 C2815 1.433 . S
C2823 N2825 1.384 . S
N2824 C2820 1.427 . S
N2824 C2821 1.384 . S
N2825 C2817 1.427 . S
N2825 C2823 1.384 . S
H2826 C2832 0.930 . S
H2827 C2836 0.930 . S
H2828 C2841 0.929 . S
H2829 C2839 0.929 . S
H2830 C2834 0.929 . S
H2831 C2840 0.929 . S
C2832 H2826 0.930 . S
C2832 C2833 1.367 . S
C2832 C2840 1.378 . S
C2833 C2832 1.367 . S
C2833 C2841 1.433 . S
C2834 H2830 0.929 . S
C2834 C2836 1.378 . S
C2834 C2838 1.350 . S
C2835 C2838 1.463 . S
C2835 C2840 1.350 . S
C2835 N2843 1.427 . S
C2836 H2827 0.930 . S
C2836 C2834 1.378 . S
C2836 C2837 1.367 . S
C2837 C2836 1.367 . S
C2837 C2839 1.433 . S
C2838 C2834 1.350 . S
C2838 C2835 1.463 . S
C2838 N2842 1.427 . S
C2839 H2829 0.929 . S
C2839 C2837 1.433 . S
C2839 N2842 1.384 . S
C2840 H2831 0.929 . S
C2840 C2832 1.378 . S
C2840 C2835 1.350 . S
C2841 H2828 0.929 . S
C2841 C2833 1.433 . S
C2841 N2843 1.384 . S
N2842 C2838 1.427 . S
N2842 C2839 1.384 . S
N2843 C2835 1.427 . S
N2843 C2841 1.384 . S
H2844 C2850 0.930 . S
H2845 C2854 0.930 . S
H2846 C2859 0.929 . S
H2847 C2857 0.929 . S
H2848 C2852 0.929 . S
H2849 C2858 0.929 . S
C2850 H2844 0.930 . S
C2850 C2851 1.367 . S
C2850 C2858 1.378 . S
C2851 C2850 1.367 . S
C2851 C2859 1.433 . S
C2852 H2848 0.929 . S
C2852 C2854 1.378 . S
C2852 C2856 1.350 . S
C2853 C2856 1.463 . S
C2853 C2858 1.350 . S
C2853 N2861 1.427 . S
C2854 H2845 0.930 . S
C2854 C2852 1.378 . S
C2854 C2855 1.367 . S
C2855 C2854 1.367 . S
C2855 C2857 1.433 . S
C2856 C2852 1.350 . S
C2856 C2853 1.463 . S
C2856 N2860 1.427 . S
C2857 H2847 0.929 . S
C2857 C2855 1.433 . S
C2857 N2860 1.384 . S
C2858 H2849 0.929 . S
C2858 C2850 1.378 . S
C2858 C2853 1.350 . S
C2859 H2846 0.929 . S
C2859 C2851 1.433 . S
C2859 N2861 1.384 . S
N2860 C2856 1.427 . S
N2860 C2857 1.384 . S
N2861 C2853 1.427 . S
N2861 C2859 1.384 . S
H2862 C2868 0.930 . S
H2863 C2872 0.930 . S
H2864 C2877 0.929 . S
H2865 C2875 0.929 . S
H2866 C2870 0.929 . S
H2867 C2876 0.929 . S
C2868 H2862 0.930 . S
C2868 C2869 1.367 . S
C2868 C2876 1.378 . S
C2869 C2868 1.367 . S
C2869 C2877 1.433 . S
C2870 H2866 0.929 . S
C2870 C2872 1.378 . S
C2870 C2874 1.350 . S
C2871 C2874 1.463 . S
C2871 C2876 1.350 . S
C2871 N2879 1.427 . S
C2872 H2863 0.930 . S
C2872 C2870 1.378 . S
C2872 C2873 1.367 . S
C2873 C2872 1.367 . S
C2873 C2875 1.433 . S
C2874 C2870 1.350 . S
C2874 C2871 1.463 . S
C2874 N2878 1.427 . S
C2875 H2865 0.929 . S
C2875 C2873 1.433 . S
C2875 N2878 1.384 . S
C2876 H2867 0.929 . S
C2876 C2868 1.378 . S
C2876 C2871 1.350 . S
C2877 H2864 0.929 . S
C2877 C2869 1.433 . S
C2877 N2879 1.384 . S
N2878 C2874 1.427 . S
N2878 C2875 1.384 . S
N2879 C2871 1.427 . S
N2879 C2877 1.384 . S
H2880 C2886 0.930 . S
H2881 C2890 0.930 . S
H2882 C2895 0.929 . S
H2883 C2893 0.929 . S
H2884 C2888 0.929 . S
H2885 C2894 0.929 . S
C2886 H2880 0.930 . S
C2886 C2887 1.367 . S
C2886 C2894 1.378 . S
C2887 C2886 1.367 . S
C2887 C2895 1.433 . S
C2888 H2884 0.929 . S
C2888 C2890 1.378 . S
C2888 C2892 1.350 . S
C2889 C2892 1.463 . S
C2889 C2894 1.350 . S
C2889 N2897 1.427 . S
C2890 H2881 0.930 . S
C2890 C2888 1.378 . S
C2890 C2891 1.367 . S
C2891 C2890 1.367 . S
C2891 C2893 1.433 . S
C2892 C2888 1.350 . S
C2892 C2889 1.463 . S
C2892 N2896 1.427 . S
C2893 H2883 0.929 . S
C2893 C2891 1.433 . S
C2893 N2896 1.384 . S
C2894 H2885 0.929 . S
C2894 C2886 1.378 . S
C2894 C2889 1.350 . S
C2895 H2882 0.929 . S
C2895 C2887 1.433 . S
C2895 N2897 1.384 . S
N2896 C2892 1.427 . S
N2896 C2893 1.384 . S
N2897 C2889 1.427 . S
N2897 C2895 1.384 . S
H2898 C2904 0.930 . S
H2899 C2908 0.930 . S
H2900 C2913 0.929 . S
H2901 C2911 0.929 . S
H2902 C2906 0.929 . S
H2903 C2912 0.929 . S
C2904 H2898 0.930 . S
C2904 C2905 1.367 . S
C2904 C2912 1.378 . S
C2905 C2904 1.367 . S
C2905 C2913 1.433 . S
C2906 H2902 0.929 . S
C2906 C2908 1.378 . S
C2906 C2910 1.350 . S
C2907 C2910 1.463 . S
C2907 C2912 1.350 . S
C2907 N2915 1.427 . S
C2908 H2899 0.930 . S
C2908 C2906 1.378 . S
C2908 C2909 1.367 . S
C2909 C2908 1.367 . S
C2909 C2911 1.433 . S
C2910 C2906 1.350 . S
C2910 C2907 1.463 . S
C2910 N2914 1.427 . S
C2911 H2901 0.929 . S
C2911 C2909 1.433 . S
C2911 N2914 1.384 . S
C2912 H2903 0.929 . S
C2912 C2904 1.378 . S
C2912 C2907 1.350 . S
C2913 H2900 0.929 . S
C2913 C2905 1.433 . S
C2913 N2915 1.384 . S
N2914 C2910 1.427 . S
N2914 C2911 1.384 . S
N2915 C2907 1.427 . S
N2915 C2913 1.384 . S
H2916 C2922 0.930 . S
H2917 C2926 0.930 . S
H2918 C2931 0.929 . S
H2919 C2929 0.929 . S
H2920 C2924 0.929 . S
H2921 C2930 0.929 . S
C2922 H2916 0.930 . S
C2922 C2923 1.367 . S
C2922 C2930 1.378 . S
C2923 C2922 1.367 . S
C2923 C2931 1.433 . S
C2924 H2920 0.929 . S
C2924 C2926 1.378 . S
C2924 C2928 1.350 1_556 S
C2925 C2928 1.463 . S
C2925 C2930 1.350 . S
C2925 N2933 1.427 . S
C2926 H2917 0.930 . S
C2926 C2924 1.378 . S
C2926 C2927 1.367 . S
C2927 C2926 1.367 . S
C2927 C2929 1.433 . S
C2928 C2924 1.350 1_554 S
C2928 C2925 1.463 . S
C2928 N2932 1.427 . S
C2929 H2919 0.929 . S
C2929 C2927 1.433 . S
C2929 N2932 1.384 1_556 S
C2930 H2921 0.929 . S
C2930 C2922 1.378 . S
C2930 C2925 1.350 . S
C2931 H2918 0.929 . S
C2931 C2923 1.433 . S
C2931 N2933 1.384 . S
N2932 C2928 1.427 . S
N2932 C2929 1.384 1_554 S
N2933 C2925 1.427 . S
N2933 C2931 1.384 . S
H2934 C2940 0.930 . S
H2935 C2944 0.930 . S
H2936 C2949 0.929 . S
H2937 C2947 0.929 . S
H2938 C2942 0.929 . S
H2939 C2948 0.929 . S
C2940 H2934 0.930 . S
C2940 C2941 1.367 . S
C2940 C2948 1.378 . S
C2941 C2940 1.367 . S
C2941 C2949 1.433 . S
C2942 H2938 0.929 . S
C2942 C2944 1.378 . S
C2942 C2946 1.350 . S
C2943 C2946 1.463 . S
C2943 C2948 1.350 . S
C2943 N2951 1.427 . S
C2944 H2935 0.930 . S
C2944 C2942 1.378 . S
C2944 C2945 1.367 . S
C2945 C2944 1.367 . S
C2945 C2947 1.433 . S
C2946 C2942 1.350 . S
C2946 C2943 1.463 . S
C2946 N2950 1.427 . S
C2947 H2937 0.929 . S
C2947 C2945 1.433 . S
C2947 N2950 1.384 . S
C2948 H2939 0.929 . S
C2948 C2940 1.378 . S
C2948 C2943 1.350 . S
C2949 H2936 0.929 . S
C2949 C2941 1.433 . S
C2949 N2951 1.384 . S
N2950 C2946 1.427 . S
N2950 C2947 1.384 . S
N2951 C2943 1.427 . S
N2951 C2949 1.384 . S
H2952 C2958 0.930 . S
H2953 C2962 0.930 . S
H2954 C2967 0.929 . S
H2955 C2965 0.929 . S
H2956 C2960 0.929 1_556 S
H2957 C2966 0.929 . S
C2958 H2952 0.930 . S
C2958 C2959 1.367 . S
C2958 C2966 1.378 . S
C2959 C2958 1.367 . S
C2959 C2967 1.433 . S
C2960 H2956 0.929 1_554 S
C2960 C2962 1.378 . S
C2960 C2964 1.350 . S
C2961 C2964 1.463 1_556 S
C2961 C2966 1.350 . S
C2961 N2969 1.427 . S
C2962 H2953 0.930 . S
C2962 C2960 1.378 . S
C2962 C2963 1.367 . S
C2963 C2962 1.367 . S
C2963 C2965 1.433 . S
C2964 C2960 1.350 . S
C2964 C2961 1.463 1_554 S
C2964 N2968 1.427 . S
C2965 H2955 0.929 . S
C2965 C2963 1.433 . S
C2965 N2968 1.384 . S
C2966 H2957 0.929 . S
C2966 C2958 1.378 . S
C2966 C2961 1.350 . S
C2967 H2954 0.929 . S
C2967 C2959 1.433 . S
C2967 N2969 1.384 . S
N2968 C2964 1.427 . S
N2968 C2965 1.384 . S
N2969 C2961 1.427 . S
N2969 C2967 1.384 . S
H2970 C2976 0.930 . S
H2971 C2980 0.930 . S
H2972 C2985 0.929 . S
H2973 C2983 0.929 . S
H2974 C2978 0.929 . S
H2975 C2984 0.929 . S
C2976 H2970 0.930 . S
C2976 C2977 1.367 . S
C2976 C2984 1.378 . S
C2977 C2976 1.367 . S
C2977 C2985 1.433 . S
C2978 H2974 0.929 . S
C2978 C2980 1.378 . S
C2978 C2982 1.350 . S
C2979 C2982 1.463 . S
C2979 C2984 1.350 . S
C2979 N2987 1.427 . S
C2980 H2971 0.930 . S
C2980 C2978 1.378 . S
C2980 C2981 1.367 . S
C2981 C2980 1.367 . S
C2981 C2983 1.433 . S
C2982 C2978 1.350 . S
C2982 C2979 1.463 . S
C2982 N2986 1.427 . S
C2983 H2973 0.929 . S
C2983 C2981 1.433 . S
C2983 N2986 1.384 . S
C2984 H2975 0.929 . S
C2984 C2976 1.378 . S
C2984 C2979 1.350 . S
C2985 H2972 0.929 . S
C2985 C2977 1.433 . S
C2985 N2987 1.384 . S
N2986 C2982 1.427 . S
N2986 C2983 1.384 . S
N2987 C2979 1.427 . S
N2987 C2985 1.384 . S
H2988 C2994 0.930 . S
H2989 C2998 0.930 . S
H2990 C3003 0.929 . S
H2991 C3001 0.929 . S
H2992 C2996 0.929 . S
H2993 C3002 0.929 . S
C2994 H2988 0.930 . S
C2994 C2995 1.367 . S
C2994 C3002 1.378 . S
C2995 C2994 1.367 . S
C2995 C3003 1.433 . S
C2996 H2992 0.929 . S
C2996 C2998 1.378 . S
C2996 C3000 1.350 . S
C2997 C3000 1.463 . S
C2997 C3002 1.350 . S
C2997 N3005 1.427 . S
C2998 H2989 0.930 . S
C2998 C2996 1.378 . S
C2998 C2999 1.367 . S
C2999 C2998 1.367 . S
C2999 C3001 1.433 . S
C3000 C2996 1.350 . S
C3000 C2997 1.463 . S
C3000 N3004 1.427 . S
C3001 H2991 0.929 . S
C3001 C2999 1.433 . S
C3001 N3004 1.384 . S
C3002 H2993 0.929 . S
C3002 C2994 1.378 . S
C3002 C2997 1.350 . S
C3003 H2990 0.929 . S
C3003 C2995 1.433 . S
C3003 N3005 1.384 . S
N3004 C3000 1.427 . S
N3004 C3001 1.384 . S
N3005 C2997 1.427 . S
N3005 C3003 1.384 . S
H3006 C3012 0.930 . S
H3007 C3016 0.930 . S
H3008 C3021 0.929 . S
H3009 C3019 0.929 . S
H3010 C3014 0.929 . S
H3011 C3020 0.929 . S
C3012 H3006 0.930 . S
C3012 C3013 1.367 . S
C3012 C3020 1.378 . S
C3013 C3012 1.367 . S
C3013 C3021 1.433 . S
C3014 H3010 0.929 . S
C3014 C3016 1.378 . S
C3014 C3018 1.350 . S
C3015 C3018 1.463 . S
C3015 C3020 1.350 . S
C3015 N3023 1.427 . S
C3016 H3007 0.930 . S
C3016 C3014 1.378 . S
C3016 C3017 1.367 . S
C3017 C3016 1.367 . S
C3017 C3019 1.433 . S
C3018 C3014 1.350 . S
C3018 C3015 1.463 . S
C3018 N3022 1.427 . S
C3019 H3009 0.929 . S
C3019 C3017 1.433 . S
C3019 N3022 1.384 . S
C3020 H3011 0.929 . S
C3020 C3012 1.378 . S
C3020 C3015 1.350 . S
C3021 H3008 0.929 . S
C3021 C3013 1.433 . S
C3021 N3023 1.384 . S
N3022 C3018 1.427 . S
N3022 C3019 1.384 . S
N3023 C3015 1.427 . S
N3023 C3021 1.384 . S
H3024 C3030 0.930 . S
H3025 C3034 0.930 . S
H3026 C3039 0.929 . S
H3027 C3037 0.929 . S
H3028 C3032 0.929 . S
H3029 C3038 0.929 . S
C3030 H3024 0.930 . S
C3030 C3031 1.367 . S
C3030 C3038 1.378 . S
C3031 C3030 1.367 . S
C3031 C3039 1.433 . S
C3032 H3028 0.929 . S
C3032 C3034 1.378 . S
C3032 C3036 1.350 . S
C3033 C3036 1.463 . S
C3033 C3038 1.350 . S
C3033 N3041 1.427 . S
C3034 H3025 0.930 . S
C3034 C3032 1.378 . S
C3034 C3035 1.367 . S
C3035 C3034 1.367 . S
C3035 C3037 1.433 . S
C3036 C3032 1.350 . S
C3036 C3033 1.463 . S
C3036 N3040 1.427 . S
C3037 H3027 0.929 . S
C3037 C3035 1.433 . S
C3037 N3040 1.384 . S
C3038 H3029 0.929 . S
C3038 C3030 1.378 . S
C3038 C3033 1.350 . S
C3039 H3026 0.929 . S
C3039 C3031 1.433 . S
C3039 N3041 1.384 . S
N3040 C3036 1.427 . S
N3040 C3037 1.384 . S
N3041 C3033 1.427 . S
N3041 C3039 1.384 . S
H3042 C3048 0.930 . S
H3043 C3052 0.930 . S
H3044 C3057 0.929 . S
H3045 C3055 0.929 . S
H3046 C3050 0.929 . S
H3047 C3056 0.929 . S
C3048 H3042 0.930 . S
C3048 C3049 1.367 . S
C3048 C3056 1.378 . S
C3049 C3048 1.367 . S
C3049 C3057 1.433 . S
C3050 H3046 0.929 . S
C3050 C3052 1.378 . S
C3050 C3054 1.350 . S
C3051 C3054 1.463 . S
C3051 C3056 1.350 . S
C3051 N3059 1.427 . S
C3052 H3043 0.930 . S
C3052 C3050 1.378 . S
C3052 C3053 1.367 . S
C3053 C3052 1.367 . S
C3053 C3055 1.433 . S
C3054 C3050 1.350 . S
C3054 C3051 1.463 . S
C3054 N3058 1.427 . S
C3055 H3045 0.929 . S
C3055 C3053 1.433 . S
C3055 N3058 1.384 . S
C3056 H3047 0.929 . S
C3056 C3048 1.378 . S
C3056 C3051 1.350 . S
C3057 H3044 0.929 . S
C3057 C3049 1.433 . S
C3057 N3059 1.384 . S
N3058 C3054 1.427 . S
N3058 C3055 1.384 . S
N3059 C3051 1.427 . S
N3059 C3057 1.384 . S
H3060 C3066 0.930 . S
H3061 C3070 0.930 . S
H3062 C3075 0.929 . S
H3063 C3073 0.929 . S
H3064 C3068 0.929 . S
H3065 C3074 0.929 . S
C3066 H3060 0.930 . S
C3066 C3067 1.367 . S
C3066 C3074 1.378 . S
C3067 C3066 1.367 . S
C3067 C3075 1.433 . S
C3068 H3064 0.929 . S
C3068 C3070 1.378 . S
C3068 C3072 1.350 . S
C3069 C3072 1.463 1_655 S
C3069 C3074 1.350 . S
C3069 N3077 1.427 . S
C3070 H3061 0.930 . S
C3070 C3068 1.378 . S
C3070 C3071 1.367 . S
C3071 C3070 1.367 . S
C3071 C3073 1.433 . S
C3072 C3068 1.350 . S
C3072 C3069 1.463 1_455 S
C3072 N3076 1.427 . S
C3073 H3063 0.929 . S
C3073 C3071 1.433 . S
C3073 N3076 1.384 . S
C3074 H3065 0.929 . S
C3074 C3066 1.378 . S
C3074 C3069 1.350 . S
C3075 H3062 0.929 . S
C3075 C3067 1.433 . S
C3075 N3077 1.384 . S
N3076 C3072 1.427 . S
N3076 C3073 1.384 . S
N3077 C3069 1.427 . S
N3077 C3075 1.384 . S
H3078 C3084 0.930 . S
H3079 C3088 0.930 . S
H3080 C3093 0.929 . S
H3081 C3091 0.929 . S
H3082 C3086 0.929 . S
H3083 C3092 0.929 . S
C3084 H3078 0.930 . S
C3084 C3085 1.367 . S
C3084 C3092 1.378 . S
C3085 C3084 1.367 . S
C3085 C3093 1.433 . S
C3086 H3082 0.929 . S
C3086 C3088 1.378 . S
C3086 C3090 1.350 . S
C3087 C3090 1.463 . S
C3087 C3092 1.350 . S
C3087 N3095 1.427 . S
C3088 H3079 0.930 . S
C3088 C3086 1.378 . S
C3088 C3089 1.367 . S
C3089 C3088 1.367 . S
C3089 C3091 1.433 . S
C3090 C3086 1.350 . S
C3090 C3087 1.463 . S
C3090 N3094 1.427 . S
C3091 H3081 0.929 . S
C3091 C3089 1.433 . S
C3091 N3094 1.384 . S
C3092 H3083 0.929 . S
C3092 C3084 1.378 . S
C3092 C3087 1.350 . S
C3093 H3080 0.929 . S
C3093 C3085 1.433 . S
C3093 N3095 1.384 . S
N3094 C3090 1.427 . S
N3094 C3091 1.384 . S
N3095 C3087 1.427 . S
N3095 C3093 1.384 . S
H3096 C3102 0.930 . S
H3097 C3106 0.930 . S
H3098 C3111 0.929 . S
H3099 C3109 0.929 . S
H3100 C3104 0.929 . S
H3101 C3110 0.929 . S
C3102 H3096 0.930 . S
C3102 C3103 1.367 . S
C3102 C3110 1.378 . S
C3103 C3102 1.367 . S
C3103 C3111 1.433 . S
C3104 H3100 0.929 . S
C3104 C3106 1.378 . S
C3104 C3108 1.350 . S
C3105 C3108 1.463 . S
C3105 C3110 1.350 . S
C3105 N3113 1.427 . S
C3106 H3097 0.930 . S
C3106 C3104 1.378 . S
C3106 C3107 1.367 . S
C3107 C3106 1.367 . S
C3107 C3109 1.433 . S
C3108 C3104 1.350 . S
C3108 C3105 1.463 . S
C3108 N3112 1.427 . S
C3109 H3099 0.929 . S
C3109 C3107 1.433 . S
C3109 N3112 1.384 . S
C3110 H3101 0.929 . S
C3110 C3102 1.378 . S
C3110 C3105 1.350 . S
C3111 H3098 0.929 . S
C3111 C3103 1.433 . S
C3111 N3113 1.384 . S
N3112 C3108 1.427 . S
N3112 C3109 1.384 . S
N3113 C3105 1.427 . S
N3113 C3111 1.384 . S
H3114 C3120 0.930 . S
H3115 C3124 0.930 . S
H3116 C3129 0.929 . S
H3117 C3127 0.929 . S
H3118 C3122 0.929 . S
H3119 C3128 0.929 . S
C3120 H3114 0.930 . S
C3120 C3121 1.367 . S
C3120 C3128 1.378 . S
C3121 C3120 1.367 . S
C3121 C3129 1.433 . S
C3122 H3118 0.929 . S
C3122 C3124 1.378 . S
C3122 C3126 1.350 . S
C3123 C3126 1.463 . S
C3123 C3128 1.350 . S
C3123 N3131 1.427 . S
C3124 H3115 0.930 . S
C3124 C3122 1.378 . S
C3124 C3125 1.367 . S
C3125 C3124 1.367 . S
C3125 C3127 1.433 . S
C3126 C3122 1.350 . S
C3126 C3123 1.463 . S
C3126 N3130 1.427 . S
C3127 H3117 0.929 . S
C3127 C3125 1.433 . S
C3127 N3130 1.384 . S
C3128 H3119 0.929 . S
C3128 C3120 1.378 . S
C3128 C3123 1.350 . S
C3129 H3116 0.929 . S
C3129 C3121 1.433 . S
C3129 N3131 1.384 . S
N3130 C3126 1.427 . S
N3130 C3127 1.384 . S
N3131 C3123 1.427 . S
N3131 C3129 1.384 . S
H3132 C3138 0.930 . S
H3133 C3142 0.930 . S
H3134 C3147 0.929 . S
H3135 C3145 0.929 . S
H3136 C3140 0.929 . S
H3137 C3146 0.929 . S
C3138 H3132 0.930 . S
C3138 C3139 1.367 . S
C3138 C3146 1.378 . S
C3139 C3138 1.367 . S
C3139 C3147 1.433 . S
C3140 H3136 0.929 . S
C3140 C3142 1.378 . S
C3140 C3144 1.350 1_655 S
C3141 C3144 1.463 . S
C3141 C3146 1.350 . S
C3141 N3149 1.427 . S
C3142 H3133 0.930 . S
C3142 C3140 1.378 . S
C3142 C3143 1.367 . S
C3143 C3142 1.367 . S
C3143 C3145 1.433 . S
C3144 C3140 1.350 1_455 S
C3144 C3141 1.463 . S
C3144 N3148 1.427 . S
C3145 H3135 0.929 . S
C3145 C3143 1.433 . S
C3145 N3148 1.384 1_655 S
C3146 H3137 0.929 . S
C3146 C3138 1.378 . S
C3146 C3141 1.350 . S
C3147 H3134 0.929 . S
C3147 C3139 1.433 . S
C3147 N3149 1.384 . S
N3148 C3144 1.427 . S
N3148 C3145 1.384 1_455 S
N3149 C3141 1.427 . S
N3149 C3147 1.384 . S
H3150 C3156 0.930 . S
H3151 C3160 0.930 . S
H3152 C3165 0.929 . S
H3153 C3163 0.929 . S
H3154 C3158 0.929 . S
H3155 C3164 0.929 . S
C3156 H3150 0.930 . S
C3156 C3157 1.367 . S
C3156 C3164 1.378 . S
C3157 C3156 1.367 . S
C3157 C3165 1.433 . S
C3158 H3154 0.929 . S
C3158 C3160 1.378 . S
C3158 C3162 1.350 . S
C3159 C3162 1.463 . S
C3159 C3164 1.350 . S
C3159 N3167 1.427 . S
C3160 H3151 0.930 . S
C3160 C3158 1.378 . S
C3160 C3161 1.367 . S
C3161 C3160 1.367 . S
C3161 C3163 1.433 . S
C3162 C3158 1.350 . S
C3162 C3159 1.463 . S
C3162 N3166 1.427 . S
C3163 H3153 0.929 . S
C3163 C3161 1.433 . S
C3163 N3166 1.384 . S
C3164 H3155 0.929 . S
C3164 C3156 1.378 . S
C3164 C3159 1.350 . S
C3165 H3152 0.929 . S
C3165 C3157 1.433 . S
C3165 N3167 1.384 . S
N3166 C3162 1.427 . S
N3166 C3163 1.384 . S
N3167 C3159 1.427 . S
N3167 C3165 1.384 . S
H3168 C3174 0.930 . S
H3169 C3178 0.930 . S
H3170 C3183 0.929 . S
H3171 C3181 0.929 . S
H3172 C3176 0.929 . S
H3173 C3182 0.929 . S
C3174 H3168 0.930 . S
C3174 C3175 1.367 . S
C3174 C3182 1.378 . S
C3175 C3174 1.367 . S
C3175 C3183 1.433 . S
C3176 H3172 0.929 . S
C3176 C3178 1.378 . S
C3176 C3180 1.350 . S
C3177 C3180 1.463 . S
C3177 C3182 1.350 . S
C3177 N3185 1.427 . S
C3178 H3169 0.930 . S
C3178 C3176 1.378 . S
C3178 C3179 1.367 . S
C3179 C3178 1.367 . S
C3179 C3181 1.433 . S
C3180 C3176 1.350 . S
C3180 C3177 1.463 . S
C3180 N3184 1.427 . S
C3181 H3171 0.929 . S
C3181 C3179 1.433 . S
C3181 N3184 1.384 . S
C3182 H3173 0.929 . S
C3182 C3174 1.378 . S
C3182 C3177 1.350 . S
C3183 H3170 0.929 . S
C3183 C3175 1.433 . S
C3183 N3185 1.384 . S
N3184 C3180 1.427 . S
N3184 C3181 1.384 . S
N3185 C3177 1.427 . S
N3185 C3183 1.384 . S
H3186 C3192 0.930 . S
H3187 C3196 0.930 . S
H3188 C3201 0.929 . S
H3189 C3199 0.929 . S
H3190 C3194 0.929 1_565 S
H3191 C3200 0.929 . S
C3192 H3186 0.930 . S
C3192 C3193 1.367 . S
C3192 C3200 1.378 . S
C3193 C3192 1.367 . S
C3193 C3201 1.433 . S
C3194 H3190 0.929 1_545 S
C3194 C3196 1.378 . S
C3194 C3198 1.350 1_545 S
C3195 C3198 1.463 . S
C3195 C3200 1.350 . S
C3195 N3203 1.427 . S
C3196 H3187 0.930 . S
C3196 C3194 1.378 . S
C3196 C3197 1.367 . S
C3197 C3196 1.367 . S
C3197 C3199 1.433 . S
C3198 C3194 1.350 1_565 S
C3198 C3195 1.463 . S
C3198 N3202 1.427 1_565 S
C3199 H3189 0.929 . S
C3199 C3197 1.433 . S
C3199 N3202 1.384 . S
C3200 H3191 0.929 . S
C3200 C3192 1.378 . S
C3200 C3195 1.350 . S
C3201 H3188 0.929 . S
C3201 C3193 1.433 . S
C3201 N3203 1.384 . S
N3202 C3198 1.427 1_545 S
N3202 C3199 1.384 . S
N3203 C3195 1.427 . S
N3203 C3201 1.384 . S
H3204 C3210 0.930 . S
H3205 C3214 0.930 . S
H3206 C3219 0.929 . S
H3207 C3217 0.929 . S
H3208 C3212 0.929 . S
H3209 C3218 0.929 . S
C3210 H3204 0.930 . S
C3210 C3211 1.367 . S
C3210 C3218 1.378 . S
C3211 C3210 1.367 . S
C3211 C3219 1.433 . S
C3212 H3208 0.929 . S
C3212 C3214 1.378 . S
C3212 C3216 1.350 . S
C3213 C3216 1.463 . S
C3213 C3218 1.350 . S
C3213 N3221 1.427 . S
C3214 H3205 0.930 . S
C3214 C3212 1.378 . S
C3214 C3215 1.367 . S
C3215 C3214 1.367 . S
C3215 C3217 1.433 . S
C3216 C3212 1.350 . S
C3216 C3213 1.463 . S
C3216 N3220 1.427 . S
C3217 H3207 0.929 . S
C3217 C3215 1.433 . S
C3217 N3220 1.384 . S
C3218 H3209 0.929 . S
C3218 C3210 1.378 . S
C3218 C3213 1.350 . S
C3219 H3206 0.929 . S
C3219 C3211 1.433 . S
C3219 N3221 1.384 . S
N3220 C3216 1.427 . S
N3220 C3217 1.384 . S
N3221 C3213 1.427 . S
N3221 C3219 1.384 . S
H3222 C3228 0.930 . S
H3223 C3232 0.930 . S
H3224 C3237 0.929 . S
H3225 C3235 0.929 . S
H3226 C3230 0.929 . S
H3227 C3236 0.929 . S
C3228 H3222 0.930 . S
C3228 C3229 1.367 . S
C3228 C3236 1.378 . S
C3229 C3228 1.367 . S
C3229 C3237 1.433 . S
C3230 H3226 0.929 . S
C3230 C3232 1.378 . S
C3230 C3234 1.350 . S
C3231 C3234 1.463 1_565 S
C3231 C3236 1.350 . S
C3231 N3239 1.427 . S
C3232 H3223 0.930 . S
C3232 C3230 1.378 . S
C3232 C3233 1.367 . S
C3233 C3232 1.367 . S
C3233 C3235 1.433 . S
C3234 C3230 1.350 . S
C3234 C3231 1.463 1_545 S
C3234 N3238 1.427 . S
C3235 H3225 0.929 . S
C3235 C3233 1.433 . S
C3235 N3238 1.384 . S
C3236 H3227 0.929 . S
C3236 C3228 1.378 . S
C3236 C3231 1.350 . S
C3237 H3224 0.929 . S
C3237 C3229 1.433 . S
C3237 N3239 1.384 . S
N3238 C3234 1.427 . S
N3238 C3235 1.384 . S
N3239 C3231 1.427 . S
N3239 C3237 1.384 . S
H3240 C3246 0.930 . S
H3241 C3250 0.930 . S
H3242 C3255 0.929 . S
H3243 C3253 0.929 . S
H3244 C3248 0.929 . S
H3245 C3254 0.929 . S
C3246 H3240 0.930 . S
C3246 C3247 1.367 . S
C3246 C3254 1.378 . S
C3247 C3246 1.367 . S
C3247 C3255 1.433 . S
C3248 H3244 0.929 . S
C3248 C3250 1.378 . S
C3248 C3252 1.350 . S
C3249 C3252 1.463 . S
C3249 C3254 1.350 . S
C3249 N3257 1.427 . S
C3250 H3241 0.930 . S
C3250 C3248 1.378 . S
C3250 C3251 1.367 . S
C3251 C3250 1.367 . S
C3251 C3253 1.433 . S
C3252 C3248 1.350 . S
C3252 C3249 1.463 . S
C3252 N3256 1.427 . S
C3253 H3243 0.929 . S
C3253 C3251 1.433 . S
C3253 N3256 1.384 . S
C3254 H3245 0.929 . S
C3254 C3246 1.378 . S
C3254 C3249 1.350 . S
C3255 H3242 0.929 . S
C3255 C3247 1.433 . S
C3255 N3257 1.384 . S
N3256 C3252 1.427 . S
N3256 C3253 1.384 . S
N3257 C3249 1.427 . S
N3257 C3255 1.384 . S
H3258 C3264 0.930 . S
H3259 C3268 0.930 . S
H3260 C3273 0.929 . S
H3261 C3271 0.929 . S
H3262 C3266 0.929 . S
H3263 C3272 0.929 . S
C3264 H3258 0.930 . S
C3264 C3265 1.367 . S
C3264 C3272 1.378 . S
C3265 C3264 1.367 . S
C3265 C3273 1.433 . S
C3266 H3262 0.929 . S
C3266 C3268 1.378 . S
C3266 C3270 1.350 . S
C3267 C3270 1.463 . S
C3267 C3272 1.350 . S
C3267 N3275 1.427 . S
C3268 H3259 0.930 . S
C3268 C3266 1.378 . S
C3268 C3269 1.367 . S
C3269 C3268 1.367 . S
C3269 C3271 1.433 . S
C3270 C3266 1.350 . S
C3270 C3267 1.463 . S
C3270 N3274 1.427 . S
C3271 H3261 0.929 . S
C3271 C3269 1.433 . S
C3271 N3274 1.384 . S
C3272 H3263 0.929 . S
C3272 C3264 1.378 . S
C3272 C3267 1.350 . S
C3273 H3260 0.929 . S
C3273 C3265 1.433 . S
C3273 N3275 1.384 . S
N3274 C3270 1.427 . S
N3274 C3271 1.384 . S
N3275 C3267 1.427 . S
N3275 C3273 1.384 . S
H3276 C3282 0.930 . S
H3277 C3286 0.930 . S
H3278 C3291 0.929 . S
H3279 C3289 0.929 . S
H3280 C3284 0.929 . S
H3281 C3290 0.929 . S
C3282 H3276 0.930 . S
C3282 C3283 1.367 . S
C3282 C3290 1.378 . S
C3283 C3282 1.367 . S
C3283 C3291 1.433 . S
C3284 H3280 0.929 . S
C3284 C3286 1.378 . S
C3284 C3288 1.350 . S
C3285 C3288 1.463 . S
C3285 C3290 1.350 . S
C3285 N3293 1.427 . S
C3286 H3277 0.930 . S
C3286 C3284 1.378 . S
C3286 C3287 1.367 . S
C3287 C3286 1.367 . S
C3287 C3289 1.433 . S
C3288 C3284 1.350 . S
C3288 C3285 1.463 . S
C3288 N3292 1.427 . S
C3289 H3279 0.929 . S
C3289 C3287 1.433 . S
C3289 N3292 1.384 . S
C3290 H3281 0.929 . S
C3290 C3282 1.378 . S
C3290 C3285 1.350 . S
C3291 H3278 0.929 . S
C3291 C3283 1.433 . S
C3291 N3293 1.384 . S
N3292 C3288 1.427 . S
N3292 C3289 1.384 . S
N3293 C3285 1.427 . S
N3293 C3291 1.384 . S
H3294 C3300 0.930 . S
H3295 C3304 0.930 . S
H3296 C3309 0.929 . S
H3297 C3307 0.929 . S
H3298 C3302 0.929 . S
H3299 C3308 0.929 . S
C3300 H3294 0.930 . S
C3300 C3301 1.367 . S
C3300 C3308 1.378 . S
C3301 C3300 1.367 . S
C3301 C3309 1.433 . S
C3302 H3298 0.929 . S
C3302 C3304 1.378 . S
C3302 C3306 1.350 . S
C3303 C3306 1.463 . S
C3303 C3308 1.350 . S
C3303 N3311 1.427 . S
C3304 H3295 0.930 . S
C3304 C3302 1.378 . S
C3304 C3305 1.367 . S
C3305 C3304 1.367 . S
C3305 C3307 1.433 . S
C3306 C3302 1.350 . S
C3306 C3303 1.463 . S
C3306 N3310 1.427 . S
C3307 H3297 0.929 . S
C3307 C3305 1.433 . S
C3307 N3310 1.384 . S
C3308 H3299 0.929 . S
C3308 C3300 1.378 . S
C3308 C3303 1.350 . S
C3309 H3296 0.929 . S
C3309 C3301 1.433 . S
C3309 N3311 1.384 . S
N3310 C3306 1.427 . S
N3310 C3307 1.384 . S
N3311 C3303 1.427 . S
N3311 C3309 1.384 . S
H3312 C3318 0.930 . S
H3313 C3322 0.930 . S
H3314 C3327 0.929 . S
H3315 C3325 0.929 . S
H3316 C3320 0.929 . S
H3317 C3326 0.929 . S
C3318 H3312 0.930 . S
C3318 C3319 1.367 . S
C3318 C3326 1.378 1_655 S
C3319 C3318 1.367 . S
C3319 C3327 1.433 . S
C3320 H3316 0.929 . S
C3320 C3322 1.378 . S
C3320 C3324 1.350 . S
C3321 C3324 1.463 . S
C3321 C3326 1.350 . S
C3321 N3329 1.427 1_455 S
C3322 H3313 0.930 . S
C3322 C3320 1.378 . S
C3322 C3323 1.367 . S
C3323 C3322 1.367 . S
C3323 C3325 1.433 . S
C3324 C3320 1.350 . S
C3324 C3321 1.463 . S
C3324 N3328 1.427 . S
C3325 H3315 0.929 . S
C3325 C3323 1.433 . S
C3325 N3328 1.384 . S
C3326 H3317 0.929 . S
C3326 C3318 1.378 1_455 S
C3326 C3321 1.350 . S
C3327 H3314 0.929 . S
C3327 C3319 1.433 . S
C3327 N3329 1.384 . S
N3328 C3324 1.427 . S
N3328 C3325 1.384 . S
N3329 C3321 1.427 1_655 S
N3329 C3327 1.384 . S
H3330 C3336 0.930 . S
H3331 C3340 0.930 . S
H3332 C3345 0.929 . S
H3333 C3343 0.929 . S
H3334 C3338 0.929 . S
H3335 C3344 0.929 . S
C3336 H3330 0.930 . S
C3336 C3337 1.367 . S
C3336 C3344 1.378 . S
C3337 C3336 1.367 . S
C3337 C3345 1.433 . S
C3338 H3334 0.929 . S
C3338 C3340 1.378 . S
C3338 C3342 1.369 . S
C3339 C3342 1.447 1_455 S
C3339 C3344 1.350 . S
C3339 N3347 1.427 . S
C3340 H3331 0.930 . S
C3340 C3338 1.378 . S
C3340 C3341 1.367 . S
C3341 C3340 1.367 . S
C3341 C3343 1.433 . S
C3342 C3338 1.369 . S
C3342 C3339 1.447 1_655 S
C3342 N3346 1.422 1_655 S
C3343 H3333 0.929 . S
C3343 C3341 1.433 . S
C3343 N3346 1.384 1_655 S
C3344 H3335 0.929 . S
C3344 C3336 1.378 . S
C3344 C3339 1.350 . S
C3345 H3332 0.929 . S
C3345 C3337 1.433 . S
C3345 N3347 1.384 . S
N3346 C3342 1.422 1_455 S
N3346 C3343 1.384 1_455 S
N3347 C3339 1.427 . S
N3347 C3345 1.384 . S
H3348 C3354 0.930 . S
H3349 C3358 0.930 . S
H3350 C3363 0.929 . S
H3351 C3361 0.929 . S
H3352 C3356 0.929 . S
H3353 C3362 0.929 . S
C3354 H3348 0.930 . S
C3354 C3355 1.367 . S
C3354 C3362 1.378 . S
C3355 C3354 1.367 . S
C3355 C3363 1.433 . S
C3356 H3352 0.929 . S
C3356 C3358 1.378 . S
C3356 C3360 1.350 . S
C3357 C3360 1.463 . S
C3357 C3362 1.350 . S
C3357 N3365 1.427 . S
C3358 H3349 0.930 . S
C3358 C3356 1.378 . S
C3358 C3359 1.367 . S
C3359 C3358 1.367 . S
C3359 C3361 1.433 . S
C3360 C3356 1.350 . S
C3360 C3357 1.463 . S
C3360 N3364 1.427 . S
C3361 H3351 0.929 . S
C3361 C3359 1.433 . S
C3361 N3364 1.384 . S
C3362 H3353 0.929 . S
C3362 C3354 1.378 . S
C3362 C3357 1.350 . S
C3363 H3350 0.929 . S
C3363 C3355 1.433 . S
C3363 N3365 1.384 . S
N3364 C3360 1.427 . S
N3364 C3361 1.384 . S
N3365 C3357 1.427 . S
N3365 C3363 1.384 . S
H3366 C3372 0.930 . S
H3367 C3376 0.930 . S
H3368 C3381 0.929 . S
H3369 C3379 0.929 . S
H3370 C3374 0.929 . S
H3371 C3380 0.929 . S
C3372 H3366 0.930 . S
C3372 C3373 1.367 . S
C3372 C3380 1.378 . S
C3373 C3372 1.367 . S
C3373 C3381 1.433 . S
C3374 H3370 0.929 . S
C3374 C3376 1.378 . S
C3374 C3378 1.350 . S
C3375 C3378 1.463 . S
C3375 C3380 1.350 . S
C3375 N3383 1.427 . S
C3376 H3367 0.930 . S
C3376 C3374 1.378 . S
C3376 C3377 1.367 . S
C3377 C3376 1.367 . S
C3377 C3379 1.433 . S
C3378 C3374 1.350 . S
C3378 C3375 1.463 . S
C3378 N3382 1.427 . S
C3379 H3369 0.929 . S
C3379 C3377 1.433 . S
C3379 N3382 1.384 . S
C3380 H3371 0.929 . S
C3380 C3372 1.378 . S
C3380 C3375 1.350 . S
C3381 H3368 0.929 . S
C3381 C3373 1.433 . S
C3381 N3383 1.384 . S
N3382 C3378 1.427 . S
N3382 C3379 1.384 . S
N3383 C3375 1.427 . S
N3383 C3381 1.384 . S
H3384 C3390 0.930 . S
H3385 C3394 0.930 . S
H3386 C3399 0.929 . S
H3387 C3397 0.929 . S
H3388 C3392 0.929 . S
H3389 C3398 0.929 . S
C3390 H3384 0.930 . S
C3390 C3391 1.367 . S
C3390 C3398 1.378 . S
C3391 C3390 1.367 . S
C3391 C3399 1.433 . S
C3392 H3388 0.929 . S
C3392 C3394 1.378 1_565 S
C3392 C3396 1.350 . S
C3393 C3396 1.463 . S
C3393 C3398 1.350 . S
C3393 N3401 1.427 . S
C3394 H3385 0.930 . S
C3394 C3392 1.378 1_545 S
C3394 C3395 1.367 . S
C3395 C3394 1.367 . S
C3395 C3397 1.433 . S
C3396 C3392 1.350 . S
C3396 C3393 1.463 . S
C3396 N3400 1.427 1_565 S
C3397 H3387 0.929 . S
C3397 C3395 1.433 . S
C3397 N3400 1.384 . S
C3398 H3389 0.929 . S
C3398 C3390 1.378 . S
C3398 C3393 1.350 . S
C3399 H3386 0.929 . S
C3399 C3391 1.433 . S
C3399 N3401 1.384 . S
N3400 C3396 1.427 1_545 S
N3400 C3397 1.384 . S
N3401 C3393 1.427 . S
N3401 C3399 1.384 . S
H3402 C3408 0.930 . S
H3403 C3412 0.930 . S
H3404 C3417 0.929 . S
H3405 C3415 0.929 . S
H3406 C3410 0.929 . S
H3407 C3416 0.929 . S
C3408 H3402 0.930 . S
C3408 C3409 1.367 . S
C3408 C3416 1.378 . S
C3409 C3408 1.367 . S
C3409 C3417 1.433 . S
C3410 H3406 0.929 . S
C3410 C3412 1.378 . S
C3410 C3414 1.350 . S
C3411 C3414 1.463 . S
C3411 C3416 1.350 . S
C3411 N3419 1.427 . S
C3412 H3403 0.930 . S
C3412 C3410 1.378 . S
C3412 C3413 1.367 . S
C3413 C3412 1.367 . S
C3413 C3415 1.433 . S
C3414 C3410 1.350 . S
C3414 C3411 1.463 . S
C3414 N3418 1.427 . S
C3415 H3405 0.929 . S
C3415 C3413 1.433 . S
C3415 N3418 1.384 . S
C3416 H3407 0.929 . S
C3416 C3408 1.378 . S
C3416 C3411 1.350 . S
C3417 H3404 0.929 . S
C3417 C3409 1.433 . S
C3417 N3419 1.384 . S
N3418 C3414 1.427 . S
N3418 C3415 1.384 . S
N3419 C3411 1.427 . S
N3419 C3417 1.384 . S
H3420 C3426 0.930 . S
H3421 C3430 0.930 . S
H3422 C3435 0.929 . S
H3423 C3433 0.929 . S
H3424 C3428 0.929 . S
H3425 C3434 0.929 . S
C3426 H3420 0.930 . S
C3426 C3427 1.367 . S
C3426 C3434 1.378 . S
C3427 C3426 1.367 . S
C3427 C3435 1.433 . S
C3428 H3424 0.929 . S
C3428 C3430 1.378 . S
C3428 C3432 1.350 . S
C3429 C3432 1.463 1_545 S
C3429 C3434 1.350 . S
C3429 N3437 1.427 1_545 S
C3430 H3421 0.930 . S
C3430 C3428 1.378 . S
C3430 C3431 1.367 . S
C3431 C3430 1.367 . S
C3431 C3433 1.433 . S
C3432 C3428 1.350 . S
C3432 C3429 1.463 1_565 S
C3432 N3436 1.427 . S
C3433 H3423 0.929 . S
C3433 C3431 1.433 . S
C3433 N3436 1.384 . S
C3434 H3425 0.929 . S
C3434 C3426 1.378 . S
C3434 C3429 1.350 . S
C3435 H3422 0.929 . S
C3435 C3427 1.433 . S
C3435 N3437 1.384 1_545 S
N3436 C3432 1.427 . S
N3436 C3433 1.384 . S
N3437 C3429 1.427 1_565 S
N3437 C3435 1.384 1_565 S
H3438 C3444 0.930 . S
H3439 C3448 0.930 . S
H3440 C3453 0.929 . S
H3441 C3451 0.929 . S
H3442 C3446 0.929 . S
H3443 C3452 0.929 . S
C3444 H3438 0.930 . S
C3444 C3445 1.367 . S
C3444 C3452 1.378 . S
C3445 C3444 1.367 . S
C3445 C3453 1.433 . S
C3446 H3442 0.929 . S
C3446 C3448 1.378 . S
C3446 C3450 1.350 . S
C3447 C3450 1.463 1_556 S
C3447 C3452 1.350 . S
C3447 N3455 1.427 . S
C3448 H3439 0.930 . S
C3448 C3446 1.378 . S
C3448 C3449 1.367 . S
C3449 C3448 1.367 . S
C3449 C3451 1.433 . S
C3450 C3446 1.350 . S
C3450 C3447 1.463 1_554 S
C3450 N3454 1.427 . S
C3451 H3441 0.929 . S
C3451 C3449 1.433 . S
C3451 N3454 1.384 . S
C3452 H3443 0.929 . S
C3452 C3444 1.378 . S
C3452 C3447 1.350 . S
C3453 H3440 0.929 . S
C3453 C3445 1.433 . S
C3453 N3455 1.384 . S
N3454 C3450 1.427 . S
N3454 C3451 1.384 . S
N3455 C3447 1.427 . S
N3455 C3453 1.384 . S
H3456 C3462 0.930 . S
H3457 C3466 0.930 . S
H3458 C3471 0.929 . S
H3459 C3469 0.929 . S
H3460 C3464 0.929 . S
H3461 C3470 0.929 . S
C3462 H3456 0.930 . S
C3462 C3463 1.367 . S
C3462 C3470 1.378 . S
C3463 C3462 1.367 . S
C3463 C3471 1.433 . S
C3464 H3460 0.929 . S
C3464 C3466 1.378 . S
C3464 C3468 1.350 . S
C3465 C3468 1.463 1_554 S
C3465 C3470 1.350 . S
C3465 N3473 1.427 . S
C3466 H3457 0.930 . S
C3466 C3464 1.378 . S
C3466 C3467 1.367 . S
C3467 C3466 1.367 . S
C3467 C3469 1.433 . S
C3468 C3464 1.350 . S
C3468 C3465 1.463 1_556 S
C3468 N3472 1.427 1_556 S
C3469 H3459 0.929 . S
C3469 C3467 1.433 . S
C3469 N3472 1.384 1_556 S
C3470 H3461 0.929 . S
C3470 C3462 1.378 . S
C3470 C3465 1.350 . S
C3471 H3458 0.929 . S
C3471 C3463 1.433 . S
C3471 N3473 1.384 . S
N3472 C3468 1.427 1_554 S
N3472 C3469 1.384 1_554 S
N3473 C3465 1.427 . S
N3473 C3471 1.384 . S
H3474 C3480 0.930 . S
H3475 C3484 0.930 . S
H3476 C3489 0.929 . S
H3477 C3487 0.929 . S
H3478 C3482 0.929 . S
H3479 C3488 0.929 . S
C3480 H3474 0.930 . S
C3480 C3481 1.367 . S
C3480 C3488 1.378 . S
C3481 C3480 1.367 . S
C3481 C3489 1.433 . S
C3482 H3478 0.929 . S
C3482 C3484 1.378 . S
C3482 C3486 1.350 . S
C3483 C3486 1.463 . S
C3483 C3488 1.350 . S
C3483 N3491 1.427 . S
C3484 H3475 0.930 . S
C3484 C3482 1.378 . S
C3484 C3485 1.367 . S
C3485 C3484 1.367 . S
C3485 C3487 1.433 . S
C3486 C3482 1.350 . S
C3486 C3483 1.463 . S
C3486 N3490 1.427 . S
C3487 H3477 0.929 . S
C3487 C3485 1.433 . S
C3487 N3490 1.384 . S
C3488 H3479 0.929 . S
C3488 C3480 1.378 . S
C3488 C3483 1.350 . S
C3489 H3476 0.929 . S
C3489 C3481 1.433 . S
C3489 N3491 1.384 . S
N3490 C3486 1.427 . S
N3490 C3487 1.384 . S
N3491 C3483 1.427 . S
N3491 C3489 1.384 . S
H3492 C3498 0.930 . S
H3493 C3502 0.930 . S
H3494 C3507 0.929 . S
H3495 C3505 0.929 . S
H3496 C3500 0.929 . S
H3497 C3506 0.929 . S
C3498 H3492 0.930 . S
C3498 C3499 1.367 . S
C3498 C3506 1.378 . S
C3499 C3498 1.367 . S
C3499 C3507 1.433 . S
C3500 H3496 0.929 . S
C3500 C3502 1.378 . S
C3500 C3504 1.350 . S
C3501 C3504 1.463 . S
C3501 C3506 1.350 . S
C3501 N3509 1.427 . S
C3502 H3493 0.930 . S
C3502 C3500 1.378 . S
C3502 C3503 1.367 . S
C3503 C3502 1.367 . S
C3503 C3505 1.433 . S
C3504 C3500 1.350 . S
C3504 C3501 1.463 . S
C3504 N3508 1.427 . S
C3505 H3495 0.929 . S
C3505 C3503 1.433 . S
C3505 N3508 1.384 . S
C3506 H3497 0.929 . S
C3506 C3498 1.378 . S
C3506 C3501 1.350 . S
C3507 H3494 0.929 . S
C3507 C3499 1.433 . S
C3507 N3509 1.384 . S
N3508 C3504 1.427 . S
N3508 C3505 1.384 . S
N3509 C3501 1.427 . S
N3509 C3507 1.384 . S
H3510 C3516 0.930 . S
H3511 C3520 0.930 . S
H3512 C3525 0.929 . S
H3513 C3523 0.929 . S
H3514 C3518 0.929 . S
H3515 C3524 0.929 . S
C3516 H3510 0.930 . S
C3516 C3517 1.367 . S
C3516 C3524 1.378 . S
C3517 C3516 1.367 . S
C3517 C3525 1.433 . S
C3518 H3514 0.929 . S
C3518 C3520 1.378 . S
C3518 C3522 1.350 . S
C3519 C3522 1.463 . S
C3519 C3524 1.350 . S
C3519 N3527 1.427 . S
C3520 H3511 0.930 . S
C3520 C3518 1.378 . S
C3520 C3521 1.367 . S
C3521 C3520 1.367 . S
C3521 C3523 1.433 . S
C3522 C3518 1.350 . S
C3522 C3519 1.463 . S
C3522 N3526 1.427 . S
C3523 H3513 0.929 . S
C3523 C3521 1.433 . S
C3523 N3526 1.384 . S
C3524 H3515 0.929 . S
C3524 C3516 1.378 . S
C3524 C3519 1.350 . S
C3525 H3512 0.929 . S
C3525 C3517 1.433 . S
C3525 N3527 1.384 . S
N3526 C3522 1.427 . S
N3526 C3523 1.384 . S
N3527 C3519 1.427 . S
N3527 C3525 1.384 . S
H3528 C3534 0.930 . S
H3529 C3538 0.930 . S
H3530 C3543 0.929 . S
H3531 C3541 0.929 . S
H3532 C3536 0.953 . S
H3533 C3542 0.929 . S
C3534 H3528 0.930 . S
C3534 C3535 1.367 . S
C3534 C3542 1.378 . S
C3535 C3534 1.367 . S
C3535 C3543 1.433 . S
C3536 H3532 0.953 . S
C3536 C3538 1.353 1_655 S
C3536 C3540 1.351 . S
C3537 C3540 1.463 . S
C3537 C3542 1.350 . S
C3537 N3545 1.427 . S
C3538 H3529 0.930 . S
C3538 C3536 1.353 1_455 S
C3538 C3539 1.367 . S
C3539 C3538 1.367 . S
C3539 C3541 1.433 . S
C3540 C3536 1.351 . S
C3540 C3537 1.463 . S
C3540 N3544 1.427 1_655 S
C3541 H3531 0.929 . S
C3541 C3539 1.433 . S
C3541 N3544 1.384 . S
C3542 H3533 0.929 . S
C3542 C3534 1.378 . S
C3542 C3537 1.350 . S
C3543 H3530 0.929 . S
C3543 C3535 1.433 . S
C3543 N3545 1.384 . S
N3544 C3540 1.427 1_455 S
N3544 C3541 1.384 . S
N3545 C3537 1.427 . S
N3545 C3543 1.384 . S
H3546 C3552 0.930 . S
H3547 C3556 0.930 . S
H3548 C3561 0.929 . S
H3549 C3559 0.929 . S
H3550 C3554 0.929 . S
H3551 C3560 0.929 . S
C3552 H3546 0.930 . S
C3552 C3553 1.367 . S
C3552 C3560 1.378 . S
C3553 C3552 1.367 . S
C3553 C3561 1.433 . S
C3554 H3550 0.929 . S
C3554 C3556 1.378 . S
C3554 C3558 1.350 1_455 S
C3555 C3558 1.463 . S
C3555 C3560 1.350 . S
C3555 N3563 1.427 . S
C3556 H3547 0.930 . S
C3556 C3554 1.378 . S
C3556 C3557 1.367 . S
C3557 C3556 1.367 . S
C3557 C3559 1.433 . S
C3558 C3554 1.350 1_655 S
C3558 C3555 1.463 . S
C3558 N3562 1.427 . S
C3559 H3549 0.929 . S
C3559 C3557 1.433 . S
C3559 N3562 1.384 1_455 S
C3560 H3551 0.929 . S
C3560 C3552 1.378 . S
C3560 C3555 1.350 . S
C3561 H3548 0.929 . S
C3561 C3553 1.433 . S
C3561 N3563 1.384 . S
N3562 C3558 1.427 . S
N3562 C3559 1.384 1_655 S
N3563 C3555 1.427 . S
N3563 C3561 1.384 . S
H3564 C3570 0.930 . S
H3565 C3574 0.930 . S
H3566 C3579 0.929 . S
H3567 C3577 0.929 . S
H3568 C3572 0.929 . S
H3569 C3578 0.929 . S
C3570 H3564 0.930 . S
C3570 C3571 1.367 . S
C3570 C3578 1.378 . S
C3571 C3570 1.367 . S
C3571 C3579 1.433 . S
C3572 H3568 0.929 . S
C3572 C3574 1.378 . S
C3572 C3576 1.350 . S
C3573 C3576 1.463 . S
C3573 C3578 1.350 . S
C3573 N3581 1.427 . S
C3574 H3565 0.930 . S
C3574 C3572 1.378 . S
C3574 C3575 1.367 . S
C3575 C3574 1.367 . S
C3575 C3577 1.433 . S
C3576 C3572 1.350 . S
C3576 C3573 1.463 . S
C3576 N3580 1.427 . S
C3577 H3567 0.929 . S
C3577 C3575 1.433 . S
C3577 N3580 1.384 . S
C3578 H3569 0.929 . S
C3578 C3570 1.378 . S
C3578 C3573 1.350 . S
C3579 H3566 0.929 . S
C3579 C3571 1.433 . S
C3579 N3581 1.384 . S
N3580 C3576 1.427 . S
N3580 C3577 1.384 . S
N3581 C3573 1.427 . S
N3581 C3579 1.384 . S
H3582 C3588 0.930 . S
H3583 C3592 0.930 . S
H3584 C3597 0.929 . S
H3585 C3595 0.929 . S
H3586 C3590 0.929 . S
H3587 C3596 0.929 . S
C3588 H3582 0.930 . S
C3588 C3589 1.367 . S
C3588 C3596 1.378 . S
C3589 C3588 1.367 . S
C3589 C3597 1.433 . S
C3590 H3586 0.929 . S
C3590 C3592 1.378 . S
C3590 C3594 1.350 . S
C3591 C3594 1.463 . S
C3591 C3596 1.350 . S
C3591 N3599 1.427 . S
C3592 H3583 0.930 . S
C3592 C3590 1.378 . S
C3592 C3593 1.367 . S
C3593 C3592 1.367 . S
C3593 C3595 1.433 . S
C3594 C3590 1.350 . S
C3594 C3591 1.463 . S
C3594 N3598 1.427 . S
C3595 H3585 0.929 . S
C3595 C3593 1.433 . S
C3595 N3598 1.384 . S
C3596 H3587 0.929 . S
C3596 C3588 1.378 . S
C3596 C3591 1.350 . S
C3597 H3584 0.929 . S
C3597 C3589 1.433 . S
C3597 N3599 1.384 . S
N3598 C3594 1.427 . S
N3598 C3595 1.384 . S
N3599 C3591 1.427 . S
N3599 C3597 1.384 . S
H3600 C3606 0.930 . S
H3601 C3610 0.930 . S
H3602 C3615 0.929 . S
H3603 C3613 0.929 . S
H3604 C3608 0.929 . S
H3605 C3614 0.929 . S
C3606 H3600 0.930 . S
C3606 C3607 1.367 . S
C3606 C3614 1.378 . S
C3607 C3606 1.367 . S
C3607 C3615 1.433 . S
C3608 H3604 0.929 . S
C3608 C3610 1.378 1_545 S
C3608 C3612 1.350 . S
C3609 C3612 1.463 . S
C3609 C3614 1.350 . S
C3609 N3617 1.427 . S
C3610 H3601 0.930 . S
C3610 C3608 1.378 1_565 S
C3610 C3611 1.367 . S
C3611 C3610 1.367 . S
C3611 C3613 1.433 . S
C3612 C3608 1.350 . S
C3612 C3609 1.463 . S
C3612 N3616 1.427 1_545 S
C3613 H3603 0.929 . S
C3613 C3611 1.433 . S
C3613 N3616 1.384 . S
C3614 H3605 0.929 . S
C3614 C3606 1.378 . S
C3614 C3609 1.350 . S
C3615 H3602 0.929 . S
C3615 C3607 1.433 . S
C3615 N3617 1.384 . S
N3616 C3612 1.427 1_565 S
N3616 C3613 1.384 . S
N3617 C3609 1.427 . S
N3617 C3615 1.384 . S
H3618 C3624 0.930 . S
H3619 C3628 0.930 . S
H3620 C3633 0.929 . S
H3621 C3631 0.929 . S
H3622 C3626 0.929 . S
H3623 C3632 0.929 . S
C3624 H3618 0.930 . S
C3624 C3625 1.367 . S
C3624 C3632 1.378 . S
C3625 C3624 1.367 . S
C3625 C3633 1.433 . S
C3626 H3622 0.929 . S
C3626 C3628 1.378 . S
C3626 C3630 1.350 . S
C3627 C3630 1.463 . S
C3627 C3632 1.350 . S
C3627 N3635 1.427 . S
C3628 H3619 0.930 . S
C3628 C3626 1.378 . S
C3628 C3629 1.367 . S
C3629 C3628 1.367 . S
C3629 C3631 1.433 . S
C3630 C3626 1.350 . S
C3630 C3627 1.463 . S
C3630 N3634 1.427 . S
C3631 H3621 0.929 . S
C3631 C3629 1.433 . S
C3631 N3634 1.384 . S
C3632 H3623 0.929 . S
C3632 C3624 1.378 . S
C3632 C3627 1.350 . S
C3633 H3620 0.929 . S
C3633 C3625 1.433 . S
C3633 N3635 1.384 . S
N3634 C3630 1.427 . S
N3634 C3631 1.384 . S
N3635 C3627 1.427 . S
N3635 C3633 1.384 . S
H3636 C3642 0.930 . S
H3637 C3646 0.930 . S
H3638 C3651 0.929 . S
H3639 C3649 0.929 . S
H3640 C3644 0.929 . S
H3641 C3650 0.929 . S
C3642 H3636 0.930 . S
C3642 C3643 1.367 . S
C3642 C3650 1.378 . S
C3643 C3642 1.367 . S
C3643 C3651 1.433 . S
C3644 H3640 0.929 . S
C3644 C3646 1.378 . S
C3644 C3648 1.350 . S
C3645 C3648 1.463 1_545 S
C3645 C3650 1.350 . S
C3645 N3653 1.427 . S
C3646 H3637 0.930 . S
C3646 C3644 1.378 . S
C3646 C3647 1.367 . S
C3647 C3646 1.367 . S
C3647 C3649 1.433 . S
C3648 C3644 1.350 . S
C3648 C3645 1.463 1_565 S
C3648 N3652 1.427 . S
C3649 H3639 0.929 . S
C3649 C3647 1.433 . S
C3649 N3652 1.384 . S
C3650 H3641 0.929 . S
C3650 C3642 1.378 . S
C3650 C3645 1.350 . S
C3651 H3638 0.929 . S
C3651 C3643 1.433 . S
C3651 N3653 1.384 . S
N3652 C3648 1.427 . S
N3652 C3649 1.384 . S
N3653 C3645 1.427 . S
N3653 C3651 1.384 . S
H3654 C3660 0.930 . S
H3655 C3664 0.930 . S
H3656 C3669 0.929 . S
H3657 C3667 0.929 . S
H3658 C3662 0.929 . S
H3659 C3668 0.929 . S
C3660 H3654 0.930 . S
C3660 C3661 1.367 . S
C3660 C3668 1.378 . S
C3661 C3660 1.367 . S
C3661 C3669 1.433 . S
C3662 H3658 0.929 . S
C3662 C3664 1.378 . S
C3662 C3666 1.350 . S
C3663 C3666 1.485 . S
C3663 C3668 1.331 1_554 S
C3663 N3671 1.426 1_554 S
C3664 H3655 0.930 . S
C3664 C3662 1.378 . S
C3664 C3665 1.367 . S
C3665 C3664 1.367 . S
C3665 C3667 1.433 . S
C3666 C3662 1.350 . S
C3666 C3663 1.485 . S
C3666 N3670 1.427 . S
C3667 H3657 0.929 . S
C3667 C3665 1.433 . S
C3667 N3670 1.384 . S
C3668 H3659 0.929 . S
C3668 C3660 1.378 . S
C3668 C3663 1.331 1_556 S
C3669 H3656 0.929 . S
C3669 C3661 1.433 . S
C3669 N3671 1.381 . S
N3670 C3666 1.427 . S
N3670 C3667 1.384 . S
N3671 C3663 1.426 1_556 S
N3671 C3669 1.381 . S
H3672 C3678 0.930 . S
H3673 C3682 0.930 . S
H3674 C3687 0.929 . S
H3675 C3685 0.929 . S
H3676 C3680 0.929 . S
H3677 C3686 0.929 . S
C3678 H3672 0.930 . S
C3678 C3679 1.367 . S
C3678 C3686 1.378 . S
C3679 C3678 1.367 . S
C3679 C3687 1.433 . S
C3680 H3676 0.929 . S
C3680 C3682 1.378 1_556 S
C3680 C3684 1.350 . S
C3681 C3684 1.463 . S
C3681 C3686 1.350 . S
C3681 N3689 1.427 . S
C3682 H3673 0.930 . S
C3682 C3680 1.378 1_554 S
C3682 C3683 1.367 . S
C3683 C3682 1.367 . S
C3683 C3685 1.433 . S
C3684 C3680 1.350 . S
C3684 C3681 1.463 . S
C3684 N3688 1.412 1_556 S
C3685 H3675 0.929 . S
C3685 C3683 1.433 . S
C3685 N3688 1.417 . S
C3686 H3677 0.929 . S
C3686 C3678 1.378 . S
C3686 C3681 1.350 . S
C3687 H3674 0.929 . S
C3687 C3679 1.433 . S
C3687 N3689 1.384 . S
N3688 C3684 1.412 1_554 S
N3688 C3685 1.417 . S
N3689 C3681 1.427 . S
N3689 C3687 1.384 . S
H3690 C3696 0.930 . S
H3691 C3700 0.930 . S
H3692 C3705 0.929 . S
H3693 C3703 0.929 . S
H3694 C3698 0.929 . S
H3695 C3704 0.929 . S
C3696 H3690 0.930 . S
C3696 C3697 1.367 . S
C3696 C3704 1.378 . S
C3697 C3696 1.367 . S
C3697 C3705 1.433 . S
C3698 H3694 0.929 . S
C3698 C3700 1.378 . S
C3698 C3702 1.350 . S
C3699 C3702 1.463 . S
C3699 C3704 1.350 . S
C3699 N3707 1.427 . S
C3700 H3691 0.930 . S
C3700 C3698 1.378 . S
C3700 C3701 1.367 . S
C3701 C3700 1.367 . S
C3701 C3703 1.433 . S
C3702 C3698 1.350 . S
C3702 C3699 1.463 . S
C3702 N3706 1.427 . S
C3703 H3693 0.929 . S
C3703 C3701 1.433 . S
C3703 N3706 1.384 . S
C3704 H3695 0.929 . S
C3704 C3696 1.378 . S
C3704 C3699 1.350 . S
C3705 H3692 0.929 . S
C3705 C3697 1.433 . S
C3705 N3707 1.384 . S
N3706 C3702 1.427 . S
N3706 C3703 1.384 . S
N3707 C3699 1.427 . S
N3707 C3705 1.384 . S
H3708 C3714 0.930 . S
H3709 C3718 0.930 . S
H3710 C3723 0.929 . S
H3711 C3721 0.929 . S
H3712 C3716 0.929 . S
H3713 C3722 0.929 . S
C3714 H3708 0.930 . S
C3714 C3715 1.367 . S
C3714 C3722 1.378 . S
C3715 C3714 1.367 . S
C3715 C3723 1.433 . S
C3716 H3712 0.929 . S
C3716 C3718 1.378 . S
C3716 C3720 1.350 . S
C3717 C3720 1.463 . S
C3717 C3722 1.350 . S
C3717 N3725 1.427 . S
C3718 H3709 0.930 . S
C3718 C3716 1.378 . S
C3718 C3719 1.367 . S
C3719 C3718 1.367 . S
C3719 C3721 1.433 . S
C3720 C3716 1.350 . S
C3720 C3717 1.463 . S
C3720 N3724 1.427 . S
C3721 H3711 0.929 . S
C3721 C3719 1.433 . S
C3721 N3724 1.384 . S
C3722 H3713 0.929 . S
C3722 C3714 1.378 . S
C3722 C3717 1.350 . S
C3723 H3710 0.929 . S
C3723 C3715 1.433 . S
C3723 N3725 1.384 . S
N3724 C3720 1.427 . S
N3724 C3721 1.384 . S
N3725 C3717 1.427 . S
N3725 C3723 1.384 . S
H3726 C3732 0.930 . S
H3727 C3736 0.930 . S
H3728 C3741 0.929 . S
H3729 C3739 0.929 . S
H3730 C3734 0.929 . S
H3731 C3740 0.929 . S
C3732 H3726 0.930 . S
C3732 C3733 1.367 . S
C3732 C3740 1.378 . S
C3733 C3732 1.367 . S
C3733 C3741 1.433 . S
C3734 H3730 0.929 . S
C3734 C3736 1.378 . S
C3734 C3738 1.350 . S
C3735 C3738 1.463 . S
C3735 C3740 1.350 . S
C3735 N3743 1.427 . S
C3736 H3727 0.930 . S
C3736 C3734 1.378 . S
C3736 C3737 1.367 . S
C3737 C3736 1.367 . S
C3737 C3739 1.433 . S
C3738 C3734 1.350 . S
C3738 C3735 1.463 . S
C3738 N3742 1.427 . S
C3739 H3729 0.929 . S
C3739 C3737 1.433 . S
C3739 N3742 1.384 . S
C3740 H3731 0.929 . S
C3740 C3732 1.378 . S
C3740 C3735 1.350 . S
C3741 H3728 0.929 . S
C3741 C3733 1.433 . S
C3741 N3743 1.384 . S
N3742 C3738 1.427 . S
N3742 C3739 1.384 . S
N3743 C3735 1.427 . S
N3743 C3741 1.384 . S
C1591 N2 0.835 . S
C1595 C1275 0.819 . S
C1609 N35 0.710 . S
C1613 C1195 0.720 . S
C1627 N79 0.722 . S
C1631 C1572 0.700 . S
C1645 C1129 1.171 . S
C1649 N112 1.152 . S
C1663 N134 0.947 . S
C1667 C1327 0.921 . S
C1681 C1077 0.959 . S
C1685 N178 0.944 . S
C1699 N211 1.044 . S
C1703 C1360 1.056 . S
C1717 N233 0.710 . S
C1721 C1011 0.726 . S
C1735 C997 0.904 . S
C1739 N277 0.881 . S
C1753 N310 1.009 . S
C1757 C1341 1.056 . S
C1771 N332 1.037 . S
C1775 C1063 1.000 . S
C1789 C1374 0.852 . S
C1793 N376 0.843 . S
C1807 N409 0.776 . S
C1811 C1209 0.773 . S
C1825 N431 0.800 . S
C1829 C1558 0.801 . S
C1843 C1143 0.813 . S
C1847 N464 0.815 . S
C1861 N497 0.753 . S
C1865 C1261 0.731 . S
C1879 C799 1.016 . S
C1883 N365 1.075 . S
C1897 C700 0.814 . S
C1901 N541 0.807 . S
C1915 N574 0.869 . S
C1919 C912 0.895 . S
C1933 C780 0.813 . S
C1937 N607 0.815 . S
C1951 C813 0.998 . S
C1955 N398 1.011 . S
C1969 N299 1.129 . S
C1973 C733 0.985 . S
C1987 C766 0.696 . S
C1991 N640 0.690 . S
C2005 C714 0.860 . S
C2009 N662 0.885 . S
C2023 C568 0.947 . S
C2027 N695 1.044 . S
C2041 C502 0.858 . S
C2045 N739 0.869 . S
C2059 C1473 0.680 . S
C2063 N772 0.684 . S
C2077 N805 0.837 . S
C2081 C436 0.835 . S
C2095 C634 1.088 . S
C2099 N827 1.145 . S
C2113 N871 1.060 . S
C2117 C384 1.100 . S
C2131 C681 0.599 . S
C2135 N893 0.589 . S
C2149 C318 0.883 . S
C2153 N926 0.912 . S
C2167 C304 0.612 . S
C2171 N959 0.553 . S
C2185 C648 0.908 . S
C2189 N1003 0.887 . S
C2203 N1025 0.827 . S
C2207 C370 0.809 . S
C2221 N1069 1.219 . S
C2225 C667 1.232 . S
C2239 N1102 0.944 . S
C2243 C516 0.951 . S
C2257 N1124 0.790 . S
C2261 C1459 0.774 . S
C2275 N1168 1.111 . S
C2279 C450 1.150 . S
C2293 N1190 0.587 . S
C2297 C582 0.620 . S
C2311 C106 1.118 . S
C2315 N1058 1.163 . S
C2329 C7 0.841 . S
C2333 N1234 0.824 . S
C2347 C205 0.859 . S
C2351 N1256 0.921 . S
C2365 C87 0.829 . S
C2369 N1300 0.835 . S
C2383 N1091 0.918 . S
C2387 C120 0.886 . S
C2401 C54 0.903 . S
C2405 N992 0.976 . S
C2419 C73 0.777 . S
C2423 N1333 0.784 . S
C2437 N1366 0.894 . S
C2441 C21 0.921 . S
C2455 C1176 0.793 . S
C2459 N167 0.835 . S
C2473 C1294 0.703 . S
C2477 N200 0.710 . S
C2491 N244 0.723 . S
C2495 C1110 0.706 . S
C2509 C1228 1.171 . S
C2513 N145 1.163 . S
C2527 N101 0.947 . S
C2531 C1030 0.921 . S
C2545 N13 0.931 . S
C2549 C1539 0.944 . S
C2563 C964 1.054 . S
C2567 N46 1.045 . S
C2581 N68 0.712 . S
C2585 C1506 0.742 . S
C2599 N673 0.876 . S
C2603 C1492 0.885 . S
C2617 N1399 1.037 . S
C2621 C1044 1.078 . S
C2635 N629 1.037 . S
C2639 C1525 1.002 . S
C2653 C978 0.828 . S
C2657 N1432 0.825 . S
C2671 N1465 0.783 . S
C2675 C1308 0.777 . S
C2689 N530 0.800 . S
C2693 C1096 0.807 . S
C2707 C1242 0.799 . S
C2711 N563 0.818 . S
C2725 N596 0.749 . S
C2729 C1162 0.756 . S
C2743 C832 1.038 . S
C2747 N1421 1.070 . S
C2761 N442 0.819 . S
C2765 C865 0.816 . S
C2779 N475 0.896 . S
C2783 C747 0.903 . S
C2797 C945 0.817 . S
C2801 N508 0.803 . S
C2815 C846 0.999 . S
C2819 N1454 1.011 . S
C2833 C898 0.977 . S
C2837 N1388 1.127 . S
C2851 N343 0.701 . S
C2855 C931 0.690 . S
C2869 C879 0.882 . S
C2873 N266 0.882 . S
C2887 C469 0.961 . S
C2891 N860 1.044 . S
C2905 C601 0.871 . S
C2909 N904 0.874 . S
C2923 C417 0.684 . S
C2927 N937 0.683 . S
C2941 N838 0.821 . S
C2945 C535 0.836 . S
C2959 C337 1.088 . S
C2963 N794 1.145 . S
C2977 N706 1.033 . S
C2981 C1440 1.092 . S
C2995 C285 0.596 . S
C2999 N728 0.589 . S
C3013 C1407 0.897 . S
C3017 N761 0.911 . S
C3031 C1393 0.619 . S
C3035 N1355 0.551 . S
C3049 N1498 0.898 . S
C3053 C351 0.912 . S
C3067 C1426 0.817 . S
C3071 N1322 0.823 . S
C3085 N1531 1.209 . S
C3089 C271 1.225 . S
C3103 C615 0.949 . S
C3107 N1564 0.943 . S
C3121 C403 0.784 . S
C3125 N1223 0.792 . S
C3139 N1267 1.110 . S
C3143 C549 1.155 . S
C3157 C483 0.626 . S
C3161 N1289 0.594 . S
C3175 N1520 1.163 . S
C3179 C139 1.118 . S
C3193 C172 0.828 . S
C3197 N1135 0.827 . S
C3211 C40 0.861 . S
C3215 N1157 0.919 . S
C3229 N1201 0.807 . S
C3233 C252 0.814 . S
C3247 N1553 0.917 . S
C3251 C153 0.884 . S
C3265 N1487 0.974 . S
C3269 C219 0.898 . S
C3283 N1036 0.787 . S
C3287 C238 0.779 . S
C3301 C186 0.911 . S
C3305 N970 0.903 . S
C3319 C249 2.849 . S
C3323 C18 2.847 . S
C3337 C150 2.663 . S
C3341 C51 2.663 . S
C3355 C183 2.848 . S
C3359 C84 2.849 . S
C3373 C216 2.663 . S
C3377 C117 2.664 . S
C3391 C414 2.695 . S
C3395 C282 2.695 . S
C3409 C447 2.741 . S
C3413 C315 2.741 . S
C3427 C480 2.747 . S
C3431 C348 2.747 . S
C3445 C513 2.853 . S
C3449 C381 2.853 . S
C3463 C1404 2.741 . S
C3467 C546 2.740 . S
C3481 C579 2.749 . S
C3485 C645 2.749 . S
C3499 C612 2.854 . S
C3503 C1437 2.854 . S
C3517 C678 2.694 . S
C3521 C1470 2.695 . S
C3535 C711 2.697 . S
C3539 C942 2.699 . S
C3553 C843 2.876 . S
C3557 C744 2.868 . S
C3571 C876 2.697 . S
C3575 C777 2.698 . S
C3589 C909 2.871 . S
C3593 C810 2.876 . S
C3607 C1107 2.821 . S
C3611 C975 2.825 . S
C3625 C1008 2.755 . S
C3629 C1140 2.757 . S
C3643 C1041 2.713 . S
C3647 C1173 2.714 . S
C3661 C1074 2.693 . S
C3665 C1206 2.694 . S
C3679 C1503 2.754 . S
C3683 C1239 2.756 . S
C3697 C1338 2.714 . S
C3701 C1272 2.715 . S
C3715 C1305 2.694 . S
C3719 C1536 2.694 . S
C3733 C1569 2.822 . S
C3737 C1371 2.824 . S
