# Generated by pormake.
# Topology uot, (4)-cn, num edge types: 1
# Building blocks:
#     Node 0, Type 0, BuildingBlock: CEKHIL_clean_sbu_0, # of connection points: 4
#     Node 1, Type 0, BuildingBlock: CEKHIL_clean_sbu_0, # of connection points: 4
#     Node 2, Type 0, BuildingBlock: CEKHIL_clean_sbu_0, # of connection points: 4
#     Node 3, Type 0, BuildingBlock: CEKHIL_clean_sbu_0, # of connection points: 4
#     Node 4, Type 0, BuildingBlock: CEKHIL_clean_sbu_0, # of connection points: 4
#     Node 5, Type 0, BuildingBlock: CEKHIL_clean_sbu_0, # of connection points: 4
#     Node 6, Type 0, BuildingBlock: CEKHIL_clean_sbu_0, # of connection points: 4
#     Node 7, Type 0, BuildingBlock: CEKHIL_clean_sbu_0, # of connection points: 4
#     Node 8, Type 0, BuildingBlock: CEKHIL_clean_sbu_0, # of connection points: 4
#     Node 9, Type 0, BuildingBlock: CEKHIL_clean_sbu_0, # of connection points: 4
#     Node 10, Type 0, BuildingBlock: CEKHIL_clean_sbu_0, # of connection points: 4
#     Node 11, Type 0, BuildingBlock: CEKHIL_clean_sbu_0, # of connection points: 4
#     Node 12, Type 0, BuildingBlock: CEKHIL_clean_sbu_0, # of connection points: 4
#     Node 13, Type 0, BuildingBlock: CEKHIL_clean_sbu_0, # of connection points: 4
#     Node 14, Type 0, BuildingBlock: CEKHIL_clean_sbu_0, # of connection points: 4
#     Node 15, Type 0, BuildingBlock: CEKHIL_clean_sbu_0, # of connection points: 4
#     Edge 16, Type (0, 0), BuildingBlock: OJICUG_clean_linker_0, # of connection points: 2
#     Edge 17, Type (0, 0), BuildingBlock: OJICUG_clean_linker_0, # of connection points: 2
#     Edge 18, Type (0, 0), BuildingBlock: OJICUG_clean_linker_0, # of connection points: 2
#     Edge 19, Type (0, 0), BuildingBlock: OJICUG_clean_linker_0, # of connection points: 2
#     Edge 20, Type (0, 0), BuildingBlock: OJICUG_clean_linker_0, # of connection points: 2
#     Edge 21, Type (0, 0), BuildingBlock: OJICUG_clean_linker_0, # of connection points: 2
#     Edge 22, Type (0, 0), BuildingBlock: OJICUG_clean_linker_0, # of connection points: 2
#     Edge 23, Type (0, 0), BuildingBlock: OJICUG_clean_linker_0, # of connection points: 2
#     Edge 24, Type (0, 0), BuildingBlock: OJICUG_clean_linker_0, # of connection points: 2
#     Edge 25, Type (0, 0), BuildingBlock: OJICUG_clean_linker_0, # of connection points: 2
#     Edge 26, Type (0, 0), BuildingBlock: OJICUG_clean_linker_0, # of connection points: 2
#     Edge 27, Type (0, 0), BuildingBlock: OJICUG_clean_linker_0, # of connection points: 2
#     Edge 28, Type (0, 0), BuildingBlock: OJICUG_clean_linker_0, # of connection points: 2
#     Edge 29, Type (0, 0), BuildingBlock: OJICUG_clean_linker_0, # of connection points: 2
#     Edge 30, Type (0, 0), BuildingBlock: OJICUG_clean_linker_0, # of connection points: 2
#     Edge 31, Type (0, 0), BuildingBlock: OJICUG_clean_linker_0, # of connection points: 2
#     Edge 32, Type (0, 0), BuildingBlock: OJICUG_clean_linker_0, # of connection points: 2
#     Edge 33, Type (0, 0), BuildingBlock: OJICUG_clean_linker_0, # of connection points: 2
#     Edge 34, Type (0, 0), BuildingBlock: OJICUG_clean_linker_0, # of connection points: 2
#     Edge 35, Type (0, 0), BuildingBlock: OJICUG_clean_linker_0, # of connection points: 2
#     Edge 36, Type (0, 0), BuildingBlock: OJICUG_clean_linker_0, # of connection points: 2
#     Edge 37, Type (0, 0), BuildingBlock: OJICUG_clean_linker_0, # of connection points: 2
#     Edge 38, Type (0, 0), BuildingBlock: OJICUG_clean_linker_0, # of connection points: 2
#     Edge 39, Type (0, 0), BuildingBlock: OJICUG_clean_linker_0, # of connection points: 2
#     Edge 40, Type (0, 0), BuildingBlock: OJICUG_clean_linker_0, # of connection points: 2
#     Edge 41, Type (0, 0), BuildingBlock: OJICUG_clean_linker_0, # of connection points: 2
#     Edge 42, Type (0, 0), BuildingBlock: OJICUG_clean_linker_0, # of connection points: 2
#     Edge 43, Type (0, 0), BuildingBlock: OJICUG_clean_linker_0, # of connection points: 2
#     Edge 44, Type (0, 0), BuildingBlock: OJICUG_clean_linker_0, # of connection points: 2
#     Edge 45, Type (0, 0), BuildingBlock: OJICUG_clean_linker_0, # of connection points: 2
#     Edge 46, Type (0, 0), BuildingBlock: OJICUG_clean_linker_0, # of connection points: 2
#     Edge 47, Type (0, 0), BuildingBlock: OJICUG_clean_linker_0, # of connection points: 2
# Relax obj value: 0.066
# Max RMSD: 0.083
# Mean RMSD: 0.083
data_MOF--net-uot--node1-CEKHIL_clean_sbu_0--edge1-OJICUG_clean_linker_0
_symmetry_space_group_name_H-M    P1
_symmetry_Int_Tables_number       1
_symmetry_cell_setting            triclinic
loop_
_symmetry_equiv_pos_as_xyz
'x, y, z'
_cell_length_a     32.27581
_cell_length_b     32.280311
_cell_length_c     29.371636
_cell_angle_alpha  89.988791
_cell_angle_beta   90.015699
_cell_angle_gamma 89.950105
loop_
_atom_site_label
_atom_site_type_symbol
_atom_site_fract_x
_atom_site_fract_y
_atom_site_fract_z
_atom_type_partial_charge
Co0 Co 0.19307 0.41576 0.33016 0.0
O1 O 0.21786 0.36813 0.35786 0.0
O2 O 0.25245 0.41516 0.31839 0.0
C3 C 0.13933 0.38167 0.29772 0.0
O4 O 0.17701 0.46872 0.29635 0.0
Co5 Co 0.10292 0.44112 0.35959 0.0
O6 O 0.1113 0.4862 0.31493 0.0
C7 C 0.17541 0.46562 0.41552 0.0
C8 C 0.2529 0.38061 0.3413 0.0
C9 C 0.14515 0.49273 0.2938 0.0
O10 O 0.2013 0.44921 0.38755 0.0
O11 O 0.13601 0.46316 0.41162 0.0
O12 O 0.17527 0.3826 0.27789 0.0
O13 O 0.13828 0.39746 0.33795 0.0
Co14 Co 0.4139 0.80753 0.66331 0.0
O15 O 0.36698 0.78023 0.63765 0.0
O16 O 0.41701 0.74837 0.67572 0.0
C17 C 0.37853 0.8596 0.69699 0.0
O18 O 0.4667 0.82685 0.69487 0.0
Co19 Co 0.43308 0.89819 0.63088 0.0
O20 O 0.47924 0.89333 0.67491 0.0
C21 C 0.45974 0.82639 0.57536 0.0
C22 C 0.3819 0.74605 0.65399 0.0
C23 C 0.48846 0.86027 0.69639 0.0
O24 O 0.44599 0.80037 0.60483 0.0
O25 O 0.4551 0.86566 0.5783 0.0
O26 O 0.3818 0.8238 0.7168 0.0
O27 O 0.39234 0.86119 0.65586 0.0
Co28 Co 0.81398 0.59082 0.33139 0.0
O29 O 0.7886 0.63843 0.35844 0.0
O30 O 0.75594 0.59407 0.31363 0.0
C31 C 0.87181 0.6235 0.30632 0.0
O32 O 0.83108 0.53843 0.29718 0.0
Co33 Co 0.89951 0.56066 0.37053 0.0
O34 O 0.89368 0.51752 0.32316 0.0
C35 C 0.82175 0.54085 0.41859 0.0
C36 C 0.75465 0.62775 0.33798 0.0
C37 C 0.86207 0.51319 0.29759 0.0
O38 O 0.79947 0.55586 0.38623 0.0
O39 O 0.86125 0.54344 0.42033 0.0
O40 O 0.83772 0.62533 0.28291 0.0
O41 O 0.86848 0.60613 0.3456 0.0
Co42 Co 0.58874 0.19132 0.6644 0.0
O43 O 0.638 0.2181 0.64408 0.0
O44 O 0.58484 0.25057 0.676 0.0
C45 C 0.6201 0.13885 0.70173 0.0
O46 O 0.53331 0.17235 0.68991 0.0
Co47 Co 0.57163 0.1019 0.62819 0.0
O48 O 0.52122 0.10678 0.66643 0.0
C49 C 0.56027 0.17384 0.56824 0.0
C50 C 0.62162 0.25253 0.65788 0.0
C51 C 0.51088 0.13939 0.68817 0.0
O52 O 0.56296 0.19859 0.60235 0.0
O53 O 0.56828 0.13506 0.57067 0.0
O54 O 0.61544 0.17465 0.72128 0.0
O55 O 0.61019 0.13758 0.65925 0.0
Co56 Co 0.19465 0.59119 0.66726 0.0
O57 O 0.22127 0.64031 0.64626 0.0
O58 O 0.25405 0.58739 0.6783 0.0
C59 C 0.14227 0.6227 0.70451 0.0
O60 O 0.17571 0.53588 0.69327 0.0
Co61 Co 0.10504 0.57412 0.63131 0.0
O62 O 0.11 0.52398 0.66999 0.0
C63 C 0.17682 0.56267 0.5713 0.0
C64 C 0.25587 0.62393 0.65953 0.0
C65 C 0.14262 0.5136 0.69173 0.0
O66 O 0.20161 0.56509 0.60539 0.0
O67 O 0.13809 0.57089 0.57374 0.0
O68 O 0.17811 0.61822 0.72407 0.0
O69 O 0.14097 0.61256 0.66213 0.0
Co70 Co 0.59205 0.8127 0.32666 0.0
O71 O 0.64228 0.78902 0.34929 0.0
O72 O 0.59302 0.75331 0.31453 0.0
C73 C 0.62156 0.8675 0.29161 0.0
O74 O 0.5364 0.82827 0.2983 0.0
Co75 Co 0.56752 0.90072 0.36235 0.0
O76 O 0.51931 0.89289 0.3214 0.0
C77 C 0.55891 0.82778 0.42138 0.0
C78 C 0.62915 0.75364 0.33435 0.0
C79 C 0.51191 0.85986 0.29901 0.0
O80 O 0.56428 0.80334 0.38735 0.0
O81 O 0.5645 0.86698 0.41942 0.0
O82 O 0.62003 0.83174 0.2714 0.0
O83 O 0.60957 0.86763 0.33342 0.0
Co84 Co 0.80576 0.41138 0.66618 0.0
O85 O 0.77971 0.36196 0.64538 0.0
O86 O 0.74661 0.41369 0.67925 0.0
C87 C 0.85977 0.3807 0.7014 0.0
O88 O 0.82442 0.46676 0.69226 0.0
Co89 Co 0.89352 0.43044 0.62651 0.0
O90 O 0.88899 0.48 0.66616 0.0
C91 C 0.81955 0.44162 0.56989 0.0
C92 C 0.74513 0.37733 0.66004 0.0
C93 C 0.85707 0.48961 0.68952 0.0
O94 O 0.79626 0.43814 0.60508 0.0
O95 O 0.85849 0.4342 0.57029 0.0
O96 O 0.82431 0.3841 0.72198 0.0
O97 O 0.85975 0.39115 0.65904 0.0
Co98 Co 0.41012 0.193 0.32939 0.0
O99 O 0.36325 0.21886 0.35749 0.0
O100 O 0.41083 0.25236 0.31766 0.0
C101 C 0.3748 0.13999 0.29712 0.0
O102 O 0.46243 0.17593 0.2951 0.0
Co103 Co 0.43388 0.10219 0.35808 0.0
O104 O 0.47805 0.10942 0.3121 0.0
C105 C 0.46106 0.17401 0.41371 0.0
C106 C 0.37647 0.25361 0.34084 0.0
C107 C 0.4853 0.14336 0.29144 0.0
O108 O 0.44428 0.20038 0.38649 0.0
O109 O 0.458 0.13468 0.40945 0.0
O110 O 0.37624 0.17594 0.27734 0.0
O111 O 0.39075 0.13859 0.33726 0.0
Co112 Co 0.69344 0.91083 0.82966 0.0
O113 O 0.72014 0.86244 0.85268 0.0
O114 O 0.75285 0.91401 0.81827 0.0
C115 C 0.64122 0.87789 0.79384 0.0
O116 O 0.67434 0.9652 0.80115 0.0
Co117 Co 0.60348 0.92898 0.86432 0.0
O118 O 0.60818 0.97723 0.82286 0.0
C119 C 0.67511 0.94284 0.92413 0.0
C120 C 0.75468 0.87798 0.8382 0.0
C121 C 0.6409 0.98709 0.80107 0.0
O122 O 0.70019 0.93915 0.89041 0.0
O123 O 0.63643 0.93444 0.92174 0.0
O124 O 0.67704 0.88171 0.77413 0.0
O125 O 0.63985 0.8896 0.8357 0.0
Co126 Co 0.9131 0.31076 0.16108 0.0
O127 O 0.86606 0.28516 0.1332 0.0
O128 O 0.91405 0.25129 0.17218 0.0
C129 C 0.87805 0.36329 0.19459 0.0
O130 O 0.96563 0.32774 0.19505 0.0
Co131 Co 0.93637 0.40181 0.13321 0.0
O132 O 0.97918 0.39522 0.18084 0.0
C133 C 0.9633 0.33051 0.07652 0.0
C134 C 0.87945 0.25029 0.1494 0.0
C135 C 0.98728 0.36092 0.20037 0.0
O136 O 0.94662 0.30395 0.10352 0.0
O137 O 0.96046 0.3698 0.08137 0.0
O138 O 0.87975 0.32704 0.21366 0.0
O139 O 0.89344 0.36528 0.15418 0.0
Co140 Co 0.30715 0.08866 0.8242 0.0
O141 O 0.28124 0.13766 0.84678 0.0
O142 O 0.24747 0.08539 0.81495 0.0
C143 C 0.35831 0.12084 0.78582 0.0
O144 O 0.32502 0.03368 0.79635 0.0
Co145 Co 0.39824 0.07049 0.85508 0.0
O146 O 0.39206 0.02178 0.81457 0.0
C147 C 0.32881 0.05904 0.9187 0.0
C148 C 0.24629 0.12188 0.83385 0.0
C149 C 0.35837 0.01177 0.79475 0.0
O150 O 0.30234 0.06189 0.88612 0.0
O151 O 0.36742 0.06698 0.91402 0.0
O152 O 0.32204 0.11649 0.76726 0.0
O153 O 0.36091 0.1098 0.82781 0.0
Co154 Co 0.0919 0.69386 0.15922 0.0
O155 O 0.13726 0.7191 0.12758 0.0
O156 O 0.09074 0.75355 0.16797 0.0
C157 C 0.12985 0.64305 0.19218 0.0
O158 O 0.04133 0.67794 0.19718 0.0
Co159 Co 0.06695 0.6017 0.14114 0.0
O160 O 0.03667 0.60836 0.1993 0.0
C161 C 0.03531 0.66975 0.08168 0.0
C162 C 0.12443 0.75426 0.14361 0.0
C163 C 0.02566 0.64416 0.2129 0.0
O164 O 0.05545 0.69784 0.10352 0.0
O165 O 0.03731 0.63097 0.09068 0.0
O166 O 0.12826 0.67974 0.21021 0.0
O167 O 0.11169 0.63931 0.15335 0.0
Co168 Co 0.6908 0.09569 0.16075 0.0
O169 O 0.71791 0.14232 0.1339 0.0
O170 O 0.75007 0.09335 0.17316 0.0
C171 C 0.63819 0.13121 0.19338 0.0
O172 O 0.67177 0.04326 0.19356 0.0
Co173 Co 0.60012 0.07518 0.12883 0.0
O174 O 0.60519 0.0302 0.17426 0.0
C175 C 0.67233 0.04699 0.07468 0.0
C176 C 0.75225 0.12794 0.15042 0.0
C177 C 0.63837 0.02146 0.19578 0.0
O178 O 0.6983 0.06235 0.10323 0.0
O179 O 0.633 0.05115 0.07763 0.0
O180 O 0.67401 0.12883 0.21334 0.0
O181 O 0.63694 0.11659 0.15261 0.0
Co182 Co 0.09017 0.30852 0.82495 0.0
O183 O 0.13895 0.28188 0.84708 0.0
O184 O 0.08654 0.24903 0.81437 0.0
C185 C 0.12263 0.36031 0.78785 0.0
O186 O 0.03529 0.32745 0.79751 0.0
Co187 Co 0.07275 0.39882 0.85879 0.0
O188 O 0.02391 0.39398 0.81819 0.0
C189 C 0.06058 0.32788 0.92009 0.0
C190 C 0.12292 0.24725 0.83352 0.0
C191 C 0.0136 0.361 0.79716 0.0
O192 O 0.06322 0.30242 0.88658 0.0
O193 O 0.06888 0.36653 0.91682 0.0
O194 O 0.11817 0.32441 0.76848 0.0
O195 O 0.11166 0.36207 0.82993 0.0
Co196 Co 0.31045 0.91208 0.16026 0.0
O197 O 0.28582 0.86472 0.13185 0.0
O198 O 0.25065 0.91311 0.16872 0.0
C199 C 0.36187 0.87729 0.19622 0.0
O200 O 0.32607 0.96499 0.1943 0.0
Co201 Co 0.40229 0.93536 0.13616 0.0
O202 O 0.39372 0.97927 0.18214 0.0
C203 C 0.33292 0.96246 0.07663 0.0
C204 C 0.25038 0.87834 0.14623 0.0
C205 C 0.35876 0.98722 0.20028 0.0
O206 O 0.30553 0.94512 0.10209 0.0
O207 O 0.37201 0.96004 0.0834 0.0
O208 O 0.3251 0.8793 0.21398 0.0
O209 O 0.36518 0.89239 0.15579 0.0
Co210 Co 0.91128 0.69194 0.82787 0.0
O211 O 0.8621 0.71832 0.84934 0.0
O212 O 0.91524 0.75157 0.81858 0.0
C213 C 0.87932 0.64089 0.78895 0.0
O214 O 0.96667 0.67354 0.80135 0.0
Co215 Co 0.92826 0.60099 0.85969 0.0
O216 O 0.97826 0.60682 0.82106 0.0
C217 C 0.93884 0.67057 0.92322 0.0
C218 C 0.87848 0.75312 0.83683 0.0
C219 C 0.98876 0.64025 0.80102 0.0
O220 O 0.93694 0.6968 0.89033 0.0
O221 O 0.93062 0.63202 0.91859 0.0
O222 O 0.88431 0.6771 0.77042 0.0
O223 O 0.88964 0.63832 0.83118 0.0
C224 C 0.29033 0.32339 0.37976 0.0
C225 C 0.2901 0.35419 0.34603 0.0
H226 H 0.31836 0.26808 0.4049 0.0
C227 C 0.3227 0.35541 0.31427 0.0
H228 H 0.266 0.32197 0.40512 0.0
C229 C 0.35308 0.32415 0.31414 0.0
C230 C 0.35103 0.29146 0.34577 0.0
H231 H 0.32323 0.37884 0.28787 0.0
H232 H 0.37642 0.32412 0.28766 0.0
C233 C 0.32038 0.29245 0.37963 0.0
C234 C 0.35758 0.67745 0.6848 0.0
C235 C 0.35732 0.70772 0.65033 0.0
H236 H 0.32497 0.62604 0.71487 0.0
C237 C 0.328 0.70492 0.61524 0.0
H238 H 0.37987 0.67907 0.71231 0.0
C239 C 0.29698 0.67514 0.6168 0.0
C240 C 0.29462 0.64734 0.65338 0.0
H241 H 0.32744 0.72745 0.58789 0.0
H242 H 0.27335 0.67542 0.59057 0.0
C243 C 0.32625 0.64722 0.6863 0.0
C244 C 0.65438 0.68353 0.308 0.0
C245 C 0.6558 0.71664 0.33909 0.0
H246 H 0.68501 0.62876 0.28304 0.0
C247 C 0.68658 0.71681 0.37282 0.0
H248 H 0.63093 0.68271 0.28162 0.0
C249 C 0.71705 0.68633 0.37371 0.0
C250 C 0.71773 0.65486 0.34077 0.0
H251 H 0.68812 0.74154 0.3977 0.0
H252 H 0.74114 0.68849 0.39929 0.0
C253 C 0.68529 0.65277 0.30879 0.0
C254 C 0.67455 0.29397 0.61832 0.0
C255 C 0.64558 0.29113 0.6537 0.0
H256 H 0.72813 0.32436 0.59237 0.0
C257 C 0.64489 0.3219 0.6876 0.0
H258 H 0.67534 0.27102 0.5914 0.0
C259 C 0.67558 0.35282 0.68822 0.0
C260 C 0.70688 0.35292 0.65493 0.0
H261 H 0.62281 0.32021 0.71529 0.0
H262 H 0.67662 0.37448 0.71636 0.0
C263 C 0.7048 0.32451 0.6189 0.0
C264 C 0.82457 0.85441 0.80989 0.0
C265 C 0.7931 0.8536 0.843 0.0
H266 H 0.87747 0.82256 0.78193 0.0
C267 C 0.79508 0.82413 0.87802 0.0
H268 H 0.82362 0.87684 0.78249 0.0
C269 C 0.82536 0.79352 0.87766 0.0
C270 C 0.85449 0.79166 0.84233 0.0
H271 H 0.77161 0.82318 0.90439 0.0
H272 H 0.82445 0.76976 0.90372 0.0
C273 C 0.85529 0.82344 0.80957 0.0
C274 C 0.79297 0.18156 0.11016 0.0
C275 C 0.79075 0.15224 0.14535 0.0
H276 H 0.82347 0.2349 0.08351 0.0
C277 C 0.82256 0.15096 0.17808 0.0
H278 H 0.76929 0.18289 0.08404 0.0
C279 C 0.854 0.18111 0.17774 0.0
C280 C 0.85376 0.21267 0.14468 0.0
H281 H 0.82153 0.12864 0.20559 0.0
H282 H 0.87656 0.18146 0.20505 0.0
C283 C 0.82406 0.21138 0.10984 0.0
C284 C 0.14564 0.17674 0.80631 0.0
C285 C 0.14698 0.2087 0.83881 0.0
H286 H 0.17668 0.12301 0.77921 0.0
C287 C 0.17655 0.20688 0.87375 0.0
H288 H 0.1231 0.17755 0.77899 0.0
C289 C 0.20672 0.17616 0.87388 0.0
C290 C 0.20807 0.14646 0.83909 0.0
H291 H 0.17788 0.23074 0.89967 0.0
H292 H 0.23055 0.17715 0.89986 0.0
C293 C 0.17619 0.14562 0.80645 0.0
C294 C 0.21302 0.82169 0.10662 0.0
C295 C 0.21274 0.85289 0.13988 0.0
H296 H 0.18467 0.76668 0.08115 0.0
C297 C 0.17894 0.85544 0.16997 0.0
H298 H 0.23832 0.81928 0.08251 0.0
C299 C 0.14788 0.82495 0.16922 0.0
C300 C 0.15035 0.79173 0.13832 0.0
H301 H 0.17796 0.87923 0.19596 0.0
H302 H 0.12365 0.82587 0.19471 0.0
C303 C 0.18221 0.79153 0.10581 0.0
C304 C 0.13842 0.56904 0.29067 0.0
C305 C 0.14806 0.53178 0.26835 0.0
H306 H 0.12639 0.63398 0.28406 0.0
C307 C 0.1562 0.53213 0.22152 0.0
H308 H 0.13202 0.56929 0.32689 0.0
C309 C 0.1521 0.56902 0.19681 0.0
C310 C 0.14095 0.60606 0.21892 0.0
H311 H 0.16341 0.50362 0.20374 0.0
H312 H 0.15633 0.56836 0.16023 0.0
C313 C 0.13545 0.60601 0.26627 0.0
C314 C 0.56386 0.87356 0.69817 0.0
C315 C 0.52805 0.86012 0.72089 0.0
H316 H 0.62822 0.88862 0.70338 0.0
C317 C 0.53027 0.8494 0.76704 0.0
H318 H 0.5627 0.88181 0.66242 0.0
C319 C 0.56758 0.85419 0.79077 0.0
C320 C 0.60321 0.86857 0.7682 0.0
H321 H 0.50287 0.83912 0.78509 0.0
H322 H 0.56842 0.84736 0.82687 0.0
C323 C 0.60129 0.87723 0.72148 0.0
C324 C 0.86983 0.40024 0.26839 0.0
C325 C 0.8681 0.40101 0.22069 0.0
H326 H 0.86956 0.43578 0.32988 0.0
C327 C 0.86046 0.43884 0.19832 0.0
H328 H 0.87585 0.37163 0.28653 0.0
C329 C 0.85599 0.47555 0.22333 0.0
C330 C 0.86015 0.47484 0.27081 0.0
H331 H 0.85897 0.44018 0.16151 0.0
H332 H 0.85139 0.50459 0.20555 0.0
C333 C 0.86638 0.4369 0.29315 0.0
C334 C 0.43611 0.12117 0.69043 0.0
C335 C 0.47078 0.13886 0.71182 0.0
H336 H 0.37261 0.10278 0.69691 0.0
C337 C 0.46725 0.15361 0.75654 0.0
H338 H 0.4382 0.10975 0.65581 0.0
C339 C 0.43007 0.14871 0.78035 0.0
C340 C 0.39566 0.13026 0.75921 0.0
H341 H 0.49369 0.16718 0.77367 0.0
H342 H 0.4284 0.1587 0.81552 0.0
C343 C 0.39862 0.11745 0.71373 0.0
C344 C 0.12532 0.4387 0.69301 0.0
C345 C 0.14194 0.47344 0.71524 0.0
H346 H 0.10731 0.37505 0.69842 0.0
C347 C 0.15512 0.4699 0.76055 0.0
H348 H 0.11507 0.44081 0.65795 0.0
C349 C 0.14972 0.43258 0.78403 0.0
C350 C 0.13232 0.39808 0.76199 0.0
H351 H 0.1678 0.49643 0.77833 0.0
H352 H 0.15853 0.43087 0.81958 0.0
C353 C 0.1211 0.40112 0.71601 0.0
C354 C 0.43533 0.85329 0.2021 0.0
C355 C 0.39885 0.8671 0.22344 0.0
H356 H 0.49999 0.83882 0.20996 0.0
C357 C 0.39915 0.87484 0.27042 0.0
H358 H 0.43578 0.84721 0.16583 0.0
C359 C 0.4359 0.87111 0.29516 0.0
C360 C 0.47263 0.85841 0.27365 0.0
H361 H 0.37156 0.88586 0.28759 0.0
H362 H 0.43586 0.87905 0.33101 0.0
C363 C 0.4719 0.84835 0.22722 0.0
C364 C 0.84555 0.53215 0.75943 0.0
C365 C 0.85822 0.52937 0.71388 0.0
H366 H 0.84311 0.57003 0.81937 0.0
C367 C 0.87492 0.56442 0.69227 0.0
H368 H 0.83282 0.5054 0.77675 0.0
C369 C 0.87978 0.60149 0.7161 0.0
C370 C 0.86911 0.60371 0.76229 0.0
H371 H 0.88476 0.56293 0.65703 0.0
H372 H 0.89361 0.62778 0.69896 0.0
C373 C 0.85156 0.56894 0.7837 0.0
C374 C 0.59895 0.13435 0.26616 0.0
C375 C 0.59993 0.14023 0.21887 0.0
H376 H 0.56118 0.13028 0.32589 0.0
C377 C 0.56314 0.15073 0.19584 0.0
H378 H 0.62672 0.12591 0.28471 0.0
C379 C 0.52569 0.15411 0.21968 0.0
C380 C 0.52459 0.14592 0.26651 0.0
H381 H 0.56319 0.15534 0.15931 0.0
H382 H 0.49743 0.16112 0.20131 0.0
C383 C 0.5615 0.13665 0.28965 0.0
C384 C 0.65144 0.02885 0.73028 0.0
C385 C 0.64005 0.02661 0.77628 0.0
H386 H 0.65317 0.06652 0.67004 0.0
C387 C 0.62466 0.06208 0.79817 0.0
H388 H 0.66309 0.0017 0.71276 0.0
C389 C 0.61999 0.09914 0.77431 0.0
C390 C 0.62951 0.10102 0.72777 0.0
H391 H 0.61575 0.06095 0.83373 0.0
H392 H 0.60732 0.12581 0.79185 0.0
C393 C 0.6456 0.06572 0.70596 0.0
C394 C 0.10091 0.36797 0.22558 0.0
C395 C 0.10105 0.37034 0.27328 0.0
H396 H 0.06396 0.36313 0.16519 0.0
C397 C 0.06361 0.36504 0.29716 0.0
H398 H 0.12921 0.37213 0.2063 0.0
C399 C 0.02637 0.35917 0.27356 0.0
C400 C 0.02621 0.35899 0.2259 0.0
H401 H 0.06292 0.36666 0.33398 0.0
H402 H 0.9976 0.35682 0.29237 0.0
C403 C 0.06369 0.36277 0.20209 0.0
C404 C 0.37012 0.93602 0.79337 0.0
C405 C 0.358 0.97214 0.77039 0.0
H406 H 0.38498 0.8716 0.78816 0.0
C407 C 0.34947 0.97049 0.72363 0.0
H408 H 0.37695 0.93683 0.82949 0.0
C409 C 0.35508 0.93341 0.69969 0.0
C410 C 0.36816 0.89742 0.72256 0.0
H411 H 0.34046 0.99822 0.70533 0.0
H412 H 0.35002 0.93305 0.66323 0.0
C413 C 0.37458 0.89879 0.76978 0.0
C414 C 0.91513 0.66049 0.24851 0.0
C415 C 0.91245 0.63417 0.28648 0.0
H416 H 0.95423 0.68564 0.19627 0.0
C417 C 0.94879 0.6158 0.30354 0.0
H418 H 0.88763 0.6752 0.23482 0.0
C419 C 0.9865 0.62108 0.28103 0.0
C420 C 0.98881 0.64605 0.24211 0.0
H421 H 0.94788 0.59556 0.33284 0.0
H422 H 0.01358 0.60445 0.29301 0.0
C423 C 0.9532 0.66682 0.2268 0.0
C424 C 0.6471 0.97979 0.26703 0.0
C425 C 0.63883 0.98183 0.22026 0.0
H426 H 0.64734 0.94145 0.32679 0.0
C427 C 0.6276 0.9457 0.19671 0.0
H428 H 0.65555 0.00744 0.28574 0.0
C429 C 0.62383 0.90809 0.21966 0.0
C430 C 0.63017 0.90621 0.26683 0.0
H431 H 0.6211 0.94674 0.16051 0.0
H432 H 0.61429 0.88089 0.20079 0.0
C433 C 0.64224 0.94223 0.29035 0.0
C434 C 0.90077 0.38009 0.77311 0.0
C435 C 0.89836 0.37177 0.72631 0.0
H436 H 0.93978 0.38359 0.83196 0.0
C437 C 0.93368 0.35714 0.70333 0.0
H438 H 0.87408 0.39161 0.79157 0.0
C439 C 0.97105 0.3515 0.7268 0.0
C440 C 0.97371 0.36161 0.77314 0.0
H441 H 0.9325 0.35052 0.6672 0.0
H442 H 0.9982 0.34097 0.70844 0.0
C443 C 0.93828 0.37562 0.79616 0.0
C444 C 0.36486 0.10113 0.22455 0.0
C445 C 0.36409 0.10175 0.2723 0.0
H446 H 0.36394 0.06355 0.16441 0.0
C447 C 0.35697 0.0646 0.29616 0.0
H448 H 0.37057 0.12919 0.20532 0.0
C449 C 0.35241 0.02715 0.27264 0.0
C450 C 0.35557 0.02646 0.22511 0.0
H451 H 0.35622 0.06431 0.33303 0.0
H452 H 0.3486 0.99861 0.29158 0.0
C453 C 0.3611 0.06368 0.20119 0.0
C454 C 0.10148 0.6203 0.77635 0.0
C455 C 0.10427 0.63166 0.73037 0.0
H456 H 0.06201 0.61365 0.83451 0.0
C457 C 0.06944 0.64868 0.70849 0.0
H458 H 0.12779 0.60682 0.79385 0.0
C459 C 0.0321 0.6536 0.73212 0.0
C460 C 0.02889 0.64031 0.77742 0.0
H461 H 0.07093 0.6576 0.67297 0.0
H462 H 0.00533 0.66597 0.71447 0.0
C463 C 0.0639 0.62403 0.79948 0.0
C464 C 0.17682 0.55981 0.48744 0.0
C465 C 0.19113 0.54364 0.52879 0.0
H466 H 0.16202 0.54703 0.41798 0.0
C467 C 0.20961 0.50415 0.52966 0.0
H468 H 0.16242 0.59013 0.48612 0.0
C469 C 0.20892 0.47916 0.49064 0.0
C470 C 0.19025 0.49397 0.45075 0.0
H471 H 0.22035 0.49097 0.56148 0.0
H472 H 0.21921 0.44727 0.4929 0.0
C473 C 0.17655 0.53517 0.44862 0.0
C474 C 0.49972 0.79446 0.46094 0.0
C475 C 0.53945 0.81222 0.46308 0.0
H476 H 0.44209 0.785 0.49628 0.0
C477 C 0.55507 0.82551 0.50509 0.0
H478 H 0.48692 0.7847 0.42857 0.0
C479 C 0.52977 0.82533 0.54343 0.0
C480 C 0.48847 0.81223 0.54014 0.0
H481 H 0.58548 0.83957 0.50733 0.0
H482 H 0.54126 0.83908 0.57466 0.0
C483 C 0.47406 0.79475 0.49944 0.0
C484 C 0.81197 0.47075 0.44789 0.0
C485 C 0.80315 0.51314 0.45216 0.0
H486 H 0.82389 0.41395 0.48318 0.0
C487 C 0.78937 0.52879 0.49399 0.0
H488 H 0.82326 0.45836 0.4159 0.0
C489 C 0.78892 0.50309 0.53237 0.0
C490 C 0.80326 0.46206 0.52909 0.0
H491 H 0.7833 0.56161 0.49802 0.0
H492 H 0.78228 0.51662 0.56534 0.0
C493 C 0.81246 0.4454 0.48627 0.0
C494 C 0.53102 0.17298 0.44597 0.0
C495 C 0.49033 0.18812 0.44847 0.0
H496 H 0.58599 0.15748 0.4828 0.0
C497 C 0.47672 0.20781 0.48828 0.0
H498 H 0.54199 0.15771 0.41537 0.0
C499 C 0.50225 0.2081 0.52692 0.0
C500 C 0.54108 0.18825 0.52578 0.0
H501 H 0.44526 0.21928 0.49083 0.0
H502 H 0.48987 0.21971 0.55874 0.0
C503 C 0.55618 0.1729 0.48439 0.0
C504 C 0.70634 0.02978 0.00066 0.0
C505 C 0.68674 0.01705 0.04085 0.0
H506 H 0.71918 0.0145 0.93093 0.0
C507 C 0.67257 0.97618 0.04497 0.0
H508 H 0.7171 0.06138 -0.00308 0.0
C509 C 0.67352 0.94969 0.00767 0.0
C510 C 0.68888 0.96369 0.96582 0.0
H511 H 0.65738 0.96592 0.0759 0.0
H512 H 0.65885 0.9196 0.01039 0.0
C513 C 0.70765 0.00295 0.96316 0.0
C514 C 0.05732 0.3307 0.00384 0.0
C515 C 0.04172 0.31447 0.96309 0.0
H516 H 0.04403 0.34742 0.07264 0.0
C517 C 0.00285 0.29475 0.96299 0.0
H518 H 0.08719 0.34599 0.00464 0.0
C519 C 0.97783 0.2959 0.00203 0.0
C520 C 0.99195 0.31646 0.0411 0.0
H521 H 0.99009 0.28246 0.93166 0.0
H522 H 0.94639 0.28429 0.00031 0.0
C523 C 0.03262 0.33162 0.04258 0.0
C524 C 0.2953 0.00262 0.96361 0.0
C525 C 0.3166 0.04064 0.96241 0.0
H526 H 0.28371 0.94697 0.00205 0.0
C527 C 0.33528 0.05563 0.00216 0.0
H528 H 0.28106 0.99033 0.93307 0.0
C529 C 0.33691 0.03105 0.04095 0.0
C530 C 0.31988 0.99111 0.04064 0.0
H531 H 0.35176 0.08488 0.00202 0.0
H532 H 0.35429 0.04203 0.07015 0.0
C533 C 0.29699 0.97778 0.0028 0.0
C534 C 0.99339 0.70638 0.96899 0.0
C535 C 0.95665 0.68296 0.96721 0.0
H536 H 0.04808 0.7207 0.00792 0.0
C537 C 0.9425 0.66312 0.00667 0.0
H538 H 0.005 0.7217 0.93876 0.0
C539 C 0.96696 0.66241 0.04559 0.0
C540 C 0.00595 0.68157 0.04576 0.0
H541 H 0.91413 0.64518 0.00621 0.0
H542 H 0.95675 0.64421 0.0745 0.0
C543 C 0.01808 0.70567 0.00832 0.0
loop_
_geom_bond_atom_site_label_1
_geom_bond_atom_site_label_2
_geom_bond_distance
_geom_bond_site_symmetry_2
_ccdc_geom_bond_type
Co0 O1 2.216 . S
Co0 O2 2.091 . S
Co0 O4 2.004 . S
Co0 O10 2.021 . S
Co0 O12 2.137 . S
Co0 O13 2.244 . S
O1 Co0 2.216 . S
O1 C8 1.247 . S
O2 Co0 2.091 . S
O2 C8 1.261 . S
C3 O12 1.247 . S
C3 O13 1.272 . S
O4 Co0 2.004 . S
O4 C9 1.259 . S
Co5 O6 2.061 . S
Co5 O11 2.052 . S
Co5 O13 2.135 . S
O6 Co5 2.061 . S
O6 C9 1.235 . S
C7 O10 1.238 . S
C7 O11 1.241 . S
C8 O1 1.247 . S
C8 O2 1.261 . S
C9 O4 1.259 . S
C9 O6 1.235 . S
O10 Co0 2.021 . S
O10 C7 1.238 . S
O11 Co5 2.052 . S
O11 C7 1.241 . S
O12 Co0 2.137 . S
O12 C3 1.247 . S
O13 Co0 2.244 . S
O13 C3 1.272 . S
O13 Co5 2.135 . S
Co14 O15 2.216 . S
Co14 O16 2.091 . S
Co14 O18 2.004 . S
Co14 O24 2.021 . S
Co14 O26 2.137 . S
Co14 O27 2.244 . S
O15 Co14 2.216 . S
O15 C22 1.247 . S
O16 Co14 2.091 . S
O16 C22 1.261 . S
C17 O26 1.247 . S
C17 O27 1.272 . S
O18 Co14 2.004 . S
O18 C23 1.259 . S
Co19 O20 2.061 . S
Co19 O25 2.052 . S
Co19 O27 2.135 . S
O20 Co19 2.061 . S
O20 C23 1.235 . S
C21 O24 1.238 . S
C21 O25 1.241 . S
C22 O15 1.247 . S
C22 O16 1.261 . S
C23 O18 1.259 . S
C23 O20 1.235 . S
O24 Co14 2.021 . S
O24 C21 1.238 . S
O25 Co19 2.052 . S
O25 C21 1.241 . S
O26 Co14 2.137 . S
O26 C17 1.247 . S
O27 Co14 2.244 . S
O27 C17 1.272 . S
O27 Co19 2.135 . S
Co28 O29 2.216 . S
Co28 O30 2.091 . S
Co28 O32 2.004 . S
Co28 O38 2.021 . S
Co28 O40 2.137 . S
Co28 O41 2.244 . S
O29 Co28 2.216 . S
O29 C36 1.247 . S
O30 Co28 2.091 . S
O30 C36 1.261 . S
C31 O40 1.247 . S
C31 O41 1.272 . S
O32 Co28 2.004 . S
O32 C37 1.259 . S
Co33 O34 2.061 . S
Co33 O39 2.052 . S
Co33 O41 2.135 . S
O34 Co33 2.061 . S
O34 C37 1.235 . S
C35 O38 1.238 . S
C35 O39 1.241 . S
C36 O29 1.247 . S
C36 O30 1.261 . S
C37 O32 1.259 . S
C37 O34 1.235 . S
O38 Co28 2.021 . S
O38 C35 1.238 . S
O39 Co33 2.052 . S
O39 C35 1.241 . S
O40 Co28 2.137 . S
O40 C31 1.247 . S
O41 Co28 2.244 . S
O41 C31 1.272 . S
O41 Co33 2.135 . S
Co42 O43 2.216 . S
Co42 O44 2.091 . S
Co42 O46 2.004 . S
Co42 O52 2.021 . S
Co42 O54 2.137 . S
Co42 O55 2.244 . S
O43 Co42 2.216 . S
O43 C50 1.247 . S
O44 Co42 2.091 . S
O44 C50 1.261 . S
C45 O54 1.247 . S
C45 O55 1.272 . S
O46 Co42 2.004 . S
O46 C51 1.259 . S
Co47 O48 2.061 . S
Co47 O53 2.052 . S
Co47 O55 2.135 . S
O48 Co47 2.061 . S
O48 C51 1.235 . S
C49 O52 1.238 . S
C49 O53 1.241 . S
C50 O43 1.247 . S
C50 O44 1.261 . S
C51 O46 1.259 . S
C51 O48 1.235 . S
O52 Co42 2.021 . S
O52 C49 1.238 . S
O53 Co47 2.052 . S
O53 C49 1.241 . S
O54 Co42 2.137 . S
O54 C45 1.247 . S
O55 Co42 2.244 . S
O55 C45 1.272 . S
O55 Co47 2.135 . S
Co56 O57 2.216 . S
Co56 O58 2.091 . S
Co56 O60 2.004 . S
Co56 O66 2.021 . S
Co56 O68 2.137 . S
Co56 O69 2.244 . S
O57 Co56 2.216 . S
O57 C64 1.247 . S
O58 Co56 2.091 . S
O58 C64 1.261 . S
C59 O68 1.247 . S
C59 O69 1.272 . S
O60 Co56 2.004 . S
O60 C65 1.259 . S
Co61 O62 2.061 . S
Co61 O67 2.052 . S
Co61 O69 2.135 . S
O62 Co61 2.061 . S
O62 C65 1.235 . S
C63 O66 1.238 . S
C63 O67 1.241 . S
C64 O57 1.247 . S
C64 O58 1.261 . S
C65 O60 1.259 . S
C65 O62 1.235 . S
O66 Co56 2.021 . S
O66 C63 1.238 . S
O67 Co61 2.052 . S
O67 C63 1.241 . S
O68 Co56 2.137 . S
O68 C59 1.247 . S
O69 Co56 2.244 . S
O69 C59 1.272 . S
O69 Co61 2.135 . S
Co70 O71 2.216 . S
Co70 O72 2.091 . S
Co70 O74 2.004 . S
Co70 O80 2.021 . S
Co70 O82 2.137 . S
Co70 O83 2.244 . S
O71 Co70 2.216 . S
O71 C78 1.247 . S
O72 Co70 2.091 . S
O72 C78 1.261 . S
C73 O82 1.247 . S
C73 O83 1.272 . S
O74 Co70 2.004 . S
O74 C79 1.259 . S
Co75 O76 2.061 . S
Co75 O81 2.052 . S
Co75 O83 2.135 . S
O76 Co75 2.061 . S
O76 C79 1.235 . S
C77 O80 1.238 . S
C77 O81 1.241 . S
C78 O71 1.247 . S
C78 O72 1.261 . S
C79 O74 1.259 . S
C79 O76 1.235 . S
O80 Co70 2.021 . S
O80 C77 1.238 . S
O81 Co75 2.052 . S
O81 C77 1.241 . S
O82 Co70 2.137 . S
O82 C73 1.247 . S
O83 Co70 2.244 . S
O83 C73 1.272 . S
O83 Co75 2.135 . S
Co84 O85 2.216 . S
Co84 O86 2.091 . S
Co84 O88 2.004 . S
Co84 O94 2.021 . S
Co84 O96 2.137 . S
Co84 O97 2.244 . S
O85 Co84 2.216 . S
O85 C92 1.247 . S
O86 Co84 2.091 . S
O86 C92 1.261 . S
C87 O96 1.247 . S
C87 O97 1.272 . S
O88 Co84 2.004 . S
O88 C93 1.259 . S
Co89 O90 2.061 . S
Co89 O95 2.052 . S
Co89 O97 2.135 . S
O90 Co89 2.061 . S
O90 C93 1.235 . S
C91 O94 1.238 . S
C91 O95 1.241 . S
C92 O85 1.247 . S
C92 O86 1.261 . S
C93 O88 1.259 . S
C93 O90 1.235 . S
O94 Co84 2.021 . S
O94 C91 1.238 . S
O95 Co89 2.052 . S
O95 C91 1.241 . S
O96 Co84 2.137 . S
O96 C87 1.247 . S
O97 Co84 2.244 . S
O97 C87 1.272 . S
O97 Co89 2.135 . S
Co98 O99 2.216 . S
Co98 O100 2.091 . S
Co98 O102 2.004 . S
Co98 O108 2.021 . S
Co98 O110 2.137 . S
Co98 O111 2.244 . S
O99 Co98 2.216 . S
O99 C106 1.247 . S
O100 Co98 2.091 . S
O100 C106 1.261 . S
C101 O110 1.247 . S
C101 O111 1.272 . S
O102 Co98 2.004 . S
O102 C107 1.259 . S
Co103 O104 2.061 . S
Co103 O109 2.052 . S
Co103 O111 2.135 . S
O104 Co103 2.061 . S
O104 C107 1.235 . S
C105 O108 1.238 . S
C105 O109 1.241 . S
C106 O99 1.247 . S
C106 O100 1.261 . S
C107 O102 1.259 . S
C107 O104 1.235 . S
O108 Co98 2.021 . S
O108 C105 1.238 . S
O109 Co103 2.052 . S
O109 C105 1.241 . S
O110 Co98 2.137 . S
O110 C101 1.247 . S
O111 Co98 2.244 . S
O111 C101 1.272 . S
O111 Co103 2.135 . S
Co112 O113 2.216 . S
Co112 O114 2.091 . S
Co112 O116 2.004 . S
Co112 O122 2.021 . S
Co112 O124 2.137 . S
Co112 O125 2.244 . S
O113 Co112 2.216 . S
O113 C120 1.247 . S
O114 Co112 2.091 . S
O114 C120 1.261 . S
C115 O124 1.247 . S
C115 O125 1.272 . S
O116 Co112 2.004 . S
O116 C121 1.259 1_565 S
Co117 O118 2.061 1_565 S
Co117 O123 2.052 . S
Co117 O125 2.135 . S
O118 Co117 2.061 1_545 S
O118 C121 1.235 . S
C119 O122 1.238 . S
C119 O123 1.241 . S
C120 O113 1.247 . S
C120 O114 1.261 . S
C121 O116 1.259 1_545 S
C121 O118 1.235 . S
O122 Co112 2.021 . S
O122 C119 1.238 . S
O123 Co117 2.052 . S
O123 C119 1.241 . S
O124 Co112 2.137 . S
O124 C115 1.247 . S
O125 Co112 2.244 . S
O125 C115 1.272 . S
O125 Co117 2.135 . S
Co126 O127 2.216 . S
Co126 O128 2.091 . S
Co126 O130 2.004 . S
Co126 O136 2.021 . S
Co126 O138 2.137 . S
Co126 O139 2.244 . S
O127 Co126 2.216 . S
O127 C134 1.247 . S
O128 Co126 2.091 . S
O128 C134 1.261 . S
C129 O138 1.247 . S
C129 O139 1.272 . S
O130 Co126 2.004 . S
O130 C135 1.259 1_655 S
Co131 O132 2.061 1_655 S
Co131 O137 2.052 . S
Co131 O139 2.135 . S
O132 Co131 2.061 1_455 S
O132 C135 1.235 . S
C133 O136 1.238 . S
C133 O137 1.241 . S
C134 O127 1.247 . S
C134 O128 1.261 . S
C135 O130 1.259 1_455 S
C135 O132 1.235 . S
O136 Co126 2.021 . S
O136 C133 1.238 . S
O137 Co131 2.052 . S
O137 C133 1.241 . S
O138 Co126 2.137 . S
O138 C129 1.247 . S
O139 Co126 2.244 . S
O139 C129 1.272 . S
O139 Co131 2.135 . S
Co140 O141 2.216 . S
Co140 O142 2.091 . S
Co140 O144 2.004 . S
Co140 O150 2.021 . S
Co140 O152 2.137 . S
Co140 O153 2.244 . S
O141 Co140 2.216 . S
O141 C148 1.247 . S
O142 Co140 2.091 . S
O142 C148 1.261 . S
C143 O152 1.247 . S
C143 O153 1.272 . S
O144 Co140 2.004 . S
O144 C149 1.259 1_545 S
Co145 O146 2.061 1_545 S
Co145 O151 2.052 . S
Co145 O153 2.135 . S
O146 Co145 2.061 1_565 S
O146 C149 1.235 . S
C147 O150 1.238 . S
C147 O151 1.241 . S
C148 O141 1.247 . S
C148 O142 1.261 . S
C149 O144 1.259 1_565 S
C149 O146 1.235 . S
O150 Co140 2.021 . S
O150 C147 1.238 . S
O151 Co145 2.052 . S
O151 C147 1.241 . S
O152 Co140 2.137 . S
O152 C143 1.247 . S
O153 Co140 2.244 . S
O153 C143 1.272 . S
O153 Co145 2.135 . S
Co154 O155 2.216 . S
Co154 O156 2.091 . S
Co154 O158 2.004 . S
Co154 O164 2.021 . S
Co154 O166 2.137 . S
Co154 O167 2.244 . S
O155 Co154 2.216 . S
O155 C162 1.247 . S
O156 Co154 2.091 . S
O156 C162 1.261 . S
C157 O166 1.247 . S
C157 O167 1.272 . S
O158 Co154 2.004 . S
O158 C163 1.259 1_455 S
Co159 O160 2.061 1_455 S
Co159 O165 2.052 . S
Co159 O167 2.135 . S
O160 Co159 2.061 1_655 S
O160 C163 1.235 . S
C161 O164 1.238 . S
C161 O165 1.241 . S
C162 O155 1.247 . S
C162 O156 1.261 . S
C163 O158 1.259 1_655 S
C163 O160 1.235 . S
O164 Co154 2.021 . S
O164 C161 1.238 . S
O165 Co159 2.052 . S
O165 C161 1.241 . S
O166 Co154 2.137 . S
O166 C157 1.247 . S
O167 Co154 2.244 . S
O167 C157 1.272 . S
O167 Co159 2.135 . S
Co168 O169 2.216 . S
Co168 O170 2.091 . S
Co168 O172 2.004 . S
Co168 O178 2.021 . S
Co168 O180 2.137 . S
Co168 O181 2.244 . S
O169 Co168 2.216 . S
O169 C176 1.247 . S
O170 Co168 2.091 . S
O170 C176 1.261 . S
C171 O180 1.247 . S
C171 O181 1.272 . S
O172 Co168 2.004 . S
O172 C177 1.259 1_545 S
Co173 O174 2.061 1_545 S
Co173 O179 2.052 . S
Co173 O181 2.135 . S
O174 Co173 2.061 1_565 S
O174 C177 1.235 . S
C175 O178 1.238 . S
C175 O179 1.241 . S
C176 O169 1.247 . S
C176 O170 1.261 . S
C177 O172 1.259 1_565 S
C177 O174 1.235 . S
O178 Co168 2.021 . S
O178 C175 1.238 . S
O179 Co173 2.052 . S
O179 C175 1.241 . S
O180 Co168 2.137 . S
O180 C171 1.247 . S
O181 Co168 2.244 . S
O181 C171 1.272 . S
O181 Co173 2.135 . S
Co182 O183 2.216 . S
Co182 O184 2.091 . S
Co182 O186 2.004 . S
Co182 O192 2.021 . S
Co182 O194 2.137 . S
Co182 O195 2.244 . S
O183 Co182 2.216 . S
O183 C190 1.247 . S
O184 Co182 2.091 . S
O184 C190 1.261 . S
C185 O194 1.247 . S
C185 O195 1.272 . S
O186 Co182 2.004 . S
O186 C191 1.259 1_455 S
Co187 O188 2.061 1_455 S
Co187 O193 2.052 . S
Co187 O195 2.135 . S
O188 Co187 2.061 1_655 S
O188 C191 1.235 . S
C189 O192 1.238 . S
C189 O193 1.241 . S
C190 O183 1.247 . S
C190 O184 1.261 . S
C191 O186 1.259 1_655 S
C191 O188 1.235 . S
O192 Co182 2.021 . S
O192 C189 1.238 . S
O193 Co187 2.052 . S
O193 C189 1.241 . S
O194 Co182 2.137 . S
O194 C185 1.247 . S
O195 Co182 2.244 . S
O195 C185 1.272 . S
O195 Co187 2.135 . S
Co196 O197 2.216 . S
Co196 O198 2.091 . S
Co196 O200 2.004 . S
Co196 O206 2.021 . S
Co196 O208 2.137 . S
Co196 O209 2.244 . S
O197 Co196 2.216 . S
O197 C204 1.247 . S
O198 Co196 2.091 . S
O198 C204 1.261 . S
C199 O208 1.247 . S
C199 O209 1.272 . S
O200 Co196 2.004 . S
O200 C205 1.259 1_565 S
Co201 O202 2.061 1_565 S
Co201 O207 2.052 . S
Co201 O209 2.135 . S
O202 Co201 2.061 1_545 S
O202 C205 1.235 . S
C203 O206 1.238 . S
C203 O207 1.241 . S
C204 O197 1.247 . S
C204 O198 1.261 . S
C205 O200 1.259 1_545 S
C205 O202 1.235 . S
O206 Co196 2.021 . S
O206 C203 1.238 . S
O207 Co201 2.052 . S
O207 C203 1.241 . S
O208 Co196 2.137 . S
O208 C199 1.247 . S
O209 Co196 2.244 . S
O209 C199 1.272 . S
O209 Co201 2.135 . S
Co210 O211 2.216 . S
Co210 O212 2.091 . S
Co210 O214 2.004 . S
Co210 O220 2.021 . S
Co210 O222 2.137 . S
Co210 O223 2.244 . S
O211 Co210 2.216 . S
O211 C218 1.247 . S
O212 Co210 2.091 . S
O212 C218 1.261 . S
C213 O222 1.247 . S
C213 O223 1.272 . S
O214 Co210 2.004 . S
O214 C219 1.259 1_655 S
Co215 O216 2.061 1_655 S
Co215 O221 2.052 . S
Co215 O223 2.135 . S
O216 Co215 2.061 1_455 S
O216 C219 1.235 . S
C217 O220 1.238 . S
C217 O221 1.241 . S
C218 O211 1.247 . S
C218 O212 1.261 . S
C219 O214 1.259 1_455 S
C219 O216 1.235 . S
O220 Co210 2.021 . S
O220 C217 1.238 . S
O221 Co215 2.052 . S
O221 C217 1.241 . S
O222 Co210 2.137 . S
O222 C213 1.247 . S
O223 Co210 2.244 . S
O223 C213 1.272 . S
O223 Co215 2.135 . S
C224 C225 1.387 . S
C224 H228 0.950 . S
C224 C233 1.390 . S
C225 C224 1.387 . S
C225 C227 1.387 . S
H226 C233 0.950 . S
C227 C225 1.387 . S
C227 C229 1.390 . S
C227 H231 0.950 . S
H228 C224 0.950 . S
C229 C227 1.390 . S
C229 C230 1.387 . S
C229 H232 0.950 . S
C230 C229 1.387 . S
C230 C233 1.387 . S
H231 C227 0.950 . S
H232 C229 0.950 . S
C233 C224 1.390 . S
C233 H226 0.950 . S
C233 C230 1.387 . S
C234 C235 1.387 . S
C234 H238 0.950 . S
C234 C243 1.390 . S
C235 C234 1.387 . S
C235 C237 1.387 . S
H236 C243 0.950 . S
C237 C235 1.387 . S
C237 C239 1.390 . S
C237 H241 0.950 . S
H238 C234 0.950 . S
C239 C237 1.390 . S
C239 C240 1.387 . S
C239 H242 0.950 . S
C240 C239 1.387 . S
C240 C243 1.387 . S
H241 C237 0.950 . S
H242 C239 0.950 . S
C243 C234 1.390 . S
C243 H236 0.950 . S
C243 C240 1.387 . S
C244 C245 1.387 . S
C244 H248 0.950 . S
C244 C253 1.390 . S
C245 C244 1.387 . S
C245 C247 1.387 . S
H246 C253 0.950 . S
C247 C245 1.387 . S
C247 C249 1.390 . S
C247 H251 0.950 . S
H248 C244 0.950 . S
C249 C247 1.390 . S
C249 C250 1.387 . S
C249 H252 0.950 . S
C250 C249 1.387 . S
C250 C253 1.387 . S
H251 C247 0.950 . S
H252 C249 0.950 . S
C253 C244 1.390 . S
C253 H246 0.950 . S
C253 C250 1.387 . S
C254 C255 1.387 . S
C254 H258 0.950 . S
C254 C263 1.390 . S
C255 C254 1.387 . S
C255 C257 1.387 . S
H256 C263 0.950 . S
C257 C255 1.387 . S
C257 C259 1.390 . S
C257 H261 0.950 . S
H258 C254 0.950 . S
C259 C257 1.390 . S
C259 C260 1.387 . S
C259 H262 0.950 . S
C260 C259 1.387 . S
C260 C263 1.387 . S
H261 C257 0.950 . S
H262 C259 0.950 . S
C263 C254 1.390 . S
C263 H256 0.950 . S
C263 C260 1.387 . S
C264 C265 1.387 . S
C264 H268 0.950 . S
C264 C273 1.390 . S
C265 C264 1.387 . S
C265 C267 1.387 . S
H266 C273 0.950 . S
C267 C265 1.387 . S
C267 C269 1.390 . S
C267 H271 0.950 . S
H268 C264 0.950 . S
C269 C267 1.390 . S
C269 C270 1.387 . S
C269 H272 0.950 . S
C270 C269 1.387 . S
C270 C273 1.387 . S
H271 C267 0.950 . S
H272 C269 0.950 . S
C273 C264 1.390 . S
C273 H266 0.950 . S
C273 C270 1.387 . S
C274 C275 1.387 . S
C274 H278 0.950 . S
C274 C283 1.390 . S
C275 C274 1.387 . S
C275 C277 1.387 . S
H276 C283 0.950 . S
C277 C275 1.387 . S
C277 C279 1.390 . S
C277 H281 0.950 . S
H278 C274 0.950 . S
C279 C277 1.390 . S
C279 C280 1.387 . S
C279 H282 0.950 . S
C280 C279 1.387 . S
C280 C283 1.387 . S
H281 C277 0.950 . S
H282 C279 0.950 . S
C283 C274 1.390 . S
C283 H276 0.950 . S
C283 C280 1.387 . S
C284 C285 1.387 . S
C284 H288 0.950 . S
C284 C293 1.390 . S
C285 C284 1.387 . S
C285 C287 1.387 . S
H286 C293 0.950 . S
C287 C285 1.387 . S
C287 C289 1.390 . S
C287 H291 0.950 . S
H288 C284 0.950 . S
C289 C287 1.390 . S
C289 C290 1.387 . S
C289 H292 0.950 . S
C290 C289 1.387 . S
C290 C293 1.387 . S
H291 C287 0.950 . S
H292 C289 0.950 . S
C293 C284 1.390 . S
C293 H286 0.950 . S
C293 C290 1.387 . S
C294 C295 1.387 . S
C294 H298 0.950 . S
C294 C303 1.390 . S
C295 C294 1.387 . S
C295 C297 1.387 . S
H296 C303 0.950 . S
C297 C295 1.387 . S
C297 C299 1.390 . S
C297 H301 0.950 . S
H298 C294 0.950 . S
C299 C297 1.390 . S
C299 C300 1.387 . S
C299 H302 0.950 . S
C300 C299 1.387 . S
C300 C303 1.387 . S
H301 C297 0.950 . S
H302 C299 0.950 . S
C303 C294 1.390 . S
C303 H296 0.950 . S
C303 C300 1.387 . S
C304 C305 1.387 . S
C304 H308 0.950 . S
C304 C313 1.390 . S
C305 C304 1.387 . S
C305 C307 1.387 . S
H306 C313 0.950 . S
C307 C305 1.387 . S
C307 C309 1.390 . S
C307 H311 0.950 . S
H308 C304 0.950 . S
C309 C307 1.390 . S
C309 C310 1.387 . S
C309 H312 0.950 . S
C310 C309 1.387 . S
C310 C313 1.387 . S
H311 C307 0.950 . S
H312 C309 0.950 . S
C313 C304 1.390 . S
C313 H306 0.950 . S
C313 C310 1.387 . S
C314 C315 1.387 . S
C314 H318 0.950 . S
C314 C323 1.390 . S
C315 C314 1.387 . S
C315 C317 1.387 . S
H316 C323 0.950 . S
C317 C315 1.387 . S
C317 C319 1.390 . S
C317 H321 0.950 . S
H318 C314 0.950 . S
C319 C317 1.390 . S
C319 C320 1.387 . S
C319 H322 0.950 . S
C320 C319 1.387 . S
C320 C323 1.387 . S
H321 C317 0.950 . S
H322 C319 0.950 . S
C323 C314 1.390 . S
C323 H316 0.950 . S
C323 C320 1.387 . S
C324 C325 1.387 . S
C324 H328 0.950 . S
C324 C333 1.390 . S
C325 C324 1.387 . S
C325 C327 1.387 . S
H326 C333 0.950 . S
C327 C325 1.387 . S
C327 C329 1.390 . S
C327 H331 0.950 . S
H328 C324 0.950 . S
C329 C327 1.390 . S
C329 C330 1.387 . S
C329 H332 0.950 . S
C330 C329 1.387 . S
C330 C333 1.387 . S
H331 C327 0.950 . S
H332 C329 0.950 . S
C333 C324 1.390 . S
C333 H326 0.950 . S
C333 C330 1.387 . S
C334 C335 1.387 . S
C334 H338 0.950 . S
C334 C343 1.390 . S
C335 C334 1.387 . S
C335 C337 1.387 . S
H336 C343 0.950 . S
C337 C335 1.387 . S
C337 C339 1.390 . S
C337 H341 0.950 . S
H338 C334 0.950 . S
C339 C337 1.390 . S
C339 C340 1.387 . S
C339 H342 0.950 . S
C340 C339 1.387 . S
C340 C343 1.387 . S
H341 C337 0.950 . S
H342 C339 0.950 . S
C343 C334 1.390 . S
C343 H336 0.950 . S
C343 C340 1.387 . S
C344 C345 1.387 . S
C344 H348 0.950 . S
C344 C353 1.390 . S
C345 C344 1.387 . S
C345 C347 1.387 . S
H346 C353 0.950 . S
C347 C345 1.387 . S
C347 C349 1.390 . S
C347 H351 0.950 . S
H348 C344 0.950 . S
C349 C347 1.390 . S
C349 C350 1.387 . S
C349 H352 0.950 . S
C350 C349 1.387 . S
C350 C353 1.387 . S
H351 C347 0.950 . S
H352 C349 0.950 . S
C353 C344 1.390 . S
C353 H346 0.950 . S
C353 C350 1.387 . S
C354 C355 1.387 . S
C354 H358 0.950 . S
C354 C363 1.390 . S
C355 C354 1.387 . S
C355 C357 1.387 . S
H356 C363 0.950 . S
C357 C355 1.387 . S
C357 C359 1.390 . S
C357 H361 0.950 . S
H358 C354 0.950 . S
C359 C357 1.390 . S
C359 C360 1.387 . S
C359 H362 0.950 . S
C360 C359 1.387 . S
C360 C363 1.387 . S
H361 C357 0.950 . S
H362 C359 0.950 . S
C363 C354 1.390 . S
C363 H356 0.950 . S
C363 C360 1.387 . S
C364 C365 1.387 . S
C364 H368 0.950 . S
C364 C373 1.390 . S
C365 C364 1.387 . S
C365 C367 1.387 . S
H366 C373 0.950 . S
C367 C365 1.387 . S
C367 C369 1.390 . S
C367 H371 0.950 . S
H368 C364 0.950 . S
C369 C367 1.390 . S
C369 C370 1.387 . S
C369 H372 0.950 . S
C370 C369 1.387 . S
C370 C373 1.387 . S
H371 C367 0.950 . S
H372 C369 0.950 . S
C373 C364 1.390 . S
C373 H366 0.950 . S
C373 C370 1.387 . S
C374 C375 1.387 . S
C374 H378 0.950 . S
C374 C383 1.390 . S
C375 C374 1.387 . S
C375 C377 1.387 . S
H376 C383 0.950 . S
C377 C375 1.387 . S
C377 C379 1.390 . S
C377 H381 0.950 . S
H378 C374 0.950 . S
C379 C377 1.390 . S
C379 C380 1.387 . S
C379 H382 0.950 . S
C380 C379 1.387 . S
C380 C383 1.387 . S
H381 C377 0.950 . S
H382 C379 0.950 . S
C383 C374 1.390 . S
C383 H376 0.950 . S
C383 C380 1.387 . S
C384 C385 1.387 . S
C384 H388 0.950 . S
C384 C393 1.390 . S
C385 C384 1.387 . S
C385 C387 1.387 . S
H386 C393 0.950 . S
C387 C385 1.387 . S
C387 C389 1.390 . S
C387 H391 0.950 . S
H388 C384 0.950 . S
C389 C387 1.390 . S
C389 C390 1.387 . S
C389 H392 0.950 . S
C390 C389 1.387 . S
C390 C393 1.387 . S
H391 C387 0.950 . S
H392 C389 0.950 . S
C393 C384 1.390 . S
C393 H386 0.950 . S
C393 C390 1.387 . S
C394 C395 1.387 . S
C394 H398 0.950 . S
C394 C403 1.390 . S
C395 C394 1.387 . S
C395 C397 1.387 . S
H396 C403 0.950 . S
C397 C395 1.387 . S
C397 C399 1.390 . S
C397 H401 0.950 . S
H398 C394 0.950 . S
C399 C397 1.390 . S
C399 C400 1.387 . S
C399 H402 0.950 . S
C400 C399 1.387 . S
C400 C403 1.387 . S
H401 C397 0.950 . S
H402 C399 0.950 . S
C403 C394 1.390 . S
C403 H396 0.950 . S
C403 C400 1.387 . S
C404 C405 1.387 . S
C404 H408 0.950 . S
C404 C413 1.390 . S
C405 C404 1.387 . S
C405 C407 1.387 . S
H406 C413 0.950 . S
C407 C405 1.387 . S
C407 C409 1.390 . S
C407 H411 0.950 . S
H408 C404 0.950 . S
C409 C407 1.390 . S
C409 C410 1.387 . S
C409 H412 0.950 . S
C410 C409 1.387 . S
C410 C413 1.387 . S
H411 C407 0.950 . S
H412 C409 0.950 . S
C413 C404 1.390 . S
C413 H406 0.950 . S
C413 C410 1.387 . S
C414 C415 1.387 . S
C414 H418 0.950 . S
C414 C423 1.390 . S
C415 C414 1.387 . S
C415 C417 1.387 . S
H416 C423 0.950 . S
C417 C415 1.387 . S
C417 C419 1.390 . S
C417 H421 0.950 . S
H418 C414 0.950 . S
C419 C417 1.390 . S
C419 C420 1.387 . S
C419 H422 0.950 . S
C420 C419 1.387 . S
C420 C423 1.387 . S
H421 C417 0.950 . S
H422 C419 0.950 . S
C423 C414 1.390 . S
C423 H416 0.950 . S
C423 C420 1.387 . S
C424 C425 1.387 . S
C424 H428 0.950 . S
C424 C433 1.390 . S
C425 C424 1.387 . S
C425 C427 1.387 . S
H426 C433 0.950 . S
C427 C425 1.387 . S
C427 C429 1.390 . S
C427 H431 0.950 . S
H428 C424 0.950 . S
C429 C427 1.390 . S
C429 C430 1.387 . S
C429 H432 0.950 . S
C430 C429 1.387 . S
C430 C433 1.387 . S
H431 C427 0.950 . S
H432 C429 0.950 . S
C433 C424 1.390 . S
C433 H426 0.950 . S
C433 C430 1.387 . S
C434 C435 1.387 . S
C434 H438 0.950 . S
C434 C443 1.390 . S
C435 C434 1.387 . S
C435 C437 1.387 . S
H436 C443 0.950 . S
C437 C435 1.387 . S
C437 C439 1.390 . S
C437 H441 0.950 . S
H438 C434 0.950 . S
C439 C437 1.390 . S
C439 C440 1.387 . S
C439 H442 0.950 . S
C440 C439 1.387 . S
C440 C443 1.387 . S
H441 C437 0.950 . S
H442 C439 0.950 . S
C443 C434 1.390 . S
C443 H436 0.950 . S
C443 C440 1.387 . S
C444 C445 1.387 . S
C444 H448 0.950 . S
C444 C453 1.390 . S
C445 C444 1.387 . S
C445 C447 1.387 . S
H446 C453 0.950 . S
C447 C445 1.387 . S
C447 C449 1.390 . S
C447 H451 0.950 . S
H448 C444 0.950 . S
C449 C447 1.390 . S
C449 C450 1.387 . S
C449 H452 0.950 . S
C450 C449 1.387 . S
C450 C453 1.387 . S
H451 C447 0.950 . S
H452 C449 0.950 . S
C453 C444 1.390 . S
C453 H446 0.950 . S
C453 C450 1.387 . S
C454 C455 1.387 . S
C454 H458 0.950 . S
C454 C463 1.390 . S
C455 C454 1.387 . S
C455 C457 1.387 . S
H456 C463 0.950 . S
C457 C455 1.387 . S
C457 C459 1.390 . S
C457 H461 0.950 . S
H458 C454 0.950 . S
C459 C457 1.390 . S
C459 C460 1.387 . S
C459 H462 0.950 . S
C460 C459 1.387 . S
C460 C463 1.387 . S
H461 C457 0.950 . S
H462 C459 0.950 . S
C463 C454 1.390 . S
C463 H456 0.950 . S
C463 C460 1.387 . S
C464 C465 1.387 . S
C464 H468 0.950 . S
C464 C473 1.390 . S
C465 C464 1.387 . S
C465 C467 1.387 . S
H466 C473 0.950 . S
C467 C465 1.387 . S
C467 C469 1.390 . S
C467 H471 0.950 . S
H468 C464 0.950 . S
C469 C467 1.390 . S
C469 C470 1.387 . S
C469 H472 0.950 . S
C470 C469 1.387 . S
C470 C473 1.387 . S
H471 C467 0.950 . S
H472 C469 0.950 . S
C473 C464 1.390 . S
C473 H466 0.950 . S
C473 C470 1.387 . S
C474 C475 1.387 . S
C474 H478 0.950 . S
C474 C483 1.390 . S
C475 C474 1.387 . S
C475 C477 1.387 . S
H476 C483 0.950 . S
C477 C475 1.387 . S
C477 C479 1.390 . S
C477 H481 0.950 . S
H478 C474 0.950 . S
C479 C477 1.390 . S
C479 C480 1.387 . S
C479 H482 0.950 . S
C480 C479 1.387 . S
C480 C483 1.387 . S
H481 C477 0.950 . S
H482 C479 0.950 . S
C483 C474 1.390 . S
C483 H476 0.950 . S
C483 C480 1.387 . S
C484 C485 1.387 . S
C484 H488 0.950 . S
C484 C493 1.390 . S
C485 C484 1.387 . S
C485 C487 1.387 . S
H486 C493 0.950 . S
C487 C485 1.387 . S
C487 C489 1.390 . S
C487 H491 0.950 . S
H488 C484 0.950 . S
C489 C487 1.390 . S
C489 C490 1.387 . S
C489 H492 0.950 . S
C490 C489 1.387 . S
C490 C493 1.387 . S
H491 C487 0.950 . S
H492 C489 0.950 . S
C493 C484 1.390 . S
C493 H486 0.950 . S
C493 C490 1.387 . S
C494 C495 1.387 . S
C494 H498 0.950 . S
C494 C503 1.390 . S
C495 C494 1.387 . S
C495 C497 1.387 . S
H496 C503 0.950 . S
C497 C495 1.387 . S
C497 C499 1.390 . S
C497 H501 0.950 . S
H498 C494 0.950 . S
C499 C497 1.390 . S
C499 C500 1.387 . S
C499 H502 0.950 . S
C500 C499 1.387 . S
C500 C503 1.387 . S
H501 C497 0.950 . S
H502 C499 0.950 . S
C503 C494 1.390 . S
C503 H496 0.950 . S
C503 C500 1.387 . S
C504 C505 1.387 . S
C504 H508 0.950 . S
C504 C513 1.390 1_544 S
C505 C504 1.387 . S
C505 C507 1.387 . S
H506 C513 0.950 . S
C507 C505 1.387 . S
C507 C509 1.390 1_544 S
C507 H511 0.950 . S
H508 C504 0.950 . S
C509 C507 1.390 1_566 S
C509 C510 1.387 . S
C509 H512 0.950 . S
C510 C509 1.387 . S
C510 C513 1.387 . S
H511 C507 0.950 . S
H512 C509 0.950 . S
C513 C504 1.390 1_566 S
C513 H506 0.950 . S
C513 C510 1.387 . S
C514 C515 1.387 . S
C514 H518 0.950 . S
C514 C523 1.390 1_456 S
C515 C514 1.387 . S
C515 C517 1.387 . S
H516 C523 0.950 . S
C517 C515 1.387 . S
C517 C519 1.390 1_456 S
C517 H521 0.950 . S
H518 C514 0.950 . S
C519 C517 1.390 1_654 S
C519 C520 1.387 . S
C519 H522 0.950 . S
C520 C519 1.387 . S
C520 C523 1.387 . S
H521 C517 0.950 . S
H522 C519 0.950 . S
C523 C514 1.390 1_654 S
C523 H516 0.950 . S
C523 C520 1.387 . S
C524 C525 1.387 . S
C524 H528 0.950 . S
C524 C533 1.390 1_546 S
C525 C524 1.387 . S
C525 C527 1.387 . S
H526 C533 0.950 . S
C527 C525 1.387 . S
C527 C529 1.390 1_546 S
C527 H531 0.950 . S
H528 C524 0.950 . S
C529 C527 1.390 1_564 S
C529 C530 1.387 . S
C529 H532 0.950 . S
C530 C529 1.387 . S
C530 C533 1.387 . S
H531 C527 0.950 . S
H532 C529 0.950 . S
C533 C524 1.390 1_564 S
C533 H526 0.950 . S
C533 C530 1.387 . S
C534 C535 1.387 . S
C534 H538 0.950 . S
C534 C543 1.390 1_656 S
C535 C534 1.387 . S
C535 C537 1.387 . S
H536 C543 0.950 . S
C537 C535 1.387 . S
C537 C539 1.390 1_656 S
C537 H541 0.950 . S
H538 C534 0.950 . S
C539 C537 1.390 1_454 S
C539 C540 1.387 . S
C539 H542 0.950 . S
C540 C539 1.387 . S
C540 C543 1.387 . S
H541 C537 0.950 . S
H542 C539 0.950 . S
C543 C534 1.390 1_454 S
C543 H536 0.950 . S
C543 C540 1.387 . S
C225 C8 1.341 . S
C230 C106 1.340 . S
C235 C22 1.341 . S
C240 C64 1.340 . S
C245 C78 1.341 . S
C250 C36 1.340 . S
C255 C50 1.340 . S
C260 C92 1.341 . S
C265 C120 1.340 . S
C270 C218 1.341 . S
C275 C176 1.341 . S
C280 C134 1.340 . S
C285 C190 1.341 . S
C290 C148 1.340 . S
C295 C204 1.341 . S
C300 C162 1.340 . S
C305 C9 1.382 . S
C310 C157 1.463 . S
C315 C23 1.384 . S
C320 C115 1.463 . S
C325 C129 1.463 . S
C330 C37 1.380 . S
C335 C51 1.384 . S
C340 C143 1.463 . S
C345 C65 1.381 . S
C350 C185 1.463 . S
C355 C199 1.463 . S
C360 C79 1.381 . S
C365 C93 1.384 . S
C370 C213 1.463 . S
C375 C171 1.463 . S
C380 C107 1.384 . S
C385 C121 1.384 . S
C390 C45 1.463 . S
C395 C3 1.463 . S
C400 C135 1.383 . S
C405 C149 1.380 . S
C410 C17 1.463 . S
C415 C31 1.463 . S
C420 C163 1.383 . S
C425 C177 1.384 . S
C430 C73 1.463 . S
C435 C87 1.463 . S
C440 C191 1.384 . S
C445 C101 1.463 . S
C450 C205 1.380 . S
C455 C59 1.463 . S
C460 C219 1.384 . S
C465 C63 1.558 . S
C470 C7 1.558 . S
C475 C77 1.558 . S
C480 C21 1.558 . S
C485 C35 1.558 . S
C490 C91 1.558 . S
C495 C105 1.558 . S
C500 C49 1.558 . S
C505 C175 1.558 . S
C510 C119 1.558 . S
C515 C189 1.558 . S
C520 C133 1.558 . S
C525 C147 1.558 . S
C530 C203 1.558 . S
C535 C217 1.558 . S
C540 C161 1.558 . S
