# Generated by pormake.
# Topology lon, (4)-cn, num edge types: 1
# Building blocks:
#     Node 0, Type 0, BuildingBlock: NAHDIM_clean_sbu_0, # of connection points: 4
#     Node 1, Type 0, BuildingBlock: NAHDIM_clean_sbu_0, # of connection points: 4
#     Node 2, Type 0, BuildingBlock: NAHDIM_clean_sbu_0, # of connection points: 4
#     Node 3, Type 0, BuildingBlock: NAHDIM_clean_sbu_0, # of connection points: 4
#     Edge 4, Type (0, 0), BuildingBlock: MIFKUJ_clean_linker_0, # of connection points: 2
#     Edge 5, Type (0, 0), BuildingBlock: MIFKUJ_clean_linker_0, # of connection points: 2
#     Edge 6, Type (0, 0), BuildingBlock: MIFKUJ_clean_linker_0, # of connection points: 2
#     Edge 7, Type (0, 0), BuildingBlock: MIFKUJ_clean_linker_0, # of connection points: 2
#     Edge 8, Type (0, 0), BuildingBlock: MIFKUJ_clean_linker_0, # of connection points: 2
#     Edge 9, Type (0, 0), BuildingBlock: MIFKUJ_clean_linker_0, # of connection points: 2
#     Edge 10, Type (0, 0), BuildingBlock: MIFKUJ_clean_linker_0, # of connection points: 2
#     Edge 11, Type (0, 0), BuildingBlock: MIFKUJ_clean_linker_0, # of connection points: 2
# Relax obj value: 0.020
# Max RMSD: 0.062
# Mean RMSD: 0.061
data_MOF--net-lon--node1-NAHDIM_clean_sbu_0--edge1-MIFKUJ_clean_linker_0
_symmetry_space_group_name_H-M    P1
_symmetry_Int_Tables_number       1
_symmetry_cell_setting            triclinic
loop_
_symmetry_equiv_pos_as_xyz
'x, y, z'
_cell_length_a     32.186381
_cell_length_b     32.133233
_cell_length_c     53.302007
_cell_angle_alpha  88.214475
_cell_angle_beta   89.981411
_cell_angle_gamma 120.0996
loop_
_atom_site_label
_atom_site_type_symbol
_atom_site_fract_x
_atom_site_fract_y
_atom_site_fract_z
_atom_type_partial_charge
C0 C 0.35679 0.60341 0.02945 0.0
O1 O 0.31994 0.60055 0.01734 0.0
O2 O 0.36831 0.72798 0.05343 0.0
Zn3 Zn 0.33421 0.65761 0.06379 0.0
O4 O 0.26594 0.62415 0.05153 0.0
C5 C 0.31262 0.66881 0.11454 0.0
O6 O 0.29016 0.68825 0.10293 0.0
O7 O 0.3696 0.62627 0.04967 0.0
C8 C 0.24294 0.64626 0.04751 0.0
O9 O 0.26397 0.69258 0.05141 0.0
C10 C 0.37682 0.74278 0.0306 0.0
O11 O 0.36311 0.71123 0.01289 0.0
O12 O 0.33403 0.6524 0.10159 0.0
C13 C 0.77016 0.35147 0.5352 0.0
O14 O 0.74148 0.31364 0.52235 0.0
O15 O 0.65123 0.36269 0.55115 0.0
Zn16 Zn 0.68305 0.32577 0.56381 0.0
O17 O 0.65086 0.25915 0.54971 0.0
C18 C 0.69898 0.35739 0.6144 0.0
O19 O 0.72304 0.39969 0.60271 0.0
O20 O 0.75302 0.36294 0.55348 0.0
C21 C 0.60784 0.23882 0.54211 0.0
O22 O 0.58362 0.26159 0.54344 0.0
C23 C 0.61766 0.36304 0.56356 0.0
O24 O 0.60306 0.33849 0.58504 0.0
O25 O 0.67853 0.31983 0.60154 0.0
C26 C 0.38372 0.61633 0.46964 0.0
O27 O 0.35367 0.62082 0.48443 0.0
O28 O 0.28701 0.6306 0.44657 0.0
Zn29 Zn 0.35627 0.66782 0.43452 0.0
O30 O 0.38998 0.73569 0.44683 0.0
C31 C 0.32525 0.67143 0.38421 0.0
O32 O 0.29042 0.6728 0.39631 0.0
O33 O 0.39083 0.63388 0.4473 0.0
C34 C 0.3727 0.76343 0.44395 0.0
O35 O 0.33142 0.74758 0.4327 0.0
C36 C 0.27079 0.64063 0.46581 0.0
O37 O 0.30013 0.67724 0.47922 0.0
O38 O 0.35792 0.66941 0.39666 0.0
C39 C 0.75857 0.4094 0.95852 0.0
O40 O 0.7349 0.43288 0.95824 0.0
O41 O 0.63703 0.26556 0.94593 0.0
Zn42 Zn 0.6722 0.33594 0.93571 0.0
O43 O 0.63603 0.36697 0.94899 0.0
C44 C 0.65498 0.30827 0.88383 0.0
O45 O 0.62757 0.2652 0.89416 0.0
O46 O 0.73886 0.36737 0.9499 0.0
C47 C 0.59837 0.36159 0.93839 0.0
O48 O 0.58262 0.33485 0.91862 0.0
C49 C 0.62489 0.25101 0.96861 0.0
O50 O 0.6358 0.28281 0.98601 0.0
O51 O 0.67743 0.34393 0.89786 0.0
H52 H 0.36473 0.64165 0.14446 0.0
H53 H 0.36862 0.6419 0.19026 0.0
H54 H 0.26717 0.69226 0.19317 0.0
H55 H 0.26397 0.6932 0.14741 0.0
H56 H 0.33843 0.74135 0.22361 0.0
H57 H 0.2345 0.57393 0.2083 0.0
H58 H 0.21057 0.49607 0.1895 0.0
H59 H 0.33025 0.49379 0.22365 0.0
H60 H 0.35528 0.572 0.2424 0.0
H61 H 0.26868 0.68821 0.35218 0.0
H62 H 0.26936 0.68806 0.30634 0.0
H63 H 0.3836 0.65483 0.30749 0.0
H64 H 0.38332 0.65503 0.35345 0.0
H65 H 0.30913 0.59772 0.2753 0.0
H66 H 0.41064 0.76501 0.29179 0.0
H67 H 0.43201 0.84187 0.31102 0.0
H68 H 0.31335 0.84299 0.27489 0.0
H69 H 0.29082 0.76572 0.25572 0.0
C70 C 0.3431 0.65259 0.15485 0.0
C71 C 0.31399 0.66735 0.14229 0.0
C72 C 0.34523 0.65255 0.18105 0.0
C73 C 0.3178 0.66663 0.19519 0.0
C74 C 0.28868 0.68129 0.18266 0.0
C75 C 0.28679 0.68167 0.15649 0.0
C76 C 0.32004 0.667 0.22301 0.0
C77 C 0.33141 0.70973 0.2349 0.0
C78 C 0.31204 0.62611 0.23775 0.0
C79 C 0.29705 0.57907 0.22653 0.0
C80 C 0.25594 0.55702 0.21163 0.0
C81 C 0.24213 0.51279 0.20102 0.0
C82 C 0.26895 0.49007 0.20532 0.0
C83 C 0.30956 0.51147 0.2203 0.0
C84 C 0.32355 0.55573 0.23094 0.0
C85 C 0.29402 0.68092 0.34272 0.0
C86 C 0.32603 0.67173 0.35645 0.0
C87 C 0.29444 0.681 0.31652 0.0
C88 C 0.32675 0.67176 0.30356 0.0
C89 C 0.35844 0.6621 0.31718 0.0
C90 C 0.35834 0.66242 0.34341 0.0
C91 C 0.32707 0.67187 0.27578 0.0
C92 C 0.31625 0.6293 0.26393 0.0
C93 C 0.33521 0.71276 0.26108 0.0
C94 C 0.34878 0.75933 0.27251 0.0
C95 C 0.38885 0.78143 0.28811 0.0
C96 C 0.40122 0.82512 0.29897 0.0
C97 C 0.37398 0.84724 0.29423 0.0
C98 C 0.33438 0.82578 0.27857 0.0
C99 C 0.32182 0.78206 0.26768 0.0
H100 H 0.38363 0.88107 0.30266 0.0
H101 H 0.25819 0.45582 0.19709 0.0
H102 H 0.7369 0.43057 0.64736 0.0
H103 H 0.72969 0.42409 0.69315 0.0
H104 H 0.64536 0.26944 0.69006 0.0
H105 H 0.65179 0.27559 0.64425 0.0
H106 H 0.60603 0.30344 0.72224 0.0
H107 H 0.76312 0.32513 0.70654 0.0
H108 H 0.84538 0.36598 0.68861 0.0
H109 H 0.87937 0.49316 0.72833 0.0
H110 H 0.79706 0.45327 0.74625 0.0
H111 H 0.61673 0.23887 0.84893 0.0
H112 H 0.62463 0.24971 0.80332 0.0
H113 H 0.71098 0.40345 0.81033 0.0
H114 H 0.70404 0.39285 0.8561 0.0
H115 H 0.74937 0.3729 0.77621 0.0
H116 H 0.59337 0.35103 0.79284 0.0
H117 H 0.51117 0.31067 0.81082 0.0
H118 H 0.47494 0.18479 0.76935 0.0
H119 H 0.55716 0.22416 0.75137 0.0
C120 C 0.71687 0.39515 0.6564 0.0
C121 C 0.69504 0.35358 0.64215 0.0
C122 C 0.71293 0.39152 0.68259 0.0
C123 C 0.6874 0.34625 0.69503 0.0
C124 C 0.66526 0.30473 0.68084 0.0
C125 C 0.66912 0.30832 0.65466 0.0
C126 C 0.68334 0.34208 0.72282 0.0
C127 C 0.63736 0.31811 0.73405 0.0
C128 C 0.72424 0.36241 0.73821 0.0
C129 C 0.77378 0.38638 0.72753 0.0
C130 C 0.78802 0.36194 0.7113 0.0
C131 C 0.83467 0.38489 0.70116 0.0
C132 C 0.86754 0.43218 0.70727 0.0
C133 C 0.85385 0.45656 0.72359 0.0
C134 C 0.80722 0.43378 0.73375 0.0
C135 C 0.63735 0.27504 0.84081 0.0
C136 C 0.65963 0.31502 0.85616 0.0
C137 C 0.64166 0.28118 0.81471 0.0
C138 C 0.66784 0.32744 0.8034 0.0
C139 C 0.69051 0.36743 0.81866 0.0
C140 C 0.6864 0.36131 0.84481 0.0
C141 C 0.67203 0.33392 0.77564 0.0
C142 C 0.71802 0.35836 0.76442 0.0
C143 C 0.63113 0.31412 0.76024 0.0
C144 C 0.58157 0.29041 0.77093 0.0
C145 C 0.56798 0.31461 0.7877 0.0
C146 C 0.52137 0.29193 0.79787 0.0
C147 C 0.48789 0.24516 0.79128 0.0
C148 C 0.50093 0.221 0.77446 0.0
C149 C 0.54752 0.2435 0.76425 0.0
H150 H 0.45181 0.22766 0.79917 0.0
H151 H 0.90364 0.44989 0.69941 0.0
H152 H 0.33733 0.55035 0.98746 0.0
H153 H 0.37873 0.50965 0.97214 0.0
H154 H 0.47527 0.56102 0.03442 0.0
H155 H 0.43441 0.60237 0.04976 0.0
H156 H 0.52297 0.57091 0.9908 0.0
H157 H 0.3838 0.4456 0.03465 0.0
H158 H 0.29733 0.39562 0.04483 0.0
H159 H 0.27013 0.34703 0.96929 0.0
H160 H 0.3564 0.39727 0.95857 0.0
H161 H 0.61979 0.41679 0.97969 0.0
H162 H 0.57881 0.4579 0.99503 0.0
H163 H 0.47965 0.40359 0.93393 0.0
H164 H 0.51989 0.3616 0.9187 0.0
H165 H 0.43333 0.39535 0.977 0.0
H166 H 0.57219 0.52047 0.93301 0.0
H167 H 0.65857 0.57053 0.92263 0.0
H168 H 0.68632 0.6197 0.99805 0.0
H169 H 0.60015 0.56939 0.00898 0.0
C170 C 0.3674 0.55308 0.99791 0.0
C171 C 0.38243 0.57946 0.0199 0.0
C172 C 0.39091 0.52962 0.98917 0.0
C173 C 0.42971 0.53182 0.00231 0.0
C174 C 0.44533 0.55878 0.02403 0.0
C175 C 0.42184 0.58227 0.0328 0.0
C176 C 0.45399 0.50597 0.9934 0.0
C177 C 0.50352 0.53242 0.9881 0.0
C178 C 0.42837 0.45594 0.98932 0.0
C179 C 0.3765 0.42556 0.99575 0.0
C180 C 0.35933 0.42455 0.02016 0.0
C181 C 0.31036 0.39612 0.02603 0.0
C182 C 0.27824 0.36826 0.0077 0.0
C183 C 0.29504 0.36868 0.98346 0.0
C184 C 0.34397 0.39709 0.97748 0.0
C185 C 0.58924 0.41353 0.96951 0.0
C186 C 0.57321 0.38603 0.94791 0.0
C187 C 0.56598 0.43725 0.97824 0.0
C188 C 0.52656 0.43437 0.96543 0.0
C189 C 0.51006 0.4064 0.94408 0.0
C190 C 0.53319 0.38251 0.93537 0.0
C191 C 0.50234 0.46028 0.97437 0.0
C192 C 0.45282 0.43385 0.97969 0.0
C193 C 0.52796 0.51035 0.97842 0.0
C194 C 0.57978 0.5408 0.97187 0.0
C195 C 0.59676 0.54167 0.94743 0.0
C196 C 0.64568 0.57014 0.94144 0.0
C197 C 0.67793 0.59818 0.95969 0.0
C198 C 0.6613 0.59791 0.98395 0.0
C199 C 0.61242 0.56946 0.99004 0.0
H200 H 0.71579 0.6202 0.95501 0.0
H201 H 0.24034 0.34627 0.01228 0.0
H202 H 0.22241 0.65664 0.503 0.0
H203 H 0.1375 0.60747 0.51488 0.0
H204 H 0.11825 0.50798 0.4574 0.0
H205 H 0.20282 0.55751 0.44502 0.0
H206 H 0.04666 0.5261 0.45715 0.0
H207 H 0.12582 0.48223 0.52019 0.0
H208 H 0.18429 0.49703 0.55353 0.0
H209 H 0.12146 0.56139 0.59783 0.0
H210 H 0.063 0.54755 0.5646 0.0
H211 H 0.81948 0.33456 0.49891 0.0
H212 H 0.90461 0.38355 0.48744 0.0
H213 H 0.92269 0.48403 0.54411 0.0
H214 H 0.83782 0.43479 0.55603 0.0
H215 H 0.99481 0.46547 0.54488 0.0
H216 H 0.91563 0.5092 0.48171 0.0
H217 H 0.85719 0.49419 0.44833 0.0
H218 H 0.92014 0.42967 0.40424 0.0
H219 H 0.97858 0.44373 0.43752 0.0
C220 C 0.20014 0.62427 0.4929 0.0
C221 C 0.21943 0.61091 0.47312 0.0
C222 C 0.15163 0.59608 0.49979 0.0
C223 C 0.12163 0.55367 0.48725 0.0
C224 C 0.14072 0.54051 0.46736 0.0
C225 C 0.18913 0.56882 0.46035 0.0
C226 C 0.0702 0.52324 0.49467 0.0
C227 C 0.03535 0.5123 0.47627 0.0
C228 C 0.05538 0.50614 0.51973 0.0
C229 C 0.09033 0.51425 0.5398 0.0
C230 C 0.1247 0.49985 0.53696 0.0
C231 C 0.1578 0.50801 0.55585 0.0
C232 C 0.15667 0.53024 0.57776 0.0
C233 C 0.12233 0.54423 0.58084 0.0
C234 C 0.08918 0.53619 0.562 0.0
C235 C 0.84154 0.36707 0.50895 0.0
C236 C 0.8218 0.38086 0.52832 0.0
C237 C 0.89018 0.39515 0.5023 0.0
C238 C 0.91989 0.4378 0.5147 0.0
C239 C 0.90042 0.45131 0.53426 0.0
C240 C 0.85185 0.42316 0.541 0.0
C241 C 0.97132 0.4683 0.50735 0.0
C242 C 0.00615 0.47927 0.52577 0.0
C243 C 0.98614 0.48538 0.48229 0.0
C244 C 0.95118 0.47711 0.46221 0.0
C245 C 0.91679 0.49149 0.46497 0.0
C246 C 0.8837 0.48321 0.44606 0.0
C247 C 0.88487 0.46088 0.4242 0.0
C248 C 0.91923 0.44691 0.42119 0.0
C249 C 0.95237 0.45507 0.44006 0.0
H250 H 0.85923 0.45449 0.40958 0.0
H251 H 0.18233 0.53654 0.59236 0.0
H252 H 0.59561 0.17643 0.93691 0.0
H253 H 0.55258 0.09037 0.94779 0.0
H254 H 0.55143 0.12105 0.02591 0.0
H255 H 0.59505 0.20741 0.01524 0.0
H256 H 0.57637 0.05312 0.01969 0.0
H257 H 0.45079 0.08139 0.99159 0.0
H258 H 0.41085 0.11054 0.96233 0.0
H259 H 0.40854 0.01623 0.90632 0.0
H260 H 0.4491 0.98699 0.93514 0.0
H261 H 0.40564 0.81678 0.06265 0.0
H262 H 0.44703 0.90293 0.05207 0.0
H263 H 0.44634 0.87348 0.97361 0.0
H264 H 0.40414 0.78704 0.98399 0.0
H265 H 0.42199 0.94098 0.98021 0.0
H266 H 0.5482 0.9133 0.00794 0.0
H267 H 0.58858 0.88428 0.03697 0.0
H268 H 0.59018 0.97756 0.09339 0.0
H269 H 0.54921 0.00668 0.06479 0.0
C270 C 0.5862 0.16495 0.95642 0.0
C271 C 0.59868 0.19882 0.97522 0.0
C272 C 0.56141 0.1157 0.96258 0.0
C273 C 0.54833 0.09929 0.98762 0.0
C274 C 0.56111 0.13297 0.00646 0.0
C275 C 0.58592 0.18229 0.00032 0.0
C276 C 0.52187 0.04697 0.99416 0.0
C277 C 0.54226 0.02867 0.01134 0.0
C278 C 0.47797 0.01496 0.98278 0.0
C279 C 0.4534 0.03234 0.96545 0.0
C280 C 0.44211 0.06714 0.97296 0.0
C281 C 0.4193 0.08363 0.95647 0.0
C282 C 0.40728 0.06534 0.93246 0.0
C283 C 0.41793 0.03041 0.92492 0.0
C284 C 0.44079 0.01383 0.94133 0.0
C285 C 0.4143 0.82856 0.04313 0.0
C286 C 0.40178 0.79501 0.02416 0.0
C287 C 0.43813 0.87787 0.03713 0.0
C288 C 0.45035 0.89468 0.01208 0.0
C289 C 0.43735 0.86129 0.99307 0.0
C290 C 0.41335 0.81191 0.99905 0.0
C291 C 0.47651 0.9471 0.00572 0.0
C292 C 0.45607 0.96542 0.98858 0.0
C293 C 0.52042 0.97914 0.0171 0.0
C294 C 0.54521 0.96182 0.0343 0.0
C295 C 0.55683 0.92735 0.0266 0.0
C296 C 0.57988 0.91093 0.04297 0.0
C297 C 0.59183 0.92897 0.06703 0.0
C298 C 0.58085 0.96357 0.07476 0.0
C299 C 0.55775 0.98008 0.05847 0.0
H300 H 0.60968 0.91622 0.07968 0.0
H301 H 0.38962 0.07815 0.91972 0.0
H302 H 0.63662 0.41449 0.51898 0.0
H303 H 0.59754 0.45787 0.50259 0.0
H304 H 0.50767 0.41602 0.56929 0.0
H305 H 0.54603 0.37195 0.58567 0.0
H306 H 0.45605 0.40407 0.52803 0.0
H307 H 0.603 0.52995 0.56079 0.0
H308 H 0.69071 0.578 0.56582 0.0
H309 H 0.70906 0.61782 0.48724 0.0
H310 H 0.62144 0.56944 0.48166 0.0
H311 H 0.37043 0.5681 0.51472 0.0
H312 H 0.41088 0.52521 0.52976 0.0
H313 H 0.49345 0.56347 0.46059 0.0
H314 H 0.45329 0.60672 0.44538 0.0
H315 H 0.54901 0.57713 0.50205 0.0
H316 H 0.40147 0.45203 0.46966 0.0
H317 H 0.31365 0.4044 0.46498 0.0
H318 H 0.29641 0.36353 0.54342 0.0
H319 H 0.38414 0.41151 0.54865 0.0
C320 C 0.6086 0.41457 0.5302 0.0
C321 C 0.59451 0.38984 0.55366 0.0
C322 C 0.58642 0.43955 0.52083 0.0
C323 C 0.55002 0.4406 0.53484 0.0
C324 C 0.53569 0.4157 0.55818 0.0
C325 C 0.55777 0.39064 0.56754 0.0
C326 C 0.52644 0.46718 0.52504 0.0
C327 C 0.47633 0.44206 0.52267 0.0
C328 C 0.55302 0.51647 0.51746 0.0
C329 C 0.6057 0.54566 0.52077 0.0
C330 C 0.62577 0.54863 0.54454 0.0
C331 C 0.67546 0.57599 0.5475 0.0
C332 C 0.70545 0.60084 0.52685 0.0
C333 C 0.68579 0.59849 0.50321 0.0
C334 C 0.63611 0.57114 0.50014 0.0
C335 C 0.39721 0.56746 0.50268 0.0
C336 C 0.40854 0.59071 0.47881 0.0
C337 C 0.42015 0.54277 0.51128 0.0
C338 C 0.45481 0.54079 0.49618 0.0
C339 C 0.46673 0.56452 0.4725 0.0
C340 C 0.44364 0.58907 0.46382 0.0
C341 C 0.47868 0.51406 0.5052 0.0
C342 C 0.52881 0.53913 0.5074 0.0
C343 C 0.45212 0.46476 0.51268 0.0
C344 C 0.39935 0.43576 0.50959 0.0
C345 C 0.37893 0.43322 0.48596 0.0
C346 C 0.32917 0.40609 0.4832 0.0
C347 C 0.29946 0.38106 0.50391 0.0
C348 C 0.31947 0.383 0.5274 0.0
C349 C 0.36921 0.41012 0.53027 0.0
H350 H 0.26095 0.36006 0.50173 0.0
H351 H 0.74391 0.62201 0.52918 0.0
H352 H 0.17864 0.67806 0.04542 0.0
H353 H 0.0957 0.63457 0.03121 0.0
H354 H 0.11097 0.51203 0.01545 0.0
H355 H 0.19402 0.5552 0.02976 0.0
H356 H 0.06803 0.53686 0.97672 0.0
H357 H 0.04974 0.50574 0.06556 0.0
H358 H 0.0615 0.52651 0.11012 0.0
H359 H 0.99224 0.61023 0.09972 0.0
H360 H 0.98071 0.59055 0.05496 0.0
H361 H 0.81966 0.37331 0.95913 0.0
H362 H 0.90153 0.41141 0.97489 0.0
H363 H 0.89103 0.53439 0.99595 0.0
H364 H 0.80902 0.49644 0.98042 0.0
H365 H 0.93151 0.50644 0.03258 0.0
H366 H 0.95224 0.54016 0.94364 0.0
H367 H 0.94101 0.52042 0.89892 0.0
H368 H 0.00609 0.43281 0.90936 0.0
H369 H 0.0171 0.45151 0.95426 0.0
C370 C 0.1644 0.64187 0.03894 0.0
C371 C 0.19286 0.62003 0.03877 0.0
C372 C 0.11696 0.61701 0.03091 0.0
C373 C 0.09716 0.56999 0.02247 0.0
C374 C 0.12561 0.54828 0.02195 0.0
C375 C 0.17296 0.57293 0.03021 0.0
C376 C 0.04683 0.54374 0.01397 0.0
C377 C 0.03806 0.5295 0.98902 0.0
C378 C 0.00798 0.53516 0.02992 0.0
C379 C 0.01481 0.54706 0.05683 0.0
C380 C 0.03741 0.52895 0.07271 0.0
C381 C 0.04396 0.54045 0.09802 0.0
C382 C 0.02775 0.56978 0.10773 0.0
C383 C 0.00485 0.58757 0.09216 0.0
C384 C 0.99826 0.57622 0.06682 0.0
C385 C 0.83471 0.40843 0.96715 0.0
C386 C 0.80787 0.43194 0.96842 0.0
C387 C 0.88157 0.43022 0.97607 0.0
C388 C 0.90252 0.47594 0.98636 0.0
C389 C 0.87555 0.49911 0.98805 0.0
C390 C 0.82874 0.47742 0.97908 0.0
C391 C 0.95267 0.4998 0.99525 0.0
C392 C 0.96143 0.5136 0.02029 0.0
C393 C 0.99154 0.50808 0.97936 0.0
C394 C 0.985 0.49681 0.95237 0.0
C395 C 0.96378 0.51635 0.93645 0.0
C396 C 0.95752 0.50541 0.91106 0.0
C397 C 0.97269 0.47526 0.90133 0.0
C398 C 0.99427 0.45609 0.91695 0.0
C399 C 0.00056 0.46687 0.94236 0.0
H400 H 0.96784 0.46685 0.88166 0.0
H401 H 0.03283 0.57862 0.12733 0.0
H402 H 0.51798 0.18715 0.52296 0.0
H403 H 0.47996 0.10636 0.50661 0.0
H404 H 0.60741 0.09852 0.52225 0.0
H405 H 0.64616 0.1799 0.53828 0.0
H406 H 0.57361 0.06446 0.47705 0.0
H407 H 0.50776 0.03915 0.56022 0.0
H408 H 0.46771 0.0521 0.59611 0.0
H409 H 0.34147 0.00941 0.55239 0.0
H410 H 0.38102 0.99684 0.5161 0.0
H411 H 0.46199 0.8102 0.46453 0.0
H412 H 0.50337 0.8911 0.48111 0.0
H413 H 0.38257 0.9086 0.46228 0.0
H414 H 0.34085 0.82775 0.44571 0.0
H415 H 0.41446 0.93679 0.51001 0.0
H416 H 0.48212 0.96346 0.42656 0.0
H417 H 0.52277 0.94985 0.39119 0.0
H418 H 0.6465 0.98891 0.43646 0.0
H419 H 0.60629 0.00211 0.47223 0.0
C420 C 0.538 0.16831 0.52295 0.0
C421 C 0.58504 0.18991 0.53205 0.0
C422 C 0.5161 0.122 0.51368 0.0
C423 C 0.54058 0.09611 0.51354 0.0
C424 C 0.58781 0.1178 0.52226 0.0
C425 C 0.60984 0.16425 0.53147 0.0
C426 C 0.51686 0.04652 0.50413 0.0
C427 C 0.53915 0.03634 0.48452 0.0
C428 C 0.47149 0.01006 0.51357 0.0
C429 C 0.44754 0.01749 0.53537 0.0
C430 C 0.47159 0.03289 0.55819 0.0
C431 C 0.44896 0.0401 0.57862 0.0
C432 C 0.40212 0.0317 0.57651 0.0
C433 C 0.37778 0.01596 0.55399 0.0
C434 C 0.40027 0.00874 0.53349 0.0
C435 C 0.44423 0.83128 0.46387 0.0
C436 C 0.39814 0.81256 0.45375 0.0
C437 C 0.46801 0.87755 0.47327 0.0
C438 C 0.44615 0.90594 0.47275 0.0
C439 C 0.40005 0.88726 0.46283 0.0
C440 C 0.37635 0.84111 0.4533 0.0
C441 C 0.47105 0.95492 0.48285 0.0
C442 C 0.44898 0.96492 0.50261 0.0
C443 C 0.51671 0.9911 0.47365 0.0
C444 C 0.54098 0.98327 0.45215 0.0
C445 C 0.51783 0.96874 0.42904 0.0
C446 C 0.54082 0.96118 0.40891 0.0
C447 C 0.58713 0.96837 0.4116 0.0
C448 C 0.6106 0.98327 0.43442 0.0
C449 C 0.58774 0.99083 0.45462 0.0
H450 H 0.60488 0.96251 0.39599 0.0
H451 H 0.38466 0.03729 0.59235 0.0
loop_
_geom_bond_atom_site_label_1
_geom_bond_atom_site_label_2
_geom_bond_distance
_geom_bond_site_symmetry_2
_ccdc_geom_bond_type
C0 O1 1.160 . S
C0 O7 1.185 . S
O1 C0 1.160 . S
O2 Zn3 1.899 . S
O2 C10 1.284 . S
Zn3 O2 1.899 . S
Zn3 O4 2.032 . S
Zn3 O7 2.086 . S
Zn3 O12 1.977 . S
O4 Zn3 2.032 . S
O4 C8 1.278 . S
C5 O6 1.203 . S
C5 O12 1.267 . S
O6 C5 1.203 . S
O7 C0 1.185 . S
O7 Zn3 2.086 . S
C8 O4 1.278 . S
C8 O9 1.211 . S
O9 C8 1.211 . S
C10 O2 1.284 . S
C10 O11 1.273 . S
O11 C10 1.273 . S
O12 Zn3 1.977 . S
O12 C5 1.267 . S
C13 O14 1.160 . S
C13 O20 1.185 . S
O14 C13 1.160 . S
O15 Zn16 1.899 . S
O15 C23 1.284 . S
Zn16 O15 1.899 . S
Zn16 O17 2.032 . S
Zn16 O20 2.086 . S
Zn16 O25 1.977 . S
O17 Zn16 2.032 . S
O17 C21 1.278 . S
C18 O19 1.203 . S
C18 O25 1.267 . S
O19 C18 1.203 . S
O20 C13 1.185 . S
O20 Zn16 2.086 . S
C21 O17 1.278 . S
C21 O22 1.211 . S
O22 C21 1.211 . S
C23 O15 1.284 . S
C23 O24 1.273 . S
O24 C23 1.273 . S
O25 Zn16 1.977 . S
O25 C18 1.267 . S
C26 O27 1.160 . S
C26 O33 1.185 . S
O27 C26 1.160 . S
O28 Zn29 1.899 . S
O28 C36 1.284 . S
Zn29 O28 1.899 . S
Zn29 O30 2.032 . S
Zn29 O33 2.086 . S
Zn29 O38 1.977 . S
O30 Zn29 2.032 . S
O30 C34 1.278 . S
C31 O32 1.203 . S
C31 O38 1.267 . S
O32 C31 1.203 . S
O33 C26 1.185 . S
O33 Zn29 2.086 . S
C34 O30 1.278 . S
C34 O35 1.211 . S
O35 C34 1.211 . S
C36 O28 1.284 . S
C36 O37 1.273 . S
O37 C36 1.273 . S
O38 Zn29 1.977 . S
O38 C31 1.267 . S
C39 O40 1.160 . S
C39 O46 1.185 . S
O40 C39 1.160 . S
O41 Zn42 1.899 . S
O41 C49 1.284 . S
Zn42 O41 1.899 . S
Zn42 O43 2.032 . S
Zn42 O46 2.086 . S
Zn42 O51 1.977 . S
O43 Zn42 2.032 . S
O43 C47 1.278 . S
C44 O45 1.203 . S
C44 O51 1.267 . S
O45 C44 1.203 . S
O46 C39 1.185 . S
O46 Zn42 2.086 . S
C47 O43 1.278 . S
C47 O48 1.211 . S
O48 C47 1.211 . S
C49 O41 1.284 . S
C49 O50 1.273 . S
O50 C49 1.273 . S
O51 Zn42 1.977 . S
O51 C44 1.267 . S
H52 C70 0.951 . S
H53 C72 0.951 . S
H54 C74 0.950 . S
H55 C75 0.950 . S
H56 C77 0.950 . S
H57 C80 0.950 . S
H58 C81 0.950 . S
H59 C83 0.950 . S
H60 C84 0.950 . S
H61 C85 0.951 . S
H62 C87 0.951 . S
H63 C89 0.950 . S
H64 C90 0.950 . S
H65 C92 0.950 . S
H66 C95 0.950 . S
H67 C96 0.950 . S
H68 C98 0.950 . S
H69 C99 0.950 . S
C70 H52 0.951 . S
C70 C71 1.366 . S
C70 C72 1.388 . S
C71 C70 1.366 . S
C71 C75 1.385 . S
C72 H53 0.951 . S
C72 C70 1.388 . S
C72 C73 1.366 . S
C73 C72 1.366 . S
C73 C74 1.414 . S
C73 C76 1.499 . S
C74 H54 0.950 . S
C74 C73 1.414 . S
C74 C75 1.374 . S
C75 H55 0.950 . S
C75 C71 1.385 . S
C75 C74 1.374 . S
C76 C73 1.499 . S
C76 C77 1.373 . S
C76 C78 1.389 . S
C77 H56 0.950 . S
C77 C76 1.373 . S
C77 C93 1.377 . S
C78 C76 1.389 . S
C78 C79 1.524 . S
C78 C92 1.377 . S
C79 C78 1.524 . S
C79 C80 1.397 . S
C79 C84 1.363 . S
C80 H57 0.950 . S
C80 C79 1.397 . S
C80 C81 1.334 . S
C81 H58 0.950 . S
C81 C80 1.334 . S
C81 C82 1.287 . S
C82 C81 1.287 . S
C82 C83 1.524 . S
C82 H101 0.913 . S
C83 H59 0.950 . S
C83 C82 1.524 . S
C83 C84 1.415 . S
C84 H60 0.950 . S
C84 C79 1.363 . S
C84 C83 1.415 . S
C85 H61 0.951 . S
C85 C86 1.366 . S
C85 C87 1.388 . S
C86 C85 1.366 . S
C86 C90 1.385 . S
C87 H62 0.951 . S
C87 C85 1.388 . S
C87 C88 1.366 . S
C88 C87 1.366 . S
C88 C89 1.414 . S
C88 C91 1.499 . S
C89 H63 0.950 . S
C89 C88 1.414 . S
C89 C90 1.374 . S
C90 H64 0.950 . S
C90 C86 1.385 . S
C90 C89 1.374 . S
C91 C88 1.499 . S
C91 C92 1.373 . S
C91 C93 1.389 . S
C92 H65 0.950 . S
C92 C78 1.377 . S
C92 C91 1.373 . S
C93 C77 1.377 . S
C93 C91 1.389 . S
C93 C94 1.524 . S
C94 C93 1.524 . S
C94 C95 1.397 . S
C94 C99 1.363 . S
C95 H66 0.950 . S
C95 C94 1.397 . S
C95 C96 1.334 . S
C96 H67 0.950 . S
C96 C95 1.334 . S
C96 C97 1.287 . S
C97 C96 1.287 . S
C97 C98 1.524 . S
C97 H100 0.999 . S
C98 H68 0.950 . S
C98 C97 1.524 . S
C98 C99 1.415 . S
C99 H69 0.950 . S
C99 C94 1.363 . S
C99 C98 1.415 . S
H100 C97 0.999 . S
H101 C82 0.913 . S
H102 C120 0.951 . S
H103 C122 0.951 . S
H104 C124 0.950 . S
H105 C125 0.950 . S
H106 C127 0.950 . S
H107 C130 0.950 . S
H108 C131 0.950 . S
H109 C133 0.950 . S
H110 C134 0.950 . S
H111 C135 0.951 . S
H112 C137 0.951 . S
H113 C139 0.950 . S
H114 C140 0.950 . S
H115 C142 0.950 . S
H116 C145 0.950 . S
H117 C146 0.950 . S
H118 C148 0.950 . S
H119 C149 0.950 . S
C120 H102 0.951 . S
C120 C121 1.366 . S
C120 C122 1.388 . S
C121 C120 1.366 . S
C121 C125 1.385 . S
C122 H103 0.951 . S
C122 C120 1.388 . S
C122 C123 1.366 . S
C123 C122 1.366 . S
C123 C124 1.414 . S
C123 C126 1.499 . S
C124 H104 0.950 . S
C124 C123 1.414 . S
C124 C125 1.374 . S
C125 H105 0.950 . S
C125 C121 1.385 . S
C125 C124 1.374 . S
C126 C123 1.499 . S
C126 C127 1.373 . S
C126 C128 1.389 . S
C127 H106 0.950 . S
C127 C126 1.373 . S
C127 C143 1.377 . S
C128 C126 1.389 . S
C128 C129 1.524 . S
C128 C142 1.377 . S
C129 C128 1.524 . S
C129 C130 1.397 . S
C129 C134 1.363 . S
C130 H107 0.950 . S
C130 C129 1.397 . S
C130 C131 1.334 . S
C131 H108 0.950 . S
C131 C130 1.334 . S
C131 C132 1.287 . S
C132 C131 1.287 . S
C132 C133 1.524 . S
C132 H151 0.913 . S
C133 H109 0.950 . S
C133 C132 1.524 . S
C133 C134 1.415 . S
C134 H110 0.950 . S
C134 C129 1.363 . S
C134 C133 1.415 . S
C135 H111 0.951 . S
C135 C136 1.366 . S
C135 C137 1.388 . S
C136 C135 1.366 . S
C136 C140 1.385 . S
C137 H112 0.951 . S
C137 C135 1.388 . S
C137 C138 1.366 . S
C138 C137 1.366 . S
C138 C139 1.414 . S
C138 C141 1.499 . S
C139 H113 0.950 . S
C139 C138 1.414 . S
C139 C140 1.374 . S
C140 H114 0.950 . S
C140 C136 1.385 . S
C140 C139 1.374 . S
C141 C138 1.499 . S
C141 C142 1.373 . S
C141 C143 1.389 . S
C142 H115 0.950 . S
C142 C128 1.377 . S
C142 C141 1.373 . S
C143 C127 1.377 . S
C143 C141 1.389 . S
C143 C144 1.524 . S
C144 C143 1.524 . S
C144 C145 1.397 . S
C144 C149 1.363 . S
C145 H116 0.950 . S
C145 C144 1.397 . S
C145 C146 1.334 . S
C146 H117 0.950 . S
C146 C145 1.334 . S
C146 C147 1.287 . S
C147 C146 1.287 . S
C147 C148 1.524 . S
C147 H150 0.999 . S
C148 H118 0.950 . S
C148 C147 1.524 . S
C148 C149 1.415 . S
C149 H119 0.950 . S
C149 C144 1.363 . S
C149 C148 1.415 . S
H150 C147 0.999 . S
H151 C132 0.913 . S
H152 C170 0.949 . S
H153 C172 0.951 1_556 S
H154 C174 0.950 . S
H155 C175 0.950 . S
H156 C177 0.950 . S
H157 C180 0.950 . S
H158 C181 0.950 . S
H159 C183 0.950 . S
H160 C184 0.950 . S
H161 C185 0.951 . S
H162 C187 0.951 1_554 S
H163 C189 0.950 . S
H164 C190 0.950 . S
H165 C192 0.950 . S
H166 C195 0.950 . S
H167 C196 0.950 . S
H168 C198 0.950 . S
H169 C199 0.950 . S
C170 H152 0.949 . S
C170 C171 1.366 . S
C170 C172 1.388 . S
C171 C170 1.366 . S
C171 C175 1.385 . S
C172 H153 0.951 1_554 S
C172 C170 1.388 . S
C172 C173 1.366 . S
C173 C172 1.366 . S
C173 C174 1.414 . S
C173 C176 1.499 . S
C174 H154 0.950 . S
C174 C173 1.414 . S
C174 C175 1.374 . S
C175 H155 0.950 . S
C175 C171 1.385 . S
C175 C174 1.374 . S
C176 C173 1.499 . S
C176 C177 1.373 . S
C176 C178 1.389 1_554 S
C177 H156 0.950 . S
C177 C176 1.373 . S
C177 C193 1.377 1_554 S
C178 C176 1.389 1_556 S
C178 C179 1.524 1_556 S
C178 C192 1.377 . S
C179 C178 1.524 1_554 S
C179 C180 1.397 . S
C179 C184 1.363 1_554 S
C180 H157 0.950 . S
C180 C179 1.397 . S
C180 C181 1.334 . S
C181 H158 0.950 . S
C181 C180 1.334 . S
C181 C182 1.287 . S
C182 C181 1.287 . S
C182 C183 1.524 1_554 S
C182 H201 0.913 . S
C183 H159 0.950 . S
C183 C182 1.524 1_556 S
C183 C184 1.415 . S
C184 H160 0.950 . S
C184 C179 1.363 1_556 S
C184 C183 1.415 . S
C185 H161 0.951 . S
C185 C186 1.366 . S
C185 C187 1.388 . S
C186 C185 1.366 . S
C186 C190 1.385 . S
C187 H162 0.951 1_556 S
C187 C185 1.388 . S
C187 C188 1.366 . S
C188 C187 1.366 . S
C188 C189 1.414 . S
C188 C191 1.499 . S
C189 H163 0.950 . S
C189 C188 1.414 . S
C189 C190 1.374 . S
C190 H164 0.950 . S
C190 C186 1.385 . S
C190 C189 1.374 . S
C191 C188 1.499 . S
C191 C192 1.373 . S
C191 C193 1.389 . S
C192 H165 0.950 . S
C192 C178 1.377 . S
C192 C191 1.373 . S
C193 C177 1.377 1_556 S
C193 C191 1.389 . S
C193 C194 1.524 . S
C194 C193 1.524 . S
C194 C195 1.397 . S
C194 C199 1.363 1_556 S
C195 H166 0.950 . S
C195 C194 1.397 . S
C195 C196 1.334 . S
C196 H167 0.950 . S
C196 C195 1.334 . S
C196 C197 1.287 . S
C197 C196 1.287 . S
C197 C198 1.524 1_556 S
C197 H200 0.999 . S
C198 H168 0.950 . S
C198 C197 1.524 1_554 S
C198 C199 1.415 . S
C199 H169 0.950 . S
C199 C194 1.363 1_554 S
C199 C198 1.415 . S
H200 C197 0.999 . S
H201 C182 0.913 . S
H202 C220 0.951 . S
H203 C222 0.951 . S
H204 C224 0.950 . S
H205 C225 0.950 . S
H206 C227 0.950 . S
H207 C230 0.950 . S
H208 C231 0.950 . S
H209 C233 0.950 . S
H210 C234 0.950 . S
H211 C235 0.951 . S
H212 C237 0.951 . S
H213 C239 0.950 . S
H214 C240 0.950 . S
H215 C242 0.947 1_655 S
H216 C245 0.950 . S
H217 C246 0.950 . S
H218 C248 0.950 . S
H219 C249 0.950 . S
C220 H202 0.951 . S
C220 C221 1.366 . S
C220 C222 1.388 . S
C221 C220 1.366 . S
C221 C225 1.385 . S
C222 H203 0.951 . S
C222 C220 1.388 . S
C222 C223 1.366 . S
C223 C222 1.366 . S
C223 C224 1.414 . S
C223 C226 1.499 . S
C224 H204 0.950 . S
C224 C223 1.414 . S
C224 C225 1.374 . S
C225 H205 0.950 . S
C225 C221 1.385 . S
C225 C224 1.374 . S
C226 C223 1.499 . S
C226 C227 1.373 . S
C226 C228 1.389 . S
C227 H206 0.950 . S
C227 C226 1.373 . S
C227 C243 1.377 1_455 S
C228 C226 1.389 . S
C228 C229 1.524 . S
C228 C242 1.387 . S
C229 C228 1.524 . S
C229 C230 1.397 . S
C229 C234 1.363 . S
C230 H207 0.950 . S
C230 C229 1.397 . S
C230 C231 1.334 . S
C231 H208 0.950 . S
C231 C230 1.334 . S
C231 C232 1.287 . S
C232 C231 1.287 . S
C232 C233 1.524 . S
C232 H251 0.913 . S
C233 H209 0.950 . S
C233 C232 1.524 . S
C233 C234 1.415 . S
C234 H210 0.950 . S
C234 C229 1.363 . S
C234 C233 1.415 . S
C235 H211 0.951 . S
C235 C236 1.366 . S
C235 C237 1.388 . S
C236 C235 1.366 . S
C236 C240 1.385 . S
C237 H212 0.951 . S
C237 C235 1.388 . S
C237 C238 1.366 . S
C238 C237 1.366 . S
C238 C239 1.414 . S
C238 C241 1.499 . S
C239 H213 0.950 . S
C239 C238 1.414 . S
C239 C240 1.374 . S
C240 H214 0.950 . S
C240 C236 1.385 . S
C240 C239 1.374 . S
C241 C238 1.499 . S
C241 C242 1.367 1_655 S
C241 C243 1.389 . S
C242 H215 0.947 1_455 S
C242 C228 1.387 . S
C242 C241 1.367 1_455 S
C243 C227 1.377 1_655 S
C243 C241 1.389 . S
C243 C244 1.524 . S
C244 C243 1.524 . S
C244 C245 1.397 . S
C244 C249 1.363 . S
C245 H216 0.950 . S
C245 C244 1.397 . S
C245 C246 1.334 . S
C246 H217 0.950 . S
C246 C245 1.334 . S
C246 C247 1.287 . S
C247 C246 1.287 . S
C247 C248 1.524 . S
C247 H250 0.999 . S
C248 H218 0.950 . S
C248 C247 1.524 . S
C248 C249 1.415 . S
C249 H219 0.950 . S
C249 C244 1.363 . S
C249 C248 1.415 . S
H250 C247 0.999 . S
H251 C232 0.913 . S
H252 C270 0.951 . S
H253 C272 0.951 . S
H254 C274 0.950 1_554 S
H255 C275 0.950 . S
H256 C277 0.950 . S
H257 C280 0.950 . S
H258 C281 0.950 . S
H259 C283 0.950 1_565 S
H260 C284 0.950 . S
H261 C285 0.951 . S
H262 C287 0.951 . S
H263 C289 0.950 1_556 S
H264 C290 0.950 . S
H265 C292 0.950 . S
H266 C295 0.950 . S
H267 C296 0.950 . S
H268 C298 0.950 1_545 S
H269 C299 0.950 . S
C270 H252 0.951 . S
C270 C271 1.366 . S
C270 C272 1.388 . S
C271 C270 1.366 . S
C271 C275 1.385 . S
C272 H253 0.951 . S
C272 C270 1.388 . S
C272 C273 1.366 . S
C273 C272 1.366 . S
C273 C274 1.414 . S
C273 C276 1.499 . S
C274 H254 0.950 1_556 S
C274 C273 1.414 . S
C274 C275 1.374 . S
C275 H255 0.950 . S
C275 C271 1.385 . S
C275 C274 1.374 . S
C276 C273 1.499 . S
C276 C277 1.373 1_556 S
C276 C278 1.389 . S
C277 H256 0.950 . S
C277 C276 1.373 1_554 S
C277 C293 1.377 1_545 S
C278 C276 1.389 . S
C278 C279 1.524 . S
C278 C292 1.377 1_545 S
C279 C278 1.524 . S
C279 C280 1.397 . S
C279 C284 1.363 1_545 S
C280 H257 0.950 . S
C280 C279 1.397 . S
C280 C281 1.334 . S
C281 H258 0.950 . S
C281 C280 1.334 . S
C281 C282 1.287 . S
C282 C281 1.287 . S
C282 C283 1.524 . S
C282 H301 0.913 . S
C283 H259 0.950 1_545 S
C283 C282 1.524 . S
C283 C284 1.415 1_545 S
C284 H260 0.950 . S
C284 C279 1.363 1_565 S
C284 C283 1.415 1_565 S
C285 H261 0.951 . S
C285 C286 1.366 . S
C285 C287 1.388 . S
C286 C285 1.366 . S
C286 C290 1.385 . S
C287 H262 0.951 . S
C287 C285 1.388 . S
C287 C288 1.366 . S
C288 C287 1.366 . S
C288 C289 1.414 . S
C288 C291 1.499 . S
C289 H263 0.950 1_554 S
C289 C288 1.414 . S
C289 C290 1.374 . S
C290 H264 0.950 . S
C290 C286 1.385 . S
C290 C289 1.374 . S
C291 C288 1.499 . S
C291 C292 1.373 1_554 S
C291 C293 1.389 . S
C292 H265 0.950 . S
C292 C278 1.377 1_565 S
C292 C291 1.373 1_556 S
C293 C277 1.377 1_565 S
C293 C291 1.389 . S
C293 C294 1.524 . S
C294 C293 1.524 . S
C294 C295 1.397 . S
C294 C299 1.363 1_565 S
C295 H266 0.950 . S
C295 C294 1.397 . S
C295 C296 1.334 . S
C296 H267 0.950 . S
C296 C295 1.334 . S
C296 C297 1.287 . S
C297 C296 1.287 . S
C297 C298 1.524 . S
C297 H300 0.999 . S
C298 H268 0.950 1_565 S
C298 C297 1.524 . S
C298 C299 1.415 1_565 S
C299 H269 0.950 . S
C299 C294 1.363 1_545 S
C299 C298 1.415 1_545 S
H300 C297 0.999 . S
H301 C282 0.913 . S
H302 C320 0.951 . S
H303 C322 0.951 . S
H304 C324 0.950 . S
H305 C325 0.950 . S
H306 C327 0.950 . S
H307 C330 0.950 . S
H308 C331 0.950 . S
H309 C333 0.950 . S
H310 C334 0.950 . S
H311 C335 0.951 . S
H312 C337 0.951 . S
H313 C339 0.950 . S
H314 C340 0.950 . S
H315 C342 0.950 . S
H316 C345 0.950 . S
H317 C346 0.950 . S
H318 C348 0.950 . S
H319 C349 0.950 . S
C320 H302 0.951 . S
C320 C321 1.366 . S
C320 C322 1.388 . S
C321 C320 1.366 . S
C321 C325 1.385 . S
C322 H303 0.951 . S
C322 C320 1.388 . S
C322 C323 1.366 . S
C323 C322 1.366 . S
C323 C324 1.414 . S
C323 C326 1.499 . S
C324 H304 0.950 . S
C324 C323 1.414 . S
C324 C325 1.374 . S
C325 H305 0.950 . S
C325 C321 1.385 . S
C325 C324 1.374 . S
C326 C323 1.499 . S
C326 C327 1.373 . S
C326 C328 1.389 . S
C327 H306 0.950 . S
C327 C326 1.373 . S
C327 C343 1.377 . S
C328 C326 1.389 . S
C328 C329 1.524 . S
C328 C342 1.377 . S
C329 C328 1.524 . S
C329 C330 1.397 . S
C329 C334 1.363 . S
C330 H307 0.950 . S
C330 C329 1.397 . S
C330 C331 1.334 . S
C331 H308 0.950 . S
C331 C330 1.334 . S
C331 C332 1.287 . S
C332 C331 1.287 . S
C332 C333 1.524 . S
C332 H351 0.913 . S
C333 H309 0.950 . S
C333 C332 1.524 . S
C333 C334 1.415 . S
C334 H310 0.950 . S
C334 C329 1.363 . S
C334 C333 1.415 . S
C335 H311 0.951 . S
C335 C336 1.366 . S
C335 C337 1.388 . S
C336 C335 1.366 . S
C336 C340 1.385 . S
C337 H312 0.951 . S
C337 C335 1.388 . S
C337 C338 1.366 . S
C338 C337 1.366 . S
C338 C339 1.414 . S
C338 C341 1.499 . S
C339 H313 0.950 . S
C339 C338 1.414 . S
C339 C340 1.374 . S
C340 H314 0.950 . S
C340 C336 1.385 . S
C340 C339 1.374 . S
C341 C338 1.499 . S
C341 C342 1.373 . S
C341 C343 1.389 . S
C342 H315 0.950 . S
C342 C328 1.377 . S
C342 C341 1.373 . S
C343 C327 1.377 . S
C343 C341 1.389 . S
C343 C344 1.524 . S
C344 C343 1.524 . S
C344 C345 1.397 . S
C344 C349 1.363 . S
C345 H316 0.950 . S
C345 C344 1.397 . S
C345 C346 1.334 . S
C346 H317 0.950 . S
C346 C345 1.334 . S
C346 C347 1.287 . S
C347 C346 1.287 . S
C347 C348 1.524 . S
C347 H350 0.999 . S
C348 H318 0.950 . S
C348 C347 1.524 . S
C348 C349 1.415 . S
C349 H319 0.950 . S
C349 C344 1.363 . S
C349 C348 1.415 . S
H350 C347 0.999 . S
H351 C332 0.913 . S
H352 C370 0.951 . S
H353 C372 0.951 . S
H354 C374 0.950 . S
H355 C375 0.950 . S
H356 C377 0.950 . S
H357 C380 0.950 . S
H358 C381 0.950 . S
H359 C383 0.950 . S
H360 C384 0.950 . S
H361 C385 0.951 . S
H362 C387 0.951 . S
H363 C389 0.950 1_554 S
H364 C390 0.950 . S
H365 C392 0.950 . S
H366 C395 0.950 . S
H367 C396 0.950 . S
H368 C398 0.950 . S
H369 C399 0.950 . S
C370 H352 0.951 . S
C370 C371 1.366 . S
C370 C372 1.388 . S
C371 C370 1.366 . S
C371 C375 1.385 . S
C372 H353 0.951 . S
C372 C370 1.388 . S
C372 C373 1.366 . S
C373 C372 1.366 . S
C373 C374 1.414 . S
C373 C376 1.499 . S
C374 H354 0.950 . S
C374 C373 1.414 . S
C374 C375 1.374 . S
C375 H355 0.950 . S
C375 C371 1.385 . S
C375 C374 1.374 . S
C376 C373 1.499 . S
C376 C377 1.373 1_554 S
C376 C378 1.389 . S
C377 H356 0.950 . S
C377 C376 1.373 1_556 S
C377 C393 1.377 1_455 S
C378 C376 1.389 . S
C378 C379 1.524 . S
C378 C392 1.377 1_455 S
C379 C378 1.524 . S
C379 C380 1.397 . S
C379 C384 1.363 1_455 S
C380 H357 0.950 . S
C380 C379 1.397 . S
C380 C381 1.334 . S
C381 H358 0.950 . S
C381 C380 1.334 . S
C381 C382 1.287 . S
C382 C381 1.287 . S
C382 C383 1.524 1_455 S
C382 H401 0.913 . S
C383 H359 0.950 . S
C383 C382 1.524 1_655 S
C383 C384 1.415 . S
C384 H360 0.950 . S
C384 C379 1.363 1_655 S
C384 C383 1.415 . S
C385 H361 0.951 . S
C385 C386 1.366 . S
C385 C387 1.388 . S
C386 C385 1.366 . S
C386 C390 1.385 . S
C387 H362 0.951 . S
C387 C385 1.388 . S
C387 C388 1.366 . S
C388 C387 1.366 . S
C388 C389 1.414 . S
C388 C391 1.499 . S
C389 H363 0.950 1_556 S
C389 C388 1.414 . S
C389 C390 1.374 . S
C390 H364 0.950 . S
C390 C386 1.385 . S
C390 C389 1.374 . S
C391 C388 1.499 . S
C391 C392 1.373 1_556 S
C391 C393 1.389 . S
C392 H365 0.950 . S
C392 C378 1.377 1_655 S
C392 C391 1.373 1_554 S
C393 C377 1.377 1_655 S
C393 C391 1.389 . S
C393 C394 1.524 . S
C394 C393 1.524 . S
C394 C395 1.397 . S
C394 C399 1.363 1_655 S
C395 H366 0.950 . S
C395 C394 1.397 . S
C395 C396 1.334 . S
C396 H367 0.950 . S
C396 C395 1.334 . S
C396 C397 1.287 . S
C397 C396 1.287 . S
C397 C398 1.524 1_655 S
C397 H400 0.999 . S
C398 H368 0.950 . S
C398 C397 1.524 1_455 S
C398 C399 1.415 . S
C399 H369 0.950 . S
C399 C394 1.363 1_455 S
C399 C398 1.415 . S
H400 C397 0.999 . S
H401 C382 0.913 . S
H402 C420 0.951 . S
H403 C422 0.951 . S
H404 C424 0.950 . S
H405 C425 0.950 . S
H406 C427 0.950 . S
H407 C430 0.950 . S
H408 C431 0.950 . S
H409 C433 0.950 . S
H410 C434 0.950 1_565 S
H411 C435 0.951 . S
H412 C437 0.951 . S
H413 C439 0.950 . S
H414 C440 0.950 . S
H415 C442 0.950 . S
H416 C445 0.950 . S
H417 C446 0.950 . S
H418 C448 0.950 . S
H419 C449 0.950 1_545 S
C420 H402 0.951 . S
C420 C421 1.366 . S
C420 C422 1.388 . S
C421 C420 1.366 . S
C421 C425 1.385 . S
C422 H403 0.951 . S
C422 C420 1.388 . S
C422 C423 1.366 . S
C423 C422 1.366 . S
C423 C424 1.414 . S
C423 C426 1.499 . S
C424 H404 0.950 . S
C424 C423 1.414 . S
C424 C425 1.374 . S
C425 H405 0.950 . S
C425 C421 1.385 . S
C425 C424 1.374 . S
C426 C423 1.499 . S
C426 C427 1.373 . S
C426 C428 1.389 . S
C427 H406 0.950 . S
C427 C426 1.373 . S
C427 C443 1.377 1_545 S
C428 C426 1.389 . S
C428 C429 1.524 . S
C428 C442 1.377 1_545 S
C429 C428 1.524 . S
C429 C430 1.397 . S
C429 C434 1.363 . S
C430 H407 0.950 . S
C430 C429 1.397 . S
C430 C431 1.334 . S
C431 H408 0.950 . S
C431 C430 1.334 . S
C431 C432 1.287 . S
C432 C431 1.287 . S
C432 C433 1.524 . S
C432 H451 0.913 . S
C433 H409 0.950 . S
C433 C432 1.524 . S
C433 C434 1.415 . S
C434 H410 0.950 1_545 S
C434 C429 1.363 . S
C434 C433 1.415 . S
C435 H411 0.951 . S
C435 C436 1.366 . S
C435 C437 1.388 . S
C436 C435 1.366 . S
C436 C440 1.385 . S
C437 H412 0.951 . S
C437 C435 1.388 . S
C437 C438 1.366 . S
C438 C437 1.366 . S
C438 C439 1.414 . S
C438 C441 1.499 . S
C439 H413 0.950 . S
C439 C438 1.414 . S
C439 C440 1.374 . S
C440 H414 0.950 . S
C440 C436 1.385 . S
C440 C439 1.374 . S
C441 C438 1.499 . S
C441 C442 1.373 . S
C441 C443 1.389 . S
C442 H415 0.950 . S
C442 C428 1.377 1_565 S
C442 C441 1.373 . S
C443 C427 1.377 1_565 S
C443 C441 1.389 . S
C443 C444 1.524 . S
C444 C443 1.524 . S
C444 C445 1.397 . S
C444 C449 1.363 . S
C445 H416 0.950 . S
C445 C444 1.397 . S
C445 C446 1.334 . S
C446 H417 0.950 . S
C446 C445 1.334 . S
C446 C447 1.287 . S
C447 C446 1.287 . S
C447 C448 1.524 . S
C447 H450 0.999 . S
C448 H418 0.950 . S
C448 C447 1.524 . S
C448 C449 1.415 . S
C449 H419 0.950 1_565 S
C449 C444 1.363 . S
C449 C448 1.415 . S
H450 C447 0.999 . S
H451 C432 0.913 . S
C71 C5 1.498 . S
C86 C31 1.497 . S
C121 C18 1.497 . S
C136 C44 1.498 . S
C171 C0 1.529 . S
C186 C47 1.530 . S
C221 C36 1.442 . S
C236 C13 1.422 . S
C271 C49 1.379 . S
C286 C10 1.379 . S
C321 C23 1.441 . S
C336 C26 1.422 . S
C371 C8 1.531 . S
C386 C39 1.529 . S
C421 C21 1.584 . S
C436 C34 1.584 . S
