# Generated by pormake.
# Topology uoc, (4)-cn, num edge types: 1
# Building blocks:
#     Node 0, Type 0, BuildingBlock: ICAMEG_clean_sbu_1, # of connection points: 4
#     Node 1, Type 0, BuildingBlock: ICAMEG_clean_sbu_1, # of connection points: 4
#     Node 2, Type 0, BuildingBlock: ICAMEG_clean_sbu_1, # of connection points: 4
#     Node 3, Type 0, BuildingBlock: ICAMEG_clean_sbu_1, # of connection points: 4
#     Node 4, Type 0, BuildingBlock: ICAMEG_clean_sbu_1, # of connection points: 4
#     Node 5, Type 0, BuildingBlock: ICAMEG_clean_sbu_1, # of connection points: 4
#     Node 6, Type 0, BuildingBlock: ICAMEG_clean_sbu_1, # of connection points: 4
#     Node 7, Type 0, BuildingBlock: ICAMEG_clean_sbu_1, # of connection points: 4
#     Edge 8, Type (0, 0), BuildingBlock: XUDNAN_clean_linker_2, # of connection points: 2
#     Edge 9, Type (0, 0), BuildingBlock: XUDNAN_clean_linker_2, # of connection points: 2
#     Edge 10, Type (0, 0), BuildingBlock: XUDNAN_clean_linker_2, # of connection points: 2
#     Edge 11, Type (0, 0), BuildingBlock: XUDNAN_clean_linker_2, # of connection points: 2
#     Edge 12, Type (0, 0), BuildingBlock: XUDNAN_clean_linker_2, # of connection points: 2
#     Edge 13, Type (0, 0), BuildingBlock: XUDNAN_clean_linker_2, # of connection points: 2
#     Edge 14, Type (0, 0), BuildingBlock: XUDNAN_clean_linker_2, # of connection points: 2
#     Edge 15, Type (0, 0), BuildingBlock: XUDNAN_clean_linker_2, # of connection points: 2
#     Edge 16, Type (0, 0), BuildingBlock: XUDNAN_clean_linker_2, # of connection points: 2
#     Edge 17, Type (0, 0), BuildingBlock: XUDNAN_clean_linker_2, # of connection points: 2
#     Edge 18, Type (0, 0), BuildingBlock: XUDNAN_clean_linker_2, # of connection points: 2
#     Edge 19, Type (0, 0), BuildingBlock: XUDNAN_clean_linker_2, # of connection points: 2
#     Edge 20, Type (0, 0), BuildingBlock: XUDNAN_clean_linker_2, # of connection points: 2
#     Edge 21, Type (0, 0), BuildingBlock: XUDNAN_clean_linker_2, # of connection points: 2
#     Edge 22, Type (0, 0), BuildingBlock: XUDNAN_clean_linker_2, # of connection points: 2
#     Edge 23, Type (0, 0), BuildingBlock: XUDNAN_clean_linker_2, # of connection points: 2
# Relax obj value: 0.093
# Max RMSD: 0.100
# Mean RMSD: 0.100
data_MOF--net-uoc--node1-ICAMEG_clean_sbu_1--edge1-XUDNAN_clean_linker_2
_symmetry_space_group_name_H-M    P1
_symmetry_Int_Tables_number       1
_symmetry_cell_setting            triclinic
loop_
_symmetry_equiv_pos_as_xyz
'x, y, z'
_cell_length_a     28.48978
_cell_length_b     28.416062
_cell_length_c     59.172888
_cell_angle_alpha  89.990857
_cell_angle_beta   89.981127
_cell_angle_gamma 100.13132
loop_
_atom_site_label
_atom_site_type_symbol
_atom_site_fract_x
_atom_site_fract_y
_atom_site_fract_z
_atom_type_partial_charge
Co0 Co 0.16039 0.24502 0.13203 0.0
Co1 Co 0.05989 0.26173 0.10404 0.0
O2 O 0.111 0.2835 0.12606 0.0
C3 C 0.14315 0.28779 0.17804 0.0
O4 O 0.10995 0.31048 0.17056 0.0
C5 C 0.09063 0.36443 0.09226 0.0
O6 O 0.13509 0.35779 0.0918 0.0
O7 O 0.10801 0.25863 0.07978 0.0
O8 O 0.15872 0.22336 0.09977 0.0
H9 H 0.97963 0.15816 0.04142 0.0
H10 H 0.17815 0.34877 0.14337 0.0
O11 O 0.16473 0.26345 0.16478 0.0
H12 H 0.30786 0.32679 0.0915 0.0
H13 H 0.31246 0.2092 0.16596 0.0
H14 H 0.17169 0.14665 0.11947 0.0
H15 H 0.24667 0.2582 0.10258 0.0
H16 H 0.25177 0.25906 0.15797 0.0
O17 O 0.05713 0.32963 0.09633 0.0
H18 H 0.04244 0.18481 0.06955 0.0
H19 H 0.96984 0.29521 0.09125 0.0
H20 H 0.23173 0.09575 0.12686 0.0
H21 H 0.23884 0.41816 0.13297 0.0
H22 H 0.30276 0.12699 0.15026 0.0
H23 H 0.30434 0.40748 0.1068 0.0
O24 O 0.11011 0.19006 0.14026 0.0
H25 H 0.98674 0.33741 0.16889 0.0
H26 H 0.97388 0.19461 0.12039 0.0
H27 H 0.91506 0.19672 0.15076 0.0
H28 H 0.92117 0.26856 0.17523 0.0
H29 H 0.04517 0.33356 0.1385 0.0
H30 H 0.90644 0.26999 0.06319 0.0
H31 H 0.91099 0.20088 0.03809 0.0
O32 O 0.05977 0.19289 0.11144 0.0
C33 C 0.14188 0.23473 0.08096 0.0
C34 C 0.97718 0.18826 0.05229 0.0
C35 C 0.93614 0.25106 0.06449 0.0
N36 N 0.00973 0.24137 0.08213 0.0
C37 C 0.0126 0.20346 0.0683 0.0
C38 C 0.97223 0.26526 0.08031 0.0
C39 C 0.9387 0.21227 0.05042 0.0
C40 C 0.20684 0.34355 0.13231 0.0
N41 N 0.20918 0.29921 0.12397 0.0
C42 C 0.24099 0.38312 0.12632 0.0
C43 C 0.27766 0.37713 0.1116 0.0
C44 C 0.27965 0.33188 0.10301 0.0
C45 C 0.24484 0.29316 0.10935 0.0
C46 C 0.28175 0.19524 0.15568 0.0
C47 C 0.20267 0.16064 0.12952 0.0
C48 C 0.24723 0.22328 0.15112 0.0
N49 N 0.20849 0.20599 0.13802 0.0
C50 C 0.23647 0.13159 0.13371 0.0
C51 C 0.27629 0.14912 0.14686 0.0
C52 C 0.07488 0.17138 0.12811 0.0
C53 C 0.98368 0.3059 0.15834 0.0
C54 C 0.97707 0.22586 0.13108 0.0
C55 C 0.94351 0.22692 0.14819 0.0
C56 C 0.94693 0.26725 0.1619 0.0
N57 N 0.01308 0.26389 0.12771 0.0
C58 C 0.01662 0.30356 0.14107 0.0
Co59 Co 0.74543 0.66144 0.3812 0.0
Co60 Co 0.74867 0.54285 0.39246 0.0
O61 O 0.77573 0.60486 0.3795 0.0
C62 C 0.76373 0.64897 0.33239 0.0
O63 O 0.74818 0.60304 0.3351 0.0
C64 C 0.84348 0.56128 0.41448 0.0
O65 O 0.83318 0.60154 0.42223 0.0
O66 O 0.73894 0.57314 0.4221 0.0
O67 O 0.7262 0.64693 0.41337 0.0
H68 H 0.62818 0.42761 0.4362 0.0
H69 H 0.84575 0.67058 0.36588 0.0
O70 O 0.76434 0.67755 0.34904 0.0
H71 H 0.85126 0.77353 0.43325 0.0
H72 H 0.73499 0.8337 0.36618 0.0
H73 H 0.65517 0.68236 0.40041 0.0
H74 H 0.77458 0.72915 0.41926 0.0
H75 H 0.77226 0.76169 0.36463 0.0
O76 O 0.81402 0.53398 0.40204 0.0
H77 H 0.66276 0.50574 0.41972 0.0
H78 H 0.77901 0.44758 0.39343 0.0
H79 H 0.61689 0.75362 0.40258 0.0
H80 H 0.92318 0.71463 0.3792 0.0
H81 H 0.65686 0.82998 0.38537 0.0
H82 H 0.92626 0.7665 0.41314 0.0
O83 O 0.6833 0.62461 0.37064 0.0
H84 H 0.84184 0.51459 0.32317 0.0
H85 H 0.68733 0.47324 0.36239 0.0
H86 H 0.69797 0.43773 0.32513 0.0
H87 H 0.7757 0.45837 0.30526 0.0
H88 H 0.8295 0.54965 0.36036 0.0
H89 H 0.74602 0.36895 0.4099 0.0
H90 H 0.66993 0.35853 0.43136 0.0
O91 O 0.68309 0.54995 0.38308 0.0
C92 C 0.72787 0.61334 0.4275 0.0
C93 C 0.66131 0.43166 0.42685 0.0
C94 C 0.72747 0.39876 0.4121 0.0
N95 N 0.72265 0.48111 0.40547 0.0
C96 C 0.68099 0.47578 0.41741 0.0
C97 C 0.74605 0.4434 0.40287 0.0
C98 C 0.68476 0.39293 0.42413 0.0
C99 C 0.84676 0.69338 0.38055 0.0
N100 N 0.80566 0.69753 0.39168 0.0
C101 C 0.89073 0.71811 0.38806 0.0
C102 C 0.89244 0.74716 0.40712 0.0
C103 C 0.85037 0.7511 0.41842 0.0
C104 C 0.80706 0.72581 0.41044 0.0
C105 C 0.71726 0.80065 0.37377 0.0
C106 C 0.67292 0.71554 0.39301 0.0
C107 C 0.73812 0.75974 0.37289 0.0
N108 N 0.71605 0.71797 0.38256 0.0
C109 C 0.651 0.75573 0.39423 0.0
C110 C 0.67343 0.79855 0.38455 0.0
C111 C 0.6625 0.58167 0.37412 0.0
C112 C 0.80786 0.50521 0.33169 0.0
C113 C 0.72119 0.48253 0.35383 0.0
C114 C 0.72706 0.46219 0.33276 0.0
C115 C 0.7707 0.47374 0.32163 0.0
N116 N 0.75777 0.51344 0.36357 0.0
C117 C 0.80073 0.52477 0.3528 0.0
Co118 Co 0.33929 0.2592 0.63144 0.0
Co119 Co 0.43906 0.24548 0.60171 0.0
O120 O 0.39002 0.22256 0.62471 0.0
C121 C 0.36021 0.21652 0.677 0.0
O122 O 0.39193 0.19281 0.6688 0.0
C123 C 0.42348 0.13707 0.59985 0.0
O124 O 0.38985 0.13336 0.61521 0.0
O125 O 0.38852 0.24642 0.57851 0.0
O126 O 0.33856 0.28107 0.59924 0.0
H127 H 0.50947 0.35162 0.53783 0.0
H128 H 0.32276 0.15556 0.64371 0.0
O129 O 0.33772 0.24107 0.66426 0.0
H130 H 0.19147 0.17438 0.59228 0.0
H131 H 0.18728 0.28994 0.66747 0.0
H132 H 0.3243 0.35677 0.61941 0.0
H133 H 0.25231 0.24381 0.60255 0.0
H134 H 0.24943 0.24236 0.65856 0.0
O135 O 0.44398 0.17789 0.59271 0.0
H136 H 0.4504 0.32281 0.56736 0.0
H137 H 0.52964 0.21579 0.58658 0.0
H138 H 0.26276 0.40543 0.62773 0.0
H139 H 0.26246 0.0854 0.63414 0.0
H140 H 0.1936 0.37201 0.65191 0.0
H141 H 0.19614 0.09444 0.60818 0.0
O142 O 0.38854 0.31512 0.63911 0.0
H143 H 0.52116 0.17858 0.66681 0.0
H144 H 0.52551 0.31489 0.61488 0.0
H145 H 0.58816 0.31736 0.6437 0.0
H146 H 0.58648 0.24875 0.66987 0.0
H147 H 0.45896 0.1779 0.63808 0.0
H148 H 0.58943 0.2433 0.55712 0.0
H149 H 0.57964 0.31178 0.53255 0.0
O150 O 0.4374 0.31408 0.60953 0.0
C151 C 0.35461 0.27012 0.58018 0.0
C152 C 0.5142 0.32181 0.54846 0.0
C153 C 0.55903 0.26097 0.55927 0.0
N154 N 0.4866 0.26778 0.57878 0.0
C155 C 0.48089 0.30537 0.56526 0.0
C156 C 0.52497 0.24546 0.57588 0.0
C157 C 0.55353 0.29941 0.54549 0.0
C158 C 0.29396 0.1601 0.63263 0.0
N159 N 0.29115 0.20399 0.6239 0.0
C160 C 0.25991 0.12008 0.62716 0.0
C161 C 0.22277 0.12515 0.61257 0.0
C162 C 0.22015 0.16996 0.60363 0.0
C163 C 0.25486 0.20915 0.60948 0.0
C164 C 0.21715 0.30483 0.65684 0.0
C165 C 0.29414 0.34184 0.6298 0.0
C166 C 0.25249 0.27808 0.65176 0.0
N167 N 0.29016 0.29654 0.63822 0.0
C168 C 0.25948 0.36963 0.63452 0.0
C169 C 0.22072 0.35088 0.64811 0.0
C170 C 0.42254 0.3349 0.62652 0.0
C171 C 0.52251 0.20856 0.6554 0.0
C172 C 0.52435 0.2848 0.62617 0.0
C173 C 0.56004 0.28645 0.64247 0.0
C174 C 0.55908 0.24796 0.65714 0.0
N175 N 0.48871 0.24582 0.62439 0.0
C176 C 0.48739 0.20821 0.6389 0.0
Co177 Co 0.77238 0.83821 0.88173 0.0
Co178 Co 0.72609 0.93714 0.89831 0.0
O179 O 0.7221 0.87727 0.88163 0.0
C180 C 0.75452 0.85517 0.83326 0.0
O181 O 0.75521 0.90027 0.83825 0.0
C182 C 0.63568 0.92201 0.92387 0.0
O183 O 0.66118 0.92835 0.94243 0.0
O184 O 0.74088 0.90404 0.92653 0.0
O185 O 0.78366 0.84917 0.91491 0.0
H186 H 0.79826 0.06139 0.95458 0.0
H187 H 0.67684 0.79855 0.86325 0.0
O188 O 0.76177 0.82575 0.84859 0.0
H189 H 0.70326 0.68931 0.92488 0.0
H190 H 0.84638 0.69694 0.85892 0.0
H191 H 0.86822 0.84711 0.9025 0.0
H192 H 0.76454 0.75921 0.91551 0.0
H193 H 0.78309 0.74606 0.85989 0.0
O194 O 0.6561 0.92057 0.90479 0.0
H195 H 0.79275 0.98712 0.9324 0.0
H196 H 0.66695 0.01463 0.90041 0.0
H197 H 0.93229 0.79899 0.90211 0.0
H198 H 0.61478 0.72878 0.87191 0.0
H199 H 0.92156 0.72327 0.8802 0.0
H200 H 0.6278 0.67363 0.90294 0.0
O201 O 0.82194 0.89476 0.87464 0.0
H202 H 0.63486 0.94954 0.82652 0.0
H203 H 0.76604 0.02889 0.87485 0.0
H204 H 0.74888 0.06696 0.83908 0.0
H205 H 0.68269 0.02726 0.81466 0.0
H206 H 0.65396 0.91237 0.86222 0.0
H207 H 0.67082 0.08889 0.92233 0.0
H208 H 0.73693 0.1128 0.94965 0.0
O209 O 0.79556 0.95585 0.89157 0.0
C210 C 0.76643 0.87221 0.93045 0.0
C211 C 0.76927 0.05136 0.94274 0.0
C212 C 0.69775 0.0668 0.92466 0.0
N213 N 0.7295 0.99641 0.91516 0.0
C214 C 0.76598 0.00936 0.93013 0.0
C215 C 0.69566 0.0246 0.91232 0.0
C216 C 0.73484 0.08018 0.93997 0.0
C217 C 0.68288 0.77455 0.87668 0.0
N218 N 0.72436 0.78282 0.88877 0.0
C219 C 0.64756 0.73518 0.88155 0.0
C220 C 0.65487 0.70427 0.89898 0.0
C221 C 0.69719 0.71306 0.9113 0.0
C222 C 0.73171 0.75278 0.90595 0.0
C223 C 0.85144 0.72981 0.86856 0.0
C224 C 0.86318 0.81408 0.89303 0.0
C225 C 0.81578 0.75782 0.86912 0.0
N226 N 0.82186 0.79926 0.88135 0.0
C227 C 0.89963 0.78704 0.89283 0.0
C228 C 0.89361 0.7446 0.88051 0.0
C229 C 0.82755 0.93813 0.88116 0.0
C230 C 0.66381 0.96718 0.83701 0.0
C231 C 0.73783 0.01105 0.86416 0.0
C232 C 0.72793 0.03296 0.844 0.0
C233 C 0.69072 0.01074 0.83034 0.0
N234 N 0.71147 0.96823 0.87055 0.0
C235 C 0.67472 0.94639 0.85729 0.0
Co236 Co 0.67468 0.74055 0.62928 0.0
Co237 Co 0.57369 0.75714 0.60138 0.0
O238 O 0.62487 0.77891 0.62349 0.0
C239 C 0.65809 0.78324 0.67542 0.0
O240 O 0.62369 0.80462 0.66821 0.0
C241 C 0.59297 0.86552 0.59886 0.0
O242 O 0.62771 0.86842 0.61359 0.0
O243 O 0.62209 0.7543 0.57731 0.0
O244 O 0.67206 0.71794 0.59713 0.0
H245 H 0.49551 0.65172 0.53889 0.0
H246 H 0.69512 0.84379 0.64151 0.0
O247 O 0.68003 0.75963 0.66196 0.0
H248 H 0.82061 0.82138 0.58729 0.0
H249 H 0.82772 0.70534 0.66243 0.0
H250 H 0.68547 0.64181 0.61709 0.0
H251 H 0.75906 0.75331 0.59859 0.0
H252 H 0.7669 0.75511 0.65457 0.0
O253 O 0.57026 0.82507 0.59238 0.0
H254 H 0.5574 0.67929 0.56733 0.0
H255 H 0.48346 0.78959 0.58782 0.0
H256 H 0.74562 0.59098 0.62438 0.0
H257 H 0.75626 0.91268 0.63091 0.0
H258 H 0.81739 0.62271 0.6472 0.0
H259 H 0.81961 0.90178 0.60355 0.0
O260 O 0.62464 0.68602 0.63795 0.0
H261 H 0.49878 0.82884 0.66735 0.0
H262 H 0.48678 0.69026 0.61628 0.0
H263 H 0.42644 0.69065 0.64602 0.0
H264 H 0.43196 0.76044 0.67176 0.0
H265 H 0.55868 0.82659 0.63775 0.0
H266 H 0.42091 0.76335 0.55947 0.0
H267 H 0.42662 0.69385 0.53481 0.0
O268 O 0.57382 0.68827 0.60925 0.0
C269 C 0.6552 0.72949 0.57837 0.0
C270 C 0.49256 0.68199 0.54957 0.0
C271 C 0.45074 0.74468 0.5611 0.0
N272 N 0.52401 0.73589 0.57932 0.0
C273 C 0.52747 0.69773 0.56575 0.0
C274 C 0.48635 0.75946 0.57708 0.0
C275 C 0.45395 0.70567 0.54728 0.0
C276 C 0.72267 0.83856 0.62978 0.0
N277 N 0.72345 0.79444 0.62081 0.0
C278 C 0.75716 0.8778 0.62375 0.0
C279 C 0.79265 0.87168 0.60838 0.0
C280 C 0.79321 0.82661 0.59924 0.0
C281 C 0.7581 0.78821 0.60565 0.0
C282 C 0.79669 0.69117 0.6524 0.0
C283 C 0.71677 0.65601 0.62689 0.0
C284 C 0.76209 0.71916 0.64791 0.0
N285 N 0.72292 0.70159 0.63514 0.0
C286 C 0.75063 0.627 0.63103 0.0
C287 C 0.79087 0.64481 0.64385 0.0
C288 C 0.58932 0.66705 0.62595 0.0
C289 C 0.49576 0.79835 0.65615 0.0
C290 C 0.48965 0.7208 0.6274 0.0
C291 C 0.45525 0.72079 0.64422 0.0
C292 C 0.45835 0.75994 0.65864 0.0
N293 N 0.52611 0.75881 0.62489 0.0
C294 C 0.52955 0.79705 0.63915 0.0
Co295 Co 0.24545 0.17061 0.88374 0.0
Co296 Co 0.24527 0.05138 0.89671 0.0
O297 O 0.27388 0.11228 0.88264 0.0
C298 C 0.26034 0.15412 0.83485 0.0
O299 O 0.24492 0.1084 0.83829 0.0
C300 C 0.35023 0.0643 0.9076 0.0
O301 O 0.35863 0.10672 0.89822 0.0
O302 O 0.23708 0.08453 0.92567 0.0
O303 O 0.22788 0.15908 0.91631 0.0
H304 H 0.11976 0.94476 0.94172 0.0
H305 H 0.34403 0.17917 0.86587 0.0
O306 O 0.26228 0.18376 0.85114 0.0
H307 H 0.35736 0.2838 0.93287 0.0
H308 H 0.23927 0.34281 0.86616 0.0
H309 H 0.15776 0.19604 0.90374 0.0
H310 H 0.27927 0.23874 0.9211 0.0
H311 H 0.27402 0.26922 0.8653 0.0
O312 O 0.30851 0.03945 0.90795 0.0
H313 H 0.15798 0.02029 0.92389 0.0
H314 H 0.27101 0.95401 0.89999 0.0
H315 H 0.12201 0.26896 0.90524 0.0
H316 H 0.42271 0.22426 0.87683 0.0
H317 H 0.16282 0.34304 0.88633 0.0
H318 H 0.42978 0.27686 0.91063 0.0
O319 O 0.18188 0.13505 0.87444 0.0
H320 H 0.33515 0.01625 0.82716 0.0
H321 H 0.18343 0.97793 0.86882 0.0
H322 H 0.19222 0.93819 0.83246 0.0
H323 H 0.26862 0.95716 0.81138 0.0
H324 H 0.32453 0.05563 0.86333 0.0
H325 H 0.23438 0.87797 0.91788 0.0
H326 H 0.15805 0.87293 0.9388 0.0
O327 O 0.18098 0.06002 0.88644 0.0
C328 C 0.22827 0.12577 0.93072 0.0
C329 C 0.15296 0.94647 0.93261 0.0
C330 C 0.21733 0.90901 0.91925 0.0
N331 N 0.21647 0.99148 0.91076 0.0
C332 C 0.1747 0.9891 0.92241 0.0
C333 C 0.23799 0.95222 0.90923 0.0
C334 C 0.17448 0.9062 0.93097 0.0
C335 C 0.3467 0.20234 0.88046 0.0
N336 N 0.30706 0.20616 0.89284 0.0
C337 C 0.39141 0.22762 0.88665 0.0
C338 C 0.39536 0.25706 0.90564 0.0
C339 C 0.35476 0.2609 0.91815 0.0
C340 C 0.31065 0.23506 0.91146 0.0
C341 C 0.22118 0.31078 0.87449 0.0
C342 C 0.17588 0.22821 0.8956 0.0
C343 C 0.24062 0.26896 0.87401 0.0
N344 N 0.21808 0.22845 0.88458 0.0
C345 C 0.15539 0.26935 0.89644 0.0
C346 C 0.17829 0.31089 0.88582 0.0
C347 C 0.16083 0.09219 0.87769 0.0
C348 C 0.30178 0.00745 0.83625 0.0
C349 C 0.2167 0.98656 0.85975 0.0
C350 C 0.22153 0.9638 0.83918 0.0
C351 C 0.26441 0.97441 0.82737 0.0
N352 N 0.25354 0.01886 0.86843 0.0
C353 C 0.29567 0.02943 0.8569 0.0
Co354 Co 0.84422 0.74956 0.13012 0.0
Co355 Co 0.95026 0.76048 0.10202 0.0
O356 O 0.90457 0.72723 0.12441 0.0
C357 C 0.87303 0.71648 0.17643 0.0
O358 O 0.91069 0.70078 0.16882 0.0
C359 C 0.95033 0.65672 0.09298 0.0
O360 O 0.90377 0.64743 0.09521 0.0
O361 O 0.9009 0.74812 0.07789 0.0
O362 O 0.83997 0.76768 0.0975 0.0
H363 H 0.00128 0.87392 0.03783 0.0
H364 H 0.8539 0.64979 0.14251 0.0
O365 O 0.84535 0.73405 0.16321 0.0
H366 H 0.71539 0.63321 0.09153 0.0
H367 H 0.68141 0.74452 0.16434 0.0
H368 H 0.80605 0.8353 0.1157 0.0
H369 H 0.75975 0.71292 0.10143 0.0
H370 H 0.7561 0.7145 0.15694 0.0
O371 O 0.97284 0.69933 0.09492 0.0
H372 H 0.94563 0.83318 0.06641 0.0
H373 H 0.05119 0.75624 0.08976 0.0
H374 H 0.73172 0.86639 0.12248 0.0
H375 H 0.81025 0.56956 0.13334 0.0
H376 H 0.66876 0.82087 0.14695 0.0
H377 H 0.74039 0.56076 0.10762 0.0
O378 O 0.88051 0.81384 0.13767 0.0
H379 H 0.04389 0.71696 0.16843 0.0
H380 H 0.01835 0.84702 0.11723 0.0
H381 H 0.07732 0.864 0.14791 0.0
H382 H 0.09051 0.79867 0.17377 0.0
H383 H 0.98482 0.70167 0.13765 0.0
H384 H 0.10794 0.79601 0.06131 0.0
H385 H 0.08315 0.85545 0.03514 0.0
O386 O 0.9308 0.8235 0.10841 0.0
C387 C 0.86016 0.76084 0.0788 0.0
C388 C 0.01255 0.84815 0.04916 0.0
C389 C 0.07237 0.80436 0.06232 0.0
N390 N 0.9951 0.79236 0.0798 0.0
C391 C 0.98118 0.82496 0.06541 0.0
C392 C 0.04001 0.78182 0.07835 0.0
C393 C 0.05845 0.83773 0.04765 0.0
C394 C 0.82316 0.64655 0.13169 0.0
N395 N 0.80902 0.68629 0.12294 0.0
C396 C 0.79873 0.60086 0.12638 0.0
C397 C 0.75963 0.59594 0.1119 0.0
C398 C 0.7456 0.63656 0.10286 0.0
C399 C 0.77094 0.68165 0.10853 0.0
C400 C 0.70853 0.76463 0.15361 0.0
C401 C 0.77871 0.81515 0.12626 0.0
C402 C 0.75094 0.74787 0.1494 0.0
N403 N 0.78523 0.77293 0.13574 0.0
C404 C 0.73674 0.833 0.13009 0.0
C405 C 0.70145 0.80746 0.14384 0.0
C406 C 0.91111 0.83982 0.12529 0.0
C407 C 0.03849 0.74572 0.15727 0.0
C408 C 0.02361 0.81843 0.12848 0.0
C409 C 0.05721 0.82825 0.14578 0.0
C410 C 0.06461 0.79158 0.16027 0.0
N411 N 0.99801 0.77337 0.12568 0.0
C412 C 0.00516 0.73724 0.13978 0.0
Co413 Co 0.26317 0.34367 0.38381 0.0
Co414 Co 0.22734 0.45019 0.39818 0.0
O415 O 0.2167 0.38707 0.38402 0.0
C416 C 0.24267 0.35884 0.33548 0.0
O417 O 0.24603 0.40452 0.33999 0.0
C418 C 0.14587 0.44624 0.42917 0.0
O419 O 0.17778 0.45673 0.44521 0.0
O420 O 0.24864 0.42224 0.42668 0.0
O421 O 0.27745 0.35654 0.41649 0.0
H422 H 0.31854 0.58342 0.4448 0.0
H423 H 0.16482 0.3099 0.36711 0.0
O424 O 0.24933 0.32963 0.35102 0.0
H425 H 0.18666 0.20198 0.43004 0.0
H426 H 0.32267 0.1932 0.36207 0.0
H427 H 0.35929 0.3459 0.40342 0.0
H428 H 0.25161 0.26714 0.41891 0.0
H429 H 0.26469 0.24824 0.36307 0.0
O430 O 0.15937 0.43829 0.40918 0.0
H431 H 0.3043 0.50444 0.42626 0.0
H432 H 0.17217 0.53071 0.40049 0.0
H433 H 0.41813 0.2918 0.403 0.0
H434 H 0.09906 0.24488 0.37755 0.0
H435 H 0.39997 0.21481 0.38219 0.0
H436 H 0.10977 0.1904 0.40923 0.0
O437 O 0.31638 0.39603 0.37518 0.0
H438 H 0.11869 0.45243 0.33148 0.0
H439 H 0.2648 0.53453 0.36902 0.0
H440 H 0.24009 0.56581 0.33288 0.0
H441 H 0.16647 0.52466 0.31387 0.0
H442 H 0.14519 0.42197 0.36745 0.0
H443 H 0.18493 0.60988 0.41879 0.0
H444 H 0.25856 0.63671 0.44114 0.0
O445 O 0.29454 0.46395 0.38721 0.0
C446 C 0.26873 0.3865 0.43128 0.0
C447 C 0.28635 0.57216 0.43508 0.0
C448 C 0.21137 0.58702 0.42048 0.0
N449 N 0.23755 0.513 0.41226 0.0
C450 C 0.27812 0.5275 0.42453 0.0
C451 C 0.20437 0.54216 0.41014 0.0
C452 C 0.25268 0.60204 0.43303 0.0
C453 C 0.16984 0.28617 0.38083 0.0
N454 N 0.21208 0.29217 0.3923 0.0
C455 C 0.13243 0.2495 0.38671 0.0
C456 C 0.13845 0.21897 0.4045 0.0
C457 C 0.18157 0.22546 0.41619 0.0
C458 C 0.21817 0.26252 0.40985 0.0
C459 C 0.33098 0.22662 0.3712 0.0
C460 C 0.35103 0.31236 0.39443 0.0
C461 C 0.29835 0.25799 0.37178 0.0
N462 N 0.30853 0.30015 0.38337 0.0
C463 C 0.38453 0.28192 0.3942 0.0
C464 C 0.37433 0.23876 0.38251 0.0
C465 C 0.32454 0.4411 0.37834 0.0
C466 C 0.15082 0.47069 0.3396 0.0
C467 C 0.23307 0.51617 0.36074 0.0
C468 C 0.21905 0.53421 0.34034 0.0
C469 C 0.17769 0.51117 0.32971 0.0
N470 N 0.20666 0.47635 0.37031 0.0
C471 C 0.16591 0.45373 0.36003 0.0
H472 H 0.12726 0.25691 0.03592 0.0
H473 H 0.19822 0.16679 0.0788 0.0
H474 H 0.22643 0.12964 0.04532 0.0
H475 H 0.09029 0.16971 0.9925 0.0
H476 H 0.10215 0.21144 0.96938 0.0
H477 H 0.08662 0.23177 0.99677 0.0
H478 H 0.16412 0.29504 0.99713 0.0
H479 H 0.17977 0.27496 0.9697 0.0
H480 H 0.22076 0.27626 0.99298 0.0
H481 H 0.24427 0.09882 0.00786 0.0
H482 H 0.25679 0.08114 0.96776 0.0
H483 H 0.17941 0.19341 0.94804 0.0
C484 C 0.14888 0.22952 0.03823 0.0
C485 C 0.16022 0.21486 0.06015 0.0
C486 C 0.18884 0.17894 0.06235 0.0
C487 C 0.20509 0.15734 0.04337 0.0
C488 C 0.19307 0.17223 0.02213 0.0
C489 C 0.16621 0.20786 0.01932 0.0
C490 C 0.15958 0.21749 0.99436 0.0
C491 C 0.1065 0.20696 0.98788 0.0
C492 C 0.18243 0.269 0.98818 0.0
C493 C 0.18662 0.18147 0.98378 0.0
C494 C 0.20518 0.1555 1.00019 0.0
C495 C 0.23028 0.11914 0.99479 0.0
C496 C 0.23703 0.10923 0.97196 0.0
C497 C 0.21931 0.13596 0.95475 0.0
C498 C 0.19377 0.17261 0.96081 0.0
H499 H 0.79691 0.60063 0.29714 0.0
H500 H 0.77037 0.74049 0.31732 0.0
H501 H 0.79923 0.7732 0.28024 0.0
H502 H 0.90638 0.64477 0.26611 0.0
H503 H 0.89451 0.59977 0.2444 0.0
H504 H 0.87178 0.58691 0.27258 0.0
H505 H 0.78613 0.56402 0.25669 0.0
H506 H 0.80856 0.57659 0.22847 0.0
H507 H 0.76218 0.60615 0.23925 0.0
H508 H 0.82545 0.78967 0.24051 0.0
H509 H 0.85157 0.79006 0.20071 0.0
H510 H 0.86747 0.64159 0.2065 0.0
C511 C 0.79713 0.63811 0.2937 0.0
C512 C 0.78112 0.66801 0.31006 0.0
C513 C 0.78248 0.71697 0.30506 0.0
C514 C 0.79881 0.73588 0.28405 0.0
C515 C 0.81442 0.70557 0.26832 0.0
C516 C 0.81418 0.65786 0.27289 0.0
C517 C 0.83331 0.63334 0.25296 0.0
C518 C 0.87923 0.61513 0.2594 0.0
C519 C 0.79527 0.59262 0.2438 0.0
C520 C 0.84347 0.67457 0.23632 0.0
C521 C 0.83205 0.7158 0.24559 0.0
C522 C 0.83527 0.75788 0.23318 0.0
C523 C 0.85012 0.75777 0.21063 0.0
C524 C 0.86231 0.71617 0.2008 0.0
C525 C 0.85955 0.67418 0.21388 0.0
H526 H 0.37005 0.25095 0.5349 0.0
H527 H 0.29788 0.33791 0.57891 0.0
H528 H 0.27179 0.37846 0.54593 0.0
H529 H 0.40958 0.34142 0.49318 0.0
H530 H 0.39822 0.30162 0.46931 0.0
H531 H 0.41255 0.27894 0.49642 0.0
H532 H 0.3346 0.21628 0.49543 0.0
H533 H 0.32025 0.23856 0.46825 0.0
H534 H 0.27839 0.23591 0.49126 0.0
H535 H 0.25669 0.41318 0.50883 0.0
H536 H 0.24435 0.43277 0.46908 0.0
H537 H 0.32023 0.32024 0.44799 0.0
C538 C 0.34855 0.27831 0.53757 0.0
C539 C 0.33637 0.2912 0.55966 0.0
C540 C 0.30793 0.32715 0.56232 0.0
C541 C 0.29298 0.35073 0.54363 0.0
C542 C 0.30606 0.33774 0.52222 0.0
C543 C 0.33245 0.30188 0.51896 0.0
C544 C 0.33992 0.29407 0.4939 0.0
C545 C 0.39324 0.30465 0.48785 0.0
C546 C 0.31691 0.24318 0.4868 0.0
C547 C 0.31365 0.3312 0.48378 0.0
C548 C 0.29508 0.35637 0.50049 0.0
C549 C 0.27046 0.3933 0.49553 0.0
C550 C 0.26358 0.40415 0.47281 0.0
C551 C 0.28038 0.37761 0.45523 0.0
C552 C 0.30637 0.341 0.46093 0.0
H553 H 0.7106 0.89722 0.79907 0.0
H554 H 0.77371 0.77274 0.81495 0.0
H555 H 0.75444 0.74115 0.77666 0.0
H556 H 0.61282 0.8337 0.76616 0.0
H557 H 0.61342 0.88101 0.74581 0.0
H558 H 0.63311 0.89501 0.77435 0.0
H559 H 0.71406 0.94003 0.75936 0.0
H560 H 0.6946 0.92636 0.73077 0.0
H561 H 0.74909 0.90962 0.74081 0.0
H562 H 0.73056 0.72359 0.73696 0.0
H563 H 0.7013 0.71947 0.6978 0.0
H564 H 0.64958 0.85311 0.70715 0.0
C565 C 0.72065 0.8635 0.79439 0.0
C566 C 0.74392 0.83753 0.80996 0.0
C567 C 0.75588 0.79323 0.80333 0.0
C568 C 0.74511 0.77499 0.78161 0.0
C569 C 0.72191 0.80119 0.76674 0.0
C570 C 0.70956 0.84436 0.77278 0.0
C571 C 0.68395 0.86462 0.75353 0.0
C572 C 0.63278 0.86882 0.76038 0.0
C573 C 0.71212 0.91303 0.74565 0.0
C574 C 0.68423 0.82621 0.73571 0.0
C575 C 0.70656 0.79016 0.74378 0.0
C576 C 0.71277 0.75142 0.73046 0.0
C577 C 0.69605 0.74949 0.70821 0.0
C578 C 0.67294 0.78585 0.69943 0.0
C579 C 0.66656 0.82452 0.71348 0.0
H580 H 0.20123 0.40262 0.30104 0.0
H581 H 0.25524 0.27329 0.31797 0.0
H582 H 0.23353 0.24116 0.28 0.0
H583 H 0.10007 0.34377 0.26849 0.0
H584 H 0.10391 0.39087 0.24781 0.0
H585 H 0.12418 0.40455 0.2763 0.0
H586 H 0.20705 0.44409 0.26117 0.0
H587 H 0.18704 0.43071 0.23264 0.0
H588 H 0.2396 0.41045 0.24293 0.0
H589 H 0.20897 0.22382 0.24035 0.0
H590 H 0.18064 0.22081 0.20104 0.0
H591 H 0.13834 0.35933 0.20936 0.0
C592 C 0.20867 0.36765 0.29669 0.0
C593 C 0.23016 0.34052 0.31245 0.0
C594 C 0.23879 0.29468 0.30622 0.0
C595 C 0.22661 0.27611 0.28468 0.0
C596 C 0.20532 0.30356 0.2696 0.0
C597 C 0.19614 0.3482 0.27527 0.0
C598 C 0.17232 0.3698 0.25582 0.0
C599 C 0.12213 0.3777 0.26251 0.0
C600 C 0.20337 0.41653 0.24766 0.0
C601 C 0.17006 0.33045 0.23828 0.0
C602 C 0.18952 0.29274 0.24668 0.0
C603 C 0.19332 0.25292 0.23362 0.0
C604 C 0.17717 0.25162 0.21128 0.0
C605 C 0.15701 0.2897 0.20217 0.0
C606 C 0.15295 0.32943 0.21597 0.0
H607 H 0.6371 0.74944 0.53351 0.0
H608 H 0.71086 0.66081 0.57585 0.0
H609 H 0.7348 0.62076 0.54219 0.0
H610 H 0.59418 0.66007 0.49199 0.0
H611 H 0.60423 0.70026 0.46821 0.0
H612 H 0.59204 0.72262 0.4957 0.0
H613 H 0.67035 0.78467 0.49375 0.0
H614 H 0.68258 0.76266 0.46621 0.0
H615 H 0.72595 0.76456 0.48851 0.0
H616 H 0.74824 0.58724 0.50448 0.0
H617 H 0.75742 0.56814 0.46424 0.0
H618 H 0.67955 0.68062 0.44543 0.0
C619 C 0.6585 0.72181 0.53568 0.0
C620 C 0.6718 0.70835 0.55748 0.0
C621 C 0.70002 0.67203 0.55948 0.0
C622 C 0.71378 0.64878 0.5404 0.0
C623 C 0.69968 0.66242 0.51927 0.0
C624 C 0.67331 0.69852 0.51668 0.0
C625 C 0.66419 0.70683 0.49183 0.0
C626 C 0.61047 0.69684 0.48663 0.0
C627 C 0.68715 0.7577 0.48466 0.0
C628 C 0.68935 0.6696 0.48103 0.0
C629 C 0.70907 0.64408 0.49724 0.0
C630 C 0.73323 0.60714 0.49157 0.0
C631 C 0.73804 0.59638 0.46866 0.0
C632 C 0.71932 0.62287 0.45165 0.0
C633 C 0.69447 0.65985 0.45802 0.0
H634 H 0.35341 0.14127 0.70715 0.0
H635 H 0.34135 0.29092 0.70164 0.0
H636 H 0.31741 0.29142 0.74165 0.0
H637 H 0.24996 0.10858 0.74145 0.0
H638 H 0.27407 0.06598 0.75852 0.0
H639 H 0.29484 0.07783 0.72999 0.0
H640 H 0.3818 0.09949 0.7444 0.0
H641 H 0.36128 0.08742 0.77298 0.0
H642 H 0.39631 0.1447 0.76588 0.0
H643 H 0.2935 0.27624 0.78158 0.0
H644 H 0.26726 0.24515 0.81923 0.0
H645 H 0.2891 0.10361 0.79911 0.0
C646 C 0.3466 0.17424 0.71458 0.0
C647 C 0.34975 0.21625 0.70145 0.0
C648 C 0.33934 0.25847 0.71148 0.0
C649 C 0.32579 0.25913 0.73418 0.0
C650 C 0.32219 0.21709 0.74662 0.0
C651 C 0.33199 0.1753 0.73725 0.0
C652 C 0.3222 0.13448 0.75415 0.0
C653 C 0.28293 0.09435 0.74551 0.0
C654 C 0.36814 0.11541 0.75968 0.0
C655 C 0.30521 0.15995 0.77433 0.0
C656 C 0.30611 0.20771 0.76961 0.0
C657 C 0.29258 0.2389 0.7855 0.0
C658 C 0.27775 0.22088 0.80685 0.0
C659 C 0.27589 0.17195 0.81207 0.0
C660 C 0.28973 0.14109 0.79552 0.0
H661 H 0.89411 0.76388 0.03462 0.0
H662 H 0.77372 0.78891 0.0753 0.0
H663 H 0.73837 0.82028 0.04205 0.0
H664 H 0.90298 0.86801 1.00058 0.0
H665 H 0.91672 0.83987 0.97469 0.0
H666 H 0.93275 0.81707 1.00148 0.0
H667 H 0.88561 0.7332 0.99144 0.0
H668 H 0.86982 0.75566 0.96452 0.0
H669 H 0.82381 0.72689 0.98334 0.0
H670 H 0.71834 0.85475 0.00577 0.0
H671 H 0.70981 0.88167 0.96677 0.0
H672 H 0.8399 0.83163 0.94798 0.0
C673 C 0.85996 0.77522 0.03645 0.0
C674 C 0.837 0.77397 0.05776 0.0
C675 C 0.79239 0.7895 0.05933 0.0
C676 C 0.77188 0.80757 0.0405 0.0
C677 C 0.79592 0.80953 0.02 0.0
C678 C 0.83851 0.79308 0.01765 0.0
C679 C 0.85655 0.79949 0.99347 0.0
C680 C 0.90513 0.83311 0.99251 0.0
C681 C 0.85908 0.75091 0.98255 0.0
C682 C 0.81759 0.82244 0.9828 0.0
C683 C 0.78333 0.82825 0.99856 0.0
C684 C 0.74467 0.85002 0.99318 0.0
C685 C 0.74033 0.8656 0.97096 0.0
C686 C 0.77407 0.85891 0.95424 0.0
C687 C 0.81334 0.83708 0.96034 0.0
H688 H 0.03644 0.10471 0.09741 0.0
H689 H 0.05878 0.12763 0.16934 0.0
H690 H 0.01269 0.04661 0.17691 0.0
H691 H 0.91803 0.03716 0.09963 0.0
H692 H 0.92805 0.99688 0.07732 0.0
H693 H 0.96108 0.05708 0.07779 0.0
H694 H 0.04073 0.02471 0.07693 0.0
H695 H 0.00792 0.96451 0.07615 0.0
H696 H 0.05163 0.98199 0.09796 0.0
H697 H 0.96207 0.96323 0.17624 0.0
H698 H 0.92194 0.88067 0.16725 0.0
H699 H 0.93781 0.9126 0.09572 0.0
C700 C 0.03154 0.09267 0.11477 0.0
C701 C 0.05069 0.12225 0.13284 0.0
C702 C 0.04437 0.10519 0.1553 0.0
C703 C 0.01798 0.05953 0.15974 0.0
C704 C 0.99893 0.03141 0.14148 0.0
C705 C 0.00628 0.04709 0.11943 0.0
C706 C 0.9848 0.0092 0.1027 0.0
C707 C 0.94566 0.0261 0.08853 0.0
C708 C 0.02358 0.99422 0.08755 0.0
C709 C 0.96403 0.96964 0.11875 0.0
C710 C 0.97177 0.98324 0.14106 0.0
C711 C 0.95587 0.95221 0.15884 0.0
C712 C 0.93279 0.90563 0.15361 0.0
C713 C 0.92677 0.8906 0.13083 0.0
C714 C 0.94187 0.92334 0.11328 0.0
H715 H 0.07173 0.43755 0.39873 0.0
H716 H 0.11067 0.48028 0.46766 0.0
H717 H 0.03619 0.51218 0.47169 0.0
H718 H 0.02384 0.53738 0.38403 0.0
H719 H 0.97519 0.50617 0.36737 0.0
H720 H 0.02908 0.48185 0.37036 0.0
H721 H 0.98073 0.40254 0.38574 0.0
H722 H 0.92649 0.42629 0.38243 0.0
H723 H 0.9414 0.40389 0.40952 0.0
H724 H 0.96368 0.54963 0.46656 0.0
H725 H 0.89109 0.57932 0.45437 0.0
H726 H 0.89627 0.5082 0.38979 0.0
C727 C 0.06402 0.45242 0.41488 0.0
C728 C 0.09721 0.45642 0.43286 0.0
C729 C 0.08589 0.47663 0.45363 0.0
C730 C 0.04369 0.49507 0.45609 0.0
C731 C 0.01275 0.49237 0.43776 0.0
C732 C 0.02176 0.47056 0.41772 0.0
C733 C 0.98322 0.47368 0.40041 0.0
C734 C 0.0041 0.50142 0.3793 0.0
C735 C 0.95636 0.42361 0.39416 0.0
C736 C 0.95179 0.50153 0.4137 0.0
C737 C 0.9697 0.51231 0.43514 0.0
C738 C 0.94874 0.54063 0.44998 0.0
C739 C 0.90785 0.55765 0.44287 0.0
C740 C 0.88808 0.54568 0.42127 0.0
C741 C 0.91038 0.51726 0.40654 0.0
H742 H 0.45729 0.40389 0.59589 0.0
H743 H 0.43886 0.37747 0.66781 0.0
H744 H 0.48133 0.45962 0.67575 0.0
H745 H 0.57295 0.47583 0.59767 0.0
H746 H 0.56073 0.51645 0.57593 0.0
H747 H 0.52956 0.45554 0.57603 0.0
H748 H 0.44857 0.48521 0.5763 0.0
H749 H 0.47948 0.54623 0.57609 0.0
H750 H 0.43673 0.52607 0.59802 0.0
H751 H 0.53046 0.54305 0.6756 0.0
H752 H 0.57338 0.62494 0.66738 0.0
H753 H 0.55303 0.59822 0.59559 0.0
C754 C 0.46219 0.41549 0.61331 0.0
C755 C 0.44525 0.38452 0.63129 0.0
C756 C 0.45159 0.40093 0.65384 0.0
C757 C 0.47582 0.44732 0.65849 0.0
C758 C 0.49253 0.47692 0.64035 0.0
C759 C 0.48519 0.46193 0.6182 0.0
C760 C 0.505 0.50118 0.60175 0.0
C761 C 0.5444 0.48635 0.58698 0.0
C762 C 0.46506 0.51552 0.58718 0.0
C763 C 0.52514 0.54049 0.61808 0.0
C764 C 0.51823 0.52565 0.64027 0.0
C765 C 0.53559 0.55525 0.65831 0.0
C766 C 0.56007 0.60149 0.6535 0.0
C767 C 0.56602 0.61772 0.63091 0.0
C768 C 0.54838 0.58676 0.61304 0.0
H769 H 0.591 0.96468 0.89112 0.0
H770 H 0.57079 0.90329 0.9583 0.0
H771 H 0.49345 0.93149 0.96121 0.0
H772 H 0.55236 0.07067 0.90563 0.0
H773 H 0.52488 0.07826 0.87875 0.0
H774 H 0.57424 0.04659 0.88032 0.0
H775 H 0.52371 0.97263 0.86117 0.0
H776 H 0.47437 0.00428 0.8591 0.0
H777 H 0.46657 0.94695 0.87297 0.0
H778 H 0.41922 0.96835 0.95677 0.0
H779 H 0.35591 0.01395 0.9462 0.0
H780 H 0.43172 0.06012 0.88436 0.0
C781 C 0.56979 0.956 0.90623 0.0
C782 C 0.58636 0.93112 0.92438 0.0
C783 C 0.55824 0.92175 0.94411 0.0
C784 C 0.51447 0.93775 0.94592 0.0
C785 C 0.50011 0.96388 0.92803 0.0
C786 C 0.52711 0.97314 0.90862 0.0
C787 C 0.50651 0.006 0.89278 0.0
C788 C 0.54158 0.05316 0.88917 0.0
C789 C 0.49191 0.98095 0.87017 0.0
C790 C 0.46347 0.0138 0.90626 0.0
C791 C 0.45992 0.98857 0.92638 0.0
C792 C 0.42191 0.98862 0.9412 0.0
C793 C 0.38635 0.01468 0.93515 0.0
C794 C 0.3899 0.04122 0.91481 0.0
C795 C 0.4291 0.04113 0.90032 0.0
H796 H 0.91971 0.55912 0.09619 0.0
H797 H 0.04476 0.66655 0.08225 0.0
H798 H 0.09355 0.60355 0.07897 0.0
H799 H 0.97855 0.48516 0.13039 0.0
H800 H 0.94487 0.42958 0.12016 0.0
H801 H 0.91869 0.4828 0.12001 0.0
H802 H 0.90211 0.47245 0.07708 0.0
H803 H 0.92814 0.41906 0.07712 0.0
H804 H 0.95054 0.46742 0.05812 0.0
H805 H 0.13022 0.52928 0.07921 0.0
H806 H 0.15111 0.44861 0.08247 0.0
H807 H 0.00251 0.38972 0.09599 0.0
C808 C 0.95718 0.56932 0.09212 0.0
C809 C 0.97824 0.61788 0.08945 0.0
C810 C 0.02764 0.62968 0.08442 0.0
C811 C 0.05578 0.59411 0.08247 0.0
C812 C 0.03414 0.54672 0.08553 0.0
C813 C 0.98595 0.53418 0.09015 0.0
C814 C 0.972 0.48067 0.09347 0.0
C815 C 0.95238 0.46888 0.11743 0.0
C816 C 0.93607 0.45861 0.07537 0.0
C817 C 0.01991 0.46534 0.09024 0.0
C818 C 0.0553 0.50391 0.08559 0.0
C819 C 0.10272 0.49869 0.08264 0.0
C820 C 0.11429 0.45276 0.08454 0.0
C821 C 0.07854 0.41273 0.08935 0.0
C822 C 0.03075 0.41941 0.0921 0.0
H823 H 0.41013 0.4094 0.37733 0.0
H824 H 0.3465 0.5356 0.36683 0.0
H825 H 0.4261 0.58359 0.36035 0.0
H826 H 0.50604 0.46719 0.40929 0.0
H827 H 0.54898 0.43337 0.39841 0.0
H828 H 0.4867 0.40726 0.39892 0.0
H829 H 0.48896 0.39101 0.35589 0.0
H830 H 0.5514 0.41704 0.35524 0.0
H831 H 0.51011 0.43965 0.33683 0.0
H832 H 0.5128 0.61938 0.35798 0.0
H833 H 0.60018 0.64092 0.36196 0.0
H834 H 0.60753 0.4921 0.37554 0.0
C835 C 0.41286 0.44684 0.37309 0.0
C836 C 0.37194 0.46859 0.37231 0.0
C837 C 0.37719 0.51805 0.36739 0.0
C838 C 0.42232 0.54562 0.36359 0.0
C839 C 0.46201 0.52334 0.36492 0.0
C840 C 0.45779 0.4751 0.36963 0.0
C841 C 0.50632 0.46094 0.37232 0.0
C842 C 0.51234 0.44104 0.39615 0.0
C843 C 0.51468 0.42503 0.35397 0.0
C844 C 0.53833 0.50893 0.36884 0.0
C845 C 0.51214 0.5443 0.36422 0.0
C846 C 0.53378 0.5919 0.36135 0.0
C847 C 0.58349 0.60378 0.36362 0.0
C848 C 0.61094 0.56828 0.36899 0.0
C849 C 0.58783 0.52015 0.37126 0.0
H850 H 0.44821 0.07239 0.62945 0.0
H851 H 0.45159 0.10999 0.55845 0.0
H852 H 0.49535 0.04384 0.55004 0.0
H853 H 0.56709 0.04975 0.63091 0.0
H854 H 0.55459 0.00156 0.65105 0.0
H855 H 0.51945 0.0484 0.65109 0.0
H856 H 0.44221 0.98558 0.6466 0.0
H857 H 0.47708 0.9385 0.64676 0.0
H858 H 0.43734 0.94353 0.62354 0.0
H859 H 0.53697 0.97147 0.54962 0.0
H860 H 0.57874 0.90354 0.5576 0.0
H861 H 0.5565 0.92061 0.62931 0.0
C862 C 0.45723 0.06587 0.61208 0.0
C863 C 0.44549 0.09518 0.59444 0.0
C864 C 0.45958 0.08714 0.57205 0.0
C865 C 0.48448 0.04982 0.56718 0.0
C866 C 0.49604 0.02177 0.585 0.0
C867 C 0.48331 0.02977 0.60704 0.0
C868 C 0.50303 0.99704 0.62334 0.0
C869 C 0.53812 0.02592 0.64008 0.0
C870 C 0.46249 0.96422 0.63578 0.0
C871 C 0.52853 0.96905 0.60705 0.0
C872 C 0.52352 0.98328 0.58496 0.0
C873 C 0.54177 0.9606 0.56687 0.0
C874 C 0.56551 0.92228 0.57151 0.0
C875 C 0.57183 0.9081 0.59404 0.0
C876 C 0.55333 0.93194 0.61198 0.0
H877 H 0.91463 0.91193 0.87423 0.0
H878 H 0.84568 0.03602 0.87967 0.0
H879 H 0.92283 0.0889 0.8741 0.0
H880 H 0.01326 0.96108 0.90713 0.0
H881 H 0.05575 0.93389 0.89149 0.0
H882 H 0.99413 0.90554 0.89235 0.0
H883 H 0.99121 0.90555 0.84856 0.0
H884 H 0.05289 0.93418 0.84757 0.0
H885 H 0.00816 0.961 0.83341 0.0
H886 H 0.00817 0.12879 0.8702 0.0
H887 H 0.09579 0.15219 0.87256 0.0
H888 H 0.10912 0.00231 0.87242 0.0
C889 C 0.91558 0.95018 0.87374 0.0
C890 C 0.87376 0.9697 0.87686 0.0
C891 C 0.87688 0.02005 0.87688 0.0
C892 C 0.92065 0.0505 0.87368 0.0
C893 C 0.96121 0.03014 0.8708 0.0
C894 C 0.95918 0.98115 0.87109 0.0
C895 C 0.00858 0.96855 0.8703 0.0
C896 C 0.0185 0.94064 0.89158 0.0
C897 C 0.01561 0.94068 0.84867 0.0
C898 C 0.03857 0.01811 0.8699 0.0
C899 C 0.01064 0.05317 0.86971 0.0
C900 C 0.03049 0.10167 0.87018 0.0
C901 C 0.08028 0.11463 0.87145 0.0
C902 C 0.10939 0.07913 0.87266 0.0
C903 C 0.08804 0.03037 0.8714 0.0
loop_
_geom_bond_atom_site_label_1
_geom_bond_atom_site_label_2
_geom_bond_distance
_geom_bond_site_symmetry_2
_ccdc_geom_bond_type
Co0 O2 2.143 . S
Co0 O8 2.074 . S
Co0 O11 2.093 . S
Co0 O24 2.097 . S
Co0 N41 2.151 . S
Co0 N49 2.214 . S
Co1 O2 2.160 . S
Co1 O7 2.058 . S
Co1 O17 2.057 . S
Co1 O32 2.037 . S
Co1 N36 2.145 . S
Co1 N57 2.257 . S
O2 Co0 2.143 . S
O2 Co1 2.160 . S
C3 O4 1.278 . S
C3 O11 1.224 . S
O4 C3 1.278 . S
C5 O6 1.245 . S
C5 O17 1.232 . S
O6 C5 1.245 . S
O7 Co1 2.058 . S
O7 C33 1.269 . S
O8 Co0 2.074 . S
O8 C33 1.257 . S
H9 C34 0.930 . S
H10 C40 0.930 . S
O11 Co0 2.093 . S
O11 C3 1.224 . S
H12 C44 0.929 . S
H13 C46 0.930 . S
H14 C47 0.930 . S
H15 C45 0.929 . S
H16 C48 0.928 . S
O17 Co1 2.057 . S
O17 C5 1.232 . S
H18 C37 0.929 . S
H19 C38 0.929 . S
H20 C50 0.931 . S
H21 C42 0.929 . S
H22 C51 0.930 . S
H23 C43 0.931 . S
O24 Co0 2.097 . S
O24 C52 1.214 . S
H25 C53 0.929 . S
H26 C54 0.929 . S
H27 C55 0.930 . S
H28 C56 0.929 . S
H29 C58 0.930 . S
H30 C35 0.930 . S
H31 C39 0.930 . S
O32 Co1 2.037 . S
O32 C52 1.234 . S
C33 O7 1.269 . S
C33 O8 1.257 . S
C34 H9 0.930 . S
C34 C37 1.388 1_655 S
C34 C39 1.418 . S
C35 H30 0.930 . S
C35 C38 1.404 . S
C35 C39 1.353 . S
N36 Co1 2.145 . S
N36 C37 1.397 . S
N36 C38 1.334 1_455 S
C37 H18 0.929 . S
C37 C34 1.388 1_455 S
C37 N36 1.397 . S
C38 H19 0.929 . S
C38 C35 1.404 . S
C38 N36 1.334 1_655 S
C39 H31 0.930 . S
C39 C34 1.418 . S
C39 C35 1.353 . S
C40 H10 0.930 . S
C40 N41 1.330 . S
C40 C42 1.446 . S
N41 Co0 2.151 . S
N41 C40 1.330 . S
N41 C45 1.418 . S
C42 H21 0.929 . S
C42 C40 1.446 . S
C42 C43 1.332 . S
C43 H23 0.931 . S
C43 C42 1.332 . S
C43 C44 1.267 . S
C44 H12 0.929 . S
C44 C43 1.267 . S
C44 C45 1.251 . S
C45 H15 0.929 . S
C45 N41 1.418 . S
C45 C44 1.251 . S
C46 H13 0.930 . S
C46 C48 1.406 . S
C46 C51 1.261 . S
C47 H14 0.930 . S
C47 N49 1.325 . S
C47 C50 1.357 . S
C48 H16 0.928 . S
C48 C46 1.406 . S
C48 N49 1.261 . S
N49 Co0 2.214 . S
N49 C47 1.325 . S
N49 C48 1.261 . S
C50 H20 0.931 . S
C50 C47 1.357 . S
C50 C51 1.312 . S
C51 H22 0.930 . S
C51 C46 1.261 . S
C51 C50 1.312 . S
C52 O24 1.214 . S
C52 O32 1.234 . S
C53 H25 0.929 . S
C53 C56 1.391 1_455 S
C53 C58 1.391 . S
C54 H26 0.929 . S
C54 C55 1.390 . S
C54 N57 1.391 1_655 S
C55 H27 0.930 . S
C55 C54 1.390 . S
C55 C56 1.392 . S
C56 H28 0.929 . S
C56 C53 1.391 1_655 S
C56 C55 1.392 . S
N57 Co1 2.257 . S
N57 C54 1.391 1_455 S
N57 C58 1.388 . S
C58 H29 0.930 . S
C58 C53 1.391 . S
C58 N57 1.388 . S
Co59 O61 2.143 . S
Co59 O67 2.074 . S
Co59 O70 2.093 . S
Co59 O83 2.097 . S
Co59 N100 2.151 . S
Co59 N108 2.214 . S
Co60 O61 2.160 . S
Co60 O66 2.058 . S
Co60 O76 2.057 . S
Co60 O91 2.037 . S
Co60 N95 2.145 . S
Co60 N116 2.257 . S
O61 Co59 2.143 . S
O61 Co60 2.160 . S
C62 O63 1.278 . S
C62 O70 1.224 . S
O63 C62 1.278 . S
C64 O65 1.245 . S
C64 O76 1.232 . S
O65 C64 1.245 . S
O66 Co60 2.058 . S
O66 C92 1.269 . S
O67 Co59 2.074 . S
O67 C92 1.257 . S
H68 C93 0.930 . S
H69 C99 0.930 . S
O70 Co59 2.093 . S
O70 C62 1.224 . S
H71 C103 0.929 . S
H72 C105 0.930 . S
H73 C106 0.930 . S
H74 C104 0.929 . S
H75 C107 0.928 . S
O76 Co60 2.057 . S
O76 C64 1.232 . S
H77 C96 0.929 . S
H78 C97 0.929 . S
H79 C109 0.931 . S
H80 C101 0.929 . S
H81 C110 0.930 . S
H82 C102 0.931 . S
O83 Co59 2.097 . S
O83 C111 1.214 . S
H84 C112 0.929 . S
H85 C113 0.929 . S
H86 C114 0.930 . S
H87 C115 0.929 . S
H88 C117 0.930 . S
H89 C94 0.930 . S
H90 C98 0.930 . S
O91 Co60 2.037 . S
O91 C111 1.234 . S
C92 O66 1.269 . S
C92 O67 1.257 . S
C93 H68 0.930 . S
C93 C96 1.388 . S
C93 C98 1.418 . S
C94 H89 0.930 . S
C94 C97 1.404 . S
C94 C98 1.353 . S
N95 Co60 2.145 . S
N95 C96 1.397 . S
N95 C97 1.334 . S
C96 H77 0.929 . S
C96 C93 1.388 . S
C96 N95 1.397 . S
C97 H78 0.929 . S
C97 C94 1.404 . S
C97 N95 1.334 . S
C98 H90 0.930 . S
C98 C93 1.418 . S
C98 C94 1.353 . S
C99 H69 0.930 . S
C99 N100 1.330 . S
C99 C101 1.446 . S
N100 Co59 2.151 . S
N100 C99 1.330 . S
N100 C104 1.418 . S
C101 H80 0.929 . S
C101 C99 1.446 . S
C101 C102 1.332 . S
C102 H82 0.931 . S
C102 C101 1.332 . S
C102 C103 1.267 . S
C103 H71 0.929 . S
C103 C102 1.267 . S
C103 C104 1.251 . S
C104 H74 0.929 . S
C104 N100 1.418 . S
C104 C103 1.251 . S
C105 H72 0.930 . S
C105 C107 1.406 . S
C105 C110 1.261 . S
C106 H73 0.930 . S
C106 N108 1.325 . S
C106 C109 1.357 . S
C107 H75 0.928 . S
C107 C105 1.406 . S
C107 N108 1.261 . S
N108 Co59 2.214 . S
N108 C106 1.325 . S
N108 C107 1.261 . S
C109 H79 0.931 . S
C109 C106 1.357 . S
C109 C110 1.312 . S
C110 H81 0.930 . S
C110 C105 1.261 . S
C110 C109 1.312 . S
C111 O83 1.214 . S
C111 O91 1.234 . S
C112 H84 0.929 . S
C112 C115 1.391 . S
C112 C117 1.391 . S
C113 H85 0.929 . S
C113 C114 1.390 . S
C113 N116 1.391 . S
C114 H86 0.930 . S
C114 C113 1.390 . S
C114 C115 1.392 . S
C115 H87 0.929 . S
C115 C112 1.391 . S
C115 C114 1.392 . S
N116 Co60 2.257 . S
N116 C113 1.391 . S
N116 C117 1.388 . S
C117 H88 0.930 . S
C117 C112 1.391 . S
C117 N116 1.388 . S
Co118 O120 2.143 . S
Co118 O126 2.074 . S
Co118 O129 2.093 . S
Co118 O142 2.097 . S
Co118 N159 2.151 . S
Co118 N167 2.214 . S
Co119 O120 2.160 . S
Co119 O125 2.058 . S
Co119 O135 2.057 . S
Co119 O150 2.037 . S
Co119 N154 2.145 . S
Co119 N175 2.257 . S
O120 Co118 2.143 . S
O120 Co119 2.160 . S
C121 O122 1.278 . S
C121 O129 1.224 . S
O122 C121 1.278 . S
C123 O124 1.245 . S
C123 O135 1.232 . S
O124 C123 1.245 . S
O125 Co119 2.058 . S
O125 C151 1.269 . S
O126 Co118 2.074 . S
O126 C151 1.257 . S
H127 C152 0.930 . S
H128 C158 0.930 . S
O129 Co118 2.093 . S
O129 C121 1.224 . S
H130 C162 0.929 . S
H131 C164 0.930 . S
H132 C165 0.930 . S
H133 C163 0.929 . S
H134 C166 0.928 . S
O135 Co119 2.057 . S
O135 C123 1.232 . S
H136 C155 0.929 . S
H137 C156 0.929 . S
H138 C168 0.931 . S
H139 C160 0.929 . S
H140 C169 0.930 . S
H141 C161 0.931 . S
O142 Co118 2.097 . S
O142 C170 1.214 . S
H143 C171 0.929 . S
H144 C172 0.929 . S
H145 C173 0.930 . S
H146 C174 0.929 . S
H147 C176 0.930 . S
H148 C153 0.930 . S
H149 C157 0.930 . S
O150 Co119 2.037 . S
O150 C170 1.234 . S
C151 O125 1.269 . S
C151 O126 1.257 . S
C152 H127 0.930 . S
C152 C155 1.388 . S
C152 C157 1.418 . S
C153 H148 0.930 . S
C153 C156 1.404 . S
C153 C157 1.353 . S
N154 Co119 2.145 . S
N154 C155 1.397 . S
N154 C156 1.334 . S
C155 H136 0.929 . S
C155 C152 1.388 . S
C155 N154 1.397 . S
C156 H137 0.929 . S
C156 C153 1.404 . S
C156 N154 1.334 . S
C157 H149 0.930 . S
C157 C152 1.418 . S
C157 C153 1.353 . S
C158 H128 0.930 . S
C158 N159 1.330 . S
C158 C160 1.446 . S
N159 Co118 2.151 . S
N159 C158 1.330 . S
N159 C163 1.418 . S
C160 H139 0.929 . S
C160 C158 1.446 . S
C160 C161 1.332 . S
C161 H141 0.931 . S
C161 C160 1.332 . S
C161 C162 1.267 . S
C162 H130 0.929 . S
C162 C161 1.267 . S
C162 C163 1.251 . S
C163 H133 0.929 . S
C163 N159 1.418 . S
C163 C162 1.251 . S
C164 H131 0.930 . S
C164 C166 1.406 . S
C164 C169 1.261 . S
C165 H132 0.930 . S
C165 N167 1.325 . S
C165 C168 1.357 . S
C166 H134 0.928 . S
C166 C164 1.406 . S
C166 N167 1.261 . S
N167 Co118 2.214 . S
N167 C165 1.325 . S
N167 C166 1.261 . S
C168 H138 0.931 . S
C168 C165 1.357 . S
C168 C169 1.312 . S
C169 H140 0.930 . S
C169 C164 1.261 . S
C169 C168 1.312 . S
C170 O142 1.214 . S
C170 O150 1.234 . S
C171 H143 0.929 . S
C171 C174 1.391 . S
C171 C176 1.391 . S
C172 H144 0.929 . S
C172 C173 1.390 . S
C172 N175 1.391 . S
C173 H145 0.930 . S
C173 C172 1.390 . S
C173 C174 1.392 . S
C174 H146 0.929 . S
C174 C171 1.391 . S
C174 C173 1.392 . S
N175 Co119 2.257 . S
N175 C172 1.391 . S
N175 C176 1.388 . S
C176 H147 0.930 . S
C176 C171 1.391 . S
C176 N175 1.388 . S
Co177 O179 2.143 . S
Co177 O185 2.074 . S
Co177 O188 2.093 . S
Co177 O201 2.097 . S
Co177 N218 2.151 . S
Co177 N226 2.214 . S
Co178 O179 2.160 . S
Co178 O184 2.058 . S
Co178 O194 2.057 . S
Co178 O209 2.037 . S
Co178 N213 2.145 . S
Co178 N234 2.257 . S
O179 Co177 2.143 . S
O179 Co178 2.160 . S
C180 O181 1.278 . S
C180 O188 1.224 . S
O181 C180 1.278 . S
C182 O183 1.245 . S
C182 O194 1.232 . S
O183 C182 1.245 . S
O184 Co178 2.058 . S
O184 C210 1.269 . S
O185 Co177 2.074 . S
O185 C210 1.257 . S
H186 C211 0.930 . S
H187 C217 0.930 . S
O188 Co177 2.093 . S
O188 C180 1.224 . S
H189 C221 0.929 . S
H190 C223 0.930 . S
H191 C224 0.930 . S
H192 C222 0.929 . S
H193 C225 0.928 . S
O194 Co178 2.057 . S
O194 C182 1.232 . S
H195 C214 0.929 . S
H196 C215 0.929 . S
H197 C227 0.931 . S
H198 C219 0.929 . S
H199 C228 0.930 . S
H200 C220 0.931 . S
O201 Co177 2.097 . S
O201 C229 1.214 . S
H202 C230 0.929 . S
H203 C231 0.929 . S
H204 C232 0.930 . S
H205 C233 0.929 . S
H206 C235 0.930 . S
H207 C212 0.930 . S
H208 C216 0.930 . S
O209 Co178 2.037 . S
O209 C229 1.234 . S
C210 O184 1.269 . S
C210 O185 1.257 . S
C211 H186 0.930 . S
C211 C214 1.388 1_545 S
C211 C216 1.418 . S
C212 H207 0.930 . S
C212 C215 1.404 . S
C212 C216 1.353 . S
N213 Co178 2.145 . S
N213 C214 1.397 . S
N213 C215 1.334 1_565 S
C214 H195 0.929 . S
C214 C211 1.388 1_565 S
C214 N213 1.397 . S
C215 H196 0.929 . S
C215 C212 1.404 . S
C215 N213 1.334 1_545 S
C216 H208 0.930 . S
C216 C211 1.418 . S
C216 C212 1.353 . S
C217 H187 0.930 . S
C217 N218 1.330 . S
C217 C219 1.446 . S
N218 Co177 2.151 . S
N218 C217 1.330 . S
N218 C222 1.418 . S
C219 H198 0.929 . S
C219 C217 1.446 . S
C219 C220 1.332 . S
C220 H200 0.931 . S
C220 C219 1.332 . S
C220 C221 1.267 . S
C221 H189 0.929 . S
C221 C220 1.267 . S
C221 C222 1.251 . S
C222 H192 0.929 . S
C222 N218 1.418 . S
C222 C221 1.251 . S
C223 H190 0.930 . S
C223 C225 1.406 . S
C223 C228 1.261 . S
C224 H191 0.930 . S
C224 N226 1.325 . S
C224 C227 1.357 . S
C225 H193 0.928 . S
C225 C223 1.406 . S
C225 N226 1.261 . S
N226 Co177 2.214 . S
N226 C224 1.325 . S
N226 C225 1.261 . S
C227 H197 0.931 . S
C227 C224 1.357 . S
C227 C228 1.312 . S
C228 H199 0.930 . S
C228 C223 1.261 . S
C228 C227 1.312 . S
C229 O201 1.214 . S
C229 O209 1.234 . S
C230 H202 0.929 . S
C230 C233 1.391 1_565 S
C230 C235 1.391 . S
C231 H203 0.929 . S
C231 C232 1.390 . S
C231 N234 1.391 1_545 S
C232 H204 0.930 . S
C232 C231 1.390 . S
C232 C233 1.392 . S
C233 H205 0.929 . S
C233 C230 1.391 1_545 S
C233 C232 1.392 . S
N234 Co178 2.257 . S
N234 C231 1.391 1_565 S
N234 C235 1.388 . S
C235 H206 0.930 . S
C235 C230 1.391 . S
C235 N234 1.388 . S
Co236 O238 2.143 . S
Co236 O244 2.074 . S
Co236 O247 2.093 . S
Co236 O260 2.097 . S
Co236 N277 2.151 . S
Co236 N285 2.214 . S
Co237 O238 2.160 . S
Co237 O243 2.058 . S
Co237 O253 2.057 . S
Co237 O268 2.037 . S
Co237 N272 2.145 . S
Co237 N293 2.257 . S
O238 Co236 2.143 . S
O238 Co237 2.160 . S
C239 O240 1.278 . S
C239 O247 1.224 . S
O240 C239 1.278 . S
C241 O242 1.245 . S
C241 O253 1.232 . S
O242 C241 1.245 . S
O243 Co237 2.058 . S
O243 C269 1.269 . S
O244 Co236 2.074 . S
O244 C269 1.257 . S
H245 C270 0.930 . S
H246 C276 0.930 . S
O247 Co236 2.093 . S
O247 C239 1.224 . S
H248 C280 0.929 . S
H249 C282 0.930 . S
H250 C283 0.930 . S
H251 C281 0.929 . S
H252 C284 0.928 . S
O253 Co237 2.057 . S
O253 C241 1.232 . S
H254 C273 0.929 . S
H255 C274 0.929 . S
H256 C286 0.931 . S
H257 C278 0.929 . S
H258 C287 0.930 . S
H259 C279 0.931 . S
O260 Co236 2.097 . S
O260 C288 1.214 . S
H261 C289 0.929 . S
H262 C290 0.929 . S
H263 C291 0.930 . S
H264 C292 0.929 . S
H265 C294 0.930 . S
H266 C271 0.930 . S
H267 C275 0.930 . S
O268 Co237 2.037 . S
O268 C288 1.234 . S
C269 O243 1.269 . S
C269 O244 1.257 . S
C270 H245 0.930 . S
C270 C273 1.388 . S
C270 C275 1.418 . S
C271 H266 0.930 . S
C271 C274 1.404 . S
C271 C275 1.353 . S
N272 Co237 2.145 . S
N272 C273 1.397 . S
N272 C274 1.334 . S
C273 H254 0.929 . S
C273 C270 1.388 . S
C273 N272 1.397 . S
C274 H255 0.929 . S
C274 C271 1.404 . S
C274 N272 1.334 . S
C275 H267 0.930 . S
C275 C270 1.418 . S
C275 C271 1.353 . S
C276 H246 0.930 . S
C276 N277 1.330 . S
C276 C278 1.446 . S
N277 Co236 2.151 . S
N277 C276 1.330 . S
N277 C281 1.418 . S
C278 H257 0.929 . S
C278 C276 1.446 . S
C278 C279 1.332 . S
C279 H259 0.931 . S
C279 C278 1.332 . S
C279 C280 1.267 . S
C280 H248 0.929 . S
C280 C279 1.267 . S
C280 C281 1.251 . S
C281 H251 0.929 . S
C281 N277 1.418 . S
C281 C280 1.251 . S
C282 H249 0.930 . S
C282 C284 1.406 . S
C282 C287 1.261 . S
C283 H250 0.930 . S
C283 N285 1.325 . S
C283 C286 1.357 . S
C284 H252 0.928 . S
C284 C282 1.406 . S
C284 N285 1.261 . S
N285 Co236 2.214 . S
N285 C283 1.325 . S
N285 C284 1.261 . S
C286 H256 0.931 . S
C286 C283 1.357 . S
C286 C287 1.312 . S
C287 H258 0.930 . S
C287 C282 1.261 . S
C287 C286 1.312 . S
C288 O260 1.214 . S
C288 O268 1.234 . S
C289 H261 0.929 . S
C289 C292 1.391 . S
C289 C294 1.391 . S
C290 H262 0.929 . S
C290 C291 1.390 . S
C290 N293 1.391 . S
C291 H263 0.930 . S
C291 C290 1.390 . S
C291 C292 1.392 . S
C292 H264 0.929 . S
C292 C289 1.391 . S
C292 C291 1.392 . S
N293 Co237 2.257 . S
N293 C290 1.391 . S
N293 C294 1.388 . S
C294 H265 0.930 . S
C294 C289 1.391 . S
C294 N293 1.388 . S
Co295 O297 2.143 . S
Co295 O303 2.074 . S
Co295 O306 2.093 . S
Co295 O319 2.097 . S
Co295 N336 2.151 . S
Co295 N344 2.214 . S
Co296 O297 2.160 . S
Co296 O302 2.058 . S
Co296 O312 2.057 . S
Co296 O327 2.037 . S
Co296 N331 2.145 . S
Co296 N352 2.257 . S
O297 Co295 2.143 . S
O297 Co296 2.160 . S
C298 O299 1.278 . S
C298 O306 1.224 . S
O299 C298 1.278 . S
C300 O301 1.245 . S
C300 O312 1.232 . S
O301 C300 1.245 . S
O302 Co296 2.058 . S
O302 C328 1.269 . S
O303 Co295 2.074 . S
O303 C328 1.257 . S
H304 C329 0.930 . S
H305 C335 0.930 . S
O306 Co295 2.093 . S
O306 C298 1.224 . S
H307 C339 0.929 . S
H308 C341 0.930 . S
H309 C342 0.930 . S
H310 C340 0.929 . S
H311 C343 0.928 . S
O312 Co296 2.057 . S
O312 C300 1.232 . S
H313 C332 0.929 . S
H314 C333 0.929 . S
H315 C345 0.931 . S
H316 C337 0.929 . S
H317 C346 0.930 . S
H318 C338 0.931 . S
O319 Co295 2.097 . S
O319 C347 1.214 . S
H320 C348 0.929 . S
H321 C349 0.929 . S
H322 C350 0.930 . S
H323 C351 0.929 . S
H324 C353 0.930 . S
H325 C330 0.930 . S
H326 C334 0.930 . S
O327 Co296 2.037 . S
O327 C347 1.234 . S
C328 O302 1.269 . S
C328 O303 1.257 . S
C329 H304 0.930 . S
C329 C332 1.388 1_565 S
C329 C334 1.418 . S
C330 H325 0.930 . S
C330 C333 1.404 . S
C330 C334 1.353 . S
N331 Co296 2.145 . S
N331 C332 1.397 . S
N331 C333 1.334 1_545 S
C332 H313 0.929 . S
C332 C329 1.388 1_545 S
C332 N331 1.397 . S
C333 H314 0.929 . S
C333 C330 1.404 . S
C333 N331 1.334 1_565 S
C334 H326 0.930 . S
C334 C329 1.418 . S
C334 C330 1.353 . S
C335 H305 0.930 . S
C335 N336 1.330 . S
C335 C337 1.446 . S
N336 Co295 2.151 . S
N336 C335 1.330 . S
N336 C340 1.418 . S
C337 H316 0.929 . S
C337 C335 1.446 . S
C337 C338 1.332 . S
C338 H318 0.931 . S
C338 C337 1.332 . S
C338 C339 1.267 . S
C339 H307 0.929 . S
C339 C338 1.267 . S
C339 C340 1.251 . S
C340 H310 0.929 . S
C340 N336 1.418 . S
C340 C339 1.251 . S
C341 H308 0.930 . S
C341 C343 1.406 . S
C341 C346 1.261 . S
C342 H309 0.930 . S
C342 N344 1.325 . S
C342 C345 1.357 . S
C343 H311 0.928 . S
C343 C341 1.406 . S
C343 N344 1.261 . S
N344 Co295 2.214 . S
N344 C342 1.325 . S
N344 C343 1.261 . S
C345 H315 0.931 . S
C345 C342 1.357 . S
C345 C346 1.312 . S
C346 H317 0.930 . S
C346 C341 1.261 . S
C346 C345 1.312 . S
C347 O319 1.214 . S
C347 O327 1.234 . S
C348 H320 0.929 . S
C348 C351 1.391 1_545 S
C348 C353 1.391 . S
C349 H321 0.929 . S
C349 C350 1.390 . S
C349 N352 1.391 1_565 S
C350 H322 0.930 . S
C350 C349 1.390 . S
C350 C351 1.392 . S
C351 H323 0.929 . S
C351 C348 1.391 1_565 S
C351 C350 1.392 . S
N352 Co296 2.257 . S
N352 C349 1.391 1_545 S
N352 C353 1.388 . S
C353 H324 0.930 . S
C353 C348 1.391 . S
C353 N352 1.388 . S
Co354 O356 2.143 . S
Co354 O362 2.074 . S
Co354 O365 2.093 . S
Co354 O378 2.097 . S
Co354 N395 2.151 . S
Co354 N403 2.214 . S
Co355 O356 2.160 . S
Co355 O361 2.058 . S
Co355 O371 2.057 . S
Co355 O386 2.037 . S
Co355 N390 2.145 . S
Co355 N411 2.257 . S
O356 Co354 2.143 . S
O356 Co355 2.160 . S
C357 O358 1.278 . S
C357 O365 1.224 . S
O358 C357 1.278 . S
C359 O360 1.245 . S
C359 O371 1.232 . S
O360 C359 1.245 . S
O361 Co355 2.058 . S
O361 C387 1.269 . S
O362 Co354 2.074 . S
O362 C387 1.257 . S
H363 C388 0.930 . S
H364 C394 0.930 . S
O365 Co354 2.093 . S
O365 C357 1.224 . S
H366 C398 0.929 . S
H367 C400 0.930 . S
H368 C401 0.930 . S
H369 C399 0.929 . S
H370 C402 0.928 . S
O371 Co355 2.057 . S
O371 C359 1.232 . S
H372 C391 0.929 . S
H373 C392 0.929 . S
H374 C404 0.931 . S
H375 C396 0.929 . S
H376 C405 0.930 . S
H377 C397 0.931 . S
O378 Co354 2.097 . S
O378 C406 1.214 . S
H379 C407 0.929 . S
H380 C408 0.929 . S
H381 C409 0.930 . S
H382 C410 0.929 . S
H383 C412 0.930 . S
H384 C389 0.930 . S
H385 C393 0.930 . S
O386 Co355 2.037 . S
O386 C406 1.234 . S
C387 O361 1.269 . S
C387 O362 1.257 . S
C388 H363 0.930 . S
C388 C391 1.388 1_455 S
C388 C393 1.418 . S
C389 H384 0.930 . S
C389 C392 1.404 . S
C389 C393 1.353 . S
N390 Co355 2.145 . S
N390 C391 1.397 . S
N390 C392 1.334 1_655 S
C391 H372 0.929 . S
C391 C388 1.388 1_655 S
C391 N390 1.397 . S
C392 H373 0.929 . S
C392 C389 1.404 . S
C392 N390 1.334 1_455 S
C393 H385 0.930 . S
C393 C388 1.418 . S
C393 C389 1.353 . S
C394 H364 0.930 . S
C394 N395 1.330 . S
C394 C396 1.446 . S
N395 Co354 2.151 . S
N395 C394 1.330 . S
N395 C399 1.418 . S
C396 H375 0.929 . S
C396 C394 1.446 . S
C396 C397 1.332 . S
C397 H377 0.931 . S
C397 C396 1.332 . S
C397 C398 1.267 . S
C398 H366 0.929 . S
C398 C397 1.267 . S
C398 C399 1.251 . S
C399 H369 0.929 . S
C399 N395 1.418 . S
C399 C398 1.251 . S
C400 H367 0.930 . S
C400 C402 1.406 . S
C400 C405 1.261 . S
C401 H368 0.930 . S
C401 N403 1.325 . S
C401 C404 1.357 . S
C402 H370 0.928 . S
C402 C400 1.406 . S
C402 N403 1.261 . S
N403 Co354 2.214 . S
N403 C401 1.325 . S
N403 C402 1.261 . S
C404 H374 0.931 . S
C404 C401 1.357 . S
C404 C405 1.312 . S
C405 H376 0.930 . S
C405 C400 1.261 . S
C405 C404 1.312 . S
C406 O378 1.214 . S
C406 O386 1.234 . S
C407 H379 0.929 . S
C407 C410 1.391 1_655 S
C407 C412 1.391 . S
C408 H380 0.929 . S
C408 C409 1.390 . S
C408 N411 1.391 1_455 S
C409 H381 0.930 . S
C409 C408 1.390 . S
C409 C410 1.392 . S
C410 H382 0.929 . S
C410 C407 1.391 1_455 S
C410 C409 1.392 . S
N411 Co355 2.257 . S
N411 C408 1.391 1_655 S
N411 C412 1.388 . S
C412 H383 0.930 . S
C412 C407 1.391 . S
C412 N411 1.388 . S
Co413 O415 2.143 . S
Co413 O421 2.074 . S
Co413 O424 2.093 . S
Co413 O437 2.097 . S
Co413 N454 2.151 . S
Co413 N462 2.214 . S
Co414 O415 2.160 . S
Co414 O420 2.058 . S
Co414 O430 2.057 . S
Co414 O445 2.037 . S
Co414 N449 2.145 . S
Co414 N470 2.257 . S
O415 Co413 2.143 . S
O415 Co414 2.160 . S
C416 O417 1.278 . S
C416 O424 1.224 . S
O417 C416 1.278 . S
C418 O419 1.245 . S
C418 O430 1.232 . S
O419 C418 1.245 . S
O420 Co414 2.058 . S
O420 C446 1.269 . S
O421 Co413 2.074 . S
O421 C446 1.257 . S
H422 C447 0.930 . S
H423 C453 0.930 . S
O424 Co413 2.093 . S
O424 C416 1.224 . S
H425 C457 0.929 . S
H426 C459 0.930 . S
H427 C460 0.930 . S
H428 C458 0.929 . S
H429 C461 0.928 . S
O430 Co414 2.057 . S
O430 C418 1.232 . S
H431 C450 0.929 . S
H432 C451 0.929 . S
H433 C463 0.931 . S
H434 C455 0.929 . S
H435 C464 0.930 . S
H436 C456 0.931 . S
O437 Co413 2.097 . S
O437 C465 1.214 . S
H438 C466 0.929 . S
H439 C467 0.929 . S
H440 C468 0.930 . S
H441 C469 0.929 . S
H442 C471 0.930 . S
H443 C448 0.930 . S
H444 C452 0.930 . S
O445 Co414 2.037 . S
O445 C465 1.234 . S
C446 O420 1.269 . S
C446 O421 1.257 . S
C447 H422 0.930 . S
C447 C450 1.388 . S
C447 C452 1.418 . S
C448 H443 0.930 . S
C448 C451 1.404 . S
C448 C452 1.353 . S
N449 Co414 2.145 . S
N449 C450 1.397 . S
N449 C451 1.334 . S
C450 H431 0.929 . S
C450 C447 1.388 . S
C450 N449 1.397 . S
C451 H432 0.929 . S
C451 C448 1.404 . S
C451 N449 1.334 . S
C452 H444 0.930 . S
C452 C447 1.418 . S
C452 C448 1.353 . S
C453 H423 0.930 . S
C453 N454 1.330 . S
C453 C455 1.446 . S
N454 Co413 2.151 . S
N454 C453 1.330 . S
N454 C458 1.418 . S
C455 H434 0.929 . S
C455 C453 1.446 . S
C455 C456 1.332 . S
C456 H436 0.931 . S
C456 C455 1.332 . S
C456 C457 1.267 . S
C457 H425 0.929 . S
C457 C456 1.267 . S
C457 C458 1.251 . S
C458 H428 0.929 . S
C458 N454 1.418 . S
C458 C457 1.251 . S
C459 H426 0.930 . S
C459 C461 1.406 . S
C459 C464 1.261 . S
C460 H427 0.930 . S
C460 N462 1.325 . S
C460 C463 1.357 . S
C461 H429 0.928 . S
C461 C459 1.406 . S
C461 N462 1.261 . S
N462 Co413 2.214 . S
N462 C460 1.325 . S
N462 C461 1.261 . S
C463 H433 0.931 . S
C463 C460 1.357 . S
C463 C464 1.312 . S
C464 H435 0.930 . S
C464 C459 1.261 . S
C464 C463 1.312 . S
C465 O437 1.214 . S
C465 O445 1.234 . S
C466 H438 0.929 . S
C466 C469 1.391 . S
C466 C471 1.391 . S
C467 H439 0.929 . S
C467 C468 1.390 . S
C467 N470 1.391 . S
C468 H440 0.930 . S
C468 C467 1.390 . S
C468 C469 1.392 . S
C469 H441 0.929 . S
C469 C466 1.391 . S
C469 C468 1.392 . S
N470 Co414 2.257 . S
N470 C467 1.391 . S
N470 C471 1.388 . S
C471 H442 0.930 . S
C471 C466 1.391 . S
C471 N470 1.388 . S
H472 C484 0.930 . S
H473 C486 0.930 . S
H474 C487 0.930 . S
H475 C491 0.959 . S
H476 C491 0.959 . S
H477 C491 0.961 . S
H478 C492 0.951 1_554 S
H479 C492 0.961 . S
H480 C492 0.959 . S
H481 C495 0.929 . S
H482 C496 0.931 . S
H483 C498 0.930 . S
C484 H472 0.930 . S
C484 C485 1.399 . S
C484 C489 1.399 . S
C485 C484 1.399 . S
C485 C486 1.376 . S
C486 H473 0.930 . S
C486 C485 1.376 . S
C486 C487 1.388 . S
C487 H474 0.930 . S
C487 C486 1.388 . S
C487 C488 1.390 . S
C488 C487 1.390 . S
C488 C489 1.394 . S
C488 C494 1.465 1_554 S
C489 C484 1.399 . S
C489 C488 1.394 . S
C489 C490 1.516 1_554 S
C490 C489 1.516 1_556 S
C490 C491 1.502 . S
C490 C492 1.561 . S
C490 C493 1.526 . S
C491 H475 0.959 . S
C491 H476 0.959 . S
C491 H477 0.961 . S
C491 C490 1.502 . S
C492 H478 0.951 1_556 S
C492 H479 0.961 . S
C492 H480 0.959 . S
C492 C490 1.561 . S
C493 C490 1.526 . S
C493 C494 1.396 . S
C493 C498 1.390 . S
C494 C488 1.465 1_556 S
C494 C493 1.396 . S
C494 C495 1.399 . S
C495 H481 0.929 . S
C495 C494 1.399 . S
C495 C496 1.385 . S
C496 H482 0.931 . S
C496 C495 1.385 . S
C496 C497 1.389 . S
C497 C496 1.389 . S
C497 C498 1.387 . S
C498 H483 0.930 . S
C498 C493 1.390 . S
C498 C497 1.387 . S
H499 C511 0.930 . S
H500 C513 0.930 . S
H501 C514 0.930 . S
H502 C518 0.959 . S
H503 C518 0.959 . S
H504 C518 0.961 . S
H505 C519 0.960 . S
H506 C519 0.961 . S
H507 C519 0.959 . S
H508 C522 0.929 . S
H509 C523 0.931 . S
H510 C525 0.930 . S
C511 H499 0.930 . S
C511 C512 1.399 . S
C511 C516 1.399 . S
C512 C511 1.399 . S
C512 C513 1.376 . S
C513 H500 0.930 . S
C513 C512 1.376 . S
C513 C514 1.388 . S
C514 H501 0.930 . S
C514 C513 1.388 . S
C514 C515 1.390 . S
C515 C514 1.390 . S
C515 C516 1.394 . S
C515 C521 1.465 . S
C516 C511 1.399 . S
C516 C515 1.394 . S
C516 C517 1.516 . S
C517 C516 1.516 . S
C517 C518 1.502 . S
C517 C519 1.561 . S
C517 C520 1.526 . S
C518 H502 0.959 . S
C518 H503 0.959 . S
C518 H504 0.961 . S
C518 C517 1.502 . S
C519 H505 0.960 . S
C519 H506 0.961 . S
C519 H507 0.959 . S
C519 C517 1.561 . S
C520 C517 1.526 . S
C520 C521 1.396 . S
C520 C525 1.390 . S
C521 C515 1.465 . S
C521 C520 1.396 . S
C521 C522 1.399 . S
C522 H508 0.929 . S
C522 C521 1.399 . S
C522 C523 1.385 . S
C523 H509 0.931 . S
C523 C522 1.385 . S
C523 C524 1.389 . S
C524 C523 1.389 . S
C524 C525 1.387 . S
C525 H510 0.930 . S
C525 C520 1.390 . S
C525 C524 1.387 . S
H526 C538 0.930 . S
H527 C540 0.930 . S
H528 C541 0.930 . S
H529 C545 0.959 . S
H530 C545 0.959 . S
H531 C545 0.961 . S
H532 C546 0.960 . S
H533 C546 0.961 . S
H534 C546 0.959 . S
H535 C549 0.929 . S
H536 C550 0.931 . S
H537 C552 0.930 . S
C538 H526 0.930 . S
C538 C539 1.399 . S
C538 C543 1.399 . S
C539 C538 1.399 . S
C539 C540 1.376 . S
C540 H527 0.930 . S
C540 C539 1.376 . S
C540 C541 1.388 . S
C541 H528 0.930 . S
C541 C540 1.388 . S
C541 C542 1.390 . S
C542 C541 1.390 . S
C542 C543 1.394 . S
C542 C548 1.465 . S
C543 C538 1.399 . S
C543 C542 1.394 . S
C543 C544 1.516 . S
C544 C543 1.516 . S
C544 C545 1.502 . S
C544 C546 1.561 . S
C544 C547 1.526 . S
C545 H529 0.959 . S
C545 H530 0.959 . S
C545 H531 0.961 . S
C545 C544 1.502 . S
C546 H532 0.960 . S
C546 H533 0.961 . S
C546 H534 0.959 . S
C546 C544 1.561 . S
C547 C544 1.526 . S
C547 C548 1.396 . S
C547 C552 1.390 . S
C548 C542 1.465 . S
C548 C547 1.396 . S
C548 C549 1.399 . S
C549 H535 0.929 . S
C549 C548 1.399 . S
C549 C550 1.385 . S
C550 H536 0.931 . S
C550 C549 1.385 . S
C550 C551 1.389 . S
C551 C550 1.389 . S
C551 C552 1.387 . S
C552 H537 0.930 . S
C552 C547 1.390 . S
C552 C551 1.387 . S
H553 C565 0.930 . S
H554 C567 0.930 . S
H555 C568 0.930 . S
H556 C572 0.959 . S
H557 C572 0.959 . S
H558 C572 0.961 . S
H559 C573 0.960 . S
H560 C573 0.961 . S
H561 C573 0.959 . S
H562 C576 0.929 . S
H563 C577 0.931 . S
H564 C579 0.930 . S
C565 H553 0.930 . S
C565 C566 1.399 . S
C565 C570 1.399 . S
C566 C565 1.399 . S
C566 C567 1.376 . S
C567 H554 0.930 . S
C567 C566 1.376 . S
C567 C568 1.388 . S
C568 H555 0.930 . S
C568 C567 1.388 . S
C568 C569 1.390 . S
C569 C568 1.390 . S
C569 C570 1.394 . S
C569 C575 1.465 . S
C570 C565 1.399 . S
C570 C569 1.394 . S
C570 C571 1.516 . S
C571 C570 1.516 . S
C571 C572 1.502 . S
C571 C573 1.561 . S
C571 C574 1.526 . S
C572 H556 0.959 . S
C572 H557 0.959 . S
C572 H558 0.961 . S
C572 C571 1.502 . S
C573 H559 0.960 . S
C573 H560 0.961 . S
C573 H561 0.959 . S
C573 C571 1.561 . S
C574 C571 1.526 . S
C574 C575 1.396 . S
C574 C579 1.390 . S
C575 C569 1.465 . S
C575 C574 1.396 . S
C575 C576 1.399 . S
C576 H562 0.929 . S
C576 C575 1.399 . S
C576 C577 1.385 . S
C577 H563 0.931 . S
C577 C576 1.385 . S
C577 C578 1.389 . S
C578 C577 1.389 . S
C578 C579 1.387 . S
C579 H564 0.930 . S
C579 C574 1.390 . S
C579 C578 1.387 . S
H580 C592 0.930 . S
H581 C594 0.930 . S
H582 C595 0.930 . S
H583 C599 0.959 . S
H584 C599 0.959 . S
H585 C599 0.961 . S
H586 C600 0.960 . S
H587 C600 0.961 . S
H588 C600 0.959 . S
H589 C603 0.929 . S
H590 C604 0.931 . S
H591 C606 0.930 . S
C592 H580 0.930 . S
C592 C593 1.399 . S
C592 C597 1.399 . S
C593 C592 1.399 . S
C593 C594 1.376 . S
C594 H581 0.930 . S
C594 C593 1.376 . S
C594 C595 1.388 . S
C595 H582 0.930 . S
C595 C594 1.388 . S
C595 C596 1.390 . S
C596 C595 1.390 . S
C596 C597 1.394 . S
C596 C602 1.465 . S
C597 C592 1.399 . S
C597 C596 1.394 . S
C597 C598 1.516 . S
C598 C597 1.516 . S
C598 C599 1.502 . S
C598 C600 1.561 . S
C598 C601 1.526 . S
C599 H583 0.959 . S
C599 H584 0.959 . S
C599 H585 0.961 . S
C599 C598 1.502 . S
C600 H586 0.960 . S
C600 H587 0.961 . S
C600 H588 0.959 . S
C600 C598 1.561 . S
C601 C598 1.526 . S
C601 C602 1.396 . S
C601 C606 1.390 . S
C602 C596 1.465 . S
C602 C601 1.396 . S
C602 C603 1.399 . S
C603 H589 0.929 . S
C603 C602 1.399 . S
C603 C604 1.385 . S
C604 H590 0.931 . S
C604 C603 1.385 . S
C604 C605 1.389 . S
C605 C604 1.389 . S
C605 C606 1.387 . S
C606 H591 0.930 . S
C606 C601 1.390 . S
C606 C605 1.387 . S
H607 C619 0.930 . S
H608 C621 0.930 . S
H609 C622 0.930 . S
H610 C626 0.959 . S
H611 C626 0.959 . S
H612 C626 0.961 . S
H613 C627 0.960 . S
H614 C627 0.961 . S
H615 C627 0.959 . S
H616 C630 0.929 . S
H617 C631 0.931 . S
H618 C633 0.930 . S
C619 H607 0.930 . S
C619 C620 1.399 . S
C619 C624 1.399 . S
C620 C619 1.399 . S
C620 C621 1.376 . S
C621 H608 0.930 . S
C621 C620 1.376 . S
C621 C622 1.388 . S
C622 H609 0.930 . S
C622 C621 1.388 . S
C622 C623 1.390 . S
C623 C622 1.390 . S
C623 C624 1.394 . S
C623 C629 1.465 . S
C624 C619 1.399 . S
C624 C623 1.394 . S
C624 C625 1.516 . S
C625 C624 1.516 . S
C625 C626 1.502 . S
C625 C627 1.561 . S
C625 C628 1.526 . S
C626 H610 0.959 . S
C626 H611 0.959 . S
C626 H612 0.961 . S
C626 C625 1.502 . S
C627 H613 0.960 . S
C627 H614 0.961 . S
C627 H615 0.959 . S
C627 C625 1.561 . S
C628 C625 1.526 . S
C628 C629 1.396 . S
C628 C633 1.390 . S
C629 C623 1.465 . S
C629 C628 1.396 . S
C629 C630 1.399 . S
C630 H616 0.929 . S
C630 C629 1.399 . S
C630 C631 1.385 . S
C631 H617 0.931 . S
C631 C630 1.385 . S
C631 C632 1.389 . S
C632 C631 1.389 . S
C632 C633 1.387 . S
C633 H618 0.930 . S
C633 C628 1.390 . S
C633 C632 1.387 . S
H634 C646 0.930 . S
H635 C648 0.930 . S
H636 C649 0.930 . S
H637 C653 0.959 . S
H638 C653 0.959 . S
H639 C653 0.961 . S
H640 C654 0.960 . S
H641 C654 0.961 . S
H642 C654 0.959 . S
H643 C657 0.929 . S
H644 C658 0.931 . S
H645 C660 0.930 . S
C646 H634 0.930 . S
C646 C647 1.399 . S
C646 C651 1.399 . S
C647 C646 1.399 . S
C647 C648 1.376 . S
C648 H635 0.930 . S
C648 C647 1.376 . S
C648 C649 1.388 . S
C649 H636 0.930 . S
C649 C648 1.388 . S
C649 C650 1.390 . S
C650 C649 1.390 . S
C650 C651 1.394 . S
C650 C656 1.465 . S
C651 C646 1.399 . S
C651 C650 1.394 . S
C651 C652 1.516 . S
C652 C651 1.516 . S
C652 C653 1.502 . S
C652 C654 1.561 . S
C652 C655 1.526 . S
C653 H637 0.959 . S
C653 H638 0.959 . S
C653 H639 0.961 . S
C653 C652 1.502 . S
C654 H640 0.960 . S
C654 H641 0.961 . S
C654 H642 0.959 . S
C654 C652 1.561 . S
C655 C652 1.526 . S
C655 C656 1.396 . S
C655 C660 1.390 . S
C656 C650 1.465 . S
C656 C655 1.396 . S
C656 C657 1.399 . S
C657 H643 0.929 . S
C657 C656 1.399 . S
C657 C658 1.385 . S
C658 H644 0.931 . S
C658 C657 1.385 . S
C658 C659 1.389 . S
C659 C658 1.389 . S
C659 C660 1.387 . S
C660 H645 0.930 . S
C660 C655 1.390 . S
C660 C659 1.387 . S
H661 C673 0.930 . S
H662 C675 0.930 . S
H663 C676 0.930 . S
H664 C680 0.959 . S
H665 C680 0.959 . S
H666 C680 0.961 . S
H667 C681 0.960 . S
H668 C681 0.961 . S
H669 C681 0.959 . S
H670 C684 0.929 . S
H671 C685 0.931 . S
H672 C687 0.930 . S
C673 H661 0.930 . S
C673 C674 1.399 . S
C673 C678 1.399 . S
C674 C673 1.399 . S
C674 C675 1.376 . S
C675 H662 0.930 . S
C675 C674 1.376 . S
C675 C676 1.388 . S
C676 H663 0.930 . S
C676 C675 1.388 . S
C676 C677 1.390 . S
C677 C676 1.390 . S
C677 C678 1.394 . S
C677 C683 1.465 1_554 S
C678 C673 1.399 . S
C678 C677 1.394 . S
C678 C679 1.516 1_554 S
C679 C678 1.516 1_556 S
C679 C680 1.502 . S
C679 C681 1.561 . S
C679 C682 1.526 . S
C680 H664 0.959 . S
C680 H665 0.959 . S
C680 H666 0.961 . S
C680 C679 1.502 . S
C681 H667 0.960 . S
C681 H668 0.961 . S
C681 H669 0.959 . S
C681 C679 1.561 . S
C682 C679 1.526 . S
C682 C683 1.396 . S
C682 C687 1.390 . S
C683 C677 1.465 1_556 S
C683 C682 1.396 . S
C683 C684 1.399 . S
C684 H670 0.929 . S
C684 C683 1.399 . S
C684 C685 1.385 . S
C685 H671 0.931 . S
C685 C684 1.385 . S
C685 C686 1.389 . S
C686 C685 1.389 . S
C686 C687 1.387 . S
C687 H672 0.930 . S
C687 C682 1.390 . S
C687 C686 1.387 . S
H688 C700 0.930 . S
H689 C702 0.930 . S
H690 C703 0.930 . S
H691 C707 0.959 . S
H692 C707 0.965 . S
H693 C707 0.961 . S
H694 C708 0.960 1_545 S
H695 C708 0.961 . S
H696 C708 0.959 . S
H697 C711 0.929 . S
H698 C712 0.931 . S
H699 C714 0.930 . S
C700 H688 0.930 . S
C700 C701 1.399 . S
C700 C705 1.399 . S
C701 C700 1.399 . S
C701 C702 1.376 . S
C702 H689 0.930 . S
C702 C701 1.376 . S
C702 C703 1.388 . S
C703 H690 0.930 . S
C703 C702 1.388 . S
C703 C704 1.390 . S
C704 C703 1.390 . S
C704 C705 1.394 . S
C704 C710 1.465 1_445 S
C705 C700 1.399 . S
C705 C704 1.394 . S
C705 C706 1.516 1_455 S
C706 C705 1.516 1_655 S
C706 C707 1.502 . S
C706 C708 1.561 1_645 S
C706 C709 1.526 1_545 S
C707 H691 0.959 . S
C707 H692 0.965 . S
C707 H693 0.961 . S
C707 C706 1.502 . S
C708 H694 0.960 1_565 S
C708 H695 0.961 . S
C708 H696 0.959 . S
C708 C706 1.561 1_465 S
C709 C706 1.526 1_565 S
C709 C710 1.396 . S
C709 C714 1.390 . S
C710 C704 1.465 1_665 S
C710 C709 1.396 . S
C710 C711 1.399 . S
C711 H697 0.929 . S
C711 C710 1.399 . S
C711 C712 1.385 . S
C712 H698 0.931 . S
C712 C711 1.385 . S
C712 C713 1.389 . S
C713 C712 1.389 . S
C713 C714 1.387 . S
C714 H699 0.930 . S
C714 C709 1.390 . S
C714 C713 1.387 . S
H715 C727 0.930 . S
H716 C729 0.930 . S
H717 C730 0.930 . S
H718 C734 0.959 . S
H719 C734 0.959 . S
H720 C734 0.961 . S
H721 C735 0.960 . S
H722 C735 0.961 . S
H723 C735 0.959 . S
H724 C738 0.929 . S
H725 C739 0.931 . S
H726 C741 0.930 . S
C727 H715 0.930 . S
C727 C728 1.399 . S
C727 C732 1.399 . S
C728 C727 1.399 . S
C728 C729 1.376 . S
C729 H716 0.930 . S
C729 C728 1.376 . S
C729 C730 1.388 . S
C730 H717 0.930 . S
C730 C729 1.388 . S
C730 C731 1.390 . S
C731 C730 1.390 . S
C731 C732 1.394 . S
C731 C737 1.465 1_455 S
C732 C727 1.399 . S
C732 C731 1.394 . S
C732 C733 1.516 . S
C733 C732 1.516 . S
C733 C734 1.502 . S
C733 C735 1.561 1_455 S
C733 C736 1.526 1_455 S
C734 H718 0.959 . S
C734 H719 0.959 . S
C734 H720 0.961 . S
C734 C733 1.502 . S
C735 H721 0.960 . S
C735 H722 0.961 . S
C735 H723 0.959 . S
C735 C733 1.561 1_655 S
C736 C733 1.526 1_655 S
C736 C737 1.396 . S
C736 C741 1.390 . S
C737 C731 1.465 1_655 S
C737 C736 1.396 . S
C737 C738 1.399 . S
C738 H724 0.929 . S
C738 C737 1.399 . S
C738 C739 1.385 . S
C739 H725 0.931 . S
C739 C738 1.385 . S
C739 C740 1.389 . S
C740 C739 1.389 . S
C740 C741 1.387 . S
C741 H726 0.930 . S
C741 C736 1.390 . S
C741 C740 1.387 . S
H742 C754 0.930 . S
H743 C756 0.930 . S
H744 C757 0.930 . S
H745 C761 0.959 . S
H746 C761 0.959 . S
H747 C761 0.961 . S
H748 C762 0.960 . S
H749 C762 0.961 . S
H750 C762 0.959 . S
H751 C765 0.929 . S
H752 C766 0.931 . S
H753 C768 0.930 . S
C754 H742 0.930 . S
C754 C755 1.399 . S
C754 C759 1.399 . S
C755 C754 1.399 . S
C755 C756 1.376 . S
C756 H743 0.930 . S
C756 C755 1.376 . S
C756 C757 1.388 . S
C757 H744 0.930 . S
C757 C756 1.388 . S
C757 C758 1.390 . S
C758 C757 1.390 . S
C758 C759 1.394 . S
C758 C764 1.465 . S
C759 C754 1.399 . S
C759 C758 1.394 . S
C759 C760 1.516 . S
C760 C759 1.516 . S
C760 C761 1.502 . S
C760 C762 1.561 . S
C760 C763 1.526 . S
C761 H745 0.959 . S
C761 H746 0.959 . S
C761 H747 0.961 . S
C761 C760 1.502 . S
C762 H748 0.960 . S
C762 H749 0.961 . S
C762 H750 0.959 . S
C762 C760 1.561 . S
C763 C760 1.526 . S
C763 C764 1.396 . S
C763 C768 1.390 . S
C764 C758 1.465 . S
C764 C763 1.396 . S
C764 C765 1.399 . S
C765 H751 0.929 . S
C765 C764 1.399 . S
C765 C766 1.385 . S
C766 H752 0.931 . S
C766 C765 1.385 . S
C766 C767 1.389 . S
C767 C766 1.389 . S
C767 C768 1.387 . S
C768 H753 0.930 . S
C768 C763 1.390 . S
C768 C767 1.387 . S
H769 C781 0.930 . S
H770 C783 0.930 . S
H771 C784 0.930 . S
H772 C788 0.959 . S
H773 C788 0.959 . S
H774 C788 0.961 . S
H775 C789 0.960 . S
H776 C789 0.961 . S
H777 C789 0.959 . S
H778 C792 0.929 . S
H779 C793 0.931 . S
H780 C795 0.930 . S
C781 H769 0.930 . S
C781 C782 1.399 . S
C781 C786 1.399 . S
C782 C781 1.399 . S
C782 C783 1.376 . S
C783 H770 0.930 . S
C783 C782 1.376 . S
C783 C784 1.388 . S
C784 H771 0.930 . S
C784 C783 1.388 . S
C784 C785 1.390 . S
C785 C784 1.390 . S
C785 C786 1.394 . S
C785 C791 1.465 . S
C786 C781 1.399 . S
C786 C785 1.394 . S
C786 C787 1.516 1_565 S
C787 C786 1.516 1_545 S
C787 C788 1.502 . S
C787 C789 1.561 . S
C787 C790 1.526 . S
C788 H772 0.959 . S
C788 H773 0.959 . S
C788 H774 0.961 . S
C788 C787 1.502 . S
C789 H775 0.960 . S
C789 H776 0.961 . S
C789 H777 0.959 . S
C789 C787 1.561 . S
C790 C787 1.526 . S
C790 C791 1.396 1_545 S
C790 C795 1.390 . S
C791 C785 1.465 . S
C791 C790 1.396 1_565 S
C791 C792 1.399 . S
C792 H778 0.929 . S
C792 C791 1.399 . S
C792 C793 1.385 1_565 S
C793 H779 0.931 . S
C793 C792 1.385 1_545 S
C793 C794 1.389 . S
C794 C793 1.389 . S
C794 C795 1.387 . S
C795 H780 0.930 . S
C795 C790 1.390 . S
C795 C794 1.387 . S
H796 C808 0.930 . S
H797 C810 0.930 . S
H798 C811 0.930 . S
H799 C815 0.959 . S
H800 C815 0.959 . S
H801 C815 0.961 . S
H802 C816 0.960 . S
H803 C816 0.961 . S
H804 C816 0.959 1_455 S
H805 C819 0.929 . S
H806 C820 0.931 . S
H807 C822 0.930 . S
C808 H796 0.930 . S
C808 C809 1.399 . S
C808 C813 1.399 . S
C809 C808 1.399 . S
C809 C810 1.376 . S
C810 H797 0.930 . S
C810 C809 1.376 . S
C810 C811 1.388 1_655 S
C811 H798 0.930 . S
C811 C810 1.388 1_455 S
C811 C812 1.390 . S
C812 C811 1.390 . S
C812 C813 1.394 1_455 S
C812 C818 1.465 . S
C813 C808 1.399 . S
C813 C812 1.394 1_655 S
C813 C814 1.516 . S
C814 C813 1.516 . S
C814 C815 1.502 . S
C814 C816 1.561 . S
C814 C817 1.526 1_655 S
C815 H799 0.959 . S
C815 H800 0.959 . S
C815 H801 0.961 . S
C815 C814 1.502 . S
C816 H802 0.960 . S
C816 H803 0.961 . S
C816 H804 0.959 1_655 S
C816 C814 1.561 . S
C817 C814 1.526 1_455 S
C817 C818 1.396 . S
C817 C822 1.390 . S
C818 C812 1.465 . S
C818 C817 1.396 . S
C818 C819 1.399 . S
C819 H805 0.929 . S
C819 C818 1.399 . S
C819 C820 1.385 . S
C820 H806 0.931 . S
C820 C819 1.385 . S
C820 C821 1.389 . S
C821 C820 1.389 . S
C821 C822 1.387 . S
C822 H807 0.930 . S
C822 C817 1.390 . S
C822 C821 1.387 . S
H823 C835 0.930 . S
H824 C837 0.930 . S
H825 C838 0.930 . S
H826 C842 0.959 . S
H827 C842 0.959 . S
H828 C842 0.961 . S
H829 C843 0.960 . S
H830 C843 0.961 . S
H831 C843 0.959 . S
H832 C846 0.929 . S
H833 C847 0.931 . S
H834 C849 0.930 . S
C835 H823 0.930 . S
C835 C836 1.399 . S
C835 C840 1.399 . S
C836 C835 1.399 . S
C836 C837 1.376 . S
C837 H824 0.930 . S
C837 C836 1.376 . S
C837 C838 1.388 . S
C838 H825 0.930 . S
C838 C837 1.388 . S
C838 C839 1.390 . S
C839 C838 1.390 . S
C839 C840 1.394 . S
C839 C845 1.465 . S
C840 C835 1.399 . S
C840 C839 1.394 . S
C840 C841 1.516 . S
C841 C840 1.516 . S
C841 C842 1.502 . S
C841 C843 1.561 . S
C841 C844 1.526 . S
C842 H826 0.959 . S
C842 H827 0.959 . S
C842 H828 0.961 . S
C842 C841 1.502 . S
C843 H829 0.960 . S
C843 H830 0.961 . S
C843 H831 0.959 . S
C843 C841 1.561 . S
C844 C841 1.526 . S
C844 C845 1.396 . S
C844 C849 1.390 . S
C845 C839 1.465 . S
C845 C844 1.396 . S
C845 C846 1.399 . S
C846 H832 0.929 . S
C846 C845 1.399 . S
C846 C847 1.385 . S
C847 H833 0.931 . S
C847 C846 1.385 . S
C847 C848 1.389 . S
C848 C847 1.389 . S
C848 C849 1.387 . S
C849 H834 0.930 . S
C849 C844 1.390 . S
C849 C848 1.387 . S
H850 C862 0.930 . S
H851 C864 0.930 . S
H852 C865 0.930 . S
H853 C869 0.959 . S
H854 C869 0.959 . S
H855 C869 0.961 . S
H856 C870 0.961 . S
H857 C870 0.961 . S
H858 C870 0.959 . S
H859 C873 0.929 . S
H860 C874 0.931 . S
H861 C876 0.930 . S
C862 H850 0.930 . S
C862 C863 1.399 . S
C862 C867 1.399 . S
C863 C862 1.399 . S
C863 C864 1.376 . S
C864 H851 0.930 . S
C864 C863 1.376 . S
C864 C865 1.388 . S
C865 H852 0.930 . S
C865 C864 1.388 . S
C865 C866 1.390 . S
C866 C865 1.390 . S
C866 C867 1.394 . S
C866 C872 1.465 1_545 S
C867 C862 1.399 . S
C867 C866 1.394 . S
C867 C868 1.516 . S
C868 C867 1.516 . S
C868 C869 1.502 . S
C868 C870 1.561 1_545 S
C868 C871 1.526 1_545 S
C869 H853 0.959 . S
C869 H854 0.959 . S
C869 H855 0.961 . S
C869 C868 1.502 . S
C870 H856 0.961 . S
C870 H857 0.961 . S
C870 H858 0.959 . S
C870 C868 1.561 1_565 S
C871 C868 1.526 1_565 S
C871 C872 1.396 . S
C871 C876 1.390 . S
C872 C866 1.465 1_565 S
C872 C871 1.396 . S
C872 C873 1.399 . S
C873 H859 0.929 . S
C873 C872 1.399 . S
C873 C874 1.385 . S
C874 H860 0.931 . S
C874 C873 1.385 . S
C874 C875 1.389 . S
C875 C874 1.389 . S
C875 C876 1.387 . S
C876 H861 0.930 . S
C876 C871 1.390 . S
C876 C875 1.387 . S
H877 C889 0.930 . S
H878 C891 0.930 . S
H879 C892 0.930 1_545 S
H880 C896 0.959 . S
H881 C896 0.959 . S
H882 C896 0.961 . S
H883 C897 0.960 1_655 S
H884 C897 0.961 1_545 S
H885 C897 0.959 1_645 S
H886 C900 0.929 . S
H887 C901 0.931 . S
H888 C903 0.930 . S
C889 H877 0.930 . S
C889 C890 1.399 . S
C889 C894 1.399 . S
C890 C889 1.399 . S
C890 C891 1.376 . S
C891 H878 0.930 . S
C891 C890 1.376 . S
C891 C892 1.388 . S
C892 H879 0.930 1_565 S
C892 C891 1.388 . S
C892 C893 1.390 . S
C893 C892 1.390 . S
C893 C894 1.394 . S
C893 C899 1.465 1_665 S
C894 C889 1.399 . S
C894 C893 1.394 . S
C894 C895 1.516 1_655 S
C895 C894 1.516 1_455 S
C895 C896 1.502 . S
C895 C897 1.561 . S
C895 C898 1.526 1_565 S
C896 H880 0.959 . S
C896 H881 0.959 . S
C896 H882 0.961 . S
C896 C895 1.502 . S
C897 H883 0.960 1_455 S
C897 H884 0.961 1_565 S
C897 H885 0.959 1_465 S
C897 C895 1.561 . S
C898 C895 1.526 1_545 S
C898 C899 1.396 . S
C898 C903 1.390 . S
C899 C893 1.465 1_445 S
C899 C898 1.396 . S
C899 C900 1.399 . S
C900 H886 0.929 . S
C900 C899 1.399 . S
C900 C901 1.385 . S
C901 H887 0.931 . S
C901 C900 1.385 . S
C901 C902 1.389 . S
C902 C901 1.389 . S
C902 C903 1.387 . S
C903 H888 0.930 . S
C903 C898 1.390 . S
C903 C902 1.387 . S
C485 C33 1.291 . S
C497 C328 1.282 . S
C512 C62 1.380 . S
C524 C357 1.420 . S
C539 C151 1.298 . S
C551 C446 1.289 . S
C566 C180 1.400 . S
C578 C239 1.398 . S
C593 C416 1.391 . S
C605 C3 1.407 . S
C620 C269 1.281 . S
C632 C92 1.274 . S
C647 C121 1.381 . S
C659 C298 1.419 . S
C674 C387 1.297 . S
C686 C210 1.288 . S
C701 C52 1.648 . S
C713 C406 1.628 . S
C728 C418 1.635 . S
C740 C64 1.623 . S
C755 C170 1.658 . S
C767 C288 1.618 . S
C782 C182 1.638 . S
C794 C300 1.610 . S
C809 C359 1.605 . S
C821 C5 1.630 . S
C836 C465 1.625 . S
C848 C111 1.651 . S
C863 C123 1.636 . S
C875 C241 1.621 . S
C890 C229 1.622 . S
C902 C347 1.654 . S
