# Generated by pormake.
# Topology tfs, (6)-cn, num edge types: 1
# Building blocks:
#     Node 0, Type 0, BuildingBlock: JUFBIX_clean_sbu_0, # of connection points: 6
#     Node 1, Type 0, BuildingBlock: JUFBIX_clean_sbu_0, # of connection points: 6
#     Node 2, Type 0, BuildingBlock: JUFBIX_clean_sbu_0, # of connection points: 6
#     Node 3, Type 0, BuildingBlock: JUFBIX_clean_sbu_0, # of connection points: 6
#     Node 4, Type 0, BuildingBlock: JUFBIX_clean_sbu_0, # of connection points: 6
#     Node 5, Type 0, BuildingBlock: JUFBIX_clean_sbu_0, # of connection points: 6
#     Edge 6, Type (0, 0), BuildingBlock: AJUNOK_clean_linker_0, # of connection points: 2
#     Edge 7, Type (0, 0), BuildingBlock: AJUNOK_clean_linker_0, # of connection points: 2
#     Edge 8, Type (0, 0), BuildingBlock: AJUNOK_clean_linker_0, # of connection points: 2
#     Edge 9, Type (0, 0), BuildingBlock: AJUNOK_clean_linker_0, # of connection points: 2
#     Edge 10, Type (0, 0), BuildingBlock: AJUNOK_clean_linker_0, # of connection points: 2
#     Edge 11, Type (0, 0), BuildingBlock: AJUNOK_clean_linker_0, # of connection points: 2
#     Edge 12, Type (0, 0), BuildingBlock: AJUNOK_clean_linker_0, # of connection points: 2
#     Edge 13, Type (0, 0), BuildingBlock: AJUNOK_clean_linker_0, # of connection points: 2
#     Edge 14, Type (0, 0), BuildingBlock: AJUNOK_clean_linker_0, # of connection points: 2
#     Edge 15, Type (0, 0), BuildingBlock: AJUNOK_clean_linker_0, # of connection points: 2
#     Edge 16, Type (0, 0), BuildingBlock: AJUNOK_clean_linker_0, # of connection points: 2
#     Edge 17, Type (0, 0), BuildingBlock: AJUNOK_clean_linker_0, # of connection points: 2
#     Edge 18, Type (0, 0), BuildingBlock: AJUNOK_clean_linker_0, # of connection points: 2
#     Edge 19, Type (0, 0), BuildingBlock: AJUNOK_clean_linker_0, # of connection points: 2
#     Edge 20, Type (0, 0), BuildingBlock: AJUNOK_clean_linker_0, # of connection points: 2
#     Edge 21, Type (0, 0), BuildingBlock: AJUNOK_clean_linker_0, # of connection points: 2
#     Edge 22, Type (0, 0), BuildingBlock: AJUNOK_clean_linker_0, # of connection points: 2
#     Edge 23, Type (0, 0), BuildingBlock: AJUNOK_clean_linker_0, # of connection points: 2
# Relax obj value: 0.313
# Max RMSD: 0.244
# Mean RMSD: 0.183
data_MOF--net-tfs--node1-JUFBIX_clean_sbu_0--edge1-AJUNOK_clean_linker_0
_symmetry_space_group_name_H-M    P1
_symmetry_Int_Tables_number       1
_symmetry_cell_setting            triclinic
loop_
_symmetry_equiv_pos_as_xyz
'x, y, z'
_cell_length_a     32.018602
_cell_length_b     35.548274
_cell_length_c     10.917916
_cell_angle_alpha  90.46172
_cell_angle_beta   93.15224
_cell_angle_gamma 110.05325
loop_
_atom_site_label
_atom_site_type_symbol
_atom_site_fract_x
_atom_site_fract_y
_atom_site_fract_z
_atom_type_partial_charge
Co0 Co 0.29113 0.41028 0.02759 0.0
C1 C 0.25199 0.39436 0.25418 0.0
Co2 Co 0.21851 0.37739 0.01592 0.0
C3 C 0.37339 0.47517 1.00083 0.0
C4 C 0.38013 0.43441 0.13728 0.0
N5 N 0.35134 0.43964 0.04966 0.0
N6 N 0.41419 0.49282 0.0568 0.0
C7 C 0.4186 0.46733 0.14285 0.0
H8 H 0.35853 0.48922 0.93191 0.0
H9 H 0.37245 0.40958 0.19888 0.0
C10 C 0.25836 0.39407 0.78948 0.0
N11 N 0.15807 0.34682 0.99349 0.0
C12 C 0.12111 0.34853 0.0445 0.0
C13 C 0.14295 0.31489 0.91482 0.0
N14 N 0.08391 0.31846 1.00149 0.0
C15 C 0.09772 0.29762 0.91917 0.0
C16 C 0.23974 0.4601 0.01271 0.0
O17 O 0.29425 0.41036 0.85514 0.0
O18 O 0.2223 0.37793 0.84201 0.0
O19 O 0.20642 0.42739 0.00941 0.0
O20 O 0.27864 0.45831 0.02182 0.0
O21 O 0.21561 0.37741 0.19068 0.0
H22 H 0.16361 0.30479 0.85699 0.0
H23 H 0.12148 0.37107 0.11224 0.0
O24 O 0.28747 0.41011 0.19927 0.0
O25 O 0.30362 0.36227 0.03345 0.0
O26 O 0.23193 0.32819 0.0229 0.0
C27 C 0.27195 0.32891 0.03054 0.0
H28 H 0.44686 0.47297 0.2083 0.0
H29 H 0.07645 0.27224 0.8635 0.0
Co30 Co 0.80535 0.24769 0.03307 0.0
C31 C 0.81548 0.28195 0.26912 0.0
Co32 Co 0.82188 0.31386 0.03912 0.0
C33 C 0.75363 0.16188 0.98643 0.0
C34 C 0.81647 0.17252 0.08496 0.0
N35 N 0.79036 0.19173 0.03384 0.0
N36 N 0.75667 0.12524 1.00402 0.0
C37 C 0.79606 0.13192 0.06626 0.0
H38 H 0.72529 0.16682 0.94012 0.0
H39 H 0.84812 0.187 0.13507 0.0
C40 C 0.81134 0.27882 0.80297 0.0
N41 N 0.83954 0.37012 0.03386 0.0
C42 C 0.82088 0.3971 0.06955 0.0
C43 C 0.87741 0.39266 0.98326 0.0
N44 N 0.84644 0.43517 0.04533 0.0
C45 C 0.88192 0.43231 0.99151 0.0
C46 C 0.89633 0.28907 0.04447 0.0
O47 O 0.80251 0.24631 0.86027 0.0
O48 O 0.82076 0.31165 0.86393 0.0
O49 O 0.88312 0.31876 0.04912 0.0
O50 O 0.86732 0.25414 0.03495 0.0
O51 O 0.82262 0.31491 0.21406 0.0
H52 H 0.90011 0.38108 0.93934 0.0
H53 H 0.78916 0.38909 0.11103 0.0
O54 O 0.80829 0.24983 0.20618 0.0
O55 O 0.74415 0.24245 0.03191 0.0
O56 O 0.75999 0.30771 0.03158 0.0
C57 C 0.73108 0.27249 0.03249 0.0
H58 H 0.80841 0.10888 0.09984 0.0
H59 H 0.90832 0.45713 0.95605 0.0
Co60 Co 0.58755 0.77383 0.03869 0.0
C61 C 0.60102 0.81135 0.80774 0.0
Co62 Co 0.61186 0.84058 0.04169 0.0
C63 C 0.53546 0.68765 0.05155 0.0
C64 C 0.59173 0.7013 0.94113 0.0
N65 N 0.5704 0.71851 0.01489 0.0
N66 N 0.53422 0.6523 1.00166 0.0
C67 C 0.56969 0.66079 0.93305 0.0
H68 H 0.51066 0.69114 0.10983 0.0
H69 H 0.62104 0.71737 0.89329 0.0
C70 C 0.59739 0.8028 0.27275 0.0
N71 N 0.63278 0.89709 0.06456 0.0
C72 C 0.63442 0.92785 0.98941 0.0
C73 C 0.65438 0.91556 0.17028 0.0
N74 N 0.65473 0.96409 0.0469 0.0
C75 C 0.66714 0.95617 0.16025 0.0
C76 C 0.51866 0.80352 0.02954 0.0
O77 O 0.58585 0.76949 0.21316 0.0
O78 O 0.6096 0.83503 0.21412 0.0
O79 O 0.55008 0.83762 0.03327 0.0
O80 O 0.52833 0.77169 0.02893 0.0
O81 O 0.61293 0.8444 0.86873 0.0
H82 H 0.66296 0.90081 0.24876 0.0
H83 H 0.62235 0.92391 0.89398 0.0
O84 O 0.58931 0.77872 0.86485 0.0
O85 O 0.64649 0.77643 0.04967 0.0
O86 O 0.67303 0.84207 0.04988 0.0
C87 C 0.6794 0.80868 0.05249 0.0
H88 H 0.57875 0.63919 0.88007 0.0
H89 H 0.68681 0.97841 0.22845 0.0
Co90 Co 0.84111 0.67054 0.06434 0.0
C91 C 0.80232 0.65254 0.29055 0.0
Co92 Co 0.76873 0.6371 0.05194 0.0
C93 C 0.9374 0.69783 0.03221 0.0
C94 C 0.91771 0.73278 0.16279 0.0
N95 N 0.90134 0.70079 0.08474 0.0
N96 N 0.97549 0.72685 0.07496 0.0
C97 C 0.963 0.74881 0.15682 0.0
H98 H 0.9356 0.67518 0.96333 0.0
H99 H 0.89789 0.74369 0.22128 0.0
C100 C 0.80678 0.65445 0.82563 0.0
N101 N 0.70851 0.60803 0.03259 0.0
C102 C 0.68686 0.57234 0.08089 0.0
C103 C 0.67838 0.61475 0.95274 0.0
N104 N 0.64477 0.55569 0.03136 0.0
C105 C 0.63922 0.58266 0.95183 0.0
C106 C 0.78778 0.71847 0.05598 0.0
O107 O 0.8432 0.67102 0.88935 0.0
O108 O 0.77127 0.63857 0.88029 0.0
O109 O 0.7563 0.68501 0.05235 0.0
O110 O 0.82786 0.71953 0.06091 0.0
O111 O 0.76664 0.63575 0.22462 0.0
H112 H 0.6852 0.64029 0.8941 0.0
H113 H 0.70237 0.55866 0.14902 0.0
O114 O 0.83823 0.66955 0.2383 0.0
O115 O 0.85341 0.62089 0.06731 0.0
O116 O 0.78123 0.58907 0.05063 0.0
C117 C 0.82046 0.58801 0.0581 0.0
H118 H 0.98523 0.7742 0.2107 0.0
H119 H 0.60977 0.57856 0.89208 0.0
Co120 Co 0.2394 0.73632 0.02936 0.0
C121 C 0.24803 0.77269 0.26547 0.0
Co122 Co 0.25247 0.80203 0.03525 0.0
C123 C 0.23952 0.65229 0.99405 0.0
C124 C 0.19173 0.65945 0.11279 0.0
N125 N 0.22456 0.6804 0.04157 0.0
N126 N 0.21676 0.61493 0.03279 0.0
C127 C 0.18677 0.61972 0.10712 0.0
H128 H 0.26629 0.65906 0.93233 0.0
H129 H 0.17265 0.67237 0.16753 0.0
C130 C 0.24433 0.76648 0.79927 0.0
N131 N 0.26352 0.85724 0.02621 0.0
C132 C 0.2954 0.88938 0.08206 0.0
C133 C 0.23946 0.87313 0.95137 0.0
N134 N 0.29215 0.92465 0.04403 0.0
C135 C 0.25679 0.91412 0.96197 0.0
C136 C 0.3293 0.78123 0.03924 0.0
O137 O 0.23853 0.73366 0.85414 0.0
O138 O 0.25006 0.7982 0.86249 0.0
O139 O 0.31475 0.81044 0.03905 0.0
O140 O 0.30164 0.7454 0.03836 0.0
O141 O 0.25488 0.80508 0.20833 0.0
H142 H 0.21154 0.85592 0.89033 0.0
H143 H 0.32032 0.88671 0.14902 0.0
O144 O 0.24077 0.74026 0.20434 0.0
O145 O 0.17768 0.72837 0.01881 0.0
O146 O 0.18983 0.79256 0.03103 0.0
C147 C 0.16249 0.75684 0.02231 0.0
H148 H 0.16368 0.59619 0.15715 0.0
H149 H 0.24514 0.93464 0.90932 0.0
Co150 Co 0.44897 0.21061 0.06249 0.0
C151 C 0.45921 0.24548 0.83168 0.0
Co152 Co 0.47139 0.27694 0.06674 0.0
C153 C 0.40437 0.12344 0.09588 0.0
C154 C 0.45984 0.13847 0.98234 0.0
N155 N 0.43609 0.1551 0.04908 0.0
N156 N 0.40829 0.08802 0.06231 0.0
C157 C 0.44299 0.09761 0.99027 0.0
H158 H 0.37891 0.12626 0.15279 0.0
H159 H 0.48733 0.15502 0.92877 0.0
C160 C 0.46063 0.24143 0.29733 0.0
N161 N 0.48392 0.33179 0.08148 0.0
C162 C 0.51865 0.36247 0.0438 0.0
C163 C 0.46003 0.3494 0.14429 0.0
N164 N 0.51729 0.39833 0.08137 0.0
C165 C 0.48032 0.39021 0.14371 0.0
C166 C 0.37872 0.2372 0.05518 0.0
O167 O 0.44983 0.20872 0.23526 0.0
O168 O 0.4714 0.27428 0.24123 0.0
O169 O 0.41099 0.26996 0.05817 0.0
O170 O 0.38619 0.20421 0.05644 0.0
O171 O 0.47109 0.27878 0.89163 0.0
H172 H 0.43044 0.33356 0.19131 0.0
H173 H 0.54468 0.35854 0.99153 0.0
O174 O 0.44816 0.21314 0.89009 0.0
O175 O 0.51219 0.21859 0.06824 0.0
O176 O 0.53239 0.28398 0.07399 0.0
C177 C 0.54304 0.25278 0.07108 0.0
H178 H 0.45434 0.07644 0.94249 0.0
H179 H 0.46986 0.41215 0.19028 0.0
C180 C 0.31523 0.2475 0.94176 0.0
C181 C 0.33422 0.24049 0.05481 0.0
C182 C 0.28993 0.27299 0.93499 0.0
C183 C 0.28283 0.292 0.04119 0.0
H184 H 0.32465 0.23744 0.85699 0.0
H185 H 0.27981 0.28099 0.84546 0.0
S186 S 0.32042 0.27944 0.35991 0.0
N187 N 0.33982 0.25101 0.2757 0.0
N188 N 0.29245 0.29885 0.26296 0.0
C189 C 0.29758 0.28191 0.15536 0.0
C190 C 0.32301 0.25587 0.16223 0.0
C191 C 1.02163 0.34262 0.03576 0.0
C192 C 0.03819 0.31092 0.02839 0.0
C193 C 0.97589 0.33522 0.044 0.0
C194 C 0.94491 0.29581 0.0455 0.0
H195 H 0.04393 0.37324 0.02973 0.0
H196 H 0.9647 0.36071 0.04589 0.0
S197 S 0.97268 0.20262 0.04554 0.0
N198 N 1.02106 0.23894 0.03611 0.0
N199 N 0.93524 0.2249 0.05021 0.0
C200 C 0.96154 0.26396 0.04443 0.0
C201 C 1.00809 0.27155 0.03622 0.0
C202 C 0.68416 0.07484 0.04428 0.0
C203 C 0.72334 0.08625 0.98056 0.0
C204 C 0.65822 0.03416 0.05396 0.0
C205 C 0.67007 1.00368 0.99814 0.0
H206 H 0.67597 0.09715 0.09639 0.0
H207 H 0.63088 0.02619 0.11402 0.0
S208 S 0.76627 1.01856 0.80791 0.0
N209 N 0.77033 0.0644 0.85133 0.0
N210 N 0.72098 0.98813 0.86725 0.0
C211 C 0.70669 1.01509 0.92467 0.0
C212 C 0.73353 0.05635 0.91664 0.0
C213 C 0.76975 0.77268 0.16014 0.0
C214 C 0.77652 0.75512 0.05073 0.0
C215 C 0.74346 0.79723 0.15911 0.0
C216 C 0.72339 0.80478 0.04867 0.0
H217 H 0.78086 0.76408 0.24764 0.0
H218 H 0.73443 0.80624 0.246 0.0
S219 S 0.73559 0.76945 0.73725 0.0
N220 N 0.76516 0.75005 0.829 0.0
N221 N 0.716 0.79634 0.82696 0.0
C222 C 0.73406 0.79087 0.9381 0.0
C223 C 0.76046 0.76574 0.93918 0.0
C224 C 0.09709 0.77992 0.03277 0.0
C225 C 0.11365 0.74822 0.02249 0.0
C226 C 0.05164 0.77258 0.0446 0.0
C227 C 1.02081 0.73329 0.04633 0.0
H228 H 0.11948 0.81073 0.03481 0.0
H229 H 0.04059 0.79794 0.05488 0.0
S230 S 0.04624 0.63957 0.01621 0.0
N231 N 0.09485 0.6757 1.00843 0.0
N232 N 1.00968 0.66228 0.03288 0.0
C233 C 0.03649 0.70129 0.03144 0.0
C234 C 0.08282 0.70867 0.0192 0.0
C235 C 0.30442 0.99733 0.06273 0.0
C236 C 0.32132 0.96551 0.07254 0.0
C237 C 0.33271 0.0376 0.06801 0.0
C238 C 0.37911 0.04773 0.08329 0.0
H239 H 0.269 0.99105 0.04633 0.0
H240 H 0.31838 0.06082 0.05282 0.0
S241 S 0.44037 0.97712 0.13487 0.0
N242 N 0.38777 0.94788 0.1124 0.0
N243 N 0.44046 1.02344 0.12512 0.0
C244 C 0.39626 1.01661 0.10303 0.0
C245 C 0.36755 0.97557 0.09735 0.0
C246 C 0.18648 0.5412 1.0031 0.0
C247 C 0.22338 0.57722 0.01099 0.0
C248 C 0.19184 0.50357 1.00104 0.0
C249 C 0.23444 0.50029 1.00743 0.0
H250 H 0.153 0.54214 1.00108 0.0
H251 H 0.16234 0.47691 0.99707 0.0
S252 S 0.3422 0.5858 0.02519 0.0
N253 N 0.30388 0.60725 0.02201 0.0
N254 N 0.31454 0.53714 0.01755 0.0
C255 C 0.27171 0.53629 0.01149 0.0
C256 C 0.26608 0.57455 0.0131 0.0
C257 C 0.62355 0.29488 0.05711 0.0
C258 C 0.59072 0.25663 0.06418 0.0
C259 C 0.66852 0.29966 0.04553 0.0
C260 C 0.68282 0.26642 0.04048 0.0
H261 H 0.61452 0.32159 0.05979 0.0
H262 H 0.69224 0.32979 0.04085 0.0
S263 S 0.61041 0.15957 0.05679 0.0
N264 N 0.57595 0.18481 0.06629 0.0
N265 N 0.66015 0.19363 0.0447 0.0
C266 C 0.65036 0.22793 0.04786 0.0
C267 C 0.60451 0.22308 0.05971 0.0
C268 C 0.49096 0.59808 0.13128 0.0
C269 C 0.50166 0.61325 0.01436 0.0
C270 C 0.46265 0.55845 0.14473 0.0
C271 C 0.44359 0.53313 0.04158 0.0
H272 H 0.50559 0.61663 0.2124 0.0
H273 H 0.45532 0.54759 0.23626 0.0
S274 S 0.45988 0.55933 0.71593 0.0
N275 N 0.49034 0.60051 0.79398 0.0
N276 N 0.43668 0.52623 0.81945 0.0
C277 C 0.45328 0.54832 0.92439 0.0
C278 C 0.4825 0.58835 0.9108 0.0
C279 C 0.86412 0.54331 0.1163 0.0
C280 C 0.82656 0.54844 0.05602 0.0
C281 C 0.86938 0.50563 0.11714 0.0
C282 C 0.83718 0.47176 0.05872 0.0
H283 H 0.88954 0.5685 0.16323 0.0
H284 H 0.89915 0.50292 0.16226 0.0
S285 S 0.73627 0.47018 0.87383 0.0
N286 N 0.75857 0.51684 0.92731 0.0
N287 N 0.76879 0.44635 0.93054 0.0
C288 C 0.7999 0.47651 0.99711 0.0
C289 C 0.79454 0.51478 0.99534 0.0
C290 C 0.39387 0.75688 0.06016 0.0
C291 C 0.37796 0.78861 0.03797 0.0
C292 C 0.4392 0.76229 0.05702 0.0
C293 C 0.47092 0.7997 0.03142 0.0
H294 H 0.37115 0.72742 0.08046 0.0
H295 H 0.44937 0.73669 0.07558 0.0
S296 S 0.44664 0.89217 0.95994 0.0
N297 N 0.39758 0.85879 0.98532 0.0
N298 N 0.48295 0.86881 0.9797 0.0
C299 C 0.45562 0.83176 1.00849 0.0
C300 C 0.40919 0.82627 0.01166 0.0
C301 C 0.56738 0.50869 0.03193 0.0
C302 C 0.61346 0.51596 0.04826 0.0
C303 C 0.53621 0.47016 0.04187 0.0
C304 C 0.5499 0.43736 0.06778 0.0
H305 H 0.55521 0.53303 0.0119 0.0
H306 H 0.50112 0.46585 0.0281 0.0
S307 S 0.66587 0.43979 0.12516 0.0
N308 N 0.67085 0.48646 0.09421 0.0
N309 N 0.61189 0.41447 0.1159 0.0
C310 C 0.59558 0.44403 0.08601 0.0
C311 C 0.62746 0.48324 0.07596 0.0
C312 C 0.21863 0.37275 0.58256 0.0
C313 C 0.25782 0.39452 0.65337 0.0
C314 C 0.21679 0.37312 0.45387 0.0
C315 C 0.25407 0.39528 0.3906 0.0
H316 H 0.18899 0.3551 0.62669 0.0
H317 H 0.18597 0.35563 0.40381 0.0
S318 S 0.36446 0.45868 0.53286 0.0
N319 N 0.33457 0.43962 0.65021 0.0
N320 N 0.33127 0.44052 0.40939 0.0
C321 C 0.29344 0.41748 0.46043 0.0
C322 C 0.29529 0.41703 0.59135 0.0
C323 C 0.82252 0.31503 0.60443 0.0
C324 C 0.81167 0.2787 0.6669 0.0
C325 C 0.82383 0.31587 0.47621 0.0
C326 C 0.81443 0.28043 0.40501 0.0
H327 H 0.83022 0.3432 0.65482 0.0
H328 H 0.83233 0.3446 0.4328 0.0
S329 S 0.78363 0.17719 0.52345 0.0
N330 N 0.79095 0.20622 0.64712 0.0
N331 N 0.79346 0.20771 0.40715 0.0
C332 C 0.80341 0.24382 0.46634 0.0
C333 C 0.80201 0.24298 0.59681 0.0
C334 C 0.59681 0.77421 0.60838 0.0
C335 C 0.60021 0.81004 0.67158 0.0
C336 C 0.59535 0.7718 0.47963 0.0
C337 C 0.59715 0.80511 0.40884 0.0
H338 H 0.59562 0.74776 0.65871 0.0
H339 H 0.59334 0.74378 0.43552 0.0
S340 S 0.6029 0.90517 0.52927 0.0
N341 N 0.60366 0.87907 0.65308 0.0
N342 N 0.59987 0.87452 0.41222 0.0
C343 C 0.59967 0.84091 0.47105 0.0
C344 C 0.60154 0.84341 0.60196 0.0
C345 C 0.84308 0.67385 0.62656 0.0
C346 C 0.80501 0.65335 0.68931 0.0
C347 C 0.84185 0.6734 0.49789 0.0
C348 C 0.80249 0.65242 0.4266 0.0
H349 H 0.87413 0.69054 0.677 0.0
H350 H 0.87209 0.6898 0.45417 0.0
S351 S 0.69366 0.59298 0.54583 0.0
N352 N 0.72675 0.61079 0.66967 0.0
N353 N 0.72458 0.61009 0.42885 0.0
C354 C 0.7642 0.63162 0.48815 0.0
C355 C 0.76542 0.63204 0.61906 0.0
C356 C 0.23944 0.73566 0.46247 0.0
C357 C 0.24766 0.7721 0.40151 0.0
C358 C 0.23832 0.73399 0.59068 0.0
C359 C 0.2453 0.76868 0.66338 0.0
H360 H 0.2337 0.708 0.41089 0.0
H361 H 0.23189 0.70523 0.63287 0.0
S362 S 0.26853 0.87188 0.5492 0.0
N363 N 0.26314 0.84382 0.42425 0.0
N364 N 0.26108 0.8409 0.66415 0.0
C365 C 0.25366 0.80541 0.6035 0.0
C366 C 0.25483 0.80707 0.47306 0.0
C367 C 0.47157 0.27923 0.62893 0.0
C368 C 0.4588 0.24377 0.69549 0.0
C369 C 0.47212 0.27815 0.50054 0.0
C370 C 0.46001 0.24157 0.43331 0.0
H371 H 0.48136 0.30814 0.67617 0.0
H372 H 0.48219 0.30635 0.45383 0.0
S373 S 0.42333 0.13994 0.56322 0.0
N374 N 0.43323 0.17075 0.68358 0.0
N375 N 0.43442 0.16889 0.44337 0.0
C376 C 0.44698 0.20585 0.49862 0.0
C377 C 0.44634 0.2069 0.62923 0.0
loop_
_geom_bond_atom_site_label_1
_geom_bond_atom_site_label_2
_geom_bond_distance
_geom_bond_site_symmetry_2
_ccdc_geom_bond_type
Co0 N5 2.057 . S
Co0 O17 2.021 1_554 S
Co0 O20 2.062 1_554 S
Co0 O24 2.117 . S
Co0 O25 2.020 . S
C1 O21 1.259 . S
C1 O24 1.258 . S
Co2 N11 2.057 1_554 S
Co2 O18 2.117 1_554 S
Co2 O19 2.020 . S
Co2 O21 2.021 . S
Co2 O26 2.062 . S
C3 N5 1.316 1_556 S
C3 N6 1.347 1_556 S
C3 H8 0.931 . S
C4 N5 1.375 . S
C4 C7 1.350 . S
C4 H9 0.930 . S
N5 Co0 2.057 . S
N5 C3 1.316 1_554 S
N5 C4 1.375 . S
N6 C3 1.347 1_554 S
N6 C7 1.373 . S
C7 C4 1.350 . S
C7 N6 1.373 . S
C7 H28 0.931 . S
H8 C3 0.931 . S
H9 C4 0.930 . S
C10 O17 1.259 . S
C10 O18 1.258 . S
N11 Co2 2.057 1_556 S
N11 C12 1.316 1_556 S
N11 C13 1.375 . S
C12 N11 1.316 1_554 S
C12 N14 1.347 1_554 S
C12 H23 0.931 . S
C13 N11 1.375 . S
C13 C15 1.350 . S
C13 H22 0.930 . S
N14 C12 1.347 1_556 S
N14 C15 1.373 . S
C15 C13 1.350 . S
C15 N14 1.373 . S
C15 H29 0.931 . S
C16 O19 1.256 . S
C16 O20 1.255 1_554 S
O17 Co0 2.021 1_556 S
O17 C10 1.259 . S
O18 Co2 2.117 1_556 S
O18 C10 1.258 . S
O19 Co2 2.020 . S
O19 C16 1.256 . S
O20 Co0 2.062 1_556 S
O20 C16 1.255 1_556 S
O21 C1 1.259 . S
O21 Co2 2.021 . S
H22 C13 0.930 . S
H23 C12 0.931 . S
O24 Co0 2.117 . S
O24 C1 1.258 . S
O25 Co0 2.020 . S
O25 C27 1.256 . S
O26 Co2 2.062 . S
O26 C27 1.255 . S
C27 O25 1.256 . S
C27 O26 1.255 . S
H28 C7 0.931 . S
H29 C15 0.931 . S
Co30 N35 2.057 . S
Co30 O47 2.021 1_554 S
Co30 O50 2.062 . S
Co30 O54 2.117 . S
Co30 O55 2.020 . S
C31 O51 1.259 . S
C31 O54 1.258 . S
Co32 N41 2.057 . S
Co32 O48 2.117 1_554 S
Co32 O49 2.020 . S
Co32 O51 2.021 . S
Co32 O56 2.062 . S
C33 N35 1.316 1_556 S
C33 N36 1.347 1_556 S
C33 H38 0.931 . S
C34 N35 1.375 . S
C34 C37 1.350 . S
C34 H39 0.930 . S
N35 Co30 2.057 . S
N35 C33 1.316 1_554 S
N35 C34 1.375 . S
N36 C33 1.347 1_554 S
N36 C37 1.373 . S
C37 C34 1.350 . S
C37 N36 1.373 . S
C37 H58 0.931 . S
H38 C33 0.931 . S
H39 C34 0.930 . S
C40 O47 1.259 . S
C40 O48 1.258 . S
N41 Co32 2.057 . S
N41 C42 1.316 . S
N41 C43 1.375 1_554 S
C42 N41 1.316 . S
C42 N44 1.347 . S
C42 H53 0.931 . S
C43 N41 1.375 1_556 S
C43 C45 1.350 . S
C43 H52 0.930 . S
N44 C42 1.347 . S
N44 C45 1.373 1_554 S
C45 C43 1.350 . S
C45 N44 1.373 1_556 S
C45 H59 0.931 . S
C46 O49 1.256 . S
C46 O50 1.255 . S
O47 Co30 2.021 1_556 S
O47 C40 1.259 . S
O48 Co32 2.117 1_556 S
O48 C40 1.258 . S
O49 Co32 2.020 . S
O49 C46 1.256 . S
O50 Co30 2.062 . S
O50 C46 1.255 . S
O51 C31 1.259 . S
O51 Co32 2.021 . S
H52 C43 0.930 . S
H53 C42 0.931 . S
O54 Co30 2.117 . S
O54 C31 1.258 . S
O55 Co30 2.020 . S
O55 C57 1.256 . S
O56 Co32 2.062 . S
O56 C57 1.255 . S
C57 O55 1.256 . S
C57 O56 1.255 . S
H58 C37 0.931 . S
H59 C45 0.931 . S
Co60 N65 2.057 1_554 S
Co60 O77 2.021 . S
Co60 O80 2.062 . S
Co60 O84 2.117 1_554 S
Co60 O85 2.020 . S
C61 O81 1.259 . S
C61 O84 1.258 . S
Co62 N71 2.057 1_556 S
Co62 O78 2.117 1_556 S
Co62 O79 2.020 . S
Co62 O81 2.021 . S
Co62 O86 2.062 . S
C63 N65 1.316 1_554 S
C63 N66 1.347 1_554 S
C63 H68 0.931 . S
C64 N65 1.375 . S
C64 C67 1.350 . S
C64 H69 0.930 . S
N65 Co60 2.057 1_556 S
N65 C63 1.316 1_556 S
N65 C64 1.375 . S
N66 C63 1.347 1_556 S
N66 C67 1.373 . S
C67 C64 1.350 . S
C67 N66 1.373 . S
C67 H88 0.931 . S
H68 C63 0.931 . S
H69 C64 0.930 . S
C70 O77 1.259 . S
C70 O78 1.258 . S
N71 Co62 2.057 1_554 S
N71 C72 1.316 1_554 S
N71 C73 1.375 . S
C72 N71 1.316 1_556 S
C72 N74 1.347 1_556 S
C72 H83 0.931 . S
C73 N71 1.375 . S
C73 C75 1.350 . S
C73 H82 0.930 . S
N74 C72 1.347 1_554 S
N74 C75 1.373 . S
C75 C73 1.350 . S
C75 N74 1.373 . S
C75 H89 0.931 . S
C76 O79 1.256 1_554 S
C76 O80 1.255 . S
O77 Co60 2.021 . S
O77 C70 1.259 . S
O78 Co62 2.117 1_554 S
O78 C70 1.258 . S
O79 Co62 2.020 . S
O79 C76 1.256 1_556 S
O80 Co60 2.062 . S
O80 C76 1.255 . S
O81 C61 1.259 . S
O81 Co62 2.021 . S
H82 C73 0.930 . S
H83 C72 0.931 . S
O84 Co60 2.117 1_556 S
O84 C61 1.258 . S
O85 Co60 2.020 . S
O85 C87 1.256 . S
O86 Co62 2.062 . S
O86 C87 1.254 1_556 S
C87 O85 1.256 . S
C87 O86 1.254 1_554 S
H88 C67 0.931 . S
H89 C75 0.931 . S
Co90 N95 2.057 . S
Co90 O107 2.021 1_554 S
Co90 O110 2.062 . S
Co90 O114 2.117 . S
Co90 O115 2.020 . S
C91 O111 1.259 . S
C91 O114 1.258 . S
Co92 N101 2.057 . S
Co92 O108 2.117 1_554 S
Co92 O109 2.020 . S
Co92 O111 2.021 . S
Co92 O116 2.062 . S
C93 N95 1.316 . S
C93 N96 1.347 . S
C93 H98 0.931 1_554 S
C94 N95 1.375 . S
C94 C97 1.350 . S
C94 H99 0.930 . S
N95 Co90 2.057 . S
N95 C93 1.316 . S
N95 C94 1.375 . S
N96 C93 1.347 . S
N96 C97 1.373 . S
C97 C94 1.350 . S
C97 N96 1.373 . S
C97 H118 0.931 . S
H98 C93 0.931 1_556 S
H99 C94 0.930 . S
C100 O107 1.259 . S
C100 O108 1.258 . S
N101 Co92 2.057 . S
N101 C102 1.316 . S
N101 C103 1.375 1_554 S
C102 N101 1.316 . S
C102 N104 1.347 . S
C102 H113 0.931 . S
C103 N101 1.375 1_556 S
C103 C105 1.350 . S
C103 H112 0.930 . S
N104 C102 1.347 . S
N104 C105 1.373 1_554 S
C105 C103 1.350 . S
C105 N104 1.373 1_556 S
C105 H119 0.931 . S
C106 O109 1.256 . S
C106 O110 1.255 . S
O107 Co90 2.021 1_556 S
O107 C100 1.259 . S
O108 Co92 2.117 1_556 S
O108 C100 1.258 . S
O109 Co92 2.020 . S
O109 C106 1.256 . S
O110 Co90 2.062 . S
O110 C106 1.255 . S
O111 C91 1.259 . S
O111 Co92 2.021 . S
H112 C103 0.930 . S
H113 C102 0.931 . S
O114 Co90 2.117 . S
O114 C91 1.258 . S
O115 Co90 2.020 . S
O115 C117 1.256 . S
O116 Co92 2.062 . S
O116 C117 1.255 . S
C117 O115 1.256 . S
C117 O116 1.255 . S
H118 C97 0.931 . S
H119 C105 0.931 . S
Co120 N125 2.059 . S
Co120 O137 2.012 1_554 S
Co120 O140 2.061 1_554 S
Co120 O144 2.126 . S
Co120 O145 2.020 . S
C121 O141 1.259 . S
C121 O144 1.258 . S
Co122 N131 2.057 1_554 S
Co122 O138 2.117 1_554 S
Co122 O139 2.020 . S
Co122 O141 2.021 . S
Co122 O146 2.062 . S
C123 N125 1.316 1_556 S
C123 N126 1.347 1_556 S
C123 H128 0.931 . S
C124 N125 1.375 . S
C124 C127 1.350 . S
C124 H129 0.930 . S
N125 Co120 2.059 . S
N125 C123 1.316 1_554 S
N125 C124 1.375 . S
N126 C123 1.347 1_554 S
N126 C127 1.373 . S
C127 C124 1.350 . S
C127 N126 1.373 . S
C127 H148 0.931 . S
H128 C123 0.931 . S
H129 C124 0.930 . S
C130 O137 1.259 . S
C130 O138 1.258 . S
N131 Co122 2.057 1_556 S
N131 C132 1.316 1_556 S
N131 C133 1.375 . S
C132 N131 1.316 1_554 S
C132 N134 1.347 . S
C132 H143 0.931 . S
C133 N131 1.375 . S
C133 C135 1.350 . S
C133 H142 0.930 . S
N134 C132 1.347 . S
N134 C135 1.373 1_554 S
C135 C133 1.350 . S
C135 N134 1.373 1_556 S
C135 H149 0.931 . S
C136 O139 1.256 . S
C136 O140 1.255 1_554 S
O137 Co120 2.012 1_556 S
O137 C130 1.259 . S
O138 Co122 2.117 1_556 S
O138 C130 1.258 . S
O139 Co122 2.020 . S
O139 C136 1.256 . S
O140 Co120 2.061 1_556 S
O140 C136 1.255 1_556 S
O141 C121 1.259 . S
O141 Co122 2.021 . S
H142 C133 0.930 . S
H143 C132 0.931 . S
O144 Co120 2.126 . S
O144 C121 1.258 . S
O145 Co120 2.020 . S
O145 C147 1.256 . S
O146 Co122 2.062 . S
O146 C147 1.255 . S
C147 O145 1.256 . S
C147 O146 1.255 . S
H148 C127 0.931 . S
H149 C135 0.931 . S
Co150 N155 2.057 . S
Co150 O167 2.021 . S
Co150 O170 2.062 . S
Co150 O174 2.117 1_554 S
Co150 O175 2.020 . S
C151 O171 1.259 . S
C151 O174 1.258 . S
Co152 N161 2.057 . S
Co152 O168 2.117 . S
Co152 O169 2.020 . S
Co152 O171 2.021 1_554 S
Co152 O176 2.062 . S
C153 N155 1.316 . S
C153 N156 1.347 . S
C153 H158 0.931 . S
C154 N155 1.375 1_556 S
C154 C157 1.350 . S
C154 H159 0.930 . S
N155 Co150 2.057 . S
N155 C153 1.316 . S
N155 C154 1.375 1_554 S
N156 C153 1.347 . S
N156 C157 1.373 1_554 S
C157 C154 1.350 . S
C157 N156 1.373 1_556 S
C157 H178 0.931 . S
H158 C153 0.931 . S
H159 C154 0.930 . S
C160 O167 1.259 . S
C160 O168 1.258 . S
N161 Co152 2.057 . S
N161 C162 1.316 . S
N161 C163 1.375 . S
C162 N161 1.316 . S
C162 N164 1.347 . S
C162 H173 0.931 1_554 S
C163 N161 1.375 . S
C163 C165 1.350 . S
C163 H172 0.930 . S
N164 C162 1.347 . S
N164 C165 1.373 . S
C165 C163 1.350 . S
C165 N164 1.373 . S
C165 H179 0.931 . S
C166 O169 1.256 . S
C166 O170 1.255 . S
O167 Co150 2.021 . S
O167 C160 1.259 . S
O168 Co152 2.117 . S
O168 C160 1.258 . S
O169 Co152 2.020 . S
O169 C166 1.256 . S
O170 Co150 2.062 . S
O170 C166 1.255 . S
O171 C151 1.259 . S
O171 Co152 2.021 1_556 S
H172 C163 0.930 . S
H173 C162 0.931 1_556 S
O174 Co150 2.117 1_556 S
O174 C151 1.258 . S
O175 Co150 2.020 . S
O175 C177 1.256 . S
O176 Co152 2.062 . S
O176 C177 1.255 . S
C177 O175 1.256 . S
C177 O176 1.255 . S
H178 C157 0.931 . S
H179 C165 0.931 . S
C180 C181 1.369 . S
C180 C182 1.419 . S
C180 H184 0.930 . S
C181 C180 1.369 . S
C181 C190 1.429 . S
C182 C180 1.419 . S
C182 C183 1.363 . S
C182 H185 0.929 . S
C183 C182 1.363 . S
C183 C189 1.428 . S
H184 C180 0.930 . S
H185 C182 0.929 . S
S186 N187 1.613 . S
S186 N188 1.610 . S
N187 S186 1.613 . S
N187 C190 1.350 . S
N188 S186 1.610 . S
N188 C189 1.351 . S
C189 C183 1.428 . S
C189 N188 1.351 . S
C189 C190 1.434 . S
C190 C181 1.429 . S
C190 N187 1.350 . S
C190 C189 1.434 . S
C191 C192 1.369 . S
C191 C193 1.419 . S
C191 H195 0.930 1_655 S
C192 C191 1.369 . S
C192 C201 1.429 1_554 S
C193 C191 1.419 . S
C193 C194 1.363 . S
C193 H196 0.929 . S
C194 C193 1.363 . S
C194 C200 1.428 1_554 S
H195 C191 0.930 1_455 S
H196 C193 0.929 . S
S197 N198 1.613 . S
S197 N199 1.610 . S
N198 S197 1.613 . S
N198 C201 1.350 . S
N199 S197 1.610 . S
N199 C200 1.351 . S
C200 C194 1.428 1_556 S
C200 N199 1.351 . S
C200 C201 1.434 . S
C201 C192 1.429 1_556 S
C201 N198 1.350 . S
C201 C200 1.434 . S
C202 C203 1.369 . S
C202 C204 1.419 1_545 S
C202 H206 0.930 . S
C203 C202 1.369 . S
C203 C212 1.429 1_554 S
C204 C202 1.419 1_565 S
C204 C205 1.363 . S
C204 H207 0.929 . S
C205 C204 1.363 . S
C205 C211 1.428 1_554 S
H206 C202 0.930 . S
H207 C204 0.929 . S
S208 N209 1.613 . S
S208 N210 1.610 1_545 S
N209 S208 1.613 . S
N209 C212 1.350 . S
N210 S208 1.610 1_565 S
N210 C211 1.351 . S
C211 C205 1.428 1_556 S
C211 N210 1.351 . S
C211 C212 1.434 1_565 S
C212 C203 1.429 1_556 S
C212 N209 1.350 . S
C212 C211 1.434 1_545 S
C213 C214 1.369 . S
C213 C215 1.419 . S
C213 H217 0.930 . S
C214 C213 1.369 . S
C214 C223 1.429 1_554 S
C215 C213 1.419 . S
C215 C216 1.363 . S
C215 H218 0.929 . S
C216 C215 1.363 . S
C216 C222 1.428 1_554 S
H217 C213 0.930 . S
H218 C215 0.929 . S
S219 N220 1.613 . S
S219 N221 1.610 . S
N220 S219 1.613 . S
N220 C223 1.350 . S
N221 S219 1.610 . S
N221 C222 1.351 . S
C222 C216 1.428 1_556 S
C222 N221 1.351 . S
C222 C223 1.434 . S
C223 C214 1.429 1_556 S
C223 N220 1.350 . S
C223 C222 1.434 . S
C224 C225 1.369 . S
C224 C226 1.419 . S
C224 H228 0.930 . S
C225 C224 1.369 . S
C225 C234 1.429 1_554 S
C226 C224 1.419 . S
C226 C227 1.363 . S
C226 H229 0.929 . S
C227 C226 1.363 . S
C227 C233 1.428 1_554 S
H228 C224 0.930 . S
H229 C226 0.929 . S
S230 N231 1.613 . S
S230 N232 1.610 1_455 S
N231 S230 1.613 . S
N231 C234 1.350 . S
N232 S230 1.610 1_655 S
N232 C233 1.351 1_655 S
C233 C227 1.428 1_556 S
C233 N232 1.351 1_455 S
C233 C234 1.434 . S
C234 C225 1.429 1_556 S
C234 N231 1.350 . S
C234 C233 1.434 . S
C235 C236 1.369 1_556 S
C235 C237 1.419 1_565 S
C235 H239 0.930 . S
C236 C235 1.369 1_554 S
C236 C245 1.429 . S
C237 C235 1.419 1_545 S
C237 C238 1.363 1_556 S
C237 H240 0.929 . S
C238 C237 1.363 1_554 S
C238 C244 1.428 . S
H239 C235 0.930 . S
H240 C237 0.929 . S
S241 N242 1.613 . S
S241 N243 1.610 1_565 S
N242 S241 1.613 . S
N242 C245 1.350 . S
N243 S241 1.610 1_545 S
N243 C244 1.351 . S
C244 C238 1.428 . S
C244 N243 1.351 . S
C244 C245 1.434 1_545 S
C245 C236 1.429 . S
C245 N242 1.350 . S
C245 C244 1.434 1_565 S
C246 C247 1.369 . S
C246 C248 1.419 . S
C246 H250 0.930 . S
C247 C246 1.369 . S
C247 C256 1.429 1_556 S
C248 C246 1.419 . S
C248 C249 1.363 1_556 S
C248 H251 0.929 . S
C249 C248 1.363 1_554 S
C249 C255 1.428 . S
H250 C246 0.930 . S
H251 C248 0.929 . S
S252 N253 1.613 . S
S252 N254 1.610 . S
N253 S252 1.613 . S
N253 C256 1.350 . S
N254 S252 1.610 . S
N254 C255 1.351 . S
C255 C249 1.428 . S
C255 N254 1.351 . S
C255 C256 1.434 . S
C256 C247 1.429 1_554 S
C256 N253 1.350 . S
C256 C255 1.434 . S
C257 C258 1.369 . S
C257 C259 1.419 . S
C257 H261 0.930 . S
C258 C257 1.369 . S
C258 C267 1.429 1_554 S
C259 C257 1.419 . S
C259 C260 1.363 . S
C259 H262 0.929 . S
C260 C259 1.363 . S
C260 C266 1.428 1_554 S
H261 C257 0.930 . S
H262 C259 0.929 . S
S263 N264 1.613 . S
S263 N265 1.610 . S
N264 S263 1.613 . S
N264 C267 1.350 . S
N265 S263 1.610 . S
N265 C266 1.351 . S
C266 C260 1.428 1_556 S
C266 N265 1.351 . S
C266 C267 1.434 . S
C267 C258 1.429 1_556 S
C267 N264 1.350 . S
C267 C266 1.434 . S
C268 C269 1.369 . S
C268 C270 1.419 . S
C268 H272 0.930 . S
C269 C268 1.369 . S
C269 C278 1.429 1_554 S
C270 C268 1.419 . S
C270 C271 1.363 . S
C270 H273 0.929 . S
C271 C270 1.363 . S
C271 C277 1.428 1_554 S
H272 C268 0.930 . S
H273 C270 0.929 . S
S274 N275 1.613 . S
S274 N276 1.610 . S
N275 S274 1.613 . S
N275 C278 1.350 . S
N276 S274 1.610 . S
N276 C277 1.351 . S
C277 C271 1.428 1_556 S
C277 N276 1.351 . S
C277 C278 1.434 . S
C278 C269 1.429 1_556 S
C278 N275 1.350 . S
C278 C277 1.434 . S
C279 C280 1.369 . S
C279 C281 1.419 . S
C279 H283 0.930 . S
C280 C279 1.369 . S
C280 C289 1.429 1_554 S
C281 C279 1.419 . S
C281 C282 1.363 . S
C281 H284 0.929 . S
C282 C281 1.363 . S
C282 C288 1.428 1_554 S
H283 C279 0.930 . S
H284 C281 0.929 . S
S285 N286 1.613 . S
S285 N287 1.610 . S
N286 S285 1.613 . S
N286 C289 1.350 . S
N287 S285 1.610 . S
N287 C288 1.351 . S
C288 C282 1.428 1_556 S
C288 N287 1.351 . S
C288 C289 1.434 . S
C289 C280 1.429 1_556 S
C289 N286 1.350 . S
C289 C288 1.434 . S
C290 C291 1.369 . S
C290 C292 1.419 . S
C290 H294 0.930 . S
C291 C290 1.369 . S
C291 C300 1.429 . S
C292 C290 1.419 . S
C292 C293 1.363 . S
C292 H295 0.929 1_554 S
C293 C292 1.363 . S
C293 C299 1.428 . S
H294 C290 0.930 . S
H295 C292 0.929 1_556 S
S296 N297 1.613 . S
S296 N298 1.610 . S
N297 S296 1.613 . S
N297 C300 1.350 . S
N298 S296 1.610 . S
N298 C299 1.351 . S
C299 C293 1.428 . S
C299 N298 1.351 . S
C299 C300 1.434 . S
C300 C291 1.429 . S
C300 N297 1.350 . S
C300 C299 1.434 . S
C301 C302 1.369 . S
C301 C303 1.419 . S
C301 H305 0.930 . S
C302 C301 1.369 . S
C302 C311 1.429 . S
C303 C301 1.419 . S
C303 C304 1.363 . S
C303 H306 0.929 . S
C304 C303 1.363 . S
C304 C310 1.428 . S
H305 C301 0.930 . S
H306 C303 0.929 . S
S307 N308 1.613 . S
S307 N309 1.610 . S
N308 S307 1.613 . S
N308 C311 1.350 1_556 S
N309 S307 1.610 . S
N309 C310 1.351 1_556 S
C310 C304 1.428 . S
C310 N309 1.351 1_554 S
C310 C311 1.434 . S
C311 C302 1.429 . S
C311 N308 1.350 1_554 S
C311 C310 1.434 . S
C312 C313 1.369 . S
C312 C314 1.419 . S
C312 H316 0.930 . S
C313 C312 1.369 . S
C313 C322 1.429 . S
C314 C312 1.419 . S
C314 C315 1.363 . S
C314 H317 0.929 . S
C315 C314 1.363 . S
C315 C321 1.428 . S
H316 C312 0.930 . S
H317 C314 0.929 . S
S318 N319 1.613 . S
S318 N320 1.610 . S
N319 S318 1.613 . S
N319 C322 1.350 . S
N320 S318 1.610 . S
N320 C321 1.351 . S
C321 C315 1.428 . S
C321 N320 1.351 . S
C321 C322 1.434 . S
C322 C313 1.429 . S
C322 N319 1.350 . S
C322 C321 1.434 . S
C323 C324 1.369 . S
C323 C325 1.419 . S
C323 H327 0.930 . S
C324 C323 1.369 . S
C324 C333 1.429 . S
C325 C323 1.419 . S
C325 C326 1.363 . S
C325 H328 0.929 . S
C326 C325 1.363 . S
C326 C332 1.428 . S
H327 C323 0.930 . S
H328 C325 0.929 . S
S329 N330 1.613 . S
S329 N331 1.610 . S
N330 S329 1.613 . S
N330 C333 1.350 . S
N331 S329 1.610 . S
N331 C332 1.351 . S
C332 C326 1.428 . S
C332 N331 1.351 . S
C332 C333 1.434 . S
C333 C324 1.429 . S
C333 N330 1.350 . S
C333 C332 1.434 . S
C334 C335 1.369 . S
C334 C336 1.419 . S
C334 H338 0.930 . S
C335 C334 1.369 . S
C335 C344 1.429 . S
C336 C334 1.419 . S
C336 C337 1.363 . S
C336 H339 0.929 . S
C337 C336 1.363 . S
C337 C343 1.428 . S
H338 C334 0.930 . S
H339 C336 0.929 . S
S340 N341 1.613 . S
S340 N342 1.610 . S
N341 S340 1.613 . S
N341 C344 1.350 . S
N342 S340 1.610 . S
N342 C343 1.351 . S
C343 C337 1.428 . S
C343 N342 1.351 . S
C343 C344 1.434 . S
C344 C335 1.429 . S
C344 N341 1.350 . S
C344 C343 1.434 . S
C345 C346 1.369 . S
C345 C347 1.419 . S
C345 H349 0.930 . S
C346 C345 1.369 . S
C346 C355 1.429 . S
C347 C345 1.419 . S
C347 C348 1.363 . S
C347 H350 0.929 . S
C348 C347 1.363 . S
C348 C354 1.428 . S
H349 C345 0.930 . S
H350 C347 0.929 . S
S351 N352 1.613 . S
S351 N353 1.610 . S
N352 S351 1.613 . S
N352 C355 1.350 . S
N353 S351 1.610 . S
N353 C354 1.351 . S
C354 C348 1.428 . S
C354 N353 1.351 . S
C354 C355 1.434 . S
C355 C346 1.429 . S
C355 N352 1.350 . S
C355 C354 1.434 . S
C356 C357 1.369 . S
C356 C358 1.419 . S
C356 H360 0.930 . S
C357 C356 1.369 . S
C357 C366 1.429 . S
C358 C356 1.419 . S
C358 C359 1.363 . S
C358 H361 0.929 . S
C359 C358 1.363 . S
C359 C365 1.428 . S
H360 C356 0.930 . S
H361 C358 0.929 . S
S362 N363 1.613 . S
S362 N364 1.610 . S
N363 S362 1.613 . S
N363 C366 1.350 . S
N364 S362 1.610 . S
N364 C365 1.351 . S
C365 C359 1.428 . S
C365 N364 1.351 . S
C365 C366 1.434 . S
C366 C357 1.429 . S
C366 N363 1.350 . S
C366 C365 1.434 . S
C367 C368 1.369 . S
C367 C369 1.419 . S
C367 H371 0.930 . S
C368 C367 1.369 . S
C368 C377 1.429 . S
C369 C367 1.419 . S
C369 C370 1.363 . S
C369 H372 0.929 . S
C370 C369 1.363 . S
C370 C376 1.428 . S
H371 C367 0.930 . S
H372 C369 0.929 . S
S373 N374 1.613 . S
S373 N375 1.610 . S
N374 S373 1.613 . S
N374 C377 1.350 . S
N375 S373 1.610 . S
N375 C376 1.351 . S
C376 C370 1.428 . S
C376 N375 1.351 . S
C376 C377 1.434 . S
C377 C368 1.429 . S
C377 N374 1.350 . S
C377 C376 1.434 . S
C181 C166 1.045 . S
C183 C27 1.011 . S
C192 N14 1.655 1_654 S
C194 C46 1.897 . S
C203 N36 1.720 . S
C205 N74 1.620 . S
C214 C106 1.013 . S
C216 C87 1.047 . S
C225 C147 1.898 . S
C227 N96 1.653 1_455 S
C236 N134 1.720 . S
C238 N156 1.620 . S
C247 N126 1.507 1_556 S
C249 C16 1.529 . S
C258 C177 1.943 . S
C260 C57 1.959 . S
C269 N66 1.321 1_554 S
C271 N6 1.316 . S
C280 C117 1.527 . S
C282 N44 1.509 . S
C291 C136 1.959 . S
C293 C76 1.944 . S
C302 N104 1.311 . S
C304 N164 1.325 . S
C313 C10 1.493 . S
C315 C1 1.492 . S
C324 C40 1.497 . S
C326 C31 1.499 . S
C335 C61 1.495 . S
C337 C70 1.496 . S
C346 C100 1.493 . S
C348 C91 1.492 . S
C357 C121 1.498 . S
C359 C130 1.499 . S
C368 C151 1.496 . S
C370 C160 1.496 . S
