# Generated by pormake.
# Topology dia, (4)-cn, num edge types: 1
# Building blocks:
#     Node 0, Type 0, BuildingBlock: GALJAG_clean_sbu_0, # of connection points: 4
#     Node 1, Type 0, BuildingBlock: GALJAG_clean_sbu_0, # of connection points: 4
#     Node 2, Type 0, BuildingBlock: GALJAG_clean_sbu_0, # of connection points: 4
#     Node 3, Type 0, BuildingBlock: GALJAG_clean_sbu_0, # of connection points: 4
#     Node 4, Type 0, BuildingBlock: GALJAG_clean_sbu_0, # of connection points: 4
#     Node 5, Type 0, BuildingBlock: GALJAG_clean_sbu_0, # of connection points: 4
#     Node 6, Type 0, BuildingBlock: GALJAG_clean_sbu_0, # of connection points: 4
#     Node 7, Type 0, BuildingBlock: GALJAG_clean_sbu_0, # of connection points: 4
#     Edge 8, Type (0, 0), BuildingBlock: AJUNOK_clean_linker_0, # of connection points: 2
#     Edge 9, Type (0, 0), BuildingBlock: AJUNOK_clean_linker_0, # of connection points: 2
#     Edge 10, Type (0, 0), BuildingBlock: AJUNOK_clean_linker_0, # of connection points: 2
#     Edge 11, Type (0, 0), BuildingBlock: AJUNOK_clean_linker_0, # of connection points: 2
#     Edge 12, Type (0, 0), BuildingBlock: AJUNOK_clean_linker_0, # of connection points: 2
#     Edge 13, Type (0, 0), BuildingBlock: AJUNOK_clean_linker_0, # of connection points: 2
#     Edge 14, Type (0, 0), BuildingBlock: AJUNOK_clean_linker_0, # of connection points: 2
#     Edge 15, Type (0, 0), BuildingBlock: AJUNOK_clean_linker_0, # of connection points: 2
#     Edge 16, Type (0, 0), BuildingBlock: AJUNOK_clean_linker_0, # of connection points: 2
#     Edge 17, Type (0, 0), BuildingBlock: AJUNOK_clean_linker_0, # of connection points: 2
#     Edge 18, Type (0, 0), BuildingBlock: AJUNOK_clean_linker_0, # of connection points: 2
#     Edge 19, Type (0, 0), BuildingBlock: AJUNOK_clean_linker_0, # of connection points: 2
#     Edge 20, Type (0, 0), BuildingBlock: AJUNOK_clean_linker_0, # of connection points: 2
#     Edge 21, Type (0, 0), BuildingBlock: AJUNOK_clean_linker_0, # of connection points: 2
#     Edge 22, Type (0, 0), BuildingBlock: AJUNOK_clean_linker_0, # of connection points: 2
#     Edge 23, Type (0, 0), BuildingBlock: AJUNOK_clean_linker_0, # of connection points: 2
# Relax obj value: 0.058
# Max RMSD: 0.096
# Mean RMSD: 0.096
data_MOF--net-dia--node1-GALJAG_clean_sbu_0--edge1-AJUNOK_clean_linker_0
_symmetry_space_group_name_H-M    P1
_symmetry_Int_Tables_number       1
_symmetry_cell_setting            triclinic
loop_
_symmetry_equiv_pos_as_xyz
'x, y, z'
_cell_length_a     16.94657
_cell_length_b     29.300447
_cell_length_c     29.337718
_cell_angle_alpha  89.998282
_cell_angle_beta   90.197393
_cell_angle_gamma 90.203171
loop_
_atom_site_label
_atom_site_type_symbol
_atom_site_fract_x
_atom_site_fract_y
_atom_site_fract_z
_atom_type_partial_charge
In0 In 0.12378 0.12597 0.62732 0.0
O1 O 0.23059 0.15902 0.5932 0.0
O2 O 0.11573 0.17956 0.57202 0.0
C3 C 0.17832 0.06621 0.68932 0.0
C4 C 0.06394 0.18754 0.68556 0.0
C5 C 0.06443 0.06512 0.56768 0.0
O6 O 0.22422 0.09003 0.66488 0.0
O7 O 0.10581 0.07291 0.68225 0.0
O8 O 0.02048 0.09141 0.59055 0.0
O9 O 0.13734 0.07001 0.57507 0.0
C10 C 0.18934 0.18406 0.5673 0.0
O11 O 0.02019 0.16309 0.66027 0.0
O12 O 0.13696 0.18069 0.68105 0.0
In13 In 0.86479 0.37529 0.87377 0.0
O14 O 0.97282 0.34389 0.83989 0.0
O15 O 0.85895 0.32164 0.81831 0.0
C16 C 0.92055 0.43591 0.93491 0.0
C17 C 0.7979 0.43379 0.81463 0.0
C18 C 0.80871 0.31293 0.93275 0.0
O19 O 0.96576 0.4134 0.90908 0.0
O20 O 0.84801 0.42772 0.92948 0.0
O21 O 0.7634 0.33729 0.90853 0.0
O22 O 0.88132 0.32024 0.92682 0.0
C23 C 0.93273 0.31812 0.81397 0.0
O24 O 0.75745 0.40636 0.83842 0.0
O25 O 0.87146 0.43142 0.82092 0.0
In26 In 0.62417 0.12471 0.12617 0.0
O27 O 0.52078 0.15996 0.16156 0.0
O28 O 0.63777 0.18024 0.17899 0.0
C29 C 0.56205 0.06368 0.06756 0.0
C30 C 0.68675 0.18288 0.06514 0.0
C31 C 0.68811 0.06632 0.18651 0.0
O32 O 0.51907 0.08945 0.09158 0.0
O33 O 0.63522 0.06906 0.07346 0.0
O34 O 0.7298 0.09129 0.16085 0.0
O35 O 0.61458 0.07105 0.18151 0.0
C36 C 0.56486 0.1856 0.18541 0.0
O37 O 0.72896 0.15792 0.09051 0.0
O38 O 0.61335 0.17837 0.07085 0.0
In39 In 0.86816 0.87543 0.37881 0.0
O40 O 0.76687 0.91263 0.34329 0.0
O41 O 0.88465 0.92887 0.32404 0.0
C42 C 0.80053 0.81831 0.43899 0.0
C43 C 0.92399 0.81334 0.31961 0.0
C44 C 0.93527 0.93399 0.43811 0.0
O45 O 0.76035 0.84438 0.4136 0.0
O46 O 0.87425 0.82139 0.43382 0.0
O47 O 0.97565 0.90676 0.41422 0.0
O48 O 0.8617 0.93137 0.43183 0.0
C49 C 0.81201 0.93623 0.31825 0.0
O50 O 0.96935 0.83794 0.34374 0.0
O51 O 0.85139 0.82034 0.32565 0.0
In52 In 0.10947 0.6237 0.12831 0.0
O53 O 0.21527 0.65765 0.09438 0.0
O54 O 0.10055 0.67934 0.07459 0.0
C55 C 0.17616 0.56371 0.18631 0.0
C56 C 0.04614 0.68235 0.1886 0.0
C57 C 0.0444 0.56508 0.0681 0.0
O58 O 0.21643 0.58964 0.16091 0.0
O59 O 0.10246 0.5683 0.18239 0.0
O60 O 0.00305 0.58954 0.09423 0.0
O61 O 0.11787 0.5704 0.07261 0.0
C62 C 0.17411 0.6836 0.06949 0.0
O63 O 0.00417 0.65692 0.16341 0.0
O64 O 0.11953 0.67801 0.18312 0.0
In65 In 0.37206 0.37427 0.37497 0.0
O66 O 0.47819 0.34131 0.34092 0.0
O67 O 0.36339 0.31938 0.32068 0.0
C68 C 0.43337 0.43527 0.4339 0.0
C69 C 0.30929 0.43311 0.31458 0.0
C70 C 0.31452 0.31349 0.43517 0.0
O71 O 0.47606 0.4108 0.40849 0.0
O72 O 0.36011 0.42865 0.42949 0.0
O73 O 0.26975 0.33776 0.4105 0.0
O74 O 0.38729 0.32021 0.42916 0.0
C75 C 0.43702 0.31544 0.31571 0.0
O76 O 0.2665 0.40826 0.33985 0.0
O77 O 0.38249 0.42791 0.32016 0.0
In78 In 0.36245 0.87431 0.87936 0.0
O79 O 0.46729 0.84058 0.84483 0.0
O80 O 0.35197 0.82022 0.82417 0.0
C81 C 0.42916 0.93328 0.93851 0.0
C82 C 0.29864 0.93438 0.82053 0.0
C83 C 0.30245 0.81381 0.93916 0.0
O84 O 0.46945 0.90796 0.91266 0.0
O85 O 0.35541 0.92874 0.93428 0.0
O86 O 0.25864 0.83924 0.91514 0.0
O87 O 0.37536 0.81929 0.93275 0.0
C88 C 0.42546 0.81539 0.81935 0.0
O89 O 0.25663 0.90909 0.84573 0.0
O90 O 0.37203 0.92905 0.82525 0.0
In91 In 0.61011 0.62678 0.62708 0.0
O92 O 0.50666 0.66193 0.66251 0.0
O93 O 0.62391 0.6791 0.68282 0.0
C94 C 0.55351 0.56773 0.56496 0.0
C95 C 0.66971 0.68848 0.56876 0.0
C96 C 0.66894 0.5652 0.68581 0.0
O97 O 0.50817 0.59068 0.59042 0.0
O98 O 0.62617 0.57494 0.57123 0.0
O99 O 0.71311 0.59133 0.66268 0.0
O100 O 0.59597 0.57055 0.67908 0.0
C101 C 0.55099 0.68556 0.68828 0.0
O102 O 0.71359 0.6631 0.59286 0.0
O103 O 0.59663 0.68244 0.57444 0.0
C104 C 0.20285 0.27545 0.47592 0.0
C105 C 0.28446 0.27997 0.4688 0.0
C106 C 0.17295 0.24433 0.50781 0.0
C107 C 0.22344 0.21644 0.53387 0.0
H108 H 0.16153 0.2962 0.45685 0.0
H109 H 0.10957 0.24226 0.51206 0.0
S110 S 0.44205 0.21441 0.52773 0.0
N111 N 0.41555 0.25345 0.49016 0.0
N112 N 0.35916 0.19504 0.55003 0.0
C113 C 0.3052 0.22044 0.52699 0.0
C114 C 0.33573 0.25216 0.49449 0.0
C115 C 0.78154 0.52845 0.72685 0.0
C116 C 0.69998 0.5311 0.71851 0.0
C117 C 0.81237 0.49683 0.75792 0.0
C118 C 0.7629 0.46654 0.78189 0.0
H119 H 0.82208 0.55109 0.70939 0.0
H120 H 0.87565 0.49628 0.76321 0.0
S121 S 0.54492 0.45892 0.77182 0.0
N122 N 0.57009 0.5002 0.7364 0.0
N123 N 0.62822 0.44084 0.79474 0.0
C124 C 0.68121 0.46862 0.77374 0.0
C125 C 0.64973 0.50086 0.74208 0.0
C126 C 0.44776 0.02614 0.02821 0.0
C127 C 0.52973 0.02993 0.03476 0.0
C128 C 0.41593 0.99474 0.99708 0.0
C129 C 0.46482 0.96592 0.97124 0.0
H130 H 0.4077 0.04766 0.04717 0.0
H131 H 0.35239 0.9932 0.9932 0.0
S132 S 0.68355 0.96176 0.97609 0.0
N133 N 0.65934 1.00171 0.0131 0.0
N134 N 0.59941 0.94285 0.95467 0.0
C135 C 0.5469 0.9692 0.97757 0.0
C136 C 0.57936 1.00114 0.00929 0.0
C137 C 0.03479 0.77491 0.27884 0.0
C138 C 0.95332 0.77928 0.28644 0.0
C139 C 0.064 0.74342 0.24722 0.0
C140 C 0.01293 0.715 0.22193 0.0
H141 H 0.07652 0.79613 0.29729 0.0
H142 H 0.12728 0.74152 0.24252 0.0
S143 S 0.79445 0.71221 0.22972 0.0
N144 N 0.82178 0.75192 0.26648 0.0
N145 N 0.87684 0.69281 0.20712 0.0
C146 C 0.93132 0.71877 0.22937 0.0
C147 C 0.9015 0.75087 0.26159 0.0
C148 C 0.31719 0.99382 0.76047 0.0
C149 C 0.26568 0.96779 0.78774 0.0
C150 C 0.28846 0.02562 0.72892 0.0
C151 C 0.20703 0.0327 0.72334 0.0
H152 H 0.38049 0.98961 0.76335 0.0
H153 H 0.33056 0.04467 0.70867 0.0
S154 S 0.04701 0.97367 0.7868 0.0
N155 N 0.12917 0.95151 0.80735 0.0
N156 N 0.07495 0.01124 0.74811 0.0
C157 C 0.15472 0.00704 0.75052 0.0
C158 C 0.18407 0.97461 0.78269 0.0
C159 C 0.03157 0.47732 0.97324 0.0
C160 C 0.9501 0.46915 0.96905 0.0
C161 C 0.06119 0.50839 0.00535 0.0
C162 C 0.01056 0.5326 0.03456 0.0
H163 H 0.07302 0.45958 0.95158 0.0
H164 H 0.12448 0.51344 0.00718 0.0
S165 S 0.79219 0.52347 0.03765 0.0
N166 N 0.81896 0.48774 0.99709 0.0
N167 N 0.87483 0.54615 0.05735 0.0
C168 C 0.92891 0.52481 0.03079 0.0
C169 C 0.89866 0.4931 0.99807 0.0
C170 C 0.4216 0.25432 0.25687 0.0
C171 C 0.47153 0.28289 0.28274 0.0
C172 C 0.45219 0.22308 0.22542 0.0
C173 C 0.53394 0.21918 0.21858 0.0
H174 H 0.35816 0.25595 0.26093 0.0
H175 H 0.41132 0.20179 0.20644 0.0
S176 S 0.69023 0.28651 0.27738 0.0
N177 N 0.60689 0.30549 0.29915 0.0
N178 N 0.66452 0.2469 0.24013 0.0
C179 C 0.58463 0.24766 0.24413 0.0
C180 C 0.55342 0.27946 0.27617 0.0
C181 C 0.81438 0.75792 0.49853 0.0
C182 C 0.76506 0.78615 0.47213 0.0
C183 C 0.78309 0.72666 0.52981 0.0
C184 C 0.7012 0.72235 0.53596 0.0
H185 H 0.87792 0.75976 0.49497 0.0
H186 H 0.82355 0.70559 0.54916 0.0
S187 S 0.54627 0.78882 0.47572 0.0
N188 N 0.63011 0.80813 0.45457 0.0
N189 N 0.5711 0.74945 0.51331 0.0
C190 C 0.65108 0.75058 0.50998 0.0
C191 C 0.68303 0.78245 0.4781 0.0
C192 C 0.16305 0.50468 0.24743 0.0
C193 C 0.21181 0.53049 0.21833 0.0
C194 C 0.19492 0.47313 0.27828 0.0
C195 C 0.27679 0.46615 0.28124 0.0
H196 H 0.09959 0.50895 0.24656 0.0
H197 H 0.15499 0.45426 0.3001 0.0
S198 S 0.43018 0.5243 0.21179 0.0
N199 N 0.34613 0.54638 0.19394 0.0
N200 N 0.40611 0.4872 0.25176 0.0
C201 C 0.32626 0.49152 0.2521 0.0
C202 C 0.29377 0.52365 0.22071 0.0
C203 C 0.69785 0.27414 0.97355 0.0
C204 C 0.77934 0.27896 0.9661 0.0
C205 C 0.66867 0.2429 0.00554 0.0
C206 C 0.71981 0.21521 0.03134 0.0
H207 H 0.65609 0.29485 0.95474 0.0
H208 H 0.60538 0.24064 0.01014 0.0
S209 S 0.93838 0.21378 0.02409 0.0
N210 N 0.91097 0.25277 0.98671 0.0
N211 N 0.85599 0.19414 0.04677 0.0
C212 C 0.80145 0.21939 0.02401 0.0
C213 C 0.83122 0.25122 0.99142 0.0
C214 C 0.70068 0.9758 0.27873 0.0
C215 C 0.78233 0.96982 0.28462 0.0
C216 C 0.67102 0.00713 0.24698 0.0
C217 C 0.72181 0.03376 0.21986 0.0
H218 H 0.65912 0.95608 0.29871 0.0
H219 H 0.6076 0.01038 0.2437 0.0
S220 S 0.94073 0.03145 0.22227 0.0
N221 N 0.91382 0.99342 0.26077 0.0
N222 N 0.85792 0.05225 0.20118 0.0
C223 C 0.80365 0.02826 0.22546 0.0
C224 C 0.83392 0.99632 0.2578 0.0
C225 C 0.92102 0.9973 0.49447 0.0
C226 C 0.97032 0.96676 0.47094 0.0
C227 C 0.95189 0.02888 0.5257 0.0
C228 C 0.03331 0.03121 0.53467 0.0
H229 H 0.85785 0.99698 0.4887 0.0
H230 H 0.9115 0.0517 0.54282 0.0
S231 S 0.18784 0.95828 0.48272 0.0
N232 N 0.10465 0.94049 0.45918 0.0
N233 N 0.16286 0.99976 0.51784 0.0
C234 C 0.08337 1.00074 0.51153 0.0
C235 C 0.05185 0.96856 0.47969 0.0
C236 C 0.91919 0.25974 0.75236 0.0
C237 C 0.96837 0.28573 0.78125 0.0
C238 C 0.95057 0.22824 0.72146 0.0
C239 C 0.03241 0.22143 0.71822 0.0
H240 H 0.85569 0.26361 0.75359 0.0
H241 H 0.91021 0.20904 0.70005 0.0
S242 S 0.187 0.28084 0.7863 0.0
N243 N 0.10316 0.30255 0.80463 0.0
N244 N 0.16232 0.24341 0.74666 0.0
C245 C 0.08241 0.24729 0.74683 0.0
C246 C 0.05037 0.27942 0.7783 0.0
C247 C 0.43885 0.72585 0.72611 0.0
C248 C 0.52048 0.71859 0.72212 0.0
C249 C 0.4088 0.75721 0.75764 0.0
C250 C 0.45921 0.78256 0.78639 0.0
H251 H 0.39768 0.70726 0.70467 0.0
H252 H 0.34544 0.76162 0.75937 0.0
S253 S 0.6778 0.77589 0.78994 0.0
N254 N 0.65143 0.73915 0.75002 0.0
N255 N 0.59485 0.79798 0.8091 0.0
C256 C 0.54097 0.77556 0.78286 0.0
C257 C 0.57161 0.74362 0.7508 0.0
C258 C 0.15893 0.74568 0.01164 0.0
C259 C 0.20864 0.71641 0.03663 0.0
C260 C 0.18965 0.77699 0.98016 0.0
C261 C 0.27129 0.78027 0.97243 0.0
H262 H 0.0956 0.74452 0.01641 0.0
H263 H 0.14899 0.79884 0.96186 0.0
S264 S 0.42691 0.7108 0.02854 0.0
N265 N 0.34363 0.69239 0.05113 0.0
N266 N 0.40146 0.75109 0.99208 0.0
C267 C 0.32173 0.75107 0.99709 0.0
C268 C 0.29041 0.71921 0.02915 0.0
C269 C 0.41452 0.49284 0.49577 0.0
C270 C 0.4658 0.4691 0.46654 0.0
C271 C 0.44323 0.52486 0.52727 0.0
C272 C 0.52436 0.53441 0.53078 0.0
H273 H 0.35152 0.48655 0.49453 0.0
H274 H 0.40145 0.54202 0.54919 0.0
S275 S 0.68339 0.48252 0.46114 0.0
N276 N 0.60158 0.45802 0.44253 0.0
N277 N 0.65568 0.51812 0.50158 0.0
C278 C 0.57631 0.51119 0.50147 0.0
C279 C 0.54702 0.47857 0.46941 0.0
loop_
_geom_bond_atom_site_label_1
_geom_bond_atom_site_label_2
_geom_bond_distance
_geom_bond_site_symmetry_2
_ccdc_geom_bond_type
In0 O1 2.294 . S
In0 O2 2.326 . S
In0 O6 2.266 . S
In0 O7 2.326 . S
In0 O8 2.266 . S
In0 O9 2.326 . S
In0 O11 2.294 . S
In0 O12 2.326 . S
O1 In0 2.294 . S
O1 C10 1.240 . S
O2 In0 2.326 . S
O2 C10 1.252 . S
C3 O6 1.252 . S
C3 O7 1.260 . S
C4 O11 1.240 . S
C4 O12 1.252 . S
C5 O8 1.252 . S
C5 O9 1.260 . S
O6 In0 2.266 . S
O6 C3 1.252 . S
O7 In0 2.326 . S
O7 C3 1.260 . S
O8 In0 2.266 . S
O8 C5 1.252 . S
O9 In0 2.326 . S
O9 C5 1.260 . S
C10 O1 1.240 . S
C10 O2 1.252 . S
O11 In0 2.294 . S
O11 C4 1.240 . S
O12 In0 2.326 . S
O12 C4 1.252 . S
In13 O14 2.294 . S
In13 O15 2.326 . S
In13 O19 2.266 . S
In13 O20 2.326 . S
In13 O21 2.266 . S
In13 O22 2.326 . S
In13 O24 2.294 . S
In13 O25 2.326 . S
O14 In13 2.294 . S
O14 C23 1.240 . S
O15 In13 2.326 . S
O15 C23 1.252 . S
C16 O19 1.252 . S
C16 O20 1.260 . S
C17 O24 1.240 . S
C17 O25 1.252 . S
C18 O21 1.252 . S
C18 O22 1.260 . S
O19 In13 2.266 . S
O19 C16 1.252 . S
O20 In13 2.326 . S
O20 C16 1.260 . S
O21 In13 2.266 . S
O21 C18 1.252 . S
O22 In13 2.326 . S
O22 C18 1.260 . S
C23 O14 1.240 . S
C23 O15 1.252 . S
O24 In13 2.294 . S
O24 C17 1.240 . S
O25 In13 2.326 . S
O25 C17 1.252 . S
In26 O27 2.294 . S
In26 O28 2.326 . S
In26 O32 2.266 . S
In26 O33 2.326 . S
In26 O34 2.266 . S
In26 O35 2.326 . S
In26 O37 2.294 . S
In26 O38 2.326 . S
O27 In26 2.294 . S
O27 C36 1.240 . S
O28 In26 2.326 . S
O28 C36 1.252 . S
C29 O32 1.252 . S
C29 O33 1.260 . S
C30 O37 1.240 . S
C30 O38 1.252 . S
C31 O34 1.252 . S
C31 O35 1.260 . S
O32 In26 2.266 . S
O32 C29 1.252 . S
O33 In26 2.326 . S
O33 C29 1.260 . S
O34 In26 2.266 . S
O34 C31 1.252 . S
O35 In26 2.326 . S
O35 C31 1.260 . S
C36 O27 1.240 . S
C36 O28 1.252 . S
O37 In26 2.294 . S
O37 C30 1.240 . S
O38 In26 2.326 . S
O38 C30 1.252 . S
In39 O40 2.294 . S
In39 O41 2.326 . S
In39 O45 2.266 . S
In39 O46 2.326 . S
In39 O47 2.266 . S
In39 O48 2.326 . S
In39 O50 2.294 . S
In39 O51 2.326 . S
O40 In39 2.294 . S
O40 C49 1.240 . S
O41 In39 2.326 . S
O41 C49 1.252 . S
C42 O45 1.252 . S
C42 O46 1.260 . S
C43 O50 1.240 . S
C43 O51 1.252 . S
C44 O47 1.252 . S
C44 O48 1.260 . S
O45 In39 2.266 . S
O45 C42 1.252 . S
O46 In39 2.326 . S
O46 C42 1.260 . S
O47 In39 2.266 . S
O47 C44 1.252 . S
O48 In39 2.326 . S
O48 C44 1.260 . S
C49 O40 1.240 . S
C49 O41 1.252 . S
O50 In39 2.294 . S
O50 C43 1.240 . S
O51 In39 2.326 . S
O51 C43 1.252 . S
In52 O53 2.294 . S
In52 O54 2.326 . S
In52 O58 2.266 . S
In52 O59 2.326 . S
In52 O60 2.266 . S
In52 O61 2.326 . S
In52 O63 2.294 . S
In52 O64 2.326 . S
O53 In52 2.294 . S
O53 C62 1.240 . S
O54 In52 2.326 . S
O54 C62 1.252 . S
C55 O58 1.252 . S
C55 O59 1.260 . S
C56 O63 1.240 . S
C56 O64 1.252 . S
C57 O60 1.252 . S
C57 O61 1.260 . S
O58 In52 2.266 . S
O58 C55 1.252 . S
O59 In52 2.326 . S
O59 C55 1.260 . S
O60 In52 2.266 . S
O60 C57 1.252 . S
O61 In52 2.326 . S
O61 C57 1.260 . S
C62 O53 1.240 . S
C62 O54 1.252 . S
O63 In52 2.294 . S
O63 C56 1.240 . S
O64 In52 2.326 . S
O64 C56 1.252 . S
In65 O66 2.294 . S
In65 O67 2.326 . S
In65 O71 2.266 . S
In65 O72 2.326 . S
In65 O73 2.266 . S
In65 O74 2.326 . S
In65 O76 2.294 . S
In65 O77 2.326 . S
O66 In65 2.294 . S
O66 C75 1.240 . S
O67 In65 2.326 . S
O67 C75 1.252 . S
C68 O71 1.252 . S
C68 O72 1.260 . S
C69 O76 1.240 . S
C69 O77 1.252 . S
C70 O73 1.252 . S
C70 O74 1.260 . S
O71 In65 2.266 . S
O71 C68 1.252 . S
O72 In65 2.326 . S
O72 C68 1.260 . S
O73 In65 2.266 . S
O73 C70 1.252 . S
O74 In65 2.326 . S
O74 C70 1.260 . S
C75 O66 1.240 . S
C75 O67 1.252 . S
O76 In65 2.294 . S
O76 C69 1.240 . S
O77 In65 2.326 . S
O77 C69 1.252 . S
In78 O79 2.294 . S
In78 O80 2.326 . S
In78 O84 2.266 . S
In78 O85 2.326 . S
In78 O86 2.266 . S
In78 O87 2.326 . S
In78 O89 2.294 . S
In78 O90 2.326 . S
O79 In78 2.294 . S
O79 C88 1.240 . S
O80 In78 2.326 . S
O80 C88 1.252 . S
C81 O84 1.252 . S
C81 O85 1.260 . S
C82 O89 1.240 . S
C82 O90 1.252 . S
C83 O86 1.252 . S
C83 O87 1.260 . S
O84 In78 2.266 . S
O84 C81 1.252 . S
O85 In78 2.326 . S
O85 C81 1.260 . S
O86 In78 2.266 . S
O86 C83 1.252 . S
O87 In78 2.326 . S
O87 C83 1.260 . S
C88 O79 1.240 . S
C88 O80 1.252 . S
O89 In78 2.294 . S
O89 C82 1.240 . S
O90 In78 2.326 . S
O90 C82 1.252 . S
In91 O92 2.294 . S
In91 O93 2.326 . S
In91 O97 2.266 . S
In91 O98 2.326 . S
In91 O99 2.266 . S
In91 O100 2.326 . S
In91 O102 2.294 . S
In91 O103 2.326 . S
O92 In91 2.294 . S
O92 C101 1.240 . S
O93 In91 2.326 . S
O93 C101 1.252 . S
C94 O97 1.252 . S
C94 O98 1.260 . S
C95 O102 1.240 . S
C95 O103 1.252 . S
C96 O99 1.252 . S
C96 O100 1.260 . S
O97 In91 2.266 . S
O97 C94 1.252 . S
O98 In91 2.326 . S
O98 C94 1.260 . S
O99 In91 2.266 . S
O99 C96 1.252 . S
O100 In91 2.326 . S
O100 C96 1.260 . S
C101 O92 1.240 . S
C101 O93 1.252 . S
O102 In91 2.294 . S
O102 C95 1.240 . S
O103 In91 2.326 . S
O103 C95 1.252 . S
C104 C105 1.369 . S
C104 C106 1.419 . S
C104 H108 0.930 . S
C105 C104 1.369 . S
C105 C114 1.429 . S
C106 C104 1.419 . S
C106 C107 1.363 . S
C106 H109 0.929 . S
C107 C106 1.363 . S
C107 C113 1.428 . S
H108 C104 0.930 . S
H109 C106 0.929 . S
S110 N111 1.613 . S
S110 N112 1.610 . S
N111 S110 1.613 . S
N111 C114 1.350 . S
N112 S110 1.610 . S
N112 C113 1.351 . S
C113 C107 1.428 . S
C113 N112 1.351 . S
C113 C114 1.434 . S
C114 C105 1.429 . S
C114 N111 1.350 . S
C114 C113 1.434 . S
C115 C116 1.369 . S
C115 C117 1.419 . S
C115 H119 0.930 . S
C116 C115 1.369 . S
C116 C125 1.429 . S
C117 C115 1.419 . S
C117 C118 1.363 . S
C117 H120 0.929 . S
C118 C117 1.363 . S
C118 C124 1.428 . S
H119 C115 0.930 . S
H120 C117 0.929 . S
S121 N122 1.613 . S
S121 N123 1.610 . S
N122 S121 1.613 . S
N122 C125 1.350 . S
N123 S121 1.610 . S
N123 C124 1.351 . S
C124 C118 1.428 . S
C124 N123 1.351 . S
C124 C125 1.434 . S
C125 C116 1.429 . S
C125 N122 1.350 . S
C125 C124 1.434 . S
C126 C127 1.369 . S
C126 C128 1.419 1_554 S
C126 H130 0.930 . S
C127 C126 1.369 . S
C127 C136 1.429 1_545 S
C128 C126 1.419 1_556 S
C128 C129 1.363 1_545 S
C128 H131 0.929 . S
C129 C128 1.363 1_565 S
C129 C135 1.428 1_556 S
H130 C126 0.930 . S
H131 C128 0.929 . S
S132 N133 1.613 . S
S132 N134 1.610 . S
N133 S132 1.613 . S
N133 C136 1.350 . S
N134 S132 1.610 . S
N134 C135 1.351 . S
C135 C129 1.428 1_554 S
C135 N134 1.351 . S
C135 C136 1.434 . S
C136 C127 1.429 1_565 S
C136 N133 1.350 . S
C136 C135 1.434 . S
C137 C138 1.369 1_455 S
C137 C139 1.419 . S
C137 H141 0.930 . S
C138 C137 1.369 1_655 S
C138 C147 1.429 . S
C139 C137 1.419 . S
C139 C140 1.363 . S
C139 H142 0.929 . S
C140 C139 1.363 . S
C140 C146 1.428 1_455 S
H141 C137 0.930 . S
H142 C139 0.929 . S
S143 N144 1.613 . S
S143 N145 1.610 . S
N144 S143 1.613 . S
N144 C147 1.350 . S
N145 S143 1.610 . S
N145 C146 1.351 . S
C146 C140 1.428 1_655 S
C146 N145 1.351 . S
C146 C147 1.434 . S
C147 C138 1.429 . S
C147 N144 1.350 . S
C147 C146 1.434 . S
C148 C149 1.369 . S
C148 C150 1.419 1_565 S
C148 H152 0.930 . S
C149 C148 1.369 . S
C149 C158 1.429 . S
C150 C148 1.419 1_545 S
C150 C151 1.363 . S
C150 H153 0.929 . S
C151 C150 1.363 . S
C151 C157 1.428 . S
H152 C148 0.930 . S
H153 C150 0.929 . S
S154 N155 1.613 1_545 S
S154 N156 1.610 . S
N155 S154 1.613 1_565 S
N155 C158 1.350 . S
N156 S154 1.610 . S
N156 C157 1.351 . S
C157 C151 1.428 . S
C157 N156 1.351 . S
C157 C158 1.434 1_545 S
C158 C149 1.429 . S
C158 N155 1.350 . S
C158 C157 1.434 1_565 S
C159 C160 1.369 1_455 S
C159 C161 1.419 . S
C159 H163 0.930 . S
C160 C159 1.369 1_655 S
C160 C169 1.429 1_556 S
C161 C159 1.419 . S
C161 C162 1.363 1_556 S
C161 H164 0.929 . S
C162 C161 1.363 1_554 S
C162 C168 1.428 1_455 S
H163 C159 0.930 . S
H164 C161 0.929 . S
S165 N166 1.613 . S
S165 N167 1.610 . S
N166 S165 1.613 . S
N166 C169 1.350 . S
N167 S165 1.610 . S
N167 C168 1.351 . S
C168 C162 1.428 1_655 S
C168 N167 1.351 . S
C168 C169 1.434 . S
C169 C160 1.429 1_554 S
C169 N166 1.350 . S
C169 C168 1.434 . S
C170 C171 1.369 . S
C170 C172 1.419 . S
C170 H174 0.930 . S
C171 C170 1.369 . S
C171 C180 1.429 . S
C172 C170 1.419 . S
C172 C173 1.363 . S
C172 H175 0.929 . S
C173 C172 1.363 . S
C173 C179 1.428 . S
H174 C170 0.930 . S
H175 C172 0.929 . S
S176 N177 1.613 . S
S176 N178 1.610 . S
N177 S176 1.613 . S
N177 C180 1.350 . S
N178 S176 1.610 . S
N178 C179 1.351 . S
C179 C173 1.428 . S
C179 N178 1.351 . S
C179 C180 1.434 . S
C180 C171 1.429 . S
C180 N177 1.350 . S
C180 C179 1.434 . S
C181 C182 1.369 . S
C181 C183 1.419 . S
C181 H185 0.930 . S
C182 C181 1.369 . S
C182 C191 1.429 . S
C183 C181 1.419 . S
C183 C184 1.363 . S
C183 H186 0.929 . S
C184 C183 1.363 . S
C184 C190 1.428 . S
H185 C181 0.930 . S
H186 C183 0.929 . S
S187 N188 1.613 . S
S187 N189 1.610 . S
N188 S187 1.613 . S
N188 C191 1.350 . S
N189 S187 1.610 . S
N189 C190 1.351 . S
C190 C184 1.428 . S
C190 N189 1.351 . S
C190 C191 1.434 . S
C191 C182 1.429 . S
C191 N188 1.350 . S
C191 C190 1.434 . S
C192 C193 1.369 . S
C192 C194 1.419 . S
C192 H196 0.930 . S
C193 C192 1.369 . S
C193 C202 1.429 . S
C194 C192 1.419 . S
C194 C195 1.363 . S
C194 H197 0.929 . S
C195 C194 1.363 . S
C195 C201 1.428 . S
H196 C192 0.930 . S
H197 C194 0.929 . S
S198 N199 1.613 . S
S198 N200 1.610 . S
N199 S198 1.613 . S
N199 C202 1.350 . S
N200 S198 1.610 . S
N200 C201 1.351 . S
C201 C195 1.428 . S
C201 N200 1.351 . S
C201 C202 1.434 . S
C202 C193 1.429 . S
C202 N199 1.350 . S
C202 C201 1.434 . S
C203 C204 1.369 . S
C203 C205 1.419 1_556 S
C203 H207 0.930 . S
C204 C203 1.369 . S
C204 C213 1.429 . S
C205 C203 1.419 1_554 S
C205 C206 1.363 . S
C205 H208 0.929 . S
C206 C205 1.363 . S
C206 C212 1.428 . S
H207 C203 0.930 . S
H208 C205 0.929 . S
S209 N210 1.613 . S
S209 N211 1.610 1_556 S
N210 S209 1.613 . S
N210 C213 1.350 . S
N211 S209 1.610 1_554 S
N211 C212 1.351 . S
C212 C206 1.428 . S
C212 N211 1.351 . S
C212 C213 1.434 1_554 S
C213 C204 1.429 . S
C213 N210 1.350 . S
C213 C212 1.434 1_556 S
C214 C215 1.369 . S
C214 C216 1.419 . S
C214 H218 0.930 . S
C215 C214 1.369 . S
C215 C224 1.429 . S
C216 C214 1.419 . S
C216 C217 1.363 1_565 S
C216 H219 0.929 . S
C217 C216 1.363 1_545 S
C217 C223 1.428 . S
H218 C214 0.930 . S
H219 C216 0.929 . S
S220 N221 1.613 1_545 S
S220 N222 1.610 . S
N221 S220 1.613 1_565 S
N221 C224 1.350 . S
N222 S220 1.610 . S
N222 C223 1.351 . S
C223 C217 1.428 . S
C223 N222 1.351 . S
C223 C224 1.434 1_545 S
C224 C215 1.429 . S
C224 N221 1.350 . S
C224 C223 1.434 1_565 S
C225 C226 1.369 1_545 S
C225 C227 1.419 . S
C225 H229 0.930 . S
C226 C225 1.369 1_565 S
C226 C235 1.429 1_655 S
C227 C225 1.419 . S
C227 C228 1.363 1_655 S
C227 H230 0.929 . S
C228 C227 1.363 1_455 S
C228 C234 1.428 1_545 S
H229 C225 0.930 . S
H230 C227 0.929 . S
S231 N232 1.613 . S
S231 N233 1.610 . S
N232 S231 1.613 . S
N232 C235 1.350 . S
N233 S231 1.610 . S
N233 C234 1.351 . S
C234 C228 1.428 1_565 S
C234 N233 1.351 . S
C234 C235 1.434 . S
C235 C226 1.429 1_455 S
C235 N232 1.350 . S
C235 C234 1.434 . S
C236 C237 1.369 . S
C236 C238 1.419 . S
C236 H240 0.930 . S
C237 C236 1.369 . S
C237 C246 1.429 1_655 S
C238 C236 1.419 . S
C238 C239 1.363 1_655 S
C238 H241 0.929 . S
C239 C238 1.363 1_455 S
C239 C245 1.428 . S
H240 C236 0.930 . S
H241 C238 0.929 . S
S242 N243 1.613 . S
S242 N244 1.610 . S
N243 S242 1.613 . S
N243 C246 1.350 . S
N244 S242 1.610 . S
N244 C245 1.351 . S
C245 C239 1.428 . S
C245 N244 1.351 . S
C245 C246 1.434 . S
C246 C237 1.429 1_455 S
C246 N243 1.350 . S
C246 C245 1.434 . S
C247 C248 1.369 . S
C247 C249 1.419 . S
C247 H251 0.930 . S
C248 C247 1.369 . S
C248 C257 1.429 . S
C249 C247 1.419 . S
C249 C250 1.363 . S
C249 H252 0.929 . S
C250 C249 1.363 . S
C250 C256 1.428 . S
H251 C247 0.930 . S
H252 C249 0.929 . S
S253 N254 1.613 . S
S253 N255 1.610 . S
N254 S253 1.613 . S
N254 C257 1.350 . S
N255 S253 1.610 . S
N255 C256 1.351 . S
C256 C250 1.428 . S
C256 N255 1.351 . S
C256 C257 1.434 . S
C257 C248 1.429 . S
C257 N254 1.350 . S
C257 C256 1.434 . S
C258 C259 1.369 . S
C258 C260 1.419 . S
C258 H262 0.930 . S
C259 C258 1.369 . S
C259 C268 1.429 1_554 S
C260 C258 1.419 . S
C260 C261 1.363 1_554 S
C260 H263 0.929 . S
C261 C260 1.363 1_556 S
C261 C267 1.428 . S
H262 C258 0.930 . S
H263 C260 0.929 . S
S264 N265 1.613 . S
S264 N266 1.610 . S
N265 S264 1.613 . S
N265 C268 1.350 . S
N266 S264 1.610 . S
N266 C267 1.351 . S
C267 C261 1.428 . S
C267 N266 1.351 . S
C267 C268 1.434 . S
C268 C259 1.429 1_556 S
C268 N265 1.350 . S
C268 C267 1.434 . S
C269 C270 1.369 . S
C269 C271 1.419 . S
C269 H273 0.930 . S
C270 C269 1.369 . S
C270 C279 1.429 . S
C271 C269 1.419 . S
C271 C272 1.363 . S
C271 H274 0.929 . S
C272 C271 1.363 . S
C272 C278 1.428 . S
H273 C269 0.930 . S
H274 C271 0.929 . S
S275 N276 1.613 . S
S275 N277 1.610 . S
N276 S275 1.613 . S
N276 C279 1.350 . S
N277 S275 1.610 . S
N277 C278 1.351 . S
C278 C272 1.428 . S
C278 N277 1.351 . S
C278 C279 1.434 . S
C279 C270 1.429 . S
C279 N276 1.350 . S
C279 C278 1.434 . S
C105 C70 1.513 . S
C107 C10 1.515 . S
C116 C96 1.514 . S
C118 C17 1.515 . S
C127 C29 1.515 . S
C129 C81 1.515 . S
C138 C43 1.514 . S
C140 C56 1.514 . S
C149 C82 1.515 . S
C151 C3 1.514 . S
C160 C16 1.515 . S
C162 C57 1.515 . S
C171 C75 1.515 . S
C173 C36 1.514 . S
C182 C42 1.515 . S
C184 C95 1.515 . S
C193 C55 1.515 . S
C195 C69 1.515 . S
C204 C18 1.513 . S
C206 C30 1.515 . S
C215 C49 1.515 . S
C217 C31 1.514 . S
C226 C44 1.515 . S
C228 C5 1.515 . S
C237 C23 1.514 . S
C239 C4 1.514 . S
C248 C101 1.514 . S
C250 C88 1.514 . S
C259 C62 1.515 . S
C261 C83 1.513 . S
C270 C68 1.515 . S
C272 C94 1.514 . S
