# Generated by pormake.
# Topology smt, (6)-cn, num edge types: 1
# Building blocks:
#     Node 0, Type 0, BuildingBlock: CIFDUS_clean_sbu_1, # of connection points: 6
#     Node 1, Type 0, BuildingBlock: CIFDUS_clean_sbu_1, # of connection points: 6
#     Node 2, Type 0, BuildingBlock: CIFDUS_clean_sbu_1, # of connection points: 6
#     Node 3, Type 0, BuildingBlock: CIFDUS_clean_sbu_1, # of connection points: 6
#     Node 4, Type 0, BuildingBlock: CIFDUS_clean_sbu_1, # of connection points: 6
#     Node 5, Type 0, BuildingBlock: CIFDUS_clean_sbu_1, # of connection points: 6
#     Edge 6, Type (0, 0), BuildingBlock: XUDNAN_clean_linker_2, # of connection points: 2
#     Edge 7, Type (0, 0), BuildingBlock: XUDNAN_clean_linker_2, # of connection points: 2
#     Edge 8, Type (0, 0), BuildingBlock: XUDNAN_clean_linker_2, # of connection points: 2
#     Edge 9, Type (0, 0), BuildingBlock: XUDNAN_clean_linker_2, # of connection points: 2
#     Edge 10, Type (0, 0), BuildingBlock: XUDNAN_clean_linker_2, # of connection points: 2
#     Edge 11, Type (0, 0), BuildingBlock: XUDNAN_clean_linker_2, # of connection points: 2
#     Edge 12, Type (0, 0), BuildingBlock: XUDNAN_clean_linker_2, # of connection points: 2
#     Edge 13, Type (0, 0), BuildingBlock: XUDNAN_clean_linker_2, # of connection points: 2
#     Edge 14, Type (0, 0), BuildingBlock: XUDNAN_clean_linker_2, # of connection points: 2
#     Edge 15, Type (0, 0), BuildingBlock: XUDNAN_clean_linker_2, # of connection points: 2
#     Edge 16, Type (0, 0), BuildingBlock: XUDNAN_clean_linker_2, # of connection points: 2
#     Edge 17, Type (0, 0), BuildingBlock: XUDNAN_clean_linker_2, # of connection points: 2
#     Edge 18, Type (0, 0), BuildingBlock: XUDNAN_clean_linker_2, # of connection points: 2
#     Edge 19, Type (0, 0), BuildingBlock: XUDNAN_clean_linker_2, # of connection points: 2
#     Edge 20, Type (0, 0), BuildingBlock: XUDNAN_clean_linker_2, # of connection points: 2
#     Edge 21, Type (0, 0), BuildingBlock: XUDNAN_clean_linker_2, # of connection points: 2
#     Edge 22, Type (0, 0), BuildingBlock: XUDNAN_clean_linker_2, # of connection points: 2
#     Edge 23, Type (0, 0), BuildingBlock: XUDNAN_clean_linker_2, # of connection points: 2
# Relax obj value: 0.309
# Max RMSD: 0.271
# Mean RMSD: 0.271
data_MOF--net-smt--node1-CIFDUS_clean_sbu_1--edge1-XUDNAN_clean_linker_2
_symmetry_space_group_name_H-M    P1
_symmetry_Int_Tables_number       1
_symmetry_cell_setting            triclinic
loop_
_symmetry_equiv_pos_as_xyz
'x, y, z'
_cell_length_a     35.875715
_cell_length_b     35.726102
_cell_length_c     23.21354
_cell_angle_alpha  89.589769
_cell_angle_beta   90.078135
_cell_angle_gamma 120.05368
loop_
_atom_site_label
_atom_site_type_symbol
_atom_site_fract_x
_atom_site_fract_y
_atom_site_fract_z
_atom_type_partial_charge
O0 O 0.45318 0.15534 0.93916 0.0
Mn1 Mn 0.45342 0.11465 0.00416 0.0
O2 O 0.52254 0.19926 0.94001 0.0
Mn3 Mn 0.53251 0.15324 0.94443 0.0
O4 O 0.45196 0.07451 0.07281 0.0
O5 O 0.41412 0.13008 0.04694 0.0
Mn6 Mn 0.36983 0.0824 0.07437 0.0
O7 O 0.40136 0.06101 0.96577 0.0
O8 O 0.39457 0.06245 0.12673 0.0
O9 O 0.50946 0.16419 0.04875 0.0
O10 O 0.56144 0.15644 0.00789 0.0
O11 O 0.36006 0.12673 0.09376 0.0
O12 O 0.34128 0.04394 0.01499 0.0
C13 C 0.49592 0.0951 0.89972 0.0
C14 C 0.48545 0.19255 0.92912 0.0
C15 C 0.42827 0.05966 0.11855 0.0
C16 C 0.39663 0.15099 0.06842 0.0
C17 C 0.36099 0.03622 0.97542 0.0
C18 C 0.54781 0.16864 0.04986 0.0
O19 O 0.49003 0.09824 0.95463 0.0
O20 O 0.52783 0.12878 0.87592 0.0
O21 O 0.34269 0.40648 0.13332 0.0
Mn22 Mn 0.34163 0.45908 0.17156 0.0
O23 O 0.31464 0.35325 0.20038 0.0
Mn24 Mn 0.29896 0.3807 0.25518 0.0
O25 O 0.3476 0.51428 0.21652 0.0
O26 O 0.39251 0.49816 0.12002 0.0
Mn27 Mn 0.38105 0.54081 0.10654 0.0
O28 O 0.29654 0.45677 0.11252 0.0
O29 O 0.40351 0.57017 0.17183 0.0
O30 O 0.38487 0.46143 0.23465 0.0
O31 O 0.34336 0.41488 0.30399 0.0
O32 O 0.40309 0.5348 0.04001 0.0
O33 O 0.32472 0.52713 0.09841 0.0
C34 C 0.25076 0.39831 0.23798 0.0
C35 C 0.33476 0.36938 0.1531 0.0
C36 C 0.37985 0.55378 0.21604 0.0
C37 C 0.4032 0.50263 0.06583 0.0
C38 C 0.29323 0.48917 0.0964 0.0
C39 C 0.37933 0.44583 0.28619 0.0
O40 O 0.28972 0.41836 0.21838 0.0
O41 O 0.24251 0.36572 0.27094 0.0
O42 O 0.83794 0.29952 0.2872 0.0
Mn43 Mn 0.88788 0.34465 0.3381 0.0
O44 O 0.82002 0.33676 0.22581 0.0
Mn45 Mn 0.85374 0.38952 0.25969 0.0
O46 O 0.93408 0.38854 0.39671 0.0
O47 O 0.87384 0.29524 0.39345 0.0
Mn48 Mn 0.92442 0.30265 0.41767 0.0
O49 O 0.93407 0.33698 0.29269 0.0
O50 O 0.93429 0.34579 0.46863 0.0
O51 O 0.84408 0.35693 0.38375 0.0
O52 O 0.8314 0.39899 0.32414 0.0
O53 O 0.88557 0.24394 0.41542 0.0
O54 O 0.96775 0.32275 0.36266 0.0
C55 C 0.9197 0.42416 0.24163 0.0
C56 C 0.81484 0.30144 0.2465 0.0
C57 C 0.9408 0.38239 0.44995 0.0
C58 C 0.85842 0.25383 0.39393 0.0
C59 C 0.96651 0.33493 0.31165 0.0
C60 C 0.82806 0.38147 0.37303 0.0
O61 O 0.90251 0.39307 0.27974 0.0
O62 O 0.89369 0.43501 0.218 0.0
O63 O 0.59727 0.94384 0.47079 0.0
Mn64 Mn 0.53914 0.8865 0.49515 0.0
O65 O 0.64554 0.95397 0.53735 0.0
Mn66 Mn 0.60307 0.91412 0.58441 0.0
O67 O 0.47645 0.83409 0.51864 0.0
O68 O 0.51068 0.90847 0.43832 0.0
Mn69 Mn 0.47481 0.86168 0.39876 0.0
O70 O 0.54951 0.84851 0.43494 0.0
O71 O 0.4328 0.84012 0.45331 0.0
O72 O 0.52643 0.9209 0.55793 0.0
O73 O 0.57442 0.93435 0.62678 0.0
O74 O 0.49693 0.90646 0.34761 0.0
O75 O 0.49103 0.82262 0.38055 0.0
C76 C 0.5901 0.85176 0.58941 0.0
C77 C 0.63515 0.96653 0.49228 0.0
C78 C 0.43854 0.82604 0.50131 0.0
C79 C 0.51812 0.9304 0.39057 0.0
C80 C 0.52455 0.8226 0.39635 0.0
C81 C 0.54216 0.93563 0.60767 0.0
O82 O 0.56937 0.86284 0.55154 0.0
O83 O 0.61665 0.88093 0.62477 0.0
O84 O 0.70948 0.54254 0.62614 0.0
Mn85 Mn 0.65909 0.5387 0.67602 0.0
O86 O 0.6816 0.50897 0.54469 0.0
Mn87 Mn 0.63181 0.47475 0.584 0.0
O88 O 0.61265 0.53465 0.73482 0.0
O89 O 0.70574 0.57182 0.73464 0.0
Mn90 Mn 0.6988 0.61399 0.76291 0.0
O91 O 0.66364 0.59472 0.63865 0.0
O92 O 0.65171 0.57894 0.80795 0.0
O93 O 0.6483 0.47992 0.71316 0.0
O94 O 0.63259 0.43694 0.63677 0.0
O95 O 0.75656 0.63119 0.76854 0.0
O96 O 0.68613 0.64399 0.70844 0.0
C97 C 0.58209 0.48639 0.57516 0.0
C98 C 0.714 0.53137 0.57575 0.0
C99 C 0.61648 0.54859 0.78705 0.0
C100 C 0.74693 0.5964 0.74057 0.0
C101 C 0.67077 0.63116 0.65857 0.0
C102 C 0.63722 0.44296 0.69067 0.0
O103 O 0.61196 0.50674 0.61433 0.0
O104 O 0.58299 0.45626 0.54538 0.0
O105 O 0.06107 0.65948 0.79802 0.0
Mn106 Mn 0.11552 0.6599 0.83435 0.0
O107 O 0.04233 0.6941 0.86267 0.0
Mn108 Mn 0.08183 0.70217 0.91971 0.0
O109 O 0.16505 0.65588 0.87909 0.0
O110 O 0.10251 0.6104 0.77973 0.0
Mn111 Mn 0.1529 0.61424 0.76807 0.0
O112 O 0.15955 0.70409 0.77359 0.0
O113 O 0.16964 0.60269 0.83607 0.0
O114 O 0.07435 0.61544 0.89587 0.0
O115 O 0.06675 0.65409 0.96609 0.0
O116 O 0.11659 0.56902 0.72421 0.0
O117 O 0.18998 0.6675 0.73641 0.0
C118 C 0.14884 0.74821 0.90939 0.0
C119 C 0.03447 0.67076 0.81786 0.0
C120 C 0.17668 0.62716 0.8786 0.0
C121 C 0.08824 0.57785 0.74455 0.0
C122 C 0.18826 0.70194 0.74262 0.0
C123 C 0.06265 0.61883 0.94695 0.0
O124 O 0.12873 0.71113 0.88406 0.0
O125 O 0.12465 0.75631 0.94215 0.0
H126 H 0.31486 0.99186 0.87732 0.0
H127 H 0.3638 0.97678 0.04127 0.0
H128 H 0.32684 0.89795 0.02812 0.0
H129 H 0.21429 0.90794 0.88728 0.0
H130 H 0.20774 0.88882 0.81419 0.0
H131 H 0.24584 0.94426 0.82975 0.0
H132 H 0.30622 0.93524 0.78206 0.0
H133 H 0.26809 0.87924 0.76724 0.0
H134 H 0.31631 0.89336 0.80741 0.0
H135 H 0.27537 0.82183 0.00755 0.0
H136 H 0.20838 0.75442 0.98482 0.0
H137 H 0.19078 0.81531 0.83376 0.0
C138 C 0.31872 0.97183 0.90922 0.0
C139 C 0.34238 0.99019 0.96009 0.0
C140 C 0.34613 0.96317 0.00175 0.0
C141 C 0.32552 0.91837 -0.00554 0.0
C142 C 0.30166 0.90077 0.9446 0.0
C143 C 0.29838 0.92654 0.90229 0.0
C144 C 0.2667 0.89856 0.85616 0.0
C145 C 0.23155 0.9106 0.84636 0.0
C146 C 0.29075 0.90181 0.79987 0.0
C147 C 0.24877 0.85379 0.88305 0.0
C148 C 0.27125 0.85569 0.93242 0.0
C149 C 0.25841 0.8196 0.96799 0.0
C150 C 0.22047 0.78121 0.9545 0.0
C151 C 0.19539 0.77927 0.90643 0.0
C152 C 0.21057 0.81549 0.86913 0.0
H153 H 0.32931 0.32479 0.0518 0.0
H154 H 0.39909 0.371 0.21206 0.0
H155 H 0.43801 0.33202 0.19285 0.0
H156 H 0.30864 0.22283 0.05926 0.0
H157 H 0.31773 0.21553 0.98482 0.0
H158 H 0.30349 0.2554 0.00351 0.0
H159 H 0.37224 0.31422 0.9515 0.0
H160 H 0.38698 0.27425 0.93347 0.0
H161 H 0.42413 0.32216 0.97212 0.0
H162 H 0.45882 0.27811 0.16754 0.0
H163 H 0.45474 0.20928 0.14166 0.0
H164 H 0.37242 0.19579 -0.00219 0.0
C165 C 0.35402 0.32789 0.08139 0.0
C166 C 0.3616 0.35122 0.1331 0.0
C167 C 0.39321 0.35361 0.1719 0.0
C168 C 0.41575 0.33181 0.16118 0.0
C169 C 0.40695 0.30798 0.11082 0.0
C170 C 0.37716 0.30613 0.07111 0.0
C171 C 0.37018 0.27381 0.0242 0.0
C172 C 0.32217 0.23987 0.01766 0.0
C173 C 0.38951 0.29751 0.96692 0.0
C174 C 0.39625 0.25415 0.04772 0.0
C175 C 0.41913 0.27606 0.09602 0.0
C176 C 0.44223 0.26156 0.12869 0.0
C177 C 0.44014 0.22259 0.1134 0.0
C178 C 0.41456 0.19816 0.06658 0.0
C179 C 0.39374 0.21499 0.03215 0.0
H180 H 0.04523 0.38931 0.35225 0.0
H181 H 0.97993 0.32161 0.19715 0.0
H182 H 0.0511 0.34524 0.15094 0.0
H183 H 0.14263 0.48089 0.27928 0.0
H184 H 0.17694 0.48209 0.3369 0.0
H185 H 0.12183 0.46708 0.35171 0.0
H186 H 0.10848 0.39501 0.39779 0.0
H187 H 0.16329 0.40989 0.38349 0.0
H188 H 0.12014 0.3595 0.35654 0.0
H189 H 0.12981 0.36533 0.1303 0.0
H190 H 0.20385 0.37702 0.13873 0.0
H191 H 0.2159 0.43256 0.30711 0.0
C192 C 0.04591 0.3803 0.30795 0.0
C193 C 0.00725 0.35341 0.2783 0.0
C194 C 0.00926 0.34235 0.22047 0.0
C195 C 0.04958 0.35576 0.19403 0.0
C196 C 0.08731 0.3811 0.2256 0.0
C197 C 0.08548 0.39373 0.28117 0.0
C198 C 0.1295 0.41693 0.30888 0.0
C199 C 0.14355 0.46458 0.31982 0.0
C200 C 0.13038 0.39393 0.3649 0.0
C201 C 0.15646 0.41297 0.26194 0.0
C202 C 0.13204 0.39329 0.21344 0.0
C203 C 0.14933 0.38189 0.16735 0.0
C204 C 0.1916 0.389 0.17218 0.0
C205 C 0.216 0.40719 0.2227 0.0
C206 C 0.19859 0.4205 0.26702 0.0
H207 H 0.79586 0.18806 0.32653 0.0
H208 H 0.82087 0.24696 0.49511 0.0
H209 H 0.75974 0.18094 0.53503 0.0
H210 H 0.66808 0.12247 0.3572 0.0
H211 H 0.66209 0.07877 0.31261 0.0
H212 H 0.70127 0.13394 0.29406 0.0
H213 H 0.76045 0.11281 0.29272 0.0
H214 H 0.72204 0.05812 0.31301 0.0
H215 H 0.76951 0.08905 0.35624 0.0
H216 H 0.71262 0.10605 0.5614 0.0
H217 H 0.66777 0.02791 0.57211 0.0
H218 H 0.66237 0.0132 0.38608 0.0
C219 C 0.78653 0.18782 0.37091 0.0
C220 C 0.81269 0.22299 0.40765 0.0
C221 C 0.80062 0.22105 0.466 0.0
C222 C 0.76609 0.18342 0.48919 0.0
C223 C 0.74244 0.14845 0.45293 0.0
C224 C 0.75036 0.15078 0.39444 0.0
C225 C 0.71996 0.10721 0.36654 0.0
C226 C 0.68585 0.11079 0.33043 0.0
C227 C 0.74451 0.09085 0.33002 0.0
C228 C 0.69911 0.07874 0.4196 0.0
C229 C 0.71198 0.10405 0.46852 0.0
C230 C 0.70108 0.0861 0.52338 0.0
C231 C 0.67594 0.04131 0.52889 0.0
C232 C 0.66147 0.01396 0.48006 0.0
C233 C 0.67259 0.0331 0.42424 0.0
H234 H 0.65422 0.84136 0.63158 0.0
H235 H 0.52975 0.769 0.54906 0.0
H236 H 0.53926 0.70418 0.54715 0.0
H237 H 0.71116 0.79968 0.56286 0.0
H238 H 0.7387 0.7981 0.62707 0.0
H239 H 0.72159 0.83743 0.62025 0.0
H240 H 0.678 0.81039 0.71543 0.0
H241 H 0.69611 0.77193 0.72368 0.0
H242 H 0.63933 0.75372 0.7242 0.0
H243 H 0.56438 0.64603 0.56093 0.0
H244 H 0.59767 0.60313 0.59329 0.0
H245 H 0.70552 0.71824 0.66295 0.0
C246 C 0.62855 0.81212 0.61275 0.0
C247 C 0.59171 0.81082 0.58836 0.0
C248 C 0.55903 0.77127 0.56564 0.0
C249 C 0.56412 0.73432 0.56505 0.0
C250 C 0.60175 0.7375 0.58844 0.0
C251 C 0.63287 0.77559 0.61268 0.0
C252 C 0.66935 0.77152 0.63844 0.0
C253 C 0.71275 0.80358 0.61043 0.0
C254 C 0.67077 0.77722 0.7043 0.0
C255 C 0.65543 0.7255 0.62296 0.0
C256 C 0.61609 0.70576 0.59493 0.0
C257 C 0.59565 0.66182 0.58143 0.0
C258 C 0.61532 0.63772 0.5985 0.0
C259 C 0.65539 0.65757 0.62766 0.0
C260 C 0.67571 0.70226 0.63885 0.0
H261 H 0.98788 0.65526 0.71307 0.0
H262 H 0.97462 0.62564 0.89616 0.0
H263 H 0.8963 0.58706 0.88748 0.0
H264 H 0.90901 0.67936 0.69682 0.0
H265 H 0.88559 0.6514 0.63043 0.0
H266 H 0.94067 0.66818 0.64686 0.0
H267 H 0.924 0.58922 0.63437 0.0
H268 H 0.86849 0.57232 0.61858 0.0
H269 H 0.88136 0.54661 0.67601 0.0
H270 H 0.82115 0.55961 0.86502 0.0
H271 H 0.75426 0.55609 0.83283 0.0
H272 H 0.81153 0.60662 0.66567 0.0
C273 C 0.96828 0.63946 0.75065 0.0
C274 C 0.98759 0.64361 0.80539 0.0
C275 C 0.96076 0.62307 0.85382 0.0
C276 C 0.91602 0.6005 0.84932 0.0
C277 C 0.8977 0.59763 0.79567 0.0
C278 C 0.92262 0.61634 0.74692 0.0
C279 C 0.89351 0.61175 0.69622 0.0
C280 C 0.90807 0.65531 0.66589 0.0
C281 C 0.89176 0.57802 0.65374 0.0
C282 C 0.85006 0.59415 0.72653 0.0
C283 C 0.85294 0.58302 0.78278 0.0
C284 C 0.81814 0.56728 0.82069 0.0
C285 C 0.77998 0.56494 0.80182 0.0
C286 C 0.77726 0.58 0.74641 0.0
C287 C 0.8123 0.59352 0.70756 0.0
H288 H 0.50926 0.07392 0.15247 0.0
H289 H 0.3729 0.99999 0.19417 0.0
H290 H 0.38958 0.97756 0.28607 0.0
H291 H 0.53514 0.99567 0.2054 0.0
H292 H 0.58683 0.03496 0.23416 0.0
H293 H 0.56434 0.04936 0.17463 0.0
H294 H 0.57301 0.11418 0.23373 0.0
H295 H 0.59304 0.09839 0.29505 0.0
H296 H 0.54669 0.105 0.30266 0.0
H297 H 0.41999 0.96826 0.37706 0.0
H298 H 0.45634 0.94055 0.4387 0.0
H299 H 0.57067 0.00648 0.33215 0.0
C300 C 0.483 0.05264 0.18073 0.0
C301 C 0.43979 0.03982 0.16671 0.0
C302 C 0.40634 0.01145 0.20462 0.0
C303 C 0.41546 0.99891 0.25741 0.0
C304 C 0.45828 0.01442 0.2719 0.0
C305 C 0.49145 0.03879 0.23373 0.0
C306 C 0.53397 0.04589 0.25778 0.0
C307 C 0.55633 0.03047 0.21548 0.0
C308 C 0.56343 0.09371 0.27322 0.0
C309 C 0.51851 0.0182 0.31229 0.0
C310 C 0.47543 0.00383 0.32181 0.0
C311 C 0.45363 0.9788 0.36975 0.0
C312 C 0.47508 0.96405 0.40554 0.0
C313 C 0.51592 0.97038 0.38925 0.0
C314 C 0.53949 1.00118 0.34554 0.0
H315 H 0.38453 0.40702 0.38411 0.0
H316 H 0.45508 0.52479 0.28292 0.0
H317 H 0.51074 0.55539 0.35943 0.0
H318 H 0.40404 0.4534 0.52401 0.0
H319 H 0.41068 0.41117 0.5567 0.0
H320 H 0.37632 0.39953 0.49484 0.0
H321 H 0.4195 0.37095 0.4389 0.0
H322 H 0.45262 0.3807 0.50143 0.0
H323 H 0.47716 0.40442 0.43308 0.0
H324 H 0.56135 0.56929 0.44403 0.0
H325 H 0.60483 0.5617 0.52085 0.0
H326 H 0.49653 0.43827 0.5702 0.0
C327 C 0.41143 0.43948 0.37795 0.0
C328 C 0.41516 0.46381 0.32795 0.0
C329 C 0.45157 0.50561 0.32103 0.0
C330 C 0.48302 0.52337 0.3645 0.0
C331 C 0.47743 0.49877 0.41423 0.0
C332 C 0.44275 0.45746 0.42046 0.0
C333 C 0.44531 0.4359 0.47524 0.0
C334 C 0.40679 0.42435 0.51505 0.0
C335 C 0.44889 0.39566 0.46134 0.0
C336 C 0.48672 0.47176 0.49994 0.0
C337 C 0.50505 0.50779 0.46412 0.0
C338 C 0.5466 0.54209 0.47357 0.0
C339 C 0.57078 0.53816 0.51841 0.0
C340 C 0.55299 0.50082 0.5539 0.0
C341 C 0.50977 0.4684 0.54619 0.0
H342 H 0.03903 0.49279 0.74687 0.0
H343 H 0.04456 0.60917 0.68253 0.0
H344 H 0.99705 0.56789 0.60139 0.0
H345 H 0.06118 0.46771 0.62189 0.0
H346 H 0.02996 0.40966 0.62824 0.0
H347 H 0.04894 0.44205 0.69187 0.0
H348 H 0.9715 0.4088 0.73241 0.0
H349 H 0.95213 0.37425 0.67033 0.0
H350 H 0.92969 0.40796 0.68826 0.0
H351 H 0.96524 0.51746 0.51427 0.0
H352 H 0.94496 0.46177 0.43855 0.0
H353 H 0.96893 0.38267 0.55879 0.0
C354 C 0.02742 0.50873 0.71809 0.0
C355 C 0.04451 0.55371 0.72129 0.0
C356 C 0.03066 0.57438 0.68159 0.0
C357 C 0.00431 0.55122 0.63475 0.0
C358 C 0.99235 0.50767 0.62883 0.0
C359 C 0.00284 0.48649 0.67043 0.0
C360 C 0.99428 0.44284 0.64994 0.0
C361 C 0.03606 0.44049 0.64787 0.0
C362 C 0.95982 0.4063 0.68745 0.0
C363 C 0.97785 0.44272 0.59011 0.0
C364 C 0.97652 0.47999 0.57835 0.0
C365 C 0.96539 0.48782 0.52364 0.0
C366 C 0.95446 0.4563 0.48065 0.0
C367 C 0.9553 0.41776 0.49256 0.0
C368 C 0.96743 0.41144 0.54807 0.0
H369 H 0.58486 0.99699 0.68635 0.0
H370 H 0.45668 0.91426 0.61852 0.0
H371 H 0.42635 0.93844 0.69699 0.0
H372 H 0.55966 0.97696 0.83348 0.0
H373 H 0.59671 0.03186 0.85449 0.0
H374 H 0.60749 0.00989 0.79132 0.0
H375 H 0.6123 0.0724 0.72825 0.0
H376 H 0.60327 0.09545 0.79159 0.0
H377 H 0.56873 0.08379 0.7299 0.0
H378 H 0.41253 0.97763 0.78233 0.0
H379 H 0.41828 0.0292 0.85823 0.0
H380 H 0.55401 0.07274 0.87587 0.0
C381 C 0.55032 0.98394 0.68763 0.0
C382 C 0.52305 0.95391 0.6465 0.0
C383 C 0.47814 0.93794 0.64928 0.0
C384 C 0.4607 0.951 0.69411 0.0
C385 C 0.48869 0.9795 0.73556 0.0
C386 C 0.53263 0.99576 0.73204 0.0
C387 C 0.5567 0.02637 0.78017 0.0
C388 C 0.58157 0.01025 0.81704 0.0
C389 C 0.58699 0.07219 0.75606 0.0
C390 C 0.51948 0.02432 0.81279 0.0
C391 C 0.48039 0.99809 0.7862 0.0
C392 C 0.44279 0.99734 0.80426 0.0
C393 C 0.44606 0.02614 0.84796 0.0
C394 C 0.48637 0.05396 0.87357 0.0
C395 C 0.52253 0.05068 0.85819 0.0
H396 H 0.48441 0.56124 0.04701 0.0
H397 H 0.3937 0.42451 0.02968 0.0
H398 H 0.44289 0.41879 0.95932 0.0
H399 H 0.49156 0.573 0.90108 0.0
H400 H 0.54588 0.618 0.89986 0.0
H401 H 0.5121 0.6091 0.96153 0.0
H402 H 0.56796 0.60589 0.02928 0.0
H403 H 0.60288 0.61681 0.96823 0.0
H404 H 0.58801 0.56986 0.01288 0.0
H405 H 0.49726 0.43277 0.87679 0.0
H406 H 0.55296 0.46307 0.79933 0.0
H407 H 0.5975 0.59207 0.86418 0.0
C408 C 0.47598 0.52958 0.03074 0.0
C409 C 0.43595 0.49313 0.04431 0.0
C410 C 0.42485 0.45253 0.02067 0.0
C411 C 0.45234 0.44928 0.98011 0.0
C412 C 0.48967 0.48718 0.96304 0.0
C413 C 0.50126 0.52657 0.98805 0.0
C414 C 0.53682 0.56398 0.95533 0.0
C415 C 0.52061 0.59268 0.92788 0.0
C416 C 0.57627 0.59065 -0.00626 0.0
C417 C 0.54554 0.53967 0.90982 0.0
C418 C 0.51802 0.49549 0.91399 0.0
C419 C 0.51922 0.46725 0.87368 0.0
C420 C 0.55035 0.48469 0.82942 0.0
C421 C 0.57926 0.52981 0.82615 0.0
C422 C 0.57604 0.55737 0.8662 0.0
H423 H 0.06586 0.62016 0.06418 0.0
H424 H 0.02166 0.53263 0.91911 0.0
H425 H 0.99544 0.47032 0.98645 0.0
H426 H 0.09871 0.55448 0.15375 0.0
H427 H 0.08231 0.56867 0.21955 0.0
H428 H 0.10207 0.60633 0.15981 0.0
H429 H 0.03194 0.61069 0.15945 0.0
H430 H 0.01309 0.57468 0.22032 0.0
H431 H 0.98062 0.56137 0.15613 0.0
H432 H 0.97039 0.41777 0.07016 0.0
H433 H 0.93339 0.38022 0.15966 0.0
H434 H 0.99224 0.50212 0.24925 0.0
C435 C 0.0509 0.58788 0.0465 0.0
C436 C 0.04596 0.58117 0.98646 0.0
C437 C 0.02625 0.53847 0.965 0.0
C438 C 0.01162 0.50297 0.0029 0.0
C439 C 0.01787 0.51082 0.06197 0.0
C440 C 0.03665 0.55227 0.08355 0.0
C441 C 0.03647 0.55208 0.14873 0.0
C442 C 0.08263 0.57156 0.17184 0.0
C443 C 0.01415 0.57606 0.1725 0.0
C444 C 0.01098 0.50387 0.16069 0.0
C445 C 0.00264 0.4806 0.11022 0.0
C446 C 0.97732 0.43565 0.10994 0.0
C447 C 0.9571 0.41438 0.16145 0.0
C448 C 0.96041 0.43831 0.2114 0.0
C449 C 0.99032 0.48304 0.21213 0.0
H450 H 0.50954 0.27678 0.94807 0.0
H451 H 0.46573 0.17787 0.81722 0.0
H452 H 0.50484 0.2339 0.74336 0.0
H453 H 0.50735 0.36395 0.84857 0.0
H454 H 0.55399 0.40555 0.88514 0.0
H455 H 0.5152 0.35813 0.92414 0.0
H456 H 0.57828 0.34675 0.9556 0.0
H457 H 0.61625 0.39218 0.91285 0.0
H458 H 0.61001 0.3395 0.90137 0.0
H459 H 0.56608 0.29455 0.69398 0.0
H460 H 0.6192 0.36407 0.65271 0.0
H461 H 0.61495 0.42933 0.80804 0.0
C462 C 0.50555 0.26741 0.90321 0.0
C463 C 0.4843 0.22313 0.88795 0.0
C464 C 0.48092 0.2116 0.82936 0.0
C465 C 0.50391 0.24317 0.78738 0.0
C466 C 0.52832 0.28608 0.80472 0.0
C467 C 0.52714 0.29884 0.8603 0.0
C468 C 0.55732 0.34735 0.86693 0.0
C469 C 0.53192 0.37008 0.88205 0.0
C470 C 0.59253 0.35697 0.91187 0.0
C471 C 0.57641 0.35938 0.80669 0.0
C472 C 0.56032 0.32291 0.77277 0.0
C473 C 0.57699 0.32379 0.71866 0.0
C474 C 0.6077 0.36366 0.69598 0.0
C475 C 0.61985 0.40274 0.72584 0.0
C476 C 0.60567 0.40035 0.78341 0.0
H477 H 0.24183 0.61159 0.87328 0.0
H478 H 0.15247 0.61757 -0.00716 0.0
H479 H 0.16525 0.57181 0.06219 0.0
H480 H 0.20022 0.50254 0.89006 0.0
H481 H 0.25049 0.50326 0.88123 0.0
H482 H 0.24287 0.54443 0.84743 0.0
H483 H 0.31 0.60564 0.8985 0.0
H484 H 0.31973 0.56483 0.92864 0.0
H485 H 0.31547 0.60261 0.97536 0.0
H486 H 0.18712 0.52156 0.11548 0.0
H487 H 0.2232 0.48242 0.1513 0.0
H488 H 0.28299 0.49725 0.98488 0.0
C489 C 0.22647 0.60495 0.91523 0.0
C490 C 0.19672 0.6185 0.92826 0.0
C491 C 0.17629 0.6084 0.98281 0.0
C492 C 0.18264 0.5816 0.02174 0.0
C493 C 0.20881 0.56494 0.00453 0.0
C494 C 0.23076 0.57688 0.9527 0.0
C495 C 0.25369 0.55208 0.94073 0.0
C496 C 0.23572 0.52392 0.88666 0.0
C497 C 0.30261 0.58312 0.93557 0.0
C498 C 0.24207 0.52452 -0.00554 0.0
C499 C 0.21643 0.53241 0.03119 0.0
C500 C 0.20631 0.51443 0.08648 0.0
C501 C 0.22593 0.49107 0.10607 0.0
C502 C 0.25455 0.48547 0.07003 0.0
C503 C 0.25966 0.49934 0.01227 0.0
H504 H 0.6321 0.21491 0.02909 0.0
H505 H 0.53929 0.17557 0.16863 0.0
H506 H 0.59958 0.19901 0.23904 0.0
H507 H 0.68451 0.1635 0.09492 0.0
H508 H 0.73606 0.20101 0.06378 0.0
H509 H 0.68725 0.18857 0.02621 0.0
H510 H 0.70967 0.26986 0.02187 0.0
H511 H 0.75932 0.28254 0.05652 0.0
H512 H 0.72524 0.30097 0.08729 0.0
H513 H 0.67254 0.22386 0.29195 0.0
H514 H 0.74907 0.25781 0.32084 0.0
H515 H 0.78687 0.26623 0.14238 0.0
C516 C 0.62401 0.21161 0.07453 0.0
C517 C 0.58092 0.19315 0.09354 0.0
C518 C 0.57214 0.19001 0.15325 0.0
C519 C 0.60606 0.20238 0.19322 0.0
C520 C 0.64757 0.21594 0.17208 0.0
C521 C 0.65622 0.22055 0.11383 0.0
C522 C 0.70167 0.23168 0.10008 0.0
C523 C 0.70238 0.19396 0.06942 0.0
C524 C 0.72536 0.27379 0.06444 0.0
C525 C 0.71911 0.23668 0.16006 0.0
C526 C 0.68744 0.22641 0.20137 0.0
C527 C 0.69719 0.23118 0.25991 0.0
C528 C 0.74063 0.24966 0.276 0.0
C529 C 0.77335 0.26357 0.23352 0.0
C530 C 0.76217 0.25458 0.17541 0.0
H531 H 0.50923 0.79545 0.28772 0.0
H532 H 0.54272 0.76534 0.45313 0.0
H533 H 0.50296 0.68716 0.4294 0.0
H534 H 0.4049 0.72029 0.30297 0.0
H535 H 0.39401 0.70694 0.2278 0.0
H536 H 0.43622 0.75978 0.24837 0.0
H537 H 0.49321 0.75115 0.19028 0.0
H538 H 0.45056 0.69967 0.16594 0.0
H539 H 0.49724 0.70322 0.20049 0.0
H540 H 0.44984 0.60974 0.38754 0.0
H541 H 0.39939 0.54621 0.32898 0.0
H542 H 0.38886 0.63199 0.20615 0.0
C543 C 0.51048 0.77264 0.31762 0.0
C544 C 0.52827 0.78622 0.37295 0.0
C545 C 0.52876 0.75546 0.41108 0.0
C546 C 0.50557 0.71093 0.39805 0.0
C547 C 0.4822 0.69823 0.34664 0.0
C548 C 0.48512 0.72861 0.30686 0.0
C549 C 0.45228 0.70835 0.25953 0.0
C550 C 0.41998 0.72485 0.25974 0.0
C551 C 0.47465 0.71601 0.20058 0.0
C552 C 0.43075 0.66157 0.27782 0.0
C553 C 0.44854 0.65573 0.32754 0.0
C554 C 0.43551 0.61422 0.34897 0.0
C555 C 0.40613 0.5782 0.31623 0.0
C556 C 0.38989 0.58432 0.2636 0.0
C557 C 0.4 0.62638 0.247 0.0
H558 H 0.78996 0.42903 0.35603 0.0
H559 H 0.82479 0.36863 0.49273 0.0
H560 H 0.80719 0.40904 0.56479 0.0
H561 H 0.84601 0.53239 0.41769 0.0
H562 H 0.80903 0.54831 0.38988 0.0
H563 H 0.81782 0.50986 0.35123 0.0
H564 H 0.73603 0.45329 0.35397 0.0
H565 H 0.7268 0.4923 0.38973 0.0
H566 H 0.7079 0.43976 0.422 0.0
H567 H 0.78522 0.4591 0.61988 0.0
H568 H 0.75454 0.50426 0.65027 0.0
H569 H 0.75084 0.53969 0.47265 0.0
C570 C 0.79381 0.42351 0.40103 0.0
C571 C 0.80928 0.39585 0.41858 0.0
C572 C 0.81297 0.38965 0.4782 0.0
C573 C 0.80363 0.41293 0.5192 0.0
C574 C 0.79212 0.4429 0.49928 0.0
C575 C 0.7873 0.44786 0.44132 0.0
C576 C 0.77777 0.48357 0.42871 0.0
C577 C 0.81486 0.52071 0.39487 0.0
C578 C 0.73455 0.46617 0.39681 0.0
C579 C 0.7757 0.49718 0.48905 0.0
C580 C 0.78417 0.47373 0.52962 0.0
C581 C 0.77956 0.47818 0.58838 0.0
C582 C 0.76301 0.50474 0.60538 0.0
C583 C 0.75113 0.52604 0.56352 0.0
C584 C 0.76083 0.52476 0.50536 0.0
H585 H 0.42528 0.81943 0.62171 0.0
H586 H 0.35993 0.7747 0.45746 0.0
H587 H 0.29094 0.75367 0.50344 0.0
H588 H 0.33452 0.72446 0.70037 0.0
H589 H 0.34212 0.7555 0.76463 0.0
H590 H 0.3873 0.7683 0.71843 0.0
H591 H 0.40247 0.84712 0.71176 0.0
H592 H 0.3559 0.83387 0.75544 0.0
H593 H 0.36124 0.85739 0.68485 0.0
H594 H 0.23109 0.74739 0.56108 0.0
H595 H 0.17511 0.72194 0.63617 0.0
H596 H 0.27279 0.75719 0.76745 0.0
C597 C 0.39628 0.80399 0.59595 0.0
C598 C 0.39842 0.8003 0.53537 0.0
C599 C 0.35948 0.77923 0.50352 0.0
C600 C 0.32001 0.76758 0.52903 0.0
C601 C 0.31928 0.77519 0.58734 0.0
C602 C 0.35555 0.79001 0.62145 0.0
C603 C 0.34345 0.78908 0.68455 0.0
C604 C 0.35236 0.75745 0.71903 0.0
C605 C 0.3672 0.83459 0.71067 0.0
C606 C 0.29522 0.77249 0.67952 0.0
C607 C 0.28271 0.76653 0.62259 0.0
C608 C 0.24018 0.75139 0.60605 0.0
C609 C 0.20864 0.73795 0.64899 0.0
C610 C 0.21966 0.73831 0.70742 0.0
C611 C 0.26374 0.75798 0.72311 0.0
loop_
_geom_bond_atom_site_label_1
_geom_bond_atom_site_label_2
_geom_bond_distance
_geom_bond_site_symmetry_2
_ccdc_geom_bond_type
O0 Mn1 2.163 1_556 S
O0 C14 1.244 . S
Mn1 O0 2.163 1_554 S
Mn1 O4 2.160 . S
Mn1 O5 2.221 . S
Mn1 O7 2.163 1_554 S
Mn1 O9 2.160 . S
Mn1 O19 2.221 1_554 S
O2 Mn3 2.087 . S
O2 C14 1.256 . S
Mn3 O2 2.087 . S
Mn3 O10 2.089 . S
Mn3 O19 2.290 . S
Mn3 O20 2.251 . S
O4 Mn1 2.160 . S
O4 C15 1.239 . S
O5 Mn1 2.221 . S
O5 Mn6 2.290 . S
O5 C16 1.278 . S
Mn6 O5 2.290 . S
Mn6 O8 2.089 . S
Mn6 O11 2.251 . S
Mn6 O12 2.087 . S
O7 Mn1 2.163 1_556 S
O7 C17 1.244 . S
O8 Mn6 2.089 . S
O8 C15 1.256 . S
O9 Mn1 2.160 . S
O9 C18 1.239 . S
O10 Mn3 2.089 . S
O10 C18 1.256 1_556 S
O11 Mn6 2.251 . S
O11 C16 1.241 . S
O12 Mn6 2.087 . S
O12 C17 1.256 1_554 S
C13 O19 1.278 . S
C13 O20 1.241 . S
C14 O0 1.244 . S
C14 O2 1.256 . S
C15 O4 1.239 . S
C15 O8 1.256 . S
C16 O5 1.278 . S
C16 O11 1.241 . S
C17 O7 1.244 . S
C17 O12 1.256 1_556 S
C18 O9 1.239 . S
C18 O10 1.256 1_554 S
O19 Mn1 2.221 1_556 S
O19 Mn3 2.290 . S
O19 C13 1.278 . S
O20 Mn3 2.251 . S
O20 C13 1.241 . S
O21 Mn22 2.163 . S
O21 C35 1.244 . S
Mn22 O21 2.163 . S
Mn22 O25 2.160 . S
Mn22 O26 2.221 . S
Mn22 O28 2.163 . S
Mn22 O30 2.160 . S
Mn22 O40 2.221 . S
O23 Mn24 2.087 . S
O23 C35 1.256 . S
Mn24 O23 2.087 . S
Mn24 O31 2.089 . S
Mn24 O40 2.290 . S
Mn24 O41 2.251 . S
O25 Mn22 2.160 . S
O25 C36 1.239 . S
O26 Mn22 2.221 . S
O26 Mn27 2.290 . S
O26 C37 1.278 . S
Mn27 O26 2.290 . S
Mn27 O29 2.089 . S
Mn27 O32 2.251 . S
Mn27 O33 2.087 . S
O28 Mn22 2.163 . S
O28 C38 1.244 . S
O29 Mn27 2.089 . S
O29 C36 1.256 . S
O30 Mn22 2.160 . S
O30 C39 1.239 . S
O31 Mn24 2.089 . S
O31 C39 1.256 . S
O32 Mn27 2.251 . S
O32 C37 1.241 . S
O33 Mn27 2.087 . S
O33 C38 1.256 . S
C34 O40 1.278 . S
C34 O41 1.241 . S
C35 O21 1.244 . S
C35 O23 1.256 . S
C36 O25 1.239 . S
C36 O29 1.256 . S
C37 O26 1.278 . S
C37 O32 1.241 . S
C38 O28 1.244 . S
C38 O33 1.256 . S
C39 O30 1.239 . S
C39 O31 1.256 . S
O40 Mn22 2.221 . S
O40 Mn24 2.290 . S
O40 C34 1.278 . S
O41 Mn24 2.251 . S
O41 C34 1.241 . S
O42 Mn43 2.163 . S
O42 C56 1.244 . S
Mn43 O42 2.163 . S
Mn43 O46 2.160 . S
Mn43 O47 2.221 . S
Mn43 O49 2.163 . S
Mn43 O51 2.160 . S
Mn43 O61 2.221 . S
O44 Mn45 2.087 . S
O44 C56 1.256 . S
Mn45 O44 2.087 . S
Mn45 O52 2.089 . S
Mn45 O61 2.290 . S
Mn45 O62 2.251 . S
O46 Mn43 2.160 . S
O46 C57 1.239 . S
O47 Mn43 2.221 . S
O47 Mn48 2.290 . S
O47 C58 1.278 . S
Mn48 O47 2.290 . S
Mn48 O50 2.089 . S
Mn48 O53 2.251 . S
Mn48 O54 2.087 . S
O49 Mn43 2.163 . S
O49 C59 1.244 . S
O50 Mn48 2.089 . S
O50 C57 1.256 . S
O51 Mn43 2.160 . S
O51 C60 1.239 . S
O52 Mn45 2.089 . S
O52 C60 1.256 . S
O53 Mn48 2.251 . S
O53 C58 1.241 . S
O54 Mn48 2.087 . S
O54 C59 1.256 . S
C55 O61 1.278 . S
C55 O62 1.241 . S
C56 O42 1.244 . S
C56 O44 1.256 . S
C57 O46 1.239 . S
C57 O50 1.256 . S
C58 O47 1.278 . S
C58 O53 1.241 . S
C59 O49 1.244 . S
C59 O54 1.256 . S
C60 O51 1.239 . S
C60 O52 1.256 . S
O61 Mn43 2.221 . S
O61 Mn45 2.290 . S
O61 C55 1.278 . S
O62 Mn45 2.251 . S
O62 C55 1.241 . S
O63 Mn64 2.163 . S
O63 C77 1.244 . S
Mn64 O63 2.163 . S
Mn64 O67 2.160 . S
Mn64 O68 2.221 . S
Mn64 O70 2.163 . S
Mn64 O72 2.160 . S
Mn64 O82 2.221 . S
O65 Mn66 2.087 . S
O65 C77 1.256 . S
Mn66 O65 2.087 . S
Mn66 O73 2.089 . S
Mn66 O82 2.290 . S
Mn66 O83 2.251 . S
O67 Mn64 2.160 . S
O67 C78 1.239 . S
O68 Mn64 2.221 . S
O68 Mn69 2.290 . S
O68 C79 1.278 . S
Mn69 O68 2.290 . S
Mn69 O71 2.089 . S
Mn69 O74 2.251 . S
Mn69 O75 2.087 . S
O70 Mn64 2.163 . S
O70 C80 1.244 . S
O71 Mn69 2.089 . S
O71 C78 1.256 . S
O72 Mn64 2.160 . S
O72 C81 1.239 . S
O73 Mn66 2.089 . S
O73 C81 1.256 . S
O74 Mn69 2.251 . S
O74 C79 1.241 . S
O75 Mn69 2.087 . S
O75 C80 1.256 . S
C76 O82 1.278 . S
C76 O83 1.241 . S
C77 O63 1.244 . S
C77 O65 1.256 . S
C78 O67 1.239 . S
C78 O71 1.256 . S
C79 O68 1.278 . S
C79 O74 1.241 . S
C80 O70 1.244 . S
C80 O75 1.256 . S
C81 O72 1.239 . S
C81 O73 1.256 . S
O82 Mn64 2.221 . S
O82 Mn66 2.290 . S
O82 C76 1.278 . S
O83 Mn66 2.251 . S
O83 C76 1.241 . S
O84 Mn85 2.163 . S
O84 C98 1.244 . S
Mn85 O84 2.163 . S
Mn85 O88 2.160 . S
Mn85 O89 2.221 . S
Mn85 O91 2.163 . S
Mn85 O93 2.160 . S
Mn85 O103 2.221 . S
O86 Mn87 2.087 . S
O86 C98 1.256 . S
Mn87 O86 2.087 . S
Mn87 O94 2.089 . S
Mn87 O103 2.290 . S
Mn87 O104 2.251 . S
O88 Mn85 2.160 . S
O88 C99 1.239 . S
O89 Mn85 2.221 . S
O89 Mn90 2.290 . S
O89 C100 1.278 . S
Mn90 O89 2.290 . S
Mn90 O92 2.089 . S
Mn90 O95 2.251 . S
Mn90 O96 2.087 . S
O91 Mn85 2.163 . S
O91 C101 1.244 . S
O92 Mn90 2.089 . S
O92 C99 1.256 . S
O93 Mn85 2.160 . S
O93 C102 1.239 . S
O94 Mn87 2.089 . S
O94 C102 1.256 . S
O95 Mn90 2.251 . S
O95 C100 1.241 . S
O96 Mn90 2.087 . S
O96 C101 1.256 . S
C97 O103 1.278 . S
C97 O104 1.241 . S
C98 O84 1.244 . S
C98 O86 1.256 . S
C99 O88 1.239 . S
C99 O92 1.256 . S
C100 O89 1.278 . S
C100 O95 1.241 . S
C101 O91 1.244 . S
C101 O96 1.256 . S
C102 O93 1.239 . S
C102 O94 1.256 . S
O103 Mn85 2.221 . S
O103 Mn87 2.290 . S
O103 C97 1.278 . S
O104 Mn87 2.251 . S
O104 C97 1.241 . S
O105 Mn106 2.163 . S
O105 C119 1.244 . S
Mn106 O105 2.163 . S
Mn106 O109 2.160 . S
Mn106 O110 2.221 . S
Mn106 O112 2.163 . S
Mn106 O114 2.160 . S
Mn106 O124 2.221 . S
O107 Mn108 2.087 . S
O107 C119 1.256 . S
Mn108 O107 2.087 . S
Mn108 O115 2.089 . S
Mn108 O124 2.290 . S
Mn108 O125 2.251 . S
O109 Mn106 2.160 . S
O109 C120 1.239 . S
O110 Mn106 2.221 . S
O110 Mn111 2.290 . S
O110 C121 1.278 . S
Mn111 O110 2.290 . S
Mn111 O113 2.089 . S
Mn111 O116 2.251 . S
Mn111 O117 2.087 . S
O112 Mn106 2.163 . S
O112 C122 1.244 . S
O113 Mn111 2.089 . S
O113 C120 1.256 . S
O114 Mn106 2.160 . S
O114 C123 1.239 . S
O115 Mn108 2.089 . S
O115 C123 1.256 . S
O116 Mn111 2.251 . S
O116 C121 1.241 . S
O117 Mn111 2.087 . S
O117 C122 1.256 . S
C118 O124 1.278 . S
C118 O125 1.241 . S
C119 O105 1.244 . S
C119 O107 1.256 . S
C120 O109 1.239 . S
C120 O113 1.256 . S
C121 O110 1.278 . S
C121 O116 1.241 . S
C122 O112 1.244 . S
C122 O117 1.256 . S
C123 O114 1.239 . S
C123 O115 1.256 . S
O124 Mn106 2.221 . S
O124 Mn108 2.290 . S
O124 C118 1.278 . S
O125 Mn108 2.251 . S
O125 C118 1.241 . S
H126 C138 0.930 . S
H127 C140 0.930 . S
H128 C141 0.930 . S
H129 C145 0.959 . S
H130 C145 0.959 . S
H131 C145 0.961 . S
H132 C146 0.960 . S
H133 C146 0.961 . S
H134 C146 0.959 . S
H135 C149 0.929 . S
H136 C150 0.931 1_554 S
H137 C152 0.930 . S
C138 H126 0.930 . S
C138 C139 1.399 . S
C138 C143 1.399 . S
C139 C138 1.399 . S
C139 C140 1.376 1_556 S
C140 H127 0.930 . S
C140 C139 1.376 1_554 S
C140 C141 1.388 . S
C141 H128 0.930 . S
C141 C140 1.388 . S
C141 C142 1.390 1_554 S
C142 C141 1.390 1_556 S
C142 C143 1.394 . S
C142 C148 1.465 . S
C143 C138 1.399 . S
C143 C142 1.394 . S
C143 C144 1.516 . S
C144 C143 1.516 . S
C144 C145 1.502 . S
C144 C146 1.561 . S
C144 C147 1.526 . S
C145 H129 0.959 . S
C145 H130 0.959 . S
C145 H131 0.961 . S
C145 C144 1.502 . S
C146 H132 0.960 . S
C146 H133 0.961 . S
C146 H134 0.959 . S
C146 C144 1.561 . S
C147 C144 1.526 . S
C147 C148 1.396 . S
C147 C152 1.390 . S
C148 C142 1.465 . S
C148 C147 1.396 . S
C148 C149 1.399 1_556 S
C149 H135 0.929 . S
C149 C148 1.399 1_554 S
C149 C150 1.385 1_554 S
C150 H136 0.931 1_556 S
C150 C149 1.385 1_556 S
C150 C151 1.389 . S
C151 C150 1.389 . S
C151 C152 1.387 . S
C152 H137 0.930 . S
C152 C147 1.390 . S
C152 C151 1.387 . S
H153 C165 0.930 . S
H154 C167 0.930 . S
H155 C168 0.930 . S
H156 C172 0.959 . S
H157 C172 0.959 1_556 S
H158 C172 0.961 1_556 S
H159 C173 0.960 . S
H160 C173 0.961 . S
H161 C173 0.959 1_554 S
H162 C176 0.929 . S
H163 C177 0.931 . S
H164 C179 0.930 . S
C165 H153 0.930 . S
C165 C166 1.399 . S
C165 C170 1.399 . S
C166 C165 1.399 . S
C166 C167 1.376 . S
C167 H154 0.930 . S
C167 C166 1.376 . S
C167 C168 1.388 . S
C168 H155 0.930 . S
C168 C167 1.388 . S
C168 C169 1.390 . S
C169 C168 1.390 . S
C169 C170 1.394 . S
C169 C175 1.465 . S
C170 C165 1.399 . S
C170 C169 1.394 . S
C170 C171 1.516 . S
C171 C170 1.516 . S
C171 C172 1.502 . S
C171 C173 1.561 1_554 S
C171 C174 1.526 . S
C172 H156 0.959 . S
C172 H157 0.959 1_554 S
C172 H158 0.961 1_554 S
C172 C171 1.502 . S
C173 H159 0.960 . S
C173 H160 0.961 . S
C173 H161 0.959 1_556 S
C173 C171 1.561 1_556 S
C174 C171 1.526 . S
C174 C175 1.396 . S
C174 C179 1.390 . S
C175 C169 1.465 . S
C175 C174 1.396 . S
C175 C176 1.399 . S
C176 H162 0.929 . S
C176 C175 1.399 . S
C176 C177 1.385 . S
C177 H163 0.931 . S
C177 C176 1.385 . S
C177 C178 1.389 . S
C178 C177 1.389 . S
C178 C179 1.387 . S
C179 H164 0.930 . S
C179 C174 1.390 . S
C179 C178 1.387 . S
H180 C192 0.930 . S
H181 C194 0.930 1_655 S
H182 C195 0.930 . S
H183 C199 0.959 . S
H184 C199 0.959 . S
H185 C199 0.961 . S
H186 C200 0.960 . S
H187 C200 0.961 . S
H188 C200 0.959 . S
H189 C203 0.929 . S
H190 C204 0.931 . S
H191 C206 0.930 . S
C192 H180 0.930 . S
C192 C193 1.396 1_455 S
C192 C197 1.399 . S
C193 C192 1.396 1_655 S
C193 C194 1.374 1_655 S
C194 H181 0.930 1_455 S
C194 C193 1.374 1_455 S
C194 C195 1.388 . S
C195 H182 0.930 . S
C195 C194 1.388 . S
C195 C196 1.390 . S
C196 C195 1.390 . S
C196 C197 1.394 . S
C196 C202 1.465 . S
C197 C192 1.399 . S
C197 C196 1.394 . S
C197 C198 1.516 . S
C198 C197 1.516 . S
C198 C199 1.502 . S
C198 C200 1.561 . S
C198 C201 1.526 . S
C199 H183 0.959 . S
C199 H184 0.959 . S
C199 H185 0.961 . S
C199 C198 1.502 . S
C200 H186 0.960 . S
C200 H187 0.961 . S
C200 H188 0.959 . S
C200 C198 1.561 . S
C201 C198 1.526 . S
C201 C202 1.396 . S
C201 C206 1.390 . S
C202 C196 1.465 . S
C202 C201 1.396 . S
C202 C203 1.399 . S
C203 H189 0.929 . S
C203 C202 1.399 . S
C203 C204 1.385 . S
C204 H190 0.931 . S
C204 C203 1.385 . S
C204 C205 1.389 . S
C205 C204 1.389 . S
C205 C206 1.387 . S
C206 H191 0.930 . S
C206 C201 1.390 . S
C206 C205 1.387 . S
H207 C219 0.930 . S
H208 C221 0.930 . S
H209 C222 0.930 . S
H210 C226 0.959 . S
H211 C226 0.959 . S
H212 C226 0.961 . S
H213 C227 0.960 . S
H214 C227 0.961 . S
H215 C227 0.959 . S
H216 C230 0.929 . S
H217 C231 0.931 1_565 S
H218 C233 0.930 . S
C219 H207 0.930 . S
C219 C220 1.399 . S
C219 C224 1.399 . S
C220 C219 1.399 . S
C220 C221 1.376 . S
C221 H208 0.930 . S
C221 C220 1.376 . S
C221 C222 1.388 . S
C222 H209 0.930 . S
C222 C221 1.388 . S
C222 C223 1.390 . S
C223 C222 1.390 . S
C223 C224 1.394 . S
C223 C229 1.465 . S
C224 C219 1.399 . S
C224 C223 1.394 . S
C224 C225 1.516 . S
C225 C224 1.516 . S
C225 C226 1.502 . S
C225 C227 1.561 . S
C225 C228 1.526 . S
C226 H210 0.959 . S
C226 H211 0.959 . S
C226 H212 0.961 . S
C226 C225 1.502 . S
C227 H213 0.960 . S
C227 H214 0.961 . S
C227 H215 0.959 . S
C227 C225 1.561 . S
C228 C225 1.526 . S
C228 C229 1.396 . S
C228 C233 1.390 . S
C229 C223 1.465 . S
C229 C228 1.396 . S
C229 C230 1.399 . S
C230 H216 0.929 . S
C230 C229 1.399 . S
C230 C231 1.385 . S
C231 H217 0.931 1_545 S
C231 C230 1.385 . S
C231 C232 1.390 . S
C232 C231 1.390 . S
C232 C233 1.400 . S
C233 H218 0.930 . S
C233 C228 1.390 . S
C233 C232 1.400 . S
H234 C246 0.930 . S
H235 C248 0.930 . S
H236 C249 0.930 . S
H237 C253 0.959 . S
H238 C253 0.959 . S
H239 C253 0.961 . S
H240 C254 0.960 . S
H241 C254 0.961 . S
H242 C254 0.959 . S
H243 C257 0.929 . S
H244 C258 0.931 . S
H245 C260 0.930 . S
C246 H234 0.930 . S
C246 C247 1.399 . S
C246 C251 1.399 . S
C247 C246 1.399 . S
C247 C248 1.376 . S
C248 H235 0.930 . S
C248 C247 1.376 . S
C248 C249 1.388 . S
C249 H236 0.930 . S
C249 C248 1.388 . S
C249 C250 1.390 . S
C250 C249 1.390 . S
C250 C251 1.394 . S
C250 C256 1.465 . S
C251 C246 1.399 . S
C251 C250 1.394 . S
C251 C252 1.516 . S
C252 C251 1.516 . S
C252 C253 1.502 . S
C252 C254 1.561 . S
C252 C255 1.526 . S
C253 H237 0.959 . S
C253 H238 0.959 . S
C253 H239 0.961 . S
C253 C252 1.502 . S
C254 H240 0.960 . S
C254 H241 0.961 . S
C254 H242 0.959 . S
C254 C252 1.561 . S
C255 C252 1.526 . S
C255 C256 1.396 . S
C255 C260 1.390 . S
C256 C250 1.465 . S
C256 C255 1.396 . S
C256 C257 1.399 . S
C257 H243 0.929 . S
C257 C256 1.399 . S
C257 C258 1.385 . S
C258 H244 0.931 . S
C258 C257 1.385 . S
C258 C259 1.389 . S
C259 C258 1.389 . S
C259 C260 1.387 . S
C260 H245 0.930 . S
C260 C255 1.390 . S
C260 C259 1.387 . S
H261 C273 0.930 . S
H262 C275 0.930 1_455 S
H263 C276 0.930 . S
H264 C280 0.959 . S
H265 C280 0.959 . S
H266 C280 0.961 . S
H267 C281 0.960 . S
H268 C281 0.961 . S
H269 C281 0.959 . S
H270 C284 0.929 . S
H271 C285 0.931 . S
H272 C287 0.930 . S
C273 H261 0.930 . S
C273 C274 1.399 . S
C273 C278 1.399 . S
C274 C273 1.399 . S
C274 C275 1.376 . S
C275 H262 0.930 1_655 S
C275 C274 1.376 . S
C275 C276 1.388 . S
C276 H263 0.930 . S
C276 C275 1.388 . S
C276 C277 1.390 . S
C277 C276 1.390 . S
C277 C278 1.394 . S
C277 C283 1.465 . S
C278 C273 1.399 . S
C278 C277 1.394 . S
C278 C279 1.516 . S
C279 C278 1.516 . S
C279 C280 1.502 . S
C279 C281 1.561 . S
C279 C282 1.526 . S
C280 H264 0.959 . S
C280 H265 0.959 . S
C280 H266 0.961 . S
C280 C279 1.502 . S
C281 H267 0.960 . S
C281 H268 0.961 . S
C281 H269 0.959 . S
C281 C279 1.561 . S
C282 C279 1.526 . S
C282 C283 1.396 . S
C282 C287 1.390 . S
C283 C277 1.465 . S
C283 C282 1.396 . S
C283 C284 1.399 . S
C284 H270 0.929 . S
C284 C283 1.399 . S
C284 C285 1.385 . S
C285 H271 0.931 . S
C285 C284 1.385 . S
C285 C286 1.389 . S
C286 C285 1.389 . S
C286 C287 1.387 . S
C287 H272 0.930 . S
C287 C282 1.390 . S
C287 C286 1.387 . S
H288 C300 0.930 . S
H289 C302 0.930 . S
H290 C303 0.930 . S
H291 C307 0.959 . S
H292 C307 0.959 . S
H293 C307 0.961 . S
H294 C308 0.960 . S
H295 C308 0.961 . S
H296 C308 0.959 . S
H297 C311 0.929 . S
H298 C312 0.931 . S
H299 C314 0.930 1_545 S
C300 H288 0.930 . S
C300 C301 1.399 . S
C300 C305 1.399 . S
C301 C300 1.399 . S
C301 C302 1.376 1_545 S
C302 H289 0.930 . S
C302 C301 1.376 1_565 S
C302 C303 1.388 . S
C303 H290 0.930 . S
C303 C302 1.388 . S
C303 C304 1.390 . S
C304 C303 1.390 . S
C304 C305 1.394 1_565 S
C304 C310 1.465 . S
C305 C300 1.399 . S
C305 C304 1.394 1_545 S
C305 C306 1.516 . S
C306 C305 1.516 . S
C306 C307 1.502 . S
C306 C308 1.561 . S
C306 C309 1.526 1_545 S
C307 H291 0.959 . S
C307 H292 0.959 . S
C307 H293 0.961 . S
C307 C306 1.502 . S
C308 H294 0.960 . S
C308 H295 0.961 . S
C308 H296 0.959 . S
C308 C306 1.561 . S
C309 C306 1.526 1_565 S
C309 C310 1.396 . S
C309 C314 1.390 . S
C310 C304 1.465 . S
C310 C309 1.396 . S
C310 C311 1.399 . S
C311 H297 0.929 . S
C311 C310 1.399 . S
C311 C312 1.385 . S
C312 H298 0.931 . S
C312 C311 1.385 . S
C312 C313 1.389 . S
C313 C312 1.389 . S
C313 C314 1.387 . S
C314 H299 0.930 1_565 S
C314 C309 1.390 . S
C314 C313 1.387 . S
H315 C327 0.930 . S
H316 C329 0.930 . S
H317 C330 0.930 . S
H318 C334 0.959 . S
H319 C334 0.959 . S
H320 C334 0.961 . S
H321 C335 0.960 . S
H322 C335 0.961 . S
H323 C335 0.959 . S
H324 C338 0.929 . S
H325 C339 0.931 . S
H326 C341 0.930 . S
C327 H315 0.930 . S
C327 C328 1.399 . S
C327 C332 1.399 . S
C328 C327 1.399 . S
C328 C329 1.376 . S
C329 H316 0.930 . S
C329 C328 1.376 . S
C329 C330 1.388 . S
C330 H317 0.930 . S
C330 C329 1.388 . S
C330 C331 1.390 . S
C331 C330 1.390 . S
C331 C332 1.394 . S
C331 C337 1.465 . S
C332 C327 1.399 . S
C332 C331 1.394 . S
C332 C333 1.516 . S
C333 C332 1.516 . S
C333 C334 1.502 . S
C333 C335 1.561 . S
C333 C336 1.526 . S
C334 H318 0.959 . S
C334 H319 0.959 . S
C334 H320 0.961 . S
C334 C333 1.502 . S
C335 H321 0.960 . S
C335 H322 0.961 . S
C335 H323 0.959 . S
C335 C333 1.561 . S
C336 C333 1.526 . S
C336 C337 1.396 . S
C336 C341 1.390 . S
C337 C331 1.465 . S
C337 C336 1.396 . S
C337 C338 1.399 . S
C338 H324 0.929 . S
C338 C337 1.399 . S
C338 C339 1.385 . S
C339 H325 0.931 . S
C339 C338 1.385 . S
C339 C340 1.389 . S
C340 C339 1.389 . S
C340 C341 1.387 . S
C341 H326 0.930 . S
C341 C336 1.390 . S
C341 C340 1.387 . S
H342 C354 0.930 . S
H343 C356 0.930 . S
H344 C357 0.930 . S
H345 C361 0.959 . S
H346 C361 0.959 . S
H347 C361 0.961 . S
H348 C362 0.960 . S
H349 C362 0.961 . S
H350 C362 0.959 . S
H351 C365 0.929 . S
H352 C366 0.931 . S
H353 C368 0.930 . S
C354 H342 0.930 . S
C354 C355 1.399 . S
C354 C359 1.399 . S
C355 C354 1.399 . S
C355 C356 1.376 . S
C356 H343 0.930 . S
C356 C355 1.376 . S
C356 C357 1.388 . S
C357 H344 0.930 . S
C357 C356 1.388 . S
C357 C358 1.390 . S
C358 C357 1.390 . S
C358 C359 1.394 . S
C358 C364 1.465 1_455 S
C359 C354 1.399 . S
C359 C358 1.394 . S
C359 C360 1.516 . S
C360 C359 1.516 . S
C360 C361 1.502 . S
C360 C362 1.561 1_455 S
C360 C363 1.526 . S
C361 H345 0.959 . S
C361 H346 0.959 . S
C361 H347 0.961 . S
C361 C360 1.502 . S
C362 H348 0.960 . S
C362 H349 0.961 . S
C362 H350 0.959 . S
C362 C360 1.561 1_655 S
C363 C360 1.526 . S
C363 C364 1.396 1_455 S
C363 C368 1.390 1_455 S
C364 C358 1.465 1_655 S
C364 C363 1.396 1_655 S
C364 C365 1.399 . S
C365 H351 0.929 . S
C365 C364 1.399 . S
C365 C366 1.385 . S
C366 H352 0.931 . S
C366 C365 1.385 . S
C366 C367 1.389 . S
C367 C366 1.389 . S
C367 C368 1.387 . S
C368 H353 0.930 . S
C368 C363 1.390 1_655 S
C368 C367 1.387 . S
H369 C381 0.930 . S
H370 C383 0.930 . S
H371 C384 0.930 . S
H372 C388 0.959 . S
H373 C388 0.959 . S
H374 C388 0.961 . S
H375 C389 0.960 . S
H376 C389 0.961 . S
H377 C389 0.959 . S
H378 C392 0.929 . S
H379 C393 0.931 . S
H380 C395 0.930 . S
C381 H369 0.930 . S
C381 C382 1.399 1_545 S
C381 C386 1.399 . S
C382 C381 1.399 1_565 S
C382 C383 1.376 . S
C383 H370 0.930 . S
C383 C382 1.376 . S
C383 C384 1.388 . S
C384 H371 0.930 . S
C384 C383 1.388 . S
C384 C385 1.390 . S
C385 C384 1.390 . S
C385 C386 1.394 1_565 S
C385 C391 1.465 1_565 S
C386 C381 1.399 . S
C386 C385 1.394 1_545 S
C386 C387 1.516 . S
C387 C386 1.516 . S
C387 C388 1.502 . S
C387 C389 1.561 . S
C387 C390 1.526 . S
C388 H372 0.959 . S
C388 H373 0.959 . S
C388 H374 0.961 . S
C388 C387 1.502 . S
C389 H375 0.960 . S
C389 H376 0.961 . S
C389 H377 0.959 . S
C389 C387 1.561 . S
C390 C387 1.526 . S
C390 C391 1.396 . S
C390 C395 1.390 . S
C391 C385 1.465 1_545 S
C391 C390 1.396 . S
C391 C392 1.399 1_545 S
C392 H378 0.929 . S
C392 C391 1.399 1_565 S
C392 C393 1.385 1_565 S
C393 H379 0.931 . S
C393 C392 1.385 1_545 S
C393 C394 1.389 . S
C394 C393 1.389 . S
C394 C395 1.387 . S
C395 H380 0.930 . S
C395 C390 1.390 . S
C395 C394 1.387 . S
H396 C408 0.930 . S
H397 C410 0.930 . S
H398 C411 0.930 . S
H399 C415 0.959 . S
H400 C415 0.959 . S
H401 C415 0.961 . S
H402 C416 0.960 1_554 S
H403 C416 0.961 . S
H404 C416 0.959 . S
H405 C419 0.929 . S
H406 C420 0.931 . S
H407 C422 0.930 . S
C408 H396 0.930 . S
C408 C409 1.399 . S
C408 C413 1.399 1_554 S
C409 C408 1.399 . S
C409 C410 1.376 . S
C410 H397 0.930 . S
C410 C409 1.376 . S
C410 C411 1.388 . S
C411 H398 0.930 . S
C411 C410 1.388 . S
C411 C412 1.390 1_554 S
C412 C411 1.390 1_556 S
C412 C413 1.394 . S
C412 C418 1.465 . S
C413 C408 1.399 1_556 S
C413 C412 1.394 . S
C413 C414 1.516 . S
C414 C413 1.516 . S
C414 C415 1.502 . S
C414 C416 1.561 . S
C414 C417 1.526 . S
C415 H399 0.959 . S
C415 H400 0.959 . S
C415 H401 0.961 . S
C415 C414 1.502 . S
C416 H402 0.960 1_556 S
C416 H403 0.961 . S
C416 H404 0.959 . S
C416 C414 1.561 . S
C417 C414 1.526 . S
C417 C418 1.396 . S
C417 C422 1.390 . S
C418 C412 1.465 . S
C418 C417 1.396 . S
C418 C419 1.399 . S
C419 H405 0.929 . S
C419 C418 1.399 . S
C419 C420 1.385 . S
C420 H406 0.931 . S
C420 C419 1.385 . S
C420 C421 1.389 . S
C421 C420 1.389 . S
C421 C422 1.387 . S
C422 H407 0.930 . S
C422 C417 1.390 . S
C422 C421 1.387 . S
H423 C435 0.930 . S
H424 C437 0.930 . S
H425 C438 0.930 . S
H426 C442 0.959 . S
H427 C442 0.959 . S
H428 C442 0.961 . S
H429 C443 0.960 . S
H430 C443 0.961 . S
H431 C443 0.960 . S
H432 C446 0.929 . S
H433 C447 0.931 . S
H434 C449 0.930 1_455 S
C435 H423 0.930 . S
C435 C436 1.399 1_554 S
C435 C440 1.399 . S
C436 C435 1.399 1_556 S
C436 C437 1.376 1_455 S
C437 H424 0.930 . S
C437 C436 1.376 1_655 S
C437 C438 1.388 1_556 S
C438 H425 0.930 . S
C438 C437 1.388 1_554 S
C438 C439 1.390 . S
C439 C438 1.390 . S
C439 C440 1.394 1_655 S
C439 C445 1.465 . S
C440 C435 1.399 . S
C440 C439 1.394 1_455 S
C440 C441 1.516 . S
C441 C440 1.516 . S
C441 C442 1.502 . S
C441 C443 1.561 . S
C441 C444 1.526 1_455 S
C442 H426 0.959 . S
C442 H427 0.959 . S
C442 H428 0.961 . S
C442 C441 1.502 . S
C443 H429 0.960 . S
C443 H430 0.961 . S
C443 H431 0.960 . S
C443 C441 1.561 . S
C444 C441 1.526 1_655 S
C444 C445 1.396 . S
C444 C449 1.390 . S
C445 C439 1.465 . S
C445 C444 1.396 . S
C445 C446 1.399 . S
C446 H432 0.929 . S
C446 C445 1.399 . S
C446 C447 1.385 . S
C447 H433 0.931 . S
C447 C446 1.385 . S
C447 C448 1.389 . S
C448 C447 1.389 . S
C448 C449 1.387 . S
C449 H434 0.930 1_655 S
C449 C444 1.390 . S
C449 C448 1.387 . S
H450 C462 0.930 . S
H451 C464 0.930 . S
H452 C465 0.930 . S
H453 C469 0.959 . S
H454 C469 0.959 . S
H455 C469 0.961 . S
H456 C470 0.960 . S
H457 C470 0.961 . S
H458 C470 0.959 . S
H459 C473 0.929 . S
H460 C474 0.931 . S
H461 C476 0.930 . S
C462 H450 0.930 . S
C462 C463 1.399 . S
C462 C467 1.399 . S
C463 C462 1.399 . S
C463 C464 1.376 . S
C464 H451 0.930 . S
C464 C463 1.376 . S
C464 C465 1.388 . S
C465 H452 0.930 . S
C465 C464 1.388 . S
C465 C466 1.390 . S
C466 C465 1.390 . S
C466 C467 1.394 . S
C466 C472 1.465 . S
C467 C462 1.399 . S
C467 C466 1.394 . S
C467 C468 1.516 . S
C468 C467 1.516 . S
C468 C469 1.502 . S
C468 C470 1.561 . S
C468 C471 1.526 . S
C469 H453 0.959 . S
C469 H454 0.959 . S
C469 H455 0.961 . S
C469 C468 1.502 . S
C470 H456 0.960 . S
C470 H457 0.961 . S
C470 H458 0.959 . S
C470 C468 1.561 . S
C471 C468 1.526 . S
C471 C472 1.396 . S
C471 C476 1.390 . S
C472 C466 1.465 . S
C472 C471 1.396 . S
C472 C473 1.399 . S
C473 H459 0.929 . S
C473 C472 1.399 . S
C473 C474 1.385 . S
C474 H460 0.931 . S
C474 C473 1.385 . S
C474 C475 1.389 . S
C475 C474 1.389 . S
C475 C476 1.387 . S
C476 H461 0.930 . S
C476 C471 1.390 . S
C476 C475 1.387 . S
H477 C489 0.930 . S
H478 C491 0.930 . S
H479 C492 0.930 . S
H480 C496 0.959 . S
H481 C496 0.959 . S
H482 C496 0.961 . S
H483 C497 0.960 . S
H484 C497 0.961 . S
H485 C497 0.959 . S
H486 C500 0.929 . S
H487 C501 0.931 . S
H488 C503 0.930 1_556 S
C489 H477 0.930 . S
C489 C490 1.399 . S
C489 C494 1.399 . S
C490 C489 1.399 . S
C490 C491 1.376 . S
C491 H478 0.930 . S
C491 C490 1.376 . S
C491 C492 1.388 1_556 S
C492 H479 0.930 . S
C492 C491 1.388 1_554 S
C492 C493 1.393 . S
C493 C492 1.393 . S
C493 C494 1.384 1_554 S
C493 C499 1.470 . S
C494 C489 1.399 . S
C494 C493 1.384 1_556 S
C494 C495 1.516 . S
C495 C494 1.516 . S
C495 C496 1.502 . S
C495 C497 1.561 . S
C495 C498 1.526 . S
C496 H480 0.959 . S
C496 H481 0.959 . S
C496 H482 0.961 . S
C496 C495 1.502 . S
C497 H483 0.960 . S
C497 H484 0.961 . S
C497 H485 0.959 . S
C497 C495 1.561 . S
C498 C495 1.526 . S
C498 C499 1.396 1_556 S
C498 C503 1.390 1_556 S
C499 C493 1.470 . S
C499 C498 1.396 1_554 S
C499 C500 1.399 . S
C500 H486 0.929 . S
C500 C499 1.399 . S
C500 C501 1.385 . S
C501 H487 0.931 . S
C501 C500 1.385 . S
C501 C502 1.389 . S
C502 C501 1.389 . S
C502 C503 1.387 . S
C503 H488 0.930 1_554 S
C503 C498 1.390 1_554 S
C503 C502 1.387 . S
H504 C516 0.930 . S
H505 C518 0.930 . S
H506 C519 0.930 . S
H507 C523 0.959 . S
H508 C523 0.959 . S
H509 C523 0.961 . S
H510 C524 0.960 . S
H511 C524 0.961 . S
H512 C524 0.959 . S
H513 C527 0.929 . S
H514 C528 0.931 . S
H515 C530 0.930 . S
C516 H504 0.930 . S
C516 C517 1.399 . S
C516 C521 1.399 . S
C517 C516 1.399 . S
C517 C518 1.376 . S
C518 H505 0.930 . S
C518 C517 1.376 . S
C518 C519 1.388 . S
C519 H506 0.930 . S
C519 C518 1.388 . S
C519 C520 1.390 . S
C520 C519 1.390 . S
C520 C521 1.394 . S
C520 C526 1.465 . S
C521 C516 1.399 . S
C521 C520 1.394 . S
C521 C522 1.516 . S
C522 C521 1.516 . S
C522 C523 1.502 . S
C522 C524 1.561 . S
C522 C525 1.526 . S
C523 H507 0.959 . S
C523 H508 0.959 . S
C523 H509 0.961 . S
C523 C522 1.502 . S
C524 H510 0.960 . S
C524 H511 0.961 . S
C524 H512 0.959 . S
C524 C522 1.561 . S
C525 C522 1.526 . S
C525 C526 1.396 . S
C525 C530 1.390 . S
C526 C520 1.465 . S
C526 C525 1.396 . S
C526 C527 1.399 . S
C527 H513 0.929 . S
C527 C526 1.399 . S
C527 C528 1.385 . S
C528 H514 0.931 . S
C528 C527 1.385 . S
C528 C529 1.389 . S
C529 C528 1.389 . S
C529 C530 1.387 . S
C530 H515 0.930 . S
C530 C525 1.390 . S
C530 C529 1.387 . S
H531 C543 0.930 . S
H532 C545 0.930 . S
H533 C546 0.930 . S
H534 C550 0.959 . S
H535 C550 0.959 . S
H536 C550 0.961 . S
H537 C551 0.960 . S
H538 C551 0.961 . S
H539 C551 0.959 . S
H540 C554 0.929 . S
H541 C555 0.931 . S
H542 C557 0.930 . S
C543 H531 0.930 . S
C543 C544 1.399 . S
C543 C548 1.399 . S
C544 C543 1.399 . S
C544 C545 1.376 . S
C545 H532 0.930 . S
C545 C544 1.376 . S
C545 C546 1.388 . S
C546 H533 0.930 . S
C546 C545 1.388 . S
C546 C547 1.390 . S
C547 C546 1.390 . S
C547 C548 1.394 . S
C547 C553 1.465 . S
C548 C543 1.399 . S
C548 C547 1.394 . S
C548 C549 1.516 . S
C549 C548 1.516 . S
C549 C550 1.502 . S
C549 C551 1.561 . S
C549 C552 1.526 . S
C550 H534 0.959 . S
C550 H535 0.959 . S
C550 H536 0.961 . S
C550 C549 1.502 . S
C551 H537 0.960 . S
C551 H538 0.961 . S
C551 H539 0.959 . S
C551 C549 1.561 . S
C552 C549 1.526 . S
C552 C553 1.396 . S
C552 C557 1.390 . S
C553 C547 1.465 . S
C553 C552 1.396 . S
C553 C554 1.399 . S
C554 H540 0.929 . S
C554 C553 1.399 . S
C554 C555 1.385 . S
C555 H541 0.931 . S
C555 C554 1.385 . S
C555 C556 1.389 . S
C556 C555 1.389 . S
C556 C557 1.387 . S
C557 H542 0.930 . S
C557 C552 1.390 . S
C557 C556 1.387 . S
H558 C570 0.930 . S
H559 C572 0.930 . S
H560 C573 0.930 . S
H561 C577 0.959 . S
H562 C577 0.959 . S
H563 C577 0.961 . S
H564 C578 0.960 . S
H565 C578 0.961 . S
H566 C578 0.959 . S
H567 C581 0.929 . S
H568 C582 0.931 . S
H569 C584 0.930 . S
C570 H558 0.930 . S
C570 C571 1.399 . S
C570 C575 1.399 . S
C571 C570 1.399 . S
C571 C572 1.376 . S
C572 H559 0.930 . S
C572 C571 1.376 . S
C572 C573 1.388 . S
C573 H560 0.930 . S
C573 C572 1.388 . S
C573 C574 1.390 . S
C574 C573 1.390 . S
C574 C575 1.394 . S
C574 C580 1.465 . S
C575 C570 1.399 . S
C575 C574 1.394 . S
C575 C576 1.516 . S
C576 C575 1.516 . S
C576 C577 1.502 . S
C576 C578 1.561 . S
C576 C579 1.526 . S
C577 H561 0.959 . S
C577 H562 0.959 . S
C577 H563 0.961 . S
C577 C576 1.502 . S
C578 H564 0.960 . S
C578 H565 0.961 . S
C578 H566 0.959 . S
C578 C576 1.561 . S
C579 C576 1.526 . S
C579 C580 1.396 . S
C579 C584 1.390 . S
C580 C574 1.465 . S
C580 C579 1.396 . S
C580 C581 1.399 . S
C581 H567 0.929 . S
C581 C580 1.399 . S
C581 C582 1.385 . S
C582 H568 0.931 . S
C582 C581 1.385 . S
C582 C583 1.389 . S
C583 C582 1.389 . S
C583 C584 1.387 . S
C584 H569 0.930 . S
C584 C579 1.390 . S
C584 C583 1.387 . S
H585 C597 0.930 . S
H586 C599 0.930 . S
H587 C600 0.930 . S
H588 C604 0.959 . S
H589 C604 0.959 . S
H590 C604 0.961 . S
H591 C605 0.960 . S
H592 C605 0.961 . S
H593 C605 0.959 . S
H594 C608 0.929 . S
H595 C609 0.931 . S
H596 C611 0.930 . S
C597 H585 0.930 . S
C597 C598 1.399 . S
C597 C602 1.399 . S
C598 C597 1.399 . S
C598 C599 1.376 . S
C599 H586 0.930 . S
C599 C598 1.376 . S
C599 C600 1.388 . S
C600 H587 0.930 . S
C600 C599 1.388 . S
C600 C601 1.390 . S
C601 C600 1.390 . S
C601 C602 1.394 . S
C601 C607 1.465 . S
C602 C597 1.399 . S
C602 C601 1.394 . S
C602 C603 1.516 . S
C603 C602 1.516 . S
C603 C604 1.502 . S
C603 C605 1.561 . S
C603 C606 1.526 . S
C604 H588 0.959 . S
C604 H589 0.959 . S
C604 H590 0.961 . S
C604 C603 1.502 . S
C605 H591 0.960 . S
C605 H592 0.961 . S
C605 H593 0.959 . S
C605 C603 1.561 . S
C606 C603 1.526 . S
C606 C607 1.396 . S
C606 C611 1.390 . S
C607 C601 1.465 . S
C607 C606 1.396 . S
C607 C608 1.399 . S
C608 H594 0.929 . S
C608 C607 1.399 . S
C608 C609 1.385 . S
C609 H595 0.931 . S
C609 C608 1.385 . S
C609 C610 1.389 . S
C610 C609 1.389 . S
C610 C611 1.387 . S
C611 H596 0.930 . S
C611 C606 1.390 . S
C611 C610 1.387 . S
C139 C17 1.608 1_565 S
C151 C118 1.569 . S
C166 C35 1.609 . S
C178 C16 1.569 . S
C193 C59 1.666 . S
C205 C34 1.521 . S
C220 C58 1.507 . S
C232 C77 1.600 1_545 S
C247 C76 1.607 . S
C259 C101 1.653 . S
C274 C119 1.602 1_655 S
C286 C100 1.536 . S
C301 C15 1.204 . S
C313 C79 0.948 . S
C328 C39 1.247 . S
C340 C97 1.049 . S
C355 C121 1.092 . S
C367 C57 1.231 . S
C382 C81 1.231 . S
C394 C13 1.091 . S
C409 C37 1.128 . S
C421 C99 1.191 . S
C436 C123 1.244 . S
C448 C55 0.934 . S
C463 C14 1.052 . S
C475 C102 1.111 . S
C490 C120 1.168 . S
C502 C38 1.109 . S
C517 C18 1.181 . S
C529 C56 1.055 . S
C544 C80 1.158 . S
C556 C36 1.123 . S
C571 C60 1.181 . S
C583 C98 1.060 . S
C598 C78 1.072 . S
C610 C122 1.110 . S
