# Generated by pormake.
# Topology fnl, (5)-cn, num edge types: 1
# Building blocks:
#     Node 0, Type 0, BuildingBlock: XOMCOT_clean_sbu_1, # of connection points: 5
#     Node 1, Type 0, BuildingBlock: XOMCOT_clean_sbu_1, # of connection points: 5
#     Node 2, Type 0, BuildingBlock: XOMCOT_clean_sbu_1, # of connection points: 5
#     Node 3, Type 0, BuildingBlock: XOMCOT_clean_sbu_1, # of connection points: 5
#     Node 4, Type 0, BuildingBlock: XOMCOT_clean_sbu_1, # of connection points: 5
#     Node 5, Type 0, BuildingBlock: XOMCOT_clean_sbu_1, # of connection points: 5
#     Node 6, Type 0, BuildingBlock: XOMCOT_clean_sbu_1, # of connection points: 5
#     Node 7, Type 0, BuildingBlock: XOMCOT_clean_sbu_1, # of connection points: 5
#     Node 8, Type 0, BuildingBlock: XOMCOT_clean_sbu_1, # of connection points: 5
#     Node 9, Type 0, BuildingBlock: XOMCOT_clean_sbu_1, # of connection points: 5
#     Node 10, Type 0, BuildingBlock: XOMCOT_clean_sbu_1, # of connection points: 5
#     Node 11, Type 0, BuildingBlock: XOMCOT_clean_sbu_1, # of connection points: 5
#     Node 12, Type 0, BuildingBlock: XOMCOT_clean_sbu_1, # of connection points: 5
#     Node 13, Type 0, BuildingBlock: XOMCOT_clean_sbu_1, # of connection points: 5
#     Node 14, Type 0, BuildingBlock: XOMCOT_clean_sbu_1, # of connection points: 5
#     Node 15, Type 0, BuildingBlock: XOMCOT_clean_sbu_1, # of connection points: 5
#     Edge 16, Type (0, 0), BuildingBlock: EZIPEK_clean_linker_0, # of connection points: 2
#     Edge 17, Type (0, 0), BuildingBlock: EZIPEK_clean_linker_0, # of connection points: 2
#     Edge 18, Type (0, 0), BuildingBlock: EZIPEK_clean_linker_0, # of connection points: 2
#     Edge 19, Type (0, 0), BuildingBlock: EZIPEK_clean_linker_0, # of connection points: 2
#     Edge 20, Type (0, 0), BuildingBlock: EZIPEK_clean_linker_0, # of connection points: 2
#     Edge 21, Type (0, 0), BuildingBlock: EZIPEK_clean_linker_0, # of connection points: 2
#     Edge 22, Type (0, 0), BuildingBlock: EZIPEK_clean_linker_0, # of connection points: 2
#     Edge 23, Type (0, 0), BuildingBlock: EZIPEK_clean_linker_0, # of connection points: 2
#     Edge 24, Type (0, 0), BuildingBlock: EZIPEK_clean_linker_0, # of connection points: 2
#     Edge 25, Type (0, 0), BuildingBlock: EZIPEK_clean_linker_0, # of connection points: 2
#     Edge 26, Type (0, 0), BuildingBlock: EZIPEK_clean_linker_0, # of connection points: 2
#     Edge 27, Type (0, 0), BuildingBlock: EZIPEK_clean_linker_0, # of connection points: 2
#     Edge 28, Type (0, 0), BuildingBlock: EZIPEK_clean_linker_0, # of connection points: 2
#     Edge 29, Type (0, 0), BuildingBlock: EZIPEK_clean_linker_0, # of connection points: 2
#     Edge 30, Type (0, 0), BuildingBlock: EZIPEK_clean_linker_0, # of connection points: 2
#     Edge 31, Type (0, 0), BuildingBlock: EZIPEK_clean_linker_0, # of connection points: 2
#     Edge 32, Type (0, 0), BuildingBlock: EZIPEK_clean_linker_0, # of connection points: 2
#     Edge 33, Type (0, 0), BuildingBlock: EZIPEK_clean_linker_0, # of connection points: 2
#     Edge 34, Type (0, 0), BuildingBlock: EZIPEK_clean_linker_0, # of connection points: 2
#     Edge 35, Type (0, 0), BuildingBlock: EZIPEK_clean_linker_0, # of connection points: 2
#     Edge 36, Type (0, 0), BuildingBlock: EZIPEK_clean_linker_0, # of connection points: 2
#     Edge 37, Type (0, 0), BuildingBlock: EZIPEK_clean_linker_0, # of connection points: 2
#     Edge 38, Type (0, 0), BuildingBlock: EZIPEK_clean_linker_0, # of connection points: 2
#     Edge 39, Type (0, 0), BuildingBlock: EZIPEK_clean_linker_0, # of connection points: 2
#     Edge 40, Type (0, 0), BuildingBlock: EZIPEK_clean_linker_0, # of connection points: 2
#     Edge 41, Type (0, 0), BuildingBlock: EZIPEK_clean_linker_0, # of connection points: 2
#     Edge 42, Type (0, 0), BuildingBlock: EZIPEK_clean_linker_0, # of connection points: 2
#     Edge 43, Type (0, 0), BuildingBlock: EZIPEK_clean_linker_0, # of connection points: 2
#     Edge 44, Type (0, 0), BuildingBlock: EZIPEK_clean_linker_0, # of connection points: 2
#     Edge 45, Type (0, 0), BuildingBlock: EZIPEK_clean_linker_0, # of connection points: 2
#     Edge 46, Type (0, 0), BuildingBlock: EZIPEK_clean_linker_0, # of connection points: 2
#     Edge 47, Type (0, 0), BuildingBlock: EZIPEK_clean_linker_0, # of connection points: 2
#     Edge 48, Type (0, 0), BuildingBlock: EZIPEK_clean_linker_0, # of connection points: 2
#     Edge 49, Type (0, 0), BuildingBlock: EZIPEK_clean_linker_0, # of connection points: 2
#     Edge 50, Type (0, 0), BuildingBlock: EZIPEK_clean_linker_0, # of connection points: 2
#     Edge 51, Type (0, 0), BuildingBlock: EZIPEK_clean_linker_0, # of connection points: 2
#     Edge 52, Type (0, 0), BuildingBlock: EZIPEK_clean_linker_0, # of connection points: 2
#     Edge 53, Type (0, 0), BuildingBlock: EZIPEK_clean_linker_0, # of connection points: 2
#     Edge 54, Type (0, 0), BuildingBlock: EZIPEK_clean_linker_0, # of connection points: 2
#     Edge 55, Type (0, 0), BuildingBlock: EZIPEK_clean_linker_0, # of connection points: 2
# Relax obj value: 0.511
# Max RMSD: 0.268
# Mean RMSD: 0.268
data_MOF--net-fnl--node1-XOMCOT_clean_sbu_1--edge1-EZIPEK_clean_linker_0
_symmetry_space_group_name_H-M    P1
_symmetry_Int_Tables_number       1
_symmetry_cell_setting            triclinic
loop_
_symmetry_equiv_pos_as_xyz
'x, y, z'
_cell_length_a     26.476647
_cell_length_b     26.484661
_cell_length_c     72.31232
_cell_angle_alpha  90.055078
_cell_angle_beta   89.949842
_cell_angle_gamma 90.039352
loop_
_atom_site_label
_atom_site_type_symbol
_atom_site_fract_x
_atom_site_fract_y
_atom_site_fract_z
_atom_type_partial_charge
C0 C 0.98223 0.01953 0.05633 0.0
C1 C 0.97488 0.96949 0.05218 0.0
N2 N 0.01437 0.94335 0.05885 0.0
N3 N 0.02586 0.02493 0.06576 0.0
C4 C 0.04494 0.97771 0.06694 0.0
H5 H 0.9564 0.05006 0.05334 0.0
Co6 Co 0.04398 0.08738 0.07567 0.0
C7 C 0.10151 0.04281 0.10945 0.0
O8 O 0.06383 0.04788 0.12109 0.0
N9 N 0.06015 0.15185 0.085 0.0
C10 C 0.05556 0.21627 0.10463 0.0
C11 C 0.06236 0.16513 0.10301 0.0
C12 C 0.05417 0.19619 0.0759 0.0
N13 N 0.04959 0.23585 0.08761 0.0
O14 O 0.09502 0.0933 0.05689 0.0
H15 H 0.06232 0.13922 0.11444 0.0
H16 H 0.04799 0.19881 0.06116 0.0
O17 O 0.09576 0.05635 0.09251 0.0
C18 C 0.07663 0.10596 0.04128 0.0
O19 O 0.02898 0.11958 0.0405 0.0
N20 N 0.98983 0.08166 0.09259 0.0
C21 C 0.89767 0.07144 0.11063 0.0
C22 C 0.93265 0.03195 0.11071 0.0
C23 C 0.9781 0.03746 0.10128 0.0
C24 C 0.95525 0.11991 0.09212 0.0
C25 C 0.90912 0.11602 0.10131 0.0
H26 H 0.00321 0.00555 0.10048 0.0
H27 H 0.9622 0.1527 0.08382 0.0
H28 H 0.07895 0.96805 0.07431 0.0
H29 H 0.94268 0.95326 0.04512 0.0
H30 H 0.05155 0.23709 0.11745 0.0
H31 H 0.92399 0.9964 0.11742 0.0
H32 H 0.88196 0.14651 0.10055 0.0
C33 C 0.33158 0.78935 0.31009 0.0
C34 C 0.38155 0.77957 0.3066 0.0
N35 N 0.40812 0.82092 0.31119 0.0
N36 N 0.3268 0.83618 0.31729 0.0
C37 C 0.37423 0.85487 0.31753 0.0
H38 H 0.30059 0.7639 0.30735 0.0
Co39 Co 0.26471 0.86351 0.32385 0.0
C40 C 0.28508 0.92964 0.35726 0.0
O41 O 0.24255 0.9143 0.36478 0.0
N42 N 0.20048 0.88919 0.32934 0.0
C43 C 0.13375 0.93874 0.33432 0.0
C44 C 0.18546 0.93749 0.33184 0.0
C45 C 0.15699 0.86254 0.32917 0.0
N46 N 0.11629 0.89126 0.33259 0.0
O47 O 0.27139 0.91158 0.30442 0.0
H48 H 0.21034 0.9698 0.3314 0.0
H49 H 0.15401 0.82296 0.32609 0.0
O50 O 0.29805 0.91241 0.34132 0.0
C51 C 0.25553 0.89363 0.28918 0.0
O52 O 0.23299 0.84942 0.28925 0.0
N53 N 0.25832 0.81215 0.34189 0.0
C54 C 0.26906 0.7204 0.3602 0.0
C55 C 0.29268 0.76387 0.36689 0.0
C56 C 0.28721 0.80917 0.35748 0.0
C57 C 0.2332 0.77022 0.33575 0.0
C58 C 0.23656 0.72422 0.34509 0.0
H59 H 0.31047 0.83964 0.36198 0.0
H60 H 0.21512 0.77062 0.32237 0.0
H61 H 0.38384 0.89265 0.32203 0.0
H62 H 0.39726 0.74512 0.30094 0.0
H63 H 0.11065 0.97184 0.33668 0.0
H64 H 0.31863 0.76193 0.37846 0.0
H65 H 0.21845 0.69094 0.33942 0.0
C66 C 0.55791 0.15998 0.55883 0.0
C67 C 0.56536 0.21023 0.55516 0.0
N68 N 0.52346 0.23516 0.56028 0.0
N69 N 0.51191 0.15353 0.56653 0.0
C70 C 0.49114 0.20002 0.56683 0.0
H71 H 0.58498 0.12999 0.55664 0.0
Co72 Co 0.49117 0.09058 0.5747 0.0
C73 C 0.43927 0.11384 0.61102 0.0
O74 O 0.47045 0.08228 0.61915 0.0
N75 N 0.472 0.02511 0.58141 0.0
C76 C 0.43723 0.9545 0.59231 0.0
C77 C 0.43306 0.00635 0.59137 0.0
C78 C 0.49615 0.98372 0.57505 0.0
N79 N 0.47749 0.94077 0.58216 0.0
O80 O 0.43928 0.09077 0.55644 0.0
H81 H 0.40266 0.0284 0.59711 0.0
H82 H 0.5269 0.98465 0.56522 0.0
O83 O 0.44312 0.1211 0.59344 0.0
C84 C 0.45644 0.07679 0.54082 0.0
O85 O 0.50334 0.06082 0.53984 0.0
N86 N 0.54595 0.09102 0.5918 0.0
C87 C 0.63467 0.1027 0.61212 0.0
C88 C 0.59649 0.13897 0.61304 0.0
C89 C 0.55283 0.13266 0.60271 0.0
C90 C 0.5839 0.05614 0.5904 0.0
C91 C 0.62787 0.06026 0.60097 0.0
H92 H 0.52549 0.16264 0.60286 0.0
H93 H 0.58245 0.02656 0.58032 0.0
H94 H 0.45374 0.20822 0.57201 0.0
H95 H 0.59928 0.22747 0.54966 0.0
H96 H 0.41265 0.92888 0.59974 0.0
H97 H 0.60103 0.17279 0.62133 0.0
H98 H 0.65728 0.03205 0.59971 0.0
C99 C 0.19322 0.37503 0.80267 0.0
C100 C 0.1433 0.38398 0.79877 0.0
N101 N 0.11596 0.34692 0.80654 0.0
N102 N 0.1972 0.33315 0.81321 0.0
C103 C 0.14934 0.31626 0.81507 0.0
H104 H 0.22471 0.39786 0.79814 0.0
Co105 Co 0.25865 0.30929 0.82195 0.0
C106 C 0.23096 0.24983 0.85706 0.0
O107 O 0.27133 0.26549 0.86596 0.0
N108 N 0.32231 0.28704 0.8296 0.0
C109 C 0.39024 0.24319 0.83812 0.0
C110 C 0.33857 0.24146 0.83548 0.0
C111 C 0.36499 0.31452 0.82773 0.0
N112 N 0.40639 0.28947 0.8332 0.0
O113 O 0.25539 0.2556 0.80447 0.0
H114 H 0.31477 0.20864 0.83713 0.0
H115 H 0.36672 0.35179 0.82184 0.0
O116 O 0.22283 0.26529 0.84048 0.0
C117 C 0.27423 0.26896 0.78905 0.0
O118 O 0.29725 0.31285 0.78806 0.0
N119 N 0.26246 0.366 0.83775 0.0
C120 C 0.25637 0.46197 0.85334 0.0
C121 C 0.23383 0.42053 0.86203 0.0
C122 C 0.23727 0.37289 0.85402 0.0
C123 C 0.28605 0.40605 0.82951 0.0
C124 C 0.28495 0.45416 0.83739 0.0
H125 H 0.21682 0.3432 0.86054 0.0
H126 H 0.30282 0.40158 0.81599 0.0
H127 H 0.1389 0.28242 0.8225 0.0
H128 H 0.12808 0.41527 0.79093 0.0
H129 H 0.41425 0.21257 0.84267 0.0
H130 H 0.21127 0.42546 0.87442 0.0
H131 H 0.30264 0.48556 0.83031 0.0
C132 C 0.97425 0.15523 0.95085 0.0
C133 C 0.96877 0.20594 0.95438 0.0
N134 N 0.01041 0.22969 0.94821 0.0
N135 N 0.01879 0.1473 0.94225 0.0
C136 C 0.04045 0.19339 0.94108 0.0
H137 H 0.94679 0.12603 0.95376 0.0
Co138 Co 0.03905 0.08433 0.93344 0.0
C139 C 0.08704 0.12229 0.89733 0.0
O140 O 0.05442 0.09787 0.88696 0.0
N141 N 0.05809 0.01855 0.92578 0.0
C142 C 0.06796 0.94906 0.90893 0.0
C143 C 0.0749 0.00042 0.90946 0.0
C144 C 0.04482 0.97654 0.93541 0.0
N145 N 0.04801 0.93392 0.92514 0.0
O146 O 0.09164 0.08407 0.95176 0.0
H147 H 0.08981 0.02223 0.89823 0.0
H148 H 0.02988 0.97774 0.94931 0.0
O149 O 0.08535 0.11814 0.91507 0.0
C150 C 0.07404 0.07319 0.96769 0.0
O151 O 0.02647 0.05957 0.96904 0.0
N152 N 0.98388 0.08472 0.91661 0.0
C153 C 0.89391 0.09003 0.89686 0.0
C154 C 0.92651 0.13143 0.89753 0.0
C155 C 0.97092 0.12818 0.90766 0.0
C156 C 0.95191 0.04423 0.91608 0.0
C157 C 0.90693 0.04571 0.90604 0.0
H158 H 0.99434 0.1612 0.90875 0.0
H159 H 0.95971 0.01133 0.92403 0.0
H160 H 0.07657 0.20061 0.93459 0.0
H161 H 0.93642 0.22423 0.96063 0.0
H162 H 0.07567 0.92468 0.89723 0.0
H163 H 0.91689 0.1666 0.89073 0.0
H164 H 0.88178 0.01344 0.90604 0.0
C165 C 0.20493 0.7931 0.19188 0.0
C166 C 0.15449 0.78582 0.19528 0.0
N167 N 0.13025 0.82899 0.19126 0.0
N168 N 0.21226 0.84041 0.18552 0.0
C169 C 0.16597 0.86173 0.1854 0.0
H170 H 0.23463 0.76555 0.19374 0.0
Co171 Co 0.27617 0.86296 0.17922 0.0
C172 C 0.25635 0.92706 0.14566 0.0
O173 O 0.28753 0.89813 0.13633 0.0
N174 N 0.34269 0.88364 0.17426 0.0
C175 C 0.41597 0.91748 0.16542 0.0
C176 C 0.36413 0.9225 0.16497 0.0
C177 C 0.38237 0.85826 0.1814 0.0
N178 N 0.42698 0.87656 0.1756 0.0
O179 O 0.2739 0.90936 0.19941 0.0
H180 H 0.34414 0.95307 0.15841 0.0
H181 H 0.37881 0.8261 0.19052 0.0
O182 O 0.2475 0.91569 0.16262 0.0
C183 C 0.28477 0.88888 0.21479 0.0
O184 O 0.29958 0.84157 0.21494 0.0
N185 N 0.27756 0.81409 0.15999 0.0
C186 C 0.26813 0.73047 0.13684 0.0
C187 C 0.23193 0.76885 0.13658 0.0
C188 C 0.23713 0.81011 0.1483 0.0
C189 C 0.31291 0.77647 0.16038 0.0
C190 C 0.31003 0.73528 0.14838 0.0
H191 H 0.20695 0.8375 0.1487 0.0
H192 H 0.34163 0.77568 0.1708 0.0
H193 H 0.15848 0.90012 0.18108 0.0
H194 H 0.13682 0.75168 0.20038 0.0
H195 H 0.44341 0.94155 0.15867 0.0
H196 H 0.19863 0.76583 0.12794 0.0
H197 H 0.33818 0.70568 0.14909 0.0
C198 C 0.55241 0.02773 0.44845 0.0
C199 C 0.56437 0.97806 0.45163 0.0
N200 N 0.52564 0.94962 0.44571 0.0
N201 N 0.50668 0.03078 0.44024 0.0
C202 C 0.49087 0.98224 0.43908 0.0
H203 H 0.57601 0.05975 0.45178 0.0
Co204 Co 0.48003 0.09307 0.43252 0.0
C205 C 0.3937 0.03514 0.41511 0.0
O206 O 0.37084 0.02845 0.43104 0.0
N207 N 0.45645 0.15637 0.42526 0.0
C208 C 0.43695 0.22129 0.40715 0.0
C209 C 0.43188 0.16991 0.40968 0.0
C210 C 0.47508 0.20008 0.43212 0.0
N211 N 0.46454 0.24006 0.42121 0.0
O212 O 0.43025 0.08916 0.45155 0.0
H213 H 0.41552 0.14392 0.39983 0.0
H214 H 0.50039 0.20186 0.44384 0.0
O215 O 0.43528 0.05961 0.41441 0.0
C216 C 0.44908 0.10343 0.46688 0.0
O217 O 0.49502 0.12216 0.46697 0.0
N218 N 0.53166 0.09836 0.41521 0.0
C219 C 0.62257 0.09181 0.39658 0.0
C220 C 0.57894 0.07003 0.3891 0.0
C221 C 0.53342 0.07424 0.39855 0.0
C222 C 0.57272 0.12388 0.42172 0.0
C223 C 0.6187 0.12208 0.41234 0.0
H224 H 0.50089 0.05564 0.39284 0.0
H225 H 0.57061 0.14299 0.43491 0.0
H226 H 0.45496 0.97051 0.4335 0.0
H227 H 0.59885 0.96376 0.45772 0.0
H228 H 0.42461 0.2426 0.39521 0.0
H229 H 0.5807 0.04726 0.37666 0.0
H230 H 0.65175 0.14004 0.41823 0.0
C231 C 0.33532 0.36691 0.7033 0.0
C232 C 0.38569 0.37411 0.70703 0.0
N233 N 0.41163 0.33568 0.69944 0.0
N234 N 0.32947 0.32438 0.69325 0.0
C235 C 0.37676 0.30574 0.69127 0.0
H236 H 0.30493 0.39227 0.70698 0.0
Co237 Co 0.26747 0.30645 0.68284 0.0
C238 C 0.29506 0.21666 0.65991 0.0
O239 O 0.25594 0.19183 0.66644 0.0
N240 N 0.20365 0.29132 0.67272 0.0
C241 C 0.14042 0.28713 0.65244 0.0
C242 C 0.1916 0.28107 0.65495 0.0
C243 C 0.159 0.30376 0.68068 0.0
N244 N 0.12009 0.30183 0.66861 0.0
O245 O 0.26185 0.25245 0.70017 0.0
H246 H 0.21847 0.27421 0.64403 0.0
H247 H 0.15567 0.31874 0.69455 0.0
O248 O 0.30266 0.26219 0.66507 0.0
C249 C 0.24697 0.26917 0.71575 0.0
O250 O 0.23291 0.31662 0.71694 0.0
N251 N 0.27248 0.36154 0.66732 0.0
C252 C 0.28547 0.45497 0.65099 0.0
C253 C 0.3163 0.4143 0.64593 0.0
C254 C 0.30948 0.3677 0.6544 0.0
C255 C 0.24169 0.40059 0.67217 0.0
C256 C 0.24686 0.44777 0.66388 0.0
H257 H 0.33615 0.33797 0.6515 0.0
H258 H 0.21502 0.3958 0.68335 0.0
H259 H 0.3859 0.27227 0.68335 0.0
H260 H 0.40227 0.40578 0.71431 0.0
H261 H 0.12027 0.28478 0.63945 0.0
H262 H 0.34712 0.41936 0.63622 0.0
H263 H 0.22321 0.47892 0.66825 0.0
C264 C 0.70358 0.29197 0.70145 0.0
C265 C 0.65342 0.28286 0.70493 0.0
N266 N 0.62692 0.32241 0.69867 0.0
N267 N 0.70902 0.33642 0.69245 0.0
C268 C 0.66128 0.35496 0.69165 0.0
H269 H 0.73408 0.26767 0.70569 0.0
Co270 Co 0.77259 0.36318 0.68508 0.0
C271 C 0.70378 0.4033 0.65425 0.0
O272 O 0.6785 0.36077 0.65301 0.0
N273 N 0.83612 0.38742 0.67862 0.0
C274 C 0.90157 0.41717 0.66275 0.0
C275 C 0.85023 0.42124 0.66565 0.0
C276 C 0.87939 0.36424 0.6837 0.0
N277 N 0.91962 0.38097 0.67402 0.0
O278 O 0.76455 0.41545 0.70304 0.0
H279 H 0.82473 0.4449 0.65785 0.0
H280 H 0.88076 0.33281 0.69324 0.0
O281 O 0.74031 0.40723 0.66587 0.0
C282 C 0.77966 0.4002 0.71878 0.0
O283 O 0.80179 0.3559 0.71981 0.0
N284 N 0.78282 0.30928 0.66879 0.0
C285 C 0.77269 0.21914 0.65033 0.0
C286 C 0.76855 0.26484 0.64067 0.0
C287 C 0.77631 0.31 0.65013 0.0
C288 C 0.79826 0.26585 0.67717 0.0
C289 C 0.79387 0.21966 0.66805 0.0
H290 H 0.77437 0.34509 0.64272 0.0
H291 H 0.81005 0.26662 0.69147 0.0
H292 H 0.65153 0.39159 0.68615 0.0
H293 H 0.63752 0.24993 0.71162 0.0
H294 H 0.92356 0.43729 0.6525 0.0
H295 H 0.75607 0.26579 0.62641 0.0
H296 H 0.80068 0.18486 0.67549 0.0
C297 C 0.84005 0.87468 0.20177 0.0
C298 C 0.89027 0.88466 0.20488 0.0
N299 N 0.91714 0.846 0.19796 0.0
N300 N 0.83551 0.83019 0.19279 0.0
C301 C 0.88329 0.81314 0.1909 0.0
H302 H 0.80876 0.89935 0.20507 0.0
Co303 Co 0.77359 0.80693 0.18398 0.0
C304 C 0.81597 0.75568 0.14875 0.0
O305 O 0.79734 0.78948 0.13741 0.0
N306 N 0.7091 0.78553 0.17616 0.0
C307 C 0.64024 0.7839 0.15865 0.0
C308 C 0.69163 0.77754 0.15887 0.0
C309 C 0.66684 0.79365 0.18636 0.0
N310 N 0.62462 0.79528 0.17588 0.0
O311 O 0.77431 0.75567 0.2028 0.0
H312 H 0.71418 0.77248 0.14671 0.0
H313 H 0.66753 0.8029 0.2009 0.0
O314 O 0.8086 0.75911 0.16632 0.0
C315 C 0.76252 0.77363 0.2186 0.0
O316 O 0.74754 0.82081 0.21966 0.0
N317 N 0.77256 0.86102 0.16681 0.0
C318 C 0.77622 0.95215 0.1478 0.0
C319 C 0.81761 0.91956 0.14769 0.0
C320 C 0.81526 0.8747 0.15751 0.0
C321 C 0.73185 0.89274 0.16697 0.0
C322 C 0.73256 0.93845 0.15735 0.0
H323 H 0.84842 0.8516 0.15808 0.0
H324 H 0.69945 0.88408 0.17524 0.0
H325 H 0.89334 0.77842 0.18393 0.0
H326 H 0.90606 0.91837 0.21108 0.0
H327 H 0.61644 0.78359 0.14648 0.0
H328 H 0.85232 0.92975 0.14064 0.0
H329 H 0.70037 0.96361 0.15797 0.0
C330 C 0.82621 0.2945 0.80469 0.0
C331 C 0.8765 0.28882 0.80046 0.0
N332 N 0.90158 0.32887 0.8073 0.0
N333 N 0.81976 0.3376 0.81437 0.0
C334 C 0.86637 0.35829 0.81547 0.0
H335 H 0.79638 0.26784 0.80165 0.0
Co336 Co 0.75796 0.35584 0.82494 0.0
C337 C 0.80386 0.40187 0.86049 0.0
O338 O 0.78586 0.36656 0.8714 0.0
N339 N 0.69363 0.37277 0.83454 0.0
C340 C 0.6273 0.3721 0.85341 0.0
C341 C 0.67848 0.37954 0.8522 0.0
C342 C 0.65003 0.36429 0.82516 0.0
N343 N 0.6093 0.36163 0.83644 0.0
O344 O 0.75393 0.41042 0.80761 0.0
H345 H 0.7025 0.38573 0.86388 0.0
H346 H 0.64871 0.35592 0.81054 0.0
O347 O 0.79413 0.40115 0.84304 0.0
C348 C 0.74123 0.39473 0.79161 0.0
O349 O 0.72752 0.34731 0.78974 0.0
N350 N 0.76173 0.29873 0.84067 0.0
C351 C 0.77154 0.20626 0.85848 0.0
C352 C 0.81208 0.23989 0.85774 0.0
C353 C 0.80656 0.28543 0.84852 0.0
C354 C 0.72209 0.26569 0.84111 0.0
C355 C 0.72591 0.21923 0.85013 0.0
H356 H 0.83878 0.30958 0.84718 0.0
H357 H 0.68794 0.27417 0.83389 0.0
H358 H 0.87487 0.39289 0.82282 0.0
H359 H 0.89368 0.25715 0.79338 0.0
H360 H 0.60518 0.37204 0.86602 0.0
H361 H 0.84826 0.23033 0.86381 0.0
H362 H 0.69425 0.19331 0.85018 0.0
C363 C 0.69845 0.86734 0.30087 0.0
C364 C 0.6483 0.87286 0.29645 0.0
N365 N 0.62194 0.83881 0.30628 0.0
N366 N 0.70366 0.83012 0.31346 0.0
C367 C 0.65616 0.81322 0.31643 0.0
H368 H 0.72906 0.89076 0.29592 0.0
Co369 Co 0.76574 0.8174 0.32473 0.0
C370 C 0.72041 0.76417 0.35952 0.0
O371 O 0.72403 0.80364 0.37042 0.0
N372 N 0.82982 0.80663 0.33543 0.0
C373 C 0.89172 0.81797 0.35578 0.0
C374 C 0.84106 0.80899 0.35362 0.0
C375 C 0.87501 0.81237 0.32683 0.0
N376 N 0.91308 0.82074 0.33893 0.0
O377 O 0.77621 0.76301 0.30758 0.0
H378 H 0.81395 0.8105 0.36466 0.0
H379 H 0.87934 0.81543 0.31202 0.0
O380 O 0.73496 0.76757 0.34258 0.0
C381 C 0.79116 0.77849 0.29182 0.0
O382 O 0.80442 0.82604 0.29007 0.0
N383 N 0.75566 0.87435 0.33989 0.0
C384 C 0.74198 0.96634 0.35761 0.0
C385 C 0.70363 0.93006 0.35768 0.0
C386 C 0.71092 0.88464 0.34844 0.0
C387 C 0.79208 0.9108 0.33885 0.0
C388 C 0.78664 0.95682 0.34802 0.0
H389 H 0.68061 0.85759 0.34825 0.0
H390 H 0.8251 0.90463 0.33054 0.0
H391 H 0.64612 0.78554 0.32674 0.0
H392 H 0.63211 0.90091 0.28734 0.0
H393 H 0.91093 0.82538 0.36871 0.0
H394 H 0.66819 0.93698 0.36475 0.0
H395 H 0.81641 0.98484 0.34739 0.0
C396 C 0.48104 0.52635 0.55875 0.0
C397 C 0.47143 0.47659 0.55478 0.0
N398 N 0.51062 0.44925 0.56096 0.0
N399 N 0.52589 0.53024 0.5675 0.0
C400 C 0.54336 0.48244 0.56854 0.0
H401 H 0.45612 0.55781 0.55602 0.0
Co402 Co 0.54817 0.59233 0.57637 0.0
C403 C 0.60519 0.55411 0.61064 0.0
O404 O 0.57158 0.5735 0.62196 0.0
N405 N 0.56788 0.65759 0.58398 0.0
C406 C 0.5729 0.72777 0.60075 0.0
C407 C 0.58035 0.67651 0.60071 0.0
C408 C 0.55595 0.69892 0.57382 0.0
N409 N 0.55649 0.74185 0.58392 0.0
O410 O 0.59752 0.59391 0.55687 0.0
H411 H 0.59069 0.65527 0.61269 0.0
H412 H 0.54291 0.69705 0.55969 0.0
O413 O 0.59897 0.55891 0.59308 0.0
C414 C 0.57885 0.60439 0.54109 0.0
O415 O 0.53116 0.61766 0.54008 0.0
N416 N 0.49653 0.59024 0.59448 0.0
C417 C 0.40839 0.58088 0.61507 0.0
C418 C 0.4428 0.54106 0.61415 0.0
C419 C 0.48631 0.54628 0.60363 0.0
C420 C 0.46324 0.62954 0.59547 0.0
C421 C 0.41901 0.62597 0.60592 0.0
H422 H 0.51147 0.51443 0.60256 0.0
H423 H 0.46951 0.66303 0.58755 0.0
H424 H 0.57806 0.47176 0.5753 0.0
H425 H 0.43784 0.46136 0.54832 0.0
H426 H 0.57679 0.75262 0.61256 0.0
H427 H 0.43518 0.50549 0.62102 0.0
H428 H 0.39253 0.65711 0.60623 0.0
C429 C 0.05507 0.65179 0.05018 0.0
C430 C 0.06391 0.70187 0.04653 0.0
N431 N 0.02843 0.72896 0.05534 0.0
N432 N 0.01495 0.64742 0.06161 0.0
C433 C 0.99872 0.69525 0.06417 0.0
H434 H 0.077 0.62047 0.04496 0.0
Co435 Co 0.99313 0.58566 0.07088 0.0
C436 C 0.93417 0.61133 0.10611 0.0
O437 O 0.94972 0.57018 0.11449 0.0
N438 N 0.97287 0.52193 0.07905 0.0
C439 C 0.92932 0.45319 0.08687 0.0
C440 C 0.9267 0.5046 0.08387 0.0
C441 C 0.00201 0.48015 0.07832 0.0
N442 N 0.97691 0.43823 0.08329 0.0
O443 O 0.9388 0.58683 0.05376 0.0
H444 H 0.89297 0.5275 0.08449 0.0
H445 H 0.04052 0.47945 0.0735 0.0
O446 O 0.94934 0.62082 0.08958 0.0
C447 C 0.95228 0.56636 0.03864 0.0
O448 O 0.99598 0.54291 0.03809 0.0
N449 N 0.05064 0.58415 0.08623 0.0
C450 C 0.14741 0.59978 0.09992 0.0
C451 C 0.10524 0.61714 0.10965 0.0
C452 C 0.05716 0.60889 0.10261 0.0
C453 C 0.09146 0.56398 0.07729 0.0
C454 C 0.14033 0.57039 0.08411 0.0
H455 H 0.02658 0.62559 0.10995 0.0
H456 H 0.08653 0.54613 0.06397 0.0
H457 H 0.96615 0.70549 0.07237 0.0
H458 H 0.09422 0.71737 0.03823 0.0
H459 H 0.89843 0.42843 0.09062 0.0
H460 H 0.10961 0.63974 0.12206 0.0
H461 H 0.17234 0.55627 0.07634 0.0
C462 C 0.48629 0.65855 0.45181 0.0
C463 C 0.47893 0.70919 0.45484 0.0
N464 N 0.51738 0.73443 0.44695 0.0
N465 N 0.52896 0.65181 0.44193 0.0
C466 C 0.54756 0.69887 0.4393 0.0
H467 H 0.46123 0.62839 0.45601 0.0
Co468 Co 0.54718 0.58793 0.43347 0.0
C469 C 0.60382 0.61387 0.39815 0.0
O470 O 0.57125 0.58723 0.38852 0.0
N471 N 0.56397 0.52124 0.42586 0.0
C472 C 0.59193 0.45197 0.41156 0.0
C473 C 0.59915 0.50301 0.41402 0.0
C474 C 0.539 0.47935 0.43158 0.0
N475 N 0.5537 0.43725 0.42254 0.0
O476 O 0.59869 0.58542 0.45191 0.0
H477 H 0.62869 0.5246 0.40751 0.0
H478 H 0.50968 0.47951 0.44198 0.0
O479 O 0.59646 0.61801 0.41563 0.0
C480 C 0.58111 0.57082 0.4674 0.0
O481 O 0.53448 0.55395 0.46804 0.0
N482 N 0.49294 0.59113 0.4166 0.0
C483 C 0.40252 0.60387 0.39758 0.0
C484 C 0.44227 0.63804 0.39519 0.0
C485 C 0.48687 0.63148 0.40505 0.0
C486 C 0.45349 0.55883 0.41954 0.0
C487 C 0.40853 0.56331 0.40965 0.0
H488 H 0.51559 0.66025 0.40399 0.0
H489 H 0.45495 0.53148 0.43046 0.0
H490 H 0.58138 0.70718 0.43145 0.0
H491 H 0.44737 0.7264 0.46199 0.0
H492 H 0.61294 0.42753 0.40234 0.0
H493 H 0.43811 0.67063 0.38627 0.0
H494 H 0.37776 0.53723 0.41219 0.0
C495 C 0.06983 0.51824 0.94601 0.0
C496 C 0.07837 0.46873 0.95074 0.0
N497 N 0.03543 0.44299 0.94778 0.0
N498 N 0.02205 0.52322 0.93975 0.0
C499 C 0.00155 0.47684 0.94148 0.0
H500 H 0.0972 0.54854 0.94652 0.0
Co501 Co 0.99642 0.58401 0.93103 0.0
C502 C 0.94051 0.5473 0.89599 0.0
O503 O 0.96627 0.57801 0.88528 0.0
N504 N 0.97287 0.6475 0.92371 0.0
C505 C 0.93958 0.7167 0.91116 0.0
C506 C 0.93745 0.66461 0.91184 0.0
C507 C 0.99328 0.68987 0.93097 0.0
N508 N 0.9753 0.73212 0.9231 0.0
O509 O 0.94555 0.58178 0.94968 0.0
H510 H 0.91138 0.64137 0.90428 0.0
H511 H 0.02197 0.6899 0.9416 0.0
O512 O 0.9491 0.54715 0.91355 0.0
C513 C 0.96171 0.5959 0.9654 0.0
O514 O 0.00812 0.6131 0.96667 0.0
N515 N 0.04983 0.5866 0.91348 0.0
C516 C 0.1379 0.58324 0.89237 0.0
C517 C 0.1022 0.54456 0.89122 0.0
C518 C 0.05896 0.54663 0.90204 0.0
C519 C 0.08541 0.62386 0.91513 0.0
C520 C 0.12911 0.62379 0.90427 0.0
H521 H 0.03437 0.51461 0.90188 0.0
H522 H 0.08215 0.65229 0.92565 0.0
H523 H 0.963 0.46767 0.93787 0.0
H524 H 0.11373 0.45241 0.95527 0.0
H525 H 0.91721 0.74127 0.90246 0.0
H526 H 0.10869 0.51187 0.8825 0.0
H527 H 0.15686 0.65356 0.90583 0.0
C528 C 0.97523 0.35041 0.07165 0.0
C529 C 0.99688 0.38759 0.08322 0.0
C530 C 0.06188 0.32711 0.09249 0.0
C531 C 0.03461 0.2875 0.08386 0.0
N532 N 0.95908 0.2619 0.06721 0.0
N533 N 0.0573 0.40967 0.10676 0.0
C534 C 0.98976 0.29914 0.0738 0.0
C535 C 0.03952 0.37559 0.09416 0.0
N536 N 0.94193 0.36428 0.05817 0.0
N537 N 0.10963 0.31838 0.09882 0.0
H538 H 0.04034 0.4447 0.10893 0.0
H539 H 0.08553 0.40113 0.11628 0.0
H540 H 0.12766 0.28369 0.097 0.0
H541 H 0.133 0.34684 0.10391 0.0
H542 H 0.92868 0.33928 0.04814 0.0
H543 H 0.93212 0.40183 0.05576 0.0
H544 H 0.92337 0.26899 0.06175 0.0
H545 H 0.96671 0.22382 0.06863 0.0
C546 C 0.05237 0.83431 0.34621 0.0
C547 C 0.06493 0.87338 0.33366 0.0
C548 C 0.97653 0.87838 0.32406 0.0
C549 C 0.96478 0.83593 0.33539 0.0
N550 N 0.99541 0.76537 0.35306 0.0
N551 N 0.0418 0.92227 0.30695 0.0
C552 C 0.00408 0.81134 0.34515 0.0
C553 C 0.02786 0.89234 0.32145 0.0
N554 N 0.08581 0.82055 0.35965 0.0
N555 N 0.93924 0.9074 0.31663 0.0
H556 H 0.07936 0.93152 0.30422 0.0
H557 H 0.01679 0.93317 0.29658 0.0
H558 H 0.90118 0.9004 0.31868 0.0
H559 H 0.94629 0.94155 0.30995 0.0
H560 H 0.07681 0.79519 0.37016 0.0
H561 H 0.12051 0.83854 0.36145 0.0
H562 H 0.02386 0.74376 0.35907 0.0
H563 H 0.96098 0.74653 0.35169 0.0
C564 C 0.54823 0.88155 0.58724 0.0
C565 C 0.49908 0.89114 0.58041 0.0
C566 C 0.48892 0.80165 0.57288 0.0
C567 C 0.53916 0.79219 0.57925 0.0
N568 N 0.62094 0.82626 0.58637 0.0
N569 N 0.42869 0.86413 0.56208 0.0
C570 C 0.57023 0.83345 0.58433 0.0
C571 C 0.47135 0.8523 0.57175 0.0
N572 N 0.57266 0.91726 0.59751 0.0
N573 N 0.45674 0.76302 0.56884 0.0
H574 H 0.41556 0.90113 0.56089 0.0
H575 H 0.40947 0.83828 0.5538 0.0
H576 H 0.46742 0.72556 0.56824 0.0
H577 H 0.4181 0.76816 0.56687 0.0
H578 H 0.60685 0.91055 0.60419 0.0
H579 H 0.55613 0.95166 0.60102 0.0
H580 H 0.64626 0.85575 0.58868 0.0
H581 H 0.63798 0.79148 0.58368 0.0
C582 C 0.4944 0.285 0.82176 0.0
C583 C 0.45736 0.30873 0.83283 0.0
C584 C 0.51795 0.37542 0.84035 0.0
C585 C 0.55764 0.34657 0.83249 0.0
N586 N 0.58278 0.26891 0.817 0.0
N587 N 0.43561 0.37346 0.85485 0.0
C588 C 0.54576 0.30015 0.82337 0.0
C589 C 0.46952 0.35335 0.84267 0.0
N590 N 0.48026 0.24922 0.80918 0.0
N591 N 0.52657 0.4244 0.84531 0.0
H592 H 0.40068 0.35683 0.85756 0.0
H593 H 0.44429 0.4035 0.86361 0.0
H594 H 0.56116 0.44214 0.84288 0.0
H595 H 0.49806 0.44864 0.84977 0.0
H596 H 0.50495 0.23426 0.79937 0.0
H597 H 0.4427 0.23867 0.8072 0.0
H598 H 0.57575 0.23208 0.8126 0.0
H599 H 0.62074 0.27783 0.81716 0.0
C600 C 0.04461 0.79426 0.92025 0.0
C601 C 0.99455 0.78257 0.92561 0.0
C602 C 0.98057 0.87099 0.93417 0.0
C603 C 0.03154 0.88264 0.92911 0.0
N604 N 0.11537 0.85142 0.92368 0.0
N605 N 0.91958 0.80582 0.94209 0.0
C606 C 0.06461 0.84269 0.92431 0.0
C607 C 0.96398 0.8198 0.93394 0.0
N608 N 0.07199 0.76015 0.91026 0.0
N609 N 0.94702 0.90818 0.93844 0.0
H610 H 0.90692 0.7685 0.94217 0.0
H611 H 0.89789 0.83008 0.9502 0.0
H612 H 0.95728 0.9451 0.94104 0.0
H613 H 0.90814 0.90229 0.93909 0.0
H614 H 0.10728 0.76828 0.90461 0.0
H615 H 0.05697 0.72575 0.90592 0.0
H616 H 0.1419 0.8229 0.92165 0.0
H617 H 0.13084 0.88634 0.9273 0.0
C618 C 0.51323 0.87887 0.1884 0.0
C619 C 0.47576 0.85358 0.17809 0.0
C620 C 0.53321 0.78246 0.17362 0.0
C621 C 0.57386 0.81174 0.18046 0.0
N622 N 0.60192 0.89103 0.1941 0.0
N623 N 0.452 0.78414 0.15843 0.0
C624 C 0.56379 0.8606 0.18808 0.0
C625 C 0.48598 0.80575 0.17021 0.0
N626 N 0.50011 0.91993 0.19877 0.0
N627 N 0.54036 0.7323 0.1702 0.0
H628 H 0.41872 0.80215 0.15451 0.0
H629 H 0.45939 0.75119 0.15103 0.0
H630 H 0.57458 0.71438 0.17309 0.0
H631 H 0.51114 0.70793 0.1665 0.0
H632 H 0.52446 0.93711 0.20818 0.0
H633 H 0.4632 0.93368 0.19925 0.0
H634 H 0.597 0.92929 0.19695 0.0
H635 H 0.63887 0.87934 0.19571 0.0
C636 C 0.45554 0.33331 0.42179 0.0
C637 C 0.48677 0.28997 0.42213 0.0
C638 C 0.56088 0.34445 0.426 0.0
C639 C 0.53057 0.38773 0.42312 0.0
N640 N 0.4503 0.42129 0.41319 0.0
N641 N 0.57076 0.25612 0.41874 0.0
C642 C 0.47804 0.38175 0.4197 0.0
C643 C 0.54002 0.29593 0.42271 0.0
N644 N 0.40452 0.32829 0.42369 0.0
N645 N 0.60929 0.34958 0.43216 0.0
H646 H 0.5565 0.22188 0.414 0.0
H647 H 0.60989 0.25939 0.41767 0.0
H648 H 0.62488 0.3846 0.43549 0.0
H649 H 0.63164 0.31879 0.43584 0.0
H650 H 0.38036 0.35911 0.42512 0.0
H651 H 0.38721 0.29333 0.42569 0.0
H652 H 0.41271 0.41781 0.40912 0.0
H653 H 0.4666 0.45572 0.40963 0.0
C654 C 0.01183 0.39142 0.67769 0.0
C655 C 0.97 0.35997 0.67372 0.0
C656 C 0.02762 0.28833 0.66925 0.0
C657 C 0.06948 0.3212 0.6711 0.0
N658 N 0.10078 0.40647 0.67251 0.0
N659 N 0.93869 0.28074 0.66187 0.0
C660 C 0.06148 0.37349 0.67418 0.0
C661 C 0.97794 0.30881 0.66854 0.0
N662 N 0.00403 0.43819 0.68508 0.0
N663 N 0.03552 0.23748 0.66834 0.0
H664 H 0.90254 0.29542 0.66004 0.0
H665 H 0.94313 0.24468 0.65634 0.0
H666 H 0.07161 0.22174 0.66891 0.0
H667 H 0.00635 0.21108 0.66871 0.0
H668 H 0.03329 0.46114 0.68981 0.0
H669 H 0.96801 0.45181 0.68815 0.0
H670 H 0.09647 0.44554 0.67304 0.0
H671 H 0.13657 0.39485 0.66838 0.0
C672 C 0.11118 0.04887 0.01681 0.0
C673 C 0.10388 0.09868 0.02349 0.0
C674 C 0.10948 0.13086 0.99173 0.0
C675 C 0.10259 0.08095 0.98515 0.0
N676 N 0.10455 0.99164 0.99057 0.0
N677 N 0.10415 0.18802 0.01803 0.0
C678 C 0.10711 0.03961 0.99746 0.0
C679 C 0.10679 0.14008 0.01112 0.0
N680 N 0.12051 0.01065 0.02899 0.0
N681 N 0.11708 0.16916 0.97943 0.0
H682 H 0.10506 0.19519 0.03223 0.0
H683 H 0.09994 0.22016 0.00992 0.0
H684 H 0.12077 0.16255 0.96529 0.0
H685 H 0.12469 0.20628 0.98324 0.0
H686 H 0.12855 0.97373 0.02504 0.0
H687 H 0.12527 0.01707 0.04309 0.0
H688 H 0.10145 0.95942 0.99872 0.0
H689 H 0.10426 0.98448 0.97636 0.0
C690 C 0.31474 0.9203 0.2639 0.0
C691 C 0.26491 0.91839 0.27111 0.0
C692 C 0.22971 0.92422 0.23987 0.0
C693 C 0.27884 0.91534 0.23273 0.0
N694 N 0.36865 0.91936 0.23648 0.0
N695 N 0.1766 0.9346 0.26722 0.0
C696 C 0.32169 0.91884 0.24436 0.0
C697 C 0.22289 0.92631 0.25939 0.0
N698 N 0.35488 0.92126 0.27574 0.0
N699 N 0.18975 0.92779 0.22801 0.0
H700 H 0.17198 0.9373 0.28154 0.0
H701 H 0.14364 0.9416 0.25987 0.0
H702 H 0.19444 0.92947 0.21374 0.0
H703 H 0.15218 0.93017 0.23208 0.0
H704 H 0.39252 0.9194 0.27172 0.0
H705 H 0.35046 0.92608 0.28992 0.0
H706 H 0.40241 0.9215 0.24375 0.0
H707 H 0.3736 0.91986 0.22214 0.0
C708 C 0.41751 0.13058 0.51625 0.0
C709 C 0.42758 0.08174 0.52334 0.0
C710 C 0.42039 0.04594 0.49217 0.0
C711 C 0.42371 0.09554 0.48493 0.0
N712 N 0.41644 0.18508 0.48916 0.0
N713 N 0.42882 0.99187 0.51923 0.0
C714 C 0.41814 0.13788 0.49675 0.0
C715 C 0.42465 0.03892 0.51162 0.0
N716 N 0.409 0.16977 0.52813 0.0
N717 N 0.41505 0.00592 0.4804 0.0
H718 H 0.42916 0.98637 0.53353 0.0
H719 H 0.43265 0.95872 0.51164 0.0
H720 H 0.411 0.01049 0.46619 0.0
H721 H 0.41038 0.96873 0.48467 0.0
H722 H 0.39936 0.20607 0.52396 0.0
H723 H 0.40697 0.16487 0.54239 0.0
H724 H 0.41831 0.21844 0.49673 0.0
H725 H 0.41412 0.19057 0.47488 0.0
C726 C 0.20892 0.23867 0.74504 0.0
C727 C 0.25154 0.24015 0.7332 0.0
C728 C 0.30802 0.23307 0.75978 0.0
C729 C 0.26591 0.24053 0.7716 0.0
N730 N 0.17636 0.23029 0.77633 0.0
N731 N 0.3392 0.21981 0.72848 0.0
C732 C 0.21621 0.23587 0.76451 0.0
C733 C 0.30035 0.23018 0.74032 0.0
N734 N 0.1618 0.2431 0.73752 0.0
N735 N 0.35533 0.23167 0.76731 0.0
H736 H 0.33388 0.21604 0.71428 0.0
H737 H 0.37551 0.21034 0.73271 0.0
H738 H 0.36097 0.23093 0.7816 0.0
H739 H 0.38859 0.23216 0.75964 0.0
H740 H 0.12899 0.24855 0.74519 0.0
H741 H 0.15606 0.24245 0.72323 0.0
H742 H 0.13931 0.22447 0.77205 0.0
H743 H 0.18098 0.2263 0.79054 0.0
C744 C 0.7981 0.4355 0.7684 0.0
C745 C 0.74833 0.42483 0.77447 0.0
C746 C 0.718 0.43128 0.7425 0.0
C747 C 0.76869 0.42721 0.73637 0.0
N748 N 0.85732 0.43514 0.74263 0.0
N749 N 0.65943 0.42179 0.76824 0.0
C750 C 0.80886 0.43365 0.74911 0.0
C751 C 0.70765 0.42694 0.76177 0.0
N752 N 0.83491 0.44582 0.78107 0.0
N753 N 0.68013 0.43789 0.72993 0.0
H754 H 0.65142 0.42137 0.78238 0.0
H755 H 0.62794 0.41686 0.75983 0.0
H756 H 0.68717 0.44305 0.7159 0.0
H757 H 0.64246 0.44341 0.7335 0.0
H758 H 0.87169 0.45593 0.77762 0.0
H759 H 0.82724 0.44917 0.79514 0.0
H760 H 0.88922 0.43371 0.75101 0.0
H761 H 0.86534 0.43672 0.7285 0.0
C762 C 0.72861 0.74021 0.24824 0.0
C763 C 0.77045 0.74597 0.2362 0.0
C764 C 0.82818 0.74551 0.26259 0.0
C765 C 0.78594 0.74819 0.27461 0.0
N766 N 0.69823 0.72863 0.27972 0.0
N767 N 0.8595 0.73536 0.23114 0.0
C768 C 0.73683 0.73826 0.2677 0.0
C769 C 0.82021 0.74154 0.24316 0.0
N770 N 0.68105 0.73962 0.24095 0.0
N771 N 0.87557 0.74996 0.26986 0.0
H772 H 0.85395 0.73154 0.21694 0.0
H773 H 0.89668 0.72935 0.23522 0.0
H774 H 0.88173 0.75031 0.28412 0.0
H775 H 0.9082 0.75425 0.26198 0.0
H776 H 0.64813 0.7416 0.24879 0.0
H777 H 0.67493 0.73814 0.2267 0.0
H778 H 0.66187 0.7188 0.27563 0.0
H779 H 0.70388 0.72556 0.29392 0.0
C780 C 0.61137 0.53739 0.49758 0.0
C781 C 0.60797 0.57873 0.4852 0.0
C782 C 0.6109 0.63796 0.51117 0.0
C783 C 0.60666 0.59663 0.52349 0.0
N784 N 0.62122 0.50844 0.5293 0.0
N785 N 0.62398 0.66699 0.47964 0.0
C786 C 0.61379 0.5467 0.51696 0.0
C787 C 0.61492 0.62867 0.49182 0.0
N788 N 0.60943 0.48939 0.49067 0.0
N789 N 0.60816 0.68595 0.51804 0.0
H790 H 0.62852 0.66084 0.46552 0.0
H791 H 0.63215 0.70387 0.48361 0.0
H792 H 0.60815 0.6932 0.53224 0.0
H793 H 0.60459 0.71809 0.50987 0.0
H794 H 0.6057 0.45716 0.49877 0.0
H795 H 0.61044 0.48219 0.47647 0.0
H796 H 0.6291 0.47136 0.52552 0.0
H797 H 0.62423 0.51489 0.54347 0.0
C798 C 0.92065 0.54123 0.98935 0.0
C799 C 0.93186 0.59026 0.98265 0.0
C800 C 0.92152 0.62465 0.0139 0.0
C801 C 0.92548 0.57484 0.0209 0.0
N802 N 0.91786 0.48556 0.01611 0.0
N803 N 0.93342 0.67997 0.9874 0.0
C804 C 0.92024 0.53305 0.0088 0.0
C805 C 0.9281 0.63256 0.99459 0.0
N806 N 0.91188 0.50275 0.9772 0.0
N807 N 0.91265 0.66398 0.02568 0.0
H808 H 0.93515 0.68633 0.97316 0.0
H809 H 0.9373 0.71251 0.99536 0.0
H810 H 0.90519 0.65873 0.03968 0.0
H811 H 0.90717 0.70105 0.02138 0.0
H812 H 0.90155 0.46641 0.98113 0.0
H813 H 0.91002 0.50845 0.96298 0.0
H814 H 0.92003 0.45253 0.00835 0.0
H815 H 0.91471 0.47959 0.03035 0.0
C816 C 0.19785 0.00445 0.14578 0.0
C817 C 0.22793 0.96901 0.13592 0.0
C818 C 0.18557 0.99337 0.10696 0.0
C819 C 0.15124 0.02426 0.1171 0.0
N820 N 0.14347 0.07787 0.14394 0.0
N821 N 0.26993 0.95899 0.1064 0.0
C822 C 0.16289 0.03533 0.13592 0.0
C823 C 0.22782 0.97189 0.11625 0.0
N824 N 0.20398 0.0106 0.16438 0.0
N825 N 0.17891 0.98392 0.08858 0.0
H826 H 0.30475 0.95272 0.11269 0.0
H827 H 0.27275 0.96355 0.09212 0.0
H828 H 0.15416 0.00362 0.08018 0.0
H829 H 0.19842 0.95534 0.08168 0.0
H830 H 0.17754 0.02882 0.17272 0.0
H831 H 0.23617 0.99858 0.17139 0.0
H832 H 0.15347 0.0905 0.15708 0.0
H833 H 0.12243 0.10421 0.13651 0.0
C834 C 0.36864 0.94851 0.3736 0.0
C835 C 0.3188 0.96345 0.36858 0.0
C836 C 0.32149 0.03025 0.39242 0.0
C837 C 0.37037 0.01398 0.39788 0.0
N838 N 0.44495 0.96497 0.391 0.0
N839 N 0.25415 0.02716 0.36965 0.0
C840 C 0.39542 0.97575 0.38753 0.0
C841 C 0.29723 0.007 0.37696 0.0
N842 N 0.38962 0.90628 0.366 0.0
N843 N 0.29797 0.06783 0.40213 0.0
H844 H 0.23651 0.01199 0.35803 0.0
H845 H 0.2386 0.06141 0.3738 0.0
H846 H 0.31609 0.089 0.41233 0.0
H847 H 0.25994 0.07686 0.40065 0.0
H848 H 0.42084 0.88787 0.37155 0.0
H849 H 0.37487 0.8881 0.35453 0.0
H850 H 0.46744 0.94312 0.3823 0.0
H851 H 0.46508 0.98075 0.40187 0.0
C852 C 0.37564 0.11371 0.63735 0.0
C853 C 0.40023 0.14031 0.62274 0.0
C854 C 0.34995 0.2153 0.63092 0.0
C855 C 0.33139 0.19082 0.64706 0.0
N856 N 0.3397 0.12015 0.66797 0.0
N857 N 0.42006 0.22212 0.60978 0.0
C858 C 0.34791 0.14096 0.65094 0.0
C859 C 0.38988 0.19272 0.62061 0.0
N860 N 0.37709 0.0622 0.63812 0.0
N861 N 0.32869 0.25925 0.62495 0.0
H862 H 0.45254 0.20836 0.60353 0.0
H863 H 0.4166 0.2613 0.6091 0.0
H864 H 0.29778 0.27578 0.63144 0.0
H865 H 0.3382 0.27599 0.61237 0.0
H866 H 0.35567 0.04141 0.64752 0.0
H867 H 0.39474 0.03994 0.62819 0.0
H868 H 0.35531 0.08572 0.67196 0.0
H869 H 0.32282 0.13978 0.67884 0.0
C870 C 0.10645 0.19744 0.87695 0.0
C871 C 0.12415 0.15656 0.88795 0.0
C872 C 0.21057 0.17309 0.87674 0.0
C873 C 0.1935 0.21681 0.86708 0.0
N874 N 0.12554 0.27604 0.86172 0.0
N875 N 0.19439 0.10925 0.90013 0.0
C876 C 0.14155 0.23032 0.86813 0.0
C877 C 0.17669 0.14589 0.88852 0.0
N878 N 0.05579 0.20507 0.87463 0.0
N879 N 0.2585 0.15562 0.87384 0.0
H880 H 0.17086 0.0863 0.90806 0.0
H881 H 0.2326 0.10394 0.9029 0.0
H882 H 0.28398 0.17304 0.86491 0.0
H883 H 0.27154 0.12111 0.87878 0.0
H884 H 0.04095 0.22941 0.86471 0.0
H885 H 0.02819 0.18475 0.8816 0.0
H886 H 0.09012 0.29097 0.86478 0.0
H887 H 0.14865 0.30129 0.85478 0.0
C888 C 0.80597 0.12117 0.8969 0.0
C889 C 0.84512 0.09596 0.88731 0.0
C890 C 0.80903 0.12112 0.85778 0.0
C891 C 0.77964 0.15701 0.86746 0.0
N892 N 0.74068 0.18562 0.89553 0.0
N893 N 0.87919 0.062 0.85918 0.0
C894 C 0.77384 0.15401 0.88685 0.0
C895 C 0.84408 0.09148 0.86784 0.0
N896 N 0.80181 0.1154 0.9156 0.0
N897 N 0.80494 0.11807 0.839 0.0
H898 H 0.90408 0.03912 0.8666 0.0
H899 H 0.88414 0.06041 0.84492 0.0
H900 H 0.77926 0.14031 0.83168 0.0
H901 H 0.82379 0.09161 0.8309 0.0
H902 H 0.77294 0.13093 0.92353 0.0
H903 H 0.82574 0.09148 0.92298 0.0
H904 H 0.73774 0.18945 0.9098 0.0
H905 H 0.71605 0.20878 0.88812 0.0
C906 C 0.67619 0.11554 0.64213 0.0
C907 C 0.68143 0.11165 0.6228 0.0
C908 C 0.76163 0.15693 0.62472 0.0
C909 C 0.74814 0.17327 0.64272 0.0
N910 N 0.68767 0.17078 0.66814 0.0
N911 N 0.73059 0.12695 0.59522 0.0
C912 C 0.70494 0.15222 0.65165 0.0
C913 C 0.72535 0.13057 0.61396 0.0
N914 N 0.64122 0.08654 0.65105 0.0
N915 N 0.80837 0.16806 0.61786 0.0
H916 H 0.70511 0.10739 0.5869 0.0
H917 H 0.75883 0.14556 0.58786 0.0
H918 H 0.83537 0.18729 0.62569 0.0
H919 H 0.82174 0.15401 0.60532 0.0
H920 H 0.63813 0.08517 0.66542 0.0
H921 H 0.61921 0.06004 0.644 0.0
H922 H 0.6532 0.16005 0.67389 0.0
H923 H 0.70449 0.20032 0.67531 0.0
C924 C 0.71022 0.05484 0.3592 0.0
C925 C 0.73389 0.0135 0.36801 0.0
C926 C 0.7008 0.03897 0.39793 0.0
C927 C 0.67194 0.07676 0.38881 0.0
N928 N 0.6623 0.13249 0.36291 0.0
N929 N 0.76903 0.97807 0.39561 0.0
C930 C 0.68195 0.08917 0.37014 0.0
C931 C 0.7357 0.01039 0.38744 0.0
N932 N 0.71173 0.0588 0.34039 0.0
N933 N 0.69139 0.02682 0.41598 0.0
H934 H 0.79424 0.95636 0.38784 0.0
H935 H 0.77504 0.97661 0.40983 0.0
H936 H 0.6664 0.04667 0.42437 0.0
H937 H 0.70652 0.99515 0.42245 0.0
H938 H 0.69045 0.0847 0.3329 0.0
H939 H 0.73352 0.03467 0.33223 0.0
H940 H 0.67043 0.14554 0.34967 0.0
H941 H 0.64124 0.15756 0.37098 0.0
C942 C 0.81014 0.03891 0.14859 0.0
C943 C 0.7822 0.0018 0.13892 0.0
C944 C 0.81191 0.03391 0.10936 0.0
C945 C 0.84787 0.06299 0.1192 0.0
N946 N 0.87179 0.10707 0.14682 0.0
N947 N 0.74168 0.97454 0.11109 0.0
C948 C 0.84299 0.07092 0.13844 0.0
C949 C 0.77734 0.00381 0.11952 0.0
N950 N 0.80797 0.04006 0.16745 0.0
N951 N 0.81385 0.03255 0.09049 0.0
H952 H 0.71661 0.9524 0.11876 0.0
H953 H 0.73467 0.97444 0.09695 0.0
H954 H 0.83839 0.05558 0.08297 0.0
H955 H 0.79167 0.00913 0.08228 0.0
H956 H 0.83016 0.0632 0.17576 0.0
H957 H 0.78296 0.01719 0.17484 0.0
H958 H 0.86983 0.11606 0.1608 0.0
H959 H 0.89594 0.13049 0.13929 0.0
C960 C 0.68373 0.43831 0.62235 0.0
C961 C 0.68961 0.44635 0.64181 0.0
C962 C 0.66107 0.53391 0.63763 0.0
C963 C 0.64664 0.52285 0.61918 0.0
N964 N 0.66884 0.47507 0.59206 0.0
N965 N 0.67987 0.5021 0.66815 0.0
C966 C 0.66507 0.47806 0.61087 0.0
C967 C 0.6784 0.49463 0.64944 0.0
N968 N 0.69481 0.39229 0.61482 0.0
N969 N 0.66006 0.58288 0.64357 0.0
H970 H 0.69068 0.47454 0.6776 0.0
H971 H 0.6659 0.53445 0.67455 0.0
H972 H 0.65056 0.61256 0.63474 0.0
H973 H 0.67458 0.59464 0.65624 0.0
H974 H 0.68389 0.38145 0.60157 0.0
H975 H 0.71297 0.36368 0.62204 0.0
H976 H 0.68531 0.44495 0.58506 0.0
H977 H 0.66238 0.50587 0.58347 0.0
C978 C 0.91158 0.45734 0.88923 0.0
C979 C 0.90432 0.5103 0.88712 0.0
C980 C 0.82962 0.49234 0.8675 0.0
C981 C 0.83952 0.43978 0.86866 0.0
N982 N 0.89643 0.37309 0.87778 0.0
N983 N 0.85951 0.57804 0.87178 0.0
C984 C 0.88205 0.4226 0.87883 0.0
C985 C 0.86443 0.52768 0.87543 0.0
N986 N 0.94728 0.43942 0.90105 0.0
N987 N 0.78547 0.50857 0.85973 0.0
H988 H 0.88118 0.60576 0.87815 0.0
H989 H 0.83593 0.59226 0.86152 0.0
H990 H 0.759 0.4841 0.85391 0.0
H991 H 0.77287 0.54575 0.86042 0.0
H992 H 0.94785 0.40235 0.90586 0.0
H993 H 0.97488 0.46203 0.90678 0.0
H994 H 0.93086 0.35957 0.88266 0.0
H995 H 0.87644 0.34593 0.87049 0.0
C996 C 0.92264 0.69733 0.12121 0.0
C997 C 0.9031 0.64856 0.11693 0.0
C998 C 0.82697 0.6682 0.13547 0.0
C999 C 0.84828 0.71536 0.1405 0.0
N1000 N 0.92108 0.76941 0.14181 0.0
N1001 N 0.83846 0.58537 0.12169 0.0
C1002 C 0.89748 0.72821 0.13443 0.0
C1003 C 0.85591 0.63326 0.1247 0.0
N1004 N 0.9648 0.71512 0.11251 0.0
N1005 N 0.77827 0.6576 0.14043 0.0
H1006 H 0.85582 0.5601 0.11266 0.0
H1007 H 0.80803 0.56972 0.12879 0.0
H1008 H 0.75713 0.68116 0.14903 0.0
H1009 H 0.75789 0.627 0.13532 0.0
H1010 H 0.9765 0.7526 0.1133 0.0
H1011 H 0.98579 0.69421 0.10317 0.0
H1012 H 0.95908 0.77785 0.1397 0.0
H1013 H 0.90413 0.792 0.15178 0.0
C1014 C 0.6714 0.67961 0.35854 0.0
C1015 C 0.70189 0.71553 0.36806 0.0
C1016 C 0.68126 0.67335 0.39761 0.0
C1017 C 0.64624 0.6415 0.38824 0.0
N1018 N 0.63728 0.59511 0.35963 0.0
N1019 N 0.75453 0.72781 0.39489 0.0
C1020 C 0.64987 0.63871 0.36862 0.0
C1021 C 0.71233 0.70688 0.38714 0.0
N1022 N 0.66212 0.6837 0.34005 0.0
N1023 N 0.68682 0.67064 0.41634 0.0
H1024 H 0.78094 0.74798 0.38714 0.0
H1025 H 0.76683 0.71985 0.40825 0.0
H1026 H 0.67623 0.6392 0.42405 0.0
H1027 H 0.704 0.69907 0.42408 0.0
H1028 H 0.63416 0.66258 0.33345 0.0
H1029 H 0.68092 0.70832 0.3313 0.0
H1030 H 0.64262 0.58995 0.34547 0.0
H1031 H 0.6299 0.56158 0.36669 0.0
C1032 C 0.31392 0.6375 0.39736 0.0
C1033 C 0.35432 0.61347 0.38794 0.0
C1034 C 0.32271 0.64278 0.35823 0.0
C1035 C 0.28547 0.67127 0.36781 0.0
N1036 N 0.23347 0.68108 0.39471 0.0
N1037 N 0.38579 0.57645 0.35992 0.0
C1038 C 0.2765 0.66265 0.38681 0.0
C1039 C 0.35419 0.60987 0.36847 0.0
N1040 N 0.31362 0.63998 0.41623 0.0
N1041 N 0.33135 0.65062 0.33982 0.0
H1042 H 0.40939 0.55243 0.36743 0.0
H1043 H 0.38488 0.56913 0.34577 0.0
H1044 H 0.30882 0.67366 0.33162 0.0
H1045 H 0.36247 0.63603 0.33282 0.0
H1046 H 0.28844 0.66218 0.42373 0.0
H1047 H 0.3402 0.62163 0.42443 0.0
H1048 H 0.22274 0.67339 0.40828 0.0
H1049 H 0.20629 0.70016 0.38693 0.0
C1050 C 0.24029 0.63993 0.13455 0.0
C1051 C 0.25864 0.68435 0.12582 0.0
C1052 C 0.22039 0.65928 0.0966 0.0
C1053 C 0.19777 0.61769 0.10583 0.0
N1054 N 0.20138 0.55753 0.13051 0.0
N1055 N 0.28345 0.72582 0.09776 0.0
C1056 C 0.21394 0.60393 0.12372 0.0
C1057 C 0.25516 0.68981 0.10644 0.0
N1058 N 0.24373 0.63427 0.15328 0.0
N1059 N 0.20528 0.67244 0.0792 0.0
H1060 H 0.30877 0.74869 0.10502 0.0
H1061 H 0.28544 0.72946 0.08344 0.0
H1062 H 0.18042 0.6508 0.07135 0.0
H1063 H 0.2156 0.70619 0.07286 0.0
H1064 H 0.2254 0.60566 0.16053 0.0
H1065 H 0.2627 0.65965 0.1618 0.0
H1066 H 0.21492 0.54355 0.14302 0.0
H1067 H 0.18129 0.53135 0.12258 0.0
C1068 C 0.18049 0.5789 0.86225 0.0
C1069 C 0.18508 0.57766 0.88165 0.0
C1070 C 0.25969 0.52431 0.87879 0.0
C1071 C 0.24478 0.51309 0.86047 0.0
N1072 N 0.1937 0.5332 0.83372 0.0
N1073 N 0.23315 0.55595 0.90874 0.0
C1074 C 0.20726 0.5428 0.85161 0.0
C1075 C 0.22715 0.55388 0.89001 0.0
N1076 N 0.14801 0.61253 0.85436 0.0
N1077 N 0.30345 0.50427 0.8855 0.0
H1078 H 0.21048 0.5785 0.91716 0.0
H1079 H 0.25941 0.53437 0.91595 0.0
H1080 H 0.32702 0.48208 0.87723 0.0
H1081 H 0.31834 0.5132 0.89842 0.0
H1082 H 0.14506 0.61797 0.84014 0.0
H1083 H 0.12766 0.63833 0.86237 0.0
H1084 H 0.16225 0.54925 0.82741 0.0
H1085 H 0.21254 0.50745 0.82532 0.0
C1086 C 0.33261 0.53597 0.65402 0.0
C1087 C 0.29823 0.50556 0.6439 0.0
C1088 C 0.32065 0.54806 0.61522 0.0
C1089 C 0.36038 0.57227 0.62486 0.0
N1090 N 0.39306 0.60518 0.65327 0.0
N1091 N 0.24652 0.49391 0.61703 0.0
C1092 C 0.3618 0.57221 0.64435 0.0
C1093 C 0.28734 0.51619 0.62519 0.0
N1094 N 0.3403 0.52707 0.67242 0.0
N1095 N 0.31776 0.55248 0.59643 0.0
H1096 H 0.22222 0.47025 0.62442 0.0
H1097 H 0.23447 0.50187 0.60366 0.0
H1098 H 0.34108 0.57698 0.58903 0.0
H1099 H 0.29335 0.53146 0.58818 0.0
H1100 H 0.369 0.54375 0.68011 0.0
H1101 H 0.31858 0.50146 0.67994 0.0
H1102 H 0.39409 0.60957 0.66757 0.0
H1103 H 0.41489 0.63141 0.64602 0.0
C1104 C 0.02054 0.86475 0.04061 0.0
C1105 C 0.02058 0.88935 0.05803 0.0
C1106 C 0.0332 0.80801 0.07332 0.0
C1107 C 0.02569 0.7831 0.05623 0.0
N1108 N 0.00449 0.78699 0.02393 0.0
N1109 N 0.0163 0.88299 0.09128 0.0
C1110 C 0.01724 0.81129 0.03991 0.0
C1111 C 0.02417 0.86065 0.07452 0.0
N1112 N 0.02542 0.89249 0.02481 0.0
N1113 N 0.05083 0.78172 0.08819 0.0
H1114 H 0.00653 0.92086 0.09261 0.0
H1115 H 0.01402 0.86272 0.1036 0.0
H1116 H 0.05966 0.74339 0.08752 0.0
H1117 H 0.06141 0.79903 0.10055 0.0
H1118 H 0.03002 0.87631 0.01178 0.0
H1119 H 0.03014 0.93159 0.02498 0.0
H1120 H 0.99331 0.80586 0.01198 0.0
H1121 H 0.00055 0.74784 0.02318 0.0
C1122 C 0.486 0.8229 0.29234 0.0
C1123 C 0.46195 0.82669 0.3098 0.0
C1124 C 0.54288 0.84571 0.32426 0.0
C1125 C 0.56779 0.83521 0.30736 0.0
N1126 N 0.56402 0.80603 0.27588 0.0
N1127 N 0.46905 0.8295 0.34297 0.0
C1128 C 0.53958 0.82163 0.2915 0.0
C1129 C 0.49083 0.83465 0.32597 0.0
N1130 N 0.45763 0.82214 0.27659 0.0
N1131 N 0.56833 0.86871 0.33831 0.0
H1132 H 0.43147 0.81859 0.34464 0.0
H1133 H 0.48966 0.83066 0.35523 0.0
H1134 H 0.60521 0.88158 0.33668 0.0
H1135 H 0.55091 0.88066 0.35048 0.0
H1136 H 0.4732 0.82403 0.26337 0.0
H1137 H 0.41832 0.82456 0.2768 0.0
H1138 H 0.54536 0.79118 0.26442 0.0
H1139 H 0.60329 0.8037 0.27506 0.0
C1140 C 0.51802 0.3152 0.5776 0.0
C1141 C 0.51776 0.28903 0.56053 0.0
C1142 C 0.51848 0.36923 0.54381 0.0
C1143 C 0.51394 0.39515 0.56086 0.0
N1144 N 0.49802 0.39288 0.59362 0.0
N1145 N 0.50975 0.28962 0.52745 0.0
C1146 C 0.51049 0.36814 0.57769 0.0
C1147 C 0.51564 0.31569 0.54361 0.0
N1148 N 0.52778 0.28979 0.59362 0.0
N1149 N 0.5271 0.39591 0.52797 0.0
H1150 H 0.50681 0.25033 0.52708 0.0
H1151 H 0.50343 0.30694 0.51474 0.0
H1152 H 0.5302 0.43519 0.52787 0.0
H1153 H 0.53542 0.37907 0.51531 0.0
H1154 H 0.53314 0.30771 0.6063 0.0
H1155 H 0.53539 0.25121 0.5939 0.0
H1156 H 0.49036 0.37442 0.60603 0.0
H1157 H 0.49026 0.43141 0.59392 0.0
C1158 C 0.03516 0.33647 0.7899 0.0
C1159 C 0.06181 0.34319 0.80669 0.0
C1160 C 0.98289 0.33734 0.82399 0.0
C1161 C 0.95556 0.33577 0.80715 0.0
N1162 N 0.9549 0.34435 0.77404 0.0
N1163 N 0.05999 0.36351 0.83911 0.0
C1164 C 0.98154 0.33843 0.79004 0.0
C1165 C 0.03535 0.34764 0.82359 0.0
N1166 N 0.06109 0.32655 0.77398 0.0
N1167 N 0.95947 0.32616 0.84028 0.0
H1168 H 0.09819 0.37319 0.83907 0.0
H1169 H 0.04138 0.3719 0.85145 0.0
H1170 H 0.92183 0.31513 0.84089 0.0
H1171 H 0.97884 0.32221 0.85273 0.0
H1172 H 0.0435 0.31674 0.7616 0.0
H1173 H 0.10036 0.32356 0.77362 0.0
H1174 H 0.97192 0.35097 0.76127 0.0
H1175 H 0.91563 0.34765 0.77387 0.0
C1176 C 0.02104 0.31008 0.96511 0.0
C1177 C 0.01878 0.28339 0.94812 0.0
C1178 C 0.03414 0.36183 0.93122 0.0
C1179 C 0.0301 0.38909 0.94798 0.0
N1180 N 0.01457 0.39121 0.98065 0.0
N1181 N 0.01323 0.28507 0.91484 0.0
C1182 C 0.02207 0.36374 0.96491 0.0
C1183 C 0.02283 0.30955 0.93108 0.0
N1184 N 0.02405 0.2839 0.98133 0.0
N1185 N 0.05006 0.38581 0.91556 0.0
H1186 H 0.00231 0.24735 0.91432 0.0
H1187 H 0.011 0.3034 0.90213 0.0
H1188 H 0.05905 0.42416 0.91533 0.0
H1189 H 0.0584 0.36689 0.90329 0.0
H1190 H 0.03019 0.30099 0.9941 0.0
H1191 H 0.02503 0.24454 0.98176 0.0
H1192 H 0.00368 0.37527 0.9932 0.0
H1193 H 0.01564 0.43062 0.98074 0.0
C1194 C 0.05412 0.83455 0.21077 0.0
C1195 C 0.07685 0.8373 0.19304 0.0
C1196 C 0.99441 0.85323 0.17909 0.0
C1197 C 0.97116 0.84382 0.19638 0.0
N1198 N 0.97726 0.82106 0.22843 0.0
N1199 N 0.06843 0.84123 0.15992 0.0
C1200 C 0.00063 0.83336 0.21221 0.0
C1201 C 0.04697 0.84468 0.17705 0.0
N1202 N 0.08391 0.83451 0.22617 0.0
N1203 N 0.96643 0.87215 0.16487 0.0
H1204 H 0.10672 0.8338 0.15796 0.0
H1205 H 0.04752 0.84123 0.14772 0.0
H1206 H 0.92824 0.8807 0.16633 0.0
H1207 H 0.98202 0.88396 0.15237 0.0
H1208 H 0.06975 0.83709 0.23958 0.0
H1209 H 0.12321 0.83652 0.22544 0.0
H1210 H 0.99645 0.80814 0.24006 0.0
H1211 H 0.93802 0.82026 0.22978 0.0
C1212 C 0.51874 0.81469 0.4293 0.0
C1213 C 0.52258 0.7886 0.44635 0.0
C1214 C 0.52261 0.8693 0.46298 0.0
C1215 C 0.52348 0.89527 0.44588 0.0
N1216 N 0.53357 0.893 0.41283 0.0
N1217 N 0.53776 0.79052 0.47911 0.0
C1218 C 0.52473 0.86803 0.42902 0.0
C1219 C 0.52734 0.81586 0.46313 0.0
N1220 N 0.50704 0.78884 0.41353 0.0
N1221 N 0.51552 0.89574 0.47898 0.0
H1222 H 0.5427 0.75145 0.47947 0.0
H1223 H 0.5462 0.8085 0.49155 0.0
H1224 H 0.51072 0.93484 0.47917 0.0
H1225 H 0.50977 0.87863 0.49178 0.0
H1226 H 0.4989 0.80651 0.40102 0.0
H1227 H 0.50074 0.75 0.41339 0.0
H1228 H 0.53941 0.87467 0.40025 0.0
H1229 H 0.53995 0.93183 0.41233 0.0
C1230 C 0.54652 0.3307 0.71579 0.0
C1231 C 0.57264 0.32691 0.69876 0.0
C1232 C 0.49238 0.33221 0.68205 0.0
C1233 C 0.46592 0.33079 0.69909 0.0
N1234 N 0.46723 0.3189 0.73206 0.0
N1235 N 0.57002 0.31175 0.66598 0.0
C1236 C 0.49291 0.32731 0.71597 0.0
C1237 C 0.54544 0.32425 0.68193 0.0
N1238 N 0.57306 0.33874 0.7317 0.0
N1239 N 0.46726 0.34328 0.66608 0.0
H1240 H 0.60836 0.3029 0.66574 0.0
H1241 H 0.55144 0.30486 0.65354 0.0
H1242 H 0.42878 0.3515 0.66577 0.0
H1243 H 0.48553 0.34932 0.6535 0.0
H1244 H 0.55601 0.34652 0.74437 0.0
H1245 H 0.61233 0.34214 0.73184 0.0
H1246 H 0.48499 0.31155 0.74462 0.0
H1247 H 0.42809 0.31438 0.73246 0.0
loop_
_geom_bond_atom_site_label_1
_geom_bond_atom_site_label_2
_geom_bond_distance
_geom_bond_site_symmetry_2
_ccdc_geom_bond_type
C0 C1 1.351 . S
C0 N3 1.368 . S
C0 H5 0.925 1_465 S
C1 C0 1.351 . S
C1 N2 1.373 . S
C1 H29 0.930 1_455 S
N2 C1 1.373 . S
N2 C4 1.340 . S
N3 C0 1.368 . S
N3 C4 1.321 . S
N3 Co6 2.135 1_565 S
C4 N2 1.340 . S
C4 N3 1.321 . S
C4 H28 0.930 . S
H5 C0 0.925 1_645 S
Co6 N3 2.135 1_545 S
Co6 N9 2.121 . S
Co6 O14 2.055 . S
Co6 O17 2.039 . S
Co6 N20 2.140 1_455 S
C7 O8 1.227 . S
C7 O17 1.265 . S
O8 C7 1.227 . S
N9 Co6 2.121 . S
N9 C11 1.375 . S
N9 C12 1.313 . S
C10 C11 1.338 . S
C10 N13 1.377 . S
C10 H30 0.930 . S
C11 N9 1.375 . S
C11 C10 1.338 . S
C11 H15 0.931 . S
C12 N9 1.313 . S
C12 N13 1.344 . S
C12 H16 0.930 . S
N13 C10 1.377 . S
N13 C12 1.344 . S
O14 Co6 2.055 . S
O14 C18 1.253 . S
H15 C11 0.931 . S
H16 C12 0.930 . S
O17 Co6 2.039 . S
O17 C7 1.265 . S
C18 O14 1.253 . S
C18 O19 1.227 1_455 S
O19 C18 1.227 1_655 S
N20 Co6 2.140 1_655 S
N20 C23 1.346 . S
N20 C24 1.345 . S
C21 C22 1.387 . S
C21 C25 1.391 . S
C22 C21 1.387 . S
C22 C23 1.369 . S
C22 H31 0.929 1_545 S
C23 N20 1.346 . S
C23 C22 1.369 . S
C23 H26 0.928 1_545 S
C24 N20 1.345 . S
C24 C25 1.371 . S
C24 H27 0.931 . S
C25 C21 1.391 . S
C25 C24 1.371 . S
C25 H32 0.930 . S
H26 C23 0.928 1_565 S
H27 C24 0.931 . S
H28 C4 0.930 . S
H29 C1 0.930 1_655 S
H30 C10 0.930 . S
H31 C22 0.929 1_565 S
H32 C25 0.930 . S
C33 C34 1.351 . S
C33 N36 1.368 . S
C33 H38 0.931 . S
C34 C33 1.351 . S
C34 N35 1.373 . S
C34 H62 0.930 . S
N35 C34 1.373 . S
N35 C37 1.340 . S
N36 C33 1.368 . S
N36 C37 1.321 . S
N36 Co39 2.135 . S
C37 N35 1.340 . S
C37 N36 1.321 . S
C37 H61 0.930 . S
H38 C33 0.931 . S
Co39 N36 2.135 . S
Co39 N42 2.121 . S
Co39 O47 2.055 . S
Co39 O50 2.039 . S
Co39 N53 2.140 . S
C40 O41 1.227 . S
C40 O50 1.265 . S
O41 C40 1.227 . S
N42 Co39 2.121 . S
N42 C44 1.375 . S
N42 C45 1.313 . S
C43 C44 1.338 . S
C43 N46 1.377 . S
C43 H63 0.930 . S
C44 N42 1.375 . S
C44 C43 1.338 . S
C44 H48 0.931 . S
C45 N42 1.313 . S
C45 N46 1.344 . S
C45 H49 0.930 . S
N46 C43 1.377 . S
N46 C45 1.344 . S
O47 Co39 2.055 . S
O47 C51 1.253 . S
H48 C44 0.931 . S
H49 C45 0.930 . S
O50 Co39 2.039 . S
O50 C40 1.265 . S
C51 O47 1.253 . S
C51 O52 1.227 . S
O52 C51 1.227 . S
N53 Co39 2.140 . S
N53 C56 1.346 . S
N53 C57 1.345 . S
C54 C55 1.387 . S
C54 C58 1.391 . S
C55 C54 1.387 . S
C55 C56 1.369 . S
C55 H64 0.929 . S
C56 N53 1.346 . S
C56 C55 1.369 . S
C56 H59 0.928 . S
C57 N53 1.345 . S
C57 C58 1.371 . S
C57 H60 0.931 . S
C58 C54 1.391 . S
C58 C57 1.371 . S
C58 H65 0.930 . S
H59 C56 0.928 . S
H60 C57 0.931 . S
H61 C37 0.930 . S
H62 C34 0.930 . S
H63 C43 0.930 . S
H64 C55 0.929 . S
H65 C58 0.930 . S
C66 C67 1.351 . S
C66 N69 1.368 . S
C66 H71 0.931 . S
C67 C66 1.351 . S
C67 N68 1.373 . S
C67 H95 0.930 . S
N68 C67 1.373 . S
N68 C70 1.340 . S
N69 C66 1.368 . S
N69 C70 1.321 . S
N69 Co72 2.135 . S
C70 N68 1.340 . S
C70 N69 1.321 . S
C70 H94 0.930 . S
H71 C66 0.931 . S
Co72 N69 2.135 . S
Co72 N75 2.121 . S
Co72 O80 2.055 . S
Co72 O83 2.039 . S
Co72 N86 2.140 . S
C73 O74 1.227 . S
C73 O83 1.265 . S
O74 C73 1.227 . S
N75 Co72 2.121 . S
N75 C77 1.375 . S
N75 C78 1.313 1_545 S
C76 C77 1.338 1_565 S
C76 N79 1.377 . S
C76 H96 0.930 . S
C77 N75 1.375 . S
C77 C76 1.338 1_545 S
C77 H81 0.931 . S
C78 N75 1.313 1_565 S
C78 N79 1.344 . S
C78 H82 0.930 . S
N79 C76 1.377 . S
N79 C78 1.344 . S
O80 Co72 2.055 . S
O80 C84 1.253 . S
H81 C77 0.931 . S
H82 C78 0.930 . S
O83 Co72 2.039 . S
O83 C73 1.265 . S
C84 O80 1.253 . S
C84 O85 1.227 . S
O85 C84 1.227 . S
N86 Co72 2.140 . S
N86 C89 1.346 . S
N86 C90 1.345 . S
C87 C88 1.387 . S
C87 C91 1.391 . S
C88 C87 1.387 . S
C88 C89 1.369 . S
C88 H97 0.929 . S
C89 N86 1.346 . S
C89 C88 1.369 . S
C89 H92 0.928 . S
C90 N86 1.345 . S
C90 C91 1.371 . S
C90 H93 0.931 . S
C91 C87 1.391 . S
C91 C90 1.371 . S
C91 H98 0.930 . S
H92 C89 0.928 . S
H93 C90 0.931 . S
H94 C70 0.930 . S
H95 C67 0.930 . S
H96 C76 0.930 . S
H97 C88 0.929 . S
H98 C91 0.930 . S
C99 C100 1.351 . S
C99 N102 1.368 . S
C99 H104 0.931 . S
C100 C99 1.351 . S
C100 N101 1.373 . S
C100 H128 0.930 . S
N101 C100 1.373 . S
N101 C103 1.340 . S
N102 C99 1.368 . S
N102 C103 1.321 . S
N102 Co105 2.135 . S
C103 N101 1.340 . S
C103 N102 1.321 . S
C103 H127 0.930 . S
H104 C99 0.931 . S
Co105 N102 2.135 . S
Co105 N108 2.121 . S
Co105 O113 2.055 . S
Co105 O116 2.039 . S
Co105 N119 2.140 . S
C106 O107 1.227 . S
C106 O116 1.265 . S
O107 C106 1.227 . S
N108 Co105 2.121 . S
N108 C110 1.375 . S
N108 C111 1.313 . S
C109 C110 1.338 . S
C109 N112 1.377 . S
C109 H129 0.930 . S
C110 N108 1.375 . S
C110 C109 1.338 . S
C110 H114 0.931 . S
C111 N108 1.313 . S
C111 N112 1.344 . S
C111 H115 0.930 . S
N112 C109 1.377 . S
N112 C111 1.344 . S
O113 Co105 2.055 . S
O113 C117 1.253 . S
H114 C110 0.931 . S
H115 C111 0.930 . S
O116 Co105 2.039 . S
O116 C106 1.265 . S
C117 O113 1.253 . S
C117 O118 1.227 . S
O118 C117 1.227 . S
N119 Co105 2.140 . S
N119 C122 1.346 . S
N119 C123 1.345 . S
C120 C121 1.387 . S
C120 C124 1.391 . S
C121 C120 1.387 . S
C121 C122 1.369 . S
C121 H130 0.929 . S
C122 N119 1.346 . S
C122 C121 1.369 . S
C122 H125 0.928 . S
C123 N119 1.345 . S
C123 C124 1.371 . S
C123 H126 0.931 . S
C124 C120 1.391 . S
C124 C123 1.371 . S
C124 H131 0.930 . S
H125 C122 0.928 . S
H126 C123 0.931 . S
H127 C103 0.930 . S
H128 C100 0.930 . S
H129 C109 0.930 . S
H130 C121 0.929 . S
H131 C124 0.930 . S
C132 C133 1.351 . S
C132 N135 1.368 . S
C132 H137 0.931 1_455 S
C133 C132 1.351 . S
C133 N134 1.373 . S
C133 H161 0.930 1_455 S
N134 C133 1.373 . S
N134 C136 1.340 . S
N135 C132 1.368 . S
N135 C136 1.321 . S
N135 Co138 2.135 . S
C136 N134 1.340 . S
C136 N135 1.321 . S
C136 H160 0.930 . S
H137 C132 0.931 1_655 S
Co138 N135 2.135 . S
Co138 N141 2.121 . S
Co138 O146 2.055 . S
Co138 O149 2.039 . S
Co138 N152 2.140 1_455 S
C139 O140 1.227 . S
C139 O149 1.265 . S
O140 C139 1.227 . S
N141 Co138 2.121 . S
N141 C143 1.375 . S
N141 C144 1.313 1_545 S
C142 C143 1.338 1_565 S
C142 N145 1.377 . S
C142 H162 0.930 . S
C143 N141 1.375 . S
C143 C142 1.338 1_545 S
C143 H147 0.931 . S
C144 N141 1.313 1_565 S
C144 N145 1.344 . S
C144 H148 0.930 . S
N145 C142 1.377 . S
N145 C144 1.344 . S
O146 Co138 2.055 . S
O146 C150 1.253 . S
H147 C143 0.931 . S
H148 C144 0.930 . S
O149 Co138 2.039 . S
O149 C139 1.265 . S
C150 O146 1.253 . S
C150 O151 1.227 1_455 S
O151 C150 1.227 1_655 S
N152 Co138 2.140 1_655 S
N152 C155 1.346 . S
N152 C156 1.345 . S
C153 C154 1.387 . S
C153 C157 1.391 . S
C154 C153 1.387 . S
C154 C155 1.369 . S
C154 H163 0.929 . S
C155 N152 1.346 . S
C155 C154 1.369 . S
C155 H158 0.928 . S
C156 N152 1.345 . S
C156 C157 1.371 . S
C156 H159 0.931 . S
C157 C153 1.391 . S
C157 C156 1.371 . S
C157 H164 0.930 . S
H158 C155 0.928 . S
H159 C156 0.931 . S
H160 C136 0.930 . S
H161 C133 0.930 1_655 S
H162 C142 0.930 . S
H163 C154 0.929 . S
H164 C157 0.930 . S
C165 C166 1.351 . S
C165 N168 1.368 . S
C165 H170 0.931 . S
C166 C165 1.351 . S
C166 N167 1.373 . S
C166 H194 0.930 . S
N167 C166 1.373 . S
N167 C169 1.340 . S
N168 C165 1.368 . S
N168 C169 1.321 . S
N168 Co171 2.135 . S
C169 N167 1.340 . S
C169 N168 1.321 . S
C169 H193 0.930 . S
H170 C165 0.931 . S
Co171 N168 2.135 . S
Co171 N174 2.121 . S
Co171 O179 2.055 . S
Co171 O182 2.039 . S
Co171 N185 2.140 . S
C172 O173 1.227 . S
C172 O182 1.265 . S
O173 C172 1.227 . S
N174 Co171 2.121 . S
N174 C176 1.375 . S
N174 C177 1.313 . S
C175 C176 1.338 . S
C175 N178 1.377 . S
C175 H195 0.930 . S
C176 N174 1.375 . S
C176 C175 1.338 . S
C176 H180 0.931 . S
C177 N174 1.313 . S
C177 N178 1.344 . S
C177 H181 0.930 . S
N178 C175 1.377 . S
N178 C177 1.344 . S
O179 Co171 2.055 . S
O179 C183 1.253 . S
H180 C176 0.931 . S
H181 C177 0.930 . S
O182 Co171 2.039 . S
O182 C172 1.265 . S
C183 O179 1.253 . S
C183 O184 1.227 . S
O184 C183 1.227 . S
N185 Co171 2.140 . S
N185 C188 1.346 . S
N185 C189 1.345 . S
C186 C187 1.387 . S
C186 C190 1.391 . S
C187 C186 1.387 . S
C187 C188 1.369 . S
C187 H196 0.929 . S
C188 N185 1.346 . S
C188 C187 1.369 . S
C188 H191 0.928 . S
C189 N185 1.345 . S
C189 C190 1.371 . S
C189 H192 0.931 . S
C190 C186 1.391 . S
C190 C189 1.371 . S
C190 H197 0.930 . S
H191 C188 0.928 . S
H192 C189 0.931 . S
H193 C169 0.930 . S
H194 C166 0.930 . S
H195 C175 0.930 . S
H196 C187 0.929 . S
H197 C190 0.930 . S
C198 C199 1.351 . S
C198 N201 1.368 . S
C198 H203 0.925 1_565 S
C199 C198 1.351 . S
C199 N200 1.373 . S
C199 H227 0.930 . S
N200 C199 1.373 . S
N200 C202 1.340 . S
N201 C198 1.368 . S
N201 C202 1.321 . S
N201 Co204 2.135 1_565 S
C202 N200 1.340 . S
C202 N201 1.321 . S
C202 H226 0.930 . S
H203 C198 0.925 1_545 S
Co204 N201 2.135 1_545 S
Co204 N207 2.121 . S
Co204 O212 2.055 . S
Co204 O215 2.039 . S
Co204 N218 2.140 . S
C205 O206 1.227 . S
C205 O215 1.265 . S
O206 C205 1.227 . S
N207 Co204 2.121 . S
N207 C209 1.375 . S
N207 C210 1.313 . S
C208 C209 1.338 . S
C208 N211 1.377 . S
C208 H228 0.930 . S
C209 N207 1.375 . S
C209 C208 1.338 . S
C209 H213 0.931 . S
C210 N207 1.313 . S
C210 N211 1.344 . S
C210 H214 0.930 . S
N211 C208 1.377 . S
N211 C210 1.344 . S
O212 Co204 2.055 . S
O212 C216 1.253 . S
H213 C209 0.931 . S
H214 C210 0.930 . S
O215 Co204 2.039 . S
O215 C205 1.265 . S
C216 O212 1.253 . S
C216 O217 1.227 . S
O217 C216 1.227 . S
N218 Co204 2.140 . S
N218 C221 1.346 . S
N218 C222 1.345 . S
C219 C220 1.387 . S
C219 C223 1.391 . S
C220 C219 1.387 . S
C220 C221 1.369 . S
C220 H229 0.929 1_545 S
C221 N218 1.346 . S
C221 C220 1.369 . S
C221 H224 0.928 1_545 S
C222 N218 1.345 . S
C222 C223 1.371 . S
C222 H225 0.931 . S
C223 C219 1.391 . S
C223 C222 1.371 . S
C223 H230 0.930 . S
H224 C221 0.928 1_565 S
H225 C222 0.931 . S
H226 C202 0.930 . S
H227 C199 0.930 . S
H228 C208 0.930 . S
H229 C220 0.929 1_565 S
H230 C223 0.930 . S
C231 C232 1.351 . S
C231 N234 1.368 . S
C231 H236 0.931 . S
C232 C231 1.351 . S
C232 N233 1.373 . S
C232 H260 0.930 . S
N233 C232 1.373 . S
N233 C235 1.340 . S
N234 C231 1.368 . S
N234 C235 1.321 . S
N234 Co237 2.135 . S
C235 N233 1.340 . S
C235 N234 1.321 . S
C235 H259 0.930 . S
H236 C231 0.931 . S
Co237 N234 2.135 . S
Co237 N240 2.121 . S
Co237 O245 2.055 . S
Co237 O248 2.039 . S
Co237 N251 2.140 . S
C238 O239 1.227 . S
C238 O248 1.265 . S
O239 C238 1.227 . S
N240 Co237 2.121 . S
N240 C242 1.375 . S
N240 C243 1.313 . S
C241 C242 1.338 . S
C241 N244 1.377 . S
C241 H261 0.930 . S
C242 N240 1.375 . S
C242 C241 1.338 . S
C242 H246 0.931 . S
C243 N240 1.313 . S
C243 N244 1.344 . S
C243 H247 0.930 . S
N244 C241 1.377 . S
N244 C243 1.344 . S
O245 Co237 2.055 . S
O245 C249 1.253 . S
H246 C242 0.931 . S
H247 C243 0.930 . S
O248 Co237 2.039 . S
O248 C238 1.265 . S
C249 O245 1.253 . S
C249 O250 1.227 . S
O250 C249 1.227 . S
N251 Co237 2.140 . S
N251 C254 1.346 . S
N251 C255 1.345 . S
C252 C253 1.387 . S
C252 C256 1.391 . S
C253 C252 1.387 . S
C253 C254 1.369 . S
C253 H262 0.929 . S
C254 N251 1.346 . S
C254 C253 1.369 . S
C254 H257 0.928 . S
C255 N251 1.345 . S
C255 C256 1.371 . S
C255 H258 0.931 . S
C256 C252 1.391 . S
C256 C255 1.371 . S
C256 H263 0.930 . S
H257 C254 0.928 . S
H258 C255 0.931 . S
H259 C235 0.930 . S
H260 C232 0.930 . S
H261 C241 0.930 . S
H262 C253 0.929 . S
H263 C256 0.930 . S
C264 C265 1.351 . S
C264 N267 1.368 . S
C264 H269 0.931 . S
C265 C264 1.351 . S
C265 N266 1.373 . S
C265 H293 0.930 . S
N266 C265 1.373 . S
N266 C268 1.340 . S
N267 C264 1.368 . S
N267 C268 1.321 . S
N267 Co270 2.135 . S
C268 N266 1.340 . S
C268 N267 1.321 . S
C268 H292 0.930 . S
H269 C264 0.931 . S
Co270 N267 2.135 . S
Co270 N273 2.121 . S
Co270 O278 2.055 . S
Co270 O281 2.039 . S
Co270 N284 2.140 . S
C271 O272 1.227 . S
C271 O281 1.265 . S
O272 C271 1.227 . S
N273 Co270 2.121 . S
N273 C275 1.375 . S
N273 C276 1.313 . S
C274 C275 1.338 . S
C274 N277 1.377 . S
C274 H294 0.930 . S
C275 N273 1.375 . S
C275 C274 1.338 . S
C275 H279 0.931 . S
C276 N273 1.313 . S
C276 N277 1.344 . S
C276 H280 0.930 . S
N277 C274 1.377 . S
N277 C276 1.344 . S
O278 Co270 2.055 . S
O278 C282 1.253 . S
H279 C275 0.931 . S
H280 C276 0.930 . S
O281 Co270 2.039 . S
O281 C271 1.265 . S
C282 O278 1.253 . S
C282 O283 1.227 . S
O283 C282 1.227 . S
N284 Co270 2.140 . S
N284 C287 1.346 . S
N284 C288 1.345 . S
C285 C286 1.387 . S
C285 C289 1.391 . S
C286 C285 1.387 . S
C286 C287 1.369 . S
C286 H295 0.929 . S
C287 N284 1.346 . S
C287 C286 1.369 . S
C287 H290 0.928 . S
C288 N284 1.345 . S
C288 C289 1.371 . S
C288 H291 0.931 . S
C289 C285 1.391 . S
C289 C288 1.371 . S
C289 H296 0.930 . S
H290 C287 0.928 . S
H291 C288 0.931 . S
H292 C268 0.930 . S
H293 C265 0.930 . S
H294 C274 0.930 . S
H295 C286 0.929 . S
H296 C289 0.930 . S
C297 C298 1.351 . S
C297 N300 1.368 . S
C297 H302 0.931 . S
C298 C297 1.351 . S
C298 N299 1.373 . S
C298 H326 0.930 . S
N299 C298 1.373 . S
N299 C301 1.340 . S
N300 C297 1.368 . S
N300 C301 1.321 . S
N300 Co303 2.135 . S
C301 N299 1.340 . S
C301 N300 1.321 . S
C301 H325 0.930 . S
H302 C297 0.931 . S
Co303 N300 2.135 . S
Co303 N306 2.121 . S
Co303 O311 2.055 . S
Co303 O314 2.039 . S
Co303 N317 2.140 . S
C304 O305 1.227 . S
C304 O314 1.265 . S
O305 C304 1.227 . S
N306 Co303 2.121 . S
N306 C308 1.375 . S
N306 C309 1.313 . S
C307 C308 1.338 . S
C307 N310 1.377 . S
C307 H327 0.930 . S
C308 N306 1.375 . S
C308 C307 1.338 . S
C308 H312 0.931 . S
C309 N306 1.313 . S
C309 N310 1.344 . S
C309 H313 0.930 . S
N310 C307 1.377 . S
N310 C309 1.344 . S
O311 Co303 2.055 . S
O311 C315 1.253 . S
H312 C308 0.931 . S
H313 C309 0.930 . S
O314 Co303 2.039 . S
O314 C304 1.265 . S
C315 O311 1.253 . S
C315 O316 1.227 . S
O316 C315 1.227 . S
N317 Co303 2.140 . S
N317 C320 1.346 . S
N317 C321 1.345 . S
C318 C319 1.387 . S
C318 C322 1.391 . S
C319 C318 1.387 . S
C319 C320 1.369 . S
C319 H328 0.929 . S
C320 N317 1.346 . S
C320 C319 1.369 . S
C320 H323 0.928 . S
C321 N317 1.345 . S
C321 C322 1.371 . S
C321 H324 0.931 . S
C322 C318 1.391 . S
C322 C321 1.371 . S
C322 H329 0.930 . S
H323 C320 0.928 . S
H324 C321 0.931 . S
H325 C301 0.930 . S
H326 C298 0.930 . S
H327 C307 0.930 . S
H328 C319 0.929 . S
H329 C322 0.930 . S
C330 C331 1.351 . S
C330 N333 1.368 . S
C330 H335 0.931 . S
C331 C330 1.351 . S
C331 N332 1.373 . S
C331 H359 0.930 . S
N332 C331 1.373 . S
N332 C334 1.340 . S
N333 C330 1.368 . S
N333 C334 1.321 . S
N333 Co336 2.135 . S
C334 N332 1.340 . S
C334 N333 1.321 . S
C334 H358 0.930 . S
H335 C330 0.931 . S
Co336 N333 2.135 . S
Co336 N339 2.121 . S
Co336 O344 2.055 . S
Co336 O347 2.039 . S
Co336 N350 2.140 . S
C337 O338 1.227 . S
C337 O347 1.265 . S
O338 C337 1.227 . S
N339 Co336 2.121 . S
N339 C341 1.375 . S
N339 C342 1.313 . S
C340 C341 1.338 . S
C340 N343 1.377 . S
C340 H360 0.930 . S
C341 N339 1.375 . S
C341 C340 1.338 . S
C341 H345 0.931 . S
C342 N339 1.313 . S
C342 N343 1.344 . S
C342 H346 0.930 . S
N343 C340 1.377 . S
N343 C342 1.344 . S
O344 Co336 2.055 . S
O344 C348 1.253 . S
H345 C341 0.931 . S
H346 C342 0.930 . S
O347 Co336 2.039 . S
O347 C337 1.265 . S
C348 O344 1.253 . S
C348 O349 1.227 . S
O349 C348 1.227 . S
N350 Co336 2.140 . S
N350 C353 1.346 . S
N350 C354 1.345 . S
C351 C352 1.387 . S
C351 C355 1.391 . S
C352 C351 1.387 . S
C352 C353 1.369 . S
C352 H361 0.929 . S
C353 N350 1.346 . S
C353 C352 1.369 . S
C353 H356 0.928 . S
C354 N350 1.345 . S
C354 C355 1.371 . S
C354 H357 0.931 . S
C355 C351 1.391 . S
C355 C354 1.371 . S
C355 H362 0.930 . S
H356 C353 0.928 . S
H357 C354 0.931 . S
H358 C334 0.930 . S
H359 C331 0.930 . S
H360 C340 0.930 . S
H361 C352 0.929 . S
H362 C355 0.930 . S
C363 C364 1.351 . S
C363 N366 1.368 . S
C363 H368 0.931 . S
C364 C363 1.351 . S
C364 N365 1.373 . S
C364 H392 0.930 . S
N365 C364 1.373 . S
N365 C367 1.340 . S
N366 C363 1.368 . S
N366 C367 1.321 . S
N366 Co369 2.135 . S
C367 N365 1.340 . S
C367 N366 1.321 . S
C367 H391 0.930 . S
H368 C363 0.931 . S
Co369 N366 2.135 . S
Co369 N372 2.121 . S
Co369 O377 2.055 . S
Co369 O380 2.039 . S
Co369 N383 2.140 . S
C370 O371 1.227 . S
C370 O380 1.265 . S
O371 C370 1.227 . S
N372 Co369 2.121 . S
N372 C374 1.375 . S
N372 C375 1.313 . S
C373 C374 1.338 . S
C373 N376 1.377 . S
C373 H393 0.930 . S
C374 N372 1.375 . S
C374 C373 1.338 . S
C374 H378 0.931 . S
C375 N372 1.313 . S
C375 N376 1.344 . S
C375 H379 0.930 . S
N376 C373 1.377 . S
N376 C375 1.344 . S
O377 Co369 2.055 . S
O377 C381 1.253 . S
H378 C374 0.931 . S
H379 C375 0.930 . S
O380 Co369 2.039 . S
O380 C370 1.265 . S
C381 O377 1.253 . S
C381 O382 1.227 . S
O382 C381 1.227 . S
N383 Co369 2.140 . S
N383 C386 1.346 . S
N383 C387 1.345 . S
C384 C385 1.387 . S
C384 C388 1.391 . S
C385 C384 1.387 . S
C385 C386 1.369 . S
C385 H394 0.929 . S
C386 N383 1.346 . S
C386 C385 1.369 . S
C386 H389 0.928 . S
C387 N383 1.345 . S
C387 C388 1.371 . S
C387 H390 0.931 . S
C388 C384 1.391 . S
C388 C387 1.371 . S
C388 H395 0.930 . S
H389 C386 0.928 . S
H390 C387 0.931 . S
H391 C367 0.930 . S
H392 C364 0.930 . S
H393 C373 0.930 . S
H394 C385 0.929 . S
H395 C388 0.930 . S
C396 C397 1.351 . S
C396 N399 1.368 . S
C396 H401 0.931 . S
C397 C396 1.351 . S
C397 N398 1.373 . S
C397 H425 0.930 . S
N398 C397 1.373 . S
N398 C400 1.340 . S
N399 C396 1.368 . S
N399 C400 1.321 . S
N399 Co402 2.135 . S
C400 N398 1.340 . S
C400 N399 1.321 . S
C400 H424 0.930 . S
H401 C396 0.931 . S
Co402 N399 2.135 . S
Co402 N405 2.121 . S
Co402 O410 2.055 . S
Co402 O413 2.039 . S
Co402 N416 2.140 . S
C403 O404 1.227 . S
C403 O413 1.265 . S
O404 C403 1.227 . S
N405 Co402 2.121 . S
N405 C407 1.375 . S
N405 C408 1.313 . S
C406 C407 1.338 . S
C406 N409 1.377 . S
C406 H426 0.930 . S
C407 N405 1.375 . S
C407 C406 1.338 . S
C407 H411 0.931 . S
C408 N405 1.313 . S
C408 N409 1.344 . S
C408 H412 0.930 . S
N409 C406 1.377 . S
N409 C408 1.344 . S
O410 Co402 2.055 . S
O410 C414 1.253 . S
H411 C407 0.931 . S
H412 C408 0.930 . S
O413 Co402 2.039 . S
O413 C403 1.265 . S
C414 O410 1.253 . S
C414 O415 1.227 . S
O415 C414 1.227 . S
N416 Co402 2.140 . S
N416 C419 1.346 . S
N416 C420 1.345 . S
C417 C418 1.387 . S
C417 C421 1.391 . S
C418 C417 1.387 . S
C418 C419 1.369 . S
C418 H427 0.929 . S
C419 N416 1.346 . S
C419 C418 1.369 . S
C419 H422 0.928 . S
C420 N416 1.345 . S
C420 C421 1.371 . S
C420 H423 0.931 . S
C421 C417 1.391 . S
C421 C420 1.371 . S
C421 H428 0.930 . S
H422 C419 0.928 . S
H423 C420 0.931 . S
H424 C400 0.930 . S
H425 C397 0.930 . S
H426 C406 0.930 . S
H427 C418 0.929 . S
H428 C421 0.930 . S
C429 C430 1.351 . S
C429 N432 1.368 1_455 S
C429 H434 0.931 . S
C430 C429 1.351 . S
C430 N431 1.373 1_455 S
C430 H458 0.930 . S
N431 C430 1.373 1_655 S
N431 C433 1.340 . S
N432 C429 1.368 1_655 S
N432 C433 1.321 . S
N432 Co435 2.135 . S
C433 N431 1.340 . S
C433 N432 1.321 . S
C433 H457 0.930 . S
H434 C429 0.931 . S
Co435 N432 2.135 . S
Co435 N438 2.121 . S
Co435 O443 2.055 . S
Co435 O446 2.039 . S
Co435 N449 2.140 1_655 S
C436 O437 1.227 . S
C436 O446 1.265 . S
O437 C436 1.227 . S
N438 Co435 2.121 . S
N438 C440 1.375 . S
N438 C441 1.313 . S
C439 C440 1.338 . S
C439 N442 1.377 . S
C439 H459 0.930 . S
C440 N438 1.375 . S
C440 C439 1.338 . S
C440 H444 0.931 . S
C441 N438 1.313 . S
C441 N442 1.344 . S
C441 H445 0.930 . S
N442 C439 1.377 . S
N442 C441 1.344 . S
O443 Co435 2.055 . S
O443 C447 1.253 1_655 S
H444 C440 0.931 . S
H445 C441 0.930 . S
O446 Co435 2.039 . S
O446 C436 1.265 . S
C447 O443 1.253 1_455 S
C447 O448 1.227 . S
O448 C447 1.227 . S
N449 Co435 2.140 1_455 S
N449 C452 1.346 . S
N449 C453 1.345 . S
C450 C451 1.387 . S
C450 C454 1.391 . S
C451 C450 1.387 . S
C451 C452 1.369 . S
C451 H460 0.929 . S
C452 N449 1.346 . S
C452 C451 1.369 . S
C452 H455 0.928 . S
C453 N449 1.345 . S
C453 C454 1.371 . S
C453 H456 0.931 . S
C454 C450 1.391 . S
C454 C453 1.371 . S
C454 H461 0.930 . S
H455 C452 0.928 . S
H456 C453 0.931 . S
H457 C433 0.930 . S
H458 C430 0.930 . S
H459 C439 0.930 . S
H460 C451 0.929 . S
H461 C454 0.930 . S
C462 C463 1.351 . S
C462 N465 1.368 . S
C462 H467 0.931 . S
C463 C462 1.351 . S
C463 N464 1.373 . S
C463 H491 0.930 . S
N464 C463 1.373 . S
N464 C466 1.340 . S
N465 C462 1.368 . S
N465 C466 1.321 . S
N465 Co468 2.135 . S
C466 N464 1.340 . S
C466 N465 1.321 . S
C466 H490 0.930 . S
H467 C462 0.931 . S
Co468 N465 2.135 . S
Co468 N471 2.121 . S
Co468 O476 2.055 . S
Co468 O479 2.039 . S
Co468 N482 2.140 . S
C469 O470 1.227 . S
C469 O479 1.265 . S
O470 C469 1.227 . S
N471 Co468 2.121 . S
N471 C473 1.375 . S
N471 C474 1.313 . S
C472 C473 1.338 . S
C472 N475 1.377 . S
C472 H492 0.930 . S
C473 N471 1.375 . S
C473 C472 1.338 . S
C473 H477 0.931 . S
C474 N471 1.313 . S
C474 N475 1.344 . S
C474 H478 0.930 . S
N475 C472 1.377 . S
N475 C474 1.344 . S
O476 Co468 2.055 . S
O476 C480 1.253 . S
H477 C473 0.931 . S
H478 C474 0.930 . S
O479 Co468 2.039 . S
O479 C469 1.265 . S
C480 O476 1.253 . S
C480 O481 1.227 . S
O481 C480 1.227 . S
N482 Co468 2.140 . S
N482 C485 1.346 . S
N482 C486 1.345 . S
C483 C484 1.387 . S
C483 C487 1.391 . S
C484 C483 1.387 . S
C484 C485 1.369 . S
C484 H493 0.929 . S
C485 N482 1.346 . S
C485 C484 1.369 . S
C485 H488 0.928 . S
C486 N482 1.345 . S
C486 C487 1.371 . S
C486 H489 0.931 . S
C487 C483 1.391 . S
C487 C486 1.371 . S
C487 H494 0.930 . S
H488 C485 0.928 . S
H489 C486 0.931 . S
H490 C466 0.930 . S
H491 C463 0.930 . S
H492 C472 0.930 . S
H493 C484 0.929 . S
H494 C487 0.930 . S
C495 C496 1.351 . S
C495 N498 1.368 1_455 S
C495 H500 0.931 . S
C496 C495 1.351 . S
C496 N497 1.373 1_455 S
C496 H524 0.930 . S
N497 C496 1.373 1_655 S
N497 C499 1.340 . S
N498 C495 1.368 1_655 S
N498 C499 1.321 . S
N498 Co501 2.135 . S
C499 N497 1.340 . S
C499 N498 1.321 . S
C499 H523 0.930 . S
H500 C495 0.931 . S
Co501 N498 2.135 . S
Co501 N504 2.121 . S
Co501 O509 2.055 . S
Co501 O512 2.039 . S
Co501 N515 2.140 1_655 S
C502 O503 1.227 . S
C502 O512 1.265 . S
O503 C502 1.227 . S
N504 Co501 2.121 . S
N504 C506 1.375 . S
N504 C507 1.313 . S
C505 C506 1.338 . S
C505 N508 1.377 . S
C505 H525 0.930 . S
C506 N504 1.375 . S
C506 C505 1.338 . S
C506 H510 0.931 . S
C507 N504 1.313 . S
C507 N508 1.344 . S
C507 H511 0.930 . S
N508 C505 1.377 . S
N508 C507 1.344 . S
O509 Co501 2.055 . S
O509 C513 1.253 1_655 S
H510 C506 0.931 . S
H511 C507 0.930 . S
O512 Co501 2.039 . S
O512 C502 1.265 . S
C513 O509 1.253 1_455 S
C513 O514 1.227 . S
O514 C513 1.227 . S
N515 Co501 2.140 1_455 S
N515 C518 1.346 . S
N515 C519 1.345 . S
C516 C517 1.387 . S
C516 C520 1.391 . S
C517 C516 1.387 . S
C517 C518 1.369 . S
C517 H526 0.929 . S
C518 N515 1.346 . S
C518 C517 1.369 . S
C518 H521 0.928 . S
C519 N515 1.345 . S
C519 C520 1.371 . S
C519 H522 0.931 . S
C520 C516 1.391 . S
C520 C519 1.371 . S
C520 H527 0.930 . S
H521 C518 0.928 . S
H522 C519 0.931 . S
H523 C499 0.930 . S
H524 C496 0.930 . S
H525 C505 0.930 . S
H526 C517 0.929 . S
H527 C520 0.930 . S
C528 C529 1.363 1_655 S
C528 C534 1.378 1_655 S
C528 N536 1.356 . S
C529 C528 1.363 1_455 S
C529 C535 1.363 . S
C530 C531 1.363 . S
C530 C535 1.379 . S
C530 N537 1.356 . S
C531 C530 1.363 . S
C531 C534 1.364 . S
N532 C534 1.356 1_655 S
N532 H544 0.984 . S
N532 H545 0.985 1_655 S
N533 C535 1.356 . S
N533 H538 0.984 . S
N533 H539 0.985 . S
C534 C528 1.378 1_455 S
C534 C531 1.364 . S
C534 N532 1.356 1_455 S
C535 C529 1.363 . S
C535 C530 1.379 . S
C535 N533 1.356 . S
N536 C528 1.356 . S
N536 H542 0.984 . S
N536 H543 0.984 . S
N537 C530 1.356 . S
N537 H540 0.984 . S
N537 H541 0.985 . S
H538 N533 0.984 . S
H539 N533 0.985 . S
H540 N537 0.984 . S
H541 N537 0.985 . S
H542 N536 0.984 . S
H543 N536 0.984 . S
H544 N532 0.984 . S
H545 N532 0.985 1_455 S
C546 C547 1.363 . S
C546 C552 1.364 1_455 S
C546 N554 1.356 . S
C547 C546 1.363 . S
C547 C553 1.363 . S
C548 C549 1.363 . S
C548 C553 1.379 1_655 S
C548 N555 1.356 . S
C549 C548 1.363 . S
C549 C552 1.373 . S
N550 C552 1.366 . S
N550 H562 0.984 . S
N550 H563 0.985 . S
N551 C553 1.356 . S
N551 H556 0.984 . S
N551 H557 0.985 . S
C552 C546 1.364 1_655 S
C552 C549 1.373 . S
C552 N550 1.366 . S
C553 C547 1.363 . S
C553 C548 1.379 1_455 S
C553 N551 1.356 . S
N554 C546 1.356 . S
N554 H560 0.984 . S
N554 H561 0.984 . S
N555 C548 1.356 . S
N555 H558 0.984 . S
N555 H559 0.985 . S
H556 N551 0.984 . S
H557 N551 0.985 . S
H558 N555 0.984 . S
H559 N555 0.985 . S
H560 N554 0.984 . S
H561 N554 0.984 . S
H562 N550 0.984 . S
H563 N550 0.985 . S
C564 C565 1.363 . S
C564 C570 1.379 . S
C564 N572 1.356 . S
C565 C564 1.363 . S
C565 C571 1.363 . S
C566 C567 1.363 . S
C566 C571 1.379 . S
C566 N573 1.356 . S
C567 C566 1.363 . S
C567 C570 1.363 . S
N568 C570 1.356 . S
N568 H580 0.984 . S
N568 H581 0.985 . S
N569 C571 1.356 . S
N569 H574 0.984 . S
N569 H575 0.985 . S
C570 C564 1.379 . S
C570 C567 1.363 . S
C570 N568 1.356 . S
C571 C565 1.363 . S
C571 C566 1.379 . S
C571 N569 1.356 . S
N572 C564 1.356 . S
N572 H578 0.984 . S
N572 H579 0.984 . S
N573 C566 1.356 . S
N573 H576 0.984 . S
N573 H577 0.985 . S
H574 N569 0.984 . S
H575 N569 0.985 . S
H576 N573 0.984 . S
H577 N573 0.985 . S
H578 N572 0.984 . S
H579 N572 0.984 . S
H580 N568 0.984 . S
H581 N568 0.985 . S
C582 C583 1.363 . S
C582 C588 1.379 . S
C582 N590 1.356 . S
C583 C582 1.363 . S
C583 C589 1.363 . S
C584 C585 1.363 . S
C584 C589 1.379 . S
C584 N591 1.356 . S
C585 C584 1.363 . S
C585 C588 1.363 . S
N586 C588 1.356 . S
N586 H598 0.984 . S
N586 H599 0.985 . S
N587 C589 1.356 . S
N587 H592 0.984 . S
N587 H593 0.985 . S
C588 C582 1.379 . S
C588 C585 1.363 . S
C588 N586 1.356 . S
C589 C583 1.363 . S
C589 C584 1.379 . S
C589 N587 1.356 . S
N590 C582 1.356 . S
N590 H596 0.984 . S
N590 H597 0.984 . S
N591 C584 1.356 . S
N591 H594 0.984 . S
N591 H595 0.985 . S
H592 N587 0.984 . S
H593 N587 0.985 . S
H594 N591 0.984 . S
H595 N591 0.985 . S
H596 N590 0.984 . S
H597 N590 0.984 . S
H598 N586 0.984 . S
H599 N586 0.985 . S
C600 C601 1.363 . S
C600 C606 1.379 . S
C600 N608 1.356 . S
C601 C600 1.363 . S
C601 C607 1.363 1_455 S
C602 C603 1.365 . S
C602 C607 1.378 1_455 S
C602 N609 1.356 1_455 S
C603 C602 1.365 . S
C603 C606 1.363 . S
N604 C606 1.356 . S
N604 H616 0.984 . S
N604 H617 0.985 . S
N605 C607 1.356 . S
N605 H610 0.984 . S
N605 H611 0.985 . S
C606 C600 1.379 . S
C606 C603 1.363 . S
C606 N604 1.356 . S
C607 C601 1.363 1_655 S
C607 C602 1.378 1_655 S
C607 N605 1.356 . S
N608 C600 1.356 . S
N608 H614 0.984 . S
N608 H615 0.984 . S
N609 C602 1.356 1_655 S
N609 H612 0.984 1_655 S
N609 H613 0.985 . S
H610 N605 0.984 . S
H611 N605 0.985 . S
H612 N609 0.984 1_455 S
H613 N609 0.985 . S
H614 N608 0.984 . S
H615 N608 0.984 . S
H616 N604 0.984 . S
H617 N604 0.985 . S
C618 C619 1.363 . S
C618 C624 1.379 . S
C618 N626 1.356 . S
C619 C618 1.363 . S
C619 C625 1.363 . S
C620 C621 1.363 . S
C620 C625 1.379 . S
C620 N627 1.356 . S
C621 C620 1.363 . S
C621 C624 1.363 . S
N622 C624 1.356 . S
N622 H634 0.984 . S
N622 H635 0.985 . S
N623 C625 1.356 . S
N623 H628 0.984 . S
N623 H629 0.985 . S
C624 C618 1.379 . S
C624 C621 1.363 . S
C624 N622 1.356 . S
C625 C619 1.363 . S
C625 C620 1.379 . S
C625 N623 1.356 . S
N626 C618 1.356 . S
N626 H632 0.984 . S
N626 H633 0.984 . S
N627 C620 1.356 . S
N627 H630 0.984 . S
N627 H631 0.985 . S
H628 N623 0.984 . S
H629 N623 0.985 . S
H630 N627 0.984 . S
H631 N627 0.985 . S
H632 N626 0.984 . S
H633 N626 0.984 . S
H634 N622 0.984 . S
H635 N622 0.985 . S
C636 C637 1.363 . S
C636 C642 1.379 . S
C636 N644 1.356 . S
C637 C636 1.363 . S
C637 C643 1.363 . S
C638 C639 1.363 . S
C638 C643 1.379 . S
C638 N645 1.356 . S
C639 C638 1.363 . S
C639 C642 1.363 . S
N640 C642 1.356 . S
N640 H652 0.984 . S
N640 H653 0.985 . S
N641 C643 1.356 . S
N641 H646 0.984 . S
N641 H647 0.985 . S
C642 C636 1.379 . S
C642 C639 1.363 . S
C642 N640 1.356 . S
C643 C637 1.363 . S
C643 C638 1.379 . S
C643 N641 1.356 . S
N644 C636 1.356 . S
N644 H650 0.984 . S
N644 H651 0.984 . S
N645 C638 1.356 . S
N645 H648 0.984 . S
N645 H649 0.985 . S
H646 N641 0.984 . S
H647 N641 0.985 . S
H648 N645 0.984 . S
H649 N645 0.985 . S
H650 N644 0.984 . S
H651 N644 0.984 . S
H652 N640 0.984 . S
H653 N640 0.985 . S
C654 C655 1.375 . S
C654 C660 1.361 1_655 S
C654 N662 1.368 . S
C655 C654 1.375 . S
C655 C661 1.363 . S
C656 C657 1.363 . S
C656 C661 1.379 1_455 S
C656 N663 1.356 . S
C657 C656 1.363 . S
C657 C660 1.363 . S
N658 C660 1.356 . S
N658 H670 0.984 . S
N658 H671 0.985 . S
N659 C661 1.356 . S
N659 H664 0.984 . S
N659 H665 0.985 . S
C660 C654 1.361 1_455 S
C660 C657 1.363 . S
C660 N658 1.356 . S
C661 C655 1.363 . S
C661 C656 1.379 1_655 S
C661 N659 1.356 . S
N662 C654 1.368 . S
N662 H668 0.984 . S
N662 H669 0.984 . S
N663 C656 1.356 . S
N663 H666 0.984 . S
N663 H667 0.985 . S
H664 N659 0.984 . S
H665 N659 0.985 . S
H666 N663 0.984 . S
H667 N663 0.985 . S
H668 N662 0.984 . S
H669 N662 0.984 . S
H670 N658 0.984 . S
H671 N658 0.985 . S
C672 C673 1.363 . S
C672 C678 1.379 1_554 S
C672 N680 1.356 . S
C673 C672 1.363 . S
C673 C679 1.363 1_455 S
C674 C675 1.363 1_655 S
C674 C679 1.379 1_556 S
C674 N681 1.356 . S
C675 C674 1.363 1_455 S
C675 C678 1.363 . S
N676 C678 1.356 . S
N676 H688 0.984 1_545 S
N676 H689 0.985 . S
N677 C679 1.356 . S
N677 H682 0.984 . S
N677 H683 0.985 . S
C678 C672 1.379 1_556 S
C678 C675 1.363 . S
C678 N676 1.356 . S
C679 C673 1.363 1_655 S
C679 C674 1.379 1_554 S
C679 N677 1.356 . S
N680 C672 1.356 . S
N680 H686 0.984 . S
N680 H687 0.984 . S
N681 C674 1.356 . S
N681 H684 0.984 . S
N681 H685 0.985 . S
H682 N677 0.984 . S
H683 N677 0.985 . S
H684 N681 0.984 . S
H685 N681 0.985 . S
H686 N680 0.984 . S
H687 N680 0.984 . S
H688 N676 0.984 1_565 S
H689 N676 0.985 . S
C690 C691 1.363 . S
C690 C696 1.379 . S
C690 N698 1.356 . S
C691 C690 1.363 . S
C691 C697 1.363 . S
C692 C693 1.363 . S
C692 C697 1.379 . S
C692 N699 1.356 . S
C693 C692 1.363 . S
C693 C696 1.363 . S
N694 C696 1.356 . S
N694 H706 0.984 . S
N694 H707 0.985 . S
N695 C697 1.356 . S
N695 H700 0.984 . S
N695 H701 0.985 . S
C696 C690 1.379 . S
C696 C693 1.363 . S
C696 N694 1.356 . S
C697 C691 1.363 . S
C697 C692 1.379 . S
C697 N695 1.356 . S
N698 C690 1.356 . S
N698 H704 0.984 . S
N698 H705 0.984 . S
N699 C692 1.356 . S
N699 H702 0.984 . S
N699 H703 0.985 . S
H700 N695 0.984 . S
H701 N695 0.985 . S
H702 N699 0.984 . S
H703 N699 0.985 . S
H704 N698 0.984 . S
H705 N698 0.984 . S
H706 N694 0.984 . S
H707 N694 0.985 . S
C708 C709 1.363 . S
C708 C714 1.379 . S
C708 N716 1.356 . S
C709 C708 1.363 . S
C709 C715 1.363 . S
C710 C711 1.363 . S
C710 C715 1.379 . S
C710 N717 1.356 . S
C711 C710 1.363 . S
C711 C714 1.363 . S
N712 C714 1.356 . S
N712 H724 0.984 . S
N712 H725 0.985 . S
N713 C715 1.356 . S
N713 H718 0.984 . S
N713 H719 0.985 1_545 S
C714 C708 1.379 . S
C714 C711 1.363 . S
C714 N712 1.356 . S
C715 C709 1.363 . S
C715 C710 1.379 . S
C715 N713 1.356 . S
N716 C708 1.356 . S
N716 H722 0.984 . S
N716 H723 0.984 . S
N717 C710 1.356 . S
N717 H720 0.984 . S
N717 H721 0.985 . S
H718 N713 0.984 . S
H719 N713 0.985 1_565 S
H720 N717 0.984 . S
H721 N717 0.985 . S
H722 N716 0.984 . S
H723 N716 0.984 . S
H724 N712 0.984 . S
H725 N712 0.985 . S
C726 C727 1.363 . S
C726 C732 1.379 . S
C726 N734 1.356 . S
C727 C726 1.363 . S
C727 C733 1.363 . S
C728 C729 1.363 . S
C728 C733 1.379 . S
C728 N735 1.356 . S
C729 C728 1.363 . S
C729 C732 1.363 . S
N730 C732 1.356 . S
N730 H742 0.984 . S
N730 H743 0.985 . S
N731 C733 1.356 . S
N731 H736 0.984 . S
N731 H737 0.985 . S
C732 C726 1.379 . S
C732 C729 1.363 . S
C732 N730 1.356 . S
C733 C727 1.363 . S
C733 C728 1.379 . S
C733 N731 1.356 . S
N734 C726 1.356 . S
N734 H740 0.984 . S
N734 H741 0.984 . S
N735 C728 1.356 . S
N735 H738 0.984 . S
N735 H739 0.985 . S
H736 N731 0.984 . S
H737 N731 0.985 . S
H738 N735 0.984 . S
H739 N735 0.985 . S
H740 N734 0.984 . S
H741 N734 0.984 . S
H742 N730 0.984 . S
H743 N730 0.985 . S
C744 C745 1.363 . S
C744 C750 1.379 . S
C744 N752 1.356 . S
C745 C744 1.363 . S
C745 C751 1.363 . S
C746 C747 1.363 . S
C746 C751 1.379 . S
C746 N753 1.356 . S
C747 C746 1.363 . S
C747 C750 1.363 . S
N748 C750 1.356 . S
N748 H760 0.984 . S
N748 H761 0.985 . S
N749 C751 1.356 . S
N749 H754 0.984 . S
N749 H755 0.985 . S
C750 C744 1.379 . S
C750 C747 1.363 . S
C750 N748 1.356 . S
C751 C745 1.363 . S
C751 C746 1.379 . S
C751 N749 1.356 . S
N752 C744 1.356 . S
N752 H758 0.984 . S
N752 H759 0.984 . S
N753 C746 1.356 . S
N753 H756 0.984 . S
N753 H757 0.985 . S
H754 N749 0.984 . S
H755 N749 0.985 . S
H756 N753 0.984 . S
H757 N753 0.985 . S
H758 N752 0.984 . S
H759 N752 0.984 . S
H760 N748 0.984 . S
H761 N748 0.985 . S
C762 C763 1.363 . S
C762 C768 1.379 . S
C762 N770 1.356 . S
C763 C762 1.363 . S
C763 C769 1.363 . S
C764 C765 1.363 . S
C764 C769 1.379 . S
C764 N771 1.356 . S
C765 C764 1.363 . S
C765 C768 1.363 . S
N766 C768 1.356 . S
N766 H778 0.984 . S
N766 H779 0.985 . S
N767 C769 1.356 . S
N767 H772 0.984 . S
N767 H773 0.985 . S
C768 C762 1.379 . S
C768 C765 1.363 . S
C768 N766 1.356 . S
C769 C763 1.363 . S
C769 C764 1.379 . S
C769 N767 1.356 . S
N770 C762 1.356 . S
N770 H776 0.984 . S
N770 H777 0.984 . S
N771 C764 1.356 . S
N771 H774 0.984 . S
N771 H775 0.985 . S
H772 N767 0.984 . S
H773 N767 0.985 . S
H774 N771 0.984 . S
H775 N771 0.985 . S
H776 N770 0.984 . S
H777 N770 0.984 . S
H778 N766 0.984 . S
H779 N766 0.985 . S
C780 C781 1.363 . S
C780 C786 1.379 . S
C780 N788 1.356 . S
C781 C780 1.363 . S
C781 C787 1.363 . S
C782 C783 1.363 . S
C782 C787 1.379 . S
C782 N789 1.356 . S
C783 C782 1.363 . S
C783 C786 1.363 . S
N784 C786 1.356 . S
N784 H796 0.984 . S
N784 H797 0.985 . S
N785 C787 1.356 . S
N785 H790 0.984 . S
N785 H791 0.985 . S
C786 C780 1.379 . S
C786 C783 1.363 . S
C786 N784 1.356 . S
C787 C781 1.363 . S
C787 C782 1.379 . S
C787 N785 1.356 . S
N788 C780 1.356 . S
N788 H794 0.984 . S
N788 H795 0.984 . S
N789 C782 1.356 . S
N789 H792 0.984 . S
N789 H793 0.985 . S
H790 N785 0.984 . S
H791 N785 0.985 . S
H792 N789 0.984 . S
H793 N789 0.985 . S
H794 N788 0.984 . S
H795 N788 0.984 . S
H796 N784 0.984 . S
H797 N784 0.985 . S
C798 C799 1.363 1_655 S
C798 C804 1.379 1_556 S
C798 N806 1.356 . S
C799 C798 1.363 1_455 S
C799 C805 1.363 . S
C800 C801 1.363 . S
C800 C805 1.379 1_554 S
C800 N807 1.356 . S
C801 C800 1.363 . S
C801 C804 1.363 1_455 S
N802 C804 1.356 . S
N802 H814 0.984 . S
N802 H815 0.985 . S
N803 C805 1.356 . S
N803 H808 0.984 . S
N803 H809 0.985 . S
C804 C798 1.379 1_554 S
C804 C801 1.363 1_655 S
C804 N802 1.356 . S
C805 C799 1.363 . S
C805 C800 1.379 1_556 S
C805 N803 1.356 . S
N806 C798 1.356 . S
N806 H812 0.984 . S
N806 H813 0.984 . S
N807 C800 1.356 . S
N807 H810 0.984 . S
N807 H811 0.985 . S
H808 N803 0.984 . S
H809 N803 0.985 . S
H810 N807 0.984 . S
H811 N807 0.985 . S
H812 N806 0.984 . S
H813 N806 0.984 . S
H814 N802 0.984 . S
H815 N802 0.985 . S
C816 C817 1.363 1_545 S
C816 C822 1.379 . S
C816 N824 1.356 . S
C817 C816 1.363 1_565 S
C817 C823 1.363 . S
C818 C819 1.363 1_565 S
C818 C823 1.379 . S
C818 N825 1.356 . S
C819 C818 1.363 1_545 S
C819 C822 1.363 . S
N820 C822 1.356 . S
N820 H832 0.984 . S
N820 H833 0.985 . S
N821 C823 1.356 . S
N821 H826 0.984 . S
N821 H827 0.985 . S
C822 C816 1.379 . S
C822 C819 1.363 . S
C822 N820 1.356 . S
C823 C817 1.363 . S
C823 C818 1.379 . S
C823 N821 1.356 . S
N824 C816 1.356 . S
N824 H830 0.984 . S
N824 H831 0.984 1_545 S
N825 C818 1.356 . S
N825 H828 0.984 1_565 S
N825 H829 0.985 . S
H826 N821 0.984 . S
H827 N821 0.985 . S
H828 N825 0.984 1_545 S
H829 N825 0.985 . S
H830 N824 0.984 . S
H831 N824 0.984 1_565 S
H832 N820 0.984 . S
H833 N820 0.985 . S
C834 C835 1.363 . S
C834 C840 1.379 1_565 S
C834 N842 1.356 . S
C835 C834 1.363 . S
C835 C841 1.363 1_565 S
C836 C837 1.363 . S
C836 C841 1.379 . S
C836 N843 1.356 . S
C837 C836 1.363 . S
C837 C840 1.363 . S
N838 C840 1.356 . S
N838 H850 0.984 1_545 S
N838 H851 0.985 . S
N839 C841 1.359 . S
N839 H844 0.974 1_545 S
N839 H845 0.993 . S
C840 C834 1.379 1_545 S
C840 C837 1.363 . S
C840 N838 1.356 . S
C841 C835 1.363 1_545 S
C841 C836 1.379 . S
C841 N839 1.359 . S
N842 C834 1.356 . S
N842 H848 0.984 . S
N842 H849 0.984 . S
N843 C836 1.356 . S
N843 H846 0.984 . S
N843 H847 0.985 . S
H844 N839 0.974 1_565 S
H845 N839 0.993 . S
H846 N843 0.984 . S
H847 N843 0.985 . S
H848 N842 0.984 . S
H849 N842 0.984 . S
H850 N838 0.984 1_565 S
H851 N838 0.985 . S
C852 C853 1.363 . S
C852 C858 1.379 . S
C852 N860 1.356 . S
C853 C852 1.363 . S
C853 C859 1.363 . S
C854 C855 1.363 . S
C854 C859 1.379 . S
C854 N861 1.356 . S
C855 C854 1.363 . S
C855 C858 1.363 . S
N856 C858 1.356 . S
N856 H868 0.984 . S
N856 H869 0.985 . S
N857 C859 1.356 . S
N857 H862 0.984 . S
N857 H863 0.985 . S
C858 C852 1.379 . S
C858 C855 1.363 . S
C858 N856 1.356 . S
C859 C853 1.363 . S
C859 C854 1.379 . S
C859 N857 1.356 . S
N860 C852 1.356 . S
N860 H866 0.984 . S
N860 H867 0.984 . S
N861 C854 1.356 . S
N861 H864 0.984 . S
N861 H865 0.985 . S
H862 N857 0.984 . S
H863 N857 0.985 . S
H864 N861 0.984 . S
H865 N861 0.985 . S
H866 N860 0.984 . S
H867 N860 0.984 . S
H868 N856 0.984 . S
H869 N856 0.985 . S
C870 C871 1.363 . S
C870 C876 1.379 . S
C870 N878 1.356 . S
C871 C870 1.363 . S
C871 C877 1.363 . S
C872 C873 1.363 . S
C872 C877 1.379 . S
C872 N879 1.356 . S
C873 C872 1.363 . S
C873 C876 1.363 . S
N874 C876 1.356 . S
N874 H886 0.984 . S
N874 H887 0.985 . S
N875 C877 1.356 . S
N875 H880 0.984 . S
N875 H881 0.985 . S
C876 C870 1.379 . S
C876 C873 1.363 . S
C876 N874 1.356 . S
C877 C871 1.363 . S
C877 C872 1.379 . S
C877 N875 1.356 . S
N878 C870 1.356 . S
N878 H884 0.984 . S
N878 H885 0.984 . S
N879 C872 1.356 . S
N879 H882 0.984 . S
N879 H883 0.985 . S
H880 N875 0.984 . S
H881 N875 0.985 . S
H882 N879 0.984 . S
H883 N879 0.985 . S
H884 N878 0.984 . S
H885 N878 0.984 . S
H886 N874 0.984 . S
H887 N874 0.985 . S
C888 C889 1.363 . S
C888 C894 1.379 . S
C888 N896 1.356 . S
C889 C888 1.363 . S
C889 C895 1.363 . S
C890 C891 1.363 . S
C890 C895 1.379 . S
C890 N897 1.356 . S
C891 C890 1.363 . S
C891 C894 1.363 . S
N892 C894 1.356 . S
N892 H904 0.984 . S
N892 H905 0.985 . S
N893 C895 1.356 . S
N893 H898 0.984 . S
N893 H899 0.985 . S
C894 C888 1.379 . S
C894 C891 1.363 . S
C894 N892 1.356 . S
C895 C889 1.363 . S
C895 C890 1.379 . S
C895 N893 1.356 . S
N896 C888 1.356 . S
N896 H902 0.984 . S
N896 H903 0.984 . S
N897 C890 1.356 . S
N897 H900 0.984 . S
N897 H901 0.985 . S
H898 N893 0.984 . S
H899 N893 0.985 . S
H900 N897 0.984 . S
H901 N897 0.985 . S
H902 N896 0.984 . S
H903 N896 0.984 . S
H904 N892 0.984 . S
H905 N892 0.985 . S
C906 C907 1.363 . S
C906 C912 1.379 . S
C906 N914 1.356 . S
C907 C906 1.363 . S
C907 C913 1.363 . S
C908 C909 1.363 . S
C908 C913 1.379 . S
C908 N915 1.356 . S
C909 C908 1.363 . S
C909 C912 1.363 . S
N910 C912 1.356 . S
N910 H922 0.984 . S
N910 H923 0.985 . S
N911 C913 1.356 . S
N911 H916 0.984 . S
N911 H917 0.985 . S
C912 C906 1.379 . S
C912 C909 1.363 . S
C912 N910 1.356 . S
C913 C907 1.363 . S
C913 C908 1.379 . S
C913 N911 1.356 . S
N914 C906 1.356 . S
N914 H920 0.984 . S
N914 H921 0.984 . S
N915 C908 1.356 . S
N915 H918 0.984 . S
N915 H919 0.985 . S
H916 N911 0.984 . S
H917 N911 0.985 . S
H918 N915 0.984 . S
H919 N915 0.985 . S
H920 N914 0.984 . S
H921 N914 0.984 . S
H922 N910 0.984 . S
H923 N910 0.985 . S
C924 C925 1.363 1_545 S
C924 C930 1.379 . S
C924 N932 1.356 . S
C925 C924 1.363 1_565 S
C925 C931 1.363 . S
C926 C927 1.363 . S
C926 C931 1.379 1_545 S
C926 N933 1.356 . S
C927 C926 1.363 . S
C927 C930 1.363 . S
N928 C930 1.356 . S
N928 H940 0.984 . S
N928 H941 0.985 . S
N929 C931 1.356 . S
N929 H934 0.984 . S
N929 H935 0.985 . S
C930 C924 1.379 . S
C930 C927 1.363 . S
C930 N928 1.356 . S
C931 C925 1.363 . S
C931 C926 1.379 1_565 S
C931 N929 1.356 . S
N932 C924 1.356 . S
N932 H938 0.984 . S
N932 H939 0.984 . S
N933 C926 1.356 . S
N933 H936 0.984 . S
N933 H937 0.985 1_545 S
H934 N929 0.984 . S
H935 N929 0.985 . S
H936 N933 0.984 . S
H937 N933 0.985 1_565 S
H938 N932 0.984 . S
H939 N932 0.984 . S
H940 N928 0.984 . S
H941 N928 0.985 . S
C942 C943 1.363 . S
C942 C948 1.379 1_565 S
C942 N950 1.356 . S
C943 C942 1.363 . S
C943 C949 1.363 1_565 S
C944 C945 1.363 . S
C944 C949 1.379 . S
C944 N951 1.356 . S
C945 C944 1.363 . S
C945 C948 1.363 . S
N946 C948 1.356 . S
N946 H958 0.984 . S
N946 H959 0.985 . S
N947 C949 1.356 1_565 S
N947 H952 0.984 . S
N947 H953 0.985 1_565 S
C948 C942 1.379 1_545 S
C948 C945 1.363 . S
C948 N946 1.356 . S
C949 C943 1.363 1_545 S
C949 C944 1.379 . S
C949 N947 1.356 1_545 S
N950 C942 1.356 . S
N950 H956 0.984 . S
N950 H957 0.984 . S
N951 C944 1.356 . S
N951 H954 0.984 . S
N951 H955 0.985 . S
H952 N947 0.984 . S
H953 N947 0.985 1_545 S
H954 N951 0.984 . S
H955 N951 0.985 . S
H956 N950 0.984 . S
H957 N950 0.984 . S
H958 N946 0.984 . S
H959 N946 0.985 . S
C960 C961 1.363 . S
C960 C966 1.379 . S
C960 N968 1.356 . S
C961 C960 1.363 . S
C961 C967 1.363 . S
C962 C963 1.363 . S
C962 C967 1.379 . S
C962 N969 1.356 . S
C963 C962 1.363 . S
C963 C966 1.363 . S
N964 C966 1.356 . S
N964 H976 0.984 . S
N964 H977 0.985 . S
N965 C967 1.356 . S
N965 H970 0.984 . S
N965 H971 0.985 . S
C966 C960 1.379 . S
C966 C963 1.363 . S
C966 N964 1.356 . S
C967 C961 1.363 . S
C967 C962 1.379 . S
C967 N965 1.356 . S
N968 C960 1.356 . S
N968 H974 0.984 . S
N968 H975 0.984 . S
N969 C962 1.356 . S
N969 H972 0.984 . S
N969 H973 0.985 . S
H970 N965 0.984 . S
H971 N965 0.985 . S
H972 N969 0.984 . S
H973 N969 0.985 . S
H974 N968 0.984 . S
H975 N968 0.984 . S
H976 N964 0.984 . S
H977 N964 0.985 . S
C978 C979 1.363 . S
C978 C984 1.379 . S
C978 N986 1.356 . S
C979 C978 1.363 . S
C979 C985 1.363 . S
C980 C981 1.363 . S
C980 C985 1.379 . S
C980 N987 1.356 . S
C981 C980 1.363 . S
C981 C984 1.363 . S
N982 C984 1.356 . S
N982 H994 0.984 . S
N982 H995 0.985 . S
N983 C985 1.356 . S
N983 H988 0.984 . S
N983 H989 0.985 . S
C984 C978 1.379 . S
C984 C981 1.363 . S
C984 N982 1.356 . S
C985 C979 1.363 . S
C985 C980 1.379 . S
C985 N983 1.356 . S
N986 C978 1.356 . S
N986 H992 0.984 . S
N986 H993 0.984 . S
N987 C980 1.356 . S
N987 H990 0.984 . S
N987 H991 0.985 . S
H988 N983 0.984 . S
H989 N983 0.985 . S
H990 N987 0.984 . S
H991 N987 0.985 . S
H992 N986 0.984 . S
H993 N986 0.984 . S
H994 N982 0.984 . S
H995 N982 0.985 . S
C996 C997 1.363 . S
C996 C1002 1.379 . S
C996 N1004 1.356 . S
C997 C996 1.363 . S
C997 C1003 1.363 . S
C998 C999 1.363 . S
C998 C1003 1.379 . S
C998 N1005 1.356 . S
C999 C998 1.363 . S
C999 C1002 1.363 . S
N1000 C1002 1.356 . S
N1000 H1012 0.984 . S
N1000 H1013 0.985 . S
N1001 C1003 1.356 . S
N1001 H1006 0.984 . S
N1001 H1007 0.985 . S
C1002 C996 1.379 . S
C1002 C999 1.363 . S
C1002 N1000 1.356 . S
C1003 C997 1.363 . S
C1003 C998 1.379 . S
C1003 N1001 1.356 . S
N1004 C996 1.356 . S
N1004 H1010 0.984 . S
N1004 H1011 0.984 . S
N1005 C998 1.356 . S
N1005 H1008 0.984 . S
N1005 H1009 0.985 . S
H1006 N1001 0.984 . S
H1007 N1001 0.985 . S
H1008 N1005 0.984 . S
H1009 N1005 0.985 . S
H1010 N1004 0.984 . S
H1011 N1004 0.984 . S
H1012 N1000 0.984 . S
H1013 N1000 0.985 . S
C1014 C1015 1.363 . S
C1014 C1020 1.379 . S
C1014 N1022 1.356 . S
C1015 C1014 1.363 . S
C1015 C1021 1.363 . S
C1016 C1017 1.363 . S
C1016 C1021 1.379 . S
C1016 N1023 1.356 . S
C1017 C1016 1.363 . S
C1017 C1020 1.363 . S
N1018 C1020 1.356 . S
N1018 H1030 0.984 . S
N1018 H1031 0.985 . S
N1019 C1021 1.356 . S
N1019 H1024 0.984 . S
N1019 H1025 0.985 . S
C1020 C1014 1.379 . S
C1020 C1017 1.363 . S
C1020 N1018 1.356 . S
C1021 C1015 1.363 . S
C1021 C1016 1.379 . S
C1021 N1019 1.356 . S
N1022 C1014 1.356 . S
N1022 H1028 0.984 . S
N1022 H1029 0.984 . S
N1023 C1016 1.356 . S
N1023 H1026 0.984 . S
N1023 H1027 0.985 . S
H1024 N1019 0.984 . S
H1025 N1019 0.985 . S
H1026 N1023 0.984 . S
H1027 N1023 0.985 . S
H1028 N1022 0.984 . S
H1029 N1022 0.984 . S
H1030 N1018 0.984 . S
H1031 N1018 0.985 . S
C1032 C1033 1.363 . S
C1032 C1038 1.379 . S
C1032 N1040 1.356 . S
C1033 C1032 1.363 . S
C1033 C1039 1.363 . S
C1034 C1035 1.363 . S
C1034 C1039 1.379 . S
C1034 N1041 1.356 . S
C1035 C1034 1.363 . S
C1035 C1038 1.363 . S
N1036 C1038 1.356 . S
N1036 H1048 0.984 . S
N1036 H1049 0.985 . S
N1037 C1039 1.356 . S
N1037 H1042 0.984 . S
N1037 H1043 0.985 . S
C1038 C1032 1.379 . S
C1038 C1035 1.363 . S
C1038 N1036 1.356 . S
C1039 C1033 1.363 . S
C1039 C1034 1.379 . S
C1039 N1037 1.356 . S
N1040 C1032 1.356 . S
N1040 H1046 0.984 . S
N1040 H1047 0.984 . S
N1041 C1034 1.356 . S
N1041 H1044 0.984 . S
N1041 H1045 0.985 . S
H1042 N1037 0.984 . S
H1043 N1037 0.985 . S
H1044 N1041 0.984 . S
H1045 N1041 0.985 . S
H1046 N1040 0.984 . S
H1047 N1040 0.984 . S
H1048 N1036 0.984 . S
H1049 N1036 0.985 . S
C1050 C1051 1.363 . S
C1050 C1056 1.379 . S
C1050 N1058 1.356 . S
C1051 C1050 1.363 . S
C1051 C1057 1.363 . S
C1052 C1053 1.363 . S
C1052 C1057 1.379 . S
C1052 N1059 1.356 . S
C1053 C1052 1.363 . S
C1053 C1056 1.363 . S
N1054 C1056 1.356 . S
N1054 H1066 0.984 . S
N1054 H1067 0.985 . S
N1055 C1057 1.356 . S
N1055 H1060 0.984 . S
N1055 H1061 0.985 . S
C1056 C1050 1.379 . S
C1056 C1053 1.363 . S
C1056 N1054 1.356 . S
C1057 C1051 1.363 . S
C1057 C1052 1.379 . S
C1057 N1055 1.356 . S
N1058 C1050 1.356 . S
N1058 H1064 0.984 . S
N1058 H1065 0.984 . S
N1059 C1052 1.356 . S
N1059 H1062 0.984 . S
N1059 H1063 0.985 . S
H1060 N1055 0.984 . S
H1061 N1055 0.985 . S
H1062 N1059 0.984 . S
H1063 N1059 0.985 . S
H1064 N1058 0.984 . S
H1065 N1058 0.984 . S
H1066 N1054 0.984 . S
H1067 N1054 0.985 . S
C1068 C1069 1.363 . S
C1068 C1074 1.379 . S
C1068 N1076 1.356 . S
C1069 C1068 1.363 . S
C1069 C1075 1.363 . S
C1070 C1071 1.363 . S
C1070 C1075 1.379 . S
C1070 N1077 1.356 . S
C1071 C1070 1.363 . S
C1071 C1074 1.363 . S
N1072 C1074 1.356 . S
N1072 H1084 0.984 . S
N1072 H1085 0.985 . S
N1073 C1075 1.356 . S
N1073 H1078 0.984 . S
N1073 H1079 0.985 . S
C1074 C1068 1.379 . S
C1074 C1071 1.363 . S
C1074 N1072 1.356 . S
C1075 C1069 1.363 . S
C1075 C1070 1.379 . S
C1075 N1073 1.356 . S
N1076 C1068 1.356 . S
N1076 H1082 0.984 . S
N1076 H1083 0.984 . S
N1077 C1070 1.356 . S
N1077 H1080 0.984 . S
N1077 H1081 0.985 . S
H1078 N1073 0.984 . S
H1079 N1073 0.985 . S
H1080 N1077 0.984 . S
H1081 N1077 0.985 . S
H1082 N1076 0.984 . S
H1083 N1076 0.984 . S
H1084 N1072 0.984 . S
H1085 N1072 0.985 . S
C1086 C1087 1.363 . S
C1086 C1092 1.379 . S
C1086 N1094 1.356 . S
C1087 C1086 1.363 . S
C1087 C1093 1.363 . S
C1088 C1089 1.363 . S
C1088 C1093 1.379 . S
C1088 N1095 1.356 . S
C1089 C1088 1.363 . S
C1089 C1092 1.363 . S
N1090 C1092 1.356 . S
N1090 H1102 0.984 . S
N1090 H1103 0.985 . S
N1091 C1093 1.356 . S
N1091 H1096 0.984 . S
N1091 H1097 0.985 . S
C1092 C1086 1.379 . S
C1092 C1089 1.363 . S
C1092 N1090 1.356 . S
C1093 C1087 1.363 . S
C1093 C1088 1.379 . S
C1093 N1091 1.356 . S
N1094 C1086 1.356 . S
N1094 H1100 0.984 . S
N1094 H1101 0.984 . S
N1095 C1088 1.356 . S
N1095 H1098 0.984 . S
N1095 H1099 0.985 . S
H1096 N1091 0.984 . S
H1097 N1091 0.985 . S
H1098 N1095 0.984 . S
H1099 N1095 0.985 . S
H1100 N1094 0.984 . S
H1101 N1094 0.984 . S
H1102 N1090 0.984 . S
H1103 N1090 0.985 . S
C1104 C1105 1.363 . S
C1104 C1110 1.379 1_455 S
C1104 N1112 1.356 . S
C1105 C1104 1.363 . S
C1105 C1111 1.363 . S
C1106 C1107 1.363 1_455 S
C1106 C1111 1.379 . S
C1106 N1113 1.356 . S
C1107 C1106 1.363 1_655 S
C1107 C1110 1.363 . S
N1108 C1110 1.356 . S
N1108 H1120 0.984 . S
N1108 H1121 0.985 . S
N1109 C1111 1.356 . S
N1109 H1114 0.984 . S
N1109 H1115 0.985 . S
C1110 C1104 1.379 1_655 S
C1110 C1107 1.363 . S
C1110 N1108 1.356 . S
C1111 C1105 1.363 . S
C1111 C1106 1.379 . S
C1111 N1109 1.356 . S
N1112 C1104 1.356 . S
N1112 H1118 0.984 1_455 S
N1112 H1119 0.984 . S
N1113 C1106 1.356 . S
N1113 H1116 0.984 1_455 S
N1113 H1117 0.985 . S
H1114 N1109 0.984 . S
H1115 N1109 0.985 . S
H1116 N1113 0.984 1_655 S
H1117 N1113 0.985 . S
H1118 N1112 0.984 1_655 S
H1119 N1112 0.984 . S
H1120 N1108 0.984 . S
H1121 N1108 0.985 . S
C1122 C1123 1.363 . S
C1122 C1128 1.379 . S
C1122 N1130 1.356 . S
C1123 C1122 1.363 . S
C1123 C1129 1.363 . S
C1124 C1125 1.363 . S
C1124 C1129 1.379 . S
C1124 N1131 1.356 . S
C1125 C1124 1.363 . S
C1125 C1128 1.363 . S
N1126 C1128 1.356 . S
N1126 H1138 0.984 . S
N1126 H1139 0.985 . S
N1127 C1129 1.356 . S
N1127 H1132 0.984 . S
N1127 H1133 0.985 . S
C1128 C1122 1.379 . S
C1128 C1125 1.363 . S
C1128 N1126 1.356 . S
C1129 C1123 1.363 . S
C1129 C1124 1.379 . S
C1129 N1127 1.356 . S
N1130 C1122 1.356 . S
N1130 H1136 0.984 . S
N1130 H1137 0.984 . S
N1131 C1124 1.356 . S
N1131 H1134 0.984 . S
N1131 H1135 0.985 . S
H1132 N1127 0.984 . S
H1133 N1127 0.985 . S
H1134 N1131 0.984 . S
H1135 N1131 0.985 . S
H1136 N1130 0.984 . S
H1137 N1130 0.984 . S
H1138 N1126 0.984 . S
H1139 N1126 0.985 . S
C1140 C1141 1.363 . S
C1140 C1146 1.379 . S
C1140 N1148 1.356 . S
C1141 C1140 1.363 . S
C1141 C1147 1.363 . S
C1142 C1143 1.363 . S
C1142 C1147 1.379 . S
C1142 N1149 1.356 . S
C1143 C1142 1.363 . S
C1143 C1146 1.363 . S
N1144 C1146 1.356 . S
N1144 H1156 0.984 . S
N1144 H1157 0.985 . S
N1145 C1147 1.356 . S
N1145 H1150 0.984 . S
N1145 H1151 0.985 . S
C1146 C1140 1.379 . S
C1146 C1143 1.363 . S
C1146 N1144 1.356 . S
C1147 C1141 1.363 . S
C1147 C1142 1.379 . S
C1147 N1145 1.356 . S
N1148 C1140 1.356 . S
N1148 H1154 0.984 . S
N1148 H1155 0.984 . S
N1149 C1142 1.356 . S
N1149 H1152 0.984 . S
N1149 H1153 0.985 . S
H1150 N1145 0.984 . S
H1151 N1145 0.985 . S
H1152 N1149 0.984 . S
H1153 N1149 0.985 . S
H1154 N1148 0.984 . S
H1155 N1148 0.984 . S
H1156 N1144 0.984 . S
H1157 N1144 0.985 . S
C1158 C1159 1.363 . S
C1158 C1164 1.379 . S
C1158 N1166 1.356 . S
C1159 C1158 1.363 . S
C1159 C1165 1.363 . S
C1160 C1161 1.363 . S
C1160 C1165 1.379 1_655 S
C1160 N1167 1.356 . S
C1161 C1160 1.363 . S
C1161 C1164 1.363 1_655 S
N1162 C1164 1.356 1_655 S
N1162 H1174 0.984 1_655 S
N1162 H1175 0.985 . S
N1163 C1165 1.356 . S
N1163 H1168 0.984 . S
N1163 H1169 0.985 . S
C1164 C1158 1.379 . S
C1164 C1161 1.363 1_455 S
C1164 N1162 1.356 1_455 S
C1165 C1159 1.363 . S
C1165 C1160 1.379 1_455 S
C1165 N1163 1.356 . S
N1166 C1158 1.356 . S
N1166 H1172 0.984 . S
N1166 H1173 0.984 . S
N1167 C1160 1.356 . S
N1167 H1170 0.984 . S
N1167 H1171 0.985 . S
H1168 N1163 0.984 . S
H1169 N1163 0.985 . S
H1170 N1167 0.984 . S
H1171 N1167 0.985 . S
H1172 N1166 0.984 . S
H1173 N1166 0.984 . S
H1174 N1162 0.984 1_455 S
H1175 N1162 0.985 . S
C1176 C1177 1.363 . S
C1176 C1182 1.379 1_455 S
C1176 N1184 1.356 . S
C1177 C1176 1.363 . S
C1177 C1183 1.363 . S
C1178 C1179 1.363 1_455 S
C1178 C1183 1.379 . S
C1178 N1185 1.356 . S
C1179 C1178 1.363 1_655 S
C1179 C1182 1.363 . S
N1180 C1182 1.356 . S
N1180 H1192 0.984 . S
N1180 H1193 0.985 . S
N1181 C1183 1.356 . S
N1181 H1186 0.984 . S
N1181 H1187 0.985 . S
C1182 C1176 1.379 1_655 S
C1182 C1179 1.363 . S
C1182 N1180 1.356 . S
C1183 C1177 1.363 . S
C1183 C1178 1.379 . S
C1183 N1181 1.356 . S
N1184 C1176 1.356 . S
N1184 H1190 0.984 1_455 S
N1184 H1191 0.984 . S
N1185 C1178 1.356 . S
N1185 H1188 0.984 1_455 S
N1185 H1189 0.985 . S
H1186 N1181 0.984 . S
H1187 N1181 0.985 . S
H1188 N1185 0.984 1_655 S
H1189 N1185 0.985 . S
H1190 N1184 0.984 1_655 S
H1191 N1184 0.984 . S
H1192 N1180 0.984 . S
H1193 N1180 0.985 . S
C1194 C1195 1.363 . S
C1194 C1200 1.379 . S
C1194 N1202 1.356 . S
C1195 C1194 1.363 . S
C1195 C1201 1.363 . S
C1196 C1197 1.363 . S
C1196 C1201 1.379 1_655 S
C1196 N1203 1.356 . S
C1197 C1196 1.363 . S
C1197 C1200 1.363 1_655 S
N1198 C1200 1.356 1_655 S
N1198 H1210 0.984 1_655 S
N1198 H1211 0.985 . S
N1199 C1201 1.356 . S
N1199 H1204 0.984 . S
N1199 H1205 0.985 . S
C1200 C1194 1.379 . S
C1200 C1197 1.363 1_455 S
C1200 N1198 1.356 1_455 S
C1201 C1195 1.363 . S
C1201 C1196 1.379 1_455 S
C1201 N1199 1.356 . S
N1202 C1194 1.356 . S
N1202 H1208 0.984 . S
N1202 H1209 0.984 . S
N1203 C1196 1.356 . S
N1203 H1206 0.984 . S
N1203 H1207 0.985 . S
H1204 N1199 0.984 . S
H1205 N1199 0.985 . S
H1206 N1203 0.984 . S
H1207 N1203 0.985 . S
H1208 N1202 0.984 . S
H1209 N1202 0.984 . S
H1210 N1198 0.984 1_455 S
H1211 N1198 0.985 . S
C1212 C1213 1.363 . S
C1212 C1218 1.379 . S
C1212 N1220 1.356 . S
C1213 C1212 1.363 . S
C1213 C1219 1.363 . S
C1214 C1215 1.363 . S
C1214 C1219 1.379 . S
C1214 N1221 1.356 . S
C1215 C1214 1.363 . S
C1215 C1218 1.363 . S
N1216 C1218 1.356 . S
N1216 H1228 0.984 . S
N1216 H1229 0.985 . S
N1217 C1219 1.356 . S
N1217 H1222 0.984 . S
N1217 H1223 0.985 . S
C1218 C1212 1.379 . S
C1218 C1215 1.363 . S
C1218 N1216 1.356 . S
C1219 C1213 1.363 . S
C1219 C1214 1.379 . S
C1219 N1217 1.356 . S
N1220 C1212 1.356 . S
N1220 H1226 0.984 . S
N1220 H1227 0.984 . S
N1221 C1214 1.356 . S
N1221 H1224 0.984 . S
N1221 H1225 0.985 . S
H1222 N1217 0.984 . S
H1223 N1217 0.985 . S
H1224 N1221 0.984 . S
H1225 N1221 0.985 . S
H1226 N1220 0.984 . S
H1227 N1220 0.984 . S
H1228 N1216 0.984 . S
H1229 N1216 0.985 . S
C1230 C1231 1.363 . S
C1230 C1236 1.379 . S
C1230 N1238 1.356 . S
C1231 C1230 1.363 . S
C1231 C1237 1.363 . S
C1232 C1233 1.363 . S
C1232 C1237 1.379 . S
C1232 N1239 1.356 . S
C1233 C1232 1.363 . S
C1233 C1236 1.363 . S
N1234 C1236 1.356 . S
N1234 H1246 0.984 . S
N1234 H1247 0.985 . S
N1235 C1237 1.356 . S
N1235 H1240 0.984 . S
N1235 H1241 0.985 . S
C1236 C1230 1.379 . S
C1236 C1233 1.363 . S
C1236 N1234 1.356 . S
C1237 C1231 1.363 . S
C1237 C1232 1.379 . S
C1237 N1235 1.356 . S
N1238 C1230 1.356 . S
N1238 H1244 0.984 . S
N1238 H1245 0.984 . S
N1239 C1232 1.356 . S
N1239 H1242 0.984 . S
N1239 H1243 0.985 . S
H1240 N1235 0.984 . S
H1241 N1235 0.985 . S
H1242 N1239 0.984 . S
H1243 N1239 0.985 . S
H1244 N1238 0.984 . S
H1245 N1238 0.984 . S
H1246 N1234 0.984 . S
H1247 N1234 0.985 . S
C529 N442 1.456 1_455 S
C531 N13 1.456 . S
C547 N46 1.457 . S
C549 N376 1.457 . S
C565 N79 1.456 . S
C567 N409 1.456 . S
C583 N112 1.457 . S
C585 N343 1.457 . S
C601 N508 1.457 1_455 S
C603 N145 1.457 . S
C619 N178 1.456 . S
C621 N310 1.456 . S
C637 N211 1.457 . S
C639 N475 1.457 . S
C655 N277 1.456 . S
C657 N244 1.456 . S
C673 C18 1.691 . S
C675 C150 1.691 . S
C691 C51 1.691 . S
C693 C183 1.691 . S
C709 C84 1.691 . S
C711 C216 1.691 . S
C727 C249 1.691 . S
C729 C117 1.691 . S
C745 C348 1.691 . S
C747 C282 1.691 . S
C763 C315 1.691 . S
C765 C381 1.691 . S
C781 C480 1.691 . S
C783 C414 1.691 . S
C799 C513 1.691 . S
C801 C447 1.691 . S
C817 C172 1.273 . S
C819 C7 1.273 . S
C835 C40 1.273 . S
C837 C205 1.273 . S
C853 C73 1.274 . S
C855 C238 1.274 . S
C871 C139 1.274 . S
C873 C106 1.274 . S
C889 C153 0.656 . S
C891 C351 0.656 . S
C907 C87 0.656 . S
C909 C285 0.656 . S
C925 C384 0.656 . S
C927 C219 0.656 . S
C943 C318 0.656 . S
C945 C21 0.656 . S
C961 C271 1.273 . S
C963 C403 1.273 . S
C979 C502 1.273 . S
C981 C337 1.273 . S
C997 C436 1.273 . S
C999 C304 1.273 . S
C1015 C370 1.274 . S
C1017 C469 1.274 . S
C1033 C483 0.656 . S
C1035 C54 0.656 . S
C1051 C186 0.656 . S
C1053 C450 0.656 . S
C1069 C516 0.656 . S
C1071 C120 0.656 . S
C1087 C252 0.656 . S
C1089 C417 0.656 . S
C1105 N2 0.897 . S
C1107 N431 0.897 . S
C1123 N35 0.898 . S
C1125 N365 0.898 . S
C1141 N68 0.897 . S
C1143 N398 0.897 . S
C1159 N101 0.898 . S
C1161 N332 0.898 . S
C1177 N134 0.898 . S
C1179 N497 0.898 . S
C1195 N167 0.897 . S
C1197 N299 0.897 . S
C1213 N464 0.898 . S
C1215 N200 0.898 . S
C1231 N266 0.897 . S
C1233 N233 0.897 . S
