# Generated by pormake.
# Topology wiz, (3)-cn, num edge types: 1
# Building blocks:
#     Node 0, Type 0, BuildingBlock: WUSLED_clean_sbu_0, # of connection points: 3
#     Node 1, Type 0, BuildingBlock: WUSLED_clean_sbu_0, # of connection points: 3
#     Node 2, Type 0, BuildingBlock: WUSLED_clean_sbu_0, # of connection points: 3
#     Node 3, Type 0, BuildingBlock: WUSLED_clean_sbu_0, # of connection points: 3
#     Node 4, Type 0, BuildingBlock: WUSLED_clean_sbu_0, # of connection points: 3
#     Node 5, Type 0, BuildingBlock: WUSLED_clean_sbu_0, # of connection points: 3
#     Node 6, Type 0, BuildingBlock: WUSLED_clean_sbu_0, # of connection points: 3
#     Node 7, Type 0, BuildingBlock: WUSLED_clean_sbu_0, # of connection points: 3
#     Node 8, Type 0, BuildingBlock: WUSLED_clean_sbu_0, # of connection points: 3
#     Node 9, Type 0, BuildingBlock: WUSLED_clean_sbu_0, # of connection points: 3
#     Node 10, Type 0, BuildingBlock: WUSLED_clean_sbu_0, # of connection points: 3
#     Node 11, Type 0, BuildingBlock: WUSLED_clean_sbu_0, # of connection points: 3
#     Edge 12, Type (0, 0), BuildingBlock: OJICUG_clean_linker_0, # of connection points: 2
#     Edge 13, Type (0, 0), BuildingBlock: OJICUG_clean_linker_0, # of connection points: 2
#     Edge 14, Type (0, 0), BuildingBlock: OJICUG_clean_linker_0, # of connection points: 2
#     Edge 15, Type (0, 0), BuildingBlock: OJICUG_clean_linker_0, # of connection points: 2
#     Edge 16, Type (0, 0), BuildingBlock: OJICUG_clean_linker_0, # of connection points: 2
#     Edge 17, Type (0, 0), BuildingBlock: OJICUG_clean_linker_0, # of connection points: 2
#     Edge 18, Type (0, 0), BuildingBlock: OJICUG_clean_linker_0, # of connection points: 2
#     Edge 19, Type (0, 0), BuildingBlock: OJICUG_clean_linker_0, # of connection points: 2
#     Edge 20, Type (0, 0), BuildingBlock: OJICUG_clean_linker_0, # of connection points: 2
#     Edge 21, Type (0, 0), BuildingBlock: OJICUG_clean_linker_0, # of connection points: 2
#     Edge 22, Type (0, 0), BuildingBlock: OJICUG_clean_linker_0, # of connection points: 2
#     Edge 23, Type (0, 0), BuildingBlock: OJICUG_clean_linker_0, # of connection points: 2
#     Edge 24, Type (0, 0), BuildingBlock: OJICUG_clean_linker_0, # of connection points: 2
#     Edge 25, Type (0, 0), BuildingBlock: OJICUG_clean_linker_0, # of connection points: 2
#     Edge 26, Type (0, 0), BuildingBlock: OJICUG_clean_linker_0, # of connection points: 2
#     Edge 27, Type (0, 0), BuildingBlock: OJICUG_clean_linker_0, # of connection points: 2
#     Edge 28, Type (0, 0), BuildingBlock: OJICUG_clean_linker_0, # of connection points: 2
#     Edge 29, Type (0, 0), BuildingBlock: OJICUG_clean_linker_0, # of connection points: 2
# Relax obj value: 0.038
# Max RMSD: 0.050
# Mean RMSD: 0.050
data_MOF--net-wiz--node1-WUSLED_clean_sbu_0--edge1-OJICUG_clean_linker_0
_symmetry_space_group_name_H-M    P1
_symmetry_Int_Tables_number       1
_symmetry_cell_setting            triclinic
loop_
_symmetry_equiv_pos_as_xyz
'x, y, z'
_cell_length_a     34.621383
_cell_length_b     34.620322
_cell_length_c     97.058322
_cell_angle_alpha  89.984393
_cell_angle_beta   89.995234
_cell_angle_gamma 120.02603
loop_
_atom_site_label
_atom_site_type_symbol
_atom_site_fract_x
_atom_site_fract_y
_atom_site_fract_z
_atom_type_partial_charge
C0 C 0.35846 0.33942 0.11125 0.0
C1 C 0.37897 0.35765 0.09861 0.0
C2 C 0.44015 0.42238 0.11051 0.0
C3 C 0.41957 0.39844 0.09823 0.0
C4 C 0.41934 0.40176 0.12308 0.0
C5 C 0.37951 0.36127 0.12338 0.0
U6 U 0.23461 0.23465 0.10585 0.0
O7 O 0.20636 0.17761 0.12032 0.0
O8 O 0.18182 0.22605 0.12041 0.0
C9 C 0.1797 0.19026 0.12579 0.0
C10 C 0.31371 0.30002 0.11269 0.0
C11 C 0.14831 0.16499 0.13692 0.0
C12 C 0.13224 0.1509 0.16136 0.0
C13 C 0.16287 0.17135 0.15062 0.0
C14 C 0.07216 0.11705 0.14476 0.0
C15 C 0.08616 0.1241 0.15864 0.0
C16 C 0.10294 0.13728 0.13404 0.0
C17 C 0.18908 0.20663 0.06649 0.0
C18 C 0.12513 0.16563 0.05139 0.0
C19 C 0.1947 0.22524 0.04226 0.0
C20 C 0.21405 0.23207 0.05525 0.0
C21 C 0.14964 0.19298 0.04022 0.0
C22 C 0.14473 0.17261 0.06451 0.0
C23 C 0.20953 0.2197 0.08018 0.0
O24 O 0.27884 0.3051 0.11121 0.0
O25 O 0.30645 0.2599 0.10966 0.0
O26 O 0.22724 0.19844 0.08637 0.0
O27 O 0.204 0.24778 0.08786 0.0
H28 H 0.36326 0.34102 0.08906 0.0
H29 H 0.4336 0.41087 0.0882 0.0
H30 H 0.43213 0.41637 0.133 0.0
H31 H 0.36421 0.34757 0.13328 0.0
H32 H 0.14494 0.15645 0.17178 0.0
H33 H 0.19786 0.19285 0.15304 0.0
H34 H 0.03722 0.09737 0.1421 0.0
H35 H 0.09111 0.1323 0.1235 0.0
H36 H 0.09034 0.14054 0.05015 0.0
H37 H 0.21484 0.24623 0.03385 0.0
H38 H 0.24834 0.25841 0.05661 0.0
H39 H 0.12495 0.15269 0.07314 0.0
C40 C 0.03217 0.35224 0.44454 0.0
C41 C 0.03432 0.37268 0.4319 0.0
C42 C 0.03113 0.43399 0.44382 0.0
C43 C 0.03427 0.41332 0.43154 0.0
C44 C 0.03117 0.41329 0.4564 0.0
C45 C 0.03171 0.37342 0.45668 0.0
U46 U 1.01142 0.22784 0.43914 0.0
O47 O 0.03809 0.19824 0.45388 0.0
O48 O 0.96546 0.17533 0.45351 0.0
C49 C 0.99828 0.17236 0.45918 0.0
C50 C 0.02607 0.30724 0.44597 0.0
C51 C 0.99074 0.14075 0.47038 0.0
C52 C 0.98348 0.12373 0.49488 0.0
C53 C 0.99587 0.15481 0.48415 0.0
C54 C 0.96211 0.06447 0.47818 0.0
C55 C 0.96596 0.07828 0.49195 0.0
C56 C 0.97425 0.0955 0.46745 0.0
C57 C 0.99531 0.1828 0.39974 0.0
C58 C 0.97447 0.11912 0.38469 0.0
C59 C 0.98033 0.18704 0.37559 0.0
C60 C 0.99299 0.20685 0.38851 0.0
C61 C 0.9698 0.14266 0.3736 0.0
C62 C 0.98689 0.13904 0.39778 0.0
C63 C 1.00232 0.20339 0.4134 0.0
O64 O 0.98596 0.27281 0.44425 0.0
O65 O 0.05872 0.29944 0.44317 0.0
O66 O 0.04079 0.21993 0.41985 0.0
O67 O 0.96855 0.19844 0.4209 0.0
H68 H 0.03491 0.35682 0.42235 0.0
H69 H 0.03571 0.42726 0.4215 0.0
H70 H 0.02962 0.42621 0.46632 0.0
H71 H 0.03016 0.35814 0.46658 0.0
H72 H 0.9866 0.13497 0.50545 0.0
H73 H 1.00814 0.18957 0.48659 0.0
H74 H 0.94859 0.02951 0.47573 0.0
H75 H 0.96973 0.08403 0.45688 0.0
H76 H 0.96628 0.08476 0.38341 0.0
H77 H 0.97729 0.206 0.3672 0.0
H78 H 0.99932 0.2406 0.38986 0.0
H79 H 0.98834 0.11992 0.40639 0.0
C80 C 0.69452 0.02591 0.7787 0.0
C81 C 0.67635 0.02738 0.76594 0.0
C82 C 0.61133 0.02421 0.77756 0.0
C83 C 0.6354 0.02691 0.76537 0.0
C84 C 0.63191 0.02483 0.79023 0.0
C85 C 0.67241 0.02561 0.79072 0.0
U86 U 0.79866 1.0073 0.77247 0.0
O87 O 0.85739 0.03522 0.78622 0.0
O88 O 0.80908 0.96226 0.78618 0.0
C89 C 0.84614 0.99552 0.79112 0.0
C90 C 0.73408 0.02092 0.78048 0.0
C91 C 0.86982 0.98978 0.80284 0.0
C92 C 0.88346 0.98856 0.82742 0.0
C93 C 0.86352 0.99895 0.81649 0.0
C94 C 0.91712 0.96143 0.81106 0.0
C95 C 0.90977 0.96869 0.82484 0.0
C96 C 0.89717 0.97158 0.80024 0.0
C97 C 0.82423 0.9903 0.7329 0.0
C98 C 0.86663 0.96749 0.71833 0.0
C99 C 0.80669 0.97576 0.70864 0.0
C100 C 0.79916 0.9888 0.72142 0.0
C101 C 0.83952 0.96363 0.70698 0.0
C102 C 0.85879 0.9805 0.73131 0.0
C103 C 0.8097 0.99851 0.74626 0.0
O104 O 0.72907 0.98105 0.77882 0.0
O105 O 0.774 0.05379 0.77725 0.0
O106 O 0.83263 0.03689 0.7527 0.0
O107 O 0.78274 0.96472 0.7541 0.0
H108 H 0.69312 0.02785 0.75647 0.0
H109 H 0.62289 0.02769 0.75527 0.0
H110 H 0.61739 0.02379 0.8001 0.0
H111 H 0.686 0.02464 0.80069 0.0
H112 H 0.87683 0.99446 0.83789 0.0
H113 H 0.84228 1.01286 0.81871 0.0
H114 H 0.93795 0.94727 0.80859 0.0
H115 H 0.90247 0.96436 0.78978 0.0
H116 H 0.89215 0.95829 0.71733 0.0
H117 H 0.78575 0.97386 0.70007 0.0
H118 H 0.77242 0.99631 0.72245 0.0
H119 H 0.8785 0.98144 0.74011 0.0
C120 C 0.68087 0.68688 0.11126 0.0
C121 C 0.66041 0.66867 0.09862 0.0
C122 C 0.59918 0.60391 0.11051 0.0
C123 C 0.61981 0.62788 0.09824 0.0
C124 C 0.61995 0.62449 0.12309 0.0
C125 C 0.65977 0.66499 0.12339 0.0
U126 U 0.80475 0.79162 0.10587 0.0
O127 O 0.83311 0.84872 0.1203 0.0
O128 O 0.8575 0.80016 0.12044 0.0
C129 C 0.85972 0.83603 0.12579 0.0
C130 C 0.72561 0.72627 0.11272 0.0
C131 C 0.89098 0.86123 0.13694 0.0
C132 C 0.90705 0.87429 0.1614 0.0
C133 C 0.87649 0.85391 0.15065 0.0
C134 C 0.96692 0.91008 0.1448 0.0
C135 C 0.953 0.90203 0.15868 0.0
C136 C 0.9362 0.88989 0.13406 0.0
C137 C 0.85025 0.81959 0.06651 0.0
C138 C 0.91417 0.8606 0.05139 0.0
C139 C 0.84459 0.80097 0.04229 0.0
C140 C 0.82526 0.79414 0.05528 0.0
C141 C 0.88964 0.83325 0.04023 0.0
C142 C 0.89459 0.85362 0.06451 0.0
C143 C 0.82982 0.80654 0.0802 0.0
O144 O 0.76048 0.72118 0.11125 0.0
O145 O 0.7329 0.7664 0.10969 0.0
O146 O 0.81212 0.82782 0.08638 0.0
O147 O 0.83534 0.77845 0.08789 0.0
H148 H 0.67616 0.68532 0.08907 0.0
H149 H 0.60582 0.61546 0.0882 0.0
H150 H 0.60713 0.60987 0.13301 0.0
H151 H 0.67503 0.67867 0.13329 0.0
H152 H 0.89445 0.86794 0.17185 0.0
H153 H 0.84163 0.83169 0.15307 0.0
H154 H 1.0018 0.93055 0.14215 0.0
H155 H 0.94799 0.89564 0.12351 0.0
H156 H 0.94896 0.8857 0.05014 0.0
H157 H 0.82444 0.77999 0.03388 0.0
H158 H 0.79098 0.76779 0.05665 0.0
H159 H 0.91438 0.87355 0.07313 0.0
C160 C 1.00721 0.67439 0.44452 0.0
C161 C 1.00499 0.65392 0.43188 0.0
C162 C 1.00819 0.59262 0.44382 0.0
C163 C 1.00499 0.61326 0.43153 0.0
C164 C 1.00823 0.61335 0.45639 0.0
C165 C 1.00771 0.65323 0.45667 0.0
U166 U 0.02806 0.79895 0.43927 0.0
O167 O 1.00127 0.82835 0.45403 0.0
O168 O 0.07387 0.85112 0.45374 0.0
C169 C 0.04104 0.8542 0.45935 0.0
C170 C 1.01335 0.71941 0.44593 0.0
C171 C 0.04846 0.88565 0.4706 0.0
C172 C 0.05663 0.90279 0.4951 0.0
C173 C 0.04421 0.8717 0.48437 0.0
C174 C 0.0761 0.96177 0.47841 0.0
C175 C 0.07319 0.94811 0.49218 0.0
C176 C 0.06404 0.93075 0.46768 0.0
C177 C 0.0443 0.84422 0.39987 0.0
C178 C 0.06621 0.9077 0.38463 0.0
C179 C 0.05777 0.83856 0.37569 0.0
C180 C 0.04538 0.81934 0.3887 0.0
C181 C 0.06974 0.88335 0.37356 0.0
C182 C 0.05376 0.88825 0.39778 0.0
C183 C 0.03748 0.82433 0.41363 0.0
O184 O 0.05349 0.75385 0.44425 0.0
O185 O 0.98072 0.72727 0.44316 0.0
O186 O 0.99884 0.80723 0.42001 0.0
O187 O 0.07119 0.82898 0.42109 0.0
H188 H 1.00436 0.66976 0.42233 0.0
H189 H 1.00348 0.59928 0.42149 0.0
H190 H 1.00986 0.60047 0.46631 0.0
H191 H 1.00932 0.66855 0.46656 0.0
H192 H 0.05423 0.89165 0.50565 0.0
H193 H 0.03263 0.83706 0.48681 0.0
H194 H 0.08894 0.99662 0.47596 0.0
H195 H 0.06794 0.94213 0.45711 0.0
H196 H 0.0753 0.9423 0.38331 0.0
H197 H 0.05927 0.81861 0.36733 0.0
H198 H 0.03813 0.78531 0.39015 0.0
H199 H 0.05318 0.90798 0.40635 0.0
C200 C 0.3468 1.00056 0.77813 0.0
C201 C 0.36507 0.99858 0.76545 0.0
C202 C 0.42978 1.00185 0.77729 0.0
C203 C 0.4059 0.9988 0.76503 0.0
C204 C 0.40912 1.00178 0.78989 0.0
C205 C 0.36865 1.0011 0.79023 0.0
U206 U 0.24234 0.01947 0.77235 0.0
O207 O 0.18457 0.99078 0.78657 0.0
O208 O 0.23284 0.06379 0.78665 0.0
C209 C 0.19713 0.03007 0.79206 0.0
C210 C 0.30739 1.00583 0.77972 0.0
C211 C 0.17156 0.03607 0.80316 0.0
C212 C 0.15861 0.04051 0.82762 0.0
C213 C 0.179 0.02978 0.81696 0.0
C214 C 0.1214 0.06188 0.81071 0.0
C215 C 0.12995 0.05747 0.82468 0.0
C216 C 0.14235 0.0518 0.80011 0.0
C217 C 0.21424 0.03688 0.73315 0.0
C218 C 0.17845 0.06921 0.71958 0.0
C219 C 0.22307 0.04256 0.70828 0.0
C220 C 0.23148 0.02956 0.72101 0.0
C221 C 0.19716 0.06328 0.70742 0.0
C222 C 0.18698 0.05612 0.7324 0.0
C223 C 0.23004 0.02837 0.74624 0.0
O224 O 0.31245 0.04574 0.77811 0.0
O225 O 0.26732 0.97295 0.77666 0.0
O226 O 0.20766 0.98985 0.75265 0.0
O227 O 0.25655 0.06218 0.75413 0.0
H228 H 0.34846 0.99788 0.75592 0.0
H229 H 0.41844 0.99748 0.75499 0.0
H230 H 0.42363 1.00338 0.7998 0.0
H231 H 0.35497 1.00248 0.80015 0.0
H232 H 0.16679 0.03703 0.83813 0.0
H233 H 0.20182 0.01802 0.81952 0.0
H234 H 0.09871 0.07349 0.80789 0.0
H235 H 0.1362 0.05692 0.7895 0.0
H236 H 0.15808 0.08483 0.71919 0.0
H237 H 0.2385 0.0381 0.69917 0.0
H238 H 0.25305 0.01525 0.72142 0.0
H239 H 0.17352 0.06221 0.74169 0.0
C240 C 0.69349 0.67444 0.58347 0.0
C241 C 0.67519 0.65394 0.59611 0.0
C242 C 0.61077 0.59266 0.58416 0.0
C243 C 0.63453 0.61326 0.59645 0.0
C244 C 0.63152 0.61342 0.57159 0.0
C245 C 0.67192 0.65331 0.57132 0.0
U246 U 0.79702 0.79901 0.58877 0.0
O247 O 0.85324 0.82852 0.57401 0.0
O248 O 0.80325 0.85109 0.57428 0.0
C249 C 0.83917 0.8542 0.56866 0.0
C250 C 0.7323 0.71949 0.58208 0.0
C251 C 0.86307 0.88551 0.55738 0.0
C252 C 0.87095 0.90259 0.5329 0.0
C253 C 0.85247 0.87161 0.54365 0.0
C254 C 0.91227 0.96138 0.54948 0.0
C255 C 0.90051 0.94777 0.53576 0.0
C256 C 0.89338 0.93047 0.56025 0.0
C257 C 0.82617 0.84442 0.62814 0.0
C258 C 0.86626 0.90845 0.64327 0.0
C259 C 0.80869 0.83785 0.65247 0.0
C260 C 0.80176 0.81882 0.63942 0.0
C261 C 0.83991 0.88327 0.65452 0.0
C262 C 0.85927 0.88913 0.63011 0.0
C263 C 0.81296 0.82423 0.61442 0.0
O264 O 0.7265 0.75384 0.58379 0.0
O265 O 0.77281 0.7274 0.58484 0.0
O266 O 0.83448 0.80712 0.60804 0.0
O267 O 0.78402 0.82902 0.60694 0.0
H268 H 0.6916 0.66977 0.60567 0.0
H269 H 0.62202 0.59926 0.60648 0.0
H270 H 0.61708 0.60057 0.56166 0.0
H271 H 0.68568 0.66867 0.56143 0.0
H272 H 0.86155 0.89148 0.52237 0.0
H273 H 0.82883 0.83708 0.54127 0.0
H274 H 0.93495 0.99613 0.55189 0.0
H275 H 0.90157 0.94183 0.57081 0.0
H276 H 0.89056 0.9435 0.64448 0.0
H277 H 0.7886 0.81707 0.66092 0.0
H278 H 0.77615 0.78423 0.63807 0.0
H279 H 0.87842 0.9094 0.62145 0.0
C280 C 0.03214 0.68704 0.91664 0.0
C281 C 0.03437 0.66882 0.9293 0.0
C282 C 0.03084 0.60405 0.91743 0.0
C283 C 0.03416 0.62802 0.92969 0.0
C284 C 0.03069 0.62465 0.90484 0.0
C285 C 0.03137 0.66514 0.90452 0.0
U286 U 1.01304 0.79179 0.92206 0.0
O287 O 0.04174 0.84905 0.90768 0.0
O288 O 0.96878 0.80045 0.90754 0.0
C289 C 1.00241 0.83644 0.90222 0.0
C290 C 0.02681 0.72647 0.91516 0.0
C291 C 0.99632 0.86177 0.8911 0.0
C292 C 0.99297 0.8749 0.86666 0.0
C293 C 1.00325 0.85445 0.87737 0.0
C294 C 0.96931 0.9108 0.88333 0.0
C295 C 0.97484 0.90268 0.86943 0.0
C296 C 0.97994 0.89054 0.89403 0.0
C297 C 0.99554 0.81957 0.96145 0.0
C298 C 0.97262 0.8606 0.97654 0.0
C299 C 0.98255 0.801 0.98567 0.0
C300 C 0.99506 0.79415 0.97269 0.0
C301 C 0.96978 0.83327 0.98771 0.0
C302 C 0.98523 0.8536 0.96342 0.0
C303 C 1.00296 0.80645 0.94778 0.0
O304 O 0.98686 0.72139 0.91665 0.0
O305 O 0.05967 0.7666 0.9182 0.0
O306 O 0.04192 0.82784 0.94157 0.0
O307 O 0.96933 0.77845 0.94007 0.0
H308 H 0.03525 0.68546 0.93884 0.0
H309 H 0.03569 0.61558 0.93973 0.0
H310 H 0.02893 0.61004 0.89493 0.0
H311 H 0.02981 0.67881 0.89462 0.0
H312 H 0.99904 0.86852 0.8562 0.0
H313 H 1.01577 0.83218 0.87491 0.0
H314 H 0.95504 0.93134 0.88603 0.0
H315 H 0.97411 0.89632 0.9046 0.0
H316 H 0.96295 0.8857 0.97778 0.0
H317 H 0.98171 0.78003 0.99409 0.0
H318 H 1.00299 0.76781 0.97134 0.0
H319 H 0.98539 0.87351 0.95479 0.0
C320 C 0.35868 0.02596 0.25027 0.0
C321 C 0.37947 0.02848 0.26286 0.0
C322 C 0.44025 0.02463 0.25084 0.0
C323 C 0.42001 0.02828 0.26315 0.0
C324 C 0.41917 0.02419 0.2383 0.0
C325 C 0.37937 0.02491 0.23808 0.0
U326 U 0.23459 1.00702 0.25525 0.0
O327 O 0.2082 0.0371 0.24046 0.0
O328 O 0.18368 0.96422 0.24016 0.0
C329 C 0.18294 0.99828 0.2345 0.0
C330 C 0.31397 0.02061 0.24902 0.0
C331 C 0.14939 0.99116 0.22401 0.0
C332 C 0.13073 0.98977 0.1998 0.0
C333 C 0.16256 1.00109 0.21021 0.0
C334 C 0.07217 0.96021 0.21698 0.0
C335 C 0.08493 0.96853 0.203 0.0
C336 C 0.10407 0.97103 0.22737 0.0
C337 C 0.18761 0.9888 0.29451 0.0
C338 C 0.12443 0.96565 0.30994 0.0
C339 C 0.19469 0.97647 0.3187 0.0
C340 C 0.21336 0.98878 0.30559 0.0
C341 C 0.14961 0.96334 0.32098 0.0
C342 C 0.14333 0.97817 0.29675 0.0
C343 C 0.20639 0.99578 0.28059 0.0
O344 O 0.27898 0.98063 0.25033 0.0
O345 O 0.30678 0.05353 0.25203 0.0
O346 O 0.22569 0.0352 0.27463 0.0
O347 O 0.20172 0.96239 0.27296 0.0
H348 H 0.364 0.0296 0.27244 0.0
H349 H 0.43426 0.03014 0.27316 0.0
H350 H 0.43172 0.02209 0.22837 0.0
H351 H 0.36381 0.02312 0.22822 0.0
H352 H 0.14204 0.99621 0.18921 0.0
H353 H 0.19747 0.01619 0.20743 0.0
H354 H 0.03743 0.94483 0.21993 0.0
H355 H 0.0933 0.96303 0.23798 0.0
H356 H 0.08962 0.95565 0.31132 0.0
H357 H 0.21539 0.97613 0.32701 0.0
H358 H 0.24762 0.99696 0.30402 0.0
H359 H 0.12298 0.97793 0.28824 0.0
C360 C 0.34641 0.35238 0.58321 0.0
C361 C 0.36458 0.37255 0.59589 0.0
C362 C 0.42912 0.43419 0.58406 0.0
C363 C 0.40526 0.41324 0.59632 0.0
C364 C 0.40845 0.41378 0.57146 0.0
C365 C 0.3681 0.37388 0.57111 0.0
U366 U 0.24346 0.22805 0.58884 0.0
O367 O 0.18631 0.19734 0.57445 0.0
O368 O 0.23633 0.17484 0.57468 0.0
C369 C 0.19958 0.17069 0.56936 0.0
C370 C 0.30763 0.30735 0.58163 0.0
C371 C 0.17647 0.14045 0.55776 0.0
C372 C 0.16821 0.12415 0.5332 0.0
C373 C 0.18673 0.15493 0.54404 0.0
C374 C 0.12796 0.06466 0.54968 0.0
C375 C 0.13922 0.07872 0.53598 0.0
C376 C 0.14663 0.0953 0.56048 0.0
C377 C 0.21552 0.18317 0.6282 0.0
C378 C 0.17519 0.11731 0.6426 0.0
C379 C 0.23015 0.18743 0.65274 0.0
C380 C 0.23791 0.2078 0.63988 0.0
C381 C 0.19906 0.14173 0.65435 0.0
C382 C 0.18365 0.13782 0.62958 0.0
C383 C 0.23003 0.20577 0.61482 0.0
O384 O 0.31356 0.27309 0.58337 0.0
O385 O 0.26716 0.29935 0.58452 0.0
O386 O 0.20731 0.22136 0.60833 0.0
O387 O 0.25795 0.19996 0.60715 0.0
H388 H 0.34808 0.35645 0.60542 0.0
H389 H 0.41773 0.42697 0.60638 0.0
H390 H 0.42288 0.42693 0.56155 0.0
H391 H 0.35445 0.35882 0.56119 0.0
H392 H 0.17718 0.13558 0.52267 0.0
H393 H 0.20997 0.18964 0.54174 0.0
H394 H 0.10572 0.02977 0.55203 0.0
H395 H 0.13866 0.08353 0.57101 0.0
H396 H 0.15039 0.08229 0.6434 0.0
H397 H 0.25015 0.20749 0.66129 0.0
H398 H 0.26295 0.24277 0.63896 0.0
H399 H 0.16606 0.1182 0.62063 0.0
C400 C 1.00716 0.33953 0.9167 0.0
C401 C 1.00482 0.35772 0.92934 0.0
C402 C 1.0084 0.4225 0.91745 0.0
C403 C 1.005 0.3985 0.92972 0.0
C404 C 1.00867 0.40194 0.90487 0.0
C405 C 1.008 0.36145 0.90457 0.0
U406 U 0.02609 0.23462 0.92205 0.0
O407 O 0.99707 0.17764 0.90753 0.0
O408 O 0.0701 0.22581 0.9075 0.0
C409 C 0.03636 0.19027 0.90203 0.0
C410 C 1.01245 0.3001 0.91525 0.0
C411 C 0.04273 0.16475 0.89102 0.0
C412 C 0.04239 0.14825 0.86666 0.0
C413 C 0.03228 0.16888 0.87737 0.0
C414 C 0.07327 0.11879 0.8832 0.0
C415 C 0.064 0.12351 0.86932 0.0
C416 C 0.06268 0.13909 0.89389 0.0
C417 C 0.04357 0.20663 0.96144 0.0
C418 C 0.06656 0.16568 0.97655 0.0
C419 C 0.0566 0.22526 0.98566 0.0
C420 C 0.04405 0.23206 0.97267 0.0
C421 C 0.06939 0.19301 0.98771 0.0
C422 C 0.05392 0.17264 0.96343 0.0
C423 C 0.03621 0.21967 0.94774 0.0
O424 O 0.05238 0.30511 0.9167 0.0
O425 O 0.97956 0.25998 0.91828 0.0
O426 O 0.99722 0.19841 0.94155 0.0
O427 O 0.06984 0.24769 0.94004 0.0
H428 H 1.00385 0.34106 0.93889 0.0
H429 H 1.00335 0.4109 0.93975 0.0
H430 H 1.01055 0.4166 0.89496 0.0
H431 H 1.00963 0.3478 0.89467 0.0
H432 H 0.03315 0.152 0.85632 0.0
H433 H 1.01699 0.18877 0.87494 0.0
H434 H 0.09037 0.10094 0.88591 0.0
H435 H 0.07125 0.13579 0.90439 0.0
H436 H 0.07626 0.1406 0.9778 0.0
H437 H 0.05745 0.24624 0.99407 0.0
H438 H 0.0361 0.25839 0.97131 0.0
H439 H 0.05378 0.15272 0.95481 0.0
C440 C 0.68052 1.00054 0.25013 0.0
C441 C 0.65986 0.99807 0.26275 0.0
C442 C 0.59889 1.00177 0.25079 0.0
C443 C 0.61929 0.99823 0.26308 0.0
C444 C 0.61983 1.00214 0.23823 0.0
C445 C 0.65966 1.00147 0.23797 0.0
U446 U 0.80445 0.0195 0.25529 0.0
O447 O 0.83136 0.98961 0.24064 0.0
O448 O 0.85604 0.06256 0.24036 0.0
C449 C 0.85699 0.02853 0.23477 0.0
C450 C 0.72523 1.00589 0.24878 0.0
C451 C 0.89006 0.03535 0.22414 0.0
C452 C 0.90841 0.03742 0.19986 0.0
C453 C 0.87671 0.02621 0.21033 0.0
C454 C 0.96702 0.06515 0.217 0.0
C455 C 0.9542 0.0577 0.20302 0.0
C456 C 0.93531 0.05452 0.22743 0.0
C457 C 0.85119 0.03775 0.29455 0.0
C458 C 0.91585 0.06476 0.30957 0.0
C459 C 0.84386 0.04627 0.31901 0.0
C460 C 0.8249 0.03405 0.30595 0.0
C461 C 0.88989 0.06324 0.32098 0.0
C462 C 0.89659 0.05219 0.29642 0.0
C463 C 0.83089 0.03014 0.28083 0.0
O464 O 0.76018 0.04586 0.25016 0.0
O465 O 0.7324 0.97299 0.25182 0.0
O466 O 0.81225 0.99087 0.27479 0.0
O467 O 0.83653 0.06367 0.27307 0.0
H468 H 0.67545 0.99703 0.27231 0.0
H469 H 0.60514 0.99644 0.27311 0.0
H470 H 0.60716 1.00412 0.2283 0.0
H471 H 0.67509 1.0032 0.22809 0.0
H472 H 0.89701 0.03166 0.18928 0.0
H473 H 0.84184 1.01185 0.20759 0.0
H474 H 1.0017 0.07968 0.21994 0.0
H475 H 0.9462 0.06188 0.23805 0.0
H476 H 0.95135 0.07767 0.31063 0.0
H477 H 0.82234 0.04315 0.32754 0.0
H478 H 0.78974 0.02284 0.30468 0.0
H479 H 0.91738 0.05523 0.28767 0.0
C480 C 0.07894 0.15088 1.00757 0.0
C481 C 0.08931 0.19139 1.00113 0.0
H482 H 0.08961 0.11932 0.02512 0.0
C483 C 0.1194 0.2316 1.00764 0.0
H484 H 0.05577 0.11934 1.00282 0.0
C485 C 0.13824 0.23159 0.02029 0.0
C486 C 0.12812 0.19138 0.0268 0.0
H487 H 0.12882 0.26344 1.00291 0.0
H488 H 0.16067 0.26343 0.02502 0.0
C489 C 0.09798 0.15087 0.02036 0.0
C490 C 0.94723 0.07929 0.33974 0.0
C491 C 0.91057 0.08214 0.33465 0.0
H492 H 0.99471 0.09589 0.35622 0.0
C493 C 0.89383 0.10437 0.34267 0.0
H494 H 0.96094 0.06228 0.33392 0.0
C495 C 0.91278 0.12297 0.35533 0.0
C496 C 0.94936 0.12041 0.36038 0.0
H497 H 0.86654 0.10849 0.33905 0.0
H498 H 0.8989 0.13981 0.36119 0.0
C499 C 0.96633 0.0981 0.35255 0.0
C500 C 0.88187 0.95609 0.68683 0.0
C501 C 0.84149 0.94303 0.69376 0.0
H502 H 0.91332 0.94766 0.66886 0.0
C503 C 0.80148 0.91028 0.68778 0.0
H504 H 0.9132 0.98143 0.69118 0.0
C505 C 0.80144 0.89148 0.67513 0.0
C506 C 0.8415 0.90433 0.66806 0.0
H507 H 0.76983 0.89911 0.69291 0.0
H508 H 0.7696 0.86718 0.67079 0.0
C509 C 0.88185 0.93708 0.67402 0.0
C510 C 0.90099 0.79465 0.0203 0.0
C511 C 0.91114 0.83486 0.02681 0.0
H512 H 0.91034 0.76282 1.00291 0.0
C513 C 0.94127 0.87538 0.02037 0.0
H514 H 0.87857 0.76281 0.02504 0.0
C515 C 0.96029 0.87539 1.00757 0.0
C516 C 0.94988 0.83488 1.00113 0.0
H517 H 0.94966 0.90692 0.02512 0.0
H518 H 0.98347 0.90693 1.00281 0.0
C519 C 0.91979 0.79466 1.00765 0.0
C520 C 0.09713 0.95279 0.3407 0.0
C521 C 0.12861 0.94381 0.3345 0.0
H522 H 0.0538 0.94096 0.35803 0.0
C523 C 0.14007 0.9151 0.34128 0.0
H524 H 0.08766 0.97486 0.33575 0.0
C525 C 0.12116 0.89622 0.35393 0.0
C526 C 0.08972 0.90494 0.36016 0.0
H527 H 0.16343 0.90661 0.33674 0.0
H528 H 0.13149 0.8748 0.35887 0.0
C529 C 0.07804 0.93371 0.35348 0.0
C530 C 0.18462 0.07539 0.66902 0.0
C531 C 0.19388 0.11983 0.66807 0.0
H532 H 0.17775 0.02252 0.68217 0.0
C533 C 0.20106 0.14414 0.68038 0.0
H534 H 0.17944 0.05555 0.65987 0.0
C535 C 0.20079 0.1253 0.69315 0.0
C536 C 0.19285 0.08147 0.694 0.0
H537 H 0.20731 0.17804 0.68024 0.0
H538 H 0.20809 0.14557 0.70233 0.0
C539 C 0.18412 0.05649 0.68182 0.0
C540 C 0.53835 0.53475 0.09796 0.0
C541 C 0.55789 0.55765 0.11035 0.0
H542 H 0.48806 0.47697 0.08802 0.0
C543 C 0.53795 0.53469 0.12269 0.0
H544 H 0.55132 0.54937 0.08802 0.0
C545 C 0.50136 0.49155 0.12269 0.0
C546 C 0.48145 0.46863 0.11035 0.0
H547 H 0.54972 0.54892 0.13272 0.0
H548 H 0.48957 0.4773 0.13272 0.0
C549 C 0.50102 0.49156 0.09796 0.0
C550 C 0.02293 0.49501 0.45601 0.0
C551 C 0.02607 0.47519 0.44367 0.0
H552 H 1.01377 0.54327 0.46604 0.0
C553 C 0.02269 0.49472 0.43128 0.0
H554 H 0.02532 0.48319 0.46604 0.0
C555 C 1.01668 0.53193 0.43128 0.0
C556 C 1.01322 0.5514 0.44367 0.0
H557 H 0.02442 0.48185 0.42134 0.0
H558 H 1.01503 0.54486 0.42134 0.0
C559 C 1.01628 0.53152 0.45601 0.0
C560 C 0.49918 1.01032 0.76478 0.0
C561 C 0.47602 1.00674 0.77714 0.0
H562 H 0.55736 0.01821 0.75494 0.0
C563 C 0.4987 1.00942 0.7895 0.0
H564 H 0.48471 1.00889 0.75483 0.0
C565 C 0.54175 0.01583 0.78957 0.0
C566 C 0.56503 0.01919 0.77727 0.0
H567 H 0.48431 1.00671 0.79952 0.0
H568 H 0.55554 0.01773 0.79963 0.0
C569 C 0.54241 0.01619 0.76484 0.0
C570 C 0.49822 0.49482 0.59665 0.0
C571 C 0.47539 0.47536 0.58425 0.0
H572 H 0.55601 0.54488 0.60662 0.0
C573 C 0.49848 0.49521 0.57192 0.0
H574 H 0.48349 0.48193 0.60658 0.0
C575 C 0.54164 0.53167 0.57194 0.0
C576 C 0.56451 0.55149 0.58429 0.0
H577 H 0.48438 0.48343 0.56187 0.0
H578 H 0.55597 0.54343 0.56191 0.0
C579 C 0.54147 0.53199 0.59667 0.0
C580 C 1.01674 0.4917 0.92999 0.0
C581 C 1.01334 0.46875 0.91761 0.0
H582 H 0.02428 0.54952 0.93992 0.0
C583 C 1.01628 0.49167 0.90527 0.0
H584 H 1.01516 0.47711 0.93993 0.0
C585 C 0.02282 0.53481 0.90526 0.0
C586 C 0.02589 0.55778 0.9176 0.0
H587 H 1.01376 0.4774 0.89524 0.0
H588 H 0.0252 0.54901 0.89523 0.0
C589 C 0.02259 0.53488 0.92999 0.0
C590 C 0.50097 0.01614 0.26334 0.0
C591 C 0.48144 0.01958 0.25096 0.0
H592 H 0.55117 1.0086 0.27327 0.0
C593 C 0.50128 0.01653 0.23861 0.0
H594 H 0.48805 0.01775 0.27329 0.0
C595 C 0.53777 1.00984 0.2386 0.0
C596 C 0.55768 1.0068 0.25094 0.0
H597 H 0.48949 0.01908 0.22859 0.0
H598 H 0.54951 1.0073 0.22857 0.0
C599 C 0.53821 1.01022 0.26333 0.0
C600 C 0.97989 0.04992 0.17924 0.0
C601 C 0.98851 0.07311 0.19181 0.0
H602 H 1.00373 0.0464 0.15924 0.0
C603 C 0.02997 0.11232 0.19345 0.0
H604 H 0.94879 0.01915 0.17761 0.0
C605 C 0.06147 0.12827 0.18284 0.0
C606 C 0.05287 0.10548 0.17019 0.0
H607 H 0.03774 0.13188 0.20279 0.0
H608 H 0.09202 0.15952 0.1845 0.0
C609 C 1.01161 0.06576 0.16862 0.0
C610 C 0.88948 0.99494 0.5185 0.0
C611 C 0.91735 0.98102 0.5245 0.0
H612 H 0.88349 0.03725 0.50346 0.0
C613 C 0.9613 0.99922 0.51977 0.0
H614 H 0.85544 0.98133 0.52204 0.0
C615 C 0.97724 0.03097 0.50914 0.0
C616 C 0.94944 0.04498 0.50319 0.0
H617 H 0.98285 0.98841 0.5243 0.0
H618 H 1.01119 0.04481 0.50553 0.0
C619 C 0.90546 0.02682 0.50794 0.0
C620 C 0.94359 0.97728 0.84862 0.0
C621 C 0.92751 0.95304 0.83629 0.0
H622 H 0.97256 0.98177 0.86846 0.0
C623 C 0.9279 0.91278 0.83494 0.0
H624 H 0.94436 1.00869 0.84999 0.0
C625 C 0.94349 0.89698 0.84557 0.0
C626 C 0.9597 0.92101 0.85793 0.0
H627 H 0.91485 0.89249 0.82578 0.0
H628 H 0.94144 0.86502 0.84414 0.0
C629 C 0.9597 0.96163 0.85926 0.0
C630 C 0.02674 0.96123 0.16883 0.0
C631 C 0.98628 0.92056 0.17022 0.0
H632 H 0.08897 1.00861 0.17799 0.0
C633 C 0.97846 0.8968 0.18265 0.0
H634 H 0.03395 0.98124 0.15961 0.0
C635 C 1.00995 0.91279 0.19326 0.0
C636 C 0.05059 0.953 0.19182 0.0
H637 H 0.94855 0.86484 0.18412 0.0
H638 H 1.00287 0.89259 0.20244 0.0
C639 C 0.05847 0.97711 0.17945 0.0
C640 C 0.06314 0.99773 0.5088 0.0
C641 C 0.08984 0.98147 0.50341 0.0
H642 H 0.05862 0.042 0.52354 0.0
C643 C 0.13287 0.99742 0.50874 0.0
H644 H 0.02986 0.98556 0.50479 0.0
C645 C 0.14905 0.02935 0.51927 0.0
C646 C 0.12233 0.04559 0.52468 0.0
H647 H 0.154 0.98528 0.5047 0.0
H648 H 0.18235 0.04125 0.52325 0.0
C649 C 0.07929 0.02952 0.51942 0.0
C650 C 0.10281 0.10811 0.83385 0.0
C651 C 0.11081 0.07249 0.836 0.0
H652 H 0.08364 0.15262 0.84229 0.0
C653 C 0.10156 0.05259 0.84914 0.0
H654 H 0.11032 0.12535 0.82406 0.0
C655 C 0.08549 0.0682 0.85978 0.0
C656 C 0.07849 0.10462 0.85772 0.0
H657 H 0.10613 0.02443 0.85124 0.0
H658 H 0.0782 0.05108 0.86958 0.0
C659 C 0.08715 0.12392 0.84448 0.0
loop_
_geom_bond_atom_site_label_1
_geom_bond_atom_site_label_2
_geom_bond_distance
_geom_bond_site_symmetry_2
_ccdc_geom_bond_type
C0 C1 1.264 . S
C0 C5 1.479 . S
C0 C10 1.465 . S
C1 C0 1.264 . S
C1 C3 1.339 . S
C1 H28 0.931 . S
C2 C3 1.395 . S
C2 C4 1.320 . S
C3 C1 1.339 . S
C3 C2 1.395 . S
C3 H29 0.929 . S
C4 C2 1.320 . S
C4 C5 1.405 . S
C4 H30 0.930 . S
C5 C0 1.479 . S
C5 C4 1.405 . S
C5 H31 0.931 . S
U6 O7 2.454 . S
U6 O8 2.458 . S
U6 C9 2.984 . S
U6 C10 2.847 . S
U6 C23 2.882 . S
U6 O24 2.441 . S
U6 O25 2.420 . S
U6 O26 2.455 . S
U6 O27 2.449 . S
O7 U6 2.454 . S
O7 C9 1.353 . S
O8 U6 2.458 . S
O8 C9 1.286 . S
C9 U6 2.984 . S
C9 O7 1.353 . S
C9 O8 1.286 . S
C9 C11 1.363 . S
C10 C0 1.465 . S
C10 U6 2.847 . S
C10 O24 1.249 . S
C10 O25 1.202 . S
C11 C9 1.363 . S
C11 C13 1.408 . S
C11 C16 1.342 . S
C12 C13 1.310 . S
C12 C15 1.461 . S
C12 H32 0.932 . S
C13 C11 1.408 . S
C13 C12 1.310 . S
C13 H33 0.930 . S
C14 C15 1.474 . S
C14 C16 1.285 . S
C14 H34 0.929 . S
C15 C12 1.461 . S
C15 C14 1.474 . S
C16 C11 1.342 . S
C16 C14 1.285 . S
C16 H35 0.930 . S
C17 C20 1.424 . S
C17 C22 1.245 . S
C17 C23 1.428 . S
C18 C21 1.260 . S
C18 C22 1.477 . S
C18 H36 0.932 . S
C19 C20 1.384 . S
C19 C21 1.479 . S
C19 H37 0.929 . S
C20 C17 1.424 . S
C20 C19 1.384 . S
C20 H38 0.928 . S
C21 C18 1.260 . S
C21 C19 1.479 . S
C22 C17 1.245 . S
C22 C18 1.477 . S
C22 H39 0.932 . S
C23 U6 2.882 . S
C23 C17 1.428 . S
C23 O26 1.301 . S
C23 O27 1.282 . S
O24 U6 2.441 . S
O24 C10 1.249 . S
O25 U6 2.420 . S
O25 C10 1.202 . S
O26 U6 2.455 . S
O26 C23 1.301 . S
O27 U6 2.449 . S
O27 C23 1.282 . S
H28 C1 0.931 . S
H29 C3 0.929 . S
H30 C4 0.930 . S
H31 C5 0.931 . S
H32 C12 0.932 . S
H33 C13 0.930 . S
H34 C14 0.929 . S
H35 C16 0.930 . S
H36 C18 0.932 . S
H37 C19 0.929 . S
H38 C20 0.928 . S
H39 C22 0.932 . S
C40 C41 1.264 . S
C40 C45 1.479 . S
C40 C50 1.465 . S
C41 C40 1.264 . S
C41 C43 1.339 . S
C41 H68 0.931 . S
C42 C43 1.395 . S
C42 C44 1.320 . S
C43 C41 1.339 . S
C43 C42 1.395 . S
C43 H69 0.929 . S
C44 C42 1.320 . S
C44 C45 1.405 . S
C44 H70 0.930 . S
C45 C40 1.479 . S
C45 C44 1.405 . S
C45 H71 0.931 . S
U46 O47 2.454 . S
U46 O48 2.458 1_455 S
U46 C49 2.984 1_455 S
U46 C50 2.847 . S
U46 C63 2.882 . S
U46 O64 2.441 . S
U46 O65 2.420 . S
U46 O66 2.455 . S
U46 O67 2.449 . S
O47 U46 2.454 . S
O47 C49 1.353 1_455 S
O48 U46 2.458 1_655 S
O48 C49 1.286 . S
C49 U46 2.984 1_655 S
C49 O47 1.353 1_655 S
C49 O48 1.286 . S
C49 C51 1.363 . S
C50 C40 1.465 . S
C50 U46 2.847 . S
C50 O64 1.249 . S
C50 O65 1.202 . S
C51 C49 1.363 . S
C51 C53 1.408 . S
C51 C56 1.342 . S
C52 C53 1.310 . S
C52 C55 1.461 . S
C52 H72 0.932 . S
C53 C51 1.408 . S
C53 C52 1.310 . S
C53 H73 0.930 1_655 S
C54 C55 1.474 . S
C54 C56 1.285 . S
C54 H74 0.929 . S
C55 C52 1.461 . S
C55 C54 1.474 . S
C56 C51 1.342 . S
C56 C54 1.285 . S
C56 H75 0.930 . S
C57 C60 1.431 . S
C57 C62 1.243 . S
C57 C63 1.427 1_655 S
C58 C61 1.260 . S
C58 C62 1.477 . S
C58 H76 0.932 . S
C59 C60 1.384 . S
C59 C61 1.479 . S
C59 H77 0.929 . S
C60 C57 1.431 . S
C60 C59 1.384 . S
C60 H78 0.928 1_655 S
C61 C58 1.260 . S
C61 C59 1.479 . S
C62 C57 1.243 . S
C62 C58 1.477 . S
C62 H79 0.932 . S
C63 U46 2.882 . S
C63 C57 1.427 1_455 S
C63 O66 1.301 . S
C63 O67 1.282 . S
O64 U46 2.441 . S
O64 C50 1.249 . S
O65 U46 2.420 . S
O65 C50 1.202 . S
O66 U46 2.455 . S
O66 C63 1.301 . S
O67 U46 2.449 . S
O67 C63 1.282 . S
H68 C41 0.931 . S
H69 C43 0.929 . S
H70 C44 0.930 . S
H71 C45 0.931 . S
H72 C52 0.932 . S
H73 C53 0.930 1_455 S
H74 C54 0.929 . S
H75 C56 0.930 . S
H76 C58 0.932 . S
H77 C59 0.929 . S
H78 C60 0.928 1_455 S
H79 C62 0.932 . S
C80 C81 1.264 . S
C80 C85 1.479 . S
C80 C90 1.465 . S
C81 C80 1.264 . S
C81 C83 1.339 . S
C81 H108 0.931 . S
C82 C83 1.395 . S
C82 C84 1.320 . S
C83 C81 1.339 . S
C83 C82 1.395 . S
C83 H109 0.929 . S
C84 C82 1.320 . S
C84 C85 1.405 . S
C84 H110 0.930 . S
C85 C80 1.479 . S
C85 C84 1.405 . S
C85 H111 0.931 . S
U86 O87 2.454 . S
U86 O88 2.458 1_545 S
U86 C89 2.984 1_545 S
U86 C90 2.847 . S
U86 C103 2.882 . S
U86 O104 2.441 . S
U86 O105 2.420 . S
U86 O106 2.455 . S
U86 O107 2.449 . S
O87 U86 2.454 . S
O87 C89 1.353 1_545 S
O88 U86 2.458 1_565 S
O88 C89 1.286 . S
C89 U86 2.984 1_565 S
C89 O87 1.353 1_565 S
C89 O88 1.286 . S
C89 C91 1.363 . S
C90 C80 1.465 . S
C90 U86 2.847 . S
C90 O104 1.249 . S
C90 O105 1.202 . S
C91 C89 1.363 . S
C91 C93 1.408 . S
C91 C96 1.342 . S
C92 C93 1.310 . S
C92 C95 1.461 . S
C92 H112 0.932 . S
C93 C91 1.408 . S
C93 C92 1.310 . S
C93 H113 0.930 1_565 S
C94 C95 1.474 . S
C94 C96 1.285 . S
C94 H114 0.929 . S
C95 C92 1.461 . S
C95 C94 1.474 . S
C96 C91 1.342 . S
C96 C94 1.285 . S
C96 H115 0.930 . S
C97 C100 1.419 . S
C97 C102 1.258 . S
C97 C103 1.421 1_565 S
C98 C101 1.260 . S
C98 C102 1.477 . S
C98 H116 0.932 . S
C99 C100 1.384 . S
C99 C101 1.479 . S
C99 H117 0.929 . S
C100 C97 1.419 . S
C100 C99 1.384 . S
C100 H118 0.928 1_565 S
C101 C98 1.260 . S
C101 C99 1.479 . S
C102 C97 1.258 . S
C102 C98 1.477 . S
C102 H119 0.932 . S
C103 U86 2.882 . S
C103 C97 1.421 1_545 S
C103 O106 1.301 . S
C103 O107 1.282 . S
O104 U86 2.441 . S
O104 C90 1.249 . S
O105 U86 2.420 . S
O105 C90 1.202 . S
O106 U86 2.455 . S
O106 C103 1.301 . S
O107 U86 2.449 . S
O107 C103 1.282 . S
H108 C81 0.931 . S
H109 C83 0.929 . S
H110 C84 0.930 . S
H111 C85 0.931 . S
H112 C92 0.932 . S
H113 C93 0.930 1_545 S
H114 C94 0.929 . S
H115 C96 0.930 . S
H116 C98 0.932 . S
H117 C99 0.929 . S
H118 C100 0.928 1_545 S
H119 C102 0.932 . S
C120 C121 1.264 . S
C120 C125 1.479 . S
C120 C130 1.465 . S
C121 C120 1.264 . S
C121 C123 1.339 . S
C121 H148 0.931 . S
C122 C123 1.395 . S
C122 C124 1.320 . S
C123 C121 1.339 . S
C123 C122 1.395 . S
C123 H149 0.929 . S
C124 C122 1.320 . S
C124 C125 1.405 . S
C124 H150 0.930 . S
C125 C120 1.479 . S
C125 C124 1.405 . S
C125 H151 0.931 . S
U126 O127 2.454 . S
U126 O128 2.458 . S
U126 C129 2.984 . S
U126 C130 2.847 . S
U126 C143 2.882 . S
U126 O144 2.441 . S
U126 O145 2.420 . S
U126 O146 2.455 . S
U126 O147 2.449 . S
O127 U126 2.454 . S
O127 C129 1.353 . S
O128 U126 2.458 . S
O128 C129 1.286 . S
C129 U126 2.984 . S
C129 O127 1.353 . S
C129 O128 1.286 . S
C129 C131 1.363 . S
C130 C120 1.465 . S
C130 U126 2.847 . S
C130 O144 1.249 . S
C130 O145 1.202 . S
C131 C129 1.363 . S
C131 C133 1.408 . S
C131 C136 1.342 . S
C132 C133 1.310 . S
C132 C135 1.461 . S
C132 H152 0.932 . S
C133 C131 1.408 . S
C133 C132 1.310 . S
C133 H153 0.930 . S
C134 C135 1.474 . S
C134 C136 1.285 . S
C134 H154 0.929 . S
C135 C132 1.461 . S
C135 C134 1.474 . S
C136 C131 1.342 . S
C136 C134 1.285 . S
C136 H155 0.930 . S
C137 C140 1.424 . S
C137 C142 1.245 . S
C137 C143 1.428 . S
C138 C141 1.260 . S
C138 C142 1.477 . S
C138 H156 0.932 . S
C139 C140 1.384 . S
C139 C141 1.479 . S
C139 H157 0.929 . S
C140 C137 1.424 . S
C140 C139 1.384 . S
C140 H158 0.928 . S
C141 C138 1.260 . S
C141 C139 1.479 . S
C142 C137 1.245 . S
C142 C138 1.477 . S
C142 H159 0.932 . S
C143 U126 2.882 . S
C143 C137 1.428 . S
C143 O146 1.301 . S
C143 O147 1.282 . S
O144 U126 2.441 . S
O144 C130 1.249 . S
O145 U126 2.420 . S
O145 C130 1.202 . S
O146 U126 2.455 . S
O146 C143 1.301 . S
O147 U126 2.449 . S
O147 C143 1.282 . S
H148 C121 0.931 . S
H149 C123 0.929 . S
H150 C124 0.930 . S
H151 C125 0.931 . S
H152 C132 0.932 . S
H153 C133 0.930 . S
H154 C134 0.929 . S
H155 C136 0.930 . S
H156 C138 0.932 . S
H157 C139 0.929 . S
H158 C140 0.928 . S
H159 C142 0.932 . S
C160 C161 1.264 . S
C160 C165 1.479 . S
C160 C170 1.465 . S
C161 C160 1.264 . S
C161 C163 1.339 . S
C161 H188 0.931 . S
C162 C163 1.395 . S
C162 C164 1.320 . S
C163 C161 1.339 . S
C163 C162 1.395 . S
C163 H189 0.929 . S
C164 C162 1.320 . S
C164 C165 1.405 . S
C164 H190 0.930 . S
C165 C160 1.479 . S
C165 C164 1.405 . S
C165 H191 0.931 . S
U166 O167 2.454 . S
U166 O168 2.458 1_655 S
U166 C169 2.984 1_655 S
U166 C170 2.847 . S
U166 C183 2.882 . S
U166 O184 2.441 . S
U166 O185 2.420 . S
U166 O186 2.455 . S
U166 O187 2.449 . S
O167 U166 2.454 . S
O167 C169 1.353 1_655 S
O168 U166 2.458 1_455 S
O168 C169 1.286 . S
C169 U166 2.984 1_455 S
C169 O167 1.353 1_455 S
C169 O168 1.286 . S
C169 C171 1.363 . S
C170 C160 1.465 . S
C170 U166 2.847 . S
C170 O184 1.249 . S
C170 O185 1.202 . S
C171 C169 1.363 . S
C171 C173 1.408 . S
C171 C176 1.342 . S
C172 C173 1.310 . S
C172 C175 1.461 . S
C172 H192 0.932 . S
C173 C171 1.408 . S
C173 C172 1.310 . S
C173 H193 0.930 1_455 S
C174 C175 1.474 . S
C174 C176 1.285 . S
C174 H194 0.929 . S
C175 C172 1.461 . S
C175 C174 1.474 . S
C176 C171 1.342 . S
C176 C174 1.285 . S
C176 H195 0.930 . S
C177 C180 1.430 . S
C177 C182 1.243 . S
C177 C183 1.427 1_455 S
C178 C181 1.260 . S
C178 C182 1.477 . S
C178 H196 0.932 . S
C179 C180 1.384 . S
C179 C181 1.479 . S
C179 H197 0.929 . S
C180 C177 1.430 . S
C180 C179 1.384 . S
C180 H198 0.928 1_455 S
C181 C178 1.260 . S
C181 C179 1.479 . S
C182 C177 1.243 . S
C182 C178 1.477 . S
C182 H199 0.932 . S
C183 U166 2.882 . S
C183 C177 1.427 1_655 S
C183 O186 1.301 . S
C183 O187 1.282 . S
O184 U166 2.441 . S
O184 C170 1.249 . S
O185 U166 2.420 . S
O185 C170 1.202 . S
O186 U166 2.455 . S
O186 C183 1.301 . S
O187 U166 2.449 . S
O187 C183 1.282 . S
H188 C161 0.931 . S
H189 C163 0.929 . S
H190 C164 0.930 . S
H191 C165 0.931 . S
H192 C172 0.932 . S
H193 C173 0.930 1_655 S
H194 C174 0.929 . S
H195 C176 0.930 . S
H196 C178 0.932 . S
H197 C179 0.929 . S
H198 C180 0.928 1_655 S
H199 C182 0.932 . S
C200 C201 1.264 . S
C200 C205 1.479 . S
C200 C210 1.465 . S
C201 C200 1.264 . S
C201 C203 1.339 . S
C201 H228 0.931 . S
C202 C203 1.395 . S
C202 C204 1.320 . S
C203 C201 1.339 . S
C203 C202 1.395 . S
C203 H229 0.929 . S
C204 C202 1.320 . S
C204 C205 1.405 . S
C204 H230 0.930 . S
C205 C200 1.479 . S
C205 C204 1.405 . S
C205 H231 0.931 . S
U206 O207 2.454 . S
U206 O208 2.458 1_565 S
U206 C209 2.984 1_565 S
U206 C210 2.847 . S
U206 C223 2.882 . S
U206 O224 2.441 . S
U206 O225 2.420 . S
U206 O226 2.455 . S
U206 O227 2.449 . S
O207 U206 2.454 . S
O207 C209 1.353 1_565 S
O208 U206 2.458 1_545 S
O208 C209 1.286 . S
C209 U206 2.984 1_545 S
C209 O207 1.353 1_545 S
C209 O208 1.286 . S
C209 C211 1.363 . S
C210 C200 1.465 . S
C210 U206 2.847 . S
C210 O224 1.249 . S
C210 O225 1.202 . S
C211 C209 1.363 . S
C211 C213 1.408 . S
C211 C216 1.342 . S
C212 C213 1.310 . S
C212 C215 1.461 . S
C212 H232 0.932 . S
C213 C211 1.408 . S
C213 C212 1.310 . S
C213 H233 0.930 1_545 S
C214 C215 1.474 . S
C214 C216 1.285 . S
C214 H234 0.929 . S
C215 C212 1.461 . S
C215 C214 1.474 . S
C216 C211 1.342 . S
C216 C214 1.285 . S
C216 H235 0.930 . S
C217 C220 1.418 . S
C217 C222 1.259 . S
C217 C223 1.421 1_545 S
C218 C221 1.260 . S
C218 C222 1.477 . S
C218 H236 0.932 . S
C219 C220 1.384 . S
C219 C221 1.479 . S
C219 H237 0.929 . S
C220 C217 1.418 . S
C220 C219 1.384 . S
C220 H238 0.928 1_545 S
C221 C218 1.260 . S
C221 C219 1.479 . S
C222 C217 1.259 . S
C222 C218 1.477 . S
C222 H239 0.932 . S
C223 U206 2.882 . S
C223 C217 1.421 1_565 S
C223 O226 1.301 . S
C223 O227 1.282 . S
O224 U206 2.441 . S
O224 C210 1.249 . S
O225 U206 2.420 . S
O225 C210 1.202 . S
O226 U206 2.455 . S
O226 C223 1.301 . S
O227 U206 2.449 . S
O227 C223 1.282 . S
H228 C201 0.931 . S
H229 C203 0.929 . S
H230 C204 0.930 . S
H231 C205 0.931 . S
H232 C212 0.932 . S
H233 C213 0.930 1_565 S
H234 C214 0.929 . S
H235 C216 0.930 . S
H236 C218 0.932 . S
H237 C219 0.929 . S
H238 C220 0.928 1_565 S
H239 C222 0.932 . S
C240 C241 1.264 . S
C240 C245 1.479 . S
C240 C250 1.465 . S
C241 C240 1.264 . S
C241 C243 1.339 . S
C241 H268 0.931 . S
C242 C243 1.395 . S
C242 C244 1.320 . S
C243 C241 1.339 . S
C243 C242 1.395 . S
C243 H269 0.929 . S
C244 C242 1.320 . S
C244 C245 1.405 . S
C244 H270 0.930 . S
C245 C240 1.479 . S
C245 C244 1.405 . S
C245 H271 0.931 . S
U246 O247 2.454 . S
U246 O248 2.458 . S
U246 C249 2.984 . S
U246 C250 2.847 . S
U246 C263 2.882 . S
U246 O264 2.441 . S
U246 O265 2.420 . S
U246 O266 2.455 . S
U246 O267 2.449 . S
O247 U246 2.454 . S
O247 C249 1.353 . S
O248 U246 2.458 . S
O248 C249 1.286 . S
C249 U246 2.984 . S
C249 O247 1.353 . S
C249 O248 1.286 . S
C249 C251 1.363 . S
C250 C240 1.465 . S
C250 U246 2.847 . S
C250 O264 1.249 . S
C250 O265 1.202 . S
C251 C249 1.363 . S
C251 C253 1.408 . S
C251 C256 1.342 . S
C252 C253 1.310 . S
C252 C255 1.461 . S
C252 H272 0.932 . S
C253 C251 1.408 . S
C253 C252 1.310 . S
C253 H273 0.930 . S
C254 C255 1.474 . S
C254 C256 1.285 . S
C254 H274 0.929 . S
C255 C252 1.461 . S
C255 C254 1.474 . S
C256 C251 1.342 . S
C256 C254 1.285 . S
C256 H275 0.930 . S
C257 C260 1.424 . S
C257 C262 1.245 . S
C257 C263 1.428 . S
C258 C261 1.260 . S
C258 C262 1.477 . S
C258 H276 0.932 . S
C259 C260 1.384 . S
C259 C261 1.479 . S
C259 H277 0.929 . S
C260 C257 1.424 . S
C260 C259 1.384 . S
C260 H278 0.928 . S
C261 C258 1.260 . S
C261 C259 1.479 . S
C262 C257 1.245 . S
C262 C258 1.477 . S
C262 H279 0.932 . S
C263 U246 2.882 . S
C263 C257 1.428 . S
C263 O266 1.301 . S
C263 O267 1.282 . S
O264 U246 2.441 . S
O264 C250 1.249 . S
O265 U246 2.420 . S
O265 C250 1.202 . S
O266 U246 2.455 . S
O266 C263 1.301 . S
O267 U246 2.449 . S
O267 C263 1.282 . S
H268 C241 0.931 . S
H269 C243 0.929 . S
H270 C244 0.930 . S
H271 C245 0.931 . S
H272 C252 0.932 . S
H273 C253 0.930 . S
H274 C254 0.929 . S
H275 C256 0.930 . S
H276 C258 0.932 . S
H277 C259 0.929 . S
H278 C260 0.928 . S
H279 C262 0.932 . S
C280 C281 1.264 . S
C280 C285 1.479 . S
C280 C290 1.465 . S
C281 C280 1.264 . S
C281 C283 1.339 . S
C281 H308 0.931 . S
C282 C283 1.395 . S
C282 C284 1.320 . S
C283 C281 1.339 . S
C283 C282 1.395 . S
C283 H309 0.929 . S
C284 C282 1.320 . S
C284 C285 1.405 . S
C284 H310 0.930 . S
C285 C280 1.479 . S
C285 C284 1.405 . S
C285 H311 0.931 . S
U286 O287 2.454 . S
U286 O288 2.458 1_455 S
U286 C289 2.984 1_455 S
U286 C290 2.847 . S
U286 C303 2.882 . S
U286 O304 2.441 . S
U286 O305 2.420 . S
U286 O306 2.455 . S
U286 O307 2.449 . S
O287 U286 2.454 . S
O287 C289 1.353 1_455 S
O288 U286 2.458 1_655 S
O288 C289 1.286 . S
C289 U286 2.984 1_655 S
C289 O287 1.353 1_655 S
C289 O288 1.286 . S
C289 C291 1.363 . S
C290 C280 1.465 . S
C290 U286 2.847 . S
C290 O304 1.249 . S
C290 O305 1.202 . S
C291 C289 1.363 . S
C291 C293 1.408 . S
C291 C296 1.342 . S
C292 C293 1.310 . S
C292 C295 1.461 . S
C292 H312 0.932 . S
C293 C291 1.408 . S
C293 C292 1.310 . S
C293 H313 0.930 1_655 S
C294 C295 1.474 . S
C294 C296 1.285 . S
C294 H314 0.929 . S
C295 C292 1.461 . S
C295 C294 1.474 . S
C296 C291 1.342 . S
C296 C294 1.285 . S
C296 H315 0.930 . S
C297 C300 1.418 . S
C297 C302 1.259 . S
C297 C303 1.421 1_655 S
C298 C301 1.260 . S
C298 C302 1.477 . S
C298 H316 0.932 . S
C299 C300 1.384 . S
C299 C301 1.479 . S
C299 H317 0.929 . S
C300 C297 1.418 . S
C300 C299 1.384 . S
C300 H318 0.928 1_655 S
C301 C298 1.260 . S
C301 C299 1.479 . S
C302 C297 1.259 . S
C302 C298 1.477 . S
C302 H319 0.932 . S
C303 U286 2.882 . S
C303 C297 1.421 1_455 S
C303 O306 1.301 . S
C303 O307 1.282 . S
O304 U286 2.441 . S
O304 C290 1.249 . S
O305 U286 2.420 . S
O305 C290 1.202 . S
O306 U286 2.455 . S
O306 C303 1.301 . S
O307 U286 2.449 . S
O307 C303 1.282 . S
H308 C281 0.931 . S
H309 C283 0.929 . S
H310 C284 0.930 . S
H311 C285 0.931 . S
H312 C292 0.932 . S
H313 C293 0.930 1_455 S
H314 C294 0.929 . S
H315 C296 0.930 . S
H316 C298 0.932 . S
H317 C299 0.929 . S
H318 C300 0.928 1_455 S
H319 C302 0.932 . S
C320 C321 1.264 . S
C320 C325 1.479 . S
C320 C330 1.465 . S
C321 C320 1.264 . S
C321 C323 1.339 . S
C321 H348 0.931 . S
C322 C323 1.395 . S
C322 C324 1.320 . S
C323 C321 1.339 . S
C323 C322 1.395 . S
C323 H349 0.929 . S
C324 C322 1.320 . S
C324 C325 1.405 . S
C324 H350 0.930 . S
C325 C320 1.479 . S
C325 C324 1.405 . S
C325 H351 0.931 . S
U326 O327 2.454 . S
U326 O328 2.458 1_545 S
U326 C329 2.984 1_545 S
U326 C330 2.847 . S
U326 C343 2.882 . S
U326 O344 2.441 . S
U326 O345 2.420 . S
U326 O346 2.455 . S
U326 O347 2.449 . S
O327 U326 2.454 . S
O327 C329 1.353 1_545 S
O328 U326 2.458 1_565 S
O328 C329 1.286 . S
C329 U326 2.984 1_565 S
C329 O327 1.353 1_565 S
C329 O328 1.286 . S
C329 C331 1.363 . S
C330 C320 1.465 . S
C330 U326 2.847 . S
C330 O344 1.249 . S
C330 O345 1.202 . S
C331 C329 1.363 . S
C331 C333 1.408 . S
C331 C336 1.342 . S
C332 C333 1.310 . S
C332 C335 1.461 . S
C332 H352 0.932 . S
C333 C331 1.408 . S
C333 C332 1.310 . S
C333 H353 0.930 1_565 S
C334 C335 1.474 . S
C334 C336 1.285 . S
C334 H354 0.929 . S
C335 C332 1.461 . S
C335 C334 1.474 . S
C336 C331 1.342 . S
C336 C334 1.285 . S
C336 H355 0.930 . S
C337 C340 1.430 . S
C337 C342 1.243 . S
C337 C343 1.427 1_565 S
C338 C341 1.260 . S
C338 C342 1.477 . S
C338 H356 0.932 . S
C339 C340 1.384 . S
C339 C341 1.479 . S
C339 H357 0.929 . S
C340 C337 1.430 . S
C340 C339 1.384 . S
C340 H358 0.928 1_565 S
C341 C338 1.260 . S
C341 C339 1.479 . S
C342 C337 1.243 . S
C342 C338 1.477 . S
C342 H359 0.932 . S
C343 U326 2.882 . S
C343 C337 1.427 1_545 S
C343 O346 1.301 . S
C343 O347 1.282 . S
O344 U326 2.441 . S
O344 C330 1.249 . S
O345 U326 2.420 . S
O345 C330 1.202 . S
O346 U326 2.455 . S
O346 C343 1.301 . S
O347 U326 2.449 . S
O347 C343 1.282 . S
H348 C321 0.931 . S
H349 C323 0.929 . S
H350 C324 0.930 . S
H351 C325 0.931 . S
H352 C332 0.932 . S
H353 C333 0.930 1_545 S
H354 C334 0.929 . S
H355 C336 0.930 . S
H356 C338 0.932 . S
H357 C339 0.929 . S
H358 C340 0.928 1_545 S
H359 C342 0.932 . S
C360 C361 1.264 . S
C360 C365 1.479 . S
C360 C370 1.465 . S
C361 C360 1.264 . S
C361 C363 1.339 . S
C361 H388 0.931 . S
C362 C363 1.395 . S
C362 C364 1.320 . S
C363 C361 1.339 . S
C363 C362 1.395 . S
C363 H389 0.929 . S
C364 C362 1.320 . S
C364 C365 1.405 . S
C364 H390 0.930 . S
C365 C360 1.479 . S
C365 C364 1.405 . S
C365 H391 0.931 . S
U366 O367 2.454 . S
U366 O368 2.458 . S
U366 C369 2.984 . S
U366 C370 2.847 . S
U366 C383 2.882 . S
U366 O384 2.441 . S
U366 O385 2.420 . S
U366 O386 2.455 . S
U366 O387 2.449 . S
O367 U366 2.454 . S
O367 C369 1.353 . S
O368 U366 2.458 . S
O368 C369 1.286 . S
C369 U366 2.984 . S
C369 O367 1.353 . S
C369 O368 1.286 . S
C369 C371 1.363 . S
C370 C360 1.465 . S
C370 U366 2.847 . S
C370 O384 1.249 . S
C370 O385 1.202 . S
C371 C369 1.363 . S
C371 C373 1.408 . S
C371 C376 1.342 . S
C372 C373 1.310 . S
C372 C375 1.461 . S
C372 H392 0.932 . S
C373 C371 1.408 . S
C373 C372 1.310 . S
C373 H393 0.930 . S
C374 C375 1.474 . S
C374 C376 1.285 . S
C374 H394 0.929 . S
C375 C372 1.461 . S
C375 C374 1.474 . S
C376 C371 1.342 . S
C376 C374 1.285 . S
C376 H395 0.930 . S
C377 C380 1.424 . S
C377 C382 1.245 . S
C377 C383 1.428 . S
C378 C381 1.260 . S
C378 C382 1.477 . S
C378 H396 0.932 . S
C379 C380 1.384 . S
C379 C381 1.479 . S
C379 H397 0.929 . S
C380 C377 1.424 . S
C380 C379 1.384 . S
C380 H398 0.928 . S
C381 C378 1.260 . S
C381 C379 1.479 . S
C382 C377 1.245 . S
C382 C378 1.477 . S
C382 H399 0.932 . S
C383 U366 2.882 . S
C383 C377 1.428 . S
C383 O386 1.301 . S
C383 O387 1.282 . S
O384 U366 2.441 . S
O384 C370 1.249 . S
O385 U366 2.420 . S
O385 C370 1.202 . S
O386 U366 2.455 . S
O386 C383 1.301 . S
O387 U366 2.449 . S
O387 C383 1.282 . S
H388 C361 0.931 . S
H389 C363 0.929 . S
H390 C364 0.930 . S
H391 C365 0.931 . S
H392 C372 0.932 . S
H393 C373 0.930 . S
H394 C374 0.929 . S
H395 C376 0.930 . S
H396 C378 0.932 . S
H397 C379 0.929 . S
H398 C380 0.928 . S
H399 C382 0.932 . S
C400 C401 1.264 . S
C400 C405 1.479 . S
C400 C410 1.465 . S
C401 C400 1.264 . S
C401 C403 1.339 . S
C401 H428 0.931 . S
C402 C403 1.395 . S
C402 C404 1.320 . S
C403 C401 1.339 . S
C403 C402 1.395 . S
C403 H429 0.929 . S
C404 C402 1.320 . S
C404 C405 1.405 . S
C404 H430 0.930 . S
C405 C400 1.479 . S
C405 C404 1.405 . S
C405 H431 0.931 . S
U406 O407 2.454 . S
U406 O408 2.458 1_655 S
U406 C409 2.984 1_655 S
U406 C410 2.847 . S
U406 C423 2.882 . S
U406 O424 2.441 . S
U406 O425 2.420 . S
U406 O426 2.455 . S
U406 O427 2.449 . S
O407 U406 2.454 . S
O407 C409 1.353 1_655 S
O408 U406 2.458 1_455 S
O408 C409 1.286 . S
C409 U406 2.984 1_455 S
C409 O407 1.353 1_455 S
C409 O408 1.286 . S
C409 C411 1.363 . S
C410 C400 1.465 . S
C410 U406 2.847 . S
C410 O424 1.249 . S
C410 O425 1.202 . S
C411 C409 1.363 . S
C411 C413 1.408 . S
C411 C416 1.342 . S
C412 C413 1.310 . S
C412 C415 1.461 . S
C412 H432 0.932 . S
C413 C411 1.408 . S
C413 C412 1.310 . S
C413 H433 0.930 1_455 S
C414 C415 1.474 . S
C414 C416 1.285 . S
C414 H434 0.929 . S
C415 C412 1.461 . S
C415 C414 1.474 . S
C416 C411 1.342 . S
C416 C414 1.285 . S
C416 H435 0.930 . S
C417 C420 1.419 . S
C417 C422 1.258 . S
C417 C423 1.421 1_455 S
C418 C421 1.260 . S
C418 C422 1.477 . S
C418 H436 0.932 . S
C419 C420 1.384 . S
C419 C421 1.479 . S
C419 H437 0.929 . S
C420 C417 1.419 . S
C420 C419 1.384 . S
C420 H438 0.928 1_455 S
C421 C418 1.260 . S
C421 C419 1.479 . S
C422 C417 1.258 . S
C422 C418 1.477 . S
C422 H439 0.932 . S
C423 U406 2.882 . S
C423 C417 1.421 1_655 S
C423 O426 1.301 . S
C423 O427 1.282 . S
O424 U406 2.441 . S
O424 C410 1.249 . S
O425 U406 2.420 . S
O425 C410 1.202 . S
O426 U406 2.455 . S
O426 C423 1.301 . S
O427 U406 2.449 . S
O427 C423 1.282 . S
H428 C401 0.931 . S
H429 C403 0.929 . S
H430 C404 0.930 . S
H431 C405 0.931 . S
H432 C412 0.932 . S
H433 C413 0.930 1_655 S
H434 C414 0.929 . S
H435 C416 0.930 . S
H436 C418 0.932 . S
H437 C419 0.929 . S
H438 C420 0.928 1_655 S
H439 C422 0.932 . S
C440 C441 1.264 . S
C440 C445 1.479 . S
C440 C450 1.465 . S
C441 C440 1.264 . S
C441 C443 1.339 . S
C441 H468 0.931 . S
C442 C443 1.395 . S
C442 C444 1.320 . S
C443 C441 1.339 . S
C443 C442 1.395 . S
C443 H469 0.929 . S
C444 C442 1.320 . S
C444 C445 1.405 . S
C444 H470 0.930 . S
C445 C440 1.479 . S
C445 C444 1.405 . S
C445 H471 0.931 . S
U446 O447 2.454 . S
U446 O448 2.458 1_565 S
U446 C449 2.984 1_565 S
U446 C450 2.847 . S
U446 C463 2.882 . S
U446 O464 2.441 . S
U446 O465 2.420 . S
U446 O466 2.455 . S
U446 O467 2.449 . S
O447 U446 2.454 . S
O447 C449 1.353 1_565 S
O448 U446 2.458 1_545 S
O448 C449 1.286 . S
C449 U446 2.984 1_545 S
C449 O447 1.353 1_545 S
C449 O448 1.286 . S
C449 C451 1.363 . S
C450 C440 1.465 . S
C450 U446 2.847 . S
C450 O464 1.249 . S
C450 O465 1.202 . S
C451 C449 1.363 . S
C451 C453 1.408 . S
C451 C456 1.342 . S
C452 C453 1.310 . S
C452 C455 1.461 . S
C452 H472 0.932 . S
C453 C451 1.408 . S
C453 C452 1.310 . S
C453 H473 0.930 1_545 S
C454 C455 1.474 . S
C454 C456 1.285 . S
C454 H474 0.929 . S
C455 C452 1.461 . S
C455 C454 1.474 . S
C456 C451 1.342 . S
C456 C454 1.285 . S
C456 H475 0.930 . S
C457 C460 1.431 . S
C457 C462 1.243 . S
C457 C463 1.427 1_545 S
C458 C461 1.260 . S
C458 C462 1.477 . S
C458 H476 0.932 . S
C459 C460 1.384 . S
C459 C461 1.479 . S
C459 H477 0.929 . S
C460 C457 1.431 . S
C460 C459 1.384 . S
C460 H478 0.928 1_545 S
C461 C458 1.260 . S
C461 C459 1.479 . S
C462 C457 1.243 . S
C462 C458 1.477 . S
C462 H479 0.932 . S
C463 U446 2.882 . S
C463 C457 1.427 1_565 S
C463 O466 1.301 . S
C463 O467 1.282 . S
O464 U446 2.441 . S
O464 C450 1.249 . S
O465 U446 2.420 . S
O465 C450 1.202 . S
O466 U446 2.455 . S
O466 C463 1.301 . S
O467 U446 2.449 . S
O467 C463 1.282 . S
H468 C441 0.931 . S
H469 C443 0.929 . S
H470 C444 0.930 . S
H471 C445 0.931 . S
H472 C452 0.932 . S
H473 C453 0.930 1_565 S
H474 C454 0.929 . S
H475 C456 0.930 . S
H476 C458 0.932 . S
H477 C459 0.929 . S
H478 C460 0.928 1_565 S
H479 C462 0.932 . S
C480 C481 1.387 . S
C480 H484 0.950 . S
C480 C489 1.390 1_556 S
C481 C480 1.387 . S
C481 C483 1.387 . S
H482 C489 0.950 . S
C483 C481 1.387 . S
C483 C485 1.390 1_556 S
C483 H487 0.950 . S
H484 C480 0.950 . S
C485 C483 1.390 1_554 S
C485 C486 1.387 . S
C485 H488 0.950 . S
C486 C485 1.387 . S
C486 C489 1.387 . S
H487 C483 0.950 . S
H488 C485 0.950 . S
C489 C480 1.390 1_554 S
C489 H482 0.950 . S
C489 C486 1.387 . S
C490 C491 1.387 . S
C490 H494 0.950 . S
C490 C499 1.390 . S
C491 C490 1.387 . S
C491 C493 1.387 . S
H492 C499 0.950 . S
C493 C491 1.387 . S
C493 C495 1.390 . S
C493 H497 0.950 . S
H494 C490 0.950 . S
C495 C493 1.390 . S
C495 C496 1.387 . S
C495 H498 0.950 . S
C496 C495 1.387 . S
C496 C499 1.387 . S
H497 C493 0.950 . S
H498 C495 0.950 . S
C499 C490 1.390 . S
C499 H492 0.950 . S
C499 C496 1.387 . S
C500 C501 1.387 . S
C500 H504 0.950 . S
C500 C509 1.390 . S
C501 C500 1.387 . S
C501 C503 1.387 . S
H502 C509 0.950 . S
C503 C501 1.387 . S
C503 C505 1.390 . S
C503 H507 0.950 . S
H504 C500 0.950 . S
C505 C503 1.390 . S
C505 C506 1.387 . S
C505 H508 0.950 . S
C506 C505 1.387 . S
C506 C509 1.387 . S
H507 C503 0.950 . S
H508 C505 0.950 . S
C509 C500 1.390 . S
C509 H502 0.950 . S
C509 C506 1.387 . S
C510 C511 1.387 . S
C510 H514 0.950 . S
C510 C519 1.390 1_554 S
C511 C510 1.387 . S
C511 C513 1.387 . S
H512 C519 0.950 . S
C513 C511 1.387 . S
C513 C515 1.390 1_554 S
C513 H517 0.950 . S
H514 C510 0.950 . S
C515 C513 1.390 1_556 S
C515 C516 1.387 . S
C515 H518 0.950 . S
C516 C515 1.387 . S
C516 C519 1.387 . S
H517 C513 0.950 . S
H518 C515 0.950 . S
C519 C510 1.390 1_556 S
C519 H512 0.950 . S
C519 C516 1.387 . S
C520 C521 1.387 . S
C520 H524 0.950 . S
C520 C529 1.390 . S
C521 C520 1.387 . S
C521 C523 1.387 . S
H522 C529 0.950 . S
C523 C521 1.387 . S
C523 C525 1.390 . S
C523 H527 0.950 . S
H524 C520 0.950 . S
C525 C523 1.390 . S
C525 C526 1.387 . S
C525 H528 0.950 . S
C526 C525 1.387 . S
C526 C529 1.387 . S
H527 C523 0.950 . S
H528 C525 0.950 . S
C529 C520 1.390 . S
C529 H522 0.950 . S
C529 C526 1.387 . S
C530 C531 1.387 . S
C530 H534 0.950 . S
C530 C539 1.390 . S
C531 C530 1.387 . S
C531 C533 1.387 . S
H532 C539 0.950 . S
C533 C531 1.387 . S
C533 C535 1.390 . S
C533 H537 0.950 . S
H534 C530 0.950 . S
C535 C533 1.390 . S
C535 C536 1.387 . S
C535 H538 0.950 . S
C536 C535 1.387 . S
C536 C539 1.387 . S
H537 C533 0.950 . S
H538 C535 0.950 . S
C539 C530 1.390 . S
C539 H532 0.950 . S
C539 C536 1.387 . S
C540 C541 1.387 . S
C540 H544 0.950 . S
C540 C549 1.390 . S
C541 C540 1.387 . S
C541 C543 1.387 . S
H542 C549 0.950 . S
C543 C541 1.387 . S
C543 C545 1.390 . S
C543 H547 0.950 . S
H544 C540 0.950 . S
C545 C543 1.390 . S
C545 C546 1.387 . S
C545 H548 0.950 . S
C546 C545 1.387 . S
C546 C549 1.387 . S
H547 C543 0.950 . S
H548 C545 0.950 . S
C549 C540 1.390 . S
C549 H542 0.950 . S
C549 C546 1.387 . S
C550 C551 1.387 . S
C550 H554 0.950 . S
C550 C559 1.390 1_455 S
C551 C550 1.387 . S
C551 C553 1.387 . S
H552 C559 0.950 . S
C553 C551 1.387 . S
C553 C555 1.390 1_455 S
C553 H557 0.950 . S
H554 C550 0.950 . S
C555 C553 1.390 1_655 S
C555 C556 1.387 . S
C555 H558 0.950 . S
C556 C555 1.387 . S
C556 C559 1.387 . S
H557 C553 0.950 . S
H558 C555 0.950 . S
C559 C550 1.390 1_655 S
C559 H552 0.950 . S
C559 C556 1.387 . S
C560 C561 1.387 . S
C560 H564 0.950 . S
C560 C569 1.390 1_565 S
C561 C560 1.387 . S
C561 C563 1.387 . S
H562 C569 0.950 . S
C563 C561 1.387 . S
C563 C565 1.390 1_565 S
C563 H567 0.950 . S
H564 C560 0.950 . S
C565 C563 1.390 1_545 S
C565 C566 1.387 . S
C565 H568 0.950 . S
C566 C565 1.387 . S
C566 C569 1.387 . S
H567 C563 0.950 . S
H568 C565 0.950 . S
C569 C560 1.390 1_545 S
C569 H562 0.950 . S
C569 C566 1.387 . S
C570 C571 1.387 . S
C570 H574 0.950 . S
C570 C579 1.390 . S
C571 C570 1.387 . S
C571 C573 1.387 . S
H572 C579 0.950 . S
C573 C571 1.387 . S
C573 C575 1.390 . S
C573 H577 0.950 . S
H574 C570 0.950 . S
C575 C573 1.390 . S
C575 C576 1.387 . S
C575 H578 0.950 . S
C576 C575 1.387 . S
C576 C579 1.387 . S
H577 C573 0.950 . S
H578 C575 0.950 . S
C579 C570 1.390 . S
C579 H572 0.950 . S
C579 C576 1.387 . S
C580 C581 1.387 . S
C580 H584 0.950 . S
C580 C589 1.390 1_655 S
C581 C580 1.387 . S
C581 C583 1.387 . S
H582 C589 0.950 . S
C583 C581 1.387 . S
C583 C585 1.390 1_655 S
C583 H587 0.950 . S
H584 C580 0.950 . S
C585 C583 1.390 1_455 S
C585 C586 1.387 . S
C585 H588 0.950 . S
C586 C585 1.387 . S
C586 C589 1.387 . S
H587 C583 0.950 . S
H588 C585 0.950 . S
C589 C580 1.390 1_455 S
C589 H582 0.950 . S
C589 C586 1.387 . S
C590 C591 1.387 . S
C590 H594 0.950 . S
C590 C599 1.390 1_545 S
C591 C590 1.387 . S
C591 C593 1.387 . S
H592 C599 0.950 . S
C593 C591 1.387 . S
C593 C595 1.390 1_545 S
C593 H597 0.950 . S
H594 C590 0.950 . S
C595 C593 1.390 1_565 S
C595 C596 1.387 . S
C595 H598 0.950 . S
C596 C595 1.387 . S
C596 C599 1.387 . S
H597 C593 0.950 . S
H598 C595 0.950 . S
C599 C590 1.390 1_565 S
C599 H592 0.950 . S
C599 C596 1.387 . S
C600 C601 1.387 . S
C600 H604 0.950 . S
C600 C609 1.394 . S
C601 C600 1.387 . S
C601 C603 1.388 1_655 S
H602 C609 0.951 . S
C603 C601 1.388 1_455 S
C603 C605 1.390 . S
C603 H607 0.951 . S
H604 C600 0.950 . S
C605 C603 1.390 . S
C605 C606 1.387 . S
C605 H608 0.950 . S
C606 C605 1.387 . S
C606 C609 1.385 1_455 S
H607 C603 0.951 . S
H608 C605 0.950 . S
C609 C600 1.394 . S
C609 H602 0.951 . S
C609 C606 1.385 1_655 S
C610 C611 1.387 . S
C610 H614 0.950 . S
C610 C619 1.390 1_565 S
C611 C610 1.387 . S
C611 C613 1.387 . S
H612 C619 0.950 . S
C613 C611 1.387 . S
C613 C615 1.390 1_565 S
C613 H617 0.950 . S
H614 C610 0.950 . S
C615 C613 1.390 1_545 S
C615 C616 1.387 . S
C615 H618 0.950 1_655 S
C616 C615 1.387 . S
C616 C619 1.387 . S
H617 C613 0.950 . S
H618 C615 0.950 1_455 S
C619 C610 1.390 1_545 S
C619 H612 0.950 . S
C619 C616 1.387 . S
C620 C621 1.387 . S
C620 H624 0.940 1_565 S
C620 C629 1.390 . S
C621 C620 1.387 . S
C621 C623 1.387 . S
H622 C629 0.950 . S
C623 C621 1.387 . S
C623 C625 1.390 . S
C623 H627 0.950 . S
H624 C620 0.940 1_545 S
C625 C623 1.390 . S
C625 C626 1.387 . S
C625 H628 0.950 . S
C626 C625 1.387 . S
C626 C629 1.387 . S
H627 C623 0.950 . S
H628 C625 0.950 . S
C629 C620 1.390 . S
C629 H622 0.950 . S
C629 C626 1.387 . S
C630 C631 1.387 . S
C630 H634 0.950 . S
C630 C639 1.390 1_655 S
C631 C630 1.387 . S
C631 C633 1.387 . S
H632 C639 0.936 1_545 S
C633 C631 1.387 . S
C633 C635 1.390 1_655 S
C633 H637 0.950 . S
H634 C630 0.950 . S
C635 C633 1.390 1_455 S
C635 C636 1.387 . S
C635 H638 0.950 . S
C636 C635 1.387 . S
C636 C639 1.387 . S
H637 C633 0.950 . S
H638 C635 0.950 . S
C639 C630 1.390 1_455 S
C639 H632 0.936 1_565 S
C639 C636 1.387 . S
C640 C641 1.387 . S
C640 H644 0.950 1_455 S
C640 C649 1.390 1_565 S
C641 C640 1.387 . S
C641 C643 1.387 . S
H642 C649 0.950 . S
C643 C641 1.387 . S
C643 C645 1.390 1_565 S
C643 H647 0.950 . S
H644 C640 0.950 1_655 S
C645 C643 1.390 1_545 S
C645 C646 1.387 . S
C645 H648 0.950 . S
C646 C645 1.387 . S
C646 C649 1.387 . S
H647 C643 0.950 . S
H648 C645 0.950 . S
C649 C640 1.390 1_545 S
C649 H642 0.950 . S
C649 C646 1.387 . S
C650 C651 1.387 . S
C650 H654 0.950 . S
C650 C659 1.390 . S
C651 C650 1.387 . S
C651 C653 1.387 . S
H652 C659 0.950 . S
C653 C651 1.387 . S
C653 C655 1.390 . S
C653 H657 0.950 . S
H654 C650 0.950 . S
C655 C653 1.390 . S
C655 C656 1.387 . S
C655 H658 0.950 . S
C656 C655 1.387 . S
C656 C659 1.387 . S
H657 C653 0.950 . S
H658 C655 0.950 . S
C659 C650 1.390 . S
C659 H652 0.950 . S
C659 C656 1.387 . S
C481 C421 1.868 . S
C486 C21 1.868 . S
C491 C461 1.868 . S
C496 C61 1.868 . S
C501 C101 1.868 . S
C506 C261 1.868 . S
C511 C141 1.867 . S
C516 C301 1.867 . S
C521 C341 1.868 . S
C526 C181 1.868 . S
C531 C381 1.868 . S
C536 C221 1.868 . S
C541 C122 2.292 . S
C546 C2 2.292 . S
C551 C42 2.290 . S
C556 C162 2.290 . S
C561 C202 2.292 . S
C566 C82 2.292 . S
C571 C362 2.292 . S
C576 C242 2.292 . S
C581 C402 2.292 . S
C586 C282 2.292 . S
C591 C322 2.292 . S
C596 C442 2.292 . S
C601 C455 1.797 . S
C606 C15 1.796 . S
C611 C255 1.798 . S
C616 C55 1.798 . S
C621 C95 1.797 . S
C626 C295 1.797 . S
C631 C135 1.796 . S
C636 C335 1.797 . S
C641 C175 1.796 . S
C646 C375 1.796 . S
C651 C215 1.797 . S
C656 C415 1.798 . S
