# Generated by pormake.
# Topology smk, (6)-cn, num edge types: 1
# Building blocks:
#     Node 0, Type 0, BuildingBlock: MIDCAF_clean_sbu_0, # of connection points: 6
#     Node 1, Type 0, BuildingBlock: MIDCAF_clean_sbu_0, # of connection points: 6
#     Node 2, Type 0, BuildingBlock: MIDCAF_clean_sbu_0, # of connection points: 6
#     Node 3, Type 0, BuildingBlock: MIDCAF_clean_sbu_0, # of connection points: 6
#     Node 4, Type 0, BuildingBlock: MIDCAF_clean_sbu_0, # of connection points: 6
#     Node 5, Type 0, BuildingBlock: MIDCAF_clean_sbu_0, # of connection points: 6
#     Edge 6, Type (0, 0), BuildingBlock: OJICUG_clean_linker_0, # of connection points: 2
#     Edge 7, Type (0, 0), BuildingBlock: OJICUG_clean_linker_0, # of connection points: 2
#     Edge 8, Type (0, 0), BuildingBlock: OJICUG_clean_linker_0, # of connection points: 2
#     Edge 9, Type (0, 0), BuildingBlock: OJICUG_clean_linker_0, # of connection points: 2
#     Edge 10, Type (0, 0), BuildingBlock: OJICUG_clean_linker_0, # of connection points: 2
#     Edge 11, Type (0, 0), BuildingBlock: OJICUG_clean_linker_0, # of connection points: 2
#     Edge 12, Type (0, 0), BuildingBlock: OJICUG_clean_linker_0, # of connection points: 2
#     Edge 13, Type (0, 0), BuildingBlock: OJICUG_clean_linker_0, # of connection points: 2
#     Edge 14, Type (0, 0), BuildingBlock: OJICUG_clean_linker_0, # of connection points: 2
#     Edge 15, Type (0, 0), BuildingBlock: OJICUG_clean_linker_0, # of connection points: 2
#     Edge 16, Type (0, 0), BuildingBlock: OJICUG_clean_linker_0, # of connection points: 2
#     Edge 17, Type (0, 0), BuildingBlock: OJICUG_clean_linker_0, # of connection points: 2
#     Edge 18, Type (0, 0), BuildingBlock: OJICUG_clean_linker_0, # of connection points: 2
#     Edge 19, Type (0, 0), BuildingBlock: OJICUG_clean_linker_0, # of connection points: 2
#     Edge 20, Type (0, 0), BuildingBlock: OJICUG_clean_linker_0, # of connection points: 2
#     Edge 21, Type (0, 0), BuildingBlock: OJICUG_clean_linker_0, # of connection points: 2
#     Edge 22, Type (0, 0), BuildingBlock: OJICUG_clean_linker_0, # of connection points: 2
#     Edge 23, Type (0, 0), BuildingBlock: OJICUG_clean_linker_0, # of connection points: 2
# Relax obj value: 0.124
# Max RMSD: 0.126
# Mean RMSD: 0.126
data_MOF--net-smk--node1-MIDCAF_clean_sbu_0--edge1-OJICUG_clean_linker_0
_symmetry_space_group_name_H-M    P1
_symmetry_Int_Tables_number       1
_symmetry_cell_setting            triclinic
loop_
_symmetry_equiv_pos_as_xyz
'x, y, z'
_cell_length_a     30.850046
_cell_length_b     30.865684
_cell_length_c     10.82581
_cell_angle_alpha  90.046707
_cell_angle_beta   89.88539
_cell_angle_gamma 120.012
loop_
_atom_site_label
_atom_site_type_symbol
_atom_site_fract_x
_atom_site_fract_y
_atom_site_fract_z
_atom_type_partial_charge
Zn0 Zn 0.43945 0.26618 0.41559 0.0
Zn1 Zn 0.42196 0.12232 0.8077 0.0
Zn2 Zn 0.42238 0.20558 0.54058 0.0
C3 C 0.36395 0.16827 0.7595 0.0
C4 C 0.51705 0.2138 0.71979 0.0
O5 O 0.39121 0.1727 0.35399 0.0
O6 O 0.37778 0.23476 0.3182 0.0
C7 C 0.40251 0.2935 0.58698 0.0
O8 O 0.37421 0.20551 0.68997 0.0
O9 O 0.37574 0.13778 0.71687 0.0
O10 O 0.49319 0.17987 0.80048 0.0
O11 O 0.49548 0.22215 0.62712 0.0
O12 O 0.4433 0.31765 0.52907 0.0
O13 O 0.38361 0.24597 0.60172 0.0
O14 O 0.5046 0.25871 0.52565 0.0
O15 O 0.50221 0.27906 0.33302 0.0
C16 C 0.52782 0.28184 0.42643 0.0
O17 O 0.38628 0.13324 0.44649 0.0
O18 O 0.39494 0.10607 0.6267 0.0
C19 C 0.37261 0.19342 0.28466 0.0
C20 C 0.37869 0.09665 0.51639 0.0
Zn21 Zn 0.15645 0.422 0.63179 0.0
Zn22 Zn 0.27281 0.42535 0.88083 0.0
Zn23 Zn 0.21036 0.41463 0.75616 0.0
C24 C 0.19725 0.35332 0.99862 0.0
C25 C 0.29186 0.51483 0.90097 0.0
O26 O 0.20502 0.37502 0.57827 0.0
O27 O 0.1287 0.35889 0.53917 0.0
C28 C 0.1029 0.38585 0.82924 0.0
O29 O 0.17717 0.37338 0.93239 0.0
O30 O 0.24 0.361 0.96884 0.0
O31 O 0.29451 0.48674 0.98139 0.0
O32 O 0.26463 0.49493 0.80403 0.0
O33 O 0.11274 0.42317 0.76278 0.0
O34 O 0.13599 0.37251 0.84113 0.0
O35 O 0.23328 0.49425 0.71203 0.0
O36 O 0.19486 0.48437 0.53449 0.0
C37 C 0.22535 0.51321 0.61423 0.0
O38 O 0.24702 0.37886 0.66256 0.0
O39 O 0.31907 0.43114 0.748 0.0
C40 C 0.16527 0.35345 0.51074 0.0
C41 C 0.29434 0.39613 0.67286 0.0
Zn42 Zn 0.72043 0.15975 0.81059 0.0
Zn43 Zn 0.8361 0.27401 0.05407 0.0
Zn44 Zn 0.78205 0.21416 0.92957 0.0
C45 C 0.8243 0.19599 0.1772 0.0
C46 C 0.76736 0.29794 0.07014 0.0
O47 O 0.81496 0.20554 0.75383 0.0
O48 O 0.75471 0.12804 0.72865 0.0
C49 C 0.69762 0.10886 0.01007 0.0
O50 O 0.78504 0.17887 0.10815 0.0
O51 O 0.86174 0.23755 0.14988 0.0
O52 O 0.79768 0.29847 0.14867 0.0
O53 O 0.75894 0.27148 0.97118 0.0
O54 O 0.67135 0.11907 0.9401 0.0
O55 O 0.74473 0.14028 0.01907 0.0
O56 O 0.72916 0.2413 0.87586 0.0
O57 O 0.70286 0.20021 0.70122 0.0
C58 C 0.70432 0.23272 0.77416 0.0
O59 O 0.85726 0.24515 0.84884 0.0
O60 O 0.88291 0.31933 0.92873 0.0
C61 C 0.79566 0.16422 0.69211 0.0
C62 C 0.89202 0.29074 0.86443 0.0
Zn63 Zn 0.56365 0.73444 0.90516 0.0
Zn64 Zn 0.55584 0.90186 0.30095 0.0
Zn65 Zn 0.56874 0.78996 0.04061 0.0
C66 C 0.60634 0.83076 0.28462 0.0
C67 C 0.48675 0.79702 0.16728 0.0
O68 O 0.60475 0.83267 0.8694 0.0
O69 O 0.62176 0.77598 0.80083 0.0
C70 C 0.60954 0.71746 0.08813 0.0
O71 O 0.60988 0.79953 0.21281 0.0
O72 O 0.58008 0.84952 0.24566 0.0
O73 O 0.52836 0.83513 0.19779 0.0
O74 O 0.48997 0.76537 0.09726 0.0
O75 O 0.57617 0.6911 0.01075 0.0
O76 O 0.61534 0.76032 0.11968 0.0
O77 O 0.48846 0.73094 0.01161 0.0
O78 O 0.49644 0.70415 0.82933 0.0
C79 C 0.46848 0.70307 0.91576 0.0
O80 O 0.60381 0.86675 0.96334 0.0
O81 O 0.57331 0.87555 0.13649 0.0
C82 C 0.62631 0.81861 0.78955 0.0
C83 C 0.59871 0.8958 0.03899 0.0
Zn84 Zn 0.83846 0.56698 0.16501 0.0
Zn85 Zn 0.72282 0.56935 0.41196 0.0
Zn86 Zn 0.78771 0.57708 0.28989 0.0
C87 C 0.80548 0.63293 0.54386 0.0
C88 C 0.697 0.4748 0.41352 0.0
O89 O 0.79801 0.61921 0.11414 0.0
O90 O 0.87493 0.63428 0.09062 0.0
C91 C 0.89063 0.59222 0.36129 0.0
O92 O 0.82489 0.61563 0.46633 0.0
O93 O 0.76113 0.62313 0.52777 0.0
O94 O 0.68762 0.5015 0.48415 0.0
O95 O 0.73068 0.49604 0.32855 0.0
O96 O 0.87419 0.55317 0.29664 0.0
O97 O 0.86321 0.61253 0.37342 0.0
O98 O 0.76154 0.49677 0.23494 0.0
O99 O 0.7973 0.51003 0.0522 0.0
C100 C 0.76798 0.47955 0.13159 0.0
O101 O 0.75858 0.62202 0.19922 0.0
O102 O 0.68662 0.58881 0.29955 0.0
C103 C 0.83981 0.64063 0.05376 0.0
C104 C 0.71613 0.61916 0.22033 0.0
Zn105 Zn 0.32828 0.8913 0.16869 0.0
Zn106 Zn 0.16587 0.71993 0.57339 0.0
Zn107 Zn 0.21275 0.77679 0.44152 0.0
C108 C 0.176 0.7995 0.68565 0.0
C109 C 0.23725 0.70033 0.57735 0.0
O110 O 0.17663 0.78068 0.27124 0.0
O111 O 0.25447 0.83596 0.2322 0.0
C112 C 0.27993 0.88468 0.43821 0.0
O113 O 0.21435 0.81643 0.61339 0.0
O114 O 0.13886 0.75714 0.66259 0.0
O115 O 0.21101 0.7026 0.66383 0.0
O116 O 0.24085 0.7236 0.47542 0.0
O117 O 0.28746 0.86664 0.33931 0.0
O118 O 0.24879 0.85299 0.51571 0.0
O119 O 0.27078 0.75845 0.38512 0.0
O120 O 0.29552 0.82657 0.28034 0.0
C121 C 0.30324 0.79115 0.31217 0.0
O122 O 0.13582 0.73989 0.36645 0.0
O123 O 0.11954 0.66966 0.45543 0.0
C124 C 0.20882 0.81296 0.19633 0.0
C125 C 0.10535 0.69321 0.387 0.0
C126 C 0.35661 0.13713 0.10098 0.0
C127 C 0.35765 0.17896 0.15419 0.0
H128 H 0.35419 0.09914 0.93395 0.0
C129 C 0.35236 0.21283 0.07626 0.0
H130 H 0.35971 0.10998 0.158 0.0
C131 C 0.3522 0.20837 0.94801 0.0
C132 C 0.35574 0.16907 0.89439 0.0
H133 H 0.352 0.24522 0.1136 0.0
H134 H 0.35156 0.23693 0.89117 0.0
C135 C 0.35447 0.13165 0.97223 0.0
C136 C 0.20742 0.33421 0.33811 0.0
C137 C 0.16559 0.33536 0.38384 0.0
H138 H 0.24892 0.33621 0.17874 0.0
C139 C 0.12786 0.32932 0.29977 0.0
H140 H 0.23673 0.33805 0.39989 0.0
C141 C 0.13551 0.33013 0.17223 0.0
C142 C 0.18022 0.33525 0.12635 0.0
H143 H 0.09441 0.32903 0.33161 0.0
H144 H 0.10828 0.33067 0.11029 0.0
C145 C 0.21425 0.33329 0.21059 0.0
C146 C 0.8625 0.20614 0.38633 0.0
C147 C 0.823 0.17681 0.30374 0.0
H148 H 0.88477 0.22536 0.57524 0.0
C149 C 0.77936 0.13615 0.35103 0.0
H150 H 0.89729 0.23738 0.35332 0.0
C151 C 0.77315 0.12868 0.4788 0.0
C152 C 0.8099 0.16256 0.56186 0.0
H153 H 0.7485 0.11257 0.2905 0.0
H154 H 0.73738 0.09908 0.51214 0.0
C155 C 0.85564 0.19956 0.51408 0.0
C156 C 0.61324 0.86925 0.49215 0.0
C157 C 0.62708 0.84238 0.41115 0.0
H158 H 0.60409 0.88475 0.67999 0.0
C159 C 0.65584 0.82253 0.45707 0.0
H160 H 0.59248 0.88656 0.45992 0.0
C161 C 0.66395 0.82298 0.58407 0.0
C162 C 0.64207 0.842 0.66672 0.0
H163 H 0.66874 0.80341 0.39654 0.0
H164 H 0.68193 0.80289 0.61826 0.0
C165 C 0.62067 0.86909 0.61916 0.0
C166 C 0.86744 0.64987 0.71322 0.0
C167 C 0.82735 0.65383 0.66652 0.0
H168 H 0.90413 0.64472 0.87438 0.0
C169 C 0.79996 0.66697 0.74856 0.0
H170 H 0.88957 0.6404 0.65299 0.0
C171 C 0.80673 0.6674 0.87618 0.0
C172 C 0.84251 0.65693 0.92386 0.0
H173 H 0.76951 0.67178 0.71544 0.0
H174 H 0.78163 0.67224 0.93724 0.0
C175 C 0.87541 0.65214 0.84085 0.0
C176 C 0.2346 0.85421 0.98921 0.0
C177 C 0.19631 0.82094 0.06951 0.0
H178 H 0.25817 0.87465 0.80174 0.0
C179 C 0.14784 0.79182 0.02268 0.0
H180 H 0.27196 0.87887 0.02255 0.0
C181 C 0.13948 0.79107 0.89568 0.0
C182 C 0.17979 0.81821 0.81331 0.0
H183 H 0.11722 0.76689 0.08242 0.0
H184 H 0.10243 0.76495 0.86134 0.0
C185 C 0.22656 0.85263 0.86201 0.0
C186 C 0.35975 0.02434 0.3797 0.0
C187 C 0.34762 0.04388 0.48182 0.0
H188 H 0.34931 0.95866 0.28868 0.0
C189 C 0.31146 0.01105 0.56667 0.0
H190 H 0.38832 0.04897 0.31494 0.0
C191 C 0.28898 0.95932 0.55222 0.0
C192 C 0.30272 0.93944 0.45326 0.0
H193 H 0.30187 0.02557 0.64698 0.0
H194 H 0.26168 0.93502 0.61978 0.0
C195 C 0.33769 0.9725 0.36599 0.0
C196 C 0.39785 0.37113 0.60182 0.0
C197 C 0.37367 0.31878 0.61186 0.0
H198 H 0.39076 0.4364 0.60605 0.0
C199 C 0.32138 0.2915 0.6265 0.0
H200 H 0.43799 0.39324 0.58851 0.0
C201 C 0.29404 0.31649 0.63373 0.0
C202 C 0.31878 0.36897 0.62718 0.0
H203 H 0.30166 0.25103 0.63154 0.0
H204 H 0.25412 0.29507 0.65112 0.0
C205 C 0.37073 0.39586 0.60907 0.0
C206 C 0.97403 0.32015 0.96456 0.0
C207 C 0.94495 0.30474 0.85578 0.0
H208 H 0.04798 0.35796 0.04239 0.0
C209 C 0.96821 0.30877 0.74242 0.0
H210 H 0.95656 0.31723 0.05346 0.0
C211 C 0.02026 0.331 0.73707 0.0
C212 C 0.04957 0.34976 0.84472 0.0
H213 H 0.9469 0.29842 0.65767 0.0
H214 H 0.03799 0.33699 0.64733 0.0
C215 C 0.02612 0.34281 0.95908 0.0
C216 C 0.67484 0.97793 0.98892 0.0
C217 C 0.62503 0.95062 0.02931 0.0
H218 H 0.73853 0.0509 0.95892 0.0
C219 C 0.60195 0.97624 0.07836 0.0
H220 H 0.69372 0.95885 0.95361 0.0
C221 C 0.62742 0.02833 0.08258 0.0
C222 C 0.67695 0.05585 0.0408 0.0
H223 H 0.56369 0.95588 0.11162 0.0
H224 H 0.60781 0.04723 0.1141 0.0
C225 C 0.70083 0.03031 0.9957 0.0
C226 C 0.68305 0.65039 0.05611 0.0
C227 C 0.7034 0.65597 0.17376 0.0
H228 H 0.63774 0.66626 0.93747 0.0
C229 C 0.69826 0.68745 0.25997 0.0
H230 H 0.68561 0.62555 0.98945 0.0
C231 C 0.67002 0.71028 0.23173 0.0
C232 C 0.64605 0.70121 0.11741 0.0
H233 H 0.71304 0.69134 0.35261 0.0
H234 H 0.66415 0.73186 0.30168 0.0
C235 C 0.6548 0.67296 0.02805 0.0
C236 C 0.97339 0.6723 0.3745 0.0
C237 C 0.94519 0.61979 0.38348 0.0
H238 H 0.047 0.73733 0.36289 0.0
C239 C 0.97046 0.59255 0.38382 0.0
H240 H 0.95485 0.69421 0.37037 0.0
C241 C 0.0223 0.61673 0.37379 0.0
C242 C 0.05084 0.66911 0.36533 0.0
H243 H 0.94989 0.55203 0.38831 0.0
H244 H 0.04027 0.59424 0.37595 0.0
C245 C 0.02592 0.69683 0.36569 0.0
C246 C 0.60503 0.34338 0.3151 0.0
C247 C 0.58084 0.32228 0.42789 0.0
H248 H 0.66 0.40918 0.22185 0.0
C249 C 0.60229 0.34836 0.53787 0.0
H250 H 0.58929 0.32429 0.22861 0.0
C251 C 0.64362 0.39684 0.53377 0.0
C252 C 0.66424 0.41993 0.41985 0.0
H253 H 0.58428 0.33359 0.62601 0.0
H254 H 0.65703 0.4177 0.61915 0.0
C255 C 0.64593 0.39199 0.31103 0.0
C256 C 0.24971 0.59551 0.71047 0.0
C257 C 0.24424 0.56736 0.60383 0.0
H258 H 0.25434 0.66179 0.7852 0.0
C259 C 0.24782 0.589 0.48742 0.0
H260 H 0.2461 0.57944 0.80138 0.0
C261 C 0.25178 0.63599 0.47805 0.0
C262 C 0.25223 0.66194 0.58503 0.0
H263 H 0.24353 0.56795 0.40373 0.0
H264 H 0.24896 0.64923 0.38758 0.0
C265 C 0.25417 0.64264 0.70112 0.0
C266 C 0.64743 0.24616 0.63678 0.0
C267 C 0.6675 0.24943 0.75539 0.0
H268 H 0.58299 0.23243 0.53204 0.0
C269 C 0.64266 0.2548 0.85789 0.0
H270 H 0.66595 0.24222 0.55596 0.0
C271 C 0.59519 0.24943 0.84389 0.0
C272 C 0.57215 0.23904 0.72723 0.0
H273 H 0.65688 0.257 0.95043 0.0
H274 H 0.57448 0.24838 0.92589 0.0
C275 C 0.59996 0.24085 0.6228 0.0
C276 C 0.39247 0.64238 0.8008 0.0
C277 C 0.41541 0.66346 0.91417 0.0
H278 H 0.33552 0.57811 0.70794 0.0
C279 C 0.39158 0.63913 0.02428 0.0
H280 H 0.41024 0.66022 0.71445 0.0
C281 C 0.34805 0.59221 0.02058 0.0
C282 C 0.3278 0.56905 0.90671 0.0
H283 H 0.40915 0.65379 0.11271 0.0
H284 H 0.33247 0.57245 0.10649 0.0
C285 C 0.34931 0.59544 0.79708 0.0
C286 C 0.74865 0.39709 0.21862 0.0
C287 C 0.75126 0.42584 0.11551 0.0
H288 H 0.75013 0.33254 0.28444 0.0
C289 C 0.74817 0.40604 0.99658 0.0
H290 H 0.75162 0.41154 0.31131 0.0
C291 C 0.74748 0.36064 0.98107 0.0
C292 C 0.7503 0.33468 0.08435 0.0
H293 H 0.75019 0.42748 0.9154 0.0
H294 H 0.74962 0.34853 0.88845 0.0
C295 C 0.74807 0.3519 0.20315 0.0
C296 C 0.39508 0.74777 0.22381 0.0
C297 C 0.4388 0.79376 0.20205 0.0
H298 H 0.31757 0.71069 0.27742 0.0
C299 C 0.43712 0.83816 0.21543 0.0
H300 H 0.39548 0.71309 0.21539 0.0
C301 C 0.39279 0.83679 0.24915 0.0
C302 C 0.34919 0.79103 0.27305 0.0
H303 H 0.47013 0.8742 0.19857 0.0
H304 H 0.39297 0.87181 0.25891 0.0
C305 C 0.3507 0.74645 0.2605 0.0
loop_
_geom_bond_atom_site_label_1
_geom_bond_atom_site_label_2
_geom_bond_distance
_geom_bond_site_symmetry_2
_ccdc_geom_bond_type
Zn0 O6 1.920 . S
Zn0 O12 1.898 . S
Zn0 O15 1.905 . S
Zn1 O9 1.905 . S
Zn1 O10 1.898 . S
Zn1 O18 1.920 . S
Zn2 O5 2.080 . S
Zn2 O8 2.114 . S
Zn2 O11 2.120 . S
Zn2 O13 2.120 . S
Zn2 O14 2.114 . S
Zn2 O17 2.080 . S
C3 O8 1.166 . S
C3 O9 1.182 . S
C4 O10 1.167 . S
C4 O11 1.299 . S
O5 Zn2 2.080 . S
O5 C19 1.305 . S
O6 Zn0 1.920 . S
O6 C19 1.234 . S
C7 O12 1.167 . S
C7 O13 1.299 . S
O8 Zn2 2.114 . S
O8 C3 1.166 . S
O9 Zn1 1.905 . S
O9 C3 1.182 . S
O10 Zn1 1.898 . S
O10 C4 1.167 . S
O11 Zn2 2.120 . S
O11 C4 1.299 . S
O12 Zn0 1.898 . S
O12 C7 1.167 . S
O13 Zn2 2.120 . S
O13 C7 1.299 . S
O14 Zn2 2.114 . S
O14 C16 1.166 . S
O15 Zn0 1.905 . S
O15 C16 1.182 . S
C16 O14 1.166 . S
C16 O15 1.182 . S
O17 Zn2 2.080 . S
O17 C20 1.305 . S
O18 Zn1 1.920 . S
O18 C20 1.234 . S
C19 O5 1.305 . S
C19 O6 1.234 . S
C20 O17 1.305 . S
C20 O18 1.234 . S
Zn21 O27 1.920 . S
Zn21 O33 1.898 . S
Zn21 O36 1.905 . S
Zn22 O30 1.905 1_556 S
Zn22 O31 1.898 . S
Zn22 O39 1.920 . S
Zn23 O26 2.080 . S
Zn23 O29 2.114 . S
Zn23 O32 2.120 . S
Zn23 O34 2.120 . S
Zn23 O35 2.114 . S
Zn23 O38 2.080 . S
C24 O29 1.166 1_554 S
C24 O30 1.182 . S
C25 O31 1.167 . S
C25 O32 1.299 . S
O26 Zn23 2.080 . S
O26 C40 1.305 . S
O27 Zn21 1.920 . S
O27 C40 1.234 . S
C28 O33 1.167 . S
C28 O34 1.299 . S
O29 Zn23 2.114 . S
O29 C24 1.166 1_556 S
O30 Zn22 1.905 1_554 S
O30 C24 1.182 . S
O31 Zn22 1.898 . S
O31 C25 1.167 . S
O32 Zn23 2.120 . S
O32 C25 1.299 . S
O33 Zn21 1.898 . S
O33 C28 1.167 . S
O34 Zn23 2.120 . S
O34 C28 1.299 . S
O35 Zn23 2.114 . S
O35 C37 1.166 . S
O36 Zn21 1.905 . S
O36 C37 1.182 . S
C37 O35 1.166 . S
C37 O36 1.182 . S
O38 Zn23 2.080 . S
O38 C41 1.305 . S
O39 Zn22 1.920 . S
O39 C41 1.234 . S
C40 O26 1.305 . S
C40 O27 1.234 . S
C41 O38 1.305 . S
C41 O39 1.234 . S
Zn42 O48 1.920 . S
Zn42 O54 1.898 . S
Zn42 O57 1.905 . S
Zn43 O51 1.905 . S
Zn43 O52 1.898 . S
Zn43 O60 1.920 . S
Zn44 O47 2.080 . S
Zn44 O50 2.114 1_556 S
Zn44 O53 2.120 . S
Zn44 O55 2.120 . S
Zn44 O56 2.114 . S
Zn44 O59 2.080 . S
C45 O50 1.166 . S
C45 O51 1.182 . S
C46 O52 1.167 1_556 S
C46 O53 1.299 . S
O47 Zn44 2.080 . S
O47 C61 1.305 . S
O48 Zn42 1.920 . S
O48 C61 1.234 . S
C49 O54 1.167 . S
C49 O55 1.299 . S
O50 Zn44 2.114 1_554 S
O50 C45 1.166 . S
O51 Zn43 1.905 . S
O51 C45 1.182 . S
O52 Zn43 1.898 . S
O52 C46 1.167 1_554 S
O53 Zn44 2.120 . S
O53 C46 1.299 . S
O54 Zn42 1.898 . S
O54 C49 1.167 . S
O55 Zn44 2.120 . S
O55 C49 1.299 . S
O56 Zn44 2.114 . S
O56 C58 1.166 . S
O57 Zn42 1.905 . S
O57 C58 1.182 . S
C58 O56 1.166 . S
C58 O57 1.182 . S
O59 Zn44 2.080 . S
O59 C62 1.305 . S
O60 Zn43 1.920 . S
O60 C62 1.234 1_554 S
C61 O47 1.305 . S
C61 O48 1.234 . S
C62 O59 1.305 . S
C62 O60 1.234 1_556 S
Zn63 O69 1.920 . S
Zn63 O75 1.901 . S
Zn63 O78 1.905 . S
Zn64 O72 1.905 . S
Zn64 O73 1.898 . S
Zn64 O81 1.920 . S
Zn65 O68 2.080 1_554 S
Zn65 O71 2.114 . S
Zn65 O74 2.120 . S
Zn65 O76 2.120 . S
Zn65 O77 2.114 . S
Zn65 O80 2.080 . S
C66 O71 1.166 . S
C66 O72 1.182 . S
C67 O73 1.167 . S
C67 O74 1.299 . S
O68 Zn65 2.080 1_556 S
O68 C82 1.305 . S
O69 Zn63 1.920 . S
O69 C82 1.234 . S
C70 O75 1.164 1_554 S
C70 O76 1.299 . S
O71 Zn65 2.114 . S
O71 C66 1.166 . S
O72 Zn64 1.905 . S
O72 C66 1.182 . S
O73 Zn64 1.898 . S
O73 C67 1.167 . S
O74 Zn65 2.120 . S
O74 C67 1.299 . S
O75 Zn63 1.901 . S
O75 C70 1.164 1_556 S
O76 Zn65 2.120 . S
O76 C70 1.299 . S
O77 Zn65 2.114 . S
O77 C79 1.166 . S
O78 Zn63 1.905 . S
O78 C79 1.182 1_556 S
C79 O77 1.166 . S
C79 O78 1.182 1_554 S
O80 Zn65 2.080 . S
O80 C83 1.305 . S
O81 Zn64 1.920 . S
O81 C83 1.234 . S
C82 O68 1.305 . S
C82 O69 1.234 . S
C83 O80 1.305 . S
C83 O81 1.234 . S
Zn84 O90 1.920 1_554 S
Zn84 O96 1.898 . S
Zn84 O99 1.905 . S
Zn85 O93 1.905 . S
Zn85 O94 1.898 . S
Zn85 O102 1.920 . S
Zn86 O89 2.080 . S
Zn86 O92 2.114 . S
Zn86 O95 2.120 . S
Zn86 O97 2.120 . S
Zn86 O98 2.114 . S
Zn86 O101 2.080 . S
C87 O92 1.166 . S
C87 O93 1.182 . S
C88 O94 1.167 . S
C88 O95 1.299 . S
O89 Zn86 2.080 . S
O89 C103 1.305 1_554 S
O90 Zn84 1.920 1_556 S
O90 C103 1.234 . S
C91 O96 1.167 . S
C91 O97 1.299 . S
O92 Zn86 2.114 . S
O92 C87 1.166 . S
O93 Zn85 1.905 . S
O93 C87 1.182 . S
O94 Zn85 1.898 . S
O94 C88 1.167 . S
O95 Zn86 2.120 . S
O95 C88 1.299 . S
O96 Zn84 1.898 . S
O96 C91 1.167 . S
O97 Zn86 2.120 . S
O97 C91 1.299 . S
O98 Zn86 2.114 . S
O98 C100 1.166 . S
O99 Zn84 1.905 . S
O99 C100 1.182 . S
C100 O98 1.166 . S
C100 O99 1.182 . S
O101 Zn86 2.080 . S
O101 C104 1.305 . S
O102 Zn85 1.920 . S
O102 C104 1.234 . S
C103 O89 1.305 1_556 S
C103 O90 1.234 . S
C104 O101 1.305 . S
C104 O102 1.234 . S
Zn105 O111 1.920 . S
Zn105 O117 1.898 . S
Zn105 O120 1.905 . S
Zn106 O114 1.905 . S
Zn106 O115 1.898 . S
Zn106 O123 1.920 . S
Zn107 O110 2.080 . S
Zn107 O113 2.114 . S
Zn107 O116 2.120 . S
Zn107 O118 2.120 . S
Zn107 O119 2.114 . S
Zn107 O122 2.080 . S
C108 O113 1.166 . S
C108 O114 1.182 . S
C109 O115 1.167 . S
C109 O116 1.299 . S
O110 Zn107 2.080 . S
O110 C124 1.305 . S
O111 Zn105 1.920 . S
O111 C124 1.234 . S
C112 O117 1.167 . S
C112 O118 1.299 . S
O113 Zn107 2.114 . S
O113 C108 1.166 . S
O114 Zn106 1.905 . S
O114 C108 1.182 . S
O115 Zn106 1.898 . S
O115 C109 1.167 . S
O116 Zn107 2.120 . S
O116 C109 1.299 . S
O117 Zn105 1.898 . S
O117 C112 1.167 . S
O118 Zn107 2.120 . S
O118 C112 1.299 . S
O119 Zn107 2.114 . S
O119 C121 1.166 . S
O120 Zn105 1.905 . S
O120 C121 1.182 . S
C121 O119 1.166 . S
C121 O120 1.182 . S
O122 Zn107 2.080 . S
O122 C125 1.305 . S
O123 Zn106 1.920 . S
O123 C125 1.234 . S
C124 O110 1.305 . S
C124 O111 1.234 . S
C125 O122 1.305 . S
C125 O123 1.234 . S
C126 C127 1.387 . S
C126 H130 0.950 . S
C126 C135 1.385 1_554 S
C127 C126 1.387 . S
C127 C129 1.387 . S
H128 C135 0.953 . S
C129 C127 1.387 . S
C129 C131 1.390 . S
C129 H133 0.950 . S
H130 C126 0.950 . S
C131 C129 1.390 . S
C131 C132 1.387 1_554 S
C131 H134 0.952 . S
C132 C131 1.387 1_556 S
C132 C135 1.390 . S
H133 C129 0.950 . S
H134 C131 0.952 . S
C135 C126 1.385 1_556 S
C135 H128 0.953 . S
C135 C132 1.390 . S
C136 C137 1.387 . S
C136 H140 0.950 . S
C136 C145 1.390 . S
C137 C136 1.387 . S
C137 C139 1.387 . S
H138 C145 0.950 . S
C139 C137 1.387 . S
C139 C141 1.390 . S
C139 H143 0.950 . S
H140 C136 0.950 . S
C141 C139 1.390 . S
C141 C142 1.387 . S
C141 H144 0.950 . S
C142 C141 1.387 . S
C142 C145 1.387 . S
H143 C139 0.950 . S
H144 C141 0.950 . S
C145 C136 1.390 . S
C145 H138 0.950 . S
C145 C142 1.387 . S
C146 C147 1.387 . S
C146 H150 0.950 . S
C146 C155 1.390 . S
C147 C146 1.387 . S
C147 C149 1.387 . S
H148 C155 0.950 . S
C149 C147 1.387 . S
C149 C151 1.390 . S
C149 H153 0.950 . S
H150 C146 0.950 . S
C151 C149 1.390 . S
C151 C152 1.387 . S
C151 H154 0.950 . S
C152 C151 1.387 . S
C152 C155 1.387 . S
H153 C149 0.950 . S
H154 C151 0.950 . S
C155 C146 1.390 . S
C155 H148 0.950 . S
C155 C152 1.387 . S
C156 C157 1.387 . S
C156 H160 0.950 . S
C156 C165 1.390 . S
C157 C156 1.387 . S
C157 C159 1.387 . S
H158 C165 0.950 . S
C159 C157 1.387 . S
C159 C161 1.390 . S
C159 H163 0.950 . S
H160 C156 0.950 . S
C161 C159 1.390 . S
C161 C162 1.387 . S
C161 H164 0.950 . S
C162 C161 1.387 . S
C162 C165 1.387 . S
H163 C159 0.950 . S
H164 C161 0.950 . S
C165 C156 1.390 . S
C165 H158 0.950 . S
C165 C162 1.387 . S
C166 C167 1.387 . S
C166 H170 0.950 . S
C166 C175 1.390 . S
C167 C166 1.387 . S
C167 C169 1.387 . S
H168 C175 0.950 . S
C169 C167 1.387 . S
C169 C171 1.390 . S
C169 H173 0.950 . S
H170 C166 0.950 . S
C171 C169 1.390 . S
C171 C172 1.387 . S
C171 H174 0.950 . S
C172 C171 1.387 . S
C172 C175 1.387 . S
H173 C169 0.950 . S
H174 C171 0.950 . S
C175 C166 1.390 . S
C175 H168 0.950 . S
C175 C172 1.387 . S
C176 C177 1.387 1_556 S
C176 H180 0.950 1_556 S
C176 C185 1.390 . S
C177 C176 1.387 1_554 S
C177 C179 1.387 1_554 S
H178 C185 0.950 . S
C179 C177 1.387 1_556 S
C179 C181 1.390 . S
C179 H183 0.950 . S
H180 C176 0.950 1_554 S
C181 C179 1.390 . S
C181 C182 1.387 . S
C181 H184 0.950 . S
C182 C181 1.387 . S
C182 C185 1.387 . S
H183 C179 0.950 . S
H184 C181 0.950 . S
C185 C176 1.390 . S
C185 H178 0.950 . S
C185 C182 1.387 . S
C186 C187 1.387 . S
C186 H190 0.950 . S
C186 C195 1.390 1_545 S
C187 C186 1.387 . S
C187 C189 1.387 . S
H188 C195 0.950 . S
C189 C187 1.387 . S
C189 C191 1.390 1_545 S
C189 H193 0.950 . S
H190 C186 0.950 . S
C191 C189 1.390 1_565 S
C191 C192 1.387 . S
C191 H194 0.950 . S
C192 C191 1.387 . S
C192 C195 1.387 . S
H193 C189 0.950 . S
H194 C191 0.950 . S
C195 C186 1.390 1_565 S
C195 H188 0.950 . S
C195 C192 1.387 . S
C196 C197 1.387 . S
C196 H200 0.950 . S
C196 C205 1.390 . S
C197 C196 1.387 . S
C197 C199 1.387 . S
H198 C205 0.950 . S
C199 C197 1.387 . S
C199 C201 1.390 . S
C199 H203 0.950 . S
H200 C196 0.950 . S
C201 C199 1.390 . S
C201 C202 1.387 . S
C201 H204 0.950 . S
C202 C201 1.387 . S
C202 C205 1.387 . S
H203 C199 0.950 . S
H204 C201 0.950 . S
C205 C196 1.390 . S
C205 H198 0.950 . S
C205 C202 1.387 . S
C206 C207 1.387 . S
C206 H210 0.950 1_556 S
C206 C215 1.390 1_655 S
C207 C206 1.387 . S
C207 C209 1.387 . S
H208 C215 0.950 . S
C209 C207 1.387 . S
C209 C211 1.390 1_655 S
C209 H213 0.950 . S
H210 C206 0.950 1_554 S
C211 C209 1.390 1_455 S
C211 C212 1.387 . S
C211 H214 0.950 . S
C212 C211 1.387 . S
C212 C215 1.387 . S
H213 C209 0.950 . S
H214 C211 0.950 . S
C215 C206 1.390 1_455 S
C215 H208 0.950 . S
C215 C212 1.387 . S
C216 C217 1.387 . S
C216 H220 0.950 . S
C216 C225 1.390 1_565 S
C217 C216 1.387 . S
C217 C219 1.387 1_554 S
H218 C225 0.950 . S
C219 C217 1.387 1_556 S
C219 C221 1.390 1_565 S
C219 H223 0.950 . S
H220 C216 0.950 . S
C221 C219 1.390 1_545 S
C221 C222 1.387 . S
C221 H224 0.950 . S
C222 C221 1.387 . S
C222 C225 1.387 1_556 S
H223 C219 0.950 . S
H224 C221 0.950 . S
C225 C216 1.390 1_545 S
C225 H218 0.950 . S
C225 C222 1.387 1_554 S
C226 C227 1.387 . S
C226 H230 0.950 . S
C226 C235 1.390 . S
C227 C226 1.387 . S
C227 C229 1.387 . S
H228 C235 0.950 1_556 S
C229 C227 1.387 . S
C229 C231 1.390 . S
C229 H233 0.950 . S
H230 C226 0.950 . S
C231 C229 1.390 . S
C231 C232 1.387 . S
C231 H234 0.950 . S
C232 C231 1.387 . S
C232 C235 1.387 . S
H233 C229 0.950 . S
H234 C231 0.950 . S
C235 C226 1.390 . S
C235 H228 0.950 1_554 S
C235 C232 1.387 . S
C236 C237 1.387 . S
C236 H240 0.950 . S
C236 C245 1.390 1_655 S
C237 C236 1.387 . S
C237 C239 1.387 . S
H238 C245 0.950 . S
C239 C237 1.387 . S
C239 C241 1.390 1_655 S
C239 H243 0.950 . S
H240 C236 0.950 . S
C241 C239 1.390 1_455 S
C241 C242 1.387 . S
C241 H244 0.950 . S
C242 C241 1.387 . S
C242 C245 1.387 . S
H243 C239 0.950 . S
H244 C241 0.950 . S
C245 C236 1.390 1_455 S
C245 H238 0.950 . S
C245 C242 1.387 . S
C246 C247 1.387 . S
C246 H250 0.950 . S
C246 C255 1.390 . S
C247 C246 1.387 . S
C247 C249 1.387 . S
H248 C255 0.950 . S
C249 C247 1.387 . S
C249 C251 1.390 . S
C249 H253 0.950 . S
H250 C246 0.950 . S
C251 C249 1.390 . S
C251 C252 1.387 . S
C251 H254 0.950 . S
C252 C251 1.387 . S
C252 C255 1.387 . S
H253 C249 0.950 . S
H254 C251 0.950 . S
C255 C246 1.390 . S
C255 H248 0.950 . S
C255 C252 1.387 . S
C256 C257 1.387 . S
C256 H260 0.950 . S
C256 C265 1.390 . S
C257 C256 1.387 . S
C257 C259 1.387 . S
H258 C265 0.950 . S
C259 C257 1.387 . S
C259 C261 1.390 . S
C259 H263 0.950 . S
H260 C256 0.950 . S
C261 C259 1.390 . S
C261 C262 1.387 . S
C261 H264 0.950 . S
C262 C261 1.387 . S
C262 C265 1.387 . S
H263 C259 0.950 . S
H264 C261 0.950 . S
C265 C256 1.390 . S
C265 H258 0.950 . S
C265 C262 1.387 . S
C266 C267 1.387 . S
C266 H270 0.950 . S
C266 C275 1.390 . S
C267 C266 1.387 . S
C267 C269 1.387 . S
H268 C275 0.950 . S
C269 C267 1.387 . S
C269 C271 1.390 . S
C269 H273 0.950 . S
H270 C266 0.950 . S
C271 C269 1.390 . S
C271 C272 1.387 . S
C271 H274 0.950 . S
C272 C271 1.387 . S
C272 C275 1.387 . S
H273 C269 0.950 . S
H274 C271 0.950 . S
C275 C266 1.390 . S
C275 H268 0.950 . S
C275 C272 1.387 . S
C276 C277 1.387 . S
C276 H280 0.950 . S
C276 C285 1.390 . S
C277 C276 1.387 . S
C277 C279 1.387 1_556 S
H278 C285 0.950 . S
C279 C277 1.387 1_554 S
C279 C281 1.390 1_554 S
C279 H283 0.950 . S
H280 C276 0.950 . S
C281 C279 1.390 1_556 S
C281 C282 1.387 . S
C281 H284 0.950 1_556 S
C282 C281 1.387 . S
C282 C285 1.387 . S
H283 C279 0.950 . S
H284 C281 0.950 1_554 S
C285 C276 1.390 . S
C285 H278 0.950 . S
C285 C282 1.387 . S
C286 C287 1.387 . S
C286 H290 0.950 . S
C286 C295 1.390 . S
C287 C286 1.387 . S
C287 C289 1.387 . S
H288 C295 0.950 . S
C289 C287 1.387 . S
C289 C291 1.390 . S
C289 H293 0.950 . S
H290 C286 0.950 . S
C291 C289 1.390 . S
C291 C292 1.387 . S
C291 H294 0.950 1_554 S
C292 C291 1.387 . S
C292 C295 1.387 . S
H293 C289 0.950 . S
H294 C291 0.950 1_556 S
C295 C286 1.390 . S
C295 H288 0.950 . S
C295 C292 1.387 . S
C296 C297 1.387 . S
C296 H300 0.950 . S
C296 C305 1.390 . S
C297 C296 1.387 . S
C297 C299 1.387 . S
H298 C305 0.950 . S
C299 C297 1.387 . S
C299 C301 1.390 . S
C299 H303 0.950 . S
H300 C296 0.950 . S
C301 C299 1.390 . S
C301 C302 1.387 . S
C301 H304 0.950 . S
C302 C301 1.387 . S
C302 C305 1.387 . S
H303 C299 0.950 . S
H304 C301 0.950 . S
C305 C296 1.390 . S
C305 H298 0.950 . S
C305 C302 1.387 . S
C127 C19 1.097 . S
C132 C3 1.105 . S
C137 C40 1.100 . S
C142 C24 1.107 . S
C147 C45 1.101 . S
C152 C61 1.094 . S
C157 C66 1.107 . S
C162 C82 1.099 . S
C167 C87 1.107 . S
C172 C103 1.101 . S
C177 C124 1.101 . S
C182 C108 1.105 . S
C187 C20 1.418 . S
C192 C112 1.412 . S
C197 C7 1.410 . S
C202 C41 1.418 . S
C207 C62 1.415 . S
C212 C28 1.412 . S
C217 C83 1.414 . S
C222 C49 1.409 . S
C227 C104 1.418 . S
C232 C70 1.410 . S
C237 C91 1.408 . S
C242 C125 1.416 . S
C247 C16 1.511 . S
C252 C88 1.500 . S
C257 C37 1.509 . S
C262 C109 1.504 . S
C267 C58 1.507 . S
C272 C4 1.500 . S
C277 C79 1.511 1_556 S
C282 C25 1.501 . S
C287 C100 1.511 . S
C292 C46 1.504 1_554 S
C297 C67 1.504 . S
C302 C121 1.512 . S
