# Generated by pormake.
# Topology sod, (4)-cn, num edge types: 1
# Building blocks:
#     Node 0, Type 0, BuildingBlock: CEKHIL_clean_sbu_0, # of connection points: 4
#     Node 1, Type 0, BuildingBlock: CEKHIL_clean_sbu_0, # of connection points: 4
#     Node 2, Type 0, BuildingBlock: CEKHIL_clean_sbu_0, # of connection points: 4
#     Node 3, Type 0, BuildingBlock: CEKHIL_clean_sbu_0, # of connection points: 4
#     Node 4, Type 0, BuildingBlock: CEKHIL_clean_sbu_0, # of connection points: 4
#     Node 5, Type 0, BuildingBlock: CEKHIL_clean_sbu_0, # of connection points: 4
#     Node 6, Type 0, BuildingBlock: CEKHIL_clean_sbu_0, # of connection points: 4
#     Node 7, Type 0, BuildingBlock: CEKHIL_clean_sbu_0, # of connection points: 4
#     Node 8, Type 0, BuildingBlock: CEKHIL_clean_sbu_0, # of connection points: 4
#     Node 9, Type 0, BuildingBlock: CEKHIL_clean_sbu_0, # of connection points: 4
#     Node 10, Type 0, BuildingBlock: CEKHIL_clean_sbu_0, # of connection points: 4
#     Node 11, Type 0, BuildingBlock: CEKHIL_clean_sbu_0, # of connection points: 4
#     Edge 12, Type (0, 0), BuildingBlock: CIFDUS_clean_linker_0, # of connection points: 2
#     Edge 13, Type (0, 0), BuildingBlock: CIFDUS_clean_linker_0, # of connection points: 2
#     Edge 14, Type (0, 0), BuildingBlock: CIFDUS_clean_linker_0, # of connection points: 2
#     Edge 15, Type (0, 0), BuildingBlock: CIFDUS_clean_linker_0, # of connection points: 2
#     Edge 16, Type (0, 0), BuildingBlock: CIFDUS_clean_linker_0, # of connection points: 2
#     Edge 17, Type (0, 0), BuildingBlock: CIFDUS_clean_linker_0, # of connection points: 2
#     Edge 18, Type (0, 0), BuildingBlock: CIFDUS_clean_linker_0, # of connection points: 2
#     Edge 19, Type (0, 0), BuildingBlock: CIFDUS_clean_linker_0, # of connection points: 2
#     Edge 20, Type (0, 0), BuildingBlock: CIFDUS_clean_linker_0, # of connection points: 2
#     Edge 21, Type (0, 0), BuildingBlock: CIFDUS_clean_linker_0, # of connection points: 2
#     Edge 22, Type (0, 0), BuildingBlock: CIFDUS_clean_linker_0, # of connection points: 2
#     Edge 23, Type (0, 0), BuildingBlock: CIFDUS_clean_linker_0, # of connection points: 2
#     Edge 24, Type (0, 0), BuildingBlock: CIFDUS_clean_linker_0, # of connection points: 2
#     Edge 25, Type (0, 0), BuildingBlock: CIFDUS_clean_linker_0, # of connection points: 2
#     Edge 26, Type (0, 0), BuildingBlock: CIFDUS_clean_linker_0, # of connection points: 2
#     Edge 27, Type (0, 0), BuildingBlock: CIFDUS_clean_linker_0, # of connection points: 2
#     Edge 28, Type (0, 0), BuildingBlock: CIFDUS_clean_linker_0, # of connection points: 2
#     Edge 29, Type (0, 0), BuildingBlock: CIFDUS_clean_linker_0, # of connection points: 2
#     Edge 30, Type (0, 0), BuildingBlock: CIFDUS_clean_linker_0, # of connection points: 2
#     Edge 31, Type (0, 0), BuildingBlock: CIFDUS_clean_linker_0, # of connection points: 2
#     Edge 32, Type (0, 0), BuildingBlock: CIFDUS_clean_linker_0, # of connection points: 2
#     Edge 33, Type (0, 0), BuildingBlock: CIFDUS_clean_linker_0, # of connection points: 2
#     Edge 34, Type (0, 0), BuildingBlock: CIFDUS_clean_linker_0, # of connection points: 2
#     Edge 35, Type (0, 0), BuildingBlock: CIFDUS_clean_linker_0, # of connection points: 2
# Relax obj value: 0.139
# Max RMSD: 0.179
# Mean RMSD: 0.169
data_MOF--net-sod--node1-CEKHIL_clean_sbu_0--edge1-CIFDUS_clean_linker_0
_symmetry_space_group_name_H-M    P1
_symmetry_Int_Tables_number       1
_symmetry_cell_setting            triclinic
loop_
_symmetry_equiv_pos_as_xyz
'x, y, z'
_cell_length_a     36.397081
_cell_length_b     36.634406
_cell_length_c     36.525225
_cell_angle_alpha  92.318622
_cell_angle_beta   89.980119
_cell_angle_gamma 91.022276
loop_
_atom_site_label
_atom_site_type_symbol
_atom_site_fract_x
_atom_site_fract_y
_atom_site_fract_z
_atom_type_partial_charge
Co0 Co 0.00813 0.276 0.51119 0.0
O1 O 0.97844 0.3144 0.49227 0.0
O2 O 0.03828 0.30921 0.4838 0.0
C3 C 0.96903 0.22957 0.495 0.0
O4 O 0.0484 0.23954 0.52254 0.0
Co5 Co 0.98301 0.22393 0.57193 0.0
O6 O 0.02691 0.19546 0.55835 0.0
C7 C 0.99993 0.30198 0.5902 0.0
C8 C 0.00836 0.32655 0.47713 0.0
C9 C 0.05191 0.20886 0.53825 0.0
O10 O 0.01586 0.30601 0.55892 0.0
O11 O 0.98253 0.27269 0.59815 0.0
O12 O 0.99111 0.24288 0.47069 0.0
O13 O 0.96968 0.24599 0.52678 0.0
Co14 Co 0.76016 0.01897 0.50872 0.0
O15 O 0.79681 0.9938 0.47949 0.0
O16 O 0.78709 0.98652 0.53864 0.0
C17 C 0.7132 0.01205 0.46872 0.0
O18 O 0.72426 0.0368 0.54791 0.0
Co19 Co 0.72318 0.09004 0.4855 0.0
O20 O 0.69076 0.08326 0.52862 0.0
C21 C 0.80187 0.08962 0.5028 0.0
C22 C 0.80558 0.9777 0.5093 0.0
C23 C 0.69782 0.05942 0.55197 0.0
O24 O 0.79675 0.06 0.52007 0.0
O25 O 0.77679 0.10382 0.48371 0.0
O26 O 0.72181 0.98534 0.48937 0.0
O27 O 0.73506 0.04014 0.47054 0.0
Co28 Co 0.99228 0.77689 0.53474 0.0
O29 O 0.96412 0.73938 0.55843 0.0
O30 O 0.02342 0.75084 0.56729 0.0
C31 C 0.95088 0.82184 0.54252 0.0
O32 O 0.03064 0.81406 0.51804 0.0
Co33 Co 0.96583 0.81427 0.46484 0.0
O34 O 1.00525 0.85086 0.47773 0.0
C35 C 0.98641 0.73677 0.46156 0.0
C36 C 0.99437 0.73156 0.57511 0.0
C37 C 0.03122 0.84316 0.49936 0.0
O38 O 1.00328 0.74118 0.4925 0.0
O39 O 0.96681 0.76148 0.44787 0.0
O40 O 0.9727 0.8143 0.56933 0.0
O41 O 0.95289 0.80038 0.51382 0.0
Co42 Co 0.26158 0.02541 0.52053 0.0
O43 O 0.22368 0.05284 0.49684 0.0
O44 O 0.23603 0.05557 0.55623 0.0
C45 C 0.30697 0.03512 0.47992 0.0
O46 O 0.29917 1.00548 0.55573 0.0
Co47 Co 0.2991 0.95691 0.48673 0.0
O48 O 0.33551 0.9647 0.5268 0.0
C49 C 0.22347 0.95033 0.51487 0.0
C50 C 0.21621 0.06649 0.52939 0.0
C51 C 0.32795 0.98554 0.55439 0.0
O52 O 0.22512 0.98365 0.5277 0.0
O53 O 0.24933 0.93526 0.49636 0.0
O54 O 0.29955 0.06002 0.50515 0.0
O55 O 0.28515 0.00695 0.47815 0.0
Co56 Co 0.51693 0.0268 0.27267 0.0
O57 O 0.5477 0.04593 0.2343 0.0
O58 O 0.48906 0.05863 0.24305 0.0
C59 C 0.55832 0.03592 0.31837 0.0
O60 O 0.47591 0.01577 0.30894 0.0
Co61 Co 0.53416 0.9612 0.32032 0.0
O62 O 0.49745 0.98308 0.35457 0.0
C63 C 0.50936 0.94861 0.2432 0.0
C64 C 0.51892 0.06371 0.22441 0.0
C65 C 0.47315 1.00321 0.34121 0.0
O66 O 0.50311 0.98284 0.23992 0.0
O67 O 0.52288 0.93532 0.27207 0.0
O68 O 0.53858 0.0629 0.30793 0.0
O69 O 0.55384 1.00545 0.29993 0.0
Co70 Co 0.03958 0.51059 0.27468 0.0
O71 O 0.06871 0.49107 0.31341 0.0
O72 O 0.01058 0.47617 0.30189 0.0
C73 C 0.0823 0.50565 0.22978 0.0
O74 O 1.00094 0.52224 0.23624 0.0
Co75 Co 0.06153 0.58173 0.2358 0.0
O76 O 0.02679 0.56164 0.19776 0.0
C77 C 0.03895 0.58466 0.31316 0.0
C78 C 0.03965 0.47204 0.32185 0.0
C79 C 1.00184 0.53838 0.20553 0.0
O80 O 0.02444 0.55239 0.30921 0.0
O81 O 0.05799 0.59968 0.28826 0.0
O82 O 0.06271 0.47715 0.23832 0.0
O83 O 0.07771 0.53444 0.25059 0.0
Co84 Co 0.52665 0.01203 0.76619 0.0
O85 O 0.5572 0.9937 0.80447 0.0
O86 O 0.50024 0.97493 0.79224 0.0
C87 C 0.5696 0.01102 0.72141 0.0
O88 O 0.48704 0.02179 0.72822 0.0
Co89 Co 0.54352 0.08552 0.72912 0.0
O90 O 0.50202 0.07115 0.69622 0.0
C91 C 0.51509 0.08605 0.80452 0.0
C92 C 0.5296 0.9723 0.81212 0.0
C93 C 0.4811 0.04383 0.70234 0.0
O94 O 0.50782 0.05152 0.80151 0.0
O95 O 0.53186 0.10389 0.78002 0.0
O96 O 0.55198 0.98116 0.72938 0.0
O97 O 0.56318 0.03914 0.74266 0.0
Co98 Co 0.02872 0.54454 0.77228 0.0
O99 O 0.05875 0.56449 0.7336 0.0
O100 O 1.00141 0.57962 0.7462 0.0
C101 C 0.07168 0.54796 0.81705 0.0
O102 O 0.98894 0.5341 0.81025 0.0
Co103 Co 0.04447 0.47364 0.81277 0.0
O104 O 1.00568 0.49003 0.84743 0.0
C105 C 0.01952 0.46935 0.73561 0.0
C106 C 0.03036 0.58398 0.72604 0.0
C107 C 0.98412 0.51535 0.83899 0.0
O108 O 0.01138 0.50351 0.73702 0.0
O109 O 0.03515 0.45356 0.7619 0.0
O110 O 0.05368 0.57694 0.80888 0.0
O111 O 0.06526 0.51926 0.79637 0.0
Co112 Co 0.26654 0.51069 0.01048 0.0
O113 O 0.30381 0.48572 0.98159 0.0
O114 O 0.29208 0.47694 0.04007 0.0
C115 C 0.22064 0.5062 0.96879 0.0
O116 O 0.23003 0.52761 0.04957 0.0
Co117 Co 0.23011 0.58292 0.98947 0.0
O118 O 0.19758 0.5756 0.03231 0.0
C119 C 0.30884 0.58081 0.00657 0.0
C120 C 0.31154 0.46878 0.01123 0.0
C121 C 0.20411 0.55066 0.05462 0.0
O122 O 0.30347 0.55111 0.02372 0.0
O123 O 0.28389 0.59538 0.98763 0.0
O124 O 0.22798 0.47841 0.98858 0.0
O125 O 0.24285 0.53379 0.97271 0.0
Co126 Co 0.4975 0.26763 0.04334 0.0
O127 O 0.46519 0.22998 0.06197 0.0
O128 O 0.52361 0.23882 0.07727 0.0
C129 C 0.45725 0.31399 0.04859 0.0
O130 O 0.53976 0.30291 0.03323 0.0
Co131 Co 0.48365 0.31171 0.97427 0.0
O132 O 0.52461 0.3443 0.99253 0.0
C133 C 0.50063 0.23285 0.96762 0.0
C134 C 0.49338 0.22003 0.08087 0.0
C135 C 0.54649 0.33236 0.01628 0.0
O136 O 0.51182 0.23357 1.00109 0.0
O137 O 0.48555 0.26017 0.95318 0.0
O138 O 0.47553 0.30429 0.07717 0.0
O139 O 0.46222 0.29428 0.01908 0.0
Co140 Co 0.77152 0.52802 0.02377 0.0
O141 O 0.73399 0.55148 0.99521 0.0
O142 O 0.74855 0.56573 0.05295 0.0
C143 C 0.81627 0.52553 0.98067 0.0
O144 O 0.80814 0.51408 0.06306 0.0
Co145 Co 0.80496 0.45241 0.00646 0.0
O146 O 0.84357 0.46828 0.04244 0.0
C147 C 0.72765 0.45746 0.03014 0.0
C148 C 0.72767 0.57111 0.02504 0.0
C149 C 0.83657 0.49399 0.06572 0.0
O150 O 0.73299 0.49138 0.03969 0.0
O151 O 0.75228 0.43781 0.01445 0.0
O152 O 0.81072 0.55587 0.99957 0.0
O153 O 0.7932 0.49926 0.98641 0.0
Co154 Co 0.51145 0.77101 0.99811 0.0
O155 O 0.47978 0.80768 0.97905 0.0
O156 O 0.53906 0.80282 0.96689 0.0
C157 C 0.47253 0.72305 0.98763 0.0
O158 O 0.55299 0.73607 0.0092 0.0
Co159 Co 0.49118 0.72428 0.06457 0.0
O160 O 0.5342 0.69501 0.04961 0.0
C161 C 0.50785 0.80328 0.07533 0.0
C162 C 0.5085 0.81963 0.9617 0.0
C163 C 0.5577 0.70675 0.02687 0.0
O164 O 0.52208 0.80414 0.04296 0.0
O165 O 0.49146 0.7749 0.08715 0.0
O166 O 0.49255 0.73516 0.96103 0.0
O167 O 0.47466 0.74172 0.01819 0.0
H168 H 0.06711 0.36179 0.44749 0.0
H169 H 0.94856 0.35822 0.4473 0.0
H170 H 0.94767 0.40297 0.39947 0.0
H171 H 0.98063 0.44124 0.35567 0.0
H172 H 0.09913 0.44616 0.35728 0.0
H173 H 0.09995 0.40286 0.40642 0.0
C174 C 0.04106 0.37103 0.43722 0.0
C175 C 0.00796 0.35651 0.45092 0.0
C176 C 0.04074 0.39686 0.40971 0.0
C177 C 0.97447 0.36896 0.43737 0.0
C178 C 0.97392 0.39445 0.40985 0.0
C179 C 0.00662 0.43287 0.36682 0.0
C180 C 0.03978 0.44671 0.35257 0.0
C181 C 0.00689 0.40824 0.39546 0.0
C182 C 0.07321 0.4359 0.36765 0.0
C183 C 0.07371 0.4111 0.39577 0.0
H184 H 0.68047 0.06933 0.43794 0.0
H185 H 0.67299 0.95215 0.44514 0.0
H186 H 0.62281 0.94966 0.40051 0.0
H187 H 0.58427 0.98029 0.35665 0.0
H188 H 0.58991 0.09759 0.35054 0.0
H189 H 0.63762 0.10066 0.39803 0.0
C190 C 0.66768 0.04327 0.42993 0.0
C191 C 0.68068 0.01087 0.44446 0.0
C192 C 0.6387 0.04212 0.4045 0.0
C193 C 0.66353 0.9774 0.43425 0.0
C194 C 0.63494 0.97597 0.40868 0.0
C195 C 0.59566 0.0066 0.3659 0.0
C196 C 0.58387 0.03868 0.34986 0.0
C197 C 0.62278 0.00808 0.39319 0.0
C198 C 0.59857 0.07256 0.36247 0.0
C199 C 0.62593 0.07427 0.38947 0.0
H200 H 0.97515 0.60598 0.34515 0.0
H201 H 0.09279 0.61249 0.35712 0.0
H202 H 0.08689 0.65673 0.4087 0.0
H203 H 0.04851 0.69932 0.44527 0.0
H204 H 0.93138 0.69781 0.4282 0.0
H205 H 0.93648 0.64591 0.38439 0.0
C206 C 0.99929 0.61652 0.35975 0.0
C207 C 0.03428 0.60603 0.34777 0.0
C208 C 0.99572 0.64321 0.38827 0.0
C209 C 0.06557 0.62027 0.36618 0.0
C210 C 0.06222 0.64563 0.39552 0.0
C211 C 0.02415 0.687 0.43249 0.0
C212 C 0.98967 0.70218 0.43981 0.0
C213 C 0.02749 0.65817 0.4061 0.0
C214 C 0.95824 0.68651 0.42275 0.0
C215 C 0.96113 0.65692 0.39767 0.0
H216 H 0.31431 0.01423 0.40893 0.0
H217 H 0.3758 0.05608 0.50271 0.0
H218 H 0.43338 0.04922 0.46827 0.0
H219 H 0.46627 0.02854 0.41181 0.0
H220 H 0.40365 0.99224 0.31662 0.0
H221 H 0.34638 0.99964 0.35105 0.0
C222 C 0.34036 0.02224 0.42157 0.0
C223 C 0.34105 0.0356 0.45814 0.0
C224 C 0.37304 0.01892 0.4014 0.0
C225 C 0.37475 0.0461 0.47439 0.0
C226 C 0.40761 0.0419 0.45481 0.0
C227 C 0.43999 0.0224 0.39875 0.0
C228 C 0.43895 0.00946 0.36198 0.0
C229 C 0.40712 0.02789 0.41841 0.0
C230 C 0.40492 1.00215 0.34496 0.0
C231 C 0.37225 1.00634 0.36462 0.0
H232 H 0.97123 0.61381 0.6948 0.0
H233 H 0.0896 0.61288 0.6901 0.0
H234 H 0.08908 0.65852 0.64281 0.0
H235 H 0.0547 0.69986 0.60386 0.0
H236 H 0.93616 0.6983 0.60753 0.0
H237 H 0.93704 0.65244 0.65412 0.0
C238 C 0.99696 0.62353 0.68342 0.0
C239 C 0.03043 0.61017 0.69614 0.0
C240 C 0.99638 0.64938 0.65607 0.0
C241 C 0.06347 0.62273 0.68077 0.0
C242 C 0.06317 0.64889 0.65381 0.0
C243 C 0.02909 0.68941 0.61483 0.0
C244 C 0.9954 0.70267 0.60236 0.0
C245 C 0.02977 0.66261 0.64142 0.0
C246 C 0.96245 0.6886 0.61659 0.0
C247 C 0.96292 0.6624 0.64331 0.0
H248 H 0.45528 0.97934 0.6718 0.0
H249 H 0.43477 0.09494 0.67881 0.0
H250 H 0.38314 0.08642 0.63634 0.0
H251 H 0.34613 0.04679 0.59442 0.0
H252 H 0.37057 0.93229 0.58178 0.0
H253 H 0.41812 0.93945 0.62918 0.0
C254 C 0.43914 1.00249 0.66429 0.0
C255 C 0.44857 0.03767 0.67851 0.0
C256 C 0.41031 0.99756 0.63872 0.0
C257 C 0.42798 0.06762 0.66813 0.0
C258 C 0.39848 0.06277 0.64388 0.0
C259 C 0.3615 0.02331 0.60248 0.0
C260 C 0.35461 0.98899 0.58499 0.0
C261 C 0.38969 0.02796 0.62863 0.0
C262 C 0.37533 0.95896 0.595 0.0
C263 C 0.40252 0.96307 0.62204 0.0
H264 H 0.01754 0.37601 0.58583 0.0
H265 H 0.98441 0.29386 0.6617 0.0
H266 H 0.98305 0.33923 0.71119 0.0
H267 H 0.99389 0.40085 0.73477 0.0
H268 H 0.02819 0.48513 0.66277 0.0
H269 H 0.02578 0.4408 0.61017 0.0
C270 C 0.01024 0.36814 0.61322 0.0
C271 C 1.00128 0.33127 0.61968 0.0
C272 C 0.00936 0.39481 0.64239 0.0
C273 C 0.99144 0.32178 0.65545 0.0
C274 C 0.99055 0.34778 0.68407 0.0
C275 C 1.00036 0.40968 0.70745 0.0
C276 C 0.01121 0.44602 0.70258 0.0
C277 C 0.99966 0.38415 0.67796 0.0
C278 C 0.01932 0.45725 0.66707 0.0
C279 C 0.01839 0.43179 0.63713 0.0
H280 H 0.59128 0.07245 0.68797 0.0
H281 H 0.60264 0.95537 0.68255 0.0
H282 H 0.64474 0.96022 0.63053 0.0
H283 H 0.67826 0.99795 0.58662 0.0
H284 H 0.6629 0.11451 0.58949 0.0
H285 H 0.62239 0.10973 0.64264 0.0
C286 C 0.60292 0.04797 0.67542 0.0
C287 C 0.59402 0.0136 0.6892 0.0
C288 C 0.62644 0.05094 0.64517 0.0
C289 C 0.60905 0.98212 0.67238 0.0
C290 C 0.63318 0.9849 0.64274 0.0
C291 C 0.66621 0.02231 0.59909 0.0
C292 C 0.67384 0.05661 0.58447 0.0
C293 C 0.64214 0.0192 0.62897 0.0
C294 C 0.65747 0.08785 0.60034 0.0
C295 C 0.63434 0.08512 0.63069 0.0
H296 H 0.4302 0.3465 0.98945 0.0
H297 H 0.4285 0.35254 0.10762 0.0
H298 H 0.38347 0.40155 0.10649 0.0
H299 H 0.3427 0.44073 0.07156 0.0
H300 H 0.34642 0.43524 0.95335 0.0
H301 H 0.39274 0.38786 0.95486 0.0
C302 C 0.42021 0.35864 0.01504 0.0
C303 C 0.43252 0.34571 0.04862 0.0
C304 C 0.39458 0.38675 0.0141 0.0
C305 C 0.41948 0.36201 0.08145 0.0
C306 C 0.39364 0.38991 0.08077 0.0
C307 C 0.35372 0.42921 0.04613 0.0
C308 C 0.34086 0.44128 0.01233 0.0
C309 C 0.38066 0.40217 0.04722 0.0
C310 C 0.35575 0.42641 0.97967 0.0
C311 C 0.38221 0.39928 0.98053 0.0
H312 H 0.34452 0.61081 0.95054 0.0
H313 H 0.35342 0.5936 0.06622 0.0
H314 H 0.40773 0.63432 0.06989 0.0
H315 H 0.44795 0.67984 0.04116 0.0
H316 H 0.44002 0.69536 0.92501 0.0
H317 H 0.39013 0.64967 0.92029 0.0
C318 C 0.35874 0.61562 0.97644 0.0
C319 C 0.34488 0.59983 0.00822 0.0
C320 C 0.38982 0.63878 0.97819 0.0
C321 C 0.36369 0.60559 0.0415 0.0
C322 C 0.39453 0.62899 0.04358 0.0
C323 C 0.43564 0.67283 0.01473 0.0
C324 C 0.44718 0.69126 0.98352 0.0
C325 C 0.40713 0.64652 0.01228 0.0
C326 C 0.4315 0.68155 0.94936 0.0
C327 C 0.40287 0.65562 0.94672 0.0
H328 H 0.56177 0.40573 0.0164 0.0
H329 H 0.61133 0.30138 0.03194 0.0
H330 H 0.67138 0.33115 0.04047 0.0
H331 H 0.71051 0.38623 0.03979 0.0
H332 H 0.66141 0.49133 0.02772 0.0
H333 H 0.60049 0.46208 0.02238 0.0
C334 C 0.58576 0.38963 0.02175 0.0
C335 C 0.58222 0.35138 0.02305 0.0
C336 C 0.62023 0.40706 0.0275 0.0
C337 C 0.61336 0.33085 0.0307 0.0
C338 C 0.64772 0.34784 0.03557 0.0
C339 C 0.6864 0.40279 0.03654 0.0
C340 C 0.6905 0.44083 0.03392 0.0
C341 C 0.65157 0.38584 0.03358 0.0
C342 C 0.65898 0.46199 0.03005 0.0
C343 C 0.62417 0.44524 0.02663 0.0
H344 H 0.6972 0.61635 0.97521 0.0
H345 H 0.68633 0.57951 0.08546 0.0
H346 H 0.63323 0.61801 0.09571 0.0
H347 H 0.58968 0.66189 0.07389 0.0
H348 H 0.6014 0.70305 0.96551 0.0
H349 H 0.65446 0.66378 0.95416 0.0
C350 C 0.68307 0.61686 1.00136 0.0
C351 C 0.69559 0.59509 0.02952 0.0
C352 C 0.65286 0.64004 0.00754 0.0
C353 C 0.67735 0.5962 0.06344 0.0
C354 C 0.64692 0.61817 0.06935 0.0
C355 C 0.60385 0.66237 0.04777 0.0
C356 C 0.59145 0.68522 0.02055 0.0
C357 C 0.63447 0.64022 0.04169 0.0
C358 C 0.61048 0.68582 0.98703 0.0
C359 C 0.6407 0.6632 0.98045 0.0
H360 H 0.565 0.85802 0.93185 0.0
H361 H 0.44669 0.84861 0.93322 0.0
H362 H 0.44269 0.89508 0.88728 0.0
H363 H 0.4729 0.93698 0.84508 0.0
H364 H 0.59108 0.94821 0.84556 0.0
H365 H 0.59503 0.90258 0.89236 0.0
C366 C 0.53833 0.86627 0.92222 0.0
C367 C 0.5062 0.84968 0.93581 0.0
C368 C 0.53622 0.89326 0.89599 0.0
C369 C 0.47186 0.86093 0.92327 0.0
C370 C 0.46955 0.88743 0.89688 0.0
C371 C 0.49951 0.92947 0.85548 0.0
C372 C 0.53167 0.94577 0.84163 0.0
C373 C 0.50155 0.90353 0.88277 0.0
C374 C 0.56591 0.93608 0.85572 0.0
C375 C 0.56819 0.90992 0.88245 0.0
H376 H 0.18948 0.56652 0.94303 0.0
H377 H 0.18048 0.44885 0.93812 0.0
H378 H 0.13229 0.45163 0.89144 0.0
H379 H 0.09601 0.48753 0.84941 0.0
H380 H 0.10365 0.60529 0.85609 0.0
H381 H 0.14926 0.6025 0.90514 0.0
C382 C 0.17681 0.54143 0.93201 0.0
C383 C 0.1888 0.50745 0.94372 0.0
C384 C 0.14912 0.54333 0.90547 0.0
C385 C 0.17175 0.47528 0.92951 0.0
C386 C 0.14434 0.4769 0.90274 0.0
C387 C 0.10742 0.51263 0.86174 0.0
C388 C 0.09676 0.54663 0.84884 0.0
C389 C 0.13332 0.51077 0.89008 0.0
C390 C 0.11148 0.57885 0.86545 0.0
C391 C 0.13761 0.57723 0.8934 0.0
H392 H 0.54742 0.0942 0.87122 0.0
H393 H 0.45531 0.12789 0.80759 0.0
H394 H 0.44106 0.1752 0.85435 0.0
H395 H 0.45897 0.21106 0.90942 0.0
H396 H 0.55159 0.17895 0.97354 0.0
H397 H 0.56148 0.12671 0.93075 0.0
C398 C 0.52362 0.11127 0.86837 0.0
C399 C 0.50202 0.10754 0.83651 0.0
C400 C 0.51621 0.13901 0.89501 0.0
C401 C 0.47179 0.13014 0.83231 0.0
C402 C 0.46392 0.15735 0.85881 0.0
C403 C 0.48125 0.19255 0.91418 0.0
C404 C 0.50497 0.19926 0.94418 0.0
C405 C 0.48665 0.16275 0.88963 0.0
C406 C 0.53314 0.17453 0.95046 0.0
C407 C 0.53882 0.14471 0.92598 0.0
H408 H 0.94864 0.46912 0.88367 0.0
H409 H 0.94865 0.58032 0.84929 0.0
H410 H 0.89821 0.59441 0.89174 0.0
H411 H 0.85353 0.57467 0.93893 0.0
H412 H 0.85129 0.46168 0.968 0.0
H413 H 0.90311 0.449 0.92798 0.0
C414 C 0.93765 0.49647 0.88547 0.0
C415 C 0.95251 0.52363 0.86346 0.0
C416 C 0.90826 0.50417 0.90932 0.0
C417 C 0.93759 0.55882 0.86581 0.0
C418 C 0.90885 0.56695 0.89022 0.0
C419 C 0.86466 0.54741 0.93663 0.0
C420 C 0.84878 0.51932 0.9569 0.0
C421 C 0.89394 0.53983 0.91223 0.0
C422 C 0.863 0.48393 0.95306 0.0
C423 C 0.8927 0.47655 0.93001 0.0
H424 H 0.46123 0.09508 0.19138 0.0
H425 H 0.57969 0.0919 0.19107 0.0
H426 H 0.58208 0.13953 0.14607 0.0
H427 H 0.55063 0.18399 0.10902 0.0
H428 H 0.43216 0.18607 0.10782 0.0
H429 H 0.42963 0.13684 0.15118 0.0
C430 C 0.48758 0.10464 0.18129 0.0
C431 C 0.52027 0.09013 0.19476 0.0
C432 C 0.48872 0.13194 0.15531 0.0
C433 C 0.55415 0.10258 0.18116 0.0
C434 C 0.55553 0.12992 0.15553 0.0
C435 C 0.52423 0.17362 0.11818 0.0
C436 C 0.49161 0.18891 0.10551 0.0
C437 C 0.52302 0.14512 0.1428 0.0
C438 C 0.45764 0.17483 0.11722 0.0
C439 C 0.4562 0.14673 0.14206 0.0
H440 H 0.92679 0.53628 0.21031 0.0
H441 H 0.01696 0.51666 0.13602 0.0
H442 H 0.97397 0.49868 0.08685 0.0
H443 H 0.91073 0.49001 0.06434 0.0
H444 H 0.82004 0.51591 0.1361 0.0
H445 H 0.86285 0.52997 0.18675 0.0
C446 C 0.93682 0.52793 0.18335 0.0
C447 C 0.97487 0.52761 0.17669 0.0
C448 C 0.91182 0.51882 0.15476 0.0
C449 C 0.98771 0.51721 0.14161 0.0
C450 C 0.96318 0.50686 0.11354 0.0
C451 C 0.90038 0.49843 0.09118 0.0
C452 C 0.86232 0.5015 0.09664 0.0
C453 C 0.92518 0.50773 0.11971 0.0
C454 C 0.84926 0.51324 0.1313 0.0
C455 C 0.87373 0.52127 0.16025 0.0
H456 H 0.4766 0.81048 0.14225 0.0
H457 H 0.54247 0.87023 0.06575 0.0
H458 H 0.54534 0.92282 0.10963 0.0
H459 H 0.53195 0.95018 0.17188 0.0
H460 H 0.46854 0.88728 0.24754 0.0
H461 H 0.46132 0.83767 0.20144 0.0
C462 C 0.49167 0.8349 0.13484 0.0
C463 C 0.50967 0.83607 0.10074 0.0
C464 C 0.49334 0.86463 0.16006 0.0
C465 C 0.5286 0.86834 0.09187 0.0
C466 C 0.53017 0.89846 0.11694 0.0
C467 C 0.51592 0.92587 0.17775 0.0
C468 C 0.50046 0.92232 0.21282 0.0
C469 C 0.51293 0.89677 0.15135 0.0
C470 C 0.48042 0.89053 0.22063 0.0
C471 C 0.4765 0.86213 0.19439 0.0
H472 H 0.18239 0.48897 0.08833 0.0
H473 H 0.17336 0.60632 0.09463 0.0
H474 H 0.13568 0.60246 0.14977 0.0
H475 H 0.10614 0.56611 0.19623 0.0
H476 H 0.10976 0.44847 0.18793 0.0
H477 H 0.14897 0.45196 0.13342 0.0
C478 C 0.17222 0.51365 0.10192 0.0
C479 C 0.18092 0.54795 0.0877 0.0
C480 C 0.1497 0.51113 0.13309 0.0
C481 C 0.16705 0.57967 0.10508 0.0
C482 C 0.14558 0.57747 0.13662 0.0
C483 C 0.11526 0.54113 0.18252 0.0
C484 C 0.10514 0.50705 0.19626 0.0
C485 C 0.13682 0.54339 0.15086 0.0
C486 C 0.11718 0.47503 0.1779 0.0
C487 C 0.13962 0.47705 0.1468 0.0
H488 H 0.84044 0.95169 0.56871 0.0
H489 H 0.83589 0.94147 0.45063 0.0
H490 H 0.88111 0.89309 0.4508 0.0
H491 H 0.91971 0.85216 0.4843 0.0
H492 H 0.9272 0.86312 0.60207 0.0
H493 H 0.88305 0.91302 0.60228 0.0
C494 C 0.84947 0.93892 0.54303 0.0
C495 C 0.83458 0.94992 0.50969 0.0
C496 C 0.87587 0.91132 0.54331 0.0
C497 C 0.84686 0.93349 0.47663 0.0
C498 C 0.87266 0.90576 0.47671 0.0
C499 C 0.91194 0.86553 0.51007 0.0
C500 C 0.9265 0.85376 0.54318 0.0
C501 C 0.88701 0.89424 0.50987 0.0
C502 C 0.91634 0.87168 0.57625 0.0
C503 C 0.89104 0.90011 0.57635 0.0
H504 H 0.94519 0.18045 0.54299 0.0
H505 H 0.93453 0.21019 0.43055 0.0
H506 H 0.88244 0.16721 0.42237 0.0
H507 H 0.83598 0.12663 0.44959 0.0
H508 H 0.84823 0.09555 0.56152 0.0
H509 H 0.90403 0.13368 0.56765 0.0
C510 C 0.93183 0.1771 0.51653 0.0
C511 C 0.94321 0.19873 0.48751 0.0
C512 C 0.90205 0.15253 0.51219 0.0
C513 C 0.92617 0.19376 0.45321 0.0
C514 C 0.89625 0.16945 0.44867 0.0
C515 C 0.85109 0.12803 0.47522 0.0
C516 C 0.83775 0.10898 0.50535 0.0
C517 C 0.88327 0.14961 0.47834 0.0
C518 C 0.85791 0.1102 0.53811 0.0
C519 C 0.8897 0.13204 0.54161 0.0
H520 H 0.09979 0.82889 0.52456 0.0
H521 H 0.03468 0.91513 0.48247 0.0
H522 H 0.08732 0.95729 0.48775 0.0
H523 H 0.1531 0.96895 0.50126 0.0
H524 H 0.21914 0.8812 0.53818 0.0
H525 H 0.16501 0.84064 0.5387 0.0
C526 C 0.09704 0.85695 0.51672 0.0
C527 C 0.06331 0.8687 0.50299 0.0
C528 C 0.12766 0.88092 0.51915 0.0
C529 C 0.06038 0.90517 0.49278 0.0
C530 C 0.09045 0.9294 0.49595 0.0
C531 C 0.15532 0.94116 0.5101 0.0
C532 C 0.18981 0.9281 0.52012 0.0
C533 C 0.12435 0.91753 0.50878 0.0
C534 C 0.19272 0.89181 0.53063 0.0
C535 C 0.16185 0.86859 0.53073 0.0
H536 H 0.08232 0.16125 0.58388 0.0
H537 H 0.09699 0.20765 0.47813 0.0
H538 H 0.14876 0.16719 0.46533 0.0
H539 H 0.1886 0.11664 0.48358 0.0
H540 H 0.17571 0.07389 0.59123 0.0
H541 H 0.1245 0.11461 0.60379 0.0
C542 C 0.09697 0.16268 0.5581 0.0
C543 C 0.08563 0.18727 0.53191 0.0
C544 C 0.1269 0.13971 0.55115 0.0
C545 C 0.10524 0.18908 0.49883 0.0
C546 C 0.1347 0.16577 0.4914 0.0
C547 C 0.17449 0.11633 0.50972 0.0
C548 C 0.18568 0.09206 0.53632 0.0
C549 C 0.14553 0.14062 0.51719 0.0
C550 C 0.1676 0.0923 0.57032 0.0
C551 C 0.13829 0.11556 0.57753 0.0
loop_
_geom_bond_atom_site_label_1
_geom_bond_atom_site_label_2
_geom_bond_distance
_geom_bond_site_symmetry_2
_ccdc_geom_bond_type
Co0 O1 2.216 1_455 S
Co0 O2 2.091 . S
Co0 O4 2.004 . S
Co0 O10 2.021 . S
Co0 O12 2.137 1_455 S
Co0 O13 2.244 1_455 S
O1 Co0 2.216 1_655 S
O1 C8 1.247 . S
O2 Co0 2.091 . S
O2 C8 1.261 1_455 S
C3 O12 1.247 . S
C3 O13 1.272 . S
O4 Co0 2.004 . S
O4 C9 1.259 . S
Co5 O6 2.061 1_655 S
Co5 O11 2.052 . S
Co5 O13 2.135 . S
O6 Co5 2.061 1_455 S
O6 C9 1.235 . S
C7 O10 1.238 . S
C7 O11 1.241 1_455 S
C8 O1 1.247 . S
C8 O2 1.261 1_655 S
C9 O4 1.259 . S
C9 O6 1.235 . S
O10 Co0 2.021 . S
O10 C7 1.238 . S
O11 Co5 2.052 . S
O11 C7 1.241 1_655 S
O12 Co0 2.137 1_655 S
O12 C3 1.247 . S
O13 Co0 2.244 1_655 S
O13 C3 1.272 . S
O13 Co5 2.135 . S
Co14 O15 2.225 . S
Co14 O16 2.114 . S
Co14 O18 2.003 1_565 S
Co14 O24 2.001 1_565 S
Co14 O26 2.150 . S
Co14 O27 2.229 1_565 S
O15 Co14 2.225 . S
O15 C22 1.247 . S
O16 Co14 2.114 . S
O16 C22 1.261 . S
C17 O26 1.250 . S
C17 O27 1.268 1_565 S
O18 Co14 2.003 1_545 S
O18 C23 1.259 . S
Co19 O20 2.061 . S
Co19 O25 2.052 . S
Co19 O27 2.135 . S
O20 Co19 2.061 . S
O20 C23 1.235 . S
C21 O24 1.238 . S
C21 O25 1.241 . S
C22 O15 1.247 . S
C22 O16 1.261 . S
C23 O18 1.259 . S
C23 O20 1.235 . S
O24 Co14 2.001 1_545 S
O24 C21 1.238 . S
O25 Co19 2.052 . S
O25 C21 1.241 . S
O26 Co14 2.150 . S
O26 C17 1.250 . S
O27 Co14 2.229 1_545 S
O27 C17 1.268 1_545 S
O27 Co19 2.135 . S
Co28 O29 2.216 1_455 S
Co28 O30 2.091 . S
Co28 O32 2.004 . S
Co28 O38 2.021 . S
Co28 O40 2.137 1_455 S
Co28 O41 2.244 1_455 S
O29 Co28 2.216 1_655 S
O29 C36 1.237 1_655 S
O30 Co28 2.091 . S
O30 C36 1.273 . S
C31 O40 1.247 . S
C31 O41 1.272 . S
O32 Co28 2.004 . S
O32 C37 1.259 . S
Co33 O34 2.061 1_655 S
Co33 O39 2.052 1_655 S
Co33 O41 2.135 . S
O34 Co33 2.061 1_455 S
O34 C37 1.235 . S
C35 O38 1.238 . S
C35 O39 1.241 . S
C36 O29 1.237 1_455 S
C36 O30 1.273 . S
C37 O32 1.259 . S
C37 O34 1.235 . S
O38 Co28 2.021 . S
O38 C35 1.238 . S
O39 Co33 2.052 1_455 S
O39 C35 1.241 . S
O40 Co28 2.137 1_655 S
O40 C31 1.247 . S
O41 Co28 2.244 1_655 S
O41 C31 1.272 . S
O41 Co33 2.135 . S
Co42 O43 2.216 . S
Co42 O44 2.091 . S
Co42 O46 2.004 . S
Co42 O52 2.021 1_545 S
Co42 O54 2.137 . S
Co42 O55 2.234 1_545 S
O43 Co42 2.216 . S
O43 C50 1.247 . S
O44 Co42 2.091 . S
O44 C50 1.261 . S
C45 O54 1.247 . S
C45 O55 1.255 1_545 S
O46 Co42 2.004 . S
O46 C51 1.259 . S
Co47 O48 2.061 . S
Co47 O53 2.052 . S
Co47 O55 2.152 . S
O48 Co47 2.061 . S
O48 C51 1.235 1_565 S
C49 O52 1.238 . S
C49 O53 1.241 . S
C50 O43 1.247 . S
C50 O44 1.261 . S
C51 O46 1.259 . S
C51 O48 1.235 1_545 S
O52 Co42 2.021 1_565 S
O52 C49 1.238 . S
O53 Co47 2.052 . S
O53 C49 1.241 . S
O54 Co42 2.137 . S
O54 C45 1.247 . S
O55 Co42 2.234 1_565 S
O55 C45 1.255 1_565 S
O55 Co47 2.152 . S
Co56 O57 2.216 . S
Co56 O58 2.091 . S
Co56 O60 2.004 . S
Co56 O66 2.021 1_545 S
Co56 O68 2.137 . S
Co56 O69 2.244 1_545 S
O57 Co56 2.216 . S
O57 C64 1.247 . S
O58 Co56 2.091 . S
O58 C64 1.261 . S
C59 O68 1.247 . S
C59 O69 1.272 1_545 S
O60 Co56 2.004 . S
O60 C65 1.259 1_545 S
Co61 O62 2.061 . S
Co61 O67 2.052 . S
Co61 O69 2.135 . S
O62 Co61 2.061 . S
O62 C65 1.235 . S
C63 O66 1.238 . S
C63 O67 1.241 . S
C64 O57 1.247 . S
C64 O58 1.261 . S
C65 O60 1.259 1_565 S
C65 O62 1.235 . S
O66 Co56 2.021 1_565 S
O66 C63 1.238 . S
O67 Co61 2.052 . S
O67 C63 1.241 . S
O68 Co56 2.137 . S
O68 C59 1.247 . S
O69 Co56 2.244 1_565 S
O69 C59 1.272 1_565 S
O69 Co61 2.135 . S
Co70 O71 2.216 . S
Co70 O72 2.091 1_455 S
Co70 O74 2.004 1_455 S
Co70 O80 2.021 1_455 S
Co70 O82 2.137 . S
Co70 O83 2.244 . S
O71 Co70 2.216 . S
O71 C78 1.247 . S
O72 Co70 2.091 1_655 S
O72 C78 1.261 1_655 S
C73 O82 1.247 . S
C73 O83 1.272 . S
O74 Co70 2.004 1_655 S
O74 C79 1.259 . S
Co75 O76 2.061 1_455 S
Co75 O81 2.052 . S
Co75 O83 2.135 . S
O76 Co75 2.061 1_655 S
O76 C79 1.235 . S
C77 O80 1.238 1_455 S
C77 O81 1.241 . S
C78 O71 1.247 . S
C78 O72 1.261 1_455 S
C79 O74 1.259 . S
C79 O76 1.235 . S
O80 Co70 2.021 1_655 S
O80 C77 1.238 1_655 S
O81 Co75 2.052 . S
O81 C77 1.241 . S
O82 Co70 2.137 . S
O82 C73 1.247 . S
O83 Co70 2.244 . S
O83 C73 1.272 . S
O83 Co75 2.135 . S
Co84 O85 2.216 1_545 S
Co84 O86 2.091 1_545 S
Co84 O88 2.004 . S
Co84 O94 2.021 . S
Co84 O96 2.137 1_545 S
Co84 O97 2.244 . S
O85 Co84 2.216 1_565 S
O85 C92 1.247 . S
O86 Co84 2.091 1_565 S
O86 C92 1.261 . S
C87 O96 1.247 1_545 S
C87 O97 1.272 . S
O88 Co84 2.004 . S
O88 C93 1.259 . S
Co89 O90 2.061 . S
Co89 O95 2.052 . S
Co89 O97 2.135 . S
O90 Co89 2.061 . S
O90 C93 1.235 . S
C91 O94 1.238 . S
C91 O95 1.241 . S
C92 O85 1.247 . S
C92 O86 1.261 . S
C93 O88 1.259 . S
C93 O90 1.235 . S
O94 Co84 2.021 . S
O94 C91 1.238 . S
O95 Co89 2.052 . S
O95 C91 1.241 . S
O96 Co84 2.137 1_565 S
O96 C87 1.247 1_565 S
O97 Co84 2.244 . S
O97 C87 1.272 . S
O97 Co89 2.135 . S
Co98 O99 2.216 . S
Co98 O100 2.091 1_455 S
Co98 O102 2.004 1_455 S
Co98 O108 2.021 1_455 S
Co98 O110 2.137 . S
Co98 O111 2.244 . S
O99 Co98 2.216 . S
O99 C106 1.247 . S
O100 Co98 2.091 1_655 S
O100 C106 1.261 1_655 S
C101 O110 1.247 . S
C101 O111 1.272 . S
O102 Co98 2.004 1_655 S
O102 C107 1.259 . S
Co103 O104 2.061 1_455 S
Co103 O109 2.052 . S
Co103 O111 2.135 . S
O104 Co103 2.061 1_655 S
O104 C107 1.235 . S
C105 O108 1.238 . S
C105 O109 1.241 1_655 S
C106 O99 1.247 . S
C106 O100 1.261 1_455 S
C107 O102 1.259 . S
C107 O104 1.235 . S
O108 Co98 2.021 1_655 S
O108 C105 1.238 . S
O109 Co103 2.052 . S
O109 C105 1.241 1_455 S
O110 Co98 2.137 . S
O110 C101 1.247 . S
O111 Co98 2.244 . S
O111 C101 1.272 . S
O111 Co103 2.135 . S
Co112 O113 2.216 1_554 S
Co112 O114 2.091 . S
Co112 O116 2.004 . S
Co112 O122 2.021 . S
Co112 O124 2.137 1_554 S
Co112 O125 2.244 1_554 S
O113 Co112 2.216 1_556 S
O113 C120 1.241 1_556 S
O114 Co112 2.091 . S
O114 C120 1.268 . S
C115 O124 1.247 . S
C115 O125 1.272 . S
O116 Co112 2.004 . S
O116 C121 1.259 . S
Co117 O118 2.076 . S
Co117 O123 2.054 . S
Co117 O125 2.128 1_554 S
O118 Co117 2.076 . S
O118 C121 1.235 . S
C119 O122 1.238 . S
C119 O123 1.241 . S
C120 O113 1.241 1_554 S
C120 O114 1.268 . S
C121 O116 1.259 . S
C121 O118 1.235 . S
O122 Co112 2.021 . S
O122 C119 1.238 . S
O123 Co117 2.054 . S
O123 C119 1.241 . S
O124 Co112 2.137 1_556 S
O124 C115 1.247 . S
O125 Co112 2.244 1_556 S
O125 C115 1.272 . S
O125 Co117 2.128 1_556 S
Co126 O127 2.216 . S
Co126 O128 2.091 . S
Co126 O130 2.004 . S
Co126 O136 2.021 1_554 S
Co126 O138 2.137 . S
Co126 O139 2.244 1_554 S
O127 Co126 2.216 . S
O127 C134 1.247 . S
O128 Co126 2.091 . S
O128 C134 1.261 . S
C129 O138 1.247 . S
C129 O139 1.272 1_554 S
O130 Co126 2.004 . S
O130 C135 1.259 1_554 S
Co131 O132 2.061 . S
Co131 O137 2.052 . S
Co131 O139 2.135 . S
O132 Co131 2.061 . S
O132 C135 1.235 . S
C133 O136 1.238 . S
C133 O137 1.241 . S
C134 O127 1.247 . S
C134 O128 1.261 . S
C135 O130 1.259 1_556 S
C135 O132 1.235 . S
O136 Co126 2.021 1_556 S
O136 C133 1.238 . S
O137 Co131 2.052 . S
O137 C133 1.241 . S
O138 Co126 2.137 . S
O138 C129 1.247 . S
O139 Co126 2.244 1_556 S
O139 C129 1.272 1_556 S
O139 Co131 2.135 . S
Co140 O141 2.216 1_554 S
Co140 O142 2.091 . S
Co140 O144 2.004 . S
Co140 O150 2.021 . S
Co140 O152 2.137 1_554 S
Co140 O153 2.244 1_554 S
O141 Co140 2.216 1_556 S
O141 C148 1.247 1_556 S
O142 Co140 2.091 . S
O142 C148 1.261 . S
C143 O152 1.247 . S
C143 O153 1.272 . S
O144 Co140 2.004 . S
O144 C149 1.259 . S
Co145 O146 2.061 1_556 S
Co145 O151 2.052 1_556 S
Co145 O153 2.135 . S
O146 Co145 2.061 1_554 S
O146 C149 1.235 . S
C147 O150 1.238 . S
C147 O151 1.241 . S
C148 O141 1.247 1_554 S
C148 O142 1.261 . S
C149 O144 1.259 . S
C149 O146 1.235 . S
O150 Co140 2.021 . S
O150 C147 1.238 . S
O151 Co145 2.052 1_554 S
O151 C147 1.241 . S
O152 Co140 2.137 1_556 S
O152 C143 1.247 . S
O153 Co140 2.244 1_556 S
O153 C143 1.272 . S
O153 Co145 2.135 . S
Co154 O155 2.216 1_554 S
Co154 O156 2.091 1_554 S
Co154 O158 2.004 . S
Co154 O164 2.021 . S
Co154 O166 2.137 1_554 S
Co154 O167 2.244 . S
O155 Co154 2.216 1_556 S
O155 C162 1.247 . S
O156 Co154 2.091 1_556 S
O156 C162 1.261 . S
C157 O166 1.247 1_554 S
C157 O167 1.272 . S
O158 Co154 2.004 . S
O158 C163 1.259 . S
Co159 O160 2.061 . S
Co159 O165 2.052 . S
Co159 O167 2.135 . S
O160 Co159 2.061 . S
O160 C163 1.235 . S
C161 O164 1.238 . S
C161 O165 1.241 . S
C162 O155 1.247 . S
C162 O156 1.261 . S
C163 O158 1.259 . S
C163 O160 1.235 . S
O164 Co154 2.021 . S
O164 C161 1.238 . S
O165 Co159 2.052 . S
O165 C161 1.241 . S
O166 Co154 2.137 1_556 S
O166 C157 1.247 1_556 S
O167 Co154 2.244 . S
O167 C157 1.272 . S
O167 Co159 2.135 . S
H168 C174 0.930 . S
H169 C177 0.930 . S
H170 C178 0.930 . S
H171 C179 0.930 1_655 S
H172 C182 0.930 . S
H173 C183 0.930 . S
C174 H168 0.930 . S
C174 C175 1.355 1_455 S
C174 C176 1.415 . S
C175 C174 1.355 1_655 S
C175 C177 1.419 . S
C176 C174 1.415 . S
C176 C181 1.425 1_455 S
C176 C183 1.409 . S
C177 H169 0.930 . S
C177 C175 1.419 . S
C177 C178 1.362 . S
C178 H170 0.930 . S
C178 C177 1.362 . S
C178 C181 1.409 . S
C179 H171 0.930 1_455 S
C179 C180 1.355 . S
C179 C181 1.415 1_455 S
C180 C179 1.355 . S
C180 C182 1.419 . S
C181 C176 1.425 1_655 S
C181 C178 1.409 . S
C181 C179 1.415 1_655 S
C182 H172 0.930 . S
C182 C180 1.419 . S
C182 C183 1.362 . S
C183 H173 0.930 . S
C183 C176 1.409 . S
C183 C182 1.362 . S
H184 C190 0.930 . S
H185 C193 0.930 . S
H186 C194 0.930 . S
H187 C195 0.930 . S
H188 C198 0.930 . S
H189 C199 0.930 . S
C190 H184 0.930 . S
C190 C191 1.355 1_565 S
C190 C192 1.409 1_565 S
C191 C190 1.355 1_545 S
C191 C193 1.419 . S
C192 C190 1.409 1_545 S
C192 C197 1.440 . S
C192 C199 1.402 1_545 S
C193 H185 0.930 . S
C193 C191 1.419 . S
C193 C194 1.362 . S
C194 H186 0.930 . S
C194 C193 1.362 . S
C194 C197 1.409 . S
C195 H187 0.930 . S
C195 C196 1.355 . S
C195 C197 1.415 . S
C196 C195 1.355 . S
C196 C198 1.419 1_545 S
C197 C192 1.440 . S
C197 C194 1.409 . S
C197 C195 1.415 . S
C198 H188 0.930 . S
C198 C196 1.419 1_565 S
C198 C199 1.362 . S
C199 H189 0.930 . S
C199 C192 1.402 1_565 S
C199 C198 1.362 . S
H200 C206 0.930 . S
H201 C209 0.930 . S
H202 C210 0.930 . S
H203 C211 0.930 . S
H204 C214 0.930 . S
H205 C215 0.930 . S
C206 H200 0.930 . S
C206 C207 1.355 1_655 S
C206 C208 1.415 . S
C207 C206 1.355 1_455 S
C207 C209 1.419 . S
C208 C206 1.415 . S
C208 C213 1.425 1_655 S
C208 C215 1.409 . S
C209 H201 0.930 . S
C209 C207 1.419 . S
C209 C210 1.362 . S
C210 H202 0.930 . S
C210 C209 1.362 . S
C210 C213 1.409 . S
C211 H203 0.930 . S
C211 C212 1.355 . S
C211 C213 1.415 . S
C212 C211 1.355 . S
C212 C214 1.419 1_455 S
C213 C208 1.425 1_455 S
C213 C210 1.409 . S
C213 C211 1.415 . S
C214 H204 0.930 . S
C214 C212 1.419 1_655 S
C214 C215 1.362 . S
C215 H205 0.930 . S
C215 C208 1.409 . S
C215 C214 1.362 . S
H216 C222 0.930 . S
H217 C225 0.930 . S
H218 C226 0.930 . S
H219 C227 0.935 . S
H220 C230 0.930 . S
H221 C231 0.930 . S
C222 H216 0.930 . S
C222 C223 1.355 . S
C222 C224 1.415 . S
C223 C222 1.355 . S
C223 C225 1.419 . S
C224 C222 1.415 . S
C224 C229 1.425 . S
C224 C231 1.409 . S
C225 H217 0.930 . S
C225 C223 1.419 . S
C225 C226 1.362 . S
C226 H218 0.930 . S
C226 C225 1.362 . S
C226 C229 1.409 . S
C227 H219 0.935 . S
C227 C228 1.355 . S
C227 C229 1.415 . S
C228 C227 1.355 . S
C228 C230 1.419 . S
C229 C224 1.425 . S
C229 C226 1.409 . S
C229 C227 1.415 . S
C230 H220 0.930 . S
C230 C228 1.419 . S
C230 C231 1.362 . S
C231 H221 0.930 . S
C231 C224 1.409 . S
C231 C230 1.362 . S
H232 C238 0.930 1_655 S
H233 C241 0.930 . S
H234 C242 0.930 . S
H235 C243 0.930 . S
H236 C246 0.930 . S
H237 C247 0.930 . S
C238 H232 0.930 1_455 S
C238 C239 1.355 . S
C238 C240 1.415 . S
C239 C238 1.355 . S
C239 C241 1.419 . S
C240 C238 1.415 . S
C240 C245 1.425 . S
C240 C247 1.409 1_455 S
C241 H233 0.930 . S
C241 C239 1.419 . S
C241 C242 1.362 . S
C242 H234 0.930 . S
C242 C241 1.362 . S
C242 C245 1.409 . S
C243 H235 0.930 . S
C243 C244 1.346 1_455 S
C243 C245 1.415 . S
C244 C243 1.346 1_655 S
C244 C246 1.427 . S
C245 C240 1.425 . S
C245 C242 1.409 . S
C245 C243 1.415 . S
C246 H236 0.930 . S
C246 C244 1.427 . S
C246 C247 1.362 . S
C247 H237 0.930 . S
C247 C240 1.409 1_655 S
C247 C246 1.362 . S
H248 C254 0.930 1_565 S
H249 C257 0.930 . S
H250 C258 0.930 . S
H251 C259 0.930 . S
H252 C262 0.930 . S
H253 C263 0.930 . S
C254 H248 0.930 1_545 S
C254 C255 1.355 . S
C254 C256 1.415 . S
C255 C254 1.355 . S
C255 C257 1.419 . S
C256 C254 1.415 . S
C256 C261 1.425 . S
C256 C263 1.409 1_545 S
C257 H249 0.930 . S
C257 C255 1.419 . S
C257 C258 1.362 . S
C258 H250 0.930 . S
C258 C257 1.362 . S
C258 C261 1.409 . S
C259 H251 0.930 . S
C259 C260 1.355 . S
C259 C261 1.415 . S
C260 C259 1.355 . S
C260 C262 1.419 1_545 S
C261 C256 1.425 . S
C261 C258 1.409 . S
C261 C259 1.415 . S
C262 H252 0.930 . S
C262 C260 1.419 1_565 S
C262 C263 1.362 . S
C263 H253 0.930 . S
C263 C256 1.409 1_565 S
C263 C262 1.362 . S
H264 C270 0.930 . S
H265 C273 0.930 . S
H266 C274 0.930 . S
H267 C275 0.930 . S
H268 C278 0.930 . S
H269 C279 0.930 . S
C270 H264 0.930 . S
C270 C271 1.355 . S
C270 C272 1.415 . S
C271 C270 1.355 . S
C271 C273 1.419 1_455 S
C272 C270 1.415 . S
C272 C277 1.425 1_455 S
C272 C279 1.409 . S
C273 H265 0.930 . S
C273 C271 1.419 1_655 S
C273 C274 1.362 . S
C274 H266 0.930 . S
C274 C273 1.362 . S
C274 C277 1.409 . S
C275 H267 0.930 . S
C275 C276 1.356 . S
C275 C277 1.415 . S
C276 C275 1.356 . S
C276 C278 1.418 1_655 S
C277 C272 1.425 1_655 S
C277 C274 1.409 . S
C277 C275 1.415 . S
C278 H268 0.930 . S
C278 C276 1.418 1_455 S
C278 C279 1.362 . S
C279 H269 0.930 . S
C279 C272 1.409 . S
C279 C278 1.362 . S
H280 C286 0.930 . S
H281 C289 0.930 . S
H282 C290 0.930 . S
H283 C291 0.930 . S
H284 C294 0.930 . S
H285 C295 0.930 . S
C286 H280 0.930 . S
C286 C287 1.355 . S
C286 C288 1.415 . S
C287 C286 1.355 . S
C287 C289 1.419 1_545 S
C288 C286 1.415 . S
C288 C293 1.434 . S
C288 C295 1.409 . S
C289 H281 0.930 . S
C289 C287 1.419 1_565 S
C289 C290 1.362 . S
C290 H282 0.930 . S
C290 C289 1.362 . S
C290 C293 1.400 1_565 S
C291 H283 0.930 . S
C291 C292 1.354 1_565 S
C291 C293 1.415 1_565 S
C292 C291 1.354 1_545 S
C292 C294 1.419 . S
C293 C288 1.434 . S
C293 C290 1.400 1_545 S
C293 C291 1.415 1_545 S
C294 H284 0.930 . S
C294 C292 1.419 . S
C294 C295 1.362 . S
C295 H285 0.930 . S
C295 C288 1.409 . S
C295 C294 1.362 . S
H296 C302 0.930 . S
H297 C305 0.930 . S
H298 C306 0.930 . S
H299 C307 0.930 . S
H300 C310 0.930 . S
H301 C311 0.930 . S
C302 H296 0.930 . S
C302 C303 1.355 . S
C302 C304 1.415 . S
C303 C302 1.355 . S
C303 C305 1.419 . S
C304 C302 1.415 . S
C304 C309 1.425 . S
C304 C311 1.409 1_554 S
C305 H297 0.930 . S
C305 C303 1.419 . S
C305 C306 1.362 . S
C306 H298 0.930 . S
C306 C305 1.362 . S
C306 C309 1.409 . S
C307 H299 0.930 . S
C307 C308 1.355 1_554 S
C307 C309 1.415 . S
C308 C307 1.355 1_556 S
C308 C310 1.419 . S
C309 C304 1.425 . S
C309 C306 1.409 . S
C309 C307 1.415 . S
C310 H300 0.930 . S
C310 C308 1.419 . S
C310 C311 1.362 . S
C311 H301 0.930 . S
C311 C304 1.409 1_556 S
C311 C310 1.362 . S
H312 C318 0.930 1_556 S
H313 C321 0.930 . S
H314 C322 0.930 . S
H315 C323 0.930 . S
H316 C326 0.930 . S
H317 C327 0.930 . S
C318 H312 0.930 1_554 S
C318 C319 1.355 . S
C318 C320 1.415 . S
C319 C318 1.355 . S
C319 C321 1.419 . S
C320 C318 1.415 . S
C320 C325 1.425 . S
C320 C327 1.409 1_554 S
C321 H313 0.930 . S
C321 C319 1.419 . S
C321 C322 1.362 . S
C322 H314 0.930 . S
C322 C321 1.362 . S
C322 C325 1.409 . S
C323 H315 0.930 . S
C323 C324 1.355 . S
C323 C325 1.415 . S
C324 C323 1.355 . S
C324 C326 1.419 1_554 S
C325 C320 1.425 . S
C325 C322 1.409 . S
C325 C323 1.415 . S
C326 H316 0.930 . S
C326 C324 1.419 1_556 S
C326 C327 1.362 . S
C327 H317 0.930 . S
C327 C320 1.409 1_556 S
C327 C326 1.362 . S
H328 C334 0.930 . S
H329 C337 0.930 . S
H330 C338 0.930 . S
H331 C339 0.930 . S
H332 C342 0.930 . S
H333 C343 0.930 . S
C334 H328 0.930 . S
C334 C335 1.354 1_556 S
C334 C336 1.415 1_556 S
C335 C334 1.354 1_554 S
C335 C337 1.420 . S
C336 C334 1.415 1_554 S
C336 C341 1.425 . S
C336 C343 1.409 1_554 S
C337 H329 0.930 . S
C337 C335 1.420 . S
C337 C338 1.362 . S
C338 H330 0.930 . S
C338 C337 1.362 . S
C338 C341 1.409 . S
C339 H331 0.930 . S
C339 C340 1.355 . S
C339 C341 1.415 . S
C340 C339 1.355 . S
C340 C342 1.419 . S
C341 C336 1.425 . S
C341 C338 1.409 . S
C341 C339 1.415 . S
C342 H332 0.930 . S
C342 C340 1.419 . S
C342 C343 1.362 1_554 S
C343 H333 0.930 . S
C343 C336 1.409 1_556 S
C343 C342 1.362 1_556 S
H344 C350 0.930 1_556 S
H345 C353 0.930 . S
H346 C354 0.930 . S
H347 C355 0.930 . S
H348 C358 0.930 . S
H349 C359 0.930 1_556 S
C350 H344 0.930 1_554 S
C350 C351 1.355 . S
C350 C352 1.415 . S
C351 C350 1.355 . S
C351 C353 1.419 . S
C352 C350 1.415 . S
C352 C357 1.425 . S
C352 C359 1.409 . S
C353 H345 0.930 . S
C353 C351 1.419 . S
C353 C354 1.362 . S
C354 H346 0.930 . S
C354 C353 1.362 . S
C354 C357 1.409 . S
C355 H347 0.930 . S
C355 C356 1.355 . S
C355 C357 1.415 . S
C356 C355 1.355 . S
C356 C358 1.419 . S
C357 C352 1.425 . S
C357 C354 1.409 . S
C357 C355 1.415 . S
C358 H348 0.930 . S
C358 C356 1.419 . S
C358 C359 1.362 . S
C359 H349 0.930 1_554 S
C359 C352 1.409 . S
C359 C358 1.362 . S
H360 C366 0.930 . S
H361 C369 0.930 . S
H362 C370 0.930 . S
H363 C371 0.930 . S
H364 C374 0.930 . S
H365 C375 0.930 . S
C366 H360 0.930 . S
C366 C367 1.355 . S
C366 C368 1.415 . S
C367 C366 1.355 . S
C367 C369 1.419 . S
C368 C366 1.415 . S
C368 C373 1.425 . S
C368 C375 1.409 . S
C369 H361 0.930 . S
C369 C367 1.419 . S
C369 C370 1.362 . S
C370 H362 0.930 . S
C370 C369 1.362 . S
C370 C373 1.409 . S
C371 H363 0.930 . S
C371 C372 1.355 . S
C371 C373 1.415 . S
C372 C371 1.355 . S
C372 C374 1.419 . S
C373 C368 1.425 . S
C373 C370 1.409 . S
C373 C371 1.415 . S
C374 H364 0.930 . S
C374 C372 1.419 . S
C374 C375 1.362 . S
C375 H365 0.930 . S
C375 C368 1.409 . S
C375 C374 1.362 . S
H376 C382 0.930 . S
H377 C385 0.930 . S
H378 C386 0.930 . S
H379 C387 0.930 . S
H380 C390 0.930 . S
H381 C391 0.930 . S
C382 H376 0.930 . S
C382 C383 1.355 . S
C382 C384 1.415 . S
C383 C382 1.355 . S
C383 C385 1.419 . S
C384 C382 1.415 . S
C384 C389 1.425 . S
C384 C391 1.409 . S
C385 H377 0.930 . S
C385 C383 1.419 . S
C385 C386 1.362 . S
C386 H378 0.930 . S
C386 C385 1.362 . S
C386 C389 1.409 . S
C387 H379 0.930 . S
C387 C388 1.355 . S
C387 C389 1.415 . S
C388 C387 1.355 . S
C388 C390 1.419 . S
C389 C384 1.425 . S
C389 C386 1.409 . S
C389 C387 1.415 . S
C390 H380 0.930 . S
C390 C388 1.419 . S
C390 C391 1.362 . S
C391 H381 0.930 . S
C391 C384 1.409 . S
C391 C390 1.362 . S
H392 C398 0.930 . S
H393 C401 0.930 . S
H394 C402 0.930 . S
H395 C403 0.930 . S
H396 C406 0.930 . S
H397 C407 0.930 . S
C398 H392 0.930 . S
C398 C399 1.355 . S
C398 C400 1.415 . S
C399 C398 1.355 . S
C399 C401 1.419 . S
C400 C398 1.415 . S
C400 C405 1.425 . S
C400 C407 1.409 . S
C401 H393 0.930 . S
C401 C399 1.419 . S
C401 C402 1.362 . S
C402 H394 0.930 . S
C402 C401 1.362 . S
C402 C405 1.409 . S
C403 H395 0.930 . S
C403 C404 1.355 . S
C403 C405 1.415 . S
C404 C403 1.355 . S
C404 C406 1.419 . S
C405 C400 1.425 . S
C405 C402 1.409 . S
C405 C403 1.415 . S
C406 H396 0.930 . S
C406 C404 1.419 . S
C406 C407 1.362 . S
C407 H397 0.930 . S
C407 C400 1.409 . S
C407 C406 1.362 . S
H408 C414 0.930 . S
H409 C417 0.930 . S
H410 C418 0.930 . S
H411 C419 0.930 . S
H412 C422 0.930 . S
H413 C423 0.930 . S
C414 H408 0.930 . S
C414 C415 1.355 . S
C414 C416 1.415 . S
C415 C414 1.355 . S
C415 C417 1.419 . S
C416 C414 1.415 . S
C416 C421 1.425 . S
C416 C423 1.409 . S
C417 H409 0.930 . S
C417 C415 1.419 . S
C417 C418 1.362 . S
C418 H410 0.930 . S
C418 C417 1.362 . S
C418 C421 1.409 . S
C419 H411 0.930 . S
C419 C420 1.355 . S
C419 C421 1.415 . S
C420 C419 1.355 . S
C420 C422 1.419 . S
C421 C416 1.425 . S
C421 C418 1.409 . S
C421 C419 1.415 . S
C422 H412 0.930 . S
C422 C420 1.419 . S
C422 C423 1.362 . S
C423 H413 0.930 . S
C423 C416 1.409 . S
C423 C422 1.362 . S
H424 C430 0.930 . S
H425 C433 0.930 . S
H426 C434 0.930 . S
H427 C435 0.930 . S
H428 C438 0.930 . S
H429 C439 0.930 . S
C430 H424 0.930 . S
C430 C431 1.355 . S
C430 C432 1.415 . S
C431 C430 1.355 . S
C431 C433 1.419 . S
C432 C430 1.415 . S
C432 C437 1.425 . S
C432 C439 1.409 . S
C433 H425 0.930 . S
C433 C431 1.419 . S
C433 C434 1.362 . S
C434 H426 0.930 . S
C434 C433 1.362 . S
C434 C437 1.409 . S
C435 H427 0.930 . S
C435 C436 1.355 . S
C435 C437 1.415 . S
C436 C435 1.355 . S
C436 C438 1.419 . S
C437 C432 1.425 . S
C437 C434 1.409 . S
C437 C435 1.415 . S
C438 H428 0.930 . S
C438 C436 1.419 . S
C438 C439 1.362 . S
C439 H429 0.930 . S
C439 C432 1.409 . S
C439 C438 1.362 . S
H440 C446 0.930 . S
H441 C449 0.930 . S
H442 C450 0.930 . S
H443 C451 0.930 . S
H444 C454 0.930 . S
H445 C455 0.930 . S
C446 H440 0.930 . S
C446 C447 1.355 . S
C446 C448 1.415 . S
C447 C446 1.355 . S
C447 C449 1.419 . S
C448 C446 1.415 . S
C448 C453 1.425 . S
C448 C455 1.409 . S
C449 H441 0.930 . S
C449 C447 1.419 . S
C449 C450 1.362 . S
C450 H442 0.930 . S
C450 C449 1.362 . S
C450 C453 1.409 . S
C451 H443 0.930 . S
C451 C452 1.355 . S
C451 C453 1.415 . S
C452 C451 1.355 . S
C452 C454 1.419 . S
C453 C448 1.425 . S
C453 C450 1.409 . S
C453 C451 1.415 . S
C454 H444 0.930 . S
C454 C452 1.419 . S
C454 C455 1.362 . S
C455 H445 0.930 . S
C455 C448 1.409 . S
C455 C454 1.362 . S
H456 C462 0.930 . S
H457 C465 0.930 . S
H458 C466 0.930 . S
H459 C467 0.930 . S
H460 C470 0.930 . S
H461 C471 0.930 . S
C462 H456 0.930 . S
C462 C463 1.355 . S
C462 C464 1.415 . S
C463 C462 1.355 . S
C463 C465 1.419 . S
C464 C462 1.415 . S
C464 C469 1.425 . S
C464 C471 1.409 . S
C465 H457 0.930 . S
C465 C463 1.419 . S
C465 C466 1.362 . S
C466 H458 0.930 . S
C466 C465 1.362 . S
C466 C469 1.409 . S
C467 H459 0.930 . S
C467 C468 1.355 . S
C467 C469 1.415 . S
C468 C467 1.355 . S
C468 C470 1.419 . S
C469 C464 1.425 . S
C469 C466 1.409 . S
C469 C467 1.415 . S
C470 H460 0.930 . S
C470 C468 1.419 . S
C470 C471 1.362 . S
C471 H461 0.930 . S
C471 C464 1.409 . S
C471 C470 1.362 . S
H472 C478 0.930 . S
H473 C481 0.930 . S
H474 C482 0.930 . S
H475 C483 0.930 . S
H476 C486 0.930 . S
H477 C487 0.930 . S
C478 H472 0.930 . S
C478 C479 1.355 . S
C478 C480 1.415 . S
C479 C478 1.355 . S
C479 C481 1.419 . S
C480 C478 1.415 . S
C480 C485 1.425 . S
C480 C487 1.409 . S
C481 H473 0.930 . S
C481 C479 1.419 . S
C481 C482 1.362 . S
C482 H474 0.930 . S
C482 C481 1.362 . S
C482 C485 1.409 . S
C483 H475 0.930 . S
C483 C484 1.355 . S
C483 C485 1.415 . S
C484 C483 1.355 . S
C484 C486 1.419 . S
C485 C480 1.425 . S
C485 C482 1.409 . S
C485 C483 1.415 . S
C486 H476 0.930 . S
C486 C484 1.419 . S
C486 C487 1.362 . S
C487 H477 0.930 . S
C487 C480 1.409 . S
C487 C486 1.362 . S
H488 C494 0.930 . S
H489 C497 0.930 . S
H490 C498 0.930 . S
H491 C499 0.930 . S
H492 C502 0.930 . S
H493 C503 0.930 . S
C494 H488 0.930 . S
C494 C495 1.355 . S
C494 C496 1.415 . S
C495 C494 1.355 . S
C495 C497 1.419 . S
C496 C494 1.415 . S
C496 C501 1.425 . S
C496 C503 1.409 . S
C497 H489 0.930 . S
C497 C495 1.419 . S
C497 C498 1.362 . S
C498 H490 0.930 . S
C498 C497 1.362 . S
C498 C501 1.409 . S
C499 H491 0.930 . S
C499 C500 1.355 . S
C499 C501 1.415 . S
C500 C499 1.355 . S
C500 C502 1.419 . S
C501 C496 1.425 . S
C501 C498 1.409 . S
C501 C499 1.415 . S
C502 H492 0.930 . S
C502 C500 1.419 . S
C502 C503 1.362 . S
C503 H493 0.930 . S
C503 C496 1.409 . S
C503 C502 1.362 . S
H504 C510 0.930 . S
H505 C513 0.930 . S
H506 C514 0.930 . S
H507 C515 0.930 . S
H508 C518 0.930 . S
H509 C519 0.930 . S
C510 H504 0.930 . S
C510 C511 1.355 . S
C510 C512 1.415 . S
C511 C510 1.355 . S
C511 C513 1.419 . S
C512 C510 1.415 . S
C512 C517 1.425 . S
C512 C519 1.409 . S
C513 H505 0.930 . S
C513 C511 1.419 . S
C513 C514 1.362 . S
C514 H506 0.930 . S
C514 C513 1.362 . S
C514 C517 1.409 . S
C515 H507 0.930 . S
C515 C516 1.355 . S
C515 C517 1.415 . S
C516 C515 1.355 . S
C516 C518 1.419 . S
C517 C512 1.425 . S
C517 C514 1.409 . S
C517 C515 1.415 . S
C518 H508 0.930 . S
C518 C516 1.419 . S
C518 C519 1.362 . S
C519 H509 0.930 . S
C519 C512 1.409 . S
C519 C518 1.362 . S
H520 C526 0.930 . S
H521 C529 0.930 . S
H522 C530 0.930 . S
H523 C531 0.930 . S
H524 C534 0.930 . S
H525 C535 0.930 . S
C526 H520 0.930 . S
C526 C527 1.355 . S
C526 C528 1.415 . S
C527 C526 1.355 . S
C527 C529 1.419 . S
C528 C526 1.415 . S
C528 C533 1.425 . S
C528 C535 1.409 . S
C529 H521 0.930 . S
C529 C527 1.419 . S
C529 C530 1.362 . S
C530 H522 0.930 . S
C530 C529 1.362 . S
C530 C533 1.409 . S
C531 H523 0.930 . S
C531 C532 1.355 . S
C531 C533 1.415 . S
C532 C531 1.355 . S
C532 C534 1.419 . S
C533 C528 1.425 . S
C533 C530 1.409 . S
C533 C531 1.415 . S
C534 H524 0.930 . S
C534 C532 1.419 . S
C534 C535 1.362 . S
C535 H525 0.930 . S
C535 C528 1.409 . S
C535 C534 1.362 . S
H536 C542 0.930 . S
H537 C545 0.930 . S
H538 C546 0.930 . S
H539 C547 0.930 . S
H540 C550 0.930 . S
H541 C551 0.930 . S
C542 H536 0.930 . S
C542 C543 1.355 . S
C542 C544 1.415 . S
C543 C542 1.355 . S
C543 C545 1.419 . S
C544 C542 1.415 . S
C544 C549 1.425 . S
C544 C551 1.409 . S
C545 H537 0.930 . S
C545 C543 1.419 . S
C545 C546 1.362 . S
C546 H538 0.930 . S
C546 C545 1.362 . S
C546 C549 1.409 . S
C547 H539 0.930 . S
C547 C548 1.355 . S
C547 C549 1.415 . S
C548 C547 1.355 . S
C548 C550 1.419 . S
C549 C544 1.425 . S
C549 C546 1.409 . S
C549 C547 1.415 . S
C550 H540 0.930 . S
C550 C548 1.419 . S
C550 C551 1.362 . S
C551 H541 0.930 . S
C551 C544 1.409 . S
C551 C550 1.362 . S
C175 C8 1.504 . S
C180 C78 1.507 . S
C191 C17 1.538 1_545 S
C196 C59 1.548 . S
C207 C77 1.361 . S
C212 C35 1.387 . S
C223 C45 1.449 . S
C228 C65 1.468 1_545 S
C239 C106 1.527 . S
C244 C36 1.525 1_655 S
C255 C93 1.386 . S
C260 C51 1.416 . S
C271 C7 1.398 . S
C276 C105 1.423 . S
C287 C87 1.506 . S
C292 C23 1.505 . S
C303 C129 1.540 . S
C308 C120 1.529 1_556 S
C319 C119 1.500 . S
C324 C157 1.516 . S
C335 C135 1.424 1_554 S
C340 C147 1.404 . S
C351 C148 1.423 . S
C356 C163 1.454 . S
C367 C162 1.503 . S
C372 C92 1.506 . S
C383 C115 1.541 . S
C388 C101 1.553 . S
C399 C91 1.371 . S
C404 C133 1.413 . S
C415 C107 1.471 . S
C420 C143 1.451 . S
C431 C64 1.534 . S
C436 C134 1.537 . S
C447 C79 1.378 . S
C452 C149 1.412 . S
C463 C161 1.422 . S
C468 C63 1.397 . S
C479 C121 1.476 . S
C484 C73 1.498 . S
C495 C22 1.553 . S
C500 C31 1.561 . S
C511 C3 1.493 . S
C516 C21 1.444 . S
C527 C37 1.388 . S
C532 C49 1.355 . S
C543 C9 1.464 . S
C548 C50 1.441 . S
