# Generated by pormake.
# Topology yfh, (5)-cn, num edge types: 1
# Building blocks:
#     Node 0, Type 0, BuildingBlock: XOMCOT_clean_sbu_0, # of connection points: 5
#     Node 1, Type 0, BuildingBlock: XOMCOT_clean_sbu_0, # of connection points: 5
#     Node 2, Type 0, BuildingBlock: XOMCOT_clean_sbu_0, # of connection points: 5
#     Node 3, Type 0, BuildingBlock: XOMCOT_clean_sbu_0, # of connection points: 5
#     Node 4, Type 0, BuildingBlock: XOMCOT_clean_sbu_0, # of connection points: 5
#     Node 5, Type 0, BuildingBlock: XOMCOT_clean_sbu_0, # of connection points: 5
#     Node 6, Type 0, BuildingBlock: XOMCOT_clean_sbu_0, # of connection points: 5
#     Node 7, Type 0, BuildingBlock: XOMCOT_clean_sbu_0, # of connection points: 5
#     Edge 8, Type (0, 0), BuildingBlock: UVAHIK_clean_linker_0, # of connection points: 2
#     Edge 9, Type (0, 0), BuildingBlock: UVAHIK_clean_linker_0, # of connection points: 2
#     Edge 10, Type (0, 0), BuildingBlock: UVAHIK_clean_linker_0, # of connection points: 2
#     Edge 11, Type (0, 0), BuildingBlock: UVAHIK_clean_linker_0, # of connection points: 2
#     Edge 12, Type (0, 0), BuildingBlock: UVAHIK_clean_linker_0, # of connection points: 2
#     Edge 13, Type (0, 0), BuildingBlock: UVAHIK_clean_linker_0, # of connection points: 2
#     Edge 14, Type (0, 0), BuildingBlock: UVAHIK_clean_linker_0, # of connection points: 2
#     Edge 15, Type (0, 0), BuildingBlock: UVAHIK_clean_linker_0, # of connection points: 2
#     Edge 16, Type (0, 0), BuildingBlock: UVAHIK_clean_linker_0, # of connection points: 2
#     Edge 17, Type (0, 0), BuildingBlock: UVAHIK_clean_linker_0, # of connection points: 2
#     Edge 18, Type (0, 0), BuildingBlock: UVAHIK_clean_linker_0, # of connection points: 2
#     Edge 19, Type (0, 0), BuildingBlock: UVAHIK_clean_linker_0, # of connection points: 2
#     Edge 20, Type (0, 0), BuildingBlock: UVAHIK_clean_linker_0, # of connection points: 2
#     Edge 21, Type (0, 0), BuildingBlock: UVAHIK_clean_linker_0, # of connection points: 2
#     Edge 22, Type (0, 0), BuildingBlock: UVAHIK_clean_linker_0, # of connection points: 2
#     Edge 23, Type (0, 0), BuildingBlock: UVAHIK_clean_linker_0, # of connection points: 2
#     Edge 24, Type (0, 0), BuildingBlock: UVAHIK_clean_linker_0, # of connection points: 2
#     Edge 25, Type (0, 0), BuildingBlock: UVAHIK_clean_linker_0, # of connection points: 2
#     Edge 26, Type (0, 0), BuildingBlock: UVAHIK_clean_linker_0, # of connection points: 2
#     Edge 27, Type (0, 0), BuildingBlock: UVAHIK_clean_linker_0, # of connection points: 2
# Relax obj value: 0.358
# Max RMSD: 0.264
# Mean RMSD: 0.264
data_MOF--net-yfh--node1-XOMCOT_clean_sbu_0--edge1-UVAHIK_clean_linker_0
_symmetry_space_group_name_H-M    P1
_symmetry_Int_Tables_number       1
_symmetry_cell_setting            triclinic
loop_
_symmetry_equiv_pos_as_xyz
'x, y, z'
_cell_length_a     35.580259
_cell_length_b     35.645863
_cell_length_c     73.384622
_cell_angle_alpha  89.961064
_cell_angle_beta   89.926943
_cell_angle_gamma 90.056205
loop_
_atom_site_label
_atom_site_type_symbol
_atom_site_fract_x
_atom_site_fract_y
_atom_site_fract_z
_atom_type_partial_charge
Co0 Co 0.35569 0.18726 0.13121 0.0
C1 C 0.3348 0.20906 0.0929 0.0
C2 C 0.29037 0.18161 0.10748 0.0
C3 C 0.27789 0.18933 0.09018 0.0
N4 N 0.32644 0.193 0.10906 0.0
N5 N 0.30591 0.20658 0.08114 0.0
H6 H 0.36113 0.22195 0.08941 0.0
H7 H 0.27445 0.16793 0.11815 0.0
C8 C 0.33697 0.1111 0.11827 0.0
O9 O 0.34951 0.12341 0.1025 0.0
N10 N 0.3832 0.1823 0.1536 0.0
C11 C 0.41566 0.19982 0.15766 0.0
C12 C 0.42521 0.19125 0.17532 0.0
C13 C 0.37329 0.16332 0.16873 0.0
N14 N 0.39855 0.16838 0.18226 0.0
C15 C 0.41879 0.20047 0.10761 0.0
C16 C 0.44855 0.129 0.10922 0.0
C17 C 0.46221 0.15429 0.09623 0.0
C18 C 0.44829 0.1909 0.09603 0.0
C19 C 0.41859 0.13978 0.12043 0.0
N20 N 0.4016 0.17391 0.11811 0.0
H21 H 0.40893 0.22906 0.10761 0.0
H22 H 0.40813 0.12011 0.13043 0.0
H23 H 0.43103 0.21797 0.14847 0.0
H24 H 0.34767 0.14711 0.16996 0.0
O25 O 0.36304 0.24072 0.13203 0.0
O26 O 0.31409 0.21117 0.14398 0.0
O27 O 0.33872 0.13249 0.13235 0.0
C28 C 0.33079 0.24286 0.14022 0.0
H29 H 0.25045 0.18282 0.08466 0.0
H30 H 0.44993 0.201 0.18248 0.0
H31 H 0.45973 0.10081 0.11014 0.0
H32 H 0.45944 0.21161 0.08665 0.0
Co33 Co 0.33207 0.86059 0.37551 0.0
C34 C 0.30326 0.8477 0.33791 0.0
C35 C 0.34847 0.81072 0.34477 0.0
C36 C 0.33607 0.80164 0.32764 0.0
N37 N 0.32904 0.8407 0.35095 0.0
N38 N 0.30766 0.8249 0.32347 0.0
H39 H 0.28037 0.86731 0.33915 0.0
H40 H 0.36915 0.79524 0.35249 0.0
C41 C 0.41181 0.85427 0.3636 0.0
O42 O 0.40131 0.87267 0.34893 0.0
N43 N 0.33467 0.8789 0.4001 0.0
C44 C 0.31441 0.90718 0.40725 0.0
C45 C 0.32432 0.91136 0.42526 0.0
C46 C 0.35657 0.86618 0.4137 0.0
N47 N 0.35086 0.8856 0.42926 0.0
C48 C 0.31719 0.92923 0.3565 0.0
C49 C 0.38555 0.96322 0.3632 0.0
C50 C 0.36128 0.9791 0.35028 0.0
C51 C 0.32585 0.9628 0.34778 0.0
C52 C 0.37528 0.92978 0.37191 0.0
N53 N 0.34322 0.91123 0.36693 0.0
H54 H 0.28966 0.9175 0.35456 0.0
H55 H 0.39417 0.91771 0.38183 0.0
H56 H 0.29404 0.92371 0.39984 0.0
H57 H 0.37591 0.84295 0.41228 0.0
O58 O 0.27823 0.86485 0.37631 0.0
O59 O 0.30979 0.81365 0.38391 0.0
O60 O 0.3877 0.84675 0.37613 0.0
C61 C 0.27738 0.8301 0.38153 0.0
H62 H 0.34563 0.77846 0.31932 0.0
H63 H 0.31336 0.93218 0.43457 0.0
H64 H 0.41261 0.97581 0.36609 0.0
H65 H 0.30566 0.97465 0.33836 0.0
Co66 Co 0.66201 0.81861 0.63482 0.0
C67 C 0.68786 0.79642 0.59829 0.0
C68 C 0.72588 0.83522 0.61102 0.0
C69 C 0.74062 0.82489 0.59446 0.0
N70 N 0.69281 0.8175 0.6133 0.0
N71 N 0.71677 0.80037 0.58653 0.0
H72 H 0.66421 0.77774 0.59636 0.0
H73 H 0.73882 0.85368 0.62087 0.0
C74 C 0.65795 0.90178 0.64032 0.0
O75 O 0.62136 0.89829 0.64219 0.0
N76 N 0.63242 0.81917 0.6572 0.0
C77 C 0.60875 0.79235 0.66345 0.0
C78 C 0.5971 0.80158 0.68078 0.0
C79 C 0.63613 0.84323 0.67129 0.0
N80 N 0.61418 0.83377 0.68555 0.0
C81 C 0.58674 0.81483 0.62047 0.0
C82 C 0.59703 0.86876 0.59384 0.0
C83 C 0.56337 0.8483 0.59409 0.0
C84 C 0.55814 0.82158 0.60789 0.0
C85 C 0.62477 0.86132 0.60675 0.0
N86 N 0.61954 0.83466 0.61994 0.0
H87 H 0.58308 0.79214 0.62993 0.0
H88 H 0.65129 0.87593 0.60557 0.0
H89 H 0.60136 0.76688 0.65632 0.0
H90 H 0.65586 0.86624 0.67164 0.0
O91 O 0.65445 0.76547 0.63268 0.0
O92 O 0.70188 0.7919 0.6475 0.0
O93 O 0.67852 0.87251 0.63868 0.0
C94 C 0.68551 0.76133 0.64171 0.0
H95 H 0.76698 0.8346 0.58879 0.0
H96 H 0.57783 0.78574 0.68924 0.0
H97 H 0.60288 0.88896 0.58318 0.0
H98 H 0.53265 0.80502 0.60862 0.0
Co99 Co 0.67463 0.1611 0.88218 0.0
C100 C 0.69231 0.18905 0.84542 0.0
C101 C 0.65685 0.2272 0.86016 0.0
C102 C 0.66542 0.24291 0.84356 0.0
N103 N 0.67359 0.19345 0.86121 0.0
N104 N 0.68792 0.219 0.83436 0.0
H105 H 0.70994 0.16509 0.84247 0.0
H106 H 0.6405 0.24002 0.87089 0.0
C107 C 0.59335 0.16008 0.89243 0.0
O108 O 0.59665 0.1237 0.89493 0.0
N109 N 0.67629 0.13 0.90398 0.0
C110 C 0.69932 0.10092 0.90784 0.0
C111 C 0.69407 0.0903 0.92571 0.0
C112 C 0.65925 0.138 0.91997 0.0
N113 N 0.6689 0.11375 0.93327 0.0
C114 C 0.67238 0.08819 0.86516 0.0
C115 C 0.60988 0.10195 0.84388 0.0
C116 C 0.62876 0.06775 0.84195 0.0
C117 C 0.66019 0.06087 0.8529 0.0
C118 C 0.62286 0.12837 0.8564 0.0
N119 N 0.65327 0.12108 0.86725 0.0
H120 H 0.69856 0.08363 0.87202 0.0
H121 H 0.6092 0.1554 0.8568 0.0
H122 H 0.72058 0.0896 0.89894 0.0
H123 H 0.64066 0.16161 0.92197 0.0
O124 O 0.72684 0.1511 0.87761 0.0
O125 O 0.70578 0.19816 0.89447 0.0
O126 O 0.62254 0.17973 0.88875 0.0
C127 C 0.73435 0.18096 0.88705 0.0
H128 H 0.6561 0.27008 0.8388 0.0
H129 H 0.709 0.06829 0.93283 0.0
H130 H 0.58587 0.10869 0.83544 0.0
H131 H 0.67657 0.03549 0.85126 0.0
Co132 Co 0.84177 0.32095 0.60478 0.0
C133 C 0.81916 0.30571 0.6427 0.0
C134 C 0.77919 0.34079 0.62886 0.0
C135 C 0.76725 0.33573 0.64651 0.0
N136 N 0.8119 0.32237 0.62662 0.0
N137 N 0.79241 0.3137 0.65511 0.0
H138 H 0.8439 0.28893 0.64536 0.0
H139 H 0.76503 0.3568 0.61841 0.0
C140 C 0.84462 0.40327 0.59656 0.0
O141 O 0.88105 0.3999 0.59404 0.0
N142 N 0.87048 0.31884 0.58215 0.0
C143 C 0.89482 0.29195 0.57673 0.0
C144 C 0.9059 0.29903 0.55908 0.0
C145 C 0.86563 0.34054 0.56726 0.0
N146 N 0.88766 0.3298 0.55322 0.0
C147 C 0.91782 0.3205 0.61846 0.0
C148 C 0.90799 0.3784 0.64302 0.0
C149 C 0.94218 0.3589 0.64299 0.0
C150 C 0.94711 0.33008 0.63021 0.0
C151 C 0.87965 0.36826 0.63087 0.0
N152 N 0.88466 0.33967 0.61867 0.0
H153 H 0.9214 0.29634 0.60993 0.0
H154 H 0.85292 0.38245 0.63189 0.0
H155 H 0.90311 0.26781 0.58467 0.0
H156 H 0.84515 0.36278 0.56631 0.0
O157 O 0.84992 0.26826 0.60853 0.0
O158 O 0.80179 0.29229 0.59329 0.0
O159 O 0.8245 0.37403 0.59939 0.0
C160 C 0.81872 0.26267 0.59978 0.0
H161 H 0.74186 0.34699 0.65253 0.0
H162 H 0.92568 0.28268 0.55119 0.0
H163 H 0.90224 0.4001 0.65295 0.0
H164 H 0.97296 0.31413 0.62963 0.0
Co165 Co 0.18394 0.34677 0.85517 0.0
C166 C 0.21588 0.31959 0.89044 0.0
C167 C 0.17198 0.28436 0.88027 0.0
C168 C 0.18646 0.26802 0.89564 0.0
N169 N 0.18947 0.31743 0.8773 0.0
N170 N 0.21416 0.2902 0.90201 0.0
H171 H 0.23781 0.34037 0.8909 0.0
H172 H 0.15096 0.27212 0.87145 0.0
C173 C 0.10633 0.33594 0.86888 0.0
O174 O 0.11972 0.34776 0.88455 0.0
N175 N 0.17882 0.3742 0.83278 0.0
C176 C 0.19923 0.40415 0.8275 0.0
C177 C 0.18801 0.41441 0.81025 0.0
C178 C 0.15545 0.36662 0.81885 0.0
N179 N 0.16047 0.39083 0.80491 0.0
C180 C 0.20181 0.40672 0.87964 0.0
C181 C 0.1335 0.44326 0.87781 0.0
C182 C 0.15913 0.45316 0.89147 0.0
C183 C 0.19446 0.43602 0.8916 0.0
C184 C 0.14219 0.41355 0.86605 0.0
N185 N 0.17444 0.39322 0.86845 0.0
H186 H 0.22949 0.3947 0.8796 0.0
H187 H 0.12206 0.40556 0.85574 0.0
H188 H 0.22089 0.41739 0.83558 0.0
H189 H 0.13585 0.34339 0.81876 0.0
O190 O 0.23754 0.35131 0.85339 0.0
O191 O 0.20472 0.30377 0.84221 0.0
O192 O 0.12812 0.33358 0.85495 0.0
C193 C 0.23751 0.31895 0.84536 0.0
H194 H 0.17752 0.2416 0.90148 0.0
H195 H 0.19901 0.43756 0.80231 0.0
H196 H 0.10637 0.45686 0.87686 0.0
H197 H 0.21587 0.44449 0.90126 0.0
Co198 Co 0.15777 0.68038 0.10683 0.0
C199 C 0.16778 0.69875 0.14525 0.0
C200 C 0.21247 0.6632 0.13579 0.0
C201 C 0.21842 0.67116 0.15393 0.0
N202 N 0.18061 0.68041 0.13052 0.0
N203 N 0.1903 0.69357 0.15974 0.0
H204 H 0.14239 0.71544 0.14534 0.0
H205 H 0.23034 0.64654 0.12705 0.0
C206 C 0.16176 0.59804 0.09846 0.0
O207 O 0.12613 0.5993 0.09378 0.0
N208 N 0.13548 0.68142 0.08259 0.0
C209 C 0.11117 0.70712 0.07595 0.0
C210 C 0.10447 0.69975 0.05786 0.0
C211 C 0.14468 0.66009 0.06806 0.0
N212 N 0.1254 0.66998 0.05296 0.0
C213 C 0.07894 0.6782 0.11634 0.0
C214 C 0.08551 0.62035 0.14122 0.0
C215 C 0.05131 0.63965 0.14007 0.0
C216 C 0.04797 0.66828 0.12705 0.0
C217 C 0.11556 0.63091 0.13018 0.0
N218 N 0.11232 0.65965 0.11791 0.0
H219 H 0.07649 0.70242 0.10773 0.0
H220 H 0.14231 0.61739 0.13242 0.0
H221 H 0.09977 0.73058 0.08342 0.0
H222 H 0.16604 0.6386 0.06823 0.0
O223 O 0.1466 0.73289 0.10984 0.0
O224 O 0.19939 0.71069 0.09798 0.0
O225 O 0.17909 0.6283 0.10269 0.0
C226 C 0.17985 0.73968 0.10327 0.0
H227 H 0.24217 0.66223 0.16205 0.0
H228 H 0.08554 0.71507 0.04906 0.0
H229 H 0.09005 0.59886 0.15141 0.0
H230 H 0.02216 0.68411 0.12568 0.0
Co231 Co 0.82996 0.65396 0.35773 0.0
C232 C 0.80669 0.67618 0.39569 0.0
C233 C 0.83895 0.7182 0.38178 0.0
C234 C 0.83032 0.73141 0.39884 0.0
N235 N 0.82515 0.68309 0.37995 0.0
N236 N 0.81004 0.70493 0.40746 0.0
H237 H 0.79112 0.65111 0.39877 0.0
H238 H 0.85458 0.73306 0.37138 0.0
C239 C 0.90713 0.66824 0.37082 0.0
O240 O 0.89372 0.65642 0.3865 0.0
N241 N 0.83422 0.62677 0.33525 0.0
C242 C 0.81426 0.59623 0.33043 0.0
C243 C 0.82358 0.5868 0.31281 0.0
C244 C 0.85546 0.63554 0.32067 0.0
N245 N 0.84947 0.61152 0.30675 0.0
C246 C 0.81418 0.59162 0.38125 0.0
C247 C 0.88433 0.55869 0.37954 0.0
C248 C 0.85863 0.5465 0.39275 0.0
C249 C 0.82248 0.56186 0.39282 0.0
C250 C 0.87471 0.58886 0.36823 0.0
N251 N 0.84144 0.60748 0.37068 0.0
H252 H 0.78596 0.60255 0.38124 0.0
H253 H 0.89474 0.59831 0.35815 0.0
H254 H 0.79398 0.58217 0.33905 0.0
H255 H 0.87403 0.65959 0.32007 0.0
O256 O 0.77637 0.64834 0.35695 0.0
O257 O 0.80712 0.69639 0.34502 0.0
O258 O 0.88555 0.66867 0.35676 0.0
C259 C 0.77491 0.68058 0.34883 0.0
H260 H 0.83803 0.75843 0.40444 0.0
H261 H 0.8123 0.56354 0.30507 0.0
H262 H 0.9121 0.54644 0.37858 0.0
H263 H 0.80115 0.55167 0.40215 0.0
C264 C 0.324 0.25095 0.05695 0.0
C265 C 0.30615 0.21761 0.06238 0.0
C266 C 0.32438 0.26144 0.03861 0.0
C267 C 0.29009 0.28445 0.00155 0.0
H268 H 0.31665 0.21278 0.96393 0.0
C269 C 0.24085 0.24749 0.92507 0.0
C270 C 0.23713 0.28377 0.91783 0.0
C271 C 0.25968 0.24176 0.94146 0.0
C272 C 0.3091 0.23311 0.97426 0.0
H273 H 0.27575 0.16858 0.05315 0.0
H274 H 0.27673 0.18666 0.021 0.0
H275 H 0.32917 0.19794 -0.00416 0.0
H276 H 0.25226 0.34226 0.92167 0.0
H277 H 0.28626 0.33203 0.94997 0.0
H278 H 0.26746 0.31849 0.98033 0.0
C279 C 0.29026 0.2047 0.03091 0.0
C280 C 0.31645 0.22466 0.99246 0.0
C281 C 0.28927 0.1946 0.04924 0.0
C282 C 0.25461 0.31392 0.92682 0.0
C283 C 0.2738 0.30812 0.94316 0.0
C284 C 0.2822 0.29268 0.98338 0.0
C285 C 0.30763 0.23827 0.02548 0.0
C286 C 0.30596 0.2498 0.00624 0.0
C287 C 0.27564 0.27212 0.95092 0.0
C288 C 0.29048 0.26653 0.96959 0.0
H289 H 0.33706 0.2691 0.06693 0.0
H290 H 0.33775 0.28754 0.03468 0.0
H291 H 0.28158 0.30412 0.01202 0.0
H292 H 0.22849 0.2235 0.91834 0.0
H293 H 0.26012 0.21368 0.9471 0.0
C294 C 0.17182 0.74735 0.17878 0.0
C295 C 0.18667 0.71096 0.17727 0.0
C296 C 0.17147 0.76565 0.19556 0.0
C297 C 0.18284 0.7524 0.24509 0.0
H298 H 0.24107 0.84439 0.24286 0.0
C299 C 0.24535 0.8232 0.30899 0.0
C300 C 0.2847 0.82303 0.30754 0.0
C301 C 0.2232 0.81741 0.29353 0.0
C302 C 0.22405 0.81921 0.24366 0.0
H303 H 0.21055 0.66428 0.19213 0.0
H304 H 0.21016 0.69631 0.22155 0.0
H305 H 0.21772 0.81625 0.21475 0.0
H306 H 0.33194 0.81879 0.28914 0.0
H307 H 0.29336 0.80953 0.26197 0.0
H308 H 0.19128 0.75428 0.27396 0.0
C309 C 0.19867 0.71061 0.20978 0.0
C310 C 0.21057 0.8032 0.22764 0.0
C311 C 0.1994 0.69248 0.19296 0.0
C312 C 0.30162 0.81885 0.29043 0.0
C313 C 0.27958 0.81392 0.27498 0.0
C314 C 0.19595 0.7687 0.26115 0.0
C315 C 0.18555 0.74767 0.21113 0.0
C316 C 0.19136 0.76877 0.22817 0.0
C317 C 0.24027 0.81238 0.27646 0.0
C318 C 0.21812 0.80126 0.26043 0.0
H319 H 0.16206 0.7623 0.16685 0.0
H320 H 0.1613 0.79425 0.19629 0.0
H321 H 0.16785 0.72597 0.2458 0.0
H322 H 0.23193 0.8261 0.32217 0.0
H323 H 0.19292 0.81602 0.29494 0.0
C324 C 0.81925 0.72154 0.43955 0.0
C325 C 0.79657 0.70623 0.42584 0.0
C326 C 0.80661 0.72251 0.4575 0.0
C327 C 0.77952 0.69935 0.49529 0.0
H328 H 0.69038 0.75868 0.5049 0.0
C329 C 0.69098 0.76783 0.55954 0.0
C330 C 0.72198 0.78127 0.56946 0.0
C331 C 0.69621 0.75033 0.5427 0.0
C332 C 0.71477 0.74121 0.5025 0.0
H333 H 0.74301 0.68013 0.41987 0.0
H334 H 0.72015 0.68294 0.45148 0.0
H335 H 0.70654 0.74219 0.47357 0.0
H336 H 0.78281 0.7855 0.56978 0.0
H337 H 0.79182 0.75654 0.54029 0.0
H338 H 0.78832 0.69875 0.52407 0.0
C339 C 0.74793 0.69356 0.44827 0.0
C340 C 0.72402 0.7319 0.48457 0.0
C341 C 0.76095 0.69191 0.43031 0.0
C342 C 0.75828 0.7761 0.56238 0.0
C343 C 0.76348 0.75882 0.54557 0.0
C344 C 0.77005 0.70819 0.5132 0.0
C345 C 0.77081 0.70873 0.46197 0.0
C346 C 0.75719 0.71213 0.48084 0.0
C347 C 0.73253 0.74597 0.53546 0.0
C348 C 0.73844 0.73054 0.51694 0.0
H349 H 0.84694 0.73237 0.43638 0.0
H350 H 0.82452 0.73474 0.46785 0.0
H351 H 0.80502 0.68365 0.49266 0.0
H352 H 0.66263 0.77158 0.56456 0.0
H353 H 0.67182 0.74052 0.53528 0.0
C354 C 0.80235 0.26539 0.67863 0.0
C355 C 0.79102 0.30175 0.67374 0.0
C356 C 0.79886 0.25319 0.69665 0.0
C357 C 0.75724 0.23155 0.732 0.0
H358 H 0.78783 0.29433 0.7725 0.0
C359 C 0.71057 0.26199 0.81035 0.0
C360 C 0.7056 0.22532 0.81696 0.0
C361 C 0.72736 0.26827 0.79347 0.0
C362 C 0.77896 0.27656 0.76134 0.0
H363 H 0.76883 0.35438 0.68374 0.0
H364 H 0.76311 0.3333 0.71529 0.0
H365 H 0.80634 0.31134 0.74155 0.0
H366 H 0.71473 0.16642 0.81094 0.0
H367 H 0.74503 0.17747 0.78163 0.0
H368 H 0.72807 0.19789 0.75155 0.0
C369 C 0.77447 0.31418 0.70522 0.0
C370 C 0.78975 0.2862 0.74368 0.0
C371 C 0.77736 0.32611 0.6872 0.0
C372 C 0.71837 0.19504 0.80635 0.0
C373 C 0.73542 0.20135 0.78947 0.0
C374 C 0.74605 0.22211 0.74965 0.0
C375 C 0.78472 0.27748 0.71005 0.0
C376 C 0.7782 0.26428 0.72884 0.0
C377 C 0.73994 0.23805 0.78281 0.0
C378 C 0.75595 0.24509 0.76446 0.0
H379 H 0.81279 0.24612 0.66842 0.0
H380 H 0.80692 0.22476 0.70011 0.0
H381 H 0.74775 0.21439 0.72072 0.0
H382 H 0.70168 0.28604 0.81822 0.0
H383 H 0.72976 0.29688 0.78864 0.0
C384 C 0.64615 0.14704 0.96062 0.0
C385 C 0.65544 0.11338 0.95177 0.0
C386 C 0.63117 0.14655 0.97822 0.0
C387 C 0.57416 0.08832 0.00784 0.0
H388 H 0.60266 0.15977 0.04524 0.0
C389 C 0.47436 0.1393 0.06386 0.0
C390 C 0.48798 0.14206 0.08171 0.0
C391 C 0.49848 0.12999 0.0496 0.0
C392 C 0.59478 0.13929 0.03503 0.0
H393 H 0.65692 0.05289 0.95444 0.0
H394 H 0.63013 0.05196 0.9852 0.0
H395 H 0.63995 0.15519 0.01725 0.0
H396 H 0.53696 0.13706 0.09897 0.0
H397 H 0.57995 0.12147 0.07372 0.0
H398 H 0.52809 0.07355 0.02526 0.0
C399 C 0.63471 0.07869 0.97853 0.0
C400 C 0.61588 0.1369 0.01899 0.0
C401 C 0.65019 0.07923 0.96101 0.0
C402 C 0.52604 0.13491 0.08523 0.0
C403 C 0.55046 0.12616 0.07086 0.0
C404 C 0.55281 0.09107 0.02376 0.0
C405 C 0.62475 0.11234 0.98723 0.0
C406 C 0.60532 0.11189 0.0051 0.0
C407 C 0.53685 0.12379 0.0529 0.0
C408 C 0.56248 0.1171 0.03734 0.0
H409 H 0.65032 0.17377 0.9539 0.0
H410 H 0.62343 0.17289 0.98454 0.0
H411 H 0.56524 0.06899 -0.00268 0.0
H412 H 0.44503 0.14486 0.06092 0.0
H413 H 0.48736 0.12885 0.03587 0.0
C414 C 0.34903 0.03807 0.33263 0.0
C415 C 0.37386 0.00935 0.33782 0.0
C416 C 0.3572 0.06087 0.31765 0.0
C417 C 0.4061 0.05244 0.27437 0.0
H418 H 0.37954 0.15716 0.2682 0.0
C419 C 0.38069 0.11813 0.2038 0.0
C420 C 0.3973 0.15321 0.20044 0.0
C421 C 0.38063 0.10294 0.22136 0.0
C422 C 0.38735 0.12797 0.26976 0.0
H423 H 0.42803 0.98394 0.3323 0.0
H424 H 0.44251 0.0241 0.30628 0.0
H425 H 0.37763 0.12894 0.29861 0.0
H426 H 0.42586 0.20038 0.21294 0.0
H427 H 0.42577 0.17383 0.24361 0.0
H428 H 0.41524 0.05121 0.24556 0.0
C429 C 0.41652 0.02864 0.31366 0.0
C430 C 0.38609 0.11182 0.28713 0.0
C431 C 0.40843 0.00596 0.32869 0.0
C432 C 0.41328 0.17307 0.21506 0.0
C433 C 0.41292 0.15805 0.23265 0.0
C434 C 0.40705 0.06848 0.25703 0.0
C435 C 0.39028 0.05526 0.30754 0.0
C436 C 0.39516 0.07378 0.28958 0.0
C437 C 0.39687 0.1227 0.23595 0.0
C438 C 0.39727 0.10627 0.25451 0.0
H439 H 0.32233 0.04153 0.33953 0.0
H440 H 0.3364 0.08112 0.31326 0.0
H441 H 0.41271 0.02292 0.27576 0.0
H442 H 0.36839 0.1021 0.19279 0.0
H443 H 0.36769 0.07579 0.22355 0.0
C444 C 0.40663 0.86694 0.44708 0.0
C445 C 0.36964 0.88057 0.44645 0.0
C446 C 0.42516 0.86292 0.46373 0.0
C447 C 0.42281 0.8955 0.51157 0.0
H448 H 0.48917 0.81076 0.51919 0.0
C449 C 0.52852 0.8877 0.57123 0.0
C450 C 0.53565 0.85243 0.57908 0.0
C451 C 0.50536 0.89089 0.55594 0.0
C452 C 0.47039 0.83437 0.51741 0.0
H453 H 0.32275 0.89982 0.46283 0.0
H454 H 0.35487 0.89238 0.49193 0.0
H455 H 0.45422 0.81582 0.49086 0.0
H456 H 0.52314 0.79292 0.57719 0.0
H457 H 0.48178 0.79868 0.55103 0.0
H458 H 0.43848 0.91363 0.53831 0.0
C459 C 0.36988 0.88556 0.47953 0.0
C460 C 0.45075 0.83754 0.50103 0.0
C461 C 0.35144 0.88977 0.46286 0.0
C462 C 0.51798 0.82061 0.57167 0.0
C463 C 0.49468 0.82383 0.55646 0.0
C464 C 0.44236 0.89224 0.52801 0.0
C465 C 0.40703 0.87221 0.48016 0.0
C466 C 0.42695 0.86829 0.49785 0.0
C467 C 0.48867 0.85888 0.54819 0.0
C468 C 0.46656 0.86174 0.53108 0.0
H469 H 0.4216 0.86017 0.43466 0.0
H470 H 0.45399 0.85319 0.46368 0.0
H471 H 0.40499 0.91974 0.50951 0.0
H472 H 0.54132 0.91284 0.57672 0.0
H473 H 0.50156 0.9183 0.54985 0.0
C474 C 0.61126 0.05409 0.80966 0.0
C475 C 0.61823 0.041 0.82738 0.0
C476 C 0.60472 0.0289 0.79547 0.0
C477 C 0.62293 0.93063 0.78244 0.0
H478 H 0.5586 0.95645 0.7417 0.0
C479 C 0.60398 0.83557 0.71887 0.0
C480 C 0.60991 0.85433 0.70227 0.0
C481 C 0.6005 0.85586 0.7351 0.0
C482 C 0.57661 0.94889 0.75301 0.0
H483 H 0.62236 0.9914 0.84433 0.0
H484 H 0.61013 0.94722 0.81958 0.0
H485 H 0.559 0.99614 0.76877 0.0
H486 H 0.61578 0.90882 0.68949 0.0
H487 H 0.60944 0.94427 0.71776 0.0
H488 H 0.64052 0.88338 0.76653 0.0
C489 C 0.61053 0.97696 0.81656 0.0
C490 C 0.57699 0.97165 0.76848 0.0
C491 C 0.6174 1.00221 0.83075 0.0
C492 C 0.61164 0.89368 0.70213 0.0
C493 C 0.60761 0.91394 0.71826 0.0
C494 C 0.62221 0.90762 0.76703 0.0
C495 C 0.60471 0.98999 0.79868 0.0
C496 C 0.60086 0.96334 0.78321 0.0
C497 C 0.60222 0.89525 0.73491 0.0
C498 C 0.59971 0.91706 0.75202 0.0
H499 H 0.61237 0.0838 0.80659 0.0
H500 H 0.60112 0.03999 0.78185 0.0
H501 H 0.64202 0.92358 0.7934 0.0
H502 H 0.60274 0.80524 0.71934 0.0
H503 H 0.59631 0.84083 0.74778 0.0
C504 C 0.15953 0.40179 0.77171 0.0
C505 C 0.14089 0.39112 0.78779 0.0
C506 C 0.14062 0.40152 0.75503 0.0
C507 C 0.04693 0.40684 0.73485 0.0
H508 H 0.09073 0.35365 0.69389 0.0
C509 C 0.9911 0.33652 0.66513 0.0
C510 C 0.97091 0.36636 0.65727 0.0
C511 C 0.01542 0.34283 0.67971 0.0
C512 C 0.07832 0.36877 0.7052 0.0
H513 H 0.08782 0.37259 0.79915 0.0
H514 H 0.05457 0.37249 0.77 0.0
H515 H 0.12572 0.35862 0.72251 0.0
H516 H 0.96206 0.4266 0.65815 0.0
H517 H 1.00375 0.4373 0.68405 0.0
H518 H 0.99934 0.41657 0.71765 0.0
C519 C 0.08383 0.3809 0.77031 0.0
C520 C 0.09836 0.37177 0.72149 0.0
C521 C 0.10289 0.38062 0.78693 0.0
C522 C 0.97657 0.40285 0.66406 0.0
C523 C 1.00053 0.40906 0.67883 0.0
C524 C 0.02714 0.4043 0.71848 0.0
C525 C 0.10258 0.39116 0.7542 0.0
C526 C 0.08256 0.3903 0.73655 0.0
C527 C 0.01977 0.37901 0.68693 0.0
C528 C 0.0424 0.38475 0.7036 0.0
H529 H 0.1889 0.40971 0.77199 0.0
H530 H 0.15565 0.40966 0.7428 0.0
H531 H 0.03428 0.4215 0.74623 0.0
H532 H 0.98701 0.30794 0.66056 0.0
H533 H 0.02958 0.3191 0.68586 0.0
C534 C 0.13264 0.51393 0.9034 0.0
C535 C 0.14857 0.47847 0.90657 0.0
C536 C 0.12422 0.53764 0.91809 0.0
C537 C 0.10612 0.53606 0.96752 0.0
H538 H 0.14836 0.63637 0.96832 0.0
C539 C 0.13397 0.61294 0.03441 0.0
C540 C 0.12562 0.65137 0.03554 0.0
C541 C 0.13235 0.5943 0.01773 0.0
C542 C 0.13584 0.60867 0.96819 0.0
H543 H 0.16676 0.43932 0.92737 0.0
H544 H 0.152 0.48031 0.95283 0.0
H545 H 0.1513 0.59925 0.9403 0.0
H546 H 0.1099 0.70056 0.0199 0.0
H547 H 0.10677 0.6678 0.9907 0.0
H548 H 0.0914 0.54489 -0.00457 0.0
C549 C 0.14611 0.49002 0.93913 0.0
C550 C 0.13745 0.5875 0.95216 0.0
C551 C 0.15492 0.46672 0.92456 0.0
C552 C 0.11612 0.67087 0.01952 0.0
C553 C 0.11461 0.6522 0.00277 0.0
C554 C 0.10442 0.55717 0.98348 0.0
C555 C 0.13089 0.52578 0.93609 0.0
C556 C 0.12361 0.55058 0.95187 0.0
C557 C 0.12233 0.61362 0.00175 0.0
C558 C 0.12027 0.59325 0.98416 0.0
H559 H 0.12749 0.52353 0.88963 0.0
H560 H 0.11244 0.5651 0.91542 0.0
H561 H 0.09467 0.50789 0.96757 0.0
H562 H 0.14096 0.59698 0.04648 0.0
H563 H 0.13909 0.56469 0.01734 0.0
C564 C 0.01531 0.59667 0.16099 0.0
C565 C 0.0214 0.63286 0.15388 0.0
C566 C 0.99194 0.59137 0.17609 0.0
C567 C 0.91778 0.63382 0.20422 0.0
H568 H 0.96708 0.58294 0.24438 0.0
C569 C 0.84583 0.60161 0.27353 0.0
C570 C 0.86646 0.61246 0.28897 0.0
C571 C 0.86235 0.60241 0.25625 0.0
C572 C 0.95298 0.59713 0.23326 0.0
H573 H 0.00591 0.69154 0.15662 0.0
H574 H 0.96433 0.68194 0.18254 0.0
H575 H 0.99805 0.58619 0.21467 0.0
H576 H 0.92049 0.63224 0.29855 0.0
H577 H 0.94964 0.63316 0.26832 0.0
H578 H 0.87285 0.64505 0.22295 0.0
C579 C 0.97782 0.65778 0.17644 0.0
C580 C 0.97049 0.59867 0.21625 0.0
C581 C 1.00156 0.6632 0.1615 0.0
C582 C 0.90394 0.62399 0.28684 0.0
C583 C 0.92065 0.62422 0.26961 0.0
C584 C 0.89999 0.63177 0.2212 0.0
C585 C 0.97372 0.62202 0.18421 0.0
C586 C 0.95328 0.61745 0.20164 0.0
C587 C 0.89997 0.61348 0.25416 0.0
C588 C 0.91773 0.61391 0.23593 0.0
H589 H 0.02951 0.57256 0.15525 0.0
H590 H 0.98882 0.56342 0.1817 0.0
H591 H 0.90395 0.64842 0.19316 0.0
H592 H 0.81678 0.59295 0.2748 0.0
H593 H 0.84588 0.5939 0.24455 0.0
C594 C 0.86325 0.53138 0.42565 0.0
C595 C 0.86995 0.52074 0.40753 0.0
C596 C 0.87319 0.50779 0.43995 0.0
C597 C 0.88466 0.41071 0.4523 0.0
H598 H 0.93151 0.45318 0.49532 0.0
C599 C 0.90203 0.32805 0.52017 0.0
C600 C 0.89135 0.34819 0.53582 0.0
C601 C 0.90581 0.34631 0.50337 0.0
C602 C 0.91838 0.44089 0.48342 0.0
H603 H 0.89262 0.47737 0.39005 0.0
H604 H 0.90944 0.43514 0.41537 0.0
H605 H 0.92751 0.49036 0.4675 0.0
H606 H 0.87703 0.40334 0.54615 0.0
H607 H 0.88285 0.43489 0.51696 0.0
H608 H 0.87393 0.36183 0.46853 0.0
C609 C 0.89666 0.46201 0.41835 0.0
C610 C 0.91627 0.4621 0.46749 0.0
C611 C 0.88719 0.48608 0.40394 0.0
C612 C 0.88479 0.3869 0.53433 0.0
C613 C 0.88869 0.4051 0.51763 0.0
C614 C 0.88662 0.38946 0.46832 0.0
C615 C 0.8898 0.47283 0.43648 0.0
C616 C 0.89828 0.44769 0.45198 0.0
C617 C 0.8993 0.38508 0.50195 0.0
C618 C 0.90235 0.40488 0.48422 0.0
H619 H 0.85036 0.55816 0.42877 0.0
H620 H 0.86715 0.51663 0.45377 0.0
H621 H 0.87048 0.39906 0.44053 0.0
H622 H 0.90703 0.29815 0.52085 0.0
H623 H 0.91408 0.33016 0.49153 0.0
C624 C 0.23438 0.78462 0.10214 0.0
C625 C 0.19555 0.77817 0.10383 0.0
C626 C 0.24922 0.82068 0.1048 0.0
C627 C 0.22293 0.9207 0.10419 0.0
H628 H 0.31304 0.93524 0.13309 0.0
C629 C 0.30722 0.05732 0.1023 0.0
C630 C 0.31941 0.07336 0.11877 0.0
C631 C 0.29119 0.02169 0.10192 0.0
C632 C 0.28764 0.9316 0.12515 0.0
H633 H 0.14182 0.80459 0.1093 0.0
H634 H 0.16754 0.86725 0.11364 0.0
H635 H 0.28754 0.87183 0.12889 0.0
H636 H 0.32431 0.06432 0.14787 0.0
H637 H 0.29641 1.00094 0.14717 0.0
H638 H 0.22312 0.98019 0.10026 0.0
C639 C 0.18659 0.8446 0.11028 0.0
C640 C 0.27332 0.8953 0.12255 0.0
C641 C 0.17185 0.80863 0.1078 0.0
C642 C 0.31508 0.05273 0.13498 0.0
C643 C 0.29936 0.01648 0.13456 0.0
C644 C 0.23739 0.95678 0.10664 0.0
C645 C 0.22548 0.85105 0.109 0.0
C646 C 0.24089 0.88945 0.11194 0.0
C647 C 0.28707 1.00076 0.11798 0.0
C648 C 0.27009 0.96266 0.117 0.0
H649 H 0.25339 0.76166 0.09925 0.0
H650 H 0.27927 0.82483 0.10351 0.0
H651 H 0.19805 0.9172 0.09587 0.0
H652 H 0.30988 0.0724 0.08954 0.0
H653 H 0.28245 0.01026 0.08892 0.0
C654 C 0.73565 0.73794 0.34211 0.0
C655 C 0.7382 0.69986 0.34695 0.0
C656 C 0.70116 0.75693 0.34349 0.0
C657 C 0.61389 0.75404 0.36984 0.0
H658 H 0.56992 0.81404 0.33139 0.0
C659 C 0.4601 0.80704 0.37348 0.0
C660 C 0.45101 0.84064 0.36455 0.0
C661 C 0.49639 0.79197 0.372 0.0
C662 C 0.58202 0.79803 0.34246 0.0
H663 H 0.70614 0.65148 0.35612 0.0
H664 H 0.64673 0.68454 0.35862 0.0
H665 H 0.63104 0.78465 0.32664 0.0
H666 H 0.47318 0.88604 0.34808 0.0
H667 H 0.53655 0.86095 0.34623 0.0
H668 H 0.56559 0.76773 0.38586 0.0
C669 C 0.67125 0.69983 0.35395 0.0
C670 C 0.61704 0.78106 0.33964 0.0
C671 C 0.70534 0.68086 0.35237 0.0
C672 C 0.47928 0.85981 0.35493 0.0
C673 C 0.51559 0.84518 0.35372 0.0
C674 C 0.57919 0.77144 0.37278 0.0
C675 C 0.66892 0.73822 0.34994 0.0
C676 C 0.63305 0.75845 0.35321 0.0
C677 C 0.52451 0.81053 0.36182 0.0
C678 C 0.56246 0.79335 0.35906 0.0
H679 H 0.76048 0.75338 0.33799 0.0
H680 H 0.70005 0.78657 0.34026 0.0
H681 H 0.62586 0.73712 0.38064 0.0
H682 H 0.43876 0.79152 0.38085 0.0
H683 H 0.50188 0.76505 0.37829 0.0
C684 C 0.65127 0.97109 0.63542 0.0
C685 C 0.6746 0.93953 0.63752 0.0
C686 C 0.66648 0.00603 0.6308 0.0
C687 C 0.75432 0.0609 0.63094 0.0
H688 H 0.70628 0.11857 0.59266 0.0
C689 C 0.82468 0.19338 0.60265 0.0
C690 C 0.80181 0.22479 0.59949 0.0
C691 C 0.8088 0.15814 0.60578 0.0
C692 C 0.71983 0.10306 0.6035 0.0
H693 H 0.73242 0.92035 0.63692 0.0
H694 H 0.75897 0.98142 0.62905 0.0
H695 H 0.67919 0.0587 0.60221 0.0
H696 H 0.74438 0.24373 0.5964 0.0
H697 H 0.71635 0.18215 0.60219 0.0
H698 H 0.79457 0.10526 0.63254 0.0
C699 C 0.72887 0.97908 0.63097 0.0
C700 C 0.7043 0.06872 0.60898 0.0
C701 C 0.71364 0.94404 0.63545 0.0
C702 C 0.76269 0.21991 0.59862 0.0
C703 C 0.74668 0.18459 0.60198 0.0
C704 C 0.76969 0.09528 0.62557 0.0
C705 C 0.70541 0.01036 0.62832 0.0
C706 C 0.72147 0.04718 0.62271 0.0
C707 C 0.76954 0.15345 0.60611 0.0
C708 C 0.75283 0.11676 0.61169 0.0
H709 H 0.62107 0.96867 0.63688 0.0
H710 H 0.64771 0.02968 0.62911 0.0
H711 H 0.7679 0.04529 0.64175 0.0
H712 H 0.85498 0.19625 0.60326 0.0
H713 H 0.82737 0.13469 0.60836 0.0
C714 C 0.52325 0.15357 0.89004 0.0
C715 C 0.55543 0.17655 0.88969 0.0
C716 C 0.48821 0.16769 0.88476 0.0
C717 C 0.43591 0.25619 0.87675 0.0
H718 H 0.37369 0.19443 0.84537 0.0
C719 C 0.30689 0.31901 0.84225 0.0
C720 C 0.27335 0.29843 0.84364 0.0
C721 C 0.34142 0.30216 0.84597 0.0
C722 C 0.3906 0.21191 0.85422 0.0
H723 H 0.57548 0.23293 0.88423 0.0
H724 H 0.5146 0.25746 0.87501 0.0
H725 H 0.43291 0.16957 0.85716 0.0
H726 H 0.24973 0.24349 0.84891 0.0
H727 H 0.31031 0.21377 0.85544 0.0
H728 H 0.39381 0.29847 0.87389 0.0
C729 C 0.51635 0.22852 0.87943 0.0
C730 C 0.4245 0.19763 0.86104 0.0
C731 C 0.55137 0.2144 0.88469 0.0
C732 C 0.27523 0.25986 0.84745 0.0
C733 C 0.30993 0.24294 0.85132 0.0
C734 C 0.40216 0.27042 0.86993 0.0
C735 C 0.48443 0.20517 0.87906 0.0
C736 C 0.44769 0.2197 0.87232 0.0
C737 C 0.34324 0.26436 0.85137 0.0
C738 C 0.37919 0.24863 0.85846 0.0
H739 H 0.52526 0.12427 0.89383 0.0
H740 H 0.46412 0.1491 0.88497 0.0
H741 H 0.45263 0.27372 0.88566 0.0
H742 H 0.30624 0.34881 0.83933 0.0
H743 H 0.3666 0.31923 0.84538 0.0
C744 C 0.8515 0.47283 0.60068 0.0
C745 C 0.82813 0.44106 0.59946 0.0
C746 C 0.83678 0.50768 0.60578 0.0
C747 C 0.74839 0.56151 0.60923 0.0
H748 H 0.8023 0.61964 0.64546 0.0
C749 C 0.68076 0.69182 0.64072 0.0
C750 C 0.70331 0.72394 0.6425 0.0
C751 C 0.69688 0.6569 0.63717 0.0
C752 C 0.78706 0.60397 0.63522 0.0
H753 H 0.77063 0.42148 0.60203 0.0
H754 H 0.74495 0.48228 0.61076 0.0
H755 H 0.82857 0.56042 0.63457 0.0
H756 H 0.76058 0.74449 0.64283 0.0
H757 H 0.78898 0.68339 0.63638 0.0
H758 H 0.70716 0.60501 0.60961 0.0
C759 C 0.7747 0.48023 0.60778 0.0
C760 C 0.80214 0.57003 0.62895 0.0
C761 C 0.78945 0.44532 0.6028 0.0
C762 C 0.74256 0.72008 0.64176 0.0
C763 C 0.75877 0.68505 0.63798 0.0
C764 C 0.73343 0.59545 0.61541 0.0
C765 C 0.79829 0.51169 0.60964 0.0
C766 C 0.78287 0.54831 0.61595 0.0
C767 C 0.73599 0.65326 0.63503 0.0
C768 C 0.75237 0.61704 0.62859 0.0
H769 H 0.88144 0.47063 0.59824 0.0
H770 H 0.85562 0.53147 0.60681 0.0
H771 H 0.73312 0.54582 0.599 0.0
H772 H 0.6504 0.69396 0.64132 0.0
H773 H 0.67849 0.63291 0.63553 0.0
C774 C 0.7815 0.2306 0.89582 0.0
C775 C 0.77296 0.19663 0.88703 0.0
C776 C 0.81717 0.24696 0.89382 0.0
C777 C 0.89756 0.24964 0.86217 0.0
H778 H 0.95353 0.28825 0.90333 0.0
C779 C 0.0541 0.29551 0.85666 0.0
C780 C 0.06642 0.32448 0.86814 0.0
C781 C 0.01732 0.28155 0.8582 0.0
C782 C 0.9381 0.27826 0.89159 0.0
H783 H 0.79553 0.15276 0.86966 0.0
H784 H 0.85721 0.18125 0.86621 0.0
H785 H 0.89146 0.26114 0.90817 0.0
H786 H 0.04937 0.36331 0.8893 0.0
H787 H 0.98528 0.34032 0.89145 0.0
H788 H 0.94381 0.26713 0.8455 0.0
C789 C 0.8364 0.19543 0.8745 0.0
C790 C 0.90251 0.26257 0.89443 0.0
C791 C 0.80107 0.17896 0.87663 0.0
C792 C 0.04081 0.34056 0.88044 0.0
C793 C 1.00409 0.3271 0.88179 0.0
C794 C 0.93299 0.26571 0.85928 0.0
C795 C 0.84474 0.22985 0.88284 0.0
C796 C 0.88196 0.24783 0.87978 0.0
C797 C 0.99205 0.29667 0.87109 0.0
C798 C 0.95387 0.28012 0.87396 0.0
H799 H 0.7604 0.24498 0.90384 0.0
H800 H 0.8228 0.27356 0.9004 0.0
H801 H 0.88216 0.23892 0.85056 0.0
H802 H 0.07336 0.28246 0.84714 0.0
H803 H 0.00924 0.25795 0.84979 0.0
C804 C 0.15862 0.52796 0.10149 0.0
C805 C 0.17997 0.5612 0.10181 0.0
C806 C 0.17458 0.49371 0.10669 0.0
C807 C 0.26516 0.44502 0.11265 0.0
H808 H 0.20888 0.37996 0.14515 0.0
C809 C 0.33367 0.31255 0.14173 0.0
C810 C 0.31195 0.27965 0.14185 0.0
C811 C 0.31687 0.34749 0.13896 0.0
C812 C 0.22486 0.39758 0.13594 0.0
H813 H 0.23527 0.58415 0.10734 0.0
H814 H 0.26318 0.52436 0.11621 0.0
H815 H 0.18125 0.43901 0.13488 0.0
H816 H 0.25535 0.25763 0.14006 0.0
H817 H 0.22586 0.31862 0.13491 0.0
H818 H 0.30842 0.40357 0.1133 0.0
C819 C 0.23404 0.52482 0.11196 0.0
C820 C 0.209 0.43145 0.13004 0.0
C821 C 0.21801 0.55913 0.10689 0.0
C822 C 0.27273 0.28259 0.14026 0.0
C823 C 0.25588 0.31761 0.13725 0.0
C824 C 0.2809 0.41112 0.11842 0.0
C825 C 0.21236 0.49179 0.11218 0.0
C826 C 0.229 0.4556 0.11834 0.0
C827 C 0.27793 0.35039 0.13594 0.0
C828 C 0.26107 0.38693 0.13021 0.0
H829 H 0.12922 0.52846 0.09769 0.0
H830 H 0.15727 0.4687 0.10646 0.0
H831 H 0.2811 0.46268 0.10343 0.0
H832 H 0.36398 0.31113 0.14299 0.0
H833 H 0.33467 0.37214 0.1386 0.0
C834 C 0.23828 0.77142 0.37931 0.0
C835 C 0.24096 0.81016 0.38259 0.0
C836 C 0.20294 0.7542 0.37758 0.0
C837 C 0.10319 0.76628 0.38968 0.0
H838 H 0.08228 0.70051 0.3488 0.0
C839 C 0.96812 0.68012 0.38641 0.0
C840 C 0.94679 0.68138 0.37027 0.0
C841 C 0.00459 0.6942 0.38695 0.0
C842 C 0.08772 0.719 0.3602 0.0
H843 H 0.20893 0.86101 0.38713 0.0
H844 H 0.14769 0.831 0.3846 0.0
H845 H 0.14548 0.72736 0.35255 0.0
H846 H 0.948 0.69734 0.34178 0.0
H847 H 0.01269 0.72209 0.34272 0.0
H848 H 0.0458 0.75815 0.39741 0.0
C849 C 0.17266 0.81385 0.38325 0.0
C850 C 0.12394 0.73399 0.36247 0.0
C851 C 0.20778 0.83104 0.38471 0.0
C852 C 0.96358 0.69609 0.35443 0.0
C853 C 1.00058 0.7101 0.35496 0.0
C854 C 0.0673 0.75108 0.38753 0.0
C855 C 0.16974 0.77536 0.3794 0.0
C856 C 0.13199 0.75788 0.37724 0.0
C857 C 0.02113 0.70992 0.37136 0.0
C858 C 0.05911 0.72719 0.37281 0.0
H859 H 0.26341 0.75475 0.37736 0.0
H860 H 0.20154 0.72441 0.37476 0.0
H861 H 0.10849 0.78446 0.40122 0.0
H862 H 0.9565 0.6687 0.39889 0.0
H863 H 0.01987 0.69301 0.3997 0.0
loop_
_geom_bond_atom_site_label_1
_geom_bond_atom_site_label_2
_geom_bond_distance
_geom_bond_site_symmetry_2
_ccdc_geom_bond_type
Co0 N4 2.148 . S
Co0 N10 2.128 . S
Co0 N20 2.194 . S
Co0 O25 2.351 . S
Co0 O26 2.155 . S
Co0 O27 2.096 . S
C1 N4 1.301 . S
C1 N5 1.328 . S
C1 H6 0.930 . S
C2 C3 1.333 . S
C2 N4 1.317 . S
C2 H7 0.930 . S
C3 C2 1.333 . S
C3 N5 1.350 . S
C3 H29 0.931 . S
N4 Co0 2.148 . S
N4 C1 1.301 . S
N4 C2 1.317 . S
N5 C1 1.328 . S
N5 C3 1.350 . S
H6 C1 0.930 . S
H7 C2 0.930 . S
C8 O9 1.224 . S
C8 O27 1.247 . S
O9 C8 1.224 . S
N10 Co0 2.128 . S
N10 C11 1.355 . S
N10 C13 1.311 . S
C11 N10 1.355 . S
C11 C12 1.363 . S
C11 H23 0.929 . S
C12 C11 1.363 . S
C12 N14 1.375 . S
C12 H30 0.931 . S
C13 N10 1.311 . S
C13 N14 1.347 . S
C13 H24 0.929 . S
N14 C12 1.375 . S
N14 C13 1.347 . S
C15 C18 1.365 . S
C15 N20 1.328 . S
C15 H21 0.929 . S
C16 C17 1.362 . S
C16 C19 1.378 . S
C16 H31 0.929 . S
C17 C16 1.362 . S
C17 C18 1.366 . S
C18 C15 1.365 . S
C18 C17 1.366 . S
C18 H32 0.930 . S
C19 C16 1.378 . S
C19 N20 1.315 . S
C19 H22 0.930 . S
N20 Co0 2.194 . S
N20 C15 1.328 . S
N20 C19 1.315 . S
H21 C15 0.929 . S
H22 C19 0.930 . S
H23 C11 0.929 . S
H24 C13 0.929 . S
O25 Co0 2.351 . S
O25 C28 1.244 . S
O26 Co0 2.155 . S
O26 C28 1.240 . S
O27 Co0 2.096 . S
O27 C8 1.247 . S
C28 O25 1.244 . S
C28 O26 1.240 . S
H29 C3 0.931 . S
H30 C12 0.931 . S
H31 C16 0.929 . S
H32 C18 0.930 . S
Co33 N37 2.148 . S
Co33 N43 2.128 . S
Co33 N53 2.194 . S
Co33 O58 2.351 . S
Co33 O59 2.155 . S
Co33 O60 2.096 . S
C34 N37 1.301 . S
C34 N38 1.328 . S
C34 H39 0.930 . S
C35 C36 1.333 . S
C35 N37 1.317 . S
C35 H40 0.930 . S
C36 C35 1.333 . S
C36 N38 1.350 . S
C36 H62 0.931 . S
N37 Co33 2.148 . S
N37 C34 1.301 . S
N37 C35 1.317 . S
N38 C34 1.328 . S
N38 C36 1.350 . S
H39 C34 0.930 . S
H40 C35 0.930 . S
C41 O42 1.224 . S
C41 O60 1.247 . S
O42 C41 1.224 . S
N43 Co33 2.128 . S
N43 C44 1.355 . S
N43 C46 1.311 . S
C44 N43 1.355 . S
C44 C45 1.363 . S
C44 H56 0.929 . S
C45 C44 1.363 . S
C45 N47 1.375 . S
C45 H63 0.931 . S
C46 N43 1.311 . S
C46 N47 1.347 . S
C46 H57 0.929 . S
N47 C45 1.375 . S
N47 C46 1.347 . S
C48 C51 1.365 . S
C48 N53 1.328 . S
C48 H54 0.929 . S
C49 C50 1.362 . S
C49 C52 1.378 . S
C49 H64 0.929 . S
C50 C49 1.362 . S
C50 C51 1.366 . S
C51 C48 1.365 . S
C51 C50 1.366 . S
C51 H65 0.930 . S
C52 C49 1.378 . S
C52 N53 1.315 . S
C52 H55 0.930 . S
N53 Co33 2.194 . S
N53 C48 1.328 . S
N53 C52 1.315 . S
H54 C48 0.929 . S
H55 C52 0.930 . S
H56 C44 0.929 . S
H57 C46 0.929 . S
O58 Co33 2.351 . S
O58 C61 1.244 . S
O59 Co33 2.155 . S
O59 C61 1.240 . S
O60 Co33 2.096 . S
O60 C41 1.247 . S
C61 O58 1.244 . S
C61 O59 1.240 . S
H62 C36 0.931 . S
H63 C45 0.931 . S
H64 C49 0.929 . S
H65 C51 0.930 . S
Co66 N70 2.148 . S
Co66 N76 2.128 . S
Co66 N86 2.194 . S
Co66 O91 2.351 . S
Co66 O92 2.155 . S
Co66 O93 2.096 . S
C67 N70 1.301 . S
C67 N71 1.328 . S
C67 H72 0.930 . S
C68 C69 1.333 . S
C68 N70 1.317 . S
C68 H73 0.930 . S
C69 C68 1.333 . S
C69 N71 1.350 . S
C69 H95 0.931 . S
N70 Co66 2.148 . S
N70 C67 1.301 . S
N70 C68 1.317 . S
N71 C67 1.328 . S
N71 C69 1.350 . S
H72 C67 0.930 . S
H73 C68 0.930 . S
C74 O75 1.224 . S
C74 O93 1.247 . S
O75 C74 1.224 . S
N76 Co66 2.128 . S
N76 C77 1.355 . S
N76 C79 1.311 . S
C77 N76 1.355 . S
C77 C78 1.363 . S
C77 H89 0.929 . S
C78 C77 1.363 . S
C78 N80 1.375 . S
C78 H96 0.931 . S
C79 N76 1.311 . S
C79 N80 1.347 . S
C79 H90 0.929 . S
N80 C78 1.375 . S
N80 C79 1.347 . S
C81 C84 1.365 . S
C81 N86 1.328 . S
C81 H87 0.929 . S
C82 C83 1.362 . S
C82 C85 1.378 . S
C82 H97 0.929 . S
C83 C82 1.362 . S
C83 C84 1.366 . S
C84 C81 1.365 . S
C84 C83 1.366 . S
C84 H98 0.930 . S
C85 C82 1.378 . S
C85 N86 1.315 . S
C85 H88 0.930 . S
N86 Co66 2.194 . S
N86 C81 1.328 . S
N86 C85 1.315 . S
H87 C81 0.929 . S
H88 C85 0.930 . S
H89 C77 0.929 . S
H90 C79 0.929 . S
O91 Co66 2.351 . S
O91 C94 1.244 . S
O92 Co66 2.155 . S
O92 C94 1.240 . S
O93 Co66 2.096 . S
O93 C74 1.247 . S
C94 O91 1.244 . S
C94 O92 1.240 . S
H95 C69 0.931 . S
H96 C78 0.931 . S
H97 C82 0.929 . S
H98 C84 0.930 . S
Co99 N103 2.148 . S
Co99 N109 2.128 . S
Co99 N119 2.194 . S
Co99 O124 2.351 . S
Co99 O125 2.155 . S
Co99 O126 2.096 . S
C100 N103 1.301 . S
C100 N104 1.328 . S
C100 H105 0.930 . S
C101 C102 1.333 . S
C101 N103 1.317 . S
C101 H106 0.930 . S
C102 C101 1.333 . S
C102 N104 1.350 . S
C102 H128 0.931 . S
N103 Co99 2.148 . S
N103 C100 1.301 . S
N103 C101 1.317 . S
N104 C100 1.328 . S
N104 C102 1.350 . S
H105 C100 0.930 . S
H106 C101 0.930 . S
C107 O108 1.224 . S
C107 O126 1.247 . S
O108 C107 1.224 . S
N109 Co99 2.128 . S
N109 C110 1.355 . S
N109 C112 1.311 . S
C110 N109 1.355 . S
C110 C111 1.363 . S
C110 H122 0.929 . S
C111 C110 1.363 . S
C111 N113 1.375 . S
C111 H129 0.931 . S
C112 N109 1.311 . S
C112 N113 1.347 . S
C112 H123 0.929 . S
N113 C111 1.375 . S
N113 C112 1.347 . S
C114 C117 1.365 . S
C114 N119 1.328 . S
C114 H120 0.929 . S
C115 C116 1.362 . S
C115 C118 1.378 . S
C115 H130 0.929 . S
C116 C115 1.362 . S
C116 C117 1.366 . S
C117 C114 1.365 . S
C117 C116 1.366 . S
C117 H131 0.930 . S
C118 C115 1.378 . S
C118 N119 1.315 . S
C118 H121 0.930 . S
N119 Co99 2.194 . S
N119 C114 1.328 . S
N119 C118 1.315 . S
H120 C114 0.929 . S
H121 C118 0.930 . S
H122 C110 0.929 . S
H123 C112 0.929 . S
O124 Co99 2.351 . S
O124 C127 1.244 . S
O125 Co99 2.155 . S
O125 C127 1.240 . S
O126 Co99 2.096 . S
O126 C107 1.247 . S
C127 O124 1.244 . S
C127 O125 1.240 . S
H128 C102 0.931 . S
H129 C111 0.931 . S
H130 C115 0.929 . S
H131 C117 0.930 . S
Co132 N136 2.148 . S
Co132 N142 2.128 . S
Co132 N152 2.194 . S
Co132 O157 2.351 . S
Co132 O158 2.155 . S
Co132 O159 2.096 . S
C133 N136 1.301 . S
C133 N137 1.328 . S
C133 H138 0.930 . S
C134 C135 1.333 . S
C134 N136 1.317 . S
C134 H139 0.930 . S
C135 C134 1.333 . S
C135 N137 1.350 . S
C135 H161 0.931 . S
N136 Co132 2.148 . S
N136 C133 1.301 . S
N136 C134 1.317 . S
N137 C133 1.328 . S
N137 C135 1.350 . S
H138 C133 0.930 . S
H139 C134 0.930 . S
C140 O141 1.224 . S
C140 O159 1.247 . S
O141 C140 1.224 . S
N142 Co132 2.128 . S
N142 C143 1.355 . S
N142 C145 1.311 . S
C143 N142 1.355 . S
C143 C144 1.363 . S
C143 H155 0.929 . S
C144 C143 1.363 . S
C144 N146 1.375 . S
C144 H162 0.931 . S
C145 N142 1.311 . S
C145 N146 1.347 . S
C145 H156 0.929 . S
N146 C144 1.375 . S
N146 C145 1.347 . S
C147 C150 1.365 . S
C147 N152 1.328 . S
C147 H153 0.929 . S
C148 C149 1.362 . S
C148 C151 1.378 . S
C148 H163 0.929 . S
C149 C148 1.362 . S
C149 C150 1.366 . S
C150 C147 1.365 . S
C150 C149 1.366 . S
C150 H164 0.930 . S
C151 C148 1.378 . S
C151 N152 1.315 . S
C151 H154 0.930 . S
N152 Co132 2.194 . S
N152 C147 1.328 . S
N152 C151 1.315 . S
H153 C147 0.929 . S
H154 C151 0.930 . S
H155 C143 0.929 . S
H156 C145 0.929 . S
O157 Co132 2.351 . S
O157 C160 1.244 . S
O158 Co132 2.155 . S
O158 C160 1.240 . S
O159 Co132 2.096 . S
O159 C140 1.247 . S
C160 O157 1.244 . S
C160 O158 1.240 . S
H161 C135 0.931 . S
H162 C144 0.931 . S
H163 C148 0.929 . S
H164 C150 0.930 . S
Co165 N169 2.148 . S
Co165 N175 2.128 . S
Co165 N185 2.194 . S
Co165 O190 2.351 . S
Co165 O191 2.155 . S
Co165 O192 2.096 . S
C166 N169 1.301 . S
C166 N170 1.328 . S
C166 H171 0.930 . S
C167 C168 1.333 . S
C167 N169 1.317 . S
C167 H172 0.930 . S
C168 C167 1.333 . S
C168 N170 1.350 . S
C168 H194 0.931 . S
N169 Co165 2.148 . S
N169 C166 1.301 . S
N169 C167 1.317 . S
N170 C166 1.328 . S
N170 C168 1.350 . S
H171 C166 0.930 . S
H172 C167 0.930 . S
C173 O174 1.224 . S
C173 O192 1.247 . S
O174 C173 1.224 . S
N175 Co165 2.128 . S
N175 C176 1.355 . S
N175 C178 1.311 . S
C176 N175 1.355 . S
C176 C177 1.363 . S
C176 H188 0.929 . S
C177 C176 1.363 . S
C177 N179 1.375 . S
C177 H195 0.931 . S
C178 N175 1.311 . S
C178 N179 1.347 . S
C178 H189 0.929 . S
N179 C177 1.375 . S
N179 C178 1.347 . S
C180 C183 1.365 . S
C180 N185 1.328 . S
C180 H186 0.929 . S
C181 C182 1.362 . S
C181 C184 1.378 . S
C181 H196 0.929 . S
C182 C181 1.362 . S
C182 C183 1.366 . S
C183 C180 1.365 . S
C183 C182 1.366 . S
C183 H197 0.930 . S
C184 C181 1.378 . S
C184 N185 1.315 . S
C184 H187 0.930 . S
N185 Co165 2.194 . S
N185 C180 1.328 . S
N185 C184 1.315 . S
H186 C180 0.929 . S
H187 C184 0.930 . S
H188 C176 0.929 . S
H189 C178 0.929 . S
O190 Co165 2.351 . S
O190 C193 1.244 . S
O191 Co165 2.155 . S
O191 C193 1.240 . S
O192 Co165 2.096 . S
O192 C173 1.247 . S
C193 O190 1.244 . S
C193 O191 1.240 . S
H194 C168 0.931 . S
H195 C177 0.931 . S
H196 C181 0.929 . S
H197 C183 0.930 . S
Co198 N202 2.148 . S
Co198 N208 2.128 . S
Co198 N218 2.194 . S
Co198 O223 2.351 . S
Co198 O224 2.155 . S
Co198 O225 2.096 . S
C199 N202 1.301 . S
C199 N203 1.328 . S
C199 H204 0.930 . S
C200 C201 1.333 . S
C200 N202 1.317 . S
C200 H205 0.930 . S
C201 C200 1.333 . S
C201 N203 1.350 . S
C201 H227 0.931 . S
N202 Co198 2.148 . S
N202 C199 1.301 . S
N202 C200 1.317 . S
N203 C199 1.328 . S
N203 C201 1.350 . S
H204 C199 0.930 . S
H205 C200 0.930 . S
C206 O207 1.224 . S
C206 O225 1.247 . S
O207 C206 1.224 . S
N208 Co198 2.128 . S
N208 C209 1.355 . S
N208 C211 1.311 . S
C209 N208 1.355 . S
C209 C210 1.363 . S
C209 H221 0.929 . S
C210 C209 1.363 . S
C210 N212 1.375 . S
C210 H228 0.931 . S
C211 N208 1.311 . S
C211 N212 1.347 . S
C211 H222 0.929 . S
N212 C210 1.375 . S
N212 C211 1.347 . S
C213 C216 1.365 . S
C213 N218 1.328 . S
C213 H219 0.929 . S
C214 C215 1.362 . S
C214 C217 1.378 . S
C214 H229 0.929 . S
C215 C214 1.362 . S
C215 C216 1.366 . S
C216 C213 1.365 . S
C216 C215 1.366 . S
C216 H230 0.930 . S
C217 C214 1.378 . S
C217 N218 1.315 . S
C217 H220 0.930 . S
N218 Co198 2.194 . S
N218 C213 1.328 . S
N218 C217 1.315 . S
H219 C213 0.929 . S
H220 C217 0.930 . S
H221 C209 0.929 . S
H222 C211 0.929 . S
O223 Co198 2.351 . S
O223 C226 1.244 . S
O224 Co198 2.155 . S
O224 C226 1.240 . S
O225 Co198 2.096 . S
O225 C206 1.247 . S
C226 O223 1.244 . S
C226 O224 1.240 . S
H227 C201 0.931 . S
H228 C210 0.931 . S
H229 C214 0.929 . S
H230 C216 0.930 . S
Co231 N235 2.148 . S
Co231 N241 2.128 . S
Co231 N251 2.194 . S
Co231 O256 2.351 . S
Co231 O257 2.155 . S
Co231 O258 2.096 . S
C232 N235 1.301 . S
C232 N236 1.328 . S
C232 H237 0.930 . S
C233 C234 1.333 . S
C233 N235 1.317 . S
C233 H238 0.930 . S
C234 C233 1.333 . S
C234 N236 1.350 . S
C234 H260 0.931 . S
N235 Co231 2.148 . S
N235 C232 1.301 . S
N235 C233 1.317 . S
N236 C232 1.328 . S
N236 C234 1.350 . S
H237 C232 0.930 . S
H238 C233 0.930 . S
C239 O240 1.224 . S
C239 O258 1.247 . S
O240 C239 1.224 . S
N241 Co231 2.128 . S
N241 C242 1.355 . S
N241 C244 1.311 . S
C242 N241 1.355 . S
C242 C243 1.363 . S
C242 H254 0.929 . S
C243 C242 1.363 . S
C243 N245 1.375 . S
C243 H261 0.931 . S
C244 N241 1.311 . S
C244 N245 1.347 . S
C244 H255 0.929 . S
N245 C243 1.375 . S
N245 C244 1.347 . S
C246 C249 1.365 . S
C246 N251 1.328 . S
C246 H252 0.929 . S
C247 C248 1.362 . S
C247 C250 1.378 . S
C247 H262 0.929 . S
C248 C247 1.362 . S
C248 C249 1.366 . S
C249 C246 1.365 . S
C249 C248 1.366 . S
C249 H263 0.930 . S
C250 C247 1.378 . S
C250 N251 1.315 . S
C250 H253 0.930 . S
N251 Co231 2.194 . S
N251 C246 1.328 . S
N251 C250 1.315 . S
H252 C246 0.929 . S
H253 C250 0.930 . S
H254 C242 0.929 . S
H255 C244 0.929 . S
O256 Co231 2.351 . S
O256 C259 1.244 . S
O257 Co231 2.155 . S
O257 C259 1.240 . S
O258 Co231 2.096 . S
O258 C239 1.247 . S
C259 O256 1.244 . S
C259 O257 1.240 . S
H260 C234 0.931 . S
H261 C243 0.931 . S
H262 C247 0.929 . S
H263 C249 0.930 . S
C264 C265 1.349 . S
C264 C266 1.327 . S
C264 H289 0.950 . S
C265 C264 1.349 . S
C265 C281 1.349 . S
C266 C264 1.327 . S
C266 C285 1.429 . S
C266 H290 0.950 . S
C267 C284 1.574 1_554 S
C267 C286 1.368 . S
C267 H291 0.949 . S
H268 C272 0.949 . S
C269 C270 1.349 . S
C269 C271 1.327 . S
C269 H292 0.950 . S
C270 C269 1.349 . S
C270 C282 1.349 . S
C271 C269 1.327 . S
C271 C287 1.429 . S
C271 H293 0.950 . S
C272 H268 0.949 . S
C272 C280 1.574 1_556 S
C272 C288 1.368 . S
H273 C281 0.950 . S
H274 C279 0.950 . S
H275 C280 0.949 . S
H276 C282 0.950 . S
H277 C283 0.950 . S
H278 C284 0.949 . S
C279 H274 0.950 . S
C279 C281 1.327 . S
C279 C285 1.429 . S
C280 C272 1.574 1_554 S
C280 H275 0.949 . S
C280 C286 1.368 . S
C281 C265 1.349 . S
C281 H273 0.950 . S
C281 C279 1.327 . S
C282 C270 1.349 . S
C282 H276 0.950 . S
C282 C283 1.327 . S
C283 H277 0.950 . S
C283 C282 1.327 . S
C283 C287 1.429 . S
C284 C267 1.574 1_556 S
C284 H278 0.949 . S
C284 C288 1.368 . S
C285 C266 1.429 . S
C285 C279 1.429 . S
C285 C286 1.523 . S
C286 C267 1.368 . S
C286 C280 1.368 . S
C286 C285 1.523 . S
C287 C271 1.429 . S
C287 C283 1.429 . S
C287 C288 1.523 . S
C288 C272 1.368 . S
C288 C284 1.368 . S
C288 C287 1.523 . S
H289 C264 0.950 . S
H290 C266 0.950 . S
H291 C267 0.949 . S
H292 C269 0.950 . S
H293 C271 0.950 . S
C294 C295 1.349 . S
C294 C296 1.327 . S
C294 H319 0.950 . S
C295 C294 1.349 . S
C295 C311 1.349 . S
C296 C294 1.327 . S
C296 C315 1.429 . S
C296 H320 0.950 . S
C297 C314 1.574 . S
C297 C316 1.368 . S
C297 H321 0.949 . S
H298 C302 0.949 . S
C299 C300 1.349 . S
C299 C301 1.327 . S
C299 H322 0.950 . S
C300 C299 1.349 . S
C300 C312 1.349 . S
C301 C299 1.327 . S
C301 C317 1.429 . S
C301 H323 0.950 . S
C302 H298 0.949 . S
C302 C310 1.574 . S
C302 C318 1.368 . S
H303 C311 0.950 . S
H304 C309 0.950 . S
H305 C310 0.949 . S
H306 C312 0.950 . S
H307 C313 0.950 . S
H308 C314 0.949 . S
C309 H304 0.950 . S
C309 C311 1.327 . S
C309 C315 1.429 . S
C310 C302 1.574 . S
C310 H305 0.949 . S
C310 C316 1.368 . S
C311 C295 1.349 . S
C311 H303 0.950 . S
C311 C309 1.327 . S
C312 C300 1.349 . S
C312 H306 0.950 . S
C312 C313 1.327 . S
C313 H307 0.950 . S
C313 C312 1.327 . S
C313 C317 1.429 . S
C314 C297 1.574 . S
C314 H308 0.949 . S
C314 C318 1.368 . S
C315 C296 1.429 . S
C315 C309 1.429 . S
C315 C316 1.523 . S
C316 C297 1.368 . S
C316 C310 1.368 . S
C316 C315 1.523 . S
C317 C301 1.429 . S
C317 C313 1.429 . S
C317 C318 1.523 . S
C318 C302 1.368 . S
C318 C314 1.368 . S
C318 C317 1.523 . S
H319 C294 0.950 . S
H320 C296 0.950 . S
H321 C297 0.949 . S
H322 C299 0.950 . S
H323 C301 0.950 . S
C324 C325 1.349 . S
C324 C326 1.327 . S
C324 H349 0.950 . S
C325 C324 1.349 . S
C325 C341 1.349 . S
C326 C324 1.327 . S
C326 C345 1.429 . S
C326 H350 0.950 . S
C327 C344 1.574 . S
C327 C346 1.368 . S
C327 H351 0.949 . S
H328 C332 0.949 . S
C329 C330 1.349 . S
C329 C331 1.327 . S
C329 H352 0.950 . S
C330 C329 1.349 . S
C330 C342 1.349 . S
C331 C329 1.327 . S
C331 C347 1.429 . S
C331 H353 0.950 . S
C332 H328 0.949 . S
C332 C340 1.574 . S
C332 C348 1.368 . S
H333 C341 0.950 . S
H334 C339 0.950 . S
H335 C340 0.949 . S
H336 C342 0.950 . S
H337 C343 0.950 . S
H338 C344 0.949 . S
C339 H334 0.950 . S
C339 C341 1.327 . S
C339 C345 1.429 . S
C340 C332 1.574 . S
C340 H335 0.949 . S
C340 C346 1.368 . S
C341 C325 1.349 . S
C341 H333 0.950 . S
C341 C339 1.327 . S
C342 C330 1.349 . S
C342 H336 0.950 . S
C342 C343 1.327 . S
C343 H337 0.950 . S
C343 C342 1.327 . S
C343 C347 1.429 . S
C344 C327 1.574 . S
C344 H338 0.949 . S
C344 C348 1.368 . S
C345 C326 1.429 . S
C345 C339 1.429 . S
C345 C346 1.523 . S
C346 C327 1.368 . S
C346 C340 1.368 . S
C346 C345 1.523 . S
C347 C331 1.429 . S
C347 C343 1.429 . S
C347 C348 1.523 . S
C348 C332 1.368 . S
C348 C344 1.368 . S
C348 C347 1.523 . S
H349 C324 0.950 . S
H350 C326 0.950 . S
H351 C327 0.949 . S
H352 C329 0.950 . S
H353 C331 0.950 . S
C354 C355 1.349 . S
C354 C356 1.327 . S
C354 H379 0.950 . S
C355 C354 1.349 . S
C355 C371 1.349 . S
C356 C354 1.327 . S
C356 C375 1.429 . S
C356 H380 0.950 . S
C357 C374 1.574 . S
C357 C376 1.368 . S
C357 H381 0.949 . S
H358 C362 0.949 . S
C359 C360 1.349 . S
C359 C361 1.327 . S
C359 H382 0.950 . S
C360 C359 1.349 . S
C360 C372 1.349 . S
C361 C359 1.327 . S
C361 C377 1.429 . S
C361 H383 0.950 . S
C362 H358 0.949 . S
C362 C370 1.574 . S
C362 C378 1.368 . S
H363 C371 0.950 . S
H364 C369 0.950 . S
H365 C370 0.949 . S
H366 C372 0.950 . S
H367 C373 0.950 . S
H368 C374 0.949 . S
C369 H364 0.950 . S
C369 C371 1.327 . S
C369 C375 1.429 . S
C370 C362 1.574 . S
C370 H365 0.949 . S
C370 C376 1.368 . S
C371 C355 1.349 . S
C371 H363 0.950 . S
C371 C369 1.327 . S
C372 C360 1.349 . S
C372 H366 0.950 . S
C372 C373 1.327 . S
C373 H367 0.950 . S
C373 C372 1.327 . S
C373 C377 1.429 . S
C374 C357 1.574 . S
C374 H368 0.949 . S
C374 C378 1.368 . S
C375 C356 1.429 . S
C375 C369 1.429 . S
C375 C376 1.523 . S
C376 C357 1.368 . S
C376 C370 1.368 . S
C376 C375 1.523 . S
C377 C361 1.429 . S
C377 C373 1.429 . S
C377 C378 1.523 . S
C378 C362 1.368 . S
C378 C374 1.368 . S
C378 C377 1.523 . S
H379 C354 0.950 . S
H380 C356 0.950 . S
H381 C357 0.949 . S
H382 C359 0.950 . S
H383 C361 0.950 . S
C384 C385 1.349 . S
C384 C386 1.327 . S
C384 H409 0.950 . S
C385 C384 1.349 . S
C385 C401 1.349 . S
C386 C384 1.327 . S
C386 C405 1.429 . S
C386 H410 0.950 . S
C387 C404 1.574 . S
C387 C406 1.368 . S
C387 H411 0.949 . S
H388 C392 0.949 . S
C389 C390 1.349 . S
C389 C391 1.327 . S
C389 H412 0.950 . S
C390 C389 1.349 . S
C390 C402 1.349 . S
C391 C389 1.327 . S
C391 C407 1.429 . S
C391 H413 0.950 . S
C392 H388 0.949 . S
C392 C400 1.574 1_554 S
C392 C408 1.368 . S
H393 C401 0.950 . S
H394 C399 0.950 . S
H395 C400 0.949 . S
H396 C402 0.950 . S
H397 C403 0.950 . S
H398 C404 0.949 1_554 S
C399 H394 0.950 . S
C399 C401 1.327 . S
C399 C405 1.429 . S
C400 C392 1.574 1_556 S
C400 H395 0.949 . S
C400 C406 1.368 . S
C401 C385 1.349 . S
C401 H393 0.950 . S
C401 C399 1.327 . S
C402 C390 1.349 . S
C402 H396 0.950 . S
C402 C403 1.327 . S
C403 H397 0.950 . S
C403 C402 1.327 . S
C403 C407 1.429 . S
C404 C387 1.574 . S
C404 H398 0.949 1_556 S
C404 C408 1.368 1_556 S
C405 C386 1.429 . S
C405 C399 1.429 . S
C405 C406 1.523 . S
C406 C387 1.368 . S
C406 C400 1.368 . S
C406 C405 1.523 . S
C407 C391 1.429 . S
C407 C403 1.429 . S
C407 C408 1.523 . S
C408 C392 1.368 . S
C408 C404 1.368 1_554 S
C408 C407 1.523 . S
H409 C384 0.950 . S
H410 C386 0.950 . S
H411 C387 0.949 . S
H412 C389 0.950 . S
H413 C391 0.950 . S
C414 C415 1.349 . S
C414 C416 1.327 . S
C414 H439 0.950 . S
C415 C414 1.349 . S
C415 C431 1.349 . S
C416 C414 1.327 . S
C416 C435 1.429 . S
C416 H440 0.950 . S
C417 C434 1.574 . S
C417 C436 1.368 . S
C417 H441 0.949 . S
H418 C422 0.949 . S
C419 C420 1.349 . S
C419 C421 1.327 . S
C419 H442 0.950 . S
C420 C419 1.349 . S
C420 C432 1.349 . S
C421 C419 1.327 . S
C421 C437 1.429 . S
C421 H443 0.950 . S
C422 H418 0.949 . S
C422 C430 1.574 . S
C422 C438 1.368 . S
H423 C431 0.950 1_565 S
H424 C429 0.950 . S
H425 C430 0.949 . S
H426 C432 0.950 . S
H427 C433 0.950 . S
H428 C434 0.949 . S
C429 H424 0.950 . S
C429 C431 1.327 . S
C429 C435 1.429 . S
C430 C422 1.574 . S
C430 H425 0.949 . S
C430 C436 1.368 . S
C431 C415 1.349 . S
C431 H423 0.950 1_545 S
C431 C429 1.327 . S
C432 C420 1.349 . S
C432 H426 0.950 . S
C432 C433 1.327 . S
C433 H427 0.950 . S
C433 C432 1.327 . S
C433 C437 1.429 . S
C434 C417 1.574 . S
C434 H428 0.949 . S
C434 C438 1.368 . S
C435 C416 1.429 . S
C435 C429 1.429 . S
C435 C436 1.523 . S
C436 C417 1.368 . S
C436 C430 1.368 . S
C436 C435 1.523 . S
C437 C421 1.429 . S
C437 C433 1.429 . S
C437 C438 1.523 . S
C438 C422 1.368 . S
C438 C434 1.368 . S
C438 C437 1.523 . S
H439 C414 0.950 . S
H440 C416 0.950 . S
H441 C417 0.949 . S
H442 C419 0.950 . S
H443 C421 0.950 . S
C444 C445 1.349 . S
C444 C446 1.327 . S
C444 H469 0.950 . S
C445 C444 1.349 . S
C445 C461 1.349 . S
C446 C444 1.327 . S
C446 C465 1.429 . S
C446 H470 0.950 . S
C447 C464 1.574 . S
C447 C466 1.368 . S
C447 H471 0.949 . S
H448 C452 0.949 . S
C449 C450 1.349 . S
C449 C451 1.327 . S
C449 H472 0.950 . S
C450 C449 1.349 . S
C450 C462 1.349 . S
C451 C449 1.327 . S
C451 C467 1.429 . S
C451 H473 0.950 . S
C452 H448 0.949 . S
C452 C460 1.574 . S
C452 C468 1.368 . S
H453 C461 0.950 . S
H454 C459 0.950 . S
H455 C460 0.949 . S
H456 C462 0.950 . S
H457 C463 0.950 . S
H458 C464 0.949 . S
C459 H454 0.950 . S
C459 C461 1.327 . S
C459 C465 1.429 . S
C460 C452 1.574 . S
C460 H455 0.949 . S
C460 C466 1.368 . S
C461 C445 1.349 . S
C461 H453 0.950 . S
C461 C459 1.327 . S
C462 C450 1.349 . S
C462 H456 0.950 . S
C462 C463 1.327 . S
C463 H457 0.950 . S
C463 C462 1.327 . S
C463 C467 1.429 . S
C464 C447 1.574 . S
C464 H458 0.949 . S
C464 C468 1.368 . S
C465 C446 1.429 . S
C465 C459 1.429 . S
C465 C466 1.523 . S
C466 C447 1.368 . S
C466 C460 1.368 . S
C466 C465 1.523 . S
C467 C451 1.429 . S
C467 C463 1.429 . S
C467 C468 1.523 . S
C468 C452 1.368 . S
C468 C464 1.368 . S
C468 C467 1.523 . S
H469 C444 0.950 . S
H470 C446 0.950 . S
H471 C447 0.949 . S
H472 C449 0.950 . S
H473 C451 0.950 . S
C474 C475 1.349 1_545 S
C474 C476 1.327 1_545 S
C474 H499 0.950 . S
C475 C474 1.349 1_565 S
C475 C491 1.349 . S
C476 C474 1.327 1_565 S
C476 C495 1.429 . S
C476 H500 0.950 1_565 S
C477 C494 1.574 . S
C477 C496 1.368 . S
C477 H501 0.949 . S
H478 C482 0.949 . S
C479 C480 1.349 . S
C479 C481 1.327 . S
C479 H502 0.950 . S
C480 C479 1.349 . S
C480 C492 1.349 . S
C481 C479 1.327 . S
C481 C497 1.429 . S
C481 H503 0.950 . S
C482 H478 0.949 . S
C482 C490 1.574 . S
C482 C498 1.368 . S
H483 C491 0.950 . S
H484 C489 0.950 . S
H485 C490 0.949 . S
H486 C492 0.950 . S
H487 C493 0.950 . S
H488 C494 0.949 . S
C489 H484 0.950 . S
C489 C491 1.327 . S
C489 C495 1.429 . S
C490 C482 1.574 . S
C490 H485 0.949 . S
C490 C496 1.368 . S
C491 C475 1.349 . S
C491 H483 0.950 . S
C491 C489 1.327 . S
C492 C480 1.349 . S
C492 H486 0.950 . S
C492 C493 1.327 . S
C493 H487 0.950 . S
C493 C492 1.327 . S
C493 C497 1.429 . S
C494 C477 1.574 . S
C494 H488 0.949 . S
C494 C498 1.368 . S
C495 C476 1.429 . S
C495 C489 1.429 . S
C495 C496 1.523 . S
C496 C477 1.368 . S
C496 C490 1.368 . S
C496 C495 1.523 . S
C497 C481 1.429 . S
C497 C493 1.429 . S
C497 C498 1.523 . S
C498 C482 1.368 . S
C498 C494 1.368 . S
C498 C497 1.523 . S
H499 C474 0.950 . S
H500 C476 0.950 1_545 S
H501 C477 0.949 . S
H502 C479 0.950 . S
H503 C481 0.950 . S
C504 C505 1.349 . S
C504 C506 1.327 . S
C504 H529 0.950 . S
C505 C504 1.349 . S
C505 C521 1.349 . S
C506 C504 1.327 . S
C506 C525 1.429 . S
C506 H530 0.950 . S
C507 C524 1.574 . S
C507 C526 1.368 . S
C507 H531 0.949 . S
H508 C512 0.949 . S
C509 C510 1.349 . S
C509 C511 1.327 . S
C509 H532 0.950 1_455 S
C510 C509 1.349 . S
C510 C522 1.349 . S
C511 C509 1.327 . S
C511 C527 1.429 . S
C511 H533 0.950 . S
C512 H508 0.949 . S
C512 C520 1.574 . S
C512 C528 1.368 . S
H513 C521 0.950 . S
H514 C519 0.950 . S
H515 C520 0.949 . S
H516 C522 0.950 . S
H517 C523 0.950 . S
H518 C524 0.949 . S
C519 H514 0.950 . S
C519 C521 1.327 . S
C519 C525 1.429 . S
C520 C512 1.574 . S
C520 H515 0.949 . S
C520 C526 1.368 . S
C521 C505 1.349 . S
C521 H513 0.950 . S
C521 C519 1.327 . S
C522 C510 1.349 . S
C522 H516 0.950 . S
C522 C523 1.327 . S
C523 H517 0.950 . S
C523 C522 1.327 . S
C523 C527 1.429 . S
C524 C507 1.574 . S
C524 H518 0.949 . S
C524 C528 1.368 . S
C525 C506 1.429 . S
C525 C519 1.429 . S
C525 C526 1.523 . S
C526 C507 1.368 . S
C526 C520 1.368 . S
C526 C525 1.523 . S
C527 C511 1.429 . S
C527 C523 1.429 . S
C527 C528 1.523 . S
C528 C512 1.368 . S
C528 C524 1.368 . S
C528 C527 1.523 . S
H529 C504 0.950 . S
H530 C506 0.950 . S
H531 C507 0.949 . S
H532 C509 0.950 1_655 S
H533 C511 0.950 . S
C534 C535 1.349 . S
C534 C536 1.327 . S
C534 H559 0.950 . S
C535 C534 1.349 . S
C535 C551 1.349 . S
C536 C534 1.327 . S
C536 C555 1.429 . S
C536 H560 0.950 . S
C537 C554 1.618 . S
C537 C556 1.337 1_554 S
C537 H561 0.939 1_554 S
H538 C542 0.949 . S
C539 C540 1.349 . S
C539 C541 1.327 . S
C539 H562 0.950 . S
C540 C539 1.349 . S
C540 C552 1.349 . S
C541 C539 1.327 . S
C541 C557 1.429 . S
C541 H563 0.950 . S
C542 H538 0.949 . S
C542 C550 1.574 1_554 S
C542 C558 1.368 . S
H543 C551 0.950 . S
H544 C549 0.950 . S
H545 C550 0.949 . S
H546 C552 0.950 . S
H547 C553 0.950 . S
H548 C554 0.949 . S
C549 H544 0.950 . S
C549 C551 1.327 . S
C549 C555 1.429 . S
C550 C542 1.574 1_556 S
C550 H545 0.949 . S
C550 C556 1.368 . S
C551 C535 1.349 . S
C551 H543 0.950 . S
C551 C549 1.327 . S
C552 C540 1.349 . S
C552 H546 0.950 . S
C552 C553 1.327 . S
C553 H547 0.950 . S
C553 C552 1.327 . S
C553 C557 1.429 . S
C554 C537 1.618 . S
C554 H548 0.949 . S
C554 C558 1.368 . S
C555 C536 1.429 . S
C555 C549 1.429 . S
C555 C556 1.523 . S
C556 C537 1.337 1_556 S
C556 C550 1.368 . S
C556 C555 1.523 . S
C557 C541 1.429 . S
C557 C553 1.429 . S
C557 C558 1.523 . S
C558 C542 1.368 . S
C558 C554 1.368 . S
C558 C557 1.523 . S
H559 C534 0.950 . S
H560 C536 0.950 . S
H561 C537 0.939 1_556 S
H562 C539 0.950 . S
H563 C541 0.950 . S
C564 C565 1.349 . S
C564 C566 1.327 . S
C564 H589 0.950 1_655 S
C565 C564 1.349 . S
C565 C581 1.349 . S
C566 C564 1.327 . S
C566 C585 1.429 . S
C566 H590 0.950 . S
C567 C584 1.574 . S
C567 C586 1.368 . S
C567 H591 0.949 . S
H568 C572 0.949 . S
C569 C570 1.349 . S
C569 C571 1.327 . S
C569 H592 0.950 . S
C570 C569 1.349 . S
C570 C582 1.349 . S
C571 C569 1.327 . S
C571 C587 1.429 . S
C571 H593 0.950 . S
C572 H568 0.949 . S
C572 C580 1.574 . S
C572 C588 1.368 . S
H573 C581 0.950 . S
H574 C579 0.950 . S
H575 C580 0.949 . S
H576 C582 0.950 . S
H577 C583 0.950 . S
H578 C584 0.949 . S
C579 H574 0.950 . S
C579 C581 1.327 . S
C579 C585 1.429 . S
C580 C572 1.574 . S
C580 H575 0.949 . S
C580 C586 1.368 . S
C581 C565 1.349 . S
C581 H573 0.950 . S
C581 C579 1.327 . S
C582 C570 1.349 . S
C582 H576 0.950 . S
C582 C583 1.327 . S
C583 H577 0.950 . S
C583 C582 1.327 . S
C583 C587 1.429 . S
C584 C567 1.574 . S
C584 H578 0.949 . S
C584 C588 1.368 . S
C585 C566 1.429 . S
C585 C579 1.429 . S
C585 C586 1.523 . S
C586 C567 1.368 . S
C586 C580 1.368 . S
C586 C585 1.523 . S
C587 C571 1.429 . S
C587 C583 1.429 . S
C587 C588 1.523 . S
C588 C572 1.368 . S
C588 C584 1.368 . S
C588 C587 1.523 . S
H589 C564 0.950 1_455 S
H590 C566 0.950 . S
H591 C567 0.949 . S
H592 C569 0.950 . S
H593 C571 0.950 . S
C594 C595 1.349 . S
C594 C596 1.327 . S
C594 H619 0.950 . S
C595 C594 1.349 . S
C595 C611 1.349 . S
C596 C594 1.327 . S
C596 C615 1.429 . S
C596 H620 0.950 . S
C597 C614 1.574 . S
C597 C616 1.368 . S
C597 H621 0.949 . S
H598 C602 0.949 . S
C599 C600 1.349 . S
C599 C601 1.327 . S
C599 H622 0.950 . S
C600 C599 1.349 . S
C600 C612 1.349 . S
C601 C599 1.327 . S
C601 C617 1.429 . S
C601 H623 0.950 . S
C602 H598 0.949 . S
C602 C610 1.574 . S
C602 C618 1.368 . S
H603 C611 0.950 . S
H604 C609 0.950 . S
H605 C610 0.949 . S
H606 C612 0.950 . S
H607 C613 0.950 . S
H608 C614 0.949 . S
C609 H604 0.950 . S
C609 C611 1.327 . S
C609 C615 1.429 . S
C610 C602 1.574 . S
C610 H605 0.949 . S
C610 C616 1.368 . S
C611 C595 1.349 . S
C611 H603 0.950 . S
C611 C609 1.327 . S
C612 C600 1.349 . S
C612 H606 0.950 . S
C612 C613 1.327 . S
C613 H607 0.950 . S
C613 C612 1.327 . S
C613 C617 1.429 . S
C614 C597 1.574 . S
C614 H608 0.949 . S
C614 C618 1.368 . S
C615 C596 1.429 . S
C615 C609 1.429 . S
C615 C616 1.523 . S
C616 C597 1.368 . S
C616 C610 1.368 . S
C616 C615 1.523 . S
C617 C601 1.429 . S
C617 C613 1.429 . S
C617 C618 1.523 . S
C618 C602 1.368 . S
C618 C614 1.368 . S
C618 C617 1.523 . S
H619 C594 0.950 . S
H620 C596 0.950 . S
H621 C597 0.949 . S
H622 C599 0.950 . S
H623 C601 0.950 . S
C624 C625 1.349 . S
C624 C626 1.327 . S
C624 H649 0.950 . S
C625 C624 1.349 . S
C625 C641 1.349 . S
C626 C624 1.327 . S
C626 C645 1.429 . S
C626 H650 0.950 . S
C627 C644 1.574 . S
C627 C646 1.368 . S
C627 H651 0.949 . S
H628 C632 0.949 . S
C629 C630 1.349 . S
C629 C631 1.327 . S
C629 H652 0.950 . S
C630 C629 1.349 . S
C630 C642 1.349 . S
C631 C629 1.327 . S
C631 C647 1.429 1_545 S
C631 H653 0.950 . S
C632 H628 0.949 . S
C632 C640 1.574 . S
C632 C648 1.368 . S
H633 C641 0.950 . S
H634 C639 0.950 . S
H635 C640 0.949 . S
H636 C642 0.950 . S
H637 C643 0.950 . S
H638 C644 0.949 . S
C639 H634 0.950 . S
C639 C641 1.327 . S
C639 C645 1.429 . S
C640 C632 1.574 . S
C640 H635 0.949 . S
C640 C646 1.368 . S
C641 C625 1.349 . S
C641 H633 0.950 . S
C641 C639 1.327 . S
C642 C630 1.349 . S
C642 H636 0.950 . S
C642 C643 1.327 1_545 S
C643 H637 0.950 . S
C643 C642 1.327 1_565 S
C643 C647 1.429 . S
C644 C627 1.574 . S
C644 H638 0.949 . S
C644 C648 1.368 . S
C645 C626 1.429 . S
C645 C639 1.429 . S
C645 C646 1.523 . S
C646 C627 1.368 . S
C646 C640 1.368 . S
C646 C645 1.523 . S
C647 C631 1.429 1_565 S
C647 C643 1.429 . S
C647 C648 1.523 . S
C648 C632 1.368 . S
C648 C644 1.368 . S
C648 C647 1.523 . S
H649 C624 0.950 . S
H650 C626 0.950 . S
H651 C627 0.949 . S
H652 C629 0.950 . S
H653 C631 0.950 . S
C654 C655 1.349 . S
C654 C656 1.327 . S
C654 H679 0.950 . S
C655 C654 1.349 . S
C655 C671 1.349 . S
C656 C654 1.327 . S
C656 C675 1.429 . S
C656 H680 0.950 . S
C657 C674 1.574 . S
C657 C676 1.368 . S
C657 H681 0.949 . S
H658 C662 0.949 . S
C659 C660 1.349 . S
C659 C661 1.327 . S
C659 H682 0.950 . S
C660 C659 1.349 . S
C660 C672 1.349 . S
C661 C659 1.327 . S
C661 C677 1.429 . S
C661 H683 0.950 . S
C662 H658 0.949 . S
C662 C670 1.574 . S
C662 C678 1.368 . S
H663 C671 0.950 . S
H664 C669 0.950 . S
H665 C670 0.949 . S
H666 C672 0.950 . S
H667 C673 0.950 . S
H668 C674 0.949 . S
C669 H664 0.950 . S
C669 C671 1.327 . S
C669 C675 1.429 . S
C670 C662 1.574 . S
C670 H665 0.949 . S
C670 C676 1.368 . S
C671 C655 1.349 . S
C671 H663 0.950 . S
C671 C669 1.327 . S
C672 C660 1.349 . S
C672 H666 0.950 . S
C672 C673 1.327 . S
C673 H667 0.950 . S
C673 C672 1.327 . S
C673 C677 1.429 . S
C674 C657 1.574 . S
C674 H668 0.949 . S
C674 C678 1.368 . S
C675 C656 1.429 . S
C675 C669 1.429 . S
C675 C676 1.523 . S
C676 C657 1.368 . S
C676 C670 1.368 . S
C676 C675 1.523 . S
C677 C661 1.429 . S
C677 C673 1.429 . S
C677 C678 1.523 . S
C678 C662 1.368 . S
C678 C674 1.368 . S
C678 C677 1.523 . S
H679 C654 0.950 . S
H680 C656 0.950 . S
H681 C657 0.949 . S
H682 C659 0.950 . S
H683 C661 0.950 . S
C684 C685 1.349 . S
C684 C686 1.327 1_565 S
C684 H709 0.950 . S
C685 C684 1.349 . S
C685 C701 1.349 . S
C686 C684 1.327 1_545 S
C686 C705 1.429 . S
C686 H710 0.950 . S
C687 C704 1.574 . S
C687 C706 1.368 . S
C687 H711 0.949 . S
H688 C692 0.949 . S
C689 C690 1.349 . S
C689 C691 1.327 . S
C689 H712 0.950 . S
C690 C689 1.349 . S
C690 C702 1.349 . S
C691 C689 1.327 . S
C691 C707 1.429 . S
C691 H713 0.950 . S
C692 H688 0.949 . S
C692 C700 1.574 . S
C692 C708 1.368 . S
H693 C701 0.950 . S
H694 C699 0.950 . S
H695 C700 0.949 . S
H696 C702 0.950 . S
H697 C703 0.950 . S
H698 C704 0.949 . S
C699 H694 0.950 . S
C699 C701 1.327 . S
C699 C705 1.429 1_565 S
C700 C692 1.574 . S
C700 H695 0.949 . S
C700 C706 1.368 . S
C701 C685 1.349 . S
C701 H693 0.950 . S
C701 C699 1.327 . S
C702 C690 1.349 . S
C702 H696 0.950 . S
C702 C703 1.327 . S
C703 H697 0.950 . S
C703 C702 1.327 . S
C703 C707 1.429 . S
C704 C687 1.574 . S
C704 H698 0.949 . S
C704 C708 1.368 . S
C705 C686 1.429 . S
C705 C699 1.429 1_545 S
C705 C706 1.523 . S
C706 C687 1.368 . S
C706 C700 1.368 . S
C706 C705 1.523 . S
C707 C691 1.429 . S
C707 C703 1.429 . S
C707 C708 1.523 . S
C708 C692 1.368 . S
C708 C704 1.368 . S
C708 C707 1.523 . S
H709 C684 0.950 . S
H710 C686 0.950 . S
H711 C687 0.949 . S
H712 C689 0.950 . S
H713 C691 0.950 . S
C714 C715 1.349 . S
C714 C716 1.327 . S
C714 H739 0.950 . S
C715 C714 1.349 . S
C715 C731 1.349 . S
C716 C714 1.327 . S
C716 C735 1.429 . S
C716 H740 0.950 . S
C717 C734 1.574 . S
C717 C736 1.368 . S
C717 H741 0.949 . S
H718 C722 0.949 . S
C719 C720 1.349 . S
C719 C721 1.327 . S
C719 H742 0.950 . S
C720 C719 1.349 . S
C720 C732 1.349 . S
C721 C719 1.327 . S
C721 C737 1.429 . S
C721 H743 0.950 . S
C722 H718 0.949 . S
C722 C730 1.574 . S
C722 C738 1.368 . S
H723 C731 0.950 . S
H724 C729 0.950 . S
H725 C730 0.949 . S
H726 C732 0.950 . S
H727 C733 0.950 . S
H728 C734 0.949 . S
C729 H724 0.950 . S
C729 C731 1.327 . S
C729 C735 1.429 . S
C730 C722 1.574 . S
C730 H725 0.949 . S
C730 C736 1.368 . S
C731 C715 1.349 . S
C731 H723 0.950 . S
C731 C729 1.327 . S
C732 C720 1.349 . S
C732 H726 0.950 . S
C732 C733 1.327 . S
C733 H727 0.950 . S
C733 C732 1.327 . S
C733 C737 1.429 . S
C734 C717 1.574 . S
C734 H728 0.949 . S
C734 C738 1.368 . S
C735 C716 1.429 . S
C735 C729 1.429 . S
C735 C736 1.523 . S
C736 C717 1.368 . S
C736 C730 1.368 . S
C736 C735 1.523 . S
C737 C721 1.429 . S
C737 C733 1.429 . S
C737 C738 1.523 . S
C738 C722 1.368 . S
C738 C734 1.368 . S
C738 C737 1.523 . S
H739 C714 0.950 . S
H740 C716 0.950 . S
H741 C717 0.949 . S
H742 C719 0.950 . S
H743 C721 0.950 . S
C744 C745 1.349 . S
C744 C746 1.327 . S
C744 H769 0.950 . S
C745 C744 1.349 . S
C745 C761 1.349 . S
C746 C744 1.327 . S
C746 C765 1.429 . S
C746 H770 0.950 . S
C747 C764 1.574 . S
C747 C766 1.368 . S
C747 H771 0.949 . S
H748 C752 0.949 . S
C749 C750 1.349 . S
C749 C751 1.327 . S
C749 H772 0.950 . S
C750 C749 1.349 . S
C750 C762 1.349 . S
C751 C749 1.327 . S
C751 C767 1.429 . S
C751 H773 0.950 . S
C752 H748 0.949 . S
C752 C760 1.574 . S
C752 C768 1.368 . S
H753 C761 0.950 . S
H754 C759 0.950 . S
H755 C760 0.949 . S
H756 C762 0.950 . S
H757 C763 0.950 . S
H758 C764 0.949 . S
C759 H754 0.950 . S
C759 C761 1.327 . S
C759 C765 1.429 . S
C760 C752 1.574 . S
C760 H755 0.949 . S
C760 C766 1.368 . S
C761 C745 1.349 . S
C761 H753 0.950 . S
C761 C759 1.327 . S
C762 C750 1.349 . S
C762 H756 0.950 . S
C762 C763 1.327 . S
C763 H757 0.950 . S
C763 C762 1.327 . S
C763 C767 1.429 . S
C764 C747 1.574 . S
C764 H758 0.949 . S
C764 C768 1.368 . S
C765 C746 1.429 . S
C765 C759 1.429 . S
C765 C766 1.523 . S
C766 C747 1.368 . S
C766 C760 1.368 . S
C766 C765 1.523 . S
C767 C751 1.429 . S
C767 C763 1.429 . S
C767 C768 1.523 . S
C768 C752 1.368 . S
C768 C764 1.368 . S
C768 C767 1.523 . S
H769 C744 0.950 . S
H770 C746 0.950 . S
H771 C747 0.949 . S
H772 C749 0.950 . S
H773 C751 0.950 . S
C774 C775 1.349 . S
C774 C776 1.327 . S
C774 H799 0.950 . S
C775 C774 1.349 . S
C775 C791 1.349 . S
C776 C774 1.327 . S
C776 C795 1.429 . S
C776 H800 0.950 . S
C777 C794 1.574 . S
C777 C796 1.368 . S
C777 H801 0.949 . S
H778 C782 0.949 . S
C779 C780 1.349 . S
C779 C781 1.327 1_455 S
C779 H802 0.950 . S
C780 C779 1.349 . S
C780 C792 1.349 . S
C781 C779 1.327 1_655 S
C781 C797 1.429 . S
C781 H803 0.950 . S
C782 H778 0.949 . S
C782 C790 1.574 . S
C782 C798 1.368 . S
H783 C791 0.950 . S
H784 C789 0.950 . S
H785 C790 0.949 . S
H786 C792 0.950 . S
H787 C793 0.950 . S
H788 C794 0.949 . S
C789 H784 0.950 . S
C789 C791 1.327 . S
C789 C795 1.429 . S
C790 C782 1.574 . S
C790 H785 0.949 . S
C790 C796 1.368 . S
C791 C775 1.349 . S
C791 H783 0.950 . S
C791 C789 1.327 . S
C792 C780 1.349 . S
C792 H786 0.950 . S
C792 C793 1.327 . S
C793 H787 0.950 . S
C793 C792 1.327 . S
C793 C797 1.429 1_455 S
C794 C777 1.574 . S
C794 H788 0.949 . S
C794 C798 1.368 . S
C795 C776 1.429 . S
C795 C789 1.429 . S
C795 C796 1.523 . S
C796 C777 1.368 . S
C796 C790 1.368 . S
C796 C795 1.523 . S
C797 C781 1.429 . S
C797 C793 1.429 1_655 S
C797 C798 1.523 . S
C798 C782 1.368 . S
C798 C794 1.368 . S
C798 C797 1.523 . S
H799 C774 0.950 . S
H800 C776 0.950 . S
H801 C777 0.949 . S
H802 C779 0.950 . S
H803 C781 0.950 . S
C804 C805 1.349 . S
C804 C806 1.327 . S
C804 H829 0.950 . S
C805 C804 1.349 . S
C805 C821 1.349 . S
C806 C804 1.327 . S
C806 C825 1.429 . S
C806 H830 0.950 . S
C807 C824 1.574 . S
C807 C826 1.368 . S
C807 H831 0.949 . S
H808 C812 0.949 . S
C809 C810 1.349 . S
C809 C811 1.327 . S
C809 H832 0.950 . S
C810 C809 1.349 . S
C810 C822 1.349 . S
C811 C809 1.327 . S
C811 C827 1.429 . S
C811 H833 0.950 . S
C812 H808 0.949 . S
C812 C820 1.574 . S
C812 C828 1.368 . S
H813 C821 0.950 . S
H814 C819 0.950 . S
H815 C820 0.949 . S
H816 C822 0.950 . S
H817 C823 0.950 . S
H818 C824 0.949 . S
C819 H814 0.950 . S
C819 C821 1.327 . S
C819 C825 1.429 . S
C820 C812 1.574 . S
C820 H815 0.949 . S
C820 C826 1.368 . S
C821 C805 1.349 . S
C821 H813 0.950 . S
C821 C819 1.327 . S
C822 C810 1.349 . S
C822 H816 0.950 . S
C822 C823 1.327 . S
C823 H817 0.950 . S
C823 C822 1.327 . S
C823 C827 1.429 . S
C824 C807 1.574 . S
C824 H818 0.949 . S
C824 C828 1.368 . S
C825 C806 1.429 . S
C825 C819 1.429 . S
C825 C826 1.523 . S
C826 C807 1.368 . S
C826 C820 1.368 . S
C826 C825 1.523 . S
C827 C811 1.429 . S
C827 C823 1.429 . S
C827 C828 1.523 . S
C828 C812 1.368 . S
C828 C824 1.368 . S
C828 C827 1.523 . S
H829 C804 0.950 . S
H830 C806 0.950 . S
H831 C807 0.949 . S
H832 C809 0.950 . S
H833 C811 0.950 . S
C834 C835 1.349 . S
C834 C836 1.327 . S
C834 H859 0.950 . S
C835 C834 1.349 . S
C835 C851 1.349 . S
C836 C834 1.327 . S
C836 C855 1.429 . S
C836 H860 0.950 . S
C837 C854 1.574 . S
C837 C856 1.368 . S
C837 H861 0.949 . S
H838 C842 0.949 . S
C839 C840 1.349 . S
C839 C841 1.327 . S
C839 H862 0.950 . S
C840 C839 1.349 . S
C840 C852 1.349 . S
C841 C839 1.327 . S
C841 C857 1.429 1_655 S
C841 H863 0.950 . S
C842 H838 0.949 . S
C842 C850 1.574 . S
C842 C858 1.368 . S
H843 C851 0.950 . S
H844 C849 0.950 . S
H845 C850 0.949 . S
H846 C852 0.950 . S
H847 C853 0.950 . S
H848 C854 0.949 . S
C849 H844 0.950 . S
C849 C851 1.327 . S
C849 C855 1.429 . S
C850 C842 1.574 . S
C850 H845 0.949 . S
C850 C856 1.368 . S
C851 C835 1.349 . S
C851 H843 0.950 . S
C851 C849 1.327 . S
C852 C840 1.349 . S
C852 H846 0.950 . S
C852 C853 1.327 1_655 S
C853 H847 0.950 . S
C853 C852 1.327 1_455 S
C853 C857 1.429 . S
C854 C837 1.574 . S
C854 H848 0.949 . S
C854 C858 1.368 . S
C855 C836 1.429 . S
C855 C849 1.429 . S
C855 C856 1.523 . S
C856 C837 1.368 . S
C856 C850 1.368 . S
C856 C855 1.523 . S
C857 C841 1.429 1_455 S
C857 C853 1.429 . S
C857 C858 1.523 . S
C858 C842 1.368 . S
C858 C854 1.368 . S
C858 C857 1.523 . S
H859 C834 0.950 . S
H860 C836 0.950 . S
H861 C837 0.949 . S
H862 C839 0.950 . S
H863 C841 0.950 . S
C265 N5 0.304 . S
C270 N170 0.304 . S
C295 N203 0.304 . S
C300 N38 0.304 . S
C325 N236 0.304 . S
C330 N71 0.304 . S
C355 N137 0.304 . S
C360 N104 0.304 . S
C385 N113 1.157 . S
C390 C17 1.097 . S
C415 C50 1.096 1_545 S
C420 N14 1.157 . S
C445 N47 1.158 . S
C450 C83 1.097 . S
C475 C116 1.096 1_565 S
C480 N80 1.157 . S
C505 N179 1.157 . S
C510 C149 1.096 1_455 S
C535 C182 1.097 . S
C540 N212 1.158 . S
C565 C215 1.096 1_655 S
C570 N245 1.157 . S
C595 C248 1.097 . S
C600 N146 1.157 . S
C625 C226 1.957 . S
C630 C8 1.980 . S
C655 C259 1.957 . S
C660 C41 1.980 . S
C685 C74 1.980 . S
C690 C160 1.957 . S
C715 C107 1.980 . S
C720 C193 1.957 . S
C745 C140 1.980 . S
C750 C94 1.957 . S
C775 C127 1.957 . S
C780 C173 1.980 . S
C805 C206 1.980 . S
C810 C28 1.957 . S
C835 C61 1.957 . S
C840 C239 1.980 . S
