# Generated by pormake.
# Topology umr, (4)-cn, num edge types: 1
# Building blocks:
#     Node 0, Type 0, BuildingBlock: QUQFOY_clean_sbu_3, # of connection points: 4
#     Node 1, Type 0, BuildingBlock: QUQFOY_clean_sbu_3, # of connection points: 4
#     Node 2, Type 0, BuildingBlock: QUQFOY_clean_sbu_3, # of connection points: 4
#     Node 3, Type 0, BuildingBlock: QUQFOY_clean_sbu_3, # of connection points: 4
#     Node 4, Type 0, BuildingBlock: QUQFOY_clean_sbu_3, # of connection points: 4
#     Node 5, Type 0, BuildingBlock: QUQFOY_clean_sbu_3, # of connection points: 4
#     Node 6, Type 0, BuildingBlock: QUQFOY_clean_sbu_3, # of connection points: 4
#     Node 7, Type 0, BuildingBlock: QUQFOY_clean_sbu_3, # of connection points: 4
#     Node 8, Type 0, BuildingBlock: QUQFOY_clean_sbu_3, # of connection points: 4
#     Node 9, Type 0, BuildingBlock: QUQFOY_clean_sbu_3, # of connection points: 4
#     Node 10, Type 0, BuildingBlock: QUQFOY_clean_sbu_3, # of connection points: 4
#     Node 11, Type 0, BuildingBlock: QUQFOY_clean_sbu_3, # of connection points: 4
#     Node 12, Type 0, BuildingBlock: QUQFOY_clean_sbu_3, # of connection points: 4
#     Node 13, Type 0, BuildingBlock: QUQFOY_clean_sbu_3, # of connection points: 4
#     Node 14, Type 0, BuildingBlock: QUQFOY_clean_sbu_3, # of connection points: 4
#     Node 15, Type 0, BuildingBlock: QUQFOY_clean_sbu_3, # of connection points: 4
#     Node 16, Type 0, BuildingBlock: QUQFOY_clean_sbu_3, # of connection points: 4
#     Node 17, Type 0, BuildingBlock: QUQFOY_clean_sbu_3, # of connection points: 4
#     Node 18, Type 0, BuildingBlock: QUQFOY_clean_sbu_3, # of connection points: 4
#     Node 19, Type 0, BuildingBlock: QUQFOY_clean_sbu_3, # of connection points: 4
#     Node 20, Type 0, BuildingBlock: QUQFOY_clean_sbu_3, # of connection points: 4
#     Node 21, Type 0, BuildingBlock: QUQFOY_clean_sbu_3, # of connection points: 4
#     Node 22, Type 0, BuildingBlock: QUQFOY_clean_sbu_3, # of connection points: 4
#     Node 23, Type 0, BuildingBlock: QUQFOY_clean_sbu_3, # of connection points: 4
#     Node 24, Type 0, BuildingBlock: QUQFOY_clean_sbu_3, # of connection points: 4
#     Node 25, Type 0, BuildingBlock: QUQFOY_clean_sbu_3, # of connection points: 4
#     Node 26, Type 0, BuildingBlock: QUQFOY_clean_sbu_3, # of connection points: 4
#     Node 27, Type 0, BuildingBlock: QUQFOY_clean_sbu_3, # of connection points: 4
#     Node 28, Type 0, BuildingBlock: QUQFOY_clean_sbu_3, # of connection points: 4
#     Node 29, Type 0, BuildingBlock: QUQFOY_clean_sbu_3, # of connection points: 4
#     Node 30, Type 0, BuildingBlock: QUQFOY_clean_sbu_3, # of connection points: 4
#     Node 31, Type 0, BuildingBlock: QUQFOY_clean_sbu_3, # of connection points: 4
#     Edge 32, Type (0, 0), BuildingBlock: XUDNAN_clean_linker_2, # of connection points: 2
#     Edge 33, Type (0, 0), BuildingBlock: XUDNAN_clean_linker_2, # of connection points: 2
#     Edge 34, Type (0, 0), BuildingBlock: XUDNAN_clean_linker_2, # of connection points: 2
#     Edge 35, Type (0, 0), BuildingBlock: XUDNAN_clean_linker_2, # of connection points: 2
#     Edge 36, Type (0, 0), BuildingBlock: XUDNAN_clean_linker_2, # of connection points: 2
#     Edge 37, Type (0, 0), BuildingBlock: XUDNAN_clean_linker_2, # of connection points: 2
#     Edge 38, Type (0, 0), BuildingBlock: XUDNAN_clean_linker_2, # of connection points: 2
#     Edge 39, Type (0, 0), BuildingBlock: XUDNAN_clean_linker_2, # of connection points: 2
#     Edge 40, Type (0, 0), BuildingBlock: XUDNAN_clean_linker_2, # of connection points: 2
#     Edge 41, Type (0, 0), BuildingBlock: XUDNAN_clean_linker_2, # of connection points: 2
#     Edge 42, Type (0, 0), BuildingBlock: XUDNAN_clean_linker_2, # of connection points: 2
#     Edge 43, Type (0, 0), BuildingBlock: XUDNAN_clean_linker_2, # of connection points: 2
#     Edge 44, Type (0, 0), BuildingBlock: XUDNAN_clean_linker_2, # of connection points: 2
#     Edge 45, Type (0, 0), BuildingBlock: XUDNAN_clean_linker_2, # of connection points: 2
#     Edge 46, Type (0, 0), BuildingBlock: XUDNAN_clean_linker_2, # of connection points: 2
#     Edge 47, Type (0, 0), BuildingBlock: XUDNAN_clean_linker_2, # of connection points: 2
#     Edge 48, Type (0, 0), BuildingBlock: XUDNAN_clean_linker_2, # of connection points: 2
#     Edge 49, Type (0, 0), BuildingBlock: XUDNAN_clean_linker_2, # of connection points: 2
#     Edge 50, Type (0, 0), BuildingBlock: XUDNAN_clean_linker_2, # of connection points: 2
#     Edge 51, Type (0, 0), BuildingBlock: XUDNAN_clean_linker_2, # of connection points: 2
#     Edge 52, Type (0, 0), BuildingBlock: XUDNAN_clean_linker_2, # of connection points: 2
#     Edge 53, Type (0, 0), BuildingBlock: XUDNAN_clean_linker_2, # of connection points: 2
#     Edge 54, Type (0, 0), BuildingBlock: XUDNAN_clean_linker_2, # of connection points: 2
#     Edge 55, Type (0, 0), BuildingBlock: XUDNAN_clean_linker_2, # of connection points: 2
#     Edge 56, Type (0, 0), BuildingBlock: XUDNAN_clean_linker_2, # of connection points: 2
#     Edge 57, Type (0, 0), BuildingBlock: XUDNAN_clean_linker_2, # of connection points: 2
#     Edge 58, Type (0, 0), BuildingBlock: XUDNAN_clean_linker_2, # of connection points: 2
#     Edge 59, Type (0, 0), BuildingBlock: XUDNAN_clean_linker_2, # of connection points: 2
#     Edge 60, Type (0, 0), BuildingBlock: XUDNAN_clean_linker_2, # of connection points: 2
#     Edge 61, Type (0, 0), BuildingBlock: XUDNAN_clean_linker_2, # of connection points: 2
#     Edge 62, Type (0, 0), BuildingBlock: XUDNAN_clean_linker_2, # of connection points: 2
#     Edge 63, Type (0, 0), BuildingBlock: XUDNAN_clean_linker_2, # of connection points: 2
#     Edge 64, Type (0, 0), BuildingBlock: XUDNAN_clean_linker_2, # of connection points: 2
#     Edge 65, Type (0, 0), BuildingBlock: XUDNAN_clean_linker_2, # of connection points: 2
#     Edge 66, Type (0, 0), BuildingBlock: XUDNAN_clean_linker_2, # of connection points: 2
#     Edge 67, Type (0, 0), BuildingBlock: XUDNAN_clean_linker_2, # of connection points: 2
#     Edge 68, Type (0, 0), BuildingBlock: XUDNAN_clean_linker_2, # of connection points: 2
#     Edge 69, Type (0, 0), BuildingBlock: XUDNAN_clean_linker_2, # of connection points: 2
#     Edge 70, Type (0, 0), BuildingBlock: XUDNAN_clean_linker_2, # of connection points: 2
#     Edge 71, Type (0, 0), BuildingBlock: XUDNAN_clean_linker_2, # of connection points: 2
#     Edge 72, Type (0, 0), BuildingBlock: XUDNAN_clean_linker_2, # of connection points: 2
#     Edge 73, Type (0, 0), BuildingBlock: XUDNAN_clean_linker_2, # of connection points: 2
#     Edge 74, Type (0, 0), BuildingBlock: XUDNAN_clean_linker_2, # of connection points: 2
#     Edge 75, Type (0, 0), BuildingBlock: XUDNAN_clean_linker_2, # of connection points: 2
#     Edge 76, Type (0, 0), BuildingBlock: XUDNAN_clean_linker_2, # of connection points: 2
#     Edge 77, Type (0, 0), BuildingBlock: XUDNAN_clean_linker_2, # of connection points: 2
#     Edge 78, Type (0, 0), BuildingBlock: XUDNAN_clean_linker_2, # of connection points: 2
#     Edge 79, Type (0, 0), BuildingBlock: XUDNAN_clean_linker_2, # of connection points: 2
#     Edge 80, Type (0, 0), BuildingBlock: XUDNAN_clean_linker_2, # of connection points: 2
#     Edge 81, Type (0, 0), BuildingBlock: XUDNAN_clean_linker_2, # of connection points: 2
#     Edge 82, Type (0, 0), BuildingBlock: XUDNAN_clean_linker_2, # of connection points: 2
#     Edge 83, Type (0, 0), BuildingBlock: XUDNAN_clean_linker_2, # of connection points: 2
#     Edge 84, Type (0, 0), BuildingBlock: XUDNAN_clean_linker_2, # of connection points: 2
#     Edge 85, Type (0, 0), BuildingBlock: XUDNAN_clean_linker_2, # of connection points: 2
#     Edge 86, Type (0, 0), BuildingBlock: XUDNAN_clean_linker_2, # of connection points: 2
#     Edge 87, Type (0, 0), BuildingBlock: XUDNAN_clean_linker_2, # of connection points: 2
#     Edge 88, Type (0, 0), BuildingBlock: XUDNAN_clean_linker_2, # of connection points: 2
#     Edge 89, Type (0, 0), BuildingBlock: XUDNAN_clean_linker_2, # of connection points: 2
#     Edge 90, Type (0, 0), BuildingBlock: XUDNAN_clean_linker_2, # of connection points: 2
#     Edge 91, Type (0, 0), BuildingBlock: XUDNAN_clean_linker_2, # of connection points: 2
#     Edge 92, Type (0, 0), BuildingBlock: XUDNAN_clean_linker_2, # of connection points: 2
#     Edge 93, Type (0, 0), BuildingBlock: XUDNAN_clean_linker_2, # of connection points: 2
#     Edge 94, Type (0, 0), BuildingBlock: XUDNAN_clean_linker_2, # of connection points: 2
#     Edge 95, Type (0, 0), BuildingBlock: XUDNAN_clean_linker_2, # of connection points: 2
# Relax obj value: 0.088
# Max RMSD: 0.108
# Mean RMSD: 0.108
data_MOF--net-umr--node1-QUQFOY_clean_sbu_3--edge1-XUDNAN_clean_linker_2
_symmetry_space_group_name_H-M    P1
_symmetry_Int_Tables_number       1
_symmetry_cell_setting            triclinic
loop_
_symmetry_equiv_pos_as_xyz
'x, y, z'
_cell_length_a     85.943623
_cell_length_b     85.741446
_cell_length_c     27.031876
_cell_angle_alpha  89.958205
_cell_angle_beta   89.916108
_cell_angle_gamma 89.952386
loop_
_atom_site_label
_atom_site_type_symbol
_atom_site_fract_x
_atom_site_fract_y
_atom_site_fract_z
_atom_type_partial_charge
C0 C 0.16531 0.26589 0.01908 0.0
O1 O 0.16976 0.25506 0.0479 0.0
Cd2 Cd 0.1708 0.2569 0.136 0.0
O3 O 0.16124 0.27916 0.03603 0.0
Cd4 Cd 0.16006 0.29166 0.11789 0.0
C5 C 0.19856 0.28484 0.13839 0.0
O6 O 0.14681 0.26963 0.15514 0.0
O7 O 0.15357 0.28793 0.2053 0.0
O8 O 0.13819 0.3075 0.09039 0.0
C9 C 0.14591 0.27553 0.19784 0.0
O10 O 0.19483 0.27113 0.15192 0.0
C11 C 0.14345 0.32016 0.10804 0.0
O12 O 0.18837 0.29418 0.12141 0.0
O13 O 0.15689 0.31969 0.12741 0.0
C14 C 0.97778 0.90721 0.3033 0.0
O15 O 0.9854 0.91751 0.32675 0.0
Cd16 Cd 0.97459 0.93363 0.3901 0.0
O17 O 0.96343 0.90486 0.31278 0.0
Cd18 Cd 0.94362 0.9159 0.36924 0.0
C19 C 0.94784 0.95158 0.31722 0.0
O20 O 0.96038 0.91585 0.44109 0.0
O21 O 0.93846 0.92776 0.45036 0.0
O22 O 0.9316 0.89018 0.37363 0.0
C23 C 0.95064 0.92214 0.46991 0.0
O24 O 0.95966 0.95337 0.34494 0.0
C25 C 0.91777 0.89518 0.36871 0.0
O26 O 0.94054 0.9387 0.31638 0.0
O27 O 0.91609 0.90973 0.36195 0.0
C28 C 0.33234 0.74586 0.56538 0.0
O29 O 0.32629 0.75187 0.60373 0.0
Cd30 Cd 0.32039 0.73637 0.67314 0.0
O31 O 0.33704 0.7317 0.56563 0.0
Cd32 Cd 0.33972 0.70955 0.62588 0.0
C33 C 0.30135 0.7068 0.60939 0.0
O34 O 0.34536 0.72609 0.69448 0.0
O35 O 0.33777 0.70309 0.71559 0.0
O36 O 0.36646 0.70581 0.59769 0.0
C37 C 0.34415 0.71586 0.72784 0.0
O38 O 0.30092 0.71919 0.63533 0.0
C39 C 0.36587 0.69102 0.59836 0.0
O40 O 0.31424 0.70013 0.60015 0.0
O41 O 0.35282 0.6849 0.60882 0.0
C42 C 0.50738 0.10594 0.72729 0.0
O43 O 0.49627 0.09891 0.74868 0.0
Cd44 Cd 0.49917 0.08042 0.81221 0.0
O45 O 0.52133 0.10434 0.74262 0.0
Cd46 Cd 0.53361 0.09075 0.8148 0.0
C47 C 0.52688 0.05692 0.75725 0.0
O48 O 0.513 0.09421 0.87452 0.0
O49 O 0.52829 0.07489 0.88928 0.0
O50 O 0.54936 0.11359 0.83506 0.0
C51 C 0.51758 0.08387 0.9044 0.0
O52 O 0.51291 0.05855 0.77228 0.0
C53 C 0.56196 0.106 0.84015 0.0
O54 O 0.53698 0.06739 0.76582 0.0
O55 O 0.56141 0.09145 0.83185 0.0
C56 C 0.1686 0.73334 0.44808 0.0
O57 O 0.17629 0.74263 0.42075 0.0
Cd58 Cd 0.18753 0.73369 0.3463 0.0
O59 O 0.16644 0.71915 0.43552 0.0
Cd60 Cd 0.17092 0.69954 0.36957 0.0
C61 C 0.20882 0.70327 0.39971 0.0
O62 O 0.16502 0.7206 0.31729 0.0
O63 O 0.1705 0.69981 0.27653 0.0
O64 O 0.14585 0.69312 0.40326 0.0
C65 C 0.1656 0.71378 0.27615 0.0
O66 O 0.20735 0.71705 0.38284 0.0
C67 C 0.14571 0.67892 0.39041 0.0
O68 O 0.19753 0.69366 0.39821 0.0
O69 O 0.15788 0.67375 0.36915 0.0
C70 C 0.51824 0.91544 0.73454 0.0
O71 O 0.50723 0.91814 0.7044 0.0
Cd72 Cd 0.50996 0.9211 0.61773 0.0
O73 O 0.53223 0.91379 0.71946 0.0
Cd74 Cd 0.54657 0.91419 0.63967 0.0
C75 C 0.53535 0.95198 0.62436 0.0
O76 O 0.52642 0.89948 0.59991 0.0
O77 O 0.54439 0.90759 0.551 0.0
O78 O 0.56321 0.89368 0.67159 0.0
C79 C 0.53229 0.89937 0.55715 0.0
O80 O 0.52183 0.94687 0.6141 0.0
C81 C 0.57583 0.89942 0.65525 0.0
O82 O 0.54633 0.94265 0.63556 0.0
O83 O 0.57499 0.91266 0.63432 0.0
C84 C 0.34269 0.25637 -0.00188 0.0
O85 O 0.33348 0.24684 0.97721 0.0
Cd86 Cd 0.31421 0.25347 0.91866 0.0
O87 O 0.34305 0.27073 0.98554 0.0
Cd88 Cd 0.33168 0.28881 0.92279 0.0
C89 C 0.298 0.28415 0.98643 0.0
O90 O 0.32994 0.26825 0.86583 0.0
O91 O 0.32018 0.28951 0.83735 0.0
O92 O 0.35823 0.29702 0.91154 0.0
C93 C 0.32344 0.27524 0.83051 0.0
O94 O 0.29781 0.27024 0.96996 0.0
C95 C 0.35547 0.31156 0.91126 0.0
O96 O 0.30888 0.29363 0.97552 0.0
O97 O 0.34142 0.31576 0.91788 0.0
C98 C -0.00022 0.06902 0.15472 0.0
O99 O 0.00404 0.06083 0.11796 0.0
Cd100 Cd 0.98838 0.05762 0.04517 0.0
O101 O 0.98689 0.07638 0.15381 0.0
Cd102 Cd 0.96476 0.07987 0.0967 0.0
C103 C 0.95778 0.04112 0.10432 0.0
O104 O 0.97999 0.08331 0.02204 0.0
O105 O 0.9554 0.07973 0.01101 0.0
O106 O 0.96186 0.10676 0.12402 0.0
C107 C 0.96846 0.08362 -0.00702 0.0
O108 O 0.96813 0.03919 0.07116 0.0
C109 C 0.94719 0.10599 0.1294 0.0
O110 O 0.95508 0.05455 0.12233 0.0
O111 O 0.94088 0.09279 0.12236 0.0
C112 C 0.83241 0.74097 0.92009 0.0
O113 O 0.82411 0.74869 0.88994 0.0
Cd114 Cd 0.80958 0.73698 0.82651 0.0
O115 O 0.83384 0.72617 0.9161 0.0
Cd116 Cd 0.82529 0.70552 0.85642 0.0
C117 C 0.78859 0.71122 0.89769 0.0
O118 O 0.83083 0.72291 0.79044 0.0
O119 O 0.81976 0.70173 0.76629 0.0
O120 O 0.85072 0.6935 0.86974 0.0
C121 C 0.82747 0.71386 0.75537 0.0
O122 O 0.78897 0.72412 0.87444 0.0
C123 C 0.84572 0.67959 0.86729 0.0
O124 O 0.80019 0.70204 0.89658 0.0
O125 O 0.83114 0.67783 0.86259 0.0
C126 C 0.0034 0.08255 0.6563 0.0
O127 O 0.99535 0.07547 0.62403 0.0
Cd128 Cd 0.00752 0.05797 0.56831 0.0
O129 O 0.01824 0.0821 0.65476 0.0
Cd130 Cd 0.03971 0.0722 0.60082 0.0
C131 C 0.03032 0.03807 0.65313 0.0
O132 O 0.02557 0.07412 0.52426 0.0
O133 O 0.04656 0.06037 0.5204 0.0
O134 O 0.05174 0.09779 0.60549 0.0
C135 C 0.03542 0.06696 0.49785 0.0
O136 O 0.018 0.03867 0.62707 0.0
C137 C 0.06536 0.09271 0.6141 0.0
O138 O 0.04054 0.04872 0.65014 0.0
O139 O 0.06696 0.07804 0.6179 0.0
C140 C 0.67182 0.24051 0.43193 0.0
O141 O 0.6825 0.2369 0.40149 0.0
Cd142 Cd 0.69163 0.25401 0.33832 0.0
O143 O 0.66477 0.25358 0.42859 0.0
Cd144 Cd 0.66546 0.27668 0.37261 0.0
C145 C 0.7018 0.28412 0.41418 0.0
O146 O 0.6682 0.26178 0.29741 0.0
O147 O 0.67219 0.28643 0.28898 0.0
O148 O 0.63718 0.27904 0.37827 0.0
C149 C 0.66989 0.2733 0.26873 0.0
O150 O 0.70653 0.27375 0.384 0.0
C151 C 0.63725 0.29372 0.38459 0.0
O152 O 0.68736 0.28696 0.41895 0.0
O153 O 0.65045 0.30026 0.38796 0.0
C154 C 0.48651 0.89533 0.24293 0.0
O155 O 0.49683 0.90302 0.21968 0.0
Cd156 Cd 0.49357 0.91939 0.15061 0.0
O157 O 0.47229 0.89545 0.22907 0.0
Cd158 Cd 0.45713 0.90689 0.15887 0.0
C159 C 0.46548 0.94329 0.20231 0.0
O160 O 0.4781 0.90214 0.10416 0.0
O161 O 0.45942 0.9146 0.06962 0.0
O162 O 0.44162 0.88308 0.15753 0.0
C163 C 0.4726 0.90809 0.06543 0.0
O164 O 0.47933 0.94141 0.18658 0.0
C165 C 0.42866 0.89006 0.15246 0.0
O166 O 0.45537 0.93254 0.19762 0.0
O167 O 0.42897 0.90486 0.15187 0.0
C168 C 0.83286 0.26977 0.54795 0.0
O169 O 0.82528 0.261 0.57721 0.0
Cd170 Cd 0.81753 0.26867 0.65807 0.0
O171 O 0.83621 0.28377 0.55982 0.0
Cd172 Cd 0.83139 0.30143 0.63014 0.0
C173 C 0.79233 0.29632 0.61931 0.0
O174 O 0.84069 0.28167 0.68443 0.0
O175 O 0.83093 0.30148 0.72222 0.0
O176 O 0.8553 0.31479 0.60628 0.0
C177 C 0.83886 0.289 0.72438 0.0
O178 O 0.79378 0.28381 0.64418 0.0
C179 C 0.85011 0.32839 0.61505 0.0
O180 O 0.80418 0.30416 0.60623 0.0
O181 O 0.83602 0.32942 0.62888 0.0
C182 C 0.47029 0.08334 0.22709 0.0
O183 O 0.48257 0.08206 0.25279 0.0
Cd184 Cd 0.48381 0.07948 0.33988 0.0
O185 O 0.45687 0.08436 0.24702 0.0
Cd186 Cd 0.44683 0.08544 0.33353 0.0
C187 C 0.45921 0.04789 0.34257 0.0
O188 O 0.46815 0.10048 0.36791 0.0
O189 O 0.45245 0.09019 0.42093 0.0
O190 O 0.42879 0.10656 0.31767 0.0
C191 C 0.46372 0.09937 0.41233 0.0
O192 O 0.47292 0.05328 0.34737 0.0
C193 C 0.41691 0.09949 0.33449 0.0
O194 O 0.44766 0.05702 0.33684 0.0
O195 O 0.4187 0.08538 0.34754 0.0
C196 C 0.6583 0.72846 0.00927 0.0
O197 O 0.6616 0.73952 0.03871 0.0
Cd198 Cd 0.66621 0.73684 0.12431 0.0
O199 O 0.65625 0.71455 0.02491 0.0
Cd200 Cd 0.65675 0.70021 0.10464 0.0
C201 C 0.69527 0.70993 0.10395 0.0
O202 O 0.6441 0.72147 0.14494 0.0
O203 O 0.65131 0.70319 0.19426 0.0
O204 O 0.63549 0.68351 0.07664 0.0
C205 C 0.64397 0.71588 0.18803 0.0
O206 O 0.69132 0.72378 0.11536 0.0
C207 C 0.64174 0.67093 0.09175 0.0
O208 O 0.68509 0.69928 0.09901 0.0
O209 O 0.65518 0.672 0.11085 0.0
C210 C 0.98784 0.91577 0.81141 0.0
O211 O 0.98097 0.92055 0.85013 0.0
Cd212 Cd 0.99326 0.92559 0.92628 0.0
O213 O 0.0023 0.91223 0.81227 0.0
Cd214 Cd 0.02326 0.91166 0.87697 0.0
C215 C 0.02032 0.95098 0.88062 0.0
O216 O 0.00676 0.9014 0.94063 0.0
O217 O 0.02851 0.91053 0.96707 0.0
O218 O 0.03625 0.88787 0.8478 0.0
C219 C 0.01641 0.90251 0.97559 0.0
O220 O 0.00752 0.94944 0.90379 0.0
C221 C 0.04965 0.89413 0.84633 0.0
O222 O 0.0281 0.93913 0.86729 0.0
O223 O 0.05042 0.90857 0.85611 0.0
C224 C 0.64168 0.75846 0.50387 0.0
O225 O 0.64599 0.74652 0.52815 0.0
Cd226 Cd 0.66534 0.74597 0.58926 0.0
O227 O 0.6466 0.77209 0.51506 0.0
Cd228 Cd 0.66251 0.78519 0.58083 0.0
C229 C 0.69283 0.76788 0.5232 0.0
O230 O 0.65544 0.76602 0.63822 0.0
O231 O 0.67294 0.78146 0.66664 0.0
O232 O 0.64099 0.80272 0.59242 0.0
C233 C 0.66398 0.76993 0.67382 0.0
O234 O 0.68728 0.75509 0.53951 0.0
C235 C 0.64891 0.81521 0.59243 0.0
O236 O 0.68646 0.78094 0.53323 0.0
O237 O 0.66345 0.81393 0.58458 0.0
C238 C 0.47609 0.4272 0.7803 0.0
O239 O 0.48379 0.438 0.80112 0.0
Cd240 Cd 0.4745 0.44937 0.87621 0.0
O241 O 0.46321 0.42254 0.79842 0.0
Cd242 Cd 0.44547 0.42707 0.86846 0.0
C243 C 0.44067 0.46449 0.83064 0.0
O244 O 0.46799 0.42587 0.9196 0.0
O245 O 0.44682 0.43023 0.96008 0.0
O246 O 0.44089 0.3999 0.85071 0.0
C247 C 0.46114 0.42659 0.96083 0.0
O248 O 0.45413 0.4671 0.84826 0.0
C249 C 0.42667 0.39975 0.86323 0.0
O250 O 0.43491 0.45085 0.8318 0.0
O251 O 0.42081 0.41264 0.8772 0.0
C252 C 0.84239 0.24176 0.04846 0.0
O253 O 0.83451 0.25016 0.07795 0.0
Cd254 Cd 0.82342 0.24013 0.15066 0.0
O255 O 0.8455 0.22754 0.05876 0.0
Cd256 Cd 0.84191 0.2084 0.12763 0.0
C257 C 0.80425 0.20903 0.09515 0.0
O258 O 0.84599 0.22852 0.18539 0.0
O259 O 0.83712 0.20762 0.21908 0.0
O260 O 0.86896 0.2022 0.11307 0.0
C261 C 0.84314 0.22102 0.22438 0.0
O262 O 0.80435 0.22273 0.11332 0.0
C263 C 0.86769 0.18764 0.12002 0.0
O264 O 0.81642 0.20058 0.09583 0.0
O265 O 0.85407 0.1824 0.12795 0.0
C266 C -0.00109 0.58901 0.31432 0.0
O267 O 0.99137 0.57931 0.3405 0.0
Cd268 Cd 0.00403 0.56322 0.39967 0.0
O269 O 0.01346 0.59108 0.32093 0.0
Cd270 Cd 0.03498 0.58222 0.3754 0.0
C271 C 0.03139 0.54712 0.32098 0.0
O272 O 0.01889 0.58112 0.44834 0.0
O273 O 0.04193 0.57136 0.45642 0.0
O274 O 0.04277 0.60928 0.38057 0.0
C275 C 0.02934 0.57576 0.47658 0.0
O276 O 0.01864 0.54602 0.34478 0.0
C277 C 0.05713 0.60693 0.37266 0.0
O278 O 0.03998 0.55912 0.32515 0.0
O279 O 0.06125 0.59299 0.3635 0.0
C280 C 0.67139 0.23542 0.92846 0.0
O281 O 0.67745 0.24213 0.89126 0.0
Cd282 Cd 0.68788 0.22772 0.82384 0.0
O283 O 0.66919 0.22068 0.92851 0.0
Cd284 Cd 0.67225 0.19791 0.8717 0.0
C285 C 0.71055 0.20207 0.89194 0.0
O286 O 0.66695 0.2117 0.79553 0.0
O287 O 0.67762 0.18911 0.78671 0.0
O288 O 0.64603 0.18889 0.8907 0.0
C289 C 0.67105 0.20078 0.76685 0.0
O290 O 0.7095 0.21412 0.86451 0.0
C291 C 0.65001 0.17486 0.89895 0.0
O292 O 0.69864 0.19378 0.90125 0.0
O293 O 0.66446 0.17179 0.89718 0.0
C294 C 0.00013 0.4203 0.15119 0.0
O295 O 0.99343 0.42568 0.11296 0.0
Cd296 Cd 0.00699 0.43369 0.04048 0.0
O297 O 0.01474 0.4175 0.15092 0.0
Cd298 Cd 0.03691 0.41904 0.09115 0.0
C299 C 0.0329 0.45816 0.0982 0.0
O300 O 0.0227 0.41173 0.01743 0.0
O301 O 0.04551 0.42146 0.00509 0.0
O302 O 0.04847 0.39395 0.1136 0.0
C303 C 0.03367 0.41463 0.98753 0.0
O304 O 0.02062 0.45672 0.0723 0.0
C305 C 0.06181 0.39963 0.12284 0.0
O306 O 0.04093 0.44631 0.1102 0.0
O307 O 0.06317 0.41434 0.12022 0.0
C308 C 0.83626 0.74641 0.41611 0.0
O309 O 0.83172 0.73759 0.3813 0.0
Cd310 Cd 0.82339 0.74746 0.30264 0.0
O311 O 0.83622 0.76119 0.41149 0.0
Cd312 Cd 0.82912 0.78149 0.35138 0.0
C313 C 0.79196 0.768 0.34681 0.0
O314 O 0.84126 0.7679 0.28311 0.0
O315 O 0.82848 0.78879 0.2644 0.0
O316 O 0.85074 0.79667 0.38292 0.0
C317 C 0.83736 0.77781 0.25069 0.0
O318 O 0.79729 0.75677 0.32104 0.0
C319 C 0.84333 0.80947 0.38487 0.0
O320 O 0.80105 0.77828 0.36471 0.0
O321 O 0.82895 0.80904 0.37416 0.0
C322 C 0.49701 0.5695 0.63599 0.0
O323 O 0.49944 0.55957 0.60202 0.0
Cd324 Cd 0.48288 0.55554 0.53227 0.0
O325 O 0.48528 0.57863 0.63412 0.0
Cd326 Cd 0.4632 0.58254 0.57587 0.0
C327 C 0.45106 0.54567 0.5988 0.0
O328 O 0.47839 0.58122 0.5006 0.0
O329 O 0.45362 0.57969 0.49013 0.0
O330 O 0.46149 0.61079 0.59042 0.0
C331 C 0.46699 0.58153 0.47113 0.0
O332 O 0.46052 0.54103 0.56569 0.0
C333 C 0.44685 0.61059 0.59741 0.0
O334 O 0.45065 0.5599 0.61177 0.0
O335 O 0.44027 0.59735 0.59712 0.0
C336 C 0.32182 0.23367 0.49519 0.0
O337 O 0.3216 0.24487 0.46444 0.0
Cd338 Cd 0.32025 0.24157 0.37704 0.0
O339 O 0.32222 0.21955 0.48044 0.0
Cd340 Cd 0.32287 0.20501 0.40162 0.0
C341 C 0.28686 0.21937 0.3801 0.0
O342 O 0.33995 0.22297 0.35878 0.0
O343 O 0.32829 0.20602 0.31314 0.0
O344 O 0.3429 0.18798 0.43302 0.0
C345 C 0.33857 0.21655 0.31693 0.0
O346 O 0.2937 0.23197 0.36791 0.0
C347 C 0.33665 0.17539 0.41845 0.0
O348 O 0.2946 0.20769 0.39578 0.0
O349 O 0.32309 0.17638 0.39999 0.0
C350 C 0.50563 0.56951 0.13609 0.0
O351 O 0.49822 0.56193 0.10343 0.0
Cd352 Cd 0.51097 0.54727 0.04122 0.0
O353 O 0.52043 0.57075 0.1339 0.0
Cd354 Cd 0.54212 0.56319 0.07651 0.0
C355 C 0.53615 0.52632 0.11555 0.0
O356 O 0.52709 0.56638 0.00192 0.0
O357 O 0.54902 0.55461 -0.00818 0.0
O358 O 0.55348 0.58922 0.08404 0.0
C359 C 0.5372 0.56101 0.97246 0.0
O360 O 0.52364 0.52677 0.0904 0.0
C361 C 0.56716 0.58439 0.09299 0.0
O362 O 0.54522 0.538 0.11684 0.0
O363 O 0.56903 0.56973 0.09598 0.0
C364 C 0.14926 0.75868 0.95067 0.0
O365 O 0.15448 0.74905 0.91909 0.0
Cd366 Cd 0.16472 0.75649 0.84172 0.0
O367 O 0.14807 0.77317 0.94032 0.0
Cd368 Cd 0.15266 0.79067 0.8679 0.0
C369 C 0.19071 0.78369 0.88726 0.0
O370 O 0.14439 0.77205 0.80795 0.0
O371 O 0.15748 0.79117 0.77776 0.0
O372 O 0.12796 0.80397 0.88078 0.0
C373 C 0.14909 0.77926 0.7701 0.0
O374 O 0.18816 0.77025 0.86899 0.0
C375 C 0.13349 0.8176 0.87527 0.0
O376 O 0.17978 0.79361 0.89161 0.0
O377 O 0.14811 0.8187 0.86951 0.0
C378 C -0.00267 0.41803 0.65392 0.0
O379 O 0.00375 0.42791 0.62544 0.0
Cd380 Cd 0.99049 0.44323 0.56522 0.0
O381 O 0.98279 0.41516 0.65076 0.0
Cd382 Cd 0.96097 0.42456 0.59825 0.0
C383 C 0.96648 0.46075 0.64747 0.0
O384 O 0.97589 0.42354 0.52266 0.0
O385 O 0.95329 0.4341 0.51508 0.0
O386 O 0.94751 0.39934 0.60417 0.0
C387 C 0.96532 0.42854 0.49439 0.0
O388 O 0.97735 0.46309 0.6163 0.0
C389 C 0.93437 0.40547 0.61389 0.0
O390 O 0.95948 0.44774 0.64899 0.0
O391 O 0.93394 0.42021 0.61781 0.0
C392 C 0.33216 0.75404 0.05758 0.0
O393 O 0.32341 0.74564 0.08446 0.0
Cd394 Cd 0.30811 0.75635 0.14974 0.0
O395 O 0.33333 0.76867 0.06527 0.0
Cd396 Cd 0.32331 0.78883 0.12279 0.0
C397 C 0.28678 0.78239 0.08107 0.0
O398 O 0.32589 0.77248 0.19539 0.0
O399 O 0.31423 0.7945 0.20676 0.0
O400 O 0.34896 0.80088 0.11893 0.0
C401 C 0.3203 0.78236 0.22531 0.0
O402 O 0.28729 0.76955 0.10466 0.0
C403 C 0.34393 0.81466 0.11243 0.0
O404 O 0.2984 0.79156 0.08074 0.0
O405 O 0.32929 0.81632 0.10894 0.0
C406 C 0.99487 0.58744 0.81871 0.0
O407 O 0.00158 0.58191 0.85669 0.0
Cd408 Cd 0.98848 0.57538 0.93125 0.0
O409 O 0.98036 0.59065 0.81946 0.0
Cd410 Cd 0.95899 0.5884 0.88095 0.0
C411 C 0.96505 0.54952 0.87407 0.0
O412 O 0.97353 0.5984 0.94924 0.0
O413 O 0.95292 0.58582 0.97048 0.0
O414 O 0.94512 0.61183 0.85366 0.0
C415 C 0.96369 0.59519 0.98244 0.0
O416 O 0.97543 0.55092 0.90728 0.0
C417 C 0.93195 0.6051 0.85191 0.0
O418 O 0.95815 0.56139 0.85672 0.0
O419 O 0.9317 0.59056 0.86082 0.0
C420 C 0.13497 0.23662 0.51442 0.0
O421 O 0.13939 0.24839 0.53919 0.0
Cd422 Cd 0.15886 0.24743 0.60034 0.0
O423 O 0.13951 0.22288 0.52584 0.0
Cd424 Cd 0.15442 0.20873 0.5913 0.0
C425 C 0.18534 0.22459 0.53313 0.0
O426 O 0.14839 0.22782 0.65089 0.0
O427 O 0.16522 0.21119 0.67677 0.0
O428 O 0.13193 0.192 0.59453 0.0
C429 C 0.15703 0.22319 0.68551 0.0
O430 O 0.18049 0.23765 0.54969 0.0
C431 C 0.13944 0.17925 0.59624 0.0
O432 O 0.17834 0.2119 0.54331 0.0
O433 O 0.1542 0.18013 0.59486 0.0
C434 C 0.50179 0.40022 0.28643 0.0
O435 O 0.49243 0.40547 0.31875 0.0
Cd436 Cd 0.50255 0.4153 0.39361 0.0
O437 O 0.51608 0.39788 0.29701 0.0
Cd438 Cd 0.53462 0.39861 0.36768 0.0
C439 C 0.53283 0.43635 0.33871 0.0
O440 O 0.51572 0.39379 0.43024 0.0
O441 O 0.53653 0.40491 0.45693 0.0
O442 O 0.54072 0.37159 0.35026 0.0
C443 C 0.52373 0.39821 0.46674 0.0
O444 O 0.51927 0.43552 0.35767 0.0
C445 C 0.55532 0.37291 0.35585 0.0
O446 O 0.54173 0.42448 0.33774 0.0
O447 O 0.56051 0.38651 0.36472 0.0
H448 H 0.27163 0.30151 0.97411 0.0
H449 H 0.29789 0.27485 0.08131 0.0
H450 H 0.2762 0.27698 0.14099 0.0
H451 H 0.24949 0.32697 0.06758 0.0
H452 H 0.23208 0.32608 0.03062 0.0
H453 H 0.25092 0.3258 0.00114 0.0
H454 H 0.24365 0.30006 0.95665 0.0
H455 H 0.2249 0.30024 0.98596 0.0
H456 H 0.23744 0.28353 -0.0071 0.0
H457 H 0.25034 0.27683 0.18058 0.0
H458 H 0.22219 0.27491 0.19802 0.0
H459 H 0.21239 0.30254 0.06741 0.0
C460 C 0.27298 0.2968 0.01104 0.0
C461 C 0.28642 0.28835 0.02398 0.0
C462 C 0.28771 0.28165 0.07153 0.0
C463 C 0.27549 0.28283 0.10558 0.0
C464 C 0.26209 0.29083 0.09144 0.0
C465 C 0.2608 0.29788 0.04549 0.0
C466 C 0.24442 0.30385 0.03697 0.0
C467 C 0.24422 0.32174 0.03391 0.0
C468 C 0.23719 0.29647 -0.0096 0.0
C469 C 0.23651 0.29818 0.08379 0.0
C470 C 0.24697 0.29095 0.11514 0.0
C471 C 0.2421 0.2829 0.15725 0.0
C472 C 0.2261 0.28182 0.16683 0.0
C473 C 0.2152 0.28885 0.13462 0.0
C474 C 0.22053 0.29756 0.0936 0.0
H475 H 0.95152 0.98304 0.3281 0.0
H476 H 0.93574 0.94777 0.2249 0.0
H477 H 0.93329 0.96782 0.15969 0.0
H478 H 0.92593 0.01518 0.27849 0.0
H479 H 0.94075 0.02962 0.28955 0.0
H480 H 0.93923 0.01284 0.32948 0.0
H481 H 0.96814 0.00614 0.31201 0.0
H482 H 0.96971 0.02279 0.27194 0.0
H483 H 0.97454 0.00366 0.24895 0.0
H484 H 0.9379 0.99051 0.10235 0.0
H485 H 0.94592 0.01495 0.06022 0.0
H486 H 0.95572 0.03595 0.20244 0.0
C487 C 0.94713 0.97965 0.29214 0.0
C488 C 0.9438 0.96391 0.28142 0.0
C489 C 0.93819 0.95982 0.23395 0.0
C490 C 0.93679 0.97112 0.19666 0.0
C491 C 0.94063 0.9865 0.20796 0.0
C492 C 0.94528 0.99084 0.25495 0.0
C493 C 0.94947 0.00796 0.25693 0.0
C494 C 0.93817 0.01693 0.2906 0.0
C495 C 0.96647 0.01026 0.2734 0.0
C496 C 0.94723 0.01237 0.20323 0.0
C497 C 0.94214 -0.00015 0.17543 0.0
C498 C 0.94132 0.00057 0.12389 0.0
C499 C 0.94592 0.01442 0.10025 0.0
C500 C 0.95094 0.02736 0.12834 0.0
C501 C 0.95129 0.02639 0.18038 0.0
H502 H 0.22582 0.72373 0.45261 0.0
H503 H 0.22316 0.67469 0.41465 0.0
H504 H 0.24635 0.66951 0.46728 0.0
H505 H 0.26701 0.72754 0.4561 0.0
H506 H 0.26667 0.74061 0.50828 0.0
H507 H 0.25043 0.74003 0.46639 0.0
H508 H 0.23191 0.73433 0.54008 0.0
H509 H 0.24813 0.73471 0.58215 0.0
H510 H 0.23569 0.71782 0.5796 0.0
H511 H 0.27125 0.67063 0.52138 0.0
H512 H 0.29381 0.67752 0.57443 0.0
H513 H 0.27737 0.72528 0.58148 0.0
C514 C 0.23019 0.71189 0.45473 0.0
C515 C 0.22292 0.69964 0.42879 0.0
C516 C 0.22871 0.68426 0.43386 0.0
C517 C 0.24183 0.68124 0.46369 0.0
C518 C 0.24868 0.69368 0.48898 0.0
C519 C 0.24287 0.70866 0.48506 0.0
C520 C 0.25177 0.72003 0.51686 0.0
C521 C 0.25942 0.7328 0.485 0.0
C522 C 0.24124 0.72713 0.55705 0.0
C523 C 0.26374 0.70922 0.53897 0.0
C524 C 0.26197 0.69408 0.5223 0.0
C525 C 0.27254 0.68239 0.53528 0.0
C526 C 0.28528 0.68638 0.56545 0.0
C527 C 0.28713 0.70184 0.58295 0.0
C528 C 0.27604 0.71325 0.56999 0.0
H529 H 0.5077 0.03461 0.7181 0.0
H530 H 0.55638 0.04698 0.73471 0.0
H531 H 0.56397 0.0226 0.6925 0.0
H532 H 0.51166 0.99505 0.74307 0.0
H533 H 0.49745 0.98873 0.69843 0.0
H534 H 0.49596 0.00783 0.72536 0.0
H535 H 0.49598 0.02014 0.63768 0.0
H536 H 0.49758 0.00101 0.61047 0.0
H537 H 0.5117 0.01583 0.59562 0.0
H538 H 0.56625 0.99551 0.65731 0.0
H539 H 0.56291 0.96802 0.63183 0.0
H540 H 0.51278 0.97411 0.63478 0.0
C541 C 0.51996 0.0323 0.71236 0.0
C542 C 0.53144 0.0427 0.72981 0.0
C543 C 0.54736 0.03922 0.72156 0.0
C544 C 0.5518 0.02542 0.69747 0.0
C545 C 0.54017 0.01535 0.68118 0.0
C546 C 0.52457 0.0187 0.68795 0.0
C547 C 0.51437 0.00557 0.6695 0.0
C548 C 0.50428 -0.0011 0.7116 0.0
C549 C 0.50432 0.01097 0.62571 0.0
C550 C 0.52667 0.99406 0.65301 0.0
C551 C 0.54149 -5e-05 0.65958 0.0
C552 C 0.55471 0.99088 0.65106 0.0
C553 C 0.5527 0.97529 0.63662 0.0
C554 C 0.5376 0.96896 0.63076 0.0
C555 C 0.52448 0.97867 0.63779 0.0
H556 H 0.71534 0.73135 0.06597 0.0
H557 H 0.71062 0.6819 0.09639 0.0
H558 H 0.73489 0.67681 0.04959 0.0
H559 H 0.72612 0.72693 0.94396 0.0
H560 H 0.73953 0.74308 0.94234 0.0
H561 H 0.7235 0.74325 0.98516 0.0
H562 H 0.74246 0.74692 0.05871 0.0
H563 H 0.75857 0.74713 0.01601 0.0
H564 H 0.75839 0.73347 0.06673 0.0
H565 H 0.75863 0.67707 -0.0064 0.0
H566 H 0.77991 0.68266 0.9344 0.0
H567 H 0.76743 0.73171 0.93627 0.0
C568 C 0.71969 0.7195 0.06447 0.0
C569 C 0.71125 0.70704 0.08565 0.0
C570 C 0.71704 0.69164 0.08107 0.0
C571 C 0.73078 0.68864 0.05441 0.0
C572 C 0.73845 0.70116 0.0322 0.0
C573 C 0.73313 0.7163 0.03719 0.0
C574 C 0.74256 0.72753 0.00602 0.0
C575 C 0.73231 0.73567 0.96708 0.0
C576 C 0.751 0.73947 0.03883 0.0
C577 C 0.7539 0.71634 0.98212 0.0
C578 C 0.7515 0.70121 -0.0019 0.0
C579 C 0.76062 0.68889 0.98098 0.0
C580 C 0.77263 0.69216 0.94721 0.0
C581 C 0.77523 0.70759 0.93033 0.0
C582 C 0.76562 0.71976 0.94789 0.0
H583 H 0.00129 0.97309 0.84198 0.0
H584 H 0.04975 0.96234 0.87002 0.0
H585 H 0.05768 0.98503 0.81931 0.0
H586 H 0.00616 0.98068 0.71897 0.0
H587 H 0.9921 0.99622 0.71445 0.0
H588 H 0.98995 0.98148 0.7613 0.0
H589 H 0.98951 0.0026 0.82982 0.0
H590 H 0.99127 0.01749 0.78304 0.0
H591 H 0.00507 0.01665 0.83311 0.0
H592 H 0.06029 0.00712 0.75872 0.0
H593 H 0.05743 0.02698 0.6929 0.0
H594 H 0.00726 0.0216 0.69909 0.0
C595 C 0.01353 0.97597 0.83926 0.0
C596 C 0.02493 0.96628 0.86081 0.0
C597 C 0.04088 0.96987 0.85449 0.0
C598 C 0.04547 0.98268 0.82569 0.0
C599 C 0.03395 0.99162 0.80304 0.0
C600 C 0.01829 0.98847 0.80965 0.0
C601 C 0.0083 -0.0014 0.77653 0.0
C602 C -0.00144 0.98865 0.7407 0.0
C603 C -0.00207 0.00948 0.80748 0.0
C604 C 0.02078 0.00763 0.74934 0.0
C605 C 0.03547 0.00367 0.7658 0.0
C606 C 0.04884 0.01038 0.74574 0.0
C607 C 0.04711 0.02157 0.70826 0.0
C608 C 0.03215 0.02567 0.69058 0.0
C609 C 0.01886 0.01853 0.71137 0.0
H610 H 0.73304 0.28876 0.40025 0.0
H611 H 0.69586 0.29493 0.50714 0.0
H612 H 0.7151 0.30228 0.57062 0.0
H613 H 0.75929 0.27142 0.47656 0.0
H614 H 0.77641 0.28092 0.4525 0.0
H615 H 0.75965 0.27845 0.41368 0.0
H616 H 0.75878 0.30822 0.39724 0.0
H617 H 0.77567 0.31078 0.43587 0.0
H618 H 0.75811 0.32156 0.44873 0.0
H619 H 0.73856 0.30327 0.62598 0.0
H620 H 0.76448 0.3013 0.66599 0.0
H621 H 0.78619 0.29749 0.52193 0.0
C622 C 0.72893 0.29212 0.43662 0.0
C623 C 0.71299 0.29131 0.44879 0.0
C624 C 0.70802 0.29565 0.49686 0.0
C625 C 0.71887 0.2998 0.53323 0.0
C626 C 0.73458 0.29999 0.52053 0.0
C627 C 0.73958 0.29667 0.473 0.0
C628 C 0.75715 0.29685 0.46959 0.0
C629 C 0.76349 0.28097 0.45208 0.0
C630 C 0.76275 0.31015 0.43586 0.0
C631 C 0.76127 0.29996 0.52309 0.0
C632 C 0.74811 0.30174 0.55202 0.0
C633 C 0.74898 0.30252 0.60356 0.0
C634 C 0.76367 0.30137 0.626 0.0
C635 C 0.77721 0.2998 0.59674 0.0
C636 C 0.77599 0.29938 0.54478 0.0
H637 H 0.4851 0.9666 0.23209 0.0
H638 H 0.43644 0.95302 0.23184 0.0
H639 H 0.4297 0.97734 0.27605 0.0
H640 H 0.48508 0.9846 0.35408 0.0
H641 H 0.49819 -6e-05 0.33556 0.0
H642 H 0.49924 0.98113 0.30606 0.0
H643 H 0.49564 0.99413 0.22015 0.0
H644 H 0.49478 0.01295 0.24935 0.0
H645 H 0.47912 0.00669 0.20981 0.0
H646 H 0.42814 0.0041 0.31503 0.0
H647 H 0.43189 0.03125 0.34338 0.0
H648 H 0.48168 0.02645 0.32097 0.0
C649 C 0.47302 0.96867 0.24141 0.0
C650 C 0.4613 0.9579 0.22835 0.0
C651 C 0.44563 0.96109 0.24144 0.0
C652 C 0.4417 0.97484 0.26674 0.0
C653 C 0.45357 0.98518 0.27916 0.0
C654 C 0.46891 0.98223 0.26697 0.0
C655 C 0.47943 0.99544 0.28279 0.0
C656 C 0.49118 0.98994 0.32196 0.0
C657 C 0.48772 0.00273 0.23785 0.0
C658 C 0.46757 0.00647 0.30482 0.0
C659 C 0.45272 0.00034 0.30269 0.0
C660 C 0.43975 0.00893 0.31757 0.0
C661 C 0.44198 0.02433 0.33371 0.0
C662 C 0.45708 0.03094 0.33495 0.0
C663 C 0.47002 0.02167 0.32156 0.0
H664 H 0.71815 0.78748 0.51584 0.0
H665 H 0.69688 0.74637 0.45152 0.0
H666 H 0.71861 0.74413 0.39242 0.0
H667 H 0.73587 0.80311 0.40115 0.0
H668 H 0.75349 0.80905 0.43191 0.0
H669 H 0.73532 0.80879 0.46533 0.0
H670 H 0.7475 0.79065 0.53155 0.0
H671 H 0.76568 0.79093 0.49851 0.0
H672 H 0.75643 0.77259 0.51253 0.0
H673 H 0.74281 0.74529 0.34372 0.0
H674 H 0.76962 0.74805 0.3133 0.0
H675 H 0.77649 0.78761 0.4113 0.0
C676 C 0.71802 0.7782 0.48869 0.0
C677 C 0.70585 0.76714 0.48784 0.0
C678 C 0.70615 0.75491 0.45272 0.0
C679 C 0.71836 0.75363 0.41876 0.0
C680 C 0.73027 0.76458 0.42072 0.0
C681 C 0.73035 0.77653 0.45504 0.0
C682 C 0.74542 0.7857 0.45226 0.0
C683 C 0.74234 0.80267 0.43673 0.0
C684 C 0.75428 0.78491 0.50164 0.0
C685 C 0.75387 0.7768 0.41181 0.0
C686 C 0.74473 0.76488 0.39353 0.0
C687 C 0.75008 0.75463 0.35746 0.0
C688 C 0.76536 0.7563 0.34044 0.0
C689 C 0.77522 0.76803 0.35993 0.0
C690 C 0.76923 0.77862 0.39533 0.0
H691 H 0.4439 0.49606 0.83832 0.0
H692 H 0.42253 0.45995 0.74934 0.0
H693 H 0.4182 0.47894 0.68233 0.0
H694 H 0.41861 0.52993 0.78674 0.0
H695 H 0.43504 0.54292 0.79035 0.0
H696 H 0.43268 0.52763 0.83559 0.0
H697 H 0.46035 0.51756 0.81496 0.0
H698 H 0.46271 0.53253 0.76925 0.0
H699 H 0.46504 0.51236 0.75204 0.0
H700 H 0.42382 0.49902 0.61789 0.0
H701 H 0.43466 0.52029 0.5661 0.0
H702 H 0.44967 0.54444 0.69823 0.0
C703 C 0.43759 0.49239 0.80572 0.0
C704 C 0.43353 0.47658 0.79902 0.0
C705 C 0.42555 0.47206 0.75556 0.0
C706 C 0.42309 0.48277 0.71713 0.0
C707 C 0.4282 0.49806 0.72348 0.0
C708 C 0.43476 0.50303 0.76748 0.0
C709 C 0.44075 0.51957 0.76317 0.0
C710 C 0.43119 0.53067 0.7959 0.0
C711 C 0.45824 0.52054 0.77555 0.0
C712 C 0.43775 0.52264 0.70888 0.0
C713 C 0.4304 0.51015 0.68657 0.0
C714 C 0.42891 0.50918 0.63519 0.0
C715 C 0.43516 0.52122 0.60603 0.0
C716 C 0.44252 0.53411 0.62848 0.0
C717 C 0.44347 0.53498 0.68046 0.0
H718 H 0.73267 0.22322 0.9166 0.0
H719 H 0.72115 0.17415 0.92923 0.0
H720 H 0.74465 0.16997 0.98078 0.0
H721 H 0.77495 0.21947 0.91487 0.0
H722 H 0.77758 0.2367 0.95207 0.0
H723 H 0.76099 0.23514 0.91174 0.0
H724 H 0.74267 0.24022 0.98634 0.0
H725 H 0.75916 0.24159 0.02698 0.0
H726 H 0.74388 0.2278 0.04003 0.0
H727 H 0.7697 0.17163 0.03254 0.0
H728 H 0.79259 0.1793 0.08312 0.0
H729 H 0.78531 0.22758 0.04135 0.0
C730 C 0.73527 0.2115 0.92914 0.0
C731 C 0.72528 0.19895 0.91824 0.0
C732 C 0.7288 0.18389 0.93679 0.0
C733 C 0.7421 0.18142 0.96604 0.0
C734 C 0.75157 0.19418 0.97692 0.0
C735 C 0.74821 0.20893 0.95915 0.0
C736 C 0.75936 0.22098 0.97907 0.0
C737 C 0.76878 0.22851 0.93693 0.0
C738 C 0.75075 0.23337 0.00994 0.0
C739 C 0.76949 0.21077 0.01117 0.0
C740 C 0.76507 0.1953 0.00897 0.0
C741 C 0.77317 0.18373 0.03476 0.0
C742 C 0.7861 0.18817 0.0634 0.0
C743 C 0.79048 0.20404 0.06681 0.0
C744 C 0.78201 0.2154 0.04036 0.0
H745 H 0.01221 0.47992 0.12938 0.0
H746 H 0.06157 0.46971 0.12276 0.0
H747 H 0.06698 0.493 0.17418 0.0
H748 H 0.01469 0.52312 0.13397 0.0
H749 H -0.00103 0.52432 0.17799 0.0
H750 H -0.00057 0.50871 0.13341 0.0
H751 H -0.00237 0.48858 0.20477 0.0
H752 H -0.00258 0.50406 0.24957 0.0
H753 H 0.01195 0.48894 0.25342 0.0
H754 H 0.06663 0.51652 0.23135 0.0
H755 H 0.06045 0.53723 0.29245 0.0
H756 H 0.0112 0.52984 0.26698 0.0
C757 C 0.0242 0.48292 0.13719 0.0
C758 C 0.03652 0.47329 0.12127 0.0
C759 C 0.05201 0.47715 0.13406 0.0
C760 C 0.05517 0.49032 0.1632 0.0
C761 C 0.04268 0.49932 0.17972 0.0
C762 C 0.02749 0.49574 0.16721 0.0
C763 C 0.01601 0.50603 0.19428 0.0
C764 C 0.00673 0.51615 0.15773 0.0
C765 C 0.00512 0.49632 0.22747 0.0
C766 C 0.02706 0.51578 0.22467 0.0
C767 C 0.04241 0.51202 0.2151 0.0
C768 C 0.05465 0.51957 0.23908 0.0
C769 C 0.05106 0.53125 0.27372 0.0
C770 C 0.03538 0.53492 0.28477 0.0
C771 C 0.0233 0.52708 0.25978 0.0
H772 H 0.26818 0.19896 0.43134 0.0
H773 H 0.26683 0.24055 0.33971 0.0
H774 H 0.23936 0.24453 0.36211 0.0
H775 H 0.22616 0.18681 0.40913 0.0
H776 H 0.22418 0.18022 0.47216 0.0
H777 H 0.24273 0.17882 0.44118 0.0
H778 H 0.25543 0.1945 0.51227 0.0
H779 H 0.23694 0.19625 0.54297 0.0
H780 H 0.24789 0.21352 0.52768 0.0
H781 H 0.21447 0.2472 0.40701 0.0
H782 H 0.1921 0.24655 0.46425 0.0
H783 H 0.20856 0.20268 0.52478 0.0
C784 C 0.26193 0.20853 0.41433 0.0
C785 C 0.26967 0.21944 0.38371 0.0
C786 C 0.26116 0.23203 0.36319 0.0
C787 C 0.24553 0.23439 0.37567 0.0
C788 C 0.23849 0.22394 0.40815 0.0
C789 C 0.24626 0.21104 0.42639 0.0
C790 C 0.23642 0.20246 0.46428 0.0
C791 C 0.23211 0.18611 0.44555 0.0
C792 C 0.24467 0.20165 0.51476 0.0
C793 C 0.22228 0.213 0.46628 0.0
C794 C 0.2237 0.22526 0.43332 0.0
C795 C 0.21299 0.23744 0.43197 0.0
C796 C 0.20042 0.23705 0.46494 0.0
C797 C 0.19861 0.22451 0.49853 0.0
C798 C 0.20956 0.21223 0.49873 0.0
H799 H 0.51302 0.45664 0.29445 0.0
H800 H 0.56214 0.44748 0.31704 0.0
H801 H 0.56866 0.46989 0.26265 0.0
H802 H 0.51623 0.46497 0.16723 0.0
H803 H 0.50131 0.47976 0.16742 0.0
H804 H 0.50063 0.46413 0.21182 0.0
H805 H 0.49992 0.48412 0.28372 0.0
H806 H 0.50038 0.49984 0.23952 0.0
H807 H 0.51484 0.49884 0.28766 0.0
H808 H 0.56944 0.49361 0.20516 0.0
H809 H 0.56451 0.51549 0.1472 0.0
H810 H 0.5149 0.5069 0.15774 0.0
C811 C 0.52517 0.45954 0.28895 0.0
C812 C 0.5371 0.45053 0.31071 0.0
C813 C 0.55284 0.45437 0.30115 0.0
C814 C 0.55662 0.46704 0.2703 0.0
C815 C 0.54452 0.47551 0.24872 0.0
C816 C 0.52911 0.47182 0.25751 0.0
C817 C 0.51822 0.48196 0.2276 0.0
C818 C 0.50854 0.47212 0.19138 0.0
C819 C 0.50773 0.49177 0.26166 0.0
C820 C 0.52988 0.49202 0.20052 0.0
C821 C 0.54499 0.48831 0.21354 0.0
C822 C 0.55766 0.49651 0.19444 0.0
C823 C 0.55477 0.50889 0.16155 0.0
C824 C 0.53935 0.5127 0.14745 0.0
C825 C 0.52682 0.50404 0.167 0.0
H826 H 0.26584 0.7619 0.04251 0.0
H827 H 0.27669 0.81124 0.05087 0.0
H828 H 0.25375 0.81716 -0.00131 0.0
H829 H 0.25384 0.76228 0.91494 0.0
H830 H 0.23874 0.74799 0.92425 0.0
H831 H 0.2558 0.74778 0.96286 0.0
H832 H 0.23845 0.74957 0.04124 0.0
H833 H 0.22135 0.74965 0.0029 0.0
H834 H 0.2245 0.7652 0.04655 0.0
H835 H 0.22863 0.81755 0.94908 0.0
H836 H 0.20415 0.81227 0.90373 0.0
H837 H 0.21141 0.76257 0.9234 0.0
C838 C 0.26334 0.77397 0.03369 0.0
C839 C 0.27292 0.78614 0.05112 0.0
C840 C 0.26944 0.80176 0.03798 0.0
C841 C 0.25647 0.80522 0.00837 0.0
C842 C 0.24731 0.7929 -0.00843 0.0
C843 C 0.25068 0.77759 0.00349 0.0
C844 C 0.23922 0.76643 0.98024 0.0
C845 C 0.24739 0.75548 0.94338 0.0
C846 C 0.23036 0.75718 0.02011 0.0
C847 C 0.22869 0.77785 0.95394 0.0
C848 C 0.23345 0.79308 0.96104 0.0
C849 C 0.22492 0.80566 0.94269 0.0
C850 C 0.21106 0.80256 0.917 0.0
C851 C 0.20605 0.78702 0.90939 0.0
C852 C 0.21514 0.77457 0.92755 0.0
H853 H 0.96946 0.49268 0.64261 0.0
H854 H 0.9568 0.45481 0.74128 0.0
H855 H 0.95419 0.47344 0.81029 0.0
H856 H 0.99168 0.51462 0.72681 0.0
H857 H 0.98483 0.53339 0.70609 0.0
H858 H 0.9852 0.51717 0.66392 0.0
H859 H 0.95579 0.52095 0.64635 0.0
H860 H 0.95541 0.53726 0.68833 0.0
H861 H 0.9422 0.52117 0.69724 0.0
H862 H 0.95613 0.49575 0.87077 0.0
H863 H 0.95887 0.52094 0.91544 0.0
H864 H 0.96738 0.54443 0.77605 0.0
C865 C 0.96594 0.48838 0.67861 0.0
C866 C 0.96333 0.47233 0.68665 0.0
C867 C 0.95872 0.4671 0.73422 0.0
C868 C 0.95728 0.47757 0.77373 0.0
C869 C 0.96015 0.49329 0.76484 0.0
C870 C 0.96404 0.49874 0.71823 0.0
C871 C 0.96633 0.51624 0.71856 0.0
C872 C 0.983 0.5206 0.70294 0.0
C873 C 0.9542 0.52438 0.68568 0.0
C874 C 0.96352 0.51967 0.77278 0.0
C875 C 0.96015 0.50627 0.79906 0.0
C876 C 0.95839 0.5064 0.85046 0.0
C877 C 0.96 0.52066 0.87554 0.0
C878 C 0.96296 0.53451 0.84886 0.0
C879 C 0.96467 0.53399 0.79697 0.0
H880 H 0.17426 0.23945 0.96972 0.0
H881 H 0.1545 0.28559 0.94719 0.0
H882 H 0.15196 0.2801 0.85811 0.0
H883 H 0.19594 0.23774 0.85267 0.0
H884 H 0.19205 0.21726 0.84418 0.0
H885 H 0.19344 0.22522 0.9057 0.0
H886 H 0.16605 0.21436 0.92636 0.0
H887 H 0.16455 0.20642 0.86496 0.0
H888 H 0.1498 0.21957 0.88761 0.0
H889 H 0.14949 0.26902 0.77399 0.0
H890 H 0.14787 0.25322 0.69824 0.0
H891 H 0.16978 0.21438 0.77435 0.0
C892 C 0.16955 0.24848 0.94603 0.0
C893 C 0.16456 0.26295 0.96542 0.0
C894 C 0.15842 0.27443 0.93317 0.0
C895 C 0.15696 0.27144 0.88252 0.0
C896 C 0.1618 0.25698 0.8648 0.0
C897 C 0.16807 0.24572 0.89539 0.0
C898 C 0.17176 0.23092 0.86719 0.0
C899 C 0.18935 0.2276 0.86745 0.0
C900 C 0.16248 0.217 0.88776 0.0
C901 C 0.16621 0.2355 0.81615 0.0
C902 C 0.16059 0.25062 0.81567 0.0
C903 C 0.15403 0.25724 0.77365 0.0
C904 C 0.15311 0.24814 0.73092 0.0
C905 C 0.15877 0.23261 0.73055 0.0
C906 C 0.16555 0.22628 0.77356 0.0
H907 H 0.02837 0.912 0.0643 0.0
H908 H 0.99486 0.8805 -0.00157 0.0
H909 H 0.98506 0.87362 0.08125 0.0
H910 H 0.03414 0.88915 0.18508 0.0
H911 H 0.03524 0.90705 0.21984 0.0
H912 H 0.04246 0.90633 0.15719 0.0
H913 H 0.0246 0.92957 0.1338 0.0
H914 H 0.01735 0.93033 0.19599 0.0
H915 H 0.00397 0.92815 0.14518 0.0
H916 H 0.97531 0.87435 0.16681 0.0
H917 H 0.9659 0.88321 0.24819 0.0
H918 H 0.00561 0.91424 0.2599 0.0
C919 C 0.0194 0.90321 0.0676 0.0
C920 C 0.01239 0.89673 0.02524 0.0
C921 C 0.00037 0.88559 0.03061 0.0
C922 C 0.99483 0.88149 0.07751 0.0
C923 C 0.00151 0.88857 0.11866 0.0
C924 C 0.01363 0.89911 0.11426 0.0
C925 C 0.01707 0.9069 0.16325 0.0
C926 C 0.03318 0.90206 0.18247 0.0
C927 C 0.01565 0.92478 0.15928 0.0
C928 C 0.00425 0.89998 0.19481 0.0
C929 C -0.00429 0.88907 0.16884 0.0
C930 C 0.98213 0.88255 0.18805 0.0
C931 C 0.97683 0.88771 0.23425 0.0
C932 C 0.98504 0.89939 0.26042 0.0
C933 C -0.00077 0.90509 0.2412 0.0
H934 H 0.33903 0.73542 0.47185 0.0
H935 H 0.32509 0.77671 0.55378 0.0
H936 H 0.32136 0.7909 0.47541 0.0
H937 H 0.35938 0.75613 0.37083 0.0
H938 H 0.35272 0.74245 0.32492 0.0
H939 H 0.35583 0.7361 0.38769 0.0
H940 H 0.32748 0.72583 0.39117 0.0
H941 H 0.32419 0.73236 0.32878 0.0
H942 H 0.31163 0.73897 0.37794 0.0
H943 H 0.31668 0.7998 0.38849 0.0
H944 H 0.31331 0.80336 0.29837 0.0
H945 H 0.33042 0.75633 0.27369 0.0
C946 C 0.33556 0.74755 0.47341 0.0
C947 C 0.33238 0.75494 0.51896 0.0
C948 C 0.32762 0.77079 0.51931 0.0
C949 C 0.32545 0.77896 0.47501 0.0
C950 C 0.32818 0.77116 0.43073 0.0
C951 C 0.33332 0.75588 0.42956 0.0
C952 C 0.33468 0.74997 0.37703 0.0
C953 C 0.35166 0.74593 0.36438 0.0
C954 C 0.32385 0.73596 0.36824 0.0
C955 C 0.32922 0.76422 0.34898 0.0
C956 C 0.32555 0.77633 0.38058 0.0
C957 C 0.31969 0.79047 0.36328 0.0
C958 C 0.31773 0.79235 0.31214 0.0
C959 C 0.32164 0.78014 0.27916 0.0
C960 C 0.32741 0.76591 0.298 0.0
H961 H 0.47901 0.11372 0.69165 0.0
H962 H 0.52809 0.11468 0.65465 0.0
H963 H 0.52141 0.11958 0.56725 0.0
H964 H 0.4689 0.09052 0.604 0.0
H965 H 0.45016 0.09872 0.58906 0.0
H966 H 0.45815 0.10153 0.64951 0.0
H967 H 0.45598 0.13151 0.64004 0.0
H968 H 0.44755 0.12884 0.57958 0.0
H969 H 0.46449 0.14099 0.58697 0.0
H970 H 0.50968 0.11731 0.48326 0.0
H971 H 0.49423 0.10832 0.41167 0.0
H972 H 0.45301 0.10662 0.50389 0.0
C973 C 0.48838 0.1157 0.66556 0.0
C974 C 0.50405 0.11377 0.6798 0.0
C975 C 0.51599 0.11625 0.64462 0.0
C976 C 0.51229 0.11904 0.59482 0.0
C977 C 0.49662 0.11949 0.58121 0.0
C978 C 0.48484 0.11815 0.6159 0.0
C979 C 0.46915 0.11586 0.59167 0.0
C980 C 0.46115 0.10077 0.60961 0.0
C981 C 0.45868 0.13016 0.60005 0.0
C982 C 0.47408 0.11469 0.53822 0.0
C983 C 0.48985 0.11747 0.53257 0.0
C984 C 0.49728 0.11551 0.48709 0.0
C985 C 0.48844 0.11032 0.44678 0.0
C986 C 0.47247 0.10673 0.45272 0.0
C987 C 0.46518 0.10932 0.49861 0.0
H988 H 0.16395 0.78774 0.68457 0.0
H989 H 0.13075 0.75468 0.7452 0.0
H990 H 0.13026 0.74068 0.66571 0.0
H991 H 0.14837 0.78774 0.55564 0.0
H992 H 0.16761 0.78898 0.52929 0.0
H993 H 0.16361 0.79775 0.58855 0.0
H994 H 0.18618 0.78182 0.6273 0.0
H995 H 0.19014 0.7729 0.56844 0.0
H996 H 0.18618 0.76087 0.62169 0.0
H997 H 0.13593 0.72836 0.58487 0.0
H998 H 0.14649 0.71914 0.50521 0.0
H999 H 0.17582 0.76031 0.49666 0.0
C1000 C 0.15628 0.7778 0.68065 0.0
C1001 C 0.1474 0.77227 0.72085 0.0
C1002 C 0.13767 0.75909 0.71473 0.0
C1003 C 0.13726 0.75109 0.66973 0.0
C1004 C 0.14655 0.75653 0.63126 0.0
C1005 C 0.15575 0.76966 0.63598 0.0
C1006 C 0.16557 0.77229 0.59027 0.0
C1007 C 0.16101 0.7876 0.56441 0.0
C1008 C 0.18304 0.77194 0.60269 0.0
C1009 C 0.16083 0.75827 0.55997 0.0
C1010 C 0.14975 0.74941 0.58409 0.0
C1011 C 0.1444 0.73532 0.56509 0.0
C1012 C 0.15054 0.73014 0.52006 0.0
C1013 C 0.16191 0.73906 0.49476 0.0
C1014 C 0.16698 0.75336 0.51486 0.0
H1015 H 0.46362 0.91761 0.9727 0.0
H1016 H 0.50322 0.90062 0.05668 0.0
H1017 H 0.51947 0.90159 0.98176 0.0
H1018 H 0.47162 0.89578 0.86367 0.0
H1019 H 0.46549 0.91092 0.8217 0.0
H1020 H 0.45708 0.90972 0.8826 0.0
H1021 H 0.46522 0.93832 0.89987 0.0
H1022 H 0.47365 0.93961 0.83895 0.0
H1023 H 0.48531 0.94392 0.89259 0.0
H1024 H 0.53133 0.90378 0.898 0.0
H1025 H 0.53781 0.90647 0.80939 0.0
H1026 H 0.49044 0.92157 0.7798 0.0
C1027 C 0.47573 0.91422 0.9753 0.0
C1028 C 0.48217 0.90908 0.02038 0.0
C1029 C 0.49803 0.90458 0.0224 0.0
C1030 C 0.50739 0.90514 0.98014 0.0
C1031 C 0.5007 0.91017 0.93618 0.0
C1032 C 0.48525 0.9146 0.93334 0.0
C1033 C 0.48084 0.919 0.88104 0.0
C1034 C 0.468 0.90821 0.86109 0.0
C1035 C 0.47597 0.93624 0.87795 0.0
C1036 C 0.49618 0.91618 0.85505 0.0
C1037 C 0.50751 0.91121 0.88756 0.0
C1038 C 0.52258 0.90771 0.87207 0.0
C1039 C 0.52615 0.90927 0.82174 0.0
C1040 C 0.51463 0.91419 0.7877 0.0
C1041 C 0.4995 0.91774 0.80484 0.0
H1042 H 0.34434 0.2268 0.03363 0.0
H1043 H 0.35951 0.27406 0.06377 0.0
H1044 H 0.36677 0.26624 0.14833 0.0
H1045 H 0.32413 0.22254 0.13227 0.0
H1046 H 0.32811 0.20231 0.14546 0.0
H1047 H 0.32988 0.2094 0.08344 0.0
H1048 H 0.35844 0.19985 0.0791 0.0
H1049 H 0.3567 0.19236 0.14124 0.0
H1050 H 0.3721 0.2058 0.12598 0.0
H1051 H 0.36516 0.25578 0.23324 0.0
H1052 H 0.35525 0.24362 0.30972 0.0
H1053 H 0.33992 0.20347 0.22551 0.0
C1054 C 0.34987 0.23534 0.05726 0.0
C1055 C 0.35126 0.25104 0.04231 0.0
C1056 C 0.35837 0.26193 0.07438 0.0
C1057 C 0.36259 0.25756 0.12251 0.0
C1058 C 0.35981 0.24225 0.13756 0.0
C1059 C 0.35387 0.23119 0.10545 0.0
C1060 C 0.349 0.21653 0.13252 0.0
C1061 C 0.33177 0.21249 0.12286 0.0
C1062 C 0.3597 0.20283 0.11891 0.0
C1063 C 0.35163 0.22165 0.18526 0.0
C1064 C 0.35849 0.23623 0.18743 0.0
C1065 C 0.36023 0.24417 0.23206 0.0
C1066 C 0.35447 0.23722 0.27527 0.0
C1067 C 0.34676 0.22266 0.27321 0.0
C1068 C 0.34584 0.21459 0.22798 0.0
H1069 H 0.01233 0.08003 0.44289 0.0
H1070 H 0.05434 0.05215 0.43046 0.0
H1071 H 0.05086 0.05107 0.33956 0.0
H1072 H 0.9906 0.06001 0.35198 0.0
H1073 H 0.98105 0.07731 0.32932 0.0
H1074 H 0.98741 0.07636 0.39263 0.0
H1075 H 0.00347 0.10167 0.37996 0.0
H1076 H -0.00277 0.10263 0.31643 0.0
H1077 H 0.01769 0.10255 0.33095 0.0
H1078 H 0.04195 0.05225 0.25019 0.0
H1079 H 0.02807 0.05489 0.17059 0.0
H1080 H 0.99225 0.08231 0.24342 0.0
C1081 C 0.02087 0.07375 0.42114 0.0
C1082 C 0.03361 0.06617 0.44365 0.0
C1083 C 0.04449 0.05804 0.41387 0.0
C1084 C 0.04263 0.05741 0.36228 0.0
C1085 C 0.0299 0.06504 0.34131 0.0
C1086 C 0.01922 0.07303 0.36991 0.0
C1087 C 0.00626 0.07981 0.33891 0.0
C1088 C 0.9904 0.07296 0.35412 0.0
C1089 C 0.00616 0.09773 0.34174 0.0
C1090 C 0.01117 0.07422 0.28829 0.0
C1091 C 0.02487 0.06579 0.29025 0.0
C1092 C 0.03128 0.05893 0.24818 0.0
C1093 C 0.02332 0.06051 0.20314 0.0
C1094 C 0.00909 0.06886 0.20068 0.0
C1095 C 0.00316 0.07599 0.24381 0.0
H1096 H 0.8423 0.72853 0.00779 0.0
H1097 H 0.83723 0.77224 0.92845 0.0
H1098 H 0.84323 0.78671 0.00452 0.0
H1099 H 0.82272 0.73896 0.10775 0.0
H1100 H 0.83445 0.72926 0.15367 0.0
H1101 H 0.83416 0.72209 0.09135 0.0
H1102 H 0.86415 0.72458 0.08576 0.0
H1103 H 0.86459 0.73157 0.14865 0.0
H1104 H 0.8733 0.74295 0.09985 0.0
H1105 H 0.84303 0.79626 0.08998 0.0
H1106 H 0.83872 0.80023 0.17941 0.0
H1107 H 0.84479 0.75064 0.20452 0.0
C1108 C 0.84315 0.74112 0.00602 0.0
C1109 C 0.83929 0.74927 0.9624 0.0
C1110 C 0.84011 0.76576 0.96162 0.0
C1111 C 0.84361 0.7741 0.00457 0.0
C1112 C 0.84647 0.76576 0.04778 0.0
C1113 C 0.84658 0.74962 0.04874 0.0
C1114 C 0.84778 0.74353 0.10118 0.0
C1115 C 0.83395 0.73284 0.11421 0.0
C1116 C 0.86339 0.73517 0.10933 0.0
C1117 C 0.84713 0.75872 0.12954 0.0
C1118 C 0.8467 0.77142 0.09801 0.0
C1119 C 0.8439 0.78649 0.1152 0.0
C1120 C 0.84132 0.78862 0.16587 0.0
C1121 C 0.8416 0.77575 0.19852 0.0
C1122 C 0.84492 0.76071 0.1803 0.0
H1123 H -0.0043 0.08859 0.94374 0.0
H1124 H 0.94568 0.08692 0.92292 0.0
H1125 H 0.9493 0.09176 0.83351 0.0
H1126 H 0.0043 0.11834 0.84603 0.0
H1127 H 0.02198 0.10849 0.82831 0.0
H1128 H 0.01534 0.1077 0.89157 0.0
H1129 H 0.01585 0.07746 0.88873 0.0
H1130 H 0.0226 0.07818 0.8259 0.0
H1131 H 0.00519 0.06746 0.84091 0.0
H1132 H 0.95845 0.093 0.74608 0.0
H1133 H 0.97232 0.08873 0.66735 0.0
H1134 H 0.01641 0.08983 0.74533 0.0
C1135 C 0.98548 0.0896 0.92057 0.0
C1136 C 0.97041 0.08743 0.94015 0.0
C1137 C 0.95734 0.08856 0.90858 0.0
C1138 C 0.95928 0.09144 0.85787 0.0
C1139 C 0.97434 0.09328 0.83957 0.0
C1140 C 0.98722 0.09241 0.87001 0.0
C1141 C 0.0022 0.09291 0.84059 0.0
C1142 C 0.0115 0.10775 0.85233 0.0
C1143 C 0.01202 0.07812 0.84955 0.0
C1144 C -0.00426 0.0934 0.78861 0.0
C1145 C 0.97965 0.09399 0.78882 0.0
C1146 C 0.97104 0.09286 0.74537 0.0
C1147 C 0.97903 0.09042 0.70082 0.0
C1148 C 0.99545 0.08901 0.70021 0.0
C1149 C 0.00388 0.09119 0.74443 0.0
H1150 H 0.65771 0.24809 0.51931 0.0
H1151 H 0.68006 0.20984 0.44174 0.0
H1152 H 0.67922 0.19401 0.51795 0.0
H1153 H 0.67884 0.24486 0.6249 0.0
H1154 H 0.6634 0.24964 0.66746 0.0
H1155 H 0.66276 0.25684 0.60506 0.0
H1156 H 0.63568 0.2442 0.59242 0.0
H1157 H 0.63612 0.2371 0.6552 0.0
H1158 H 0.63311 0.22369 0.60479 0.0
H1159 H 0.67952 0.18387 0.60478 0.0
H1160 H 0.6805 0.18012 0.69542 0.0
H1161 H 0.65841 0.2252 0.71613 0.0
C1162 C 0.66191 0.23619 0.51786 0.0
C1163 C 0.66885 0.23015 0.47456 0.0
C1164 C 0.67463 0.21467 0.47452 0.0
C1165 C 0.67417 0.20557 0.51757 0.0
C1166 C 0.66782 0.2121 0.56024 0.0
C1167 C 0.66166 0.22701 0.5606 0.0
C1168 C 0.65714 0.23196 0.61237 0.0
C1169 C 0.66608 0.24669 0.62836 0.0
C1170 C 0.63946 0.23437 0.61642 0.0
C1171 C 0.66232 0.21778 0.64128 0.0
C1172 C 0.6682 0.20634 0.61053 0.0
C1173 C 0.67469 0.19263 0.62919 0.0
C1174 C 0.67526 0.19064 0.68067 0.0
C1175 C 0.66953 0.20237 0.71272 0.0
C1176 C 0.66279 0.21597 0.69256 0.0
H1177 H 0.51588 0.89073 0.27611 0.0
H1178 H 0.46751 0.88368 0.31619 0.0
H1179 H 0.4755 0.87759 0.40172 0.0
H1180 H 0.53394 0.86247 0.37115 0.0
H1181 H 0.54974 0.87593 0.38084 0.0
H1182 H 0.54096 0.87422 0.32052 0.0
H1183 H 0.53582 0.904 0.32022 0.0
H1184 H 0.54424 0.90579 0.38051 0.0
H1185 H 0.52466 0.91255 0.36983 0.0
H1186 H 0.48769 0.87896 0.48464 0.0
H1187 H 0.50279 0.88754 0.55709 0.0
H1188 H 0.54304 0.89522 0.46328 0.0
C1189 C 0.507 0.88727 0.30234 0.0
C1190 C 0.49109 0.88774 0.28967 0.0
C1191 C 0.47979 0.8833 0.32506 0.0
C1192 C 0.48424 0.87978 0.37372 0.0
C1193 C 0.5 0.88058 0.38592 0.0
C1194 C 0.51125 0.88399 0.35091 0.0
C1195 C 0.52691 0.88706 0.37443 0.0
C1196 C 0.53857 0.87415 0.36094 0.0
C1197 C 0.53325 0.90331 0.36043 0.0
C1198 C 0.52245 0.8862 0.42836 0.0
C1199 C 0.50705 0.88185 0.43431 0.0
C1200 C 0.49985 0.88196 0.48052 0.0
C1201 C 0.5085 0.88695 0.52139 0.0
C1202 C 0.52405 0.8921 0.51548 0.0
C1203 C 0.5312 0.89126 0.4687 0.0
H1204 H 0.82963 0.21358 0.31379 0.0
H1205 H 0.86172 0.24571 0.24286 0.0
H1206 H 0.8641 0.26046 0.32037 0.0
H1207 H 0.80927 0.24177 0.38066 0.0
H1208 H 0.80651 0.23017 0.4356 0.0
H1209 H 0.80869 0.22079 0.37648 0.0
H1210 H 0.83184 0.20459 0.41025 0.0
H1211 H 0.82965 0.21385 0.4697 0.0
H1212 H 0.84813 0.21446 0.43812 0.0
H1213 H 0.86108 0.27328 0.40113 0.0
H1214 H 0.85338 0.28309 0.48325 0.0
H1215 H 0.82332 0.24282 0.503 0.0
C1216 C 0.83741 0.2235 0.31508 0.0
C1217 C 0.84549 0.22853 0.27256 0.0
C1218 C 0.85537 0.24172 0.27513 0.0
C1219 C 0.85687 0.25014 0.31898 0.0
C1220 C 0.84845 0.24518 0.35993 0.0
C1221 C 0.83899 0.23214 0.35868 0.0
C1222 C 0.8304 0.23007 0.40716 0.0
C1223 C 0.81267 0.23074 0.39949 0.0
C1224 C 0.8353 0.21484 0.43283 0.0
C1225 C 0.83623 0.2442 0.43507 0.0
C1226 C 0.84672 0.25267 0.40721 0.0
C1227 C 0.85305 0.26666 0.42376 0.0
C1228 C 0.84854 0.27217 0.47028 0.0
C1229 C 0.83781 0.26368 0.49953 0.0
C1230 C 0.83169 0.24947 0.48171 0.0
H1231 H 0.47538 0.10523 0.15594 0.0
H1232 H 0.47012 0.05566 0.18124 0.0
H1233 H 0.47967 0.05025 0.09668 0.0
H1234 H 0.46505 0.10416 0.01866 0.0
H1235 H 0.47919 0.11908 0.00504 0.0
H1236 H 0.46923 0.11905 0.06379 0.0
H1237 H 0.49587 0.11904 0.10849 0.0
H1238 H 0.50592 0.11867 0.05014 0.0
H1239 H 0.50967 0.10372 0.0955 0.0
H1240 H 0.49478 0.0501 0.01831 0.0
H1241 H 0.5107 0.0554 0.94377 0.0
H1242 H 0.50458 0.10509 0.96617 0.0
C1243 C 0.47555 0.09334 0.1425 0.0
C1244 C 0.47176 0.08083 0.17396 0.0
C1245 C 0.47267 0.06532 0.15666 0.0
C1246 C 0.47813 0.06216 0.10895 0.0
C1247 C 0.48241 0.0747 0.07916 0.0
C1248 C 0.48079 0.09001 0.09463 0.0
C1249 C 0.48737 0.10125 0.05683 0.0
C1250 C 0.47444 0.11149 0.03476 0.0
C1251 C 0.50048 0.11125 0.0791 0.0
C1252 C 0.49362 0.08984 0.01905 0.0
C1253 C 0.49067 0.07458 0.03264 0.0
C1254 C 0.49678 0.06199 0.0064 0.0
C1255 C 0.50593 0.06508 0.96461 0.0
C1256 C 0.50866 0.08062 0.94944 0.0
C1257 C 0.50237 0.09311 0.97679 0.0
H1258 H 0.66833 0.75486 0.96279 0.0
H1259 H 0.64819 0.70922 0.93503 0.0
H1260 H 0.64918 0.71439 0.84516 0.0
H1261 H 0.64832 0.77535 0.86809 0.0
H1262 H 0.66466 0.78759 0.85256 0.0
H1263 H 0.66262 0.7801 0.91443 0.0
H1264 H 0.69019 0.76793 0.90858 0.0
H1265 H 0.69226 0.77526 0.84644 0.0
H1266 H 0.69468 0.75473 0.85866 0.0
H1267 H 0.65139 0.72482 0.75978 0.0
H1268 H 0.65407 0.74008 0.68313 0.0
H1269 H 0.67362 0.77864 0.76639 0.0
C1270 C 0.66404 0.74595 0.93792 0.0
C1271 C 0.6581 0.73166 0.95581 0.0
C1272 C 0.65276 0.72026 0.92203 0.0
C1273 C 0.65333 0.72306 0.87103 0.0
C1274 C 0.65941 0.73722 0.85473 0.0
C1275 C 0.66467 0.74847 0.88709 0.0
C1276 C 0.67044 0.76281 0.86007 0.0
C1277 C 0.66094 0.77731 0.87465 0.0
C1278 C 0.68793 0.76532 0.86897 0.0
C1279 C 0.66729 0.75799 0.8073 0.0
C1280 C 0.66102 0.74314 0.80516 0.0
C1281 C 0.65641 0.73639 0.76087 0.0
C1282 C 0.65796 0.74516 0.71763 0.0
C1283 C 0.66411 0.76049 0.71908 0.0
C1284 C 0.66911 0.76686 0.76432 0.0
H1285 H 0.97726 0.91425 0.51876 0.0
H1286 H 0.92995 0.93047 0.54229 0.0
H1287 H 0.93405 0.92931 0.63272 0.0
H1288 H 0.97872 0.88744 0.62032 0.0
H1289 H -0.00135 0.89177 0.6357 0.0
H1290 H 0.99203 0.89381 0.57283 0.0
H1291 H 0.00127 0.92258 0.57158 0.0
H1292 H 0.00808 0.92058 0.63422 0.0
H1293 H 0.99446 0.93581 0.6187 0.0
H1294 H 0.94312 0.92593 0.71969 0.0
H1295 H 0.95713 0.92282 0.79832 0.0
H1296 H -0.00119 0.9092 0.71793 0.0
C1297 C 0.96776 0.91759 0.54292 0.0
C1298 C 0.95326 0.92241 0.52369 0.0
C1299 C 0.94115 0.92678 0.55638 0.0
C1300 C 0.94335 0.92608 0.60769 0.0
C1301 C 0.95773 0.92106 0.62541 0.0
C1302 C 0.96978 0.91705 0.59407 0.0
C1303 C 0.98421 0.91241 0.62258 0.0
C1304 C 0.98866 0.89534 0.61223 0.0
C1305 C -0.0022 0.92351 0.61109 0.0
C1306 C 0.97839 0.91447 0.67499 0.0
C1307 C 0.96305 0.91933 0.67571 0.0
C1308 C 0.95514 0.92216 0.71966 0.0
C1309 C 0.96322 0.92031 0.76414 0.0
C1310 C 0.97911 0.91578 0.76436 0.0
C1311 C 0.98668 0.9126 0.71908 0.0
H1312 H 0.63137 0.73078 0.46837 0.0
H1313 H 0.6339 0.78003 0.43258 0.0
H1314 H 0.62785 0.77396 0.34563 0.0
H1315 H 0.65339 0.71945 0.38001 0.0
H1316 H 0.64402 0.70131 0.36445 0.0
H1317 H 0.64183 0.70921 0.42532 0.0
H1318 H 0.61183 0.70906 0.41669 0.0
H1319 H 0.61385 0.70067 0.35584 0.0
H1320 H 0.60284 0.71838 0.36421 0.0
H1321 H 0.62903 0.7625 0.26197 0.0
H1322 H 0.63706 0.74691 0.18974 0.0
H1323 H 0.63634 0.70501 0.27957 0.0
C1324 C 0.62991 0.74039 0.44278 0.0
C1325 C 0.63321 0.75586 0.45713 0.0
C1326 C 0.63136 0.76808 0.42246 0.0
C1327 C 0.62789 0.76473 0.37293 0.0
C1328 C 0.6262 0.74914 0.35901 0.0
C1329 C 0.62691 0.73715 0.39323 0.0
C1330 C 0.62815 0.72139 0.36836 0.0
C1331 C 0.64271 0.71234 0.38554 0.0
C1332 C 0.61328 0.71181 0.37676 0.0
C1333 C 0.62953 0.72645 0.31507 0.0
C1334 C 0.62767 0.74241 0.31017 0.0
C1335 C 0.63008 0.74996 0.26517 0.0
C1336 C 0.63476 0.74102 0.22446 0.0
C1337 C 0.63738 0.72479 0.22948 0.0
C1338 C 0.63436 0.7174 0.27495 0.0
H1339 H 0.50219 0.43504 0.727 0.0
H1340 H 0.4638 0.40211 0.73209 0.0
H1341 H 0.47374 0.38939 0.65687 0.0
H1342 H 0.50219 0.44019 0.59818 0.0
H1343 H 0.52304 0.44156 0.5922 0.0
H1344 H 0.51375 0.44723 0.64909 0.0
H1345 H 0.53124 0.42787 0.69739 0.0
H1346 H 0.54054 0.42207 0.64049 0.0
H1347 H 0.5316 0.4076 0.6797 0.0
H1348 H 0.48634 0.38153 0.57871 0.0
H1349 H 0.50051 0.37954 0.49966 0.0
H1350 H 0.53105 0.41719 0.54496 0.0
C1351 C 0.49597 0.42505 0.71261 0.0
C1352 C 0.48223 0.41956 0.73547 0.0
C1353 C 0.47434 0.40655 0.71521 0.0
C1354 C 0.47994 0.39917 0.67267 0.0
C1355 C 0.49347 0.40489 0.65101 0.0
C1356 C 0.5014 0.41753 0.67011 0.0
C1357 C 0.51509 0.42194 0.63772 0.0
C1358 C 0.5134 0.43872 0.61814 0.0
C1359 C 0.53053 0.41973 0.66549 0.0
C1360 C 0.51334 0.41007 0.59672 0.0
C1361 C 0.50089 0.40024 0.60554 0.0
C1362 C 0.49624 0.389 0.5716 0.0
C1363 C 0.50433 0.38798 0.52684 0.0
C1364 C 0.51688 0.39816 0.51654 0.0
C1365 C 0.52167 0.40909 0.55238 0.0
H1366 H 0.83085 0.29748 0.81894 0.0
H1367 H 0.85882 0.26467 0.73482 0.0
H1368 H 0.86585 0.25099 0.81165 0.0
H1369 H 0.85609 0.29782 0.93251 0.0
H1370 H 0.8394 0.29883 0.97283 0.0
H1371 H 0.83868 0.3077 0.91237 0.0
H1372 H 0.81403 0.29156 0.89167 0.0
H1373 H 0.8147 0.28264 0.9518 0.0
H1374 H 0.81467 0.27061 0.89716 0.0
H1375 H 0.86671 0.23862 0.89442 0.0
H1376 H 0.86149 0.22862 0.9785 0.0
H1377 H 0.83334 0.26961 0.00912 0.0
C1378 C 0.83878 0.28769 0.81696 0.0
C1379 C 0.84428 0.28212 0.77113 0.0
C1380 C 0.85443 0.2691 0.76971 0.0
C1381 C 0.85859 0.26131 0.81312 0.0
C1382 C 0.85262 0.26677 0.85766 0.0
C1383 C 0.84304 0.27974 0.86003 0.0
C1384 C 0.83695 0.28223 0.91191 0.0
C1385 C 0.84315 0.29756 0.93369 0.0
C1386 C 0.81903 0.28172 0.91317 0.0
C1387 C 0.84401 0.26824 0.93759 0.0
C1388 C 0.85322 0.25961 0.9059 0.0
C1389 C 0.85981 0.24543 0.92001 0.0
C1390 C 0.85672 0.23982 0.9677 0.0
C1391 C 0.84708 0.24837 0.00038 0.0
C1392 C 0.84096 0.2629 0.98529 0.0
H1393 H 0.97312 0.57883 0.26582 0.0
H1394 H 0.00811 0.61524 0.26486 0.0
H1395 H -0.00148 0.62429 0.18384 0.0
H1396 H 0.97857 0.56767 0.14976 0.0
H1397 H 0.95865 0.5633 0.13429 0.0
H1398 H 0.96486 0.56245 0.19756 0.0
H1399 H 0.9434 0.58217 0.22257 0.0
H1400 H 0.93693 0.58295 0.15918 0.0
H1401 H 0.94209 0.60066 0.19105 0.0
H1402 H 0.98945 0.62569 0.09787 0.0
H1403 H 0.98151 0.61946 0.01269 0.0
H1404 H 0.95254 0.58181 0.06749 0.0
C1405 C 0.97828 0.58916 0.2496 0.0
C1406 C 0.99124 0.59646 0.27169 0.0
C1407 C -0.00191 0.60957 0.2486 0.0
C1408 C 0.99266 0.61484 0.20274 0.0
C1409 C 0.98035 0.60688 0.18065 0.0
C1410 C 0.97313 0.5944 0.20349 0.0
C1411 C 0.96198 0.58624 0.16868 0.0
C1412 C 0.96629 0.5689 0.1622 0.0
C1413 C 0.94509 0.58813 0.18643 0.0
C1414 C 0.96485 0.59544 0.12178 0.0
C1415 C 0.97517 0.60755 0.1299 0.0
C1416 C 0.98105 0.61653 0.09126 0.0
C1417 C 0.97657 0.61282 0.04299 0.0
C1418 C 0.96638 0.60019 0.03376 0.0
C1419 C 0.96009 0.59171 0.07374 0.0
H1420 H 0.665 0.24623 0.21862 0.0
H1421 H 0.67355 0.29564 0.19664 0.0
H1422 H 0.67247 0.29173 0.10592 0.0
H1423 H 0.68833 0.23278 0.12031 0.0
H1424 H 0.6755 0.21698 0.1041 0.0
H1425 H 0.67604 0.22402 0.16673 0.0
H1426 H 0.64626 0.22889 0.16389 0.0
H1427 H 0.64566 0.22197 0.10099 0.0
H1428 H 0.63824 0.24107 0.11588 0.0
H1429 H 0.67181 0.28198 0.01781 0.0
H1430 H 0.67276 0.26718 0.93959 0.0
H1431 H 0.66424 0.22427 0.02063 0.0
C1432 C 0.66656 0.25627 0.19483 0.0
C1433 C 0.66937 0.27125 0.21458 0.0
C1434 C 0.6714 0.28406 0.18218 0.0
C1435 C 0.67073 0.28196 0.13071 0.0
C1436 C 0.66792 0.26701 0.11251 0.0
C1437 C 0.66589 0.2544 0.14366 0.0
C1438 C 0.66371 0.23941 0.11506 0.0
C1439 C 0.67667 0.22761 0.12727 0.0
C1440 C 0.6475 0.23243 0.12452 0.0
C1441 C 0.66516 0.24548 0.06278 0.0
C1442 C 0.66744 0.26144 0.06199 0.0
C1443 C 0.66989 0.26951 0.01796 0.0
C1444 C 0.6704 0.26099 0.97372 0.0
C1445 C 0.66851 0.24456 0.97393 0.0
C1446 C 0.66551 0.23682 0.01905 0.0
H1447 H 0.99128 0.42003 0.44322 0.0
H1448 H 0.94334 0.43467 0.42325 0.0
H1449 H 0.94637 0.43184 0.33255 0.0
H1450 H 0.00668 0.44024 0.33959 0.0
H1451 H 0.02062 0.42523 0.32467 0.0
H1452 H 0.01425 0.42776 0.38759 0.0
H1453 H 0.00584 0.39873 0.39052 0.0
H1454 H 0.01202 0.39617 0.32732 0.0
H1455 H 0.99236 0.39144 0.34506 0.0
H1456 H 0.95499 0.42794 0.24415 0.0
H1457 H 0.96893 0.42544 0.16477 0.0
H1458 H 0.01127 0.41346 0.24375 0.0
C1459 C 0.98138 0.4226 0.41986 0.0
C1460 C 0.96705 0.42754 0.44018 0.0
C1461 C 0.95442 0.4309 0.40834 0.0
C1462 C 0.95601 0.42923 0.3569 0.0
C1463 C 0.97029 0.4242 0.33816 0.0
C1464 C 0.98278 0.42105 0.3687 0.0
C1465 C -0.00291 0.41652 0.33941 0.0
C1466 C 0.01044 0.42813 0.34834 0.0
C1467 C 0.00212 0.39972 0.35129 0.0
C1468 C 0.9908 0.41781 0.28739 0.0
C1469 C 0.97528 0.42207 0.28743 0.0
C1470 C 0.96711 0.42453 0.24368 0.0
C1471 C 0.97515 0.42304 0.19876 0.0
C1472 C 0.99121 0.41923 0.19795 0.0
C1473 C -0.00102 0.41623 0.24296 0.0
H1474 H 0.81602 0.70341 0.66593 0.0
H1475 H 0.85181 0.73231 0.73221 0.0
H1476 H 0.86084 0.74016 0.64976 0.0
H1477 H 0.83899 0.69206 0.55213 0.0
H1478 H 0.82207 0.69337 0.51304 0.0
H1479 H 0.82002 0.68762 0.5769 0.0
H1480 H 0.80014 0.70995 0.59089 0.0
H1481 H 0.80211 0.71571 0.52725 0.0
H1482 H 0.80559 0.72969 0.57575 0.0
H1483 H 0.86337 0.74831 0.56388 0.0
H1484 H 0.85902 0.75646 0.47748 0.0
H1485 H 0.82229 0.72211 0.46365 0.0
C1486 C 0.826 0.71105 0.66279 0.0
C1487 C 0.83323 0.71726 0.70526 0.0
C1488 C 0.84605 0.72749 0.70006 0.0
C1489 C 0.85139 0.73191 0.65338 0.0
C1490 C 0.84382 0.72595 0.61216 0.0
C1491 C 0.83144 0.71571 0.61614 0.0
C1492 C 0.82431 0.71254 0.56589 0.0
C1493 C 0.82648 0.69538 0.55112 0.0
C1494 C 0.80702 0.71726 0.56491 0.0
C1495 C 0.83414 0.7232 0.53377 0.0
C1496 C 0.8455 0.73059 0.56125 0.0
C1497 C 0.85483 0.74232 0.5415 0.0
C1498 C 0.85226 0.74691 0.49259 0.0
C1499 C 0.84053 0.7397 0.4641 0.0
C1500 C 0.83166 0.72742 0.48442 0.0
H1501 H 0.51314 0.57491 0.9239 0.0
H1502 H 0.55589 0.54905 0.89911 0.0
H1503 H 0.55139 0.55037 0.80874 0.0
H1504 H 0.49105 0.55668 0.83069 0.0
H1505 H 0.48063 0.57412 0.81365 0.0
H1506 H 0.48783 0.57186 0.8757 0.0
H1507 H 0.50283 0.59798 0.8675 0.0
H1508 H 0.49576 0.60026 0.8052 0.0
H1509 H 0.51638 0.60059 0.8172 0.0
H1510 H 0.54119 0.55308 0.72167 0.0
H1511 H 0.526 0.55656 0.64494 0.0
H1512 H 0.49036 0.58125 0.72765 0.0
C1513 C 0.52164 0.5696 0.89954 0.0
C1514 C 0.53486 0.56186 0.91845 0.0
C1515 C 0.54567 0.55504 0.88533 0.0
C1516 C 0.54324 0.55578 0.83402 0.0
C1517 C 0.53003 0.56349 0.81665 0.0
C1518 C 0.51943 0.57029 0.84848 0.0
C1519 C 0.50584 0.57732 0.82079 0.0
C1520 C 0.49044 0.56953 0.83612 0.0
C1521 C 0.50517 0.59509 0.82811 0.0
C1522 C 0.51029 0.57318 0.76831 0.0
C1523 C 0.52431 0.56527 0.76662 0.0
C1524 C 0.5303 0.55943 0.72248 0.0
C1525 C 0.52159 0.56146 0.67913 0.0
C1526 C 0.50706 0.5693 0.68028 0.0
C1527 C 0.50155 0.57548 0.72538 0.0
H1528 H 0.32118 0.26235 0.54007 0.0
H1529 H 0.32008 0.21261 0.5711 0.0
H1530 H 0.31767 0.21824 0.66014 0.0
H1531 H 0.34431 0.27294 0.64265 0.0
H1532 H 0.33427 0.29105 0.65413 0.0
H1533 H 0.3349 0.28312 0.59255 0.0
H1534 H 0.30477 0.28386 0.58877 0.0
H1535 H 0.30405 0.29166 0.65062 0.0
H1536 H 0.2936 0.27405 0.63592 0.0
H1537 H 0.31686 0.22894 0.74487 0.0
H1538 H 0.31909 0.24413 0.82172 0.0
H1539 H 0.32029 0.28706 0.73663 0.0
C1540 C 0.32036 0.25263 0.56552 0.0
C1541 C 0.3208 0.23703 0.5486 0.0
C1542 C 0.31978 0.22465 0.58317 0.0
C1543 C 0.31831 0.22772 0.63378 0.0
C1544 C 0.31781 0.24321 0.6491 0.0
C1545 C 0.31886 0.25547 0.61614 0.0
C1546 C 0.31885 0.27103 0.64267 0.0
C1547 C 0.33399 0.28006 0.63239 0.0
C1548 C 0.30446 0.28072 0.62865 0.0
C1549 C 0.31799 0.26556 0.69583 0.0
C1550 C 0.31722 0.24946 0.6985 0.0
C1551 C 0.31729 0.24154 0.74336 0.0
C1552 C 0.31858 0.25028 0.78673 0.0
C1553 C 0.31977 0.26674 0.78488 0.0
C1554 C 0.31909 0.27451 0.73896 0.0
H1555 H 0.49474 0.58347 0.42261 0.0
H1556 H 0.44488 0.58155 0.398 0.0
H1557 H 0.44942 0.58186 0.30762 0.0
H1558 H 0.50443 0.60849 0.31539 0.0
H1559 H 0.52224 0.59803 0.30328 0.0
H1560 H 0.51497 0.5996 0.36567 0.0
H1561 H 0.51537 0.56947 0.37408 0.0
H1562 H 0.52268 0.56783 0.31198 0.0
H1563 H 0.5051 0.55778 0.32939 0.0
H1564 H 0.45949 0.57956 0.22095 0.0
H1565 H 0.47423 0.57396 0.14464 0.0
H1566 H 0.51753 0.5777 0.22625 0.0
C1567 C 0.48475 0.58337 0.39826 0.0
C1568 C 0.46945 0.5825 0.41722 0.0
C1569 C 0.4567 0.58223 0.38418 0.0
C1570 C 0.45916 0.58249 0.33286 0.0
C1571 C 0.47443 0.58316 0.31541 0.0
C1572 C 0.487 0.58363 0.34715 0.0
C1573 C 0.50226 0.58303 0.31925 0.0
C1574 C 0.51152 0.59819 0.32632 0.0
C1575 C 0.51191 0.56867 0.33458 0.0
C1576 C 0.49633 0.58158 0.26683 0.0
C1577 C 0.48025 0.5819 0.26533 0.0
C1578 C 0.47208 0.57953 0.22154 0.0
C1579 C 0.48057 0.57633 0.17842 0.0
C1580 C 0.49703 0.57548 0.17948 0.0
C1581 C 0.50498 0.57857 0.22406 0.0
H1582 H 0.16724 0.70389 0.1792 0.0
H1583 H 0.15157 0.7421 0.27226 0.0
H1584 H 0.14237 0.75624 0.19892 0.0
H1585 H 0.18207 0.72737 0.08411 0.0
H1586 H 0.17624 0.71467 0.03438 0.0
H1587 H 0.18002 0.70671 0.09473 0.0
H1588 H 0.15242 0.69447 0.09591 0.0
H1589 H 0.14853 0.70256 0.0356 0.0
H1590 H 0.13565 0.70677 0.08658 0.0
H1591 H 0.13699 0.76737 0.11628 0.0
H1592 H 0.13717 0.77527 0.02849 0.0
H1593 H 0.15593 0.72991 -0.01141 0.0
C1594 C 0.1617 0.71513 0.18406 0.0
C1595 C 0.16011 0.72186 0.23135 0.0
C1596 C 0.15294 0.73669 0.23632 0.0
C1597 C 0.14755 0.7448 0.19493 0.0
C1598 C 0.14934 0.73791 0.1488 0.0
C1599 C 0.15626 0.72345 0.14297 0.0
C1600 C 0.15787 0.71932 0.08883 0.0
C1601 C 0.17507 0.71688 0.0747 0.0
C1602 C 0.14803 0.70492 0.07599 0.0
C1603 C 0.15125 0.73393 0.0654 0.0
C1604 C 0.14617 0.7444 0.10064 0.0
C1605 C 0.1407 0.7592 0.08815 0.0
C1606 C 0.14085 0.76358 0.03823 0.0
C1607 C 0.1465 0.75321 0.00167 0.0
C1608 C 0.15132 0.73805 0.01551 0.0
H1609 H 0.98614 0.40614 0.74058 0.0
H1610 H 0.02898 0.41687 0.66269 0.0
H1611 H 0.0438 0.41273 0.73954 0.0
H1612 H 0.99374 0.42717 0.84067 0.0
H1613 H 0.98532 0.41437 0.88633 0.0
H1614 H 0.97843 0.41385 0.82371 0.0
H1615 H 0.98443 0.38429 0.81825 0.0
H1616 H 0.99109 0.3846 0.88148 0.0
H1617 H 0.00363 0.37728 0.8333 0.0
H1618 H 0.05306 0.41326 0.82636 0.0
H1619 H 0.05627 0.41672 0.91646 0.0
H1620 H 0.00747 0.40571 0.93829 0.0
C1621 C -0.00129 0.40688 0.73916 0.0
C1622 C 0.00642 0.41174 0.69569 0.0
C1623 C 0.02285 0.41309 0.69561 0.0
C1624 C 0.03137 0.41072 0.73907 0.0
C1625 C 0.02332 0.40687 0.7821 0.0
C1626 C 0.00736 0.40468 0.78235 0.0
C1627 C 0.00123 0.40275 0.83452 0.0
C1628 C 0.98897 0.41528 0.847 0.0
C1629 C 0.99471 0.38624 0.84234 0.0
C1630 C 0.01605 0.40514 0.8636 0.0
C1631 C 0.02872 0.4072 0.83272 0.0
C1632 C 0.04333 0.41125 0.85099 0.0
C1633 C 0.04501 0.41331 0.90213 0.0
C1634 C 0.03213 0.41141 0.93423 0.0
C1635 C 0.01757 0.407 0.91467 0.0
H1636 H 0.32417 0.7273 0.00919 0.0
H1637 H 0.35701 0.7657 0.0066 0.0
H1638 H 0.36714 0.75646 0.92644 0.0
H1639 H 0.34928 0.69795 0.93974 0.0
H1640 H 0.33255 0.69056 0.90715 0.0
H1641 H 0.33048 0.6978 0.96943 0.0
H1642 H 0.30905 0.71689 0.93977 0.0
H1643 H 0.31112 0.70985 0.87758 0.0
H1644 H 0.31332 0.73036 0.89032 0.0
H1645 H 0.37013 0.74656 0.84182 0.0
H1646 H 0.36582 0.73665 0.75748 0.0
H1647 H 0.33101 0.7045 0.81314 0.0
C1648 C 0.33392 0.73339 -0.00734 0.0
C1649 C 0.33992 0.74713 0.01418 0.0
C1650 C 0.35231 0.7551 -0.00924 0.0
C1651 C 0.3582 0.74988 0.94542 0.0
C1652 C 0.35161 0.73664 0.92416 0.0
C1653 C 0.33981 0.72841 0.94711 0.0
C1654 C 0.3332 0.71599 0.91326 0.0
C1655 C 0.33659 0.6996 0.93361 0.0
C1656 C 0.31564 0.71843 0.90473 0.0
C1657 C 0.34251 0.71914 0.86673 0.0
C1658 C 0.3533 0.73087 0.8743 0.0
C1659 C 0.36203 0.7371 0.83569 0.0
C1660 C 0.35942 0.73148 0.78792 0.0
C1661 C 0.34817 0.71976 0.77916 0.0
C1662 C 0.33994 0.7132 0.81921 0.0
H1663 H 0.9829 0.59102 0.72576 0.0
H1664 H 0.02629 0.58413 0.80502 0.0
H1665 H 0.04002 0.58034 0.72568 0.0
H1666 H 0.98913 0.56187 0.63773 0.0
H1667 H 0.98033 0.57232 0.58706 0.0
H1668 H 0.97409 0.57607 0.64951 0.0
H1669 H 0.98025 0.6055 0.63908 0.0
H1670 H 0.98618 0.60192 0.57617 0.0
H1671 H -0.00067 0.61138 0.61848 0.0
H1672 H 0.04856 0.57516 0.63805 0.0
H1673 H 0.05167 0.57151 0.54775 0.0
H1674 H 0.00259 0.58161 0.52726 0.0
C1675 C 0.99536 0.58913 0.72649 0.0
C1676 C 0.00353 0.58794 0.77156 0.0
C1677 C 0.01979 0.58514 0.77087 0.0
C1678 C 0.02769 0.58292 0.72604 0.0
C1679 C 0.01915 0.58356 0.68237 0.0
C1680 C 0.00339 0.58679 0.68222 0.0
C1681 C -0.00324 0.58621 0.63052 0.0
C1682 C 0.98435 0.57335 0.62597 0.0
C1683 C 0.99025 0.60221 0.61516 0.0
C1684 C 0.01126 0.58211 0.60163 0.0
C1685 C 0.02405 0.58055 0.63211 0.0
C1686 C 0.03866 0.57648 0.61371 0.0
C1687 C 0.04029 0.57433 0.56252 0.0
C1688 C 0.02739 0.57633 0.53065 0.0
C1689 C 0.01269 0.58007 0.55071 0.0
H1690 H 0.13671 0.28792 0.28556 0.0
H1691 H 0.13654 0.24511 0.20044 0.0
H1692 H 0.12572 0.23097 0.2721 0.0
H1693 H 0.15079 0.27373 0.38848 0.0
H1694 H 0.13932 0.28498 0.4315 0.0
H1695 H 0.14267 0.29228 0.37041 0.0
H1696 H 0.11289 0.29461 0.35683 0.0
H1697 H 0.10947 0.2871 0.41825 0.0
H1698 H 0.10065 0.27776 0.36558 0.0
H1699 H 0.12204 0.22055 0.35629 0.0
H1700 H 0.12645 0.21497 0.44452 0.0
H1701 H 0.12686 0.26461 0.47523 0.0
C1702 C 0.13391 0.27567 0.28169 0.0
C1703 C 0.13751 0.26756 0.23792 0.0
C1704 C 0.13381 0.25153 0.23384 0.0
C1705 C 0.12753 0.24344 0.2742 0.0
C1706 C 0.12464 0.25164 0.31776 0.0
C1707 C 0.12745 0.2675 0.32141 0.0
C1708 C 0.12563 0.27317 0.37398 0.0
C1709 C 0.14049 0.2815 0.39212 0.0
C1710 C 0.1113 0.28378 0.37894 0.0
C1711 C 0.12305 0.25779 0.40011 0.0
C1712 C 0.12195 0.24555 0.36697 0.0
C1713 C 0.12234 0.23004 0.38264 0.0
C1714 C 0.12488 0.22697 0.43293 0.0
C1715 C 0.12712 0.23938 0.46665 0.0
C1716 C 0.12506 0.25488 0.4504 0.0
H1717 H 0.47386 0.40961 0.24782 0.0
H1718 H 0.51848 0.38942 0.20729 0.0
H1719 H 0.51205 0.39287 0.11919 0.0
H1720 H 0.45134 0.3938 0.14098 0.0
H1721 H 0.43996 0.4114 0.13583 0.0
H1722 H 0.44709 0.4052 0.19537 0.0
H1723 H 0.46028 0.43212 0.20675 0.0
H1724 H 0.45354 0.43831 0.14689 0.0
H1725 H 0.47402 0.43888 0.16105 0.0
H1726 H 0.50271 0.40185 0.03769 0.0
H1727 H 0.48965 0.41302 0.96518 0.0
H1728 H 0.45069 0.42721 0.05748 0.0
C1729 C 0.48208 0.40544 0.22047 0.0
C1730 C 0.49668 0.39922 0.23446 0.0
C1731 C 0.50722 0.39417 0.19748 0.0
C1732 C 0.50368 0.39611 0.14734 0.0
C1733 C 0.48953 0.40298 0.13495 0.0
C1734 C 0.47876 0.40732 0.17028 0.0
C1735 C 0.46486 0.4154 0.14709 0.0
C1736 C 0.44993 0.40588 0.1553 0.0
C1737 C 0.46308 0.43217 0.16662 0.0
C1738 C 0.46973 0.41528 0.09328 0.0
C1739 C 0.48399 0.40805 0.08729 0.0
C1740 C 0.49141 0.40727 0.04169 0.0
C1741 C 0.48391 0.41379 0.0008 0.0
C1742 C 0.46909 0.42093 0.00567 0.0
C1743 C 0.46195 0.42173 0.05263 0.0
H1744 H 0.11239 0.32277 0.08792 0.0
H1745 H 0.15255 0.34946 0.13571 0.0
H1746 H 0.13573 0.3725 0.14851 0.0
H1747 H 0.09283 0.35403 0.02313 0.0
H1748 H 0.07374 0.34777 0.04244 0.0
H1749 H 0.08915 0.3337 0.03553 0.0
H1750 H 0.08468 0.32461 0.12595 0.0
H1751 H 0.06944 0.33885 0.1334 0.0
H1752 H 0.0857 0.33866 0.17543 0.0
H1753 H 0.1145 0.3925 0.15667 0.0
H1754 H 0.09057 0.40847 0.15538 0.0
H1755 H 0.06424 0.36832 0.10517 0.0
C1756 C 0.1177 0.33352 0.10041 0.0
C1757 C 0.13379 0.33437 0.11054 0.0
C1758 C 0.14025 0.34858 0.1275 0.0
C1759 C 0.13079 0.3617 0.13509 0.0
C1760 C 0.11491 0.36034 0.12584 0.0
C1761 C 0.10842 0.34665 0.10861 0.0
C1762 C 0.09101 0.3482 0.10199 0.0
C1763 C 0.08642 0.34579 0.04754 0.0
C1764 C 0.0822 0.33691 0.13624 0.0
C1765 C 0.08872 0.36496 0.11788 0.0
C1766 C 0.10263 0.37175 0.13161 0.0
C1767 C 0.10352 0.3873 0.1462 0.0
C1768 C 0.08987 0.39625 0.14551 0.0
C1769 C 0.07555 0.3896 0.13054 0.0
C1770 C 0.07497 0.37367 0.11752 0.0
H1771 H 0.87449 0.81378 0.3989 0.0
H1772 H 0.83077 0.83884 0.38625 0.0
H1773 H 0.8451 0.8638 0.38489 0.0
H1774 H 0.89499 0.84317 0.47572 0.0
H1775 H 0.91319 0.83975 0.44434 0.0
H1776 H 0.89932 0.82414 0.45092 0.0
H1777 H 0.89969 0.8201 0.35592 0.0
H1778 H 0.91333 0.83585 0.3489 0.0
H1779 H 0.89515 0.83627 0.31577 0.0
H1780 H 0.86431 0.88568 0.37548 0.0
H1781 H 0.88694 0.90311 0.36484 0.0
H1782 H 0.91801 0.86356 0.38304 0.0
C1783 C 0.86789 0.82453 0.39722 0.0
C1784 C 0.85151 0.82438 0.39289 0.0
C1785 C 0.84331 0.83869 0.38994 0.0
C1786 C 0.85135 0.85292 0.38901 0.0
C1787 C 0.86754 0.8526 0.3914 0.0
C1788 C 0.87571 0.83879 0.39614 0.0
C1789 C 0.8931 0.84154 0.39496 0.0
C1790 C 0.90059 0.83687 0.44444 0.0
C1791 C 0.90076 0.83293 0.35128 0.0
C1792 C 0.89345 0.85901 0.3875 0.0
C1793 C 0.8786 0.86519 0.38583 0.0
C1794 C 0.87599 0.881 0.37735 0.0
C1795 C 0.88892 0.89078 0.37106 0.0
C1796 C 0.90423 0.88468 0.37314 0.0
C1797 C 0.90645 0.86858 0.38138 0.0
H1798 H 0.3682 0.65929 0.6049 0.0
H1799 H 0.39559 0.70108 0.57989 0.0
H1800 H 0.4196 0.68519 0.57948 0.0
H1801 H 0.39447 0.64095 0.6874 0.0
H1802 H 0.39103 0.62154 0.66427 0.0
H1803 H 0.37595 0.63608 0.6603 0.0
H1804 H 0.37403 0.63186 0.56552 0.0
H1805 H 0.38892 0.61713 0.56933 0.0
H1806 H 0.39132 0.63347 0.52804 0.0
H1807 H 0.44075 0.66464 0.58488 0.0
H1808 H 0.45704 0.64085 0.58917 0.0
H1809 H 0.41551 0.61291 0.6116 0.0
C1810 C 0.37922 0.6651 0.59864 0.0
C1811 C 0.38003 0.68141 0.59227 0.0
C1812 C 0.39469 0.68857 0.58461 0.0
C1813 C 0.4084 0.67966 0.58456 0.0
C1814 C 0.40721 0.66363 0.5922 0.0
C1815 C 0.39297 0.65641 0.5986 0.0
C1816 C 0.39481 0.63905 0.60645 0.0
C1817 C 0.3887 0.63412 0.65765 0.0
C1818 C 0.3868 0.62984 0.56485 0.0
C1819 C 0.41232 0.63761 0.60351 0.0
C1820 C 0.4193 0.6519 0.59548 0.0
C1821 C 0.4354 0.65338 0.59111 0.0
C1822 C 0.44456 0.63983 0.59386 0.0
C1823 C 0.43755 0.62505 0.60083 0.0
C1824 C 0.42124 0.62404 0.60646 0.0
H1825 H 0.6184 0.17757 0.89111 0.0
H1826 H 0.65526 0.14385 0.91621 0.0
H1827 H 0.63615 0.12247 0.91038 0.0
H1828 H 0.587 0.1557 0.95724 0.0
H1829 H 0.5726 0.16159 0.91255 0.0
H1830 H 0.58876 0.17425 0.9263 0.0
H1831 H 0.59586 0.17504 0.83313 0.0
H1832 H 0.57992 0.16221 0.81916 0.0
H1833 H 0.59941 0.15701 0.80068 0.0
H1834 H 0.61386 0.10477 0.89071 0.0
H1835 H 0.58953 0.092 0.86413 0.0
H1836 H 0.56721 0.13728 0.852 0.0
C1837 C 0.62239 0.16572 0.89688 0.0
C1838 C 0.63831 0.16237 0.90431 0.0
C1839 C 0.6431 0.14669 0.91075 0.0
C1840 C 0.63234 0.13446 0.90748 0.0
C1841 C 0.61682 0.13814 0.89815 0.0
C1842 C 0.6118 0.1534 0.89364 0.0
C1843 C 0.59474 0.15416 0.88002 0.0
C1844 C 0.58521 0.16188 0.92151 0.0
C1845 C 0.59236 0.1626 0.8303 0.0
C1846 C 0.59108 0.13696 0.87589 0.0
C1847 C 0.60393 0.12791 0.88689 0.0
C1848 C 0.60364 0.11172 0.88281 0.0
C1849 C 0.58981 0.10459 0.86737 0.0
C1850 C 0.57648 0.11365 0.85612 0.0
C1851 C 0.57717 0.13004 0.86072 0.0
H1852 H 0.08826 0.60669 0.3479 0.0
H1853 H 0.0518 0.63593 0.40969 0.0
H1854 H 0.07091 0.65677 0.42449 0.0
H1855 H 0.11882 0.6185 0.43037 0.0
H1856 H 0.13377 0.61855 0.38353 0.0
H1857 H 0.11734 0.60566 0.37781 0.0
H1858 H 0.11109 0.6172 0.29148 0.0
H1859 H 0.12761 0.63001 0.29669 0.0
H1860 H 0.10855 0.63797 0.28487 0.0
H1861 H 0.09366 0.67407 0.4349 0.0
H1862 H 0.1185 0.68823 0.43244 0.0
H1863 H 0.14051 0.64848 0.36126 0.0
C1864 C 0.08431 0.61751 0.36433 0.0
C1865 C 0.06855 0.61968 0.37775 0.0
C1866 C 0.0638 0.63402 0.39897 0.0
C1867 C 0.07458 0.6459 0.4078 0.0
C1868 C 0.09004 0.64333 0.39485 0.0
C1869 C 0.09491 0.62961 0.37295 0.0
C1870 C 0.11218 0.63014 0.36127 0.0
C1871 C 0.12105 0.61746 0.38997 0.0
C1872 C 0.11502 0.62875 0.30525 0.0
C1873 C 0.1162 0.6463 0.38008 0.0
C1874 C 0.10325 0.65358 0.39976 0.0
C1875 C 0.10389 0.66854 0.41945 0.0
C1876 C 0.11809 0.67646 0.41797 0.0
C1877 C 0.13146 0.66948 0.39657 0.0
C1878 C 0.13052 0.6541 0.37802 0.0
H1879 H 0.62062 0.8196 0.63474 0.0
H1880 H 0.66031 0.84478 0.57593 0.0
H1881 H 0.64699 0.86983 0.59419 0.0
H1882 H 0.59156 0.84369 0.58727 0.0
H1883 H 0.57907 0.84208 0.64064 0.0
H1884 H 0.59232 0.82654 0.62583 0.0
H1885 H 0.60429 0.82852 0.71364 0.0
H1886 H 0.59114 0.8442 0.72857 0.0
H1887 H 0.61183 0.84695 0.73488 0.0
H1888 H 0.62794 0.89193 0.61198 0.0
H1889 H 0.60511 0.90888 0.62727 0.0
H1890 H 0.57895 0.86872 0.67836 0.0
C1891 C 0.62658 0.83037 0.62587 0.0
C1892 C 0.64143 0.8303 0.60359 0.0
C1893 C 0.64889 0.84463 0.59295 0.0
C1894 C 0.64145 0.85887 0.60337 0.0
C1895 C 0.62673 0.8585 0.62522 0.0
C1896 C 0.61946 0.84458 0.63665 0.0
C1897 C 0.60345 0.84716 0.65824 0.0
C1898 C 0.59086 0.83942 0.62606 0.0
C1899 C 0.60264 0.84136 0.71203 0.0
C1900 C 0.60255 0.86472 0.6557 0.0
C1901 C 0.61609 0.87112 0.63692 0.0
C1902 C 0.61739 0.88706 0.62753 0.0
C1903 C 0.60438 0.8966 0.63638 0.0
C1904 C 0.59031 0.89014 0.65447 0.0
C1905 C 0.58962 0.87407 0.66546 0.0
H1906 H 0.39594 0.39532 0.88882 0.0
H1907 H 0.43747 0.37082 0.83996 0.0
H1908 H 0.42359 0.34582 0.84656 0.0
H1909 H 0.38374 0.36724 0.97761 0.0
H1910 H 0.36326 0.36922 0.96475 0.0
H1911 H 0.37616 0.38545 0.95445 0.0
H1912 H 0.36703 0.38725 0.8633 0.0
H1913 H 0.35402 0.3711 0.87342 0.0
H1914 H 0.3682 0.37024 0.82432 0.0
H1915 H 0.40604 0.32352 0.86255 0.0
H1916 H 0.38504 0.305 0.88183 0.0
H1917 H 0.35436 0.34361 0.91846 0.0
C1918 C 0.40204 0.38471 0.87904 0.0
C1919 C 0.41779 0.38502 0.8639 0.0
C1920 C 0.4254 0.37088 0.85158 0.0
C1921 C 0.41763 0.35661 0.85528 0.0
C1922 C 0.40222 0.35666 0.87103 0.0
C1923 C 0.39442 0.37031 0.88226 0.0
C1924 C 0.37787 0.36698 0.89867 0.0
C1925 C 0.3751 0.37255 0.95204 0.0
C1926 C 0.36608 0.37433 0.86278 0.0
C1927 C 0.3777 0.34934 0.89537 0.0
C1928 C 0.39191 0.34367 0.8795 0.0
C1929 C 0.39481 0.32779 0.87466 0.0
C1930 C 0.38281 0.31736 0.8859 0.0
C1931 C 0.36806 0.32286 0.90154 0.0
C1932 C 0.3655 0.33908 0.90638 0.0
H1933 H 0.86889 0.15562 0.12563 0.0
H1934 H 0.89797 0.19699 0.12046 0.0
H1935 H 0.92135 0.18061 0.12975 0.0
H1936 H 0.8917 0.13414 0.21529 0.0
H1937 H 0.88892 0.11559 0.18525 0.0
H1938 H 0.87427 0.13055 0.18008 0.0
H1939 H 0.87587 0.12911 0.08441 0.0
H1940 H 0.89035 0.11402 0.08933 0.0
H1941 H 0.89446 0.13144 0.05433 0.0
H1942 H 0.94156 0.15993 0.13896 0.0
H1943 H 0.9575 0.13599 0.13875 0.0
H1944 H 0.91544 0.10797 0.13642 0.0
C1945 C 0.88018 0.16122 0.12643 0.0
C1946 C 0.88161 0.17758 0.12241 0.0
C1947 C 0.89659 0.18447 0.12333 0.0
C1948 C 0.90994 0.17528 0.12896 0.0
C1949 C 0.90813 0.15922 0.13343 0.0
C1950 C 0.89366 0.1522 0.13165 0.0
C1951 C 0.89504 0.13462 0.13485 0.0
C1952 C 0.887 0.12837 0.18166 0.0
C1953 C 0.88855 0.12684 0.08793 0.0
C1954 C 0.91255 0.13288 0.13814 0.0
C1955 C 0.91985 0.14722 0.13795 0.0
C1956 C 0.93599 0.14862 0.13929 0.0
C1957 C 0.94494 0.13495 0.13934 0.0
C1958 C 0.93772 0.12013 0.13764 0.0
C1959 C 0.9213 0.11913 0.13814 0.0
H1960 H 0.87761 0.68009 0.869 0.0
H1961 H 0.83804 0.64873 0.86073 0.0
H1962 H 0.85591 0.62641 0.85059 0.0
H1963 H 0.90111 0.66072 0.77814 0.0
H1964 H 0.91914 0.6639 0.81054 0.0
H1965 H 0.90331 0.6775 0.81766 0.0
H1966 H 0.90399 0.67375 0.9128 0.0
H1967 H 0.91997 0.66033 0.90603 0.0
H1968 H 0.90259 0.65435 0.93824 0.0
H1969 H 0.87794 0.6076 0.841 0.0
H1970 H 0.90279 0.5932 0.83905 0.0
H1971 H 0.92803 0.63683 0.85262 0.0
C1972 C 0.8727 0.66852 0.86546 0.0
C1973 C 0.85644 0.66614 0.86573 0.0
C1974 C 0.85047 0.65082 0.86077 0.0
C1975 C 0.86052 0.63808 0.85472 0.0
C1976 C 0.87647 0.64088 0.85364 0.0
C1977 C 0.88255 0.65568 0.8593 0.0
C1978 C 0.90016 0.65546 0.85752 0.0
C1979 C 0.90628 0.66496 0.81333 0.0
C1980 C 0.90708 0.66131 0.90657 0.0
C1981 C 0.90303 0.63819 0.85036 0.0
C1982 C 0.8892 0.63001 0.84788 0.0
C1983 C 0.88885 0.61387 0.84276 0.0
C1984 C 0.90303 0.6058 0.84153 0.0
C1985 C 0.91733 0.6139 0.84546 0.0
C1986 C 0.91729 0.63034 0.8489 0.0
H1987 H 0.1081 0.17455 0.59467 0.0
H1988 H 0.15212 0.15005 0.60791 0.0
H1989 H 0.13793 0.1251 0.61718 0.0
H1990 H 0.08687 0.15175 0.68333 0.0
H1991 H 0.06904 0.15225 0.64834 0.0
H1992 H 0.08271 0.16809 0.64345 0.0
H1993 H 0.08383 0.16443 0.54829 0.0
H1994 H 0.07011 0.14865 0.55284 0.0
H1995 H 0.08865 0.14556 0.52317 0.0
H1996 H 0.11869 0.10283 0.6246 0.0
H1997 H 0.0961 0.08498 0.62602 0.0
H1998 H 0.06502 0.12449 0.60751 0.0
C1999 C 0.1148 0.16395 0.59956 0.0
C2000 C 0.13121 0.16422 0.60065 0.0
C2001 C 0.13953 0.15009 0.60692 0.0
C2002 C 0.13158 0.13589 0.61236 0.0
C2003 C 0.11535 0.13608 0.61138 0.0
C2004 C 0.10708 0.14975 0.60492 0.0
C2005 C 0.08974 0.14686 0.60417 0.0
C2006 C 0.08162 0.15523 0.6474 0.0
C2007 C 0.08267 0.15165 0.55414 0.0
C2008 C 0.0895 0.12938 0.611 0.0
C2009 C 0.10436 0.12335 0.61536 0.0
C2010 C 0.107 0.10743 0.62131 0.0
C2011 C 0.09411 0.09739 0.62218 0.0
C2012 C 0.07882 0.10336 0.61693 0.0
C2013 C 0.07656 0.11957 0.61177 0.0
H2014 H 0.58685 0.37174 0.37201 0.0
H2015 H 0.54674 0.34264 0.34057 0.0
H2016 H 0.56317 0.31914 0.34753 0.0
H2017 H 0.61488 0.34847 0.30409 0.0
H2018 H 0.63022 0.35169 0.34833 0.0
H2019 H 0.61529 0.36619 0.33994 0.0
H2020 H 0.6091 0.36507 0.43376 0.0
H2021 H 0.62388 0.35041 0.44231 0.0
H2022 H 0.60417 0.34664 0.46184 0.0
H2023 H 0.58374 0.29878 0.3601 0.0
H2024 H 0.60756 0.28302 0.3711 0.0
H2025 H 0.63423 0.32539 0.39409 0.0
C2026 C 0.58155 0.36044 0.36611 0.0
C2027 C 0.56552 0.35902 0.35571 0.0
C2028 C 0.55901 0.34401 0.34847 0.0
C2029 C 0.56823 0.33059 0.35254 0.0
C2030 C 0.58393 0.33237 0.36377 0.0
C2031 C 0.59059 0.34691 0.36999 0.0
C2032 C 0.60777 0.34558 0.38154 0.0
C2033 C 0.61762 0.35344 0.34105 0.0
C2034 C 0.61144 0.35233 0.43292 0.0
C2035 C 0.60971 0.32803 0.38083 0.0
C2036 C 0.5958 0.32062 0.3708 0.0
C2037 C 0.59471 0.30444 0.36792 0.0
C2038 C 0.60828 0.29559 0.37443 0.0
C2039 C 0.62274 0.30297 0.38354 0.0
C2040 C 0.62335 0.31939 0.38742 0.0
H2041 H 0.37554 0.81447 0.12457 0.0
H2042 H 0.33623 0.84545 0.10127 0.0
H2043 H 0.35371 0.8682 0.10826 0.0
H2044 H 0.39438 0.83737 0.21508 0.0
H2045 H 0.4138 0.83309 0.1937 0.0
H2046 H 0.3984 0.81921 0.18401 0.0
H2047 H 0.40398 0.81929 0.08974 0.0
H2048 H 0.41951 0.83306 0.09919 0.0
H2049 H 0.40403 0.83753 0.05654 0.0
H2050 H 0.37526 0.88754 0.12177 0.0
H2051 H 0.39957 0.9021 0.137 0.0
H2052 H 0.42467 0.85836 0.15158 0.0
C2053 C 0.37062 0.82602 0.12029 0.0
C2054 C 0.35453 0.8282 0.11226 0.0
C2055 C 0.34854 0.84352 0.10727 0.0
C2056 C 0.35837 0.8565 0.11128 0.0
C2057 C 0.37413 0.85395 0.12014 0.0
C2058 C 0.38024 0.83909 0.12422 0.0
C2059 C 0.39752 0.83952 0.13479 0.0
C2060 C 0.40123 0.83184 0.18487 0.0
C2061 C 0.40681 0.8319 0.09254 0.0
C2062 C 0.40015 0.85695 0.13648 0.0
C2063 C 0.38652 0.86507 0.12792 0.0
C2064 C 0.38603 0.88131 0.12828 0.0
C2065 C 0.39988 0.88947 0.13713 0.0
C2066 C 0.41401 0.88136 0.14549 0.0
C2067 C 0.41406 0.86489 0.14533 0.0
H2068 H 0.93089 0.37392 0.59937 0.0
H2069 H 0.90528 0.41601 0.63659 0.0
H2070 H 0.88086 0.40098 0.63816 0.0
H2071 H 0.90206 0.35758 0.519 0.0
H2072 H 0.90531 0.33776 0.53872 0.0
H2073 H 0.92095 0.35171 0.54121 0.0
H2074 H 0.92475 0.34598 0.63459 0.0
H2075 H 0.90924 0.3319 0.63225 0.0
H2076 H 0.9084 0.34772 0.67607 0.0
H2077 H 0.85922 0.38162 0.63481 0.0
H2078 H 0.84185 0.35875 0.63096 0.0
H2079 H 0.88141 0.32924 0.59552 0.0
C2080 C 0.92016 0.37995 0.6082 0.0
C2081 C 0.91999 0.39613 0.6179 0.0
C2082 C 0.9057 0.40361 0.62908 0.0
C2083 C 0.89175 0.39519 0.62993 0.0
C2084 C 0.89229 0.37931 0.6195 0.0
C2085 C 0.90611 0.37172 0.60916 0.0
C2086 C 0.90342 0.35454 0.59947 0.0
C2087 C 0.90822 0.35015 0.54644 0.0
C2088 C 0.91196 0.34444 0.63789 0.0
C2089 C 0.88594 0.35368 0.60613 0.0
C2090 C 0.87975 0.36812 0.61748 0.0
C2091 C 0.86391 0.37025 0.62591 0.0
C2092 C 0.85414 0.3572 0.62352 0.0
C2093 C 0.86027 0.34224 0.61282 0.0
C2094 C 0.87636 0.34055 0.60345 0.0
H2095 H 0.36804 0.1732 0.41736 0.0
H2096 H 0.32614 0.14526 0.40709 0.0
H2097 H 0.34218 0.12207 0.38659 0.0
H2098 H 0.38566 0.15754 0.31325 0.0
H2099 H 0.4052 0.1584 0.33718 0.0
H2100 H 0.39078 0.17202 0.35872 0.0
H2101 H 0.39564 0.1635 0.44945 0.0
H2102 H 0.41034 0.15007 0.42834 0.0
H2103 H 0.39438 0.14314 0.46565 0.0
H2104 H 0.3633 0.10215 0.36394 0.0
H2105 H 0.38718 0.08778 0.33928 0.0
H2106 H 0.41412 0.13016 0.35605 0.0
C2107 C 0.36224 0.16211 0.41239 0.0
C2108 C 0.34589 0.16092 0.41476 0.0
C2109 C 0.33869 0.14632 0.40617 0.0
C2110 C 0.3477 0.13313 0.39437 0.0
C2111 C 0.36381 0.13487 0.39062 0.0
C2112 C 0.37096 0.14904 0.39937 0.0
C2113 C 0.3882 0.14837 0.38865 0.0
C2114 C 0.39271 0.15976 0.34697 0.0
C2115 C 0.3977 0.15145 0.43583 0.0
C2116 C 0.38969 0.13164 0.37206 0.0
C2117 C 0.3756 0.1239 0.37416 0.0
C2118 C 0.37436 0.10814 0.36189 0.0
C2119 C 0.38792 0.1001 0.34774 0.0
C2120 C 0.40236 0.10797 0.34486 0.0
C2121 C 0.40315 0.12395 0.35677 0.0
H2122 H 0.61103 0.666 0.06966 0.0
H2123 H 0.65341 0.642 0.11258 0.0
H2124 H 0.63892 0.61719 0.11763 0.0
H2125 H 0.58583 0.64539 0.15056 0.0
H2126 H 0.56975 0.64476 0.10787 0.0
H2127 H 0.58358 0.6605 0.10468 0.0
H2128 H 0.58902 0.65417 0.01251 0.0
H2129 H 0.57508 0.63852 0.01525 0.0
H2130 H 0.59473 0.63467 -0.00471 0.0
H2131 H 0.61969 0.59519 0.12038 0.0
H2132 H 0.59715 0.57734 0.11841 0.0
H2133 H 0.56724 0.61589 0.07564 0.0
C2134 C 0.61731 0.65549 0.07942 0.0
C2135 C 0.63336 0.6559 0.09048 0.0
C2136 C 0.64112 0.64194 0.1038 0.0
C2137 C 0.63299 0.6278 0.10684 0.0
C2138 C 0.61711 0.62786 0.09662 0.0
C2139 C 0.60936 0.64131 0.08298 0.0
C2140 C 0.59218 0.63828 0.07524 0.0
C2141 C 0.58226 0.6478 0.11177 0.0
C2142 C 0.58748 0.6416 0.02137 0.0
C2143 C 0.59148 0.62102 0.08681 0.0
C2144 C 0.60599 0.61523 0.09895 0.0
C2145 C 0.60827 0.59958 0.11087 0.0
C2146 C 0.5954 0.58955 0.10977 0.0
C2147 C 0.58045 0.59523 0.09704 0.0
C2148 C 0.57851 0.61121 0.08581 0.0
H2149 H 0.05262 0.86235 0.84997 0.0
H2150 H 0.07909 0.90504 0.83106 0.0
H2151 H 0.10353 0.88998 0.83511 0.0
H2152 H 0.07684 0.84563 0.9383 0.0
H2153 H 0.0751 0.82588 0.91621 0.0
H2154 H 0.05956 0.83957 0.90583 0.0
H2155 H 0.06095 0.83454 0.8114 0.0
H2156 H 0.07629 0.82056 0.82155 0.0
H2157 H 0.07929 0.83663 0.7796 0.0
H2158 H 0.12502 0.8707 0.84849 0.0
H2159 H 0.14218 0.84808 0.86374 0.0
H2160 H 0.10164 0.8181 0.87556 0.0
C2161 C 0.06354 0.86847 0.84528 0.0
C2162 C 0.06397 0.88485 0.83992 0.0
C2163 C 0.0785 0.89248 0.83497 0.0
C2164 C 0.09244 0.88405 0.83735 0.0
C2165 C 0.09163 0.86799 0.84462 0.0
C2166 C 0.07757 0.86024 0.84788 0.0
C2167 C 0.07993 0.84304 0.85813 0.0
C2168 C 0.07241 0.83826 0.90755 0.0
C2169 C 0.07375 0.83311 0.8151 0.0
C2170 C 0.0975 0.84241 0.861 0.0
C2171 C 0.10403 0.8569 0.85293 0.0
C2172 C 0.12006 0.85926 0.85449 0.0
C2173 C 0.12969 0.84637 0.86348 0.0
C2174 C 0.12324 0.83136 0.87098 0.0
C2175 C 0.10692 0.82944 0.87021 0.0
loop_
_geom_bond_atom_site_label_1
_geom_bond_atom_site_label_2
_geom_bond_distance
_geom_bond_site_symmetry_2
_ccdc_geom_bond_type
C0 O1 1.306 . S
C0 O3 1.160 . S
O1 C0 1.306 . S
O1 Cd2 2.228 1_556 S
Cd2 O1 2.228 1_554 S
Cd2 O6 2.273 . S
Cd2 O10 2.277 . S
O3 C0 1.160 . S
O3 Cd4 2.203 1_556 S
Cd4 O3 2.203 1_554 S
Cd4 O6 2.411 . S
Cd4 O7 2.333 . S
Cd4 O8 2.352 . S
Cd4 O12 2.277 . S
Cd4 O13 2.356 . S
C5 O10 1.209 . S
C5 O12 1.226 . S
O6 Cd2 2.273 . S
O6 Cd4 2.411 . S
O6 C9 1.320 . S
O7 Cd4 2.333 . S
O7 C9 1.214 . S
O8 Cd4 2.352 . S
O8 C11 1.258 . S
C9 O6 1.320 . S
C9 O7 1.214 . S
O10 Cd2 2.277 . S
O10 C5 1.209 . S
C11 O8 1.258 . S
C11 O13 1.282 . S
O12 Cd4 2.277 . S
O12 C5 1.226 . S
O13 Cd4 2.356 . S
O13 C11 1.282 . S
C14 O15 1.306 . S
C14 O17 1.160 . S
O15 C14 1.306 . S
O15 Cd16 2.228 . S
Cd16 O15 2.228 . S
Cd16 O20 2.273 . S
Cd16 O24 2.277 . S
O17 C14 1.160 . S
O17 Cd18 2.203 . S
Cd18 O17 2.203 . S
Cd18 O20 2.411 . S
Cd18 O21 2.333 . S
Cd18 O22 2.352 . S
Cd18 O26 2.277 . S
Cd18 O27 2.356 . S
C19 O24 1.209 . S
C19 O26 1.226 . S
O20 Cd16 2.273 . S
O20 Cd18 2.411 . S
O20 C23 1.320 . S
O21 Cd18 2.333 . S
O21 C23 1.214 . S
O22 Cd18 2.352 . S
O22 C25 1.258 . S
C23 O20 1.320 . S
C23 O21 1.214 . S
O24 Cd16 2.277 . S
O24 C19 1.209 . S
C25 O22 1.258 . S
C25 O27 1.282 . S
O26 Cd18 2.277 . S
O26 C19 1.226 . S
O27 Cd18 2.356 . S
O27 C25 1.282 . S
C28 O29 1.306 . S
C28 O31 1.160 . S
O29 C28 1.306 . S
O29 Cd30 2.228 . S
Cd30 O29 2.228 . S
Cd30 O34 2.273 . S
Cd30 O38 2.277 . S
O31 C28 1.160 . S
O31 Cd32 2.203 . S
Cd32 O31 2.203 . S
Cd32 O34 2.411 . S
Cd32 O35 2.333 . S
Cd32 O36 2.352 . S
Cd32 O40 2.277 . S
Cd32 O41 2.356 . S
C33 O38 1.209 . S
C33 O40 1.226 . S
O34 Cd30 2.273 . S
O34 Cd32 2.411 . S
O34 C37 1.320 . S
O35 Cd32 2.333 . S
O35 C37 1.214 . S
O36 Cd32 2.352 . S
O36 C39 1.258 . S
C37 O34 1.320 . S
C37 O35 1.214 . S
O38 Cd30 2.277 . S
O38 C33 1.209 . S
C39 O36 1.258 . S
C39 O41 1.282 . S
O40 Cd32 2.277 . S
O40 C33 1.226 . S
O41 Cd32 2.356 . S
O41 C39 1.282 . S
C42 O43 1.306 . S
C42 O45 1.160 . S
O43 C42 1.306 . S
O43 Cd44 2.228 . S
Cd44 O43 2.228 . S
Cd44 O48 2.273 . S
Cd44 O52 2.277 . S
O45 C42 1.160 . S
O45 Cd46 2.203 . S
Cd46 O45 2.203 . S
Cd46 O48 2.411 . S
Cd46 O49 2.333 . S
Cd46 O50 2.352 . S
Cd46 O54 2.277 . S
Cd46 O55 2.356 . S
C47 O52 1.209 . S
C47 O54 1.226 . S
O48 Cd44 2.273 . S
O48 Cd46 2.411 . S
O48 C51 1.320 . S
O49 Cd46 2.333 . S
O49 C51 1.214 . S
O50 Cd46 2.352 . S
O50 C53 1.258 . S
C51 O48 1.320 . S
C51 O49 1.214 . S
O52 Cd44 2.277 . S
O52 C47 1.209 . S
C53 O50 1.258 . S
C53 O55 1.282 . S
O54 Cd46 2.277 . S
O54 C47 1.226 . S
O55 Cd46 2.356 . S
O55 C53 1.282 . S
C56 O57 1.306 . S
C56 O59 1.160 . S
O57 C56 1.306 . S
O57 Cd58 2.228 . S
Cd58 O57 2.228 . S
Cd58 O62 2.273 . S
Cd58 O66 2.277 . S
O59 C56 1.160 . S
O59 Cd60 2.203 . S
Cd60 O59 2.203 . S
Cd60 O62 2.411 . S
Cd60 O63 2.333 . S
Cd60 O64 2.352 . S
Cd60 O68 2.277 . S
Cd60 O69 2.356 . S
C61 O66 1.209 . S
C61 O68 1.226 . S
O62 Cd58 2.273 . S
O62 Cd60 2.411 . S
O62 C65 1.320 . S
O63 Cd60 2.333 . S
O63 C65 1.214 . S
O64 Cd60 2.352 . S
O64 C67 1.258 . S
C65 O62 1.320 . S
C65 O63 1.214 . S
O66 Cd58 2.277 . S
O66 C61 1.209 . S
C67 O64 1.258 . S
C67 O69 1.282 . S
O68 Cd60 2.277 . S
O68 C61 1.226 . S
O69 Cd60 2.356 . S
O69 C67 1.282 . S
C70 O71 1.306 . S
C70 O73 1.160 . S
O71 C70 1.306 . S
O71 Cd72 2.228 . S
Cd72 O71 2.228 . S
Cd72 O76 2.273 . S
Cd72 O80 2.277 . S
O73 C70 1.160 . S
O73 Cd74 2.203 . S
Cd74 O73 2.203 . S
Cd74 O76 2.411 . S
Cd74 O77 2.333 . S
Cd74 O78 2.352 . S
Cd74 O82 2.277 . S
Cd74 O83 2.356 . S
C75 O80 1.209 . S
C75 O82 1.226 . S
O76 Cd72 2.273 . S
O76 Cd74 2.411 . S
O76 C79 1.320 . S
O77 Cd74 2.333 . S
O77 C79 1.214 . S
O78 Cd74 2.352 . S
O78 C81 1.258 . S
C79 O76 1.320 . S
C79 O77 1.214 . S
O80 Cd72 2.277 . S
O80 C75 1.209 . S
C81 O78 1.258 . S
C81 O83 1.282 . S
O82 Cd74 2.277 . S
O82 C75 1.226 . S
O83 Cd74 2.356 . S
O83 C81 1.282 . S
C84 O85 1.306 . S
C84 O87 1.160 . S
O85 C84 1.306 . S
O85 Cd86 2.228 1_554 S
Cd86 O85 2.228 1_556 S
Cd86 O90 2.273 . S
Cd86 O94 2.277 . S
O87 C84 1.160 . S
O87 Cd88 2.203 1_554 S
Cd88 O87 2.203 1_556 S
Cd88 O90 2.411 . S
Cd88 O91 2.333 . S
Cd88 O92 2.352 . S
Cd88 O96 2.277 . S
Cd88 O97 2.356 . S
C89 O94 1.209 . S
C89 O96 1.226 . S
O90 Cd86 2.273 . S
O90 Cd88 2.411 . S
O90 C93 1.320 . S
O91 Cd88 2.333 . S
O91 C93 1.214 . S
O92 Cd88 2.352 . S
O92 C95 1.258 . S
C93 O90 1.320 . S
C93 O91 1.214 . S
O94 Cd86 2.277 . S
O94 C89 1.209 . S
C95 O92 1.258 . S
C95 O97 1.282 . S
O96 Cd88 2.277 . S
O96 C89 1.226 . S
O97 Cd88 2.356 . S
O97 C95 1.282 . S
C98 O99 1.306 . S
C98 O101 1.160 . S
O99 C98 1.306 . S
O99 Cd100 2.228 . S
Cd100 O99 2.228 . S
Cd100 O104 2.273 . S
Cd100 O108 2.277 . S
O101 C98 1.160 . S
O101 Cd102 2.203 . S
Cd102 O101 2.203 . S
Cd102 O104 2.411 . S
Cd102 O105 2.333 . S
Cd102 O106 2.352 . S
Cd102 O110 2.277 . S
Cd102 O111 2.356 . S
C103 O108 1.209 . S
C103 O110 1.226 . S
O104 Cd100 2.273 . S
O104 Cd102 2.411 . S
O104 C107 1.320 . S
O105 Cd102 2.333 . S
O105 C107 1.214 . S
O106 Cd102 2.352 . S
O106 C109 1.258 . S
C107 O104 1.320 . S
C107 O105 1.214 . S
O108 Cd100 2.277 . S
O108 C103 1.209 . S
C109 O106 1.258 . S
C109 O111 1.282 . S
O110 Cd102 2.277 . S
O110 C103 1.226 . S
O111 Cd102 2.356 . S
O111 C109 1.282 . S
C112 O113 1.306 . S
C112 O115 1.160 . S
O113 C112 1.306 . S
O113 Cd114 2.228 1_554 S
Cd114 O113 2.228 1_556 S
Cd114 O118 2.273 . S
Cd114 O122 2.277 . S
O115 C112 1.160 . S
O115 Cd116 2.203 1_554 S
Cd116 O115 2.203 1_556 S
Cd116 O118 2.411 . S
Cd116 O119 2.333 . S
Cd116 O120 2.352 . S
Cd116 O124 2.277 . S
Cd116 O125 2.356 . S
C117 O122 1.209 . S
C117 O124 1.226 . S
O118 Cd114 2.273 . S
O118 Cd116 2.411 . S
O118 C121 1.320 . S
O119 Cd116 2.333 . S
O119 C121 1.214 . S
O120 Cd116 2.352 . S
O120 C123 1.258 . S
C121 O118 1.320 . S
C121 O119 1.214 . S
O122 Cd114 2.277 . S
O122 C117 1.209 . S
C123 O120 1.258 . S
C123 O125 1.282 . S
O124 Cd116 2.277 . S
O124 C117 1.226 . S
O125 Cd116 2.356 . S
O125 C123 1.282 . S
C126 O127 1.306 . S
C126 O129 1.160 . S
O127 C126 1.306 . S
O127 Cd128 2.228 . S
Cd128 O127 2.228 . S
Cd128 O132 2.273 . S
Cd128 O136 2.277 . S
O129 C126 1.160 . S
O129 Cd130 2.203 . S
Cd130 O129 2.203 . S
Cd130 O132 2.411 . S
Cd130 O133 2.333 . S
Cd130 O134 2.352 . S
Cd130 O138 2.277 . S
Cd130 O139 2.356 . S
C131 O136 1.209 . S
C131 O138 1.226 . S
O132 Cd128 2.273 . S
O132 Cd130 2.411 . S
O132 C135 1.320 . S
O133 Cd130 2.333 . S
O133 C135 1.214 . S
O134 Cd130 2.352 . S
O134 C137 1.258 . S
C135 O132 1.320 . S
C135 O133 1.214 . S
O136 Cd128 2.277 . S
O136 C131 1.209 . S
C137 O134 1.258 . S
C137 O139 1.282 . S
O138 Cd130 2.277 . S
O138 C131 1.226 . S
O139 Cd130 2.356 . S
O139 C137 1.282 . S
C140 O141 1.306 . S
C140 O143 1.160 . S
O141 C140 1.306 . S
O141 Cd142 2.228 . S
Cd142 O141 2.228 . S
Cd142 O146 2.273 . S
Cd142 O150 2.277 . S
O143 C140 1.160 . S
O143 Cd144 2.203 . S
Cd144 O143 2.203 . S
Cd144 O146 2.411 . S
Cd144 O147 2.333 . S
Cd144 O148 2.352 . S
Cd144 O152 2.277 . S
Cd144 O153 2.356 . S
C145 O150 1.209 . S
C145 O152 1.226 . S
O146 Cd142 2.273 . S
O146 Cd144 2.411 . S
O146 C149 1.320 . S
O147 Cd144 2.333 . S
O147 C149 1.214 . S
O148 Cd144 2.352 . S
O148 C151 1.258 . S
C149 O146 1.320 . S
C149 O147 1.214 . S
O150 Cd142 2.277 . S
O150 C145 1.209 . S
C151 O148 1.258 . S
C151 O153 1.282 . S
O152 Cd144 2.277 . S
O152 C145 1.226 . S
O153 Cd144 2.356 . S
O153 C151 1.282 . S
C154 O155 1.306 . S
C154 O157 1.160 . S
O155 C154 1.306 . S
O155 Cd156 2.228 . S
Cd156 O155 2.228 . S
Cd156 O160 2.273 . S
Cd156 O164 2.277 . S
O157 C154 1.160 . S
O157 Cd158 2.203 . S
Cd158 O157 2.203 . S
Cd158 O160 2.411 . S
Cd158 O161 2.333 . S
Cd158 O162 2.352 . S
Cd158 O166 2.277 . S
Cd158 O167 2.356 . S
C159 O164 1.209 . S
C159 O166 1.226 . S
O160 Cd156 2.273 . S
O160 Cd158 2.411 . S
O160 C163 1.320 . S
O161 Cd158 2.333 . S
O161 C163 1.214 . S
O162 Cd158 2.352 . S
O162 C165 1.258 . S
C163 O160 1.320 . S
C163 O161 1.214 . S
O164 Cd156 2.277 . S
O164 C159 1.209 . S
C165 O162 1.258 . S
C165 O167 1.282 . S
O166 Cd158 2.277 . S
O166 C159 1.226 . S
O167 Cd158 2.356 . S
O167 C165 1.282 . S
C168 O169 1.306 . S
C168 O171 1.160 . S
O169 C168 1.306 . S
O169 Cd170 2.228 . S
Cd170 O169 2.228 . S
Cd170 O174 2.273 . S
Cd170 O178 2.277 . S
O171 C168 1.160 . S
O171 Cd172 2.203 . S
Cd172 O171 2.203 . S
Cd172 O174 2.411 . S
Cd172 O175 2.333 . S
Cd172 O176 2.352 . S
Cd172 O180 2.277 . S
Cd172 O181 2.356 . S
C173 O178 1.209 . S
C173 O180 1.226 . S
O174 Cd170 2.273 . S
O174 Cd172 2.411 . S
O174 C177 1.320 . S
O175 Cd172 2.333 . S
O175 C177 1.214 . S
O176 Cd172 2.352 . S
O176 C179 1.258 . S
C177 O174 1.320 . S
C177 O175 1.214 . S
O178 Cd170 2.277 . S
O178 C173 1.209 . S
C179 O176 1.258 . S
C179 O181 1.282 . S
O180 Cd172 2.277 . S
O180 C173 1.226 . S
O181 Cd172 2.356 . S
O181 C179 1.282 . S
C182 O183 1.306 . S
C182 O185 1.160 . S
O183 C182 1.306 . S
O183 Cd184 2.228 . S
Cd184 O183 2.228 . S
Cd184 O188 2.273 . S
Cd184 O192 2.277 . S
O185 C182 1.160 . S
O185 Cd186 2.203 . S
Cd186 O185 2.203 . S
Cd186 O188 2.411 . S
Cd186 O189 2.333 . S
Cd186 O190 2.352 . S
Cd186 O194 2.277 . S
Cd186 O195 2.356 . S
C187 O192 1.209 . S
C187 O194 1.226 . S
O188 Cd184 2.273 . S
O188 Cd186 2.411 . S
O188 C191 1.320 . S
O189 Cd186 2.333 . S
O189 C191 1.214 . S
O190 Cd186 2.352 . S
O190 C193 1.258 . S
C191 O188 1.320 . S
C191 O189 1.214 . S
O192 Cd184 2.277 . S
O192 C187 1.209 . S
C193 O190 1.258 . S
C193 O195 1.282 . S
O194 Cd186 2.277 . S
O194 C187 1.226 . S
O195 Cd186 2.356 . S
O195 C193 1.282 . S
C196 O197 1.306 . S
C196 O199 1.160 . S
O197 C196 1.306 . S
O197 Cd198 2.228 1_556 S
Cd198 O197 2.228 1_554 S
Cd198 O202 2.273 . S
Cd198 O206 2.277 . S
O199 C196 1.160 . S
O199 Cd200 2.203 1_556 S
Cd200 O199 2.203 1_554 S
Cd200 O202 2.411 . S
Cd200 O203 2.333 . S
Cd200 O204 2.352 . S
Cd200 O208 2.277 . S
Cd200 O209 2.356 . S
C201 O206 1.209 . S
C201 O208 1.226 . S
O202 Cd198 2.273 . S
O202 Cd200 2.411 . S
O202 C205 1.320 . S
O203 Cd200 2.333 . S
O203 C205 1.214 . S
O204 Cd200 2.352 . S
O204 C207 1.258 . S
C205 O202 1.320 . S
C205 O203 1.214 . S
O206 Cd198 2.277 . S
O206 C201 1.209 . S
C207 O204 1.258 . S
C207 O209 1.282 . S
O208 Cd200 2.277 . S
O208 C201 1.226 . S
O209 Cd200 2.356 . S
O209 C207 1.282 . S
C210 O211 1.306 . S
C210 O213 1.160 . S
O211 C210 1.306 . S
O211 Cd212 2.228 . S
Cd212 O211 2.228 . S
Cd212 O216 2.273 . S
Cd212 O220 2.277 . S
O213 C210 1.160 . S
O213 Cd214 2.203 . S
Cd214 O213 2.203 . S
Cd214 O216 2.411 . S
Cd214 O217 2.333 . S
Cd214 O218 2.352 . S
Cd214 O222 2.277 . S
Cd214 O223 2.356 . S
C215 O220 1.209 . S
C215 O222 1.226 . S
O216 Cd212 2.273 . S
O216 Cd214 2.411 . S
O216 C219 1.320 . S
O217 Cd214 2.333 . S
O217 C219 1.214 . S
O218 Cd214 2.352 . S
O218 C221 1.258 . S
C219 O216 1.320 . S
C219 O217 1.214 . S
O220 Cd212 2.277 . S
O220 C215 1.209 . S
C221 O218 1.258 . S
C221 O223 1.282 . S
O222 Cd214 2.277 . S
O222 C215 1.226 . S
O223 Cd214 2.356 . S
O223 C221 1.282 . S
C224 O225 1.306 . S
C224 O227 1.160 . S
O225 C224 1.306 . S
O225 Cd226 2.228 . S
Cd226 O225 2.228 . S
Cd226 O230 2.273 . S
Cd226 O234 2.277 . S
O227 C224 1.160 . S
O227 Cd228 2.203 . S
Cd228 O227 2.203 . S
Cd228 O230 2.411 . S
Cd228 O231 2.333 . S
Cd228 O232 2.352 . S
Cd228 O236 2.277 . S
Cd228 O237 2.356 . S
C229 O234 1.209 . S
C229 O236 1.226 . S
O230 Cd226 2.273 . S
O230 Cd228 2.411 . S
O230 C233 1.320 . S
O231 Cd228 2.333 . S
O231 C233 1.214 . S
O232 Cd228 2.352 . S
O232 C235 1.258 . S
C233 O230 1.320 . S
C233 O231 1.214 . S
O234 Cd226 2.277 . S
O234 C229 1.209 . S
C235 O232 1.258 . S
C235 O237 1.282 . S
O236 Cd228 2.277 . S
O236 C229 1.226 . S
O237 Cd228 2.356 . S
O237 C235 1.282 . S
C238 O239 1.306 . S
C238 O241 1.160 . S
O239 C238 1.306 . S
O239 Cd240 2.228 . S
Cd240 O239 2.228 . S
Cd240 O244 2.273 . S
Cd240 O248 2.277 . S
O241 C238 1.160 . S
O241 Cd242 2.203 . S
Cd242 O241 2.203 . S
Cd242 O244 2.411 . S
Cd242 O245 2.333 . S
Cd242 O246 2.352 . S
Cd242 O250 2.277 . S
Cd242 O251 2.356 . S
C243 O248 1.209 . S
C243 O250 1.226 . S
O244 Cd240 2.273 . S
O244 Cd242 2.411 . S
O244 C247 1.320 . S
O245 Cd242 2.333 . S
O245 C247 1.214 . S
O246 Cd242 2.352 . S
O246 C249 1.258 . S
C247 O244 1.320 . S
C247 O245 1.214 . S
O248 Cd240 2.277 . S
O248 C243 1.209 . S
C249 O246 1.258 . S
C249 O251 1.282 . S
O250 Cd242 2.277 . S
O250 C243 1.226 . S
O251 Cd242 2.356 . S
O251 C249 1.282 . S
C252 O253 1.306 . S
C252 O255 1.160 . S
O253 C252 1.306 . S
O253 Cd254 2.228 1_556 S
Cd254 O253 2.228 1_554 S
Cd254 O258 2.273 . S
Cd254 O262 2.277 . S
O255 C252 1.160 . S
O255 Cd256 2.203 1_556 S
Cd256 O255 2.203 1_554 S
Cd256 O258 2.411 . S
Cd256 O259 2.333 . S
Cd256 O260 2.352 . S
Cd256 O264 2.277 . S
Cd256 O265 2.356 . S
C257 O262 1.209 . S
C257 O264 1.226 . S
O258 Cd254 2.273 . S
O258 Cd256 2.411 . S
O258 C261 1.320 . S
O259 Cd256 2.333 . S
O259 C261 1.214 . S
O260 Cd256 2.352 . S
O260 C263 1.258 . S
C261 O258 1.320 . S
C261 O259 1.214 . S
O262 Cd254 2.277 . S
O262 C257 1.209 . S
C263 O260 1.258 . S
C263 O265 1.282 . S
O264 Cd256 2.277 . S
O264 C257 1.226 . S
O265 Cd256 2.356 . S
O265 C263 1.282 . S
C266 O267 1.306 . S
C266 O269 1.160 . S
O267 C266 1.306 . S
O267 Cd268 2.228 . S
Cd268 O267 2.228 . S
Cd268 O272 2.273 . S
Cd268 O276 2.277 . S
O269 C266 1.160 . S
O269 Cd270 2.203 . S
Cd270 O269 2.203 . S
Cd270 O272 2.411 . S
Cd270 O273 2.333 . S
Cd270 O274 2.352 . S
Cd270 O278 2.277 . S
Cd270 O279 2.356 . S
C271 O276 1.209 . S
C271 O278 1.226 . S
O272 Cd268 2.273 . S
O272 Cd270 2.411 . S
O272 C275 1.320 . S
O273 Cd270 2.333 . S
O273 C275 1.214 . S
O274 Cd270 2.352 . S
O274 C277 1.258 . S
C275 O272 1.320 . S
C275 O273 1.214 . S
O276 Cd268 2.277 . S
O276 C271 1.209 . S
C277 O274 1.258 . S
C277 O279 1.282 . S
O278 Cd270 2.277 . S
O278 C271 1.226 . S
O279 Cd270 2.356 . S
O279 C277 1.282 . S
C280 O281 1.306 . S
C280 O283 1.160 . S
O281 C280 1.306 . S
O281 Cd282 2.228 1_554 S
Cd282 O281 2.228 1_556 S
Cd282 O286 2.273 . S
Cd282 O290 2.277 . S
O283 C280 1.160 . S
O283 Cd284 2.203 1_554 S
Cd284 O283 2.203 1_556 S
Cd284 O286 2.411 . S
Cd284 O287 2.333 . S
Cd284 O288 2.352 . S
Cd284 O292 2.277 . S
Cd284 O293 2.356 . S
C285 O290 1.209 . S
C285 O292 1.226 . S
O286 Cd282 2.273 . S
O286 Cd284 2.411 . S
O286 C289 1.320 . S
O287 Cd284 2.333 . S
O287 C289 1.214 . S
O288 Cd284 2.352 . S
O288 C291 1.258 . S
C289 O286 1.320 . S
C289 O287 1.214 . S
O290 Cd282 2.277 . S
O290 C285 1.209 . S
C291 O288 1.258 . S
C291 O293 1.282 . S
O292 Cd284 2.277 . S
O292 C285 1.226 . S
O293 Cd284 2.356 . S
O293 C291 1.282 . S
C294 O295 1.306 . S
C294 O297 1.160 . S
O295 C294 1.306 . S
O295 Cd296 2.228 . S
Cd296 O295 2.228 . S
Cd296 O300 2.273 . S
Cd296 O304 2.277 . S
O297 C294 1.160 . S
O297 Cd298 2.203 . S
Cd298 O297 2.203 . S
Cd298 O300 2.411 . S
Cd298 O301 2.333 . S
Cd298 O302 2.352 . S
Cd298 O306 2.277 . S
Cd298 O307 2.356 . S
C299 O304 1.209 . S
C299 O306 1.226 . S
O300 Cd296 2.273 . S
O300 Cd298 2.411 . S
O300 C303 1.320 . S
O301 Cd298 2.333 . S
O301 C303 1.214 . S
O302 Cd298 2.352 . S
O302 C305 1.258 . S
C303 O300 1.320 . S
C303 O301 1.214 . S
O304 Cd296 2.277 . S
O304 C299 1.209 . S
C305 O302 1.258 . S
C305 O307 1.282 . S
O306 Cd298 2.277 . S
O306 C299 1.226 . S
O307 Cd298 2.356 . S
O307 C305 1.282 . S
C308 O309 1.306 . S
C308 O311 1.160 . S
O309 C308 1.306 . S
O309 Cd310 2.228 . S
Cd310 O309 2.228 . S
Cd310 O314 2.273 . S
Cd310 O318 2.277 . S
O311 C308 1.160 . S
O311 Cd312 2.203 . S
Cd312 O311 2.203 . S
Cd312 O314 2.411 . S
Cd312 O315 2.333 . S
Cd312 O316 2.352 . S
Cd312 O320 2.277 . S
Cd312 O321 2.356 . S
C313 O318 1.209 . S
C313 O320 1.226 . S
O314 Cd310 2.273 . S
O314 Cd312 2.411 . S
O314 C317 1.320 . S
O315 Cd312 2.333 . S
O315 C317 1.214 . S
O316 Cd312 2.352 . S
O316 C319 1.258 . S
C317 O314 1.320 . S
C317 O315 1.214 . S
O318 Cd310 2.277 . S
O318 C313 1.209 . S
C319 O316 1.258 . S
C319 O321 1.282 . S
O320 Cd312 2.277 . S
O320 C313 1.226 . S
O321 Cd312 2.356 . S
O321 C319 1.282 . S
C322 O323 1.306 . S
C322 O325 1.160 . S
O323 C322 1.306 . S
O323 Cd324 2.228 . S
Cd324 O323 2.228 . S
Cd324 O328 2.273 . S
Cd324 O332 2.277 . S
O325 C322 1.160 . S
O325 Cd326 2.203 . S
Cd326 O325 2.203 . S
Cd326 O328 2.411 . S
Cd326 O329 2.333 . S
Cd326 O330 2.352 . S
Cd326 O334 2.277 . S
Cd326 O335 2.356 . S
C327 O332 1.209 . S
C327 O334 1.226 . S
O328 Cd324 2.273 . S
O328 Cd326 2.411 . S
O328 C331 1.320 . S
O329 Cd326 2.333 . S
O329 C331 1.214 . S
O330 Cd326 2.352 . S
O330 C333 1.258 . S
C331 O328 1.320 . S
C331 O329 1.214 . S
O332 Cd324 2.277 . S
O332 C327 1.209 . S
C333 O330 1.258 . S
C333 O335 1.282 . S
O334 Cd326 2.277 . S
O334 C327 1.226 . S
O335 Cd326 2.356 . S
O335 C333 1.282 . S
C336 O337 1.306 . S
C336 O339 1.160 . S
O337 C336 1.306 . S
O337 Cd338 2.228 . S
Cd338 O337 2.228 . S
Cd338 O342 2.273 . S
Cd338 O346 2.277 . S
O339 C336 1.160 . S
O339 Cd340 2.203 . S
Cd340 O339 2.203 . S
Cd340 O342 2.411 . S
Cd340 O343 2.333 . S
Cd340 O344 2.352 . S
Cd340 O348 2.277 . S
Cd340 O349 2.356 . S
C341 O346 1.209 . S
C341 O348 1.226 . S
O342 Cd338 2.273 . S
O342 Cd340 2.411 . S
O342 C345 1.320 . S
O343 Cd340 2.333 . S
O343 C345 1.214 . S
O344 Cd340 2.352 . S
O344 C347 1.258 . S
C345 O342 1.320 . S
C345 O343 1.214 . S
O346 Cd338 2.277 . S
O346 C341 1.209 . S
C347 O344 1.258 . S
C347 O349 1.282 . S
O348 Cd340 2.277 . S
O348 C341 1.226 . S
O349 Cd340 2.356 . S
O349 C347 1.282 . S
C350 O351 1.306 . S
C350 O353 1.160 . S
O351 C350 1.306 . S
O351 Cd352 2.228 . S
Cd352 O351 2.228 . S
Cd352 O356 2.273 . S
Cd352 O360 2.277 . S
O353 C350 1.160 . S
O353 Cd354 2.203 . S
Cd354 O353 2.203 . S
Cd354 O356 2.411 . S
Cd354 O357 2.333 . S
Cd354 O358 2.352 . S
Cd354 O362 2.277 . S
Cd354 O363 2.356 . S
C355 O360 1.209 . S
C355 O362 1.226 . S
O356 Cd352 2.273 . S
O356 Cd354 2.411 . S
O356 C359 1.320 . S
O357 Cd354 2.333 . S
O357 C359 1.214 . S
O358 Cd354 2.352 . S
O358 C361 1.258 . S
C359 O356 1.320 . S
C359 O357 1.214 . S
O360 Cd352 2.277 . S
O360 C355 1.209 . S
C361 O358 1.258 . S
C361 O363 1.282 . S
O362 Cd354 2.277 . S
O362 C355 1.226 . S
O363 Cd354 2.356 . S
O363 C361 1.282 . S
C364 O365 1.306 . S
C364 O367 1.160 . S
O365 C364 1.306 . S
O365 Cd366 2.228 1_554 S
Cd366 O365 2.228 1_556 S
Cd366 O370 2.273 . S
Cd366 O374 2.277 . S
O367 C364 1.160 . S
O367 Cd368 2.203 1_554 S
Cd368 O367 2.203 1_556 S
Cd368 O370 2.411 . S
Cd368 O371 2.333 . S
Cd368 O372 2.352 . S
Cd368 O376 2.277 . S
Cd368 O377 2.356 . S
C369 O374 1.209 . S
C369 O376 1.226 . S
O370 Cd366 2.273 . S
O370 Cd368 2.411 . S
O370 C373 1.320 . S
O371 Cd368 2.333 . S
O371 C373 1.214 . S
O372 Cd368 2.352 . S
O372 C375 1.258 . S
C373 O370 1.320 . S
C373 O371 1.214 . S
O374 Cd366 2.277 . S
O374 C369 1.209 . S
C375 O372 1.258 . S
C375 O377 1.282 . S
O376 Cd368 2.277 . S
O376 C369 1.226 . S
O377 Cd368 2.356 . S
O377 C375 1.282 . S
C378 O379 1.306 . S
C378 O381 1.160 . S
O379 C378 1.306 . S
O379 Cd380 2.228 . S
Cd380 O379 2.228 . S
Cd380 O384 2.273 . S
Cd380 O388 2.277 . S
O381 C378 1.160 . S
O381 Cd382 2.203 . S
Cd382 O381 2.203 . S
Cd382 O384 2.411 . S
Cd382 O385 2.333 . S
Cd382 O386 2.352 . S
Cd382 O390 2.277 . S
Cd382 O391 2.356 . S
C383 O388 1.209 . S
C383 O390 1.226 . S
O384 Cd380 2.273 . S
O384 Cd382 2.411 . S
O384 C387 1.320 . S
O385 Cd382 2.333 . S
O385 C387 1.214 . S
O386 Cd382 2.352 . S
O386 C389 1.258 . S
C387 O384 1.320 . S
C387 O385 1.214 . S
O388 Cd380 2.277 . S
O388 C383 1.209 . S
C389 O386 1.258 . S
C389 O391 1.282 . S
O390 Cd382 2.277 . S
O390 C383 1.226 . S
O391 Cd382 2.356 . S
O391 C389 1.282 . S
C392 O393 1.306 . S
C392 O395 1.160 . S
O393 C392 1.306 . S
O393 Cd394 2.228 1_556 S
Cd394 O393 2.228 1_554 S
Cd394 O398 2.273 . S
Cd394 O402 2.277 . S
O395 C392 1.160 . S
O395 Cd396 2.203 1_556 S
Cd396 O395 2.203 1_554 S
Cd396 O398 2.411 . S
Cd396 O399 2.333 . S
Cd396 O400 2.352 . S
Cd396 O404 2.277 . S
Cd396 O405 2.356 . S
C397 O402 1.209 . S
C397 O404 1.226 . S
O398 Cd394 2.273 . S
O398 Cd396 2.411 . S
O398 C401 1.320 . S
O399 Cd396 2.333 . S
O399 C401 1.214 . S
O400 Cd396 2.352 . S
O400 C403 1.258 . S
C401 O398 1.320 . S
C401 O399 1.214 . S
O402 Cd394 2.277 . S
O402 C397 1.209 . S
C403 O400 1.258 . S
C403 O405 1.282 . S
O404 Cd396 2.277 . S
O404 C397 1.226 . S
O405 Cd396 2.356 . S
O405 C403 1.282 . S
C406 O407 1.306 . S
C406 O409 1.160 . S
O407 C406 1.306 . S
O407 Cd408 2.228 . S
Cd408 O407 2.228 . S
Cd408 O412 2.273 . S
Cd408 O416 2.277 . S
O409 C406 1.160 . S
O409 Cd410 2.203 . S
Cd410 O409 2.203 . S
Cd410 O412 2.411 . S
Cd410 O413 2.333 . S
Cd410 O414 2.352 . S
Cd410 O418 2.277 . S
Cd410 O419 2.356 . S
C411 O416 1.209 . S
C411 O418 1.226 . S
O412 Cd408 2.273 . S
O412 Cd410 2.411 . S
O412 C415 1.320 . S
O413 Cd410 2.333 . S
O413 C415 1.214 . S
O414 Cd410 2.352 . S
O414 C417 1.258 . S
C415 O412 1.320 . S
C415 O413 1.214 . S
O416 Cd408 2.277 . S
O416 C411 1.209 . S
C417 O414 1.258 . S
C417 O419 1.282 . S
O418 Cd410 2.277 . S
O418 C411 1.226 . S
O419 Cd410 2.356 . S
O419 C417 1.282 . S
C420 O421 1.306 . S
C420 O423 1.160 . S
O421 C420 1.306 . S
O421 Cd422 2.228 . S
Cd422 O421 2.228 . S
Cd422 O426 2.273 . S
Cd422 O430 2.277 . S
O423 C420 1.160 . S
O423 Cd424 2.203 . S
Cd424 O423 2.203 . S
Cd424 O426 2.411 . S
Cd424 O427 2.333 . S
Cd424 O428 2.352 . S
Cd424 O432 2.277 . S
Cd424 O433 2.356 . S
C425 O430 1.209 . S
C425 O432 1.226 . S
O426 Cd422 2.273 . S
O426 Cd424 2.411 . S
O426 C429 1.320 . S
O427 Cd424 2.333 . S
O427 C429 1.214 . S
O428 Cd424 2.352 . S
O428 C431 1.258 . S
C429 O426 1.320 . S
C429 O427 1.214 . S
O430 Cd422 2.277 . S
O430 C425 1.209 . S
C431 O428 1.258 . S
C431 O433 1.282 . S
O432 Cd424 2.277 . S
O432 C425 1.226 . S
O433 Cd424 2.356 . S
O433 C431 1.282 . S
C434 O435 1.306 . S
C434 O437 1.160 . S
O435 C434 1.306 . S
O435 Cd436 2.228 . S
Cd436 O435 2.228 . S
Cd436 O440 2.273 . S
Cd436 O444 2.277 . S
O437 C434 1.160 . S
O437 Cd438 2.203 . S
Cd438 O437 2.203 . S
Cd438 O440 2.411 . S
Cd438 O441 2.333 . S
Cd438 O442 2.352 . S
Cd438 O446 2.277 . S
Cd438 O447 2.356 . S
C439 O444 1.209 . S
C439 O446 1.226 . S
O440 Cd436 2.273 . S
O440 Cd438 2.411 . S
O440 C443 1.320 . S
O441 Cd438 2.333 . S
O441 C443 1.214 . S
O442 Cd438 2.352 . S
O442 C445 1.258 . S
C443 O440 1.320 . S
C443 O441 1.214 . S
O444 Cd436 2.277 . S
O444 C439 1.209 . S
C445 O442 1.258 . S
C445 O447 1.282 . S
O446 Cd438 2.277 . S
O446 C439 1.226 . S
O447 Cd438 2.356 . S
O447 C445 1.282 . S
H448 C460 0.930 . S
H449 C462 0.930 1_554 S
H450 C463 0.930 . S
H451 C467 0.959 1_554 S
H452 C467 0.959 . S
H453 C467 0.961 . S
H454 C468 0.960 . S
H455 C468 0.961 . S
H456 C468 0.959 . S
H457 C471 0.929 . S
H458 C472 0.931 . S
H459 C474 0.930 1_556 S
C460 H448 0.930 . S
C460 C461 1.399 . S
C460 C465 1.399 . S
C461 C460 1.399 . S
C461 C462 1.376 . S
C462 H449 0.930 1_556 S
C462 C461 1.376 . S
C462 C463 1.388 1_556 S
C463 H450 0.930 . S
C463 C462 1.388 1_554 S
C463 C464 1.390 . S
C464 C463 1.390 . S
C464 C465 1.394 1_554 S
C464 C470 1.465 . S
C465 C460 1.399 . S
C465 C464 1.394 1_556 S
C465 C466 1.516 . S
C466 C465 1.516 . S
C466 C467 1.502 . S
C466 C468 1.561 . S
C466 C469 1.526 . S
C467 H451 0.959 1_556 S
C467 H452 0.959 . S
C467 H453 0.961 . S
C467 C466 1.502 . S
C468 H454 0.960 . S
C468 H455 0.961 . S
C468 H456 0.959 . S
C468 C466 1.561 . S
C469 C466 1.526 . S
C469 C470 1.396 1_556 S
C469 C474 1.390 1_556 S
C470 C464 1.465 . S
C470 C469 1.396 1_554 S
C470 C471 1.399 . S
C471 H457 0.929 . S
C471 C470 1.399 . S
C471 C472 1.385 . S
C472 H458 0.931 . S
C472 C471 1.385 . S
C472 C473 1.389 . S
C473 C472 1.389 . S
C473 C474 1.387 . S
C474 H459 0.930 1_554 S
C474 C469 1.390 1_554 S
C474 C473 1.387 . S
H475 C487 0.930 . S
H476 C489 0.930 . S
H477 C490 0.930 . S
H478 C494 0.959 . S
H479 C494 0.959 . S
H480 C494 0.983 . S
H481 C495 0.960 . S
H482 C495 0.961 . S
H483 C495 0.959 . S
H484 C498 0.929 . S
H485 C499 0.931 . S
H486 C501 0.930 . S
C487 H475 0.930 . S
C487 C488 1.399 . S
C487 C492 1.399 . S
C488 C487 1.399 . S
C488 C489 1.376 . S
C489 H476 0.930 . S
C489 C488 1.376 . S
C489 C490 1.388 . S
C490 H477 0.930 . S
C490 C489 1.388 . S
C490 C491 1.390 . S
C491 C490 1.390 . S
C491 C492 1.394 . S
C491 C497 1.465 1_565 S
C492 C487 1.399 . S
C492 C491 1.394 . S
C492 C493 1.516 1_565 S
C493 C492 1.516 1_545 S
C493 C494 1.502 . S
C493 C495 1.561 . S
C493 C496 1.526 . S
C494 H478 0.959 . S
C494 H479 0.959 . S
C494 H480 0.983 . S
C494 C493 1.502 . S
C495 H481 0.960 . S
C495 H482 0.961 . S
C495 H483 0.959 . S
C495 C493 1.561 . S
C496 C493 1.526 . S
C496 C497 1.396 . S
C496 C501 1.390 . S
C497 C491 1.465 1_545 S
C497 C496 1.396 . S
C497 C498 1.399 . S
C498 H484 0.929 . S
C498 C497 1.399 . S
C498 C499 1.385 . S
C499 H485 0.931 . S
C499 C498 1.385 . S
C499 C500 1.389 . S
C500 C499 1.389 . S
C500 C501 1.387 . S
C501 H486 0.930 . S
C501 C496 1.390 . S
C501 C500 1.387 . S
H502 C514 0.930 . S
H503 C516 0.930 . S
H504 C517 0.930 . S
H505 C521 0.959 . S
H506 C521 0.959 . S
H507 C521 0.961 . S
H508 C522 0.960 . S
H509 C522 0.961 . S
H510 C522 0.959 . S
H511 C525 0.929 . S
H512 C526 0.931 . S
H513 C528 0.930 . S
C514 H502 0.930 . S
C514 C515 1.399 . S
C514 C519 1.399 . S
C515 C514 1.399 . S
C515 C516 1.376 . S
C516 H503 0.930 . S
C516 C515 1.376 . S
C516 C517 1.388 . S
C517 H504 0.930 . S
C517 C516 1.388 . S
C517 C518 1.390 . S
C518 C517 1.390 . S
C518 C519 1.394 . S
C518 C524 1.465 . S
C519 C514 1.399 . S
C519 C518 1.394 . S
C519 C520 1.516 . S
C520 C519 1.516 . S
C520 C521 1.502 . S
C520 C522 1.561 . S
C520 C523 1.526 . S
C521 H505 0.959 . S
C521 H506 0.959 . S
C521 H507 0.961 . S
C521 C520 1.502 . S
C522 H508 0.960 . S
C522 H509 0.961 . S
C522 H510 0.959 . S
C522 C520 1.561 . S
C523 C520 1.526 . S
C523 C524 1.396 . S
C523 C528 1.390 . S
C524 C518 1.465 . S
C524 C523 1.396 . S
C524 C525 1.399 . S
C525 H511 0.929 . S
C525 C524 1.399 . S
C525 C526 1.385 . S
C526 H512 0.931 . S
C526 C525 1.385 . S
C526 C527 1.389 . S
C527 C526 1.389 . S
C527 C528 1.387 . S
C528 H513 0.930 . S
C528 C523 1.390 . S
C528 C527 1.387 . S
H529 C541 0.930 . S
H530 C543 0.930 . S
H531 C544 0.930 . S
H532 C548 0.959 . S
H533 C548 0.956 1_565 S
H534 C548 0.961 . S
H535 C549 0.960 . S
H536 C549 0.961 . S
H537 C549 0.959 . S
H538 C552 0.929 . S
H539 C553 0.931 . S
H540 C555 0.930 . S
C541 H529 0.930 . S
C541 C542 1.399 . S
C541 C546 1.399 . S
C542 C541 1.399 . S
C542 C543 1.376 . S
C543 H530 0.930 . S
C543 C542 1.376 . S
C543 C544 1.388 . S
C544 H531 0.930 . S
C544 C543 1.388 . S
C544 C545 1.390 . S
C545 C544 1.390 . S
C545 C546 1.394 . S
C545 C551 1.465 1_545 S
C546 C541 1.399 . S
C546 C545 1.394 . S
C546 C547 1.516 . S
C547 C546 1.516 . S
C547 C548 1.502 . S
C547 C549 1.561 . S
C547 C550 1.526 1_545 S
C548 H532 0.959 . S
C548 H533 0.956 1_545 S
C548 H534 0.961 . S
C548 C547 1.502 . S
C549 H535 0.960 . S
C549 H536 0.961 . S
C549 H537 0.959 . S
C549 C547 1.561 . S
C550 C547 1.526 1_565 S
C550 C551 1.396 . S
C550 C555 1.390 . S
C551 C545 1.465 1_565 S
C551 C550 1.396 . S
C551 C552 1.399 . S
C552 H538 0.929 . S
C552 C551 1.399 . S
C552 C553 1.385 . S
C553 H539 0.931 . S
C553 C552 1.385 . S
C553 C554 1.389 . S
C554 C553 1.389 . S
C554 C555 1.387 . S
C555 H540 0.930 . S
C555 C550 1.390 . S
C555 C554 1.387 . S
H556 C568 0.930 . S
H557 C570 0.930 . S
H558 C571 0.930 . S
H559 C575 0.959 . S
H560 C575 0.959 . S
H561 C575 0.961 . S
H562 C576 0.960 . S
H563 C576 0.961 . S
H564 C576 0.959 . S
H565 C579 0.929 1_554 S
H566 C580 0.931 . S
H567 C582 0.930 . S
C568 H556 0.930 . S
C568 C569 1.399 . S
C568 C573 1.399 . S
C569 C568 1.399 . S
C569 C570 1.376 . S
C570 H557 0.930 . S
C570 C569 1.376 . S
C570 C571 1.388 . S
C571 H558 0.930 . S
C571 C570 1.388 . S
C571 C572 1.390 . S
C572 C571 1.390 . S
C572 C573 1.394 . S
C572 C578 1.465 . S
C573 C568 1.399 . S
C573 C572 1.394 . S
C573 C574 1.516 1_554 S
C574 C573 1.516 1_556 S
C574 C575 1.502 . S
C574 C576 1.561 1_556 S
C574 C577 1.526 . S
C575 H559 0.959 . S
C575 H560 0.959 . S
C575 H561 0.961 . S
C575 C574 1.502 . S
C576 H562 0.960 . S
C576 H563 0.961 . S
C576 H564 0.959 . S
C576 C574 1.561 1_554 S
C577 C574 1.526 . S
C577 C578 1.396 1_556 S
C577 C582 1.390 . S
C578 C572 1.465 . S
C578 C577 1.396 1_554 S
C578 C579 1.399 1_554 S
C579 H565 0.929 1_556 S
C579 C578 1.399 1_556 S
C579 C580 1.385 . S
C580 H566 0.931 . S
C580 C579 1.385 . S
C580 C581 1.389 . S
C581 C580 1.389 . S
C581 C582 1.387 . S
C582 H567 0.930 . S
C582 C577 1.390 . S
C582 C581 1.387 . S
H583 C595 0.930 . S
H584 C597 0.930 . S
H585 C598 0.930 . S
H586 C602 0.959 . S
H587 C602 0.959 . S
H588 C602 0.918 1_565 S
H589 C603 0.960 . S
H590 C603 0.961 . S
H591 C603 0.959 . S
H592 C606 0.929 . S
H593 C607 0.931 . S
H594 C609 0.930 . S
C595 H583 0.930 . S
C595 C596 1.399 . S
C595 C600 1.399 . S
C596 C595 1.399 . S
C596 C597 1.376 . S
C597 H584 0.930 . S
C597 C596 1.376 . S
C597 C598 1.388 . S
C598 H585 0.930 . S
C598 C597 1.388 . S
C598 C599 1.390 . S
C599 C598 1.390 . S
C599 C600 1.394 . S
C599 C605 1.465 1_565 S
C600 C595 1.399 . S
C600 C599 1.394 . S
C600 C601 1.516 1_565 S
C601 C600 1.516 1_545 S
C601 C602 1.502 . S
C601 C603 1.561 . S
C601 C604 1.526 . S
C602 H586 0.959 . S
C602 H587 0.959 . S
C602 H588 0.918 1_545 S
C602 C601 1.502 . S
C603 H589 0.960 . S
C603 H590 0.961 . S
C603 H591 0.959 . S
C603 C601 1.561 . S
C604 C601 1.526 . S
C604 C605 1.396 . S
C604 C609 1.390 . S
C605 C599 1.465 1_545 S
C605 C604 1.396 . S
C605 C606 1.399 . S
C606 H592 0.929 . S
C606 C605 1.399 . S
C606 C607 1.385 . S
C607 H593 0.931 . S
C607 C606 1.385 . S
C607 C608 1.389 . S
C608 C607 1.389 . S
C608 C609 1.387 . S
C609 H594 0.930 . S
C609 C604 1.390 . S
C609 C608 1.387 . S
H610 C622 0.930 . S
H611 C624 0.930 . S
H612 C625 0.930 . S
H613 C629 0.959 . S
H614 C629 0.959 . S
H615 C629 0.961 . S
H616 C630 0.960 . S
H617 C630 0.961 . S
H618 C630 0.959 . S
H619 C633 0.929 . S
H620 C634 0.931 . S
H621 C636 0.930 . S
C622 H610 0.930 . S
C622 C623 1.399 . S
C622 C627 1.399 . S
C623 C622 1.399 . S
C623 C624 1.376 . S
C624 H611 0.930 . S
C624 C623 1.376 . S
C624 C625 1.388 . S
C625 H612 0.930 . S
C625 C624 1.388 . S
C625 C626 1.390 . S
C626 C625 1.390 . S
C626 C627 1.394 . S
C626 C632 1.465 . S
C627 C622 1.399 . S
C627 C626 1.394 . S
C627 C628 1.516 . S
C628 C627 1.516 . S
C628 C629 1.502 . S
C628 C630 1.561 . S
C628 C631 1.526 . S
C629 H613 0.959 . S
C629 H614 0.959 . S
C629 H615 0.961 . S
C629 C628 1.502 . S
C630 H616 0.960 . S
C630 H617 0.961 . S
C630 H618 0.959 . S
C630 C628 1.561 . S
C631 C628 1.526 . S
C631 C632 1.396 . S
C631 C636 1.390 . S
C632 C626 1.465 . S
C632 C631 1.396 . S
C632 C633 1.399 . S
C633 H619 0.929 . S
C633 C632 1.399 . S
C633 C634 1.385 . S
C634 H620 0.931 . S
C634 C633 1.385 . S
C634 C635 1.389 . S
C635 C634 1.389 . S
C635 C636 1.387 . S
C636 H621 0.930 . S
C636 C631 1.390 . S
C636 C635 1.387 . S
H637 C649 0.930 . S
H638 C651 0.930 . S
H639 C652 0.930 . S
H640 C656 0.959 . S
H641 C656 0.959 . S
H642 C656 0.922 1_565 S
H643 C657 0.960 . S
H644 C657 0.961 . S
H645 C657 0.959 . S
H646 C660 0.929 . S
H647 C661 0.931 . S
H648 C663 0.930 . S
C649 H637 0.930 . S
C649 C650 1.399 . S
C649 C654 1.399 . S
C650 C649 1.399 . S
C650 C651 1.376 . S
C651 H638 0.930 . S
C651 C650 1.376 . S
C651 C652 1.388 . S
C652 H639 0.930 . S
C652 C651 1.388 . S
C652 C653 1.390 . S
C653 C652 1.390 . S
C653 C654 1.394 . S
C653 C659 1.465 1_565 S
C654 C649 1.399 . S
C654 C653 1.394 . S
C654 C655 1.516 1_565 S
C655 C654 1.516 1_545 S
C655 C656 1.502 . S
C655 C657 1.561 . S
C655 C658 1.526 . S
C656 H640 0.959 . S
C656 H641 0.959 . S
C656 H642 0.922 1_545 S
C656 C655 1.502 . S
C657 H643 0.960 . S
C657 H644 0.961 . S
C657 H645 0.959 . S
C657 C655 1.561 . S
C658 C655 1.526 . S
C658 C659 1.396 . S
C658 C663 1.390 . S
C659 C653 1.465 1_545 S
C659 C658 1.396 . S
C659 C660 1.399 . S
C660 H646 0.929 . S
C660 C659 1.399 . S
C660 C661 1.385 . S
C661 H647 0.931 . S
C661 C660 1.385 . S
C661 C662 1.389 . S
C662 C661 1.389 . S
C662 C663 1.387 . S
C663 H648 0.930 . S
C663 C658 1.390 . S
C663 C662 1.387 . S
H664 C676 0.930 . S
H665 C678 0.930 . S
H666 C679 0.930 . S
H667 C683 0.959 . S
H668 C683 0.959 . S
H669 C683 0.961 . S
H670 C684 0.960 . S
H671 C684 0.961 . S
H672 C684 0.959 . S
H673 C687 0.929 . S
H674 C688 0.931 . S
H675 C690 0.930 . S
C676 H664 0.930 . S
C676 C677 1.399 . S
C676 C681 1.399 . S
C677 C676 1.399 . S
C677 C678 1.376 . S
C678 H665 0.930 . S
C678 C677 1.376 . S
C678 C679 1.388 . S
C679 H666 0.930 . S
C679 C678 1.388 . S
C679 C680 1.390 . S
C680 C679 1.390 . S
C680 C681 1.394 . S
C680 C686 1.465 . S
C681 C676 1.399 . S
C681 C680 1.394 . S
C681 C682 1.516 . S
C682 C681 1.516 . S
C682 C683 1.502 . S
C682 C684 1.561 . S
C682 C685 1.526 . S
C683 H667 0.959 . S
C683 H668 0.959 . S
C683 H669 0.961 . S
C683 C682 1.502 . S
C684 H670 0.960 . S
C684 H671 0.961 . S
C684 H672 0.959 . S
C684 C682 1.561 . S
C685 C682 1.526 . S
C685 C686 1.396 . S
C685 C690 1.390 . S
C686 C680 1.465 . S
C686 C685 1.396 . S
C686 C687 1.399 . S
C687 H673 0.929 . S
C687 C686 1.399 . S
C687 C688 1.385 . S
C688 H674 0.931 . S
C688 C687 1.385 . S
C688 C689 1.389 . S
C689 C688 1.389 . S
C689 C690 1.387 . S
C690 H675 0.930 . S
C690 C685 1.390 . S
C690 C689 1.387 . S
H691 C703 0.930 . S
H692 C705 0.930 . S
H693 C706 0.930 . S
H694 C710 0.959 . S
H695 C710 0.959 . S
H696 C710 0.961 . S
H697 C711 0.960 . S
H698 C711 0.961 . S
H699 C711 0.959 . S
H700 C714 0.929 . S
H701 C715 0.931 . S
H702 C717 0.930 . S
C703 H691 0.930 . S
C703 C704 1.399 . S
C703 C708 1.399 . S
C704 C703 1.399 . S
C704 C705 1.376 . S
C705 H692 0.930 . S
C705 C704 1.376 . S
C705 C706 1.388 . S
C706 H693 0.930 . S
C706 C705 1.388 . S
C706 C707 1.390 . S
C707 C706 1.390 . S
C707 C708 1.394 . S
C707 C713 1.465 . S
C708 C703 1.399 . S
C708 C707 1.394 . S
C708 C709 1.516 . S
C709 C708 1.516 . S
C709 C710 1.502 . S
C709 C711 1.561 . S
C709 C712 1.526 . S
C710 H694 0.959 . S
C710 H695 0.959 . S
C710 H696 0.961 . S
C710 C709 1.502 . S
C711 H697 0.960 . S
C711 H698 0.961 . S
C711 H699 0.959 . S
C711 C709 1.561 . S
C712 C709 1.526 . S
C712 C713 1.396 . S
C712 C717 1.390 . S
C713 C707 1.465 . S
C713 C712 1.396 . S
C713 C714 1.399 . S
C714 H700 0.929 . S
C714 C713 1.399 . S
C714 C715 1.385 . S
C715 H701 0.931 . S
C715 C714 1.385 . S
C715 C716 1.389 . S
C716 C715 1.389 . S
C716 C717 1.387 . S
C717 H702 0.930 . S
C717 C712 1.390 . S
C717 C716 1.387 . S
H718 C730 0.930 . S
H719 C732 0.930 . S
H720 C733 0.930 . S
H721 C737 0.959 . S
H722 C737 0.959 . S
H723 C737 0.961 . S
H724 C738 0.960 . S
H725 C738 0.961 . S
H726 C738 0.959 . S
H727 C741 0.929 . S
H728 C742 0.931 . S
H729 C744 0.930 . S
C730 H718 0.930 . S
C730 C731 1.399 . S
C730 C735 1.399 . S
C731 C730 1.399 . S
C731 C732 1.376 . S
C732 H719 0.930 . S
C732 C731 1.376 . S
C732 C733 1.388 1_556 S
C733 H720 0.930 . S
C733 C732 1.388 1_554 S
C733 C734 1.390 . S
C734 C733 1.390 . S
C734 C735 1.394 1_554 S
C734 C740 1.465 . S
C735 C730 1.399 . S
C735 C734 1.394 1_556 S
C735 C736 1.516 . S
C736 C735 1.516 . S
C736 C737 1.502 . S
C736 C738 1.561 1_556 S
C736 C739 1.526 1_556 S
C737 H721 0.959 . S
C737 H722 0.959 . S
C737 H723 0.961 . S
C737 C736 1.502 . S
C738 H724 0.960 . S
C738 H725 0.961 . S
C738 H726 0.959 . S
C738 C736 1.561 1_554 S
C739 C736 1.526 1_554 S
C739 C740 1.396 . S
C739 C744 1.390 . S
C740 C734 1.465 . S
C740 C739 1.396 . S
C740 C741 1.399 . S
C741 H727 0.929 . S
C741 C740 1.399 . S
C741 C742 1.385 . S
C742 H728 0.931 . S
C742 C741 1.385 . S
C742 C743 1.389 . S
C743 C742 1.389 . S
C743 C744 1.387 . S
C744 H729 0.930 . S
C744 C739 1.390 . S
C744 C743 1.387 . S
H745 C757 0.930 . S
H746 C759 0.930 . S
H747 C760 0.930 . S
H748 C764 0.959 . S
H749 C764 0.959 . S
H750 C764 0.961 . S
H751 C765 0.960 . S
H752 C765 0.961 . S
H753 C765 0.959 . S
H754 C768 0.929 . S
H755 C769 0.931 . S
H756 C771 0.930 . S
C757 H745 0.930 . S
C757 C758 1.399 . S
C757 C762 1.399 . S
C758 C757 1.399 . S
C758 C759 1.376 . S
C759 H746 0.930 . S
C759 C758 1.376 . S
C759 C760 1.388 . S
C760 H747 0.930 . S
C760 C759 1.388 . S
C760 C761 1.390 . S
C761 C760 1.390 . S
C761 C762 1.394 . S
C761 C767 1.465 . S
C762 C757 1.399 . S
C762 C761 1.394 . S
C762 C763 1.516 . S
C763 C762 1.516 . S
C763 C764 1.502 . S
C763 C765 1.561 . S
C763 C766 1.526 . S
C764 H748 0.959 . S
C764 H749 0.959 . S
C764 H750 0.961 . S
C764 C763 1.502 . S
C765 H751 0.960 . S
C765 H752 0.961 . S
C765 H753 0.959 . S
C765 C763 1.561 . S
C766 C763 1.526 . S
C766 C767 1.396 . S
C766 C771 1.390 . S
C767 C761 1.465 . S
C767 C766 1.396 . S
C767 C768 1.399 . S
C768 H754 0.929 . S
C768 C767 1.399 . S
C768 C769 1.385 . S
C769 H755 0.931 . S
C769 C768 1.385 . S
C769 C770 1.389 . S
C770 C769 1.389 . S
C770 C771 1.387 . S
C771 H756 0.930 . S
C771 C766 1.390 . S
C771 C770 1.387 . S
H772 C784 0.930 . S
H773 C786 0.930 . S
H774 C787 0.930 . S
H775 C791 0.959 . S
H776 C791 0.959 . S
H777 C791 0.961 . S
H778 C792 0.960 . S
H779 C792 0.961 . S
H780 C792 0.959 . S
H781 C795 0.929 . S
H782 C796 0.931 . S
H783 C798 0.930 . S
C784 H772 0.930 . S
C784 C785 1.399 . S
C784 C789 1.399 . S
C785 C784 1.399 . S
C785 C786 1.376 . S
C786 H773 0.930 . S
C786 C785 1.376 . S
C786 C787 1.388 . S
C787 H774 0.930 . S
C787 C786 1.388 . S
C787 C788 1.390 . S
C788 C787 1.390 . S
C788 C789 1.394 . S
C788 C794 1.465 . S
C789 C784 1.399 . S
C789 C788 1.394 . S
C789 C790 1.516 . S
C790 C789 1.516 . S
C790 C791 1.502 . S
C790 C792 1.561 . S
C790 C793 1.526 . S
C791 H775 0.959 . S
C791 H776 0.959 . S
C791 H777 0.961 . S
C791 C790 1.502 . S
C792 H778 0.960 . S
C792 H779 0.961 . S
C792 H780 0.959 . S
C792 C790 1.561 . S
C793 C790 1.526 . S
C793 C794 1.396 . S
C793 C798 1.390 . S
C794 C788 1.465 . S
C794 C793 1.396 . S
C794 C795 1.399 . S
C795 H781 0.929 . S
C795 C794 1.399 . S
C795 C796 1.385 . S
C796 H782 0.931 . S
C796 C795 1.385 . S
C796 C797 1.389 . S
C797 C796 1.389 . S
C797 C798 1.387 . S
C798 H783 0.930 . S
C798 C793 1.390 . S
C798 C797 1.387 . S
H799 C811 0.930 . S
H800 C813 0.930 . S
H801 C814 0.930 . S
H802 C818 0.959 . S
H803 C818 0.959 . S
H804 C818 0.961 . S
H805 C819 0.960 . S
H806 C819 0.961 . S
H807 C819 0.959 . S
H808 C822 0.929 . S
H809 C823 0.931 . S
H810 C825 0.930 . S
C811 H799 0.930 . S
C811 C812 1.399 . S
C811 C816 1.399 . S
C812 C811 1.399 . S
C812 C813 1.376 . S
C813 H800 0.930 . S
C813 C812 1.376 . S
C813 C814 1.388 . S
C814 H801 0.930 . S
C814 C813 1.388 . S
C814 C815 1.390 . S
C815 C814 1.390 . S
C815 C816 1.394 . S
C815 C821 1.465 . S
C816 C811 1.399 . S
C816 C815 1.394 . S
C816 C817 1.516 . S
C817 C816 1.516 . S
C817 C818 1.502 . S
C817 C819 1.561 . S
C817 C820 1.526 . S
C818 H802 0.959 . S
C818 H803 0.959 . S
C818 H804 0.961 . S
C818 C817 1.502 . S
C819 H805 0.960 . S
C819 H806 0.961 . S
C819 H807 0.959 . S
C819 C817 1.561 . S
C820 C817 1.526 . S
C820 C821 1.396 . S
C820 C825 1.390 . S
C821 C815 1.465 . S
C821 C820 1.396 . S
C821 C822 1.399 . S
C822 H808 0.929 . S
C822 C821 1.399 . S
C822 C823 1.385 . S
C823 H809 0.931 . S
C823 C822 1.385 . S
C823 C824 1.389 . S
C824 C823 1.389 . S
C824 C825 1.387 . S
C825 H810 0.930 . S
C825 C820 1.390 . S
C825 C824 1.387 . S
H826 C838 0.930 . S
H827 C840 0.930 . S
H828 C841 0.930 . S
H829 C845 0.959 . S
H830 C845 0.959 . S
H831 C845 0.961 . S
H832 C846 0.960 . S
H833 C846 0.961 . S
H834 C846 0.959 . S
H835 C849 0.929 . S
H836 C850 0.931 . S
H837 C852 0.930 . S
C838 H826 0.930 . S
C838 C839 1.399 . S
C838 C843 1.399 . S
C839 C838 1.399 . S
C839 C840 1.376 . S
C840 H827 0.930 . S
C840 C839 1.376 . S
C840 C841 1.388 . S
C841 H828 0.930 . S
C841 C840 1.388 . S
C841 C842 1.390 . S
C842 C841 1.390 . S
C842 C843 1.394 . S
C842 C848 1.465 . S
C843 C838 1.399 . S
C843 C842 1.394 . S
C843 C844 1.516 1_554 S
C844 C843 1.516 1_556 S
C844 C845 1.502 . S
C844 C846 1.561 1_556 S
C844 C847 1.526 . S
C845 H829 0.959 . S
C845 H830 0.959 . S
C845 H831 0.961 . S
C845 C844 1.502 . S
C846 H832 0.960 . S
C846 H833 0.961 . S
C846 H834 0.959 . S
C846 C844 1.561 1_554 S
C847 C844 1.526 . S
C847 C848 1.396 1_556 S
C847 C852 1.390 . S
C848 C842 1.465 . S
C848 C847 1.396 1_554 S
C848 C849 1.399 . S
C849 H835 0.929 . S
C849 C848 1.399 . S
C849 C850 1.385 1_554 S
C850 H836 0.931 . S
C850 C849 1.385 1_556 S
C850 C851 1.389 . S
C851 C850 1.389 . S
C851 C852 1.387 . S
C852 H837 0.930 . S
C852 C847 1.390 . S
C852 C851 1.387 . S
H853 C865 0.930 . S
H854 C867 0.930 . S
H855 C868 0.930 . S
H856 C872 0.959 . S
H857 C872 0.959 . S
H858 C872 0.961 . S
H859 C873 0.960 . S
H860 C873 0.961 . S
H861 C873 0.959 . S
H862 C876 0.929 . S
H863 C877 0.931 . S
H864 C879 0.930 . S
C865 H853 0.930 . S
C865 C866 1.399 . S
C865 C870 1.399 . S
C866 C865 1.399 . S
C866 C867 1.376 . S
C867 H854 0.930 . S
C867 C866 1.376 . S
C867 C868 1.388 . S
C868 H855 0.930 . S
C868 C867 1.388 . S
C868 C869 1.390 . S
C869 C868 1.390 . S
C869 C870 1.394 . S
C869 C875 1.465 . S
C870 C865 1.399 . S
C870 C869 1.394 . S
C870 C871 1.516 . S
C871 C870 1.516 . S
C871 C872 1.502 . S
C871 C873 1.561 . S
C871 C874 1.526 . S
C872 H856 0.959 . S
C872 H857 0.959 . S
C872 H858 0.961 . S
C872 C871 1.502 . S
C873 H859 0.960 . S
C873 H860 0.961 . S
C873 H861 0.959 . S
C873 C871 1.561 . S
C874 C871 1.526 . S
C874 C875 1.396 . S
C874 C879 1.390 . S
C875 C869 1.465 . S
C875 C874 1.396 . S
C875 C876 1.399 . S
C876 H862 0.929 . S
C876 C875 1.399 . S
C876 C877 1.385 . S
C877 H863 0.931 . S
C877 C876 1.385 . S
C877 C878 1.389 . S
C878 C877 1.389 . S
C878 C879 1.387 . S
C879 H864 0.930 . S
C879 C874 1.390 . S
C879 C878 1.387 . S
H880 C892 0.930 . S
H881 C894 0.930 . S
H882 C895 0.930 . S
H883 C899 0.959 . S
H884 C899 0.959 . S
H885 C899 0.961 . S
H886 C900 0.960 . S
H887 C900 0.961 . S
H888 C900 0.959 . S
H889 C903 0.929 . S
H890 C904 0.931 . S
H891 C906 0.930 . S
C892 H880 0.930 . S
C892 C893 1.399 . S
C892 C897 1.399 . S
C893 C892 1.399 . S
C893 C894 1.376 . S
C894 H881 0.930 . S
C894 C893 1.376 . S
C894 C895 1.388 . S
C895 H882 0.930 . S
C895 C894 1.388 . S
C895 C896 1.390 . S
C896 C895 1.390 . S
C896 C897 1.394 . S
C896 C902 1.465 . S
C897 C892 1.399 . S
C897 C896 1.394 . S
C897 C898 1.516 . S
C898 C897 1.516 . S
C898 C899 1.502 . S
C898 C900 1.561 . S
C898 C901 1.526 . S
C899 H883 0.959 . S
C899 H884 0.959 . S
C899 H885 0.961 . S
C899 C898 1.502 . S
C900 H886 0.960 . S
C900 H887 0.961 . S
C900 H888 0.959 . S
C900 C898 1.561 . S
C901 C898 1.526 . S
C901 C902 1.396 . S
C901 C906 1.390 . S
C902 C896 1.465 . S
C902 C901 1.396 . S
C902 C903 1.399 . S
C903 H889 0.929 . S
C903 C902 1.399 . S
C903 C904 1.385 . S
C904 H890 0.931 . S
C904 C903 1.385 . S
C904 C905 1.389 . S
C905 C904 1.389 . S
C905 C906 1.387 . S
C906 H891 0.930 . S
C906 C901 1.390 . S
C906 C905 1.387 . S
H907 C919 0.930 . S
H908 C921 0.930 . S
H909 C922 0.952 . S
H910 C926 0.959 . S
H911 C926 0.959 . S
H912 C926 0.961 . S
H913 C927 0.960 . S
H914 C927 0.961 . S
H915 C927 0.959 . S
H916 C930 0.929 . S
H917 C931 0.931 . S
H918 C933 0.930 . S
C919 H907 0.930 . S
C919 C920 1.399 . S
C919 C924 1.399 1_556 S
C920 C919 1.399 . S
C920 C921 1.376 . S
C921 H908 0.930 . S
C921 C920 1.376 . S
C921 C922 1.365 1_455 S
C922 H909 0.952 . S
C922 C921 1.365 1_655 S
C922 C923 1.392 1_556 S
C923 C922 1.392 1_554 S
C923 C924 1.394 1_655 S
C923 C929 1.465 . S
C924 C919 1.399 1_554 S
C924 C923 1.394 1_455 S
C924 C925 1.516 . S
C925 C924 1.516 . S
C925 C926 1.502 . S
C925 C927 1.561 1_455 S
C925 C928 1.526 1_455 S
C926 H910 0.959 . S
C926 H911 0.959 . S
C926 H912 0.961 . S
C926 C925 1.502 . S
C927 H913 0.960 . S
C927 H914 0.961 . S
C927 H915 0.959 . S
C927 C925 1.561 1_655 S
C928 C925 1.526 1_655 S
C928 C929 1.396 . S
C928 C933 1.390 . S
C929 C923 1.465 . S
C929 C928 1.396 . S
C929 C930 1.399 . S
C930 H916 0.929 . S
C930 C929 1.399 . S
C930 C931 1.385 . S
C931 H917 0.931 . S
C931 C930 1.385 . S
C931 C932 1.389 . S
C932 C931 1.389 . S
C932 C933 1.387 . S
C933 H918 0.930 . S
C933 C928 1.390 . S
C933 C932 1.387 . S
H934 C946 0.930 . S
H935 C948 0.930 . S
H936 C949 0.930 . S
H937 C953 0.959 . S
H938 C953 0.959 . S
H939 C953 0.961 . S
H940 C954 0.960 . S
H941 C954 0.961 . S
H942 C954 0.959 . S
H943 C957 0.929 . S
H944 C958 0.931 . S
H945 C960 0.930 . S
C946 H934 0.930 . S
C946 C947 1.399 . S
C946 C951 1.399 . S
C947 C946 1.399 . S
C947 C948 1.376 . S
C948 H935 0.930 . S
C948 C947 1.376 . S
C948 C949 1.388 . S
C949 H936 0.930 . S
C949 C948 1.388 . S
C949 C950 1.390 . S
C950 C949 1.390 . S
C950 C951 1.394 . S
C950 C956 1.465 . S
C951 C946 1.399 . S
C951 C950 1.394 . S
C951 C952 1.516 . S
C952 C951 1.516 . S
C952 C953 1.502 . S
C952 C954 1.561 . S
C952 C955 1.526 . S
C953 H937 0.959 . S
C953 H938 0.959 . S
C953 H939 0.961 . S
C953 C952 1.502 . S
C954 H940 0.960 . S
C954 H941 0.961 . S
C954 H942 0.959 . S
C954 C952 1.561 . S
C955 C952 1.526 . S
C955 C956 1.396 . S
C955 C960 1.390 . S
C956 C950 1.465 . S
C956 C955 1.396 . S
C956 C957 1.399 . S
C957 H943 0.929 . S
C957 C956 1.399 . S
C957 C958 1.385 . S
C958 H944 0.931 . S
C958 C957 1.385 . S
C958 C959 1.389 . S
C959 C958 1.389 . S
C959 C960 1.387 . S
C960 H945 0.930 . S
C960 C955 1.390 . S
C960 C959 1.387 . S
H961 C973 0.930 . S
H962 C975 0.930 . S
H963 C976 0.930 . S
H964 C980 0.959 . S
H965 C980 0.959 . S
H966 C980 0.961 . S
H967 C981 0.960 . S
H968 C981 0.961 . S
H969 C981 0.959 . S
H970 C984 0.929 . S
H971 C985 0.931 . S
H972 C987 0.930 . S
C973 H961 0.930 . S
C973 C974 1.399 . S
C973 C978 1.399 . S
C974 C973 1.399 . S
C974 C975 1.376 . S
C975 H962 0.930 . S
C975 C974 1.376 . S
C975 C976 1.388 . S
C976 H963 0.930 . S
C976 C975 1.388 . S
C976 C977 1.390 . S
C977 C976 1.390 . S
C977 C978 1.394 . S
C977 C983 1.465 . S
C978 C973 1.399 . S
C978 C977 1.394 . S
C978 C979 1.516 . S
C979 C978 1.516 . S
C979 C980 1.502 . S
C979 C981 1.561 . S
C979 C982 1.526 . S
C980 H964 0.959 . S
C980 H965 0.959 . S
C980 H966 0.961 . S
C980 C979 1.502 . S
C981 H967 0.960 . S
C981 H968 0.961 . S
C981 H969 0.959 . S
C981 C979 1.561 . S
C982 C979 1.526 . S
C982 C983 1.396 . S
C982 C987 1.390 . S
C983 C977 1.465 . S
C983 C982 1.396 . S
C983 C984 1.399 . S
C984 H970 0.929 . S
C984 C983 1.399 . S
C984 C985 1.385 . S
C985 H971 0.931 . S
C985 C984 1.385 . S
C985 C986 1.389 . S
C986 C985 1.389 . S
C986 C987 1.387 . S
C987 H972 0.930 . S
C987 C982 1.390 . S
C987 C986 1.387 . S
H988 C1000 0.930 . S
H989 C1002 0.930 . S
H990 C1003 0.930 . S
H991 C1007 0.959 . S
H992 C1007 0.959 . S
H993 C1007 0.961 . S
H994 C1008 0.960 . S
H995 C1008 0.961 . S
H996 C1008 0.959 . S
H997 C1011 0.929 . S
H998 C1012 0.931 . S
H999 C1014 0.930 . S
C1000 H988 0.930 . S
C1000 C1001 1.399 . S
C1000 C1005 1.399 . S
C1001 C1000 1.399 . S
C1001 C1002 1.376 . S
C1002 H989 0.930 . S
C1002 C1001 1.376 . S
C1002 C1003 1.388 . S
C1003 H990 0.930 . S
C1003 C1002 1.388 . S
C1003 C1004 1.390 . S
C1004 C1003 1.390 . S
C1004 C1005 1.394 . S
C1004 C1010 1.465 . S
C1005 C1000 1.399 . S
C1005 C1004 1.394 . S
C1005 C1006 1.516 . S
C1006 C1005 1.516 . S
C1006 C1007 1.502 . S
C1006 C1008 1.561 . S
C1006 C1009 1.526 . S
C1007 H991 0.959 . S
C1007 H992 0.959 . S
C1007 H993 0.961 . S
C1007 C1006 1.502 . S
C1008 H994 0.960 . S
C1008 H995 0.961 . S
C1008 H996 0.959 . S
C1008 C1006 1.561 . S
C1009 C1006 1.526 . S
C1009 C1010 1.396 . S
C1009 C1014 1.390 . S
C1010 C1004 1.465 . S
C1010 C1009 1.396 . S
C1010 C1011 1.399 . S
C1011 H997 0.929 . S
C1011 C1010 1.399 . S
C1011 C1012 1.385 . S
C1012 H998 0.931 . S
C1012 C1011 1.385 . S
C1012 C1013 1.389 . S
C1013 C1012 1.389 . S
C1013 C1014 1.387 . S
C1014 H999 0.930 . S
C1014 C1009 1.390 . S
C1014 C1013 1.387 . S
H1015 C1027 0.930 . S
H1016 C1029 0.930 . S
H1017 C1030 0.930 . S
H1018 C1034 0.959 . S
H1019 C1034 0.959 . S
H1020 C1034 0.961 . S
H1021 C1035 0.960 . S
H1022 C1035 0.961 . S
H1023 C1035 0.959 . S
H1024 C1038 0.929 . S
H1025 C1039 0.931 . S
H1026 C1041 0.930 . S
C1027 H1015 0.930 . S
C1027 C1028 1.399 . S
C1027 C1032 1.399 1_554 S
C1028 C1027 1.399 . S
C1028 C1029 1.376 . S
C1029 H1016 0.930 . S
C1029 C1028 1.376 . S
C1029 C1030 1.388 . S
C1030 H1017 0.930 . S
C1030 C1029 1.388 . S
C1030 C1031 1.390 1_554 S
C1031 C1030 1.390 1_556 S
C1031 C1032 1.394 . S
C1031 C1037 1.465 . S
C1032 C1027 1.399 1_556 S
C1032 C1031 1.394 . S
C1032 C1033 1.516 . S
C1033 C1032 1.516 . S
C1033 C1034 1.502 . S
C1033 C1035 1.561 . S
C1033 C1036 1.526 . S
C1034 H1018 0.959 . S
C1034 H1019 0.959 . S
C1034 H1020 0.961 . S
C1034 C1033 1.502 . S
C1035 H1021 0.960 . S
C1035 H1022 0.961 . S
C1035 H1023 0.959 . S
C1035 C1033 1.561 . S
C1036 C1033 1.526 . S
C1036 C1037 1.396 . S
C1036 C1041 1.390 . S
C1037 C1031 1.465 . S
C1037 C1036 1.396 . S
C1037 C1038 1.399 . S
C1038 H1024 0.929 . S
C1038 C1037 1.399 . S
C1038 C1039 1.385 . S
C1039 H1025 0.931 . S
C1039 C1038 1.385 . S
C1039 C1040 1.389 . S
C1040 C1039 1.389 . S
C1040 C1041 1.387 . S
C1041 H1026 0.930 . S
C1041 C1036 1.390 . S
C1041 C1040 1.387 . S
H1042 C1054 0.930 . S
H1043 C1056 0.930 . S
H1044 C1057 0.930 . S
H1045 C1061 0.959 . S
H1046 C1061 0.959 . S
H1047 C1061 0.961 . S
H1048 C1062 0.960 . S
H1049 C1062 0.961 . S
H1050 C1062 0.959 . S
H1051 C1065 0.929 . S
H1052 C1066 0.931 . S
H1053 C1068 0.930 . S
C1054 H1042 0.930 . S
C1054 C1055 1.399 . S
C1054 C1059 1.399 . S
C1055 C1054 1.399 . S
C1055 C1056 1.376 . S
C1056 H1043 0.930 . S
C1056 C1055 1.376 . S
C1056 C1057 1.388 . S
C1057 H1044 0.930 . S
C1057 C1056 1.388 . S
C1057 C1058 1.390 . S
C1058 C1057 1.390 . S
C1058 C1059 1.394 . S
C1058 C1064 1.465 . S
C1059 C1054 1.399 . S
C1059 C1058 1.394 . S
C1059 C1060 1.516 . S
C1060 C1059 1.516 . S
C1060 C1061 1.502 . S
C1060 C1062 1.561 . S
C1060 C1063 1.526 . S
C1061 H1045 0.959 . S
C1061 H1046 0.959 . S
C1061 H1047 0.961 . S
C1061 C1060 1.502 . S
C1062 H1048 0.960 . S
C1062 H1049 0.961 . S
C1062 H1050 0.959 . S
C1062 C1060 1.561 . S
C1063 C1060 1.526 . S
C1063 C1064 1.396 . S
C1063 C1068 1.390 . S
C1064 C1058 1.465 . S
C1064 C1063 1.396 . S
C1064 C1065 1.399 . S
C1065 H1051 0.929 . S
C1065 C1064 1.399 . S
C1065 C1066 1.385 . S
C1066 H1052 0.931 . S
C1066 C1065 1.385 . S
C1066 C1067 1.389 . S
C1067 C1066 1.389 . S
C1067 C1068 1.387 . S
C1068 H1053 0.930 . S
C1068 C1063 1.390 . S
C1068 C1067 1.387 . S
H1069 C1081 0.930 . S
H1070 C1083 0.930 . S
H1071 C1084 0.930 . S
H1072 C1088 0.959 . S
H1073 C1088 0.959 . S
H1074 C1088 0.961 . S
H1075 C1089 0.960 . S
H1076 C1089 0.961 1_655 S
H1077 C1089 0.959 . S
H1078 C1092 0.929 . S
H1079 C1093 0.931 . S
H1080 C1095 0.930 . S
C1081 H1069 0.930 . S
C1081 C1082 1.399 . S
C1081 C1086 1.399 . S
C1082 C1081 1.399 . S
C1082 C1083 1.376 . S
C1083 H1070 0.930 . S
C1083 C1082 1.376 . S
C1083 C1084 1.388 . S
C1084 H1071 0.930 . S
C1084 C1083 1.388 . S
C1084 C1085 1.390 . S
C1085 C1084 1.390 . S
C1085 C1086 1.394 . S
C1085 C1091 1.472 . S
C1086 C1081 1.399 . S
C1086 C1085 1.394 . S
C1086 C1087 1.516 1_455 S
C1087 C1086 1.516 1_655 S
C1087 C1088 1.502 . S
C1087 C1089 1.561 1_655 S
C1087 C1090 1.526 . S
C1088 H1072 0.959 . S
C1088 H1073 0.959 . S
C1088 H1074 0.961 . S
C1088 C1087 1.502 . S
C1089 H1075 0.960 . S
C1089 H1076 0.961 1_455 S
C1089 H1077 0.959 . S
C1089 C1087 1.561 1_455 S
C1090 C1087 1.526 . S
C1090 C1091 1.387 1_655 S
C1090 C1095 1.390 . S
C1091 C1085 1.472 . S
C1091 C1090 1.387 1_455 S
C1091 C1092 1.400 . S
C1092 H1078 0.929 . S
C1092 C1091 1.400 . S
C1092 C1093 1.385 1_455 S
C1093 H1079 0.931 . S
C1093 C1092 1.385 1_655 S
C1093 C1094 1.389 . S
C1094 C1093 1.389 . S
C1094 C1095 1.387 . S
C1095 H1080 0.930 . S
C1095 C1090 1.390 . S
C1095 C1094 1.387 . S
H1096 C1108 0.930 . S
H1097 C1110 0.930 . S
H1098 C1111 0.930 . S
H1099 C1115 0.959 . S
H1100 C1115 0.959 . S
H1101 C1115 0.961 . S
H1102 C1116 0.960 . S
H1103 C1116 0.961 . S
H1104 C1116 0.959 . S
H1105 C1119 0.929 . S
H1106 C1120 0.931 . S
H1107 C1122 0.930 . S
C1108 H1096 0.930 . S
C1108 C1109 1.399 . S
C1108 C1113 1.399 . S
C1109 C1108 1.399 . S
C1109 C1110 1.376 . S
C1110 H1097 0.930 . S
C1110 C1109 1.376 . S
C1110 C1111 1.388 . S
C1111 H1098 0.930 . S
C1111 C1110 1.388 . S
C1111 C1112 1.390 . S
C1112 C1111 1.390 . S
C1112 C1113 1.394 . S
C1112 C1118 1.465 . S
C1113 C1108 1.399 . S
C1113 C1112 1.394 . S
C1113 C1114 1.516 . S
C1114 C1113 1.516 . S
C1114 C1115 1.502 . S
C1114 C1116 1.561 . S
C1114 C1117 1.526 . S
C1115 H1099 0.959 . S
C1115 H1100 0.959 . S
C1115 H1101 0.961 . S
C1115 C1114 1.502 . S
C1116 H1102 0.960 . S
C1116 H1103 0.961 . S
C1116 H1104 0.959 . S
C1116 C1114 1.561 . S
C1117 C1114 1.526 . S
C1117 C1118 1.396 . S
C1117 C1122 1.390 . S
C1118 C1112 1.465 . S
C1118 C1117 1.396 . S
C1118 C1119 1.399 . S
C1119 H1105 0.929 . S
C1119 C1118 1.399 . S
C1119 C1120 1.385 . S
C1120 H1106 0.931 . S
C1120 C1119 1.385 . S
C1120 C1121 1.389 . S
C1121 C1120 1.389 . S
C1121 C1122 1.387 . S
C1122 H1107 0.930 . S
C1122 C1117 1.390 . S
C1122 C1121 1.387 . S
H1123 C1135 0.930 1_455 S
H1124 C1137 0.930 . S
H1125 C1138 0.930 . S
H1126 C1142 0.959 . S
H1127 C1142 0.959 . S
H1128 C1142 0.961 1_554 S
H1129 C1143 0.960 . S
H1130 C1143 0.961 . S
H1131 C1143 0.959 . S
H1132 C1146 0.929 . S
H1133 C1147 0.917 1_655 S
H1134 C1149 0.930 . S
C1135 H1123 0.930 1_655 S
C1135 C1136 1.399 . S
C1135 C1140 1.397 1_654 S
C1136 C1135 1.399 . S
C1136 C1137 1.376 . S
C1137 H1124 0.930 . S
C1137 C1136 1.376 . S
C1137 C1138 1.388 1_554 S
C1138 H1125 0.930 . S
C1138 C1137 1.388 1_556 S
C1138 C1139 1.390 . S
C1139 C1138 1.390 . S
C1139 C1140 1.388 1_655 S
C1139 C1145 1.465 . S
C1140 C1135 1.397 1_456 S
C1140 C1139 1.388 1_455 S
C1140 C1141 1.524 . S
C1141 C1140 1.524 . S
C1141 C1142 1.502 . S
C1141 C1143 1.561 . S
C1141 C1144 1.526 . S
C1142 H1126 0.959 . S
C1142 H1127 0.959 . S
C1142 H1128 0.961 1_556 S
C1142 C1141 1.502 . S
C1143 H1129 0.960 . S
C1143 H1130 0.961 . S
C1143 H1131 0.959 . S
C1143 C1141 1.561 . S
C1144 C1141 1.526 . S
C1144 C1145 1.396 1_455 S
C1144 C1149 1.390 . S
C1145 C1139 1.465 . S
C1145 C1144 1.396 1_655 S
C1145 C1146 1.399 . S
C1146 H1132 0.929 . S
C1146 C1145 1.399 . S
C1146 C1147 1.385 1_655 S
C1147 H1133 0.917 1_455 S
C1147 C1146 1.385 1_455 S
C1147 C1148 1.389 . S
C1148 C1147 1.389 . S
C1148 C1149 1.387 . S
C1149 H1134 0.930 . S
C1149 C1144 1.390 . S
C1149 C1148 1.387 . S
H1150 C1162 0.930 . S
H1151 C1164 0.930 . S
H1152 C1165 0.930 . S
H1153 C1169 0.959 . S
H1154 C1169 0.959 . S
H1155 C1169 0.961 . S
H1156 C1170 0.960 . S
H1157 C1170 0.961 . S
H1158 C1170 0.959 . S
H1159 C1173 0.929 . S
H1160 C1174 0.931 . S
H1161 C1176 0.930 . S
C1162 H1150 0.930 . S
C1162 C1163 1.399 . S
C1162 C1167 1.399 . S
C1163 C1162 1.399 . S
C1163 C1164 1.376 . S
C1164 H1151 0.930 . S
C1164 C1163 1.376 . S
C1164 C1165 1.388 . S
C1165 H1152 0.930 . S
C1165 C1164 1.388 . S
C1165 C1166 1.390 . S
C1166 C1165 1.390 . S
C1166 C1167 1.394 . S
C1166 C1172 1.465 . S
C1167 C1162 1.399 . S
C1167 C1166 1.394 . S
C1167 C1168 1.516 . S
C1168 C1167 1.516 . S
C1168 C1169 1.502 . S
C1168 C1170 1.561 . S
C1168 C1171 1.526 . S
C1169 H1153 0.959 . S
C1169 H1154 0.959 . S
C1169 H1155 0.961 . S
C1169 C1168 1.502 . S
C1170 H1156 0.960 . S
C1170 H1157 0.961 . S
C1170 H1158 0.959 . S
C1170 C1168 1.561 . S
C1171 C1168 1.526 . S
C1171 C1172 1.396 . S
C1171 C1176 1.390 . S
C1172 C1166 1.465 . S
C1172 C1171 1.396 . S
C1172 C1173 1.399 . S
C1173 H1159 0.929 . S
C1173 C1172 1.399 . S
C1173 C1174 1.385 . S
C1174 H1160 0.931 . S
C1174 C1173 1.385 . S
C1174 C1175 1.389 . S
C1175 C1174 1.389 . S
C1175 C1176 1.387 . S
C1176 H1161 0.930 . S
C1176 C1171 1.390 . S
C1176 C1175 1.387 . S
H1177 C1189 0.930 . S
H1178 C1191 0.930 . S
H1179 C1192 0.930 . S
H1180 C1196 0.959 . S
H1181 C1196 0.959 . S
H1182 C1196 0.961 . S
H1183 C1197 0.960 . S
H1184 C1197 0.961 . S
H1185 C1197 0.959 . S
H1186 C1200 0.929 . S
H1187 C1201 0.931 . S
H1188 C1203 0.930 . S
C1189 H1177 0.930 . S
C1189 C1190 1.399 . S
C1189 C1194 1.399 . S
C1190 C1189 1.399 . S
C1190 C1191 1.376 . S
C1191 H1178 0.930 . S
C1191 C1190 1.376 . S
C1191 C1192 1.388 . S
C1192 H1179 0.930 . S
C1192 C1191 1.388 . S
C1192 C1193 1.390 . S
C1193 C1192 1.390 . S
C1193 C1194 1.394 . S
C1193 C1199 1.465 . S
C1194 C1189 1.399 . S
C1194 C1193 1.394 . S
C1194 C1195 1.516 . S
C1195 C1194 1.516 . S
C1195 C1196 1.502 . S
C1195 C1197 1.561 . S
C1195 C1198 1.526 . S
C1196 H1180 0.959 . S
C1196 H1181 0.959 . S
C1196 H1182 0.961 . S
C1196 C1195 1.502 . S
C1197 H1183 0.960 . S
C1197 H1184 0.961 . S
C1197 H1185 0.959 . S
C1197 C1195 1.561 . S
C1198 C1195 1.526 . S
C1198 C1199 1.396 . S
C1198 C1203 1.390 . S
C1199 C1193 1.465 . S
C1199 C1198 1.396 . S
C1199 C1200 1.399 . S
C1200 H1186 0.929 . S
C1200 C1199 1.399 . S
C1200 C1201 1.385 . S
C1201 H1187 0.931 . S
C1201 C1200 1.385 . S
C1201 C1202 1.389 . S
C1202 C1201 1.389 . S
C1202 C1203 1.387 . S
C1203 H1188 0.930 . S
C1203 C1198 1.390 . S
C1203 C1202 1.387 . S
H1204 C1216 0.930 . S
H1205 C1218 0.930 . S
H1206 C1219 0.930 . S
H1207 C1223 0.959 . S
H1208 C1223 0.959 . S
H1209 C1223 0.961 . S
H1210 C1224 0.960 . S
H1211 C1224 0.961 . S
H1212 C1224 0.959 . S
H1213 C1227 0.929 . S
H1214 C1228 0.931 . S
H1215 C1230 0.930 . S
C1216 H1204 0.930 . S
C1216 C1217 1.399 . S
C1216 C1221 1.399 . S
C1217 C1216 1.399 . S
C1217 C1218 1.376 . S
C1218 H1205 0.930 . S
C1218 C1217 1.376 . S
C1218 C1219 1.388 . S
C1219 H1206 0.930 . S
C1219 C1218 1.388 . S
C1219 C1220 1.390 . S
C1220 C1219 1.390 . S
C1220 C1221 1.394 . S
C1220 C1226 1.465 . S
C1221 C1216 1.399 . S
C1221 C1220 1.394 . S
C1221 C1222 1.516 . S
C1222 C1221 1.516 . S
C1222 C1223 1.502 . S
C1222 C1224 1.561 . S
C1222 C1225 1.526 . S
C1223 H1207 0.959 . S
C1223 H1208 0.959 . S
C1223 H1209 0.961 . S
C1223 C1222 1.502 . S
C1224 H1210 0.960 . S
C1224 H1211 0.961 . S
C1224 H1212 0.959 . S
C1224 C1222 1.561 . S
C1225 C1222 1.526 . S
C1225 C1226 1.396 . S
C1225 C1230 1.390 . S
C1226 C1220 1.465 . S
C1226 C1225 1.396 . S
C1226 C1227 1.399 . S
C1227 H1213 0.929 . S
C1227 C1226 1.399 . S
C1227 C1228 1.385 . S
C1228 H1214 0.931 . S
C1228 C1227 1.385 . S
C1228 C1229 1.389 . S
C1229 C1228 1.389 . S
C1229 C1230 1.387 . S
C1230 H1215 0.930 . S
C1230 C1225 1.390 . S
C1230 C1229 1.387 . S
H1231 C1243 0.930 . S
H1232 C1245 0.930 . S
H1233 C1246 0.930 . S
H1234 C1250 0.959 . S
H1235 C1250 0.959 1_556 S
H1236 C1250 0.961 . S
H1237 C1251 0.960 . S
H1238 C1251 0.961 . S
H1239 C1251 0.959 . S
H1240 C1254 0.929 . S
H1241 C1255 0.931 . S
H1242 C1257 0.930 . S
C1243 H1231 0.930 . S
C1243 C1244 1.399 . S
C1243 C1248 1.399 . S
C1244 C1243 1.399 . S
C1244 C1245 1.376 . S
C1245 H1232 0.930 . S
C1245 C1244 1.376 . S
C1245 C1246 1.388 . S
C1246 H1233 0.930 . S
C1246 C1245 1.388 . S
C1246 C1247 1.390 . S
C1247 C1246 1.390 . S
C1247 C1248 1.394 . S
C1247 C1253 1.465 . S
C1248 C1243 1.399 . S
C1248 C1247 1.394 . S
C1248 C1249 1.516 . S
C1249 C1248 1.516 . S
C1249 C1250 1.502 . S
C1249 C1251 1.561 . S
C1249 C1252 1.526 . S
C1250 H1234 0.959 . S
C1250 H1235 0.959 1_554 S
C1250 H1236 0.961 . S
C1250 C1249 1.502 . S
C1251 H1237 0.960 . S
C1251 H1238 0.961 . S
C1251 H1239 0.959 . S
C1251 C1249 1.561 . S
C1252 C1249 1.526 . S
C1252 C1253 1.396 . S
C1252 C1257 1.390 1_554 S
C1253 C1247 1.465 . S
C1253 C1252 1.396 . S
C1253 C1254 1.399 . S
C1254 H1240 0.929 . S
C1254 C1253 1.399 . S
C1254 C1255 1.385 1_554 S
C1255 H1241 0.931 . S
C1255 C1254 1.385 1_556 S
C1255 C1256 1.389 . S
C1256 C1255 1.389 . S
C1256 C1257 1.387 . S
C1257 H1242 0.930 . S
C1257 C1252 1.390 1_556 S
C1257 C1256 1.387 . S
H1258 C1270 0.930 . S
H1259 C1272 0.930 . S
H1260 C1273 0.930 . S
H1261 C1277 0.959 . S
H1262 C1277 0.959 . S
H1263 C1277 0.961 . S
H1264 C1278 0.960 . S
H1265 C1278 0.961 . S
H1266 C1278 0.959 . S
H1267 C1281 0.929 . S
H1268 C1282 0.931 . S
H1269 C1284 0.930 . S
C1270 H1258 0.930 . S
C1270 C1271 1.399 . S
C1270 C1275 1.399 . S
C1271 C1270 1.399 . S
C1271 C1272 1.376 . S
C1272 H1259 0.930 . S
C1272 C1271 1.376 . S
C1272 C1273 1.388 . S
C1273 H1260 0.930 . S
C1273 C1272 1.388 . S
C1273 C1274 1.390 . S
C1274 C1273 1.390 . S
C1274 C1275 1.394 . S
C1274 C1280 1.465 . S
C1275 C1270 1.399 . S
C1275 C1274 1.394 . S
C1275 C1276 1.516 . S
C1276 C1275 1.516 . S
C1276 C1277 1.502 . S
C1276 C1278 1.561 . S
C1276 C1279 1.526 . S
C1277 H1261 0.959 . S
C1277 H1262 0.959 . S
C1277 H1263 0.961 . S
C1277 C1276 1.502 . S
C1278 H1264 0.960 . S
C1278 H1265 0.961 . S
C1278 H1266 0.959 . S
C1278 C1276 1.561 . S
C1279 C1276 1.526 . S
C1279 C1280 1.396 . S
C1279 C1284 1.390 . S
C1280 C1274 1.465 . S
C1280 C1279 1.396 . S
C1280 C1281 1.399 . S
C1281 H1267 0.929 . S
C1281 C1280 1.399 . S
C1281 C1282 1.385 . S
C1282 H1268 0.931 . S
C1282 C1281 1.385 . S
C1282 C1283 1.389 . S
C1283 C1282 1.389 . S
C1283 C1284 1.387 . S
C1284 H1269 0.930 . S
C1284 C1279 1.390 . S
C1284 C1283 1.387 . S
H1285 C1297 0.930 . S
H1286 C1299 0.930 . S
H1287 C1300 0.930 . S
H1288 C1304 0.959 . S
H1289 C1304 0.959 . S
H1290 C1304 0.961 . S
H1291 C1305 0.960 1_655 S
H1292 C1305 0.961 . S
H1293 C1305 0.959 . S
H1294 C1308 0.929 . S
H1295 C1309 0.931 . S
H1296 C1311 0.930 . S
C1297 H1285 0.930 . S
C1297 C1298 1.399 . S
C1297 C1302 1.399 . S
C1298 C1297 1.399 . S
C1298 C1299 1.376 . S
C1299 H1286 0.930 . S
C1299 C1298 1.376 . S
C1299 C1300 1.388 1_655 S
C1300 H1287 0.930 . S
C1300 C1299 1.388 1_455 S
C1300 C1301 1.390 . S
C1301 C1300 1.390 . S
C1301 C1302 1.394 1_455 S
C1301 C1307 1.465 . S
C1302 C1297 1.399 . S
C1302 C1301 1.394 1_655 S
C1302 C1303 1.516 . S
C1303 C1302 1.516 . S
C1303 C1304 1.502 . S
C1303 C1305 1.561 1_655 S
C1303 C1306 1.526 1_655 S
C1304 H1288 0.959 . S
C1304 H1289 0.959 . S
C1304 H1290 0.961 . S
C1304 C1303 1.502 . S
C1305 H1291 0.960 1_455 S
C1305 H1292 0.961 . S
C1305 H1293 0.959 . S
C1305 C1303 1.561 1_455 S
C1306 C1303 1.526 1_455 S
C1306 C1307 1.396 . S
C1306 C1311 1.390 . S
C1307 C1301 1.465 . S
C1307 C1306 1.396 . S
C1307 C1308 1.399 . S
C1308 H1294 0.929 . S
C1308 C1307 1.399 . S
C1308 C1309 1.385 . S
C1309 H1295 0.931 . S
C1309 C1308 1.385 . S
C1309 C1310 1.389 . S
C1310 C1309 1.389 . S
C1310 C1311 1.387 . S
C1311 H1296 0.930 . S
C1311 C1306 1.390 . S
C1311 C1310 1.387 . S
H1312 C1324 0.930 . S
H1313 C1326 0.930 . S
H1314 C1327 0.930 . S
H1315 C1331 0.959 . S
H1316 C1331 0.959 . S
H1317 C1331 0.961 . S
H1318 C1332 0.960 . S
H1319 C1332 0.961 . S
H1320 C1332 0.959 . S
H1321 C1335 0.929 . S
H1322 C1336 0.931 . S
H1323 C1338 0.930 . S
C1324 H1312 0.930 . S
C1324 C1325 1.399 . S
C1324 C1329 1.399 . S
C1325 C1324 1.399 . S
C1325 C1326 1.376 . S
C1326 H1313 0.930 . S
C1326 C1325 1.376 . S
C1326 C1327 1.388 . S
C1327 H1314 0.930 . S
C1327 C1326 1.388 . S
C1327 C1328 1.390 . S
C1328 C1327 1.390 . S
C1328 C1329 1.394 . S
C1328 C1334 1.465 . S
C1329 C1324 1.399 . S
C1329 C1328 1.394 . S
C1329 C1330 1.516 . S
C1330 C1329 1.516 . S
C1330 C1331 1.502 . S
C1330 C1332 1.561 . S
C1330 C1333 1.526 . S
C1331 H1315 0.959 . S
C1331 H1316 0.959 . S
C1331 H1317 0.961 . S
C1331 C1330 1.502 . S
C1332 H1318 0.960 . S
C1332 H1319 0.961 . S
C1332 H1320 0.959 . S
C1332 C1330 1.561 . S
C1333 C1330 1.526 . S
C1333 C1334 1.396 . S
C1333 C1338 1.390 . S
C1334 C1328 1.465 . S
C1334 C1333 1.396 . S
C1334 C1335 1.399 . S
C1335 H1321 0.929 . S
C1335 C1334 1.399 . S
C1335 C1336 1.385 . S
C1336 H1322 0.931 . S
C1336 C1335 1.385 . S
C1336 C1337 1.389 . S
C1337 C1336 1.389 . S
C1337 C1338 1.387 . S
C1338 H1323 0.930 . S
C1338 C1333 1.390 . S
C1338 C1337 1.387 . S
H1339 C1351 0.930 . S
H1340 C1353 0.930 . S
H1341 C1354 0.930 . S
H1342 C1358 0.959 . S
H1343 C1358 0.959 . S
H1344 C1358 0.961 . S
H1345 C1359 0.960 . S
H1346 C1359 0.961 . S
H1347 C1359 0.959 . S
H1348 C1362 0.929 . S
H1349 C1363 0.931 . S
H1350 C1365 0.930 . S
C1351 H1339 0.930 . S
C1351 C1352 1.399 . S
C1351 C1356 1.399 . S
C1352 C1351 1.399 . S
C1352 C1353 1.376 . S
C1353 H1340 0.930 . S
C1353 C1352 1.376 . S
C1353 C1354 1.388 . S
C1354 H1341 0.930 . S
C1354 C1353 1.388 . S
C1354 C1355 1.390 . S
C1355 C1354 1.390 . S
C1355 C1356 1.394 . S
C1355 C1361 1.465 . S
C1356 C1351 1.399 . S
C1356 C1355 1.394 . S
C1356 C1357 1.516 . S
C1357 C1356 1.516 . S
C1357 C1358 1.502 . S
C1357 C1359 1.561 . S
C1357 C1360 1.526 . S
C1358 H1342 0.959 . S
C1358 H1343 0.959 . S
C1358 H1344 0.961 . S
C1358 C1357 1.502 . S
C1359 H1345 0.960 . S
C1359 H1346 0.961 . S
C1359 H1347 0.959 . S
C1359 C1357 1.561 . S
C1360 C1357 1.526 . S
C1360 C1361 1.396 . S
C1360 C1365 1.390 . S
C1361 C1355 1.465 . S
C1361 C1360 1.396 . S
C1361 C1362 1.399 . S
C1362 H1348 0.929 . S
C1362 C1361 1.399 . S
C1362 C1363 1.385 . S
C1363 H1349 0.931 . S
C1363 C1362 1.385 . S
C1363 C1364 1.389 . S
C1364 C1363 1.389 . S
C1364 C1365 1.387 . S
C1365 H1350 0.930 . S
C1365 C1360 1.390 . S
C1365 C1364 1.387 . S
H1366 C1378 0.930 . S
H1367 C1380 0.930 . S
H1368 C1381 0.930 . S
H1369 C1385 0.959 . S
H1370 C1385 0.959 . S
H1371 C1385 0.961 . S
H1372 C1386 0.960 . S
H1373 C1386 0.961 . S
H1374 C1386 0.959 . S
H1375 C1389 0.929 . S
H1376 C1390 0.931 . S
H1377 C1392 0.930 . S
C1378 H1366 0.930 . S
C1378 C1379 1.399 . S
C1378 C1383 1.399 . S
C1379 C1378 1.399 . S
C1379 C1380 1.376 . S
C1380 H1367 0.930 . S
C1380 C1379 1.376 . S
C1380 C1381 1.388 . S
C1381 H1368 0.930 . S
C1381 C1380 1.388 . S
C1381 C1382 1.390 . S
C1382 C1381 1.390 . S
C1382 C1383 1.394 . S
C1382 C1388 1.465 . S
C1383 C1378 1.399 . S
C1383 C1382 1.394 . S
C1383 C1384 1.516 . S
C1384 C1383 1.516 . S
C1384 C1385 1.502 . S
C1384 C1386 1.561 . S
C1384 C1387 1.526 . S
C1385 H1369 0.959 . S
C1385 H1370 0.959 . S
C1385 H1371 0.961 . S
C1385 C1384 1.502 . S
C1386 H1372 0.960 . S
C1386 H1373 0.961 . S
C1386 H1374 0.959 . S
C1386 C1384 1.561 . S
C1387 C1384 1.526 . S
C1387 C1388 1.396 . S
C1387 C1392 1.390 . S
C1388 C1382 1.465 . S
C1388 C1387 1.396 . S
C1388 C1389 1.399 . S
C1389 H1375 0.929 . S
C1389 C1388 1.399 . S
C1389 C1390 1.385 . S
C1390 H1376 0.931 . S
C1390 C1389 1.385 . S
C1390 C1391 1.389 . S
C1391 C1390 1.389 . S
C1391 C1392 1.387 . S
C1392 H1377 0.930 . S
C1392 C1387 1.390 . S
C1392 C1391 1.387 . S
H1393 C1405 0.930 . S
H1394 C1407 0.930 . S
H1395 C1408 0.930 1_655 S
H1396 C1412 0.959 . S
H1397 C1412 0.959 . S
H1398 C1412 0.961 . S
H1399 C1413 0.960 . S
H1400 C1413 0.961 . S
H1401 C1413 0.959 . S
H1402 C1416 0.929 . S
H1403 C1417 0.931 . S
H1404 C1419 0.930 . S
C1405 H1393 0.930 . S
C1405 C1406 1.399 . S
C1405 C1410 1.399 . S
C1406 C1405 1.399 . S
C1406 C1407 1.376 . S
C1407 H1394 0.930 . S
C1407 C1406 1.376 . S
C1407 C1408 1.388 . S
C1408 H1395 0.930 1_455 S
C1408 C1407 1.388 . S
C1408 C1409 1.394 . S
C1409 C1408 1.394 . S
C1409 C1410 1.416 . S
C1409 C1415 1.445 1_455 S
C1410 C1405 1.399 . S
C1410 C1409 1.416 . S
C1410 C1411 1.516 . S
C1411 C1410 1.516 . S
C1411 C1412 1.502 . S
C1411 C1413 1.561 1_455 S
C1411 C1414 1.526 1_455 S
C1412 H1396 0.959 . S
C1412 H1397 0.959 . S
C1412 H1398 0.961 . S
C1412 C1411 1.502 . S
C1413 H1399 0.960 . S
C1413 H1400 0.961 . S
C1413 H1401 0.959 . S
C1413 C1411 1.561 1_655 S
C1414 C1411 1.526 1_655 S
C1414 C1415 1.396 . S
C1414 C1419 1.390 1_554 S
C1415 C1409 1.445 1_655 S
C1415 C1414 1.396 . S
C1415 C1416 1.399 . S
C1416 H1402 0.929 . S
C1416 C1415 1.399 . S
C1416 C1417 1.385 1_554 S
C1417 H1403 0.931 . S
C1417 C1416 1.385 1_556 S
C1417 C1418 1.389 . S
C1418 C1417 1.389 . S
C1418 C1419 1.387 . S
C1419 H1404 0.930 . S
C1419 C1414 1.390 1_556 S
C1419 C1418 1.387 . S
H1420 C1432 0.930 . S
H1421 C1434 0.930 . S
H1422 C1435 0.930 . S
H1423 C1439 0.959 . S
H1424 C1439 0.959 . S
H1425 C1439 0.961 . S
H1426 C1440 0.960 . S
H1427 C1440 0.961 . S
H1428 C1440 0.959 . S
H1429 C1443 0.929 . S
H1430 C1444 0.931 . S
H1431 C1446 0.930 . S
C1432 H1420 0.930 . S
C1432 C1433 1.399 . S
C1432 C1437 1.399 . S
C1433 C1432 1.399 . S
C1433 C1434 1.376 . S
C1434 H1421 0.930 . S
C1434 C1433 1.376 . S
C1434 C1435 1.388 . S
C1435 H1422 0.930 . S
C1435 C1434 1.388 . S
C1435 C1436 1.390 . S
C1436 C1435 1.390 . S
C1436 C1437 1.394 . S
C1436 C1442 1.465 . S
C1437 C1432 1.399 . S
C1437 C1436 1.394 . S
C1437 C1438 1.516 . S
C1438 C1437 1.516 . S
C1438 C1439 1.502 . S
C1438 C1440 1.561 . S
C1438 C1441 1.526 . S
C1439 H1423 0.959 . S
C1439 H1424 0.959 . S
C1439 H1425 0.961 . S
C1439 C1438 1.502 . S
C1440 H1426 0.960 . S
C1440 H1427 0.961 . S
C1440 H1428 0.959 . S
C1440 C1438 1.561 . S
C1441 C1438 1.526 . S
C1441 C1442 1.396 . S
C1441 C1446 1.390 . S
C1442 C1436 1.465 . S
C1442 C1441 1.396 . S
C1442 C1443 1.399 . S
C1443 H1429 0.929 . S
C1443 C1442 1.399 . S
C1443 C1444 1.385 . S
C1444 H1430 0.931 . S
C1444 C1443 1.385 . S
C1444 C1445 1.389 . S
C1445 C1444 1.389 . S
C1445 C1446 1.387 . S
C1446 H1431 0.930 . S
C1446 C1441 1.390 . S
C1446 C1445 1.387 . S
H1447 C1459 0.930 . S
H1448 C1461 0.930 . S
H1449 C1462 0.930 . S
H1450 C1466 0.959 . S
H1451 C1466 0.959 . S
H1452 C1466 0.961 . S
H1453 C1467 0.960 . S
H1454 C1467 0.961 . S
H1455 C1467 0.959 . S
H1456 C1470 0.945 . S
H1457 C1471 0.931 . S
H1458 C1473 0.930 . S
C1459 H1447 0.930 . S
C1459 C1460 1.399 . S
C1459 C1464 1.399 . S
C1460 C1459 1.399 . S
C1460 C1461 1.376 . S
C1461 H1448 0.930 . S
C1461 C1460 1.376 . S
C1461 C1462 1.388 . S
C1462 H1449 0.930 . S
C1462 C1461 1.388 . S
C1462 C1463 1.390 . S
C1463 C1462 1.390 . S
C1463 C1464 1.394 . S
C1463 C1469 1.465 1_655 S
C1464 C1459 1.399 . S
C1464 C1463 1.394 . S
C1464 C1465 1.516 1_655 S
C1465 C1464 1.516 1_455 S
C1465 C1466 1.502 . S
C1465 C1467 1.561 1_455 S
C1465 C1468 1.526 . S
C1466 H1450 0.959 . S
C1466 H1451 0.959 . S
C1466 H1452 0.961 . S
C1466 C1465 1.502 . S
C1467 H1453 0.960 . S
C1467 H1454 0.961 . S
C1467 H1455 0.959 . S
C1467 C1465 1.561 1_655 S
C1468 C1465 1.526 . S
C1468 C1469 1.396 . S
C1468 C1473 1.390 . S
C1469 C1463 1.465 1_455 S
C1469 C1468 1.396 . S
C1469 C1470 1.399 . S
C1470 H1456 0.945 . S
C1470 C1469 1.399 . S
C1470 C1471 1.385 . S
C1471 H1457 0.931 . S
C1471 C1470 1.385 . S
C1471 C1472 1.389 . S
C1472 C1471 1.389 . S
C1472 C1473 1.387 . S
C1473 H1458 0.930 . S
C1473 C1468 1.390 . S
C1473 C1472 1.387 . S
H1474 C1486 0.930 . S
H1475 C1488 0.930 . S
H1476 C1489 0.930 . S
H1477 C1493 0.959 . S
H1478 C1493 0.959 . S
H1479 C1493 0.961 . S
H1480 C1494 0.960 . S
H1481 C1494 0.961 . S
H1482 C1494 0.959 . S
H1483 C1497 0.929 . S
H1484 C1498 0.931 . S
H1485 C1500 0.930 . S
C1486 H1474 0.930 . S
C1486 C1487 1.399 . S
C1486 C1491 1.399 . S
C1487 C1486 1.399 . S
C1487 C1488 1.376 . S
C1488 H1475 0.930 . S
C1488 C1487 1.376 . S
C1488 C1489 1.388 . S
C1489 H1476 0.930 . S
C1489 C1488 1.388 . S
C1489 C1490 1.390 . S
C1490 C1489 1.390 . S
C1490 C1491 1.394 . S
C1490 C1496 1.465 . S
C1491 C1486 1.399 . S
C1491 C1490 1.394 . S
C1491 C1492 1.516 . S
C1492 C1491 1.516 . S
C1492 C1493 1.502 . S
C1492 C1494 1.561 . S
C1492 C1495 1.526 . S
C1493 H1477 0.959 . S
C1493 H1478 0.959 . S
C1493 H1479 0.961 . S
C1493 C1492 1.502 . S
C1494 H1480 0.960 . S
C1494 H1481 0.961 . S
C1494 H1482 0.959 . S
C1494 C1492 1.561 . S
C1495 C1492 1.526 . S
C1495 C1496 1.396 . S
C1495 C1500 1.390 . S
C1496 C1490 1.465 . S
C1496 C1495 1.396 . S
C1496 C1497 1.399 . S
C1497 H1483 0.929 . S
C1497 C1496 1.399 . S
C1497 C1498 1.385 . S
C1498 H1484 0.931 . S
C1498 C1497 1.385 . S
C1498 C1499 1.389 . S
C1499 C1498 1.389 . S
C1499 C1500 1.387 . S
C1500 H1485 0.930 . S
C1500 C1495 1.390 . S
C1500 C1499 1.387 . S
H1501 C1513 0.930 . S
H1502 C1515 0.930 . S
H1503 C1516 0.930 . S
H1504 C1520 0.959 . S
H1505 C1520 0.959 . S
H1506 C1520 0.961 1_554 S
H1507 C1521 0.960 . S
H1508 C1521 0.961 . S
H1509 C1521 0.959 . S
H1510 C1524 0.929 . S
H1511 C1525 0.931 . S
H1512 C1527 0.930 . S
C1513 H1501 0.930 . S
C1513 C1514 1.399 . S
C1513 C1518 1.399 1_554 S
C1514 C1513 1.399 . S
C1514 C1515 1.376 . S
C1515 H1502 0.930 . S
C1515 C1514 1.376 . S
C1515 C1516 1.388 1_554 S
C1516 H1503 0.930 . S
C1516 C1515 1.388 1_556 S
C1516 C1517 1.390 . S
C1517 C1516 1.390 . S
C1517 C1518 1.394 . S
C1517 C1523 1.465 . S
C1518 C1513 1.399 1_556 S
C1518 C1517 1.394 . S
C1518 C1519 1.516 . S
C1519 C1518 1.516 . S
C1519 C1520 1.502 . S
C1519 C1521 1.561 . S
C1519 C1522 1.526 . S
C1520 H1504 0.959 . S
C1520 H1505 0.959 . S
C1520 H1506 0.961 1_556 S
C1520 C1519 1.502 . S
C1521 H1507 0.960 . S
C1521 H1508 0.961 . S
C1521 H1509 0.959 . S
C1521 C1519 1.561 . S
C1522 C1519 1.526 . S
C1522 C1523 1.396 . S
C1522 C1527 1.390 . S
C1523 C1517 1.465 . S
C1523 C1522 1.396 . S
C1523 C1524 1.399 . S
C1524 H1510 0.929 . S
C1524 C1523 1.399 . S
C1524 C1525 1.385 . S
C1525 H1511 0.931 . S
C1525 C1524 1.385 . S
C1525 C1526 1.389 . S
C1526 C1525 1.389 . S
C1526 C1527 1.387 . S
C1527 H1512 0.930 . S
C1527 C1522 1.390 . S
C1527 C1526 1.387 . S
H1528 C1540 0.930 . S
H1529 C1542 0.930 . S
H1530 C1543 0.930 . S
H1531 C1547 0.959 . S
H1532 C1547 0.959 . S
H1533 C1547 0.961 . S
H1534 C1548 0.960 . S
H1535 C1548 0.961 . S
H1536 C1548 0.959 . S
H1537 C1551 0.929 . S
H1538 C1552 0.931 . S
H1539 C1554 0.930 . S
C1540 H1528 0.930 . S
C1540 C1541 1.399 . S
C1540 C1545 1.399 . S
C1541 C1540 1.399 . S
C1541 C1542 1.376 . S
C1542 H1529 0.930 . S
C1542 C1541 1.376 . S
C1542 C1543 1.388 . S
C1543 H1530 0.930 . S
C1543 C1542 1.388 . S
C1543 C1544 1.390 . S
C1544 C1543 1.390 . S
C1544 C1545 1.394 . S
C1544 C1550 1.465 . S
C1545 C1540 1.399 . S
C1545 C1544 1.394 . S
C1545 C1546 1.516 . S
C1546 C1545 1.516 . S
C1546 C1547 1.502 . S
C1546 C1548 1.561 . S
C1546 C1549 1.526 . S
C1547 H1531 0.959 . S
C1547 H1532 0.959 . S
C1547 H1533 0.961 . S
C1547 C1546 1.502 . S
C1548 H1534 0.960 . S
C1548 H1535 0.961 . S
C1548 H1536 0.959 . S
C1548 C1546 1.561 . S
C1549 C1546 1.526 . S
C1549 C1550 1.396 . S
C1549 C1554 1.390 . S
C1550 C1544 1.465 . S
C1550 C1549 1.396 . S
C1550 C1551 1.399 . S
C1551 H1537 0.929 . S
C1551 C1550 1.399 . S
C1551 C1552 1.385 . S
C1552 H1538 0.931 . S
C1552 C1551 1.385 . S
C1552 C1553 1.389 . S
C1553 C1552 1.389 . S
C1553 C1554 1.387 . S
C1554 H1539 0.930 . S
C1554 C1549 1.390 . S
C1554 C1553 1.387 . S
H1555 C1567 0.930 . S
H1556 C1569 0.930 . S
H1557 C1570 0.930 . S
H1558 C1574 0.959 . S
H1559 C1574 0.959 . S
H1560 C1574 0.961 . S
H1561 C1575 0.960 . S
H1562 C1575 0.961 . S
H1563 C1575 0.959 . S
H1564 C1578 0.929 . S
H1565 C1579 0.931 . S
H1566 C1581 0.930 . S
C1567 H1555 0.930 . S
C1567 C1568 1.399 . S
C1567 C1572 1.399 . S
C1568 C1567 1.399 . S
C1568 C1569 1.376 . S
C1569 H1556 0.930 . S
C1569 C1568 1.376 . S
C1569 C1570 1.388 . S
C1570 H1557 0.930 . S
C1570 C1569 1.388 . S
C1570 C1571 1.390 . S
C1571 C1570 1.390 . S
C1571 C1572 1.394 . S
C1571 C1577 1.465 . S
C1572 C1567 1.399 . S
C1572 C1571 1.394 . S
C1572 C1573 1.516 . S
C1573 C1572 1.516 . S
C1573 C1574 1.502 . S
C1573 C1575 1.561 . S
C1573 C1576 1.526 . S
C1574 H1558 0.959 . S
C1574 H1559 0.959 . S
C1574 H1560 0.961 . S
C1574 C1573 1.502 . S
C1575 H1561 0.960 . S
C1575 H1562 0.961 . S
C1575 H1563 0.959 . S
C1575 C1573 1.561 . S
C1576 C1573 1.526 . S
C1576 C1577 1.396 . S
C1576 C1581 1.390 . S
C1577 C1571 1.465 . S
C1577 C1576 1.396 . S
C1577 C1578 1.399 . S
C1578 H1564 0.929 . S
C1578 C1577 1.399 . S
C1578 C1579 1.385 . S
C1579 H1565 0.931 . S
C1579 C1578 1.385 . S
C1579 C1580 1.389 . S
C1580 C1579 1.389 . S
C1580 C1581 1.387 . S
C1581 H1566 0.930 . S
C1581 C1576 1.390 . S
C1581 C1580 1.387 . S
H1582 C1594 0.930 . S
H1583 C1596 0.930 . S
H1584 C1597 0.930 . S
H1585 C1601 0.959 . S
H1586 C1601 0.959 . S
H1587 C1601 0.961 . S
H1588 C1602 0.960 . S
H1589 C1602 0.961 . S
H1590 C1602 0.959 . S
H1591 C1605 0.929 . S
H1592 C1606 0.931 . S
H1593 C1608 0.930 . S
C1594 H1582 0.930 . S
C1594 C1595 1.399 . S
C1594 C1599 1.399 . S
C1595 C1594 1.399 . S
C1595 C1596 1.376 . S
C1596 H1583 0.930 . S
C1596 C1595 1.376 . S
C1596 C1597 1.388 . S
C1597 H1584 0.930 . S
C1597 C1596 1.388 . S
C1597 C1598 1.390 . S
C1598 C1597 1.390 . S
C1598 C1599 1.394 . S
C1598 C1604 1.465 . S
C1599 C1594 1.399 . S
C1599 C1598 1.394 . S
C1599 C1600 1.516 . S
C1600 C1599 1.516 . S
C1600 C1601 1.502 . S
C1600 C1602 1.561 . S
C1600 C1603 1.526 . S
C1601 H1585 0.959 . S
C1601 H1586 0.959 . S
C1601 H1587 0.961 . S
C1601 C1600 1.502 . S
C1602 H1588 0.960 . S
C1602 H1589 0.961 . S
C1602 H1590 0.959 . S
C1602 C1600 1.561 . S
C1603 C1600 1.526 . S
C1603 C1604 1.396 . S
C1603 C1608 1.390 . S
C1604 C1598 1.465 . S
C1604 C1603 1.396 . S
C1604 C1605 1.399 . S
C1605 H1591 0.929 . S
C1605 C1604 1.399 . S
C1605 C1606 1.385 . S
C1606 H1592 0.931 . S
C1606 C1605 1.385 . S
C1606 C1607 1.389 . S
C1607 C1606 1.389 . S
C1607 C1608 1.387 . S
C1608 H1593 0.930 . S
C1608 C1603 1.390 . S
C1608 C1607 1.387 . S
H1609 C1621 0.930 . S
H1610 C1623 0.930 . S
H1611 C1624 0.955 . S
H1612 C1628 0.959 . S
H1613 C1628 0.959 1_554 S
H1614 C1628 0.961 . S
H1615 C1629 0.960 1_655 S
H1616 C1629 0.961 . S
H1617 C1629 0.959 . S
H1618 C1632 0.929 . S
H1619 C1633 0.931 . S
H1620 C1635 0.930 . S
C1621 H1609 0.930 . S
C1621 C1622 1.399 . S
C1621 C1626 1.399 . S
C1622 C1621 1.399 . S
C1622 C1623 1.376 . S
C1623 H1610 0.930 . S
C1623 C1622 1.376 . S
C1623 C1624 1.366 1_655 S
C1624 H1611 0.955 . S
C1624 C1623 1.366 1_455 S
C1624 C1625 1.389 . S
C1625 C1624 1.389 . S
C1625 C1626 1.393 1_455 S
C1625 C1631 1.466 . S
C1626 C1621 1.399 . S
C1626 C1625 1.393 1_655 S
C1626 C1627 1.516 . S
C1627 C1626 1.516 . S
C1627 C1628 1.502 . S
C1627 C1629 1.561 1_655 S
C1627 C1630 1.526 1_655 S
C1628 H1612 0.959 . S
C1628 H1613 0.959 1_556 S
C1628 H1614 0.961 . S
C1628 C1627 1.502 . S
C1629 H1615 0.960 1_455 S
C1629 H1616 0.961 . S
C1629 H1617 0.959 . S
C1629 C1627 1.561 1_455 S
C1630 C1627 1.526 1_455 S
C1630 C1631 1.396 . S
C1630 C1635 1.390 1_556 S
C1631 C1625 1.466 . S
C1631 C1630 1.396 . S
C1631 C1632 1.399 . S
C1632 H1618 0.929 . S
C1632 C1631 1.399 . S
C1632 C1633 1.385 1_556 S
C1633 H1619 0.931 . S
C1633 C1632 1.385 1_554 S
C1633 C1634 1.389 . S
C1634 C1633 1.389 . S
C1634 C1635 1.387 . S
C1635 H1620 0.930 . S
C1635 C1630 1.390 1_554 S
C1635 C1634 1.387 . S
H1636 C1648 0.930 . S
H1637 C1650 0.930 . S
H1638 C1651 0.930 . S
H1639 C1655 0.959 . S
H1640 C1655 0.959 . S
H1641 C1655 0.961 . S
H1642 C1656 0.960 . S
H1643 C1656 0.961 . S
H1644 C1656 0.959 . S
H1645 C1659 0.929 . S
H1646 C1660 0.931 . S
H1647 C1662 0.930 . S
C1648 H1636 0.930 . S
C1648 C1649 1.399 . S
C1648 C1653 1.399 . S
C1649 C1648 1.399 . S
C1649 C1650 1.376 . S
C1650 H1637 0.930 . S
C1650 C1649 1.376 . S
C1650 C1651 1.388 . S
C1651 H1638 0.930 . S
C1651 C1650 1.388 . S
C1651 C1652 1.390 . S
C1652 C1651 1.390 . S
C1652 C1653 1.394 . S
C1652 C1658 1.465 . S
C1653 C1648 1.399 . S
C1653 C1652 1.394 . S
C1653 C1654 1.516 . S
C1654 C1653 1.516 . S
C1654 C1655 1.502 . S
C1654 C1656 1.561 . S
C1654 C1657 1.526 . S
C1655 H1639 0.959 . S
C1655 H1640 0.959 . S
C1655 H1641 0.961 . S
C1655 C1654 1.502 . S
C1656 H1642 0.960 . S
C1656 H1643 0.961 . S
C1656 H1644 0.959 . S
C1656 C1654 1.561 . S
C1657 C1654 1.526 . S
C1657 C1658 1.396 . S
C1657 C1662 1.390 . S
C1658 C1652 1.465 . S
C1658 C1657 1.396 . S
C1658 C1659 1.399 . S
C1659 H1645 0.929 . S
C1659 C1658 1.399 . S
C1659 C1660 1.385 . S
C1660 H1646 0.931 . S
C1660 C1659 1.385 . S
C1660 C1661 1.389 . S
C1661 C1660 1.389 . S
C1661 C1662 1.387 . S
C1662 H1647 0.930 . S
C1662 C1657 1.390 . S
C1662 C1661 1.387 . S
H1663 C1675 0.930 . S
H1664 C1677 0.930 . S
H1665 C1678 0.930 . S
H1666 C1682 0.959 . S
H1667 C1682 0.959 . S
H1668 C1682 0.961 . S
H1669 C1683 0.960 . S
H1670 C1683 0.961 . S
H1671 C1683 0.959 1_455 S
H1672 C1686 0.929 . S
H1673 C1687 0.931 . S
H1674 C1689 0.938 . S
C1675 H1663 0.930 . S
C1675 C1676 1.399 . S
C1675 C1680 1.399 . S
C1676 C1675 1.399 . S
C1676 C1677 1.376 . S
C1677 H1664 0.930 . S
C1677 C1676 1.376 . S
C1677 C1678 1.388 1_655 S
C1678 H1665 0.930 . S
C1678 C1677 1.388 1_455 S
C1678 C1679 1.390 . S
C1679 C1678 1.390 . S
C1679 C1680 1.394 1_455 S
C1679 C1685 1.465 . S
C1680 C1675 1.399 . S
C1680 C1679 1.394 1_655 S
C1680 C1681 1.516 . S
C1681 C1680 1.516 . S
C1681 C1682 1.502 . S
C1681 C1683 1.561 . S
C1681 C1684 1.526 1_655 S
C1682 H1666 0.959 . S
C1682 H1667 0.959 . S
C1682 H1668 0.961 . S
C1682 C1681 1.502 . S
C1683 H1669 0.960 . S
C1683 H1670 0.961 . S
C1683 H1671 0.959 1_655 S
C1683 C1681 1.561 . S
C1684 C1681 1.526 1_455 S
C1684 C1685 1.396 . S
C1684 C1689 1.390 . S
C1685 C1679 1.465 . S
C1685 C1684 1.396 . S
C1685 C1686 1.399 . S
C1686 H1672 0.929 . S
C1686 C1685 1.399 . S
C1686 C1687 1.385 . S
C1687 H1673 0.931 . S
C1687 C1686 1.385 . S
C1687 C1688 1.389 . S
C1688 C1687 1.389 . S
C1688 C1689 1.387 . S
C1689 H1674 0.938 . S
C1689 C1684 1.390 . S
C1689 C1688 1.387 . S
H1690 C1702 0.930 . S
H1691 C1704 0.930 . S
H1692 C1705 0.930 . S
H1693 C1709 0.959 . S
H1694 C1709 0.959 . S
H1695 C1709 0.961 . S
H1696 C1710 0.960 . S
H1697 C1710 0.961 . S
H1698 C1710 0.959 . S
H1699 C1713 0.929 . S
H1700 C1714 0.931 . S
H1701 C1716 0.930 . S
C1702 H1690 0.930 . S
C1702 C1703 1.399 . S
C1702 C1707 1.399 . S
C1703 C1702 1.399 . S
C1703 C1704 1.376 . S
C1704 H1691 0.930 . S
C1704 C1703 1.376 . S
C1704 C1705 1.388 . S
C1705 H1692 0.930 . S
C1705 C1704 1.388 . S
C1705 C1706 1.390 . S
C1706 C1705 1.390 . S
C1706 C1707 1.394 . S
C1706 C1712 1.465 . S
C1707 C1702 1.399 . S
C1707 C1706 1.394 . S
C1707 C1708 1.516 . S
C1708 C1707 1.516 . S
C1708 C1709 1.502 . S
C1708 C1710 1.561 . S
C1708 C1711 1.526 . S
C1709 H1693 0.959 . S
C1709 H1694 0.959 . S
C1709 H1695 0.961 . S
C1709 C1708 1.502 . S
C1710 H1696 0.960 . S
C1710 H1697 0.961 . S
C1710 H1698 0.959 . S
C1710 C1708 1.561 . S
C1711 C1708 1.526 . S
C1711 C1712 1.396 . S
C1711 C1716 1.390 . S
C1712 C1706 1.465 . S
C1712 C1711 1.396 . S
C1712 C1713 1.399 . S
C1713 H1699 0.929 . S
C1713 C1712 1.399 . S
C1713 C1714 1.385 . S
C1714 H1700 0.931 . S
C1714 C1713 1.385 . S
C1714 C1715 1.389 . S
C1715 C1714 1.389 . S
C1715 C1716 1.387 . S
C1716 H1701 0.930 . S
C1716 C1711 1.390 . S
C1716 C1715 1.387 . S
H1717 C1729 0.930 . S
H1718 C1731 0.930 . S
H1719 C1732 0.930 . S
H1720 C1736 0.959 . S
H1721 C1736 0.959 . S
H1722 C1736 0.961 . S
H1723 C1737 0.960 . S
H1724 C1737 0.961 . S
H1725 C1737 0.959 . S
H1726 C1740 0.929 1_554 S
H1727 C1741 0.931 . S
H1728 C1743 0.930 . S
C1729 H1717 0.930 . S
C1729 C1730 1.399 . S
C1729 C1734 1.399 . S
C1730 C1729 1.399 . S
C1730 C1731 1.376 . S
C1731 H1718 0.930 . S
C1731 C1730 1.376 . S
C1731 C1732 1.388 . S
C1732 H1719 0.930 . S
C1732 C1731 1.388 . S
C1732 C1733 1.390 . S
C1733 C1732 1.390 . S
C1733 C1734 1.394 . S
C1733 C1739 1.465 . S
C1734 C1729 1.399 . S
C1734 C1733 1.394 . S
C1734 C1735 1.516 . S
C1735 C1734 1.516 . S
C1735 C1736 1.502 . S
C1735 C1737 1.561 . S
C1735 C1738 1.526 . S
C1736 H1720 0.959 . S
C1736 H1721 0.959 . S
C1736 H1722 0.961 . S
C1736 C1735 1.502 . S
C1737 H1723 0.960 . S
C1737 H1724 0.961 . S
C1737 H1725 0.959 . S
C1737 C1735 1.561 . S
C1738 C1735 1.526 . S
C1738 C1739 1.396 . S
C1738 C1743 1.390 1_554 S
C1739 C1733 1.465 . S
C1739 C1738 1.396 . S
C1739 C1740 1.399 1_554 S
C1740 H1726 0.929 1_556 S
C1740 C1739 1.399 1_556 S
C1740 C1741 1.385 . S
C1741 H1727 0.931 . S
C1741 C1740 1.385 . S
C1741 C1742 1.389 . S
C1742 C1741 1.389 . S
C1742 C1743 1.387 . S
C1743 H1728 0.930 . S
C1743 C1738 1.390 1_556 S
C1743 C1742 1.387 . S
H1744 C1756 0.930 . S
H1745 C1758 0.930 . S
H1746 C1759 0.930 . S
H1747 C1763 0.959 . S
H1748 C1763 0.959 . S
H1749 C1763 0.961 . S
H1750 C1764 0.960 . S
H1751 C1764 0.961 . S
H1752 C1764 0.959 . S
H1753 C1767 0.929 . S
H1754 C1768 0.931 . S
H1755 C1770 0.930 . S
C1756 H1744 0.930 . S
C1756 C1757 1.399 . S
C1756 C1761 1.399 . S
C1757 C1756 1.399 . S
C1757 C1758 1.376 . S
C1758 H1745 0.930 . S
C1758 C1757 1.376 . S
C1758 C1759 1.388 . S
C1759 H1746 0.930 . S
C1759 C1758 1.388 . S
C1759 C1760 1.390 . S
C1760 C1759 1.390 . S
C1760 C1761 1.394 . S
C1760 C1766 1.465 . S
C1761 C1756 1.399 . S
C1761 C1760 1.394 . S
C1761 C1762 1.516 . S
C1762 C1761 1.516 . S
C1762 C1763 1.502 . S
C1762 C1764 1.561 . S
C1762 C1765 1.526 . S
C1763 H1747 0.959 . S
C1763 H1748 0.959 . S
C1763 H1749 0.961 . S
C1763 C1762 1.502 . S
C1764 H1750 0.960 . S
C1764 H1751 0.961 . S
C1764 H1752 0.959 . S
C1764 C1762 1.561 . S
C1765 C1762 1.526 . S
C1765 C1766 1.396 . S
C1765 C1770 1.390 . S
C1766 C1760 1.465 . S
C1766 C1765 1.396 . S
C1766 C1767 1.399 . S
C1767 H1753 0.929 . S
C1767 C1766 1.399 . S
C1767 C1768 1.385 . S
C1768 H1754 0.931 . S
C1768 C1767 1.385 . S
C1768 C1769 1.389 . S
C1769 C1768 1.389 . S
C1769 C1770 1.387 . S
C1770 H1755 0.930 . S
C1770 C1765 1.390 . S
C1770 C1769 1.387 . S
H1771 C1783 0.930 . S
H1772 C1785 0.930 . S
H1773 C1786 0.930 . S
H1774 C1790 0.959 . S
H1775 C1790 0.959 . S
H1776 C1790 0.961 . S
H1777 C1791 0.960 . S
H1778 C1791 0.961 . S
H1779 C1791 0.959 . S
H1780 C1794 0.929 . S
H1781 C1795 0.931 . S
H1782 C1797 0.930 . S
C1783 H1771 0.930 . S
C1783 C1784 1.399 . S
C1783 C1788 1.399 . S
C1784 C1783 1.399 . S
C1784 C1785 1.376 . S
C1785 H1772 0.930 . S
C1785 C1784 1.376 . S
C1785 C1786 1.388 . S
C1786 H1773 0.930 . S
C1786 C1785 1.388 . S
C1786 C1787 1.390 . S
C1787 C1786 1.390 . S
C1787 C1788 1.394 . S
C1787 C1793 1.465 . S
C1788 C1783 1.399 . S
C1788 C1787 1.394 . S
C1788 C1789 1.516 . S
C1789 C1788 1.516 . S
C1789 C1790 1.502 . S
C1789 C1791 1.561 . S
C1789 C1792 1.526 . S
C1790 H1774 0.959 . S
C1790 H1775 0.959 . S
C1790 H1776 0.961 . S
C1790 C1789 1.502 . S
C1791 H1777 0.960 . S
C1791 H1778 0.961 . S
C1791 H1779 0.959 . S
C1791 C1789 1.561 . S
C1792 C1789 1.526 . S
C1792 C1793 1.396 . S
C1792 C1797 1.390 . S
C1793 C1787 1.465 . S
C1793 C1792 1.396 . S
C1793 C1794 1.399 . S
C1794 H1780 0.929 . S
C1794 C1793 1.399 . S
C1794 C1795 1.385 . S
C1795 H1781 0.931 . S
C1795 C1794 1.385 . S
C1795 C1796 1.389 . S
C1796 C1795 1.389 . S
C1796 C1797 1.387 . S
C1797 H1782 0.930 . S
C1797 C1792 1.390 . S
C1797 C1796 1.387 . S
H1798 C1810 0.930 . S
H1799 C1812 0.930 . S
H1800 C1813 0.930 . S
H1801 C1817 0.959 . S
H1802 C1817 0.959 . S
H1803 C1817 0.961 . S
H1804 C1818 0.960 . S
H1805 C1818 0.961 . S
H1806 C1818 0.959 . S
H1807 C1821 0.929 . S
H1808 C1822 0.931 . S
H1809 C1824 0.930 . S
C1810 H1798 0.930 . S
C1810 C1811 1.399 . S
C1810 C1815 1.399 . S
C1811 C1810 1.399 . S
C1811 C1812 1.376 . S
C1812 H1799 0.930 . S
C1812 C1811 1.376 . S
C1812 C1813 1.388 . S
C1813 H1800 0.930 . S
C1813 C1812 1.388 . S
C1813 C1814 1.390 . S
C1814 C1813 1.390 . S
C1814 C1815 1.394 . S
C1814 C1820 1.465 . S
C1815 C1810 1.399 . S
C1815 C1814 1.394 . S
C1815 C1816 1.516 . S
C1816 C1815 1.516 . S
C1816 C1817 1.502 . S
C1816 C1818 1.561 . S
C1816 C1819 1.526 . S
C1817 H1801 0.959 . S
C1817 H1802 0.959 . S
C1817 H1803 0.961 . S
C1817 C1816 1.502 . S
C1818 H1804 0.960 . S
C1818 H1805 0.961 . S
C1818 H1806 0.959 . S
C1818 C1816 1.561 . S
C1819 C1816 1.526 . S
C1819 C1820 1.396 . S
C1819 C1824 1.390 . S
C1820 C1814 1.465 . S
C1820 C1819 1.396 . S
C1820 C1821 1.399 . S
C1821 H1807 0.929 . S
C1821 C1820 1.399 . S
C1821 C1822 1.385 . S
C1822 H1808 0.931 . S
C1822 C1821 1.385 . S
C1822 C1823 1.389 . S
C1823 C1822 1.389 . S
C1823 C1824 1.387 . S
C1824 H1809 0.930 . S
C1824 C1819 1.390 . S
C1824 C1823 1.387 . S
H1825 C1837 0.930 . S
H1826 C1839 0.930 . S
H1827 C1840 0.930 . S
H1828 C1844 0.959 . S
H1829 C1844 0.959 . S
H1830 C1844 0.961 . S
H1831 C1845 0.960 . S
H1832 C1845 0.961 . S
H1833 C1845 0.959 . S
H1834 C1848 0.929 . S
H1835 C1849 0.931 . S
H1836 C1851 0.930 . S
C1837 H1825 0.930 . S
C1837 C1838 1.399 . S
C1837 C1842 1.399 . S
C1838 C1837 1.399 . S
C1838 C1839 1.376 . S
C1839 H1826 0.930 . S
C1839 C1838 1.376 . S
C1839 C1840 1.388 . S
C1840 H1827 0.930 . S
C1840 C1839 1.388 . S
C1840 C1841 1.390 . S
C1841 C1840 1.390 . S
C1841 C1842 1.394 . S
C1841 C1847 1.465 . S
C1842 C1837 1.399 . S
C1842 C1841 1.394 . S
C1842 C1843 1.516 . S
C1843 C1842 1.516 . S
C1843 C1844 1.502 . S
C1843 C1845 1.561 . S
C1843 C1846 1.526 . S
C1844 H1828 0.959 . S
C1844 H1829 0.959 . S
C1844 H1830 0.961 . S
C1844 C1843 1.502 . S
C1845 H1831 0.960 . S
C1845 H1832 0.961 . S
C1845 H1833 0.959 . S
C1845 C1843 1.561 . S
C1846 C1843 1.526 . S
C1846 C1847 1.396 . S
C1846 C1851 1.390 . S
C1847 C1841 1.465 . S
C1847 C1846 1.396 . S
C1847 C1848 1.399 . S
C1848 H1834 0.929 . S
C1848 C1847 1.399 . S
C1848 C1849 1.385 . S
C1849 H1835 0.931 . S
C1849 C1848 1.385 . S
C1849 C1850 1.389 . S
C1850 C1849 1.389 . S
C1850 C1851 1.387 . S
C1851 H1836 0.930 . S
C1851 C1846 1.390 . S
C1851 C1850 1.387 . S
H1852 C1864 0.930 . S
H1853 C1866 0.930 . S
H1854 C1867 0.930 . S
H1855 C1871 0.959 . S
H1856 C1871 0.959 . S
H1857 C1871 0.961 . S
H1858 C1872 0.960 . S
H1859 C1872 0.961 . S
H1860 C1872 0.959 . S
H1861 C1875 0.929 . S
H1862 C1876 0.931 . S
H1863 C1878 0.930 . S
C1864 H1852 0.930 . S
C1864 C1865 1.399 . S
C1864 C1869 1.399 . S
C1865 C1864 1.399 . S
C1865 C1866 1.376 . S
C1866 H1853 0.930 . S
C1866 C1865 1.376 . S
C1866 C1867 1.388 . S
C1867 H1854 0.930 . S
C1867 C1866 1.388 . S
C1867 C1868 1.390 . S
C1868 C1867 1.390 . S
C1868 C1869 1.394 . S
C1868 C1874 1.465 . S
C1869 C1864 1.399 . S
C1869 C1868 1.394 . S
C1869 C1870 1.516 . S
C1870 C1869 1.516 . S
C1870 C1871 1.502 . S
C1870 C1872 1.561 . S
C1870 C1873 1.526 . S
C1871 H1855 0.959 . S
C1871 H1856 0.959 . S
C1871 H1857 0.961 . S
C1871 C1870 1.502 . S
C1872 H1858 0.960 . S
C1872 H1859 0.961 . S
C1872 H1860 0.959 . S
C1872 C1870 1.561 . S
C1873 C1870 1.526 . S
C1873 C1874 1.396 . S
C1873 C1878 1.390 . S
C1874 C1868 1.465 . S
C1874 C1873 1.396 . S
C1874 C1875 1.399 . S
C1875 H1861 0.929 . S
C1875 C1874 1.399 . S
C1875 C1876 1.385 . S
C1876 H1862 0.931 . S
C1876 C1875 1.385 . S
C1876 C1877 1.389 . S
C1877 C1876 1.389 . S
C1877 C1878 1.387 . S
C1878 H1863 0.930 . S
C1878 C1873 1.390 . S
C1878 C1877 1.387 . S
H1879 C1891 0.930 . S
H1880 C1893 0.930 . S
H1881 C1894 0.930 . S
H1882 C1898 0.959 . S
H1883 C1898 0.959 . S
H1884 C1898 0.961 . S
H1885 C1899 0.960 . S
H1886 C1899 0.961 . S
H1887 C1899 0.959 . S
H1888 C1902 0.929 . S
H1889 C1903 0.931 . S
H1890 C1905 0.930 . S
C1891 H1879 0.930 . S
C1891 C1892 1.399 . S
C1891 C1896 1.399 . S
C1892 C1891 1.399 . S
C1892 C1893 1.376 . S
C1893 H1880 0.930 . S
C1893 C1892 1.376 . S
C1893 C1894 1.388 . S
C1894 H1881 0.930 . S
C1894 C1893 1.388 . S
C1894 C1895 1.390 . S
C1895 C1894 1.390 . S
C1895 C1896 1.394 . S
C1895 C1901 1.465 . S
C1896 C1891 1.399 . S
C1896 C1895 1.394 . S
C1896 C1897 1.516 . S
C1897 C1896 1.516 . S
C1897 C1898 1.502 . S
C1897 C1899 1.561 . S
C1897 C1900 1.526 . S
C1898 H1882 0.959 . S
C1898 H1883 0.959 . S
C1898 H1884 0.961 . S
C1898 C1897 1.502 . S
C1899 H1885 0.960 . S
C1899 H1886 0.961 . S
C1899 H1887 0.959 . S
C1899 C1897 1.561 . S
C1900 C1897 1.526 . S
C1900 C1901 1.396 . S
C1900 C1905 1.390 . S
C1901 C1895 1.465 . S
C1901 C1900 1.396 . S
C1901 C1902 1.399 . S
C1902 H1888 0.929 . S
C1902 C1901 1.399 . S
C1902 C1903 1.385 . S
C1903 H1889 0.931 . S
C1903 C1902 1.385 . S
C1903 C1904 1.389 . S
C1904 C1903 1.389 . S
C1904 C1905 1.387 . S
C1905 H1890 0.930 . S
C1905 C1900 1.390 . S
C1905 C1904 1.387 . S
H1906 C1918 0.930 . S
H1907 C1920 0.930 . S
H1908 C1921 0.930 . S
H1909 C1925 0.959 . S
H1910 C1925 0.959 . S
H1911 C1925 0.961 . S
H1912 C1926 0.960 . S
H1913 C1926 0.961 . S
H1914 C1926 0.959 . S
H1915 C1929 0.929 . S
H1916 C1930 0.931 . S
H1917 C1932 0.930 . S
C1918 H1906 0.930 . S
C1918 C1919 1.399 . S
C1918 C1923 1.399 . S
C1919 C1918 1.399 . S
C1919 C1920 1.376 . S
C1920 H1907 0.930 . S
C1920 C1919 1.376 . S
C1920 C1921 1.388 . S
C1921 H1908 0.930 . S
C1921 C1920 1.388 . S
C1921 C1922 1.390 . S
C1922 C1921 1.390 . S
C1922 C1923 1.394 . S
C1922 C1928 1.465 . S
C1923 C1918 1.399 . S
C1923 C1922 1.394 . S
C1923 C1924 1.516 . S
C1924 C1923 1.516 . S
C1924 C1925 1.502 . S
C1924 C1926 1.561 . S
C1924 C1927 1.526 . S
C1925 H1909 0.959 . S
C1925 H1910 0.959 . S
C1925 H1911 0.961 . S
C1925 C1924 1.502 . S
C1926 H1912 0.960 . S
C1926 H1913 0.961 . S
C1926 H1914 0.959 . S
C1926 C1924 1.561 . S
C1927 C1924 1.526 . S
C1927 C1928 1.396 . S
C1927 C1932 1.390 . S
C1928 C1922 1.465 . S
C1928 C1927 1.396 . S
C1928 C1929 1.399 . S
C1929 H1915 0.929 . S
C1929 C1928 1.399 . S
C1929 C1930 1.385 . S
C1930 H1916 0.931 . S
C1930 C1929 1.385 . S
C1930 C1931 1.389 . S
C1931 C1930 1.389 . S
C1931 C1932 1.387 . S
C1932 H1917 0.930 . S
C1932 C1927 1.390 . S
C1932 C1931 1.387 . S
H1933 C1945 0.930 . S
H1934 C1947 0.930 . S
H1935 C1948 0.930 . S
H1936 C1952 0.959 . S
H1937 C1952 0.959 . S
H1938 C1952 0.961 . S
H1939 C1953 0.960 1_556 S
H1940 C1953 0.961 . S
H1941 C1953 0.959 . S
H1942 C1956 0.929 . S
H1943 C1957 0.931 . S
H1944 C1959 0.930 . S
C1945 H1933 0.930 . S
C1945 C1946 1.399 . S
C1945 C1950 1.399 . S
C1946 C1945 1.399 . S
C1946 C1947 1.376 . S
C1947 H1934 0.930 . S
C1947 C1946 1.376 . S
C1947 C1948 1.388 . S
C1948 H1935 0.930 . S
C1948 C1947 1.388 . S
C1948 C1949 1.390 . S
C1949 C1948 1.390 . S
C1949 C1950 1.394 . S
C1949 C1955 1.465 . S
C1950 C1945 1.399 . S
C1950 C1949 1.394 . S
C1950 C1951 1.516 . S
C1951 C1950 1.516 . S
C1951 C1952 1.502 . S
C1951 C1953 1.561 . S
C1951 C1954 1.526 . S
C1952 H1936 0.959 . S
C1952 H1937 0.959 . S
C1952 H1938 0.961 . S
C1952 C1951 1.502 . S
C1953 H1939 0.960 1_554 S
C1953 H1940 0.961 . S
C1953 H1941 0.959 . S
C1953 C1951 1.561 . S
C1954 C1951 1.526 . S
C1954 C1955 1.396 . S
C1954 C1959 1.390 . S
C1955 C1949 1.465 . S
C1955 C1954 1.396 . S
C1955 C1956 1.399 . S
C1956 H1942 0.929 . S
C1956 C1955 1.399 . S
C1956 C1957 1.385 . S
C1957 H1943 0.931 . S
C1957 C1956 1.385 . S
C1957 C1958 1.389 . S
C1958 C1957 1.389 . S
C1958 C1959 1.387 . S
C1959 H1944 0.930 . S
C1959 C1954 1.390 . S
C1959 C1958 1.387 . S
H1960 C1972 0.930 . S
H1961 C1974 0.930 . S
H1962 C1975 0.930 . S
H1963 C1979 0.959 . S
H1964 C1979 0.959 . S
H1965 C1979 0.961 . S
H1966 C1980 0.960 . S
H1967 C1980 0.961 . S
H1968 C1980 0.959 . S
H1969 C1983 0.929 . S
H1970 C1984 0.931 . S
H1971 C1986 0.930 . S
C1972 H1960 0.930 . S
C1972 C1973 1.399 . S
C1972 C1977 1.399 . S
C1973 C1972 1.399 . S
C1973 C1974 1.376 . S
C1974 H1961 0.930 . S
C1974 C1973 1.376 . S
C1974 C1975 1.388 . S
C1975 H1962 0.930 . S
C1975 C1974 1.388 . S
C1975 C1976 1.390 . S
C1976 C1975 1.390 . S
C1976 C1977 1.394 . S
C1976 C1982 1.465 . S
C1977 C1972 1.399 . S
C1977 C1976 1.394 . S
C1977 C1978 1.516 . S
C1978 C1977 1.516 . S
C1978 C1979 1.502 . S
C1978 C1980 1.561 . S
C1978 C1981 1.526 . S
C1979 H1963 0.959 . S
C1979 H1964 0.959 . S
C1979 H1965 0.961 . S
C1979 C1978 1.502 . S
C1980 H1966 0.960 . S
C1980 H1967 0.961 . S
C1980 H1968 0.959 . S
C1980 C1978 1.561 . S
C1981 C1978 1.526 . S
C1981 C1982 1.396 . S
C1981 C1986 1.390 . S
C1982 C1976 1.465 . S
C1982 C1981 1.396 . S
C1982 C1983 1.399 . S
C1983 H1969 0.929 . S
C1983 C1982 1.399 . S
C1983 C1984 1.385 . S
C1984 H1970 0.931 . S
C1984 C1983 1.385 . S
C1984 C1985 1.389 . S
C1985 C1984 1.389 . S
C1985 C1986 1.387 . S
C1986 H1971 0.930 . S
C1986 C1981 1.390 . S
C1986 C1985 1.387 . S
H1987 C1999 0.930 . S
H1988 C2001 0.930 . S
H1989 C2002 0.930 . S
H1990 C2006 0.959 . S
H1991 C2006 0.959 . S
H1992 C2006 0.961 . S
H1993 C2007 0.960 . S
H1994 C2007 0.961 . S
H1995 C2007 0.959 . S
H1996 C2010 0.929 . S
H1997 C2011 0.931 . S
H1998 C2013 0.930 . S
C1999 H1987 0.930 . S
C1999 C2000 1.399 . S
C1999 C2004 1.399 . S
C2000 C1999 1.399 . S
C2000 C2001 1.376 . S
C2001 H1988 0.930 . S
C2001 C2000 1.376 . S
C2001 C2002 1.388 . S
C2002 H1989 0.930 . S
C2002 C2001 1.388 . S
C2002 C2003 1.390 . S
C2003 C2002 1.390 . S
C2003 C2004 1.394 . S
C2003 C2009 1.465 . S
C2004 C1999 1.399 . S
C2004 C2003 1.394 . S
C2004 C2005 1.516 . S
C2005 C2004 1.516 . S
C2005 C2006 1.502 . S
C2005 C2007 1.561 . S
C2005 C2008 1.526 . S
C2006 H1990 0.959 . S
C2006 H1991 0.959 . S
C2006 H1992 0.961 . S
C2006 C2005 1.502 . S
C2007 H1993 0.960 . S
C2007 H1994 0.961 . S
C2007 H1995 0.959 . S
C2007 C2005 1.561 . S
C2008 C2005 1.526 . S
C2008 C2009 1.396 . S
C2008 C2013 1.390 . S
C2009 C2003 1.465 . S
C2009 C2008 1.396 . S
C2009 C2010 1.399 . S
C2010 H1996 0.929 . S
C2010 C2009 1.399 . S
C2010 C2011 1.385 . S
C2011 H1997 0.931 . S
C2011 C2010 1.385 . S
C2011 C2012 1.389 . S
C2012 C2011 1.389 . S
C2012 C2013 1.387 . S
C2013 H1998 0.930 . S
C2013 C2008 1.390 . S
C2013 C2012 1.387 . S
H2014 C2026 0.930 . S
H2015 C2028 0.930 . S
H2016 C2029 0.930 . S
H2017 C2033 0.959 . S
H2018 C2033 0.959 . S
H2019 C2033 0.961 . S
H2020 C2034 0.960 . S
H2021 C2034 0.961 . S
H2022 C2034 0.959 . S
H2023 C2037 0.929 . S
H2024 C2038 0.931 . S
H2025 C2040 0.930 . S
C2026 H2014 0.930 . S
C2026 C2027 1.399 . S
C2026 C2031 1.399 . S
C2027 C2026 1.399 . S
C2027 C2028 1.376 . S
C2028 H2015 0.930 . S
C2028 C2027 1.376 . S
C2028 C2029 1.388 . S
C2029 H2016 0.930 . S
C2029 C2028 1.388 . S
C2029 C2030 1.390 . S
C2030 C2029 1.390 . S
C2030 C2031 1.394 . S
C2030 C2036 1.465 . S
C2031 C2026 1.399 . S
C2031 C2030 1.394 . S
C2031 C2032 1.516 . S
C2032 C2031 1.516 . S
C2032 C2033 1.502 . S
C2032 C2034 1.561 . S
C2032 C2035 1.526 . S
C2033 H2017 0.959 . S
C2033 H2018 0.959 . S
C2033 H2019 0.961 . S
C2033 C2032 1.502 . S
C2034 H2020 0.960 . S
C2034 H2021 0.961 . S
C2034 H2022 0.959 . S
C2034 C2032 1.561 . S
C2035 C2032 1.526 . S
C2035 C2036 1.396 . S
C2035 C2040 1.390 . S
C2036 C2030 1.465 . S
C2036 C2035 1.396 . S
C2036 C2037 1.399 . S
C2037 H2023 0.929 . S
C2037 C2036 1.399 . S
C2037 C2038 1.385 . S
C2038 H2024 0.931 . S
C2038 C2037 1.385 . S
C2038 C2039 1.389 . S
C2039 C2038 1.389 . S
C2039 C2040 1.387 . S
C2040 H2025 0.930 . S
C2040 C2035 1.390 . S
C2040 C2039 1.387 . S
H2041 C2053 0.930 . S
H2042 C2055 0.930 . S
H2043 C2056 0.930 . S
H2044 C2060 0.959 . S
H2045 C2060 0.959 . S
H2046 C2060 0.961 . S
H2047 C2061 0.960 . S
H2048 C2061 0.961 . S
H2049 C2061 0.959 . S
H2050 C2064 0.929 . S
H2051 C2065 0.931 . S
H2052 C2067 0.930 . S
C2053 H2041 0.930 . S
C2053 C2054 1.399 . S
C2053 C2058 1.399 . S
C2054 C2053 1.399 . S
C2054 C2055 1.376 . S
C2055 H2042 0.930 . S
C2055 C2054 1.376 . S
C2055 C2056 1.388 . S
C2056 H2043 0.930 . S
C2056 C2055 1.388 . S
C2056 C2057 1.390 . S
C2057 C2056 1.390 . S
C2057 C2058 1.394 . S
C2057 C2063 1.465 . S
C2058 C2053 1.399 . S
C2058 C2057 1.394 . S
C2058 C2059 1.516 . S
C2059 C2058 1.516 . S
C2059 C2060 1.502 . S
C2059 C2061 1.561 . S
C2059 C2062 1.526 . S
C2060 H2044 0.959 . S
C2060 H2045 0.959 . S
C2060 H2046 0.961 . S
C2060 C2059 1.502 . S
C2061 H2047 0.960 . S
C2061 H2048 0.961 . S
C2061 H2049 0.959 . S
C2061 C2059 1.561 . S
C2062 C2059 1.526 . S
C2062 C2063 1.396 . S
C2062 C2067 1.390 . S
C2063 C2057 1.465 . S
C2063 C2062 1.396 . S
C2063 C2064 1.399 . S
C2064 H2050 0.929 . S
C2064 C2063 1.399 . S
C2064 C2065 1.385 . S
C2065 H2051 0.931 . S
C2065 C2064 1.385 . S
C2065 C2066 1.389 . S
C2066 C2065 1.389 . S
C2066 C2067 1.387 . S
C2067 H2052 0.930 . S
C2067 C2062 1.390 . S
C2067 C2066 1.387 . S
H2068 C2080 0.930 . S
H2069 C2082 0.930 . S
H2070 C2083 0.930 . S
H2071 C2087 0.959 . S
H2072 C2087 0.959 . S
H2073 C2087 0.961 . S
H2074 C2088 0.960 . S
H2075 C2088 0.961 . S
H2076 C2088 0.959 . S
H2077 C2091 0.929 . S
H2078 C2092 0.931 . S
H2079 C2094 0.930 . S
C2080 H2068 0.930 . S
C2080 C2081 1.399 . S
C2080 C2085 1.399 . S
C2081 C2080 1.399 . S
C2081 C2082 1.376 . S
C2082 H2069 0.930 . S
C2082 C2081 1.376 . S
C2082 C2083 1.388 . S
C2083 H2070 0.930 . S
C2083 C2082 1.388 . S
C2083 C2084 1.390 . S
C2084 C2083 1.390 . S
C2084 C2085 1.394 . S
C2084 C2090 1.465 . S
C2085 C2080 1.399 . S
C2085 C2084 1.394 . S
C2085 C2086 1.516 . S
C2086 C2085 1.516 . S
C2086 C2087 1.502 . S
C2086 C2088 1.561 . S
C2086 C2089 1.526 . S
C2087 H2071 0.959 . S
C2087 H2072 0.959 . S
C2087 H2073 0.961 . S
C2087 C2086 1.502 . S
C2088 H2074 0.960 . S
C2088 H2075 0.961 . S
C2088 H2076 0.959 . S
C2088 C2086 1.561 . S
C2089 C2086 1.526 . S
C2089 C2090 1.396 . S
C2089 C2094 1.390 . S
C2090 C2084 1.465 . S
C2090 C2089 1.396 . S
C2090 C2091 1.399 . S
C2091 H2077 0.929 . S
C2091 C2090 1.399 . S
C2091 C2092 1.385 . S
C2092 H2078 0.931 . S
C2092 C2091 1.385 . S
C2092 C2093 1.389 . S
C2093 C2092 1.389 . S
C2093 C2094 1.387 . S
C2094 H2079 0.930 . S
C2094 C2089 1.390 . S
C2094 C2093 1.387 . S
H2095 C2107 0.930 . S
H2096 C2109 0.930 . S
H2097 C2110 0.930 . S
H2098 C2114 0.959 . S
H2099 C2114 0.959 . S
H2100 C2114 0.961 . S
H2101 C2115 0.960 . S
H2102 C2115 0.961 . S
H2103 C2115 0.959 . S
H2104 C2118 0.929 . S
H2105 C2119 0.931 . S
H2106 C2121 0.930 . S
C2107 H2095 0.930 . S
C2107 C2108 1.399 . S
C2107 C2112 1.399 . S
C2108 C2107 1.399 . S
C2108 C2109 1.376 . S
C2109 H2096 0.930 . S
C2109 C2108 1.376 . S
C2109 C2110 1.388 . S
C2110 H2097 0.930 . S
C2110 C2109 1.388 . S
C2110 C2111 1.390 . S
C2111 C2110 1.390 . S
C2111 C2112 1.394 . S
C2111 C2117 1.465 . S
C2112 C2107 1.399 . S
C2112 C2111 1.394 . S
C2112 C2113 1.516 . S
C2113 C2112 1.516 . S
C2113 C2114 1.502 . S
C2113 C2115 1.561 . S
C2113 C2116 1.526 . S
C2114 H2098 0.959 . S
C2114 H2099 0.959 . S
C2114 H2100 0.961 . S
C2114 C2113 1.502 . S
C2115 H2101 0.960 . S
C2115 H2102 0.961 . S
C2115 H2103 0.959 . S
C2115 C2113 1.561 . S
C2116 C2113 1.526 . S
C2116 C2117 1.396 . S
C2116 C2121 1.390 . S
C2117 C2111 1.465 . S
C2117 C2116 1.396 . S
C2117 C2118 1.399 . S
C2118 H2104 0.929 . S
C2118 C2117 1.399 . S
C2118 C2119 1.385 . S
C2119 H2105 0.931 . S
C2119 C2118 1.385 . S
C2119 C2120 1.389 . S
C2120 C2119 1.389 . S
C2120 C2121 1.387 . S
C2121 H2106 0.930 . S
C2121 C2116 1.390 . S
C2121 C2120 1.387 . S
H2122 C2134 0.930 . S
H2123 C2136 0.930 . S
H2124 C2137 0.930 . S
H2125 C2141 0.959 . S
H2126 C2141 0.959 . S
H2127 C2141 0.961 . S
H2128 C2142 0.960 . S
H2129 C2142 0.961 . S
H2130 C2142 0.959 . S
H2131 C2145 0.929 . S
H2132 C2146 0.931 . S
H2133 C2148 0.930 . S
C2134 H2122 0.930 . S
C2134 C2135 1.399 . S
C2134 C2139 1.399 . S
C2135 C2134 1.399 . S
C2135 C2136 1.376 . S
C2136 H2123 0.930 . S
C2136 C2135 1.376 . S
C2136 C2137 1.388 . S
C2137 H2124 0.930 . S
C2137 C2136 1.388 . S
C2137 C2138 1.390 . S
C2138 C2137 1.390 . S
C2138 C2139 1.394 . S
C2138 C2144 1.465 . S
C2139 C2134 1.399 . S
C2139 C2138 1.394 . S
C2139 C2140 1.516 . S
C2140 C2139 1.516 . S
C2140 C2141 1.502 . S
C2140 C2142 1.561 . S
C2140 C2143 1.526 . S
C2141 H2125 0.959 . S
C2141 H2126 0.959 . S
C2141 H2127 0.961 . S
C2141 C2140 1.502 . S
C2142 H2128 0.960 . S
C2142 H2129 0.961 . S
C2142 H2130 0.959 . S
C2142 C2140 1.561 . S
C2143 C2140 1.526 . S
C2143 C2144 1.396 . S
C2143 C2148 1.390 . S
C2144 C2138 1.465 . S
C2144 C2143 1.396 . S
C2144 C2145 1.399 . S
C2145 H2131 0.929 . S
C2145 C2144 1.399 . S
C2145 C2146 1.385 . S
C2146 H2132 0.931 . S
C2146 C2145 1.385 . S
C2146 C2147 1.389 . S
C2147 C2146 1.389 . S
C2147 C2148 1.387 . S
C2148 H2133 0.930 . S
C2148 C2143 1.390 . S
C2148 C2147 1.387 . S
H2149 C2161 0.930 . S
H2150 C2163 0.930 . S
H2151 C2164 0.930 . S
H2152 C2168 0.959 . S
H2153 C2168 0.959 . S
H2154 C2168 0.961 . S
H2155 C2169 0.960 . S
H2156 C2169 0.961 . S
H2157 C2169 0.959 . S
H2158 C2172 0.929 . S
H2159 C2173 0.931 . S
H2160 C2175 0.930 . S
C2161 H2149 0.930 . S
C2161 C2162 1.399 . S
C2161 C2166 1.399 . S
C2162 C2161 1.399 . S
C2162 C2163 1.376 . S
C2163 H2150 0.930 . S
C2163 C2162 1.376 . S
C2163 C2164 1.388 . S
C2164 H2151 0.930 . S
C2164 C2163 1.388 . S
C2164 C2165 1.390 . S
C2165 C2164 1.390 . S
C2165 C2166 1.394 . S
C2165 C2171 1.465 . S
C2166 C2161 1.399 . S
C2166 C2165 1.394 . S
C2166 C2167 1.516 . S
C2167 C2166 1.516 . S
C2167 C2168 1.502 . S
C2167 C2169 1.561 . S
C2167 C2170 1.526 . S
C2168 H2152 0.959 . S
C2168 H2153 0.959 . S
C2168 H2154 0.961 . S
C2168 C2167 1.502 . S
C2169 H2155 0.960 . S
C2169 H2156 0.961 . S
C2169 H2157 0.959 . S
C2169 C2167 1.561 . S
C2170 C2167 1.526 . S
C2170 C2171 1.396 . S
C2170 C2175 1.390 . S
C2171 C2165 1.465 . S
C2171 C2170 1.396 . S
C2171 C2172 1.399 . S
C2172 H2158 0.929 . S
C2172 C2171 1.399 . S
C2172 C2173 1.385 . S
C2173 H2159 0.931 . S
C2173 C2172 1.385 . S
C2173 C2174 1.389 . S
C2174 C2173 1.389 . S
C2174 C2175 1.387 . S
C2175 H2160 0.930 . S
C2175 C2170 1.390 . S
C2175 C2174 1.387 . S
C461 C89 1.460 . S
C473 C5 1.470 . S
C488 C19 1.457 . S
C500 C103 1.480 . S
C515 C61 1.469 . S
C527 C33 1.485 . S
C542 C47 1.486 . S
C554 C75 1.466 . S
C569 C201 1.486 . S
C581 C117 1.477 . S
C596 C215 1.471 . S
C608 C131 1.487 . S
C623 C145 1.457 . S
C635 C173 1.470 . S
C650 C159 1.471 . S
C662 C187 1.487 . S
C677 C229 1.472 . S
C689 C313 1.460 . S
C704 C243 1.456 . S
C716 C327 1.478 . S
C731 C285 1.470 . S
C743 C257 1.485 . S
C758 C299 1.456 . S
C770 C271 1.479 . S
C785 C341 1.458 . S
C797 C425 1.466 . S
C812 C439 1.471 . S
C824 C355 1.487 . S
C839 C397 1.486 . S
C851 C369 1.474 . S
C866 C383 1.470 . S
C878 C411 1.487 . S
C893 C0 1.269 . S
C905 C429 1.257 . S
C920 C219 1.261 . S
C932 C14 1.268 . S
C947 C28 1.213 . S
C959 C401 1.238 . S
C974 C42 1.232 . S
C986 C191 1.272 . S
C1001 C373 1.271 . S
C1013 C56 1.222 . S
C1028 C163 1.259 . S
C1040 C70 1.269 . S
C1055 C84 1.263 . S
C1067 C345 1.267 . S
C1082 C135 1.246 . S
C1094 C98 1.195 . S
C1109 C112 1.228 . S
C1121 C317 1.240 . S
C1136 C107 1.238 . S
C1148 C126 1.237 . S
C1163 C140 1.250 . S
C1175 C289 1.237 . S
C1190 C154 1.267 . S
C1202 C79 1.254 . S
C1217 C261 1.272 . S
C1229 C168 1.224 . S
C1244 C182 1.195 . S
C1256 C51 1.256 . S
C1271 C196 1.208 . S
C1283 C233 1.272 . S
C1298 C23 1.272 . S
C1310 C210 1.209 . S
C1325 C224 1.268 . S
C1337 C205 1.262 . S
C1352 C238 1.248 . S
C1364 C443 1.241 . S
C1379 C177 1.256 . S
C1391 C252 1.268 . S
C1406 C266 1.250 . S
C1418 C415 1.241 . S
C1433 C149 1.240 . S
C1445 C280 1.247 . S
C1460 C387 1.252 . S
C1472 C294 1.193 . S
C1487 C121 1.269 . S
C1499 C308 1.259 . S
C1514 C359 1.248 . S
C1526 C322 1.194 . S
C1541 C336 1.200 . S
C1553 C93 1.270 . S
C1568 C331 1.270 . S
C1580 C350 1.199 . S
C1595 C65 1.247 . S
C1607 C364 1.269 . S
C1622 C378 1.199 . S
C1634 C303 1.253 . S
C1649 C392 1.229 . S
C1661 C37 1.271 . S
C1676 C406 1.207 . S
C1688 C275 1.248 . S
C1703 C9 1.258 . S
C1715 C420 1.262 . S
C1730 C434 1.194 . S
C1742 C247 1.267 . S
C1757 C11 1.399 . S
C1769 C305 1.378 . S
C1784 C319 1.407 . S
C1796 C25 1.376 . S
C1811 C39 1.394 . S
C1823 C333 1.418 . S
C1838 C291 1.408 . S
C1850 C53 1.376 . S
C1865 C277 1.395 . S
C1877 C67 1.417 . S
C1892 C235 1.397 . S
C1904 C81 1.379 . S
C1919 C249 1.393 . S
C1931 C95 1.418 . S
C1946 C263 1.394 . S
C1958 C109 1.417 . S
C1973 C123 1.416 . S
C1985 C417 1.376 . S
C2000 C431 1.396 . S
C2012 C137 1.388 . S
C2027 C445 1.402 . S
C2039 C151 1.403 . S
C2054 C403 1.418 . S
C2066 C165 1.381 . S
C2081 C389 1.386 . S
C2093 C179 1.398 . S
C2108 C347 1.405 . S
C2120 C193 1.381 . S
C2135 C207 1.408 . S
C2147 C361 1.379 . S
C2162 C221 1.379 . S
C2174 C375 1.408 . S
