# Generated by pormake.
# Topology sml, (6)-cn, num edge types: 1
# Building blocks:
#     Node 0, Type 0, BuildingBlock: CUWYAW_clean_sbu_0, # of connection points: 6
#     Node 1, Type 0, BuildingBlock: CUWYAW_clean_sbu_0, # of connection points: 6
#     Node 2, Type 0, BuildingBlock: CUWYAW_clean_sbu_0, # of connection points: 6
#     Node 3, Type 0, BuildingBlock: CUWYAW_clean_sbu_0, # of connection points: 6
#     Node 4, Type 0, BuildingBlock: CUWYAW_clean_sbu_0, # of connection points: 6
#     Node 5, Type 0, BuildingBlock: CUWYAW_clean_sbu_0, # of connection points: 6
#     Edge 6, Type (0, 0), BuildingBlock: AJUNOK_clean_linker_0, # of connection points: 2
#     Edge 7, Type (0, 0), BuildingBlock: AJUNOK_clean_linker_0, # of connection points: 2
#     Edge 8, Type (0, 0), BuildingBlock: AJUNOK_clean_linker_0, # of connection points: 2
#     Edge 9, Type (0, 0), BuildingBlock: AJUNOK_clean_linker_0, # of connection points: 2
#     Edge 10, Type (0, 0), BuildingBlock: AJUNOK_clean_linker_0, # of connection points: 2
#     Edge 11, Type (0, 0), BuildingBlock: AJUNOK_clean_linker_0, # of connection points: 2
#     Edge 12, Type (0, 0), BuildingBlock: AJUNOK_clean_linker_0, # of connection points: 2
#     Edge 13, Type (0, 0), BuildingBlock: AJUNOK_clean_linker_0, # of connection points: 2
#     Edge 14, Type (0, 0), BuildingBlock: AJUNOK_clean_linker_0, # of connection points: 2
#     Edge 15, Type (0, 0), BuildingBlock: AJUNOK_clean_linker_0, # of connection points: 2
#     Edge 16, Type (0, 0), BuildingBlock: AJUNOK_clean_linker_0, # of connection points: 2
#     Edge 17, Type (0, 0), BuildingBlock: AJUNOK_clean_linker_0, # of connection points: 2
#     Edge 18, Type (0, 0), BuildingBlock: AJUNOK_clean_linker_0, # of connection points: 2
#     Edge 19, Type (0, 0), BuildingBlock: AJUNOK_clean_linker_0, # of connection points: 2
#     Edge 20, Type (0, 0), BuildingBlock: AJUNOK_clean_linker_0, # of connection points: 2
#     Edge 21, Type (0, 0), BuildingBlock: AJUNOK_clean_linker_0, # of connection points: 2
#     Edge 22, Type (0, 0), BuildingBlock: AJUNOK_clean_linker_0, # of connection points: 2
#     Edge 23, Type (0, 0), BuildingBlock: AJUNOK_clean_linker_0, # of connection points: 2
# Relax obj value: 0.304
# Max RMSD: 0.295
# Mean RMSD: 0.295
data_MOF--net-sml--node1-CUWYAW_clean_sbu_0--edge1-AJUNOK_clean_linker_0
_symmetry_space_group_name_H-M    P1
_symmetry_Int_Tables_number       1
_symmetry_cell_setting            triclinic
loop_
_symmetry_equiv_pos_as_xyz
'x, y, z'
_cell_length_a     22.155005
_cell_length_b     22.030114
_cell_length_c     20.359898
_cell_angle_alpha  90.21241
_cell_angle_beta   90.084564
_cell_angle_gamma 119.64887
loop_
_atom_site_label
_atom_site_type_symbol
_atom_site_fract_x
_atom_site_fract_y
_atom_site_fract_z
_atom_type_partial_charge
C0 C 0.29937 0.38313 0.2182 0.0
Eu1 Eu 0.24588 0.39525 0.10807 0.0
C2 C 0.29214 0.3976 0.28843 0.0
C3 C 0.31622 0.46627 0.31127 0.0
C4 C 0.30669 0.47915 0.37678 0.0
C5 C 0.2713 0.42369 0.42104 0.0
C6 C 0.24931 0.35528 0.39857 0.0
C7 C 0.26043 0.34261 0.3334 0.0
C8 C 0.3252 0.48671 1.01401 0.0
C9 C 0.18111 0.49671 0.14291 0.0
C10 C 0.13692 0.46262 0.89027 0.0
Eu11 Eu 0.16795 0.42961 1.00342 0.0
C12 C 0.16008 0.46231 0.82228 0.0
C13 C 0.11875 0.45995 0.76908 0.0
C14 C 0.13931 0.45749 0.70451 0.0
C15 C 0.20205 0.45796 0.69178 0.0
C16 C 0.24322 0.46009 0.74544 0.0
C17 C 0.22234 0.46205 0.80997 0.0
C18 C 0.0818 0.33855 0.09299 0.0
C19 C 0.22192 0.31709 0.9738 0.0
O20 O 0.24595 0.33038 0.18968 0.0
O21 O 0.32975 0.43747 0.17978 0.0
O22 O 0.33767 0.4397 0.03812 0.0
O23 O 0.2739 0.48487 0.04238 0.0
O24 O 0.19868 0.45072 0.1631 0.0
O25 O 0.17556 0.50737 0.07987 0.0
O26 O 0.18358 0.50821 0.93047 0.0
O27 O 0.09998 0.40135 0.91743 0.0
O28 O 0.07 0.3826 0.06109 0.0
O29 O 0.1358 0.33856 0.07153 0.0
O30 O 0.20456 0.36276 0.9521 0.0
O31 O 0.23442 0.31243 0.03654 0.0
H32 H 0.34231 0.5104 0.27857 0.0
H33 H 0.32737 0.53279 0.39259 0.0
H34 H 0.22215 0.31108 0.431 0.0
H35 H 0.24272 0.28936 0.31773 0.0
H36 H 0.07008 0.45915 0.77749 0.0
H37 H 0.10524 0.45372 0.6646 0.0
H38 H 0.2917 0.46035 0.73755 0.0
H39 H 0.25463 0.4629 0.85027 0.0
C40 C 0.89106 0.23265 0.53783 0.0
Eu41 Eu 0.82467 0.2129 0.42713 0.0
C42 C 0.87267 0.22904 0.60843 0.0
C43 C 0.8552 0.27678 0.63656 0.0
C44 C 0.83686 0.27191 0.70289 0.0
C45 C 0.83562 0.21934 0.7428 0.0
C46 C 0.85303 0.17163 0.71464 0.0
C47 C 0.87164 0.17665 0.64834 0.0
C48 C 0.81971 0.3084 0.34734 0.0
C49 C 0.66646 0.18213 0.46303 0.0
C50 C 0.64696 0.14119 0.20766 0.0
Eu51 Eu 0.70734 0.15647 0.32067 0.0
C52 C 0.67482 0.15342 0.13963 0.0
C53 C 0.69092 0.10583 0.10881 0.0
C54 C 0.72081 0.11952 0.04629 0.0
C55 C 0.73487 0.18069 1.01283 0.0
C56 C 0.71891 0.22828 0.04338 0.0
C57 C 0.689 0.21475 0.106 0.0
C58 C 0.70269 0.05906 0.40327 0.0
C59 C 0.86832 0.19559 0.28449 0.0
O60 O 0.86321 0.17331 0.50543 0.0
O61 O 0.89237 0.2834 0.50337 0.0
O62 O 0.87785 0.31399 0.36807 0.0
O63 O 0.76911 0.2559 0.37215 0.0
O64 O 0.72689 0.18961 0.48223 0.0
O65 O 0.6484 0.17654 0.40018 0.0
O66 O 0.66693 0.19672 0.24474 0.0
O67 O 0.64612 0.08925 0.23964 0.0
O68 O 0.64868 0.05496 0.37375 0.0
O69 O 0.75774 0.11013 0.3809 0.0
O70 O 0.80728 0.18697 0.26626 0.0
O71 O 0.88531 0.19747 0.34703 0.0
H72 H 0.8552 0.31776 0.60736 0.0
H73 H 0.82366 0.30942 0.72304 0.0
H74 H 0.85091 0.12944 0.74352 0.0
H75 H 0.88452 0.13896 0.62804 0.0
H76 H 0.68094 0.05808 0.13305 0.0
H77 H 0.73235 0.08191 1.0237 0.0
H78 H 0.73045 0.27643 1.01906 0.0
H79 H 0.67771 0.2527 0.1284 0.0
C80 C 0.61508 0.89227 0.88643 0.0
Eu81 Eu 0.58612 0.82971 0.77243 0.0
C82 C 0.59758 0.86793 0.95477 0.0
C83 C 0.63908 0.90983 1.00665 0.0
C84 C 0.62407 0.88601 0.07147 0.0
C85 C 0.56783 0.8194 0.08516 0.0
C86 C 0.52615 0.77766 0.03317 0.0
C87 C 0.54058 0.80201 0.96866 0.0
C88 C 0.48992 0.81308 0.68281 0.0
C89 C 0.47614 0.66167 0.79546 0.0
C90 C 0.54207 0.65442 0.55156 0.0
Eu91 Eu 0.56071 0.71911 0.66331 0.0
C92 C 0.5414 0.67602 0.48311 0.0
C93 C 0.49529 0.6281 0.4368 0.0
C94 C 0.49389 0.64934 0.37222 0.0
C95 C 0.53798 0.71904 0.35335 0.0
C96 C 0.58419 0.76662 0.39983 0.0
C97 C 0.58591 0.74538 0.4639 0.0
C98 C 0.65282 0.73484 0.75755 0.0
C99 C 0.65129 0.88881 0.6336 0.0
O100 O 0.65665 0.87518 0.85602 0.0
O101 O 0.56329 0.88422 0.84937 0.0
O102 O 0.52709 0.8708 0.71547 0.0
O103 O 0.49959 0.76469 0.70404 0.0
O104 O 0.51476 0.72552 0.81896 0.0
O105 O 0.47946 0.64463 0.73374 0.0
O106 O 0.49051 0.64674 0.58863 0.0
O107 O 0.60209 0.68684 0.582 0.0
O108 O 0.61314 0.67597 0.72813 0.0
O109 O 0.64638 0.78349 0.73235 0.0
O110 O 0.6105 0.82438 0.61191 0.0
O111 O 0.65839 0.90495 0.69683 0.0
H112 H 0.68357 0.9605 0.99689 0.0
H113 H 0.65745 0.91884 0.11074 0.0
H114 H 0.48239 0.72624 0.04247 0.0
H115 H 0.50741 0.76907 0.92973 0.0
H116 H 0.46044 0.57439 0.45057 0.0
H117 H 0.45808 0.61154 0.33716 0.0
H118 H 0.62003 0.82017 0.38635 0.0
H119 H 0.62261 0.78336 0.49815 0.0
C120 C 0.69232 0.61166 0.22229 0.0
Eu121 Eu 0.72872 0.5808 0.11087 0.0
C122 C 0.69997 0.59995 0.29304 0.0
C123 C 0.65344 0.53692 0.32424 0.0
C124 C 0.66328 0.5256 0.39017 0.0
C125 C 0.71983 0.57691 0.42616 0.0
C126 C 0.76513 0.64045 0.39563 0.0
C127 C 0.75503 0.65206 0.33005 0.0
C128 C 0.65242 0.49504 1.01258 0.0
C129 C 0.77742 0.46223 0.13888 0.0
C130 C 0.84047 0.51221 0.8931 0.0
Eu131 Eu 0.80974 0.54552 1.00583 0.0
C132 C 0.82215 0.51759 0.82385 0.0
C133 C 0.86879 0.57323 0.78429 0.0
C134 C 0.8505 0.58064 0.72021 0.0
C135 C 0.78519 0.53259 0.69387 0.0
C136 C 0.73932 0.4757 0.73273 0.0
C137 C 0.75755 0.4683 0.79691 0.0
C138 C 0.88834 0.63048 0.1035 0.0
C139 C 0.76078 0.66249 0.97666 0.0
O140 O 0.74945 0.65435 0.19102 0.0
O141 O 0.65055 0.55708 0.18662 0.0
O142 O 0.63761 0.53977 0.03952 0.0
O143 O 0.70246 0.49482 0.04166 0.0
O144 O 0.7509 0.50112 0.15986 0.0
O145 O 0.79931 0.46477 0.07816 0.0
O146 O 0.79008 0.46735 0.93057 0.0
O147 O 0.8814 0.5711 0.92375 0.0
O148 O 0.90436 0.5892 0.07158 0.0
O149 O 0.83736 0.63169 0.07707 0.0
O150 O 0.77965 0.61779 0.95468 0.0
O151 O 0.74409 0.66413 0.0387 0.0
H152 H 0.61001 0.49586 0.29755 0.0
H153 H 0.62776 0.47606 0.41253 0.0
H154 H 0.80891 0.681 0.42242 0.0
H155 H 0.79136 0.70148 0.30795 0.0
H156 H 0.91918 0.61179 0.80318 0.0
H157 H 0.88707 0.62502 0.69167 0.0
H158 H 0.68949 0.43644 0.71342 0.0
H159 H 0.72077 0.42403 0.82542 0.0
C160 C 0.07627 0.70165 0.55815 0.0
Eu161 Eu 0.13894 0.73806 0.44525 0.0
C162 C 0.10208 0.71126 0.6264 0.0
C163 C 0.06264 0.7159 0.67795 0.0
C164 C 0.08802 0.72704 0.74251 0.0
C165 C 0.1538 0.73497 0.75616 0.0
C166 C 0.19288 0.72963 0.70459 0.0
C167 C 0.16701 0.71728 0.64044 0.0
C168 C 0.14382 0.6518 0.35349 0.0
C169 C 0.30194 0.78801 0.47407 0.0
C170 C 0.3188 0.84248 0.22677 0.0
Eu171 Eu 0.25032 0.80986 0.33699 0.0
C172 C 0.29783 0.82589 0.15748 0.0
C173 C 0.34443 0.82646 0.11065 0.0
C174 C 0.32374 0.81014 0.04488 0.0
C175 C 0.25589 0.7923 1.02537 0.0
C176 C 0.2094 0.79116 0.07271 0.0
C177 C 0.23036 0.80819 0.1379 0.0
C178 C 0.24722 0.89752 0.42764 0.0
C179 C 0.08476 0.7601 0.31061 0.0
O180 O 0.08758 0.75837 0.52722 0.0
O181 O 0.08871 0.66018 0.5215 0.0
O182 O 0.08688 0.63955 0.38261 0.0
O183 O 0.19542 0.70446 0.37812 0.0
O184 O 0.24183 0.7776 0.49632 0.0
O185 O 0.31631 0.79285 0.41081 0.0
O186 O 0.31015 0.78997 0.2632 0.0
O187 O 0.29879 0.8824 0.25631 0.0
O188 O 0.3032 0.90803 0.39768 0.0
O189 O 0.19426 0.84497 0.4042 0.0
O190 O 0.14594 0.77393 0.28696 0.0
O191 O 0.07117 0.75354 0.3741 0.0
H192 H 0.01251 0.71139 0.6682 0.0
H193 H 0.05693 0.73088 0.78161 0.0
H194 H 0.24327 0.73452 0.71402 0.0
H195 H 0.1979 0.71236 0.60197 0.0
H196 H 0.39669 0.83966 0.12487 0.0
H197 H 0.36064 0.81118 1.00948 0.0
H198 H 0.1571 0.77836 0.05909 0.0
H199 H 0.19378 0.8077 0.17302 0.0
C200 C 0.34824 0.10137 0.86974 0.0
Eu201 Eu 0.38546 0.16178 0.75601 0.0
C202 C 0.36556 0.1278 0.9385 0.0
C203 C 0.42798 0.1401 0.96842 0.0
C204 C 0.44519 0.16785 1.03213 0.0
C205 C 0.40023 0.18354 0.06774 0.0
C206 C 0.33772 0.17096 0.03795 0.0
C207 C 0.32047 0.14317 0.97432 0.0
C208 C 0.47583 0.16714 0.66554 0.0
C209 C 0.50882 0.32424 0.78741 0.0
C210 C 0.46645 0.34979 0.54143 0.0
Eu211 Eu 0.42967 0.28008 0.65103 0.0
C212 C 0.46348 0.33301 0.47022 0.0
C213 C 0.40623 0.3222 0.43171 0.0
C214 C 0.40175 0.30308 0.36551 0.0
C215 C 0.45432 0.2944 0.33602 0.0
C216 C 0.51304 0.30815 0.37366 0.0
C217 C 0.51763 0.32736 0.43996 0.0
C218 C 0.33934 0.2732 0.74347 0.0
C219 C 0.31566 0.11386 0.61702 0.0
O220 O 0.31062 0.12126 0.83599 0.0
O221 O 0.39805 0.10188 0.8346 0.0
O222 O 0.43234 0.10952 0.69506 0.0
O223 O 0.47556 0.2194 0.69075 0.0
O224 O 0.46425 0.26047 0.80731 0.0
O225 O 0.5105 0.34546 0.72648 0.0
O226 O 0.50902 0.33898 0.57798 0.0
O227 O 0.40724 0.33139 0.57085 0.0
O228 O 0.38639 0.33162 0.71814 0.0
O229 O 0.33957 0.22218 0.71575 0.0
O230 O 0.36235 0.17731 0.59725 0.0
O231 O 0.30709 0.09626 0.67974 0.0
H232 H 0.46413 0.1291 0.94241 0.0
H233 H 0.4943 0.17806 0.05311 0.0
H234 H 0.30174 0.18209 0.06413 0.0
H235 H 0.27192 0.13425 0.95295 0.0
H236 H 0.36407 0.32712 0.45299 0.0
H237 H 0.35583 0.29247 0.33786 0.0
H238 H 0.55533 0.30375 0.35196 0.0
H239 H 0.56333 0.33699 0.46766 0.0
C240 C 0.34221 0.29145 0.86456 0.0
C241 C 0.30396 0.26905 0.80567 0.0
C242 C 0.31174 0.29747 0.92266 0.0
C243 C 0.24283 0.28388 0.92291 0.0
H244 H 0.39687 0.308 0.86539 0.0
H245 H 0.34431 0.3194 0.96578 0.0
S246 S 0.12021 0.22158 0.78207 0.0
N247 N 0.19281 0.22908 0.75194 0.0
N248 N 0.13621 0.24409 0.86036 0.0
C249 C 0.20318 0.25838 0.86507 0.0
C250 C 0.23372 0.25038 0.80645 0.0
C251 C 0.95843 0.2641 0.12224 0.0
C252 C 0.0283 0.2863 0.13677 0.0
C253 C 0.90624 0.22907 0.16861 0.0
C254 C 0.92187 0.21613 0.23243 0.0
H255 H 0.94427 0.27742 0.07572 0.0
H256 H 0.85397 0.21658 0.15527 0.0
S257 S 0.09525 0.25454 0.29184 0.0
N258 N 0.10939 0.28577 0.21638 0.0
N259 N 0.01123 0.22041 0.30465 0.0
C260 C -0.00928 0.23302 0.24585 0.0
C261 C 0.04399 0.26808 0.19782 0.0
C262 C 0.74534 0.00563 0.48861 0.0
C263 C 0.69598 0.02373 0.46683 0.0
C264 C 0.7335 0.96516 0.54583 0.0
C265 C 0.67362 0.94463 0.58413 0.0
H266 H 0.79126 0.01955 0.45957 0.0
H267 H 0.76987 0.9477 0.55876 0.0
S268 S 0.5318 0.98345 0.55079 0.0
N269 N 0.58587 0.01887 0.48909 0.0
N270 N 0.56766 0.94955 0.59838 0.0
C271 C 0.6266 0.96625 0.56468 0.0
C272 C 0.63676 0.00417 0.50558 0.0
C273 C 0.66257 0.73056 0.8789 0.0
C274 C 0.6931 0.73982 0.81659 0.0
C275 C 0.68946 0.71273 0.93332 0.0
C276 C 0.74708 0.70264 0.92658 0.0
H277 H 0.61474 0.73181 0.88484 0.0
H278 H 0.6612 0.7007 0.9792 0.0
S279 S 0.85197 0.73255 0.77581 0.0
N280 N 0.78824 0.74629 0.75278 0.0
N281 N 0.83959 0.71334 0.85474 0.0
C282 C 0.7816 0.71818 0.86573 0.0
C283 C 0.75418 0.73635 0.81065 0.0
C284 C 0.0406 0.76644 0.19953 0.0
C285 C 0.02715 0.73816 0.26322 0.0
C286 C -0.00765 0.73425 0.14848 0.0
C287 C 0.92888 0.67333 0.15978 0.0
H288 H 0.09021 0.81162 0.18826 0.0
H289 H 0.00646 0.75479 0.09918 0.0
S290 S 0.86738 0.58006 0.318 0.0
N291 N 0.94438 0.64732 0.33516 0.0
N292 N 0.85381 0.58788 0.2396 0.0
C293 C 0.913 0.6472 0.22398 0.0
C294 C 0.96203 0.67966 0.27586 0.0
C295 C 0.2453 0.9873 0.58458 0.0
C296 C 0.28159 0.05829 0.56618 0.0
C297 C 0.22774 0.93384 0.538 0.0
C298 C 0.24644 0.94983 0.47191 0.0
H299 H 0.23449 0.97285 0.63577 0.0
H300 H 0.20466 0.88039 0.55476 0.0
S301 S 0.32904 0.1246 0.39558 0.0
N302 N 0.32506 0.13984 0.47443 0.0
N303 N 0.2942 0.03917 0.38835 0.0
C304 C 0.27703 0.01947 0.45189 0.0
C305 C 0.29391 0.07381 0.49867 0.0
C306 C 0.2465 0.40617 0.6072 0.0
C307 C 0.22309 0.45336 0.62296 0.0
C308 C 0.26307 0.39801 0.54237 0.0
C309 C 0.25679 0.43646 0.49017 0.0
H310 H 0.2507 0.37404 0.6451 0.0
H311 H 0.28083 0.36095 0.53318 0.0
S312 S 0.202 0.57058 0.50598 0.0
N313 N 0.19907 0.54271 0.58169 0.0
N314 N 0.22686 0.52527 0.45972 0.0
C315 C 0.23481 0.48505 0.50557 0.0
C316 C 0.21861 0.49381 0.57179 0.0
C317 C 0.72865 0.20603 0.89395 0.0
C318 C 0.76363 0.19344 0.94513 0.0
C319 C 0.75301 0.21566 0.82915 0.0
C320 C 0.81315 0.21252 0.81273 0.0
H321 H 0.68099 0.20661 0.90375 0.0
H322 H 0.7235 0.22411 0.79142 0.0
S323 S 0.92769 0.18801 0.93009 0.0
N324 N 0.86386 0.18272 0.976 0.0
N325 N 0.91015 0.20127 0.85433 0.0
C326 C 0.84966 0.2017 0.86385 0.0
C327 C 0.82474 0.19191 0.9299 0.0
C328 C 0.54533 0.70436 0.232 0.0
C329 C 0.53857 0.74204 0.28471 0.0
C330 C 0.55306 0.72893 0.16734 0.0
C331 C 0.55459 0.79216 0.15319 0.0
H332 H 0.54709 0.65681 0.24102 0.0
H333 H 0.56009 0.69938 0.12838 0.0
S334 S 0.52968 0.90551 0.27224 0.0
N335 N 0.52703 0.84214 0.31748 0.0
N336 N 0.54252 0.88863 0.19601 0.0
C337 C 0.54515 0.82888 0.20498 0.0
C338 C 0.53687 0.80373 0.27071 0.0
C339 C 0.81481 0.56042 0.57466 0.0
C340 C 0.76601 0.54179 0.62572 0.0
C341 C 0.79919 0.57135 0.5105 0.0
C342 C 0.73393 0.56352 0.49447 0.0
H343 H 0.86557 0.56636 0.58422 0.0
H344 H 0.83848 0.58569 0.47295 0.0
S345 S 0.58912 0.51968 0.61015 0.0
N346 N 0.6505 0.51935 0.65602 0.0
N347 N 0.62079 0.53817 0.53491 0.0
C348 C 0.68446 0.54476 0.54469 0.0
C349 C 0.70056 0.53431 0.61035 0.0
C350 C 0.14381 0.70382 0.8753 0.0
C351 C 0.1819 0.74917 0.82405 0.0
C352 C 0.16905 0.7171 0.94001 0.0
C353 C 0.23312 0.77638 0.9558 0.0
H354 H 0.09421 0.65775 0.86523 0.0
H355 H 0.13799 0.68092 0.97811 0.0
S356 S 0.35055 0.91321 0.83984 0.0
N357 N 0.28558 0.85651 0.79356 0.0
N358 N 0.33283 0.88182 0.91516 0.0
C359 C 0.27172 0.82193 0.90492 0.0
C360 C 0.24609 0.80827 0.83908 0.0
C361 C 0.423 0.29728 0.21774 0.0
C362 C 0.44586 0.26847 0.26692 0.0
C363 C 0.4095 0.27029 0.15348 0.0
C364 C 0.41813 0.21319 0.13565 0.0
H365 H 0.41513 0.34095 0.22912 0.0
H366 H 0.39198 0.2943 0.11744 0.0
S367 S 0.47394 0.1167 0.24675 0.0
N368 N 0.47519 0.17864 0.2936 0.0
N369 N 0.44941 0.12765 0.17319 0.0
C370 C 0.44153 0.18422 0.18422 0.0
C371 C 0.45549 0.21189 0.24965 0.0
C372 C 0.18285 0.60423 0.18593 0.0
C373 C 0.16451 0.5339 0.19399 0.0
C374 C 0.17478 0.64187 0.23769 0.0
C375 C 0.14751 0.61029 0.29851 0.0
H376 H 0.20575 0.63096 0.14037 0.0
H377 H 0.18971 0.69587 0.23 0.0
S378 S 0.08272 0.42522 0.34154 0.0
N379 N 0.11194 0.43245 0.26577 0.0
N380 N 0.09578 0.50348 0.36191 0.0
C381 C 0.12508 0.53917 0.30583 0.0
C382 C 0.13412 0.50097 0.25383 0.0
C383 C 0.5646 0.19355 0.50091 0.0
C384 C 0.61805 0.17857 0.51507 0.0
C385 C 0.51918 0.191 0.55026 0.0
C386 C 0.52467 0.17158 0.61471 0.0
H387 H 0.55825 0.20804 0.45166 0.0
H388 H 0.4789 0.20316 0.53758 0.0
S389 S 0.6525 0.12403 0.67728 0.0
N390 N 0.67301 0.14327 0.59931 0.0
N391 N 0.58509 0.13521 0.69021 0.0
C392 C 0.57668 0.15539 0.62944 0.0
C393 C 0.62421 0.15995 0.5801 0.0
C394 C 0.39754 0.50953 0.91277 0.0
C395 C 0.35907 0.5285 0.95494 0.0
C396 C 0.43131 0.54969 0.85716 0.0
C397 C 0.42756 0.60995 0.84235 0.0
H398 H 0.40257 0.46407 0.92335 0.0
H399 H 0.46331 0.53564 0.82775 0.0
S400 S 0.33072 0.67971 0.93447 0.0
N401 N 0.31818 0.61062 0.97669 0.0
N402 N 0.37925 0.68419 0.87123 0.0
C403 C 0.387 0.62761 0.88249 0.0
C404 C 0.35342 0.58745 0.93915 0.0
C405 C 0.75008 0.35222 0.28977 0.0
C406 C 0.81169 0.34877 0.2937 0.0
C407 C 0.73866 0.38741 0.23838 0.0
C408 C 0.78774 0.41913 0.18814 0.0
H409 H 0.71044 0.32793 0.32709 0.0
H410 H 0.69105 0.38997 0.23812 0.0
S411 S 0.95794 0.42551 0.17591 0.0
N412 N 0.92289 0.38068 0.24356 0.0
N413 N 0.90087 0.44579 0.14587 0.0
C414 C 0.84938 0.41552 0.19103 0.0
C415 C 0.86162 0.38078 0.24424 0.0
C416 C 0.39068 0.76161 0.52127 0.0
C417 C 0.35442 0.79875 0.52377 0.0
C418 C 0.43352 0.76521 0.5738 0.0
C419 C 0.44134 0.80593 0.62991 0.0
H420 H 0.38467 0.7285 0.47943 0.0
H421 H 0.46202 0.73758 0.56968 0.0
S422 S 0.36406 0.91982 0.65544 0.0
N423 N 0.3334 0.88188 0.58371 0.0
N424 N 0.4134 0.88828 0.68222 0.0
C425 C 0.40676 0.84474 0.6318 0.0
C426 C 0.3634 0.84116 0.57868 0.0
C427 C 0.59412 0.47937 0.90312 0.0
C428 C 0.61969 0.45378 0.95285 0.0
C429 C 0.56266 0.43945 0.84628 0.0
C430 C 0.55496 0.37251 0.83848 0.0
H431 H 0.59809 0.5302 0.90834 0.0
H432 H 0.54122 0.4595 0.81004 0.0
S433 S 0.61403 0.28308 0.95425 0.0
N434 N 0.63677 0.35878 0.98985 0.0
N435 N 0.57696 0.28355 0.8841 0.0
C436 C 0.58179 0.34746 0.8873 0.0
C437 C 0.61436 0.38817 0.94428 0.0
loop_
_geom_bond_atom_site_label_1
_geom_bond_atom_site_label_2
_geom_bond_distance
_geom_bond_site_symmetry_2
_ccdc_geom_bond_type
C0 Eu1 2.835 . S
C0 C2 1.500 . S
C0 O20 1.257 . S
C0 O21 1.260 . S
Eu1 C0 2.835 . S
Eu1 O20 2.473 . S
Eu1 O21 2.480 . S
Eu1 O22 2.430 . S
Eu1 O23 2.670 1_554 S
Eu1 O24 2.394 . S
Eu1 O29 2.355 . S
Eu1 O31 2.366 1_554 S
C2 C0 1.500 . S
C2 C3 1.377 . S
C2 C7 1.377 . S
C3 C2 1.377 . S
C3 C4 1.395 . S
C3 H32 0.931 . S
C4 C3 1.395 . S
C4 C5 1.383 . S
C4 H33 0.931 . S
C5 C4 1.383 . S
C5 C6 1.394 . S
C6 C5 1.394 . S
C6 C7 1.378 . S
C6 H34 0.931 . S
C7 C2 1.377 . S
C7 C6 1.378 . S
C7 H35 0.931 . S
C8 O22 1.259 1_556 S
C8 O23 1.270 . S
C9 O24 1.251 . S
C9 O25 1.251 . S
C10 Eu11 2.835 . S
C10 C12 1.500 . S
C10 O26 1.257 . S
C10 O27 1.260 . S
Eu11 C10 2.835 . S
Eu11 O23 2.355 . S
Eu11 O25 2.374 1_556 S
Eu11 O26 2.473 . S
Eu11 O27 2.480 . S
Eu11 O28 2.430 1_556 S
Eu11 O29 2.670 1_556 S
Eu11 O30 2.394 . S
C12 C10 1.500 . S
C12 C13 1.377 . S
C12 C17 1.377 . S
C13 C12 1.377 . S
C13 C14 1.395 . S
C13 H36 0.931 1_455 S
C14 C13 1.395 . S
C14 C15 1.383 . S
C14 H37 0.931 1_455 S
C15 C14 1.383 . S
C15 C16 1.394 . S
C16 C15 1.394 . S
C16 C17 1.378 . S
C16 H38 0.931 . S
C17 C12 1.377 . S
C17 C16 1.378 . S
C17 H39 0.931 . S
C18 O28 1.259 . S
C18 O29 1.270 . S
C19 O30 1.251 . S
C19 O31 1.260 . S
O20 C0 1.257 . S
O20 Eu1 2.473 . S
O21 C0 1.260 . S
O21 Eu1 2.480 . S
O22 Eu1 2.430 . S
O22 C8 1.259 1_554 S
O23 Eu1 2.670 1_556 S
O23 C8 1.270 . S
O23 Eu11 2.355 . S
O24 Eu1 2.394 . S
O24 C9 1.251 . S
O25 C9 1.251 . S
O25 Eu11 2.374 1_554 S
O26 C10 1.257 . S
O26 Eu11 2.473 . S
O27 C10 1.260 . S
O27 Eu11 2.480 . S
O28 Eu11 2.430 1_554 S
O28 C18 1.259 . S
O29 Eu1 2.355 . S
O29 Eu11 2.670 1_554 S
O29 C18 1.270 . S
O30 Eu11 2.394 . S
O30 C19 1.251 . S
O31 Eu1 2.366 1_556 S
O31 C19 1.260 . S
H32 C3 0.931 . S
H33 C4 0.931 . S
H34 C6 0.931 . S
H35 C7 0.931 . S
H36 C13 0.931 1_655 S
H37 C14 0.931 1_655 S
H38 C16 0.931 . S
H39 C17 0.931 . S
C40 Eu41 2.835 . S
C40 C42 1.500 . S
C40 O60 1.257 . S
C40 O61 1.260 . S
Eu41 C40 2.835 . S
Eu41 O60 2.473 . S
Eu41 O61 2.480 . S
Eu41 O62 2.430 . S
Eu41 O63 2.670 . S
Eu41 O64 2.394 . S
Eu41 O69 2.355 . S
Eu41 O71 2.374 . S
C42 C40 1.500 . S
C42 C43 1.377 . S
C42 C47 1.377 . S
C43 C42 1.377 . S
C43 C44 1.395 . S
C43 H72 0.931 . S
C44 C43 1.395 . S
C44 C45 1.383 . S
C44 H73 0.931 . S
C45 C44 1.383 . S
C45 C46 1.394 . S
C46 C45 1.394 . S
C46 C47 1.378 . S
C46 H74 0.931 . S
C47 C42 1.377 . S
C47 C46 1.378 . S
C47 H75 0.931 . S
C48 O62 1.259 . S
C48 O63 1.270 . S
C49 O64 1.251 . S
C49 O65 1.251 . S
C50 Eu51 2.835 . S
C50 C52 1.500 . S
C50 O66 1.257 . S
C50 O67 1.260 . S
Eu51 C50 2.835 . S
Eu51 O63 2.355 . S
Eu51 O65 2.374 . S
Eu51 O66 2.473 . S
Eu51 O67 2.480 . S
Eu51 O68 2.430 . S
Eu51 O69 2.670 . S
Eu51 O70 2.394 . S
C52 C50 1.500 . S
C52 C53 1.377 . S
C52 C57 1.377 . S
C53 C52 1.377 . S
C53 C54 1.395 . S
C53 H76 0.931 1_545 S
C54 C53 1.395 . S
C54 C55 1.383 1_554 S
C54 H77 0.931 1_544 S
C55 C54 1.383 1_556 S
C55 C56 1.394 . S
C56 C55 1.394 . S
C56 C57 1.378 1_556 S
C56 H78 0.931 . S
C57 C52 1.377 . S
C57 C56 1.378 1_554 S
C57 H79 0.931 . S
C58 O68 1.259 . S
C58 O69 1.270 . S
C59 O70 1.251 . S
C59 O71 1.251 . S
O60 C40 1.257 . S
O60 Eu41 2.473 . S
O61 C40 1.260 . S
O61 Eu41 2.480 . S
O62 Eu41 2.430 . S
O62 C48 1.259 . S
O63 Eu41 2.670 . S
O63 C48 1.270 . S
O63 Eu51 2.355 . S
O64 Eu41 2.394 . S
O64 C49 1.251 . S
O65 C49 1.251 . S
O65 Eu51 2.374 . S
O66 C50 1.257 . S
O66 Eu51 2.473 . S
O67 C50 1.260 . S
O67 Eu51 2.480 . S
O68 Eu51 2.430 . S
O68 C58 1.259 . S
O69 Eu41 2.355 . S
O69 Eu51 2.670 . S
O69 C58 1.270 . S
O70 Eu51 2.394 . S
O70 C59 1.251 . S
O71 Eu41 2.374 . S
O71 C59 1.251 . S
H72 C43 0.931 . S
H73 C44 0.931 . S
H74 C46 0.931 . S
H75 C47 0.931 . S
H76 C53 0.931 1_565 S
H77 C54 0.931 1_566 S
H78 C56 0.931 . S
H79 C57 0.931 . S
C80 Eu81 2.835 . S
C80 C82 1.500 . S
C80 O100 1.257 . S
C80 O101 1.260 . S
Eu81 C80 2.835 . S
Eu81 O100 2.473 . S
Eu81 O101 2.480 . S
Eu81 O102 2.430 . S
Eu81 O103 2.670 . S
Eu81 O104 2.394 . S
Eu81 O109 2.355 . S
Eu81 O111 2.374 . S
C82 C80 1.500 . S
C82 C83 1.377 . S
C82 C87 1.377 . S
C83 C82 1.377 . S
C83 C84 1.395 1_556 S
C83 H112 0.931 . S
C84 C83 1.395 1_554 S
C84 C85 1.383 . S
C84 H113 0.931 . S
C85 C84 1.383 . S
C85 C86 1.394 . S
C86 C85 1.394 . S
C86 C87 1.378 1_554 S
C86 H114 0.931 . S
C87 C82 1.377 . S
C87 C86 1.378 1_556 S
C87 H115 0.931 . S
C88 O102 1.259 . S
C88 O103 1.270 . S
C89 O104 1.251 . S
C89 O105 1.251 . S
C90 Eu91 2.835 . S
C90 C92 1.500 . S
C90 O106 1.257 . S
C90 O107 1.260 . S
Eu91 C90 2.835 . S
Eu91 O103 2.355 . S
Eu91 O105 2.374 . S
Eu91 O106 2.473 . S
Eu91 O107 2.480 . S
Eu91 O108 2.430 . S
Eu91 O109 2.670 . S
Eu91 O110 2.394 . S
C92 C90 1.500 . S
C92 C93 1.377 . S
C92 C97 1.377 . S
C93 C92 1.377 . S
C93 C94 1.395 . S
C93 H116 0.931 . S
C94 C93 1.395 . S
C94 C95 1.383 . S
C94 H117 0.931 . S
C95 C94 1.383 . S
C95 C96 1.394 . S
C96 C95 1.394 . S
C96 C97 1.378 . S
C96 H118 0.931 . S
C97 C92 1.377 . S
C97 C96 1.378 . S
C97 H119 0.931 . S
C98 O108 1.259 . S
C98 O109 1.270 . S
C99 O110 1.251 . S
C99 O111 1.251 . S
O100 C80 1.257 . S
O100 Eu81 2.473 . S
O101 C80 1.260 . S
O101 Eu81 2.480 . S
O102 Eu81 2.430 . S
O102 C88 1.259 . S
O103 Eu81 2.670 . S
O103 C88 1.270 . S
O103 Eu91 2.355 . S
O104 Eu81 2.394 . S
O104 C89 1.251 . S
O105 C89 1.251 . S
O105 Eu91 2.374 . S
O106 C90 1.257 . S
O106 Eu91 2.473 . S
O107 C90 1.260 . S
O107 Eu91 2.480 . S
O108 Eu91 2.430 . S
O108 C98 1.259 . S
O109 Eu81 2.355 . S
O109 Eu91 2.670 . S
O109 C98 1.270 . S
O110 Eu91 2.394 . S
O110 C99 1.251 . S
O111 Eu81 2.374 . S
O111 C99 1.251 . S
H112 C83 0.931 . S
H113 C84 0.931 . S
H114 C86 0.931 . S
H115 C87 0.931 . S
H116 C93 0.931 . S
H117 C94 0.931 . S
H118 C96 0.931 . S
H119 C97 0.931 . S
C120 Eu121 2.835 . S
C120 C122 1.500 . S
C120 O140 1.257 . S
C120 O141 1.260 . S
Eu121 C120 2.835 . S
Eu121 O140 2.473 . S
Eu121 O141 2.480 . S
Eu121 O142 2.430 . S
Eu121 O143 2.670 1_554 S
Eu121 O144 2.394 . S
Eu121 O149 2.355 . S
Eu121 O151 2.366 1_554 S
C122 C120 1.500 . S
C122 C123 1.377 . S
C122 C127 1.377 . S
C123 C122 1.377 . S
C123 C124 1.395 . S
C123 H152 0.931 . S
C124 C123 1.395 . S
C124 C125 1.383 . S
C124 H153 0.931 . S
C125 C124 1.383 . S
C125 C126 1.394 . S
C126 C125 1.394 . S
C126 C127 1.378 . S
C126 H154 0.931 . S
C127 C122 1.377 . S
C127 C126 1.378 . S
C127 H155 0.931 . S
C128 O142 1.259 1_556 S
C128 O143 1.270 . S
C129 O144 1.251 . S
C129 O145 1.251 . S
C130 Eu131 2.835 . S
C130 C132 1.500 . S
C130 O146 1.257 . S
C130 O147 1.260 . S
Eu131 C130 2.835 . S
Eu131 O143 2.355 . S
Eu131 O145 2.374 1_556 S
Eu131 O146 2.473 . S
Eu131 O147 2.480 . S
Eu131 O148 2.430 1_556 S
Eu131 O149 2.670 1_556 S
Eu131 O150 2.394 . S
C132 C130 1.500 . S
C132 C133 1.377 . S
C132 C137 1.377 . S
C133 C132 1.377 . S
C133 C134 1.395 . S
C133 H156 0.931 1_655 S
C134 C133 1.395 . S
C134 C135 1.383 . S
C134 H157 0.931 1_655 S
C135 C134 1.383 . S
C135 C136 1.394 . S
C136 C135 1.394 . S
C136 C137 1.378 . S
C136 H158 0.931 . S
C137 C132 1.377 . S
C137 C136 1.378 . S
C137 H159 0.931 . S
C138 O148 1.259 . S
C138 O149 1.270 . S
C139 O150 1.251 . S
C139 O151 1.260 . S
O140 C120 1.257 . S
O140 Eu121 2.473 . S
O141 C120 1.260 . S
O141 Eu121 2.480 . S
O142 Eu121 2.430 . S
O142 C128 1.259 1_554 S
O143 Eu121 2.670 1_556 S
O143 C128 1.270 . S
O143 Eu131 2.355 . S
O144 Eu121 2.394 . S
O144 C129 1.251 . S
O145 C129 1.251 . S
O145 Eu131 2.374 1_554 S
O146 C130 1.257 . S
O146 Eu131 2.473 . S
O147 C130 1.260 . S
O147 Eu131 2.480 . S
O148 Eu131 2.430 1_554 S
O148 C138 1.259 . S
O149 Eu121 2.355 . S
O149 Eu131 2.670 1_554 S
O149 C138 1.270 . S
O150 Eu131 2.394 . S
O150 C139 1.251 . S
O151 Eu121 2.366 1_556 S
O151 C139 1.260 . S
H152 C123 0.931 . S
H153 C124 0.931 . S
H154 C126 0.931 . S
H155 C127 0.931 . S
H156 C133 0.931 1_455 S
H157 C134 0.931 1_455 S
H158 C136 0.931 . S
H159 C137 0.931 . S
C160 Eu161 2.835 . S
C160 C162 1.500 . S
C160 O180 1.257 . S
C160 O181 1.260 . S
Eu161 C160 2.835 . S
Eu161 O180 2.473 . S
Eu161 O181 2.480 . S
Eu161 O182 2.430 . S
Eu161 O183 2.670 . S
Eu161 O184 2.394 . S
Eu161 O189 2.355 . S
Eu161 O191 2.374 . S
C162 C160 1.500 . S
C162 C163 1.377 . S
C162 C167 1.377 . S
C163 C162 1.377 . S
C163 C164 1.395 . S
C163 H192 0.931 . S
C164 C163 1.395 . S
C164 C165 1.383 . S
C164 H193 0.931 . S
C165 C164 1.383 . S
C165 C166 1.394 . S
C166 C165 1.394 . S
C166 C167 1.378 . S
C166 H194 0.931 . S
C167 C162 1.377 . S
C167 C166 1.378 . S
C167 H195 0.931 . S
C168 O182 1.259 . S
C168 O183 1.270 . S
C169 O184 1.251 . S
C169 O185 1.251 . S
C170 Eu171 2.835 . S
C170 C172 1.500 . S
C170 O186 1.257 . S
C170 O187 1.260 . S
Eu171 C170 2.835 . S
Eu171 O183 2.355 . S
Eu171 O185 2.374 . S
Eu171 O186 2.473 . S
Eu171 O187 2.480 . S
Eu171 O188 2.430 . S
Eu171 O189 2.670 . S
Eu171 O190 2.394 . S
C172 C170 1.500 . S
C172 C173 1.377 . S
C172 C177 1.377 . S
C173 C172 1.377 . S
C173 C174 1.395 . S
C173 H196 0.931 1_565 S
C174 C173 1.395 . S
C174 C175 1.383 1_554 S
C174 H197 0.931 1_564 S
C175 C174 1.383 1_556 S
C175 C176 1.394 . S
C176 C175 1.394 . S
C176 C177 1.378 1_556 S
C176 H198 0.931 . S
C177 C172 1.377 . S
C177 C176 1.378 1_554 S
C177 H199 0.931 . S
C178 O188 1.259 . S
C178 O189 1.270 . S
C179 O190 1.251 . S
C179 O191 1.251 . S
O180 C160 1.257 . S
O180 Eu161 2.473 . S
O181 C160 1.260 . S
O181 Eu161 2.480 . S
O182 Eu161 2.430 . S
O182 C168 1.259 . S
O183 Eu161 2.670 . S
O183 C168 1.270 . S
O183 Eu171 2.355 . S
O184 Eu161 2.394 . S
O184 C169 1.251 . S
O185 C169 1.251 . S
O185 Eu171 2.374 . S
O186 C170 1.257 . S
O186 Eu171 2.473 . S
O187 C170 1.260 . S
O187 Eu171 2.480 . S
O188 Eu171 2.430 . S
O188 C178 1.259 . S
O189 Eu161 2.355 . S
O189 Eu171 2.670 . S
O189 C178 1.270 . S
O190 Eu171 2.394 . S
O190 C179 1.251 . S
O191 Eu161 2.374 . S
O191 C179 1.251 . S
H192 C163 0.931 . S
H193 C164 0.931 . S
H194 C166 0.931 . S
H195 C167 0.931 . S
H196 C173 0.931 1_545 S
H197 C174 0.931 1_546 S
H198 C176 0.931 . S
H199 C177 0.931 . S
C200 Eu201 2.835 . S
C200 C202 1.500 . S
C200 O220 1.257 . S
C200 O221 1.260 . S
Eu201 C200 2.835 . S
Eu201 O220 2.473 . S
Eu201 O221 2.480 . S
Eu201 O222 2.430 . S
Eu201 O223 2.670 . S
Eu201 O224 2.394 . S
Eu201 O229 2.355 . S
Eu201 O231 2.374 . S
C202 C200 1.500 . S
C202 C203 1.377 . S
C202 C207 1.377 . S
C203 C202 1.377 . S
C203 C204 1.395 1_556 S
C203 H232 0.931 . S
C204 C203 1.395 1_554 S
C204 C205 1.383 . S
C204 H233 0.931 . S
C205 C204 1.383 . S
C205 C206 1.394 . S
C206 C205 1.394 . S
C206 C207 1.378 1_554 S
C206 H234 0.931 . S
C207 C202 1.377 . S
C207 C206 1.378 1_556 S
C207 H235 0.931 . S
C208 O222 1.259 . S
C208 O223 1.270 . S
C209 O224 1.251 . S
C209 O225 1.251 . S
C210 Eu211 2.835 . S
C210 C212 1.500 . S
C210 O226 1.257 . S
C210 O227 1.260 . S
Eu211 C210 2.835 . S
Eu211 O223 2.355 . S
Eu211 O225 2.374 . S
Eu211 O226 2.473 . S
Eu211 O227 2.480 . S
Eu211 O228 2.430 . S
Eu211 O229 2.670 . S
Eu211 O230 2.394 . S
C212 C210 1.500 . S
C212 C213 1.377 . S
C212 C217 1.377 . S
C213 C212 1.377 . S
C213 C214 1.395 . S
C213 H236 0.931 . S
C214 C213 1.395 . S
C214 C215 1.383 . S
C214 H237 0.931 . S
C215 C214 1.383 . S
C215 C216 1.394 . S
C216 C215 1.394 . S
C216 C217 1.378 . S
C216 H238 0.931 . S
C217 C212 1.377 . S
C217 C216 1.378 . S
C217 H239 0.931 . S
C218 O228 1.259 . S
C218 O229 1.270 . S
C219 O230 1.251 . S
C219 O231 1.251 . S
O220 C200 1.257 . S
O220 Eu201 2.473 . S
O221 C200 1.260 . S
O221 Eu201 2.480 . S
O222 Eu201 2.430 . S
O222 C208 1.259 . S
O223 Eu201 2.670 . S
O223 C208 1.270 . S
O223 Eu211 2.355 . S
O224 Eu201 2.394 . S
O224 C209 1.251 . S
O225 C209 1.251 . S
O225 Eu211 2.374 . S
O226 C210 1.257 . S
O226 Eu211 2.473 . S
O227 C210 1.260 . S
O227 Eu211 2.480 . S
O228 Eu211 2.430 . S
O228 C218 1.259 . S
O229 Eu201 2.355 . S
O229 Eu211 2.670 . S
O229 C218 1.270 . S
O230 Eu211 2.394 . S
O230 C219 1.251 . S
O231 Eu201 2.374 . S
O231 C219 1.251 . S
H232 C203 0.931 . S
H233 C204 0.931 . S
H234 C206 0.931 . S
H235 C207 0.931 . S
H236 C213 0.931 . S
H237 C214 0.931 . S
H238 C216 0.931 . S
H239 C217 0.931 . S
C240 C241 1.369 . S
C240 C242 1.419 . S
C240 H244 0.930 . S
C241 C240 1.369 . S
C241 C250 1.429 . S
C242 C240 1.419 . S
C242 C243 1.363 . S
C242 H245 0.929 . S
C243 C242 1.363 . S
C243 C249 1.428 . S
H244 C240 0.930 . S
H245 C242 0.929 . S
S246 N247 1.613 . S
S246 N248 1.610 . S
N247 S246 1.613 . S
N247 C250 1.350 . S
N248 S246 1.610 . S
N248 C249 1.351 . S
C249 C243 1.428 . S
C249 N248 1.351 . S
C249 C250 1.434 . S
C250 C241 1.429 . S
C250 N247 1.350 . S
C250 C249 1.434 . S
C251 C252 1.369 . S
C251 C253 1.419 1_455 S
C251 H255 0.930 . S
C252 C251 1.369 . S
C252 C261 1.429 . S
C253 C251 1.419 1_655 S
C253 C254 1.363 . S
C253 H256 0.929 . S
C254 C253 1.363 . S
C254 C260 1.428 . S
H255 C251 0.930 . S
H256 C253 0.929 . S
S257 N258 1.613 . S
S257 N259 1.610 1_455 S
N258 S257 1.613 . S
N258 C261 1.350 . S
N259 S257 1.610 1_655 S
N259 C260 1.351 . S
C260 C254 1.428 . S
C260 N259 1.351 . S
C260 C261 1.434 1_655 S
C261 C252 1.429 . S
C261 N258 1.350 . S
C261 C260 1.434 1_455 S
C262 C263 1.369 . S
C262 C264 1.419 . S
C262 H266 0.930 . S
C263 C262 1.369 . S
C263 C272 1.429 1_545 S
C264 C262 1.419 . S
C264 C265 1.363 1_545 S
C264 H267 0.929 . S
C265 C264 1.363 1_565 S
C265 C271 1.428 . S
H266 C262 0.930 . S
H267 C264 0.929 . S
S268 N269 1.613 . S
S268 N270 1.610 . S
N269 S268 1.613 . S
N269 C272 1.350 . S
N270 S268 1.610 . S
N270 C271 1.351 . S
C271 C265 1.428 . S
C271 N270 1.351 . S
C271 C272 1.434 . S
C272 C263 1.429 1_565 S
C272 N269 1.350 . S
C272 C271 1.434 . S
C273 C274 1.369 . S
C273 C275 1.419 . S
C273 H277 0.930 . S
C274 C273 1.369 . S
C274 C283 1.429 . S
C275 C273 1.419 . S
C275 C276 1.363 . S
C275 H278 0.929 . S
C276 C275 1.363 . S
C276 C282 1.428 . S
H277 C273 0.930 . S
H278 C275 0.929 . S
S279 N280 1.613 . S
S279 N281 1.610 . S
N280 S279 1.613 . S
N280 C283 1.350 . S
N281 S279 1.610 . S
N281 C282 1.351 . S
C282 C276 1.428 . S
C282 N281 1.351 . S
C282 C283 1.434 . S
C283 C274 1.429 . S
C283 N280 1.350 . S
C283 C282 1.434 . S
C284 C285 1.369 . S
C284 C286 1.419 . S
C284 H288 0.930 . S
C285 C284 1.369 . S
C285 C294 1.429 1_455 S
C286 C284 1.419 . S
C286 C287 1.363 1_455 S
C286 H289 0.929 . S
C287 C286 1.363 1_655 S
C287 C293 1.428 . S
H288 C284 0.930 . S
H289 C286 0.929 . S
S290 N291 1.613 . S
S290 N292 1.610 . S
N291 S290 1.613 . S
N291 C294 1.350 . S
N292 S290 1.610 . S
N292 C293 1.351 . S
C293 C287 1.428 . S
C293 N292 1.351 . S
C293 C294 1.434 . S
C294 C285 1.429 1_655 S
C294 N291 1.350 . S
C294 C293 1.434 . S
C295 C296 1.369 1_565 S
C295 C297 1.419 . S
C295 H299 0.930 . S
C296 C295 1.369 1_545 S
C296 C305 1.429 . S
C297 C295 1.419 . S
C297 C298 1.363 . S
C297 H300 0.929 . S
C298 C297 1.363 . S
C298 C304 1.428 1_565 S
H299 C295 0.930 . S
H300 C297 0.929 . S
S301 N302 1.613 . S
S301 N303 1.610 . S
N302 S301 1.613 . S
N302 C305 1.350 . S
N303 S301 1.610 . S
N303 C304 1.351 . S
C304 C298 1.428 1_545 S
C304 N303 1.351 . S
C304 C305 1.434 . S
C305 C296 1.429 . S
C305 N302 1.350 . S
C305 C304 1.434 . S
C306 C307 1.369 . S
C306 C308 1.419 . S
C306 H310 0.930 . S
C307 C306 1.369 . S
C307 C316 1.429 . S
C308 C306 1.419 . S
C308 C309 1.363 . S
C308 H311 0.929 . S
C309 C308 1.363 . S
C309 C315 1.428 . S
H310 C306 0.930 . S
H311 C308 0.929 . S
S312 N313 1.613 . S
S312 N314 1.610 . S
N313 S312 1.613 . S
N313 C316 1.350 . S
N314 S312 1.610 . S
N314 C315 1.351 . S
C315 C309 1.428 . S
C315 N314 1.351 . S
C315 C316 1.434 . S
C316 C307 1.429 . S
C316 N313 1.350 . S
C316 C315 1.434 . S
C317 C318 1.369 . S
C317 C319 1.419 . S
C317 H321 0.930 . S
C318 C317 1.369 . S
C318 C327 1.429 . S
C319 C317 1.419 . S
C319 C320 1.363 . S
C319 H322 0.929 . S
C320 C319 1.363 . S
C320 C326 1.428 . S
H321 C317 0.930 . S
H322 C319 0.929 . S
S323 N324 1.613 . S
S323 N325 1.610 . S
N324 S323 1.613 . S
N324 C327 1.350 . S
N325 S323 1.610 . S
N325 C326 1.351 . S
C326 C320 1.428 . S
C326 N325 1.351 . S
C326 C327 1.434 . S
C327 C318 1.429 . S
C327 N324 1.350 . S
C327 C326 1.434 . S
C328 C329 1.369 . S
C328 C330 1.419 . S
C328 H332 0.930 . S
C329 C328 1.369 . S
C329 C338 1.429 . S
C330 C328 1.419 . S
C330 C331 1.363 . S
C330 H333 0.929 . S
C331 C330 1.363 . S
C331 C337 1.428 . S
H332 C328 0.930 . S
H333 C330 0.929 . S
S334 N335 1.613 . S
S334 N336 1.610 . S
N335 S334 1.613 . S
N335 C338 1.350 . S
N336 S334 1.610 . S
N336 C337 1.351 . S
C337 C331 1.428 . S
C337 N336 1.351 . S
C337 C338 1.434 . S
C338 C329 1.429 . S
C338 N335 1.350 . S
C338 C337 1.434 . S
C339 C340 1.369 . S
C339 C341 1.419 . S
C339 H343 0.930 . S
C340 C339 1.369 . S
C340 C349 1.429 . S
C341 C339 1.419 . S
C341 C342 1.363 . S
C341 H344 0.929 . S
C342 C341 1.363 . S
C342 C348 1.428 . S
H343 C339 0.930 . S
H344 C341 0.929 . S
S345 N346 1.613 . S
S345 N347 1.610 . S
N346 S345 1.613 . S
N346 C349 1.350 . S
N347 S345 1.610 . S
N347 C348 1.351 . S
C348 C342 1.428 . S
C348 N347 1.351 . S
C348 C349 1.434 . S
C349 C340 1.429 . S
C349 N346 1.350 . S
C349 C348 1.434 . S
C350 C351 1.369 . S
C350 C352 1.419 . S
C350 H354 0.930 . S
C351 C350 1.369 . S
C351 C360 1.429 . S
C352 C350 1.419 . S
C352 C353 1.363 . S
C352 H355 0.929 . S
C353 C352 1.363 . S
C353 C359 1.428 . S
H354 C350 0.930 . S
H355 C352 0.929 . S
S356 N357 1.613 . S
S356 N358 1.610 . S
N357 S356 1.613 . S
N357 C360 1.350 . S
N358 S356 1.610 . S
N358 C359 1.351 . S
C359 C353 1.428 . S
C359 N358 1.351 . S
C359 C360 1.434 . S
C360 C351 1.429 . S
C360 N357 1.350 . S
C360 C359 1.434 . S
C361 C362 1.369 . S
C361 C363 1.419 . S
C361 H365 0.930 . S
C362 C361 1.369 . S
C362 C371 1.429 . S
C363 C361 1.419 . S
C363 C364 1.363 . S
C363 H366 0.929 . S
C364 C363 1.363 . S
C364 C370 1.428 . S
H365 C361 0.930 . S
H366 C363 0.929 . S
S367 N368 1.613 . S
S367 N369 1.610 . S
N368 S367 1.613 . S
N368 C371 1.350 . S
N369 S367 1.610 . S
N369 C370 1.351 . S
C370 C364 1.428 . S
C370 N369 1.351 . S
C370 C371 1.434 . S
C371 C362 1.429 . S
C371 N368 1.350 . S
C371 C370 1.434 . S
C372 C373 1.369 . S
C372 C374 1.419 . S
C372 H376 0.930 . S
C373 C372 1.369 . S
C373 C382 1.429 . S
C374 C372 1.419 . S
C374 C375 1.363 . S
C374 H377 0.929 . S
C375 C374 1.363 . S
C375 C381 1.428 . S
H376 C372 0.930 . S
H377 C374 0.929 . S
S378 N379 1.613 . S
S378 N380 1.610 . S
N379 S378 1.613 . S
N379 C382 1.350 . S
N380 S378 1.610 . S
N380 C381 1.351 . S
C381 C375 1.428 . S
C381 N380 1.351 . S
C381 C382 1.434 . S
C382 C373 1.429 . S
C382 N379 1.350 . S
C382 C381 1.434 . S
C383 C384 1.369 . S
C383 C385 1.419 . S
C383 H387 0.930 . S
C384 C383 1.369 . S
C384 C393 1.429 . S
C385 C383 1.419 . S
C385 C386 1.363 . S
C385 H388 0.929 . S
C386 C385 1.363 . S
C386 C392 1.428 . S
H387 C383 0.930 . S
H388 C385 0.929 . S
S389 N390 1.613 . S
S389 N391 1.610 . S
N390 S389 1.613 . S
N390 C393 1.350 . S
N391 S389 1.610 . S
N391 C392 1.351 . S
C392 C386 1.428 . S
C392 N391 1.351 . S
C392 C393 1.434 . S
C393 C384 1.429 . S
C393 N390 1.350 . S
C393 C392 1.434 . S
C394 C395 1.369 . S
C394 C396 1.419 . S
C394 H398 0.930 . S
C395 C394 1.369 . S
C395 C404 1.429 . S
C396 C394 1.419 . S
C396 C397 1.363 . S
C396 H399 0.929 . S
C397 C396 1.363 . S
C397 C403 1.428 . S
H398 C394 0.930 . S
H399 C396 0.929 . S
S400 N401 1.613 . S
S400 N402 1.610 . S
N401 S400 1.613 . S
N401 C404 1.350 . S
N402 S400 1.610 . S
N402 C403 1.351 . S
C403 C397 1.428 . S
C403 N402 1.351 . S
C403 C404 1.434 . S
C404 C395 1.429 . S
C404 N401 1.350 . S
C404 C403 1.434 . S
C405 C406 1.369 . S
C405 C407 1.419 . S
C405 H409 0.930 . S
C406 C405 1.369 . S
C406 C415 1.429 . S
C407 C405 1.419 . S
C407 C408 1.363 . S
C407 H410 0.929 . S
C408 C407 1.363 . S
C408 C414 1.428 . S
H409 C405 0.930 . S
H410 C407 0.929 . S
S411 N412 1.613 1_455 S
S411 N413 1.610 1_455 S
N412 S411 1.613 1_655 S
N412 C415 1.350 . S
N413 S411 1.610 1_655 S
N413 C414 1.351 . S
C414 C408 1.428 . S
C414 N413 1.351 . S
C414 C415 1.434 . S
C415 C406 1.429 . S
C415 N412 1.350 . S
C415 C414 1.434 . S
C416 C417 1.369 . S
C416 C418 1.419 . S
C416 H420 0.930 . S
C417 C416 1.369 . S
C417 C426 1.429 . S
C418 C416 1.419 . S
C418 C419 1.363 . S
C418 H421 0.929 . S
C419 C418 1.363 . S
C419 C425 1.428 . S
H420 C416 0.930 . S
H421 C418 0.929 . S
S422 N423 1.613 . S
S422 N424 1.610 . S
N423 S422 1.613 . S
N423 C426 1.350 . S
N424 S422 1.610 . S
N424 C425 1.351 . S
C425 C419 1.428 . S
C425 N424 1.351 . S
C425 C426 1.434 . S
C426 C417 1.429 . S
C426 N423 1.350 . S
C426 C425 1.434 . S
C427 C428 1.369 . S
C427 C429 1.419 . S
C427 H431 0.930 . S
C428 C427 1.369 . S
C428 C437 1.429 . S
C429 C427 1.419 . S
C429 C430 1.363 . S
C429 H432 0.929 . S
C430 C429 1.363 . S
C430 C436 1.428 . S
H431 C427 0.930 . S
H432 C429 0.929 . S
S433 N434 1.613 . S
S433 N435 1.610 . S
N434 S433 1.613 . S
N434 C437 1.350 . S
N435 S433 1.610 . S
N435 C436 1.351 . S
C436 C430 1.428 . S
C436 N435 1.351 . S
C436 C437 1.434 . S
C437 C428 1.429 . S
C437 N434 1.350 . S
C437 C436 1.434 . S
C241 C218 1.511 . S
C243 C19 1.575 . S
C252 C18 1.512 . S
C254 C59 1.576 . S
C263 C58 1.505 . S
C265 C99 1.574 . S
C274 C98 1.505 . S
C276 C139 1.574 . S
C285 C179 1.575 . S
C287 C138 1.503 . S
C296 C219 1.573 . S
C298 C178 1.507 . S
C307 C15 1.994 . S
C309 C5 1.999 . S
C318 C55 1.996 . S
C320 C45 1.996 . S
C329 C95 1.991 . S
C331 C85 2.001 . S
C340 C135 1.991 . S
C342 C125 2.001 . S
C351 C165 1.990 . S
C353 C175 2.001 . S
C362 C215 1.991 . S
C364 C205 2.001 . S
C373 C9 1.831 . S
C375 C168 1.821 . S
C384 C49 1.831 . S
C386 C208 1.821 . S
C395 C8 1.818 . S
C397 C89 1.833 . S
C406 C48 1.819 . S
C408 C129 1.833 . S
C417 C169 1.833 . S
C419 C88 1.819 . S
C428 C128 1.822 . S
C430 C209 1.831 . S
