# Generated by pormake.
# Topology tfs, (6)-cn, num edge types: 1
# Building blocks:
#     Node 0, Type 0, BuildingBlock: JUFBIX_clean_sbu_0, # of connection points: 6
#     Node 1, Type 0, BuildingBlock: JUFBIX_clean_sbu_0, # of connection points: 6
#     Node 2, Type 0, BuildingBlock: JUFBIX_clean_sbu_0, # of connection points: 6
#     Node 3, Type 0, BuildingBlock: JUFBIX_clean_sbu_0, # of connection points: 6
#     Node 4, Type 0, BuildingBlock: JUFBIX_clean_sbu_0, # of connection points: 6
#     Node 5, Type 0, BuildingBlock: JUFBIX_clean_sbu_0, # of connection points: 6
#     Edge 6, Type (0, 0), BuildingBlock: EZIPEK_clean_linker_0, # of connection points: 2
#     Edge 7, Type (0, 0), BuildingBlock: EZIPEK_clean_linker_0, # of connection points: 2
#     Edge 8, Type (0, 0), BuildingBlock: EZIPEK_clean_linker_0, # of connection points: 2
#     Edge 9, Type (0, 0), BuildingBlock: EZIPEK_clean_linker_0, # of connection points: 2
#     Edge 10, Type (0, 0), BuildingBlock: EZIPEK_clean_linker_0, # of connection points: 2
#     Edge 11, Type (0, 0), BuildingBlock: EZIPEK_clean_linker_0, # of connection points: 2
#     Edge 12, Type (0, 0), BuildingBlock: EZIPEK_clean_linker_0, # of connection points: 2
#     Edge 13, Type (0, 0), BuildingBlock: EZIPEK_clean_linker_0, # of connection points: 2
#     Edge 14, Type (0, 0), BuildingBlock: EZIPEK_clean_linker_0, # of connection points: 2
#     Edge 15, Type (0, 0), BuildingBlock: EZIPEK_clean_linker_0, # of connection points: 2
#     Edge 16, Type (0, 0), BuildingBlock: EZIPEK_clean_linker_0, # of connection points: 2
#     Edge 17, Type (0, 0), BuildingBlock: EZIPEK_clean_linker_0, # of connection points: 2
#     Edge 18, Type (0, 0), BuildingBlock: EZIPEK_clean_linker_0, # of connection points: 2
#     Edge 19, Type (0, 0), BuildingBlock: EZIPEK_clean_linker_0, # of connection points: 2
#     Edge 20, Type (0, 0), BuildingBlock: EZIPEK_clean_linker_0, # of connection points: 2
#     Edge 21, Type (0, 0), BuildingBlock: EZIPEK_clean_linker_0, # of connection points: 2
#     Edge 22, Type (0, 0), BuildingBlock: EZIPEK_clean_linker_0, # of connection points: 2
#     Edge 23, Type (0, 0), BuildingBlock: EZIPEK_clean_linker_0, # of connection points: 2
# Relax obj value: 0.314
# Max RMSD: 0.245
# Mean RMSD: 0.183
data_MOF--net-tfs--node1-JUFBIX_clean_sbu_0--edge1-EZIPEK_clean_linker_0
_symmetry_space_group_name_H-M    P1
_symmetry_Int_Tables_number       1
_symmetry_cell_setting            triclinic
loop_
_symmetry_equiv_pos_as_xyz
'x, y, z'
_cell_length_a     32.235123
_cell_length_b     36.037187
_cell_length_c     10.883534
_cell_angle_alpha  90.581129
_cell_angle_beta   92.398494
_cell_angle_gamma 110.36158
loop_
_atom_site_label
_atom_site_type_symbol
_atom_site_fract_x
_atom_site_fract_y
_atom_site_fract_z
_atom_type_partial_charge
Co0 Co 0.27006 0.4076 0.06032 0.0
C1 C 0.22775 0.38771 0.28735 0.0
Co2 Co 0.19836 0.37173 0.04773 0.0
C3 C 0.35395 0.47237 0.03711 0.0
C4 C 0.35266 0.43718 0.19494 0.0
N5 N 0.32932 0.43861 0.09022 0.0
N6 N 0.39061 0.49279 0.1077 0.0
C7 C 0.38933 0.47083 0.2077 0.0
H8 H 0.3435 0.48331 0.9534 0.0
H9 H 0.34208 0.4145 0.26285 0.0
C10 C 0.23877 0.39182 0.82085 0.0
N11 N 0.13853 0.33989 0.02148 0.0
C12 C 0.10065 0.34101 0.0686 0.0
C13 C 0.12487 0.30882 0.94063 0.0
N14 N 0.0644 0.31181 0.01954 0.0
C15 C 0.07958 0.29167 0.93911 0.0
C16 C 0.21691 0.45352 0.04988 0.0
O17 O 0.27496 0.40814 0.88452 0.0
O18 O 0.20301 0.37572 0.8748 0.0
O19 O 0.18438 0.42056 0.05151 0.0
O20 O 0.25602 0.45322 0.05133 0.0
O21 O 0.19348 0.36786 0.22192 0.0
H22 H 0.14653 0.29941 0.88471 0.0
H23 H 0.09956 0.36296 0.1358 0.0
O24 O 0.26302 0.40681 0.23507 0.0
O25 O 0.28528 0.36195 0.06723 0.0
O26 O 0.21533 0.32435 0.04263 0.0
C27 C 0.25615 0.32776 0.05295 0.0
H28 H 0.41274 0.47914 0.28621 0.0
H29 H 0.05916 0.26659 0.88238 0.0
Co30 Co 0.7858 0.23245 0.06842 0.0
C31 C 0.79964 0.27281 0.30365 0.0
Co32 Co 0.80271 0.2982 0.06841 0.0
C33 C 0.76767 0.14675 0.01054 0.0
C34 C 0.74529 0.15874 0.18386 0.0
N35 N 0.7675 0.17701 0.08604 0.0
N36 N 0.74657 0.11089 0.05902 0.0
C37 C 0.73277 0.11854 0.16782 0.0
H38 H 0.78145 0.15078 0.92058 0.0
H39 H 0.73677 0.17349 0.26063 0.0
C40 C 0.78931 0.25925 0.83467 0.0
N41 N 0.82132 0.35367 0.04904 0.0
C42 C 0.80786 0.38306 0.09134 0.0
C43 C 0.85432 0.37231 0.97439 0.0
N44 N 0.83158 0.41876 0.04545 0.0
C45 C 0.86061 0.41186 0.97206 0.0
C46 C 0.87624 0.27181 0.06611 0.0
O47 O 0.78109 0.22712 0.89275 0.0
O48 O 0.79846 0.29178 0.89448 0.0
O49 O 0.86356 0.30155 0.06955 0.0
O50 O 0.84712 0.23712 0.06535 0.0
O51 O 0.80727 0.30418 0.24256 0.0
H52 H 0.87207 0.35788 0.92116 0.0
H53 H 0.78049 0.37829 0.15083 0.0
O54 O 0.7909 0.23991 0.24523 0.0
O55 O 0.72541 0.22824 0.06957 0.0
O56 O 0.74055 0.2927 0.06777 0.0
C57 C 0.71208 0.25752 0.0683 0.0
H58 H 0.71349 0.09638 0.22937 0.0
H59 H 0.88374 0.4338 0.91731 0.0
Co60 Co 0.5797 0.76224 0.01135 0.0
C61 C 0.59704 0.79854 0.78218 0.0
Co62 Co 0.61013 0.82785 0.01835 0.0
C63 C 0.52476 0.68044 0.04895 0.0
C64 C 0.57332 0.68636 0.91491 0.0
N65 N 0.55834 0.70757 0.99334 0.0
N66 N 0.51809 0.64335 0.00693 0.0
C67 C 0.54856 0.64687 0.9229 0.0
H68 H 0.50521 0.6877 0.11751 0.0
H69 H 0.60036 0.69889 0.85489 0.0
C70 C 0.59249 0.79053 0.24868 0.0
N71 N 0.63158 0.88341 0.03715 0.0
C72 C 0.66268 0.91281 0.97952 0.0
C73 C 0.61616 0.90256 0.12117 0.0
N74 N 0.66677 0.94912 0.02551 0.0
C75 C 0.63753 0.9426 0.11416 0.0
C76 C 0.5154 0.79587 1.00171 0.0
O77 O 0.57693 0.7587 0.18439 0.0
O78 O 0.60826 0.82332 0.19455 0.0
O79 O 0.54923 0.82773 0.00775 0.0
O80 O 0.52155 0.76294 1.00191 0.0
O81 O 0.61189 0.83109 0.84381 0.0
H82 H 0.59096 0.88832 0.18463 0.0
H83 H 0.68186 0.90778 0.90603 0.0
O84 O 0.58202 0.76613 0.83786 0.0
O85 O 0.6383 0.76172 0.02204 0.0
O86 O 0.66988 0.82653 0.02739 0.0
C87 C 0.67322 0.79227 0.027 0.0
H88 H 0.55245 0.62254 0.87123 0.0
H89 H 0.63219 0.96538 0.17021 0.0
Co90 Co 0.83952 0.65709 0.03786 0.0
C91 C 0.7978 0.6367 0.2643 0.0
Co92 Co 0.76766 0.62202 0.02472 0.0
C93 C 0.93648 0.69117 1.0051 0.0
C94 C 0.91553 0.71112 0.16907 0.0
N95 N 0.89982 0.68767 0.06765 0.0
N96 N 0.97418 0.71501 0.06582 0.0
C97 C 0.96079 0.72727 0.16912 0.0
H98 H 0.93571 0.67597 0.91827 0.0
H99 H 0.89543 0.71602 0.24016 0.0
C100 C 0.81073 0.64185 0.79806 0.0
N101 N 0.70829 0.59218 0.99239 0.0
C102 C 0.68356 0.55785 0.04206 0.0
C103 C 0.68553 0.59448 0.88743 0.0
N104 N 0.64754 0.53777 0.96882 0.0
C105 C 0.64918 0.56066 0.87087 0.0
C106 C 0.7836 0.70264 0.0326 0.0
O107 O 0.84508 0.66161 0.86355 0.0
O108 O 0.77543 0.62292 0.85039 0.0
O109 O 0.75394 0.66868 0.01758 0.0
O110 O 0.82421 0.70534 0.04453 0.0
O111 O 0.76158 0.62121 0.20031 0.0
H112 H 0.69665 0.61765 0.82127 0.0
H113 H 0.69385 0.54607 0.12434 0.0
O114 O 0.83365 0.65204 0.21045 0.0
O115 O 0.85225 0.60758 0.03263 0.0
O116 O 0.78055 0.57539 0.03358 0.0
C117 C 0.81956 0.57474 0.03437 0.0
H118 H 0.98243 0.74659 0.24 0.0
H119 H 0.62658 0.55271 0.79059 0.0
Co120 Co 0.23795 0.73048 0.01726 0.0
C121 C 0.24801 0.76885 0.24844 0.0
Co122 Co 0.25237 0.79546 0.01131 0.0
C123 C 0.23175 0.64547 0.99014 0.0
C124 C 0.18585 0.65663 0.10842 0.0
N125 N 0.2191 0.67509 0.03411 0.0
N126 N 0.20737 0.60984 0.03493 0.0
C127 C 0.17868 0.61697 0.10902 0.0
H128 H 0.25905 0.65002 0.93056 0.0
H129 H 0.16831 0.67122 0.16218 0.0
C130 C 0.24285 0.75783 0.78004 0.0
N131 N 0.26796 0.85043 0.99962 0.0
C132 C 0.30079 0.88074 0.05807 0.0
C133 C 0.24735 0.86819 0.92217 0.0
N134 N 0.30111 0.91642 0.01919 0.0
C135 C 0.26757 0.90857 0.93407 0.0
C136 C 0.32735 0.77095 0.01714 0.0
O137 O 0.23514 0.72607 0.84038 0.0
O138 O 0.25118 0.79058 0.83812 0.0
O139 O 0.31409 0.8005 0.01851 0.0
O140 O 0.29901 0.73589 0.01844 0.0
O141 O 0.25286 0.79974 0.18666 0.0
H142 H 0.21951 0.85269 0.85983 0.0
H143 H 0.32416 0.87681 0.12648 0.0
O144 O 0.24181 0.73621 0.19188 0.0
O145 O 0.1771 0.72601 0.01613 0.0
O146 O 0.19048 0.78914 1.00141 0.0
C147 C 0.16243 0.7543 0.00769 0.0
H148 H 0.15524 0.59507 0.16317 0.0
H149 H 0.25859 0.93062 0.88359 0.0
Co150 Co 0.4297 0.20119 0.05578 0.0
C151 C 0.44842 0.23884 0.82563 0.0
Co152 Co 0.46112 0.26666 0.06272 0.0
C153 C 0.40715 0.11396 0.08808 0.0
C154 C 0.36992 0.13058 0.94506 0.0
N155 N 0.40267 0.14605 0.03248 0.0
N156 N 0.37822 0.07958 0.03777 0.0
C157 C 0.35501 0.09011 0.9481 0.0
H158 H 0.4306 0.11569 0.16397 0.0
H159 H 0.35722 0.14777 0.88298 0.0
C160 C 0.44283 0.22971 0.29175 0.0
N161 N 0.48497 0.32115 0.08338 0.0
C162 C 0.51766 0.34811 0.0244 0.0
C163 C 0.47151 0.34253 0.16519 0.0
N164 N 0.52513 0.38523 0.0675 0.0
C165 C 0.49622 0.38192 0.15577 0.0
C166 C 0.36875 0.24023 0.04925 0.0
O167 O 0.42756 0.1972 0.22997 0.0
O168 O 0.45831 0.26209 0.23614 0.0
O169 O 0.40404 0.27026 0.05233 0.0
O170 O 0.3714 0.20585 0.04913 0.0
O171 O 0.46439 0.27071 0.88964 0.0
H172 H 0.44515 0.33024 0.22744 0.0
H173 H 0.53563 0.34078 0.95169 0.0
O174 O 0.43214 0.20626 0.88022 0.0
O175 O 0.48918 0.19809 0.06484 0.0
O176 O 0.51787 0.2631 0.07207 0.0
C177 C 0.52335 0.22985 0.07177 0.0
H178 H 0.32883 0.06976 0.88939 0.0
H179 H 0.49311 0.40636 0.20862 0.0
C180 C 0.29828 0.24466 0.13211 0.0
C181 C 0.32595 0.24687 0.0326 0.0
C182 C 0.29825 0.294 0.9316 0.0
C183 C 0.27175 0.2938 0.03327 0.0
N184 N 0.23484 0.2584 0.207 0.0
N185 N 0.3355 0.25785 0.81767 0.0
C186 C 0.26758 0.26533 0.12573 0.0
C187 C 0.31983 0.26602 0.92519 0.0
N188 N 0.30271 0.22438 0.23396 0.0
N189 N 0.30558 0.32245 0.8452 0.0
H190 H 0.35097 0.2368 0.8123 0.0
H191 H 0.32864 0.26849 0.73334 0.0
H192 H 0.29161 0.3444 0.84711 0.0
H193 H 0.3284 0.32603 0.7772 0.0
H194 H 0.28723 0.22538 0.31539 0.0
H195 H 0.32357 0.20777 0.23754 0.0
H196 H 0.2285 0.23638 0.27211 0.0
H197 H 0.2112 0.27211 0.20019 0.0
C198 C 0.99387 0.32076 0.96242 0.0
C199 C 1.01814 0.30372 0.04004 0.0
C200 C 0.94903 0.26203 0.13048 0.0
C201 C 0.92445 0.27874 0.05045 0.0
N202 N 0.92284 0.31419 0.86454 0.0
N203 N 1.02002 0.25525 0.18691 0.0
C204 C 0.94678 0.30557 0.95955 0.0
C205 C 0.99596 0.27359 0.12137 0.0
N206 N 1.01614 0.35153 0.89072 0.0
N207 N 0.92782 0.23546 0.21579 0.0
H208 H 0.05448 0.26445 0.18541 0.0
H209 H 1.00612 0.23001 0.23782 0.0
H210 H 0.89358 0.22232 0.21524 0.0
H211 H 0.94401 0.2266 0.28824 0.0
H212 H 1.00081 0.36822 0.84144 0.0
H213 H 0.05063 0.36248 0.88886 0.0
H214 H 0.93706 0.33046 0.78901 0.0
H215 H 0.88849 0.30122 0.85391 0.0
C216 C 0.7587 0.04728 0.05686 0.0
C217 C 0.73587 0.07134 0.00755 0.0
C218 C 0.67678 1.01193 0.92312 0.0
C219 C 0.69539 0.98809 0.99244 0.0
N220 N 0.75513 0.98141 0.11771 0.0
N221 N 0.67501 0.07793 0.88679 0.0
C222 C 0.7374 1.00529 0.05446 0.0
C223 C 0.69595 0.05401 0.93544 0.0
N224 N 0.80016 0.06523 0.10968 0.0
N225 N 0.63983 0.9938 0.84912 0.0
H226 H 0.68905 0.10873 0.89314 0.0
H227 H 0.64354 0.0676 0.84368 0.0
H228 H 0.62559 0.963 0.84115 0.0
H229 H 0.6254 1.00873 0.7895 0.0
H230 H 0.82039 0.05008 0.14238 0.0
H231 H 0.8155 0.09599 0.11218 0.0
H232 H 0.78357 0.99176 0.17533 0.0
H233 H 0.74022 0.95063 0.11447 0.0
C234 C 0.77363 0.76535 0.95539 0.0
C235 C 0.76876 0.73729 0.04956 0.0
C236 C 0.72202 0.76728 0.15477 0.0
C237 C 0.71625 0.78596 0.04593 0.0
N238 N 0.73942 0.80623 0.84293 0.0
N239 N 0.73394 0.71014 0.23791 0.0
C240 C 0.74357 0.78669 0.94668 0.0
C241 C 0.7424 0.73833 0.15042 0.0
N242 N 0.80644 0.77134 0.87483 0.0
N243 N 0.70701 0.77672 0.26161 0.0
H244 H 0.7465 0.68723 0.23662 0.0
H245 H 0.71133 0.70771 0.30584 0.0
H246 H 0.69211 0.79821 0.26525 0.0
H247 H 0.71385 0.76651 0.3467 0.0
H248 H 0.81323 0.79303 0.80855 0.0
H249 H 0.82965 0.75722 0.8834 0.0
H250 H 0.75466 0.80419 0.76186 0.0
H251 H 0.71901 0.82325 0.83764 0.0
C252 C 0.08271 0.7075 0.97111 0.0
C253 C 0.11314 0.74579 0.00893 0.0
C254 C 0.04878 0.76536 0.04489 0.0
C255 C 1.02 0.72536 0.03368 0.0
N256 N 1.01334 0.65671 0.01399 0.0
N257 N 0.12174 0.80818 0.11446 0.0
C258 C 0.03789 0.69586 1.00422 0.0
C259 C 0.0954 0.77419 0.05407 0.0
N260 N 0.0956 0.68249 0.89974 0.0
N261 N 0.03162 0.79502 0.04651 0.0
H262 H 0.15502 0.81431 0.13892 0.0
H263 H 0.10889 0.82779 0.15589 0.0
H264 H 0.9977 0.78948 0.03402 0.0
H265 H 0.05141 0.82487 0.04541 0.0
H266 H 0.0734 0.65565 0.86383 0.0
H267 H 0.12652 0.69077 0.86235 0.0
H268 H 0.02677 0.63444 1.00364 0.0
H269 H 0.9815 0.64677 0.04645 0.0
C270 C 0.36841 0.97417 0.98786 0.0
C271 C 0.33052 0.95573 0.05599 0.0
C272 C 0.33766 0.02 0.15055 0.0
C273 C 0.37092 0.03894 0.06814 0.0
N274 N 0.42202 0.0358 0.91884 0.0
N275 N 0.28149 0.95865 0.2119 0.0
C276 C 0.38824 0.01632 0.99198 0.0
C277 C 0.31652 0.97798 0.14255 0.0
N278 N 0.38409 0.95105 0.91657 0.0
N279 N 0.32549 0.04281 0.2325 0.0
H280 H 0.2666 0.92786 0.20821 0.0
H281 H 0.26694 0.97251 0.27209 0.0
H282 H 0.34078 0.07354 0.23792 0.0
H283 H 0.30229 0.03173 0.29864 0.0
H284 H 0.4125 0.96168 0.86681 0.0
H285 H 0.36941 0.92026 0.91245 0.0
H286 H 0.43483 0.02215 0.85328 0.0
H287 H 0.43728 0.06655 0.92406 0.0
C288 C 0.18365 0.5415 0.94912 0.0
C289 C 0.21331 0.57208 0.02584 0.0
C290 C 0.23937 0.52373 0.12968 0.0
C291 C 0.21171 0.49313 0.04745 0.0
N292 N 0.16381 0.47486 0.86324 0.0
N293 N 0.27381 0.59414 0.17621 0.0
C294 C 0.18532 0.50245 0.95303 0.0
C295 C 0.24268 0.56366 0.11159 0.0
N296 N 0.15331 0.54993 0.87391 0.0
N297 N 0.26123 0.5145 0.22856 0.0
H298 H 0.27597 0.62354 0.16795 0.0
H299 H 0.29977 0.59089 0.2299 0.0
H300 H 0.26039 0.48594 0.24618 0.0
H301 H 0.27743 0.53455 0.29949 0.0
H302 H 0.12716 0.52836 0.82607 0.0
H303 H 0.15303 0.57866 0.86509 0.0
H304 H 0.14819 0.48131 0.78488 0.0
H305 H 0.16452 0.44619 0.86128 0.0
C306 C 0.5871 0.21093 0.99586 0.0
C307 C 0.57 0.23004 0.08513 0.0
C308 C 0.64597 0.26296 0.17439 0.0
C309 C 0.66333 0.24948 0.07221 0.0
N310 N 0.65015 0.21296 0.87874 0.0
N311 N 0.58306 0.27231 0.26678 0.0
C312 C 0.63376 0.22391 0.98144 0.0
C313 C 0.59955 0.25554 0.17644 0.0
N314 N 0.5592 0.17954 0.92732 0.0
N315 N 0.67353 0.28072 0.27318 0.0
H316 H 0.54932 0.26345 0.28237 0.0
H317 H 0.60264 0.29563 0.32435 0.0
H318 H 0.70723 0.2853 0.27606 0.0
H319 H 0.66268 0.28751 0.35636 0.0
H320 H 0.57019 0.16229 0.8686 0.0
H321 H 0.52541 0.16741 0.94023 0.0
H322 H 0.63026 0.19843 0.80262 0.0
H323 H 0.68392 0.22144 0.86451 0.0
C324 C 0.49952 0.57785 0.09961 0.0
C325 C 0.48546 0.60691 0.04307 0.0
C326 C 0.40835 0.5633 0.0531 0.0
C327 C 0.42267 0.53164 0.08778 0.0
N328 N 0.48299 0.5079 0.13255 0.0
N329 N 0.42688 0.62571 0.94981 0.0
C330 C 0.46869 0.53875 0.10892 0.0
C331 C 0.43993 0.59926 0.01544 0.0
N332 N 0.54236 0.58795 0.1441 0.0
N333 N 0.36517 0.56004 0.06357 0.0
H334 H 0.44926 0.65208 0.91876 0.0
H335 H 0.3943 0.61971 0.91694 0.0
H336 H 0.342 0.5357 0.10248 0.0
H337 H 0.35385 0.58349 0.04856 0.0
H338 H 0.5542 0.56919 0.19536 0.0
H339 H 0.56516 0.61668 0.13957 0.0
H340 H 0.51596 0.51104 0.15105 0.0
H341 H 0.46245 0.4784 0.12114 0.0
C342 C 0.79838 0.50468 0.9516 0.0
C343 C 0.82479 0.53502 0.03652 0.0
C344 C 0.8534 0.48677 0.13416 0.0
C345 C 0.82503 0.45636 0.05439 0.0
N346 N 0.76628 0.43441 0.89896 0.0
N347 N 0.87122 0.55281 0.2234 0.0
C348 C 0.7961 0.46483 0.96715 0.0
C349 C 0.85083 0.52556 0.1317 0.0
N350 N 0.7768 0.51416 0.85263 0.0
N351 N 0.88347 0.47848 0.21081 0.0
H352 H 0.86986 0.58127 0.22622 0.0
H353 H 0.88649 0.54625 0.30222 0.0
H354 H 0.88442 0.44993 0.21826 0.0
H355 H 0.90882 0.50004 0.26123 0.0
H356 H 0.76165 0.49456 0.77973 0.0
H357 H 0.77658 0.54255 0.83767 0.0
H358 H 0.74067 0.43745 0.84324 0.0
H359 H 0.76486 0.40517 0.90597 0.0
C360 C 0.39162 0.76225 0.90857 0.0
C361 C 0.37573 0.77784 0.00967 0.0
C362 C 0.45256 0.81584 0.0797 0.0
C363 C 0.4686 0.79559 0.99099 0.0
N364 N 0.45341 0.75129 0.81377 0.0
N365 N 0.39134 0.81315 0.20471 0.0
C366 C 0.43798 0.76927 0.90338 0.0
C367 C 0.40632 0.80308 0.0984 0.0
N368 N 0.36274 0.74215 0.81471 0.0
N369 N 0.48091 0.8479 0.14438 0.0
H370 H 0.35799 0.80224 0.22457 0.0
H371 H 0.41223 0.82815 0.27866 0.0
H372 H 0.51441 0.86007 0.12848 0.0
H373 H 0.47023 0.86557 0.20239 0.0
H374 H 0.37258 0.73412 0.73172 0.0
H375 H 0.32867 0.73586 0.81516 0.0
H376 H 0.43328 0.72737 0.75931 0.0
H377 H 0.4869 0.75988 0.79535 0.0
C378 C 0.6326 0.46716 0.01597 0.0
C379 C 0.61668 0.49806 0.98356 0.0
C380 C 0.54087 0.44986 0.97145 0.0
C381 C 0.55652 0.42167 0.02738 0.0
N382 N 0.61684 0.40448 0.11621 0.0
N383 N 0.55461 0.51937 0.93722 0.0
C384 C 0.60233 0.43049 0.05293 0.0
C385 C 0.57041 0.48947 0.96162 0.0
N386 N 0.67614 0.47196 1.00424 0.0
N387 N 0.49767 0.43846 0.92912 0.0
H388 H 0.57406 0.54917 0.94823 0.0
H389 H 0.52141 0.51515 0.91785 0.0
H390 H 0.47586 0.40937 0.9348 0.0
H391 H 0.48448 0.45649 0.87879 0.0
H392 H 0.68871 0.44923 0.01779 0.0
H393 H 0.69832 0.49695 0.96557 0.0
H394 H 0.64965 0.41131 0.14814 0.0
H395 H 0.59542 0.37742 0.14574 0.0
C396 C 0.23195 0.35535 0.61832 0.0
C397 C 0.23696 0.39101 0.68423 0.0
C398 C 0.22488 0.42064 0.49017 0.0
C399 C 0.22794 0.38768 0.42392 0.0
N400 N 0.24291 0.32668 0.42614 0.0
N401 N 0.24167 0.4593 0.68143 0.0
C402 C 0.23397 0.35587 0.48834 0.0
C403 C 0.2348 0.42434 0.61954 0.0
N404 N 0.22344 0.3206 0.67843 0.0
N405 N 0.21022 0.4472 0.43058 0.0
H406 H 0.24796 0.46277 0.77645 0.0
H407 H 0.24447 0.48552 0.63731 0.0
H408 H 0.19965 0.4434 0.33788 0.0
H409 H 0.20382 0.47016 0.47549 0.0
H410 H 0.21568 0.29332 0.63257 0.0
H411 H 0.21959 0.31841 0.77295 0.0
H412 H 0.25173 0.30476 0.47017 0.0
H413 H 0.24581 0.32686 0.33119 0.0
C414 C 0.76712 0.28147 0.6332 0.0
C415 C 0.7906 0.26041 0.69815 0.0
C416 C 0.82368 0.25101 0.50618 0.0
C417 C 0.80137 0.27345 0.44197 0.0
N418 N 0.76382 0.32106 0.45845 0.0
N419 N 0.84797 0.2316 0.70139 0.0
C420 C 0.77676 0.29208 0.50937 0.0
C421 C 0.82047 0.24658 0.63589 0.0
N422 N 0.73433 0.29036 0.68871 0.0
N423 N 0.84945 0.23505 0.44333 0.0
H424 H 0.8472 0.22802 0.79617 0.0
H425 H 0.87416 0.2255 0.66399 0.0
H426 H 0.85921 0.24374 0.35518 0.0
H427 H 0.86074 0.21323 0.4777 0.0
H428 H 0.71249 0.30136 0.64139 0.0
H429 H 0.72589 0.28298 0.77895 0.0
H430 H 0.75009 0.33824 0.50896 0.0
H431 H 0.77096 0.33142 0.3704 0.0
C432 C 0.61806 0.77475 0.58555 0.0
C433 C 0.59644 0.79749 0.64587 0.0
C434 C 0.57013 0.81392 0.44596 0.0
C435 C 0.59074 0.79013 0.38554 0.0
N436 N 0.62407 0.73949 0.40115 0.0
N437 N 0.54464 0.83225 0.63636 0.0
C438 C 0.61143 0.76786 0.45619 0.0
C439 C 0.57072 0.8156 0.5769 0.0
N440 N 0.64665 0.76108 0.6513 0.0
N441 N 0.54876 0.834 0.37779 0.0
H442 H 0.54362 0.83361 0.73185 0.0
H443 H 0.52126 0.84197 0.59181 0.0
H444 H 0.5417 0.82874 0.28373 0.0
H445 H 0.53886 0.85634 0.41352 0.0
H446 H 0.66755 0.74857 0.61063 0.0
H447 H 0.65271 0.7656 0.74608 0.0
H448 H 0.634 0.71913 0.45039 0.0
H449 H 0.62168 0.73394 0.30672 0.0
C450 C 0.80417 0.67343 0.59665 0.0
C451 C 0.8103 0.64171 0.66133 0.0
C452 C 0.80181 0.60439 0.46612 0.0
C453 C 0.79972 0.63768 0.40103 0.0
N454 N 0.81444 0.7083 0.40592 0.0
N455 N 0.82696 0.58168 0.6546 0.0
C456 C 0.80559 0.6736 0.46654 0.0
C457 C 0.81249 0.60839 0.5952 0.0
N458 N 0.79564 0.70285 0.65872 0.0
N459 N 0.79413 0.56919 0.40484 0.0
H460 H 0.83792 0.58558 0.74702 0.0
H461 H 0.83275 0.55841 0.60969 0.0
H462 H 0.78714 0.5655 0.3101 0.0
H463 H 0.79131 0.54303 0.44935 0.0
H464 H 0.78684 0.72476 0.61455 0.0
H465 H 0.79295 0.70281 0.75372 0.0
H466 H 0.82273 0.73569 0.45147 0.0
H467 H 0.81815 0.71028 0.31132 0.0
C468 C 0.28152 0.79338 0.46168 0.0
C469 C 0.24551 0.769 0.38487 0.0
C470 C 0.20821 0.7349 0.56615 0.0
C471 C 0.24484 0.75848 0.6431 0.0
N472 N 0.32036 0.80411 0.66148 0.0
N473 N 0.16956 0.72523 0.36567 0.0
C474 C 0.28246 0.78628 0.59008 0.0
C475 C 0.20759 0.74187 0.4376 0.0
N476 N 0.31408 0.82436 0.41328 0.0
N477 N 0.17421 0.70536 0.61498 0.0
H478 H 0.16699 0.73187 0.27327 0.0
H479 H 0.13916 0.70846 0.39931 0.0
H480 H 0.17229 0.69999 0.70834 0.0
H481 H 0.14952 0.68392 0.56236 0.0
H482 H 0.33836 0.84602 0.46635 0.0
H483 H 0.31462 0.83107 0.32059 0.0
H484 H 0.3506 0.82069 0.62643 0.0
H485 H 0.32317 0.79914 0.75503 0.0
C486 C 0.46837 0.21329 0.6282 0.0
C487 C 0.44987 0.23878 0.6886 0.0
C488 C 0.42329 0.25484 0.48842 0.0
C489 C 0.44343 0.23084 0.42815 0.0
N490 N 0.49273 0.19359 0.43819 0.0
N491 N 0.41922 0.29126 0.6722 0.0
C492 C 0.4678 0.21152 0.4973 0.0
C493 C 0.43042 0.26196 0.61765 0.0
N494 N 0.48754 0.19137 0.6961 0.0
N495 N 0.39556 0.26951 0.42279 0.0
H496 H 0.42171 0.29696 0.76653 0.0
H497 H 0.41039 0.31217 0.62258 0.0
H498 H 0.38911 0.26483 0.32819 0.0
H499 H 0.3756 0.28303 0.46349 0.0
H500 H 0.49549 0.16799 0.65973 0.0
H501 H 0.49447 0.19592 0.79036 0.0
H502 H 0.51541 0.1831 0.48318 0.0
H503 H 0.49375 0.19202 0.34275 0.0
loop_
_geom_bond_atom_site_label_1
_geom_bond_atom_site_label_2
_geom_bond_distance
_geom_bond_site_symmetry_2
_ccdc_geom_bond_type
Co0 N5 2.057 . S
Co0 O17 2.021 1_554 S
Co0 O20 2.062 1_554 S
Co0 O24 2.117 . S
Co0 O25 2.020 . S
C1 O21 1.259 . S
C1 O24 1.258 . S
Co2 N11 2.057 1_554 S
Co2 O18 2.117 1_554 S
Co2 O19 2.020 . S
Co2 O21 2.021 . S
Co2 O26 2.062 . S
C3 N5 1.316 1_556 S
C3 N6 1.347 1_556 S
C3 H8 0.931 . S
C4 N5 1.375 . S
C4 C7 1.350 . S
C4 H9 0.930 . S
N5 Co0 2.057 . S
N5 C3 1.316 1_554 S
N5 C4 1.375 . S
N6 C3 1.347 1_554 S
N6 C7 1.373 . S
C7 C4 1.350 . S
C7 N6 1.373 . S
C7 H28 0.931 . S
H8 C3 0.931 . S
H9 C4 0.930 . S
C10 O17 1.259 . S
C10 O18 1.258 . S
N11 Co2 2.057 1_556 S
N11 C12 1.316 1_556 S
N11 C13 1.375 . S
C12 N11 1.316 1_554 S
C12 N14 1.347 1_554 S
C12 H23 0.931 . S
C13 N11 1.375 . S
C13 C15 1.350 . S
C13 H22 0.930 . S
N14 C12 1.347 1_556 S
N14 C15 1.373 . S
C15 C13 1.350 . S
C15 N14 1.373 . S
C15 H29 0.931 . S
C16 O19 1.256 . S
C16 O20 1.255 1_554 S
O17 Co0 2.021 1_556 S
O17 C10 1.259 . S
O18 Co2 2.117 1_556 S
O18 C10 1.258 . S
O19 Co2 2.020 . S
O19 C16 1.256 . S
O20 Co0 2.062 1_556 S
O20 C16 1.255 1_556 S
O21 C1 1.259 . S
O21 Co2 2.021 . S
H22 C13 0.930 . S
H23 C12 0.931 . S
O24 Co0 2.117 . S
O24 C1 1.258 . S
O25 Co0 2.020 . S
O25 C27 1.256 . S
O26 Co2 2.062 . S
O26 C27 1.255 . S
C27 O25 1.256 . S
C27 O26 1.255 . S
H28 C7 0.931 . S
H29 C15 0.931 . S
Co30 N35 2.057 . S
Co30 O47 2.021 1_554 S
Co30 O50 2.062 . S
Co30 O54 2.117 . S
Co30 O55 2.020 . S
C31 O51 1.259 . S
C31 O54 1.258 . S
Co32 N41 2.057 . S
Co32 O48 2.117 1_554 S
Co32 O49 2.020 . S
Co32 O51 2.021 . S
Co32 O56 2.062 . S
C33 N35 1.316 1_556 S
C33 N36 1.347 1_556 S
C33 H38 0.931 . S
C34 N35 1.375 . S
C34 C37 1.350 . S
C34 H39 0.930 . S
N35 Co30 2.057 . S
N35 C33 1.316 1_554 S
N35 C34 1.375 . S
N36 C33 1.347 1_554 S
N36 C37 1.373 . S
C37 C34 1.350 . S
C37 N36 1.373 . S
C37 H58 0.931 . S
H38 C33 0.931 . S
H39 C34 0.930 . S
C40 O47 1.259 . S
C40 O48 1.258 . S
N41 Co32 2.057 . S
N41 C42 1.316 . S
N41 C43 1.375 1_554 S
C42 N41 1.316 . S
C42 N44 1.347 . S
C42 H53 0.931 . S
C43 N41 1.375 1_556 S
C43 C45 1.350 . S
C43 H52 0.930 . S
N44 C42 1.347 . S
N44 C45 1.373 1_554 S
C45 C43 1.350 . S
C45 N44 1.373 1_556 S
C45 H59 0.931 . S
C46 O49 1.256 . S
C46 O50 1.255 . S
O47 Co30 2.021 1_556 S
O47 C40 1.259 . S
O48 Co32 2.117 1_556 S
O48 C40 1.258 . S
O49 Co32 2.020 . S
O49 C46 1.256 . S
O50 Co30 2.062 . S
O50 C46 1.255 . S
O51 C31 1.259 . S
O51 Co32 2.021 . S
H52 C43 0.930 . S
H53 C42 0.931 . S
O54 Co30 2.117 . S
O54 C31 1.258 . S
O55 Co30 2.020 . S
O55 C57 1.256 . S
O56 Co32 2.062 . S
O56 C57 1.255 . S
C57 O55 1.256 . S
C57 O56 1.255 . S
H58 C37 0.931 . S
H59 C45 0.931 . S
Co60 N65 2.057 1_554 S
Co60 O77 2.021 . S
Co60 O80 2.062 . S
Co60 O84 2.117 1_554 S
Co60 O85 2.020 . S
C61 O81 1.259 . S
C61 O84 1.258 . S
Co62 N71 2.057 1_556 S
Co62 O78 2.117 1_556 S
Co62 O79 2.020 . S
Co62 O81 2.021 . S
Co62 O86 2.062 . S
C63 N65 1.316 1_554 S
C63 N66 1.347 1_554 S
C63 H68 0.931 . S
C64 N65 1.375 . S
C64 C67 1.350 . S
C64 H69 0.930 . S
N65 Co60 2.057 1_556 S
N65 C63 1.316 1_556 S
N65 C64 1.375 . S
N66 C63 1.347 1_556 S
N66 C67 1.373 . S
C67 C64 1.350 . S
C67 N66 1.373 . S
C67 H88 0.931 . S
H68 C63 0.931 . S
H69 C64 0.930 . S
C70 O77 1.259 . S
C70 O78 1.258 . S
N71 Co62 2.057 1_554 S
N71 C72 1.316 1_554 S
N71 C73 1.375 . S
C72 N71 1.316 1_556 S
C72 N74 1.347 1_556 S
C72 H83 0.931 . S
C73 N71 1.375 . S
C73 C75 1.350 . S
C73 H82 0.930 . S
N74 C72 1.347 1_554 S
N74 C75 1.373 . S
C75 C73 1.350 . S
C75 N74 1.373 . S
C75 H89 0.931 . S
C76 O79 1.256 1_554 S
C76 O80 1.255 . S
O77 Co60 2.021 . S
O77 C70 1.259 . S
O78 Co62 2.117 1_554 S
O78 C70 1.258 . S
O79 Co62 2.020 . S
O79 C76 1.256 1_556 S
O80 Co60 2.062 . S
O80 C76 1.255 . S
O81 C61 1.259 . S
O81 Co62 2.021 . S
H82 C73 0.930 . S
H83 C72 0.931 . S
O84 Co60 2.117 1_556 S
O84 C61 1.258 . S
O85 Co60 2.020 . S
O85 C87 1.255 1_554 S
O86 Co62 2.062 . S
O86 C87 1.255 . S
C87 O85 1.255 1_556 S
C87 O86 1.255 . S
H88 C67 0.931 . S
H89 C75 0.931 . S
Co90 N95 2.057 . S
Co90 O107 2.021 1_554 S
Co90 O110 2.062 . S
Co90 O114 2.117 . S
Co90 O115 2.020 . S
C91 O111 1.259 . S
C91 O114 1.258 . S
Co92 N101 2.057 . S
Co92 O108 2.117 1_554 S
Co92 O109 2.020 . S
Co92 O111 2.021 . S
Co92 O116 2.062 . S
C93 N95 1.316 . S
C93 N96 1.347 . S
C93 H98 0.931 1_554 S
C94 N95 1.375 . S
C94 C97 1.350 . S
C94 H99 0.930 . S
N95 Co90 2.057 . S
N95 C93 1.316 . S
N95 C94 1.375 . S
N96 C93 1.347 . S
N96 C97 1.373 . S
C97 C94 1.350 . S
C97 N96 1.373 . S
C97 H118 0.931 . S
H98 C93 0.931 1_556 S
H99 C94 0.930 . S
C100 O107 1.259 . S
C100 O108 1.258 . S
N101 Co92 2.057 . S
N101 C102 1.316 . S
N101 C103 1.375 1_554 S
C102 N101 1.316 . S
C102 N104 1.347 . S
C102 H113 0.931 . S
C103 N101 1.375 1_556 S
C103 C105 1.350 . S
C103 H112 0.930 . S
N104 C102 1.347 . S
N104 C105 1.373 1_554 S
C105 C103 1.350 . S
C105 N104 1.373 1_556 S
C105 H119 0.931 . S
C106 O109 1.256 . S
C106 O110 1.255 . S
O107 Co90 2.021 1_556 S
O107 C100 1.259 . S
O108 Co92 2.117 1_556 S
O108 C100 1.258 . S
O109 Co92 2.020 . S
O109 C106 1.256 . S
O110 Co90 2.062 . S
O110 C106 1.255 . S
O111 C91 1.259 . S
O111 Co92 2.021 . S
H112 C103 0.930 . S
H113 C102 0.931 . S
O114 Co90 2.117 . S
O114 C91 1.258 . S
O115 Co90 2.020 . S
O115 C117 1.256 . S
O116 Co92 2.062 . S
O116 C117 1.255 . S
C117 O115 1.256 . S
C117 O116 1.255 . S
H118 C97 0.931 . S
H119 C105 0.931 . S
Co120 N125 2.057 . S
Co120 O137 2.020 1_554 S
Co120 O140 2.062 1_554 S
Co120 O144 2.117 . S
Co120 O145 2.020 . S
C121 O141 1.259 . S
C121 O144 1.258 . S
Co122 N131 2.057 1_554 S
Co122 O138 2.117 1_554 S
Co122 O139 2.020 . S
Co122 O141 2.021 . S
Co122 O146 2.062 . S
C123 N125 1.316 1_556 S
C123 N126 1.347 1_556 S
C123 H128 0.931 . S
C124 N125 1.375 . S
C124 C127 1.350 . S
C124 H129 0.930 . S
N125 Co120 2.057 . S
N125 C123 1.316 1_554 S
N125 C124 1.375 . S
N126 C123 1.347 1_554 S
N126 C127 1.373 . S
C127 C124 1.350 . S
C127 N126 1.373 . S
C127 H148 0.931 . S
H128 C123 0.931 . S
H129 C124 0.930 . S
C130 O137 1.259 . S
C130 O138 1.258 . S
N131 Co122 2.057 1_556 S
N131 C132 1.316 1_556 S
N131 C133 1.375 . S
C132 N131 1.316 1_554 S
C132 N134 1.347 . S
C132 H143 0.931 . S
C133 N131 1.375 . S
C133 C135 1.350 . S
C133 H142 0.930 . S
N134 C132 1.347 . S
N134 C135 1.373 1_554 S
C135 C133 1.350 . S
C135 N134 1.373 1_556 S
C135 H149 0.931 . S
C136 O139 1.256 . S
C136 O140 1.255 1_554 S
O137 Co120 2.020 1_556 S
O137 C130 1.259 . S
O138 Co122 2.117 1_556 S
O138 C130 1.258 . S
O139 Co122 2.020 . S
O139 C136 1.256 . S
O140 Co120 2.062 1_556 S
O140 C136 1.255 1_556 S
O141 C121 1.259 . S
O141 Co122 2.021 . S
H142 C133 0.930 . S
H143 C132 0.931 . S
O144 Co120 2.117 . S
O144 C121 1.258 . S
O145 Co120 2.020 . S
O145 C147 1.256 . S
O146 Co122 2.062 . S
O146 C147 1.255 . S
C147 O145 1.256 . S
C147 O146 1.255 . S
H148 C127 0.931 . S
H149 C135 0.931 . S
Co150 N155 2.057 . S
Co150 O167 2.021 . S
Co150 O170 2.062 . S
Co150 O174 2.117 1_554 S
Co150 O175 2.020 . S
C151 O171 1.259 . S
C151 O174 1.258 . S
Co152 N161 2.057 . S
Co152 O168 2.117 . S
Co152 O169 2.020 . S
Co152 O171 2.021 1_554 S
Co152 O176 2.062 . S
C153 N155 1.316 . S
C153 N156 1.347 . S
C153 H158 0.931 . S
C154 N155 1.375 1_556 S
C154 C157 1.350 . S
C154 H159 0.930 . S
N155 Co150 2.057 . S
N155 C153 1.316 . S
N155 C154 1.375 1_554 S
N156 C153 1.347 . S
N156 C157 1.373 1_554 S
C157 C154 1.350 . S
C157 N156 1.373 1_556 S
C157 H178 0.931 . S
H158 C153 0.931 . S
H159 C154 0.930 . S
C160 O167 1.259 . S
C160 O168 1.258 . S
N161 Co152 2.057 . S
N161 C162 1.316 . S
N161 C163 1.375 . S
C162 N161 1.316 . S
C162 N164 1.347 . S
C162 H173 0.931 1_554 S
C163 N161 1.375 . S
C163 C165 1.350 . S
C163 H172 0.930 . S
N164 C162 1.347 . S
N164 C165 1.373 . S
C165 C163 1.350 . S
C165 N164 1.373 . S
C165 H179 0.931 . S
C166 O169 1.256 . S
C166 O170 1.255 . S
O167 Co150 2.021 . S
O167 C160 1.259 . S
O168 Co152 2.117 . S
O168 C160 1.258 . S
O169 Co152 2.020 . S
O169 C166 1.256 . S
O170 Co150 2.062 . S
O170 C166 1.255 . S
O171 C151 1.259 . S
O171 Co152 2.021 1_556 S
H172 C163 0.930 . S
H173 C162 0.931 1_556 S
O174 Co150 2.117 1_556 S
O174 C151 1.258 . S
O175 Co150 2.020 . S
O175 C177 1.256 . S
O176 Co152 2.062 . S
O176 C177 1.255 . S
C177 O175 1.256 . S
C177 O176 1.255 . S
H178 C157 0.931 . S
H179 C165 0.931 . S
C180 C181 1.363 . S
C180 C186 1.379 . S
C180 N188 1.356 . S
C181 C180 1.363 . S
C181 C187 1.363 1_554 S
C182 C183 1.363 1_556 S
C182 C187 1.379 . S
C182 N189 1.356 . S
C183 C182 1.363 1_554 S
C183 C186 1.363 . S
N184 C186 1.356 . S
N184 H196 0.984 . S
N184 H197 0.985 . S
N185 C187 1.356 . S
N185 H190 0.984 . S
N185 H191 0.985 . S
C186 C180 1.379 . S
C186 C183 1.363 . S
C186 N184 1.356 . S
C187 C181 1.363 1_556 S
C187 C182 1.379 . S
C187 N185 1.356 . S
N188 C180 1.356 . S
N188 H194 0.984 . S
N188 H195 0.984 . S
N189 C182 1.356 . S
N189 H192 0.984 . S
N189 H193 0.985 . S
H190 N185 0.984 . S
H191 N185 0.985 . S
H192 N189 0.984 . S
H193 N189 0.985 . S
H194 N188 0.984 . S
H195 N188 0.984 . S
H196 N184 0.984 . S
H197 N184 0.985 . S
C198 C199 1.363 . S
C198 C204 1.379 . S
C198 N206 1.356 1_655 S
C199 C198 1.363 . S
C199 C205 1.363 . S
C200 C201 1.363 . S
C200 C205 1.379 . S
C200 N207 1.356 . S
C201 C200 1.363 . S
C201 C204 1.363 . S
N202 C204 1.356 . S
N202 H214 0.984 . S
N202 H215 0.985 . S
N203 C205 1.356 . S
N203 H208 0.984 . S
N203 H209 0.985 . S
C204 C198 1.379 . S
C204 C201 1.363 . S
C204 N202 1.356 . S
C205 C199 1.363 . S
C205 C200 1.379 . S
C205 N203 1.356 . S
N206 C198 1.356 1_455 S
N206 H212 0.984 . S
N206 H213 0.984 . S
N207 C200 1.356 . S
N207 H210 0.984 . S
N207 H211 0.985 . S
H208 N203 0.984 . S
H209 N203 0.985 . S
H210 N207 0.984 . S
H211 N207 0.985 . S
H212 N206 0.984 . S
H213 N206 0.984 . S
H214 N202 0.984 . S
H215 N202 0.985 . S
C216 C217 1.363 . S
C216 C222 1.379 1_545 S
C216 N224 1.356 . S
C217 C216 1.363 . S
C217 C223 1.363 1_554 S
C218 C219 1.363 1_556 S
C218 C223 1.379 1_565 S
C218 N225 1.356 . S
C219 C218 1.363 1_554 S
C219 C222 1.363 . S
N220 C222 1.356 . S
N220 H232 0.984 . S
N220 H233 0.985 . S
N221 C223 1.356 . S
N221 H226 0.984 . S
N221 H227 0.985 . S
C222 C216 1.379 1_565 S
C222 C219 1.363 . S
C222 N220 1.356 . S
C223 C217 1.363 1_556 S
C223 C218 1.379 1_545 S
C223 N221 1.356 . S
N224 C216 1.356 . S
N224 H230 0.984 . S
N224 H231 0.984 . S
N225 C218 1.356 . S
N225 H228 0.984 . S
N225 H229 0.985 . S
H226 N221 0.984 . S
H227 N221 0.985 . S
H228 N225 0.984 . S
H229 N225 0.985 . S
H230 N224 0.984 . S
H231 N224 0.984 . S
H232 N220 0.984 . S
H233 N220 0.985 . S
C234 C235 1.363 1_556 S
C234 C240 1.379 . S
C234 N242 1.356 . S
C235 C234 1.363 1_554 S
C235 C241 1.363 . S
C236 C237 1.363 . S
C236 C241 1.379 . S
C236 N243 1.356 . S
C237 C236 1.363 . S
C237 C240 1.363 1_554 S
N238 C240 1.356 . S
N238 H250 0.984 . S
N238 H251 0.985 . S
N239 C241 1.356 . S
N239 H244 0.984 . S
N239 H245 0.985 . S
C240 C234 1.379 . S
C240 C237 1.363 1_556 S
C240 N238 1.356 . S
C241 C235 1.363 . S
C241 C236 1.379 . S
C241 N239 1.356 . S
N242 C234 1.356 . S
N242 H248 0.984 . S
N242 H249 0.984 . S
N243 C236 1.356 . S
N243 H246 0.984 . S
N243 H247 0.985 . S
H244 N239 0.984 . S
H245 N239 0.985 . S
H246 N243 0.984 . S
H247 N243 0.985 . S
H248 N242 0.984 . S
H249 N242 0.984 . S
H250 N238 0.984 . S
H251 N238 0.985 . S
C252 C253 1.363 1_556 S
C252 C258 1.379 . S
C252 N260 1.356 . S
C253 C252 1.363 1_554 S
C253 C259 1.363 . S
C254 C255 1.363 . S
C254 C259 1.379 . S
C254 N261 1.356 . S
C255 C254 1.363 . S
C255 C258 1.363 1_554 S
N256 C258 1.356 1_655 S
N256 H268 0.984 . S
N256 H269 0.985 . S
N257 C259 1.356 . S
N257 H262 0.984 . S
N257 H263 0.985 . S
C258 C252 1.379 . S
C258 C255 1.363 1_556 S
C258 N256 1.356 1_455 S
C259 C253 1.363 . S
C259 C254 1.379 . S
C259 N257 1.356 . S
N260 C252 1.356 . S
N260 H266 0.984 . S
N260 H267 0.984 . S
N261 C254 1.356 . S
N261 H264 0.984 . S
N261 H265 0.985 . S
H262 N257 0.984 . S
H263 N257 0.985 . S
H264 N261 0.984 . S
H265 N261 0.985 . S
H266 N260 0.984 . S
H267 N260 0.984 . S
H268 N256 0.984 . S
H269 N256 0.985 . S
C270 C271 1.363 1_556 S
C270 C276 1.379 1_565 S
C270 N278 1.356 . S
C271 C270 1.363 1_554 S
C271 C277 1.363 . S
C272 C273 1.363 . S
C272 C277 1.379 1_545 S
C272 N279 1.356 . S
C273 C272 1.363 . S
C273 C276 1.363 1_554 S
N274 C276 1.356 . S
N274 H286 0.984 . S
N274 H287 0.985 . S
N275 C277 1.356 . S
N275 H280 0.984 . S
N275 H281 0.985 . S
C276 C270 1.379 1_545 S
C276 C273 1.363 1_556 S
C276 N274 1.356 . S
C277 C271 1.363 . S
C277 C272 1.379 1_565 S
C277 N275 1.356 . S
N278 C270 1.356 . S
N278 H284 0.984 . S
N278 H285 0.984 . S
N279 C272 1.356 . S
N279 H282 0.984 . S
N279 H283 0.985 . S
H280 N275 0.984 . S
H281 N275 0.985 . S
H282 N279 0.984 . S
H283 N279 0.985 . S
H284 N278 0.984 . S
H285 N278 0.984 . S
H286 N274 0.984 . S
H287 N274 0.985 . S
C288 C289 1.363 . S
C288 C294 1.379 . S
C288 N296 1.356 . S
C289 C288 1.363 . S
C289 C295 1.363 1_556 S
C290 C291 1.367 . S
C290 C295 1.379 . S
C290 N297 1.356 . S
C291 C290 1.367 . S
C291 C294 1.359 1_554 S
N292 C294 1.356 . S
N292 H304 0.984 . S
N292 H305 0.985 . S
N293 C295 1.356 . S
N293 H298 0.984 . S
N293 H299 0.985 . S
C294 C288 1.379 . S
C294 C291 1.359 1_556 S
C294 N292 1.356 . S
C295 C289 1.363 1_554 S
C295 C290 1.379 . S
C295 N293 1.356 . S
N296 C288 1.356 . S
N296 H302 0.984 . S
N296 H303 0.984 . S
N297 C290 1.356 . S
N297 H300 0.984 . S
N297 H301 0.985 . S
H298 N293 0.984 . S
H299 N293 0.985 . S
H300 N297 0.984 . S
H301 N297 0.985 . S
H302 N296 0.984 . S
H303 N296 0.984 . S
H304 N292 0.984 . S
H305 N292 0.985 . S
C306 C307 1.363 1_556 S
C306 C312 1.379 . S
C306 N314 1.356 . S
C307 C306 1.363 1_554 S
C307 C313 1.363 . S
C308 C309 1.363 . S
C308 C313 1.379 . S
C308 N315 1.356 . S
C309 C308 1.363 . S
C309 C312 1.363 1_554 S
N310 C312 1.356 . S
N310 H322 0.984 . S
N310 H323 0.985 . S
N311 C313 1.356 . S
N311 H316 0.984 . S
N311 H317 0.985 . S
C312 C306 1.379 . S
C312 C309 1.363 1_556 S
C312 N310 1.356 . S
C313 C307 1.363 . S
C313 C308 1.379 . S
C313 N311 1.356 . S
N314 C306 1.356 . S
N314 H320 0.984 . S
N314 H321 0.984 . S
N315 C308 1.356 . S
N315 H318 0.984 . S
N315 H319 0.985 . S
H316 N311 0.984 . S
H317 N311 0.985 . S
H318 N315 0.984 . S
H319 N315 0.985 . S
H320 N314 0.984 . S
H321 N314 0.984 . S
H322 N310 0.984 . S
H323 N310 0.985 . S
C324 C325 1.363 . S
C324 C330 1.379 . S
C324 N332 1.356 . S
C325 C324 1.363 . S
C325 C331 1.363 1_554 S
C326 C327 1.363 1_556 S
C326 C331 1.379 . S
C326 N333 1.356 . S
C327 C326 1.363 1_554 S
C327 C330 1.363 . S
N328 C330 1.356 . S
N328 H340 0.984 . S
N328 H341 0.985 . S
N329 C331 1.356 . S
N329 H334 0.984 . S
N329 H335 0.985 . S
C330 C324 1.379 . S
C330 C327 1.363 . S
C330 N328 1.356 . S
C331 C325 1.363 1_556 S
C331 C326 1.379 . S
C331 N329 1.356 . S
N332 C324 1.356 . S
N332 H338 0.984 . S
N332 H339 0.984 . S
N333 C326 1.356 . S
N333 H336 0.984 . S
N333 H337 0.985 . S
H334 N329 0.984 . S
H335 N329 0.985 . S
H336 N333 0.984 . S
H337 N333 0.985 . S
H338 N332 0.984 . S
H339 N332 0.984 . S
H340 N328 0.984 . S
H341 N328 0.985 . S
C342 C343 1.363 1_556 S
C342 C348 1.379 . S
C342 N350 1.356 . S
C343 C342 1.363 1_554 S
C343 C349 1.363 . S
C344 C345 1.363 . S
C344 C349 1.379 . S
C344 N351 1.356 . S
C345 C344 1.363 . S
C345 C348 1.363 1_554 S
N346 C348 1.356 . S
N346 H358 0.984 . S
N346 H359 0.985 . S
N347 C349 1.356 . S
N347 H352 0.984 . S
N347 H353 0.985 . S
C348 C342 1.379 . S
C348 C345 1.363 1_556 S
C348 N346 1.356 . S
C349 C343 1.363 . S
C349 C344 1.379 . S
C349 N347 1.356 . S
N350 C342 1.356 . S
N350 H356 0.984 . S
N350 H357 0.984 . S
N351 C344 1.356 . S
N351 H354 0.984 . S
N351 H355 0.985 . S
H352 N347 0.984 . S
H353 N347 0.985 . S
H354 N351 0.984 . S
H355 N351 0.985 . S
H356 N350 0.984 . S
H357 N350 0.984 . S
H358 N346 0.984 . S
H359 N346 0.985 . S
C360 C361 1.363 1_556 S
C360 C366 1.379 . S
C360 N368 1.356 . S
C361 C360 1.363 1_554 S
C361 C367 1.363 . S
C362 C363 1.363 . S
C362 C367 1.379 . S
C362 N369 1.356 . S
C363 C362 1.363 . S
C363 C366 1.363 1_554 S
N364 C366 1.356 . S
N364 H376 0.984 . S
N364 H377 0.985 . S
N365 C367 1.356 . S
N365 H370 0.984 . S
N365 H371 0.985 . S
C366 C360 1.379 . S
C366 C363 1.363 1_556 S
C366 N364 1.356 . S
C367 C361 1.363 . S
C367 C362 1.379 . S
C367 N365 1.356 . S
N368 C360 1.356 . S
N368 H374 0.984 . S
N368 H375 0.984 . S
N369 C362 1.356 . S
N369 H372 0.984 . S
N369 H373 0.985 . S
H370 N365 0.984 . S
H371 N365 0.985 . S
H372 N369 0.984 . S
H373 N369 0.985 . S
H374 N368 0.984 . S
H375 N368 0.984 . S
H376 N364 0.984 . S
H377 N364 0.985 . S
C378 C379 1.363 . S
C378 C384 1.379 . S
C378 N386 1.356 . S
C379 C378 1.363 . S
C379 C385 1.363 1_554 S
C380 C381 1.363 1_556 S
C380 C385 1.379 . S
C380 N387 1.356 . S
C381 C380 1.363 1_554 S
C381 C384 1.363 . S
N382 C384 1.356 . S
N382 H394 0.984 . S
N382 H395 0.985 . S
N383 C385 1.356 . S
N383 H388 0.984 . S
N383 H389 0.985 . S
C384 C378 1.379 . S
C384 C381 1.363 . S
C384 N382 1.356 . S
C385 C379 1.363 1_556 S
C385 C380 1.379 . S
C385 N383 1.356 . S
N386 C378 1.356 . S
N386 H392 0.984 . S
N386 H393 0.984 . S
N387 C380 1.356 . S
N387 H390 0.984 . S
N387 H391 0.985 . S
H388 N383 0.984 . S
H389 N383 0.985 . S
H390 N387 0.984 . S
H391 N387 0.985 . S
H392 N386 0.984 . S
H393 N386 0.984 . S
H394 N382 0.984 . S
H395 N382 0.985 . S
C396 C397 1.363 . S
C396 C402 1.379 . S
C396 N404 1.356 . S
C397 C396 1.363 . S
C397 C403 1.363 . S
C398 C399 1.363 . S
C398 C403 1.379 . S
C398 N405 1.356 . S
C399 C398 1.363 . S
C399 C402 1.363 . S
N400 C402 1.356 . S
N400 H412 0.984 . S
N400 H413 0.985 . S
N401 C403 1.356 . S
N401 H406 0.984 . S
N401 H407 0.985 . S
C402 C396 1.379 . S
C402 C399 1.363 . S
C402 N400 1.356 . S
C403 C397 1.363 . S
C403 C398 1.379 . S
C403 N401 1.356 . S
N404 C396 1.356 . S
N404 H410 0.984 . S
N404 H411 0.984 . S
N405 C398 1.356 . S
N405 H408 0.984 . S
N405 H409 0.985 . S
H406 N401 0.984 . S
H407 N401 0.985 . S
H408 N405 0.984 . S
H409 N405 0.985 . S
H410 N404 0.984 . S
H411 N404 0.984 . S
H412 N400 0.984 . S
H413 N400 0.985 . S
C414 C415 1.363 . S
C414 C420 1.379 . S
C414 N422 1.356 . S
C415 C414 1.363 . S
C415 C421 1.363 . S
C416 C417 1.363 . S
C416 C421 1.379 . S
C416 N423 1.356 . S
C417 C416 1.363 . S
C417 C420 1.363 . S
N418 C420 1.356 . S
N418 H430 0.984 . S
N418 H431 0.985 . S
N419 C421 1.356 . S
N419 H424 0.984 . S
N419 H425 0.985 . S
C420 C414 1.379 . S
C420 C417 1.363 . S
C420 N418 1.356 . S
C421 C415 1.363 . S
C421 C416 1.379 . S
C421 N419 1.356 . S
N422 C414 1.356 . S
N422 H428 0.984 . S
N422 H429 0.984 . S
N423 C416 1.356 . S
N423 H426 0.984 . S
N423 H427 0.985 . S
H424 N419 0.984 . S
H425 N419 0.985 . S
H426 N423 0.984 . S
H427 N423 0.985 . S
H428 N422 0.984 . S
H429 N422 0.984 . S
H430 N418 0.984 . S
H431 N418 0.985 . S
C432 C433 1.363 . S
C432 C438 1.379 . S
C432 N440 1.356 . S
C433 C432 1.363 . S
C433 C439 1.363 . S
C434 C435 1.363 . S
C434 C439 1.379 . S
C434 N441 1.356 . S
C435 C434 1.363 . S
C435 C438 1.363 . S
N436 C438 1.356 . S
N436 H448 0.984 . S
N436 H449 0.985 . S
N437 C439 1.356 . S
N437 H442 0.984 . S
N437 H443 0.985 . S
C438 C432 1.379 . S
C438 C435 1.363 . S
C438 N436 1.356 . S
C439 C433 1.363 . S
C439 C434 1.379 . S
C439 N437 1.356 . S
N440 C432 1.356 . S
N440 H446 0.984 . S
N440 H447 0.984 . S
N441 C434 1.356 . S
N441 H444 0.984 . S
N441 H445 0.985 . S
H442 N437 0.984 . S
H443 N437 0.985 . S
H444 N441 0.984 . S
H445 N441 0.985 . S
H446 N440 0.984 . S
H447 N440 0.984 . S
H448 N436 0.984 . S
H449 N436 0.985 . S
C450 C451 1.363 . S
C450 C456 1.379 . S
C450 N458 1.356 . S
C451 C450 1.363 . S
C451 C457 1.363 . S
C452 C453 1.363 . S
C452 C457 1.379 . S
C452 N459 1.356 . S
C453 C452 1.363 . S
C453 C456 1.363 . S
N454 C456 1.356 . S
N454 H466 0.984 . S
N454 H467 0.985 . S
N455 C457 1.356 . S
N455 H460 0.984 . S
N455 H461 0.985 . S
C456 C450 1.379 . S
C456 C453 1.363 . S
C456 N454 1.356 . S
C457 C451 1.363 . S
C457 C452 1.379 . S
C457 N455 1.356 . S
N458 C450 1.356 . S
N458 H464 0.984 . S
N458 H465 0.984 . S
N459 C452 1.356 . S
N459 H462 0.984 . S
N459 H463 0.985 . S
H460 N455 0.984 . S
H461 N455 0.985 . S
H462 N459 0.984 . S
H463 N459 0.985 . S
H464 N458 0.984 . S
H465 N458 0.984 . S
H466 N454 0.984 . S
H467 N454 0.985 . S
C468 C469 1.363 . S
C468 C474 1.379 . S
C468 N476 1.356 . S
C469 C468 1.363 . S
C469 C475 1.363 . S
C470 C471 1.363 . S
C470 C475 1.379 . S
C470 N477 1.356 . S
C471 C470 1.363 . S
C471 C474 1.363 . S
N472 C474 1.356 . S
N472 H484 0.984 . S
N472 H485 0.985 . S
N473 C475 1.356 . S
N473 H478 0.984 . S
N473 H479 0.985 . S
C474 C468 1.379 . S
C474 C471 1.363 . S
C474 N472 1.356 . S
C475 C469 1.363 . S
C475 C470 1.379 . S
C475 N473 1.356 . S
N476 C468 1.356 . S
N476 H482 0.984 . S
N476 H483 0.984 . S
N477 C470 1.356 . S
N477 H480 0.984 . S
N477 H481 0.985 . S
H478 N473 0.984 . S
H479 N473 0.985 . S
H480 N477 0.984 . S
H481 N477 0.985 . S
H482 N476 0.984 . S
H483 N476 0.984 . S
H484 N472 0.984 . S
H485 N472 0.985 . S
C486 C487 1.363 . S
C486 C492 1.379 . S
C486 N494 1.356 . S
C487 C486 1.363 . S
C487 C493 1.363 . S
C488 C489 1.363 . S
C488 C493 1.379 . S
C488 N495 1.356 . S
C489 C488 1.363 . S
C489 C492 1.363 . S
N490 C492 1.356 . S
N490 H502 0.984 . S
N490 H503 0.985 . S
N491 C493 1.356 . S
N491 H496 0.984 . S
N491 H497 0.985 . S
C492 C486 1.379 . S
C492 C489 1.363 . S
C492 N490 1.356 . S
C493 C487 1.363 . S
C493 C488 1.379 . S
C493 N491 1.356 . S
N494 C486 1.356 . S
N494 H500 0.984 . S
N494 H501 0.984 . S
N495 C488 1.356 . S
N495 H498 0.984 . S
N495 H499 0.985 . S
H496 N491 0.984 . S
H497 N491 0.985 . S
H498 N495 0.984 . S
H499 N495 0.985 . S
H500 N494 0.984 . S
H501 N494 0.984 . S
H502 N490 0.984 . S
H503 N490 0.985 . S
C181 C166 1.050 . S
C183 C27 1.018 . S
C199 N14 1.657 1_654 S
C201 C46 1.904 . S
C217 N36 1.719 . S
C219 N74 1.616 . S
C235 C106 1.018 . S
C237 C87 1.050 1_554 S
C253 C147 1.904 . S
C255 N96 1.657 1_455 S
C271 N134 1.719 . S
C273 N156 1.616 . S
C289 N126 1.510 1_556 S
C291 C16 1.532 . S
C307 C177 1.943 . S
C309 C57 1.960 . S
C325 N66 1.325 1_554 S
C327 N6 1.317 . S
C343 C117 1.531 . S
C345 N44 1.510 . S
C361 C136 1.960 . S
C363 C76 1.943 . S
C379 N104 1.317 . S
C381 N164 1.324 . S
C397 C10 1.493 . S
C399 C1 1.493 . S
C415 C40 1.499 . S
C417 C31 1.499 . S
C433 C61 1.496 . S
C435 C70 1.496 . S
C451 C100 1.493 . S
C453 C91 1.493 . S
C469 C121 1.499 . S
C471 C130 1.499 . S
C487 C151 1.496 . S
C489 C160 1.496 . S
